# Generated by pormake.
# Topology ana-f, (3,3)-cn, num edge types: 1
# Building blocks:
#     Node 0, Type 0, BuildingBlock: WUSLED_clean_sbu_0, # of connection points: 3
#     Node 1, Type 0, BuildingBlock: WUSLED_clean_sbu_0, # of connection points: 3
#     Node 2, Type 0, BuildingBlock: WUSLED_clean_sbu_0, # of connection points: 3
#     Node 3, Type 0, BuildingBlock: WUSLED_clean_sbu_0, # of connection points: 3
#     Node 4, Type 0, BuildingBlock: WUSLED_clean_sbu_0, # of connection points: 3
#     Node 5, Type 0, BuildingBlock: WUSLED_clean_sbu_0, # of connection points: 3
#     Node 6, Type 0, BuildingBlock: WUSLED_clean_sbu_0, # of connection points: 3
#     Node 7, Type 0, BuildingBlock: WUSLED_clean_sbu_0, # of connection points: 3
#     Node 8, Type 0, BuildingBlock: WUSLED_clean_sbu_0, # of connection points: 3
#     Node 9, Type 0, BuildingBlock: WUSLED_clean_sbu_0, # of connection points: 3
#     Node 10, Type 0, BuildingBlock: WUSLED_clean_sbu_0, # of connection points: 3
#     Node 11, Type 0, BuildingBlock: WUSLED_clean_sbu_0, # of connection points: 3
#     Node 12, Type 0, BuildingBlock: WUSLED_clean_sbu_0, # of connection points: 3
#     Node 13, Type 0, BuildingBlock: WUSLED_clean_sbu_0, # of connection points: 3
#     Node 14, Type 0, BuildingBlock: WUSLED_clean_sbu_0, # of connection points: 3
#     Node 15, Type 0, BuildingBlock: WUSLED_clean_sbu_0, # of connection points: 3
#     Node 16, Type 0, BuildingBlock: WUSLED_clean_sbu_0, # of connection points: 3
#     Node 17, Type 0, BuildingBlock: WUSLED_clean_sbu_0, # of connection points: 3
#     Node 18, Type 0, BuildingBlock: WUSLED_clean_sbu_0, # of connection points: 3
#     Node 19, Type 0, BuildingBlock: WUSLED_clean_sbu_0, # of connection points: 3
#     Node 20, Type 0, BuildingBlock: WUSLED_clean_sbu_0, # of connection points: 3
#     Node 21, Type 0, BuildingBlock: WUSLED_clean_sbu_0, # of connection points: 3
#     Node 22, Type 0, BuildingBlock: WUSLED_clean_sbu_0, # of connection points: 3
#     Node 23, Type 0, BuildingBlock: WUSLED_clean_sbu_0, # of connection points: 3
#     Node 24, Type 0, BuildingBlock: WUSLED_clean_sbu_0, # of connection points: 3
#     Node 25, Type 0, BuildingBlock: WUSLED_clean_sbu_0, # of connection points: 3
#     Node 26, Type 0, BuildingBlock: WUSLED_clean_sbu_0, # of connection points: 3
#     Node 27, Type 0, BuildingBlock: WUSLED_clean_sbu_0, # of connection points: 3
#     Node 28, Type 0, BuildingBlock: WUSLED_clean_sbu_0, # of connection points: 3
#     Node 29, Type 0, BuildingBlock: WUSLED_clean_sbu_0, # of connection points: 3
#     Node 30, Type 0, BuildingBlock: WUSLED_clean_sbu_0, # of connection points: 3
#     Node 31, Type 0, BuildingBlock: WUSLED_clean_sbu_0, # of connection points: 3
#     Node 32, Type 0, BuildingBlock: WUSLED_clean_sbu_0, # of connection points: 3
#     Node 33, Type 0, BuildingBlock: WUSLED_clean_sbu_0, # of connection points: 3
#     Node 34, Type 0, BuildingBlock: WUSLED_clean_sbu_0, # of connection points: 3
#     Node 35, Type 0, BuildingBlock: WUSLED_clean_sbu_0, # of connection points: 3
#     Node 36, Type 0, BuildingBlock: WUSLED_clean_sbu_0, # of connection points: 3
#     Node 37, Type 0, BuildingBlock: WUSLED_clean_sbu_0, # of connection points: 3
#     Node 38, Type 0, BuildingBlock: WUSLED_clean_sbu_0, # of connection points: 3
#     Node 39, Type 0, BuildingBlock: WUSLED_clean_sbu_0, # of connection points: 3
#     Node 40, Type 0, BuildingBlock: WUSLED_clean_sbu_0, # of connection points: 3
#     Node 41, Type 0, BuildingBlock: WUSLED_clean_sbu_0, # of connection points: 3
#     Node 42, Type 0, BuildingBlock: WUSLED_clean_sbu_0, # of connection points: 3
#     Node 43, Type 0, BuildingBlock: WUSLED_clean_sbu_0, # of connection points: 3
#     Node 44, Type 0, BuildingBlock: WUSLED_clean_sbu_0, # of connection points: 3
#     Node 45, Type 0, BuildingBlock: WUSLED_clean_sbu_0, # of connection points: 3
#     Node 46, Type 0, BuildingBlock: WUSLED_clean_sbu_0, # of connection points: 3
#     Node 47, Type 0, BuildingBlock: WUSLED_clean_sbu_0, # of connection points: 3
#     Node 48, Type 0, BuildingBlock: WUSLED_clean_sbu_0, # of connection points: 3
#     Node 49, Type 0, BuildingBlock: WUSLED_clean_sbu_0, # of connection points: 3
#     Node 50, Type 0, BuildingBlock: WUSLED_clean_sbu_0, # of connection points: 3
#     Node 51, Type 0, BuildingBlock: WUSLED_clean_sbu_0, # of connection points: 3
#     Node 52, Type 0, BuildingBlock: WUSLED_clean_sbu_0, # of connection points: 3
#     Node 53, Type 0, BuildingBlock: WUSLED_clean_sbu_0, # of connection points: 3
#     Node 54, Type 0, BuildingBlock: WUSLED_clean_sbu_0, # of connection points: 3
#     Node 55, Type 0, BuildingBlock: WUSLED_clean_sbu_0, # of connection points: 3
#     Node 56, Type 0, BuildingBlock: WUSLED_clean_sbu_0, # of connection points: 3
#     Node 57, Type 0, BuildingBlock: WUSLED_clean_sbu_0, # of connection points: 3
#     Node 58, Type 0, BuildingBlock: WUSLED_clean_sbu_0, # of connection points: 3
#     Node 59, Type 0, BuildingBlock: WUSLED_clean_sbu_0, # of connection points: 3
#     Node 60, Type 0, BuildingBlock: WUSLED_clean_sbu_0, # of connection points: 3
#     Node 61, Type 0, BuildingBlock: WUSLED_clean_sbu_0, # of connection points: 3
#     Node 62, Type 0, BuildingBlock: WUSLED_clean_sbu_0, # of connection points: 3
#     Node 63, Type 0, BuildingBlock: WUSLED_clean_sbu_0, # of connection points: 3
#     Node 64, Type 0, BuildingBlock: WUSLED_clean_sbu_0, # of connection points: 3
#     Node 65, Type 0, BuildingBlock: WUSLED_clean_sbu_0, # of connection points: 3
#     Node 66, Type 0, BuildingBlock: WUSLED_clean_sbu_0, # of connection points: 3
#     Node 67, Type 0, BuildingBlock: WUSLED_clean_sbu_0, # of connection points: 3
#     Node 68, Type 0, BuildingBlock: WUSLED_clean_sbu_0, # of connection points: 3
#     Node 69, Type 0, BuildingBlock: WUSLED_clean_sbu_0, # of connection points: 3
#     Node 70, Type 0, BuildingBlock: WUSLED_clean_sbu_0, # of connection points: 3
#     Node 71, Type 0, BuildingBlock: WUSLED_clean_sbu_0, # of connection points: 3
#     Node 72, Type 0, BuildingBlock: WUSLED_clean_sbu_0, # of connection points: 3
#     Node 73, Type 0, BuildingBlock: WUSLED_clean_sbu_0, # of connection points: 3
#     Node 74, Type 0, BuildingBlock: WUSLED_clean_sbu_0, # of connection points: 3
#     Node 75, Type 0, BuildingBlock: WUSLED_clean_sbu_0, # of connection points: 3
#     Node 76, Type 0, BuildingBlock: WUSLED_clean_sbu_0, # of connection points: 3
#     Node 77, Type 0, BuildingBlock: WUSLED_clean_sbu_0, # of connection points: 3
#     Node 78, Type 0, BuildingBlock: WUSLED_clean_sbu_0, # of connection points: 3
#     Node 79, Type 0, BuildingBlock: WUSLED_clean_sbu_0, # of connection points: 3
#     Node 80, Type 0, BuildingBlock: WUSLED_clean_sbu_0, # of connection points: 3
#     Node 81, Type 0, BuildingBlock: WUSLED_clean_sbu_0, # of connection points: 3
#     Node 82, Type 0, BuildingBlock: WUSLED_clean_sbu_0, # of connection points: 3
#     Node 83, Type 0, BuildingBlock: WUSLED_clean_sbu_0, # of connection points: 3
#     Node 84, Type 0, BuildingBlock: WUSLED_clean_sbu_0, # of connection points: 3
#     Node 85, Type 0, BuildingBlock: WUSLED_clean_sbu_0, # of connection points: 3
#     Node 86, Type 0, BuildingBlock: WUSLED_clean_sbu_0, # of connection points: 3
#     Node 87, Type 0, BuildingBlock: WUSLED_clean_sbu_0, # of connection points: 3
#     Node 88, Type 0, BuildingBlock: WUSLED_clean_sbu_0, # of connection points: 3
#     Node 89, Type 0, BuildingBlock: WUSLED_clean_sbu_0, # of connection points: 3
#     Node 90, Type 0, BuildingBlock: WUSLED_clean_sbu_0, # of connection points: 3
#     Node 91, Type 0, BuildingBlock: WUSLED_clean_sbu_0, # of connection points: 3
#     Node 92, Type 0, BuildingBlock: WUSLED_clean_sbu_0, # of connection points: 3
#     Node 93, Type 0, BuildingBlock: WUSLED_clean_sbu_0, # of connection points: 3
#     Node 94, Type 0, BuildingBlock: WUSLED_clean_sbu_0, # of connection points: 3
#     Node 95, Type 0, BuildingBlock: WUSLED_clean_sbu_0, # of connection points: 3
#     Node 96, Type 1, BuildingBlock: OLANEW_clean_sbu_2, # of connection points: 3
#     Node 97, Type 1, BuildingBlock: OLANEW_clean_sbu_2, # of connection points: 3
#     Node 98, Type 1, BuildingBlock: OLANEW_clean_sbu_2, # of connection points: 3
#     Node 99, Type 1, BuildingBlock: OLANEW_clean_sbu_2, # of connection points: 3
#     Node 100, Type 1, BuildingBlock: OLANEW_clean_sbu_2, # of connection points: 3
#     Node 101, Type 1, BuildingBlock: OLANEW_clean_sbu_2, # of connection points: 3
#     Node 102, Type 1, BuildingBlock: OLANEW_clean_sbu_2, # of connection points: 3
#     Node 103, Type 1, BuildingBlock: OLANEW_clean_sbu_2, # of connection points: 3
#     Node 104, Type 1, BuildingBlock: OLANEW_clean_sbu_2, # of connection points: 3
#     Node 105, Type 1, BuildingBlock: OLANEW_clean_sbu_2, # of connection points: 3
#     Node 106, Type 1, BuildingBlock: OLANEW_clean_sbu_2, # of connection points: 3
#     Node 107, Type 1, BuildingBlock: OLANEW_clean_sbu_2, # of connection points: 3
#     Node 108, Type 1, BuildingBlock: OLANEW_clean_sbu_2, # of connection points: 3
#     Node 109, Type 1, BuildingBlock: OLANEW_clean_sbu_2, # of connection points: 3
#     Node 110, Type 1, BuildingBlock: OLANEW_clean_sbu_2, # of connection points: 3
#     Node 111, Type 1, BuildingBlock: OLANEW_clean_sbu_2, # of connection points: 3
#     Node 112, Type 1, BuildingBlock: OLANEW_clean_sbu_2, # of connection points: 3
#     Node 113, Type 1, BuildingBlock: OLANEW_clean_sbu_2, # of connection points: 3
#     Node 114, Type 1, BuildingBlock: OLANEW_clean_sbu_2, # of connection points: 3
#     Node 115, Type 1, BuildingBlock: OLANEW_clean_sbu_2, # of connection points: 3
#     Node 116, Type 1, BuildingBlock: OLANEW_clean_sbu_2, # of connection points: 3
#     Node 117, Type 1, BuildingBlock: OLANEW_clean_sbu_2, # of connection points: 3
#     Node 118, Type 1, BuildingBlock: OLANEW_clean_sbu_2, # of connection points: 3
#     Node 119, Type 1, BuildingBlock: OLANEW_clean_sbu_2, # of connection points: 3
#     Node 120, Type 1, BuildingBlock: OLANEW_clean_sbu_2, # of connection points: 3
#     Node 121, Type 1, BuildingBlock: OLANEW_clean_sbu_2, # of connection points: 3
#     Node 122, Type 1, BuildingBlock: OLANEW_clean_sbu_2, # of connection points: 3
#     Node 123, Type 1, BuildingBlock: OLANEW_clean_sbu_2, # of connection points: 3
#     Node 124, Type 1, BuildingBlock: OLANEW_clean_sbu_2, # of connection points: 3
#     Node 125, Type 1, BuildingBlock: OLANEW_clean_sbu_2, # of connection points: 3
#     Node 126, Type 1, BuildingBlock: OLANEW_clean_sbu_2, # of connection points: 3
#     Node 127, Type 1, BuildingBlock: OLANEW_clean_sbu_2, # of connection points: 3
#     Node 128, Type 1, BuildingBlock: OLANEW_clean_sbu_2, # of connection points: 3
#     Node 129, Type 1, BuildingBlock: OLANEW_clean_sbu_2, # of connection points: 3
#     Node 130, Type 1, BuildingBlock: OLANEW_clean_sbu_2, # of connection points: 3
#     Node 131, Type 1, BuildingBlock: OLANEW_clean_sbu_2, # of connection points: 3
#     Node 132, Type 1, BuildingBlock: OLANEW_clean_sbu_2, # of connection points: 3
#     Node 133, Type 1, BuildingBlock: OLANEW_clean_sbu_2, # of connection points: 3
#     Node 134, Type 1, BuildingBlock: OLANEW_clean_sbu_2, # of connection points: 3
#     Node 135, Type 1, BuildingBlock: OLANEW_clean_sbu_2, # of connection points: 3
#     Node 136, Type 1, BuildingBlock: OLANEW_clean_sbu_2, # of connection points: 3
#     Node 137, Type 1, BuildingBlock: OLANEW_clean_sbu_2, # of connection points: 3
#     Node 138, Type 1, BuildingBlock: OLANEW_clean_sbu_2, # of connection points: 3
#     Node 139, Type 1, BuildingBlock: OLANEW_clean_sbu_2, # of connection points: 3
#     Node 140, Type 1, BuildingBlock: OLANEW_clean_sbu_2, # of connection points: 3
#     Node 141, Type 1, BuildingBlock: OLANEW_clean_sbu_2, # of connection points: 3
#     Node 142, Type 1, BuildingBlock: OLANEW_clean_sbu_2, # of connection points: 3
#     Node 143, Type 1, BuildingBlock: OLANEW_clean_sbu_2, # of connection points: 3
#     Node 144, Type 1, BuildingBlock: OLANEW_clean_sbu_2, # of connection points: 3
#     Node 145, Type 1, BuildingBlock: OLANEW_clean_sbu_2, # of connection points: 3
#     Node 146, Type 1, BuildingBlock: OLANEW_clean_sbu_2, # of connection points: 3
#     Node 147, Type 1, BuildingBlock: OLANEW_clean_sbu_2, # of connection points: 3
#     Node 148, Type 1, BuildingBlock: OLANEW_clean_sbu_2, # of connection points: 3
#     Node 149, Type 1, BuildingBlock: OLANEW_clean_sbu_2, # of connection points: 3
#     Node 150, Type 1, BuildingBlock: OLANEW_clean_sbu_2, # of connection points: 3
#     Node 151, Type 1, BuildingBlock: OLANEW_clean_sbu_2, # of connection points: 3
#     Node 152, Type 1, BuildingBlock: OLANEW_clean_sbu_2, # of connection points: 3
#     Node 153, Type 1, BuildingBlock: OLANEW_clean_sbu_2, # of connection points: 3
#     Node 154, Type 1, BuildingBlock: OLANEW_clean_sbu_2, # of connection points: 3
#     Node 155, Type 1, BuildingBlock: OLANEW_clean_sbu_2, # of connection points: 3
#     Node 156, Type 1, BuildingBlock: OLANEW_clean_sbu_2, # of connection points: 3
#     Node 157, Type 1, BuildingBlock: OLANEW_clean_sbu_2, # of connection points: 3
#     Node 158, Type 1, BuildingBlock: OLANEW_clean_sbu_2, # of connection points: 3
#     Node 159, Type 1, BuildingBlock: OLANEW_clean_sbu_2, # of connection points: 3
#     Node 160, Type 1, BuildingBlock: OLANEW_clean_sbu_2, # of connection points: 3
#     Node 161, Type 1, BuildingBlock: OLANEW_clean_sbu_2, # of connection points: 3
#     Node 162, Type 1, BuildingBlock: OLANEW_clean_sbu_2, # of connection points: 3
#     Node 163, Type 1, BuildingBlock: OLANEW_clean_sbu_2, # of connection points: 3
#     Node 164, Type 1, BuildingBlock: OLANEW_clean_sbu_2, # of connection points: 3
#     Node 165, Type 1, BuildingBlock: OLANEW_clean_sbu_2, # of connection points: 3
#     Node 166, Type 1, BuildingBlock: OLANEW_clean_sbu_2, # of connection points: 3
#     Node 167, Type 1, BuildingBlock: OLANEW_clean_sbu_2, # of connection points: 3
#     Node 168, Type 1, BuildingBlock: OLANEW_clean_sbu_2, # of connection points: 3
#     Node 169, Type 1, BuildingBlock: OLANEW_clean_sbu_2, # of connection points: 3
#     Node 170, Type 1, BuildingBlock: OLANEW_clean_sbu_2, # of connection points: 3
#     Node 171, Type 1, BuildingBlock: OLANEW_clean_sbu_2, # of connection points: 3
#     Node 172, Type 1, BuildingBlock: OLANEW_clean_sbu_2, # of connection points: 3
#     Node 173, Type 1, BuildingBlock: OLANEW_clean_sbu_2, # of connection points: 3
#     Node 174, Type 1, BuildingBlock: OLANEW_clean_sbu_2, # of connection points: 3
#     Node 175, Type 1, BuildingBlock: OLANEW_clean_sbu_2, # of connection points: 3
#     Node 176, Type 1, BuildingBlock: OLANEW_clean_sbu_2, # of connection points: 3
#     Node 177, Type 1, BuildingBlock: OLANEW_clean_sbu_2, # of connection points: 3
#     Node 178, Type 1, BuildingBlock: OLANEW_clean_sbu_2, # of connection points: 3
#     Node 179, Type 1, BuildingBlock: OLANEW_clean_sbu_2, # of connection points: 3
#     Node 180, Type 1, BuildingBlock: OLANEW_clean_sbu_2, # of connection points: 3
#     Node 181, Type 1, BuildingBlock: OLANEW_clean_sbu_2, # of connection points: 3
#     Node 182, Type 1, BuildingBlock: OLANEW_clean_sbu_2, # of connection points: 3
#     Node 183, Type 1, BuildingBlock: OLANEW_clean_sbu_2, # of connection points: 3
#     Node 184, Type 1, BuildingBlock: OLANEW_clean_sbu_2, # of connection points: 3
#     Node 185, Type 1, BuildingBlock: OLANEW_clean_sbu_2, # of connection points: 3
#     Node 186, Type 1, BuildingBlock: OLANEW_clean_sbu_2, # of connection points: 3
#     Node 187, Type 1, BuildingBlock: OLANEW_clean_sbu_2, # of connection points: 3
#     Node 188, Type 1, BuildingBlock: OLANEW_clean_sbu_2, # of connection points: 3
#     Node 189, Type 1, BuildingBlock: OLANEW_clean_sbu_2, # of connection points: 3
#     Node 190, Type 1, BuildingBlock: OLANEW_clean_sbu_2, # of connection points: 3
#     Node 191, Type 1, BuildingBlock: OLANEW_clean_sbu_2, # of connection points: 3
#     Edge 192, Type (0, 1), BuildingBlock: OJICUG_clean_linker_0, # of connection points: 2
#     Edge 193, Type (0, 1), BuildingBlock: OJICUG_clean_linker_0, # of connection points: 2
#     Edge 194, Type (0, 1), BuildingBlock: OJICUG_clean_linker_0, # of connection points: 2
#     Edge 195, Type (0, 1), BuildingBlock: OJICUG_clean_linker_0, # of connection points: 2
#     Edge 196, Type (0, 1), BuildingBlock: OJICUG_clean_linker_0, # of connection points: 2
#     Edge 197, Type (0, 1), BuildingBlock: OJICUG_clean_linker_0, # of connection points: 2
#     Edge 198, Type (0, 1), BuildingBlock: OJICUG_clean_linker_0, # of connection points: 2
#     Edge 199, Type (0, 1), BuildingBlock: OJICUG_clean_linker_0, # of connection points: 2
#     Edge 200, Type (0, 1), BuildingBlock: OJICUG_clean_linker_0, # of connection points: 2
#     Edge 201, Type (0, 1), BuildingBlock: OJICUG_clean_linker_0, # of connection points: 2
#     Edge 202, Type (0, 1), BuildingBlock: OJICUG_clean_linker_0, # of connection points: 2
#     Edge 203, Type (0, 1), BuildingBlock: OJICUG_clean_linker_0, # of connection points: 2
#     Edge 204, Type (0, 1), BuildingBlock: OJICUG_clean_linker_0, # of connection points: 2
#     Edge 205, Type (0, 1), BuildingBlock: OJICUG_clean_linker_0, # of connection points: 2
#     Edge 206, Type (0, 1), BuildingBlock: OJICUG_clean_linker_0, # of connection points: 2
#     Edge 207, Type (0, 1), BuildingBlock: OJICUG_clean_linker_0, # of connection points: 2
#     Edge 208, Type (0, 1), BuildingBlock: OJICUG_clean_linker_0, # of connection points: 2
#     Edge 209, Type (0, 1), BuildingBlock: OJICUG_clean_linker_0, # of connection points: 2
#     Edge 210, Type (0, 1), BuildingBlock: OJICUG_clean_linker_0, # of connection points: 2
#     Edge 211, Type (0, 1), BuildingBlock: OJICUG_clean_linker_0, # of connection points: 2
#     Edge 212, Type (0, 1), BuildingBlock: OJICUG_clean_linker_0, # of connection points: 2
#     Edge 213, Type (0, 1), BuildingBlock: OJICUG_clean_linker_0, # of connection points: 2
#     Edge 214, Type (0, 1), BuildingBlock: OJICUG_clean_linker_0, # of connection points: 2
#     Edge 215, Type (0, 1), BuildingBlock: OJICUG_clean_linker_0, # of connection points: 2
#     Edge 216, Type (0, 1), BuildingBlock: OJICUG_clean_linker_0, # of connection points: 2
#     Edge 217, Type (0, 1), BuildingBlock: OJICUG_clean_linker_0, # of connection points: 2
#     Edge 218, Type (0, 1), BuildingBlock: OJICUG_clean_linker_0, # of connection points: 2
#     Edge 219, Type (0, 1), BuildingBlock: OJICUG_clean_linker_0, # of connection points: 2
#     Edge 220, Type (0, 1), BuildingBlock: OJICUG_clean_linker_0, # of connection points: 2
#     Edge 221, Type (0, 1), BuildingBlock: OJICUG_clean_linker_0, # of connection points: 2
#     Edge 222, Type (0, 1), BuildingBlock: OJICUG_clean_linker_0, # of connection points: 2
#     Edge 223, Type (0, 1), BuildingBlock: OJICUG_clean_linker_0, # of connection points: 2
#     Edge 224, Type (0, 1), BuildingBlock: OJICUG_clean_linker_0, # of connection points: 2
#     Edge 225, Type (0, 1), BuildingBlock: OJICUG_clean_linker_0, # of connection points: 2
#     Edge 226, Type (0, 1), BuildingBlock: OJICUG_clean_linker_0, # of connection points: 2
#     Edge 227, Type (0, 1), BuildingBlock: OJICUG_clean_linker_0, # of connection points: 2
#     Edge 228, Type (0, 1), BuildingBlock: OJICUG_clean_linker_0, # of connection points: 2
#     Edge 229, Type (0, 1), BuildingBlock: OJICUG_clean_linker_0, # of connection points: 2
#     Edge 230, Type (0, 1), BuildingBlock: OJICUG_clean_linker_0, # of connection points: 2
#     Edge 231, Type (0, 1), BuildingBlock: OJICUG_clean_linker_0, # of connection points: 2
#     Edge 232, Type (0, 1), BuildingBlock: OJICUG_clean_linker_0, # of connection points: 2
#     Edge 233, Type (0, 1), BuildingBlock: OJICUG_clean_linker_0, # of connection points: 2
#     Edge 234, Type (0, 1), BuildingBlock: OJICUG_clean_linker_0, # of connection points: 2
#     Edge 235, Type (0, 1), BuildingBlock: OJICUG_clean_linker_0, # of connection points: 2
#     Edge 236, Type (0, 1), BuildingBlock: OJICUG_clean_linker_0, # of connection points: 2
#     Edge 237, Type (0, 1), BuildingBlock: OJICUG_clean_linker_0, # of connection points: 2
#     Edge 238, Type (0, 1), BuildingBlock: OJICUG_clean_linker_0, # of connection points: 2
#     Edge 239, Type (0, 1), BuildingBlock: OJICUG_clean_linker_0, # of connection points: 2
#     Edge 240, Type (0, 1), BuildingBlock: OJICUG_clean_linker_0, # of connection points: 2
#     Edge 241, Type (0, 1), BuildingBlock: OJICUG_clean_linker_0, # of connection points: 2
#     Edge 242, Type (0, 1), BuildingBlock: OJICUG_clean_linker_0, # of connection points: 2
#     Edge 243, Type (0, 1), BuildingBlock: OJICUG_clean_linker_0, # of connection points: 2
#     Edge 244, Type (0, 1), BuildingBlock: OJICUG_clean_linker_0, # of connection points: 2
#     Edge 245, Type (0, 1), BuildingBlock: OJICUG_clean_linker_0, # of connection points: 2
#     Edge 246, Type (0, 1), BuildingBlock: OJICUG_clean_linker_0, # of connection points: 2
#     Edge 247, Type (0, 1), BuildingBlock: OJICUG_clean_linker_0, # of connection points: 2
#     Edge 248, Type (0, 1), BuildingBlock: OJICUG_clean_linker_0, # of connection points: 2
#     Edge 249, Type (0, 1), BuildingBlock: OJICUG_clean_linker_0, # of connection points: 2
#     Edge 250, Type (0, 1), BuildingBlock: OJICUG_clean_linker_0, # of connection points: 2
#     Edge 251, Type (0, 1), BuildingBlock: OJICUG_clean_linker_0, # of connection points: 2
#     Edge 252, Type (0, 1), BuildingBlock: OJICUG_clean_linker_0, # of connection points: 2
#     Edge 253, Type (0, 1), BuildingBlock: OJICUG_clean_linker_0, # of connection points: 2
#     Edge 254, Type (0, 1), BuildingBlock: OJICUG_clean_linker_0, # of connection points: 2
#     Edge 255, Type (0, 1), BuildingBlock: OJICUG_clean_linker_0, # of connection points: 2
#     Edge 256, Type (0, 1), BuildingBlock: OJICUG_clean_linker_0, # of connection points: 2
#     Edge 257, Type (0, 1), BuildingBlock: OJICUG_clean_linker_0, # of connection points: 2
#     Edge 258, Type (0, 1), BuildingBlock: OJICUG_clean_linker_0, # of connection points: 2
#     Edge 259, Type (0, 1), BuildingBlock: OJICUG_clean_linker_0, # of connection points: 2
#     Edge 260, Type (0, 1), BuildingBlock: OJICUG_clean_linker_0, # of connection points: 2
#     Edge 261, Type (0, 1), BuildingBlock: OJICUG_clean_linker_0, # of connection points: 2
#     Edge 262, Type (0, 1), BuildingBlock: OJICUG_clean_linker_0, # of connection points: 2
#     Edge 263, Type (0, 1), BuildingBlock: OJICUG_clean_linker_0, # of connection points: 2
#     Edge 264, Type (0, 1), BuildingBlock: OJICUG_clean_linker_0, # of connection points: 2
#     Edge 265, Type (0, 1), BuildingBlock: OJICUG_clean_linker_0, # of connection points: 2
#     Edge 266, Type (0, 1), BuildingBlock: OJICUG_clean_linker_0, # of connection points: 2
#     Edge 267, Type (0, 1), BuildingBlock: OJICUG_clean_linker_0, # of connection points: 2
#     Edge 268, Type (0, 1), BuildingBlock: OJICUG_clean_linker_0, # of connection points: 2
#     Edge 269, Type (0, 1), BuildingBlock: OJICUG_clean_linker_0, # of connection points: 2
#     Edge 270, Type (0, 1), BuildingBlock: OJICUG_clean_linker_0, # of connection points: 2
#     Edge 271, Type (0, 1), BuildingBlock: OJICUG_clean_linker_0, # of connection points: 2
#     Edge 272, Type (0, 1), BuildingBlock: OJICUG_clean_linker_0, # of connection points: 2
#     Edge 273, Type (0, 1), BuildingBlock: OJICUG_clean_linker_0, # of connection points: 2
#     Edge 274, Type (0, 1), BuildingBlock: OJICUG_clean_linker_0, # of connection points: 2
#     Edge 275, Type (0, 1), BuildingBlock: OJICUG_clean_linker_0, # of connection points: 2
#     Edge 276, Type (0, 1), BuildingBlock: OJICUG_clean_linker_0, # of connection points: 2
#     Edge 277, Type (0, 1), BuildingBlock: OJICUG_clean_linker_0, # of connection points: 2
#     Edge 278, Type (0, 1), BuildingBlock: OJICUG_clean_linker_0, # of connection points: 2
#     Edge 279, Type (0, 1), BuildingBlock: OJICUG_clean_linker_0, # of connection points: 2
#     Edge 280, Type (0, 1), BuildingBlock: OJICUG_clean_linker_0, # of connection points: 2
#     Edge 281, Type (0, 1), BuildingBlock: OJICUG_clean_linker_0, # of connection points: 2
#     Edge 282, Type (0, 1), BuildingBlock: OJICUG_clean_linker_0, # of connection points: 2
#     Edge 283, Type (0, 1), BuildingBlock: OJICUG_clean_linker_0, # of connection points: 2
#     Edge 284, Type (0, 1), BuildingBlock: OJICUG_clean_linker_0, # of connection points: 2
#     Edge 285, Type (0, 1), BuildingBlock: OJICUG_clean_linker_0, # of connection points: 2
#     Edge 286, Type (0, 1), BuildingBlock: OJICUG_clean_linker_0, # of connection points: 2
#     Edge 287, Type (0, 1), BuildingBlock: OJICUG_clean_linker_0, # of connection points: 2
#     Edge 288, Type (0, 1), BuildingBlock: OJICUG_clean_linker_0, # of connection points: 2
#     Edge 289, Type (0, 1), BuildingBlock: OJICUG_clean_linker_0, # of connection points: 2
#     Edge 290, Type (0, 1), BuildingBlock: OJICUG_clean_linker_0, # of connection points: 2
#     Edge 291, Type (0, 1), BuildingBlock: OJICUG_clean_linker_0, # of connection points: 2
#     Edge 292, Type (0, 1), BuildingBlock: OJICUG_clean_linker_0, # of connection points: 2
#     Edge 293, Type (0, 1), BuildingBlock: OJICUG_clean_linker_0, # of connection points: 2
#     Edge 294, Type (0, 1), BuildingBlock: OJICUG_clean_linker_0, # of connection points: 2
#     Edge 295, Type (0, 1), BuildingBlock: OJICUG_clean_linker_0, # of connection points: 2
#     Edge 296, Type (0, 1), BuildingBlock: OJICUG_clean_linker_0, # of connection points: 2
#     Edge 297, Type (0, 1), BuildingBlock: OJICUG_clean_linker_0, # of connection points: 2
#     Edge 298, Type (0, 1), BuildingBlock: OJICUG_clean_linker_0, # of connection points: 2
#     Edge 299, Type (0, 1), BuildingBlock: OJICUG_clean_linker_0, # of connection points: 2
#     Edge 300, Type (0, 1), BuildingBlock: OJICUG_clean_linker_0, # of connection points: 2
#     Edge 301, Type (0, 1), BuildingBlock: OJICUG_clean_linker_0, # of connection points: 2
#     Edge 302, Type (0, 1), BuildingBlock: OJICUG_clean_linker_0, # of connection points: 2
#     Edge 303, Type (0, 1), BuildingBlock: OJICUG_clean_linker_0, # of connection points: 2
#     Edge 304, Type (0, 1), BuildingBlock: OJICUG_clean_linker_0, # of connection points: 2
#     Edge 305, Type (0, 1), BuildingBlock: OJICUG_clean_linker_0, # of connection points: 2
#     Edge 306, Type (0, 1), BuildingBlock: OJICUG_clean_linker_0, # of connection points: 2
#     Edge 307, Type (0, 1), BuildingBlock: OJICUG_clean_linker_0, # of connection points: 2
#     Edge 308, Type (0, 1), BuildingBlock: OJICUG_clean_linker_0, # of connection points: 2
#     Edge 309, Type (0, 1), BuildingBlock: OJICUG_clean_linker_0, # of connection points: 2
#     Edge 310, Type (0, 1), BuildingBlock: OJICUG_clean_linker_0, # of connection points: 2
#     Edge 311, Type (0, 1), BuildingBlock: OJICUG_clean_linker_0, # of connection points: 2
#     Edge 312, Type (0, 1), BuildingBlock: OJICUG_clean_linker_0, # of connection points: 2
#     Edge 313, Type (0, 1), BuildingBlock: OJICUG_clean_linker_0, # of connection points: 2
#     Edge 314, Type (0, 1), BuildingBlock: OJICUG_clean_linker_0, # of connection points: 2
#     Edge 315, Type (0, 1), BuildingBlock: OJICUG_clean_linker_0, # of connection points: 2
#     Edge 316, Type (0, 1), BuildingBlock: OJICUG_clean_linker_0, # of connection points: 2
#     Edge 317, Type (0, 1), BuildingBlock: OJICUG_clean_linker_0, # of connection points: 2
#     Edge 318, Type (0, 1), BuildingBlock: OJICUG_clean_linker_0, # of connection points: 2
#     Edge 319, Type (0, 1), BuildingBlock: OJICUG_clean_linker_0, # of connection points: 2
#     Edge 320, Type (0, 1), BuildingBlock: OJICUG_clean_linker_0, # of connection points: 2
#     Edge 321, Type (0, 1), BuildingBlock: OJICUG_clean_linker_0, # of connection points: 2
#     Edge 322, Type (0, 1), BuildingBlock: OJICUG_clean_linker_0, # of connection points: 2
#     Edge 323, Type (0, 1), BuildingBlock: OJICUG_clean_linker_0, # of connection points: 2
#     Edge 324, Type (0, 1), BuildingBlock: OJICUG_clean_linker_0, # of connection points: 2
#     Edge 325, Type (0, 1), BuildingBlock: OJICUG_clean_linker_0, # of connection points: 2
#     Edge 326, Type (0, 1), BuildingBlock: OJICUG_clean_linker_0, # of connection points: 2
#     Edge 327, Type (0, 1), BuildingBlock: OJICUG_clean_linker_0, # of connection points: 2
#     Edge 328, Type (0, 1), BuildingBlock: OJICUG_clean_linker_0, # of connection points: 2
#     Edge 329, Type (0, 1), BuildingBlock: OJICUG_clean_linker_0, # of connection points: 2
#     Edge 330, Type (0, 1), BuildingBlock: OJICUG_clean_linker_0, # of connection points: 2
#     Edge 331, Type (0, 1), BuildingBlock: OJICUG_clean_linker_0, # of connection points: 2
#     Edge 332, Type (0, 1), BuildingBlock: OJICUG_clean_linker_0, # of connection points: 2
#     Edge 333, Type (0, 1), BuildingBlock: OJICUG_clean_linker_0, # of connection points: 2
#     Edge 334, Type (0, 1), BuildingBlock: OJICUG_clean_linker_0, # of connection points: 2
#     Edge 335, Type (0, 1), BuildingBlock: OJICUG_clean_linker_0, # of connection points: 2
#     Edge 336, Type (0, 1), BuildingBlock: OJICUG_clean_linker_0, # of connection points: 2
#     Edge 337, Type (0, 1), BuildingBlock: OJICUG_clean_linker_0, # of connection points: 2
#     Edge 338, Type (0, 1), BuildingBlock: OJICUG_clean_linker_0, # of connection points: 2
#     Edge 339, Type (0, 1), BuildingBlock: OJICUG_clean_linker_0, # of connection points: 2
#     Edge 340, Type (0, 1), BuildingBlock: OJICUG_clean_linker_0, # of connection points: 2
#     Edge 341, Type (0, 1), BuildingBlock: OJICUG_clean_linker_0, # of connection points: 2
#     Edge 342, Type (0, 1), BuildingBlock: OJICUG_clean_linker_0, # of connection points: 2
#     Edge 343, Type (0, 1), BuildingBlock: OJICUG_clean_linker_0, # of connection points: 2
#     Edge 344, Type (0, 1), BuildingBlock: OJICUG_clean_linker_0, # of connection points: 2
#     Edge 345, Type (0, 1), BuildingBlock: OJICUG_clean_linker_0, # of connection points: 2
#     Edge 346, Type (0, 1), BuildingBlock: OJICUG_clean_linker_0, # of connection points: 2
#     Edge 347, Type (0, 1), BuildingBlock: OJICUG_clean_linker_0, # of connection points: 2
#     Edge 348, Type (0, 1), BuildingBlock: OJICUG_clean_linker_0, # of connection points: 2
#     Edge 349, Type (0, 1), BuildingBlock: OJICUG_clean_linker_0, # of connection points: 2
#     Edge 350, Type (0, 1), BuildingBlock: OJICUG_clean_linker_0, # of connection points: 2
#     Edge 351, Type (0, 1), BuildingBlock: OJICUG_clean_linker_0, # of connection points: 2
#     Edge 352, Type (0, 1), BuildingBlock: OJICUG_clean_linker_0, # of connection points: 2
#     Edge 353, Type (0, 1), BuildingBlock: OJICUG_clean_linker_0, # of connection points: 2
#     Edge 354, Type (0, 1), BuildingBlock: OJICUG_clean_linker_0, # of connection points: 2
#     Edge 355, Type (0, 1), BuildingBlock: OJICUG_clean_linker_0, # of connection points: 2
#     Edge 356, Type (0, 1), BuildingBlock: OJICUG_clean_linker_0, # of connection points: 2
#     Edge 357, Type (0, 1), BuildingBlock: OJICUG_clean_linker_0, # of connection points: 2
#     Edge 358, Type (0, 1), BuildingBlock: OJICUG_clean_linker_0, # of connection points: 2
#     Edge 359, Type (0, 1), BuildingBlock: OJICUG_clean_linker_0, # of connection points: 2
#     Edge 360, Type (0, 1), BuildingBlock: OJICUG_clean_linker_0, # of connection points: 2
#     Edge 361, Type (0, 1), BuildingBlock: OJICUG_clean_linker_0, # of connection points: 2
#     Edge 362, Type (0, 1), BuildingBlock: OJICUG_clean_linker_0, # of connection points: 2
#     Edge 363, Type (0, 1), BuildingBlock: OJICUG_clean_linker_0, # of connection points: 2
#     Edge 364, Type (0, 1), BuildingBlock: OJICUG_clean_linker_0, # of connection points: 2
#     Edge 365, Type (0, 1), BuildingBlock: OJICUG_clean_linker_0, # of connection points: 2
#     Edge 366, Type (0, 1), BuildingBlock: OJICUG_clean_linker_0, # of connection points: 2
#     Edge 367, Type (0, 1), BuildingBlock: OJICUG_clean_linker_0, # of connection points: 2
#     Edge 368, Type (0, 1), BuildingBlock: OJICUG_clean_linker_0, # of connection points: 2
#     Edge 369, Type (0, 1), BuildingBlock: OJICUG_clean_linker_0, # of connection points: 2
#     Edge 370, Type (0, 1), BuildingBlock: OJICUG_clean_linker_0, # of connection points: 2
#     Edge 371, Type (0, 1), BuildingBlock: OJICUG_clean_linker_0, # of connection points: 2
#     Edge 372, Type (0, 1), BuildingBlock: OJICUG_clean_linker_0, # of connection points: 2
#     Edge 373, Type (0, 1), BuildingBlock: OJICUG_clean_linker_0, # of connection points: 2
#     Edge 374, Type (0, 1), BuildingBlock: OJICUG_clean_linker_0, # of connection points: 2
#     Edge 375, Type (0, 1), BuildingBlock: OJICUG_clean_linker_0, # of connection points: 2
#     Edge 376, Type (0, 1), BuildingBlock: OJICUG_clean_linker_0, # of connection points: 2
#     Edge 377, Type (0, 1), BuildingBlock: OJICUG_clean_linker_0, # of connection points: 2
#     Edge 378, Type (0, 1), BuildingBlock: OJICUG_clean_linker_0, # of connection points: 2
#     Edge 379, Type (0, 1), BuildingBlock: OJICUG_clean_linker_0, # of connection points: 2
#     Edge 380, Type (0, 1), BuildingBlock: OJICUG_clean_linker_0, # of connection points: 2
#     Edge 381, Type (0, 1), BuildingBlock: OJICUG_clean_linker_0, # of connection points: 2
#     Edge 382, Type (0, 1), BuildingBlock: OJICUG_clean_linker_0, # of connection points: 2
#     Edge 383, Type (0, 1), BuildingBlock: OJICUG_clean_linker_0, # of connection points: 2
#     Edge 384, Type (0, 1), BuildingBlock: OJICUG_clean_linker_0, # of connection points: 2
#     Edge 385, Type (0, 1), BuildingBlock: OJICUG_clean_linker_0, # of connection points: 2
#     Edge 386, Type (0, 1), BuildingBlock: OJICUG_clean_linker_0, # of connection points: 2
#     Edge 387, Type (0, 1), BuildingBlock: OJICUG_clean_linker_0, # of connection points: 2
#     Edge 388, Type (0, 1), BuildingBlock: OJICUG_clean_linker_0, # of connection points: 2
#     Edge 389, Type (0, 1), BuildingBlock: OJICUG_clean_linker_0, # of connection points: 2
#     Edge 390, Type (0, 1), BuildingBlock: OJICUG_clean_linker_0, # of connection points: 2
#     Edge 391, Type (0, 1), BuildingBlock: OJICUG_clean_linker_0, # of connection points: 2
#     Edge 392, Type (0, 1), BuildingBlock: OJICUG_clean_linker_0, # of connection points: 2
#     Edge 393, Type (0, 1), BuildingBlock: OJICUG_clean_linker_0, # of connection points: 2
#     Edge 394, Type (0, 1), BuildingBlock: OJICUG_clean_linker_0, # of connection points: 2
#     Edge 395, Type (0, 1), BuildingBlock: OJICUG_clean_linker_0, # of connection points: 2
#     Edge 396, Type (0, 1), BuildingBlock: OJICUG_clean_linker_0, # of connection points: 2
#     Edge 397, Type (0, 1), BuildingBlock: OJICUG_clean_linker_0, # of connection points: 2
#     Edge 398, Type (0, 1), BuildingBlock: OJICUG_clean_linker_0, # of connection points: 2
#     Edge 399, Type (0, 1), BuildingBlock: OJICUG_clean_linker_0, # of connection points: 2
#     Edge 400, Type (0, 1), BuildingBlock: OJICUG_clean_linker_0, # of connection points: 2
#     Edge 401, Type (0, 1), BuildingBlock: OJICUG_clean_linker_0, # of connection points: 2
#     Edge 402, Type (0, 1), BuildingBlock: OJICUG_clean_linker_0, # of connection points: 2
#     Edge 403, Type (0, 1), BuildingBlock: OJICUG_clean_linker_0, # of connection points: 2
#     Edge 404, Type (0, 1), BuildingBlock: OJICUG_clean_linker_0, # of connection points: 2
#     Edge 405, Type (0, 1), BuildingBlock: OJICUG_clean_linker_0, # of connection points: 2
#     Edge 406, Type (0, 1), BuildingBlock: OJICUG_clean_linker_0, # of connection points: 2
#     Edge 407, Type (0, 1), BuildingBlock: OJICUG_clean_linker_0, # of connection points: 2
#     Edge 408, Type (0, 1), BuildingBlock: OJICUG_clean_linker_0, # of connection points: 2
#     Edge 409, Type (0, 1), BuildingBlock: OJICUG_clean_linker_0, # of connection points: 2
#     Edge 410, Type (0, 1), BuildingBlock: OJICUG_clean_linker_0, # of connection points: 2
#     Edge 411, Type (0, 1), BuildingBlock: OJICUG_clean_linker_0, # of connection points: 2
#     Edge 412, Type (0, 1), BuildingBlock: OJICUG_clean_linker_0, # of connection points: 2
#     Edge 413, Type (0, 1), BuildingBlock: OJICUG_clean_linker_0, # of connection points: 2
#     Edge 414, Type (0, 1), BuildingBlock: OJICUG_clean_linker_0, # of connection points: 2
#     Edge 415, Type (0, 1), BuildingBlock: OJICUG_clean_linker_0, # of connection points: 2
#     Edge 416, Type (0, 1), BuildingBlock: OJICUG_clean_linker_0, # of connection points: 2
#     Edge 417, Type (0, 1), BuildingBlock: OJICUG_clean_linker_0, # of connection points: 2
#     Edge 418, Type (0, 1), BuildingBlock: OJICUG_clean_linker_0, # of connection points: 2
#     Edge 419, Type (0, 1), BuildingBlock: OJICUG_clean_linker_0, # of connection points: 2
#     Edge 420, Type (0, 1), BuildingBlock: OJICUG_clean_linker_0, # of connection points: 2
#     Edge 421, Type (0, 1), BuildingBlock: OJICUG_clean_linker_0, # of connection points: 2
#     Edge 422, Type (0, 1), BuildingBlock: OJICUG_clean_linker_0, # of connection points: 2
#     Edge 423, Type (0, 1), BuildingBlock: OJICUG_clean_linker_0, # of connection points: 2
#     Edge 424, Type (0, 1), BuildingBlock: OJICUG_clean_linker_0, # of connection points: 2
#     Edge 425, Type (0, 1), BuildingBlock: OJICUG_clean_linker_0, # of connection points: 2
#     Edge 426, Type (0, 1), BuildingBlock: OJICUG_clean_linker_0, # of connection points: 2
#     Edge 427, Type (0, 1), BuildingBlock: OJICUG_clean_linker_0, # of connection points: 2
#     Edge 428, Type (0, 1), BuildingBlock: OJICUG_clean_linker_0, # of connection points: 2
#     Edge 429, Type (0, 1), BuildingBlock: OJICUG_clean_linker_0, # of connection points: 2
#     Edge 430, Type (0, 1), BuildingBlock: OJICUG_clean_linker_0, # of connection points: 2
#     Edge 431, Type (0, 1), BuildingBlock: OJICUG_clean_linker_0, # of connection points: 2
#     Edge 432, Type (0, 1), BuildingBlock: OJICUG_clean_linker_0, # of connection points: 2
#     Edge 433, Type (0, 1), BuildingBlock: OJICUG_clean_linker_0, # of connection points: 2
#     Edge 434, Type (0, 1), BuildingBlock: OJICUG_clean_linker_0, # of connection points: 2
#     Edge 435, Type (0, 1), BuildingBlock: OJICUG_clean_linker_0, # of connection points: 2
#     Edge 436, Type (0, 1), BuildingBlock: OJICUG_clean_linker_0, # of connection points: 2
#     Edge 437, Type (0, 1), BuildingBlock: OJICUG_clean_linker_0, # of connection points: 2
#     Edge 438, Type (0, 1), BuildingBlock: OJICUG_clean_linker_0, # of connection points: 2
#     Edge 439, Type (0, 1), BuildingBlock: OJICUG_clean_linker_0, # of connection points: 2
#     Edge 440, Type (0, 1), BuildingBlock: OJICUG_clean_linker_0, # of connection points: 2
#     Edge 441, Type (0, 1), BuildingBlock: OJICUG_clean_linker_0, # of connection points: 2
#     Edge 442, Type (0, 1), BuildingBlock: OJICUG_clean_linker_0, # of connection points: 2
#     Edge 443, Type (0, 1), BuildingBlock: OJICUG_clean_linker_0, # of connection points: 2
#     Edge 444, Type (0, 1), BuildingBlock: OJICUG_clean_linker_0, # of connection points: 2
#     Edge 445, Type (0, 1), BuildingBlock: OJICUG_clean_linker_0, # of connection points: 2
#     Edge 446, Type (0, 1), BuildingBlock: OJICUG_clean_linker_0, # of connection points: 2
#     Edge 447, Type (0, 1), BuildingBlock: OJICUG_clean_linker_0, # of connection points: 2
#     Edge 448, Type (0, 1), BuildingBlock: OJICUG_clean_linker_0, # of connection points: 2
#     Edge 449, Type (0, 1), BuildingBlock: OJICUG_clean_linker_0, # of connection points: 2
#     Edge 450, Type (0, 1), BuildingBlock: OJICUG_clean_linker_0, # of connection points: 2
#     Edge 451, Type (0, 1), BuildingBlock: OJICUG_clean_linker_0, # of connection points: 2
#     Edge 452, Type (0, 1), BuildingBlock: OJICUG_clean_linker_0, # of connection points: 2
#     Edge 453, Type (0, 1), BuildingBlock: OJICUG_clean_linker_0, # of connection points: 2
#     Edge 454, Type (0, 1), BuildingBlock: OJICUG_clean_linker_0, # of connection points: 2
#     Edge 455, Type (0, 1), BuildingBlock: OJICUG_clean_linker_0, # of connection points: 2
#     Edge 456, Type (0, 1), BuildingBlock: OJICUG_clean_linker_0, # of connection points: 2
#     Edge 457, Type (0, 1), BuildingBlock: OJICUG_clean_linker_0, # of connection points: 2
#     Edge 458, Type (0, 1), BuildingBlock: OJICUG_clean_linker_0, # of connection points: 2
#     Edge 459, Type (0, 1), BuildingBlock: OJICUG_clean_linker_0, # of connection points: 2
#     Edge 460, Type (0, 1), BuildingBlock: OJICUG_clean_linker_0, # of connection points: 2
#     Edge 461, Type (0, 1), BuildingBlock: OJICUG_clean_linker_0, # of connection points: 2
#     Edge 462, Type (0, 1), BuildingBlock: OJICUG_clean_linker_0, # of connection points: 2
#     Edge 463, Type (0, 1), BuildingBlock: OJICUG_clean_linker_0, # of connection points: 2
#     Edge 464, Type (0, 1), BuildingBlock: OJICUG_clean_linker_0, # of connection points: 2
#     Edge 465, Type (0, 1), BuildingBlock: OJICUG_clean_linker_0, # of connection points: 2
#     Edge 466, Type (0, 1), BuildingBlock: OJICUG_clean_linker_0, # of connection points: 2
#     Edge 467, Type (0, 1), BuildingBlock: OJICUG_clean_linker_0, # of connection points: 2
#     Edge 468, Type (0, 1), BuildingBlock: OJICUG_clean_linker_0, # of connection points: 2
#     Edge 469, Type (0, 1), BuildingBlock: OJICUG_clean_linker_0, # of connection points: 2
#     Edge 470, Type (0, 1), BuildingBlock: OJICUG_clean_linker_0, # of connection points: 2
#     Edge 471, Type (0, 1), BuildingBlock: OJICUG_clean_linker_0, # of connection points: 2
#     Edge 472, Type (0, 1), BuildingBlock: OJICUG_clean_linker_0, # of connection points: 2
#     Edge 473, Type (0, 1), BuildingBlock: OJICUG_clean_linker_0, # of connection points: 2
#     Edge 474, Type (0, 1), BuildingBlock: OJICUG_clean_linker_0, # of connection points: 2
#     Edge 475, Type (0, 1), BuildingBlock: OJICUG_clean_linker_0, # of connection points: 2
#     Edge 476, Type (0, 1), BuildingBlock: OJICUG_clean_linker_0, # of connection points: 2
#     Edge 477, Type (0, 1), BuildingBlock: OJICUG_clean_linker_0, # of connection points: 2
#     Edge 478, Type (0, 1), BuildingBlock: OJICUG_clean_linker_0, # of connection points: 2
#     Edge 479, Type (0, 1), BuildingBlock: OJICUG_clean_linker_0, # of connection points: 2
# Relax obj value: 0.042
# Max RMSD: 0.071
# Mean RMSD: 0.056
data_MOF--net-ana-f--node1-WUSLED_clean_sbu_0--node2-OLANEW_clean_sbu_2--edge1-OJICUG_clean_linker_0
_symmetry_space_group_name_H-M    P1
_symmetry_Int_Tables_number       1
_symmetry_cell_setting            triclinic
loop_
_symmetry_equiv_pos_as_xyz
'x, y, z'
_cell_length_a     157.50778
_cell_length_b     157.59952
_cell_length_c     157.59318
_cell_angle_alpha  90.011754
_cell_angle_beta   90.01746
_cell_angle_gamma 90.005941
loop_
_atom_site_label
_atom_site_type_symbol
_atom_site_fract_x
_atom_site_fract_y
_atom_site_fract_z
_atom_type_partial_charge
C0 C 0.07439 0.15044 0.42685 0.0
C1 C 0.08196 0.15513 0.42694 0.0
C2 C 0.08877 0.14424 0.43552 0.0
C3 C 0.08908 0.15208 0.43125 0.0
C4 C 0.08108 0.13968 0.43559 0.0
C5 C 0.07395 0.14275 0.43127 0.0
U6 U 0.06623 0.16531 0.41017 0.0
O7 O 0.0588 0.16313 0.39861 0.0
O8 O 0.05388 0.17171 0.40843 0.0
C9 C 0.05232 0.16764 0.40132 0.0
C10 C 0.06723 0.15329 0.42161 0.0
C11 C 0.04394 0.16352 0.40064 0.0
C12 C 0.03522 0.15083 0.39954 0.0
C13 C 0.04311 0.15464 0.40094 0.0
C14 C 0.02878 0.16469 0.39795 0.0
C15 C 0.028 0.15581 0.39792 0.0
C16 C 0.0367 0.16851 0.39926 0.0
C17 C 0.08257 0.18112 0.40142 0.0
C18 C 0.07967 0.19077 0.38978 0.0
C19 C 0.09406 0.18908 0.39496 0.0
C20 C 0.09118 0.18328 0.40102 0.0
C21 C 0.08835 0.19282 0.3892 0.0
C22 C 0.0768 0.18494 0.39583 0.0
C23 C 0.07988 0.17445 0.40733 0.0
O24 O 0.06437 0.16094 0.42331 0.0
O25 O 0.06821 0.1519 0.41345 0.0
O26 O 0.07851 0.16702 0.40382 0.0
O27 O 0.07406 0.17657 0.41293 0.0
H28 H 0.08242 0.16108 0.42352 0.0
H29 H 0.09485 0.15581 0.43117 0.0
H30 H 0.08066 0.13358 0.43874 0.0
H31 H 0.06818 0.13902 0.4312 0.0
H32 H 0.03478 0.14397 0.39967 0.0
H33 H 0.04859 0.15065 0.40208 0.0
H34 H 0.02333 0.16869 0.39667 0.0
H35 H 0.0372 0.17536 0.399 0.0
H36 H 0.07509 0.19362 0.38552 0.0
H37 H 0.10079 0.1904 0.39463 0.0
H38 H 0.09572 0.18032 0.40525 0.0
H39 H 0.07012 0.1833 0.39606 0.0
C40 C 0.09954 0.8224 0.6776 0.0
C41 C 0.09459 0.82979 0.67814 0.0
C42 C 0.10588 0.83694 0.68587 0.0
C43 C 0.09772 0.83697 0.68226 0.0
C44 C 0.1107 0.82942 0.68558 0.0
C45 C 0.10756 0.82221 0.68144 0.0
U46 U 0.08467 0.81507 0.66074 0.0
O47 O 0.08673 0.80804 0.64888 0.0
O48 O 0.0778 0.80313 0.65839 0.0
C49 C 0.08175 0.80176 0.65116 0.0
C50 C 0.09666 0.81533 0.67225 0.0
C51 C 0.08533 0.79325 0.64994 0.0
C52 C 0.09481 0.78183 0.65413 0.0
C53 C 0.09112 0.78976 0.65573 0.0
C54 C 0.08689 0.78082 0.64098 0.0
C55 C 0.09282 0.77733 0.64667 0.0
C56 C 0.08318 0.7887 0.64261 0.0
C57 C 0.06948 0.83217 0.65252 0.0
C58 C 0.06127 0.83063 0.63958 0.0
C59 C 0.06067 0.84377 0.64755 0.0
C60 C 0.06626 0.84039 0.65354 0.0
C61 C 0.05823 0.83898 0.64042 0.0
C62 C 0.06687 0.82725 0.64559 0.0
C63 C 0.07601 0.82911 0.6584 0.0
O64 O 0.08893 0.81255 0.67381 0.0
O65 O 0.09814 0.81644 0.66412 0.0
O66 O 0.08344 0.82764 0.65491 0.0
O67 O 0.07366 0.82316 0.66376 0.0
H68 H 0.0884 0.83007 0.67515 0.0
H69 H 0.0938 0.84262 0.68249 0.0
H70 H 0.11704 0.82922 0.68823 0.0
H71 H 0.11149 0.81659 0.68099 0.0
H72 H 0.09941 0.77933 0.65859 0.0
H73 H 0.09289 0.79322 0.6614 0.0
H74 H 0.08513 0.77746 0.63525 0.0
H75 H 0.07872 0.79131 0.63807 0.0
H76 H 0.05957 0.8268 0.63412 0.0
H77 H 0.05834 0.85018 0.64844 0.0
H78 H 0.06822 0.84427 0.65887 0.0
H79 H 0.06934 0.82089 0.6447 0.0
C80 C 0.42784 0.84986 0.9263 0.0
C81 C 0.4203 0.84514 0.9265 0.0
C82 C 0.41349 0.85606 0.93501 0.0
C83 C 0.4132 0.84819 0.93083 0.0
C84 C 0.42117 0.86065 0.93505 0.0
C85 C 0.42829 0.85758 0.93069 0.0
U86 U 0.43509 0.83526 0.90918 0.0
O87 O 0.44203 0.8375 0.89731 0.0
O88 O 0.44706 0.82849 0.90667 0.0
C89 C 0.44835 0.83252 0.89947 0.0
C90 C 0.43487 0.84708 0.92085 0.0
C91 C 0.45685 0.83614 0.89819 0.0
C92 C 0.46817 0.84586 0.90212 0.0
C93 C 0.46029 0.8421 0.90384 0.0
C94 C 0.46923 0.83765 0.88915 0.0
C95 C 0.47266 0.84376 0.89469 0.0
C96 C 0.4614 0.83388 0.8909 0.0
C97 C 0.41802 0.82008 0.90085 0.0
C98 C 0.42044 0.81036 0.88915 0.0
C99 C 0.40616 0.81264 0.89442 0.0
C100 C 0.40932 0.81829 0.90048 0.0
C101 C 0.41167 0.80868 0.88861 0.0
C102 C 0.42358 0.81604 0.8952 0.0
C103 C 0.42106 0.82657 0.90678 0.0
O104 O 0.43767 0.83934 0.92229 0.0
O105 O 0.43368 0.84866 0.91276 0.0
O106 O 0.42248 0.83403 0.90336 0.0
O107 O 0.42704 0.82421 0.91211 0.0
H108 H 0.41982 0.83918 0.9231 0.0
H109 H 0.40743 0.84445 0.93078 0.0
H110 H 0.42157 0.86677 0.93815 0.0
H111 H 0.43404 0.86135 0.93054 0.0
H112 H 0.47063 0.85058 0.90647 0.0
H113 H 0.45682 0.84395 0.90948 0.0
H114 H 0.47259 0.83581 0.88345 0.0
H115 H 0.45883 0.82929 0.88647 0.0
H116 H 0.42486 0.80734 0.88485 0.0
H117 H 0.39937 0.81159 0.89412 0.0
H118 H 0.40493 0.82141 0.90476 0.0
H119 H 0.43033 0.81739 0.8954 0.0
C120 C 0.40186 0.17876 0.17789 0.0
C121 C 0.40706 0.17157 0.17865 0.0
C122 C 0.39595 0.16419 0.18643 0.0
C123 C 0.40415 0.16437 0.1829 0.0
C124 C 0.39087 0.17153 0.18592 0.0
C125 C 0.3938 0.17875 0.18165 0.0
U126 U 0.41642 0.18607 0.16078 0.0
O127 O 0.41407 0.1927 0.14875 0.0
O128 O 0.42292 0.19813 0.15806 0.0
C129 C 0.41888 0.19919 0.15082 0.0
C130 C 0.40451 0.18578 0.17236 0.0
C131 C 0.41503 0.20756 0.1494 0.0
C132 C 0.40549 0.21896 0.15353 0.0
C133 C 0.4094 0.21117 0.15529 0.0
C134 C 0.41284 0.21957 0.14003 0.0
C135 C 0.40709 0.22319 0.14583 0.0
C136 C 0.41677 0.21184 0.14181 0.0
C137 C 0.43202 0.16917 0.15292 0.0
C138 C 0.44018 0.1707 0.13995 0.0
C139 C 0.44089 0.1576 0.14798 0.0
C140 C 0.4353 0.16098 0.15397 0.0
C141 C 0.44327 0.16236 0.14082 0.0
C142 C 0.43458 0.17407 0.14596 0.0
C143 C 0.42545 0.17222 0.15877 0.0
O144 O 0.41216 0.18881 0.17381 0.0
O145 O 0.40301 0.18442 0.16427 0.0
O146 O 0.41796 0.17337 0.15529 0.0
O147 O 0.42767 0.17838 0.16394 0.0
H148 H 0.41328 0.17143 0.17572 0.0
H149 H 0.40826 0.15888 0.18329 0.0
H150 H 0.3845 0.17157 0.1885 0.0
H151 H 0.38967 0.18421 0.18103 0.0
H152 H 0.40105 0.22156 0.15809 0.0
H153 H 0.40795 0.20791 0.16116 0.0
H154 H 0.41429 0.22273 0.13411 0.0
H155 H 0.42109 0.20913 0.1372 0.0
H156 H 0.44182 0.1745 0.13447 0.0
H157 H 0.44325 0.15121 0.14889 0.0
H158 H 0.43337 0.15712 0.15933 0.0
H159 H 0.43205 0.1804 0.14504 0.0
C160 C 0.07385 0.85011 0.07494 0.0
C161 C 0.08133 0.84529 0.07448 0.0
C162 C 0.08816 0.85641 0.06624 0.0
C163 C 0.0884 0.84839 0.07016 0.0
C164 C 0.08055 0.86109 0.06647 0.0
C165 C 0.07345 0.85797 0.07081 0.0
U166 U 0.06666 0.83542 0.09205 0.0
O167 O 0.05967 0.83765 0.10391 0.0
O168 O 0.05469 0.82863 0.09452 0.0
C169 C 0.05335 0.83268 0.1017 0.0
C170 C 0.06686 0.84726 0.0804 0.0
C171 C 0.04486 0.83635 0.10287 0.0
C172 C 0.03345 0.84577 0.09846 0.0
C173 C 0.04134 0.84196 0.09691 0.0
C174 C 0.03254 0.83834 0.1119 0.0
C175 C 0.02902 0.84408 0.10604 0.0
C176 C 0.04038 0.83452 0.11032 0.0
C177 C 0.08375 0.82023 0.10035 0.0
C178 C 0.08132 0.81026 0.11184 0.0
C179 C 0.09563 0.81283 0.10678 0.0
C180 C 0.09247 0.81855 0.1008 0.0
C181 C 0.09011 0.80868 0.11244 0.0
C182 C 0.07817 0.81602 0.10586 0.0
C183 C 0.08069 0.82675 0.09446 0.0
O184 O 0.06408 0.83952 0.07895 0.0
O185 O 0.06806 0.84883 0.0885 0.0
O186 O 0.07925 0.83419 0.09791 0.0
O187 O 0.07473 0.8244 0.0891 0.0
H188 H 0.08176 0.83922 0.07768 0.0
H189 H 0.09412 0.84457 0.07 0.0
H190 H 0.08019 0.86732 0.06359 0.0
H191 H 0.06776 0.8618 0.07118 0.0
H192 H 0.03093 0.85021 0.09386 0.0
H193 H 0.04475 0.8435 0.09114 0.0
H194 H 0.02924 0.83682 0.11773 0.0
H195 H 0.04301 0.83021 0.11499 0.0
H196 H 0.07688 0.80709 0.11601 0.0
H197 H 0.10243 0.81187 0.10714 0.0
H198 H 0.09686 0.82181 0.09663 0.0
H199 H 0.07141 0.81727 0.1056 0.0
C200 C 0.40223 0.82432 0.32443 0.0
C201 C 0.40686 0.83193 0.3243 0.0
C202 C 0.39578 0.83868 0.31592 0.0
C203 C 0.40368 0.83903 0.32007 0.0
C204 C 0.39128 0.83095 0.31585 0.0
C205 C 0.39448 0.82383 0.3201 0.0
U206 U 0.41705 0.81677 0.34134 0.0
O207 O 0.41489 0.80945 0.353 0.0
O208 O 0.4239 0.80477 0.34345 0.0
C209 C 0.41992 0.80323 0.35062 0.0
C210 C 0.40517 0.81723 0.32972 0.0
C211 C 0.41637 0.79468 0.35166 0.0
C212 C 0.40675 0.78339 0.3474 0.0
C213 C 0.41044 0.79134 0.34591 0.0
C214 C 0.41496 0.78204 0.36034 0.0
C215 C 0.40889 0.77871 0.35471 0.0
C216 C 0.41867 0.78994 0.35882 0.0
C217 C 0.43221 0.83347 0.35025 0.0
C218 C 0.44164 0.83055 0.36207 0.0
C219 C 0.4399 0.84497 0.35702 0.0
C220 C 0.43426 0.8421 0.3508 0.0
C221 C 0.44358 0.83925 0.3628 0.0
C222 C 0.43598 0.82769 0.35586 0.0
C223 C 0.42571 0.83072 0.34418 0.0
O224 O 0.41293 0.81456 0.32817 0.0
O225 O 0.40362 0.81821 0.33785 0.0
O226 O 0.41824 0.82918 0.34755 0.0
O227 O 0.42805 0.82495 0.33863 0.0
H228 H 0.41284 0.83244 0.32766 0.0
H229 H 0.40736 0.84483 0.32014 0.0
H230 H 0.38514 0.83049 0.31279 0.0
H231 H 0.39079 0.81803 0.32021 0.0
H232 H 0.40205 0.78102 0.34298 0.0
H233 H 0.40856 0.79496 0.34037 0.0
H234 H 0.41683 0.77854 0.36595 0.0
H235 H 0.42323 0.79243 0.36333 0.0
H236 H 0.44445 0.82596 0.36635 0.0
H237 H 0.44115 0.85172 0.35746 0.0
H238 H 0.43134 0.84665 0.34655 0.0
H239 H 0.43443 0.821 0.35553 0.0
C240 C 0.42773 0.15162 0.5745 0.0
C241 C 0.41993 0.15592 0.57482 0.0
C242 C 0.41347 0.14517 0.56581 0.0
C243 C 0.41288 0.15274 0.5705 0.0
C244 C 0.42137 0.14101 0.56531 0.0
C245 C 0.42844 0.1442 0.56966 0.0
U246 U 0.43508 0.16631 0.59156 0.0
O247 O 0.44252 0.16419 0.60316 0.0
O248 O 0.44691 0.17343 0.5937 0.0
C249 C 0.4486 0.16939 0.6008 0.0
C250 C 0.43482 0.15457 0.57979 0.0
C251 C 0.45725 0.16604 0.60174 0.0
C252 C 0.46892 0.15713 0.59699 0.0
C253 C 0.46085 0.16062 0.59565 0.0
C254 C 0.46986 0.16449 0.61046 0.0
C255 C 0.47346 0.15894 0.60448 0.0
C256 C 0.46184 0.16801 0.6091 0.0
C257 C 0.41786 0.18097 0.60051 0.0
C258 C 0.42035 0.19072 0.61217 0.0
C259 C 0.40602 0.18823 0.60715 0.0
C260 C 0.40915 0.18263 0.60104 0.0
C261 C 0.41157 0.19228 0.61285 0.0
C262 C 0.42347 0.18508 0.60606 0.0
C263 C 0.4209 0.17457 0.59447 0.0
O264 O 0.43734 0.16239 0.57833 0.0
O265 O 0.43392 0.1529 0.58791 0.0
O266 O 0.42266 0.16715 0.59782 0.0
O267 O 0.42661 0.17712 0.58895 0.0
H268 H 0.41926 0.16164 0.57856 0.0
H269 H 0.40693 0.15616 0.57091 0.0
H270 H 0.42201 0.13513 0.5618 0.0
H271 H 0.4344 0.14078 0.56941 0.0
H272 H 0.4715 0.15282 0.5923 0.0
H273 H 0.45736 0.15899 0.58996 0.0
H274 H 0.47324 0.16611 0.61623 0.0
H275 H 0.45915 0.17218 0.61386 0.0
H276 H 0.42482 0.19381 0.61638 0.0
H277 H 0.39922 0.18918 0.60757 0.0
H278 H 0.40473 0.17944 0.59683 0.0
H279 H 0.43023 0.18384 0.60574 0.0
C280 C 0.10019 0.17676 0.82418 0.0
C281 C 0.09512 0.16948 0.82338 0.0
C282 C 0.10634 0.16236 0.81551 0.0
C283 C 0.09814 0.16236 0.81906 0.0
C284 C 0.11129 0.16978 0.81609 0.0
C285 C 0.10824 0.17691 0.82042 0.0
U286 U 0.08561 0.18419 0.84137 0.0
O287 O 0.08803 0.19115 0.8532 0.0
O288 O 0.07905 0.19628 0.84385 0.0
C289 C 0.08314 0.19754 0.85102 0.0
C290 C 0.09742 0.18376 0.82968 0.0
C291 C 0.0869 0.20599 0.85224 0.0
C292 C 0.09637 0.21736 0.8479 0.0
C293 C 0.09252 0.20951 0.8463 0.0
C294 C 0.08898 0.21822 0.86136 0.0
C295 C 0.09472 0.22175 0.85551 0.0
C296 C 0.0851 0.21042 0.85973 0.0
C297 C 0.07014 0.16763 0.84998 0.0
C298 C 0.06053 0.17066 0.86163 0.0
C299 C 0.06268 0.15614 0.85701 0.0
C300 C 0.06829 0.15898 0.85076 0.0
C301 C 0.05882 0.16194 0.86261 0.0
C302 C 0.06617 0.17348 0.85538 0.0
C303 C 0.07665 0.17037 0.84392 0.0
O304 O 0.08971 0.18664 0.82824 0.0
O305 O 0.09899 0.18253 0.83777 0.0
O306 O 0.08418 0.17164 0.84726 0.0
O307 O 0.0744 0.17632 0.83852 0.0
H308 H 0.0889 0.16922 0.82632 0.0
H309 H 0.09412 0.15681 0.81863 0.0
H310 H 0.11766 0.16995 0.81351 0.0
H311 H 0.11228 0.18245 0.82106 0.0
H312 H 0.10082 0.21989 0.84331 0.0
H313 H 0.09402 0.20613 0.8405 0.0
H314 H 0.08748 0.2215 0.86721 0.0
H315 H 0.08078 0.20779 0.86439 0.0
H316 H 0.05758 0.1753 0.86575 0.0
H317 H 0.0616 0.14939 0.85765 0.0
H318 H 0.07136 0.15438 0.84667 0.0
H319 H 0.06756 0.18019 0.85488 0.0
C320 C 0.42868 0.07202 0.15134 0.0
C321 C 0.42806 0.08045 0.15411 0.0
C322 C 0.43848 0.08481 0.14356 0.0
C323 C 0.43291 0.08679 0.15026 0.0
C324 C 0.43926 0.07628 0.141 0.0
C325 C 0.43438 0.06994 0.14485 0.0
U326 U 0.41109 0.06627 0.16645 0.0
O327 O 0.39935 0.059 0.16446 0.0
O328 O 0.40857 0.05482 0.17404 0.0
C329 C 0.40154 0.05306 0.16988 0.0
C330 C 0.42299 0.06552 0.15486 0.0
C331 C 0.40063 0.04433 0.16672 0.0
C332 C 0.4061 0.03204 0.15917 0.0
C333 C 0.4073 0.04019 0.16249 0.0
C334 C 0.39159 0.0321 0.16426 0.0
C335 C 0.3982 0.02794 0.15993 0.0
C336 C 0.39281 0.04021 0.16762 0.0
C337 C 0.40218 0.08392 0.18042 0.0
C338 C 0.3906 0.08147 0.19029 0.0
C339 C 0.39532 0.09582 0.1874 0.0
C340 C 0.40147 0.09267 0.18184 0.0
C341 C 0.38975 0.09026 0.19164 0.0
C342 C 0.39675 0.07833 0.18471 0.0
C343 C 0.40831 0.08078 0.17416 0.0
O344 O 0.42432 0.06353 0.16285 0.0
O345 O 0.41493 0.0667 0.15307 0.0
O346 O 0.40505 0.07884 0.16674 0.0
O347 O 0.41378 0.07512 0.17693 0.0
H348 H 0.42364 0.08216 0.1591 0.0
H349 H 0.43205 0.09329 0.15232 0.0
H350 H 0.44357 0.07452 0.13595 0.0
H351 H 0.43493 0.06345 0.14265 0.0
H352 H 0.41129 0.02902 0.1558 0.0
H353 H 0.41337 0.04331 0.16166 0.0
H354 H 0.38546 0.02908 0.16504 0.0
H355 H 0.38759 0.04332 0.17085 0.0
H356 H 0.38651 0.077 0.19353 0.0
H357 H 0.39478 0.10262 0.1882 0.0
H358 H 0.40558 0.09707 0.17853 0.0
H359 H 0.3972 0.07155 0.18366 0.0
C360 C 0.17506 0.17768 0.40321 0.0
C361 C 0.16683 0.17532 0.40566 0.0
C362 C 0.16081 0.18541 0.39565 0.0
C363 C 0.15978 0.17914 0.40191 0.0
C364 C 0.16908 0.1879 0.39335 0.0
C365 C 0.17617 0.18404 0.3971 0.0
U366 U 0.18292 0.16154 0.41867 0.0
O367 O 0.19207 0.15111 0.41753 0.0
O368 O 0.19409 0.16105 0.42709 0.0
C369 C 0.19721 0.15432 0.42327 0.0
C370 C 0.18239 0.17327 0.40691 0.0
C371 C 0.20619 0.15481 0.42078 0.0
C372 C 0.21711 0.15768 0.41028 0.0
C373 C 0.20858 0.1578 0.41274 0.0
C374 C 0.22098 0.15184 0.42397 0.0
C375 C 0.22339 0.15462 0.41584 0.0
C376 C 0.21244 0.15192 0.4264 0.0
C377 C 0.16571 0.15043 0.43171 0.0
C378 C 0.16875 0.13872 0.44123 0.0
C379 C 0.15419 0.14312 0.43885 0.0
C380 C 0.15703 0.14947 0.43336 0.0
C381 C 0.16001 0.13761 0.44279 0.0
C382 C 0.17157 0.14508 0.43573 0.0
C383 C 0.16849 0.15677 0.42551 0.0
O384 O 0.18385 0.17498 0.41495 0.0
O385 O 0.1827 0.16511 0.4052 0.0
O386 O 0.17144 0.15365 0.41836 0.0
O387 O 0.1731 0.16305 0.4285 0.0
H388 H 0.16587 0.17044 0.41041 0.0
H389 H 0.1535 0.17717 0.40391 0.0
H390 H 0.17007 0.19268 0.38851 0.0
H391 H 0.18248 0.18592 0.39514 0.0
H392 H 0.21879 0.15997 0.40402 0.0
H393 H 0.20383 0.16011 0.40833 0.0
H394 H 0.22565 0.14938 0.42837 0.0
H395 H 0.2107 0.14957 0.43263 0.0
H396 H 0.1734 0.13466 0.44425 0.0
H397 H 0.14743 0.14238 0.43982 0.0
H398 H 0.15242 0.15353 0.43026 0.0
H399 H 0.17831 0.14575 0.43451 0.0
C400 C 0.07329 0.92932 0.65146 0.0
C401 C 0.07415 0.92087 0.65411 0.0
C402 C 0.06352 0.91642 0.6438 0.0
C403 C 0.06931 0.91448 0.65032 0.0
C404 C 0.06253 0.92496 0.64134 0.0
C405 C 0.06739 0.93135 0.64513 0.0
U406 U 0.09055 0.93563 0.66682 0.0
O407 O 0.10216 0.94309 0.66499 0.0
O408 O 0.09257 0.94738 0.67415 0.0
C409 C 0.0996 0.94922 0.67004 0.0
C410 C 0.07884 0.93592 0.65498 0.0
C411 C 0.10013 0.95785 0.66648 0.0
C412 C 0.09979 0.96746 0.65441 0.0
C413 C 0.09873 0.95933 0.6578 0.0
C414 C 0.10328 0.97283 0.66839 0.0
C415 C 0.10215 0.97428 0.65966 0.0
C416 C 0.10231 0.96467 0.67176 0.0
C417 C 0.09941 0.91822 0.68126 0.0
C418 C 0.11225 0.91999 0.68962 0.0
C419 C 0.10474 0.90656 0.6898 0.0
C420 C 0.09868 0.90988 0.68424 0.0
C421 C 0.11166 0.91154 0.69246 0.0
C422 C 0.10617 0.9233 0.68405 0.0
C423 C 0.09339 0.92133 0.67488 0.0
O424 O 0.07733 0.93802 0.66291 0.0
O425 O 0.08695 0.93483 0.65338 0.0
O426 O 0.09676 0.92318 0.66748 0.0
O427 O 0.08786 0.927 0.67749 0.0
H428 H 0.0787 0.9192 0.65899 0.0
H429 H 0.07033 0.90798 0.6523 0.0
H430 H 0.05804 0.92669 0.63643 0.0
H431 H 0.06665 0.93785 0.64302 0.0
H432 H 0.09876 0.96842 0.64769 0.0
H433 H 0.09695 0.95418 0.65361 0.0
H434 H 0.10515 0.97795 0.67258 0.0
H435 H 0.1034 0.96365 0.67847 0.0
H436 H 0.11754 0.92396 0.69147 0.0
H437 H 0.10404 0.90008 0.69197 0.0
H438 H 0.09349 0.90588 0.68214 0.0
H439 H 0.10684 0.92975 0.68177 0.0
C440 C 0.3242 0.82457 0.90198 0.0
C441 C 0.33181 0.82459 0.90661 0.0
C442 C 0.33856 0.81586 0.89581 0.0
C443 C 0.33891 0.82026 0.90357 0.0
C444 C 0.33082 0.81562 0.89133 0.0
C445 C 0.3237 0.81998 0.89438 0.0
U446 U 0.31691 0.84188 0.91635 0.0
O447 O 0.30987 0.85366 0.91395 0.0
O448 O 0.30494 0.84441 0.92312 0.0
C449 C 0.30358 0.85152 0.91897 0.0
C450 C 0.31714 0.83002 0.90472 0.0
C451 C 0.29506 0.85266 0.91533 0.0
C452 C 0.28372 0.84831 0.90581 0.0
C453 C 0.29161 0.84675 0.90962 0.0
C454 C 0.28268 0.86162 0.91345 0.0
C455 C 0.27924 0.85583 0.90759 0.0
C456 C 0.29052 0.86004 0.91728 0.0
C457 C 0.33401 0.85056 0.9313 0.0
C458 C 0.33159 0.86237 0.94088 0.0
C459 C 0.34588 0.85718 0.93855 0.0
C460 C 0.34272 0.85102 0.93301 0.0
C461 C 0.34037 0.863 0.94248 0.0
C462 C 0.32844 0.85622 0.93531 0.0
C463 C 0.33096 0.84451 0.92492 0.0
O464 O 0.31441 0.82868 0.91249 0.0
O465 O 0.31826 0.83809 0.903 0.0
O466 O 0.32948 0.8478 0.91742 0.0
O467 O 0.32503 0.83918 0.9274 0.0
H468 H 0.33232 0.82815 0.91247 0.0
H469 H 0.34473 0.82047 0.90723 0.0
H470 H 0.33037 0.81235 0.8853 0.0
H471 H 0.31789 0.81997 0.8907 0.0
H472 H 0.28126 0.84376 0.90128 0.0
H473 H 0.29508 0.84104 0.90801 0.0
H474 H 0.27933 0.8674 0.91504 0.0
H475 H 0.2931 0.86466 0.92167 0.0
H476 H 0.32715 0.86667 0.9439 0.0
H477 H 0.35268 0.85755 0.93953 0.0
H478 H 0.34711 0.84674 0.9299 0.0
H479 H 0.32168 0.85595 0.93403 0.0
C480 C 0.42811 0.9254 0.34927 0.0
C481 C 0.42705 0.91744 0.34543 0.0
C482 C 0.43628 0.91097 0.35598 0.0
C483 C 0.4311 0.9103 0.34874 0.0
C484 C 0.4375 0.91901 0.35968 0.0
C485 C 0.43342 0.92617 0.35636 0.0
U486 U 0.41165 0.93363 0.33429 0.0
O487 O 0.40057 0.94185 0.3362 0.0
O488 O 0.41049 0.94563 0.32716 0.0
C489 C 0.40357 0.94786 0.33125 0.0
C490 C 0.42326 0.9327 0.34616 0.0
C491 C 0.40355 0.95646 0.33492 0.0
C492 C 0.40451 0.96589 0.34709 0.0
C493 C 0.40516 0.95776 0.34359 0.0
C494 C 0.40102 0.97158 0.33324 0.0
C495 C 0.40234 0.97287 0.34198 0.0
C496 C 0.40159 0.96344 0.32976 0.0
C497 C 0.40181 0.91684 0.31959 0.0
C498 C 0.39021 0.91971 0.30986 0.0
C499 C 0.39476 0.90522 0.31234 0.0
C500 C 0.40099 0.90815 0.31793 0.0
C501 C 0.38922 0.91095 0.30832 0.0
C502 C 0.39644 0.92263 0.31548 0.0
C503 C 0.40792 0.91964 0.32603 0.0
O504 O 0.42496 0.93502 0.33832 0.0
O505 O 0.41508 0.93229 0.34773 0.0
O506 O 0.40458 0.92166 0.33339 0.0
O507 O 0.41379 0.92501 0.3235 0.0
H508 H 0.42296 0.91674 0.33994 0.0
H509 H 0.43013 0.90423 0.34566 0.0
H510 H 0.44139 0.91972 0.36531 0.0
H511 H 0.43427 0.93227 0.35943 0.0
H512 H 0.40567 0.96671 0.35382 0.0
H513 H 0.40677 0.95248 0.34768 0.0
H514 H 0.39929 0.97683 0.32916 0.0
H515 H 0.40034 0.96256 0.32305 0.0
H516 H 0.38613 0.9243 0.30678 0.0
H517 H 0.39411 0.89845 0.3114 0.0
H518 H 0.40505 0.9036 0.32111 0.0
H519 H 0.39699 0.92937 0.31673 0.0
C520 C 0.32484 0.17589 0.59884 0.0
C521 C 0.33266 0.17559 0.59459 0.0
C522 C 0.3391 0.18442 0.60549 0.0
C523 C 0.33972 0.17982 0.59787 0.0
C524 C 0.33118 0.18492 0.60961 0.0
C525 C 0.3241 0.18065 0.60631 0.0
U526 U 0.31744 0.15917 0.58379 0.0
O527 O 0.31001 0.14753 0.58567 0.0
O528 O 0.30555 0.15721 0.57669 0.0
C529 C 0.30388 0.15002 0.58059 0.0
C530 C 0.31775 0.17067 0.59579 0.0
C531 C 0.29527 0.14906 0.58403 0.0
C532 C 0.28393 0.15344 0.59353 0.0
C533 C 0.29193 0.15485 0.58991 0.0
C534 C 0.28253 0.14049 0.58535 0.0
C535 C 0.2792 0.14616 0.59138 0.0
C536 C 0.29049 0.14193 0.58172 0.0
C537 C 0.33462 0.15059 0.56884 0.0
C538 C 0.3321 0.1395 0.55845 0.0
C539 C 0.34649 0.144 0.56156 0.0
C540 C 0.34336 0.1499 0.56738 0.0
C541 C 0.3409 0.13867 0.55706 0.0
C542 C 0.32899 0.1454 0.56431 0.0
C543 C 0.33158 0.15645 0.5754 0.0
O544 O 0.3152 0.17231 0.58801 0.0
O545 O 0.31865 0.16252 0.59727 0.0
O546 O 0.32985 0.15291 0.58274 0.0
O547 O 0.32585 0.16203 0.57301 0.0
H548 H 0.33335 0.17191 0.58882 0.0
H549 H 0.34568 0.17942 0.59448 0.0
H550 H 0.33052 0.18835 0.61552 0.0
H551 H 0.31813 0.18089 0.6097 0.0
H552 H 0.28156 0.15789 0.5982 0.0
H553 H 0.29557 0.16037 0.59181 0.0
H554 H 0.279 0.13489 0.58348 0.0
H555 H 0.29298 0.13739 0.57719 0.0
H556 H 0.32762 0.13558 0.55501 0.0
H557 H 0.35329 0.14346 0.56075 0.0
H558 H 0.3478 0.15383 0.57088 0.0
H559 H 0.32221 0.14584 0.56539 0.0
C560 C 0.07369 0.07502 0.85054 0.0
C561 C 0.07305 0.08227 0.84541 0.0
C562 C 0.0651 0.08956 0.85646 0.0
C563 C 0.06878 0.08946 0.84833 0.0
C564 C 0.06555 0.08218 0.86149 0.0
C565 C 0.06983 0.07498 0.85855 0.0
U566 U 0.09049 0.06685 0.83586 0.0
O567 O 0.10219 0.05967 0.83818 0.0
O568 O 0.09247 0.05445 0.82964 0.0
C569 C 0.09962 0.05309 0.83373 0.0
C570 C 0.07901 0.06786 0.84784 0.0
C571 C 0.10052 0.04474 0.83787 0.0
C572 C 0.10237 0.0361 0.85053 0.0
C573 C 0.10075 0.04396 0.84676 0.0
C574 C 0.10315 0.02958 0.83664 0.0
C575 C 0.10369 0.02884 0.84551 0.0
C576 C 0.10161 0.03747 0.83286 0.0
C577 C 0.09902 0.08307 0.81985 0.0
C578 C 0.11177 0.0808 0.8115 0.0
C579 C 0.10451 0.09435 0.81093 0.0
C580 C 0.09841 0.09131 0.81659 0.0
C581 C 0.11135 0.08918 0.80843 0.0
C582 C 0.10566 0.07778 0.81719 0.0
C583 C 0.09311 0.08039 0.82651 0.0
O584 O 0.07737 0.06483 0.84024 0.0
O585 O 0.08716 0.06897 0.84923 0.0
O586 O 0.09659 0.07921 0.83399 0.0
O587 O 0.08764 0.07443 0.82445 0.0
H588 H 0.07605 0.08243 0.83923 0.0
H589 H 0.06844 0.09498 0.84425 0.0
H590 H 0.06288 0.08208 0.86782 0.0
H591 H 0.07034 0.06946 0.86262 0.0
H592 H 0.10264 0.0357 0.85739 0.0
H593 H 0.09984 0.04946 0.85079 0.0
H594 H 0.10419 0.02411 0.8326 0.0
H595 H 0.10147 0.03792 0.826 0.0
H596 H 0.117 0.07669 0.80978 0.0
H597 H 0.10394 0.10079 0.80859 0.0
H598 H 0.09332 0.09548 0.8186 0.0
H599 H 0.10625 0.0714 0.8197 0.0
C600 C 0.17777 0.82467 0.09928 0.0
C601 C 0.17028 0.82447 0.09446 0.0
C602 C 0.16338 0.81591 0.10529 0.0
C603 C 0.16316 0.82011 0.09742 0.0
C604 C 0.171 0.81589 0.10997 0.0
C605 C 0.17814 0.82028 0.107 0.0
U606 U 0.18522 0.84192 0.08488 0.0
O607 O 0.19214 0.85376 0.08735 0.0
O608 O 0.1973 0.84448 0.07833 0.0
C609 C 0.19855 0.85162 0.08247 0.0
C610 C 0.18482 0.83015 0.09661 0.0
C611 C 0.20699 0.8528 0.08627 0.0
C612 C 0.21831 0.84836 0.09577 0.0
C613 C 0.21046 0.84681 0.09187 0.0
C614 C 0.21926 0.86185 0.08845 0.0
C615 C 0.22274 0.85596 0.09418 0.0
C616 C 0.21146 0.86028 0.08454 0.0
C617 C 0.16836 0.85034 0.0695 0.0
C618 C 0.17017 0.86324 0.06128 0.0
C619 C 0.15682 0.85561 0.06077 0.0
C620 C 0.16009 0.84953 0.06633 0.0
C621 C 0.16178 0.8626 0.05828 0.0
C622 C 0.17344 0.85715 0.06687 0.0
C623 C 0.17134 0.84436 0.07598 0.0
O624 O 0.18772 0.82877 0.0889 0.0
O625 O 0.1836 0.83824 0.09823 0.0
O626 O 0.17263 0.84772 0.08349 0.0
O627 O 0.17737 0.83908 0.07365 0.0
H628 H 0.16987 0.82788 0.08851 0.0
H629 H 0.15744 0.82014 0.09361 0.0
H630 H 0.17134 0.81278 0.11609 0.0
H631 H 0.18384 0.82045 0.11083 0.0
H632 H 0.2208 0.84373 0.1002 0.0
H633 H 0.20705 0.84102 0.09333 0.0
H634 H 0.22257 0.8677 0.08701 0.0
H635 H 0.20887 0.86497 0.08023 0.0
H636 H 0.17413 0.86859 0.05956 0.0
H637 H 0.15038 0.85487 0.05848 0.0
H638 H 0.15609 0.8443 0.06832 0.0
H639 H 0.17983 0.85788 0.0693 0.0
C640 C 0.15212 0.42731 0.07427 0.0
C641 C 0.15704 0.42811 0.08165 0.0
C642 C 0.14565 0.43593 0.08856 0.0
C643 C 0.15385 0.4324 0.08871 0.0
C644 C 0.14084 0.43534 0.08105 0.0
C645 C 0.14405 0.43104 0.07396 0.0
U646 U 0.16695 0.41025 0.06706 0.0
O647 O 0.16478 0.39846 0.05995 0.0
O648 O 0.17384 0.40789 0.05514 0.0
C649 C 0.16985 0.4007 0.05372 0.0
C650 C 0.15507 0.42188 0.06729 0.0
C651 C 0.16637 0.39948 0.04515 0.0
C652 C 0.15716 0.40373 0.03352 0.0
C653 C 0.16072 0.40533 0.04152 0.0
C654 C 0.16493 0.39048 0.03274 0.0
C655 C 0.15914 0.39622 0.0291 0.0
C656 C 0.1685 0.3921 0.04068 0.0
C657 C 0.18206 0.40166 0.08398 0.0
C658 C 0.19035 0.38885 0.08187 0.0
C659 C 0.19069 0.39608 0.09544 0.0
C660 C 0.18513 0.40223 0.0923 0.0
C661 C 0.19326 0.38924 0.09031 0.0
C662 C 0.18478 0.39501 0.07873 0.0
C663 C 0.17559 0.40768 0.08108 0.0
O664 O 0.16284 0.42337 0.06459 0.0
O665 O 0.15352 0.41377 0.06842 0.0
O666 O 0.16811 0.40431 0.0796 0.0
O667 O 0.17797 0.4131 0.0752 0.0
H668 H 0.16326 0.42521 0.08203 0.0
H669 H 0.15777 0.43285 0.09435 0.0
H670 H 0.13447 0.4379 0.08075 0.0
H671 H 0.14013 0.4304 0.06835 0.0
H672 H 0.15268 0.40824 0.03092 0.0
H673 H 0.15897 0.41105 0.04492 0.0
H674 H 0.16668 0.3847 0.02945 0.0
H675 H 0.17286 0.38752 0.0434 0.0
H676 H 0.19214 0.38362 0.07778 0.0
H677 H 0.1929 0.39663 0.10193 0.0
H678 H 0.18307 0.40733 0.09642 0.0
H679 H 0.18242 0.39446 0.07229 0.0
C680 C 0.65143 0.07343 0.92716 0.0
C681 C 0.65598 0.07372 0.91951 0.0
C682 C 0.64495 0.06551 0.91249 0.0
C683 C 0.65278 0.06979 0.91225 0.0
C684 C 0.64053 0.06502 0.92024 0.0
C685 C 0.64374 0.06898 0.92752 0.0
U686 U 0.66658 0.08965 0.93543 0.0
O687 O 0.6648 0.10098 0.94331 0.0
O688 O 0.67355 0.09097 0.94751 0.0
C689 C 0.66963 0.09808 0.94946 0.0
C690 C 0.65445 0.07833 0.93449 0.0
C691 C 0.66598 0.09856 0.95806 0.0
C692 C 0.6538 0.09903 0.96753 0.0
C693 C 0.65719 0.09788 0.95941 0.0
C694 C 0.66797 0.1012 0.97313 0.0
C695 C 0.65915 0.1008 0.97446 0.0
C696 C 0.67134 0.10012 0.96499 0.0
C697 C 0.68183 0.09873 0.91875 0.0
C698 C 0.69136 0.11051 0.92149 0.0
C699 C 0.68966 0.10516 0.90717 0.0
C700 C 0.68396 0.09906 0.91013 0.0
C701 C 0.69334 0.11105 0.91279 0.0
C702 C 0.68562 0.10441 0.92445 0.0
C703 C 0.67521 0.09282 0.92153 0.0
O704 O 0.66218 0.0765 0.93707 0.0
O705 O 0.65307 0.08653 0.93388 0.0
O706 O 0.66787 0.09636 0.9233 0.0
O707 O 0.67749 0.08703 0.92708 0.0
H708 H 0.66192 0.07716 0.91911 0.0
H709 H 0.6564 0.07017 0.90642 0.0
H710 H 0.63444 0.06183 0.92061 0.0
H711 H 0.64013 0.06875 0.93336 0.0
H712 H 0.647 0.09857 0.96838 0.0
H713 H 0.65293 0.0966 0.95416 0.0
H714 H 0.67223 0.1026 0.97834 0.0
H715 H 0.67814 0.10068 0.96408 0.0
H716 H 0.69416 0.11487 0.92601 0.0
H717 H 0.69094 0.10546 0.90043 0.0
H718 H 0.68102 0.09475 0.90565 0.0
H719 H 0.68402 0.10423 0.93113 0.0
C720 C 0.17741 0.40229 0.17744 0.0
C721 C 0.17751 0.40686 0.1698 0.0
C722 C 0.1857 0.39565 0.16304 0.0
C723 C 0.18164 0.40359 0.16268 0.0
C724 C 0.18579 0.3912 0.17079 0.0
C725 C 0.18165 0.39449 0.17793 0.0
U726 U 0.16085 0.41739 0.18525 0.0
O727 O 0.14945 0.41553 0.19303 0.0
O728 O 0.15931 0.42444 0.19725 0.0
C729 C 0.15225 0.42044 0.19918 0.0
C730 C 0.17232 0.40537 0.1846 0.0
C731 C 0.15179 0.41682 0.20779 0.0
C732 C 0.15169 0.4047 0.21734 0.0
C733 C 0.15273 0.40807 0.20919 0.0
C734 C 0.1491 0.41882 0.22285 0.0
C735 C 0.14979 0.41003 0.22424 0.0
C736 C 0.15006 0.42217 0.21469 0.0
C737 C 0.15189 0.43243 0.16828 0.0
C738 C 0.13928 0.44105 0.17027 0.0
C739 C 0.14648 0.44098 0.15668 0.0
C740 C 0.15251 0.43534 0.15991 0.0
C741 C 0.13972 0.4438 0.16178 0.0
C742 C 0.14532 0.43539 0.1735 0.0
C743 C 0.1578 0.42587 0.17124 0.0
O744 O 0.17403 0.41314 0.18713 0.0
O745 O 0.16414 0.40391 0.18384 0.0
O746 O 0.15428 0.41853 0.17303 0.0
O747 O 0.16349 0.42826 0.17686 0.0
H748 H 0.17423 0.41288 0.1693 0.0
H749 H 0.18156 0.40724 0.15686 0.0
H750 H 0.18878 0.38503 0.17126 0.0
H751 H 0.18156 0.39085 0.18376 0.0
H752 H 0.15238 0.39792 0.21824 0.0
H753 H 0.15414 0.40382 0.20398 0.0
H754 H 0.14758 0.42307 0.22803 0.0
H755 H 0.14932 0.42894 0.21374 0.0
H756 H 0.1341 0.44303 0.17434 0.0
H757 H 0.14706 0.44307 0.15016 0.0
H758 H 0.15755 0.4331 0.15581 0.0
H759 H 0.14474 0.43315 0.17997 0.0
C760 C 0.85125 0.92682 0.42656 0.0
C761 C 0.84638 0.92715 0.41911 0.0
C762 C 0.85741 0.9354 0.41213 0.0
C763 C 0.84942 0.93142 0.41197 0.0
C764 C 0.86216 0.93525 0.4197 0.0
C765 C 0.8591 0.93097 0.42686 0.0
U766 U 0.83637 0.91014 0.43471 0.0
O767 O 0.83857 0.89854 0.44206 0.0
O768 O 0.83003 0.90835 0.44708 0.0
C769 C 0.83409 0.90122 0.44858 0.0
C770 C 0.84842 0.92156 0.43372 0.0
C771 C 0.83823 0.90047 0.45694 0.0
C772 C 0.85093 0.89913 0.46561 0.0
C773 C 0.84711 0.9006 0.45774 0.0
C774 C 0.83705 0.89778 0.47209 0.0
C775 C 0.84595 0.89759 0.47285 0.0
C776 C 0.83323 0.89917 0.4642 0.0
C777 C 0.82049 0.90147 0.41838 0.0
C778 C 0.81079 0.88985 0.42126 0.0
C779 C 0.81261 0.89495 0.40687 0.0
C780 C 0.81839 0.90102 0.40976 0.0
C781 C 0.80882 0.88922 0.41256 0.0
C782 C 0.81661 0.89592 0.42415 0.0
C783 C 0.82717 0.90737 0.4211 0.0
O784 O 0.84078 0.92326 0.43662 0.0
O785 O 0.84979 0.91341 0.4327 0.0
O786 O 0.83461 0.90385 0.42241 0.0
O787 O 0.82508 0.91293 0.42695 0.0
H788 H 0.84031 0.92394 0.41876 0.0
H789 H 0.84555 0.93152 0.40629 0.0
H790 H 0.86838 0.93817 0.42001 0.0
H791 H 0.86297 0.93071 0.43254 0.0
H792 H 0.8578 0.89913 0.46603 0.0
H793 H 0.85111 0.90168 0.45226 0.0
H794 H 0.83305 0.89657 0.47755 0.0
H795 H 0.82637 0.89904 0.46372 0.0
H796 H 0.8079 0.88562 0.42583 0.0
H797 H 0.81135 0.89458 0.40012 0.0
H798 H 0.8214 0.90522 0.40523 0.0
H799 H 0.8182 0.89617 0.43083 0.0
C800 C 0.8241 0.09953 0.17632 0.0
C801 C 0.82411 0.09503 0.16864 0.0
C802 C 0.81597 0.10627 0.16188 0.0
C803 C 0.82006 0.09835 0.1615 0.0
C804 C 0.81577 0.11065 0.16967 0.0
C805 C 0.81983 0.10731 0.17683 0.0
U806 U 0.84039 0.0842 0.18427 0.0
O807 O 0.85185 0.08592 0.19199 0.0
O808 O 0.84183 0.07727 0.19636 0.0
C809 C 0.84899 0.08115 0.19821 0.0
C810 C 0.82913 0.0964 0.18352 0.0
C811 C 0.8496 0.08485 0.20678 0.0
C812 C 0.85046 0.09709 0.21614 0.0
C813 C 0.84917 0.09366 0.20806 0.0
C814 C 0.85222 0.08293 0.22186 0.0
C815 C 0.85209 0.09176 0.22311 0.0
C816 C 0.85101 0.07951 0.21375 0.0
C817 C 0.84924 0.0689 0.16753 0.0
C818 C 0.86188 0.06037 0.16973 0.0
C819 C 0.85478 0.06024 0.15608 0.0
C820 C 0.8487 0.06589 0.1592 0.0
C821 C 0.86153 0.05753 0.16126 0.0
C822 C 0.85578 0.06603 0.17284 0.0
C823 C 0.84335 0.07553 0.17035 0.0
O824 O 0.82728 0.08867 0.18608 0.0
O825 O 0.83733 0.09772 0.18277 0.0
O826 O 0.84691 0.08288 0.17205 0.0
O827 O 0.83763 0.07327 0.17598 0.0
H828 H 0.82742 0.08902 0.16813 0.0
H829 H 0.82023 0.09476 0.15564 0.0
H830 H 0.81274 0.1168 0.17016 0.0
H831 H 0.81983 0.1109 0.1827 0.0
H832 H 0.85021 0.10391 0.21694 0.0
H833 H 0.848 0.09792 0.20278 0.0
H834 H 0.85351 0.07867 0.2271 0.0
H835 H 0.85136 0.0727 0.2129 0.0
H836 H 0.86704 0.05847 0.17386 0.0
H837 H 0.85427 0.05808 0.14957 0.0
H838 H 0.84368 0.06806 0.15502 0.0
H839 H 0.85631 0.06835 0.17929 0.0
C840 C 0.34869 0.57377 0.5739 0.0
C841 C 0.34392 0.57351 0.58141 0.0
C842 C 0.35496 0.5652 0.5883 0.0
C843 C 0.347 0.56924 0.58853 0.0
C844 C 0.3596 0.56523 0.58066 0.0
C845 C 0.35649 0.56952 0.57352 0.0
U846 U 0.33429 0.59108 0.56661 0.0
O847 O 0.33668 0.60279 0.55944 0.0
O848 O 0.32739 0.59354 0.55471 0.0
C849 C 0.33155 0.60063 0.55324 0.0
C850 C 0.34588 0.57918 0.56685 0.0
C851 C 0.33503 0.60171 0.54467 0.0
C852 C 0.34423 0.59723 0.53312 0.0
C853 C 0.34062 0.59576 0.54111 0.0
C854 C 0.33664 0.61058 0.53219 0.0
C855 C 0.34236 0.60473 0.52863 0.0
C856 C 0.33301 0.60908 0.54013 0.0
C857 C 0.3195 0.60005 0.58362 0.0
C858 C 0.31151 0.61306 0.58162 0.0
C859 C 0.31101 0.60574 0.59513 0.0
C860 C 0.31642 0.59949 0.59194 0.0
C861 C 0.30859 0.61267 0.59005 0.0
C862 C 0.31693 0.6068 0.57843 0.0
C863 C 0.32582 0.59389 0.58067 0.0
O864 O 0.33808 0.57785 0.56418 0.0
O865 O 0.34765 0.58726 0.5679 0.0
O866 O 0.33335 0.59709 0.57913 0.0
O867 O 0.32326 0.58851 0.57482 0.0
H868 H 0.3379 0.57681 0.58184 0.0
H869 H 0.34322 0.56923 0.59427 0.0
H870 H 0.36578 0.56225 0.5803 0.0
H871 H 0.36029 0.56974 0.5678 0.0
H872 H 0.34866 0.59264 0.53057 0.0
H873 H 0.34228 0.59005 0.54457 0.0
H874 H 0.33498 0.61635 0.52883 0.0
H875 H 0.32871 0.61374 0.54278 0.0
H876 H 0.30984 0.61836 0.57757 0.0
H877 H 0.30877 0.60518 0.60161 0.0
H878 H 0.31835 0.5943 0.59602 0.0
H879 H 0.3193 0.60734 0.572 0.0
C880 C 0.17781 0.5997 0.32283 0.0
C881 C 0.17711 0.59695 0.33127 0.0
C882 C 0.1877 0.60731 0.33567 0.0
C883 C 0.182 0.60072 0.33763 0.0
C884 C 0.18855 0.60987 0.32715 0.0
C885 C 0.18363 0.6061 0.32078 0.0
U886 U 0.16048 0.58437 0.31686 0.0
O887 O 0.14861 0.58626 0.30979 0.0
O888 O 0.158 0.57705 0.3052 0.0
C889 C 0.15081 0.58103 0.30369 0.0
C890 C 0.17213 0.59623 0.3163 0.0
C891 C 0.14963 0.58434 0.29506 0.0
C892 C 0.15377 0.59363 0.28347 0.0
C893 C 0.15539 0.59011 0.29147 0.0
C894 C 0.1407 0.58558 0.28257 0.0
C895 C 0.14634 0.59149 0.27899 0.0
C896 C 0.14233 0.58204 0.29053 0.0
C897 C 0.15198 0.56979 0.3342 0.0
C898 C 0.14059 0.55977 0.33153 0.0
C899 C 0.1451 0.56261 0.34596 0.0
C900 C 0.15121 0.56829 0.34292 0.0
C901 C 0.13965 0.55835 0.34031 0.0
C902 C 0.14669 0.56546 0.32851 0.0
C903 C 0.158 0.57623 0.33118 0.0
O904 O 0.17361 0.58832 0.31409 0.0
O905 O 0.16404 0.59781 0.31759 0.0
O906 O 0.1546 0.58365 0.32948 0.0
O907 O 0.16346 0.57371 0.32539 0.0
H908 H 0.17261 0.59202 0.33296 0.0
H909 H 0.18108 0.59867 0.34412 0.0
H910 H 0.19296 0.61483 0.3254 0.0
H911 H 0.18425 0.60828 0.3143 0.0
H912 H 0.1582 0.59822 0.28091 0.0
H913 H 0.16103 0.592 0.29492 0.0
H914 H 0.13498 0.58372 0.27924 0.0
H915 H 0.13782 0.5776 0.29322 0.0
H916 H 0.13658 0.5565 0.327 0.0
H917 H 0.14449 0.56177 0.35275 0.0
H918 H 0.15522 0.57163 0.3474 0.0
H919 H 0.14719 0.56658 0.32174 0.0
C920 C 0.32341 0.40089 0.8228 0.0
C921 C 0.3242 0.40363 0.83124 0.0
C922 C 0.3137 0.3932 0.83571 0.0
C923 C 0.31939 0.39981 0.83764 0.0
C924 C 0.31279 0.39065 0.82719 0.0
C925 C 0.31762 0.39446 0.8208 0.0
U926 U 0.34053 0.4164 0.81648 0.0
O927 O 0.35213 0.41469 0.80899 0.0
O928 O 0.34246 0.42378 0.80473 0.0
C929 C 0.34953 0.41974 0.80288 0.0
C930 C 0.32893 0.40446 0.8162 0.0
C931 C 0.35013 0.41625 0.79422 0.0
C932 C 0.35021 0.40424 0.78454 0.0
C933 C 0.34905 0.40753 0.7927 0.0
C934 C 0.35318 0.41836 0.77925 0.0
C935 C 0.35237 0.4096 0.77775 0.0
C936 C 0.3521 0.42165 0.78743 0.0
C937 C 0.34937 0.4309 0.83381 0.0
C938 C 0.36077 0.44094 0.83122 0.0
C939 C 0.35618 0.43808 0.84561 0.0
C940 C 0.3501 0.43241 0.84253 0.0
C941 C 0.36166 0.44236 0.84 0.0
C942 C 0.35469 0.43524 0.82815 0.0
C943 C 0.34337 0.42445 0.83078 0.0
O944 O 0.32734 0.41238 0.8141 0.0
O945 O 0.33705 0.40292 0.81727 0.0
O946 O 0.34681 0.4171 0.8289 0.0
O947 O 0.33776 0.427 0.82515 0.0
H948 H 0.32868 0.40858 0.83289 0.0
H949 H 0.32035 0.40186 0.84413 0.0
H950 H 0.30838 0.38566 0.82547 0.0
H951 H 0.31693 0.3923 0.81431 0.0
H952 H 0.34943 0.39748 0.78355 0.0
H953 H 0.34744 0.40325 0.79782 0.0
H954 H 0.35488 0.42264 0.77415 0.0
H955 H 0.35295 0.42839 0.78848 0.0
H956 H 0.3648 0.44421 0.82671 0.0
H957 H 0.35675 0.43892 0.85241 0.0
H958 H 0.34607 0.42906 0.84699 0.0
H959 H 0.35423 0.43412 0.82138 0.0
C960 C 0.93057 0.85189 0.56672 0.0
C961 C 0.92252 0.84811 0.5663 0.0
C962 C 0.91692 0.8605 0.55897 0.0
C963 C 0.91577 0.85235 0.56244 0.0
C964 C 0.92507 0.86415 0.55915 0.0
C965 C 0.93184 0.85988 0.56303 0.0
U966 U 0.93683 0.83525 0.58255 0.0
O967 O 0.9479 0.82684 0.58371 0.0
O968 O 0.94499 0.83594 0.59386 0.0
C969 C 0.95044 0.83042 0.59081 0.0
C970 C 0.93735 0.8478 0.57164 0.0
C971 C 0.95939 0.83308 0.59115 0.0
C972 C 0.97225 0.83819 0.58434 0.0
C973 C 0.96379 0.83556 0.58381 0.0
C974 C 0.97197 0.83601 0.59956 0.0
C975 C 0.97641 0.83848 0.59223 0.0
C976 C 0.96354 0.83331 0.59901 0.0
C977 C 0.91881 0.82134 0.59111 0.0
C978 C 0.92024 0.81193 0.60325 0.0
C979 C 0.90673 0.8132 0.596 0.0
C980 C 0.9103 0.81894 0.5903 0.0
C981 C 0.9116 0.80976 0.60264 0.0
C982 C 0.92383 0.81771 0.59752 0.0
C983 C 0.92215 0.82797 0.58549 0.0
O984 O 0.93674 0.84894 0.57987 0.0
O985 O 0.93903 0.83989 0.56955 0.0
O986 O 0.92737 0.82542 0.5795 0.0
O987 O 0.92466 0.83493 0.58932 0.0
H988 H 0.9214 0.84195 0.56915 0.0
H989 H 0.90961 0.8493 0.56229 0.0
H990 H 0.92614 0.87044 0.55658 0.0
H991 H 0.93801 0.86292 0.56336 0.0
H992 H 0.9755 0.84014 0.5786 0.0
H993 H 0.96068 0.83552 0.57767 0.0
H994 H 0.97504 0.83611 0.60571 0.0
H995 H 0.96024 0.83144 0.60475 0.0
H996 H 0.92414 0.8094 0.60832 0.0
H997 H 0.90009 0.81154 0.59528 0.0
H998 H 0.90636 0.82166 0.58536 0.0
H999 H 0.93043 0.81952 0.59822 0.0
C1000 C 0.90042 0.18075 0.31709 0.0
C1001 C 0.90338 0.17238 0.31765 0.0
C1002 C 0.89159 0.16752 0.30892 0.0
C1003 C 0.899 0.16583 0.3136 0.0
C1004 C 0.88881 0.17597 0.30813 0.0
C1005 C 0.89319 0.18254 0.31222 0.0
U1006 U 0.91678 0.18714 0.33337 0.0
O1007 O 0.92506 0.1983 0.33451 0.0
O1008 O 0.91568 0.19555 0.34446 0.0
C1009 C 0.92124 0.20099 0.34144 0.0
C1010 C 0.90453 0.18746 0.32208 0.0
C1011 C 0.91848 0.2099 0.34145 0.0
C1012 C 0.91326 0.22243 0.33414 0.0
C1013 C 0.91594 0.21398 0.33394 0.0
C1014 C 0.91548 0.22278 0.34936 0.0
C1015 C 0.91298 0.2269 0.34186 0.0
C1016 C 0.91823 0.21435 0.34914 0.0
C1017 C 0.93092 0.16994 0.34292 0.0
C1018 C 0.93744 0.17009 0.35691 0.0
C1019 C 0.94271 0.16053 0.34608 0.0
C1020 C 0.93667 0.16364 0.34038 0.0
C1021 C 0.94306 0.16362 0.35445 0.0
C1022 C 0.93145 0.17326 0.35117 0.0
C1023 C 0.92429 0.17274 0.33696 0.0
O1024 O 0.90318 0.18693 0.33029 0.0
O1025 O 0.91252 0.18899 0.32018 0.0
O1026 O 0.92682 0.17775 0.33079 0.0
O1027 O 0.91706 0.17512 0.3404 0.0
H1028 H 0.90895 0.17089 0.3214 0.0
H1029 H 0.90137 0.1594 0.31422 0.0
H1030 H 0.88309 0.17746 0.30461 0.0
H1031 H 0.89081 0.18897 0.31177 0.0
H1032 H 0.91127 0.22543 0.32828 0.0
H1033 H 0.91598 0.21062 0.32794 0.0
H1034 H 0.91539 0.22609 0.35538 0.0
H1035 H 0.92015 0.2113 0.355 0.0
H1036 H 0.93762 0.17264 0.36329 0.0
H1037 H 0.9469 0.15548 0.34403 0.0
H1038 H 0.93637 0.16101 0.33404 0.0
H1039 H 0.92713 0.1782 0.35324 0.0
C1040 C 0.57035 0.14873 0.06947 0.0
C1041 C 0.57886 0.15104 0.07065 0.0
C1042 C 0.58337 0.13963 0.06126 0.0
C1043 C 0.58531 0.14653 0.06659 0.0
C1044 C 0.5748 0.13748 0.05992 0.0
C1045 C 0.56834 0.14198 0.06403 0.0
U1046 U 0.56387 0.16578 0.08503 0.0
O1047 O 0.55278 0.17429 0.0853 0.0
O1048 O 0.55506 0.16544 0.09581 0.0
C1049 C 0.54982 0.17091 0.09232 0.0
C1050 C 0.56363 0.15316 0.07417 0.0
C1051 C 0.5409 0.16825 0.09203 0.0
C1052 C 0.53016 0.15761 0.08905 0.0
C1053 C 0.53865 0.16018 0.08902 0.0
C1054 C 0.52607 0.17123 0.0949 0.0
C1055 C 0.52378 0.1631 0.09203 0.0
C1056 C 0.53457 0.17378 0.09492 0.0
C1057 C 0.58113 0.17989 0.09467 0.0
C1058 C 0.58167 0.18633 0.10869 0.0
C1059 C 0.59015 0.19212 0.09725 0.0
C1060 C 0.58694 0.18596 0.09174 0.0
C1061 C 0.58766 0.19229 0.10582 0.0
C1062 C 0.57839 0.18022 0.10315 0.0
C1063 C 0.57831 0.1731 0.08887 0.0
O1064 O 0.5639 0.15208 0.08243 0.0
O1065 O 0.56235 0.1611 0.07195 0.0
O1066 O 0.57358 0.17552 0.08243 0.0
O1067 O 0.57564 0.16606 0.09247 0.0
H1068 H 0.58052 0.15626 0.07482 0.0
H1069 H 0.59184 0.14844 0.06763 0.0
H1070 H 0.57312 0.13217 0.05589 0.0
H1071 H 0.56179 0.14012 0.06307 0.0
H1072 H 0.52858 0.15135 0.08669 0.0
H1073 H 0.54347 0.15585 0.0867 0.0
H1074 H 0.5213 0.17557 0.0973 0.0
H1075 H 0.53621 0.18003 0.09727 0.0
H1076 H 0.57958 0.18636 0.11524 0.0
H1077 H 0.59483 0.19656 0.09488 0.0
H1078 H 0.58914 0.18582 0.08523 0.0
H1079 H 0.57385 0.17565 0.10556 0.0
C1080 C 0.60113 0.81972 0.81654 0.0
C1081 C 0.59696 0.82755 0.81588 0.0
C1082 C 0.60893 0.83339 0.80805 0.0
C1083 C 0.6008 0.83431 0.81164 0.0
C1084 C 0.61296 0.82544 0.80847 0.0
C1085 C 0.60909 0.81865 0.81271 0.0
U1086 U 0.58573 0.81305 0.83358 0.0
O1087 O 0.57771 0.80176 0.83514 0.0
O1088 O 0.58747 0.80473 0.84466 0.0
C1089 C 0.58188 0.79919 0.84191 0.0
C1090 C 0.5975 0.81294 0.8218 0.0
C1091 C 0.58477 0.79032 0.84183 0.0
C1092 C 0.58985 0.77784 0.83434 0.0
C1093 C 0.58715 0.78629 0.83425 0.0
C1094 C 0.58802 0.77743 0.84961 0.0
C1095 C 0.59032 0.77333 0.84202 0.0
C1096 C 0.58523 0.78584 0.8495 0.0
C1097 C 0.57145 0.83015 0.84334 0.0
C1098 C 0.56621 0.83191 0.85775 0.0
C1099 C 0.55846 0.83804 0.84597 0.0
C1100 C 0.56448 0.83479 0.84033 0.0
C1101 C 0.55934 0.83675 0.85476 0.0
C1102 C 0.57219 0.8286 0.8521 0.0
C1103 C 0.57801 0.82731 0.83727 0.0
O1104 O 0.59919 0.81364 0.82993 0.0
O1105 O 0.5895 0.81106 0.82027 0.0
O1106 O 0.5754 0.82219 0.83122 0.0
O1107 O 0.58539 0.82513 0.84051 0.0
H1108 H 0.59082 0.8285 0.81884 0.0
H1109 H 0.59747 0.84031 0.81131 0.0
H1110 H 0.61925 0.82455 0.80583 0.0
H1111 H 0.61242 0.81266 0.81322 0.0
H1112 H 0.59169 0.77487 0.82842 0.0
H1113 H 0.58693 0.78967 0.82827 0.0
H1114 H 0.58825 0.77408 0.8556 0.0
H1115 H 0.58344 0.78886 0.85541 0.0
H1116 H 0.56701 0.83077 0.86449 0.0
H1117 H 0.5533 0.84183 0.84348 0.0
H1118 H 0.56379 0.83608 0.83361 0.0
H1119 H 0.57747 0.82497 0.8546 0.0
C1120 C 0.92964 0.14885 0.93274 0.0
C1121 C 0.9214 0.15218 0.93232 0.0
C1122 C 0.91606 0.14036 0.94072 0.0
C1123 C 0.91468 0.14798 0.93629 0.0
C1124 C 0.92438 0.13715 0.94129 0.0
C1125 C 0.93112 0.14137 0.93731 0.0
U1126 U 0.93674 0.16543 0.91703 0.0
O1127 O 0.9479 0.17384 0.91678 0.0
O1128 O 0.94573 0.16479 0.9064 0.0
C1129 C 0.95092 0.17035 0.90984 0.0
C1130 C 0.93657 0.15298 0.92807 0.0
C1131 C 0.95987 0.16779 0.9102 0.0
C1132 C 0.97078 0.15733 0.91319 0.0
C1133 C 0.96223 0.15971 0.9131 0.0
C1134 C 0.97469 0.17114 0.90766 0.0
C1135 C 0.9771 0.16301 0.91045 0.0
C1136 C 0.96614 0.17349 0.90752 0.0
C1137 C 0.91986 0.17975 0.90705 0.0
C1138 C 0.91964 0.18612 0.89299 0.0
C1139 C 0.91118 0.19219 0.90431 0.0
C1140 C 0.91417 0.18598 0.90988 0.0
C1141 C 0.91377 0.19224 0.89577 0.0
C1142 C 0.9227 0.17996 0.8986 0.0
C1143 C 0.92247 0.17295 0.91293 0.0
O1144 O 0.93638 0.15177 0.91983 0.0
O1145 O 0.93806 0.16092 0.93018 0.0
O1146 O 0.92715 0.17533 0.91942 0.0
O1147 O 0.92508 0.16584 0.90942 0.0
H1148 H 0.92014 0.15796 0.92882 0.0
H1149 H 0.90837 0.1507 0.93585 0.0
H1150 H 0.92564 0.13126 0.9446 0.0
H1151 H 0.93745 0.1387 0.93766 0.0
H1152 H 0.97246 0.15106 0.91547 0.0
H1153 H 0.95746 0.15525 0.91525 0.0
H1154 H 0.9794 0.17562 0.90543 0.0
H1155 H 0.96442 0.17976 0.90526 0.0
H1156 H 0.92179 0.18605 0.88647 0.0
H1157 H 0.90658 0.19675 0.9066 0.0
H1158 H 0.9119 0.18593 0.91637 0.0
H1159 H 0.92716 0.17527 0.89627 0.0
C1160 C 0.60059 0.18096 0.68479 0.0
C1161 C 0.5965 0.17312 0.68581 0.0
C1162 C 0.60886 0.16748 0.69316 0.0
C1163 C 0.60057 0.16647 0.68999 0.0
C1164 C 0.61282 0.17545 0.69242 0.0
C1165 C 0.60872 0.18214 0.68824 0.0
U1166 U 0.58525 0.18656 0.66742 0.0
O1167 O 0.57663 0.19734 0.66543 0.0
O1168 O 0.58671 0.19468 0.65617 0.0
C1169 C 0.58077 0.19997 0.65868 0.0
C1170 C 0.59674 0.18755 0.67942 0.0
C1171 C 0.58323 0.20897 0.65859 0.0
C1172 C 0.58808 0.22171 0.6658 0.0
C1173 C 0.58554 0.21322 0.66608 0.0
C1174 C 0.58615 0.22177 0.65054 0.0
C1175 C 0.58846 0.22605 0.65802 0.0
C1176 C 0.58353 0.21331 0.65083 0.0
C1177 C 0.57271 0.16814 0.65773 0.0
C1178 C 0.56206 0.16985 0.64668 0.0
C1179 C 0.56691 0.1558 0.65062 0.0
C1180 C 0.57233 0.15934 0.65666 0.0
C1181 C 0.56177 0.16101 0.64551 0.0
C1182 C 0.56754 0.1734 0.65273 0.0
C1183 C 0.57873 0.17165 0.6639 0.0
O1184 O 0.59865 0.1869 0.67133 0.0
O1185 O 0.58863 0.18902 0.68076 0.0
O1186 O 0.57553 0.17678 0.66965 0.0
O1187 O 0.58592 0.17437 0.66068 0.0
H1188 H 0.59025 0.17206 0.68314 0.0
H1189 H 0.5973 0.16046 0.69058 0.0
H1190 H 0.61923 0.17641 0.69474 0.0
H1191 H 0.612 0.18813 0.68744 0.0
H1192 H 0.58992 0.22483 0.67164 0.0
H1193 H 0.58545 0.20995 0.67213 0.0
H1194 H 0.58632 0.22499 0.64447 0.0
H1195 H 0.5818 0.21012 0.64499 0.0
H1196 H 0.5582 0.17402 0.64281 0.0
H1197 H 0.56672 0.14896 0.64997 0.0
H1198 H 0.57627 0.15519 0.66048 0.0
H1199 H 0.56781 0.18024 0.65345 0.0
C1200 C 0.57285 0.85175 0.43347 0.0
C1201 C 0.58051 0.8474 0.43469 0.0
C1202 C 0.58654 0.85972 0.44183 0.0
C1203 C 0.58727 0.85132 0.43888 0.0
C1204 C 0.57875 0.86398 0.44079 0.0
C1205 C 0.57197 0.86002 0.43663 0.0
U1206 U 0.56593 0.83588 0.41689 0.0
O1207 O 0.55463 0.8278 0.41576 0.0
O1208 O 0.55734 0.83733 0.40596 0.0
C1209 C 0.55189 0.83178 0.40895 0.0
C1210 C 0.56603 0.84795 0.42835 0.0
C1211 C 0.54298 0.83457 0.40911 0.0
C1212 C 0.53036 0.83909 0.41675 0.0
C1213 C 0.53887 0.83659 0.41677 0.0
C1214 C 0.53001 0.8378 0.40143 0.0
C1215 C 0.52585 0.83971 0.40908 0.0
C1216 C 0.53849 0.83522 0.40146 0.0
C1217 C 0.58268 0.82133 0.40711 0.0
C1218 C 0.58272 0.81506 0.393 0.0
C1219 C 0.59123 0.80884 0.4042 0.0
C1220 C 0.58834 0.81504 0.40985 0.0
C1221 C 0.58855 0.80886 0.39569 0.0
C1222 C 0.57977 0.82121 0.39868 0.0
C1223 C 0.5801 0.82804 0.41309 0.0
O1224 O 0.56663 0.84943 0.42017 0.0
O1225 O 0.56418 0.84 0.43011 0.0
O1226 O 0.57512 0.82562 0.41933 0.0
O1227 O 0.57785 0.83533 0.4097 0.0
H1228 H 0.58134 0.84102 0.43225 0.0
H1229 H 0.59313 0.8478 0.43969 0.0
H1230 H 0.578 0.87047 0.44291 0.0
H1231 H 0.56611 0.8635 0.43567 0.0
H1232 H 0.52733 0.84062 0.42273 0.0
H1233 H 0.54223 0.83622 0.42275 0.0
H1234 H 0.52666 0.83816 0.39543 0.0
H1235 H 0.54156 0.8337 0.39549 0.0
H1236 H 0.5805 0.81519 0.3865 0.0
H1237 H 0.5958 0.80421 0.40643 0.0
H1238 H 0.59066 0.81501 0.41632 0.0
H1239 H 0.57532 0.82595 0.39644 0.0
C1240 C 0.89952 0.82059 0.18269 0.0
C1241 C 0.90219 0.82904 0.18188 0.0
C1242 C 0.89081 0.83365 0.19125 0.0
C1243 C 0.89788 0.8355 0.18612 0.0
C1244 C 0.8883 0.82514 0.19223 0.0
C1245 C 0.89262 0.81866 0.18795 0.0
U1246 U 0.91585 0.8142 0.16634 0.0
O1247 O 0.92422 0.8031 0.16534 0.0
O1248 O 0.91478 0.80561 0.15538 0.0
C1249 C 0.9204 0.80027 0.15847 0.0
C1250 C 0.90365 0.81391 0.17768 0.0
C1251 C 0.91772 0.79133 0.15861 0.0
C1252 C 0.91276 0.77884 0.16616 0.0
C1253 C 0.91533 0.78733 0.16621 0.0
C1254 C 0.91478 0.77831 0.15092 0.0
C1255 C 0.91244 0.77425 0.15851 0.0
C1256 C 0.91743 0.78677 0.15098 0.0
C1257 C 0.92998 0.83138 0.15666 0.0
C1258 C 0.93617 0.83191 0.14252 0.0
C1259 C 0.94242 0.84008 0.15395 0.0
C1260 C 0.93627 0.83698 0.15953 0.0
C1261 C 0.94236 0.83767 0.14535 0.0
C1262 C 0.93006 0.82875 0.14813 0.0
C1263 C 0.9233 0.82859 0.16258 0.0
O1264 O 0.90226 0.8144 0.16947 0.0
O1265 O 0.91165 0.81243 0.17955 0.0
O1266 O 0.92583 0.82368 0.16884 0.0
O1267 O 0.9161 0.82612 0.15915 0.0
H1268 H 0.90753 0.83064 0.17784 0.0
H1269 H 0.90006 0.84198 0.18535 0.0
H1270 H 0.88285 0.82352 0.1961 0.0
H1271 H 0.89046 0.81216 0.1886 0.0
H1272 H 0.91089 0.7759 0.17209 0.0
H1273 H 0.91541 0.79076 0.17216 0.0
H1274 H 0.91466 0.7749 0.14495 0.0
H1275 H 0.91923 0.78976 0.14506 0.0
H1276 H 0.93601 0.8299 0.13595 0.0
H1277 H 0.94705 0.84459 0.1563 0.0
H1278 H 0.93633 0.83909 0.16608 0.0
H1279 H 0.92533 0.82435 0.14576 0.0
C1280 C 0.56709 0.9321 0.85241 0.0
C1281 C 0.5645 0.92437 0.84882 0.0
C1282 C 0.55744 0.92047 0.86201 0.0
C1283 C 0.55968 0.91863 0.85356 0.0
C1284 C 0.55996 0.92827 0.86554 0.0
C1285 C 0.56473 0.93404 0.86077 0.0
U1286 U 0.58415 0.93615 0.83582 0.0
O1287 O 0.5858 0.9465 0.82661 0.0
O1288 O 0.59545 0.94434 0.83644 0.0
C1289 C 0.59269 0.94934 0.83037 0.0
C1290 C 0.57265 0.93796 0.84772 0.0
C1291 C 0.59286 0.95846 0.83239 0.0
C1292 C 0.5857 0.97157 0.83623 0.0
C1293 C 0.58536 0.96297 0.83411 0.0
C1294 C 0.60104 0.97124 0.83507 0.0
C1295 C 0.59356 0.97577 0.83678 0.0
C1296 C 0.60069 0.96266 0.83286 0.0
C1297 C 0.59356 0.91766 0.82348 0.0
C1298 C 0.6035 0.91967 0.81184 0.0
C1299 C 0.60149 0.9057 0.81795 0.0
C1300 C 0.59555 0.90901 0.82362 0.0
C1301 C 0.60557 0.91099 0.81202 0.0
C1302 C 0.59757 0.92299 0.81757 0.0
C1303 C 0.58752 0.92104 0.82972 0.0
O1304 O 0.58079 0.9371 0.84933 0.0
O1305 O 0.57099 0.93888 0.83959 0.0
O1306 O 0.58149 0.92595 0.82668 0.0
O1307 O 0.59097 0.92401 0.83671 0.0
H1308 H 0.56635 0.9227 0.84241 0.0
H1309 H 0.55795 0.91262 0.85071 0.0
H1310 H 0.5583 0.92988 0.87201 0.0
H1311 H 0.5667 0.93997 0.86365 0.0
H1312 H 0.57985 0.9749 0.83761 0.0
H1313 H 0.57924 0.95983 0.83388 0.0
H1314 H 0.60717 0.97434 0.83538 0.0
H1315 H 0.60654 0.95928 0.83158 0.0
H1316 H 0.60656 0.9239 0.80737 0.0
H1317 H 0.60285 0.89896 0.81816 0.0
H1318 H 0.59252 0.90482 0.82815 0.0
H1319 H 0.59616 0.92972 0.81743 0.0
C1320 C 0.82094 0.8169 0.60072 0.0
C1321 C 0.82932 0.81743 0.59778 0.0
C1322 C 0.83414 0.80876 0.60962 0.0
C1323 C 0.83586 0.81339 0.60219 0.0
C1324 C 0.82568 0.808 0.61238 0.0
C1325 C 0.81912 0.81207 0.60797 0.0
U1326 U 0.81458 0.8331 0.58429 0.0
O1327 O 0.80339 0.83424 0.57603 0.0
O1328 O 0.80621 0.84423 0.58534 0.0
C1329 C 0.80074 0.8412 0.57982 0.0
C1330 C 0.81424 0.82188 0.59658 0.0
C1331 C 0.79182 0.84129 0.5826 0.0
C1332 C 0.77911 0.83406 0.5875 0.0
C1333 C 0.78756 0.83378 0.5848 0.0
C1334 C 0.77914 0.84936 0.58597 0.0
C1335 C 0.77483 0.84186 0.58814 0.0
C1336 C 0.78755 0.84907 0.58319 0.0
C1337 C 0.8318 0.84254 0.57008 0.0
C1338 C 0.83191 0.85657 0.56367 0.0
C1339 C 0.84107 0.84553 0.55814 0.0
C1340 C 0.83792 0.83987 0.5642 0.0
C1341 C 0.8382 0.85398 0.55791 0.0
C1342 C 0.82869 0.85089 0.56968 0.0
C1343 C 0.82898 0.83661 0.57674 0.0
O1344 O 0.8148 0.8301 0.59789 0.0
O1345 O 0.81269 0.81994 0.58861 0.0
O1346 O 0.82394 0.83045 0.57424 0.0
O1347 O 0.82663 0.84008 0.58396 0.0
H1348 H 0.83082 0.82115 0.59219 0.0
H1349 H 0.84229 0.81399 0.59983 0.0
H1350 H 0.82417 0.80452 0.61811 0.0
H1351 H 0.81268 0.81164 0.61033 0.0
H1352 H 0.77596 0.8282 0.58922 0.0
H1353 H 0.79076 0.8277 0.58449 0.0
H1354 H 0.77597 0.85545 0.58633 0.0
H1355 H 0.79075 0.85493 0.58153 0.0
H1356 H 0.82953 0.86302 0.56359 0.0
H1357 H 0.84598 0.84338 0.55384 0.0
H1358 H 0.84038 0.83346 0.5644 0.0
H1359 H 0.8239 0.85306 0.5741 0.0
C1360 C 0.93536 0.07156 0.35178 0.0
C1361 C 0.93698 0.07914 0.34742 0.0
C1362 C 0.94318 0.08532 0.36015 0.0
C1363 C 0.94089 0.08593 0.35154 0.0
C1364 C 0.94178 0.07761 0.36444 0.0
C1365 C 0.93788 0.07078 0.36028 0.0
U1366 U 0.91955 0.06523 0.33509 0.0
O1367 O 0.91869 0.05418 0.32659 0.0
O1368 O 0.90837 0.05692 0.33556 0.0
C1369 C 0.91155 0.05155 0.33002 0.0
C1370 C 0.93042 0.06478 0.34768 0.0
C1371 C 0.91142 0.04261 0.33259 0.0
C1372 C 0.91413 0.03158 0.343 0.0
C1373 C 0.91442 0.04011 0.34059 0.0
C1374 C 0.90799 0.02795 0.32936 0.0
C1375 C 0.9109 0.02541 0.33741 0.0
C1376 C 0.90824 0.03649 0.32698 0.0
C1377 C 0.91089 0.0832 0.3212 0.0
C1378 C 0.89893 0.08159 0.31157 0.0
C1379 C 0.90569 0.09531 0.31329 0.0
C1380 C 0.91144 0.09179 0.31902 0.0
C1381 C 0.89927 0.0903 0.30963 0.0
C1382 C 0.9047 0.07807 0.31736 0.0
C1383 C 0.91651 0.0799 0.32785 0.0
O1384 O 0.92218 0.06536 0.3488 0.0
O1385 O 0.93253 0.06306 0.33978 0.0
O1386 O 0.92258 0.07477 0.32533 0.0
O1387 O 0.91264 0.07732 0.33477 0.0
H1388 H 0.93502 0.07989 0.34086 0.0
H1389 H 0.942 0.09172 0.34801 0.0
H1390 H 0.9434 0.07696 0.37108 0.0
H1391 H 0.93661 0.065 0.36376 0.0
H1392 H 0.91651 0.02979 0.34919 0.0
H1393 H 0.91696 0.04476 0.34498 0.0
H1394 H 0.9054 0.02336 0.32495 0.0
H1395 H 0.9059 0.03832 0.32078 0.0
H1396 H 0.89403 0.0776 0.30887 0.0
H1397 H 0.9062 0.102 0.3118 0.0
H1398 H 0.9162 0.09582 0.32192 0.0
H1399 H 0.9042 0.07141 0.31899 0.0
C1400 C 0.68059 0.18451 0.10185 0.0
C1401 C 0.67259 0.18509 0.098 0.0
C1402 C 0.66695 0.19225 0.11047 0.0
C1403 C 0.66585 0.18895 0.10224 0.0
C1404 C 0.67505 0.19188 0.11422 0.0
C1405 C 0.68182 0.188 0.10994 0.0
U1406 U 0.6869 0.16908 0.08487 0.0
O1407 O 0.69792 0.16842 0.07631 0.0
O1408 O 0.69524 0.15792 0.08508 0.0
C1409 C 0.70058 0.16122 0.07958 0.0
C1410 C 0.6874 0.17971 0.09766 0.0
C1411 C 0.70954 0.16106 0.08213 0.0
C1412 C 0.72061 0.16373 0.09251 0.0
C1413 C 0.71207 0.16406 0.09012 0.0
C1414 C 0.72417 0.15754 0.07889 0.0
C1415 C 0.72675 0.16046 0.08692 0.0
C1416 C 0.71563 0.15783 0.07653 0.0
C1417 C 0.66883 0.16074 0.07083 0.0
C1418 C 0.66943 0.14795 0.06221 0.0
C1419 C 0.6571 0.15713 0.06156 0.0
C1420 C 0.66086 0.16261 0.06741 0.0
C1421 C 0.66125 0.14963 0.05905 0.0
C1422 C 0.6732 0.15347 0.06808 0.0
C1423 C 0.6722 0.16617 0.07761 0.0
O1424 O 0.68686 0.17144 0.09863 0.0
O1425 O 0.68904 0.18197 0.0898 0.0
O1426 O 0.67731 0.17231 0.07521 0.0
O1427 O 0.67482 0.16217 0.08444 0.0
H1428 H 0.67151 0.18239 0.09176 0.0
H1429 H 0.65973 0.18926 0.09912 0.0
H1430 H 0.67609 0.19431 0.12056 0.0
H1431 H 0.68795 0.18755 0.11303 0.0
H1432 H 0.72242 0.16612 0.0987 0.0
H1433 H 0.70744 0.16663 0.09451 0.0
H1434 H 0.72875 0.15491 0.07448 0.0
H1435 H 0.71377 0.15549 0.07033 0.0
H1436 H 0.67277 0.14222 0.06042 0.0
H1437 H 0.65087 0.15869 0.05911 0.0
H1438 H 0.65743 0.16822 0.06943 0.0
H1439 H 0.6794 0.15195 0.07065 0.0
C1440 C 0.564 0.06994 0.65179 0.0
C1441 C 0.56346 0.07817 0.65512 0.0
C1442 C 0.5532 0.08203 0.64421 0.0
C1443 C 0.5581 0.08416 0.65138 0.0
C1444 C 0.55371 0.07374 0.64095 0.0
C1445 C 0.55907 0.06773 0.64472 0.0
U1446 U 0.58245 0.06523 0.66641 0.0
O1447 O 0.58511 0.05448 0.67488 0.0
O1448 O 0.59383 0.05738 0.6644 0.0
C1449 C 0.59172 0.05202 0.67042 0.0
C1450 C 0.56998 0.0638 0.65545 0.0
C1451 C 0.59186 0.04303 0.66794 0.0
C1452 C 0.58467 0.03022 0.66327 0.0
C1453 C 0.58437 0.03873 0.66575 0.0
C1454 C 0.59996 0.03026 0.665 0.0
C1455 C 0.59247 0.02591 0.66283 0.0
C1456 C 0.59965 0.03874 0.66755 0.0
C1457 C 0.59222 0.08346 0.67898 0.0
C1458 C 0.60271 0.0815 0.69014 0.0
C1459 C 0.60031 0.09547 0.68418 0.0
C1460 C 0.59413 0.09213 0.67878 0.0
C1461 C 0.60469 0.0902 0.68989 0.0
C1462 C 0.59655 0.07814 0.68467 0.0
C1463 C 0.58586 0.0801 0.67305 0.0
O1464 O 0.57793 0.06493 0.6532 0.0
O1465 O 0.56907 0.06232 0.66361 0.0
O1466 O 0.58025 0.07483 0.67629 0.0
O1467 O 0.58886 0.07761 0.66568 0.0
H1468 H 0.56729 0.08001 0.66053 0.0
H1469 H 0.55798 0.09052 0.65396 0.0
H1470 H 0.54999 0.07189 0.63547 0.0
H1471 H 0.55945 0.06141 0.64206 0.0
H1472 H 0.57881 0.02706 0.66154 0.0
H1473 H 0.5783 0.04196 0.66591 0.0
H1474 H 0.60605 0.02707 0.66478 0.0
H1475 H 0.6055 0.04197 0.6692 0.0
H1476 H 0.60602 0.07728 0.69444 0.0
H1477 H 0.6016 0.10222 0.68393 0.0
H1478 H 0.59085 0.09632 0.67442 0.0
H1479 H 0.59519 0.0714 0.68486 0.0
C1480 C 0.67984 0.81614 0.40029 0.0
C1481 C 0.67235 0.8145 0.40481 0.0
C1482 C 0.66621 0.8076 0.3924 0.0
C1483 C 0.66562 0.81022 0.40092 0.0
C1484 C 0.67384 0.80905 0.38798 0.0
C1485 C 0.68059 0.8133 0.3919 0.0
U1486 U 0.6865 0.83281 0.41619 0.0
O1487 O 0.69789 0.83424 0.42411 0.0
O1488 O 0.69472 0.844 0.41467 0.0
C1489 C 0.70034 0.84116 0.42013 0.0
C1490 C 0.68656 0.82141 0.40406 0.0
C1491 C 0.70921 0.8413 0.41722 0.0
C1492 C 0.72194 0.83412 0.41228 0.0
C1493 C 0.71346 0.83382 0.41489 0.0
C1494 C 0.72195 0.84939 0.41408 0.0
C1495 C 0.72627 0.84191 0.41186 0.0
C1496 C 0.7135 0.84908 0.41676 0.0
C1497 C 0.66972 0.84211 0.43093 0.0
C1498 C 0.67021 0.85605 0.43753 0.0
C1499 C 0.66056 0.84534 0.4429 0.0
C1500 C 0.66349 0.83964 0.43677 0.0
C1501 C 0.66379 0.85366 0.44325 0.0
C1502 C 0.67319 0.85031 0.43145 0.0
C1503 C 0.67233 0.83616 0.42422 0.0
O1504 O 0.68573 0.82958 0.40263 0.0
O1505 O 0.68857 0.81965 0.41197 0.0
O1506 O 0.67754 0.83009 0.42658 0.0
O1507 O 0.67437 0.83961 0.4169 0.0
H1508 H 0.67162 0.81669 0.41129 0.0
H1509 H 0.6599 0.80909 0.40456 0.0
H1510 H 0.67448 0.8072 0.38139 0.0
H1511 H 0.6863 0.81459 0.38829 0.0
H1512 H 0.72509 0.82827 0.41052 0.0
H1513 H 0.71025 0.82775 0.41511 0.0
H1514 H 0.72515 0.85548 0.41388 0.0
H1515 H 0.71032 0.85492 0.41852 0.0
H1516 H 0.67286 0.86239 0.43771 0.0
H1517 H 0.65555 0.84334 0.44715 0.0
H1518 H 0.66075 0.83333 0.43648 0.0
H1519 H 0.67808 0.85233 0.42707 0.0
C1520 C 0.93508 0.92998 0.14976 0.0
C1521 C 0.93606 0.92214 0.15385 0.0
C1522 C 0.94304 0.91633 0.14135 0.0
C1523 C 0.94003 0.9154 0.1497 0.0
C1524 C 0.94226 0.92428 0.13735 0.0
C1525 C 0.93828 0.93105 0.14153 0.0
U1526 U 0.91962 0.93644 0.16671 0.0
O1527 O 0.91891 0.94764 0.17504 0.0
O1528 O 0.90839 0.94469 0.16638 0.0
C1529 C 0.91168 0.95017 0.17174 0.0
C1530 C 0.93018 0.93677 0.15386 0.0
C1531 C 0.91144 0.95907 0.16901 0.0
C1532 C 0.91396 0.96993 0.15839 0.0
C1533 C 0.91432 0.96145 0.16094 0.0
C1534 C 0.90795 0.97375 0.17203 0.0
C1535 C 0.91076 0.97618 0.16392 0.0
C1536 C 0.90828 0.96526 0.17455 0.0
C1537 C 0.91151 0.91872 0.18129 0.0
C1538 C 0.89843 0.91898 0.18948 0.0
C1539 C 0.90861 0.90764 0.19154 0.0
C1540 C 0.91395 0.9113 0.1855 0.0
C1541 C 0.90069 0.91131 0.19345 0.0
C1542 C 0.90381 0.92267 0.18344 0.0
C1543 C 0.91687 0.92193 0.17437 0.0
O1544 O 0.92191 0.93609 0.15295 0.0
O1545 O 0.93246 0.93861 0.16168 0.0
O1546 O 0.92302 0.92712 0.17658 0.0
O1547 O 0.91282 0.92432 0.16748 0.0
H1548 H 0.93359 0.92118 0.16019 0.0
H1549 H 0.94065 0.90941 0.15302 0.0
H1550 H 0.94445 0.92519 0.1309 0.0
H1551 H 0.93751 0.93705 0.13826 0.0
H1552 H 0.91626 0.97163 0.15214 0.0
H1553 H 0.91685 0.95674 0.1566 0.0
H1554 H 0.90539 0.9784 0.17639 0.0
H1555 H 0.90603 0.96351 0.18081 0.0
H1556 H 0.89237 0.92194 0.19077 0.0
H1557 H 0.91062 0.90182 0.19461 0.0
H1558 H 0.9199 0.90821 0.18396 0.0
H1559 H 0.90185 0.92844 0.18027 0.0
C1560 C 0.82175 0.18289 0.89907 0.0
C1561 C 0.82979 0.18313 0.90287 0.0
C1562 C 0.83541 0.19097 0.8908 0.0
C1563 C 0.83655 0.18716 0.89879 0.0
C1564 C 0.82727 0.19088 0.8871 0.0
C1565 C 0.8205 0.18685 0.89121 0.0
U1566 U 0.81459 0.16706 0.91554 0.0
O1567 O 0.80326 0.16662 0.9237 0.0
O1568 O 0.80581 0.15627 0.91472 0.0
C1569 C 0.80043 0.15963 0.92014 0.0
C1570 C 0.81483 0.17809 0.90307 0.0
C1571 C 0.79153 0.15984 0.91738 0.0
C1572 C 0.78084 0.16236 0.90657 0.0
C1573 C 0.78933 0.16241 0.90914 0.0
C1574 C 0.77666 0.15735 0.9205 0.0
C1575 C 0.77441 0.1598 0.91222 0.0
C1576 C 0.78515 0.15736 0.92305 0.0
C1577 C 0.83135 0.15735 0.93019 0.0
C1578 C 0.8316 0.14329 0.93656 0.0
C1579 C 0.83995 0.15465 0.94269 0.0
C1580 C 0.83697 0.16021 0.93647 0.0
C1581 C 0.83742 0.1461 0.94271 0.0
C1582 C 0.82855 0.14888 0.93038 0.0
C1583 C 0.82877 0.16321 0.92336 0.0
O1584 O 0.8152 0.16984 0.90188 0.0
O1585 O 0.81313 0.18017 0.91098 0.0
O1586 O 0.82394 0.16961 0.92565 0.0
O1587 O 0.82637 0.15966 0.91619 0.0
H1588 H 0.83088 0.18008 0.90894 0.0
H1589 H 0.84269 0.18723 0.90188 0.0
H1590 H 0.8262 0.19369 0.88092 0.0
H1591 H 0.81433 0.18667 0.88817 0.0
H1592 H 0.77928 0.16437 0.90018 0.0
H1593 H 0.79418 0.16442 0.9047 0.0
H1594 H 0.77186 0.15527 0.92496 0.0
H1595 H 0.78675 0.15536 0.92943 0.0
H1596 H 0.82949 0.13675 0.93646 0.0
H1597 H 0.84451 0.15697 0.94729 0.0
H1598 H 0.8392 0.16672 0.93644 0.0
H1599 H 0.82413 0.14653 0.92565 0.0
C1600 C 0.85299 0.56945 0.93032 0.0
C1601 C 0.85097 0.57062 0.92174 0.0
C1602 C 0.86236 0.56102 0.91764 0.0
C1603 C 0.85562 0.56645 0.91546 0.0
C1604 C 0.86424 0.55971 0.92627 0.0
C1605 C 0.8596 0.56393 0.93257 0.0
U1606 U 0.83524 0.58444 0.93613 0.0
O1607 O 0.8265 0.58482 0.94699 0.0
O1608 O 0.8351 0.59553 0.9446 0.0
C1609 C 0.82968 0.59199 0.94985 0.0
C1610 C 0.84835 0.57419 0.93687 0.0
C1611 C 0.83224 0.59211 0.95884 0.0
C1612 C 0.83735 0.58496 0.97151 0.0
C1613 C 0.83469 0.58464 0.96306 0.0
C1614 C 0.83525 0.60019 0.97161 0.0
C1615 C 0.83771 0.59275 0.97585 0.0
C1616 C 0.83251 0.59986 0.96318 0.0
C1617 C 0.82092 0.59247 0.91829 0.0
C1618 C 0.81031 0.60348 0.92032 0.0
C1619 C 0.81165 0.59647 0.90669 0.0
C1620 C 0.81824 0.59149 0.90989 0.0
C1621 C 0.80761 0.60255 0.91185 0.0
C1622 C 0.81691 0.59845 0.92352 0.0
C1623 C 0.828 0.58728 0.92141 0.0
O1624 O 0.84905 0.58248 0.9363 0.0
O1625 O 0.84051 0.57166 0.93821 0.0
O1626 O 0.82587 0.58093 0.92638 0.0
O1627 O 0.83464 0.59152 0.92414 0.0
H1628 H 0.84586 0.57483 0.9199 0.0
H1629 H 0.85392 0.56748 0.90888 0.0
H1630 H 0.86941 0.55559 0.92814 0.0
H1631 H 0.86123 0.56297 0.93918 0.0
H1632 H 0.8393 0.57914 0.97461 0.0
H1633 H 0.83464 0.57859 0.95981 0.0
H1634 H 0.83541 0.60627 0.97482 0.0
H1635 H 0.83066 0.60569 0.96003 0.0
H1636 H 0.80729 0.60806 0.92446 0.0
H1637 H 0.80985 0.5957 0.9001 0.0
H1638 H 0.8213 0.58692 0.90576 0.0
H1639 H 0.81891 0.59927 0.93005 0.0
C1640 C 0.35188 0.93294 0.07075 0.0
C1641 C 0.3495 0.93187 0.07925 0.0
C1642 C 0.36031 0.94199 0.08367 0.0
C1643 C 0.35368 0.93636 0.08565 0.0
C1644 C 0.36255 0.94319 0.07511 0.0
C1645 C 0.35837 0.93866 0.06869 0.0
U1646 U 0.33574 0.91636 0.06442 0.0
O1647 O 0.32741 0.91521 0.0533 0.0
O1648 O 0.33694 0.90536 0.05589 0.0
C1649 C 0.33132 0.90838 0.05052 0.0
C1650 C 0.34783 0.92781 0.0641 0.0
C1651 C 0.33405 0.90854 0.04159 0.0
C1652 C 0.33903 0.91614 0.02914 0.0
C1653 C 0.33638 0.91616 0.0376 0.0
C1654 C 0.3372 0.90088 0.02861 0.0
C1655 C 0.3395 0.90849 0.02457 0.0
C1656 C 0.33447 0.90092 0.03704 0.0
C1657 C 0.3216 0.90668 0.0816 0.0
C1658 C 0.31546 0.89253 0.08212 0.0
C1659 C 0.30915 0.90394 0.09027 0.0
C1660 C 0.31529 0.90954 0.08718 0.0
C1661 C 0.30924 0.89534 0.08787 0.0
C1662 C 0.32155 0.89816 0.07897 0.0
C1663 C 0.32826 0.91264 0.0788 0.0
O1664 O 0.3493 0.91963 0.06468 0.0
O1665 O 0.33982 0.9296 0.06257 0.0
O1666 O 0.32571 0.91885 0.07385 0.0
O1667 O 0.33549 0.90923 0.07639 0.0
H1668 H 0.34448 0.92749 0.08094 0.0
H1669 H 0.35171 0.9354 0.09217 0.0
H1670 H 0.36766 0.94745 0.07339 0.0
H1671 H 0.3603 0.93953 0.06215 0.0
H1672 H 0.34086 0.92209 0.02621 0.0
H1673 H 0.3362 0.92212 0.04103 0.0
H1674 H 0.33744 0.89491 0.02521 0.0
H1675 H 0.33272 0.89497 0.04002 0.0
H1676 H 0.31564 0.88595 0.08012 0.0
H1677 H 0.30451 0.90627 0.09477 0.0
H1678 H 0.31521 0.91609 0.08928 0.0
H1679 H 0.3263 0.8958 0.07458 0.0
C1680 C 0.81428 0.60036 0.82118 0.0
C1681 C 0.81356 0.59642 0.82913 0.0
C1682 C 0.80274 0.60661 0.83335 0.0
C1683 C 0.80784 0.59951 0.83514 0.0
C1684 C 0.80355 0.6106 0.8254 0.0
C1685 C 0.80927 0.60748 0.81935 0.0
U1686 U 0.83201 0.58525 0.81588 0.0
O1687 O 0.83427 0.57713 0.80475 0.0
O1688 O 0.84365 0.58681 0.80834 0.0
C1689 C 0.84128 0.58115 0.80268 0.0
C1690 C 0.82028 0.59703 0.81488 0.0
C1691 C 0.84181 0.58382 0.79377 0.0
C1692 C 0.83909 0.59406 0.78259 0.0
C1693 C 0.83869 0.59173 0.79114 0.0
C1694 C 0.84564 0.58055 0.77922 0.0
C1695 C 0.84253 0.58847 0.77653 0.0
C1696 C 0.84529 0.57826 0.78778 0.0
C1697 C 0.83996 0.57071 0.83362 0.0
C1698 C 0.85349 0.56327 0.83369 0.0
C1699 C 0.84275 0.55985 0.84415 0.0
C1700 C 0.83732 0.56586 0.84057 0.0
C1701 C 0.85097 0.5586 0.84087 0.0
C1702 C 0.84802 0.56928 0.83008 0.0
C1703 C 0.83432 0.57738 0.83035 0.0
O1704 O 0.82831 0.59871 0.81643 0.0
O1705 O 0.81899 0.58909 0.81265 0.0
O1706 O 0.8287 0.57493 0.8247 0.0
O1707 O 0.83799 0.58463 0.82844 0.0
H1708 H 0.81744 0.59096 0.83067 0.0
H1709 H 0.8075 0.59638 0.84125 0.0
H1710 H 0.79968 0.61606 0.82382 0.0
H1711 H 0.80976 0.6106 0.81325 0.0
H1712 H 0.83655 0.60016 0.78068 0.0
H1713 H 0.8359 0.59607 0.79569 0.0
H1714 H 0.8484 0.57616 0.77472 0.0
H1715 H 0.84771 0.57212 0.78971 0.0
H1716 H 0.85979 0.56251 0.83105 0.0
H1717 H 0.84054 0.55624 0.84957 0.0
H1718 H 0.83109 0.56683 0.84332 0.0
H1719 H 0.85015 0.57293 0.82466 0.0
C1720 C 0.14994 0.06829 0.57068 0.0
C1721 C 0.15202 0.06956 0.57924 0.0
C1722 C 0.14103 0.05957 0.5835 0.0
C1723 C 0.14761 0.06524 0.58559 0.0
C1724 C 0.1391 0.05816 0.5749 0.0
C1725 C 0.14351 0.06253 0.56853 0.0
U1726 U 0.16608 0.08497 0.56493 0.0
O1727 O 0.17506 0.08609 0.55431 0.0
O1728 O 0.16525 0.09582 0.55619 0.0
C1729 C 0.17121 0.09282 0.5512 0.0
C1730 C 0.15425 0.07328 0.56409 0.0
C1731 C 0.16896 0.0925 0.54215 0.0
C1732 C 0.16442 0.08471 0.52963 0.0
C1733 C 0.16688 0.0848 0.53815 0.0
C1734 C 0.16601 0.1 0.52902 0.0
C1735 C 0.16389 0.09232 0.525 0.0
C1736 C 0.16855 0.10007 0.53751 0.0
C1737 C 0.17849 0.09526 0.58308 0.0
C1738 C 0.1902 0.10512 0.58105 0.0
C1739 C 0.18395 0.10332 0.59499 0.0
C1740 C 0.17828 0.09737 0.5917 0.0
C1741 C 0.18996 0.10729 0.5897 0.0
C1742 C 0.18446 0.09917 0.57774 0.0
C1743 C 0.17231 0.08911 0.5798 0.0
O1744 O 0.1526 0.08144 0.56433 0.0
O1745 O 0.16237 0.07162 0.5631 0.0
O1746 O 0.17541 0.08294 0.57511 0.0
O1747 O 0.1653 0.0924 0.57671 0.0
H1748 H 0.15699 0.07398 0.58101 0.0
H1749 H 0.14936 0.06634 0.59214 0.0
H1750 H 0.13404 0.05387 0.5731 0.0
H1751 H 0.14182 0.06151 0.56194 0.0
H1752 H 0.16274 0.07872 0.52671 0.0
H1753 H 0.16705 0.07888 0.54164 0.0
H1754 H 0.16572 0.10594 0.52558 0.0
H1755 H 0.1701 0.10607 0.5405 0.0
H1756 H 0.19473 0.10809 0.57683 0.0
H1757 H 0.18369 0.10474 0.60171 0.0
H1758 H 0.1737 0.09441 0.5959 0.0
H1759 H 0.18467 0.09765 0.57104 0.0
C1760 C 0.18553 0.90058 0.82156 0.0
C1761 C 0.18733 0.9052 0.82896 0.0
C1762 C 0.19416 0.8928 0.83518 0.0
C1763 C 0.19165 0.90136 0.83568 0.0
C1764 C 0.19255 0.88828 0.82765 0.0
C1765 C 0.18826 0.89214 0.8209 0.0
U1766 U 0.16884 0.91646 0.81485 0.0
O1767 O 0.16736 0.92427 0.80341 0.0
O1768 O 0.15759 0.91488 0.80671 0.0
C1769 C 0.16042 0.92029 0.80103 0.0
C1770 C 0.18022 0.90431 0.81485 0.0
C1771 C 0.16018 0.91731 0.79218 0.0
C1772 C 0.16724 0.9127 0.77926 0.0
C1773 C 0.16765 0.91534 0.78772 0.0
C1774 C 0.1519 0.91375 0.77967 0.0
C1775 C 0.15936 0.91189 0.77515 0.0
C1776 C 0.15231 0.91647 0.7881 0.0
C1777 C 0.15964 0.93137 0.83156 0.0
C1778 C 0.14569 0.93796 0.83115 0.0
C1779 C 0.15649 0.9434 0.84065 0.0
C1780 C 0.16218 0.93726 0.83772 0.0
C1781 C 0.14814 0.94373 0.8375 0.0
C1782 C 0.15141 0.93186 0.82816 0.0
C1783 C 0.16557 0.92463 0.82897 0.0
O1784 O 0.17205 0.9029 0.81573 0.0
O1785 O 0.18198 0.9122 0.81276 0.0
O1786 O 0.17162 0.92693 0.8237 0.0
O1787 O 0.1621 0.9173 0.82701 0.0
H1788 H 0.18523 0.91171 0.82962 0.0
H1789 H 0.19291 0.90507 0.84132 0.0
H1790 H 0.19431 0.88166 0.82709 0.0
H1791 H 0.18685 0.88847 0.81526 0.0
H1792 H 0.17308 0.9112 0.77596 0.0
H1793 H 0.1738 0.91586 0.79076 0.0
H1794 H 0.14574 0.91325 0.77664 0.0
H1795 H 0.14648 0.91796 0.79143 0.0
H1796 H 0.13932 0.93811 0.82856 0.0
H1797 H 0.15854 0.9477 0.84562 0.0
H1798 H 0.16851 0.93699 0.84041 0.0
H1799 H 0.14935 0.92744 0.82332 0.0
C1800 C 0.6507 0.43416 0.43209 0.0
C1801 C 0.65375 0.43348 0.42376 0.0
C1802 C 0.6423 0.44255 0.41872 0.0
C1803 C 0.64959 0.43765 0.41714 0.0
C1804 C 0.63944 0.44346 0.42713 0.0
C1805 C 0.6436 0.43925 0.43377 0.0
U1806 U 0.66651 0.41746 0.4386 0.0
O1807 O 0.67467 0.41607 0.44983 0.0
O1808 O 0.66509 0.40636 0.44694 0.0
C1809 C 0.67067 0.40922 0.45244 0.0
C1810 C 0.65457 0.42905 0.43885 0.0
C1811 C 0.66783 0.40922 0.46133 0.0
C1812 C 0.66274 0.41657 0.47389 0.0
C1813 C 0.66553 0.41677 0.46547 0.0
C1814 C 0.66437 0.40128 0.47406 0.0
C1815 C 0.6621 0.40882 0.47825 0.0
C1816 C 0.66724 0.40149 0.46568 0.0
C1817 C 0.68061 0.40774 0.42134 0.0
C1818 C 0.68591 0.39334 0.4195 0.0
C1819 C 0.69355 0.40517 0.41334 0.0
C1820 C 0.68753 0.41078 0.41664 0.0
C1821 C 0.69272 0.39638 0.41461 0.0
C1822 C 0.67993 0.39897 0.42287 0.0
C1823 C 0.67405 0.41376 0.42424 0.0
O1824 O 0.653 0.42089 0.43828 0.0
O1825 O 0.66258 0.43074 0.4405 0.0
O1826 O 0.67667 0.41987 0.42929 0.0
O1827 O 0.66673 0.41047 0.42655 0.0
H1828 H 0.65922 0.42956 0.42235 0.0
H1829 H 0.65202 0.43694 0.41075 0.0
H1830 H 0.63382 0.44716 0.42853 0.0
H1831 H 0.64115 0.4398 0.44017 0.0
H1832 H 0.66095 0.42246 0.47694 0.0
H1833 H 0.66585 0.42281 0.4622 0.0
H1834 H 0.66401 0.39523 0.47729 0.0
H1835 H 0.66897 0.3956 0.46257 0.0
H1836 H 0.68515 0.38661 0.42063 0.0
H1837 H 0.69867 0.40769 0.40951 0.0
H1838 H 0.68818 0.41751 0.41537 0.0
H1839 H 0.67469 0.39643 0.42654 0.0
C1840 C 0.81754 0.40042 0.68196 0.0
C1841 C 0.81902 0.40211 0.67336 0.0
C1842 C 0.80915 0.39095 0.66933 0.0
C1843 C 0.81488 0.39742 0.6671 0.0
C1844 C 0.80748 0.38943 0.67796 0.0
C1845 C 0.81169 0.39412 0.68425 0.0
U1846 U 0.83354 0.41731 0.68728 0.0
O1847 O 0.83463 0.42633 0.69787 0.0
O1848 O 0.84473 0.41697 0.69563 0.0
C1849 C 0.84163 0.42277 0.70075 0.0
C1850 C 0.82241 0.40498 0.68846 0.0
C1851 C 0.8417 0.42046 0.70979 0.0
C1852 C 0.83451 0.41553 0.72252 0.0
C1853 C 0.83422 0.4181 0.71403 0.0
C1854 C 0.84976 0.41759 0.7226 0.0
C1855 C 0.8423 0.41517 0.72686 0.0
C1856 C 0.84945 0.42023 0.71415 0.0
C1857 C 0.84269 0.42992 0.66865 0.0
C1858 C 0.85395 0.44038 0.67015 0.0
C1859 C 0.84887 0.43644 0.65617 0.0
C1860 C 0.84304 0.43087 0.65983 0.0
C1861 C 0.85447 0.44117 0.66127 0.0
C1862 C 0.84811 0.43476 0.67382 0.0
C1863 C 0.83689 0.4236 0.67224 0.0
O1864 O 0.83065 0.4037 0.68809 0.0
O1865 O 0.82041 0.41302 0.68946 0.0
O1866 O 0.83084 0.42655 0.67717 0.0
O1867 O 0.84056 0.41675 0.67526 0.0
H1868 H 0.82351 0.40698 0.67148 0.0
H1869 H 0.81619 0.39883 0.6605 0.0
H1870 H 0.80311 0.38447 0.67986 0.0
H1871 H 0.81049 0.39273 0.69087 0.0
H1872 H 0.82868 0.41362 0.72562 0.0
H1873 H 0.82817 0.41812 0.71076 0.0
H1874 H 0.85584 0.41744 0.72582 0.0
H1875 H 0.85529 0.42201 0.71097 0.0
H1876 H 0.8582 0.44392 0.67423 0.0
H1877 H 0.84902 0.43701 0.64932 0.0
H1878 H 0.83889 0.4272 0.65576 0.0
H1879 H 0.84792 0.43407 0.68066 0.0
C1880 C 0.68466 0.60115 0.18149 0.0
C1881 C 0.68354 0.59887 0.17296 0.0
C1882 C 0.69276 0.61045 0.16855 0.0
C1883 C 0.68754 0.60348 0.16655 0.0
C1884 C 0.6941 0.61254 0.17712 0.0
C1885 C 0.69003 0.60794 0.18356 0.0
U1886 U 0.66921 0.58392 0.18731 0.0
O1887 O 0.66836 0.57527 0.19821 0.0
O1888 O 0.65794 0.58415 0.19554 0.0
C1889 C 0.66121 0.57866 0.2009 0.0
C1890 C 0.67984 0.59671 0.18811 0.0
C1891 C 0.661 0.58129 0.20986 0.0
C1892 C 0.66797 0.58678 0.22247 0.0
C1893 C 0.66838 0.58404 0.21405 0.0
C1894 C 0.6528 0.58418 0.22258 0.0
C1895 C 0.66017 0.58693 0.2268 0.0
C1896 C 0.65323 0.58135 0.21419 0.0
C1897 C 0.66103 0.56997 0.1691 0.0
C1898 C 0.64788 0.56188 0.16891 0.0
C1899 C 0.65841 0.55974 0.15791 0.0
C1900 C 0.66366 0.56575 0.16175 0.0
C1901 C 0.65036 0.55788 0.16132 0.0
C1902 C 0.65318 0.56788 0.17278 0.0
C1903 C 0.6664 0.57677 0.17254 0.0
O1904 O 0.67158 0.59765 0.18754 0.0
O1905 O 0.68214 0.58881 0.18951 0.0
O1906 O 0.67254 0.57436 0.17765 0.0
O1907 O 0.66238 0.58359 0.17518 0.0
H1908 H 0.67943 0.59363 0.17126 0.0
H1909 H 0.6865 0.60163 0.16001 0.0
H1910 H 0.69806 0.61789 0.17883 0.0
H1911 H 0.69094 0.60978 0.19012 0.0
H1912 H 0.67372 0.58897 0.22555 0.0
H1913 H 0.67444 0.58416 0.2108 0.0
H1914 H 0.64672 0.58416 0.22579 0.0
H1915 H 0.64747 0.57928 0.21104 0.0
H1916 H 0.64171 0.56062 0.17168 0.0
H1917 H 0.66059 0.55665 0.15217 0.0
H1918 H 0.66973 0.56723 0.15886 0.0
H1919 H 0.65105 0.57105 0.1785 0.0
C1920 C 0.57491 0.65095 0.92689 0.0
C1921 C 0.5828 0.65489 0.92567 0.0
C1922 C 0.58959 0.64445 0.93478 0.0
C1923 C 0.59007 0.65168 0.92958 0.0
C1924 C 0.58162 0.64065 0.93618 0.0
C1925 C 0.57433 0.64387 0.93223 0.0
U1926 U 0.56648 0.6658 0.91051 0.0
O1927 O 0.5582 0.66392 0.89948 0.0
O1928 O 0.55453 0.67302 0.90938 0.0
C1929 C 0.55225 0.66897 0.90245 0.0
C1930 C 0.56748 0.65398 0.92214 0.0
C1931 C 0.54357 0.66549 0.90235 0.0
C1932 C 0.53386 0.6535 0.90284 0.0
C1933 C 0.54206 0.6568 0.90367 0.0
C1934 C 0.5285 0.66757 0.89974 0.0
C1935 C 0.527 0.65883 0.90076 0.0
C1936 C 0.53672 0.67086 0.90049 0.0
C1937 C 0.58351 0.68034 0.9007 0.0
C1938 C 0.58104 0.68993 0.88891 0.0
C1939 C 0.59534 0.68766 0.8941 0.0
C1940 C 0.59221 0.6821 0.90024 0.0
C1941 C 0.58981 0.69158 0.88829 0.0
C1942 C 0.57791 0.68434 0.89506 0.0
C1943 C 0.58054 0.67394 0.90676 0.0
O1944 O 0.56514 0.66181 0.92383 0.0
O1945 O 0.56778 0.65236 0.91397 0.0
O1946 O 0.57843 0.66661 0.90339 0.0
O1947 O 0.57519 0.67654 0.91261 0.0
H1948 H 0.58336 0.66037 0.92155 0.0
H1949 H 0.59608 0.65482 0.92848 0.0
H1950 H 0.58106 0.63504 0.94011 0.0
H1951 H 0.56828 0.64073 0.9332 0.0
H1952 H 0.53288 0.64676 0.90378 0.0
H1953 H 0.54724 0.65254 0.90518 0.0
H1954 H 0.52336 0.67182 0.89808 0.0
H1955 H 0.53775 0.67757 0.89945 0.0
H1956 H 0.57659 0.69293 0.88461 0.0
H1957 H 0.60213 0.68867 0.89374 0.0
H1958 H 0.59662 0.679 0.90452 0.0
H1959 H 0.57116 0.68302 0.89533 0.0
C1960 C 0.60055 0.32277 0.17759 0.0
C1961 C 0.59537 0.32997 0.17838 0.0
C1962 C 0.60655 0.33732 0.18609 0.0
C1963 C 0.59833 0.33716 0.18262 0.0
C1964 C 0.61161 0.32998 0.18553 0.0
C1965 C 0.60863 0.32276 0.18129 0.0
U1966 U 0.58588 0.31533 0.16057 0.0
O1967 O 0.58818 0.30854 0.14861 0.0
O1968 O 0.57935 0.30324 0.15801 0.0
C1969 C 0.58336 0.30209 0.15078 0.0
C1970 C 0.59783 0.31573 0.17211 0.0
C1971 C 0.58718 0.29369 0.14943 0.0
C1972 C 0.59672 0.28232 0.15363 0.0
C1973 C 0.59282 0.29013 0.15534 0.0
C1974 C 0.58934 0.2816 0.14016 0.0
C1975 C 0.5951 0.27803 0.14596 0.0
C1976 C 0.58542 0.28935 0.14188 0.0
C1977 C 0.57025 0.33205 0.15247 0.0
C1978 C 0.56078 0.3295 0.1406 0.0
C1979 C 0.56246 0.34374 0.14617 0.0
C1980 C 0.56813 0.34068 0.15226 0.0
C1981 C 0.5588 0.33821 0.14018 0.0
C1982 C 0.56648 0.32645 0.14668 0.0
C1983 C 0.57685 0.32916 0.15836 0.0
O1984 O 0.59017 0.31274 0.17362 0.0
O1985 O 0.5993 0.31701 0.16401 0.0
O1986 O 0.58432 0.32795 0.15488 0.0
O1987 O 0.57467 0.32309 0.16366 0.0
H1988 H 0.58912 0.33012 0.1755 0.0
H1989 H 0.59422 0.34266 0.18304 0.0
H1990 H 0.61801 0.32992 0.18807 0.0
H1991 H 0.61275 0.31729 0.18064 0.0
H1992 H 0.60118 0.27976 0.1582 0.0
H1993 H 0.59429 0.29344 0.16118 0.0
H1994 H 0.58787 0.27839 0.13425 0.0
H1995 H 0.58109 0.29202 0.13726 0.0
H1996 H 0.55799 0.32505 0.13616 0.0
H1997 H 0.56118 0.35048 0.14597 0.0
H1998 H 0.57105 0.34509 0.15665 0.0
H1999 H 0.56809 0.31976 0.14675 0.0
C2000 C 0.92875 0.34972 0.42646 0.0
C2001 C 0.92104 0.34528 0.42601 0.0
C2002 C 0.91424 0.35587 0.43493 0.0
C2003 C 0.91386 0.34831 0.43021 0.0
C2004 C 0.92206 0.36017 0.4356 0.0
C2005 C 0.92926 0.35712 0.43136 0.0
U2006 U 0.93643 0.33546 0.40923 0.0
O2007 O 0.94396 0.33792 0.39775 0.0
O2008 O 0.94836 0.32852 0.40705 0.0
C2009 C 0.9501 0.33279 0.40008 0.0
C2010 C 0.93594 0.34697 0.42121 0.0
C2011 C 0.9587 0.33634 0.39941 0.0
C2012 C 0.97052 0.34444 0.40517 0.0
C2013 C 0.96245 0.34081 0.40615 0.0
C2014 C 0.97112 0.33916 0.39074 0.0
C2015 C 0.9749 0.34372 0.39742 0.0
C2016 C 0.96311 0.3355 0.39174 0.0
C2017 C 0.91922 0.32079 0.40005 0.0
C2018 C 0.92154 0.31102 0.38836 0.0
C2019 C 0.90727 0.31361 0.39351 0.0
C2020 C 0.91049 0.31919 0.39959 0.0
C2021 C 0.91274 0.30951 0.38777 0.0
C2022 C 0.92475 0.31664 0.39445 0.0
C2023 C 0.92233 0.32713 0.40611 0.0
O2024 O 0.93855 0.33915 0.42255 0.0
O2025 O 0.9351 0.34879 0.41312 0.0
O2026 O 0.92407 0.33459 0.40285 0.0
O2027 O 0.92807 0.32452 0.41159 0.0
H2028 H 0.92053 0.33956 0.42222 0.0
H2029 H 0.90798 0.34479 0.42967 0.0
H2030 H 0.92253 0.36604 0.43913 0.0
H2031 H 0.93514 0.36066 0.43171 0.0
H2032 H 0.97324 0.34797 0.4104 0.0
H2033 H 0.95911 0.34159 0.4121 0.0
H2034 H 0.97438 0.3384 0.38474 0.0
H2035 H 0.9603 0.33208 0.38647 0.0
H2036 H 0.92594 0.30789 0.38412 0.0
H2037 H 0.90046 0.3127 0.39316 0.0
H2038 H 0.90614 0.3224 0.40384 0.0
H2039 H 0.93152 0.31784 0.39471 0.0
C2040 C 0.90146 0.67606 0.67705 0.0
C2041 C 0.9058 0.66829 0.67679 0.0
C2042 C 0.89475 0.66169 0.68531 0.0
C2043 C 0.90249 0.66118 0.68089 0.0
C2044 C 0.89053 0.66956 0.68574 0.0
C2045 C 0.89386 0.67669 0.68162 0.0
U2046 U 0.91664 0.68404 0.66061 0.0
O2047 O 0.91483 0.69194 0.6493 0.0
O2048 O 0.92369 0.69606 0.65925 0.0
C2049 C 0.91973 0.69806 0.65218 0.0
C2050 C 0.90459 0.68327 0.67204 0.0
C2051 C 0.91614 0.70669 0.65173 0.0
C2052 C 0.90402 0.71622 0.6511 0.0
C2053 C 0.90735 0.70808 0.65227 0.0
C2054 C 0.91825 0.72176 0.64924 0.0
C2055 C 0.90943 0.72313 0.64946 0.0
C2056 C 0.92157 0.7136 0.65033 0.0
C2057 C 0.93168 0.66738 0.65127 0.0
C2058 C 0.94135 0.67039 0.63968 0.0
C2059 C 0.93929 0.6559 0.64439 0.0
C2060 C 0.9336 0.65874 0.65057 0.0
C2061 C 0.94316 0.66168 0.6388 0.0
C2062 C 0.93564 0.67322 0.64586 0.0
C2063 C 0.92512 0.67009 0.6573 0.0
O2064 O 0.91238 0.68573 0.67381 0.0
O2065 O 0.90314 0.68262 0.66386 0.0
O2066 O 0.91775 0.67191 0.65385 0.0
O2067 O 0.92749 0.67559 0.66311 0.0
H2068 H 0.91167 0.66769 0.67325 0.0
H2069 H 0.90595 0.65525 0.68054 0.0
H2070 H 0.88452 0.67014 0.68903 0.0
H2071 H 0.89041 0.68263 0.68183 0.0
H2072 H 0.89721 0.71711 0.65142 0.0
H2073 H 0.90303 0.70285 0.65343 0.0
H2074 H 0.92257 0.72696 0.64795 0.0
H2075 H 0.92837 0.71266 0.64989 0.0
H2076 H 0.94431 0.67502 0.63555 0.0
H2077 H 0.94043 0.64915 0.64383 0.0
H2078 H 0.93053 0.65414 0.65467 0.0
H2079 H 0.93419 0.67992 0.64631 0.0
C2080 C 0.57175 0.34911 0.57331 0.0
C2081 C 0.58019 0.34631 0.57373 0.0
C2082 C 0.5844 0.35705 0.56345 0.0
C2083 C 0.58646 0.35025 0.56886 0.0
C2084 C 0.57586 0.35964 0.56286 0.0
C2085 C 0.56959 0.35571 0.56778 0.0
U2086 U 0.56633 0.33373 0.59075 0.0
O2087 O 0.55939 0.33556 0.6027 0.0
O2088 O 0.55484 0.32622 0.59342 0.0
C2089 C 0.55333 0.33025 0.60057 0.0
C2090 C 0.56536 0.34552 0.57906 0.0
C2091 C 0.54468 0.33352 0.60174 0.0
C2092 C 0.53309 0.34278 0.59751 0.0
C2093 C 0.54107 0.33922 0.59592 0.0
C2094 C 0.53223 0.33491 0.6107 0.0
C2095 C 0.52864 0.34076 0.60499 0.0
C2096 C 0.54018 0.33133 0.60907 0.0
C2097 C 0.58408 0.3196 0.59913 0.0
C2098 C 0.58178 0.30982 0.61081 0.0
C2099 C 0.59607 0.31261 0.60582 0.0
C2100 C 0.59283 0.31814 0.59969 0.0
C2101 C 0.59059 0.30846 0.61153 0.0
C2102 C 0.57856 0.31537 0.60468 0.0
C2103 C 0.58085 0.32592 0.5931 0.0
O2104 O 0.56331 0.33756 0.57765 0.0
O2105 O 0.56671 0.34717 0.58712 0.0
O2106 O 0.57905 0.33333 0.59646 0.0
O2107 O 0.57504 0.32323 0.58774 0.0
H2108 H 0.58197 0.34124 0.57802 0.0
H2109 H 0.59297 0.34816 0.56957 0.0
H2110 H 0.57403 0.36478 0.55868 0.0
H2111 H 0.56309 0.35794 0.56738 0.0
H2112 H 0.53052 0.34733 0.59304 0.0
H2113 H 0.54451 0.34103 0.59025 0.0
H2114 H 0.52892 0.33314 0.61645 0.0
H2115 H 0.54288 0.32695 0.61364 0.0
H2116 H 0.57738 0.30664 0.61501 0.0
H2117 H 0.60288 0.3118 0.60626 0.0
H2118 H 0.59718 0.32141 0.59548 0.0
H2119 H 0.57177 0.31646 0.60435 0.0
C2120 C 0.90161 0.3234 0.82437 0.0
C2121 C 0.90671 0.33066 0.82362 0.0
C2122 C 0.89558 0.33783 0.81568 0.0
C2123 C 0.90374 0.33779 0.81929 0.0
C2124 C 0.89059 0.33043 0.8162 0.0
C2125 C 0.89358 0.32328 0.82054 0.0
U2126 U 0.91602 0.3161 0.84171 0.0
O2127 O 0.91352 0.30926 0.8536 0.0
O2128 O 0.92257 0.30405 0.84437 0.0
C2129 C 0.91843 0.30285 0.85151 0.0
C2130 C 0.9043 0.31641 0.82992 0.0
C2131 C 0.91465 0.29441 0.85277 0.0
C2132 C 0.90529 0.28297 0.84836 0.0
C2133 C 0.90914 0.29082 0.84676 0.0
C2134 C 0.91248 0.28225 0.86194 0.0
C2135 C 0.90684 0.27865 0.85603 0.0
C2136 C 0.91635 0.29005 0.86032 0.0
C2137 C 0.9314 0.33291 0.85012 0.0
C2138 C 0.93952 0.33104 0.86308 0.0
C2139 C 0.94019 0.34438 0.85545 0.0
C2140 C 0.93463 0.34115 0.84934 0.0
C2141 C 0.94259 0.33941 0.86247 0.0
C2142 C 0.93396 0.32782 0.85696 0.0
C2143 C 0.92494 0.32997 0.84411 0.0
O2144 O 0.91202 0.3135 0.82857 0.0
O2145 O 0.90267 0.3177 0.83799 0.0
O2146 O 0.9174 0.32871 0.84743 0.0
O2147 O 0.92726 0.32392 0.83886 0.0
H2148 H 0.91291 0.3309 0.82661 0.0
H2149 H 0.90779 0.34333 0.8189 0.0
H2150 H 0.88424 0.33028 0.81356 0.0
H2151 H 0.88952 0.31776 0.82115 0.0
H2152 H 0.90093 0.28038 0.84372 0.0
H2153 H 0.90772 0.29415 0.84091 0.0
H2154 H 0.9139 0.27902 0.86785 0.0
H2155 H 0.92059 0.29274 0.86502 0.0
H2156 H 0.94118 0.32708 0.86845 0.0
H2157 H 0.94253 0.3508 0.85473 0.0
H2158 H 0.93271 0.34516 0.84409 0.0
H2159 H 0.93147 0.32145 0.85767 0.0
C2160 C 0.92942 0.65123 0.07473 0.0
C2161 C 0.92182 0.65588 0.07472 0.0
C2162 C 0.91498 0.64494 0.06623 0.0
C2163 C 0.91468 0.65278 0.07049 0.0
C2164 C 0.9227 0.64043 0.06603 0.0
C2165 C 0.92986 0.64355 0.07028 0.0
U2166 U 0.93692 0.66559 0.09202 0.0
O2167 O 0.94439 0.66316 0.10355 0.0
O2168 O 0.94881 0.67256 0.09427 0.0
C2169 C 0.95054 0.66829 0.10123 0.0
C2170 C 0.93653 0.65405 0.08006 0.0
C2171 C 0.95914 0.66472 0.10191 0.0
C2172 C 0.97098 0.65669 0.09611 0.0
C2173 C 0.96291 0.66032 0.09515 0.0
C2174 C 0.97154 0.66183 0.1106 0.0
C2175 C 0.97534 0.65734 0.10389 0.0
C2176 C 0.96352 0.66549 0.10961 0.0
C2177 C 0.91968 0.68026 0.1011 0.0
C2178 C 0.92196 0.68994 0.11286 0.0
C2179 C 0.90772 0.68751 0.10755 0.0
C2180 C 0.91096 0.68194 0.10147 0.0
C2181 C 0.91317 0.69153 0.11338 0.0
C2182 C 0.92519 0.68433 0.10678 0.0
C2183 C 0.9228 0.67392 0.09504 0.0
O2184 O 0.93913 0.66188 0.07873 0.0
O2185 O 0.93562 0.65225 0.08815 0.0
O2186 O 0.92452 0.66646 0.09833 0.0
O2187 O 0.92855 0.67652 0.08959 0.0
H2188 H 0.92135 0.6618 0.07817 0.0
H2189 H 0.90888 0.65646 0.07066 0.0
H2190 H 0.92312 0.63434 0.06287 0.0
H2191 H 0.93566 0.63985 0.07031 0.0
H2192 H 0.97371 0.65321 0.09086 0.0
H2193 H 0.95959 0.6596 0.08917 0.0
H2194 H 0.97477 0.66254 0.11662 0.0
H2195 H 0.9607 0.66886 0.11489 0.0
H2196 H 0.92634 0.69301 0.11718 0.0
H2197 H 0.90092 0.68848 0.10783 0.0
H2198 H 0.90662 0.67879 0.09716 0.0
H2199 H 0.93195 0.68308 0.10659 0.0
C2200 C 0.59952 0.67774 0.32417 0.0
C2201 C 0.59442 0.67048 0.32339 0.0
C2202 C 0.60548 0.66342 0.31524 0.0
C2203 C 0.59736 0.6634 0.31894 0.0
C2204 C 0.61046 0.67083 0.3158 0.0
C2205 C 0.6075 0.67793 0.32026 0.0
U2206 U 0.58522 0.68488 0.34166 0.0
O2207 O 0.58779 0.69164 0.35358 0.0
O2208 O 0.57867 0.6969 0.34445 0.0
C2209 C 0.58287 0.69806 0.35157 0.0
C2210 C 0.59686 0.68467 0.3298 0.0
C2211 C 0.58668 0.70648 0.35282 0.0
C2212 C 0.59604 0.71791 0.34836 0.0
C2213 C 0.59215 0.71007 0.34677 0.0
C2214 C 0.58897 0.71863 0.362 0.0
C2215 C 0.59456 0.72223 0.35605 0.0
C2216 C 0.58507 0.71084 0.36039 0.0
C2217 C 0.56989 0.66797 0.34998 0.0
C2218 C 0.56167 0.66978 0.36289 0.0
C2219 C 0.5612 0.65641 0.35528 0.0
C2220 C 0.56675 0.65969 0.3492 0.0
C2221 C 0.55869 0.66138 0.36226 0.0
C2222 C 0.56724 0.67304 0.3568 0.0
C2223 C 0.57633 0.67098 0.34398 0.0
O2224 O 0.58914 0.68759 0.32852 0.0
O2225 O 0.59855 0.68331 0.33785 0.0
O2226 O 0.58388 0.67222 0.34729 0.0
O2227 O 0.57397 0.67707 0.33879 0.0
H2228 H 0.58826 0.67019 0.32643 0.0
H2229 H 0.59332 0.65785 0.31853 0.0
H2230 H 0.61678 0.67102 0.3131 0.0
H2231 H 0.61155 0.68344 0.32088 0.0
H2232 H 0.60036 0.72049 0.34368 0.0
H2233 H 0.59351 0.70675 0.34091 0.0
H2234 H 0.58761 0.72185 0.36792 0.0
H2235 H 0.58086 0.70816 0.36512 0.0
H2236 H 0.55993 0.67373 0.36823 0.0
H2237 H 0.55892 0.64997 0.35455 0.0
H2238 H 0.56875 0.65569 0.34397 0.0
H2239 H 0.56966 0.67944 0.35751 0.0
C2240 C 0.92794 0.57519 0.65209 0.0
C2241 C 0.92793 0.58277 0.65675 0.0
C2242 C 0.93634 0.58967 0.64579 0.0
C2243 C 0.9321 0.58994 0.65364 0.0
C2244 C 0.93652 0.58197 0.64125 0.0
C2245 C 0.93233 0.57479 0.64438 0.0
U2246 U 0.91139 0.56697 0.66702 0.0
O2247 O 0.89993 0.55934 0.66496 0.0
O2248 O 0.90982 0.55473 0.67365 0.0
C2249 C 0.90272 0.553 0.66962 0.0
C2250 C 0.92283 0.56796 0.655 0.0
C2251 C 0.90212 0.5445 0.66573 0.0
C2252 C 0.90097 0.53542 0.6533 0.0
C2253 C 0.90227 0.54344 0.65688 0.0
C2254 C 0.89975 0.52934 0.66737 0.0
C2255 C 0.89959 0.52831 0.65851 0.0
C2256 C 0.90096 0.53738 0.67094 0.0
C2257 C 0.90239 0.58339 0.68257 0.0
C2258 C 0.88977 0.58097 0.69108 0.0
C2259 C 0.89665 0.59473 0.69126 0.0
C2260 C 0.90279 0.59173 0.68562 0.0
C2261 C 0.88999 0.58943 0.69395 0.0
C2262 C 0.89592 0.57798 0.68541 0.0
C2263 C 0.90836 0.5807 0.67596 0.0
O2264 O 0.92456 0.56522 0.6627 0.0
O2265 O 0.91465 0.56878 0.65359 0.0
O2266 O 0.90489 0.57918 0.66854 0.0
O2267 O 0.91403 0.575 0.67818 0.0
H2268 H 0.92453 0.5832 0.66271 0.0
H2269 H 0.93194 0.59573 0.65735 0.0
H2270 H 0.93965 0.58158 0.63514 0.0
H2271 H 0.93234 0.569 0.64067 0.0
H2272 H 0.901 0.53479 0.64646 0.0
H2273 H 0.90323 0.54882 0.65271 0.0
H2274 H 0.89865 0.52399 0.67154 0.0
H2275 H 0.90082 0.53807 0.67778 0.0
H2276 H 0.88468 0.57675 0.69296 0.0
H2277 H 0.89705 0.60123 0.69345 0.0
H2278 H 0.90774 0.59599 0.68347 0.0
H2279 H 0.89551 0.57153 0.68306 0.0
C2280 C 0.67882 0.67698 0.90119 0.0
C2281 C 0.67124 0.67669 0.90586 0.0
C2282 C 0.66411 0.68517 0.89511 0.0
C2283 C 0.66397 0.68076 0.90286 0.0
C2284 C 0.67181 0.68567 0.89058 0.0
C2285 C 0.6791 0.68158 0.89359 0.0
U2286 U 0.68683 0.65986 0.91541 0.0
O2287 O 0.69456 0.64851 0.91292 0.0
O2288 O 0.69879 0.65786 0.92235 0.0
C2289 C 0.70066 0.65095 0.91806 0.0
C2290 C 0.6861 0.67183 0.90392 0.0
C2291 C 0.70929 0.65042 0.91454 0.0
C2292 C 0.72132 0.6566 0.90709 0.0
C2293 C 0.71318 0.6574 0.91059 0.0
C2294 C 0.72171 0.64185 0.91141 0.0
C2295 C 0.72565 0.64879 0.90741 0.0
C2296 C 0.71363 0.64267 0.91495 0.0
C2297 C 0.66981 0.65042 0.93014 0.0
C2298 C 0.67231 0.63878 0.93991 0.0
C2299 C 0.65798 0.64385 0.93749 0.0
C2300 C 0.6611 0.64993 0.93185 0.0
C2301 C 0.66353 0.63815 0.94154 0.0
C2302 C 0.67542 0.64486 0.93423 0.0
C2303 C 0.67281 0.65652 0.92378 0.0
O2304 O 0.68873 0.6732 0.91172 0.0
O2305 O 0.68538 0.66373 0.90209 0.0
O2306 O 0.67458 0.65325 0.91632 0.0
O2307 O 0.67845 0.66209 0.92636 0.0
H2308 H 0.6709 0.67313 0.91173 0.0
H2309 H 0.65819 0.68035 0.90656 0.0
H2310 H 0.6721 0.68895 0.88455 0.0
H2311 H 0.68488 0.6818 0.88987 0.0
H2312 H 0.72416 0.66204 0.90399 0.0
H2313 H 0.7099 0.66342 0.91015 0.0
H2314 H 0.72492 0.63578 0.91186 0.0
H2315 H 0.71072 0.63721 0.91796 0.0
H2316 H 0.67677 0.63456 0.943 0.0
H2317 H 0.65119 0.64347 0.93849 0.0
H2318 H 0.65668 0.65415 0.92869 0.0
H2319 H 0.68217 0.64516 0.93295 0.0
C2320 C 0.57299 0.42827 0.15095 0.0
C2321 C 0.57406 0.41983 0.15356 0.0
C2322 C 0.5633 0.41522 0.14346 0.0
C2323 C 0.56927 0.41336 0.14984 0.0
C2324 C 0.5621 0.42374 0.14105 0.0
C2325 C 0.56692 0.43021 0.14476 0.0
U2326 U 0.59016 0.43486 0.16626 0.0
O2327 O 0.60175 0.44234 0.16442 0.0
O2328 O 0.59212 0.44668 0.17351 0.0
C2329 C 0.59917 0.44849 0.16943 0.0
C2330 C 0.57849 0.43496 0.1544 0.0
C2331 C 0.59977 0.45713 0.16589 0.0
C2332 C 0.59995 0.46674 0.15382 0.0
C2333 C 0.59878 0.4586 0.15715 0.0
C2334 C 0.60275 0.47212 0.16794 0.0
C2335 C 0.60203 0.47357 0.15917 0.0
C2336 C 0.60167 0.46396 0.17126 0.0
C2337 C 0.59909 0.4177 0.18091 0.0
C2338 C 0.61177 0.41984 0.18941 0.0
C2339 C 0.60463 0.40621 0.18954 0.0
C2340 C 0.59855 0.40935 0.1839 0.0
C2341 C 0.61138 0.41138 0.19228 0.0
C2342 C 0.60567 0.42297 0.18377 0.0
C2343 C 0.59305 0.42065 0.17447 0.0
O2344 O 0.57694 0.43715 0.1623 0.0
O2345 O 0.58661 0.43392 0.15282 0.0
O2346 O 0.59643 0.42245 0.16707 0.0
O2347 O 0.58747 0.42632 0.177 0.0
H2348 H 0.57875 0.41823 0.15833 0.0
H2349 H 0.57046 0.40688 0.15178 0.0
H2350 H 0.55747 0.42541 0.13625 0.0
H2351 H 0.56601 0.43671 0.1427 0.0
H2352 H 0.59923 0.46769 0.14705 0.0
H2353 H 0.59723 0.45344 0.15288 0.0
H2354 H 0.60439 0.47726 0.17221 0.0
H2355 H 0.60245 0.46295 0.17802 0.0
H2356 H 0.61693 0.42396 0.19132 0.0
H2357 H 0.60408 0.39972 0.19172 0.0
H2358 H 0.59349 0.40521 0.18175 0.0
H2359 H 0.6062 0.42943 0.18148 0.0
C2360 C 0.82429 0.32477 0.40122 0.0
C2361 C 0.83166 0.3243 0.4062 0.0
C2362 C 0.83875 0.31612 0.3952 0.0
C2363 C 0.83881 0.32 0.40323 0.0
C2364 C 0.83124 0.31634 0.39035 0.0
C2365 C 0.82406 0.32067 0.39334 0.0
U2366 U 0.81703 0.342 0.41568 0.0
O2367 O 0.81013 0.35389 0.41334 0.0
O2368 O 0.80505 0.3446 0.4224 0.0
C2369 C 0.8038 0.35178 0.41833 0.0
C2370 C 0.81725 0.33026 0.40393 0.0
C2371 C 0.7953 0.35309 0.41471 0.0
C2372 C 0.78391 0.3491 0.40508 0.0
C2373 C 0.7918 0.34738 0.40882 0.0
C2374 C 0.78296 0.36217 0.41314 0.0
C2375 C 0.77947 0.35659 0.40712 0.0
C2376 C 0.7908 0.36043 0.41689 0.0
C2377 C 0.83413 0.3503 0.43086 0.0
C2378 C 0.83179 0.36198 0.44062 0.0
C2379 C 0.84605 0.3567 0.43823 0.0
C2380 C 0.84284 0.35066 0.43259 0.0
C2381 C 0.84057 0.3625 0.44225 0.0
C2382 C 0.8286 0.35594 0.43495 0.0
C2383 C 0.83105 0.34437 0.42438 0.0
O2384 O 0.8144 0.32888 0.41165 0.0
O2385 O 0.81847 0.33834 0.4023 0.0
O2386 O 0.82965 0.34777 0.41691 0.0
O2387 O 0.82504 0.33909 0.42676 0.0
H2388 H 0.83198 0.32749 0.41228 0.0
H2389 H 0.84445 0.31984 0.40717 0.0
H2390 H 0.83101 0.31348 0.38411 0.0
H2391 H 0.81845 0.32104 0.38938 0.0
H2392 H 0.7814 0.34471 0.40043 0.0
H2393 H 0.79523 0.3417 0.40703 0.0
H2394 H 0.77965 0.36792 0.41493 0.0
H2395 H 0.79342 0.36489 0.42142 0.0
H2396 H 0.82739 0.36627 0.44369 0.0
H2397 H 0.85284 0.35699 0.43923 0.0
H2398 H 0.8472 0.34638 0.42943 0.0
H2399 H 0.82185 0.35576 0.43364 0.0
C2400 C 0.92788 0.42763 0.84928 0.0
C2401 C 0.92806 0.42011 0.84452 0.0
C2402 C 0.93607 0.41308 0.85569 0.0
C2403 C 0.93214 0.41291 0.84768 0.0
C2404 C 0.93609 0.42072 0.86033 0.0
C2405 C 0.932 0.42794 0.85715 0.0
U2406 U 0.91106 0.43556 0.83455 0.0
O2407 O 0.89975 0.44342 0.83662 0.0
O2408 O 0.90944 0.44754 0.82749 0.0
C2409 C 0.90247 0.44952 0.83162 0.0
C2410 C 0.92278 0.43485 0.84632 0.0
C2411 C 0.9021 0.45817 0.83518 0.0
C2412 C 0.9022 0.4678 0.84724 0.0
C2413 C 0.90317 0.45963 0.84391 0.0
C2414 C 0.89942 0.47322 0.83312 0.0
C2415 C 0.90022 0.47467 0.84189 0.0
C2416 C 0.90032 0.46503 0.82981 0.0
C2417 C 0.90171 0.41857 0.81975 0.0
C2418 C 0.88874 0.42038 0.81163 0.0
C2419 C 0.89637 0.40703 0.81107 0.0
C2420 C 0.90249 0.41031 0.81659 0.0
C2421 C 0.88935 0.41198 0.80863 0.0
C2422 C 0.89487 0.42364 0.81717 0.0
C2423 C 0.90776 0.42154 0.82618 0.0
O2424 O 0.92434 0.43738 0.83852 0.0
O2425 O 0.91463 0.43416 0.84796 0.0
O2426 O 0.90441 0.42338 0.83358 0.0
O2427 O 0.91343 0.42712 0.82365 0.0
H2428 H 0.92486 0.41974 0.83844 0.0
H2429 H 0.93211 0.40717 0.8439 0.0
H2430 H 0.93898 0.42104 0.86656 0.0
H2431 H 0.93185 0.43368 0.86093 0.0
H2432 H 0.90297 0.46875 0.854 0.0
H2433 H 0.90463 0.45444 0.84818 0.0
H2434 H 0.89784 0.47837 0.82885 0.0
H2435 H 0.89947 0.46403 0.82306 0.0
H2436 H 0.88337 0.42432 0.80995 0.0
H2437 H 0.89709 0.40059 0.80877 0.0
H2438 H 0.90774 0.40631 0.81853 0.0
H2439 H 0.89417 0.43004 0.8196 0.0
C2440 C 0.8248 0.67703 0.09886 0.0
C2441 C 0.83251 0.67683 0.0944 0.0
C2442 C 0.83928 0.68526 0.10542 0.0
C2443 C 0.83967 0.68091 0.09764 0.0
C2444 C 0.83146 0.6857 0.10973 0.0
C2445 C 0.82428 0.68158 0.10648 0.0
U2446 U 0.81737 0.66021 0.08402 0.0
O2447 O 0.81001 0.64855 0.08602 0.0
O2448 O 0.80551 0.6581 0.07692 0.0
C2449 C 0.80389 0.65093 0.08088 0.0
C2450 C 0.81765 0.67183 0.09589 0.0
C2451 C 0.79526 0.64989 0.08426 0.0
C2452 C 0.78367 0.65438 0.0934 0.0
C2453 C 0.79171 0.65583 0.08987 0.0
C2454 C 0.78268 0.64112 0.08567 0.0
C2455 C 0.77913 0.64694 0.09143 0.0
C2456 C 0.79067 0.64259 0.08212 0.0
C2457 C 0.83458 0.65147 0.06924 0.0
C2458 C 0.83275 0.63867 0.06088 0.0
C2459 C 0.84622 0.64609 0.06072 0.0
C2460 C 0.84293 0.65217 0.06628 0.0
C2461 C 0.84121 0.6392 0.05806 0.0
C2462 C 0.82946 0.64475 0.06644 0.0
C2463 C 0.83153 0.65745 0.07568 0.0
O2464 O 0.81509 0.67339 0.0881 0.0
O2465 O 0.81853 0.66369 0.09747 0.0
O2466 O 0.82982 0.65405 0.08309 0.0
O2467 O 0.82577 0.66295 0.07318 0.0
H2468 H 0.83304 0.67331 0.08852 0.0
H2469 H 0.84556 0.68056 0.0941 0.0
H2470 H 0.83097 0.68894 0.11577 0.0
H2471 H 0.81839 0.68173 0.11004 0.0
H2472 H 0.78113 0.65894 0.09787 0.0
H2473 H 0.7952 0.66148 0.09163 0.0
H2474 H 0.77929 0.63539 0.08393 0.0
H2475 H 0.79332 0.63795 0.0778 0.0
H2476 H 0.82875 0.63339 0.05901 0.0
H2477 H 0.85272 0.64676 0.05857 0.0
H2478 H 0.84696 0.65732 0.06839 0.0
H2479 H 0.823 0.64411 0.06872 0.0
C2480 C 0.57479 0.57366 0.34897 0.0
C2481 C 0.57489 0.58143 0.34463 0.0
C2482 C 0.56645 0.58794 0.35579 0.0
C2483 C 0.57075 0.58849 0.34799 0.0
C2484 C 0.56611 0.58006 0.35998 0.0
C2485 C 0.57029 0.57297 0.35661 0.0
U2486 U 0.59168 0.56656 0.33402 0.0
O2487 O 0.60336 0.55919 0.33591 0.0
O2488 O 0.59382 0.55484 0.32672 0.0
C2489 C 0.60099 0.55317 0.33065 0.0
C2490 C 0.58003 0.5666 0.34587 0.0
C2491 C 0.60206 0.54448 0.33386 0.0
C2492 C 0.59772 0.53277 0.34291 0.0
C2493 C 0.5962 0.54084 0.3395 0.0
C2494 C 0.61089 0.53192 0.33501 0.0
C2495 C 0.60516 0.52828 0.3408 0.0
C2496 C 0.60934 0.53994 0.33158 0.0
C2497 C 0.60051 0.58397 0.31958 0.0
C2498 C 0.61223 0.58157 0.30988 0.0
C2499 C 0.60719 0.59587 0.31246 0.0
C2500 C 0.60104 0.59269 0.318 0.0
C2501 C 0.61292 0.59036 0.30841 0.0
C2502 C 0.60609 0.5784 0.31545 0.0
C2503 C 0.59449 0.58087 0.32596 0.0
O2504 O 0.57849 0.56419 0.33802 0.0
O2505 O 0.58816 0.56748 0.34748 0.0
O2506 O 0.59787 0.57902 0.33334 0.0
O2507 O 0.58896 0.57518 0.32336 0.0
H2508 H 0.57837 0.58208 0.33874 0.0
H2509 H 0.57102 0.59443 0.34454 0.0
H2510 H 0.56291 0.57945 0.36603 0.0
H2511 H 0.57021 0.56704 0.36008 0.0
H2512 H 0.59322 0.53016 0.34741 0.0
H2513 H 0.59056 0.5443 0.34137 0.0
H2514 H 0.61661 0.52858 0.33317 0.0
H2515 H 0.61393 0.54266 0.32724 0.0
H2516 H 0.61647 0.57715 0.30677 0.0
H2517 H 0.60761 0.60267 0.31157 0.0
H2518 H 0.59681 0.59707 0.3212 0.0
H2519 H 0.60577 0.57164 0.31663 0.0
C2520 C 0.6789 0.32349 0.59918 0.0
C2521 C 0.67102 0.32426 0.59511 0.0
C2522 C 0.66443 0.31534 0.60583 0.0
C2523 C 0.66386 0.32023 0.5984 0.0
C2524 C 0.67241 0.31432 0.60974 0.0
C2525 C 0.6796 0.31841 0.60645 0.0
U2526 U 0.68636 0.34029 0.58439 0.0
O2527 O 0.69388 0.35186 0.5864 0.0
O2528 O 0.69813 0.34233 0.57715 0.0
C2529 C 0.69992 0.34942 0.58119 0.0
C2530 C 0.6861 0.32859 0.59618 0.0
C2531 C 0.70859 0.35025 0.58453 0.0
C2532 C 0.72056 0.34487 0.59264 0.0
C2533 C 0.71244 0.34372 0.5892 0.0
C2534 C 0.72102 0.35908 0.58676 0.0
C2535 C 0.72489 0.35261 0.59154 0.0
C2536 C 0.71295 0.3579 0.58328 0.0
C2537 C 0.66897 0.34924 0.56991 0.0
C2538 C 0.6703 0.36245 0.5621 0.0
C2539 C 0.65732 0.35424 0.56117 0.0
C2540 C 0.66079 0.34816 0.5666 0.0
C2541 C 0.66197 0.36153 0.55897 0.0
C2542 C 0.67377 0.35635 0.56753 0.0
C2543 C 0.67212 0.34323 0.57626 0.0
O2544 O 0.68853 0.32705 0.58834 0.0
O2545 O 0.68536 0.33673 0.59783 0.0
O2546 O 0.67397 0.34658 0.58367 0.0
O2547 O 0.67779 0.33771 0.57364 0.0
H2548 H 0.67036 0.32818 0.5895 0.0
H2549 H 0.65783 0.32103 0.59517 0.0
H2550 H 0.67304 0.31064 0.6155 0.0
H2551 H 0.68563 0.3178 0.6097 0.0
H2552 H 0.72336 0.33981 0.59635 0.0
H2553 H 0.70913 0.33779 0.59028 0.0
H2554 H 0.72424 0.36506 0.58572 0.0
H2555 H 0.71007 0.36301 0.5797 0.0
H2556 H 0.67403 0.36802 0.56059 0.0
H2557 H 0.65094 0.35328 0.55877 0.0
H2558 H 0.657 0.3427 0.56838 0.0
H2559 H 0.6801 0.35728 0.57007 0.0
C2560 C 0.65162 0.92726 0.5745 0.0
C2561 C 0.65652 0.92744 0.58194 0.0
C2562 C 0.64575 0.93597 0.58899 0.0
C2563 C 0.65363 0.93177 0.5891 0.0
C2564 C 0.64097 0.93597 0.58143 0.0
C2565 C 0.64388 0.93163 0.57425 0.0
U2566 U 0.66609 0.91028 0.56641 0.0
O2567 O 0.66367 0.89863 0.55918 0.0
O2568 O 0.67239 0.90823 0.55406 0.0
C2569 C 0.66819 0.90116 0.55264 0.0
C2570 C 0.65428 0.92193 0.56734 0.0
C2571 C 0.66404 0.90039 0.54427 0.0
C2572 C 0.65134 0.89903 0.53561 0.0
C2573 C 0.65516 0.90051 0.54348 0.0
C2574 C 0.66522 0.89773 0.52912 0.0
C2575 C 0.65632 0.89752 0.52836 0.0
C2576 C 0.66904 0.89911 0.53702 0.0
C2577 C 0.68182 0.90157 0.58291 0.0
C2578 C 0.68984 0.88854 0.58112 0.0
C2579 C 0.69075 0.89638 0.59433 0.0
C2580 C 0.68519 0.90247 0.59108 0.0
C2581 C 0.69302 0.88927 0.58945 0.0
C2582 C 0.68426 0.89464 0.57789 0.0
C2583 C 0.67526 0.90752 0.58005 0.0
O2584 O 0.66194 0.92346 0.56438 0.0
O2585 O 0.65275 0.91381 0.5684 0.0
O2586 O 0.66775 0.90413 0.57878 0.0
O2587 O 0.67748 0.91294 0.57411 0.0
H2588 H 0.66251 0.92406 0.58226 0.0
H2589 H 0.65752 0.93175 0.59477 0.0
H2590 H 0.63484 0.93906 0.58116 0.0
H2591 H 0.63999 0.93148 0.56858 0.0
H2592 H 0.64447 0.89902 0.53519 0.0
H2593 H 0.65115 0.90157 0.54897 0.0
H2594 H 0.66922 0.89653 0.52366 0.0
H2595 H 0.6759 0.899 0.53749 0.0
H2596 H 0.6914 0.8831 0.57723 0.0
H2597 H 0.69319 0.89719 0.6007 0.0
H2598 H 0.68336 0.90779 0.59504 0.0
H2599 H 0.68166 0.89384 0.57157 0.0
C2600 C 0.15137 0.5733 0.42824 0.0
C2601 C 0.15649 0.57265 0.42099 0.0
C2602 C 0.14545 0.56466 0.41373 0.0
C2603 C 0.15358 0.56835 0.41382 0.0
C2604 C 0.14044 0.56508 0.42113 0.0
C2605 C 0.14338 0.5694 0.42832 0.0
U2606 U 0.16591 0.59043 0.43559 0.0
O2607 O 0.16357 0.60239 0.44235 0.0
O2608 O 0.17248 0.59306 0.44764 0.0
C2609 C 0.16842 0.60027 0.44879 0.0
C2610 C 0.15404 0.57881 0.43527 0.0
C2611 C 0.16461 0.60159 0.4572 0.0
C2612 C 0.15506 0.59736 0.46854 0.0
C2613 C 0.15896 0.59568 0.46073 0.0
C2614 C 0.16248 0.61081 0.46934 0.0
C2615 C 0.1567 0.605 0.47288 0.0
C2616 C 0.16639 0.60911 0.46158 0.0
C2617 C 0.18144 0.59849 0.41873 0.0
C2618 C 0.19108 0.61025 0.42121 0.0
C2619 C 0.18906 0.60481 0.40695 0.0
C2620 C 0.18338 0.59877 0.41007 0.0
C2621 C 0.19289 0.61071 0.41246 0.0
C2622 C 0.18537 0.6042 0.42431 0.0
C2623 C 0.17487 0.59261 0.42171 0.0
O2624 O 0.1617 0.57737 0.43825 0.0
O2625 O 0.15251 0.5869 0.43396 0.0
O2626 O 0.16739 0.59608 0.42294 0.0
O2627 O 0.1771 0.58735 0.42779 0.0
H2628 H 0.16266 0.57569 0.42078 0.0
H2629 H 0.15764 0.56804 0.40828 0.0
H2630 H 0.13412 0.56237 0.42124 0.0
H2631 H 0.13931 0.56993 0.43383 0.0
H2632 H 0.15059 0.59279 0.47108 0.0
H2633 H 0.15747 0.58986 0.45739 0.0
H2634 H 0.16396 0.61669 0.47257 0.0
H2635 H 0.17074 0.61374 0.45893 0.0
H2636 H 0.194 0.61461 0.42564 0.0
H2637 H 0.19021 0.60506 0.40018 0.0
H2638 H 0.18034 0.59443 0.40568 0.0
H2639 H 0.1839 0.60408 0.43103 0.0
C2640 C 0.67693 0.9022 0.67778 0.0
C2641 C 0.67732 0.90697 0.67028 0.0
C2642 C 0.68543 0.89577 0.6634 0.0
C2643 C 0.68155 0.90381 0.66317 0.0
C2644 C 0.68527 0.89113 0.67103 0.0
C2645 C 0.68102 0.89431 0.67817 0.0
U2646 U 0.6599 0.91695 0.68504 0.0
O2647 O 0.64815 0.91484 0.69223 0.0
O2648 O 0.65761 0.92394 0.69692 0.0
C2649 C 0.65043 0.91995 0.69841 0.0
C2650 C 0.67157 0.90512 0.68482 0.0
C2651 C 0.64928 0.91652 0.707 0.0
C2652 C 0.6535 0.90721 0.71854 0.0
C2653 C 0.65508 0.91077 0.71055 0.0
C2654 C 0.64038 0.91518 0.7195 0.0
C2655 C 0.64607 0.90929 0.72305 0.0
C2656 C 0.64198 0.91876 0.71156 0.0
C2657 C 0.65127 0.93189 0.66795 0.0
C2658 C 0.63962 0.94163 0.67054 0.0
C2659 C 0.64462 0.93926 0.65619 0.0
C2660 C 0.65074 0.93362 0.65926 0.0
C2661 C 0.63892 0.94326 0.66178 0.0
C2662 C 0.64573 0.93596 0.6736 0.0
C2663 C 0.65726 0.92542 0.67093 0.0
O2664 O 0.67306 0.91289 0.68748 0.0
O2665 O 0.66345 0.90352 0.68377 0.0
O2666 O 0.65385 0.91799 0.67252 0.0
O2667 O 0.66273 0.92785 0.67676 0.0
H2668 H 0.67415 0.91305 0.66984 0.0
H2669 H 0.68167 0.9076 0.65744 0.0
H2670 H 0.68813 0.88489 0.6714 0.0
H2671 H 0.68071 0.89051 0.68388 0.0
H2672 H 0.65797 0.90264 0.72108 0.0
H2673 H 0.66072 0.90893 0.70708 0.0
H2674 H 0.63467 0.91701 0.72286 0.0
H2675 H 0.63744 0.9232 0.7089 0.0
H2676 H 0.63541 0.94469 0.67503 0.0
H2677 H 0.64419 0.94027 0.6494 0.0
H2678 H 0.65493 0.93046 0.65481 0.0
H2679 H 0.64605 0.93466 0.68034 0.0
C2680 C 0.35038 0.42764 0.92865 0.0
C2681 C 0.34521 0.42821 0.92142 0.0
C2682 C 0.35616 0.43621 0.91405 0.0
C2683 C 0.34806 0.43247 0.9142 0.0
C2684 C 0.36121 0.43589 0.92142 0.0
C2685 C 0.35835 0.43161 0.92867 0.0
U2686 U 0.33582 0.41065 0.93622 0.0
O2687 O 0.33817 0.39866 0.94293 0.0
O2688 O 0.32943 0.40806 0.94837 0.0
C2689 C 0.33345 0.40082 0.94945 0.0
C2690 C 0.34779 0.42216 0.93573 0.0
C2691 C 0.33737 0.39944 0.95779 0.0
C2692 C 0.34691 0.40372 0.96915 0.0
C2693 C 0.34294 0.40541 0.96137 0.0
C2694 C 0.33975 0.39013 0.96982 0.0
C2695 C 0.34543 0.39601 0.9734 0.0
C2696 C 0.33576 0.39184 0.96209 0.0
C2697 C 0.31994 0.40284 0.91952 0.0
C2698 C 0.31151 0.39006 0.92124 0.0
C2699 C 0.31097 0.39791 0.90803 0.0
C2700 C 0.31668 0.40383 0.91132 0.0
C2701 C 0.30843 0.39087 0.9129 0.0
C2702 C 0.31725 0.39599 0.92453 0.0
C2703 C 0.3266 0.40862 0.92249 0.0
O2704 O 0.34018 0.42368 0.93883 0.0
O2705 O 0.34922 0.41406 0.9344 0.0
O2706 O 0.33407 0.40508 0.92359 0.0
O2707 O 0.3245 0.41384 0.92864 0.0
H2708 H 0.33907 0.42513 0.92127 0.0
H2709 H 0.34397 0.4327 0.90868 0.0
H2710 H 0.36751 0.43865 0.92148 0.0
H2711 H 0.36245 0.43115 0.93416 0.0
H2712 H 0.3513 0.40834 0.97172 0.0
H2713 H 0.34431 0.4113 0.9581 0.0
H2714 H 0.33838 0.38419 0.97299 0.0
H2715 H 0.33148 0.38717 0.95941 0.0
H2716 H 0.30975 0.38467 0.92512 0.0
H2717 H 0.30862 0.39878 0.90163 0.0
H2718 H 0.31871 0.40909 0.90738 0.0
H2719 H 0.31976 0.39512 0.93087 0.0
C2720 C 0.32442 0.59942 0.67731 0.0
C2721 C 0.32428 0.59483 0.66969 0.0
C2722 C 0.3161 0.60604 0.66292 0.0
C2723 C 0.32014 0.59809 0.66257 0.0
C2724 C 0.31605 0.61051 0.67065 0.0
C2725 C 0.3202 0.60723 0.67779 0.0
U2726 U 0.34121 0.58453 0.68499 0.0
O2727 O 0.35259 0.58646 0.69277 0.0
O2728 O 0.34286 0.57738 0.69692 0.0
C2729 C 0.34987 0.58147 0.69888 0.0
C2730 C 0.32956 0.59637 0.68447 0.0
C2731 C 0.35032 0.58501 0.70753 0.0
C2732 C 0.35059 0.59708 0.71715 0.0
C2733 C 0.3495 0.59377 0.70898 0.0
C2734 C 0.35294 0.58289 0.72258 0.0
C2735 C 0.35241 0.59168 0.72402 0.0
C2736 C 0.35194 0.5796 0.7144 0.0
C2737 C 0.35041 0.56984 0.66786 0.0
C2738 C 0.36211 0.56013 0.67031 0.0
C2739 C 0.35699 0.56254 0.65601 0.0
C2740 C 0.35088 0.56814 0.65915 0.0
C2741 C 0.36275 0.55853 0.66154 0.0
C2742 C 0.356 0.56576 0.67345 0.0
C2743 C 0.3444 0.57627 0.67087 0.0
O2744 O 0.32797 0.58855 0.68692 0.0
O2745 O 0.33771 0.59797 0.68373 0.0
O2746 O 0.34781 0.58364 0.67276 0.0
O2747 O 0.33874 0.57374 0.67646 0.0
H2748 H 0.32755 0.5888 0.66919 0.0
H2749 H 0.32019 0.59442 0.65676 0.0
H2750 H 0.31308 0.61669 0.67111 0.0
H2751 H 0.32032 0.6109 0.68361 0.0
H2752 H 0.35003 0.60386 0.71809 0.0
H2753 H 0.34817 0.59808 0.70379 0.0
H2754 H 0.35439 0.57859 0.72774 0.0
H2755 H 0.35259 0.57282 0.7134 0.0
H2756 H 0.36637 0.55706 0.67475 0.0
H2757 H 0.35737 0.56156 0.64922 0.0
H2758 H 0.34664 0.5713 0.65475 0.0
H2759 H 0.35573 0.56704 0.6802 0.0
C2760 C 0.85045 0.07413 0.07377 0.0
C2761 C 0.84549 0.07344 0.08113 0.0
C2762 C 0.85673 0.06548 0.08812 0.0
C2763 C 0.84859 0.06914 0.08822 0.0
C2764 C 0.86156 0.06593 0.08061 0.0
C2765 C 0.85845 0.07025 0.0735 0.0
U2766 U 0.83558 0.09107 0.0664 0.0
O2767 O 0.8378 0.10301 0.05956 0.0
O2768 O 0.82902 0.09353 0.05431 0.0
C2769 C 0.83298 0.10079 0.05313 0.0
C2770 C 0.84761 0.0796 0.06677 0.0
C2771 C 0.83674 0.10216 0.04471 0.0
C2772 C 0.84621 0.098 0.03326 0.0
C2773 C 0.84238 0.09628 0.0411 0.0
C2774 C 0.83875 0.11143 0.03258 0.0
C2775 C 0.84451 0.10565 0.02897 0.0
C2776 C 0.8349 0.10969 0.04037 0.0
C2777 C 0.81992 0.09918 0.08305 0.0
C2778 C 0.81131 0.11176 0.08078 0.0
C2779 C 0.81122 0.10475 0.09447 0.0
C2780 C 0.81691 0.09868 0.09139 0.0
C2781 C 0.80846 0.11144 0.08924 0.0
C2782 C 0.81701 0.10568 0.07771 0.0
C2783 C 0.82654 0.09329 0.08022 0.0
O2784 O 0.83994 0.07803 0.06386 0.0
O2785 O 0.84902 0.08771 0.06806 0.0
O2786 O 0.83401 0.09678 0.079 0.0
O2787 O 0.82438 0.08795 0.07418 0.0
H2788 H 0.83932 0.07645 0.08147 0.0
H2789 H 0.84465 0.0688 0.09385 0.0
H2790 H 0.86789 0.06326 0.08035 0.0
H2791 H 0.86239 0.0708 0.06789 0.0
H2792 H 0.85067 0.09346 0.03067 0.0
H2793 H 0.84392 0.09045 0.04441 0.0
H2794 H 0.83721 0.11731 0.02939 0.0
H2795 H 0.83056 0.11429 0.04307 0.0
H2796 H 0.80939 0.11688 0.07662 0.0
H2797 H 0.80907 0.10426 0.10098 0.0
H2798 H 0.81911 0.0937 0.09559 0.0
H2799 H 0.81933 0.10619 0.07126 0.0
C2800 C 0.67871 0.10079 0.82283 0.0
C2801 C 0.67772 0.09808 0.83125 0.0
C2802 C 0.68846 0.10818 0.8359 0.0
C2803 C 0.68254 0.10175 0.83772 0.0
C2804 C 0.68959 0.11069 0.82739 0.0
C2805 C 0.68474 0.10703 0.82091 0.0
U2806 U 0.66162 0.08544 0.81607 0.0
O2807 O 0.64986 0.08738 0.80888 0.0
O2808 O 0.65952 0.07857 0.80404 0.0
C2809 C 0.65238 0.08262 0.80251 0.0
C2810 C 0.67315 0.09743 0.81614 0.0
C2811 C 0.6515 0.08642 0.79399 0.0
C2812 C 0.64993 0.09875 0.78486 0.0
C2813 C 0.65146 0.09526 0.79286 0.0
C2814 C 0.64883 0.08462 0.77889 0.0
C2815 C 0.64849 0.09347 0.77781 0.0
C2816 C 0.65028 0.08113 0.78693 0.0
C2817 C 0.65299 0.07025 0.83287 0.0
C2818 C 0.64035 0.06175 0.83053 0.0
C2819 C 0.64734 0.06153 0.84423 0.0
C2820 C 0.65345 0.06719 0.8412 0.0
C2821 C 0.64064 0.05883 0.83897 0.0
C2822 C 0.64647 0.06742 0.82751 0.0
C2823 C 0.659 0.07678 0.83006 0.0
O2824 O 0.67476 0.08961 0.81372 0.0
O2825 O 0.66503 0.09888 0.81734 0.0
O2826 O 0.65558 0.08423 0.82856 0.0
O2827 O 0.6645 0.07445 0.82423 0.0
H2828 H 0.67307 0.09327 0.83283 0.0
H2829 H 0.68141 0.09974 0.8442 0.0
H2830 H 0.69418 0.11553 0.82574 0.0
H2831 H 0.68559 0.10917 0.81444 0.0
H2832 H 0.64982 0.10559 0.78418 0.0
H2833 H 0.65248 0.09949 0.79819 0.0
H2834 H 0.64771 0.08041 0.77358 0.0
H2835 H 0.65028 0.0743 0.78767 0.0
H2836 H 0.63523 0.05988 0.82633 0.0
H2837 H 0.64781 0.05931 0.85072 0.0
H2838 H 0.65845 0.06933 0.84542 0.0
H2839 H 0.64601 0.06977 0.82106 0.0
C2840 C 0.82433 0.90193 0.32508 0.0
C2841 C 0.82547 0.90585 0.33299 0.0
C2842 C 0.81626 0.8954 0.33963 0.0
C2843 C 0.82148 0.90261 0.3402 0.0
C2844 C 0.81494 0.89163 0.33164 0.0
C2845 C 0.81897 0.89487 0.32441 0.0
U2846 U 0.8405 0.91709 0.31667 0.0
O2847 O 0.85173 0.9153 0.30864 0.0
O2848 O 0.84167 0.92406 0.30459 0.0
C2849 C 0.84875 0.92015 0.30254 0.0
C2850 C 0.82915 0.90499 0.31771 0.0
C2851 C 0.84912 0.91652 0.29393 0.0
C2852 C 0.84937 0.90436 0.28442 0.0
C2853 C 0.8483 0.90775 0.29256 0.0
C2854 C 0.85174 0.91849 0.27885 0.0
C2855 C 0.85121 0.90969 0.2775 0.0
C2856 C 0.85074 0.92187 0.287 0.0
C2857 C 0.84981 0.93228 0.33331 0.0
C2858 C 0.86243 0.9408 0.33099 0.0
C2859 C 0.85546 0.94095 0.3447 0.0
C2860 C 0.84934 0.93531 0.34165 0.0
C2861 C 0.86216 0.94365 0.33945 0.0
C2862 C 0.8563 0.93514 0.32794 0.0
C2863 C 0.84385 0.92567 0.33056 0.0
O2864 O 0.82729 0.91273 0.31521 0.0
O2865 O 0.83735 0.90359 0.3182 0.0
O2866 O 0.84736 0.91834 0.32873 0.0
O2867 O 0.83801 0.92799 0.32507 0.0
H2868 H 0.82959 0.91132 0.33362 0.0
H2869 H 0.82252 0.90573 0.34623 0.0
H2870 H 0.811 0.88603 0.33101 0.0
H2871 H 0.81806 0.89176 0.31835 0.0
H2872 H 0.84881 0.89757 0.28355 0.0
H2873 H 0.84698 0.9035 0.2978 0.0
H2874 H 0.8532 0.92275 0.27366 0.0
H2875 H 0.8514 0.92865 0.28793 0.0
H2876 H 0.86755 0.94269 0.32681 0.0
H2877 H 0.855 0.94312 0.35121 0.0
H2878 H 0.84436 0.93315 0.34586 0.0
H2879 H 0.85676 0.93281 0.32149 0.0
C2880 C 0.43044 0.35226 0.06851 0.0
C2881 C 0.42248 0.34831 0.06797 0.0
C2882 C 0.41678 0.36052 0.06039 0.0
C2883 C 0.41573 0.35238 0.06392 0.0
C2884 C 0.42484 0.36437 0.06077 0.0
C2885 C 0.43161 0.36027 0.06482 0.0
U2886 U 0.43744 0.33584 0.08444 0.0
O2887 O 0.44874 0.32763 0.08498 0.0
O2888 O 0.44616 0.33666 0.09528 0.0
C2889 C 0.45154 0.33121 0.09198 0.0
C2890 C 0.43732 0.34827 0.07337 0.0
C2891 C 0.46045 0.33394 0.0918 0.0
C2892 C 0.47117 0.34471 0.08927 0.0
C2893 C 0.46267 0.34216 0.08921 0.0
C2894 C 0.47531 0.33079 0.09434 0.0
C2895 C 0.47758 0.33905 0.09186 0.0
C2896 C 0.4668 0.32827 0.09433 0.0
C2897 C 0.42055 0.32131 0.09405 0.0
C2898 C 0.42039 0.31483 0.10806 0.0
C2899 C 0.41167 0.30901 0.09681 0.0
C2900 C 0.41472 0.31521 0.09124 0.0
C2901 C 0.41437 0.30885 0.10531 0.0
C2902 C 0.4235 0.32098 0.10247 0.0
C2903 C 0.4232 0.32811 0.0882 0.0
O2904 O 0.43691 0.3495 0.08161 0.0
O2905 O 0.43903 0.34036 0.07132 0.0
O2906 O 0.42808 0.32577 0.08185 0.0
O2907 O 0.42561 0.33526 0.09176 0.0
H2908 H 0.42145 0.34214 0.07082 0.0
H2909 H 0.40965 0.34918 0.06363 0.0
H2910 H 0.42584 0.37065 0.05818 0.0
H2911 H 0.43771 0.36343 0.06523 0.0
H2912 H 0.47275 0.35109 0.08723 0.0
H2913 H 0.45784 0.34661 0.08717 0.0
H2914 H 0.48009 0.32632 0.09644 0.0
H2915 H 0.46518 0.3219 0.09634 0.0
H2916 H 0.42263 0.31481 0.11456 0.0
H2917 H 0.40696 0.30455 0.09453 0.0
H2918 H 0.41237 0.31534 0.08478 0.0
H2919 H 0.42807 0.32557 0.10477 0.0
C2920 C 0.40013 0.68121 0.81709 0.0
C2921 C 0.40279 0.67276 0.81783 0.0
C2922 C 0.39091 0.66814 0.8091 0.0
C2923 C 0.39822 0.66628 0.81388 0.0
C2924 C 0.38843 0.67666 0.80813 0.0
C2925 C 0.393 0.68316 0.81214 0.0
U2926 U 0.41731 0.6872 0.83257 0.0
O2927 O 0.42583 0.69821 0.83346 0.0
O2928 O 0.41693 0.69544 0.84384 0.0
C2929 C 0.42238 0.70085 0.8406 0.0
C2930 C 0.40452 0.68786 0.82192 0.0
C2931 C 0.41967 0.70978 0.84081 0.0
C2932 C 0.41412 0.72237 0.83385 0.0
C2933 C 0.41687 0.71394 0.83345 0.0
C2934 C 0.41681 0.72252 0.84899 0.0
C2935 C 0.41402 0.72672 0.84163 0.0
C2936 C 0.41964 0.71413 0.84857 0.0
C2937 C 0.43151 0.66926 0.84086 0.0
C2938 C 0.43903 0.66879 0.85433 0.0
C2939 C 0.44238 0.65864 0.84327 0.0
C2940 C 0.43635 0.6624 0.83798 0.0
C2941 C 0.44365 0.66165 0.85159 0.0
C2942 C 0.43301 0.67258 0.849 0.0
C2943 C 0.42466 0.67256 0.83543 0.0
O2944 O 0.40357 0.68726 0.83018 0.0
O2945 O 0.41241 0.68935 0.81965 0.0
O2946 O 0.42702 0.67768 0.82929 0.0
O2947 O 0.41775 0.67507 0.83938 0.0
H2948 H 0.4083 0.67115 0.82163 0.0
H2949 H 0.40037 0.6598 0.81463 0.0
H2950 H 0.3828 0.67827 0.80452 0.0
H2951 H 0.39085 0.68966 0.81153 0.0
H2952 H 0.41191 0.72542 0.8281 0.0
H2953 H 0.41673 0.71067 0.8274 0.0
H2954 H 0.41686 0.72575 0.85506 0.0
H2955 H 0.42175 0.71101 0.85432 0.0
H2956 H 0.43981 0.67123 0.86071 0.0
H2957 H 0.44595 0.65327 0.8409 0.0
H2958 H 0.43533 0.65981 0.83169 0.0
H2959 H 0.42938 0.67793 0.85133 0.0
C2960 C 0.0714 0.65041 0.5661 0.0
C2961 C 0.07866 0.65508 0.56391 0.0
C2962 C 0.08492 0.64257 0.55733 0.0
C2963 C 0.08532 0.65122 0.55952 0.0
C2964 C 0.07751 0.63798 0.55929 0.0
C2965 C 0.07081 0.64187 0.56364 0.0
U2966 U 0.06553 0.6654 0.5838 0.0
O2967 O 0.05469 0.67397 0.58573 0.0
O2968 O 0.05714 0.66369 0.59482 0.0
C2969 C 0.05191 0.6697 0.59234 0.0
C2970 C 0.06481 0.65416 0.57156 0.0
C2971 C 0.04289 0.66731 0.59222 0.0
C2972 C 0.03013 0.66305 0.58468 0.0
C2973 C 0.03869 0.66541 0.5846 0.0
C2974 C 0.02993 0.66433 0.60001 0.0
C2975 C 0.02568 0.66245 0.59239 0.0
C2976 C 0.03846 0.66676 0.59991 0.0
C2977 C 0.08348 0.67798 0.5942 0.0
C2978 C 0.08139 0.68968 0.60405 0.0
C2979 C 0.09517 0.68293 0.60289 0.0
C2980 C 0.09197 0.67743 0.59673 0.0
C2981 C 0.08992 0.68911 0.60663 0.0
C2982 C 0.07817 0.68411 0.59791 0.0
C2983 C 0.08028 0.67198 0.58781 0.0
O2984 O 0.06541 0.65208 0.57961 0.0
O2985 O 0.06327 0.66228 0.57038 0.0
O2986 O 0.07532 0.67517 0.58191 0.0
O2987 O 0.07757 0.66471 0.59083 0.0
H2988 H 0.07929 0.66166 0.56579 0.0
H2989 H 0.09086 0.65499 0.55798 0.0
H2990 H 0.07702 0.63129 0.55778 0.0
H2991 H 0.06528 0.63815 0.56534 0.0
H2992 H 0.02703 0.66154 0.57873 0.0
H2993 H 0.04202 0.6657 0.57859 0.0
H2994 H 0.02664 0.66399 0.60603 0.0
H2995 H 0.04161 0.66819 0.60586 0.0
H2996 H 0.0772 0.69435 0.60685 0.0
H2997 H 0.1018 0.68242 0.60464 0.0
H2998 H 0.09615 0.67273 0.59393 0.0
H2999 H 0.07156 0.68457 0.59607 0.0
C3000 C 0.10301 0.32127 0.31957 0.0
C3001 C 0.10096 0.32985 0.32071 0.0
C3002 C 0.11245 0.33397 0.31125 0.0
C3003 C 0.10564 0.33614 0.3166 0.0
C3004 C 0.11437 0.32535 0.30997 0.0
C3005 C 0.10969 0.31904 0.31414 0.0
U3006 U 0.08498 0.3154 0.3342 0.0
O3007 O 0.07627 0.30451 0.33439 0.0
O3008 O 0.08465 0.30691 0.34529 0.0
C3009 C 0.0793 0.30165 0.34163 0.0
C3010 C 0.09831 0.31471 0.32424 0.0
C3011 C 0.08184 0.29266 0.3418 0.0
C3012 C 0.08697 0.27994 0.33474 0.0
C3013 C 0.08446 0.28844 0.33439 0.0
C3014 C 0.08441 0.27982 0.34991 0.0
C3015 C 0.087 0.27556 0.34251 0.0
C3016 C 0.08182 0.28829 0.34954 0.0
C3017 C 0.07033 0.33314 0.34182 0.0
C3018 C 0.05984 0.3313 0.35299 0.0
C3019 C 0.06037 0.34443 0.34499 0.0
C3020 C 0.06714 0.34127 0.34023 0.0
C3021 C 0.05665 0.3395 0.35145 0.0
C3022 C 0.06661 0.32813 0.34818 0.0
C3023 C 0.07757 0.33006 0.33683 0.0
O3024 O 0.09883 0.31532 0.33254 0.0
O3025 O 0.09054 0.3133 0.32155 0.0
O3026 O 0.07565 0.32508 0.33043 0.0
O3027 O 0.08412 0.32739 0.34125 0.0
H3028 H 0.09578 0.33168 0.32485 0.0
H3029 H 0.10391 0.34272 0.31759 0.0
H3030 H 0.1196 0.32349 0.30592 0.0
H3031 H 0.11135 0.31243 0.3132 0.0
H3032 H 0.08902 0.27684 0.32896 0.0
H3033 H 0.08462 0.29171 0.32835 0.0
H3034 H 0.08432 0.27657 0.35596 0.0
H3035 H 0.07984 0.29144 0.35532 0.0
H3036 H 0.05708 0.32734 0.35787 0.0
H3037 H 0.05817 0.35082 0.34374 0.0
H3038 H 0.06995 0.34522 0.33535 0.0
H3039 H 0.06899 0.32181 0.34946 0.0
C3040 C 0.4308 0.65088 0.43353 0.0
C3041 C 0.42241 0.65381 0.43301 0.0
C3042 C 0.41764 0.64206 0.44183 0.0
C3043 C 0.4159 0.64945 0.43714 0.0
C3044 C 0.42611 0.63931 0.44257 0.0
C3045 C 0.43264 0.64368 0.43841 0.0
U3046 U 0.43661 0.66659 0.41655 0.0
O3047 O 0.44733 0.67541 0.41507 0.0
O3048 O 0.44513 0.66545 0.40556 0.0
C3049 C 0.45025 0.67142 0.40834 0.0
C3050 C 0.43745 0.65499 0.42845 0.0
C3051 C 0.45929 0.6691 0.40848 0.0
C3052 C 0.47197 0.66454 0.416 0.0
C3053 C 0.46345 0.66705 0.41609 0.0
C3054 C 0.47222 0.66602 0.40069 0.0
C3055 C 0.47641 0.66393 0.40828 0.0
C3056 C 0.46375 0.66861 0.4008 0.0
C3057 C 0.41839 0.67892 0.40625 0.0
C3058 C 0.42027 0.6906 0.39635 0.0
C3059 C 0.40645 0.68404 0.39802 0.0
C3060 C 0.4098 0.67849 0.40405 0.0
C3061 C 0.41164 0.69015 0.39408 0.0
C3062 C 0.42364 0.68498 0.40236 0.0
C3063 C 0.42173 0.67287 0.4125 0.0
O3064 O 0.43713 0.65318 0.42032 0.0
O3065 O 0.4386 0.66312 0.42994 0.0
O3066 O 0.42655 0.67606 0.41852 0.0
O3067 O 0.4247 0.66576 0.40933 0.0
H3068 H 0.42088 0.65935 0.42925 0.0
H3069 H 0.40947 0.65181 0.43656 0.0
H3070 H 0.42763 0.63361 0.4461 0.0
H3071 H 0.43909 0.64131 0.43882 0.0
H3072 H 0.47502 0.66287 0.42193 0.0
H3073 H 0.4601 0.66728 0.42209 0.0
H3074 H 0.47552 0.66568 0.39467 0.0
H3075 H 0.46063 0.67015 0.39486 0.0
H3076 H 0.42442 0.69521 0.39339 0.0
H3077 H 0.39975 0.68362 0.39652 0.0
H3078 H 0.40567 0.67384 0.40699 0.0
H3079 H 0.43032 0.68535 0.40396 0.0
C3080 C 0.10182 0.67993 0.18327 0.0
C3081 C 0.09889 0.67155 0.18281 0.0
C3082 C 0.1107 0.66681 0.19156 0.0
C3083 C 0.10328 0.66505 0.18691 0.0
C3084 C 0.11349 0.67527 0.19223 0.0
C3085 C 0.10908 0.68179 0.18808 0.0
U3086 U 0.08451 0.6861 0.16802 0.0
O3087 O 0.0761 0.6972 0.1673 0.0
O3088 O 0.08475 0.69434 0.15674 0.0
C3089 C 0.07942 0.69981 0.1601 0.0
C3090 C 0.09752 0.68661 0.1784 0.0
C3091 C 0.08218 0.70872 0.15981 0.0
C3092 C 0.08776 0.72136 0.16667 0.0
C3093 C 0.08503 0.71293 0.16713 0.0
C3094 C 0.08496 0.72143 0.15155 0.0
C3095 C 0.08779 0.72567 0.15886 0.0
C3096 C 0.08215 0.71303 0.15203 0.0
C3097 C 0.06971 0.66847 0.16031 0.0
C3098 C 0.05956 0.67024 0.14882 0.0
C3099 C 0.05979 0.6572 0.15698 0.0
C3100 C 0.06644 0.66038 0.16189 0.0
C3101 C 0.05629 0.66207 0.15036 0.0
C3102 C 0.06621 0.67343 0.15378 0.0
C3103 C 0.07684 0.67155 0.16545 0.0
O3104 O 0.0983 0.68586 0.17013 0.0
O3105 O 0.08971 0.68831 0.1808 0.0
O3106 O 0.07482 0.67673 0.17167 0.0
O3107 O 0.08359 0.67398 0.16119 0.0
H3108 H 0.09328 0.67001 0.17913 0.0
H3109 H 0.10091 0.65862 0.18639 0.0
H3110 H 0.1192 0.67681 0.19573 0.0
H3111 H 0.11144 0.68824 0.18848 0.0
H3112 H 0.09 0.72445 0.17239 0.0
H3113 H 0.08521 0.7097 0.1732 0.0
H3114 H 0.08486 0.72462 0.14546 0.0
H3115 H 0.08 0.70988 0.14631 0.0
H3116 H 0.05696 0.67416 0.14381 0.0
H3117 H 0.05754 0.65083 0.15824 0.0
H3118 H 0.06909 0.65647 0.16689 0.0
H3119 H 0.06866 0.67972 0.1525 0.0
C3120 C 0.07132 0.35039 0.93348 0.0
C3121 C 0.07956 0.34702 0.93329 0.0
C3122 C 0.08469 0.35877 0.94193 0.0
C3123 C 0.08617 0.35116 0.93749 0.0
C3124 C 0.07636 0.36197 0.94232 0.0
C3125 C 0.06973 0.35782 0.9381 0.0
U3126 U 0.06471 0.33449 0.91682 0.0
O3127 O 0.0535 0.32628 0.91561 0.0
O3128 O 0.05618 0.33587 0.90585 0.0
C3129 C 0.05076 0.33027 0.90881 0.0
C3130 C 0.06457 0.34647 0.92838 0.0
C3131 C 0.04183 0.33302 0.90893 0.0
C3132 C 0.02918 0.33756 0.9165 0.0
C3133 C 0.03766 0.33495 0.91657 0.0
C3134 C 0.02899 0.33652 0.90116 0.0
C3135 C 0.02477 0.33839 0.90879 0.0
C3136 C 0.03744 0.33383 0.90124 0.0
C3137 C 0.08179 0.32032 0.90697 0.0
C3138 C 0.08246 0.31443 0.8927 0.0
C3139 C 0.09032 0.30779 0.90413 0.0
C3140 C 0.08723 0.31387 0.90979 0.0
C3141 C 0.08807 0.30808 0.8955 0.0
C3142 C 0.0793 0.32047 0.8984 0.0
C3143 C 0.07903 0.32692 0.91299 0.0
O3144 O 0.06511 0.34801 0.92021 0.0
O3145 O 0.06294 0.33847 0.9301 0.0
O3146 O 0.07406 0.32435 0.91918 0.0
O3147 O 0.07667 0.33421 0.90967 0.0
H3148 H 0.0809 0.34129 0.92974 0.0
H3149 H 0.09249 0.34845 0.93718 0.0
H3150 H 0.07502 0.36785 0.94563 0.0
H3151 H 0.06341 0.36052 0.93826 0.0
H3152 H 0.02611 0.33905 0.92246 0.0
H3153 H 0.04095 0.33446 0.92259 0.0
H3154 H 0.02572 0.33703 0.89513 0.0
H3155 H 0.04055 0.33238 0.89528 0.0
H3156 H 0.08057 0.31477 0.8861 0.0
H3157 H 0.09471 0.30304 0.90645 0.0
H3158 H 0.08922 0.31364 0.91637 0.0
H3159 H 0.07504 0.32533 0.89606 0.0
C3160 C 0.39968 0.32022 0.6833 0.0
C3161 C 0.4019 0.32876 0.68217 0.0
C3162 C 0.39055 0.3331 0.6917 0.0
C3163 C 0.39738 0.33513 0.68633 0.0
C3164 C 0.38849 0.32451 0.69301 0.0
C3165 C 0.39302 0.31811 0.68881 0.0
U3166 U 0.41607 0.31459 0.6669 0.0
O3167 O 0.42504 0.30396 0.66574 0.0
O3168 O 0.41541 0.30606 0.65587 0.0
C3169 C 0.42131 0.30099 0.65888 0.0
C3170 C 0.40405 0.31363 0.67837 0.0
C3171 C 0.41904 0.29195 0.65897 0.0
C3172 C 0.4141 0.27934 0.66635 0.0
C3173 C 0.4166 0.28786 0.6665 0.0
C3174 C 0.41638 0.27894 0.65115 0.0
C3175 C 0.4139 0.27483 0.65866 0.0
C3176 C 0.41895 0.28742 0.65131 0.0
C3177 C 0.42857 0.33294 0.65708 0.0
C3178 C 0.44 0.33105 0.64688 0.0
C3179 C 0.43433 0.34508 0.64961 0.0
C3180 C 0.42866 0.34167 0.6555 0.0
C3181 C 0.44003 0.33981 0.6452 0.0
C3182 C 0.43427 0.32762 0.65276 0.0
C3183 C 0.42234 0.32953 0.66311 0.0
O3184 O 0.40253 0.31392 0.67018 0.0
O3185 O 0.41214 0.31259 0.68016 0.0
O3186 O 0.42539 0.32472 0.66921 0.0
O3187 O 0.41538 0.32649 0.65967 0.0
H3188 H 0.40705 0.33049 0.67795 0.0
H3189 H 0.39921 0.34168 0.6853 0.0
H3190 H 0.38324 0.32276 0.69709 0.0
H3191 H 0.39121 0.31154 0.68972 0.0
H3192 H 0.41214 0.27635 0.67222 0.0
H3193 H 0.41652 0.29126 0.67247 0.0
H3194 H 0.41635 0.2756 0.64514 0.0
H3195 H 0.42078 0.29049 0.64544 0.0
H3196 H 0.4443 0.32684 0.64356 0.0
H3197 H 0.43429 0.35188 0.64857 0.0
H3198 H 0.42431 0.34586 0.65879 0.0
H3199 H 0.43424 0.32084 0.65389 0.0
C3200 C 0.06542 0.42933 0.35161 0.0
C3201 C 0.06657 0.42085 0.34915 0.0
C3202 C 0.05594 0.41631 0.3594 0.0
C3203 C 0.06188 0.41441 0.35302 0.0
C3204 C 0.05468 0.42484 0.36173 0.0
C3205 C 0.05942 0.43131 0.35787 0.0
U3206 U 0.08189 0.43549 0.33547 0.0
O3207 O 0.08337 0.44666 0.32726 0.0
O3208 O 0.09328 0.44352 0.33656 0.0
C3209 C 0.09042 0.44907 0.33104 0.0
C3210 C 0.07067 0.436 0.34776 0.0
C3211 C 0.09081 0.45799 0.33377 0.0
C3212 C 0.084 0.47098 0.33855 0.0
C3213 C 0.08345 0.46249 0.33602 0.0
C3214 C 0.09927 0.47052 0.33678 0.0
C3215 C 0.09192 0.47507 0.33896 0.0
C3216 C 0.09871 0.46206 0.33418 0.0
C3217 C 0.09026 0.41778 0.32107 0.0
C3218 C 0.10346 0.41822 0.31307 0.0
C3219 C 0.09342 0.40678 0.31079 0.0
C3220 C 0.08797 0.41035 0.31679 0.0
C3221 C 0.10132 0.41056 0.309 0.0
C3222 C 0.09796 0.4218 0.31907 0.0
C3223 C 0.08469 0.42099 0.32781 0.0
O3224 O 0.07886 0.43515 0.34908 0.0
O3225 O 0.06882 0.43786 0.33984 0.0
O3226 O 0.07875 0.42633 0.3254 0.0
O3227 O 0.08849 0.42324 0.33489 0.0
H3228 H 0.07115 0.41922 0.34429 0.0
H3229 H 0.0629 0.40792 0.35098 0.0
H3230 H 0.05017 0.42649 0.36664 0.0
H3231 H 0.05847 0.43782 0.35984 0.0
H3232 H 0.07824 0.47431 0.34029 0.0
H3233 H 0.07728 0.45945 0.33585 0.0
H3234 H 0.10545 0.47353 0.33697 0.0
H3235 H 0.10446 0.45869 0.33247 0.0
H3236 H 0.1095 0.42126 0.31187 0.0
H3237 H 0.09151 0.40098 0.30765 0.0
H3238 H 0.08202 0.4072 0.3182 0.0
H3239 H 0.09981 0.42759 0.32229 0.0
C3240 C 0.32232 0.3175 0.10145 0.0
C3241 C 0.33004 0.31641 0.09715 0.0
C3242 C 0.33599 0.30911 0.10941 0.0
C3243 C 0.33679 0.31222 0.10107 0.0
C3244 C 0.32816 0.31001 0.1136 0.0
C3245 C 0.32138 0.31419 0.10965 0.0
U3246 U 0.31554 0.33418 0.08567 0.0
O3247 O 0.30426 0.33544 0.07756 0.0
O3248 O 0.30705 0.34518 0.08714 0.0
C3249 C 0.30158 0.34225 0.08157 0.0
C3250 C 0.31552 0.32265 0.09767 0.0
C3251 C 0.29266 0.34218 0.08435 0.0
C3252 C 0.27988 0.33467 0.08862 0.0
C3253 C 0.28838 0.33455 0.08609 0.0
C3254 C 0.27988 0.35003 0.0879 0.0
C3255 C 0.27555 0.34242 0.08955 0.0
C3256 C 0.28835 0.34991 0.08529 0.0
C3257 C 0.33248 0.3439 0.07128 0.0
C3258 C 0.33269 0.35806 0.06512 0.0
C3259 C 0.34126 0.34687 0.05897 0.0
C3260 C 0.33823 0.34119 0.06507 0.0
C3261 C 0.33862 0.35539 0.05901 0.0
C3262 C 0.3296 0.35235 0.07118 0.0
C3263 C 0.32978 0.3379 0.07792 0.0
O3264 O 0.31615 0.33082 0.0992 0.0
O3265 O 0.31368 0.32094 0.08971 0.0
O3266 O 0.32475 0.33174 0.07543 0.0
O3267 O 0.32752 0.34127 0.08522 0.0
H3268 H 0.3309 0.31897 0.09083 0.0
H3269 H 0.34269 0.31152 0.09761 0.0
H3270 H 0.32735 0.30777 0.12005 0.0
H3271 H 0.31548 0.31504 0.11308 0.0
H3272 H 0.27671 0.32872 0.08994 0.0
H3273 H 0.2916 0.32851 0.08549 0.0
H3274 H 0.27668 0.35609 0.0885 0.0
H3275 H 0.29155 0.35585 0.08398 0.0
H3276 H 0.3305 0.36457 0.06526 0.0
H3277 H 0.3459 0.34466 0.05441 0.0
H3278 H 0.34052 0.33471 0.06504 0.0
H3279 H 0.32508 0.35457 0.07585 0.0
C3280 C 0.43731 0.56935 0.85049 0.0
C3281 C 0.43858 0.57727 0.84663 0.0
C3282 C 0.4484 0.58131 0.85787 0.0
C3283 C 0.44408 0.58318 0.85027 0.0
C3284 C 0.44711 0.57335 0.86171 0.0
C3285 C 0.44162 0.56741 0.85803 0.0
U3286 U 0.41935 0.56478 0.83528 0.0
O3287 O 0.41671 0.55394 0.82692 0.0
O3288 O 0.40766 0.5573 0.83698 0.0
C3289 C 0.40987 0.55174 0.83117 0.0
C3290 C 0.43124 0.56328 0.84683 0.0
C3291 C 0.40945 0.54281 0.83383 0.0
C3292 C 0.41629 0.5299 0.83875 0.0
C3293 C 0.4168 0.53839 0.83626 0.0
C3294 C 0.40105 0.53019 0.83661 0.0
C3295 C 0.40841 0.52572 0.83895 0.0
C3296 C 0.40158 0.53866 0.83404 0.0
C3297 C 0.41111 0.58307 0.82164 0.0
C3298 C 0.39833 0.58216 0.81304 0.0
C3299 C 0.40685 0.59497 0.8129 0.0
C3300 C 0.41253 0.59128 0.8186 0.0
C3301 C 0.3996 0.59052 0.81016 0.0
C3302 C 0.40405 0.57847 0.81876 0.0
C3303 C 0.41693 0.57955 0.82801 0.0
O3304 O 0.42325 0.5648 0.84868 0.0
O3305 O 0.43244 0.56144 0.83878 0.0
O3306 O 0.42242 0.57394 0.8252 0.0
O3307 O 0.41341 0.57739 0.83525 0.0
H3308 H 0.43522 0.57891 0.84086 0.0
H3309 H 0.4448 0.58931 0.84724 0.0
H3310 H 0.45037 0.57171 0.86753 0.0
H3311 H 0.44067 0.56134 0.8611 0.0
H3312 H 0.42204 0.52664 0.84063 0.0
H3313 H 0.42294 0.54151 0.83625 0.0
H3314 H 0.39491 0.5271 0.83666 0.0
H3315 H 0.39584 0.54198 0.83221 0.0
H3316 H 0.39279 0.57859 0.81108 0.0
H3317 H 0.40809 0.60136 0.81068 0.0
H3318 H 0.41799 0.5949 0.82072 0.0
H3319 H 0.40288 0.57209 0.82105 0.0
C3320 C 0.18058 0.68367 0.60041 0.0
C3321 C 0.17266 0.68436 0.59642 0.0
C3322 C 0.16709 0.69212 0.60857 0.0
C3323 C 0.16598 0.68858 0.60044 0.0
C3324 C 0.17513 0.69165 0.61243 0.0
C3325 C 0.18183 0.68743 0.60838 0.0
U3326 U 0.1871 0.66676 0.58476 0.0
O3327 O 0.19825 0.66539 0.57652 0.0
O3328 O 0.19562 0.65579 0.58628 0.0
C3329 C 0.20102 0.65866 0.58061 0.0
C3330 C 0.18731 0.67847 0.59658 0.0
C3331 C 0.20995 0.65887 0.58334 0.0
C3332 C 0.22254 0.66658 0.5878 0.0
C3333 C 0.21406 0.66656 0.5852 0.0
C3334 C 0.22286 0.65123 0.5869 0.0
C3335 C 0.22702 0.65892 0.58869 0.0
C3336 C 0.2144 0.65122 0.58422 0.0
C3337 C 0.16991 0.65681 0.57077 0.0
C3338 C 0.16926 0.64252 0.56496 0.0
C3339 C 0.16122 0.65386 0.55838 0.0
C3340 C 0.16436 0.65957 0.5644 0.0
C3341 C 0.16355 0.64525 0.55867 0.0
C3342 C 0.17246 0.64826 0.57093 0.0
C3343 C 0.17273 0.66289 0.5773 0.0
O3344 O 0.18672 0.67033 0.59824 0.0
O3345 O 0.18899 0.68006 0.58856 0.0
O3346 O 0.17771 0.66903 0.57464 0.0
O3347 O 0.17512 0.65964 0.5846 0.0
H3348 H 0.17157 0.68145 0.59029 0.0
H3349 H 0.15991 0.68895 0.59724 0.0
H3350 H 0.17617 0.69424 0.61871 0.0
H3351 H 0.1879 0.6869 0.61157 0.0
H3352 H 0.22557 0.67259 0.58923 0.0
H3353 H 0.21072 0.67255 0.58466 0.0
H3354 H 0.22617 0.64524 0.58747 0.0
H3355 H 0.21133 0.64522 0.58283 0.0
H3356 H 0.17121 0.63594 0.56529 0.0
H3357 H 0.15675 0.65613 0.55368 0.0
H3358 H 0.16231 0.66614 0.56416 0.0
H3359 H 0.17681 0.64598 0.57574 0.0
C3360 C 0.06701 0.57247 0.14926 0.0
C3361 C 0.06853 0.58101 0.15121 0.0
C3362 C 0.05744 0.58536 0.14136 0.0
C3363 C 0.0638 0.5874 0.14729 0.0
C3364 C 0.05586 0.57677 0.13951 0.0
C3365 C 0.06063 0.57037 0.14342 0.0
U3366 U 0.0839 0.5663 0.16506 0.0
O3367 O 0.08492 0.55541 0.17376 0.0
O3368 O 0.09472 0.55759 0.16409 0.0
C3369 C 0.09173 0.55245 0.16995 0.0
C3370 C 0.07213 0.5658 0.15329 0.0
C3371 C 0.09145 0.54345 0.16758 0.0
C3372 C 0.0883 0.53233 0.15739 0.0
C3373 C 0.08821 0.54089 0.15969 0.0
C3374 C 0.09465 0.52877 0.17094 0.0
C3375 C 0.09157 0.52618 0.16298 0.0
C3376 C 0.0946 0.53734 0.17321 0.0
C3377 C 0.09423 0.58404 0.17801 0.0
C3378 C 0.10387 0.58168 0.18983 0.0
C3379 C 0.1026 0.59568 0.18359 0.0
C3380 C 0.09661 0.59259 0.17784 0.0
C3381 C 0.10632 0.59026 0.18963 0.0
C3382 C 0.09789 0.57858 0.18402 0.0
C3383 C 0.08805 0.58097 0.17173 0.0
O3384 O 0.08029 0.56614 0.15159 0.0
O3385 O 0.07054 0.56452 0.16138 0.0
O3386 O 0.08187 0.5762 0.17468 0.0
O3387 O 0.09133 0.57811 0.16463 0.0
H3388 H 0.0734 0.58274 0.15575 0.0
H3389 H 0.06508 0.59394 0.14898 0.0
H3390 H 0.05104 0.57501 0.13494 0.0
H3391 H 0.05938 0.56379 0.14185 0.0
H3392 H 0.08579 0.53051 0.15125 0.0
H3393 H 0.08569 0.54553 0.15528 0.0
H3394 H 0.09727 0.52419 0.17535 0.0
H3395 H 0.09713 0.53922 0.17933 0.0
H3396 H 0.10666 0.57736 0.19439 0.0
H3397 H 0.10425 0.60235 0.18336 0.0
H3398 H 0.09385 0.59689 0.17324 0.0
H3399 H 0.09616 0.57193 0.18419 0.0
C3400 C 0.1802 0.31735 0.89958 0.0
C3401 C 0.17221 0.31675 0.90347 0.0
C3402 C 0.16668 0.30907 0.89125 0.0
C3403 C 0.16553 0.31262 0.89937 0.0
C3404 C 0.17477 0.30947 0.88748 0.0
C3405 C 0.18147 0.31361 0.89161 0.0
U3406 U 0.18648 0.33391 0.91558 0.0
O3407 O 0.19747 0.335 0.92415 0.0
O3408 O 0.19497 0.34491 0.91467 0.0
C3409 C 0.20025 0.34191 0.9204 0.0
C3410 C 0.18696 0.32239 0.90358 0.0
C3411 C 0.20923 0.34181 0.9179 0.0
C3412 C 0.22394 0.34497 0.92121 0.0
C3413 C 0.21539 0.34477 0.92358 0.0
C3414 C 0.22023 0.33919 0.90744 0.0
C3415 C 0.22644 0.34225 0.91309 0.0
C3416 C 0.21169 0.33894 0.90984 0.0
C3417 C 0.16855 0.34376 0.92869 0.0
C3418 C 0.1707 0.35368 0.94032 0.0
C3419 C 0.15667 0.35177 0.93428 0.0
C3420 C 0.15991 0.3458 0.92861 0.0
C3421 C 0.16203 0.35582 0.94017 0.0
C3422 C 0.17395 0.34772 0.93458 0.0
C3423 C 0.17177 0.3377 0.92239 0.0
O3424 O 0.18654 0.33056 0.90202 0.0
O3425 O 0.18843 0.32067 0.91162 0.0
O3426 O 0.17671 0.33162 0.92528 0.0
O3427 O 0.17453 0.3411 0.91531 0.0
H3428 H 0.17109 0.31964 0.90961 0.0
H3429 H 0.15943 0.3123 0.90251 0.0
H3430 H 0.17584 0.30686 0.88121 0.0
H3431 H 0.18759 0.31407 0.8885 0.0
H3432 H 0.22857 0.34742 0.92567 0.0
H3433 H 0.21359 0.34701 0.92983 0.0
H3434 H 0.22199 0.33696 0.90118 0.0
H3435 H 0.20701 0.33657 0.90539 0.0
H3436 H 0.17498 0.35672 0.94477 0.0
H3437 H 0.14994 0.35318 0.93411 0.0
H3438 H 0.15565 0.3428 0.92411 0.0
H3439 H 0.18067 0.34625 0.93468 0.0
C3440 C 0.43587 0.43139 0.65097 0.0
C3441 C 0.43586 0.42317 0.65437 0.0
C3442 C 0.44395 0.41802 0.64227 0.0
C3443 C 0.43988 0.41656 0.65008 0.0
C3444 C 0.44421 0.42633 0.63903 0.0
C3445 C 0.44016 0.43297 0.64334 0.0
U3446 U 0.41982 0.43735 0.66753 0.0
O3447 O 0.41849 0.44836 0.67597 0.0
O3448 O 0.40842 0.44539 0.66679 0.0
C3449 C 0.41141 0.45087 0.67231 0.0
C3450 C 0.43082 0.43807 0.65506 0.0
C3451 C 0.41113 0.45979 0.66958 0.0
C3452 C 0.41801 0.47244 0.66408 0.0
C3453 C 0.41847 0.46402 0.66683 0.0
C3454 C 0.40284 0.47245 0.66667 0.0
C3455 C 0.41019 0.47672 0.66393 0.0
C3456 C 0.40332 0.46406 0.6695 0.0
C3457 C 0.41155 0.4192 0.68149 0.0
C3458 C 0.3984 0.4193 0.68958 0.0
C3459 C 0.40845 0.40777 0.69131 0.0
C3460 C 0.41387 0.41159 0.68544 0.0
C3461 C 0.40056 0.41147 0.6933 0.0
C3462 C 0.40387 0.42314 0.68371 0.0
C3463 C 0.41706 0.42265 0.67482 0.0
O3464 O 0.4226 0.43733 0.65386 0.0
O3465 O 0.43283 0.43973 0.66299 0.0
O3466 O 0.42301 0.42792 0.67734 0.0
O3467 O 0.41319 0.4251 0.66785 0.0
H3468 H 0.43255 0.42183 0.66025 0.0
H3469 H 0.43967 0.41025 0.6528 0.0
H3470 H 0.44726 0.42764 0.633 0.0
H3471 H 0.44017 0.43928 0.6406 0.0
H3472 H 0.42375 0.47555 0.66191 0.0
H3473 H 0.42455 0.46081 0.66674 0.0
H3474 H 0.39674 0.47562 0.66668 0.0
H3475 H 0.39758 0.46089 0.67157 0.0
H3476 H 0.39237 0.42228 0.69095 0.0
H3477 H 0.41038 0.40184 0.69419 0.0
H3478 H 0.4198 0.4085 0.68385 0.0
H3479 H 0.402 0.42905 0.68074 0.0
C3480 C 0.32031 0.6841 0.40055 0.0
C3481 C 0.3284 0.68446 0.40423 0.0
C3482 C 0.33369 0.69251 0.39215 0.0
C3483 C 0.33502 0.68865 0.40009 0.0
C3484 C 0.32549 0.69237 0.3886 0.0
C3485 C 0.31885 0.68817 0.39277 0.0
U3486 U 0.31428 0.66731 0.41638 0.0
O3487 O 0.30329 0.66601 0.42493 0.0
O3488 O 0.30592 0.65622 0.41536 0.0
C3489 C 0.30057 0.65913 0.42107 0.0
C3490 C 0.31362 0.67897 0.40453 0.0
C3491 C 0.29163 0.65925 0.41842 0.0
C3492 C 0.28083 0.66202 0.40778 0.0
C3493 C 0.28931 0.66223 0.41035 0.0
C3494 C 0.27685 0.6561 0.42141 0.0
C3495 C 0.27451 0.65891 0.41327 0.0
C3496 C 0.28536 0.65625 0.42395 0.0
C3497 C 0.3325 0.65756 0.42925 0.0
C3498 C 0.33067 0.64706 0.44041 0.0
C3499 C 0.3447 0.65006 0.43485 0.0
C3500 C 0.34125 0.65605 0.42933 0.0
C3501 C 0.33946 0.64545 0.44041 0.0
C3502 C 0.3272 0.65305 0.43482 0.0
C3503 C 0.32907 0.66363 0.42308 0.0
O3504 O 0.3141 0.67082 0.40288 0.0
O3505 O 0.31219 0.68059 0.41259 0.0
O3506 O 0.32405 0.66957 0.42611 0.0
O3507 O 0.32631 0.66027 0.41597 0.0
H3508 H 0.32966 0.68132 0.41022 0.0
H3509 H 0.34122 0.68876 0.40306 0.0
H3510 H 0.32428 0.69523 0.38247 0.0
H3511 H 0.31264 0.6879 0.38982 0.0
H3512 H 0.2792 0.66433 0.40152 0.0
H3513 H 0.29408 0.66464 0.40602 0.0
H3514 H 0.27213 0.65362 0.42575 0.0
H3515 H 0.28704 0.65394 0.43021 0.0
H3516 H 0.32648 0.64359 0.44461 0.0
H3517 H 0.35151 0.64907 0.4348 0.0
H3518 H 0.34542 0.65947 0.42507 0.0
H3519 H 0.3204 0.65411 0.43479 0.0
C3520 C 0.35131 0.0693 0.42758 0.0
C3521 C 0.3494 0.07002 0.41892 0.0
C3522 C 0.3608 0.06016 0.41548 0.0
C3523 C 0.3541 0.06549 0.41292 0.0
C3524 C 0.36257 0.05932 0.42419 0.0
C3525 C 0.35787 0.06388 0.43019 0.0
U3526 U 0.33436 0.08558 0.43284 0.0
O3527 O 0.32566 0.08664 0.4437 0.0
O3528 O 0.33498 0.09672 0.44123 0.0
C3529 C 0.3293 0.09363 0.44649 0.0
C3530 C 0.34674 0.07446 0.43383 0.0
C3531 C 0.33181 0.09368 0.45548 0.0
C3532 C 0.33713 0.08651 0.46806 0.0
C3533 C 0.3345 0.08624 0.45959 0.0
C3534 C 0.3345 0.10166 0.46839 0.0
C3535 C 0.33722 0.09424 0.47252 0.0
C3536 C 0.33179 0.10137 0.45995 0.0
C3537 C 0.32076 0.095 0.41535 0.0
C3538 C 0.31126 0.10678 0.4183 0.0
C3539 C 0.31209 0.10096 0.40409 0.0
C3540 C 0.3181 0.09504 0.40688 0.0
C3541 C 0.30866 0.10695 0.40975 0.0
C3542 C 0.31725 0.10085 0.42107 0.0
C3543 C 0.32736 0.08904 0.41813 0.0
O3544 O 0.348 0.08267 0.43315 0.0
O3545 O 0.33871 0.07247 0.43498 0.0
O3546 O 0.32476 0.08284 0.42306 0.0
O3547 O 0.33442 0.09261 0.4208 0.0
H3548 H 0.34434 0.07417 0.4168 0.0
H3549 H 0.35248 0.06616 0.40628 0.0
H3550 H 0.36772 0.05531 0.42635 0.0
H3551 H 0.35944 0.06329 0.43686 0.0
H3552 H 0.33929 0.08071 0.47106 0.0
H3553 H 0.33466 0.08024 0.45623 0.0
H3554 H 0.33444 0.10769 0.47169 0.0
H3555 H 0.32976 0.10717 0.45688 0.0
H3556 H 0.30884 0.11137 0.42281 0.0
H3557 H 0.31015 0.10084 0.3975 0.0
H3558 H 0.32073 0.09054 0.40239 0.0
H3559 H 0.31926 0.10092 0.42765 0.0
C3560 C 0.85181 0.43398 0.56996 0.0
C3561 C 0.84852 0.43394 0.57822 0.0
C3562 C 0.86062 0.44214 0.58321 0.0
C3563 C 0.85287 0.43799 0.58478 0.0
C3564 C 0.86375 0.44243 0.57486 0.0
C3565 C 0.85939 0.43834 0.56827 0.0
U3566 U 0.83514 0.41799 0.56404 0.0
O3567 O 0.82662 0.41678 0.55306 0.0
O3568 O 0.8358 0.40667 0.55589 0.0
C3569 C 0.83026 0.40973 0.55046 0.0
C3570 C 0.84765 0.42895 0.56331 0.0
C3571 C 0.83296 0.40954 0.54153 0.0
C3572 C 0.83844 0.41657 0.52896 0.0
C3573 C 0.83572 0.41693 0.53739 0.0
C3574 C 0.83582 0.40142 0.52875 0.0
C3575 C 0.83856 0.40881 0.52457 0.0
C3576 C 0.83302 0.40179 0.53716 0.0
C3577 C 0.82112 0.40971 0.58218 0.0
C3578 C 0.81352 0.39629 0.58275 0.0
C3579 C 0.81058 0.40726 0.59311 0.0
C3580 C 0.81653 0.41255 0.58923 0.0
C3581 C 0.80914 0.399 0.59005 0.0
C3582 C 0.81946 0.40162 0.57884 0.0
C3583 C 0.82786 0.41517 0.57873 0.0
O3584 O 0.84882 0.42073 0.56403 0.0
O3585 O 0.83971 0.43099 0.56171 0.0
O3586 O 0.82538 0.42119 0.57352 0.0
O3587 O 0.8348 0.41128 0.57623 0.0
H3588 H 0.84268 0.43058 0.57963 0.0
H3589 H 0.85023 0.43776 0.59112 0.0
H3590 H 0.86973 0.44554 0.57347 0.0
H3591 H 0.86203 0.43839 0.56193 0.0
H3592 H 0.84061 0.42234 0.52592 0.0
H3593 H 0.83583 0.42297 0.54068 0.0
H3594 H 0.83579 0.39536 0.5255 0.0
H3595 H 0.83094 0.39602 0.54026 0.0
H3596 H 0.81259 0.38996 0.58026 0.0
H3597 H 0.80719 0.40961 0.59861 0.0
H3598 H 0.81768 0.4188 0.59185 0.0
H3599 H 0.82292 0.39933 0.57335 0.0
C3600 C 0.31895 0.09807 0.32074 0.0
C3601 C 0.31952 0.09497 0.32906 0.0
C3602 C 0.3104 0.10639 0.33407 0.0
C3603 C 0.31529 0.09909 0.33566 0.0
C3604 C 0.30972 0.10937 0.32567 0.0
C3605 C 0.31398 0.10524 0.31906 0.0
U3606 U 0.33472 0.08144 0.31408 0.0
O3607 O 0.33572 0.07335 0.30277 0.0
O3608 O 0.34598 0.08228 0.30585 0.0
C3609 C 0.3428 0.07698 0.30025 0.0
C3610 C 0.32391 0.09409 0.31394 0.0
C3611 C 0.34298 0.07997 0.2914 0.0
C3612 C 0.33589 0.08557 0.2789 0.0
C3613 C 0.33555 0.08267 0.28727 0.0
C3614 C 0.3511 0.08327 0.27873 0.0
C3615 C 0.34368 0.08593 0.27456 0.0
C3616 C 0.35074 0.08029 0.28707 0.0
C3617 C 0.34298 0.06659 0.33155 0.0
C3618 C 0.35674 0.0597 0.33286 0.0
C3619 C 0.3448 0.05472 0.34117 0.0
C3620 C 0.33963 0.06088 0.33747 0.0
C3621 C 0.35347 0.0542 0.33909 0.0
C3622 C 0.35153 0.06584 0.32911 0.0
C3623 C 0.33757 0.07353 0.32843 0.0
O3624 O 0.33216 0.09513 0.31464 0.0
O3625 O 0.32175 0.08625 0.31205 0.0
O3626 O 0.33146 0.07134 0.32319 0.0
O3627 O 0.34149 0.08056 0.32621 0.0
H3628 H 0.3234 0.08946 0.33046 0.0
H3629 H 0.31606 0.09669 0.34206 0.0
H3630 H 0.30592 0.11491 0.32421 0.0
H3631 H 0.31348 0.10771 0.31266 0.0
H3632 H 0.33009 0.08768 0.27587 0.0
H3633 H 0.32949 0.08258 0.29052 0.0
H3634 H 0.35718 0.08342 0.27551 0.0
H3635 H 0.35654 0.07825 0.29016 0.0
H3636 H 0.36339 0.05952 0.33115 0.0
H3637 H 0.34204 0.05046 0.34581 0.0
H3638 H 0.33304 0.06131 0.33938 0.0
H3639 H 0.35425 0.07015 0.32449 0.0
C3640 C 0.64999 0.56804 0.07002 0.0
C3641 C 0.65226 0.56905 0.07856 0.0
C3642 C 0.64086 0.55955 0.08285 0.0
C3643 C 0.64775 0.56485 0.08491 0.0
C3644 C 0.63875 0.55836 0.07426 0.0
C3645 C 0.64326 0.56261 0.06789 0.0
U3646 U 0.66648 0.58437 0.06451 0.0
O3647 O 0.67544 0.58557 0.05388 0.0
O3648 O 0.66588 0.59547 0.05608 0.0
C3649 C 0.67175 0.59247 0.05097 0.0
C3650 C 0.65436 0.57301 0.06347 0.0
C3651 C 0.66945 0.59244 0.04193 0.0
C3652 C 0.66455 0.58511 0.02927 0.0
C3653 C 0.66698 0.58493 0.0378 0.0
C3654 C 0.66692 0.6003 0.02893 0.0
C3655 C 0.66444 0.59281 0.02477 0.0
C3656 C 0.66943 0.6001 0.03743 0.0
C3657 C 0.67916 0.59376 0.08301 0.0
C3658 C 0.68988 0.60474 0.08135 0.0
C3659 C 0.68565 0.60014 0.09541 0.0
C3660 C 0.67999 0.59435 0.09183 0.0
C3661 C 0.69059 0.60547 0.09022 0.0
C3662 C 0.68416 0.59895 0.07777 0.0
C3663 C 0.67286 0.58788 0.07948 0.0
O3664 O 0.65291 0.58121 0.06387 0.0
O3665 O 0.66242 0.57117 0.06237 0.0
O3666 O 0.67584 0.58184 0.07457 0.0
O3667 O 0.66594 0.59146 0.0765 0.0
H3668 H 0.65745 0.57322 0.08032 0.0
H3669 H 0.64962 0.56579 0.09146 0.0
H3670 H 0.63346 0.55434 0.07249 0.0
H3671 H 0.64141 0.56178 0.06131 0.0
H3672 H 0.66257 0.57926 0.02625 0.0
H3673 H 0.66684 0.57895 0.04119 0.0
H3674 H 0.66697 0.60631 0.02559 0.0
H3675 H 0.67129 0.60596 0.04052 0.0
H3676 H 0.69358 0.60879 0.07721 0.0
H3677 H 0.68616 0.60044 0.10226 0.0
H3678 H 0.67619 0.59037 0.09596 0.0
H3679 H 0.68356 0.59857 0.07093 0.0
C3680 C 0.68503 0.39867 0.31892 0.0
C3681 C 0.68772 0.4023 0.32659 0.0
C3682 C 0.69461 0.38906 0.33059 0.0
C3683 C 0.69251 0.39755 0.33236 0.0
C3684 C 0.69201 0.38549 0.32283 0.0
C3685 C 0.68727 0.39027 0.31704 0.0
U3686 U 0.66824 0.41553 0.31492 0.0
O3687 O 0.66657 0.42463 0.30449 0.0
O3688 O 0.65678 0.41501 0.30695 0.0
C3689 C 0.65957 0.42095 0.3018 0.0
C3690 C 0.67947 0.40337 0.31307 0.0
C3691 C 0.65927 0.41877 0.29273 0.0
C3692 C 0.66622 0.41448 0.27965 0.0
C3693 C 0.66668 0.41675 0.28821 0.0
C3694 C 0.65092 0.4161 0.28005 0.0
C3695 C 0.65833 0.41408 0.2755 0.0
C3696 C 0.6514 0.41846 0.28858 0.0
C3697 C 0.65959 0.42826 0.33356 0.0
C3698 C 0.64849 0.43885 0.33183 0.0
C3699 C 0.65342 0.43505 0.3459 0.0
C3700 C 0.65918 0.42932 0.34236 0.0
C3701 C 0.64795 0.43981 0.34069 0.0
C3702 C 0.65426 0.43308 0.32829 0.0
C3703 C 0.66539 0.42188 0.33003 0.0
O3704 O 0.67132 0.40194 0.31409 0.0
O3705 O 0.68128 0.41145 0.31198 0.0
O3706 O 0.6713 0.42478 0.32492 0.0
O3707 O 0.66171 0.41495 0.32722 0.0
H3708 H 0.68596 0.40875 0.32821 0.0
H3709 H 0.69431 0.40044 0.33833 0.0
H3710 H 0.69357 0.37898 0.32128 0.0
H3711 H 0.68522 0.38735 0.31116 0.0
H3712 H 0.67201 0.41286 0.27632 0.0
H3713 H 0.67282 0.41684 0.29131 0.0
H3714 H 0.64477 0.41591 0.27698 0.0
H3715 H 0.64561 0.41997 0.29197 0.0
H3716 H 0.64434 0.4424 0.32767 0.0
H3717 H 0.65326 0.43575 0.35273 0.0
H3718 H 0.66326 0.42566 0.34651 0.0
H3719 H 0.65448 0.43229 0.32146 0.0
C3720 C 0.14928 0.93296 0.92862 0.0
C3721 C 0.15326 0.93344 0.92068 0.0
C3722 C 0.14118 0.94121 0.91496 0.0
C3723 C 0.14927 0.93755 0.91393 0.0
C3724 C 0.13731 0.94091 0.92301 0.0
C3725 C 0.14134 0.9368 0.92978 0.0
U3726 U 0.16529 0.91658 0.93565 0.0
O3727 O 0.17338 0.91559 0.94696 0.0
O3728 O 0.16394 0.90568 0.94427 0.0
C3729 C 0.16946 0.90875 0.94972 0.0
C3730 C 0.15313 0.92796 0.93548 0.0
C3731 C 0.16667 0.90888 0.95863 0.0
C3732 C 0.16235 0.91645 0.97135 0.0
C3733 C 0.16488 0.91653 0.96285 0.0
C3734 C 0.16319 0.9011 0.97146 0.0
C3735 C 0.16148 0.90874 0.97574 0.0
C3736 C 0.16579 0.90118 0.96299 0.0
C3737 C 0.17988 0.90678 0.91894 0.0
C3738 C 0.1861 0.89265 0.91875 0.0
C3739 C 0.19251 0.90397 0.91055 0.0
C3740 C 0.18628 0.90959 0.91343 0.0
C3741 C 0.19241 0.89541 0.91307 0.0
C3742 C 0.17992 0.8983 0.9217 0.0
C3743 C 0.17314 0.91274 0.9215 0.0
O3744 O 0.15171 0.91976 0.93497 0.0
O3745 O 0.16107 0.9298 0.93729 0.0
O3746 O 0.17553 0.91902 0.92644 0.0
O3747 O 0.16587 0.90933 0.92377 0.0
H3748 H 0.15939 0.93048 0.91966 0.0
H3749 H 0.15248 0.93779 0.90786 0.0
H3750 H 0.13106 0.94359 0.924 0.0
H3751 H 0.13815 0.93642 0.93587 0.0
H3752 H 0.16098 0.92242 0.97447 0.0
H3753 H 0.16543 0.92255 0.95959 0.0
H3754 H 0.16263 0.89507 0.97471 0.0
H3755 H 0.16714 0.89522 0.95984 0.0
H3756 H 0.18591 0.88611 0.92085 0.0
H3757 H 0.19722 0.90625 0.9061 0.0
H3758 H 0.18638 0.9161 0.91124 0.0
H3759 H 0.1751 0.89599 0.92602 0.0
C3760 C 0.31802 0.89897 0.18002 0.0
C3761 C 0.31741 0.9029 0.17206 0.0
C3762 C 0.30998 0.89059 0.1664 0.0
C3763 C 0.31341 0.89876 0.16532 0.0
C3764 C 0.31042 0.88676 0.17446 0.0
C3765 C 0.31443 0.89092 0.18121 0.0
U3766 U 0.33311 0.91617 0.18685 0.0
O3767 O 0.33348 0.92432 0.19819 0.0
O3768 O 0.34423 0.91594 0.19526 0.0
C3769 C 0.34074 0.92114 0.20078 0.0
C3770 C 0.32281 0.9031 0.18687 0.0
C3771 C 0.3409 0.91827 0.20964 0.0
C3772 C 0.33854 0.90739 0.22028 0.0
C3773 C 0.3383 0.91004 0.21182 0.0
C3774 C 0.34384 0.92122 0.22446 0.0
C3775 C 0.34131 0.91296 0.22669 0.0
C3776 C 0.34365 0.92384 0.21599 0.0
C3777 C 0.34102 0.93141 0.16955 0.0
C3778 C 0.35455 0.93874 0.16822 0.0
C3779 C 0.34233 0.94363 0.16027 0.0
C3780 C 0.3374 0.93721 0.16387 0.0
C3781 C 0.35102 0.94434 0.16223 0.0
C3782 C 0.34959 0.93234 0.17187 0.0
C3783 C 0.33585 0.92422 0.17256 0.0
O3784 O 0.33109 0.90238 0.18622 0.0
O3785 O 0.32034 0.91083 0.18879 0.0
O3786 O 0.32954 0.92612 0.17768 0.0
O3787 O 0.34002 0.91736 0.17483 0.0
H3788 H 0.32017 0.90912 0.17102 0.0
H3789 H 0.31307 0.90195 0.15924 0.0
H3790 H 0.3079 0.88045 0.17547 0.0
H3791 H 0.31489 0.88779 0.18731 0.0
H3792 H 0.33646 0.90102 0.22182 0.0
H3793 H 0.3361 0.90568 0.20698 0.0
H3794 H 0.34607 0.92562 0.22924 0.0
H3795 H 0.34566 0.93022 0.2144 0.0
H3796 H 0.36122 0.93907 0.16983 0.0
H3797 H 0.33936 0.94794 0.15582 0.0
H3798 H 0.33079 0.93664 0.16205 0.0
H3799 H 0.35252 0.92798 0.1763 0.0
C3800 C 0.18502 0.10128 0.68099 0.0
C3801 C 0.18515 0.09776 0.67283 0.0
C3802 C 0.19309 0.10992 0.66758 0.0
C3803 C 0.18916 0.10202 0.66619 0.0
C3804 C 0.19317 0.11331 0.67584 0.0
C3805 C 0.18912 0.10903 0.6825 0.0
U3806 U 0.16971 0.08413 0.68732 0.0
O3807 O 0.16906 0.07578 0.69849 0.0
O3808 O 0.15845 0.08433 0.69553 0.0
C3809 C 0.16178 0.07898 0.70101 0.0
C3810 C 0.18016 0.09709 0.68775 0.0
C3811 C 0.16147 0.08167 0.70991 0.0
C3812 C 0.1639 0.09225 0.72085 0.0
C3813 C 0.16432 0.08975 0.71235 0.0
C3814 C 0.15789 0.07858 0.72456 0.0
C3815 C 0.16068 0.08668 0.72705 0.0
C3816 C 0.15827 0.0761 0.71605 0.0
C3817 C 0.16181 0.06939 0.66963 0.0
C3818 C 0.14828 0.06202 0.66856 0.0
C3819 C 0.16013 0.05767 0.65978 0.0
C3820 C 0.16519 0.06394 0.66348 0.0
C3821 C 0.15156 0.05676 0.66212 0.0
C3822 C 0.15337 0.06826 0.6723 0.0
C3823 C 0.16707 0.07643 0.67282 0.0
O3824 O 0.17188 0.09791 0.68705 0.0
O3825 O 0.18252 0.08928 0.68951 0.0
O3826 O 0.17326 0.07432 0.678 0.0
O3827 O 0.16297 0.0833 0.67517 0.0
H3828 H 0.182 0.09178 0.67155 0.0
H3829 H 0.18911 0.09918 0.65993 0.0
H3830 H 0.19609 0.11941 0.67709 0.0
H3831 H 0.18904 0.11185 0.68877 0.0
H3832 H 0.16619 0.09849 0.7226 0.0
H3833 H 0.16687 0.0941 0.70768 0.0
H3834 H 0.1553 0.07419 0.72917 0.0
H3835 H 0.15605 0.06985 0.71426 0.0
H3836 H 0.1417 0.06155 0.67047 0.0
H3837 H 0.16292 0.05362 0.65497 0.0
H3838 H 0.1717 0.06466 0.66139 0.0
H3839 H 0.15064 0.07236 0.6771 0.0
O3840 O 0.09706 0.21597 0.35602 0.0
Cd3841 Cd 0.10372 0.22389 0.3445 0.0
O3842 O 0.10953 0.21609 0.36212 0.0
Cd3843 Cd 0.11936 0.21229 0.37117 0.0
O3844 O 0.13043 0.20761 0.3781 0.0
C3845 C 0.13116 0.19967 0.37923 0.0
O3846 O 0.12515 0.19463 0.37638 0.0
C3847 C 0.10175 0.2139 0.36224 0.0
C3848 C 0.09818 0.24064 0.34393 0.0
O3849 O 0.09458 0.2349 0.33942 0.0
O3850 O 0.10439 0.23845 0.3487 0.0
O3851 O 0.03548 0.84901 0.60754 0.0
Cd3852 Cd 0.02786 0.85572 0.59583 0.0
O3853 O 0.03667 0.86172 0.61301 0.0
Cd3854 Cd 0.04027 0.87134 0.62238 0.0
O3855 O 0.04509 0.88195 0.62989 0.0
C3856 C 0.04725 0.88867 0.62599 0.0
O3857 O 0.0464 0.88895 0.6177 0.0
C3858 C 0.03821 0.8538 0.61342 0.0
C3859 C 0.01117 0.85004 0.59466 0.0
O3860 O 0.01709 0.84651 0.59034 0.0
O3861 O 0.01316 0.85625 0.59953 0.0
O3862 O 0.40227 0.78577 0.8555 0.0
Cd3863 Cd 0.39558 0.77777 0.84405 0.0
O3864 O 0.38982 0.78579 0.86162 0.0
Cd3865 Cd 0.37997 0.78963 0.87062 0.0
O3866 O 0.3687 0.79416 0.87732 0.0
C3867 C 0.36892 0.80133 0.881 0.0
O3868 O 0.37601 0.80572 0.88088 0.0
C3869 C 0.39761 0.78793 0.86171 0.0
C3870 C 0.40166 0.76122 0.8433 0.0
O3871 O 0.40498 0.76709 0.83876 0.0
O3872 O 0.39546 0.76319 0.84818 0.0
O3873 O 0.46491 0.15286 0.10727 0.0
Cd3874 Cd 0.4718 0.14727 0.09457 0.0
O3875 O 0.46403 0.13998 0.1124 0.0
Cd3876 Cd 0.4609 0.13009 0.12167 0.0
O3877 O 0.45646 0.11935 0.12925 0.0
C3878 C 0.45423 0.11263 0.12539 0.0
O3879 O 0.4548 0.11239 0.11708 0.0
C3880 C 0.46254 0.14788 0.11315 0.0
C3881 C 0.4887 0.15233 0.09355 0.0
O3882 O 0.48275 0.15694 0.09047 0.0
O3883 O 0.48664 0.14531 0.09711 0.0
O3884 O 0.09943 0.78496 0.145 0.0
Cd3885 Cd 0.10614 0.77677 0.15631 0.0
O3886 O 0.11196 0.78538 0.13905 0.0
Cd3887 Cd 0.12185 0.78961 0.13027 0.0
O3888 O 0.13316 0.79425 0.12372 0.0
C3889 C 0.13289 0.80127 0.11976 0.0
O3890 O 0.1257 0.80549 0.11951 0.0
C3891 C 0.10413 0.78738 0.13892 0.0
C3892 C 0.10001 0.76022 0.15703 0.0
O3893 O 0.09675 0.76609 0.16162 0.0
O3894 O 0.10616 0.7622 0.15209 0.0
O3895 O 0.46584 0.84761 0.39668 0.0
Cd3896 Cd 0.47342 0.85413 0.40851 0.0
O3897 O 0.46621 0.86011 0.39068 0.0
Cd3898 Cd 0.4627 0.87001 0.3816 0.0
O3899 O 0.45817 0.88104 0.37458 0.0
C3900 C 0.45065 0.88099 0.37167 0.0
O3901 O 0.44594 0.8742 0.37278 0.0
C3902 C 0.46398 0.85236 0.39043 0.0
C3903 C 0.49047 0.84951 0.40876 0.0
O3904 O 0.48495 0.84537 0.41306 0.0
O3905 O 0.48791 0.85584 0.40434 0.0
O3906 O 0.40251 0.2154 0.64591 0.0
Cd3907 Cd 0.39608 0.22349 0.65744 0.0
O3908 O 0.38994 0.21513 0.64003 0.0
Cd3909 Cd 0.38 0.21105 0.6312 0.0
O3910 O 0.36885 0.20636 0.62441 0.0
C3911 C 0.36909 0.19907 0.62098 0.0
O3912 O 0.37615 0.19464 0.62142 0.0
C3913 C 0.39776 0.2131 0.63981 0.0
C3914 C 0.40198 0.24013 0.65783 0.0
O3915 O 0.4055 0.23436 0.66235 0.0
O3916 O 0.39567 0.23802 0.65314 0.0
O3917 O 0.03681 0.15425 0.89673 0.0
Cd3918 Cd 0.02958 0.1487 0.90926 0.0
O3919 O 0.0367 0.14149 0.89125 0.0
Cd3920 Cd 0.04034 0.13131 0.88253 0.0
O3921 O 0.04459 0.11995 0.87581 0.0
C3922 C 0.051 0.12029 0.87094 0.0
O3923 O 0.05486 0.1276 0.86985 0.0
C3924 C 0.03875 0.14929 0.89068 0.0
C3925 C 0.01252 0.15328 0.90974 0.0
O3926 O 0.01825 0.15809 0.91294 0.0
O3927 O 0.01488 0.1463 0.90629 0.0
O3928 O 0.35696 0.09871 0.21533 0.0
Cd3929 Cd 0.34552 0.10499 0.22368 0.0
O3930 O 0.36256 0.1114 0.21505 0.0
Cd3931 Cd 0.37102 0.12163 0.21101 0.0
O3932 O 0.3773 0.13323 0.20675 0.0
C3933 C 0.3819 0.13311 0.20014 0.0
O3934 O 0.38295 0.1259 0.19608 0.0
C3935 C 0.3629 0.10361 0.21293 0.0
C3936 C 0.34503 0.09864 0.24016 0.0
O3937 O 0.3405 0.09533 0.23427 0.0
O3938 O 0.3498 0.10495 0.23824 0.0
O3939 O 0.15249 0.10388 0.46545 0.0
Cd3940 Cd 0.14657 0.09204 0.47348 0.0
O3941 O 0.13973 0.10937 0.46551 0.0
Cd3942 Cd 0.12956 0.11802 0.46168 0.0
O3943 O 0.11843 0.12491 0.4571 0.0
C3944 C 0.1189 0.12918 0.45028 0.0
O3945 O 0.12619 0.12953 0.44623 0.0
C3946 C 0.1475 0.10986 0.46335 0.0
C3947 C 0.15226 0.09209 0.4902 0.0
O3948 O 0.15609 0.08772 0.48451 0.0
O3949 O 0.14574 0.09641 0.48797 0.0
O3950 O 0.14456 0.90265 0.71561 0.0
Cd3951 Cd 0.15658 0.89636 0.72311 0.0
O3952 O 0.13998 0.88967 0.71396 0.0
Cd3953 Cd 0.13152 0.87932 0.71015 0.0
O3954 O 0.1251 0.86776 0.70596 0.0
C3955 C 0.12069 0.86785 0.69922 0.0
O3956 O 0.11993 0.875 0.69499 0.0
C3957 C 0.13903 0.89759 0.71266 0.0
C3958 C 0.15744 0.90145 0.74001 0.0
O3959 O 0.16154 0.90545 0.73423 0.0
O3960 O 0.15292 0.89507 0.73778 0.0
O3961 O 0.34966 0.89642 0.96498 0.0
Cd3962 Cd 0.35623 0.90801 0.97287 0.0
O3963 O 0.36218 0.89042 0.9649 0.0
Cd3964 Cd 0.37208 0.88147 0.96105 0.0
O3965 O 0.38337 0.8748 0.95654 0.0
C3966 C 0.3831 0.87087 0.94951 0.0
O3967 O 0.37594 0.87073 0.94523 0.0
C3968 C 0.35437 0.89024 0.96283 0.0
C3969 C 0.35082 0.90824 0.98967 0.0
O3970 O 0.34707 0.91273 0.98402 0.0
O3971 O 0.35714 0.90367 0.98737 0.0
O3972 O 0.35537 0.90271 0.28605 0.0
Cd3973 Cd 0.34301 0.897 0.27865 0.0
O3974 O 0.36086 0.88996 0.28632 0.0
Cd3975 Cd 0.36955 0.87985 0.29027 0.0
O3976 O 0.37632 0.86861 0.29475 0.0
C3977 C 0.38047 0.86894 0.30166 0.0
O3978 O 0.38076 0.87614 0.30585 0.0
C3979 C 0.36139 0.8978 0.2882 0.0
C3980 C 0.34246 0.90215 0.26176 0.0
O3981 O 0.3391 0.90667 0.26763 0.0
O3982 O 0.34608 0.89519 0.26389 0.0
O3983 O 0.34977 0.10692 0.53209 0.0
Cd3984 Cd 0.35618 0.09575 0.52347 0.0
O3985 O 0.36248 0.11239 0.53316 0.0
Cd3986 Cd 0.37251 0.12067 0.53808 0.0
O3987 O 0.38373 0.12706 0.54319 0.0
C3988 C 0.38344 0.13034 0.55054 0.0
O3989 O 0.37631 0.12998 0.55485 0.0
C3990 C 0.35461 0.1127 0.53495 0.0
C3991 C 0.34976 0.09541 0.50701 0.0
O3992 O 0.34655 0.09072 0.51283 0.0
O3993 O 0.35598 0.10027 0.50899 0.0
O3994 O 0.14501 0.09675 0.78616 0.0
Cd3995 Cd 0.1579 0.10183 0.77921 0.0
O3996 O 0.14085 0.10993 0.78744 0.0
Cd3997 Cd 0.13251 0.12052 0.79088 0.0
O3998 O 0.12595 0.132 0.79512 0.0
C3999 C 0.12111 0.1317 0.80156 0.0
O4000 O 0.12001 0.1244 0.80544 0.0
C4001 C 0.13956 0.10207 0.78877 0.0
C4002 C 0.15873 0.09691 0.76226 0.0
O4003 O 0.16164 0.09213 0.76816 0.0
O4004 O 0.15542 0.10403 0.76439 0.0
O4005 O 0.15281 0.8957 0.0355 0.0
Cd4006 Cd 0.14654 0.90771 0.02799 0.0
O4007 O 0.13985 0.89096 0.03699 0.0
Cd4008 Cd 0.1296 0.88233 0.0407 0.0
O4009 O 0.11825 0.87569 0.04514 0.0
C4010 C 0.11856 0.87141 0.05197 0.0
O4011 O 0.12579 0.87092 0.0561 0.0
C4012 C 0.14777 0.89009 0.03835 0.0
C4013 C 0.15136 0.90811 0.011 0.0
O4014 O 0.15552 0.91227 0.01663 0.0
O4015 O 0.14492 0.90377 0.01343 0.0
O4016 O 0.21586 0.35581 0.09856 0.0
Cd4017 Cd 0.22331 0.34365 0.1046 0.0
O4018 O 0.21451 0.36039 0.11159 0.0
Cd4019 Cd 0.2109 0.36903 0.12186 0.0
O4020 O 0.20654 0.37587 0.13311 0.0
C4021 C 0.19967 0.38009 0.13279 0.0
O4022 O 0.19545 0.3804 0.12561 0.0
C4023 C 0.21309 0.36137 0.1037 0.0
C4024 C 0.24028 0.34319 0.09973 0.0
O4025 O 0.23462 0.33914 0.09553 0.0
O4026 O 0.23791 0.34746 0.10624 0.0
O4027 O 0.71521 0.14486 0.9033 0.0
Cd4028 Cd 0.72225 0.15712 0.89697 0.0
O4029 O 0.71518 0.13862 0.89088 0.0
Cd4030 Cd 0.71131 0.12918 0.88142 0.0
O4031 O 0.7065 0.12172 0.87075 0.0
C4032 C 0.7046 0.12565 0.86396 0.0
O4033 O 0.7057 0.13391 0.86366 0.0
C4034 C 0.71327 0.13851 0.89873 0.0
C4035 C 0.73922 0.1582 0.9018 0.0
O4036 O 0.73336 0.16161 0.90629 0.0
O4037 O 0.73705 0.15428 0.89501 0.0
O4038 O 0.10661 0.46668 0.15355 0.0
Cd4039 Cd 0.09382 0.4738 0.14843 0.0
O4040 O 0.11072 0.46489 0.1404 0.0
Cd4041 Cd 0.11899 0.46095 0.12992 0.0
O4042 O 0.1256 0.4565 0.11854 0.0
C4043 C 0.13041 0.45004 0.11894 0.0
O4044 O 0.13146 0.44624 0.12629 0.0
C4045 C 0.11199 0.46376 0.1483 0.0
C4046 C 0.09315 0.49081 0.1532 0.0
O4047 O 0.09023 0.48498 0.15806 0.0
O4048 O 0.09642 0.48858 0.14609 0.0
O4049 O 0.78603 0.8558 0.40364 0.0
Cd4050 Cd 0.77847 0.84413 0.3968 0.0
O4051 O 0.78604 0.86188 0.39118 0.0
Cd4052 Cd 0.78985 0.87093 0.38136 0.0
O4053 O 0.79441 0.87767 0.37014 0.0
C4054 C 0.80204 0.88029 0.36999 0.0
O4055 O 0.80686 0.87908 0.37668 0.0
C4056 C 0.7881 0.86205 0.39899 0.0
C4057 C 0.7615 0.84339 0.40167 0.0
O4058 O 0.76717 0.83903 0.40556 0.0
O4059 O 0.76388 0.8481 0.39548 0.0
O4060 O 0.89511 0.03519 0.15355 0.0
Cd4061 Cd 0.908 0.02825 0.14847 0.0
O4062 O 0.89106 0.03673 0.14035 0.0
Cd4063 Cd 0.8828 0.0404 0.12977 0.0
O4064 O 0.87627 0.04478 0.11833 0.0
C4065 C 0.87166 0.05139 0.11864 0.0
O4066 O 0.87077 0.05535 0.12593 0.0
C4067 C 0.88971 0.03793 0.14823 0.0
C4068 C 0.90887 0.01133 0.15348 0.0
O4069 O 0.91177 0.01726 0.15823 0.0
O4070 O 0.90554 0.01341 0.14636 0.0
O4071 O 0.28651 0.64638 0.59853 0.0
Cd4072 Cd 0.27902 0.6585 0.60457 0.0
O4073 O 0.28772 0.64165 0.61152 0.0
Cd4074 Cd 0.29116 0.63286 0.62172 0.0
O4075 O 0.29543 0.62594 0.63296 0.0
C4076 C 0.30224 0.62164 0.63264 0.0
O4077 O 0.30648 0.6213 0.62547 0.0
C4078 C 0.28918 0.64074 0.60363 0.0
C4079 C 0.2621 0.65878 0.59949 0.0
O4080 O 0.26776 0.66292 0.59538 0.0
O4081 O 0.26445 0.65454 0.60602 0.0
O4082 O 0.10666 0.53478 0.3486 0.0
Cd4083 Cd 0.09498 0.52691 0.35507 0.0
O4084 O 0.1122 0.5352 0.36131 0.0
Cd4085 Cd 0.12066 0.53933 0.37151 0.0
O4086 O 0.12695 0.54377 0.38304 0.0
C4087 C 0.1314 0.55049 0.38284 0.0
O4088 O 0.1323 0.55453 0.3756 0.0
C4089 C 0.11263 0.53716 0.35349 0.0
C4090 C 0.09417 0.51012 0.34963 0.0
O4091 O 0.08987 0.51593 0.3459 0.0
O4092 O 0.09889 0.51227 0.3559 0.0
O4093 O 0.39457 0.4659 0.84862 0.0
Cd4094 Cd 0.4061 0.4739 0.85519 0.0
O4095 O 0.38892 0.4655 0.86128 0.0
Cd4096 Cd 0.38042 0.46138 0.87145 0.0
O4097 O 0.37423 0.457 0.88305 0.0
C4098 C 0.36991 0.4502 0.88296 0.0
O4099 O 0.36908 0.44604 0.87578 0.0
C4100 C 0.38857 0.46351 0.85346 0.0
C4101 C 0.40663 0.49068 0.8497 0.0
O4102 O 0.41108 0.48494 0.84604 0.0
O4103 O 0.40191 0.48847 0.85594 0.0
O4104 O 0.89694 0.78113 0.62916 0.0
Cd4105 Cd 0.8885 0.77229 0.63878 0.0
O4106 O 0.88618 0.78996 0.62791 0.0
Cd4107 Cd 0.87581 0.78324 0.63414 0.0
O4108 O 0.86298 0.78699 0.63032 0.0
C4109 C 0.86274 0.79468 0.62789 0.0
O4110 O 0.86969 0.79926 0.62852 0.0
C4111 C 0.89384 0.78801 0.6263 0.0
C4112 C 0.8956 0.75639 0.64211 0.0
O4113 O 0.89018 0.75741 0.63613 0.0
O4114 O 0.89775 0.76292 0.64646 0.0
O4115 O 0.97186 0.14257 0.37547 0.0
Cd4116 Cd 0.98033 0.13305 0.38438 0.0
O4117 O 0.96028 0.13972 0.3827 0.0
Cd4118 Cd 0.96521 0.12766 0.38738 0.0
O4119 O 0.96196 0.11495 0.38281 0.0
C4120 C 0.956 0.11521 0.37738 0.0
O4121 O 0.95273 0.12263 0.37543 0.0
C4122 C 0.9641 0.14409 0.3771 0.0
C4123 C 0.99583 0.14035 0.38903 0.0
O4124 O 0.99525 0.13548 0.38254 0.0
O4125 O 0.98908 0.14177 0.39334 0.0
O4126 O 0.60914 0.22186 0.12516 0.0
Cd4127 Cd 0.61925 0.23101 0.13262 0.0
O4128 O 0.61273 0.21051 0.13243 0.0
Cd4129 Cd 0.62483 0.21587 0.13654 0.0
O4130 O 0.63755 0.2124 0.13215 0.0
C4131 C 0.63742 0.20553 0.12791 0.0
O4132 O 0.63013 0.20158 0.12698 0.0
C4133 C 0.60791 0.21411 0.12706 0.0
C4134 C 0.61175 0.2464 0.13729 0.0
O4135 O 0.61529 0.24545 0.13002 0.0
O4136 O 0.61179 0.24007 0.14239 0.0
O4137 O 0.52927 0.85749 0.87422 0.0
Cd4138 Cd 0.51973 0.86772 0.88101 0.0
O4139 O 0.54084 0.8636 0.87912 0.0
Cd4140 Cd 0.53466 0.87554 0.88244 0.0
O4141 O 0.53652 0.88851 0.87789 0.0
C4142 C 0.5426 0.89285 0.88095 0.0
O4143 O 0.54695 0.88972 0.88734 0.0
C4144 C 0.53729 0.85753 0.87517 0.0
C4145 C 0.50437 0.86017 0.88574 0.0
O4146 O 0.50542 0.86335 0.87833 0.0
O4147 O 0.51059 0.86058 0.89097 0.0
O4148 O 0.89297 0.2221 0.87617 0.0
Cd4149 Cd 0.88292 0.23131 0.86869 0.0
O4150 O 0.88908 0.21071 0.86911 0.0
Cd4151 Cd 0.87696 0.2161 0.86514 0.0
O4152 O 0.86438 0.21227 0.86964 0.0
C4153 C 0.86466 0.20531 0.8737 0.0
O4154 O 0.87202 0.20144 0.87445 0.0
C4155 C 0.89404 0.21431 0.87435 0.0
C4156 C 0.89039 0.24679 0.86426 0.0
O4157 O 0.88678 0.24575 0.87148 0.0
O4158 O 0.89045 0.24051 0.85909 0.0
O4159 O 0.53139 0.1444 0.62267 0.0
Cd4160 Cd 0.52134 0.1351 0.61527 0.0
O4161 O 0.54193 0.13546 0.62063 0.0
Cd4162 Cd 0.53469 0.12453 0.61619 0.0
O4163 O 0.53657 0.11142 0.62029 0.0
C4164 C 0.53607 0.11021 0.62825 0.0
O4165 O 0.53367 0.11655 0.63311 0.0
C4166 C 0.53922 0.14256 0.62334 0.0
C4167 C 0.50588 0.14303 0.61163 0.0
O4168 O 0.50714 0.13928 0.61873 0.0
O4169 O 0.51195 0.14308 0.60622 0.0
O4170 O 0.60886 0.7788 0.37598 0.0
Cd4171 Cd 0.6188 0.76947 0.3685 0.0
O4172 O 0.61261 0.79006 0.36865 0.0
Cd4173 Cd 0.62468 0.78451 0.36477 0.0
O4174 O 0.6372 0.78781 0.36982 0.0
C4175 C 0.63671 0.79369 0.37533 0.0
O4176 O 0.62919 0.79681 0.37715 0.0
C4177 C 0.60774 0.78655 0.37405 0.0
C4178 C 0.6112 0.75403 0.36415 0.0
O4179 O 0.61485 0.75507 0.37135 0.0
O4180 O 0.61115 0.76029 0.35897 0.0
O4181 O 0.97238 0.85835 0.12585 0.0
Cd4182 Cd 0.98175 0.8683 0.11845 0.0
O4183 O 0.96103 0.8624 0.1188 0.0
Cd4184 Cd 0.96663 0.87443 0.11483 0.0
O4185 O 0.96317 0.88708 0.11943 0.0
C4186 C 0.95658 0.88682 0.12408 0.0
O4187 O 0.95288 0.87944 0.1253 0.0
C4188 C 0.96457 0.85739 0.12404 0.0
C4189 C 0.99719 0.86068 0.11413 0.0
O4190 O 0.99613 0.86427 0.12134 0.0
O4191 O 0.99095 0.86071 0.1089 0.0
O4192 O 0.62661 0.89439 0.78049 0.0
Cd4193 Cd 0.63371 0.88502 0.7703 0.0
O4194 O 0.63101 0.88671 0.79129 0.0
Cd4195 Cd 0.63487 0.87548 0.78417 0.0
O4196 O 0.63014 0.86282 0.78738 0.0
C4197 C 0.62586 0.86297 0.79423 0.0
O4198 O 0.62505 0.87024 0.79824 0.0
C4199 C 0.62722 0.89324 0.78846 0.0
C4200 C 0.63786 0.89311 0.75505 0.0
O4201 O 0.63057 0.88966 0.75617 0.0
O4202 O 0.6432 0.8928 0.76118 0.0
O4203 O 0.85918 0.87481 0.52889 0.0
Cd4204 Cd 0.86874 0.88362 0.52036 0.0
O4205 O 0.86258 0.88171 0.54054 0.0
Cd4206 Cd 0.87461 0.88634 0.53546 0.0
O4207 O 0.88738 0.88211 0.53895 0.0
C4208 C 0.88735 0.87804 0.54592 0.0
O4209 O 0.88011 0.87722 0.54999 0.0
C4210 C 0.85794 0.87632 0.53672 0.0
C4211 C 0.8614 0.88838 0.50491 0.0
O4212 O 0.86619 0.88182 0.50546 0.0
O4213 O 0.86007 0.8927 0.51168 0.0
O4214 O 0.87291 0.10488 0.28081 0.0
Cd4215 Cd 0.86331 0.11328 0.27191 0.0
O4216 O 0.8736 0.11541 0.28995 0.0
Cd4217 Cd 0.86739 0.12578 0.28322 0.0
O4218 O 0.87113 0.13861 0.287 0.0
C4219 C 0.87351 0.13887 0.29471 0.0
O4220 O 0.87289 0.13192 0.29928 0.0
C4221 C 0.87547 0.10786 0.28785 0.0
C4222 C 0.8598 0.10599 0.25613 0.0
O4223 O 0.86585 0.11136 0.25703 0.0
O4224 O 0.85547 0.10398 0.26271 0.0
O4225 O 0.64633 0.12154 0.03204 0.0
Cd4226 Cd 0.63815 0.11131 0.02365 0.0
O4227 O 0.63495 0.12491 0.03942 0.0
Cd4228 Cd 0.62478 0.11775 0.03336 0.0
O4229 O 0.61193 0.12061 0.03778 0.0
C4230 C 0.61173 0.12229 0.04567 0.0
O4231 O 0.61876 0.12146 0.05009 0.0
C4232 C 0.64285 0.12572 0.03799 0.0
C4233 C 0.64516 0.10797 0.0077 0.0
O4234 O 0.6395 0.11373 0.00868 0.0
O4235 O 0.64757 0.10383 0.01428 0.0
O4236 O 0.62751 0.10676 0.72027 0.0
Cd4237 Cd 0.6361 0.11574 0.72964 0.0
O4238 O 0.63144 0.11432 0.70922 0.0
Cd4239 Cd 0.6359 0.12553 0.71604 0.0
O4240 O 0.63111 0.13822 0.71299 0.0
C4241 C 0.62657 0.13805 0.70631 0.0
O4242 O 0.6256 0.13077 0.70236 0.0
C4243 C 0.62764 0.1079 0.71228 0.0
C4244 C 0.63998 0.10814 0.74519 0.0
O4245 O 0.63351 0.11302 0.74439 0.0
O4246 O 0.64457 0.10677 0.73862 0.0
O4247 O 0.64317 0.87468 0.47232 0.0
Cd4248 Cd 0.63362 0.88355 0.48081 0.0
O4249 O 0.64031 0.88197 0.46078 0.0
Cd4250 Cd 0.62818 0.88652 0.46569 0.0
O4251 O 0.61562 0.88184 0.46205 0.0
C4252 C 0.61605 0.87668 0.45586 0.0
O4253 O 0.62355 0.87502 0.4526 0.0
C4254 C 0.64469 0.87636 0.46458 0.0
C4255 C 0.64092 0.88832 0.49627 0.0
O4256 O 0.63612 0.88177 0.49572 0.0
O4257 O 0.64229 0.89262 0.4895 0.0
O4258 O 0.872 0.89668 0.21998 0.0
Cd4259 Cd 0.8615 0.88871 0.22824 0.0
O4260 O 0.87664 0.88498 0.21388 0.0
Cd4261 Cd 0.86921 0.87487 0.2197 0.0
O4262 O 0.87196 0.86208 0.21505 0.0
C4263 C 0.87384 0.86204 0.2072 0.0
O4264 O 0.87326 0.86919 0.20295 0.0
C4265 C 0.87692 0.89299 0.21475 0.0
C4266 C 0.85821 0.8957 0.24421 0.0
O4267 O 0.86385 0.88992 0.24323 0.0
O4268 O 0.85418 0.89825 0.23762 0.0
O4269 O 0.85822 0.12647 0.97258 0.0
Cd4270 Cd 0.86832 0.11903 0.98177 0.0
O4271 O 0.86232 0.11963 0.96113 0.0
Cd4272 Cd 0.87443 0.11563 0.96653 0.0
O4273 O 0.88706 0.11987 0.96259 0.0
C4274 C 0.88696 0.12317 0.95523 0.0
O4275 O 0.87974 0.12331 0.95104 0.0
C4276 C 0.85725 0.12475 0.96476 0.0
C4277 C 0.86086 0.11437 0.9972 0.0
O4278 O 0.86438 0.12164 0.99622 0.0
O4279 O 0.86089 0.10925 0.99088 0.0
O4280 O 0.78386 0.63222 0.89526 0.0
Cd4281 Cd 0.77541 0.64163 0.8862 0.0
O4282 O 0.78114 0.6212 0.88713 0.0
Cd4283 Cd 0.77671 0.62816 0.87602 0.0
O4284 O 0.78125 0.62611 0.86306 0.0
C4285 C 0.78162 0.61833 0.86096 0.0
O4286 O 0.77865 0.61263 0.86629 0.0
C4287 C 0.78433 0.62429 0.89387 0.0
C4288 C 0.75915 0.64427 0.89284 0.0
O4289 O 0.76073 0.63798 0.88793 0.0
O4290 O 0.76525 0.64934 0.89461 0.0
O4291 O 0.2793 0.87575 0.10858 0.0
Cd4292 Cd 0.26997 0.86833 0.11855 0.0
O4293 O 0.29069 0.8688 0.11267 0.0
Cd4294 Cd 0.28517 0.86482 0.12473 0.0
O4295 O 0.28894 0.86927 0.13734 0.0
C4296 C 0.29581 0.8735 0.13707 0.0
O4297 O 0.2996 0.87442 0.1297 0.0
C4298 C 0.28712 0.87399 0.10763 0.0
C4299 C 0.25451 0.86399 0.11093 0.0
O4300 O 0.25558 0.87121 0.11454 0.0
O4301 O 0.26076 0.85878 0.11094 0.0
O4302 O 0.8803 0.53249 0.85491 0.0
Cd4303 Cd 0.89106 0.52428 0.86258 0.0
O4304 O 0.87495 0.53753 0.8668 0.0
Cd4305 Cd 0.8828 0.53179 0.87664 0.0
O4306 O 0.88058 0.53656 0.88948 0.0
C4307 C 0.87936 0.54454 0.88963 0.0
O4308 O 0.8803 0.54883 0.88255 0.0
C4309 C 0.87493 0.53712 0.85875 0.0
C4310 C 0.89397 0.50818 0.8557 0.0
O4311 O 0.88857 0.50929 0.86168 0.0
O4312 O 0.89795 0.51471 0.85291 0.0
O4313 O 0.22165 0.12784 0.60666 0.0
Cd4314 Cd 0.23197 0.1346 0.61613 0.0
O4315 O 0.21087 0.13188 0.61456 0.0
Cd4316 Cd 0.21792 0.13553 0.62591 0.0
O4317 O 0.21443 0.13096 0.63857 0.0
C4318 C 0.2071 0.12757 0.63854 0.0
O4319 O 0.20278 0.12752 0.6314 0.0
C4320 C 0.21368 0.12836 0.60787 0.0
C4321 C 0.24724 0.13852 0.60795 0.0
O4322 O 0.246 0.13123 0.61133 0.0
O4323 O 0.24123 0.14399 0.6084 0.0
O4324 O 0.1272 0.97286 0.85816 0.0
Cd4325 Cd 0.11842 0.98133 0.86781 0.0
O4326 O 0.12006 0.96127 0.86122 0.0
Cd4327 Cd 0.11548 0.96617 0.87333 0.0
O4328 O 0.11987 0.96229 0.88593 0.0
C4329 C 0.12419 0.95548 0.88561 0.0
O4330 O 0.12522 0.95177 0.87821 0.0
C4331 C 0.12557 0.96508 0.85673 0.0
C4332 C 0.11344 0.99677 0.86062 0.0
O4333 O 0.12009 0.99625 0.86528 0.0
O4334 O 0.10914 0.98998 0.85933 0.0
O4335 O 0.72273 0.37698 0.3937 0.0
Cd4336 Cd 0.73222 0.37017 0.38344 0.0
O4337 O 0.71113 0.3721 0.38761 0.0
Cd4338 Cd 0.71725 0.36875 0.37566 0.0
O4339 O 0.71541 0.37323 0.36266 0.0
C4340 C 0.70929 0.37019 0.35836 0.0
O4341 O 0.70488 0.36388 0.36155 0.0
C4342 C 0.7147 0.37604 0.39368 0.0
C4343 C 0.74764 0.36548 0.39089 0.0
O4344 O 0.74657 0.37288 0.3877 0.0
O4345 O 0.74142 0.36024 0.39055 0.0
O4346 O 0.87886 0.47079 0.64521 0.0
Cd4347 Cd 0.88783 0.47991 0.63637 0.0
O4348 O 0.88006 0.46047 0.63587 0.0
Cd4349 Cd 0.88542 0.46724 0.62506 0.0
O4350 O 0.88143 0.46362 0.61225 0.0
C4351 C 0.87857 0.45607 0.61209 0.0
O4352 O 0.87882 0.4516 0.61913 0.0
C4353 C 0.87747 0.46314 0.64303 0.0
C4354 C 0.8916 0.49557 0.6438 0.0
O4355 O 0.88527 0.49472 0.63875 0.0
O4356 O 0.8961 0.48899 0.64541 0.0
O4357 O 0.6221 0.53126 0.14608 0.0
Cd4358 Cd 0.61177 0.52286 0.13805 0.0
O4359 O 0.62709 0.53719 0.13444 0.0
Cd4360 Cd 0.61981 0.53125 0.12428 0.0
O4361 O 0.62233 0.53572 0.11138 0.0
C4362 C 0.62375 0.54366 0.11114 0.0
O4363 O 0.62287 0.54806 0.11817 0.0
C4364 C 0.62715 0.53641 0.14247 0.0
C4365 C 0.60872 0.50688 0.14512 0.0
O4366 O 0.61433 0.5079 0.13932 0.0
O4367 O 0.60459 0.51342 0.14763 0.0
O4368 O 0.5995 0.71376 0.85476 0.0
Cd4369 Cd 0.60634 0.72142 0.84317 0.0
O4370 O 0.61191 0.71372 0.86095 0.0
Cd4371 Cd 0.62173 0.71003 0.87007 0.0
O4372 O 0.63315 0.70584 0.87675 0.0
C4373 C 0.63318 0.69869 0.88048 0.0
O4374 O 0.62622 0.69409 0.88044 0.0
C4375 C 0.60409 0.71169 0.86105 0.0
C4376 C 0.60124 0.73831 0.84268 0.0
O4377 O 0.59744 0.73267 0.83821 0.0
O4378 O 0.60747 0.73595 0.84735 0.0
O4379 O 0.5369 0.34791 0.10647 0.0
Cd4380 Cd 0.52977 0.35424 0.09426 0.0
O4381 O 0.53683 0.36028 0.11279 0.0
Cd4382 Cd 0.54063 0.36971 0.12228 0.0
O4383 O 0.54539 0.38038 0.12978 0.0
C4384 C 0.54721 0.3872 0.12589 0.0
O4385 O 0.54606 0.38755 0.11763 0.0
C4386 C 0.53882 0.35246 0.11285 0.0
C4387 C 0.51279 0.34942 0.09331 0.0
O4388 O 0.51862 0.34492 0.08986 0.0
O4389 O 0.51499 0.35621 0.0972 0.0
O4390 O 0.90298 0.28649 0.35482 0.0
Cd4391 Cd 0.89614 0.27856 0.3434 0.0
O4392 O 0.89053 0.28679 0.36093 0.0
Cd4393 Cd 0.88068 0.2908 0.36988 0.0
O4394 O 0.86927 0.29518 0.37644 0.0
C4395 C 0.86949 0.30199 0.38074 0.0
O4396 O 0.87668 0.30617 0.38133 0.0
C4397 C 0.89836 0.28878 0.36101 0.0
C4398 C 0.90162 0.26178 0.34287 0.0
O4399 O 0.9052 0.26749 0.33832 0.0
O4400 O 0.89544 0.26402 0.34767 0.0
O4401 O 0.96581 0.65353 0.60514 0.0
Cd4402 Cd 0.97349 0.6472 0.59328 0.0
O4403 O 0.96581 0.64091 0.61089 0.0
Cd4404 Cd 0.96199 0.6309 0.61974 0.0
O4405 O 0.95753 0.6197 0.62658 0.0
C4406 C 0.95063 0.62003 0.63073 0.0
O4407 O 0.94641 0.62722 0.631 0.0
C4408 C 0.96373 0.6487 0.61126 0.0
C4409 C 0.99044 0.65218 0.59296 0.0
O4410 O 0.98481 0.65622 0.58869 0.0
O4411 O 0.98803 0.6458 0.59739 0.0
O4412 O 0.59958 0.28552 0.64469 0.0
Cd4413 Cd 0.60597 0.27749 0.65629 0.0
O4414 O 0.61217 0.28561 0.63886 0.0
Cd4415 Cd 0.62228 0.28945 0.63016 0.0
O4416 O 0.6337 0.29388 0.62367 0.0
C4417 C 0.63395 0.30148 0.62101 0.0
O4418 O 0.62725 0.30633 0.62206 0.0
C4419 C 0.60438 0.28774 0.6386 0.0
C4420 C 0.60014 0.26082 0.65678 0.0
O4421 O 0.59656 0.26663 0.66122 0.0
O4422 O 0.60647 0.26292 0.65212 0.0
O4423 O 0.96522 0.34819 0.89574 0.0
Cd4424 Cd 0.9728 0.35436 0.90777 0.0
O4425 O 0.96401 0.36114 0.8909 0.0
Cd4426 Cd 0.96054 0.37133 0.88211 0.0
O4427 O 0.95637 0.38268 0.87531 0.0
C4428 C 0.94962 0.38246 0.8709 0.0
O4429 O 0.94538 0.3753 0.87036 0.0
C4430 C 0.9625 0.35324 0.89008 0.0
C4431 C 0.9897 0.34921 0.90819 0.0
O4432 O 0.98399 0.34518 0.91237 0.0
O4433 O 0.98739 0.35568 0.90383 0.0
O4434 O 0.90332 0.71438 0.14641 0.0
Cd4435 Cd 0.89648 0.7223 0.15783 0.0
O4436 O 0.89092 0.71425 0.14018 0.0
Cd4437 Cd 0.88111 0.71041 0.13111 0.0
O4438 O 0.86978 0.70613 0.12435 0.0
C4439 C 0.86981 0.69891 0.12076 0.0
O4440 O 0.87676 0.6943 0.12103 0.0
C4441 C 0.89873 0.71218 0.14016 0.0
C4442 C 0.90164 0.73918 0.1581 0.0
O4443 O 0.9054 0.7336 0.16267 0.0
O4444 O 0.89544 0.73677 0.15342 0.0
O4445 O 0.53569 0.65253 0.39523 0.0
Cd4446 Cd 0.52791 0.64649 0.40718 0.0
O4447 O 0.53718 0.63955 0.39054 0.0
Cd4448 Cd 0.54094 0.62928 0.38195 0.0
O4449 O 0.54536 0.61798 0.37522 0.0
C4450 C 0.55255 0.61812 0.37156 0.0
O4451 O 0.55705 0.62514 0.37178 0.0
C4452 C 0.53858 0.64746 0.38967 0.0
C4453 C 0.51119 0.6522 0.40761 0.0
O4454 O 0.517 0.65599 0.41187 0.0
O4455 O 0.5133 0.64572 0.40318 0.0
O4456 O 0.85654 0.59679 0.7167 0.0
Cd4457 Cd 0.84377 0.6019 0.72385 0.0
O4458 O 0.86051 0.61 0.71509 0.0
Cd4459 Cd 0.86874 0.62054 0.71127 0.0
O4460 O 0.87542 0.63181 0.70668 0.0
C4461 C 0.8792 0.63156 0.69956 0.0
O4462 O 0.87912 0.62445 0.6952 0.0
C4463 C 0.86187 0.60213 0.71386 0.0
C4464 C 0.84349 0.59756 0.74097 0.0
O4465 O 0.84054 0.59252 0.73531 0.0
O4466 O 0.8466 0.60467 0.73852 0.0
O4467 O 0.65426 0.60536 0.96498 0.0
Cd4468 Cd 0.64759 0.59398 0.97309 0.0
O4469 O 0.64176 0.61139 0.96472 0.0
Cd4470 Cd 0.63186 0.62026 0.96068 0.0
O4471 O 0.62051 0.62687 0.95621 0.0
C4472 C 0.62024 0.6295 0.9486 0.0
O4473 O 0.6269 0.62838 0.9437 0.0
C4474 C 0.64957 0.6115 0.96266 0.0
C4475 C 0.65319 0.59366 0.98985 0.0
O4476 O 0.65676 0.58907 0.98416 0.0
O4477 O 0.64697 0.5984 0.98759 0.0
O4478 O 0.64418 0.40353 0.21591 0.0
Cd4479 Cd 0.6562 0.39766 0.22373 0.0
O4480 O 0.63992 0.39043 0.21435 0.0
Cd4481 Cd 0.6317 0.37989 0.21052 0.0
O4482 O 0.62546 0.36825 0.20628 0.0
C4483 C 0.62077 0.36838 0.19972 0.0
O4484 O 0.61964 0.3756 0.19572 0.0
C4485 C 0.63881 0.3983 0.21294 0.0
C4486 C 0.65668 0.40325 0.24048 0.0
O4487 O 0.66085 0.40712 0.23467 0.0
O4488 O 0.65226 0.39676 0.23835 0.0
O4489 O 0.85013 0.39543 0.46535 0.0
Cd4490 Cd 0.85683 0.40679 0.47344 0.0
O4491 O 0.86258 0.38932 0.46519 0.0
Cd4492 Cd 0.87243 0.38037 0.46122 0.0
O4493 O 0.88375 0.37377 0.45666 0.0
C4494 C 0.88371 0.37051 0.44929 0.0
O4495 O 0.87676 0.371 0.4447 0.0
C4496 C 0.85478 0.38924 0.4631 0.0
C4497 C 0.8508 0.4074 0.49002 0.0
O4498 O 0.84746 0.41199 0.48419 0.0
O4499 O 0.857 0.40254 0.48799 0.0
O4500 O 0.85628 0.40298 0.78577 0.0
Cd4501 Cd 0.84438 0.39684 0.77797 0.0
O4502 O 0.86106 0.39003 0.78724 0.0
Cd4503 Cd 0.86969 0.37978 0.79095 0.0
O4504 O 0.87626 0.36832 0.79521 0.0
C4505 C 0.88098 0.36858 0.80174 0.0
O4506 O 0.88198 0.37584 0.80571 0.0
C4507 C 0.86188 0.39794 0.78865 0.0
C4508 C 0.84368 0.40288 0.7614 0.0
O4509 O 0.83939 0.40644 0.76731 0.0
O4510 O 0.84829 0.39646 0.76333 0.0
O4511 O 0.8501 0.60639 0.03483 0.0
Cd4512 Cd 0.85623 0.59459 0.02692 0.0
O4513 O 0.86308 0.61101 0.03651 0.0
Cd4514 Cd 0.87333 0.61953 0.04046 0.0
O4515 O 0.88469 0.6261 0.04498 0.0
C4516 C 0.8845 0.63 0.05204 0.0
O4517 O 0.87738 0.63015 0.05637 0.0
C4518 C 0.85516 0.61189 0.03784 0.0
C4519 C 0.85011 0.59401 0.01036 0.0
O4520 O 0.84658 0.58966 0.01626 0.0
O4521 O 0.85653 0.59861 0.0123 0.0
O4522 O 0.6462 0.59953 0.28567 0.0
Cd4523 Cd 0.65774 0.60599 0.27764 0.0
O4524 O 0.64029 0.61208 0.28583 0.0
Cd4525 Cd 0.63142 0.62202 0.28975 0.0
O4526 O 0.62474 0.63333 0.29419 0.0
C4527 C 0.62004 0.63293 0.30073 0.0
O4528 O 0.61912 0.6256 0.30459 0.0
C4529 C 0.64007 0.60427 0.2879 0.0
C4530 C 0.65849 0.59968 0.26116 0.0
O4531 O 0.66299 0.5964 0.26709 0.0
O4532 O 0.65366 0.60595 0.26303 0.0
O4533 O 0.65153 0.39489 0.53719 0.0
Cd4534 Cd 0.64483 0.40668 0.52972 0.0
O4535 O 0.63892 0.38912 0.53795 0.0
Cd4536 Cd 0.62941 0.37946 0.54106 0.0
O4537 O 0.61876 0.37173 0.54544 0.0
C4538 C 0.61204 0.37554 0.54778 0.0
O4539 O 0.61179 0.38386 0.54735 0.0
C4540 C 0.64682 0.38882 0.53963 0.0
C4541 C 0.65032 0.40757 0.51297 0.0
O4542 O 0.654 0.41188 0.5188 0.0
O4543 O 0.64402 0.40287 0.51507 0.0
O4544 O 0.71564 0.85609 0.59867 0.0
Cd4545 Cd 0.72319 0.84415 0.60502 0.0
O4546 O 0.71419 0.86098 0.61158 0.0
Cd4547 Cd 0.71055 0.86968 0.6218 0.0
O4548 O 0.70621 0.87635 0.63317 0.0
C4549 C 0.69938 0.88063 0.63292 0.0
O4550 O 0.69518 0.88112 0.62574 0.0
C4551 C 0.71281 0.86176 0.60365 0.0
C4552 C 0.73997 0.84333 0.59956 0.0
O4553 O 0.73413 0.83912 0.59576 0.0
O4554 O 0.73786 0.84792 0.60593 0.0
O4555 O 0.21529 0.64407 0.40287 0.0
Cd4556 Cd 0.22269 0.6563 0.3969 0.0
O4557 O 0.21506 0.63798 0.39038 0.0
Cd4558 Cd 0.21096 0.62871 0.38084 0.0
O4559 O 0.20608 0.62123 0.3702 0.0
C4560 C 0.20397 0.62512 0.36346 0.0
O4561 O 0.20488 0.63341 0.36315 0.0
C4562 C 0.21316 0.63784 0.39823 0.0
C4563 C 0.23952 0.65713 0.40226 0.0
O4564 O 0.23356 0.66049 0.40665 0.0
O4565 O 0.2375 0.65337 0.39533 0.0
O4566 O 0.60571 0.96625 0.65286 0.0
Cd4567 Cd 0.59411 0.97415 0.64631 0.0
O4568 O 0.61162 0.96608 0.6403 0.0
Cd4569 Cd 0.62049 0.96208 0.6304 0.0
O4570 O 0.62717 0.95751 0.61915 0.0
C4571 C 0.63139 0.95065 0.61949 0.0
O4572 O 0.63183 0.94654 0.62673 0.0
C4573 C 0.61184 0.96403 0.64811 0.0
C4574 C 0.59365 0.99094 0.65179 0.0
O4575 O 0.58923 0.98521 0.6555 0.0
O4576 O 0.59829 0.98871 0.64549 0.0
O4577 O 0.28576 0.35786 0.90372 0.0
Cd4578 Cd 0.27864 0.3453 0.89806 0.0
O4579 O 0.28691 0.36281 0.89079 0.0
Cd4580 Cd 0.29041 0.37189 0.88085 0.0
O4581 O 0.2952 0.37934 0.87017 0.0
C4582 C 0.29749 0.3754 0.86351 0.0
O4583 O 0.29678 0.3671 0.8633 0.0
C4584 C 0.28836 0.3636 0.8987 0.0
C4585 C 0.26169 0.34435 0.90297 0.0
O4586 O 0.26758 0.34122 0.90762 0.0
O4587 O 0.26383 0.34796 0.896 0.0
O4588 O 0.39594 0.53572 0.65214 0.0
Cd4589 Cd 0.40744 0.52776 0.64549 0.0
O4590 O 0.3899 0.5359 0.63966 0.0
Cd4591 Cd 0.38093 0.53982 0.62979 0.0
O4592 O 0.37417 0.54421 0.6185 0.0
C4593 C 0.36998 0.55109 0.61877 0.0
O4594 O 0.36962 0.55532 0.62595 0.0
C4595 C 0.38976 0.53794 0.64747 0.0
C4596 C 0.40829 0.51121 0.65158 0.0
O4597 O 0.41279 0.51712 0.6549 0.0
O4598 O 0.40339 0.51315 0.64537 0.0
O4599 O 0.78603 0.145 0.0966 0.0
Cd4600 Cd 0.77911 0.15795 0.10155 0.0
O4601 O 0.78742 0.14101 0.10983 0.0
Cd4602 Cd 0.791 0.13272 0.12041 0.0
O4603 O 0.79532 0.12601 0.13176 0.0
C4604 C 0.80226 0.12191 0.13155 0.0
O4605 O 0.80659 0.12167 0.12442 0.0
C4606 C 0.7887 0.13962 0.10198 0.0
C4607 C 0.7621 0.1587 0.09679 0.0
O4608 O 0.76795 0.16153 0.0919 0.0
O4609 O 0.7643 0.15549 0.10394 0.0
O4610 O 0.60751 0.03553 0.84635 0.0
Cd4611 Cd 0.59529 0.02791 0.85206 0.0
O4612 O 0.61168 0.03695 0.8595 0.0
Cd4613 Cd 0.61991 0.04066 0.87008 0.0
O4614 O 0.62631 0.04494 0.88162 0.0
C4615 C 0.63005 0.05208 0.88165 0.0
O4616 O 0.63013 0.05663 0.87467 0.0
C4617 C 0.61287 0.03839 0.85164 0.0
C4618 C 0.59489 0.01102 0.84689 0.0
O4619 O 0.59085 0.01675 0.84275 0.0
O4620 O 0.59913 0.0133 0.85345 0.0
O4621 O 0.89574 0.9661 0.34699 0.0
Cd4622 Cd 0.90861 0.97309 0.35206 0.0
O4623 O 0.89167 0.96462 0.36019 0.0
Cd4624 Cd 0.88335 0.96095 0.37071 0.0
O4625 O 0.87671 0.95648 0.38205 0.0
C4626 C 0.87224 0.94978 0.3817 0.0
O4627 O 0.87155 0.94576 0.37442 0.0
C4628 C 0.89034 0.96337 0.35232 0.0
C4629 C 0.9093 0.99009 0.3473 0.0
O4630 O 0.91221 0.98425 0.34244 0.0
O4631 O 0.90605 0.98787 0.35442 0.0
O4632 O 0.39312 0.27927 0.12477 0.0
Cd4633 Cd 0.38299 0.27016 0.13224 0.0
O4634 O 0.38979 0.29056 0.13225 0.0
Cd4635 Cd 0.37762 0.28528 0.13622 0.0
O4636 O 0.36506 0.2888 0.13143 0.0
C4637 C 0.36547 0.29513 0.12644 0.0
O4638 O 0.37294 0.29856 0.125 0.0
C4639 C 0.3945 0.28696 0.12678 0.0
C4640 C 0.39047 0.25478 0.13698 0.0
O4641 O 0.38694 0.2557 0.12971 0.0
O4642 O 0.39043 0.26113 0.14206 0.0
O4643 O 0.46932 0.64631 0.88065 0.0
Cd4644 Cd 0.4773 0.63838 0.89138 0.0
O4645 O 0.46359 0.63468 0.87539 0.0
Cd4646 Cd 0.46924 0.62458 0.88295 0.0
O4647 O 0.4662 0.61133 0.88019 0.0
C4648 C 0.46702 0.60932 0.87242 0.0
O4649 O 0.47031 0.61491 0.86719 0.0
C4650 C 0.4644 0.64271 0.87535 0.0
C4651 C 0.49344 0.64511 0.89449 0.0
O4652 O 0.49233 0.63916 0.88906 0.0
O4653 O 0.4869 0.64793 0.89843 0.0
O4654 O 0.10752 0.72021 0.62726 0.0
Cd4655 Cd 0.11721 0.7302 0.63419 0.0
O4656 O 0.11432 0.70917 0.63244 0.0
Cd4657 Cd 0.12587 0.71595 0.63595 0.0
O4658 O 0.13835 0.7127 0.63079 0.0
C4659 C 0.13799 0.706 0.6263 0.0
O4660 O 0.13064 0.70213 0.62553 0.0
C4661 C 0.1081 0.71222 0.62831 0.0
C4662 C 0.10926 0.74548 0.63843 0.0
O4663 O 0.11265 0.74436 0.63112 0.0
O4664 O 0.10961 0.73935 0.64376 0.0
O4665 O 0.03259 0.35717 0.3801 0.0
Cd4666 Cd 0.02382 0.36638 0.38905 0.0
O4667 O 0.02849 0.36369 0.36846 0.0
Cd4668 Cd 0.02385 0.37507 0.37485 0.0
O4669 O 0.02925 0.38779 0.37352 0.0
C4670 C 0.03731 0.38775 0.37295 0.0
O4671 O 0.04132 0.38049 0.37384 0.0
C4672 C 0.03249 0.35767 0.37205 0.0
C4673 C 0.00784 0.35924 0.39206 0.0
O4674 O 0.00923 0.36386 0.38552 0.0
O4675 O 0.01401 0.358 0.39723 0.0
O4676 O 0.39402 0.72142 0.37358 0.0
Cd4677 Cd 0.38434 0.73154 0.36682 0.0
O4678 O 0.38648 0.71047 0.36932 0.0
Cd4679 Cd 0.37497 0.71735 0.36582 0.0
O4680 O 0.36241 0.71385 0.37066 0.0
C4681 C 0.36263 0.70674 0.37447 0.0
O4682 O 0.36988 0.70263 0.37477 0.0
C4683 C 0.39305 0.71344 0.37293 0.0
C4684 C 0.39235 0.74683 0.36269 0.0
O4685 O 0.38903 0.74564 0.37002 0.0
O4686 O 0.3919 0.74078 0.35728 0.0
O4687 O 0.03297 0.64416 0.12122 0.0
Cd4688 Cd 0.02437 0.63489 0.11218 0.0
O4689 O 0.02876 0.63759 0.1328 0.0
Cd4690 Cd 0.02449 0.62612 0.12634 0.0
O4691 O 0.03013 0.6135 0.12763 0.0
C4692 C 0.0382 0.6136 0.12793 0.0
O4693 O 0.04214 0.62087 0.12681 0.0
C4694 C 0.03273 0.64367 0.12927 0.0
C4695 C 0.00833 0.6419 0.10916 0.0
O4696 O 0.00974 0.63724 0.11568 0.0
O4697 O 0.0145 0.64323 0.10403 0.0
O4698 O 0.10876 0.27827 0.87569 0.0
Cd4699 Cd 0.1188 0.269 0.86828 0.0
O4700 O 0.11314 0.28975 0.86907 0.0
Cd4701 Cd 0.12522 0.2842 0.86517 0.0
O4702 O 0.1378 0.28793 0.86974 0.0
C4703 C 0.13748 0.29479 0.87399 0.0
O4704 O 0.1301 0.29857 0.87486 0.0
C4705 C 0.10795 0.28614 0.87408 0.0
C4706 C 0.11126 0.25355 0.86382 0.0
O4707 O 0.11483 0.25459 0.87106 0.0
O4708 O 0.11128 0.25982 0.85864 0.0
O4709 O 0.47156 0.3566 0.62428 0.0
Cd4710 Cd 0.48187 0.36595 0.61735 0.0
O4711 O 0.46088 0.36483 0.62063 0.0
Cd4712 Cd 0.46811 0.37599 0.61675 0.0
O4713 O 0.46488 0.38875 0.62121 0.0
C4714 C 0.45742 0.38894 0.6243 0.0
O4715 O 0.45286 0.38196 0.62408 0.0
C4716 C 0.46362 0.35804 0.624 0.0
C4717 C 0.49695 0.35756 0.61322 0.0
O4718 O 0.49589 0.36101 0.62051 0.0
O4719 O 0.49085 0.35804 0.60786 0.0
O4720 O 0.13004 0.39665 0.28212 0.0
Cd4721 Cd 0.1406 0.38895 0.27368 0.0
O4722 O 0.12581 0.38484 0.28828 0.0
Cd4723 Cd 0.13343 0.37496 0.28233 0.0
O4724 O 0.131 0.36213 0.28703 0.0
C4725 C 0.12969 0.36197 0.29499 0.0
O4726 O 0.13066 0.36903 0.29932 0.0
C4727 C 0.1253 0.39284 0.28742 0.0
C4728 C 0.14347 0.39601 0.25765 0.0
O4729 O 0.13798 0.39009 0.25872 0.0
O4730 O 0.14754 0.39865 0.26418 0.0
O4731 O 0.3596 0.37531 0.02955 0.0
Cd4732 Cd 0.36967 0.38289 0.02045 0.0
O4733 O 0.36313 0.38254 0.04095 0.0
Cd4734 Cd 0.37526 0.38663 0.03567 0.0
O4735 O 0.38783 0.38206 0.03943 0.0
C4736 C 0.38749 0.37766 0.04619 0.0
O4737 O 0.38008 0.37666 0.0499 0.0
C4738 C 0.35834 0.37716 0.0373 0.0
C4739 C 0.36216 0.38749 0.00504 0.0
O4740 O 0.36578 0.38027 0.00599 0.0
O4741 O 0.36212 0.39259 0.01137 0.0
O4742 O 0.37204 0.60466 0.7822 0.0
Cd4743 Cd 0.36199 0.61266 0.77342 0.0
O4744 O 0.37475 0.61609 0.78978 0.0
Cd4745 Cd 0.36788 0.62611 0.78316 0.0
O4746 O 0.37101 0.63908 0.78699 0.0
C4747 C 0.37293 0.63951 0.79482 0.0
O4748 O 0.37216 0.63262 0.79947 0.0
C4749 C 0.3758 0.60822 0.78839 0.0
C4750 C 0.35906 0.60554 0.75743 0.0
O4751 O 0.36476 0.61125 0.75852 0.0
O4752 O 0.3548 0.60312 0.76392 0.0
O4753 O 0.14252 0.62548 0.52914 0.0
Cd4754 Cd 0.13243 0.61809 0.5199 0.0
O4755 O 0.13866 0.61842 0.54052 0.0
Cd4756 Cd 0.12656 0.61455 0.53499 0.0
O4757 O 0.11401 0.61965 0.53807 0.0
C4758 C 0.11451 0.6256 0.54349 0.0
O4759 O 0.12206 0.62781 0.54628 0.0
C4760 C 0.14361 0.62367 0.53692 0.0
C4761 C 0.13999 0.61352 0.50451 0.0
O4762 O 0.13645 0.62078 0.5055 0.0
O4763 O 0.13993 0.60837 0.51081 0.0
O4764 O 0.12695 0.60662 0.22158 0.0
Cd4765 Cd 0.13384 0.61601 0.23189 0.0
O4766 O 0.13142 0.61433 0.21083 0.0
Cd4767 Cd 0.1353 0.62559 0.2179 0.0
O4768 O 0.13102 0.63825 0.21409 0.0
C4769 C 0.12858 0.63835 0.2064 0.0
O4770 O 0.12931 0.63135 0.20192 0.0
C4771 C 0.12765 0.60777 0.21362 0.0
C4772 C 0.13801 0.6078 0.24707 0.0
O4773 O 0.13069 0.61118 0.24596 0.0
O4774 O 0.14338 0.60825 0.24098 0.0
O4775 O 0.14509 0.37683 0.97153 0.0
Cd4776 Cd 0.13544 0.38378 0.98156 0.0
O4777 O 0.13729 0.38079 0.96065 0.0
Cd4778 Cd 0.12587 0.38447 0.96755 0.0
O4779 O 0.11331 0.37975 0.96388 0.0
C4780 C 0.11342 0.37656 0.95647 0.0
O4781 O 0.12056 0.37677 0.95216 0.0
C4782 C 0.14395 0.37728 0.96356 0.0
C4783 C 0.14327 0.38798 0.99694 0.0
O4784 O 0.13987 0.38068 0.99577 0.0
O4785 O 0.14302 0.39332 0.9908 0.0
O4786 O 0.37222 0.39648 0.71996 0.0
Cd4787 Cd 0.36189 0.38851 0.7284 0.0
O4788 O 0.37666 0.38486 0.71358 0.0
Cd4789 Cd 0.3694 0.37475 0.71962 0.0
O4790 O 0.37196 0.36181 0.71529 0.0
C4791 C 0.37336 0.36148 0.70734 0.0
O4792 O 0.37242 0.36845 0.70286 0.0
C4793 C 0.37698 0.39286 0.71454 0.0
C4794 C 0.35894 0.3956 0.7444 0.0
O4795 O 0.36451 0.38976 0.74335 0.0
O4796 O 0.35481 0.39814 0.73787 0.0
O4797 O 0.35665 0.62367 0.47116 0.0
Cd4798 Cd 0.36629 0.61656 0.48108 0.0
O4799 O 0.36497 0.62073 0.46033 0.0
Cd4800 Cd 0.37628 0.61673 0.46727 0.0
O4801 O 0.38895 0.62119 0.46372 0.0
C4802 C 0.38911 0.62381 0.45609 0.0
O4803 O 0.38215 0.62314 0.45153 0.0
C4804 C 0.35808 0.62378 0.46322 0.0
C4805 C 0.35847 0.61252 0.49649 0.0
O4806 O 0.362 0.61976 0.4953 0.0
O4807 O 0.3586 0.60717 0.49037 0.0
O4808 O 0.28323 0.13884 0.40427 0.0
Cd4809 Cd 0.27539 0.15151 0.39981 0.0
O4810 O 0.28476 0.13547 0.39087 0.0
Cd4811 Cd 0.28884 0.12762 0.38015 0.0
O4812 O 0.2933 0.1205 0.36911 0.0
C4813 C 0.29611 0.12451 0.3627 0.0
O4814 O 0.2962 0.13284 0.36288 0.0
C4815 C 0.28628 0.13392 0.39865 0.0
C4816 C 0.25853 0.15216 0.40523 0.0
O4817 O 0.26051 0.14886 0.39806 0.0
O4818 O 0.26455 0.15503 0.4099 0.0
O4819 O 0.78259 0.37096 0.60584 0.0
Cd4820 Cd 0.77353 0.36171 0.61444 0.0
O4821 O 0.78767 0.37701 0.61737 0.0
Cd4822 Cd 0.7813 0.37021 0.62759 0.0
O4823 O 0.7854 0.37271 0.6406 0.0
C4824 C 0.79341 0.3735 0.64119 0.0
O4825 O 0.79805 0.37203 0.63441 0.0
C4826 C 0.78744 0.37639 0.60933 0.0
C4827 C 0.75776 0.35863 0.60692 0.0
O4828 O 0.759 0.36515 0.61163 0.0
O4829 O 0.76401 0.35355 0.60573 0.0
O4830 O 0.38315 0.03001 0.35536 0.0
Cd4831 Cd 0.39393 0.02227 0.36341 0.0
O4832 O 0.37575 0.03347 0.36671 0.0
Cd4833 Cd 0.38344 0.0287 0.37716 0.0
O4834 O 0.38049 0.03437 0.38949 0.0
C4835 C 0.37885 0.04225 0.38899 0.0
O4836 O 0.37981 0.04605 0.38162 0.0
C4837 C 0.37674 0.03359 0.35871 0.0
C4838 C 0.39694 0.00619 0.35655 0.0
O4839 O 0.39157 0.00725 0.36257 0.0
O4840 O 0.4009 0.01272 0.35378 0.0
O4841 O 0.7215 0.62807 0.10638 0.0
Cd4842 Cd 0.73164 0.63539 0.11563 0.0
O4843 O 0.71135 0.6295 0.11587 0.0
Cd4844 Cd 0.71863 0.63407 0.12673 0.0
O4845 O 0.71511 0.63025 0.1396 0.0
C4846 C 0.70721 0.6287 0.14018 0.0
O4847 O 0.7024 0.63008 0.13351 0.0
C4848 C 0.71379 0.6271 0.10857 0.0
C4849 C 0.74696 0.63927 0.10755 0.0
O4850 O 0.74579 0.63208 0.11119 0.0
O4851 O 0.74084 0.64464 0.10768 0.0
O4852 O 0.6248 0.47078 0.35601 0.0
Cd4853 Cd 0.61723 0.48095 0.36502 0.0
O4854 O 0.62372 0.46095 0.36587 0.0
Cd4855 Cd 0.6189 0.46833 0.37654 0.0
O4856 O 0.62276 0.46477 0.38941 0.0
C4857 C 0.62492 0.457 0.38977 0.0
O4858 O 0.62411 0.45234 0.3829 0.0
C4859 C 0.62601 0.46319 0.35847 0.0
C4860 C 0.61322 0.49616 0.35681 0.0
O4861 O 0.6204 0.4951 0.36048 0.0
O4862 O 0.60792 0.48999 0.35694 0.0
O4863 O 0.22272 0.87584 0.89296 0.0
Cd4864 Cd 0.23218 0.86848 0.88306 0.0
O4865 O 0.21142 0.8688 0.88876 0.0
Cd4866 Cd 0.21715 0.8651 0.87671 0.0
O4867 O 0.21391 0.87022 0.86421 0.0
C4868 C 0.20817 0.87587 0.86471 0.0
O4869 O 0.20516 0.87781 0.87224 0.0
C4870 C 0.21491 0.874 0.89385 0.0
C4871 C 0.24754 0.86408 0.8908 0.0
O4872 O 0.24652 0.87132 0.88726 0.0
O4873 O 0.2413 0.85886 0.89067 0.0
O4874 O 0.3794 0.97032 0.14621 0.0
Cd4875 Cd 0.38905 0.97901 0.13767 0.0
O4876 O 0.37181 0.96701 0.13495 0.0
Cd4877 Cd 0.3791 0.9726 0.12461 0.0
O4878 O 0.3771 0.96749 0.11187 0.0
C4879 C 0.37593 0.95951 0.11189 0.0
O4880 O 0.37675 0.9554 0.11911 0.0
C4881 C 0.37307 0.96656 0.1429 0.0
C4882 C 0.39216 0.99489 0.14496 0.0
O4883 O 0.38578 0.99367 0.14005 0.0
O4884 O 0.39708 0.98859 0.14645 0.0
O4885 O 0.1224 0.03152 0.64644 0.0
Cd4886 Cd 0.11169 0.02357 0.63846 0.0
O4887 O 0.12944 0.0352 0.63493 0.0
Cd4888 Cd 0.12173 0.02988 0.62475 0.0
O4889 O 0.12369 0.03473 0.61191 0.0
C4890 C 0.12481 0.04272 0.61176 0.0
O4891 O 0.12394 0.04699 0.61887 0.0
C4892 C 0.12861 0.03532 0.64296 0.0
C4893 C 0.10854 0.00756 0.64542 0.0
O4894 O 0.11398 0.00856 0.63945 0.0
O4895 O 0.1046 0.01415 0.64812 0.0
C4896 C 0.01941 0.14507 0.38993 0.0
C4897 C 0.01975 0.15173 0.39585 0.0
H4898 H 0.0116 0.13631 0.38309 0.0
C4899 C 0.01217 0.15458 0.39958 0.0
H4900 H 0.02514 0.1428 0.38688 0.0
C4901 C 0.0044 0.15082 0.39745 0.0
C4902 C 0.00406 0.14422 0.39145 0.0
H4903 H 0.01225 0.15967 0.40419 0.0
H4904 H 0.99866 0.15315 0.40043 0.0
C4905 C 0.01165 0.14138 0.38772 0.0
C4906 C 0.10008 0.7676 0.63639 0.0
C4907 C 0.09707 0.76916 0.64465 0.0
H4908 H 0.1063 0.75896 0.62798 0.0
C4909 C 0.09815 0.76287 0.65088 0.0
H4910 H 0.09945 0.77236 0.63148 0.0
C4911 C 0.10208 0.75516 0.64887 0.0
C4912 C 0.10507 0.75361 0.64061 0.0
H4913 H 0.09585 0.76387 0.65728 0.0
H4914 H 0.10278 0.75042 0.6538 0.0
C4915 C 0.10405 0.75993 0.6344 0.0
C4916 C 0.4871 0.84937 0.89866 0.0
C4917 C 0.48076 0.84809 0.89251 0.0
H4918 H 0.49957 0.85413 0.90134 0.0
C4919 C 0.48222 0.85092 0.88418 0.0
H4920 H 0.48618 0.84721 0.90512 0.0
C4921 C 0.48984 0.85489 0.88202 0.0
C4922 C 0.49623 0.85609 0.88813 0.0
H4923 H 0.47741 0.85014 0.87932 0.0
H4924 H 0.49074 0.85698 0.87554 0.0
C4925 C 0.49478 0.8533 0.89648 0.0
C4926 C 0.40183 0.23776 0.14973 0.0
C4927 C 0.40267 0.23124 0.1437 0.0
H4928 H 0.39738 0.25035 0.15233 0.0
C4929 C 0.39931 0.23248 0.13552 0.0
H4930 H 0.4044 0.23701 0.15606 0.0
C4931 C 0.39529 0.24008 0.13339 0.0
C4932 C 0.39456 0.24666 0.13937 0.0
H4933 H 0.39975 0.22753 0.13077 0.0
H4934 H 0.39281 0.24082 0.12702 0.0
C4935 C 0.39785 0.24541 0.14757 0.0
C4936 C 0.01944 0.85177 0.11615 0.0
C4937 C 0.02089 0.84845 0.10799 0.0
H4938 H 0.01089 0.85825 0.12445 0.0
C4939 C 0.01452 0.8493 0.1018 0.0
H4940 H 0.02427 0.85132 0.12102 0.0
C4941 C 0.00681 0.85327 0.10378 0.0
C4942 C 0.00536 0.85655 0.11195 0.0
H4943 H 0.01543 0.84676 0.09548 0.0
H4944 H 0.002 0.85376 0.09889 0.0
C4945 C 0.01178 0.85579 0.1181 0.0
C4946 C 0.40335 0.76437 0.35033 0.0
C4947 C 0.40461 0.77053 0.35666 0.0
H4948 H 0.39856 0.75201 0.34728 0.0
C4949 C 0.40176 0.76884 0.36494 0.0
H4950 H 0.40553 0.76547 0.3439 0.0
C4951 C 0.39776 0.76117 0.36687 0.0
C4952 C 0.39656 0.75497 0.36057 0.0
H4953 H 0.40253 0.77351 0.36993 0.0
H4954 H 0.39564 0.7601 0.37332 0.0
C4955 C 0.3994 0.75665 0.35228 0.0
C4956 C 0.48804 0.15424 0.59988 0.0
C4957 C 0.48179 0.15486 0.60622 0.0
H4958 H 0.50059 0.1501 0.59663 0.0
C4959 C 0.48354 0.15154 0.61432 0.0
H4960 H 0.4869 0.15679 0.5936 0.0
C4961 C 0.49134 0.1477 0.61605 0.0
C4962 C 0.49762 0.14713 0.60974 0.0
H4963 H 0.47882 0.15181 0.61931 0.0
H4964 H 0.49245 0.14519 0.62235 0.0
C4965 C 0.49589 0.15045 0.60163 0.0
C4966 C 0.10244 0.23126 0.86567 0.0
C4967 C 0.09911 0.22986 0.85751 0.0
H4968 H 0.1089 0.23977 0.87403 0.0
C4969 C 0.09995 0.23627 0.85136 0.0
H4970 H 0.102 0.2264 0.87051 0.0
C4971 C 0.10391 0.24397 0.85339 0.0
C4972 C 0.10718 0.24538 0.86158 0.0
H4973 H 0.09741 0.23539 0.84504 0.0
H4974 H 0.10438 0.24882 0.84855 0.0
C4975 C 0.10644 0.23891 0.86767 0.0
C4976 C 0.40276 0.01295 0.15691 0.0
C4977 C 0.39673 0.01947 0.15607 0.0
H4978 H 0.40602 1.00004 0.15414 0.0
C4979 C 0.38923 0.01785 0.15151 0.0
H4980 H 0.40857 0.01399 0.16044 0.0
C4981 C 0.38778 0.00989 0.14788 0.0
C4982 C 0.39376 0.00333 0.14878 0.0
H4983 H 0.38452 0.02277 0.15065 0.0
H4984 H 0.38194 0.00887 0.1444 0.0
C4985 C 0.40127 0.00495 0.15334 0.0
C4986 C 0.23449 0.15103 0.40499 0.0
C4987 C 0.23241 0.1541 0.4131 0.0
H4988 H 0.24435 0.14793 0.39618 0.0
C4989 C 0.239 0.1565 0.41862 0.0
H4990 H 0.22956 0.14902 0.40063 0.0
C4991 C 0.24748 0.15587 0.41607 0.0
C4992 C 0.24956 0.15276 0.40797 0.0
H4993 H 0.23759 0.15896 0.42488 0.0
H4994 H 0.2524 0.15781 0.42046 0.0
C4995 C 0.24297 0.15034 0.40246 0.0
C4996 C 0.10852 0.98372 0.64855 0.0
C4997 C 0.10368 0.98282 0.65599 0.0
H4998 H 0.11392 0.99221 0.63944 0.0
C4999 C 0.10042 0.99013 0.65992 0.0
H5000 H 0.11119 0.9782 0.64543 0.0
C5001 C 0.10195 0.99817 0.65646 0.0
C5002 C 0.10685 0.99906 0.64906 0.0
H5003 H 0.09662 0.98963 0.66562 0.0
H5004 H 0.09933 0.00368 0.65963 0.0
C5005 C 0.11013 0.99175 0.64515 0.0
C5006 C 0.26479 0.85163 0.90218 0.0
C5007 C 0.27114 0.85782 0.90318 0.0
H5008 H 0.25231 0.84876 0.89755 0.0
C5009 C 0.2697 0.86602 0.89997 0.0
H5010 H 0.2657 0.84528 0.90464 0.0
C5011 C 0.26207 0.868 0.8959 0.0
C5012 C 0.25567 0.86186 0.89499 0.0
H5013 H 0.27451 0.87089 0.90053 0.0
H5014 H 0.26119 0.87439 0.89351 0.0
C5015 C 0.25712 0.85364 0.89816 0.0
C5016 C 0.39645 0.98236 0.35331 0.0
C5017 C 0.40116 0.98141 0.34579 0.0
H5018 H 0.39137 0.99091 0.36255 0.0
C5019 C 0.40455 0.98867 0.34188 0.0
H5020 H 0.39368 0.97689 0.35641 0.0
C5021 C 0.40326 0.99671 0.34542 0.0
C5022 C 0.39847 0.99767 0.35289 0.0
H5023 H 0.40825 0.98812 0.33611 0.0
H5024 H 0.40596 0.00218 0.34225 0.0
C5025 C 0.39509 0.9904 0.35679 0.0
C5026 C 0.26487 0.15067 0.59685 0.0
C5027 C 0.27098 0.14429 0.59562 0.0
H5028 H 0.25253 0.15385 0.60164 0.0
C5029 C 0.26921 0.13603 0.59849 0.0
H5030 H 0.26603 0.15708 0.59466 0.0
C5031 C 0.26152 0.13418 0.60249 0.0
C5032 C 0.25538 0.14054 0.60368 0.0
H5033 H 0.27383 0.13099 0.59774 0.0
H5034 H 0.26039 0.12775 0.60464 0.0
C5035 C 0.25713 0.1488 0.60081 0.0
C5036 C 0.10215 0.01302 0.84687 0.0
C5037 C 0.106 0.02062 0.8495 0.0
H5038 H 0.10141 0.99952 0.84837 0.0
C5039 C 0.11225 0.02032 0.85587 0.0
H5040 H 0.09728 0.01307 0.84201 0.0
C5041 C 0.11466 0.01258 0.85946 0.0
C5042 C 0.11082 0.00497 0.85683 0.0
H5043 H 0.11539 0.02606 0.85796 0.0
H5044 H 0.11954 0.01256 0.8643 0.0
C5045 C 0.1045 0.00528 0.85053 0.0
C5046 C 0.23722 0.8517 0.09946 0.0
C5047 C 0.23084 0.85789 0.09862 0.0
H5048 H 0.24973 0.84879 0.10394 0.0
C5049 C 0.23227 0.86602 0.10199 0.0
H5050 H 0.23632 0.8454 0.09688 0.0
C5051 C 0.23992 0.86796 0.10605 0.0
C5052 C 0.24635 0.86182 0.10679 0.0
H5053 H 0.22744 0.87089 0.10156 0.0
H5054 H 0.2408 0.8743 0.10855 0.0
C5055 C 0.24491 0.85366 0.10347 0.0
C5056 C 0.15415 0.40042 0.01451 0.0
C5057 C 0.15503 0.39421 0.02085 0.0
H5058 H 0.14982 0.40332 0.00194 0.0
C5059 C 0.15198 0.38597 0.01926 0.0
H5060 H 0.15649 0.4068 0.01553 0.0
C5061 C 0.14816 0.38398 0.01151 0.0
C5062 C 0.14733 0.39016 0.00514 0.0
H5063 H 0.15246 0.38107 0.02406 0.0
H5064 H 0.14587 0.37758 0.01052 0.0
C5065 C 0.15037 0.39841 0.00672 0.0
C5066 C 0.64848 0.10793 0.98387 0.0
C5067 C 0.65551 0.10251 0.98298 0.0
H5068 H 0.63976 0.11397 0.99236 0.0
C5069 C 0.65912 0.09889 0.99029 0.0
H5070 H 0.64563 0.11089 0.97837 0.0
C5071 C 0.65574 0.10063 0.99832 0.0
C5072 C 0.64874 0.1061 0.99921 0.0
H5073 H 0.6645 0.09465 0.9898 0.0
H5074 H 0.65864 0.09771 0.00383 0.0
C5075 C 0.64516 0.10974 0.9919 0.0
C5076 C 0.15181 0.4102 0.24007 0.0
C5077 C 0.14827 0.4064 0.23281 0.0
H5078 H 0.15314 0.40986 0.25359 0.0
C5079 C 0.14313 0.39918 0.2338 0.0
H5080 H 0.15585 0.41573 0.2395 0.0
C5081 C 0.14153 0.39584 0.24186 0.0
C5082 C 0.1451 0.39961 0.24912 0.0
H5083 H 0.14022 0.39618 0.22834 0.0
H5084 H 0.13751 0.39029 0.2424 0.0
C5085 C 0.15028 0.40681 0.24813 0.0
C5086 C 0.85658 0.88939 0.48137 0.0
C5087 C 0.85002 0.89542 0.48107 0.0
H5088 H 0.86526 0.88239 0.48913 0.0
C5089 C 0.84726 0.89919 0.48867 0.0
H5090 H 0.85877 0.88631 0.47563 0.0
C5091 C 0.85102 0.89698 0.49641 0.0
C5092 C 0.85752 0.89087 0.49672 0.0
H5093 H 0.84224 0.90389 0.48862 0.0
H5094 H 0.84877 0.89999 0.50216 0.0
C5095 C 0.86026 0.8871 0.48911 0.0
C5096 C 0.85023 0.09207 0.23895 0.0
C5097 C 0.85397 0.09543 0.23159 0.0
H5098 H 0.84907 0.09281 0.25248 0.0
C5099 C 0.85966 0.10225 0.23237 0.0
H5100 H 0.84578 0.08684 0.23853 0.0
C5101 C 0.8616 0.10563 0.24034 0.0
C5102 C 0.85782 0.10231 0.24771 0.0
H5103 H 0.86272 0.10491 0.22682 0.0
H5104 H 0.86603 0.11087 0.24072 0.0
C5105 C 0.85209 0.09551 0.24693 0.0
C5106 C 0.34974 0.6148 0.51877 0.0
C5107 C 0.34655 0.60662 0.52039 0.0
H5108 H 0.35601 0.62304 0.51001 0.0
C5109 C 0.34736 0.60036 0.51409 0.0
H5110 H 0.34931 0.61973 0.52353 0.0
C5111 C 0.3512 0.60226 0.50631 0.0
C5112 C 0.35438 0.61045 0.5047 0.0
H5113 H 0.34491 0.59402 0.51514 0.0
H5114 H 0.3517 0.59731 0.50156 0.0
C5115 C 0.35362 0.61668 0.51103 0.0
C5116 C 0.15051 0.59675 0.26448 0.0
C5117 C 0.14427 0.59563 0.27076 0.0
H5118 H 0.15342 0.60139 0.25203 0.0
C5119 C 0.13598 0.59854 0.26917 0.0
H5120 H 0.15693 0.59452 0.2655 0.0
C5121 C 0.13397 0.60248 0.26148 0.0
C5122 C 0.14019 0.60357 0.25518 0.0
H5123 H 0.13106 0.59788 0.27392 0.0
H5124 H 0.12753 0.60467 0.26049 0.0
C5125 C 0.14848 0.60064 0.25676 0.0
C5126 C 0.35911 0.39878 0.76824 0.0
C5127 C 0.35401 0.40603 0.76918 0.0
H5128 H 0.36474 0.38986 0.75968 0.0
C5129 C 0.35057 0.40987 0.76191 0.0
H5130 H 0.36193 0.39574 0.77373 0.0
C5131 C 0.35214 0.40647 0.75385 0.0
C5132 C 0.35728 0.39923 0.75291 0.0
H5133 H 0.34657 0.41543 0.76245 0.0
H5134 H 0.34936 0.40954 0.74837 0.0
C5135 C 0.36076 0.39544 0.76019 0.0
C5136 C 0.99149 0.83842 0.58715 0.0
C5137 C 0.98532 0.84143 0.59284 0.0
H5138 H 0.00453 0.83873 0.58331 0.0
C5139 C 0.98771 0.84728 0.59913 0.0
H5140 H 0.98983 0.83386 0.58228 0.0
C5141 C 0.9961 0.8501 0.5997 0.0
C5142 C 0.00229 0.84706 0.59404 0.0
H5143 H 0.98307 0.84975 0.60355 0.0
H5144 H 0.99774 0.85463 0.6046 0.0
C5145 C 0.99991 0.84118 0.58777 0.0
C5146 C 0.90424 0.23851 0.3483 0.0
C5147 C 0.91005 0.23583 0.3421 0.0
H5148 H 0.89695 0.2488 0.35337 0.0
C5149 C 0.91307 0.24174 0.33614 0.0
H5150 H 0.90175 0.23407 0.35292 0.0
C5151 C 0.91036 0.25018 0.33642 0.0
C5152 C 0.90452 0.25286 0.3426 0.0
H5153 H 0.91761 0.23986 0.33134 0.0
H5154 H 0.91283 0.2546 0.33177 0.0
C5155 C 0.90146 0.24693 0.34852 0.0
C5156 C 0.51268 0.15218 0.09531 0.0
C5157 C 0.5148 0.1603 0.09228 0.0
H5158 H 0.50279 0.14332 0.09815 0.0
C5159 C 0.50826 0.16575 0.0896 0.0
H5160 H 0.51758 0.14788 0.09751 0.0
C5161 C 0.49979 0.16314 0.08995 0.0
C5162 C 0.49767 0.15505 0.09306 0.0
H5163 H 0.50971 0.17201 0.08716 0.0
H5164 H 0.4949 0.16749 0.08784 0.0
C5165 C 0.50421 0.1496 0.09573 0.0
C5166 C 0.59912 0.76161 0.84819 0.0
C5167 C 0.59318 0.76438 0.84213 0.0
H5168 H 0.60637 0.75121 0.85306 0.0
C5169 C 0.58996 0.75853 0.83623 0.0
H5170 H 0.60176 0.766 0.85277 0.0
C5171 C 0.59256 0.75006 0.83642 0.0
C5172 C 0.5985 0.74728 0.84246 0.0
H5173 H 0.58532 0.76049 0.83154 0.0
H5174 H 0.58992 0.74569 0.83181 0.0
C5175 C 0.60178 0.75315 0.84832 0.0
C5176 C 0.99247 0.16607 0.9133 0.0
C5177 C 0.98617 0.16046 0.9104 0.0
H5178 H 0.00572 0.16819 0.91541 0.0
C5179 C 0.98859 0.15244 0.90735 0.0
H5180 H 0.99078 0.17226 0.91577 0.0
C5181 C 0.99715 0.15011 0.90712 0.0
C5182 C 0.00346 0.15573 0.91 0.0
H5183 H 0.98389 0.14802 0.90499 0.0
H5184 H 0.99882 0.14391 0.90468 0.0
C5185 C 0.00102 0.16372 0.91313 0.0
C5186 C 0.59735 0.23754 0.65155 0.0
C5187 C 0.5914 0.23498 0.65767 0.0
H5188 H 0.60483 0.24768 0.64651 0.0
C5189 C 0.5883 0.241 0.66348 0.0
H5190 H 0.5999 0.23301 0.64704 0.0
C5191 C 0.59109 0.24941 0.66315 0.0
C5192 C 0.5971 0.25195 0.65707 0.0
H5193 H 0.58366 0.23921 0.66822 0.0
H5194 H 0.58858 0.2539 0.66771 0.0
C5195 C 0.6002 0.24592 0.65127 0.0
C5196 C 0.51105 0.83866 0.41482 0.0
C5197 C 0.5168 0.84229 0.40905 0.0
H5198 H 0.4982 0.83803 0.41919 0.0
C5199 C 0.51384 0.84835 0.40322 0.0
H5200 H 0.51315 0.83392 0.41933 0.0
C5201 C 0.50529 0.85073 0.40316 0.0
C5202 C 0.49953 0.84705 0.40888 0.0
H5203 H 0.51815 0.8513 0.39875 0.0
H5204 H 0.50321 0.85543 0.3986 0.0
C5205 C 0.50249 0.84098 0.4147 0.0
C5206 C 0.90379 0.76242 0.15235 0.0
C5207 C 0.90964 0.76528 0.15844 0.0
H5208 H 0.89661 0.75195 0.14751 0.0
C5209 C 0.91284 0.7595 0.16443 0.0
H5210 H 0.90117 0.76675 0.1477 0.0
C5211 C 0.91027 0.75101 0.1643 0.0
C5212 C 0.90439 0.74816 0.15823 0.0
H5213 H 0.91741 0.76152 0.16915 0.0
H5214 H 0.91287 0.7467 0.16898 0.0
C5215 C 0.90115 0.75395 0.15227 0.0
C5216 C 0.5998 0.98755 0.84545 0.0
C5217 C 0.59396 0.98483 0.83928 0.0
H5218 H 0.60463 0.99794 0.85274 0.0
C5219 C 0.58846 0.9908 0.83558 0.0
H5220 H 0.60405 0.98306 0.84846 0.0
C5221 C 0.58882 0.99933 0.83798 0.0
C5222 C 0.59461 0.00203 0.84421 0.0
H5223 H 0.58395 0.98888 0.83076 0.0
H5224 H 0.58451 0.00378 0.83501 0.0
C5225 C 0.60009 0.99605 0.84792 0.0
C5226 C 0.75983 0.83655 0.58782 0.0
C5227 C 0.7659 0.8422 0.59109 0.0
H5228 H 0.74685 0.83252 0.58786 0.0
C5229 C 0.7634 0.8482 0.59719 0.0
H5230 H 0.76158 0.8319 0.58306 0.0
C5231 C 0.75498 0.84853 0.59997 0.0
C5232 C 0.74889 0.84292 0.59665 0.0
H5233 H 0.76797 0.85258 0.59987 0.0
H5234 H 0.75325 0.85322 0.60469 0.0
C5235 C 0.7514 0.83694 0.59054 0.0
C5236 C 0.91301 0.00995 0.33428 0.0
C5237 C 0.91054 0.01636 0.33996 0.0
H5238 H 0.91461 0.99663 0.33215 0.0
C5239 C 0.90766 0.01406 0.34808 0.0
H5240 H 0.91533 0.01153 0.32801 0.0
C5241 C 0.90723 0.00553 0.35046 0.0
C5242 C 0.90972 0.99912 0.34478 0.0
H5243 H 0.90562 0.01886 0.35257 0.0
H5244 H 0.90495 0.00397 0.35675 0.0
C5245 C 0.91263 0.00142 0.33667 0.0
C5246 C 0.74223 0.16245 0.08377 0.0
C5247 C 0.73581 0.16005 0.08947 0.0
H5248 H 0.75556 0.16396 0.08162 0.0
C5249 C 0.7381 0.15719 0.0976 0.0
H5250 H 0.74065 0.16475 0.07749 0.0
C5251 C 0.74664 0.15672 0.09997 0.0
C5252 C 0.75306 0.15915 0.09427 0.0
H5253 H 0.7333 0.15521 0.1021 0.0
H5254 H 0.7482 0.15447 0.10627 0.0
C5255 C 0.75077 0.16203 0.08615 0.0
C5256 C 0.58704 0.01097 0.66332 0.0
C5257 C 0.59281 0.01693 0.66006 0.0
H5258 H 0.58283 0.99805 0.66333 0.0
C5259 C 0.59888 0.01428 0.65409 0.0
H5260 H 0.58234 0.01283 0.66798 0.0
C5261 C 0.59914 0.00584 0.65139 0.0
C5262 C 0.59339 0.99986 0.65467 0.0
H5263 H 0.60335 0.01876 0.65141 0.0
H5264 H 0.60387 0.004 0.64675 0.0
C5265 C 0.58735 0.00251 0.66069 0.0
C5266 C 0.7412 0.83648 0.41254 0.0
C5267 C 0.73528 0.84224 0.40918 0.0
H5268 H 0.75415 0.83239 0.41287 0.0
C5269 C 0.73803 0.84835 0.40331 0.0
H5270 H 0.73927 0.83176 0.41714 0.0
C5271 C 0.74654 0.84869 0.40083 0.0
C5272 C 0.75249 0.84298 0.40424 0.0
H5273 H 0.73358 0.85282 0.40056 0.0
H5274 H 0.74847 0.85347 0.39628 0.0
C5275 C 0.74973 0.83688 0.41013 0.0
C5276 C 0.91282 0.9917 0.16678 0.0
C5277 C 0.91032 0.98518 0.16122 0.0
H5278 H 0.91436 0.00505 0.16868 0.0
C5279 C 0.90735 0.98734 0.15309 0.0
H5280 H 0.91521 0.99023 0.17305 0.0
C5281 C 0.90685 0.99583 0.15058 0.0
C5282 C 0.90937 0.00234 0.15614 0.0
H5283 H 0.9053 0.98246 0.1487 0.0
H5284 H 0.90451 0.99728 0.14429 0.0
C5285 C 0.91237 1.00018 0.16425 0.0
C5286 C 0.76319 0.15611 0.90155 0.0
C5287 C 0.76541 0.15957 0.90947 0.0
H5288 H 0.75317 0.15291 0.89294 0.0
C5289 C 0.75896 0.16266 0.91479 0.0
H5290 H 0.76801 0.1536 0.89735 0.0
C5291 C 0.75047 0.16228 0.91227 0.0
C5292 C 0.74823 0.15874 0.90439 0.0
H5293 H 0.7605 0.16543 0.92089 0.0
H5294 H 0.74565 0.16471 0.91653 0.0
C5295 C 0.75469 0.15568 0.89905 0.0
C5296 C 0.83784 0.58731 0.9908 0.0
C5297 C 0.8408 0.59312 0.98472 0.0
H5298 H 0.8384 0.58309 0.00369 0.0
C5299 C 0.84681 0.59925 0.98715 0.0
H5300 H 0.83316 0.58256 0.9891 0.0
C5301 C 0.84985 0.59952 0.99547 0.0
C5302 C 0.84687 0.59373 0.00156 0.0
H5303 H 0.84926 0.60375 0.98257 0.0
H5304 H 0.85451 0.60429 0.99713 0.0
C5305 C 0.84081 0.58764 0.99915 0.0
C5306 C 0.33921 0.91439 0.0098 0.0
C5307 C 0.34241 0.90845 0.01563 0.0
H5308 H 0.33931 0.91894 0.99701 0.0
C5309 C 0.3484 0.90245 0.01287 0.0
H5310 H 0.33454 0.91904 0.01175 0.0
C5311 C 0.35117 0.90242 0.00445 0.0
C5312 C 0.34794 0.90833 0.9986 0.0
H5313 H 0.35102 0.89785 0.01725 0.0
H5314 H 0.35581 0.89773 0.00251 0.0
C5315 C 0.34191 0.9143 0.00136 0.0
C5316 C 0.84039 0.58493 0.76118 0.0
C5317 C 0.84278 0.59083 0.76743 0.0
H5318 H 0.83869 0.58244 0.74794 0.0
C5319 C 0.84541 0.59897 0.76491 0.0
H5320 H 0.83824 0.57864 0.76293 0.0
C5321 C 0.84569 0.60115 0.75632 0.0
C5322 C 0.84327 0.59525 0.75007 0.0
H5323 H 0.84736 0.60362 0.76958 0.0
H5324 H 0.84777 0.60746 0.75458 0.0
C5325 C 0.8406 0.58713 0.75259 0.0
C5326 C 0.16425 0.08637 0.51025 0.0
C5327 C 0.16097 0.09228 0.51606 0.0
H5328 H 0.16413 0.08174 0.49748 0.0
C5329 C 0.15483 0.09813 0.51331 0.0
H5330 H 0.16904 0.08184 0.51219 0.0
C5331 C 0.15198 0.09804 0.50492 0.0
C5332 C 0.15528 0.09216 0.49908 0.0
H5333 H 0.15214 0.10269 0.51769 0.0
H5334 H 0.14721 0.1026 0.503 0.0
C5335 C 0.16147 0.08635 0.50182 0.0
C5336 C 0.16435 0.91276 0.76008 0.0
C5337 C 0.15891 0.90916 0.76616 0.0
H5338 H 0.1681 0.9132 0.74703 0.0
C5339 C 0.153 0.90301 0.76358 0.0
H5340 H 0.16892 0.91757 0.76187 0.0
C5341 C 0.15254 0.90048 0.7551 0.0
C5342 C 0.15794 0.90411 0.749 0.0
H5343 H 0.14877 0.90008 0.76815 0.0
H5344 H 0.14793 0.8957 0.75332 0.0
C5345 C 0.16384 0.91029 0.75158 0.0
C5346 C 0.65295 0.40254 0.48962 0.0
C5347 C 0.65903 0.40857 0.48713 0.0
H5348 H 0.64537 0.39755 0.49972 0.0
C5349 C 0.66218 0.41431 0.49318 0.0
H5350 H 0.65035 0.39809 0.48507 0.0
C5351 C 0.65937 0.41398 0.50158 0.0
C5352 C 0.65328 0.40796 0.50408 0.0
H5353 H 0.66693 0.41897 0.49144 0.0
H5354 H 0.66196 0.41845 0.50611 0.0
C5355 C 0.65007 0.40227 0.498 0.0
C5356 C 0.83689 0.41508 0.74182 0.0
C5357 C 0.84268 0.4121 0.73573 0.0
H5358 H 0.83272 0.41457 0.75474 0.0
C5359 C 0.84881 0.40609 0.73815 0.0
H5360 H 0.83214 0.41976 0.74013 0.0
C5361 C 0.84911 0.40308 0.74648 0.0
C5362 C 0.84335 0.40608 0.75258 0.0
H5363 H 0.8533 0.40362 0.73356 0.0
H5364 H 0.85389 0.39841 0.74813 0.0
C5365 C 0.83725 0.41214 0.75018 0.0
C5366 C 0.65334 0.59591 0.238 0.0
C5367 C 0.65969 0.59011 0.23564 0.0
H5368 H 0.64804 0.60354 0.24789 0.0
C5369 C 0.66561 0.58743 0.24174 0.0
H5370 H 0.64875 0.59814 0.23339 0.0
C5371 C 0.66518 0.59048 0.25006 0.0
C5372 C 0.65888 0.59635 0.2524 0.0
H5373 H 0.67052 0.58291 0.2401 0.0
H5374 H 0.66982 0.58829 0.25463 0.0
C5375 C 0.65297 0.59904 0.24628 0.0
C5376 C 0.51116 0.65923 0.90271 0.0
C5377 C 0.5184 0.65524 0.89934 0.0
H5378 H 0.49761 0.65913 0.90388 0.0
C5379 C 0.51735 0.64788 0.89441 0.0
H5380 H 0.51177 0.66488 0.90657 0.0
C5381 C 0.50925 0.64462 0.89283 0.0
C5382 C 0.50201 0.64859 0.89619 0.0
H5383 H 0.5228 0.64472 0.89165 0.0
H5384 H 0.50867 0.63896 0.88896 0.0
C5385 C 0.50306 0.65592 0.90119 0.0
C5386 C 0.60288 0.26869 0.13571 0.0
C5387 C 0.59954 0.26997 0.14388 0.0
H5388 H 0.60938 0.2603 0.12725 0.0
C5389 C 0.60039 0.26349 0.14994 0.0
H5390 H 0.60243 0.2736 0.13093 0.0
C5391 C 0.60437 0.25583 0.14783 0.0
C5392 C 0.60766 0.25454 0.13963 0.0
H5393 H 0.59783 0.26427 0.15627 0.0
H5394 H 0.60485 0.25092 0.15261 0.0
C5395 C 0.60691 0.26107 0.13361 0.0
C5396 C 0.98965 0.34729 0.40244 0.0
C5397 C 0.9833 0.34784 0.39619 0.0
H5398 H 0.00241 0.35039 0.40602 0.0
C5399 C 0.98506 0.35228 0.38866 0.0
H5400 H 0.98851 0.34386 0.40828 0.0
C5401 C 0.99299 0.35604 0.38737 0.0
C5402 C 0.99938 0.3554 0.39356 0.0
H5403 H 0.98027 0.35292 0.38377 0.0
H5404 H 0.99412 0.3594 0.38148 0.0
C5405 C 0.99762 0.351 0.40112 0.0
C5406 C 0.90936 0.73896 0.65145 0.0
C5407 C 0.90586 0.73167 0.64769 0.0
H5408 H 0.90883 0.75249 0.65269 0.0
C5409 C 0.89899 0.73258 0.64207 0.0
H5410 H 0.91463 0.73844 0.65584 0.0
C5411 C 0.89572 0.74061 0.64021 0.0
C5412 C 0.89918 0.74791 0.644 0.0
H5413 H 0.89623 0.72709 0.63899 0.0
H5414 H 0.89044 0.74109 0.63583 0.0
C5415 C 0.90602 0.74699 0.64966 0.0
C5416 C 0.51894 0.34804 0.61529 0.0
C5417 C 0.52046 0.34499 0.60705 0.0
H5418 H 0.51038 0.35441 0.62369 0.0
C5419 C 0.51416 0.34609 0.60083 0.0
H5420 H 0.52371 0.3474 0.6202 0.0
C5421 C 0.50649 0.35011 0.60283 0.0
C5422 C 0.505 0.35319 0.61107 0.0
H5423 H 0.51512 0.34376 0.59443 0.0
H5424 H 0.50175 0.35085 0.5979 0.0
C5425 C 0.51131 0.3521 0.61728 0.0
C5426 C 0.90176 0.26408 0.85188 0.0
C5427 C 0.90247 0.27053 0.85801 0.0
H5428 H 0.89744 0.25149 0.84906 0.0
C5429 C 0.89904 0.26915 0.86613 0.0
H5430 H 0.90438 0.26493 0.84559 0.0
C5431 C 0.89506 0.26148 0.86811 0.0
C5432 C 0.89445 0.25498 0.86204 0.0
H5433 H 0.89938 0.27403 0.87095 0.0
H5434 H 0.89252 0.26063 0.87444 0.0
C5435 C 0.89782 0.25637 0.85389 0.0
C5436 C 0.98551 0.64873 0.11259 0.0
C5437 C 0.98375 0.65324 0.1051 0.0
H5438 H 0.99459 0.64158 0.11972 0.0
C5439 C 0.9901 0.65387 0.09886 0.0
H5440 H 0.98072 0.64803 0.11746 0.0
C5441 C 0.99808 0.65018 0.10016 0.0
C5442 C 0.99985 0.64571 0.10769 0.0
H5443 H 0.98895 0.65735 0.09305 0.0
H5444 H 0.00287 0.65084 0.09528 0.0
C5445 C 0.99346 0.64499 0.11386 0.0
C5446 C 0.60246 0.73171 0.36609 0.0
C5447 C 0.59897 0.73034 0.358 0.0
H5448 H 0.60908 0.7402 0.37435 0.0
C5449 C 0.59966 0.73678 0.35187 0.0
H5450 H 0.60214 0.72682 0.37092 0.0
C5451 C 0.60364 0.74448 0.35384 0.0
C5452 C 0.60708 0.74586 0.36197 0.0
H5453 H 0.59698 0.73593 0.34559 0.0
H5454 H 0.604 0.74935 0.34901 0.0
C5455 C 0.60649 0.73936 0.36805 0.0
C5456 C 0.9016 0.5125 0.65773 0.0
C5457 C 0.89766 0.51991 0.6547 0.0
H5458 H 0.90284 0.49901 0.65661 0.0
C5459 C 0.89171 0.51923 0.64809 0.0
H5460 H 0.90625 0.51283 0.66279 0.0
C5461 C 0.88971 0.51133 0.6446 0.0
C5462 C 0.89368 0.50392 0.64759 0.0
H5463 H 0.8885 0.52482 0.64569 0.0
H5464 H 0.88507 0.51104 0.63953 0.0
C5465 C 0.89967 0.50459 0.65417 0.0
C5466 C 0.74052 0.65397 0.90469 0.0
C5467 C 0.73418 0.64779 0.90351 0.0
H5468 H 0.75339 0.65768 0.90231 0.0
C5469 C 0.73609 0.64055 0.89866 0.0
H5470 H 0.73926 0.65958 0.90844 0.0
C5471 C 0.74416 0.63946 0.89514 0.0
C5472 C 0.75054 0.64556 0.89642 0.0
H5473 H 0.73132 0.63573 0.89754 0.0
H5474 H 0.74541 0.63379 0.89147 0.0
C5475 C 0.74862 0.65285 0.90121 0.0
C5476 C 0.60019 0.48941 0.15934 0.0
C5477 C 0.60367 0.48212 0.15556 0.0
H5478 H 0.599 0.50295 0.15897 0.0
C5479 C 0.60884 0.48304 0.14835 0.0
H5480 H 0.59615 0.48889 0.16487 0.0
C5481 C 0.61052 0.49108 0.14501 0.0
C5482 C 0.60701 0.49838 0.14875 0.0
H5483 H 0.61169 0.47755 0.14536 0.0
H5484 H 0.61455 0.49157 0.13946 0.0
C5485 C 0.6018 0.49745 0.15594 0.0
C5486 C 0.76497 0.3526 0.40165 0.0
C5487 C 0.77134 0.35874 0.40283 0.0
H5488 H 0.75246 0.34991 0.39703 0.0
C5489 C 0.76988 0.36705 0.39993 0.0
H5490 H 0.76589 0.34616 0.40387 0.0
C5491 C 0.76223 0.3692 0.396 0.0
C5492 C 0.75581 0.3631 0.39492 0.0
H5493 H 0.77471 0.3719 0.40062 0.0
H5494 H 0.76133 0.37567 0.39386 0.0
C5495 C 0.75727 0.35477 0.39777 0.0
C5496 C 0.89371 0.4843 0.85276 0.0
C5497 C 0.89875 0.48326 0.84548 0.0
H5498 H 0.88818 0.49296 0.86165 0.0
C5499 C 0.90222 0.4905 0.84158 0.0
H5500 H 0.89086 0.47886 0.85585 0.0
C5501 C 0.90071 0.49859 0.84491 0.0
C5502 C 0.89561 0.49962 0.85217 0.0
H5503 H 0.90618 0.48989 0.83599 0.0
H5504 H 0.90349 0.50403 0.84177 0.0
C5505 C 0.89213 0.49239 0.85605 0.0
C5506 C 0.76459 0.65135 0.0964 0.0
C5507 C 0.77085 0.64506 0.09555 0.0
H5508 H 0.75209 0.65446 0.10078 0.0
C5509 C 0.76918 0.63687 0.09869 0.0
H5510 H 0.76568 0.6577 0.094 0.0
C5511 C 0.76143 0.63502 0.10258 0.0
C5512 C 0.75514 0.64129 0.10339 0.0
H5513 H 0.77392 0.63191 0.09823 0.0
H5514 H 0.76038 0.62865 0.10494 0.0
C5515 C 0.7568 0.64948 0.10025 0.0
C5516 C 0.61538 0.51838 0.3479 0.0
C5517 C 0.60715 0.52 0.34485 0.0
H5518 H 0.62373 0.50964 0.35407 0.0
C5519 C 0.6009 0.51369 0.34574 0.0
H5520 H 0.6203 0.52316 0.34742 0.0
C5521 C 0.60288 0.5059 0.34954 0.0
C5522 C 0.61111 0.50431 0.35262 0.0
H5523 H 0.59452 0.51474 0.3434 0.0
H5524 H 0.59794 0.50116 0.35012 0.0
C5525 C 0.61733 0.51065 0.35176 0.0
C5526 C 0.73502 0.36174 0.59973 0.0
C5527 C 0.73332 0.35406 0.59552 0.0
H5528 H 0.74403 0.36917 0.60666 0.0
C5529 C 0.73971 0.34785 0.59512 0.0
H5530 H 0.73019 0.3666 0.60023 0.0
C5531 C 0.74767 0.34934 0.59878 0.0
C5532 C 0.74937 0.35702 0.60299 0.0
H5533 H 0.7386 0.3419 0.59187 0.0
H5534 H 0.75249 0.34445 0.59834 0.0
C5535 C 0.74294 0.36319 0.60345 0.0
C5536 C 0.65502 0.89914 0.51255 0.0
C5537 C 0.65226 0.89536 0.52014 0.0
H5538 H 0.65353 0.89995 0.49905 0.0
C5539 C 0.6457 0.88933 0.51982 0.0
H5540 H 0.66003 0.90384 0.51261 0.0
C5541 C 0.64203 0.88704 0.51207 0.0
C5542 C 0.64478 0.89081 0.50447 0.0
H5543 H 0.6435 0.88624 0.52556 0.0
H5544 H 0.63703 0.88232 0.51205 0.0
C5545 C 0.65127 0.89693 0.5048 0.0
C5546 C 0.14895 0.61523 0.48227 0.0
C5547 C 0.15227 0.60706 0.48094 0.0
H5548 H 0.14244 0.62365 0.49069 0.0
C5549 C 0.15138 0.60095 0.48738 0.0
H5550 H 0.14942 0.62004 0.47738 0.0
C5551 C 0.14738 0.60303 0.49504 0.0
C5552 C 0.14411 0.61123 0.49638 0.0
H5553 H 0.15392 0.59462 0.48656 0.0
H5554 H 0.14687 0.59821 0.49992 0.0
C5555 C 0.1449 0.61728 0.48988 0.0
C5556 C 0.6503 0.90411 0.73756 0.0
C5557 C 0.64405 0.90514 0.73128 0.0
H5558 H 0.65323 0.89957 0.75005 0.0
C5559 C 0.63579 0.90218 0.73288 0.0
H5560 H 0.6567 0.90638 0.73653 0.0
C5561 C 0.6338 0.89828 0.74059 0.0
C5562 C 0.64002 0.89729 0.74691 0.0
H5563 H 0.63086 0.90277 0.72813 0.0
H5564 H 0.62737 0.89605 0.74159 0.0
C5565 C 0.64829 0.90025 0.74532 0.0
C5566 C 0.35335 0.38584 0.98272 0.0
C5567 C 0.34989 0.39396 0.98146 0.0
H5568 H 0.35996 0.37745 0.9911 0.0
C5569 C 0.35065 0.40002 0.98796 0.0
H5570 H 0.35297 0.38106 0.97779 0.0
C5571 C 0.35466 0.39795 0.99561 0.0
C5572 C 0.35805 0.38979 0.99689 0.0
H5573 H 0.348 0.40632 0.98719 0.0
H5574 H 0.35507 0.40273 1.00054 0.0
C5575 C 0.3574 0.38378 0.99034 0.0
C5576 C 0.35039 0.59154 0.73984 0.0
C5577 C 0.35403 0.59525 0.73259 0.0
H5578 H 0.34906 0.59192 0.75337 0.0
C5579 C 0.35936 0.60233 0.73359 0.0
H5580 H 0.34621 0.58611 0.73926 0.0
C5581 C 0.36105 0.60562 0.74165 0.0
C5582 C 0.35737 0.60195 0.7489 0.0
H5583 H 0.36234 0.60526 0.72813 0.0
H5584 H 0.3652 0.61107 0.7422 0.0
C5585 C 0.352 0.59489 0.74791 0.0
C5586 C 0.85213 0.11595 0.01954 0.0
C5587 C 0.84886 0.10775 0.02087 0.0
H5588 H 0.85851 0.12443 0.01109 0.0
C5589 C 0.8497 0.10168 0.01439 0.0
H5590 H 0.85169 0.12073 0.02446 0.0
C5591 C 0.85361 0.10381 0.0067 0.0
C5592 C 0.85683 0.11203 0.00536 0.0
H5593 H 0.84719 0.09533 0.01521 0.0
H5594 H 0.85408 0.09902 0.00179 0.0
C5595 C 0.85609 0.11805 0.0119 0.0
C5596 C 0.65031 0.09429 0.76198 0.0
C5597 C 0.64636 0.0972 0.76942 0.0
H5598 H 0.65146 0.09551 0.74848 0.0
C5599 C 0.64025 0.10368 0.76882 0.0
H5600 H 0.65507 0.08933 0.76227 0.0
C5601 C 0.63813 0.10716 0.76095 0.0
C5602 C 0.64213 0.10431 0.7535 0.0
H5603 H 0.63703 0.10598 0.77444 0.0
H5604 H 0.63339 0.11213 0.76071 0.0
C5605 C 0.64826 0.09785 0.7541 0.0
C5606 C 0.84932 0.90974 0.26166 0.0
C5607 C 0.85286 0.90605 0.26896 0.0
H5608 H 0.84817 0.90934 0.24812 0.0
C5609 C 0.85816 0.89893 0.26806 0.0
H5610 H 0.84517 0.91519 0.26216 0.0
C5611 C 0.85993 0.89561 0.26002 0.0
C5612 C 0.85637 0.89928 0.25271 0.0
H5613 H 0.86107 0.89601 0.27356 0.0
H5614 H 0.86407 0.89014 0.25955 0.0
C5615 C 0.85102 0.90636 0.25362 0.0
C5616 C 0.48884 0.3497 0.09551 0.0
C5617 C 0.48659 0.34178 0.09208 0.0
H5618 H 0.49887 0.3583 0.09863 0.0
C5619 C 0.49301 0.33643 0.08899 0.0
H5620 H 0.48402 0.35392 0.09802 0.0
C5621 C 0.50152 0.33893 0.08933 0.0
C5622 C 0.50377 0.34682 0.09283 0.0
H5623 H 0.49146 0.33032 0.08624 0.0
H5624 H 0.50632 0.33466 0.0869 0.0
C5625 C 0.49734 0.35218 0.0959 0.0
C5626 C 0.41363 0.74164 0.83614 0.0
C5627 C 0.41092 0.73558 0.84209 0.0
H5628 H 0.41289 0.75452 0.8319 0.0
C5629 C 0.40518 0.73802 0.84846 0.0
H5630 H 0.4181 0.73994 0.83121 0.0
C5631 C 0.40215 0.74634 0.84883 0.0
C5632 C 0.40487 0.75241 0.8429 0.0
H5633 H 0.40293 0.73345 0.85308 0.0
H5634 H 0.39769 0.74802 0.85379 0.0
C5635 C 0.41067 0.74999 0.83657 0.0
C5636 C 0.01081 0.66338 0.58679 0.0
C5637 C 0.01665 0.65981 0.59251 0.0
H5638 H 0.99792 0.66382 0.5825 0.0
C5639 C 0.01381 0.65372 0.59837 0.0
H5640 H 0.01282 0.66814 0.58226 0.0
C5641 C 0.00531 0.65122 0.59849 0.0
C5642 C 0.99945 0.65481 0.5928 0.0
H5643 H 0.0182 0.65082 0.6028 0.0
H5644 H 0.00332 0.64649 0.60306 0.0
C5645 C 0.00228 0.66093 0.58697 0.0
C5646 C 0.09553 0.26394 0.34921 0.0
C5647 C 0.08981 0.2666 0.34291 0.0
H5648 H 0.10272 0.25366 0.35443 0.0
C5649 C 0.08683 0.26066 0.33696 0.0
H5650 H 0.09799 0.2684 0.35382 0.0
C5651 C 0.08949 0.25221 0.33734 0.0
C5652 C 0.09527 0.24956 0.3436 0.0
H5653 H 0.08236 0.26253 0.33208 0.0
H5654 H 0.08707 0.24777 0.33268 0.0
C5655 C 0.09827 0.25551 0.34952 0.0
C5656 C 0.48791 0.6548 0.40222 0.0
C5657 C 0.48533 0.66096 0.40812 0.0
H5658 H 0.49808 0.64715 0.39748 0.0
C5659 C 0.49132 0.66423 0.41387 0.0
H5660 H 0.4834 0.65211 0.39777 0.0
C5661 C 0.49974 0.66142 0.41368 0.0
C5662 C 0.5023 0.65522 0.4078 0.0
H5663 H 0.48951 0.66903 0.41845 0.0
H5664 H 0.50422 0.66408 0.41816 0.0
C5665 C 0.4963 0.65193 0.40209 0.0
C5666 C 0.08816 0.74062 0.1643 0.0
C5667 C 0.09084 0.73455 0.15834 0.0
H5668 H 0.08888 0.75351 0.1685 0.0
C5669 C 0.09651 0.737 0.15192 0.0
H5670 H 0.08373 0.73891 0.16928 0.0
C5671 C 0.0995 0.74534 0.1515 0.0
C5672 C 0.09681 0.75141 0.15744 0.0
H5673 H 0.09874 0.73244 0.14729 0.0
H5674 H 0.10391 0.74702 0.1465 0.0
C5675 C 0.09107 0.74898 0.16383 0.0
C5676 C 0.01308 0.34744 0.90292 0.0
C5677 C 0.01579 0.3412 0.90869 0.0
H5678 H 0.00273 0.35491 0.89829 0.0
C5679 C 0.00987 0.33765 0.91432 0.0
H5680 H 0.01754 0.35034 0.89856 0.0
C5681 C 0.00138 0.34022 0.91414 0.0
C5682 C 0.99867 0.34648 0.90838 0.0
H5683 H 0.01178 0.33278 0.91878 0.0
H5684 H 0.99695 0.33733 0.91853 0.0
C5685 C 0.00462 0.35008 0.9028 0.0
C5686 C 0.40504 0.2633 0.65225 0.0
C5687 C 0.41092 0.26592 0.65843 0.0
H5688 H 0.39756 0.25312 0.64726 0.0
C5689 C 0.41386 0.25999 0.6644 0.0
H5690 H 0.40261 0.26775 0.64762 0.0
C5691 C 0.41101 0.25159 0.66417 0.0
C5692 C 0.40508 0.24899 0.65803 0.0
H5693 H 0.41843 0.26183 0.66919 0.0
H5694 H 0.4134 0.24716 0.66885 0.0
C5695 C 0.40212 0.25493 0.65208 0.0
C5696 C 0.08692 0.49016 0.33836 0.0
C5697 C 0.09252 0.48406 0.34167 0.0
H5698 H 0.08311 0.50319 0.33821 0.0
C5699 C 0.0987 0.4866 0.34757 0.0
H5700 H 0.08214 0.48839 0.33374 0.0
C5701 C 0.09923 0.49506 0.35017 0.0
C5702 C 0.09365 0.50117 0.34684 0.0
H5703 H 0.10305 0.48202 0.35028 0.0
H5704 H 0.10404 0.49682 0.35477 0.0
C5705 C 0.08751 0.49864 0.34089 0.0
C5706 C 0.2606 0.33707 0.08843 0.0
C5707 C 0.26652 0.34256 0.09221 0.0
H5708 H 0.24765 0.33301 0.08778 0.0
C5709 C 0.26376 0.34824 0.0985 0.0
H5710 H 0.26255 0.33268 0.08351 0.0
C5711 C 0.25525 0.34841 0.10098 0.0
C5712 C 0.24931 0.34296 0.09716 0.0
H5713 H 0.26821 0.35249 0.10157 0.0
H5714 H 0.25332 0.35285 0.10586 0.0
C5715 C 0.25207 0.33729 0.09085 0.0
C5716 C 0.40164 0.51408 0.84743 0.0
C5717 C 0.40788 0.51672 0.84163 0.0
H5718 H 0.3964 0.5038 0.85459 0.0
C5719 C 0.41364 0.51071 0.83843 0.0
H5720 H 0.39717 0.5186 0.85005 0.0
C5721 C 0.41318 0.50224 0.84098 0.0
C5722 C 0.407 0.49961 0.84686 0.0
H5723 H 0.41845 0.51255 0.83388 0.0
H5724 H 0.41771 0.49776 0.8384 0.0
C5725 C 0.40124 0.50562 0.85006 0.0
C5726 C 0.24186 0.66457 0.58787 0.0
C5727 C 0.23599 0.65893 0.5915 0.0
H5728 H 0.25474 0.6689 0.58749 0.0
C5729 C 0.23876 0.65327 0.5978 0.0
H5730 H 0.23991 0.66895 0.58294 0.0
C5731 C 0.24723 0.65326 0.60044 0.0
C5732 C 0.25312 0.65886 0.59677 0.0
H5733 H 0.23435 0.6489 0.60076 0.0
H5734 H 0.24916 0.64883 0.60533 0.0
C5735 C 0.25035 0.6645 0.59044 0.0
C5736 C 0.09469 0.51479 0.15231 0.0
C5737 C 0.09189 0.51711 0.16045 0.0
H5738 H 0.09735 0.50466 0.14366 0.0
C5739 C 0.0895 0.51072 0.16619 0.0
H5740 H 0.09667 0.51957 0.14779 0.0
C5741 C 0.08988 0.50218 0.16383 0.0
C5742 C 0.09272 0.49985 0.1557 0.0
H5743 H 0.08724 0.51233 0.17248 0.0
H5744 H 0.08797 0.4974 0.16839 0.0
C5745 C 0.09513 0.50625 0.14997 0.0
C5746 C 0.24194 0.34007 0.91601 0.0
C5747 C 0.23547 0.34271 0.91047 0.0
H5748 H 0.25529 0.33847 0.91798 0.0
C5749 C 0.23769 0.34589 0.90244 0.0
H5750 H 0.24042 0.33753 0.92221 0.0
C5751 C 0.2462 0.34646 0.90002 0.0
C5752 C 0.25268 0.3438 0.90555 0.0
H5753 H 0.23284 0.34806 0.89808 0.0
H5754 H 0.2477 0.34897 0.8938 0.0
C5755 C 0.25046 0.34058 0.91357 0.0
C5756 C 0.41556 0.49169 0.66357 0.0
C5757 C 0.40966 0.48558 0.66083 0.0
H5758 H 0.4197 0.5046 0.66285 0.0
C5759 C 0.40329 0.48797 0.65507 0.0
H5760 H 0.42049 0.49003 0.66806 0.0
C5761 C 0.40286 0.49629 0.65204 0.0
C5762 C 0.40874 0.50241 0.65479 0.0
H5763 H 0.39871 0.48337 0.6528 0.0
H5764 H 0.3979 0.49793 0.64757 0.0
C5765 C 0.41507 0.50003 0.66061 0.0
C5766 C 0.2635 0.65534 0.40237 0.0
C5767 C 0.26554 0.65849 0.41046 0.0
H5768 H 0.25368 0.65237 0.39346 0.0
C5769 C 0.25896 0.66118 0.41584 0.0
H5770 H 0.26843 0.65313 0.39812 0.0
C5771 C 0.25051 0.66077 0.41317 0.0
C5772 C 0.24846 0.65759 0.40509 0.0
H5773 H 0.26036 0.6637 0.42208 0.0
H5774 H 0.24558 0.66292 0.41745 0.0
C5775 C 0.25504 0.65486 0.39973 0.0
C5776 C 0.34605 0.10094 0.48392 0.0
C5777 C 0.34032 0.0946 0.4814 0.0
H5778 H 0.35357 0.10615 0.49396 0.0
C5779 C 0.33764 0.08856 0.48738 0.0
H5780 H 0.34828 0.10563 0.47941 0.0
C5781 C 0.34063 0.08887 0.49573 0.0
C5782 C 0.34644 0.09517 0.49823 0.0
H5783 H 0.33317 0.08363 0.48563 0.0
H5784 H 0.33845 0.08413 0.5002 0.0
C5785 C 0.34911 0.10121 0.49223 0.0
C5786 C 0.84738 0.40206 0.51319 0.0
C5787 C 0.84162 0.4084 0.5157 0.0
H5788 H 0.85485 0.39682 0.50314 0.0
C5789 C 0.83887 0.41437 0.50968 0.0
H5790 H 0.84966 0.39742 0.51772 0.0
C5791 C 0.8418 0.41401 0.50132 0.0
C5792 C 0.84761 0.40772 0.49883 0.0
H5793 H 0.83438 0.41928 0.51143 0.0
H5794 H 0.83955 0.4187 0.49683 0.0
C5795 C 0.85038 0.40175 0.50486 0.0
C5796 C 0.33816 0.08635 0.25964 0.0
C5797 C 0.34406 0.08913 0.26572 0.0
H5798 H 0.33389 0.08711 0.24677 0.0
C5799 C 0.35031 0.09502 0.26333 0.0
H5800 H 0.33332 0.08176 0.2613 0.0
C5801 C 0.35062 0.09812 0.25503 0.0
C5802 C 0.34473 0.09533 0.24893 0.0
H5803 H 0.3549 0.09732 0.26791 0.0
H5804 H 0.35548 0.10269 0.25339 0.0
C5805 C 0.33852 0.08938 0.25131 0.0
C5806 C 0.65585 0.59928 0.01306 0.0
C5807 C 0.66162 0.59305 0.0158 0.0
H5808 H 0.64861 0.60431 0.00273 0.0
C5809 C 0.66462 0.58705 0.00994 0.0
H5810 H 0.65337 0.60393 0.01746 0.0
C5811 C 0.66194 0.58728 0.00149 0.0
C5812 C 0.65612 0.59347 0.99876 0.0
H5813 H 0.66912 0.58222 0.01187 0.0
H5814 H 0.66438 0.58257 0.99711 0.0
C5815 C 0.6531 0.59945 0.00463 0.0
C5816 C 0.65179 0.40538 0.26391 0.0
C5817 C 0.65781 0.41143 0.26649 0.0
H5818 H 0.64675 0.398 0.25368 0.0
C5819 C 0.66339 0.41485 0.26044 0.0
H5820 H 0.64746 0.40259 0.26846 0.0
C5821 C 0.66296 0.41226 0.25197 0.0
C5822 C 0.65701 0.40614 0.2494 0.0
H5823 H 0.66805 0.41957 0.26225 0.0
H5824 H 0.66736 0.41501 0.24745 0.0
C5825 C 0.65142 0.40273 0.25546 0.0
C5826 C 0.15259 0.90292 0.98757 0.0
C5827 C 0.15883 0.90864 0.98476 0.0
H5828 H 0.14529 0.89832 0.99805 0.0
C5829 C 0.16257 0.91421 0.99063 0.0
H5830 H 0.14955 0.89861 0.98316 0.0
C5831 C 0.16017 0.91402 0.99917 0.0
C5832 C 0.15391 0.90831 0.00198 0.0
H5833 H 0.16745 0.91863 0.98865 0.0
H5834 H 0.1632 0.91836 0.00355 0.0
C5835 C 0.15012 0.90279 0.99609 0.0
C5836 C 0.3386 0.91551 0.24216 0.0
C5837 C 0.34157 0.91016 0.23567 0.0
H5838 H 0.3365 0.91717 0.25547 0.0
C5839 C 0.34482 0.90215 0.23783 0.0
H5840 H 0.33597 0.92169 0.24068 0.0
C5841 C 0.34514 0.89955 0.24631 0.0
C5842 C 0.34215 0.9049 0.25279 0.0
H5843 H 0.34724 0.89792 0.23298 0.0
H5844 H 0.34772 0.89335 0.24777 0.0
C5845 C 0.33886 0.9129 0.25062 0.0
C5846 C 0.16268 0.08373 0.74255 0.0
C5847 C 0.16021 0.08932 0.73607 0.0
H5848 H 0.16421 0.08174 0.7559 0.0
C5849 C 0.15724 0.09744 0.73827 0.0
H5850 H 0.16508 0.07746 0.74105 0.0
C5851 C 0.15673 0.0999 0.74677 0.0
C5852 C 0.15923 0.0943 0.75326 0.0
H5853 H 0.1552 0.10186 0.73341 0.0
H5854 H 0.15438 0.10618 0.74826 0.0
C5855 C 0.16222 0.0862 0.75106 0.0
C5856 C 0.10443 0.14129 0.43539 0.0
C5857 C 0.09654 0.14068 0.43952 0.0
H5858 H 0.11764 0.13817 0.43553 0.0
C5859 C 0.09612 0.13646 0.44737 0.0
H5860 H 0.10496 0.14439 0.42928 0.0
C5861 C 0.1034 0.13284 0.45094 0.0
C5862 C 0.11126 0.13335 0.44673 0.0
H5863 H 0.09017 0.13597 0.45077 0.0
H5864 H 0.10285 0.12958 0.45696 0.0
C5865 C 0.1117 0.13768 0.43895 0.0
C5866 C 0.10834 0.85265 0.68528 0.0
C5867 C 0.1095 0.84487 0.68949 0.0
H5868 H 0.11094 0.86596 0.68502 0.0
C5869 C 0.11426 0.84473 0.69703 0.0
H5870 H 0.10482 0.85296 0.67938 0.0
C5871 C 0.11781 0.8522 0.70026 0.0
C5872 C 0.11671 0.85997 0.696 0.0
H5873 H 0.11521 0.83885 0.70046 0.0
H5874 H 0.12148 0.85188 0.70607 0.0
C5875 C 0.1119 0.8601 0.68849 0.0
C5876 C 0.39786 0.85906 0.93466 0.0
C5877 C 0.40569 0.85965 0.93892 0.0
H5878 H 0.38464 0.86212 0.93464 0.0
C5879 C 0.406 0.86381 0.9468 0.0
H5880 H 0.39743 0.85601 0.92852 0.0
C5881 C 0.39864 0.86735 0.95031 0.0
C5882 C 0.39084 0.86684 0.94599 0.0
H5883 H 0.41191 0.8643 0.95027 0.0
H5884 H 0.3991 0.87056 0.95638 0.0
C5885 C 0.39053 0.86261 0.93815 0.0
C5886 C 0.39404 0.1484 0.18613 0.0
C5887 C 0.39257 0.15622 0.19017 0.0
H5888 H 0.39185 0.13501 0.18609 0.0
C5889 C 0.38769 0.15636 0.19763 0.0
H5890 H 0.39766 0.14808 0.18029 0.0
C5891 C 0.38432 0.14884 0.20095 0.0
C5892 C 0.38572 0.14104 0.19684 0.0
H5893 H 0.38651 0.16227 0.20093 0.0
H5894 H 0.38056 0.14917 0.20669 0.0
C5895 C 0.39066 0.1409 0.18942 0.0
C5896 C 0.09561 0.86454 0.05468 0.0
C5897 C 0.09597 0.86003 0.06237 0.0
H5898 H 0.10247 0.8716 0.04531 0.0
C5899 C 0.10384 0.85917 0.06649 0.0
H5900 H 0.08966 0.86525 0.05131 0.0
C5901 C 0.11117 0.86277 0.06306 0.0
C5902 C 0.11082 0.86734 0.05541 0.0
H5903 H 0.10432 0.85585 0.0725 0.0
H5904 H 0.1171 0.86205 0.06646 0.0
C5905 C 0.10296 0.86814 0.05123 0.0
C5906 C 0.38778 0.84612 0.30425 0.0
C5907 C 0.39208 0.84646 0.31207 0.0
H5908 H 0.38081 0.85295 0.29479 0.0
C5909 C 0.39266 0.85429 0.31632 0.0
H5910 H 0.38729 0.84021 0.30078 0.0
C5911 C 0.38899 0.86158 0.31288 0.0
C5912 C 0.38463 0.86124 0.30511 0.0
H5913 H 0.39581 0.85475 0.32241 0.0
H5914 H 0.38949 0.86748 0.31638 0.0
C5915 C 0.38411 0.85344 0.3008 0.0
C5916 C 0.40613 0.13792 0.5536 0.0
C5917 C 0.40577 0.14148 0.56177 0.0
H5918 H 0.39935 0.13168 0.54361 0.0
C5919 C 0.398 0.14142 0.56616 0.0
H5920 H 0.41201 0.13794 0.55004 0.0
C5921 C 0.39075 0.13787 0.56248 0.0
C5922 C 0.3911 0.13429 0.55432 0.0
H5923 H 0.39753 0.144 0.57251 0.0
H5924 H 0.38489 0.13788 0.56607 0.0
C5925 C 0.39887 0.13438 0.54991 0.0
C5926 C 0.10845 0.14658 0.81557 0.0
C5927 C 0.10986 0.15448 0.81168 0.0
H5928 H 0.11087 0.13323 0.81544 0.0
C5929 C 0.11484 0.1548 0.80428 0.0
H5930 H 0.10476 0.14611 0.82134 0.0
C5931 C 0.1184 0.1474 0.80091 0.0
C5932 C 0.11707 0.13951 0.80488 0.0
H5933 H 0.11598 0.16078 0.80108 0.0
H5934 H 0.12225 0.14787 0.79524 0.0
C5935 C 0.112 0.13919 0.81221 0.0
C5936 C 0.4464 0.0987 0.14341 0.0
C5937 C 0.44307 0.09169 0.13899 0.0
H5938 H 0.45255 0.11079 0.1426 0.0
C5939 C 0.44378 0.09149 0.1301 0.0
H5940 H 0.44606 0.099 0.15026 0.0
C5941 C 0.44755 0.09821 0.12572 0.0
C5942 C 0.45068 0.10531 0.13011 0.0
H5943 H 0.44118 0.08625 0.12648 0.0
H5944 H 0.44785 0.0979 0.11886 0.0
C5945 C 0.45015 0.10544 0.13902 0.0
C5946 C 0.1465 0.18388 0.38888 0.0
C5947 C 0.15325 0.18913 0.39142 0.0
H5948 H 0.13427 0.18308 0.38305 0.0
C5949 C 0.15269 0.1979 0.38992 0.0
H5950 H 0.14679 0.17708 0.38984 0.0
C5951 C 0.1455 0.20135 0.38602 0.0
C5952 C 0.13874 0.19609 0.38349 0.0
H5953 H 0.15777 0.20211 0.39187 0.0
H5954 H 0.14524 0.20814 0.38497 0.0
C5955 C 0.13933 0.18732 0.38495 0.0
C5956 C 0.05572 0.90247 0.64381 0.0
C5957 C 0.05887 0.90953 0.63933 0.0
H5958 H 0.04957 0.89037 0.64314 0.0
C5959 C 0.05786 0.90977 0.63047 0.0
H5960 H 0.05629 0.90213 0.65065 0.0
C5961 C 0.05396 0.90307 0.62618 0.0
C5962 C 0.05099 0.89594 0.63063 0.0
H5963 H 0.06031 0.91504 0.6268 0.0
H5964 H 0.05342 0.90342 0.61933 0.0
C5965 C 0.05184 0.89575 0.63951 0.0
C5966 C 0.35413 0.81633 0.89257 0.0
C5967 C 0.34636 0.81195 0.89223 0.0
H5968 H 0.36731 0.81643 0.88932 0.0
C5969 C 0.34609 0.80395 0.8883 0.0
H5970 H 0.35452 0.82257 0.89544 0.0
C5971 C 0.35344 0.80043 0.88476 0.0
C5972 C 0.36119 0.80486 0.88504 0.0
H5973 H 0.34022 0.80039 0.888 0.0
H5974 H 0.35302 0.79427 0.88175 0.0
C5975 C 0.36146 0.81283 0.88902 0.0
C5976 C 0.43528 0.89577 0.36057 0.0
C5977 C 0.44009 0.90325 0.35981 0.0
H5978 H 0.43482 0.88292 0.36488 0.0
C5979 C 0.44848 0.9033 0.36285 0.0
H5980 H 0.42875 0.89556 0.35841 0.0
C5981 C 0.45196 0.89604 0.3666 0.0
C5982 C 0.44711 0.8886 0.36742 0.0
H5983 H 0.45238 0.90894 0.36228 0.0
H5984 H 0.45844 0.8963 0.3689 0.0
C5985 C 0.43874 0.88854 0.36433 0.0
C5986 C 0.35453 0.18385 0.60939 0.0
C5987 C 0.3468 0.18832 0.60931 0.0
H5988 H 0.36758 0.18371 0.61312 0.0
C5989 C 0.3465 0.19644 0.61298 0.0
H5990 H 0.35495 0.17753 0.60673 0.0
C5991 C 0.35375 0.19999 0.61668 0.0
C5992 C 0.36146 0.19548 0.61682 0.0
H5993 H 0.34066 0.20008 0.61295 0.0
H5994 H 0.3533 0.20625 0.61948 0.0
C5995 C 0.36176 0.18738 0.61311 0.0
C5996 C 0.05375 0.09718 0.86473 0.0
C5997 C 0.06121 0.09747 0.85985 0.0
H5998 H 0.04463 0.10415 0.87201 0.0
C5999 C 0.06512 0.10537 0.85843 0.0
H6000 H 0.05053 0.09121 0.86587 0.0
C6001 C 0.06172 0.11279 0.8619 0.0
C6002 C 0.05434 0.11248 0.8669 0.0
H6003 H 0.07094 0.10582 0.8548 0.0
H6004 H 0.06496 0.11874 0.86078 0.0
C6005 C 0.05035 0.1046 0.86822 0.0
C6006 C 0.14771 0.81618 0.10809 0.0
C6007 C 0.15555 0.81196 0.10877 0.0
H6008 H 0.13445 0.81613 0.111 0.0
C6009 C 0.15584 0.80409 0.11296 0.0
H6010 H 0.14727 0.82231 0.10503 0.0
C6011 C 0.14847 0.80055 0.11642 0.0
C6012 C 0.14065 0.80482 0.11581 0.0
H6013 H 0.16177 0.80065 0.11352 0.0
H6014 H 0.14892 0.79449 0.11964 0.0
C6015 C 0.14035 0.81265 0.11157 0.0
C6016 C 0.14326 0.43593 0.10431 0.0
C6017 C 0.14197 0.43978 0.09636 0.0
H6018 H 0.14066 0.43613 0.11763 0.0
C6019 C 0.13698 0.44716 0.09593 0.0
H6020 H 0.14696 0.43016 0.10487 0.0
C6021 C 0.13331 0.45057 0.10327 0.0
C6022 C 0.13454 0.44665 0.1112 0.0
H6023 H 0.13593 0.45033 0.08992 0.0
H6024 H 0.12946 0.45624 0.10271 0.0
C6025 C 0.1396 0.43933 0.11164 0.0
C6026 C 0.64168 0.06653 0.89695 0.0
C6027 C 0.64126 0.06192 0.90458 0.0
H6028 H 0.63848 0.06706 0.88378 0.0
C6029 C 0.63722 0.05397 0.90459 0.0
H6030 H 0.64463 0.07273 0.89675 0.0
C6031 C 0.63365 0.05072 0.89713 0.0
C6032 C 0.63403 0.05537 0.88952 0.0
H6033 H 0.63686 0.05023 0.91034 0.0
H6034 H 0.63057 0.04458 0.89735 0.0
C6035 C 0.6381 0.06329 0.88951 0.0
C6036 C 0.1852 0.39248 0.14745 0.0
C6037 C 0.18948 0.39188 0.15526 0.0
H6038 H 0.18505 0.38926 0.13427 0.0
C6039 C 0.19725 0.38751 0.15558 0.0
H6040 H 0.17914 0.39569 0.147 0.0
C6041 C 0.20063 0.38378 0.14827 0.0
C6042 C 0.1963 0.38431 0.14049 0.0
H6043 H 0.20075 0.38701 0.16148 0.0
H6044 H 0.20661 0.38042 0.14874 0.0
C6045 C 0.18857 0.38875 0.14015 0.0
C6046 C 0.86548 0.94699 0.40465 0.0
C6047 C 0.86095 0.93932 0.4043 0.0
H6048 H 0.87255 0.95636 0.3978 0.0
C6049 C 0.85999 0.93525 0.39642 0.0
H6050 H 0.86626 0.95033 0.41061 0.0
C6051 C 0.86355 0.93871 0.38908 0.0
C6052 C 0.86818 0.94633 0.38944 0.0
H6053 H 0.85664 0.92926 0.39593 0.0
H6054 H 0.86277 0.93535 0.38314 0.0
C6055 C 0.86905 0.95047 0.3973 0.0
C6056 C 0.81667 0.1096 0.14634 0.0
C6057 C 0.81228 0.1101 0.15409 0.0
H6058 H 0.81697 0.11291 0.13319 0.0
C6059 C 0.80447 0.11441 0.15434 0.0
H6060 H 0.82277 0.10645 0.14595 0.0
C6061 C 0.80115 0.11816 0.147 0.0
C6062 C 0.80559 0.11771 0.13927 0.0
H6063 H 0.80089 0.11483 0.16019 0.0
H6064 H 0.79513 0.12146 0.14741 0.0
C6065 C 0.81337 0.11335 0.13902 0.0
C6066 C 0.36296 0.55361 0.59585 0.0
C6067 C 0.35857 0.56137 0.59614 0.0
H6068 H 0.36994 0.54423 0.60278 0.0
C6069 C 0.35781 0.5656 0.60396 0.0
H6070 H 0.36358 0.55015 0.58995 0.0
C6071 C 0.36142 0.5622 0.61131 0.0
C6072 C 0.36588 0.55449 0.61102 0.0
H6073 H 0.35459 0.57166 0.60438 0.0
H6074 H 0.36079 0.56569 0.6172 0.0
C6075 C 0.36656 0.5502 0.60322 0.0
C6076 C 0.19558 0.6073 0.34959 0.0
C6077 C 0.19238 0.61178 0.34256 0.0
H6078 H 0.20177 0.60796 0.36168 0.0
C6079 C 0.19332 0.62066 0.34236 0.0
H6080 H 0.19507 0.60045 0.34991 0.0
C6081 C 0.19722 0.62495 0.34907 0.0
C6082 C 0.20024 0.62048 0.35618 0.0
H6083 H 0.19083 0.62434 0.33712 0.0
H6084 H 0.19771 0.63179 0.34875 0.0
C6085 C 0.19945 0.6116 0.35633 0.0
C6086 C 0.30582 0.39322 0.84961 0.0
C6087 C 0.30907 0.38872 0.84262 0.0
H6088 H 0.29959 0.39257 0.86167 0.0
C6089 C 0.30819 0.37985 0.84244 0.0
H6090 H 0.30629 0.40007 0.8499 0.0
C6091 C 0.30431 0.37556 0.84916 0.0
C6092 C 0.30123 0.38003 0.85623 0.0
H6093 H 0.31073 0.37616 0.83722 0.0
H6094 H 0.30386 0.36871 0.84886 0.0
C6095 C 0.30195 0.38892 0.85635 0.0
C6096 C 0.90178 0.86513 0.56008 0.0
C6097 C 0.9095 0.86528 0.55563 0.0
H6098 H 0.88883 0.86905 0.56055 0.0
C6099 C 0.91001 0.86996 0.54804 0.0
H6100 H 0.90122 0.86174 0.56603 0.0
C6101 C 0.90286 0.87423 0.54489 0.0
C6102 C 0.8951 0.87392 0.54929 0.0
H6103 H 0.91588 0.87017 0.54446 0.0
H6104 H 0.90339 0.87767 0.53896 0.0
C6105 C 0.89468 0.86939 0.55696 0.0
C6106 C 0.88328 0.16082 0.29699 0.0
C6107 C 0.88658 0.16041 0.30527 0.0
H6108 H 0.87654 0.1543 0.2871 0.0
C6109 C 0.88515 0.15308 0.31013 0.0
H6110 H 0.88429 0.16639 0.2931 0.0
C6111 C 0.88072 0.14622 0.30673 0.0
C6112 C 0.87761 0.14649 0.29837 0.0
H6113 H 0.88747 0.15264 0.31659 0.0
H6114 H 0.87985 0.14064 0.31065 0.0
C6115 C 0.87885 0.1539 0.29356 0.0
C6116 C 0.58994 0.13218 0.04873 0.0
C6117 C 0.59032 0.13464 0.0573 0.0
H6118 H 0.59642 0.12632 0.03828 0.0
C6119 C 0.59752 0.13247 0.06209 0.0
H6120 H 0.58448 0.13377 0.04487 0.0
C6121 C 0.60431 0.12821 0.05835 0.0
C6122 C 0.6041 0.12602 0.04971 0.0
H6123 H 0.59793 0.13412 0.06875 0.0
H6124 H 0.60981 0.1268 0.06222 0.0
C6125 C 0.59678 0.12792 0.04495 0.0
C6126 C 0.6129 0.84874 0.80854 0.0
C6127 C 0.61335 0.84088 0.80438 0.0
H6128 H 0.61648 0.86179 0.80863 0.0
C6129 C 0.61811 0.84025 0.79685 0.0
H6130 H 0.60944 0.84941 0.81444 0.0
C6131 C 0.62223 0.8474 0.79351 0.0
C6132 C 0.62169 0.85528 0.79766 0.0
H6133 H 0.61855 0.83428 0.79348 0.0
H6134 H 0.6258 0.84676 0.78766 0.0
C6135 C 0.617 0.85584 0.80523 0.0
C6136 C 0.9093 0.1319 0.95252 0.0
C6137 C 0.90877 0.13566 0.94444 0.0
H6138 H 0.90282 0.12501 0.96232 0.0
C6139 C 0.90114 0.13496 0.93987 0.0
H6140 H 0.91508 0.13237 0.95622 0.0
C6141 C 0.89416 0.13078 0.94335 0.0
C6142 C 0.8946 0.12718 0.9515 0.0
H6143 H 0.90056 0.13762 0.93356 0.0
H6144 H 0.88837 0.13045 0.93965 0.0
C6145 C 0.90228 0.12772 0.95603 0.0
C6146 C 0.61864 0.16074 0.70395 0.0
C6147 C 0.61352 0.16006 0.69665 0.0
H6148 H 0.62677 0.1543 0.71279 0.0
C6149 C 0.61292 0.15217 0.69255 0.0
H6150 H 0.61921 0.16674 0.70726 0.0
C6151 C 0.6172 0.14511 0.6957 0.0
C6152 C 0.62224 0.14572 0.70303 0.0
H6153 H 0.60919 0.15145 0.68682 0.0
H6154 H 0.61654 0.13914 0.69234 0.0
C6155 C 0.62294 0.15362 0.70712 0.0
C6156 C 0.5932 0.86959 0.45257 0.0
C6157 C 0.59402 0.86413 0.44555 0.0
H6158 H 0.59951 0.87784 0.46139 0.0
C6159 C 0.6021 0.86297 0.44195 0.0
H6160 H 0.58707 0.87058 0.45553 0.0
C6161 C 0.60918 0.86707 0.44531 0.0
C6162 C 0.6084 0.87248 0.45235 0.0
H6163 H 0.60295 0.85896 0.43643 0.0
H6164 H 0.61529 0.866 0.44234 0.0
C6165 C 0.60032 0.87372 0.45595 0.0
C6166 C 0.88414 0.84804 0.19068 0.0
C6167 C 0.88595 0.84064 0.1953 0.0
H6168 H 0.87882 0.86049 0.19075 0.0
C6169 C 0.88324 0.84009 0.20379 0.0
H6170 H 0.88598 0.84859 0.18408 0.0
C6171 C 0.87907 0.84694 0.20764 0.0
C6172 C 0.87751 0.85444 0.20306 0.0
H6173 H 0.88456 0.83447 0.20752 0.0
H6174 H 0.87726 0.84643 0.21425 0.0
C6175 C 0.87996 0.85484 0.1945 0.0
C6176 C 0.54613 0.90938 0.86386 0.0
C6177 C 0.55295 0.91405 0.86724 0.0
H6178 H 0.53739 0.89913 0.8656 0.0
C6179 C 0.55579 0.91217 0.87548 0.0
H6180 H 0.54374 0.91075 0.85756 0.0
C6181 C 0.55218 0.90551 0.88009 0.0
C6182 C 0.54559 0.90061 0.87657 0.0
H6183 H 0.56107 0.91561 0.87824 0.0
H6184 H 0.55473 0.90403 0.8863 0.0
C6185 C 0.54246 0.90276 0.8685 0.0
C6186 C 0.84857 0.81001 0.61609 0.0
C6187 C 0.84124 0.80515 0.61466 0.0
H6188 H 0.86099 0.81057 0.62143 0.0
C6189 C 0.84082 0.79689 0.61802 0.0
H6190 H 0.84902 0.81645 0.61373 0.0
C6191 C 0.84772 0.79348 0.62249 0.0
C6192 C 0.85513 0.79831 0.62373 0.0
H6193 H 0.83524 0.79299 0.61701 0.0
H6194 H 0.84731 0.78704 0.62485 0.0
C6195 C 0.85542 0.80665 0.62057 0.0
C6196 C 0.9532 0.09219 0.37062 0.0
C6197 C 0.94654 0.09288 0.3647 0.0
H6198 H 0.96147 0.09871 0.37928 0.0
C6199 C 0.94298 0.10091 0.36316 0.0
H6200 H 0.95609 0.0861 0.37193 0.0
C6201 C 0.94606 0.10809 0.36731 0.0
C6202 C 0.95277 0.10745 0.37316 0.0
H6203 H 0.93773 0.10166 0.35878 0.0
H6204 H 0.94315 0.11416 0.36592 0.0
C6205 C 0.95629 0.09942 0.37481 0.0
C6206 C 0.65172 0.19138 0.11485 0.0
C6207 C 0.65953 0.19566 0.1152 0.0
H6208 H 0.63871 0.1911 0.11858 0.0
C6209 C 0.66013 0.20313 0.12005 0.0
H6210 H 0.65108 0.18551 0.11132 0.0
C6211 C 0.65299 0.20635 0.12428 0.0
C6212 C 0.64515 0.20212 0.12377 0.0
H6213 H 0.66607 0.20658 0.12042 0.0
H6214 H 0.6536 0.21218 0.12786 0.0
C6215 C 0.64463 0.19456 0.11907 0.0
C6216 C 0.54782 0.08941 0.63111 0.0
C6217 C 0.54789 0.0886 0.64 0.0
H6218 H 0.54398 0.09683 0.62039 0.0
C6219 C 0.54328 0.09448 0.64488 0.0
H6220 H 0.55135 0.08502 0.62717 0.0
C6221 C 0.53909 0.10126 0.64101 0.0
C6222 C 0.5394 0.10233 0.63216 0.0
H6223 H 0.54307 0.09394 0.65173 0.0
H6224 H 0.53584 0.10582 0.64499 0.0
C6225 C 0.54362 0.0962 0.62723 0.0
C6226 C 0.6596 0.79711 0.38224 0.0
C6227 C 0.65872 0.80385 0.38804 0.0
H6228 H 0.65334 0.78857 0.37367 0.0
C6229 C 0.65058 0.80716 0.38956 0.0
H6230 H 0.66577 0.79438 0.38097 0.0
C6231 C 0.64349 0.80382 0.38544 0.0
C6232 C 0.64434 0.79709 0.37965 0.0
H6233 H 0.64967 0.81246 0.39384 0.0
H6234 H 0.63734 0.80658 0.38677 0.0
C6235 C 0.65247 0.79376 0.37808 0.0
C6236 C 0.95378 0.90961 0.13154 0.0
C6237 C 0.94655 0.90889 0.13674 0.0
H6238 H 0.96269 0.90318 0.12347 0.0
C6239 C 0.9426 0.90094 0.13752 0.0
H6240 H 0.95699 0.91564 0.13084 0.0
C6241 C 0.94585 0.89385 0.13335 0.0
C6242 C 0.95314 0.8945 0.12825 0.0
H6243 H 0.93692 0.90019 0.14132 0.0
H6244 H 0.94262 0.88783 0.13415 0.0
C6245 C 0.95706 0.90247 0.12735 0.0
C6246 C 0.85065 0.19047 0.88632 0.0
C6247 C 0.84279 0.19468 0.88622 0.0
H6248 H 0.86362 0.19048 0.88245 0.0
C6249 C 0.84209 0.20237 0.88174 0.0
H6250 H 0.85137 0.18445 0.88955 0.0
C6251 C 0.84915 0.20584 0.87758 0.0
C6252 C 0.85703 0.20165 0.87781 0.0
H6253 H 0.83613 0.20579 0.88158 0.0
H6254 H 0.84845 0.21182 0.87427 0.0
C6255 C 0.85767 0.19391 0.88218 0.0
C6256 C 0.8699 0.56151 0.90369 0.0
C6257 C 0.86742 0.55686 0.91087 0.0
H6258 H 0.87572 0.56132 0.89146 0.0
C6259 C 0.86954 0.5482 0.91134 0.0
H6260 H 0.86852 0.56823 0.90321 0.0
C6261 C 0.87371 0.54421 0.90458 0.0
C6262 C 0.87588 0.54882 0.89725 0.0
H6263 H 0.86769 0.54445 0.91679 0.0
H6264 H 0.875 0.53747 0.90499 0.0
C6265 C 0.87409 0.55755 0.89697 0.0
C6266 C 0.36722 0.94203 0.09796 0.0
C6267 C 0.36494 0.94645 0.09057 0.0
H6268 H 0.37257 0.94264 0.11039 0.0
C6269 C 0.36691 0.95513 0.08997 0.0
H6270 H 0.36596 0.93529 0.09856 0.0
C6271 C 0.37075 0.95937 0.09678 0.0
C6272 C 0.37273 0.95499 0.10429 0.0
H6273 H 0.36521 0.95871 0.08435 0.0
H6274 H 0.37194 0.96612 0.09624 0.0
C6275 C 0.37107 0.94624 0.10473 0.0
C6276 C 0.79183 0.60403 0.84462 0.0
C6277 C 0.79666 0.60979 0.83983 0.0
H6278 H 0.78323 0.60222 0.85493 0.0
C6279 C 0.79592 0.61851 0.84156 0.0
H6280 H 0.79212 0.59729 0.84333 0.0
C6281 C 0.79076 0.62137 0.84822 0.0
C6282 C 0.78624 0.61555 0.85325 0.0
H6283 H 0.79958 0.62311 0.838 0.0
H6284 H 0.79056 0.6281 0.8496 0.0
C6285 C 0.78669 0.60687 0.85125 0.0
C6286 C 0.13426 0.04658 0.58992 0.0
C6287 C 0.13617 0.05529 0.59035 0.0
H6288 H 0.12914 0.03573 0.59636 0.0
C6289 C 0.13366 0.05989 0.59756 0.0
H6290 H 0.13613 0.04286 0.58445 0.0
C6291 C 0.12967 0.05584 0.60433 0.0
C6292 C 0.12809 0.04707 0.60409 0.0
H6293 H 0.13488 0.06665 0.598 0.0
H6294 H 0.12802 0.05958 0.60986 0.0
C6295 C 0.13028 0.0425 0.59674 0.0
C6296 C 0.1948 0.8902 0.85085 0.0
C6297 C 0.19797 0.8885 0.84269 0.0
H6298 H 0.19552 0.88758 0.86411 0.0
C6299 C 0.2046 0.88258 0.8418 0.0
H6300 H 0.18959 0.89458 0.85177 0.0
C6301 C 0.20797 0.87846 0.84893 0.0
C6302 C 0.20478 0.88019 0.85708 0.0
H6303 H 0.20722 0.88117 0.83561 0.0
H6304 H 0.21307 0.87393 0.84805 0.0
C6305 C 0.19817 0.88612 0.85794 0.0
C6306 C 0.63446 0.45468 0.41182 0.0
C6307 C 0.6375 0.44629 0.41153 0.0
H6308 H 0.62811 0.46471 0.40514 0.0
C6309 C 0.63598 0.44141 0.40424 0.0
H6310 H 0.63555 0.4586 0.41737 0.0
C6311 C 0.63173 0.44487 0.3973 0.0
C6312 C 0.62889 0.45332 0.39745 0.0
H6313 H 0.63809 0.43488 0.40388 0.0
H6314 H 0.63077 0.44092 0.39176 0.0
C6315 C 0.63022 0.45818 0.40482 0.0
C6316 C 0.79636 0.38403 0.66268 0.0
C6317 C 0.80512 0.38575 0.66259 0.0
H6318 H 0.78573 0.37878 0.65596 0.0
C6319 C 0.81003 0.38275 0.65579 0.0
H6320 H 0.79242 0.38627 0.66784 0.0
C6321 C 0.80624 0.37846 0.64904 0.0
C6322 C 0.79743 0.37708 0.6489 0.0
H6323 H 0.81682 0.38383 0.65562 0.0
H6324 H 0.81022 0.37643 0.64381 0.0
C6325 C 0.79254 0.37975 0.65587 0.0
C6326 C 0.6914 0.61799 0.15468 0.0
C6327 C 0.69647 0.61564 0.16163 0.0
H6328 H 0.69078 0.62402 0.14259 0.0
C6329 C 0.70505 0.61811 0.16175 0.0
H6330 H 0.68473 0.61632 0.15448 0.0
C6331 C 0.70856 0.62255 0.15489 0.0
C6332 C 0.70352 0.62466 0.14783 0.0
H6333 H 0.7091 0.61638 0.16703 0.0
H6334 H 0.71524 0.62418 0.15504 0.0
C6335 C 0.69487 0.62245 0.14788 0.0
C6336 C 0.59766 0.63779 0.94685 0.0
C6337 C 0.59745 0.64073 0.93844 0.0
H6338 H 0.60504 0.63202 0.95671 0.0
C6339 C 0.60482 0.64003 0.93345 0.0
H6340 H 0.59211 0.63832 0.95088 0.0
C6341 C 0.61222 0.63645 0.93678 0.0
C6342 C 0.61243 0.6335 0.94518 0.0
H6343 H 0.60483 0.64211 0.9269 0.0
H6344 H 0.61775 0.63595 0.93272 0.0
C6345 C 0.60509 0.63424 0.9502 0.0
C6346 C 0.60847 0.35312 0.18581 0.0
C6347 C 0.60998 0.34529 0.18981 0.0
H6348 H 0.61066 0.36651 0.18578 0.0
C6349 C 0.61495 0.34513 0.19722 0.0
H6350 H 0.60478 0.35345 0.18001 0.0
C6351 C 0.61837 0.35264 0.20051 0.0
C6352 C 0.61692 0.36045 0.19645 0.0
H6353 H 0.61617 0.33921 0.20049 0.0
H6354 H 0.6222 0.3523 0.20621 0.0
C6355 C 0.61189 0.36061 0.18909 0.0
C6356 C 0.90649 0.36299 0.44695 0.0
C6357 C 0.9064 0.35945 0.43876 0.0
H6358 H 0.89939 0.36919 0.45674 0.0
C6359 C 0.89875 0.35946 0.43415 0.0
H6360 H 0.91227 0.36301 0.45068 0.0
C6361 C 0.89139 0.36297 0.43761 0.0
C6362 C 0.89148 0.36655 0.44577 0.0
H6363 H 0.89849 0.35689 0.42778 0.0
H6364 H 0.88564 0.36293 0.43384 0.0
C6365 C 0.8991 0.36648 0.45043 0.0
C6366 C 0.88697 0.65423 0.69711 0.0
C6367 C 0.89093 0.65395 0.68912 0.0
H6368 H 0.88022 0.64739 0.70672 0.0
C6369 C 0.8911 0.64621 0.68468 0.0
H6370 H 0.88681 0.66008 0.70072 0.0
C6371 C 0.88737 0.63894 0.68812 0.0
C6372 C 0.88336 0.63923 0.69607 0.0
H6373 H 0.89398 0.64579 0.67846 0.0
H6374 H 0.88756 0.63311 0.68448 0.0
C6375 C 0.88324 0.64695 0.70056 0.0
C6376 C 0.59101 0.37062 0.55835 0.0
C6377 C 0.59121 0.36171 0.55886 0.0
H6378 H 0.59739 0.38194 0.55445 0.0
C6379 C 0.59818 0.35737 0.55536 0.0
H6380 H 0.58581 0.37419 0.56108 0.0
C6381 C 0.60489 0.36183 0.55163 0.0
C6382 C 0.60476 0.37074 0.5513 0.0
H6383 H 0.59848 0.3505 0.55553 0.0
H6384 H 0.61021 0.3583 0.54909 0.0
C6385 C 0.5977 0.37508 0.55459 0.0
C6386 C 0.89348 0.35361 0.8158 0.0
C6387 C 0.89211 0.34573 0.81185 0.0
H6388 H 0.89108 0.36697 0.81572 0.0
C6389 C 0.8872 0.34545 0.8044 0.0
H6390 H 0.89712 0.35404 0.82162 0.0
C6391 C 0.88369 0.35288 0.80103 0.0
C6392 C 0.88498 0.36075 0.80506 0.0
H6393 H 0.88609 0.3395 0.80115 0.0
H6394 H 0.87989 0.35245 0.79531 0.0
C6395 C 0.88997 0.36103 0.81244 0.0
C6396 C 0.90738 0.63717 0.05451 0.0
C6397 C 0.90715 0.64131 0.06241 0.0
H6398 H 0.90041 0.63042 0.04499 0.0
C6399 C 0.89938 0.64181 0.06677 0.0
H6400 H 0.91326 0.63674 0.05096 0.0
C6401 C 0.89203 0.63823 0.06335 0.0
C6402 C 0.89226 0.63404 0.05549 0.0
H6403 H 0.899 0.64484 0.07293 0.0
H6404 H 0.88618 0.63867 0.06694 0.0
C6405 C 0.90001 0.63359 0.05107 0.0
C6406 C 0.6076 0.64764 0.31511 0.0
C6407 C 0.60892 0.65559 0.31126 0.0
H6408 H 0.61005 0.6343 0.31481 0.0
C6409 C 0.61374 0.65598 0.30376 0.0
H6410 H 0.60404 0.64712 0.32096 0.0
C6411 C 0.61724 0.64861 0.30026 0.0
C6412 C 0.61602 0.64069 0.30418 0.0
H6413 H 0.6148 0.66199 0.3006 0.0
H6414 H 0.62097 0.64915 0.29451 0.0
C6415 C 0.6111 0.64029 0.31161 0.0
C6416 C 0.93593 0.6053 0.64278 0.0
C6417 C 0.9402 0.59749 0.64219 0.0
H6418 H 0.93585 0.61851 0.63966 0.0
C6419 C 0.94806 0.5972 0.63797 0.0
H6420 H 0.9298 0.60573 0.64588 0.0
C6421 C 0.95152 0.60454 0.63436 0.0
C6422 C 0.94718 0.61232 0.63487 0.0
H6423 H 0.95156 0.5913 0.63748 0.0
H6424 H 0.95756 0.60408 0.63111 0.0
C6425 C 0.93937 0.61263 0.63917 0.0
C6426 C 0.65614 0.69681 0.88761 0.0
C6427 C 0.65616 0.68882 0.89158 0.0
H6428 H 0.64886 0.70624 0.88107 0.0
C6429 C 0.64852 0.68421 0.89201 0.0
H6430 H 0.6619 0.70055 0.88725 0.0
C6431 C 0.64106 0.68747 0.88851 0.0
C6432 C 0.64104 0.69542 0.88448 0.0
H6433 H 0.64834 0.67798 0.89491 0.0
H6434 H 0.63532 0.6837 0.88888 0.0
C6435 C 0.64865 0.70009 0.88412 0.0
C6436 C 0.55582 0.4011 0.14358 0.0
C6437 C 0.55868 0.40825 0.13907 0.0
H6438 H 0.54994 0.38886 0.14298 0.0
C6439 C 0.55744 0.40853 0.13024 0.0
H6440 H 0.55656 0.40072 0.1504 0.0
C6441 C 0.55358 0.40176 0.126 0.0
C6442 C 0.5509 0.39453 0.13048 0.0
H6443 H 0.55967 0.41387 0.12654 0.0
H6444 H 0.55285 0.40214 0.11918 0.0
C6445 C 0.55198 0.39431 0.13933 0.0
C6446 C 0.85448 0.31642 0.39276 0.0
C6447 C 0.84664 0.31228 0.39172 0.0
H6448 H 0.8678 0.31645 0.39014 0.0
C6449 C 0.84641 0.3046 0.38719 0.0
H6450 H 0.85487 0.32242 0.3961 0.0
C6451 C 0.85384 0.30118 0.38373 0.0
C6452 C 0.86166 0.30539 0.38469 0.0
H6453 H 0.84048 0.30121 0.38635 0.0
H6454 H 0.85343 0.29527 0.38024 0.0
C6455 C 0.8619 0.31302 0.38929 0.0
C6456 C 0.93548 0.39741 0.85848 0.0
C6457 C 0.93976 0.4052 0.85935 0.0
H6458 H 0.93523 0.38417 0.8614 0.0
C6459 C 0.94744 0.4054 0.8639 0.0
H6460 H 0.92949 0.39705 0.85513 0.0
C6461 C 0.95072 0.398 0.86755 0.0
C6462 C 0.94637 0.39024 0.86675 0.0
H6463 H 0.95093 0.41128 0.86461 0.0
H6464 H 0.95662 0.39839 0.87105 0.0
C6465 C 0.93875 0.39003 0.86212 0.0
C6466 C 0.85476 0.68431 0.10899 0.0
C6467 C 0.84712 0.68892 0.10919 0.0
H6468 H 0.86787 0.68383 0.11247 0.0
C6469 C 0.84702 0.69693 0.11312 0.0
H6470 H 0.85502 0.67807 0.10613 0.0
C6471 C 0.85441 0.70023 0.11679 0.0
C6472 C 0.86203 0.69558 0.11664 0.0
H6473 H 0.84125 0.70066 0.11331 0.0
H6474 H 0.85413 0.70641 0.11979 0.0
C6475 C 0.86212 0.6876 0.11267 0.0
C6476 C 0.55475 0.59544 0.36369 0.0
C6477 C 0.56273 0.59568 0.3597 0.0
H6478 H 0.54523 0.60235 0.37051 0.0
C6479 C 0.56725 0.60337 0.35956 0.0
H6480 H 0.55109 0.58963 0.36385 0.0
C6481 C 0.5639 0.61065 0.36334 0.0
C6482 C 0.55595 0.61042 0.36737 0.0
H6483 H 0.57346 0.60374 0.35665 0.0
H6484 H 0.5676 0.61644 0.36317 0.0
C6485 C 0.55139 0.60274 0.36747 0.0
C6486 C 0.65655 0.30334 0.61283 0.0
C6487 C 0.65664 0.31168 0.60967 0.0
H6488 H 0.64929 0.29353 0.61881 0.0
C6489 C 0.64921 0.31659 0.61023 0.0
H6490 H 0.66217 0.29939 0.61243 0.0
C6491 C 0.64185 0.31325 0.61387 0.0
C6492 C 0.64174 0.30491 0.61702 0.0
H6493 H 0.64911 0.32307 0.60797 0.0
H6494 H 0.63626 0.31724 0.61424 0.0
C6495 C 0.64916 0.29998 0.61644 0.0
C6496 C 0.6432 0.93582 0.6047 0.0
C6497 C 0.64236 0.93995 0.59684 0.0
H6498 H 0.64042 0.93593 0.61799 0.0
C6499 C 0.63808 0.94777 0.59653 0.0
H6500 H 0.64634 0.92972 0.60515 0.0
C6501 C 0.63464 0.95132 0.6039 0.0
C6502 C 0.63538 0.94712 0.61174 0.0
H6503 H 0.63741 0.95116 0.59059 0.0
H6504 H 0.63133 0.95733 0.60343 0.0
C6505 C 0.63975 0.93936 0.61206 0.0
C6506 C 0.13735 0.55325 0.40603 0.0
C6507 C 0.14206 0.56082 0.40581 0.0
H6508 H 0.13034 0.544 0.39894 0.0
C6509 C 0.14337 0.56485 0.39796 0.0
H6510 H 0.13629 0.54996 0.41196 0.0
C6511 C 0.14 0.56144 0.39051 0.0
C6512 C 0.13523 0.55391 0.39072 0.0
H6513 H 0.14686 0.57076 0.39758 0.0
H6514 H 0.14106 0.56477 0.38459 0.0
C6515 C 0.13398 0.54982 0.39856 0.0
C6516 C 0.68503 0.89296 0.64774 0.0
C6517 C 0.68922 0.8921 0.65558 0.0
H6518 H 0.68493 0.89005 0.63449 0.0
C6519 C 0.69689 0.88756 0.65587 0.0
H6520 H 0.67903 0.8963 0.64731 0.0
C6521 C 0.70027 0.88393 0.6485 0.0
C6522 C 0.69602 0.88473 0.64069 0.0
H6523 H 0.70031 0.88685 0.66179 0.0
H6524 H 0.70618 0.88044 0.64895 0.0
C6525 C 0.68839 0.88932 0.64039 0.0
C6526 C 0.36411 0.44762 0.9062 0.0
C6527 C 0.35949 0.44 0.90608 0.0
H6528 H 0.37097 0.45687 0.89899 0.0
C6529 C 0.35819 0.43586 0.89827 0.0
H6530 H 0.36516 0.45099 0.9121 0.0
C6531 C 0.36149 0.43923 0.89077 0.0
C6532 C 0.36617 0.44682 0.89089 0.0
H6533 H 0.35476 0.42991 0.89798 0.0
H6534 H 0.36044 0.43582 0.8849 0.0
C6535 C 0.3674 0.45101 0.89868 0.0
C6536 C 0.3046 0.61422 0.65544 0.0
C6537 C 0.31234 0.6098 0.65513 0.0
H6538 H 0.29529 0.62137 0.64858 0.0
C6539 C 0.31661 0.60916 0.64732 0.0
H6540 H 0.30111 0.61476 0.66134 0.0
C6541 C 0.31327 0.6129 0.64001 0.0
C6542 C 0.30558 0.6174 0.64034 0.0
H6543 H 0.32266 0.60591 0.64687 0.0
H6544 H 0.31679 0.61236 0.63414 0.0
C6545 C 0.30124 0.61797 0.64812 0.0
C6546 C 0.85914 0.06562 0.10385 0.0
C6547 C 0.86033 0.06164 0.09595 0.0
H6548 H 0.86175 0.06552 0.11717 0.0
C6549 C 0.86514 0.05413 0.09561 0.0
H6550 H 0.85558 0.07148 0.10434 0.0
C6551 C 0.86873 0.05073 0.10298 0.0
C6552 C 0.86761 0.05477 0.11086 0.0
H6553 H 0.8661 0.05087 0.08963 0.0
H6554 H 0.87244 0.04496 0.10249 0.0
C6555 C 0.86273 0.06223 0.11121 0.0
C6556 C 0.69601 0.108 0.84999 0.0
C6557 C 0.69308 0.11255 0.84288 0.0
H6558 H 0.70196 0.10855 0.8622 0.0
C6559 C 0.69427 0.12139 0.84267 0.0
H6560 H 0.69531 0.10118 0.85031 0.0
C6561 C 0.69814 0.1256 0.84945 0.0
C6562 C 0.70089 0.12108 0.85663 0.0
H6563 H 0.69198 0.12512 0.83737 0.0
H6564 H 0.69882 0.13243 0.84911 0.0
C6565 C 0.69986 0.11222 0.85679 0.0
C6566 C 0.8174 0.89089 0.35485 0.0
C6567 C 0.8125 0.89166 0.34743 0.0
H6568 H 0.81797 0.88673 0.36774 0.0
C6569 C 0.80406 0.88875 0.34752 0.0
H6570 H 0.82396 0.89296 0.35495 0.0
C6571 C 0.80062 0.88516 0.35487 0.0
C6572 C 0.80555 0.88435 0.36227 0.0
H6573 H 0.8001 0.88932 0.34193 0.0
H6574 H 0.7941 0.88296 0.35473 0.0
C6575 C 0.81398 0.88728 0.36217 0.0
C6576 C 0.41014 0.36986 0.0492 0.0
C6577 C 0.40938 0.36508 0.05671 0.0
H6578 H 0.40381 0.37759 0.03994 0.0
C6579 C 0.40145 0.36467 0.06076 0.0
H6580 H 0.41616 0.37026 0.0459 0.0
C6581 C 0.39442 0.36882 0.05735 0.0
C6582 C 0.39512 0.37351 0.0498 0.0
H6583 H 0.40068 0.3612 0.06664 0.0
H6584 H 0.38841 0.36832 0.06066 0.0
C6585 C 0.40306 0.37403 0.04577 0.0
C6586 C 0.38398 0.65396 0.81045 0.0
C6587 C 0.38577 0.66113 0.80548 0.0
H6588 H 0.37845 0.64162 0.81103 0.0
C6589 C 0.38278 0.66142 0.79707 0.0
H6590 H 0.38605 0.65362 0.81699 0.0
C6591 C 0.37838 0.65449 0.79361 0.0
C6592 C 0.37685 0.64721 0.79853 0.0
H6593 H 0.38407 0.66688 0.7931 0.0
H6594 H 0.37636 0.65478 0.78705 0.0
C6595 C 0.37957 0.64709 0.80703 0.0
C6596 C 0.10062 0.64026 0.55646 0.0
C6597 C 0.09243 0.63827 0.55354 0.0
H6598 H 0.11392 0.63786 0.5556 0.0
C6599 C 0.09153 0.63205 0.54719 0.0
H6600 H 0.10156 0.64487 0.56147 0.0
C6601 C 0.09867 0.62792 0.54386 0.0
C6602 C 0.10685 0.62994 0.54681 0.0
H6603 H 0.08531 0.63041 0.54475 0.0
H6604 H 0.09779 0.62316 0.53898 0.0
C6605 C 0.10773 0.63617 0.55313 0.0
C6606 C 0.11997 0.34794 0.31183 0.0
C6607 C 0.11755 0.34075 0.30715 0.0
H6608 H 0.12579 0.36017 0.31171 0.0
C6609 C 0.11978 0.34028 0.29852 0.0
H6610 H 0.11849 0.34842 0.31853 0.0
C6611 C 0.12401 0.34704 0.29458 0.0
C6612 C 0.12612 0.35437 0.29921 0.0
H6613 H 0.11798 0.33482 0.29474 0.0
H6614 H 0.12539 0.34662 0.28786 0.0
C6615 C 0.1242 0.35465 0.30792 0.0
C6616 C 0.41101 0.63373 0.45378 0.0
C6617 C 0.41055 0.63706 0.44551 0.0
H6618 H 0.40456 0.62693 0.46368 0.0
C6619 C 0.40318 0.63564 0.4407 0.0
H6620 H 0.41661 0.63473 0.45764 0.0
C6621 C 0.39634 0.6312 0.44411 0.0
C6622 C 0.39667 0.62805 0.45245 0.0
H6623 H 0.4027 0.63797 0.43425 0.0
H6624 H 0.39075 0.63033 0.44022 0.0
C6625 C 0.40411 0.62928 0.45724 0.0
C6626 C 0.11706 0.65232 0.19067 0.0
C6627 C 0.11566 0.65975 0.19537 0.0
H6628 H 0.12227 0.63983 0.19042 0.0
C6629 C 0.1189 0.66029 0.20367 0.0
H6630 H 0.11479 0.65177 0.1842 0.0
C6631 C 0.12324 0.65341 0.20727 0.0
C6632 C 0.12446 0.6459 0.2026 0.0
H6633 H 0.1179 0.66594 0.20745 0.0
H6634 H 0.12552 0.65392 0.21373 0.0
C6635 C 0.12141 0.64549 0.19423 0.0
C6636 C 0.09953 0.36433 0.94118 0.0
C6637 C 0.0919 0.36352 0.94572 0.0
H6638 H 0.1122 0.3691 0.94097 0.0
C6639 C 0.09128 0.36728 0.95379 0.0
H6640 H 0.10018 0.36167 0.93488 0.0
C6641 C 0.09821 0.37162 0.95731 0.0
C6642 C 0.10588 0.3723 0.95279 0.0
H6643 H 0.08548 0.36674 0.95745 0.0
H6644 H 0.0976 0.37435 0.96359 0.0
C6645 C 0.10642 0.36866 0.94466 0.0
C6646 C 0.38322 0.33968 0.7043 0.0
C6647 C 0.3855 0.33999 0.69567 0.0
H6648 H 0.37757 0.34625 0.7148 0.0
C6649 C 0.38315 0.3471 0.69085 0.0
H6650 H 0.38495 0.33428 0.70817 0.0
C6651 C 0.37893 0.3539 0.69461 0.0
C6652 C 0.37696 0.35379 0.7033 0.0
H6653 H 0.38466 0.34745 0.68415 0.0
H6654 H 0.37739 0.35935 0.6907 0.0
C6655 C 0.37901 0.34654 0.70809 0.0
C6656 C 0.05541 0.40186 0.36595 0.0
C6657 C 0.05118 0.40934 0.36361 0.0
H6658 H 0.05439 0.38926 0.37083 0.0
C6659 C 0.04238 0.40994 0.365 0.0
H6660 H 0.06221 0.40126 0.36511 0.0
C6661 C 0.03786 0.40303 0.36832 0.0
C6662 C 0.04207 0.39543 0.37034 0.0
H6663 H 0.03895 0.41563 0.36324 0.0
H6664 H 0.03105 0.40358 0.36907 0.0
C6665 C 0.05092 0.39499 0.36928 0.0
C6666 C 0.35151 0.30914 0.11285 0.0
C6667 C 0.34347 0.30541 0.11383 0.0
H6668 H 0.36467 0.30885 0.11603 0.0
C6669 C 0.34267 0.29827 0.11914 0.0
H6670 H 0.35234 0.31475 0.10896 0.0
C6671 C 0.34978 0.2949 0.12329 0.0
C6672 C 0.35783 0.29862 0.12222 0.0
H6673 H 0.33657 0.29522 0.11999 0.0
H6674 H 0.34899 0.28936 0.12728 0.0
C6675 C 0.35859 0.30578 0.11696 0.0
C6676 C 0.45935 0.59281 0.85679 0.0
C6677 C 0.45398 0.5878 0.86185 0.0
H6678 H 0.46777 0.60342 0.85619 0.0
C6679 C 0.4536 0.5894 0.87062 0.0
H6680 H 0.4599 0.59163 0.85004 0.0
C6681 C 0.45816 0.59616 0.87417 0.0
C6682 C 0.46318 0.60143 0.86902 0.0
H6683 H 0.44949 0.58568 0.87468 0.0
H6684 H 0.45747 0.59744 0.88089 0.0
C6685 C 0.4639 0.59954 0.86033 0.0
C6686 C 0.16051 0.70327 0.61801 0.0
C6687 C 0.15972 0.69581 0.61317 0.0
H6688 H 0.15426 0.71241 0.62597 0.0
C6689 C 0.15179 0.69175 0.61281 0.0
H6690 H 0.16653 0.70658 0.61838 0.0
C6691 C 0.14481 0.69507 0.6171 0.0
C6692 C 0.14555 0.70255 0.6219 0.0
H6693 H 0.15099 0.68589 0.60929 0.0
H6694 H 0.13881 0.69173 0.61666 0.0
C6695 C 0.15349 0.70663 0.62233 0.0
C6696 C 0.04364 0.59164 0.13626 0.0
C6697 C 0.0525 0.59224 0.13719 0.0
H6698 H 0.03213 0.59792 0.13258 0.0
C6699 C 0.05663 0.59964 0.13441 0.0
H6700 H 0.04027 0.58603 0.13837 0.0
C6701 C 0.05199 0.60642 0.13112 0.0
C6702 C 0.04309 0.60599 0.13051 0.0
H6703 H 0.06346 0.60024 0.13488 0.0
H6704 H 0.05538 0.6121 0.12923 0.0
C6705 C 0.03897 0.59846 0.13296 0.0
C6706 C 0.1601 0.29782 0.88192 0.0
C6707 C 0.15932 0.30536 0.88664 0.0
H6708 H 0.1538 0.2885 0.87423 0.0
C6709 C 0.1514 0.30944 0.88693 0.0
H6710 H 0.16612 0.29451 0.8816 0.0
C6711 C 0.14439 0.30602 0.88276 0.0
C6712 C 0.1451 0.29842 0.87815 0.0
H6713 H 0.15061 0.31536 0.89035 0.0
H6714 H 0.13839 0.30935 0.88318 0.0
C6715 C 0.15305 0.29437 0.87772 0.0
C6716 C 0.45543 0.41121 0.63343 0.0
C6717 C 0.44743 0.41077 0.63737 0.0
H6718 H 0.46494 0.40462 0.62622 0.0
C6719 C 0.44268 0.40326 0.63665 0.0
H6720 H 0.45924 0.41691 0.63389 0.0
C6721 C 0.4459 0.39629 0.63228 0.0
C6722 C 0.45398 0.39661 0.62851 0.0
H6723 H 0.43642 0.40278 0.63946 0.0
H6724 H 0.44206 0.3906 0.63194 0.0
C6725 C 0.4587 0.40417 0.62907 0.0
C6726 C 0.34878 0.69193 0.38728 0.0
C6727 C 0.34097 0.69623 0.38744 0.0
H6728 H 0.36164 0.69184 0.38306 0.0
C6729 C 0.34023 0.70398 0.38308 0.0
H6730 H 0.34952 0.68586 0.39041 0.0
C6731 C 0.34722 0.70743 0.37878 0.0
C6732 C 0.35506 0.70315 0.37874 0.0
H6733 H 0.3343 0.70746 0.38311 0.0
H6734 H 0.34651 0.71346 0.37556 0.0
C6735 C 0.35572 0.69534 0.383 0.0
C6736 C 0.3683 0.04709 0.41012 0.0
C6737 C 0.36598 0.05564 0.40902 0.0
H6738 H 0.37423 0.03612 0.40465 0.0
C6739 C 0.36848 0.05985 0.40157 0.0
H6740 H 0.36645 0.04366 0.41578 0.0
C6741 C 0.37292 0.05556 0.39524 0.0
C6742 C 0.37498 0.04693 0.39617 0.0
H6743 H 0.36695 0.06648 0.40061 0.0
H6744 H 0.37459 0.05898 0.38952 0.0
C6745 C 0.37275 0.04277 0.40374 0.0
C6746 C 0.86938 0.45377 0.58988 0.0
C6747 C 0.86557 0.44572 0.59039 0.0
H6748 H 0.87648 0.46344 0.59637 0.0
C6749 C 0.86644 0.44101 0.59791 0.0
H6750 H 0.86881 0.45754 0.58416 0.0
C6751 C 0.87082 0.44434 0.60483 0.0
C6752 C 0.87444 0.45249 0.60444 0.0
H6753 H 0.86373 0.43472 0.59844 0.0
H6754 H 0.87126 0.44054 0.61054 0.0
C6755 C 0.87375 0.45715 0.59686 0.0
C6756 C 0.30256 0.10659 0.34798 0.0
C6757 C 0.30632 0.11103 0.34121 0.0
H6758 H 0.29637 0.10734 0.36005 0.0
C6759 C 0.30645 0.11995 0.34147 0.0
H6760 H 0.30224 0.09973 0.34792 0.0
C6761 C 0.30303 0.12432 0.34839 0.0
C6762 C 0.29942 0.11987 0.35523 0.0
H6763 H 0.30939 0.12357 0.33642 0.0
H6764 H 0.30335 0.13118 0.34843 0.0
C6765 C 0.29916 0.11096 0.35491 0.0
C6766 C 0.63349 0.54692 0.08932 0.0
C6767 C 0.63583 0.55552 0.08972 0.0
H6768 H 0.62782 0.53636 0.09579 0.0
C6769 C 0.63356 0.56027 0.09691 0.0
H6770 H 0.63517 0.5431 0.08385 0.0
C6771 C 0.62936 0.55645 0.10369 0.0
C6772 C 0.62733 0.54777 0.10348 0.0
H6773 H 0.63512 0.56696 0.09734 0.0
H6774 H 0.62788 0.5603 0.1092 0.0
C6775 C 0.6293 0.54307 0.09615 0.0
C6776 C 0.69612 0.37564 0.33901 0.0
C6777 C 0.69906 0.38383 0.33705 0.0
H6778 H 0.69706 0.3649 0.34726 0.0
C6779 C 0.70594 0.38716 0.34166 0.0
H6780 H 0.69079 0.37293 0.33561 0.0
C6781 C 0.70957 0.38254 0.34832 0.0
C6782 C 0.70633 0.37453 0.35056 0.0
H6783 H 0.70841 0.39341 0.34022 0.0
H6784 H 0.71469 0.3854 0.35191 0.0
C6785 C 0.69969 0.37106 0.34571 0.0
C6786 C 0.137 0.94081 0.89964 0.0
C6787 C 0.13666 0.94492 0.90755 0.0
H6788 H 0.13333 0.94089 0.88661 0.0
C6789 C 0.13196 0.95248 0.90827 0.0
H6790 H 0.1404 0.93489 0.89889 0.0
C6791 C 0.12782 0.95592 0.90118 0.0
C6792 C 0.12828 0.95185 0.89326 0.0
H6793 H 0.13161 0.95581 0.91427 0.0
H6794 H 0.12433 0.9618 0.9019 0.0
C6795 C 0.13288 0.94423 0.8926 0.0
C6796 C 0.29882 0.88122 0.15974 0.0
C6797 C 0.30634 0.88598 0.15901 0.0
H6798 H 0.28953 0.87353 0.15338 0.0
C6799 C 0.31042 0.88637 0.1511 0.0
H6800 H 0.2955 0.88083 0.16575 0.0
C6801 C 0.30701 0.88224 0.14405 0.0
C6802 C 0.29943 0.87759 0.14472 0.0
H6803 H 0.31631 0.88984 0.15034 0.0
H6804 H 0.31034 0.88274 0.13806 0.0
C6805 C 0.29538 0.87707 0.15266 0.0
C6806 C 0.1922 0.11513 0.65263 0.0
C6807 C 0.1967 0.11472 0.66031 0.0
H6808 H 0.19191 0.11951 0.63984 0.0
C6809 C 0.2046 0.11885 0.66091 0.0
H6810 H 0.18603 0.11216 0.652 0.0
C6811 C 0.208 0.12313 0.65389 0.0
C6812 C 0.20353 0.12339 0.64617 0.0
H6813 H 0.20822 0.11862 0.66675 0.0
H6814 H 0.21415 0.12615 0.65448 0.0
C6815 C 0.19556 0.11941 0.64566 0.0
C6816 C 0.09815 0.20434 0.38402 0.0
C6817 C 0.09155 0.19854 0.3824 0.0
H6818 H 0.1064 0.21389 0.37899 0.0
C6819 C 0.08822 0.19802 0.37413 0.0
H6820 H 0.10073 0.20504 0.39035 0.0
C6821 C 0.0915 0.20308 0.36763 0.0
C6822 C 0.09824 0.2087 0.36922 0.0
H6823 H 0.08322 0.19355 0.37261 0.0
H6824 H 0.08888 0.20245 0.3613 0.0
C6825 C 0.10145 0.20937 0.3775 0.0
C6826 C 0.05442 0.85121 0.63098 0.0
C6827 C 0.05287 0.84285 0.63369 0.0
H6828 H 0.05123 0.8611 0.62227 0.0
C6829 C 0.04639 0.83817 0.62973 0.0
H6830 H 0.05952 0.85491 0.63373 0.0
C6831 C 0.04157 0.84177 0.6232 0.0
C6832 C 0.04312 0.85014 0.62053 0.0
H6833 H 0.04501 0.83173 0.6317 0.0
H6834 H 0.03662 0.83802 0.62025 0.0
C6835 C 0.04962 0.8548 0.62445 0.0
C6836 C 0.40143 0.79755 0.88345 0.0
C6837 C 0.40821 0.80312 0.8818 0.0
H6838 H 0.3929 0.78822 0.87846 0.0
C6839 C 0.41152 0.80353 0.87353 0.0
H6840 H 0.39884 0.79694 0.88978 0.0
C6841 C 0.40808 0.79855 0.86705 0.0
C6842 C 0.4012 0.79312 0.86866 0.0
H6843 H 0.41666 0.80783 0.872 0.0
H6844 H 0.41073 0.79908 0.86072 0.0
C6845 C 0.39797 0.79259 0.87694 0.0
C6846 C 0.44701 0.15013 0.13135 0.0
C6847 C 0.44858 0.15849 0.13406 0.0
H6848 H 0.44998 0.14033 0.12245 0.0
C6849 C 0.45498 0.1632 0.13001 0.0
H6850 H 0.44199 0.1464 0.13419 0.0
C6851 C 0.45962 0.15967 0.12333 0.0
C6852 C 0.458 0.15134 0.12058 0.0
H6853 H 0.45638 0.16963 0.13199 0.0
H6854 H 0.46446 0.16348 0.12027 0.0
C6855 C 0.45165 0.14661 0.12466 0.0
C6856 C 0.09014 0.80311 0.12738 0.0
C6857 C 0.09356 0.80298 0.11913 0.0
H6858 H 0.09084 0.79831 0.14006 0.0
C6859 C 0.10043 0.79754 0.11742 0.0
H6860 H 0.08493 0.8073 0.12896 0.0
C6861 C 0.10388 0.79245 0.12382 0.0
C6862 C 0.10054 0.7927 0.13208 0.0
H6863 H 0.1031 0.79714 0.1111 0.0
H6864 H 0.10902 0.78819 0.12225 0.0
C6865 C 0.09356 0.798 0.13376 0.0
C6866 C 0.45493 0.84902 0.36838 0.0
C6867 C 0.44909 0.84241 0.36979 0.0
H6868 H 0.46439 0.85718 0.37372 0.0
C6869 C 0.44837 0.839 0.378 0.0
H6870 H 0.45578 0.85167 0.36209 0.0
C6871 C 0.45327 0.84221 0.38466 0.0
C6872 C 0.45895 0.84894 0.38329 0.0
H6873 H 0.44386 0.83399 0.37935 0.0
H6874 H 0.45248 0.83952 0.39094 0.0
C6875 C 0.45982 0.85223 0.37506 0.0
C6876 C 0.4013 0.20334 0.6181 0.0
C6877 C 0.40817 0.19784 0.61968 0.0
H6878 H 0.39277 0.21263 0.62315 0.0
C6879 C 0.41162 0.19754 0.6279 0.0
H6880 H 0.3986 0.20386 0.6118 0.0
C6881 C 0.40824 0.20253 0.6344 0.0
C6882 C 0.40128 0.20788 0.63286 0.0
H6883 H 0.41683 0.1933 0.62938 0.0
H6884 H 0.411 0.20209 0.64069 0.0
C6885 C 0.39791 0.20831 0.62462 0.0
C6886 C 0.054 0.16257 0.87778 0.0
C6887 C 0.05339 0.15885 0.86969 0.0
H6888 H 0.04989 0.16242 0.89071 0.0
C6889 C 0.04775 0.15202 0.86851 0.0
H6890 H 0.05836 0.16775 0.87895 0.0
C6891 C 0.04294 0.14891 0.8753 0.0
C6892 C 0.04369 0.15254 0.8834 0.0
H6893 H 0.047 0.14912 0.86233 0.0
H6894 H 0.03852 0.14379 0.87414 0.0
C6895 C 0.04919 0.15948 0.88454 0.0
C6896 C 0.38446 0.10061 0.20261 0.0
C6897 C 0.38293 0.09365 0.19723 0.0
H6898 H 0.37942 0.10907 0.21196 0.0
C6899 C 0.37479 0.09 0.19713 0.0
H6900 H 0.3907 0.10346 0.20297 0.0
C6901 C 0.36832 0.09325 0.20224 0.0
C6902 C 0.36982 0.10027 0.20753 0.0
H6903 H 0.37335 0.08471 0.19298 0.0
H6904 H 0.3621 0.09033 0.20197 0.0
C6905 C 0.37797 0.10388 0.20772 0.0
C6906 C 0.16066 0.12249 0.44775 0.0
C6907 C 0.15694 0.13058 0.44827 0.0
H6908 H 0.16054 0.10961 0.45207 0.0
C6909 C 0.15015 0.13184 0.45393 0.0
H6910 H 0.16583 0.12127 0.44339 0.0
C6911 C 0.14709 0.12513 0.45886 0.0
C6912 C 0.15071 0.11701 0.4582 0.0
H6913 H 0.14726 0.13803 0.45462 0.0
H6914 H 0.14202 0.12636 0.46333 0.0
C6915 C 0.1576 0.11579 0.45268 0.0
C6916 C 0.12212 0.91258 0.70449 0.0
C6917 C 0.11842 0.90782 0.69791 0.0
H6918 H 0.13149 0.91303 0.71434 0.0
C6919 C 0.12143 0.89956 0.69637 0.0
H6920 H 0.11991 0.91894 0.70589 0.0
C6921 C 0.12804 0.89617 0.70123 0.0
C6922 C 0.13175 0.90094 0.70777 0.0
H6923 H 0.11886 0.89579 0.69123 0.0
H6924 H 0.13045 0.88996 0.69961 0.0
C6925 C 0.12873 0.90919 0.70935 0.0
C6926 C 0.34043 0.87814 0.94747 0.0
C6927 C 0.34382 0.8699 0.94793 0.0
H6928 H 0.34115 0.891 0.95177 0.0
C6929 C 0.35067 0.86837 0.95346 0.0
H6930 H 0.33524 0.87958 0.94319 0.0
C6931 C 0.35411 0.87496 0.95832 0.0
C6932 C 0.3508 0.88321 0.95773 0.0
H6933 H 0.35331 0.86207 0.95411 0.0
H6934 H 0.35923 0.87353 0.96266 0.0
C6935 C 0.34386 0.8847 0.95234 0.0
C6936 C 0.3741 0.91147 0.30329 0.0
C6937 C 0.3822 0.90776 0.30286 0.0
H6938 H 0.36121 0.9112 0.29903 0.0
C6939 C 0.38345 0.9008 0.2974 0.0
H6940 H 0.37287 0.91676 0.30751 0.0
C6941 C 0.37672 0.89756 0.29259 0.0
C6942 C 0.3686 0.90119 0.29317 0.0
H6943 H 0.38965 0.8979 0.29678 0.0
H6944 H 0.37794 0.89233 0.28831 0.0
C6945 C 0.36739 0.90825 0.29847 0.0
C6946 C 0.35134 0.13384 0.54597 0.0
C6947 C 0.34429 0.13211 0.55117 0.0
H6948 H 0.35999 0.12915 0.53661 0.0
C6949 C 0.34061 0.12398 0.55086 0.0
H6950 H 0.35421 0.14008 0.54591 0.0
C6951 C 0.34396 0.11772 0.54555 0.0
C6952 C 0.35111 0.11941 0.5405 0.0
H6953 H 0.33525 0.12238 0.55486 0.0
H6954 H 0.34104 0.1115 0.54552 0.0
C6955 C 0.3547 0.12755 0.54068 0.0
C6956 C 0.1219 0.08775 0.79654 0.0
C6957 C 0.11825 0.09267 0.80303 0.0
H6958 H 0.13145 0.08694 0.78689 0.0
C6959 C 0.12149 0.10084 0.80458 0.0
H6960 H 0.11951 0.08146 0.79515 0.0
C6961 C 0.12831 0.10397 0.79986 0.0
C6962 C 0.13198 0.09904 0.79342 0.0
H6963 H 0.11896 0.10471 0.80967 0.0
H6964 H 0.13092 0.11009 0.80153 0.0
C6965 C 0.12871 0.0909 0.7918 0.0
C6966 C 0.14978 0.87236 0.05446 0.0
C6967 C 0.15806 0.8694 0.0529 0.0
H6968 H 0.14016 0.88139 0.05131 0.0
C6969 C 0.16284 0.8732 0.0464 0.0
H6970 H 0.14601 0.86972 0.05956 0.0
C6971 C 0.15943 0.87984 0.0416 0.0
C6972 C 0.15116 0.8828 0.04318 0.0
H6973 H 0.16921 0.87103 0.045 0.0
H6974 H 0.16327 0.88267 0.03665 0.0
C6975 C 0.14639 0.87901 0.04967 0.0
C6976 C 0.197 0.37915 0.10205 0.0
C6977 C 0.19862 0.38234 0.09387 0.0
H6978 H 0.20009 0.36986 0.11143 0.0
C6979 C 0.20515 0.37867 0.08904 0.0
H6980 H 0.19187 0.38169 0.10586 0.0
C6981 C 0.20992 0.37192 0.09229 0.0
C6982 C 0.20829 0.36875 0.10046 0.0
H6983 H 0.2066 0.38101 0.08274 0.0
H6984 H 0.2149 0.3692 0.08841 0.0
C6985 C 0.20176 0.37241 0.10529 0.0
C6986 C 0.69809 0.12626 0.91269 0.0
C6987 C 0.69885 0.11796 0.90949 0.0
H6988 H 0.70202 0.13922 0.91176 0.0
C6989 C 0.70465 0.11643 0.90287 0.0
H6990 H 0.69361 0.12769 0.91771 0.0
C6991 C 0.7094 0.12307 0.8994 0.0
C6992 C 0.70845 0.13138 0.90247 0.0
H6993 H 0.70553 0.11009 0.90038 0.0
H6994 H 0.71392 0.12167 0.89442 0.0
C6995 C 0.70286 0.13288 0.90925 0.0
C6996 C 0.12965 0.44753 0.15001 0.0
C6997 C 0.13293 0.44925 0.15814 0.0
H6998 H 0.1203 0.45056 0.14066 0.0
C6999 C 0.12945 0.45597 0.16285 0.0
H7000 H 0.13205 0.44227 0.1463 0.0
C7001 C 0.12277 0.46079 0.15955 0.0
C7002 C 0.11945 0.45902 0.15146 0.0
H7003 H 0.13188 0.4575 0.1691 0.0
H7004 H 0.12016 0.46589 0.16336 0.0
C7005 C 0.12296 0.45234 0.14673 0.0
C7006 C 0.79744 0.88392 0.40265 0.0
C7007 C 0.80315 0.88237 0.40935 0.0
H7008 H 0.78805 0.87879 0.39428 0.0
C7009 C 0.80365 0.87413 0.41273 0.0
H7010 H 0.79675 0.89023 0.40002 0.0
C7011 C 0.79868 0.86758 0.40941 0.0
C7012 C 0.79316 0.86909 0.40257 0.0
H7013 H 0.80805 0.87267 0.4178 0.0
H7014 H 0.79931 0.86128 0.41207 0.0
C7015 C 0.79249 0.87735 0.39931 0.0
C7016 C 0.87174 0.05385 0.14962 0.0
C7017 C 0.86841 0.05214 0.15772 0.0
H7018 H 0.88125 0.05091 0.14039 0.0
C7019 C 0.87196 0.04552 0.16252 0.0
H7020 H 0.86929 0.05904 0.14584 0.0
C7021 C 0.87876 0.04079 0.15934 0.0
C7022 C 0.88213 0.04256 0.15127 0.0
H7023 H 0.8695 0.044 0.16876 0.0
H7024 H 0.88142 0.03578 0.16322 0.0
C7025 C 0.87856 0.04913 0.14645 0.0
C7026 C 0.305 0.62273 0.60187 0.0
C7027 C 0.30336 0.61964 0.59366 0.0
H7028 H 0.30203 0.63198 0.61134 0.0
C7029 C 0.2969 0.62347 0.58883 0.0
H7030 H 0.31007 0.62006 0.60567 0.0
C7031 C 0.29224 0.63026 0.59213 0.0
C7032 C 0.2939 0.63333 0.60034 0.0
H7033 H 0.29543 0.6212 0.58251 0.0
H7034 H 0.28732 0.6331 0.58826 0.0
C7035 C 0.30035 0.62952 0.60516 0.0
C7036 C 0.13427 0.54734 0.35057 0.0
C7037 C 0.13282 0.5527 0.34358 0.0
H7038 H 0.12912 0.53804 0.35903 0.0
C7039 C 0.12472 0.55277 0.33983 0.0
H7040 H 0.14048 0.54699 0.3535 0.0
C7041 C 0.11821 0.54767 0.34304 0.0
C7042 C 0.11962 0.54244 0.35011 0.0
H7043 H 0.12333 0.5569 0.33452 0.0
H7044 H 0.11202 0.54795 0.34006 0.0
C7045 C 0.12774 0.54225 0.35379 0.0
C7046 C 0.37659 0.44794 0.83965 0.0
C7047 C 0.36846 0.448 0.84333 0.0
H7048 H 0.38929 0.45275 0.84001 0.0
C7049 C 0.36696 0.45335 0.85033 0.0
H7050 H 0.37801 0.44382 0.83434 0.0
C7051 C 0.37346 0.45841 0.85363 0.0
C7052 C 0.38161 0.45823 0.85002 0.0
H7053 H 0.36073 0.45369 0.85321 0.0
H7054 H 0.37204 0.4626 0.85887 0.0
C7055 C 0.38308 0.45302 0.84294 0.0
C7056 C 0.89951 0.80667 0.61238 0.0
C7057 C 0.90746 0.80432 0.60912 0.0
H7058 H 0.88909 0.80347 0.62035 0.0
C7059 C 0.91123 0.79674 0.61198 0.0
H7060 H 0.89653 0.81256 0.61046 0.0
C7061 C 0.90695 0.79147 0.61774 0.0
C7062 C 0.89885 0.79373 0.62076 0.0
H7063 H 0.91737 0.79478 0.60958 0.0
H7064 H 0.90988 0.78557 0.61967 0.0
C7065 C 0.89527 0.80146 0.6181 0.0
C7066 C 0.94582 0.15719 0.36871 0.0
C7067 C 0.94888 0.15966 0.36071 0.0
H7068 H 0.94825 0.15038 0.38019 0.0
C7069 C 0.95731 0.15772 0.35852 0.0
H7070 H 0.93933 0.15855 0.37055 0.0
C7071 C 0.96245 0.15308 0.36408 0.0
C7072 C 0.95922 0.15019 0.37188 0.0
H7073 H 0.95986 0.15962 0.35243 0.0
H7074 H 0.96882 0.15142 0.36208 0.0
C7075 C 0.95092 0.15248 0.37422 0.0
C7076 C 0.59317 0.20677 0.10956 0.0
C7077 C 0.59178 0.19826 0.11183 0.0
H7078 H 0.5992 0.21853 0.11269 0.0
C7079 C 0.59496 0.1953 0.11961 0.0
H7080 H 0.59071 0.20925 0.10363 0.0
C7081 C 0.59985 0.2006 0.12479 0.0
C7082 C 0.6016 0.20899 0.12232 0.0
H7083 H 0.59404 0.18876 0.12151 0.0
H7084 H 0.60252 0.19801 0.13057 0.0
C7085 C 0.59799 0.2121 0.11477 0.0
C7086 C 0.54468 0.84117 0.85921 0.0
C7087 C 0.55346 0.84102 0.86075 0.0
H7088 H 0.53261 0.84638 0.86268 0.0
C7089 C 0.55671 0.84558 0.86769 0.0
H7090 H 0.54199 0.83764 0.85396 0.0
C7091 C 0.55137 0.8506 0.87267 0.0
C7092 C 0.54264 0.85112 0.87086 0.0
H7093 H 0.56346 0.84562 0.86901 0.0
H7094 H 0.55413 0.85433 0.87773 0.0
C7095 C 0.5393 0.84613 0.86425 0.0
C7096 C 0.90666 0.19533 0.8819 0.0
C7097 C 0.90985 0.19827 0.88969 0.0
H7098 H 0.8992 0.19812 0.8709 0.0
C7099 C 0.90864 0.20683 0.8919 0.0
H7100 H 0.90745 0.18876 0.88004 0.0
C7101 C 0.90395 0.21222 0.88663 0.0
C7102 C 0.90029 0.20913 0.8791 0.0
H7103 H 0.91112 0.20929 0.89782 0.0
H7104 H 0.90284 0.21868 0.88868 0.0
C7105 C 0.9019 0.20069 0.87668 0.0
C7106 C 0.55923 0.15045 0.63395 0.0
C7107 C 0.55616 0.15711 0.63901 0.0
H7108 H 0.55635 0.14077 0.62494 0.0
C7109 C 0.54763 0.1596 0.63817 0.0
H7110 H 0.56582 0.14851 0.63432 0.0
C7111 C 0.54216 0.15516 0.63274 0.0
C7112 C 0.54514 0.14817 0.62804 0.0
H7113 H 0.54509 0.16471 0.642 0.0
H7114 H 0.53553 0.15697 0.6325 0.0
C7115 C 0.5538 0.14604 0.62853 0.0
C7116 C 0.59344 0.79422 0.39174 0.0
C7117 C 0.59231 0.80279 0.38955 0.0
H7118 H 0.59904 0.78229 0.38846 0.0
C7119 C 0.59544 0.80569 0.38172 0.0
H7120 H 0.591 0.79179 0.39769 0.0
C7121 C 0.60006 0.80026 0.37644 0.0
C7122 C 0.6016 0.79181 0.37885 0.0
H7123 H 0.59471 0.81227 0.37988 0.0
H7124 H 0.60273 0.80281 0.37064 0.0
C7125 C 0.59799 0.78877 0.38642 0.0
C7126 C 0.94544 0.84499 0.13159 0.0
C7127 C 0.94839 0.84164 0.1393 0.0
H7128 H 0.94825 0.85255 0.12068 0.0
C7129 C 0.95698 0.84271 0.14147 0.0
H7130 H 0.93884 0.84431 0.12977 0.0
C7131 C 0.9624 0.8474 0.13623 0.0
C7132 C 0.95931 0.85119 0.12876 0.0
H7133 H 0.95946 0.84011 0.14733 0.0
H7134 H 0.96891 0.84838 0.13824 0.0
C7135 C 0.95082 0.84974 0.12639 0.0
C7136 C 0.61167 0.90935 0.79735 0.0
C7137 C 0.61189 0.90735 0.80605 0.0
H7138 H 0.61641 0.90649 0.78492 0.0
C7139 C 0.61788 0.90144 0.80896 0.0
H7140 H 0.60711 0.91388 0.79492 0.0
C7141 C 0.62321 0.89724 0.80328 0.0
C7142 C 0.62265 0.89883 0.79451 0.0
H7143 H 0.61832 0.8999 0.81565 0.0
H7144 H 0.62753 0.8925 0.80574 0.0
C7145 C 0.617 0.90511 0.79163 0.0
C7146 C 0.84499 0.86808 0.55517 0.0
C7147 C 0.84224 0.86018 0.55208 0.0
H7148 H 0.85207 0.87939 0.55273 0.0
C7149 C 0.84396 0.85803 0.5436 0.0
H7150 H 0.84381 0.86989 0.5617 0.0
C7151 C 0.84865 0.8635 0.53842 0.0
C7152 C 0.85181 0.87119 0.54167 0.0
H7153 H 0.84184 0.85201 0.54103 0.0
H7154 H 0.85012 0.86153 0.532 0.0
C7155 C 0.84975 0.87351 0.55004 0.0
C7156 C 0.89015 0.09069 0.29645 0.0
C7157 C 0.89273 0.09434 0.30418 0.0
H7158 H 0.88265 0.0921 0.28515 0.0
C7159 C 0.88914 0.1021 0.30669 0.0
H7160 H 0.89281 0.08471 0.29437 0.0
C7161 C 0.88338 0.10629 0.30147 0.0
C7162 C 0.88101 0.10285 0.29358 0.0
H7163 H 0.89085 0.10498 0.3127 0.0
H7164 H 0.88088 0.11233 0.3036 0.0
C7165 C 0.88435 0.09493 0.29118 0.0
C7166 C 0.64817 0.14157 0.0552 0.0
C7167 C 0.65675 0.14337 0.05361 0.0
H7168 H 0.63714 0.13464 0.0516 0.0
C7169 C 0.66088 0.13913 0.04693 0.0
H7170 H 0.64484 0.14456 0.06042 0.0
C7171 C 0.65644 0.13333 0.04183 0.0
C7172 C 0.6478 0.13166 0.04336 0.0
H7173 H 0.6675 0.1404 0.04555 0.0
H7174 H 0.65974 0.13023 0.03666 0.0
C7175 C 0.64376 0.13581 0.05015 0.0
C7176 C 0.61711 0.09978 0.69232 0.0
C7177 C 0.61128 0.09387 0.69555 0.0
H7178 H 0.62694 0.10869 0.69503 0.0
C7179 C 0.61149 0.09191 0.70425 0.0
H7180 H 0.61722 0.10129 0.68562 0.0
C7181 C 0.6171 0.09616 0.7097 0.0
C7182 C 0.62263 0.10241 0.70651 0.0
H7183 H 0.60705 0.08738 0.70692 0.0
H7184 H 0.61687 0.09479 0.71643 0.0
C7185 C 0.62272 0.10398 0.69773 0.0
C7186 C 0.65814 0.85773 0.45759 0.0
C7187 C 0.66001 0.85994 0.44915 0.0
H7188 H 0.65198 0.86128 0.46917 0.0
C7189 C 0.65762 0.86799 0.44617 0.0
H7190 H 0.65999 0.8516 0.46008 0.0
C7191 C 0.65301 0.87352 0.45135 0.0
C7192 C 0.65076 0.87115 0.45965 0.0
H7193 H 0.65892 0.86986 0.43969 0.0
H7194 H 0.65094 0.87953 0.44873 0.0
C7195 C 0.6536 0.8633 0.46281 0.0
C7196 C 0.88962 0.91114 0.20506 0.0
C7197 C 0.89462 0.90678 0.19907 0.0
H7198 H 0.88011 0.91022 0.21479 0.0
C7199 C 0.89368 0.89795 0.19832 0.0
H7200 H 0.89021 0.91794 0.20581 0.0
C7201 C 0.88798 0.89356 0.20344 0.0
C7202 C 0.88299 0.89787 0.20946 0.0
H7203 H 0.89728 0.89441 0.19365 0.0
H7204 H 0.88745 0.88676 0.2026 0.0
C7205 C 0.88386 0.90672 0.21022 0.0
C7206 C 0.84253 0.14221 0.95731 0.0
C7207 C 0.84136 0.14002 0.94874 0.0
H7208 H 0.84832 0.13899 0.96917 0.0
C7209 C 0.84463 0.13228 0.94578 0.0
H7210 H 0.84 0.1481 0.95978 0.0
C7211 C 0.84942 0.12707 0.95113 0.0
C7212 C 0.85098 0.12947 0.95958 0.0
H7213 H 0.84388 0.13044 0.93919 0.0
H7214 H 0.85217 0.12134 0.94854 0.0
C7215 C 0.84725 0.13696 0.96269 0.0
C7216 C 0.80067 0.6168 0.90987 0.0
C7217 C 0.80083 0.60802 0.90824 0.0
H7218 H 0.79525 0.62886 0.90666 0.0
C7219 C 0.79483 0.60459 0.90261 0.0
H7220 H 0.80523 0.61965 0.91416 0.0
C7221 C 0.78916 0.60985 0.89829 0.0
C7222 C 0.78933 0.61868 0.89952 0.0
H7223 H 0.79465 0.59783 0.90135 0.0
H7224 H 0.78484 0.607 0.89376 0.0
C7225 C 0.79496 0.62208 0.90557 0.0
C7226 C 0.29464 0.89141 0.09291 0.0
C7227 C 0.30323 0.88927 0.09184 0.0
H7228 H 0.28272 0.88815 0.09858 0.0
C7229 C 0.30622 0.88158 0.09521 0.0
H7230 H 0.29214 0.89726 0.0903 0.0
C7231 C 0.30085 0.87637 0.09997 0.0
C7232 C 0.29235 0.87872 0.10141 0.0
H7233 H 0.31282 0.87978 0.09453 0.0
H7234 H 0.30345 0.87067 0.10279 0.0
C7235 C 0.28924 0.88616 0.0976 0.0
C7236 C 0.86262 0.54757 0.84076 0.0
C7237 C 0.85702 0.55286 0.84529 0.0
H7238 H 0.87265 0.53837 0.84143 0.0
C7239 C 0.85733 0.55281 0.8542 0.0
H7240 H 0.8625 0.54743 0.83389 0.0
C7241 C 0.86307 0.54762 0.85848 0.0
C7242 C 0.8687 0.54235 0.854 0.0
H7243 H 0.85325 0.55692 0.8579 0.0
H7244 H 0.86313 0.54784 0.86536 0.0
C7245 C 0.8684 0.54235 0.84507 0.0
C7246 C 0.1931 0.11956 0.59927 0.0
C7247 C 0.19598 0.11355 0.59336 0.0
H7248 H 0.1964 0.12906 0.60835 0.0
C7249 C 0.2047 0.11319 0.59147 0.0
H7250 H 0.1864 0.12012 0.60073 0.0
C7251 C 0.21048 0.11837 0.59583 0.0
C7252 C 0.20762 0.12401 0.60214 0.0
H7253 H 0.20711 0.10861 0.58695 0.0
H7254 H 0.21719 0.11766 0.59454 0.0
C7255 C 0.19884 0.12473 0.6036 0.0
C7256 C 0.14409 0.95809 0.84313 0.0
C7257 C 0.14188 0.94964 0.84131 0.0
H7258 H 0.14058 0.96969 0.84927 0.0
C7259 C 0.13385 0.94665 0.84379 0.0
H7260 H 0.15021 0.96058 0.84121 0.0
C7261 C 0.12836 0.95184 0.84843 0.0
C7262 C 0.13074 0.96015 0.85062 0.0
H7263 H 0.13199 0.94016 0.84253 0.0
H7264 H 0.12237 0.94921 0.85057 0.0
C7265 C 0.13855 0.96331 0.84769 0.0
C7266 C 0.70737 0.39199 0.41008 0.0
C7267 C 0.69859 0.39041 0.41029 0.0
H7268 H 0.71942 0.38854 0.4048 0.0
C7269 C 0.69533 0.38347 0.40574 0.0
H7270 H 0.71006 0.39724 0.4136 0.0
C7271 C 0.70066 0.37852 0.40068 0.0
C7272 C 0.70938 0.38035 0.40012 0.0
H7273 H 0.68858 0.38213 0.40573 0.0
H7274 H 0.69789 0.37345 0.39696 0.0
C7275 C 0.71272 0.38696 0.40508 0.0
C7276 C 0.86243 0.455 0.66006 0.0
C7277 C 0.86096 0.44667 0.65722 0.0
H7278 H 0.86883 0.46682 0.6578 0.0
C7279 C 0.86551 0.44364 0.65019 0.0
H7280 H 0.859 0.4575 0.66547 0.0
C7281 C 0.8711 0.44892 0.64584 0.0
C7282 C 0.8723 0.45739 0.64839 0.0
H7283 H 0.86465 0.43719 0.64796 0.0
H7284 H 0.87433 0.44639 0.64032 0.0
C7285 C 0.86804 0.46033 0.65566 0.0
C7286 C 0.64381 0.55286 0.14778 0.0
C7287 C 0.64443 0.55222 0.15665 0.0
H7288 H 0.63795 0.54844 0.13643 0.0
C7289 C 0.63928 0.54629 0.1609 0.0
H7290 H 0.64753 0.55748 0.14431 0.0
C7291 C 0.63366 0.54109 0.15635 0.0
C7292 C 0.63309 0.54174 0.14746 0.0
H7293 H 0.63964 0.54562 0.16773 0.0
H7294 H 0.62978 0.53657 0.15978 0.0
C7295 C 0.63824 0.54769 0.14326 0.0
C7296 C 0.60011 0.70257 0.88296 0.0
C7297 C 0.59326 0.69704 0.88141 0.0
H7298 H 0.60876 0.71168 0.87781 0.0
C7299 C 0.58992 0.69655 0.87315 0.0
H7300 H 0.60271 0.70324 0.88928 0.0
C7301 C 0.59343 0.70136 0.86658 0.0
C7302 C 0.60039 0.70671 0.86809 0.0
H7303 H 0.58473 0.69228 0.87169 0.0
H7304 H 0.59078 0.70075 0.86026 0.0
C7305 C 0.60363 0.70736 0.87637 0.0
C7306 C 0.54751 0.34819 0.13488 0.0
C7307 C 0.55332 0.3416 0.13329 0.0
H7308 H 0.53819 0.35664 0.12972 0.0
C7309 C 0.55411 0.33849 0.12496 0.0
H7310 H 0.54661 0.35061 0.14125 0.0
C7311 C 0.54931 0.34197 0.11837 0.0
C7312 C 0.54369 0.34871 0.11993 0.0
H7313 H 0.5586 0.3335 0.12348 0.0
H7314 H 0.55016 0.33952 0.11201 0.0
C7315 C 0.54273 0.3517 0.12827 0.0
C7316 C 0.91258 0.30418 0.37274 0.0
C7317 C 0.90921 0.30394 0.381 0.0
H7318 H 0.91174 0.29961 0.35998 0.0
C7319 C 0.90231 0.29852 0.38267 0.0
H7320 H 0.91782 0.30835 0.3712 0.0
C7321 C 0.89877 0.29358 0.3762 0.0
C7322 C 0.90205 0.29395 0.36793 0.0
H7323 H 0.89967 0.29804 0.389 0.0
H7324 H 0.8936 0.28934 0.37774 0.0
C7325 C 0.90906 0.29921 0.36629 0.0
C7326 C 0.94822 0.66215 0.62369 0.0
C7327 C 0.94874 0.65857 0.63185 0.0
H7328 H 0.95253 0.6618 0.61082 0.0
C7329 C 0.95442 0.65182 0.63322 0.0
H7330 H 0.94384 0.66728 0.62238 0.0
C7331 C 0.95934 0.64863 0.62656 0.0
C7332 C 0.95867 0.6521 0.61839 0.0
H7333 H 0.95511 0.64903 0.63946 0.0
H7334 H 0.96379 0.64356 0.62787 0.0
C7335 C 0.95316 0.65897 0.61705 0.0
C7336 C 0.60102 0.29758 0.61688 0.0
C7337 C 0.59408 0.303 0.6184 0.0
H7338 H 0.60957 0.28834 0.62198 0.0
C7339 C 0.59057 0.30327 0.62659 0.0
H7340 H 0.60377 0.29709 0.6106 0.0
C7341 C 0.59393 0.2983 0.63311 0.0
C7342 C 0.60093 0.29298 0.63162 0.0
H7343 H 0.58531 0.30746 0.62803 0.0
H7344 H 0.59111 0.29871 0.63937 0.0
C7345 C 0.60439 0.29261 0.62342 0.0
C7346 C 0.95439 0.33824 0.87316 0.0
C7347 C 0.94797 0.34308 0.8693 0.0
H7348 H 0.96407 0.33771 0.88271 0.0
C7349 C 0.94649 0.35138 0.87224 0.0
H7350 H 0.95573 0.33185 0.87101 0.0
C7351 C 0.95126 0.35473 0.87892 0.0
C7352 C 0.95767 0.34989 0.88276 0.0
H7353 H 0.94144 0.3552 0.86955 0.0
H7354 H 0.94969 0.36098 0.88127 0.0
C7355 C 0.95918 0.3416 0.87983 0.0
C7356 C 0.91291 0.69674 0.12845 0.0
C7357 C 0.90962 0.69707 0.12015 0.0
H7358 H 0.912 0.70121 0.14124 0.0
C7359 C 0.90278 0.70256 0.11846 0.0
H7360 H 0.91809 0.69251 0.13001 0.0
C7361 C 0.89923 0.70749 0.12494 0.0
C7362 C 0.90243 0.70703 0.13324 0.0
H7363 H 0.90021 0.70311 0.11211 0.0
H7364 H 0.89411 0.71179 0.12338 0.0
C7365 C 0.90938 0.70169 0.1349 0.0
C7366 C 0.55481 0.64941 0.37203 0.0
C7367 C 0.55328 0.65768 0.36905 0.0
H7368 H 0.55159 0.63982 0.38107 0.0
C7369 C 0.54675 0.66247 0.3728 0.0
H7370 H 0.55992 0.64563 0.36942 0.0
C7371 C 0.54192 0.65909 0.37942 0.0
C7372 C 0.54347 0.65083 0.38241 0.0
H7373 H 0.54537 0.66884 0.3706 0.0
H7374 H 0.53695 0.66294 0.38221 0.0
C7375 C 0.54998 0.64604 0.37866 0.0
C7376 C 0.87958 0.60088 0.69766 0.0
C7377 C 0.88306 0.59284 0.69936 0.0
H7378 H 0.86998 0.60997 0.70069 0.0
C7379 C 0.87964 0.58799 0.70602 0.0
H7380 H 0.88192 0.60469 0.69244 0.0
C7381 C 0.87285 0.5911 0.71082 0.0
C7382 C 0.86937 0.59912 0.70909 0.0
H7383 H 0.88221 0.5818 0.70752 0.0
H7384 H 0.87031 0.5872 0.71588 0.0
C7385 C 0.87278 0.60396 0.70245 0.0
C7386 C 0.65329 0.63309 0.95271 0.0
C7387 C 0.66012 0.63141 0.94721 0.0
H7388 H 0.64475 0.6282 0.96207 0.0
C7389 C 0.66351 0.62316 0.94697 0.0
H7390 H 0.65065 0.63941 0.95319 0.0
C7391 C 0.6601 0.61674 0.95204 0.0
C7392 C 0.65316 0.61838 0.95739 0.0
H7393 H 0.66869 0.6216 0.94273 0.0
H7394 H 0.6628 0.61043 0.95164 0.0
C7395 C 0.64986 0.62665 0.95776 0.0
C7396 C 0.62162 0.41277 0.20444 0.0
C7397 C 0.61815 0.40788 0.19784 0.0
H7398 H 0.63082 0.41353 0.21443 0.0
C7399 C 0.62142 0.3997 0.19638 0.0
H7400 H 0.61921 0.41907 0.20579 0.0
C7401 C 0.62805 0.39652 0.20135 0.0
C7402 C 0.63152 0.40143 0.20792 0.0
H7403 H 0.61903 0.39584 0.19122 0.0
H7404 H 0.63066 0.39037 0.1998 0.0
C7405 C 0.62825 0.40959 0.20941 0.0
C7406 C 0.8509 0.36759 0.45334 0.0
C7407 C 0.84407 0.36927 0.44783 0.0
H7408 H 0.8595 0.37251 0.46264 0.0
C7409 C 0.84076 0.37755 0.4475 0.0
H7410 H 0.85349 0.36125 0.45389 0.0
C7411 C 0.84424 0.38399 0.4525 0.0
C7412 C 0.85116 0.38234 0.45787 0.0
H7413 H 0.83559 0.37911 0.44325 0.0
H7414 H 0.84159 0.39032 0.45204 0.0
C7415 C 0.85439 0.37405 0.45832 0.0
C7416 C 0.87961 0.39997 0.80479 0.0
C7417 C 0.88252 0.40827 0.80328 0.0
H7418 H 0.87063 0.39032 0.80158 0.0
C7419 C 0.87869 0.41306 0.7968 0.0
H7420 H 0.88228 0.39619 0.80987 0.0
C7421 C 0.87206 0.40964 0.792 0.0
C7422 C 0.86914 0.40135 0.79353 0.0
H7423 H 0.88083 0.41945 0.79543 0.0
H7424 H 0.86921 0.41349 0.78707 0.0
C7425 C 0.87297 0.39657 0.79999 0.0
C7426 C 0.84017 0.62879 0.04601 0.0
C7427 C 0.84491 0.63243 0.05264 0.0
H7428 H 0.83976 0.61949 0.03611 0.0
C7429 C 0.85314 0.62934 0.05426 0.0
H7430 H 0.83385 0.63106 0.04456 0.0
C7431 C 0.85652 0.62274 0.0494 0.0
C7432 C 0.85178 0.61911 0.04279 0.0
H7433 H 0.85688 0.63186 0.05945 0.0
H7434 H 0.8627 0.62027 0.05106 0.0
C7435 C 0.84357 0.62219 0.04116 0.0
C7436 C 0.61827 0.6007 0.29747 0.0
C7437 C 0.6198 0.59382 0.30294 0.0
H7438 H 0.6234 0.60926 0.28825 0.0
C7439 C 0.62803 0.59037 0.30332 0.0
H7440 H 0.61197 0.6034 0.29689 0.0
C7441 C 0.63458 0.59378 0.2984 0.0
C7442 C 0.63307 0.60075 0.29305 0.0
H7443 H 0.62947 0.58515 0.30754 0.0
H7444 H 0.64086 0.59103 0.29889 0.0
C7445 C 0.62484 0.60412 0.29256 0.0
C7446 C 0.64956 0.37079 0.55527 0.0
C7447 C 0.65801 0.36833 0.55377 0.0
H7448 H 0.6395 0.37936 0.5522 0.0
C7449 C 0.66269 0.37259 0.54749 0.0
H7450 H 0.64585 0.36779 0.56022 0.0
C7451 C 0.659 0.37919 0.54284 0.0
C7452 C 0.65055 0.38163 0.54434 0.0
H7453 H 0.66919 0.3708 0.54613 0.0
H7454 H 0.66276 0.38237 0.53805 0.0
C7455 C 0.64589 0.37739 0.55063 0.0
C7456 C 0.70473 0.87847 0.58839 0.0
C7457 C 0.69834 0.88243 0.59318 0.0
H7458 H 0.71437 0.86888 0.588 0.0
C7459 C 0.69685 0.87963 0.60152 0.0
H7460 H 0.70607 0.88052 0.58196 0.0
C7461 C 0.70159 0.87297 0.60497 0.0
C7462 C 0.70799 0.86903 0.60019 0.0
H7463 H 0.69183 0.8824 0.60531 0.0
H7464 H 0.7 0.87072 0.61124 0.0
C7465 C 0.7095 0.87183 0.59185 0.0
C7466 C 0.20409 0.61593 0.40232 0.0
C7467 C 0.19841 0.61755 0.40903 0.0
H7468 H 0.21336 0.62102 0.39379 0.0
C7469 C 0.19782 0.62585 0.41224 0.0
H7470 H 0.20483 0.60958 0.39982 0.0
C7471 C 0.20268 0.63239 0.40876 0.0
C7472 C 0.20818 0.63081 0.40193 0.0
H7473 H 0.19344 0.62736 0.41731 0.0
H7474 H 0.20199 0.63874 0.4113 0.0
C7475 C 0.20893 0.62249 0.39882 0.0
C7476 C 0.63362 0.95439 0.65161 0.0
C7477 C 0.63207 0.94883 0.65843 0.0
H7478 H 0.62852 0.96372 0.64316 0.0
C7479 C 0.62385 0.94847 0.66188 0.0
H7480 H 0.63992 0.95496 0.64891 0.0
C7481 C 0.61732 0.95345 0.65854 0.0
C7482 C 0.61884 0.95886 0.65163 0.0
H7483 H 0.6224 0.94418 0.66705 0.0
H7484 H 0.61104 0.95295 0.66129 0.0
C7485 C 0.62708 0.95936 0.64826 0.0
C7486 C 0.30447 0.38131 0.90081 0.0
C7487 C 0.30296 0.38419 0.90912 0.0
H7488 H 0.30128 0.37237 0.89112 0.0
C7489 C 0.29643 0.38039 0.91387 0.0
H7490 H 0.3096 0.38395 0.89706 0.0
C7491 C 0.29159 0.37381 0.9104 0.0
C7492 C 0.29314 0.37091 0.90211 0.0
H7493 H 0.29507 0.3825 0.92026 0.0
H7494 H 0.28664 0.37096 0.91423 0.0
C7495 C 0.29965 0.37472 0.89736 0.0
C7496 C 0.37783 0.55337 0.66148 0.0
C7497 C 0.36958 0.553 0.6581 0.0
H7498 H 0.39066 0.54893 0.66073 0.0
C7499 C 0.36799 0.54749 0.65124 0.0
H7500 H 0.37932 0.55761 0.66667 0.0
C7501 C 0.37452 0.54258 0.64778 0.0
C7502 C 0.38278 0.54308 0.65108 0.0
H7503 H 0.36166 0.54692 0.6486 0.0
H7504 H 0.37304 0.53826 0.64265 0.0
C7505 C 0.38435 0.54844 0.65803 0.0
C7506 C 0.80468 0.12172 0.1008 0.0
C7507 C 0.80301 0.1183 0.09273 0.0
H7508 H 0.80168 0.1313 0.10992 0.0
C7509 C 0.79637 0.12177 0.08788 0.0
H7510 H 0.80988 0.11933 0.10462 0.0
C7511 C 0.79161 0.12858 0.09098 0.0
C7512 C 0.79335 0.13203 0.09902 0.0
H7513 H 0.79488 0.11924 0.08166 0.0
H7514 H 0.78659 0.13118 0.08707 0.0
C7515 C 0.79993 0.12853 0.10389 0.0
C7516 C 0.63042 0.05479 0.8505 0.0
C7517 C 0.63379 0.0533 0.84237 0.0
H7518 H 0.621 0.05145 0.85968 0.0
C7519 C 0.63035 0.04673 0.83742 0.0
H7520 H 0.63279 0.05994 0.8544 0.0
C7521 C 0.62363 0.04181 0.84051 0.0
C7522 C 0.62025 0.04333 0.84862 0.0
H7523 H 0.63284 0.04537 0.83116 0.0
H7524 H 0.62107 0.03682 0.83653 0.0
C7525 C 0.62371 0.04988 0.85357 0.0
C7526 C 0.87256 0.95568 0.3381 0.0
C7527 C 0.86907 0.94905 0.34293 0.0
H7528 H 0.88197 0.96547 0.33736 0.0
C7529 C 0.87247 0.94735 0.35101 0.0
H7530 H 0.87004 0.95719 0.33189 0.0
C7531 C 0.87928 0.95209 0.35413 0.0
C7532 C 0.88279 0.95869 0.34929 0.0
H7533 H 0.87007 0.94214 0.3548 0.0
H7534 H 0.88203 0.95033 0.36017 0.0
C7535 C 0.87936 0.96044 0.34125 0.0
C7536 C 0.40739 0.30577 0.11925 0.0
C7537 C 0.41042 0.30284 0.11139 0.0
H7538 H 0.40002 0.30302 0.13032 0.0
C7539 C 0.409 0.29433 0.10912 0.0
H7540 H 0.40834 0.3123 0.12116 0.0
C7541 C 0.40427 0.28899 0.11439 0.0
C7542 C 0.40078 0.29208 0.122 0.0
H7543 H 0.41135 0.29188 0.10314 0.0
H7544 H 0.40301 0.28257 0.11229 0.0
C7545 C 0.40259 0.30045 0.12449 0.0
C7546 C 0.45456 0.66122 0.86334 0.0
C7547 C 0.44927 0.65695 0.85753 0.0
H7548 H 0.46357 0.66009 0.87351 0.0
C7549 C 0.44915 0.64804 0.85759 0.0
H7550 H 0.45484 0.66808 0.86342 0.0
C7551 C 0.45413 0.6435 0.86331 0.0
C7552 C 0.45939 0.64772 0.86916 0.0
H7553 H 0.44503 0.64454 0.85334 0.0
H7554 H 0.45378 0.63663 0.86317 0.0
C7555 C 0.45959 0.65664 0.86909 0.0
C7556 C 0.09899 0.69194 0.61936 0.0
C7557 C 0.0935 0.69501 0.61304 0.0
H7558 H 0.10775 0.69494 0.62925 0.0
C7559 C 0.092 0.70379 0.61253 0.0
H7560 H 0.10013 0.68519 0.62003 0.0
C7561 C 0.09636 0.70942 0.61786 0.0
C7562 C 0.10227 0.70636 0.62381 0.0
H7563 H 0.08781 0.70634 0.60771 0.0
H7564 H 0.0954 0.71617 0.61702 0.0
C7565 C 0.10331 0.69754 0.62469 0.0
C7566 C 0.04333 0.34807 0.35292 0.0
C7567 C 0.0497 0.34312 0.3567 0.0
H7568 H 0.03282 0.35643 0.35478 0.0
C7569 C 0.04972 0.34218 0.36558 0.0
H7570 H 0.04302 0.34878 0.34609 0.0
C7571 C 0.04381 0.34653 0.37059 0.0
C7572 C 0.03777 0.35191 0.36681 0.0
H7573 H 0.05457 0.33842 0.36869 0.0
H7574 H 0.04424 0.34599 0.37742 0.0
C7575 C 0.03744 0.35242 0.35791 0.0
C7576 C 0.40211 0.69306 0.38171 0.0
C7577 C 0.40791 0.69608 0.38778 0.0
H7578 H 0.39301 0.69615 0.37216 0.0
C7579 C 0.40959 0.70483 0.38816 0.0
H7580 H 0.40081 0.68634 0.38114 0.0
C7581 C 0.40513 0.7105 0.38296 0.0
C7582 C 0.39892 0.70751 0.37729 0.0
H7583 H 0.41402 0.70734 0.39278 0.0
H7584 H 0.40625 0.71724 0.3837 0.0
C7585 C 0.39768 0.6987 0.37653 0.0
C7586 C 0.04299 0.65351 0.1486 0.0
C7587 C 0.04947 0.65842 0.14495 0.0
H7588 H 0.03254 0.64511 0.14653 0.0
C7589 C 0.04975 0.65927 0.13607 0.0
H7590 H 0.04249 0.65288 0.15542 0.0
C7591 C 0.04398 0.65485 0.13094 0.0
C7592 C 0.03784 0.6495 0.1346 0.0
H7593 H 0.05468 0.66298 0.13305 0.0
H7594 H 0.04461 0.65531 0.12411 0.0
C7595 C 0.03725 0.64909 0.14349 0.0
C7596 C 0.0956 0.30522 0.8818 0.0
C7597 C 0.09206 0.30214 0.88938 0.0
H7598 H 0.10335 0.30257 0.87098 0.0
C7599 C 0.09298 0.29349 0.89136 0.0
H7600 H 0.09504 0.31187 0.88012 0.0
C7601 C 0.09771 0.28814 0.88609 0.0
C7602 C 0.10169 0.29135 0.87878 0.0
H7603 H 0.09023 0.29092 0.89711 0.0
H7604 H 0.09857 0.28159 0.88797 0.0
C7605 C 0.10039 0.2999 0.87658 0.0
C7606 C 0.45463 0.34139 0.6389 0.0
C7607 C 0.44598 0.34358 0.63894 0.0
H7608 H 0.46705 0.34421 0.6341 0.0
C7609 C 0.44309 0.34984 0.63329 0.0
H7610 H 0.45703 0.33659 0.64319 0.0
C7611 C 0.44879 0.35419 0.6281 0.0
C7612 C 0.45753 0.35239 0.62842 0.0
H7613 H 0.43643 0.35154 0.63305 0.0
H7614 H 0.44636 0.35918 0.62406 0.0
C7615 C 0.46036 0.34576 0.6337 0.0
C7616 C 0.1124 0.41069 0.2974 0.0
C7617 C 0.10746 0.40619 0.30333 0.0
H7618 H 0.1219 0.41003 0.28764 0.0
C7619 C 0.1085 0.39736 0.30395 0.0
H7620 H 0.11172 0.4175 0.29675 0.0
C7621 C 0.11425 0.39312 0.29876 0.0
C7622 C 0.11917 0.39756 0.29279 0.0
H7623 H 0.10495 0.39372 0.30857 0.0
H7624 H 0.11485 0.38631 0.29949 0.0
C7625 C 0.1182 0.40642 0.29216 0.0
C7626 C 0.34383 0.35944 0.04451 0.0
C7627 C 0.34253 0.36157 0.05307 0.0
H7628 H 0.34969 0.36281 0.03273 0.0
C7629 C 0.34564 0.36935 0.05611 0.0
H7630 H 0.34142 0.35353 0.04197 0.0
C7631 C 0.35039 0.37466 0.05083 0.0
C7632 C 0.35209 0.37233 0.04239 0.0
H7633 H 0.34478 0.37114 0.06269 0.0
H7634 H 0.35303 0.38043 0.05348 0.0
C7635 C 0.34852 0.36479 0.03921 0.0
C7636 C 0.39099 0.60325 0.8063 0.0
C7637 C 0.39325 0.5948 0.80465 0.0
H7638 H 0.38375 0.61403 0.80255 0.0
C7639 C 0.38946 0.59059 0.79774 0.0
H7640 H 0.39363 0.60662 0.81168 0.0
C7641 C 0.38369 0.59486 0.79246 0.0
C7642 C 0.3816 0.6034 0.79404 0.0
H7643 H 0.39109 0.58408 0.7963 0.0
H7644 H 0.38097 0.59153 0.7871 0.0
C7645 C 0.38526 0.60749 0.80107 0.0
C7646 C 0.15612 0.63147 0.55589 0.0
C7647 C 0.15954 0.63909 0.55277 0.0
H7648 H 0.14844 0.62058 0.5533 0.0
C7649 C 0.1585 0.64108 0.54414 0.0
H7650 H 0.15678 0.62979 0.56252 0.0
C7651 C 0.15376 0.63577 0.53884 0.0
C7652 C 0.14988 0.62842 0.54208 0.0
H7653 H 0.16117 0.64686 0.54154 0.0
H7654 H 0.1528 0.63766 0.5323 0.0
C7655 C 0.15131 0.62621 0.55061 0.0
C7656 C 0.11889 0.5994 0.19294 0.0
C7657 C 0.11263 0.59371 0.19574 0.0
H7658 H 0.12864 0.60815 0.19636 0.0
C7659 C 0.11208 0.59185 0.20445 0.0
H7660 H 0.11959 0.60082 0.18625 0.0
C7661 C 0.11732 0.59604 0.21029 0.0
C7662 C 0.12321 0.60215 0.20751 0.0
H7663 H 0.10731 0.58749 0.2068 0.0
H7664 H 0.11646 0.5948 0.217 0.0
C7665 C 0.12412 0.60356 0.19875 0.0
C7666 C 0.16032 0.36193 0.95483 0.0
C7667 C 0.15845 0.36219 0.94611 0.0
H7668 H 0.15723 0.36656 0.96725 0.0
C7669 C 0.1526 0.36823 0.94314 0.0
H7670 H 0.1648 0.35734 0.9573 0.0
C7671 C 0.1483 0.37349 0.9488 0.0
C7672 C 0.14971 0.37285 0.95758 0.0
H7673 H 0.15117 0.36871 0.93643 0.0
H7674 H 0.14359 0.37783 0.94628 0.0
C7675 C 0.15598 0.3672 0.96053 0.0
C7676 C 0.3896 0.41113 0.705 0.0
C7677 C 0.39446 0.40687 0.69883 0.0
H7678 H 0.38027 0.41005 0.71488 0.0
C7679 C 0.39341 0.39808 0.69785 0.0
H7680 H 0.39029 0.4179 0.70592 0.0
C7681 C 0.38775 0.39361 0.70296 0.0
C7682 C 0.38293 0.39781 0.70919 0.0
H7683 H 0.3969 0.39463 0.69304 0.0
H7684 H 0.38715 0.38684 0.70197 0.0
C7685 C 0.38389 0.40663 0.71015 0.0
C7686 C 0.34954 0.63349 0.44305 0.0
C7687 C 0.34328 0.63902 0.44615 0.0
H7688 H 0.35898 0.62424 0.44597 0.0
C7689 C 0.34117 0.63874 0.45481 0.0
H7690 H 0.35117 0.63343 0.43637 0.0
C7691 C 0.34565 0.63342 0.46036 0.0
C7692 C 0.35229 0.62828 0.45732 0.0
H7693 H 0.33637 0.64294 0.45737 0.0
H7694 H 0.34419 0.63364 0.46707 0.0
C7695 C 0.35398 0.62819 0.44856 0.0
C7696 C 0.29569 0.1161 0.41174 0.0
C7697 C 0.30262 0.11356 0.40671 0.0
H7698 H 0.28506 0.12449 0.41308 0.0
C7699 C 0.30394 0.11761 0.39887 0.0
H7700 H 0.29444 0.11306 0.41777 0.0
C7701 C 0.29854 0.12411 0.39617 0.0
C7702 C 0.29166 0.12667 0.40122 0.0
H7703 H 0.30933 0.11597 0.39493 0.0
H7704 H 0.29999 0.12736 0.39031 0.0
C7705 C 0.2903 0.12261 0.40904 0.0
C7706 C 0.79789 0.38757 0.59063 0.0
C7707 C 0.80352 0.39311 0.59482 0.0
H7708 H 0.78833 0.37794 0.59191 0.0
C7709 C 0.80386 0.39296 0.60372 0.0
H7710 H 0.79747 0.38756 0.58377 0.0
C7711 C 0.79864 0.38753 0.60834 0.0
C7712 C 0.79294 0.38205 0.60421 0.0
H7713 H 0.80825 0.39699 0.60715 0.0
H7714 H 0.79913 0.38764 0.6152 0.0
C7715 C 0.79264 0.38209 0.59528 0.0
C7716 C 0.35817 0.04755 0.35271 0.0
C7717 C 0.35919 0.04842 0.34389 0.0
H7718 H 0.36281 0.04219 0.36423 0.0
C7719 C 0.36588 0.04408 0.33988 0.0
H7720 H 0.3532 0.05092 0.35604 0.0
C7721 C 0.37151 0.03908 0.34462 0.0
C7722 C 0.37055 0.03834 0.35346 0.0
H7723 H 0.36679 0.04457 0.33308 0.0
H7724 H 0.37666 0.03591 0.34139 0.0
C7725 C 0.36375 0.04256 0.35741 0.0
C7726 C 0.70477 0.6128 0.09136 0.0
C7727 C 0.69636 0.61178 0.09418 0.0
H7728 H 0.71694 0.6185 0.09367 0.0
C7729 C 0.69357 0.61653 0.10119 0.0
H7730 H 0.7071 0.60922 0.08597 0.0
C7731 C 0.69915 0.62181 0.10556 0.0
C7732 C 0.7077 0.62249 0.10306 0.0
H7733 H 0.68708 0.61603 0.1034 0.0
H7734 H 0.69681 0.62516 0.11109 0.0
C7735 C 0.7104 0.61811 0.09577 0.0
C7736 C 0.64039 0.4539 0.34147 0.0
C7737 C 0.64164 0.44563 0.34459 0.0
H7738 H 0.63442 0.46599 0.3434 0.0
C7739 C 0.63706 0.443 0.35177 0.0
H7740 H 0.64383 0.4561 0.33595 0.0
C7741 C 0.63169 0.44861 0.356 0.0
C7742 C 0.63076 0.45703 0.35317 0.0
H7743 H 0.63773 0.43661 0.35421 0.0
H7744 H 0.62846 0.4464 0.36164 0.0
C7745 C 0.635 0.45956 0.34574 0.0
C7746 C 0.20712 0.89147 0.90836 0.0
C7747 C 0.19851 0.88931 0.9093 0.0
H7748 H 0.21913 0.88822 0.9029 0.0
C7749 C 0.19561 0.88156 0.90597 0.0
H7750 H 0.20954 0.89735 0.91096 0.0
C7751 C 0.20108 0.87634 0.90133 0.0
C7752 C 0.20958 0.87872 0.9 0.0
H7753 H 0.189 0.87975 0.90655 0.0
H7754 H 0.19854 0.87061 0.89851 0.0
C7755 C 0.21261 0.8862 0.9038 0.0
C7756 C 0.35525 0.95159 0.14876 0.0
C7757 C 0.35648 0.95044 0.15752 0.0
H7758 H 0.35942 0.95755 0.13736 0.0
C7759 C 0.36311 0.95487 0.16154 0.0
H7760 H 0.35034 0.94817 0.14541 0.0
C7761 C 0.36845 0.96026 0.15688 0.0
C7762 C 0.36724 0.9613 0.1481 0.0
H7763 H 0.36419 0.95418 0.1683 0.0
H7764 H 0.37354 0.96351 0.16012 0.0
C7765 C 0.36053 0.95696 0.14414 0.0
C7766 C 0.14672 0.05005 0.64856 0.0
C7767 C 0.14593 0.05082 0.65741 0.0
H7768 H 0.14199 0.04457 0.63712 0.0
C7769 C 0.13953 0.04617 0.66156 0.0
H7770 H 0.15145 0.05364 0.64512 0.0
C7771 C 0.13397 0.04097 0.65694 0.0
C7772 C 0.13473 0.04033 0.64806 0.0
H7773 H 0.13878 0.04656 0.66839 0.0
H7774 H 0.12906 0.03757 0.66028 0.0
C7775 C 0.14123 0.04486 0.64397 0.0
loop_
_geom_bond_atom_site_label_1
_geom_bond_atom_site_label_2
_geom_bond_distance
_geom_bond_site_symmetry_2
_ccdc_geom_bond_type
C0 C1 1.264 . S
C0 C5 1.479 . S
C0 C10 1.465 . S
C1 C0 1.264 . S
C1 C3 1.339 . S
C1 H28 0.931 . S
C2 C3 1.395 . S
C2 C4 1.320 . S
C3 C1 1.339 . S
C3 C2 1.395 . S
C3 H29 0.929 . S
C4 C2 1.320 . S
C4 C5 1.405 . S
C4 H30 0.930 . S
C5 C0 1.479 . S
C5 C4 1.405 . S
C5 H31 0.931 . S
U6 O7 2.454 . S
U6 O8 2.458 . S
U6 C9 2.984 . S
U6 C10 2.847 . S
U6 C23 2.882 . S
U6 O24 2.441 . S
U6 O25 2.420 . S
U6 O26 2.455 . S
U6 O27 2.449 . S
O7 U6 2.454 . S
O7 C9 1.353 . S
O8 U6 2.458 . S
O8 C9 1.286 . S
C9 U6 2.984 . S
C9 O7 1.353 . S
C9 O8 1.286 . S
C9 C11 1.363 . S
C10 C0 1.465 . S
C10 U6 2.847 . S
C10 O24 1.249 . S
C10 O25 1.202 . S
C11 C9 1.363 . S
C11 C13 1.408 . S
C11 C16 1.342 . S
C12 C13 1.310 . S
C12 C15 1.461 . S
C12 H32 0.932 . S
C13 C11 1.408 . S
C13 C12 1.310 . S
C13 H33 0.930 . S
C14 C15 1.474 . S
C14 C16 1.285 . S
C14 H34 0.929 . S
C15 C12 1.461 . S
C15 C14 1.474 . S
C16 C11 1.342 . S
C16 C14 1.285 . S
C16 H35 0.930 . S
C17 C20 1.424 . S
C17 C22 1.245 . S
C17 C23 1.428 . S
C18 C21 1.260 . S
C18 C22 1.477 . S
C18 H36 0.932 . S
C19 C20 1.384 . S
C19 C21 1.479 . S
C19 H37 0.929 . S
C20 C17 1.424 . S
C20 C19 1.384 . S
C20 H38 0.928 . S
C21 C18 1.260 . S
C21 C19 1.479 . S
C22 C17 1.245 . S
C22 C18 1.477 . S
C22 H39 0.932 . S
C23 U6 2.882 . S
C23 C17 1.428 . S
C23 O26 1.301 . S
C23 O27 1.282 . S
O24 U6 2.441 . S
O24 C10 1.249 . S
O25 U6 2.420 . S
O25 C10 1.202 . S
O26 U6 2.455 . S
O26 C23 1.301 . S
O27 U6 2.449 . S
O27 C23 1.282 . S
H28 C1 0.931 . S
H29 C3 0.929 . S
H30 C4 0.930 . S
H31 C5 0.931 . S
H32 C12 0.932 . S
H33 C13 0.930 . S
H34 C14 0.929 . S
H35 C16 0.930 . S
H36 C18 0.932 . S
H37 C19 0.929 . S
H38 C20 0.928 . S
H39 C22 0.932 . S
C40 C41 1.264 . S
C40 C45 1.479 . S
C40 C50 1.465 . S
C41 C40 1.264 . S
C41 C43 1.339 . S
C41 H68 0.931 . S
C42 C43 1.395 . S
C42 C44 1.320 . S
C43 C41 1.339 . S
C43 C42 1.395 . S
C43 H69 0.929 . S
C44 C42 1.320 . S
C44 C45 1.405 . S
C44 H70 0.930 . S
C45 C40 1.479 . S
C45 C44 1.405 . S
C45 H71 0.931 . S
U46 O47 2.454 . S
U46 O48 2.458 . S
U46 C49 2.984 . S
U46 C50 2.847 . S
U46 C63 2.882 . S
U46 O64 2.441 . S
U46 O65 2.420 . S
U46 O66 2.455 . S
U46 O67 2.449 . S
O47 U46 2.454 . S
O47 C49 1.353 . S
O48 U46 2.458 . S
O48 C49 1.286 . S
C49 U46 2.984 . S
C49 O47 1.353 . S
C49 O48 1.286 . S
C49 C51 1.363 . S
C50 C40 1.465 . S
C50 U46 2.847 . S
C50 O64 1.249 . S
C50 O65 1.202 . S
C51 C49 1.363 . S
C51 C53 1.408 . S
C51 C56 1.342 . S
C52 C53 1.310 . S
C52 C55 1.461 . S
C52 H72 0.932 . S
C53 C51 1.408 . S
C53 C52 1.310 . S
C53 H73 0.930 . S
C54 C55 1.474 . S
C54 C56 1.285 . S
C54 H74 0.929 . S
C55 C52 1.461 . S
C55 C54 1.474 . S
C56 C51 1.342 . S
C56 C54 1.285 . S
C56 H75 0.930 . S
C57 C60 1.424 . S
C57 C62 1.245 . S
C57 C63 1.428 . S
C58 C61 1.260 . S
C58 C62 1.477 . S
C58 H76 0.932 . S
C59 C60 1.384 . S
C59 C61 1.479 . S
C59 H77 0.929 . S
C60 C57 1.424 . S
C60 C59 1.384 . S
C60 H78 0.928 . S
C61 C58 1.260 . S
C61 C59 1.479 . S
C62 C57 1.245 . S
C62 C58 1.477 . S
C62 H79 0.932 . S
C63 U46 2.882 . S
C63 C57 1.428 . S
C63 O66 1.301 . S
C63 O67 1.282 . S
O64 U46 2.441 . S
O64 C50 1.249 . S
O65 U46 2.420 . S
O65 C50 1.202 . S
O66 U46 2.455 . S
O66 C63 1.301 . S
O67 U46 2.449 . S
O67 C63 1.282 . S
H68 C41 0.931 . S
H69 C43 0.929 . S
H70 C44 0.930 . S
H71 C45 0.931 . S
H72 C52 0.932 . S
H73 C53 0.930 . S
H74 C54 0.929 . S
H75 C56 0.930 . S
H76 C58 0.932 . S
H77 C59 0.929 . S
H78 C60 0.928 . S
H79 C62 0.932 . S
C80 C81 1.264 . S
C80 C85 1.479 . S
C80 C90 1.465 . S
C81 C80 1.264 . S
C81 C83 1.339 . S
C81 H108 0.931 . S
C82 C83 1.395 . S
C82 C84 1.320 . S
C83 C81 1.339 . S
C83 C82 1.395 . S
C83 H109 0.929 . S
C84 C82 1.320 . S
C84 C85 1.405 . S
C84 H110 0.930 . S
C85 C80 1.479 . S
C85 C84 1.405 . S
C85 H111 0.931 . S
U86 O87 2.454 . S
U86 O88 2.458 . S
U86 C89 2.984 . S
U86 C90 2.847 . S
U86 C103 2.882 . S
U86 O104 2.441 . S
U86 O105 2.420 . S
U86 O106 2.455 . S
U86 O107 2.449 . S
O87 U86 2.454 . S
O87 C89 1.353 . S
O88 U86 2.458 . S
O88 C89 1.286 . S
C89 U86 2.984 . S
C89 O87 1.353 . S
C89 O88 1.286 . S
C89 C91 1.363 . S
C90 C80 1.465 . S
C90 U86 2.847 . S
C90 O104 1.249 . S
C90 O105 1.202 . S
C91 C89 1.363 . S
C91 C93 1.408 . S
C91 C96 1.342 . S
C92 C93 1.310 . S
C92 C95 1.461 . S
C92 H112 0.932 . S
C93 C91 1.408 . S
C93 C92 1.310 . S
C93 H113 0.930 . S
C94 C95 1.474 . S
C94 C96 1.285 . S
C94 H114 0.929 . S
C95 C92 1.461 . S
C95 C94 1.474 . S
C96 C91 1.342 . S
C96 C94 1.285 . S
C96 H115 0.930 . S
C97 C100 1.424 . S
C97 C102 1.245 . S
C97 C103 1.428 . S
C98 C101 1.260 . S
C98 C102 1.477 . S
C98 H116 0.932 . S
C99 C100 1.384 . S
C99 C101 1.479 . S
C99 H117 0.929 . S
C100 C97 1.424 . S
C100 C99 1.384 . S
C100 H118 0.928 . S
C101 C98 1.260 . S
C101 C99 1.479 . S
C102 C97 1.245 . S
C102 C98 1.477 . S
C102 H119 0.932 . S
C103 U86 2.882 . S
C103 C97 1.428 . S
C103 O106 1.301 . S
C103 O107 1.282 . S
O104 U86 2.441 . S
O104 C90 1.249 . S
O105 U86 2.420 . S
O105 C90 1.202 . S
O106 U86 2.455 . S
O106 C103 1.301 . S
O107 U86 2.449 . S
O107 C103 1.282 . S
H108 C81 0.931 . S
H109 C83 0.929 . S
H110 C84 0.930 . S
H111 C85 0.931 . S
H112 C92 0.932 . S
H113 C93 0.930 . S
H114 C94 0.929 . S
H115 C96 0.930 . S
H116 C98 0.932 . S
H117 C99 0.929 . S
H118 C100 0.928 . S
H119 C102 0.932 . S
C120 C121 1.264 . S
C120 C125 1.479 . S
C120 C130 1.465 . S
C121 C120 1.264 . S
C121 C123 1.339 . S
C121 H148 0.931 . S
C122 C123 1.395 . S
C122 C124 1.320 . S
C123 C121 1.339 . S
C123 C122 1.395 . S
C123 H149 0.929 . S
C124 C122 1.320 . S
C124 C125 1.405 . S
C124 H150 0.930 . S
C125 C120 1.479 . S
C125 C124 1.405 . S
C125 H151 0.931 . S
U126 O127 2.454 . S
U126 O128 2.458 . S
U126 C129 2.984 . S
U126 C130 2.847 . S
U126 C143 2.882 . S
U126 O144 2.441 . S
U126 O145 2.420 . S
U126 O146 2.455 . S
U126 O147 2.449 . S
O127 U126 2.454 . S
O127 C129 1.353 . S
O128 U126 2.458 . S
O128 C129 1.286 . S
C129 U126 2.984 . S
C129 O127 1.353 . S
C129 O128 1.286 . S
C129 C131 1.363 . S
C130 C120 1.465 . S
C130 U126 2.847 . S
C130 O144 1.249 . S
C130 O145 1.202 . S
C131 C129 1.363 . S
C131 C133 1.408 . S
C131 C136 1.342 . S
C132 C133 1.310 . S
C132 C135 1.461 . S
C132 H152 0.932 . S
C133 C131 1.408 . S
C133 C132 1.310 . S
C133 H153 0.930 . S
C134 C135 1.474 . S
C134 C136 1.285 . S
C134 H154 0.929 . S
C135 C132 1.461 . S
C135 C134 1.474 . S
C136 C131 1.342 . S
C136 C134 1.285 . S
C136 H155 0.930 . S
C137 C140 1.424 . S
C137 C142 1.245 . S
C137 C143 1.428 . S
C138 C141 1.260 . S
C138 C142 1.477 . S
C138 H156 0.932 . S
C139 C140 1.384 . S
C139 C141 1.479 . S
C139 H157 0.929 . S
C140 C137 1.424 . S
C140 C139 1.384 . S
C140 H158 0.928 . S
C141 C138 1.260 . S
C141 C139 1.479 . S
C142 C137 1.245 . S
C142 C138 1.477 . S
C142 H159 0.932 . S
C143 U126 2.882 . S
C143 C137 1.428 . S
C143 O146 1.301 . S
C143 O147 1.282 . S
O144 U126 2.441 . S
O144 C130 1.249 . S
O145 U126 2.420 . S
O145 C130 1.202 . S
O146 U126 2.455 . S
O146 C143 1.301 . S
O147 U126 2.449 . S
O147 C143 1.282 . S
H148 C121 0.931 . S
H149 C123 0.929 . S
H150 C124 0.930 . S
H151 C125 0.931 . S
H152 C132 0.932 . S
H153 C133 0.930 . S
H154 C134 0.929 . S
H155 C136 0.930 . S
H156 C138 0.932 . S
H157 C139 0.929 . S
H158 C140 0.928 . S
H159 C142 0.932 . S
C160 C161 1.264 . S
C160 C165 1.479 . S
C160 C170 1.465 . S
C161 C160 1.264 . S
C161 C163 1.339 . S
C161 H188 0.931 . S
C162 C163 1.395 . S
C162 C164 1.320 . S
C163 C161 1.339 . S
C163 C162 1.395 . S
C163 H189 0.929 . S
C164 C162 1.320 . S
C164 C165 1.405 . S
C164 H190 0.930 . S
C165 C160 1.479 . S
C165 C164 1.405 . S
C165 H191 0.931 . S
U166 O167 2.454 . S
U166 O168 2.458 . S
U166 C169 2.984 . S
U166 C170 2.847 . S
U166 C183 2.882 . S
U166 O184 2.441 . S
U166 O185 2.420 . S
U166 O186 2.455 . S
U166 O187 2.449 . S
O167 U166 2.454 . S
O167 C169 1.353 . S
O168 U166 2.458 . S
O168 C169 1.286 . S
C169 U166 2.984 . S
C169 O167 1.353 . S
C169 O168 1.286 . S
C169 C171 1.363 . S
C170 C160 1.465 . S
C170 U166 2.847 . S
C170 O184 1.249 . S
C170 O185 1.202 . S
C171 C169 1.363 . S
C171 C173 1.408 . S
C171 C176 1.342 . S
C172 C173 1.310 . S
C172 C175 1.461 . S
C172 H192 0.932 . S
C173 C171 1.408 . S
C173 C172 1.310 . S
C173 H193 0.930 . S
C174 C175 1.474 . S
C174 C176 1.285 . S
C174 H194 0.929 . S
C175 C172 1.461 . S
C175 C174 1.474 . S
C176 C171 1.342 . S
C176 C174 1.285 . S
C176 H195 0.930 . S
C177 C180 1.424 . S
C177 C182 1.245 . S
C177 C183 1.428 . S
C178 C181 1.260 . S
C178 C182 1.477 . S
C178 H196 0.932 . S
C179 C180 1.384 . S
C179 C181 1.479 . S
C179 H197 0.929 . S
C180 C177 1.424 . S
C180 C179 1.384 . S
C180 H198 0.928 . S
C181 C178 1.260 . S
C181 C179 1.479 . S
C182 C177 1.245 . S
C182 C178 1.477 . S
C182 H199 0.932 . S
C183 U166 2.882 . S
C183 C177 1.428 . S
C183 O186 1.301 . S
C183 O187 1.282 . S
O184 U166 2.441 . S
O184 C170 1.249 . S
O185 U166 2.420 . S
O185 C170 1.202 . S
O186 U166 2.455 . S
O186 C183 1.301 . S
O187 U166 2.449 . S
O187 C183 1.282 . S
H188 C161 0.931 . S
H189 C163 0.929 . S
H190 C164 0.930 . S
H191 C165 0.931 . S
H192 C172 0.932 . S
H193 C173 0.930 . S
H194 C174 0.929 . S
H195 C176 0.930 . S
H196 C178 0.932 . S
H197 C179 0.929 . S
H198 C180 0.928 . S
H199 C182 0.932 . S
C200 C201 1.264 . S
C200 C205 1.479 . S
C200 C210 1.465 . S
C201 C200 1.264 . S
C201 C203 1.339 . S
C201 H228 0.931 . S
C202 C203 1.395 . S
C202 C204 1.320 . S
C203 C201 1.339 . S
C203 C202 1.395 . S
C203 H229 0.929 . S
C204 C202 1.320 . S
C204 C205 1.405 . S
C204 H230 0.930 . S
C205 C200 1.479 . S
C205 C204 1.405 . S
C205 H231 0.931 . S
U206 O207 2.454 . S
U206 O208 2.458 . S
U206 C209 2.984 . S
U206 C210 2.847 . S
U206 C223 2.882 . S
U206 O224 2.441 . S
U206 O225 2.420 . S
U206 O226 2.455 . S
U206 O227 2.449 . S
O207 U206 2.454 . S
O207 C209 1.353 . S
O208 U206 2.458 . S
O208 C209 1.286 . S
C209 U206 2.984 . S
C209 O207 1.353 . S
C209 O208 1.286 . S
C209 C211 1.363 . S
C210 C200 1.465 . S
C210 U206 2.847 . S
C210 O224 1.249 . S
C210 O225 1.202 . S
C211 C209 1.363 . S
C211 C213 1.408 . S
C211 C216 1.342 . S
C212 C213 1.310 . S
C212 C215 1.461 . S
C212 H232 0.932 . S
C213 C211 1.408 . S
C213 C212 1.310 . S
C213 H233 0.930 . S
C214 C215 1.474 . S
C214 C216 1.285 . S
C214 H234 0.929 . S
C215 C212 1.461 . S
C215 C214 1.474 . S
C216 C211 1.342 . S
C216 C214 1.285 . S
C216 H235 0.930 . S
C217 C220 1.424 . S
C217 C222 1.245 . S
C217 C223 1.428 . S
C218 C221 1.260 . S
C218 C222 1.477 . S
C218 H236 0.932 . S
C219 C220 1.384 . S
C219 C221 1.479 . S
C219 H237 0.929 . S
C220 C217 1.424 . S
C220 C219 1.384 . S
C220 H238 0.928 . S
C221 C218 1.260 . S
C221 C219 1.479 . S
C222 C217 1.245 . S
C222 C218 1.477 . S
C222 H239 0.932 . S
C223 U206 2.882 . S
C223 C217 1.428 . S
C223 O226 1.301 . S
C223 O227 1.282 . S
O224 U206 2.441 . S
O224 C210 1.249 . S
O225 U206 2.420 . S
O225 C210 1.202 . S
O226 U206 2.455 . S
O226 C223 1.301 . S
O227 U206 2.449 . S
O227 C223 1.282 . S
H228 C201 0.931 . S
H229 C203 0.929 . S
H230 C204 0.930 . S
H231 C205 0.931 . S
H232 C212 0.932 . S
H233 C213 0.930 . S
H234 C214 0.929 . S
H235 C216 0.930 . S
H236 C218 0.932 . S
H237 C219 0.929 . S
H238 C220 0.928 . S
H239 C222 0.932 . S
C240 C241 1.264 . S
C240 C245 1.479 . S
C240 C250 1.465 . S
C241 C240 1.264 . S
C241 C243 1.339 . S
C241 H268 0.931 . S
C242 C243 1.395 . S
C242 C244 1.320 . S
C243 C241 1.339 . S
C243 C242 1.395 . S
C243 H269 0.929 . S
C244 C242 1.320 . S
C244 C245 1.405 . S
C244 H270 0.930 . S
C245 C240 1.479 . S
C245 C244 1.405 . S
C245 H271 0.931 . S
U246 O247 2.454 . S
U246 O248 2.458 . S
U246 C249 2.984 . S
U246 C250 2.847 . S
U246 C263 2.882 . S
U246 O264 2.441 . S
U246 O265 2.420 . S
U246 O266 2.455 . S
U246 O267 2.449 . S
O247 U246 2.454 . S
O247 C249 1.353 . S
O248 U246 2.458 . S
O248 C249 1.286 . S
C249 U246 2.984 . S
C249 O247 1.353 . S
C249 O248 1.286 . S
C249 C251 1.363 . S
C250 C240 1.465 . S
C250 U246 2.847 . S
C250 O264 1.249 . S
C250 O265 1.202 . S
C251 C249 1.363 . S
C251 C253 1.408 . S
C251 C256 1.342 . S
C252 C253 1.310 . S
C252 C255 1.461 . S
C252 H272 0.932 . S
C253 C251 1.408 . S
C253 C252 1.310 . S
C253 H273 0.930 . S
C254 C255 1.474 . S
C254 C256 1.285 . S
C254 H274 0.929 . S
C255 C252 1.461 . S
C255 C254 1.474 . S
C256 C251 1.342 . S
C256 C254 1.285 . S
C256 H275 0.930 . S
C257 C260 1.424 . S
C257 C262 1.245 . S
C257 C263 1.428 . S
C258 C261 1.260 . S
C258 C262 1.477 . S
C258 H276 0.932 . S
C259 C260 1.384 . S
C259 C261 1.479 . S
C259 H277 0.929 . S
C260 C257 1.424 . S
C260 C259 1.384 . S
C260 H278 0.928 . S
C261 C258 1.260 . S
C261 C259 1.479 . S
C262 C257 1.245 . S
C262 C258 1.477 . S
C262 H279 0.932 . S
C263 U246 2.882 . S
C263 C257 1.428 . S
C263 O266 1.301 . S
C263 O267 1.282 . S
O264 U246 2.441 . S
O264 C250 1.249 . S
O265 U246 2.420 . S
O265 C250 1.202 . S
O266 U246 2.455 . S
O266 C263 1.301 . S
O267 U246 2.449 . S
O267 C263 1.282 . S
H268 C241 0.931 . S
H269 C243 0.929 . S
H270 C244 0.930 . S
H271 C245 0.931 . S
H272 C252 0.932 . S
H273 C253 0.930 . S
H274 C254 0.929 . S
H275 C256 0.930 . S
H276 C258 0.932 . S
H277 C259 0.929 . S
H278 C260 0.928 . S
H279 C262 0.932 . S
C280 C281 1.264 . S
C280 C285 1.479 . S
C280 C290 1.465 . S
C281 C280 1.264 . S
C281 C283 1.339 . S
C281 H308 0.931 . S
C282 C283 1.395 . S
C282 C284 1.320 . S
C283 C281 1.339 . S
C283 C282 1.395 . S
C283 H309 0.929 . S
C284 C282 1.320 . S
C284 C285 1.405 . S
C284 H310 0.930 . S
C285 C280 1.479 . S
C285 C284 1.405 . S
C285 H311 0.931 . S
U286 O287 2.454 . S
U286 O288 2.458 . S
U286 C289 2.984 . S
U286 C290 2.847 . S
U286 C303 2.882 . S
U286 O304 2.441 . S
U286 O305 2.420 . S
U286 O306 2.455 . S
U286 O307 2.449 . S
O287 U286 2.454 . S
O287 C289 1.353 . S
O288 U286 2.458 . S
O288 C289 1.286 . S
C289 U286 2.984 . S
C289 O287 1.353 . S
C289 O288 1.286 . S
C289 C291 1.363 . S
C290 C280 1.465 . S
C290 U286 2.847 . S
C290 O304 1.249 . S
C290 O305 1.202 . S
C291 C289 1.363 . S
C291 C293 1.408 . S
C291 C296 1.342 . S
C292 C293 1.310 . S
C292 C295 1.461 . S
C292 H312 0.932 . S
C293 C291 1.408 . S
C293 C292 1.310 . S
C293 H313 0.930 . S
C294 C295 1.474 . S
C294 C296 1.285 . S
C294 H314 0.929 . S
C295 C292 1.461 . S
C295 C294 1.474 . S
C296 C291 1.342 . S
C296 C294 1.285 . S
C296 H315 0.930 . S
C297 C300 1.424 . S
C297 C302 1.245 . S
C297 C303 1.428 . S
C298 C301 1.260 . S
C298 C302 1.477 . S
C298 H316 0.932 . S
C299 C300 1.384 . S
C299 C301 1.479 . S
C299 H317 0.929 . S
C300 C297 1.424 . S
C300 C299 1.384 . S
C300 H318 0.928 . S
C301 C298 1.260 . S
C301 C299 1.479 . S
C302 C297 1.245 . S
C302 C298 1.477 . S
C302 H319 0.932 . S
C303 U286 2.882 . S
C303 C297 1.428 . S
C303 O306 1.301 . S
C303 O307 1.282 . S
O304 U286 2.441 . S
O304 C290 1.249 . S
O305 U286 2.420 . S
O305 C290 1.202 . S
O306 U286 2.455 . S
O306 C303 1.301 . S
O307 U286 2.449 . S
O307 C303 1.282 . S
H308 C281 0.931 . S
H309 C283 0.929 . S
H310 C284 0.930 . S
H311 C285 0.931 . S
H312 C292 0.932 . S
H313 C293 0.930 . S
H314 C294 0.929 . S
H315 C296 0.930 . S
H316 C298 0.932 . S
H317 C299 0.929 . S
H318 C300 0.928 . S
H319 C302 0.932 . S
C320 C321 1.264 . S
C320 C325 1.479 . S
C320 C330 1.465 . S
C321 C320 1.264 . S
C321 C323 1.339 . S
C321 H348 0.931 . S
C322 C323 1.395 . S
C322 C324 1.320 . S
C323 C321 1.339 . S
C323 C322 1.395 . S
C323 H349 0.929 . S
C324 C322 1.320 . S
C324 C325 1.405 . S
C324 H350 0.930 . S
C325 C320 1.479 . S
C325 C324 1.405 . S
C325 H351 0.931 . S
U326 O327 2.454 . S
U326 O328 2.458 . S
U326 C329 2.984 . S
U326 C330 2.847 . S
U326 C343 2.882 . S
U326 O344 2.441 . S
U326 O345 2.420 . S
U326 O346 2.455 . S
U326 O347 2.449 . S
O327 U326 2.454 . S
O327 C329 1.353 . S
O328 U326 2.458 . S
O328 C329 1.286 . S
C329 U326 2.984 . S
C329 O327 1.353 . S
C329 O328 1.286 . S
C329 C331 1.363 . S
C330 C320 1.465 . S
C330 U326 2.847 . S
C330 O344 1.249 . S
C330 O345 1.202 . S
C331 C329 1.363 . S
C331 C333 1.408 . S
C331 C336 1.342 . S
C332 C333 1.310 . S
C332 C335 1.461 . S
C332 H352 0.932 . S
C333 C331 1.408 . S
C333 C332 1.310 . S
C333 H353 0.930 . S
C334 C335 1.474 . S
C334 C336 1.285 . S
C334 H354 0.929 . S
C335 C332 1.461 . S
C335 C334 1.474 . S
C336 C331 1.342 . S
C336 C334 1.285 . S
C336 H355 0.930 . S
C337 C340 1.424 . S
C337 C342 1.245 . S
C337 C343 1.428 . S
C338 C341 1.260 . S
C338 C342 1.477 . S
C338 H356 0.932 . S
C339 C340 1.384 . S
C339 C341 1.479 . S
C339 H357 0.929 . S
C340 C337 1.424 . S
C340 C339 1.384 . S
C340 H358 0.928 . S
C341 C338 1.260 . S
C341 C339 1.479 . S
C342 C337 1.245 . S
C342 C338 1.477 . S
C342 H359 0.932 . S
C343 U326 2.882 . S
C343 C337 1.428 . S
C343 O346 1.301 . S
C343 O347 1.282 . S
O344 U326 2.441 . S
O344 C330 1.249 . S
O345 U326 2.420 . S
O345 C330 1.202 . S
O346 U326 2.455 . S
O346 C343 1.301 . S
O347 U326 2.449 . S
O347 C343 1.282 . S
H348 C321 0.931 . S
H349 C323 0.929 . S
H350 C324 0.930 . S
H351 C325 0.931 . S
H352 C332 0.932 . S
H353 C333 0.930 . S
H354 C334 0.929 . S
H355 C336 0.930 . S
H356 C338 0.932 . S
H357 C339 0.929 . S
H358 C340 0.928 . S
H359 C342 0.932 . S
C360 C361 1.264 . S
C360 C365 1.479 . S
C360 C370 1.465 . S
C361 C360 1.264 . S
C361 C363 1.339 . S
C361 H388 0.931 . S
C362 C363 1.395 . S
C362 C364 1.320 . S
C363 C361 1.339 . S
C363 C362 1.395 . S
C363 H389 0.929 . S
C364 C362 1.320 . S
C364 C365 1.405 . S
C364 H390 0.930 . S
C365 C360 1.479 . S
C365 C364 1.405 . S
C365 H391 0.931 . S
U366 O367 2.454 . S
U366 O368 2.458 . S
U366 C369 2.984 . S
U366 C370 2.847 . S
U366 C383 2.882 . S
U366 O384 2.441 . S
U366 O385 2.420 . S
U366 O386 2.455 . S
U366 O387 2.449 . S
O367 U366 2.454 . S
O367 C369 1.353 . S
O368 U366 2.458 . S
O368 C369 1.286 . S
C369 U366 2.984 . S
C369 O367 1.353 . S
C369 O368 1.286 . S
C369 C371 1.363 . S
C370 C360 1.465 . S
C370 U366 2.847 . S
C370 O384 1.249 . S
C370 O385 1.202 . S
C371 C369 1.363 . S
C371 C373 1.408 . S
C371 C376 1.342 . S
C372 C373 1.310 . S
C372 C375 1.461 . S
C372 H392 0.932 . S
C373 C371 1.408 . S
C373 C372 1.310 . S
C373 H393 0.930 . S
C374 C375 1.474 . S
C374 C376 1.285 . S
C374 H394 0.929 . S
C375 C372 1.461 . S
C375 C374 1.474 . S
C376 C371 1.342 . S
C376 C374 1.285 . S
C376 H395 0.930 . S
C377 C380 1.424 . S
C377 C382 1.245 . S
C377 C383 1.428 . S
C378 C381 1.260 . S
C378 C382 1.477 . S
C378 H396 0.932 . S
C379 C380 1.384 . S
C379 C381 1.479 . S
C379 H397 0.929 . S
C380 C377 1.424 . S
C380 C379 1.384 . S
C380 H398 0.928 . S
C381 C378 1.260 . S
C381 C379 1.479 . S
C382 C377 1.245 . S
C382 C378 1.477 . S
C382 H399 0.932 . S
C383 U366 2.882 . S
C383 C377 1.428 . S
C383 O386 1.301 . S
C383 O387 1.282 . S
O384 U366 2.441 . S
O384 C370 1.249 . S
O385 U366 2.420 . S
O385 C370 1.202 . S
O386 U366 2.455 . S
O386 C383 1.301 . S
O387 U366 2.449 . S
O387 C383 1.282 . S
H388 C361 0.931 . S
H389 C363 0.929 . S
H390 C364 0.930 . S
H391 C365 0.931 . S
H392 C372 0.932 . S
H393 C373 0.930 . S
H394 C374 0.929 . S
H395 C376 0.930 . S
H396 C378 0.932 . S
H397 C379 0.929 . S
H398 C380 0.928 . S
H399 C382 0.932 . S
C400 C401 1.264 . S
C400 C405 1.479 . S
C400 C410 1.465 . S
C401 C400 1.264 . S
C401 C403 1.339 . S
C401 H428 0.931 . S
C402 C403 1.395 . S
C402 C404 1.320 . S
C403 C401 1.339 . S
C403 C402 1.395 . S
C403 H429 0.929 . S
C404 C402 1.320 . S
C404 C405 1.405 . S
C404 H430 0.930 . S
C405 C400 1.479 . S
C405 C404 1.405 . S
C405 H431 0.931 . S
U406 O407 2.454 . S
U406 O408 2.458 . S
U406 C409 2.984 . S
U406 C410 2.847 . S
U406 C423 2.882 . S
U406 O424 2.441 . S
U406 O425 2.420 . S
U406 O426 2.455 . S
U406 O427 2.449 . S
O407 U406 2.454 . S
O407 C409 1.353 . S
O408 U406 2.458 . S
O408 C409 1.286 . S
C409 U406 2.984 . S
C409 O407 1.353 . S
C409 O408 1.286 . S
C409 C411 1.363 . S
C410 C400 1.465 . S
C410 U406 2.847 . S
C410 O424 1.249 . S
C410 O425 1.202 . S
C411 C409 1.363 . S
C411 C413 1.408 . S
C411 C416 1.342 . S
C412 C413 1.310 . S
C412 C415 1.461 . S
C412 H432 0.932 . S
C413 C411 1.408 . S
C413 C412 1.310 . S
C413 H433 0.930 . S
C414 C415 1.474 . S
C414 C416 1.285 . S
C414 H434 0.929 . S
C415 C412 1.461 . S
C415 C414 1.474 . S
C416 C411 1.342 . S
C416 C414 1.285 . S
C416 H435 0.930 . S
C417 C420 1.424 . S
C417 C422 1.245 . S
C417 C423 1.428 . S
C418 C421 1.260 . S
C418 C422 1.477 . S
C418 H436 0.932 . S
C419 C420 1.384 . S
C419 C421 1.479 . S
C419 H437 0.929 . S
C420 C417 1.424 . S
C420 C419 1.384 . S
C420 H438 0.928 . S
C421 C418 1.260 . S
C421 C419 1.479 . S
C422 C417 1.245 . S
C422 C418 1.477 . S
C422 H439 0.932 . S
C423 U406 2.882 . S
C423 C417 1.428 . S
C423 O426 1.301 . S
C423 O427 1.282 . S
O424 U406 2.441 . S
O424 C410 1.249 . S
O425 U406 2.420 . S
O425 C410 1.202 . S
O426 U406 2.455 . S
O426 C423 1.301 . S
O427 U406 2.449 . S
O427 C423 1.282 . S
H428 C401 0.931 . S
H429 C403 0.929 . S
H430 C404 0.930 . S
H431 C405 0.931 . S
H432 C412 0.932 . S
H433 C413 0.930 . S
H434 C414 0.929 . S
H435 C416 0.930 . S
H436 C418 0.932 . S
H437 C419 0.929 . S
H438 C420 0.928 . S
H439 C422 0.932 . S
C440 C441 1.264 . S
C440 C445 1.479 . S
C440 C450 1.465 . S
C441 C440 1.264 . S
C441 C443 1.339 . S
C441 H468 0.931 . S
C442 C443 1.395 . S
C442 C444 1.320 . S
C443 C441 1.339 . S
C443 C442 1.395 . S
C443 H469 0.929 . S
C444 C442 1.320 . S
C444 C445 1.405 . S
C444 H470 0.930 . S
C445 C440 1.479 . S
C445 C444 1.405 . S
C445 H471 0.931 . S
U446 O447 2.454 . S
U446 O448 2.458 . S
U446 C449 2.984 . S
U446 C450 2.847 . S
U446 C463 2.882 . S
U446 O464 2.441 . S
U446 O465 2.420 . S
U446 O466 2.455 . S
U446 O467 2.449 . S
O447 U446 2.454 . S
O447 C449 1.353 . S
O448 U446 2.458 . S
O448 C449 1.286 . S
C449 U446 2.984 . S
C449 O447 1.353 . S
C449 O448 1.286 . S
C449 C451 1.363 . S
C450 C440 1.465 . S
C450 U446 2.847 . S
C450 O464 1.249 . S
C450 O465 1.202 . S
C451 C449 1.363 . S
C451 C453 1.408 . S
C451 C456 1.342 . S
C452 C453 1.310 . S
C452 C455 1.461 . S
C452 H472 0.932 . S
C453 C451 1.408 . S
C453 C452 1.310 . S
C453 H473 0.930 . S
C454 C455 1.474 . S
C454 C456 1.285 . S
C454 H474 0.929 . S
C455 C452 1.461 . S
C455 C454 1.474 . S
C456 C451 1.342 . S
C456 C454 1.285 . S
C456 H475 0.930 . S
C457 C460 1.424 . S
C457 C462 1.245 . S
C457 C463 1.428 . S
C458 C461 1.260 . S
C458 C462 1.477 . S
C458 H476 0.932 . S
C459 C460 1.384 . S
C459 C461 1.479 . S
C459 H477 0.929 . S
C460 C457 1.424 . S
C460 C459 1.384 . S
C460 H478 0.928 . S
C461 C458 1.260 . S
C461 C459 1.479 . S
C462 C457 1.245 . S
C462 C458 1.477 . S
C462 H479 0.932 . S
C463 U446 2.882 . S
C463 C457 1.428 . S
C463 O466 1.301 . S
C463 O467 1.282 . S
O464 U446 2.441 . S
O464 C450 1.249 . S
O465 U446 2.420 . S
O465 C450 1.202 . S
O466 U446 2.455 . S
O466 C463 1.301 . S
O467 U446 2.449 . S
O467 C463 1.282 . S
H468 C441 0.931 . S
H469 C443 0.929 . S
H470 C444 0.930 . S
H471 C445 0.931 . S
H472 C452 0.932 . S
H473 C453 0.930 . S
H474 C454 0.929 . S
H475 C456 0.930 . S
H476 C458 0.932 . S
H477 C459 0.929 . S
H478 C460 0.928 . S
H479 C462 0.932 . S
C480 C481 1.264 . S
C480 C485 1.479 . S
C480 C490 1.465 . S
C481 C480 1.264 . S
C481 C483 1.339 . S
C481 H508 0.931 . S
C482 C483 1.395 . S
C482 C484 1.320 . S
C483 C481 1.339 . S
C483 C482 1.395 . S
C483 H509 0.929 . S
C484 C482 1.320 . S
C484 C485 1.405 . S
C484 H510 0.930 . S
C485 C480 1.479 . S
C485 C484 1.405 . S
C485 H511 0.931 . S
U486 O487 2.454 . S
U486 O488 2.458 . S
U486 C489 2.984 . S
U486 C490 2.847 . S
U486 C503 2.882 . S
U486 O504 2.441 . S
U486 O505 2.420 . S
U486 O506 2.455 . S
U486 O507 2.449 . S
O487 U486 2.454 . S
O487 C489 1.353 . S
O488 U486 2.458 . S
O488 C489 1.286 . S
C489 U486 2.984 . S
C489 O487 1.353 . S
C489 O488 1.286 . S
C489 C491 1.363 . S
C490 C480 1.465 . S
C490 U486 2.847 . S
C490 O504 1.249 . S
C490 O505 1.202 . S
C491 C489 1.363 . S
C491 C493 1.408 . S
C491 C496 1.342 . S
C492 C493 1.310 . S
C492 C495 1.461 . S
C492 H512 0.932 . S
C493 C491 1.408 . S
C493 C492 1.310 . S
C493 H513 0.930 . S
C494 C495 1.474 . S
C494 C496 1.285 . S
C494 H514 0.929 . S
C495 C492 1.461 . S
C495 C494 1.474 . S
C496 C491 1.342 . S
C496 C494 1.285 . S
C496 H515 0.930 . S
C497 C500 1.424 . S
C497 C502 1.245 . S
C497 C503 1.428 . S
C498 C501 1.260 . S
C498 C502 1.477 . S
C498 H516 0.932 . S
C499 C500 1.384 . S
C499 C501 1.479 . S
C499 H517 0.929 . S
C500 C497 1.424 . S
C500 C499 1.384 . S
C500 H518 0.928 . S
C501 C498 1.260 . S
C501 C499 1.479 . S
C502 C497 1.245 . S
C502 C498 1.477 . S
C502 H519 0.932 . S
C503 U486 2.882 . S
C503 C497 1.428 . S
C503 O506 1.301 . S
C503 O507 1.282 . S
O504 U486 2.441 . S
O504 C490 1.249 . S
O505 U486 2.420 . S
O505 C490 1.202 . S
O506 U486 2.455 . S
O506 C503 1.301 . S
O507 U486 2.449 . S
O507 C503 1.282 . S
H508 C481 0.931 . S
H509 C483 0.929 . S
H510 C484 0.930 . S
H511 C485 0.931 . S
H512 C492 0.932 . S
H513 C493 0.930 . S
H514 C494 0.929 . S
H515 C496 0.930 . S
H516 C498 0.932 . S
H517 C499 0.929 . S
H518 C500 0.928 . S
H519 C502 0.932 . S
C520 C521 1.264 . S
C520 C525 1.479 . S
C520 C530 1.465 . S
C521 C520 1.264 . S
C521 C523 1.339 . S
C521 H548 0.931 . S
C522 C523 1.395 . S
C522 C524 1.320 . S
C523 C521 1.339 . S
C523 C522 1.395 . S
C523 H549 0.929 . S
C524 C522 1.320 . S
C524 C525 1.405 . S
C524 H550 0.930 . S
C525 C520 1.479 . S
C525 C524 1.405 . S
C525 H551 0.931 . S
U526 O527 2.454 . S
U526 O528 2.458 . S
U526 C529 2.984 . S
U526 C530 2.847 . S
U526 C543 2.882 . S
U526 O544 2.441 . S
U526 O545 2.420 . S
U526 O546 2.455 . S
U526 O547 2.449 . S
O527 U526 2.454 . S
O527 C529 1.353 . S
O528 U526 2.458 . S
O528 C529 1.286 . S
C529 U526 2.984 . S
C529 O527 1.353 . S
C529 O528 1.286 . S
C529 C531 1.363 . S
C530 C520 1.465 . S
C530 U526 2.847 . S
C530 O544 1.249 . S
C530 O545 1.202 . S
C531 C529 1.363 . S
C531 C533 1.408 . S
C531 C536 1.342 . S
C532 C533 1.310 . S
C532 C535 1.461 . S
C532 H552 0.932 . S
C533 C531 1.408 . S
C533 C532 1.310 . S
C533 H553 0.930 . S
C534 C535 1.474 . S
C534 C536 1.285 . S
C534 H554 0.929 . S
C535 C532 1.461 . S
C535 C534 1.474 . S
C536 C531 1.342 . S
C536 C534 1.285 . S
C536 H555 0.930 . S
C537 C540 1.424 . S
C537 C542 1.245 . S
C537 C543 1.428 . S
C538 C541 1.260 . S
C538 C542 1.477 . S
C538 H556 0.932 . S
C539 C540 1.384 . S
C539 C541 1.479 . S
C539 H557 0.929 . S
C540 C537 1.424 . S
C540 C539 1.384 . S
C540 H558 0.928 . S
C541 C538 1.260 . S
C541 C539 1.479 . S
C542 C537 1.245 . S
C542 C538 1.477 . S
C542 H559 0.932 . S
C543 U526 2.882 . S
C543 C537 1.428 . S
C543 O546 1.301 . S
C543 O547 1.282 . S
O544 U526 2.441 . S
O544 C530 1.249 . S
O545 U526 2.420 . S
O545 C530 1.202 . S
O546 U526 2.455 . S
O546 C543 1.301 . S
O547 U526 2.449 . S
O547 C543 1.282 . S
H548 C521 0.931 . S
H549 C523 0.929 . S
H550 C524 0.930 . S
H551 C525 0.931 . S
H552 C532 0.932 . S
H553 C533 0.930 . S
H554 C534 0.929 . S
H555 C536 0.930 . S
H556 C538 0.932 . S
H557 C539 0.929 . S
H558 C540 0.928 . S
H559 C542 0.932 . S
C560 C561 1.264 . S
C560 C565 1.479 . S
C560 C570 1.465 . S
C561 C560 1.264 . S
C561 C563 1.339 . S
C561 H588 0.931 . S
C562 C563 1.395 . S
C562 C564 1.320 . S
C563 C561 1.339 . S
C563 C562 1.395 . S
C563 H589 0.929 . S
C564 C562 1.320 . S
C564 C565 1.405 . S
C564 H590 0.930 . S
C565 C560 1.479 . S
C565 C564 1.405 . S
C565 H591 0.931 . S
U566 O567 2.454 . S
U566 O568 2.458 . S
U566 C569 2.984 . S
U566 C570 2.847 . S
U566 C583 2.882 . S
U566 O584 2.441 . S
U566 O585 2.420 . S
U566 O586 2.455 . S
U566 O587 2.449 . S
O567 U566 2.454 . S
O567 C569 1.353 . S
O568 U566 2.458 . S
O568 C569 1.286 . S
C569 U566 2.984 . S
C569 O567 1.353 . S
C569 O568 1.286 . S
C569 C571 1.363 . S
C570 C560 1.465 . S
C570 U566 2.847 . S
C570 O584 1.249 . S
C570 O585 1.202 . S
C571 C569 1.363 . S
C571 C573 1.408 . S
C571 C576 1.342 . S
C572 C573 1.310 . S
C572 C575 1.461 . S
C572 H592 0.932 . S
C573 C571 1.408 . S
C573 C572 1.310 . S
C573 H593 0.930 . S
C574 C575 1.474 . S
C574 C576 1.285 . S
C574 H594 0.929 . S
C575 C572 1.461 . S
C575 C574 1.474 . S
C576 C571 1.342 . S
C576 C574 1.285 . S
C576 H595 0.930 . S
C577 C580 1.424 . S
C577 C582 1.245 . S
C577 C583 1.428 . S
C578 C581 1.260 . S
C578 C582 1.477 . S
C578 H596 0.932 . S
C579 C580 1.384 . S
C579 C581 1.479 . S
C579 H597 0.929 . S
C580 C577 1.424 . S
C580 C579 1.384 . S
C580 H598 0.928 . S
C581 C578 1.260 . S
C581 C579 1.479 . S
C582 C577 1.245 . S
C582 C578 1.477 . S
C582 H599 0.932 . S
C583 U566 2.882 . S
C583 C577 1.428 . S
C583 O586 1.301 . S
C583 O587 1.282 . S
O584 U566 2.441 . S
O584 C570 1.249 . S
O585 U566 2.420 . S
O585 C570 1.202 . S
O586 U566 2.455 . S
O586 C583 1.301 . S
O587 U566 2.449 . S
O587 C583 1.282 . S
H588 C561 0.931 . S
H589 C563 0.929 . S
H590 C564 0.930 . S
H591 C565 0.931 . S
H592 C572 0.932 . S
H593 C573 0.930 . S
H594 C574 0.929 . S
H595 C576 0.930 . S
H596 C578 0.932 . S
H597 C579 0.929 . S
H598 C580 0.928 . S
H599 C582 0.932 . S
C600 C601 1.264 . S
C600 C605 1.479 . S
C600 C610 1.465 . S
C601 C600 1.264 . S
C601 C603 1.339 . S
C601 H628 0.931 . S
C602 C603 1.395 . S
C602 C604 1.320 . S
C603 C601 1.339 . S
C603 C602 1.395 . S
C603 H629 0.929 . S
C604 C602 1.320 . S
C604 C605 1.405 . S
C604 H630 0.930 . S
C605 C600 1.479 . S
C605 C604 1.405 . S
C605 H631 0.931 . S
U606 O607 2.454 . S
U606 O608 2.458 . S
U606 C609 2.984 . S
U606 C610 2.847 . S
U606 C623 2.882 . S
U606 O624 2.441 . S
U606 O625 2.420 . S
U606 O626 2.455 . S
U606 O627 2.449 . S
O607 U606 2.454 . S
O607 C609 1.353 . S
O608 U606 2.458 . S
O608 C609 1.286 . S
C609 U606 2.984 . S
C609 O607 1.353 . S
C609 O608 1.286 . S
C609 C611 1.363 . S
C610 C600 1.465 . S
C610 U606 2.847 . S
C610 O624 1.249 . S
C610 O625 1.202 . S
C611 C609 1.363 . S
C611 C613 1.408 . S
C611 C616 1.342 . S
C612 C613 1.310 . S
C612 C615 1.461 . S
C612 H632 0.932 . S
C613 C611 1.408 . S
C613 C612 1.310 . S
C613 H633 0.930 . S
C614 C615 1.474 . S
C614 C616 1.285 . S
C614 H634 0.929 . S
C615 C612 1.461 . S
C615 C614 1.474 . S
C616 C611 1.342 . S
C616 C614 1.285 . S
C616 H635 0.930 . S
C617 C620 1.424 . S
C617 C622 1.245 . S
C617 C623 1.428 . S
C618 C621 1.260 . S
C618 C622 1.477 . S
C618 H636 0.932 . S
C619 C620 1.384 . S
C619 C621 1.479 . S
C619 H637 0.929 . S
C620 C617 1.424 . S
C620 C619 1.384 . S
C620 H638 0.928 . S
C621 C618 1.260 . S
C621 C619 1.479 . S
C622 C617 1.245 . S
C622 C618 1.477 . S
C622 H639 0.932 . S
C623 U606 2.882 . S
C623 C617 1.428 . S
C623 O626 1.301 . S
C623 O627 1.282 . S
O624 U606 2.441 . S
O624 C610 1.249 . S
O625 U606 2.420 . S
O625 C610 1.202 . S
O626 U606 2.455 . S
O626 C623 1.301 . S
O627 U606 2.449 . S
O627 C623 1.282 . S
H628 C601 0.931 . S
H629 C603 0.929 . S
H630 C604 0.930 . S
H631 C605 0.931 . S
H632 C612 0.932 . S
H633 C613 0.930 . S
H634 C614 0.929 . S
H635 C616 0.930 . S
H636 C618 0.932 . S
H637 C619 0.929 . S
H638 C620 0.928 . S
H639 C622 0.932 . S
C640 C641 1.264 . S
C640 C645 1.479 . S
C640 C650 1.465 . S
C641 C640 1.264 . S
C641 C643 1.339 . S
C641 H668 0.931 . S
C642 C643 1.395 . S
C642 C644 1.320 . S
C643 C641 1.339 . S
C643 C642 1.395 . S
C643 H669 0.929 . S
C644 C642 1.320 . S
C644 C645 1.405 . S
C644 H670 0.930 . S
C645 C640 1.479 . S
C645 C644 1.405 . S
C645 H671 0.931 . S
U646 O647 2.454 . S
U646 O648 2.458 . S
U646 C649 2.984 . S
U646 C650 2.847 . S
U646 C663 2.882 . S
U646 O664 2.441 . S
U646 O665 2.420 . S
U646 O666 2.455 . S
U646 O667 2.449 . S
O647 U646 2.454 . S
O647 C649 1.353 . S
O648 U646 2.458 . S
O648 C649 1.286 . S
C649 U646 2.984 . S
C649 O647 1.353 . S
C649 O648 1.286 . S
C649 C651 1.363 . S
C650 C640 1.465 . S
C650 U646 2.847 . S
C650 O664 1.249 . S
C650 O665 1.202 . S
C651 C649 1.363 . S
C651 C653 1.408 . S
C651 C656 1.342 . S
C652 C653 1.310 . S
C652 C655 1.461 . S
C652 H672 0.932 . S
C653 C651 1.408 . S
C653 C652 1.310 . S
C653 H673 0.930 . S
C654 C655 1.474 . S
C654 C656 1.285 . S
C654 H674 0.929 . S
C655 C652 1.461 . S
C655 C654 1.474 . S
C656 C651 1.342 . S
C656 C654 1.285 . S
C656 H675 0.930 . S
C657 C660 1.424 . S
C657 C662 1.245 . S
C657 C663 1.428 . S
C658 C661 1.260 . S
C658 C662 1.477 . S
C658 H676 0.932 . S
C659 C660 1.384 . S
C659 C661 1.479 . S
C659 H677 0.929 . S
C660 C657 1.424 . S
C660 C659 1.384 . S
C660 H678 0.928 . S
C661 C658 1.260 . S
C661 C659 1.479 . S
C662 C657 1.245 . S
C662 C658 1.477 . S
C662 H679 0.932 . S
C663 U646 2.882 . S
C663 C657 1.428 . S
C663 O666 1.301 . S
C663 O667 1.282 . S
O664 U646 2.441 . S
O664 C650 1.249 . S
O665 U646 2.420 . S
O665 C650 1.202 . S
O666 U646 2.455 . S
O666 C663 1.301 . S
O667 U646 2.449 . S
O667 C663 1.282 . S
H668 C641 0.931 . S
H669 C643 0.929 . S
H670 C644 0.930 . S
H671 C645 0.931 . S
H672 C652 0.932 . S
H673 C653 0.930 . S
H674 C654 0.929 . S
H675 C656 0.930 . S
H676 C658 0.932 . S
H677 C659 0.929 . S
H678 C660 0.928 . S
H679 C662 0.932 . S
C680 C681 1.264 . S
C680 C685 1.479 . S
C680 C690 1.465 . S
C681 C680 1.264 . S
C681 C683 1.339 . S
C681 H708 0.931 . S
C682 C683 1.395 . S
C682 C684 1.320 . S
C683 C681 1.339 . S
C683 C682 1.395 . S
C683 H709 0.929 . S
C684 C682 1.320 . S
C684 C685 1.405 . S
C684 H710 0.930 . S
C685 C680 1.479 . S
C685 C684 1.405 . S
C685 H711 0.931 . S
U686 O687 2.454 . S
U686 O688 2.458 . S
U686 C689 2.984 . S
U686 C690 2.847 . S
U686 C703 2.882 . S
U686 O704 2.441 . S
U686 O705 2.420 . S
U686 O706 2.455 . S
U686 O707 2.449 . S
O687 U686 2.454 . S
O687 C689 1.353 . S
O688 U686 2.458 . S
O688 C689 1.286 . S
C689 U686 2.984 . S
C689 O687 1.353 . S
C689 O688 1.286 . S
C689 C691 1.363 . S
C690 C680 1.465 . S
C690 U686 2.847 . S
C690 O704 1.249 . S
C690 O705 1.202 . S
C691 C689 1.363 . S
C691 C693 1.408 . S
C691 C696 1.342 . S
C692 C693 1.310 . S
C692 C695 1.461 . S
C692 H712 0.932 . S
C693 C691 1.408 . S
C693 C692 1.310 . S
C693 H713 0.930 . S
C694 C695 1.474 . S
C694 C696 1.285 . S
C694 H714 0.929 . S
C695 C692 1.461 . S
C695 C694 1.474 . S
C696 C691 1.342 . S
C696 C694 1.285 . S
C696 H715 0.930 . S
C697 C700 1.424 . S
C697 C702 1.245 . S
C697 C703 1.428 . S
C698 C701 1.260 . S
C698 C702 1.477 . S
C698 H716 0.932 . S
C699 C700 1.384 . S
C699 C701 1.479 . S
C699 H717 0.929 . S
C700 C697 1.424 . S
C700 C699 1.384 . S
C700 H718 0.928 . S
C701 C698 1.260 . S
C701 C699 1.479 . S
C702 C697 1.245 . S
C702 C698 1.477 . S
C702 H719 0.932 . S
C703 U686 2.882 . S
C703 C697 1.428 . S
C703 O706 1.301 . S
C703 O707 1.282 . S
O704 U686 2.441 . S
O704 C690 1.249 . S
O705 U686 2.420 . S
O705 C690 1.202 . S
O706 U686 2.455 . S
O706 C703 1.301 . S
O707 U686 2.449 . S
O707 C703 1.282 . S
H708 C681 0.931 . S
H709 C683 0.929 . S
H710 C684 0.930 . S
H711 C685 0.931 . S
H712 C692 0.932 . S
H713 C693 0.930 . S
H714 C694 0.929 . S
H715 C696 0.930 . S
H716 C698 0.932 . S
H717 C699 0.929 . S
H718 C700 0.928 . S
H719 C702 0.932 . S
C720 C721 1.264 . S
C720 C725 1.479 . S
C720 C730 1.465 . S
C721 C720 1.264 . S
C721 C723 1.339 . S
C721 H748 0.931 . S
C722 C723 1.395 . S
C722 C724 1.320 . S
C723 C721 1.339 . S
C723 C722 1.395 . S
C723 H749 0.929 . S
C724 C722 1.320 . S
C724 C725 1.405 . S
C724 H750 0.930 . S
C725 C720 1.479 . S
C725 C724 1.405 . S
C725 H751 0.931 . S
U726 O727 2.454 . S
U726 O728 2.458 . S
U726 C729 2.984 . S
U726 C730 2.847 . S
U726 C743 2.882 . S
U726 O744 2.441 . S
U726 O745 2.420 . S
U726 O746 2.455 . S
U726 O747 2.449 . S
O727 U726 2.454 . S
O727 C729 1.353 . S
O728 U726 2.458 . S
O728 C729 1.286 . S
C729 U726 2.984 . S
C729 O727 1.353 . S
C729 O728 1.286 . S
C729 C731 1.363 . S
C730 C720 1.465 . S
C730 U726 2.847 . S
C730 O744 1.249 . S
C730 O745 1.202 . S
C731 C729 1.363 . S
C731 C733 1.408 . S
C731 C736 1.342 . S
C732 C733 1.310 . S
C732 C735 1.461 . S
C732 H752 0.932 . S
C733 C731 1.408 . S
C733 C732 1.310 . S
C733 H753 0.930 . S
C734 C735 1.474 . S
C734 C736 1.285 . S
C734 H754 0.929 . S
C735 C732 1.461 . S
C735 C734 1.474 . S
C736 C731 1.342 . S
C736 C734 1.285 . S
C736 H755 0.930 . S
C737 C740 1.424 . S
C737 C742 1.245 . S
C737 C743 1.428 . S
C738 C741 1.260 . S
C738 C742 1.477 . S
C738 H756 0.932 . S
C739 C740 1.384 . S
C739 C741 1.479 . S
C739 H757 0.929 . S
C740 C737 1.424 . S
C740 C739 1.384 . S
C740 H758 0.928 . S
C741 C738 1.260 . S
C741 C739 1.479 . S
C742 C737 1.245 . S
C742 C738 1.477 . S
C742 H759 0.932 . S
C743 U726 2.882 . S
C743 C737 1.428 . S
C743 O746 1.301 . S
C743 O747 1.282 . S
O744 U726 2.441 . S
O744 C730 1.249 . S
O745 U726 2.420 . S
O745 C730 1.202 . S
O746 U726 2.455 . S
O746 C743 1.301 . S
O747 U726 2.449 . S
O747 C743 1.282 . S
H748 C721 0.931 . S
H749 C723 0.929 . S
H750 C724 0.930 . S
H751 C725 0.931 . S
H752 C732 0.932 . S
H753 C733 0.930 . S
H754 C734 0.929 . S
H755 C736 0.930 . S
H756 C738 0.932 . S
H757 C739 0.929 . S
H758 C740 0.928 . S
H759 C742 0.932 . S
C760 C761 1.264 . S
C760 C765 1.479 . S
C760 C770 1.465 . S
C761 C760 1.264 . S
C761 C763 1.339 . S
C761 H788 0.931 . S
C762 C763 1.395 . S
C762 C764 1.320 . S
C763 C761 1.339 . S
C763 C762 1.395 . S
C763 H789 0.929 . S
C764 C762 1.320 . S
C764 C765 1.405 . S
C764 H790 0.930 . S
C765 C760 1.479 . S
C765 C764 1.405 . S
C765 H791 0.931 . S
U766 O767 2.454 . S
U766 O768 2.458 . S
U766 C769 2.984 . S
U766 C770 2.847 . S
U766 C783 2.882 . S
U766 O784 2.441 . S
U766 O785 2.420 . S
U766 O786 2.455 . S
U766 O787 2.449 . S
O767 U766 2.454 . S
O767 C769 1.353 . S
O768 U766 2.458 . S
O768 C769 1.286 . S
C769 U766 2.984 . S
C769 O767 1.353 . S
C769 O768 1.286 . S
C769 C771 1.363 . S
C770 C760 1.465 . S
C770 U766 2.847 . S
C770 O784 1.249 . S
C770 O785 1.202 . S
C771 C769 1.363 . S
C771 C773 1.408 . S
C771 C776 1.342 . S
C772 C773 1.310 . S
C772 C775 1.461 . S
C772 H792 0.932 . S
C773 C771 1.408 . S
C773 C772 1.310 . S
C773 H793 0.930 . S
C774 C775 1.474 . S
C774 C776 1.285 . S
C774 H794 0.929 . S
C775 C772 1.461 . S
C775 C774 1.474 . S
C776 C771 1.342 . S
C776 C774 1.285 . S
C776 H795 0.930 . S
C777 C780 1.424 . S
C777 C782 1.245 . S
C777 C783 1.428 . S
C778 C781 1.260 . S
C778 C782 1.477 . S
C778 H796 0.932 . S
C779 C780 1.384 . S
C779 C781 1.479 . S
C779 H797 0.929 . S
C780 C777 1.424 . S
C780 C779 1.384 . S
C780 H798 0.928 . S
C781 C778 1.260 . S
C781 C779 1.479 . S
C782 C777 1.245 . S
C782 C778 1.477 . S
C782 H799 0.932 . S
C783 U766 2.882 . S
C783 C777 1.428 . S
C783 O786 1.301 . S
C783 O787 1.282 . S
O784 U766 2.441 . S
O784 C770 1.249 . S
O785 U766 2.420 . S
O785 C770 1.202 . S
O786 U766 2.455 . S
O786 C783 1.301 . S
O787 U766 2.449 . S
O787 C783 1.282 . S
H788 C761 0.931 . S
H789 C763 0.929 . S
H790 C764 0.930 . S
H791 C765 0.931 . S
H792 C772 0.932 . S
H793 C773 0.930 . S
H794 C774 0.929 . S
H795 C776 0.930 . S
H796 C778 0.932 . S
H797 C779 0.929 . S
H798 C780 0.928 . S
H799 C782 0.932 . S
C800 C801 1.264 . S
C800 C805 1.479 . S
C800 C810 1.465 . S
C801 C800 1.264 . S
C801 C803 1.339 . S
C801 H828 0.931 . S
C802 C803 1.395 . S
C802 C804 1.320 . S
C803 C801 1.339 . S
C803 C802 1.395 . S
C803 H829 0.929 . S
C804 C802 1.320 . S
C804 C805 1.405 . S
C804 H830 0.930 . S
C805 C800 1.479 . S
C805 C804 1.405 . S
C805 H831 0.931 . S
U806 O807 2.454 . S
U806 O808 2.458 . S
U806 C809 2.984 . S
U806 C810 2.847 . S
U806 C823 2.882 . S
U806 O824 2.441 . S
U806 O825 2.420 . S
U806 O826 2.455 . S
U806 O827 2.449 . S
O807 U806 2.454 . S
O807 C809 1.353 . S
O808 U806 2.458 . S
O808 C809 1.286 . S
C809 U806 2.984 . S
C809 O807 1.353 . S
C809 O808 1.286 . S
C809 C811 1.363 . S
C810 C800 1.465 . S
C810 U806 2.847 . S
C810 O824 1.249 . S
C810 O825 1.202 . S
C811 C809 1.363 . S
C811 C813 1.408 . S
C811 C816 1.342 . S
C812 C813 1.310 . S
C812 C815 1.461 . S
C812 H832 0.932 . S
C813 C811 1.408 . S
C813 C812 1.310 . S
C813 H833 0.930 . S
C814 C815 1.474 . S
C814 C816 1.285 . S
C814 H834 0.929 . S
C815 C812 1.461 . S
C815 C814 1.474 . S
C816 C811 1.342 . S
C816 C814 1.285 . S
C816 H835 0.930 . S
C817 C820 1.424 . S
C817 C822 1.245 . S
C817 C823 1.428 . S
C818 C821 1.260 . S
C818 C822 1.477 . S
C818 H836 0.932 . S
C819 C820 1.384 . S
C819 C821 1.479 . S
C819 H837 0.929 . S
C820 C817 1.424 . S
C820 C819 1.384 . S
C820 H838 0.928 . S
C821 C818 1.260 . S
C821 C819 1.479 . S
C822 C817 1.245 . S
C822 C818 1.477 . S
C822 H839 0.932 . S
C823 U806 2.882 . S
C823 C817 1.428 . S
C823 O826 1.301 . S
C823 O827 1.282 . S
O824 U806 2.441 . S
O824 C810 1.249 . S
O825 U806 2.420 . S
O825 C810 1.202 . S
O826 U806 2.455 . S
O826 C823 1.301 . S
O827 U806 2.449 . S
O827 C823 1.282 . S
H828 C801 0.931 . S
H829 C803 0.929 . S
H830 C804 0.930 . S
H831 C805 0.931 . S
H832 C812 0.932 . S
H833 C813 0.930 . S
H834 C814 0.929 . S
H835 C816 0.930 . S
H836 C818 0.932 . S
H837 C819 0.929 . S
H838 C820 0.928 . S
H839 C822 0.932 . S
C840 C841 1.264 . S
C840 C845 1.479 . S
C840 C850 1.465 . S
C841 C840 1.264 . S
C841 C843 1.339 . S
C841 H868 0.931 . S
C842 C843 1.395 . S
C842 C844 1.320 . S
C843 C841 1.339 . S
C843 C842 1.395 . S
C843 H869 0.929 . S
C844 C842 1.320 . S
C844 C845 1.405 . S
C844 H870 0.930 . S
C845 C840 1.479 . S
C845 C844 1.405 . S
C845 H871 0.931 . S
U846 O847 2.454 . S
U846 O848 2.458 . S
U846 C849 2.984 . S
U846 C850 2.847 . S
U846 C863 2.882 . S
U846 O864 2.441 . S
U846 O865 2.420 . S
U846 O866 2.455 . S
U846 O867 2.449 . S
O847 U846 2.454 . S
O847 C849 1.353 . S
O848 U846 2.458 . S
O848 C849 1.286 . S
C849 U846 2.984 . S
C849 O847 1.353 . S
C849 O848 1.286 . S
C849 C851 1.363 . S
C850 C840 1.465 . S
C850 U846 2.847 . S
C850 O864 1.249 . S
C850 O865 1.202 . S
C851 C849 1.363 . S
C851 C853 1.408 . S
C851 C856 1.342 . S
C852 C853 1.310 . S
C852 C855 1.461 . S
C852 H872 0.932 . S
C853 C851 1.408 . S
C853 C852 1.310 . S
C853 H873 0.930 . S
C854 C855 1.474 . S
C854 C856 1.285 . S
C854 H874 0.929 . S
C855 C852 1.461 . S
C855 C854 1.474 . S
C856 C851 1.342 . S
C856 C854 1.285 . S
C856 H875 0.930 . S
C857 C860 1.424 . S
C857 C862 1.245 . S
C857 C863 1.428 . S
C858 C861 1.260 . S
C858 C862 1.477 . S
C858 H876 0.932 . S
C859 C860 1.384 . S
C859 C861 1.479 . S
C859 H877 0.929 . S
C860 C857 1.424 . S
C860 C859 1.384 . S
C860 H878 0.928 . S
C861 C858 1.260 . S
C861 C859 1.479 . S
C862 C857 1.245 . S
C862 C858 1.477 . S
C862 H879 0.932 . S
C863 U846 2.882 . S
C863 C857 1.428 . S
C863 O866 1.301 . S
C863 O867 1.282 . S
O864 U846 2.441 . S
O864 C850 1.249 . S
O865 U846 2.420 . S
O865 C850 1.202 . S
O866 U846 2.455 . S
O866 C863 1.301 . S
O867 U846 2.449 . S
O867 C863 1.282 . S
H868 C841 0.931 . S
H869 C843 0.929 . S
H870 C844 0.930 . S
H871 C845 0.931 . S
H872 C852 0.932 . S
H873 C853 0.930 . S
H874 C854 0.929 . S
H875 C856 0.930 . S
H876 C858 0.932 . S
H877 C859 0.929 . S
H878 C860 0.928 . S
H879 C862 0.932 . S
C880 C881 1.264 . S
C880 C885 1.479 . S
C880 C890 1.465 . S
C881 C880 1.264 . S
C881 C883 1.339 . S
C881 H908 0.931 . S
C882 C883 1.395 . S
C882 C884 1.320 . S
C883 C881 1.339 . S
C883 C882 1.395 . S
C883 H909 0.929 . S
C884 C882 1.320 . S
C884 C885 1.405 . S
C884 H910 0.930 . S
C885 C880 1.479 . S
C885 C884 1.405 . S
C885 H911 0.931 . S
U886 O887 2.454 . S
U886 O888 2.458 . S
U886 C889 2.984 . S
U886 C890 2.847 . S
U886 C903 2.882 . S
U886 O904 2.441 . S
U886 O905 2.420 . S
U886 O906 2.455 . S
U886 O907 2.449 . S
O887 U886 2.454 . S
O887 C889 1.353 . S
O888 U886 2.458 . S
O888 C889 1.286 . S
C889 U886 2.984 . S
C889 O887 1.353 . S
C889 O888 1.286 . S
C889 C891 1.363 . S
C890 C880 1.465 . S
C890 U886 2.847 . S
C890 O904 1.249 . S
C890 O905 1.202 . S
C891 C889 1.363 . S
C891 C893 1.408 . S
C891 C896 1.342 . S
C892 C893 1.310 . S
C892 C895 1.461 . S
C892 H912 0.932 . S
C893 C891 1.408 . S
C893 C892 1.310 . S
C893 H913 0.930 . S
C894 C895 1.474 . S
C894 C896 1.285 . S
C894 H914 0.929 . S
C895 C892 1.461 . S
C895 C894 1.474 . S
C896 C891 1.342 . S
C896 C894 1.285 . S
C896 H915 0.930 . S
C897 C900 1.424 . S
C897 C902 1.245 . S
C897 C903 1.428 . S
C898 C901 1.260 . S
C898 C902 1.477 . S
C898 H916 0.932 . S
C899 C900 1.384 . S
C899 C901 1.479 . S
C899 H917 0.929 . S
C900 C897 1.424 . S
C900 C899 1.384 . S
C900 H918 0.928 . S
C901 C898 1.260 . S
C901 C899 1.479 . S
C902 C897 1.245 . S
C902 C898 1.477 . S
C902 H919 0.932 . S
C903 U886 2.882 . S
C903 C897 1.428 . S
C903 O906 1.301 . S
C903 O907 1.282 . S
O904 U886 2.441 . S
O904 C890 1.249 . S
O905 U886 2.420 . S
O905 C890 1.202 . S
O906 U886 2.455 . S
O906 C903 1.301 . S
O907 U886 2.449 . S
O907 C903 1.282 . S
H908 C881 0.931 . S
H909 C883 0.929 . S
H910 C884 0.930 . S
H911 C885 0.931 . S
H912 C892 0.932 . S
H913 C893 0.930 . S
H914 C894 0.929 . S
H915 C896 0.930 . S
H916 C898 0.932 . S
H917 C899 0.929 . S
H918 C900 0.928 . S
H919 C902 0.932 . S
C920 C921 1.264 . S
C920 C925 1.479 . S
C920 C930 1.465 . S
C921 C920 1.264 . S
C921 C923 1.339 . S
C921 H948 0.931 . S
C922 C923 1.395 . S
C922 C924 1.320 . S
C923 C921 1.339 . S
C923 C922 1.395 . S
C923 H949 0.929 . S
C924 C922 1.320 . S
C924 C925 1.405 . S
C924 H950 0.930 . S
C925 C920 1.479 . S
C925 C924 1.405 . S
C925 H951 0.931 . S
U926 O927 2.454 . S
U926 O928 2.458 . S
U926 C929 2.984 . S
U926 C930 2.847 . S
U926 C943 2.882 . S
U926 O944 2.441 . S
U926 O945 2.420 . S
U926 O946 2.455 . S
U926 O947 2.449 . S
O927 U926 2.454 . S
O927 C929 1.353 . S
O928 U926 2.458 . S
O928 C929 1.286 . S
C929 U926 2.984 . S
C929 O927 1.353 . S
C929 O928 1.286 . S
C929 C931 1.363 . S
C930 C920 1.465 . S
C930 U926 2.847 . S
C930 O944 1.249 . S
C930 O945 1.202 . S
C931 C929 1.363 . S
C931 C933 1.408 . S
C931 C936 1.342 . S
C932 C933 1.310 . S
C932 C935 1.461 . S
C932 H952 0.932 . S
C933 C931 1.408 . S
C933 C932 1.310 . S
C933 H953 0.930 . S
C934 C935 1.474 . S
C934 C936 1.285 . S
C934 H954 0.929 . S
C935 C932 1.461 . S
C935 C934 1.474 . S
C936 C931 1.342 . S
C936 C934 1.285 . S
C936 H955 0.930 . S
C937 C940 1.424 . S
C937 C942 1.245 . S
C937 C943 1.428 . S
C938 C941 1.260 . S
C938 C942 1.477 . S
C938 H956 0.932 . S
C939 C940 1.384 . S
C939 C941 1.479 . S
C939 H957 0.929 . S
C940 C937 1.424 . S
C940 C939 1.384 . S
C940 H958 0.928 . S
C941 C938 1.260 . S
C941 C939 1.479 . S
C942 C937 1.245 . S
C942 C938 1.477 . S
C942 H959 0.932 . S
C943 U926 2.882 . S
C943 C937 1.428 . S
C943 O946 1.301 . S
C943 O947 1.282 . S
O944 U926 2.441 . S
O944 C930 1.249 . S
O945 U926 2.420 . S
O945 C930 1.202 . S
O946 U926 2.455 . S
O946 C943 1.301 . S
O947 U926 2.449 . S
O947 C943 1.282 . S
H948 C921 0.931 . S
H949 C923 0.929 . S
H950 C924 0.930 . S
H951 C925 0.931 . S
H952 C932 0.932 . S
H953 C933 0.930 . S
H954 C934 0.929 . S
H955 C936 0.930 . S
H956 C938 0.932 . S
H957 C939 0.929 . S
H958 C940 0.928 . S
H959 C942 0.932 . S
C960 C961 1.264 . S
C960 C965 1.479 . S
C960 C970 1.465 . S
C961 C960 1.264 . S
C961 C963 1.339 . S
C961 H988 0.931 . S
C962 C963 1.395 . S
C962 C964 1.320 . S
C963 C961 1.339 . S
C963 C962 1.395 . S
C963 H989 0.929 . S
C964 C962 1.320 . S
C964 C965 1.405 . S
C964 H990 0.930 . S
C965 C960 1.479 . S
C965 C964 1.405 . S
C965 H991 0.931 . S
U966 O967 2.454 . S
U966 O968 2.458 . S
U966 C969 2.984 . S
U966 C970 2.847 . S
U966 C983 2.882 . S
U966 O984 2.441 . S
U966 O985 2.420 . S
U966 O986 2.455 . S
U966 O987 2.449 . S
O967 U966 2.454 . S
O967 C969 1.353 . S
O968 U966 2.458 . S
O968 C969 1.286 . S
C969 U966 2.984 . S
C969 O967 1.353 . S
C969 O968 1.286 . S
C969 C971 1.363 . S
C970 C960 1.465 . S
C970 U966 2.847 . S
C970 O984 1.249 . S
C970 O985 1.202 . S
C971 C969 1.363 . S
C971 C973 1.408 . S
C971 C976 1.342 . S
C972 C973 1.310 . S
C972 C975 1.461 . S
C972 H992 0.932 . S
C973 C971 1.408 . S
C973 C972 1.310 . S
C973 H993 0.930 . S
C974 C975 1.474 . S
C974 C976 1.285 . S
C974 H994 0.929 . S
C975 C972 1.461 . S
C975 C974 1.474 . S
C976 C971 1.342 . S
C976 C974 1.285 . S
C976 H995 0.930 . S
C977 C980 1.424 . S
C977 C982 1.245 . S
C977 C983 1.428 . S
C978 C981 1.260 . S
C978 C982 1.477 . S
C978 H996 0.932 . S
C979 C980 1.384 . S
C979 C981 1.479 . S
C979 H997 0.929 . S
C980 C977 1.424 . S
C980 C979 1.384 . S
C980 H998 0.928 . S
C981 C978 1.260 . S
C981 C979 1.479 . S
C982 C977 1.245 . S
C982 C978 1.477 . S
C982 H999 0.932 . S
C983 U966 2.882 . S
C983 C977 1.428 . S
C983 O986 1.301 . S
C983 O987 1.282 . S
O984 U966 2.441 . S
O984 C970 1.249 . S
O985 U966 2.420 . S
O985 C970 1.202 . S
O986 U966 2.455 . S
O986 C983 1.301 . S
O987 U966 2.449 . S
O987 C983 1.282 . S
H988 C961 0.931 . S
H989 C963 0.929 . S
H990 C964 0.930 . S
H991 C965 0.931 . S
H992 C972 0.932 . S
H993 C973 0.930 . S
H994 C974 0.929 . S
H995 C976 0.930 . S
H996 C978 0.932 . S
H997 C979 0.929 . S
H998 C980 0.928 . S
H999 C982 0.932 . S
C1000 C1001 1.264 . S
C1000 C1005 1.479 . S
C1000 C1010 1.465 . S
C1001 C1000 1.264 . S
C1001 C1003 1.339 . S
C1001 H1028 0.931 . S
C1002 C1003 1.395 . S
C1002 C1004 1.320 . S
C1003 C1001 1.339 . S
C1003 C1002 1.395 . S
C1003 H1029 0.929 . S
C1004 C1002 1.320 . S
C1004 C1005 1.405 . S
C1004 H1030 0.930 . S
C1005 C1000 1.479 . S
C1005 C1004 1.405 . S
C1005 H1031 0.931 . S
U1006 O1007 2.454 . S
U1006 O1008 2.458 . S
U1006 C1009 2.984 . S
U1006 C1010 2.847 . S
U1006 C1023 2.882 . S
U1006 O1024 2.441 . S
U1006 O1025 2.420 . S
U1006 O1026 2.455 . S
U1006 O1027 2.449 . S
O1007 U1006 2.454 . S
O1007 C1009 1.353 . S
O1008 U1006 2.458 . S
O1008 C1009 1.286 . S
C1009 U1006 2.984 . S
C1009 O1007 1.353 . S
C1009 O1008 1.286 . S
C1009 C1011 1.363 . S
C1010 C1000 1.465 . S
C1010 U1006 2.847 . S
C1010 O1024 1.249 . S
C1010 O1025 1.202 . S
C1011 C1009 1.363 . S
C1011 C1013 1.408 . S
C1011 C1016 1.342 . S
C1012 C1013 1.310 . S
C1012 C1015 1.461 . S
C1012 H1032 0.932 . S
C1013 C1011 1.408 . S
C1013 C1012 1.310 . S
C1013 H1033 0.930 . S
C1014 C1015 1.474 . S
C1014 C1016 1.285 . S
C1014 H1034 0.929 . S
C1015 C1012 1.461 . S
C1015 C1014 1.474 . S
C1016 C1011 1.342 . S
C1016 C1014 1.285 . S
C1016 H1035 0.930 . S
C1017 C1020 1.424 . S
C1017 C1022 1.245 . S
C1017 C1023 1.428 . S
C1018 C1021 1.260 . S
C1018 C1022 1.477 . S
C1018 H1036 0.932 . S
C1019 C1020 1.384 . S
C1019 C1021 1.479 . S
C1019 H1037 0.929 . S
C1020 C1017 1.424 . S
C1020 C1019 1.384 . S
C1020 H1038 0.928 . S
C1021 C1018 1.260 . S
C1021 C1019 1.479 . S
C1022 C1017 1.245 . S
C1022 C1018 1.477 . S
C1022 H1039 0.932 . S
C1023 U1006 2.882 . S
C1023 C1017 1.428 . S
C1023 O1026 1.301 . S
C1023 O1027 1.282 . S
O1024 U1006 2.441 . S
O1024 C1010 1.249 . S
O1025 U1006 2.420 . S
O1025 C1010 1.202 . S
O1026 U1006 2.455 . S
O1026 C1023 1.301 . S
O1027 U1006 2.449 . S
O1027 C1023 1.282 . S
H1028 C1001 0.931 . S
H1029 C1003 0.929 . S
H1030 C1004 0.930 . S
H1031 C1005 0.931 . S
H1032 C1012 0.932 . S
H1033 C1013 0.930 . S
H1034 C1014 0.929 . S
H1035 C1016 0.930 . S
H1036 C1018 0.932 . S
H1037 C1019 0.929 . S
H1038 C1020 0.928 . S
H1039 C1022 0.932 . S
C1040 C1041 1.264 . S
C1040 C1045 1.479 . S
C1040 C1050 1.465 . S
C1041 C1040 1.264 . S
C1041 C1043 1.339 . S
C1041 H1068 0.931 . S
C1042 C1043 1.395 . S
C1042 C1044 1.320 . S
C1043 C1041 1.339 . S
C1043 C1042 1.395 . S
C1043 H1069 0.929 . S
C1044 C1042 1.320 . S
C1044 C1045 1.405 . S
C1044 H1070 0.930 . S
C1045 C1040 1.479 . S
C1045 C1044 1.405 . S
C1045 H1071 0.931 . S
U1046 O1047 2.454 . S
U1046 O1048 2.458 . S
U1046 C1049 2.984 . S
U1046 C1050 2.847 . S
U1046 C1063 2.882 . S
U1046 O1064 2.441 . S
U1046 O1065 2.420 . S
U1046 O1066 2.455 . S
U1046 O1067 2.449 . S
O1047 U1046 2.454 . S
O1047 C1049 1.353 . S
O1048 U1046 2.458 . S
O1048 C1049 1.286 . S
C1049 U1046 2.984 . S
C1049 O1047 1.353 . S
C1049 O1048 1.286 . S
C1049 C1051 1.363 . S
C1050 C1040 1.465 . S
C1050 U1046 2.847 . S
C1050 O1064 1.249 . S
C1050 O1065 1.202 . S
C1051 C1049 1.363 . S
C1051 C1053 1.408 . S
C1051 C1056 1.342 . S
C1052 C1053 1.310 . S
C1052 C1055 1.461 . S
C1052 H1072 0.932 . S
C1053 C1051 1.408 . S
C1053 C1052 1.310 . S
C1053 H1073 0.930 . S
C1054 C1055 1.474 . S
C1054 C1056 1.285 . S
C1054 H1074 0.929 . S
C1055 C1052 1.461 . S
C1055 C1054 1.474 . S
C1056 C1051 1.342 . S
C1056 C1054 1.285 . S
C1056 H1075 0.930 . S
C1057 C1060 1.424 . S
C1057 C1062 1.245 . S
C1057 C1063 1.428 . S
C1058 C1061 1.260 . S
C1058 C1062 1.477 . S
C1058 H1076 0.932 . S
C1059 C1060 1.384 . S
C1059 C1061 1.479 . S
C1059 H1077 0.929 . S
C1060 C1057 1.424 . S
C1060 C1059 1.384 . S
C1060 H1078 0.928 . S
C1061 C1058 1.260 . S
C1061 C1059 1.479 . S
C1062 C1057 1.245 . S
C1062 C1058 1.477 . S
C1062 H1079 0.932 . S
C1063 U1046 2.882 . S
C1063 C1057 1.428 . S
C1063 O1066 1.301 . S
C1063 O1067 1.282 . S
O1064 U1046 2.441 . S
O1064 C1050 1.249 . S
O1065 U1046 2.420 . S
O1065 C1050 1.202 . S
O1066 U1046 2.455 . S
O1066 C1063 1.301 . S
O1067 U1046 2.449 . S
O1067 C1063 1.282 . S
H1068 C1041 0.931 . S
H1069 C1043 0.929 . S
H1070 C1044 0.930 . S
H1071 C1045 0.931 . S
H1072 C1052 0.932 . S
H1073 C1053 0.930 . S
H1074 C1054 0.929 . S
H1075 C1056 0.930 . S
H1076 C1058 0.932 . S
H1077 C1059 0.929 . S
H1078 C1060 0.928 . S
H1079 C1062 0.932 . S
C1080 C1081 1.264 . S
C1080 C1085 1.479 . S
C1080 C1090 1.465 . S
C1081 C1080 1.264 . S
C1081 C1083 1.339 . S
C1081 H1108 0.931 . S
C1082 C1083 1.395 . S
C1082 C1084 1.320 . S
C1083 C1081 1.339 . S
C1083 C1082 1.395 . S
C1083 H1109 0.929 . S
C1084 C1082 1.320 . S
C1084 C1085 1.405 . S
C1084 H1110 0.930 . S
C1085 C1080 1.479 . S
C1085 C1084 1.405 . S
C1085 H1111 0.931 . S
U1086 O1087 2.454 . S
U1086 O1088 2.458 . S
U1086 C1089 2.984 . S
U1086 C1090 2.847 . S
U1086 C1103 2.882 . S
U1086 O1104 2.441 . S
U1086 O1105 2.420 . S
U1086 O1106 2.455 . S
U1086 O1107 2.449 . S
O1087 U1086 2.454 . S
O1087 C1089 1.353 . S
O1088 U1086 2.458 . S
O1088 C1089 1.286 . S
C1089 U1086 2.984 . S
C1089 O1087 1.353 . S
C1089 O1088 1.286 . S
C1089 C1091 1.363 . S
C1090 C1080 1.465 . S
C1090 U1086 2.847 . S
C1090 O1104 1.249 . S
C1090 O1105 1.202 . S
C1091 C1089 1.363 . S
C1091 C1093 1.408 . S
C1091 C1096 1.342 . S
C1092 C1093 1.310 . S
C1092 C1095 1.461 . S
C1092 H1112 0.932 . S
C1093 C1091 1.408 . S
C1093 C1092 1.310 . S
C1093 H1113 0.930 . S
C1094 C1095 1.474 . S
C1094 C1096 1.285 . S
C1094 H1114 0.929 . S
C1095 C1092 1.461 . S
C1095 C1094 1.474 . S
C1096 C1091 1.342 . S
C1096 C1094 1.285 . S
C1096 H1115 0.930 . S
C1097 C1100 1.424 . S
C1097 C1102 1.245 . S
C1097 C1103 1.428 . S
C1098 C1101 1.260 . S
C1098 C1102 1.477 . S
C1098 H1116 0.932 . S
C1099 C1100 1.384 . S
C1099 C1101 1.479 . S
C1099 H1117 0.929 . S
C1100 C1097 1.424 . S
C1100 C1099 1.384 . S
C1100 H1118 0.928 . S
C1101 C1098 1.260 . S
C1101 C1099 1.479 . S
C1102 C1097 1.245 . S
C1102 C1098 1.477 . S
C1102 H1119 0.932 . S
C1103 U1086 2.882 . S
C1103 C1097 1.428 . S
C1103 O1106 1.301 . S
C1103 O1107 1.282 . S
O1104 U1086 2.441 . S
O1104 C1090 1.249 . S
O1105 U1086 2.420 . S
O1105 C1090 1.202 . S
O1106 U1086 2.455 . S
O1106 C1103 1.301 . S
O1107 U1086 2.449 . S
O1107 C1103 1.282 . S
H1108 C1081 0.931 . S
H1109 C1083 0.929 . S
H1110 C1084 0.930 . S
H1111 C1085 0.931 . S
H1112 C1092 0.932 . S
H1113 C1093 0.930 . S
H1114 C1094 0.929 . S
H1115 C1096 0.930 . S
H1116 C1098 0.932 . S
H1117 C1099 0.929 . S
H1118 C1100 0.928 . S
H1119 C1102 0.932 . S
C1120 C1121 1.264 . S
C1120 C1125 1.479 . S
C1120 C1130 1.465 . S
C1121 C1120 1.264 . S
C1121 C1123 1.339 . S
C1121 H1148 0.931 . S
C1122 C1123 1.395 . S
C1122 C1124 1.320 . S
C1123 C1121 1.339 . S
C1123 C1122 1.395 . S
C1123 H1149 0.929 . S
C1124 C1122 1.320 . S
C1124 C1125 1.405 . S
C1124 H1150 0.930 . S
C1125 C1120 1.479 . S
C1125 C1124 1.405 . S
C1125 H1151 0.931 . S
U1126 O1127 2.454 . S
U1126 O1128 2.458 . S
U1126 C1129 2.984 . S
U1126 C1130 2.847 . S
U1126 C1143 2.882 . S
U1126 O1144 2.441 . S
U1126 O1145 2.420 . S
U1126 O1146 2.455 . S
U1126 O1147 2.449 . S
O1127 U1126 2.454 . S
O1127 C1129 1.353 . S
O1128 U1126 2.458 . S
O1128 C1129 1.286 . S
C1129 U1126 2.984 . S
C1129 O1127 1.353 . S
C1129 O1128 1.286 . S
C1129 C1131 1.363 . S
C1130 C1120 1.465 . S
C1130 U1126 2.847 . S
C1130 O1144 1.249 . S
C1130 O1145 1.202 . S
C1131 C1129 1.363 . S
C1131 C1133 1.408 . S
C1131 C1136 1.342 . S
C1132 C1133 1.310 . S
C1132 C1135 1.461 . S
C1132 H1152 0.932 . S
C1133 C1131 1.408 . S
C1133 C1132 1.310 . S
C1133 H1153 0.930 . S
C1134 C1135 1.474 . S
C1134 C1136 1.285 . S
C1134 H1154 0.929 . S
C1135 C1132 1.461 . S
C1135 C1134 1.474 . S
C1136 C1131 1.342 . S
C1136 C1134 1.285 . S
C1136 H1155 0.930 . S
C1137 C1140 1.424 . S
C1137 C1142 1.245 . S
C1137 C1143 1.428 . S
C1138 C1141 1.260 . S
C1138 C1142 1.477 . S
C1138 H1156 0.932 . S
C1139 C1140 1.384 . S
C1139 C1141 1.479 . S
C1139 H1157 0.929 . S
C1140 C1137 1.424 . S
C1140 C1139 1.384 . S
C1140 H1158 0.928 . S
C1141 C1138 1.260 . S
C1141 C1139 1.479 . S
C1142 C1137 1.245 . S
C1142 C1138 1.477 . S
C1142 H1159 0.932 . S
C1143 U1126 2.882 . S
C1143 C1137 1.428 . S
C1143 O1146 1.301 . S
C1143 O1147 1.282 . S
O1144 U1126 2.441 . S
O1144 C1130 1.249 . S
O1145 U1126 2.420 . S
O1145 C1130 1.202 . S
O1146 U1126 2.455 . S
O1146 C1143 1.301 . S
O1147 U1126 2.449 . S
O1147 C1143 1.282 . S
H1148 C1121 0.931 . S
H1149 C1123 0.929 . S
H1150 C1124 0.930 . S
H1151 C1125 0.931 . S
H1152 C1132 0.932 . S
H1153 C1133 0.930 . S
H1154 C1134 0.929 . S
H1155 C1136 0.930 . S
H1156 C1138 0.932 . S
H1157 C1139 0.929 . S
H1158 C1140 0.928 . S
H1159 C1142 0.932 . S
C1160 C1161 1.264 . S
C1160 C1165 1.479 . S
C1160 C1170 1.465 . S
C1161 C1160 1.264 . S
C1161 C1163 1.339 . S
C1161 H1188 0.931 . S
C1162 C1163 1.395 . S
C1162 C1164 1.320 . S
C1163 C1161 1.339 . S
C1163 C1162 1.395 . S
C1163 H1189 0.929 . S
C1164 C1162 1.320 . S
C1164 C1165 1.405 . S
C1164 H1190 0.930 . S
C1165 C1160 1.479 . S
C1165 C1164 1.405 . S
C1165 H1191 0.931 . S
U1166 O1167 2.454 . S
U1166 O1168 2.458 . S
U1166 C1169 2.984 . S
U1166 C1170 2.847 . S
U1166 C1183 2.882 . S
U1166 O1184 2.441 . S
U1166 O1185 2.420 . S
U1166 O1186 2.455 . S
U1166 O1187 2.449 . S
O1167 U1166 2.454 . S
O1167 C1169 1.353 . S
O1168 U1166 2.458 . S
O1168 C1169 1.286 . S
C1169 U1166 2.984 . S
C1169 O1167 1.353 . S
C1169 O1168 1.286 . S
C1169 C1171 1.363 . S
C1170 C1160 1.465 . S
C1170 U1166 2.847 . S
C1170 O1184 1.249 . S
C1170 O1185 1.202 . S
C1171 C1169 1.363 . S
C1171 C1173 1.408 . S
C1171 C1176 1.342 . S
C1172 C1173 1.310 . S
C1172 C1175 1.461 . S
C1172 H1192 0.932 . S
C1173 C1171 1.408 . S
C1173 C1172 1.310 . S
C1173 H1193 0.930 . S
C1174 C1175 1.474 . S
C1174 C1176 1.285 . S
C1174 H1194 0.929 . S
C1175 C1172 1.461 . S
C1175 C1174 1.474 . S
C1176 C1171 1.342 . S
C1176 C1174 1.285 . S
C1176 H1195 0.930 . S
C1177 C1180 1.424 . S
C1177 C1182 1.245 . S
C1177 C1183 1.428 . S
C1178 C1181 1.260 . S
C1178 C1182 1.477 . S
C1178 H1196 0.932 . S
C1179 C1180 1.384 . S
C1179 C1181 1.479 . S
C1179 H1197 0.929 . S
C1180 C1177 1.424 . S
C1180 C1179 1.384 . S
C1180 H1198 0.928 . S
C1181 C1178 1.260 . S
C1181 C1179 1.479 . S
C1182 C1177 1.245 . S
C1182 C1178 1.477 . S
C1182 H1199 0.932 . S
C1183 U1166 2.882 . S
C1183 C1177 1.428 . S
C1183 O1186 1.301 . S
C1183 O1187 1.282 . S
O1184 U1166 2.441 . S
O1184 C1170 1.249 . S
O1185 U1166 2.420 . S
O1185 C1170 1.202 . S
O1186 U1166 2.455 . S
O1186 C1183 1.301 . S
O1187 U1166 2.449 . S
O1187 C1183 1.282 . S
H1188 C1161 0.931 . S
H1189 C1163 0.929 . S
H1190 C1164 0.930 . S
H1191 C1165 0.931 . S
H1192 C1172 0.932 . S
H1193 C1173 0.930 . S
H1194 C1174 0.929 . S
H1195 C1176 0.930 . S
H1196 C1178 0.932 . S
H1197 C1179 0.929 . S
H1198 C1180 0.928 . S
H1199 C1182 0.932 . S
C1200 C1201 1.264 . S
C1200 C1205 1.479 . S
C1200 C1210 1.465 . S
C1201 C1200 1.264 . S
C1201 C1203 1.339 . S
C1201 H1228 0.931 . S
C1202 C1203 1.395 . S
C1202 C1204 1.320 . S
C1203 C1201 1.339 . S
C1203 C1202 1.395 . S
C1203 H1229 0.929 . S
C1204 C1202 1.320 . S
C1204 C1205 1.405 . S
C1204 H1230 0.930 . S
C1205 C1200 1.479 . S
C1205 C1204 1.405 . S
C1205 H1231 0.931 . S
U1206 O1207 2.454 . S
U1206 O1208 2.458 . S
U1206 C1209 2.984 . S
U1206 C1210 2.847 . S
U1206 C1223 2.882 . S
U1206 O1224 2.441 . S
U1206 O1225 2.420 . S
U1206 O1226 2.455 . S
U1206 O1227 2.449 . S
O1207 U1206 2.454 . S
O1207 C1209 1.353 . S
O1208 U1206 2.458 . S
O1208 C1209 1.286 . S
C1209 U1206 2.984 . S
C1209 O1207 1.353 . S
C1209 O1208 1.286 . S
C1209 C1211 1.363 . S
C1210 C1200 1.465 . S
C1210 U1206 2.847 . S
C1210 O1224 1.249 . S
C1210 O1225 1.202 . S
C1211 C1209 1.363 . S
C1211 C1213 1.408 . S
C1211 C1216 1.342 . S
C1212 C1213 1.310 . S
C1212 C1215 1.461 . S
C1212 H1232 0.932 . S
C1213 C1211 1.408 . S
C1213 C1212 1.310 . S
C1213 H1233 0.930 . S
C1214 C1215 1.474 . S
C1214 C1216 1.285 . S
C1214 H1234 0.929 . S
C1215 C1212 1.461 . S
C1215 C1214 1.474 . S
C1216 C1211 1.342 . S
C1216 C1214 1.285 . S
C1216 H1235 0.930 . S
C1217 C1220 1.424 . S
C1217 C1222 1.245 . S
C1217 C1223 1.428 . S
C1218 C1221 1.260 . S
C1218 C1222 1.477 . S
C1218 H1236 0.932 . S
C1219 C1220 1.384 . S
C1219 C1221 1.479 . S
C1219 H1237 0.929 . S
C1220 C1217 1.424 . S
C1220 C1219 1.384 . S
C1220 H1238 0.928 . S
C1221 C1218 1.260 . S
C1221 C1219 1.479 . S
C1222 C1217 1.245 . S
C1222 C1218 1.477 . S
C1222 H1239 0.932 . S
C1223 U1206 2.882 . S
C1223 C1217 1.428 . S
C1223 O1226 1.301 . S
C1223 O1227 1.282 . S
O1224 U1206 2.441 . S
O1224 C1210 1.249 . S
O1225 U1206 2.420 . S
O1225 C1210 1.202 . S
O1226 U1206 2.455 . S
O1226 C1223 1.301 . S
O1227 U1206 2.449 . S
O1227 C1223 1.282 . S
H1228 C1201 0.931 . S
H1229 C1203 0.929 . S
H1230 C1204 0.930 . S
H1231 C1205 0.931 . S
H1232 C1212 0.932 . S
H1233 C1213 0.930 . S
H1234 C1214 0.929 . S
H1235 C1216 0.930 . S
H1236 C1218 0.932 . S
H1237 C1219 0.929 . S
H1238 C1220 0.928 . S
H1239 C1222 0.932 . S
C1240 C1241 1.264 . S
C1240 C1245 1.479 . S
C1240 C1250 1.465 . S
C1241 C1240 1.264 . S
C1241 C1243 1.339 . S
C1241 H1268 0.931 . S
C1242 C1243 1.395 . S
C1242 C1244 1.320 . S
C1243 C1241 1.339 . S
C1243 C1242 1.395 . S
C1243 H1269 0.929 . S
C1244 C1242 1.320 . S
C1244 C1245 1.405 . S
C1244 H1270 0.930 . S
C1245 C1240 1.479 . S
C1245 C1244 1.405 . S
C1245 H1271 0.931 . S
U1246 O1247 2.454 . S
U1246 O1248 2.458 . S
U1246 C1249 2.984 . S
U1246 C1250 2.847 . S
U1246 C1263 2.882 . S
U1246 O1264 2.441 . S
U1246 O1265 2.420 . S
U1246 O1266 2.455 . S
U1246 O1267 2.449 . S
O1247 U1246 2.454 . S
O1247 C1249 1.353 . S
O1248 U1246 2.458 . S
O1248 C1249 1.286 . S
C1249 U1246 2.984 . S
C1249 O1247 1.353 . S
C1249 O1248 1.286 . S
C1249 C1251 1.363 . S
C1250 C1240 1.465 . S
C1250 U1246 2.847 . S
C1250 O1264 1.249 . S
C1250 O1265 1.202 . S
C1251 C1249 1.363 . S
C1251 C1253 1.408 . S
C1251 C1256 1.342 . S
C1252 C1253 1.310 . S
C1252 C1255 1.461 . S
C1252 H1272 0.932 . S
C1253 C1251 1.408 . S
C1253 C1252 1.310 . S
C1253 H1273 0.930 . S
C1254 C1255 1.474 . S
C1254 C1256 1.285 . S
C1254 H1274 0.929 . S
C1255 C1252 1.461 . S
C1255 C1254 1.474 . S
C1256 C1251 1.342 . S
C1256 C1254 1.285 . S
C1256 H1275 0.930 . S
C1257 C1260 1.424 . S
C1257 C1262 1.245 . S
C1257 C1263 1.428 . S
C1258 C1261 1.260 . S
C1258 C1262 1.477 . S
C1258 H1276 0.932 . S
C1259 C1260 1.384 . S
C1259 C1261 1.479 . S
C1259 H1277 0.929 . S
C1260 C1257 1.424 . S
C1260 C1259 1.384 . S
C1260 H1278 0.928 . S
C1261 C1258 1.260 . S
C1261 C1259 1.479 . S
C1262 C1257 1.245 . S
C1262 C1258 1.477 . S
C1262 H1279 0.932 . S
C1263 U1246 2.882 . S
C1263 C1257 1.428 . S
C1263 O1266 1.301 . S
C1263 O1267 1.282 . S
O1264 U1246 2.441 . S
O1264 C1250 1.249 . S
O1265 U1246 2.420 . S
O1265 C1250 1.202 . S
O1266 U1246 2.455 . S
O1266 C1263 1.301 . S
O1267 U1246 2.449 . S
O1267 C1263 1.282 . S
H1268 C1241 0.931 . S
H1269 C1243 0.929 . S
H1270 C1244 0.930 . S
H1271 C1245 0.931 . S
H1272 C1252 0.932 . S
H1273 C1253 0.930 . S
H1274 C1254 0.929 . S
H1275 C1256 0.930 . S
H1276 C1258 0.932 . S
H1277 C1259 0.929 . S
H1278 C1260 0.928 . S
H1279 C1262 0.932 . S
C1280 C1281 1.264 . S
C1280 C1285 1.479 . S
C1280 C1290 1.465 . S
C1281 C1280 1.264 . S
C1281 C1283 1.339 . S
C1281 H1308 0.931 . S
C1282 C1283 1.395 . S
C1282 C1284 1.320 . S
C1283 C1281 1.339 . S
C1283 C1282 1.395 . S
C1283 H1309 0.929 . S
C1284 C1282 1.320 . S
C1284 C1285 1.405 . S
C1284 H1310 0.930 . S
C1285 C1280 1.479 . S
C1285 C1284 1.405 . S
C1285 H1311 0.931 . S
U1286 O1287 2.454 . S
U1286 O1288 2.458 . S
U1286 C1289 2.984 . S
U1286 C1290 2.847 . S
U1286 C1303 2.882 . S
U1286 O1304 2.441 . S
U1286 O1305 2.420 . S
U1286 O1306 2.455 . S
U1286 O1307 2.449 . S
O1287 U1286 2.454 . S
O1287 C1289 1.353 . S
O1288 U1286 2.458 . S
O1288 C1289 1.286 . S
C1289 U1286 2.984 . S
C1289 O1287 1.353 . S
C1289 O1288 1.286 . S
C1289 C1291 1.363 . S
C1290 C1280 1.465 . S
C1290 U1286 2.847 . S
C1290 O1304 1.249 . S
C1290 O1305 1.202 . S
C1291 C1289 1.363 . S
C1291 C1293 1.408 . S
C1291 C1296 1.342 . S
C1292 C1293 1.310 . S
C1292 C1295 1.461 . S
C1292 H1312 0.932 . S
C1293 C1291 1.408 . S
C1293 C1292 1.310 . S
C1293 H1313 0.930 . S
C1294 C1295 1.474 . S
C1294 C1296 1.285 . S
C1294 H1314 0.929 . S
C1295 C1292 1.461 . S
C1295 C1294 1.474 . S
C1296 C1291 1.342 . S
C1296 C1294 1.285 . S
C1296 H1315 0.930 . S
C1297 C1300 1.424 . S
C1297 C1302 1.245 . S
C1297 C1303 1.428 . S
C1298 C1301 1.260 . S
C1298 C1302 1.477 . S
C1298 H1316 0.932 . S
C1299 C1300 1.384 . S
C1299 C1301 1.479 . S
C1299 H1317 0.929 . S
C1300 C1297 1.424 . S
C1300 C1299 1.384 . S
C1300 H1318 0.928 . S
C1301 C1298 1.260 . S
C1301 C1299 1.479 . S
C1302 C1297 1.245 . S
C1302 C1298 1.477 . S
C1302 H1319 0.932 . S
C1303 U1286 2.882 . S
C1303 C1297 1.428 . S
C1303 O1306 1.301 . S
C1303 O1307 1.282 . S
O1304 U1286 2.441 . S
O1304 C1290 1.249 . S
O1305 U1286 2.420 . S
O1305 C1290 1.202 . S
O1306 U1286 2.455 . S
O1306 C1303 1.301 . S
O1307 U1286 2.449 . S
O1307 C1303 1.282 . S
H1308 C1281 0.931 . S
H1309 C1283 0.929 . S
H1310 C1284 0.930 . S
H1311 C1285 0.931 . S
H1312 C1292 0.932 . S
H1313 C1293 0.930 . S
H1314 C1294 0.929 . S
H1315 C1296 0.930 . S
H1316 C1298 0.932 . S
H1317 C1299 0.929 . S
H1318 C1300 0.928 . S
H1319 C1302 0.932 . S
C1320 C1321 1.264 . S
C1320 C1325 1.479 . S
C1320 C1330 1.465 . S
C1321 C1320 1.264 . S
C1321 C1323 1.339 . S
C1321 H1348 0.931 . S
C1322 C1323 1.395 . S
C1322 C1324 1.320 . S
C1323 C1321 1.339 . S
C1323 C1322 1.395 . S
C1323 H1349 0.929 . S
C1324 C1322 1.320 . S
C1324 C1325 1.405 . S
C1324 H1350 0.930 . S
C1325 C1320 1.479 . S
C1325 C1324 1.405 . S
C1325 H1351 0.931 . S
U1326 O1327 2.454 . S
U1326 O1328 2.458 . S
U1326 C1329 2.984 . S
U1326 C1330 2.847 . S
U1326 C1343 2.882 . S
U1326 O1344 2.441 . S
U1326 O1345 2.420 . S
U1326 O1346 2.455 . S
U1326 O1347 2.449 . S
O1327 U1326 2.454 . S
O1327 C1329 1.353 . S
O1328 U1326 2.458 . S
O1328 C1329 1.286 . S
C1329 U1326 2.984 . S
C1329 O1327 1.353 . S
C1329 O1328 1.286 . S
C1329 C1331 1.363 . S
C1330 C1320 1.465 . S
C1330 U1326 2.847 . S
C1330 O1344 1.249 . S
C1330 O1345 1.202 . S
C1331 C1329 1.363 . S
C1331 C1333 1.408 . S
C1331 C1336 1.342 . S
C1332 C1333 1.310 . S
C1332 C1335 1.461 . S
C1332 H1352 0.932 . S
C1333 C1331 1.408 . S
C1333 C1332 1.310 . S
C1333 H1353 0.930 . S
C1334 C1335 1.474 . S
C1334 C1336 1.285 . S
C1334 H1354 0.929 . S
C1335 C1332 1.461 . S
C1335 C1334 1.474 . S
C1336 C1331 1.342 . S
C1336 C1334 1.285 . S
C1336 H1355 0.930 . S
C1337 C1340 1.424 . S
C1337 C1342 1.245 . S
C1337 C1343 1.428 . S
C1338 C1341 1.260 . S
C1338 C1342 1.477 . S
C1338 H1356 0.932 . S
C1339 C1340 1.384 . S
C1339 C1341 1.479 . S
C1339 H1357 0.929 . S
C1340 C1337 1.424 . S
C1340 C1339 1.384 . S
C1340 H1358 0.928 . S
C1341 C1338 1.260 . S
C1341 C1339 1.479 . S
C1342 C1337 1.245 . S
C1342 C1338 1.477 . S
C1342 H1359 0.932 . S
C1343 U1326 2.882 . S
C1343 C1337 1.428 . S
C1343 O1346 1.301 . S
C1343 O1347 1.282 . S
O1344 U1326 2.441 . S
O1344 C1330 1.249 . S
O1345 U1326 2.420 . S
O1345 C1330 1.202 . S
O1346 U1326 2.455 . S
O1346 C1343 1.301 . S
O1347 U1326 2.449 . S
O1347 C1343 1.282 . S
H1348 C1321 0.931 . S
H1349 C1323 0.929 . S
H1350 C1324 0.930 . S
H1351 C1325 0.931 . S
H1352 C1332 0.932 . S
H1353 C1333 0.930 . S
H1354 C1334 0.929 . S
H1355 C1336 0.930 . S
H1356 C1338 0.932 . S
H1357 C1339 0.929 . S
H1358 C1340 0.928 . S
H1359 C1342 0.932 . S
C1360 C1361 1.264 . S
C1360 C1365 1.479 . S
C1360 C1370 1.465 . S
C1361 C1360 1.264 . S
C1361 C1363 1.339 . S
C1361 H1388 0.931 . S
C1362 C1363 1.395 . S
C1362 C1364 1.320 . S
C1363 C1361 1.339 . S
C1363 C1362 1.395 . S
C1363 H1389 0.929 . S
C1364 C1362 1.320 . S
C1364 C1365 1.405 . S
C1364 H1390 0.930 . S
C1365 C1360 1.479 . S
C1365 C1364 1.405 . S
C1365 H1391 0.931 . S
U1366 O1367 2.454 . S
U1366 O1368 2.458 . S
U1366 C1369 2.984 . S
U1366 C1370 2.847 . S
U1366 C1383 2.882 . S
U1366 O1384 2.441 . S
U1366 O1385 2.420 . S
U1366 O1386 2.455 . S
U1366 O1387 2.449 . S
O1367 U1366 2.454 . S
O1367 C1369 1.353 . S
O1368 U1366 2.458 . S
O1368 C1369 1.286 . S
C1369 U1366 2.984 . S
C1369 O1367 1.353 . S
C1369 O1368 1.286 . S
C1369 C1371 1.363 . S
C1370 C1360 1.465 . S
C1370 U1366 2.847 . S
C1370 O1384 1.249 . S
C1370 O1385 1.202 . S
C1371 C1369 1.363 . S
C1371 C1373 1.408 . S
C1371 C1376 1.342 . S
C1372 C1373 1.310 . S
C1372 C1375 1.461 . S
C1372 H1392 0.932 . S
C1373 C1371 1.408 . S
C1373 C1372 1.310 . S
C1373 H1393 0.930 . S
C1374 C1375 1.474 . S
C1374 C1376 1.285 . S
C1374 H1394 0.929 . S
C1375 C1372 1.461 . S
C1375 C1374 1.474 . S
C1376 C1371 1.342 . S
C1376 C1374 1.285 . S
C1376 H1395 0.930 . S
C1377 C1380 1.424 . S
C1377 C1382 1.245 . S
C1377 C1383 1.428 . S
C1378 C1381 1.260 . S
C1378 C1382 1.477 . S
C1378 H1396 0.932 . S
C1379 C1380 1.384 . S
C1379 C1381 1.479 . S
C1379 H1397 0.929 . S
C1380 C1377 1.424 . S
C1380 C1379 1.384 . S
C1380 H1398 0.928 . S
C1381 C1378 1.260 . S
C1381 C1379 1.479 . S
C1382 C1377 1.245 . S
C1382 C1378 1.477 . S
C1382 H1399 0.932 . S
C1383 U1366 2.882 . S
C1383 C1377 1.428 . S
C1383 O1386 1.301 . S
C1383 O1387 1.282 . S
O1384 U1366 2.441 . S
O1384 C1370 1.249 . S
O1385 U1366 2.420 . S
O1385 C1370 1.202 . S
O1386 U1366 2.455 . S
O1386 C1383 1.301 . S
O1387 U1366 2.449 . S
O1387 C1383 1.282 . S
H1388 C1361 0.931 . S
H1389 C1363 0.929 . S
H1390 C1364 0.930 . S
H1391 C1365 0.931 . S
H1392 C1372 0.932 . S
H1393 C1373 0.930 . S
H1394 C1374 0.929 . S
H1395 C1376 0.930 . S
H1396 C1378 0.932 . S
H1397 C1379 0.929 . S
H1398 C1380 0.928 . S
H1399 C1382 0.932 . S
C1400 C1401 1.264 . S
C1400 C1405 1.479 . S
C1400 C1410 1.465 . S
C1401 C1400 1.264 . S
C1401 C1403 1.339 . S
C1401 H1428 0.931 . S
C1402 C1403 1.395 . S
C1402 C1404 1.320 . S
C1403 C1401 1.339 . S
C1403 C1402 1.395 . S
C1403 H1429 0.929 . S
C1404 C1402 1.320 . S
C1404 C1405 1.405 . S
C1404 H1430 0.930 . S
C1405 C1400 1.479 . S
C1405 C1404 1.405 . S
C1405 H1431 0.931 . S
U1406 O1407 2.454 . S
U1406 O1408 2.458 . S
U1406 C1409 2.984 . S
U1406 C1410 2.847 . S
U1406 C1423 2.882 . S
U1406 O1424 2.441 . S
U1406 O1425 2.420 . S
U1406 O1426 2.455 . S
U1406 O1427 2.449 . S
O1407 U1406 2.454 . S
O1407 C1409 1.353 . S
O1408 U1406 2.458 . S
O1408 C1409 1.286 . S
C1409 U1406 2.984 . S
C1409 O1407 1.353 . S
C1409 O1408 1.286 . S
C1409 C1411 1.363 . S
C1410 C1400 1.465 . S
C1410 U1406 2.847 . S
C1410 O1424 1.249 . S
C1410 O1425 1.202 . S
C1411 C1409 1.363 . S
C1411 C1413 1.408 . S
C1411 C1416 1.342 . S
C1412 C1413 1.310 . S
C1412 C1415 1.461 . S
C1412 H1432 0.932 . S
C1413 C1411 1.408 . S
C1413 C1412 1.310 . S
C1413 H1433 0.930 . S
C1414 C1415 1.474 . S
C1414 C1416 1.285 . S
C1414 H1434 0.929 . S
C1415 C1412 1.461 . S
C1415 C1414 1.474 . S
C1416 C1411 1.342 . S
C1416 C1414 1.285 . S
C1416 H1435 0.930 . S
C1417 C1420 1.424 . S
C1417 C1422 1.245 . S
C1417 C1423 1.428 . S
C1418 C1421 1.260 . S
C1418 C1422 1.477 . S
C1418 H1436 0.932 . S
C1419 C1420 1.384 . S
C1419 C1421 1.479 . S
C1419 H1437 0.929 . S
C1420 C1417 1.424 . S
C1420 C1419 1.384 . S
C1420 H1438 0.928 . S
C1421 C1418 1.260 . S
C1421 C1419 1.479 . S
C1422 C1417 1.245 . S
C1422 C1418 1.477 . S
C1422 H1439 0.932 . S
C1423 U1406 2.882 . S
C1423 C1417 1.428 . S
C1423 O1426 1.301 . S
C1423 O1427 1.282 . S
O1424 U1406 2.441 . S
O1424 C1410 1.249 . S
O1425 U1406 2.420 . S
O1425 C1410 1.202 . S
O1426 U1406 2.455 . S
O1426 C1423 1.301 . S
O1427 U1406 2.449 . S
O1427 C1423 1.282 . S
H1428 C1401 0.931 . S
H1429 C1403 0.929 . S
H1430 C1404 0.930 . S
H1431 C1405 0.931 . S
H1432 C1412 0.932 . S
H1433 C1413 0.930 . S
H1434 C1414 0.929 . S
H1435 C1416 0.930 . S
H1436 C1418 0.932 . S
H1437 C1419 0.929 . S
H1438 C1420 0.928 . S
H1439 C1422 0.932 . S
C1440 C1441 1.264 . S
C1440 C1445 1.479 . S
C1440 C1450 1.465 . S
C1441 C1440 1.264 . S
C1441 C1443 1.339 . S
C1441 H1468 0.931 . S
C1442 C1443 1.395 . S
C1442 C1444 1.320 . S
C1443 C1441 1.339 . S
C1443 C1442 1.395 . S
C1443 H1469 0.929 . S
C1444 C1442 1.320 . S
C1444 C1445 1.405 . S
C1444 H1470 0.930 . S
C1445 C1440 1.479 . S
C1445 C1444 1.405 . S
C1445 H1471 0.931 . S
U1446 O1447 2.454 . S
U1446 O1448 2.458 . S
U1446 C1449 2.984 . S
U1446 C1450 2.847 . S
U1446 C1463 2.882 . S
U1446 O1464 2.441 . S
U1446 O1465 2.420 . S
U1446 O1466 2.455 . S
U1446 O1467 2.449 . S
O1447 U1446 2.454 . S
O1447 C1449 1.353 . S
O1448 U1446 2.458 . S
O1448 C1449 1.286 . S
C1449 U1446 2.984 . S
C1449 O1447 1.353 . S
C1449 O1448 1.286 . S
C1449 C1451 1.363 . S
C1450 C1440 1.465 . S
C1450 U1446 2.847 . S
C1450 O1464 1.249 . S
C1450 O1465 1.202 . S
C1451 C1449 1.363 . S
C1451 C1453 1.408 . S
C1451 C1456 1.342 . S
C1452 C1453 1.310 . S
C1452 C1455 1.461 . S
C1452 H1472 0.932 . S
C1453 C1451 1.408 . S
C1453 C1452 1.310 . S
C1453 H1473 0.930 . S
C1454 C1455 1.474 . S
C1454 C1456 1.285 . S
C1454 H1474 0.929 . S
C1455 C1452 1.461 . S
C1455 C1454 1.474 . S
C1456 C1451 1.342 . S
C1456 C1454 1.285 . S
C1456 H1475 0.930 . S
C1457 C1460 1.424 . S
C1457 C1462 1.245 . S
C1457 C1463 1.428 . S
C1458 C1461 1.260 . S
C1458 C1462 1.477 . S
C1458 H1476 0.932 . S
C1459 C1460 1.384 . S
C1459 C1461 1.479 . S
C1459 H1477 0.929 . S
C1460 C1457 1.424 . S
C1460 C1459 1.384 . S
C1460 H1478 0.928 . S
C1461 C1458 1.260 . S
C1461 C1459 1.479 . S
C1462 C1457 1.245 . S
C1462 C1458 1.477 . S
C1462 H1479 0.932 . S
C1463 U1446 2.882 . S
C1463 C1457 1.428 . S
C1463 O1466 1.301 . S
C1463 O1467 1.282 . S
O1464 U1446 2.441 . S
O1464 C1450 1.249 . S
O1465 U1446 2.420 . S
O1465 C1450 1.202 . S
O1466 U1446 2.455 . S
O1466 C1463 1.301 . S
O1467 U1446 2.449 . S
O1467 C1463 1.282 . S
H1468 C1441 0.931 . S
H1469 C1443 0.929 . S
H1470 C1444 0.930 . S
H1471 C1445 0.931 . S
H1472 C1452 0.932 . S
H1473 C1453 0.930 . S
H1474 C1454 0.929 . S
H1475 C1456 0.930 . S
H1476 C1458 0.932 . S
H1477 C1459 0.929 . S
H1478 C1460 0.928 . S
H1479 C1462 0.932 . S
C1480 C1481 1.264 . S
C1480 C1485 1.479 . S
C1480 C1490 1.465 . S
C1481 C1480 1.264 . S
C1481 C1483 1.339 . S
C1481 H1508 0.931 . S
C1482 C1483 1.395 . S
C1482 C1484 1.320 . S
C1483 C1481 1.339 . S
C1483 C1482 1.395 . S
C1483 H1509 0.929 . S
C1484 C1482 1.320 . S
C1484 C1485 1.405 . S
C1484 H1510 0.930 . S
C1485 C1480 1.479 . S
C1485 C1484 1.405 . S
C1485 H1511 0.931 . S
U1486 O1487 2.454 . S
U1486 O1488 2.458 . S
U1486 C1489 2.984 . S
U1486 C1490 2.847 . S
U1486 C1503 2.882 . S
U1486 O1504 2.441 . S
U1486 O1505 2.420 . S
U1486 O1506 2.455 . S
U1486 O1507 2.449 . S
O1487 U1486 2.454 . S
O1487 C1489 1.353 . S
O1488 U1486 2.458 . S
O1488 C1489 1.286 . S
C1489 U1486 2.984 . S
C1489 O1487 1.353 . S
C1489 O1488 1.286 . S
C1489 C1491 1.363 . S
C1490 C1480 1.465 . S
C1490 U1486 2.847 . S
C1490 O1504 1.249 . S
C1490 O1505 1.202 . S
C1491 C1489 1.363 . S
C1491 C1493 1.408 . S
C1491 C1496 1.342 . S
C1492 C1493 1.310 . S
C1492 C1495 1.461 . S
C1492 H1512 0.932 . S
C1493 C1491 1.408 . S
C1493 C1492 1.310 . S
C1493 H1513 0.930 . S
C1494 C1495 1.474 . S
C1494 C1496 1.285 . S
C1494 H1514 0.929 . S
C1495 C1492 1.461 . S
C1495 C1494 1.474 . S
C1496 C1491 1.342 . S
C1496 C1494 1.285 . S
C1496 H1515 0.930 . S
C1497 C1500 1.424 . S
C1497 C1502 1.245 . S
C1497 C1503 1.428 . S
C1498 C1501 1.260 . S
C1498 C1502 1.477 . S
C1498 H1516 0.932 . S
C1499 C1500 1.384 . S
C1499 C1501 1.479 . S
C1499 H1517 0.929 . S
C1500 C1497 1.424 . S
C1500 C1499 1.384 . S
C1500 H1518 0.928 . S
C1501 C1498 1.260 . S
C1501 C1499 1.479 . S
C1502 C1497 1.245 . S
C1502 C1498 1.477 . S
C1502 H1519 0.932 . S
C1503 U1486 2.882 . S
C1503 C1497 1.428 . S
C1503 O1506 1.301 . S
C1503 O1507 1.282 . S
O1504 U1486 2.441 . S
O1504 C1490 1.249 . S
O1505 U1486 2.420 . S
O1505 C1490 1.202 . S
O1506 U1486 2.455 . S
O1506 C1503 1.301 . S
O1507 U1486 2.449 . S
O1507 C1503 1.282 . S
H1508 C1481 0.931 . S
H1509 C1483 0.929 . S
H1510 C1484 0.930 . S
H1511 C1485 0.931 . S
H1512 C1492 0.932 . S
H1513 C1493 0.930 . S
H1514 C1494 0.929 . S
H1515 C1496 0.930 . S
H1516 C1498 0.932 . S
H1517 C1499 0.929 . S
H1518 C1500 0.928 . S
H1519 C1502 0.932 . S
C1520 C1521 1.264 . S
C1520 C1525 1.479 . S
C1520 C1530 1.465 . S
C1521 C1520 1.264 . S
C1521 C1523 1.339 . S
C1521 H1548 0.931 . S
C1522 C1523 1.395 . S
C1522 C1524 1.320 . S
C1523 C1521 1.339 . S
C1523 C1522 1.395 . S
C1523 H1549 0.929 . S
C1524 C1522 1.320 . S
C1524 C1525 1.405 . S
C1524 H1550 0.930 . S
C1525 C1520 1.479 . S
C1525 C1524 1.405 . S
C1525 H1551 0.931 . S
U1526 O1527 2.454 . S
U1526 O1528 2.458 . S
U1526 C1529 2.984 . S
U1526 C1530 2.847 . S
U1526 C1543 2.882 . S
U1526 O1544 2.441 . S
U1526 O1545 2.420 . S
U1526 O1546 2.455 . S
U1526 O1547 2.449 . S
O1527 U1526 2.454 . S
O1527 C1529 1.353 . S
O1528 U1526 2.458 . S
O1528 C1529 1.286 . S
C1529 U1526 2.984 . S
C1529 O1527 1.353 . S
C1529 O1528 1.286 . S
C1529 C1531 1.363 . S
C1530 C1520 1.465 . S
C1530 U1526 2.847 . S
C1530 O1544 1.249 . S
C1530 O1545 1.202 . S
C1531 C1529 1.363 . S
C1531 C1533 1.408 . S
C1531 C1536 1.342 . S
C1532 C1533 1.310 . S
C1532 C1535 1.461 . S
C1532 H1552 0.932 . S
C1533 C1531 1.408 . S
C1533 C1532 1.310 . S
C1533 H1553 0.930 . S
C1534 C1535 1.474 . S
C1534 C1536 1.285 . S
C1534 H1554 0.929 . S
C1535 C1532 1.461 . S
C1535 C1534 1.474 . S
C1536 C1531 1.342 . S
C1536 C1534 1.285 . S
C1536 H1555 0.930 . S
C1537 C1540 1.424 . S
C1537 C1542 1.245 . S
C1537 C1543 1.428 . S
C1538 C1541 1.260 . S
C1538 C1542 1.477 . S
C1538 H1556 0.932 . S
C1539 C1540 1.384 . S
C1539 C1541 1.479 . S
C1539 H1557 0.929 . S
C1540 C1537 1.424 . S
C1540 C1539 1.384 . S
C1540 H1558 0.928 . S
C1541 C1538 1.260 . S
C1541 C1539 1.479 . S
C1542 C1537 1.245 . S
C1542 C1538 1.477 . S
C1542 H1559 0.932 . S
C1543 U1526 2.882 . S
C1543 C1537 1.428 . S
C1543 O1546 1.301 . S
C1543 O1547 1.282 . S
O1544 U1526 2.441 . S
O1544 C1530 1.249 . S
O1545 U1526 2.420 . S
O1545 C1530 1.202 . S
O1546 U1526 2.455 . S
O1546 C1543 1.301 . S
O1547 U1526 2.449 . S
O1547 C1543 1.282 . S
H1548 C1521 0.931 . S
H1549 C1523 0.929 . S
H1550 C1524 0.930 . S
H1551 C1525 0.931 . S
H1552 C1532 0.932 . S
H1553 C1533 0.930 . S
H1554 C1534 0.929 . S
H1555 C1536 0.930 . S
H1556 C1538 0.932 . S
H1557 C1539 0.929 . S
H1558 C1540 0.928 . S
H1559 C1542 0.932 . S
C1560 C1561 1.264 . S
C1560 C1565 1.479 . S
C1560 C1570 1.465 . S
C1561 C1560 1.264 . S
C1561 C1563 1.339 . S
C1561 H1588 0.931 . S
C1562 C1563 1.395 . S
C1562 C1564 1.320 . S
C1563 C1561 1.339 . S
C1563 C1562 1.395 . S
C1563 H1589 0.929 . S
C1564 C1562 1.320 . S
C1564 C1565 1.405 . S
C1564 H1590 0.930 . S
C1565 C1560 1.479 . S
C1565 C1564 1.405 . S
C1565 H1591 0.931 . S
U1566 O1567 2.454 . S
U1566 O1568 2.458 . S
U1566 C1569 2.984 . S
U1566 C1570 2.847 . S
U1566 C1583 2.882 . S
U1566 O1584 2.441 . S
U1566 O1585 2.420 . S
U1566 O1586 2.455 . S
U1566 O1587 2.449 . S
O1567 U1566 2.454 . S
O1567 C1569 1.353 . S
O1568 U1566 2.458 . S
O1568 C1569 1.286 . S
C1569 U1566 2.984 . S
C1569 O1567 1.353 . S
C1569 O1568 1.286 . S
C1569 C1571 1.363 . S
C1570 C1560 1.465 . S
C1570 U1566 2.847 . S
C1570 O1584 1.249 . S
C1570 O1585 1.202 . S
C1571 C1569 1.363 . S
C1571 C1573 1.408 . S
C1571 C1576 1.342 . S
C1572 C1573 1.310 . S
C1572 C1575 1.461 . S
C1572 H1592 0.932 . S
C1573 C1571 1.408 . S
C1573 C1572 1.310 . S
C1573 H1593 0.930 . S
C1574 C1575 1.474 . S
C1574 C1576 1.285 . S
C1574 H1594 0.929 . S
C1575 C1572 1.461 . S
C1575 C1574 1.474 . S
C1576 C1571 1.342 . S
C1576 C1574 1.285 . S
C1576 H1595 0.930 . S
C1577 C1580 1.424 . S
C1577 C1582 1.245 . S
C1577 C1583 1.428 . S
C1578 C1581 1.260 . S
C1578 C1582 1.477 . S
C1578 H1596 0.932 . S
C1579 C1580 1.384 . S
C1579 C1581 1.479 . S
C1579 H1597 0.929 . S
C1580 C1577 1.424 . S
C1580 C1579 1.384 . S
C1580 H1598 0.928 . S
C1581 C1578 1.260 . S
C1581 C1579 1.479 . S
C1582 C1577 1.245 . S
C1582 C1578 1.477 . S
C1582 H1599 0.932 . S
C1583 U1566 2.882 . S
C1583 C1577 1.428 . S
C1583 O1586 1.301 . S
C1583 O1587 1.282 . S
O1584 U1566 2.441 . S
O1584 C1570 1.249 . S
O1585 U1566 2.420 . S
O1585 C1570 1.202 . S
O1586 U1566 2.455 . S
O1586 C1583 1.301 . S
O1587 U1566 2.449 . S
O1587 C1583 1.282 . S
H1588 C1561 0.931 . S
H1589 C1563 0.929 . S
H1590 C1564 0.930 . S
H1591 C1565 0.931 . S
H1592 C1572 0.932 . S
H1593 C1573 0.930 . S
H1594 C1574 0.929 . S
H1595 C1576 0.930 . S
H1596 C1578 0.932 . S
H1597 C1579 0.929 . S
H1598 C1580 0.928 . S
H1599 C1582 0.932 . S
C1600 C1601 1.264 . S
C1600 C1605 1.479 . S
C1600 C1610 1.465 . S
C1601 C1600 1.264 . S
C1601 C1603 1.339 . S
C1601 H1628 0.931 . S
C1602 C1603 1.395 . S
C1602 C1604 1.320 . S
C1603 C1601 1.339 . S
C1603 C1602 1.395 . S
C1603 H1629 0.929 . S
C1604 C1602 1.320 . S
C1604 C1605 1.405 . S
C1604 H1630 0.930 . S
C1605 C1600 1.479 . S
C1605 C1604 1.405 . S
C1605 H1631 0.931 . S
U1606 O1607 2.454 . S
U1606 O1608 2.458 . S
U1606 C1609 2.984 . S
U1606 C1610 2.847 . S
U1606 C1623 2.882 . S
U1606 O1624 2.441 . S
U1606 O1625 2.420 . S
U1606 O1626 2.455 . S
U1606 O1627 2.449 . S
O1607 U1606 2.454 . S
O1607 C1609 1.353 . S
O1608 U1606 2.458 . S
O1608 C1609 1.286 . S
C1609 U1606 2.984 . S
C1609 O1607 1.353 . S
C1609 O1608 1.286 . S
C1609 C1611 1.363 . S
C1610 C1600 1.465 . S
C1610 U1606 2.847 . S
C1610 O1624 1.249 . S
C1610 O1625 1.202 . S
C1611 C1609 1.363 . S
C1611 C1613 1.408 . S
C1611 C1616 1.342 . S
C1612 C1613 1.310 . S
C1612 C1615 1.461 . S
C1612 H1632 0.932 . S
C1613 C1611 1.408 . S
C1613 C1612 1.310 . S
C1613 H1633 0.930 . S
C1614 C1615 1.474 . S
C1614 C1616 1.285 . S
C1614 H1634 0.929 . S
C1615 C1612 1.461 . S
C1615 C1614 1.474 . S
C1616 C1611 1.342 . S
C1616 C1614 1.285 . S
C1616 H1635 0.930 . S
C1617 C1620 1.424 . S
C1617 C1622 1.245 . S
C1617 C1623 1.428 . S
C1618 C1621 1.260 . S
C1618 C1622 1.477 . S
C1618 H1636 0.932 . S
C1619 C1620 1.384 . S
C1619 C1621 1.479 . S
C1619 H1637 0.929 . S
C1620 C1617 1.424 . S
C1620 C1619 1.384 . S
C1620 H1638 0.928 . S
C1621 C1618 1.260 . S
C1621 C1619 1.479 . S
C1622 C1617 1.245 . S
C1622 C1618 1.477 . S
C1622 H1639 0.932 . S
C1623 U1606 2.882 . S
C1623 C1617 1.428 . S
C1623 O1626 1.301 . S
C1623 O1627 1.282 . S
O1624 U1606 2.441 . S
O1624 C1610 1.249 . S
O1625 U1606 2.420 . S
O1625 C1610 1.202 . S
O1626 U1606 2.455 . S
O1626 C1623 1.301 . S
O1627 U1606 2.449 . S
O1627 C1623 1.282 . S
H1628 C1601 0.931 . S
H1629 C1603 0.929 . S
H1630 C1604 0.930 . S
H1631 C1605 0.931 . S
H1632 C1612 0.932 . S
H1633 C1613 0.930 . S
H1634 C1614 0.929 . S
H1635 C1616 0.930 . S
H1636 C1618 0.932 . S
H1637 C1619 0.929 . S
H1638 C1620 0.928 . S
H1639 C1622 0.932 . S
C1640 C1641 1.264 . S
C1640 C1645 1.479 . S
C1640 C1650 1.465 . S
C1641 C1640 1.264 . S
C1641 C1643 1.339 . S
C1641 H1668 0.931 . S
C1642 C1643 1.395 . S
C1642 C1644 1.320 . S
C1643 C1641 1.339 . S
C1643 C1642 1.395 . S
C1643 H1669 0.929 . S
C1644 C1642 1.320 . S
C1644 C1645 1.405 . S
C1644 H1670 0.930 . S
C1645 C1640 1.479 . S
C1645 C1644 1.405 . S
C1645 H1671 0.931 . S
U1646 O1647 2.454 . S
U1646 O1648 2.458 . S
U1646 C1649 2.984 . S
U1646 C1650 2.847 . S
U1646 C1663 2.882 . S
U1646 O1664 2.441 . S
U1646 O1665 2.420 . S
U1646 O1666 2.455 . S
U1646 O1667 2.449 . S
O1647 U1646 2.454 . S
O1647 C1649 1.353 . S
O1648 U1646 2.458 . S
O1648 C1649 1.286 . S
C1649 U1646 2.984 . S
C1649 O1647 1.353 . S
C1649 O1648 1.286 . S
C1649 C1651 1.363 . S
C1650 C1640 1.465 . S
C1650 U1646 2.847 . S
C1650 O1664 1.249 . S
C1650 O1665 1.202 . S
C1651 C1649 1.363 . S
C1651 C1653 1.408 . S
C1651 C1656 1.342 . S
C1652 C1653 1.310 . S
C1652 C1655 1.461 . S
C1652 H1672 0.932 . S
C1653 C1651 1.408 . S
C1653 C1652 1.310 . S
C1653 H1673 0.930 . S
C1654 C1655 1.474 . S
C1654 C1656 1.285 . S
C1654 H1674 0.929 . S
C1655 C1652 1.461 . S
C1655 C1654 1.474 . S
C1656 C1651 1.342 . S
C1656 C1654 1.285 . S
C1656 H1675 0.930 . S
C1657 C1660 1.424 . S
C1657 C1662 1.245 . S
C1657 C1663 1.428 . S
C1658 C1661 1.260 . S
C1658 C1662 1.477 . S
C1658 H1676 0.932 . S
C1659 C1660 1.384 . S
C1659 C1661 1.479 . S
C1659 H1677 0.929 . S
C1660 C1657 1.424 . S
C1660 C1659 1.384 . S
C1660 H1678 0.928 . S
C1661 C1658 1.260 . S
C1661 C1659 1.479 . S
C1662 C1657 1.245 . S
C1662 C1658 1.477 . S
C1662 H1679 0.932 . S
C1663 U1646 2.882 . S
C1663 C1657 1.428 . S
C1663 O1666 1.301 . S
C1663 O1667 1.282 . S
O1664 U1646 2.441 . S
O1664 C1650 1.249 . S
O1665 U1646 2.420 . S
O1665 C1650 1.202 . S
O1666 U1646 2.455 . S
O1666 C1663 1.301 . S
O1667 U1646 2.449 . S
O1667 C1663 1.282 . S
H1668 C1641 0.931 . S
H1669 C1643 0.929 . S
H1670 C1644 0.930 . S
H1671 C1645 0.931 . S
H1672 C1652 0.932 . S
H1673 C1653 0.930 . S
H1674 C1654 0.929 . S
H1675 C1656 0.930 . S
H1676 C1658 0.932 . S
H1677 C1659 0.929 . S
H1678 C1660 0.928 . S
H1679 C1662 0.932 . S
C1680 C1681 1.264 . S
C1680 C1685 1.479 . S
C1680 C1690 1.465 . S
C1681 C1680 1.264 . S
C1681 C1683 1.339 . S
C1681 H1708 0.931 . S
C1682 C1683 1.395 . S
C1682 C1684 1.320 . S
C1683 C1681 1.339 . S
C1683 C1682 1.395 . S
C1683 H1709 0.929 . S
C1684 C1682 1.320 . S
C1684 C1685 1.405 . S
C1684 H1710 0.930 . S
C1685 C1680 1.479 . S
C1685 C1684 1.405 . S
C1685 H1711 0.931 . S
U1686 O1687 2.454 . S
U1686 O1688 2.458 . S
U1686 C1689 2.984 . S
U1686 C1690 2.847 . S
U1686 C1703 2.882 . S
U1686 O1704 2.441 . S
U1686 O1705 2.420 . S
U1686 O1706 2.455 . S
U1686 O1707 2.449 . S
O1687 U1686 2.454 . S
O1687 C1689 1.353 . S
O1688 U1686 2.458 . S
O1688 C1689 1.286 . S
C1689 U1686 2.984 . S
C1689 O1687 1.353 . S
C1689 O1688 1.286 . S
C1689 C1691 1.363 . S
C1690 C1680 1.465 . S
C1690 U1686 2.847 . S
C1690 O1704 1.249 . S
C1690 O1705 1.202 . S
C1691 C1689 1.363 . S
C1691 C1693 1.408 . S
C1691 C1696 1.342 . S
C1692 C1693 1.310 . S
C1692 C1695 1.461 . S
C1692 H1712 0.932 . S
C1693 C1691 1.408 . S
C1693 C1692 1.310 . S
C1693 H1713 0.930 . S
C1694 C1695 1.474 . S
C1694 C1696 1.285 . S
C1694 H1714 0.929 . S
C1695 C1692 1.461 . S
C1695 C1694 1.474 . S
C1696 C1691 1.342 . S
C1696 C1694 1.285 . S
C1696 H1715 0.930 . S
C1697 C1700 1.424 . S
C1697 C1702 1.245 . S
C1697 C1703 1.428 . S
C1698 C1701 1.260 . S
C1698 C1702 1.477 . S
C1698 H1716 0.932 . S
C1699 C1700 1.384 . S
C1699 C1701 1.479 . S
C1699 H1717 0.929 . S
C1700 C1697 1.424 . S
C1700 C1699 1.384 . S
C1700 H1718 0.928 . S
C1701 C1698 1.260 . S
C1701 C1699 1.479 . S
C1702 C1697 1.245 . S
C1702 C1698 1.477 . S
C1702 H1719 0.932 . S
C1703 U1686 2.882 . S
C1703 C1697 1.428 . S
C1703 O1706 1.301 . S
C1703 O1707 1.282 . S
O1704 U1686 2.441 . S
O1704 C1690 1.249 . S
O1705 U1686 2.420 . S
O1705 C1690 1.202 . S
O1706 U1686 2.455 . S
O1706 C1703 1.301 . S
O1707 U1686 2.449 . S
O1707 C1703 1.282 . S
H1708 C1681 0.931 . S
H1709 C1683 0.929 . S
H1710 C1684 0.930 . S
H1711 C1685 0.931 . S
H1712 C1692 0.932 . S
H1713 C1693 0.930 . S
H1714 C1694 0.929 . S
H1715 C1696 0.930 . S
H1716 C1698 0.932 . S
H1717 C1699 0.929 . S
H1718 C1700 0.928 . S
H1719 C1702 0.932 . S
C1720 C1721 1.264 . S
C1720 C1725 1.479 . S
C1720 C1730 1.465 . S
C1721 C1720 1.264 . S
C1721 C1723 1.339 . S
C1721 H1748 0.931 . S
C1722 C1723 1.395 . S
C1722 C1724 1.320 . S
C1723 C1721 1.339 . S
C1723 C1722 1.395 . S
C1723 H1749 0.929 . S
C1724 C1722 1.320 . S
C1724 C1725 1.405 . S
C1724 H1750 0.930 . S
C1725 C1720 1.479 . S
C1725 C1724 1.405 . S
C1725 H1751 0.931 . S
U1726 O1727 2.454 . S
U1726 O1728 2.458 . S
U1726 C1729 2.984 . S
U1726 C1730 2.847 . S
U1726 C1743 2.882 . S
U1726 O1744 2.441 . S
U1726 O1745 2.420 . S
U1726 O1746 2.455 . S
U1726 O1747 2.449 . S
O1727 U1726 2.454 . S
O1727 C1729 1.353 . S
O1728 U1726 2.458 . S
O1728 C1729 1.286 . S
C1729 U1726 2.984 . S
C1729 O1727 1.353 . S
C1729 O1728 1.286 . S
C1729 C1731 1.363 . S
C1730 C1720 1.465 . S
C1730 U1726 2.847 . S
C1730 O1744 1.249 . S
C1730 O1745 1.202 . S
C1731 C1729 1.363 . S
C1731 C1733 1.408 . S
C1731 C1736 1.342 . S
C1732 C1733 1.310 . S
C1732 C1735 1.461 . S
C1732 H1752 0.932 . S
C1733 C1731 1.408 . S
C1733 C1732 1.310 . S
C1733 H1753 0.930 . S
C1734 C1735 1.474 . S
C1734 C1736 1.285 . S
C1734 H1754 0.929 . S
C1735 C1732 1.461 . S
C1735 C1734 1.474 . S
C1736 C1731 1.342 . S
C1736 C1734 1.285 . S
C1736 H1755 0.930 . S
C1737 C1740 1.424 . S
C1737 C1742 1.245 . S
C1737 C1743 1.428 . S
C1738 C1741 1.260 . S
C1738 C1742 1.477 . S
C1738 H1756 0.932 . S
C1739 C1740 1.384 . S
C1739 C1741 1.479 . S
C1739 H1757 0.929 . S
C1740 C1737 1.424 . S
C1740 C1739 1.384 . S
C1740 H1758 0.928 . S
C1741 C1738 1.260 . S
C1741 C1739 1.479 . S
C1742 C1737 1.245 . S
C1742 C1738 1.477 . S
C1742 H1759 0.932 . S
C1743 U1726 2.882 . S
C1743 C1737 1.428 . S
C1743 O1746 1.301 . S
C1743 O1747 1.282 . S
O1744 U1726 2.441 . S
O1744 C1730 1.249 . S
O1745 U1726 2.420 . S
O1745 C1730 1.202 . S
O1746 U1726 2.455 . S
O1746 C1743 1.301 . S
O1747 U1726 2.449 . S
O1747 C1743 1.282 . S
H1748 C1721 0.931 . S
H1749 C1723 0.929 . S
H1750 C1724 0.930 . S
H1751 C1725 0.931 . S
H1752 C1732 0.932 . S
H1753 C1733 0.930 . S
H1754 C1734 0.929 . S
H1755 C1736 0.930 . S
H1756 C1738 0.932 . S
H1757 C1739 0.929 . S
H1758 C1740 0.928 . S
H1759 C1742 0.932 . S
C1760 C1761 1.264 . S
C1760 C1765 1.479 . S
C1760 C1770 1.465 . S
C1761 C1760 1.264 . S
C1761 C1763 1.339 . S
C1761 H1788 0.931 . S
C1762 C1763 1.395 . S
C1762 C1764 1.320 . S
C1763 C1761 1.339 . S
C1763 C1762 1.395 . S
C1763 H1789 0.929 . S
C1764 C1762 1.320 . S
C1764 C1765 1.405 . S
C1764 H1790 0.930 . S
C1765 C1760 1.479 . S
C1765 C1764 1.405 . S
C1765 H1791 0.931 . S
U1766 O1767 2.454 . S
U1766 O1768 2.458 . S
U1766 C1769 2.984 . S
U1766 C1770 2.847 . S
U1766 C1783 2.882 . S
U1766 O1784 2.441 . S
U1766 O1785 2.420 . S
U1766 O1786 2.455 . S
U1766 O1787 2.449 . S
O1767 U1766 2.454 . S
O1767 C1769 1.353 . S
O1768 U1766 2.458 . S
O1768 C1769 1.286 . S
C1769 U1766 2.984 . S
C1769 O1767 1.353 . S
C1769 O1768 1.286 . S
C1769 C1771 1.363 . S
C1770 C1760 1.465 . S
C1770 U1766 2.847 . S
C1770 O1784 1.249 . S
C1770 O1785 1.202 . S
C1771 C1769 1.363 . S
C1771 C1773 1.408 . S
C1771 C1776 1.342 . S
C1772 C1773 1.310 . S
C1772 C1775 1.461 . S
C1772 H1792 0.932 . S
C1773 C1771 1.408 . S
C1773 C1772 1.310 . S
C1773 H1793 0.930 . S
C1774 C1775 1.474 . S
C1774 C1776 1.285 . S
C1774 H1794 0.929 . S
C1775 C1772 1.461 . S
C1775 C1774 1.474 . S
C1776 C1771 1.342 . S
C1776 C1774 1.285 . S
C1776 H1795 0.930 . S
C1777 C1780 1.424 . S
C1777 C1782 1.245 . S
C1777 C1783 1.428 . S
C1778 C1781 1.260 . S
C1778 C1782 1.477 . S
C1778 H1796 0.932 . S
C1779 C1780 1.384 . S
C1779 C1781 1.479 . S
C1779 H1797 0.929 . S
C1780 C1777 1.424 . S
C1780 C1779 1.384 . S
C1780 H1798 0.928 . S
C1781 C1778 1.260 . S
C1781 C1779 1.479 . S
C1782 C1777 1.245 . S
C1782 C1778 1.477 . S
C1782 H1799 0.932 . S
C1783 U1766 2.882 . S
C1783 C1777 1.428 . S
C1783 O1786 1.301 . S
C1783 O1787 1.282 . S
O1784 U1766 2.441 . S
O1784 C1770 1.249 . S
O1785 U1766 2.420 . S
O1785 C1770 1.202 . S
O1786 U1766 2.455 . S
O1786 C1783 1.301 . S
O1787 U1766 2.449 . S
O1787 C1783 1.282 . S
H1788 C1761 0.931 . S
H1789 C1763 0.929 . S
H1790 C1764 0.930 . S
H1791 C1765 0.931 . S
H1792 C1772 0.932 . S
H1793 C1773 0.930 . S
H1794 C1774 0.929 . S
H1795 C1776 0.930 . S
H1796 C1778 0.932 . S
H1797 C1779 0.929 . S
H1798 C1780 0.928 . S
H1799 C1782 0.932 . S
C1800 C1801 1.264 . S
C1800 C1805 1.479 . S
C1800 C1810 1.465 . S
C1801 C1800 1.264 . S
C1801 C1803 1.339 . S
C1801 H1828 0.931 . S
C1802 C1803 1.395 . S
C1802 C1804 1.320 . S
C1803 C1801 1.339 . S
C1803 C1802 1.395 . S
C1803 H1829 0.929 . S
C1804 C1802 1.320 . S
C1804 C1805 1.405 . S
C1804 H1830 0.930 . S
C1805 C1800 1.479 . S
C1805 C1804 1.405 . S
C1805 H1831 0.931 . S
U1806 O1807 2.454 . S
U1806 O1808 2.458 . S
U1806 C1809 2.984 . S
U1806 C1810 2.847 . S
U1806 C1823 2.882 . S
U1806 O1824 2.441 . S
U1806 O1825 2.420 . S
U1806 O1826 2.455 . S
U1806 O1827 2.449 . S
O1807 U1806 2.454 . S
O1807 C1809 1.353 . S
O1808 U1806 2.458 . S
O1808 C1809 1.286 . S
C1809 U1806 2.984 . S
C1809 O1807 1.353 . S
C1809 O1808 1.286 . S
C1809 C1811 1.363 . S
C1810 C1800 1.465 . S
C1810 U1806 2.847 . S
C1810 O1824 1.249 . S
C1810 O1825 1.202 . S
C1811 C1809 1.363 . S
C1811 C1813 1.408 . S
C1811 C1816 1.342 . S
C1812 C1813 1.310 . S
C1812 C1815 1.461 . S
C1812 H1832 0.932 . S
C1813 C1811 1.408 . S
C1813 C1812 1.310 . S
C1813 H1833 0.930 . S
C1814 C1815 1.474 . S
C1814 C1816 1.285 . S
C1814 H1834 0.929 . S
C1815 C1812 1.461 . S
C1815 C1814 1.474 . S
C1816 C1811 1.342 . S
C1816 C1814 1.285 . S
C1816 H1835 0.930 . S
C1817 C1820 1.424 . S
C1817 C1822 1.245 . S
C1817 C1823 1.428 . S
C1818 C1821 1.260 . S
C1818 C1822 1.477 . S
C1818 H1836 0.932 . S
C1819 C1820 1.384 . S
C1819 C1821 1.479 . S
C1819 H1837 0.929 . S
C1820 C1817 1.424 . S
C1820 C1819 1.384 . S
C1820 H1838 0.928 . S
C1821 C1818 1.260 . S
C1821 C1819 1.479 . S
C1822 C1817 1.245 . S
C1822 C1818 1.477 . S
C1822 H1839 0.932 . S
C1823 U1806 2.882 . S
C1823 C1817 1.428 . S
C1823 O1826 1.301 . S
C1823 O1827 1.282 . S
O1824 U1806 2.441 . S
O1824 C1810 1.249 . S
O1825 U1806 2.420 . S
O1825 C1810 1.202 . S
O1826 U1806 2.455 . S
O1826 C1823 1.301 . S
O1827 U1806 2.449 . S
O1827 C1823 1.282 . S
H1828 C1801 0.931 . S
H1829 C1803 0.929 . S
H1830 C1804 0.930 . S
H1831 C1805 0.931 . S
H1832 C1812 0.932 . S
H1833 C1813 0.930 . S
H1834 C1814 0.929 . S
H1835 C1816 0.930 . S
H1836 C1818 0.932 . S
H1837 C1819 0.929 . S
H1838 C1820 0.928 . S
H1839 C1822 0.932 . S
C1840 C1841 1.264 . S
C1840 C1845 1.479 . S
C1840 C1850 1.465 . S
C1841 C1840 1.264 . S
C1841 C1843 1.339 . S
C1841 H1868 0.931 . S
C1842 C1843 1.395 . S
C1842 C1844 1.320 . S
C1843 C1841 1.339 . S
C1843 C1842 1.395 . S
C1843 H1869 0.929 . S
C1844 C1842 1.320 . S
C1844 C1845 1.405 . S
C1844 H1870 0.930 . S
C1845 C1840 1.479 . S
C1845 C1844 1.405 . S
C1845 H1871 0.931 . S
U1846 O1847 2.454 . S
U1846 O1848 2.458 . S
U1846 C1849 2.984 . S
U1846 C1850 2.847 . S
U1846 C1863 2.882 . S
U1846 O1864 2.441 . S
U1846 O1865 2.420 . S
U1846 O1866 2.455 . S
U1846 O1867 2.449 . S
O1847 U1846 2.454 . S
O1847 C1849 1.353 . S
O1848 U1846 2.458 . S
O1848 C1849 1.286 . S
C1849 U1846 2.984 . S
C1849 O1847 1.353 . S
C1849 O1848 1.286 . S
C1849 C1851 1.363 . S
C1850 C1840 1.465 . S
C1850 U1846 2.847 . S
C1850 O1864 1.249 . S
C1850 O1865 1.202 . S
C1851 C1849 1.363 . S
C1851 C1853 1.408 . S
C1851 C1856 1.342 . S
C1852 C1853 1.310 . S
C1852 C1855 1.461 . S
C1852 H1872 0.932 . S
C1853 C1851 1.408 . S
C1853 C1852 1.310 . S
C1853 H1873 0.930 . S
C1854 C1855 1.474 . S
C1854 C1856 1.285 . S
C1854 H1874 0.929 . S
C1855 C1852 1.461 . S
C1855 C1854 1.474 . S
C1856 C1851 1.342 . S
C1856 C1854 1.285 . S
C1856 H1875 0.930 . S
C1857 C1860 1.424 . S
C1857 C1862 1.245 . S
C1857 C1863 1.428 . S
C1858 C1861 1.260 . S
C1858 C1862 1.477 . S
C1858 H1876 0.932 . S
C1859 C1860 1.384 . S
C1859 C1861 1.479 . S
C1859 H1877 0.929 . S
C1860 C1857 1.424 . S
C1860 C1859 1.384 . S
C1860 H1878 0.928 . S
C1861 C1858 1.260 . S
C1861 C1859 1.479 . S
C1862 C1857 1.245 . S
C1862 C1858 1.477 . S
C1862 H1879 0.932 . S
C1863 U1846 2.882 . S
C1863 C1857 1.428 . S
C1863 O1866 1.301 . S
C1863 O1867 1.282 . S
O1864 U1846 2.441 . S
O1864 C1850 1.249 . S
O1865 U1846 2.420 . S
O1865 C1850 1.202 . S
O1866 U1846 2.455 . S
O1866 C1863 1.301 . S
O1867 U1846 2.449 . S
O1867 C1863 1.282 . S
H1868 C1841 0.931 . S
H1869 C1843 0.929 . S
H1870 C1844 0.930 . S
H1871 C1845 0.931 . S
H1872 C1852 0.932 . S
H1873 C1853 0.930 . S
H1874 C1854 0.929 . S
H1875 C1856 0.930 . S
H1876 C1858 0.932 . S
H1877 C1859 0.929 . S
H1878 C1860 0.928 . S
H1879 C1862 0.932 . S
C1880 C1881 1.264 . S
C1880 C1885 1.479 . S
C1880 C1890 1.465 . S
C1881 C1880 1.264 . S
C1881 C1883 1.339 . S
C1881 H1908 0.931 . S
C1882 C1883 1.395 . S
C1882 C1884 1.320 . S
C1883 C1881 1.339 . S
C1883 C1882 1.395 . S
C1883 H1909 0.929 . S
C1884 C1882 1.320 . S
C1884 C1885 1.405 . S
C1884 H1910 0.930 . S
C1885 C1880 1.479 . S
C1885 C1884 1.405 . S
C1885 H1911 0.931 . S
U1886 O1887 2.454 . S
U1886 O1888 2.458 . S
U1886 C1889 2.984 . S
U1886 C1890 2.847 . S
U1886 C1903 2.882 . S
U1886 O1904 2.441 . S
U1886 O1905 2.420 . S
U1886 O1906 2.455 . S
U1886 O1907 2.449 . S
O1887 U1886 2.454 . S
O1887 C1889 1.353 . S
O1888 U1886 2.458 . S
O1888 C1889 1.286 . S
C1889 U1886 2.984 . S
C1889 O1887 1.353 . S
C1889 O1888 1.286 . S
C1889 C1891 1.363 . S
C1890 C1880 1.465 . S
C1890 U1886 2.847 . S
C1890 O1904 1.249 . S
C1890 O1905 1.202 . S
C1891 C1889 1.363 . S
C1891 C1893 1.408 . S
C1891 C1896 1.342 . S
C1892 C1893 1.310 . S
C1892 C1895 1.461 . S
C1892 H1912 0.932 . S
C1893 C1891 1.408 . S
C1893 C1892 1.310 . S
C1893 H1913 0.930 . S
C1894 C1895 1.474 . S
C1894 C1896 1.285 . S
C1894 H1914 0.929 . S
C1895 C1892 1.461 . S
C1895 C1894 1.474 . S
C1896 C1891 1.342 . S
C1896 C1894 1.285 . S
C1896 H1915 0.930 . S
C1897 C1900 1.424 . S
C1897 C1902 1.245 . S
C1897 C1903 1.428 . S
C1898 C1901 1.260 . S
C1898 C1902 1.477 . S
C1898 H1916 0.932 . S
C1899 C1900 1.384 . S
C1899 C1901 1.479 . S
C1899 H1917 0.929 . S
C1900 C1897 1.424 . S
C1900 C1899 1.384 . S
C1900 H1918 0.928 . S
C1901 C1898 1.260 . S
C1901 C1899 1.479 . S
C1902 C1897 1.245 . S
C1902 C1898 1.477 . S
C1902 H1919 0.932 . S
C1903 U1886 2.882 . S
C1903 C1897 1.428 . S
C1903 O1906 1.301 . S
C1903 O1907 1.282 . S
O1904 U1886 2.441 . S
O1904 C1890 1.249 . S
O1905 U1886 2.420 . S
O1905 C1890 1.202 . S
O1906 U1886 2.455 . S
O1906 C1903 1.301 . S
O1907 U1886 2.449 . S
O1907 C1903 1.282 . S
H1908 C1881 0.931 . S
H1909 C1883 0.929 . S
H1910 C1884 0.930 . S
H1911 C1885 0.931 . S
H1912 C1892 0.932 . S
H1913 C1893 0.930 . S
H1914 C1894 0.929 . S
H1915 C1896 0.930 . S
H1916 C1898 0.932 . S
H1917 C1899 0.929 . S
H1918 C1900 0.928 . S
H1919 C1902 0.932 . S
C1920 C1921 1.264 . S
C1920 C1925 1.479 . S
C1920 C1930 1.465 . S
C1921 C1920 1.264 . S
C1921 C1923 1.339 . S
C1921 H1948 0.931 . S
C1922 C1923 1.395 . S
C1922 C1924 1.320 . S
C1923 C1921 1.339 . S
C1923 C1922 1.395 . S
C1923 H1949 0.929 . S
C1924 C1922 1.320 . S
C1924 C1925 1.405 . S
C1924 H1950 0.930 . S
C1925 C1920 1.479 . S
C1925 C1924 1.405 . S
C1925 H1951 0.931 . S
U1926 O1927 2.454 . S
U1926 O1928 2.458 . S
U1926 C1929 2.984 . S
U1926 C1930 2.847 . S
U1926 C1943 2.882 . S
U1926 O1944 2.441 . S
U1926 O1945 2.420 . S
U1926 O1946 2.455 . S
U1926 O1947 2.449 . S
O1927 U1926 2.454 . S
O1927 C1929 1.353 . S
O1928 U1926 2.458 . S
O1928 C1929 1.286 . S
C1929 U1926 2.984 . S
C1929 O1927 1.353 . S
C1929 O1928 1.286 . S
C1929 C1931 1.363 . S
C1930 C1920 1.465 . S
C1930 U1926 2.847 . S
C1930 O1944 1.249 . S
C1930 O1945 1.202 . S
C1931 C1929 1.363 . S
C1931 C1933 1.408 . S
C1931 C1936 1.342 . S
C1932 C1933 1.310 . S
C1932 C1935 1.461 . S
C1932 H1952 0.932 . S
C1933 C1931 1.408 . S
C1933 C1932 1.310 . S
C1933 H1953 0.930 . S
C1934 C1935 1.474 . S
C1934 C1936 1.285 . S
C1934 H1954 0.929 . S
C1935 C1932 1.461 . S
C1935 C1934 1.474 . S
C1936 C1931 1.342 . S
C1936 C1934 1.285 . S
C1936 H1955 0.930 . S
C1937 C1940 1.424 . S
C1937 C1942 1.245 . S
C1937 C1943 1.428 . S
C1938 C1941 1.260 . S
C1938 C1942 1.477 . S
C1938 H1956 0.932 . S
C1939 C1940 1.384 . S
C1939 C1941 1.479 . S
C1939 H1957 0.929 . S
C1940 C1937 1.424 . S
C1940 C1939 1.384 . S
C1940 H1958 0.928 . S
C1941 C1938 1.260 . S
C1941 C1939 1.479 . S
C1942 C1937 1.245 . S
C1942 C1938 1.477 . S
C1942 H1959 0.932 . S
C1943 U1926 2.882 . S
C1943 C1937 1.428 . S
C1943 O1946 1.301 . S
C1943 O1947 1.282 . S
O1944 U1926 2.441 . S
O1944 C1930 1.249 . S
O1945 U1926 2.420 . S
O1945 C1930 1.202 . S
O1946 U1926 2.455 . S
O1946 C1943 1.301 . S
O1947 U1926 2.449 . S
O1947 C1943 1.282 . S
H1948 C1921 0.931 . S
H1949 C1923 0.929 . S
H1950 C1924 0.930 . S
H1951 C1925 0.931 . S
H1952 C1932 0.932 . S
H1953 C1933 0.930 . S
H1954 C1934 0.929 . S
H1955 C1936 0.930 . S
H1956 C1938 0.932 . S
H1957 C1939 0.929 . S
H1958 C1940 0.928 . S
H1959 C1942 0.932 . S
C1960 C1961 1.264 . S
C1960 C1965 1.479 . S
C1960 C1970 1.465 . S
C1961 C1960 1.264 . S
C1961 C1963 1.339 . S
C1961 H1988 0.931 . S
C1962 C1963 1.395 . S
C1962 C1964 1.320 . S
C1963 C1961 1.339 . S
C1963 C1962 1.395 . S
C1963 H1989 0.929 . S
C1964 C1962 1.320 . S
C1964 C1965 1.405 . S
C1964 H1990 0.930 . S
C1965 C1960 1.479 . S
C1965 C1964 1.405 . S
C1965 H1991 0.931 . S
U1966 O1967 2.454 . S
U1966 O1968 2.458 . S
U1966 C1969 2.984 . S
U1966 C1970 2.847 . S
U1966 C1983 2.882 . S
U1966 O1984 2.441 . S
U1966 O1985 2.420 . S
U1966 O1986 2.455 . S
U1966 O1987 2.449 . S
O1967 U1966 2.454 . S
O1967 C1969 1.353 . S
O1968 U1966 2.458 . S
O1968 C1969 1.286 . S
C1969 U1966 2.984 . S
C1969 O1967 1.353 . S
C1969 O1968 1.286 . S
C1969 C1971 1.363 . S
C1970 C1960 1.465 . S
C1970 U1966 2.847 . S
C1970 O1984 1.249 . S
C1970 O1985 1.202 . S
C1971 C1969 1.363 . S
C1971 C1973 1.408 . S
C1971 C1976 1.342 . S
C1972 C1973 1.310 . S
C1972 C1975 1.461 . S
C1972 H1992 0.932 . S
C1973 C1971 1.408 . S
C1973 C1972 1.310 . S
C1973 H1993 0.930 . S
C1974 C1975 1.474 . S
C1974 C1976 1.285 . S
C1974 H1994 0.929 . S
C1975 C1972 1.461 . S
C1975 C1974 1.474 . S
C1976 C1971 1.342 . S
C1976 C1974 1.285 . S
C1976 H1995 0.930 . S
C1977 C1980 1.424 . S
C1977 C1982 1.245 . S
C1977 C1983 1.428 . S
C1978 C1981 1.260 . S
C1978 C1982 1.477 . S
C1978 H1996 0.932 . S
C1979 C1980 1.384 . S
C1979 C1981 1.479 . S
C1979 H1997 0.929 . S
C1980 C1977 1.424 . S
C1980 C1979 1.384 . S
C1980 H1998 0.928 . S
C1981 C1978 1.260 . S
C1981 C1979 1.479 . S
C1982 C1977 1.245 . S
C1982 C1978 1.477 . S
C1982 H1999 0.932 . S
C1983 U1966 2.882 . S
C1983 C1977 1.428 . S
C1983 O1986 1.301 . S
C1983 O1987 1.282 . S
O1984 U1966 2.441 . S
O1984 C1970 1.249 . S
O1985 U1966 2.420 . S
O1985 C1970 1.202 . S
O1986 U1966 2.455 . S
O1986 C1983 1.301 . S
O1987 U1966 2.449 . S
O1987 C1983 1.282 . S
H1988 C1961 0.931 . S
H1989 C1963 0.929 . S
H1990 C1964 0.930 . S
H1991 C1965 0.931 . S
H1992 C1972 0.932 . S
H1993 C1973 0.930 . S
H1994 C1974 0.929 . S
H1995 C1976 0.930 . S
H1996 C1978 0.932 . S
H1997 C1979 0.929 . S
H1998 C1980 0.928 . S
H1999 C1982 0.932 . S
C2000 C2001 1.264 . S
C2000 C2005 1.479 . S
C2000 C2010 1.465 . S
C2001 C2000 1.264 . S
C2001 C2003 1.339 . S
C2001 H2028 0.931 . S
C2002 C2003 1.395 . S
C2002 C2004 1.320 . S
C2003 C2001 1.339 . S
C2003 C2002 1.395 . S
C2003 H2029 0.929 . S
C2004 C2002 1.320 . S
C2004 C2005 1.405 . S
C2004 H2030 0.930 . S
C2005 C2000 1.479 . S
C2005 C2004 1.405 . S
C2005 H2031 0.931 . S
U2006 O2007 2.454 . S
U2006 O2008 2.458 . S
U2006 C2009 2.984 . S
U2006 C2010 2.847 . S
U2006 C2023 2.882 . S
U2006 O2024 2.441 . S
U2006 O2025 2.420 . S
U2006 O2026 2.455 . S
U2006 O2027 2.449 . S
O2007 U2006 2.454 . S
O2007 C2009 1.353 . S
O2008 U2006 2.458 . S
O2008 C2009 1.286 . S
C2009 U2006 2.984 . S
C2009 O2007 1.353 . S
C2009 O2008 1.286 . S
C2009 C2011 1.363 . S
C2010 C2000 1.465 . S
C2010 U2006 2.847 . S
C2010 O2024 1.249 . S
C2010 O2025 1.202 . S
C2011 C2009 1.363 . S
C2011 C2013 1.408 . S
C2011 C2016 1.342 . S
C2012 C2013 1.310 . S
C2012 C2015 1.461 . S
C2012 H2032 0.932 . S
C2013 C2011 1.408 . S
C2013 C2012 1.310 . S
C2013 H2033 0.930 . S
C2014 C2015 1.474 . S
C2014 C2016 1.285 . S
C2014 H2034 0.929 . S
C2015 C2012 1.461 . S
C2015 C2014 1.474 . S
C2016 C2011 1.342 . S
C2016 C2014 1.285 . S
C2016 H2035 0.930 . S
C2017 C2020 1.424 . S
C2017 C2022 1.245 . S
C2017 C2023 1.428 . S
C2018 C2021 1.260 . S
C2018 C2022 1.477 . S
C2018 H2036 0.932 . S
C2019 C2020 1.384 . S
C2019 C2021 1.479 . S
C2019 H2037 0.929 . S
C2020 C2017 1.424 . S
C2020 C2019 1.384 . S
C2020 H2038 0.928 . S
C2021 C2018 1.260 . S
C2021 C2019 1.479 . S
C2022 C2017 1.245 . S
C2022 C2018 1.477 . S
C2022 H2039 0.932 . S
C2023 U2006 2.882 . S
C2023 C2017 1.428 . S
C2023 O2026 1.301 . S
C2023 O2027 1.282 . S
O2024 U2006 2.441 . S
O2024 C2010 1.249 . S
O2025 U2006 2.420 . S
O2025 C2010 1.202 . S
O2026 U2006 2.455 . S
O2026 C2023 1.301 . S
O2027 U2006 2.449 . S
O2027 C2023 1.282 . S
H2028 C2001 0.931 . S
H2029 C2003 0.929 . S
H2030 C2004 0.930 . S
H2031 C2005 0.931 . S
H2032 C2012 0.932 . S
H2033 C2013 0.930 . S
H2034 C2014 0.929 . S
H2035 C2016 0.930 . S
H2036 C2018 0.932 . S
H2037 C2019 0.929 . S
H2038 C2020 0.928 . S
H2039 C2022 0.932 . S
C2040 C2041 1.264 . S
C2040 C2045 1.479 . S
C2040 C2050 1.465 . S
C2041 C2040 1.264 . S
C2041 C2043 1.339 . S
C2041 H2068 0.931 . S
C2042 C2043 1.395 . S
C2042 C2044 1.320 . S
C2043 C2041 1.339 . S
C2043 C2042 1.395 . S
C2043 H2069 0.929 . S
C2044 C2042 1.320 . S
C2044 C2045 1.405 . S
C2044 H2070 0.930 . S
C2045 C2040 1.479 . S
C2045 C2044 1.405 . S
C2045 H2071 0.931 . S
U2046 O2047 2.454 . S
U2046 O2048 2.458 . S
U2046 C2049 2.984 . S
U2046 C2050 2.847 . S
U2046 C2063 2.882 . S
U2046 O2064 2.441 . S
U2046 O2065 2.420 . S
U2046 O2066 2.455 . S
U2046 O2067 2.449 . S
O2047 U2046 2.454 . S
O2047 C2049 1.353 . S
O2048 U2046 2.458 . S
O2048 C2049 1.286 . S
C2049 U2046 2.984 . S
C2049 O2047 1.353 . S
C2049 O2048 1.286 . S
C2049 C2051 1.363 . S
C2050 C2040 1.465 . S
C2050 U2046 2.847 . S
C2050 O2064 1.249 . S
C2050 O2065 1.202 . S
C2051 C2049 1.363 . S
C2051 C2053 1.408 . S
C2051 C2056 1.342 . S
C2052 C2053 1.310 . S
C2052 C2055 1.461 . S
C2052 H2072 0.932 . S
C2053 C2051 1.408 . S
C2053 C2052 1.310 . S
C2053 H2073 0.930 . S
C2054 C2055 1.474 . S
C2054 C2056 1.285 . S
C2054 H2074 0.929 . S
C2055 C2052 1.461 . S
C2055 C2054 1.474 . S
C2056 C2051 1.342 . S
C2056 C2054 1.285 . S
C2056 H2075 0.930 . S
C2057 C2060 1.424 . S
C2057 C2062 1.245 . S
C2057 C2063 1.428 . S
C2058 C2061 1.260 . S
C2058 C2062 1.477 . S
C2058 H2076 0.932 . S
C2059 C2060 1.384 . S
C2059 C2061 1.479 . S
C2059 H2077 0.929 . S
C2060 C2057 1.424 . S
C2060 C2059 1.384 . S
C2060 H2078 0.928 . S
C2061 C2058 1.260 . S
C2061 C2059 1.479 . S
C2062 C2057 1.245 . S
C2062 C2058 1.477 . S
C2062 H2079 0.932 . S
C2063 U2046 2.882 . S
C2063 C2057 1.428 . S
C2063 O2066 1.301 . S
C2063 O2067 1.282 . S
O2064 U2046 2.441 . S
O2064 C2050 1.249 . S
O2065 U2046 2.420 . S
O2065 C2050 1.202 . S
O2066 U2046 2.455 . S
O2066 C2063 1.301 . S
O2067 U2046 2.449 . S
O2067 C2063 1.282 . S
H2068 C2041 0.931 . S
H2069 C2043 0.929 . S
H2070 C2044 0.930 . S
H2071 C2045 0.931 . S
H2072 C2052 0.932 . S
H2073 C2053 0.930 . S
H2074 C2054 0.929 . S
H2075 C2056 0.930 . S
H2076 C2058 0.932 . S
H2077 C2059 0.929 . S
H2078 C2060 0.928 . S
H2079 C2062 0.932 . S
C2080 C2081 1.264 . S
C2080 C2085 1.479 . S
C2080 C2090 1.465 . S
C2081 C2080 1.264 . S
C2081 C2083 1.339 . S
C2081 H2108 0.931 . S
C2082 C2083 1.395 . S
C2082 C2084 1.320 . S
C2083 C2081 1.339 . S
C2083 C2082 1.395 . S
C2083 H2109 0.929 . S
C2084 C2082 1.320 . S
C2084 C2085 1.405 . S
C2084 H2110 0.930 . S
C2085 C2080 1.479 . S
C2085 C2084 1.405 . S
C2085 H2111 0.931 . S
U2086 O2087 2.454 . S
U2086 O2088 2.458 . S
U2086 C2089 2.984 . S
U2086 C2090 2.847 . S
U2086 C2103 2.882 . S
U2086 O2104 2.441 . S
U2086 O2105 2.420 . S
U2086 O2106 2.455 . S
U2086 O2107 2.449 . S
O2087 U2086 2.454 . S
O2087 C2089 1.353 . S
O2088 U2086 2.458 . S
O2088 C2089 1.286 . S
C2089 U2086 2.984 . S
C2089 O2087 1.353 . S
C2089 O2088 1.286 . S
C2089 C2091 1.363 . S
C2090 C2080 1.465 . S
C2090 U2086 2.847 . S
C2090 O2104 1.249 . S
C2090 O2105 1.202 . S
C2091 C2089 1.363 . S
C2091 C2093 1.408 . S
C2091 C2096 1.342 . S
C2092 C2093 1.310 . S
C2092 C2095 1.461 . S
C2092 H2112 0.932 . S
C2093 C2091 1.408 . S
C2093 C2092 1.310 . S
C2093 H2113 0.930 . S
C2094 C2095 1.474 . S
C2094 C2096 1.285 . S
C2094 H2114 0.929 . S
C2095 C2092 1.461 . S
C2095 C2094 1.474 . S
C2096 C2091 1.342 . S
C2096 C2094 1.285 . S
C2096 H2115 0.930 . S
C2097 C2100 1.424 . S
C2097 C2102 1.245 . S
C2097 C2103 1.428 . S
C2098 C2101 1.260 . S
C2098 C2102 1.477 . S
C2098 H2116 0.932 . S
C2099 C2100 1.384 . S
C2099 C2101 1.479 . S
C2099 H2117 0.929 . S
C2100 C2097 1.424 . S
C2100 C2099 1.384 . S
C2100 H2118 0.928 . S
C2101 C2098 1.260 . S
C2101 C2099 1.479 . S
C2102 C2097 1.245 . S
C2102 C2098 1.477 . S
C2102 H2119 0.932 . S
C2103 U2086 2.882 . S
C2103 C2097 1.428 . S
C2103 O2106 1.301 . S
C2103 O2107 1.282 . S
O2104 U2086 2.441 . S
O2104 C2090 1.249 . S
O2105 U2086 2.420 . S
O2105 C2090 1.202 . S
O2106 U2086 2.455 . S
O2106 C2103 1.301 . S
O2107 U2086 2.449 . S
O2107 C2103 1.282 . S
H2108 C2081 0.931 . S
H2109 C2083 0.929 . S
H2110 C2084 0.930 . S
H2111 C2085 0.931 . S
H2112 C2092 0.932 . S
H2113 C2093 0.930 . S
H2114 C2094 0.929 . S
H2115 C2096 0.930 . S
H2116 C2098 0.932 . S
H2117 C2099 0.929 . S
H2118 C2100 0.928 . S
H2119 C2102 0.932 . S
C2120 C2121 1.264 . S
C2120 C2125 1.479 . S
C2120 C2130 1.465 . S
C2121 C2120 1.264 . S
C2121 C2123 1.339 . S
C2121 H2148 0.931 . S
C2122 C2123 1.395 . S
C2122 C2124 1.320 . S
C2123 C2121 1.339 . S
C2123 C2122 1.395 . S
C2123 H2149 0.929 . S
C2124 C2122 1.320 . S
C2124 C2125 1.405 . S
C2124 H2150 0.930 . S
C2125 C2120 1.479 . S
C2125 C2124 1.405 . S
C2125 H2151 0.931 . S
U2126 O2127 2.454 . S
U2126 O2128 2.458 . S
U2126 C2129 2.984 . S
U2126 C2130 2.847 . S
U2126 C2143 2.882 . S
U2126 O2144 2.441 . S
U2126 O2145 2.420 . S
U2126 O2146 2.455 . S
U2126 O2147 2.449 . S
O2127 U2126 2.454 . S
O2127 C2129 1.353 . S
O2128 U2126 2.458 . S
O2128 C2129 1.286 . S
C2129 U2126 2.984 . S
C2129 O2127 1.353 . S
C2129 O2128 1.286 . S
C2129 C2131 1.363 . S
C2130 C2120 1.465 . S
C2130 U2126 2.847 . S
C2130 O2144 1.249 . S
C2130 O2145 1.202 . S
C2131 C2129 1.363 . S
C2131 C2133 1.408 . S
C2131 C2136 1.342 . S
C2132 C2133 1.310 . S
C2132 C2135 1.461 . S
C2132 H2152 0.932 . S
C2133 C2131 1.408 . S
C2133 C2132 1.310 . S
C2133 H2153 0.930 . S
C2134 C2135 1.474 . S
C2134 C2136 1.285 . S
C2134 H2154 0.929 . S
C2135 C2132 1.461 . S
C2135 C2134 1.474 . S
C2136 C2131 1.342 . S
C2136 C2134 1.285 . S
C2136 H2155 0.930 . S
C2137 C2140 1.424 . S
C2137 C2142 1.245 . S
C2137 C2143 1.428 . S
C2138 C2141 1.260 . S
C2138 C2142 1.477 . S
C2138 H2156 0.932 . S
C2139 C2140 1.384 . S
C2139 C2141 1.479 . S
C2139 H2157 0.929 . S
C2140 C2137 1.424 . S
C2140 C2139 1.384 . S
C2140 H2158 0.928 . S
C2141 C2138 1.260 . S
C2141 C2139 1.479 . S
C2142 C2137 1.245 . S
C2142 C2138 1.477 . S
C2142 H2159 0.932 . S
C2143 U2126 2.882 . S
C2143 C2137 1.428 . S
C2143 O2146 1.301 . S
C2143 O2147 1.282 . S
O2144 U2126 2.441 . S
O2144 C2130 1.249 . S
O2145 U2126 2.420 . S
O2145 C2130 1.202 . S
O2146 U2126 2.455 . S
O2146 C2143 1.301 . S
O2147 U2126 2.449 . S
O2147 C2143 1.282 . S
H2148 C2121 0.931 . S
H2149 C2123 0.929 . S
H2150 C2124 0.930 . S
H2151 C2125 0.931 . S
H2152 C2132 0.932 . S
H2153 C2133 0.930 . S
H2154 C2134 0.929 . S
H2155 C2136 0.930 . S
H2156 C2138 0.932 . S
H2157 C2139 0.929 . S
H2158 C2140 0.928 . S
H2159 C2142 0.932 . S
C2160 C2161 1.264 . S
C2160 C2165 1.479 . S
C2160 C2170 1.465 . S
C2161 C2160 1.264 . S
C2161 C2163 1.339 . S
C2161 H2188 0.931 . S
C2162 C2163 1.395 . S
C2162 C2164 1.320 . S
C2163 C2161 1.339 . S
C2163 C2162 1.395 . S
C2163 H2189 0.929 . S
C2164 C2162 1.320 . S
C2164 C2165 1.405 . S
C2164 H2190 0.930 . S
C2165 C2160 1.479 . S
C2165 C2164 1.405 . S
C2165 H2191 0.931 . S
U2166 O2167 2.454 . S
U2166 O2168 2.458 . S
U2166 C2169 2.984 . S
U2166 C2170 2.847 . S
U2166 C2183 2.882 . S
U2166 O2184 2.441 . S
U2166 O2185 2.420 . S
U2166 O2186 2.455 . S
U2166 O2187 2.449 . S
O2167 U2166 2.454 . S
O2167 C2169 1.353 . S
O2168 U2166 2.458 . S
O2168 C2169 1.286 . S
C2169 U2166 2.984 . S
C2169 O2167 1.353 . S
C2169 O2168 1.286 . S
C2169 C2171 1.363 . S
C2170 C2160 1.465 . S
C2170 U2166 2.847 . S
C2170 O2184 1.249 . S
C2170 O2185 1.202 . S
C2171 C2169 1.363 . S
C2171 C2173 1.408 . S
C2171 C2176 1.342 . S
C2172 C2173 1.310 . S
C2172 C2175 1.461 . S
C2172 H2192 0.932 . S
C2173 C2171 1.408 . S
C2173 C2172 1.310 . S
C2173 H2193 0.930 . S
C2174 C2175 1.474 . S
C2174 C2176 1.285 . S
C2174 H2194 0.929 . S
C2175 C2172 1.461 . S
C2175 C2174 1.474 . S
C2176 C2171 1.342 . S
C2176 C2174 1.285 . S
C2176 H2195 0.930 . S
C2177 C2180 1.424 . S
C2177 C2182 1.245 . S
C2177 C2183 1.428 . S
C2178 C2181 1.260 . S
C2178 C2182 1.477 . S
C2178 H2196 0.932 . S
C2179 C2180 1.384 . S
C2179 C2181 1.479 . S
C2179 H2197 0.929 . S
C2180 C2177 1.424 . S
C2180 C2179 1.384 . S
C2180 H2198 0.928 . S
C2181 C2178 1.260 . S
C2181 C2179 1.479 . S
C2182 C2177 1.245 . S
C2182 C2178 1.477 . S
C2182 H2199 0.932 . S
C2183 U2166 2.882 . S
C2183 C2177 1.428 . S
C2183 O2186 1.301 . S
C2183 O2187 1.282 . S
O2184 U2166 2.441 . S
O2184 C2170 1.249 . S
O2185 U2166 2.420 . S
O2185 C2170 1.202 . S
O2186 U2166 2.455 . S
O2186 C2183 1.301 . S
O2187 U2166 2.449 . S
O2187 C2183 1.282 . S
H2188 C2161 0.931 . S
H2189 C2163 0.929 . S
H2190 C2164 0.930 . S
H2191 C2165 0.931 . S
H2192 C2172 0.932 . S
H2193 C2173 0.930 . S
H2194 C2174 0.929 . S
H2195 C2176 0.930 . S
H2196 C2178 0.932 . S
H2197 C2179 0.929 . S
H2198 C2180 0.928 . S
H2199 C2182 0.932 . S
C2200 C2201 1.264 . S
C2200 C2205 1.479 . S
C2200 C2210 1.465 . S
C2201 C2200 1.264 . S
C2201 C2203 1.339 . S
C2201 H2228 0.931 . S
C2202 C2203 1.395 . S
C2202 C2204 1.320 . S
C2203 C2201 1.339 . S
C2203 C2202 1.395 . S
C2203 H2229 0.929 . S
C2204 C2202 1.320 . S
C2204 C2205 1.405 . S
C2204 H2230 0.930 . S
C2205 C2200 1.479 . S
C2205 C2204 1.405 . S
C2205 H2231 0.931 . S
U2206 O2207 2.454 . S
U2206 O2208 2.458 . S
U2206 C2209 2.984 . S
U2206 C2210 2.847 . S
U2206 C2223 2.882 . S
U2206 O2224 2.441 . S
U2206 O2225 2.420 . S
U2206 O2226 2.455 . S
U2206 O2227 2.449 . S
O2207 U2206 2.454 . S
O2207 C2209 1.353 . S
O2208 U2206 2.458 . S
O2208 C2209 1.286 . S
C2209 U2206 2.984 . S
C2209 O2207 1.353 . S
C2209 O2208 1.286 . S
C2209 C2211 1.363 . S
C2210 C2200 1.465 . S
C2210 U2206 2.847 . S
C2210 O2224 1.249 . S
C2210 O2225 1.202 . S
C2211 C2209 1.363 . S
C2211 C2213 1.408 . S
C2211 C2216 1.342 . S
C2212 C2213 1.310 . S
C2212 C2215 1.461 . S
C2212 H2232 0.932 . S
C2213 C2211 1.408 . S
C2213 C2212 1.310 . S
C2213 H2233 0.930 . S
C2214 C2215 1.474 . S
C2214 C2216 1.285 . S
C2214 H2234 0.929 . S
C2215 C2212 1.461 . S
C2215 C2214 1.474 . S
C2216 C2211 1.342 . S
C2216 C2214 1.285 . S
C2216 H2235 0.930 . S
C2217 C2220 1.424 . S
C2217 C2222 1.245 . S
C2217 C2223 1.428 . S
C2218 C2221 1.260 . S
C2218 C2222 1.477 . S
C2218 H2236 0.932 . S
C2219 C2220 1.384 . S
C2219 C2221 1.479 . S
C2219 H2237 0.929 . S
C2220 C2217 1.424 . S
C2220 C2219 1.384 . S
C2220 H2238 0.928 . S
C2221 C2218 1.260 . S
C2221 C2219 1.479 . S
C2222 C2217 1.245 . S
C2222 C2218 1.477 . S
C2222 H2239 0.932 . S
C2223 U2206 2.882 . S
C2223 C2217 1.428 . S
C2223 O2226 1.301 . S
C2223 O2227 1.282 . S
O2224 U2206 2.441 . S
O2224 C2210 1.249 . S
O2225 U2206 2.420 . S
O2225 C2210 1.202 . S
O2226 U2206 2.455 . S
O2226 C2223 1.301 . S
O2227 U2206 2.449 . S
O2227 C2223 1.282 . S
H2228 C2201 0.931 . S
H2229 C2203 0.929 . S
H2230 C2204 0.930 . S
H2231 C2205 0.931 . S
H2232 C2212 0.932 . S
H2233 C2213 0.930 . S
H2234 C2214 0.929 . S
H2235 C2216 0.930 . S
H2236 C2218 0.932 . S
H2237 C2219 0.929 . S
H2238 C2220 0.928 . S
H2239 C2222 0.932 . S
C2240 C2241 1.264 . S
C2240 C2245 1.479 . S
C2240 C2250 1.465 . S
C2241 C2240 1.264 . S
C2241 C2243 1.339 . S
C2241 H2268 0.931 . S
C2242 C2243 1.395 . S
C2242 C2244 1.320 . S
C2243 C2241 1.339 . S
C2243 C2242 1.395 . S
C2243 H2269 0.929 . S
C2244 C2242 1.320 . S
C2244 C2245 1.405 . S
C2244 H2270 0.930 . S
C2245 C2240 1.479 . S
C2245 C2244 1.405 . S
C2245 H2271 0.931 . S
U2246 O2247 2.454 . S
U2246 O2248 2.458 . S
U2246 C2249 2.984 . S
U2246 C2250 2.847 . S
U2246 C2263 2.882 . S
U2246 O2264 2.441 . S
U2246 O2265 2.420 . S
U2246 O2266 2.455 . S
U2246 O2267 2.449 . S
O2247 U2246 2.454 . S
O2247 C2249 1.353 . S
O2248 U2246 2.458 . S
O2248 C2249 1.286 . S
C2249 U2246 2.984 . S
C2249 O2247 1.353 . S
C2249 O2248 1.286 . S
C2249 C2251 1.363 . S
C2250 C2240 1.465 . S
C2250 U2246 2.847 . S
C2250 O2264 1.249 . S
C2250 O2265 1.202 . S
C2251 C2249 1.363 . S
C2251 C2253 1.408 . S
C2251 C2256 1.342 . S
C2252 C2253 1.310 . S
C2252 C2255 1.461 . S
C2252 H2272 0.932 . S
C2253 C2251 1.408 . S
C2253 C2252 1.310 . S
C2253 H2273 0.930 . S
C2254 C2255 1.474 . S
C2254 C2256 1.285 . S
C2254 H2274 0.929 . S
C2255 C2252 1.461 . S
C2255 C2254 1.474 . S
C2256 C2251 1.342 . S
C2256 C2254 1.285 . S
C2256 H2275 0.930 . S
C2257 C2260 1.424 . S
C2257 C2262 1.245 . S
C2257 C2263 1.428 . S
C2258 C2261 1.260 . S
C2258 C2262 1.477 . S
C2258 H2276 0.932 . S
C2259 C2260 1.384 . S
C2259 C2261 1.479 . S
C2259 H2277 0.929 . S
C2260 C2257 1.424 . S
C2260 C2259 1.384 . S
C2260 H2278 0.928 . S
C2261 C2258 1.260 . S
C2261 C2259 1.479 . S
C2262 C2257 1.245 . S
C2262 C2258 1.477 . S
C2262 H2279 0.932 . S
C2263 U2246 2.882 . S
C2263 C2257 1.428 . S
C2263 O2266 1.301 . S
C2263 O2267 1.282 . S
O2264 U2246 2.441 . S
O2264 C2250 1.249 . S
O2265 U2246 2.420 . S
O2265 C2250 1.202 . S
O2266 U2246 2.455 . S
O2266 C2263 1.301 . S
O2267 U2246 2.449 . S
O2267 C2263 1.282 . S
H2268 C2241 0.931 . S
H2269 C2243 0.929 . S
H2270 C2244 0.930 . S
H2271 C2245 0.931 . S
H2272 C2252 0.932 . S
H2273 C2253 0.930 . S
H2274 C2254 0.929 . S
H2275 C2256 0.930 . S
H2276 C2258 0.932 . S
H2277 C2259 0.929 . S
H2278 C2260 0.928 . S
H2279 C2262 0.932 . S
C2280 C2281 1.264 . S
C2280 C2285 1.479 . S
C2280 C2290 1.465 . S
C2281 C2280 1.264 . S
C2281 C2283 1.339 . S
C2281 H2308 0.931 . S
C2282 C2283 1.395 . S
C2282 C2284 1.320 . S
C2283 C2281 1.339 . S
C2283 C2282 1.395 . S
C2283 H2309 0.929 . S
C2284 C2282 1.320 . S
C2284 C2285 1.405 . S
C2284 H2310 0.930 . S
C2285 C2280 1.479 . S
C2285 C2284 1.405 . S
C2285 H2311 0.931 . S
U2286 O2287 2.454 . S
U2286 O2288 2.458 . S
U2286 C2289 2.984 . S
U2286 C2290 2.847 . S
U2286 C2303 2.882 . S
U2286 O2304 2.441 . S
U2286 O2305 2.420 . S
U2286 O2306 2.455 . S
U2286 O2307 2.449 . S
O2287 U2286 2.454 . S
O2287 C2289 1.353 . S
O2288 U2286 2.458 . S
O2288 C2289 1.286 . S
C2289 U2286 2.984 . S
C2289 O2287 1.353 . S
C2289 O2288 1.286 . S
C2289 C2291 1.363 . S
C2290 C2280 1.465 . S
C2290 U2286 2.847 . S
C2290 O2304 1.249 . S
C2290 O2305 1.202 . S
C2291 C2289 1.363 . S
C2291 C2293 1.408 . S
C2291 C2296 1.342 . S
C2292 C2293 1.310 . S
C2292 C2295 1.461 . S
C2292 H2312 0.932 . S
C2293 C2291 1.408 . S
C2293 C2292 1.310 . S
C2293 H2313 0.930 . S
C2294 C2295 1.474 . S
C2294 C2296 1.285 . S
C2294 H2314 0.929 . S
C2295 C2292 1.461 . S
C2295 C2294 1.474 . S
C2296 C2291 1.342 . S
C2296 C2294 1.285 . S
C2296 H2315 0.930 . S
C2297 C2300 1.424 . S
C2297 C2302 1.245 . S
C2297 C2303 1.428 . S
C2298 C2301 1.260 . S
C2298 C2302 1.477 . S
C2298 H2316 0.932 . S
C2299 C2300 1.384 . S
C2299 C2301 1.479 . S
C2299 H2317 0.929 . S
C2300 C2297 1.424 . S
C2300 C2299 1.384 . S
C2300 H2318 0.928 . S
C2301 C2298 1.260 . S
C2301 C2299 1.479 . S
C2302 C2297 1.245 . S
C2302 C2298 1.477 . S
C2302 H2319 0.932 . S
C2303 U2286 2.882 . S
C2303 C2297 1.428 . S
C2303 O2306 1.301 . S
C2303 O2307 1.282 . S
O2304 U2286 2.441 . S
O2304 C2290 1.249 . S
O2305 U2286 2.420 . S
O2305 C2290 1.202 . S
O2306 U2286 2.455 . S
O2306 C2303 1.301 . S
O2307 U2286 2.449 . S
O2307 C2303 1.282 . S
H2308 C2281 0.931 . S
H2309 C2283 0.929 . S
H2310 C2284 0.930 . S
H2311 C2285 0.931 . S
H2312 C2292 0.932 . S
H2313 C2293 0.930 . S
H2314 C2294 0.929 . S
H2315 C2296 0.930 . S
H2316 C2298 0.932 . S
H2317 C2299 0.929 . S
H2318 C2300 0.928 . S
H2319 C2302 0.932 . S
C2320 C2321 1.264 . S
C2320 C2325 1.479 . S
C2320 C2330 1.465 . S
C2321 C2320 1.264 . S
C2321 C2323 1.339 . S
C2321 H2348 0.931 . S
C2322 C2323 1.395 . S
C2322 C2324 1.320 . S
C2323 C2321 1.339 . S
C2323 C2322 1.395 . S
C2323 H2349 0.929 . S
C2324 C2322 1.320 . S
C2324 C2325 1.405 . S
C2324 H2350 0.930 . S
C2325 C2320 1.479 . S
C2325 C2324 1.405 . S
C2325 H2351 0.931 . S
U2326 O2327 2.454 . S
U2326 O2328 2.458 . S
U2326 C2329 2.984 . S
U2326 C2330 2.847 . S
U2326 C2343 2.882 . S
U2326 O2344 2.441 . S
U2326 O2345 2.420 . S
U2326 O2346 2.455 . S
U2326 O2347 2.449 . S
O2327 U2326 2.454 . S
O2327 C2329 1.353 . S
O2328 U2326 2.458 . S
O2328 C2329 1.286 . S
C2329 U2326 2.984 . S
C2329 O2327 1.353 . S
C2329 O2328 1.286 . S
C2329 C2331 1.363 . S
C2330 C2320 1.465 . S
C2330 U2326 2.847 . S
C2330 O2344 1.249 . S
C2330 O2345 1.202 . S
C2331 C2329 1.363 . S
C2331 C2333 1.408 . S
C2331 C2336 1.342 . S
C2332 C2333 1.310 . S
C2332 C2335 1.461 . S
C2332 H2352 0.932 . S
C2333 C2331 1.408 . S
C2333 C2332 1.310 . S
C2333 H2353 0.930 . S
C2334 C2335 1.474 . S
C2334 C2336 1.285 . S
C2334 H2354 0.929 . S
C2335 C2332 1.461 . S
C2335 C2334 1.474 . S
C2336 C2331 1.342 . S
C2336 C2334 1.285 . S
C2336 H2355 0.930 . S
C2337 C2340 1.424 . S
C2337 C2342 1.245 . S
C2337 C2343 1.428 . S
C2338 C2341 1.260 . S
C2338 C2342 1.477 . S
C2338 H2356 0.932 . S
C2339 C2340 1.384 . S
C2339 C2341 1.479 . S
C2339 H2357 0.929 . S
C2340 C2337 1.424 . S
C2340 C2339 1.384 . S
C2340 H2358 0.928 . S
C2341 C2338 1.260 . S
C2341 C2339 1.479 . S
C2342 C2337 1.245 . S
C2342 C2338 1.477 . S
C2342 H2359 0.932 . S
C2343 U2326 2.882 . S
C2343 C2337 1.428 . S
C2343 O2346 1.301 . S
C2343 O2347 1.282 . S
O2344 U2326 2.441 . S
O2344 C2330 1.249 . S
O2345 U2326 2.420 . S
O2345 C2330 1.202 . S
O2346 U2326 2.455 . S
O2346 C2343 1.301 . S
O2347 U2326 2.449 . S
O2347 C2343 1.282 . S
H2348 C2321 0.931 . S
H2349 C2323 0.929 . S
H2350 C2324 0.930 . S
H2351 C2325 0.931 . S
H2352 C2332 0.932 . S
H2353 C2333 0.930 . S
H2354 C2334 0.929 . S
H2355 C2336 0.930 . S
H2356 C2338 0.932 . S
H2357 C2339 0.929 . S
H2358 C2340 0.928 . S
H2359 C2342 0.932 . S
C2360 C2361 1.264 . S
C2360 C2365 1.479 . S
C2360 C2370 1.465 . S
C2361 C2360 1.264 . S
C2361 C2363 1.339 . S
C2361 H2388 0.931 . S
C2362 C2363 1.395 . S
C2362 C2364 1.320 . S
C2363 C2361 1.339 . S
C2363 C2362 1.395 . S
C2363 H2389 0.929 . S
C2364 C2362 1.320 . S
C2364 C2365 1.405 . S
C2364 H2390 0.930 . S
C2365 C2360 1.479 . S
C2365 C2364 1.405 . S
C2365 H2391 0.931 . S
U2366 O2367 2.454 . S
U2366 O2368 2.458 . S
U2366 C2369 2.984 . S
U2366 C2370 2.847 . S
U2366 C2383 2.882 . S
U2366 O2384 2.441 . S
U2366 O2385 2.420 . S
U2366 O2386 2.455 . S
U2366 O2387 2.449 . S
O2367 U2366 2.454 . S
O2367 C2369 1.353 . S
O2368 U2366 2.458 . S
O2368 C2369 1.286 . S
C2369 U2366 2.984 . S
C2369 O2367 1.353 . S
C2369 O2368 1.286 . S
C2369 C2371 1.363 . S
C2370 C2360 1.465 . S
C2370 U2366 2.847 . S
C2370 O2384 1.249 . S
C2370 O2385 1.202 . S
C2371 C2369 1.363 . S
C2371 C2373 1.408 . S
C2371 C2376 1.342 . S
C2372 C2373 1.310 . S
C2372 C2375 1.461 . S
C2372 H2392 0.932 . S
C2373 C2371 1.408 . S
C2373 C2372 1.310 . S
C2373 H2393 0.930 . S
C2374 C2375 1.474 . S
C2374 C2376 1.285 . S
C2374 H2394 0.929 . S
C2375 C2372 1.461 . S
C2375 C2374 1.474 . S
C2376 C2371 1.342 . S
C2376 C2374 1.285 . S
C2376 H2395 0.930 . S
C2377 C2380 1.424 . S
C2377 C2382 1.245 . S
C2377 C2383 1.428 . S
C2378 C2381 1.260 . S
C2378 C2382 1.477 . S
C2378 H2396 0.932 . S
C2379 C2380 1.384 . S
C2379 C2381 1.479 . S
C2379 H2397 0.929 . S
C2380 C2377 1.424 . S
C2380 C2379 1.384 . S
C2380 H2398 0.928 . S
C2381 C2378 1.260 . S
C2381 C2379 1.479 . S
C2382 C2377 1.245 . S
C2382 C2378 1.477 . S
C2382 H2399 0.932 . S
C2383 U2366 2.882 . S
C2383 C2377 1.428 . S
C2383 O2386 1.301 . S
C2383 O2387 1.282 . S
O2384 U2366 2.441 . S
O2384 C2370 1.249 . S
O2385 U2366 2.420 . S
O2385 C2370 1.202 . S
O2386 U2366 2.455 . S
O2386 C2383 1.301 . S
O2387 U2366 2.449 . S
O2387 C2383 1.282 . S
H2388 C2361 0.931 . S
H2389 C2363 0.929 . S
H2390 C2364 0.930 . S
H2391 C2365 0.931 . S
H2392 C2372 0.932 . S
H2393 C2373 0.930 . S
H2394 C2374 0.929 . S
H2395 C2376 0.930 . S
H2396 C2378 0.932 . S
H2397 C2379 0.929 . S
H2398 C2380 0.928 . S
H2399 C2382 0.932 . S
C2400 C2401 1.264 . S
C2400 C2405 1.479 . S
C2400 C2410 1.465 . S
C2401 C2400 1.264 . S
C2401 C2403 1.339 . S
C2401 H2428 0.931 . S
C2402 C2403 1.395 . S
C2402 C2404 1.320 . S
C2403 C2401 1.339 . S
C2403 C2402 1.395 . S
C2403 H2429 0.929 . S
C2404 C2402 1.320 . S
C2404 C2405 1.405 . S
C2404 H2430 0.930 . S
C2405 C2400 1.479 . S
C2405 C2404 1.405 . S
C2405 H2431 0.931 . S
U2406 O2407 2.454 . S
U2406 O2408 2.458 . S
U2406 C2409 2.984 . S
U2406 C2410 2.847 . S
U2406 C2423 2.882 . S
U2406 O2424 2.441 . S
U2406 O2425 2.420 . S
U2406 O2426 2.455 . S
U2406 O2427 2.449 . S
O2407 U2406 2.454 . S
O2407 C2409 1.353 . S
O2408 U2406 2.458 . S
O2408 C2409 1.286 . S
C2409 U2406 2.984 . S
C2409 O2407 1.353 . S
C2409 O2408 1.286 . S
C2409 C2411 1.363 . S
C2410 C2400 1.465 . S
C2410 U2406 2.847 . S
C2410 O2424 1.249 . S
C2410 O2425 1.202 . S
C2411 C2409 1.363 . S
C2411 C2413 1.408 . S
C2411 C2416 1.342 . S
C2412 C2413 1.310 . S
C2412 C2415 1.461 . S
C2412 H2432 0.932 . S
C2413 C2411 1.408 . S
C2413 C2412 1.310 . S
C2413 H2433 0.930 . S
C2414 C2415 1.474 . S
C2414 C2416 1.285 . S
C2414 H2434 0.929 . S
C2415 C2412 1.461 . S
C2415 C2414 1.474 . S
C2416 C2411 1.342 . S
C2416 C2414 1.285 . S
C2416 H2435 0.930 . S
C2417 C2420 1.424 . S
C2417 C2422 1.245 . S
C2417 C2423 1.428 . S
C2418 C2421 1.260 . S
C2418 C2422 1.477 . S
C2418 H2436 0.932 . S
C2419 C2420 1.384 . S
C2419 C2421 1.479 . S
C2419 H2437 0.929 . S
C2420 C2417 1.424 . S
C2420 C2419 1.384 . S
C2420 H2438 0.928 . S
C2421 C2418 1.260 . S
C2421 C2419 1.479 . S
C2422 C2417 1.245 . S
C2422 C2418 1.477 . S
C2422 H2439 0.932 . S
C2423 U2406 2.882 . S
C2423 C2417 1.428 . S
C2423 O2426 1.301 . S
C2423 O2427 1.282 . S
O2424 U2406 2.441 . S
O2424 C2410 1.249 . S
O2425 U2406 2.420 . S
O2425 C2410 1.202 . S
O2426 U2406 2.455 . S
O2426 C2423 1.301 . S
O2427 U2406 2.449 . S
O2427 C2423 1.282 . S
H2428 C2401 0.931 . S
H2429 C2403 0.929 . S
H2430 C2404 0.930 . S
H2431 C2405 0.931 . S
H2432 C2412 0.932 . S
H2433 C2413 0.930 . S
H2434 C2414 0.929 . S
H2435 C2416 0.930 . S
H2436 C2418 0.932 . S
H2437 C2419 0.929 . S
H2438 C2420 0.928 . S
H2439 C2422 0.932 . S
C2440 C2441 1.264 . S
C2440 C2445 1.479 . S
C2440 C2450 1.465 . S
C2441 C2440 1.264 . S
C2441 C2443 1.339 . S
C2441 H2468 0.931 . S
C2442 C2443 1.395 . S
C2442 C2444 1.320 . S
C2443 C2441 1.339 . S
C2443 C2442 1.395 . S
C2443 H2469 0.929 . S
C2444 C2442 1.320 . S
C2444 C2445 1.405 . S
C2444 H2470 0.930 . S
C2445 C2440 1.479 . S
C2445 C2444 1.405 . S
C2445 H2471 0.931 . S
U2446 O2447 2.454 . S
U2446 O2448 2.458 . S
U2446 C2449 2.984 . S
U2446 C2450 2.847 . S
U2446 C2463 2.882 . S
U2446 O2464 2.441 . S
U2446 O2465 2.420 . S
U2446 O2466 2.455 . S
U2446 O2467 2.449 . S
O2447 U2446 2.454 . S
O2447 C2449 1.353 . S
O2448 U2446 2.458 . S
O2448 C2449 1.286 . S
C2449 U2446 2.984 . S
C2449 O2447 1.353 . S
C2449 O2448 1.286 . S
C2449 C2451 1.363 . S
C2450 C2440 1.465 . S
C2450 U2446 2.847 . S
C2450 O2464 1.249 . S
C2450 O2465 1.202 . S
C2451 C2449 1.363 . S
C2451 C2453 1.408 . S
C2451 C2456 1.342 . S
C2452 C2453 1.310 . S
C2452 C2455 1.461 . S
C2452 H2472 0.932 . S
C2453 C2451 1.408 . S
C2453 C2452 1.310 . S
C2453 H2473 0.930 . S
C2454 C2455 1.474 . S
C2454 C2456 1.285 . S
C2454 H2474 0.929 . S
C2455 C2452 1.461 . S
C2455 C2454 1.474 . S
C2456 C2451 1.342 . S
C2456 C2454 1.285 . S
C2456 H2475 0.930 . S
C2457 C2460 1.424 . S
C2457 C2462 1.245 . S
C2457 C2463 1.428 . S
C2458 C2461 1.260 . S
C2458 C2462 1.477 . S
C2458 H2476 0.932 . S
C2459 C2460 1.384 . S
C2459 C2461 1.479 . S
C2459 H2477 0.929 . S
C2460 C2457 1.424 . S
C2460 C2459 1.384 . S
C2460 H2478 0.928 . S
C2461 C2458 1.260 . S
C2461 C2459 1.479 . S
C2462 C2457 1.245 . S
C2462 C2458 1.477 . S
C2462 H2479 0.932 . S
C2463 U2446 2.882 . S
C2463 C2457 1.428 . S
C2463 O2466 1.301 . S
C2463 O2467 1.282 . S
O2464 U2446 2.441 . S
O2464 C2450 1.249 . S
O2465 U2446 2.420 . S
O2465 C2450 1.202 . S
O2466 U2446 2.455 . S
O2466 C2463 1.301 . S
O2467 U2446 2.449 . S
O2467 C2463 1.282 . S
H2468 C2441 0.931 . S
H2469 C2443 0.929 . S
H2470 C2444 0.930 . S
H2471 C2445 0.931 . S
H2472 C2452 0.932 . S
H2473 C2453 0.930 . S
H2474 C2454 0.929 . S
H2475 C2456 0.930 . S
H2476 C2458 0.932 . S
H2477 C2459 0.929 . S
H2478 C2460 0.928 . S
H2479 C2462 0.932 . S
C2480 C2481 1.264 . S
C2480 C2485 1.479 . S
C2480 C2490 1.465 . S
C2481 C2480 1.264 . S
C2481 C2483 1.339 . S
C2481 H2508 0.931 . S
C2482 C2483 1.395 . S
C2482 C2484 1.320 . S
C2483 C2481 1.339 . S
C2483 C2482 1.395 . S
C2483 H2509 0.929 . S
C2484 C2482 1.320 . S
C2484 C2485 1.405 . S
C2484 H2510 0.930 . S
C2485 C2480 1.479 . S
C2485 C2484 1.405 . S
C2485 H2511 0.931 . S
U2486 O2487 2.454 . S
U2486 O2488 2.458 . S
U2486 C2489 2.984 . S
U2486 C2490 2.847 . S
U2486 C2503 2.882 . S
U2486 O2504 2.441 . S
U2486 O2505 2.420 . S
U2486 O2506 2.455 . S
U2486 O2507 2.449 . S
O2487 U2486 2.454 . S
O2487 C2489 1.353 . S
O2488 U2486 2.458 . S
O2488 C2489 1.286 . S
C2489 U2486 2.984 . S
C2489 O2487 1.353 . S
C2489 O2488 1.286 . S
C2489 C2491 1.363 . S
C2490 C2480 1.465 . S
C2490 U2486 2.847 . S
C2490 O2504 1.249 . S
C2490 O2505 1.202 . S
C2491 C2489 1.363 . S
C2491 C2493 1.408 . S
C2491 C2496 1.342 . S
C2492 C2493 1.310 . S
C2492 C2495 1.461 . S
C2492 H2512 0.932 . S
C2493 C2491 1.408 . S
C2493 C2492 1.310 . S
C2493 H2513 0.930 . S
C2494 C2495 1.474 . S
C2494 C2496 1.285 . S
C2494 H2514 0.929 . S
C2495 C2492 1.461 . S
C2495 C2494 1.474 . S
C2496 C2491 1.342 . S
C2496 C2494 1.285 . S
C2496 H2515 0.930 . S
C2497 C2500 1.424 . S
C2497 C2502 1.245 . S
C2497 C2503 1.428 . S
C2498 C2501 1.260 . S
C2498 C2502 1.477 . S
C2498 H2516 0.932 . S
C2499 C2500 1.384 . S
C2499 C2501 1.479 . S
C2499 H2517 0.929 . S
C2500 C2497 1.424 . S
C2500 C2499 1.384 . S
C2500 H2518 0.928 . S
C2501 C2498 1.260 . S
C2501 C2499 1.479 . S
C2502 C2497 1.245 . S
C2502 C2498 1.477 . S
C2502 H2519 0.932 . S
C2503 U2486 2.882 . S
C2503 C2497 1.428 . S
C2503 O2506 1.301 . S
C2503 O2507 1.282 . S
O2504 U2486 2.441 . S
O2504 C2490 1.249 . S
O2505 U2486 2.420 . S
O2505 C2490 1.202 . S
O2506 U2486 2.455 . S
O2506 C2503 1.301 . S
O2507 U2486 2.449 . S
O2507 C2503 1.282 . S
H2508 C2481 0.931 . S
H2509 C2483 0.929 . S
H2510 C2484 0.930 . S
H2511 C2485 0.931 . S
H2512 C2492 0.932 . S
H2513 C2493 0.930 . S
H2514 C2494 0.929 . S
H2515 C2496 0.930 . S
H2516 C2498 0.932 . S
H2517 C2499 0.929 . S
H2518 C2500 0.928 . S
H2519 C2502 0.932 . S
C2520 C2521 1.264 . S
C2520 C2525 1.479 . S
C2520 C2530 1.465 . S
C2521 C2520 1.264 . S
C2521 C2523 1.339 . S
C2521 H2548 0.931 . S
C2522 C2523 1.395 . S
C2522 C2524 1.320 . S
C2523 C2521 1.339 . S
C2523 C2522 1.395 . S
C2523 H2549 0.929 . S
C2524 C2522 1.320 . S
C2524 C2525 1.405 . S
C2524 H2550 0.930 . S
C2525 C2520 1.479 . S
C2525 C2524 1.405 . S
C2525 H2551 0.931 . S
U2526 O2527 2.454 . S
U2526 O2528 2.458 . S
U2526 C2529 2.984 . S
U2526 C2530 2.847 . S
U2526 C2543 2.882 . S
U2526 O2544 2.441 . S
U2526 O2545 2.420 . S
U2526 O2546 2.455 . S
U2526 O2547 2.449 . S
O2527 U2526 2.454 . S
O2527 C2529 1.353 . S
O2528 U2526 2.458 . S
O2528 C2529 1.286 . S
C2529 U2526 2.984 . S
C2529 O2527 1.353 . S
C2529 O2528 1.286 . S
C2529 C2531 1.363 . S
C2530 C2520 1.465 . S
C2530 U2526 2.847 . S
C2530 O2544 1.249 . S
C2530 O2545 1.202 . S
C2531 C2529 1.363 . S
C2531 C2533 1.408 . S
C2531 C2536 1.342 . S
C2532 C2533 1.310 . S
C2532 C2535 1.461 . S
C2532 H2552 0.932 . S
C2533 C2531 1.408 . S
C2533 C2532 1.310 . S
C2533 H2553 0.930 . S
C2534 C2535 1.474 . S
C2534 C2536 1.285 . S
C2534 H2554 0.929 . S
C2535 C2532 1.461 . S
C2535 C2534 1.474 . S
C2536 C2531 1.342 . S
C2536 C2534 1.285 . S
C2536 H2555 0.930 . S
C2537 C2540 1.424 . S
C2537 C2542 1.245 . S
C2537 C2543 1.428 . S
C2538 C2541 1.260 . S
C2538 C2542 1.477 . S
C2538 H2556 0.932 . S
C2539 C2540 1.384 . S
C2539 C2541 1.479 . S
C2539 H2557 0.929 . S
C2540 C2537 1.424 . S
C2540 C2539 1.384 . S
C2540 H2558 0.928 . S
C2541 C2538 1.260 . S
C2541 C2539 1.479 . S
C2542 C2537 1.245 . S
C2542 C2538 1.477 . S
C2542 H2559 0.932 . S
C2543 U2526 2.882 . S
C2543 C2537 1.428 . S
C2543 O2546 1.301 . S
C2543 O2547 1.282 . S
O2544 U2526 2.441 . S
O2544 C2530 1.249 . S
O2545 U2526 2.420 . S
O2545 C2530 1.202 . S
O2546 U2526 2.455 . S
O2546 C2543 1.301 . S
O2547 U2526 2.449 . S
O2547 C2543 1.282 . S
H2548 C2521 0.931 . S
H2549 C2523 0.929 . S
H2550 C2524 0.930 . S
H2551 C2525 0.931 . S
H2552 C2532 0.932 . S
H2553 C2533 0.930 . S
H2554 C2534 0.929 . S
H2555 C2536 0.930 . S
H2556 C2538 0.932 . S
H2557 C2539 0.929 . S
H2558 C2540 0.928 . S
H2559 C2542 0.932 . S
C2560 C2561 1.264 . S
C2560 C2565 1.479 . S
C2560 C2570 1.465 . S
C2561 C2560 1.264 . S
C2561 C2563 1.339 . S
C2561 H2588 0.931 . S
C2562 C2563 1.395 . S
C2562 C2564 1.320 . S
C2563 C2561 1.339 . S
C2563 C2562 1.395 . S
C2563 H2589 0.929 . S
C2564 C2562 1.320 . S
C2564 C2565 1.405 . S
C2564 H2590 0.930 . S
C2565 C2560 1.479 . S
C2565 C2564 1.405 . S
C2565 H2591 0.931 . S
U2566 O2567 2.454 . S
U2566 O2568 2.458 . S
U2566 C2569 2.984 . S
U2566 C2570 2.847 . S
U2566 C2583 2.882 . S
U2566 O2584 2.441 . S
U2566 O2585 2.420 . S
U2566 O2586 2.455 . S
U2566 O2587 2.449 . S
O2567 U2566 2.454 . S
O2567 C2569 1.353 . S
O2568 U2566 2.458 . S
O2568 C2569 1.286 . S
C2569 U2566 2.984 . S
C2569 O2567 1.353 . S
C2569 O2568 1.286 . S
C2569 C2571 1.363 . S
C2570 C2560 1.465 . S
C2570 U2566 2.847 . S
C2570 O2584 1.249 . S
C2570 O2585 1.202 . S
C2571 C2569 1.363 . S
C2571 C2573 1.408 . S
C2571 C2576 1.342 . S
C2572 C2573 1.310 . S
C2572 C2575 1.461 . S
C2572 H2592 0.932 . S
C2573 C2571 1.408 . S
C2573 C2572 1.310 . S
C2573 H2593 0.930 . S
C2574 C2575 1.474 . S
C2574 C2576 1.285 . S
C2574 H2594 0.929 . S
C2575 C2572 1.461 . S
C2575 C2574 1.474 . S
C2576 C2571 1.342 . S
C2576 C2574 1.285 . S
C2576 H2595 0.930 . S
C2577 C2580 1.424 . S
C2577 C2582 1.245 . S
C2577 C2583 1.428 . S
C2578 C2581 1.260 . S
C2578 C2582 1.477 . S
C2578 H2596 0.932 . S
C2579 C2580 1.384 . S
C2579 C2581 1.479 . S
C2579 H2597 0.929 . S
C2580 C2577 1.424 . S
C2580 C2579 1.384 . S
C2580 H2598 0.928 . S
C2581 C2578 1.260 . S
C2581 C2579 1.479 . S
C2582 C2577 1.245 . S
C2582 C2578 1.477 . S
C2582 H2599 0.932 . S
C2583 U2566 2.882 . S
C2583 C2577 1.428 . S
C2583 O2586 1.301 . S
C2583 O2587 1.282 . S
O2584 U2566 2.441 . S
O2584 C2570 1.249 . S
O2585 U2566 2.420 . S
O2585 C2570 1.202 . S
O2586 U2566 2.455 . S
O2586 C2583 1.301 . S
O2587 U2566 2.449 . S
O2587 C2583 1.282 . S
H2588 C2561 0.931 . S
H2589 C2563 0.929 . S
H2590 C2564 0.930 . S
H2591 C2565 0.931 . S
H2592 C2572 0.932 . S
H2593 C2573 0.930 . S
H2594 C2574 0.929 . S
H2595 C2576 0.930 . S
H2596 C2578 0.932 . S
H2597 C2579 0.929 . S
H2598 C2580 0.928 . S
H2599 C2582 0.932 . S
C2600 C2601 1.264 . S
C2600 C2605 1.479 . S
C2600 C2610 1.465 . S
C2601 C2600 1.264 . S
C2601 C2603 1.339 . S
C2601 H2628 0.931 . S
C2602 C2603 1.395 . S
C2602 C2604 1.320 . S
C2603 C2601 1.339 . S
C2603 C2602 1.395 . S
C2603 H2629 0.929 . S
C2604 C2602 1.320 . S
C2604 C2605 1.405 . S
C2604 H2630 0.930 . S
C2605 C2600 1.479 . S
C2605 C2604 1.405 . S
C2605 H2631 0.931 . S
U2606 O2607 2.454 . S
U2606 O2608 2.458 . S
U2606 C2609 2.984 . S
U2606 C2610 2.847 . S
U2606 C2623 2.882 . S
U2606 O2624 2.441 . S
U2606 O2625 2.420 . S
U2606 O2626 2.455 . S
U2606 O2627 2.449 . S
O2607 U2606 2.454 . S
O2607 C2609 1.353 . S
O2608 U2606 2.458 . S
O2608 C2609 1.286 . S
C2609 U2606 2.984 . S
C2609 O2607 1.353 . S
C2609 O2608 1.286 . S
C2609 C2611 1.363 . S
C2610 C2600 1.465 . S
C2610 U2606 2.847 . S
C2610 O2624 1.249 . S
C2610 O2625 1.202 . S
C2611 C2609 1.363 . S
C2611 C2613 1.408 . S
C2611 C2616 1.342 . S
C2612 C2613 1.310 . S
C2612 C2615 1.461 . S
C2612 H2632 0.932 . S
C2613 C2611 1.408 . S
C2613 C2612 1.310 . S
C2613 H2633 0.930 . S
C2614 C2615 1.474 . S
C2614 C2616 1.285 . S
C2614 H2634 0.929 . S
C2615 C2612 1.461 . S
C2615 C2614 1.474 . S
C2616 C2611 1.342 . S
C2616 C2614 1.285 . S
C2616 H2635 0.930 . S
C2617 C2620 1.424 . S
C2617 C2622 1.245 . S
C2617 C2623 1.428 . S
C2618 C2621 1.260 . S
C2618 C2622 1.477 . S
C2618 H2636 0.932 . S
C2619 C2620 1.384 . S
C2619 C2621 1.479 . S
C2619 H2637 0.929 . S
C2620 C2617 1.424 . S
C2620 C2619 1.384 . S
C2620 H2638 0.928 . S
C2621 C2618 1.260 . S
C2621 C2619 1.479 . S
C2622 C2617 1.245 . S
C2622 C2618 1.477 . S
C2622 H2639 0.932 . S
C2623 U2606 2.882 . S
C2623 C2617 1.428 . S
C2623 O2626 1.301 . S
C2623 O2627 1.282 . S
O2624 U2606 2.441 . S
O2624 C2610 1.249 . S
O2625 U2606 2.420 . S
O2625 C2610 1.202 . S
O2626 U2606 2.455 . S
O2626 C2623 1.301 . S
O2627 U2606 2.449 . S
O2627 C2623 1.282 . S
H2628 C2601 0.931 . S
H2629 C2603 0.929 . S
H2630 C2604 0.930 . S
H2631 C2605 0.931 . S
H2632 C2612 0.932 . S
H2633 C2613 0.930 . S
H2634 C2614 0.929 . S
H2635 C2616 0.930 . S
H2636 C2618 0.932 . S
H2637 C2619 0.929 . S
H2638 C2620 0.928 . S
H2639 C2622 0.932 . S
C2640 C2641 1.264 . S
C2640 C2645 1.479 . S
C2640 C2650 1.465 . S
C2641 C2640 1.264 . S
C2641 C2643 1.339 . S
C2641 H2668 0.931 . S
C2642 C2643 1.395 . S
C2642 C2644 1.320 . S
C2643 C2641 1.339 . S
C2643 C2642 1.395 . S
C2643 H2669 0.929 . S
C2644 C2642 1.320 . S
C2644 C2645 1.405 . S
C2644 H2670 0.930 . S
C2645 C2640 1.479 . S
C2645 C2644 1.405 . S
C2645 H2671 0.931 . S
U2646 O2647 2.454 . S
U2646 O2648 2.458 . S
U2646 C2649 2.984 . S
U2646 C2650 2.847 . S
U2646 C2663 2.882 . S
U2646 O2664 2.441 . S
U2646 O2665 2.420 . S
U2646 O2666 2.455 . S
U2646 O2667 2.449 . S
O2647 U2646 2.454 . S
O2647 C2649 1.353 . S
O2648 U2646 2.458 . S
O2648 C2649 1.286 . S
C2649 U2646 2.984 . S
C2649 O2647 1.353 . S
C2649 O2648 1.286 . S
C2649 C2651 1.363 . S
C2650 C2640 1.465 . S
C2650 U2646 2.847 . S
C2650 O2664 1.249 . S
C2650 O2665 1.202 . S
C2651 C2649 1.363 . S
C2651 C2653 1.408 . S
C2651 C2656 1.342 . S
C2652 C2653 1.310 . S
C2652 C2655 1.461 . S
C2652 H2672 0.932 . S
C2653 C2651 1.408 . S
C2653 C2652 1.310 . S
C2653 H2673 0.930 . S
C2654 C2655 1.474 . S
C2654 C2656 1.285 . S
C2654 H2674 0.929 . S
C2655 C2652 1.461 . S
C2655 C2654 1.474 . S
C2656 C2651 1.342 . S
C2656 C2654 1.285 . S
C2656 H2675 0.930 . S
C2657 C2660 1.424 . S
C2657 C2662 1.245 . S
C2657 C2663 1.428 . S
C2658 C2661 1.260 . S
C2658 C2662 1.477 . S
C2658 H2676 0.932 . S
C2659 C2660 1.384 . S
C2659 C2661 1.479 . S
C2659 H2677 0.929 . S
C2660 C2657 1.424 . S
C2660 C2659 1.384 . S
C2660 H2678 0.928 . S
C2661 C2658 1.260 . S
C2661 C2659 1.479 . S
C2662 C2657 1.245 . S
C2662 C2658 1.477 . S
C2662 H2679 0.932 . S
C2663 U2646 2.882 . S
C2663 C2657 1.428 . S
C2663 O2666 1.301 . S
C2663 O2667 1.282 . S
O2664 U2646 2.441 . S
O2664 C2650 1.249 . S
O2665 U2646 2.420 . S
O2665 C2650 1.202 . S
O2666 U2646 2.455 . S
O2666 C2663 1.301 . S
O2667 U2646 2.449 . S
O2667 C2663 1.282 . S
H2668 C2641 0.931 . S
H2669 C2643 0.929 . S
H2670 C2644 0.930 . S
H2671 C2645 0.931 . S
H2672 C2652 0.932 . S
H2673 C2653 0.930 . S
H2674 C2654 0.929 . S
H2675 C2656 0.930 . S
H2676 C2658 0.932 . S
H2677 C2659 0.929 . S
H2678 C2660 0.928 . S
H2679 C2662 0.932 . S
C2680 C2681 1.264 . S
C2680 C2685 1.479 . S
C2680 C2690 1.465 . S
C2681 C2680 1.264 . S
C2681 C2683 1.339 . S
C2681 H2708 0.931 . S
C2682 C2683 1.395 . S
C2682 C2684 1.320 . S
C2683 C2681 1.339 . S
C2683 C2682 1.395 . S
C2683 H2709 0.929 . S
C2684 C2682 1.320 . S
C2684 C2685 1.405 . S
C2684 H2710 0.930 . S
C2685 C2680 1.479 . S
C2685 C2684 1.405 . S
C2685 H2711 0.931 . S
U2686 O2687 2.454 . S
U2686 O2688 2.458 . S
U2686 C2689 2.984 . S
U2686 C2690 2.847 . S
U2686 C2703 2.882 . S
U2686 O2704 2.441 . S
U2686 O2705 2.420 . S
U2686 O2706 2.455 . S
U2686 O2707 2.449 . S
O2687 U2686 2.454 . S
O2687 C2689 1.353 . S
O2688 U2686 2.458 . S
O2688 C2689 1.286 . S
C2689 U2686 2.984 . S
C2689 O2687 1.353 . S
C2689 O2688 1.286 . S
C2689 C2691 1.363 . S
C2690 C2680 1.465 . S
C2690 U2686 2.847 . S
C2690 O2704 1.249 . S
C2690 O2705 1.202 . S
C2691 C2689 1.363 . S
C2691 C2693 1.408 . S
C2691 C2696 1.342 . S
C2692 C2693 1.310 . S
C2692 C2695 1.461 . S
C2692 H2712 0.932 . S
C2693 C2691 1.408 . S
C2693 C2692 1.310 . S
C2693 H2713 0.930 . S
C2694 C2695 1.474 . S
C2694 C2696 1.285 . S
C2694 H2714 0.929 . S
C2695 C2692 1.461 . S
C2695 C2694 1.474 . S
C2696 C2691 1.342 . S
C2696 C2694 1.285 . S
C2696 H2715 0.930 . S
C2697 C2700 1.424 . S
C2697 C2702 1.245 . S
C2697 C2703 1.428 . S
C2698 C2701 1.260 . S
C2698 C2702 1.477 . S
C2698 H2716 0.932 . S
C2699 C2700 1.384 . S
C2699 C2701 1.479 . S
C2699 H2717 0.929 . S
C2700 C2697 1.424 . S
C2700 C2699 1.384 . S
C2700 H2718 0.928 . S
C2701 C2698 1.260 . S
C2701 C2699 1.479 . S
C2702 C2697 1.245 . S
C2702 C2698 1.477 . S
C2702 H2719 0.932 . S
C2703 U2686 2.882 . S
C2703 C2697 1.428 . S
C2703 O2706 1.301 . S
C2703 O2707 1.282 . S
O2704 U2686 2.441 . S
O2704 C2690 1.249 . S
O2705 U2686 2.420 . S
O2705 C2690 1.202 . S
O2706 U2686 2.455 . S
O2706 C2703 1.301 . S
O2707 U2686 2.449 . S
O2707 C2703 1.282 . S
H2708 C2681 0.931 . S
H2709 C2683 0.929 . S
H2710 C2684 0.930 . S
H2711 C2685 0.931 . S
H2712 C2692 0.932 . S
H2713 C2693 0.930 . S
H2714 C2694 0.929 . S
H2715 C2696 0.930 . S
H2716 C2698 0.932 . S
H2717 C2699 0.929 . S
H2718 C2700 0.928 . S
H2719 C2702 0.932 . S
C2720 C2721 1.264 . S
C2720 C2725 1.479 . S
C2720 C2730 1.465 . S
C2721 C2720 1.264 . S
C2721 C2723 1.339 . S
C2721 H2748 0.931 . S
C2722 C2723 1.395 . S
C2722 C2724 1.320 . S
C2723 C2721 1.339 . S
C2723 C2722 1.395 . S
C2723 H2749 0.929 . S
C2724 C2722 1.320 . S
C2724 C2725 1.405 . S
C2724 H2750 0.930 . S
C2725 C2720 1.479 . S
C2725 C2724 1.405 . S
C2725 H2751 0.931 . S
U2726 O2727 2.454 . S
U2726 O2728 2.458 . S
U2726 C2729 2.984 . S
U2726 C2730 2.847 . S
U2726 C2743 2.882 . S
U2726 O2744 2.441 . S
U2726 O2745 2.420 . S
U2726 O2746 2.455 . S
U2726 O2747 2.449 . S
O2727 U2726 2.454 . S
O2727 C2729 1.353 . S
O2728 U2726 2.458 . S
O2728 C2729 1.286 . S
C2729 U2726 2.984 . S
C2729 O2727 1.353 . S
C2729 O2728 1.286 . S
C2729 C2731 1.363 . S
C2730 C2720 1.465 . S
C2730 U2726 2.847 . S
C2730 O2744 1.249 . S
C2730 O2745 1.202 . S
C2731 C2729 1.363 . S
C2731 C2733 1.408 . S
C2731 C2736 1.342 . S
C2732 C2733 1.310 . S
C2732 C2735 1.461 . S
C2732 H2752 0.932 . S
C2733 C2731 1.408 . S
C2733 C2732 1.310 . S
C2733 H2753 0.930 . S
C2734 C2735 1.474 . S
C2734 C2736 1.285 . S
C2734 H2754 0.929 . S
C2735 C2732 1.461 . S
C2735 C2734 1.474 . S
C2736 C2731 1.342 . S
C2736 C2734 1.285 . S
C2736 H2755 0.930 . S
C2737 C2740 1.424 . S
C2737 C2742 1.245 . S
C2737 C2743 1.428 . S
C2738 C2741 1.260 . S
C2738 C2742 1.477 . S
C2738 H2756 0.932 . S
C2739 C2740 1.384 . S
C2739 C2741 1.479 . S
C2739 H2757 0.929 . S
C2740 C2737 1.424 . S
C2740 C2739 1.384 . S
C2740 H2758 0.928 . S
C2741 C2738 1.260 . S
C2741 C2739 1.479 . S
C2742 C2737 1.245 . S
C2742 C2738 1.477 . S
C2742 H2759 0.932 . S
C2743 U2726 2.882 . S
C2743 C2737 1.428 . S
C2743 O2746 1.301 . S
C2743 O2747 1.282 . S
O2744 U2726 2.441 . S
O2744 C2730 1.249 . S
O2745 U2726 2.420 . S
O2745 C2730 1.202 . S
O2746 U2726 2.455 . S
O2746 C2743 1.301 . S
O2747 U2726 2.449 . S
O2747 C2743 1.282 . S
H2748 C2721 0.931 . S
H2749 C2723 0.929 . S
H2750 C2724 0.930 . S
H2751 C2725 0.931 . S
H2752 C2732 0.932 . S
H2753 C2733 0.930 . S
H2754 C2734 0.929 . S
H2755 C2736 0.930 . S
H2756 C2738 0.932 . S
H2757 C2739 0.929 . S
H2758 C2740 0.928 . S
H2759 C2742 0.932 . S
C2760 C2761 1.264 . S
C2760 C2765 1.479 . S
C2760 C2770 1.465 . S
C2761 C2760 1.264 . S
C2761 C2763 1.339 . S
C2761 H2788 0.931 . S
C2762 C2763 1.395 . S
C2762 C2764 1.320 . S
C2763 C2761 1.339 . S
C2763 C2762 1.395 . S
C2763 H2789 0.929 . S
C2764 C2762 1.320 . S
C2764 C2765 1.405 . S
C2764 H2790 0.930 . S
C2765 C2760 1.479 . S
C2765 C2764 1.405 . S
C2765 H2791 0.931 . S
U2766 O2767 2.454 . S
U2766 O2768 2.458 . S
U2766 C2769 2.984 . S
U2766 C2770 2.847 . S
U2766 C2783 2.882 . S
U2766 O2784 2.441 . S
U2766 O2785 2.420 . S
U2766 O2786 2.455 . S
U2766 O2787 2.449 . S
O2767 U2766 2.454 . S
O2767 C2769 1.353 . S
O2768 U2766 2.458 . S
O2768 C2769 1.286 . S
C2769 U2766 2.984 . S
C2769 O2767 1.353 . S
C2769 O2768 1.286 . S
C2769 C2771 1.363 . S
C2770 C2760 1.465 . S
C2770 U2766 2.847 . S
C2770 O2784 1.249 . S
C2770 O2785 1.202 . S
C2771 C2769 1.363 . S
C2771 C2773 1.408 . S
C2771 C2776 1.342 . S
C2772 C2773 1.310 . S
C2772 C2775 1.461 . S
C2772 H2792 0.932 . S
C2773 C2771 1.408 . S
C2773 C2772 1.310 . S
C2773 H2793 0.930 . S
C2774 C2775 1.474 . S
C2774 C2776 1.285 . S
C2774 H2794 0.929 . S
C2775 C2772 1.461 . S
C2775 C2774 1.474 . S
C2776 C2771 1.342 . S
C2776 C2774 1.285 . S
C2776 H2795 0.930 . S
C2777 C2780 1.424 . S
C2777 C2782 1.245 . S
C2777 C2783 1.428 . S
C2778 C2781 1.260 . S
C2778 C2782 1.477 . S
C2778 H2796 0.932 . S
C2779 C2780 1.384 . S
C2779 C2781 1.479 . S
C2779 H2797 0.929 . S
C2780 C2777 1.424 . S
C2780 C2779 1.384 . S
C2780 H2798 0.928 . S
C2781 C2778 1.260 . S
C2781 C2779 1.479 . S
C2782 C2777 1.245 . S
C2782 C2778 1.477 . S
C2782 H2799 0.932 . S
C2783 U2766 2.882 . S
C2783 C2777 1.428 . S
C2783 O2786 1.301 . S
C2783 O2787 1.282 . S
O2784 U2766 2.441 . S
O2784 C2770 1.249 . S
O2785 U2766 2.420 . S
O2785 C2770 1.202 . S
O2786 U2766 2.455 . S
O2786 C2783 1.301 . S
O2787 U2766 2.449 . S
O2787 C2783 1.282 . S
H2788 C2761 0.931 . S
H2789 C2763 0.929 . S
H2790 C2764 0.930 . S
H2791 C2765 0.931 . S
H2792 C2772 0.932 . S
H2793 C2773 0.930 . S
H2794 C2774 0.929 . S
H2795 C2776 0.930 . S
H2796 C2778 0.932 . S
H2797 C2779 0.929 . S
H2798 C2780 0.928 . S
H2799 C2782 0.932 . S
C2800 C2801 1.264 . S
C2800 C2805 1.479 . S
C2800 C2810 1.465 . S
C2801 C2800 1.264 . S
C2801 C2803 1.339 . S
C2801 H2828 0.931 . S
C2802 C2803 1.395 . S
C2802 C2804 1.320 . S
C2803 C2801 1.339 . S
C2803 C2802 1.395 . S
C2803 H2829 0.929 . S
C2804 C2802 1.320 . S
C2804 C2805 1.405 . S
C2804 H2830 0.930 . S
C2805 C2800 1.479 . S
C2805 C2804 1.405 . S
C2805 H2831 0.931 . S
U2806 O2807 2.454 . S
U2806 O2808 2.458 . S
U2806 C2809 2.984 . S
U2806 C2810 2.847 . S
U2806 C2823 2.882 . S
U2806 O2824 2.441 . S
U2806 O2825 2.420 . S
U2806 O2826 2.455 . S
U2806 O2827 2.449 . S
O2807 U2806 2.454 . S
O2807 C2809 1.353 . S
O2808 U2806 2.458 . S
O2808 C2809 1.286 . S
C2809 U2806 2.984 . S
C2809 O2807 1.353 . S
C2809 O2808 1.286 . S
C2809 C2811 1.363 . S
C2810 C2800 1.465 . S
C2810 U2806 2.847 . S
C2810 O2824 1.249 . S
C2810 O2825 1.202 . S
C2811 C2809 1.363 . S
C2811 C2813 1.408 . S
C2811 C2816 1.342 . S
C2812 C2813 1.310 . S
C2812 C2815 1.461 . S
C2812 H2832 0.932 . S
C2813 C2811 1.408 . S
C2813 C2812 1.310 . S
C2813 H2833 0.930 . S
C2814 C2815 1.474 . S
C2814 C2816 1.285 . S
C2814 H2834 0.929 . S
C2815 C2812 1.461 . S
C2815 C2814 1.474 . S
C2816 C2811 1.342 . S
C2816 C2814 1.285 . S
C2816 H2835 0.930 . S
C2817 C2820 1.424 . S
C2817 C2822 1.245 . S
C2817 C2823 1.428 . S
C2818 C2821 1.260 . S
C2818 C2822 1.477 . S
C2818 H2836 0.932 . S
C2819 C2820 1.384 . S
C2819 C2821 1.479 . S
C2819 H2837 0.929 . S
C2820 C2817 1.424 . S
C2820 C2819 1.384 . S
C2820 H2838 0.928 . S
C2821 C2818 1.260 . S
C2821 C2819 1.479 . S
C2822 C2817 1.245 . S
C2822 C2818 1.477 . S
C2822 H2839 0.932 . S
C2823 U2806 2.882 . S
C2823 C2817 1.428 . S
C2823 O2826 1.301 . S
C2823 O2827 1.282 . S
O2824 U2806 2.441 . S
O2824 C2810 1.249 . S
O2825 U2806 2.420 . S
O2825 C2810 1.202 . S
O2826 U2806 2.455 . S
O2826 C2823 1.301 . S
O2827 U2806 2.449 . S
O2827 C2823 1.282 . S
H2828 C2801 0.931 . S
H2829 C2803 0.929 . S
H2830 C2804 0.930 . S
H2831 C2805 0.931 . S
H2832 C2812 0.932 . S
H2833 C2813 0.930 . S
H2834 C2814 0.929 . S
H2835 C2816 0.930 . S
H2836 C2818 0.932 . S
H2837 C2819 0.929 . S
H2838 C2820 0.928 . S
H2839 C2822 0.932 . S
C2840 C2841 1.264 . S
C2840 C2845 1.479 . S
C2840 C2850 1.465 . S
C2841 C2840 1.264 . S
C2841 C2843 1.339 . S
C2841 H2868 0.931 . S
C2842 C2843 1.395 . S
C2842 C2844 1.320 . S
C2843 C2841 1.339 . S
C2843 C2842 1.395 . S
C2843 H2869 0.929 . S
C2844 C2842 1.320 . S
C2844 C2845 1.405 . S
C2844 H2870 0.930 . S
C2845 C2840 1.479 . S
C2845 C2844 1.405 . S
C2845 H2871 0.931 . S
U2846 O2847 2.454 . S
U2846 O2848 2.458 . S
U2846 C2849 2.984 . S
U2846 C2850 2.847 . S
U2846 C2863 2.882 . S
U2846 O2864 2.441 . S
U2846 O2865 2.420 . S
U2846 O2866 2.455 . S
U2846 O2867 2.449 . S
O2847 U2846 2.454 . S
O2847 C2849 1.353 . S
O2848 U2846 2.458 . S
O2848 C2849 1.286 . S
C2849 U2846 2.984 . S
C2849 O2847 1.353 . S
C2849 O2848 1.286 . S
C2849 C2851 1.363 . S
C2850 C2840 1.465 . S
C2850 U2846 2.847 . S
C2850 O2864 1.249 . S
C2850 O2865 1.202 . S
C2851 C2849 1.363 . S
C2851 C2853 1.408 . S
C2851 C2856 1.342 . S
C2852 C2853 1.310 . S
C2852 C2855 1.461 . S
C2852 H2872 0.932 . S
C2853 C2851 1.408 . S
C2853 C2852 1.310 . S
C2853 H2873 0.930 . S
C2854 C2855 1.474 . S
C2854 C2856 1.285 . S
C2854 H2874 0.929 . S
C2855 C2852 1.461 . S
C2855 C2854 1.474 . S
C2856 C2851 1.342 . S
C2856 C2854 1.285 . S
C2856 H2875 0.930 . S
C2857 C2860 1.424 . S
C2857 C2862 1.245 . S
C2857 C2863 1.428 . S
C2858 C2861 1.260 . S
C2858 C2862 1.477 . S
C2858 H2876 0.932 . S
C2859 C2860 1.384 . S
C2859 C2861 1.479 . S
C2859 H2877 0.929 . S
C2860 C2857 1.424 . S
C2860 C2859 1.384 . S
C2860 H2878 0.928 . S
C2861 C2858 1.260 . S
C2861 C2859 1.479 . S
C2862 C2857 1.245 . S
C2862 C2858 1.477 . S
C2862 H2879 0.932 . S
C2863 U2846 2.882 . S
C2863 C2857 1.428 . S
C2863 O2866 1.301 . S
C2863 O2867 1.282 . S
O2864 U2846 2.441 . S
O2864 C2850 1.249 . S
O2865 U2846 2.420 . S
O2865 C2850 1.202 . S
O2866 U2846 2.455 . S
O2866 C2863 1.301 . S
O2867 U2846 2.449 . S
O2867 C2863 1.282 . S
H2868 C2841 0.931 . S
H2869 C2843 0.929 . S
H2870 C2844 0.930 . S
H2871 C2845 0.931 . S
H2872 C2852 0.932 . S
H2873 C2853 0.930 . S
H2874 C2854 0.929 . S
H2875 C2856 0.930 . S
H2876 C2858 0.932 . S
H2877 C2859 0.929 . S
H2878 C2860 0.928 . S
H2879 C2862 0.932 . S
C2880 C2881 1.264 . S
C2880 C2885 1.479 . S
C2880 C2890 1.465 . S
C2881 C2880 1.264 . S
C2881 C2883 1.339 . S
C2881 H2908 0.931 . S
C2882 C2883 1.395 . S
C2882 C2884 1.320 . S
C2883 C2881 1.339 . S
C2883 C2882 1.395 . S
C2883 H2909 0.929 . S
C2884 C2882 1.320 . S
C2884 C2885 1.405 . S
C2884 H2910 0.930 . S
C2885 C2880 1.479 . S
C2885 C2884 1.405 . S
C2885 H2911 0.931 . S
U2886 O2887 2.454 . S
U2886 O2888 2.458 . S
U2886 C2889 2.984 . S
U2886 C2890 2.847 . S
U2886 C2903 2.882 . S
U2886 O2904 2.441 . S
U2886 O2905 2.420 . S
U2886 O2906 2.455 . S
U2886 O2907 2.449 . S
O2887 U2886 2.454 . S
O2887 C2889 1.353 . S
O2888 U2886 2.458 . S
O2888 C2889 1.286 . S
C2889 U2886 2.984 . S
C2889 O2887 1.353 . S
C2889 O2888 1.286 . S
C2889 C2891 1.363 . S
C2890 C2880 1.465 . S
C2890 U2886 2.847 . S
C2890 O2904 1.249 . S
C2890 O2905 1.202 . S
C2891 C2889 1.363 . S
C2891 C2893 1.408 . S
C2891 C2896 1.342 . S
C2892 C2893 1.310 . S
C2892 C2895 1.461 . S
C2892 H2912 0.932 . S
C2893 C2891 1.408 . S
C2893 C2892 1.310 . S
C2893 H2913 0.930 . S
C2894 C2895 1.474 . S
C2894 C2896 1.285 . S
C2894 H2914 0.929 . S
C2895 C2892 1.461 . S
C2895 C2894 1.474 . S
C2896 C2891 1.342 . S
C2896 C2894 1.285 . S
C2896 H2915 0.930 . S
C2897 C2900 1.424 . S
C2897 C2902 1.245 . S
C2897 C2903 1.428 . S
C2898 C2901 1.260 . S
C2898 C2902 1.477 . S
C2898 H2916 0.932 . S
C2899 C2900 1.384 . S
C2899 C2901 1.479 . S
C2899 H2917 0.929 . S
C2900 C2897 1.424 . S
C2900 C2899 1.384 . S
C2900 H2918 0.928 . S
C2901 C2898 1.260 . S
C2901 C2899 1.479 . S
C2902 C2897 1.245 . S
C2902 C2898 1.477 . S
C2902 H2919 0.932 . S
C2903 U2886 2.882 . S
C2903 C2897 1.428 . S
C2903 O2906 1.301 . S
C2903 O2907 1.282 . S
O2904 U2886 2.441 . S
O2904 C2890 1.249 . S
O2905 U2886 2.420 . S
O2905 C2890 1.202 . S
O2906 U2886 2.455 . S
O2906 C2903 1.301 . S
O2907 U2886 2.449 . S
O2907 C2903 1.282 . S
H2908 C2881 0.931 . S
H2909 C2883 0.929 . S
H2910 C2884 0.930 . S
H2911 C2885 0.931 . S
H2912 C2892 0.932 . S
H2913 C2893 0.930 . S
H2914 C2894 0.929 . S
H2915 C2896 0.930 . S
H2916 C2898 0.932 . S
H2917 C2899 0.929 . S
H2918 C2900 0.928 . S
H2919 C2902 0.932 . S
C2920 C2921 1.264 . S
C2920 C2925 1.479 . S
C2920 C2930 1.465 . S
C2921 C2920 1.264 . S
C2921 C2923 1.339 . S
C2921 H2948 0.931 . S
C2922 C2923 1.395 . S
C2922 C2924 1.320 . S
C2923 C2921 1.339 . S
C2923 C2922 1.395 . S
C2923 H2949 0.929 . S
C2924 C2922 1.320 . S
C2924 C2925 1.405 . S
C2924 H2950 0.930 . S
C2925 C2920 1.479 . S
C2925 C2924 1.405 . S
C2925 H2951 0.931 . S
U2926 O2927 2.454 . S
U2926 O2928 2.458 . S
U2926 C2929 2.984 . S
U2926 C2930 2.847 . S
U2926 C2943 2.882 . S
U2926 O2944 2.441 . S
U2926 O2945 2.420 . S
U2926 O2946 2.455 . S
U2926 O2947 2.449 . S
O2927 U2926 2.454 . S
O2927 C2929 1.353 . S
O2928 U2926 2.458 . S
O2928 C2929 1.286 . S
C2929 U2926 2.984 . S
C2929 O2927 1.353 . S
C2929 O2928 1.286 . S
C2929 C2931 1.363 . S
C2930 C2920 1.465 . S
C2930 U2926 2.847 . S
C2930 O2944 1.249 . S
C2930 O2945 1.202 . S
C2931 C2929 1.363 . S
C2931 C2933 1.408 . S
C2931 C2936 1.342 . S
C2932 C2933 1.310 . S
C2932 C2935 1.461 . S
C2932 H2952 0.932 . S
C2933 C2931 1.408 . S
C2933 C2932 1.310 . S
C2933 H2953 0.930 . S
C2934 C2935 1.474 . S
C2934 C2936 1.285 . S
C2934 H2954 0.929 . S
C2935 C2932 1.461 . S
C2935 C2934 1.474 . S
C2936 C2931 1.342 . S
C2936 C2934 1.285 . S
C2936 H2955 0.930 . S
C2937 C2940 1.424 . S
C2937 C2942 1.245 . S
C2937 C2943 1.428 . S
C2938 C2941 1.260 . S
C2938 C2942 1.477 . S
C2938 H2956 0.932 . S
C2939 C2940 1.384 . S
C2939 C2941 1.479 . S
C2939 H2957 0.929 . S
C2940 C2937 1.424 . S
C2940 C2939 1.384 . S
C2940 H2958 0.928 . S
C2941 C2938 1.260 . S
C2941 C2939 1.479 . S
C2942 C2937 1.245 . S
C2942 C2938 1.477 . S
C2942 H2959 0.932 . S
C2943 U2926 2.882 . S
C2943 C2937 1.428 . S
C2943 O2946 1.301 . S
C2943 O2947 1.282 . S
O2944 U2926 2.441 . S
O2944 C2930 1.249 . S
O2945 U2926 2.420 . S
O2945 C2930 1.202 . S
O2946 U2926 2.455 . S
O2946 C2943 1.301 . S
O2947 U2926 2.449 . S
O2947 C2943 1.282 . S
H2948 C2921 0.931 . S
H2949 C2923 0.929 . S
H2950 C2924 0.930 . S
H2951 C2925 0.931 . S
H2952 C2932 0.932 . S
H2953 C2933 0.930 . S
H2954 C2934 0.929 . S
H2955 C2936 0.930 . S
H2956 C2938 0.932 . S
H2957 C2939 0.929 . S
H2958 C2940 0.928 . S
H2959 C2942 0.932 . S
C2960 C2961 1.264 . S
C2960 C2965 1.479 . S
C2960 C2970 1.465 . S
C2961 C2960 1.264 . S
C2961 C2963 1.339 . S
C2961 H2988 0.931 . S
C2962 C2963 1.395 . S
C2962 C2964 1.320 . S
C2963 C2961 1.339 . S
C2963 C2962 1.395 . S
C2963 H2989 0.929 . S
C2964 C2962 1.320 . S
C2964 C2965 1.405 . S
C2964 H2990 0.930 . S
C2965 C2960 1.479 . S
C2965 C2964 1.405 . S
C2965 H2991 0.931 . S
U2966 O2967 2.454 . S
U2966 O2968 2.458 . S
U2966 C2969 2.984 . S
U2966 C2970 2.847 . S
U2966 C2983 2.882 . S
U2966 O2984 2.441 . S
U2966 O2985 2.420 . S
U2966 O2986 2.455 . S
U2966 O2987 2.449 . S
O2967 U2966 2.454 . S
O2967 C2969 1.353 . S
O2968 U2966 2.458 . S
O2968 C2969 1.286 . S
C2969 U2966 2.984 . S
C2969 O2967 1.353 . S
C2969 O2968 1.286 . S
C2969 C2971 1.363 . S
C2970 C2960 1.465 . S
C2970 U2966 2.847 . S
C2970 O2984 1.249 . S
C2970 O2985 1.202 . S
C2971 C2969 1.363 . S
C2971 C2973 1.408 . S
C2971 C2976 1.342 . S
C2972 C2973 1.310 . S
C2972 C2975 1.461 . S
C2972 H2992 0.932 . S
C2973 C2971 1.408 . S
C2973 C2972 1.310 . S
C2973 H2993 0.930 . S
C2974 C2975 1.474 . S
C2974 C2976 1.285 . S
C2974 H2994 0.929 . S
C2975 C2972 1.461 . S
C2975 C2974 1.474 . S
C2976 C2971 1.342 . S
C2976 C2974 1.285 . S
C2976 H2995 0.930 . S
C2977 C2980 1.424 . S
C2977 C2982 1.245 . S
C2977 C2983 1.428 . S
C2978 C2981 1.260 . S
C2978 C2982 1.477 . S
C2978 H2996 0.932 . S
C2979 C2980 1.384 . S
C2979 C2981 1.479 . S
C2979 H2997 0.929 . S
C2980 C2977 1.424 . S
C2980 C2979 1.384 . S
C2980 H2998 0.928 . S
C2981 C2978 1.260 . S
C2981 C2979 1.479 . S
C2982 C2977 1.245 . S
C2982 C2978 1.477 . S
C2982 H2999 0.932 . S
C2983 U2966 2.882 . S
C2983 C2977 1.428 . S
C2983 O2986 1.301 . S
C2983 O2987 1.282 . S
O2984 U2966 2.441 . S
O2984 C2970 1.249 . S
O2985 U2966 2.420 . S
O2985 C2970 1.202 . S
O2986 U2966 2.455 . S
O2986 C2983 1.301 . S
O2987 U2966 2.449 . S
O2987 C2983 1.282 . S
H2988 C2961 0.931 . S
H2989 C2963 0.929 . S
H2990 C2964 0.930 . S
H2991 C2965 0.931 . S
H2992 C2972 0.932 . S
H2993 C2973 0.930 . S
H2994 C2974 0.929 . S
H2995 C2976 0.930 . S
H2996 C2978 0.932 . S
H2997 C2979 0.929 . S
H2998 C2980 0.928 . S
H2999 C2982 0.932 . S
C3000 C3001 1.264 . S
C3000 C3005 1.479 . S
C3000 C3010 1.465 . S
C3001 C3000 1.264 . S
C3001 C3003 1.339 . S
C3001 H3028 0.931 . S
C3002 C3003 1.395 . S
C3002 C3004 1.320 . S
C3003 C3001 1.339 . S
C3003 C3002 1.395 . S
C3003 H3029 0.929 . S
C3004 C3002 1.320 . S
C3004 C3005 1.405 . S
C3004 H3030 0.930 . S
C3005 C3000 1.479 . S
C3005 C3004 1.405 . S
C3005 H3031 0.931 . S
U3006 O3007 2.454 . S
U3006 O3008 2.458 . S
U3006 C3009 2.984 . S
U3006 C3010 2.847 . S
U3006 C3023 2.882 . S
U3006 O3024 2.441 . S
U3006 O3025 2.420 . S
U3006 O3026 2.455 . S
U3006 O3027 2.449 . S
O3007 U3006 2.454 . S
O3007 C3009 1.353 . S
O3008 U3006 2.458 . S
O3008 C3009 1.286 . S
C3009 U3006 2.984 . S
C3009 O3007 1.353 . S
C3009 O3008 1.286 . S
C3009 C3011 1.363 . S
C3010 C3000 1.465 . S
C3010 U3006 2.847 . S
C3010 O3024 1.249 . S
C3010 O3025 1.202 . S
C3011 C3009 1.363 . S
C3011 C3013 1.408 . S
C3011 C3016 1.342 . S
C3012 C3013 1.310 . S
C3012 C3015 1.461 . S
C3012 H3032 0.932 . S
C3013 C3011 1.408 . S
C3013 C3012 1.310 . S
C3013 H3033 0.930 . S
C3014 C3015 1.474 . S
C3014 C3016 1.285 . S
C3014 H3034 0.929 . S
C3015 C3012 1.461 . S
C3015 C3014 1.474 . S
C3016 C3011 1.342 . S
C3016 C3014 1.285 . S
C3016 H3035 0.930 . S
C3017 C3020 1.424 . S
C3017 C3022 1.245 . S
C3017 C3023 1.428 . S
C3018 C3021 1.260 . S
C3018 C3022 1.477 . S
C3018 H3036 0.932 . S
C3019 C3020 1.384 . S
C3019 C3021 1.479 . S
C3019 H3037 0.929 . S
C3020 C3017 1.424 . S
C3020 C3019 1.384 . S
C3020 H3038 0.928 . S
C3021 C3018 1.260 . S
C3021 C3019 1.479 . S
C3022 C3017 1.245 . S
C3022 C3018 1.477 . S
C3022 H3039 0.932 . S
C3023 U3006 2.882 . S
C3023 C3017 1.428 . S
C3023 O3026 1.301 . S
C3023 O3027 1.282 . S
O3024 U3006 2.441 . S
O3024 C3010 1.249 . S
O3025 U3006 2.420 . S
O3025 C3010 1.202 . S
O3026 U3006 2.455 . S
O3026 C3023 1.301 . S
O3027 U3006 2.449 . S
O3027 C3023 1.282 . S
H3028 C3001 0.931 . S
H3029 C3003 0.929 . S
H3030 C3004 0.930 . S
H3031 C3005 0.931 . S
H3032 C3012 0.932 . S
H3033 C3013 0.930 . S
H3034 C3014 0.929 . S
H3035 C3016 0.930 . S
H3036 C3018 0.932 . S
H3037 C3019 0.929 . S
H3038 C3020 0.928 . S
H3039 C3022 0.932 . S
C3040 C3041 1.264 . S
C3040 C3045 1.479 . S
C3040 C3050 1.465 . S
C3041 C3040 1.264 . S
C3041 C3043 1.339 . S
C3041 H3068 0.931 . S
C3042 C3043 1.395 . S
C3042 C3044 1.320 . S
C3043 C3041 1.339 . S
C3043 C3042 1.395 . S
C3043 H3069 0.929 . S
C3044 C3042 1.320 . S
C3044 C3045 1.405 . S
C3044 H3070 0.930 . S
C3045 C3040 1.479 . S
C3045 C3044 1.405 . S
C3045 H3071 0.931 . S
U3046 O3047 2.454 . S
U3046 O3048 2.458 . S
U3046 C3049 2.984 . S
U3046 C3050 2.847 . S
U3046 C3063 2.882 . S
U3046 O3064 2.441 . S
U3046 O3065 2.420 . S
U3046 O3066 2.455 . S
U3046 O3067 2.449 . S
O3047 U3046 2.454 . S
O3047 C3049 1.353 . S
O3048 U3046 2.458 . S
O3048 C3049 1.286 . S
C3049 U3046 2.984 . S
C3049 O3047 1.353 . S
C3049 O3048 1.286 . S
C3049 C3051 1.363 . S
C3050 C3040 1.465 . S
C3050 U3046 2.847 . S
C3050 O3064 1.249 . S
C3050 O3065 1.202 . S
C3051 C3049 1.363 . S
C3051 C3053 1.408 . S
C3051 C3056 1.342 . S
C3052 C3053 1.310 . S
C3052 C3055 1.461 . S
C3052 H3072 0.932 . S
C3053 C3051 1.408 . S
C3053 C3052 1.310 . S
C3053 H3073 0.930 . S
C3054 C3055 1.474 . S
C3054 C3056 1.285 . S
C3054 H3074 0.929 . S
C3055 C3052 1.461 . S
C3055 C3054 1.474 . S
C3056 C3051 1.342 . S
C3056 C3054 1.285 . S
C3056 H3075 0.930 . S
C3057 C3060 1.424 . S
C3057 C3062 1.245 . S
C3057 C3063 1.428 . S
C3058 C3061 1.260 . S
C3058 C3062 1.477 . S
C3058 H3076 0.932 . S
C3059 C3060 1.384 . S
C3059 C3061 1.479 . S
C3059 H3077 0.929 . S
C3060 C3057 1.424 . S
C3060 C3059 1.384 . S
C3060 H3078 0.928 . S
C3061 C3058 1.260 . S
C3061 C3059 1.479 . S
C3062 C3057 1.245 . S
C3062 C3058 1.477 . S
C3062 H3079 0.932 . S
C3063 U3046 2.882 . S
C3063 C3057 1.428 . S
C3063 O3066 1.301 . S
C3063 O3067 1.282 . S
O3064 U3046 2.441 . S
O3064 C3050 1.249 . S
O3065 U3046 2.420 . S
O3065 C3050 1.202 . S
O3066 U3046 2.455 . S
O3066 C3063 1.301 . S
O3067 U3046 2.449 . S
O3067 C3063 1.282 . S
H3068 C3041 0.931 . S
H3069 C3043 0.929 . S
H3070 C3044 0.930 . S
H3071 C3045 0.931 . S
H3072 C3052 0.932 . S
H3073 C3053 0.930 . S
H3074 C3054 0.929 . S
H3075 C3056 0.930 . S
H3076 C3058 0.932 . S
H3077 C3059 0.929 . S
H3078 C3060 0.928 . S
H3079 C3062 0.932 . S
C3080 C3081 1.264 . S
C3080 C3085 1.479 . S
C3080 C3090 1.465 . S
C3081 C3080 1.264 . S
C3081 C3083 1.339 . S
C3081 H3108 0.931 . S
C3082 C3083 1.395 . S
C3082 C3084 1.320 . S
C3083 C3081 1.339 . S
C3083 C3082 1.395 . S
C3083 H3109 0.929 . S
C3084 C3082 1.320 . S
C3084 C3085 1.405 . S
C3084 H3110 0.930 . S
C3085 C3080 1.479 . S
C3085 C3084 1.405 . S
C3085 H3111 0.931 . S
U3086 O3087 2.454 . S
U3086 O3088 2.458 . S
U3086 C3089 2.984 . S
U3086 C3090 2.847 . S
U3086 C3103 2.882 . S
U3086 O3104 2.441 . S
U3086 O3105 2.420 . S
U3086 O3106 2.455 . S
U3086 O3107 2.449 . S
O3087 U3086 2.454 . S
O3087 C3089 1.353 . S
O3088 U3086 2.458 . S
O3088 C3089 1.286 . S
C3089 U3086 2.984 . S
C3089 O3087 1.353 . S
C3089 O3088 1.286 . S
C3089 C3091 1.363 . S
C3090 C3080 1.465 . S
C3090 U3086 2.847 . S
C3090 O3104 1.249 . S
C3090 O3105 1.202 . S
C3091 C3089 1.363 . S
C3091 C3093 1.408 . S
C3091 C3096 1.342 . S
C3092 C3093 1.310 . S
C3092 C3095 1.461 . S
C3092 H3112 0.932 . S
C3093 C3091 1.408 . S
C3093 C3092 1.310 . S
C3093 H3113 0.930 . S
C3094 C3095 1.474 . S
C3094 C3096 1.285 . S
C3094 H3114 0.929 . S
C3095 C3092 1.461 . S
C3095 C3094 1.474 . S
C3096 C3091 1.342 . S
C3096 C3094 1.285 . S
C3096 H3115 0.930 . S
C3097 C3100 1.424 . S
C3097 C3102 1.245 . S
C3097 C3103 1.428 . S
C3098 C3101 1.260 . S
C3098 C3102 1.477 . S
C3098 H3116 0.932 . S
C3099 C3100 1.384 . S
C3099 C3101 1.479 . S
C3099 H3117 0.929 . S
C3100 C3097 1.424 . S
C3100 C3099 1.384 . S
C3100 H3118 0.928 . S
C3101 C3098 1.260 . S
C3101 C3099 1.479 . S
C3102 C3097 1.245 . S
C3102 C3098 1.477 . S
C3102 H3119 0.932 . S
C3103 U3086 2.882 . S
C3103 C3097 1.428 . S
C3103 O3106 1.301 . S
C3103 O3107 1.282 . S
O3104 U3086 2.441 . S
O3104 C3090 1.249 . S
O3105 U3086 2.420 . S
O3105 C3090 1.202 . S
O3106 U3086 2.455 . S
O3106 C3103 1.301 . S
O3107 U3086 2.449 . S
O3107 C3103 1.282 . S
H3108 C3081 0.931 . S
H3109 C3083 0.929 . S
H3110 C3084 0.930 . S
H3111 C3085 0.931 . S
H3112 C3092 0.932 . S
H3113 C3093 0.930 . S
H3114 C3094 0.929 . S
H3115 C3096 0.930 . S
H3116 C3098 0.932 . S
H3117 C3099 0.929 . S
H3118 C3100 0.928 . S
H3119 C3102 0.932 . S
C3120 C3121 1.264 . S
C3120 C3125 1.479 . S
C3120 C3130 1.465 . S
C3121 C3120 1.264 . S
C3121 C3123 1.339 . S
C3121 H3148 0.931 . S
C3122 C3123 1.395 . S
C3122 C3124 1.320 . S
C3123 C3121 1.339 . S
C3123 C3122 1.395 . S
C3123 H3149 0.929 . S
C3124 C3122 1.320 . S
C3124 C3125 1.405 . S
C3124 H3150 0.930 . S
C3125 C3120 1.479 . S
C3125 C3124 1.405 . S
C3125 H3151 0.931 . S
U3126 O3127 2.454 . S
U3126 O3128 2.458 . S
U3126 C3129 2.984 . S
U3126 C3130 2.847 . S
U3126 C3143 2.882 . S
U3126 O3144 2.441 . S
U3126 O3145 2.420 . S
U3126 O3146 2.455 . S
U3126 O3147 2.449 . S
O3127 U3126 2.454 . S
O3127 C3129 1.353 . S
O3128 U3126 2.458 . S
O3128 C3129 1.286 . S
C3129 U3126 2.984 . S
C3129 O3127 1.353 . S
C3129 O3128 1.286 . S
C3129 C3131 1.363 . S
C3130 C3120 1.465 . S
C3130 U3126 2.847 . S
C3130 O3144 1.249 . S
C3130 O3145 1.202 . S
C3131 C3129 1.363 . S
C3131 C3133 1.408 . S
C3131 C3136 1.342 . S
C3132 C3133 1.310 . S
C3132 C3135 1.461 . S
C3132 H3152 0.932 . S
C3133 C3131 1.408 . S
C3133 C3132 1.310 . S
C3133 H3153 0.930 . S
C3134 C3135 1.474 . S
C3134 C3136 1.285 . S
C3134 H3154 0.929 . S
C3135 C3132 1.461 . S
C3135 C3134 1.474 . S
C3136 C3131 1.342 . S
C3136 C3134 1.285 . S
C3136 H3155 0.930 . S
C3137 C3140 1.424 . S
C3137 C3142 1.245 . S
C3137 C3143 1.428 . S
C3138 C3141 1.260 . S
C3138 C3142 1.477 . S
C3138 H3156 0.932 . S
C3139 C3140 1.384 . S
C3139 C3141 1.479 . S
C3139 H3157 0.929 . S
C3140 C3137 1.424 . S
C3140 C3139 1.384 . S
C3140 H3158 0.928 . S
C3141 C3138 1.260 . S
C3141 C3139 1.479 . S
C3142 C3137 1.245 . S
C3142 C3138 1.477 . S
C3142 H3159 0.932 . S
C3143 U3126 2.882 . S
C3143 C3137 1.428 . S
C3143 O3146 1.301 . S
C3143 O3147 1.282 . S
O3144 U3126 2.441 . S
O3144 C3130 1.249 . S
O3145 U3126 2.420 . S
O3145 C3130 1.202 . S
O3146 U3126 2.455 . S
O3146 C3143 1.301 . S
O3147 U3126 2.449 . S
O3147 C3143 1.282 . S
H3148 C3121 0.931 . S
H3149 C3123 0.929 . S
H3150 C3124 0.930 . S
H3151 C3125 0.931 . S
H3152 C3132 0.932 . S
H3153 C3133 0.930 . S
H3154 C3134 0.929 . S
H3155 C3136 0.930 . S
H3156 C3138 0.932 . S
H3157 C3139 0.929 . S
H3158 C3140 0.928 . S
H3159 C3142 0.932 . S
C3160 C3161 1.264 . S
C3160 C3165 1.479 . S
C3160 C3170 1.465 . S
C3161 C3160 1.264 . S
C3161 C3163 1.339 . S
C3161 H3188 0.931 . S
C3162 C3163 1.395 . S
C3162 C3164 1.320 . S
C3163 C3161 1.339 . S
C3163 C3162 1.395 . S
C3163 H3189 0.929 . S
C3164 C3162 1.320 . S
C3164 C3165 1.405 . S
C3164 H3190 0.930 . S
C3165 C3160 1.479 . S
C3165 C3164 1.405 . S
C3165 H3191 0.931 . S
U3166 O3167 2.454 . S
U3166 O3168 2.458 . S
U3166 C3169 2.984 . S
U3166 C3170 2.847 . S
U3166 C3183 2.882 . S
U3166 O3184 2.441 . S
U3166 O3185 2.420 . S
U3166 O3186 2.455 . S
U3166 O3187 2.449 . S
O3167 U3166 2.454 . S
O3167 C3169 1.353 . S
O3168 U3166 2.458 . S
O3168 C3169 1.286 . S
C3169 U3166 2.984 . S
C3169 O3167 1.353 . S
C3169 O3168 1.286 . S
C3169 C3171 1.363 . S
C3170 C3160 1.465 . S
C3170 U3166 2.847 . S
C3170 O3184 1.249 . S
C3170 O3185 1.202 . S
C3171 C3169 1.363 . S
C3171 C3173 1.408 . S
C3171 C3176 1.342 . S
C3172 C3173 1.310 . S
C3172 C3175 1.461 . S
C3172 H3192 0.932 . S
C3173 C3171 1.408 . S
C3173 C3172 1.310 . S
C3173 H3193 0.930 . S
C3174 C3175 1.474 . S
C3174 C3176 1.285 . S
C3174 H3194 0.929 . S
C3175 C3172 1.461 . S
C3175 C3174 1.474 . S
C3176 C3171 1.342 . S
C3176 C3174 1.285 . S
C3176 H3195 0.930 . S
C3177 C3180 1.424 . S
C3177 C3182 1.245 . S
C3177 C3183 1.428 . S
C3178 C3181 1.260 . S
C3178 C3182 1.477 . S
C3178 H3196 0.932 . S
C3179 C3180 1.384 . S
C3179 C3181 1.479 . S
C3179 H3197 0.929 . S
C3180 C3177 1.424 . S
C3180 C3179 1.384 . S
C3180 H3198 0.928 . S
C3181 C3178 1.260 . S
C3181 C3179 1.479 . S
C3182 C3177 1.245 . S
C3182 C3178 1.477 . S
C3182 H3199 0.932 . S
C3183 U3166 2.882 . S
C3183 C3177 1.428 . S
C3183 O3186 1.301 . S
C3183 O3187 1.282 . S
O3184 U3166 2.441 . S
O3184 C3170 1.249 . S
O3185 U3166 2.420 . S
O3185 C3170 1.202 . S
O3186 U3166 2.455 . S
O3186 C3183 1.301 . S
O3187 U3166 2.449 . S
O3187 C3183 1.282 . S
H3188 C3161 0.931 . S
H3189 C3163 0.929 . S
H3190 C3164 0.930 . S
H3191 C3165 0.931 . S
H3192 C3172 0.932 . S
H3193 C3173 0.930 . S
H3194 C3174 0.929 . S
H3195 C3176 0.930 . S
H3196 C3178 0.932 . S
H3197 C3179 0.929 . S
H3198 C3180 0.928 . S
H3199 C3182 0.932 . S
C3200 C3201 1.264 . S
C3200 C3205 1.479 . S
C3200 C3210 1.465 . S
C3201 C3200 1.264 . S
C3201 C3203 1.339 . S
C3201 H3228 0.931 . S
C3202 C3203 1.395 . S
C3202 C3204 1.320 . S
C3203 C3201 1.339 . S
C3203 C3202 1.395 . S
C3203 H3229 0.929 . S
C3204 C3202 1.320 . S
C3204 C3205 1.405 . S
C3204 H3230 0.930 . S
C3205 C3200 1.479 . S
C3205 C3204 1.405 . S
C3205 H3231 0.931 . S
U3206 O3207 2.454 . S
U3206 O3208 2.458 . S
U3206 C3209 2.984 . S
U3206 C3210 2.847 . S
U3206 C3223 2.882 . S
U3206 O3224 2.441 . S
U3206 O3225 2.420 . S
U3206 O3226 2.455 . S
U3206 O3227 2.449 . S
O3207 U3206 2.454 . S
O3207 C3209 1.353 . S
O3208 U3206 2.458 . S
O3208 C3209 1.286 . S
C3209 U3206 2.984 . S
C3209 O3207 1.353 . S
C3209 O3208 1.286 . S
C3209 C3211 1.363 . S
C3210 C3200 1.465 . S
C3210 U3206 2.847 . S
C3210 O3224 1.249 . S
C3210 O3225 1.202 . S
C3211 C3209 1.363 . S
C3211 C3213 1.408 . S
C3211 C3216 1.342 . S
C3212 C3213 1.310 . S
C3212 C3215 1.461 . S
C3212 H3232 0.932 . S
C3213 C3211 1.408 . S
C3213 C3212 1.310 . S
C3213 H3233 0.930 . S
C3214 C3215 1.474 . S
C3214 C3216 1.285 . S
C3214 H3234 0.929 . S
C3215 C3212 1.461 . S
C3215 C3214 1.474 . S
C3216 C3211 1.342 . S
C3216 C3214 1.285 . S
C3216 H3235 0.930 . S
C3217 C3220 1.424 . S
C3217 C3222 1.245 . S
C3217 C3223 1.428 . S
C3218 C3221 1.260 . S
C3218 C3222 1.477 . S
C3218 H3236 0.932 . S
C3219 C3220 1.384 . S
C3219 C3221 1.479 . S
C3219 H3237 0.929 . S
C3220 C3217 1.424 . S
C3220 C3219 1.384 . S
C3220 H3238 0.928 . S
C3221 C3218 1.260 . S
C3221 C3219 1.479 . S
C3222 C3217 1.245 . S
C3222 C3218 1.477 . S
C3222 H3239 0.932 . S
C3223 U3206 2.882 . S
C3223 C3217 1.428 . S
C3223 O3226 1.301 . S
C3223 O3227 1.282 . S
O3224 U3206 2.441 . S
O3224 C3210 1.249 . S
O3225 U3206 2.420 . S
O3225 C3210 1.202 . S
O3226 U3206 2.455 . S
O3226 C3223 1.301 . S
O3227 U3206 2.449 . S
O3227 C3223 1.282 . S
H3228 C3201 0.931 . S
H3229 C3203 0.929 . S
H3230 C3204 0.930 . S
H3231 C3205 0.931 . S
H3232 C3212 0.932 . S
H3233 C3213 0.930 . S
H3234 C3214 0.929 . S
H3235 C3216 0.930 . S
H3236 C3218 0.932 . S
H3237 C3219 0.929 . S
H3238 C3220 0.928 . S
H3239 C3222 0.932 . S
C3240 C3241 1.264 . S
C3240 C3245 1.479 . S
C3240 C3250 1.465 . S
C3241 C3240 1.264 . S
C3241 C3243 1.339 . S
C3241 H3268 0.931 . S
C3242 C3243 1.395 . S
C3242 C3244 1.320 . S
C3243 C3241 1.339 . S
C3243 C3242 1.395 . S
C3243 H3269 0.929 . S
C3244 C3242 1.320 . S
C3244 C3245 1.405 . S
C3244 H3270 0.930 . S
C3245 C3240 1.479 . S
C3245 C3244 1.405 . S
C3245 H3271 0.931 . S
U3246 O3247 2.454 . S
U3246 O3248 2.458 . S
U3246 C3249 2.984 . S
U3246 C3250 2.847 . S
U3246 C3263 2.882 . S
U3246 O3264 2.441 . S
U3246 O3265 2.420 . S
U3246 O3266 2.455 . S
U3246 O3267 2.449 . S
O3247 U3246 2.454 . S
O3247 C3249 1.353 . S
O3248 U3246 2.458 . S
O3248 C3249 1.286 . S
C3249 U3246 2.984 . S
C3249 O3247 1.353 . S
C3249 O3248 1.286 . S
C3249 C3251 1.363 . S
C3250 C3240 1.465 . S
C3250 U3246 2.847 . S
C3250 O3264 1.249 . S
C3250 O3265 1.202 . S
C3251 C3249 1.363 . S
C3251 C3253 1.408 . S
C3251 C3256 1.342 . S
C3252 C3253 1.310 . S
C3252 C3255 1.461 . S
C3252 H3272 0.932 . S
C3253 C3251 1.408 . S
C3253 C3252 1.310 . S
C3253 H3273 0.930 . S
C3254 C3255 1.474 . S
C3254 C3256 1.285 . S
C3254 H3274 0.929 . S
C3255 C3252 1.461 . S
C3255 C3254 1.474 . S
C3256 C3251 1.342 . S
C3256 C3254 1.285 . S
C3256 H3275 0.930 . S
C3257 C3260 1.424 . S
C3257 C3262 1.245 . S
C3257 C3263 1.428 . S
C3258 C3261 1.260 . S
C3258 C3262 1.477 . S
C3258 H3276 0.932 . S
C3259 C3260 1.384 . S
C3259 C3261 1.479 . S
C3259 H3277 0.929 . S
C3260 C3257 1.424 . S
C3260 C3259 1.384 . S
C3260 H3278 0.928 . S
C3261 C3258 1.260 . S
C3261 C3259 1.479 . S
C3262 C3257 1.245 . S
C3262 C3258 1.477 . S
C3262 H3279 0.932 . S
C3263 U3246 2.882 . S
C3263 C3257 1.428 . S
C3263 O3266 1.301 . S
C3263 O3267 1.282 . S
O3264 U3246 2.441 . S
O3264 C3250 1.249 . S
O3265 U3246 2.420 . S
O3265 C3250 1.202 . S
O3266 U3246 2.455 . S
O3266 C3263 1.301 . S
O3267 U3246 2.449 . S
O3267 C3263 1.282 . S
H3268 C3241 0.931 . S
H3269 C3243 0.929 . S
H3270 C3244 0.930 . S
H3271 C3245 0.931 . S
H3272 C3252 0.932 . S
H3273 C3253 0.930 . S
H3274 C3254 0.929 . S
H3275 C3256 0.930 . S
H3276 C3258 0.932 . S
H3277 C3259 0.929 . S
H3278 C3260 0.928 . S
H3279 C3262 0.932 . S
C3280 C3281 1.264 . S
C3280 C3285 1.479 . S
C3280 C3290 1.465 . S
C3281 C3280 1.264 . S
C3281 C3283 1.339 . S
C3281 H3308 0.931 . S
C3282 C3283 1.395 . S
C3282 C3284 1.320 . S
C3283 C3281 1.339 . S
C3283 C3282 1.395 . S
C3283 H3309 0.929 . S
C3284 C3282 1.320 . S
C3284 C3285 1.405 . S
C3284 H3310 0.930 . S
C3285 C3280 1.479 . S
C3285 C3284 1.405 . S
C3285 H3311 0.931 . S
U3286 O3287 2.454 . S
U3286 O3288 2.458 . S
U3286 C3289 2.984 . S
U3286 C3290 2.847 . S
U3286 C3303 2.882 . S
U3286 O3304 2.441 . S
U3286 O3305 2.420 . S
U3286 O3306 2.455 . S
U3286 O3307 2.449 . S
O3287 U3286 2.454 . S
O3287 C3289 1.353 . S
O3288 U3286 2.458 . S
O3288 C3289 1.286 . S
C3289 U3286 2.984 . S
C3289 O3287 1.353 . S
C3289 O3288 1.286 . S
C3289 C3291 1.363 . S
C3290 C3280 1.465 . S
C3290 U3286 2.847 . S
C3290 O3304 1.249 . S
C3290 O3305 1.202 . S
C3291 C3289 1.363 . S
C3291 C3293 1.408 . S
C3291 C3296 1.342 . S
C3292 C3293 1.310 . S
C3292 C3295 1.461 . S
C3292 H3312 0.932 . S
C3293 C3291 1.408 . S
C3293 C3292 1.310 . S
C3293 H3313 0.930 . S
C3294 C3295 1.474 . S
C3294 C3296 1.285 . S
C3294 H3314 0.929 . S
C3295 C3292 1.461 . S
C3295 C3294 1.474 . S
C3296 C3291 1.342 . S
C3296 C3294 1.285 . S
C3296 H3315 0.930 . S
C3297 C3300 1.424 . S
C3297 C3302 1.245 . S
C3297 C3303 1.428 . S
C3298 C3301 1.260 . S
C3298 C3302 1.477 . S
C3298 H3316 0.932 . S
C3299 C3300 1.384 . S
C3299 C3301 1.479 . S
C3299 H3317 0.929 . S
C3300 C3297 1.424 . S
C3300 C3299 1.384 . S
C3300 H3318 0.928 . S
C3301 C3298 1.260 . S
C3301 C3299 1.479 . S
C3302 C3297 1.245 . S
C3302 C3298 1.477 . S
C3302 H3319 0.932 . S
C3303 U3286 2.882 . S
C3303 C3297 1.428 . S
C3303 O3306 1.301 . S
C3303 O3307 1.282 . S
O3304 U3286 2.441 . S
O3304 C3290 1.249 . S
O3305 U3286 2.420 . S
O3305 C3290 1.202 . S
O3306 U3286 2.455 . S
O3306 C3303 1.301 . S
O3307 U3286 2.449 . S
O3307 C3303 1.282 . S
H3308 C3281 0.931 . S
H3309 C3283 0.929 . S
H3310 C3284 0.930 . S
H3311 C3285 0.931 . S
H3312 C3292 0.932 . S
H3313 C3293 0.930 . S
H3314 C3294 0.929 . S
H3315 C3296 0.930 . S
H3316 C3298 0.932 . S
H3317 C3299 0.929 . S
H3318 C3300 0.928 . S
H3319 C3302 0.932 . S
C3320 C3321 1.264 . S
C3320 C3325 1.479 . S
C3320 C3330 1.465 . S
C3321 C3320 1.264 . S
C3321 C3323 1.339 . S
C3321 H3348 0.931 . S
C3322 C3323 1.395 . S
C3322 C3324 1.320 . S
C3323 C3321 1.339 . S
C3323 C3322 1.395 . S
C3323 H3349 0.929 . S
C3324 C3322 1.320 . S
C3324 C3325 1.405 . S
C3324 H3350 0.930 . S
C3325 C3320 1.479 . S
C3325 C3324 1.405 . S
C3325 H3351 0.931 . S
U3326 O3327 2.454 . S
U3326 O3328 2.458 . S
U3326 C3329 2.984 . S
U3326 C3330 2.847 . S
U3326 C3343 2.882 . S
U3326 O3344 2.441 . S
U3326 O3345 2.420 . S
U3326 O3346 2.455 . S
U3326 O3347 2.449 . S
O3327 U3326 2.454 . S
O3327 C3329 1.353 . S
O3328 U3326 2.458 . S
O3328 C3329 1.286 . S
C3329 U3326 2.984 . S
C3329 O3327 1.353 . S
C3329 O3328 1.286 . S
C3329 C3331 1.363 . S
C3330 C3320 1.465 . S
C3330 U3326 2.847 . S
C3330 O3344 1.249 . S
C3330 O3345 1.202 . S
C3331 C3329 1.363 . S
C3331 C3333 1.408 . S
C3331 C3336 1.342 . S
C3332 C3333 1.310 . S
C3332 C3335 1.461 . S
C3332 H3352 0.932 . S
C3333 C3331 1.408 . S
C3333 C3332 1.310 . S
C3333 H3353 0.930 . S
C3334 C3335 1.474 . S
C3334 C3336 1.285 . S
C3334 H3354 0.929 . S
C3335 C3332 1.461 . S
C3335 C3334 1.474 . S
C3336 C3331 1.342 . S
C3336 C3334 1.285 . S
C3336 H3355 0.930 . S
C3337 C3340 1.424 . S
C3337 C3342 1.245 . S
C3337 C3343 1.428 . S
C3338 C3341 1.260 . S
C3338 C3342 1.477 . S
C3338 H3356 0.932 . S
C3339 C3340 1.384 . S
C3339 C3341 1.479 . S
C3339 H3357 0.929 . S
C3340 C3337 1.424 . S
C3340 C3339 1.384 . S
C3340 H3358 0.928 . S
C3341 C3338 1.260 . S
C3341 C3339 1.479 . S
C3342 C3337 1.245 . S
C3342 C3338 1.477 . S
C3342 H3359 0.932 . S
C3343 U3326 2.882 . S
C3343 C3337 1.428 . S
C3343 O3346 1.301 . S
C3343 O3347 1.282 . S
O3344 U3326 2.441 . S
O3344 C3330 1.249 . S
O3345 U3326 2.420 . S
O3345 C3330 1.202 . S
O3346 U3326 2.455 . S
O3346 C3343 1.301 . S
O3347 U3326 2.449 . S
O3347 C3343 1.282 . S
H3348 C3321 0.931 . S
H3349 C3323 0.929 . S
H3350 C3324 0.930 . S
H3351 C3325 0.931 . S
H3352 C3332 0.932 . S
H3353 C3333 0.930 . S
H3354 C3334 0.929 . S
H3355 C3336 0.930 . S
H3356 C3338 0.932 . S
H3357 C3339 0.929 . S
H3358 C3340 0.928 . S
H3359 C3342 0.932 . S
C3360 C3361 1.264 . S
C3360 C3365 1.479 . S
C3360 C3370 1.465 . S
C3361 C3360 1.264 . S
C3361 C3363 1.339 . S
C3361 H3388 0.931 . S
C3362 C3363 1.395 . S
C3362 C3364 1.320 . S
C3363 C3361 1.339 . S
C3363 C3362 1.395 . S
C3363 H3389 0.929 . S
C3364 C3362 1.320 . S
C3364 C3365 1.405 . S
C3364 H3390 0.930 . S
C3365 C3360 1.479 . S
C3365 C3364 1.405 . S
C3365 H3391 0.931 . S
U3366 O3367 2.454 . S
U3366 O3368 2.458 . S
U3366 C3369 2.984 . S
U3366 C3370 2.847 . S
U3366 C3383 2.882 . S
U3366 O3384 2.441 . S
U3366 O3385 2.420 . S
U3366 O3386 2.455 . S
U3366 O3387 2.449 . S
O3367 U3366 2.454 . S
O3367 C3369 1.353 . S
O3368 U3366 2.458 . S
O3368 C3369 1.286 . S
C3369 U3366 2.984 . S
C3369 O3367 1.353 . S
C3369 O3368 1.286 . S
C3369 C3371 1.363 . S
C3370 C3360 1.465 . S
C3370 U3366 2.847 . S
C3370 O3384 1.249 . S
C3370 O3385 1.202 . S
C3371 C3369 1.363 . S
C3371 C3373 1.408 . S
C3371 C3376 1.342 . S
C3372 C3373 1.310 . S
C3372 C3375 1.461 . S
C3372 H3392 0.932 . S
C3373 C3371 1.408 . S
C3373 C3372 1.310 . S
C3373 H3393 0.930 . S
C3374 C3375 1.474 . S
C3374 C3376 1.285 . S
C3374 H3394 0.929 . S
C3375 C3372 1.461 . S
C3375 C3374 1.474 . S
C3376 C3371 1.342 . S
C3376 C3374 1.285 . S
C3376 H3395 0.930 . S
C3377 C3380 1.424 . S
C3377 C3382 1.245 . S
C3377 C3383 1.428 . S
C3378 C3381 1.260 . S
C3378 C3382 1.477 . S
C3378 H3396 0.932 . S
C3379 C3380 1.384 . S
C3379 C3381 1.479 . S
C3379 H3397 0.929 . S
C3380 C3377 1.424 . S
C3380 C3379 1.384 . S
C3380 H3398 0.928 . S
C3381 C3378 1.260 . S
C3381 C3379 1.479 . S
C3382 C3377 1.245 . S
C3382 C3378 1.477 . S
C3382 H3399 0.932 . S
C3383 U3366 2.882 . S
C3383 C3377 1.428 . S
C3383 O3386 1.301 . S
C3383 O3387 1.282 . S
O3384 U3366 2.441 . S
O3384 C3370 1.249 . S
O3385 U3366 2.420 . S
O3385 C3370 1.202 . S
O3386 U3366 2.455 . S
O3386 C3383 1.301 . S
O3387 U3366 2.449 . S
O3387 C3383 1.282 . S
H3388 C3361 0.931 . S
H3389 C3363 0.929 . S
H3390 C3364 0.930 . S
H3391 C3365 0.931 . S
H3392 C3372 0.932 . S
H3393 C3373 0.930 . S
H3394 C3374 0.929 . S
H3395 C3376 0.930 . S
H3396 C3378 0.932 . S
H3397 C3379 0.929 . S
H3398 C3380 0.928 . S
H3399 C3382 0.932 . S
C3400 C3401 1.264 . S
C3400 C3405 1.479 . S
C3400 C3410 1.465 . S
C3401 C3400 1.264 . S
C3401 C3403 1.339 . S
C3401 H3428 0.931 . S
C3402 C3403 1.395 . S
C3402 C3404 1.320 . S
C3403 C3401 1.339 . S
C3403 C3402 1.395 . S
C3403 H3429 0.929 . S
C3404 C3402 1.320 . S
C3404 C3405 1.405 . S
C3404 H3430 0.930 . S
C3405 C3400 1.479 . S
C3405 C3404 1.405 . S
C3405 H3431 0.931 . S
U3406 O3407 2.454 . S
U3406 O3408 2.458 . S
U3406 C3409 2.984 . S
U3406 C3410 2.847 . S
U3406 C3423 2.882 . S
U3406 O3424 2.441 . S
U3406 O3425 2.420 . S
U3406 O3426 2.455 . S
U3406 O3427 2.449 . S
O3407 U3406 2.454 . S
O3407 C3409 1.353 . S
O3408 U3406 2.458 . S
O3408 C3409 1.286 . S
C3409 U3406 2.984 . S
C3409 O3407 1.353 . S
C3409 O3408 1.286 . S
C3409 C3411 1.363 . S
C3410 C3400 1.465 . S
C3410 U3406 2.847 . S
C3410 O3424 1.249 . S
C3410 O3425 1.202 . S
C3411 C3409 1.363 . S
C3411 C3413 1.408 . S
C3411 C3416 1.342 . S
C3412 C3413 1.310 . S
C3412 C3415 1.461 . S
C3412 H3432 0.932 . S
C3413 C3411 1.408 . S
C3413 C3412 1.310 . S
C3413 H3433 0.930 . S
C3414 C3415 1.474 . S
C3414 C3416 1.285 . S
C3414 H3434 0.929 . S
C3415 C3412 1.461 . S
C3415 C3414 1.474 . S
C3416 C3411 1.342 . S
C3416 C3414 1.285 . S
C3416 H3435 0.930 . S
C3417 C3420 1.424 . S
C3417 C3422 1.245 . S
C3417 C3423 1.428 . S
C3418 C3421 1.260 . S
C3418 C3422 1.477 . S
C3418 H3436 0.932 . S
C3419 C3420 1.384 . S
C3419 C3421 1.479 . S
C3419 H3437 0.929 . S
C3420 C3417 1.424 . S
C3420 C3419 1.384 . S
C3420 H3438 0.928 . S
C3421 C3418 1.260 . S
C3421 C3419 1.479 . S
C3422 C3417 1.245 . S
C3422 C3418 1.477 . S
C3422 H3439 0.932 . S
C3423 U3406 2.882 . S
C3423 C3417 1.428 . S
C3423 O3426 1.301 . S
C3423 O3427 1.282 . S
O3424 U3406 2.441 . S
O3424 C3410 1.249 . S
O3425 U3406 2.420 . S
O3425 C3410 1.202 . S
O3426 U3406 2.455 . S
O3426 C3423 1.301 . S
O3427 U3406 2.449 . S
O3427 C3423 1.282 . S
H3428 C3401 0.931 . S
H3429 C3403 0.929 . S
H3430 C3404 0.930 . S
H3431 C3405 0.931 . S
H3432 C3412 0.932 . S
H3433 C3413 0.930 . S
H3434 C3414 0.929 . S
H3435 C3416 0.930 . S
H3436 C3418 0.932 . S
H3437 C3419 0.929 . S
H3438 C3420 0.928 . S
H3439 C3422 0.932 . S
C3440 C3441 1.264 . S
C3440 C3445 1.479 . S
C3440 C3450 1.465 . S
C3441 C3440 1.264 . S
C3441 C3443 1.339 . S
C3441 H3468 0.931 . S
C3442 C3443 1.395 . S
C3442 C3444 1.320 . S
C3443 C3441 1.339 . S
C3443 C3442 1.395 . S
C3443 H3469 0.929 . S
C3444 C3442 1.320 . S
C3444 C3445 1.405 . S
C3444 H3470 0.930 . S
C3445 C3440 1.479 . S
C3445 C3444 1.405 . S
C3445 H3471 0.931 . S
U3446 O3447 2.454 . S
U3446 O3448 2.458 . S
U3446 C3449 2.984 . S
U3446 C3450 2.847 . S
U3446 C3463 2.882 . S
U3446 O3464 2.441 . S
U3446 O3465 2.420 . S
U3446 O3466 2.455 . S
U3446 O3467 2.449 . S
O3447 U3446 2.454 . S
O3447 C3449 1.353 . S
O3448 U3446 2.458 . S
O3448 C3449 1.286 . S
C3449 U3446 2.984 . S
C3449 O3447 1.353 . S
C3449 O3448 1.286 . S
C3449 C3451 1.363 . S
C3450 C3440 1.465 . S
C3450 U3446 2.847 . S
C3450 O3464 1.249 . S
C3450 O3465 1.202 . S
C3451 C3449 1.363 . S
C3451 C3453 1.408 . S
C3451 C3456 1.342 . S
C3452 C3453 1.310 . S
C3452 C3455 1.461 . S
C3452 H3472 0.932 . S
C3453 C3451 1.408 . S
C3453 C3452 1.310 . S
C3453 H3473 0.930 . S
C3454 C3455 1.474 . S
C3454 C3456 1.285 . S
C3454 H3474 0.929 . S
C3455 C3452 1.461 . S
C3455 C3454 1.474 . S
C3456 C3451 1.342 . S
C3456 C3454 1.285 . S
C3456 H3475 0.930 . S
C3457 C3460 1.424 . S
C3457 C3462 1.245 . S
C3457 C3463 1.428 . S
C3458 C3461 1.260 . S
C3458 C3462 1.477 . S
C3458 H3476 0.932 . S
C3459 C3460 1.384 . S
C3459 C3461 1.479 . S
C3459 H3477 0.929 . S
C3460 C3457 1.424 . S
C3460 C3459 1.384 . S
C3460 H3478 0.928 . S
C3461 C3458 1.260 . S
C3461 C3459 1.479 . S
C3462 C3457 1.245 . S
C3462 C3458 1.477 . S
C3462 H3479 0.932 . S
C3463 U3446 2.882 . S
C3463 C3457 1.428 . S
C3463 O3466 1.301 . S
C3463 O3467 1.282 . S
O3464 U3446 2.441 . S
O3464 C3450 1.249 . S
O3465 U3446 2.420 . S
O3465 C3450 1.202 . S
O3466 U3446 2.455 . S
O3466 C3463 1.301 . S
O3467 U3446 2.449 . S
O3467 C3463 1.282 . S
H3468 C3441 0.931 . S
H3469 C3443 0.929 . S
H3470 C3444 0.930 . S
H3471 C3445 0.931 . S
H3472 C3452 0.932 . S
H3473 C3453 0.930 . S
H3474 C3454 0.929 . S
H3475 C3456 0.930 . S
H3476 C3458 0.932 . S
H3477 C3459 0.929 . S
H3478 C3460 0.928 . S
H3479 C3462 0.932 . S
C3480 C3481 1.264 . S
C3480 C3485 1.479 . S
C3480 C3490 1.465 . S
C3481 C3480 1.264 . S
C3481 C3483 1.339 . S
C3481 H3508 0.931 . S
C3482 C3483 1.395 . S
C3482 C3484 1.320 . S
C3483 C3481 1.339 . S
C3483 C3482 1.395 . S
C3483 H3509 0.929 . S
C3484 C3482 1.320 . S
C3484 C3485 1.405 . S
C3484 H3510 0.930 . S
C3485 C3480 1.479 . S
C3485 C3484 1.405 . S
C3485 H3511 0.931 . S
U3486 O3487 2.454 . S
U3486 O3488 2.458 . S
U3486 C3489 2.984 . S
U3486 C3490 2.847 . S
U3486 C3503 2.882 . S
U3486 O3504 2.441 . S
U3486 O3505 2.420 . S
U3486 O3506 2.455 . S
U3486 O3507 2.449 . S
O3487 U3486 2.454 . S
O3487 C3489 1.353 . S
O3488 U3486 2.458 . S
O3488 C3489 1.286 . S
C3489 U3486 2.984 . S
C3489 O3487 1.353 . S
C3489 O3488 1.286 . S
C3489 C3491 1.363 . S
C3490 C3480 1.465 . S
C3490 U3486 2.847 . S
C3490 O3504 1.249 . S
C3490 O3505 1.202 . S
C3491 C3489 1.363 . S
C3491 C3493 1.408 . S
C3491 C3496 1.342 . S
C3492 C3493 1.310 . S
C3492 C3495 1.461 . S
C3492 H3512 0.932 . S
C3493 C3491 1.408 . S
C3493 C3492 1.310 . S
C3493 H3513 0.930 . S
C3494 C3495 1.474 . S
C3494 C3496 1.285 . S
C3494 H3514 0.929 . S
C3495 C3492 1.461 . S
C3495 C3494 1.474 . S
C3496 C3491 1.342 . S
C3496 C3494 1.285 . S
C3496 H3515 0.930 . S
C3497 C3500 1.424 . S
C3497 C3502 1.245 . S
C3497 C3503 1.428 . S
C3498 C3501 1.260 . S
C3498 C3502 1.477 . S
C3498 H3516 0.932 . S
C3499 C3500 1.384 . S
C3499 C3501 1.479 . S
C3499 H3517 0.929 . S
C3500 C3497 1.424 . S
C3500 C3499 1.384 . S
C3500 H3518 0.928 . S
C3501 C3498 1.260 . S
C3501 C3499 1.479 . S
C3502 C3497 1.245 . S
C3502 C3498 1.477 . S
C3502 H3519 0.932 . S
C3503 U3486 2.882 . S
C3503 C3497 1.428 . S
C3503 O3506 1.301 . S
C3503 O3507 1.282 . S
O3504 U3486 2.441 . S
O3504 C3490 1.249 . S
O3505 U3486 2.420 . S
O3505 C3490 1.202 . S
O3506 U3486 2.455 . S
O3506 C3503 1.301 . S
O3507 U3486 2.449 . S
O3507 C3503 1.282 . S
H3508 C3481 0.931 . S
H3509 C3483 0.929 . S
H3510 C3484 0.930 . S
H3511 C3485 0.931 . S
H3512 C3492 0.932 . S
H3513 C3493 0.930 . S
H3514 C3494 0.929 . S
H3515 C3496 0.930 . S
H3516 C3498 0.932 . S
H3517 C3499 0.929 . S
H3518 C3500 0.928 . S
H3519 C3502 0.932 . S
C3520 C3521 1.264 . S
C3520 C3525 1.479 . S
C3520 C3530 1.465 . S
C3521 C3520 1.264 . S
C3521 C3523 1.339 . S
C3521 H3548 0.931 . S
C3522 C3523 1.395 . S
C3522 C3524 1.320 . S
C3523 C3521 1.339 . S
C3523 C3522 1.395 . S
C3523 H3549 0.929 . S
C3524 C3522 1.320 . S
C3524 C3525 1.405 . S
C3524 H3550 0.930 . S
C3525 C3520 1.479 . S
C3525 C3524 1.405 . S
C3525 H3551 0.931 . S
U3526 O3527 2.454 . S
U3526 O3528 2.458 . S
U3526 C3529 2.984 . S
U3526 C3530 2.847 . S
U3526 C3543 2.882 . S
U3526 O3544 2.441 . S
U3526 O3545 2.420 . S
U3526 O3546 2.455 . S
U3526 O3547 2.449 . S
O3527 U3526 2.454 . S
O3527 C3529 1.353 . S
O3528 U3526 2.458 . S
O3528 C3529 1.286 . S
C3529 U3526 2.984 . S
C3529 O3527 1.353 . S
C3529 O3528 1.286 . S
C3529 C3531 1.363 . S
C3530 C3520 1.465 . S
C3530 U3526 2.847 . S
C3530 O3544 1.249 . S
C3530 O3545 1.202 . S
C3531 C3529 1.363 . S
C3531 C3533 1.408 . S
C3531 C3536 1.342 . S
C3532 C3533 1.310 . S
C3532 C3535 1.461 . S
C3532 H3552 0.932 . S
C3533 C3531 1.408 . S
C3533 C3532 1.310 . S
C3533 H3553 0.930 . S
C3534 C3535 1.474 . S
C3534 C3536 1.285 . S
C3534 H3554 0.929 . S
C3535 C3532 1.461 . S
C3535 C3534 1.474 . S
C3536 C3531 1.342 . S
C3536 C3534 1.285 . S
C3536 H3555 0.930 . S
C3537 C3540 1.424 . S
C3537 C3542 1.245 . S
C3537 C3543 1.428 . S
C3538 C3541 1.260 . S
C3538 C3542 1.477 . S
C3538 H3556 0.932 . S
C3539 C3540 1.384 . S
C3539 C3541 1.479 . S
C3539 H3557 0.929 . S
C3540 C3537 1.424 . S
C3540 C3539 1.384 . S
C3540 H3558 0.928 . S
C3541 C3538 1.260 . S
C3541 C3539 1.479 . S
C3542 C3537 1.245 . S
C3542 C3538 1.477 . S
C3542 H3559 0.932 . S
C3543 U3526 2.882 . S
C3543 C3537 1.428 . S
C3543 O3546 1.301 . S
C3543 O3547 1.282 . S
O3544 U3526 2.441 . S
O3544 C3530 1.249 . S
O3545 U3526 2.420 . S
O3545 C3530 1.202 . S
O3546 U3526 2.455 . S
O3546 C3543 1.301 . S
O3547 U3526 2.449 . S
O3547 C3543 1.282 . S
H3548 C3521 0.931 . S
H3549 C3523 0.929 . S
H3550 C3524 0.930 . S
H3551 C3525 0.931 . S
H3552 C3532 0.932 . S
H3553 C3533 0.930 . S
H3554 C3534 0.929 . S
H3555 C3536 0.930 . S
H3556 C3538 0.932 . S
H3557 C3539 0.929 . S
H3558 C3540 0.928 . S
H3559 C3542 0.932 . S
C3560 C3561 1.264 . S
C3560 C3565 1.479 . S
C3560 C3570 1.465 . S
C3561 C3560 1.264 . S
C3561 C3563 1.339 . S
C3561 H3588 0.931 . S
C3562 C3563 1.395 . S
C3562 C3564 1.320 . S
C3563 C3561 1.339 . S
C3563 C3562 1.395 . S
C3563 H3589 0.929 . S
C3564 C3562 1.320 . S
C3564 C3565 1.405 . S
C3564 H3590 0.930 . S
C3565 C3560 1.479 . S
C3565 C3564 1.405 . S
C3565 H3591 0.931 . S
U3566 O3567 2.454 . S
U3566 O3568 2.458 . S
U3566 C3569 2.984 . S
U3566 C3570 2.847 . S
U3566 C3583 2.882 . S
U3566 O3584 2.441 . S
U3566 O3585 2.420 . S
U3566 O3586 2.455 . S
U3566 O3587 2.449 . S
O3567 U3566 2.454 . S
O3567 C3569 1.353 . S
O3568 U3566 2.458 . S
O3568 C3569 1.286 . S
C3569 U3566 2.984 . S
C3569 O3567 1.353 . S
C3569 O3568 1.286 . S
C3569 C3571 1.363 . S
C3570 C3560 1.465 . S
C3570 U3566 2.847 . S
C3570 O3584 1.249 . S
C3570 O3585 1.202 . S
C3571 C3569 1.363 . S
C3571 C3573 1.408 . S
C3571 C3576 1.342 . S
C3572 C3573 1.310 . S
C3572 C3575 1.461 . S
C3572 H3592 0.932 . S
C3573 C3571 1.408 . S
C3573 C3572 1.310 . S
C3573 H3593 0.930 . S
C3574 C3575 1.474 . S
C3574 C3576 1.285 . S
C3574 H3594 0.929 . S
C3575 C3572 1.461 . S
C3575 C3574 1.474 . S
C3576 C3571 1.342 . S
C3576 C3574 1.285 . S
C3576 H3595 0.930 . S
C3577 C3580 1.424 . S
C3577 C3582 1.245 . S
C3577 C3583 1.428 . S
C3578 C3581 1.260 . S
C3578 C3582 1.477 . S
C3578 H3596 0.932 . S
C3579 C3580 1.384 . S
C3579 C3581 1.479 . S
C3579 H3597 0.929 . S
C3580 C3577 1.424 . S
C3580 C3579 1.384 . S
C3580 H3598 0.928 . S
C3581 C3578 1.260 . S
C3581 C3579 1.479 . S
C3582 C3577 1.245 . S
C3582 C3578 1.477 . S
C3582 H3599 0.932 . S
C3583 U3566 2.882 . S
C3583 C3577 1.428 . S
C3583 O3586 1.301 . S
C3583 O3587 1.282 . S
O3584 U3566 2.441 . S
O3584 C3570 1.249 . S
O3585 U3566 2.420 . S
O3585 C3570 1.202 . S
O3586 U3566 2.455 . S
O3586 C3583 1.301 . S
O3587 U3566 2.449 . S
O3587 C3583 1.282 . S
H3588 C3561 0.931 . S
H3589 C3563 0.929 . S
H3590 C3564 0.930 . S
H3591 C3565 0.931 . S
H3592 C3572 0.932 . S
H3593 C3573 0.930 . S
H3594 C3574 0.929 . S
H3595 C3576 0.930 . S
H3596 C3578 0.932 . S
H3597 C3579 0.929 . S
H3598 C3580 0.928 . S
H3599 C3582 0.932 . S
C3600 C3601 1.264 . S
C3600 C3605 1.479 . S
C3600 C3610 1.465 . S
C3601 C3600 1.264 . S
C3601 C3603 1.339 . S
C3601 H3628 0.931 . S
C3602 C3603 1.395 . S
C3602 C3604 1.320 . S
C3603 C3601 1.339 . S
C3603 C3602 1.395 . S
C3603 H3629 0.929 . S
C3604 C3602 1.320 . S
C3604 C3605 1.405 . S
C3604 H3630 0.930 . S
C3605 C3600 1.479 . S
C3605 C3604 1.405 . S
C3605 H3631 0.931 . S
U3606 O3607 2.454 . S
U3606 O3608 2.458 . S
U3606 C3609 2.984 . S
U3606 C3610 2.847 . S
U3606 C3623 2.882 . S
U3606 O3624 2.441 . S
U3606 O3625 2.420 . S
U3606 O3626 2.455 . S
U3606 O3627 2.449 . S
O3607 U3606 2.454 . S
O3607 C3609 1.353 . S
O3608 U3606 2.458 . S
O3608 C3609 1.286 . S
C3609 U3606 2.984 . S
C3609 O3607 1.353 . S
C3609 O3608 1.286 . S
C3609 C3611 1.363 . S
C3610 C3600 1.465 . S
C3610 U3606 2.847 . S
C3610 O3624 1.249 . S
C3610 O3625 1.202 . S
C3611 C3609 1.363 . S
C3611 C3613 1.408 . S
C3611 C3616 1.342 . S
C3612 C3613 1.310 . S
C3612 C3615 1.461 . S
C3612 H3632 0.932 . S
C3613 C3611 1.408 . S
C3613 C3612 1.310 . S
C3613 H3633 0.930 . S
C3614 C3615 1.474 . S
C3614 C3616 1.285 . S
C3614 H3634 0.929 . S
C3615 C3612 1.461 . S
C3615 C3614 1.474 . S
C3616 C3611 1.342 . S
C3616 C3614 1.285 . S
C3616 H3635 0.930 . S
C3617 C3620 1.424 . S
C3617 C3622 1.245 . S
C3617 C3623 1.428 . S
C3618 C3621 1.260 . S
C3618 C3622 1.477 . S
C3618 H3636 0.932 . S
C3619 C3620 1.384 . S
C3619 C3621 1.479 . S
C3619 H3637 0.929 . S
C3620 C3617 1.424 . S
C3620 C3619 1.384 . S
C3620 H3638 0.928 . S
C3621 C3618 1.260 . S
C3621 C3619 1.479 . S
C3622 C3617 1.245 . S
C3622 C3618 1.477 . S
C3622 H3639 0.932 . S
C3623 U3606 2.882 . S
C3623 C3617 1.428 . S
C3623 O3626 1.301 . S
C3623 O3627 1.282 . S
O3624 U3606 2.441 . S
O3624 C3610 1.249 . S
O3625 U3606 2.420 . S
O3625 C3610 1.202 . S
O3626 U3606 2.455 . S
O3626 C3623 1.301 . S
O3627 U3606 2.449 . S
O3627 C3623 1.282 . S
H3628 C3601 0.931 . S
H3629 C3603 0.929 . S
H3630 C3604 0.930 . S
H3631 C3605 0.931 . S
H3632 C3612 0.932 . S
H3633 C3613 0.930 . S
H3634 C3614 0.929 . S
H3635 C3616 0.930 . S
H3636 C3618 0.932 . S
H3637 C3619 0.929 . S
H3638 C3620 0.928 . S
H3639 C3622 0.932 . S
C3640 C3641 1.264 . S
C3640 C3645 1.479 . S
C3640 C3650 1.465 . S
C3641 C3640 1.264 . S
C3641 C3643 1.339 . S
C3641 H3668 0.931 . S
C3642 C3643 1.395 . S
C3642 C3644 1.320 . S
C3643 C3641 1.339 . S
C3643 C3642 1.395 . S
C3643 H3669 0.929 . S
C3644 C3642 1.320 . S
C3644 C3645 1.405 . S
C3644 H3670 0.930 . S
C3645 C3640 1.479 . S
C3645 C3644 1.405 . S
C3645 H3671 0.931 . S
U3646 O3647 2.454 . S
U3646 O3648 2.458 . S
U3646 C3649 2.984 . S
U3646 C3650 2.847 . S
U3646 C3663 2.882 . S
U3646 O3664 2.441 . S
U3646 O3665 2.420 . S
U3646 O3666 2.455 . S
U3646 O3667 2.449 . S
O3647 U3646 2.454 . S
O3647 C3649 1.353 . S
O3648 U3646 2.458 . S
O3648 C3649 1.286 . S
C3649 U3646 2.984 . S
C3649 O3647 1.353 . S
C3649 O3648 1.286 . S
C3649 C3651 1.363 . S
C3650 C3640 1.465 . S
C3650 U3646 2.847 . S
C3650 O3664 1.249 . S
C3650 O3665 1.202 . S
C3651 C3649 1.363 . S
C3651 C3653 1.408 . S
C3651 C3656 1.342 . S
C3652 C3653 1.310 . S
C3652 C3655 1.461 . S
C3652 H3672 0.932 . S
C3653 C3651 1.408 . S
C3653 C3652 1.310 . S
C3653 H3673 0.930 . S
C3654 C3655 1.474 . S
C3654 C3656 1.285 . S
C3654 H3674 0.929 . S
C3655 C3652 1.461 . S
C3655 C3654 1.474 . S
C3656 C3651 1.342 . S
C3656 C3654 1.285 . S
C3656 H3675 0.930 . S
C3657 C3660 1.424 . S
C3657 C3662 1.245 . S
C3657 C3663 1.428 . S
C3658 C3661 1.260 . S
C3658 C3662 1.477 . S
C3658 H3676 0.932 . S
C3659 C3660 1.384 . S
C3659 C3661 1.479 . S
C3659 H3677 0.929 . S
C3660 C3657 1.424 . S
C3660 C3659 1.384 . S
C3660 H3678 0.928 . S
C3661 C3658 1.260 . S
C3661 C3659 1.479 . S
C3662 C3657 1.245 . S
C3662 C3658 1.477 . S
C3662 H3679 0.932 . S
C3663 U3646 2.882 . S
C3663 C3657 1.428 . S
C3663 O3666 1.301 . S
C3663 O3667 1.282 . S
O3664 U3646 2.441 . S
O3664 C3650 1.249 . S
O3665 U3646 2.420 . S
O3665 C3650 1.202 . S
O3666 U3646 2.455 . S
O3666 C3663 1.301 . S
O3667 U3646 2.449 . S
O3667 C3663 1.282 . S
H3668 C3641 0.931 . S
H3669 C3643 0.929 . S
H3670 C3644 0.930 . S
H3671 C3645 0.931 . S
H3672 C3652 0.932 . S
H3673 C3653 0.930 . S
H3674 C3654 0.929 . S
H3675 C3656 0.930 . S
H3676 C3658 0.932 . S
H3677 C3659 0.929 . S
H3678 C3660 0.928 . S
H3679 C3662 0.932 . S
C3680 C3681 1.264 . S
C3680 C3685 1.479 . S
C3680 C3690 1.465 . S
C3681 C3680 1.264 . S
C3681 C3683 1.339 . S
C3681 H3708 0.931 . S
C3682 C3683 1.395 . S
C3682 C3684 1.320 . S
C3683 C3681 1.339 . S
C3683 C3682 1.395 . S
C3683 H3709 0.929 . S
C3684 C3682 1.320 . S
C3684 C3685 1.405 . S
C3684 H3710 0.930 . S
C3685 C3680 1.479 . S
C3685 C3684 1.405 . S
C3685 H3711 0.931 . S
U3686 O3687 2.454 . S
U3686 O3688 2.458 . S
U3686 C3689 2.984 . S
U3686 C3690 2.847 . S
U3686 C3703 2.882 . S
U3686 O3704 2.441 . S
U3686 O3705 2.420 . S
U3686 O3706 2.455 . S
U3686 O3707 2.449 . S
O3687 U3686 2.454 . S
O3687 C3689 1.353 . S
O3688 U3686 2.458 . S
O3688 C3689 1.286 . S
C3689 U3686 2.984 . S
C3689 O3687 1.353 . S
C3689 O3688 1.286 . S
C3689 C3691 1.363 . S
C3690 C3680 1.465 . S
C3690 U3686 2.847 . S
C3690 O3704 1.249 . S
C3690 O3705 1.202 . S
C3691 C3689 1.363 . S
C3691 C3693 1.408 . S
C3691 C3696 1.342 . S
C3692 C3693 1.310 . S
C3692 C3695 1.461 . S
C3692 H3712 0.932 . S
C3693 C3691 1.408 . S
C3693 C3692 1.310 . S
C3693 H3713 0.930 . S
C3694 C3695 1.474 . S
C3694 C3696 1.285 . S
C3694 H3714 0.929 . S
C3695 C3692 1.461 . S
C3695 C3694 1.474 . S
C3696 C3691 1.342 . S
C3696 C3694 1.285 . S
C3696 H3715 0.930 . S
C3697 C3700 1.424 . S
C3697 C3702 1.245 . S
C3697 C3703 1.428 . S
C3698 C3701 1.260 . S
C3698 C3702 1.477 . S
C3698 H3716 0.932 . S
C3699 C3700 1.384 . S
C3699 C3701 1.479 . S
C3699 H3717 0.929 . S
C3700 C3697 1.424 . S
C3700 C3699 1.384 . S
C3700 H3718 0.928 . S
C3701 C3698 1.260 . S
C3701 C3699 1.479 . S
C3702 C3697 1.245 . S
C3702 C3698 1.477 . S
C3702 H3719 0.932 . S
C3703 U3686 2.882 . S
C3703 C3697 1.428 . S
C3703 O3706 1.301 . S
C3703 O3707 1.282 . S
O3704 U3686 2.441 . S
O3704 C3690 1.249 . S
O3705 U3686 2.420 . S
O3705 C3690 1.202 . S
O3706 U3686 2.455 . S
O3706 C3703 1.301 . S
O3707 U3686 2.449 . S
O3707 C3703 1.282 . S
H3708 C3681 0.931 . S
H3709 C3683 0.929 . S
H3710 C3684 0.930 . S
H3711 C3685 0.931 . S
H3712 C3692 0.932 . S
H3713 C3693 0.930 . S
H3714 C3694 0.929 . S
H3715 C3696 0.930 . S
H3716 C3698 0.932 . S
H3717 C3699 0.929 . S
H3718 C3700 0.928 . S
H3719 C3702 0.932 . S
C3720 C3721 1.264 . S
C3720 C3725 1.479 . S
C3720 C3730 1.465 . S
C3721 C3720 1.264 . S
C3721 C3723 1.339 . S
C3721 H3748 0.931 . S
C3722 C3723 1.395 . S
C3722 C3724 1.320 . S
C3723 C3721 1.339 . S
C3723 C3722 1.395 . S
C3723 H3749 0.929 . S
C3724 C3722 1.320 . S
C3724 C3725 1.405 . S
C3724 H3750 0.930 . S
C3725 C3720 1.479 . S
C3725 C3724 1.405 . S
C3725 H3751 0.931 . S
U3726 O3727 2.454 . S
U3726 O3728 2.458 . S
U3726 C3729 2.984 . S
U3726 C3730 2.847 . S
U3726 C3743 2.882 . S
U3726 O3744 2.441 . S
U3726 O3745 2.420 . S
U3726 O3746 2.455 . S
U3726 O3747 2.449 . S
O3727 U3726 2.454 . S
O3727 C3729 1.353 . S
O3728 U3726 2.458 . S
O3728 C3729 1.286 . S
C3729 U3726 2.984 . S
C3729 O3727 1.353 . S
C3729 O3728 1.286 . S
C3729 C3731 1.363 . S
C3730 C3720 1.465 . S
C3730 U3726 2.847 . S
C3730 O3744 1.249 . S
C3730 O3745 1.202 . S
C3731 C3729 1.363 . S
C3731 C3733 1.408 . S
C3731 C3736 1.342 . S
C3732 C3733 1.310 . S
C3732 C3735 1.461 . S
C3732 H3752 0.932 . S
C3733 C3731 1.408 . S
C3733 C3732 1.310 . S
C3733 H3753 0.930 . S
C3734 C3735 1.474 . S
C3734 C3736 1.285 . S
C3734 H3754 0.929 . S
C3735 C3732 1.461 . S
C3735 C3734 1.474 . S
C3736 C3731 1.342 . S
C3736 C3734 1.285 . S
C3736 H3755 0.930 . S
C3737 C3740 1.424 . S
C3737 C3742 1.245 . S
C3737 C3743 1.428 . S
C3738 C3741 1.260 . S
C3738 C3742 1.477 . S
C3738 H3756 0.932 . S
C3739 C3740 1.384 . S
C3739 C3741 1.479 . S
C3739 H3757 0.929 . S
C3740 C3737 1.424 . S
C3740 C3739 1.384 . S
C3740 H3758 0.928 . S
C3741 C3738 1.260 . S
C3741 C3739 1.479 . S
C3742 C3737 1.245 . S
C3742 C3738 1.477 . S
C3742 H3759 0.932 . S
C3743 U3726 2.882 . S
C3743 C3737 1.428 . S
C3743 O3746 1.301 . S
C3743 O3747 1.282 . S
O3744 U3726 2.441 . S
O3744 C3730 1.249 . S
O3745 U3726 2.420 . S
O3745 C3730 1.202 . S
O3746 U3726 2.455 . S
O3746 C3743 1.301 . S
O3747 U3726 2.449 . S
O3747 C3743 1.282 . S
H3748 C3721 0.931 . S
H3749 C3723 0.929 . S
H3750 C3724 0.930 . S
H3751 C3725 0.931 . S
H3752 C3732 0.932 . S
H3753 C3733 0.930 . S
H3754 C3734 0.929 . S
H3755 C3736 0.930 . S
H3756 C3738 0.932 . S
H3757 C3739 0.929 . S
H3758 C3740 0.928 . S
H3759 C3742 0.932 . S
C3760 C3761 1.264 . S
C3760 C3765 1.479 . S
C3760 C3770 1.465 . S
C3761 C3760 1.264 . S
C3761 C3763 1.339 . S
C3761 H3788 0.931 . S
C3762 C3763 1.395 . S
C3762 C3764 1.320 . S
C3763 C3761 1.339 . S
C3763 C3762 1.395 . S
C3763 H3789 0.929 . S
C3764 C3762 1.320 . S
C3764 C3765 1.405 . S
C3764 H3790 0.930 . S
C3765 C3760 1.479 . S
C3765 C3764 1.405 . S
C3765 H3791 0.931 . S
U3766 O3767 2.454 . S
U3766 O3768 2.458 . S
U3766 C3769 2.984 . S
U3766 C3770 2.847 . S
U3766 C3783 2.882 . S
U3766 O3784 2.441 . S
U3766 O3785 2.420 . S
U3766 O3786 2.455 . S
U3766 O3787 2.449 . S
O3767 U3766 2.454 . S
O3767 C3769 1.353 . S
O3768 U3766 2.458 . S
O3768 C3769 1.286 . S
C3769 U3766 2.984 . S
C3769 O3767 1.353 . S
C3769 O3768 1.286 . S
C3769 C3771 1.363 . S
C3770 C3760 1.465 . S
C3770 U3766 2.847 . S
C3770 O3784 1.249 . S
C3770 O3785 1.202 . S
C3771 C3769 1.363 . S
C3771 C3773 1.408 . S
C3771 C3776 1.342 . S
C3772 C3773 1.310 . S
C3772 C3775 1.461 . S
C3772 H3792 0.932 . S
C3773 C3771 1.408 . S
C3773 C3772 1.310 . S
C3773 H3793 0.930 . S
C3774 C3775 1.474 . S
C3774 C3776 1.285 . S
C3774 H3794 0.929 . S
C3775 C3772 1.461 . S
C3775 C3774 1.474 . S
C3776 C3771 1.342 . S
C3776 C3774 1.285 . S
C3776 H3795 0.930 . S
C3777 C3780 1.424 . S
C3777 C3782 1.245 . S
C3777 C3783 1.428 . S
C3778 C3781 1.260 . S
C3778 C3782 1.477 . S
C3778 H3796 0.932 . S
C3779 C3780 1.384 . S
C3779 C3781 1.479 . S
C3779 H3797 0.929 . S
C3780 C3777 1.424 . S
C3780 C3779 1.384 . S
C3780 H3798 0.928 . S
C3781 C3778 1.260 . S
C3781 C3779 1.479 . S
C3782 C3777 1.245 . S
C3782 C3778 1.477 . S
C3782 H3799 0.932 . S
C3783 U3766 2.882 . S
C3783 C3777 1.428 . S
C3783 O3786 1.301 . S
C3783 O3787 1.282 . S
O3784 U3766 2.441 . S
O3784 C3770 1.249 . S
O3785 U3766 2.420 . S
O3785 C3770 1.202 . S
O3786 U3766 2.455 . S
O3786 C3783 1.301 . S
O3787 U3766 2.449 . S
O3787 C3783 1.282 . S
H3788 C3761 0.931 . S
H3789 C3763 0.929 . S
H3790 C3764 0.930 . S
H3791 C3765 0.931 . S
H3792 C3772 0.932 . S
H3793 C3773 0.930 . S
H3794 C3774 0.929 . S
H3795 C3776 0.930 . S
H3796 C3778 0.932 . S
H3797 C3779 0.929 . S
H3798 C3780 0.928 . S
H3799 C3782 0.932 . S
C3800 C3801 1.264 . S
C3800 C3805 1.479 . S
C3800 C3810 1.465 . S
C3801 C3800 1.264 . S
C3801 C3803 1.339 . S
C3801 H3828 0.931 . S
C3802 C3803 1.395 . S
C3802 C3804 1.320 . S
C3803 C3801 1.339 . S
C3803 C3802 1.395 . S
C3803 H3829 0.929 . S
C3804 C3802 1.320 . S
C3804 C3805 1.405 . S
C3804 H3830 0.930 . S
C3805 C3800 1.479 . S
C3805 C3804 1.405 . S
C3805 H3831 0.931 . S
U3806 O3807 2.454 . S
U3806 O3808 2.458 . S
U3806 C3809 2.984 . S
U3806 C3810 2.847 . S
U3806 C3823 2.882 . S
U3806 O3824 2.441 . S
U3806 O3825 2.420 . S
U3806 O3826 2.455 . S
U3806 O3827 2.449 . S
O3807 U3806 2.454 . S
O3807 C3809 1.353 . S
O3808 U3806 2.458 . S
O3808 C3809 1.286 . S
C3809 U3806 2.984 . S
C3809 O3807 1.353 . S
C3809 O3808 1.286 . S
C3809 C3811 1.363 . S
C3810 C3800 1.465 . S
C3810 U3806 2.847 . S
C3810 O3824 1.249 . S
C3810 O3825 1.202 . S
C3811 C3809 1.363 . S
C3811 C3813 1.408 . S
C3811 C3816 1.342 . S
C3812 C3813 1.310 . S
C3812 C3815 1.461 . S
C3812 H3832 0.932 . S
C3813 C3811 1.408 . S
C3813 C3812 1.310 . S
C3813 H3833 0.930 . S
C3814 C3815 1.474 . S
C3814 C3816 1.285 . S
C3814 H3834 0.929 . S
C3815 C3812 1.461 . S
C3815 C3814 1.474 . S
C3816 C3811 1.342 . S
C3816 C3814 1.285 . S
C3816 H3835 0.930 . S
C3817 C3820 1.424 . S
C3817 C3822 1.245 . S
C3817 C3823 1.428 . S
C3818 C3821 1.260 . S
C3818 C3822 1.477 . S
C3818 H3836 0.932 . S
C3819 C3820 1.384 . S
C3819 C3821 1.479 . S
C3819 H3837 0.929 . S
C3820 C3817 1.424 . S
C3820 C3819 1.384 . S
C3820 H3838 0.928 . S
C3821 C3818 1.260 . S
C3821 C3819 1.479 . S
C3822 C3817 1.245 . S
C3822 C3818 1.477 . S
C3822 H3839 0.932 . S
C3823 U3806 2.882 . S
C3823 C3817 1.428 . S
C3823 O3826 1.301 . S
C3823 O3827 1.282 . S
O3824 U3806 2.441 . S
O3824 C3810 1.249 . S
O3825 U3806 2.420 . S
O3825 C3810 1.202 . S
O3826 U3806 2.455 . S
O3826 C3823 1.301 . S
O3827 U3806 2.449 . S
O3827 C3823 1.282 . S
H3828 C3801 0.931 . S
H3829 C3803 0.929 . S
H3830 C3804 0.930 . S
H3831 C3805 0.931 . S
H3832 C3812 0.932 . S
H3833 C3813 0.930 . S
H3834 C3814 0.929 . S
H3835 C3816 0.930 . S
H3836 C3818 0.932 . S
H3837 C3819 0.929 . S
H3838 C3820 0.928 . S
H3839 C3822 0.932 . S
O3840 Cd3841 2.300 . S
O3840 C3847 1.275 . S
Cd3841 O3840 2.300 . S
Cd3841 O3849 2.381 . S
Cd3841 O3850 2.378 . S
O3842 Cd3843 2.385 . S
O3842 C3847 1.255 . S
Cd3843 O3842 2.385 . S
Cd3843 O3844 2.317 . S
O3844 Cd3843 2.317 . S
O3844 C3845 1.232 . S
C3845 O3844 1.232 . S
C3845 O3846 1.218 . S
O3846 C3845 1.218 . S
C3847 O3840 1.275 . S
C3847 O3842 1.255 . S
C3848 O3849 1.258 . S
C3848 O3850 1.256 . S
O3849 Cd3841 2.381 . S
O3849 C3848 1.258 . S
O3850 Cd3841 2.378 . S
O3850 C3848 1.256 . S
O3851 Cd3852 2.300 . S
O3851 C3858 1.275 . S
Cd3852 O3851 2.300 . S
Cd3852 O3860 2.381 . S
Cd3852 O3861 2.378 . S
O3853 Cd3854 2.385 . S
O3853 C3858 1.255 . S
Cd3854 O3853 2.385 . S
Cd3854 O3855 2.317 . S
O3855 Cd3854 2.317 . S
O3855 C3856 1.232 . S
C3856 O3855 1.232 . S
C3856 O3857 1.218 . S
O3857 C3856 1.218 . S
C3858 O3851 1.275 . S
C3858 O3853 1.255 . S
C3859 O3860 1.258 . S
C3859 O3861 1.256 . S
O3860 Cd3852 2.381 . S
O3860 C3859 1.258 . S
O3861 Cd3852 2.378 . S
O3861 C3859 1.256 . S
O3862 Cd3863 2.300 . S
O3862 C3869 1.275 . S
Cd3863 O3862 2.300 . S
Cd3863 O3871 2.381 . S
Cd3863 O3872 2.378 . S
O3864 Cd3865 2.385 . S
O3864 C3869 1.255 . S
Cd3865 O3864 2.385 . S
Cd3865 O3866 2.317 . S
O3866 Cd3865 2.317 . S
O3866 C3867 1.232 . S
C3867 O3866 1.232 . S
C3867 O3868 1.218 . S
O3868 C3867 1.218 . S
C3869 O3862 1.275 . S
C3869 O3864 1.255 . S
C3870 O3871 1.258 . S
C3870 O3872 1.256 . S
O3871 Cd3863 2.381 . S
O3871 C3870 1.258 . S
O3872 Cd3863 2.378 . S
O3872 C3870 1.256 . S
O3873 Cd3874 2.300 . S
O3873 C3880 1.275 . S
Cd3874 O3873 2.300 . S
Cd3874 O3882 2.381 . S
Cd3874 O3883 2.378 . S
O3875 Cd3876 2.385 . S
O3875 C3880 1.255 . S
Cd3876 O3875 2.385 . S
Cd3876 O3877 2.317 . S
O3877 Cd3876 2.317 . S
O3877 C3878 1.232 . S
C3878 O3877 1.232 . S
C3878 O3879 1.218 . S
O3879 C3878 1.218 . S
C3880 O3873 1.275 . S
C3880 O3875 1.255 . S
C3881 O3882 1.258 . S
C3881 O3883 1.256 . S
O3882 Cd3874 2.381 . S
O3882 C3881 1.258 . S
O3883 Cd3874 2.378 . S
O3883 C3881 1.256 . S
O3884 Cd3885 2.300 . S
O3884 C3891 1.275 . S
Cd3885 O3884 2.300 . S
Cd3885 O3893 2.381 . S
Cd3885 O3894 2.378 . S
O3886 Cd3887 2.385 . S
O3886 C3891 1.255 . S
Cd3887 O3886 2.385 . S
Cd3887 O3888 2.317 . S
O3888 Cd3887 2.317 . S
O3888 C3889 1.232 . S
C3889 O3888 1.232 . S
C3889 O3890 1.218 . S
O3890 C3889 1.218 . S
C3891 O3884 1.275 . S
C3891 O3886 1.255 . S
C3892 O3893 1.258 . S
C3892 O3894 1.256 . S
O3893 Cd3885 2.381 . S
O3893 C3892 1.258 . S
O3894 Cd3885 2.378 . S
O3894 C3892 1.256 . S
O3895 Cd3896 2.300 . S
O3895 C3902 1.275 . S
Cd3896 O3895 2.300 . S
Cd3896 O3904 2.381 . S
Cd3896 O3905 2.378 . S
O3897 Cd3898 2.385 . S
O3897 C3902 1.255 . S
Cd3898 O3897 2.385 . S
Cd3898 O3899 2.317 . S
O3899 Cd3898 2.317 . S
O3899 C3900 1.232 . S
C3900 O3899 1.232 . S
C3900 O3901 1.218 . S
O3901 C3900 1.218 . S
C3902 O3895 1.275 . S
C3902 O3897 1.255 . S
C3903 O3904 1.258 . S
C3903 O3905 1.256 . S
O3904 Cd3896 2.381 . S
O3904 C3903 1.258 . S
O3905 Cd3896 2.378 . S
O3905 C3903 1.256 . S
O3906 Cd3907 2.300 . S
O3906 C3913 1.275 . S
Cd3907 O3906 2.300 . S
Cd3907 O3915 2.381 . S
Cd3907 O3916 2.378 . S
O3908 Cd3909 2.385 . S
O3908 C3913 1.255 . S
Cd3909 O3908 2.385 . S
Cd3909 O3910 2.317 . S
O3910 Cd3909 2.317 . S
O3910 C3911 1.232 . S
C3911 O3910 1.232 . S
C3911 O3912 1.218 . S
O3912 C3911 1.218 . S
C3913 O3906 1.275 . S
C3913 O3908 1.255 . S
C3914 O3915 1.258 . S
C3914 O3916 1.256 . S
O3915 Cd3907 2.381 . S
O3915 C3914 1.258 . S
O3916 Cd3907 2.378 . S
O3916 C3914 1.256 . S
O3917 Cd3918 2.300 . S
O3917 C3924 1.275 . S
Cd3918 O3917 2.300 . S
Cd3918 O3926 2.381 . S
Cd3918 O3927 2.378 . S
O3919 Cd3920 2.385 . S
O3919 C3924 1.255 . S
Cd3920 O3919 2.385 . S
Cd3920 O3921 2.317 . S
O3921 Cd3920 2.317 . S
O3921 C3922 1.232 . S
C3922 O3921 1.232 . S
C3922 O3923 1.218 . S
O3923 C3922 1.218 . S
C3924 O3917 1.275 . S
C3924 O3919 1.255 . S
C3925 O3926 1.258 . S
C3925 O3927 1.256 . S
O3926 Cd3918 2.381 . S
O3926 C3925 1.258 . S
O3927 Cd3918 2.378 . S
O3927 C3925 1.256 . S
O3928 Cd3929 2.300 . S
O3928 C3935 1.275 . S
Cd3929 O3928 2.300 . S
Cd3929 O3937 2.381 . S
Cd3929 O3938 2.378 . S
O3930 Cd3931 2.385 . S
O3930 C3935 1.255 . S
Cd3931 O3930 2.385 . S
Cd3931 O3932 2.317 . S
O3932 Cd3931 2.317 . S
O3932 C3933 1.232 . S
C3933 O3932 1.232 . S
C3933 O3934 1.218 . S
O3934 C3933 1.218 . S
C3935 O3928 1.275 . S
C3935 O3930 1.255 . S
C3936 O3937 1.258 . S
C3936 O3938 1.256 . S
O3937 Cd3929 2.381 . S
O3937 C3936 1.258 . S
O3938 Cd3929 2.378 . S
O3938 C3936 1.256 . S
O3939 Cd3940 2.300 . S
O3939 C3946 1.275 . S
Cd3940 O3939 2.300 . S
Cd3940 O3948 2.381 . S
Cd3940 O3949 2.378 . S
O3941 Cd3942 2.385 . S
O3941 C3946 1.255 . S
Cd3942 O3941 2.385 . S
Cd3942 O3943 2.317 . S
O3943 Cd3942 2.317 . S
O3943 C3944 1.232 . S
C3944 O3943 1.232 . S
C3944 O3945 1.218 . S
O3945 C3944 1.218 . S
C3946 O3939 1.275 . S
C3946 O3941 1.255 . S
C3947 O3948 1.258 . S
C3947 O3949 1.256 . S
O3948 Cd3940 2.381 . S
O3948 C3947 1.258 . S
O3949 Cd3940 2.378 . S
O3949 C3947 1.256 . S
O3950 Cd3951 2.300 . S
O3950 C3957 1.275 . S
Cd3951 O3950 2.300 . S
Cd3951 O3959 2.381 . S
Cd3951 O3960 2.378 . S
O3952 Cd3953 2.385 . S
O3952 C3957 1.255 . S
Cd3953 O3952 2.385 . S
Cd3953 O3954 2.317 . S
O3954 Cd3953 2.317 . S
O3954 C3955 1.232 . S
C3955 O3954 1.232 . S
C3955 O3956 1.218 . S
O3956 C3955 1.218 . S
C3957 O3950 1.275 . S
C3957 O3952 1.255 . S
C3958 O3959 1.258 . S
C3958 O3960 1.256 . S
O3959 Cd3951 2.381 . S
O3959 C3958 1.258 . S
O3960 Cd3951 2.378 . S
O3960 C3958 1.256 . S
O3961 Cd3962 2.300 . S
O3961 C3968 1.275 . S
Cd3962 O3961 2.300 . S
Cd3962 O3970 2.381 . S
Cd3962 O3971 2.378 . S
O3963 Cd3964 2.385 . S
O3963 C3968 1.255 . S
Cd3964 O3963 2.385 . S
Cd3964 O3965 2.317 . S
O3965 Cd3964 2.317 . S
O3965 C3966 1.232 . S
C3966 O3965 1.232 . S
C3966 O3967 1.218 . S
O3967 C3966 1.218 . S
C3968 O3961 1.275 . S
C3968 O3963 1.255 . S
C3969 O3970 1.258 . S
C3969 O3971 1.256 . S
O3970 Cd3962 2.381 . S
O3970 C3969 1.258 . S
O3971 Cd3962 2.378 . S
O3971 C3969 1.256 . S
O3972 Cd3973 2.300 . S
O3972 C3979 1.275 . S
Cd3973 O3972 2.300 . S
Cd3973 O3981 2.381 . S
Cd3973 O3982 2.378 . S
O3974 Cd3975 2.385 . S
O3974 C3979 1.255 . S
Cd3975 O3974 2.385 . S
Cd3975 O3976 2.317 . S
O3976 Cd3975 2.317 . S
O3976 C3977 1.232 . S
C3977 O3976 1.232 . S
C3977 O3978 1.218 . S
O3978 C3977 1.218 . S
C3979 O3972 1.275 . S
C3979 O3974 1.255 . S
C3980 O3981 1.258 . S
C3980 O3982 1.256 . S
O3981 Cd3973 2.381 . S
O3981 C3980 1.258 . S
O3982 Cd3973 2.378 . S
O3982 C3980 1.256 . S
O3983 Cd3984 2.300 . S
O3983 C3990 1.275 . S
Cd3984 O3983 2.300 . S
Cd3984 O3992 2.381 . S
Cd3984 O3993 2.378 . S
O3985 Cd3986 2.385 . S
O3985 C3990 1.255 . S
Cd3986 O3985 2.385 . S
Cd3986 O3987 2.317 . S
O3987 Cd3986 2.317 . S
O3987 C3988 1.232 . S
C3988 O3987 1.232 . S
C3988 O3989 1.218 . S
O3989 C3988 1.218 . S
C3990 O3983 1.275 . S
C3990 O3985 1.255 . S
C3991 O3992 1.258 . S
C3991 O3993 1.256 . S
O3992 Cd3984 2.381 . S
O3992 C3991 1.258 . S
O3993 Cd3984 2.378 . S
O3993 C3991 1.256 . S
O3994 Cd3995 2.300 . S
O3994 C4001 1.275 . S
Cd3995 O3994 2.300 . S
Cd3995 O4003 2.381 . S
Cd3995 O4004 2.378 . S
O3996 Cd3997 2.385 . S
O3996 C4001 1.255 . S
Cd3997 O3996 2.385 . S
Cd3997 O3998 2.317 . S
O3998 Cd3997 2.317 . S
O3998 C3999 1.232 . S
C3999 O3998 1.232 . S
C3999 O4000 1.218 . S
O4000 C3999 1.218 . S
C4001 O3994 1.275 . S
C4001 O3996 1.255 . S
C4002 O4003 1.258 . S
C4002 O4004 1.256 . S
O4003 Cd3995 2.381 . S
O4003 C4002 1.258 . S
O4004 Cd3995 2.378 . S
O4004 C4002 1.256 . S
O4005 Cd4006 2.300 . S
O4005 C4012 1.275 . S
Cd4006 O4005 2.300 . S
Cd4006 O4014 2.381 . S
Cd4006 O4015 2.378 . S
O4007 Cd4008 2.385 . S
O4007 C4012 1.255 . S
Cd4008 O4007 2.385 . S
Cd4008 O4009 2.317 . S
O4009 Cd4008 2.317 . S
O4009 C4010 1.232 . S
C4010 O4009 1.232 . S
C4010 O4011 1.218 . S
O4011 C4010 1.218 . S
C4012 O4005 1.275 . S
C4012 O4007 1.255 . S
C4013 O4014 1.258 . S
C4013 O4015 1.256 . S
O4014 Cd4006 2.381 . S
O4014 C4013 1.258 . S
O4015 Cd4006 2.378 . S
O4015 C4013 1.256 . S
O4016 Cd4017 2.300 . S
O4016 C4023 1.275 . S
Cd4017 O4016 2.300 . S
Cd4017 O4025 2.381 . S
Cd4017 O4026 2.378 . S
O4018 Cd4019 2.385 . S
O4018 C4023 1.255 . S
Cd4019 O4018 2.385 . S
Cd4019 O4020 2.317 . S
O4020 Cd4019 2.317 . S
O4020 C4021 1.232 . S
C4021 O4020 1.232 . S
C4021 O4022 1.218 . S
O4022 C4021 1.218 . S
C4023 O4016 1.275 . S
C4023 O4018 1.255 . S
C4024 O4025 1.258 . S
C4024 O4026 1.256 . S
O4025 Cd4017 2.381 . S
O4025 C4024 1.258 . S
O4026 Cd4017 2.378 . S
O4026 C4024 1.256 . S
O4027 Cd4028 2.300 . S
O4027 C4034 1.275 . S
Cd4028 O4027 2.300 . S
Cd4028 O4036 2.381 . S
Cd4028 O4037 2.378 . S
O4029 Cd4030 2.385 . S
O4029 C4034 1.255 . S
Cd4030 O4029 2.385 . S
Cd4030 O4031 2.317 . S
O4031 Cd4030 2.317 . S
O4031 C4032 1.232 . S
C4032 O4031 1.232 . S
C4032 O4033 1.218 . S
O4033 C4032 1.218 . S
C4034 O4027 1.275 . S
C4034 O4029 1.255 . S
C4035 O4036 1.258 . S
C4035 O4037 1.256 . S
O4036 Cd4028 2.381 . S
O4036 C4035 1.258 . S
O4037 Cd4028 2.378 . S
O4037 C4035 1.256 . S
O4038 Cd4039 2.300 . S
O4038 C4045 1.275 . S
Cd4039 O4038 2.300 . S
Cd4039 O4047 2.381 . S
Cd4039 O4048 2.378 . S
O4040 Cd4041 2.385 . S
O4040 C4045 1.255 . S
Cd4041 O4040 2.385 . S
Cd4041 O4042 2.317 . S
O4042 Cd4041 2.317 . S
O4042 C4043 1.232 . S
C4043 O4042 1.232 . S
C4043 O4044 1.218 . S
O4044 C4043 1.218 . S
C4045 O4038 1.275 . S
C4045 O4040 1.255 . S
C4046 O4047 1.258 . S
C4046 O4048 1.256 . S
O4047 Cd4039 2.381 . S
O4047 C4046 1.258 . S
O4048 Cd4039 2.378 . S
O4048 C4046 1.256 . S
O4049 Cd4050 2.300 . S
O4049 C4056 1.275 . S
Cd4050 O4049 2.300 . S
Cd4050 O4058 2.381 . S
Cd4050 O4059 2.378 . S
O4051 Cd4052 2.385 . S
O4051 C4056 1.255 . S
Cd4052 O4051 2.385 . S
Cd4052 O4053 2.317 . S
O4053 Cd4052 2.317 . S
O4053 C4054 1.232 . S
C4054 O4053 1.232 . S
C4054 O4055 1.218 . S
O4055 C4054 1.218 . S
C4056 O4049 1.275 . S
C4056 O4051 1.255 . S
C4057 O4058 1.258 . S
C4057 O4059 1.256 . S
O4058 Cd4050 2.381 . S
O4058 C4057 1.258 . S
O4059 Cd4050 2.378 . S
O4059 C4057 1.256 . S
O4060 Cd4061 2.300 . S
O4060 C4067 1.275 . S
Cd4061 O4060 2.300 . S
Cd4061 O4069 2.381 . S
Cd4061 O4070 2.378 . S
O4062 Cd4063 2.385 . S
O4062 C4067 1.255 . S
Cd4063 O4062 2.385 . S
Cd4063 O4064 2.317 . S
O4064 Cd4063 2.317 . S
O4064 C4065 1.232 . S
C4065 O4064 1.232 . S
C4065 O4066 1.218 . S
O4066 C4065 1.218 . S
C4067 O4060 1.275 . S
C4067 O4062 1.255 . S
C4068 O4069 1.258 . S
C4068 O4070 1.256 . S
O4069 Cd4061 2.381 . S
O4069 C4068 1.258 . S
O4070 Cd4061 2.378 . S
O4070 C4068 1.256 . S
O4071 Cd4072 2.300 . S
O4071 C4078 1.275 . S
Cd4072 O4071 2.300 . S
Cd4072 O4080 2.381 . S
Cd4072 O4081 2.378 . S
O4073 Cd4074 2.385 . S
O4073 C4078 1.255 . S
Cd4074 O4073 2.385 . S
Cd4074 O4075 2.317 . S
O4075 Cd4074 2.317 . S
O4075 C4076 1.232 . S
C4076 O4075 1.232 . S
C4076 O4077 1.218 . S
O4077 C4076 1.218 . S
C4078 O4071 1.275 . S
C4078 O4073 1.255 . S
C4079 O4080 1.258 . S
C4079 O4081 1.256 . S
O4080 Cd4072 2.381 . S
O4080 C4079 1.258 . S
O4081 Cd4072 2.378 . S
O4081 C4079 1.256 . S
O4082 Cd4083 2.300 . S
O4082 C4089 1.275 . S
Cd4083 O4082 2.300 . S
Cd4083 O4091 2.381 . S
Cd4083 O4092 2.378 . S
O4084 Cd4085 2.385 . S
O4084 C4089 1.255 . S
Cd4085 O4084 2.385 . S
Cd4085 O4086 2.317 . S
O4086 Cd4085 2.317 . S
O4086 C4087 1.232 . S
C4087 O4086 1.232 . S
C4087 O4088 1.218 . S
O4088 C4087 1.218 . S
C4089 O4082 1.275 . S
C4089 O4084 1.255 . S
C4090 O4091 1.258 . S
C4090 O4092 1.256 . S
O4091 Cd4083 2.381 . S
O4091 C4090 1.258 . S
O4092 Cd4083 2.378 . S
O4092 C4090 1.256 . S
O4093 Cd4094 2.300 . S
O4093 C4100 1.275 . S
Cd4094 O4093 2.300 . S
Cd4094 O4102 2.381 . S
Cd4094 O4103 2.378 . S
O4095 Cd4096 2.385 . S
O4095 C4100 1.255 . S
Cd4096 O4095 2.385 . S
Cd4096 O4097 2.317 . S
O4097 Cd4096 2.317 . S
O4097 C4098 1.232 . S
C4098 O4097 1.232 . S
C4098 O4099 1.218 . S
O4099 C4098 1.218 . S
C4100 O4093 1.275 . S
C4100 O4095 1.255 . S
C4101 O4102 1.258 . S
C4101 O4103 1.256 . S
O4102 Cd4094 2.381 . S
O4102 C4101 1.258 . S
O4103 Cd4094 2.378 . S
O4103 C4101 1.256 . S
O4104 Cd4105 2.300 . S
O4104 C4111 1.275 . S
Cd4105 O4104 2.300 . S
Cd4105 O4113 2.381 . S
Cd4105 O4114 2.378 . S
O4106 Cd4107 2.385 . S
O4106 C4111 1.255 . S
Cd4107 O4106 2.385 . S
Cd4107 O4108 2.317 . S
O4108 Cd4107 2.317 . S
O4108 C4109 1.232 . S
C4109 O4108 1.232 . S
C4109 O4110 1.218 . S
O4110 C4109 1.218 . S
C4111 O4104 1.275 . S
C4111 O4106 1.255 . S
C4112 O4113 1.258 . S
C4112 O4114 1.256 . S
O4113 Cd4105 2.381 . S
O4113 C4112 1.258 . S
O4114 Cd4105 2.378 . S
O4114 C4112 1.256 . S
O4115 Cd4116 2.300 . S
O4115 C4122 1.275 . S
Cd4116 O4115 2.300 . S
Cd4116 O4124 2.381 . S
Cd4116 O4125 2.378 . S
O4117 Cd4118 2.385 . S
O4117 C4122 1.255 . S
Cd4118 O4117 2.385 . S
Cd4118 O4119 2.317 . S
O4119 Cd4118 2.317 . S
O4119 C4120 1.232 . S
C4120 O4119 1.232 . S
C4120 O4121 1.218 . S
O4121 C4120 1.218 . S
C4122 O4115 1.275 . S
C4122 O4117 1.255 . S
C4123 O4124 1.258 . S
C4123 O4125 1.256 . S
O4124 Cd4116 2.381 . S
O4124 C4123 1.258 . S
O4125 Cd4116 2.378 . S
O4125 C4123 1.256 . S
O4126 Cd4127 2.300 . S
O4126 C4133 1.275 . S
Cd4127 O4126 2.300 . S
Cd4127 O4135 2.381 . S
Cd4127 O4136 2.378 . S
O4128 Cd4129 2.385 . S
O4128 C4133 1.255 . S
Cd4129 O4128 2.385 . S
Cd4129 O4130 2.317 . S
O4130 Cd4129 2.317 . S
O4130 C4131 1.232 . S
C4131 O4130 1.232 . S
C4131 O4132 1.218 . S
O4132 C4131 1.218 . S
C4133 O4126 1.275 . S
C4133 O4128 1.255 . S
C4134 O4135 1.258 . S
C4134 O4136 1.256 . S
O4135 Cd4127 2.381 . S
O4135 C4134 1.258 . S
O4136 Cd4127 2.378 . S
O4136 C4134 1.256 . S
O4137 Cd4138 2.300 . S
O4137 C4144 1.275 . S
Cd4138 O4137 2.300 . S
Cd4138 O4146 2.381 . S
Cd4138 O4147 2.378 . S
O4139 Cd4140 2.385 . S
O4139 C4144 1.255 . S
Cd4140 O4139 2.385 . S
Cd4140 O4141 2.317 . S
O4141 Cd4140 2.317 . S
O4141 C4142 1.232 . S
C4142 O4141 1.232 . S
C4142 O4143 1.218 . S
O4143 C4142 1.218 . S
C4144 O4137 1.275 . S
C4144 O4139 1.255 . S
C4145 O4146 1.258 . S
C4145 O4147 1.256 . S
O4146 Cd4138 2.381 . S
O4146 C4145 1.258 . S
O4147 Cd4138 2.378 . S
O4147 C4145 1.256 . S
O4148 Cd4149 2.300 . S
O4148 C4155 1.275 . S
Cd4149 O4148 2.300 . S
Cd4149 O4157 2.381 . S
Cd4149 O4158 2.378 . S
O4150 Cd4151 2.385 . S
O4150 C4155 1.255 . S
Cd4151 O4150 2.385 . S
Cd4151 O4152 2.317 . S
O4152 Cd4151 2.317 . S
O4152 C4153 1.232 . S
C4153 O4152 1.232 . S
C4153 O4154 1.218 . S
O4154 C4153 1.218 . S
C4155 O4148 1.275 . S
C4155 O4150 1.255 . S
C4156 O4157 1.258 . S
C4156 O4158 1.256 . S
O4157 Cd4149 2.381 . S
O4157 C4156 1.258 . S
O4158 Cd4149 2.378 . S
O4158 C4156 1.256 . S
O4159 Cd4160 2.300 . S
O4159 C4166 1.275 . S
Cd4160 O4159 2.300 . S
Cd4160 O4168 2.381 . S
Cd4160 O4169 2.378 . S
O4161 Cd4162 2.385 . S
O4161 C4166 1.255 . S
Cd4162 O4161 2.385 . S
Cd4162 O4163 2.317 . S
O4163 Cd4162 2.317 . S
O4163 C4164 1.232 . S
C4164 O4163 1.232 . S
C4164 O4165 1.218 . S
O4165 C4164 1.218 . S
C4166 O4159 1.275 . S
C4166 O4161 1.255 . S
C4167 O4168 1.258 . S
C4167 O4169 1.256 . S
O4168 Cd4160 2.381 . S
O4168 C4167 1.258 . S
O4169 Cd4160 2.378 . S
O4169 C4167 1.256 . S
O4170 Cd4171 2.300 . S
O4170 C4177 1.275 . S
Cd4171 O4170 2.300 . S
Cd4171 O4179 2.381 . S
Cd4171 O4180 2.378 . S
O4172 Cd4173 2.385 . S
O4172 C4177 1.255 . S
Cd4173 O4172 2.385 . S
Cd4173 O4174 2.317 . S
O4174 Cd4173 2.317 . S
O4174 C4175 1.232 . S
C4175 O4174 1.232 . S
C4175 O4176 1.218 . S
O4176 C4175 1.218 . S
C4177 O4170 1.275 . S
C4177 O4172 1.255 . S
C4178 O4179 1.258 . S
C4178 O4180 1.256 . S
O4179 Cd4171 2.381 . S
O4179 C4178 1.258 . S
O4180 Cd4171 2.378 . S
O4180 C4178 1.256 . S
O4181 Cd4182 2.300 . S
O4181 C4188 1.275 . S
Cd4182 O4181 2.300 . S
Cd4182 O4190 2.381 . S
Cd4182 O4191 2.378 . S
O4183 Cd4184 2.385 . S
O4183 C4188 1.255 . S
Cd4184 O4183 2.385 . S
Cd4184 O4185 2.317 . S
O4185 Cd4184 2.317 . S
O4185 C4186 1.232 . S
C4186 O4185 1.232 . S
C4186 O4187 1.218 . S
O4187 C4186 1.218 . S
C4188 O4181 1.275 . S
C4188 O4183 1.255 . S
C4189 O4190 1.258 . S
C4189 O4191 1.256 . S
O4190 Cd4182 2.381 . S
O4190 C4189 1.258 . S
O4191 Cd4182 2.378 . S
O4191 C4189 1.256 . S
O4192 Cd4193 2.300 . S
O4192 C4199 1.275 . S
Cd4193 O4192 2.300 . S
Cd4193 O4201 2.381 . S
Cd4193 O4202 2.378 . S
O4194 Cd4195 2.385 . S
O4194 C4199 1.255 . S
Cd4195 O4194 2.385 . S
Cd4195 O4196 2.317 . S
O4196 Cd4195 2.317 . S
O4196 C4197 1.232 . S
C4197 O4196 1.232 . S
C4197 O4198 1.218 . S
O4198 C4197 1.218 . S
C4199 O4192 1.275 . S
C4199 O4194 1.255 . S
C4200 O4201 1.258 . S
C4200 O4202 1.256 . S
O4201 Cd4193 2.381 . S
O4201 C4200 1.258 . S
O4202 Cd4193 2.378 . S
O4202 C4200 1.256 . S
O4203 Cd4204 2.300 . S
O4203 C4210 1.275 . S
Cd4204 O4203 2.300 . S
Cd4204 O4212 2.381 . S
Cd4204 O4213 2.378 . S
O4205 Cd4206 2.385 . S
O4205 C4210 1.255 . S
Cd4206 O4205 2.385 . S
Cd4206 O4207 2.317 . S
O4207 Cd4206 2.317 . S
O4207 C4208 1.232 . S
C4208 O4207 1.232 . S
C4208 O4209 1.218 . S
O4209 C4208 1.218 . S
C4210 O4203 1.275 . S
C4210 O4205 1.255 . S
C4211 O4212 1.258 . S
C4211 O4213 1.256 . S
O4212 Cd4204 2.381 . S
O4212 C4211 1.258 . S
O4213 Cd4204 2.378 . S
O4213 C4211 1.256 . S
O4214 Cd4215 2.300 . S
O4214 C4221 1.275 . S
Cd4215 O4214 2.300 . S
Cd4215 O4223 2.381 . S
Cd4215 O4224 2.378 . S
O4216 Cd4217 2.385 . S
O4216 C4221 1.255 . S
Cd4217 O4216 2.385 . S
Cd4217 O4218 2.317 . S
O4218 Cd4217 2.317 . S
O4218 C4219 1.232 . S
C4219 O4218 1.232 . S
C4219 O4220 1.218 . S
O4220 C4219 1.218 . S
C4221 O4214 1.275 . S
C4221 O4216 1.255 . S
C4222 O4223 1.258 . S
C4222 O4224 1.256 . S
O4223 Cd4215 2.381 . S
O4223 C4222 1.258 . S
O4224 Cd4215 2.378 . S
O4224 C4222 1.256 . S
O4225 Cd4226 2.300 . S
O4225 C4232 1.275 . S
Cd4226 O4225 2.300 . S
Cd4226 O4234 2.381 . S
Cd4226 O4235 2.378 . S
O4227 Cd4228 2.385 . S
O4227 C4232 1.255 . S
Cd4228 O4227 2.385 . S
Cd4228 O4229 2.317 . S
O4229 Cd4228 2.317 . S
O4229 C4230 1.232 . S
C4230 O4229 1.232 . S
C4230 O4231 1.218 . S
O4231 C4230 1.218 . S
C4232 O4225 1.275 . S
C4232 O4227 1.255 . S
C4233 O4234 1.258 . S
C4233 O4235 1.256 . S
O4234 Cd4226 2.381 . S
O4234 C4233 1.258 . S
O4235 Cd4226 2.378 . S
O4235 C4233 1.256 . S
O4236 Cd4237 2.300 . S
O4236 C4243 1.275 . S
Cd4237 O4236 2.300 . S
Cd4237 O4245 2.381 . S
Cd4237 O4246 2.378 . S
O4238 Cd4239 2.385 . S
O4238 C4243 1.255 . S
Cd4239 O4238 2.385 . S
Cd4239 O4240 2.317 . S
O4240 Cd4239 2.317 . S
O4240 C4241 1.232 . S
C4241 O4240 1.232 . S
C4241 O4242 1.218 . S
O4242 C4241 1.218 . S
C4243 O4236 1.275 . S
C4243 O4238 1.255 . S
C4244 O4245 1.258 . S
C4244 O4246 1.256 . S
O4245 Cd4237 2.381 . S
O4245 C4244 1.258 . S
O4246 Cd4237 2.378 . S
O4246 C4244 1.256 . S
O4247 Cd4248 2.300 . S
O4247 C4254 1.275 . S
Cd4248 O4247 2.300 . S
Cd4248 O4256 2.381 . S
Cd4248 O4257 2.378 . S
O4249 Cd4250 2.385 . S
O4249 C4254 1.255 . S
Cd4250 O4249 2.385 . S
Cd4250 O4251 2.317 . S
O4251 Cd4250 2.317 . S
O4251 C4252 1.232 . S
C4252 O4251 1.232 . S
C4252 O4253 1.218 . S
O4253 C4252 1.218 . S
C4254 O4247 1.275 . S
C4254 O4249 1.255 . S
C4255 O4256 1.258 . S
C4255 O4257 1.256 . S
O4256 Cd4248 2.381 . S
O4256 C4255 1.258 . S
O4257 Cd4248 2.378 . S
O4257 C4255 1.256 . S
O4258 Cd4259 2.300 . S
O4258 C4265 1.275 . S
Cd4259 O4258 2.300 . S
Cd4259 O4267 2.381 . S
Cd4259 O4268 2.378 . S
O4260 Cd4261 2.385 . S
O4260 C4265 1.255 . S
Cd4261 O4260 2.385 . S
Cd4261 O4262 2.317 . S
O4262 Cd4261 2.317 . S
O4262 C4263 1.232 . S
C4263 O4262 1.232 . S
C4263 O4264 1.218 . S
O4264 C4263 1.218 . S
C4265 O4258 1.275 . S
C4265 O4260 1.255 . S
C4266 O4267 1.258 . S
C4266 O4268 1.256 . S
O4267 Cd4259 2.381 . S
O4267 C4266 1.258 . S
O4268 Cd4259 2.378 . S
O4268 C4266 1.256 . S
O4269 Cd4270 2.300 . S
O4269 C4276 1.275 . S
Cd4270 O4269 2.300 . S
Cd4270 O4278 2.381 . S
Cd4270 O4279 2.378 . S
O4271 Cd4272 2.385 . S
O4271 C4276 1.255 . S
Cd4272 O4271 2.385 . S
Cd4272 O4273 2.317 . S
O4273 Cd4272 2.317 . S
O4273 C4274 1.232 . S
C4274 O4273 1.232 . S
C4274 O4275 1.218 . S
O4275 C4274 1.218 . S
C4276 O4269 1.275 . S
C4276 O4271 1.255 . S
C4277 O4278 1.258 . S
C4277 O4279 1.256 . S
O4278 Cd4270 2.381 . S
O4278 C4277 1.258 . S
O4279 Cd4270 2.378 . S
O4279 C4277 1.256 . S
O4280 Cd4281 2.300 . S
O4280 C4287 1.275 . S
Cd4281 O4280 2.300 . S
Cd4281 O4289 2.381 . S
Cd4281 O4290 2.378 . S
O4282 Cd4283 2.385 . S
O4282 C4287 1.255 . S
Cd4283 O4282 2.385 . S
Cd4283 O4284 2.317 . S
O4284 Cd4283 2.317 . S
O4284 C4285 1.232 . S
C4285 O4284 1.232 . S
C4285 O4286 1.218 . S
O4286 C4285 1.218 . S
C4287 O4280 1.275 . S
C4287 O4282 1.255 . S
C4288 O4289 1.258 . S
C4288 O4290 1.256 . S
O4289 Cd4281 2.381 . S
O4289 C4288 1.258 . S
O4290 Cd4281 2.378 . S
O4290 C4288 1.256 . S
O4291 Cd4292 2.300 . S
O4291 C4298 1.275 . S
Cd4292 O4291 2.300 . S
Cd4292 O4300 2.381 . S
Cd4292 O4301 2.378 . S
O4293 Cd4294 2.385 . S
O4293 C4298 1.255 . S
Cd4294 O4293 2.385 . S
Cd4294 O4295 2.317 . S
O4295 Cd4294 2.317 . S
O4295 C4296 1.232 . S
C4296 O4295 1.232 . S
C4296 O4297 1.218 . S
O4297 C4296 1.218 . S
C4298 O4291 1.275 . S
C4298 O4293 1.255 . S
C4299 O4300 1.258 . S
C4299 O4301 1.256 . S
O4300 Cd4292 2.381 . S
O4300 C4299 1.258 . S
O4301 Cd4292 2.378 . S
O4301 C4299 1.256 . S
O4302 Cd4303 2.300 . S
O4302 C4309 1.275 . S
Cd4303 O4302 2.300 . S
Cd4303 O4311 2.381 . S
Cd4303 O4312 2.378 . S
O4304 Cd4305 2.385 . S
O4304 C4309 1.255 . S
Cd4305 O4304 2.385 . S
Cd4305 O4306 2.317 . S
O4306 Cd4305 2.317 . S
O4306 C4307 1.232 . S
C4307 O4306 1.232 . S
C4307 O4308 1.218 . S
O4308 C4307 1.218 . S
C4309 O4302 1.275 . S
C4309 O4304 1.255 . S
C4310 O4311 1.258 . S
C4310 O4312 1.256 . S
O4311 Cd4303 2.381 . S
O4311 C4310 1.258 . S
O4312 Cd4303 2.378 . S
O4312 C4310 1.256 . S
O4313 Cd4314 2.300 . S
O4313 C4320 1.275 . S
Cd4314 O4313 2.300 . S
Cd4314 O4322 2.381 . S
Cd4314 O4323 2.378 . S
O4315 Cd4316 2.385 . S
O4315 C4320 1.255 . S
Cd4316 O4315 2.385 . S
Cd4316 O4317 2.317 . S
O4317 Cd4316 2.317 . S
O4317 C4318 1.232 . S
C4318 O4317 1.232 . S
C4318 O4319 1.218 . S
O4319 C4318 1.218 . S
C4320 O4313 1.275 . S
C4320 O4315 1.255 . S
C4321 O4322 1.258 . S
C4321 O4323 1.256 . S
O4322 Cd4314 2.381 . S
O4322 C4321 1.258 . S
O4323 Cd4314 2.378 . S
O4323 C4321 1.256 . S
O4324 Cd4325 2.300 . S
O4324 C4331 1.275 . S
Cd4325 O4324 2.300 . S
Cd4325 O4333 2.381 . S
Cd4325 O4334 2.378 . S
O4326 Cd4327 2.385 . S
O4326 C4331 1.255 . S
Cd4327 O4326 2.385 . S
Cd4327 O4328 2.317 . S
O4328 Cd4327 2.317 . S
O4328 C4329 1.232 . S
C4329 O4328 1.232 . S
C4329 O4330 1.218 . S
O4330 C4329 1.218 . S
C4331 O4324 1.275 . S
C4331 O4326 1.255 . S
C4332 O4333 1.258 . S
C4332 O4334 1.256 . S
O4333 Cd4325 2.381 . S
O4333 C4332 1.258 . S
O4334 Cd4325 2.378 . S
O4334 C4332 1.256 . S
O4335 Cd4336 2.300 . S
O4335 C4342 1.275 . S
Cd4336 O4335 2.300 . S
Cd4336 O4344 2.381 . S
Cd4336 O4345 2.378 . S
O4337 Cd4338 2.385 . S
O4337 C4342 1.255 . S
Cd4338 O4337 2.385 . S
Cd4338 O4339 2.317 . S
O4339 Cd4338 2.317 . S
O4339 C4340 1.232 . S
C4340 O4339 1.232 . S
C4340 O4341 1.218 . S
O4341 C4340 1.218 . S
C4342 O4335 1.275 . S
C4342 O4337 1.255 . S
C4343 O4344 1.258 . S
C4343 O4345 1.256 . S
O4344 Cd4336 2.381 . S
O4344 C4343 1.258 . S
O4345 Cd4336 2.378 . S
O4345 C4343 1.256 . S
O4346 Cd4347 2.300 . S
O4346 C4353 1.275 . S
Cd4347 O4346 2.300 . S
Cd4347 O4355 2.381 . S
Cd4347 O4356 2.378 . S
O4348 Cd4349 2.385 . S
O4348 C4353 1.255 . S
Cd4349 O4348 2.385 . S
Cd4349 O4350 2.317 . S
O4350 Cd4349 2.317 . S
O4350 C4351 1.232 . S
C4351 O4350 1.232 . S
C4351 O4352 1.218 . S
O4352 C4351 1.218 . S
C4353 O4346 1.275 . S
C4353 O4348 1.255 . S
C4354 O4355 1.258 . S
C4354 O4356 1.256 . S
O4355 Cd4347 2.381 . S
O4355 C4354 1.258 . S
O4356 Cd4347 2.378 . S
O4356 C4354 1.256 . S
O4357 Cd4358 2.300 . S
O4357 C4364 1.275 . S
Cd4358 O4357 2.300 . S
Cd4358 O4366 2.381 . S
Cd4358 O4367 2.378 . S
O4359 Cd4360 2.385 . S
O4359 C4364 1.255 . S
Cd4360 O4359 2.385 . S
Cd4360 O4361 2.317 . S
O4361 Cd4360 2.317 . S
O4361 C4362 1.232 . S
C4362 O4361 1.232 . S
C4362 O4363 1.218 . S
O4363 C4362 1.218 . S
C4364 O4357 1.275 . S
C4364 O4359 1.255 . S
C4365 O4366 1.258 . S
C4365 O4367 1.256 . S
O4366 Cd4358 2.381 . S
O4366 C4365 1.258 . S
O4367 Cd4358 2.378 . S
O4367 C4365 1.256 . S
O4368 Cd4369 2.300 . S
O4368 C4375 1.275 . S
Cd4369 O4368 2.300 . S
Cd4369 O4377 2.381 . S
Cd4369 O4378 2.378 . S
O4370 Cd4371 2.385 . S
O4370 C4375 1.255 . S
Cd4371 O4370 2.385 . S
Cd4371 O4372 2.317 . S
O4372 Cd4371 2.317 . S
O4372 C4373 1.232 . S
C4373 O4372 1.232 . S
C4373 O4374 1.218 . S
O4374 C4373 1.218 . S
C4375 O4368 1.275 . S
C4375 O4370 1.255 . S
C4376 O4377 1.258 . S
C4376 O4378 1.256 . S
O4377 Cd4369 2.381 . S
O4377 C4376 1.258 . S
O4378 Cd4369 2.378 . S
O4378 C4376 1.256 . S
O4379 Cd4380 2.300 . S
O4379 C4386 1.275 . S
Cd4380 O4379 2.300 . S
Cd4380 O4388 2.381 . S
Cd4380 O4389 2.378 . S
O4381 Cd4382 2.385 . S
O4381 C4386 1.255 . S
Cd4382 O4381 2.385 . S
Cd4382 O4383 2.317 . S
O4383 Cd4382 2.317 . S
O4383 C4384 1.232 . S
C4384 O4383 1.232 . S
C4384 O4385 1.218 . S
O4385 C4384 1.218 . S
C4386 O4379 1.275 . S
C4386 O4381 1.255 . S
C4387 O4388 1.258 . S
C4387 O4389 1.256 . S
O4388 Cd4380 2.381 . S
O4388 C4387 1.258 . S
O4389 Cd4380 2.378 . S
O4389 C4387 1.256 . S
O4390 Cd4391 2.300 . S
O4390 C4397 1.275 . S
Cd4391 O4390 2.300 . S
Cd4391 O4399 2.381 . S
Cd4391 O4400 2.378 . S
O4392 Cd4393 2.385 . S
O4392 C4397 1.255 . S
Cd4393 O4392 2.385 . S
Cd4393 O4394 2.317 . S
O4394 Cd4393 2.317 . S
O4394 C4395 1.232 . S
C4395 O4394 1.232 . S
C4395 O4396 1.218 . S
O4396 C4395 1.218 . S
C4397 O4390 1.275 . S
C4397 O4392 1.255 . S
C4398 O4399 1.258 . S
C4398 O4400 1.256 . S
O4399 Cd4391 2.381 . S
O4399 C4398 1.258 . S
O4400 Cd4391 2.378 . S
O4400 C4398 1.256 . S
O4401 Cd4402 2.300 . S
O4401 C4408 1.275 . S
Cd4402 O4401 2.300 . S
Cd4402 O4410 2.381 . S
Cd4402 O4411 2.378 . S
O4403 Cd4404 2.385 . S
O4403 C4408 1.255 . S
Cd4404 O4403 2.385 . S
Cd4404 O4405 2.317 . S
O4405 Cd4404 2.317 . S
O4405 C4406 1.232 . S
C4406 O4405 1.232 . S
C4406 O4407 1.218 . S
O4407 C4406 1.218 . S
C4408 O4401 1.275 . S
C4408 O4403 1.255 . S
C4409 O4410 1.258 . S
C4409 O4411 1.256 . S
O4410 Cd4402 2.381 . S
O4410 C4409 1.258 . S
O4411 Cd4402 2.378 . S
O4411 C4409 1.256 . S
O4412 Cd4413 2.300 . S
O4412 C4419 1.275 . S
Cd4413 O4412 2.300 . S
Cd4413 O4421 2.381 . S
Cd4413 O4422 2.378 . S
O4414 Cd4415 2.385 . S
O4414 C4419 1.255 . S
Cd4415 O4414 2.385 . S
Cd4415 O4416 2.317 . S
O4416 Cd4415 2.317 . S
O4416 C4417 1.232 . S
C4417 O4416 1.232 . S
C4417 O4418 1.218 . S
O4418 C4417 1.218 . S
C4419 O4412 1.275 . S
C4419 O4414 1.255 . S
C4420 O4421 1.258 . S
C4420 O4422 1.256 . S
O4421 Cd4413 2.381 . S
O4421 C4420 1.258 . S
O4422 Cd4413 2.378 . S
O4422 C4420 1.256 . S
O4423 Cd4424 2.300 . S
O4423 C4430 1.275 . S
Cd4424 O4423 2.300 . S
Cd4424 O4432 2.381 . S
Cd4424 O4433 2.378 . S
O4425 Cd4426 2.385 . S
O4425 C4430 1.255 . S
Cd4426 O4425 2.385 . S
Cd4426 O4427 2.317 . S
O4427 Cd4426 2.317 . S
O4427 C4428 1.232 . S
C4428 O4427 1.232 . S
C4428 O4429 1.218 . S
O4429 C4428 1.218 . S
C4430 O4423 1.275 . S
C4430 O4425 1.255 . S
C4431 O4432 1.258 . S
C4431 O4433 1.256 . S
O4432 Cd4424 2.381 . S
O4432 C4431 1.258 . S
O4433 Cd4424 2.378 . S
O4433 C4431 1.256 . S
O4434 Cd4435 2.300 . S
O4434 C4441 1.275 . S
Cd4435 O4434 2.300 . S
Cd4435 O4443 2.381 . S
Cd4435 O4444 2.378 . S
O4436 Cd4437 2.385 . S
O4436 C4441 1.255 . S
Cd4437 O4436 2.385 . S
Cd4437 O4438 2.317 . S
O4438 Cd4437 2.317 . S
O4438 C4439 1.232 . S
C4439 O4438 1.232 . S
C4439 O4440 1.218 . S
O4440 C4439 1.218 . S
C4441 O4434 1.275 . S
C4441 O4436 1.255 . S
C4442 O4443 1.258 . S
C4442 O4444 1.256 . S
O4443 Cd4435 2.381 . S
O4443 C4442 1.258 . S
O4444 Cd4435 2.378 . S
O4444 C4442 1.256 . S
O4445 Cd4446 2.300 . S
O4445 C4452 1.275 . S
Cd4446 O4445 2.300 . S
Cd4446 O4454 2.381 . S
Cd4446 O4455 2.378 . S
O4447 Cd4448 2.385 . S
O4447 C4452 1.255 . S
Cd4448 O4447 2.385 . S
Cd4448 O4449 2.317 . S
O4449 Cd4448 2.317 . S
O4449 C4450 1.232 . S
C4450 O4449 1.232 . S
C4450 O4451 1.218 . S
O4451 C4450 1.218 . S
C4452 O4445 1.275 . S
C4452 O4447 1.255 . S
C4453 O4454 1.258 . S
C4453 O4455 1.256 . S
O4454 Cd4446 2.381 . S
O4454 C4453 1.258 . S
O4455 Cd4446 2.378 . S
O4455 C4453 1.256 . S
O4456 Cd4457 2.300 . S
O4456 C4463 1.275 . S
Cd4457 O4456 2.300 . S
Cd4457 O4465 2.381 . S
Cd4457 O4466 2.378 . S
O4458 Cd4459 2.385 . S
O4458 C4463 1.255 . S
Cd4459 O4458 2.385 . S
Cd4459 O4460 2.317 . S
O4460 Cd4459 2.317 . S
O4460 C4461 1.232 . S
C4461 O4460 1.232 . S
C4461 O4462 1.218 . S
O4462 C4461 1.218 . S
C4463 O4456 1.275 . S
C4463 O4458 1.255 . S
C4464 O4465 1.258 . S
C4464 O4466 1.256 . S
O4465 Cd4457 2.381 . S
O4465 C4464 1.258 . S
O4466 Cd4457 2.378 . S
O4466 C4464 1.256 . S
O4467 Cd4468 2.300 . S
O4467 C4474 1.275 . S
Cd4468 O4467 2.300 . S
Cd4468 O4476 2.381 . S
Cd4468 O4477 2.378 . S
O4469 Cd4470 2.385 . S
O4469 C4474 1.255 . S
Cd4470 O4469 2.385 . S
Cd4470 O4471 2.317 . S
O4471 Cd4470 2.317 . S
O4471 C4472 1.232 . S
C4472 O4471 1.232 . S
C4472 O4473 1.218 . S
O4473 C4472 1.218 . S
C4474 O4467 1.275 . S
C4474 O4469 1.255 . S
C4475 O4476 1.258 . S
C4475 O4477 1.256 . S
O4476 Cd4468 2.381 . S
O4476 C4475 1.258 . S
O4477 Cd4468 2.378 . S
O4477 C4475 1.256 . S
O4478 Cd4479 2.300 . S
O4478 C4485 1.275 . S
Cd4479 O4478 2.300 . S
Cd4479 O4487 2.381 . S
Cd4479 O4488 2.378 . S
O4480 Cd4481 2.385 . S
O4480 C4485 1.255 . S
Cd4481 O4480 2.385 . S
Cd4481 O4482 2.317 . S
O4482 Cd4481 2.317 . S
O4482 C4483 1.232 . S
C4483 O4482 1.232 . S
C4483 O4484 1.218 . S
O4484 C4483 1.218 . S
C4485 O4478 1.275 . S
C4485 O4480 1.255 . S
C4486 O4487 1.258 . S
C4486 O4488 1.256 . S
O4487 Cd4479 2.381 . S
O4487 C4486 1.258 . S
O4488 Cd4479 2.378 . S
O4488 C4486 1.256 . S
O4489 Cd4490 2.300 . S
O4489 C4496 1.275 . S
Cd4490 O4489 2.300 . S
Cd4490 O4498 2.381 . S
Cd4490 O4499 2.378 . S
O4491 Cd4492 2.385 . S
O4491 C4496 1.255 . S
Cd4492 O4491 2.385 . S
Cd4492 O4493 2.317 . S
O4493 Cd4492 2.317 . S
O4493 C4494 1.232 . S
C4494 O4493 1.232 . S
C4494 O4495 1.218 . S
O4495 C4494 1.218 . S
C4496 O4489 1.275 . S
C4496 O4491 1.255 . S
C4497 O4498 1.258 . S
C4497 O4499 1.256 . S
O4498 Cd4490 2.381 . S
O4498 C4497 1.258 . S
O4499 Cd4490 2.378 . S
O4499 C4497 1.256 . S
O4500 Cd4501 2.300 . S
O4500 C4507 1.275 . S
Cd4501 O4500 2.300 . S
Cd4501 O4509 2.381 . S
Cd4501 O4510 2.378 . S
O4502 Cd4503 2.385 . S
O4502 C4507 1.255 . S
Cd4503 O4502 2.385 . S
Cd4503 O4504 2.317 . S
O4504 Cd4503 2.317 . S
O4504 C4505 1.232 . S
C4505 O4504 1.232 . S
C4505 O4506 1.218 . S
O4506 C4505 1.218 . S
C4507 O4500 1.275 . S
C4507 O4502 1.255 . S
C4508 O4509 1.258 . S
C4508 O4510 1.256 . S
O4509 Cd4501 2.381 . S
O4509 C4508 1.258 . S
O4510 Cd4501 2.378 . S
O4510 C4508 1.256 . S
O4511 Cd4512 2.300 . S
O4511 C4518 1.275 . S
Cd4512 O4511 2.300 . S
Cd4512 O4520 2.381 . S
Cd4512 O4521 2.378 . S
O4513 Cd4514 2.385 . S
O4513 C4518 1.255 . S
Cd4514 O4513 2.385 . S
Cd4514 O4515 2.317 . S
O4515 Cd4514 2.317 . S
O4515 C4516 1.232 . S
C4516 O4515 1.232 . S
C4516 O4517 1.218 . S
O4517 C4516 1.218 . S
C4518 O4511 1.275 . S
C4518 O4513 1.255 . S
C4519 O4520 1.258 . S
C4519 O4521 1.256 . S
O4520 Cd4512 2.381 . S
O4520 C4519 1.258 . S
O4521 Cd4512 2.378 . S
O4521 C4519 1.256 . S
O4522 Cd4523 2.300 . S
O4522 C4529 1.275 . S
Cd4523 O4522 2.300 . S
Cd4523 O4531 2.381 . S
Cd4523 O4532 2.378 . S
O4524 Cd4525 2.385 . S
O4524 C4529 1.255 . S
Cd4525 O4524 2.385 . S
Cd4525 O4526 2.317 . S
O4526 Cd4525 2.317 . S
O4526 C4527 1.232 . S
C4527 O4526 1.232 . S
C4527 O4528 1.218 . S
O4528 C4527 1.218 . S
C4529 O4522 1.275 . S
C4529 O4524 1.255 . S
C4530 O4531 1.258 . S
C4530 O4532 1.256 . S
O4531 Cd4523 2.381 . S
O4531 C4530 1.258 . S
O4532 Cd4523 2.378 . S
O4532 C4530 1.256 . S
O4533 Cd4534 2.300 . S
O4533 C4540 1.275 . S
Cd4534 O4533 2.300 . S
Cd4534 O4542 2.381 . S
Cd4534 O4543 2.378 . S
O4535 Cd4536 2.385 . S
O4535 C4540 1.255 . S
Cd4536 O4535 2.385 . S
Cd4536 O4537 2.317 . S
O4537 Cd4536 2.317 . S
O4537 C4538 1.232 . S
C4538 O4537 1.232 . S
C4538 O4539 1.218 . S
O4539 C4538 1.218 . S
C4540 O4533 1.275 . S
C4540 O4535 1.255 . S
C4541 O4542 1.258 . S
C4541 O4543 1.256 . S
O4542 Cd4534 2.381 . S
O4542 C4541 1.258 . S
O4543 Cd4534 2.378 . S
O4543 C4541 1.256 . S
O4544 Cd4545 2.300 . S
O4544 C4551 1.275 . S
Cd4545 O4544 2.300 . S
Cd4545 O4553 2.381 . S
Cd4545 O4554 2.378 . S
O4546 Cd4547 2.385 . S
O4546 C4551 1.255 . S
Cd4547 O4546 2.385 . S
Cd4547 O4548 2.317 . S
O4548 Cd4547 2.317 . S
O4548 C4549 1.232 . S
C4549 O4548 1.232 . S
C4549 O4550 1.218 . S
O4550 C4549 1.218 . S
C4551 O4544 1.275 . S
C4551 O4546 1.255 . S
C4552 O4553 1.258 . S
C4552 O4554 1.256 . S
O4553 Cd4545 2.381 . S
O4553 C4552 1.258 . S
O4554 Cd4545 2.378 . S
O4554 C4552 1.256 . S
O4555 Cd4556 2.300 . S
O4555 C4562 1.275 . S
Cd4556 O4555 2.300 . S
Cd4556 O4564 2.381 . S
Cd4556 O4565 2.378 . S
O4557 Cd4558 2.385 . S
O4557 C4562 1.255 . S
Cd4558 O4557 2.385 . S
Cd4558 O4559 2.317 . S
O4559 Cd4558 2.317 . S
O4559 C4560 1.232 . S
C4560 O4559 1.232 . S
C4560 O4561 1.218 . S
O4561 C4560 1.218 . S
C4562 O4555 1.275 . S
C4562 O4557 1.255 . S
C4563 O4564 1.258 . S
C4563 O4565 1.256 . S
O4564 Cd4556 2.381 . S
O4564 C4563 1.258 . S
O4565 Cd4556 2.378 . S
O4565 C4563 1.256 . S
O4566 Cd4567 2.300 . S
O4566 C4573 1.275 . S
Cd4567 O4566 2.300 . S
Cd4567 O4575 2.381 . S
Cd4567 O4576 2.378 . S
O4568 Cd4569 2.385 . S
O4568 C4573 1.255 . S
Cd4569 O4568 2.385 . S
Cd4569 O4570 2.317 . S
O4570 Cd4569 2.317 . S
O4570 C4571 1.232 . S
C4571 O4570 1.232 . S
C4571 O4572 1.218 . S
O4572 C4571 1.218 . S
C4573 O4566 1.275 . S
C4573 O4568 1.255 . S
C4574 O4575 1.258 . S
C4574 O4576 1.256 . S
O4575 Cd4567 2.381 . S
O4575 C4574 1.258 . S
O4576 Cd4567 2.378 . S
O4576 C4574 1.256 . S
O4577 Cd4578 2.300 . S
O4577 C4584 1.275 . S
Cd4578 O4577 2.300 . S
Cd4578 O4586 2.381 . S
Cd4578 O4587 2.378 . S
O4579 Cd4580 2.385 . S
O4579 C4584 1.255 . S
Cd4580 O4579 2.385 . S
Cd4580 O4581 2.317 . S
O4581 Cd4580 2.317 . S
O4581 C4582 1.232 . S
C4582 O4581 1.232 . S
C4582 O4583 1.218 . S
O4583 C4582 1.218 . S
C4584 O4577 1.275 . S
C4584 O4579 1.255 . S
C4585 O4586 1.258 . S
C4585 O4587 1.256 . S
O4586 Cd4578 2.381 . S
O4586 C4585 1.258 . S
O4587 Cd4578 2.378 . S
O4587 C4585 1.256 . S
O4588 Cd4589 2.300 . S
O4588 C4595 1.275 . S
Cd4589 O4588 2.300 . S
Cd4589 O4597 2.381 . S
Cd4589 O4598 2.378 . S
O4590 Cd4591 2.385 . S
O4590 C4595 1.255 . S
Cd4591 O4590 2.385 . S
Cd4591 O4592 2.317 . S
O4592 Cd4591 2.317 . S
O4592 C4593 1.232 . S
C4593 O4592 1.232 . S
C4593 O4594 1.218 . S
O4594 C4593 1.218 . S
C4595 O4588 1.275 . S
C4595 O4590 1.255 . S
C4596 O4597 1.258 . S
C4596 O4598 1.256 . S
O4597 Cd4589 2.381 . S
O4597 C4596 1.258 . S
O4598 Cd4589 2.378 . S
O4598 C4596 1.256 . S
O4599 Cd4600 2.300 . S
O4599 C4606 1.275 . S
Cd4600 O4599 2.300 . S
Cd4600 O4608 2.381 . S
Cd4600 O4609 2.378 . S
O4601 Cd4602 2.385 . S
O4601 C4606 1.255 . S
Cd4602 O4601 2.385 . S
Cd4602 O4603 2.317 . S
O4603 Cd4602 2.317 . S
O4603 C4604 1.232 . S
C4604 O4603 1.232 . S
C4604 O4605 1.218 . S
O4605 C4604 1.218 . S
C4606 O4599 1.275 . S
C4606 O4601 1.255 . S
C4607 O4608 1.258 . S
C4607 O4609 1.256 . S
O4608 Cd4600 2.381 . S
O4608 C4607 1.258 . S
O4609 Cd4600 2.378 . S
O4609 C4607 1.256 . S
O4610 Cd4611 2.300 . S
O4610 C4617 1.275 . S
Cd4611 O4610 2.300 . S
Cd4611 O4619 2.381 . S
Cd4611 O4620 2.378 . S
O4612 Cd4613 2.385 . S
O4612 C4617 1.255 . S
Cd4613 O4612 2.385 . S
Cd4613 O4614 2.317 . S
O4614 Cd4613 2.317 . S
O4614 C4615 1.232 . S
C4615 O4614 1.232 . S
C4615 O4616 1.218 . S
O4616 C4615 1.218 . S
C4617 O4610 1.275 . S
C4617 O4612 1.255 . S
C4618 O4619 1.258 . S
C4618 O4620 1.256 . S
O4619 Cd4611 2.381 . S
O4619 C4618 1.258 . S
O4620 Cd4611 2.378 . S
O4620 C4618 1.256 . S
O4621 Cd4622 2.300 . S
O4621 C4628 1.275 . S
Cd4622 O4621 2.300 . S
Cd4622 O4630 2.381 . S
Cd4622 O4631 2.378 . S
O4623 Cd4624 2.385 . S
O4623 C4628 1.255 . S
Cd4624 O4623 2.385 . S
Cd4624 O4625 2.317 . S
O4625 Cd4624 2.317 . S
O4625 C4626 1.232 . S
C4626 O4625 1.232 . S
C4626 O4627 1.218 . S
O4627 C4626 1.218 . S
C4628 O4621 1.275 . S
C4628 O4623 1.255 . S
C4629 O4630 1.258 . S
C4629 O4631 1.256 . S
O4630 Cd4622 2.381 . S
O4630 C4629 1.258 . S
O4631 Cd4622 2.378 . S
O4631 C4629 1.256 . S
O4632 Cd4633 2.300 . S
O4632 C4639 1.275 . S
Cd4633 O4632 2.300 . S
Cd4633 O4641 2.381 . S
Cd4633 O4642 2.378 . S
O4634 Cd4635 2.385 . S
O4634 C4639 1.255 . S
Cd4635 O4634 2.385 . S
Cd4635 O4636 2.317 . S
O4636 Cd4635 2.317 . S
O4636 C4637 1.232 . S
C4637 O4636 1.232 . S
C4637 O4638 1.218 . S
O4638 C4637 1.218 . S
C4639 O4632 1.275 . S
C4639 O4634 1.255 . S
C4640 O4641 1.258 . S
C4640 O4642 1.256 . S
O4641 Cd4633 2.381 . S
O4641 C4640 1.258 . S
O4642 Cd4633 2.378 . S
O4642 C4640 1.256 . S
O4643 Cd4644 2.300 . S
O4643 C4650 1.275 . S
Cd4644 O4643 2.300 . S
Cd4644 O4652 2.381 . S
Cd4644 O4653 2.378 . S
O4645 Cd4646 2.385 . S
O4645 C4650 1.255 . S
Cd4646 O4645 2.385 . S
Cd4646 O4647 2.317 . S
O4647 Cd4646 2.317 . S
O4647 C4648 1.232 . S
C4648 O4647 1.232 . S
C4648 O4649 1.218 . S
O4649 C4648 1.218 . S
C4650 O4643 1.275 . S
C4650 O4645 1.255 . S
C4651 O4652 1.258 . S
C4651 O4653 1.256 . S
O4652 Cd4644 2.381 . S
O4652 C4651 1.258 . S
O4653 Cd4644 2.378 . S
O4653 C4651 1.256 . S
O4654 Cd4655 2.300 . S
O4654 C4661 1.275 . S
Cd4655 O4654 2.300 . S
Cd4655 O4663 2.381 . S
Cd4655 O4664 2.378 . S
O4656 Cd4657 2.385 . S
O4656 C4661 1.255 . S
Cd4657 O4656 2.385 . S
Cd4657 O4658 2.317 . S
O4658 Cd4657 2.317 . S
O4658 C4659 1.232 . S
C4659 O4658 1.232 . S
C4659 O4660 1.218 . S
O4660 C4659 1.218 . S
C4661 O4654 1.275 . S
C4661 O4656 1.255 . S
C4662 O4663 1.258 . S
C4662 O4664 1.256 . S
O4663 Cd4655 2.381 . S
O4663 C4662 1.258 . S
O4664 Cd4655 2.378 . S
O4664 C4662 1.256 . S
O4665 Cd4666 2.300 . S
O4665 C4672 1.275 . S
Cd4666 O4665 2.300 . S
Cd4666 O4674 2.381 . S
Cd4666 O4675 2.378 . S
O4667 Cd4668 2.385 . S
O4667 C4672 1.255 . S
Cd4668 O4667 2.385 . S
Cd4668 O4669 2.317 . S
O4669 Cd4668 2.317 . S
O4669 C4670 1.232 . S
C4670 O4669 1.232 . S
C4670 O4671 1.218 . S
O4671 C4670 1.218 . S
C4672 O4665 1.275 . S
C4672 O4667 1.255 . S
C4673 O4674 1.258 . S
C4673 O4675 1.256 . S
O4674 Cd4666 2.381 . S
O4674 C4673 1.258 . S
O4675 Cd4666 2.378 . S
O4675 C4673 1.256 . S
O4676 Cd4677 2.300 . S
O4676 C4683 1.275 . S
Cd4677 O4676 2.300 . S
Cd4677 O4685 2.381 . S
Cd4677 O4686 2.378 . S
O4678 Cd4679 2.385 . S
O4678 C4683 1.255 . S
Cd4679 O4678 2.385 . S
Cd4679 O4680 2.317 . S
O4680 Cd4679 2.317 . S
O4680 C4681 1.232 . S
C4681 O4680 1.232 . S
C4681 O4682 1.218 . S
O4682 C4681 1.218 . S
C4683 O4676 1.275 . S
C4683 O4678 1.255 . S
C4684 O4685 1.258 . S
C4684 O4686 1.256 . S
O4685 Cd4677 2.381 . S
O4685 C4684 1.258 . S
O4686 Cd4677 2.378 . S
O4686 C4684 1.256 . S
O4687 Cd4688 2.300 . S
O4687 C4694 1.275 . S
Cd4688 O4687 2.300 . S
Cd4688 O4696 2.381 . S
Cd4688 O4697 2.378 . S
O4689 Cd4690 2.385 . S
O4689 C4694 1.255 . S
Cd4690 O4689 2.385 . S
Cd4690 O4691 2.317 . S
O4691 Cd4690 2.317 . S
O4691 C4692 1.232 . S
C4692 O4691 1.232 . S
C4692 O4693 1.218 . S
O4693 C4692 1.218 . S
C4694 O4687 1.275 . S
C4694 O4689 1.255 . S
C4695 O4696 1.258 . S
C4695 O4697 1.256 . S
O4696 Cd4688 2.381 . S
O4696 C4695 1.258 . S
O4697 Cd4688 2.378 . S
O4697 C4695 1.256 . S
O4698 Cd4699 2.300 . S
O4698 C4705 1.275 . S
Cd4699 O4698 2.300 . S
Cd4699 O4707 2.381 . S
Cd4699 O4708 2.378 . S
O4700 Cd4701 2.385 . S
O4700 C4705 1.255 . S
Cd4701 O4700 2.385 . S
Cd4701 O4702 2.317 . S
O4702 Cd4701 2.317 . S
O4702 C4703 1.232 . S
C4703 O4702 1.232 . S
C4703 O4704 1.218 . S
O4704 C4703 1.218 . S
C4705 O4698 1.275 . S
C4705 O4700 1.255 . S
C4706 O4707 1.258 . S
C4706 O4708 1.256 . S
O4707 Cd4699 2.381 . S
O4707 C4706 1.258 . S
O4708 Cd4699 2.378 . S
O4708 C4706 1.256 . S
O4709 Cd4710 2.300 . S
O4709 C4716 1.275 . S
Cd4710 O4709 2.300 . S
Cd4710 O4718 2.381 . S
Cd4710 O4719 2.378 . S
O4711 Cd4712 2.385 . S
O4711 C4716 1.255 . S
Cd4712 O4711 2.385 . S
Cd4712 O4713 2.317 . S
O4713 Cd4712 2.317 . S
O4713 C4714 1.232 . S
C4714 O4713 1.232 . S
C4714 O4715 1.218 . S
O4715 C4714 1.218 . S
C4716 O4709 1.275 . S
C4716 O4711 1.255 . S
C4717 O4718 1.258 . S
C4717 O4719 1.256 . S
O4718 Cd4710 2.381 . S
O4718 C4717 1.258 . S
O4719 Cd4710 2.378 . S
O4719 C4717 1.256 . S
O4720 Cd4721 2.300 . S
O4720 C4727 1.275 . S
Cd4721 O4720 2.300 . S
Cd4721 O4729 2.381 . S
Cd4721 O4730 2.378 . S
O4722 Cd4723 2.385 . S
O4722 C4727 1.255 . S
Cd4723 O4722 2.385 . S
Cd4723 O4724 2.317 . S
O4724 Cd4723 2.317 . S
O4724 C4725 1.232 . S
C4725 O4724 1.232 . S
C4725 O4726 1.218 . S
O4726 C4725 1.218 . S
C4727 O4720 1.275 . S
C4727 O4722 1.255 . S
C4728 O4729 1.258 . S
C4728 O4730 1.256 . S
O4729 Cd4721 2.381 . S
O4729 C4728 1.258 . S
O4730 Cd4721 2.378 . S
O4730 C4728 1.256 . S
O4731 Cd4732 2.300 . S
O4731 C4738 1.275 . S
Cd4732 O4731 2.300 . S
Cd4732 O4740 2.381 . S
Cd4732 O4741 2.378 . S
O4733 Cd4734 2.385 . S
O4733 C4738 1.255 . S
Cd4734 O4733 2.385 . S
Cd4734 O4735 2.317 . S
O4735 Cd4734 2.317 . S
O4735 C4736 1.232 . S
C4736 O4735 1.232 . S
C4736 O4737 1.218 . S
O4737 C4736 1.218 . S
C4738 O4731 1.275 . S
C4738 O4733 1.255 . S
C4739 O4740 1.258 . S
C4739 O4741 1.256 . S
O4740 Cd4732 2.381 . S
O4740 C4739 1.258 . S
O4741 Cd4732 2.378 . S
O4741 C4739 1.256 . S
O4742 Cd4743 2.300 . S
O4742 C4749 1.275 . S
Cd4743 O4742 2.300 . S
Cd4743 O4751 2.381 . S
Cd4743 O4752 2.378 . S
O4744 Cd4745 2.385 . S
O4744 C4749 1.255 . S
Cd4745 O4744 2.385 . S
Cd4745 O4746 2.317 . S
O4746 Cd4745 2.317 . S
O4746 C4747 1.232 . S
C4747 O4746 1.232 . S
C4747 O4748 1.218 . S
O4748 C4747 1.218 . S
C4749 O4742 1.275 . S
C4749 O4744 1.255 . S
C4750 O4751 1.258 . S
C4750 O4752 1.256 . S
O4751 Cd4743 2.381 . S
O4751 C4750 1.258 . S
O4752 Cd4743 2.378 . S
O4752 C4750 1.256 . S
O4753 Cd4754 2.300 . S
O4753 C4760 1.275 . S
Cd4754 O4753 2.300 . S
Cd4754 O4762 2.381 . S
Cd4754 O4763 2.378 . S
O4755 Cd4756 2.385 . S
O4755 C4760 1.255 . S
Cd4756 O4755 2.385 . S
Cd4756 O4757 2.317 . S
O4757 Cd4756 2.317 . S
O4757 C4758 1.232 . S
C4758 O4757 1.232 . S
C4758 O4759 1.218 . S
O4759 C4758 1.218 . S
C4760 O4753 1.275 . S
C4760 O4755 1.255 . S
C4761 O4762 1.258 . S
C4761 O4763 1.256 . S
O4762 Cd4754 2.381 . S
O4762 C4761 1.258 . S
O4763 Cd4754 2.378 . S
O4763 C4761 1.256 . S
O4764 Cd4765 2.300 . S
O4764 C4771 1.275 . S
Cd4765 O4764 2.300 . S
Cd4765 O4773 2.381 . S
Cd4765 O4774 2.378 . S
O4766 Cd4767 2.385 . S
O4766 C4771 1.255 . S
Cd4767 O4766 2.385 . S
Cd4767 O4768 2.317 . S
O4768 Cd4767 2.317 . S
O4768 C4769 1.232 . S
C4769 O4768 1.232 . S
C4769 O4770 1.218 . S
O4770 C4769 1.218 . S
C4771 O4764 1.275 . S
C4771 O4766 1.255 . S
C4772 O4773 1.258 . S
C4772 O4774 1.256 . S
O4773 Cd4765 2.381 . S
O4773 C4772 1.258 . S
O4774 Cd4765 2.378 . S
O4774 C4772 1.256 . S
O4775 Cd4776 2.300 . S
O4775 C4782 1.275 . S
Cd4776 O4775 2.300 . S
Cd4776 O4784 2.381 . S
Cd4776 O4785 2.378 . S
O4777 Cd4778 2.385 . S
O4777 C4782 1.255 . S
Cd4778 O4777 2.385 . S
Cd4778 O4779 2.317 . S
O4779 Cd4778 2.317 . S
O4779 C4780 1.232 . S
C4780 O4779 1.232 . S
C4780 O4781 1.218 . S
O4781 C4780 1.218 . S
C4782 O4775 1.275 . S
C4782 O4777 1.255 . S
C4783 O4784 1.258 . S
C4783 O4785 1.256 . S
O4784 Cd4776 2.381 . S
O4784 C4783 1.258 . S
O4785 Cd4776 2.378 . S
O4785 C4783 1.256 . S
O4786 Cd4787 2.300 . S
O4786 C4793 1.275 . S
Cd4787 O4786 2.300 . S
Cd4787 O4795 2.381 . S
Cd4787 O4796 2.378 . S
O4788 Cd4789 2.385 . S
O4788 C4793 1.255 . S
Cd4789 O4788 2.385 . S
Cd4789 O4790 2.317 . S
O4790 Cd4789 2.317 . S
O4790 C4791 1.232 . S
C4791 O4790 1.232 . S
C4791 O4792 1.218 . S
O4792 C4791 1.218 . S
C4793 O4786 1.275 . S
C4793 O4788 1.255 . S
C4794 O4795 1.258 . S
C4794 O4796 1.256 . S
O4795 Cd4787 2.381 . S
O4795 C4794 1.258 . S
O4796 Cd4787 2.378 . S
O4796 C4794 1.256 . S
O4797 Cd4798 2.300 . S
O4797 C4804 1.275 . S
Cd4798 O4797 2.300 . S
Cd4798 O4806 2.381 . S
Cd4798 O4807 2.378 . S
O4799 Cd4800 2.385 . S
O4799 C4804 1.255 . S
Cd4800 O4799 2.385 . S
Cd4800 O4801 2.317 . S
O4801 Cd4800 2.317 . S
O4801 C4802 1.232 . S
C4802 O4801 1.232 . S
C4802 O4803 1.218 . S
O4803 C4802 1.218 . S
C4804 O4797 1.275 . S
C4804 O4799 1.255 . S
C4805 O4806 1.258 . S
C4805 O4807 1.256 . S
O4806 Cd4798 2.381 . S
O4806 C4805 1.258 . S
O4807 Cd4798 2.378 . S
O4807 C4805 1.256 . S
O4808 Cd4809 2.300 . S
O4808 C4815 1.275 . S
Cd4809 O4808 2.300 . S
Cd4809 O4817 2.381 . S
Cd4809 O4818 2.378 . S
O4810 Cd4811 2.385 . S
O4810 C4815 1.255 . S
Cd4811 O4810 2.385 . S
Cd4811 O4812 2.317 . S
O4812 Cd4811 2.317 . S
O4812 C4813 1.232 . S
C4813 O4812 1.232 . S
C4813 O4814 1.218 . S
O4814 C4813 1.218 . S
C4815 O4808 1.275 . S
C4815 O4810 1.255 . S
C4816 O4817 1.258 . S
C4816 O4818 1.256 . S
O4817 Cd4809 2.381 . S
O4817 C4816 1.258 . S
O4818 Cd4809 2.378 . S
O4818 C4816 1.256 . S
O4819 Cd4820 2.300 . S
O4819 C4826 1.275 . S
Cd4820 O4819 2.300 . S
Cd4820 O4828 2.381 . S
Cd4820 O4829 2.378 . S
O4821 Cd4822 2.385 . S
O4821 C4826 1.255 . S
Cd4822 O4821 2.385 . S
Cd4822 O4823 2.317 . S
O4823 Cd4822 2.317 . S
O4823 C4824 1.232 . S
C4824 O4823 1.232 . S
C4824 O4825 1.218 . S
O4825 C4824 1.218 . S
C4826 O4819 1.275 . S
C4826 O4821 1.255 . S
C4827 O4828 1.258 . S
C4827 O4829 1.256 . S
O4828 Cd4820 2.381 . S
O4828 C4827 1.258 . S
O4829 Cd4820 2.378 . S
O4829 C4827 1.256 . S
O4830 Cd4831 2.300 . S
O4830 C4837 1.275 . S
Cd4831 O4830 2.300 . S
Cd4831 O4839 2.381 . S
Cd4831 O4840 2.378 . S
O4832 Cd4833 2.385 . S
O4832 C4837 1.255 . S
Cd4833 O4832 2.385 . S
Cd4833 O4834 2.317 . S
O4834 Cd4833 2.317 . S
O4834 C4835 1.232 . S
C4835 O4834 1.232 . S
C4835 O4836 1.218 . S
O4836 C4835 1.218 . S
C4837 O4830 1.275 . S
C4837 O4832 1.255 . S
C4838 O4839 1.258 . S
C4838 O4840 1.256 . S
O4839 Cd4831 2.381 . S
O4839 C4838 1.258 . S
O4840 Cd4831 2.378 . S
O4840 C4838 1.256 . S
O4841 Cd4842 2.300 . S
O4841 C4848 1.275 . S
Cd4842 O4841 2.300 . S
Cd4842 O4850 2.381 . S
Cd4842 O4851 2.378 . S
O4843 Cd4844 2.385 . S
O4843 C4848 1.255 . S
Cd4844 O4843 2.385 . S
Cd4844 O4845 2.317 . S
O4845 Cd4844 2.317 . S
O4845 C4846 1.232 . S
C4846 O4845 1.232 . S
C4846 O4847 1.218 . S
O4847 C4846 1.218 . S
C4848 O4841 1.275 . S
C4848 O4843 1.255 . S
C4849 O4850 1.258 . S
C4849 O4851 1.256 . S
O4850 Cd4842 2.381 . S
O4850 C4849 1.258 . S
O4851 Cd4842 2.378 . S
O4851 C4849 1.256 . S
O4852 Cd4853 2.300 . S
O4852 C4859 1.275 . S
Cd4853 O4852 2.300 . S
Cd4853 O4861 2.381 . S
Cd4853 O4862 2.378 . S
O4854 Cd4855 2.385 . S
O4854 C4859 1.255 . S
Cd4855 O4854 2.385 . S
Cd4855 O4856 2.317 . S
O4856 Cd4855 2.317 . S
O4856 C4857 1.232 . S
C4857 O4856 1.232 . S
C4857 O4858 1.218 . S
O4858 C4857 1.218 . S
C4859 O4852 1.275 . S
C4859 O4854 1.255 . S
C4860 O4861 1.258 . S
C4860 O4862 1.256 . S
O4861 Cd4853 2.381 . S
O4861 C4860 1.258 . S
O4862 Cd4853 2.378 . S
O4862 C4860 1.256 . S
O4863 Cd4864 2.300 . S
O4863 C4870 1.275 . S
Cd4864 O4863 2.300 . S
Cd4864 O4872 2.381 . S
Cd4864 O4873 2.378 . S
O4865 Cd4866 2.385 . S
O4865 C4870 1.255 . S
Cd4866 O4865 2.385 . S
Cd4866 O4867 2.317 . S
O4867 Cd4866 2.317 . S
O4867 C4868 1.232 . S
C4868 O4867 1.232 . S
C4868 O4869 1.218 . S
O4869 C4868 1.218 . S
C4870 O4863 1.275 . S
C4870 O4865 1.255 . S
C4871 O4872 1.258 . S
C4871 O4873 1.256 . S
O4872 Cd4864 2.381 . S
O4872 C4871 1.258 . S
O4873 Cd4864 2.378 . S
O4873 C4871 1.256 . S
O4874 Cd4875 2.300 . S
O4874 C4881 1.275 . S
Cd4875 O4874 2.300 . S
Cd4875 O4883 2.381 . S
Cd4875 O4884 2.378 . S
O4876 Cd4877 2.385 . S
O4876 C4881 1.255 . S
Cd4877 O4876 2.385 . S
Cd4877 O4878 2.317 . S
O4878 Cd4877 2.317 . S
O4878 C4879 1.232 . S
C4879 O4878 1.232 . S
C4879 O4880 1.218 . S
O4880 C4879 1.218 . S
C4881 O4874 1.275 . S
C4881 O4876 1.255 . S
C4882 O4883 1.258 . S
C4882 O4884 1.256 . S
O4883 Cd4875 2.381 . S
O4883 C4882 1.258 . S
O4884 Cd4875 2.378 . S
O4884 C4882 1.256 . S
O4885 Cd4886 2.300 . S
O4885 C4892 1.275 . S
Cd4886 O4885 2.300 . S
Cd4886 O4894 2.381 . S
Cd4886 O4895 2.378 . S
O4887 Cd4888 2.385 . S
O4887 C4892 1.255 . S
Cd4888 O4887 2.385 . S
Cd4888 O4889 2.317 . S
O4889 Cd4888 2.317 . S
O4889 C4890 1.232 . S
C4890 O4889 1.232 . S
C4890 O4891 1.218 . S
O4891 C4890 1.218 . S
C4892 O4885 1.275 . S
C4892 O4887 1.255 . S
C4893 O4894 1.258 . S
C4893 O4895 1.256 . S
O4894 Cd4886 2.381 . S
O4894 C4893 1.258 . S
O4895 Cd4886 2.378 . S
O4895 C4893 1.256 . S
C4896 C4897 1.387 . S
C4896 H4900 0.950 . S
C4896 C4905 1.390 . S
C4897 C4896 1.387 . S
C4897 C4899 1.387 . S
H4898 C4905 0.950 . S
C4899 C4897 1.387 . S
C4899 C4901 1.390 1_455 S
C4899 H4903 0.950 . S
H4900 C4896 0.950 . S
C4901 C4899 1.390 1_655 S
C4901 C4902 1.387 . S
C4901 H4904 0.950 . S
C4902 C4901 1.387 . S
C4902 C4905 1.387 1_655 S
H4903 C4899 0.950 . S
H4904 C4901 0.950 . S
C4905 C4896 1.390 . S
C4905 H4898 0.950 . S
C4905 C4902 1.387 1_455 S
C4906 C4907 1.387 . S
C4906 H4910 0.950 . S
C4906 C4915 1.390 . S
C4907 C4906 1.387 . S
C4907 C4909 1.387 . S
H4908 C4915 0.950 . S
C4909 C4907 1.387 . S
C4909 C4911 1.390 . S
C4909 H4913 0.950 . S
H4910 C4906 0.950 . S
C4911 C4909 1.390 . S
C4911 C4912 1.387 . S
C4911 H4914 0.950 . S
C4912 C4911 1.387 . S
C4912 C4915 1.387 . S
H4913 C4909 0.950 . S
H4914 C4911 0.950 . S
C4915 C4906 1.390 . S
C4915 H4908 0.950 . S
C4915 C4912 1.387 . S
C4916 C4917 1.387 . S
C4916 H4920 0.950 . S
C4916 C4925 1.390 . S
C4917 C4916 1.387 . S
C4917 C4919 1.387 . S
H4918 C4925 0.950 . S
C4919 C4917 1.387 . S
C4919 C4921 1.390 . S
C4919 H4923 0.950 . S
H4920 C4916 0.950 . S
C4921 C4919 1.390 . S
C4921 C4922 1.387 . S
C4921 H4924 0.950 . S
C4922 C4921 1.387 . S
C4922 C4925 1.387 . S
H4923 C4919 0.950 . S
H4924 C4921 0.950 . S
C4925 C4916 1.390 . S
C4925 H4918 0.950 . S
C4925 C4922 1.387 . S
C4926 C4927 1.387 . S
C4926 H4930 0.950 . S
C4926 C4935 1.390 . S
C4927 C4926 1.387 . S
C4927 C4929 1.387 . S
H4928 C4935 0.950 . S
C4929 C4927 1.387 . S
C4929 C4931 1.390 . S
C4929 H4933 0.950 . S
H4930 C4926 0.950 . S
C4931 C4929 1.390 . S
C4931 C4932 1.387 . S
C4931 H4934 0.950 . S
C4932 C4931 1.387 . S
C4932 C4935 1.387 . S
H4933 C4929 0.950 . S
H4934 C4931 0.950 . S
C4935 C4926 1.390 . S
C4935 H4928 0.950 . S
C4935 C4932 1.387 . S
C4936 C4937 1.387 . S
C4936 H4940 0.950 . S
C4936 C4945 1.466 . S
C4937 C4936 1.387 . S
C4937 C4939 1.387 . S
H4938 C4945 0.923 1_655 S
C4939 C4937 1.387 . S
C4939 C4941 1.346 1_455 S
C4939 H4943 0.950 . S
H4940 C4936 0.950 . S
C4941 C4939 1.346 1_655 S
C4941 C4942 1.407 . S
C4941 H4944 0.977 . S
C4942 C4941 1.407 . S
C4942 C4945 1.346 1_655 S
H4943 C4939 0.950 . S
H4944 C4941 0.977 . S
C4945 C4936 1.466 . S
C4945 H4938 0.923 1_455 S
C4945 C4942 1.346 1_455 S
C4946 C4947 1.387 . S
C4946 H4950 0.950 . S
C4946 C4955 1.390 . S
C4947 C4946 1.387 . S
C4947 C4949 1.387 . S
H4948 C4955 0.950 . S
C4949 C4947 1.387 . S
C4949 C4951 1.390 . S
C4949 H4953 0.950 . S
H4950 C4946 0.950 . S
C4951 C4949 1.390 . S
C4951 C4952 1.387 . S
C4951 H4954 0.950 . S
C4952 C4951 1.387 . S
C4952 C4955 1.387 . S
H4953 C4949 0.950 . S
H4954 C4951 0.950 . S
C4955 C4946 1.390 . S
C4955 H4948 0.950 . S
C4955 C4952 1.387 . S
C4956 C4957 1.387 . S
C4956 H4960 0.950 . S
C4956 C4965 1.390 . S
C4957 C4956 1.387 . S
C4957 C4959 1.387 . S
H4958 C4965 0.950 . S
C4959 C4957 1.387 . S
C4959 C4961 1.390 . S
C4959 H4963 0.950 . S
H4960 C4956 0.950 . S
C4961 C4959 1.390 . S
C4961 C4962 1.387 . S
C4961 H4964 0.950 . S
C4962 C4961 1.387 . S
C4962 C4965 1.387 . S
H4963 C4959 0.950 . S
H4964 C4961 0.950 . S
C4965 C4956 1.390 . S
C4965 H4958 0.950 . S
C4965 C4962 1.387 . S
C4966 C4967 1.387 . S
C4966 H4970 0.950 . S
C4966 C4975 1.390 . S
C4967 C4966 1.387 . S
C4967 C4969 1.387 . S
H4968 C4975 0.950 . S
C4969 C4967 1.387 . S
C4969 C4971 1.390 . S
C4969 H4973 0.950 . S
H4970 C4966 0.950 . S
C4971 C4969 1.390 . S
C4971 C4972 1.387 . S
C4971 H4974 0.950 . S
C4972 C4971 1.387 . S
C4972 C4975 1.387 . S
H4973 C4969 0.950 . S
H4974 C4971 0.950 . S
C4975 C4966 1.390 . S
C4975 H4968 0.950 . S
C4975 C4972 1.387 . S
C4976 C4977 1.387 . S
C4976 H4980 0.950 . S
C4976 C4985 1.390 1_545 S
C4977 C4976 1.387 . S
C4977 C4979 1.387 . S
H4978 C4985 0.950 . S
C4979 C4977 1.387 . S
C4979 C4981 1.390 . S
C4979 H4983 0.950 . S
H4980 C4976 0.950 . S
C4981 C4979 1.390 . S
C4981 C4982 1.387 1_545 S
C4981 H4984 0.950 . S
C4982 C4981 1.387 1_565 S
C4982 C4985 1.387 . S
H4983 C4979 0.950 . S
H4984 C4981 0.950 . S
C4985 C4976 1.390 1_565 S
C4985 H4978 0.950 . S
C4985 C4982 1.387 . S
C4986 C4987 1.387 . S
C4986 H4990 0.950 . S
C4986 C4995 1.390 . S
C4987 C4986 1.387 . S
C4987 C4989 1.387 . S
H4988 C4995 0.950 . S
C4989 C4987 1.387 . S
C4989 C4991 1.390 . S
C4989 H4993 0.950 . S
H4990 C4986 0.950 . S
C4991 C4989 1.390 . S
C4991 C4992 1.387 . S
C4991 H4994 0.950 . S
C4992 C4991 1.387 . S
C4992 C4995 1.387 . S
H4993 C4989 0.950 . S
H4994 C4991 0.950 . S
C4995 C4986 1.390 . S
C4995 H4988 0.950 . S
C4995 C4992 1.387 . S
C4996 C4997 1.387 . S
C4996 H5000 0.950 . S
C4996 C5005 1.390 . S
C4997 C4996 1.387 . S
C4997 C4999 1.387 . S
H4998 C5005 0.950 . S
C4999 C4997 1.387 . S
C4999 C5001 1.390 1_565 S
C4999 H5003 0.950 . S
H5000 C4996 0.950 . S
C5001 C4999 1.390 1_545 S
C5001 C5002 1.387 . S
C5001 H5004 0.950 . S
C5002 C5001 1.387 . S
C5002 C5005 1.387 1_545 S
H5003 C4999 0.950 . S
H5004 C5001 0.950 . S
C5005 C4996 1.390 . S
C5005 H4998 0.950 . S
C5005 C5002 1.387 1_565 S
C5006 C5007 1.387 . S
C5006 H5010 0.950 . S
C5006 C5015 1.390 . S
C5007 C5006 1.387 . S
C5007 C5009 1.387 . S
H5008 C5015 0.950 . S
C5009 C5007 1.387 . S
C5009 C5011 1.390 . S
C5009 H5013 0.950 . S
H5010 C5006 0.950 . S
C5011 C5009 1.390 . S
C5011 C5012 1.387 . S
C5011 H5014 0.950 . S
C5012 C5011 1.387 . S
C5012 C5015 1.387 . S
H5013 C5009 0.950 . S
H5014 C5011 0.950 . S
C5015 C5006 1.390 . S
C5015 H5008 0.950 . S
C5015 C5012 1.387 . S
C5016 C5017 1.387 . S
C5016 H5020 0.950 . S
C5016 C5025 1.390 . S
C5017 C5016 1.387 . S
C5017 C5019 1.387 . S
H5018 C5025 0.950 . S
C5019 C5017 1.387 . S
C5019 C5021 1.390 1_565 S
C5019 H5023 0.950 . S
H5020 C5016 0.950 . S
C5021 C5019 1.390 1_545 S
C5021 C5022 1.387 . S
C5021 H5024 0.950 . S
C5022 C5021 1.387 . S
C5022 C5025 1.387 1_545 S
H5023 C5019 0.950 . S
H5024 C5021 0.950 . S
C5025 C5016 1.390 . S
C5025 H5018 0.950 . S
C5025 C5022 1.387 1_565 S
C5026 C5027 1.387 . S
C5026 H5030 0.950 . S
C5026 C5035 1.390 . S
C5027 C5026 1.387 . S
C5027 C5029 1.387 . S
H5028 C5035 0.950 . S
C5029 C5027 1.387 . S
C5029 C5031 1.390 . S
C5029 H5033 0.950 . S
H5030 C5026 0.950 . S
C5031 C5029 1.390 . S
C5031 C5032 1.387 . S
C5031 H5034 0.950 . S
C5032 C5031 1.387 . S
C5032 C5035 1.387 . S
H5033 C5029 0.950 . S
H5034 C5031 0.950 . S
C5035 C5026 1.390 . S
C5035 H5028 0.950 . S
C5035 C5032 1.387 . S
C5036 C5037 1.387 . S
C5036 H5040 0.950 . S
C5036 C5045 1.390 1_545 S
C5037 C5036 1.387 . S
C5037 C5039 1.387 . S
H5038 C5045 0.950 . S
C5039 C5037 1.387 . S
C5039 C5041 1.390 . S
C5039 H5043 0.950 . S
H5040 C5036 0.950 . S
C5041 C5039 1.390 . S
C5041 C5042 1.387 1_545 S
C5041 H5044 0.950 . S
C5042 C5041 1.387 1_565 S
C5042 C5045 1.387 . S
H5043 C5039 0.950 . S
H5044 C5041 0.950 . S
C5045 C5036 1.390 1_565 S
C5045 H5038 0.950 . S
C5045 C5042 1.387 . S
C5046 C5047 1.387 . S
C5046 H5050 0.950 . S
C5046 C5055 1.390 . S
C5047 C5046 1.387 . S
C5047 C5049 1.387 . S
H5048 C5055 0.950 . S
C5049 C5047 1.387 . S
C5049 C5051 1.390 . S
C5049 H5053 0.950 . S
H5050 C5046 0.950 . S
C5051 C5049 1.390 . S
C5051 C5052 1.387 . S
C5051 H5054 0.950 . S
C5052 C5051 1.387 . S
C5052 C5055 1.387 . S
H5053 C5049 0.950 . S
H5054 C5051 0.950 . S
C5055 C5046 1.390 . S
C5055 H5048 0.950 . S
C5055 C5052 1.387 . S
C5056 C5057 1.387 . S
C5056 H5060 0.950 . S
C5056 C5065 1.390 1_554 S
C5057 C5056 1.387 . S
C5057 C5059 1.387 . S
H5058 C5065 0.950 . S
C5059 C5057 1.387 . S
C5059 C5061 1.390 . S
C5059 H5063 0.950 . S
H5060 C5056 0.950 . S
C5061 C5059 1.390 . S
C5061 C5062 1.387 1_554 S
C5061 H5064 0.950 . S
C5062 C5061 1.387 1_556 S
C5062 C5065 1.387 . S
H5063 C5059 0.950 . S
H5064 C5061 0.950 . S
C5065 C5056 1.390 1_556 S
C5065 H5058 0.950 . S
C5065 C5062 1.387 . S
C5066 C5067 1.387 . S
C5066 H5070 0.950 . S
C5066 C5075 1.390 . S
C5067 C5066 1.387 . S
C5067 C5069 1.387 . S
H5068 C5075 0.950 . S
C5069 C5067 1.387 . S
C5069 C5071 1.390 1_556 S
C5069 H5073 0.950 . S
H5070 C5066 0.950 . S
C5071 C5069 1.390 1_554 S
C5071 C5072 1.387 . S
C5071 H5074 0.950 . S
C5072 C5071 1.387 . S
C5072 C5075 1.387 1_554 S
H5073 C5069 0.950 . S
H5074 C5071 0.950 . S
C5075 C5066 1.390 . S
C5075 H5068 0.950 . S
C5075 C5072 1.387 1_556 S
C5076 C5077 1.387 . S
C5076 H5080 0.950 . S
C5076 C5085 1.390 . S
C5077 C5076 1.387 . S
C5077 C5079 1.387 . S
H5078 C5085 0.950 . S
C5079 C5077 1.387 . S
C5079 C5081 1.390 . S
C5079 H5083 0.950 . S
H5080 C5076 0.950 . S
C5081 C5079 1.390 . S
C5081 C5082 1.387 . S
C5081 H5084 0.950 . S
C5082 C5081 1.387 . S
C5082 C5085 1.387 . S
H5083 C5079 0.950 . S
H5084 C5081 0.950 . S
C5085 C5076 1.390 . S
C5085 H5078 0.950 . S
C5085 C5082 1.387 . S
C5086 C5087 1.387 . S
C5086 H5090 0.950 . S
C5086 C5095 1.390 . S
C5087 C5086 1.387 . S
C5087 C5089 1.387 . S
H5088 C5095 0.950 . S
C5089 C5087 1.387 . S
C5089 C5091 1.390 . S
C5089 H5093 0.950 . S
H5090 C5086 0.950 . S
C5091 C5089 1.390 . S
C5091 C5092 1.387 . S
C5091 H5094 0.950 . S
C5092 C5091 1.387 . S
C5092 C5095 1.387 . S
H5093 C5089 0.950 . S
H5094 C5091 0.950 . S
C5095 C5086 1.390 . S
C5095 H5088 0.950 . S
C5095 C5092 1.387 . S
C5096 C5097 1.387 . S
C5096 H5100 0.950 . S
C5096 C5105 1.390 . S
C5097 C5096 1.387 . S
C5097 C5099 1.387 . S
H5098 C5105 0.950 . S
C5099 C5097 1.387 . S
C5099 C5101 1.390 . S
C5099 H5103 0.950 . S
H5100 C5096 0.950 . S
C5101 C5099 1.390 . S
C5101 C5102 1.387 . S
C5101 H5104 0.950 . S
C5102 C5101 1.387 . S
C5102 C5105 1.387 . S
H5103 C5099 0.950 . S
H5104 C5101 0.950 . S
C5105 C5096 1.390 . S
C5105 H5098 0.950 . S
C5105 C5102 1.387 . S
C5106 C5107 1.387 . S
C5106 H5110 0.950 . S
C5106 C5115 1.390 . S
C5107 C5106 1.387 . S
C5107 C5109 1.387 . S
H5108 C5115 0.950 . S
C5109 C5107 1.387 . S
C5109 C5111 1.390 . S
C5109 H5113 0.950 . S
H5110 C5106 0.950 . S
C5111 C5109 1.390 . S
C5111 C5112 1.387 . S
C5111 H5114 0.950 . S
C5112 C5111 1.387 . S
C5112 C5115 1.387 . S
H5113 C5109 0.950 . S
H5114 C5111 0.950 . S
C5115 C5106 1.390 . S
C5115 H5108 0.950 . S
C5115 C5112 1.387 . S
C5116 C5117 1.387 . S
C5116 H5120 0.950 . S
C5116 C5125 1.390 . S
C5117 C5116 1.387 . S
C5117 C5119 1.387 . S
H5118 C5125 0.950 . S
C5119 C5117 1.387 . S
C5119 C5121 1.390 . S
C5119 H5123 0.950 . S
H5120 C5116 0.950 . S
C5121 C5119 1.390 . S
C5121 C5122 1.387 . S
C5121 H5124 0.950 . S
C5122 C5121 1.387 . S
C5122 C5125 1.387 . S
H5123 C5119 0.950 . S
H5124 C5121 0.950 . S
C5125 C5116 1.390 . S
C5125 H5118 0.950 . S
C5125 C5122 1.387 . S
C5126 C5127 1.387 . S
C5126 H5130 0.950 . S
C5126 C5135 1.390 . S
C5127 C5126 1.387 . S
C5127 C5129 1.387 . S
H5128 C5135 0.950 . S
C5129 C5127 1.387 . S
C5129 C5131 1.390 . S
C5129 H5133 0.950 . S
H5130 C5126 0.950 . S
C5131 C5129 1.390 . S
C5131 C5132 1.387 . S
C5131 H5134 0.950 . S
C5132 C5131 1.387 . S
C5132 C5135 1.387 . S
H5133 C5129 0.950 . S
H5134 C5131 0.950 . S
C5135 C5126 1.390 . S
C5135 H5128 0.950 . S
C5135 C5132 1.387 . S
C5136 C5137 1.387 . S
C5136 H5140 0.950 . S
C5136 C5145 1.390 1_655 S
C5137 C5136 1.387 . S
C5137 C5139 1.387 . S
H5138 C5145 0.950 . S
C5139 C5137 1.387 . S
C5139 C5141 1.390 . S
C5139 H5143 0.950 . S
H5140 C5136 0.950 . S
C5141 C5139 1.390 . S
C5141 C5142 1.387 1_655 S
C5141 H5144 0.950 . S
C5142 C5141 1.387 1_455 S
C5142 C5145 1.387 . S
H5143 C5139 0.950 . S
H5144 C5141 0.950 . S
C5145 C5136 1.390 1_455 S
C5145 H5138 0.950 . S
C5145 C5142 1.387 . S
C5146 C5147 1.387 . S
C5146 H5150 0.950 . S
C5146 C5155 1.390 . S
C5147 C5146 1.387 . S
C5147 C5149 1.387 . S
H5148 C5155 0.950 . S
C5149 C5147 1.387 . S
C5149 C5151 1.390 . S
C5149 H5153 0.950 . S
H5150 C5146 0.950 . S
C5151 C5149 1.390 . S
C5151 C5152 1.387 . S
C5151 H5154 0.950 . S
C5152 C5151 1.387 . S
C5152 C5155 1.387 . S
H5153 C5149 0.950 . S
H5154 C5151 0.950 . S
C5155 C5146 1.390 . S
C5155 H5148 0.950 . S
C5155 C5152 1.387 . S
C5156 C5157 1.387 . S
C5156 H5160 0.950 . S
C5156 C5165 1.390 . S
C5157 C5156 1.387 . S
C5157 C5159 1.387 . S
H5158 C5165 0.950 . S
C5159 C5157 1.387 . S
C5159 C5161 1.390 . S
C5159 H5163 0.950 . S
H5160 C5156 0.950 . S
C5161 C5159 1.390 . S
C5161 C5162 1.387 . S
C5161 H5164 0.950 . S
C5162 C5161 1.387 . S
C5162 C5165 1.387 . S
H5163 C5159 0.950 . S
H5164 C5161 0.950 . S
C5165 C5156 1.390 . S
C5165 H5158 0.950 . S
C5165 C5162 1.387 . S
C5166 C5167 1.387 . S
C5166 H5170 0.950 . S
C5166 C5175 1.390 . S
C5167 C5166 1.387 . S
C5167 C5169 1.387 . S
H5168 C5175 0.950 . S
C5169 C5167 1.387 . S
C5169 C5171 1.390 . S
C5169 H5173 0.950 . S
H5170 C5166 0.950 . S
C5171 C5169 1.390 . S
C5171 C5172 1.387 . S
C5171 H5174 0.950 . S
C5172 C5171 1.387 . S
C5172 C5175 1.387 . S
H5173 C5169 0.950 . S
H5174 C5171 0.950 . S
C5175 C5166 1.390 . S
C5175 H5168 0.950 . S
C5175 C5172 1.387 . S
C5176 C5177 1.387 . S
C5176 H5180 0.950 . S
C5176 C5185 1.390 1_655 S
C5177 C5176 1.387 . S
C5177 C5179 1.387 . S
H5178 C5185 0.950 . S
C5179 C5177 1.387 . S
C5179 C5181 1.390 . S
C5179 H5183 0.950 . S
H5180 C5176 0.950 . S
C5181 C5179 1.390 . S
C5181 C5182 1.387 1_655 S
C5181 H5184 0.972 . S
C5182 C5181 1.387 1_455 S
C5182 C5185 1.387 . S
H5183 C5179 0.950 . S
H5184 C5181 0.972 . S
C5185 C5176 1.390 1_455 S
C5185 H5178 0.950 . S
C5185 C5182 1.387 . S
C5186 C5187 1.387 . S
C5186 H5190 0.950 . S
C5186 C5195 1.390 . S
C5187 C5186 1.387 . S
C5187 C5189 1.387 . S
H5188 C5195 0.950 . S
C5189 C5187 1.387 . S
C5189 C5191 1.390 . S
C5189 H5193 0.950 . S
H5190 C5186 0.950 . S
C5191 C5189 1.390 . S
C5191 C5192 1.387 . S
C5191 H5194 0.950 . S
C5192 C5191 1.387 . S
C5192 C5195 1.387 . S
H5193 C5189 0.950 . S
H5194 C5191 0.950 . S
C5195 C5186 1.390 . S
C5195 H5188 0.950 . S
C5195 C5192 1.387 . S
C5196 C5197 1.387 . S
C5196 H5200 0.950 . S
C5196 C5205 1.390 . S
C5197 C5196 1.387 . S
C5197 C5199 1.387 . S
H5198 C5205 0.950 . S
C5199 C5197 1.387 . S
C5199 C5201 1.390 . S
C5199 H5203 0.950 . S
H5200 C5196 0.950 . S
C5201 C5199 1.390 . S
C5201 C5202 1.387 . S
C5201 H5204 0.950 . S
C5202 C5201 1.387 . S
C5202 C5205 1.387 . S
H5203 C5199 0.950 . S
H5204 C5201 0.950 . S
C5205 C5196 1.390 . S
C5205 H5198 0.950 . S
C5205 C5202 1.387 . S
C5206 C5207 1.387 . S
C5206 H5210 0.950 . S
C5206 C5215 1.390 . S
C5207 C5206 1.387 . S
C5207 C5209 1.387 . S
H5208 C5215 0.950 . S
C5209 C5207 1.387 . S
C5209 C5211 1.390 . S
C5209 H5213 0.950 . S
H5210 C5206 0.950 . S
C5211 C5209 1.390 . S
C5211 C5212 1.387 . S
C5211 H5214 0.950 . S
C5212 C5211 1.387 . S
C5212 C5215 1.387 . S
H5213 C5209 0.950 . S
H5214 C5211 0.950 . S
C5215 C5206 1.390 . S
C5215 H5208 0.950 . S
C5215 C5212 1.387 . S
C5216 C5217 1.387 . S
C5216 H5220 0.950 . S
C5216 C5225 1.390 . S
C5217 C5216 1.387 . S
C5217 C5219 1.387 . S
H5218 C5225 0.950 . S
C5219 C5217 1.387 . S
C5219 C5221 1.390 1_565 S
C5219 H5223 0.950 . S
H5220 C5216 0.950 . S
C5221 C5219 1.390 1_545 S
C5221 C5222 1.387 . S
C5221 H5224 0.950 . S
C5222 C5221 1.387 . S
C5222 C5225 1.387 1_545 S
H5223 C5219 0.950 . S
H5224 C5221 0.950 . S
C5225 C5216 1.390 . S
C5225 H5218 0.950 . S
C5225 C5222 1.387 1_565 S
C5226 C5227 1.387 . S
C5226 H5230 0.950 . S
C5226 C5235 1.390 . S
C5227 C5226 1.387 . S
C5227 C5229 1.387 . S
H5228 C5235 0.950 . S
C5229 C5227 1.387 . S
C5229 C5231 1.390 . S
C5229 H5233 0.950 . S
H5230 C5226 0.950 . S
C5231 C5229 1.390 . S
C5231 C5232 1.387 . S
C5231 H5234 0.950 . S
C5232 C5231 1.387 . S
C5232 C5235 1.387 . S
H5233 C5229 0.950 . S
H5234 C5231 0.950 . S
C5235 C5226 1.390 . S
C5235 H5228 0.950 . S
C5235 C5232 1.387 . S
C5236 C5237 1.387 . S
C5236 H5240 0.950 . S
C5236 C5245 1.390 1_545 S
C5237 C5236 1.387 . S
C5237 C5239 1.387 . S
H5238 C5245 0.950 . S
C5239 C5237 1.387 . S
C5239 C5241 1.390 . S
C5239 H5243 0.950 . S
H5240 C5236 0.950 . S
C5241 C5239 1.390 . S
C5241 C5242 1.387 1_545 S
C5241 H5244 0.950 . S
C5242 C5241 1.387 1_565 S
C5242 C5245 1.387 . S
H5243 C5239 0.950 . S
H5244 C5241 0.950 . S
C5245 C5236 1.390 1_565 S
C5245 H5238 0.950 . S
C5245 C5242 1.387 . S
C5246 C5247 1.387 . S
C5246 H5250 0.950 . S
C5246 C5255 1.390 . S
C5247 C5246 1.387 . S
C5247 C5249 1.387 . S
H5248 C5255 0.950 . S
C5249 C5247 1.387 . S
C5249 C5251 1.390 . S
C5249 H5253 0.950 . S
H5250 C5246 0.950 . S
C5251 C5249 1.390 . S
C5251 C5252 1.387 . S
C5251 H5254 0.950 . S
C5252 C5251 1.387 . S
C5252 C5255 1.387 . S
H5253 C5249 0.950 . S
H5254 C5251 0.950 . S
C5255 C5246 1.390 . S
C5255 H5248 0.950 . S
C5255 C5252 1.387 . S
C5256 C5257 1.387 . S
C5256 H5260 0.950 . S
C5256 C5265 1.390 1_545 S
C5257 C5256 1.387 . S
C5257 C5259 1.387 . S
H5258 C5265 0.950 . S
C5259 C5257 1.387 . S
C5259 C5261 1.390 . S
C5259 H5263 0.950 . S
H5260 C5256 0.950 . S
C5261 C5259 1.390 . S
C5261 C5262 1.387 1_545 S
C5261 H5264 0.950 . S
C5262 C5261 1.387 1_565 S
C5262 C5265 1.387 . S
H5263 C5259 0.950 . S
H5264 C5261 0.950 . S
C5265 C5256 1.390 1_565 S
C5265 H5258 0.950 . S
C5265 C5262 1.387 . S
C5266 C5267 1.387 . S
C5266 H5270 0.950 . S
C5266 C5275 1.390 . S
C5267 C5266 1.387 . S
C5267 C5269 1.387 . S
H5268 C5275 0.950 . S
C5269 C5267 1.387 . S
C5269 C5271 1.390 . S
C5269 H5273 0.950 . S
H5270 C5266 0.950 . S
C5271 C5269 1.390 . S
C5271 C5272 1.387 . S
C5271 H5274 0.950 . S
C5272 C5271 1.387 . S
C5272 C5275 1.387 . S
H5273 C5269 0.950 . S
H5274 C5271 0.950 . S
C5275 C5266 1.390 . S
C5275 H5268 0.950 . S
C5275 C5272 1.387 . S
C5276 C5277 1.387 . S
C5276 H5280 0.950 . S
C5276 C5285 1.390 1_565 S
C5277 C5276 1.387 . S
C5277 C5279 1.387 . S
H5278 C5285 0.950 . S
C5279 C5277 1.387 . S
C5279 C5281 1.390 . S
C5279 H5283 0.950 . S
H5280 C5276 0.950 . S
C5281 C5279 1.390 . S
C5281 C5282 1.387 1_565 S
C5281 H5284 0.950 . S
C5282 C5281 1.387 1_545 S
C5282 C5285 1.387 . S
H5283 C5279 0.950 . S
H5284 C5281 0.950 . S
C5285 C5276 1.390 1_545 S
C5285 H5278 0.950 . S
C5285 C5282 1.387 . S
C5286 C5287 1.387 . S
C5286 H5290 0.950 . S
C5286 C5295 1.390 . S
C5287 C5286 1.387 . S
C5287 C5289 1.387 . S
H5288 C5295 0.950 . S
C5289 C5287 1.387 . S
C5289 C5291 1.390 . S
C5289 H5293 0.950 . S
H5290 C5286 0.950 . S
C5291 C5289 1.390 . S
C5291 C5292 1.387 . S
C5291 H5294 0.950 . S
C5292 C5291 1.387 . S
C5292 C5295 1.387 . S
H5293 C5289 0.950 . S
H5294 C5291 0.950 . S
C5295 C5286 1.390 . S
C5295 H5288 0.950 . S
C5295 C5292 1.387 . S
C5296 C5297 1.387 . S
C5296 H5300 0.950 . S
C5296 C5305 1.390 1_556 S
C5297 C5296 1.387 . S
C5297 C5299 1.387 . S
H5298 C5305 0.950 . S
C5299 C5297 1.387 . S
C5299 C5301 1.390 . S
C5299 H5303 0.950 . S
H5300 C5296 0.950 . S
C5301 C5299 1.390 . S
C5301 C5302 1.387 1_556 S
C5301 H5304 0.950 . S
C5302 C5301 1.387 1_554 S
C5302 C5305 1.387 . S
H5303 C5299 0.950 . S
H5304 C5301 0.950 . S
C5305 C5296 1.390 1_554 S
C5305 H5298 0.950 . S
C5305 C5302 1.387 . S
C5306 C5307 1.387 . S
C5306 H5310 0.950 . S
C5306 C5315 1.390 1_554 S
C5307 C5306 1.387 . S
C5307 C5309 1.387 . S
H5308 C5315 0.950 . S
C5309 C5307 1.387 . S
C5309 C5311 1.390 . S
C5309 H5313 0.950 . S
H5310 C5306 0.950 . S
C5311 C5309 1.390 . S
C5311 C5312 1.387 1_554 S
C5311 H5314 0.950 . S
C5312 C5311 1.387 1_556 S
C5312 C5315 1.387 . S
H5313 C5309 0.950 . S
H5314 C5311 0.950 . S
C5315 C5306 1.390 1_556 S
C5315 H5308 0.950 . S
C5315 C5312 1.387 . S
C5316 C5317 1.387 . S
C5316 H5320 0.950 . S
C5316 C5325 1.390 . S
C5317 C5316 1.387 . S
C5317 C5319 1.387 . S
H5318 C5325 0.950 . S
C5319 C5317 1.387 . S
C5319 C5321 1.390 . S
C5319 H5323 0.950 . S
H5320 C5316 0.950 . S
C5321 C5319 1.390 . S
C5321 C5322 1.387 . S
C5321 H5324 0.950 . S
C5322 C5321 1.387 . S
C5322 C5325 1.387 . S
H5323 C5319 0.950 . S
H5324 C5321 0.950 . S
C5325 C5316 1.390 . S
C5325 H5318 0.950 . S
C5325 C5322 1.387 . S
C5326 C5327 1.387 . S
C5326 H5330 0.950 . S
C5326 C5335 1.390 . S
C5327 C5326 1.387 . S
C5327 C5329 1.387 . S
H5328 C5335 0.950 . S
C5329 C5327 1.387 . S
C5329 C5331 1.390 . S
C5329 H5333 0.950 . S
H5330 C5326 0.950 . S
C5331 C5329 1.390 . S
C5331 C5332 1.387 . S
C5331 H5334 0.950 . S
C5332 C5331 1.387 . S
C5332 C5335 1.387 . S
H5333 C5329 0.950 . S
H5334 C5331 0.950 . S
C5335 C5326 1.390 . S
C5335 H5328 0.950 . S
C5335 C5332 1.387 . S
C5336 C5337 1.387 . S
C5336 H5340 0.950 . S
C5336 C5345 1.390 . S
C5337 C5336 1.387 . S
C5337 C5339 1.387 . S
H5338 C5345 0.950 . S
C5339 C5337 1.387 . S
C5339 C5341 1.390 . S
C5339 H5343 0.950 . S
H5340 C5336 0.950 . S
C5341 C5339 1.390 . S
C5341 C5342 1.387 . S
C5341 H5344 0.950 . S
C5342 C5341 1.387 . S
C5342 C5345 1.387 . S
H5343 C5339 0.950 . S
H5344 C5341 0.950 . S
C5345 C5336 1.390 . S
C5345 H5338 0.950 . S
C5345 C5342 1.387 . S
C5346 C5347 1.387 . S
C5346 H5350 0.950 . S
C5346 C5355 1.390 . S
C5347 C5346 1.387 . S
C5347 C5349 1.387 . S
H5348 C5355 0.950 . S
C5349 C5347 1.387 . S
C5349 C5351 1.390 . S
C5349 H5353 0.950 . S
H5350 C5346 0.950 . S
C5351 C5349 1.390 . S
C5351 C5352 1.387 . S
C5351 H5354 0.950 . S
C5352 C5351 1.387 . S
C5352 C5355 1.387 . S
H5353 C5349 0.950 . S
H5354 C5351 0.950 . S
C5355 C5346 1.390 . S
C5355 H5348 0.950 . S
C5355 C5352 1.387 . S
C5356 C5357 1.387 . S
C5356 H5360 0.950 . S
C5356 C5365 1.390 . S
C5357 C5356 1.387 . S
C5357 C5359 1.387 . S
H5358 C5365 0.950 . S
C5359 C5357 1.387 . S
C5359 C5361 1.390 . S
C5359 H5363 0.950 . S
H5360 C5356 0.950 . S
C5361 C5359 1.390 . S
C5361 C5362 1.387 . S
C5361 H5364 0.950 . S
C5362 C5361 1.387 . S
C5362 C5365 1.387 . S
H5363 C5359 0.950 . S
H5364 C5361 0.950 . S
C5365 C5356 1.390 . S
C5365 H5358 0.950 . S
C5365 C5362 1.387 . S
C5366 C5367 1.387 . S
C5366 H5370 0.950 . S
C5366 C5375 1.390 . S
C5367 C5366 1.387 . S
C5367 C5369 1.387 . S
H5368 C5375 0.950 . S
C5369 C5367 1.387 . S
C5369 C5371 1.390 . S
C5369 H5373 0.950 . S
H5370 C5366 0.950 . S
C5371 C5369 1.390 . S
C5371 C5372 1.387 . S
C5371 H5374 0.950 . S
C5372 C5371 1.387 . S
C5372 C5375 1.387 . S
H5373 C5369 0.950 . S
H5374 C5371 0.950 . S
C5375 C5366 1.390 . S
C5375 H5368 0.950 . S
C5375 C5372 1.387 . S
C5376 C5377 1.387 . S
C5376 H5380 0.950 . S
C5376 C5385 1.390 . S
C5377 C5376 1.387 . S
C5377 C5379 1.387 . S
H5378 C5385 0.950 . S
C5379 C5377 1.387 . S
C5379 C5381 1.390 . S
C5379 H5383 0.950 . S
H5380 C5376 0.950 . S
C5381 C5379 1.390 . S
C5381 C5382 1.387 . S
C5381 H5384 0.950 . S
C5382 C5381 1.387 . S
C5382 C5385 1.387 . S
H5383 C5379 0.950 . S
H5384 C5381 0.950 . S
C5385 C5376 1.390 . S
C5385 H5378 0.950 . S
C5385 C5382 1.387 . S
C5386 C5387 1.387 . S
C5386 H5390 0.950 . S
C5386 C5395 1.390 . S
C5387 C5386 1.387 . S
C5387 C5389 1.387 . S
H5388 C5395 0.950 . S
C5389 C5387 1.387 . S
C5389 C5391 1.390 . S
C5389 H5393 0.950 . S
H5390 C5386 0.950 . S
C5391 C5389 1.390 . S
C5391 C5392 1.387 . S
C5391 H5394 0.950 . S
C5392 C5391 1.387 . S
C5392 C5395 1.387 . S
H5393 C5389 0.950 . S
H5394 C5391 0.950 . S
C5395 C5386 1.390 . S
C5395 H5388 0.950 . S
C5395 C5392 1.387 . S
C5396 C5397 1.387 . S
C5396 H5400 0.950 . S
C5396 C5405 1.416 . S
C5397 C5396 1.387 . S
C5397 C5399 1.387 . S
H5398 C5405 0.938 1_455 S
C5399 C5397 1.387 . S
C5399 C5401 1.385 1_655 S
C5399 H5403 0.950 . S
H5400 C5396 0.950 . S
C5401 C5399 1.385 1_455 S
C5401 C5402 1.390 . S
C5401 H5404 0.952 . S
C5402 C5401 1.390 . S
C5402 C5405 1.374 1_455 S
H5403 C5399 0.950 . S
H5404 C5401 0.952 . S
C5405 C5396 1.416 . S
C5405 H5398 0.938 1_655 S
C5405 C5402 1.374 1_655 S
C5406 C5407 1.387 . S
C5406 H5410 0.950 . S
C5406 C5415 1.390 . S
C5407 C5406 1.387 . S
C5407 C5409 1.387 . S
H5408 C5415 0.950 . S
C5409 C5407 1.387 . S
C5409 C5411 1.390 . S
C5409 H5413 0.950 . S
H5410 C5406 0.950 . S
C5411 C5409 1.390 . S
C5411 C5412 1.387 . S
C5411 H5414 0.950 . S
C5412 C5411 1.387 . S
C5412 C5415 1.387 . S
H5413 C5409 0.950 . S
H5414 C5411 0.950 . S
C5415 C5406 1.390 . S
C5415 H5408 0.950 . S
C5415 C5412 1.387 . S
C5416 C5417 1.387 . S
C5416 H5420 0.950 . S
C5416 C5425 1.390 . S
C5417 C5416 1.387 . S
C5417 C5419 1.387 . S
H5418 C5425 0.950 . S
C5419 C5417 1.387 . S
C5419 C5421 1.390 . S
C5419 H5423 0.950 . S
H5420 C5416 0.950 . S
C5421 C5419 1.390 . S
C5421 C5422 1.387 . S
C5421 H5424 0.950 . S
C5422 C5421 1.387 . S
C5422 C5425 1.387 . S
H5423 C5419 0.950 . S
H5424 C5421 0.950 . S
C5425 C5416 1.390 . S
C5425 H5418 0.950 . S
C5425 C5422 1.387 . S
C5426 C5427 1.387 . S
C5426 H5430 0.950 . S
C5426 C5435 1.390 . S
C5427 C5426 1.387 . S
C5427 C5429 1.387 . S
H5428 C5435 0.950 . S
C5429 C5427 1.387 . S
C5429 C5431 1.390 . S
C5429 H5433 0.950 . S
H5430 C5426 0.950 . S
C5431 C5429 1.390 . S
C5431 C5432 1.387 . S
C5431 H5434 0.950 . S
C5432 C5431 1.387 . S
C5432 C5435 1.387 . S
H5433 C5429 0.950 . S
H5434 C5431 0.950 . S
C5435 C5426 1.390 . S
C5435 H5428 0.950 . S
C5435 C5432 1.387 . S
C5436 C5437 1.387 . S
C5436 H5440 0.950 . S
C5436 C5445 1.350 1_655 S
C5437 C5436 1.387 . S
C5437 C5439 1.387 . S
H5438 C5445 0.974 . S
C5439 C5437 1.387 . S
C5439 C5441 1.461 . S
C5439 H5443 0.950 . S
H5440 C5436 0.950 . S
C5441 C5439 1.461 . S
C5441 C5442 1.349 1_655 S
C5441 H5444 0.924 1_655 S
C5442 C5441 1.349 1_455 S
C5442 C5445 1.405 . S
H5443 C5439 0.950 . S
H5444 C5441 0.924 1_455 S
C5445 C5436 1.350 1_455 S
C5445 H5438 0.974 . S
C5445 C5442 1.405 . S
C5446 C5447 1.387 . S
C5446 H5450 0.950 . S
C5446 C5455 1.390 . S
C5447 C5446 1.387 . S
C5447 C5449 1.387 . S
H5448 C5455 0.950 . S
C5449 C5447 1.387 . S
C5449 C5451 1.390 . S
C5449 H5453 0.950 . S
H5450 C5446 0.950 . S
C5451 C5449 1.390 . S
C5451 C5452 1.387 . S
C5451 H5454 0.950 . S
C5452 C5451 1.387 . S
C5452 C5455 1.387 . S
H5453 C5449 0.950 . S
H5454 C5451 0.950 . S
C5455 C5446 1.390 . S
C5455 H5448 0.950 . S
C5455 C5452 1.387 . S
C5456 C5457 1.387 . S
C5456 H5460 0.950 . S
C5456 C5465 1.390 . S
C5457 C5456 1.387 . S
C5457 C5459 1.387 . S
H5458 C5465 0.950 . S
C5459 C5457 1.387 . S
C5459 C5461 1.390 . S
C5459 H5463 0.950 . S
H5460 C5456 0.950 . S
C5461 C5459 1.390 . S
C5461 C5462 1.387 . S
C5461 H5464 0.950 . S
C5462 C5461 1.387 . S
C5462 C5465 1.387 . S
H5463 C5459 0.950 . S
H5464 C5461 0.950 . S
C5465 C5456 1.390 . S
C5465 H5458 0.950 . S
C5465 C5462 1.387 . S
C5466 C5467 1.387 . S
C5466 H5470 0.950 . S
C5466 C5475 1.390 . S
C5467 C5466 1.387 . S
C5467 C5469 1.387 . S
H5468 C5475 0.950 . S
C5469 C5467 1.387 . S
C5469 C5471 1.390 . S
C5469 H5473 0.950 . S
H5470 C5466 0.950 . S
C5471 C5469 1.390 . S
C5471 C5472 1.387 . S
C5471 H5474 0.950 . S
C5472 C5471 1.387 . S
C5472 C5475 1.387 . S
H5473 C5469 0.950 . S
H5474 C5471 0.950 . S
C5475 C5466 1.390 . S
C5475 H5468 0.950 . S
C5475 C5472 1.387 . S
C5476 C5477 1.387 . S
C5476 H5480 0.950 . S
C5476 C5485 1.390 . S
C5477 C5476 1.387 . S
C5477 C5479 1.387 . S
H5478 C5485 0.950 . S
C5479 C5477 1.387 . S
C5479 C5481 1.390 . S
C5479 H5483 0.950 . S
H5480 C5476 0.950 . S
C5481 C5479 1.390 . S
C5481 C5482 1.387 . S
C5481 H5484 0.950 . S
C5482 C5481 1.387 . S
C5482 C5485 1.387 . S
H5483 C5479 0.950 . S
H5484 C5481 0.950 . S
C5485 C5476 1.390 . S
C5485 H5478 0.950 . S
C5485 C5482 1.387 . S
C5486 C5487 1.387 . S
C5486 H5490 0.950 . S
C5486 C5495 1.390 . S
C5487 C5486 1.387 . S
C5487 C5489 1.387 . S
H5488 C5495 0.950 . S
C5489 C5487 1.387 . S
C5489 C5491 1.390 . S
C5489 H5493 0.950 . S
H5490 C5486 0.950 . S
C5491 C5489 1.390 . S
C5491 C5492 1.387 . S
C5491 H5494 0.950 . S
C5492 C5491 1.387 . S
C5492 C5495 1.387 . S
H5493 C5489 0.950 . S
H5494 C5491 0.950 . S
C5495 C5486 1.390 . S
C5495 H5488 0.950 . S
C5495 C5492 1.387 . S
C5496 C5497 1.387 . S
C5496 H5500 0.950 . S
C5496 C5505 1.390 . S
C5497 C5496 1.387 . S
C5497 C5499 1.387 . S
H5498 C5505 0.950 . S
C5499 C5497 1.387 . S
C5499 C5501 1.390 . S
C5499 H5503 0.950 . S
H5500 C5496 0.950 . S
C5501 C5499 1.390 . S
C5501 C5502 1.387 . S
C5501 H5504 0.950 . S
C5502 C5501 1.387 . S
C5502 C5505 1.387 . S
H5503 C5499 0.950 . S
H5504 C5501 0.950 . S
C5505 C5496 1.390 . S
C5505 H5498 0.950 . S
C5505 C5502 1.387 . S
C5506 C5507 1.387 . S
C5506 H5510 0.950 . S
C5506 C5515 1.390 . S
C5507 C5506 1.387 . S
C5507 C5509 1.387 . S
H5508 C5515 0.950 . S
C5509 C5507 1.387 . S
C5509 C5511 1.390 . S
C5509 H5513 0.950 . S
H5510 C5506 0.950 . S
C5511 C5509 1.390 . S
C5511 C5512 1.387 . S
C5511 H5514 0.950 . S
C5512 C5511 1.387 . S
C5512 C5515 1.387 . S
H5513 C5509 0.950 . S
H5514 C5511 0.950 . S
C5515 C5506 1.390 . S
C5515 H5508 0.950 . S
C5515 C5512 1.387 . S
C5516 C5517 1.387 . S
C5516 H5520 0.950 . S
C5516 C5525 1.390 . S
C5517 C5516 1.387 . S
C5517 C5519 1.387 . S
H5518 C5525 0.950 . S
C5519 C5517 1.387 . S
C5519 C5521 1.390 . S
C5519 H5523 0.950 . S
H5520 C5516 0.950 . S
C5521 C5519 1.390 . S
C5521 C5522 1.387 . S
C5521 H5524 0.950 . S
C5522 C5521 1.387 . S
C5522 C5525 1.387 . S
H5523 C5519 0.950 . S
H5524 C5521 0.950 . S
C5525 C5516 1.390 . S
C5525 H5518 0.950 . S
C5525 C5522 1.387 . S
C5526 C5527 1.387 . S
C5526 H5530 0.950 . S
C5526 C5535 1.390 . S
C5527 C5526 1.387 . S
C5527 C5529 1.387 . S
H5528 C5535 0.950 . S
C5529 C5527 1.387 . S
C5529 C5531 1.390 . S
C5529 H5533 0.950 . S
H5530 C5526 0.950 . S
C5531 C5529 1.390 . S
C5531 C5532 1.387 . S
C5531 H5534 0.950 . S
C5532 C5531 1.387 . S
C5532 C5535 1.387 . S
H5533 C5529 0.950 . S
H5534 C5531 0.950 . S
C5535 C5526 1.390 . S
C5535 H5528 0.950 . S
C5535 C5532 1.387 . S
C5536 C5537 1.387 . S
C5536 H5540 0.950 . S
C5536 C5545 1.390 . S
C5537 C5536 1.387 . S
C5537 C5539 1.387 . S
H5538 C5545 0.950 . S
C5539 C5537 1.387 . S
C5539 C5541 1.390 . S
C5539 H5543 0.950 . S
H5540 C5536 0.950 . S
C5541 C5539 1.390 . S
C5541 C5542 1.387 . S
C5541 H5544 0.950 . S
C5542 C5541 1.387 . S
C5542 C5545 1.387 . S
H5543 C5539 0.950 . S
H5544 C5541 0.950 . S
C5545 C5536 1.390 . S
C5545 H5538 0.950 . S
C5545 C5542 1.387 . S
C5546 C5547 1.387 . S
C5546 H5550 0.950 . S
C5546 C5555 1.390 . S
C5547 C5546 1.387 . S
C5547 C5549 1.387 . S
H5548 C5555 0.950 . S
C5549 C5547 1.387 . S
C5549 C5551 1.390 . S
C5549 H5553 0.950 . S
H5550 C5546 0.950 . S
C5551 C5549 1.390 . S
C5551 C5552 1.387 . S
C5551 H5554 0.950 . S
C5552 C5551 1.387 . S
C5552 C5555 1.387 . S
H5553 C5549 0.950 . S
H5554 C5551 0.950 . S
C5555 C5546 1.390 . S
C5555 H5548 0.950 . S
C5555 C5552 1.387 . S
C5556 C5557 1.387 . S
C5556 H5560 0.950 . S
C5556 C5565 1.390 . S
C5557 C5556 1.387 . S
C5557 C5559 1.387 . S
H5558 C5565 0.950 . S
C5559 C5557 1.387 . S
C5559 C5561 1.390 . S
C5559 H5563 0.950 . S
H5560 C5556 0.950 . S
C5561 C5559 1.390 . S
C5561 C5562 1.387 . S
C5561 H5564 0.950 . S
C5562 C5561 1.387 . S
C5562 C5565 1.387 . S
H5563 C5559 0.950 . S
H5564 C5561 0.950 . S
C5565 C5556 1.390 . S
C5565 H5558 0.950 . S
C5565 C5562 1.387 . S
C5566 C5567 1.387 . S
C5566 H5570 0.950 . S
C5566 C5575 1.390 . S
C5567 C5566 1.387 . S
C5567 C5569 1.387 . S
H5568 C5575 0.980 . S
C5569 C5567 1.387 . S
C5569 C5571 1.390 1_556 S
C5569 H5573 0.950 . S
H5570 C5566 0.950 . S
C5571 C5569 1.390 1_554 S
C5571 C5572 1.387 . S
C5571 H5574 0.950 . S
C5572 C5571 1.387 . S
C5572 C5575 1.387 1_554 S
H5573 C5569 0.950 . S
H5574 C5571 0.950 . S
C5575 C5566 1.390 . S
C5575 H5568 0.980 . S
C5575 C5572 1.387 1_556 S
C5576 C5577 1.387 . S
C5576 H5580 0.950 . S
C5576 C5585 1.390 . S
C5577 C5576 1.387 . S
C5577 C5579 1.387 . S
H5578 C5585 0.950 . S
C5579 C5577 1.387 . S
C5579 C5581 1.390 . S
C5579 H5583 0.950 . S
H5580 C5576 0.950 . S
C5581 C5579 1.390 . S
C5581 C5582 1.387 . S
C5581 H5584 0.950 . S
C5582 C5581 1.387 . S
C5582 C5585 1.387 . S
H5583 C5579 0.950 . S
H5584 C5581 0.950 . S
C5585 C5576 1.390 . S
C5585 H5578 0.950 . S
C5585 C5582 1.387 . S
C5586 C5587 1.387 . S
C5586 H5590 0.950 . S
C5586 C5595 1.390 . S
C5587 C5586 1.387 . S
C5587 C5589 1.387 . S
H5588 C5595 0.950 . S
C5589 C5587 1.387 . S
C5589 C5591 1.390 1_554 S
C5589 H5593 0.950 . S
H5590 C5586 0.950 . S
C5591 C5589 1.390 1_556 S
C5591 C5592 1.387 . S
C5591 H5594 0.950 . S
C5592 C5591 1.387 . S
C5592 C5595 1.387 1_556 S
H5593 C5589 0.950 . S
H5594 C5591 0.950 . S
C5595 C5586 1.390 . S
C5595 H5588 0.950 . S
C5595 C5592 1.387 1_554 S
C5596 C5597 1.387 . S
C5596 H5600 0.950 . S
C5596 C5605 1.390 . S
C5597 C5596 1.387 . S
C5597 C5599 1.387 . S
H5598 C5605 0.950 . S
C5599 C5597 1.387 . S
C5599 C5601 1.390 . S
C5599 H5603 0.950 . S
H5600 C5596 0.950 . S
C5601 C5599 1.390 . S
C5601 C5602 1.387 . S
C5601 H5604 0.950 . S
C5602 C5601 1.387 . S
C5602 C5605 1.387 . S
H5603 C5599 0.950 . S
H5604 C5601 0.950 . S
C5605 C5596 1.390 . S
C5605 H5598 0.950 . S
C5605 C5602 1.387 . S
C5606 C5607 1.387 . S
C5606 H5610 0.950 . S
C5606 C5615 1.390 . S
C5607 C5606 1.387 . S
C5607 C5609 1.387 . S
H5608 C5615 0.950 . S
C5609 C5607 1.387 . S
C5609 C5611 1.390 . S
C5609 H5613 0.950 . S
H5610 C5606 0.950 . S
C5611 C5609 1.390 . S
C5611 C5612 1.387 . S
C5611 H5614 0.950 . S
C5612 C5611 1.387 . S
C5612 C5615 1.387 . S
H5613 C5609 0.950 . S
H5614 C5611 0.950 . S
C5615 C5606 1.390 . S
C5615 H5608 0.950 . S
C5615 C5612 1.387 . S
C5616 C5617 1.387 . S
C5616 H5620 0.950 . S
C5616 C5625 1.390 . S
C5617 C5616 1.387 . S
C5617 C5619 1.387 . S
H5618 C5625 0.950 . S
C5619 C5617 1.387 . S
C5619 C5621 1.390 . S
C5619 H5623 0.950 . S
H5620 C5616 0.950 . S
C5621 C5619 1.390 . S
C5621 C5622 1.387 . S
C5621 H5624 0.950 . S
C5622 C5621 1.387 . S
C5622 C5625 1.387 . S
H5623 C5619 0.950 . S
H5624 C5621 0.950 . S
C5625 C5616 1.390 . S
C5625 H5618 0.950 . S
C5625 C5622 1.387 . S
C5626 C5627 1.387 . S
C5626 H5630 0.950 . S
C5626 C5635 1.390 . S
C5627 C5626 1.387 . S
C5627 C5629 1.387 . S
H5628 C5635 0.950 . S
C5629 C5627 1.387 . S
C5629 C5631 1.390 . S
C5629 H5633 0.950 . S
H5630 C5626 0.950 . S
C5631 C5629 1.390 . S
C5631 C5632 1.387 . S
C5631 H5634 0.950 . S
C5632 C5631 1.387 . S
C5632 C5635 1.387 . S
H5633 C5629 0.950 . S
H5634 C5631 0.950 . S
C5635 C5626 1.390 . S
C5635 H5628 0.950 . S
C5635 C5632 1.387 . S
C5636 C5637 1.387 . S
C5636 H5640 0.950 . S
C5636 C5645 1.390 1_455 S
C5637 C5636 1.387 . S
C5637 C5639 1.387 . S
H5638 C5645 0.950 . S
C5639 C5637 1.387 . S
C5639 C5641 1.390 . S
C5639 H5643 0.950 . S
H5640 C5636 0.950 . S
C5641 C5639 1.390 . S
C5641 C5642 1.387 1_455 S
C5641 H5644 0.946 1_455 S
C5642 C5641 1.387 1_655 S
C5642 C5645 1.387 . S
H5643 C5639 0.950 . S
H5644 C5641 0.946 1_655 S
C5645 C5636 1.390 1_655 S
C5645 H5638 0.950 . S
C5645 C5642 1.387 . S
C5646 C5647 1.387 . S
C5646 H5650 0.950 . S
C5646 C5655 1.390 . S
C5647 C5646 1.387 . S
C5647 C5649 1.387 . S
H5648 C5655 0.950 . S
C5649 C5647 1.387 . S
C5649 C5651 1.390 . S
C5649 H5653 0.950 . S
H5650 C5646 0.950 . S
C5651 C5649 1.390 . S
C5651 C5652 1.387 . S
C5651 H5654 0.950 . S
C5652 C5651 1.387 . S
C5652 C5655 1.387 . S
H5653 C5649 0.950 . S
H5654 C5651 0.950 . S
C5655 C5646 1.390 . S
C5655 H5648 0.950 . S
C5655 C5652 1.387 . S
C5656 C5657 1.387 . S
C5656 H5660 0.950 . S
C5656 C5665 1.390 . S
C5657 C5656 1.387 . S
C5657 C5659 1.387 . S
H5658 C5665 0.950 . S
C5659 C5657 1.387 . S
C5659 C5661 1.390 . S
C5659 H5663 0.950 . S
H5660 C5656 0.950 . S
C5661 C5659 1.390 . S
C5661 C5662 1.387 . S
C5661 H5664 0.950 . S
C5662 C5661 1.387 . S
C5662 C5665 1.387 . S
H5663 C5659 0.950 . S
H5664 C5661 0.950 . S
C5665 C5656 1.390 . S
C5665 H5658 0.950 . S
C5665 C5662 1.387 . S
C5666 C5667 1.387 . S
C5666 H5670 0.950 . S
C5666 C5675 1.390 . S
C5667 C5666 1.387 . S
C5667 C5669 1.387 . S
H5668 C5675 0.950 . S
C5669 C5667 1.387 . S
C5669 C5671 1.390 . S
C5669 H5673 0.950 . S
H5670 C5666 0.950 . S
C5671 C5669 1.390 . S
C5671 C5672 1.387 . S
C5671 H5674 0.950 . S
C5672 C5671 1.387 . S
C5672 C5675 1.387 . S
H5673 C5669 0.950 . S
H5674 C5671 0.950 . S
C5675 C5666 1.390 . S
C5675 H5668 0.950 . S
C5675 C5672 1.387 . S
C5676 C5677 1.387 . S
C5676 H5680 0.950 . S
C5676 C5685 1.433 . S
C5677 C5676 1.387 . S
C5677 C5679 1.387 . S
H5678 C5685 0.932 1_655 S
C5679 C5677 1.387 . S
C5679 C5681 1.368 1_455 S
C5679 H5683 0.950 . S
H5680 C5676 0.950 . S
C5681 C5679 1.368 1_655 S
C5681 C5682 1.398 . S
C5681 H5684 0.962 . S
C5682 C5681 1.398 . S
C5682 C5685 1.365 1_655 S
H5683 C5679 0.950 . S
H5684 C5681 0.962 . S
C5685 C5676 1.433 . S
C5685 H5678 0.932 1_455 S
C5685 C5682 1.365 1_455 S
C5686 C5687 1.387 . S
C5686 H5690 0.950 . S
C5686 C5695 1.390 . S
C5687 C5686 1.387 . S
C5687 C5689 1.387 . S
H5688 C5695 0.950 . S
C5689 C5687 1.387 . S
C5689 C5691 1.390 . S
C5689 H5693 0.950 . S
H5690 C5686 0.950 . S
C5691 C5689 1.390 . S
C5691 C5692 1.387 . S
C5691 H5694 0.950 . S
C5692 C5691 1.387 . S
C5692 C5695 1.387 . S
H5693 C5689 0.950 . S
H5694 C5691 0.950 . S
C5695 C5686 1.390 . S
C5695 H5688 0.950 . S
C5695 C5692 1.387 . S
C5696 C5697 1.387 . S
C5696 H5700 0.950 . S
C5696 C5705 1.390 . S
C5697 C5696 1.387 . S
C5697 C5699 1.387 . S
H5698 C5705 0.950 . S
C5699 C5697 1.387 . S
C5699 C5701 1.390 . S
C5699 H5703 0.950 . S
H5700 C5696 0.950 . S
C5701 C5699 1.390 . S
C5701 C5702 1.387 . S
C5701 H5704 0.950 . S
C5702 C5701 1.387 . S
C5702 C5705 1.387 . S
H5703 C5699 0.950 . S
H5704 C5701 0.950 . S
C5705 C5696 1.390 . S
C5705 H5698 0.950 . S
C5705 C5702 1.387 . S
C5706 C5707 1.387 . S
C5706 H5710 0.950 . S
C5706 C5715 1.390 . S
C5707 C5706 1.387 . S
C5707 C5709 1.387 . S
H5708 C5715 0.950 . S
C5709 C5707 1.387 . S
C5709 C5711 1.390 . S
C5709 H5713 0.950 . S
H5710 C5706 0.950 . S
C5711 C5709 1.390 . S
C5711 C5712 1.387 . S
C5711 H5714 0.950 . S
C5712 C5711 1.387 . S
C5712 C5715 1.387 . S
H5713 C5709 0.950 . S
H5714 C5711 0.950 . S
C5715 C5706 1.390 . S
C5715 H5708 0.950 . S
C5715 C5712 1.387 . S
C5716 C5717 1.387 . S
C5716 H5720 0.950 . S
C5716 C5725 1.390 . S
C5717 C5716 1.387 . S
C5717 C5719 1.387 . S
H5718 C5725 0.950 . S
C5719 C5717 1.387 . S
C5719 C5721 1.390 . S
C5719 H5723 0.950 . S
H5720 C5716 0.950 . S
C5721 C5719 1.390 . S
C5721 C5722 1.387 . S
C5721 H5724 0.950 . S
C5722 C5721 1.387 . S
C5722 C5725 1.387 . S
H5723 C5719 0.950 . S
H5724 C5721 0.950 . S
C5725 C5716 1.390 . S
C5725 H5718 0.950 . S
C5725 C5722 1.387 . S
C5726 C5727 1.387 . S
C5726 H5730 0.950 . S
C5726 C5735 1.390 . S
C5727 C5726 1.387 . S
C5727 C5729 1.387 . S
H5728 C5735 0.950 . S
C5729 C5727 1.387 . S
C5729 C5731 1.390 . S
C5729 H5733 0.950 . S
H5730 C5726 0.950 . S
C5731 C5729 1.390 . S
C5731 C5732 1.387 . S
C5731 H5734 0.950 . S
C5732 C5731 1.387 . S
C5732 C5735 1.387 . S
H5733 C5729 0.950 . S
H5734 C5731 0.950 . S
C5735 C5726 1.390 . S
C5735 H5728 0.950 . S
C5735 C5732 1.387 . S
C5736 C5737 1.387 . S
C5736 H5740 0.950 . S
C5736 C5745 1.390 . S
C5737 C5736 1.387 . S
C5737 C5739 1.387 . S
H5738 C5745 0.950 . S
C5739 C5737 1.387 . S
C5739 C5741 1.390 . S
C5739 H5743 0.950 . S
H5740 C5736 0.950 . S
C5741 C5739 1.390 . S
C5741 C5742 1.387 . S
C5741 H5744 0.950 . S
C5742 C5741 1.387 . S
C5742 C5745 1.387 . S
H5743 C5739 0.950 . S
H5744 C5741 0.950 . S
C5745 C5736 1.390 . S
C5745 H5738 0.950 . S
C5745 C5742 1.387 . S
C5746 C5747 1.387 . S
C5746 H5750 0.950 . S
C5746 C5755 1.390 . S
C5747 C5746 1.387 . S
C5747 C5749 1.387 . S
H5748 C5755 0.950 . S
C5749 C5747 1.387 . S
C5749 C5751 1.390 . S
C5749 H5753 0.950 . S
H5750 C5746 0.950 . S
C5751 C5749 1.390 . S
C5751 C5752 1.387 . S
C5751 H5754 0.950 . S
C5752 C5751 1.387 . S
C5752 C5755 1.387 . S
H5753 C5749 0.950 . S
H5754 C5751 0.950 . S
C5755 C5746 1.390 . S
C5755 H5748 0.950 . S
C5755 C5752 1.387 . S
C5756 C5757 1.387 . S
C5756 H5760 0.950 . S
C5756 C5765 1.390 . S
C5757 C5756 1.387 . S
C5757 C5759 1.387 . S
H5758 C5765 0.950 . S
C5759 C5757 1.387 . S
C5759 C5761 1.390 . S
C5759 H5763 0.950 . S
H5760 C5756 0.950 . S
C5761 C5759 1.390 . S
C5761 C5762 1.387 . S
C5761 H5764 0.950 . S
C5762 C5761 1.387 . S
C5762 C5765 1.387 . S
H5763 C5759 0.950 . S
H5764 C5761 0.950 . S
C5765 C5756 1.390 . S
C5765 H5758 0.950 . S
C5765 C5762 1.387 . S
C5766 C5767 1.387 . S
C5766 H5770 0.950 . S
C5766 C5775 1.390 . S
C5767 C5766 1.387 . S
C5767 C5769 1.387 . S
H5768 C5775 0.950 . S
C5769 C5767 1.387 . S
C5769 C5771 1.390 . S
C5769 H5773 0.950 . S
H5770 C5766 0.950 . S
C5771 C5769 1.390 . S
C5771 C5772 1.387 . S
C5771 H5774 0.950 . S
C5772 C5771 1.387 . S
C5772 C5775 1.387 . S
H5773 C5769 0.950 . S
H5774 C5771 0.950 . S
C5775 C5766 1.390 . S
C5775 H5768 0.950 . S
C5775 C5772 1.387 . S
C5776 C5777 1.387 . S
C5776 H5780 0.950 . S
C5776 C5785 1.390 . S
C5777 C5776 1.387 . S
C5777 C5779 1.387 . S
H5778 C5785 0.950 . S
C5779 C5777 1.387 . S
C5779 C5781 1.390 . S
C5779 H5783 0.950 . S
H5780 C5776 0.950 . S
C5781 C5779 1.390 . S
C5781 C5782 1.387 . S
C5781 H5784 0.950 . S
C5782 C5781 1.387 . S
C5782 C5785 1.387 . S
H5783 C5779 0.950 . S
H5784 C5781 0.950 . S
C5785 C5776 1.390 . S
C5785 H5778 0.950 . S
C5785 C5782 1.387 . S
C5786 C5787 1.387 . S
C5786 H5790 0.950 . S
C5786 C5795 1.390 . S
C5787 C5786 1.387 . S
C5787 C5789 1.387 . S
H5788 C5795 0.950 . S
C5789 C5787 1.387 . S
C5789 C5791 1.390 . S
C5789 H5793 0.950 . S
H5790 C5786 0.950 . S
C5791 C5789 1.390 . S
C5791 C5792 1.387 . S
C5791 H5794 0.950 . S
C5792 C5791 1.387 . S
C5792 C5795 1.387 . S
H5793 C5789 0.950 . S
H5794 C5791 0.950 . S
C5795 C5786 1.390 . S
C5795 H5788 0.950 . S
C5795 C5792 1.387 . S
C5796 C5797 1.387 . S
C5796 H5800 0.950 . S
C5796 C5805 1.390 . S
C5797 C5796 1.387 . S
C5797 C5799 1.387 . S
H5798 C5805 0.950 . S
C5799 C5797 1.387 . S
C5799 C5801 1.390 . S
C5799 H5803 0.950 . S
H5800 C5796 0.950 . S
C5801 C5799 1.390 . S
C5801 C5802 1.387 . S
C5801 H5804 0.950 . S
C5802 C5801 1.387 . S
C5802 C5805 1.387 . S
H5803 C5799 0.950 . S
H5804 C5801 0.950 . S
C5805 C5796 1.390 . S
C5805 H5798 0.950 . S
C5805 C5802 1.387 . S
C5806 C5807 1.387 . S
C5806 H5810 0.950 . S
C5806 C5815 1.390 . S
C5807 C5806 1.387 . S
C5807 C5809 1.387 . S
H5808 C5815 0.950 . S
C5809 C5807 1.387 . S
C5809 C5811 1.390 1_554 S
C5809 H5813 0.950 . S
H5810 C5806 0.950 . S
C5811 C5809 1.390 1_556 S
C5811 C5812 1.387 . S
C5811 H5814 0.950 . S
C5812 C5811 1.387 . S
C5812 C5815 1.387 1_556 S
H5813 C5809 0.950 . S
H5814 C5811 0.950 . S
C5815 C5806 1.390 . S
C5815 H5808 0.950 . S
C5815 C5812 1.387 1_554 S
C5816 C5817 1.387 . S
C5816 H5820 0.950 . S
C5816 C5825 1.390 . S
C5817 C5816 1.387 . S
C5817 C5819 1.387 . S
H5818 C5825 0.950 . S
C5819 C5817 1.387 . S
C5819 C5821 1.390 . S
C5819 H5823 0.950 . S
H5820 C5816 0.950 . S
C5821 C5819 1.390 . S
C5821 C5822 1.387 . S
C5821 H5824 0.950 . S
C5822 C5821 1.387 . S
C5822 C5825 1.387 . S
H5823 C5819 0.950 . S
H5824 C5821 0.950 . S
C5825 C5816 1.390 . S
C5825 H5818 0.950 . S
C5825 C5822 1.387 . S
C5826 C5827 1.387 . S
C5826 H5830 0.950 . S
C5826 C5835 1.390 . S
C5827 C5826 1.387 . S
C5827 C5829 1.387 . S
H5828 C5835 0.950 . S
C5829 C5827 1.387 . S
C5829 C5831 1.390 1_556 S
C5829 H5833 0.950 . S
H5830 C5826 0.950 . S
C5831 C5829 1.390 1_554 S
C5831 C5832 1.387 . S
C5831 H5834 0.950 . S
C5832 C5831 1.387 . S
C5832 C5835 1.387 1_554 S
H5833 C5829 0.950 . S
H5834 C5831 0.950 . S
C5835 C5826 1.390 . S
C5835 H5828 0.950 . S
C5835 C5832 1.387 1_556 S
C5836 C5837 1.387 . S
C5836 H5840 0.950 . S
C5836 C5845 1.390 . S
C5837 C5836 1.387 . S
C5837 C5839 1.387 . S
H5838 C5845 0.950 . S
C5839 C5837 1.387 . S
C5839 C5841 1.390 . S
C5839 H5843 0.950 . S
H5840 C5836 0.950 . S
C5841 C5839 1.390 . S
C5841 C5842 1.387 . S
C5841 H5844 0.950 . S
C5842 C5841 1.387 . S
C5842 C5845 1.387 . S
H5843 C5839 0.950 . S
H5844 C5841 0.950 . S
C5845 C5836 1.390 . S
C5845 H5838 0.950 . S
C5845 C5842 1.387 . S
C5846 C5847 1.387 . S
C5846 H5850 0.950 . S
C5846 C5855 1.390 . S
C5847 C5846 1.387 . S
C5847 C5849 1.387 . S
H5848 C5855 0.950 . S
C5849 C5847 1.387 . S
C5849 C5851 1.390 . S
C5849 H5853 0.950 . S
H5850 C5846 0.950 . S
C5851 C5849 1.390 . S
C5851 C5852 1.387 . S
C5851 H5854 0.950 . S
C5852 C5851 1.387 . S
C5852 C5855 1.387 . S
H5853 C5849 0.950 . S
H5854 C5851 0.950 . S
C5855 C5846 1.390 . S
C5855 H5848 0.950 . S
C5855 C5852 1.387 . S
C5856 C5857 1.387 . S
C5856 H5860 0.950 . S
C5856 C5865 1.390 . S
C5857 C5856 1.387 . S
C5857 C5859 1.387 . S
H5858 C5865 0.950 . S
C5859 C5857 1.387 . S
C5859 C5861 1.390 . S
C5859 H5863 0.950 . S
H5860 C5856 0.950 . S
C5861 C5859 1.390 . S
C5861 C5862 1.387 . S
C5861 H5864 0.950 . S
C5862 C5861 1.387 . S
C5862 C5865 1.387 . S
H5863 C5859 0.950 . S
H5864 C5861 0.950 . S
C5865 C5856 1.390 . S
C5865 H5858 0.950 . S
C5865 C5862 1.387 . S
C5866 C5867 1.387 . S
C5866 H5870 0.950 . S
C5866 C5875 1.390 . S
C5867 C5866 1.387 . S
C5867 C5869 1.387 . S
H5868 C5875 0.950 . S
C5869 C5867 1.387 . S
C5869 C5871 1.390 . S
C5869 H5873 0.950 . S
H5870 C5866 0.950 . S
C5871 C5869 1.390 . S
C5871 C5872 1.387 . S
C5871 H5874 0.950 . S
C5872 C5871 1.387 . S
C5872 C5875 1.387 . S
H5873 C5869 0.950 . S
H5874 C5871 0.950 . S
C5875 C5866 1.390 . S
C5875 H5868 0.950 . S
C5875 C5872 1.387 . S
C5876 C5877 1.387 . S
C5876 H5880 0.950 . S
C5876 C5885 1.390 . S
C5877 C5876 1.387 . S
C5877 C5879 1.387 . S
H5878 C5885 0.950 . S
C5879 C5877 1.387 . S
C5879 C5881 1.390 . S
C5879 H5883 0.950 . S
H5880 C5876 0.950 . S
C5881 C5879 1.390 . S
C5881 C5882 1.387 . S
C5881 H5884 0.950 . S
C5882 C5881 1.387 . S
C5882 C5885 1.387 . S
H5883 C5879 0.950 . S
H5884 C5881 0.950 . S
C5885 C5876 1.390 . S
C5885 H5878 0.950 . S
C5885 C5882 1.387 . S
C5886 C5887 1.387 . S
C5886 H5890 0.950 . S
C5886 C5895 1.390 . S
C5887 C5886 1.387 . S
C5887 C5889 1.387 . S
H5888 C5895 0.950 . S
C5889 C5887 1.387 . S
C5889 C5891 1.390 . S
C5889 H5893 0.950 . S
H5890 C5886 0.950 . S
C5891 C5889 1.390 . S
C5891 C5892 1.387 . S
C5891 H5894 0.950 . S
C5892 C5891 1.387 . S
C5892 C5895 1.387 . S
H5893 C5889 0.950 . S
H5894 C5891 0.950 . S
C5895 C5886 1.390 . S
C5895 H5888 0.950 . S
C5895 C5892 1.387 . S
C5896 C5897 1.387 . S
C5896 H5900 0.950 . S
C5896 C5905 1.390 . S
C5897 C5896 1.387 . S
C5897 C5899 1.387 . S
H5898 C5905 0.950 . S
C5899 C5897 1.387 . S
C5899 C5901 1.390 . S
C5899 H5903 0.950 . S
H5900 C5896 0.950 . S
C5901 C5899 1.390 . S
C5901 C5902 1.387 . S
C5901 H5904 0.950 . S
C5902 C5901 1.387 . S
C5902 C5905 1.387 . S
H5903 C5899 0.950 . S
H5904 C5901 0.950 . S
C5905 C5896 1.390 . S
C5905 H5898 0.950 . S
C5905 C5902 1.387 . S
C5906 C5907 1.387 . S
C5906 H5910 0.950 . S
C5906 C5915 1.390 . S
C5907 C5906 1.387 . S
C5907 C5909 1.387 . S
H5908 C5915 0.950 . S
C5909 C5907 1.387 . S
C5909 C5911 1.390 . S
C5909 H5913 0.950 . S
H5910 C5906 0.950 . S
C5911 C5909 1.390 . S
C5911 C5912 1.387 . S
C5911 H5914 0.950 . S
C5912 C5911 1.387 . S
C5912 C5915 1.387 . S
H5913 C5909 0.950 . S
H5914 C5911 0.950 . S
C5915 C5906 1.390 . S
C5915 H5908 0.950 . S
C5915 C5912 1.387 . S
C5916 C5917 1.387 . S
C5916 H5920 0.950 . S
C5916 C5925 1.390 . S
C5917 C5916 1.387 . S
C5917 C5919 1.387 . S
H5918 C5925 0.950 . S
C5919 C5917 1.387 . S
C5919 C5921 1.390 . S
C5919 H5923 0.950 . S
H5920 C5916 0.950 . S
C5921 C5919 1.390 . S
C5921 C5922 1.387 . S
C5921 H5924 0.950 . S
C5922 C5921 1.387 . S
C5922 C5925 1.387 . S
H5923 C5919 0.950 . S
H5924 C5921 0.950 . S
C5925 C5916 1.390 . S
C5925 H5918 0.950 . S
C5925 C5922 1.387 . S
C5926 C5927 1.387 . S
C5926 H5930 0.950 . S
C5926 C5935 1.390 . S
C5927 C5926 1.387 . S
C5927 C5929 1.387 . S
H5928 C5935 0.950 . S
C5929 C5927 1.387 . S
C5929 C5931 1.390 . S
C5929 H5933 0.950 . S
H5930 C5926 0.950 . S
C5931 C5929 1.390 . S
C5931 C5932 1.387 . S
C5931 H5934 0.950 . S
C5932 C5931 1.387 . S
C5932 C5935 1.387 . S
H5933 C5929 0.950 . S
H5934 C5931 0.950 . S
C5935 C5926 1.390 . S
C5935 H5928 0.950 . S
C5935 C5932 1.387 . S
C5936 C5937 1.387 . S
C5936 H5940 0.950 . S
C5936 C5945 1.390 . S
C5937 C5936 1.387 . S
C5937 C5939 1.387 . S
H5938 C5945 0.950 . S
C5939 C5937 1.387 . S
C5939 C5941 1.390 . S
C5939 H5943 0.950 . S
H5940 C5936 0.950 . S
C5941 C5939 1.390 . S
C5941 C5942 1.387 . S
C5941 H5944 0.950 . S
C5942 C5941 1.387 . S
C5942 C5945 1.387 . S
H5943 C5939 0.950 . S
H5944 C5941 0.950 . S
C5945 C5936 1.390 . S
C5945 H5938 0.950 . S
C5945 C5942 1.387 . S
C5946 C5947 1.387 . S
C5946 H5950 0.950 . S
C5946 C5955 1.390 . S
C5947 C5946 1.387 . S
C5947 C5949 1.387 . S
H5948 C5955 0.950 . S
C5949 C5947 1.387 . S
C5949 C5951 1.390 . S
C5949 H5953 0.950 . S
H5950 C5946 0.950 . S
C5951 C5949 1.390 . S
C5951 C5952 1.387 . S
C5951 H5954 0.950 . S
C5952 C5951 1.387 . S
C5952 C5955 1.387 . S
H5953 C5949 0.950 . S
H5954 C5951 0.950 . S
C5955 C5946 1.390 . S
C5955 H5948 0.950 . S
C5955 C5952 1.387 . S
C5956 C5957 1.387 . S
C5956 H5960 0.950 . S
C5956 C5965 1.390 . S
C5957 C5956 1.387 . S
C5957 C5959 1.387 . S
H5958 C5965 0.950 . S
C5959 C5957 1.387 . S
C5959 C5961 1.390 . S
C5959 H5963 0.950 . S
H5960 C5956 0.950 . S
C5961 C5959 1.390 . S
C5961 C5962 1.387 . S
C5961 H5964 0.950 . S
C5962 C5961 1.387 . S
C5962 C5965 1.387 . S
H5963 C5959 0.950 . S
H5964 C5961 0.950 . S
C5965 C5956 1.390 . S
C5965 H5958 0.950 . S
C5965 C5962 1.387 . S
C5966 C5967 1.387 . S
C5966 H5970 0.950 . S
C5966 C5975 1.390 . S
C5967 C5966 1.387 . S
C5967 C5969 1.387 . S
H5968 C5975 0.950 . S
C5969 C5967 1.387 . S
C5969 C5971 1.390 . S
C5969 H5973 0.950 . S
H5970 C5966 0.950 . S
C5971 C5969 1.390 . S
C5971 C5972 1.387 . S
C5971 H5974 0.950 . S
C5972 C5971 1.387 . S
C5972 C5975 1.387 . S
H5973 C5969 0.950 . S
H5974 C5971 0.950 . S
C5975 C5966 1.390 . S
C5975 H5968 0.950 . S
C5975 C5972 1.387 . S
C5976 C5977 1.387 . S
C5976 H5980 0.950 . S
C5976 C5985 1.390 . S
C5977 C5976 1.387 . S
C5977 C5979 1.387 . S
H5978 C5985 0.950 . S
C5979 C5977 1.387 . S
C5979 C5981 1.390 . S
C5979 H5983 0.950 . S
H5980 C5976 0.950 . S
C5981 C5979 1.390 . S
C5981 C5982 1.387 . S
C5981 H5984 0.950 . S
C5982 C5981 1.387 . S
C5982 C5985 1.387 . S
H5983 C5979 0.950 . S
H5984 C5981 0.950 . S
C5985 C5976 1.390 . S
C5985 H5978 0.950 . S
C5985 C5982 1.387 . S
C5986 C5987 1.387 . S
C5986 H5990 0.950 . S
C5986 C5995 1.390 . S
C5987 C5986 1.387 . S
C5987 C5989 1.387 . S
H5988 C5995 0.950 . S
C5989 C5987 1.387 . S
C5989 C5991 1.390 . S
C5989 H5993 0.950 . S
H5990 C5986 0.950 . S
C5991 C5989 1.390 . S
C5991 C5992 1.387 . S
C5991 H5994 0.950 . S
C5992 C5991 1.387 . S
C5992 C5995 1.387 . S
H5993 C5989 0.950 . S
H5994 C5991 0.950 . S
C5995 C5986 1.390 . S
C5995 H5988 0.950 . S
C5995 C5992 1.387 . S
C5996 C5997 1.387 . S
C5996 H6000 0.950 . S
C5996 C6005 1.390 . S
C5997 C5996 1.387 . S
C5997 C5999 1.387 . S
H5998 C6005 0.950 . S
C5999 C5997 1.387 . S
C5999 C6001 1.390 . S
C5999 H6003 0.950 . S
H6000 C5996 0.950 . S
C6001 C5999 1.390 . S
C6001 C6002 1.387 . S
C6001 H6004 0.950 . S
C6002 C6001 1.387 . S
C6002 C6005 1.387 . S
H6003 C5999 0.950 . S
H6004 C6001 0.950 . S
C6005 C5996 1.390 . S
C6005 H5998 0.950 . S
C6005 C6002 1.387 . S
C6006 C6007 1.387 . S
C6006 H6010 0.950 . S
C6006 C6015 1.390 . S
C6007 C6006 1.387 . S
C6007 C6009 1.387 . S
H6008 C6015 0.950 . S
C6009 C6007 1.387 . S
C6009 C6011 1.390 . S
C6009 H6013 0.950 . S
H6010 C6006 0.950 . S
C6011 C6009 1.390 . S
C6011 C6012 1.387 . S
C6011 H6014 0.950 . S
C6012 C6011 1.387 . S
C6012 C6015 1.387 . S
H6013 C6009 0.950 . S
H6014 C6011 0.950 . S
C6015 C6006 1.390 . S
C6015 H6008 0.950 . S
C6015 C6012 1.387 . S
C6016 C6017 1.387 . S
C6016 H6020 0.950 . S
C6016 C6025 1.390 . S
C6017 C6016 1.387 . S
C6017 C6019 1.387 . S
H6018 C6025 0.950 . S
C6019 C6017 1.387 . S
C6019 C6021 1.390 . S
C6019 H6023 0.950 . S
H6020 C6016 0.950 . S
C6021 C6019 1.390 . S
C6021 C6022 1.387 . S
C6021 H6024 0.950 . S
C6022 C6021 1.387 . S
C6022 C6025 1.387 . S
H6023 C6019 0.950 . S
H6024 C6021 0.950 . S
C6025 C6016 1.390 . S
C6025 H6018 0.950 . S
C6025 C6022 1.387 . S
C6026 C6027 1.387 . S
C6026 H6030 0.950 . S
C6026 C6035 1.390 . S
C6027 C6026 1.387 . S
C6027 C6029 1.387 . S
H6028 C6035 0.950 . S
C6029 C6027 1.387 . S
C6029 C6031 1.390 . S
C6029 H6033 0.950 . S
H6030 C6026 0.950 . S
C6031 C6029 1.390 . S
C6031 C6032 1.387 . S
C6031 H6034 0.950 . S
C6032 C6031 1.387 . S
C6032 C6035 1.387 . S
H6033 C6029 0.950 . S
H6034 C6031 0.950 . S
C6035 C6026 1.390 . S
C6035 H6028 0.950 . S
C6035 C6032 1.387 . S
C6036 C6037 1.387 . S
C6036 H6040 0.950 . S
C6036 C6045 1.390 . S
C6037 C6036 1.387 . S
C6037 C6039 1.387 . S
H6038 C6045 0.950 . S
C6039 C6037 1.387 . S
C6039 C6041 1.390 . S
C6039 H6043 0.950 . S
H6040 C6036 0.950 . S
C6041 C6039 1.390 . S
C6041 C6042 1.387 . S
C6041 H6044 0.950 . S
C6042 C6041 1.387 . S
C6042 C6045 1.387 . S
H6043 C6039 0.950 . S
H6044 C6041 0.950 . S
C6045 C6036 1.390 . S
C6045 H6038 0.950 . S
C6045 C6042 1.387 . S
C6046 C6047 1.387 . S
C6046 H6050 0.950 . S
C6046 C6055 1.390 . S
C6047 C6046 1.387 . S
C6047 C6049 1.387 . S
H6048 C6055 0.950 . S
C6049 C6047 1.387 . S
C6049 C6051 1.390 . S
C6049 H6053 0.950 . S
H6050 C6046 0.950 . S
C6051 C6049 1.390 . S
C6051 C6052 1.387 . S
C6051 H6054 0.950 . S
C6052 C6051 1.387 . S
C6052 C6055 1.387 . S
H6053 C6049 0.950 . S
H6054 C6051 0.950 . S
C6055 C6046 1.390 . S
C6055 H6048 0.950 . S
C6055 C6052 1.387 . S
C6056 C6057 1.387 . S
C6056 H6060 0.950 . S
C6056 C6065 1.390 . S
C6057 C6056 1.387 . S
C6057 C6059 1.387 . S
H6058 C6065 0.950 . S
C6059 C6057 1.387 . S
C6059 C6061 1.390 . S
C6059 H6063 0.950 . S
H6060 C6056 0.950 . S
C6061 C6059 1.390 . S
C6061 C6062 1.387 . S
C6061 H6064 0.950 . S
C6062 C6061 1.387 . S
C6062 C6065 1.387 . S
H6063 C6059 0.950 . S
H6064 C6061 0.950 . S
C6065 C6056 1.390 . S
C6065 H6058 0.950 . S
C6065 C6062 1.387 . S
C6066 C6067 1.387 . S
C6066 H6070 0.950 . S
C6066 C6075 1.390 . S
C6067 C6066 1.387 . S
C6067 C6069 1.387 . S
H6068 C6075 0.950 . S
C6069 C6067 1.387 . S
C6069 C6071 1.390 . S
C6069 H6073 0.950 . S
H6070 C6066 0.950 . S
C6071 C6069 1.390 . S
C6071 C6072 1.387 . S
C6071 H6074 0.950 . S
C6072 C6071 1.387 . S
C6072 C6075 1.387 . S
H6073 C6069 0.950 . S
H6074 C6071 0.950 . S
C6075 C6066 1.390 . S
C6075 H6068 0.950 . S
C6075 C6072 1.387 . S
C6076 C6077 1.387 . S
C6076 H6080 0.950 . S
C6076 C6085 1.390 . S
C6077 C6076 1.387 . S
C6077 C6079 1.387 . S
H6078 C6085 0.950 . S
C6079 C6077 1.387 . S
C6079 C6081 1.390 . S
C6079 H6083 0.950 . S
H6080 C6076 0.950 . S
C6081 C6079 1.390 . S
C6081 C6082 1.387 . S
C6081 H6084 0.950 . S
C6082 C6081 1.387 . S
C6082 C6085 1.387 . S
H6083 C6079 0.950 . S
H6084 C6081 0.950 . S
C6085 C6076 1.390 . S
C6085 H6078 0.950 . S
C6085 C6082 1.387 . S
C6086 C6087 1.387 . S
C6086 H6090 0.950 . S
C6086 C6095 1.390 . S
C6087 C6086 1.387 . S
C6087 C6089 1.387 . S
H6088 C6095 0.950 . S
C6089 C6087 1.387 . S
C6089 C6091 1.390 . S
C6089 H6093 0.950 . S
H6090 C6086 0.950 . S
C6091 C6089 1.390 . S
C6091 C6092 1.387 . S
C6091 H6094 0.950 . S
C6092 C6091 1.387 . S
C6092 C6095 1.387 . S
H6093 C6089 0.950 . S
H6094 C6091 0.950 . S
C6095 C6086 1.390 . S
C6095 H6088 0.950 . S
C6095 C6092 1.387 . S
C6096 C6097 1.387 . S
C6096 H6100 0.950 . S
C6096 C6105 1.390 . S
C6097 C6096 1.387 . S
C6097 C6099 1.387 . S
H6098 C6105 0.950 . S
C6099 C6097 1.387 . S
C6099 C6101 1.390 . S
C6099 H6103 0.950 . S
H6100 C6096 0.950 . S
C6101 C6099 1.390 . S
C6101 C6102 1.387 . S
C6101 H6104 0.950 . S
C6102 C6101 1.387 . S
C6102 C6105 1.387 . S
H6103 C6099 0.950 . S
H6104 C6101 0.950 . S
C6105 C6096 1.390 . S
C6105 H6098 0.950 . S
C6105 C6102 1.387 . S
C6106 C6107 1.387 . S
C6106 H6110 0.950 . S
C6106 C6115 1.390 . S
C6107 C6106 1.387 . S
C6107 C6109 1.387 . S
H6108 C6115 0.950 . S
C6109 C6107 1.387 . S
C6109 C6111 1.390 . S
C6109 H6113 0.950 . S
H6110 C6106 0.950 . S
C6111 C6109 1.390 . S
C6111 C6112 1.387 . S
C6111 H6114 0.950 . S
C6112 C6111 1.387 . S
C6112 C6115 1.387 . S
H6113 C6109 0.950 . S
H6114 C6111 0.950 . S
C6115 C6106 1.390 . S
C6115 H6108 0.950 . S
C6115 C6112 1.387 . S
C6116 C6117 1.387 . S
C6116 H6120 0.950 . S
C6116 C6125 1.390 . S
C6117 C6116 1.387 . S
C6117 C6119 1.387 . S
H6118 C6125 0.950 . S
C6119 C6117 1.387 . S
C6119 C6121 1.390 . S
C6119 H6123 0.950 . S
H6120 C6116 0.950 . S
C6121 C6119 1.390 . S
C6121 C6122 1.387 . S
C6121 H6124 0.950 . S
C6122 C6121 1.387 . S
C6122 C6125 1.387 . S
H6123 C6119 0.950 . S
H6124 C6121 0.950 . S
C6125 C6116 1.390 . S
C6125 H6118 0.950 . S
C6125 C6122 1.387 . S
C6126 C6127 1.387 . S
C6126 H6130 0.950 . S
C6126 C6135 1.390 . S
C6127 C6126 1.387 . S
C6127 C6129 1.387 . S
H6128 C6135 0.950 . S
C6129 C6127 1.387 . S
C6129 C6131 1.390 . S
C6129 H6133 0.950 . S
H6130 C6126 0.950 . S
C6131 C6129 1.390 . S
C6131 C6132 1.387 . S
C6131 H6134 0.950 . S
C6132 C6131 1.387 . S
C6132 C6135 1.387 . S
H6133 C6129 0.950 . S
H6134 C6131 0.950 . S
C6135 C6126 1.390 . S
C6135 H6128 0.950 . S
C6135 C6132 1.387 . S
C6136 C6137 1.387 . S
C6136 H6140 0.950 . S
C6136 C6145 1.390 . S
C6137 C6136 1.387 . S
C6137 C6139 1.387 . S
H6138 C6145 0.950 . S
C6139 C6137 1.387 . S
C6139 C6141 1.390 . S
C6139 H6143 0.950 . S
H6140 C6136 0.950 . S
C6141 C6139 1.390 . S
C6141 C6142 1.387 . S
C6141 H6144 0.950 . S
C6142 C6141 1.387 . S
C6142 C6145 1.387 . S
H6143 C6139 0.950 . S
H6144 C6141 0.950 . S
C6145 C6136 1.390 . S
C6145 H6138 0.950 . S
C6145 C6142 1.387 . S
C6146 C6147 1.387 . S
C6146 H6150 0.950 . S
C6146 C6155 1.390 . S
C6147 C6146 1.387 . S
C6147 C6149 1.387 . S
H6148 C6155 0.950 . S
C6149 C6147 1.387 . S
C6149 C6151 1.390 . S
C6149 H6153 0.950 . S
H6150 C6146 0.950 . S
C6151 C6149 1.390 . S
C6151 C6152 1.387 . S
C6151 H6154 0.950 . S
C6152 C6151 1.387 . S
C6152 C6155 1.387 . S
H6153 C6149 0.950 . S
H6154 C6151 0.950 . S
C6155 C6146 1.390 . S
C6155 H6148 0.950 . S
C6155 C6152 1.387 . S
C6156 C6157 1.387 . S
C6156 H6160 0.950 . S
C6156 C6165 1.390 . S
C6157 C6156 1.387 . S
C6157 C6159 1.387 . S
H6158 C6165 0.950 . S
C6159 C6157 1.387 . S
C6159 C6161 1.390 . S
C6159 H6163 0.950 . S
H6160 C6156 0.950 . S
C6161 C6159 1.390 . S
C6161 C6162 1.387 . S
C6161 H6164 0.950 . S
C6162 C6161 1.387 . S
C6162 C6165 1.387 . S
H6163 C6159 0.950 . S
H6164 C6161 0.950 . S
C6165 C6156 1.390 . S
C6165 H6158 0.950 . S
C6165 C6162 1.387 . S
C6166 C6167 1.387 . S
C6166 H6170 0.950 . S
C6166 C6175 1.390 . S
C6167 C6166 1.387 . S
C6167 C6169 1.387 . S
H6168 C6175 0.950 . S
C6169 C6167 1.387 . S
C6169 C6171 1.390 . S
C6169 H6173 0.950 . S
H6170 C6166 0.950 . S
C6171 C6169 1.390 . S
C6171 C6172 1.387 . S
C6171 H6174 0.950 . S
C6172 C6171 1.387 . S
C6172 C6175 1.387 . S
H6173 C6169 0.950 . S
H6174 C6171 0.950 . S
C6175 C6166 1.390 . S
C6175 H6168 0.950 . S
C6175 C6172 1.387 . S
C6176 C6177 1.387 . S
C6176 H6180 0.950 . S
C6176 C6185 1.390 . S
C6177 C6176 1.387 . S
C6177 C6179 1.387 . S
H6178 C6185 0.950 . S
C6179 C6177 1.387 . S
C6179 C6181 1.390 . S
C6179 H6183 0.950 . S
H6180 C6176 0.950 . S
C6181 C6179 1.390 . S
C6181 C6182 1.387 . S
C6181 H6184 0.950 . S
C6182 C6181 1.387 . S
C6182 C6185 1.387 . S
H6183 C6179 0.950 . S
H6184 C6181 0.950 . S
C6185 C6176 1.390 . S
C6185 H6178 0.950 . S
C6185 C6182 1.387 . S
C6186 C6187 1.387 . S
C6186 H6190 0.950 . S
C6186 C6195 1.390 . S
C6187 C6186 1.387 . S
C6187 C6189 1.387 . S
H6188 C6195 0.950 . S
C6189 C6187 1.387 . S
C6189 C6191 1.390 . S
C6189 H6193 0.950 . S
H6190 C6186 0.950 . S
C6191 C6189 1.390 . S
C6191 C6192 1.387 . S
C6191 H6194 0.950 . S
C6192 C6191 1.387 . S
C6192 C6195 1.387 . S
H6193 C6189 0.950 . S
H6194 C6191 0.950 . S
C6195 C6186 1.390 . S
C6195 H6188 0.950 . S
C6195 C6192 1.387 . S
C6196 C6197 1.387 . S
C6196 H6200 0.950 . S
C6196 C6205 1.390 . S
C6197 C6196 1.387 . S
C6197 C6199 1.387 . S
H6198 C6205 0.950 . S
C6199 C6197 1.387 . S
C6199 C6201 1.390 . S
C6199 H6203 0.950 . S
H6200 C6196 0.950 . S
C6201 C6199 1.390 . S
C6201 C6202 1.387 . S
C6201 H6204 0.950 . S
C6202 C6201 1.387 . S
C6202 C6205 1.387 . S
H6203 C6199 0.950 . S
H6204 C6201 0.950 . S
C6205 C6196 1.390 . S
C6205 H6198 0.950 . S
C6205 C6202 1.387 . S
C6206 C6207 1.387 . S
C6206 H6210 0.950 . S
C6206 C6215 1.390 . S
C6207 C6206 1.387 . S
C6207 C6209 1.387 . S
H6208 C6215 0.950 . S
C6209 C6207 1.387 . S
C6209 C6211 1.390 . S
C6209 H6213 0.950 . S
H6210 C6206 0.950 . S
C6211 C6209 1.390 . S
C6211 C6212 1.387 . S
C6211 H6214 0.950 . S
C6212 C6211 1.387 . S
C6212 C6215 1.387 . S
H6213 C6209 0.950 . S
H6214 C6211 0.950 . S
C6215 C6206 1.390 . S
C6215 H6208 0.950 . S
C6215 C6212 1.387 . S
C6216 C6217 1.387 . S
C6216 H6220 0.950 . S
C6216 C6225 1.390 . S
C6217 C6216 1.387 . S
C6217 C6219 1.387 . S
H6218 C6225 0.950 . S
C6219 C6217 1.387 . S
C6219 C6221 1.390 . S
C6219 H6223 0.950 . S
H6220 C6216 0.950 . S
C6221 C6219 1.390 . S
C6221 C6222 1.387 . S
C6221 H6224 0.950 . S
C6222 C6221 1.387 . S
C6222 C6225 1.387 . S
H6223 C6219 0.950 . S
H6224 C6221 0.950 . S
C6225 C6216 1.390 . S
C6225 H6218 0.950 . S
C6225 C6222 1.387 . S
C6226 C6227 1.387 . S
C6226 H6230 0.950 . S
C6226 C6235 1.390 . S
C6227 C6226 1.387 . S
C6227 C6229 1.387 . S
H6228 C6235 0.950 . S
C6229 C6227 1.387 . S
C6229 C6231 1.390 . S
C6229 H6233 0.950 . S
H6230 C6226 0.950 . S
C6231 C6229 1.390 . S
C6231 C6232 1.387 . S
C6231 H6234 0.950 . S
C6232 C6231 1.387 . S
C6232 C6235 1.387 . S
H6233 C6229 0.950 . S
H6234 C6231 0.950 . S
C6235 C6226 1.390 . S
C6235 H6228 0.950 . S
C6235 C6232 1.387 . S
C6236 C6237 1.387 . S
C6236 H6240 0.950 . S
C6236 C6245 1.390 . S
C6237 C6236 1.387 . S
C6237 C6239 1.387 . S
H6238 C6245 0.950 . S
C6239 C6237 1.387 . S
C6239 C6241 1.390 . S
C6239 H6243 0.950 . S
H6240 C6236 0.950 . S
C6241 C6239 1.390 . S
C6241 C6242 1.387 . S
C6241 H6244 0.950 . S
C6242 C6241 1.387 . S
C6242 C6245 1.387 . S
H6243 C6239 0.950 . S
H6244 C6241 0.950 . S
C6245 C6236 1.390 . S
C6245 H6238 0.950 . S
C6245 C6242 1.387 . S
C6246 C6247 1.387 . S
C6246 H6250 0.950 . S
C6246 C6255 1.390 . S
C6247 C6246 1.387 . S
C6247 C6249 1.387 . S
H6248 C6255 0.950 . S
C6249 C6247 1.387 . S
C6249 C6251 1.390 . S
C6249 H6253 0.950 . S
H6250 C6246 0.950 . S
C6251 C6249 1.390 . S
C6251 C6252 1.387 . S
C6251 H6254 0.950 . S
C6252 C6251 1.387 . S
C6252 C6255 1.387 . S
H6253 C6249 0.950 . S
H6254 C6251 0.950 . S
C6255 C6246 1.390 . S
C6255 H6248 0.950 . S
C6255 C6252 1.387 . S
C6256 C6257 1.387 . S
C6256 H6260 0.950 . S
C6256 C6265 1.390 . S
C6257 C6256 1.387 . S
C6257 C6259 1.387 . S
H6258 C6265 0.950 . S
C6259 C6257 1.387 . S
C6259 C6261 1.390 . S
C6259 H6263 0.950 . S
H6260 C6256 0.950 . S
C6261 C6259 1.390 . S
C6261 C6262 1.387 . S
C6261 H6264 0.950 . S
C6262 C6261 1.387 . S
C6262 C6265 1.387 . S
H6263 C6259 0.950 . S
H6264 C6261 0.950 . S
C6265 C6256 1.390 . S
C6265 H6258 0.950 . S
C6265 C6262 1.387 . S
C6266 C6267 1.387 . S
C6266 H6270 0.950 . S
C6266 C6275 1.390 . S
C6267 C6266 1.387 . S
C6267 C6269 1.387 . S
H6268 C6275 0.950 . S
C6269 C6267 1.387 . S
C6269 C6271 1.390 . S
C6269 H6273 0.950 . S
H6270 C6266 0.950 . S
C6271 C6269 1.390 . S
C6271 C6272 1.387 . S
C6271 H6274 0.950 . S
C6272 C6271 1.387 . S
C6272 C6275 1.387 . S
H6273 C6269 0.950 . S
H6274 C6271 0.950 . S
C6275 C6266 1.390 . S
C6275 H6268 0.950 . S
C6275 C6272 1.387 . S
C6276 C6277 1.387 . S
C6276 H6280 0.950 . S
C6276 C6285 1.390 . S
C6277 C6276 1.387 . S
C6277 C6279 1.387 . S
H6278 C6285 0.950 . S
C6279 C6277 1.387 . S
C6279 C6281 1.390 . S
C6279 H6283 0.950 . S
H6280 C6276 0.950 . S
C6281 C6279 1.390 . S
C6281 C6282 1.387 . S
C6281 H6284 0.950 . S
C6282 C6281 1.387 . S
C6282 C6285 1.387 . S
H6283 C6279 0.950 . S
H6284 C6281 0.950 . S
C6285 C6276 1.390 . S
C6285 H6278 0.950 . S
C6285 C6282 1.387 . S
C6286 C6287 1.387 . S
C6286 H6290 0.950 . S
C6286 C6295 1.390 . S
C6287 C6286 1.387 . S
C6287 C6289 1.387 . S
H6288 C6295 0.950 . S
C6289 C6287 1.387 . S
C6289 C6291 1.390 . S
C6289 H6293 0.950 . S
H6290 C6286 0.950 . S
C6291 C6289 1.390 . S
C6291 C6292 1.387 . S
C6291 H6294 0.950 . S
C6292 C6291 1.387 . S
C6292 C6295 1.387 . S
H6293 C6289 0.950 . S
H6294 C6291 0.950 . S
C6295 C6286 1.390 . S
C6295 H6288 0.950 . S
C6295 C6292 1.387 . S
C6296 C6297 1.387 . S
C6296 H6300 0.950 . S
C6296 C6305 1.390 . S
C6297 C6296 1.387 . S
C6297 C6299 1.387 . S
H6298 C6305 0.950 . S
C6299 C6297 1.387 . S
C6299 C6301 1.390 . S
C6299 H6303 0.950 . S
H6300 C6296 0.950 . S
C6301 C6299 1.390 . S
C6301 C6302 1.387 . S
C6301 H6304 0.950 . S
C6302 C6301 1.387 . S
C6302 C6305 1.387 . S
H6303 C6299 0.950 . S
H6304 C6301 0.950 . S
C6305 C6296 1.390 . S
C6305 H6298 0.950 . S
C6305 C6302 1.387 . S
C6306 C6307 1.387 . S
C6306 H6310 0.950 . S
C6306 C6315 1.390 . S
C6307 C6306 1.387 . S
C6307 C6309 1.387 . S
H6308 C6315 0.950 . S
C6309 C6307 1.387 . S
C6309 C6311 1.390 . S
C6309 H6313 0.950 . S
H6310 C6306 0.950 . S
C6311 C6309 1.390 . S
C6311 C6312 1.387 . S
C6311 H6314 0.950 . S
C6312 C6311 1.387 . S
C6312 C6315 1.387 . S
H6313 C6309 0.950 . S
H6314 C6311 0.950 . S
C6315 C6306 1.390 . S
C6315 H6308 0.950 . S
C6315 C6312 1.387 . S
C6316 C6317 1.387 . S
C6316 H6320 0.950 . S
C6316 C6325 1.390 . S
C6317 C6316 1.387 . S
C6317 C6319 1.387 . S
H6318 C6325 0.950 . S
C6319 C6317 1.387 . S
C6319 C6321 1.390 . S
C6319 H6323 0.950 . S
H6320 C6316 0.950 . S
C6321 C6319 1.390 . S
C6321 C6322 1.387 . S
C6321 H6324 0.950 . S
C6322 C6321 1.387 . S
C6322 C6325 1.387 . S
H6323 C6319 0.950 . S
H6324 C6321 0.950 . S
C6325 C6316 1.390 . S
C6325 H6318 0.950 . S
C6325 C6322 1.387 . S
C6326 C6327 1.387 . S
C6326 H6330 0.950 . S
C6326 C6335 1.390 . S
C6327 C6326 1.387 . S
C6327 C6329 1.387 . S
H6328 C6335 0.950 . S
C6329 C6327 1.387 . S
C6329 C6331 1.390 . S
C6329 H6333 0.950 . S
H6330 C6326 0.950 . S
C6331 C6329 1.390 . S
C6331 C6332 1.387 . S
C6331 H6334 0.950 . S
C6332 C6331 1.387 . S
C6332 C6335 1.387 . S
H6333 C6329 0.950 . S
H6334 C6331 0.950 . S
C6335 C6326 1.390 . S
C6335 H6328 0.950 . S
C6335 C6332 1.387 . S
C6336 C6337 1.387 . S
C6336 H6340 0.950 . S
C6336 C6345 1.390 . S
C6337 C6336 1.387 . S
C6337 C6339 1.387 . S
H6338 C6345 0.950 . S
C6339 C6337 1.387 . S
C6339 C6341 1.390 . S
C6339 H6343 0.950 . S
H6340 C6336 0.950 . S
C6341 C6339 1.390 . S
C6341 C6342 1.387 . S
C6341 H6344 0.950 . S
C6342 C6341 1.387 . S
C6342 C6345 1.387 . S
H6343 C6339 0.950 . S
H6344 C6341 0.950 . S
C6345 C6336 1.390 . S
C6345 H6338 0.950 . S
C6345 C6342 1.387 . S
C6346 C6347 1.387 . S
C6346 H6350 0.950 . S
C6346 C6355 1.390 . S
C6347 C6346 1.387 . S
C6347 C6349 1.387 . S
H6348 C6355 0.950 . S
C6349 C6347 1.387 . S
C6349 C6351 1.390 . S
C6349 H6353 0.950 . S
H6350 C6346 0.950 . S
C6351 C6349 1.390 . S
C6351 C6352 1.387 . S
C6351 H6354 0.950 . S
C6352 C6351 1.387 . S
C6352 C6355 1.387 . S
H6353 C6349 0.950 . S
H6354 C6351 0.950 . S
C6355 C6346 1.390 . S
C6355 H6348 0.950 . S
C6355 C6352 1.387 . S
C6356 C6357 1.387 . S
C6356 H6360 0.950 . S
C6356 C6365 1.390 . S
C6357 C6356 1.387 . S
C6357 C6359 1.387 . S
H6358 C6365 0.950 . S
C6359 C6357 1.387 . S
C6359 C6361 1.390 . S
C6359 H6363 0.950 . S
H6360 C6356 0.950 . S
C6361 C6359 1.390 . S
C6361 C6362 1.387 . S
C6361 H6364 0.950 . S
C6362 C6361 1.387 . S
C6362 C6365 1.387 . S
H6363 C6359 0.950 . S
H6364 C6361 0.950 . S
C6365 C6356 1.390 . S
C6365 H6358 0.950 . S
C6365 C6362 1.387 . S
C6366 C6367 1.387 . S
C6366 H6370 0.950 . S
C6366 C6375 1.390 . S
C6367 C6366 1.387 . S
C6367 C6369 1.387 . S
H6368 C6375 0.950 . S
C6369 C6367 1.387 . S
C6369 C6371 1.390 . S
C6369 H6373 0.950 . S
H6370 C6366 0.950 . S
C6371 C6369 1.390 . S
C6371 C6372 1.387 . S
C6371 H6374 0.950 . S
C6372 C6371 1.387 . S
C6372 C6375 1.387 . S
H6373 C6369 0.950 . S
H6374 C6371 0.950 . S
C6375 C6366 1.390 . S
C6375 H6368 0.950 . S
C6375 C6372 1.387 . S
C6376 C6377 1.387 . S
C6376 H6380 0.950 . S
C6376 C6385 1.390 . S
C6377 C6376 1.387 . S
C6377 C6379 1.387 . S
H6378 C6385 0.950 . S
C6379 C6377 1.387 . S
C6379 C6381 1.390 . S
C6379 H6383 0.950 . S
H6380 C6376 0.950 . S
C6381 C6379 1.390 . S
C6381 C6382 1.387 . S
C6381 H6384 0.950 . S
C6382 C6381 1.387 . S
C6382 C6385 1.387 . S
H6383 C6379 0.950 . S
H6384 C6381 0.950 . S
C6385 C6376 1.390 . S
C6385 H6378 0.950 . S
C6385 C6382 1.387 . S
C6386 C6387 1.387 . S
C6386 H6390 0.950 . S
C6386 C6395 1.390 . S
C6387 C6386 1.387 . S
C6387 C6389 1.387 . S
H6388 C6395 0.950 . S
C6389 C6387 1.387 . S
C6389 C6391 1.390 . S
C6389 H6393 0.950 . S
H6390 C6386 0.950 . S
C6391 C6389 1.390 . S
C6391 C6392 1.387 . S
C6391 H6394 0.950 . S
C6392 C6391 1.387 . S
C6392 C6395 1.387 . S
H6393 C6389 0.950 . S
H6394 C6391 0.950 . S
C6395 C6386 1.390 . S
C6395 H6388 0.950 . S
C6395 C6392 1.387 . S
C6396 C6397 1.387 . S
C6396 H6400 0.950 . S
C6396 C6405 1.390 . S
C6397 C6396 1.387 . S
C6397 C6399 1.387 . S
H6398 C6405 0.950 . S
C6399 C6397 1.387 . S
C6399 C6401 1.390 . S
C6399 H6403 0.950 . S
H6400 C6396 0.950 . S
C6401 C6399 1.390 . S
C6401 C6402 1.387 . S
C6401 H6404 0.950 . S
C6402 C6401 1.387 . S
C6402 C6405 1.387 . S
H6403 C6399 0.950 . S
H6404 C6401 0.950 . S
C6405 C6396 1.390 . S
C6405 H6398 0.950 . S
C6405 C6402 1.387 . S
C6406 C6407 1.387 . S
C6406 H6410 0.950 . S
C6406 C6415 1.390 . S
C6407 C6406 1.387 . S
C6407 C6409 1.387 . S
H6408 C6415 0.950 . S
C6409 C6407 1.387 . S
C6409 C6411 1.390 . S
C6409 H6413 0.950 . S
H6410 C6406 0.950 . S
C6411 C6409 1.390 . S
C6411 C6412 1.387 . S
C6411 H6414 0.950 . S
C6412 C6411 1.387 . S
C6412 C6415 1.387 . S
H6413 C6409 0.950 . S
H6414 C6411 0.950 . S
C6415 C6406 1.390 . S
C6415 H6408 0.950 . S
C6415 C6412 1.387 . S
C6416 C6417 1.387 . S
C6416 H6420 0.950 . S
C6416 C6425 1.390 . S
C6417 C6416 1.387 . S
C6417 C6419 1.387 . S
H6418 C6425 0.950 . S
C6419 C6417 1.387 . S
C6419 C6421 1.390 . S
C6419 H6423 0.950 . S
H6420 C6416 0.950 . S
C6421 C6419 1.390 . S
C6421 C6422 1.387 . S
C6421 H6424 0.950 . S
C6422 C6421 1.387 . S
C6422 C6425 1.387 . S
H6423 C6419 0.950 . S
H6424 C6421 0.950 . S
C6425 C6416 1.390 . S
C6425 H6418 0.950 . S
C6425 C6422 1.387 . S
C6426 C6427 1.387 . S
C6426 H6430 0.950 . S
C6426 C6435 1.390 . S
C6427 C6426 1.387 . S
C6427 C6429 1.387 . S
H6428 C6435 0.950 . S
C6429 C6427 1.387 . S
C6429 C6431 1.390 . S
C6429 H6433 0.950 . S
H6430 C6426 0.950 . S
C6431 C6429 1.390 . S
C6431 C6432 1.387 . S
C6431 H6434 0.950 . S
C6432 C6431 1.387 . S
C6432 C6435 1.387 . S
H6433 C6429 0.950 . S
H6434 C6431 0.950 . S
C6435 C6426 1.390 . S
C6435 H6428 0.950 . S
C6435 C6432 1.387 . S
C6436 C6437 1.387 . S
C6436 H6440 0.950 . S
C6436 C6445 1.390 . S
C6437 C6436 1.387 . S
C6437 C6439 1.387 . S
H6438 C6445 0.950 . S
C6439 C6437 1.387 . S
C6439 C6441 1.390 . S
C6439 H6443 0.950 . S
H6440 C6436 0.950 . S
C6441 C6439 1.390 . S
C6441 C6442 1.387 . S
C6441 H6444 0.950 . S
C6442 C6441 1.387 . S
C6442 C6445 1.387 . S
H6443 C6439 0.950 . S
H6444 C6441 0.950 . S
C6445 C6436 1.390 . S
C6445 H6438 0.950 . S
C6445 C6442 1.387 . S
C6446 C6447 1.387 . S
C6446 H6450 0.950 . S
C6446 C6455 1.390 . S
C6447 C6446 1.387 . S
C6447 C6449 1.387 . S
H6448 C6455 0.950 . S
C6449 C6447 1.387 . S
C6449 C6451 1.390 . S
C6449 H6453 0.950 . S
H6450 C6446 0.950 . S
C6451 C6449 1.390 . S
C6451 C6452 1.387 . S
C6451 H6454 0.950 . S
C6452 C6451 1.387 . S
C6452 C6455 1.387 . S
H6453 C6449 0.950 . S
H6454 C6451 0.950 . S
C6455 C6446 1.390 . S
C6455 H6448 0.950 . S
C6455 C6452 1.387 . S
C6456 C6457 1.387 . S
C6456 H6460 0.950 . S
C6456 C6465 1.390 . S
C6457 C6456 1.387 . S
C6457 C6459 1.387 . S
H6458 C6465 0.950 . S
C6459 C6457 1.387 . S
C6459 C6461 1.390 . S
C6459 H6463 0.950 . S
H6460 C6456 0.950 . S
C6461 C6459 1.390 . S
C6461 C6462 1.387 . S
C6461 H6464 0.950 . S
C6462 C6461 1.387 . S
C6462 C6465 1.387 . S
H6463 C6459 0.950 . S
H6464 C6461 0.950 . S
C6465 C6456 1.390 . S
C6465 H6458 0.950 . S
C6465 C6462 1.387 . S
C6466 C6467 1.387 . S
C6466 H6470 0.950 . S
C6466 C6475 1.390 . S
C6467 C6466 1.387 . S
C6467 C6469 1.387 . S
H6468 C6475 0.950 . S
C6469 C6467 1.387 . S
C6469 C6471 1.390 . S
C6469 H6473 0.950 . S
H6470 C6466 0.950 . S
C6471 C6469 1.390 . S
C6471 C6472 1.387 . S
C6471 H6474 0.950 . S
C6472 C6471 1.387 . S
C6472 C6475 1.387 . S
H6473 C6469 0.950 . S
H6474 C6471 0.950 . S
C6475 C6466 1.390 . S
C6475 H6468 0.950 . S
C6475 C6472 1.387 . S
C6476 C6477 1.387 . S
C6476 H6480 0.950 . S
C6476 C6485 1.390 . S
C6477 C6476 1.387 . S
C6477 C6479 1.387 . S
H6478 C6485 0.950 . S
C6479 C6477 1.387 . S
C6479 C6481 1.390 . S
C6479 H6483 0.950 . S
H6480 C6476 0.950 . S
C6481 C6479 1.390 . S
C6481 C6482 1.387 . S
C6481 H6484 0.950 . S
C6482 C6481 1.387 . S
C6482 C6485 1.387 . S
H6483 C6479 0.950 . S
H6484 C6481 0.950 . S
C6485 C6476 1.390 . S
C6485 H6478 0.950 . S
C6485 C6482 1.387 . S
C6486 C6487 1.387 . S
C6486 H6490 0.950 . S
C6486 C6495 1.390 . S
C6487 C6486 1.387 . S
C6487 C6489 1.387 . S
H6488 C6495 0.950 . S
C6489 C6487 1.387 . S
C6489 C6491 1.390 . S
C6489 H6493 0.950 . S
H6490 C6486 0.950 . S
C6491 C6489 1.390 . S
C6491 C6492 1.387 . S
C6491 H6494 0.950 . S
C6492 C6491 1.387 . S
C6492 C6495 1.387 . S
H6493 C6489 0.950 . S
H6494 C6491 0.950 . S
C6495 C6486 1.390 . S
C6495 H6488 0.950 . S
C6495 C6492 1.387 . S
C6496 C6497 1.387 . S
C6496 H6500 0.950 . S
C6496 C6505 1.390 . S
C6497 C6496 1.387 . S
C6497 C6499 1.387 . S
H6498 C6505 0.950 . S
C6499 C6497 1.387 . S
C6499 C6501 1.390 . S
C6499 H6503 0.950 . S
H6500 C6496 0.950 . S
C6501 C6499 1.390 . S
C6501 C6502 1.387 . S
C6501 H6504 0.950 . S
C6502 C6501 1.387 . S
C6502 C6505 1.387 . S
H6503 C6499 0.950 . S
H6504 C6501 0.950 . S
C6505 C6496 1.390 . S
C6505 H6498 0.950 . S
C6505 C6502 1.387 . S
C6506 C6507 1.387 . S
C6506 H6510 0.950 . S
C6506 C6515 1.390 . S
C6507 C6506 1.387 . S
C6507 C6509 1.387 . S
H6508 C6515 0.950 . S
C6509 C6507 1.387 . S
C6509 C6511 1.390 . S
C6509 H6513 0.950 . S
H6510 C6506 0.950 . S
C6511 C6509 1.390 . S
C6511 C6512 1.387 . S
C6511 H6514 0.950 . S
C6512 C6511 1.387 . S
C6512 C6515 1.387 . S
H6513 C6509 0.950 . S
H6514 C6511 0.950 . S
C6515 C6506 1.390 . S
C6515 H6508 0.950 . S
C6515 C6512 1.387 . S
C6516 C6517 1.387 . S
C6516 H6520 0.950 . S
C6516 C6525 1.390 . S
C6517 C6516 1.387 . S
C6517 C6519 1.387 . S
H6518 C6525 0.950 . S
C6519 C6517 1.387 . S
C6519 C6521 1.390 . S
C6519 H6523 0.950 . S
H6520 C6516 0.950 . S
C6521 C6519 1.390 . S
C6521 C6522 1.387 . S
C6521 H6524 0.950 . S
C6522 C6521 1.387 . S
C6522 C6525 1.387 . S
H6523 C6519 0.950 . S
H6524 C6521 0.950 . S
C6525 C6516 1.390 . S
C6525 H6518 0.950 . S
C6525 C6522 1.387 . S
C6526 C6527 1.387 . S
C6526 H6530 0.950 . S
C6526 C6535 1.390 . S
C6527 C6526 1.387 . S
C6527 C6529 1.387 . S
H6528 C6535 0.950 . S
C6529 C6527 1.387 . S
C6529 C6531 1.390 . S
C6529 H6533 0.950 . S
H6530 C6526 0.950 . S
C6531 C6529 1.390 . S
C6531 C6532 1.387 . S
C6531 H6534 0.950 . S
C6532 C6531 1.387 . S
C6532 C6535 1.387 . S
H6533 C6529 0.950 . S
H6534 C6531 0.950 . S
C6535 C6526 1.390 . S
C6535 H6528 0.950 . S
C6535 C6532 1.387 . S
C6536 C6537 1.387 . S
C6536 H6540 0.950 . S
C6536 C6545 1.390 . S
C6537 C6536 1.387 . S
C6537 C6539 1.387 . S
H6538 C6545 0.950 . S
C6539 C6537 1.387 . S
C6539 C6541 1.390 . S
C6539 H6543 0.950 . S
H6540 C6536 0.950 . S
C6541 C6539 1.390 . S
C6541 C6542 1.387 . S
C6541 H6544 0.950 . S
C6542 C6541 1.387 . S
C6542 C6545 1.387 . S
H6543 C6539 0.950 . S
H6544 C6541 0.950 . S
C6545 C6536 1.390 . S
C6545 H6538 0.950 . S
C6545 C6542 1.387 . S
C6546 C6547 1.387 . S
C6546 H6550 0.950 . S
C6546 C6555 1.390 . S
C6547 C6546 1.387 . S
C6547 C6549 1.387 . S
H6548 C6555 0.950 . S
C6549 C6547 1.387 . S
C6549 C6551 1.390 . S
C6549 H6553 0.950 . S
H6550 C6546 0.950 . S
C6551 C6549 1.390 . S
C6551 C6552 1.387 . S
C6551 H6554 0.950 . S
C6552 C6551 1.387 . S
C6552 C6555 1.387 . S
H6553 C6549 0.950 . S
H6554 C6551 0.950 . S
C6555 C6546 1.390 . S
C6555 H6548 0.950 . S
C6555 C6552 1.387 . S
C6556 C6557 1.387 . S
C6556 H6560 0.950 . S
C6556 C6565 1.390 . S
C6557 C6556 1.387 . S
C6557 C6559 1.387 . S
H6558 C6565 0.950 . S
C6559 C6557 1.387 . S
C6559 C6561 1.390 . S
C6559 H6563 0.950 . S
H6560 C6556 0.950 . S
C6561 C6559 1.390 . S
C6561 C6562 1.387 . S
C6561 H6564 0.950 . S
C6562 C6561 1.387 . S
C6562 C6565 1.387 . S
H6563 C6559 0.950 . S
H6564 C6561 0.950 . S
C6565 C6556 1.390 . S
C6565 H6558 0.950 . S
C6565 C6562 1.387 . S
C6566 C6567 1.387 . S
C6566 H6570 0.950 . S
C6566 C6575 1.390 . S
C6567 C6566 1.387 . S
C6567 C6569 1.387 . S
H6568 C6575 0.950 . S
C6569 C6567 1.387 . S
C6569 C6571 1.390 . S
C6569 H6573 0.950 . S
H6570 C6566 0.950 . S
C6571 C6569 1.390 . S
C6571 C6572 1.387 . S
C6571 H6574 0.950 . S
C6572 C6571 1.387 . S
C6572 C6575 1.387 . S
H6573 C6569 0.950 . S
H6574 C6571 0.950 . S
C6575 C6566 1.390 . S
C6575 H6568 0.950 . S
C6575 C6572 1.387 . S
C6576 C6577 1.387 . S
C6576 H6580 0.950 . S
C6576 C6585 1.390 . S
C6577 C6576 1.387 . S
C6577 C6579 1.387 . S
H6578 C6585 0.950 . S
C6579 C6577 1.387 . S
C6579 C6581 1.390 . S
C6579 H6583 0.950 . S
H6580 C6576 0.950 . S
C6581 C6579 1.390 . S
C6581 C6582 1.387 . S
C6581 H6584 0.950 . S
C6582 C6581 1.387 . S
C6582 C6585 1.387 . S
H6583 C6579 0.950 . S
H6584 C6581 0.950 . S
C6585 C6576 1.390 . S
C6585 H6578 0.950 . S
C6585 C6582 1.387 . S
C6586 C6587 1.387 . S
C6586 H6590 0.950 . S
C6586 C6595 1.390 . S
C6587 C6586 1.387 . S
C6587 C6589 1.387 . S
H6588 C6595 0.950 . S
C6589 C6587 1.387 . S
C6589 C6591 1.390 . S
C6589 H6593 0.950 . S
H6590 C6586 0.950 . S
C6591 C6589 1.390 . S
C6591 C6592 1.387 . S
C6591 H6594 0.950 . S
C6592 C6591 1.387 . S
C6592 C6595 1.387 . S
H6593 C6589 0.950 . S
H6594 C6591 0.950 . S
C6595 C6586 1.390 . S
C6595 H6588 0.950 . S
C6595 C6592 1.387 . S
C6596 C6597 1.387 . S
C6596 H6600 0.950 . S
C6596 C6605 1.390 . S
C6597 C6596 1.387 . S
C6597 C6599 1.387 . S
H6598 C6605 0.950 . S
C6599 C6597 1.387 . S
C6599 C6601 1.390 . S
C6599 H6603 0.950 . S
H6600 C6596 0.950 . S
C6601 C6599 1.390 . S
C6601 C6602 1.387 . S
C6601 H6604 0.950 . S
C6602 C6601 1.387 . S
C6602 C6605 1.387 . S
H6603 C6599 0.950 . S
H6604 C6601 0.950 . S
C6605 C6596 1.390 . S
C6605 H6598 0.950 . S
C6605 C6602 1.387 . S
C6606 C6607 1.387 . S
C6606 H6610 0.950 . S
C6606 C6615 1.390 . S
C6607 C6606 1.387 . S
C6607 C6609 1.387 . S
H6608 C6615 0.950 . S
C6609 C6607 1.387 . S
C6609 C6611 1.390 . S
C6609 H6613 0.950 . S
H6610 C6606 0.950 . S
C6611 C6609 1.390 . S
C6611 C6612 1.387 . S
C6611 H6614 0.950 . S
C6612 C6611 1.387 . S
C6612 C6615 1.387 . S
H6613 C6609 0.950 . S
H6614 C6611 0.950 . S
C6615 C6606 1.390 . S
C6615 H6608 0.950 . S
C6615 C6612 1.387 . S
C6616 C6617 1.387 . S
C6616 H6620 0.950 . S
C6616 C6625 1.390 . S
C6617 C6616 1.387 . S
C6617 C6619 1.387 . S
H6618 C6625 0.950 . S
C6619 C6617 1.387 . S
C6619 C6621 1.390 . S
C6619 H6623 0.950 . S
H6620 C6616 0.950 . S
C6621 C6619 1.390 . S
C6621 C6622 1.387 . S
C6621 H6624 0.950 . S
C6622 C6621 1.387 . S
C6622 C6625 1.387 . S
H6623 C6619 0.950 . S
H6624 C6621 0.950 . S
C6625 C6616 1.390 . S
C6625 H6618 0.950 . S
C6625 C6622 1.387 . S
C6626 C6627 1.387 . S
C6626 H6630 0.950 . S
C6626 C6635 1.390 . S
C6627 C6626 1.387 . S
C6627 C6629 1.387 . S
H6628 C6635 0.950 . S
C6629 C6627 1.387 . S
C6629 C6631 1.390 . S
C6629 H6633 0.950 . S
H6630 C6626 0.950 . S
C6631 C6629 1.390 . S
C6631 C6632 1.387 . S
C6631 H6634 0.950 . S
C6632 C6631 1.387 . S
C6632 C6635 1.387 . S
H6633 C6629 0.950 . S
H6634 C6631 0.950 . S
C6635 C6626 1.390 . S
C6635 H6628 0.950 . S
C6635 C6632 1.387 . S
C6636 C6637 1.387 . S
C6636 H6640 0.950 . S
C6636 C6645 1.390 . S
C6637 C6636 1.387 . S
C6637 C6639 1.387 . S
H6638 C6645 0.950 . S
C6639 C6637 1.387 . S
C6639 C6641 1.390 . S
C6639 H6643 0.950 . S
H6640 C6636 0.950 . S
C6641 C6639 1.390 . S
C6641 C6642 1.387 . S
C6641 H6644 0.950 . S
C6642 C6641 1.387 . S
C6642 C6645 1.387 . S
H6643 C6639 0.950 . S
H6644 C6641 0.950 . S
C6645 C6636 1.390 . S
C6645 H6638 0.950 . S
C6645 C6642 1.387 . S
C6646 C6647 1.387 . S
C6646 H6650 0.950 . S
C6646 C6655 1.390 . S
C6647 C6646 1.387 . S
C6647 C6649 1.387 . S
H6648 C6655 0.950 . S
C6649 C6647 1.387 . S
C6649 C6651 1.390 . S
C6649 H6653 0.950 . S
H6650 C6646 0.950 . S
C6651 C6649 1.390 . S
C6651 C6652 1.387 . S
C6651 H6654 0.950 . S
C6652 C6651 1.387 . S
C6652 C6655 1.387 . S
H6653 C6649 0.950 . S
H6654 C6651 0.950 . S
C6655 C6646 1.390 . S
C6655 H6648 0.950 . S
C6655 C6652 1.387 . S
C6656 C6657 1.387 . S
C6656 H6660 0.950 . S
C6656 C6665 1.390 . S
C6657 C6656 1.387 . S
C6657 C6659 1.387 . S
H6658 C6665 0.950 . S
C6659 C6657 1.387 . S
C6659 C6661 1.390 . S
C6659 H6663 0.950 . S
H6660 C6656 0.950 . S
C6661 C6659 1.390 . S
C6661 C6662 1.387 . S
C6661 H6664 0.950 . S
C6662 C6661 1.387 . S
C6662 C6665 1.387 . S
H6663 C6659 0.950 . S
H6664 C6661 0.950 . S
C6665 C6656 1.390 . S
C6665 H6658 0.950 . S
C6665 C6662 1.387 . S
C6666 C6667 1.387 . S
C6666 H6670 0.950 . S
C6666 C6675 1.390 . S
C6667 C6666 1.387 . S
C6667 C6669 1.387 . S
H6668 C6675 0.950 . S
C6669 C6667 1.387 . S
C6669 C6671 1.390 . S
C6669 H6673 0.950 . S
H6670 C6666 0.950 . S
C6671 C6669 1.390 . S
C6671 C6672 1.387 . S
C6671 H6674 0.950 . S
C6672 C6671 1.387 . S
C6672 C6675 1.387 . S
H6673 C6669 0.950 . S
H6674 C6671 0.950 . S
C6675 C6666 1.390 . S
C6675 H6668 0.950 . S
C6675 C6672 1.387 . S
C6676 C6677 1.387 . S
C6676 H6680 0.950 . S
C6676 C6685 1.390 . S
C6677 C6676 1.387 . S
C6677 C6679 1.387 . S
H6678 C6685 0.950 . S
C6679 C6677 1.387 . S
C6679 C6681 1.390 . S
C6679 H6683 0.950 . S
H6680 C6676 0.950 . S
C6681 C6679 1.390 . S
C6681 C6682 1.387 . S
C6681 H6684 0.950 . S
C6682 C6681 1.387 . S
C6682 C6685 1.387 . S
H6683 C6679 0.950 . S
H6684 C6681 0.950 . S
C6685 C6676 1.390 . S
C6685 H6678 0.950 . S
C6685 C6682 1.387 . S
C6686 C6687 1.387 . S
C6686 H6690 0.950 . S
C6686 C6695 1.390 . S
C6687 C6686 1.387 . S
C6687 C6689 1.387 . S
H6688 C6695 0.950 . S
C6689 C6687 1.387 . S
C6689 C6691 1.390 . S
C6689 H6693 0.950 . S
H6690 C6686 0.950 . S
C6691 C6689 1.390 . S
C6691 C6692 1.387 . S
C6691 H6694 0.950 . S
C6692 C6691 1.387 . S
C6692 C6695 1.387 . S
H6693 C6689 0.950 . S
H6694 C6691 0.950 . S
C6695 C6686 1.390 . S
C6695 H6688 0.950 . S
C6695 C6692 1.387 . S
C6696 C6697 1.387 . S
C6696 H6700 0.950 . S
C6696 C6705 1.390 . S
C6697 C6696 1.387 . S
C6697 C6699 1.387 . S
H6698 C6705 0.950 . S
C6699 C6697 1.387 . S
C6699 C6701 1.390 . S
C6699 H6703 0.950 . S
H6700 C6696 0.950 . S
C6701 C6699 1.390 . S
C6701 C6702 1.387 . S
C6701 H6704 0.950 . S
C6702 C6701 1.387 . S
C6702 C6705 1.387 . S
H6703 C6699 0.950 . S
H6704 C6701 0.950 . S
C6705 C6696 1.390 . S
C6705 H6698 0.950 . S
C6705 C6702 1.387 . S
C6706 C6707 1.387 . S
C6706 H6710 0.950 . S
C6706 C6715 1.390 . S
C6707 C6706 1.387 . S
C6707 C6709 1.387 . S
H6708 C6715 0.950 . S
C6709 C6707 1.387 . S
C6709 C6711 1.390 . S
C6709 H6713 0.950 . S
H6710 C6706 0.950 . S
C6711 C6709 1.390 . S
C6711 C6712 1.387 . S
C6711 H6714 0.950 . S
C6712 C6711 1.387 . S
C6712 C6715 1.387 . S
H6713 C6709 0.950 . S
H6714 C6711 0.950 . S
C6715 C6706 1.390 . S
C6715 H6708 0.950 . S
C6715 C6712 1.387 . S
C6716 C6717 1.387 . S
C6716 H6720 0.950 . S
C6716 C6725 1.390 . S
C6717 C6716 1.387 . S
C6717 C6719 1.387 . S
H6718 C6725 0.950 . S
C6719 C6717 1.387 . S
C6719 C6721 1.390 . S
C6719 H6723 0.950 . S
H6720 C6716 0.950 . S
C6721 C6719 1.390 . S
C6721 C6722 1.387 . S
C6721 H6724 0.950 . S
C6722 C6721 1.387 . S
C6722 C6725 1.387 . S
H6723 C6719 0.950 . S
H6724 C6721 0.950 . S
C6725 C6716 1.390 . S
C6725 H6718 0.950 . S
C6725 C6722 1.387 . S
C6726 C6727 1.387 . S
C6726 H6730 0.950 . S
C6726 C6735 1.390 . S
C6727 C6726 1.387 . S
C6727 C6729 1.387 . S
H6728 C6735 0.950 . S
C6729 C6727 1.387 . S
C6729 C6731 1.390 . S
C6729 H6733 0.950 . S
H6730 C6726 0.950 . S
C6731 C6729 1.390 . S
C6731 C6732 1.387 . S
C6731 H6734 0.950 . S
C6732 C6731 1.387 . S
C6732 C6735 1.387 . S
H6733 C6729 0.950 . S
H6734 C6731 0.950 . S
C6735 C6726 1.390 . S
C6735 H6728 0.950 . S
C6735 C6732 1.387 . S
C6736 C6737 1.387 . S
C6736 H6740 0.950 . S
C6736 C6745 1.390 . S
C6737 C6736 1.387 . S
C6737 C6739 1.387 . S
H6738 C6745 0.950 . S
C6739 C6737 1.387 . S
C6739 C6741 1.390 . S
C6739 H6743 0.950 . S
H6740 C6736 0.950 . S
C6741 C6739 1.390 . S
C6741 C6742 1.387 . S
C6741 H6744 0.950 . S
C6742 C6741 1.387 . S
C6742 C6745 1.387 . S
H6743 C6739 0.950 . S
H6744 C6741 0.950 . S
C6745 C6736 1.390 . S
C6745 H6738 0.950 . S
C6745 C6742 1.387 . S
C6746 C6747 1.387 . S
C6746 H6750 0.950 . S
C6746 C6755 1.390 . S
C6747 C6746 1.387 . S
C6747 C6749 1.387 . S
H6748 C6755 0.950 . S
C6749 C6747 1.387 . S
C6749 C6751 1.390 . S
C6749 H6753 0.950 . S
H6750 C6746 0.950 . S
C6751 C6749 1.390 . S
C6751 C6752 1.387 . S
C6751 H6754 0.950 . S
C6752 C6751 1.387 . S
C6752 C6755 1.387 . S
H6753 C6749 0.950 . S
H6754 C6751 0.950 . S
C6755 C6746 1.390 . S
C6755 H6748 0.950 . S
C6755 C6752 1.387 . S
C6756 C6757 1.387 . S
C6756 H6760 0.950 . S
C6756 C6765 1.390 . S
C6757 C6756 1.387 . S
C6757 C6759 1.387 . S
H6758 C6765 0.950 . S
C6759 C6757 1.387 . S
C6759 C6761 1.390 . S
C6759 H6763 0.950 . S
H6760 C6756 0.950 . S
C6761 C6759 1.390 . S
C6761 C6762 1.387 . S
C6761 H6764 0.950 . S
C6762 C6761 1.387 . S
C6762 C6765 1.387 . S
H6763 C6759 0.950 . S
H6764 C6761 0.950 . S
C6765 C6756 1.390 . S
C6765 H6758 0.950 . S
C6765 C6762 1.387 . S
C6766 C6767 1.387 . S
C6766 H6770 0.950 . S
C6766 C6775 1.390 . S
C6767 C6766 1.387 . S
C6767 C6769 1.387 . S
H6768 C6775 0.950 . S
C6769 C6767 1.387 . S
C6769 C6771 1.390 . S
C6769 H6773 0.950 . S
H6770 C6766 0.950 . S
C6771 C6769 1.390 . S
C6771 C6772 1.387 . S
C6771 H6774 0.950 . S
C6772 C6771 1.387 . S
C6772 C6775 1.387 . S
H6773 C6769 0.950 . S
H6774 C6771 0.950 . S
C6775 C6766 1.390 . S
C6775 H6768 0.950 . S
C6775 C6772 1.387 . S
C6776 C6777 1.387 . S
C6776 H6780 0.950 . S
C6776 C6785 1.390 . S
C6777 C6776 1.387 . S
C6777 C6779 1.387 . S
H6778 C6785 0.950 . S
C6779 C6777 1.387 . S
C6779 C6781 1.390 . S
C6779 H6783 0.950 . S
H6780 C6776 0.950 . S
C6781 C6779 1.390 . S
C6781 C6782 1.387 . S
C6781 H6784 0.950 . S
C6782 C6781 1.387 . S
C6782 C6785 1.387 . S
H6783 C6779 0.950 . S
H6784 C6781 0.950 . S
C6785 C6776 1.390 . S
C6785 H6778 0.950 . S
C6785 C6782 1.387 . S
C6786 C6787 1.387 . S
C6786 H6790 0.950 . S
C6786 C6795 1.390 . S
C6787 C6786 1.387 . S
C6787 C6789 1.387 . S
H6788 C6795 0.950 . S
C6789 C6787 1.387 . S
C6789 C6791 1.390 . S
C6789 H6793 0.950 . S
H6790 C6786 0.950 . S
C6791 C6789 1.390 . S
C6791 C6792 1.387 . S
C6791 H6794 0.950 . S
C6792 C6791 1.387 . S
C6792 C6795 1.387 . S
H6793 C6789 0.950 . S
H6794 C6791 0.950 . S
C6795 C6786 1.390 . S
C6795 H6788 0.950 . S
C6795 C6792 1.387 . S
C6796 C6797 1.387 . S
C6796 H6800 0.950 . S
C6796 C6805 1.390 . S
C6797 C6796 1.387 . S
C6797 C6799 1.387 . S
H6798 C6805 0.950 . S
C6799 C6797 1.387 . S
C6799 C6801 1.390 . S
C6799 H6803 0.950 . S
H6800 C6796 0.950 . S
C6801 C6799 1.390 . S
C6801 C6802 1.387 . S
C6801 H6804 0.950 . S
C6802 C6801 1.387 . S
C6802 C6805 1.387 . S
H6803 C6799 0.950 . S
H6804 C6801 0.950 . S
C6805 C6796 1.390 . S
C6805 H6798 0.950 . S
C6805 C6802 1.387 . S
C6806 C6807 1.387 . S
C6806 H6810 0.950 . S
C6806 C6815 1.390 . S
C6807 C6806 1.387 . S
C6807 C6809 1.387 . S
H6808 C6815 0.950 . S
C6809 C6807 1.387 . S
C6809 C6811 1.390 . S
C6809 H6813 0.950 . S
H6810 C6806 0.950 . S
C6811 C6809 1.390 . S
C6811 C6812 1.387 . S
C6811 H6814 0.950 . S
C6812 C6811 1.387 . S
C6812 C6815 1.387 . S
H6813 C6809 0.950 . S
H6814 C6811 0.950 . S
C6815 C6806 1.390 . S
C6815 H6808 0.950 . S
C6815 C6812 1.387 . S
C6816 C6817 1.387 . S
C6816 H6820 0.950 . S
C6816 C6825 1.390 . S
C6817 C6816 1.387 . S
C6817 C6819 1.387 . S
H6818 C6825 0.950 . S
C6819 C6817 1.387 . S
C6819 C6821 1.390 . S
C6819 H6823 0.950 . S
H6820 C6816 0.950 . S
C6821 C6819 1.390 . S
C6821 C6822 1.387 . S
C6821 H6824 0.950 . S
C6822 C6821 1.387 . S
C6822 C6825 1.387 . S
H6823 C6819 0.950 . S
H6824 C6821 0.950 . S
C6825 C6816 1.390 . S
C6825 H6818 0.950 . S
C6825 C6822 1.387 . S
C6826 C6827 1.387 . S
C6826 H6830 0.950 . S
C6826 C6835 1.390 . S
C6827 C6826 1.387 . S
C6827 C6829 1.387 . S
H6828 C6835 0.950 . S
C6829 C6827 1.387 . S
C6829 C6831 1.390 . S
C6829 H6833 0.950 . S
H6830 C6826 0.950 . S
C6831 C6829 1.390 . S
C6831 C6832 1.387 . S
C6831 H6834 0.950 . S
C6832 C6831 1.387 . S
C6832 C6835 1.387 . S
H6833 C6829 0.950 . S
H6834 C6831 0.950 . S
C6835 C6826 1.390 . S
C6835 H6828 0.950 . S
C6835 C6832 1.387 . S
C6836 C6837 1.387 . S
C6836 H6840 0.950 . S
C6836 C6845 1.390 . S
C6837 C6836 1.387 . S
C6837 C6839 1.387 . S
H6838 C6845 0.950 . S
C6839 C6837 1.387 . S
C6839 C6841 1.390 . S
C6839 H6843 0.950 . S
H6840 C6836 0.950 . S
C6841 C6839 1.390 . S
C6841 C6842 1.387 . S
C6841 H6844 0.950 . S
C6842 C6841 1.387 . S
C6842 C6845 1.387 . S
H6843 C6839 0.950 . S
H6844 C6841 0.950 . S
C6845 C6836 1.390 . S
C6845 H6838 0.950 . S
C6845 C6842 1.387 . S
C6846 C6847 1.387 . S
C6846 H6850 0.950 . S
C6846 C6855 1.390 . S
C6847 C6846 1.387 . S
C6847 C6849 1.387 . S
H6848 C6855 0.950 . S
C6849 C6847 1.387 . S
C6849 C6851 1.390 . S
C6849 H6853 0.950 . S
H6850 C6846 0.950 . S
C6851 C6849 1.390 . S
C6851 C6852 1.387 . S
C6851 H6854 0.950 . S
C6852 C6851 1.387 . S
C6852 C6855 1.387 . S
H6853 C6849 0.950 . S
H6854 C6851 0.950 . S
C6855 C6846 1.390 . S
C6855 H6848 0.950 . S
C6855 C6852 1.387 . S
C6856 C6857 1.387 . S
C6856 H6860 0.950 . S
C6856 C6865 1.390 . S
C6857 C6856 1.387 . S
C6857 C6859 1.387 . S
H6858 C6865 0.950 . S
C6859 C6857 1.387 . S
C6859 C6861 1.390 . S
C6859 H6863 0.950 . S
H6860 C6856 0.950 . S
C6861 C6859 1.390 . S
C6861 C6862 1.387 . S
C6861 H6864 0.950 . S
C6862 C6861 1.387 . S
C6862 C6865 1.387 . S
H6863 C6859 0.950 . S
H6864 C6861 0.950 . S
C6865 C6856 1.390 . S
C6865 H6858 0.950 . S
C6865 C6862 1.387 . S
C6866 C6867 1.387 . S
C6866 H6870 0.950 . S
C6866 C6875 1.390 . S
C6867 C6866 1.387 . S
C6867 C6869 1.387 . S
H6868 C6875 0.950 . S
C6869 C6867 1.387 . S
C6869 C6871 1.390 . S
C6869 H6873 0.950 . S
H6870 C6866 0.950 . S
C6871 C6869 1.390 . S
C6871 C6872 1.387 . S
C6871 H6874 0.950 . S
C6872 C6871 1.387 . S
C6872 C6875 1.387 . S
H6873 C6869 0.950 . S
H6874 C6871 0.950 . S
C6875 C6866 1.390 . S
C6875 H6868 0.950 . S
C6875 C6872 1.387 . S
C6876 C6877 1.387 . S
C6876 H6880 0.950 . S
C6876 C6885 1.390 . S
C6877 C6876 1.387 . S
C6877 C6879 1.387 . S
H6878 C6885 0.950 . S
C6879 C6877 1.387 . S
C6879 C6881 1.390 . S
C6879 H6883 0.950 . S
H6880 C6876 0.950 . S
C6881 C6879 1.390 . S
C6881 C6882 1.387 . S
C6881 H6884 0.950 . S
C6882 C6881 1.387 . S
C6882 C6885 1.387 . S
H6883 C6879 0.950 . S
H6884 C6881 0.950 . S
C6885 C6876 1.390 . S
C6885 H6878 0.950 . S
C6885 C6882 1.387 . S
C6886 C6887 1.387 . S
C6886 H6890 0.950 . S
C6886 C6895 1.390 . S
C6887 C6886 1.387 . S
C6887 C6889 1.387 . S
H6888 C6895 0.950 . S
C6889 C6887 1.387 . S
C6889 C6891 1.390 . S
C6889 H6893 0.950 . S
H6890 C6886 0.950 . S
C6891 C6889 1.390 . S
C6891 C6892 1.387 . S
C6891 H6894 0.950 . S
C6892 C6891 1.387 . S
C6892 C6895 1.387 . S
H6893 C6889 0.950 . S
H6894 C6891 0.950 . S
C6895 C6886 1.390 . S
C6895 H6888 0.950 . S
C6895 C6892 1.387 . S
C6896 C6897 1.387 . S
C6896 H6900 0.950 . S
C6896 C6905 1.390 . S
C6897 C6896 1.387 . S
C6897 C6899 1.387 . S
H6898 C6905 0.950 . S
C6899 C6897 1.387 . S
C6899 C6901 1.390 . S
C6899 H6903 0.950 . S
H6900 C6896 0.950 . S
C6901 C6899 1.390 . S
C6901 C6902 1.387 . S
C6901 H6904 0.950 . S
C6902 C6901 1.387 . S
C6902 C6905 1.387 . S
H6903 C6899 0.950 . S
H6904 C6901 0.950 . S
C6905 C6896 1.390 . S
C6905 H6898 0.950 . S
C6905 C6902 1.387 . S
C6906 C6907 1.387 . S
C6906 H6910 0.950 . S
C6906 C6915 1.390 . S
C6907 C6906 1.387 . S
C6907 C6909 1.387 . S
H6908 C6915 0.950 . S
C6909 C6907 1.387 . S
C6909 C6911 1.390 . S
C6909 H6913 0.950 . S
H6910 C6906 0.950 . S
C6911 C6909 1.390 . S
C6911 C6912 1.387 . S
C6911 H6914 0.950 . S
C6912 C6911 1.387 . S
C6912 C6915 1.387 . S
H6913 C6909 0.950 . S
H6914 C6911 0.950 . S
C6915 C6906 1.390 . S
C6915 H6908 0.950 . S
C6915 C6912 1.387 . S
C6916 C6917 1.387 . S
C6916 H6920 0.950 . S
C6916 C6925 1.390 . S
C6917 C6916 1.387 . S
C6917 C6919 1.387 . S
H6918 C6925 0.950 . S
C6919 C6917 1.387 . S
C6919 C6921 1.390 . S
C6919 H6923 0.950 . S
H6920 C6916 0.950 . S
C6921 C6919 1.390 . S
C6921 C6922 1.387 . S
C6921 H6924 0.950 . S
C6922 C6921 1.387 . S
C6922 C6925 1.387 . S
H6923 C6919 0.950 . S
H6924 C6921 0.950 . S
C6925 C6916 1.390 . S
C6925 H6918 0.950 . S
C6925 C6922 1.387 . S
C6926 C6927 1.387 . S
C6926 H6930 0.950 . S
C6926 C6935 1.390 . S
C6927 C6926 1.387 . S
C6927 C6929 1.387 . S
H6928 C6935 0.950 . S
C6929 C6927 1.387 . S
C6929 C6931 1.390 . S
C6929 H6933 0.950 . S
H6930 C6926 0.950 . S
C6931 C6929 1.390 . S
C6931 C6932 1.387 . S
C6931 H6934 0.950 . S
C6932 C6931 1.387 . S
C6932 C6935 1.387 . S
H6933 C6929 0.950 . S
H6934 C6931 0.950 . S
C6935 C6926 1.390 . S
C6935 H6928 0.950 . S
C6935 C6932 1.387 . S
C6936 C6937 1.387 . S
C6936 H6940 0.950 . S
C6936 C6945 1.390 . S
C6937 C6936 1.387 . S
C6937 C6939 1.387 . S
H6938 C6945 0.950 . S
C6939 C6937 1.387 . S
C6939 C6941 1.390 . S
C6939 H6943 0.950 . S
H6940 C6936 0.950 . S
C6941 C6939 1.390 . S
C6941 C6942 1.387 . S
C6941 H6944 0.950 . S
C6942 C6941 1.387 . S
C6942 C6945 1.387 . S
H6943 C6939 0.950 . S
H6944 C6941 0.950 . S
C6945 C6936 1.390 . S
C6945 H6938 0.950 . S
C6945 C6942 1.387 . S
C6946 C6947 1.387 . S
C6946 H6950 0.950 . S
C6946 C6955 1.390 . S
C6947 C6946 1.387 . S
C6947 C6949 1.387 . S
H6948 C6955 0.950 . S
C6949 C6947 1.387 . S
C6949 C6951 1.390 . S
C6949 H6953 0.950 . S
H6950 C6946 0.950 . S
C6951 C6949 1.390 . S
C6951 C6952 1.387 . S
C6951 H6954 0.950 . S
C6952 C6951 1.387 . S
C6952 C6955 1.387 . S
H6953 C6949 0.950 . S
H6954 C6951 0.950 . S
C6955 C6946 1.390 . S
C6955 H6948 0.950 . S
C6955 C6952 1.387 . S
C6956 C6957 1.387 . S
C6956 H6960 0.950 . S
C6956 C6965 1.390 . S
C6957 C6956 1.387 . S
C6957 C6959 1.387 . S
H6958 C6965 0.950 . S
C6959 C6957 1.387 . S
C6959 C6961 1.390 . S
C6959 H6963 0.950 . S
H6960 C6956 0.950 . S
C6961 C6959 1.390 . S
C6961 C6962 1.387 . S
C6961 H6964 0.950 . S
C6962 C6961 1.387 . S
C6962 C6965 1.387 . S
H6963 C6959 0.950 . S
H6964 C6961 0.950 . S
C6965 C6956 1.390 . S
C6965 H6958 0.950 . S
C6965 C6962 1.387 . S
C6966 C6967 1.387 . S
C6966 H6970 0.950 . S
C6966 C6975 1.390 . S
C6967 C6966 1.387 . S
C6967 C6969 1.387 . S
H6968 C6975 0.950 . S
C6969 C6967 1.387 . S
C6969 C6971 1.390 . S
C6969 H6973 0.950 . S
H6970 C6966 0.950 . S
C6971 C6969 1.390 . S
C6971 C6972 1.387 . S
C6971 H6974 0.950 . S
C6972 C6971 1.387 . S
C6972 C6975 1.387 . S
H6973 C6969 0.950 . S
H6974 C6971 0.950 . S
C6975 C6966 1.390 . S
C6975 H6968 0.950 . S
C6975 C6972 1.387 . S
C6976 C6977 1.387 . S
C6976 H6980 0.950 . S
C6976 C6985 1.390 . S
C6977 C6976 1.387 . S
C6977 C6979 1.387 . S
H6978 C6985 0.950 . S
C6979 C6977 1.387 . S
C6979 C6981 1.390 . S
C6979 H6983 0.950 . S
H6980 C6976 0.950 . S
C6981 C6979 1.390 . S
C6981 C6982 1.387 . S
C6981 H6984 0.950 . S
C6982 C6981 1.387 . S
C6982 C6985 1.387 . S
H6983 C6979 0.950 . S
H6984 C6981 0.950 . S
C6985 C6976 1.390 . S
C6985 H6978 0.950 . S
C6985 C6982 1.387 . S
C6986 C6987 1.387 . S
C6986 H6990 0.950 . S
C6986 C6995 1.390 . S
C6987 C6986 1.387 . S
C6987 C6989 1.387 . S
H6988 C6995 0.950 . S
C6989 C6987 1.387 . S
C6989 C6991 1.390 . S
C6989 H6993 0.950 . S
H6990 C6986 0.950 . S
C6991 C6989 1.390 . S
C6991 C6992 1.387 . S
C6991 H6994 0.950 . S
C6992 C6991 1.387 . S
C6992 C6995 1.387 . S
H6993 C6989 0.950 . S
H6994 C6991 0.950 . S
C6995 C6986 1.390 . S
C6995 H6988 0.950 . S
C6995 C6992 1.387 . S
C6996 C6997 1.387 . S
C6996 H7000 0.950 . S
C6996 C7005 1.390 . S
C6997 C6996 1.387 . S
C6997 C6999 1.387 . S
H6998 C7005 0.950 . S
C6999 C6997 1.387 . S
C6999 C7001 1.390 . S
C6999 H7003 0.950 . S
H7000 C6996 0.950 . S
C7001 C6999 1.390 . S
C7001 C7002 1.387 . S
C7001 H7004 0.950 . S
C7002 C7001 1.387 . S
C7002 C7005 1.387 . S
H7003 C6999 0.950 . S
H7004 C7001 0.950 . S
C7005 C6996 1.390 . S
C7005 H6998 0.950 . S
C7005 C7002 1.387 . S
C7006 C7007 1.387 . S
C7006 H7010 0.950 . S
C7006 C7015 1.390 . S
C7007 C7006 1.387 . S
C7007 C7009 1.387 . S
H7008 C7015 0.950 . S
C7009 C7007 1.387 . S
C7009 C7011 1.390 . S
C7009 H7013 0.950 . S
H7010 C7006 0.950 . S
C7011 C7009 1.390 . S
C7011 C7012 1.387 . S
C7011 H7014 0.950 . S
C7012 C7011 1.387 . S
C7012 C7015 1.387 . S
H7013 C7009 0.950 . S
H7014 C7011 0.950 . S
C7015 C7006 1.390 . S
C7015 H7008 0.950 . S
C7015 C7012 1.387 . S
C7016 C7017 1.387 . S
C7016 H7020 0.950 . S
C7016 C7025 1.390 . S
C7017 C7016 1.387 . S
C7017 C7019 1.387 . S
H7018 C7025 0.950 . S
C7019 C7017 1.387 . S
C7019 C7021 1.390 . S
C7019 H7023 0.950 . S
H7020 C7016 0.950 . S
C7021 C7019 1.390 . S
C7021 C7022 1.387 . S
C7021 H7024 0.950 . S
C7022 C7021 1.387 . S
C7022 C7025 1.387 . S
H7023 C7019 0.950 . S
H7024 C7021 0.950 . S
C7025 C7016 1.390 . S
C7025 H7018 0.950 . S
C7025 C7022 1.387 . S
C7026 C7027 1.387 . S
C7026 H7030 0.950 . S
C7026 C7035 1.390 . S
C7027 C7026 1.387 . S
C7027 C7029 1.387 . S
H7028 C7035 0.950 . S
C7029 C7027 1.387 . S
C7029 C7031 1.390 . S
C7029 H7033 0.950 . S
H7030 C7026 0.950 . S
C7031 C7029 1.390 . S
C7031 C7032 1.387 . S
C7031 H7034 0.950 . S
C7032 C7031 1.387 . S
C7032 C7035 1.387 . S
H7033 C7029 0.950 . S
H7034 C7031 0.950 . S
C7035 C7026 1.390 . S
C7035 H7028 0.950 . S
C7035 C7032 1.387 . S
C7036 C7037 1.387 . S
C7036 H7040 0.950 . S
C7036 C7045 1.390 . S
C7037 C7036 1.387 . S
C7037 C7039 1.387 . S
H7038 C7045 0.950 . S
C7039 C7037 1.387 . S
C7039 C7041 1.390 . S
C7039 H7043 0.950 . S
H7040 C7036 0.950 . S
C7041 C7039 1.390 . S
C7041 C7042 1.387 . S
C7041 H7044 0.950 . S
C7042 C7041 1.387 . S
C7042 C7045 1.387 . S
H7043 C7039 0.950 . S
H7044 C7041 0.950 . S
C7045 C7036 1.390 . S
C7045 H7038 0.950 . S
C7045 C7042 1.387 . S
C7046 C7047 1.387 . S
C7046 H7050 0.950 . S
C7046 C7055 1.390 . S
C7047 C7046 1.387 . S
C7047 C7049 1.387 . S
H7048 C7055 0.950 . S
C7049 C7047 1.387 . S
C7049 C7051 1.390 . S
C7049 H7053 0.950 . S
H7050 C7046 0.950 . S
C7051 C7049 1.390 . S
C7051 C7052 1.387 . S
C7051 H7054 0.950 . S
C7052 C7051 1.387 . S
C7052 C7055 1.387 . S
H7053 C7049 0.950 . S
H7054 C7051 0.950 . S
C7055 C7046 1.390 . S
C7055 H7048 0.950 . S
C7055 C7052 1.387 . S
C7056 C7057 1.387 . S
C7056 H7060 0.950 . S
C7056 C7065 1.390 . S
C7057 C7056 1.387 . S
C7057 C7059 1.387 . S
H7058 C7065 0.950 . S
C7059 C7057 1.387 . S
C7059 C7061 1.390 . S
C7059 H7063 0.950 . S
H7060 C7056 0.950 . S
C7061 C7059 1.390 . S
C7061 C7062 1.387 . S
C7061 H7064 0.950 . S
C7062 C7061 1.387 . S
C7062 C7065 1.387 . S
H7063 C7059 0.950 . S
H7064 C7061 0.950 . S
C7065 C7056 1.390 . S
C7065 H7058 0.950 . S
C7065 C7062 1.387 . S
C7066 C7067 1.387 . S
C7066 H7070 0.950 . S
C7066 C7075 1.390 . S
C7067 C7066 1.387 . S
C7067 C7069 1.387 . S
H7068 C7075 0.950 . S
C7069 C7067 1.387 . S
C7069 C7071 1.390 . S
C7069 H7073 0.950 . S
H7070 C7066 0.950 . S
C7071 C7069 1.390 . S
C7071 C7072 1.387 . S
C7071 H7074 0.950 . S
C7072 C7071 1.387 . S
C7072 C7075 1.387 . S
H7073 C7069 0.950 . S
H7074 C7071 0.950 . S
C7075 C7066 1.390 . S
C7075 H7068 0.950 . S
C7075 C7072 1.387 . S
C7076 C7077 1.387 . S
C7076 H7080 0.950 . S
C7076 C7085 1.390 . S
C7077 C7076 1.387 . S
C7077 C7079 1.387 . S
H7078 C7085 0.950 . S
C7079 C7077 1.387 . S
C7079 C7081 1.390 . S
C7079 H7083 0.950 . S
H7080 C7076 0.950 . S
C7081 C7079 1.390 . S
C7081 C7082 1.387 . S
C7081 H7084 0.950 . S
C7082 C7081 1.387 . S
C7082 C7085 1.387 . S
H7083 C7079 0.950 . S
H7084 C7081 0.950 . S
C7085 C7076 1.390 . S
C7085 H7078 0.950 . S
C7085 C7082 1.387 . S
C7086 C7087 1.387 . S
C7086 H7090 0.950 . S
C7086 C7095 1.390 . S
C7087 C7086 1.387 . S
C7087 C7089 1.387 . S
H7088 C7095 0.950 . S
C7089 C7087 1.387 . S
C7089 C7091 1.390 . S
C7089 H7093 0.950 . S
H7090 C7086 0.950 . S
C7091 C7089 1.390 . S
C7091 C7092 1.387 . S
C7091 H7094 0.950 . S
C7092 C7091 1.387 . S
C7092 C7095 1.387 . S
H7093 C7089 0.950 . S
H7094 C7091 0.950 . S
C7095 C7086 1.390 . S
C7095 H7088 0.950 . S
C7095 C7092 1.387 . S
C7096 C7097 1.387 . S
C7096 H7100 0.950 . S
C7096 C7105 1.390 . S
C7097 C7096 1.387 . S
C7097 C7099 1.387 . S
H7098 C7105 0.950 . S
C7099 C7097 1.387 . S
C7099 C7101 1.390 . S
C7099 H7103 0.950 . S
H7100 C7096 0.950 . S
C7101 C7099 1.390 . S
C7101 C7102 1.387 . S
C7101 H7104 0.950 . S
C7102 C7101 1.387 . S
C7102 C7105 1.387 . S
H7103 C7099 0.950 . S
H7104 C7101 0.950 . S
C7105 C7096 1.390 . S
C7105 H7098 0.950 . S
C7105 C7102 1.387 . S
C7106 C7107 1.387 . S
C7106 H7110 0.950 . S
C7106 C7115 1.390 . S
C7107 C7106 1.387 . S
C7107 C7109 1.387 . S
H7108 C7115 0.950 . S
C7109 C7107 1.387 . S
C7109 C7111 1.390 . S
C7109 H7113 0.950 . S
H7110 C7106 0.950 . S
C7111 C7109 1.390 . S
C7111 C7112 1.387 . S
C7111 H7114 0.950 . S
C7112 C7111 1.387 . S
C7112 C7115 1.387 . S
H7113 C7109 0.950 . S
H7114 C7111 0.950 . S
C7115 C7106 1.390 . S
C7115 H7108 0.950 . S
C7115 C7112 1.387 . S
C7116 C7117 1.387 . S
C7116 H7120 0.950 . S
C7116 C7125 1.390 . S
C7117 C7116 1.387 . S
C7117 C7119 1.387 . S
H7118 C7125 0.950 . S
C7119 C7117 1.387 . S
C7119 C7121 1.390 . S
C7119 H7123 0.950 . S
H7120 C7116 0.950 . S
C7121 C7119 1.390 . S
C7121 C7122 1.387 . S
C7121 H7124 0.950 . S
C7122 C7121 1.387 . S
C7122 C7125 1.387 . S
H7123 C7119 0.950 . S
H7124 C7121 0.950 . S
C7125 C7116 1.390 . S
C7125 H7118 0.950 . S
C7125 C7122 1.387 . S
C7126 C7127 1.387 . S
C7126 H7130 0.950 . S
C7126 C7135 1.390 . S
C7127 C7126 1.387 . S
C7127 C7129 1.387 . S
H7128 C7135 0.950 . S
C7129 C7127 1.387 . S
C7129 C7131 1.390 . S
C7129 H7133 0.950 . S
H7130 C7126 0.950 . S
C7131 C7129 1.390 . S
C7131 C7132 1.387 . S
C7131 H7134 0.950 . S
C7132 C7131 1.387 . S
C7132 C7135 1.387 . S
H7133 C7129 0.950 . S
H7134 C7131 0.950 . S
C7135 C7126 1.390 . S
C7135 H7128 0.950 . S
C7135 C7132 1.387 . S
C7136 C7137 1.387 . S
C7136 H7140 0.950 . S
C7136 C7145 1.390 . S
C7137 C7136 1.387 . S
C7137 C7139 1.387 . S
H7138 C7145 0.950 . S
C7139 C7137 1.387 . S
C7139 C7141 1.390 . S
C7139 H7143 0.950 . S
H7140 C7136 0.950 . S
C7141 C7139 1.390 . S
C7141 C7142 1.387 . S
C7141 H7144 0.950 . S
C7142 C7141 1.387 . S
C7142 C7145 1.387 . S
H7143 C7139 0.950 . S
H7144 C7141 0.950 . S
C7145 C7136 1.390 . S
C7145 H7138 0.950 . S
C7145 C7142 1.387 . S
C7146 C7147 1.387 . S
C7146 H7150 0.950 . S
C7146 C7155 1.390 . S
C7147 C7146 1.387 . S
C7147 C7149 1.387 . S
H7148 C7155 0.950 . S
C7149 C7147 1.387 . S
C7149 C7151 1.390 . S
C7149 H7153 0.950 . S
H7150 C7146 0.950 . S
C7151 C7149 1.390 . S
C7151 C7152 1.387 . S
C7151 H7154 0.950 . S
C7152 C7151 1.387 . S
C7152 C7155 1.387 . S
H7153 C7149 0.950 . S
H7154 C7151 0.950 . S
C7155 C7146 1.390 . S
C7155 H7148 0.950 . S
C7155 C7152 1.387 . S
C7156 C7157 1.387 . S
C7156 H7160 0.950 . S
C7156 C7165 1.390 . S
C7157 C7156 1.387 . S
C7157 C7159 1.387 . S
H7158 C7165 0.950 . S
C7159 C7157 1.387 . S
C7159 C7161 1.390 . S
C7159 H7163 0.950 . S
H7160 C7156 0.950 . S
C7161 C7159 1.390 . S
C7161 C7162 1.387 . S
C7161 H7164 0.950 . S
C7162 C7161 1.387 . S
C7162 C7165 1.387 . S
H7163 C7159 0.950 . S
H7164 C7161 0.950 . S
C7165 C7156 1.390 . S
C7165 H7158 0.950 . S
C7165 C7162 1.387 . S
C7166 C7167 1.387 . S
C7166 H7170 0.950 . S
C7166 C7175 1.390 . S
C7167 C7166 1.387 . S
C7167 C7169 1.387 . S
H7168 C7175 0.950 . S
C7169 C7167 1.387 . S
C7169 C7171 1.390 . S
C7169 H7173 0.950 . S
H7170 C7166 0.950 . S
C7171 C7169 1.390 . S
C7171 C7172 1.387 . S
C7171 H7174 0.950 . S
C7172 C7171 1.387 . S
C7172 C7175 1.387 . S
H7173 C7169 0.950 . S
H7174 C7171 0.950 . S
C7175 C7166 1.390 . S
C7175 H7168 0.950 . S
C7175 C7172 1.387 . S
C7176 C7177 1.387 . S
C7176 H7180 0.950 . S
C7176 C7185 1.390 . S
C7177 C7176 1.387 . S
C7177 C7179 1.387 . S
H7178 C7185 0.950 . S
C7179 C7177 1.387 . S
C7179 C7181 1.390 . S
C7179 H7183 0.950 . S
H7180 C7176 0.950 . S
C7181 C7179 1.390 . S
C7181 C7182 1.387 . S
C7181 H7184 0.950 . S
C7182 C7181 1.387 . S
C7182 C7185 1.387 . S
H7183 C7179 0.950 . S
H7184 C7181 0.950 . S
C7185 C7176 1.390 . S
C7185 H7178 0.950 . S
C7185 C7182 1.387 . S
C7186 C7187 1.387 . S
C7186 H7190 0.950 . S
C7186 C7195 1.390 . S
C7187 C7186 1.387 . S
C7187 C7189 1.387 . S
H7188 C7195 0.950 . S
C7189 C7187 1.387 . S
C7189 C7191 1.390 . S
C7189 H7193 0.950 . S
H7190 C7186 0.950 . S
C7191 C7189 1.390 . S
C7191 C7192 1.387 . S
C7191 H7194 0.950 . S
C7192 C7191 1.387 . S
C7192 C7195 1.387 . S
H7193 C7189 0.950 . S
H7194 C7191 0.950 . S
C7195 C7186 1.390 . S
C7195 H7188 0.950 . S
C7195 C7192 1.387 . S
C7196 C7197 1.387 . S
C7196 H7200 0.950 . S
C7196 C7205 1.390 . S
C7197 C7196 1.387 . S
C7197 C7199 1.387 . S
H7198 C7205 0.950 . S
C7199 C7197 1.387 . S
C7199 C7201 1.390 . S
C7199 H7203 0.950 . S
H7200 C7196 0.950 . S
C7201 C7199 1.390 . S
C7201 C7202 1.387 . S
C7201 H7204 0.950 . S
C7202 C7201 1.387 . S
C7202 C7205 1.387 . S
H7203 C7199 0.950 . S
H7204 C7201 0.950 . S
C7205 C7196 1.390 . S
C7205 H7198 0.950 . S
C7205 C7202 1.387 . S
C7206 C7207 1.387 . S
C7206 H7210 0.950 . S
C7206 C7215 1.390 . S
C7207 C7206 1.387 . S
C7207 C7209 1.387 . S
H7208 C7215 0.950 . S
C7209 C7207 1.387 . S
C7209 C7211 1.390 . S
C7209 H7213 0.950 . S
H7210 C7206 0.950 . S
C7211 C7209 1.390 . S
C7211 C7212 1.387 . S
C7211 H7214 0.950 . S
C7212 C7211 1.387 . S
C7212 C7215 1.387 . S
H7213 C7209 0.950 . S
H7214 C7211 0.950 . S
C7215 C7206 1.390 . S
C7215 H7208 0.950 . S
C7215 C7212 1.387 . S
C7216 C7217 1.387 . S
C7216 H7220 0.950 . S
C7216 C7225 1.390 . S
C7217 C7216 1.387 . S
C7217 C7219 1.387 . S
H7218 C7225 0.950 . S
C7219 C7217 1.387 . S
C7219 C7221 1.390 . S
C7219 H7223 0.950 . S
H7220 C7216 0.950 . S
C7221 C7219 1.390 . S
C7221 C7222 1.387 . S
C7221 H7224 0.950 . S
C7222 C7221 1.387 . S
C7222 C7225 1.387 . S
H7223 C7219 0.950 . S
H7224 C7221 0.950 . S
C7225 C7216 1.390 . S
C7225 H7218 0.950 . S
C7225 C7222 1.387 . S
C7226 C7227 1.387 . S
C7226 H7230 0.950 . S
C7226 C7235 1.390 . S
C7227 C7226 1.387 . S
C7227 C7229 1.387 . S
H7228 C7235 0.950 . S
C7229 C7227 1.387 . S
C7229 C7231 1.390 . S
C7229 H7233 0.950 . S
H7230 C7226 0.950 . S
C7231 C7229 1.390 . S
C7231 C7232 1.387 . S
C7231 H7234 0.950 . S
C7232 C7231 1.387 . S
C7232 C7235 1.387 . S
H7233 C7229 0.950 . S
H7234 C7231 0.950 . S
C7235 C7226 1.390 . S
C7235 H7228 0.950 . S
C7235 C7232 1.387 . S
C7236 C7237 1.387 . S
C7236 H7240 0.950 . S
C7236 C7245 1.390 . S
C7237 C7236 1.387 . S
C7237 C7239 1.387 . S
H7238 C7245 0.950 . S
C7239 C7237 1.387 . S
C7239 C7241 1.390 . S
C7239 H7243 0.950 . S
H7240 C7236 0.950 . S
C7241 C7239 1.390 . S
C7241 C7242 1.387 . S
C7241 H7244 0.950 . S
C7242 C7241 1.387 . S
C7242 C7245 1.387 . S
H7243 C7239 0.950 . S
H7244 C7241 0.950 . S
C7245 C7236 1.390 . S
C7245 H7238 0.950 . S
C7245 C7242 1.387 . S
C7246 C7247 1.387 . S
C7246 H7250 0.950 . S
C7246 C7255 1.390 . S
C7247 C7246 1.387 . S
C7247 C7249 1.387 . S
H7248 C7255 0.950 . S
C7249 C7247 1.387 . S
C7249 C7251 1.390 . S
C7249 H7253 0.950 . S
H7250 C7246 0.950 . S
C7251 C7249 1.390 . S
C7251 C7252 1.387 . S
C7251 H7254 0.950 . S
C7252 C7251 1.387 . S
C7252 C7255 1.387 . S
H7253 C7249 0.950 . S
H7254 C7251 0.950 . S
C7255 C7246 1.390 . S
C7255 H7248 0.950 . S
C7255 C7252 1.387 . S
C7256 C7257 1.387 . S
C7256 H7260 0.950 . S
C7256 C7265 1.390 . S
C7257 C7256 1.387 . S
C7257 C7259 1.387 . S
H7258 C7265 0.950 . S
C7259 C7257 1.387 . S
C7259 C7261 1.390 . S
C7259 H7263 0.950 . S
H7260 C7256 0.950 . S
C7261 C7259 1.390 . S
C7261 C7262 1.387 . S
C7261 H7264 0.950 . S
C7262 C7261 1.387 . S
C7262 C7265 1.387 . S
H7263 C7259 0.950 . S
H7264 C7261 0.950 . S
C7265 C7256 1.390 . S
C7265 H7258 0.950 . S
C7265 C7262 1.387 . S
C7266 C7267 1.387 . S
C7266 H7270 0.950 . S
C7266 C7275 1.390 . S
C7267 C7266 1.387 . S
C7267 C7269 1.387 . S
H7268 C7275 0.950 . S
C7269 C7267 1.387 . S
C7269 C7271 1.390 . S
C7269 H7273 0.950 . S
H7270 C7266 0.950 . S
C7271 C7269 1.390 . S
C7271 C7272 1.387 . S
C7271 H7274 0.950 . S
C7272 C7271 1.387 . S
C7272 C7275 1.387 . S
H7273 C7269 0.950 . S
H7274 C7271 0.950 . S
C7275 C7266 1.390 . S
C7275 H7268 0.950 . S
C7275 C7272 1.387 . S
C7276 C7277 1.387 . S
C7276 H7280 0.950 . S
C7276 C7285 1.390 . S
C7277 C7276 1.387 . S
C7277 C7279 1.387 . S
H7278 C7285 0.950 . S
C7279 C7277 1.387 . S
C7279 C7281 1.390 . S
C7279 H7283 0.950 . S
H7280 C7276 0.950 . S
C7281 C7279 1.390 . S
C7281 C7282 1.387 . S
C7281 H7284 0.950 . S
C7282 C7281 1.387 . S
C7282 C7285 1.387 . S
H7283 C7279 0.950 . S
H7284 C7281 0.950 . S
C7285 C7276 1.390 . S
C7285 H7278 0.950 . S
C7285 C7282 1.387 . S
C7286 C7287 1.387 . S
C7286 H7290 0.950 . S
C7286 C7295 1.390 . S
C7287 C7286 1.387 . S
C7287 C7289 1.387 . S
H7288 C7295 0.950 . S
C7289 C7287 1.387 . S
C7289 C7291 1.390 . S
C7289 H7293 0.950 . S
H7290 C7286 0.950 . S
C7291 C7289 1.390 . S
C7291 C7292 1.387 . S
C7291 H7294 0.950 . S
C7292 C7291 1.387 . S
C7292 C7295 1.387 . S
H7293 C7289 0.950 . S
H7294 C7291 0.950 . S
C7295 C7286 1.390 . S
C7295 H7288 0.950 . S
C7295 C7292 1.387 . S
C7296 C7297 1.387 . S
C7296 H7300 0.950 . S
C7296 C7305 1.390 . S
C7297 C7296 1.387 . S
C7297 C7299 1.387 . S
H7298 C7305 0.950 . S
C7299 C7297 1.387 . S
C7299 C7301 1.390 . S
C7299 H7303 0.950 . S
H7300 C7296 0.950 . S
C7301 C7299 1.390 . S
C7301 C7302 1.387 . S
C7301 H7304 0.950 . S
C7302 C7301 1.387 . S
C7302 C7305 1.387 . S
H7303 C7299 0.950 . S
H7304 C7301 0.950 . S
C7305 C7296 1.390 . S
C7305 H7298 0.950 . S
C7305 C7302 1.387 . S
C7306 C7307 1.387 . S
C7306 H7310 0.950 . S
C7306 C7315 1.390 . S
C7307 C7306 1.387 . S
C7307 C7309 1.387 . S
H7308 C7315 0.950 . S
C7309 C7307 1.387 . S
C7309 C7311 1.390 . S
C7309 H7313 0.950 . S
H7310 C7306 0.950 . S
C7311 C7309 1.390 . S
C7311 C7312 1.387 . S
C7311 H7314 0.950 . S
C7312 C7311 1.387 . S
C7312 C7315 1.387 . S
H7313 C7309 0.950 . S
H7314 C7311 0.950 . S
C7315 C7306 1.390 . S
C7315 H7308 0.950 . S
C7315 C7312 1.387 . S
C7316 C7317 1.387 . S
C7316 H7320 0.950 . S
C7316 C7325 1.390 . S
C7317 C7316 1.387 . S
C7317 C7319 1.387 . S
H7318 C7325 0.950 . S
C7319 C7317 1.387 . S
C7319 C7321 1.390 . S
C7319 H7323 0.950 . S
H7320 C7316 0.950 . S
C7321 C7319 1.390 . S
C7321 C7322 1.387 . S
C7321 H7324 0.950 . S
C7322 C7321 1.387 . S
C7322 C7325 1.387 . S
H7323 C7319 0.950 . S
H7324 C7321 0.950 . S
C7325 C7316 1.390 . S
C7325 H7318 0.950 . S
C7325 C7322 1.387 . S
C7326 C7327 1.387 . S
C7326 H7330 0.950 . S
C7326 C7335 1.390 . S
C7327 C7326 1.387 . S
C7327 C7329 1.387 . S
H7328 C7335 0.950 . S
C7329 C7327 1.387 . S
C7329 C7331 1.390 . S
C7329 H7333 0.950 . S
H7330 C7326 0.950 . S
C7331 C7329 1.390 . S
C7331 C7332 1.387 . S
C7331 H7334 0.950 . S
C7332 C7331 1.387 . S
C7332 C7335 1.387 . S
H7333 C7329 0.950 . S
H7334 C7331 0.950 . S
C7335 C7326 1.390 . S
C7335 H7328 0.950 . S
C7335 C7332 1.387 . S
C7336 C7337 1.387 . S
C7336 H7340 0.950 . S
C7336 C7345 1.390 . S
C7337 C7336 1.387 . S
C7337 C7339 1.387 . S
H7338 C7345 0.950 . S
C7339 C7337 1.387 . S
C7339 C7341 1.390 . S
C7339 H7343 0.950 . S
H7340 C7336 0.950 . S
C7341 C7339 1.390 . S
C7341 C7342 1.387 . S
C7341 H7344 0.950 . S
C7342 C7341 1.387 . S
C7342 C7345 1.387 . S
H7343 C7339 0.950 . S
H7344 C7341 0.950 . S
C7345 C7336 1.390 . S
C7345 H7338 0.950 . S
C7345 C7342 1.387 . S
C7346 C7347 1.387 . S
C7346 H7350 0.950 . S
C7346 C7355 1.390 . S
C7347 C7346 1.387 . S
C7347 C7349 1.387 . S
H7348 C7355 0.950 . S
C7349 C7347 1.387 . S
C7349 C7351 1.390 . S
C7349 H7353 0.950 . S
H7350 C7346 0.950 . S
C7351 C7349 1.390 . S
C7351 C7352 1.387 . S
C7351 H7354 0.950 . S
C7352 C7351 1.387 . S
C7352 C7355 1.387 . S
H7353 C7349 0.950 . S
H7354 C7351 0.950 . S
C7355 C7346 1.390 . S
C7355 H7348 0.950 . S
C7355 C7352 1.387 . S
C7356 C7357 1.387 . S
C7356 H7360 0.950 . S
C7356 C7365 1.390 . S
C7357 C7356 1.387 . S
C7357 C7359 1.387 . S
H7358 C7365 0.950 . S
C7359 C7357 1.387 . S
C7359 C7361 1.390 . S
C7359 H7363 0.950 . S
H7360 C7356 0.950 . S
C7361 C7359 1.390 . S
C7361 C7362 1.387 . S
C7361 H7364 0.950 . S
C7362 C7361 1.387 . S
C7362 C7365 1.387 . S
H7363 C7359 0.950 . S
H7364 C7361 0.950 . S
C7365 C7356 1.390 . S
C7365 H7358 0.950 . S
C7365 C7362 1.387 . S
C7366 C7367 1.387 . S
C7366 H7370 0.950 . S
C7366 C7375 1.390 . S
C7367 C7366 1.387 . S
C7367 C7369 1.387 . S
H7368 C7375 0.950 . S
C7369 C7367 1.387 . S
C7369 C7371 1.390 . S
C7369 H7373 0.950 . S
H7370 C7366 0.950 . S
C7371 C7369 1.390 . S
C7371 C7372 1.387 . S
C7371 H7374 0.950 . S
C7372 C7371 1.387 . S
C7372 C7375 1.387 . S
H7373 C7369 0.950 . S
H7374 C7371 0.950 . S
C7375 C7366 1.390 . S
C7375 H7368 0.950 . S
C7375 C7372 1.387 . S
C7376 C7377 1.387 . S
C7376 H7380 0.950 . S
C7376 C7385 1.390 . S
C7377 C7376 1.387 . S
C7377 C7379 1.387 . S
H7378 C7385 0.950 . S
C7379 C7377 1.387 . S
C7379 C7381 1.390 . S
C7379 H7383 0.950 . S
H7380 C7376 0.950 . S
C7381 C7379 1.390 . S
C7381 C7382 1.387 . S
C7381 H7384 0.950 . S
C7382 C7381 1.387 . S
C7382 C7385 1.387 . S
H7383 C7379 0.950 . S
H7384 C7381 0.950 . S
C7385 C7376 1.390 . S
C7385 H7378 0.950 . S
C7385 C7382 1.387 . S
C7386 C7387 1.387 . S
C7386 H7390 0.950 . S
C7386 C7395 1.390 . S
C7387 C7386 1.387 . S
C7387 C7389 1.387 . S
H7388 C7395 0.950 . S
C7389 C7387 1.387 . S
C7389 C7391 1.390 . S
C7389 H7393 0.950 . S
H7390 C7386 0.950 . S
C7391 C7389 1.390 . S
C7391 C7392 1.387 . S
C7391 H7394 0.950 . S
C7392 C7391 1.387 . S
C7392 C7395 1.387 . S
H7393 C7389 0.950 . S
H7394 C7391 0.950 . S
C7395 C7386 1.390 . S
C7395 H7388 0.950 . S
C7395 C7392 1.387 . S
C7396 C7397 1.387 . S
C7396 H7400 0.950 . S
C7396 C7405 1.390 . S
C7397 C7396 1.387 . S
C7397 C7399 1.387 . S
H7398 C7405 0.950 . S
C7399 C7397 1.387 . S
C7399 C7401 1.390 . S
C7399 H7403 0.950 . S
H7400 C7396 0.950 . S
C7401 C7399 1.390 . S
C7401 C7402 1.387 . S
C7401 H7404 0.950 . S
C7402 C7401 1.387 . S
C7402 C7405 1.387 . S
H7403 C7399 0.950 . S
H7404 C7401 0.950 . S
C7405 C7396 1.390 . S
C7405 H7398 0.950 . S
C7405 C7402 1.387 . S
C7406 C7407 1.387 . S
C7406 H7410 0.950 . S
C7406 C7415 1.390 . S
C7407 C7406 1.387 . S
C7407 C7409 1.387 . S
H7408 C7415 0.950 . S
C7409 C7407 1.387 . S
C7409 C7411 1.390 . S
C7409 H7413 0.950 . S
H7410 C7406 0.950 . S
C7411 C7409 1.390 . S
C7411 C7412 1.387 . S
C7411 H7414 0.950 . S
C7412 C7411 1.387 . S
C7412 C7415 1.387 . S
H7413 C7409 0.950 . S
H7414 C7411 0.950 . S
C7415 C7406 1.390 . S
C7415 H7408 0.950 . S
C7415 C7412 1.387 . S
C7416 C7417 1.387 . S
C7416 H7420 0.950 . S
C7416 C7425 1.390 . S
C7417 C7416 1.387 . S
C7417 C7419 1.387 . S
H7418 C7425 0.950 . S
C7419 C7417 1.387 . S
C7419 C7421 1.390 . S
C7419 H7423 0.950 . S
H7420 C7416 0.950 . S
C7421 C7419 1.390 . S
C7421 C7422 1.387 . S
C7421 H7424 0.950 . S
C7422 C7421 1.387 . S
C7422 C7425 1.387 . S
H7423 C7419 0.950 . S
H7424 C7421 0.950 . S
C7425 C7416 1.390 . S
C7425 H7418 0.950 . S
C7425 C7422 1.387 . S
C7426 C7427 1.387 . S
C7426 H7430 0.950 . S
C7426 C7435 1.390 . S
C7427 C7426 1.387 . S
C7427 C7429 1.387 . S
H7428 C7435 0.950 . S
C7429 C7427 1.387 . S
C7429 C7431 1.390 . S
C7429 H7433 0.950 . S
H7430 C7426 0.950 . S
C7431 C7429 1.390 . S
C7431 C7432 1.387 . S
C7431 H7434 0.950 . S
C7432 C7431 1.387 . S
C7432 C7435 1.387 . S
H7433 C7429 0.950 . S
H7434 C7431 0.950 . S
C7435 C7426 1.390 . S
C7435 H7428 0.950 . S
C7435 C7432 1.387 . S
C7436 C7437 1.387 . S
C7436 H7440 0.950 . S
C7436 C7445 1.390 . S
C7437 C7436 1.387 . S
C7437 C7439 1.387 . S
H7438 C7445 0.950 . S
C7439 C7437 1.387 . S
C7439 C7441 1.390 . S
C7439 H7443 0.950 . S
H7440 C7436 0.950 . S
C7441 C7439 1.390 . S
C7441 C7442 1.387 . S
C7441 H7444 0.950 . S
C7442 C7441 1.387 . S
C7442 C7445 1.387 . S
H7443 C7439 0.950 . S
H7444 C7441 0.950 . S
C7445 C7436 1.390 . S
C7445 H7438 0.950 . S
C7445 C7442 1.387 . S
C7446 C7447 1.387 . S
C7446 H7450 0.950 . S
C7446 C7455 1.390 . S
C7447 C7446 1.387 . S
C7447 C7449 1.387 . S
H7448 C7455 0.950 . S
C7449 C7447 1.387 . S
C7449 C7451 1.390 . S
C7449 H7453 0.950 . S
H7450 C7446 0.950 . S
C7451 C7449 1.390 . S
C7451 C7452 1.387 . S
C7451 H7454 0.950 . S
C7452 C7451 1.387 . S
C7452 C7455 1.387 . S
H7453 C7449 0.950 . S
H7454 C7451 0.950 . S
C7455 C7446 1.390 . S
C7455 H7448 0.950 . S
C7455 C7452 1.387 . S
C7456 C7457 1.387 . S
C7456 H7460 0.950 . S
C7456 C7465 1.390 . S
C7457 C7456 1.387 . S
C7457 C7459 1.387 . S
H7458 C7465 0.950 . S
C7459 C7457 1.387 . S
C7459 C7461 1.390 . S
C7459 H7463 0.950 . S
H7460 C7456 0.950 . S
C7461 C7459 1.390 . S
C7461 C7462 1.387 . S
C7461 H7464 0.950 . S
C7462 C7461 1.387 . S
C7462 C7465 1.387 . S
H7463 C7459 0.950 . S
H7464 C7461 0.950 . S
C7465 C7456 1.390 . S
C7465 H7458 0.950 . S
C7465 C7462 1.387 . S
C7466 C7467 1.387 . S
C7466 H7470 0.950 . S
C7466 C7475 1.390 . S
C7467 C7466 1.387 . S
C7467 C7469 1.387 . S
H7468 C7475 0.950 . S
C7469 C7467 1.387 . S
C7469 C7471 1.390 . S
C7469 H7473 0.950 . S
H7470 C7466 0.950 . S
C7471 C7469 1.390 . S
C7471 C7472 1.387 . S
C7471 H7474 0.950 . S
C7472 C7471 1.387 . S
C7472 C7475 1.387 . S
H7473 C7469 0.950 . S
H7474 C7471 0.950 . S
C7475 C7466 1.390 . S
C7475 H7468 0.950 . S
C7475 C7472 1.387 . S
C7476 C7477 1.387 . S
C7476 H7480 0.950 . S
C7476 C7485 1.390 . S
C7477 C7476 1.387 . S
C7477 C7479 1.387 . S
H7478 C7485 0.950 . S
C7479 C7477 1.387 . S
C7479 C7481 1.390 . S
C7479 H7483 0.950 . S
H7480 C7476 0.950 . S
C7481 C7479 1.390 . S
C7481 C7482 1.387 . S
C7481 H7484 0.950 . S
C7482 C7481 1.387 . S
C7482 C7485 1.387 . S
H7483 C7479 0.950 . S
H7484 C7481 0.950 . S
C7485 C7476 1.390 . S
C7485 H7478 0.950 . S
C7485 C7482 1.387 . S
C7486 C7487 1.387 . S
C7486 H7490 0.950 . S
C7486 C7495 1.390 . S
C7487 C7486 1.387 . S
C7487 C7489 1.387 . S
H7488 C7495 0.950 . S
C7489 C7487 1.387 . S
C7489 C7491 1.390 . S
C7489 H7493 0.950 . S
H7490 C7486 0.950 . S
C7491 C7489 1.390 . S
C7491 C7492 1.387 . S
C7491 H7494 0.950 . S
C7492 C7491 1.387 . S
C7492 C7495 1.387 . S
H7493 C7489 0.950 . S
H7494 C7491 0.950 . S
C7495 C7486 1.390 . S
C7495 H7488 0.950 . S
C7495 C7492 1.387 . S
C7496 C7497 1.387 . S
C7496 H7500 0.950 . S
C7496 C7505 1.390 . S
C7497 C7496 1.387 . S
C7497 C7499 1.387 . S
H7498 C7505 0.950 . S
C7499 C7497 1.387 . S
C7499 C7501 1.390 . S
C7499 H7503 0.950 . S
H7500 C7496 0.950 . S
C7501 C7499 1.390 . S
C7501 C7502 1.387 . S
C7501 H7504 0.950 . S
C7502 C7501 1.387 . S
C7502 C7505 1.387 . S
H7503 C7499 0.950 . S
H7504 C7501 0.950 . S
C7505 C7496 1.390 . S
C7505 H7498 0.950 . S
C7505 C7502 1.387 . S
C7506 C7507 1.387 . S
C7506 H7510 0.950 . S
C7506 C7515 1.390 . S
C7507 C7506 1.387 . S
C7507 C7509 1.387 . S
H7508 C7515 0.950 . S
C7509 C7507 1.387 . S
C7509 C7511 1.390 . S
C7509 H7513 0.950 . S
H7510 C7506 0.950 . S
C7511 C7509 1.390 . S
C7511 C7512 1.387 . S
C7511 H7514 0.950 . S
C7512 C7511 1.387 . S
C7512 C7515 1.387 . S
H7513 C7509 0.950 . S
H7514 C7511 0.950 . S
C7515 C7506 1.390 . S
C7515 H7508 0.950 . S
C7515 C7512 1.387 . S
C7516 C7517 1.387 . S
C7516 H7520 0.950 . S
C7516 C7525 1.390 . S
C7517 C7516 1.387 . S
C7517 C7519 1.387 . S
H7518 C7525 0.950 . S
C7519 C7517 1.387 . S
C7519 C7521 1.390 . S
C7519 H7523 0.950 . S
H7520 C7516 0.950 . S
C7521 C7519 1.390 . S
C7521 C7522 1.387 . S
C7521 H7524 0.950 . S
C7522 C7521 1.387 . S
C7522 C7525 1.387 . S
H7523 C7519 0.950 . S
H7524 C7521 0.950 . S
C7525 C7516 1.390 . S
C7525 H7518 0.950 . S
C7525 C7522 1.387 . S
C7526 C7527 1.387 . S
C7526 H7530 0.950 . S
C7526 C7535 1.390 . S
C7527 C7526 1.387 . S
C7527 C7529 1.387 . S
H7528 C7535 0.950 . S
C7529 C7527 1.387 . S
C7529 C7531 1.390 . S
C7529 H7533 0.950 . S
H7530 C7526 0.950 . S
C7531 C7529 1.390 . S
C7531 C7532 1.387 . S
C7531 H7534 0.950 . S
C7532 C7531 1.387 . S
C7532 C7535 1.387 . S
H7533 C7529 0.950 . S
H7534 C7531 0.950 . S
C7535 C7526 1.390 . S
C7535 H7528 0.950 . S
C7535 C7532 1.387 . S
C7536 C7537 1.387 . S
C7536 H7540 0.950 . S
C7536 C7545 1.390 . S
C7537 C7536 1.387 . S
C7537 C7539 1.387 . S
H7538 C7545 0.950 . S
C7539 C7537 1.387 . S
C7539 C7541 1.390 . S
C7539 H7543 0.950 . S
H7540 C7536 0.950 . S
C7541 C7539 1.390 . S
C7541 C7542 1.387 . S
C7541 H7544 0.950 . S
C7542 C7541 1.387 . S
C7542 C7545 1.387 . S
H7543 C7539 0.950 . S
H7544 C7541 0.950 . S
C7545 C7536 1.390 . S
C7545 H7538 0.950 . S
C7545 C7542 1.387 . S
C7546 C7547 1.387 . S
C7546 H7550 0.950 . S
C7546 C7555 1.390 . S
C7547 C7546 1.387 . S
C7547 C7549 1.387 . S
H7548 C7555 0.950 . S
C7549 C7547 1.387 . S
C7549 C7551 1.390 . S
C7549 H7553 0.950 . S
H7550 C7546 0.950 . S
C7551 C7549 1.390 . S
C7551 C7552 1.387 . S
C7551 H7554 0.950 . S
C7552 C7551 1.387 . S
C7552 C7555 1.387 . S
H7553 C7549 0.950 . S
H7554 C7551 0.950 . S
C7555 C7546 1.390 . S
C7555 H7548 0.950 . S
C7555 C7552 1.387 . S
C7556 C7557 1.387 . S
C7556 H7560 0.950 . S
C7556 C7565 1.390 . S
C7557 C7556 1.387 . S
C7557 C7559 1.387 . S
H7558 C7565 0.950 . S
C7559 C7557 1.387 . S
C7559 C7561 1.390 . S
C7559 H7563 0.950 . S
H7560 C7556 0.950 . S
C7561 C7559 1.390 . S
C7561 C7562 1.387 . S
C7561 H7564 0.950 . S
C7562 C7561 1.387 . S
C7562 C7565 1.387 . S
H7563 C7559 0.950 . S
H7564 C7561 0.950 . S
C7565 C7556 1.390 . S
C7565 H7558 0.950 . S
C7565 C7562 1.387 . S
C7566 C7567 1.387 . S
C7566 H7570 0.950 . S
C7566 C7575 1.390 . S
C7567 C7566 1.387 . S
C7567 C7569 1.387 . S
H7568 C7575 0.950 . S
C7569 C7567 1.387 . S
C7569 C7571 1.390 . S
C7569 H7573 0.950 . S
H7570 C7566 0.950 . S
C7571 C7569 1.390 . S
C7571 C7572 1.387 . S
C7571 H7574 0.950 . S
C7572 C7571 1.387 . S
C7572 C7575 1.387 . S
H7573 C7569 0.950 . S
H7574 C7571 0.950 . S
C7575 C7566 1.390 . S
C7575 H7568 0.950 . S
C7575 C7572 1.387 . S
C7576 C7577 1.387 . S
C7576 H7580 0.950 . S
C7576 C7585 1.390 . S
C7577 C7576 1.387 . S
C7577 C7579 1.387 . S
H7578 C7585 0.950 . S
C7579 C7577 1.387 . S
C7579 C7581 1.390 . S
C7579 H7583 0.950 . S
H7580 C7576 0.950 . S
C7581 C7579 1.390 . S
C7581 C7582 1.387 . S
C7581 H7584 0.950 . S
C7582 C7581 1.387 . S
C7582 C7585 1.387 . S
H7583 C7579 0.950 . S
H7584 C7581 0.950 . S
C7585 C7576 1.390 . S
C7585 H7578 0.950 . S
C7585 C7582 1.387 . S
C7586 C7587 1.387 . S
C7586 H7590 0.950 . S
C7586 C7595 1.390 . S
C7587 C7586 1.387 . S
C7587 C7589 1.387 . S
H7588 C7595 0.950 . S
C7589 C7587 1.387 . S
C7589 C7591 1.390 . S
C7589 H7593 0.950 . S
H7590 C7586 0.950 . S
C7591 C7589 1.390 . S
C7591 C7592 1.387 . S
C7591 H7594 0.950 . S
C7592 C7591 1.387 . S
C7592 C7595 1.387 . S
H7593 C7589 0.950 . S
H7594 C7591 0.950 . S
C7595 C7586 1.390 . S
C7595 H7588 0.950 . S
C7595 C7592 1.387 . S
C7596 C7597 1.387 . S
C7596 H7600 0.950 . S
C7596 C7605 1.390 . S
C7597 C7596 1.387 . S
C7597 C7599 1.387 . S
H7598 C7605 0.950 . S
C7599 C7597 1.387 . S
C7599 C7601 1.390 . S
C7599 H7603 0.950 . S
H7600 C7596 0.950 . S
C7601 C7599 1.390 . S
C7601 C7602 1.387 . S
C7601 H7604 0.950 . S
C7602 C7601 1.387 . S
C7602 C7605 1.387 . S
H7603 C7599 0.950 . S
H7604 C7601 0.950 . S
C7605 C7596 1.390 . S
C7605 H7598 0.950 . S
C7605 C7602 1.387 . S
C7606 C7607 1.387 . S
C7606 H7610 0.950 . S
C7606 C7615 1.390 . S
C7607 C7606 1.387 . S
C7607 C7609 1.387 . S
H7608 C7615 0.950 . S
C7609 C7607 1.387 . S
C7609 C7611 1.390 . S
C7609 H7613 0.950 . S
H7610 C7606 0.950 . S
C7611 C7609 1.390 . S
C7611 C7612 1.387 . S
C7611 H7614 0.950 . S
C7612 C7611 1.387 . S
C7612 C7615 1.387 . S
H7613 C7609 0.950 . S
H7614 C7611 0.950 . S
C7615 C7606 1.390 . S
C7615 H7608 0.950 . S
C7615 C7612 1.387 . S
C7616 C7617 1.387 . S
C7616 H7620 0.950 . S
C7616 C7625 1.390 . S
C7617 C7616 1.387 . S
C7617 C7619 1.387 . S
H7618 C7625 0.950 . S
C7619 C7617 1.387 . S
C7619 C7621 1.390 . S
C7619 H7623 0.950 . S
H7620 C7616 0.950 . S
C7621 C7619 1.390 . S
C7621 C7622 1.387 . S
C7621 H7624 0.950 . S
C7622 C7621 1.387 . S
C7622 C7625 1.387 . S
H7623 C7619 0.950 . S
H7624 C7621 0.950 . S
C7625 C7616 1.390 . S
C7625 H7618 0.950 . S
C7625 C7622 1.387 . S
C7626 C7627 1.387 . S
C7626 H7630 0.950 . S
C7626 C7635 1.390 . S
C7627 C7626 1.387 . S
C7627 C7629 1.387 . S
H7628 C7635 0.950 . S
C7629 C7627 1.387 . S
C7629 C7631 1.390 . S
C7629 H7633 0.950 . S
H7630 C7626 0.950 . S
C7631 C7629 1.390 . S
C7631 C7632 1.387 . S
C7631 H7634 0.950 . S
C7632 C7631 1.387 . S
C7632 C7635 1.387 . S
H7633 C7629 0.950 . S
H7634 C7631 0.950 . S
C7635 C7626 1.390 . S
C7635 H7628 0.950 . S
C7635 C7632 1.387 . S
C7636 C7637 1.387 . S
C7636 H7640 0.950 . S
C7636 C7645 1.390 . S
C7637 C7636 1.387 . S
C7637 C7639 1.387 . S
H7638 C7645 0.950 . S
C7639 C7637 1.387 . S
C7639 C7641 1.390 . S
C7639 H7643 0.950 . S
H7640 C7636 0.950 . S
C7641 C7639 1.390 . S
C7641 C7642 1.387 . S
C7641 H7644 0.950 . S
C7642 C7641 1.387 . S
C7642 C7645 1.387 . S
H7643 C7639 0.950 . S
H7644 C7641 0.950 . S
C7645 C7636 1.390 . S
C7645 H7638 0.950 . S
C7645 C7642 1.387 . S
C7646 C7647 1.387 . S
C7646 H7650 0.950 . S
C7646 C7655 1.390 . S
C7647 C7646 1.387 . S
C7647 C7649 1.387 . S
H7648 C7655 0.950 . S
C7649 C7647 1.387 . S
C7649 C7651 1.390 . S
C7649 H7653 0.950 . S
H7650 C7646 0.950 . S
C7651 C7649 1.390 . S
C7651 C7652 1.387 . S
C7651 H7654 0.950 . S
C7652 C7651 1.387 . S
C7652 C7655 1.387 . S
H7653 C7649 0.950 . S
H7654 C7651 0.950 . S
C7655 C7646 1.390 . S
C7655 H7648 0.950 . S
C7655 C7652 1.387 . S
C7656 C7657 1.387 . S
C7656 H7660 0.950 . S
C7656 C7665 1.390 . S
C7657 C7656 1.387 . S
C7657 C7659 1.387 . S
H7658 C7665 0.950 . S
C7659 C7657 1.387 . S
C7659 C7661 1.390 . S
C7659 H7663 0.950 . S
H7660 C7656 0.950 . S
C7661 C7659 1.390 . S
C7661 C7662 1.387 . S
C7661 H7664 0.950 . S
C7662 C7661 1.387 . S
C7662 C7665 1.387 . S
H7663 C7659 0.950 . S
H7664 C7661 0.950 . S
C7665 C7656 1.390 . S
C7665 H7658 0.950 . S
C7665 C7662 1.387 . S
C7666 C7667 1.387 . S
C7666 H7670 0.950 . S
C7666 C7675 1.390 . S
C7667 C7666 1.387 . S
C7667 C7669 1.387 . S
H7668 C7675 0.950 . S
C7669 C7667 1.387 . S
C7669 C7671 1.390 . S
C7669 H7673 0.950 . S
H7670 C7666 0.950 . S
C7671 C7669 1.390 . S
C7671 C7672 1.387 . S
C7671 H7674 0.950 . S
C7672 C7671 1.387 . S
C7672 C7675 1.387 . S
H7673 C7669 0.950 . S
H7674 C7671 0.950 . S
C7675 C7666 1.390 . S
C7675 H7668 0.950 . S
C7675 C7672 1.387 . S
C7676 C7677 1.387 . S
C7676 H7680 0.950 . S
C7676 C7685 1.390 . S
C7677 C7676 1.387 . S
C7677 C7679 1.387 . S
H7678 C7685 0.950 . S
C7679 C7677 1.387 . S
C7679 C7681 1.390 . S
C7679 H7683 0.950 . S
H7680 C7676 0.950 . S
C7681 C7679 1.390 . S
C7681 C7682 1.387 . S
C7681 H7684 0.950 . S
C7682 C7681 1.387 . S
C7682 C7685 1.387 . S
H7683 C7679 0.950 . S
H7684 C7681 0.950 . S
C7685 C7676 1.390 . S
C7685 H7678 0.950 . S
C7685 C7682 1.387 . S
C7686 C7687 1.387 . S
C7686 H7690 0.950 . S
C7686 C7695 1.390 . S
C7687 C7686 1.387 . S
C7687 C7689 1.387 . S
H7688 C7695 0.950 . S
C7689 C7687 1.387 . S
C7689 C7691 1.390 . S
C7689 H7693 0.950 . S
H7690 C7686 0.950 . S
C7691 C7689 1.390 . S
C7691 C7692 1.387 . S
C7691 H7694 0.950 . S
C7692 C7691 1.387 . S
C7692 C7695 1.387 . S
H7693 C7689 0.950 . S
H7694 C7691 0.950 . S
C7695 C7686 1.390 . S
C7695 H7688 0.950 . S
C7695 C7692 1.387 . S
C7696 C7697 1.387 . S
C7696 H7700 0.950 . S
C7696 C7705 1.390 . S
C7697 C7696 1.387 . S
C7697 C7699 1.387 . S
H7698 C7705 0.950 . S
C7699 C7697 1.387 . S
C7699 C7701 1.390 . S
C7699 H7703 0.950 . S
H7700 C7696 0.950 . S
C7701 C7699 1.390 . S
C7701 C7702 1.387 . S
C7701 H7704 0.950 . S
C7702 C7701 1.387 . S
C7702 C7705 1.387 . S
H7703 C7699 0.950 . S
H7704 C7701 0.950 . S
C7705 C7696 1.390 . S
C7705 H7698 0.950 . S
C7705 C7702 1.387 . S
C7706 C7707 1.387 . S
C7706 H7710 0.950 . S
C7706 C7715 1.390 . S
C7707 C7706 1.387 . S
C7707 C7709 1.387 . S
H7708 C7715 0.950 . S
C7709 C7707 1.387 . S
C7709 C7711 1.390 . S
C7709 H7713 0.950 . S
H7710 C7706 0.950 . S
C7711 C7709 1.390 . S
C7711 C7712 1.387 . S
C7711 H7714 0.950 . S
C7712 C7711 1.387 . S
C7712 C7715 1.387 . S
H7713 C7709 0.950 . S
H7714 C7711 0.950 . S
C7715 C7706 1.390 . S
C7715 H7708 0.950 . S
C7715 C7712 1.387 . S
C7716 C7717 1.387 . S
C7716 H7720 0.950 . S
C7716 C7725 1.390 . S
C7717 C7716 1.387 . S
C7717 C7719 1.387 . S
H7718 C7725 0.950 . S
C7719 C7717 1.387 . S
C7719 C7721 1.390 . S
C7719 H7723 0.950 . S
H7720 C7716 0.950 . S
C7721 C7719 1.390 . S
C7721 C7722 1.387 . S
C7721 H7724 0.950 . S
C7722 C7721 1.387 . S
C7722 C7725 1.387 . S
H7723 C7719 0.950 . S
H7724 C7721 0.950 . S
C7725 C7716 1.390 . S
C7725 H7718 0.950 . S
C7725 C7722 1.387 . S
C7726 C7727 1.387 . S
C7726 H7730 0.950 . S
C7726 C7735 1.390 . S
C7727 C7726 1.387 . S
C7727 C7729 1.387 . S
H7728 C7735 0.950 . S
C7729 C7727 1.387 . S
C7729 C7731 1.390 . S
C7729 H7733 0.950 . S
H7730 C7726 0.950 . S
C7731 C7729 1.390 . S
C7731 C7732 1.387 . S
C7731 H7734 0.950 . S
C7732 C7731 1.387 . S
C7732 C7735 1.387 . S
H7733 C7729 0.950 . S
H7734 C7731 0.950 . S
C7735 C7726 1.390 . S
C7735 H7728 0.950 . S
C7735 C7732 1.387 . S
C7736 C7737 1.387 . S
C7736 H7740 0.950 . S
C7736 C7745 1.390 . S
C7737 C7736 1.387 . S
C7737 C7739 1.387 . S
H7738 C7745 0.950 . S
C7739 C7737 1.387 . S
C7739 C7741 1.390 . S
C7739 H7743 0.950 . S
H7740 C7736 0.950 . S
C7741 C7739 1.390 . S
C7741 C7742 1.387 . S
C7741 H7744 0.950 . S
C7742 C7741 1.387 . S
C7742 C7745 1.387 . S
H7743 C7739 0.950 . S
H7744 C7741 0.950 . S
C7745 C7736 1.390 . S
C7745 H7738 0.950 . S
C7745 C7742 1.387 . S
C7746 C7747 1.387 . S
C7746 H7750 0.950 . S
C7746 C7755 1.390 . S
C7747 C7746 1.387 . S
C7747 C7749 1.387 . S
H7748 C7755 0.950 . S
C7749 C7747 1.387 . S
C7749 C7751 1.390 . S
C7749 H7753 0.950 . S
H7750 C7746 0.950 . S
C7751 C7749 1.390 . S
C7751 C7752 1.387 . S
C7751 H7754 0.950 . S
C7752 C7751 1.387 . S
C7752 C7755 1.387 . S
H7753 C7749 0.950 . S
H7754 C7751 0.950 . S
C7755 C7746 1.390 . S
C7755 H7748 0.950 . S
C7755 C7752 1.387 . S
C7756 C7757 1.387 . S
C7756 H7760 0.950 . S
C7756 C7765 1.390 . S
C7757 C7756 1.387 . S
C7757 C7759 1.387 . S
H7758 C7765 0.950 . S
C7759 C7757 1.387 . S
C7759 C7761 1.390 . S
C7759 H7763 0.950 . S
H7760 C7756 0.950 . S
C7761 C7759 1.390 . S
C7761 C7762 1.387 . S
C7761 H7764 0.950 . S
C7762 C7761 1.387 . S
C7762 C7765 1.387 . S
H7763 C7759 0.950 . S
H7764 C7761 0.950 . S
C7765 C7756 1.390 . S
C7765 H7758 0.950 . S
C7765 C7762 1.387 . S
C7766 C7767 1.387 . S
C7766 H7770 0.950 . S
C7766 C7775 1.390 . S
C7767 C7766 1.387 . S
C7767 C7769 1.387 . S
H7768 C7775 0.950 . S
C7769 C7767 1.387 . S
C7769 C7771 1.390 . S
C7769 H7773 0.950 . S
H7770 C7766 0.950 . S
C7771 C7769 1.390 . S
C7771 C7772 1.387 . S
C7771 H7774 0.950 . S
C7772 C7771 1.387 . S
C7772 C7775 1.387 . S
H7773 C7769 0.950 . S
H7774 C7771 0.950 . S
C7775 C7766 1.390 . S
C7775 H7768 0.950 . S
C7775 C7772 1.387 . S
C4902 C4123 1.604 . S
C4897 C15 1.596 . S
C4912 C4662 1.605 . S
C4907 C55 1.598 . S
C4922 C4145 1.604 . S
C4917 C95 1.596 . S
C4932 C4640 1.603 . S
C4927 C135 1.596 . S
C4942 C4189 1.605 . S
C4937 C175 1.598 . S
C4947 C215 1.596 . S
C4952 C4684 1.604 . S
C4962 C4167 1.604 . S
C4957 C255 1.596 . S
C4972 C4706 1.606 . S
C4967 C295 1.598 . S
C4982 C4882 1.604 . S
C4977 C335 1.596 . S
C4987 C375 1.597 . S
C4992 C4816 1.605 . S
C5002 C4893 1.604 . S
C4997 C415 1.597 . S
C5007 C455 1.596 . S
C5012 C4871 1.604 . S
C5022 C4838 1.605 . S
C5017 C495 1.597 . S
C5032 C4321 1.604 . S
C5027 C535 1.596 . S
C5042 C4332 1.604 . S
C5037 C575 1.597 . S
C5047 C615 1.596 . S
C5052 C4299 1.604 . S
C5057 C655 1.596 . S
C5062 C4783 1.604 . S
C5072 C4233 1.604 . S
C5067 C695 1.597 . S
C5082 C4728 1.604 . S
C5077 C735 1.597 . S
C5092 C4211 1.604 . S
C5087 C775 1.596 . S
C5097 C815 1.598 . S
C5102 C4222 1.605 . S
C5112 C4805 1.605 . S
C5107 C855 1.598 . S
C5122 C4772 1.604 . S
C5117 C895 1.596 . S
C5127 C935 1.597 . S
C5132 C4794 1.605 . S
C5137 C975 1.604 . S
C5142 C3859 1.584 . S
C5147 C1015 1.603 . S
C5152 C4398 1.582 . S
C5162 C3881 1.582 . S
C5157 C1055 1.604 . S
C5167 C1095 1.602 . S
C5172 C4376 1.582 . S
C5182 C3925 1.583 . S
C5177 C1135 1.602 . S
C5187 C1175 1.603 . S
C5192 C4420 1.582 . S
C5202 C3903 1.583 . S
C5197 C1215 1.604 . S
C5212 C4442 1.582 . S
C5207 C1255 1.603 . S
C5217 C1295 1.603 . S
C5222 C4618 1.582 . S
C5232 C4552 1.583 . S
C5227 C1335 1.604 . S
C5237 C1375 1.603 . S
C5242 C4629 1.584 . S
C5252 C4607 1.583 . S
C5247 C1415 1.603 . S
C5262 C4574 1.584 . S
C5257 C1455 1.604 . S
C5267 C1495 1.604 . S
C5272 C4057 1.583 . S
C5277 C1535 1.603 . S
C5282 C4068 1.583 . S
C5292 C4035 1.582 . S
C5287 C1575 1.604 . S
C5297 C1615 1.604 . S
C5302 C4519 1.584 . S
C5312 C3969 1.584 . S
C5307 C1655 1.604 . S
C5317 C1695 1.602 . S
C5322 C4464 1.583 . S
C5332 C3947 1.584 . S
C5327 C1735 1.604 . S
C5337 C1775 1.604 . S
C5342 C3958 1.584 . S
C5352 C4541 1.581 . S
C5347 C1815 1.603 . S
C5362 C4508 1.584 . S
C5357 C1855 1.604 . S
C5372 C4530 1.581 . S
C5367 C1895 1.603 . S
C5377 C1935 1.598 . S
C5382 C4651 1.605 . S
C5392 C4134 1.605 . S
C5387 C1975 1.598 . S
C5402 C4673 1.604 . S
C5397 C2015 1.596 . S
C5412 C4112 1.604 . S
C5407 C2055 1.596 . S
C5417 C2095 1.598 . S
C5422 C4717 1.605 . S
C5432 C4156 1.604 . S
C5427 C2135 1.596 . S
C5442 C4695 1.605 . S
C5437 C2175 1.598 . S
C5452 C4178 1.606 . S
C5447 C2215 1.598 . S
C5457 C2255 1.597 . S
C5462 C4354 1.604 . S
C5472 C4288 1.603 . S
C5467 C2295 1.596 . S
C5482 C4365 1.604 . S
C5477 C2335 1.597 . S
C5487 C2375 1.596 . S
C5492 C4343 1.604 . S
C5497 C2415 1.597 . S
C5502 C4310 1.605 . S
C5507 C2455 1.596 . S
C5512 C4849 1.604 . S
C5517 C2495 1.598 . S
C5522 C4860 1.605 . S
C5532 C4827 1.605 . S
C5527 C2535 1.598 . S
C5537 C2575 1.597 . S
C5542 C4255 1.604 . S
C5552 C4761 1.605 . S
C5547 C2615 1.598 . S
C5562 C4200 1.603 . S
C5557 C2655 1.596 . S
C5572 C4739 1.605 . S
C5567 C2695 1.598 . S
C5577 C2735 1.598 . S
C5582 C4750 1.605 . S
C5587 C2775 1.598 . S
C5592 C4277 1.605 . S
C5602 C4244 1.604 . S
C5597 C2815 1.598 . S
C5607 C2855 1.598 . S
C5612 C4266 1.605 . S
C5617 C2895 1.604 . S
C5622 C4387 1.582 . S
C5632 C3870 1.583 . S
C5627 C2935 1.604 . S
C5642 C4409 1.583 . S
C5637 C2975 1.604 . S
C5647 C3015 1.602 . S
C5652 C3848 1.582 . S
C5662 C4453 1.582 . S
C5657 C3055 1.602 . S
C5672 C3892 1.584 . S
C5667 C3095 1.604 . S
C5677 C3135 1.602 . S
C5682 C4431 1.582 . S
C5687 C3175 1.603 . S
C5692 C3914 1.582 . S
C5702 C4090 1.584 . S
C5697 C3215 1.604 . S
C5707 C3255 1.604 . S
C5712 C4024 1.583 . S
C5722 C4101 1.582 . S
C5717 C3295 1.603 . S
C5732 C4079 1.584 . S
C5727 C3335 1.604 . S
C5737 C3375 1.604 . S
C5742 C4046 1.583 . S
C5747 C3415 1.604 . S
C5752 C4585 1.582 . S
C5762 C4596 1.582 . S
C5757 C3455 1.604 . S
C5767 C3495 1.604 . S
C5772 C4563 1.583 . S
C5782 C3991 1.582 . S
C5777 C3535 1.603 . S
C5792 C4497 1.582 . S
C5787 C3575 1.603 . S
C5797 C3615 1.604 . S
C5802 C3936 1.583 . S
C5807 C3655 1.603 . S
C5812 C4475 1.582 . S
C5817 C3695 1.603 . S
C5822 C4486 1.582 . S
C5827 C3735 1.602 . S
C5832 C4013 1.582 . S
C5837 C3775 1.603 . S
C5842 C3980 1.584 . S
C5852 C4002 1.583 . S
C5847 C3815 1.602 . S
C5862 C3944 1.288 . S
C5857 C2 1.674 . S
C5872 C3955 1.287 . S
C5867 C42 1.673 . S
C5877 C82 1.673 . S
C5882 C3966 1.288 . S
C5887 C122 1.673 . S
C5892 C3933 1.287 . S
C5897 C162 1.674 . S
C5902 C4010 1.293 . S
C5912 C3977 1.294 . S
C5907 C202 1.674 . S
C5922 C3988 1.293 . S
C5917 C242 1.674 . S
C5927 C282 1.673 . S
C5932 C3999 1.287 . S
C5937 C322 1.673 . S
C5942 C3878 1.292 . S
C5947 C362 1.673 . S
C5952 C3845 1.288 . S
C5957 C402 1.672 . S
C5962 C3856 1.289 . S
C5972 C3867 1.288 . S
C5967 C442 1.673 . S
C5977 C482 1.674 . S
C5982 C3900 1.288 . S
C5987 C522 1.673 . S
C5992 C3911 1.288 . S
C5997 C562 1.675 . S
C6002 C3922 1.294 . S
C6007 C602 1.673 . S
C6012 C3889 1.288 . S
C6022 C4043 1.287 . S
C6017 C642 1.672 . S
C6027 C682 1.673 . S
C6032 C4615 1.287 . S
C6042 C4021 1.287 . S
C6037 C722 1.672 . S
C6052 C4626 1.294 . S
C6047 C762 1.675 . S
C6057 C802 1.673 . S
C6062 C4604 1.287 . S
C6067 C842 1.674 . S
C6072 C4593 1.294 . S
C6082 C4560 1.290 . S
C6077 C882 1.672 . S
C6092 C4582 1.292 . S
C6087 C922 1.673 . S
C6102 C4208 1.770 . S
C6097 C962 1.794 . S
C6112 C4219 1.770 . S
C6107 C1002 1.794 . S
C6122 C4230 1.770 . S
C6117 C1042 1.794 . S
C6127 C1082 1.795 . S
C6132 C4197 1.769 . S
C6137 C1122 1.794 . S
C6142 C4274 1.769 . S
C6152 C4241 1.770 . S
C6147 C1162 1.794 . S
C6157 C1202 1.794 . S
C6162 C4252 1.770 . S
C6172 C4263 1.770 . S
C6167 C1242 1.795 . S
C6177 C1282 1.795 . S
C6182 C4142 1.769 . S
C6192 C4109 1.769 . S
C6187 C1322 1.794 . S
C6197 C1362 1.794 . S
C6202 C4120 1.771 . S
C6212 C4131 1.770 . S
C6207 C1402 1.795 . S
C6222 C4164 1.771 . S
C6217 C1442 1.793 . S
C6227 C1482 1.794 . S
C6232 C4175 1.770 . S
C6242 C4186 1.770 . S
C6237 C1522 1.793 . S
C6252 C4153 1.770 . S
C6247 C1562 1.795 . S
C6262 C4307 1.769 . S
C6257 C1602 1.795 . S
C6272 C4879 1.769 . S
C6267 C1642 1.795 . S
C6282 C4285 1.768 . S
C6277 C1682 1.795 . S
C6287 C1722 1.794 . S
C6292 C4890 1.770 . S
C6297 C1762 1.795 . S
C6302 C4868 1.769 . S
C6312 C4857 1.770 . S
C6307 C1802 1.794 . S
C6322 C4824 1.769 . S
C6317 C1842 1.795 . S
C6332 C4846 1.770 . S
C6327 C1882 1.794 . S
C6337 C1922 1.674 . S
C6342 C4472 1.294 . S
C6352 C4483 1.287 . S
C6347 C1962 1.673 . S
C6357 C2002 1.674 . S
C6362 C4494 1.294 . S
C6372 C4461 1.293 . S
C6367 C2042 1.674 . S
C6377 C2082 1.674 . S
C6382 C4538 1.289 . S
C6387 C2122 1.673 . S
C6392 C4505 1.288 . S
C6397 C2162 1.674 . S
C6402 C4516 1.293 . S
C6407 C2202 1.673 . S
C6412 C4527 1.287 . S
C6417 C2242 1.672 . S
C6422 C4406 1.287 . S
C6432 C4373 1.293 . S
C6427 C2282 1.674 . S
C6442 C4384 1.288 . S
C6437 C2322 1.672 . S
C6447 C2362 1.673 . S
C6452 C4395 1.287 . S
C6457 C2402 1.672 . S
C6462 C4428 1.287 . S
C6467 C2442 1.673 . S
C6472 C4439 1.288 . S
C6477 C2482 1.674 . S
C6482 C4450 1.293 . S
C6487 C2522 1.674 . S
C6492 C4417 1.293 . S
C6502 C4571 1.287 . S
C6497 C2562 1.673 . S
C6512 C4087 1.294 . S
C6507 C2602 1.675 . S
C6522 C4549 1.287 . S
C6517 C2642 1.673 . S
C6532 C4098 1.294 . S
C6527 C2682 1.674 . S
C6542 C4076 1.294 . S
C6537 C2722 1.675 . S
C6552 C4065 1.288 . S
C6547 C2762 1.673 . S
C6557 C2802 1.672 . S
C6562 C4032 1.289 . S
C6572 C4054 1.288 . S
C6567 C2842 1.674 . S
C6577 C2882 1.794 . S
C6582 C4736 1.770 . S
C6587 C2922 1.795 . S
C6592 C4747 1.769 . S
C6602 C4758 1.769 . S
C6597 C2962 1.795 . S
C6607 C3002 1.795 . S
C6612 C4725 1.769 . S
C6622 C4802 1.769 . S
C6617 C3042 1.794 . S
C6627 C3082 1.795 . S
C6632 C4769 1.770 . S
C6637 C3122 1.794 . S
C6642 C4780 1.770 . S
C6652 C4791 1.770 . S
C6647 C3162 1.795 . S
C6662 C4670 1.770 . S
C6657 C3202 1.795 . S
C6672 C4637 1.769 . S
C6667 C3242 1.794 . S
C6682 C4648 1.768 . S
C6677 C3282 1.795 . S
C6692 C4659 1.770 . S
C6687 C3322 1.794 . S
C6697 C3362 1.794 . S
C6702 C4692 1.770 . S
C6712 C4703 1.770 . S
C6707 C3402 1.794 . S
C6717 C3442 1.794 . S
C6722 C4714 1.770 . S
C6727 C3482 1.795 . S
C6732 C4681 1.769 . S
C6737 C3522 1.794 . S
C6742 C4835 1.770 . S
C6747 C3562 1.794 . S
C6752 C4351 1.770 . S
C6757 C3602 1.794 . S
C6762 C4813 1.769 . S
C6772 C4362 1.770 . S
C6767 C3642 1.794 . S
C6777 C3682 1.794 . S
C6782 C4340 1.770 . S
C6787 C3722 1.794 . S
C6792 C4329 1.770 . S
C6797 C3762 1.794 . S
C6802 C4296 1.770 . S
C6812 C4318 1.769 . S
C6807 C3802 1.795 . S
C6817 C21 1.705 . S
C6822 C3847 1.650 . S
C6827 C61 1.706 . S
C6832 C3858 1.652 . S
C6837 C101 1.705 . S
C6842 C3869 1.650 . S
C6852 C3880 1.652 . S
C6847 C141 1.706 . S
C6862 C3891 1.650 . S
C6857 C181 1.704 . S
C6867 C221 1.706 . S
C6872 C3902 1.651 . S
C6877 C261 1.704 . S
C6882 C3913 1.649 . S
C6887 C301 1.703 . S
C6892 C3924 1.648 . S
C6902 C3935 1.652 . S
C6897 C341 1.706 . S
C6912 C3946 1.650 . S
C6907 C381 1.704 . S
C6917 C421 1.704 . S
C6922 C3957 1.649 . S
C6932 C3968 1.649 . S
C6927 C461 1.703 . S
C6937 C501 1.704 . S
C6942 C3979 1.651 . S
C6947 C541 1.704 . S
C6952 C3990 1.650 . S
C6957 C581 1.704 . S
C6962 C4001 1.649 . S
C6967 C621 1.705 . S
C6972 C4012 1.651 . S
C6977 C661 1.706 . S
C6982 C4023 1.652 . S
C6987 C701 1.704 . S
C6992 C4034 1.650 . S
C7002 C4045 1.651 . S
C6997 C741 1.705 . S
C7012 C4056 1.650 . S
C7007 C781 1.705 . S
C7022 C4067 1.651 . S
C7017 C821 1.705 . S
C7032 C4078 1.652 . S
C7027 C861 1.706 . S
C7037 C901 1.706 . S
C7042 C4089 1.652 . S
C7052 C4100 1.651 . S
C7047 C941 1.704 . S
C7057 C981 1.843 . S
C7062 C4111 1.829 . S
C7067 C1021 1.843 . S
C7072 C4122 1.830 . S
C7077 C1061 1.842 . S
C7082 C4133 1.828 . S
C7092 C4144 1.828 . S
C7087 C1101 1.842 . S
C7097 C1141 1.843 . S
C7102 C4155 1.829 . S
C7112 C4166 1.829 . S
C7107 C1181 1.842 . S
C7117 C1221 1.842 . S
C7122 C4177 1.828 . S
C7127 C1261 1.844 . S
C7132 C4188 1.830 . S
C7142 C4199 1.829 . S
C7137 C1301 1.843 . S
C7147 C1341 1.843 . S
C7152 C4210 1.829 . S
C7162 C4221 1.828 . S
C7157 C1381 1.843 . S
C7167 C1421 1.843 . S
C7172 C4232 1.829 . S
C7182 C4243 1.829 . S
C7177 C1461 1.843 . S
C7192 C4254 1.828 . S
C7187 C1501 1.842 . S
C7202 C4265 1.828 . S
C7197 C1541 1.842 . S
C7207 C1581 1.842 . S
C7212 C4276 1.828 . S
C7217 C1621 1.844 . S
C7222 C4287 1.830 . S
C7227 C1661 1.842 . S
C7232 C4298 1.828 . S
C7237 C1701 1.843 . S
C7242 C4309 1.828 . S
C7247 C1741 1.843 . S
C7252 C4320 1.829 . S
C7257 C1781 1.842 . S
C7262 C4331 1.828 . S
C7272 C4342 1.827 . S
C7267 C1821 1.842 . S
C7277 C1861 1.842 . S
C7282 C4353 1.828 . S
C7292 C4364 1.829 . S
C7287 C1901 1.843 . S
C7297 C1941 1.706 . S
C7302 C4375 1.651 . S
C7312 C4386 1.650 . S
C7307 C1981 1.704 . S
C7322 C4397 1.650 . S
C7317 C2021 1.704 . S
C7332 C4408 1.649 . S
C7327 C2061 1.703 . S
C7337 C2101 1.706 . S
C7342 C4419 1.652 . S
C7347 C2141 1.704 . S
C7352 C4430 1.649 . S
C7362 C4441 1.650 . S
C7357 C2181 1.704 . S
C7372 C4452 1.651 . S
C7367 C2221 1.705 . S
C7377 C2261 1.705 . S
C7382 C4463 1.651 . S
C7387 C2301 1.704 . S
C7392 C4474 1.649 . S
C7397 C2341 1.703 . S
C7402 C4485 1.649 . S
C7407 C2381 1.704 . S
C7412 C4496 1.649 . S
C7417 C2421 1.704 . S
C7422 C4507 1.651 . S
C7432 C4518 1.649 . S
C7427 C2461 1.704 . S
C7442 C4529 1.649 . S
C7437 C2501 1.704 . S
C7452 C4540 1.651 . S
C7447 C2541 1.705 . S
C7462 C4551 1.649 . S
C7457 C2581 1.704 . S
C7467 C2621 1.706 . S
C7472 C4562 1.651 . S
C7477 C2661 1.704 . S
C7482 C4573 1.649 . S
C7492 C4584 1.652 . S
C7487 C2701 1.706 . S
C7497 C2741 1.705 . S
C7502 C4595 1.651 . S
C7512 C4606 1.651 . S
C7507 C2781 1.705 . S
C7522 C4617 1.651 . S
C7517 C2821 1.704 . S
C7532 C4628 1.649 . S
C7527 C2861 1.704 . S
C7537 C2901 1.844 . S
C7542 C4639 1.830 . S
C7547 C2941 1.843 . S
C7552 C4650 1.829 . S
C7557 C2981 1.843 . S
C7562 C4661 1.829 . S
C7567 C3021 1.841 . S
C7572 C4672 1.827 . S
C7582 C4683 1.829 . S
C7577 C3061 1.843 . S
C7592 C4694 1.828 . S
C7587 C3101 1.842 . S
C7602 C4705 1.829 . S
C7597 C3141 1.843 . S
C7607 C3181 1.843 . S
C7612 C4716 1.829 . S
C7617 C3221 1.843 . S
C7622 C4727 1.829 . S
C7632 C4738 1.828 . S
C7627 C3261 1.842 . S
C7642 C4749 1.829 . S
C7637 C3301 1.843 . S
C7652 C4760 1.830 . S
C7647 C3341 1.843 . S
C7662 C4771 1.829 . S
C7657 C3381 1.843 . S
C7672 C4782 1.828 . S
C7667 C3421 1.843 . S
C7682 C4793 1.828 . S
C7677 C3461 1.842 . S
C7692 C4804 1.829 . S
C7687 C3501 1.843 . S
C7702 C4815 1.828 . S
C7697 C3541 1.842 . S
C7712 C4826 1.829 . S
C7707 C3581 1.843 . S
C7722 C4837 1.829 . S
C7717 C3621 1.842 . S
C7727 C3661 1.843 . S
C7732 C4848 1.829 . S
C7742 C4859 1.829 . S
C7737 C3701 1.843 . S
C7747 C3741 1.842 . S
C7752 C4870 1.828 . S
C7762 C4881 1.828 . S
C7757 C3781 1.842 . S
C7772 C4892 1.829 . S
C7767 C3821 1.842 . S
