# Generated by pormake.
# Topology gar, (4,6)-cn, num edge types: 1
# Building blocks:
#     Node 0, Type 0, BuildingBlock: GALJAG_clean_sbu_0, # of connection points: 4
#     Node 1, Type 0, BuildingBlock: GALJAG_clean_sbu_0, # of connection points: 4
#     Node 2, Type 0, BuildingBlock: GALJAG_clean_sbu_0, # of connection points: 4
#     Node 3, Type 0, BuildingBlock: GALJAG_clean_sbu_0, # of connection points: 4
#     Node 4, Type 0, BuildingBlock: GALJAG_clean_sbu_0, # of connection points: 4
#     Node 5, Type 0, BuildingBlock: GALJAG_clean_sbu_0, # of connection points: 4
#     Node 6, Type 0, BuildingBlock: GALJAG_clean_sbu_0, # of connection points: 4
#     Node 7, Type 0, BuildingBlock: GALJAG_clean_sbu_0, # of connection points: 4
#     Node 8, Type 0, BuildingBlock: GALJAG_clean_sbu_0, # of connection points: 4
#     Node 9, Type 0, BuildingBlock: GALJAG_clean_sbu_0, # of connection points: 4
#     Node 10, Type 0, BuildingBlock: GALJAG_clean_sbu_0, # of connection points: 4
#     Node 11, Type 0, BuildingBlock: GALJAG_clean_sbu_0, # of connection points: 4
#     Node 12, Type 0, BuildingBlock: GALJAG_clean_sbu_0, # of connection points: 4
#     Node 13, Type 0, BuildingBlock: GALJAG_clean_sbu_0, # of connection points: 4
#     Node 14, Type 0, BuildingBlock: GALJAG_clean_sbu_0, # of connection points: 4
#     Node 15, Type 0, BuildingBlock: GALJAG_clean_sbu_0, # of connection points: 4
#     Node 16, Type 0, BuildingBlock: GALJAG_clean_sbu_0, # of connection points: 4
#     Node 17, Type 0, BuildingBlock: GALJAG_clean_sbu_0, # of connection points: 4
#     Node 18, Type 0, BuildingBlock: GALJAG_clean_sbu_0, # of connection points: 4
#     Node 19, Type 0, BuildingBlock: GALJAG_clean_sbu_0, # of connection points: 4
#     Node 20, Type 0, BuildingBlock: GALJAG_clean_sbu_0, # of connection points: 4
#     Node 21, Type 0, BuildingBlock: GALJAG_clean_sbu_0, # of connection points: 4
#     Node 22, Type 0, BuildingBlock: GALJAG_clean_sbu_0, # of connection points: 4
#     Node 23, Type 0, BuildingBlock: GALJAG_clean_sbu_0, # of connection points: 4
#     Node 24, Type 1, BuildingBlock: KUMJIN_clean_sbu_0, # of connection points: 6
#     Node 25, Type 1, BuildingBlock: KUMJIN_clean_sbu_0, # of connection points: 6
#     Node 26, Type 1, BuildingBlock: KUMJIN_clean_sbu_0, # of connection points: 6
#     Node 27, Type 1, BuildingBlock: KUMJIN_clean_sbu_0, # of connection points: 6
#     Node 28, Type 1, BuildingBlock: KUMJIN_clean_sbu_0, # of connection points: 6
#     Node 29, Type 1, BuildingBlock: KUMJIN_clean_sbu_0, # of connection points: 6
#     Node 30, Type 1, BuildingBlock: KUMJIN_clean_sbu_0, # of connection points: 6
#     Node 31, Type 1, BuildingBlock: KUMJIN_clean_sbu_0, # of connection points: 6
#     Node 32, Type 1, BuildingBlock: KUMJIN_clean_sbu_0, # of connection points: 6
#     Node 33, Type 1, BuildingBlock: KUMJIN_clean_sbu_0, # of connection points: 6
#     Node 34, Type 1, BuildingBlock: KUMJIN_clean_sbu_0, # of connection points: 6
#     Node 35, Type 1, BuildingBlock: KUMJIN_clean_sbu_0, # of connection points: 6
#     Node 36, Type 1, BuildingBlock: KUMJIN_clean_sbu_0, # of connection points: 6
#     Node 37, Type 1, BuildingBlock: KUMJIN_clean_sbu_0, # of connection points: 6
#     Node 38, Type 1, BuildingBlock: KUMJIN_clean_sbu_0, # of connection points: 6
#     Node 39, Type 1, BuildingBlock: KUMJIN_clean_sbu_0, # of connection points: 6
#     Edge 40, Type (0, 1), BuildingBlock: XIVTED_clean_linker_0, # of connection points: 2
#     Edge 41, Type (0, 1), BuildingBlock: XIVTED_clean_linker_0, # of connection points: 2
#     Edge 42, Type (0, 1), BuildingBlock: XIVTED_clean_linker_0, # of connection points: 2
#     Edge 43, Type (0, 1), BuildingBlock: XIVTED_clean_linker_0, # of connection points: 2
#     Edge 44, Type (0, 1), BuildingBlock: XIVTED_clean_linker_0, # of connection points: 2
#     Edge 45, Type (0, 1), BuildingBlock: XIVTED_clean_linker_0, # of connection points: 2
#     Edge 46, Type (0, 1), BuildingBlock: XIVTED_clean_linker_0, # of connection points: 2
#     Edge 47, Type (0, 1), BuildingBlock: XIVTED_clean_linker_0, # of connection points: 2
#     Edge 48, Type (0, 1), BuildingBlock: XIVTED_clean_linker_0, # of connection points: 2
#     Edge 49, Type (0, 1), BuildingBlock: XIVTED_clean_linker_0, # of connection points: 2
#     Edge 50, Type (0, 1), BuildingBlock: XIVTED_clean_linker_0, # of connection points: 2
#     Edge 51, Type (0, 1), BuildingBlock: XIVTED_clean_linker_0, # of connection points: 2
#     Edge 52, Type (0, 1), BuildingBlock: XIVTED_clean_linker_0, # of connection points: 2
#     Edge 53, Type (0, 1), BuildingBlock: XIVTED_clean_linker_0, # of connection points: 2
#     Edge 54, Type (0, 1), BuildingBlock: XIVTED_clean_linker_0, # of connection points: 2
#     Edge 55, Type (0, 1), BuildingBlock: XIVTED_clean_linker_0, # of connection points: 2
#     Edge 56, Type (0, 1), BuildingBlock: XIVTED_clean_linker_0, # of connection points: 2
#     Edge 57, Type (0, 1), BuildingBlock: XIVTED_clean_linker_0, # of connection points: 2
#     Edge 58, Type (0, 1), BuildingBlock: XIVTED_clean_linker_0, # of connection points: 2
#     Edge 59, Type (0, 1), BuildingBlock: XIVTED_clean_linker_0, # of connection points: 2
#     Edge 60, Type (0, 1), BuildingBlock: XIVTED_clean_linker_0, # of connection points: 2
#     Edge 61, Type (0, 1), BuildingBlock: XIVTED_clean_linker_0, # of connection points: 2
#     Edge 62, Type (0, 1), BuildingBlock: XIVTED_clean_linker_0, # of connection points: 2
#     Edge 63, Type (0, 1), BuildingBlock: XIVTED_clean_linker_0, # of connection points: 2
#     Edge 64, Type (0, 1), BuildingBlock: XIVTED_clean_linker_0, # of connection points: 2
#     Edge 65, Type (0, 1), BuildingBlock: XIVTED_clean_linker_0, # of connection points: 2
#     Edge 66, Type (0, 1), BuildingBlock: XIVTED_clean_linker_0, # of connection points: 2
#     Edge 67, Type (0, 1), BuildingBlock: XIVTED_clean_linker_0, # of connection points: 2
#     Edge 68, Type (0, 1), BuildingBlock: XIVTED_clean_linker_0, # of connection points: 2
#     Edge 69, Type (0, 1), BuildingBlock: XIVTED_clean_linker_0, # of connection points: 2
#     Edge 70, Type (0, 1), BuildingBlock: XIVTED_clean_linker_0, # of connection points: 2
#     Edge 71, Type (0, 1), BuildingBlock: XIVTED_clean_linker_0, # of connection points: 2
#     Edge 72, Type (0, 1), BuildingBlock: XIVTED_clean_linker_0, # of connection points: 2
#     Edge 73, Type (0, 1), BuildingBlock: XIVTED_clean_linker_0, # of connection points: 2
#     Edge 74, Type (0, 1), BuildingBlock: XIVTED_clean_linker_0, # of connection points: 2
#     Edge 75, Type (0, 1), BuildingBlock: XIVTED_clean_linker_0, # of connection points: 2
#     Edge 76, Type (0, 1), BuildingBlock: XIVTED_clean_linker_0, # of connection points: 2
#     Edge 77, Type (0, 1), BuildingBlock: XIVTED_clean_linker_0, # of connection points: 2
#     Edge 78, Type (0, 1), BuildingBlock: XIVTED_clean_linker_0, # of connection points: 2
#     Edge 79, Type (0, 1), BuildingBlock: XIVTED_clean_linker_0, # of connection points: 2
#     Edge 80, Type (0, 1), BuildingBlock: XIVTED_clean_linker_0, # of connection points: 2
#     Edge 81, Type (0, 1), BuildingBlock: XIVTED_clean_linker_0, # of connection points: 2
#     Edge 82, Type (0, 1), BuildingBlock: XIVTED_clean_linker_0, # of connection points: 2
#     Edge 83, Type (0, 1), BuildingBlock: XIVTED_clean_linker_0, # of connection points: 2
#     Edge 84, Type (0, 1), BuildingBlock: XIVTED_clean_linker_0, # of connection points: 2
#     Edge 85, Type (0, 1), BuildingBlock: XIVTED_clean_linker_0, # of connection points: 2
#     Edge 86, Type (0, 1), BuildingBlock: XIVTED_clean_linker_0, # of connection points: 2
#     Edge 87, Type (0, 1), BuildingBlock: XIVTED_clean_linker_0, # of connection points: 2
#     Edge 88, Type (0, 1), BuildingBlock: XIVTED_clean_linker_0, # of connection points: 2
#     Edge 89, Type (0, 1), BuildingBlock: XIVTED_clean_linker_0, # of connection points: 2
#     Edge 90, Type (0, 1), BuildingBlock: XIVTED_clean_linker_0, # of connection points: 2
#     Edge 91, Type (0, 1), BuildingBlock: XIVTED_clean_linker_0, # of connection points: 2
#     Edge 92, Type (0, 1), BuildingBlock: XIVTED_clean_linker_0, # of connection points: 2
#     Edge 93, Type (0, 1), BuildingBlock: XIVTED_clean_linker_0, # of connection points: 2
#     Edge 94, Type (0, 1), BuildingBlock: XIVTED_clean_linker_0, # of connection points: 2
#     Edge 95, Type (0, 1), BuildingBlock: XIVTED_clean_linker_0, # of connection points: 2
#     Edge 96, Type (0, 1), BuildingBlock: XIVTED_clean_linker_0, # of connection points: 2
#     Edge 97, Type (0, 1), BuildingBlock: XIVTED_clean_linker_0, # of connection points: 2
#     Edge 98, Type (0, 1), BuildingBlock: XIVTED_clean_linker_0, # of connection points: 2
#     Edge 99, Type (0, 1), BuildingBlock: XIVTED_clean_linker_0, # of connection points: 2
#     Edge 100, Type (0, 1), BuildingBlock: XIVTED_clean_linker_0, # of connection points: 2
#     Edge 101, Type (0, 1), BuildingBlock: XIVTED_clean_linker_0, # of connection points: 2
#     Edge 102, Type (0, 1), BuildingBlock: XIVTED_clean_linker_0, # of connection points: 2
#     Edge 103, Type (0, 1), BuildingBlock: XIVTED_clean_linker_0, # of connection points: 2
#     Edge 104, Type (0, 1), BuildingBlock: XIVTED_clean_linker_0, # of connection points: 2
#     Edge 105, Type (0, 1), BuildingBlock: XIVTED_clean_linker_0, # of connection points: 2
#     Edge 106, Type (0, 1), BuildingBlock: XIVTED_clean_linker_0, # of connection points: 2
#     Edge 107, Type (0, 1), BuildingBlock: XIVTED_clean_linker_0, # of connection points: 2
#     Edge 108, Type (0, 1), BuildingBlock: XIVTED_clean_linker_0, # of connection points: 2
#     Edge 109, Type (0, 1), BuildingBlock: XIVTED_clean_linker_0, # of connection points: 2
#     Edge 110, Type (0, 1), BuildingBlock: XIVTED_clean_linker_0, # of connection points: 2
#     Edge 111, Type (0, 1), BuildingBlock: XIVTED_clean_linker_0, # of connection points: 2
#     Edge 112, Type (0, 1), BuildingBlock: XIVTED_clean_linker_0, # of connection points: 2
#     Edge 113, Type (0, 1), BuildingBlock: XIVTED_clean_linker_0, # of connection points: 2
#     Edge 114, Type (0, 1), BuildingBlock: XIVTED_clean_linker_0, # of connection points: 2
#     Edge 115, Type (0, 1), BuildingBlock: XIVTED_clean_linker_0, # of connection points: 2
#     Edge 116, Type (0, 1), BuildingBlock: XIVTED_clean_linker_0, # of connection points: 2
#     Edge 117, Type (0, 1), BuildingBlock: XIVTED_clean_linker_0, # of connection points: 2
#     Edge 118, Type (0, 1), BuildingBlock: XIVTED_clean_linker_0, # of connection points: 2
#     Edge 119, Type (0, 1), BuildingBlock: XIVTED_clean_linker_0, # of connection points: 2
#     Edge 120, Type (0, 1), BuildingBlock: XIVTED_clean_linker_0, # of connection points: 2
#     Edge 121, Type (0, 1), BuildingBlock: XIVTED_clean_linker_0, # of connection points: 2
#     Edge 122, Type (0, 1), BuildingBlock: XIVTED_clean_linker_0, # of connection points: 2
#     Edge 123, Type (0, 1), BuildingBlock: XIVTED_clean_linker_0, # of connection points: 2
#     Edge 124, Type (0, 1), BuildingBlock: XIVTED_clean_linker_0, # of connection points: 2
#     Edge 125, Type (0, 1), BuildingBlock: XIVTED_clean_linker_0, # of connection points: 2
#     Edge 126, Type (0, 1), BuildingBlock: XIVTED_clean_linker_0, # of connection points: 2
#     Edge 127, Type (0, 1), BuildingBlock: XIVTED_clean_linker_0, # of connection points: 2
#     Edge 128, Type (0, 1), BuildingBlock: XIVTED_clean_linker_0, # of connection points: 2
#     Edge 129, Type (0, 1), BuildingBlock: XIVTED_clean_linker_0, # of connection points: 2
#     Edge 130, Type (0, 1), BuildingBlock: XIVTED_clean_linker_0, # of connection points: 2
#     Edge 131, Type (0, 1), BuildingBlock: XIVTED_clean_linker_0, # of connection points: 2
#     Edge 132, Type (0, 1), BuildingBlock: XIVTED_clean_linker_0, # of connection points: 2
#     Edge 133, Type (0, 1), BuildingBlock: XIVTED_clean_linker_0, # of connection points: 2
#     Edge 134, Type (0, 1), BuildingBlock: XIVTED_clean_linker_0, # of connection points: 2
#     Edge 135, Type (0, 1), BuildingBlock: XIVTED_clean_linker_0, # of connection points: 2
# Relax obj value: 0.136
# Max RMSD: 0.324
# Mean RMSD: 0.168
data_MOF--net-gar--node1-GALJAG_clean_sbu_0--node2-KUMJIN_clean_sbu_0--edge1-XIVTED_clean_linker_0
_symmetry_space_group_name_H-M    P1
_symmetry_Int_Tables_number       1
_symmetry_cell_setting            triclinic
loop_
_symmetry_equiv_pos_as_xyz
'x, y, z'
_cell_length_a     61.878681
_cell_length_b     56.562913
_cell_length_c     56.630903
_cell_angle_alpha  100.13382
_cell_angle_beta   93.557746
_cell_angle_gamma 101.80415
loop_
_atom_site_label
_atom_site_type_symbol
_atom_site_fract_x
_atom_site_fract_y
_atom_site_fract_z
_atom_type_partial_charge
In0 In 0.11711 0.33145 0.39563 0.0
O1 O 0.12764 0.31818 0.36003 0.0
O2 O 0.15306 0.33629 0.38862 0.0
C3 C 0.0757 0.32778 0.3775 0.0
C4 C 0.11596 0.29601 0.42102 0.0
C5 C 0.12581 0.37968 0.41146 0.0
O6 O 0.09098 0.32368 0.3648 0.0
O7 O 0.08082 0.33196 0.39998 0.0
O8 O 0.1291 0.36517 0.42522 0.0
O9 O 0.11982 0.36982 0.38972 0.0
C10 C 0.14802 0.32585 0.36674 0.0
O11 O 0.11765 0.3182 0.43083 0.0
O12 O 0.11494 0.29175 0.39836 0.0
In13 In 1.00204 0.75617 0.66403 0.0
O14 O 1.00189 0.77076 0.62975 0.0
O15 O 0.01333 0.79646 0.66282 0.0
C16 C 0.98496 0.70971 0.64283 0.0
C17 C 0.04424 0.75886 0.67887 0.0
C18 C 0.96847 0.763 0.68909 0.0
O19 O 0.98484 0.72757 0.63232 0.0
O20 O 0.99409 0.71533 0.66421 0.0
O21 O 0.98527 0.75745 0.69861 0.0
O22 O 0.96939 0.76609 0.6677 0.0
C23 C 0.00947 0.79281 0.64018 0.0
O24 O 0.0311 0.7672 0.69263 0.0
O25 O 0.03585 0.74849 0.65779 0.0
In26 In 0.61979 0.83338 0.89531 0.0
O27 O 0.63163 0.82505 0.85949 0.0
O28 O 0.65577 0.83609 0.89056 0.0
C29 C 0.5785 0.82899 0.87628 0.0
C30 C 0.61585 0.79571 0.9177 0.0
C31 C 0.63057 0.88104 0.91423 0.0
O32 O 0.5944 0.82729 0.86373 0.0
O33 O 0.58312 0.83163 0.89869 0.0
O34 O 0.63294 0.86509 0.92664 0.0
O35 O 0.62372 0.87273 0.89239 0.0
C36 C 0.65173 0.82997 0.86786 0.0
O37 O 0.61325 0.81655 0.92765 0.0
O38 O 0.62127 0.79395 0.8965 0.0
In39 In 0.5025 0.2578 0.16645 0.0
O40 O 0.48745 0.22487 0.1378 0.0
O41 O 0.49997 0.21878 0.17173 0.0
C42 C 0.50944 0.29353 0.14153 0.0
C43 C 0.46742 0.26373 0.18894 0.0
C44 C 0.54508 0.26291 0.18038 0.0
O45 O 0.50132 0.27142 0.13151 0.0
O46 O 0.51354 0.2976 0.16417 0.0
O47 O 0.53192 0.27067 0.19459 0.0
O48 O 0.53654 0.25226 0.1594 0.0
C49 C 0.49085 0.20963 0.15066 0.0
O50 O 0.48518 0.26253 0.20049 0.0
O51 O 0.46797 0.26277 0.16663 0.0
In52 In 0.09868 0.81412 0.11606 0.0
O53 O 0.10372 0.77992 0.08717 0.0
O54 O 0.08076 0.77385 0.11251 0.0
C55 C 0.09894 0.85525 0.09455 0.0
C56 C 0.06235 0.81379 0.14065 0.0
C57 C 0.13684 0.82019 0.14682 0.0
O58 O 0.08991 0.83354 0.08388 0.0
O59 O 0.1089 0.85585 0.11482 0.0
O60 O 0.1193 0.82632 0.15329 0.0
O61 O 0.13573 0.81187 0.12437 0.0
C62 C 0.08998 0.7642 0.09535 0.0
O63 O 0.08122 0.81326 0.15007 0.0
O64 O 0.0617 0.81524 0.11863 0.0
In65 In 0.51861 0.76879 0.43477 0.0
O66 O 0.53773 0.76937 0.40061 0.0
O67 O 0.55665 0.77285 0.43384 0.0
C68 C 0.47646 0.76746 0.41233 0.0
C69 C 0.52104 0.72862 0.45675 0.0
C70 C 0.52569 0.81646 0.45952 0.0
O71 O 0.49059 0.75729 0.40176 0.0
O72 O 0.48284 0.77641 0.43425 0.0
O73 O 0.51912 0.79815 0.46931 0.0
O74 O 0.52944 0.81067 0.43783 0.0
C75 C 0.5568 0.77178 0.41143 0.0
O76 O 0.52381 0.75048 0.4682 0.0
O77 O 0.51541 0.72659 0.43452 0.0
In78 In 0.5983 0.31465 0.61723 0.0
O79 O 0.60289 0.28085 0.58795 0.0
O80 O 0.58245 0.27418 0.61556 0.0
C81 C 0.59756 0.35532 0.59529 0.0
C82 C 0.56089 0.31496 0.63992 0.0
C83 C 0.63662 0.31949 0.64759 0.0
O84 O 0.58949 0.33342 0.58455 0.0
O85 O 0.60717 0.35639 0.61587 0.0
O86 O 0.61825 0.3224 0.65471 0.0
O87 O 0.63618 0.31483 0.62481 0.0
C88 C 0.5905 0.2649 0.59723 0.0
O89 O 0.58016 0.3212 0.65094 0.0
O90 O 0.56042 0.30904 0.6173 0.0
In91 In 0.01926 0.26947 0.93639 0.0
O92 O 0.02521 0.25046 0.9695 0.0
O93 O 0.01716 0.22765 0.9353 0.0
C94 C 0.02554 0.31622 0.9632 0.0
C95 C 0.05779 0.27231 0.91396 0.0
C96 C 0.97846 0.26942 0.91146 0.0
O97 O 0.01204 0.29809 0.96802 0.0
O98 O 0.03607 0.31073 0.94541 0.0
O99 O 0.99599 0.26854 0.9013 0.0
O100 O 0.98113 0.26904 0.93364 0.0
C101 C 0.02273 0.22895 0.95737 0.0
O102 O 0.03902 0.26076 0.90321 0.0
O103 O 0.05692 0.28263 0.93544 0.0
In104 In 0.42641 0.0438 0.31505 0.0
O105 O 0.45089 0.05716 0.29045 0.0
O106 O 0.41973 0.03344 0.27492 0.0
C107 C 0.45323 0.04912 0.35303 0.0
C108 C 0.40228 0.07673 0.31572 0.0
C109 C 0.40781 0.99793 0.31511 0.0
O110 O 0.45927 0.04371 0.33228 0.0
O111 O 0.43442 0.05421 0.35426 0.0
O112 O 0.40174 0.01565 0.32765 0.0
O113 O 0.42377 1.00347 0.30287 0.0
C114 C 0.43828 0.04595 0.27165 0.0
O115 O 0.3939 0.05414 0.31384 0.0
O116 O 0.42317 0.08289 0.31889 0.0
In117 In 0.29612 0.19779 0.51122 0.0
O118 O 0.29363 0.23114 0.54157 0.0
O119 O 0.30664 0.20187 0.55104 0.0
C120 C 0.29843 0.21531 0.46939 0.0
C121 C 0.32993 0.17472 0.51311 0.0
C122 C 0.25463 0.16874 0.50512 0.0
O123 O 0.30709 0.22893 0.48933 0.0
O124 O 0.28862 0.19401 0.47111 0.0
O125 O 0.2709 0.16178 0.49605 0.0
O126 O 0.25916 0.19042 0.51735 0.0
C127 C 0.30148 0.22211 0.55833 0.0
O128 O 0.31045 0.16549 0.51692 0.0
O129 O 0.33258 0.1957 0.5075 0.0
In130 In 0.18177 0.01458 0.7764 0.0
O131 O 0.15016 0.01893 0.75014 0.0
O132 O 0.17514 1.00709 0.73221 0.0
C133 C 0.16015 0.01712 0.82195 0.0
C134 C 0.2069 0.97453 0.7739 0.0
C135 C 0.20817 0.06319 0.78067 0.0
O136 O 0.15347 1.00069 0.80304 0.0
O137 O 0.17747 0.0317 0.81814 0.0
O138 O 0.2161 0.04484 0.78367 0.0
O139 O 0.18737 0.05719 0.77588 0.0
C140 C 0.15686 0.01361 0.72956 0.0
O141 O 0.21524 0.99716 0.77469 0.0
O142 O 0.18597 0.97174 0.77417 0.0
In143 In 0.32969 0.93584 0.01604 0.0
O144 O 0.32504 0.90306 0.03369 0.0
O145 O 0.31718 0.93626 0.05199 0.0
C146 C 0.33169 0.91973 0.97021 0.0
C147 C 0.30181 0.96394 0.01201 0.0
C148 C 0.37149 0.95151 0.03294 0.0
O149 O 0.31801 0.90829 0.98226 0.0
O150 O 0.34449 0.9393 0.98137 0.0
O151 O 0.35766 0.96512 0.03578 0.0
O152 O 0.36391 0.92965 0.02191 0.0
C153 C 0.31964 0.91488 0.05268 0.0
O154 O 0.32238 0.97256 0.01737 0.0
O155 O 0.29545 0.94075 0.00758 0.0
In156 In 0.32579 0.3917 0.03973 0.0
O157 O 0.32797 0.3594 0.05869 0.0
O158 O 0.31398 0.38817 0.07649 0.0
C159 C 0.32432 0.3674 0.99362 0.0
C160 C 0.28953 0.41179 0.04002 0.0
C161 C 0.36803 0.42053 0.04634 0.0
O162 O 0.31828 0.35599 0.01017 0.0
O163 O 0.33043 0.39035 1.0004 0.0
O164 O 0.35138 0.42686 0.03753 0.0
O165 O 0.36335 0.40014 0.05315 0.0
C166 C 0.31863 0.36751 0.07667 0.0
O167 O 0.3085 0.42372 0.04966 0.0
O168 O 0.28889 0.38987 0.02994 0.0
In169 In 0.78513 0.13638 0.03471 0.0
O170 O 0.80505 0.10804 0.04047 0.0
O171 O 0.8216 0.14454 0.0377 0.0
C172 C 0.74272 0.11731 0.03411 0.0
C173 C 0.78513 0.16814 0.07457 0.0
C174 C 0.78754 0.14818 0.99176 0.0
O175 O 0.75655 0.10351 0.03397 0.0
O176 O 0.75059 0.13956 0.03365 0.0
O177 O 0.79713 0.16226 0.01091 0.0
O178 O 0.77694 0.12722 0.99402 0.0
C179 C 0.82316 0.1234 0.04059 0.0
O180 O 0.78388 0.17372 0.05404 0.0
O181 O 0.78717 0.14647 0.07512 0.0
In182 In 0.20629 0.55033 0.23428 0.0
O183 O 0.23398 0.53159 0.23882 0.0
O184 O 0.20256 0.51013 0.22137 0.0
C185 C 0.22695 0.59636 0.23952 0.0
C186 C 0.18746 0.54834 0.19151 0.0
C187 C 0.18692 0.54661 0.27478 0.0
O188 O 0.2376 0.57943 0.23827 0.0
O189 O 0.20612 0.58979 0.23836 0.0
O190 O 0.17668 0.53776 0.25414 0.0
O191 O 0.20694 0.55721 0.27496 0.0
C192 C 0.22224 0.51073 0.22902 0.0
O193 O 0.17747 0.55137 0.21022 0.0
O194 O 0.2072 0.54589 0.19416 0.0
In195 In 0.82572 0.89221 0.53951 0.0
O196 O 0.81947 0.85655 0.5548 0.0
O197 O 0.8198 0.89031 0.57843 0.0
C198 C 0.82363 0.86792 0.49348 0.0
C199 C 0.78861 0.91063 0.54116 0.0
C200 C 0.86762 0.92147 0.54407 0.0
O201 O 0.82959 0.85902 0.51116 0.0
O202 O 0.81867 0.88855 0.49919 0.0
O203 O 0.85104 0.92573 0.53289 0.0
O204 O 0.86309 0.90293 0.55388 0.0
C205 C 0.81692 0.86721 0.57569 0.0
O206 O 0.80724 0.92302 0.5514 0.0
O207 O 0.78886 0.8893 0.53014 0.0
In208 In 0.94039 0.07164 0.27946 0.0
O209 O 0.97206 0.08654 0.2579 0.0
O210 O 0.94768 0.05764 0.23838 0.0
C211 C 0.96645 0.0692 0.32415 0.0
C212 C 0.91702 0.11353 0.27827 0.0
C213 C 0.91307 0.02243 0.27601 0.0
O214 O 0.97442 0.07138 0.30429 0.0
O215 O 0.94609 0.06979 0.322 0.0
O216 O 0.91014 0.04155 0.28969 0.0
O217 O 0.9286 0.02812 0.26317 0.0
C218 C 0.96612 0.07207 0.23758 0.0
O219 O 0.91321 0.09325 0.26328 0.0
O220 O 0.93224 0.11292 0.29416 0.0
In221 In 0.28601 0.63529 0.53663 0.0
O222 O 0.30775 0.60916 0.54546 0.0
O223 O 0.32146 0.63998 0.53006 0.0
C224 C 0.24562 0.60783 0.53679 0.0
C225 C 0.287 0.66656 0.57701 0.0
C226 C 0.28585 0.65634 0.49839 0.0
O227 O 0.25893 0.60035 0.52262 0.0
O228 O 0.25299 0.62834 0.55035 0.0
O229 O 0.29509 0.66771 0.51882 0.0
O230 O 0.27631 0.63407 0.49717 0.0
C231 C 0.32459 0.62166 0.53835 0.0
O232 O 0.27976 0.67013 0.55693 0.0
O233 O 0.29452 0.64735 0.57665 0.0
In234 In 0.44067 0.5718 0.77965 0.0
O235 O 0.40849 0.59247 0.78188 0.0
O236 O 0.43768 0.61395 0.77547 0.0
C237 C 0.4125 0.52317 0.77623 0.0
C238 C 0.46598 0.57169 0.73777 0.0
C239 C 0.4682 0.5703 0.82358 0.0
O240 O 0.41587 0.54028 0.79463 0.0
O241 O 0.42181 0.53086 0.75886 0.0
O242 O 0.47029 0.56 0.80239 0.0
O243 O 0.45353 0.58294 0.82276 0.0
C244 C 0.41743 0.61366 0.77814 0.0
O245 O 0.47172 0.5867 0.75775 0.0
O246 O 0.44788 0.55677 0.73886 0.0
In247 In 0.70746 0.04946 0.73271 0.0
O248 O 0.73349 0.02697 0.7314 0.0
O249 O 0.69896 0.00972 0.73041 0.0
C250 C 0.73146 0.09376 0.7419 0.0
C251 C 0.68864 0.0399 0.68849 0.0
C252 C 0.6865 0.05577 0.77247 0.0
O253 O 0.74056 0.07566 0.7419 0.0
O254 O 0.7109 0.08906 0.73554 0.0
O255 O 0.679 0.05874 0.75223 0.0
O256 O 0.70476 0.04911 0.77281 0.0
C257 C 0.71875 1.00751 0.73008 0.0
O258 O 0.67891 0.03325 0.70587 0.0
O259 O 0.70813 0.05274 0.69341 0.0
In260 In 0.79576 0.69631 0.01154 0.0
O261 O 0.81094 0.66282 0.00851 0.0
O262 O 0.83325 0.69757 0.01736 0.0
C263 C 0.75382 0.66851 1.00537 0.0
C264 C 0.79775 0.71913 0.05879 0.0
C265 C 0.7976 0.71324 0.96917 0.0
O266 O 0.77075 0.65951 1.0027 0.0
O267 O 0.75781 0.69179 0.01121 0.0
O268 O 0.8022 0.72788 0.98932 0.0
O269 O 0.79192 0.691 0.97074 0.0
C270 C 0.83077 0.67451 0.0133 0.0
O271 O 0.80517 0.7309 0.04288 0.0
O272 O 0.78934 0.6967 0.0507 0.0
In273 In 0.92638 0.54374 0.81133 0.0
O274 O 0.89635 0.55923 0.81523 0.0
O275 O 0.9273 0.58403 0.81489 0.0
C276 C 0.90508 0.49801 0.80575 0.0
C277 C 0.94054 0.54733 0.76915 0.0
C278 C 0.94982 0.54445 0.85088 0.0
O279 O 0.89749 0.51568 0.81608 0.0
O280 O 0.9235 0.50327 0.79746 0.0
O281 O 0.95779 0.54196 0.8309 0.0
O282 O 0.93058 0.54843 0.85093 0.0
C283 C 0.90658 0.58094 0.81544 0.0
O284 O 0.95327 0.55501 0.78854 0.0
O285 O 0.92056 0.53786 0.7712 0.0
In286 In 0.82994 0.44059 0.5149 0.0
O287 O 0.82639 0.40971 0.53434 0.0
O288 O 0.82967 0.44614 0.55502 0.0
C289 C 0.82793 0.4154 0.47098 0.0
C290 C 0.79538 0.46036 0.5126 0.0
C291 C 0.8721 0.4602 0.51782 0.0
O292 O 0.81892 0.40604 0.48754 0.0
O293 O 0.83719 0.43788 0.47635 0.0
O294 O 0.85752 0.47262 0.51566 0.0
O295 O 0.86536 0.43843 0.5208 0.0
C296 C 0.82702 0.42333 0.55466 0.0
O297 O 0.81492 0.47329 0.51615 0.0
O298 O 0.7934 0.43746 0.51033 0.0
In299 In 0.68124 0.51327 0.27575 0.0
O300 O 0.71407 0.49539 0.27889 0.0
O301 O 0.68506 0.46973 0.26661 0.0
C302 C 0.7069 0.56234 0.28071 0.0
C303 C 0.65851 0.51312 0.22798 0.0
C304 C 0.659 0.51699 0.32111 0.0
O305 O 0.71455 0.54482 0.28655 0.0
O306 O 0.68662 0.55537 0.27287 0.0
O307 O 0.64931 0.50679 0.30026 0.0
O308 O 0.67935 0.5248 0.3192 0.0
C309 C 0.70583 0.47259 0.27203 0.0
O310 O 0.64867 0.50698 0.2458 0.0
O311 O 0.67932 0.51795 0.23369 0.0
Eu312 Eu 0.04241 0.03214 0.01853 0.0
C313 C 0.11404 0.12173 0.07684 0.0
C314 C 0.12453 0.14717 0.04739 0.0
C315 C 0.13342 0.16461 0.09004 0.0
C316 C 0.11454 0.12429 0.05304 0.0
C317 C 0.12376 0.14182 0.0956 0.0
C318 C 0.13375 0.1673 0.06598 0.0
C319 C 0.11555 0.11494 0.12408 0.0
N320 N 0.1052 0.09931 0.08168 0.0
C321 C 0.10647 0.09553 0.10491 0.0
C322 C 0.12418 0.13823 0.11942 0.0
Eu323 Eu 0.09374 0.06599 0.04837 0.0
N324 N 0.10628 0.10422 0.03543 0.0
C325 C 0.10816 0.10599 0.01177 0.0
C326 C 0.12561 0.14904 0.02321 0.0
C327 C 0.11739 0.12833 1.00534 0.0
H328 H 0.10075 0.07729 0.10862 0.0
H329 H 0.11831 0.12946 0.98653 0.0
H330 H 0.14157 0.18489 0.06193 0.0
H331 H 0.11635 0.11179 0.14238 0.0
H332 H 0.10202 0.09057 0.9973 0.0
H333 H 0.02081 0.97343 0.08586 0.0
H334 H 0.1331 0.16626 0.01817 0.0
H335 H 0.03425 0.01672 0.95868 0.0
H336 H 0.03846 0.01009 0.07233 0.0
H337 H 0.01553 0.9814 0.92708 0.0
H338 H 0.14103 0.18017 0.10419 0.0
H339 H 1.00104 0.93661 0.05653 0.0
H340 H 0.98855 0.91637 0.0137 0.0
H341 H 0.13162 0.15316 0.13426 0.0
H342 H 0.98727 0.91835 0.97066 0.0
N343 N 0.02917 0.9956 0.03451 0.0
C344 C 0.02979 0.99487 0.05868 0.0
C345 C 0.00885 0.95296 0.05018 0.0
C346 C 0.00803 0.95355 0.02561 0.0
C347 C 0.0199 0.97368 0.06675 0.0
C348 C 0.01854 0.97532 0.01821 0.0
H349 H 0.99742 0.94232 0.93828 0.0
N350 N 0.02816 0.99741 0.9875 0.0
C351 C 0.01628 0.9796 0.9458 0.0
C352 C 0.01804 0.97627 0.99401 0.0
C353 C 0.0271 0.99946 0.96376 0.0
C354 C 0.00604 0.95762 0.9522 0.0
C355 C 0.00673 0.95576 0.97652 0.0
O356 O 0.01841 0.04208 0.9948 0.0
O357 O 0.06216 0.07102 0.03128 0.0
O358 O 0.06868 0.07363 0.0771 0.0
O359 O 0.0369 0.04545 0.05892 0.0
O360 O 0.05139 0.05989 0.99482 0.0
O361 O 0.01156 0.03976 0.03162 0.0
O362 O 0.11738 0.05305 0.0698 0.0
O363 O 0.07454 0.02695 0.03439 0.0
O364 O 0.06709 0.0237 0.98985 0.0
O365 O 0.09882 0.05258 0.00722 0.0
O366 O 0.08577 0.03673 0.07068 0.0
O367 O 0.12745 0.06718 0.03795 0.0
C368 C 0.06036 0.07854 0.01148 0.0
C369 C 0.98118 0.03719 1.00297 0.0
C370 C 0.9458 0.04823 0.00608 0.0
C371 C 0.96758 0.05067 0.01544 0.0
C372 C 0.93721 0.03178 0.98445 0.0
C373 C 0.97268 0.02035 0.98147 0.0
C374 C 0.95062 0.01761 0.97232 0.0
C375 C 0.04791 0.06143 0.07827 0.0
C376 C 0.0047 0.04437 0.01104 0.0
C377 C 0.99613 0.93422 0.98382 0.0
C378 C 0.99683 0.9331 0.00831 0.0
C379 C 0.07692 0.01842 0.05357 0.0
C380 C 0.15552 0.06656 0.06838 0.0
C381 C 0.17174 0.05579 0.05798 0.0
C382 C 0.19222 0.05823 0.07098 0.0
C383 C 0.19693 0.07299 0.09419 0.0
C384 C 0.16018 0.08138 0.09151 0.0
C385 C 0.18099 0.08478 0.10426 0.0
C386 C 0.08767 0.03606 0.98809 0.0
C387 C 0.13318 0.05788 0.05624 0.0
H388 H 0.97428 0.06412 0.03175 0.0
H389 H 0.92032 0.03014 0.97692 0.0
H390 H 0.98317 0.01001 0.97143 0.0
H391 H 0.94409 1.00501 0.95554 0.0
H392 H 0.16794 0.04445 0.04003 0.0
H393 H 0.21262 0.07489 0.10473 0.0
H394 H 0.14769 0.08959 0.10002 0.0
H395 H 0.1845 0.09587 0.12226 0.0
Eu396 Eu 0.31247 0.79401 0.26913 0.0
C397 C 0.282 0.86969 0.35048 0.0
C398 C 0.31667 0.89217 0.37335 0.0
C399 C 0.2831 0.90745 0.37928 0.0
C400 C 0.30435 0.8714 0.35682 0.0
C401 C 0.27118 0.88777 0.36162 0.0
C402 C 0.30583 0.90975 0.38501 0.0
C403 C 0.23739 0.86567 0.33724 0.0
N404 N 0.27094 0.85061 0.3331 0.0
C405 C 0.24873 0.84822 0.32678 0.0
C406 C 0.24863 0.88552 0.3548 0.0
Eu407 Eu 0.28878 0.81719 0.32366 0.0
N408 N 0.31431 0.85382 0.34544 0.0
C409 C 0.33706 0.85788 0.34784 0.0
C410 C 0.33965 0.89517 0.37711 0.0
C411 C 0.34992 0.87832 0.36379 0.0
H412 H 0.23909 0.83196 0.31494 0.0
H413 H 0.36781 0.88107 0.36575 0.0
H414 H 0.31498 0.9255 0.39812 0.0
H415 H 0.21979 0.86333 0.33229 0.0
H416 H 0.34581 0.84585 0.33736 0.0
H417 H 0.23938 0.72521 0.22415 0.0
H418 H 0.34968 0.91095 0.38951 0.0
H419 H 0.36545 0.79013 0.27489 0.0
H420 H 0.25886 0.76232 0.25253 0.0
H421 H 0.38903 0.76252 0.25775 0.0
H422 H 0.27498 0.92128 0.38825 0.0
H423 H 0.26039 0.69608 0.20397 0.0
H424 H 0.29707 0.68478 0.19796 0.0
H425 H 0.23972 0.89887 0.36313 0.0
H426 H 0.33762 0.69454 0.2076 0.0
N427 N 0.29115 0.75523 0.24836 0.0
C428 C 0.26854 0.75024 0.24373 0.0
C429 C 0.26916 0.71252 0.21645 0.0
C430 C 0.29221 0.71738 0.22163 0.0
C431 C 0.25726 0.72894 0.22774 0.0
C432 C 0.30283 0.73907 0.23801 0.0
H433 H 0.37196 0.72318 0.23018 0.0
N434 N 0.33513 0.76546 0.25938 0.0
C435 C 0.37117 0.75697 0.25395 0.0
C436 C 0.32553 0.74431 0.24377 0.0
C437 C 0.35772 0.77234 0.26398 0.0
C438 C 0.36148 0.73484 0.23832 0.0
C439 C 0.33842 0.72837 0.23286 0.0
O440 O 0.3389 0.81357 0.25226 0.0
O441 O 0.30375 0.82666 0.2916 0.0
O442 O 0.26582 0.81993 0.28992 0.0
O443 O 0.28029 0.80252 0.25567 0.0
O444 O 0.3368 0.8286 0.28669 0.0
O445 O 0.3063 0.79908 0.23198 0.0
O446 O 0.25518 0.79859 0.32876 0.0
O447 O 0.28848 0.7855 0.29493 0.0
O448 O 0.33361 0.78685 0.30079 0.0
O449 O 0.32251 0.80802 0.33612 0.0
O450 O 0.29032 0.7793 0.33019 0.0
O451 O 0.2785 0.81889 0.3597 0.0
C452 C 0.32223 0.84101 0.29355 0.0
C453 C 0.33735 0.81125 0.21059 0.0
C454 C 0.34864 0.83424 0.17981 0.0
C455 C 0.33609 0.83049 0.19886 0.0
C456 C 0.36271 0.81835 0.17238 0.0
C457 C 0.35128 0.79523 0.2034 0.0
C458 C 0.3639 0.79878 0.18413 0.0
C459 C 0.26479 0.81242 0.26598 0.0
C460 C 0.3265 0.81165 0.23241 0.0
C461 C 0.32798 0.7069 0.21632 0.0
C462 C 0.30491 0.70138 0.21077 0.0
C463 C 0.28955 0.76971 0.30769 0.0
C464 C 0.2466 0.792 0.36776 0.0
C465 C 0.2561 0.77495 0.37735 0.0
C466 C 0.24507 0.76229 0.39375 0.0
C467 C 0.22471 0.76694 0.40072 0.0
C468 C 0.22628 0.79662 0.37473 0.0
C469 C 0.2154 0.78414 0.39125 0.0
C470 C 0.33645 0.7957 0.32448 0.0
C471 C 0.25826 0.80676 0.35203 0.0
H472 H 0.32584 0.84329 0.20528 0.0
H473 H 0.37248 0.82089 0.15743 0.0
H474 H 0.35274 0.78053 0.2129 0.0
H475 H 0.37477 0.78657 0.17849 0.0
H476 H 0.27194 0.77157 0.37216 0.0
H477 H 0.21621 0.75746 0.41368 0.0
H478 H 0.21905 0.8102 0.3677 0.0
H479 H 0.19983 0.78792 0.39683 0.0
Eu480 Eu 0.58048 0.03696 0.53304 0.0
C481 C 0.49704 0.99376 0.57063 0.0
C482 C 0.48108 0.96123 0.53634 0.0
C483 C 0.47475 0.9551 0.57698 0.0
C484 C 0.49413 0.98494 0.54589 0.0
C485 C 0.48681 0.97917 0.58635 0.0
C486 C 0.4719 0.94615 0.55204 0.0
C487 C 0.49889 0.01417 0.61911 0.0
N488 N 0.50868 0.01715 0.57922 0.0
C489 C 0.50856 0.02802 0.60283 0.0
C490 C 0.48831 0.98951 0.61092 0.0
Eu491 Eu 0.52532 0.03842 0.55015 0.0
N492 N 0.50306 0.99996 0.53109 0.0
C493 C 0.49845 0.99315 0.50667 0.0
C494 C 0.47711 0.95366 0.51126 0.0
C495 C 0.48552 0.96985 0.49637 0.0
H496 H 0.51677 0.04713 0.60911 0.0
H497 H 0.48218 0.96435 0.47698 0.0
H498 H 0.46204 0.92779 0.54504 0.0
H499 H 0.49955 0.02254 0.63794 0.0
H500 H 0.50492 1.00557 0.49514 0.0
H501 H 0.63048 0.11543 0.59865 0.0
H502 H 0.46716 0.9356 0.50323 0.0
H503 H 0.58278 0.02547 0.47203 0.0
H504 H 0.60827 0.07381 0.58532 0.0
H505 H 0.59558 0.04791 0.4404 0.0
H506 H 0.467 0.94352 0.58882 0.0
H507 H 0.64108 0.14191 0.56909 0.0
H508 H 0.64147 0.14651 0.52611 0.0
H509 H 0.48071 0.97886 0.62356 0.0
H510 H 0.63194 0.12824 0.48314 0.0
N511 N 0.60422 0.0764 0.54808 0.0
C512 C 0.61198 0.08491 0.5719 0.0
C513 C 0.6309 0.12354 0.56298 0.0
C514 C 0.62434 0.11425 0.53848 0.0
C515 C 0.62495 0.10867 0.5797 0.0
C516 C 0.61086 0.09026 0.53142 0.0
H517 H 0.61513 0.0916 0.45113 0.0
N518 N 0.59295 0.0567 0.50077 0.0
C519 C 0.59801 0.05738 0.45903 0.0
C520 C 0.60506 0.08016 0.50715 0.0
C521 C 0.59046 0.04485 0.47712 0.0
C522 C 0.60907 0.08199 0.46517 0.0
C523 C 0.61314 0.09354 0.48945 0.0
O524 O 0.5934 1.00864 0.51093 0.0
O525 O 0.54549 0.01401 0.5299 0.0
O526 O 0.54284 0.02545 0.57925 0.0
O527 O 0.57963 0.04014 0.57304 0.0
O528 O 0.57068 1.00038 0.54464 0.0
O529 O 0.61302 0.02995 0.54375 0.0
O530 O 0.509 0.06714 0.56581 0.0
O531 O 0.55773 0.06261 0.54479 0.0
O532 O 0.55604 0.02978 0.50038 0.0
O533 O 0.53213 0.05276 0.51647 0.0
O534 O 0.54435 0.0714 0.57719 0.0
O535 O 0.49405 0.04256 0.53259 0.0
C536 C 0.54993 0.99523 0.53698 0.0
C537 C 0.63181 1.00894 0.51376 0.0
C538 C 0.66309 0.98883 0.51118 0.0
C539 C 0.64572 0.99562 0.52369 0.0
C540 C 0.66671 0.99578 0.48892 0.0
C541 C 0.63595 0.01614 0.49169 0.0
C542 C 0.65334 1.00959 0.47937 0.0
C543 C 0.56402 0.0321 0.58636 0.0
C544 C 0.61162 0.01221 0.52516 0.0
C545 C 0.6258 0.11767 0.49649 0.0
C546 C 0.63129 0.12804 0.52095 0.0
C547 C 0.5598 0.0788 0.56404 0.0
C548 C 0.47048 0.06104 0.5579 0.0
C549 C 0.45867 0.07786 0.55121 0.0
C550 C 0.43869 0.08023 0.56087 0.0
C551 C 0.43076 0.06552 0.57748 0.0
C552 C 0.46218 0.04626 0.57416 0.0
C553 C 0.44246 0.04865 0.58403 0.0
C554 C 0.54123 0.04296 0.49803 0.0
C555 C 0.49228 0.06091 0.54927 0.0
H556 H 0.6425 0.98969 0.54059 0.0
H557 H 0.67998 0.9906 0.47898 0.0
H558 H 0.62552 0.02627 0.48364 0.0
H559 H 0.65624 0.0149 0.46219 0.0
H560 H 0.46538 0.08955 0.53895 0.0
H561 H 0.41532 0.06675 0.58513 0.0
H562 H 0.47093 0.03308 0.5794 0.0
H563 H 0.43622 0.03739 0.59678 0.0
Eu564 Eu 0.28548 0.29819 0.77716 0.0
C565 C 0.36249 0.26474 0.82461 0.0
C566 C 0.3789 0.30056 0.85529 0.0
C567 C 0.38009 0.25982 0.86257 0.0
C568 C 0.36703 0.28991 0.83248 0.0
C569 C 0.36971 0.24947 0.83923 0.0
C570 C 0.38466 0.28535 0.8706 0.0
C571 C 0.35896 0.21548 0.80545 0.0
N572 N 0.35292 0.2554 0.8018 0.0
C573 C 0.35223 0.23138 0.79165 0.0
C574 C 0.36731 0.22445 0.82953 0.0
Eu575 Eu 0.34042 0.28305 0.77974 0.0
N576 N 0.36163 0.30409 0.81702 0.0
C577 C 0.3696 0.32908 0.82252 0.0
C578 C 0.38567 0.32617 0.86155 0.0
C579 C 0.3815 0.34043 0.84482 0.0
H580 H 0.34587 0.22439 0.77294 0.0
H581 H 0.38726 0.36024 0.84916 0.0
H582 H 0.3935 0.2932 0.88827 0.0
H583 H 0.35775 0.19635 0.79748 0.0
H584 H 0.3667 0.34078 0.81021 0.0
H585 H 0.24665 0.21917 0.70519 0.0
H586 H 0.39486 0.33503 0.87882 0.0
H587 H 0.27829 0.35575 0.78377 0.0
H588 H 0.26588 0.23938 0.74441 0.0
H589 H 0.26399 0.38268 0.75958 0.0
H590 H 0.38547 0.24835 0.87417 0.0
H591 H 0.23475 0.2437 0.67686 0.0
H592 H 0.23097 0.28486 0.6689 0.0
H593 H 0.37269 0.21215 0.84015 0.0
H594 H 0.23572 0.32937 0.68361 0.0
N595 N 0.26586 0.27606 0.73937 0.0
C596 C 0.26083 0.25085 0.73291 0.0
C597 C 0.2433 0.25293 0.69436 0.0
C598 C 0.24722 0.27851 0.70146 0.0
C599 C 0.24988 0.23903 0.71031 0.0
C600 C 0.25858 0.28967 0.72441 0.0
H601 H 0.24776 0.36591 0.71743 0.0
N602 N 0.27139 0.32459 0.75513 0.0
C603 C 0.26338 0.36366 0.75165 0.0
C604 C 0.26146 0.31471 0.73254 0.0
C605 C 0.27154 0.34843 0.76522 0.0
C606 C 0.25425 0.35413 0.72787 0.0
C607 C 0.2528 0.32927 0.71818 0.0
O608 O 0.268 0.31386 0.80647 0.0
O609 O 0.31372 0.29349 0.80127 0.0
O610 O 0.31627 0.24849 0.78765 0.0
O611 O 0.28168 0.25809 0.78256 0.0
O612 O 0.30228 0.32594 0.80964 0.0
O613 O 0.25292 0.27844 0.78547 0.0
O614 O 0.35665 0.26592 0.75024 0.0
O615 O 0.31245 0.28793 0.75476 0.0
O616 O 0.30958 0.33415 0.77208 0.0
O617 O 0.34431 0.32405 0.77485 0.0
O618 O 0.32329 0.25494 0.74806 0.0
O619 O 0.3735 0.30085 0.77137 0.0
C620 C 0.31579 0.31331 0.81652 0.0
C621 C 0.22889 0.30161 0.80635 0.0
C622 C 0.1945 0.29955 0.82667 0.0
C623 C 0.21441 0.29135 0.82236 0.0
C624 C 0.18948 0.3179 0.81489 0.0
C625 C 0.22292 0.31953 0.79462 0.0
C626 C 0.20347 0.32765 0.79896 0.0
C627 C 0.29415 0.24225 0.78617 0.0
C628 C 0.25102 0.29544 0.80345 0.0
C629 C 0.2423 0.31843 0.69498 0.0
C630 C 0.23957 0.2931 0.68661 0.0
C631 C 0.31075 0.26781 0.73969 0.0
C632 C 0.39569 0.27515 0.75131 0.0
C633 C 0.41118 0.28534 0.73652 0.0
C634 C 0.43078 0.27659 0.7333 0.0
C635 C 0.43444 0.25727 0.74446 0.0
C636 C 0.39998 0.25611 0.7625 0.0
C637 C 0.4191 0.24709 0.7589 0.0
C638 C 0.33169 0.34031 0.77271 0.0
C639 C 0.37451 0.28322 0.75358 0.0
H640 H 0.2188 0.27758 0.8317 0.0
H641 H 0.17452 0.32465 0.81795 0.0
H642 H 0.23351 0.32762 0.78237 0.0
H643 H 0.19927 0.34176 0.79002 0.0
H644 H 0.40812 0.30009 0.72778 0.0
H645 H 0.4493 0.25013 0.74206 0.0
H646 H 0.3885 0.248 0.77385 0.0
H647 H 0.42208 0.23219 0.76741 0.0
Eu648 Eu 0.0608 0.0639 0.53258 0.0
C649 C 0.08158 0.98811 0.45303 0.0
C650 C 0.0467 0.97437 0.42739 0.0
C651 C 0.08099 0.96884 0.41088 0.0
C652 C 0.05868 0.98524 0.45009 0.0
C653 C 0.09287 0.97949 0.43347 0.0
C654 C 0.05799 0.96638 0.40783 0.0
C655 C 0.12662 0.9899 0.46041 0.0
N656 N 0.09262 0.99785 0.47525 0.0
C657 C 0.11474 0.99779 0.4793 0.0
C658 C 0.11568 0.98085 0.43734 0.0
Eu659 Eu 0.07001 1.00554 0.50714 0.0
N660 N 0.04798 0.99198 0.46955 0.0
C661 C 0.02535 0.98833 0.46748 0.0
C662 C 0.02359 0.97116 0.42512 0.0
C663 C 0.01289 0.97823 0.44526 0.0
H664 H 0.12321 1.00386 0.49733 0.0
H665 H 0.995 0.97564 0.44377 0.0
H666 H 0.04902 0.9578 0.39037 0.0
H667 H 0.14412 0.99033 0.46377 0.0
H668 H 0.01673 0.99334 0.48285 0.0
H669 H 0.13521 0.09086 0.59814 0.0
H670 H 0.01385 0.96292 0.408 0.0
H671 H 0.00729 0.0663 0.54261 0.0
H672 H 0.11286 0.06843 0.56104 0.0
H673 H 0.98736 0.08398 0.57473 0.0
H674 H 0.0894 0.96203 0.39575 0.0
H675 H 0.11763 0.11242 0.63082 0.0
H676 H 0.08333 0.123 0.64638 0.0
H677 H 0.12485 0.97429 0.42281 0.0
H678 H 0.04319 0.12013 0.64043 0.0
N679 N 0.08297 0.07876 0.57049 0.0
C680 C 0.10507 0.07893 0.57408 0.0
C681 C 0.10776 0.10299 0.61407 0.0
C682 C 0.08499 0.10195 0.61095 0.0
C683 C 0.11777 0.09106 0.59565 0.0
C684 C 0.07278 0.08932 0.58877 0.0
H685 H 0.00743 0.10524 0.61421 0.0
N686 N 0.03864 0.07499 0.5641 0.0
C687 C 0.00492 0.08476 0.57816 0.0
C688 C 0.05003 0.08727 0.58555 0.0
C689 C 0.01637 0.07433 0.56009 0.0
C690 C 0.01632 0.09682 0.60035 0.0
C691 C 0.03912 0.09842 0.60423 0.0
O692 O 0.03769 0.08374 0.51916 0.0
O693 O 0.05012 0.03352 0.49864 0.0
O694 O 0.09866 0.03494 0.49892 0.0
O695 O 0.09642 0.07113 0.52437 0.0
O696 O 0.06441 0.0677 0.49321 0.0
O697 O 0.07164 0.10365 0.53448 0.0
O698 O 0.08847 0.97831 0.51296 0.0
O699 O 0.07478 0.0327 0.54297 0.0
O700 O 0.0293 0.03593 0.53518 0.0
O701 O 0.03682 0.99739 0.52245 0.0
O702 O 0.09025 1.00461 0.54193 0.0
O703 O 0.05197 0.96723 0.50554 0.0
C704 C 0.05393 0.04627 0.48191 0.0
C705 C 0.04664 0.12728 0.52025 0.0
C706 C 0.05589 0.16534 0.50558 0.0
C707 C 0.06171 0.14397 0.51048 0.0
C708 C 0.03499 0.16994 0.51045 0.0
C709 C 0.02569 0.13179 0.52483 0.0
C710 C 0.01994 0.15314 0.51999 0.0
C711 C 0.10713 0.05798 0.50974 0.0
C712 C 0.05225 0.10456 0.52451 0.0
C713 C 0.0513 0.11134 0.62604 0.0
C714 C 0.07416 0.11306 0.6294 0.0
C715 C 0.08627 0.02263 0.55691 0.0
C716 C 0.07278 0.93582 0.51043 0.0
C717 C 0.06118 0.92326 0.52644 0.0
C718 C 0.06713 0.90218 0.53185 0.0
C719 C 0.08398 0.89296 0.52042 0.0
C720 C 0.08959 0.92659 0.49884 0.0
C721 C 0.09497 0.905 0.50364 0.0
C722 C 0.02382 0.0117 0.53151 0.0
C723 C 0.07073 0.96084 0.51009 0.0
H724 H 0.07782 0.14034 0.50663 0.0
H725 H 0.03029 0.18643 0.50668 0.0
H726 H 0.01384 0.11883 0.53219 0.0
H727 H 1.0038 0.15666 0.52358 0.0
H728 H 0.04874 0.93085 0.53607 0.0
H729 H 0.08871 0.87664 0.52464 0.0
H730 H 0.09904 0.93656 0.48681 0.0
H731 H 0.10811 0.89804 0.49495 0.0
Eu732 Eu 0.34343 0.81643 0.76388 0.0
C733 C 0.28351 0.73889 0.80657 0.0
C734 C 0.29121 0.70111 0.7848 0.0
C735 C 0.27858 0.70242 0.82465 0.0
C736 C 0.29058 0.72616 0.78641 0.0
C737 C 0.27677 0.72691 0.82558 0.0
C738 C 0.28577 0.68954 0.80428 0.0
C739 C 0.26404 0.76299 0.84342 0.0
N740 N 0.28148 0.76235 0.80675 0.0
C741 C 0.27072 0.77396 0.82401 0.0
C742 C 0.26748 0.73954 0.84445 0.0
Eu743 Eu 0.29384 0.78015 0.77394 0.0
N744 N 0.29549 0.73778 0.76777 0.0
C745 C 0.29961 0.72477 0.74634 0.0
C746 C 0.29661 0.68818 0.76337 0.0
C747 C 0.30052 0.7 0.74396 0.0
H748 H 0.26794 0.79206 0.82315 0.0
H749 H 0.30425 0.69005 0.7271 0.0
H750 H 0.28642 0.67042 0.80346 0.0
H751 H 0.2562 0.7726 0.85752 0.0
H752 H 0.30263 0.73327 0.73094 0.0
H753 H 0.33768 0.90593 0.81632 0.0
H754 H 0.29726 0.66895 0.76144 0.0
H755 H 0.3614 0.8033 0.70946 0.0
H756 H 0.33457 0.86148 0.80886 0.0
H757 H 0.37238 0.82414 0.67583 0.0
H758 H 0.27373 0.69301 0.83921 0.0
H759 H 0.34892 0.92965 0.78475 0.0
H760 H 0.36035 0.93019 0.74326 0.0
H761 H 0.26214 0.73099 0.85941 0.0
H762 H 0.36901 0.90797 0.70495 0.0
N763 N 0.34394 0.85916 0.77294 0.0
C764 C 0.33964 0.8712 0.79472 0.0
C765 C 0.34761 0.90993 0.78124 0.0
C766 C 0.35221 0.89767 0.75908 0.0
C767 C 0.3413 0.89662 0.79912 0.0
C768 C 0.35022 0.87192 0.75534 0.0
H769 H 0.37324 0.86855 0.67958 0.0
N770 N 0.35355 0.8347 0.73059 0.0
C771 C 0.36719 0.83418 0.69178 0.0
C772 C 0.35499 0.85935 0.73358 0.0
C773 C 0.3605 0.82226 0.71057 0.0
C774 C 0.36775 0.85926 0.69403 0.0
C775 C 0.36203 0.87227 0.71525 0.0
O776 O 0.37566 0.80885 0.75741 0.0
O777 O 0.33072 0.77905 0.77479 0.0
O778 O 0.31224 0.79109 0.81099 0.0
O779 O 0.34069 0.82158 0.80339 0.0
O780 O 0.34988 0.77864 0.74675 0.0
O781 O 0.37301 0.83771 0.78746 0.0
O782 O 0.26097 0.78817 0.7712 0.0
O783 O 0.30645 0.81834 0.76478 0.0
O784 O 0.32153 0.81163 0.72988 0.0
O785 O 0.30189 0.77481 0.73564 0.0
O786 O 0.28682 0.81684 0.79238 0.0
O787 O 0.26691 0.75586 0.74845 0.0
C788 C 0.34103 0.76496 0.76121 0.0
C789 C 0.40785 0.8398 0.7712 0.0
C790 C 0.44685 0.85283 0.7861 0.0
C791 C 0.42466 0.84496 0.7901 0.0
C792 C 0.45192 0.85707 0.7631 0.0
C793 C 0.41306 0.84411 0.74833 0.0
C794 C 0.43501 0.85301 0.74442 0.0
C795 C 0.32947 0.80957 0.81813 0.0
C796 C 0.38612 0.82603 0.77519 0.0
C797 C 0.36367 0.89779 0.71884 0.0
C798 C 0.35879 0.91045 0.74069 0.0
C799 C 0.29602 0.83177 0.77916 0.0
C800 C 0.2303 0.75583 0.75832 0.0
C801 C 0.21231 0.7596 0.74444 0.0
C802 C 0.19075 0.75159 0.75012 0.0
C803 C 0.18708 0.73924 0.76941 0.0
C804 C 0.22661 0.74284 0.77717 0.0
C805 C 0.205 0.73458 0.78268 0.0
C806 C 0.30753 0.79077 0.72176 0.0
C807 C 0.25243 0.7688 0.75488 0.0
H808 H 0.42049 0.84144 0.80768 0.0
H809 H 0.46896 0.86252 0.75925 0.0
H810 H 0.40045 0.83984 0.73334 0.0
H811 H 0.43903 0.85582 0.72664 0.0
H812 H 0.21513 0.76994 0.73006 0.0
H813 H 0.17042 0.73333 0.7742 0.0
H814 H 0.2403 0.73962 0.78796 0.0
H815 H 0.20217 0.72504 0.79756 0.0
Eu816 Eu 0.55563 0.04674 0.03613 0.0
C817 C 0.49415 0.06338 0.9495 0.0
C818 C 0.47776 0.02251 0.92651 0.0
C819 C 0.46022 0.05645 0.92259 0.0
C820 C 0.49509 0.03872 0.94265 0.0
C821 C 0.47684 0.07244 0.93919 0.0
C822 C 0.46058 0.03155 0.91642 0.0
C823 C 0.49401 0.11307 0.96142 0.0
N824 N 0.51022 0.07865 0.9658 0.0
C825 C 0.51079 0.10343 0.97107 0.0
C826 C 0.47687 0.0975 0.94551 0.0
Eu827 Eu 0.54077 0.06215 0.97663 0.0
N828 N 0.51202 0.03026 0.95263 0.0
C829 C 0.51124 1.00536 0.94838 0.0
C830 C 0.47769 0.99744 0.92148 0.0
C831 C 0.49425 0.98882 0.93279 0.0
H832 H 0.52447 0.11604 0.98255 0.0
H833 H 0.49375 0.96927 0.92984 0.0
H834 H 0.44733 0.01934 0.90391 0.0
H835 H 0.49456 0.13261 0.96592 0.0
H836 H 0.52266 0.99732 0.95765 0.0
H837 H 0.61129 0.13392 0.08189 0.0
H838 H 0.4645 0.98447 0.90953 0.0
H839 H 0.56028 0.99002 0.03785 0.0
H840 H 0.57898 0.10842 0.05661 0.0
H841 H 0.58722 0.9678 0.05278 0.0
H842 H 0.44689 0.06315 0.91452 0.0
H843 H 0.6406 0.11517 0.09728 0.0
H844 H 0.65459 0.07727 0.10022 0.0
H845 H 0.46396 0.10508 0.93783 0.0
H846 H 0.64852 0.03215 0.09154 0.0
N847 N 0.58838 0.07418 0.05772 0.0
C848 C 0.59082 0.09924 0.06346 0.0
C849 C 0.62609 0.10354 0.08624 0.0
C850 C 0.62366 0.07803 0.08052 0.0
C851 C 0.60956 0.11416 0.0777 0.0
C852 C 0.60439 0.06365 0.06608 0.0
H853 H 0.62354 0.9912 0.07384 0.0
N854 N 0.58214 0.02509 0.04775 0.0
C855 C 0.5916 0.98763 0.05476 0.0
C856 C 0.60121 0.03835 0.06083 0.0
C857 C 0.57657 1.00017 0.04596 0.0
C858 C 0.61203 1.0009 0.06669 0.0
C859 C 0.61686 0.02661 0.07036 0.0
O860 O 0.53319 0.02209 0.05312 0.0
O861 O 0.52924 0.04839 0.00829 0.0
O862 O 0.52604 0.08446 0.00655 0.0
O863 O 0.54574 0.08308 0.04243 0.0
O864 O 0.52632 0.01582 0.01948 0.0
O865 O 0.54812 0.05873 0.07335 0.0
O866 O 0.5575 0.09845 0.9707 0.0
O867 O 0.56534 0.0696 0.00892 0.0
O868 O 0.56725 0.0208 0.00724 0.0
O869 O 0.55348 0.02708 0.96934 0.0
O870 O 0.57745 0.06402 0.97506 0.0
O871 O 0.54367 0.06809 0.94027 0.0
C872 C 0.51628 0.02818 0.00701 0.0
C873 C 0.53375 0.02707 0.09492 0.0
C874 C 0.51284 0.02129 0.12876 0.0
C875 C 0.51942 0.03475 0.11109 0.0
C876 C 0.52118 1.00041 0.13085 0.0
C877 C 0.54247 1.0064 0.09718 0.0
C878 C 0.53625 0.99321 0.11525 0.0
C879 C 0.53314 0.09318 0.02951 0.0
C880 C 0.53491 0.03758 0.07326 0.0
C881 C 0.6363 0.04084 0.08416 0.0
C882 C 0.63971 0.06651 0.08919 0.0
C883 C 0.5824 0.06914 0.99807 0.0
C884 C 0.56917 0.10193 0.93166 0.0
C885 C 0.58219 0.08806 0.91812 0.0
C886 C 0.59337 0.09753 0.89989 0.0
C887 C 0.5918 0.12085 0.89557 0.0
C888 C 0.56799 0.12531 0.9274 0.0
C889 C 0.5793 0.13474 0.90943 0.0
C890 C 0.56328 0.01493 0.98336 0.0
C891 C 0.5537 0.09123 0.94727 0.0
H892 H 0.51228 0.05039 0.10905 0.0
H893 H 0.51619 0.98991 0.14462 0.0
H894 H 0.55323 0.99987 0.08449 0.0
H895 H 0.54269 0.97708 0.11679 0.0
H896 H 0.58266 0.06966 0.92084 0.0
H897 H 0.60002 0.12813 0.8812 0.0
H898 H 0.55755 0.13587 0.93734 0.0
H899 H 0.57791 0.15256 0.90582 0.0
Eu900 Eu 0.30936 0.30115 0.27113 0.0
C901 C 0.22514 0.2237 0.22679 0.0
C902 C 0.20423 0.21668 0.26075 0.0
C903 C 0.18582 0.20352 0.22011 0.0
C904 C 0.22453 0.22508 0.25148 0.0
C905 C 0.20574 0.21246 0.21089 0.0
C906 C 0.18502 0.20583 0.24496 0.0
C907 C 0.22731 0.21711 0.17742 0.0
N908 N 0.24481 0.23179 0.21817 0.0
C909 C 0.24608 0.22781 0.19367 0.0
C910 C 0.20703 0.20945 0.18604 0.0
Eu911 Eu 0.27686 0.23911 0.24645 0.0
N912 N 0.24369 0.234 0.26638 0.0
C913 C 0.24307 0.23669 0.29084 0.0
C914 C 0.20382 0.219 0.28566 0.0
C915 C 0.22325 0.22947 0.30076 0.0
H916 H 0.26182 0.23136 0.18623 0.0
H917 H 0.22305 0.23181 0.32013 0.0
H918 H 0.16948 0.19887 0.2518 0.0
H919 H 0.22871 0.21392 0.15822 0.0
H920 H 0.2575 0.24508 0.30322 0.0
H921 H 0.36124 0.31407 0.19651 0.0
H922 H 0.18856 0.21292 0.29341 0.0
H923 H 0.325 0.31344 0.33044 0.0
H924 H 0.32748 0.29987 0.21387 0.0
H925 H 0.35854 0.33025 0.35824 0.0
H926 H 0.17094 0.1946 0.20812 0.0
H927 H 0.39647 0.33061 0.22247 0.0
H928 H 0.41666 0.34196 0.2635 0.0
H929 H 0.19261 0.20054 0.17336 0.0
H930 H 0.41611 0.34548 0.3072 0.0
N931 N 0.34205 0.30824 0.25039 0.0
C932 C 0.34208 0.30724 0.22604 0.0
C933 C 0.38142 0.32423 0.23046 0.0
C934 C 0.38163 0.32517 0.25525 0.0
C935 C 0.36158 0.31507 0.2158 0.0
C936 C 0.36155 0.31661 0.26487 0.0
H937 H 0.39479 0.34094 0.34247 0.0
N938 N 0.3419 0.31041 0.29864 0.0
C939 C 0.35978 0.32622 0.33903 0.0
C940 C 0.36145 0.31779 0.28957 0.0
C941 C 0.34079 0.31592 0.32305 0.0
C942 C 0.38014 0.33233 0.33005 0.0
C943 C 0.38113 0.32867 0.30512 0.0
O944 O 0.30078 0.32543 0.3017 0.0
O945 O 0.27698 0.2747 0.26972 0.0
O946 O 0.27977 0.26325 0.21767 0.0
O947 O 0.29658 0.3044 0.23418 0.0
O948 O 0.27573 0.30864 0.2619 0.0
O949 O 0.32104 0.34074 0.27539 0.0
O950 O 0.28366 0.2135 0.21567 0.0
O951 O 0.3094 0.26522 0.24841 0.0
O952 O 0.30883 0.27667 0.29993 0.0
O953 O 0.28822 0.23654 0.28445 0.0
O954 O 0.31021 0.23036 0.25491 0.0
O955 O 0.26411 0.19985 0.24328 0.0
C956 C 0.26396 0.28792 0.26484 0.0
C957 C 0.30696 0.36826 0.30343 0.0
C958 C 0.28483 0.39731 0.29726 0.0
C959 C 0.29028 0.37463 0.28995 0.0
C960 C 0.29625 0.41372 0.31793 0.0
C961 C 0.3184 0.38449 0.32408 0.0
C962 C 0.31306 0.40727 0.33128 0.0
C963 C 0.28611 0.28674 0.21621 0.0
C964 C 0.31305 0.34496 0.29618 0.0
C965 C 0.40097 0.33699 0.2955 0.0
C966 C 0.40125 0.3351 0.27063 0.0
C967 C 0.32195 0.25168 0.25371 0.0
C968 C 0.276 0.17064 0.21499 0.0
C969 C 0.29232 0.1637 0.2284 0.0
C970 C 0.29573 0.13978 0.22263 0.0
C971 C 0.2829 0.12299 0.203 0.0
C972 C 0.26327 0.15403 0.19533 0.0
C973 C 0.26679 0.13021 0.18931 0.0
C974 C 0.30028 0.25363 0.30216 0.0
C975 C 0.27107 0.19464 0.22205 0.0
H976 H 0.28154 0.36198 0.27395 0.0
H977 H 0.29237 0.43158 0.3235 0.0
H978 H 0.33151 0.37956 0.3345 0.0
H979 H 0.32197 0.41992 0.34712 0.0
H980 H 0.30227 0.17695 0.2433 0.0
H981 H 0.28516 0.10429 0.19842 0.0
H982 H 0.25046 0.15939 0.18488 0.0
H983 H 0.25687 0.11729 0.17424 0.0
Eu984 Eu 0.56029 0.56266 0.03346 0.0
C985 C 0.58151 0.48214 0.95681 0.0
C986 C 0.54689 0.46807 0.93085 0.0
C987 C 0.58119 0.461 0.91537 0.0
C988 C 0.55875 0.47993 0.9534 0.0
C989 C 0.59289 0.47233 0.9379 0.0
C990 C 0.55825 0.4589 0.91185 0.0
C991 C 0.62644 0.48401 0.9653 0.0
N992 N 0.59243 0.49296 0.97881 0.0
C993 C 0.61446 0.49329 0.98352 0.0
C994 C 0.61564 0.47365 0.94233 0.0
Eu995 Eu 0.57078 0.50657 0.00931 0.0
N996 N 0.5481 0.48874 0.97218 0.0
C997 C 0.52544 0.48547 0.96957 0.0
C998 C 0.52386 0.46539 0.92808 0.0
C999 C 0.51311 0.47406 0.94756 0.0
H1000 H 0.62282 0.50102 1.0014 0.0
H1001 H 0.49527 0.47196 0.94568 0.0
H1002 H 0.5494 0.44982 0.89446 0.0
H1003 H 0.64393 0.48466 0.96905 0.0
H1004 H 0.51644 0.49209 0.98403 0.0
H1005 H 0.63507 0.59772 0.09832 0.0
H1006 H 0.51422 0.45643 0.91106 0.0
H1007 H 0.50879 0.57027 0.03999 0.0
H1008 H 0.61434 0.5775 0.06005 0.0
H1009 H 0.48732 0.58748 0.07144 0.0
H1010 H 0.58968 0.45345 0.90065 0.0
H1011 H 0.61575 0.61349 0.13249 0.0
H1012 H 0.58043 0.62079 0.14823 0.0
H1013 H 0.62492 0.46628 0.92828 0.0
H1014 H 0.54033 0.61799 0.14103 0.0
N1015 N 0.58244 0.58078 0.0711 0.0
C1016 C 0.60511 0.58418 0.07412 0.0
C1017 C 0.60628 0.60441 0.11542 0.0
C1018 C 0.58329 0.60185 0.11223 0.0
C1019 C 0.61723 0.59566 0.0962 0.0
C1020 C 0.57167 0.58985 0.08959 0.0
H1021 H 0.5056 0.60574 0.11254 0.0
N1022 N 0.53866 0.57763 0.06337 0.0
C1023 C 0.50465 0.58767 0.07572 0.0
C1024 C 0.54913 0.58822 0.08559 0.0
C1025 C 0.51685 0.57789 0.05801 0.0
C1026 C 0.51502 0.59793 0.09889 0.0
C1027 C 0.53757 0.59861 0.104 0.0
O1028 O 0.54412 0.58768 0.01796 0.0
O1029 O 0.55959 0.53868 0.99619 0.0
O1030 O 0.59745 0.53318 0.99544 0.0
O1031 O 0.59559 0.56778 0.02283 0.0
O1032 O 0.53094 0.54959 1.00468 0.0
O1033 O 0.57968 0.59795 0.02823 0.0
O1034 O 0.58831 0.48241 0.02443 0.0
O1035 O 0.57068 0.53039 0.04639 0.0
O1036 O 0.53155 0.53628 0.04433 0.0
O1037 O 0.53595 0.49967 0.0216 0.0
O1038 O 0.59967 0.51955 0.03942 0.0
O1039 O 0.5533 0.46918 0.01109 0.0
C1040 C 0.54022 0.53982 0.98683 0.0
C1041 C 0.56072 0.62945 0.02397 0.0
C1042 C 0.56453 0.66722 0.00895 0.0
C1043 C 0.56886 0.64387 0.00761 0.0
C1044 C 0.55241 0.67644 0.02726 0.0
C1045 C 0.54878 0.63857 0.04242 0.0
C1046 C 0.54476 0.66219 0.04409 0.0
C1047 C 0.60585 0.556 0.0065 0.0
C1048 C 0.56237 0.60398 0.01877 0.0
C1049 C 0.54895 0.60996 0.12668 0.0
C1050 C 0.57176 0.61156 0.13079 0.0
C1051 C 0.5898 0.52976 0.05655 0.0
C1052 C 0.57459 0.43957 0.01682 0.0
C1053 C 0.56383 0.42357 0.03059 0.0
C1054 C 0.57002 0.40137 0.0313 0.0
C1055 C 0.58663 0.39467 0.01751 0.0
C1056 C 0.59094 0.43281 1.00261 0.0
C1057 C 0.59681 0.41024 1.00286 0.0
C1058 C 0.52442 0.51259 0.03545 0.0
C1059 C 0.57093 0.46445 0.02144 0.0
H1060 H 0.57754 0.63636 0.99298 0.0
H1061 H 0.54889 0.69458 0.0285 0.0
H1062 H 0.54214 0.62731 0.05499 0.0
H1063 H 0.53534 0.66926 0.05811 0.0
H1064 H 0.55159 0.42913 0.04207 0.0
H1065 H 0.59172 0.37756 0.01819 0.0
H1066 H 0.59962 0.4452 0.99207 0.0
H1067 H 0.60966 0.40513 0.99223 0.0
Eu1068 Eu 0.84394 0.31629 0.26316 0.0
C1069 C 0.784 0.2419 0.30923 0.0
C1070 C 0.79094 0.20338 0.28823 0.0
C1071 C 0.7791 0.20625 0.32852 0.0
C1072 C 0.79046 0.22837 0.28912 0.0
C1073 C 0.77762 0.23075 0.32885 0.0
C1074 C 0.78579 0.19261 0.30827 0.0
C1075 C 0.76652 0.26798 0.34655 0.0
N1076 N 0.78251 0.26545 0.30895 0.0
C1077 C 0.77306 0.27825 0.3267 0.0
C1078 C 0.76916 0.24428 0.34784 0.0
Eu1079 Eu 0.79424 0.28171 0.2751 0.0
N1080 N 0.79481 0.23913 0.26983 0.0
C1081 C 0.79818 0.2253 0.2485 0.0
C1082 C 0.79576 0.18966 0.26693 0.0
C1083 C 0.79905 0.2006 0.24686 0.0
H1084 H 0.77111 0.29663 0.32577 0.0
H1085 H 0.80226 0.19002 0.23009 0.0
H1086 H 0.78626 0.17351 0.30797 0.0
H1087 H 0.75952 0.27837 0.36088 0.0
H1088 H 0.80073 0.2331 0.23262 0.0
H1089 H 0.8469 0.40827 0.31619 0.0
H1090 H 0.79632 0.17045 0.26556 0.0
H1091 H 0.85862 0.30096 0.20749 0.0
H1092 H 0.84093 0.36358 0.30913 0.0
H1093 H 0.86807 0.32058 0.17265 0.0
H1094 H 0.77449 0.19745 0.34354 0.0
H1095 H 0.85475 0.43043 0.28277 0.0
H1096 H 0.86141 0.42901 0.23958 0.0
H1097 H 0.76404 0.23635 0.36321 0.0
H1098 H 0.8667 0.40523 0.20051 0.0
N1099 N 0.84622 0.35946 0.2718 0.0
C1100 C 0.84479 0.37252 0.29421 0.0
C1101 C 0.85239 0.41056 0.27947 0.0
C1102 C 0.85405 0.39728 0.25664 0.0
C1103 C 0.84805 0.39815 0.29839 0.0
C1104 C 0.85112 0.37142 0.25332 0.0
H1105 H 0.86925 0.36496 0.17547 0.0
N1106 N 0.85273 0.33339 0.22886 0.0
C1107 C 0.86401 0.33126 0.18891 0.0
C1108 C 0.85432 0.35802 0.23126 0.0
C1109 C 0.85845 0.32015 0.20851 0.0
C1110 C 0.86468 0.35631 0.19059 0.0
C1111 C 0.86025 0.37012 0.21207 0.0
O1112 O 0.8757 0.3084 0.25483 0.0
O1113 O 0.83089 0.27945 0.27492 0.0
O1114 O 0.8143 0.2914 0.31112 0.0
O1115 O 0.84188 0.32233 0.30293 0.0
O1116 O 0.84943 0.27794 0.2464 0.0
O1117 O 0.87405 0.33614 0.28641 0.0
O1118 O 0.76146 0.28992 0.27466 0.0
O1119 O 0.80742 0.31902 0.26491 0.0
O1120 O 0.82073 0.31143 0.23006 0.0
O1121 O 0.80146 0.27477 0.23648 0.0
O1122 O 0.78826 0.31949 0.29278 0.0
O1123 O 0.76687 0.2589 0.24927 0.0
C1124 C 0.84052 0.26474 0.26118 0.0
C1125 C 0.90822 0.33901 0.26886 0.0
C1126 C 0.94687 0.35373 0.28492 0.0
C1127 C 0.9245 0.34608 0.2884 0.0
C1128 C 0.95248 0.35639 0.26164 0.0
C1129 C 0.91392 0.34177 0.24574 0.0
C1130 C 0.93599 0.35085 0.24228 0.0
C1131 C 0.83149 0.30993 0.31794 0.0
C1132 C 0.88668 0.3249 0.2729 0.0
C1133 C 0.86226 0.39567 0.21509 0.0
C1134 C 0.85925 0.40922 0.23734 0.0
C1135 C 0.79803 0.33361 0.27919 0.0
C1136 C 0.73043 0.25841 0.25997 0.0
C1137 C 0.7129 0.26109 0.24465 0.0
C1138 C 0.69105 0.25265 0.24918 0.0
C1139 C 0.68665 0.24092 0.26876 0.0
C1140 C 0.72607 0.24628 0.27932 0.0
C1141 C 0.70416 0.23749 0.28362 0.0
C1142 C 0.80719 0.29023 0.22213 0.0
C1143 C 0.75265 0.27162 0.25725 0.0
H1144 H 0.91978 0.34398 0.30617 0.0
H1145 H 0.96961 0.36163 0.25808 0.0
H1146 H 0.90162 0.33611 0.23029 0.0
H1147 H 0.94047 0.35248 0.22437 0.0
H1148 H 0.71623 0.27098 0.23002 0.0
H1149 H 0.66973 0.23479 0.2727 0.0
H1150 H 0.73946 0.24425 0.29142 0.0
H1151 H 0.70076 0.2286 0.29884 0.0
Eu1152 Eu 0.06206 0.5539 0.54122 0.0
C1153 C 0.99472 0.5692 0.46033 0.0
C1154 C 0.97415 0.52826 0.44124 0.0
C1155 C 0.95745 0.56335 0.44026 0.0
C1156 C 0.99367 0.54407 0.45405 0.0
C1157 C 0.97675 0.57907 0.45292 0.0
C1158 C 0.95611 0.53802 0.43455 0.0
C1159 C 0.99883 0.61975 0.46896 0.0
N1160 N 0.01348 0.58416 0.47277 0.0
C1161 C 0.01616 0.60923 0.47584 0.0
C1162 C 0.97891 0.60459 0.45775 0.0
Eu1163 Eu 0.04337 0.5651 0.48043 0.0
N1164 N 0.01148 0.535 0.46049 0.0
C1165 C 0.01042 0.51017 0.4548 0.0
C1166 C 0.97321 0.50302 0.43549 0.0
C1167 C 0.99139 0.49396 0.44238 0.0
H1168 H 0.03168 0.62125 0.48414 0.0
H1169 H 0.9907 0.47437 0.43833 0.0
H1170 H 0.9411 0.52612 0.42471 0.0
H1171 H 1.00095 0.63956 0.47212 0.0
H1172 H 0.02362 0.50212 0.46046 0.0
H1173 H 0.1074 0.63606 0.60607 0.0
H1174 H 0.95848 0.49035 0.42587 0.0
H1175 H 0.07173 0.49642 0.53513 0.0
H1176 H 0.07562 0.61045 0.57972 0.0
H1177 H 0.10126 0.47613 0.54624 0.0
H1178 H 0.94354 0.57065 0.43453 0.0
H1179 H 0.14107 0.62024 0.61306 0.0
H1180 H 0.16007 0.58517 0.60683 0.0
H1181 H 0.96553 0.61281 0.45225 0.0
H1182 H 0.15853 0.54167 0.59038 0.0
N1183 N 0.09146 0.58051 0.5687 0.0
C1184 C 0.09035 0.60327 0.58113 0.0
C1185 C 0.12727 0.60892 0.60069 0.0
C1186 C 0.12776 0.58498 0.58957 0.0
C1187 C 0.10834 0.61793 0.59674 0.0
C1188 C 0.10937 0.57093 0.57349 0.0
H1189 H 0.13659 0.5009 0.56836 0.0
N1190 N 0.09046 0.53287 0.54949 0.0
C1191 C 0.10381 0.49597 0.55093 0.0
C1192 C 0.10884 0.54651 0.56366 0.0
C1193 C 0.08711 0.50765 0.54468 0.0
C1194 C 0.12371 0.51001 0.56333 0.0
C1195 C 0.12622 0.53547 0.57043 0.0
O1196 O 0.04455 0.52015 0.5508 0.0
O1197 O 0.03765 0.54223 0.50826 0.0
O1198 O 0.03053 0.58899 0.5106 0.0
O1199 O 0.05673 0.59246 0.54293 0.0
O1200 O 0.0252 0.54915 0.54172 0.0
O1201 O 0.05076 0.55545 0.57718 0.0
O1202 O 0.05753 0.59661 0.46491 0.0
O1203 O 0.06852 0.57564 0.5127 0.0
O1204 O 0.07561 0.53069 0.51138 0.0
O1205 O 0.05571 0.53005 0.47448 0.0
O1206 O 0.08048 0.57695 0.47981 0.0
O1207 O 0.04805 0.55887 0.44231 0.0
C1208 C 0.02047 0.54192 0.51886 0.0
C1209 C 0.03092 0.51852 0.58944 0.0
C1210 C 0.00525 0.51659 0.61981 0.0
C1211 C 0.01816 0.53006 0.60528 0.0
C1212 C 0.00554 0.49169 0.61891 0.0
C1213 C 0.03124 0.49364 0.58859 0.0
C1214 C 0.01867 0.48034 0.60345 0.0
C1215 C 0.0391 0.59832 0.53309 0.0
C1216 C 0.04206 0.53172 0.57218 0.0
C1217 C 0.14496 0.5498 0.5853 0.0
C1218 C 0.14578 0.57453 0.59475 0.0
C1219 C 0.0859 0.58044 0.50255 0.0
C1220 C 0.06334 0.59236 0.42286 0.0
C1221 C 0.07817 0.5817 0.40937 0.0
C1222 C 0.08862 0.59343 0.39212 0.0
C1223 C 0.08346 0.6154 0.38765 0.0
C1224 C 0.05809 0.61424 0.41844 0.0
C1225 C 0.06796 0.62557 0.40059 0.0
C1226 C 0.06956 0.5219 0.48813 0.0
C1227 C 0.05612 0.58249 0.44369 0.0
H1228 H 0.0177 0.54923 0.60581 0.0
H1229 H 0.99598 0.48122 0.6305 0.0
H1230 H 0.04104 0.48448 0.57632 0.0
H1231 H 0.019 0.46119 0.60289 0.0
H1232 H 0.08266 0.56513 0.41335 0.0
H1233 H 0.09142 0.62462 0.37423 0.0
H1234 H 0.04677 0.62276 0.42908 0.0
H1235 H 0.064 0.64251 0.39719 0.0
Eu1236 Eu 0.78496 0.79665 0.27854 0.0
C1237 C 0.8617 0.7639 0.32256 0.0
C1238 C 0.87627 0.79908 0.3548 0.0
C1239 C 0.87985 0.75832 0.35997 0.0
C1240 C 0.86521 0.78894 0.33152 0.0
C1241 C 0.86951 0.74842 0.33653 0.0
C1242 C 0.88317 0.78358 0.36911 0.0
C1243 C 0.85838 0.71487 0.30236 0.0
N1244 N 0.85185 0.75487 0.29973 0.0
C1245 C 0.85102 0.7309 0.28917 0.0
C1246 C 0.86738 0.72359 0.32626 0.0
Eu1247 Eu 0.84013 0.78376 0.27861 0.0
N1248 N 0.85863 0.80356 0.31719 0.0
C1249 C 0.86371 0.82858 0.3246 0.0
C1250 C 0.88054 0.82458 0.36284 0.0
C1251 C 0.87446 0.83941 0.34754 0.0
H1252 H 0.8444 0.72416 0.2705 0.0
H1253 H 0.87801 0.85921 0.3534 0.0
H1254 H 0.89157 0.79103 0.38705 0.0
H1255 H 0.85723 0.69585 0.29402 0.0
H1256 H 0.85928 0.84043 0.31314 0.0
H1257 H 0.74227 0.72296 0.20244 0.0
H1258 H 0.88892 0.83303 0.38061 0.0
H1259 H 0.78176 0.85661 0.28811 0.0
H1260 H 0.76408 0.73952 0.24055 0.0
H1261 H 0.77031 0.88604 0.26561 0.0
H1262 H 0.8858 0.74667 0.37099 0.0
H1263 H 0.7313 0.75071 0.17724 0.0
H1264 H 0.73081 0.79326 0.17206 0.0
H1265 H 0.87323 0.71117 0.3364 0.0
H1266 H 0.73908 0.83753 0.18876 0.0
N1267 N 0.76493 0.77741 0.23981 0.0
C1268 C 0.75869 0.75246 0.23136 0.0
C1269 C 0.74062 0.75838 0.1947 0.0
C1270 C 0.74654 0.78375 0.20324 0.0
C1271 C 0.74656 0.74269 0.20894 0.0
C1272 C 0.75872 0.79292 0.2262 0.0
H1273 H 0.75372 0.87213 0.22338 0.0
N1274 N 0.77395 0.82637 0.25823 0.0
C1275 C 0.76858 0.86705 0.2568 0.0
C1276 C 0.76349 0.818 0.23558 0.0
C1277 C 0.77532 0.85026 0.26937 0.0
C1278 C 0.75923 0.85913 0.233 0.0
C1279 C 0.75603 0.83429 0.2223 0.0
O1280 O 0.77115 0.8173 0.30799 0.0
O1281 O 0.81757 0.80198 0.30077 0.0
O1282 O 0.81573 0.74841 0.28621 0.0
O1283 O 0.78032 0.75514 0.27802 0.0
O1284 O 0.78969 0.7836 0.31346 0.0
O1285 O 0.74999 0.78483 0.2857 0.0
O1286 O 0.85711 0.77465 0.24642 0.0
O1287 O 0.81127 0.78763 0.25454 0.0
O1288 O 0.81066 0.83453 0.28241 0.0
O1289 O 0.84345 0.82367 0.27167 0.0
O1290 O 0.82315 0.75513 0.24703 0.0
O1291 O 0.87561 0.79931 0.2772 0.0
C1292 C 0.81047 0.79314 0.31857 0.0
C1293 C 0.73199 0.81237 0.31149 0.0
C1294 C 0.69643 0.8094 0.32974 0.0
C1295 C 0.71419 0.79862 0.32172 0.0
C1296 C 0.69704 0.83391 0.32771 0.0
C1297 C 0.73175 0.83676 0.30983 0.0
C1298 C 0.71448 0.84739 0.31791 0.0
C1299 C 0.79358 0.74042 0.28276 0.0
C1300 C 0.75169 0.80223 0.30467 0.0
C1301 C 0.74478 0.82525 0.19918 0.0
C1302 C 0.74003 0.80004 0.18969 0.0
C1303 C 0.80973 0.76758 0.23941 0.0
C1304 C 0.89563 0.77653 0.25071 0.0
C1305 C 0.91238 0.78669 0.2372 0.0
C1306 C 0.93037 0.77527 0.23244 0.0
C1307 C 0.9309 0.75331 0.2407 0.0
C1308 C 0.89704 0.75501 0.25911 0.0
C1309 C 0.9144 0.74335 0.25397 0.0
C1310 C 0.83139 0.84063 0.2764 0.0
C1311 C 0.87643 0.78792 0.25541 0.0
H1312 H 0.71417 0.77982 0.32337 0.0
H1313 H 0.68385 0.84274 0.33379 0.0
H1314 H 0.74513 0.84789 0.30267 0.0
H1315 H 0.71466 0.8663 0.31665 0.0
H1316 H 0.91161 0.8035 0.23082 0.0
H1317 H 0.94417 0.74378 0.2369 0.0
H1318 H 0.8847 0.74709 0.26955 0.0
H1319 H 0.91509 0.72655 0.26036 0.0
Eu1320 Eu 0.81522 0.29301 0.76687 0.0
C1321 C 0.77743 0.36296 0.85027 0.0
C1322 C 0.8109 0.38742 0.87412 0.0
C1323 C 0.77578 0.3995 0.87948 0.0
C1324 C 0.79989 0.36661 0.85679 0.0
C1325 C 0.7651 0.37941 0.86147 0.0
C1326 C 0.79866 0.40354 0.88575 0.0
C1327 C 0.73242 0.35468 0.83662 0.0
N1328 N 0.76765 0.34349 0.83271 0.0
C1329 C 0.7453 0.33878 0.82627 0.0
C1330 C 0.74236 0.37511 0.85433 0.0
Eu1331 Eu 0.78884 0.3139 0.82043 0.0
N1332 N 0.81121 0.35075 0.84498 0.0
C1333 C 0.83392 0.35573 0.84881 0.0
C1334 C 0.83395 0.3918 0.87879 0.0
C1335 C 0.84552 0.37612 0.86577 0.0
H1336 H 0.73716 0.32211 0.81383 0.0
H1337 H 0.86344 0.37973 0.86874 0.0
H1338 H 0.8068 0.41941 0.89932 0.0
H1339 H 0.71475 0.3508 0.83137 0.0
H1340 H 0.84356 0.34445 0.83875 0.0
H1341 H 0.73852 0.23131 0.71775 0.0
H1342 H 0.84301 0.4076 0.89191 0.0
H1343 H 0.86632 0.28276 0.7719 0.0
H1344 H 0.75954 0.2664 0.74685 0.0
H1345 H 0.88722 0.25313 0.75314 0.0
H1346 H 0.76656 0.4122 0.88844 0.0
H1347 H 0.75731 0.20054 0.69657 0.0
H1348 H 0.79233 0.1861 0.68985 0.0
H1349 H 0.73231 0.38726 0.86256 0.0
H1350 H 0.83249 0.19169 0.69977 0.0
N1351 N 0.79113 0.25691 0.74274 0.0
C1352 C 0.76861 0.25383 0.7378 0.0
C1353 C 0.76691 0.21614 0.70953 0.0
C1354 C 0.78974 0.21894 0.71478 0.0
C1355 C 0.75628 0.2335 0.72135 0.0
C1356 C 0.80151 0.23953 0.73195 0.0
H1357 H 0.86779 0.21623 0.72352 0.0
N1358 N 0.83483 0.26182 0.755 0.0
C1359 C 0.86939 0.24956 0.74903 0.0
C1360 C 0.824 0.24216 0.73813 0.0
C1361 C 0.85738 0.26608 0.75996 0.0
C1362 C 0.85839 0.22885 0.73226 0.0
C1363 C 0.83547 0.225 0.72649 0.0
O1364 O 0.8459 0.31076 0.75458 0.0
O1365 O 0.80579 0.32444 0.78995 0.0
O1366 O 0.76816 0.3219 0.78803 0.0
O1367 O 0.7836 0.30468 0.75404 0.0
O1368 O 0.83874 0.32814 0.78532 0.0
O1369 O 0.81445 0.30091 0.73064 0.0
O1370 O 0.75989 0.29464 0.83425 0.0
O1371 O 0.79708 0.2826 0.79659 0.0
O1372 O 0.83456 0.28297 0.79785 0.0
O1373 O 0.82286 0.30453 0.83211 0.0
O1374 O 0.76363 0.28077 0.80147 0.0
O1375 O 0.79242 0.30117 0.85446 0.0
C1376 C 0.82378 0.33965 0.79287 0.0
C1377 C 0.84772 0.31917 0.71468 0.0
C1378 C 0.84946 0.34549 0.6857 0.0
C1379 C 0.83742 0.33246 0.7009 0.0
C1380 C 0.87174 0.34461 0.68342 0.0
C1381 C 0.87001 0.3181 0.71267 0.0
C1382 C 0.88193 0.33064 0.69677 0.0
C1383 C 0.76795 0.31499 0.76409 0.0
C1384 C 0.8359 0.30979 0.73345 0.0
C1385 C 0.82391 0.20491 0.70901 0.0
C1386 C 0.80107 0.20179 0.70329 0.0
C1387 C 0.77807 0.26909 0.79276 0.0
C1388 C 0.76043 0.29317 0.8755 0.0
C1389 C 0.7644 0.27676 0.88986 0.0
C1390 C 0.752 0.27314 0.90912 0.0
C1391 C 0.73555 0.28645 0.91438 0.0
C1392 C 0.74425 0.30694 0.8808 0.0
C1393 C 0.73194 0.30364 0.90038 0.0
C1394 C 0.837 0.29196 0.82142 0.0
C1395 C 0.77115 0.29197 0.85334 0.0
H1396 H 0.8203 0.33372 0.70283 0.0
H1397 H 0.88104 0.35446 0.67121 0.0
H1398 H 0.8782 0.30799 0.72364 0.0
H1399 H 0.8991 0.32984 0.69508 0.0
H1400 H 0.77645 0.26562 0.88516 0.0
H1401 H 0.72562 0.28353 0.92913 0.0
H1402 H 0.74072 0.31955 0.86956 0.0
H1403 H 0.71927 0.31398 0.90435 0.0
Eu1404 Eu 0.81049 0.80025 0.7719 0.0
C1405 C 0.72648 0.72365 0.72515 0.0
C1406 C 0.7047 0.71563 0.75826 0.0
C1407 C 0.68705 0.70404 0.71725 0.0
C1408 C 0.7253 0.72433 0.7497 0.0
C1409 C 0.70731 0.71302 0.70871 0.0
C1410 C 0.68571 0.70551 0.74195 0.0
C1411 C 0.72981 0.71785 0.676 0.0
N1412 N 0.74648 0.73163 0.71713 0.0
C1413 C 0.74833 0.72784 0.69275 0.0
C1414 C 0.70918 0.71051 0.68399 0.0
Eu1415 Eu 0.77793 0.73861 0.74611 0.0
N1416 N 0.74423 0.73256 0.7651 0.0
C1417 C 0.7431 0.7339 0.78938 0.0
C1418 C 0.70376 0.71677 0.78298 0.0
C1419 C 0.72299 0.7263 0.79861 0.0
H1420 H 0.76434 0.73117 0.68587 0.0
H1421 H 0.72241 0.7276 0.81786 0.0
H1422 H 0.66995 0.69837 0.74824 0.0
H1423 H 0.73165 0.71495 0.65688 0.0
H1424 H 0.75732 0.74144 0.80223 0.0
H1425 H 0.86081 0.80936 0.6954 0.0
H1426 H 0.68827 0.71036 0.79018 0.0
H1427 H 0.82737 0.81164 0.83083 0.0
H1428 H 0.82789 0.79412 0.71393 0.0
H1429 H 0.8611 0.8301 0.85796 0.0
H1430 H 0.67234 0.69559 0.70484 0.0
H1431 H 0.89577 0.83008 0.72062 0.0
H1432 H 0.91636 0.84475 0.76151 0.0
H1433 H 0.69493 0.70211 0.67091 0.0
H1434 H 0.9167 0.84933 0.80543 0.0
N1435 N 0.84264 0.80696 0.75029 0.0
C1436 C 0.84234 0.80376 0.72571 0.0
C1437 C 0.88109 0.82347 0.72911 0.0
C1438 C 0.88175 0.82593 0.75411 0.0
C1439 C 0.86138 0.81198 0.71485 0.0
C1440 C 0.86216 0.81693 0.76434 0.0
H1441 H 0.8965 0.84347 0.84134 0.0
N1442 N 0.84358 0.81011 0.79859 0.0
C1443 C 0.86198 0.82637 0.83867 0.0
C1444 C 0.86262 0.8186 0.7891 0.0
C1445 C 0.84293 0.81498 0.82309 0.0
C1446 C 0.88184 0.83403 0.82921 0.0
C1447 C 0.8823 0.83058 0.80422 0.0
O1448 O 0.80175 0.8235 0.80318 0.0
O1449 O 0.77807 0.77377 0.77005 0.0
O1450 O 0.78026 0.76391 0.71807 0.0
O1451 O 0.79815 0.80459 0.73526 0.0
O1452 O 0.777 0.80792 0.76251 0.0
O1453 O 0.82179 0.83995 0.77738 0.0
O1454 O 0.7857 0.71332 0.71559 0.0
O1455 O 0.81062 0.76461 0.74882 0.0
O1456 O 0.81 0.77545 0.80029 0.0
O1457 O 0.78871 0.73576 0.7843 0.0
O1458 O 0.81111 0.7296 0.75476 0.0
O1459 O 0.76513 0.69934 0.74236 0.0
C1460 C 0.76518 0.78718 0.76529 0.0
C1461 C 0.80555 0.86593 0.80442 0.0
C1462 C 0.78247 0.89319 0.79557 0.0
C1463 C 0.78944 0.87128 0.78925 0.0
C1464 C 0.7917 0.90991 0.81693 0.0
C1465 C 0.81488 0.8825 0.82577 0.0
C1466 C 0.80796 0.90454 0.83198 0.0
C1467 C 0.78712 0.78753 0.71708 0.0
C1468 C 0.81344 0.84357 0.79802 0.0
C1469 C 0.90157 0.83989 0.79407 0.0
C1470 C 0.90134 0.83742 0.76908 0.0
C1471 C 0.82307 0.75094 0.75407 0.0
C1472 C 0.77737 0.67016 0.71428 0.0
C1473 C 0.79301 0.66242 0.72796 0.0
C1474 C 0.79569 0.63816 0.72217 0.0
C1475 C 0.78276 0.62188 0.70226 0.0
C1476 C 0.76464 0.65402 0.69434 0.0
C1477 C 0.76739 0.62991 0.68832 0.0
C1478 C 0.8009 0.75247 0.80224 0.0
C1479 C 0.77281 0.69436 0.72149 0.0
H1480 H 0.78243 0.85854 0.77261 0.0
H1481 H 0.7866 0.92722 0.82168 0.0
H1482 H 0.82761 0.87846 0.83747 0.0
H1483 H 0.81527 0.91748 0.84833 0.0
H1484 H 0.80299 0.67532 0.74308 0.0
H1485 H 0.78438 0.60296 0.69762 0.0
H1486 H 0.75232 0.65997 0.68371 0.0
H1487 H 0.75742 0.61736 0.67305 0.0
Eu1488 Eu 0.54093 0.53299 0.51959 0.0
C1489 C 0.60925 0.62435 0.57261 0.0
C1490 C 0.61908 0.64735 0.54111 0.0
C1491 C 0.62775 0.66776 0.58305 0.0
C1492 C 0.60973 0.62514 0.54841 0.0
C1493 C 0.61841 0.64569 0.59023 0.0
C1494 C 0.62809 0.66859 0.55854 0.0
C1495 C 0.61095 0.62131 0.62088 0.0
N1496 N 0.60106 0.60245 0.57897 0.0
C1497 C 0.60276 0.60056 0.60281 0.0
C1498 C 0.61879 0.64402 0.61458 0.0
Eu1499 Eu 0.59295 0.56695 0.54736 0.0
N1500 N 0.60185 0.60404 0.53201 0.0
C1501 C 0.60231 0.60421 0.50791 0.0
C1502 C 0.61963 0.64746 0.5165 0.0
C1503 C 0.61101 0.62582 0.49983 0.0
H1504 H 0.59811 0.5828 0.60794 0.0
H1505 H 0.61127 0.62567 0.48071 0.0
H1506 H 0.63561 0.68567 0.55326 0.0
H1507 H 0.61186 0.61962 0.63964 0.0
H1508 H 0.59581 0.58785 0.49459 0.0
H1509 H 0.52593 0.47557 0.58959 0.0
H1510 H 0.62674 0.66409 0.5102 0.0
H1511 H 0.53502 0.51422 0.45891 0.0
H1512 H 0.54235 0.51205 0.57492 0.0
H1513 H 0.51849 0.47731 0.42911 0.0
H1514 H 0.6351 0.68419 0.59632 0.0
H1515 H 0.50629 0.43804 0.56117 0.0
H1516 H 0.49382 0.41653 0.51894 0.0
H1517 H 0.62572 0.65996 0.62859 0.0
H1518 H 0.49258 0.41669 0.47563 0.0
N1519 N 0.53152 0.49706 0.53756 0.0
C1520 C 0.53312 0.49667 0.5618 0.0
C1521 C 0.51342 0.45435 0.55436 0.0
C1522 C 0.51233 0.45425 0.52966 0.0
C1523 C 0.52428 0.4755 0.57044 0.0
C1524 C 0.52209 0.47592 0.52157 0.0
H1525 H 0.50219 0.43878 0.44221 0.0
N1526 N 0.53164 0.49657 0.48935 0.0
C1527 C 0.51982 0.47638 0.44806 0.0
C1528 C 0.52212 0.47569 0.49695 0.0
C1529 C 0.52994 0.49721 0.4652 0.0
C1530 C 0.51052 0.45477 0.45555 0.0
C1531 C 0.51138 0.45424 0.48015 0.0
O1532 O 0.52093 0.54198 0.4904 0.0
O1533 O 0.5647 0.56944 0.52258 0.0
O1534 O 0.56687 0.57239 0.57615 0.0
O1535 O 0.53427 0.54451 0.55941 0.0
O1536 O 0.53364 0.571 0.53203 0.0
O1537 O 0.50503 0.52165 0.51649 0.0
O1538 O 0.6183 0.56074 0.57205 0.0
O1539 O 0.57414 0.5273 0.53308 0.0
O1540 O 0.56513 0.53264 0.48866 0.0
O1541 O 0.60025 0.55096 0.50796 0.0
O1542 O 0.5879 0.5367 0.56867 0.0
O1543 O 0.62764 0.57156 0.53827 0.0
C1544 C 0.55224 0.58425 0.52851 0.0
C1545 C 0.48148 0.53637 0.49065 0.0
C1546 C 0.45127 0.55633 0.50049 0.0
C1547 C 0.47228 0.55233 0.5069 0.0
C1548 C 0.4395 0.54419 0.47819 0.0
C1549 C 0.4696 0.52435 0.46843 0.0
C1550 C 0.44865 0.52822 0.46226 0.0
C1551 C 0.54617 0.56031 0.57827 0.0
C1552 C 0.5025 0.53002 0.49671 0.0
C1553 C 0.50111 0.43312 0.4883 0.0
C1554 C 0.50171 0.43308 0.51295 0.0
C1555 C 0.57843 0.51857 0.55174 0.0
C1556 C 0.65686 0.57184 0.569 0.0
C1557 C 0.67114 0.55915 0.55693 0.0
C1558 C 0.69159 0.55901 0.56838 0.0
C1559 C 0.69854 0.57258 0.59172 0.0
C1560 C 0.6636 0.58569 0.59243 0.0
C1561 C 0.68461 0.58624 0.60363 0.0
C1562 C 0.5871 0.53962 0.4877 0.0
C1563 C 0.63393 0.5655 0.55832 0.0
H1564 H 0.48128 0.56143 0.52424 0.0
H1565 H 0.42318 0.54707 0.47318 0.0
H1566 H 0.47643 0.51163 0.456 0.0
H1567 H 0.43947 0.51876 0.44517 0.0
H1568 H 0.6657 0.54786 0.53913 0.0
H1569 H 0.71441 0.57223 0.60073 0.0
H1570 H 0.65245 0.59524 0.60228 0.0
H1571 H 0.6898 0.59654 0.62179 0.0
Eu1572 Eu 0.07944 0.53884 0.02917 0.0
C1573 C 0.99518 0.49275 0.07351 0.0
C1574 C 0.97236 0.46313 0.04068 0.0
C1575 C 0.97137 0.45576 0.08162 0.0
C1576 C 0.98852 0.4851 0.04909 0.0
C1577 C 0.98619 0.47852 0.0901 0.0
C1578 C 0.96443 0.4481 0.05694 0.0
C1579 C 0.00512 0.51159 0.12238 0.0
N1580 N 0.00928 0.51494 0.0812 0.0
C1581 C 0.01352 0.52507 0.10524 0.0
C1582 C 0.99171 0.48802 0.11478 0.0
Eu1583 Eu 0.02437 0.53571 0.05119 0.0
N1584 N 0.9964 0.50013 0.03388 0.0
C1585 C 0.98715 0.49535 0.01046 0.0
C1586 C 0.96382 0.45751 0.01642 0.0
C1587 C 0.97079 0.47405 1.00144 0.0
H1588 H 0.02407 0.54322 0.11107 0.0
H1589 H 0.96374 0.47032 0.98284 0.0
H1590 H 0.95231 0.43098 0.05073 0.0
H1591 H 0.009 0.51936 0.14141 0.0
H1592 H 0.9921 0.50776 0.99841 0.0
H1593 H 0.12852 0.61629 0.09581 0.0
H1594 H 0.95125 0.44095 0.00933 0.0
H1595 H 0.08207 0.52594 0.96952 0.0
H1596 H 0.10457 0.57519 0.08185 0.0
H1597 H 0.09726 0.54697 0.93733 0.0
H1598 H 0.96454 0.4444 0.09406 0.0
H1599 H 0.14243 0.64168 0.0663 0.0
H1600 H 0.1453 0.64545 0.02304 0.0
H1601 H 0.98514 0.47765 0.1281 0.0
H1602 H 0.13685 0.62664 0.97997 0.0
N1603 N 0.10413 0.57722 0.04458 0.0
C1604 C 0.11042 0.58589 0.06864 0.0
C1605 C 0.13185 0.62357 0.05999 0.0
C1606 C 0.12636 0.61405 0.03533 0.0
C1607 C 0.12407 0.60928 0.0767 0.0
C1608 C 0.11239 0.59043 0.02807 0.0
H1609 H 0.11921 0.58986 0.94787 0.0
N1610 N 0.09442 0.55701 0.99752 0.0
C1611 C 0.10005 0.55657 0.95593 0.0
C1612 C 0.10744 0.57999 1.00382 0.0
C1613 C 0.09136 0.54479 0.97409 0.0
C1614 C 0.11245 0.58077 0.96195 0.0
C1615 C 0.11656 0.59267 0.98617 0.0
O1616 O 0.0918 0.50642 0.01491 0.0
O1617 O 0.04791 0.5138 0.03469 0.0
O1618 O 0.0427 0.51633 0.07369 0.0
O1619 O 0.07811 0.53731 0.06875 0.0
O1620 O 0.0597 0.50581 1.00196 0.0
O1621 O 0.1114 0.53327 0.04416 0.0
O1622 O 0.01138 0.56501 0.07159 0.0
O1623 O 0.05572 0.56097 0.04501 0.0
O1624 O 0.0603 0.55462 1.00362 0.0
O1625 O 0.02464 0.53744 0.01212 0.0
O1626 O 0.04423 0.56901 0.07803 0.0
O1627 O 0.99632 0.54786 0.03537 0.0
C1628 C 0.04451 0.498 0.01519 0.0
C1629 C 0.13022 0.50875 0.01735 0.0
C1630 C 0.16309 0.49118 0.01578 0.0
C1631 C 0.14524 0.49712 0.02806 0.0
C1632 C 0.16576 0.49675 0.99282 0.0
C1633 C 0.13333 0.51427 0.9944 0.0
C1634 C 0.15093 0.50824 0.98221 0.0
C1635 C 0.06388 0.52437 0.08065 0.0
C1636 C 0.11023 0.51272 0.02901 0.0
C1637 C 0.12987 0.61651 0.99328 0.0
C1638 C 0.13471 0.62721 0.0178 0.0
C1639 C 0.05869 0.57713 0.0642 0.0
C1640 C 0.97393 0.56558 0.06268 0.0
C1641 C 0.96155 0.57981 0.05204 0.0
C1642 C 0.94115 0.58271 0.06013 0.0
C1643 C 0.93325 0.5715 0.07907 0.0
C1644 C 0.96589 0.55437 0.0816 0.0
C1645 C 0.94565 0.55747 0.08981 0.0
C1646 C 0.03858 0.54907 0.99916 0.0
C1647 C 0.99571 0.56397 0.05473 0.0
H1648 H 0.14294 0.49252 0.04566 0.0
H1649 H 0.17936 0.49217 0.98311 0.0
H1650 H 0.12191 0.52272 0.9856 0.0
H1651 H 0.153 0.51234 0.96442 0.0
H1652 H 0.96773 0.58854 0.03745 0.0
H1653 H 0.91756 0.57373 0.0856 0.0
H1654 H 0.97532 0.54351 0.09017 0.0
H1655 H 0.93958 0.54902 0.10454 0.0
H1656 H 0.02997 0.18603 0.93214 0.0
H1657 H 0.0527 0.11973 0.04362 0.0
H1658 H 0.02859 0.22283 1.00524 0.0
H1659 H 0.06285 0.09463 0.96967 0.0
H1660 H 0.04379 0.15742 0.0322 0.0
H1661 H 0.04091 0.15205 0.94722 0.0
C1662 C 0.03173 0.18691 0.95145 0.0
C1663 C 0.02817 0.2075 0.96729 0.0
C1664 C 0.0482 0.14372 0.01858 0.0
C1665 C 0.04099 0.1679 0.98514 0.0
C1666 C 0.05346 0.12228 0.02516 0.0
C1667 C 0.05853 0.10379 0.00757 0.0
C1668 C 0.04794 0.14662 0.99426 0.0
C1669 C 0.05894 0.10813 0.98388 0.0
C1670 C 0.03817 0.16741 0.96016 0.0
C1671 C 0.03111 0.20741 0.99224 0.0
N1672 N 0.05367 0.12872 0.97803 0.0
N1673 N 0.03721 0.18795 1.00038 0.0
H1674 H 0.14261 0.83839 0.19576 0.0
H1675 H 0.2588 0.7985 0.21672 0.0
H1676 H 0.17551 0.80397 0.1388 0.0
H1677 H 0.22727 0.83232 0.27545 0.0
H1678 H 0.22884 0.80161 0.18854 0.0
H1679 H 0.17335 0.83768 0.22505 0.0
C1680 C 0.15634 0.83079 0.18933 0.0
C1681 C 0.15632 0.82123 0.16458 0.0
C1682 C 0.22836 0.8084 0.20756 0.0
C1683 C 0.19181 0.82021 0.1984 0.0
C1684 C 0.24564 0.80667 0.22393 0.0
C1685 C 0.24594 0.81511 0.24897 0.0
C1686 C 0.21076 0.81865 0.21587 0.0
C1687 C 0.22803 0.82544 0.25657 0.0
C1688 C 0.17392 0.83035 0.20616 0.0
C1689 C 0.17468 0.81162 0.15755 0.0
N1690 N 0.21125 0.82687 0.24018 0.0
N1691 N 0.19151 0.8113 0.17427 0.0
H1692 H 0.52389 0.83528 0.50767 0.0
H1693 H 0.53838 0.97545 0.48891 0.0
H1694 H 0.53121 0.85735 0.439 0.0
H1695 H 0.54144 0.95566 0.55883 0.0
H1696 H 0.53045 0.93162 0.47008 0.0
H1697 H 0.52621 0.87847 0.52656 0.0
C1698 C 0.52598 0.84917 0.49655 0.0
C1699 C 0.52751 0.8426 0.47169 0.0
C1700 C 0.53249 0.93678 0.48956 0.0
C1701 C 0.52982 0.89218 0.49317 0.0
C1702 C 0.53668 0.96182 0.50031 0.0
C1703 C 0.53997 0.96919 0.52552 0.0
C1704 C 0.53194 0.91886 0.50407 0.0
C1705 C 0.53853 0.95072 0.53936 0.0
C1706 C 0.52726 0.87385 0.50734 0.0
C1707 C 0.53015 0.86149 0.45823 0.0
N1708 N 0.5347 0.9265 0.52852 0.0
N1709 N 0.53117 0.88527 0.46908 0.0
H1710 H 0.51718 0.3006 0.62062 0.0
H1711 H 0.47251 0.30109 0.7505 0.0
H1712 H 0.55836 0.3244 0.68841 0.0
H1713 H 0.42902 0.27629 0.68449 0.0
H1714 H 0.50342 0.31354 0.72741 0.0
H1715 H 0.48418 0.29479 0.6428 0.0
C1716 C 0.51927 0.30481 0.64015 0.0
C1717 C 0.54058 0.31298 0.6527 0.0
C1718 C 0.48713 0.30565 0.71785 0.0
C1719 C 0.50296 0.30629 0.67814 0.0
C1720 C 0.46947 0.29868 0.73108 0.0
C1721 C 0.44826 0.28778 0.71936 0.0
C1722 C 0.48373 0.30141 0.69255 0.0
C1723 C 0.44515 0.28486 0.69416 0.0
C1724 C 0.50043 0.30146 0.65278 0.0
C1725 C 0.5423 0.31809 0.67797 0.0
N1726 N 0.46278 0.2914 0.68151 0.0
N1727 N 0.52381 0.31456 0.68978 0.0
H1728 H 0.9922 0.79271 0.59509 0.0
H1729 H 0.08503 0.90328 0.577 0.0
H1730 H 0.03818 0.83724 0.65441 0.0
H1731 H 0.02516 0.87551 0.52852 0.0
H1732 H 0.06783 0.8806 0.60665 0.0
H1733 H 1.00351 0.82377 0.57083 0.0
C1734 C 1.00451 0.80922 0.60304 0.0
C1735 C 0.01443 0.81253 0.62659 0.0
C1736 C 0.05835 0.87971 0.58966 0.0
C1737 C 0.02757 0.84785 0.59906 0.0
C1738 C 0.06819 0.89243 0.5728 0.0
C1739 C 0.05648 0.89054 0.55039 0.0
C1740 C 0.03691 0.86483 0.58364 0.0
C1741 C 0.03466 0.8769 0.54562 0.0
C1742 C 0.01087 0.82698 0.58928 0.0
C1743 C 0.03019 0.83418 0.63624 0.0
N1744 N 0.02562 0.86415 0.56203 0.0
N1745 N 0.03659 0.85097 0.62224 0.0
H1746 H 0.53727 0.81835 0.89203 0.0
H1747 H 0.4866 0.88612 0.79746 0.0
H1748 H 0.57319 0.84965 0.83785 0.0
H1749 H 0.44782 0.82135 0.81763 0.0
H1750 H 0.51809 0.88294 0.82404 0.0
H1751 H 0.50334 0.82831 0.87484 0.0
C1752 C 0.53791 0.82722 0.87653 0.0
C1753 C 0.5577 0.83283 0.86592 0.0
C1754 C 0.50247 0.86976 0.82288 0.0
C1755 C 0.51997 0.84513 0.84731 0.0
C1756 C 0.48461 0.87147 0.80767 0.0
C1757 C 0.46471 0.85376 0.80498 0.0
C1758 C 0.50031 0.85033 0.83549 0.0
C1759 C 0.46282 0.8355 0.81918 0.0
C1760 C 0.51877 0.833 0.86694 0.0
C1761 C 0.55805 0.84457 0.84614 0.0
N1762 N 0.48055 0.83407 0.83369 0.0
N1763 N 0.53944 0.85048 0.83753 0.0
H1764 H 0.52294 0.18526 0.15716 0.0
H1765 H 0.48945 0.08934 0.03444 0.0
H1766 H 0.45955 0.17859 0.11735 0.0
H1767 H 0.5544 0.13584 0.05745 0.0
H1768 H 0.47489 0.11218 0.0688 0.0
H1769 H 0.53089 0.15328 0.12625 0.0
C1770 C 0.51019 0.17606 0.14257 0.0
C1771 C 0.49072 0.18453 0.13936 0.0
C1772 C 0.49222 0.11748 0.06595 0.0
C1773 C 0.49981 0.14875 0.10413 0.0
C1774 C 0.50036 0.10495 0.04624 0.0
C1775 C 0.523 0.11111 0.04337 0.0
C1776 C 0.50706 0.13571 0.08263 0.0
C1777 C 0.53684 0.13074 0.05931 0.0
C1778 C 0.51489 0.15819 0.12479 0.0
C1779 C 0.47485 0.17249 0.12002 0.0
N1780 N 0.52868 0.14226 0.07855 0.0
N1781 N 0.4799 0.1553 0.10268 0.0
H1782 H 0.14028 0.30361 0.31964 0.0
H1783 H 0.26541 0.2944 0.31253 0.0
H1784 H 0.19287 0.33778 0.37667 0.0
H1785 H 0.22105 0.28564 0.24823 0.0
H1786 H 0.23635 0.30369 0.33705 0.0
H1787 H 0.16779 0.29211 0.29345 0.0
C1788 C 0.15766 0.30886 0.32655 0.0
C1789 C 0.16448 0.32133 0.35035 0.0
C1790 C 0.23287 0.29965 0.31761 0.0
C1791 C 0.19558 0.3082 0.32077 0.0
C1792 C 0.24932 0.2942 0.30368 0.0
C1793 C 0.24528 0.28932 0.27856 0.0
C1794 C 0.21239 0.30044 0.30623 0.0
C1795 C 0.22445 0.28932 0.26767 0.0
C1796 C 0.17324 0.3023 0.31162 0.0
C1797 C 0.18704 0.32792 0.35848 0.0
N1798 N 0.20852 0.29489 0.28172 0.0
N1799 N 0.20187 0.32107 0.34366 0.0
H1800 H 0.00488 0.10455 0.22811 0.0
H1801 H 0.00822 0.03379 0.08934 0.0
H1802 H 0.95801 0.03864 0.1933 0.0
H1803 H 0.06024 0.09533 0.1236 0.0
H1804 H 0.98994 0.03666 0.12666 0.0
H1805 H 0.02465 0.10306 0.19125 0.0
C1806 C 0.99861 0.08964 0.21292 0.0
C1807 C 0.97927 0.07169 0.21466 0.0
C1808 C 0.0053 0.04971 0.12624 0.0
C1809 C 1.00261 0.06982 0.17096 0.0
C1810 C 0.01598 0.04812 0.10452 0.0
C1811 C 0.03627 0.06429 0.10227 0.0
C1812 C 0.01434 0.06789 0.14695 0.0
C1813 C 0.04482 0.08222 0.12361 0.0
C1814 C 0.01009 0.08881 0.19156 0.0
C1815 C 0.97254 0.0531 0.19355 0.0
N1816 N 0.03398 0.08352 0.1445 0.0
N1817 N 0.98392 0.05273 0.17319 0.0
H1818 H 0.31166 0.70006 0.49394 0.0
H1819 H 0.22633 0.71434 0.39108 0.0
H1820 H 0.25783 0.64134 0.45723 0.0
H1821 H 0.2856 0.76969 0.41893 0.0
H1822 H 0.24063 0.68537 0.41149 0.0
H1823 H 0.30582 0.72396 0.46311 0.0
C1824 C 0.29882 0.69209 0.47913 0.0
C1825 C 0.28493 0.66894 0.47813 0.0
C1826 C 0.25072 0.70372 0.41293 0.0
C1827 C 0.27806 0.69606 0.44319 0.0
C1828 C 0.24249 0.72019 0.40139 0.0
C1829 C 0.25475 0.74427 0.40377 0.0
C1830 C 0.27113 0.71164 0.42728 0.0
C1831 C 0.27571 0.75116 0.41693 0.0
C1832 C 0.29555 0.70568 0.46155 0.0
C1833 C 0.26877 0.65921 0.4586 0.0
N1834 N 0.28315 0.73496 0.42862 0.0
N1835 N 0.26552 0.67303 0.44205 0.0
H1836 H 0.68068 0.0754 0.66572 0.0
H1837 H 0.56963 0.98978 0.59773 0.0
H1838 H 0.66618 0.99694 0.6621 0.0
H1839 H 0.57819 0.0674 0.62533 0.0
H1840 H 0.60457 0.99023 0.62037 0.0
H1841 H 0.64448 0.0715 0.64385 0.0
C1842 C 0.67032 0.05721 0.65904 0.0
C1843 C 0.67593 0.03643 0.66561 0.0
C1844 C 0.59841 1.00699 0.62218 0.0
C1845 C 0.63466 0.03197 0.64236 0.0
C1846 C 0.57821 1.00655 0.60994 0.0
C1847 C 0.57176 0.02872 0.60956 0.0
C1848 C 0.61154 0.02974 0.63399 0.0
C1849 C 0.58314 0.05007 0.62525 0.0
C1850 C 0.64945 0.05506 0.64738 0.0
C1851 C 0.66206 0.01326 0.65716 0.0
N1852 N 0.60315 0.05035 0.63629 0.0
N1853 N 0.64162 0.01163 0.64633 0.0
H1854 H 0.30393 0.3202 0.96893 0.0
H1855 H 0.33539 0.35633 0.84429 0.0
H1856 H 0.34727 0.38784 0.96081 0.0
H1857 H 0.31003 0.28035 0.84775 0.0
H1858 H 0.33995 0.36677 0.88788 0.0
H1859 H 0.30517 0.30358 0.92566 0.0
C1860 C 0.31384 0.3314 0.95816 0.0
C1861 C 0.3253 0.35556 0.96836 0.0
C1862 C 0.33372 0.34766 0.87937 0.0
C1863 C 0.32696 0.33677 0.91943 0.0
C1864 C 0.3313 0.34171 0.85441 0.0
C1865 C 0.32297 0.31742 0.84249 0.0
C1866 C 0.32679 0.3294 0.89285 0.0
C1867 C 0.31718 0.29923 0.85641 0.0
C1868 C 0.3146 0.32191 0.93358 0.0
C1869 C 0.33789 0.3693 0.95371 0.0
N1870 N 0.31887 0.30564 0.88102 0.0
N1871 N 0.33828 0.35977 0.93015 0.0
H1872 H 0.95137 0.06273 0.36903 0.0
H1873 H 0.0685 0.05099 0.43711 0.0
H1874 H 0.01129 0.06581 0.33402 0.0
H1875 H 0.00743 0.04047 0.46996 0.0
H1876 H 0.04817 0.05592 0.40002 0.0
H1877 H 0.97106 0.05519 0.40535 0.0
C1878 C 0.96869 0.06193 0.36873 0.0
C1879 C 0.97922 0.06516 0.34755 0.0
C1880 C 0.03897 0.05226 0.4151 0.0
C1881 C 1.00271 0.05611 0.3907 0.0
C1882 C 0.0507 0.04915 0.43656 0.0
C1883 C 0.04003 0.04444 0.45727 0.0
C1884 C 0.01588 0.05144 0.41361 0.0
C1885 C 0.01677 0.04326 0.45477 0.0
C1886 C 0.98006 0.05749 0.38983 0.0
C1887 C 1.00196 0.06365 0.34933 0.0
N1888 N 0.0058 0.04676 0.43387 0.0
N1889 N 0.01262 0.05939 0.37003 0.0
H1890 H 0.30815 0.66839 0.62083 0.0
H1891 H 0.27245 0.78585 0.68907 0.0
H1892 H 0.26389 0.70263 0.58322 0.0
H1893 H 0.33647 0.76847 0.70013 0.0
H1894 H 0.26361 0.75281 0.65297 0.0
H1895 H 0.31134 0.70111 0.65602 0.0
C1896 C 0.29898 0.6827 0.62013 0.0
C1897 C 0.28644 0.6836 0.5991 0.0
C1898 C 0.27988 0.75706 0.66294 0.0
C1899 C 0.29013 0.72066 0.63857 0.0
C1900 C 0.28504 0.77606 0.68301 0.0
C1901 C 0.30559 0.78042 0.69658 0.0
C1902 C 0.2953 0.74242 0.6574 0.0
C1903 C 0.3211 0.76667 0.6892 0.0
C1904 C 0.30086 0.70132 0.64002 0.0
C1905 C 0.27435 0.70201 0.59905 0.0
N1906 N 0.31551 0.74796 0.67018 0.0
N1907 N 0.2767 0.72024 0.61857 0.0
H1908 H 0.6926 0.04156 0.81621 0.0
H1909 H 0.58014 0.07657 0.8535 0.0
H1910 H 0.65303 0.07946 0.77708 0.0
H1911 H 0.63355 0.08613 0.90929 0.0
H1912 H 0.60365 0.06217 0.82357 0.0
H1913 H 0.66905 0.0462 0.84974 0.0
C1914 C 0.67909 0.05091 0.81475 0.0
C1915 C 0.67438 0.05975 0.79376 0.0
C1916 C 0.61009 0.06696 0.84243 0.0
C1917 C 0.64764 0.06456 0.83123 0.0
C1918 C 0.59667 0.07494 0.85943 0.0
C1919 C 0.60519 0.08273 0.88361 0.0
C1920 C 0.63219 0.06703 0.84969 0.0
C1921 C 0.62665 0.08034 0.89062 0.0
C1922 C 0.66573 0.05345 0.83374 0.0
C1923 C 0.65688 0.07186 0.79269 0.0
N1924 N 0.63975 0.07303 0.87356 0.0
N1925 N 0.64406 0.07372 0.81106 0.0
H1926 H 0.33573 0.32996 0.0895 0.0
H1927 H 0.26732 0.32253 0.20341 0.0
H1928 H 0.28653 0.37266 0.10672 0.0
H1929 H 0.3028 0.26726 0.17585 0.0
H1930 H 0.27289 0.34012 0.16712 0.0
H1931 H 0.32421 0.30674 0.12108 0.0
C1932 C 0.32243 0.33432 0.09984 0.0
C1933 C 0.3122 0.35336 0.09568 0.0
C1934 C 0.27921 0.32393 0.16878 0.0
C1935 C 0.29866 0.3267 0.13141 0.0
C1936 C 0.27588 0.31384 0.18938 0.0
C1937 C 0.28456 0.2935 0.1924 0.0
C1938 C 0.29198 0.31404 0.15151 0.0
C1939 C 0.29564 0.28284 0.1739 0.0
C1940 C 0.31578 0.32101 0.11774 0.0
C1941 C 0.2951 0.35837 0.10961 0.0
N1942 N 0.29947 0.29356 0.15441 0.0
N1943 N 0.2889 0.34515 0.12685 0.0
H1944 H 0.31015 1.00956 0.03876 0.0
H1945 H 0.18337 0.01095 0.04535 0.0
H1946 H 0.25793 0.95309 0.9956 0.0
H1947 H 0.23691 0.0741 0.07251 0.0
H1948 H 0.20995 0.98889 0.02705 0.0
H1949 H 0.28298 0.03299 0.05171 0.0
C1950 C 0.29298 1.00251 0.03138 0.0
C1951 C 0.28613 0.97967 0.01587 0.0
C1952 C 0.21581 1.00761 0.03691 0.0
C1953 C 0.25502 1.00618 0.03075 0.0
C1954 C 0.20071 0.02024 0.04732 0.0
C1955 C 0.20807 0.04444 0.06043 0.0
C1956 C 0.23833 0.01921 0.04 0.0
C1957 C 0.23065 0.05539 0.06285 0.0
C1958 C 0.27746 0.0158 0.03892 0.0
C1959 C 0.26369 0.97084 0.00748 0.0
N1960 N 0.24504 0.04262 0.05276 0.0
N1961 N 0.24874 0.98417 0.01515 0.0
H1962 H 0.73102 0.65866 0.04304 0.0
H1963 H 0.62087 0.574 0.96686 0.0
H1964 H 0.72672 0.64138 0.96554 0.0
H1965 H 0.64246 0.56744 0.03871 0.0
H1966 H 0.65722 0.60141 0.96533 0.0
H1967 H 0.69566 0.62914 0.04182 0.0
C1968 C 0.72237 0.64888 0.02575 0.0
C1969 C 0.73151 0.65261 1.00436 0.0
C1970 C 0.65402 0.59374 0.98131 0.0
C1971 C 0.69112 0.61871 1.00272 0.0
C1972 C 0.63338 0.57799 0.98211 0.0
C1973 C 0.62862 0.56861 1.00302 0.0
C1974 C 0.66976 0.60039 1.00173 0.0
C1975 C 0.64525 0.57466 0.02244 0.0
C1976 C 0.70232 0.63187 0.02503 0.0
C1977 C 0.71997 0.63913 0.98239 0.0
N1978 N 0.66491 0.5903 0.02143 0.0
N1979 N 0.70024 0.62289 0.98208 0.0
H1980 H 0.69369 0.42102 0.25195 0.0
H1981 H 0.8045 0.38228 0.3046 0.0
H1982 H 0.75018 0.47472 0.28969 0.0
H1983 H 0.76207 0.33449 0.24503 0.0
H1984 H 0.78426 0.41473 0.30078 0.0
H1985 H 0.71578 0.38889 0.25108 0.0
C1986 C 0.71067 0.42637 0.26015 0.0
C1987 C 0.71947 0.45154 0.27099 0.0
C1988 C 0.77942 0.39741 0.28809 0.0
C1989 C 0.74581 0.41321 0.27033 0.0
C1990 C 0.79168 0.37868 0.28982 0.0
C1991 C 0.78693 0.35538 0.27392 0.0
C1992 C 0.76048 0.39323 0.27124 0.0
C1993 C 0.76782 0.35211 0.25708 0.0
C1994 C 0.72351 0.40766 0.25957 0.0
C1995 C 0.742 0.45613 0.28109 0.0
N1996 N 0.75558 0.37027 0.25638 0.0
N1997 N 0.75388 0.43765 0.28068 0.0
H1998 H 0.9094 0.44572 0.5315 0.0
H1999 H 0.98367 0.55825 0.50965 0.0
H2000 H 0.88384 0.49072 0.48729 0.0
H2001 H 0.0098 0.49291 0.50721 0.0
H2002 H 0.94657 0.53242 0.49741 0.0
H2003 H 0.94644 0.46001 0.5196 0.0
C2004 C 0.91169 0.45853 0.51923 0.0
C2005 C 0.89418 0.46824 0.51129 0.0
C2006 C 0.9605 0.52368 0.49884 0.0
C2007 C 0.93553 0.48367 0.49707 0.0
C2008 C 0.98142 0.53838 0.50602 0.0
C2009 C 0.9992 0.52728 0.50893 0.0
C2010 C 0.95757 0.49804 0.49625 0.0
C2011 C 0.99604 0.50169 0.50473 0.0
C2012 C 0.93256 0.4662 0.51204 0.0
C2013 C 0.89741 0.48401 0.49478 0.0
N2014 N 0.97531 0.48769 0.49897 0.0
N2015 N 0.91793 0.49162 0.48843 0.0
H2016 H 0.39539 0.07 0.26858 0.0
H2017 H 0.30514 0.15091 0.27161 0.0
H2018 H 0.38215 0.11367 0.33427 0.0
H2019 H 0.32545 0.11306 0.20643 0.0
H2020 H 0.33471 0.14003 0.29506 0.0
H2021 H 0.37141 0.08833 0.24545 0.0
C2022 C 0.38759 0.08394 0.27797 0.0
C2023 C 0.39038 0.09062 0.30305 0.0
C2024 C 0.33271 0.13423 0.27563 0.0
C2025 C 0.36293 0.11137 0.27709 0.0
C2026 C 0.3159 0.14039 0.26225 0.0
C2027 C 0.31288 0.13269 0.23709 0.0
C2028 C 0.34631 0.12013 0.26367 0.0
C2029 C 0.327 0.11893 0.22583 0.0
C2030 C 0.37393 0.09435 0.26486 0.0
C2031 C 0.3801 0.10836 0.31481 0.0
N2032 N 0.34311 0.11299 0.23927 0.0
N2033 N 0.36647 0.11815 0.30159 0.0
H2034 H 0.33671 0.15976 0.55453 0.0
H2035 H 0.43156 0.09088 0.51582 0.0
H2036 H 0.36496 0.16574 0.48758 0.0
H2037 H 0.41728 0.11014 0.58954 0.0
H2038 H 0.40784 0.11754 0.50406 0.0
H2039 H 0.36607 0.14034 0.56669 0.0
C2040 C 0.34921 0.15689 0.54239 0.0
C2041 C 0.34846 0.16405 0.52002 0.0
C2042 C 0.41014 0.11608 0.52282 0.0
C2043 C 0.38205 0.14163 0.53364 0.0
C2044 C 0.42368 0.10093 0.52958 0.0
C2045 C 0.42607 0.0979 0.55366 0.0
C2046 C 0.39882 0.12805 0.54024 0.0
C2047 C 0.41541 0.11131 0.57068 0.0
C2048 C 0.36604 0.14596 0.54938 0.0
C2049 C 0.36512 0.16035 0.505 0.0
N2050 N 0.40209 0.12556 0.56359 0.0
N2051 N 0.38119 0.14897 0.51194 0.0
H2052 H 0.69678 0.59852 0.25784 0.0
H2053 H 0.80839 0.7051 0.30585 0.0
H2054 H 0.74821 0.58675 0.30629 0.0
H2055 H 0.75146 0.71399 0.26339 0.0
H2056 H 0.7884 0.66252 0.30664 0.0
H2057 H 0.71816 0.64034 0.25906 0.0
C2058 C 0.71253 0.60468 0.26892 0.0
C2059 C 0.72042 0.58856 0.28196 0.0
C2060 C 0.7805 0.67371 0.29673 0.0
C2061 C 0.7456 0.63773 0.28362 0.0
C2062 C 0.79203 0.69819 0.29618 0.0
C2063 C 0.78228 0.7137 0.28378 0.0
C2064 C 0.759 0.66406 0.28444 0.0
C2065 C 0.76049 0.70328 0.2725 0.0
C2066 C 0.72488 0.62882 0.2696 0.0
C2067 C 0.74129 0.59814 0.29575 0.0
N2068 N 0.74999 0.67956 0.2729 0.0
N2069 N 0.75299 0.62184 0.29626 0.0
H2070 H 0.88509 0.47444 0.8381 0.0
H2071 H 0.83965 0.35589 0.75375 0.0
H2072 H 0.89338 0.46833 0.76238 0.0
H2073 H 0.80609 0.37782 0.81522 0.0
H2074 H 0.85171 0.39822 0.75056 0.0
H2075 H 0.854 0.4389 0.82852 0.0
C2076 C 0.88034 0.46524 0.81947 0.0
C2077 C 0.89145 0.47369 0.8009 0.0
C2078 C 0.84154 0.39389 0.76478 0.0
C2079 C 0.85554 0.4347 0.78966 0.0
C2080 C 0.83484 0.36961 0.76676 0.0
C2081 C 0.82444 0.36373 0.78685 0.0
C2082 C 0.83873 0.41198 0.78384 0.0
C2083 C 0.81676 0.38197 0.80166 0.0
C2084 C 0.86231 0.4456 0.81393 0.0
C2085 C 0.88513 0.46171 0.77704 0.0
N2086 N 0.82507 0.40579 0.80074 0.0
N2087 N 0.86736 0.44261 0.772 0.0
H2088 H 0.11898 0.90294 0.11474 0.0
H2089 H 0.06476 0.97228 0.0208 0.0
H2090 H 0.07341 0.86104 0.05409 0.0
H2091 H 0.09585 1.00573 0.09248 0.0
H2092 H 0.06963 0.93177 0.02882 0.0
H2093 H 0.11364 0.94085 0.10275 0.0
C2094 C 0.10791 0.90161 0.09874 0.0
C2095 C 0.09671 0.87843 0.08552 0.0
C2096 C 0.07539 0.94808 0.0427 0.0
C2097 C 0.09021 0.92268 0.07148 0.0
C2098 C 0.07252 0.97127 0.03814 0.0
C2099 C 0.0795 0.99279 0.05606 0.0
C2100 C 0.08601 0.94646 0.06504 0.0
C2101 C 0.08986 0.99 0.07801 0.0
C2102 C 0.10477 0.92345 0.09189 0.0
C2103 C 0.08255 0.87834 0.06488 0.0
N2104 N 0.09284 0.96768 0.08169 0.0
N2105 N 0.07967 0.9 0.05854 0.0
H2106 H 0.94271 0.28446 0.93165 0.0
H2107 H 0.86693 0.26389 0.80622 0.0
H2108 H 0.96487 0.26115 0.8625 0.0
H2109 H 0.85326 0.30973 0.87025 0.0
H2110 H 0.90069 0.2595 0.82757 0.0
H2111 H 0.90847 0.29031 0.91106 0.0
C2112 C 0.94038 0.28038 0.91214 0.0
C2113 C 0.95695 0.27218 0.89893 0.0
C2114 C 0.89041 0.27057 0.83708 0.0
C2115 C 0.91722 0.27873 0.875 0.0
C2116 C 0.87096 0.27332 0.82472 0.0
C2117 C 0.85697 0.28775 0.83594 0.0
C2118 C 0.89619 0.28169 0.86147 0.0
C2119 C 0.86328 0.29849 0.86053 0.0
C2120 C 0.92077 0.28387 0.90036 0.0
C2121 C 0.95278 0.26747 0.8736 0.0
N2122 N 0.88223 0.29518 0.87239 0.0
N2123 N 0.93345 0.27062 0.86261 0.0
H2124 H 0.56345 0.23037 0.61595 0.0
H2125 H 0.5701 0.10669 0.52821 0.0
H2126 H 0.60668 0.23624 0.55937 0.0
H2127 H 0.56608 0.11338 0.60469 0.0
H2128 H 0.57868 0.15221 0.53369 0.0
H2129 H 0.5574 0.18582 0.60571 0.0
C2130 C 0.57171 0.22236 0.60126 0.0
C2131 C 0.58593 0.23742 0.58883 0.0
C2132 C 0.5762 0.14361 0.54924 0.0
C2133 C 0.57883 0.1855 0.57682 0.0
C2134 C 0.57155 0.11764 0.54618 0.0
C2135 C 0.56796 0.10605 0.56615 0.0
C2136 C 0.57629 0.15801 0.57226 0.0
C2137 C 0.56904 0.12132 0.58881 0.0
C2138 C 0.56824 0.19675 0.59546 0.0
C2139 C 0.59575 0.2255 0.56965 0.0
N2140 N 0.5728 0.14621 0.59115 0.0
N2141 N 0.59206 0.20023 0.56424 0.0
H2142 H 0.59818 0.76667 0.42828 0.0
H2143 H 0.65386 0.79815 0.30953 0.0
H2144 H 0.56317 0.78142 0.36623 0.0
H2145 H 0.69303 0.79232 0.37289 0.0
H2146 H 0.62014 0.78632 0.32877 0.0
H2147 H 0.63232 0.7711 0.40769 0.0
C2148 C 0.59764 0.77087 0.41035 0.0
C2149 C 0.57765 0.77375 0.39903 0.0
C2150 C 0.63601 0.78719 0.33847 0.0
C2151 C 0.61686 0.77891 0.3753 0.0
C2152 C 0.65533 0.79371 0.32732 0.0
C2153 C 0.67638 0.79603 0.33942 0.0
C2154 C 0.63743 0.78307 0.36223 0.0
C2155 C 0.67718 0.79045 0.36271 0.0
C2156 C 0.61718 0.77336 0.39858 0.0
C2157 C 0.57804 0.77892 0.37569 0.0
N2158 N 0.65803 0.78445 0.37343 0.0
N2159 N 0.59721 0.78144 0.36476 0.0
H2160 H 0.1171 0.24784 0.40525 0.0
H2161 H 0.07293 0.21267 0.52619 0.0
H2162 H 0.10871 0.29958 0.46797 0.0
H2163 H 0.07396 0.15838 0.46272 0.0
H2164 H 0.09392 0.24432 0.50737 0.0
H2165 H 0.10843 0.21451 0.42791 0.0
C2166 C 0.11368 0.25216 0.42387 0.0
C2167 C 0.11343 0.27632 0.43484 0.0
C2168 C 0.08983 0.22548 0.49756 0.0
C2169 C 0.10355 0.23868 0.46057 0.0
C2170 C 0.07789 0.2075 0.50833 0.0
C2171 C 0.07153 0.18325 0.49572 0.0
C2172 C 0.09504 0.21915 0.47383 0.0
C2173 C 0.07851 0.17712 0.4728 0.0
C2174 C 0.10878 0.23321 0.43674 0.0
C2175 C 0.1091 0.28116 0.45892 0.0
N2176 N 0.08963 0.19515 0.46229 0.0
N2177 N 0.10409 0.26243 0.4709 0.0
H2178 H 0.56859 0.29025 0.22174 0.0
H2179 H 0.67134 0.22865 0.20474 0.0
H2180 H 0.57512 0.24223 0.15556 0.0
H2181 H 0.67039 0.28985 0.26165 0.0
H2182 H 0.63784 0.23572 0.18401 0.0
H2183 H 0.60733 0.29272 0.23491 0.0
C2184 C 0.57827 0.28036 0.20994 0.0
C2185 C 0.56869 0.26576 0.18775 0.0
C2186 C 0.64516 0.24786 0.20083 0.0
C2187 C 0.61289 0.26837 0.20263 0.0
C2188 C 0.66412 0.24375 0.2126 0.0
C2189 C 0.67293 0.25835 0.23503 0.0
C2190 C 0.63514 0.26656 0.21186 0.0
C2191 C 0.66352 0.27793 0.24457 0.0
C2192 C 0.60041 0.28188 0.21736 0.0
C2193 C 0.58194 0.25351 0.17296 0.0
N2194 N 0.64489 0.2813 0.23305 0.0
N2195 N 0.60337 0.25481 0.18082 0.0
H2196 H 0.63509 0.90137 0.96202 0.0
H2197 H 0.57579 1.00835 0.93766 0.0
H2198 H 0.62323 0.91713 0.89102 0.0
H2199 H 0.57305 0.97657 1.00155 0.0
H2200 H 0.59814 0.97958 0.92109 0.0
H2201 H 0.62061 0.93691 0.97905 0.0
C2202 C 0.63011 0.91278 0.95013 0.0
C2203 C 0.62984 0.90615 0.92512 0.0
C2204 C 0.59283 0.97924 0.93891 0.0
C2205 C 0.61271 0.94597 0.94418 0.0
C2206 C 0.57987 0.99536 0.94822 0.0
C2207 C 0.57332 0.99541 0.97145 0.0
C2208 C 0.59924 0.96339 0.95312 0.0
C2209 C 0.57875 0.97806 0.98423 0.0
C2210 C 0.62156 0.93281 0.95978 0.0
C2211 C 0.62335 0.92153 0.91044 0.0
N2212 N 0.59161 0.96287 0.97501 0.0
N2213 N 0.61452 0.94054 0.92016 0.0
H2214 H 0.96156 0.75929 0.73572 0.0
H2215 H 0.8316 0.74559 0.70834 0.0
H2216 H 0.92909 0.76611 0.66824 0.0
H2217 H 0.86298 0.7597 0.78103 0.0
H2218 H 0.86779 0.74921 0.69317 0.0
H2219 H 0.92589 0.75632 0.75301 0.0
C2220 C 0.947 0.76044 0.72471 0.0
C2221 C 0.94815 0.76318 0.7007 0.0
C2222 C 0.8669 0.75155 0.71246 0.0
C2223 C 0.90782 0.75944 0.71995 0.0
C2224 C 0.84633 0.74941 0.72102 0.0
C2225 C 0.8448 0.75277 0.74578 0.0
C2226 C 0.88595 0.75669 0.72888 0.0
C2227 C 0.86393 0.75732 0.76176 0.0
C2228 C 0.92676 0.75872 0.73451 0.0
C2229 C 0.92893 0.7643 0.68696 0.0
N2230 N 0.88401 0.75927 0.75298 0.0
N2231 N 0.90951 0.7623 0.69678 0.0
H2232 H 0.16746 0.05659 0.8616 0.0
H2233 H 0.07674 0.99711 0.94714 0.0
H2234 H 0.12654 0.98376 0.83966 0.0
H2235 H 0.12327 0.06634 0.97076 0.0
H2236 H 0.09327 0.99214 0.90833 0.0
H2237 H 0.15047 0.06081 0.89999 0.0
C2238 C 0.155 0.04126 0.86464 0.0
C2239 C 0.14897 0.01964 0.84639 0.0
C2240 C 0.09995 1.00853 0.92187 0.0
C2241 C 0.12866 0.02451 0.89229 0.0
C2242 C 0.09038 0.01144 0.94445 0.0
C2243 C 0.09827 0.03225 0.96337 0.0
C2244 C 0.11773 0.02669 0.91695 0.0
C2245 C 0.11625 0.04979 0.95759 0.0
C2246 C 0.14514 0.04376 0.88698 0.0
C2247 C 0.13219 1.00092 0.85244 0.0
N2248 N 0.12497 0.04669 0.93547 0.0
N2249 N 0.12295 1.00375 0.87434 0.0
H2250 H 0.82017 0.37527 0.55712 0.0
H2251 H 0.85778 0.39497 0.68911 0.0
H2252 H 0.82741 0.44785 0.6007 0.0
H2253 H 0.81514 0.32685 0.6516 0.0
H2254 H 0.84309 0.4165 0.65996 0.0
H2255 H 0.8162 0.35775 0.593 0.0
C2256 C 0.8206 0.38747 0.57428 0.0
C2257 C 0.82418 0.41296 0.57618 0.0
C2258 C 0.83651 0.39697 0.65853 0.0
C2259 C 0.81942 0.3931 0.61713 0.0
C2260 C 0.8451 0.38477 0.67483 0.0
C2261 C 0.83826 0.35923 0.67162 0.0
C2262 C 0.82169 0.38312 0.63887 0.0
C2263 C 0.82121 0.34657 0.65384 0.0
C2264 C 0.81801 0.37745 0.5947 0.0
C2265 C 0.82478 0.42805 0.59873 0.0
N2266 N 0.81382 0.35861 0.63756 0.0
N2267 N 0.82276 0.41786 0.61861 0.0
H2268 H 0.44219 0.05659 0.39865 0.0
H2269 H 0.54185 0.01136 0.45587 0.0
H2270 H 0.49039 0.03113 0.35414 0.0
H2271 H 0.51696 0.07459 0.48769 0.0
H2272 H 0.51714 1.00729 0.41906 0.0
H2273 H 0.46245 0.04895 0.4337 0.0
C2274 C 0.45715 0.04962 0.39636 0.0
C2275 C 0.46542 0.0455 0.37396 0.0
C2276 C 0.51731 0.02194 0.43429 0.0
C2277 C 0.488 0.03656 0.41324 0.0
C2278 C 0.53155 0.02457 0.45489 0.0
C2279 C 0.53113 0.04321 0.47459 0.0
C2280 C 0.50277 0.03786 0.43409 0.0
C2281 C 0.51746 0.05978 0.47287 0.0
C2282 C 0.46842 0.04499 0.41614 0.0
C2283 C 0.48419 0.03545 0.37148 0.0
N2284 N 0.50353 0.05651 0.45294 0.0
N2285 N 0.49522 0.03157 0.39119 0.0
H2286 H 0.82413 0.76269 0.08584 0.0
H2287 H 0.79335 0.72423 0.20989 0.0
H2288 H 0.77343 0.69973 0.0916 0.0
H2289 H 0.81651 0.80105 0.20836 0.0
H2290 H 0.78997 0.71476 0.16604 0.0
H2291 H 0.82586 0.77717 0.13 0.0
C2292 C 0.81317 0.75212 0.09626 0.0
C2293 C 0.79859 0.72991 0.08495 0.0
C2294 C 0.7955 0.73379 0.17512 0.0
C2295 C 0.80054 0.74627 0.13521 0.0
C2296 C 0.79729 0.73923 0.2002 0.0
C2297 C 0.80435 0.76355 0.21281 0.0
C2298 C 0.80175 0.75264 0.16213 0.0
C2299 C 0.81012 0.78215 0.19929 0.0
C2300 C 0.81416 0.7604 0.12142 0.0
C2301 C 0.78503 0.71682 0.09942 0.0
N2302 N 0.80891 0.77629 0.17461 0.0
N2303 N 0.78643 0.72509 0.1236 0.0
H2304 H 0.12126 0.03641 0.71935 0.0
H2305 H 0.12283 1.00808 0.57283 0.0
H2306 H 0.16514 0.9968 0.68167 0.0
H2307 H 0.07328 0.04339 0.60433 0.0
H2308 H 0.13805 1.00587 0.61278 0.0
H2309 H 0.10418 0.04101 0.68004 0.0
C2310 C 0.12737 0.02842 0.70299 0.0
C2311 C 0.14508 0.01598 0.7048 0.0
C2312 C 0.12412 0.01458 0.61139 0.0
C2313 C 0.12488 0.02144 0.65809 0.0
C2314 C 0.11521 0.01607 0.58807 0.0
C2315 C 0.09667 0.02667 0.58391 0.0
C2316 C 0.115 0.02379 0.63236 0.0
C2317 C 0.08788 0.03578 0.60558 0.0
C2318 C 0.11745 0.03118 0.6802 0.0
C2319 C 0.15181 1.00656 0.68211 0.0
N2320 N 0.09705 0.03424 0.62837 0.0
N2321 N 0.14192 1.00943 0.66041 0.0
H2322 H 0.86127 0.42324 0.44245 0.0
H2323 H 0.81248 0.29383 0.35618 0.0
H2324 H 0.80039 0.37291 0.44939 0.0
H2325 H 0.86497 0.34903 0.33844 0.0
H2326 H 0.81454 0.31897 0.39604 0.0
H2327 H 0.86763 0.39374 0.40781 0.0
C2328 C 0.84909 0.40614 0.43631 0.0
C2329 C 0.83023 0.40023 0.44838 0.0
C2330 C 0.82575 0.32545 0.38344 0.0
C2331 C 0.8376 0.36663 0.40985 0.0
C2332 C 0.82454 0.31109 0.36072 0.0
C2333 C 0.8375 0.32013 0.34358 0.0
C2334 C 0.84007 0.34879 0.38882 0.0
C2335 C 0.85386 0.34194 0.35083 0.0
C2336 C 0.85287 0.38926 0.41692 0.0
C2337 C 0.81512 0.37788 0.44039 0.0
N2338 N 0.85431 0.35597 0.37285 0.0
N2339 N 0.81913 0.36181 0.4215 0.0
H2340 H 0.41549 0.02133 0.22864 0.0
H2341 H 0.51905 0.06524 0.15874 0.0
H2342 H 0.47635 0.07258 0.26032 0.0
H2343 H 0.47184 0.99618 0.13511 0.0
H2344 H 0.4957 0.07694 0.19006 0.0
H2345 H 0.42911 0.02048 0.18885 0.0
C2346 C 0.43156 0.03263 0.22714 0.0
C2347 C 0.44504 0.04684 0.24763 0.0
C2348 C 0.49025 0.05942 0.17773 0.0
C2349 C 0.46033 0.04613 0.2027 0.0
C2350 C 0.50353 0.05277 0.16003 0.0
C2351 C 0.4975 0.02948 0.1452 0.0
C2352 C 0.47096 0.04256 0.18045 0.0
C2353 C 0.4772 0.01397 0.14699 0.0
C2354 C 0.43922 0.03219 0.20454 0.0
C2355 C 0.46558 0.06127 0.24491 0.0
N2356 N 0.46466 0.02065 0.1647 0.0
N2357 N 0.47272 0.06037 0.22279 0.0
H2358 H 0.82046 0.75654 0.95746 0.0
H2359 H 0.77812 0.71125 0.81651 0.0
H2360 H 0.77742 0.68634 0.92627 0.0
H2361 H 0.82788 0.77748 0.84393 0.0
H2362 H 0.77762 0.70258 0.85706 0.0
H2363 H 0.82278 0.76603 0.91666 0.0
C2364 C 0.81135 0.74327 0.94211 0.0
C2365 C 0.79865 0.72065 0.94528 0.0
C2366 C 0.7886 0.71916 0.85426 0.0
C2367 C 0.80124 0.73127 0.89874 0.0
C2368 C 0.78898 0.72411 0.83095 0.0
C2369 C 0.80258 0.7457 0.82657 0.0
C2370 C 0.80196 0.73584 0.8736 0.0
C2371 C 0.8164 0.76131 0.84629 0.0
C2372 C 0.81278 0.74861 0.91884 0.0
C2373 C 0.78743 0.70398 0.92473 0.0
N2374 N 0.81562 0.75623 0.8689 0.0
N2375 N 0.78894 0.70965 0.90248 0.0
H2376 H 0.86042 0.14663 0.02492 0.0
H2377 H 0.92369 0.04238 0.0451 0.0
H2378 H 0.83488 0.08682 0.0606 0.0
H2379 H 0.93951 0.09088 0.99489 0.0
H2380 H 0.89818 0.06729 0.0621 0.0
H2381 H 0.89595 0.1346 0.02467 0.0
C2382 C 0.86248 0.13116 0.03307 0.0
C2383 C 0.84478 0.11728 0.04241 0.0
C2384 C 0.90748 0.07265 0.04759 0.0
C2385 C 0.88518 0.10361 0.04228 0.0
C2386 C 0.9218 0.05845 0.0379 0.0
C2387 C 0.93265 0.0643 0.01812 0.0
C2388 C 0.90421 0.09259 0.03722 0.0
C2389 C 0.9306 0.08554 0.00966 0.0
C2390 C 0.88274 0.12439 0.03298 0.0
C2391 C 0.84813 0.09753 0.05277 0.0
N2392 N 0.91625 0.09883 0.01906 0.0
N2393 N 0.86801 0.09106 0.05223 0.0
H2394 H 0.40659 0.41529 0.07001 0.0
H2395 H 0.48583 0.51956 0.01508 0.0
H2396 H 0.38244 0.45804 0.02253 0.0
H2397 H 0.51084 0.47695 0.06196 0.0
H2398 H 0.44785 0.49738 0.01794 0.0
H2399 H 0.44466 0.43797 0.06817 0.0
C2400 C 0.40927 0.4295 0.05928 0.0
C2401 C 0.39121 0.43484 0.04656 0.0
C2402 C 0.46156 0.49303 0.02788 0.0
C2403 C 0.4349 0.46076 0.04408 0.0
C2404 C 0.48323 0.5058 0.02634 0.0
C2405 C 0.50143 0.50037 0.03867 0.0
C2406 C 0.45793 0.47475 0.04206 0.0
C2407 C 0.49722 0.48186 0.05241 0.0
C2408 C 0.43104 0.44243 0.05818 0.0
C2409 C 0.39577 0.45344 0.03288 0.0
N2410 N 0.47596 0.46982 0.05385 0.0
N2411 N 0.41705 0.46559 0.03194 0.0
H2412 H 0.42861 0.654 0.75448 0.0
H2413 H 0.33684 0.73492 0.79855 0.0
H2414 H 0.37841 0.62614 0.79779 0.0
H2415 H 0.36972 0.74137 0.73462 0.0
H2416 H 0.35343 0.69909 0.80256 0.0
H2417 H 0.41027 0.68838 0.75118 0.0
C2418 C 0.4138 0.65487 0.76352 0.0
C2419 C 0.40556 0.63599 0.7764 0.0
C2420 C 0.35707 0.70821 0.78754 0.0
C2421 C 0.38375 0.67769 0.77305 0.0
C2422 C 0.34726 0.72899 0.78509 0.0
C2423 C 0.35091 0.74193 0.7657 0.0
C2424 C 0.37177 0.69992 0.77111 0.0
C2425 C 0.36566 0.73266 0.7498 0.0
C2426 C 0.40311 0.67493 0.76154 0.0
C2427 C 0.38591 0.63943 0.78742 0.0
N2428 N 0.37529 0.71309 0.75292 0.0
N2429 N 0.37615 0.6594 0.7857 0.0
H2430 H 0.22043 0.57201 0.50121 0.0
H2431 H 0.11189 0.61292 0.53944 0.0
H2432 H 0.21767 0.61781 0.57005 0.0
H2433 H 0.11111 0.54971 0.48435 0.0
H2434 H 0.15082 0.61414 0.55202 0.0
H2435 H 0.17985 0.56073 0.49621 0.0
C2436 C 0.21128 0.57906 0.51554 0.0
C2437 C 0.22222 0.59599 0.53587 0.0
C2438 C 0.14187 0.59944 0.53773 0.0
C2439 C 0.17625 0.58387 0.53015 0.0
C2440 C 0.11974 0.59874 0.53074 0.0
C2441 C 0.10817 0.58024 0.51203 0.0
C2442 C 0.15233 0.58179 0.52539 0.0
C2443 C 0.11924 0.56328 0.4999 0.0
C2444 C 0.18818 0.57279 0.51268 0.0
C2445 C 0.20973 0.60489 0.55392 0.0
N2446 N 0.14075 0.56436 0.50684 0.0
N2447 N 0.18733 0.59906 0.55044 0.0
H2448 H 0.71088 0.99078 0.7698 0.0
H2449 H 0.78607 0.8983 0.74918 0.0
H2450 H 0.7374 0.97464 0.70165 0.0
H2451 H 0.74242 0.90164 0.80554 0.0
H2452 H 0.76332 0.91899 0.7265 0.0
H2453 H 0.71809 0.95311 0.77972 0.0
C2454 C 0.71815 0.97892 0.75691 0.0
C2455 C 0.72402 0.98543 0.73523 0.0
C2456 C 0.75826 0.91442 0.74342 0.0
C2457 C 0.73206 0.94237 0.746 0.0
C2458 C 0.77123 0.90274 0.75631 0.0
C2459 C 0.76625 0.89929 0.77939 0.0
C2460 C 0.74061 0.92265 0.75409 0.0
C2461 C 0.74693 0.90483 0.78802 0.0
C2462 C 0.72199 0.9573 0.76233 0.0
C2463 C 0.73328 0.97 0.71882 0.0
N2464 N 0.73492 0.91671 0.77546 0.0
N2465 N 0.73735 0.949 0.72471 0.0
H2466 H 0.78199 0.95399 0.56704 0.0
H2467 H 0.66533 0.94185 0.49276 0.0
H2468 H 0.7486 0.88936 0.51527 0.0
H2469 H 0.69374 1.00282 0.55061 0.0
H2470 H 0.69377 0.92037 0.504 0.0
H2471 H 0.74853 0.97069 0.56426 0.0
C2472 C 0.76759 0.94328 0.55519 0.0
C2473 C 0.76817 0.92041 0.54113 0.0
C2474 C 0.69369 0.9383 0.5145 0.0
C2475 C 0.7299 0.93937 0.5378 0.0
C2476 C 0.67742 0.95047 0.50811 0.0
C2477 C 0.67743 0.9741 0.52072 0.0
C2478 C 0.71036 0.9501 0.53333 0.0
C2479 C 0.69331 0.98458 0.54049 0.0
C2480 C 0.74847 0.95276 0.55367 0.0
C2481 C 0.74896 0.90716 0.52629 0.0
N2482 N 0.70941 0.97267 0.54598 0.0
N2483 N 0.73073 0.91694 0.52483 0.0
H2484 H 0.39253 0.50181 0.81283 0.0
H2485 H 0.3557 0.36014 0.73766 0.0
H2486 H 0.4037 0.4816 0.73849 0.0
H2487 H 0.33526 0.3829 0.80766 0.0
H2488 H 0.37457 0.4033 0.7382 0.0
H2489 H 0.37357 0.45877 0.81204 0.0
C2490 C 0.39096 0.48852 0.79619 0.0
C2491 C 0.39989 0.49622 0.77563 0.0
C2492 C 0.36598 0.39902 0.75351 0.0
C2493 C 0.37772 0.44534 0.77464 0.0
C2494 C 0.35507 0.37411 0.75319 0.0
C2495 C 0.34328 0.36728 0.77246 0.0
C2496 C 0.36588 0.41795 0.77353 0.0
C2497 C 0.3436 0.38683 0.79208 0.0
C2498 C 0.38002 0.46362 0.79578 0.0
C2499 C 0.3972 0.47724 0.75488 0.0
N2500 N 0.35459 0.41075 0.79213 0.0
N2501 N 0.38659 0.45319 0.75498 0.0
H2502 H 0.27129 0.61637 0.2484 0.0
H2503 H 0.24724 0.74725 0.29859 0.0
H2504 H 0.20702 0.63476 0.24187 0.0
H2505 H 0.31365 0.73508 0.29587 0.0
H2506 H 0.2325 0.70511 0.27771 0.0
H2507 H 0.28808 0.65988 0.26365 0.0
C2508 C 0.26083 0.62965 0.24982 0.0
C2509 C 0.23781 0.62219 0.24442 0.0
C2510 C 0.2503 0.71146 0.28174 0.0
C2511 C 0.25655 0.67118 0.26201 0.0
C2512 C 0.25859 0.73528 0.29387 0.0
C2513 C 0.28143 0.74397 0.29866 0.0
C2514 C 0.26512 0.69643 0.27468 0.0
C2515 C 0.29584 0.72847 0.29229 0.0
C2516 C 0.27036 0.65433 0.25856 0.0
C2517 C 0.22485 0.63984 0.24626 0.0
N2518 N 0.28737 0.70514 0.28037 0.0
N2519 N 0.23442 0.6636 0.25524 0.0
H2520 H 0.53235 0.72826 0.50479 0.0
H2521 H 0.55238 0.58952 0.48126 0.0
H2522 H 0.52191 0.68114 0.43463 0.0
H2523 H 0.55003 0.63054 0.55227 0.0
H2524 H 0.54566 0.62468 0.46401 0.0
H2525 H 0.54229 0.69466 0.52243 0.0
C2526 C 0.53198 0.71083 0.49305 0.0
C2527 C 0.52599 0.7077 0.46807 0.0
C2528 C 0.54683 0.62619 0.48339 0.0
C2529 C 0.53786 0.66884 0.48834 0.0
C2530 C 0.5509 0.60614 0.49328 0.0
C2531 C 0.55204 0.60707 0.51833 0.0
C2532 C 0.54377 0.64761 0.49855 0.0
C2533 C 0.54946 0.629 0.53291 0.0
C2534 C 0.53776 0.6916 0.50318 0.0
C2535 C 0.52616 0.68457 0.45394 0.0
N2536 N 0.5455 0.64828 0.52288 0.0
N2537 N 0.532 0.66625 0.46418 0.0
H2538 H 0.64014 0.32862 0.69714 0.0
H2539 H 0.76532 0.3096 0.71462 0.0
H2540 H 0.67859 0.31243 0.63787 0.0
H2541 H 0.72742 0.32704 0.77413 0.0
H2542 H 0.73432 0.31157 0.68668 0.0
H2543 H 0.67188 0.32889 0.72541 0.0
C2544 C 0.65529 0.32522 0.68999 0.0
C2545 C 0.65651 0.32054 0.66489 0.0
C2546 C 0.73274 0.31506 0.70584 0.0
C2547 C 0.69335 0.32075 0.69759 0.0
C2548 C 0.75057 0.314 0.72198 0.0
C2549 C 0.74933 0.31821 0.74713 0.0
C2550 C 0.7131 0.32025 0.71457 0.0
C2551 C 0.72948 0.32377 0.75513 0.0
C2552 C 0.67349 0.32536 0.70625 0.0
C2553 C 0.67673 0.31619 0.65695 0.0
N2554 N 0.71227 0.32451 0.73901 0.0
N2555 N 0.6942 0.31636 0.67315 0.0
H2556 H 0.9934 0.33809 0.98285 0.0
H2557 H 0.06864 0.47074 0.03648 0.0
H2558 H 0.06284 0.35348 0.97219 0.0
H2559 H 0.00993 0.46338 0.98861 0.0
H2560 H 0.06453 0.42572 0.02677 0.0
H2561 H 0.99671 0.38217 0.9995 0.0
C2562 C 0.00942 0.35064 0.98445 0.0
C2563 C 0.02785 0.34212 0.97602 0.0
C2564 C 0.05204 0.43397 0.01924 0.0
C2565 C 0.03182 0.39233 0.99555 0.0
C2566 C 0.05423 0.45961 0.02491 0.0
C2567 C 0.03886 0.4709 0.01434 0.0
C2568 C 0.03391 0.41935 1.00353 0.0
C2569 C 0.02119 0.45555 0.9985 0.0
C2570 C 0.01125 0.37574 0.99383 0.0
C2571 C 0.04819 0.35929 0.97835 0.0
N2572 N 0.019 0.43061 0.99385 0.0
N2573 N 0.04968 0.38352 0.98801 0.0
H2574 H 0.0581 0.79473 0.18101 0.0
H2575 H 0.92937 0.79298 0.18977 0.0
H2576 H 0.02126 0.82401 0.13027 0.0
H2577 H 0.97432 0.78143 0.24577 0.0
H2578 H 0.96125 0.80427 0.1667 0.0
H2579 H 0.02582 0.78779 0.20312 0.0
C2580 C 0.04324 0.80005 0.17471 0.0
C2581 C 0.04249 0.81031 0.15399 0.0
C2582 C 0.96405 0.79945 0.18414 0.0
C2583 C 0.00511 0.80249 0.17948 0.0
C2584 C 0.94592 0.79317 0.19735 0.0
C2585 C 0.94916 0.78586 0.21956 0.0
C2586 C 0.98541 0.79831 0.19328 0.0
C2587 C 0.97094 0.78641 0.22853 0.0
C2588 C 0.02472 0.79606 0.18736 0.0
C2589 C 0.02252 0.81619 0.14629 0.0
N2590 N 0.98807 0.79224 0.21532 0.0
N2591 N 0.00456 0.81226 0.15911 0.0
H2592 H 0.54273 0.33411 0.15404 0.0
H2593 H 0.52687 0.37849 0.0295 0.0
H2594 H 0.49122 0.29578 0.09734 0.0
H2595 H 0.59023 0.39227 0.0715 0.0
H2596 H 0.50985 0.35514 0.05879 0.0
H2597 H 0.55658 0.36316 0.12826 0.0
C2598 C 0.5341 0.33219 0.13633 0.0
C2599 C 0.51592 0.31268 0.12759 0.0
C2600 C 0.52748 0.36322 0.0615 0.0
C2601 C 0.53149 0.34551 0.09835 0.0
C2602 C 0.53713 0.3763 0.04482 0.0
C2603 C 0.55996 0.38637 0.04792 0.0
C2604 C 0.54078 0.36076 0.08149 0.0
C2605 C 0.57266 0.38394 0.06829 0.0
C2606 C 0.54207 0.34858 0.12165 0.0
C2607 C 0.50539 0.31061 0.10452 0.0
N2608 N 0.56287 0.37128 0.08443 0.0
N2609 N 0.51337 0.32689 0.09059 0.0
H2610 H 0.06972 0.33858 0.33354 0.0
H2611 H 0.94575 0.32587 0.32025 0.0
H2612 H 0.03649 0.32945 0.39728 0.0
H2613 H 0.98796 0.38513 0.29473 0.0
H2614 H 0.97654 0.32432 0.34817 0.0
H2615 H 0.03793 0.3512 0.31653 0.0
C2616 C 0.05557 0.33894 0.34385 0.0
C2617 C 0.05548 0.3327 0.36669 0.0
C2618 C 0.97878 0.33806 0.33688 0.0
C2619 C 0.01934 0.34737 0.34742 0.0
C2620 C 0.96121 0.33912 0.3209 0.0
C2621 C 0.96427 0.35553 0.30472 0.0
C2622 C 0.99963 0.35288 0.33608 0.0
C2623 C 0.98498 0.3717 0.30627 0.0
C2624 C 0.03767 0.34658 0.3343 0.0
C2625 C 0.03694 0.33393 0.37948 0.0
N2626 N 1.00209 0.36954 0.32127 0.0
N2627 N 0.01925 0.34081 0.36944 0.0
H2628 H 0.99485 0.66911 0.65674 0.0
H2629 H 0.01051 0.62652 0.52199 0.0
H2630 H 0.96318 0.69302 0.59793 0.0
H2631 H 0.03602 0.59687 0.58033 0.0
H2632 H 0.98601 0.64405 0.54849 0.0
H2633 H 1.00033 0.63356 0.62862 0.0
C2634 C 0.98829 0.66635 0.63804 0.0
C2635 C 0.97958 0.68446 0.62927 0.0
C2636 C 0.99678 0.63345 0.55544 0.0
C2637 C 0.98635 0.64461 0.59712 0.0
C2638 C 0.01095 0.62371 0.54035 0.0
C2639 C 0.02568 0.61084 0.54915 0.0
C2640 C 0.99751 0.63032 0.57952 0.0
C2641 C 0.02549 0.60749 0.57307 0.0
C2642 C 0.99156 0.64615 0.62192 0.0
C2643 C 0.97083 0.67983 0.6051 0.0
N2644 N 0.01173 0.61737 0.58751 0.0
N2645 N 0.9751 0.66066 0.58959 0.0
H2646 H 0.64839 0.82539 0.81931 0.0
H2647 H 0.76462 0.78737 0.8122 0.0
H2648 H 0.69359 0.82646 0.88097 0.0
H2649 H 0.72448 0.79254 0.74905 0.0
H2650 H 0.73659 0.7984 0.83717 0.0
H2651 H 0.67524 0.81283 0.79271 0.0
C2652 C 0.66409 0.82315 0.82717 0.0
C2653 C 0.66885 0.82647 0.85219 0.0
C2654 C 0.73365 0.79688 0.81786 0.0
C2655 C 0.69909 0.81191 0.82222 0.0
C2656 C 0.74946 0.79021 0.8036 0.0
C2657 C 0.7463 0.78852 0.77867 0.0
C2658 C 0.71489 0.8026 0.8071 0.0
C2659 C 0.72702 0.79329 0.76829 0.0
C2660 C 0.67928 0.81593 0.81205 0.0
C2661 C 0.68936 0.82386 0.86171 0.0
N2662 N 0.71186 0.8003 0.78269 0.0
N2663 N 0.70373 0.81644 0.8466 0.0
H2664 H 0.49756 0.60921 0.72371 0.0
H2665 H 0.51575 0.5259 0.59629 0.0
H2666 H 0.46485 0.53335 0.69855 0.0
H2667 H 0.55098 0.60141 0.61764 0.0
H2668 H 0.49891 0.52896 0.63414 0.0
H2669 H 0.5173 0.60782 0.68684 0.0
C2670 C 0.49452 0.59212 0.71068 0.0
C2671 C 0.47909 0.57135 0.71499 0.0
C2672 C 0.51017 0.54507 0.63074 0.0
C2673 C 0.50251 0.56952 0.67157 0.0
C2674 C 0.52022 0.5433 0.60874 0.0
C2675 C 0.53554 0.56322 0.60282 0.0
C2676 C 0.51436 0.56734 0.64778 0.0
C2677 C 0.53968 0.58519 0.62074 0.0
C2678 C 0.50594 0.59136 0.68933 0.0
C2679 C 0.47621 0.55003 0.69662 0.0
N2680 N 0.52917 0.58665 0.64185 0.0
N2681 N 0.48761 0.54972 0.67633 0.0
H2682 H 0.81806 0.18061 0.97518 0.0
H2683 H 0.72263 0.23169 0.91388 0.0
H2684 H 0.74986 0.14069 0.96192 0.0
H2685 H 0.79096 0.27052 0.93124 0.0
H2686 H 0.73228 0.19578 0.92726 0.0
H2687 H 0.80919 0.20997 0.95161 0.0
C2688 C 0.8014 0.17751 0.96633 0.0
C2689 C 0.78462 0.15843 0.97034 0.0
C2690 C 0.74509 0.21225 0.92827 0.0
C2691 C 0.77401 0.19245 0.94464 0.0
C2692 C 0.73949 0.23279 0.92116 0.0
C2693 C 0.75599 0.25402 0.92206 0.0
C2694 C 0.7673 0.21319 0.9361 0.0
C2695 C 0.77777 0.2545 0.93074 0.0
C2696 C 0.79621 0.19446 0.95325 0.0
C2697 C 0.76322 0.15519 0.95894 0.0
N2698 N 0.78281 0.23432 0.93736 0.0
N2699 N 0.75832 0.17252 0.947 0.0
H2700 H 0.17386 0.58262 0.17114 0.0
H2701 H 0.07677 0.48433 0.08991 0.0
H2702 H 0.17172 0.50493 0.16222 0.0
H2703 H 0.07266 0.55821 0.12109 0.0
H2704 H 0.11143 0.48967 0.11534 0.0
H2705 H 0.13867 0.57351 0.14591 0.0
C2706 C 0.16637 0.5637 0.16278 0.0
C2707 C 0.17524 0.5444 0.16838 0.0
C2708 C 0.10254 0.50441 0.11721 0.0
C2709 C 0.13487 0.53377 0.14156 0.0
C2710 C 0.08254 0.50109 0.10329 0.0
C2711 C 0.07249 0.52104 0.10352 0.0
C2712 C 0.11198 0.52779 0.13099 0.0
C2713 C 0.08033 0.54255 0.12065 0.0
C2714 C 0.14609 0.55844 0.1491 0.0
C2715 C 0.16514 0.52013 0.15781 0.0
N2716 N 0.10023 0.54577 0.1333 0.0
N2717 N 0.14498 0.51534 0.14518 0.0
H2718 H 0.83258 0.82286 0.47504 0.0
H2719 H 0.81744 0.84157 0.33833 0.0
H2720 H 0.81349 0.88589 0.45374 0.0
H2721 H 0.81817 0.77077 0.35616 0.0
H2722 H 0.82216 0.85981 0.38133 0.0
H2723 H 0.83244 0.80466 0.4322 0.0
C2724 C 0.82836 0.83283 0.46138 0.0
C2725 C 0.8231 0.85594 0.46795 0.0
C2726 C 0.82166 0.84035 0.37592 0.0
C2727 C 0.82315 0.83546 0.41917 0.0
C2728 C 0.81923 0.83004 0.3514 0.0
C2729 C 0.81793 0.80481 0.34387 0.0
C2730 C 0.82265 0.82528 0.39305 0.0
C2731 C 0.81949 0.79041 0.36142 0.0
C2732 C 0.8283 0.82248 0.437 0.0
C2733 C 0.81772 0.86807 0.44954 0.0
N2734 N 0.82182 0.80085 0.38527 0.0
N2735 N 0.81796 0.85774 0.42607 0.0
H2736 H 0.46705 0.59193 0.87209 0.0
H2737 H 0.55161 0.52293 0.93827 0.0
H2738 H 0.49838 0.5398 0.83042 0.0
H2739 H 0.51073 0.56753 0.97509 0.0
H2740 H 0.53531 0.52954 0.89929 0.0
H2741 H 0.48545 0.58478 0.90922 0.0
C2742 C 0.47781 0.57898 0.87047 0.0
C2743 C 0.48074 0.56665 0.84723 0.0
C2744 C 0.52995 0.53799 0.91593 0.0
C2745 C 0.50263 0.55791 0.89136 0.0
C2746 C 0.53936 0.53409 0.93856 0.0
C2747 C 0.5327 0.54416 0.96108 0.0
C2748 C 0.51387 0.55272 0.91511 0.0
C2749 C 0.51671 0.55883 0.95898 0.0
C2750 C 0.48846 0.57479 0.89205 0.0
C2751 C 0.49529 0.55006 0.84741 0.0
N2752 N 0.50825 0.56257 0.93713 0.0
N2753 N 0.50542 0.54627 0.86864 0.0
H2754 H 0.79695 0.16495 0.12058 0.0
H2755 H 0.77673 0.29138 0.18598 0.0
H2756 H 0.77248 0.21157 0.07735 0.0
H2757 H 0.83364 0.26223 0.20323 0.0
H2758 H 0.76824 0.26059 0.14803 0.0
H2759 H 0.80146 0.19792 0.15585 0.0
C2760 C 0.79231 0.18202 0.11864 0.0
C2761 C 0.78494 0.18604 0.09619 0.0
C2762 C 0.78289 0.2616 0.15999 0.0
C2763 C 0.79008 0.22331 0.13582 0.0
C2764 C 0.78786 0.27921 0.1812 0.0
C2765 C 0.80608 0.27935 0.19709 0.0
C2766 C 0.796 0.24411 0.15567 0.0
C2767 C 0.81978 0.26294 0.191 0.0
C2768 C 0.79498 0.20076 0.13858 0.0
C2769 C 0.77876 0.20823 0.09445 0.0
N2770 N 0.81426 0.24562 0.17082 0.0
N2771 N 0.78166 0.22636 0.11416 0.0
H2772 H 0.14708 0.51848 0.2807 0.0
H2773 H 0.13176 0.61562 0.39154 0.0
H2774 H 0.20104 0.57631 0.31859 0.0
H2775 H 0.08388 0.54754 0.36544 0.0
H2776 H 0.15925 0.59888 0.36852 0.0
H2777 H 0.12549 0.52527 0.31488 0.0
C2778 C 0.15449 0.53231 0.29643 0.0
C2779 C 0.17562 0.54718 0.29676 0.0
C2780 C 0.14281 0.58747 0.36799 0.0
C2781 C 0.15101 0.5554 0.33558 0.0
C2782 C 0.12715 0.59713 0.38087 0.0
C2783 C 0.10556 0.5831 0.37958 0.0
C2784 C 0.13654 0.56387 0.3534 0.0
C2785 C 0.10035 0.55899 0.36633 0.0
C2786 C 0.14222 0.53616 0.31596 0.0
C2787 C 0.18466 0.56463 0.31761 0.0
N2788 N 0.11567 0.55024 0.35333 0.0
N2789 N 0.17209 0.56865 0.33605 0.0
H2790 H 0.80332 0.88584 0.61839 0.0
H2791 H 0.79218 0.76283 0.67218 0.0
H2792 H 0.81408 0.81819 0.57725 0.0
H2793 H 0.77864 0.83077 0.7093 0.0
H2794 H 0.79677 0.78061 0.63571 0.0
H2795 H 0.79159 0.86432 0.65057 0.0
C2796 C 0.80331 0.86642 0.61617 0.0
C2797 C 0.80996 0.85388 0.59521 0.0
C2798 C 0.79237 0.79143 0.6517 0.0
C2799 C 0.7964 0.8289 0.63218 0.0
C2800 C 0.78947 0.78118 0.6724 0.0
C2801 C 0.785 0.7954 0.69371 0.0
C2802 C 0.79072 0.81599 0.65245 0.0
C2803 C 0.78221 0.81927 0.69325 0.0
C2804 C 0.79647 0.85406 0.63454 0.0
C2805 C 0.80925 0.8286 0.59322 0.0
N2806 N 0.78528 0.82884 0.67306 0.0
N2807 N 0.80276 0.81695 0.61157 0.0
H2808 H 0.75429 0.44053 0.52318 0.0
H2809 H 0.72214 0.57084 0.5382 0.0
H2810 H 0.79362 0.5052 0.50367 0.0
H2811 H 0.68848 0.51084 0.56908 0.0
H2812 H 0.74302 0.54334 0.51622 0.0
H2813 H 0.72444 0.46241 0.53076 0.0
C2814 C 0.75634 0.45915 0.51995 0.0
C2815 C 0.7763 0.47143 0.51318 0.0
C2816 C 0.73107 0.53614 0.5278 0.0
C2817 C 0.74275 0.49627 0.52175 0.0
C2818 C 0.71948 0.55186 0.54045 0.0
C2819 C 0.70464 0.54307 0.55606 0.0
C2820 C 0.72769 0.51165 0.53101 0.0
C2821 C 0.70064 0.51823 0.5578 0.0
C2822 C 0.73942 0.47159 0.52432 0.0
C2823 C 0.77846 0.49541 0.50926 0.0
N2824 N 0.71242 0.5033 0.54561 0.0
N2825 N 0.76188 0.50722 0.51387 0.0
H2826 H 0.23437 0.1319 0.46716 0.0
H2827 H 0.14228 0.0757 0.54412 0.0
H2828 H 0.22479 0.16759 0.53828 0.0
H2829 H 0.12504 0.06764 0.4678 0.0
H2830 H 0.17724 0.10256 0.54106 0.0
H2831 H 0.19833 0.10283 0.46558 0.0
C2832 C 0.22464 0.13364 0.48237 0.0
C2833 C 0.23248 0.15215 0.50291 0.0
C2834 C 0.16586 0.09498 0.52492 0.0
C2835 C 0.19191 0.11876 0.50146 0.0
C2836 C 0.14563 0.07967 0.52667 0.0
C2837 C 0.13013 0.07005 0.50638 0.0
C2838 C 0.1711 0.10059 0.50259 0.0
C2839 C 0.13643 0.07488 0.48396 0.0
C2840 C 0.20414 0.11714 0.4814 0.0
C2841 C 0.21928 0.15372 0.52207 0.0
N2842 N 0.15648 0.09 0.48262 0.0
N2843 N 0.19985 0.13705 0.52102 0.0
H2844 H 0.19314 0.92479 0.7786 0.0
H2845 H 0.30607 0.87302 0.75331 0.0
H2846 H 0.25244 0.97436 0.76724 0.0
H2847 H 0.25627 0.84097 0.79496 0.0
H2848 H 0.28656 0.90719 0.75231 0.0
H2849 H 0.21431 0.89215 0.77832 0.0
C2850 C 0.21058 0.92912 0.77597 0.0
C2851 C 0.22041 0.95334 0.7731 0.0
C2852 C 0.2798 0.89268 0.7617 0.0
C2853 C 0.24581 0.91415 0.7723 0.0
C2854 C 0.29129 0.87283 0.76245 0.0
C2855 C 0.2839 0.85332 0.77495 0.0
C2856 C 0.25967 0.89331 0.77258 0.0
C2857 C 0.26359 0.85502 0.78533 0.0
C2858 C 0.2229 0.91009 0.77583 0.0
C2859 C 0.2435 0.95654 0.76966 0.0
N2860 N 0.25257 0.87384 0.78373 0.0
N2861 N 0.255 0.93764 0.76923 0.0
H2862 H 0.39394 0.94606 0.99503 0.0
H2863 H 0.49993 0.04384 0.04917 0.0
H2864 H 0.39896 0.98455 0.06872 0.0
H2865 H 0.47971 0.01374 0.97417 0.0
H2866 H 0.46177 0.02982 0.05792 0.0
H2867 H 0.4253 0.97571 0.98786 0.0
C2868 C 0.40243 0.96029 0.01005 0.0
C2869 C 0.39437 0.96294 0.03256 0.0
C2870 C 0.46568 0.0274 0.03938 0.0
C2871 C 0.43005 0.99742 0.02454 0.0
C2872 C 0.48749 0.03475 0.03444 0.0
C2873 C 0.49326 0.02821 0.01095 0.0
C2874 C 0.44992 0.0143 0.02033 0.0
C2875 C 0.47645 0.01882 0.99231 0.0
C2876 C 0.41993 0.97775 0.00581 0.0
C2877 C 0.40522 0.9821 0.05122 0.0
N2878 N 0.45546 0.01204 0.99739 0.0
N2879 N 0.42291 0.99875 0.04689 0.0
H2880 H 0.88059 0.61063 0.83638 0.0
H2881 H 0.82391 0.60929 0.70605 0.0
H2882 H 0.90434 0.58272 0.76938 0.0
H2883 H 0.80539 0.64927 0.77119 0.0
H2884 H 0.85285 0.59826 0.72996 0.0
H2885 H 0.85333 0.62649 0.81364 0.0
C2886 C 0.88041 0.60865 0.81698 0.0
C2887 C 0.89481 0.59627 0.80452 0.0
C2888 C 0.84255 0.6096 0.73904 0.0
C2889 C 0.86347 0.61248 0.77869 0.0
C2890 C 0.82585 0.61559 0.72542 0.0
C2891 C 0.81234 0.63023 0.73667 0.0
C2892 C 0.8458 0.61844 0.76405 0.0
C2893 C 0.81574 0.63824 0.7618 0.0
C2894 C 0.86482 0.61729 0.80403 0.0
C2895 C 0.89382 0.59307 0.77945 0.0
N2896 N 0.83225 0.63226 0.77473 0.0
N2897 N 0.87814 0.60086 0.76726 0.0
H2898 H 0.82893 0.62569 0.99971 0.0
H2899 H 0.95053 0.63217 0.06058 0.0
H2900 H 0.87433 0.69433 0.03117 0.0
H2901 H 0.9014 0.5653 0.03375 0.0
H2902 H 0.9255 0.65574 0.04484 0.0
H2903 H 0.85795 0.60379 0.00657 0.0
C2904 C 0.84512 0.63618 0.00793 0.0
C2905 C 0.84917 0.66181 0.01519 0.0
C2906 C 0.92033 0.63589 0.04213 0.0
C2907 C 0.88254 0.63678 0.02334 0.0
C2908 C 0.93458 0.62252 0.05104 0.0
C2909 C 0.92771 0.59694 0.04859 0.0
C2910 C 0.89929 0.62341 0.0306 0.0
C2911 C 0.90704 0.58509 0.03618 0.0
C2912 C 0.86171 0.62366 0.01185 0.0
C2913 C 0.87052 0.67451 0.02549 0.0
N2914 N 0.8935 0.59843 0.02774 0.0
N2915 N 0.88641 0.66181 0.02955 0.0
H2916 H 0.25415 0.08174 0.78924 0.0
H2917 H 0.24887 0.22283 0.78278 0.0
H2918 H 0.1935 0.10548 0.77585 0.0
H2919 H 0.31079 0.20015 0.79109 0.0
H2920 H 0.22893 0.18055 0.78178 0.0
H2921 H 0.27517 0.12433 0.79134 0.0
C2922 C 0.24514 0.09579 0.78676 0.0
C2923 C 0.22175 0.08948 0.78234 0.0
C2924 C 0.24689 0.18469 0.78391 0.0
C2925 C 0.24615 0.13918 0.78481 0.0
C2926 C 0.25849 0.20915 0.78457 0.0
C2927 C 0.28197 0.21585 0.7871 0.0
C2928 C 0.25847 0.16597 0.78586 0.0
C2929 C 0.2929 0.1965 0.78918 0.0
C2930 C 0.25726 0.12029 0.78796 0.0
C2931 C 0.21138 0.109 0.77931 0.0
N2932 N 0.28121 0.17279 0.78852 0.0
N2933 N 0.22348 0.13256 0.78061 0.0
H2934 H 0.38058 0.97684 0.34469 0.0
H2935 H 0.34317 0.8582 0.25702 0.0
H2936 H 0.40107 0.96617 0.27279 0.0
H2937 H 0.30261 0.8786 0.31259 0.0
H2938 H 0.35566 0.9005 0.25489 0.0
H2939 H 0.34878 0.94241 0.33136 0.0
C2940 C 0.37839 0.96696 0.32618 0.0
C2941 C 0.3932 0.97395 0.30974 0.0
C2942 C 0.344 0.89592 0.26776 0.0
C2943 C 0.35663 0.93618 0.29407 0.0
C2944 C 0.33688 0.87154 0.26906 0.0
C2945 C 0.32403 0.86521 0.28741 0.0
C2946 C 0.33967 0.9137 0.28624 0.0
C2947 C 0.31498 0.8832 0.3008 0.0
C2948 C 0.35999 0.94796 0.3184 0.0
C2949 C 0.39002 0.96094 0.28601 0.0
N2950 N 0.324 0.90716 0.30111 0.0
N2951 N 0.37189 0.94267 0.2788 0.0
H2952 H 0.61562 0.40327 0.61584 0.0
H2953 H 0.56804 0.47254 0.51794 0.0
H2954 H 0.57265 0.36008 0.55376 0.0
H2955 H 0.59151 0.50444 0.59231 0.0
H2956 H 0.57099 0.43155 0.52661 0.0
H2957 H 0.6098 0.44064 0.60327 0.0
C2958 C 0.60501 0.40154 0.59941 0.0
C2959 C 0.59477 0.37817 0.58594 0.0
C2960 C 0.5755 0.44765 0.54092 0.0
C2961 C 0.58772 0.42188 0.57112 0.0
C2962 C 0.57376 0.47111 0.53598 0.0
C2963 C 0.57947 0.49243 0.55437 0.0
C2964 C 0.5837 0.44557 0.56421 0.0
C2965 C 0.58696 0.48901 0.57731 0.0
C2966 C 0.60157 0.42308 0.59221 0.0
C2967 C 0.58112 0.37758 0.56472 0.0
N2968 N 0.58895 0.46651 0.58137 0.0
N2969 N 0.57799 0.39901 0.55797 0.0
H2970 H 0.45228 0.8023 0.42662 0.0
H2971 H 0.35939 0.75919 0.31181 0.0
H2972 H 0.45212 0.74121 0.36922 0.0
H2973 H 0.35972 0.82094 0.36865 0.0
H2974 H 0.39273 0.75226 0.3326 0.0
H2975 H 0.41876 0.80932 0.40596 0.0
C2976 C 0.44508 0.7901 0.4098 0.0
C2977 C 0.45521 0.77093 0.3999 0.0
C2978 C 0.3856 0.76735 0.34062 0.0
C2979 C 0.41616 0.77894 0.37584 0.0
C2980 C 0.36641 0.7714 0.32868 0.0
C2981 C 0.35634 0.79074 0.33832 0.0
C2982 C 0.39532 0.78277 0.3626 0.0
C2983 C 0.36649 0.80564 0.36047 0.0
C2984 C 0.42586 0.79423 0.3979 0.0
C2985 C 0.44508 0.75618 0.3777 0.0
N2986 N 0.38529 0.80141 0.37169 0.0
N2987 N 0.42623 0.7604 0.3666 0.0
H2988 H 0.06405 0.73014 0.11567 0.0
H2989 H 0.07039 0.60509 0.0285 0.0
H2990 H 0.10543 0.73457 0.05737 0.0
H2991 H 0.06306 0.61223 0.10442 0.0
H2992 H 0.07914 0.65061 0.03374 0.0
H2993 H 0.05784 0.68558 0.10625 0.0
C2994 C 0.07184 0.72181 0.10073 0.0
C2995 C 0.08553 0.73655 0.08753 0.0
C2996 C 0.07584 0.64213 0.04923 0.0
C2997 C 0.07822 0.6844 0.07643 0.0
C2998 C 0.07103 0.61611 0.04632 0.0
C2999 C 0.0664 0.60457 0.06618 0.0
C3000 C 0.07523 0.65672 0.07201 0.0
C3001 C 0.06671 0.62003 0.08859 0.0
C3002 C 0.0683 0.69615 0.09541 0.0
C3003 C 0.09488 0.72414 0.06822 0.0
N3004 N 0.07076 0.64496 0.09078 0.0
N3005 N 0.09105 0.69882 0.06322 0.0
H3006 H 0.09829 0.30246 0.93136 0.0
H3007 H 0.16188 0.25718 0.81766 0.0
H3008 H 0.06657 0.24574 0.87097 0.0
H3009 H 0.18888 0.32155 0.87223 0.0
H3010 H 0.1293 0.24819 0.84014 0.0
H3011 H 0.13324 0.30576 0.91285 0.0
C3012 C 0.09865 0.29061 0.91421 0.0
C3013 C 0.07924 0.27396 0.90265 0.0
C3014 C 0.14253 0.26403 0.84747 0.0
C3015 C 0.11968 0.2775 0.88127 0.0
C3016 C 0.16131 0.26896 0.83479 0.0
C3017 C 0.17834 0.28995 0.84323 0.0
C3018 C 0.14063 0.28029 0.86876 0.0
C3019 C 0.17634 0.30497 0.86523 0.0
C3020 C 0.1187 0.2925 0.90363 0.0
C3021 C 0.08095 0.25905 0.88046 0.0
N3022 N 0.15787 0.29996 0.87709 0.0
N3023 N 0.10071 0.26118 0.87053 0.0
H3024 H 0.58071 0.78749 0.94239 0.0
H3025 H 0.60579 0.67687 0.99341 0.0
H3026 H 0.63418 0.75531 0.91597 0.0
H3027 H 0.53941 0.68828 0.98178 0.0
H3028 H 0.61814 0.70444 0.96553 0.0
H3029 H 0.56689 0.75127 0.95899 0.0
C3030 C 0.58963 0.77275 0.94035 0.0
C3031 C 0.60869 0.77425 0.92828 0.0
C3032 C 0.60081 0.70044 0.96877 0.0
C3033 C 0.59299 0.73283 0.94696 0.0
C3034 C 0.59382 0.68498 0.98472 0.0
C3035 C 0.57179 0.68133 0.99046 0.0
C3036 C 0.58557 0.71214 0.95887 0.0
C3037 C 0.55673 0.6916 0.97851 0.0
C3038 C 0.58158 0.75197 0.94946 0.0
C3039 C 0.61946 0.75459 0.92545 0.0
N3040 N 0.56398 0.7069 0.96348 0.0
N3041 N 0.61164 0.7346 0.93519 0.0
H3042 H 0.07576 0.74197 0.65306 0.0
H3043 H 0.16701 0.7849 0.76677 0.0
H3044 H 0.0661 0.78205 0.72244 0.0
H3045 H 0.17314 0.73249 0.7038 0.0
H3046 H 0.13357 0.792 0.74639 0.0
H3047 H 0.11462 0.74538 0.66756 0.0
C3048 C 0.08186 0.75155 0.6713 0.0
C3049 C 0.06773 0.76143 0.68677 0.0
C3050 C 0.14224 0.77902 0.73694 0.0
C3051 C 0.11187 0.76555 0.70325 0.0
C3052 C 0.1612 0.77498 0.74857 0.0
C3053 C 0.17217 0.75767 0.73701 0.0
C3054 C 0.13412 0.76527 0.71381 0.0
C3055 C 0.16466 0.74566 0.71327 0.0
C3056 C 0.10399 0.75355 0.67949 0.0
C3057 C 0.07641 0.77392 0.71006 0.0
N3058 N 0.14575 0.74938 0.70249 0.0
N3059 N 0.09792 0.77548 0.71765 0.0
H3060 H 0.10334 0.40653 0.38842 0.0
H3061 H 0.10766 0.50993 0.50388 0.0
H3062 H 0.14059 0.40808 0.456 0.0
H3063 H 0.05498 0.48981 0.4455 0.0
H3064 H 0.12402 0.47686 0.48475 0.0
H3065 H 0.0906 0.44258 0.40691 0.0
C3066 C 0.10941 0.41495 0.40698 0.0
C3067 C 0.12305 0.40445 0.42081 0.0
C3068 C 0.1088 0.47963 0.47627 0.0
C3069 C 0.1083 0.44536 0.442 0.0
C3070 C 0.09925 0.49825 0.48732 0.0
C3071 C 0.07959 0.50219 0.47659 0.0
C3072 C 0.0988 0.46523 0.45415 0.0
C3073 C 0.07005 0.48731 0.45449 0.0
C3074 C 0.10187 0.4353 0.41757 0.0
C3075 C 0.13008 0.41576 0.44483 0.0
N3076 N 0.07978 0.4694 0.44395 0.0
N3077 N 0.12249 0.43569 0.45481 0.0
H3078 H 0.42893 0.26852 0.16725 0.0
H3079 H 0.3608 0.2552 0.28088 0.0
H3080 H 0.45902 0.25911 0.23491 0.0
H3081 H 0.33196 0.2519 0.20879 0.0
H3082 H 0.39768 0.25906 0.26592 0.0
H3083 H 0.39366 0.26585 0.18395 0.0
C3084 C 0.42811 0.26611 0.18576 0.0
C3085 C 0.44681 0.26417 0.19987 0.0
C3086 C 0.38325 0.25756 0.25346 0.0
C3087 C 0.40648 0.26077 0.219 0.0
C3088 C 0.36242 0.25537 0.26196 0.0
C3089 C 0.34389 0.25387 0.24595 0.0
C3090 C 0.38505 0.25806 0.22893 0.0
C3091 C 0.34621 0.25355 0.22159 0.0
C3092 C 0.40795 0.26445 0.19526 0.0
C3093 C 0.44489 0.2609 0.22363 0.0
N3094 N 0.36653 0.25585 0.2138 0.0
N3095 N 0.42491 0.25921 0.23254 0.0
H3096 H 0.67884 0.53325 0.3689 0.0
H3097 H 0.5663 0.52297 0.43964 0.0
H3098 H 0.61347 0.50764 0.33116 0.0
H3099 H 0.63202 0.54724 0.4767 0.0
H3100 H 0.5825 0.51733 0.40094 0.0
H3101 H 0.66216 0.53816 0.40745 0.0
C3102 C 0.66094 0.5286 0.3684 0.0
C3103 C 0.64801 0.51984 0.3457 0.0
C3104 C 0.59355 0.5238 0.41743 0.0
C3105 C 0.62796 0.52586 0.39175 0.0
C3106 C 0.58414 0.527 0.44006 0.0
C3107 C 0.59732 0.53552 0.46268 0.0
C3108 C 0.61685 0.52903 0.41629 0.0
C3109 C 0.6206 0.54058 0.46051 0.0
C3110 C 0.65128 0.53148 0.39086 0.0
C3111 C 0.62467 0.51432 0.34752 0.0
N3112 N 0.62929 0.53729 0.43835 0.0
N3113 N 0.6157 0.51742 0.36956 0.0
H3114 H 0.29492 0.91817 0.09062 0.0
H3115 H 0.3815 0.86824 0.1668 0.0
H3116 H 0.35592 0.9009 0.06745 0.0
H3117 H 0.31033 0.84694 0.16667 0.0
H3118 H 0.37626 0.89933 0.14301 0.0
H3119 H 0.30505 0.90985 0.13067 0.0
C3120 C 0.31029 0.91242 0.09406 0.0
C3121 C 0.32402 0.90852 0.07576 0.0
C3122 C 0.36192 0.88818 0.14883 0.0
C3123 C 0.33632 0.90107 0.12099 0.0
C3124 C 0.36487 0.87028 0.16191 0.0
C3125 C 0.34629 0.85457 0.16777 0.0
C3126 C 0.34032 0.88994 0.14158 0.0
C3127 C 0.32507 0.85849 0.16207 0.0
C3128 C 0.31626 0.90828 0.1168 0.0
C3129 C 0.34437 0.90253 0.08095 0.0
N3130 N 0.32262 0.87558 0.14886 0.0
N3131 N 0.34988 0.89877 0.10317 0.0
H3132 H 0.98738 0.52762 0.85382 0.0
H3133 H 0.00453 0.57043 0.99502 0.0
H3134 H 0.93828 0.55389 0.89624 0.0
H3135 H 0.04823 0.53254 0.95447 0.0
H3136 H 0.97961 0.56405 0.95855 0.0
H3137 H 0.00896 0.52647 0.89066 0.0
C3138 C 0.98124 0.53316 0.87098 0.0
C3139 C 0.96172 0.54183 0.87242 0.0
C3140 C 0.99486 0.55753 0.95751 0.0
C3141 C 0.98597 0.54066 0.91404 0.0
C3142 C 0.00921 0.56166 0.97808 0.0
C3143 C 0.02858 0.55268 0.97716 0.0
C3144 C 1.00031 0.54462 0.93608 0.0
C3145 C 0.03392 0.54067 0.95541 0.0
C3146 C 0.99341 0.53234 0.8919 0.0
C3147 C 0.95375 0.54786 0.8947 0.0
N3148 N 0.01968 0.53688 0.93547 0.0
N3149 N 0.9662 0.54753 0.91491 0.0
H3150 H 0.28893 0.26407 0.5824 0.0
H3151 H 0.3071 0.22481 0.70951 0.0
H3152 H 0.31876 0.20419 0.5948 0.0
H3153 H 0.30482 0.30027 0.70826 0.0
H3154 H 0.30579 0.21634 0.66606 0.0
H3155 H 0.29025 0.27765 0.62667 0.0
C3156 C 0.29588 0.25391 0.59432 0.0
C3157 C 0.30353 0.23276 0.58472 0.0
C3158 C 0.30534 0.23476 0.67505 0.0
C3159 C 0.30479 0.24798 0.63517 0.0
C3160 C 0.30596 0.23964 0.70004 0.0
C3161 C 0.306 0.26332 0.7128 0.0
C3162 C 0.30438 0.25351 0.66204 0.0
C3163 C 0.30458 0.28168 0.69923 0.0
C3164 C 0.29662 0.26168 0.61955 0.0
C3165 C 0.31243 0.22041 0.60112 0.0
N3166 N 0.30375 0.27638 0.67451 0.0
N3167 N 0.31261 0.22803 0.62526 0.0
H3168 H 0.67783 0.5292 0.1884 0.0
H3169 H 0.5659 0.52003 0.09744 0.0
H3170 H 0.61273 0.50329 0.20882 0.0
H3171 H 0.63261 0.53776 0.07835 0.0
H3172 H 0.58104 0.5157 0.1379 0.0
H3173 H 0.66085 0.53398 0.14953 0.0
C3174 C 0.65992 0.52433 0.18495 0.0
C3175 C 0.6472 0.51559 0.20293 0.0
C3176 C 0.59248 0.52078 0.12502 0.0
C3177 C 0.62671 0.52141 0.15643 0.0
C3178 C 0.58371 0.52349 0.10161 0.0
C3179 C 0.5977 0.52963 0.08356 0.0
C3180 C 0.61575 0.52437 0.13135 0.0
C3181 C 0.62075 0.53312 0.09098 0.0
C3182 C 0.65006 0.52717 0.16231 0.0
C3183 C 0.62378 0.51003 0.19623 0.0
N3184 N 0.62873 0.53062 0.11362 0.0
N3185 N 0.61458 0.51298 0.17407 0.0
H3186 H 0.36986 0.91731 0.94969 0.0
H3187 H 0.302 0.80517 0.85354 0.0
H3188 H 0.2985 0.89818 0.93575 0.0
H3189 H 0.36735 0.84145 0.8404 0.0
H3190 H 0.30431 0.83565 0.8898 0.0
H3191 H 0.37237 0.88874 0.91231 0.0
C3192 C 0.35483 0.90766 0.93827 0.0
C3193 C 0.3339 0.90931 0.9456 0.0
C3194 C 0.31824 0.8368 0.87905 0.0
C3195 C 0.33659 0.87692 0.90416 0.0
C3196 C 0.31704 0.81911 0.85854 0.0
C3197 C 0.33409 0.82124 0.84356 0.0
C3198 C 0.33676 0.85649 0.88466 0.0
C3199 C 0.35354 0.83959 0.8513 0.0
C3200 C 0.35626 0.89133 0.91726 0.0
C3201 C 0.31483 0.89672 0.93066 0.0
N3202 N 0.35425 0.85696 0.87129 0.0
N3203 N 0.31661 0.88068 0.91066 0.0
H3204 H 0.98304 0.56291 0.76005 0.0
H3205 H 0.96114 0.50353 0.62439 0.0
H3206 H 0.91631 0.53459 0.72529 0.0
H3207 H 0.02097 0.55701 0.65456 0.0
H3208 H 0.94278 0.51787 0.65947 0.0
H3209 H 0.99662 0.56287 0.72068 0.0
C3210 C 0.97123 0.55708 0.74409 0.0
C3211 C 0.94859 0.54875 0.74573 0.0
C3212 C 0.95975 0.52689 0.65814 0.0
C3213 C 0.9639 0.54871 0.70083 0.0
C3214 C 0.97017 0.51866 0.63825 0.0
C3215 C 0.99261 0.52878 0.6372 0.0
C3216 C 0.97218 0.54481 0.67711 0.0
C3217 C 1.00368 0.54861 0.65509 0.0
C3218 C 0.97894 0.55723 0.72165 0.0
C3219 C 0.93394 0.54108 0.72462 0.0
N3220 N 0.99348 0.55564 0.67474 0.0
N3221 N 0.94191 0.54098 0.70289 0.0
H3222 H 0.32236 0.25799 0.45727 0.0
H3223 H 0.27821 0.21234 0.31678 0.0
H3224 H 0.27761 0.18865 0.42666 0.0
H3225 H 0.32723 0.27929 0.34369 0.0
H3226 H 0.27837 0.20378 0.35736 0.0
H3227 H 0.32429 0.26735 0.41639 0.0
C3228 C 0.31288 0.24484 0.44205 0.0
C3229 C 0.29973 0.22255 0.44544 0.0
C3230 C 0.28904 0.22052 0.35445 0.0
C3231 C 0.30195 0.23297 0.39881 0.0
C3232 C 0.28905 0.22539 0.33112 0.0
C3233 C 0.30228 0.24712 0.32657 0.0
C3234 C 0.30235 0.23743 0.37365 0.0
C3235 C 0.31604 0.263 0.34616 0.0
C3236 C 0.31406 0.25012 0.41874 0.0
C3237 C 0.28795 0.20609 0.42503 0.0
N3238 N 0.31562 0.258 0.36881 0.0
N3239 N 0.28933 0.21163 0.40276 0.0
H3240 H 0.34055 0.59186 0.56516 0.0
H3241 H 0.44889 0.60244 0.49646 0.0
H3242 H 0.35852 0.63919 0.51419 0.0
H3243 H 0.42918 0.5472 0.53911 0.0
H3244 H 0.42164 0.62436 0.51344 0.0
H3245 H 0.3776 0.58238 0.56499 0.0
C3246 C 0.3523 0.60017 0.55398 0.0
C3247 C 0.34652 0.61588 0.53933 0.0
C3248 C 0.42363 0.60782 0.51967 0.0
C3249 C 0.38851 0.60553 0.53923 0.0
C3250 C 0.43933 0.59552 0.51016 0.0
C3251 C 0.44101 0.57313 0.51644 0.0
C3252 C 0.40923 0.5972 0.53505 0.0
C3253 C 0.42818 0.56451 0.53394 0.0
C3254 C 0.37342 0.595 0.55405 0.0
C3255 C 0.36233 0.62679 0.5256 0.0
N3256 N 0.41236 0.57633 0.54232 0.0
N3257 N 0.38252 0.62119 0.52569 0.0
H3258 H 0.90477 0.92453 0.57489 0.0
H3259 H 0.9862 0.01086 0.5037 0.0
H3260 H 0.88291 0.95117 0.51279 0.0
H3261 H 0.00908 0.98551 0.56608 0.0
H3262 H 0.94818 0.98953 0.50729 0.0
H3263 H 0.94275 0.94744 0.57298 0.0
C3264 C 0.90796 0.93521 0.56087 0.0
C3265 C 0.8906 0.93598 0.54402 0.0
C3266 C 0.96142 0.98875 0.52038 0.0
C3267 C 0.93413 0.96201 0.54148 0.0
C3268 C 0.98312 1.00096 0.51832 0.0
C3269 C 1.00073 0.9999 0.53463 0.0
C3270 C 0.95716 0.97558 0.5391 0.0
C3271 C 0.99592 0.98666 0.5531 0.0
C3272 C 0.92965 0.94829 0.55978 0.0
C3273 C 0.89571 0.95021 0.5263 0.0
N3274 N 0.9746 0.97508 0.5549 0.0
N3275 N 0.91693 0.96249 0.52542 0.0
H3276 H 0.9114 0.15323 0.31483 0.0
H3277 H 0.85518 0.23085 0.22786 0.0
H3278 H 0.89433 0.12666 0.23876 0.0
H3279 H 0.8485 0.24361 0.30381 0.0
H3280 H 0.87221 0.19593 0.23218 0.0
H3281 H 0.89242 0.1875 0.3122 0.0
C3282 C 0.90384 0.15433 0.29742 0.0
C3283 C 0.905 0.13587 0.27705 0.0
C3284 C 0.86704 0.20608 0.24808 0.0
C3285 C 0.88263 0.17727 0.2737 0.0
C3286 C 0.85704 0.22645 0.24562 0.0
C3287 C 0.8496 0.24112 0.26526 0.0
C3288 C 0.87082 0.19945 0.27073 0.0
C3289 C 0.85332 0.23347 0.28769 0.0
C3290 C 0.89273 0.17429 0.29595 0.0
C3291 C 0.8943 0.13957 0.25529 0.0
N3292 N 0.86358 0.21385 0.2897 0.0
N3293 N 0.88416 0.15934 0.25428 0.0
H3294 H 0.71298 0.14596 0.0375 0.0
H3295 H 0.60903 0.03649 1.00102 0.0
H3296 H 0.71844 0.07031 0.03261 0.0
H3297 H 0.6066 0.11313 0.01866 0.0
H3298 H 0.64819 0.0471 0.01709 0.0
H3299 H 0.67337 0.13328 0.03552 0.0
C3300 C 0.70579 0.12656 0.03619 0.0
C3301 C 0.7189 0.10901 0.03475 0.0
C3302 C 0.63894 0.06148 0.01792 0.0
C3303 C 0.67322 0.09427 0.03231 0.0
C3304 C 0.6167 0.05545 0.00875 0.0
C3305 C 0.60482 0.07405 0.00928 0.0
C3306 C 0.64914 0.08629 0.0267 0.0
C3307 C 0.61537 0.09838 0.01854 0.0
C3308 C 0.68307 0.11933 0.0352 0.0
C3309 C 0.70872 0.08426 0.03335 0.0
N3310 N 0.63701 0.10384 0.02692 0.0
N3311 N 0.68623 0.07746 0.03177 0.0
H3312 H 0.22461 0.46854 0.19818 0.0
H3313 H 0.24869 0.41232 0.313 0.0
H3314 H 0.2299 0.50353 0.27304 0.0
H3315 H 0.28223 0.3976 0.24923 0.0
H3316 H 0.22456 0.43194 0.29094 0.0
H3317 H 0.23154 0.43079 0.21092 0.0
C3318 C 0.22733 0.46811 0.21717 0.0
C3319 C 0.22772 0.4889 0.23478 0.0
C3320 C 0.23678 0.42371 0.2816 0.0
C3321 C 0.23362 0.4465 0.24907 0.0
C3322 C 0.25056 0.41282 0.29418 0.0
C3323 C 0.26767 0.40424 0.28295 0.0
C3324 C 0.24076 0.42661 0.25806 0.0
C3325 C 0.26934 0.40459 0.25844 0.0
C3326 C 0.23085 0.44675 0.22434 0.0
C3327 C 0.23041 0.48787 0.25912 0.0
N3328 N 0.25636 0.41638 0.24682 0.0
N3329 N 0.23327 0.46691 0.26559 0.0
H3330 H 0.24579 0.3881 0.0285 0.0
H3331 H 0.20406 0.51379 0.03727 0.0
H3332 H 0.28811 0.46026 0.05266 0.0
H3333 H 0.15991 0.44247 0.0169 0.0
H3334 H 0.23424 0.49409 0.04714 0.0
H3335 H 0.21348 0.40698 0.02765 0.0
C3336 C 0.24828 0.40792 0.03363 0.0
C3337 C 0.2697 0.42269 0.04039 0.0
C3338 C 0.2179 0.48267 0.04094 0.0
C3339 C 0.23286 0.44439 0.03944 0.0
C3340 C 0.20068 0.49395 0.03551 0.0
C3341 C 0.17959 0.47967 0.02654 0.0
C3342 C 0.21407 0.45684 0.03699 0.0
C3343 C 0.17599 0.45403 0.02405 0.0
C3344 C 0.22982 0.41866 0.03324 0.0
C3345 C 0.27192 0.44819 0.04721 0.0
N3346 N 0.19316 0.44336 0.02901 0.0
N3347 N 0.25379 0.45822 0.04635 0.0
H3348 H 0.91321 0.97886 0.24375 0.0
H3349 H 0.82691 0.88438 0.30624 0.0
H3350 H 0.88363 1.00342 0.30772 0.0
H3351 H 0.86236 0.8601 0.24697 0.0
H3352 H 0.84623 0.92736 0.30668 0.0
H3353 H 0.89383 0.93621 0.24387 0.0
C3354 C 0.90265 0.9755 0.2579 0.0
C3355 C 0.90031 0.99559 0.27566 0.0
C3356 C 0.8497 0.91274 0.29336 0.0
C3357 C 0.87751 0.94524 0.27603 0.0
C3358 C 0.83847 0.88792 0.29302 0.0
C3359 C 0.84251 0.86787 0.27636 0.0
C3360 C 0.86514 0.9184 0.27661 0.0
C3361 C 0.85835 0.87442 0.26021 0.0
C3362 C 0.89148 0.9508 0.25796 0.0
C3363 C 0.88611 0.98913 0.29339 0.0
N3364 N 0.8687 0.89863 0.26063 0.0
N3365 N 0.87549 0.96499 0.29309 0.0
H3366 H 0.71463 0.12046 0.77625 0.0
H3367 H 0.8085 0.24047 0.78589 0.0
H3368 H 0.77222 0.12088 0.73692 0.0
H3369 H 0.73915 0.23807 0.79381 0.0
H3370 H 0.8008 0.19558 0.77925 0.0
H3371 H 0.73022 0.16266 0.79629 0.0
C3372 C 0.73066 0.12964 0.77195 0.0
C3373 C 0.74209 0.11799 0.75461 0.0
C3374 C 0.78745 0.20506 0.78274 0.0
C3375 C 0.75964 0.16572 0.77693 0.0
C3376 C 0.7917 0.23048 0.78615 0.0
C3377 C 0.7742 0.24262 0.7893 0.0
C3378 C 0.76577 0.19224 0.78358 0.0
C3379 C 0.75293 0.22919 0.79068 0.0
C3380 C 0.73956 0.15348 0.78345 0.0
C3381 C 0.763 0.12988 0.75 0.0
N3382 N 0.74927 0.20455 0.78772 0.0
N3383 N 0.77106 0.15367 0.76082 0.0
loop_
_geom_bond_atom_site_label_1
_geom_bond_atom_site_label_2
_geom_bond_distance
_geom_bond_site_symmetry_2
_ccdc_geom_bond_type
In0 O1 2.294 . S
In0 O2 2.326 . S
In0 O6 2.266 . S
In0 O7 2.326 . S
In0 O8 2.266 . S
In0 O9 2.326 . S
In0 O11 2.294 . S
In0 O12 2.326 . S
O1 In0 2.294 . S
O1 C10 1.240 . S
O2 In0 2.326 . S
O2 C10 1.252 . S
C3 O6 1.252 . S
C3 O7 1.260 . S
C4 O11 1.240 . S
C4 O12 1.252 . S
C5 O8 1.252 . S
C5 O9 1.260 . S
O6 In0 2.266 . S
O6 C3 1.252 . S
O7 In0 2.326 . S
O7 C3 1.260 . S
O8 In0 2.266 . S
O8 C5 1.252 . S
O9 In0 2.326 . S
O9 C5 1.260 . S
C10 O1 1.240 . S
C10 O2 1.252 . S
O11 In0 2.294 . S
O11 C4 1.240 . S
O12 In0 2.326 . S
O12 C4 1.252 . S
In13 O14 2.294 . S
In13 O15 2.326 . S
In13 O19 2.266 1_455 S
In13 O20 2.326 1_455 S
In13 O21 2.263 1_455 S
In13 O22 2.320 1_455 S
In13 O24 2.297 . S
In13 O25 2.331 . S
O14 In13 2.294 . S
O14 C23 1.240 . S
O15 In13 2.326 . S
O15 C23 1.252 . S
C16 O19 1.252 . S
C16 O20 1.260 . S
C17 O24 1.240 . S
C17 O25 1.252 . S
C18 O21 1.252 . S
C18 O22 1.260 . S
O19 In13 2.266 1_655 S
O19 C16 1.252 . S
O20 In13 2.326 1_655 S
O20 C16 1.260 . S
O21 In13 2.263 1_655 S
O21 C18 1.252 . S
O22 In13 2.320 1_655 S
O22 C18 1.260 . S
C23 O14 1.240 . S
C23 O15 1.252 . S
O24 In13 2.297 . S
O24 C17 1.240 . S
O25 In13 2.331 . S
O25 C17 1.252 . S
In26 O27 2.294 . S
In26 O28 2.326 . S
In26 O32 2.266 . S
In26 O33 2.326 . S
In26 O34 2.266 . S
In26 O35 2.326 . S
In26 O37 2.294 . S
In26 O38 2.326 . S
O27 In26 2.294 . S
O27 C36 1.240 . S
O28 In26 2.326 . S
O28 C36 1.252 . S
C29 O32 1.252 . S
C29 O33 1.260 . S
C30 O37 1.240 . S
C30 O38 1.252 . S
C31 O34 1.252 . S
C31 O35 1.260 . S
O32 In26 2.266 . S
O32 C29 1.252 . S
O33 In26 2.326 . S
O33 C29 1.260 . S
O34 In26 2.266 . S
O34 C31 1.252 . S
O35 In26 2.326 . S
O35 C31 1.260 . S
C36 O27 1.240 . S
C36 O28 1.252 . S
O37 In26 2.294 . S
O37 C30 1.240 . S
O38 In26 2.326 . S
O38 C30 1.252 . S
In39 O40 2.294 . S
In39 O41 2.326 . S
In39 O45 2.266 . S
In39 O46 2.326 . S
In39 O47 2.266 . S
In39 O48 2.326 . S
In39 O50 2.294 . S
In39 O51 2.326 . S
O40 In39 2.294 . S
O40 C49 1.240 . S
O41 In39 2.326 . S
O41 C49 1.252 . S
C42 O45 1.252 . S
C42 O46 1.260 . S
C43 O50 1.240 . S
C43 O51 1.252 . S
C44 O47 1.252 . S
C44 O48 1.260 . S
O45 In39 2.266 . S
O45 C42 1.252 . S
O46 In39 2.326 . S
O46 C42 1.260 . S
O47 In39 2.266 . S
O47 C44 1.252 . S
O48 In39 2.326 . S
O48 C44 1.260 . S
C49 O40 1.240 . S
C49 O41 1.252 . S
O50 In39 2.294 . S
O50 C43 1.240 . S
O51 In39 2.326 . S
O51 C43 1.252 . S
In52 O53 2.294 . S
In52 O54 2.326 . S
In52 O58 2.266 . S
In52 O59 2.326 . S
In52 O60 2.266 . S
In52 O61 2.326 . S
In52 O63 2.294 . S
In52 O64 2.326 . S
O53 In52 2.294 . S
O53 C62 1.240 . S
O54 In52 2.326 . S
O54 C62 1.252 . S
C55 O58 1.252 . S
C55 O59 1.260 . S
C56 O63 1.240 . S
C56 O64 1.252 . S
C57 O60 1.252 . S
C57 O61 1.260 . S
O58 In52 2.266 . S
O58 C55 1.252 . S
O59 In52 2.326 . S
O59 C55 1.260 . S
O60 In52 2.266 . S
O60 C57 1.252 . S
O61 In52 2.326 . S
O61 C57 1.260 . S
C62 O53 1.240 . S
C62 O54 1.252 . S
O63 In52 2.294 . S
O63 C56 1.240 . S
O64 In52 2.326 . S
O64 C56 1.252 . S
In65 O66 2.294 . S
In65 O67 2.326 . S
In65 O71 2.266 . S
In65 O72 2.326 . S
In65 O73 2.266 . S
In65 O74 2.326 . S
In65 O76 2.294 . S
In65 O77 2.326 . S
O66 In65 2.294 . S
O66 C75 1.240 . S
O67 In65 2.326 . S
O67 C75 1.252 . S
C68 O71 1.252 . S
C68 O72 1.260 . S
C69 O76 1.240 . S
C69 O77 1.252 . S
C70 O73 1.252 . S
C70 O74 1.260 . S
O71 In65 2.266 . S
O71 C68 1.252 . S
O72 In65 2.326 . S
O72 C68 1.260 . S
O73 In65 2.266 . S
O73 C70 1.252 . S
O74 In65 2.326 . S
O74 C70 1.260 . S
C75 O66 1.240 . S
C75 O67 1.252 . S
O76 In65 2.294 . S
O76 C69 1.240 . S
O77 In65 2.326 . S
O77 C69 1.252 . S
In78 O79 2.294 . S
In78 O80 2.326 . S
In78 O84 2.266 . S
In78 O85 2.326 . S
In78 O86 2.266 . S
In78 O87 2.326 . S
In78 O89 2.294 . S
In78 O90 2.326 . S
O79 In78 2.294 . S
O79 C88 1.240 . S
O80 In78 2.326 . S
O80 C88 1.252 . S
C81 O84 1.252 . S
C81 O85 1.260 . S
C82 O89 1.240 . S
C82 O90 1.252 . S
C83 O86 1.252 . S
C83 O87 1.260 . S
O84 In78 2.266 . S
O84 C81 1.252 . S
O85 In78 2.326 . S
O85 C81 1.260 . S
O86 In78 2.266 . S
O86 C83 1.252 . S
O87 In78 2.326 . S
O87 C83 1.260 . S
C88 O79 1.240 . S
C88 O80 1.252 . S
O89 In78 2.294 . S
O89 C82 1.240 . S
O90 In78 2.326 . S
O90 C82 1.252 . S
In91 O92 2.294 . S
In91 O93 2.326 . S
In91 O97 2.266 . S
In91 O98 2.326 . S
In91 O99 2.266 1_455 S
In91 O100 2.326 1_455 S
In91 O102 2.294 . S
In91 O103 2.326 . S
O92 In91 2.294 . S
O92 C101 1.240 . S
O93 In91 2.326 . S
O93 C101 1.252 . S
C94 O97 1.252 . S
C94 O98 1.260 . S
C95 O102 1.240 . S
C95 O103 1.252 . S
C96 O99 1.252 . S
C96 O100 1.260 . S
O97 In91 2.266 . S
O97 C94 1.252 . S
O98 In91 2.326 . S
O98 C94 1.260 . S
O99 In91 2.266 1_655 S
O99 C96 1.252 . S
O100 In91 2.326 1_655 S
O100 C96 1.260 . S
C101 O92 1.240 . S
C101 O93 1.252 . S
O102 In91 2.294 . S
O102 C95 1.240 . S
O103 In91 2.326 . S
O103 C95 1.252 . S
In104 O105 2.294 . S
In104 O106 2.326 . S
In104 O110 2.266 . S
In104 O111 2.326 . S
In104 O112 2.266 1_545 S
In104 O113 2.326 1_545 S
In104 O115 2.294 . S
In104 O116 2.326 . S
O105 In104 2.294 . S
O105 C114 1.240 . S
O106 In104 2.326 . S
O106 C114 1.252 . S
C107 O110 1.252 . S
C107 O111 1.260 . S
C108 O115 1.240 . S
C108 O116 1.252 . S
C109 O112 1.252 . S
C109 O113 1.260 . S
O110 In104 2.266 . S
O110 C107 1.252 . S
O111 In104 2.326 . S
O111 C107 1.260 . S
O112 In104 2.266 1_565 S
O112 C109 1.252 . S
O113 In104 2.326 1_565 S
O113 C109 1.260 . S
C114 O105 1.240 . S
C114 O106 1.252 . S
O115 In104 2.294 . S
O115 C108 1.240 . S
O116 In104 2.326 . S
O116 C108 1.252 . S
In117 O118 2.294 . S
In117 O119 2.326 . S
In117 O123 2.266 . S
In117 O124 2.326 . S
In117 O125 2.266 . S
In117 O126 2.326 . S
In117 O128 2.294 . S
In117 O129 2.326 . S
O118 In117 2.294 . S
O118 C127 1.240 . S
O119 In117 2.326 . S
O119 C127 1.252 . S
C120 O123 1.252 . S
C120 O124 1.260 . S
C121 O128 1.240 . S
C121 O129 1.252 . S
C122 O125 1.252 . S
C122 O126 1.260 . S
O123 In117 2.266 . S
O123 C120 1.252 . S
O124 In117 2.326 . S
O124 C120 1.260 . S
O125 In117 2.266 . S
O125 C122 1.252 . S
O126 In117 2.326 . S
O126 C122 1.260 . S
C127 O118 1.240 . S
C127 O119 1.252 . S
O128 In117 2.294 . S
O128 C121 1.240 . S
O129 In117 2.326 . S
O129 C121 1.252 . S
In130 O131 2.294 1_545 S
In130 O132 2.326 1_545 S
In130 O136 2.266 . S
In130 O137 2.326 . S
In130 O138 2.264 . S
In130 O139 2.322 . S
In130 O141 2.296 1_545 S
In130 O142 2.330 1_545 S
O131 In130 2.294 1_565 S
O131 C140 1.240 . S
O132 In130 2.326 1_565 S
O132 C140 1.252 . S
C133 O136 1.252 . S
C133 O137 1.260 . S
C134 O141 1.240 . S
C134 O142 1.252 . S
C135 O138 1.252 . S
C135 O139 1.260 . S
O136 In130 2.266 . S
O136 C133 1.252 . S
O137 In130 2.326 . S
O137 C133 1.260 . S
O138 In130 2.264 . S
O138 C135 1.252 . S
O139 In130 2.322 . S
O139 C135 1.260 . S
C140 O131 1.240 . S
C140 O132 1.252 . S
O141 In130 2.296 1_565 S
O141 C134 1.240 . S
O142 In130 2.330 1_565 S
O142 C134 1.252 . S
In143 O144 2.294 . S
In143 O145 2.326 . S
In143 O149 2.266 1_554 S
In143 O150 2.326 1_554 S
In143 O151 2.266 . S
In143 O152 2.326 . S
In143 O154 2.294 . S
In143 O155 2.326 . S
O144 In143 2.294 . S
O144 C153 1.240 . S
O145 In143 2.326 . S
O145 C153 1.252 . S
C146 O149 1.252 . S
C146 O150 1.260 . S
C147 O154 1.240 . S
C147 O155 1.252 . S
C148 O151 1.252 . S
C148 O152 1.260 . S
O149 In143 2.266 1_556 S
O149 C146 1.252 . S
O150 In143 2.326 1_556 S
O150 C146 1.260 . S
O151 In143 2.266 . S
O151 C148 1.252 . S
O152 In143 2.326 . S
O152 C148 1.260 . S
C153 O144 1.240 . S
C153 O145 1.252 . S
O154 In143 2.294 . S
O154 C147 1.240 . S
O155 In143 2.326 . S
O155 C147 1.252 . S
In156 O157 2.294 . S
In156 O158 2.326 . S
In156 O162 2.266 . S
In156 O163 2.326 1_554 S
In156 O164 2.266 . S
In156 O165 2.326 . S
In156 O167 2.294 . S
In156 O168 2.326 . S
O157 In156 2.294 . S
O157 C166 1.240 . S
O158 In156 2.326 . S
O158 C166 1.252 . S
C159 O162 1.252 1_556 S
C159 O163 1.260 . S
C160 O167 1.240 . S
C160 O168 1.252 . S
C161 O164 1.252 . S
C161 O165 1.260 . S
O162 In156 2.266 . S
O162 C159 1.252 1_554 S
O163 In156 2.326 1_556 S
O163 C159 1.260 . S
O164 In156 2.266 . S
O164 C161 1.252 . S
O165 In156 2.326 . S
O165 C161 1.260 . S
C166 O157 1.240 . S
C166 O158 1.252 . S
O167 In156 2.294 . S
O167 C160 1.240 . S
O168 In156 2.326 . S
O168 C160 1.252 . S
In169 O170 2.294 . S
In169 O171 2.326 . S
In169 O175 2.266 . S
In169 O176 2.326 . S
In169 O177 2.266 . S
In169 O178 2.326 1_554 S
In169 O180 2.294 . S
In169 O181 2.326 . S
O170 In169 2.294 . S
O170 C179 1.240 . S
O171 In169 2.326 . S
O171 C179 1.252 . S
C172 O175 1.252 . S
C172 O176 1.260 . S
C173 O180 1.240 . S
C173 O181 1.252 . S
C174 O177 1.252 1_556 S
C174 O178 1.260 . S
O175 In169 2.266 . S
O175 C172 1.252 . S
O176 In169 2.326 . S
O176 C172 1.260 . S
O177 In169 2.266 . S
O177 C174 1.252 1_554 S
O178 In169 2.326 1_556 S
O178 C174 1.260 . S
C179 O170 1.240 . S
C179 O171 1.252 . S
O180 In169 2.294 . S
O180 C173 1.240 . S
O181 In169 2.326 . S
O181 C173 1.252 . S
In182 O183 2.294 . S
In182 O184 2.326 . S
In182 O188 2.266 . S
In182 O189 2.326 . S
In182 O190 2.266 . S
In182 O191 2.326 . S
In182 O193 2.294 . S
In182 O194 2.326 . S
O183 In182 2.294 . S
O183 C192 1.240 . S
O184 In182 2.326 . S
O184 C192 1.252 . S
C185 O188 1.252 . S
C185 O189 1.260 . S
C186 O193 1.240 . S
C186 O194 1.252 . S
C187 O190 1.252 . S
C187 O191 1.260 . S
O188 In182 2.266 . S
O188 C185 1.252 . S
O189 In182 2.326 . S
O189 C185 1.260 . S
O190 In182 2.266 . S
O190 C187 1.252 . S
O191 In182 2.326 . S
O191 C187 1.260 . S
C192 O183 1.240 . S
C192 O184 1.252 . S
O193 In182 2.294 . S
O193 C186 1.240 . S
O194 In182 2.326 . S
O194 C186 1.252 . S
In195 O196 2.294 . S
In195 O197 2.326 . S
In195 O201 2.266 . S
In195 O202 2.326 . S
In195 O203 2.266 . S
In195 O204 2.326 . S
In195 O206 2.294 . S
In195 O207 2.326 . S
O196 In195 2.294 . S
O196 C205 1.240 . S
O197 In195 2.326 . S
O197 C205 1.252 . S
C198 O201 1.252 . S
C198 O202 1.260 . S
C199 O206 1.240 . S
C199 O207 1.252 . S
C200 O203 1.252 . S
C200 O204 1.260 . S
O201 In195 2.266 . S
O201 C198 1.252 . S
O202 In195 2.326 . S
O202 C198 1.260 . S
O203 In195 2.266 . S
O203 C200 1.252 . S
O204 In195 2.326 . S
O204 C200 1.260 . S
C205 O196 1.240 . S
C205 O197 1.252 . S
O206 In195 2.294 . S
O206 C199 1.240 . S
O207 In195 2.326 . S
O207 C199 1.252 . S
In208 O209 2.294 . S
In208 O210 2.326 . S
In208 O214 2.266 . S
In208 O215 2.326 . S
In208 O216 2.266 . S
In208 O217 2.326 . S
In208 O219 2.294 . S
In208 O220 2.326 . S
O209 In208 2.294 . S
O209 C218 1.240 . S
O210 In208 2.326 . S
O210 C218 1.252 . S
C211 O214 1.252 . S
C211 O215 1.260 . S
C212 O219 1.240 . S
C212 O220 1.252 . S
C213 O216 1.252 . S
C213 O217 1.260 . S
O214 In208 2.266 . S
O214 C211 1.252 . S
O215 In208 2.326 . S
O215 C211 1.260 . S
O216 In208 2.266 . S
O216 C213 1.252 . S
O217 In208 2.326 . S
O217 C213 1.260 . S
C218 O209 1.240 . S
C218 O210 1.252 . S
O219 In208 2.294 . S
O219 C212 1.240 . S
O220 In208 2.326 . S
O220 C212 1.252 . S
In221 O222 2.294 . S
In221 O223 2.326 . S
In221 O227 2.266 . S
In221 O228 2.326 . S
In221 O229 2.266 . S
In221 O230 2.326 . S
In221 O232 2.294 . S
In221 O233 2.326 . S
O222 In221 2.294 . S
O222 C231 1.240 . S
O223 In221 2.326 . S
O223 C231 1.252 . S
C224 O227 1.252 . S
C224 O228 1.260 . S
C225 O232 1.240 . S
C225 O233 1.252 . S
C226 O229 1.252 . S
C226 O230 1.260 . S
O227 In221 2.266 . S
O227 C224 1.252 . S
O228 In221 2.326 . S
O228 C224 1.260 . S
O229 In221 2.266 . S
O229 C226 1.252 . S
O230 In221 2.326 . S
O230 C226 1.260 . S
C231 O222 1.240 . S
C231 O223 1.252 . S
O232 In221 2.294 . S
O232 C225 1.240 . S
O233 In221 2.326 . S
O233 C225 1.252 . S
In234 O235 2.294 . S
In234 O236 2.326 . S
In234 O240 2.266 . S
In234 O241 2.326 . S
In234 O242 2.266 . S
In234 O243 2.326 . S
In234 O245 2.294 . S
In234 O246 2.326 . S
O235 In234 2.294 . S
O235 C244 1.240 . S
O236 In234 2.326 . S
O236 C244 1.252 . S
C237 O240 1.252 . S
C237 O241 1.260 . S
C238 O245 1.240 . S
C238 O246 1.252 . S
C239 O242 1.252 . S
C239 O243 1.260 . S
O240 In234 2.266 . S
O240 C237 1.252 . S
O241 In234 2.326 . S
O241 C237 1.260 . S
O242 In234 2.266 . S
O242 C239 1.252 . S
O243 In234 2.326 . S
O243 C239 1.260 . S
C244 O235 1.240 . S
C244 O236 1.252 . S
O245 In234 2.294 . S
O245 C238 1.240 . S
O246 In234 2.326 . S
O246 C238 1.252 . S
In247 O248 2.294 . S
In247 O249 2.326 . S
In247 O253 2.266 . S
In247 O254 2.326 . S
In247 O255 2.266 . S
In247 O256 2.326 . S
In247 O258 2.294 . S
In247 O259 2.326 . S
O248 In247 2.294 . S
O248 C257 1.240 . S
O249 In247 2.326 . S
O249 C257 1.252 . S
C250 O253 1.252 . S
C250 O254 1.260 . S
C251 O258 1.240 . S
C251 O259 1.252 . S
C252 O255 1.252 . S
C252 O256 1.260 . S
O253 In247 2.266 . S
O253 C250 1.252 . S
O254 In247 2.326 . S
O254 C250 1.260 . S
O255 In247 2.266 . S
O255 C252 1.252 . S
O256 In247 2.326 . S
O256 C252 1.260 . S
C257 O248 1.240 . S
C257 O249 1.252 . S
O258 In247 2.294 . S
O258 C251 1.240 . S
O259 In247 2.326 . S
O259 C251 1.252 . S
In260 O261 2.297 . S
In260 O262 2.327 . S
In260 O266 2.265 1_554 S
In260 O267 2.325 1_554 S
In260 O268 2.253 1_554 S
In260 O269 2.307 1_554 S
In260 O271 2.305 . S
In260 O272 2.345 . S
O261 In260 2.297 . S
O261 C270 1.240 . S
O262 In260 2.327 . S
O262 C270 1.252 . S
C263 O266 1.252 . S
C263 O267 1.260 . S
C264 O271 1.240 . S
C264 O272 1.252 . S
C265 O268 1.252 . S
C265 O269 1.260 . S
O266 In260 2.265 1_556 S
O266 C263 1.252 . S
O267 In260 2.325 1_556 S
O267 C263 1.260 . S
O268 In260 2.253 1_556 S
O268 C265 1.252 . S
O269 In260 2.307 1_556 S
O269 C265 1.260 . S
C270 O261 1.240 . S
C270 O262 1.252 . S
O271 In260 2.305 . S
O271 C264 1.240 . S
O272 In260 2.345 . S
O272 C264 1.252 . S
In273 O274 2.294 . S
In273 O275 2.326 . S
In273 O279 2.266 . S
In273 O280 2.326 . S
In273 O281 2.266 . S
In273 O282 2.326 . S
In273 O284 2.294 . S
In273 O285 2.326 . S
O274 In273 2.294 . S
O274 C283 1.240 . S
O275 In273 2.326 . S
O275 C283 1.252 . S
C276 O279 1.252 . S
C276 O280 1.260 . S
C277 O284 1.240 . S
C277 O285 1.252 . S
C278 O281 1.252 . S
C278 O282 1.260 . S
O279 In273 2.266 . S
O279 C276 1.252 . S
O280 In273 2.326 . S
O280 C276 1.260 . S
O281 In273 2.266 . S
O281 C278 1.252 . S
O282 In273 2.326 . S
O282 C278 1.260 . S
C283 O274 1.240 . S
C283 O275 1.252 . S
O284 In273 2.294 . S
O284 C277 1.240 . S
O285 In273 2.326 . S
O285 C277 1.252 . S
In286 O287 2.294 . S
In286 O288 2.326 . S
In286 O292 2.266 . S
In286 O293 2.326 . S
In286 O294 2.266 . S
In286 O295 2.326 . S
In286 O297 2.294 . S
In286 O298 2.326 . S
O287 In286 2.294 . S
O287 C296 1.240 . S
O288 In286 2.326 . S
O288 C296 1.252 . S
C289 O292 1.252 . S
C289 O293 1.260 . S
C290 O297 1.240 . S
C290 O298 1.252 . S
C291 O294 1.252 . S
C291 O295 1.260 . S
O292 In286 2.266 . S
O292 C289 1.252 . S
O293 In286 2.326 . S
O293 C289 1.260 . S
O294 In286 2.266 . S
O294 C291 1.252 . S
O295 In286 2.326 . S
O295 C291 1.260 . S
C296 O287 1.240 . S
C296 O288 1.252 . S
O297 In286 2.294 . S
O297 C290 1.240 . S
O298 In286 2.326 . S
O298 C290 1.252 . S
In299 O300 2.294 . S
In299 O301 2.326 . S
In299 O305 2.266 . S
In299 O306 2.326 . S
In299 O307 2.266 . S
In299 O308 2.326 . S
In299 O310 2.294 . S
In299 O311 2.326 . S
O300 In299 2.294 . S
O300 C309 1.240 . S
O301 In299 2.326 . S
O301 C309 1.252 . S
C302 O305 1.252 . S
C302 O306 1.260 . S
C303 O310 1.240 . S
C303 O311 1.252 . S
C304 O307 1.252 . S
C304 O308 1.260 . S
O305 In299 2.266 . S
O305 C302 1.252 . S
O306 In299 2.326 . S
O306 C302 1.260 . S
O307 In299 2.266 . S
O307 C304 1.252 . S
O308 In299 2.326 . S
O308 C304 1.260 . S
C309 O300 1.240 . S
C309 O301 1.252 . S
O310 In299 2.294 . S
O310 C303 1.240 . S
O311 In299 2.326 . S
O311 C303 1.252 . S
Eu312 N343 2.657 1_545 S
Eu312 N350 2.609 1_544 S
Eu312 O356 2.558 1_554 S
Eu312 O357 2.612 . S
Eu312 O359 2.339 . S
Eu312 O360 2.563 . S
Eu312 O361 2.419 1_455 S
Eu312 O363 2.380 . S
Eu312 O364 2.432 1_554 S
Eu312 C376 2.848 1_455 S
C313 C316 1.429 . S
C313 C317 1.411 . S
C313 N320 1.377 . S
C314 C316 1.420 . S
C314 C318 1.423 . S
C314 C326 1.392 . S
C315 C317 1.420 . S
C315 C318 1.351 . S
C315 H338 0.931 . S
C316 C313 1.429 . S
C316 C314 1.420 . S
C316 N324 1.362 . S
C317 C313 1.411 . S
C317 C315 1.420 . S
C317 C322 1.395 . S
C318 C314 1.423 . S
C318 C315 1.351 . S
C318 H330 0.930 . S
C319 C321 1.400 . S
C319 C322 1.386 . S
C319 H331 0.930 . S
N320 C313 1.377 . S
N320 C321 1.321 . S
N320 Eu323 2.609 . S
C321 C319 1.400 . S
C321 N320 1.321 . S
C321 H328 0.930 . S
C322 C317 1.395 . S
C322 C319 1.386 . S
C322 H341 0.930 . S
Eu323 N320 2.609 . S
Eu323 N324 2.657 . S
Eu323 O357 2.380 . S
Eu323 O358 2.432 . S
Eu323 O362 2.558 . S
Eu323 O363 2.612 . S
Eu323 O365 2.339 . S
Eu323 O366 2.563 . S
Eu323 O367 2.419 . S
Eu323 C387 2.848 . S
N324 C316 1.362 . S
N324 Eu323 2.657 . S
N324 C325 1.334 . S
C325 N324 1.334 . S
C325 C327 1.413 1_554 S
C325 H332 0.929 1_554 S
C326 C314 1.392 . S
C326 C327 1.367 1_554 S
C326 H334 0.930 . S
C327 C325 1.413 1_556 S
C327 C326 1.367 1_556 S
C327 H329 0.930 . S
H328 C321 0.930 . S
H329 C327 0.930 . S
H330 C318 0.930 . S
H331 C319 0.930 . S
H332 C325 0.929 1_556 S
H333 C347 0.930 . S
H334 C326 0.930 . S
H335 C353 0.930 1_545 S
H336 C344 0.929 1_545 S
H337 C351 0.930 . S
H338 C315 0.931 . S
H339 C345 0.927 1_655 S
H340 C378 0.930 . S
H341 C322 0.930 . S
H342 C377 0.931 . S
N343 Eu312 2.657 1_565 S
N343 C344 1.334 . S
N343 C348 1.362 . S
C344 H336 0.929 1_565 S
C344 N343 1.334 . S
C344 C347 1.413 . S
C345 H339 0.927 1_455 S
C345 C346 1.394 1_455 S
C345 C347 1.371 . S
C346 C345 1.394 1_655 S
C346 C348 1.413 1_655 S
C346 C378 1.430 . S
C347 H333 0.930 . S
C347 C344 1.413 . S
C347 C345 1.371 . S
C348 N343 1.362 . S
C348 C346 1.413 1_455 S
C348 C352 1.429 1_554 S
H349 C354 0.930 . S
N350 Eu312 2.609 1_566 S
N350 C352 1.377 . S
N350 C353 1.321 . S
C351 H337 0.930 . S
C351 C353 1.400 . S
C351 C354 1.386 1_455 S
C352 C348 1.429 1_556 S
C352 N350 1.377 . S
C352 C355 1.411 1_455 S
C353 H335 0.930 1_565 S
C353 N350 1.321 . S
C353 C351 1.400 . S
C354 H349 0.930 . S
C354 C351 1.386 1_655 S
C354 C355 1.395 . S
C355 C352 1.411 1_655 S
C355 C354 1.395 . S
C355 C377 1.420 . S
O356 Eu312 2.558 1_556 S
O356 C376 1.257 1_456 S
O357 Eu312 2.612 . S
O357 Eu323 2.380 . S
O357 C368 1.276 . S
O358 Eu323 2.432 . S
O358 C375 1.264 . S
O359 Eu312 2.339 . S
O359 C375 1.254 . S
O360 Eu312 2.563 . S
O360 C368 1.235 . S
O361 Eu312 2.419 1_655 S
O361 C376 1.249 . S
O362 Eu323 2.558 . S
O362 C387 1.257 . S
O363 Eu312 2.380 . S
O363 Eu323 2.612 . S
O363 C379 1.276 . S
O364 Eu312 2.432 1_556 S
O364 C386 1.264 . S
O365 Eu323 2.339 . S
O365 C386 1.254 1_554 S
O366 Eu323 2.563 . S
O366 C379 1.235 . S
O367 Eu323 2.419 . S
O367 C387 1.249 . S
C368 O357 1.276 . S
C368 O360 1.235 . S
C369 C371 1.372 1_556 S
C369 C373 1.423 . S
C369 C376 1.486 1_556 S
C370 C371 1.392 . S
C370 C372 1.386 1_554 S
C371 C369 1.372 1_554 S
C371 C370 1.392 . S
C371 H388 0.930 . S
C372 C370 1.386 1_556 S
C372 C374 1.395 . S
C372 H389 0.930 . S
C373 C369 1.423 . S
C373 C374 1.379 . S
C373 H390 0.930 . S
C374 C372 1.395 . S
C374 C373 1.379 . S
C374 H391 0.930 . S
C375 O358 1.264 . S
C375 O359 1.254 . S
C376 Eu312 2.848 1_655 S
C376 O356 1.257 1_654 S
C376 O361 1.249 . S
C376 C369 1.486 1_554 S
C377 H342 0.931 . S
C377 C355 1.420 . S
C377 C378 1.351 1_556 S
C378 H340 0.930 . S
C378 C346 1.430 . S
C378 C377 1.351 1_554 S
C379 O363 1.276 . S
C379 O366 1.235 . S
C380 C381 1.393 . S
C380 C384 1.395 . S
C380 C387 1.492 . S
C381 C380 1.393 . S
C381 C382 1.392 . S
C381 H392 0.930 . S
C382 C381 1.392 . S
C382 C383 1.386 . S
C383 C382 1.386 . S
C383 C385 1.395 . S
C383 H393 0.930 . S
C384 C380 1.395 . S
C384 C385 1.379 . S
C384 H394 0.930 . S
C385 C383 1.395 . S
C385 C384 1.379 . S
C385 H395 0.930 . S
C386 O364 1.264 . S
C386 O365 1.254 1_556 S
C387 Eu323 2.848 . S
C387 O362 1.257 . S
C387 O367 1.249 . S
C387 C380 1.492 . S
H388 C371 0.930 . S
H389 C372 0.930 . S
H390 C373 0.930 . S
H391 C374 0.930 . S
H392 C381 0.930 . S
H393 C383 0.930 . S
H394 C384 0.930 . S
H395 C385 0.930 . S
Eu396 N427 2.657 . S
Eu396 N434 2.609 . S
Eu396 O440 2.558 . S
Eu396 O441 2.612 . S
Eu396 O443 2.339 . S
Eu396 O444 2.563 . S
Eu396 O445 2.419 . S
Eu396 O447 2.380 . S
Eu396 O448 2.432 . S
Eu396 C460 2.848 . S
C397 C400 1.429 . S
C397 C401 1.411 . S
C397 N404 1.377 . S
C398 C400 1.420 . S
C398 C402 1.423 . S
C398 C410 1.392 . S
C399 C401 1.420 . S
C399 C402 1.351 . S
C399 H422 0.931 . S
C400 C397 1.429 . S
C400 C398 1.420 . S
C400 N408 1.362 . S
C401 C397 1.411 . S
C401 C399 1.420 . S
C401 C406 1.395 . S
C402 C398 1.423 . S
C402 C399 1.351 . S
C402 H414 0.930 . S
C403 C405 1.400 . S
C403 C406 1.386 . S
C403 H415 0.930 . S
N404 C397 1.377 . S
N404 C405 1.321 . S
N404 Eu407 2.609 . S
C405 C403 1.400 . S
C405 N404 1.321 . S
C405 H412 0.930 . S
C406 C401 1.395 . S
C406 C403 1.386 . S
C406 H425 0.930 . S
Eu407 N404 2.609 . S
Eu407 N408 2.657 . S
Eu407 O441 2.380 . S
Eu407 O442 2.432 . S
Eu407 O446 2.558 . S
Eu407 O447 2.612 . S
Eu407 O449 2.339 . S
Eu407 O450 2.563 . S
Eu407 O451 2.419 . S
Eu407 C471 2.848 . S
N408 C400 1.362 . S
N408 Eu407 2.657 . S
N408 C409 1.334 . S
C409 N408 1.334 . S
C409 C411 1.413 . S
C409 H416 0.929 . S
C410 C398 1.392 . S
C410 C411 1.367 . S
C410 H418 0.930 . S
C411 C409 1.413 . S
C411 C410 1.367 . S
C411 H413 0.930 . S
H412 C405 0.930 . S
H413 C411 0.930 . S
H414 C402 0.930 . S
H415 C403 0.930 . S
H416 C409 0.929 . S
H417 C431 0.930 . S
H418 C410 0.930 . S
H419 C437 0.930 . S
H420 C428 0.929 . S
H421 C435 0.930 . S
H422 C399 0.931 . S
H423 C429 0.930 . S
H424 C462 0.930 . S
H425 C406 0.930 . S
H426 C461 0.931 . S
N427 Eu396 2.657 . S
N427 C428 1.334 . S
N427 C432 1.362 . S
C428 H420 0.929 . S
C428 N427 1.334 . S
C428 C431 1.413 . S
C429 H423 0.930 . S
C429 C430 1.392 . S
C429 C431 1.367 . S
C430 C429 1.392 . S
C430 C432 1.420 . S
C430 C462 1.423 . S
C431 H417 0.930 . S
C431 C428 1.413 . S
C431 C429 1.367 . S
C432 N427 1.362 . S
C432 C430 1.420 . S
C432 C436 1.429 . S
H433 C438 0.930 . S
N434 Eu396 2.609 . S
N434 C436 1.377 . S
N434 C437 1.321 . S
C435 H421 0.930 . S
C435 C437 1.400 . S
C435 C438 1.386 . S
C436 C432 1.429 . S
C436 N434 1.377 . S
C436 C439 1.411 . S
C437 H419 0.930 . S
C437 N434 1.321 . S
C437 C435 1.400 . S
C438 H433 0.930 . S
C438 C435 1.386 . S
C438 C439 1.395 . S
C439 C436 1.411 . S
C439 C438 1.395 . S
C439 C461 1.420 . S
O440 Eu396 2.558 . S
O440 C460 1.257 . S
O441 Eu396 2.612 . S
O441 Eu407 2.380 . S
O441 C452 1.276 . S
O442 Eu407 2.432 . S
O442 C459 1.264 . S
O443 Eu396 2.339 . S
O443 C459 1.254 . S
O444 Eu396 2.563 . S
O444 C452 1.235 . S
O445 Eu396 2.419 . S
O445 C460 1.249 . S
O446 Eu407 2.558 . S
O446 C471 1.257 . S
O447 Eu396 2.380 . S
O447 Eu407 2.612 . S
O447 C463 1.276 . S
O448 Eu396 2.432 . S
O448 C470 1.264 . S
O449 Eu407 2.339 . S
O449 C470 1.254 . S
O450 Eu407 2.563 . S
O450 C463 1.235 . S
O451 Eu407 2.419 . S
O451 C471 1.249 . S
C452 O441 1.276 . S
C452 O444 1.235 . S
C453 C455 1.393 . S
C453 C457 1.395 . S
C453 C460 1.492 . S
C454 C455 1.392 . S
C454 C456 1.386 . S
C455 C453 1.393 . S
C455 C454 1.392 . S
C455 H472 0.930 . S
C456 C454 1.386 . S
C456 C458 1.395 . S
C456 H473 0.930 . S
C457 C453 1.395 . S
C457 C458 1.379 . S
C457 H474 0.930 . S
C458 C456 1.395 . S
C458 C457 1.379 . S
C458 H475 0.930 . S
C459 O442 1.264 . S
C459 O443 1.254 . S
C460 Eu396 2.848 . S
C460 O440 1.257 . S
C460 O445 1.249 . S
C460 C453 1.492 . S
C461 H426 0.931 . S
C461 C439 1.420 . S
C461 C462 1.351 . S
C462 H424 0.930 . S
C462 C430 1.423 . S
C462 C461 1.351 . S
C463 O447 1.276 . S
C463 O450 1.235 . S
C464 C465 1.393 . S
C464 C468 1.395 . S
C464 C471 1.492 . S
C465 C464 1.393 . S
C465 C466 1.392 . S
C465 H476 0.930 . S
C466 C465 1.392 . S
C466 C467 1.386 . S
C467 C466 1.386 . S
C467 C469 1.395 . S
C467 H477 0.930 . S
C468 C464 1.395 . S
C468 C469 1.379 . S
C468 H478 0.930 . S
C469 C467 1.395 . S
C469 C468 1.379 . S
C469 H479 0.930 . S
C470 O448 1.264 . S
C470 O449 1.254 . S
C471 Eu407 2.848 . S
C471 O446 1.257 . S
C471 O451 1.249 . S
C471 C464 1.492 . S
H472 C455 0.930 . S
H473 C456 0.930 . S
H474 C457 0.930 . S
H475 C458 0.930 . S
H476 C465 0.930 . S
H477 C467 0.930 . S
H478 C468 0.930 . S
H479 C469 0.930 . S
Eu480 N511 2.657 . S
Eu480 N518 2.609 . S
Eu480 O524 2.558 . S
Eu480 O525 2.612 1_545 S
Eu480 O527 2.339 . S
Eu480 O528 2.563 1_545 S
Eu480 O529 2.419 . S
Eu480 O531 2.380 . S
Eu480 O532 2.432 . S
Eu480 C544 2.848 . S
C481 C484 1.429 . S
C481 C485 1.411 . S
C481 N488 1.377 . S
C482 C484 1.420 . S
C482 C486 1.423 . S
C482 C494 1.392 . S
C483 C485 1.420 . S
C483 C486 1.351 . S
C483 H506 0.931 . S
C484 C481 1.429 . S
C484 C482 1.420 . S
C484 N492 1.362 . S
C485 C481 1.411 . S
C485 C483 1.420 . S
C485 C490 1.395 . S
C486 C482 1.423 . S
C486 C483 1.351 . S
C486 H498 0.930 . S
C487 C489 1.400 1_565 S
C487 C490 1.386 . S
C487 H499 0.930 . S
N488 C481 1.377 . S
N488 C489 1.321 1_565 S
N488 Eu491 2.609 1_565 S
C489 C487 1.400 1_545 S
C489 N488 1.321 1_545 S
C489 H496 0.930 . S
C490 C485 1.395 . S
C490 C487 1.386 . S
C490 H509 0.930 . S
Eu491 N488 2.609 1_545 S
Eu491 N492 2.657 1_545 S
Eu491 O525 2.380 1_545 S
Eu491 O526 2.432 . S
Eu491 O530 2.558 . S
Eu491 O531 2.612 . S
Eu491 O533 2.339 . S
Eu491 O534 2.563 . S
Eu491 O535 2.419 . S
Eu491 C555 2.848 . S
N492 C484 1.362 . S
N492 Eu491 2.657 1_565 S
N492 C493 1.334 . S
C493 N492 1.334 . S
C493 C495 1.413 . S
C493 H500 0.929 . S
C494 C482 1.392 . S
C494 C495 1.367 . S
C494 H502 0.930 . S
C495 C493 1.413 . S
C495 C494 1.367 . S
C495 H497 0.930 . S
H496 C489 0.930 . S
H497 C495 0.930 . S
H498 C486 0.930 . S
H499 C487 0.930 . S
H500 C493 0.929 . S
H501 C515 0.930 . S
H502 C494 0.930 . S
H503 C521 0.930 . S
H504 C512 0.929 . S
H505 C519 0.930 . S
H506 C483 0.931 . S
H507 C513 0.930 . S
H508 C546 0.930 . S
H509 C490 0.930 . S
H510 C545 0.931 . S
N511 Eu480 2.657 . S
N511 C512 1.334 . S
N511 C516 1.362 . S
C512 H504 0.929 . S
C512 N511 1.334 . S
C512 C515 1.413 . S
C513 H507 0.930 . S
C513 C514 1.392 . S
C513 C515 1.367 . S
C514 C513 1.392 . S
C514 C516 1.420 . S
C514 C546 1.423 . S
C515 H501 0.930 . S
C515 C512 1.413 . S
C515 C513 1.367 . S
C516 N511 1.362 . S
C516 C514 1.420 . S
C516 C520 1.429 . S
H517 C522 0.930 . S
N518 Eu480 2.609 . S
N518 C520 1.377 . S
N518 C521 1.321 . S
C519 H505 0.930 . S
C519 C521 1.400 . S
C519 C522 1.386 . S
C520 C516 1.429 . S
C520 N518 1.377 . S
C520 C523 1.411 . S
C521 H503 0.930 . S
C521 N518 1.321 . S
C521 C519 1.400 . S
C522 H517 0.930 . S
C522 C519 1.386 . S
C522 C523 1.395 . S
C523 C520 1.411 . S
C523 C522 1.395 . S
C523 C545 1.420 . S
O524 Eu480 2.558 . S
O524 C544 1.257 . S
O525 Eu480 2.612 1_565 S
O525 Eu491 2.380 1_565 S
O525 C536 1.276 . S
O526 Eu491 2.432 . S
O526 C543 1.264 . S
O527 Eu480 2.339 . S
O527 C543 1.254 . S
O528 Eu480 2.563 1_565 S
O528 C536 1.235 . S
O529 Eu480 2.419 . S
O529 C544 1.249 . S
O530 Eu491 2.558 . S
O530 C555 1.257 . S
O531 Eu480 2.380 . S
O531 Eu491 2.612 . S
O531 C547 1.276 . S
O532 Eu480 2.432 . S
O532 C554 1.264 . S
O533 Eu491 2.339 . S
O533 C554 1.254 . S
O534 Eu491 2.563 . S
O534 C547 1.235 . S
O535 Eu491 2.419 . S
O535 C555 1.249 . S
C536 O525 1.276 . S
C536 O528 1.235 . S
C537 C539 1.393 . S
C537 C541 1.395 . S
C537 C544 1.492 1_565 S
C538 C539 1.392 . S
C538 C540 1.386 . S
C539 C537 1.393 . S
C539 C538 1.392 . S
C539 H556 0.930 . S
C540 C538 1.386 . S
C540 C542 1.395 . S
C540 H557 0.930 . S
C541 C537 1.395 . S
C541 C542 1.379 . S
C541 H558 0.941 . S
C542 C540 1.395 . S
C542 C541 1.379 . S
C542 H559 0.930 . S
C543 O526 1.264 . S
C543 O527 1.254 . S
C544 Eu480 2.848 . S
C544 O524 1.257 . S
C544 O529 1.249 . S
C544 C537 1.492 1_545 S
C545 H510 0.931 . S
C545 C523 1.420 . S
C545 C546 1.351 . S
C546 H508 0.930 . S
C546 C514 1.423 . S
C546 C545 1.351 . S
C547 O531 1.276 . S
C547 O534 1.235 . S
C548 C549 1.393 . S
C548 C552 1.395 . S
C548 C555 1.492 . S
C549 C548 1.393 . S
C549 C550 1.392 . S
C549 H560 0.930 . S
C550 C549 1.392 . S
C550 C551 1.386 . S
C551 C550 1.386 . S
C551 C553 1.395 . S
C551 H561 0.930 . S
C552 C548 1.395 . S
C552 C553 1.379 . S
C552 H562 0.930 . S
C553 C551 1.395 . S
C553 C552 1.379 . S
C553 H563 0.930 . S
C554 O532 1.264 . S
C554 O533 1.254 . S
C555 Eu491 2.848 . S
C555 O530 1.257 . S
C555 O535 1.249 . S
C555 C548 1.492 . S
H556 C539 0.930 . S
H557 C540 0.930 . S
H558 C541 0.941 . S
H559 C542 0.930 . S
H560 C549 0.930 . S
H561 C551 0.930 . S
H562 C552 0.930 . S
H563 C553 0.930 . S
Eu564 N595 2.657 . S
Eu564 N602 2.609 . S
Eu564 O608 2.558 . S
Eu564 O609 2.612 . S
Eu564 O611 2.339 . S
Eu564 O612 2.563 . S
Eu564 O613 2.419 . S
Eu564 O615 2.380 . S
Eu564 O616 2.432 . S
Eu564 C628 2.848 . S
C565 C568 1.429 . S
C565 C569 1.411 . S
C565 N572 1.377 . S
C566 C568 1.420 . S
C566 C570 1.423 . S
C566 C578 1.392 . S
C567 C569 1.420 . S
C567 C570 1.351 . S
C567 H590 0.931 . S
C568 C565 1.429 . S
C568 C566 1.420 . S
C568 N576 1.362 . S
C569 C565 1.411 . S
C569 C567 1.420 . S
C569 C574 1.395 . S
C570 C566 1.423 . S
C570 C567 1.351 . S
C570 H582 0.930 . S
C571 C573 1.400 . S
C571 C574 1.386 . S
C571 H583 0.930 . S
N572 C565 1.377 . S
N572 C573 1.321 . S
N572 Eu575 2.609 . S
C573 C571 1.400 . S
C573 N572 1.321 . S
C573 H580 0.930 . S
C574 C569 1.395 . S
C574 C571 1.386 . S
C574 H593 0.930 . S
Eu575 N572 2.609 . S
Eu575 N576 2.657 . S
Eu575 O609 2.380 . S
Eu575 O610 2.432 . S
Eu575 O614 2.558 . S
Eu575 O615 2.612 . S
Eu575 O617 2.339 . S
Eu575 O618 2.563 . S
Eu575 O619 2.419 . S
Eu575 C639 2.848 . S
N576 C568 1.362 . S
N576 Eu575 2.657 . S
N576 C577 1.334 . S
C577 N576 1.334 . S
C577 C579 1.413 . S
C577 H584 0.929 . S
C578 C566 1.392 . S
C578 C579 1.367 . S
C578 H586 0.930 . S
C579 C577 1.413 . S
C579 C578 1.367 . S
C579 H581 0.930 . S
H580 C573 0.930 . S
H581 C579 0.930 . S
H582 C570 0.930 . S
H583 C571 0.930 . S
H584 C577 0.929 . S
H585 C599 0.930 . S
H586 C578 0.930 . S
H587 C605 0.930 . S
H588 C596 0.929 . S
H589 C603 0.930 . S
H590 C567 0.931 . S
H591 C597 0.930 . S
H592 C630 0.930 . S
H593 C574 0.930 . S
H594 C629 0.931 . S
N595 Eu564 2.657 . S
N595 C596 1.334 . S
N595 C600 1.362 . S
C596 H588 0.929 . S
C596 N595 1.334 . S
C596 C599 1.413 . S
C597 H591 0.930 . S
C597 C598 1.392 . S
C597 C599 1.367 . S
C598 C597 1.392 . S
C598 C600 1.420 . S
C598 C630 1.423 . S
C599 H585 0.930 . S
C599 C596 1.413 . S
C599 C597 1.367 . S
C600 N595 1.362 . S
C600 C598 1.420 . S
C600 C604 1.429 . S
H601 C606 0.930 . S
N602 Eu564 2.609 . S
N602 C604 1.377 . S
N602 C605 1.321 . S
C603 H589 0.930 . S
C603 C605 1.400 . S
C603 C606 1.386 . S
C604 C600 1.429 . S
C604 N602 1.377 . S
C604 C607 1.411 . S
C605 H587 0.930 . S
C605 N602 1.321 . S
C605 C603 1.400 . S
C606 H601 0.930 . S
C606 C603 1.386 . S
C606 C607 1.395 . S
C607 C604 1.411 . S
C607 C606 1.395 . S
C607 C629 1.420 . S
O608 Eu564 2.558 . S
O608 C628 1.257 . S
O609 Eu564 2.612 . S
O609 Eu575 2.380 . S
O609 C620 1.276 . S
O610 Eu575 2.432 . S
O610 C627 1.264 . S
O611 Eu564 2.339 . S
O611 C627 1.254 . S
O612 Eu564 2.563 . S
O612 C620 1.235 . S
O613 Eu564 2.419 . S
O613 C628 1.249 . S
O614 Eu575 2.558 . S
O614 C639 1.257 . S
O615 Eu564 2.380 . S
O615 Eu575 2.612 . S
O615 C631 1.276 . S
O616 Eu564 2.432 . S
O616 C638 1.264 . S
O617 Eu575 2.339 . S
O617 C638 1.254 . S
O618 Eu575 2.563 . S
O618 C631 1.235 . S
O619 Eu575 2.419 . S
O619 C639 1.249 . S
C620 O609 1.276 . S
C620 O612 1.235 . S
C621 C623 1.393 . S
C621 C625 1.395 . S
C621 C628 1.492 . S
C622 C623 1.392 . S
C622 C624 1.386 . S
C623 C621 1.393 . S
C623 C622 1.392 . S
C623 H640 0.930 . S
C624 C622 1.386 . S
C624 C626 1.395 . S
C624 H641 0.930 . S
C625 C621 1.395 . S
C625 C626 1.379 . S
C625 H642 0.930 . S
C626 C624 1.395 . S
C626 C625 1.379 . S
C626 H643 0.930 . S
C627 O610 1.264 . S
C627 O611 1.254 . S
C628 Eu564 2.848 . S
C628 O608 1.257 . S
C628 O613 1.249 . S
C628 C621 1.492 . S
C629 H594 0.931 . S
C629 C607 1.420 . S
C629 C630 1.351 . S
C630 H592 0.930 . S
C630 C598 1.423 . S
C630 C629 1.351 . S
C631 O615 1.276 . S
C631 O618 1.235 . S
C632 C633 1.393 . S
C632 C636 1.395 . S
C632 C639 1.492 . S
C633 C632 1.393 . S
C633 C634 1.392 . S
C633 H644 0.930 . S
C634 C633 1.392 . S
C634 C635 1.386 . S
C635 C634 1.386 . S
C635 C637 1.395 . S
C635 H645 0.930 . S
C636 C632 1.395 . S
C636 C637 1.379 . S
C636 H646 0.930 . S
C637 C635 1.395 . S
C637 C636 1.379 . S
C637 H647 0.930 . S
C638 O616 1.264 . S
C638 O617 1.254 . S
C639 Eu575 2.848 . S
C639 O614 1.257 . S
C639 O619 1.249 . S
C639 C632 1.492 . S
H640 C623 0.930 . S
H641 C624 0.930 . S
H642 C625 0.930 . S
H643 C626 0.930 . S
H644 C633 0.930 . S
H645 C635 0.930 . S
H646 C636 0.930 . S
H647 C637 0.930 . S
Eu648 N679 2.657 . S
Eu648 N686 2.609 . S
Eu648 O692 2.558 . S
Eu648 O693 2.612 . S
Eu648 O695 2.339 . S
Eu648 O696 2.563 . S
Eu648 O697 2.419 . S
Eu648 O699 2.380 . S
Eu648 O700 2.432 . S
Eu648 C712 2.848 . S
C649 C652 1.429 . S
C649 C653 1.411 . S
C649 N656 1.377 . S
C650 C652 1.420 . S
C650 C654 1.423 . S
C650 C662 1.392 . S
C651 C653 1.420 . S
C651 C654 1.351 . S
C651 H674 0.931 . S
C652 C649 1.429 . S
C652 C650 1.420 . S
C652 N660 1.362 . S
C653 C649 1.411 . S
C653 C651 1.420 . S
C653 C658 1.395 . S
C654 C650 1.423 . S
C654 C651 1.351 . S
C654 H666 0.930 . S
C655 C657 1.400 . S
C655 C658 1.386 . S
C655 H667 0.930 . S
N656 C649 1.377 . S
N656 C657 1.321 . S
N656 Eu659 2.609 . S
C657 C655 1.400 . S
C657 N656 1.321 . S
C657 H664 0.930 . S
C658 C653 1.395 . S
C658 C655 1.386 . S
C658 H677 0.930 . S
Eu659 N656 2.609 . S
Eu659 N660 2.657 . S
Eu659 O693 2.380 1_565 S
Eu659 O694 2.432 1_565 S
Eu659 O698 2.558 . S
Eu659 O699 2.612 1_565 S
Eu659 O701 2.339 . S
Eu659 O702 2.563 . S
Eu659 O703 2.419 . S
Eu659 C723 2.848 . S
N660 C652 1.362 . S
N660 Eu659 2.657 . S
N660 C661 1.334 . S
C661 N660 1.334 . S
C661 C663 1.413 . S
C661 H668 0.929 . S
C662 C650 1.392 . S
C662 C663 1.367 . S
C662 H670 0.930 . S
C663 C661 1.413 . S
C663 C662 1.367 . S
C663 H665 0.930 1_455 S
H664 C657 0.930 . S
H665 C663 0.930 1_655 S
H666 C654 0.930 . S
H667 C655 0.930 . S
H668 C661 0.929 . S
H669 C683 0.930 . S
H670 C662 0.930 . S
H671 C689 0.930 . S
H672 C680 0.929 . S
H673 C687 0.930 1_655 S
H674 C651 0.931 . S
H675 C681 0.930 . S
H676 C714 0.930 . S
H677 C658 0.930 . S
H678 C713 0.931 . S
N679 Eu648 2.657 . S
N679 C680 1.334 . S
N679 C684 1.362 . S
C680 H672 0.929 . S
C680 N679 1.334 . S
C680 C683 1.413 . S
C681 H675 0.930 . S
C681 C682 1.392 . S
C681 C683 1.367 . S
C682 C681 1.392 . S
C682 C684 1.420 . S
C682 C714 1.423 . S
C683 H669 0.930 . S
C683 C680 1.413 . S
C683 C681 1.367 . S
C684 N679 1.362 . S
C684 C682 1.420 . S
C684 C688 1.429 . S
H685 C690 0.930 . S
N686 Eu648 2.609 . S
N686 C688 1.377 . S
N686 C689 1.321 . S
C687 H673 0.930 1_455 S
C687 C689 1.400 . S
C687 C690 1.386 . S
C688 C684 1.429 . S
C688 N686 1.377 . S
C688 C691 1.411 . S
C689 H671 0.930 . S
C689 N686 1.321 . S
C689 C687 1.400 . S
C690 H685 0.930 . S
C690 C687 1.386 . S
C690 C691 1.395 . S
C691 C688 1.411 . S
C691 C690 1.395 . S
C691 C713 1.420 . S
O692 Eu648 2.558 . S
O692 C712 1.257 . S
O693 Eu648 2.612 . S
O693 Eu659 2.380 1_545 S
O693 C704 1.276 . S
O694 Eu659 2.432 1_545 S
O694 C711 1.264 . S
O695 Eu648 2.339 . S
O695 C711 1.254 . S
O696 Eu648 2.563 . S
O696 C704 1.235 . S
O697 Eu648 2.419 . S
O697 C712 1.249 . S
O698 Eu659 2.558 . S
O698 C723 1.257 . S
O699 Eu648 2.380 . S
O699 Eu659 2.612 1_545 S
O699 C715 1.276 . S
O700 Eu648 2.432 . S
O700 C722 1.264 . S
O701 Eu659 2.339 . S
O701 C722 1.254 1_565 S
O702 Eu659 2.563 . S
O702 C715 1.235 1_565 S
O703 Eu659 2.419 . S
O703 C723 1.249 . S
C704 O693 1.276 . S
C704 O696 1.235 . S
C705 C707 1.393 . S
C705 C709 1.395 . S
C705 C712 1.492 . S
C706 C707 1.392 . S
C706 C708 1.386 . S
C707 C705 1.393 . S
C707 C706 1.392 . S
C707 H724 0.930 . S
C708 C706 1.386 . S
C708 C710 1.395 . S
C708 H725 0.930 . S
C709 C705 1.395 . S
C709 C710 1.379 . S
C709 H726 0.930 . S
C710 C708 1.395 . S
C710 C709 1.379 . S
C710 H727 0.930 . S
C711 O694 1.264 . S
C711 O695 1.254 . S
C712 Eu648 2.848 . S
C712 O692 1.257 . S
C712 O697 1.249 . S
C712 C705 1.492 . S
C713 H678 0.931 . S
C713 C691 1.420 . S
C713 C714 1.351 . S
C714 H676 0.930 . S
C714 C682 1.423 . S
C714 C713 1.351 . S
C715 O699 1.276 . S
C715 O702 1.235 1_545 S
C716 C717 1.393 . S
C716 C720 1.395 . S
C716 C723 1.492 . S
C717 C716 1.393 . S
C717 C718 1.392 . S
C717 H728 0.930 . S
C718 C717 1.392 . S
C718 C719 1.386 . S
C719 C718 1.386 . S
C719 C721 1.395 . S
C719 H729 0.930 . S
C720 C716 1.395 . S
C720 C721 1.379 . S
C720 H730 0.930 . S
C721 C719 1.395 . S
C721 C720 1.379 . S
C721 H731 0.930 . S
C722 O700 1.264 . S
C722 O701 1.254 1_545 S
C723 Eu659 2.848 . S
C723 O698 1.257 . S
C723 O703 1.249 . S
C723 C716 1.492 . S
H724 C707 0.930 . S
H725 C708 0.930 . S
H726 C709 0.930 . S
H727 C710 0.930 . S
H728 C717 0.930 . S
H729 C719 0.930 . S
H730 C720 0.930 . S
H731 C721 0.930 . S
Eu732 N763 2.657 . S
Eu732 N770 2.609 . S
Eu732 O776 2.558 . S
Eu732 O777 2.612 . S
Eu732 O779 2.339 . S
Eu732 O780 2.563 . S
Eu732 O781 2.419 . S
Eu732 O783 2.380 . S
Eu732 O784 2.432 . S
Eu732 C796 2.848 . S
C733 C736 1.429 . S
C733 C737 1.411 . S
C733 N740 1.377 . S
C734 C736 1.420 . S
C734 C738 1.423 . S
C734 C746 1.392 . S
C735 C737 1.420 . S
C735 C738 1.351 . S
C735 H758 0.931 . S
C736 C733 1.429 . S
C736 C734 1.420 . S
C736 N744 1.362 . S
C737 C733 1.411 . S
C737 C735 1.420 . S
C737 C742 1.395 . S
C738 C734 1.423 . S
C738 C735 1.351 . S
C738 H750 0.930 . S
C739 C741 1.400 . S
C739 C742 1.386 . S
C739 H751 0.930 . S
N740 C733 1.377 . S
N740 C741 1.321 . S
N740 Eu743 2.609 . S
C741 C739 1.400 . S
C741 N740 1.321 . S
C741 H748 0.930 . S
C742 C737 1.395 . S
C742 C739 1.386 . S
C742 H761 0.930 . S
Eu743 N740 2.609 . S
Eu743 N744 2.657 . S
Eu743 O777 2.380 . S
Eu743 O778 2.432 . S
Eu743 O782 2.558 . S
Eu743 O783 2.612 . S
Eu743 O785 2.339 . S
Eu743 O786 2.563 . S
Eu743 O787 2.419 . S
Eu743 C807 2.848 . S
N744 C736 1.362 . S
N744 Eu743 2.657 . S
N744 C745 1.334 . S
C745 N744 1.334 . S
C745 C747 1.413 . S
C745 H752 0.929 . S
C746 C734 1.392 . S
C746 C747 1.367 . S
C746 H754 0.930 . S
C747 C745 1.413 . S
C747 C746 1.367 . S
C747 H749 0.930 . S
H748 C741 0.930 . S
H749 C747 0.930 . S
H750 C738 0.930 . S
H751 C739 0.930 . S
H752 C745 0.929 . S
H753 C767 0.930 . S
H754 C746 0.930 . S
H755 C773 0.930 . S
H756 C764 0.929 . S
H757 C771 0.930 . S
H758 C735 0.931 . S
H759 C765 0.930 . S
H760 C798 0.930 . S
H761 C742 0.930 . S
H762 C797 0.931 . S
N763 Eu732 2.657 . S
N763 C764 1.334 . S
N763 C768 1.362 . S
C764 H756 0.929 . S
C764 N763 1.334 . S
C764 C767 1.413 . S
C765 H759 0.930 . S
C765 C766 1.392 . S
C765 C767 1.367 . S
C766 C765 1.392 . S
C766 C768 1.420 . S
C766 C798 1.423 . S
C767 H753 0.930 . S
C767 C764 1.413 . S
C767 C765 1.367 . S
C768 N763 1.362 . S
C768 C766 1.420 . S
C768 C772 1.429 . S
H769 C774 0.930 . S
N770 Eu732 2.609 . S
N770 C772 1.377 . S
N770 C773 1.321 . S
C771 H757 0.930 . S
C771 C773 1.400 . S
C771 C774 1.386 . S
C772 C768 1.429 . S
C772 N770 1.377 . S
C772 C775 1.411 . S
C773 H755 0.930 . S
C773 N770 1.321 . S
C773 C771 1.400 . S
C774 H769 0.930 . S
C774 C771 1.386 . S
C774 C775 1.395 . S
C775 C772 1.411 . S
C775 C774 1.395 . S
C775 C797 1.420 . S
O776 Eu732 2.558 . S
O776 C796 1.257 . S
O777 Eu732 2.612 . S
O777 Eu743 2.380 . S
O777 C788 1.276 . S
O778 Eu743 2.432 . S
O778 C795 1.264 . S
O779 Eu732 2.339 . S
O779 C795 1.254 . S
O780 Eu732 2.563 . S
O780 C788 1.235 . S
O781 Eu732 2.419 . S
O781 C796 1.249 . S
O782 Eu743 2.558 . S
O782 C807 1.257 . S
O783 Eu732 2.380 . S
O783 Eu743 2.612 . S
O783 C799 1.276 . S
O784 Eu732 2.432 . S
O784 C806 1.264 . S
O785 Eu743 2.339 . S
O785 C806 1.254 . S
O786 Eu743 2.563 . S
O786 C799 1.235 . S
O787 Eu743 2.419 . S
O787 C807 1.249 . S
C788 O777 1.276 . S
C788 O780 1.235 . S
C789 C791 1.393 . S
C789 C793 1.395 . S
C789 C796 1.492 . S
C790 C791 1.392 . S
C790 C792 1.386 . S
C791 C789 1.393 . S
C791 C790 1.392 . S
C791 H808 0.930 . S
C792 C790 1.386 . S
C792 C794 1.395 . S
C792 H809 0.930 . S
C793 C789 1.395 . S
C793 C794 1.379 . S
C793 H810 0.930 . S
C794 C792 1.395 . S
C794 C793 1.379 . S
C794 H811 0.930 . S
C795 O778 1.264 . S
C795 O779 1.254 . S
C796 Eu732 2.848 . S
C796 O776 1.257 . S
C796 O781 1.249 . S
C796 C789 1.492 . S
C797 H762 0.931 . S
C797 C775 1.420 . S
C797 C798 1.351 . S
C798 H760 0.930 . S
C798 C766 1.423 . S
C798 C797 1.351 . S
C799 O783 1.276 . S
C799 O786 1.235 . S
C800 C801 1.393 . S
C800 C804 1.395 . S
C800 C807 1.492 . S
C801 C800 1.393 . S
C801 C802 1.392 . S
C801 H812 0.930 . S
C802 C801 1.392 . S
C802 C803 1.386 . S
C803 C802 1.386 . S
C803 C805 1.395 . S
C803 H813 0.930 . S
C804 C800 1.395 . S
C804 C805 1.379 . S
C804 H814 0.930 . S
C805 C803 1.395 . S
C805 C804 1.379 . S
C805 H815 0.930 . S
C806 O784 1.264 . S
C806 O785 1.254 . S
C807 Eu743 2.848 . S
C807 O782 1.257 . S
C807 O787 1.249 . S
C807 C800 1.492 . S
H808 C791 0.930 . S
H809 C792 0.930 . S
H810 C793 0.930 . S
H811 C794 0.930 . S
H812 C801 0.930 . S
H813 C803 0.930 . S
H814 C804 0.930 . S
H815 C805 0.930 . S
Eu816 N847 2.657 . S
Eu816 N854 2.609 . S
Eu816 O860 2.558 . S
Eu816 O861 2.612 . S
Eu816 O863 2.339 . S
Eu816 O864 2.563 . S
Eu816 O865 2.419 . S
Eu816 O867 2.380 . S
Eu816 O868 2.456 . S
Eu816 C880 2.848 . S
C817 C820 1.429 . S
C817 C821 1.411 . S
C817 N824 1.377 . S
C818 C820 1.420 . S
C818 C822 1.423 . S
C818 C830 1.392 1_545 S
C819 C821 1.420 . S
C819 C822 1.351 . S
C819 H842 0.931 . S
C820 C817 1.429 . S
C820 C818 1.420 . S
C820 N828 1.362 . S
C821 C817 1.411 . S
C821 C819 1.420 . S
C821 C826 1.395 . S
C822 C818 1.423 . S
C822 C819 1.351 . S
C822 H834 0.930 . S
C823 C825 1.400 . S
C823 C826 1.386 . S
C823 H835 0.930 . S
N824 C817 1.377 . S
N824 C825 1.321 . S
N824 Eu827 2.609 . S
C825 C823 1.400 . S
C825 N824 1.321 . S
C825 H832 0.930 . S
C826 C821 1.395 . S
C826 C823 1.386 . S
C826 H845 0.930 . S
Eu827 N824 2.609 . S
Eu827 N828 2.657 . S
Eu827 O861 2.380 1_556 S
Eu827 O862 2.432 1_556 S
Eu827 O866 2.558 . S
Eu827 O867 2.612 1_556 S
Eu827 O869 2.339 . S
Eu827 O870 2.563 . S
Eu827 O871 2.419 . S
Eu827 C891 2.848 . S
N828 C820 1.362 . S
N828 Eu827 2.657 . S
N828 C829 1.371 . S
C829 N828 1.371 . S
C829 C831 1.399 1_545 S
C829 H836 0.905 1_545 S
C830 C818 1.392 1_565 S
C830 C831 1.367 . S
C830 H838 0.930 . S
C831 C829 1.399 1_565 S
C831 C830 1.367 . S
C831 H833 0.930 . S
H832 C825 0.930 . S
H833 C831 0.930 . S
H834 C822 0.930 . S
H835 C823 0.930 . S
H836 C829 0.905 1_565 S
H837 C851 0.930 . S
H838 C830 0.930 . S
H839 C857 0.930 . S
H840 C848 0.929 . S
H841 C855 0.930 . S
H842 C819 0.931 . S
H843 C849 0.930 . S
H844 C882 0.930 . S
H845 C826 0.930 . S
H846 C881 0.931 . S
N847 Eu816 2.657 . S
N847 C848 1.334 . S
N847 C852 1.362 . S
C848 H840 0.929 . S
C848 N847 1.334 . S
C848 C851 1.413 . S
C849 H843 0.930 . S
C849 C850 1.392 . S
C849 C851 1.367 . S
C850 C849 1.392 . S
C850 C852 1.420 . S
C850 C882 1.423 . S
C851 H837 0.930 . S
C851 C848 1.413 . S
C851 C849 1.367 . S
C852 N847 1.362 . S
C852 C850 1.420 . S
C852 C856 1.429 . S
H853 C858 0.930 . S
N854 Eu816 2.609 . S
N854 C856 1.377 . S
N854 C857 1.321 1_545 S
C855 H841 0.930 . S
C855 C857 1.400 . S
C855 C858 1.386 . S
C856 C852 1.429 . S
C856 N854 1.377 . S
C856 C859 1.411 . S
C857 H839 0.930 . S
C857 N854 1.321 1_565 S
C857 C855 1.400 . S
C858 H853 0.930 . S
C858 C855 1.386 . S
C858 C859 1.395 1_565 S
C859 C856 1.411 . S
C859 C858 1.395 1_545 S
C859 C881 1.420 . S
O860 Eu816 2.558 . S
O860 C880 1.257 . S
O861 Eu816 2.612 . S
O861 Eu827 2.380 1_554 S
O861 C872 1.276 . S
O862 Eu827 2.432 1_554 S
O862 C879 1.264 . S
O863 Eu816 2.339 . S
O863 C879 1.254 . S
O864 Eu816 2.563 . S
O864 C872 1.235 . S
O865 Eu816 2.419 . S
O865 C880 1.249 . S
O866 Eu827 2.558 . S
O866 C891 1.257 . S
O867 Eu816 2.380 . S
O867 Eu827 2.612 1_554 S
O867 C883 1.276 . S
O868 Eu816 2.456 . S
O868 C890 1.273 1_554 S
O869 Eu827 2.339 . S
O869 C890 1.254 . S
O870 Eu827 2.563 . S
O870 C883 1.235 1_556 S
O871 Eu827 2.419 . S
O871 C891 1.249 . S
C872 O861 1.276 . S
C872 O864 1.235 . S
C873 C875 1.393 . S
C873 C877 1.395 1_545 S
C873 C880 1.492 . S
C874 C875 1.392 . S
C874 C876 1.358 1_545 S
C875 C873 1.393 . S
C875 C874 1.392 . S
C875 H892 0.930 . S
C876 C874 1.358 1_565 S
C876 C878 1.413 . S
C876 H893 0.940 . S
C877 C873 1.395 1_565 S
C877 C878 1.379 . S
C877 H894 0.930 . S
C878 C876 1.413 . S
C878 C877 1.379 . S
C878 H895 0.930 . S
C879 O862 1.264 . S
C879 O863 1.254 . S
C880 Eu816 2.848 . S
C880 O860 1.257 . S
C880 O865 1.249 . S
C880 C873 1.492 . S
C881 H846 0.931 . S
C881 C859 1.420 . S
C881 C882 1.351 . S
C882 H844 0.930 . S
C882 C850 1.423 . S
C882 C881 1.351 . S
C883 O867 1.276 . S
C883 O870 1.235 1_554 S
C884 C885 1.393 . S
C884 C888 1.395 . S
C884 C891 1.492 . S
C885 C884 1.393 . S
C885 C886 1.392 . S
C885 H896 0.930 . S
C886 C885 1.392 . S
C886 C887 1.386 . S
C887 C886 1.386 . S
C887 C889 1.395 . S
C887 H897 0.930 . S
C888 C884 1.395 . S
C888 C889 1.379 . S
C888 H898 0.930 . S
C889 C887 1.395 . S
C889 C888 1.379 . S
C889 H899 0.930 . S
C890 O868 1.273 1_556 S
C890 O869 1.254 . S
C891 Eu827 2.848 . S
C891 O866 1.257 . S
C891 O871 1.249 . S
C891 C884 1.492 . S
H892 C875 0.930 . S
H893 C876 0.940 . S
H894 C877 0.930 . S
H895 C878 0.930 . S
H896 C885 0.930 . S
H897 C887 0.930 . S
H898 C888 0.930 . S
H899 C889 0.930 . S
Eu900 N931 2.657 . S
Eu900 N938 2.609 . S
Eu900 O944 2.558 . S
Eu900 O945 2.612 . S
Eu900 O947 2.339 . S
Eu900 O948 2.563 . S
Eu900 O949 2.419 . S
Eu900 O951 2.380 . S
Eu900 O952 2.432 . S
Eu900 C964 2.848 . S
C901 C904 1.429 . S
C901 C905 1.411 . S
C901 N908 1.377 . S
C902 C904 1.420 . S
C902 C906 1.423 . S
C902 C914 1.392 . S
C903 C905 1.420 . S
C903 C906 1.351 . S
C903 H926 0.931 . S
C904 C901 1.429 . S
C904 C902 1.420 . S
C904 N912 1.362 . S
C905 C901 1.411 . S
C905 C903 1.420 . S
C905 C910 1.395 . S
C906 C902 1.423 . S
C906 C903 1.351 . S
C906 H918 0.930 . S
C907 C909 1.400 . S
C907 C910 1.386 . S
C907 H919 0.930 . S
N908 C901 1.377 . S
N908 C909 1.321 . S
N908 Eu911 2.609 . S
C909 C907 1.400 . S
C909 N908 1.321 . S
C909 H916 0.930 . S
C910 C905 1.395 . S
C910 C907 1.386 . S
C910 H929 0.930 . S
Eu911 N908 2.609 . S
Eu911 N912 2.657 . S
Eu911 O945 2.380 . S
Eu911 O946 2.432 . S
Eu911 O950 2.558 . S
Eu911 O951 2.612 . S
Eu911 O953 2.339 . S
Eu911 O954 2.563 . S
Eu911 O955 2.419 . S
Eu911 C975 2.848 . S
N912 C904 1.362 . S
N912 Eu911 2.657 . S
N912 C913 1.334 . S
C913 N912 1.334 . S
C913 C915 1.413 . S
C913 H920 0.929 . S
C914 C902 1.392 . S
C914 C915 1.367 . S
C914 H922 0.930 . S
C915 C913 1.413 . S
C915 C914 1.367 . S
C915 H917 0.930 . S
H916 C909 0.930 . S
H917 C915 0.930 . S
H918 C906 0.930 . S
H919 C907 0.930 . S
H920 C913 0.929 . S
H921 C935 0.930 . S
H922 C914 0.930 . S
H923 C941 0.930 . S
H924 C932 0.929 . S
H925 C939 0.930 . S
H926 C903 0.931 . S
H927 C933 0.930 . S
H928 C966 0.930 . S
H929 C910 0.930 . S
H930 C965 0.931 . S
N931 Eu900 2.657 . S
N931 C932 1.334 . S
N931 C936 1.362 . S
C932 H924 0.929 . S
C932 N931 1.334 . S
C932 C935 1.413 . S
C933 H927 0.930 . S
C933 C934 1.392 . S
C933 C935 1.367 . S
C934 C933 1.392 . S
C934 C936 1.420 . S
C934 C966 1.423 . S
C935 H921 0.930 . S
C935 C932 1.413 . S
C935 C933 1.367 . S
C936 N931 1.362 . S
C936 C934 1.420 . S
C936 C940 1.429 . S
H937 C942 0.930 . S
N938 Eu900 2.609 . S
N938 C940 1.377 . S
N938 C941 1.321 . S
C939 H925 0.930 . S
C939 C941 1.400 . S
C939 C942 1.386 . S
C940 C936 1.429 . S
C940 N938 1.377 . S
C940 C943 1.411 . S
C941 H923 0.930 . S
C941 N938 1.321 . S
C941 C939 1.400 . S
C942 H937 0.930 . S
C942 C939 1.386 . S
C942 C943 1.395 . S
C943 C940 1.411 . S
C943 C942 1.395 . S
C943 C965 1.420 . S
O944 Eu900 2.558 . S
O944 C964 1.257 . S
O945 Eu900 2.612 . S
O945 Eu911 2.380 . S
O945 C956 1.276 . S
O946 Eu911 2.432 . S
O946 C963 1.264 . S
O947 Eu900 2.339 . S
O947 C963 1.254 . S
O948 Eu900 2.563 . S
O948 C956 1.235 . S
O949 Eu900 2.419 . S
O949 C964 1.249 . S
O950 Eu911 2.558 . S
O950 C975 1.257 . S
O951 Eu900 2.380 . S
O951 Eu911 2.612 . S
O951 C967 1.276 . S
O952 Eu900 2.432 . S
O952 C974 1.264 . S
O953 Eu911 2.339 . S
O953 C974 1.254 . S
O954 Eu911 2.563 . S
O954 C967 1.235 . S
O955 Eu911 2.419 . S
O955 C975 1.249 . S
C956 O945 1.276 . S
C956 O948 1.235 . S
C957 C959 1.393 . S
C957 C961 1.395 . S
C957 C964 1.492 . S
C958 C959 1.392 . S
C958 C960 1.386 . S
C959 C957 1.393 . S
C959 C958 1.392 . S
C959 H976 0.930 . S
C960 C958 1.386 . S
C960 C962 1.395 . S
C960 H977 0.930 . S
C961 C957 1.395 . S
C961 C962 1.379 . S
C961 H978 0.930 . S
C962 C960 1.395 . S
C962 C961 1.379 . S
C962 H979 0.930 . S
C963 O946 1.264 . S
C963 O947 1.254 . S
C964 Eu900 2.848 . S
C964 O944 1.257 . S
C964 O949 1.249 . S
C964 C957 1.492 . S
C965 H930 0.931 . S
C965 C943 1.420 . S
C965 C966 1.351 . S
C966 H928 0.930 . S
C966 C934 1.423 . S
C966 C965 1.351 . S
C967 O951 1.276 . S
C967 O954 1.235 . S
C968 C969 1.393 . S
C968 C972 1.395 . S
C968 C975 1.492 . S
C969 C968 1.393 . S
C969 C970 1.392 . S
C969 H980 0.930 . S
C970 C969 1.392 . S
C970 C971 1.386 . S
C971 C970 1.386 . S
C971 C973 1.395 . S
C971 H981 0.930 . S
C972 C968 1.395 . S
C972 C973 1.379 . S
C972 H982 0.930 . S
C973 C971 1.395 . S
C973 C972 1.379 . S
C973 H983 0.930 . S
C974 O952 1.264 . S
C974 O953 1.254 . S
C975 Eu911 2.848 . S
C975 O950 1.257 . S
C975 O955 1.249 . S
C975 C968 1.492 . S
H976 C959 0.930 . S
H977 C960 0.930 . S
H978 C961 0.930 . S
H979 C962 0.930 . S
H980 C969 0.930 . S
H981 C971 0.930 . S
H982 C972 0.930 . S
H983 C973 0.930 . S
Eu984 N1015 2.657 . S
Eu984 N1022 2.609 . S
Eu984 O1028 2.558 . S
Eu984 O1029 2.612 1_554 S
Eu984 O1031 2.339 . S
Eu984 O1032 2.563 1_554 S
Eu984 O1033 2.419 . S
Eu984 O1035 2.380 . S
Eu984 O1036 2.432 . S
Eu984 C1048 2.848 . S
C985 C988 1.429 . S
C985 C989 1.411 . S
C985 N992 1.377 . S
C986 C988 1.420 . S
C986 C990 1.423 . S
C986 C998 1.392 . S
C987 C989 1.420 . S
C987 C990 1.351 . S
C987 H1010 0.931 . S
C988 C985 1.429 . S
C988 C986 1.420 . S
C988 N996 1.362 . S
C989 C985 1.411 . S
C989 C987 1.420 . S
C989 C994 1.395 . S
C990 C986 1.423 . S
C990 C987 1.351 . S
C990 H1002 0.930 . S
C991 C993 1.400 . S
C991 C994 1.386 . S
C991 H1003 0.930 . S
N992 C985 1.377 . S
N992 C993 1.321 . S
N992 Eu995 2.609 1_556 S
C993 C991 1.400 . S
C993 N992 1.321 . S
C993 H1000 0.930 . S
C994 C989 1.395 . S
C994 C991 1.386 . S
C994 H1013 0.930 . S
Eu995 N992 2.609 1_554 S
Eu995 N996 2.657 1_554 S
Eu995 O1029 2.380 1_554 S
Eu995 O1030 2.432 . S
Eu995 O1034 2.558 . S
Eu995 O1035 2.612 . S
Eu995 O1037 2.339 . S
Eu995 O1038 2.563 . S
Eu995 O1039 2.419 . S
Eu995 C1059 2.848 . S
N996 C988 1.362 . S
N996 Eu995 2.657 1_556 S
N996 C997 1.334 . S
C997 N996 1.334 . S
C997 C999 1.413 . S
C997 H1004 0.929 . S
C998 C986 1.392 . S
C998 C999 1.367 . S
C998 H1006 0.930 . S
C999 C997 1.413 . S
C999 C998 1.367 . S
C999 H1001 0.930 . S
H1000 C993 0.930 . S
H1001 C999 0.930 . S
H1002 C990 0.930 . S
H1003 C991 0.930 . S
H1004 C997 0.929 . S
H1005 C1019 0.930 . S
H1006 C998 0.930 . S
H1007 C1025 0.930 . S
H1008 C1016 0.929 . S
H1009 C1023 0.930 . S
H1010 C987 0.931 . S
H1011 C1017 0.930 . S
H1012 C1050 0.930 . S
H1013 C994 0.930 . S
H1014 C1049 0.931 . S
N1015 Eu984 2.657 . S
N1015 C1016 1.334 . S
N1015 C1020 1.362 . S
C1016 H1008 0.929 . S
C1016 N1015 1.334 . S
C1016 C1019 1.413 . S
C1017 H1011 0.930 . S
C1017 C1018 1.392 . S
C1017 C1019 1.367 . S
C1018 C1017 1.392 . S
C1018 C1020 1.420 . S
C1018 C1050 1.423 . S
C1019 H1005 0.930 . S
C1019 C1016 1.413 . S
C1019 C1017 1.367 . S
C1020 N1015 1.362 . S
C1020 C1018 1.420 . S
C1020 C1024 1.429 . S
H1021 C1026 0.930 . S
N1022 Eu984 2.609 . S
N1022 C1024 1.377 . S
N1022 C1025 1.321 . S
C1023 H1009 0.930 . S
C1023 C1025 1.400 . S
C1023 C1026 1.386 . S
C1024 C1020 1.429 . S
C1024 N1022 1.377 . S
C1024 C1027 1.411 . S
C1025 H1007 0.930 . S
C1025 N1022 1.321 . S
C1025 C1023 1.400 . S
C1026 H1021 0.930 . S
C1026 C1023 1.386 . S
C1026 C1027 1.395 . S
C1027 C1024 1.411 . S
C1027 C1026 1.395 . S
C1027 C1049 1.420 . S
O1028 Eu984 2.558 . S
O1028 C1048 1.257 . S
O1029 Eu984 2.612 1_556 S
O1029 Eu995 2.380 1_556 S
O1029 C1040 1.276 . S
O1030 Eu995 2.432 . S
O1030 C1047 1.264 . S
O1031 Eu984 2.339 . S
O1031 C1047 1.254 . S
O1032 Eu984 2.563 1_556 S
O1032 C1040 1.235 . S
O1033 Eu984 2.419 . S
O1033 C1048 1.249 . S
O1034 Eu995 2.558 . S
O1034 C1059 1.257 . S
O1035 Eu984 2.380 . S
O1035 Eu995 2.612 . S
O1035 C1051 1.276 . S
O1036 Eu984 2.432 . S
O1036 C1058 1.264 . S
O1037 Eu995 2.339 . S
O1037 C1058 1.254 . S
O1038 Eu995 2.563 . S
O1038 C1051 1.235 . S
O1039 Eu995 2.419 . S
O1039 C1059 1.249 . S
C1040 O1029 1.276 . S
C1040 O1032 1.235 . S
C1041 C1043 1.393 1_554 S
C1041 C1045 1.395 . S
C1041 C1048 1.492 . S
C1042 C1043 1.392 . S
C1042 C1044 1.386 . S
C1043 C1041 1.393 1_556 S
C1043 C1042 1.392 . S
C1043 H1060 0.930 . S
C1044 C1042 1.386 . S
C1044 C1046 1.395 1_556 S
C1044 H1061 0.930 . S
C1045 C1041 1.395 . S
C1045 C1046 1.379 . S
C1045 H1062 0.930 . S
C1046 C1044 1.395 1_554 S
C1046 C1045 1.379 . S
C1046 H1063 0.930 . S
C1047 O1030 1.264 . S
C1047 O1031 1.254 . S
C1048 Eu984 2.848 . S
C1048 O1028 1.257 . S
C1048 O1033 1.249 . S
C1048 C1041 1.492 . S
C1049 H1014 0.931 . S
C1049 C1027 1.420 . S
C1049 C1050 1.351 . S
C1050 H1012 0.930 . S
C1050 C1018 1.423 . S
C1050 C1049 1.351 . S
C1051 O1035 1.276 . S
C1051 O1038 1.235 . S
C1052 C1053 1.393 . S
C1052 C1056 1.395 . S
C1052 C1059 1.492 . S
C1053 C1052 1.393 . S
C1053 C1054 1.392 . S
C1053 H1064 0.930 . S
C1054 C1053 1.392 . S
C1054 C1055 1.386 . S
C1055 C1054 1.386 . S
C1055 C1057 1.395 . S
C1055 H1065 0.930 . S
C1056 C1052 1.395 . S
C1056 C1057 1.379 . S
C1056 H1066 0.901 1_554 S
C1057 C1055 1.395 . S
C1057 C1056 1.379 . S
C1057 H1067 0.930 . S
C1058 O1036 1.264 . S
C1058 O1037 1.254 . S
C1059 Eu995 2.848 . S
C1059 O1034 1.257 . S
C1059 O1039 1.249 . S
C1059 C1052 1.492 . S
H1060 C1043 0.930 . S
H1061 C1044 0.930 . S
H1062 C1045 0.930 . S
H1063 C1046 0.930 . S
H1064 C1053 0.930 . S
H1065 C1055 0.930 . S
H1066 C1056 0.901 1_556 S
H1067 C1057 0.930 . S
Eu1068 N1099 2.657 . S
Eu1068 N1106 2.609 . S
Eu1068 O1112 2.558 . S
Eu1068 O1113 2.612 . S
Eu1068 O1115 2.339 . S
Eu1068 O1116 2.563 . S
Eu1068 O1117 2.419 . S
Eu1068 O1119 2.380 . S
Eu1068 O1120 2.432 . S
Eu1068 C1132 2.848 . S
C1069 C1072 1.429 . S
C1069 C1073 1.411 . S
C1069 N1076 1.377 . S
C1070 C1072 1.420 . S
C1070 C1074 1.423 . S
C1070 C1082 1.392 . S
C1071 C1073 1.420 . S
C1071 C1074 1.351 . S
C1071 H1094 0.931 . S
C1072 C1069 1.429 . S
C1072 C1070 1.420 . S
C1072 N1080 1.362 . S
C1073 C1069 1.411 . S
C1073 C1071 1.420 . S
C1073 C1078 1.395 . S
C1074 C1070 1.423 . S
C1074 C1071 1.351 . S
C1074 H1086 0.930 . S
C1075 C1077 1.400 . S
C1075 C1078 1.386 . S
C1075 H1087 0.930 . S
N1076 C1069 1.377 . S
N1076 C1077 1.321 . S
N1076 Eu1079 2.609 . S
C1077 C1075 1.400 . S
C1077 N1076 1.321 . S
C1077 H1084 0.930 . S
C1078 C1073 1.395 . S
C1078 C1075 1.386 . S
C1078 H1097 0.930 . S
Eu1079 N1076 2.609 . S
Eu1079 N1080 2.657 . S
Eu1079 O1113 2.380 . S
Eu1079 O1114 2.432 . S
Eu1079 O1118 2.558 . S
Eu1079 O1119 2.612 . S
Eu1079 O1121 2.339 . S
Eu1079 O1122 2.563 . S
Eu1079 O1123 2.419 . S
Eu1079 C1143 2.848 . S
N1080 C1072 1.362 . S
N1080 Eu1079 2.657 . S
N1080 C1081 1.334 . S
C1081 N1080 1.334 . S
C1081 C1083 1.413 . S
C1081 H1088 0.929 . S
C1082 C1070 1.392 . S
C1082 C1083 1.367 . S
C1082 H1090 0.930 . S
C1083 C1081 1.413 . S
C1083 C1082 1.367 . S
C1083 H1085 0.930 . S
H1084 C1077 0.930 . S
H1085 C1083 0.930 . S
H1086 C1074 0.930 . S
H1087 C1075 0.930 . S
H1088 C1081 0.929 . S
H1089 C1103 0.930 . S
H1090 C1082 0.930 . S
H1091 C1109 0.930 . S
H1092 C1100 0.929 . S
H1093 C1107 0.930 . S
H1094 C1071 0.931 . S
H1095 C1101 0.930 . S
H1096 C1134 0.930 . S
H1097 C1078 0.930 . S
H1098 C1133 0.931 . S
N1099 Eu1068 2.657 . S
N1099 C1100 1.334 . S
N1099 C1104 1.362 . S
C1100 H1092 0.929 . S
C1100 N1099 1.334 . S
C1100 C1103 1.413 . S
C1101 H1095 0.930 . S
C1101 C1102 1.392 . S
C1101 C1103 1.367 . S
C1102 C1101 1.392 . S
C1102 C1104 1.420 . S
C1102 C1134 1.423 . S
C1103 H1089 0.930 . S
C1103 C1100 1.413 . S
C1103 C1101 1.367 . S
C1104 N1099 1.362 . S
C1104 C1102 1.420 . S
C1104 C1108 1.429 . S
H1105 C1110 0.930 . S
N1106 Eu1068 2.609 . S
N1106 C1108 1.377 . S
N1106 C1109 1.321 . S
C1107 H1093 0.930 . S
C1107 C1109 1.400 . S
C1107 C1110 1.386 . S
C1108 C1104 1.429 . S
C1108 N1106 1.377 . S
C1108 C1111 1.411 . S
C1109 H1091 0.930 . S
C1109 N1106 1.321 . S
C1109 C1107 1.400 . S
C1110 H1105 0.930 . S
C1110 C1107 1.386 . S
C1110 C1111 1.395 . S
C1111 C1108 1.411 . S
C1111 C1110 1.395 . S
C1111 C1133 1.420 . S
O1112 Eu1068 2.558 . S
O1112 C1132 1.257 . S
O1113 Eu1068 2.612 . S
O1113 Eu1079 2.380 . S
O1113 C1124 1.276 . S
O1114 Eu1079 2.432 . S
O1114 C1131 1.264 . S
O1115 Eu1068 2.339 . S
O1115 C1131 1.254 . S
O1116 Eu1068 2.563 . S
O1116 C1124 1.235 . S
O1117 Eu1068 2.419 . S
O1117 C1132 1.249 . S
O1118 Eu1079 2.558 . S
O1118 C1143 1.257 . S
O1119 Eu1068 2.380 . S
O1119 Eu1079 2.612 . S
O1119 C1135 1.276 . S
O1120 Eu1068 2.432 . S
O1120 C1142 1.264 . S
O1121 Eu1079 2.339 . S
O1121 C1142 1.254 . S
O1122 Eu1079 2.563 . S
O1122 C1135 1.235 . S
O1123 Eu1079 2.419 . S
O1123 C1143 1.249 . S
C1124 O1113 1.276 . S
C1124 O1116 1.235 . S
C1125 C1127 1.393 . S
C1125 C1129 1.395 . S
C1125 C1132 1.492 . S
C1126 C1127 1.392 . S
C1126 C1128 1.386 . S
C1127 C1125 1.393 . S
C1127 C1126 1.392 . S
C1127 H1144 0.930 . S
C1128 C1126 1.386 . S
C1128 C1130 1.395 . S
C1128 H1145 0.930 . S
C1129 C1125 1.395 . S
C1129 C1130 1.379 . S
C1129 H1146 0.930 . S
C1130 C1128 1.395 . S
C1130 C1129 1.379 . S
C1130 H1147 0.930 . S
C1131 O1114 1.264 . S
C1131 O1115 1.254 . S
C1132 Eu1068 2.848 . S
C1132 O1112 1.257 . S
C1132 O1117 1.249 . S
C1132 C1125 1.492 . S
C1133 H1098 0.931 . S
C1133 C1111 1.420 . S
C1133 C1134 1.351 . S
C1134 H1096 0.930 . S
C1134 C1102 1.423 . S
C1134 C1133 1.351 . S
C1135 O1119 1.276 . S
C1135 O1122 1.235 . S
C1136 C1137 1.393 . S
C1136 C1140 1.395 . S
C1136 C1143 1.492 . S
C1137 C1136 1.393 . S
C1137 C1138 1.392 . S
C1137 H1148 0.930 . S
C1138 C1137 1.392 . S
C1138 C1139 1.386 . S
C1139 C1138 1.386 . S
C1139 C1141 1.395 . S
C1139 H1149 0.930 . S
C1140 C1136 1.395 . S
C1140 C1141 1.379 . S
C1140 H1150 0.930 . S
C1141 C1139 1.395 . S
C1141 C1140 1.379 . S
C1141 H1151 0.930 . S
C1142 O1120 1.264 . S
C1142 O1121 1.254 . S
C1143 Eu1079 2.848 . S
C1143 O1118 1.257 . S
C1143 O1123 1.249 . S
C1143 C1136 1.492 . S
H1144 C1127 0.930 . S
H1145 C1128 0.930 . S
H1146 C1129 0.930 . S
H1147 C1130 0.930 . S
H1148 C1137 0.930 . S
H1149 C1139 0.930 . S
H1150 C1140 0.930 . S
H1151 C1141 0.930 . S
Eu1152 N1183 2.657 . S
Eu1152 N1190 2.609 . S
Eu1152 O1196 2.558 . S
Eu1152 O1197 2.612 . S
Eu1152 O1199 2.339 . S
Eu1152 O1200 2.563 . S
Eu1152 O1201 2.419 . S
Eu1152 O1203 2.380 . S
Eu1152 O1204 2.432 . S
Eu1152 C1216 2.848 . S
C1153 C1156 1.429 . S
C1153 C1157 1.411 . S
C1153 N1160 1.377 1_655 S
C1154 C1156 1.420 . S
C1154 C1158 1.423 . S
C1154 C1166 1.392 . S
C1155 C1157 1.420 . S
C1155 C1158 1.351 . S
C1155 H1178 0.931 . S
C1156 C1153 1.429 . S
C1156 C1154 1.420 . S
C1156 N1164 1.362 1_655 S
C1157 C1153 1.411 . S
C1157 C1155 1.420 . S
C1157 C1162 1.395 . S
C1158 C1154 1.423 . S
C1158 C1155 1.351 . S
C1158 H1170 0.930 . S
C1159 C1161 1.400 1_655 S
C1159 C1162 1.386 . S
C1159 H1171 0.930 . S
N1160 C1153 1.377 1_455 S
N1160 C1161 1.321 . S
N1160 Eu1163 2.609 . S
C1161 C1159 1.400 1_455 S
C1161 N1160 1.321 . S
C1161 H1168 0.930 . S
C1162 C1157 1.395 . S
C1162 C1159 1.386 . S
C1162 H1181 0.930 . S
Eu1163 N1160 2.609 . S
Eu1163 N1164 2.657 . S
Eu1163 O1197 2.380 . S
Eu1163 O1198 2.432 . S
Eu1163 O1202 2.558 . S
Eu1163 O1203 2.612 . S
Eu1163 O1205 2.339 . S
Eu1163 O1206 2.563 . S
Eu1163 O1207 2.419 . S
Eu1163 C1227 2.848 . S
N1164 C1156 1.362 1_455 S
N1164 Eu1163 2.657 . S
N1164 C1165 1.334 . S
C1165 N1164 1.334 . S
C1165 C1167 1.413 1_455 S
C1165 H1172 0.929 . S
C1166 C1154 1.392 . S
C1166 C1167 1.367 . S
C1166 H1174 0.930 . S
C1167 C1165 1.413 1_655 S
C1167 C1166 1.367 . S
C1167 H1169 0.930 . S
H1168 C1161 0.930 . S
H1169 C1167 0.930 . S
H1170 C1158 0.930 . S
H1171 C1159 0.930 . S
H1172 C1165 0.929 . S
H1173 C1187 0.930 . S
H1174 C1166 0.930 . S
H1175 C1193 0.930 . S
H1176 C1184 0.929 . S
H1177 C1191 0.930 . S
H1178 C1155 0.931 . S
H1179 C1185 0.930 . S
H1180 C1218 0.930 . S
H1181 C1162 0.930 . S
H1182 C1217 0.931 . S
N1183 Eu1152 2.657 . S
N1183 C1184 1.334 . S
N1183 C1188 1.362 . S
C1184 H1176 0.929 . S
C1184 N1183 1.334 . S
C1184 C1187 1.413 . S
C1185 H1179 0.930 . S
C1185 C1186 1.392 . S
C1185 C1187 1.367 . S
C1186 C1185 1.392 . S
C1186 C1188 1.420 . S
C1186 C1218 1.423 . S
C1187 H1173 0.930 . S
C1187 C1184 1.413 . S
C1187 C1185 1.367 . S
C1188 N1183 1.362 . S
C1188 C1186 1.420 . S
C1188 C1192 1.429 . S
H1189 C1194 0.930 . S
N1190 Eu1152 2.609 . S
N1190 C1192 1.377 . S
N1190 C1193 1.321 . S
C1191 H1177 0.930 . S
C1191 C1193 1.400 . S
C1191 C1194 1.386 . S
C1192 C1188 1.429 . S
C1192 N1190 1.377 . S
C1192 C1195 1.411 . S
C1193 H1175 0.930 . S
C1193 N1190 1.321 . S
C1193 C1191 1.400 . S
C1194 H1189 0.930 . S
C1194 C1191 1.386 . S
C1194 C1195 1.395 . S
C1195 C1192 1.411 . S
C1195 C1194 1.395 . S
C1195 C1217 1.420 . S
O1196 Eu1152 2.558 . S
O1196 C1216 1.257 . S
O1197 Eu1152 2.612 . S
O1197 Eu1163 2.380 . S
O1197 C1208 1.276 . S
O1198 Eu1163 2.432 . S
O1198 C1215 1.264 . S
O1199 Eu1152 2.339 . S
O1199 C1215 1.254 . S
O1200 Eu1152 2.563 . S
O1200 C1208 1.235 . S
O1201 Eu1152 2.419 . S
O1201 C1216 1.249 . S
O1202 Eu1163 2.558 . S
O1202 C1227 1.257 . S
O1203 Eu1152 2.380 . S
O1203 Eu1163 2.612 . S
O1203 C1219 1.276 . S
O1204 Eu1152 2.432 . S
O1204 C1226 1.264 . S
O1205 Eu1163 2.339 . S
O1205 C1226 1.254 . S
O1206 Eu1163 2.563 . S
O1206 C1219 1.235 . S
O1207 Eu1163 2.419 . S
O1207 C1227 1.249 . S
C1208 O1197 1.276 . S
C1208 O1200 1.235 . S
C1209 C1211 1.393 . S
C1209 C1213 1.395 . S
C1209 C1216 1.492 . S
C1210 C1211 1.392 1_655 S
C1210 C1212 1.386 . S
C1211 C1209 1.393 . S
C1211 C1210 1.392 1_455 S
C1211 H1228 0.930 . S
C1212 C1210 1.386 . S
C1212 C1214 1.395 1_655 S
C1212 H1229 0.930 . S
C1213 C1209 1.395 . S
C1213 C1214 1.379 . S
C1213 H1230 0.930 . S
C1214 C1212 1.395 1_455 S
C1214 C1213 1.379 . S
C1214 H1231 0.930 . S
C1215 O1198 1.264 . S
C1215 O1199 1.254 . S
C1216 Eu1152 2.848 . S
C1216 O1196 1.257 . S
C1216 O1201 1.249 . S
C1216 C1209 1.492 . S
C1217 H1182 0.931 . S
C1217 C1195 1.420 . S
C1217 C1218 1.351 . S
C1218 H1180 0.930 . S
C1218 C1186 1.423 . S
C1218 C1217 1.351 . S
C1219 O1203 1.276 . S
C1219 O1206 1.235 . S
C1220 C1221 1.393 . S
C1220 C1224 1.395 . S
C1220 C1227 1.492 . S
C1221 C1220 1.393 . S
C1221 C1222 1.392 . S
C1221 H1232 0.930 . S
C1222 C1221 1.392 . S
C1222 C1223 1.386 . S
C1223 C1222 1.386 . S
C1223 C1225 1.395 . S
C1223 H1233 0.930 . S
C1224 C1220 1.395 . S
C1224 C1225 1.379 . S
C1224 H1234 0.930 . S
C1225 C1223 1.395 . S
C1225 C1224 1.379 . S
C1225 H1235 0.930 . S
C1226 O1204 1.264 . S
C1226 O1205 1.254 . S
C1227 Eu1163 2.848 . S
C1227 O1202 1.257 . S
C1227 O1207 1.249 . S
C1227 C1220 1.492 . S
H1228 C1211 0.930 . S
H1229 C1212 0.930 . S
H1230 C1213 0.930 . S
H1231 C1214 0.930 . S
H1232 C1221 0.930 . S
H1233 C1223 0.930 . S
H1234 C1224 0.930 . S
H1235 C1225 0.930 . S
Eu1236 N1267 2.657 . S
Eu1236 N1274 2.609 . S
Eu1236 O1280 2.558 . S
Eu1236 O1281 2.612 . S
Eu1236 O1283 2.339 . S
Eu1236 O1284 2.563 . S
Eu1236 O1285 2.419 . S
Eu1236 O1287 2.380 . S
Eu1236 O1288 2.432 . S
Eu1236 C1300 2.848 . S
C1237 C1240 1.429 . S
C1237 C1241 1.411 . S
C1237 N1244 1.377 . S
C1238 C1240 1.420 . S
C1238 C1242 1.423 . S
C1238 C1250 1.392 . S
C1239 C1241 1.420 . S
C1239 C1242 1.351 . S
C1239 H1262 0.931 . S
C1240 C1237 1.429 . S
C1240 C1238 1.420 . S
C1240 N1248 1.362 . S
C1241 C1237 1.411 . S
C1241 C1239 1.420 . S
C1241 C1246 1.395 . S
C1242 C1238 1.423 . S
C1242 C1239 1.351 . S
C1242 H1254 0.930 . S
C1243 C1245 1.400 . S
C1243 C1246 1.386 . S
C1243 H1255 0.930 . S
N1244 C1237 1.377 . S
N1244 C1245 1.321 . S
N1244 Eu1247 2.609 . S
C1245 C1243 1.400 . S
C1245 N1244 1.321 . S
C1245 H1252 0.930 . S
C1246 C1241 1.395 . S
C1246 C1243 1.386 . S
C1246 H1265 0.930 . S
Eu1247 N1244 2.609 . S
Eu1247 N1248 2.657 . S
Eu1247 O1281 2.380 . S
Eu1247 O1282 2.432 . S
Eu1247 O1286 2.558 . S
Eu1247 O1287 2.612 . S
Eu1247 O1289 2.339 . S
Eu1247 O1290 2.563 . S
Eu1247 O1291 2.419 . S
Eu1247 C1311 2.848 . S
N1248 C1240 1.362 . S
N1248 Eu1247 2.657 . S
N1248 C1249 1.334 . S
C1249 N1248 1.334 . S
C1249 C1251 1.413 . S
C1249 H1256 0.929 . S
C1250 C1238 1.392 . S
C1250 C1251 1.367 . S
C1250 H1258 0.930 . S
C1251 C1249 1.413 . S
C1251 C1250 1.367 . S
C1251 H1253 0.930 . S
H1252 C1245 0.930 . S
H1253 C1251 0.930 . S
H1254 C1242 0.930 . S
H1255 C1243 0.930 . S
H1256 C1249 0.929 . S
H1257 C1271 0.930 . S
H1258 C1250 0.930 . S
H1259 C1277 0.930 . S
H1260 C1268 0.929 . S
H1261 C1275 0.930 . S
H1262 C1239 0.931 . S
H1263 C1269 0.930 . S
H1264 C1302 0.930 . S
H1265 C1246 0.930 . S
H1266 C1301 0.931 . S
N1267 Eu1236 2.657 . S
N1267 C1268 1.334 . S
N1267 C1272 1.362 . S
C1268 H1260 0.929 . S
C1268 N1267 1.334 . S
C1268 C1271 1.413 . S
C1269 H1263 0.930 . S
C1269 C1270 1.392 . S
C1269 C1271 1.367 . S
C1270 C1269 1.392 . S
C1270 C1272 1.420 . S
C1270 C1302 1.423 . S
C1271 H1257 0.930 . S
C1271 C1268 1.413 . S
C1271 C1269 1.367 . S
C1272 N1267 1.362 . S
C1272 C1270 1.420 . S
C1272 C1276 1.429 . S
H1273 C1278 0.930 . S
N1274 Eu1236 2.609 . S
N1274 C1276 1.377 . S
N1274 C1277 1.321 . S
C1275 H1261 0.930 . S
C1275 C1277 1.400 . S
C1275 C1278 1.386 . S
C1276 C1272 1.429 . S
C1276 N1274 1.377 . S
C1276 C1279 1.411 . S
C1277 H1259 0.930 . S
C1277 N1274 1.321 . S
C1277 C1275 1.400 . S
C1278 H1273 0.930 . S
C1278 C1275 1.386 . S
C1278 C1279 1.395 . S
C1279 C1276 1.411 . S
C1279 C1278 1.395 . S
C1279 C1301 1.420 . S
O1280 Eu1236 2.558 . S
O1280 C1300 1.257 . S
O1281 Eu1236 2.612 . S
O1281 Eu1247 2.380 . S
O1281 C1292 1.276 . S
O1282 Eu1247 2.432 . S
O1282 C1299 1.264 . S
O1283 Eu1236 2.339 . S
O1283 C1299 1.254 . S
O1284 Eu1236 2.563 . S
O1284 C1292 1.235 . S
O1285 Eu1236 2.419 . S
O1285 C1300 1.249 . S
O1286 Eu1247 2.558 . S
O1286 C1311 1.257 . S
O1287 Eu1236 2.380 . S
O1287 Eu1247 2.612 . S
O1287 C1303 1.276 . S
O1288 Eu1236 2.432 . S
O1288 C1310 1.264 . S
O1289 Eu1247 2.339 . S
O1289 C1310 1.254 . S
O1290 Eu1247 2.563 . S
O1290 C1303 1.235 . S
O1291 Eu1247 2.419 . S
O1291 C1311 1.249 . S
C1292 O1281 1.276 . S
C1292 O1284 1.235 . S
C1293 C1295 1.393 . S
C1293 C1297 1.395 . S
C1293 C1300 1.492 . S
C1294 C1295 1.392 . S
C1294 C1296 1.386 . S
C1295 C1293 1.393 . S
C1295 C1294 1.392 . S
C1295 H1312 0.930 . S
C1296 C1294 1.386 . S
C1296 C1298 1.395 . S
C1296 H1313 0.930 . S
C1297 C1293 1.395 . S
C1297 C1298 1.379 . S
C1297 H1314 0.930 . S
C1298 C1296 1.395 . S
C1298 C1297 1.379 . S
C1298 H1315 0.930 . S
C1299 O1282 1.264 . S
C1299 O1283 1.254 . S
C1300 Eu1236 2.848 . S
C1300 O1280 1.257 . S
C1300 O1285 1.249 . S
C1300 C1293 1.492 . S
C1301 H1266 0.931 . S
C1301 C1279 1.420 . S
C1301 C1302 1.351 . S
C1302 H1264 0.930 . S
C1302 C1270 1.423 . S
C1302 C1301 1.351 . S
C1303 O1287 1.276 . S
C1303 O1290 1.235 . S
C1304 C1305 1.393 . S
C1304 C1308 1.395 . S
C1304 C1311 1.492 . S
C1305 C1304 1.393 . S
C1305 C1306 1.392 . S
C1305 H1316 0.930 . S
C1306 C1305 1.392 . S
C1306 C1307 1.386 . S
C1307 C1306 1.386 . S
C1307 C1309 1.395 . S
C1307 H1317 0.930 . S
C1308 C1304 1.395 . S
C1308 C1309 1.379 . S
C1308 H1318 0.930 . S
C1309 C1307 1.395 . S
C1309 C1308 1.379 . S
C1309 H1319 0.930 . S
C1310 O1288 1.264 . S
C1310 O1289 1.254 . S
C1311 Eu1247 2.848 . S
C1311 O1286 1.257 . S
C1311 O1291 1.249 . S
C1311 C1304 1.492 . S
H1312 C1295 0.930 . S
H1313 C1296 0.930 . S
H1314 C1297 0.930 . S
H1315 C1298 0.930 . S
H1316 C1305 0.930 . S
H1317 C1307 0.930 . S
H1318 C1308 0.930 . S
H1319 C1309 0.930 . S
Eu1320 N1351 2.657 . S
Eu1320 N1358 2.609 . S
Eu1320 O1364 2.558 . S
Eu1320 O1365 2.612 . S
Eu1320 O1367 2.339 . S
Eu1320 O1368 2.563 . S
Eu1320 O1369 2.419 . S
Eu1320 O1371 2.380 . S
Eu1320 O1372 2.432 . S
Eu1320 C1384 2.848 . S
C1321 C1324 1.429 . S
C1321 C1325 1.411 . S
C1321 N1328 1.377 . S
C1322 C1324 1.420 . S
C1322 C1326 1.423 . S
C1322 C1334 1.392 . S
C1323 C1325 1.420 . S
C1323 C1326 1.351 . S
C1323 H1346 0.931 . S
C1324 C1321 1.429 . S
C1324 C1322 1.420 . S
C1324 N1332 1.362 . S
C1325 C1321 1.411 . S
C1325 C1323 1.420 . S
C1325 C1330 1.395 . S
C1326 C1322 1.423 . S
C1326 C1323 1.351 . S
C1326 H1338 0.930 . S
C1327 C1329 1.400 . S
C1327 C1330 1.386 . S
C1327 H1339 0.930 . S
N1328 C1321 1.377 . S
N1328 C1329 1.321 . S
N1328 Eu1331 2.609 . S
C1329 C1327 1.400 . S
C1329 N1328 1.321 . S
C1329 H1336 0.930 . S
C1330 C1325 1.395 . S
C1330 C1327 1.386 . S
C1330 H1349 0.930 . S
Eu1331 N1328 2.609 . S
Eu1331 N1332 2.657 . S
Eu1331 O1365 2.380 . S
Eu1331 O1366 2.432 . S
Eu1331 O1370 2.558 . S
Eu1331 O1371 2.612 . S
Eu1331 O1373 2.339 . S
Eu1331 O1374 2.563 . S
Eu1331 O1375 2.419 . S
Eu1331 C1395 2.848 . S
N1332 C1324 1.362 . S
N1332 Eu1331 2.657 . S
N1332 C1333 1.334 . S
C1333 N1332 1.334 . S
C1333 C1335 1.413 . S
C1333 H1340 0.929 . S
C1334 C1322 1.392 . S
C1334 C1335 1.367 . S
C1334 H1342 0.930 . S
C1335 C1333 1.413 . S
C1335 C1334 1.367 . S
C1335 H1337 0.930 . S
H1336 C1329 0.930 . S
H1337 C1335 0.930 . S
H1338 C1326 0.930 . S
H1339 C1327 0.930 . S
H1340 C1333 0.929 . S
H1341 C1355 0.930 . S
H1342 C1334 0.930 . S
H1343 C1361 0.930 . S
H1344 C1352 0.929 . S
H1345 C1359 0.930 . S
H1346 C1323 0.931 . S
H1347 C1353 0.930 . S
H1348 C1386 0.930 . S
H1349 C1330 0.930 . S
H1350 C1385 0.931 . S
N1351 Eu1320 2.657 . S
N1351 C1352 1.334 . S
N1351 C1356 1.362 . S
C1352 H1344 0.929 . S
C1352 N1351 1.334 . S
C1352 C1355 1.413 . S
C1353 H1347 0.930 . S
C1353 C1354 1.392 . S
C1353 C1355 1.367 . S
C1354 C1353 1.392 . S
C1354 C1356 1.420 . S
C1354 C1386 1.423 . S
C1355 H1341 0.930 . S
C1355 C1352 1.413 . S
C1355 C1353 1.367 . S
C1356 N1351 1.362 . S
C1356 C1354 1.420 . S
C1356 C1360 1.429 . S
H1357 C1362 0.930 . S
N1358 Eu1320 2.609 . S
N1358 C1360 1.377 . S
N1358 C1361 1.321 . S
C1359 H1345 0.930 . S
C1359 C1361 1.400 . S
C1359 C1362 1.386 . S
C1360 C1356 1.429 . S
C1360 N1358 1.377 . S
C1360 C1363 1.411 . S
C1361 H1343 0.930 . S
C1361 N1358 1.321 . S
C1361 C1359 1.400 . S
C1362 H1357 0.930 . S
C1362 C1359 1.386 . S
C1362 C1363 1.395 . S
C1363 C1360 1.411 . S
C1363 C1362 1.395 . S
C1363 C1385 1.420 . S
O1364 Eu1320 2.558 . S
O1364 C1384 1.257 . S
O1365 Eu1320 2.612 . S
O1365 Eu1331 2.380 . S
O1365 C1376 1.276 . S
O1366 Eu1331 2.432 . S
O1366 C1383 1.264 . S
O1367 Eu1320 2.339 . S
O1367 C1383 1.254 . S
O1368 Eu1320 2.563 . S
O1368 C1376 1.235 . S
O1369 Eu1320 2.419 . S
O1369 C1384 1.249 . S
O1370 Eu1331 2.558 . S
O1370 C1395 1.257 . S
O1371 Eu1320 2.380 . S
O1371 Eu1331 2.612 . S
O1371 C1387 1.276 . S
O1372 Eu1320 2.432 . S
O1372 C1394 1.264 . S
O1373 Eu1331 2.339 . S
O1373 C1394 1.254 . S
O1374 Eu1331 2.563 . S
O1374 C1387 1.235 . S
O1375 Eu1331 2.419 . S
O1375 C1395 1.249 . S
C1376 O1365 1.276 . S
C1376 O1368 1.235 . S
C1377 C1379 1.393 . S
C1377 C1381 1.395 . S
C1377 C1384 1.492 . S
C1378 C1379 1.392 . S
C1378 C1380 1.386 . S
C1379 C1377 1.393 . S
C1379 C1378 1.392 . S
C1379 H1396 0.930 . S
C1380 C1378 1.386 . S
C1380 C1382 1.395 . S
C1380 H1397 0.930 . S
C1381 C1377 1.395 . S
C1381 C1382 1.379 . S
C1381 H1398 0.930 . S
C1382 C1380 1.395 . S
C1382 C1381 1.379 . S
C1382 H1399 0.930 . S
C1383 O1366 1.264 . S
C1383 O1367 1.254 . S
C1384 Eu1320 2.848 . S
C1384 O1364 1.257 . S
C1384 O1369 1.249 . S
C1384 C1377 1.492 . S
C1385 H1350 0.931 . S
C1385 C1363 1.420 . S
C1385 C1386 1.351 . S
C1386 H1348 0.930 . S
C1386 C1354 1.423 . S
C1386 C1385 1.351 . S
C1387 O1371 1.276 . S
C1387 O1374 1.235 . S
C1388 C1389 1.393 . S
C1388 C1392 1.395 . S
C1388 C1395 1.492 . S
C1389 C1388 1.393 . S
C1389 C1390 1.392 . S
C1389 H1400 0.930 . S
C1390 C1389 1.392 . S
C1390 C1391 1.386 . S
C1391 C1390 1.386 . S
C1391 C1393 1.395 . S
C1391 H1401 0.930 . S
C1392 C1388 1.395 . S
C1392 C1393 1.379 . S
C1392 H1402 0.930 . S
C1393 C1391 1.395 . S
C1393 C1392 1.379 . S
C1393 H1403 0.930 . S
C1394 O1372 1.264 . S
C1394 O1373 1.254 . S
C1395 Eu1331 2.848 . S
C1395 O1370 1.257 . S
C1395 O1375 1.249 . S
C1395 C1388 1.492 . S
H1396 C1379 0.930 . S
H1397 C1380 0.930 . S
H1398 C1381 0.930 . S
H1399 C1382 0.930 . S
H1400 C1389 0.930 . S
H1401 C1391 0.930 . S
H1402 C1392 0.930 . S
H1403 C1393 0.930 . S
Eu1404 N1435 2.657 . S
Eu1404 N1442 2.609 . S
Eu1404 O1448 2.558 . S
Eu1404 O1449 2.612 . S
Eu1404 O1451 2.339 . S
Eu1404 O1452 2.563 . S
Eu1404 O1453 2.419 . S
Eu1404 O1455 2.380 . S
Eu1404 O1456 2.432 . S
Eu1404 C1468 2.848 . S
C1405 C1408 1.429 . S
C1405 C1409 1.411 . S
C1405 N1412 1.377 . S
C1406 C1408 1.420 . S
C1406 C1410 1.423 . S
C1406 C1418 1.392 . S
C1407 C1409 1.420 . S
C1407 C1410 1.351 . S
C1407 H1430 0.931 . S
C1408 C1405 1.429 . S
C1408 C1406 1.420 . S
C1408 N1416 1.362 . S
C1409 C1405 1.411 . S
C1409 C1407 1.420 . S
C1409 C1414 1.395 . S
C1410 C1406 1.423 . S
C1410 C1407 1.351 . S
C1410 H1422 0.930 . S
C1411 C1413 1.400 . S
C1411 C1414 1.386 . S
C1411 H1423 0.930 . S
N1412 C1405 1.377 . S
N1412 C1413 1.321 . S
N1412 Eu1415 2.609 . S
C1413 C1411 1.400 . S
C1413 N1412 1.321 . S
C1413 H1420 0.930 . S
C1414 C1409 1.395 . S
C1414 C1411 1.386 . S
C1414 H1433 0.930 . S
Eu1415 N1412 2.609 . S
Eu1415 N1416 2.657 . S
Eu1415 O1449 2.380 . S
Eu1415 O1450 2.432 . S
Eu1415 O1454 2.558 . S
Eu1415 O1455 2.612 . S
Eu1415 O1457 2.339 . S
Eu1415 O1458 2.563 . S
Eu1415 O1459 2.419 . S
Eu1415 C1479 2.848 . S
N1416 C1408 1.362 . S
N1416 Eu1415 2.657 . S
N1416 C1417 1.334 . S
C1417 N1416 1.334 . S
C1417 C1419 1.413 . S
C1417 H1424 0.929 . S
C1418 C1406 1.392 . S
C1418 C1419 1.367 . S
C1418 H1426 0.930 . S
C1419 C1417 1.413 . S
C1419 C1418 1.367 . S
C1419 H1421 0.930 . S
H1420 C1413 0.930 . S
H1421 C1419 0.930 . S
H1422 C1410 0.930 . S
H1423 C1411 0.930 . S
H1424 C1417 0.929 . S
H1425 C1439 0.930 . S
H1426 C1418 0.930 . S
H1427 C1445 0.930 . S
H1428 C1436 0.929 . S
H1429 C1443 0.930 . S
H1430 C1407 0.931 . S
H1431 C1437 0.930 . S
H1432 C1470 0.930 . S
H1433 C1414 0.930 . S
H1434 C1469 0.931 . S
N1435 Eu1404 2.657 . S
N1435 C1436 1.334 . S
N1435 C1440 1.362 . S
C1436 H1428 0.929 . S
C1436 N1435 1.334 . S
C1436 C1439 1.413 . S
C1437 H1431 0.930 . S
C1437 C1438 1.392 . S
C1437 C1439 1.367 . S
C1438 C1437 1.392 . S
C1438 C1440 1.420 . S
C1438 C1470 1.423 . S
C1439 H1425 0.930 . S
C1439 C1436 1.413 . S
C1439 C1437 1.367 . S
C1440 N1435 1.362 . S
C1440 C1438 1.420 . S
C1440 C1444 1.429 . S
H1441 C1446 0.930 . S
N1442 Eu1404 2.609 . S
N1442 C1444 1.377 . S
N1442 C1445 1.321 . S
C1443 H1429 0.930 . S
C1443 C1445 1.400 . S
C1443 C1446 1.386 . S
C1444 C1440 1.429 . S
C1444 N1442 1.377 . S
C1444 C1447 1.411 . S
C1445 H1427 0.930 . S
C1445 N1442 1.321 . S
C1445 C1443 1.400 . S
C1446 H1441 0.930 . S
C1446 C1443 1.386 . S
C1446 C1447 1.395 . S
C1447 C1444 1.411 . S
C1447 C1446 1.395 . S
C1447 C1469 1.420 . S
O1448 Eu1404 2.558 . S
O1448 C1468 1.257 . S
O1449 Eu1404 2.612 . S
O1449 Eu1415 2.380 . S
O1449 C1460 1.276 . S
O1450 Eu1415 2.432 . S
O1450 C1467 1.264 . S
O1451 Eu1404 2.339 . S
O1451 C1467 1.254 . S
O1452 Eu1404 2.563 . S
O1452 C1460 1.235 . S
O1453 Eu1404 2.419 . S
O1453 C1468 1.249 . S
O1454 Eu1415 2.558 . S
O1454 C1479 1.257 . S
O1455 Eu1404 2.380 . S
O1455 Eu1415 2.612 . S
O1455 C1471 1.276 . S
O1456 Eu1404 2.432 . S
O1456 C1478 1.264 . S
O1457 Eu1415 2.339 . S
O1457 C1478 1.254 . S
O1458 Eu1415 2.563 . S
O1458 C1471 1.235 . S
O1459 Eu1415 2.419 . S
O1459 C1479 1.249 . S
C1460 O1449 1.276 . S
C1460 O1452 1.235 . S
C1461 C1463 1.393 . S
C1461 C1465 1.395 . S
C1461 C1468 1.492 . S
C1462 C1463 1.392 . S
C1462 C1464 1.386 . S
C1463 C1461 1.393 . S
C1463 C1462 1.392 . S
C1463 H1480 0.930 . S
C1464 C1462 1.386 . S
C1464 C1466 1.395 . S
C1464 H1481 0.930 . S
C1465 C1461 1.395 . S
C1465 C1466 1.379 . S
C1465 H1482 0.930 . S
C1466 C1464 1.395 . S
C1466 C1465 1.379 . S
C1466 H1483 0.930 . S
C1467 O1450 1.264 . S
C1467 O1451 1.254 . S
C1468 Eu1404 2.848 . S
C1468 O1448 1.257 . S
C1468 O1453 1.249 . S
C1468 C1461 1.492 . S
C1469 H1434 0.931 . S
C1469 C1447 1.420 . S
C1469 C1470 1.351 . S
C1470 H1432 0.930 . S
C1470 C1438 1.423 . S
C1470 C1469 1.351 . S
C1471 O1455 1.276 . S
C1471 O1458 1.235 . S
C1472 C1473 1.393 . S
C1472 C1476 1.395 . S
C1472 C1479 1.492 . S
C1473 C1472 1.393 . S
C1473 C1474 1.392 . S
C1473 H1484 0.930 . S
C1474 C1473 1.392 . S
C1474 C1475 1.386 . S
C1475 C1474 1.386 . S
C1475 C1477 1.395 . S
C1475 H1485 0.930 . S
C1476 C1472 1.395 . S
C1476 C1477 1.379 . S
C1476 H1486 0.930 . S
C1477 C1475 1.395 . S
C1477 C1476 1.379 . S
C1477 H1487 0.930 . S
C1478 O1456 1.264 . S
C1478 O1457 1.254 . S
C1479 Eu1415 2.848 . S
C1479 O1454 1.257 . S
C1479 O1459 1.249 . S
C1479 C1472 1.492 . S
H1480 C1463 0.930 . S
H1481 C1464 0.930 . S
H1482 C1465 0.930 . S
H1483 C1466 0.930 . S
H1484 C1473 0.930 . S
H1485 C1475 0.930 . S
H1486 C1476 0.930 . S
H1487 C1477 0.930 . S
Eu1488 N1519 2.657 . S
Eu1488 N1526 2.609 . S
Eu1488 O1532 2.558 . S
Eu1488 O1533 2.612 . S
Eu1488 O1535 2.339 . S
Eu1488 O1536 2.563 . S
Eu1488 O1537 2.419 . S
Eu1488 O1539 2.380 . S
Eu1488 O1540 2.432 . S
Eu1488 C1552 2.848 . S
C1489 C1492 1.429 . S
C1489 C1493 1.411 . S
C1489 N1496 1.377 . S
C1490 C1492 1.420 . S
C1490 C1494 1.423 . S
C1490 C1502 1.392 . S
C1491 C1493 1.420 . S
C1491 C1494 1.351 . S
C1491 H1514 0.931 . S
C1492 C1489 1.429 . S
C1492 C1490 1.420 . S
C1492 N1500 1.362 . S
C1493 C1489 1.411 . S
C1493 C1491 1.420 . S
C1493 C1498 1.395 . S
C1494 C1490 1.423 . S
C1494 C1491 1.351 . S
C1494 H1506 0.930 . S
C1495 C1497 1.400 . S
C1495 C1498 1.386 . S
C1495 H1507 0.930 . S
N1496 C1489 1.377 . S
N1496 C1497 1.321 . S
N1496 Eu1499 2.609 . S
C1497 C1495 1.400 . S
C1497 N1496 1.321 . S
C1497 H1504 0.930 . S
C1498 C1493 1.395 . S
C1498 C1495 1.386 . S
C1498 H1517 0.930 . S
Eu1499 N1496 2.609 . S
Eu1499 N1500 2.657 . S
Eu1499 O1533 2.380 . S
Eu1499 O1534 2.432 . S
Eu1499 O1538 2.558 . S
Eu1499 O1539 2.612 . S
Eu1499 O1541 2.339 . S
Eu1499 O1542 2.563 . S
Eu1499 O1543 2.419 . S
Eu1499 C1563 2.848 . S
N1500 C1492 1.362 . S
N1500 Eu1499 2.657 . S
N1500 C1501 1.334 . S
C1501 N1500 1.334 . S
C1501 C1503 1.413 . S
C1501 H1508 0.929 . S
C1502 C1490 1.392 . S
C1502 C1503 1.367 . S
C1502 H1510 0.930 . S
C1503 C1501 1.413 . S
C1503 C1502 1.367 . S
C1503 H1505 0.930 . S
H1504 C1497 0.930 . S
H1505 C1503 0.930 . S
H1506 C1494 0.930 . S
H1507 C1495 0.930 . S
H1508 C1501 0.929 . S
H1509 C1523 0.930 . S
H1510 C1502 0.930 . S
H1511 C1529 0.930 . S
H1512 C1520 0.929 . S
H1513 C1527 0.930 . S
H1514 C1491 0.931 . S
H1515 C1521 0.930 . S
H1516 C1554 0.930 . S
H1517 C1498 0.930 . S
H1518 C1553 0.931 . S
N1519 Eu1488 2.657 . S
N1519 C1520 1.334 . S
N1519 C1524 1.362 . S
C1520 H1512 0.929 . S
C1520 N1519 1.334 . S
C1520 C1523 1.413 . S
C1521 H1515 0.930 . S
C1521 C1522 1.392 . S
C1521 C1523 1.367 . S
C1522 C1521 1.392 . S
C1522 C1524 1.420 . S
C1522 C1554 1.423 . S
C1523 H1509 0.930 . S
C1523 C1520 1.413 . S
C1523 C1521 1.367 . S
C1524 N1519 1.362 . S
C1524 C1522 1.420 . S
C1524 C1528 1.429 . S
H1525 C1530 0.930 . S
N1526 Eu1488 2.609 . S
N1526 C1528 1.377 . S
N1526 C1529 1.321 . S
C1527 H1513 0.930 . S
C1527 C1529 1.400 . S
C1527 C1530 1.386 . S
C1528 C1524 1.429 . S
C1528 N1526 1.377 . S
C1528 C1531 1.411 . S
C1529 H1511 0.930 . S
C1529 N1526 1.321 . S
C1529 C1527 1.400 . S
C1530 H1525 0.930 . S
C1530 C1527 1.386 . S
C1530 C1531 1.395 . S
C1531 C1528 1.411 . S
C1531 C1530 1.395 . S
C1531 C1553 1.420 . S
O1532 Eu1488 2.558 . S
O1532 C1552 1.257 . S
O1533 Eu1488 2.612 . S
O1533 Eu1499 2.380 . S
O1533 C1544 1.276 . S
O1534 Eu1499 2.432 . S
O1534 C1551 1.264 . S
O1535 Eu1488 2.339 . S
O1535 C1551 1.254 . S
O1536 Eu1488 2.563 . S
O1536 C1544 1.235 . S
O1537 Eu1488 2.419 . S
O1537 C1552 1.249 . S
O1538 Eu1499 2.558 . S
O1538 C1563 1.257 . S
O1539 Eu1488 2.380 . S
O1539 Eu1499 2.612 . S
O1539 C1555 1.276 . S
O1540 Eu1488 2.432 . S
O1540 C1562 1.264 . S
O1541 Eu1499 2.339 . S
O1541 C1562 1.254 . S
O1542 Eu1499 2.563 . S
O1542 C1555 1.235 . S
O1543 Eu1499 2.419 . S
O1543 C1563 1.249 . S
C1544 O1533 1.276 . S
C1544 O1536 1.235 . S
C1545 C1547 1.393 . S
C1545 C1549 1.395 . S
C1545 C1552 1.492 . S
C1546 C1547 1.392 . S
C1546 C1548 1.386 . S
C1547 C1545 1.393 . S
C1547 C1546 1.392 . S
C1547 H1564 0.930 . S
C1548 C1546 1.386 . S
C1548 C1550 1.395 . S
C1548 H1565 0.930 . S
C1549 C1545 1.395 . S
C1549 C1550 1.379 . S
C1549 H1566 0.930 . S
C1550 C1548 1.395 . S
C1550 C1549 1.379 . S
C1550 H1567 0.930 . S
C1551 O1534 1.264 . S
C1551 O1535 1.254 . S
C1552 Eu1488 2.848 . S
C1552 O1532 1.257 . S
C1552 O1537 1.249 . S
C1552 C1545 1.492 . S
C1553 H1518 0.931 . S
C1553 C1531 1.420 . S
C1553 C1554 1.351 . S
C1554 H1516 0.930 . S
C1554 C1522 1.423 . S
C1554 C1553 1.351 . S
C1555 O1539 1.276 . S
C1555 O1542 1.235 . S
C1556 C1557 1.393 . S
C1556 C1560 1.395 . S
C1556 C1563 1.492 . S
C1557 C1556 1.393 . S
C1557 C1558 1.392 . S
C1557 H1568 0.930 . S
C1558 C1557 1.392 . S
C1558 C1559 1.386 . S
C1559 C1558 1.386 . S
C1559 C1561 1.395 . S
C1559 H1569 0.930 . S
C1560 C1556 1.395 . S
C1560 C1561 1.379 . S
C1560 H1570 0.930 . S
C1561 C1559 1.395 . S
C1561 C1560 1.379 . S
C1561 H1571 0.930 . S
C1562 O1540 1.264 . S
C1562 O1541 1.254 . S
C1563 Eu1499 2.848 . S
C1563 O1538 1.257 . S
C1563 O1543 1.249 . S
C1563 C1556 1.492 . S
H1564 C1547 0.930 . S
H1565 C1548 0.930 . S
H1566 C1549 0.930 . S
H1567 C1550 0.930 . S
H1568 C1557 0.930 . S
H1569 C1559 0.930 . S
H1570 C1560 0.930 . S
H1571 C1561 0.930 . S
Eu1572 N1603 2.657 . S
Eu1572 N1610 2.609 1_554 S
Eu1572 O1616 2.558 1_554 S
Eu1572 O1617 2.612 . S
Eu1572 O1619 2.339 . S
Eu1572 O1620 2.563 . S
Eu1572 O1621 2.419 . S
Eu1572 O1623 2.380 . S
Eu1572 O1624 2.432 1_554 S
Eu1572 C1636 2.848 . S
C1573 C1576 1.429 . S
C1573 C1577 1.411 . S
C1573 N1580 1.363 1_655 S
C1574 C1576 1.420 . S
C1574 C1578 1.423 . S
C1574 C1586 1.392 . S
C1575 C1577 1.420 . S
C1575 C1578 1.351 . S
C1575 H1598 0.931 . S
C1576 C1573 1.429 . S
C1576 C1574 1.420 . S
C1576 N1584 1.362 . S
C1577 C1573 1.411 . S
C1577 C1575 1.420 . S
C1577 C1582 1.395 . S
C1578 C1574 1.423 . S
C1578 C1575 1.351 . S
C1578 H1590 0.930 . S
C1579 C1581 1.400 1_655 S
C1579 C1582 1.386 . S
C1579 H1591 0.930 . S
N1580 C1573 1.363 1_455 S
N1580 C1581 1.323 . S
N1580 Eu1583 2.617 . S
C1581 C1579 1.400 1_455 S
C1581 N1580 1.323 . S
C1581 H1588 0.930 . S
C1582 C1577 1.395 . S
C1582 C1579 1.386 . S
C1582 H1601 0.930 . S
Eu1583 N1580 2.617 . S
Eu1583 N1584 2.657 1_455 S
Eu1583 O1617 2.380 . S
Eu1583 O1618 2.432 . S
Eu1583 O1622 2.558 1_455 S
Eu1583 O1623 2.612 . S
Eu1583 O1625 2.339 . S
Eu1583 O1626 2.563 . S
Eu1583 O1627 2.419 1_455 S
Eu1583 C1647 2.848 1_455 S
N1584 C1576 1.362 . S
N1584 Eu1583 2.657 1_655 S
N1584 C1585 1.334 . S
C1585 N1584 1.334 . S
C1585 C1587 1.413 1_554 S
C1585 H1592 0.929 1_554 S
C1586 C1574 1.392 . S
C1586 C1587 1.367 1_554 S
C1586 H1594 0.940 . S
C1587 C1585 1.413 1_556 S
C1587 C1586 1.367 1_556 S
C1587 H1589 0.930 . S
H1588 C1581 0.930 . S
H1589 C1587 0.930 . S
H1590 C1578 0.930 . S
H1591 C1579 0.930 . S
H1592 C1585 0.929 1_556 S
H1593 C1607 0.930 . S
H1594 C1586 0.940 . S
H1595 C1613 0.930 . S
H1596 C1604 0.929 . S
H1597 C1611 0.930 . S
H1598 C1575 0.931 . S
H1599 C1605 0.930 . S
H1600 C1638 0.930 . S
H1601 C1582 0.930 . S
H1602 C1637 0.931 . S
N1603 Eu1572 2.657 . S
N1603 C1604 1.334 . S
N1603 C1608 1.362 . S
C1604 H1596 0.929 . S
C1604 N1603 1.334 . S
C1604 C1607 1.413 . S
C1605 H1599 0.930 . S
C1605 C1606 1.392 . S
C1605 C1607 1.367 . S
C1606 C1605 1.392 . S
C1606 C1608 1.420 . S
C1606 C1638 1.423 . S
C1607 H1593 0.930 . S
C1607 C1604 1.413 . S
C1607 C1605 1.367 . S
C1608 N1603 1.362 . S
C1608 C1606 1.420 . S
C1608 C1612 1.429 1_554 S
H1609 C1614 0.930 . S
N1610 Eu1572 2.609 1_556 S
N1610 C1612 1.377 . S
N1610 C1613 1.321 . S
C1611 H1597 0.930 . S
C1611 C1613 1.400 . S
C1611 C1614 1.386 . S
C1612 C1608 1.429 1_556 S
C1612 N1610 1.377 . S
C1612 C1615 1.411 . S
C1613 H1595 0.930 . S
C1613 N1610 1.321 . S
C1613 C1611 1.400 . S
C1614 H1609 0.930 . S
C1614 C1611 1.386 . S
C1614 C1615 1.395 . S
C1615 C1612 1.411 . S
C1615 C1614 1.395 . S
C1615 C1637 1.420 . S
O1616 Eu1572 2.558 1_556 S
O1616 C1636 1.257 1_556 S
O1617 Eu1572 2.612 . S
O1617 Eu1583 2.380 . S
O1617 C1628 1.276 . S
O1618 Eu1583 2.432 . S
O1618 C1635 1.264 . S
O1619 Eu1572 2.339 . S
O1619 C1635 1.254 . S
O1620 Eu1572 2.563 . S
O1620 C1628 1.235 . S
O1621 Eu1572 2.419 . S
O1621 C1636 1.249 . S
O1622 Eu1583 2.558 1_655 S
O1622 C1647 1.257 . S
O1623 Eu1572 2.380 . S
O1623 Eu1583 2.612 . S
O1623 C1639 1.276 . S
O1624 Eu1572 2.432 1_556 S
O1624 C1646 1.264 . S
O1625 Eu1583 2.339 . S
O1625 C1646 1.254 1_554 S
O1626 Eu1583 2.563 . S
O1626 C1639 1.235 . S
O1627 Eu1583 2.419 1_655 S
O1627 C1647 1.249 . S
C1628 O1617 1.276 . S
C1628 O1620 1.235 . S
C1629 C1631 1.393 1_556 S
C1629 C1633 1.395 . S
C1629 C1636 1.492 1_556 S
C1630 C1631 1.392 . S
C1630 C1632 1.386 1_554 S
C1631 C1629 1.393 1_554 S
C1631 C1630 1.392 . S
C1631 H1648 0.930 . S
C1632 C1630 1.386 1_556 S
C1632 C1634 1.395 . S
C1632 H1649 0.930 . S
C1633 C1629 1.395 . S
C1633 C1634 1.379 . S
C1633 H1650 0.930 . S
C1634 C1632 1.395 . S
C1634 C1633 1.379 . S
C1634 H1651 0.930 . S
C1635 O1618 1.264 . S
C1635 O1619 1.254 . S
C1636 Eu1572 2.848 . S
C1636 O1616 1.257 1_554 S
C1636 O1621 1.249 . S
C1636 C1629 1.492 1_554 S
C1637 H1602 0.931 . S
C1637 C1615 1.420 . S
C1637 C1638 1.351 1_556 S
C1638 H1600 0.930 . S
C1638 C1606 1.423 . S
C1638 C1637 1.351 1_554 S
C1639 O1623 1.276 . S
C1639 O1626 1.235 . S
C1640 C1641 1.393 . S
C1640 C1644 1.395 . S
C1640 C1647 1.492 . S
C1641 C1640 1.393 . S
C1641 C1642 1.392 . S
C1641 H1652 0.930 . S
C1642 C1641 1.392 . S
C1642 C1643 1.386 . S
C1643 C1642 1.386 . S
C1643 C1645 1.395 . S
C1643 H1653 0.930 . S
C1644 C1640 1.395 . S
C1644 C1645 1.379 . S
C1644 H1654 0.930 . S
C1645 C1643 1.395 . S
C1645 C1644 1.379 . S
C1645 H1655 0.930 . S
C1646 O1624 1.264 . S
C1646 O1625 1.254 1_556 S
C1647 Eu1583 2.848 1_655 S
C1647 O1622 1.257 . S
C1647 O1627 1.249 . S
C1647 C1640 1.492 . S
H1648 C1631 0.930 . S
H1649 C1632 0.930 . S
H1650 C1633 0.930 . S
H1651 C1634 0.930 . S
H1652 C1641 0.930 . S
H1653 C1643 0.930 . S
H1654 C1644 0.930 . S
H1655 C1645 0.930 . S
H1656 C1662 0.930 . S
H1657 C1666 0.930 . S
H1658 C1671 0.929 1_554 S
H1659 C1669 0.929 . S
H1660 C1664 0.929 . S
H1661 C1670 0.929 . S
C1662 H1656 0.930 . S
C1662 C1663 1.367 . S
C1662 C1670 1.378 . S
C1663 C1662 1.367 . S
C1663 C1671 1.433 . S
C1664 H1660 0.929 . S
C1664 C1666 1.378 . S
C1664 C1668 1.350 . S
C1665 C1668 1.463 1_556 S
C1665 C1670 1.350 . S
C1665 N1673 1.427 1_556 S
C1666 H1657 0.930 . S
C1666 C1664 1.378 . S
C1666 C1667 1.367 . S
C1667 C1666 1.367 . S
C1667 C1669 1.433 1_554 S
C1668 C1664 1.350 . S
C1668 C1665 1.463 1_554 S
C1668 N1672 1.427 1_554 S
C1669 H1659 0.929 . S
C1669 C1667 1.433 1_556 S
C1669 N1672 1.384 . S
C1670 H1661 0.929 . S
C1670 C1662 1.378 . S
C1670 C1665 1.350 . S
C1671 H1658 0.929 1_556 S
C1671 C1663 1.433 . S
C1671 N1673 1.384 1_556 S
N1672 C1668 1.427 1_556 S
N1672 C1669 1.384 . S
N1673 C1665 1.427 1_554 S
N1673 C1671 1.384 1_554 S
H1674 C1680 0.930 . S
H1675 C1684 0.930 . S
H1676 C1689 0.929 . S
H1677 C1687 0.929 . S
H1678 C1682 0.929 . S
H1679 C1688 0.929 . S
C1680 H1674 0.930 . S
C1680 C1681 1.367 . S
C1680 C1688 1.378 . S
C1681 C1680 1.367 . S
C1681 C1689 1.433 . S
C1682 H1678 0.929 . S
C1682 C1684 1.378 . S
C1682 C1686 1.350 . S
C1683 C1686 1.463 . S
C1683 C1688 1.350 . S
C1683 N1691 1.427 . S
C1684 H1675 0.930 . S
C1684 C1682 1.378 . S
C1684 C1685 1.367 . S
C1685 C1684 1.367 . S
C1685 C1687 1.433 . S
C1686 C1682 1.350 . S
C1686 C1683 1.463 . S
C1686 N1690 1.427 . S
C1687 H1677 0.929 . S
C1687 C1685 1.433 . S
C1687 N1690 1.384 . S
C1688 H1679 0.929 . S
C1688 C1680 1.378 . S
C1688 C1683 1.350 . S
C1689 H1676 0.929 . S
C1689 C1681 1.433 . S
C1689 N1691 1.384 . S
N1690 C1686 1.427 . S
N1690 C1687 1.384 . S
N1691 C1683 1.427 . S
N1691 C1689 1.384 . S
H1692 C1698 0.930 . S
H1693 C1702 0.930 . S
H1694 C1707 0.929 . S
H1695 C1705 0.929 . S
H1696 C1700 0.929 . S
H1697 C1706 0.929 . S
C1698 H1692 0.930 . S
C1698 C1699 1.367 . S
C1698 C1706 1.378 . S
C1699 C1698 1.367 . S
C1699 C1707 1.433 . S
C1700 H1696 0.929 . S
C1700 C1702 1.378 . S
C1700 C1704 1.350 . S
C1701 C1704 1.463 . S
C1701 C1706 1.350 . S
C1701 N1709 1.427 . S
C1702 H1693 0.930 . S
C1702 C1700 1.378 . S
C1702 C1703 1.367 . S
C1703 C1702 1.367 . S
C1703 C1705 1.433 . S
C1704 C1700 1.350 . S
C1704 C1701 1.463 . S
C1704 N1708 1.427 . S
C1705 H1695 0.929 . S
C1705 C1703 1.433 . S
C1705 N1708 1.384 . S
C1706 H1697 0.929 . S
C1706 C1698 1.378 . S
C1706 C1701 1.350 . S
C1707 H1694 0.929 . S
C1707 C1699 1.433 . S
C1707 N1709 1.384 . S
N1708 C1704 1.427 . S
N1708 C1705 1.384 . S
N1709 C1701 1.427 . S
N1709 C1707 1.384 . S
H1710 C1716 0.930 . S
H1711 C1720 0.930 . S
H1712 C1725 0.929 . S
H1713 C1723 0.929 . S
H1714 C1718 0.929 . S
H1715 C1724 0.929 . S
C1716 H1710 0.930 . S
C1716 C1717 1.367 . S
C1716 C1724 1.378 . S
C1717 C1716 1.367 . S
C1717 C1725 1.433 . S
C1718 H1714 0.929 . S
C1718 C1720 1.378 . S
C1718 C1722 1.350 . S
C1719 C1722 1.463 . S
C1719 C1724 1.350 . S
C1719 N1727 1.427 . S
C1720 H1711 0.930 . S
C1720 C1718 1.378 . S
C1720 C1721 1.367 . S
C1721 C1720 1.367 . S
C1721 C1723 1.433 . S
C1722 C1718 1.350 . S
C1722 C1719 1.463 . S
C1722 N1726 1.427 . S
C1723 H1713 0.929 . S
C1723 C1721 1.433 . S
C1723 N1726 1.384 . S
C1724 H1715 0.929 . S
C1724 C1716 1.378 . S
C1724 C1719 1.350 . S
C1725 H1712 0.929 . S
C1725 C1717 1.433 . S
C1725 N1727 1.384 . S
N1726 C1722 1.427 . S
N1726 C1723 1.384 . S
N1727 C1719 1.427 . S
N1727 C1725 1.384 . S
H1728 C1734 0.930 1_655 S
H1729 C1738 0.930 . S
H1730 C1743 0.929 . S
H1731 C1741 0.929 . S
H1732 C1736 0.929 . S
H1733 C1742 0.949 . S
C1734 H1728 0.930 1_455 S
C1734 C1735 1.367 . S
C1734 C1742 1.378 . S
C1735 C1734 1.367 . S
C1735 C1743 1.433 . S
C1736 H1732 0.929 . S
C1736 C1738 1.378 . S
C1736 C1740 1.350 . S
C1737 C1740 1.463 . S
C1737 C1742 1.350 . S
C1737 N1745 1.427 . S
C1738 H1729 0.930 . S
C1738 C1736 1.378 . S
C1738 C1739 1.367 . S
C1739 C1738 1.367 . S
C1739 C1741 1.433 . S
C1740 C1736 1.350 . S
C1740 C1737 1.463 . S
C1740 N1744 1.427 . S
C1741 H1731 0.929 . S
C1741 C1739 1.433 . S
C1741 N1744 1.384 . S
C1742 H1733 0.949 . S
C1742 C1734 1.378 . S
C1742 C1737 1.350 . S
C1743 H1730 0.929 . S
C1743 C1735 1.433 . S
C1743 N1745 1.384 . S
N1744 C1740 1.427 . S
N1744 C1741 1.384 . S
N1745 C1737 1.427 . S
N1745 C1743 1.384 . S
H1746 C1752 0.930 . S
H1747 C1756 0.930 . S
H1748 C1761 0.929 . S
H1749 C1759 0.929 . S
H1750 C1754 0.929 . S
H1751 C1760 0.929 . S
C1752 H1746 0.930 . S
C1752 C1753 1.367 . S
C1752 C1760 1.378 . S
C1753 C1752 1.367 . S
C1753 C1761 1.433 . S
C1754 H1750 0.929 . S
C1754 C1756 1.378 . S
C1754 C1758 1.350 . S
C1755 C1758 1.463 . S
C1755 C1760 1.350 . S
C1755 N1763 1.427 . S
C1756 H1747 0.930 . S
C1756 C1754 1.378 . S
C1756 C1757 1.367 . S
C1757 C1756 1.367 . S
C1757 C1759 1.433 . S
C1758 C1754 1.350 . S
C1758 C1755 1.463 . S
C1758 N1762 1.427 . S
C1759 H1749 0.929 . S
C1759 C1757 1.433 . S
C1759 N1762 1.384 . S
C1760 H1751 0.929 . S
C1760 C1752 1.378 . S
C1760 C1755 1.350 . S
C1761 H1748 0.929 . S
C1761 C1753 1.433 . S
C1761 N1763 1.384 . S
N1762 C1758 1.427 . S
N1762 C1759 1.384 . S
N1763 C1755 1.427 . S
N1763 C1761 1.384 . S
H1764 C1770 0.930 . S
H1765 C1774 0.930 . S
H1766 C1779 0.929 . S
H1767 C1777 0.929 . S
H1768 C1772 0.929 . S
H1769 C1778 0.929 . S
C1770 H1764 0.930 . S
C1770 C1771 1.367 . S
C1770 C1778 1.378 . S
C1771 C1770 1.367 . S
C1771 C1779 1.433 . S
C1772 H1768 0.929 . S
C1772 C1774 1.378 . S
C1772 C1776 1.350 . S
C1773 C1776 1.463 . S
C1773 C1778 1.350 . S
C1773 N1781 1.427 . S
C1774 H1765 0.930 . S
C1774 C1772 1.378 . S
C1774 C1775 1.367 . S
C1775 C1774 1.367 . S
C1775 C1777 1.433 . S
C1776 C1772 1.350 . S
C1776 C1773 1.463 . S
C1776 N1780 1.427 . S
C1777 H1767 0.929 . S
C1777 C1775 1.433 . S
C1777 N1780 1.384 . S
C1778 H1769 0.929 . S
C1778 C1770 1.378 . S
C1778 C1773 1.350 . S
C1779 H1766 0.929 . S
C1779 C1771 1.433 . S
C1779 N1781 1.384 . S
N1780 C1776 1.427 . S
N1780 C1777 1.384 . S
N1781 C1773 1.427 . S
N1781 C1779 1.384 . S
H1782 C1788 0.930 . S
H1783 C1792 0.930 . S
H1784 C1797 0.929 . S
H1785 C1795 0.929 . S
H1786 C1790 0.929 . S
H1787 C1796 0.929 . S
C1788 H1782 0.930 . S
C1788 C1789 1.367 . S
C1788 C1796 1.378 . S
C1789 C1788 1.367 . S
C1789 C1797 1.433 . S
C1790 H1786 0.929 . S
C1790 C1792 1.378 . S
C1790 C1794 1.350 . S
C1791 C1794 1.463 . S
C1791 C1796 1.350 . S
C1791 N1799 1.427 . S
C1792 H1783 0.930 . S
C1792 C1790 1.378 . S
C1792 C1793 1.367 . S
C1793 C1792 1.367 . S
C1793 C1795 1.433 . S
C1794 C1790 1.350 . S
C1794 C1791 1.463 . S
C1794 N1798 1.427 . S
C1795 H1785 0.929 . S
C1795 C1793 1.433 . S
C1795 N1798 1.384 . S
C1796 H1787 0.929 . S
C1796 C1788 1.378 . S
C1796 C1791 1.350 . S
C1797 H1784 0.929 . S
C1797 C1789 1.433 . S
C1797 N1799 1.384 . S
N1798 C1794 1.427 . S
N1798 C1795 1.384 . S
N1799 C1791 1.427 . S
N1799 C1797 1.384 . S
H1800 C1806 0.930 . S
H1801 C1810 0.930 . S
H1802 C1815 0.929 . S
H1803 C1813 0.929 . S
H1804 C1808 0.929 . S
H1805 C1814 0.929 . S
C1806 H1800 0.930 . S
C1806 C1807 1.367 . S
C1806 C1814 1.378 1_655 S
C1807 C1806 1.367 . S
C1807 C1815 1.433 . S
C1808 H1804 0.929 . S
C1808 C1810 1.378 . S
C1808 C1812 1.350 . S
C1809 C1812 1.462 . S
C1809 C1814 1.350 . S
C1809 N1817 1.427 1_455 S
C1810 H1801 0.930 . S
C1810 C1808 1.378 . S
C1810 C1811 1.367 . S
C1811 C1810 1.367 . S
C1811 C1813 1.433 . S
C1812 C1808 1.350 . S
C1812 C1809 1.462 . S
C1812 N1816 1.427 . S
C1813 H1803 0.929 . S
C1813 C1811 1.433 . S
C1813 N1816 1.384 . S
C1814 H1805 0.929 . S
C1814 C1806 1.378 1_455 S
C1814 C1809 1.350 . S
C1815 H1802 0.929 . S
C1815 C1807 1.433 . S
C1815 N1817 1.384 . S
N1816 C1812 1.427 . S
N1816 C1813 1.384 . S
N1817 C1809 1.427 1_655 S
N1817 C1815 1.384 . S
H1818 C1824 0.930 . S
H1819 C1828 0.930 . S
H1820 C1833 0.929 . S
H1821 C1831 0.929 . S
H1822 C1826 0.929 . S
H1823 C1832 0.929 . S
C1824 H1818 0.930 . S
C1824 C1825 1.367 . S
C1824 C1832 1.378 . S
C1825 C1824 1.367 . S
C1825 C1833 1.433 . S
C1826 H1822 0.929 . S
C1826 C1828 1.378 . S
C1826 C1830 1.350 . S
C1827 C1830 1.463 . S
C1827 C1832 1.350 . S
C1827 N1835 1.427 . S
C1828 H1819 0.930 . S
C1828 C1826 1.378 . S
C1828 C1829 1.367 . S
C1829 C1828 1.367 . S
C1829 C1831 1.433 . S
C1830 C1826 1.350 . S
C1830 C1827 1.463 . S
C1830 N1834 1.427 . S
C1831 H1821 0.929 . S
C1831 C1829 1.433 . S
C1831 N1834 1.384 . S
C1832 H1823 0.929 . S
C1832 C1824 1.378 . S
C1832 C1827 1.350 . S
C1833 H1820 0.929 . S
C1833 C1825 1.433 . S
C1833 N1835 1.384 . S
N1834 C1830 1.427 . S
N1834 C1831 1.384 . S
N1835 C1827 1.427 . S
N1835 C1833 1.384 . S
H1836 C1842 0.930 . S
H1837 C1846 0.930 . S
H1838 C1851 0.929 1_565 S
H1839 C1849 0.929 . S
H1840 C1844 0.907 1_565 S
H1841 C1850 0.929 . S
C1842 H1836 0.930 . S
C1842 C1843 1.367 . S
C1842 C1850 1.378 . S
C1843 C1842 1.367 . S
C1843 C1851 1.433 . S
C1844 H1840 0.907 1_545 S
C1844 C1846 1.382 1_545 S
C1844 C1848 1.368 . S
C1845 C1848 1.463 . S
C1845 C1850 1.350 . S
C1845 N1853 1.427 . S
C1846 H1837 0.930 . S
C1846 C1844 1.382 1_565 S
C1846 C1847 1.367 1_565 S
C1847 C1846 1.367 1_545 S
C1847 C1849 1.433 . S
C1848 C1844 1.368 . S
C1848 C1845 1.463 . S
C1848 N1852 1.427 . S
C1849 H1839 0.929 . S
C1849 C1847 1.433 . S
C1849 N1852 1.384 . S
C1850 H1841 0.929 . S
C1850 C1842 1.378 . S
C1850 C1845 1.350 . S
C1851 H1838 0.929 1_545 S
C1851 C1843 1.433 . S
C1851 N1853 1.384 . S
N1852 C1848 1.427 . S
N1852 C1849 1.384 . S
N1853 C1845 1.427 . S
N1853 C1851 1.384 . S
H1854 C1860 0.930 . S
H1855 C1864 0.930 . S
H1856 C1869 0.929 . S
H1857 C1867 0.929 . S
H1858 C1862 0.929 . S
H1859 C1868 0.929 . S
C1860 H1854 0.930 . S
C1860 C1861 1.367 . S
C1860 C1868 1.378 . S
C1861 C1860 1.367 . S
C1861 C1869 1.433 . S
C1862 H1858 0.929 . S
C1862 C1864 1.378 . S
C1862 C1866 1.350 . S
C1863 C1866 1.463 . S
C1863 C1868 1.350 . S
C1863 N1871 1.427 . S
C1864 H1855 0.930 . S
C1864 C1862 1.378 . S
C1864 C1865 1.367 . S
C1865 C1864 1.367 . S
C1865 C1867 1.433 . S
C1866 C1862 1.350 . S
C1866 C1863 1.463 . S
C1866 N1870 1.427 . S
C1867 H1857 0.929 . S
C1867 C1865 1.433 . S
C1867 N1870 1.384 . S
C1868 H1859 0.929 . S
C1868 C1860 1.378 . S
C1868 C1863 1.350 . S
C1869 H1856 0.929 . S
C1869 C1861 1.433 . S
C1869 N1871 1.384 . S
N1870 C1866 1.427 . S
N1870 C1867 1.384 . S
N1871 C1863 1.427 . S
N1871 C1869 1.384 . S
H1872 C1878 0.930 . S
H1873 C1882 0.930 . S
H1874 C1887 0.929 . S
H1875 C1885 0.929 . S
H1876 C1880 0.929 . S
H1877 C1886 0.929 . S
C1878 H1872 0.930 . S
C1878 C1879 1.367 . S
C1878 C1886 1.378 . S
C1879 C1878 1.367 . S
C1879 C1887 1.433 1_655 S
C1880 H1876 0.929 . S
C1880 C1882 1.378 . S
C1880 C1884 1.350 . S
C1881 C1884 1.463 . S
C1881 C1886 1.350 1_455 S
C1881 N1889 1.427 . S
C1882 H1873 0.930 . S
C1882 C1880 1.378 . S
C1882 C1883 1.367 . S
C1883 C1882 1.367 . S
C1883 C1885 1.433 . S
C1884 C1880 1.350 . S
C1884 C1881 1.463 . S
C1884 N1888 1.427 . S
C1885 H1875 0.929 . S
C1885 C1883 1.433 . S
C1885 N1888 1.384 . S
C1886 H1877 0.929 . S
C1886 C1878 1.378 . S
C1886 C1881 1.350 1_655 S
C1887 H1874 0.929 . S
C1887 C1879 1.433 1_455 S
C1887 N1889 1.384 . S
N1888 C1884 1.427 . S
N1888 C1885 1.384 . S
N1889 C1881 1.427 . S
N1889 C1887 1.384 . S
H1890 C1896 0.930 . S
H1891 C1900 0.930 . S
H1892 C1905 0.929 . S
H1893 C1903 0.929 . S
H1894 C1898 0.929 . S
H1895 C1904 0.929 . S
C1896 H1890 0.930 . S
C1896 C1897 1.367 . S
C1896 C1904 1.378 . S
C1897 C1896 1.367 . S
C1897 C1905 1.433 . S
C1898 H1894 0.929 . S
C1898 C1900 1.378 . S
C1898 C1902 1.350 . S
C1899 C1902 1.463 . S
C1899 C1904 1.350 . S
C1899 N1907 1.427 . S
C1900 H1891 0.930 . S
C1900 C1898 1.378 . S
C1900 C1901 1.367 . S
C1901 C1900 1.367 . S
C1901 C1903 1.433 . S
C1902 C1898 1.350 . S
C1902 C1899 1.463 . S
C1902 N1906 1.427 . S
C1903 H1893 0.929 . S
C1903 C1901 1.433 . S
C1903 N1906 1.384 . S
C1904 H1895 0.929 . S
C1904 C1896 1.378 . S
C1904 C1899 1.350 . S
C1905 H1892 0.929 . S
C1905 C1897 1.433 . S
C1905 N1907 1.384 . S
N1906 C1902 1.427 . S
N1906 C1903 1.384 . S
N1907 C1899 1.427 . S
N1907 C1905 1.384 . S
H1908 C1914 0.930 . S
H1909 C1918 0.930 . S
H1910 C1923 0.929 . S
H1911 C1921 0.929 . S
H1912 C1916 0.929 . S
H1913 C1922 0.929 . S
C1914 H1908 0.930 . S
C1914 C1915 1.367 . S
C1914 C1922 1.378 . S
C1915 C1914 1.367 . S
C1915 C1923 1.433 . S
C1916 H1912 0.929 . S
C1916 C1918 1.378 . S
C1916 C1920 1.350 . S
C1917 C1920 1.463 . S
C1917 C1922 1.350 . S
C1917 N1925 1.427 . S
C1918 H1909 0.930 . S
C1918 C1916 1.378 . S
C1918 C1919 1.367 . S
C1919 C1918 1.367 . S
C1919 C1921 1.433 . S
C1920 C1916 1.350 . S
C1920 C1917 1.463 . S
C1920 N1924 1.427 . S
C1921 H1911 0.929 . S
C1921 C1919 1.433 . S
C1921 N1924 1.384 . S
C1922 H1913 0.929 . S
C1922 C1914 1.378 . S
C1922 C1917 1.350 . S
C1923 H1910 0.929 . S
C1923 C1915 1.433 . S
C1923 N1925 1.384 . S
N1924 C1920 1.427 . S
N1924 C1921 1.384 . S
N1925 C1917 1.427 . S
N1925 C1923 1.384 . S
H1926 C1932 0.930 . S
H1927 C1936 0.930 . S
H1928 C1941 0.929 . S
H1929 C1939 0.929 . S
H1930 C1934 0.929 . S
H1931 C1940 0.929 . S
C1932 H1926 0.930 . S
C1932 C1933 1.367 . S
C1932 C1940 1.378 . S
C1933 C1932 1.367 . S
C1933 C1941 1.433 . S
C1934 H1930 0.929 . S
C1934 C1936 1.378 . S
C1934 C1938 1.350 . S
C1935 C1938 1.463 . S
C1935 C1940 1.350 . S
C1935 N1943 1.427 . S
C1936 H1927 0.930 . S
C1936 C1934 1.378 . S
C1936 C1937 1.367 . S
C1937 C1936 1.367 . S
C1937 C1939 1.433 . S
C1938 C1934 1.350 . S
C1938 C1935 1.463 . S
C1938 N1942 1.427 . S
C1939 H1929 0.929 . S
C1939 C1937 1.433 . S
C1939 N1942 1.384 . S
C1940 H1931 0.929 . S
C1940 C1932 1.378 . S
C1940 C1935 1.350 . S
C1941 H1928 0.929 . S
C1941 C1933 1.433 . S
C1941 N1943 1.384 . S
N1942 C1938 1.427 . S
N1942 C1939 1.384 . S
N1943 C1935 1.427 . S
N1943 C1941 1.384 . S
H1944 C1950 0.930 . S
H1945 C1954 0.930 . S
H1946 C1959 0.929 1_556 S
H1947 C1957 0.929 . S
H1948 C1952 0.929 . S
H1949 C1958 0.948 . S
C1950 H1944 0.930 . S
C1950 C1951 1.367 . S
C1950 C1958 1.378 . S
C1951 C1950 1.367 . S
C1951 C1959 1.433 . S
C1952 H1948 0.929 . S
C1952 C1954 1.378 . S
C1952 C1956 1.350 . S
C1953 C1956 1.463 . S
C1953 C1958 1.350 . S
C1953 N1961 1.427 . S
C1954 H1945 0.930 . S
C1954 C1952 1.378 . S
C1954 C1955 1.367 1_565 S
C1955 C1954 1.367 1_545 S
C1955 C1957 1.433 . S
C1956 C1952 1.350 . S
C1956 C1953 1.463 . S
C1956 N1960 1.427 1_565 S
C1957 H1947 0.929 . S
C1957 C1955 1.433 . S
C1957 N1960 1.384 . S
C1958 H1949 0.948 . S
C1958 C1950 1.378 . S
C1958 C1953 1.350 . S
C1959 H1946 0.929 1_554 S
C1959 C1951 1.433 . S
C1959 N1961 1.384 . S
N1960 C1956 1.427 1_545 S
N1960 C1957 1.384 . S
N1961 C1953 1.427 . S
N1961 C1959 1.384 . S
H1962 C1968 0.930 . S
H1963 C1972 0.930 . S
H1964 C1977 0.929 . S
H1965 C1975 0.929 . S
H1966 C1970 0.929 . S
H1967 C1976 0.929 . S
C1968 H1962 0.930 . S
C1968 C1969 1.367 1_554 S
C1968 C1976 1.378 . S
C1969 C1968 1.367 1_556 S
C1969 C1977 1.433 . S
C1970 H1966 0.929 . S
C1970 C1972 1.378 . S
C1970 C1974 1.350 . S
C1971 C1974 1.463 . S
C1971 C1976 1.350 1_556 S
C1971 N1979 1.427 . S
C1972 H1963 0.930 . S
C1972 C1970 1.378 . S
C1972 C1973 1.367 . S
C1973 C1972 1.367 . S
C1973 C1975 1.433 1_556 S
C1974 C1970 1.350 . S
C1974 C1971 1.463 . S
C1974 N1978 1.427 1_556 S
C1975 H1965 0.929 . S
C1975 C1973 1.433 1_554 S
C1975 N1978 1.384 . S
C1976 H1967 0.929 . S
C1976 C1968 1.378 . S
C1976 C1971 1.350 1_554 S
C1977 H1964 0.929 . S
C1977 C1969 1.433 . S
C1977 N1979 1.384 . S
N1978 C1974 1.427 1_554 S
N1978 C1975 1.384 . S
N1979 C1971 1.427 . S
N1979 C1977 1.384 . S
H1980 C1986 0.930 . S
H1981 C1990 0.930 . S
H1982 C1995 0.929 . S
H1983 C1993 0.929 . S
H1984 C1988 0.929 . S
H1985 C1994 0.929 . S
C1986 H1980 0.930 . S
C1986 C1987 1.367 . S
C1986 C1994 1.378 . S
C1987 C1986 1.367 . S
C1987 C1995 1.433 . S
C1988 H1984 0.929 . S
C1988 C1990 1.378 . S
C1988 C1992 1.350 . S
C1989 C1992 1.463 . S
C1989 C1994 1.350 . S
C1989 N1997 1.427 . S
C1990 H1981 0.930 . S
C1990 C1988 1.378 . S
C1990 C1991 1.367 . S
C1991 C1990 1.367 . S
C1991 C1993 1.433 . S
C1992 C1988 1.350 . S
C1992 C1989 1.463 . S
C1992 N1996 1.427 . S
C1993 H1983 0.929 . S
C1993 C1991 1.433 . S
C1993 N1996 1.384 . S
C1994 H1985 0.929 . S
C1994 C1986 1.378 . S
C1994 C1989 1.350 . S
C1995 H1982 0.929 . S
C1995 C1987 1.433 . S
C1995 N1997 1.384 . S
N1996 C1992 1.427 . S
N1996 C1993 1.384 . S
N1997 C1989 1.427 . S
N1997 C1995 1.384 . S
H1998 C2004 0.930 . S
H1999 C2008 0.930 . S
H2000 C2013 0.929 . S
H2001 C2011 0.929 1_455 S
H2002 C2006 0.929 . S
H2003 C2012 0.929 . S
C2004 H1998 0.930 . S
C2004 C2005 1.367 . S
C2004 C2012 1.378 . S
C2005 C2004 1.367 . S
C2005 C2013 1.433 . S
C2006 H2002 0.929 . S
C2006 C2008 1.378 . S
C2006 C2010 1.350 . S
C2007 C2010 1.463 . S
C2007 C2012 1.350 . S
C2007 N2015 1.427 . S
C2008 H1999 0.930 . S
C2008 C2006 1.378 . S
C2008 C2009 1.367 . S
C2009 C2008 1.367 . S
C2009 C2011 1.433 . S
C2010 C2006 1.350 . S
C2010 C2007 1.463 . S
C2010 N2014 1.427 . S
C2011 H2001 0.929 1_655 S
C2011 C2009 1.433 . S
C2011 N2014 1.384 . S
C2012 H2003 0.929 . S
C2012 C2004 1.378 . S
C2012 C2007 1.350 . S
C2013 H2000 0.929 . S
C2013 C2005 1.433 . S
C2013 N2015 1.384 . S
N2014 C2010 1.427 . S
N2014 C2011 1.384 . S
N2015 C2007 1.427 . S
N2015 C2013 1.384 . S
H2016 C2022 0.930 . S
H2017 C2026 0.930 . S
H2018 C2031 0.929 . S
H2019 C2029 0.929 . S
H2020 C2024 0.929 . S
H2021 C2030 0.929 . S
C2022 H2016 0.930 . S
C2022 C2023 1.367 . S
C2022 C2030 1.378 . S
C2023 C2022 1.367 . S
C2023 C2031 1.433 . S
C2024 H2020 0.929 . S
C2024 C2026 1.378 . S
C2024 C2028 1.350 . S
C2025 C2028 1.463 . S
C2025 C2030 1.350 . S
C2025 N2033 1.427 . S
C2026 H2017 0.930 . S
C2026 C2024 1.378 . S
C2026 C2027 1.367 . S
C2027 C2026 1.367 . S
C2027 C2029 1.433 . S
C2028 C2024 1.350 . S
C2028 C2025 1.463 . S
C2028 N2032 1.427 . S
C2029 H2019 0.929 . S
C2029 C2027 1.433 . S
C2029 N2032 1.384 . S
C2030 H2021 0.929 . S
C2030 C2022 1.378 . S
C2030 C2025 1.350 . S
C2031 H2018 0.929 . S
C2031 C2023 1.433 . S
C2031 N2033 1.384 . S
N2032 C2028 1.427 . S
N2032 C2029 1.384 . S
N2033 C2025 1.427 . S
N2033 C2031 1.384 . S
H2034 C2040 0.930 . S
H2035 C2044 0.930 . S
H2036 C2049 0.929 . S
H2037 C2047 0.929 . S
H2038 C2042 0.929 . S
H2039 C2048 0.929 . S
C2040 H2034 0.930 . S
C2040 C2041 1.367 . S
C2040 C2048 1.378 . S
C2041 C2040 1.367 . S
C2041 C2049 1.433 . S
C2042 H2038 0.929 . S
C2042 C2044 1.378 . S
C2042 C2046 1.350 . S
C2043 C2046 1.463 . S
C2043 C2048 1.350 . S
C2043 N2051 1.427 . S
C2044 H2035 0.930 . S
C2044 C2042 1.378 . S
C2044 C2045 1.367 . S
C2045 C2044 1.367 . S
C2045 C2047 1.433 . S
C2046 C2042 1.350 . S
C2046 C2043 1.463 . S
C2046 N2050 1.427 . S
C2047 H2037 0.929 . S
C2047 C2045 1.433 . S
C2047 N2050 1.384 . S
C2048 H2039 0.929 . S
C2048 C2040 1.378 . S
C2048 C2043 1.350 . S
C2049 H2036 0.929 . S
C2049 C2041 1.433 . S
C2049 N2051 1.384 . S
N2050 C2046 1.427 . S
N2050 C2047 1.384 . S
N2051 C2043 1.427 . S
N2051 C2049 1.384 . S
H2052 C2058 0.930 . S
H2053 C2062 0.930 . S
H2054 C2067 0.929 . S
H2055 C2065 0.929 . S
H2056 C2060 0.929 . S
H2057 C2066 0.929 . S
C2058 H2052 0.930 . S
C2058 C2059 1.367 . S
C2058 C2066 1.378 . S
C2059 C2058 1.367 . S
C2059 C2067 1.433 . S
C2060 H2056 0.929 . S
C2060 C2062 1.378 . S
C2060 C2064 1.350 . S
C2061 C2064 1.463 . S
C2061 C2066 1.350 . S
C2061 N2069 1.427 . S
C2062 H2053 0.930 . S
C2062 C2060 1.378 . S
C2062 C2063 1.367 . S
C2063 C2062 1.367 . S
C2063 C2065 1.433 . S
C2064 C2060 1.350 . S
C2064 C2061 1.463 . S
C2064 N2068 1.427 . S
C2065 H2055 0.929 . S
C2065 C2063 1.433 . S
C2065 N2068 1.384 . S
C2066 H2057 0.929 . S
C2066 C2058 1.378 . S
C2066 C2061 1.350 . S
C2067 H2054 0.929 . S
C2067 C2059 1.433 . S
C2067 N2069 1.384 . S
N2068 C2064 1.427 . S
N2068 C2065 1.384 . S
N2069 C2061 1.427 . S
N2069 C2067 1.384 . S
H2070 C2076 0.930 . S
H2071 C2080 0.930 . S
H2072 C2085 0.929 . S
H2073 C2083 0.929 . S
H2074 C2078 0.929 . S
H2075 C2084 0.929 . S
C2076 H2070 0.930 . S
C2076 C2077 1.367 . S
C2076 C2084 1.378 . S
C2077 C2076 1.367 . S
C2077 C2085 1.433 . S
C2078 H2074 0.929 . S
C2078 C2080 1.378 . S
C2078 C2082 1.350 . S
C2079 C2082 1.463 . S
C2079 C2084 1.350 . S
C2079 N2087 1.427 . S
C2080 H2071 0.930 . S
C2080 C2078 1.378 . S
C2080 C2081 1.367 . S
C2081 C2080 1.367 . S
C2081 C2083 1.433 . S
C2082 C2078 1.350 . S
C2082 C2079 1.463 . S
C2082 N2086 1.427 . S
C2083 H2073 0.929 . S
C2083 C2081 1.433 . S
C2083 N2086 1.384 . S
C2084 H2075 0.929 . S
C2084 C2076 1.378 . S
C2084 C2079 1.350 . S
C2085 H2072 0.929 . S
C2085 C2077 1.433 . S
C2085 N2087 1.384 . S
N2086 C2082 1.427 . S
N2086 C2083 1.384 . S
N2087 C2079 1.427 . S
N2087 C2085 1.384 . S
H2088 C2094 0.930 . S
H2089 C2098 0.930 . S
H2090 C2103 0.929 . S
H2091 C2101 0.929 . S
H2092 C2096 0.929 . S
H2093 C2102 0.929 . S
C2094 H2088 0.930 . S
C2094 C2095 1.367 . S
C2094 C2102 1.378 . S
C2095 C2094 1.367 . S
C2095 C2103 1.433 . S
C2096 H2092 0.929 . S
C2096 C2098 1.378 . S
C2096 C2100 1.350 . S
C2097 C2100 1.463 . S
C2097 C2102 1.350 . S
C2097 N2105 1.427 . S
C2098 H2089 0.930 . S
C2098 C2096 1.378 . S
C2098 C2099 1.367 . S
C2099 C2098 1.367 . S
C2099 C2101 1.433 . S
C2100 C2096 1.350 . S
C2100 C2097 1.463 . S
C2100 N2104 1.427 . S
C2101 H2091 0.929 . S
C2101 C2099 1.433 . S
C2101 N2104 1.384 . S
C2102 H2093 0.929 . S
C2102 C2094 1.378 . S
C2102 C2097 1.350 . S
C2103 H2090 0.929 . S
C2103 C2095 1.433 . S
C2103 N2105 1.384 . S
N2104 C2100 1.427 . S
N2104 C2101 1.384 . S
N2105 C2097 1.427 . S
N2105 C2103 1.384 . S
H2106 C2112 0.930 . S
H2107 C2116 0.930 . S
H2108 C2121 0.929 . S
H2109 C2119 0.929 . S
H2110 C2114 0.929 . S
H2111 C2120 0.929 . S
C2112 H2106 0.930 . S
C2112 C2113 1.367 . S
C2112 C2120 1.378 . S
C2113 C2112 1.367 . S
C2113 C2121 1.433 . S
C2114 H2110 0.929 . S
C2114 C2116 1.378 . S
C2114 C2118 1.350 . S
C2115 C2118 1.463 . S
C2115 C2120 1.350 . S
C2115 N2123 1.427 . S
C2116 H2107 0.930 . S
C2116 C2114 1.378 . S
C2116 C2117 1.367 . S
C2117 C2116 1.367 . S
C2117 C2119 1.433 . S
C2118 C2114 1.350 . S
C2118 C2115 1.463 . S
C2118 N2122 1.427 . S
C2119 H2109 0.929 . S
C2119 C2117 1.433 . S
C2119 N2122 1.384 . S
C2120 H2111 0.929 . S
C2120 C2112 1.378 . S
C2120 C2115 1.350 . S
C2121 H2108 0.929 . S
C2121 C2113 1.433 . S
C2121 N2123 1.384 . S
N2122 C2118 1.427 . S
N2122 C2119 1.384 . S
N2123 C2115 1.427 . S
N2123 C2121 1.384 . S
H2124 C2130 0.930 . S
H2125 C2134 0.930 . S
H2126 C2139 0.929 . S
H2127 C2137 0.929 . S
H2128 C2132 0.929 . S
H2129 C2138 0.929 . S
C2130 H2124 0.930 . S
C2130 C2131 1.367 . S
C2130 C2138 1.378 . S
C2131 C2130 1.367 . S
C2131 C2139 1.433 . S
C2132 H2128 0.929 . S
C2132 C2134 1.378 . S
C2132 C2136 1.350 . S
C2133 C2136 1.463 . S
C2133 C2138 1.350 . S
C2133 N2141 1.427 . S
C2134 H2125 0.930 . S
C2134 C2132 1.378 . S
C2134 C2135 1.367 . S
C2135 C2134 1.367 . S
C2135 C2137 1.433 . S
C2136 C2132 1.350 . S
C2136 C2133 1.463 . S
C2136 N2140 1.427 . S
C2137 H2127 0.929 . S
C2137 C2135 1.433 . S
C2137 N2140 1.384 . S
C2138 H2129 0.929 . S
C2138 C2130 1.378 . S
C2138 C2133 1.350 . S
C2139 H2126 0.929 . S
C2139 C2131 1.433 . S
C2139 N2141 1.384 . S
N2140 C2136 1.427 . S
N2140 C2137 1.384 . S
N2141 C2133 1.427 . S
N2141 C2139 1.384 . S
H2142 C2148 0.930 . S
H2143 C2152 0.930 . S
H2144 C2157 0.929 . S
H2145 C2155 0.929 . S
H2146 C2150 0.929 . S
H2147 C2156 0.929 . S
C2148 H2142 0.930 . S
C2148 C2149 1.367 . S
C2148 C2156 1.378 . S
C2149 C2148 1.367 . S
C2149 C2157 1.433 . S
C2150 H2146 0.929 . S
C2150 C2152 1.378 . S
C2150 C2154 1.350 . S
C2151 C2154 1.463 . S
C2151 C2156 1.350 . S
C2151 N2159 1.427 . S
C2152 H2143 0.930 . S
C2152 C2150 1.378 . S
C2152 C2153 1.367 . S
C2153 C2152 1.367 . S
C2153 C2155 1.433 . S
C2154 C2150 1.350 . S
C2154 C2151 1.463 . S
C2154 N2158 1.427 . S
C2155 H2145 0.929 . S
C2155 C2153 1.433 . S
C2155 N2158 1.384 . S
C2156 H2147 0.929 . S
C2156 C2148 1.378 . S
C2156 C2151 1.350 . S
C2157 H2144 0.929 . S
C2157 C2149 1.433 . S
C2157 N2159 1.384 . S
N2158 C2154 1.427 . S
N2158 C2155 1.384 . S
N2159 C2151 1.427 . S
N2159 C2157 1.384 . S
H2160 C2166 0.930 . S
H2161 C2170 0.930 . S
H2162 C2175 0.929 . S
H2163 C2173 0.929 . S
H2164 C2168 0.929 . S
H2165 C2174 0.929 . S
C2166 H2160 0.930 . S
C2166 C2167 1.367 . S
C2166 C2174 1.378 . S
C2167 C2166 1.367 . S
C2167 C2175 1.433 . S
C2168 H2164 0.929 . S
C2168 C2170 1.378 . S
C2168 C2172 1.350 . S
C2169 C2172 1.463 . S
C2169 C2174 1.350 . S
C2169 N2177 1.427 . S
C2170 H2161 0.930 . S
C2170 C2168 1.378 . S
C2170 C2171 1.367 . S
C2171 C2170 1.367 . S
C2171 C2173 1.433 . S
C2172 C2168 1.350 . S
C2172 C2169 1.463 . S
C2172 N2176 1.427 . S
C2173 H2163 0.929 . S
C2173 C2171 1.433 . S
C2173 N2176 1.384 . S
C2174 H2165 0.929 . S
C2174 C2166 1.378 . S
C2174 C2169 1.350 . S
C2175 H2162 0.929 . S
C2175 C2167 1.433 . S
C2175 N2177 1.384 . S
N2176 C2172 1.427 . S
N2176 C2173 1.384 . S
N2177 C2169 1.427 . S
N2177 C2175 1.384 . S
H2178 C2184 0.930 . S
H2179 C2188 0.930 . S
H2180 C2193 0.929 . S
H2181 C2191 0.929 . S
H2182 C2186 0.929 . S
H2183 C2192 0.929 . S
C2184 H2178 0.930 . S
C2184 C2185 1.367 . S
C2184 C2192 1.378 . S
C2185 C2184 1.367 . S
C2185 C2193 1.433 . S
C2186 H2182 0.929 . S
C2186 C2188 1.378 . S
C2186 C2190 1.350 . S
C2187 C2190 1.463 . S
C2187 C2192 1.350 . S
C2187 N2195 1.427 . S
C2188 H2179 0.930 . S
C2188 C2186 1.378 . S
C2188 C2189 1.367 . S
C2189 C2188 1.367 . S
C2189 C2191 1.433 . S
C2190 C2186 1.350 . S
C2190 C2187 1.463 . S
C2190 N2194 1.427 . S
C2191 H2181 0.929 . S
C2191 C2189 1.433 . S
C2191 N2194 1.384 . S
C2192 H2183 0.929 . S
C2192 C2184 1.378 . S
C2192 C2187 1.350 . S
C2193 H2180 0.929 . S
C2193 C2185 1.433 . S
C2193 N2195 1.384 . S
N2194 C2190 1.427 . S
N2194 C2191 1.384 . S
N2195 C2187 1.427 . S
N2195 C2193 1.384 . S
H2196 C2202 0.930 . S
H2197 C2206 0.930 . S
H2198 C2211 0.929 . S
H2199 C2209 0.929 1_554 S
H2200 C2204 0.929 . S
H2201 C2210 0.929 . S
C2202 H2196 0.930 . S
C2202 C2203 1.367 . S
C2202 C2210 1.378 . S
C2203 C2202 1.367 . S
C2203 C2211 1.433 . S
C2204 H2200 0.929 . S
C2204 C2206 1.378 . S
C2204 C2208 1.350 . S
C2205 C2208 1.463 . S
C2205 C2210 1.350 . S
C2205 N2213 1.427 . S
C2206 H2197 0.930 . S
C2206 C2204 1.378 . S
C2206 C2207 1.367 . S
C2207 C2206 1.367 . S
C2207 C2209 1.433 . S
C2208 C2204 1.350 . S
C2208 C2205 1.463 . S
C2208 N2212 1.427 . S
C2209 H2199 0.929 1_556 S
C2209 C2207 1.433 . S
C2209 N2212 1.384 . S
C2210 H2201 0.929 . S
C2210 C2202 1.378 . S
C2210 C2205 1.350 . S
C2211 H2198 0.929 . S
C2211 C2203 1.433 . S
C2211 N2213 1.384 . S
N2212 C2208 1.427 . S
N2212 C2209 1.384 . S
N2213 C2205 1.427 . S
N2213 C2211 1.384 . S
H2214 C2220 0.930 . S
H2215 C2224 0.930 . S
H2216 C2229 0.929 . S
H2217 C2227 0.929 . S
H2218 C2222 0.929 . S
H2219 C2228 0.929 . S
C2220 H2214 0.930 . S
C2220 C2221 1.367 . S
C2220 C2228 1.378 . S
C2221 C2220 1.367 . S
C2221 C2229 1.433 . S
C2222 H2218 0.929 . S
C2222 C2224 1.378 . S
C2222 C2226 1.350 . S
C2223 C2226 1.463 . S
C2223 C2228 1.350 . S
C2223 N2231 1.427 . S
C2224 H2215 0.930 . S
C2224 C2222 1.378 . S
C2224 C2225 1.367 . S
C2225 C2224 1.367 . S
C2225 C2227 1.433 . S
C2226 C2222 1.350 . S
C2226 C2223 1.463 . S
C2226 N2230 1.427 . S
C2227 H2217 0.929 . S
C2227 C2225 1.433 . S
C2227 N2230 1.384 . S
C2228 H2219 0.929 . S
C2228 C2220 1.378 . S
C2228 C2223 1.350 . S
C2229 H2216 0.929 . S
C2229 C2221 1.433 . S
C2229 N2231 1.384 . S
N2230 C2226 1.427 . S
N2230 C2227 1.384 . S
N2231 C2223 1.427 . S
N2231 C2229 1.384 . S
H2232 C2238 0.930 . S
H2233 C2242 0.930 . S
H2234 C2247 0.929 . S
H2235 C2245 0.929 . S
H2236 C2240 0.929 . S
H2237 C2246 0.929 . S
C2238 H2232 0.930 . S
C2238 C2239 1.367 . S
C2238 C2246 1.378 . S
C2239 C2238 1.367 . S
C2239 C2247 1.433 1_545 S
C2240 H2236 0.929 . S
C2240 C2242 1.378 . S
C2240 C2244 1.350 1_565 S
C2241 C2244 1.463 . S
C2241 C2246 1.350 . S
C2241 N2249 1.427 1_545 S
C2242 H2233 0.930 . S
C2242 C2240 1.378 . S
C2242 C2243 1.367 1_565 S
C2243 C2242 1.367 1_545 S
C2243 C2245 1.433 . S
C2244 C2240 1.350 1_545 S
C2244 C2241 1.463 . S
C2244 N2248 1.427 . S
C2245 H2235 0.929 . S
C2245 C2243 1.433 . S
C2245 N2248 1.384 . S
C2246 H2237 0.929 . S
C2246 C2238 1.378 . S
C2246 C2241 1.350 . S
C2247 H2234 0.929 . S
C2247 C2239 1.433 1_565 S
C2247 N2249 1.384 . S
N2248 C2244 1.427 . S
N2248 C2245 1.384 . S
N2249 C2241 1.427 1_565 S
N2249 C2247 1.384 . S
H2250 C2256 0.930 . S
H2251 C2260 0.930 . S
H2252 C2265 0.929 . S
H2253 C2263 0.929 . S
H2254 C2258 0.929 . S
H2255 C2264 0.929 . S
C2256 H2250 0.930 . S
C2256 C2257 1.367 . S
C2256 C2264 1.378 . S
C2257 C2256 1.367 . S
C2257 C2265 1.433 . S
C2258 H2254 0.929 . S
C2258 C2260 1.378 . S
C2258 C2262 1.350 . S
C2259 C2262 1.463 . S
C2259 C2264 1.350 . S
C2259 N2267 1.427 . S
C2260 H2251 0.930 . S
C2260 C2258 1.378 . S
C2260 C2261 1.367 . S
C2261 C2260 1.367 . S
C2261 C2263 1.433 . S
C2262 C2258 1.350 . S
C2262 C2259 1.463 . S
C2262 N2266 1.427 . S
C2263 H2253 0.929 . S
C2263 C2261 1.433 . S
C2263 N2266 1.384 . S
C2264 H2255 0.929 . S
C2264 C2256 1.378 . S
C2264 C2259 1.350 . S
C2265 H2252 0.929 . S
C2265 C2257 1.433 . S
C2265 N2267 1.384 . S
N2266 C2262 1.427 . S
N2266 C2263 1.384 . S
N2267 C2259 1.427 . S
N2267 C2265 1.384 . S
H2268 C2274 0.930 . S
H2269 C2278 0.930 . S
H2270 C2283 0.929 . S
H2271 C2281 0.929 . S
H2272 C2276 0.929 . S
H2273 C2282 0.929 . S
C2274 H2268 0.930 . S
C2274 C2275 1.367 . S
C2274 C2282 1.378 . S
C2275 C2274 1.367 . S
C2275 C2283 1.433 . S
C2276 H2272 0.929 . S
C2276 C2278 1.378 . S
C2276 C2280 1.350 . S
C2277 C2280 1.463 . S
C2277 C2282 1.350 . S
C2277 N2285 1.427 . S
C2278 H2269 0.930 . S
C2278 C2276 1.378 . S
C2278 C2279 1.367 . S
C2279 C2278 1.367 . S
C2279 C2281 1.433 . S
C2280 C2276 1.350 . S
C2280 C2277 1.463 . S
C2280 N2284 1.427 . S
C2281 H2271 0.929 . S
C2281 C2279 1.433 . S
C2281 N2284 1.384 . S
C2282 H2273 0.929 . S
C2282 C2274 1.378 . S
C2282 C2277 1.350 . S
C2283 H2270 0.929 . S
C2283 C2275 1.433 . S
C2283 N2285 1.384 . S
N2284 C2280 1.427 . S
N2284 C2281 1.384 . S
N2285 C2277 1.427 . S
N2285 C2283 1.384 . S
H2286 C2292 0.930 . S
H2287 C2296 0.930 . S
H2288 C2301 0.929 . S
H2289 C2299 0.929 . S
H2290 C2294 0.929 . S
H2291 C2300 0.929 . S
C2292 H2286 0.930 . S
C2292 C2293 1.367 . S
C2292 C2300 1.378 . S
C2293 C2292 1.367 . S
C2293 C2301 1.433 . S
C2294 H2290 0.929 . S
C2294 C2296 1.378 . S
C2294 C2298 1.350 . S
C2295 C2298 1.463 . S
C2295 C2300 1.350 . S
C2295 N2303 1.427 . S
C2296 H2287 0.930 . S
C2296 C2294 1.378 . S
C2296 C2297 1.367 . S
C2297 C2296 1.367 . S
C2297 C2299 1.433 . S
C2298 C2294 1.350 . S
C2298 C2295 1.463 . S
C2298 N2302 1.427 . S
C2299 H2289 0.929 . S
C2299 C2297 1.433 . S
C2299 N2302 1.384 . S
C2300 H2291 0.929 . S
C2300 C2292 1.378 . S
C2300 C2295 1.350 . S
C2301 H2288 0.929 . S
C2301 C2293 1.433 . S
C2301 N2303 1.384 . S
N2302 C2298 1.427 . S
N2302 C2299 1.384 . S
N2303 C2295 1.427 . S
N2303 C2301 1.384 . S
H2304 C2310 0.930 . S
H2305 C2314 0.930 . S
H2306 C2319 0.929 . S
H2307 C2317 0.929 . S
H2308 C2312 0.929 . S
H2309 C2318 0.929 . S
C2310 H2304 0.930 . S
C2310 C2311 1.367 1_545 S
C2310 C2318 1.378 . S
C2311 C2310 1.367 1_565 S
C2311 C2319 1.433 . S
C2312 H2308 0.929 . S
C2312 C2314 1.378 . S
C2312 C2316 1.350 1_565 S
C2313 C2316 1.469 . S
C2313 C2318 1.357 . S
C2313 N2321 1.413 1_545 S
C2314 H2305 0.930 . S
C2314 C2312 1.378 . S
C2314 C2315 1.367 1_565 S
C2315 C2314 1.367 1_545 S
C2315 C2317 1.433 . S
C2316 C2312 1.350 1_545 S
C2316 C2313 1.469 . S
C2316 N2320 1.427 . S
C2317 H2307 0.929 . S
C2317 C2315 1.433 . S
C2317 N2320 1.384 . S
C2318 H2309 0.929 . S
C2318 C2310 1.378 . S
C2318 C2313 1.357 . S
C2319 H2306 0.929 . S
C2319 C2311 1.433 . S
C2319 N2321 1.384 . S
N2320 C2316 1.427 . S
N2320 C2317 1.384 . S
N2321 C2313 1.413 1_565 S
N2321 C2319 1.384 . S
H2322 C2328 0.930 . S
H2323 C2332 0.930 . S
H2324 C2337 0.929 . S
H2325 C2335 0.929 . S
H2326 C2330 0.929 . S
H2327 C2336 0.929 . S
C2328 H2322 0.930 . S
C2328 C2329 1.367 . S
C2328 C2336 1.378 . S
C2329 C2328 1.367 . S
C2329 C2337 1.433 . S
C2330 H2326 0.929 . S
C2330 C2332 1.378 . S
C2330 C2334 1.350 . S
C2331 C2334 1.463 . S
C2331 C2336 1.350 . S
C2331 N2339 1.427 . S
C2332 H2323 0.930 . S
C2332 C2330 1.378 . S
C2332 C2333 1.367 . S
C2333 C2332 1.367 . S
C2333 C2335 1.433 . S
C2334 C2330 1.350 . S
C2334 C2331 1.463 . S
C2334 N2338 1.427 . S
C2335 H2325 0.929 . S
C2335 C2333 1.433 . S
C2335 N2338 1.384 . S
C2336 H2327 0.929 . S
C2336 C2328 1.378 . S
C2336 C2331 1.350 . S
C2337 H2324 0.929 . S
C2337 C2329 1.433 . S
C2337 N2339 1.384 . S
N2338 C2334 1.427 . S
N2338 C2335 1.384 . S
N2339 C2331 1.427 . S
N2339 C2337 1.384 . S
H2340 C2346 0.922 1_565 S
H2341 C2350 0.930 . S
H2342 C2355 0.929 . S
H2343 C2353 0.929 . S
H2344 C2348 0.929 . S
H2345 C2354 0.929 . S
C2346 H2340 0.922 1_545 S
C2346 C2347 1.367 . S
C2346 C2354 1.378 . S
C2347 C2346 1.367 . S
C2347 C2355 1.433 . S
C2348 H2344 0.929 . S
C2348 C2350 1.378 . S
C2348 C2352 1.350 . S
C2349 C2352 1.463 . S
C2349 C2354 1.350 . S
C2349 N2357 1.427 . S
C2350 H2341 0.930 . S
C2350 C2348 1.378 . S
C2350 C2351 1.367 . S
C2351 C2350 1.367 . S
C2351 C2353 1.433 . S
C2352 C2348 1.350 . S
C2352 C2349 1.463 . S
C2352 N2356 1.427 . S
C2353 H2343 0.929 . S
C2353 C2351 1.433 . S
C2353 N2356 1.384 . S
C2354 H2345 0.929 . S
C2354 C2346 1.378 . S
C2354 C2349 1.350 . S
C2355 H2342 0.929 . S
C2355 C2347 1.433 . S
C2355 N2357 1.384 . S
N2356 C2352 1.427 . S
N2356 C2353 1.384 . S
N2357 C2349 1.427 . S
N2357 C2355 1.384 . S
H2358 C2364 0.930 . S
H2359 C2368 0.930 . S
H2360 C2373 0.929 . S
H2361 C2371 0.929 . S
H2362 C2366 0.929 . S
H2363 C2372 0.929 . S
C2364 H2358 0.930 . S
C2364 C2365 1.367 . S
C2364 C2372 1.378 . S
C2365 C2364 1.367 . S
C2365 C2373 1.433 . S
C2366 H2362 0.929 . S
C2366 C2368 1.378 . S
C2366 C2370 1.350 . S
C2367 C2370 1.463 . S
C2367 C2372 1.350 . S
C2367 N2375 1.427 . S
C2368 H2359 0.930 . S
C2368 C2366 1.378 . S
C2368 C2369 1.367 . S
C2369 C2368 1.367 . S
C2369 C2371 1.433 . S
C2370 C2366 1.350 . S
C2370 C2367 1.463 . S
C2370 N2374 1.427 . S
C2371 H2361 0.929 . S
C2371 C2369 1.433 . S
C2371 N2374 1.384 . S
C2372 H2363 0.929 . S
C2372 C2364 1.378 . S
C2372 C2367 1.350 . S
C2373 H2360 0.929 . S
C2373 C2365 1.433 . S
C2373 N2375 1.384 . S
N2374 C2370 1.427 . S
N2374 C2371 1.384 . S
N2375 C2367 1.427 . S
N2375 C2373 1.384 . S
H2376 C2382 0.930 . S
H2377 C2386 0.930 . S
H2378 C2391 0.929 . S
H2379 C2389 0.929 1_556 S
H2380 C2384 0.929 . S
H2381 C2390 0.929 . S
C2382 H2376 0.930 . S
C2382 C2383 1.367 . S
C2382 C2390 1.378 . S
C2383 C2382 1.367 . S
C2383 C2391 1.433 . S
C2384 H2380 0.929 . S
C2384 C2386 1.378 . S
C2384 C2388 1.350 . S
C2385 C2388 1.463 . S
C2385 C2390 1.350 . S
C2385 N2393 1.427 . S
C2386 H2377 0.930 . S
C2386 C2384 1.378 . S
C2386 C2387 1.367 . S
C2387 C2386 1.367 . S
C2387 C2389 1.433 . S
C2388 C2384 1.350 . S
C2388 C2385 1.463 . S
C2388 N2392 1.427 . S
C2389 H2379 0.929 1_554 S
C2389 C2387 1.433 . S
C2389 N2392 1.384 . S
C2390 H2381 0.929 . S
C2390 C2382 1.378 . S
C2390 C2385 1.350 . S
C2391 H2378 0.929 . S
C2391 C2383 1.433 . S
C2391 N2393 1.384 . S
N2392 C2388 1.427 . S
N2392 C2389 1.384 . S
N2393 C2385 1.427 . S
N2393 C2391 1.384 . S
H2394 C2400 0.930 . S
H2395 C2404 0.949 . S
H2396 C2409 0.929 . S
H2397 C2407 0.929 . S
H2398 C2402 0.929 . S
H2399 C2408 0.929 . S
C2400 H2394 0.930 . S
C2400 C2401 1.367 . S
C2400 C2408 1.378 . S
C2401 C2400 1.367 . S
C2401 C2409 1.433 . S
C2402 H2398 0.929 . S
C2402 C2404 1.378 . S
C2402 C2406 1.350 . S
C2403 C2406 1.463 . S
C2403 C2408 1.350 . S
C2403 N2411 1.427 . S
C2404 H2395 0.949 . S
C2404 C2402 1.378 . S
C2404 C2405 1.367 . S
C2405 C2404 1.367 . S
C2405 C2407 1.433 . S
C2406 C2402 1.350 . S
C2406 C2403 1.463 . S
C2406 N2410 1.427 . S
C2407 H2397 0.929 . S
C2407 C2405 1.433 . S
C2407 N2410 1.384 . S
C2408 H2399 0.929 . S
C2408 C2400 1.378 . S
C2408 C2403 1.350 . S
C2409 H2396 0.929 . S
C2409 C2401 1.433 . S
C2409 N2411 1.384 . S
N2410 C2406 1.427 . S
N2410 C2407 1.384 . S
N2411 C2403 1.427 . S
N2411 C2409 1.384 . S
H2412 C2418 0.930 . S
H2413 C2422 0.930 . S
H2414 C2427 0.929 . S
H2415 C2425 0.929 . S
H2416 C2420 0.929 . S
H2417 C2426 0.929 . S
C2418 H2412 0.930 . S
C2418 C2419 1.367 . S
C2418 C2426 1.378 . S
C2419 C2418 1.367 . S
C2419 C2427 1.433 . S
C2420 H2416 0.929 . S
C2420 C2422 1.378 . S
C2420 C2424 1.350 . S
C2421 C2424 1.463 . S
C2421 C2426 1.350 . S
C2421 N2429 1.427 . S
C2422 H2413 0.930 . S
C2422 C2420 1.378 . S
C2422 C2423 1.367 . S
C2423 C2422 1.367 . S
C2423 C2425 1.433 . S
C2424 C2420 1.350 . S
C2424 C2421 1.463 . S
C2424 N2428 1.427 . S
C2425 H2415 0.929 . S
C2425 C2423 1.433 . S
C2425 N2428 1.384 . S
C2426 H2417 0.929 . S
C2426 C2418 1.378 . S
C2426 C2421 1.350 . S
C2427 H2414 0.929 . S
C2427 C2419 1.433 . S
C2427 N2429 1.384 . S
N2428 C2424 1.427 . S
N2428 C2425 1.384 . S
N2429 C2421 1.427 . S
N2429 C2427 1.384 . S
H2430 C2436 0.930 . S
H2431 C2440 0.930 . S
H2432 C2445 0.929 . S
H2433 C2443 0.929 . S
H2434 C2438 0.929 . S
H2435 C2444 0.929 . S
C2436 H2430 0.930 . S
C2436 C2437 1.367 . S
C2436 C2444 1.378 . S
C2437 C2436 1.367 . S
C2437 C2445 1.433 . S
C2438 H2434 0.929 . S
C2438 C2440 1.378 . S
C2438 C2442 1.350 . S
C2439 C2442 1.463 . S
C2439 C2444 1.350 . S
C2439 N2447 1.427 . S
C2440 H2431 0.930 . S
C2440 C2438 1.378 . S
C2440 C2441 1.367 . S
C2441 C2440 1.367 . S
C2441 C2443 1.433 . S
C2442 C2438 1.350 . S
C2442 C2439 1.463 . S
C2442 N2446 1.427 . S
C2443 H2433 0.929 . S
C2443 C2441 1.433 . S
C2443 N2446 1.384 . S
C2444 H2435 0.929 . S
C2444 C2436 1.378 . S
C2444 C2439 1.350 . S
C2445 H2432 0.929 . S
C2445 C2437 1.433 . S
C2445 N2447 1.384 . S
N2446 C2442 1.427 . S
N2446 C2443 1.384 . S
N2447 C2439 1.427 . S
N2447 C2445 1.384 . S
H2448 C2454 0.930 1_545 S
H2449 C2458 0.930 . S
H2450 C2463 0.929 . S
H2451 C2461 0.929 . S
H2452 C2456 0.929 . S
H2453 C2462 0.929 . S
C2454 H2448 0.930 1_565 S
C2454 C2455 1.367 . S
C2454 C2462 1.378 . S
C2455 C2454 1.367 . S
C2455 C2463 1.433 . S
C2456 H2452 0.929 . S
C2456 C2458 1.378 . S
C2456 C2460 1.350 . S
C2457 C2460 1.463 . S
C2457 C2462 1.350 . S
C2457 N2465 1.427 . S
C2458 H2449 0.930 . S
C2458 C2456 1.378 . S
C2458 C2459 1.367 . S
C2459 C2458 1.367 . S
C2459 C2461 1.433 . S
C2460 C2456 1.350 . S
C2460 C2457 1.463 . S
C2460 N2464 1.427 . S
C2461 H2451 0.929 . S
C2461 C2459 1.433 . S
C2461 N2464 1.384 . S
C2462 H2453 0.929 . S
C2462 C2454 1.378 . S
C2462 C2457 1.350 . S
C2463 H2450 0.929 . S
C2463 C2455 1.433 . S
C2463 N2465 1.384 . S
N2464 C2460 1.427 . S
N2464 C2461 1.384 . S
N2465 C2457 1.427 . S
N2465 C2463 1.384 . S
H2466 C2472 0.930 . S
H2467 C2476 0.930 . S
H2468 C2481 0.929 . S
H2469 C2479 0.929 . S
H2470 C2474 0.929 . S
H2471 C2480 0.929 . S
C2472 H2466 0.930 . S
C2472 C2473 1.367 . S
C2472 C2480 1.378 . S
C2473 C2472 1.367 . S
C2473 C2481 1.433 . S
C2474 H2470 0.929 . S
C2474 C2476 1.378 . S
C2474 C2478 1.350 . S
C2475 C2478 1.463 . S
C2475 C2480 1.350 . S
C2475 N2483 1.427 . S
C2476 H2467 0.930 . S
C2476 C2474 1.378 . S
C2476 C2477 1.367 . S
C2477 C2476 1.367 . S
C2477 C2479 1.433 . S
C2478 C2474 1.350 . S
C2478 C2475 1.463 . S
C2478 N2482 1.427 . S
C2479 H2469 0.929 . S
C2479 C2477 1.433 . S
C2479 N2482 1.384 . S
C2480 H2471 0.929 . S
C2480 C2472 1.378 . S
C2480 C2475 1.350 . S
C2481 H2468 0.929 . S
C2481 C2473 1.433 . S
C2481 N2483 1.384 . S
N2482 C2478 1.427 . S
N2482 C2479 1.384 . S
N2483 C2475 1.427 . S
N2483 C2481 1.384 . S
H2484 C2490 0.930 . S
H2485 C2494 0.930 . S
H2486 C2499 0.929 . S
H2487 C2497 0.929 . S
H2488 C2492 0.929 . S
H2489 C2498 0.929 . S
C2490 H2484 0.930 . S
C2490 C2491 1.367 . S
C2490 C2498 1.378 . S
C2491 C2490 1.367 . S
C2491 C2499 1.433 . S
C2492 H2488 0.929 . S
C2492 C2494 1.378 . S
C2492 C2496 1.350 . S
C2493 C2496 1.463 . S
C2493 C2498 1.350 . S
C2493 N2501 1.427 . S
C2494 H2485 0.930 . S
C2494 C2492 1.378 . S
C2494 C2495 1.367 . S
C2495 C2494 1.367 . S
C2495 C2497 1.433 . S
C2496 C2492 1.350 . S
C2496 C2493 1.463 . S
C2496 N2500 1.427 . S
C2497 H2487 0.929 . S
C2497 C2495 1.433 . S
C2497 N2500 1.384 . S
C2498 H2489 0.929 . S
C2498 C2490 1.378 . S
C2498 C2493 1.350 . S
C2499 H2486 0.929 . S
C2499 C2491 1.433 . S
C2499 N2501 1.384 . S
N2500 C2496 1.427 . S
N2500 C2497 1.384 . S
N2501 C2493 1.427 . S
N2501 C2499 1.384 . S
H2502 C2508 0.930 . S
H2503 C2512 0.930 . S
H2504 C2517 0.929 . S
H2505 C2515 0.929 . S
H2506 C2510 0.929 . S
H2507 C2516 0.929 . S
C2508 H2502 0.930 . S
C2508 C2509 1.367 . S
C2508 C2516 1.378 . S
C2509 C2508 1.367 . S
C2509 C2517 1.433 . S
C2510 H2506 0.929 . S
C2510 C2512 1.378 . S
C2510 C2514 1.350 . S
C2511 C2514 1.463 . S
C2511 C2516 1.350 . S
C2511 N2519 1.427 . S
C2512 H2503 0.930 . S
C2512 C2510 1.378 . S
C2512 C2513 1.367 . S
C2513 C2512 1.367 . S
C2513 C2515 1.433 . S
C2514 C2510 1.350 . S
C2514 C2511 1.463 . S
C2514 N2518 1.427 . S
C2515 H2505 0.929 . S
C2515 C2513 1.433 . S
C2515 N2518 1.384 . S
C2516 H2507 0.929 . S
C2516 C2508 1.378 . S
C2516 C2511 1.350 . S
C2517 H2504 0.929 . S
C2517 C2509 1.433 . S
C2517 N2519 1.384 . S
N2518 C2514 1.427 . S
N2518 C2515 1.384 . S
N2519 C2511 1.427 . S
N2519 C2517 1.384 . S
H2520 C2526 0.930 . S
H2521 C2530 0.930 . S
H2522 C2535 0.929 . S
H2523 C2533 0.929 . S
H2524 C2528 0.929 . S
H2525 C2534 0.929 . S
C2526 H2520 0.930 . S
C2526 C2527 1.367 . S
C2526 C2534 1.378 . S
C2527 C2526 1.367 . S
C2527 C2535 1.433 . S
C2528 H2524 0.929 . S
C2528 C2530 1.378 . S
C2528 C2532 1.350 . S
C2529 C2532 1.463 . S
C2529 C2534 1.350 . S
C2529 N2537 1.427 . S
C2530 H2521 0.930 . S
C2530 C2528 1.378 . S
C2530 C2531 1.367 . S
C2531 C2530 1.367 . S
C2531 C2533 1.433 . S
C2532 C2528 1.350 . S
C2532 C2529 1.463 . S
C2532 N2536 1.427 . S
C2533 H2523 0.929 . S
C2533 C2531 1.433 . S
C2533 N2536 1.384 . S
C2534 H2525 0.929 . S
C2534 C2526 1.378 . S
C2534 C2529 1.350 . S
C2535 H2522 0.929 . S
C2535 C2527 1.433 . S
C2535 N2537 1.384 . S
N2536 C2532 1.427 . S
N2536 C2533 1.384 . S
N2537 C2529 1.427 . S
N2537 C2535 1.384 . S
H2538 C2544 0.930 . S
H2539 C2548 0.930 . S
H2540 C2553 0.929 . S
H2541 C2551 0.929 . S
H2542 C2546 0.929 . S
H2543 C2552 0.929 . S
C2544 H2538 0.930 . S
C2544 C2545 1.367 . S
C2544 C2552 1.378 . S
C2545 C2544 1.367 . S
C2545 C2553 1.433 . S
C2546 H2542 0.929 . S
C2546 C2548 1.378 . S
C2546 C2550 1.350 . S
C2547 C2550 1.463 . S
C2547 C2552 1.350 . S
C2547 N2555 1.427 . S
C2548 H2539 0.930 . S
C2548 C2546 1.378 . S
C2548 C2549 1.367 . S
C2549 C2548 1.367 . S
C2549 C2551 1.433 . S
C2550 C2546 1.350 . S
C2550 C2547 1.463 . S
C2550 N2554 1.427 . S
C2551 H2541 0.929 . S
C2551 C2549 1.433 . S
C2551 N2554 1.384 . S
C2552 H2543 0.929 . S
C2552 C2544 1.378 . S
C2552 C2547 1.350 . S
C2553 H2540 0.929 . S
C2553 C2545 1.433 . S
C2553 N2555 1.384 . S
N2554 C2550 1.427 . S
N2554 C2551 1.384 . S
N2555 C2547 1.427 . S
N2555 C2553 1.384 . S
H2556 C2562 0.930 1_655 S
H2557 C2566 0.930 . S
H2558 C2571 0.929 . S
H2559 C2569 0.929 . S
H2560 C2564 0.929 . S
H2561 C2570 0.929 1_655 S
C2562 H2556 0.930 1_455 S
C2562 C2563 1.367 . S
C2562 C2570 1.378 . S
C2563 C2562 1.367 . S
C2563 C2571 1.433 . S
C2564 H2560 0.929 . S
C2564 C2566 1.378 . S
C2564 C2568 1.350 . S
C2565 C2568 1.463 1_556 S
C2565 C2570 1.350 . S
C2565 N2573 1.427 . S
C2566 H2557 0.930 . S
C2566 C2564 1.378 . S
C2566 C2567 1.367 . S
C2567 C2566 1.367 . S
C2567 C2569 1.433 . S
C2568 C2564 1.350 . S
C2568 C2565 1.463 1_554 S
C2568 N2572 1.427 . S
C2569 H2559 0.929 . S
C2569 C2567 1.433 . S
C2569 N2572 1.384 . S
C2570 H2561 0.929 1_455 S
C2570 C2562 1.378 . S
C2570 C2565 1.350 . S
C2571 H2558 0.929 . S
C2571 C2563 1.433 . S
C2571 N2573 1.384 . S
N2572 C2568 1.427 . S
N2572 C2569 1.384 . S
N2573 C2565 1.427 . S
N2573 C2571 1.384 . S
H2574 C2580 0.930 . S
H2575 C2584 0.930 . S
H2576 C2589 0.929 . S
H2577 C2587 0.929 . S
H2578 C2582 0.929 . S
H2579 C2588 0.929 . S
C2580 H2574 0.930 . S
C2580 C2581 1.367 . S
C2580 C2588 1.378 . S
C2581 C2580 1.367 . S
C2581 C2589 1.433 . S
C2582 H2578 0.929 . S
C2582 C2584 1.378 . S
C2582 C2586 1.350 . S
C2583 C2586 1.463 . S
C2583 C2588 1.350 1_655 S
C2583 N2591 1.427 . S
C2584 H2575 0.930 . S
C2584 C2582 1.378 . S
C2584 C2585 1.367 . S
C2585 C2584 1.367 . S
C2585 C2587 1.433 . S
C2586 C2582 1.350 . S
C2586 C2583 1.463 . S
C2586 N2590 1.427 . S
C2587 H2577 0.929 . S
C2587 C2585 1.433 . S
C2587 N2590 1.384 . S
C2588 H2579 0.929 . S
C2588 C2580 1.378 . S
C2588 C2583 1.350 1_455 S
C2589 H2576 0.929 . S
C2589 C2581 1.433 . S
C2589 N2591 1.384 1_455 S
N2590 C2586 1.427 . S
N2590 C2587 1.384 . S
N2591 C2583 1.427 . S
N2591 C2589 1.384 1_655 S
H2592 C2598 0.930 . S
H2593 C2602 0.930 . S
H2594 C2607 0.929 . S
H2595 C2605 0.929 . S
H2596 C2600 0.929 . S
H2597 C2606 0.929 . S
C2598 H2592 0.930 . S
C2598 C2599 1.367 . S
C2598 C2606 1.378 . S
C2599 C2598 1.367 . S
C2599 C2607 1.433 . S
C2600 H2596 0.929 . S
C2600 C2602 1.378 . S
C2600 C2604 1.350 . S
C2601 C2604 1.463 . S
C2601 C2606 1.350 . S
C2601 N2609 1.427 . S
C2602 H2593 0.930 . S
C2602 C2600 1.378 . S
C2602 C2603 1.367 . S
C2603 C2602 1.367 . S
C2603 C2605 1.433 . S
C2604 C2600 1.350 . S
C2604 C2601 1.463 . S
C2604 N2608 1.427 . S
C2605 H2595 0.929 . S
C2605 C2603 1.433 . S
C2605 N2608 1.384 . S
C2606 H2597 0.929 . S
C2606 C2598 1.378 . S
C2606 C2601 1.350 . S
C2607 H2594 0.929 . S
C2607 C2599 1.433 . S
C2607 N2609 1.384 . S
N2608 C2604 1.427 . S
N2608 C2605 1.384 . S
N2609 C2601 1.427 . S
N2609 C2607 1.384 . S
H2610 C2616 0.930 . S
H2611 C2620 0.930 . S
H2612 C2625 0.929 . S
H2613 C2623 0.929 . S
H2614 C2618 0.929 . S
H2615 C2624 0.929 . S
C2616 H2610 0.930 . S
C2616 C2617 1.367 . S
C2616 C2624 1.378 . S
C2617 C2616 1.367 . S
C2617 C2625 1.433 . S
C2618 H2614 0.929 . S
C2618 C2620 1.378 . S
C2618 C2622 1.350 . S
C2619 C2622 1.463 1_455 S
C2619 C2624 1.350 . S
C2619 N2627 1.427 . S
C2620 H2611 0.930 . S
C2620 C2618 1.378 . S
C2620 C2621 1.367 . S
C2621 C2620 1.367 . S
C2621 C2623 1.433 . S
C2622 C2618 1.350 . S
C2622 C2619 1.463 1_655 S
C2622 N2626 1.427 . S
C2623 H2613 0.929 . S
C2623 C2621 1.433 . S
C2623 N2626 1.384 . S
C2624 H2615 0.929 . S
C2624 C2616 1.378 . S
C2624 C2619 1.350 . S
C2625 H2612 0.929 . S
C2625 C2617 1.433 . S
C2625 N2627 1.384 . S
N2626 C2622 1.427 . S
N2626 C2623 1.384 . S
N2627 C2619 1.427 . S
N2627 C2625 1.384 . S
H2628 C2634 0.930 . S
H2629 C2638 0.930 . S
H2630 C2643 0.929 . S
H2631 C2641 0.929 . S
H2632 C2636 0.929 . S
H2633 C2642 0.929 . S
C2634 H2628 0.930 . S
C2634 C2635 1.367 . S
C2634 C2642 1.378 1_655 S
C2635 C2634 1.367 . S
C2635 C2643 1.433 . S
C2636 H2632 0.929 . S
C2636 C2638 1.378 . S
C2636 C2640 1.350 . S
C2637 C2640 1.463 . S
C2637 C2642 1.350 . S
C2637 N2645 1.427 1_455 S
C2638 H2629 0.930 . S
C2638 C2636 1.378 . S
C2638 C2639 1.367 . S
C2639 C2638 1.367 . S
C2639 C2641 1.433 . S
C2640 C2636 1.350 . S
C2640 C2637 1.463 . S
C2640 N2644 1.427 . S
C2641 H2631 0.929 . S
C2641 C2639 1.433 . S
C2641 N2644 1.384 . S
C2642 H2633 0.929 . S
C2642 C2634 1.378 1_455 S
C2642 C2637 1.350 . S
C2643 H2630 0.929 . S
C2643 C2635 1.433 . S
C2643 N2645 1.384 . S
N2644 C2640 1.427 . S
N2644 C2641 1.384 . S
N2645 C2637 1.427 1_655 S
N2645 C2643 1.384 . S
H2646 C2652 0.930 . S
H2647 C2656 0.930 . S
H2648 C2661 0.929 . S
H2649 C2659 0.929 . S
H2650 C2654 0.929 . S
H2651 C2660 0.929 . S
C2652 H2646 0.930 . S
C2652 C2653 1.367 . S
C2652 C2660 1.378 . S
C2653 C2652 1.367 . S
C2653 C2661 1.433 . S
C2654 H2650 0.929 . S
C2654 C2656 1.378 . S
C2654 C2658 1.350 . S
C2655 C2658 1.463 . S
C2655 C2660 1.350 . S
C2655 N2663 1.427 . S
C2656 H2647 0.930 . S
C2656 C2654 1.378 . S
C2656 C2657 1.367 . S
C2657 C2656 1.367 . S
C2657 C2659 1.433 . S
C2658 C2654 1.350 . S
C2658 C2655 1.463 . S
C2658 N2662 1.427 . S
C2659 H2649 0.929 . S
C2659 C2657 1.433 . S
C2659 N2662 1.384 . S
C2660 H2651 0.929 . S
C2660 C2652 1.378 . S
C2660 C2655 1.350 . S
C2661 H2648 0.929 . S
C2661 C2653 1.433 . S
C2661 N2663 1.384 . S
N2662 C2658 1.427 . S
N2662 C2659 1.384 . S
N2663 C2655 1.427 . S
N2663 C2661 1.384 . S
H2664 C2670 0.930 . S
H2665 C2674 0.930 . S
H2666 C2679 0.929 . S
H2667 C2677 0.929 . S
H2668 C2672 0.929 . S
H2669 C2678 0.929 . S
C2670 H2664 0.930 . S
C2670 C2671 1.367 . S
C2670 C2678 1.378 . S
C2671 C2670 1.367 . S
C2671 C2679 1.433 . S
C2672 H2668 0.929 . S
C2672 C2674 1.378 . S
C2672 C2676 1.350 . S
C2673 C2676 1.463 . S
C2673 C2678 1.350 . S
C2673 N2681 1.427 . S
C2674 H2665 0.930 . S
C2674 C2672 1.378 . S
C2674 C2675 1.367 . S
C2675 C2674 1.367 . S
C2675 C2677 1.433 . S
C2676 C2672 1.350 . S
C2676 C2673 1.463 . S
C2676 N2680 1.427 . S
C2677 H2667 0.929 . S
C2677 C2675 1.433 . S
C2677 N2680 1.384 . S
C2678 H2669 0.929 . S
C2678 C2670 1.378 . S
C2678 C2673 1.350 . S
C2679 H2666 0.929 . S
C2679 C2671 1.433 . S
C2679 N2681 1.384 . S
N2680 C2676 1.427 . S
N2680 C2677 1.384 . S
N2681 C2673 1.427 . S
N2681 C2679 1.384 . S
H2682 C2688 0.930 . S
H2683 C2692 0.930 . S
H2684 C2697 0.929 . S
H2685 C2695 0.929 . S
H2686 C2690 0.929 . S
H2687 C2696 0.929 . S
C2688 H2682 0.930 . S
C2688 C2689 1.367 . S
C2688 C2696 1.378 . S
C2689 C2688 1.367 . S
C2689 C2697 1.433 . S
C2690 H2686 0.929 . S
C2690 C2692 1.378 . S
C2690 C2694 1.350 . S
C2691 C2694 1.463 . S
C2691 C2696 1.350 . S
C2691 N2699 1.427 . S
C2692 H2683 0.930 . S
C2692 C2690 1.378 . S
C2692 C2693 1.367 . S
C2693 C2692 1.367 . S
C2693 C2695 1.433 . S
C2694 C2690 1.350 . S
C2694 C2691 1.463 . S
C2694 N2698 1.427 . S
C2695 H2685 0.929 . S
C2695 C2693 1.433 . S
C2695 N2698 1.384 . S
C2696 H2687 0.929 . S
C2696 C2688 1.378 . S
C2696 C2691 1.350 . S
C2697 H2684 0.929 . S
C2697 C2689 1.433 . S
C2697 N2699 1.384 . S
N2698 C2694 1.427 . S
N2698 C2695 1.384 . S
N2699 C2691 1.427 . S
N2699 C2697 1.384 . S
H2700 C2706 0.930 . S
H2701 C2710 0.930 . S
H2702 C2715 0.929 . S
H2703 C2713 0.929 . S
H2704 C2708 0.929 . S
H2705 C2714 0.929 . S
C2706 H2700 0.930 . S
C2706 C2707 1.367 . S
C2706 C2714 1.378 . S
C2707 C2706 1.367 . S
C2707 C2715 1.433 . S
C2708 H2704 0.929 . S
C2708 C2710 1.378 . S
C2708 C2712 1.350 . S
C2709 C2712 1.463 . S
C2709 C2714 1.350 . S
C2709 N2717 1.427 . S
C2710 H2701 0.930 . S
C2710 C2708 1.378 . S
C2710 C2711 1.367 . S
C2711 C2710 1.367 . S
C2711 C2713 1.433 . S
C2712 C2708 1.350 . S
C2712 C2709 1.463 . S
C2712 N2716 1.427 . S
C2713 H2703 0.929 . S
C2713 C2711 1.433 . S
C2713 N2716 1.384 . S
C2714 H2705 0.929 . S
C2714 C2706 1.378 . S
C2714 C2709 1.350 . S
C2715 H2702 0.929 . S
C2715 C2707 1.433 . S
C2715 N2717 1.384 . S
N2716 C2712 1.427 . S
N2716 C2713 1.384 . S
N2717 C2709 1.427 . S
N2717 C2715 1.384 . S
H2718 C2724 0.930 . S
H2719 C2728 0.930 . S
H2720 C2733 0.929 . S
H2721 C2731 0.929 . S
H2722 C2726 0.929 . S
H2723 C2732 0.929 . S
C2724 H2718 0.930 . S
C2724 C2725 1.367 . S
C2724 C2732 1.378 . S
C2725 C2724 1.367 . S
C2725 C2733 1.433 . S
C2726 H2722 0.929 . S
C2726 C2728 1.378 . S
C2726 C2730 1.350 . S
C2727 C2730 1.463 . S
C2727 C2732 1.350 . S
C2727 N2735 1.427 . S
C2728 H2719 0.930 . S
C2728 C2726 1.378 . S
C2728 C2729 1.367 . S
C2729 C2728 1.367 . S
C2729 C2731 1.433 . S
C2730 C2726 1.350 . S
C2730 C2727 1.463 . S
C2730 N2734 1.427 . S
C2731 H2721 0.929 . S
C2731 C2729 1.433 . S
C2731 N2734 1.384 . S
C2732 H2723 0.929 . S
C2732 C2724 1.378 . S
C2732 C2727 1.350 . S
C2733 H2720 0.929 . S
C2733 C2725 1.433 . S
C2733 N2735 1.384 . S
N2734 C2730 1.427 . S
N2734 C2731 1.384 . S
N2735 C2727 1.427 . S
N2735 C2733 1.384 . S
H2736 C2742 0.930 . S
H2737 C2746 0.930 . S
H2738 C2751 0.929 . S
H2739 C2749 0.929 . S
H2740 C2744 0.929 . S
H2741 C2750 0.929 . S
C2742 H2736 0.930 . S
C2742 C2743 1.367 . S
C2742 C2750 1.378 . S
C2743 C2742 1.367 . S
C2743 C2751 1.433 . S
C2744 H2740 0.929 . S
C2744 C2746 1.378 . S
C2744 C2748 1.350 . S
C2745 C2748 1.463 . S
C2745 C2750 1.350 . S
C2745 N2753 1.427 . S
C2746 H2737 0.930 . S
C2746 C2744 1.378 . S
C2746 C2747 1.367 . S
C2747 C2746 1.367 . S
C2747 C2749 1.433 . S
C2748 C2744 1.350 . S
C2748 C2745 1.463 . S
C2748 N2752 1.427 . S
C2749 H2739 0.929 . S
C2749 C2747 1.433 . S
C2749 N2752 1.384 . S
C2750 H2741 0.929 . S
C2750 C2742 1.378 . S
C2750 C2745 1.350 . S
C2751 H2738 0.929 . S
C2751 C2743 1.433 . S
C2751 N2753 1.384 . S
N2752 C2748 1.427 . S
N2752 C2749 1.384 . S
N2753 C2745 1.427 . S
N2753 C2751 1.384 . S
H2754 C2760 0.930 . S
H2755 C2764 0.930 . S
H2756 C2769 0.929 . S
H2757 C2767 0.929 . S
H2758 C2762 0.929 . S
H2759 C2768 0.929 . S
C2760 H2754 0.930 . S
C2760 C2761 1.367 . S
C2760 C2768 1.378 . S
C2761 C2760 1.367 . S
C2761 C2769 1.433 . S
C2762 H2758 0.929 . S
C2762 C2764 1.378 . S
C2762 C2766 1.350 . S
C2763 C2766 1.463 . S
C2763 C2768 1.350 . S
C2763 N2771 1.427 . S
C2764 H2755 0.930 . S
C2764 C2762 1.378 . S
C2764 C2765 1.367 . S
C2765 C2764 1.367 . S
C2765 C2767 1.433 . S
C2766 C2762 1.350 . S
C2766 C2763 1.463 . S
C2766 N2770 1.427 . S
C2767 H2757 0.929 . S
C2767 C2765 1.433 . S
C2767 N2770 1.384 . S
C2768 H2759 0.929 . S
C2768 C2760 1.378 . S
C2768 C2763 1.350 . S
C2769 H2756 0.929 . S
C2769 C2761 1.433 . S
C2769 N2771 1.384 . S
N2770 C2766 1.427 . S
N2770 C2767 1.384 . S
N2771 C2763 1.427 . S
N2771 C2769 1.384 . S
H2772 C2778 0.930 . S
H2773 C2782 0.930 . S
H2774 C2787 0.929 . S
H2775 C2785 0.929 . S
H2776 C2780 0.929 . S
H2777 C2786 0.929 . S
C2778 H2772 0.930 . S
C2778 C2779 1.367 . S
C2778 C2786 1.378 . S
C2779 C2778 1.367 . S
C2779 C2787 1.433 . S
C2780 H2776 0.929 . S
C2780 C2782 1.378 . S
C2780 C2784 1.350 . S
C2781 C2784 1.463 . S
C2781 C2786 1.350 . S
C2781 N2789 1.427 . S
C2782 H2773 0.930 . S
C2782 C2780 1.378 . S
C2782 C2783 1.367 . S
C2783 C2782 1.367 . S
C2783 C2785 1.433 . S
C2784 C2780 1.350 . S
C2784 C2781 1.463 . S
C2784 N2788 1.427 . S
C2785 H2775 0.929 . S
C2785 C2783 1.433 . S
C2785 N2788 1.384 . S
C2786 H2777 0.929 . S
C2786 C2778 1.378 . S
C2786 C2781 1.350 . S
C2787 H2774 0.929 . S
C2787 C2779 1.433 . S
C2787 N2789 1.384 . S
N2788 C2784 1.427 . S
N2788 C2785 1.384 . S
N2789 C2781 1.427 . S
N2789 C2787 1.384 . S
H2790 C2796 0.930 . S
H2791 C2800 0.930 . S
H2792 C2805 0.929 . S
H2793 C2803 0.929 . S
H2794 C2798 0.929 . S
H2795 C2804 0.929 . S
C2796 H2790 0.930 . S
C2796 C2797 1.367 . S
C2796 C2804 1.378 . S
C2797 C2796 1.367 . S
C2797 C2805 1.433 . S
C2798 H2794 0.929 . S
C2798 C2800 1.378 . S
C2798 C2802 1.350 . S
C2799 C2802 1.463 . S
C2799 C2804 1.350 . S
C2799 N2807 1.427 . S
C2800 H2791 0.930 . S
C2800 C2798 1.378 . S
C2800 C2801 1.367 . S
C2801 C2800 1.367 . S
C2801 C2803 1.433 . S
C2802 C2798 1.350 . S
C2802 C2799 1.463 . S
C2802 N2806 1.427 . S
C2803 H2793 0.929 . S
C2803 C2801 1.433 . S
C2803 N2806 1.384 . S
C2804 H2795 0.929 . S
C2804 C2796 1.378 . S
C2804 C2799 1.350 . S
C2805 H2792 0.929 . S
C2805 C2797 1.433 . S
C2805 N2807 1.384 . S
N2806 C2802 1.427 . S
N2806 C2803 1.384 . S
N2807 C2799 1.427 . S
N2807 C2805 1.384 . S
H2808 C2814 0.930 . S
H2809 C2818 0.930 . S
H2810 C2823 0.929 . S
H2811 C2821 0.929 . S
H2812 C2816 0.929 . S
H2813 C2822 0.929 . S
C2814 H2808 0.930 . S
C2814 C2815 1.367 . S
C2814 C2822 1.378 . S
C2815 C2814 1.367 . S
C2815 C2823 1.433 . S
C2816 H2812 0.929 . S
C2816 C2818 1.378 . S
C2816 C2820 1.350 . S
C2817 C2820 1.463 . S
C2817 C2822 1.350 . S
C2817 N2825 1.427 . S
C2818 H2809 0.930 . S
C2818 C2816 1.378 . S
C2818 C2819 1.367 . S
C2819 C2818 1.367 . S
C2819 C2821 1.433 . S
C2820 C2816 1.350 . S
C2820 C2817 1.463 . S
C2820 N2824 1.427 . S
C2821 H2811 0.929 . S
C2821 C2819 1.433 . S
C2821 N2824 1.384 . S
C2822 H2813 0.929 . S
C2822 C2814 1.378 . S
C2822 C2817 1.350 . S
C2823 H2810 0.929 . S
C2823 C2815 1.433 . S
C2823 N2825 1.384 . S
N2824 C2820 1.427 . S
N2824 C2821 1.384 . S
N2825 C2817 1.427 . S
N2825 C2823 1.384 . S
H2826 C2832 0.930 . S
H2827 C2836 0.930 . S
H2828 C2841 0.929 . S
H2829 C2839 0.929 . S
H2830 C2834 0.929 . S
H2831 C2840 0.929 . S
C2832 H2826 0.930 . S
C2832 C2833 1.367 . S
C2832 C2840 1.378 . S
C2833 C2832 1.367 . S
C2833 C2841 1.433 . S
C2834 H2830 0.929 . S
C2834 C2836 1.378 . S
C2834 C2838 1.350 . S
C2835 C2838 1.463 . S
C2835 C2840 1.350 . S
C2835 N2843 1.427 . S
C2836 H2827 0.930 . S
C2836 C2834 1.378 . S
C2836 C2837 1.367 . S
C2837 C2836 1.367 . S
C2837 C2839 1.433 . S
C2838 C2834 1.350 . S
C2838 C2835 1.463 . S
C2838 N2842 1.427 . S
C2839 H2829 0.929 . S
C2839 C2837 1.433 . S
C2839 N2842 1.384 . S
C2840 H2831 0.929 . S
C2840 C2832 1.378 . S
C2840 C2835 1.350 . S
C2841 H2828 0.929 . S
C2841 C2833 1.433 . S
C2841 N2843 1.384 . S
N2842 C2838 1.427 . S
N2842 C2839 1.384 . S
N2843 C2835 1.427 . S
N2843 C2841 1.384 . S
H2844 C2850 0.930 . S
H2845 C2854 0.930 . S
H2846 C2859 0.929 . S
H2847 C2857 0.929 . S
H2848 C2852 0.929 . S
H2849 C2858 0.929 . S
C2850 H2844 0.930 . S
C2850 C2851 1.367 . S
C2850 C2858 1.378 . S
C2851 C2850 1.367 . S
C2851 C2859 1.433 . S
C2852 H2848 0.929 . S
C2852 C2854 1.378 . S
C2852 C2856 1.350 . S
C2853 C2856 1.463 . S
C2853 C2858 1.350 . S
C2853 N2861 1.427 . S
C2854 H2845 0.930 . S
C2854 C2852 1.378 . S
C2854 C2855 1.367 . S
C2855 C2854 1.367 . S
C2855 C2857 1.433 . S
C2856 C2852 1.350 . S
C2856 C2853 1.463 . S
C2856 N2860 1.427 . S
C2857 H2847 0.929 . S
C2857 C2855 1.433 . S
C2857 N2860 1.384 . S
C2858 H2849 0.929 . S
C2858 C2850 1.378 . S
C2858 C2853 1.350 . S
C2859 H2846 0.929 . S
C2859 C2851 1.433 . S
C2859 N2861 1.384 . S
N2860 C2856 1.427 . S
N2860 C2857 1.384 . S
N2861 C2853 1.427 . S
N2861 C2859 1.384 . S
H2862 C2868 0.930 . S
H2863 C2872 0.930 . S
H2864 C2877 0.929 . S
H2865 C2875 0.929 . S
H2866 C2870 0.929 . S
H2867 C2876 0.929 . S
C2868 H2862 0.930 . S
C2868 C2869 1.367 1_556 S
C2868 C2876 1.378 . S
C2869 C2868 1.367 1_554 S
C2869 C2877 1.433 . S
C2870 H2866 0.929 . S
C2870 C2872 1.378 . S
C2870 C2874 1.349 1_545 S
C2871 C2874 1.468 . S
C2871 C2876 1.350 1_554 S
C2871 N2879 1.427 . S
C2872 H2863 0.930 . S
C2872 C2870 1.378 . S
C2872 C2873 1.367 . S
C2873 C2872 1.367 . S
C2873 C2875 1.433 1_554 S
C2874 C2870 1.349 1_565 S
C2874 C2871 1.468 . S
C2874 N2878 1.424 1_564 S
C2875 H2865 0.929 . S
C2875 C2873 1.433 1_556 S
C2875 N2878 1.384 . S
C2876 H2867 0.929 . S
C2876 C2868 1.378 . S
C2876 C2871 1.350 1_556 S
C2877 H2864 0.929 . S
C2877 C2869 1.433 . S
C2877 N2879 1.384 . S
N2878 C2874 1.424 1_546 S
N2878 C2875 1.384 . S
N2879 C2871 1.427 . S
N2879 C2877 1.384 . S
H2880 C2886 0.930 . S
H2881 C2890 0.930 . S
H2882 C2895 0.929 . S
H2883 C2893 0.929 . S
H2884 C2888 0.929 . S
H2885 C2894 0.929 . S
C2886 H2880 0.930 . S
C2886 C2887 1.367 . S
C2886 C2894 1.378 . S
C2887 C2886 1.367 . S
C2887 C2895 1.433 . S
C2888 H2884 0.929 . S
C2888 C2890 1.378 . S
C2888 C2892 1.350 . S
C2889 C2892 1.463 . S
C2889 C2894 1.350 . S
C2889 N2897 1.427 . S
C2890 H2881 0.930 . S
C2890 C2888 1.378 . S
C2890 C2891 1.367 . S
C2891 C2890 1.367 . S
C2891 C2893 1.433 . S
C2892 C2888 1.350 . S
C2892 C2889 1.463 . S
C2892 N2896 1.427 . S
C2893 H2883 0.929 . S
C2893 C2891 1.433 . S
C2893 N2896 1.384 . S
C2894 H2885 0.929 . S
C2894 C2886 1.378 . S
C2894 C2889 1.350 . S
C2895 H2882 0.929 . S
C2895 C2887 1.433 . S
C2895 N2897 1.384 . S
N2896 C2892 1.427 . S
N2896 C2893 1.384 . S
N2897 C2889 1.427 . S
N2897 C2895 1.384 . S
H2898 C2904 0.930 1_556 S
H2899 C2908 0.930 . S
H2900 C2913 0.929 . S
H2901 C2911 0.929 . S
H2902 C2906 0.929 . S
H2903 C2912 0.929 . S
C2904 H2898 0.930 1_554 S
C2904 C2905 1.367 . S
C2904 C2912 1.378 . S
C2905 C2904 1.367 . S
C2905 C2913 1.433 . S
C2906 H2902 0.929 . S
C2906 C2908 1.378 . S
C2906 C2910 1.350 . S
C2907 C2910 1.463 . S
C2907 C2912 1.350 . S
C2907 N2915 1.427 . S
C2908 H2899 0.930 . S
C2908 C2906 1.378 . S
C2908 C2909 1.367 . S
C2909 C2908 1.367 . S
C2909 C2911 1.433 . S
C2910 C2906 1.350 . S
C2910 C2907 1.463 . S
C2910 N2914 1.427 . S
C2911 H2901 0.929 . S
C2911 C2909 1.433 . S
C2911 N2914 1.384 . S
C2912 H2903 0.929 . S
C2912 C2904 1.378 . S
C2912 C2907 1.350 . S
C2913 H2900 0.929 . S
C2913 C2905 1.433 . S
C2913 N2915 1.384 . S
N2914 C2910 1.427 . S
N2914 C2911 1.384 . S
N2915 C2907 1.427 . S
N2915 C2913 1.384 . S
H2916 C2922 0.930 . S
H2917 C2926 0.930 . S
H2918 C2931 0.929 . S
H2919 C2929 0.929 . S
H2920 C2924 0.929 . S
H2921 C2930 0.929 . S
C2922 H2916 0.930 . S
C2922 C2923 1.367 . S
C2922 C2930 1.378 . S
C2923 C2922 1.367 . S
C2923 C2931 1.433 . S
C2924 H2920 0.929 . S
C2924 C2926 1.378 . S
C2924 C2928 1.350 . S
C2925 C2928 1.463 . S
C2925 C2930 1.350 . S
C2925 N2933 1.427 . S
C2926 H2917 0.930 . S
C2926 C2924 1.378 . S
C2926 C2927 1.367 . S
C2927 C2926 1.367 . S
C2927 C2929 1.433 . S
C2928 C2924 1.350 . S
C2928 C2925 1.463 . S
C2928 N2932 1.427 . S
C2929 H2919 0.929 . S
C2929 C2927 1.433 . S
C2929 N2932 1.384 . S
C2930 H2921 0.929 . S
C2930 C2922 1.378 . S
C2930 C2925 1.350 . S
C2931 H2918 0.929 . S
C2931 C2923 1.433 . S
C2931 N2933 1.384 . S
N2932 C2928 1.427 . S
N2932 C2929 1.384 . S
N2933 C2925 1.427 . S
N2933 C2931 1.384 . S
H2934 C2940 0.930 . S
H2935 C2944 0.930 . S
H2936 C2949 0.929 . S
H2937 C2947 0.929 . S
H2938 C2942 0.929 . S
H2939 C2948 0.929 . S
C2940 H2934 0.930 . S
C2940 C2941 1.367 . S
C2940 C2948 1.378 . S
C2941 C2940 1.367 . S
C2941 C2949 1.433 . S
C2942 H2938 0.929 . S
C2942 C2944 1.378 . S
C2942 C2946 1.350 . S
C2943 C2946 1.463 . S
C2943 C2948 1.350 . S
C2943 N2951 1.427 . S
C2944 H2935 0.930 . S
C2944 C2942 1.378 . S
C2944 C2945 1.367 . S
C2945 C2944 1.367 . S
C2945 C2947 1.433 . S
C2946 C2942 1.350 . S
C2946 C2943 1.463 . S
C2946 N2950 1.427 . S
C2947 H2937 0.929 . S
C2947 C2945 1.433 . S
C2947 N2950 1.384 . S
C2948 H2939 0.929 . S
C2948 C2940 1.378 . S
C2948 C2943 1.350 . S
C2949 H2936 0.929 . S
C2949 C2941 1.433 . S
C2949 N2951 1.384 . S
N2950 C2946 1.427 . S
N2950 C2947 1.384 . S
N2951 C2943 1.427 . S
N2951 C2949 1.384 . S
H2952 C2958 0.930 . S
H2953 C2962 0.930 . S
H2954 C2967 0.929 . S
H2955 C2965 0.929 . S
H2956 C2960 0.929 . S
H2957 C2966 0.929 . S
C2958 H2952 0.930 . S
C2958 C2959 1.367 . S
C2958 C2966 1.378 . S
C2959 C2958 1.367 . S
C2959 C2967 1.433 . S
C2960 H2956 0.929 . S
C2960 C2962 1.378 . S
C2960 C2964 1.350 . S
C2961 C2964 1.463 . S
C2961 C2966 1.350 . S
C2961 N2969 1.427 . S
C2962 H2953 0.930 . S
C2962 C2960 1.378 . S
C2962 C2963 1.367 . S
C2963 C2962 1.367 . S
C2963 C2965 1.433 . S
C2964 C2960 1.350 . S
C2964 C2961 1.463 . S
C2964 N2968 1.427 . S
C2965 H2955 0.929 . S
C2965 C2963 1.433 . S
C2965 N2968 1.384 . S
C2966 H2957 0.929 . S
C2966 C2958 1.378 . S
C2966 C2961 1.350 . S
C2967 H2954 0.929 . S
C2967 C2959 1.433 . S
C2967 N2969 1.384 . S
N2968 C2964 1.427 . S
N2968 C2965 1.384 . S
N2969 C2961 1.427 . S
N2969 C2967 1.384 . S
H2970 C2976 0.930 . S
H2971 C2980 0.930 . S
H2972 C2985 0.929 . S
H2973 C2983 0.929 . S
H2974 C2978 0.929 . S
H2975 C2984 0.929 . S
C2976 H2970 0.930 . S
C2976 C2977 1.367 . S
C2976 C2984 1.378 . S
C2977 C2976 1.367 . S
C2977 C2985 1.433 . S
C2978 H2974 0.929 . S
C2978 C2980 1.378 . S
C2978 C2982 1.350 . S
C2979 C2982 1.463 . S
C2979 C2984 1.350 . S
C2979 N2987 1.427 . S
C2980 H2971 0.930 . S
C2980 C2978 1.378 . S
C2980 C2981 1.367 . S
C2981 C2980 1.367 . S
C2981 C2983 1.433 . S
C2982 C2978 1.350 . S
C2982 C2979 1.463 . S
C2982 N2986 1.427 . S
C2983 H2973 0.929 . S
C2983 C2981 1.433 . S
C2983 N2986 1.384 . S
C2984 H2975 0.929 . S
C2984 C2976 1.378 . S
C2984 C2979 1.350 . S
C2985 H2972 0.929 . S
C2985 C2977 1.433 . S
C2985 N2987 1.384 . S
N2986 C2982 1.427 . S
N2986 C2983 1.384 . S
N2987 C2979 1.427 . S
N2987 C2985 1.384 . S
H2988 C2994 0.930 . S
H2989 C2998 0.930 . S
H2990 C3003 0.929 . S
H2991 C3001 0.929 . S
H2992 C2996 0.929 . S
H2993 C3002 0.929 . S
C2994 H2988 0.930 . S
C2994 C2995 1.367 . S
C2994 C3002 1.378 . S
C2995 C2994 1.367 . S
C2995 C3003 1.433 . S
C2996 H2992 0.929 . S
C2996 C2998 1.378 . S
C2996 C3000 1.350 . S
C2997 C3000 1.463 . S
C2997 C3002 1.350 . S
C2997 N3005 1.427 . S
C2998 H2989 0.930 . S
C2998 C2996 1.378 . S
C2998 C2999 1.367 . S
C2999 C2998 1.367 . S
C2999 C3001 1.433 . S
C3000 C2996 1.350 . S
C3000 C2997 1.463 . S
C3000 N3004 1.427 . S
C3001 H2991 0.929 . S
C3001 C2999 1.433 . S
C3001 N3004 1.384 . S
C3002 H2993 0.929 . S
C3002 C2994 1.378 . S
C3002 C2997 1.350 . S
C3003 H2990 0.929 . S
C3003 C2995 1.433 . S
C3003 N3005 1.384 . S
N3004 C3000 1.427 . S
N3004 C3001 1.384 . S
N3005 C2997 1.427 . S
N3005 C3003 1.384 . S
H3006 C3012 0.930 . S
H3007 C3016 0.930 . S
H3008 C3021 0.929 . S
H3009 C3019 0.929 . S
H3010 C3014 0.929 . S
H3011 C3020 0.929 . S
C3012 H3006 0.930 . S
C3012 C3013 1.367 . S
C3012 C3020 1.378 . S
C3013 C3012 1.367 . S
C3013 C3021 1.433 . S
C3014 H3010 0.929 . S
C3014 C3016 1.378 . S
C3014 C3018 1.350 . S
C3015 C3018 1.463 . S
C3015 C3020 1.350 . S
C3015 N3023 1.427 . S
C3016 H3007 0.930 . S
C3016 C3014 1.378 . S
C3016 C3017 1.367 . S
C3017 C3016 1.367 . S
C3017 C3019 1.433 . S
C3018 C3014 1.350 . S
C3018 C3015 1.463 . S
C3018 N3022 1.427 . S
C3019 H3009 0.929 . S
C3019 C3017 1.433 . S
C3019 N3022 1.384 . S
C3020 H3011 0.929 . S
C3020 C3012 1.378 . S
C3020 C3015 1.350 . S
C3021 H3008 0.929 . S
C3021 C3013 1.433 . S
C3021 N3023 1.384 . S
N3022 C3018 1.427 . S
N3022 C3019 1.384 . S
N3023 C3015 1.427 . S
N3023 C3021 1.384 . S
H3024 C3030 0.930 . S
H3025 C3034 0.930 . S
H3026 C3039 0.929 . S
H3027 C3037 0.929 . S
H3028 C3032 0.929 . S
H3029 C3038 0.929 . S
C3030 H3024 0.930 . S
C3030 C3031 1.367 . S
C3030 C3038 1.378 . S
C3031 C3030 1.367 . S
C3031 C3039 1.433 . S
C3032 H3028 0.929 . S
C3032 C3034 1.378 . S
C3032 C3036 1.350 . S
C3033 C3036 1.463 . S
C3033 C3038 1.350 . S
C3033 N3041 1.427 . S
C3034 H3025 0.930 . S
C3034 C3032 1.378 . S
C3034 C3035 1.367 . S
C3035 C3034 1.367 . S
C3035 C3037 1.433 . S
C3036 C3032 1.350 . S
C3036 C3033 1.463 . S
C3036 N3040 1.427 . S
C3037 H3027 0.929 . S
C3037 C3035 1.433 . S
C3037 N3040 1.384 . S
C3038 H3029 0.929 . S
C3038 C3030 1.378 . S
C3038 C3033 1.350 . S
C3039 H3026 0.929 . S
C3039 C3031 1.433 . S
C3039 N3041 1.384 . S
N3040 C3036 1.427 . S
N3040 C3037 1.384 . S
N3041 C3033 1.427 . S
N3041 C3039 1.384 . S
H3042 C3048 0.930 . S
H3043 C3052 0.930 . S
H3044 C3057 0.929 . S
H3045 C3055 0.929 . S
H3046 C3050 0.929 . S
H3047 C3056 0.929 . S
C3048 H3042 0.930 . S
C3048 C3049 1.367 . S
C3048 C3056 1.378 . S
C3049 C3048 1.367 . S
C3049 C3057 1.433 . S
C3050 H3046 0.929 . S
C3050 C3052 1.378 . S
C3050 C3054 1.350 . S
C3051 C3054 1.463 . S
C3051 C3056 1.350 . S
C3051 N3059 1.427 . S
C3052 H3043 0.930 . S
C3052 C3050 1.378 . S
C3052 C3053 1.367 . S
C3053 C3052 1.367 . S
C3053 C3055 1.433 . S
C3054 C3050 1.350 . S
C3054 C3051 1.463 . S
C3054 N3058 1.427 . S
C3055 H3045 0.929 . S
C3055 C3053 1.433 . S
C3055 N3058 1.384 . S
C3056 H3047 0.929 . S
C3056 C3048 1.378 . S
C3056 C3051 1.350 . S
C3057 H3044 0.929 . S
C3057 C3049 1.433 . S
C3057 N3059 1.384 . S
N3058 C3054 1.427 . S
N3058 C3055 1.384 . S
N3059 C3051 1.427 . S
N3059 C3057 1.384 . S
H3060 C3066 0.930 . S
H3061 C3070 0.930 . S
H3062 C3075 0.929 . S
H3063 C3073 0.929 . S
H3064 C3068 0.929 . S
H3065 C3074 0.929 . S
C3066 H3060 0.930 . S
C3066 C3067 1.367 . S
C3066 C3074 1.378 . S
C3067 C3066 1.367 . S
C3067 C3075 1.433 . S
C3068 H3064 0.929 . S
C3068 C3070 1.378 . S
C3068 C3072 1.350 . S
C3069 C3072 1.463 . S
C3069 C3074 1.350 . S
C3069 N3077 1.427 . S
C3070 H3061 0.930 . S
C3070 C3068 1.378 . S
C3070 C3071 1.367 . S
C3071 C3070 1.367 . S
C3071 C3073 1.433 . S
C3072 C3068 1.350 . S
C3072 C3069 1.463 . S
C3072 N3076 1.427 . S
C3073 H3063 0.929 . S
C3073 C3071 1.433 . S
C3073 N3076 1.384 . S
C3074 H3065 0.929 . S
C3074 C3066 1.378 . S
C3074 C3069 1.350 . S
C3075 H3062 0.929 . S
C3075 C3067 1.433 . S
C3075 N3077 1.384 . S
N3076 C3072 1.427 . S
N3076 C3073 1.384 . S
N3077 C3069 1.427 . S
N3077 C3075 1.384 . S
H3078 C3084 0.930 . S
H3079 C3088 0.930 . S
H3080 C3093 0.929 . S
H3081 C3091 0.929 . S
H3082 C3086 0.929 . S
H3083 C3092 0.929 . S
C3084 H3078 0.930 . S
C3084 C3085 1.367 . S
C3084 C3092 1.378 . S
C3085 C3084 1.367 . S
C3085 C3093 1.433 . S
C3086 H3082 0.929 . S
C3086 C3088 1.378 . S
C3086 C3090 1.350 . S
C3087 C3090 1.463 . S
C3087 C3092 1.350 . S
C3087 N3095 1.427 . S
C3088 H3079 0.930 . S
C3088 C3086 1.378 . S
C3088 C3089 1.367 . S
C3089 C3088 1.367 . S
C3089 C3091 1.433 . S
C3090 C3086 1.350 . S
C3090 C3087 1.463 . S
C3090 N3094 1.427 . S
C3091 H3081 0.929 . S
C3091 C3089 1.433 . S
C3091 N3094 1.384 . S
C3092 H3083 0.929 . S
C3092 C3084 1.378 . S
C3092 C3087 1.350 . S
C3093 H3080 0.929 . S
C3093 C3085 1.433 . S
C3093 N3095 1.384 . S
N3094 C3090 1.427 . S
N3094 C3091 1.384 . S
N3095 C3087 1.427 . S
N3095 C3093 1.384 . S
H3096 C3102 0.930 . S
H3097 C3106 0.930 . S
H3098 C3111 0.929 . S
H3099 C3109 0.929 . S
H3100 C3104 0.929 . S
H3101 C3110 0.929 . S
C3102 H3096 0.930 . S
C3102 C3103 1.367 . S
C3102 C3110 1.378 . S
C3103 C3102 1.367 . S
C3103 C3111 1.433 . S
C3104 H3100 0.929 . S
C3104 C3106 1.378 . S
C3104 C3108 1.350 . S
C3105 C3108 1.463 . S
C3105 C3110 1.350 . S
C3105 N3113 1.427 . S
C3106 H3097 0.930 . S
C3106 C3104 1.378 . S
C3106 C3107 1.367 . S
C3107 C3106 1.367 . S
C3107 C3109 1.433 . S
C3108 C3104 1.350 . S
C3108 C3105 1.463 . S
C3108 N3112 1.427 . S
C3109 H3099 0.929 . S
C3109 C3107 1.433 . S
C3109 N3112 1.384 . S
C3110 H3101 0.929 . S
C3110 C3102 1.378 . S
C3110 C3105 1.350 . S
C3111 H3098 0.929 . S
C3111 C3103 1.433 . S
C3111 N3113 1.384 . S
N3112 C3108 1.427 . S
N3112 C3109 1.384 . S
N3113 C3105 1.427 . S
N3113 C3111 1.384 . S
H3114 C3120 0.930 . S
H3115 C3124 0.930 . S
H3116 C3129 0.929 . S
H3117 C3127 0.929 . S
H3118 C3122 0.929 . S
H3119 C3128 0.929 . S
C3120 H3114 0.930 . S
C3120 C3121 1.367 . S
C3120 C3128 1.378 . S
C3121 C3120 1.367 . S
C3121 C3129 1.433 . S
C3122 H3118 0.929 . S
C3122 C3124 1.378 . S
C3122 C3126 1.350 . S
C3123 C3126 1.463 . S
C3123 C3128 1.350 . S
C3123 N3131 1.427 . S
C3124 H3115 0.930 . S
C3124 C3122 1.378 . S
C3124 C3125 1.367 . S
C3125 C3124 1.367 . S
C3125 C3127 1.433 . S
C3126 C3122 1.350 . S
C3126 C3123 1.463 . S
C3126 N3130 1.427 . S
C3127 H3117 0.929 . S
C3127 C3125 1.433 . S
C3127 N3130 1.384 . S
C3128 H3119 0.929 . S
C3128 C3120 1.378 . S
C3128 C3123 1.350 . S
C3129 H3116 0.929 . S
C3129 C3121 1.433 . S
C3129 N3131 1.384 . S
N3130 C3126 1.427 . S
N3130 C3127 1.384 . S
N3131 C3123 1.427 . S
N3131 C3129 1.384 . S
H3132 C3138 0.930 . S
H3133 C3142 0.930 . S
H3134 C3147 0.929 . S
H3135 C3145 0.929 . S
H3136 C3140 0.929 . S
H3137 C3146 0.929 . S
C3138 H3132 0.930 . S
C3138 C3139 1.367 . S
C3138 C3146 1.378 . S
C3139 C3138 1.367 . S
C3139 C3147 1.433 . S
C3140 H3136 0.929 . S
C3140 C3142 1.378 . S
C3140 C3144 1.350 . S
C3141 C3144 1.463 . S
C3141 C3146 1.350 . S
C3141 N3149 1.427 . S
C3142 H3133 0.930 . S
C3142 C3140 1.378 . S
C3142 C3143 1.367 1_655 S
C3143 C3142 1.367 1_455 S
C3143 C3145 1.433 . S
C3144 C3140 1.350 . S
C3144 C3141 1.463 . S
C3144 N3148 1.427 1_655 S
C3145 H3135 0.929 . S
C3145 C3143 1.433 . S
C3145 N3148 1.384 . S
C3146 H3137 0.929 . S
C3146 C3138 1.378 . S
C3146 C3141 1.350 . S
C3147 H3134 0.929 . S
C3147 C3139 1.433 . S
C3147 N3149 1.384 . S
N3148 C3144 1.427 1_455 S
N3148 C3145 1.384 . S
N3149 C3141 1.427 . S
N3149 C3147 1.384 . S
H3150 C3156 0.930 . S
H3151 C3160 0.930 . S
H3152 C3165 0.929 . S
H3153 C3163 0.929 . S
H3154 C3158 0.929 . S
H3155 C3164 0.929 . S
C3156 H3150 0.930 . S
C3156 C3157 1.367 . S
C3156 C3164 1.378 . S
C3157 C3156 1.367 . S
C3157 C3165 1.433 . S
C3158 H3154 0.929 . S
C3158 C3160 1.378 . S
C3158 C3162 1.350 . S
C3159 C3162 1.463 . S
C3159 C3164 1.350 . S
C3159 N3167 1.427 . S
C3160 H3151 0.930 . S
C3160 C3158 1.378 . S
C3160 C3161 1.367 . S
C3161 C3160 1.367 . S
C3161 C3163 1.433 . S
C3162 C3158 1.350 . S
C3162 C3159 1.463 . S
C3162 N3166 1.427 . S
C3163 H3153 0.929 . S
C3163 C3161 1.433 . S
C3163 N3166 1.384 . S
C3164 H3155 0.929 . S
C3164 C3156 1.378 . S
C3164 C3159 1.350 . S
C3165 H3152 0.929 . S
C3165 C3157 1.433 . S
C3165 N3167 1.384 . S
N3166 C3162 1.427 . S
N3166 C3163 1.384 . S
N3167 C3159 1.427 . S
N3167 C3165 1.384 . S
H3168 C3174 0.930 . S
H3169 C3178 0.930 . S
H3170 C3183 0.929 . S
H3171 C3181 0.929 . S
H3172 C3176 0.929 . S
H3173 C3182 0.929 . S
C3174 H3168 0.930 . S
C3174 C3175 1.367 . S
C3174 C3182 1.378 . S
C3175 C3174 1.367 . S
C3175 C3183 1.433 . S
C3176 H3172 0.929 . S
C3176 C3178 1.378 . S
C3176 C3180 1.350 . S
C3177 C3180 1.463 . S
C3177 C3182 1.350 . S
C3177 N3185 1.427 . S
C3178 H3169 0.930 . S
C3178 C3176 1.378 . S
C3178 C3179 1.367 . S
C3179 C3178 1.367 . S
C3179 C3181 1.433 . S
C3180 C3176 1.350 . S
C3180 C3177 1.463 . S
C3180 N3184 1.427 . S
C3181 H3171 0.929 . S
C3181 C3179 1.433 . S
C3181 N3184 1.384 . S
C3182 H3173 0.929 . S
C3182 C3174 1.378 . S
C3182 C3177 1.350 . S
C3183 H3170 0.929 . S
C3183 C3175 1.433 . S
C3183 N3185 1.384 . S
N3184 C3180 1.427 . S
N3184 C3181 1.384 . S
N3185 C3177 1.427 . S
N3185 C3183 1.384 . S
H3186 C3192 0.930 . S
H3187 C3196 0.930 . S
H3188 C3201 0.929 . S
H3189 C3199 0.929 . S
H3190 C3194 0.929 . S
H3191 C3200 0.929 . S
C3192 H3186 0.930 . S
C3192 C3193 1.367 . S
C3192 C3200 1.378 . S
C3193 C3192 1.367 . S
C3193 C3201 1.433 . S
C3194 H3190 0.929 . S
C3194 C3196 1.378 . S
C3194 C3198 1.350 . S
C3195 C3198 1.463 . S
C3195 C3200 1.350 . S
C3195 N3203 1.427 . S
C3196 H3187 0.930 . S
C3196 C3194 1.378 . S
C3196 C3197 1.367 . S
C3197 C3196 1.367 . S
C3197 C3199 1.433 . S
C3198 C3194 1.350 . S
C3198 C3195 1.463 . S
C3198 N3202 1.427 . S
C3199 H3189 0.929 . S
C3199 C3197 1.433 . S
C3199 N3202 1.384 . S
C3200 H3191 0.929 . S
C3200 C3192 1.378 . S
C3200 C3195 1.350 . S
C3201 H3188 0.929 . S
C3201 C3193 1.433 . S
C3201 N3203 1.384 . S
N3202 C3198 1.427 . S
N3202 C3199 1.384 . S
N3203 C3195 1.427 . S
N3203 C3201 1.384 . S
H3204 C3210 0.930 . S
H3205 C3214 0.930 . S
H3206 C3219 0.929 . S
H3207 C3217 0.929 1_455 S
H3208 C3212 0.929 . S
H3209 C3218 0.929 . S
C3210 H3204 0.930 . S
C3210 C3211 1.367 . S
C3210 C3218 1.378 . S
C3211 C3210 1.367 . S
C3211 C3219 1.433 . S
C3212 H3208 0.929 . S
C3212 C3214 1.378 . S
C3212 C3216 1.350 . S
C3213 C3216 1.463 . S
C3213 C3218 1.350 . S
C3213 N3221 1.427 . S
C3214 H3205 0.930 . S
C3214 C3212 1.378 . S
C3214 C3215 1.367 . S
C3215 C3214 1.367 . S
C3215 C3217 1.433 . S
C3216 C3212 1.350 . S
C3216 C3213 1.463 . S
C3216 N3220 1.427 . S
C3217 H3207 0.929 1_655 S
C3217 C3215 1.433 . S
C3217 N3220 1.384 . S
C3218 H3209 0.929 . S
C3218 C3210 1.378 . S
C3218 C3213 1.350 . S
C3219 H3206 0.929 . S
C3219 C3211 1.433 . S
C3219 N3221 1.384 . S
N3220 C3216 1.427 . S
N3220 C3217 1.384 . S
N3221 C3213 1.427 . S
N3221 C3219 1.384 . S
H3222 C3228 0.930 . S
H3223 C3232 0.930 . S
H3224 C3237 0.929 . S
H3225 C3235 0.929 . S
H3226 C3230 0.929 . S
H3227 C3236 0.929 . S
C3228 H3222 0.930 . S
C3228 C3229 1.367 . S
C3228 C3236 1.378 . S
C3229 C3228 1.367 . S
C3229 C3237 1.433 . S
C3230 H3226 0.929 . S
C3230 C3232 1.378 . S
C3230 C3234 1.350 . S
C3231 C3234 1.463 . S
C3231 C3236 1.350 . S
C3231 N3239 1.427 . S
C3232 H3223 0.930 . S
C3232 C3230 1.378 . S
C3232 C3233 1.367 . S
C3233 C3232 1.367 . S
C3233 C3235 1.433 . S
C3234 C3230 1.350 . S
C3234 C3231 1.463 . S
C3234 N3238 1.427 . S
C3235 H3225 0.929 . S
C3235 C3233 1.433 . S
C3235 N3238 1.384 . S
C3236 H3227 0.929 . S
C3236 C3228 1.378 . S
C3236 C3231 1.350 . S
C3237 H3224 0.929 . S
C3237 C3229 1.433 . S
C3237 N3239 1.384 . S
N3238 C3234 1.427 . S
N3238 C3235 1.384 . S
N3239 C3231 1.427 . S
N3239 C3237 1.384 . S
H3240 C3246 0.930 . S
H3241 C3250 0.930 . S
H3242 C3255 0.929 . S
H3243 C3253 0.929 . S
H3244 C3248 0.929 . S
H3245 C3254 0.929 . S
C3246 H3240 0.930 . S
C3246 C3247 1.367 . S
C3246 C3254 1.378 . S
C3247 C3246 1.367 . S
C3247 C3255 1.433 . S
C3248 H3244 0.929 . S
C3248 C3250 1.378 . S
C3248 C3252 1.350 . S
C3249 C3252 1.463 . S
C3249 C3254 1.350 . S
C3249 N3257 1.427 . S
C3250 H3241 0.930 . S
C3250 C3248 1.378 . S
C3250 C3251 1.367 . S
C3251 C3250 1.367 . S
C3251 C3253 1.433 . S
C3252 C3248 1.350 . S
C3252 C3249 1.463 . S
C3252 N3256 1.427 . S
C3253 H3243 0.929 . S
C3253 C3251 1.433 . S
C3253 N3256 1.384 . S
C3254 H3245 0.929 . S
C3254 C3246 1.378 . S
C3254 C3249 1.350 . S
C3255 H3242 0.929 . S
C3255 C3247 1.433 . S
C3255 N3257 1.384 . S
N3256 C3252 1.427 . S
N3256 C3253 1.384 . S
N3257 C3249 1.427 . S
N3257 C3255 1.384 . S
H3258 C3264 0.930 . S
H3259 C3268 0.930 . S
H3260 C3273 0.929 . S
H3261 C3271 0.929 . S
H3262 C3266 0.929 . S
H3263 C3272 0.929 . S
C3264 H3258 0.930 . S
C3264 C3265 1.367 . S
C3264 C3272 1.378 . S
C3265 C3264 1.367 . S
C3265 C3273 1.433 . S
C3266 H3262 0.929 . S
C3266 C3268 1.378 . S
C3266 C3270 1.350 . S
C3267 C3270 1.463 . S
C3267 C3272 1.350 . S
C3267 N3275 1.427 . S
C3268 H3259 0.930 . S
C3268 C3266 1.378 . S
C3268 C3269 1.367 . S
C3269 C3268 1.367 . S
C3269 C3271 1.433 . S
C3270 C3266 1.350 . S
C3270 C3267 1.463 . S
C3270 N3274 1.427 . S
C3271 H3261 0.929 . S
C3271 C3269 1.433 . S
C3271 N3274 1.384 . S
C3272 H3263 0.929 . S
C3272 C3264 1.378 . S
C3272 C3267 1.350 . S
C3273 H3260 0.929 . S
C3273 C3265 1.433 . S
C3273 N3275 1.384 . S
N3274 C3270 1.427 . S
N3274 C3271 1.384 . S
N3275 C3267 1.427 . S
N3275 C3273 1.384 . S
H3276 C3282 0.930 . S
H3277 C3286 0.930 . S
H3278 C3291 0.929 . S
H3279 C3289 0.929 . S
H3280 C3284 0.929 . S
H3281 C3290 0.929 . S
C3282 H3276 0.930 . S
C3282 C3283 1.367 . S
C3282 C3290 1.378 . S
C3283 C3282 1.367 . S
C3283 C3291 1.433 . S
C3284 H3280 0.929 . S
C3284 C3286 1.378 . S
C3284 C3288 1.350 . S
C3285 C3288 1.463 . S
C3285 C3290 1.350 . S
C3285 N3293 1.427 . S
C3286 H3277 0.930 . S
C3286 C3284 1.378 . S
C3286 C3287 1.367 . S
C3287 C3286 1.367 . S
C3287 C3289 1.433 . S
C3288 C3284 1.350 . S
C3288 C3285 1.463 . S
C3288 N3292 1.427 . S
C3289 H3279 0.929 . S
C3289 C3287 1.433 . S
C3289 N3292 1.384 . S
C3290 H3281 0.929 . S
C3290 C3282 1.378 . S
C3290 C3285 1.350 . S
C3291 H3278 0.929 . S
C3291 C3283 1.433 . S
C3291 N3293 1.384 . S
N3292 C3288 1.427 . S
N3292 C3289 1.384 . S
N3293 C3285 1.427 . S
N3293 C3291 1.384 . S
H3294 C3300 0.930 . S
H3295 C3304 0.930 . S
H3296 C3309 0.929 . S
H3297 C3307 0.929 . S
H3298 C3302 0.929 . S
H3299 C3308 0.929 . S
C3300 H3294 0.930 . S
C3300 C3301 1.367 . S
C3300 C3308 1.378 . S
C3301 C3300 1.367 . S
C3301 C3309 1.433 . S
C3302 H3298 0.929 . S
C3302 C3304 1.378 . S
C3302 C3306 1.350 . S
C3303 C3306 1.463 . S
C3303 C3308 1.350 . S
C3303 N3311 1.427 . S
C3304 H3295 0.930 . S
C3304 C3302 1.378 . S
C3304 C3305 1.367 . S
C3305 C3304 1.367 . S
C3305 C3307 1.433 . S
C3306 C3302 1.350 . S
C3306 C3303 1.463 . S
C3306 N3310 1.427 . S
C3307 H3297 0.929 . S
C3307 C3305 1.433 . S
C3307 N3310 1.384 . S
C3308 H3299 0.929 . S
C3308 C3300 1.378 . S
C3308 C3303 1.350 . S
C3309 H3296 0.929 . S
C3309 C3301 1.433 . S
C3309 N3311 1.384 . S
N3310 C3306 1.427 . S
N3310 C3307 1.384 . S
N3311 C3303 1.427 . S
N3311 C3309 1.384 . S
H3312 C3318 0.930 . S
H3313 C3322 0.930 . S
H3314 C3327 0.929 . S
H3315 C3325 0.929 . S
H3316 C3320 0.929 . S
H3317 C3326 0.929 . S
C3318 H3312 0.930 . S
C3318 C3319 1.367 . S
C3318 C3326 1.378 . S
C3319 C3318 1.367 . S
C3319 C3327 1.433 . S
C3320 H3316 0.929 . S
C3320 C3322 1.378 . S
C3320 C3324 1.350 . S
C3321 C3324 1.463 . S
C3321 C3326 1.350 . S
C3321 N3329 1.427 . S
C3322 H3313 0.930 . S
C3322 C3320 1.378 . S
C3322 C3323 1.367 . S
C3323 C3322 1.367 . S
C3323 C3325 1.433 . S
C3324 C3320 1.350 . S
C3324 C3321 1.463 . S
C3324 N3328 1.427 . S
C3325 H3315 0.929 . S
C3325 C3323 1.433 . S
C3325 N3328 1.384 . S
C3326 H3317 0.929 . S
C3326 C3318 1.378 . S
C3326 C3321 1.350 . S
C3327 H3314 0.929 . S
C3327 C3319 1.433 . S
C3327 N3329 1.384 . S
N3328 C3324 1.427 . S
N3328 C3325 1.384 . S
N3329 C3321 1.427 . S
N3329 C3327 1.384 . S
H3330 C3336 0.930 . S
H3331 C3340 0.930 . S
H3332 C3345 0.929 . S
H3333 C3343 0.929 . S
H3334 C3338 0.929 . S
H3335 C3344 0.929 . S
C3336 H3330 0.930 . S
C3336 C3337 1.367 . S
C3336 C3344 1.378 . S
C3337 C3336 1.367 . S
C3337 C3345 1.433 . S
C3338 H3334 0.929 . S
C3338 C3340 1.378 . S
C3338 C3342 1.350 . S
C3339 C3342 1.463 . S
C3339 C3344 1.350 . S
C3339 N3347 1.427 . S
C3340 H3331 0.930 . S
C3340 C3338 1.378 . S
C3340 C3341 1.367 . S
C3341 C3340 1.367 . S
C3341 C3343 1.433 . S
C3342 C3338 1.350 . S
C3342 C3339 1.463 . S
C3342 N3346 1.427 . S
C3343 H3333 0.929 . S
C3343 C3341 1.433 . S
C3343 N3346 1.384 . S
C3344 H3335 0.929 . S
C3344 C3336 1.378 . S
C3344 C3339 1.350 . S
C3345 H3332 0.929 . S
C3345 C3337 1.433 . S
C3345 N3347 1.384 . S
N3346 C3342 1.427 . S
N3346 C3343 1.384 . S
N3347 C3339 1.427 . S
N3347 C3345 1.384 . S
H3348 C3354 0.930 . S
H3349 C3358 0.930 . S
H3350 C3363 0.929 . S
H3351 C3361 0.929 . S
H3352 C3356 0.929 . S
H3353 C3362 0.929 . S
C3354 H3348 0.930 . S
C3354 C3355 1.367 . S
C3354 C3362 1.378 . S
C3355 C3354 1.367 . S
C3355 C3363 1.433 . S
C3356 H3352 0.929 . S
C3356 C3358 1.378 . S
C3356 C3360 1.350 . S
C3357 C3360 1.463 . S
C3357 C3362 1.350 . S
C3357 N3365 1.427 . S
C3358 H3349 0.930 . S
C3358 C3356 1.378 . S
C3358 C3359 1.367 . S
C3359 C3358 1.367 . S
C3359 C3361 1.433 . S
C3360 C3356 1.350 . S
C3360 C3357 1.463 . S
C3360 N3364 1.427 . S
C3361 H3351 0.929 . S
C3361 C3359 1.433 . S
C3361 N3364 1.384 . S
C3362 H3353 0.929 . S
C3362 C3354 1.378 . S
C3362 C3357 1.350 . S
C3363 H3350 0.929 . S
C3363 C3355 1.433 . S
C3363 N3365 1.384 . S
N3364 C3360 1.427 . S
N3364 C3361 1.384 . S
N3365 C3357 1.427 . S
N3365 C3363 1.384 . S
H3366 C3372 0.930 . S
H3367 C3376 0.930 . S
H3368 C3381 0.929 . S
H3369 C3379 0.929 . S
H3370 C3374 0.929 . S
H3371 C3380 0.929 . S
C3372 H3366 0.930 . S
C3372 C3373 1.367 . S
C3372 C3380 1.378 . S
C3373 C3372 1.367 . S
C3373 C3381 1.433 . S
C3374 H3370 0.929 . S
C3374 C3376 1.378 . S
C3374 C3378 1.350 . S
C3375 C3378 1.463 . S
C3375 C3380 1.350 . S
C3375 N3383 1.427 . S
C3376 H3367 0.930 . S
C3376 C3374 1.378 . S
C3376 C3377 1.367 . S
C3377 C3376 1.367 . S
C3377 C3379 1.433 . S
C3378 C3374 1.350 . S
C3378 C3375 1.463 . S
C3378 N3382 1.427 . S
C3379 H3369 0.929 . S
C3379 C3377 1.433 . S
C3379 N3382 1.384 . S
C3380 H3371 0.929 . S
C3380 C3372 1.378 . S
C3380 C3375 1.350 . S
C3381 H3368 0.929 . S
C3381 C3373 1.433 . S
C3381 N3383 1.384 . S
N3382 C3378 1.427 . S
N3382 C3379 1.384 . S
N3383 C3375 1.427 . S
N3383 C3381 1.384 . S
C1663 C101 1.741 . S
C1667 C368 1.581 . S
C1681 C57 2.170 . S
C1685 C459 2.132 . S
C1699 C70 1.401 . S
C1703 C536 1.286 . S
C1721 C634 1.446 . S
C1717 C82 1.554 . S
C1735 C23 1.600 . S
C1739 C718 1.590 . S
C1757 C790 0.869 . S
C1753 C29 0.918 . S
C1775 C879 0.824 . S
C1771 C49 0.794 . S
C1789 C10 1.562 . S
C1793 C956 1.329 . S
C1811 C375 1.938 . S
C1807 C218 2.042 . S
C1825 C226 0.729 . S
C1829 C466 0.728 . S
C1847 C543 1.229 . S
C1843 C251 1.257 . S
C1865 C620 1.424 . S
C1861 C159 1.542 . S
C1879 C211 2.097 . S
C1883 C704 1.905 . S
C1901 C806 1.136 . S
C1897 C225 1.228 . S
C1919 C886 0.772 . S
C1915 C252 0.798 . S
C1937 C963 1.483 . S
C1933 C166 1.625 . S
C1955 C382 1.433 . S
C1951 C147 1.487 . S
C1969 C263 1.883 . S
C1973 C1047 1.833 1_556 S
C1991 C1135 2.174 . S
C1987 C309 2.380 . S
C2009 C1208 0.602 1_655 S
C2005 C291 0.355 . S
C2023 C108 1.107 . S
C2027 C970 1.169 . S
C2041 C121 1.495 . S
C2045 C550 1.496 . S
C2059 C302 2.180 . S
C2063 C1299 2.107 . S
C2081 C1376 0.701 . S
C2077 C276 0.685 . S
C2099 C379 1.837 1_565 S
C2095 C55 1.943 . S
C2117 C1394 2.354 . S
C2113 C96 2.401 . S
C2131 C88 1.754 . S
C2135 C547 1.682 . S
C2149 C75 1.776 . S
C2153 C1294 1.620 . S
C2171 C706 1.598 . S
C2167 C4 1.661 . S
C2185 C44 1.160 . S
C2189 C1138 1.069 . S
C2207 C890 1.235 1_565 S
C2203 C31 1.210 . S
C2225 C1471 1.518 . S
C2221 C18 1.650 . S
C2243 C386 2.209 . S
C2239 C133 2.308 . S
C2261 C1378 0.851 . S
C2257 C296 0.873 . S
C2275 C107 1.419 . S
C2279 C554 1.364 . S
C2293 C264 1.866 . S
C2297 C1303 1.766 . S
C2311 C140 2.285 . S
C2315 C715 2.137 . S
C2333 C1131 1.264 . S
C2329 C289 1.361 . S
C2347 C114 0.992 . S
C2351 C874 0.913 . S
C2365 C265 1.860 . S
C2369 C1478 1.733 . S
C2383 C179 1.584 . S
C2387 C370 1.481 . S
C2401 C161 2.135 . S
C2405 C1058 2.048 . S
C2419 C244 2.614 . S
C2423 C788 2.456 . S
C2437 C224 0.846 . S
C2441 C1219 0.836 . S
C2459 C1462 0.953 . S
C2455 C257 0.950 1_565 S
C2473 C199 1.588 . S
C2477 C538 1.511 . S
C2495 C638 2.345 . S
C2491 C237 2.439 . S
C2513 C463 0.935 . S
C2509 C185 0.984 . S
C2527 C69 1.740 . S
C2531 C1544 1.567 . S
C2549 C1383 2.134 . S
C2545 C83 2.168 . S
C2563 C94 1.403 . S
C2567 C1628 1.291 . S
C2581 C56 1.548 . S
C2585 C1306 1.460 . S
C2599 C42 1.616 . S
C2603 C1054 1.604 . S
C2621 C1126 0.899 . S
C2617 C3 0.916 . S
C2639 C1215 0.830 . S
C2635 C16 0.824 . S
C2657 C1460 1.334 . S
C2653 C36 1.566 . S
C2675 C1551 1.938 . S
C2671 C238 2.043 . S
C2689 C174 0.731 . S
C2693 C1390 0.722 . S
C2711 C1635 1.229 . S
C2707 C186 1.256 . S
C2729 C1292 1.415 . S
C2725 C198 1.542 . S
C2747 C1040 1.907 . S
C2743 C239 2.100 . S
C2761 C173 1.230 . S
C2765 C1142 1.136 . S
C2783 C1222 0.783 . S
C2779 C187 0.785 . S
C2797 C205 1.624 . S
C2801 C1467 1.468 . S
C2819 C1558 1.423 . S
C2815 C290 1.489 . S
C2833 C122 1.889 . S
C2837 C711 1.821 . S
C2855 C799 2.185 . S
C2851 C134 2.391 . S
C2873 C872 0.554 . S
C2869 C148 0.340 . S
C2891 C1474 1.159 . S
C2887 C283 1.127 . S
C2905 C270 1.495 . S
C2909 C1642 1.488 . S
C2927 C627 2.099 . S
C2923 C135 2.173 . S
C2945 C452 0.694 . S
C2941 C109 0.681 . S
C2959 C81 1.943 . S
C2963 C1555 1.837 . S
C2981 C470 2.356 . S
C2977 C68 2.397 . S
C2995 C62 1.754 . S
C2999 C1639 1.681 . S
C3013 C95 1.774 . S
C3017 C622 1.633 . S
C3031 C30 1.652 . S
C3035 C1042 1.611 . S
C3053 C802 1.033 . S
C3049 C17 1.146 . S
C3067 C5 1.206 . S
C3071 C1226 1.239 . S
C3085 C43 1.645 . S
C3089 C967 1.520 . S
C3107 C1562 2.202 . S
C3103 C304 2.308 . S
C3121 C153 0.875 . S
C3125 C454 0.822 . S
C3143 C1646 1.369 . S
C3139 C278 1.414 . S
C3157 C127 1.864 . S
C3161 C631 1.756 . S
C3175 C303 2.280 . S
C3179 C1051 2.142 . S
C3197 C795 1.259 . S
C3193 C146 1.358 . S
C3211 C277 0.986 . S
C3215 C1210 0.925 . S
C3233 C974 1.732 . S
C3229 C120 1.857 . S
C3251 C1546 1.471 . S
C3247 C231 1.587 . S
C3269 C722 2.046 1_665 S
C3265 C200 2.134 . S
C3283 C212 2.616 . S
C3287 C1124 2.449 . S
C3305 C883 0.842 . S
C3301 C172 0.840 . S
C3319 C192 0.965 . S
C3323 C958 0.933 . S
C3337 C160 1.590 . S
C3341 C1630 1.510 . S
C3359 C1310 2.337 . S
C3355 C213 2.441 1_565 S
C3377 C1387 0.961 . S
C3373 C250 0.985 . S
