# Generated by pormake.
# Topology gar, (4,6)-cn, num edge types: 1
# Building blocks:
#     Node 0, Type 0, BuildingBlock: CEKHIL_clean_sbu_0, # of connection points: 4
#     Node 1, Type 0, BuildingBlock: CEKHIL_clean_sbu_0, # of connection points: 4
#     Node 2, Type 0, BuildingBlock: CEKHIL_clean_sbu_0, # of connection points: 4
#     Node 3, Type 0, BuildingBlock: CEKHIL_clean_sbu_0, # of connection points: 4
#     Node 4, Type 0, BuildingBlock: CEKHIL_clean_sbu_0, # of connection points: 4
#     Node 5, Type 0, BuildingBlock: CEKHIL_clean_sbu_0, # of connection points: 4
#     Node 6, Type 0, BuildingBlock: CEKHIL_clean_sbu_0, # of connection points: 4
#     Node 7, Type 0, BuildingBlock: CEKHIL_clean_sbu_0, # of connection points: 4
#     Node 8, Type 0, BuildingBlock: CEKHIL_clean_sbu_0, # of connection points: 4
#     Node 9, Type 0, BuildingBlock: CEKHIL_clean_sbu_0, # of connection points: 4
#     Node 10, Type 0, BuildingBlock: CEKHIL_clean_sbu_0, # of connection points: 4
#     Node 11, Type 0, BuildingBlock: CEKHIL_clean_sbu_0, # of connection points: 4
#     Node 12, Type 0, BuildingBlock: CEKHIL_clean_sbu_0, # of connection points: 4
#     Node 13, Type 0, BuildingBlock: CEKHIL_clean_sbu_0, # of connection points: 4
#     Node 14, Type 0, BuildingBlock: CEKHIL_clean_sbu_0, # of connection points: 4
#     Node 15, Type 0, BuildingBlock: CEKHIL_clean_sbu_0, # of connection points: 4
#     Node 16, Type 0, BuildingBlock: CEKHIL_clean_sbu_0, # of connection points: 4
#     Node 17, Type 0, BuildingBlock: CEKHIL_clean_sbu_0, # of connection points: 4
#     Node 18, Type 0, BuildingBlock: CEKHIL_clean_sbu_0, # of connection points: 4
#     Node 19, Type 0, BuildingBlock: CEKHIL_clean_sbu_0, # of connection points: 4
#     Node 20, Type 0, BuildingBlock: CEKHIL_clean_sbu_0, # of connection points: 4
#     Node 21, Type 0, BuildingBlock: CEKHIL_clean_sbu_0, # of connection points: 4
#     Node 22, Type 0, BuildingBlock: CEKHIL_clean_sbu_0, # of connection points: 4
#     Node 23, Type 0, BuildingBlock: CEKHIL_clean_sbu_0, # of connection points: 4
#     Node 24, Type 1, BuildingBlock: MIFKUJ_clean_sbu_0, # of connection points: 6
#     Node 25, Type 1, BuildingBlock: MIFKUJ_clean_sbu_0, # of connection points: 6
#     Node 26, Type 1, BuildingBlock: MIFKUJ_clean_sbu_0, # of connection points: 6
#     Node 27, Type 1, BuildingBlock: MIFKUJ_clean_sbu_0, # of connection points: 6
#     Node 28, Type 1, BuildingBlock: MIFKUJ_clean_sbu_0, # of connection points: 6
#     Node 29, Type 1, BuildingBlock: MIFKUJ_clean_sbu_0, # of connection points: 6
#     Node 30, Type 1, BuildingBlock: MIFKUJ_clean_sbu_0, # of connection points: 6
#     Node 31, Type 1, BuildingBlock: MIFKUJ_clean_sbu_0, # of connection points: 6
#     Node 32, Type 1, BuildingBlock: MIFKUJ_clean_sbu_0, # of connection points: 6
#     Node 33, Type 1, BuildingBlock: MIFKUJ_clean_sbu_0, # of connection points: 6
#     Node 34, Type 1, BuildingBlock: MIFKUJ_clean_sbu_0, # of connection points: 6
#     Node 35, Type 1, BuildingBlock: MIFKUJ_clean_sbu_0, # of connection points: 6
#     Node 36, Type 1, BuildingBlock: MIFKUJ_clean_sbu_0, # of connection points: 6
#     Node 37, Type 1, BuildingBlock: MIFKUJ_clean_sbu_0, # of connection points: 6
#     Node 38, Type 1, BuildingBlock: MIFKUJ_clean_sbu_0, # of connection points: 6
#     Node 39, Type 1, BuildingBlock: MIFKUJ_clean_sbu_0, # of connection points: 6
#     Edge 40, Type (0, 1), BuildingBlock: ZUJKAS_clean_linker_0, # of connection points: 2
#     Edge 41, Type (0, 1), BuildingBlock: ZUJKAS_clean_linker_0, # of connection points: 2
#     Edge 42, Type (0, 1), BuildingBlock: ZUJKAS_clean_linker_0, # of connection points: 2
#     Edge 43, Type (0, 1), BuildingBlock: ZUJKAS_clean_linker_0, # of connection points: 2
#     Edge 44, Type (0, 1), BuildingBlock: ZUJKAS_clean_linker_0, # of connection points: 2
#     Edge 45, Type (0, 1), BuildingBlock: ZUJKAS_clean_linker_0, # of connection points: 2
#     Edge 46, Type (0, 1), BuildingBlock: ZUJKAS_clean_linker_0, # of connection points: 2
#     Edge 47, Type (0, 1), BuildingBlock: ZUJKAS_clean_linker_0, # of connection points: 2
#     Edge 48, Type (0, 1), BuildingBlock: ZUJKAS_clean_linker_0, # of connection points: 2
#     Edge 49, Type (0, 1), BuildingBlock: ZUJKAS_clean_linker_0, # of connection points: 2
#     Edge 50, Type (0, 1), BuildingBlock: ZUJKAS_clean_linker_0, # of connection points: 2
#     Edge 51, Type (0, 1), BuildingBlock: ZUJKAS_clean_linker_0, # of connection points: 2
#     Edge 52, Type (0, 1), BuildingBlock: ZUJKAS_clean_linker_0, # of connection points: 2
#     Edge 53, Type (0, 1), BuildingBlock: ZUJKAS_clean_linker_0, # of connection points: 2
#     Edge 54, Type (0, 1), BuildingBlock: ZUJKAS_clean_linker_0, # of connection points: 2
#     Edge 55, Type (0, 1), BuildingBlock: ZUJKAS_clean_linker_0, # of connection points: 2
#     Edge 56, Type (0, 1), BuildingBlock: ZUJKAS_clean_linker_0, # of connection points: 2
#     Edge 57, Type (0, 1), BuildingBlock: ZUJKAS_clean_linker_0, # of connection points: 2
#     Edge 58, Type (0, 1), BuildingBlock: ZUJKAS_clean_linker_0, # of connection points: 2
#     Edge 59, Type (0, 1), BuildingBlock: ZUJKAS_clean_linker_0, # of connection points: 2
#     Edge 60, Type (0, 1), BuildingBlock: ZUJKAS_clean_linker_0, # of connection points: 2
#     Edge 61, Type (0, 1), BuildingBlock: ZUJKAS_clean_linker_0, # of connection points: 2
#     Edge 62, Type (0, 1), BuildingBlock: ZUJKAS_clean_linker_0, # of connection points: 2
#     Edge 63, Type (0, 1), BuildingBlock: ZUJKAS_clean_linker_0, # of connection points: 2
#     Edge 64, Type (0, 1), BuildingBlock: ZUJKAS_clean_linker_0, # of connection points: 2
#     Edge 65, Type (0, 1), BuildingBlock: ZUJKAS_clean_linker_0, # of connection points: 2
#     Edge 66, Type (0, 1), BuildingBlock: ZUJKAS_clean_linker_0, # of connection points: 2
#     Edge 67, Type (0, 1), BuildingBlock: ZUJKAS_clean_linker_0, # of connection points: 2
#     Edge 68, Type (0, 1), BuildingBlock: ZUJKAS_clean_linker_0, # of connection points: 2
#     Edge 69, Type (0, 1), BuildingBlock: ZUJKAS_clean_linker_0, # of connection points: 2
#     Edge 70, Type (0, 1), BuildingBlock: ZUJKAS_clean_linker_0, # of connection points: 2
#     Edge 71, Type (0, 1), BuildingBlock: ZUJKAS_clean_linker_0, # of connection points: 2
#     Edge 72, Type (0, 1), BuildingBlock: ZUJKAS_clean_linker_0, # of connection points: 2
#     Edge 73, Type (0, 1), BuildingBlock: ZUJKAS_clean_linker_0, # of connection points: 2
#     Edge 74, Type (0, 1), BuildingBlock: ZUJKAS_clean_linker_0, # of connection points: 2
#     Edge 75, Type (0, 1), BuildingBlock: ZUJKAS_clean_linker_0, # of connection points: 2
#     Edge 76, Type (0, 1), BuildingBlock: ZUJKAS_clean_linker_0, # of connection points: 2
#     Edge 77, Type (0, 1), BuildingBlock: ZUJKAS_clean_linker_0, # of connection points: 2
#     Edge 78, Type (0, 1), BuildingBlock: ZUJKAS_clean_linker_0, # of connection points: 2
#     Edge 79, Type (0, 1), BuildingBlock: ZUJKAS_clean_linker_0, # of connection points: 2
#     Edge 80, Type (0, 1), BuildingBlock: ZUJKAS_clean_linker_0, # of connection points: 2
#     Edge 81, Type (0, 1), BuildingBlock: ZUJKAS_clean_linker_0, # of connection points: 2
#     Edge 82, Type (0, 1), BuildingBlock: ZUJKAS_clean_linker_0, # of connection points: 2
#     Edge 83, Type (0, 1), BuildingBlock: ZUJKAS_clean_linker_0, # of connection points: 2
#     Edge 84, Type (0, 1), BuildingBlock: ZUJKAS_clean_linker_0, # of connection points: 2
#     Edge 85, Type (0, 1), BuildingBlock: ZUJKAS_clean_linker_0, # of connection points: 2
#     Edge 86, Type (0, 1), BuildingBlock: ZUJKAS_clean_linker_0, # of connection points: 2
#     Edge 87, Type (0, 1), BuildingBlock: ZUJKAS_clean_linker_0, # of connection points: 2
#     Edge 88, Type (0, 1), BuildingBlock: ZUJKAS_clean_linker_0, # of connection points: 2
#     Edge 89, Type (0, 1), BuildingBlock: ZUJKAS_clean_linker_0, # of connection points: 2
#     Edge 90, Type (0, 1), BuildingBlock: ZUJKAS_clean_linker_0, # of connection points: 2
#     Edge 91, Type (0, 1), BuildingBlock: ZUJKAS_clean_linker_0, # of connection points: 2
#     Edge 92, Type (0, 1), BuildingBlock: ZUJKAS_clean_linker_0, # of connection points: 2
#     Edge 93, Type (0, 1), BuildingBlock: ZUJKAS_clean_linker_0, # of connection points: 2
#     Edge 94, Type (0, 1), BuildingBlock: ZUJKAS_clean_linker_0, # of connection points: 2
#     Edge 95, Type (0, 1), BuildingBlock: ZUJKAS_clean_linker_0, # of connection points: 2
#     Edge 96, Type (0, 1), BuildingBlock: ZUJKAS_clean_linker_0, # of connection points: 2
#     Edge 97, Type (0, 1), BuildingBlock: ZUJKAS_clean_linker_0, # of connection points: 2
#     Edge 98, Type (0, 1), BuildingBlock: ZUJKAS_clean_linker_0, # of connection points: 2
#     Edge 99, Type (0, 1), BuildingBlock: ZUJKAS_clean_linker_0, # of connection points: 2
#     Edge 100, Type (0, 1), BuildingBlock: ZUJKAS_clean_linker_0, # of connection points: 2
#     Edge 101, Type (0, 1), BuildingBlock: ZUJKAS_clean_linker_0, # of connection points: 2
#     Edge 102, Type (0, 1), BuildingBlock: ZUJKAS_clean_linker_0, # of connection points: 2
#     Edge 103, Type (0, 1), BuildingBlock: ZUJKAS_clean_linker_0, # of connection points: 2
#     Edge 104, Type (0, 1), BuildingBlock: ZUJKAS_clean_linker_0, # of connection points: 2
#     Edge 105, Type (0, 1), BuildingBlock: ZUJKAS_clean_linker_0, # of connection points: 2
#     Edge 106, Type (0, 1), BuildingBlock: ZUJKAS_clean_linker_0, # of connection points: 2
#     Edge 107, Type (0, 1), BuildingBlock: ZUJKAS_clean_linker_0, # of connection points: 2
#     Edge 108, Type (0, 1), BuildingBlock: ZUJKAS_clean_linker_0, # of connection points: 2
#     Edge 109, Type (0, 1), BuildingBlock: ZUJKAS_clean_linker_0, # of connection points: 2
#     Edge 110, Type (0, 1), BuildingBlock: ZUJKAS_clean_linker_0, # of connection points: 2
#     Edge 111, Type (0, 1), BuildingBlock: ZUJKAS_clean_linker_0, # of connection points: 2
#     Edge 112, Type (0, 1), BuildingBlock: ZUJKAS_clean_linker_0, # of connection points: 2
#     Edge 113, Type (0, 1), BuildingBlock: ZUJKAS_clean_linker_0, # of connection points: 2
#     Edge 114, Type (0, 1), BuildingBlock: ZUJKAS_clean_linker_0, # of connection points: 2
#     Edge 115, Type (0, 1), BuildingBlock: ZUJKAS_clean_linker_0, # of connection points: 2
#     Edge 116, Type (0, 1), BuildingBlock: ZUJKAS_clean_linker_0, # of connection points: 2
#     Edge 117, Type (0, 1), BuildingBlock: ZUJKAS_clean_linker_0, # of connection points: 2
#     Edge 118, Type (0, 1), BuildingBlock: ZUJKAS_clean_linker_0, # of connection points: 2
#     Edge 119, Type (0, 1), BuildingBlock: ZUJKAS_clean_linker_0, # of connection points: 2
#     Edge 120, Type (0, 1), BuildingBlock: ZUJKAS_clean_linker_0, # of connection points: 2
#     Edge 121, Type (0, 1), BuildingBlock: ZUJKAS_clean_linker_0, # of connection points: 2
#     Edge 122, Type (0, 1), BuildingBlock: ZUJKAS_clean_linker_0, # of connection points: 2
#     Edge 123, Type (0, 1), BuildingBlock: ZUJKAS_clean_linker_0, # of connection points: 2
#     Edge 124, Type (0, 1), BuildingBlock: ZUJKAS_clean_linker_0, # of connection points: 2
#     Edge 125, Type (0, 1), BuildingBlock: ZUJKAS_clean_linker_0, # of connection points: 2
#     Edge 126, Type (0, 1), BuildingBlock: ZUJKAS_clean_linker_0, # of connection points: 2
#     Edge 127, Type (0, 1), BuildingBlock: ZUJKAS_clean_linker_0, # of connection points: 2
#     Edge 128, Type (0, 1), BuildingBlock: ZUJKAS_clean_linker_0, # of connection points: 2
#     Edge 129, Type (0, 1), BuildingBlock: ZUJKAS_clean_linker_0, # of connection points: 2
#     Edge 130, Type (0, 1), BuildingBlock: ZUJKAS_clean_linker_0, # of connection points: 2
#     Edge 131, Type (0, 1), BuildingBlock: ZUJKAS_clean_linker_0, # of connection points: 2
#     Edge 132, Type (0, 1), BuildingBlock: ZUJKAS_clean_linker_0, # of connection points: 2
#     Edge 133, Type (0, 1), BuildingBlock: ZUJKAS_clean_linker_0, # of connection points: 2
#     Edge 134, Type (0, 1), BuildingBlock: ZUJKAS_clean_linker_0, # of connection points: 2
#     Edge 135, Type (0, 1), BuildingBlock: ZUJKAS_clean_linker_0, # of connection points: 2
# Relax obj value: 0.094
# Max RMSD: 0.263
# Mean RMSD: 0.126
data_MOF--net-gar--node1-CEKHIL_clean_sbu_0--node2-MIFKUJ_clean_sbu_0--edge1-ZUJKAS_clean_linker_0
_symmetry_space_group_name_H-M    P1
_symmetry_Int_Tables_number       1
_symmetry_cell_setting            triclinic
loop_
_symmetry_equiv_pos_as_xyz
'x, y, z'
_cell_length_a     72.619524
_cell_length_b     71.944531
_cell_length_c     68.897462
_cell_angle_alpha  94.200986
_cell_angle_beta   94.358501
_cell_angle_gamma 98.428546
loop_
_atom_site_label
_atom_site_type_symbol
_atom_site_fract_x
_atom_site_fract_y
_atom_site_fract_z
_atom_type_partial_charge
Co0 Co 0.02674 0.27164 0.39114 0.0
O1 O 0.05296 0.26938 0.39477 0.0
O2 O 0.03503 0.26172 0.36709 0.0
C3 C 0.0295 0.30089 0.40643 0.0
O4 O 0.99986 0.27275 0.38079 0.0
Co5 Co 0.00171 0.27742 0.42501 0.0
O6 O 0.98342 0.28331 0.40442 0.0
C7 C 0.01237 0.23981 0.41521 0.0
C8 C 0.0515 0.26326 0.3764 0.0
C9 C 0.98508 0.2786 0.38653 0.0
O10 O 0.01972 0.24544 0.39979 0.0
O11 O 0.00573 0.25073 0.42749 0.0
O12 O 0.03326 0.29868 0.38831 0.0
O13 O 0.02542 0.2856 0.41486 0.0
Co14 Co 0.99845 0.75839 0.63971 0.0
O15 O 0.97182 0.75813 0.63685 0.0
O16 O 0.98748 0.74985 0.66283 0.0
C17 C 0.00595 0.78718 0.62895 0.0
O18 O 0.02576 0.75754 0.64851 0.0
Co19 Co 0.02257 0.76123 0.60422 0.0
O20 O 0.04399 0.76523 0.62448 0.0
C21 C 0.99723 0.72611 0.609 0.0
C22 C 0.97159 0.75253 0.65434 0.0
C23 C 0.04194 0.76144 0.64205 0.0
O24 O 0.99522 0.73182 0.62678 0.0
O25 O 0.00583 0.73654 0.59723 0.0
O26 O 0.00224 0.78566 0.64698 0.0
O27 O 0.00374 0.77161 0.61797 0.0
Co28 Co 0.52556 0.7723 0.89211 0.0
O29 O 0.55165 0.76934 0.89511 0.0
O30 O 0.53281 0.76109 0.86811 0.0
C31 C 0.52926 0.80217 0.90597 0.0
O32 O 0.4986 0.77388 0.88248 0.0
Co33 Co 0.5021 0.77974 0.92689 0.0
O34 O 0.48312 0.78501 0.90668 0.0
C35 C 0.51159 0.74161 0.91793 0.0
C36 C 0.54947 0.76251 0.87693 0.0
C37 C 0.48413 0.78 0.88873 0.0
O38 O 0.51825 0.74662 0.90195 0.0
O39 O 0.50575 0.75308 0.93029 0.0
O40 O 0.53262 0.79891 0.88787 0.0
O41 O 0.52525 0.78745 0.91539 0.0
Co42 Co 0.49906 0.25917 0.14539 0.0
O43 O 0.47246 0.25895 0.14374 0.0
O44 O 0.48926 0.252 0.16962 0.0
C45 C 0.50586 0.28718 0.13266 0.0
O46 O 0.52668 0.25862 0.15295 0.0
Co47 Co 0.52087 0.25969 0.10821 0.0
O48 O 0.54335 0.26381 0.12716 0.0
C49 C 0.4963 0.22521 0.11634 0.0
C50 C 0.47302 0.25421 0.16157 0.0
C51 C 0.54236 0.26143 0.14524 0.0
O52 O 0.49526 0.23199 0.134 0.0
O53 O 0.50401 0.23483 0.10341 0.0
O54 O 0.5033 0.28668 0.1511 0.0
O55 O 0.50302 0.27108 0.12256 0.0
Co56 Co 0.01716 0.77267 0.14473 0.0
O57 O 0.99026 0.76705 0.14089 0.0
O58 O 0.00733 0.76272 0.16773 0.0
C59 C 0.01926 0.8013 0.13287 0.0
O60 O 0.04461 0.77744 0.15507 0.0
Co61 Co 0.04266 0.77939 0.1112 0.0
O62 O 0.06334 0.78677 0.13207 0.0
C63 C 0.02503 0.74064 0.11692 0.0
C64 C 0.99087 0.76188 0.15859 0.0
C65 C 0.06084 0.78341 0.14965 0.0
O66 O 0.0194 0.74655 0.13322 0.0
O67 O 0.03316 0.75174 0.10541 0.0
O68 O 0.01555 0.7993 0.15084 0.0
O69 O 0.02055 0.78596 0.12245 0.0
Co70 Co 0.51045 0.75701 0.39042 0.0
O71 O 0.53736 0.76123 0.39396 0.0
O72 O 0.52057 0.74756 0.36717 0.0
C73 C 0.50662 0.78602 0.40243 0.0
O74 O 0.48279 0.75133 0.38067 0.0
Co75 Co 0.486 0.7592 0.42536 0.0
O76 O 0.46578 0.76023 0.40462 0.0
C77 C 0.506 0.72669 0.41885 0.0
C78 C 0.53696 0.7536 0.37623 0.0
C79 C 0.46726 0.75494 0.38682 0.0
O80 O 0.50987 0.73185 0.4019 0.0
O81 O 0.49796 0.73654 0.43089 0.0
O82 O 0.51054 0.78319 0.38445 0.0
O83 O 0.50668 0.7718 0.41278 0.0
Co84 Co 0.51509 0.27337 0.64894 0.0
O85 O 0.48817 0.26713 0.64631 0.0
O86 O 0.50642 0.26398 0.67271 0.0
C87 C 0.51592 0.30161 0.6364 0.0
O88 O 0.54289 0.27883 0.658 0.0
Co89 Co 0.53892 0.28014 0.61397 0.0
O90 O 0.56019 0.2885 0.63397 0.0
C91 C 0.52336 0.24116 0.6216 0.0
C92 C 0.48961 0.26266 0.66424 0.0
C93 C 0.55867 0.28515 0.65172 0.0
O94 O 0.51759 0.24717 0.63781 0.0
O95 O 0.53084 0.25218 0.60963 0.0
O96 O 0.51305 0.29998 0.65463 0.0
O97 O 0.51715 0.28615 0.62619 0.0
Co98 Co 0.01154 0.2554 0.89012 0.0
O99 O 0.03848 0.25931 0.89285 0.0
O100 O 0.02095 0.24499 0.86682 0.0
C101 C 0.00857 0.28497 0.90134 0.0
O102 O 0.98363 0.24986 0.88117 0.0
Co103 Co 0.98804 0.25972 0.92565 0.0
O104 O 0.96731 0.25985 0.90526 0.0
C105 C 0.00811 0.22704 0.92043 0.0
C106 C 0.03757 0.25121 0.87525 0.0
C107 C 0.9683 0.25382 0.88757 0.0
O108 O 0.01096 0.23072 0.90275 0.0
O109 O 1.00082 0.23788 0.9322 0.0
O110 O 0.01188 0.28143 0.88327 0.0
O111 O 0.00858 0.27107 0.91211 0.0
Co112 Co 0.39186 0.03041 0.27633 0.0
O113 O 0.3921 0.05635 0.27069 0.0
O114 O 0.36813 0.03339 0.26351 0.0
C115 C 0.40524 0.03672 0.30719 0.0
O116 O 0.38526 0.00267 0.28046 0.0
Co117 Co 0.42738 0.01271 0.28738 0.0
O118 O 0.40972 0.99035 0.29303 0.0
C119 C 0.41902 0.02292 0.24723 0.0
C120 C 0.37492 0.0511 0.26336 0.0
C121 C 0.39237 0.98907 0.28767 0.0
O122 O 0.40206 0.02441 0.25052 0.0
O123 O 0.43154 0.0205 0.26053 0.0
O124 O 0.38741 0.03691 0.3036 0.0
O125 O 0.41428 0.03394 0.29216 0.0
Co126 Co 0.26863 0.12967 0.49687 0.0
O127 O 0.29554 0.13381 0.50235 0.0
O128 O 0.27688 0.10763 0.50695 0.0
C129 C 0.26858 0.14142 0.46726 0.0
O130 O 0.2408 0.11916 0.4924 0.0
Co131 Co 0.24484 0.16146 0.49011 0.0
O132 O 0.22422 0.14067 0.48105 0.0
C133 C 0.26042 0.15642 0.53012 0.0
C134 C 0.29378 0.11671 0.50767 0.0
C135 C 0.22541 0.12394 0.48531 0.0
O136 O 0.26547 0.14067 0.5241 0.0
O137 O 0.25345 0.16724 0.51857 0.0
O138 O 0.27159 0.12422 0.469 0.0
O139 O 0.26685 0.15111 0.48333 0.0
Co140 Co 0.13946 0.00232 0.78724 0.0
O141 O 0.13564 0.97519 0.7818 0.0
O142 O 0.16186 0.99414 0.77845 0.0
C143 C 0.12626 0.00192 0.81601 0.0
O144 O 0.14963 0.03042 0.79191 0.0
Co145 Co 0.10768 0.02623 0.79265 0.0
O146 O 0.12796 0.04735 0.80182 0.0
C147 C 0.11393 0.01017 0.75314 0.0
C148 C 0.15287 0.97705 0.77739 0.0
C149 C 0.14471 0.04606 0.79832 0.0
O150 O 0.1296 0.00548 0.7596 0.0
O151 O 0.10276 0.01696 0.76428 0.0
O152 O 0.14359 0.99938 0.81535 0.0
O153 O 0.11752 0.0038 0.79948 0.0
Co154 Co 0.24748 0.88907 0.00484 0.0
O155 O 0.22204 0.88845 0.01141 0.0
O156 O 0.24384 0.91372 0.01528 0.0
C157 C 0.24047 0.87261 0.97543 0.0
O158 O 0.27467 0.89598 -0.00077 0.0
Co159 Co 0.26601 0.85316 0.99695 0.0
O160 O 0.28674 0.87066 0.98811 0.0
C161 C 0.26121 0.86719 0.03752 0.0
C162 C 0.22665 0.90633 0.01685 0.0
C163 C 0.28794 0.88838 0.9921 0.0
O164 O 0.25516 0.882 0.03174 0.0
O165 O 0.26508 0.85387 0.02592 0.0
O166 O 0.23956 0.89058 0.97724 0.0
O167 O 0.24427 0.86516 0.9914 0.0
Co168 Co 0.25558 0.3899 0.02894 0.0
O169 O 0.22855 0.38601 0.02706 0.0
O170 O 0.24656 0.4123 0.03941 0.0
C171 C 0.25786 0.37773 0.9981 0.0
O172 O 0.28365 0.40016 0.03222 0.0
Co173 Co 0.2791 0.35738 0.02383 0.0
O174 O 0.2996 0.37795 0.02055 0.0
C175 C 0.26205 0.36395 0.06104 0.0
C176 C 0.22979 0.40331 0.0345 0.0
C177 C 0.29885 0.39491 0.02676 0.0
O178 O 0.25641 0.3791 0.05547 0.0
O179 O 0.27026 0.35317 0.05015 0.0
O180 O 0.25497 0.39505 0.00132 0.0
O181 O 0.25809 0.36818 0.0132 0.0
Co182 Co 0.77857 0.13208 0.01539 0.0
O183 O 0.80464 0.13115 0.01281 0.0
O184 O 0.78421 0.10741 0.02054 0.0
C185 C 0.77321 0.14604 0.98772 0.0
O186 O 0.75067 0.12721 0.0185 0.0
Co187 Co 0.76278 0.1701 0.01901 0.0
O188 O 0.73805 0.15375 0.01607 0.0
C189 C 0.78662 0.15907 0.05143 0.0
C190 C 0.80118 0.11367 0.0168 0.0
C191 C 0.73648 0.13603 0.01749 0.0
O192 O 0.7844 0.1419 0.04381 0.0
O193 O 0.78104 0.17259 0.04268 0.0
O194 O 0.77316 0.12792 0.98691 0.0
O195 O 0.77788 0.15498 0.00465 0.0
Co196 Co 0.14279 0.49589 0.26655 0.0
O197 O 0.1403 0.46951 0.27084 0.0
O198 O 0.16564 0.48655 0.26166 0.0
C199 C 0.13029 0.50493 0.2939 0.0
O200 O 0.15138 0.52322 0.26179 0.0
Co201 Co 0.1089 0.51756 0.2617 0.0
O202 O 0.12827 0.54028 0.26616 0.0
C203 C 0.11679 0.49118 0.22954 0.0
C204 C 0.15753 0.47046 0.26657 0.0
C205 C 0.1453 0.5391 0.26379 0.0
O206 O 0.13264 0.48946 0.23837 0.0
O207 O 0.10494 0.5005 0.23696 0.0
O208 O 0.1477 0.50245 0.29471 0.0
O209 O 0.12085 0.50059 0.27716 0.0
Co210 Co 0.75737 0.89288 0.53128 0.0
O211 O 0.73032 0.88868 0.52801 0.0
O212 O 0.74773 0.91572 0.53914 0.0
C213 C 0.76144 0.87884 0.50176 0.0
O214 O 0.78529 0.90357 0.53557 0.0
Co215 Co 0.78129 0.86045 0.53106 0.0
O216 O 0.80295 0.88063 0.53132 0.0
C217 C 0.76163 0.86925 0.56583 0.0
C218 C 0.73116 0.90634 0.53408 0.0
C219 C 0.80126 0.89793 0.53441 0.0
O220 O 0.75677 0.88407 0.55866 0.0
O221 O 0.77034 0.85766 0.55663 0.0
O222 O 0.75817 0.89614 0.50338 0.0
O223 O 0.76089 0.87027 0.51756 0.0
Co224 Co 0.88712 0.01623 0.25513 0.0
O225 O 0.89109 0.04346 0.25846 0.0
O226 O 0.86496 0.02585 0.24539 0.0
C227 C 0.89902 0.01229 0.28556 0.0
O228 O 0.87689 0.98798 0.25055 0.0
Co229 Co 0.91947 0.99239 0.25879 0.0
O230 O 0.89913 0.97119 0.26034 0.0
C231 C 0.91307 0.01181 0.22293 0.0
C232 C 0.87391 0.04257 0.25124 0.0
C233 C 0.88224 0.9723 0.25469 0.0
O234 O 0.89783 0.01677 0.22867 0.0
O235 O 0.92389 0.00323 0.23339 0.0
O236 O 0.8819 0.01541 0.28257 0.0
O237 O 0.90859 0.01293 0.27055 0.0
Co238 Co 0.27751 0.62818 0.51988 0.0
O239 O 0.30344 0.62878 0.51548 0.0
O240 O 0.28527 0.60438 0.52527 0.0
C241 C 0.26915 0.64071 0.49217 0.0
O242 O 0.2501 0.62185 0.52496 0.0
Co243 Co 0.25989 0.66512 0.52411 0.0
O244 O 0.236 0.64754 0.52271 0.0
C245 C 0.28702 0.65643 0.55475 0.0
C246 C 0.30154 0.61148 0.52017 0.0
C247 C 0.2354 0.62994 0.52447 0.0
O248 O 0.28477 0.63905 0.54781 0.0
O249 O 0.28014 0.66931 0.54607 0.0
O250 O 0.27045 0.62286 0.49174 0.0
O251 O 0.27447 0.65039 0.50862 0.0
Co252 Co 0.38515 0.5125 0.75228 0.0
O253 O 0.38881 0.53978 0.75491 0.0
O254 O 0.3626 0.52157 0.74295 0.0
C255 C 0.39796 0.50929 0.78254 0.0
O256 O 0.37506 0.48424 0.74835 0.0
Co257 Co 0.41743 0.48867 0.75538 0.0
O258 O 0.39735 0.46745 0.75788 0.0
C259 C 0.41 0.50739 0.71927 0.0
C260 C 0.37144 0.53846 0.74809 0.0
C261 C 0.3804 0.46857 0.75255 0.0
O262 O 0.39507 0.51265 0.72547 0.0
O263 O 0.421 0.49876 0.72944 0.0
O264 O 0.38073 0.51218 0.77994 0.0
O265 O 0.4071 0.50962 0.76721 0.0
Co266 Co 0.6343 0.99379 0.77121 0.0
O267 O 0.63381 0.96772 0.77601 0.0
O268 O 0.6577 0.9858 0.7654 0.0
C269 C 0.62237 0.00244 0.79913 0.0
O270 O 0.64054 0.02134 0.7657 0.0
Co271 Co 0.59788 0.01192 0.76758 0.0
O272 O 0.61541 0.03593 0.76851 0.0
C273 C 0.60573 0.98445 0.73662 0.0
C274 C 0.65079 0.96951 0.77091 0.0
C275 C 0.63273 0.03631 0.76629 0.0
O276 O 0.62297 0.98624 0.74346 0.0
O277 O 0.59327 0.99172 0.74544 0.0
O278 O 0.64007 0.00124 0.79928 0.0
O279 O 0.61257 0.99701 0.78281 0.0
Co280 Co 0.76703 0.62683 0.99444 0.0
O281 O 0.79398 0.63018 -0.00079 0.0
O282 O 0.7749 0.60405 0.00308 0.0
C283 C 0.76674 0.64003 0.96552 0.0
O284 O 0.73905 0.61704 0.99041 0.0
Co285 Co 0.74398 0.65952 0.98999 0.0
O286 O 0.72235 0.63951 0.982 0.0
C287 C 0.75983 0.65231 0.02924 0.0
C288 C 0.79193 0.61282 0.00377 0.0
C289 C 0.72346 0.62243 0.98497 0.0
O290 O 0.76471 0.63678 0.02229 0.0
O291 O 0.75288 0.66377 0.01846 0.0
O292 O 0.76909 0.6225 0.96623 0.0
O293 O 0.76561 0.64906 0.98213 0.0
Co294 Co 0.88735 0.52725 0.78225 0.0
O295 O 0.88823 0.55254 0.77441 0.0
O296 O 0.86327 0.53044 0.77028 0.0
C297 C 0.90253 0.53566 0.81206 0.0
O298 O 0.88023 0.50016 0.7889 0.0
Co299 Co 0.92256 0.50897 0.79319 0.0
O300 O 0.90481 0.48829 0.80191 0.0
C301 C 0.91062 0.51248 0.75165 0.0
C302 C 0.87069 0.54768 0.76825 0.0
C303 C 0.88737 0.48701 0.79704 0.0
O304 O 0.89553 0.51851 0.75623 0.0
O305 O 0.92337 0.50918 0.76425 0.0
O306 O 0.8847 0.53624 0.8093 0.0
O307 O 0.91058 0.53114 0.79677 0.0
Co308 Co 0.7424 0.38464 0.5057 0.0
O309 O 0.71734 0.38467 0.51323 0.0
O310 O 0.74073 0.40826 0.52008 0.0
C311 C 0.7338 0.37265 0.47465 0.0
O312 O 0.7696 0.3908 0.50002 0.0
Co313 Co 0.75809 0.34883 0.49068 0.0
O314 O 0.77889 0.36688 0.48253 0.0
C315 C 0.75313 0.3562 0.53286 0.0
C316 C 0.72322 0.40169 0.52111 0.0
C317 C 0.7816 0.38389 0.48999 0.0
O318 O 0.74965 0.37298 0.5304 0.0
O319 O 0.75529 0.34434 0.51872 0.0
O320 O 0.73458 0.39064 0.47925 0.0
O321 O 0.73724 0.36268 0.48885 0.0
Co322 Co 0.64239 0.50539 0.28732 0.0
O323 O 0.6384 0.47822 0.28198 0.0
O324 O 0.66459 0.49705 0.27826 0.0
C325 C 0.62953 0.50519 0.31631 0.0
O326 O 0.65289 0.53344 0.29196 0.0
Co327 Co 0.6111 0.52976 0.29305 0.0
O328 O 0.63151 0.5509 0.30146 0.0
C329 C 0.61725 0.51443 0.25323 0.0
C330 C 0.65557 0.47999 0.27738 0.0
C331 C 0.64822 0.5493 0.29807 0.0
O332 O 0.63234 0.50857 0.25971 0.0
O333 O 0.60646 0.52178 0.2644 0.0
O334 O 0.64679 0.50252 0.31537 0.0
O335 O 0.62058 0.50711 0.29988 0.0
Zn336 Zn 0.03626 0.01068 0.03152 0.0
Zn337 Zn 0.99784 0.01589 0.00907 0.0
C338 C 0.02648 0.98011 0.05259 0.0
O339 O 0.03378 0.99381 0.06583 0.0
C340 C 0.01266 0.05831 0.01483 0.0
O341 O 0.00922 0.05929 0.03328 0.0
O342 O 0.06362 0.01036 0.03965 0.0
O343 O 0.03628 0.01683 0.00338 0.0
O344 O 0.01013 0.9997 0.99018 0.0
C345 C 0.06988 0.99884 0.02783 0.0
O346 O 0.05852 0.98996 0.01323 0.0
O347 O 0.02501 0.98364 0.03475 0.0
C348 C 0.9635 0.02617 0.0141 0.0
O349 O 0.97481 0.03486 0.0288 0.0
O350 O 0.97011 0.01566 0.00154 0.0
O351 O 0.99838 0.00964 0.03729 0.0
O352 O 0.02416 0.02752 0.05 0.0
O353 O 0.00931 0.04255 0.00463 0.0
C354 C 0.02701 0.00696 0.98882 0.0
C355 C 0.00721 0.02058 0.05133 0.0
Zn356 Zn 0.25557 0.75975 0.29097 0.0
Zn357 Zn 0.26738 0.77171 0.2532 0.0
C358 C 0.23429 0.7251 0.27678 0.0
O359 O 0.22189 0.73361 0.28538 0.0
C360 C 0.29031 0.80492 0.26653 0.0
O361 O 0.30096 0.79533 0.25643 0.0
O362 O 0.25105 0.75359 0.31835 0.0
O363 O 0.28307 0.76974 0.29205 0.0
O364 O 0.28679 0.75635 0.26324 0.0
C365 C 0.26201 0.74259 0.32442 0.0
O366 O 0.27462 0.73782 0.3131 0.0
O367 O 0.25073 0.73392 0.27636 0.0
C368 C 0.25937 0.78951 0.22094 0.0
O369 O 0.24819 0.79464 0.23377 0.0
O370 O 0.27047 0.77809 0.2256 0.0
O371 O 0.24011 0.76093 0.25225 0.0
O372 O 0.23626 0.77514 0.28048 0.0
O373 O 0.27352 0.79752 0.26811 0.0
C374 C 0.29327 0.76196 0.28071 0.0
C375 C 0.22983 0.76901 0.26316 0.0
Zn376 Zn 0.491 0.01413 0.53228 0.0
Zn377 Zn 0.52832 0.00213 0.5145 0.0
C378 C 0.5063 0.04482 0.55874 0.0
O379 O 0.49853 0.03281 0.57031 0.0
C380 C 0.51356 0.97194 0.48772 0.0
O381 O 0.52257 0.98397 0.47696 0.0
O382 O 0.46453 0.01887 0.5367 0.0
O383 O 0.4901 0.00819 0.50337 0.0
O384 O 0.51835 0.02035 0.49669 0.0
C385 C 0.4608 0.03318 0.52812 0.0
O386 O 0.4736 0.04194 0.51811 0.0
O387 O 0.50633 0.03955 0.54072 0.0
C388 C 0.55901 0.98329 0.51862 0.0
O389 O 0.54594 0.97333 0.52735 0.0
O390 O 0.55521 0.99803 0.5109 0.0
O391 O 0.5285 0.00816 0.54344 0.0
O392 O 0.50037 0.99498 0.54905 0.0
O393 O 0.51307 0.97672 0.50579 0.0
C394 C 0.50075 0.01706 0.49222 0.0
C395 C 0.51793 0.99794 0.55361 0.0
Zn396 Zn 0.28479 0.24988 0.76654 0.0
Zn397 Zn 0.24492 0.26089 0.77321 0.0
C398 C 0.2772 0.22443 0.73331 0.0
O399 O 0.28472 0.2146 0.74627 0.0
C400 C 0.25243 0.2863 0.80581 0.0
O401 O 0.24399 0.29518 0.7926 0.0
O402 O 0.312 0.24625 0.76563 0.0
O403 O 0.28441 0.27789 0.77195 0.0
O404 O 0.25729 0.28018 0.75633 0.0
C405 C 0.32541 0.25996 0.7671 0.0
O406 O 0.32208 0.27704 0.77206 0.0
O407 O 0.27464 0.24113 0.73863 0.0
C408 C 0.2088 0.24945 0.78387 0.0
O409 O 0.21818 0.2366 0.79046 0.0
O410 O 0.21722 0.26233 0.77456 0.0
O411 O 0.24604 0.23336 0.76578 0.0
O412 O 0.27168 0.23166 0.78414 0.0
O413 O 0.25543 0.26962 0.80109 0.0
C414 C 0.2739 0.28752 0.76262 0.0
C415 C 0.25552 0.22412 0.77671 0.0
Zn416 Zn 0.01992 0.9909 0.51862 0.0
Zn417 Zn 0.01035 0.02898 0.511 0.0
C418 C 0.04547 0.9997 0.55129 0.0
O419 O 0.05462 0.99105 0.53857 0.0
C420 C 0.98545 0.01917 0.47817 0.0
O421 O 0.9764 0.02883 0.49015 0.0
O422 O 0.02178 0.96357 0.52196 0.0
O423 O 0.99227 0.99117 0.51226 0.0
O424 O 0.99109 0.01819 0.52881 0.0
C425 C 0.01212 0.95798 0.53569 0.0
O426 O 0.0019 0.96951 0.54381 0.0
O427 O 0.029 0.00262 0.54605 0.0
C428 C 0.01976 0.06218 0.49417 0.0
O429 O 0.03015 0.05061 0.48642 0.0
O430 O 0.00906 0.05634 0.50699 0.0
O431 O 0.03776 0.02855 0.5182 0.0
O432 O 0.03861 0.00216 0.50048 0.0
O433 O 0.00185 0.01639 0.48384 0.0
C434 C 0.98318 0.0018 0.52204 0.0
C435 C 0.04661 0.01842 0.50755 0.0
Zn436 Zn 0.25518 0.7777 0.75453 0.0
Zn437 Zn 0.27315 0.74063 0.7721 0.0
C438 C 0.22313 0.75984 0.73108 0.0
O439 O 0.2338 0.76658 0.71787 0.0
C440 C 0.31236 0.76142 0.76905 0.0
O441 O 0.31039 0.75768 0.75001 0.0
O442 O 0.24942 0.8042 0.75056 0.0
O443 O 0.2644 0.77876 0.78284 0.0
O444 O 0.25664 0.75002 0.79185 0.0
C445 C 0.23488 0.80761 0.7586 0.0
O446 O 0.22597 0.79447 0.76819 0.0
O447 O 0.22985 0.76137 0.74882 0.0
C448 C 0.28833 0.70825 0.76213 0.0
O449 O 0.29442 0.72031 0.74983 0.0
O450 O 0.27773 0.71343 0.77476 0.0
O451 O 0.26277 0.74057 0.74408 0.0
O452 O 0.27265 0.76888 0.73562 0.0
O453 O 0.29882 0.75633 0.77914 0.0
C454 C 0.25751 0.76782 0.795 0.0
C455 C 0.27079 0.75107 0.73225 0.0
Zn456 Zn 0.51385 0.02197 0.99807 0.0
Zn457 Zn 0.50799 0.00373 0.03416 0.0
C458 C 0.54641 0.04684 0.01114 0.0
O459 O 0.53489 0.0583 0.00553 0.0
C460 C 0.47498 0.97956 0.01952 0.0
O461 O 0.48527 0.96742 0.02614 0.0
O462 O 0.51648 0.03165 0.97172 0.0
O463 O 0.50788 0.99368 0.99321 0.0
O464 O 0.52518 0.98917 0.01941 0.0
C465 C 0.51056 0.02168 0.9559 0.0
O466 O 0.49929 0.00574 0.95656 0.0
O467 O 0.54031 0.02928 0.01043 0.0
C468 C 0.51303 0.00332 0.07591 0.0
O469 O 0.52632 0.01753 0.07448 0.0
O470 O 0.50486 0.99415 0.06042 0.0
O471 O 0.51367 0.03193 0.03955 0.0
O472 O 0.49698 0.03657 0.013 0.0
O473 O 0.48189 0.99693 0.0208 0.0
C474 C 0.51824 0.98369 0.0021 0.0
C475 C 0.50314 0.04174 0.03062 0.0
Zn476 Zn 0.2617 0.23617 0.2538 0.0
Zn477 Zn 0.25782 0.27425 0.27554 0.0
C478 C 0.29446 0.24548 0.23608 0.0
O479 O 0.28189 0.23899 0.22151 0.0
C480 C 0.22619 0.26677 0.29513 0.0
O481 O 0.23944 0.27481 0.30847 0.0
O482 O 0.26197 0.20882 0.24462 0.0
O483 O 0.25373 0.23532 0.28132 0.0
O484 O 0.27267 0.26047 0.29444 0.0
C485 C 0.27212 0.20153 0.25695 0.0
O486 O 0.27953 0.21187 0.27291 0.0
O487 O 0.28922 0.24684 0.25329 0.0
C488 C 0.24902 0.30919 0.27154 0.0
O489 O 0.24047 0.2984 0.25636 0.0
O490 O 0.25885 0.30194 0.28419 0.0
O491 O 0.26514 0.27485 0.24776 0.0
O492 O 0.24678 0.24952 0.23445 0.0
O493 O 0.23037 0.26407 0.27762 0.0
C494 C 0.26415 0.24393 0.29585 0.0
C495 C 0.25452 0.26639 0.23332 0.0
Zn496 Zn 0.51895 0.48825 0.01896 0.0
Zn497 Zn 0.50713 0.5269 0.00851 0.0
C498 C 0.54422 0.4953 0.05155 0.0
O499 O 0.55301 0.48681 0.03837 0.0
C500 C 0.48276 0.51478 0.97573 0.0
O501 O 0.47281 0.52357 0.9875 0.0
O502 O 0.5221 0.46089 0.02092 0.0
O503 O 0.49108 0.48807 0.01296 0.0
O504 O 0.48798 0.51607 0.02623 0.0
C505 C 0.50952 0.45109 0.02933 0.0
O506 O 0.49484 0.45851 0.03408 0.0
O507 O 0.528 0.49907 0.04659 0.0
C508 C 0.51541 0.56012 0.99099 0.0
O509 O 0.52634 0.54901 0.98343 0.0
O510 O 0.50483 0.55394 0.00376 0.0
O511 O 0.53452 0.52765 0.01665 0.0
O512 O 0.5373 0.50059 0.00119 0.0
O513 O 0.49951 0.51341 0.98161 0.0
C514 C 0.48118 0.49889 0.02135 0.0
C515 C 0.54421 0.51752 0.00707 0.0
Zn516 Zn 0.75971 0.2821 0.25618 0.0
Zn517 Zn 0.77366 0.2436 0.27131 0.0
C518 C 0.72649 0.26796 0.2339 0.0
O519 O 0.73732 0.27563 0.22127 0.0
C520 C 0.81351 0.25587 0.26671 0.0
O521 O 0.81083 0.24389 0.25108 0.0
O522 O 0.75516 0.30905 0.2528 0.0
O523 O 0.77049 0.28248 0.28386 0.0
O524 O 0.75885 0.25447 0.29215 0.0
C525 C 0.74302 0.31372 0.2639 0.0
O526 O 0.73632 0.30162 0.27595 0.0
O527 O 0.73335 0.2676 0.2514 0.0
C528 C 0.78142 0.20656 0.25986 0.0
O529 O 0.78018 0.21378 0.24299 0.0
O530 O 0.77815 0.21635 0.27507 0.0
O531 O 0.76264 0.24395 0.24343 0.0
O532 O 0.77532 0.27193 0.23605 0.0
O533 O 0.79965 0.25867 0.27616 0.0
C534 C 0.76278 0.27226 0.29613 0.0
C535 C 0.77093 0.2543 0.23158 0.0
Zn536 Zn 0.01276 0.51788 0.49494 0.0
Zn537 Zn 1.0007 0.50376 0.53259 0.0
C538 C 0.04588 0.54123 0.50866 0.0
O539 O 0.03596 0.55265 0.50004 0.0
C540 C 0.96734 0.48018 0.52258 0.0
O541 O 0.97688 0.47097 0.53454 0.0
O542 O 0.01865 0.5226 0.46755 0.0
O543 O 0.00312 0.49015 0.49357 0.0
O544 O 0.01673 0.48529 0.52188 0.0
C545 C 0.02996 0.51189 0.46175 0.0
O546 O 0.03514 0.49953 0.47333 0.0
O547 O 0.03848 0.52419 0.5096 0.0
C548 C 0.98326 0.51053 0.56524 0.0
O549 O 0.97673 0.5209 0.5522 0.0
O550 O 0.99552 0.50044 0.56056 0.0
O551 O 0.00973 0.53166 0.53364 0.0
O552 O 0.99641 0.53609 0.50514 0.0
O553 O 0.97496 0.49618 0.51803 0.0
C554 C 0.01114 0.47951 0.50422 0.0
C555 C 1.00125 0.54187 0.5229 0.0
Zn556 Zn 0.78555 0.75017 0.26177 0.0
Zn557 Zn 0.74663 0.76506 0.2779 0.0
C558 C 0.77658 0.72164 0.2313 0.0
O559 O 0.78495 0.71323 0.24497 0.0
C560 C 0.76208 0.78881 0.31141 0.0
O561 O 0.75793 0.80114 0.29927 0.0
O562 O 0.81271 0.7471 0.25996 0.0
O563 O 0.78614 0.77851 0.26385 0.0
O564 O 0.75732 0.78525 0.26119 0.0
C565 C 0.81921 0.75523 0.24557 0.0
O566 O 0.80833 0.76457 0.23518 0.0
O567 O 0.77382 0.73854 0.2352 0.0
C568 C 0.71165 0.7539 0.29119 0.0
O569 O 0.72137 0.74105 0.29714 0.0
O570 O 0.7195 0.76689 0.28164 0.0
O571 O 0.74648 0.73786 0.26808 0.0
O572 O 0.77375 0.73397 0.28182 0.0
O573 O 0.75924 0.77137 0.30544 0.0
C574 C 0.77483 0.79013 0.26075 0.0
C575 C 0.75655 0.72774 0.27721 0.0
Zn576 Zn 0.75354 0.2574 0.78807 0.0
Zn577 Zn 0.77014 0.26717 0.75112 0.0
C578 C 0.72823 0.22503 0.7749 0.0
O579 O 0.71732 0.2365 0.78181 0.0
C580 C 0.7937 0.29987 0.76733 0.0
O581 O 0.80554 0.29003 0.75946 0.0
O582 O 0.74547 0.25407 0.81492 0.0
O583 O 0.78174 0.26305 0.79158 0.0
O584 O 0.78671 0.25 0.76304 0.0
C585 C 0.75576 0.26052 0.83037 0.0
O586 O 0.77111 0.27237 0.82903 0.0
O587 O 0.74561 0.23106 0.77497 0.0
C588 C 0.76725 0.26618 0.70911 0.0
O589 O 0.75302 0.2529 0.71038 0.0
O590 O 0.77755 0.27288 0.72449 0.0
O591 O 0.7422 0.25946 0.74751 0.0
O592 O 0.73811 0.27502 0.77492 0.0
O593 O 0.77652 0.29277 0.76624 0.0
C594 C 0.79217 0.25483 0.78091 0.0
C595 C 0.73229 0.26905 0.7574 0.0
Zn596 Zn 0.76291 0.7358 0.7497 0.0
Zn597 Zn 0.75319 0.77281 0.77415 0.0
C598 C 0.79388 0.74913 0.7304 0.0
O599 O 0.78102 0.74253 0.71613 0.0
C600 C 0.72188 0.76259 0.79299 0.0
O601 O 0.73495 0.77039 0.80661 0.0
O602 O 0.76544 0.70931 0.73901 0.0
O603 O 0.75732 0.73226 0.77758 0.0
O604 O 0.76838 0.75989 0.79348 0.0
C605 C 0.77942 0.70419 0.74835 0.0
O606 O 0.78843 0.71553 0.76293 0.0
O607 O 0.78931 0.74937 0.74789 0.0
C608 C 0.7428 0.80747 0.76995 0.0
O609 O 0.73534 0.7968 0.75422 0.0
O610 O 0.75241 0.80028 0.78286 0.0
O611 O 0.76155 0.77419 0.74683 0.0
O612 O 0.74529 0.74821 0.73218 0.0
O613 O 0.72614 0.76097 0.7754 0.0
C614 C 0.76422 0.74205 0.79326 0.0
C615 C 0.75166 0.76561 0.73196 0.0
Zn616 Zn 0.53724 0.50912 0.53304 0.0
Zn617 Zn 0.50055 0.51688 0.50756 0.0
C618 C 0.52476 0.47956 0.55493 0.0
O619 O 0.53129 0.49344 0.56826 0.0
C620 C 0.51378 0.54688 0.48707 0.0
O621 O 0.50633 0.53355 0.47351 0.0
O622 O 0.56401 0.50859 0.5435 0.0
O623 O 0.53972 0.51293 0.50446 0.0
O624 O 0.51253 0.49985 0.48931 0.0
C625 C 0.57049 0.49601 0.53322 0.0
O626 O 0.55952 0.48606 0.51894 0.0
O627 O 0.52484 0.4827 0.53699 0.0
C628 C 0.46834 0.53134 0.51069 0.0
O629 O 0.48083 0.54098 0.52387 0.0
O630 O 0.47342 0.51854 0.4994 0.0
O631 O 0.49901 0.51011 0.5353 0.0
O632 O 0.52451 0.52736 0.54937 0.0
O633 O 0.51373 0.54336 0.50492 0.0
C634 C 0.53014 0.50454 0.48926 0.0
C635 C 0.50723 0.5211 0.54959 0.0
Zn636 Zn 0.98871 0.50994 0.03194 0.0
Zn637 Zn 0.02892 0.50156 0.01856 0.0
C638 C 0.99901 0.54238 0.05729 0.0
O639 O 0.98896 0.53094 0.06781 0.0
C640 C 0.01924 0.47062 0.99195 0.0
O641 O 0.0288 0.48331 0.98232 0.0
O642 O 0.96133 0.51303 0.0336 0.0
O643 O 0.9909 0.50276 0.00371 0.0
O644 O 0.01851 0.51822 -0.00081 0.0
C645 C 0.95726 0.52634 0.0236 0.0
O646 O 0.97028 0.53511 0.01387 0.0
O647 O 0.00221 0.53626 0.04027 0.0
C648 C 0.06271 0.48962 0.03028 0.0
O649 O 0.05107 0.48243 0.04242 0.0
O650 O 0.05674 0.49972 0.01742 0.0
O651 O 0.02571 0.50865 0.04684 0.0
O652 O 0.99829 0.49237 0.05052 0.0
O653 O 0.01652 0.47503 0.00962 0.0
C654 C 1.00127 0.51315 0.9935 0.0
C655 C 0.01536 0.49773 0.05659 0.0
H656 H 0.01301 0.19397 0.89974 0.0
H657 H 0.01735 0.16402 0.91339 0.0
H658 H 0.01866 0.19073 0.97166 0.0
H659 H 0.0143 0.22032 0.9584 0.0
H660 H 0.04642 0.15511 0.9451 0.0
H661 H 0.97306 0.14617 0.96472 0.0
H662 H 0.98129 0.16145 0.94651 0.0
H663 H 0.98634 0.16903 0.97204 0.0
C664 C 0.01448 0.19348 0.91545 0.0
C665 C 0.01297 0.20944 0.92797 0.0
C666 C 0.01696 0.1764 0.92321 0.0
C667 C 0.01803 0.17518 0.94351 0.0
C668 C 0.0176 0.19135 0.95595 0.0
H669 H 0.01442 0.09499 0.02967 0.0
H670 H 0.01793 0.12314 0.01157 0.0
C671 C 0.01505 0.20825 0.9483 0.0
C672 C 0.01833 0.15695 0.95208 0.0
H673 H 0.99288 0.12665 0.97934 0.0
C674 C 0.03467 0.14868 0.95238 0.0
C675 C 0.00296 0.1487 0.96157 0.0
C676 C 0.98484 0.15666 0.9611 0.0
C677 C 0.03628 0.1327 0.96266 0.0
C678 C 0.02109 0.12484 0.97268 0.0
C679 C 0.00459 0.13285 0.97186 0.0
C680 C 0.02174 0.10823 0.98409 0.0
C681 C 0.05439 0.12476 0.9633 0.0
C682 C 0.02308 0.09058 0.97471 0.0
C683 C 0.02109 0.07447 0.98501 0.0
C684 C 0.01759 0.0757 0.00486 0.0
C685 C 0.0171 0.09353 0.01442 0.0
C686 C 0.01907 0.10963 0.00409 0.0
H687 H 0.06602 0.13488 0.95876 0.0
H688 H 0.05831 0.12092 0.97821 0.0
H689 H 0.05265 0.11178 0.95318 0.0
H690 H 0.02483 0.08912 0.95923 0.0
H691 H 0.02159 0.06096 0.97718 0.0
H692 H 0.09786 0.78887 0.14285 0.0
H693 H 0.1248 0.78871 0.16628 0.0
H694 H 0.08841 0.7823 0.21275 0.0
H695 H 0.06128 0.78199 0.18935 0.0
H696 H 0.13905 0.81102 0.19982 0.0
H697 H 0.11586 0.7372 0.21652 0.0
H698 H 0.10506 0.74756 0.19638 0.0
H699 H 0.09949 0.75314 0.2209 0.0
C700 C 0.09554 0.78756 0.15807 0.0
C701 C 0.07734 0.78522 0.16415 0.0
C702 C 0.11099 0.78749 0.17146 0.0
C703 C 0.10859 0.78514 0.1912 0.0
C704 C 0.09055 0.78368 0.1975 0.0
H705 H 0.20618 0.79194 0.27815 0.0
H706 H 0.17566 0.79687 0.26301 0.0
C707 C 0.07506 0.7836 0.1841 0.0
C708 C 0.12498 0.78355 0.2049 0.0
H709 H 0.14407 0.75284 0.23303 0.0
C710 C 0.14008 0.7984 0.20728 0.0
C711 C 0.12634 0.76697 0.21446 0.0
C712 C 0.11092 0.75022 0.21186 0.0
C713 C 0.15663 0.79695 0.21863 0.0
C714 C 0.15801 0.78032 0.228 0.0
C715 C 0.14281 0.76565 0.226 0.0
C716 C 0.17588 0.77698 0.23794 0.0
C717 C 0.17289 0.81279 0.21982 0.0
C718 C 0.18581 0.76394 0.22902 0.0
C719 C 0.20312 0.76116 0.23751 0.0
C720 C 0.21083 0.77126 0.25524 0.0
C721 C 0.2006 0.78395 0.26451 0.0
C722 C 0.18324 0.78684 0.25586 0.0
H723 H 0.17016 0.82399 0.21019 0.0
H724 H 0.17575 0.81921 0.23509 0.0
H725 H 0.18565 0.80723 0.21565 0.0
H726 H 0.18033 0.75617 0.21522 0.0
H727 H 0.21057 0.7512 0.23003 0.0
H728 H 0.49634 0.7941 0.43886 0.0
H729 H 0.49134 0.82462 0.45367 0.0
H730 H 0.50237 0.84965 0.39992 0.0
H731 H 0.50718 0.819 0.38486 0.0
H732 H 0.51853 0.85605 0.4584 0.0
H733 H 0.45552 0.87082 0.41518 0.0
H734 H 0.46196 0.8475 0.4153 0.0
H735 H 0.47347 0.86449 0.40058 0.0
C736 C 0.49746 0.80603 0.43008 0.0
C737 C 0.50223 0.8042 0.41071 0.0
C738 C 0.49456 0.82345 0.43857 0.0
C739 C 0.49627 0.83933 0.42784 0.0
C740 C 0.5006 0.83747 0.40833 0.0
H741 H 0.51161 0.95843 0.44957 0.0
H742 H 0.50454 0.9256 0.43621 0.0
C743 C 0.50348 0.82 0.39979 0.0
C744 C 0.49537 0.85813 0.43765 0.0
H745 H 0.47343 0.89684 0.43515 0.0
C746 C 0.5085 0.86488 0.45352 0.0
C747 C 0.48229 0.86957 0.43119 0.0
C748 C 0.46739 0.86269 0.41474 0.0
C749 C 0.50944 0.88311 0.46261 0.0
C750 C 0.49661 0.89474 0.45589 0.0
C751 C 0.48317 0.88783 0.44032 0.0
C752 C 0.49814 0.91465 0.46373 0.0
C753 C 0.5247 0.89005 0.47873 0.0
C754 C 0.4962 0.91943 0.48352 0.0
C755 C 0.50035 0.93824 0.49128 0.0
C756 C 0.50642 0.95251 0.4793 0.0
C757 C 0.50717 0.94775 0.45924 0.0
C758 C 0.50305 0.929 0.45154 0.0
H759 H 0.53563 0.88075 0.47943 0.0
H760 H 0.53148 0.90456 0.47667 0.0
H761 H 0.51855 0.89042 0.49298 0.0
H762 H 0.4921 0.90854 0.49309 0.0
H763 H 0.49952 0.94148 0.50676 0.0
H764 H 0.45299 0.25564 0.64953 0.0
H765 H 0.42534 0.25183 0.66792 0.0
H766 H 0.4607 0.25623 0.72177 0.0
H767 H 0.4884 0.2595 0.70344 0.0
H768 H 0.4296 0.2297 0.722 0.0
H769 H 0.40968 0.29651 0.69796 0.0
H770 H 0.41136 0.27942 0.67812 0.0
H771 H 0.43194 0.28939 0.69376 0.0
C772 C 0.45488 0.25557 0.66527 0.0
C773 C 0.47289 0.25806 0.67505 0.0
C774 C 0.43906 0.25351 0.67578 0.0
C775 C 0.44096 0.25422 0.69627 0.0
C776 C 0.4589 0.25576 0.70598 0.0
H777 H 0.35749 0.28548 0.77041 0.0
H778 H 0.38615 0.28286 0.7547 0.0
C779 C 0.47472 0.25764 0.69547 0.0
C780 C 0.42437 0.25425 0.70765 0.0
H781 H 0.38826 0.27845 0.71601 0.0
C782 C 0.42056 0.24036 0.72072 0.0
C783 C 0.41275 0.26836 0.70623 0.0
C784 C 0.4167 0.28438 0.69342 0.0
C785 C 0.40533 0.24008 0.73223 0.0
C786 C 0.39342 0.25387 0.73036 0.0
C787 C 0.39733 0.26782 0.71739 0.0
C788 C 0.37688 0.25438 0.74175 0.0
C789 C 0.40242 0.22529 0.74658 0.0
C790 C 0.36222 0.23911 0.74003 0.0
C791 C 0.34584 0.2405 0.74919 0.0
C792 C 0.34371 0.2573 0.76001 0.0
C793 C 0.35865 0.27234 0.7622 0.0
C794 C 0.37504 0.27088 0.75318 0.0
H795 H 0.41545 0.21941 0.75024 0.0
H796 H 0.39753 0.23114 0.7603 0.0
H797 H 0.39164 0.21351 0.74001 0.0
H798 H 0.36311 0.22638 0.73097 0.0
H799 H 0.33454 0.22872 0.74702 0.0
H800 H 1.00062 0.82224 0.64346 0.0
H801 H 0.00537 0.85143 0.62691 0.0
H802 H 0.02864 0.82228 0.57993 0.0
H803 H 0.02336 0.79308 0.59597 0.0
H804 H 0.03556 0.87314 0.61384 0.0
H805 H 0.98548 0.84123 0.55119 0.0
H806 H 0.9881 0.83001 0.57357 0.0
H807 H 0.00467 0.82854 0.5556 0.0
C808 C 0.00696 0.82217 0.62973 0.0
C809 C 0.01137 0.80538 0.62085 0.0
C810 C 0.00964 0.83881 0.62027 0.0
C811 C 0.01689 0.83886 0.60193 0.0
C812 C 0.0225 0.8224 0.59377 0.0
H813 H 0.03176 0.93002 0.52325 0.0
H814 H 0.03484 0.90074 0.53876 0.0
C815 C 0.01958 0.80576 0.60303 0.0
C816 C 0.01779 0.85586 0.59092 0.0
H817 H 1.00133 0.87193 0.54848 0.0
C818 C 0.02814 0.87286 0.59953 0.0
C819 C 0.00802 0.85546 0.57224 0.0
C820 C 0.99579 0.83789 0.56266 0.0
C821 C 0.02891 0.88949 0.58999 0.0
C822 C 0.01906 0.88906 0.57144 0.0
C823 C 0.00903 0.87205 0.56262 0.0
C824 C 0.01741 0.90651 0.56189 0.0
C825 C 0.04001 0.90751 0.59987 0.0
C826 C 0.00628 0.91905 0.56958 0.0
C827 C 0.00432 0.93551 0.56072 0.0
C828 C 0.01353 0.93982 0.54399 0.0
C829 C 0.02451 0.92708 0.53611 0.0
C830 C 0.02633 0.91043 0.54496 0.0
H831 H 0.04982 0.9048 0.61214 0.0
H832 H 0.04807 0.91543 0.58923 0.0
H833 H 0.03027 0.91658 0.60578 0.0
H834 H 0.99908 0.91607 0.58248 0.0
H835 H 0.99574 0.94498 0.5672 0.0
H836 H 0.44936 0.78705 0.89684 0.0
H837 H 0.42206 0.78691 0.87386 0.0
H838 H 0.45441 0.77496 0.82576 0.0
H839 H 0.48176 0.77461 0.8487 0.0
H840 H 0.41583 0.80842 0.84359 0.0
H841 H 0.41019 0.73302 0.81617 0.0
H842 H 0.42525 0.74313 0.83752 0.0
H843 H 0.4323 0.74699 0.81349 0.0
C844 C 0.45073 0.78439 0.88138 0.0
C845 C 0.46776 0.78066 0.87466 0.0
C846 C 0.43508 0.78435 0.86825 0.0
C847 C 0.43609 0.78062 0.84812 0.0
C848 C 0.45318 0.77743 0.84127 0.0
H849 H 0.3462 0.76522 0.75351 0.0
H850 H 0.37723 0.77242 0.77135 0.0
C851 C 0.46883 0.77733 0.85442 0.0
C852 C 0.41913 0.7799 0.83445 0.0
H853 H 0.38874 0.75051 0.80147 0.0
C854 C 0.40995 0.79578 0.83432 0.0
C855 C 0.41147 0.7634 0.82234 0.0
C856 C 0.42018 0.7456 0.82245 0.0
C857 C 0.39322 0.79554 0.82257 0.0
C858 C 0.38543 0.77895 0.81076 0.0
C859 C 0.39484 0.76325 0.81048 0.0
C860 C 0.36686 0.77702 0.79964 0.0
C861 C 0.384 0.81302 0.82292 0.0
C862 C 0.35077 0.77747 0.80962 0.0
C863 C 0.33305 0.77331 0.79951 0.0
C864 C 0.33106 0.76856 0.7792 0.0
C865 C 0.34723 0.76889 0.76912 0.0
C866 C 0.36497 0.77295 0.77929 0.0
H867 H 0.39406 0.82585 0.82829 0.0
H868 H 0.37769 0.81499 0.80815 0.0
H869 H 0.37267 0.81154 0.8329 0.0
H870 H 0.3519 0.78027 0.82536 0.0
H871 H 0.32089 0.77317 0.80773 0.0
H872 H 0.47913 0.20991 0.08143 0.0
H873 H 0.47494 0.17683 0.06885 0.0
H874 H 0.49605 0.16198 0.12496 0.0
H875 H 0.49967 0.19516 0.13782 0.0
H876 H 0.50507 0.15955 0.06636 0.0
H877 H 0.45442 0.1182 0.10914 0.0
H878 H 0.45649 0.14352 0.10901 0.0
H879 H 0.47306 0.13318 0.12385 0.0
C880 C 0.4823 0.19949 0.09126 0.0
C881 C 0.48978 0.20504 0.11056 0.0
C882 C 0.47993 0.18061 0.08405 0.0
C883 C 0.48519 0.16691 0.09592 0.0
C884 C 0.49157 0.17223 0.11561 0.0
H885 H 0.51263 0.05539 0.06866 0.0
H886 H 0.50706 0.0853 0.0846 0.0
C887 C 0.49367 0.19119 0.12296 0.0
C888 C 0.4865 0.14786 0.08683 0.0
H889 H 0.4723 0.10068 0.08894 0.0
C890 C 0.49774 0.1467 0.0712 0.0
C891 C 0.47712 0.1311 0.0933 0.0
C892 C 0.46446 0.1315 0.10964 0.0
C893 C 0.49997 0.12929 0.06193 0.0
C894 C 0.49054 0.11255 0.06831 0.0
C895 C 0.47941 0.1136 0.08404 0.0
C896 C 0.49252 0.09384 0.05899 0.0
C897 C 0.51273 0.12893 0.04564 0.0
C898 C 0.4859 0.08865 0.03938 0.0
C899 C 0.4891 0.07159 0.03017 0.0
C900 C 0.49897 0.05944 0.04046 0.0
C901 C 0.50511 0.06449 0.06027 0.0
C902 C 0.50186 0.08152 0.06946 0.0
H903 H 0.52198 0.14263 0.04534 0.0
H904 H 0.52158 0.11767 0.04713 0.0
H905 H 0.50417 0.12588 0.03142 0.0
H906 H 0.47848 0.09793 0.03113 0.0
H907 H 0.48409 0.06807 0.01495 0.0
H908 H 0.08771 0.26631 0.39192 0.0
H909 H 0.11525 0.2624 0.37457 0.0
H910 H 0.08024 0.24752 0.32065 0.0
H911 H 0.05262 0.25159 0.33786 0.0
H912 H 0.12398 0.23076 0.35167 0.0
H913 H 0.11863 0.29203 0.3078 0.0
H914 H 0.10583 0.28822 0.32898 0.0
H915 H 0.09822 0.27436 0.30628 0.0
C916 C 0.08584 0.26209 0.3764 0.0
C917 C 0.06798 0.25938 0.36625 0.0
C918 C 0.10159 0.25985 0.3665 0.0
C919 C 0.09983 0.25496 0.34627 0.0
C920 C 0.08196 0.25164 0.3362 0.0
H921 H 0.19347 0.25579 0.27137 0.0
H922 H 0.16157 0.24993 0.28172 0.0
C923 C 0.06618 0.25387 0.34609 0.0
C924 C 0.1168 0.25374 0.33579 0.0
H925 H 0.14386 0.2756 0.30313 0.0
C926 C 0.12825 0.24045 0.34093 0.0
C927 C 0.12227 0.26629 0.32165 0.0
C928 C 0.11072 0.28115 0.31588 0.0
C929 C 0.14525 0.23968 0.33268 0.0
C930 C 0.15113 0.25278 0.3192 0.0
C931 C 0.13931 0.26554 0.31343 0.0
C932 C 0.17029 0.25487 0.31265 0.0
C933 C 0.15685 0.22495 0.33865 0.0
C934 C 0.1857 0.25965 0.32655 0.0
C935 C 0.20377 0.263 0.32073 0.0
C936 C 0.20692 0.26179 0.30081 0.0
C937 C 0.19151 0.25674 0.28682 0.0
C938 C 0.1733 0.25343 0.2927 0.0
H939 H 0.14801 0.21246 0.34342 0.0
H940 H 0.16475 0.22023 0.3265 0.0
H941 H 0.16701 0.23102 0.35116 0.0
H942 H 0.18373 0.26129 0.34198 0.0
H943 H 0.21528 0.26687 0.33192 0.0
H944 H 0.9324 0.991 0.20012 0.0
H945 H 0.94714 0.9996 0.17087 0.0
H946 H 0.92289 0.05086 0.17221 0.0
H947 H 0.90771 0.04214 0.20184 0.0
H948 H 0.92278 0.0319 0.13371 0.0
H949 H 0.99274 0.04156 0.17387 0.0
H950 H 0.97943 0.0192 0.1774 0.0
H951 H 0.97152 0.04063 0.1861 0.0
C952 C 0.93001 0.00405 0.19416 0.0
C953 C 0.9191 0.01604 0.20345 0.0
C954 C 0.93854 0.00899 0.17747 0.0
C955 C 0.93659 0.02613 0.16972 0.0
C956 C 0.92477 0.03768 0.17816 0.0
H957 H 0.01699 0.04882 0.0812 0.0
H958 H 0.99949 0.05493 0.10961 0.0
C959 C 0.91604 0.03265 0.19497 0.0
C960 C 0.94742 0.0317 0.15309 0.0
H961 H 0.9917 0.0347 0.13888 0.0
C962 C 0.93788 0.03294 0.13487 0.0
C963 C 0.96717 0.03359 0.15468 0.0
C964 C 0.97833 0.03389 0.17413 0.0
C965 C 0.94749 0.03443 0.11794 0.0
C966 C 0.96704 0.03415 0.11924 0.0
C967 C 0.9767 0.03456 0.13773 0.0
C968 C 0.97734 0.03136 0.10165 0.0
C969 C 0.93648 0.03587 0.09877 0.0
C970 C 0.97102 0.01587 0.08802 0.0
C971 C 0.98088 0.01244 0.07189 0.0
C972 C 0.99757 0.0242 0.06911 0.0
C973 C 0.00422 0.03949 0.08297 0.0
C974 C 0.99417 0.04304 0.09912 0.0
H975 H 0.92435 0.04331 0.10108 0.0
H976 H 0.94525 0.04344 0.08844 0.0
H977 H 0.9309 0.02148 0.092 0.0
H978 H 0.95855 0.00617 0.08999 0.0
H979 H 0.97544 0.00039 0.06163 0.0
H980 H 0.26796 0.6284 0.4535 0.0
H981 H 0.26167 0.64655 0.42554 0.0
H982 H 0.24848 0.69139 0.46463 0.0
H983 H 0.25524 0.6737 0.49249 0.0
H984 H 0.2313 0.66417 0.41083 0.0
H985 H 0.29379 0.71614 0.43889 0.0
H986 H 0.2886 0.69343 0.44838 0.0
H987 H 0.27623 0.71229 0.45575 0.0
C988 C 0.26341 0.64198 0.45604 0.0
C989 C 0.26242 0.64982 0.47513 0.0
C990 C 0.2598 0.65231 0.44011 0.0
C991 C 0.25501 0.67046 0.44313 0.0
C992 C 0.25257 0.67759 0.46207 0.0
H993 H 0.23298 0.74204 0.34787 0.0
H994 H 0.22934 0.72543 0.37762 0.0
C995 C 0.25642 0.66744 0.47795 0.0
C996 C 0.25434 0.68264 0.42682 0.0
H997 H 0.2768 0.72277 0.41044 0.0
C998 C 0.24113 0.67706 0.41076 0.0
C999 C 0.26733 0.69936 0.4268 0.0
C1000 C 0.2824 0.70563 0.44328 0.0
C1001 C 0.24072 0.6877 0.39447 0.0
C1002 C 0.25376 0.70435 0.39447 0.0
C1003 C 0.26671 0.71008 0.41068 0.0
C1004 C 0.2557 0.71485 0.37695 0.0
C1005 C 0.22693 0.68072 0.37707 0.0
C1006 C 0.2719 0.71472 0.36717 0.0
C1007 C 0.27404 0.72416 0.35038 0.0
C1008 C 0.26005 0.73402 0.34309 0.0
C1009 C 0.24399 0.73458 0.35319 0.0
C1010 C 0.24182 0.72499 0.37004 0.0
H1011 H 0.21943 0.66632 0.37841 0.0
H1012 H 0.21645 0.69043 0.37568 0.0
H1013 H 0.23417 0.68058 0.36345 0.0
H1014 H 0.2828 0.70705 0.37239 0.0
H1015 H 0.28661 0.72354 0.343 0.0
H1016 H 0.57372 0.96072 0.72539 0.0
H1017 H 0.55892 0.95394 0.69212 0.0
H1018 H 0.6085 0.98239 0.66999 0.0
H1019 H 0.62356 0.98881 0.70338 0.0
H1020 H 0.55317 0.98519 0.67363 0.0
H1021 H 0.59044 0.93957 0.62715 0.0
H1022 H 0.59261 0.94031 0.65352 0.0
H1023 H 0.60552 0.95858 0.64133 0.0
C1024 C 0.58175 0.9648 0.71334 0.0
C1025 C 0.59971 0.97535 0.71687 0.0
C1026 C 0.57327 0.96094 0.69435 0.0
C1027 C 0.58256 0.9677 0.67858 0.0
C1028 C 0.60118 0.97676 0.6819 0.0
H1029 H 0.55472 0.00285 0.56675 0.0
H1030 H 0.56884 0.99269 0.59651 0.0
C1031 C 0.60979 0.98044 0.70098 0.0
C1032 C 0.57165 0.96862 0.65971 0.0
H1033 H 0.57013 0.95786 0.6105 0.0
C1034 C 0.55665 0.97892 0.65985 0.0
C1035 C 0.57638 0.96061 0.64178 0.0
C1036 C 0.59202 0.949 0.64088 0.0
C1037 C 0.5467 0.98209 0.64249 0.0
C1038 C 0.5516 0.97436 0.62449 0.0
C1039 C 0.56632 0.96364 0.62435 0.0
C1040 C 0.54282 0.97885 0.60564 0.0
C1041 C 0.5317 0.99453 0.64356 0.0
C1042 C 0.52347 0.97415 0.60068 0.0
C1043 C 0.51523 0.98017 0.58368 0.0
C1044 C 0.52627 0.99085 0.57133 0.0
C1045 C 0.54573 0.99486 0.57603 0.0
C1046 C 0.55389 0.98893 0.59299 0.0
H1047 H 0.53248 0.0026 0.65806 0.0
H1048 H 0.53281 0.00469 0.63217 0.0
H1049 H 0.51777 0.98564 0.64104 0.0
H1050 H 0.51472 0.96607 0.61011 0.0
H1051 H 0.50025 0.97666 0.58034 0.0
H1052 H 0.26773 0.34324 0.98946 0.0
H1053 H 0.27096 0.32803 0.95735 0.0
H1054 H 0.25761 0.37723 0.93043 0.0
H1055 H 0.2547 0.39277 0.96273 0.0
H1056 H 0.24357 0.3192 0.92763 0.0
H1057 H 0.30323 0.36642 0.90333 0.0
H1058 H 0.29758 0.3671 0.92842 0.0
H1059 H 0.28466 0.37852 0.91075 0.0
C1060 C 0.2657 0.35096 0.97675 0.0
C1061 C 0.26096 0.36923 0.97863 0.0
C1062 C 0.26756 0.34222 0.95839 0.0
C1063 C 0.26474 0.35153 0.94149 0.0
C1064 C 0.26025 0.36991 0.9433 0.0
H1065 H 0.24989 0.32247 0.81831 0.0
H1066 H 0.25467 0.33727 0.85159 0.0
C1067 C 0.25848 0.37874 0.96174 0.0
C1068 C 0.26524 0.34145 0.92197 0.0
H1069 H 0.28575 0.34397 0.87905 0.0
C1070 C 0.25293 0.32451 0.91708 0.0
C1071 C 0.27749 0.34837 0.90824 0.0
C1072 C 0.29162 0.36601 0.91298 0.0
C1073 C 0.25207 0.31464 0.8986 0.0
C1074 C 0.26407 0.32174 0.88473 0.0
C1075 C 0.27662 0.33851 0.88973 0.0
C1076 C 0.26271 0.3128 0.86445 0.0
C1077 C 0.23779 0.2971 0.89382 0.0
C1078 C 0.26608 0.2942 0.86052 0.0
C1079 C 0.26328 0.28559 0.84137 0.0
C1080 C 0.25712 0.29549 0.8259 0.0
C1081 C 0.25449 0.31435 0.82987 0.0
C1082 C 0.25728 0.32289 0.84891 0.0
H1083 H 0.22713 0.29573 0.90458 0.0
H1084 H 0.23055 0.29712 0.87903 0.0
H1085 H 0.24496 0.2845 0.89395 0.0
H1086 H 0.2706 0.28626 0.87228 0.0
H1087 H 0.26553 0.27109 0.83877 0.0
H1088 H 0.93335 0.00249 0.29383 0.0
H1089 H 0.9482 0.99794 0.32574 0.0
H1090 H 0.89867 0.00875 0.35266 0.0
H1091 H 0.88353 0.01302 0.3206 0.0
H1092 H 0.95567 0.02496 0.35631 0.0
H1093 H 0.9109 0.96211 0.37814 0.0
H1094 H 0.91034 0.96857 0.35328 0.0
H1095 H 0.89801 0.98033 0.37095 0.0
C1096 C 0.92549 0.00364 0.30649 0.0
C1097 C 0.90727 0.00814 0.30473 0.0
C1098 C 0.93401 0.00102 0.32472 0.0
C1099 C 0.92448 0.00279 0.34154 0.0
C1100 C 0.90613 0.00691 0.3398 0.0
H1101 H 0.94942 0.01915 0.46433 0.0
H1102 H 0.9358 0.01257 0.43067 0.0
C1103 C 0.89755 0.00947 0.32151 0.0
C1104 C 0.93437 0.00199 0.36102 0.0
H1105 H 0.93168 0.98043 0.40347 0.0
C1106 C 0.95059 0.01505 0.36653 0.0
C1107 C 0.92771 0.98902 0.37429 0.0
C1108 C 0.91088 0.97409 0.36883 0.0
C1109 C 0.9599 0.01606 0.38526 0.0
C1110 C 0.95295 0.00344 0.39873 0.0
C1111 C 0.93701 0.99003 0.39306 0.0
C1112 C 0.96098 0.00523 0.4193 0.0
C1113 C 0.97657 0.0312 0.39078 0.0
C1114 C 0.97955 0.00273 0.42417 0.0
C1115 C 0.98746 0.00656 0.4435 0.0
C1116 C 0.97688 0.01293 0.45817 0.0
C1117 C 0.95803 0.01448 0.45334 0.0
C1118 C 0.95017 0.01064 0.43411 0.0
H1119 H 0.97799 0.04192 0.37996 0.0
H1120 H 0.97551 0.03845 0.40536 0.0
H1121 H 0.98949 0.02465 0.39156 0.0
H1122 H 0.98803 0.99827 0.41296 0.0
H1123 H 0.00198 0.00513 0.44681 0.0
H1124 H 0.27866 0.64075 0.58833 0.0
H1125 H 0.2849 0.65733 0.62111 0.0
H1126 H 0.32125 0.70191 0.59834 0.0
H1127 H 0.31451 0.68572 0.56552 0.0
H1128 H 0.31561 0.67568 0.64851 0.0
H1129 H 0.27544 0.72595 0.61256 0.0
H1130 H 0.27741 0.70316 0.60089 0.0
H1131 H 0.29658 0.7222 0.60198 0.0
C1132 C 0.28863 0.65365 0.59054 0.0
C1133 C 0.29601 0.66211 0.57452 0.0
C1134 C 0.29212 0.66316 0.60922 0.0
C1135 C 0.30315 0.68106 0.61197 0.0
C1136 C 0.31243 0.68828 0.5964 0.0
H1137 H 0.29352 0.76764 0.70613 0.0
H1138 H 0.30522 0.75179 0.67778 0.0
C1139 C 0.30868 0.67898 0.57772 0.0
C1140 C 0.30221 0.69341 0.62989 0.0
H1141 H 0.28379 0.73213 0.64609 0.0
C1142 C 0.30886 0.68815 0.64801 0.0
C1143 C 0.29333 0.70966 0.62914 0.0
C1144 C 0.28513 0.71556 0.61016 0.0
C1145 C 0.30656 0.69856 0.66549 0.0
C1146 C 0.2971 0.71439 0.66472 0.0
C1147 C 0.29114 0.72006 0.64658 0.0
C1148 C 0.29126 0.72397 0.68244 0.0
C1149 C 0.31402 0.69236 0.68461 0.0
C1150 C 0.2792 0.71364 0.69405 0.0
C1151 C 0.27241 0.72261 0.70997 0.0
C1152 C 0.27748 0.74215 0.71466 0.0
C1153 C 0.28936 0.75258 0.70286 0.0
C1154 C 0.29616 0.74354 0.68681 0.0
H1155 H 0.32595 0.68456 0.68262 0.0
H1156 H 0.31861 0.70458 0.69557 0.0
H1157 H 0.30283 0.68272 0.69051 0.0
H1158 H 0.27472 0.69865 0.69056 0.0
H1159 H 0.26313 0.71414 0.71862 0.0
H1160 H 0.63776 0.01115 0.83702 0.0
H1161 H 0.6214 0.02025 0.8654 0.0
H1162 H 0.5709 0.01885 0.82772 0.0
H1163 H 0.58696 0.00998 0.7996 0.0
H1164 H 0.57792 0.04979 0.85668 0.0
H1165 H 0.58239 0.98048 0.88653 0.0
H1166 H 0.60404 0.99456 0.88222 0.0
H1167 H 0.58762 0.98485 0.86194 0.0
C1168 C 0.62325 0.01303 0.83483 0.0
C1169 C 0.61359 0.00967 0.81615 0.0
C1170 C 0.61393 0.01817 0.85101 0.0
C1171 C 0.59491 0.02002 0.84861 0.0
C1172 C 0.58558 0.01751 0.82986 0.0
H1173 H 0.50538 0.00062 0.92072 0.0
H1174 H 0.52613 0.00278 0.89442 0.0
C1175 C 0.59479 0.01235 0.81381 0.0
C1176 C 0.58402 0.02309 0.86551 0.0
H1177 H 0.56447 0.00043 0.90245 0.0
C1178 C 0.57515 0.03916 0.8669 0.0
C1179 C 0.58027 0.00901 0.87855 0.0
C1180 C 0.58894 0.99117 0.87727 0.0
C1181 C 0.56222 0.0413 0.88074 0.0
C1182 C 0.55824 0.02704 0.89352 0.0
C1183 C 0.56753 0.01126 0.8925 0.0
C1184 C 0.54413 0.02779 0.9078 0.0
C1185 C 0.55236 0.05836 0.88107 0.0
C1186 C 0.54704 0.04155 0.92366 0.0
C1187 C 0.53515 0.04043 0.93868 0.0
C1188 C 0.52026 0.0254 0.93815 0.0
C1189 C 0.51671 0.01235 0.92161 0.0
C1190 C 0.5286 0.0135 0.9066 0.0
H1191 H 0.55415 0.06601 0.86774 0.0
H1192 H 0.53719 0.05423 0.88241 0.0
H1193 H 0.55821 0.06821 0.89394 0.0
H1194 H 0.55907 0.05255 0.92495 0.0
H1195 H 0.5383 0.05071 0.95122 0.0
H1196 H 0.28529 0.34701 0.08388 0.0
H1197 H 0.27872 0.3317 0.11349 0.0
H1198 H 0.2252 0.351 0.1125 0.0
H1199 H 0.23193 0.36684 0.08267 0.0
H1200 H 0.24364 0.35228 0.15067 0.0
H1201 H 0.2418 0.28258 0.11053 0.0
H1202 H 0.26305 0.29804 0.10794 0.0
H1203 H 0.24104 0.30383 0.09829 0.0
C1204 C 0.2722 0.34825 0.09007 0.0
C1205 C 0.25902 0.35794 0.08082 0.0
C1206 C 0.26842 0.33937 0.10694 0.0
C1207 C 0.25124 0.33968 0.11486 0.0
C1208 C 0.23846 0.35038 0.10646 0.0
H1209 H 0.22909 0.256 0.20111 0.0
H1210 H 0.22446 0.27392 0.17256 0.0
C1211 C 0.24235 0.35951 0.08952 0.0
C1212 C 0.24676 0.32819 0.13145 0.0
H1213 H 0.24682 0.28366 0.14557 0.0
C1214 C 0.24401 0.33722 0.14951 0.0
C1215 C 0.24672 0.30844 0.12986 0.0
C1216 C 0.2481 0.29762 0.11055 0.0
C1217 C 0.24254 0.32724 0.16629 0.0
C1218 C 0.24433 0.30782 0.16505 0.0
C1219 C 0.24575 0.29858 0.14669 0.0
C1220 C 0.24631 0.29721 0.18269 0.0
C1221 C 0.23927 0.3377 0.18521 0.0
C1222 C 0.26035 0.30406 0.19768 0.0
C1223 C 0.26295 0.29394 0.21392 0.0
C1224 C 0.25178 0.27648 0.21551 0.0
C1225 C 0.23793 0.26937 0.20033 0.0
C1226 C 0.23523 0.27965 0.18406 0.0
H1227 H 0.23133 0.34947 0.18245 0.0
H1228 H 0.23148 0.32821 0.19481 0.0
H1229 H 0.25293 0.34392 0.19307 0.0
H1230 H 0.26956 0.31717 0.19671 0.0
H1231 H 0.27386 0.29982 0.22522 0.0
H1232 H 0.23289 0.94337 0.03113 0.0
H1233 H 0.2096 0.96315 0.03996 0.0
H1234 H 0.16587 0.91553 0.02603 0.0
H1235 H 0.18907 0.89561 0.01764 0.0
H1236 H 0.18227 0.97182 0.01602 0.0
H1237 H 0.15063 0.93695 0.07692 0.0
H1238 H 0.17245 0.93192 0.06843 0.0
H1239 H 0.15051 0.92042 0.05612 0.0
C1240 C 0.21833 0.93704 0.03026 0.0
C1241 C 0.21281 0.91792 0.02368 0.0
C1242 C 0.20505 0.94836 0.03533 0.0
C1243 C 0.186 0.94078 0.03397 0.0
C1244 C 0.18051 0.9216 0.02773 0.0
H1245 H 0.08854 0.98243 0.00051 0.0
H1246 H 0.11873 0.97179 0.0048 0.0
C1247 C 0.19379 0.91025 0.02277 0.0
C1248 C 0.1717 0.95321 0.03713 0.0
H1249 H 0.13152 0.95618 0.05913 0.0
C1250 C 0.1714 0.96862 0.02577 0.0
C1251 C 0.15767 0.94931 0.05009 0.0
C1252 C 0.15794 0.93387 0.06373 0.0
C1253 C 0.15678 0.97936 0.02601 0.0
C1254 C 0.14191 0.97438 0.03765 0.0
C1255 C 0.14285 0.95986 0.05005 0.0
C1256 C 0.12428 0.98237 0.03522 0.0
C1257 C 0.15709 0.99559 0.0133 0.0
C1258 C 0.11725 0.99176 0.05099 0.0
C1259 C 0.09982 0.99793 0.04857 0.0
C1260 C 0.08912 0.99445 0.03043 0.0
C1261 C 0.09641 0.98531 0.01468 0.0
C1262 C 0.11376 0.97933 0.01706 0.0
H1263 H 0.17163 0.0015 0.01071 0.0
H1264 H 0.14945 0.99048 -0.00111 0.0
H1265 H 0.15027 0.00703 0.01996 0.0
H1266 H 0.12511 0.99407 0.06518 0.0
H1267 H 0.09446 0.0048 0.06099 0.0
H1268 H 0.68778 0.62807 0.97371 0.0
H1269 H 0.65874 0.60648 0.97523 0.0
H1270 H 0.69011 0.56392 0.99482 0.0
H1271 H 0.7193 0.58544 0.99354 0.0
H1272 H 0.64522 0.56924 0.95753 0.0
H1273 H 0.65544 0.57198 0.03862 0.0
H1274 H 0.66888 0.58854 0.02472 0.0
H1275 H 0.67423 0.56502 0.02565 0.0
C1276 C 0.68858 0.61407 0.97818 0.0
C1277 C 0.70595 0.60861 0.98371 0.0
C1278 C 0.67193 0.60172 0.97899 0.0
C1279 C 0.67226 0.58371 0.98542 0.0
C1280 C 0.68954 0.57787 0.99011 0.0
H1281 H 0.56955 0.50081 0.98664 0.0
H1282 H 0.60129 0.51498 0.9806 0.0
C1283 C 0.70623 0.5902 0.98928 0.0
C1284 C 0.65445 0.57152 0.98816 0.0
H1285 H 0.62822 0.55323 0.02334 0.0
C1286 C 0.64155 0.56555 0.97187 0.0
C1287 C 0.64965 0.56691 0.00693 0.0
C1288 C 0.66266 0.57353 0.02504 0.0
C1289 C 0.62385 0.55532 0.97392 0.0
C1290 C 0.61901 0.55086 0.99272 0.0
C1291 C 0.63204 0.55654 0.00893 0.0
C1292 C 0.59993 0.54191 0.99618 0.0
C1293 C 0.61015 0.55001 0.95611 0.0
C1294 C 0.5888 0.55224 0.00714 0.0
C1295 C 0.57079 0.54424 0.01062 0.0
C1296 C 0.56349 0.52562 0.00331 0.0
C1297 C 0.57472 0.51518 0.99243 0.0
C1298 C 0.59282 0.52328 0.9889 0.0
H1299 H 0.61497 0.55705 0.94317 0.0
H1300 H 0.60834 0.53453 0.9525 0.0
H1301 H 0.59628 0.5538 0.95903 0.0
H1302 H 0.59401 0.56663 0.01291 0.0
H1303 H 0.56259 0.55273 0.01905 0.0
H1304 H 0.64297 0.44297 0.28188 0.0
H1305 H 0.65948 0.41598 0.27654 0.0
H1306 H 0.7053 0.4523 0.25602 0.0
H1307 H 0.68915 0.47945 0.262 0.0
H1308 H 0.6716 0.3994 0.24499 0.0
H1309 H 0.73275 0.42804 0.29747 0.0
H1310 H 0.71182 0.43876 0.29578 0.0
H1311 H 0.72885 0.44299 0.27832 0.0
C1312 C 0.65654 0.4452 0.27617 0.0
C1313 C 0.66482 0.46338 0.27253 0.0
C1314 C 0.66598 0.42975 0.27312 0.0
C1315 C 0.68385 0.43212 0.26628 0.0
C1316 C 0.6918 0.45015 0.26186 0.0
H1317 H 0.75443 0.34385 0.24268 0.0
H1318 H 0.74097 0.37329 0.24133 0.0
C1319 C 0.68246 0.46566 0.26513 0.0
C1320 C 0.69411 0.4157 0.26396 0.0
H1321 H 0.73413 0.39913 0.27936 0.0
C1322 C 0.68531 0.39942 0.25244 0.0
C1323 C 0.71202 0.41563 0.27371 0.0
C1324 C 0.72186 0.43221 0.28716 0.0
C1325 C 0.69379 0.3831 0.25063 0.0
C1326 C 0.71155 0.38303 0.26051 0.0
C1327 C 0.7206 0.39937 0.27162 0.0
C1328 C 0.71997 0.36549 0.26114 0.0
C1329 C 0.6836 0.36585 0.23847 0.0
C1330 C 0.71276 0.35157 0.27287 0.0
C1331 C 0.72046 0.33496 0.27381 0.0
C1332 C 0.73553 0.3318 0.26294 0.0
C1333 C 0.74284 0.34583 0.25121 0.0
C1334 C 0.73517 0.36263 0.25042 0.0
H1335 H 0.6716 0.36912 0.22902 0.0
H1336 H 0.69327 0.35951 0.22913 0.0
H1337 H 0.67821 0.35515 0.24829 0.0
H1338 H 0.70114 0.35359 0.28136 0.0
H1339 H 0.71442 0.32452 0.283 0.0
H1340 H 0.797 0.41608 0.51236 0.0
H1341 H 0.82792 0.43422 0.51147 0.0
H1342 H 0.8381 0.3974 0.46243 0.0
H1343 H 0.80734 0.37863 0.46377 0.0
H1344 H 0.86616 0.40142 0.48809 0.0
H1345 H 0.85012 0.47283 0.47835 0.0
H1346 H 0.83937 0.46401 0.49906 0.0
H1347 H 0.83226 0.45231 0.47503 0.0
C1348 C 0.80568 0.41197 0.50118 0.0
C1349 C 0.79971 0.39585 0.48817 0.0
C1350 C 0.82334 0.42252 0.50056 0.0
C1351 C 0.83527 0.41748 0.48662 0.0
C1352 C 0.82913 0.40167 0.47325 0.0
H1353 H 0.94624 0.48822 0.49022 0.0
H1354 H 0.91436 0.47305 0.47831 0.0
C1355 C 0.81155 0.39092 0.47406 0.0
C1356 C 0.85479 0.42745 0.48744 0.0
H1357 H 0.88114 0.47123 0.49371 0.0
C1358 C 0.86939 0.41668 0.48891 0.0
C1359 C 0.85917 0.44736 0.48813 0.0
C1360 C 0.84436 0.45974 0.48482 0.0
C1361 C 0.88809 0.42525 0.49221 0.0
C1362 C 0.89232 0.44516 0.49484 0.0
C1363 C 0.87788 0.45596 0.49211 0.0
C1364 C 0.91138 0.45482 0.5019 0.0
C1365 C 0.9031 0.41279 0.49312 0.0
C1366 C 0.92002 0.45002 0.51934 0.0
C1367 C 0.93814 0.45838 0.52593 0.0
C1368 C 0.94792 0.47211 0.5155 0.0
C1369 C 0.93903 0.4776 0.49847 0.0
C1370 C 0.92087 0.46895 0.49168 0.0
H1371 H 0.89858 0.39925 0.48402 0.0
H1372 H 0.91633 0.41982 0.48811 0.0
H1373 H 0.90585 0.40936 0.50842 0.0
H1374 H 0.91274 0.4397 0.52788 0.0
H1375 H 0.94446 0.45413 0.53933 0.0
H1376 H 0.38243 0.08953 0.26854 0.0
H1377 H 0.36125 0.1119 0.26066 0.0
H1378 H 0.31985 0.06611 0.23414 0.0
H1379 H 0.34074 0.04358 0.24256 0.0
H1380 H 0.34346 0.12117 0.22717 0.0
H1381 H 0.29173 0.08944 0.27557 0.0
H1382 H 0.31484 0.08314 0.27523 0.0
H1383 H 0.29698 0.07361 0.25611 0.0
C1384 C 0.36889 0.08423 0.26086 0.0
C1385 C 0.36314 0.06479 0.2564 0.0
C1386 C 0.35681 0.09703 0.25633 0.0
C1387 C 0.33882 0.09063 0.24717 0.0
C1388 C 0.33348 0.07131 0.24165 0.0
H1389 H 0.27063 0.18031 0.22174 0.0
H1390 H 0.28399 0.15108 0.21583 0.0
C1391 C 0.34547 0.05847 0.24639 0.0
C1392 C 0.32543 0.10416 0.24456 0.0
H1393 H 0.28487 0.11597 0.26032 0.0
C1394 C 0.33051 0.11994 0.23418 0.0
C1395 C 0.30858 0.10254 0.25383 0.0
C1396 C 0.30272 0.08638 0.26595 0.0
C1397 C 0.31963 0.13453 0.23352 0.0
C1398 C 0.30303 0.13308 0.24318 0.0
C1399 C 0.2975 0.11691 0.25276 0.0
C1400 C 0.29293 0.14937 0.24627 0.0
C1401 C 0.32658 0.1519 0.22357 0.0
C1402 C 0.29282 0.15755 0.26534 0.0
C1403 C 0.28517 0.17399 0.26873 0.0
C1404 C 0.27738 0.18264 0.2531 0.0
C1405 C 0.27654 0.17393 0.23404 0.0
C1406 C 0.2843 0.15737 0.23064 0.0
H1407 H 0.34104 0.15193 0.21932 0.0
H1408 H 0.31728 0.15251 0.21016 0.0
H1409 H 0.3263 0.16484 0.2333 0.0
H1410 H 0.29932 0.15158 0.27762 0.0
H1411 H 0.28588 0.18026 0.28361 0.0
H1412 H 0.33065 0.13008 0.50494 0.0
H1413 H 0.35756 0.114 0.51184 0.0
H1414 H 0.32119 0.0669 0.53034 0.0
H1415 H 0.29415 0.08269 0.52294 0.0
H1416 H 0.37221 0.1017 0.54502 0.0
H1417 H 0.34844 0.04058 0.49035 0.0
H1418 H 0.33736 0.06145 0.4912 0.0
H1419 H 0.33226 0.04401 0.50824 0.0
C1420 C 0.32837 0.11633 0.51053 0.0
C1421 C 0.31024 0.10761 0.51325 0.0
C1422 C 0.34378 0.10713 0.51447 0.0
C1423 C 0.3414 0.08905 0.52124 0.0
C1424 C 0.32336 0.0806 0.52463 0.0
H1425 H 0.42862 0.01708 0.54331 0.0
H1426 H 0.39886 0.02968 0.54396 0.0
C1427 C 0.30792 0.08972 0.52053 0.0
C1428 C 0.35784 0.07915 0.52465 0.0
H1429 H 0.37647 0.03999 0.50986 0.0
C1430 C 0.37307 0.08816 0.5374 0.0
C1431 C 0.35899 0.06141 0.51476 0.0
C1432 C 0.34348 0.05134 0.50024 0.0
C1433 C 0.38947 0.08013 0.54026 0.0
C1434 C 0.39077 0.06266 0.53002 0.0
C1435 C 0.37536 0.05331 0.51779 0.0
C1436 C 0.40866 0.05495 0.53023 0.0
C1437 C 0.40541 0.09053 0.55404 0.0
C1438 C 0.42386 0.06485 0.5221 0.0
C1439 C 0.44067 0.0577 0.5216 0.0
C1440 C 0.44275 0.04043 0.52922 0.0
C1441 C 0.4275 0.03045 0.5374 0.0
C1442 C 0.41051 0.03761 0.53776 0.0
H1443 H 0.40055 0.10073 0.56465 0.0
H1444 H 0.41263 0.08055 0.56223 0.0
H1445 H 0.41573 0.09854 0.54548 0.0
H1446 H 0.42265 0.07808 0.5159 0.0
H1447 H 0.45206 0.0658 0.51515 0.0
H1448 H 0.68489 0.55238 0.28978 0.0
H1449 H 0.70732 0.58123 0.28955 0.0
H1450 H 0.66629 0.61426 0.30926 0.0
H1451 H 0.64385 0.58556 0.30978 0.0
H1452 H 0.70291 0.61026 0.26682 0.0
H1453 H 0.71263 0.63715 0.34486 0.0
H1454 H 0.70236 0.61316 0.33678 0.0
H1455 H 0.68848 0.63189 0.3357 0.0
C1456 C 0.68069 0.56574 0.29438 0.0
C1457 C 0.66249 0.56658 0.29978 0.0
C1458 C 0.69356 0.58223 0.29422 0.0
C1459 C 0.68859 0.59991 0.29961 0.0
C1460 C 0.67061 0.60077 0.30545 0.0
H1461 H 0.72183 0.70925 0.26432 0.0
H1462 H 0.70776 0.67757 0.27028 0.0
C1463 C 0.65772 0.58431 0.3056 0.0
C1464 C 0.70154 0.61753 0.29752 0.0
H1465 H 0.72193 0.65953 0.3218 0.0
C1466 C 0.70729 0.6209 0.27892 0.0
C1467 C 0.70744 0.63136 0.31333 0.0
C1468 C 0.70257 0.62816 0.33383 0.0
C1469 C 0.71799 0.63806 0.27552 0.0
C1470 C 0.72293 0.65229 0.29107 0.0
C1471 C 0.71799 0.64863 0.30987 0.0
C1472 C 0.73189 0.67153 0.28767 0.0
C1473 C 0.72363 0.64099 0.2552 0.0
C1474 C 0.75008 0.67879 0.29576 0.0
C1475 C 0.7583 0.69703 0.29231 0.0
C1476 C 0.74831 0.70833 0.28094 0.0
C1477 C 0.73 0.70098 0.2731 0.0
C1478 C 0.72191 0.68281 0.27643 0.0
H1479 H 0.72304 0.62738 0.24629 0.0
H1480 H 0.71391 0.6493 0.24777 0.0
H1481 H 0.73799 0.64897 0.25574 0.0
H1482 H 0.75796 0.67031 0.30458 0.0
H1483 H 0.77238 0.70229 0.29863 0.0
H1484 H 0.89776 0.45313 0.805 0.0
H1485 H 0.87762 0.42282 0.80466 0.0
H1486 H 0.82897 0.44984 0.79433 0.0
H1487 H 0.84907 0.48023 0.79404 0.0
H1488 H 0.84946 0.40885 0.8258 0.0
H1489 H 0.82259 0.41078 0.74828 0.0
H1490 H 0.84192 0.42751 0.75985 0.0
H1491 H 0.81835 0.43009 0.76447 0.0
C1492 C 0.88277 0.45271 0.80283 0.0
C1493 C 0.87506 0.46909 0.79928 0.0
C1494 C 0.87127 0.43534 0.80265 0.0
C1495 C 0.85181 0.43399 0.79904 0.0
C1496 C 0.84397 0.45047 0.79661 0.0
H1497 H 0.77291 0.32803 0.77496 0.0
H1498 H 0.78476 0.36126 0.78561 0.0
C1499 C 0.85549 0.46785 0.79657 0.0
C1500 C 0.84001 0.41517 0.79696 0.0
H1501 H 0.81158 0.38393 0.76391 0.0
C1502 C 0.84103 0.40347 0.81234 0.0
C1503 C 0.829 0.40815 0.77937 0.0
C1504 C 0.82797 0.41969 0.76197 0.0
C1505 C 0.83177 0.38479 0.81039 0.0
C1506 C 0.82129 0.37765 0.79262 0.0
C1507 C 0.81957 0.38955 0.77757 0.0
C1508 C 0.81379 0.35739 0.78846 0.0
C1509 C 0.83357 0.37268 0.82719 0.0
C1510 C 0.82621 0.3443 0.78664 0.0
C1511 C 0.81955 0.32547 0.78041 0.0
C1512 C 0.80031 0.31935 0.77592 0.0
C1513 C 0.7878 0.33234 0.77841 0.0
C1514 C 0.79452 0.35129 0.78446 0.0
H1515 H 0.8377 0.38137 0.84128 0.0
H1516 H 0.82024 0.36324 0.82841 0.0
H1517 H 0.84451 0.36373 0.82462 0.0
H1518 H 0.84115 0.3488 0.78935 0.0
H1519 H 0.82953 0.31579 0.77868 0.0
H1520 H 0.02558 0.80832 0.09542 0.0
H1521 H 0.02606 0.83823 0.08059 0.0
H1522 H 0.0161 0.86553 0.13581 0.0
H1523 H 0.01571 0.83565 0.15082 0.0
H1524 H 0.99689 0.8607 0.07834 0.0
H1525 H 0.06194 0.89941 0.11877 0.0
H1526 H 0.05598 0.87407 0.1176 0.0
H1527 H 0.04505 0.88876 0.13398 0.0
C1528 C 0.02365 0.82072 0.10447 0.0
C1529 C 0.02067 0.81965 0.12432 0.0
C1530 C 0.02387 0.83777 0.09594 0.0
C1531 C 0.02126 0.8541 0.10713 0.0
C1532 C 0.01841 0.85313 0.12699 0.0
H1533 H 0.01884 0.97038 0.08868 0.0
H1534 H 0.0159 0.93903 0.10046 0.0
C1535 C 0.01815 0.83606 0.13554 0.0
C1536 C 0.02111 0.87206 0.09791 0.0
H1537 H 0.0436 0.91731 0.09986 0.0
C1538 C 0.00714 0.87308 0.08294 0.0
C1539 C 0.03455 0.88811 0.10391 0.0
C1540 C 0.05035 0.88758 0.11932 0.0
C1541 C 0.00589 0.88997 0.07422 0.0
C1542 C 0.01919 0.90611 0.08044 0.0
C1543 C 0.03334 0.90494 0.09518 0.0
C1544 C 0.01856 0.9246 0.07238 0.0
C1545 C 0.99007 0.89054 0.05888 0.0
C1546 C 0.02056 0.92688 0.05251 0.0
C1547 C 0.02206 0.94487 0.04565 0.0
C1548 C 0.02188 0.96082 0.05866 0.0
C1549 C 0.01916 0.95836 0.07834 0.0
C1550 C 0.01749 0.94046 0.0851 0.0
H1551 H 0.97859 0.87856 0.05928 0.0
H1552 H 0.98428 0.90394 0.0608 0.0
H1553 H 0.99538 0.88962 0.04421 0.0
H1554 H 0.02175 0.91489 0.04248 0.0
H1555 H 0.02431 0.94638 0.03045 0.0
H1556 H 0.96326 0.24003 0.84879 0.0
H1557 H 0.93507 0.23849 0.82625 0.0
H1558 H 0.90652 0.26152 0.8728 0.0
H1559 H 0.93431 0.26311 0.89533 0.0
H1560 H 0.89575 0.21983 0.83094 0.0
H1561 H 0.90334 0.29734 0.82729 0.0
H1562 H 0.92263 0.28547 0.83485 0.0
H1563 H 0.90571 0.29 0.85162 0.0
C1564 C 0.95095 0.24468 0.85426 0.0
C1565 C 0.95114 0.25178 0.8739 0.0
C1566 C 0.93488 0.24377 0.84135 0.0
C1567 C 0.91884 0.25012 0.84784 0.0
C1568 C 0.91885 0.25678 0.86747 0.0
H1569 H 0.80799 0.2654 0.81792 0.0
H1570 H 0.83948 0.26311 0.83138 0.0
C1571 C 0.93478 0.25761 0.88035 0.0
C1572 C 0.90198 0.25012 0.83431 0.0
H1573 H 0.8734 0.27972 0.81647 0.0
C1574 C 0.89097 0.23287 0.82741 0.0
C1575 C 0.89588 0.26718 0.82973 0.0
C1576 C 0.90757 0.28607 0.83609 0.0
C1577 C 0.87341 0.2323 0.81703 0.0
C1578 C 0.86692 0.24941 0.81332 0.0
C1579 C 0.87838 0.26661 0.81941 0.0
C1580 C 0.84765 0.24994 0.80481 0.0
C1581 C 0.86149 0.21348 0.81102 0.0
C1582 C 0.84175 0.24326 0.78533 0.0
C1583 C 0.82363 0.24458 0.7775 0.0
C1584 C 0.81116 0.25261 0.78904 0.0
C1585 C 0.81716 0.25912 0.80858 0.0
C1586 C 0.8352 0.25785 0.81633 0.0
H1587 H 0.86745 0.20167 0.81738 0.0
H1588 H 0.84716 0.21349 0.81562 0.0
H1589 H 0.86033 0.21088 0.79486 0.0
H1590 H 0.85124 0.23733 0.77613 0.0
H1591 H 0.81947 0.2395 0.76239 0.0
H1592 H 0.50423 0.21206 0.63936 0.0
H1593 H 0.50237 0.17808 0.63051 0.0
H1594 H 0.53734 0.18983 0.58372 0.0
H1595 H 0.53925 0.22356 0.59221 0.0
H1596 H 0.49031 0.15861 0.58883 0.0
H1597 H 0.56196 0.15192 0.6195 0.0
H1598 H 0.54951 0.17038 0.62832 0.0
H1599 H 0.55969 0.17173 0.60545 0.0
C1600 C 0.51154 0.20741 0.62721 0.0
C1601 C 0.52189 0.22058 0.61652 0.0
C1602 C 0.51044 0.18803 0.62218 0.0
C1603 C 0.51987 0.18157 0.6066 0.0
C1604 C 0.53013 0.19461 0.59591 0.0
H1605 H 0.51221 0.07534 0.53725 0.0
H1606 H 0.51623 0.10868 0.54946 0.0
C1607 C 0.53111 0.21389 0.60077 0.0
C1608 C 0.51882 0.1612 0.60106 0.0
H1609 H 0.54519 0.12561 0.59965 0.0
C1610 C 0.50223 0.15132 0.5913 0.0
C1611 C 0.53444 0.15185 0.60434 0.0
C1612 C 0.55242 0.1619 0.61509 0.0
C1613 C 0.50099 0.13231 0.58433 0.0
C1614 C 0.51677 0.1231 0.58717 0.0
C1615 C 0.53321 0.13284 0.59736 0.0
C1616 C 0.51624 0.10318 0.5799 0.0
C1617 C 0.48285 0.12217 0.57395 0.0
C1618 C 0.51557 0.08921 0.59307 0.0
C1619 C 0.51323 0.07019 0.58617 0.0
C1620 C 0.51172 0.06487 0.56599 0.0
C1621 C 0.5134 0.07899 0.55288 0.0
C1622 C 0.51557 0.09801 0.5598 0.0
H1623 H 0.47114 0.13033 0.57575 0.0
H1624 H 0.48451 0.11989 0.55811 0.0
H1625 H 0.47914 0.10813 0.57952 0.0
H1626 H 0.51616 0.09299 0.60864 0.0
H1627 H 0.51205 0.05964 0.59663 0.0
H1628 H 0.54106 0.73519 0.34094 0.0
H1629 H 0.57001 0.73438 0.32497 0.0
H1630 H 0.60088 0.7699 0.37336 0.0
H1631 H 0.57221 0.77029 0.38961 0.0
H1632 H 0.59411 0.76236 0.31246 0.0
H1633 H 0.63113 0.72752 0.36927 0.0
H1634 H 0.60651 0.72887 0.36891 0.0
H1635 H 0.62354 0.74864 0.37898 0.0
C1636 C 0.55406 0.74268 0.34824 0.0
C1637 C 0.55439 0.75264 0.36663 0.0
C1638 C 0.57057 0.74226 0.33907 0.0
C1639 C 0.58768 0.75182 0.34811 0.0
C1640 C 0.58795 0.762 0.36633 0.0
H1641 H 0.69097 0.78294 0.29312 0.0
H1642 H 0.66019 0.78241 0.30566 0.0
C1643 C 0.57152 0.76227 0.37557 0.0
C1644 C 0.60523 0.75142 0.3384 0.0
H1645 H 0.64964 0.74147 0.3455 0.0
C1646 C 0.60622 0.75766 0.3196 0.0
C1647 C 0.62095 0.74506 0.34762 0.0
C1648 C 0.62045 0.73696 0.36722 0.0
C1649 C 0.62262 0.75803 0.30993 0.0
C1650 C 0.6386 0.75243 0.31952 0.0
C1651 C 0.63747 0.74594 0.33819 0.0
C1652 C 0.65657 0.75271 0.31045 0.0
C1653 C 0.62253 0.76405 0.2894 0.0
C1654 C 0.6649 0.7363 0.30914 0.0
C1655 C 0.68256 0.73668 0.30236 0.0
C1656 C 0.69227 0.75346 0.29659 0.0
C1657 C 0.68373 0.76978 0.29729 0.0
C1658 C 0.6661 0.76945 0.30436 0.0
H1659 H 0.6081 0.76241 0.2822 0.0
H1660 H 0.62863 0.77917 0.28992 0.0
H1661 H 0.63095 0.75576 0.28031 0.0
H1662 H 0.65785 0.72322 0.31371 0.0
H1663 H 0.68872 0.72384 0.3019 0.0
H1664 H 0.03459 0.21432 0.40259 0.0
H1665 H 0.03569 0.18275 0.41368 0.0
H1666 H 0.99045 0.18931 0.44943 0.0
H1667 H 0.98918 0.22053 0.43848 0.0
H1668 H 0.04234 0.17603 0.45414 0.0
H1669 H 0.97469 0.13635 0.42084 0.0
H1670 H 0.98545 0.15804 0.41205 0.0
H1671 H 0.97278 0.15864 0.43346 0.0
C1672 C 0.02465 0.20885 0.4125 0.0
C1673 C 0.01185 0.21994 0.41971 0.0
C1674 C 0.02534 0.19088 0.41887 0.0
C1675 C 0.01303 0.18367 0.43223 0.0
C1676 C 0.99987 0.19448 0.43889 0.0
H1677 H 0.99613 0.08789 0.50171 0.0
H1678 H 0.99525 0.1179 0.48708 0.0
C1679 C 0.99927 0.2124 0.4327 0.0
C1680 C 0.01472 0.16555 0.44056 0.0
H1681 H 0.99006 0.12252 0.44671 0.0
C1682 C 0.03103 0.16422 0.45233 0.0
C1683 C 0.99983 0.1503 0.43834 0.0
C1684 C 0.98225 0.15078 0.42535 0.0
C1685 C 0.03264 0.14819 0.46242 0.0
C1686 C 0.01766 0.13301 0.46037 0.0
C1687 C 1.00145 0.13426 0.44839 0.0
C1688 C 0.01875 0.11545 0.47004 0.0
C1689 C 0.05013 0.14788 0.47563 0.0
C1690 C 0.03225 0.10421 0.4653 0.0
C1691 C 0.03281 0.08719 0.47363 0.0
C1692 C 0.01979 0.08096 0.48677 0.0
C1693 C 0.0064 0.09235 0.49172 0.0
C1694 C 0.00584 0.10943 0.48333 0.0
H1695 H 0.05788 0.16231 0.47971 0.0
H1696 H 0.04678 0.14114 0.48919 0.0
H1697 H 0.05951 0.1396 0.46789 0.0
H1698 H 0.04212 0.10841 0.45483 0.0
H1699 H 0.0433 0.07876 0.46946 0.0
H1700 H 0.57796 0.26623 0.13408 0.0
H1701 H 0.60698 0.26561 0.15402 0.0
H1702 H 0.57628 0.25619 0.20446 0.0
H1703 H 0.54693 0.25657 0.18451 0.0
H1704 H 0.62151 0.28946 0.18758 0.0
H1705 H 0.60936 0.21402 0.20344 0.0
H1706 H 0.59578 0.22298 0.18418 0.0
H1707 H 0.59156 0.22798 0.20921 0.0
C1708 C 0.57727 0.26399 0.14939 0.0
C1709 C 0.56002 0.2614 0.15763 0.0
C1710 C 0.59392 0.26364 0.16078 0.0
C1711 C 0.59378 0.26064 0.18066 0.0
C1712 C 0.57667 0.2582 0.18906 0.0
H1713 H 0.69766 0.2635 0.2577 0.0
H1714 H 0.66408 0.26061 0.24742 0.0
C1715 C 0.55992 0.25854 0.17764 0.0
C1716 C 0.61176 0.26058 0.1924 0.0
H1717 H 0.63845 0.23182 0.21524 0.0
C1718 C 0.62512 0.27693 0.19384 0.0
C1719 C 0.6164 0.24422 0.20065 0.0
C1720 C 0.60262 0.22622 0.19926 0.0
C1721 C 0.6432 0.27717 0.20267 0.0
C1722 C 0.64811 0.26059 0.21007 0.0
C1723 C 0.63456 0.24448 0.2095 0.0
C1724 C 0.66778 0.25945 0.21653 0.0
C1725 C 0.65716 0.29502 0.20351 0.0
C1726 C 0.68076 0.25906 0.20253 0.0
C1727 C 0.69979 0.2607 0.20829 0.0
C1728 C 0.70623 0.26272 0.22821 0.0
C1729 C 0.6931 0.2619 0.24225 0.0
C1730 C 0.67395 0.2603 0.23642 0.0
H1731 H 0.65023 0.30754 0.2011 0.0
H1732 H 0.66562 0.29748 0.21783 0.0
H1733 H 0.66683 0.29358 0.19195 0.0
H1734 H 0.67621 0.25826 0.1871 0.0
H1735 H 0.70953 0.26112 0.19711 0.0
H1736 H 0.54716 0.83546 0.8952 0.0
H1737 H 0.54853 0.86702 0.91185 0.0
H1738 H 0.51192 0.84364 0.95337 0.0
H1739 H 0.51145 0.81214 0.93754 0.0
H1740 H 0.52417 0.88875 0.91747 0.0
H1741 H 0.55136 0.87321 0.99046 0.0
H1742 H 0.55027 0.85669 0.96928 0.0
H1743 H 0.53004 0.85771 0.98277 0.0
C1744 C 0.53951 0.83711 0.90795 0.0
C1745 C 0.52937 0.82135 0.91521 0.0
C1746 C 0.5403 0.85512 0.91747 0.0
C1747 C 0.53076 0.8577 0.93425 0.0
C1748 C 0.52004 0.842 0.94099 0.0
H1749 H 0.4942 0.96088 0.97542 0.0
H1750 H 0.49852 0.93079 0.95911 0.0
C1751 C 0.5196 0.82399 0.93177 0.0
C1752 C 0.53139 0.87684 0.94431 0.0
H1753 H 0.53658 0.90105 0.9894 0.0
C1754 C 0.52713 0.89148 0.93318 0.0
C1755 C 0.53572 0.88065 0.96475 0.0
C1756 C 0.54232 0.86627 0.97744 0.0
C1757 C 0.52636 0.90955 0.94197 0.0
C1758 C 0.52909 0.91288 0.96259 0.0
C1759 C 0.5341 0.89847 0.97364 0.0
C1760 C 0.52635 0.93099 0.97301 0.0
C1761 C 0.52286 0.92488 0.92894 0.0
C1762 C 0.54006 0.94068 0.98717 0.0
C1763 C 0.53733 0.95766 0.99703 0.0
C1764 C 0.52096 0.96533 0.99267 0.0
C1765 C 0.50713 0.95546 0.97879 0.0
C1766 C 0.50966 0.93833 0.96931 0.0
H1767 H 0.52795 0.92222 0.91433 0.0
H1768 H 0.5076 0.92509 0.92668 0.0
H1769 H 0.52982 0.93897 0.93543 0.0
H1770 H 0.55298 0.93523 0.99045 0.0
H1771 H 0.54819 0.96499 0.0077 0.0
H1772 H 0.93637 0.75449 0.63879 0.0
H1773 H 0.90797 0.75369 0.65578 0.0
H1774 H 0.93888 0.74565 0.70967 0.0
H1775 H 0.96752 0.74645 0.69273 0.0
H1776 H 0.8909 0.72396 0.67822 0.0
H1777 H 0.91263 0.79284 0.72232 0.0
H1778 H 0.92378 0.78646 0.70077 0.0
H1779 H 0.92853 0.77587 0.72301 0.0
C1780 C 0.93715 0.75245 0.65424 0.0
C1781 C 0.95421 0.75058 0.66443 0.0
C1782 C 0.9209 0.75201 0.66392 0.0
C1783 C 0.92139 0.74987 0.68401 0.0
C1784 C 0.93829 0.74759 0.6942 0.0
H1785 H 0.82552 0.75024 0.75535 0.0
H1786 H 0.85761 0.75065 0.7461 0.0
C1787 C 0.95458 0.74792 0.68448 0.0
C1788 C 0.90407 0.74999 0.69405 0.0
H1789 H 0.88233 0.77699 0.72527 0.0
C1790 C 0.88908 0.73546 0.68864 0.0
C1791 C 0.9018 0.76496 0.70775 0.0
C1792 C 0.91745 0.78103 0.71382 0.0
C1793 C 0.87171 0.7357 0.6962 0.0
C1794 C 0.86915 0.7511 0.70918 0.0
C1795 C 0.88434 0.76527 0.71523 0.0
C1796 C 0.85043 0.75317 0.71545 0.0
C1797 C 0.85615 0.71953 0.69007 0.0
C1798 C 0.83602 0.7553 0.70144 0.0
C1799 C 0.81781 0.75509 0.70664 0.0
C1800 C 0.81364 0.75289 0.72601 0.0
C1801 C 0.82831 0.75201 0.74032 0.0
C1802 C 0.84662 0.75216 0.73506 0.0
H1803 H 0.86165 0.70667 0.68464 0.0
H1804 H 0.84761 0.71606 0.70239 0.0
H1805 H 0.84688 0.72358 0.67806 0.0
H1806 H 0.83876 0.75649 0.68631 0.0
H1807 H 0.80685 0.75599 0.69532 0.0
H1808 H 0.14013 0.99806 0.85367 0.0
H1809 H 0.12284 0.99766 0.88303 0.0
H1810 H 0.07308 0.00556 0.84827 0.0
H1811 H 0.09016 0.00634 0.81924 0.0
H1812 H 0.07924 0.02895 0.88161 0.0
H1813 H 0.08396 0.95527 0.89808 0.0
H1814 H 0.10605 0.96973 0.8964 0.0
H1815 H 0.08975 0.9641 0.87509 0.0
C1816 C 0.12552 0.99974 0.85236 0.0
C1817 C 0.11653 0.00222 0.83414 0.0
C1818 C 0.11562 0.99934 0.86908 0.0
C1819 C 0.09656 0.00127 0.86778 0.0
C1820 C 0.08772 0.00396 0.84963 0.0
H1821 H 0.01405 0.98477 0.95463 0.0
H1822 H 0.03009 0.98251 0.92446 0.0
C1823 C 0.09756 0.00442 0.83303 0.0
C1824 C 0.08576 0.00108 0.88525 0.0
H1825 H 0.07042 0.97401 0.92131 0.0
C1826 C 0.07728 0.0169 0.89023 0.0
C1827 C 0.08296 0.98525 0.89634 0.0
C1828 C 0.091 0.96753 0.89116 0.0
C1829 C 0.06641 0.01747 0.90619 0.0
C1830 C 0.06408 0.00189 0.91759 0.0
C1831 C 0.07224 0.98591 0.91248 0.0
C1832 C 0.05435 0.00264 0.93569 0.0
C1833 C 0.05751 0.03476 0.91082 0.0
C1834 C 0.06279 0.01453 0.95189 0.0
C1835 C 0.0538 0.0158 0.96898 0.0
C1836 C 0.03607 0.00522 0.9703 0.0
C1837 C 0.02762 0.99317 0.95405 0.0
C1838 C 0.03678 0.99181 0.93687 0.0
H1839 H 0.05725 0.04372 0.89837 0.0
H1840 H 0.04298 0.03072 0.9147 0.0
H1841 H 0.06559 0.04331 0.92357 0.0
H1842 H 0.07639 0.02288 0.9513 0.0
H1843 H 0.06081 0.0252 0.98117 0.0
H1844 H 0.75573 0.37749 0.56827 0.0
H1845 H 0.76104 0.36653 0.60096 0.0
H1846 H 0.7603 0.31003 0.57498 0.0
H1847 H 0.75513 0.3206 0.54268 0.0
H1848 H 0.73885 0.33681 0.61906 0.0
H1849 H 0.81034 0.32159 0.60962 0.0
H1850 H 0.79903 0.33679 0.59442 0.0
H1851 H 0.79384 0.31158 0.58951 0.0
C1852 C 0.75666 0.36274 0.56957 0.0
C1853 C 0.75524 0.34999 0.55282 0.0
C1854 C 0.75974 0.35654 0.5882 0.0
C1855 C 0.76151 0.33759 0.59025 0.0
C1856 C 0.75948 0.32481 0.57364 0.0
H1857 H 0.74382 0.2598 0.67559 0.0
H1858 H 0.74374 0.27927 0.648 0.0
C1859 C 0.75644 0.33092 0.55516 0.0
C1860 C 0.76505 0.33062 0.6096 0.0
H1861 H 0.79409 0.3054 0.63419 0.0
C1862 C 0.75108 0.33026 0.6226 0.0
C1863 C 0.78114 0.32232 0.61425 0.0
C1864 C 0.79704 0.32324 0.6013 0.0
C1865 C 0.75224 0.32068 0.63956 0.0
C1866 C 0.76761 0.31105 0.64335 0.0
C1867 C 0.78216 0.31251 0.63104 0.0
C1868 C 0.76841 0.29872 0.65952 0.0
C1869 C 0.73685 0.32064 0.65309 0.0
C1870 C 0.78286 0.30269 0.67459 0.0
C1871 C 0.78305 0.2915 0.69031 0.0
C1872 C 0.76883 0.27608 0.69112 0.0
C1873 C 0.75494 0.27159 0.67546 0.0
C1874 C 0.75475 0.28282 0.65979 0.0
H1875 H 0.7292 0.33278 0.65129 0.0
H1876 H 0.72669 0.30749 0.64968 0.0
H1877 H 0.7425 0.32114 0.66859 0.0
H1878 H 0.79368 0.31477 0.67446 0.0
H1879 H 0.79399 0.2953 0.70212 0.0
H1880 H 0.38964 0.03409 0.34226 0.0
H1881 H 0.40638 0.0335 0.37461 0.0
H1882 H 0.45893 0.0406 0.34875 0.0
H1883 H 0.44252 0.04127 0.31673 0.0
H1884 H 0.43116 0.00665 0.3836 0.0
H1885 H 0.46761 0.08052 0.39608 0.0
H1886 H 0.44741 0.07353 0.3787 0.0
H1887 H 0.47002 0.06885 0.37265 0.0
C1888 C 0.40476 0.03579 0.34359 0.0
C1889 C 0.41477 0.03772 0.32701 0.0
C1890 C 0.41429 0.03543 0.362 0.0
C1891 C 0.4339 0.03727 0.36404 0.0
C1892 C 0.44384 0.03952 0.34754 0.0
H1893 H 0.51786 0.02684 0.45916 0.0
H1894 H 0.50222 0.03214 0.42748 0.0
C1895 C 0.43439 0.03976 0.32923 0.0
C1896 C 0.44406 0.03549 0.38307 0.0
H1897 H 0.47757 0.0587 0.41743 0.0
C1898 C 0.44118 0.01807 0.3911 0.0
C1899 C 0.45737 0.05032 0.39257 0.0
C1900 C 0.46073 0.06943 0.38468 0.0
C1901 C 0.4514 0.015 0.40835 0.0
C1902 C 0.46454 0.02991 0.41803 0.0
C1903 C 0.46753 0.04731 0.40993 0.0
C1904 C 0.47437 0.02793 0.4372 0.0
C1905 C 0.44826 0.99571 0.41591 0.0
C1906 C 0.46393 0.02442 0.45314 0.0
C1907 C 0.47271 0.02133 0.47101 0.0
C1908 C 0.49221 0.02191 0.47345 0.0
C1909 C 0.50283 0.02627 0.4577 0.0
C1910 C 0.49393 0.02926 0.43964 0.0
H1911 H 0.44204 0.98466 0.40418 0.0
H1912 H 0.46154 0.99188 0.42233 0.0
H1913 H 0.43842 0.99576 0.42748 0.0
H1914 H 0.44888 0.02378 0.45168 0.0
H1915 H 0.46409 0.01825 0.48288 0.0
H1916 H 0.77328 0.63249 0.05872 0.0
H1917 H 0.77518 0.64106 0.09411 0.0
H1918 H 0.7528 0.69202 0.08348 0.0
H1919 H 0.75073 0.68372 0.04852 0.0
H1920 H 0.79461 0.67471 0.11605 0.0
H1921 H 0.71826 0.66716 0.12198 0.0
H1922 H 0.72822 0.657 0.10122 0.0
H1923 H 0.72589 0.68161 0.10308 0.0
C1924 C 0.76874 0.6455 0.06393 0.0
C1925 C 0.76172 0.6573 0.0507 0.0
C1926 C 0.76983 0.65036 0.08414 0.0
C1927 C 0.76376 0.66699 0.09138 0.0
C1928 C 0.75714 0.67892 0.07822 0.0
H1929 H 0.76209 0.73571 0.19843 0.0
H1930 H 0.75865 0.72099 0.16484 0.0
C1931 C 0.75608 0.67414 0.05816 0.0
C1932 C 0.76464 0.67239 0.11265 0.0
H1933 H 0.7378 0.68464 0.14873 0.0
C1934 C 0.7822 0.67661 0.12331 0.0
C1935 C 0.7484 0.67491 0.12204 0.0
C1936 C 0.72911 0.66976 0.11155 0.0
C1937 C 0.784 0.68405 0.14291 0.0
C1938 C 0.76778 0.6871 0.1521 0.0
C1939 C 0.7502 0.68241 0.14159 0.0
C1940 C 0.76886 0.69547 0.17253 0.0
C1941 C 0.80327 0.68929 0.15344 0.0
C1942 C 0.77523 0.68576 0.18798 0.0
C1943 C 0.77712 0.69407 0.20713 0.0
C1944 C 0.77266 0.71227 0.21123 0.0
C1945 C 0.76566 0.7217 0.19578 0.0
C1946 C 0.76372 0.71333 0.17659 0.0
H1947 H 0.8144 0.68966 0.1432 0.0
H1948 H 0.80467 0.70329 0.16182 0.0
H1949 H 0.80555 0.67871 0.16395 0.0
H1950 H 0.77895 0.67183 0.18518 0.0
H1951 H 0.78246 0.68634 0.21868 0.0
H1952 H 0.07933 0.01106 0.73539 0.0
H1953 H 0.06998 0.00999 0.70066 0.0
H1954 H 0.12609 0.00416 0.68756 0.0
H1955 H 0.13565 0.00495 0.72263 0.0
H1956 H 0.08408 0.0352 0.67504 0.0
H1957 H 0.0939 0.96197 0.65139 0.0
H1958 H 0.09326 0.97002 0.67674 0.0
H1959 H 0.1139 0.97649 0.66445 0.0
C1960 C 0.08975 0.00944 0.7252 0.0
C1961 C 0.10831 0.00817 0.73185 0.0
C1962 C 0.08433 0.00883 0.70531 0.0
C1963 C 0.09729 0.00693 0.69153 0.0
C1964 C 0.11579 0.00536 0.69797 0.0
H1965 H 0.08175 0.00049 0.56475 0.0
H1966 H 0.09505 0.00398 0.59866 0.0
C1967 C 0.12125 0.00586 0.718 0.0
C1968 C 0.0913 0.00731 0.67052 0.0
H1969 H 0.08443 0.98062 0.62683 0.0
C1970 C 0.08421 0.02329 0.66446 0.0
C1971 C 0.0915 0.99177 0.65679 0.0
C1972 C 0.0984 0.974 0.66262 0.0
C1973 C 0.07724 0.02415 0.64504 0.0
C1974 C 0.07711 0.00847 0.63138 0.0
C1975 C 0.08452 0.99262 0.63735 0.0
C1976 C 0.06921 0.00806 0.61084 0.0
C1977 C 0.07026 0.04189 0.63929 0.0
C1978 C 0.05027 0.00945 0.60639 0.0
C1979 C 0.04261 0.00759 0.58695 0.0
C1980 C 0.05374 0.00406 0.57168 0.0
C1981 C 0.07278 0.00314 0.57619 0.0
C1982 C 0.08042 0.0051 0.59556 0.0
H1983 H 0.07605 0.05421 0.64976 0.0
H1984 H 0.07396 0.04512 0.62443 0.0
H1985 H 0.05481 0.0399 0.63923 0.0
H1986 H 0.04127 0.01137 0.61797 0.0
H1987 H 0.02786 0.00819 0.58393 0.0
H1988 H 0.74448 0.38886 0.44157 0.0
H1989 H 0.74661 0.37202 0.40957 0.0
H1990 H 0.72199 0.31998 0.43084 0.0
H1991 H 0.71994 0.33656 0.46258 0.0
H1992 H 0.76783 0.34053 0.40704 0.0
H1993 H 0.69422 0.31985 0.37579 0.0
H1994 H 0.70137 0.33933 0.39419 0.0
H1995 H 0.69867 0.31551 0.40096 0.0
C1996 C 0.73904 0.37395 0.43916 0.0
C1997 C 0.73203 0.36397 0.45445 0.0
C1998 C 0.74034 0.36435 0.42098 0.0
C1999 C 0.73429 0.3448 0.41785 0.0
C2000 C 0.72644 0.33509 0.43285 0.0
H2001 H 0.74477 0.25665 0.3264 0.0
H2002 H 0.73788 0.2735 0.35679 0.0
C2003 C 0.72536 0.34458 0.45099 0.0
C2004 C 0.73809 0.334 0.39989 0.0
H2005 H 0.71711 0.30474 0.36066 0.0
C2006 C 0.75676 0.33285 0.39678 0.0
C2007 C 0.72359 0.32369 0.38684 0.0
C2008 C 0.70332 0.32471 0.38946 0.0
C2009 C 0.76134 0.32151 0.38099 0.0
C2010 C 0.74686 0.31139 0.36775 0.0
C2011 C 0.72816 0.31243 0.37092 0.0
C2012 C 0.75097 0.30089 0.34972 0.0
C2013 C 0.78165 0.32024 0.37877 0.0
C2014 C 0.76038 0.31076 0.33574 0.0
C2015 C 0.76434 0.30128 0.3186 0.0
C2016 C 0.75886 0.28165 0.3149 0.0
C2017 C 0.74929 0.27172 0.32888 0.0
C2018 C 0.7453 0.28132 0.34617 0.0
H2019 H 0.79038 0.32414 0.39284 0.0
H2020 H 0.78347 0.30579 0.37323 0.0
H2021 H 0.78691 0.33017 0.36814 0.0
H2022 H 0.76454 0.3259 0.33802 0.0
H2023 H 0.7716 0.30949 0.30816 0.0
H2024 H 0.45072 0.04193 0.23625 0.0
H2025 H 0.46422 0.03721 0.20524 0.0
H2026 H 0.4147 0.99866 0.1827 0.0
H2027 H 0.40084 0.00389 0.21375 0.0
H2028 H 0.47163 0.00224 0.19305 0.0
H2029 H 0.42633 0.02905 0.13608 0.0
H2030 H 0.42578 0.03552 0.16183 0.0
H2031 H 0.41445 0.01278 0.15126 0.0
C2032 C 0.44249 0.0329 0.22445 0.0
C2033 C 0.42479 0.02324 0.22728 0.0
C2034 C 0.45022 0.03016 0.2068 0.0
C2035 C 0.44051 0.01754 0.19172 0.0
C2036 C 0.42232 0.00868 0.19406 0.0
H2037 H 0.48195 0.97898 0.08247 0.0
H2038 H 0.46426 0.97985 0.11122 0.0
C2039 C 0.41441 0.01167 0.21174 0.0
C2040 C 0.45045 0.01225 0.17468 0.0
H2041 H 0.45086 0.01374 0.12534 0.0
C2042 C 0.46706 0.00471 0.17823 0.0
C2043 C 0.44433 0.01531 0.15537 0.0
C2044 C 0.42683 0.02374 0.15082 0.0
C2045 C 0.47797 0.00056 0.16305 0.0
C2046 C 0.47216 0.00414 0.14386 0.0
C2047 C 0.45523 0.01104 0.14014 0.0
C2048 C 0.48399 0.00191 0.1276 0.0
C2049 C 0.49569 0.99251 0.16766 0.0
C2050 C 0.50117 0.01372 0.12757 0.0
C2051 C 0.51134 0.01329 0.11119 0.0
C2052 C 0.50443 0.00109 0.09453 0.0
C2053 C 0.48769 0.98855 0.09505 0.0
C2054 C 0.47749 0.98907 0.11141 0.0
H2055 H 0.49568 0.9861 0.18186 0.0
H2056 H 0.49766 0.98166 0.156 0.0
H2057 H 0.50781 0.00399 0.1686 0.0
H2058 H 0.5063 0.02388 0.13989 0.0
H2059 H 0.52414 0.02316 0.11125 0.0
H2060 H 0.76315 0.67669 0.96186 0.0
H2061 H 0.76319 0.69336 0.93228 0.0
H2062 H 0.76868 0.64214 0.8981 0.0
H2063 H 0.76865 0.6252 0.92785 0.0
H2064 H 0.79237 0.69689 0.90601 0.0
H2065 H 0.72364 0.66223 0.86963 0.0
H2066 H 0.72989 0.66152 0.89541 0.0
H2067 H 0.73945 0.64682 0.87786 0.0
C2068 C 0.76425 0.66887 0.94806 0.0
C2069 C 0.76587 0.64958 0.9472 0.0
C2070 C 0.76432 0.67847 0.93117 0.0
C2071 C 0.76584 0.66899 0.913 0.0
C2072 C 0.76728 0.64967 0.91198 0.0
H2073 H 0.76468 0.70459 0.79573 0.0
H2074 H 0.76615 0.68758 0.82495 0.0
C2075 C 0.7673 0.64002 0.92896 0.0
C2076 C 0.76633 0.67959 0.89531 0.0
H2077 H 0.74166 0.68416 0.85218 0.0
C2078 C 0.7813 0.69413 0.89421 0.0
C2079 C 0.75187 0.67596 0.87999 0.0
C2080 C 0.73519 0.66089 0.88072 0.0
C2081 C 0.78235 0.70496 0.87803 0.0
C2082 C 0.76778 0.70146 0.86276 0.0
C2083 C 0.75282 0.68688 0.8639 0.0
C2084 C 0.76793 0.71234 0.8452 0.0
C2085 C 0.79928 0.71971 0.87726 0.0
C2086 C 0.76856 0.73205 0.84678 0.0
C2087 C 0.76791 0.74194 0.82998 0.0
C2088 C 0.76631 0.73223 0.81132 0.0
C2089 C 0.76583 0.71254 0.80986 0.0
C2090 C 0.76665 0.70275 0.82657 0.0
H2091 H 0.81129 0.71708 0.88712 0.0
H2092 H 0.80365 0.72016 0.86218 0.0
H2093 H 0.79582 0.73376 0.88203 0.0
H2094 H 0.76913 0.73974 0.86098 0.0
H2095 H 0.76812 0.75706 0.83159 0.0
H2096 H 0.79645 0.07513 0.01505 0.0
H2097 H 0.82045 0.05479 0.01139 0.0
H2098 H 0.86263 0.10399 0.0133 0.0
H2099 H 0.83867 0.12431 0.01622 0.0
H2100 H 0.86681 0.07844 0.98432 0.0
H2101 H 0.85798 0.04308 0.05282 0.0
H2102 H 0.83728 0.04043 0.03627 0.0
H2103 H 0.84715 0.06338 0.04765 0.0
C2104 C 0.81087 0.08159 0.01487 0.0
C2105 C 0.81571 0.10131 0.01603 0.0
C2106 C 0.82458 0.06994 0.01283 0.0
C2107 C 0.84339 0.07785 0.01231 0.0
C2108 C 0.84821 0.09756 0.01363 0.0
H2109 H 0.9463 0.04466 0.04129 0.0
H2110 H 0.91539 0.05357 0.03833 0.0
C2111 C 0.83451 0.10917 0.01539 0.0
C2112 C 0.8582 0.06581 0.0102 0.0
H2113 H 0.88067 0.03392 0.0331 0.0
C2114 C 0.86976 0.06857 0.99488 0.0
C2115 C 0.86198 0.05291 0.02398 0.0
C2116 C 0.85057 0.04984 0.04121 0.0
C2117 C 0.88556 0.05954 0.99352 0.0
C2118 C 0.88959 0.04697 0.00757 0.0
C2119 C 0.87745 0.04345 0.02227 0.0
C2120 C 0.90775 0.0398 0.00924 0.0
C2121 C 0.8984 0.06447 0.97782 0.0
C2122 C 0.91372 0.02869 0.99398 0.0
C2123 C 0.93172 0.02366 0.99554 0.0
C2124 C 0.94387 0.02962 0.01243 0.0
C2125 C 0.93744 0.04 0.02794 0.0
C2126 C 0.91966 0.04504 0.02634 0.0
H2127 H 0.89499 0.07687 0.97036 0.0
H2128 H 0.91318 0.06755 0.98407 0.0
H2129 H 0.89707 0.05231 0.96666 0.0
H2130 H 0.90461 0.02416 0.98079 0.0
H2131 H 0.93624 0.01554 0.98342 0.0
H2132 H 0.30483 0.43239 0.04118 0.0
H2133 H 0.33431 0.45446 0.04383 0.0
H2134 H 0.36186 0.41085 0.01797 0.0
H2135 H 0.33284 0.38882 0.01544 0.0
H2136 H 0.38107 0.42988 0.05252 0.0
H2137 H 0.36121 0.47998 -0.00046 0.0
H2138 H 0.34617 0.47509 0.01872 0.0
H2139 H 0.34796 0.45677 0.00016 0.0
C2140 C 0.31715 0.42753 0.03599 0.0
C2141 C 0.31638 0.40876 0.02813 0.0
C2142 C 0.33397 0.4402 0.03743 0.0
C2143 C 0.35026 0.43434 0.03096 0.0
C2144 C 0.34947 0.41569 0.02306 0.0
H2145 H 0.46277 0.46348 0.01039 0.0
H2146 H 0.43081 0.45039 0.01516 0.0
C2147 C 0.33279 0.40309 0.02163 0.0
C2148 C 0.36844 0.44718 0.03276 0.0
H2149 H 0.39239 0.48492 0.01328 0.0
C2150 C 0.38347 0.44208 0.04414 0.0
C2151 C 0.37155 0.46317 0.02194 0.0
C2152 C 0.35595 0.46912 0.00928 0.0
C2153 C 0.40163 0.45202 0.04439 0.0
C2154 C 0.40495 0.46734 0.03273 0.0
C2155 C 0.38979 0.47314 0.02217 0.0
C2156 C 0.42427 0.47598 0.02969 0.0
C2157 C 0.41725 0.4457 0.05673 0.0
C2158 C 0.43114 0.49494 0.03585 0.0
C2159 C 0.44963 0.50258 0.03318 0.0
C2160 C 0.46145 0.49137 0.02415 0.0
C2161 C 0.45425 0.47252 0.01763 0.0
C2162 C 0.43592 0.46495 0.02036 0.0
H2163 H 0.41187 0.43772 0.06886 0.0
H2164 H 0.42445 0.43627 0.04748 0.0
H2165 H 0.42769 0.45793 0.06297 0.0
H2166 H 0.42229 0.50373 0.04295 0.0
H2167 H 0.45468 0.51717 0.03825 0.0
H2168 H 0.334 0.53921 0.741 0.0
H2169 H 0.31773 0.56661 0.74373 0.0
H2170 H 0.37054 0.60302 0.7575 0.0
H2171 H 0.38686 0.57559 0.75535 0.0
H2172 H 0.34532 0.61133 0.7822 0.0
H2173 H 0.31299 0.60613 0.70606 0.0
H2174 H 0.30713 0.58513 0.71824 0.0
H2175 H 0.33097 0.59258 0.71336 0.0
C2176 C 0.34218 0.55308 0.74436 0.0
C2177 C 0.36175 0.55523 0.74784 0.0
C2178 C 0.33285 0.56876 0.74586 0.0
C2179 C 0.3429 0.58696 0.75057 0.0
C2180 C 0.36246 0.58914 0.75382 0.0
H2181 H 0.30946 0.69432 0.73537 0.0
H2182 H 0.32115 0.66437 0.7338 0.0
C2183 C 0.37179 0.57345 0.75249 0.0
C2184 C 0.33306 0.60368 0.75273 0.0
H2185 H 0.30352 0.62869 0.72843 0.0
C2186 C 0.33616 0.61513 0.77044 0.0
C2187 C 0.32117 0.60869 0.73736 0.0
C2188 C 0.31798 0.59761 0.71762 0.0
C2189 C 0.32792 0.63154 0.77314 0.0
C2190 C 0.31587 0.63643 0.75785 0.0
C2191 C 0.31257 0.62483 0.74023 0.0
C2192 C 0.30799 0.65443 0.75903 0.0
C2193 C 0.33278 0.64386 0.79205 0.0
C2194 C 0.2964 0.65884 0.77363 0.0
C2195 C 0.28971 0.67623 0.7747 0.0
C2196 C 0.29443 0.6894 0.76109 0.0
C2197 C 0.30563 0.68464 0.74624 0.0
C2198 C 0.31231 0.66743 0.74524 0.0
H2199 H 0.34538 0.64041 0.80038 0.0
H2200 H 0.33533 0.659 0.78929 0.0
H2201 H 0.32094 0.64169 0.80132 0.0
H2202 H 0.29253 0.64887 0.7842 0.0
H2203 H 0.28102 0.6794 0.78622 0.0
H2204 H 0.20145 0.64203 0.52478 0.0
H2205 H 0.17079 0.62298 0.5246 0.0
H2206 H 0.19629 0.57259 0.52618 0.0
H2207 H 0.22726 0.59157 0.52646 0.0
H2208 H 0.1565 0.59278 0.49466 0.0
H2209 H 0.15886 0.56884 0.56982 0.0
H2210 H 0.17423 0.58924 0.56362 0.0
H2211 H 0.1782 0.56601 0.55555 0.0
C2212 C 0.20066 0.62692 0.52527 0.0
C2213 C 0.21689 0.61835 0.52558 0.0
C2214 C 0.18309 0.61606 0.52518 0.0
C2215 C 0.18131 0.59643 0.52552 0.0
C2216 C 0.19742 0.58777 0.52619 0.0
H2217 H 0.07369 0.5199 0.51609 0.0
H2218 H 0.10748 0.5313 0.52097 0.0
C2219 C 0.21508 0.59865 0.52626 0.0
C2220 C 0.16242 0.58516 0.52387 0.0
H2221 H 0.13074 0.55971 0.54971 0.0
C2222 C 0.15092 0.5854 0.50663 0.0
C2223 C 0.1553 0.57538 0.53943 0.0
C2224 C 0.16718 0.57483 0.55824 0.0
C2225 C 0.13226 0.57664 0.50474 0.0
C2226 C 0.12481 0.56772 0.52067 0.0
C2227 C 0.13651 0.56669 0.5376 0.0
C2228 C 0.10457 0.56074 0.52029 0.0
C2229 C 0.12057 0.57725 0.48578 0.0
C2230 C 0.09185 0.57359 0.51909 0.0
C2231 C 0.0727 0.56718 0.51627 0.0
C2232 C 0.06587 0.54778 0.51475 0.0
C2233 C 0.07856 0.53494 0.51721 0.0
C2234 C 0.09783 0.5414 0.51995 0.0
H2235 H 0.1294 0.57981 0.47348 0.0
H2236 H 0.11076 0.56388 0.48207 0.0
H2237 H 0.11222 0.58894 0.48731 0.0
H2238 H 0.09679 0.5886 0.51967 0.0
H2239 H 0.06328 0.57744 0.51466 0.0
H2240 H 0.64134 0.9362 0.78672 0.0
H2241 H 0.65983 0.91068 0.78978 0.0
H2242 H 0.70368 0.94171 0.7609 0.0
H2243 H 0.68541 0.96762 0.75827 0.0
H2244 H 0.671 0.8891 0.76153 0.0
H2245 H 0.73329 0.92631 0.80754 0.0
H2246 H 0.71197 0.93626 0.80405 0.0
H2247 H 0.7284 0.93756 0.78573 0.0
C2248 C 0.65495 0.93765 0.78108 0.0
C2249 C 0.66192 0.95393 0.77225 0.0
C2250 C 0.66554 0.92307 0.7829 0.0
C2251 C 0.68329 0.92441 0.7759 0.0
C2252 C 0.69024 0.94058 0.7669 0.0
H2253 H 0.73588 0.82982 0.74135 0.0
H2254 H 0.72322 0.85937 0.74431 0.0
C2255 C 0.6797 0.95528 0.76521 0.0
C2256 C 0.69388 0.9083 0.77692 0.0
H2257 H 0.73584 0.89579 0.79256 0.0
C2258 C 0.68512 0.89057 0.76845 0.0
C2259 C 0.71223 0.91014 0.7862 0.0
C2260 C 0.72197 0.92855 0.79657 0.0
C2261 C 0.69431 0.87477 0.76856 0.0
C2262 C 0.71296 0.8768 0.77696 0.0
C2263 C 0.72161 0.89436 0.78594 0.0
C2264 C 0.72367 0.86081 0.77581 0.0
C2265 C 0.68391 0.85598 0.7597 0.0
C2266 C 0.72917 0.85244 0.79268 0.0
C2267 C 0.73669 0.83556 0.79105 0.0
C2268 C 0.73862 0.8269 0.77251 0.0
C2269 C 0.73429 0.83606 0.75581 0.0
C2270 C 0.72703 0.85292 0.75746 0.0
H2271 H 0.66853 0.85572 0.7588 0.0
H2272 H 0.68793 0.85331 0.74464 0.0
H2273 H 0.68743 0.84432 0.76831 0.0
H2274 H 0.72676 0.85842 0.80698 0.0
H2275 H 0.73989 0.82874 0.80412 0.0
H2276 H 0.72924 0.94411 0.53921 0.0
H2277 H 0.70119 0.95941 0.5368 0.0
H2278 H 0.66669 0.90499 0.52609 0.0
H2279 H 0.69463 0.88957 0.52825 0.0
H2280 H 0.67098 0.9522 0.50152 0.0
H2281 H 0.64624 0.93584 0.5737 0.0
H2282 H 0.67046 0.937 0.56876 0.0
H2283 H 0.65372 0.91695 0.55918 0.0
C2284 C 0.71568 0.93538 0.5365 0.0
C2285 C 0.71417 0.9156 0.53398 0.0
C2286 C 0.69968 0.94416 0.53504 0.0
C2287 C 0.68189 0.93333 0.53132 0.0
C2288 C 0.68031 0.9136 0.52907 0.0
H2289 H 0.56698 0.9482 0.52331 0.0
H2290 H 0.59738 0.93772 0.52549 0.0
C2291 C 0.69629 0.90481 0.53032 0.0
C2292 C 0.66491 0.94256 0.52949 0.0
H2293 H 0.62577 0.94878 0.55206 0.0
C2294 C 0.66112 0.95163 0.5126 0.0
C2295 C 0.65213 0.94174 0.54396 0.0
C2296 C 0.65578 0.93248 0.56253 0.0
C2297 C 0.64446 0.95928 0.50945 0.0
C2298 C 0.63149 0.95824 0.52385 0.0
C2299 C 0.63563 0.94959 0.54098 0.0
C2300 C 0.613 0.96487 0.52109 0.0
C2301 C 0.64058 0.96764 0.49038 0.0
C2302 C 0.61147 0.98366 0.51761 0.0
C2303 C 0.59389 0.98968 0.51604 0.0
C2304 C 0.57761 0.9771 0.51833 0.0
C2305 C 0.57923 0.95831 0.52159 0.0
C2306 C 0.59665 0.95228 0.52287 0.0
H2307 H 0.64942 0.96298 0.47905 0.0
H2308 H 0.62568 0.9637 0.48474 0.0
H2309 H 0.64373 0.98324 0.49276 0.0
H2310 H 0.62387 0.99379 0.51659 0.0
H2311 H 0.5931 0.00428 0.51372 0.0
H2312 H 0.34211 0.46478 0.74541 0.0
H2313 H 0.31944 0.43575 0.74418 0.0
H2314 H 0.3644 0.40386 0.75525 0.0
H2315 H 0.38707 0.43255 0.75644 0.0
H2316 H 0.33654 0.38765 0.72389 0.0
H2317 H 0.30615 0.4069 0.79311 0.0
H2318 H 0.30724 0.42364 0.77489 0.0
H2319 H 0.32845 0.41864 0.78708 0.0
C2320 C 0.34719 0.45158 0.74752 0.0
C2321 C 0.36646 0.45107 0.75111 0.0
C2322 C 0.33419 0.43503 0.74689 0.0
C2323 C 0.34025 0.41769 0.74978 0.0
C2324 C 0.35943 0.4171 0.75299 0.0
H2325 H 0.30409 0.30941 0.78262 0.0
H2326 H 0.31719 0.34179 0.77792 0.0
C2327 C 0.37239 0.43357 0.75372 0.0
C2328 C 0.32679 0.40005 0.74981 0.0
H2329 H 0.29562 0.37656 0.77768 0.0
C2330 C 0.32732 0.38531 0.73543 0.0
C2331 C 0.3149 0.39704 0.76499 0.0
C2332 C 0.31411 0.41229 0.78101 0.0
C2333 C 0.31669 0.36745 0.73617 0.0
C2334 C 0.30528 0.36428 0.75168 0.0
C2335 C 0.30427 0.37916 0.76572 0.0
C2336 C 0.29629 0.34504 0.75489 0.0
C2337 C 0.31842 0.35175 0.72099 0.0
C2338 C 0.28001 0.33623 0.74361 0.0
C2339 C 0.27236 0.31761 0.74631 0.0
C2340 C 0.28104 0.30753 0.76018 0.0
C2341 C 0.29715 0.31664 0.77165 0.0
C2342 C 0.30463 0.3352 0.76907 0.0
H2343 H 0.32834 0.35637 0.71016 0.0
H2344 H 0.32325 0.3398 0.7282 0.0
H2345 H 0.30452 0.34646 0.71311 0.0
H2346 H 0.27337 0.34367 0.7326 0.0
H2347 H 0.25994 0.311 0.73727 0.0
H2348 H 0.18025 0.54294 0.25062 0.0
H2349 H 0.2018 0.57231 0.2489 0.0
H2350 H 0.16204 0.60413 0.27353 0.0
H2351 H 0.14036 0.57503 0.27521 0.0
H2352 H 0.18519 0.61033 0.23018 0.0
H2353 H 0.22159 0.61494 0.3049 0.0
H2354 H 0.21298 0.59263 0.29103 0.0
H2355 H 0.1969 0.6061 0.30181 0.0
C2356 C 0.1761 0.55619 0.25573 0.0
C2357 C 0.15854 0.55667 0.26297 0.0
C2358 C 0.18842 0.57289 0.2547 0.0
C2359 C 0.18341 0.59023 0.26111 0.0
C2360 C 0.16605 0.59078 0.26853 0.0
H2361 H 0.19965 0.70571 0.26629 0.0
H2362 H 0.19102 0.67175 0.25868 0.0
C2363 C 0.15369 0.57416 0.26941 0.0
C2364 C 0.19593 0.60804 0.25976 0.0
H2365 H 0.22474 0.64281 0.28824 0.0
C2366 C 0.19421 0.61732 0.24267 0.0
C2367 C 0.20773 0.61691 0.27604 0.0
C2368 C 0.21009 0.60718 0.29452 0.0
C2369 C 0.20309 0.63589 0.24194 0.0
C2370 C 0.21372 0.64532 0.25878 0.0
C2371 C 0.21655 0.63551 0.27536 0.0
C2372 C 0.21948 0.66596 0.26059 0.0
C2373 C 0.20039 0.64558 0.22349 0.0
C2374 C 0.23838 0.67392 0.26405 0.0
C2375 C 0.24337 0.69342 0.26828 0.0
C2376 C 0.22948 0.70507 0.26952 0.0
C2377 C 0.21063 0.69707 0.26547 0.0
C2378 C 0.20569 0.67769 0.26099 0.0
H2379 H 0.1969 0.63521 0.2105 0.0
H2380 H 0.18866 0.65377 0.22467 0.0
H2381 H 0.21314 0.65549 0.22123 0.0
H2382 H 0.24918 0.66501 0.264 0.0
H2383 H 0.25801 0.69924 0.2715 0.0
H2384 H 0.5204 0.69927 0.39729 0.0
H2385 H 0.5274 0.66901 0.40782 0.0
H2386 H 0.50968 0.68288 0.46471 0.0
H2387 H 0.50279 0.71297 0.45454 0.0
H2388 H 0.54399 0.66712 0.46511 0.0
H2389 H 0.4857 0.62487 0.41631 0.0
H2390 H 0.502 0.64106 0.40499 0.0
H2391 H 0.4871 0.64997 0.42188 0.0
C2392 C 0.51805 0.69591 0.41206 0.0
C2393 C 0.51085 0.70853 0.42498 0.0
C2394 C 0.52203 0.67861 0.41803 0.0
C2395 C 0.5189 0.67369 0.43699 0.0
C2396 C 0.51219 0.68642 0.45002 0.0
H2397 H 0.5156 0.58077 0.50863 0.0
H2398 H 0.52015 0.61209 0.49634 0.0
C2399 C 0.50816 0.70361 0.44409 0.0
C2400 C 0.52184 0.65503 0.44328 0.0
H2401 H 0.50336 0.60841 0.43697 0.0
C2402 C 0.53526 0.65422 0.45885 0.0
C2403 C 0.51038 0.63829 0.4351 0.0
C2404 C 0.49537 0.63846 0.41873 0.0
C2405 C 0.53742 0.63706 0.46661 0.0
C2406 C 0.52556 0.6204 0.45883 0.0
C2407 C 0.51247 0.62119 0.44292 0.0
C2408 C 0.52578 0.60203 0.46729 0.0
C2409 C 0.55238 0.63696 0.48301 0.0
C2410 C 0.52757 0.586 0.45514 0.0
C2411 C 0.52469 0.56815 0.46204 0.0
C2412 C 0.52005 0.56596 0.48126 0.0
C2413 C 0.51934 0.58208 0.49381 0.0
C2414 C 0.52201 0.59999 0.48681 0.0
H2415 H 0.56379 0.64908 0.483 0.0
H2416 H 0.54616 0.63818 0.49719 0.0
H2417 H 0.55849 0.62369 0.48199 0.0
H2418 H 0.53047 0.58723 0.44005 0.0
H2419 H 0.52545 0.55596 0.45208 0.0
H2420 H 0.59497 0.2944 0.64318 0.0
H2421 H 0.62333 0.2939 0.66441 0.0
H2422 H 0.59016 0.28 0.71211 0.0
H2423 H 0.5616 0.28011 0.6909 0.0
H2424 H 0.63821 0.3135 0.69989 0.0
H2425 H 0.62058 0.2366 0.70721 0.0
H2426 H 0.60817 0.24849 0.68943 0.0
H2427 H 0.60333 0.25054 0.71463 0.0
C2428 C 0.59363 0.2914 0.65823 0.0
C2429 C 0.57592 0.28707 0.66523 0.0
C2430 C 0.60991 0.29114 0.67036 0.0
C2431 C 0.60885 0.28657 0.68973 0.0
C2432 C 0.59128 0.28316 0.69708 0.0
H2433 H 0.7083 0.29125 0.77281 0.0
H2434 H 0.67785 0.29638 0.75788 0.0
C2435 C 0.57496 0.28334 0.68494 0.0
C2436 C 0.62614 0.28459 0.70184 0.0
H2437 H 0.64857 0.25229 0.72418 0.0
C2438 C 0.64043 0.30017 0.70536 0.0
C2439 C 0.62908 0.26711 0.70875 0.0
C2440 C 0.61457 0.24966 0.70471 0.0
C2441 C 0.65765 0.29868 0.71545 0.0
C2442 C 0.66055 0.28121 0.72232 0.0
C2443 C 0.6462 0.26571 0.71902 0.0
C2444 C 0.67887 0.27829 0.7316 0.0
C2445 C 0.67288 0.31556 0.71805 0.0
C2446 C 0.68935 0.26625 0.72188 0.0
C2447 C 0.70667 0.26333 0.73029 0.0
C2448 C 0.71383 0.27227 0.74874 0.0
C2449 C 0.7032 0.28419 0.75858 0.0
C2450 C 0.68585 0.2872 0.75005 0.0
H2451 H 0.66943 0.32713 0.70926 0.0
H2452 H 0.67497 0.32102 0.73367 0.0
H2453 H 0.68629 0.31149 0.71382 0.0
H2454 H 0.68417 0.25921 0.70765 0.0
H2455 H 0.71442 0.254 0.72232 0.0
H2456 H 0.01373 0.31865 0.88476 0.0
H2457 H 0.01106 0.34988 0.90029 0.0
H2458 H 0.9926 0.32427 0.95152 0.0
H2459 H 0.99562 0.29328 0.9364 0.0
H2460 H 0.9811 0.36522 0.91657 0.0
H2461 H 0.0391 0.36139 0.97288 0.0
H2462 H 0.03423 0.34523 0.95119 0.0
H2463 H 0.02024 0.34205 0.97148 0.0
C2464 C 0.00896 0.31971 0.89926 0.0
C2465 C 0.00513 0.30358 0.90947 0.0
C2466 C 0.00742 0.33751 0.90809 0.0
C2467 C 0.00201 0.33937 0.9272 0.0
C2468 C 0.99722 0.32317 0.93695 0.0
H2469 H 0.00424 0.43896 0.00867 0.0
H2470 H 0.99695 0.40665 0.99306 0.0
C2471 C 0.99889 0.30546 0.92824 0.0
C2472 C 0.00217 0.35827 0.93733 0.0
H2473 H 0.0233 0.38768 0.97636 0.0
C2474 C 0.99029 0.37015 0.92965 0.0
C2475 C 0.01415 0.3646 0.95444 0.0
C2476 C 0.02778 0.35275 0.96293 0.0
C2477 C 0.99007 0.38826 0.93868 0.0
C2478 C 0.00224 0.39467 0.95562 0.0
C2479 C 0.01387 0.38265 0.96347 0.0
C2480 C 0.00439 0.41431 0.96455 0.0
C2481 C 0.97677 0.40033 0.93004 0.0
C2482 C 0.0109 0.42925 0.95368 0.0
C2483 C 0.01509 0.4476 0.96252 0.0
C2484 C 0.01299 0.45139 0.98248 0.0
C2485 C 0.00596 0.43649 0.99327 0.0
C2486 C 0.0018 0.41805 0.98438 0.0
H2487 H 0.96468 0.3916 0.92123 0.0
H2488 H 0.97147 0.40917 0.94161 0.0
H2489 H 0.98423 0.40983 0.92022 0.0
H2490 H 0.01342 0.42663 0.93849 0.0
H2491 H 0.02046 0.45875 0.95377 0.0
H2492 H 0.98774 0.74789 0.19428 0.0
H2493 H 0.95938 0.74147 0.21134 0.0
H2494 H 0.92699 0.75842 0.16243 0.0
H2495 H 0.95508 0.76432 0.14514 0.0
H2496 H 0.93736 0.76593 0.2232 0.0
H2497 H 0.89475 0.71049 0.17221 0.0
H2498 H 0.91945 0.71744 0.1705 0.0
H2499 H 0.90273 0.73081 0.15983 0.0
C2500 C 0.9745 0.74994 0.18704 0.0
C2501 C 0.97362 0.75652 0.16832 0.0
C2502 C 0.95832 0.74629 0.19682 0.0
C2503 C 0.94097 0.74914 0.18805 0.0
C2504 C 0.94008 0.75557 0.16929 0.0
H2505 H 0.83543 0.77075 0.21511 0.0
H2506 H 0.86566 0.76708 0.2036 0.0
C2507 C 0.9562 0.75907 0.15945 0.0
C2508 C 0.92402 0.74679 0.19897 0.0
H2509 H 0.87776 0.72792 0.19426 0.0
C2510 C 0.92443 0.75728 0.21708 0.0
C2511 C 0.90716 0.73541 0.19108 0.0
C2512 C 0.90604 0.72275 0.17243 0.0
C2513 C 0.90817 0.7576 0.22685 0.0
C2514 C 0.89115 0.74717 0.2183 0.0
C2515 C 0.89088 0.73597 0.20072 0.0
C2516 C 0.87312 0.74944 0.2261 0.0
C2517 C 0.90899 0.76985 0.24572 0.0
C2518 C 0.86737 0.74078 0.2427 0.0
C2519 C 0.84993 0.74279 0.24938 0.0
C2520 C 0.83808 0.75354 0.23953 0.0
C2521 C 0.84413 0.76235 0.22307 0.0
C2522 C 0.86142 0.76027 0.21642 0.0
H2523 H 0.92327 0.77753 0.25021 0.0
H2524 H 0.89922 0.78026 0.24413 0.0
H2525 H 0.90444 0.76098 0.25752 0.0
H2526 H 0.87626 0.73231 0.25031 0.0
H2527 H 0.84565 0.7358 0.26206 0.0
H2528 H 0.50611 0.29111 0.09387 0.0
H2529 H 0.51206 0.32007 0.07779 0.0
H2530 H 0.52369 0.3522 0.13391 0.0
H2531 H 0.51689 0.32304 0.15022 0.0
H2532 H 0.50123 0.36787 0.11174 0.0
H2533 H 0.55828 0.35311 0.06754 0.0
H2534 H 0.53897 0.33438 0.06252 0.0
H2535 H 0.55092 0.33869 0.08673 0.0
C2536 C 0.51017 0.3043 0.10284 0.0
C2537 C 0.51105 0.30481 0.12333 0.0
C2538 C 0.51379 0.32087 0.09359 0.0
C2539 C 0.5188 0.33833 0.10458 0.0
C2540 C 0.52002 0.33887 0.1251 0.0
H2541 H 0.54273 0.44024 0.04165 0.0
H2542 H 0.54681 0.41339 0.06072 0.0
C2543 C 0.51613 0.32224 0.13441 0.0
C2544 C 0.52087 0.35598 0.09449 0.0
H2545 H 0.53941 0.37581 0.05534 0.0
C2546 C 0.50986 0.36974 0.09964 0.0
C2547 C 0.53241 0.35873 0.07893 0.0
C2548 C 0.54596 0.34551 0.07379 0.0
C2549 C 0.50923 0.38555 0.089 0.0
C2550 C 0.51935 0.38731 0.07228 0.0
C2551 C 0.53125 0.3742 0.06783 0.0
C2552 C 0.51728 0.40239 0.05904 0.0
C2553 C 0.49766 0.40016 0.09584 0.0
C2554 C 0.49947 0.40456 0.05094 0.0
C2555 C 0.49711 0.41993 0.0403 0.0
C2556 C 0.51258 0.43312 0.03706 0.0
C2557 C 0.53059 0.43017 0.04382 0.0
C2558 C 0.53291 0.41492 0.05481 0.0
H2559 H 0.4963 0.40021 0.1118 0.0
H2560 H 0.50385 0.41453 0.09262 0.0
H2561 H 0.48338 0.39678 0.08828 0.0
H2562 H 0.48728 0.39468 0.05339 0.0
H2563 H 0.4831 0.42182 0.03511 0.0
H2564 H 0.95121 0.28939 0.39288 0.0
H2565 H 0.92427 0.28852 0.36917 0.0
H2566 H 0.95553 0.26844 0.32337 0.0
H2567 H 0.98255 0.26902 0.34699 0.0
H2568 H 0.92027 0.30652 0.33399 0.0
H2569 H 0.90857 0.22831 0.32066 0.0
H2570 H 0.92362 0.2406 0.34109 0.0
H2571 H 0.93158 0.23983 0.31703 0.0
C2572 C 0.95244 0.28483 0.37777 0.0
C2573 C 0.96905 0.27909 0.37192 0.0
C2574 C 0.93701 0.28439 0.36422 0.0
C2575 C 0.93782 0.27817 0.34458 0.0
C2576 C 0.95451 0.27298 0.33853 0.0
H2577 H 0.84659 0.25071 0.25204 0.0
H2578 H 0.87798 0.25857 0.26888 0.0
C2579 C 0.96997 0.27339 0.35207 0.0
C2580 C 0.92097 0.27665 0.33062 0.0
H2581 H 0.88834 0.24472 0.30274 0.0
C2582 C 0.91332 0.29303 0.32706 0.0
C2583 C 0.91198 0.25904 0.32155 0.0
C2584 C 0.91921 0.24089 0.32534 0.0
C2585 C 0.89683 0.29226 0.31475 0.0
C2586 C 0.88757 0.27458 0.30609 0.0
C2587 C 0.89548 0.25827 0.30931 0.0
C2588 C 0.86904 0.27236 0.29473 0.0
C2589 C 0.88955 0.3104 0.31109 0.0
C2590 C 0.8536 0.27781 0.30349 0.0
C2591 C 0.83567 0.27344 0.29386 0.0
C2592 C 0.83275 0.26329 0.27536 0.0
C2593 C 0.84832 0.25853 0.26627 0.0
C2594 C 0.86628 0.26298 0.27589 0.0
H2595 H 0.90097 0.32265 0.31315 0.0
H2596 H 0.88258 0.30979 0.2961 0.0
H2597 H 0.87921 0.31285 0.32169 0.0
H2598 H 0.85528 0.28467 0.31817 0.0
H2599 H 0.824 0.27726 0.30134 0.0
H2600 H 0.98289 0.71318 0.57231 0.0
H2601 H 0.97795 0.68062 0.558 0.0
H2602 H 0.99294 0.66184 0.61431 0.0
H2603 H 0.99733 0.69452 0.62887 0.0
H2604 H 0.00652 0.66111 0.55696 0.0
H2605 H 0.94985 0.62125 0.59368 0.0
H2606 H 0.95387 0.6467 0.59487 0.0
H2607 H 0.96815 0.6344 0.61036 0.0
C2608 C 0.98461 0.70204 0.58175 0.0
C2609 C 0.99057 0.70632 0.60166 0.0
C2610 C 0.9818 0.68346 0.57355 0.0
C2611 C 0.98505 0.66878 0.58505 0.0
C2612 C 0.98999 0.67288 0.60521 0.0
H2613 H 0.00769 0.55611 0.5609 0.0
H2614 H 0.0023 0.58667 0.57507 0.0
C2615 C 0.99254 0.69154 0.61352 0.0
C2616 C 0.98568 0.64981 0.57539 0.0
H2617 H 0.96849 0.603 0.57514 0.0
C2618 C 0.99802 0.64843 0.56077 0.0
C2619 C 0.97471 0.63328 0.5805 0.0
C2620 C 0.96077 0.63394 0.59559 0.0
C2621 C 0.99995 0.63098 0.55138 0.0
C2622 C 0.98909 0.61445 0.55658 0.0
C2623 C 0.97669 0.61576 0.57112 0.0
C2624 C 0.99129 0.5956 0.54783 0.0
C2625 C 0.01406 0.63029 0.53643 0.0
C2626 C 0.98667 0.59043 0.5278 0.0
C2627 C 0.98979 0.57292 0.51956 0.0
C2628 C 0.99756 0.56035 0.53127 0.0
C2629 C 0.00182 0.56551 0.5514 0.0
C2630 C 0.99866 0.58293 0.55959 0.0
H2631 H 0.02386 0.64375 0.53695 0.0
H2632 H 0.0223 0.61867 0.53873 0.0
H2633 H 0.00661 0.62758 0.52159 0.0
H2634 H 0.98077 0.6 0.51854 0.0
H2635 H 0.98626 0.56931 0.50406 0.0
H2636 H 0.54969 0.7521 0.83798 0.0
H2637 H 0.57665 0.74681 0.82015 0.0
H2638 H 0.61228 0.75729 0.874 0.0
H2639 H 0.58544 0.76258 0.89194 0.0
H2640 H 0.60925 0.77366 0.8189 0.0
H2641 H 0.62633 0.70811 0.84857 0.0
H2642 H 0.60387 0.71578 0.85036 0.0
H2643 H 0.62354 0.72619 0.86704 0.0
C2644 C 0.56322 0.75302 0.84608 0.0
C2645 C 0.56543 0.75773 0.8664 0.0
C2646 C 0.57861 0.75002 0.83585 0.0
C2647 C 0.59642 0.75143 0.84577 0.0
C2648 C 0.5986 0.75579 0.8661 0.0
H2649 H 0.71082 0.76059 0.82958 0.0
H2650 H 0.67916 0.7556 0.83943 0.0
C2651 C 0.58326 0.7589 0.87632 0.0
C2652 C 0.613 0.74966 0.83481 0.0
H2653 H 0.65021 0.72584 0.83239 0.0
C2654 C 0.61807 0.76302 0.82155 0.0
C2655 C 0.62441 0.73572 0.83828 0.0
C2656 C 0.6192 0.72051 0.8517 0.0
C2657 C 0.63486 0.76353 0.81256 0.0
C2658 C 0.64668 0.75004 0.81665 0.0
C2659 C 0.64114 0.73615 0.82924 0.0
C2660 C 0.66578 0.75148 0.80997 0.0
C2661 C 0.64032 0.77916 0.79968 0.0
C2662 C 0.66888 0.75036 0.79003 0.0
C2663 C 0.68716 0.7533 0.78428 0.0
C2664 C 0.70254 0.75737 0.7984 0.0
C2665 C 0.69931 0.75766 0.81829 0.0
C2666 C 0.68118 0.75474 0.82398 0.0
H2667 H 0.63132 0.79035 0.80089 0.0
H2668 H 0.65509 0.78572 0.8035 0.0
H2669 H 0.63895 0.77324 0.78422 0.0
H2670 H 0.6572 0.74751 0.77896 0.0
H2671 H 0.6892 0.75291 0.76885 0.0
H2672 H 0.42492 0.48465 0.69398 0.0
H2673 H 0.44013 0.49315 0.66485 0.0
H2674 H 0.42403 0.54848 0.67148 0.0
H2675 H 0.40822 0.53977 0.70069 0.0
H2676 H 0.42223 0.53367 0.63209 0.0
H2677 H 0.49027 0.52808 0.67104 0.0
H2678 H 0.47395 0.50687 0.67144 0.0
H2679 H 0.46931 0.52858 0.68345 0.0
C2680 C 0.4243 0.49852 0.68904 0.0
C2681 C 0.41555 0.51162 0.69967 0.0
C2682 C 0.43313 0.50342 0.67249 0.0
C2683 C 0.43376 0.52165 0.66638 0.0
C2684 C 0.42392 0.53441 0.67612 0.0
H2685 H 0.51874 0.54493 0.58294 0.0
H2686 H 0.50091 0.54986 0.61131 0.0
C2687 C 0.4148 0.5294 0.69269 0.0
C2688 C 0.44545 0.52724 0.65037 0.0
H2689 H 0.48923 0.52612 0.6359 0.0
C2690 C 0.43696 0.53236 0.63299 0.0
C2691 C 0.46481 0.52613 0.65172 0.0
C2692 C 0.47516 0.52233 0.67051 0.0
C2693 C 0.44701 0.53497 0.61648 0.0
C2694 C 0.46591 0.53189 0.61726 0.0
C2695 C 0.4747 0.5282 0.6351 0.0
C2696 C 0.47623 0.53051 0.59947 0.0
C2697 C 0.43717 0.54077 0.59833 0.0
C2698 C 0.46845 0.51791 0.58346 0.0
C2699 C 0.47849 0.5152 0.56731 0.0
C2700 C 0.49681 0.52473 0.56684 0.0
C2701 C 0.5047 0.53736 0.58285 0.0
C2702 C 0.49449 0.54022 0.59904 0.0
H2703 H 0.42645 0.54964 0.60215 0.0
H2704 H 0.44711 0.54873 0.58932 0.0
H2705 H 0.42983 0.52799 0.58941 0.0
H2706 H 0.45473 0.5097 0.58364 0.0
H2707 H 0.47194 0.50528 0.55531 0.0
H2708 H 0.76335 0.13175 0.94961 0.0
H2709 H 0.75567 0.14962 0.92175 0.0
H2710 H 0.76296 0.20071 0.96021 0.0
H2711 H 0.77042 0.18317 0.98785 0.0
H2712 H 0.73103 0.19632 0.93298 0.0
H2713 H 0.79624 0.18609 0.89858 0.0
H2714 H 0.78118 0.16514 0.90353 0.0
H2715 H 0.79286 0.18105 0.92345 0.0
C2716 C 0.76317 0.14676 0.95207 0.0
C2717 C 0.76761 0.15608 0.97086 0.0
C2718 C 0.75884 0.15693 0.9362 0.0
C2719 C 0.75892 0.17649 0.93897 0.0
C2720 C 0.7628 0.18563 0.95779 0.0
H2721 H 0.77873 0.26541 0.86425 0.0
H2722 H 0.77729 0.24511 0.89119 0.0
C2723 C 0.76713 0.17556 0.97356 0.0
C2724 C 0.75597 0.18791 0.92237 0.0
H2725 H 0.77704 0.20543 0.88356 0.0
C2726 C 0.74094 0.19818 0.92201 0.0
C2727 C 0.76911 0.19045 0.90831 0.0
C2728 C 0.78585 0.18024 0.90845 0.0
C2729 C 0.7389 0.21123 0.90812 0.0
C2730 C 0.75217 0.21391 0.89424 0.0
C2731 C 0.76695 0.20335 0.89434 0.0
C2732 C 0.75132 0.22784 0.8796 0.0
C2733 C 0.72299 0.22253 0.90879 0.0
C2734 C 0.73686 0.22516 0.86454 0.0
C2735 C 0.73759 0.23676 0.84914 0.0
C2736 C 0.75289 0.25113 0.84851 0.0
C2737 C 0.76676 0.25448 0.86427 0.0
C2738 C 0.76601 0.24285 0.87964 0.0
H2739 H 0.71621 0.22149 0.92268 0.0
H2740 H 0.72798 0.23761 0.90707 0.0
H2741 H 0.71228 0.21714 0.89654 0.0
H2742 H 0.7255 0.21351 0.86417 0.0
H2743 H 0.72667 0.23379 0.83723 0.0
H2744 H 0.09746 0.45656 0.21799 0.0
H2745 H 0.08132 0.44657 0.18543 0.0
H2746 H 0.10715 0.49826 0.1643 0.0
H2747 H 0.12339 0.50797 0.19662 0.0
H2748 H 0.05609 0.46703 0.17104 0.0
H2749 H 0.108 0.46153 0.11738 0.0
H2750 H 0.11363 0.46041 0.14324 0.0
H2751 H 0.11426 0.48286 0.13308 0.0
C2752 C 0.10031 0.46527 0.20607 0.0
C2753 C 0.11184 0.48281 0.2095 0.0
C2754 C 0.09105 0.45964 0.18756 0.0
C2755 C 0.09321 0.47154 0.17235 0.0
C2756 C 0.10568 0.48857 0.1756 0.0
H2757 H 0.04502 0.51628 0.07966 0.0
H2758 H 0.06204 0.50483 0.10694 0.0
C2759 C 0.11493 0.49416 0.19406 0.0
C2760 C 0.08014 0.46817 0.15443 0.0
H2761 H 0.07896 0.47196 0.10535 0.0
C2762 C 0.06097 0.4675 0.15657 0.0
C2763 C 0.08652 0.46866 0.13558 0.0
C2764 C 0.10673 0.4682 0.13218 0.0
C2765 C 0.04831 0.46929 0.14063 0.0
C2766 C 0.05503 0.47154 0.12211 0.0
C2767 C 0.07388 0.47043 0.11965 0.0
C2768 C 0.04371 0.47814 0.106 0.0
C2769 C 0.02818 0.47034 0.14403 0.0
C2770 C 0.02743 0.46708 0.0967 0.0
C2771 C 0.01743 0.47377 0.08114 0.0
C2772 C 0.02379 0.49145 0.07462 0.0
C2773 C 0.03982 0.50257 0.08432 0.0
C2774 C 0.04963 0.496 0.09984 0.0
H2775 H 0.02573 0.47049 0.15976 0.0
H2776 H 0.02388 0.4832 0.13824 0.0
H2777 H 0.01909 0.45792 0.13613 0.0
H2778 H 0.02274 0.45317 0.10114 0.0
H2779 H 0.00525 0.46484 0.07372 0.0
H2780 H 0.7578 0.89117 0.46523 0.0
H2781 H 0.76113 0.87377 0.43401 0.0
H2782 H 0.7762 0.82733 0.46467 0.0
H2783 H 0.77274 0.8445 0.4959 0.0
H2784 H 0.79959 0.84215 0.43069 0.0
H2785 H 0.7226 0.82236 0.4143 0.0
H2786 H 0.73138 0.84654 0.42285 0.0
H2787 H 0.73338 0.82829 0.43892 0.0
C2788 C 0.762 0.87734 0.46533 0.0
C2789 C 0.76492 0.86916 0.483 0.0
C2790 C 0.76386 0.86742 0.44751 0.0
C2791 C 0.76881 0.84927 0.44711 0.0
C2792 C 0.77235 0.84133 0.46473 0.0
H2793 H 0.75665 0.76888 0.34346 0.0
H2794 H 0.76043 0.78178 0.37781 0.0
C2795 C 0.77033 0.85115 0.48253 0.0
C2796 C 0.76952 0.83826 0.42826 0.0
H2797 H 0.7416 0.81442 0.38957 0.0
C2798 C 0.78695 0.83599 0.42171 0.0
C2799 C 0.75298 0.83006 0.41678 0.0
C2800 C 0.73396 0.83176 0.42351 0.0
C2801 C 0.78823 0.82621 0.40355 0.0
C2802 C 0.77168 0.81854 0.39179 0.0
C2803 C 0.75427 0.82029 0.39867 0.0
C2804 C 0.77201 0.80996 0.37163 0.0
C2805 C 0.80722 0.82423 0.39695 0.0
C2806 C 0.77754 0.82148 0.35692 0.0
C2807 C 0.77521 0.81424 0.33738 0.0
C2808 C 0.76744 0.79529 0.3322 0.0
C2809 C 0.76283 0.78348 0.34705 0.0
C2810 C 0.76491 0.79084 0.36663 0.0
H2811 H 0.81832 0.82721 0.40927 0.0
H2812 H 0.80727 0.80981 0.39003 0.0
H2813 H 0.81066 0.83437 0.38589 0.0
H2814 H 0.78283 0.83632 0.36046 0.0
H2815 H 0.77889 0.82367 0.32624 0.0
H2816 H 0.38297 0.50971 0.81785 0.0
H2817 H 0.39876 0.50602 0.8498 0.0
H2818 H 0.44847 0.49698 0.8223 0.0
H2819 H 0.43296 0.50088 0.79047 0.0
H2820 H 0.41646 0.47569 0.86363 0.0
H2821 H 0.46658 0.54197 0.86308 0.0
H2822 H 0.44571 0.53644 0.84646 0.0
H2823 H 0.46579 0.52531 0.84218 0.0
C2824 C 0.39722 0.50684 0.81862 0.0
C2825 C 0.40678 0.50577 0.80169 0.0
C2826 C 0.4062 0.5047 0.83685 0.0
C2827 C 0.42486 0.50152 0.83841 0.0
C2828 C 0.43418 0.49977 0.82145 0.0
H2829 H 0.50125 0.50502 0.94407 0.0
H2830 H 0.48798 0.49842 0.90995 0.0
C2831 C 0.42526 0.50194 0.80326 0.0
C2832 C 0.43476 0.50065 0.85785 0.0
H2833 H 0.47022 0.52398 0.88991 0.0
C2834 C 0.42826 0.48619 0.86937 0.0
C2835 C 0.45025 0.5143 0.86521 0.0
C2836 C 0.45746 0.53049 0.8537 0.0
C2837 C 0.43673 0.48514 0.88819 0.0
C2838 C 0.45187 0.4991 0.89576 0.0
C2839 C 0.45869 0.51323 0.88401 0.0
C2840 C 0.45962 0.50051 0.91643 0.0
C2841 C 0.42937 0.46913 0.89983 0.0
C2842 C 0.44805 0.5037 0.93132 0.0
C2843 C 0.45555 0.50751 0.95068 0.0
C2844 C 0.47482 0.5083 0.95557 0.0
C2845 C 0.48634 0.50441 0.94075 0.0
C2846 C 0.47879 0.50069 0.92128 0.0
H2847 H 0.42229 0.45671 0.89012 0.0
H2848 H 0.44077 0.46472 0.90926 0.0
H2849 H 0.41896 0.4738 0.90933 0.0
H2850 H 0.4333 0.50404 0.92789 0.0
H2851 H 0.4463 0.51041 0.96176 0.0
H2852 H 0.77342 0.14338 0.08327 0.0
H2853 H 0.77733 0.15919 0.11643 0.0
H2854 H 0.81952 0.20171 0.09871 0.0
H2855 H 0.81508 0.18637 0.06545 0.0
H2856 H 0.80535 0.17384 0.1468 0.0
H2857 H 0.77632 0.23047 0.10931 0.0
H2858 H 0.77717 0.20763 0.09708 0.0
H2859 H 0.79787 0.22502 0.10094 0.0
C2860 C 0.78409 0.15562 0.08673 0.0
C2861 C 0.79391 0.16377 0.07193 0.0
C2862 C 0.78624 0.16472 0.10562 0.0
C2863 C 0.79832 0.18191 0.10982 0.0
C2864 C 0.80982 0.1887 0.09562 0.0
H2865 H 0.79781 0.2674 0.20786 0.0
H2866 H 0.80681 0.25041 0.17862 0.0
C2867 C 0.80743 0.17983 0.07671 0.0
C2868 C 0.79681 0.19404 0.12777 0.0
H2869 H 0.78275 0.2355 0.14334 0.0
C2870 C 0.80057 0.18739 0.14607 0.0
C2871 C 0.79039 0.21166 0.12674 0.0
C2872 C 0.78503 0.21909 0.10749 0.0
C2873 C 0.79796 0.19786 0.1634 0.0
C2874 C 0.79129 0.21531 0.16228 0.0
C2875 C 0.78802 0.22219 0.14406 0.0
C2876 C 0.78597 0.2258 0.17969 0.0
C2877 C 0.80211 0.19013 0.18276 0.0
C2878 C 0.77084 0.21785 0.18936 0.0
C2879 C 0.76553 0.22757 0.20572 0.0
C2880 C 0.77533 0.24538 0.21285 0.0
C2881 C 0.79004 0.25369 0.2027 0.0
C2882 C 0.79529 0.24396 0.18615 0.0
H2883 H 0.81163 0.17941 0.18153 0.0
H2884 H 0.80851 0.20159 0.19398 0.0
H2885 H 0.78886 0.18327 0.18787 0.0
H2886 H 0.76315 0.20409 0.18424 0.0
H2887 H 0.75392 0.22094 0.21304 0.0
H2888 H 0.14221 0.50501 0.33251 0.0
H2889 H 0.12438 0.51132 0.36049 0.0
H2890 H 0.08067 0.52664 0.3217 0.0
H2891 H 0.09807 0.51988 0.29375 0.0
H2892 H 0.10797 0.54231 0.37575 0.0
H2893 H 0.05488 0.4809 0.34661 0.0
H2894 H 0.07745 0.48569 0.33722 0.0
H2895 H 0.05925 0.49892 0.33012 0.0
C2896 C 0.12895 0.51002 0.33003 0.0
C2897 C 0.12135 0.51164 0.31099 0.0
C2898 C 0.11881 0.51365 0.34598 0.0
C2899 C 0.10106 0.51906 0.34304 0.0
C2900 C 0.09416 0.52209 0.32418 0.0
H2901 H 0.03067 0.54132 0.43842 0.0
H2902 H 0.04715 0.54504 0.40872 0.0
C2903 C 0.10414 0.51824 0.30826 0.0
C2904 C 0.08905 0.51978 0.35936 0.0
H2905 H 0.04891 0.49769 0.37546 0.0
C2906 C 0.09497 0.5327 0.37567 0.0
C2907 C 0.07221 0.50703 0.35919 0.0
C2908 C 0.0656 0.49223 0.34245 0.0
C2909 C 0.08453 0.53305 0.392 0.0
C2910 C 0.06775 0.52028 0.39179 0.0
C2911 C 0.06169 0.50761 0.37536 0.0
C2912 C 0.05736 0.51828 0.40927 0.0
C2913 C 0.09183 0.54647 0.40967 0.0
C2914 C 0.05736 0.50185 0.41898 0.0
C2915 C 0.04802 0.49969 0.43576 0.0
C2916 C 0.03838 0.51387 0.44308 0.0
C2917 C 0.03795 0.53015 0.43304 0.0
C2918 C 0.04745 0.53236 0.41622 0.0
H2919 H 0.10616 0.55389 0.40834 0.0
H2920 H 0.08242 0.55718 0.41153 0.0
H2921 H 0.09199 0.53875 0.42304 0.0
H2922 H 0.06485 0.4908 0.41371 0.0
H2923 H 0.04853 0.48694 0.4431 0.0
H2924 H 0.72714 0.86289 0.57964 0.0
H2925 H 0.71961 0.84698 0.60922 0.0
H2926 H 0.77836 0.84832 0.62523 0.0
H2927 H 0.78586 0.86369 0.59566 0.0
H2928 H 0.74078 0.80907 0.61577 0.0
H2929 H 0.74682 0.86622 0.67591 0.0
H2930 H 0.73876 0.86945 0.65106 0.0
H2931 H 0.76303 0.8687 0.65735 0.0
C2932 C 0.7384 0.86037 0.58988 0.0
C2933 C 0.75707 0.86465 0.58557 0.0
C2934 C 0.7341 0.85117 0.60663 0.0
C2935 C 0.74846 0.84651 0.61935 0.0
C2936 C 0.76711 0.85189 0.61564 0.0
H2937 H 0.77534 0.79515 0.72157 0.0
H2938 H 0.77156 0.81368 0.69379 0.0
C2939 C 0.77138 0.86074 0.59883 0.0
C2940 C 0.74434 0.83426 0.63533 0.0
H2941 H 0.74621 0.83505 0.68498 0.0
C2942 C 0.74158 0.81465 0.63092 0.0
C2943 C 0.74562 0.84168 0.65497 0.0
C2944 C 0.74864 0.86267 0.66027 0.0
C2945 C 0.7411 0.80221 0.64577 0.0
C2946 C 0.74296 0.80964 0.66558 0.0
C2947 C 0.74479 0.8293 0.66985 0.0
C2948 C 0.74497 0.7976 0.6821 0.0
C2949 C 0.7398 0.78137 0.64009 0.0
C2950 C 0.73139 0.78212 0.68481 0.0
C2951 C 0.73375 0.77114 0.70061 0.0
C2952 C 0.7495 0.77577 0.71419 0.0
C2953 C 0.763 0.79124 0.71141 0.0
C2954 C 0.76082 0.80193 0.69555 0.0
H2955 H 0.74296 0.7785 0.62473 0.0
H2956 H 0.74958 0.77494 0.64978 0.0
H2957 H 0.72538 0.7743 0.6415 0.0
H2958 H 0.71883 0.77871 0.67493 0.0
H2959 H 0.723 0.75946 0.70255 0.0
H2960 H 0.73167 0.43757 0.53881 0.0
H2961 H 0.70977 0.45819 0.54963 0.0
H2962 H 0.66374 0.41345 0.53264 0.0
H2963 H 0.6855 0.3927 0.52222 0.0
H2964 H 0.68359 0.46992 0.52648 0.0
H2965 H 0.64899 0.43309 0.58446 0.0
H2966 H 0.67054 0.42732 0.5759 0.0
H2967 H 0.64838 0.41733 0.56296 0.0
C2968 C 0.71691 0.43201 0.53775 0.0
C2969 C 0.71031 0.4135 0.52964 0.0
C2970 C 0.70442 0.44382 0.54395 0.0
C2971 C 0.68512 0.43731 0.54224 0.0
C2972 C 0.67858 0.41866 0.53463 0.0
H2973 H 0.59072 0.48038 0.50704 0.0
H2974 H 0.62101 0.47024 0.51284 0.0
C2975 C 0.69105 0.40684 0.52851 0.0
C2976 C 0.67162 0.45047 0.54616 0.0
H2977 H 0.6308 0.45352 0.56687 0.0
C2978 C 0.67232 0.46658 0.53572 0.0
C2979 C 0.65707 0.4464 0.55848 0.0
C2980 C 0.65632 0.43019 0.57125 0.0
C2981 C 0.65803 0.47774 0.53597 0.0
C2982 C 0.64253 0.4725 0.5467 0.0
C2983 C 0.6426 0.45739 0.55847 0.0
C2984 C 0.625 0.48051 0.54341 0.0
C2985 C 0.65923 0.49457 0.52404 0.0
C2986 C 0.6171 0.48962 0.55874 0.0
C2987 C 0.59964 0.49556 0.55542 0.0
C2988 C 0.58978 0.49204 0.53684 0.0
C2989 C 0.59795 0.48323 0.52154 0.0
C2990 C 0.61535 0.47754 0.52478 0.0
H2991 H 0.67399 0.5004 0.52233 0.0
H2992 H 0.65214 0.49014 0.50923 0.0
H2993 H 0.6523 0.50588 0.53083 0.0
H2994 H 0.62429 0.49185 0.57327 0.0
H2995 H 0.59356 0.50219 0.56749 0.0
H2996 H 0.21814 0.09251 0.50519 0.0
H2997 H 0.18833 0.07185 0.50541 0.0
H2998 H 0.16368 0.10276 0.46153 0.0
H2999 H 0.19325 0.12402 0.46194 0.0
H3000 H 0.1422 0.09915 0.48914 0.0
H3001 H 0.16081 0.02865 0.47086 0.0
H3002 H 0.1753 0.04044 0.49165 0.0
H3003 H 0.17649 0.05004 0.46825 0.0
C3004 C 0.20647 0.0947 0.49532 0.0
C3005 C 0.20807 0.10994 0.48357 0.0
C3006 C 0.18941 0.08276 0.49535 0.0
C3007 C 0.17372 0.08548 0.48325 0.0
C3008 C 0.17553 0.1003 0.47098 0.0
H3009 H 0.06583 0.00971 0.47607 0.0
H3010 H 0.09674 0.02532 0.46888 0.0
C3011 C 0.19247 0.11246 0.47122 0.0
C3012 C 0.15504 0.07416 0.48477 0.0
H3013 H 0.13212 0.02928 0.48628 0.0
C3014 C 0.14001 0.08386 0.48824 0.0
C3015 C 0.15195 0.05416 0.48334 0.0
C3016 C 0.16697 0.04273 0.4781 0.0
C3017 C 0.12225 0.07425 0.4909 0.0
C3018 C 0.11951 0.05435 0.49086 0.0
C3019 C 0.1343 0.04455 0.48668 0.0
C3020 C 0.10154 0.04368 0.49569 0.0
C3021 C 0.10657 0.08561 0.49359 0.0
C3022 C 0.0943 0.04827 0.51343 0.0
C3023 C 0.07666 0.03963 0.51739 0.0
C3024 C 0.06603 0.02583 0.50392 0.0
C3025 C 0.07373 0.02032 0.48669 0.0
C3026 C 0.09135 0.02925 0.48257 0.0
H3027 H 0.10917 0.09922 0.48685 0.0
H3028 H 0.09294 0.07773 0.48708 0.0
H3029 H 0.10559 0.08891 0.50943 0.0
H3030 H 0.10214 0.05888 0.5241 0.0
H3031 H 0.07125 0.04393 0.53096 0.0
H3032 H 0.18838 0.97678 0.7666 0.0
H3033 H 0.20437 0.94937 0.76109 0.0
H3034 H 0.15455 0.91251 0.772 0.0
H3035 H 0.13846 0.93978 0.77754 0.0
H3036 H 0.18881 0.90767 0.79447 0.0
H3037 H 0.1966 0.90727 0.71468 0.0
H3038 H 0.20369 0.92934 0.72922 0.0
H3039 H 0.17948 0.91913 0.72621 0.0
C3040 C 0.18075 0.96282 0.76758 0.0
C3041 C 0.16213 0.96046 0.7725 0.0
C3042 C 0.18989 0.94717 0.76435 0.0
C3043 C 0.1806 0.9289 0.76597 0.0
C3044 C 0.16195 0.92649 0.77058 0.0
H3045 H 0.20064 0.81499 0.76686 0.0
H3046 H 0.18912 0.84511 0.76802 0.0
C3047 C 0.15277 0.9421 0.77372 0.0
C3048 C 0.19056 0.91233 0.76413 0.0
H3049 H 0.20961 0.88418 0.73151 0.0
C3050 C 0.1934 0.90256 0.78072 0.0
C3051 C 0.19681 0.90588 0.74625 0.0
C3052 C 0.19394 0.91582 0.72798 0.0
C3053 C 0.20205 0.88635 0.77987 0.0
C3054 C 0.20758 0.87937 0.7618 0.0
C3055 C 0.2053 0.88948 0.74532 0.0
C3056 C 0.21451 0.86095 0.75961 0.0
C3057 C 0.2052 0.87685 0.7984 0.0
C3058 C 0.23237 0.8596 0.75356 0.0
C3059 C 0.23901 0.84219 0.75266 0.0
C3060 C 0.22786 0.82592 0.75781 0.0
C3061 C 0.20975 0.82728 0.76311 0.0
C3062 C 0.20313 0.84454 0.76386 0.0
H3063 H 0.20583 0.88688 0.81157 0.0
H3064 H 0.19338 0.86534 0.79928 0.0
H3065 H 0.21834 0.87065 0.7987 0.0
H3066 H 0.24133 0.87208 0.75002 0.0
H3067 H 0.253 0.84157 0.74845 0.0
H3068 H 0.32156 0.87723 0.98597 0.0
H3069 H 0.35178 0.89712 0.98617 0.0
H3070 H 0.3254 0.94686 0.99308 0.0
H3071 H 0.29505 0.92702 0.99353 0.0
H3072 H 0.36595 0.92403 0.96355 0.0
H3073 H 0.36384 0.9553 0.03953 0.0
H3074 H 0.34707 0.93553 0.02885 0.0
H3075 H 0.345 0.95899 0.02253 0.0
C3076 C 0.3221 0.8924 0.98738 0.0
C3077 C 0.30588 0.90052 0.98997 0.0
C3078 C 0.33942 0.90376 0.98748 0.0
C3079 C 0.34091 0.92347 0.99003 0.0
C3080 C 0.32464 0.93168 0.9916 0.0
H3081 H 0.44746 0.00101 0.01185 0.0
H3082 H 0.4143 0.98965 0.00188 0.0
C3083 C 0.30729 0.9203 0.99174 0.0
C3084 C 0.35966 0.93515 0.99178 0.0
H3085 H 0.39094 0.96449 0.02394 0.0
C3086 C 0.37134 0.93304 0.97667 0.0
C3087 C 0.36668 0.94694 0.0089 0.0
C3088 C 0.35509 0.94926 0.02596 0.0
C3089 C 0.39001 0.94188 0.97851 0.0
C3090 C 0.39718 0.95304 0.99591 0.0
C3091 C 0.38531 0.95594 0.0106 0.0
C3092 C 0.41736 0.96013 7e-05 0.0
C3093 C 0.40205 0.93889 0.962 0.0
C3094 C 0.42997 0.94727 0.00232 0.0
C3095 C 0.44879 0.95367 0.00812 0.0
C3096 C 0.45537 0.97307 0.0118 0.0
C3097 C 0.4428 0.98598 0.00905 0.0
C3098 C 0.42389 0.97954 0.00339 0.0
H3099 H 0.39347 0.93463 0.94789 0.0
H3100 H 0.41198 0.95187 0.96043 0.0
H3101 H 0.41029 0.92747 0.96516 0.0
H3102 H 0.42513 0.93223 0.00016 0.0
H3103 H 0.4581 0.94336 0.01008 0.0
H3104 H 0.88119 0.58554 0.76716 0.0
H3105 H 0.86189 0.60855 0.7563 0.0
H3106 H 0.81575 0.56383 0.73964 0.0
H3107 H 0.83486 0.54073 0.75102 0.0
H3108 H 0.8435 0.61296 0.72097 0.0
H3109 H 0.79279 0.59837 0.7767 0.0
H3110 H 0.81469 0.58932 0.77742 0.0
H3111 H 0.79548 0.57853 0.76036 0.0
C3112 C 0.86696 0.58057 0.7611 0.0
C3113 C 0.85948 0.56135 0.76015 0.0
C3114 C 0.85595 0.59374 0.75486 0.0
C3115 C 0.83727 0.58796 0.74747 0.0
C3116 C 0.82999 0.56867 0.74571 0.0
H3117 H 0.75983 0.67099 0.73003 0.0
H3118 H 0.77169 0.64073 0.72492 0.0
C3119 C 0.84096 0.55548 0.75213 0.0
C3120 C 0.82543 0.60236 0.74237 0.0
H3121 H 0.78869 0.62291 0.75703 0.0
C3122 C 0.83134 0.61495 0.72865 0.0
C3123 C 0.80948 0.6049 0.7523 0.0
C3124 C 0.80275 0.59219 0.76763 0.0
C3125 C 0.82229 0.63051 0.72528 0.0
C3126 C 0.80702 0.63361 0.736 0.0
C3127 C 0.80035 0.6204 0.74877 0.0
C3128 C 0.79994 0.65191 0.73674 0.0
C3129 C 0.82958 0.64394 0.71084 0.0
C3130 C 0.81189 0.66806 0.74503 0.0
C3131 C 0.80516 0.68507 0.74815 0.0
C3132 C 0.78632 0.68636 0.74301 0.0
C3133 C 0.77442 0.67037 0.73405 0.0
C3134 C 0.78116 0.65314 0.73115 0.0
H3135 H 0.83702 0.63682 0.69965 0.0
H3136 H 0.81807 0.65006 0.70337 0.0
H3137 H 0.83965 0.65566 0.71871 0.0
H3138 H 0.82633 0.66736 0.74976 0.0
H3139 H 0.8147 0.69719 0.75497 0.0
H3140 H 0.79181 0.57825 0.01797 0.0
H3141 H 0.81862 0.56198 0.025 0.0
H3142 H 0.85542 0.60895 0.00685 0.0
H3143 H 0.82881 0.62549 0.00039 0.0
H3144 H 0.84246 0.54992 0.00116 0.0
H3145 H 0.8827 0.60168 0.05775 0.0
H3146 H 0.85872 0.60278 0.04952 0.0
H3147 H 0.87745 0.61243 0.03575 0.0
C3148 C 0.80565 0.58521 0.0157 0.0
C3149 C 0.8082 0.60324 0.00876 0.0
C3150 C 0.82096 0.57587 0.0197 0.0
C3151 C 0.83913 0.58435 0.01683 0.0
C3152 C 0.84166 0.60231 0.00976 0.0
H3153 H 0.94641 0.55511 0.00439 0.0
H3154 H 0.91685 0.56722 0.00446 0.0
C3155 C 0.82639 0.61172 0.00595 0.0
C3156 C 0.85534 0.57412 0.0203 0.0
H3157 H 0.89975 0.57919 0.04247 0.0
C3158 C 0.85485 0.55619 0.01047 0.0
C3159 C 0.87152 0.58219 0.03257 0.0
C3160 C 0.87257 0.60073 0.04465 0.0
C3161 C 0.87039 0.5466 0.01182 0.0
C3162 C 0.88681 0.55513 0.02328 0.0
C3163 C 0.88712 0.57271 0.03365 0.0
C3164 C 0.90441 0.54697 0.02317 0.0
C3165 C 0.86954 0.52778 0.00033 0.0
C3166 C 0.90721 0.53144 0.03367 0.0
C3167 C 0.92429 0.52443 0.03377 0.0
C3168 C 0.93875 0.53285 0.02331 0.0
C3169 C 0.93566 0.54824 0.01265 0.0
C3170 C 0.91875 0.55525 0.01266 0.0
H3171 H 0.85601 0.52341 0.99137 0.0
H3172 H 0.88105 0.52842 0.99054 0.0
H3173 H 0.87154 0.51684 0.01051 0.0
H3174 H 0.89629 0.52491 0.04194 0.0
H3175 H 0.92623 0.51258 0.04213 0.0
H3176 H 0.14362 0.07956 0.81956 0.0
H3177 H 0.16492 0.10922 0.81941 0.0
H3178 H 0.19801 0.08207 0.77987 0.0
H3179 H 0.17727 0.0522 0.78064 0.0
H3180 H 0.22012 0.10646 0.80532 0.0
H3181 H 0.16265 0.14159 0.77495 0.0
H3182 H 0.15844 0.13302 0.79824 0.0
H3183 H 0.15972 0.11662 0.77752 0.0
C3184 C 0.15554 0.07986 0.811 0.0
C3185 C 0.15861 0.06355 0.79995 0.0
C3186 C 0.16765 0.09687 0.81081 0.0
C3187 C 0.18279 0.09806 0.79917 0.0
C3188 C 0.18637 0.08158 0.78886 0.0
H3189 H 0.2315 0.19936 0.75191 0.0
H3190 H 0.21565 0.16837 0.7581 0.0
C3191 C 0.17447 0.06449 0.78931 0.0
C3192 C 0.1944 0.11654 0.79699 0.0
H3193 H 0.19178 0.16084 0.78344 0.0
C3194 C 0.21394 0.11836 0.80052 0.0
C3195 C 0.18638 0.13201 0.79041 0.0
C3196 C 0.16568 0.1307 0.78486 0.0
C3197 C 0.22564 0.13515 0.79758 0.0
C3198 C 0.21756 0.15076 0.7915 0.0
C3199 C 0.19802 0.14895 0.78819 0.0
C3200 C 0.22889 0.16883 0.78742 0.0
C3201 C 0.24653 0.13571 0.80035 0.0
C3202 C 0.242 0.17939 0.80166 0.0
C3203 C 0.25144 0.19706 0.79793 0.0
C3204 C 0.24755 0.20463 0.78012 0.0
C3205 C 0.2347 0.19392 0.76582 0.0
C3206 C 0.2256 0.1762 0.76938 0.0
H3207 H 0.25039 0.1213 0.79942 0.0
H3208 H 0.25368 0.14383 0.78925 0.0
H3209 H 0.25181 0.14262 0.81504 0.0
H3210 H 0.24449 0.17429 0.81587 0.0
H3211 H 0.26113 0.20513 0.80928 0.0
H3212 H 0.40203 0.95459 0.29486 0.0
H3213 H 0.38107 0.92477 0.29544 0.0
H3214 H 0.33338 0.95324 0.28528 0.0
H3215 H 0.35416 0.98299 0.28419 0.0
H3216 H 0.35282 0.91355 0.31861 0.0
H3217 H 0.32461 0.91179 0.24105 0.0
H3218 H 0.34483 0.92815 0.25128 0.0
H3219 H 0.32176 0.93249 0.25601 0.0
C3220 C 0.38709 0.95454 0.2928 0.0
C3221 C 0.3798 0.97115 0.28924 0.0
C3222 C 0.37512 0.93749 0.29316 0.0
C3223 C 0.35568 0.93674 0.29005 0.0
C3224 C 0.34835 0.95341 0.28724 0.0
H3225 H 0.27115 0.83444 0.27386 0.0
H3226 H 0.28485 0.8676 0.28286 0.0
C3227 C 0.36028 0.97042 0.28669 0.0
C3228 C 0.34319 0.91841 0.28933 0.0
H3229 H 0.31222 0.88696 0.25893 0.0
C3230 C 0.34384 0.9078 0.30561 0.0
C3231 C 0.33141 0.91096 0.27237 0.0
C3232 C 0.33067 0.92133 0.25411 0.0
C3233 C 0.33337 0.88974 0.30522 0.0
C3234 C 0.32206 0.88212 0.28809 0.0
C3235 C 0.32081 0.89298 0.2721 0.0
C3236 C 0.3134 0.86209 0.28543 0.0
C3237 C 0.33472 0.87876 0.32296 0.0
C3238 C 0.32493 0.84813 0.28409 0.0
C3239 C 0.31723 0.8294 0.27877 0.0
C3240 C 0.29782 0.82424 0.27478 0.0
C3241 C 0.28615 0.83806 0.277 0.0
C3242 C 0.29393 0.85695 0.28208 0.0
H3243 H 0.3397 0.8882 0.33641 0.0
H3244 H 0.32098 0.87046 0.32508 0.0
H3245 H 0.34482 0.86877 0.32088 0.0
H3246 H 0.33999 0.85187 0.28632 0.0
H3247 H 0.32653 0.819 0.27722 0.0
H3248 H 0.52116 0.30785 0.59857 0.0
H3249 H 0.52096 0.3373 0.5831 0.0
H3250 H 0.51266 0.36584 0.63828 0.0
H3251 H 0.51255 0.33625 0.65387 0.0
H3252 H 0.4884 0.37316 0.60716 0.0
H3253 H 0.56189 0.3831 0.58794 0.0
H3254 H 0.54872 0.36053 0.57931 0.0
H3255 H 0.55353 0.36677 0.60514 0.0
C3256 C 0.51945 0.32042 0.60748 0.0
C3257 C 0.51694 0.31976 0.62747 0.0
C3258 C 0.51942 0.33726 0.59862 0.0
C3259 C 0.51704 0.3538 0.60959 0.0
C3260 C 0.5146 0.35322 0.62958 0.0
H3261 H 0.51645 0.47002 0.59101 0.0
H3262 H 0.51236 0.43858 0.60265 0.0
C3263 C 0.5146 0.33635 0.63847 0.0
C3264 C 0.51653 0.37156 0.60006 0.0
H3265 H 0.54242 0.40377 0.5751 0.0
C3266 C 0.50021 0.37988 0.60018 0.0
C3267 C 0.53192 0.38021 0.59084 0.0
C3268 C 0.55007 0.37232 0.59091 0.0
C3269 C 0.49888 0.39664 0.5913 0.0
C3270 C 0.51433 0.40538 0.58228 0.0
C3271 C 0.53054 0.39692 0.5819 0.0
C3272 C 0.51459 0.42406 0.5745 0.0
C3273 C 0.48092 0.40483 0.59154 0.0
C3274 C 0.51711 0.42631 0.55475 0.0
C3275 C 0.51941 0.44434 0.548 0.0
C3276 C 0.51956 0.46036 0.56102 0.0
C3277 C 0.51644 0.45795 0.58063 0.0
C3278 C 0.51399 0.43998 0.5873 0.0
H3279 H 0.46894 0.39403 0.59406 0.0
H3280 H 0.4824 0.41623 0.60356 0.0
H3281 H 0.4777 0.41099 0.57759 0.0
H3282 H 0.51773 0.41417 0.54469 0.0
H3283 H 0.52191 0.44577 0.53285 0.0
H3284 H 0.43296 0.76385 0.39392 0.0
H3285 H 0.40591 0.76329 0.37058 0.0
H3286 H 0.43612 0.74237 0.32431 0.0
H3287 H 0.46353 0.7429 0.34763 0.0
H3288 H 0.40803 0.78381 0.33335 0.0
H3289 H 0.3829 0.70639 0.32257 0.0
H3290 H 0.39666 0.71697 0.34463 0.0
H3291 H 0.40744 0.71512 0.32218 0.0
C3292 C 0.43392 0.75896 0.37884 0.0
C3293 C 0.4505 0.75342 0.37269 0.0
C3294 C 0.41841 0.75869 0.36551 0.0
C3295 C 0.41904 0.75274 0.34579 0.0
C3296 C 0.43537 0.74688 0.33953 0.0
H3297 H 0.31951 0.74556 0.26145 0.0
H3298 H 0.35164 0.74331 0.27412 0.0
C3299 C 0.45101 0.74723 0.35288 0.0
C3300 C 0.40268 0.75349 0.33187 0.0
H3301 H 0.36363 0.72636 0.30856 0.0
C3302 C 0.39846 0.77125 0.32764 0.0
C3303 C 0.39036 0.73706 0.32434 0.0
C3304 C 0.3944 0.71773 0.3286 0.0
C3305 C 0.3818 0.77306 0.31676 0.0
C3306 C 0.36886 0.7567 0.31031 0.0
C3307 C 0.37356 0.73887 0.31358 0.0
C3308 C 0.34964 0.75802 0.30224 0.0
C3309 C 0.37796 0.79252 0.31269 0.0
C3310 C 0.33788 0.76674 0.31396 0.0
C3311 C 0.31967 0.768 0.30685 0.0
C3312 C 0.31273 0.76048 0.28784 0.0
C3313 C 0.32447 0.75156 0.27611 0.0
C3314 C 0.34279 0.75025 0.28332 0.0
H3315 H 0.39114 0.80259 0.31291 0.0
H3316 H 0.36988 0.79231 0.2983 0.0
H3317 H 0.36966 0.79782 0.32418 0.0
H3318 H 0.34276 0.77247 0.32875 0.0
H3319 H 0.31101 0.77485 0.31636 0.0
H3320 H 0.03518 0.72301 0.08376 0.0
H3321 H 0.03146 0.68932 0.07431 0.0
H3322 H 0.00528 0.67768 0.12711 0.0
H3323 H 0.00908 0.71157 0.13694 0.0
H3324 H 0.03374 0.65561 0.11877 0.0
H3325 H 0.98255 0.65464 0.05448 0.0
H3326 H 0.00327 0.67168 0.05451 0.0
H3327 H 0.98749 0.67416 0.07309 0.0
C3328 C 0.02853 0.71338 0.09341 0.0
C3329 C 0.02237 0.72008 0.11113 0.0
C3330 C 0.02635 0.69408 0.08788 0.0
C3331 C 0.01786 0.68104 0.09986 0.0
C3332 C 0.01178 0.68757 0.11762 0.0
H3333 H 0.99329 0.55932 0.09253 0.0
H3334 H 0.99915 0.59288 0.10314 0.0
C3335 C 0.01395 0.70693 0.12319 0.0
C3336 C 0.0158 0.66059 0.09397 0.0
H3337 H 0.99585 0.62675 0.05818 0.0
C3338 C 0.02538 0.64924 0.10559 0.0
C3339 C 0.00497 0.6524 0.0767 0.0
C3340 C 0.99384 0.66379 0.06404 0.0
C3341 C 0.02468 0.62993 0.10021 0.0
C3342 C 0.01385 0.62174 0.08294 0.0
C3343 C 0.00426 0.6331 0.07134 0.0
C3344 C 0.01162 0.60126 0.07697 0.0
C3345 C 0.03585 0.61857 0.11286 0.0
C3346 C 0.01651 0.59481 0.05862 0.0
C3347 C 0.01306 0.57556 0.0524 0.0
C3348 C 0.00451 0.56248 0.06441 0.0
C3349 C 0.99998 0.56899 0.08294 0.0
C3350 C 0.00341 0.58819 0.08911 0.0
H3351 H 0.04743 0.62771 0.12202 0.0
H3352 H 0.02655 0.61109 0.12279 0.0
H3353 H 0.04182 0.60787 0.10386 0.0
H3354 H 0.02277 0.60471 0.04898 0.0
H3355 H 0.01663 0.57101 0.03802 0.0
H3356 H 0.07304 0.26822 0.88731 0.0
H3357 H 0.10094 0.2686 0.86962 0.0
H3358 H 0.0689 0.23241 0.82239 0.0
H3359 H 0.0407 0.23249 0.8398 0.0
H3360 H 0.11922 0.24129 0.85843 0.0
H3361 H 0.09428 0.27339 0.79261 0.0
H3362 H 0.08184 0.27258 0.8143 0.0
H3363 H 0.0794 0.25219 0.797 0.0
C3364 C 0.0719 0.26033 0.87315 0.0
C3365 C 0.05463 0.25037 0.86493 0.0
C3366 C 0.08788 0.2606 0.86302 0.0
C3367 C 0.087 0.25085 0.84447 0.0
C3368 C 0.06985 0.24049 0.83642 0.0
H3369 H 0.18486 0.21986 0.79394 0.0
H3370 H 0.15474 0.22045 0.80723 0.0
C3371 C 0.05378 0.24038 0.84648 0.0
C3372 C 0.10422 0.2511 0.83401 0.0
H3373 H 0.1229 0.26098 0.79114 0.0
C3374 C 0.12001 0.24566 0.84374 0.0
C3375 C 0.10541 0.25713 0.81495 0.0
C3376 C 0.08939 0.26434 0.80417 0.0
C3377 C 0.13681 0.2458 0.83491 0.0
C3378 C 0.13774 0.25097 0.81553 0.0
C3379 C 0.12209 0.25676 0.80588 0.0
C3380 C 0.15487 0.25033 0.80515 0.0
C3381 C 0.15351 0.24074 0.84664 0.0
C3382 C 0.16445 0.26671 0.79841 0.0
C3383 C 0.18162 0.26635 0.79044 0.0
C3384 C 0.18946 0.2496 0.78919 0.0
C3385 C 0.17931 0.23304 0.79496 0.0
C3386 C 0.16213 0.23337 0.80267 0.0
H3387 H 0.1522 0.24267 0.8626 0.0
H3388 H 0.15457 0.22569 0.8429 0.0
H3389 H 0.16667 0.24944 0.84337 0.0
H3390 H 0.15901 0.27992 0.80003 0.0
H3391 H 0.18914 0.27933 0.78614 0.0
H3392 H 0.49029 0.72375 0.9439 0.0
H3393 H 0.4909 0.69221 0.95442 0.0
H3394 H 0.53175 0.68289 0.91397 0.0
H3395 H 0.53127 0.71466 0.90323 0.0
H3396 H 0.48449 0.65554 0.93116 0.0
H3397 H 0.55575 0.67444 0.96976 0.0
H3398 H 0.54165 0.69204 0.96299 0.0
H3399 H 0.55292 0.67991 0.94473 0.0
C3400 C 0.49937 0.71501 0.93711 0.0
C3401 C 0.51087 0.7218 0.92282 0.0
C3402 C 0.49963 0.69695 0.94313 0.0
C3403 C 0.51151 0.68535 0.93515 0.0
C3404 C 0.52262 0.69177 0.92044 0.0
H3405 H 0.53812 0.57719 0.96577 0.0
H3406 H 0.53673 0.60731 0.95213 0.0
C3407 C 0.52225 0.70985 0.91425 0.0
C3408 C 0.51257 0.66681 0.9428 0.0
H3409 H 0.54075 0.64325 0.97071 0.0
C3410 C 0.49679 0.65279 0.93976 0.0
C3411 C 0.52862 0.66336 0.95407 0.0
C3412 C 0.5457 0.67822 0.95827 0.0
C3413 C 0.49669 0.63527 0.94755 0.0
C3414 C 0.51266 0.63191 0.95907 0.0
C3415 C 0.52849 0.64591 0.96196 0.0
C3416 C 0.51344 0.61378 0.96781 0.0
C3417 C 0.47965 0.6204 0.9431 0.0
C3418 C 0.50101 0.60755 0.98148 0.0
C3419 C 0.50175 0.59024 0.98936 0.0
C3420 C 0.51499 0.57893 0.98372 0.0
C3421 C 0.52767 0.58547 0.97036 0.0
C3422 C 0.52692 0.60272 0.96254 0.0
H3423 H 0.47065 0.62341 0.93029 0.0
H3424 H 0.4837 0.60623 0.94017 0.0
H3425 H 0.47124 0.62002 0.95589 0.0
H3426 H 0.49074 0.61607 0.98604 0.0
H3427 H 0.49184 0.58563 -0.00034 0.0
H3428 H 0.07815 0.77474 0.63629 0.0
H3429 H 0.10634 0.77171 0.65672 0.0
H3430 H 0.07279 0.74328 0.69781 0.0
H3431 H 0.04431 0.74627 0.67747 0.0
H3432 H 0.11513 0.78415 0.70006 0.0
H3433 H 0.11156 0.70727 0.67907 0.0
H3434 H 0.09986 0.72224 0.66395 0.0
H3435 H 0.0909 0.71597 0.6865 0.0
C3436 C 0.07668 0.7679 0.64971 0.0
C3437 C 0.05893 0.76065 0.65517 0.0
C3438 C 0.09283 0.76624 0.66138 0.0
C3439 C 0.0916 0.75715 0.67864 0.0
C3440 C 0.07397 0.75022 0.68444 0.0
H3441 H 0.1948 0.75828 0.75534 0.0
H3442 H 0.16123 0.75528 0.74543 0.0
C3443 C 0.05774 0.75202 0.67283 0.0
C3444 C 0.10897 0.75468 0.69018 0.0
H3445 H 0.13856 0.72266 0.69798 0.0
C3446 C 0.12014 0.77067 0.69997 0.0
C3447 C 0.11542 0.73706 0.68983 0.0
C3448 C 0.10393 0.71958 0.67925 0.0
C3449 C 0.13794 0.76962 0.70891 0.0
C3450 C 0.14466 0.75211 0.70802 0.0
C3451 C 0.13325 0.736 0.69876 0.0
C3452 C 0.16431 0.7509 0.71453 0.0
C3453 C 0.14986 0.78741 0.71836 0.0
C3454 C 0.17697 0.74866 0.70048 0.0
C3455 C 0.19608 0.75041 0.70604 0.0
C3456 C 0.20285 0.75428 0.7258 0.0
C3457 C 0.19 0.75523 0.74 0.0
C3458 C 0.17085 0.75364 0.73438 0.0
H3459 H 0.14335 0.80018 0.71592 0.0
H3460 H 0.15203 0.78636 0.73434 0.0
H3461 H 0.16381 0.78918 0.71255 0.0
H3462 H 0.17217 0.74651 0.68508 0.0
H3463 H 0.20562 0.74953 0.69478 0.0
H3464 H 0.02064 0.30779 0.44357 0.0
H3465 H 0.01864 0.33812 0.46086 0.0
H3466 H 0.03447 0.36645 0.41027 0.0
H3467 H 0.03658 0.33592 0.39269 0.0
H3468 H 0.05367 0.38299 0.44831 0.0
H3469 H 0.97626 0.3697 0.44777 0.0
H3470 H 0.98811 0.3513 0.45653 0.0
H3471 H 0.98886 0.35646 0.43147 0.0
C3472 C 0.02369 0.32044 0.43604 0.0
C3473 C 0.02864 0.31947 0.41669 0.0
C3474 C 0.02251 0.33775 0.44597 0.0
C3475 C 0.02621 0.35444 0.43676 0.0
C3476 C 0.03151 0.35365 0.41757 0.0
H3477 H 0.99794 0.46325 0.46807 0.0
H3478 H 0.00257 0.43291 0.4529 0.0
C3479 C 0.03266 0.33625 0.40755 0.0
C3480 C 0.02423 0.37264 0.44722 0.0
H3481 H 0.99207 0.39684 0.46686 0.0
C3482 C 0.04023 0.38608 0.45237 0.0
C3483 C 0.00664 0.37656 0.45241 0.0
C3484 C 0.98893 0.36284 0.44665 0.0
C3485 C 0.03909 0.40339 0.46272 0.0
C3486 C 0.02153 0.40718 0.46813 0.0
C3487 C 0.00554 0.39375 0.46289 0.0
C3488 C 0.01912 0.42559 0.47782 0.0
C3489 C 0.05654 0.41768 0.46742 0.0
C3490 C 0.02677 0.43147 0.49701 0.0
C3491 C 0.0241 0.44893 0.50588 0.0
C3492 C 0.01374 0.46071 0.49561 0.0
C3493 C 0.00602 0.45459 0.47644 0.0
C3494 C 0.00863 0.43723 0.4677 0.0
H3495 H 0.06838 0.41384 0.45946 0.0
H3496 H 0.05389 0.43186 0.46367 0.0
H3497 H 0.06074 0.41859 0.48333 0.0
H3498 H 0.03471 0.42252 0.50514 0.0
H3499 H 0.03021 0.45324 0.52064 0.0
H3500 H 0.43744 0.25574 0.14699 0.0
H3501 H 0.40936 0.25391 0.16451 0.0
H3502 H 0.44161 0.2465 0.21778 0.0
H3503 H 0.47 0.24836 0.20027 0.0
H3504 H 0.39405 0.22312 0.18645 0.0
H3505 H 0.4129 0.29163 0.23187 0.0
H3506 H 0.4242 0.28646 0.21006 0.0
H3507 H 0.42966 0.27549 0.23187 0.0
C3508 C 0.43862 0.25368 0.16242 0.0
C3509 C 0.45597 0.25222 0.17224 0.0
C3510 C 0.42254 0.25265 0.17242 0.0
C3511 C 0.42345 0.25029 0.19247 0.0
C3512 C 0.44068 0.24859 0.20235 0.0
H3513 H 0.32557 0.24713 0.26204 0.0
H3514 H 0.35812 0.24817 0.25389 0.0
C3515 C 0.45684 0.24953 0.1923 0.0
C3516 C 0.40612 0.24933 0.20267 0.0
H3517 H 0.38288 0.27474 0.23388 0.0
C3518 C 0.39168 0.23428 0.197 0.0
C3519 C 0.40314 0.26384 0.21655 0.0
C3520 C 0.4182 0.28037 0.22297 0.0
C3521 C 0.37413 0.23366 0.20433 0.0
C3522 C 0.37079 0.2487 0.21736 0.0
C3523 C 0.38547 0.2633 0.2238 0.0
C3524 C 0.35169 0.2501 0.22298 0.0
C3525 C 0.35919 0.21702 0.19779 0.0
C3526 C 0.33752 0.25164 0.20847 0.0
C3527 C 0.31908 0.25101 0.21303 0.0
C3528 C 0.3144 0.24904 0.23227 0.0
C3529 C 0.32877 0.24868 0.24708 0.0
C3530 C 0.34733 0.2492 0.24245 0.0
H3531 H 0.36535 0.20445 0.19275 0.0
H3532 H 0.35029 0.21327 0.20976 0.0
H3533 H 0.35014 0.22069 0.18538 0.0
H3534 H 0.34066 0.25279 0.19344 0.0
H3535 H 0.30838 0.25158 0.20133 0.0
H3536 H 0.64438 0.50264 0.35386 0.0
H3537 H 0.62756 0.50155 0.38357 0.0
H3538 H 0.57654 0.50677 0.34956 0.0
H3539 H 0.59308 0.50802 0.32007 0.0
H3540 H 0.60354 0.53052 0.39814 0.0
H3541 H 0.5652 0.45773 0.38022 0.0
H3542 H 0.58677 0.46607 0.36996 0.0
H3543 H 0.56534 0.47339 0.361 0.0
C3544 C 0.62961 0.50363 0.35277 0.0
C3545 C 0.62007 0.50537 0.33461 0.0
C3546 C 0.62003 0.50298 0.36971 0.0
C3547 C 0.60077 0.50383 0.36865 0.0
C3548 C 0.59134 0.50585 0.35062 0.0
H3549 H 0.51476 0.49817 0.45103 0.0
H3550 H 0.53174 0.49786 0.42147 0.0
C3551 C 0.60087 0.50664 0.3338 0.0
C3552 C 0.59038 0.50286 0.38634 0.0
H3553 H 0.55649 0.47524 0.40754 0.0
C3554 C 0.59336 0.5184 0.40031 0.0
C3555 C 0.57689 0.48714 0.3889 0.0
C3556 C 0.57335 0.47003 0.37433 0.0
C3557 C 0.58301 0.51875 0.41672 0.0
C3558 C 0.56969 0.50288 0.41948 0.0
C3559 C 0.56668 0.48736 0.40543 0.0
C3560 C 0.55921 0.50199 0.43718 0.0
C3561 C 0.5861 0.53633 0.43066 0.0
C3562 C 0.56895 0.50377 0.45574 0.0
C3563 C 0.55936 0.50409 0.47251 0.0
C3564 C 0.53973 0.50231 0.47117 0.0
C3565 C 0.52987 0.49959 0.45256 0.0
C3566 C 0.53955 0.49946 0.43568 0.0
H3567 H 0.59223 0.54889 0.42354 0.0
H3568 H 0.57282 0.53917 0.43643 0.0
H3569 H 0.59602 0.53445 0.44316 0.0
H3570 H 0.58406 0.50517 0.45728 0.0
H3571 H 0.56743 0.506 0.48658 0.0
H3572 H 0.24048 0.87933 0.06614 0.0
H3573 H 0.24102 0.87012 0.09983 0.0
H3574 H 0.28705 0.84007 0.08957 0.0
H3575 H 0.28653 0.84903 0.05611 0.0
H3576 H 0.23581 0.83012 0.10625 0.0
H3577 H 0.30186 0.86908 0.14432 0.0
H3578 H 0.2904 0.87697 0.12289 0.0
H3579 H 0.30418 0.85826 0.12046 0.0
C3580 C 0.25101 0.87119 0.07129 0.0
C3581 C 0.26337 0.86475 0.05855 0.0
C3582 C 0.25127 0.86592 0.09045 0.0
C3583 C 0.26417 0.85456 0.09713 0.0
C3584 C 0.27718 0.84907 0.08475 0.0
H3585 H 0.2838 0.78679 0.1927 0.0
H3586 H 0.28433 0.8026 0.16229 0.0
C3587 C 0.27677 0.85408 0.06561 0.0
C3588 C 0.26268 0.8463 0.116 0.0
H3589 H 0.28753 0.84226 0.15911 0.0
C3590 C 0.24696 0.83296 0.11798 0.0
C3591 C 0.27742 0.84988 0.13102 0.0
C3592 C 0.29437 0.86444 0.12971 0.0
C3593 C 0.24582 0.8226 0.1344 0.0
C3594 C 0.26067 0.82601 0.14934 0.0
C3595 C 0.27626 0.83961 0.14752 0.0
C3596 C 0.26004 0.81594 0.16723 0.0
C3597 C 0.22905 0.80767 0.13533 0.0
C3598 C 0.24624 0.81827 0.17992 0.0
C3599 C 0.24587 0.80928 0.19713 0.0
C3600 C 0.2594 0.79789 0.20205 0.0
C3601 C 0.27316 0.79542 0.18923 0.0
C3602 C 0.27352 0.80448 0.17195 0.0
H3603 H 0.22149 0.80343 0.12068 0.0
H3604 H 0.23325 0.79494 0.14152 0.0
H3605 H 0.2192 0.81332 0.14492 0.0
H3606 H 0.23591 0.8273 0.17666 0.0
H3607 H 0.23507 0.81149 0.20669 0.0
H3608 H 0.94007 0.54243 0.8199 0.0
H3609 H 0.95796 0.54225 0.85134 0.0
H3610 H 0.90677 0.53308 0.8795 0.0
H3611 H 0.8886 0.53341 0.84791 0.0
H3612 H 0.95445 0.5646 0.89205 0.0
H3613 H 0.9385 0.48609 0.88537 0.0
H3614 H 0.93777 0.49965 0.86435 0.0
H3615 H 0.91955 0.49918 0.88053 0.0
C3616 C 0.93259 0.54065 0.83283 0.0
C3617 C 0.91294 0.53779 0.83149 0.0
C3618 C 0.94285 0.54065 0.85075 0.0
C3619 C 0.93365 0.53761 0.8676 0.0
C3620 C 0.91405 0.53549 0.86654 0.0
H3621 H 0.9645 0.50732 0.98082 0.0
H3622 H 0.94983 0.5149 0.95026 0.0
C3623 C 0.90372 0.53569 0.84857 0.0
C3624 C 0.94456 0.53492 0.88582 0.0
H3625 H 0.95644 0.5006 0.91373 0.0
C3626 C 0.95493 0.55065 0.89689 0.0
C3627 C 0.94529 0.51666 0.89176 0.0
C3628 C 0.9348 0.49933 0.87991 0.0
C3629 C 0.96561 0.5486 0.91427 0.0
C3630 C 0.96612 0.53032 0.92036 0.0
C3631 C 0.95604 0.5146 0.90898 0.0
C3632 C 0.97561 0.52709 0.93931 0.0
C3633 C 0.97574 0.56596 0.92629 0.0
C3634 C 0.9951 0.53155 0.94338 0.0
C3635 C 0.00368 0.52731 0.96112 0.0
C3636 C 0.99285 0.51838 0.97484 0.0
C3637 C 0.97335 0.51412 0.97061 0.0
C3638 C 0.96487 0.51846 0.95311 0.0
H3639 H 0.9711 0.57907 0.92148 0.0
H3640 H 0.97353 0.56509 0.94199 0.0
H3641 H 0.99096 0.56698 0.92482 0.0
H3642 H 0.00367 0.53795 0.93273 0.0
H3643 H 0.01872 0.53071 0.96395 0.0
H3644 H 0.27064 0.13663 0.561 0.0
H3645 H 0.27246 0.14687 0.59598 0.0
H3646 H 0.2568 0.20021 0.58213 0.0
H3647 H 0.2547 0.19019 0.54747 0.0
H3648 H 0.29443 0.17832 0.61728 0.0
H3649 H 0.21903 0.18235 0.62025 0.0
H3650 H 0.228 0.17026 0.59997 0.0
H3651 H 0.22949 0.19552 0.60172 0.0
C3652 C 0.26755 0.15053 0.56541 0.0
C3653 C 0.26232 0.16247 0.55136 0.0
C3654 C 0.26859 0.15635 0.58539 0.0
C3655 C 0.26434 0.17414 0.59164 0.0
C3656 C 0.25963 0.18623 0.57766 0.0
H3657 H 0.26611 0.2421 0.70133 0.0
H3658 H 0.26273 0.2294 0.66698 0.0
C3659 C 0.25854 0.18046 0.55779 0.0
C3660 C 0.26518 0.18041 0.61273 0.0
H3661 H 0.2393 0.19674 0.64783 0.0
C3662 C 0.28235 0.18216 0.62403 0.0
C3663 C 0.2494 0.18551 0.62146 0.0
C3664 C 0.23039 0.18316 0.61028 0.0
C3665 C 0.28428 0.18938 0.64371 0.0
C3666 C 0.26855 0.19467 0.65236 0.0
C3667 C 0.25135 0.19275 0.64112 0.0
C3668 C 0.26967 0.20206 0.67315 0.0
C3669 C 0.30327 0.19175 0.65492 0.0
C3670 C 0.27414 0.19072 0.68797 0.0
C3671 C 0.27606 0.19789 0.70752 0.0
C3672 C 0.27343 0.21655 0.71268 0.0
C3673 C 0.26826 0.22769 0.69784 0.0
C3674 C 0.26635 0.22047 0.67823 0.0
H3675 H 0.31464 0.1915 0.64503 0.0
H3676 H 0.306 0.20521 0.66438 0.0
H3677 H 0.30377 0.18001 0.66444 0.0
H3678 H 0.27634 0.17634 0.68439 0.0
H3679 H 0.27988 0.18885 0.71857 0.0
H3680 H 0.63164 0.49465 0.22354 0.0
H3681 H 0.62073 0.49124 0.18861 0.0
H3682 H 0.57953 0.52721 0.19998 0.0
H3683 H 0.59005 0.53057 0.23453 0.0
H3684 H 0.56508 0.49327 0.17773 0.0
H3685 H 0.62802 0.53048 0.14782 0.0
H3686 H 0.6318 0.51194 0.16311 0.0
H3687 H 0.62434 0.53293 0.17345 0.0
C3688 C 0.62037 0.50195 0.21855 0.0
C3689 C 0.6117 0.51281 0.2319 0.0
C3690 C 0.6142 0.50004 0.1986 0.0
C3691 C 0.59939 0.50908 0.19172 0.0
C3692 C 0.59095 0.52009 0.20497 0.0
H3693 H 0.53178 0.51456 0.08273 0.0
H3694 H 0.54536 0.51831 0.11677 0.0
C3695 C 0.59702 0.52196 0.22478 0.0
C3696 C 0.59201 0.5067 0.17089 0.0
H3697 H 0.60274 0.51709 0.12514 0.0
C3698 C 0.57331 0.49844 0.1662 0.0
C3699 C 0.6028 0.51345 0.15592 0.0
C3700 C 0.62282 0.52283 0.16024 0.0
C3701 C 0.56508 0.49666 0.14692 0.0
C3702 C 0.57574 0.50376 0.13197 0.0
C3703 C 0.59454 0.51181 0.13663 0.0
C3704 C 0.56785 0.50242 0.1113 0.0
C3705 C 0.54518 0.48683 0.14273 0.0
C3706 C 0.57638 0.49292 0.09683 0.0
C3707 C 0.56886 0.49105 0.07742 0.0
C3708 C 0.55258 0.49859 0.07202 0.0
C3709 C 0.54424 0.50848 0.08645 0.0
C3710 C 0.55191 0.51051 0.10592 0.0
H3711 H 0.54086 0.47778 0.15449 0.0
H3712 H 0.5357 0.49757 0.14181 0.0
H3713 H 0.54331 0.47795 0.12864 0.0
H3714 H 0.5887 0.48663 0.10061 0.0
H3715 H 0.57565 0.48332 0.06671 0.0
H3716 H 0.2424 0.83532 0.96929 0.0
H3717 H 0.24263 0.81687 0.93826 0.0
H3718 H 0.23591 0.86583 0.90741 0.0
H3719 H 0.23599 0.88464 0.93866 0.0
H3720 H 0.21631 0.80916 0.90567 0.0
H3721 H 0.28357 0.84911 0.88797 0.0
H3722 H 0.27533 0.85109 0.91198 0.0
H3723 H 0.26568 0.86322 0.89268 0.0
C3724 C 0.24093 0.84222 0.95593 0.0
C3725 C 0.23938 0.86151 0.9564 0.0
C3726 C 0.24099 0.8316 0.93821 0.0
C3727 C 0.23952 0.84004 0.9206 0.0
C3728 C 0.23736 0.85915 0.92091 0.0
H3729 H 0.24975 0.80325 0.8015 0.0
H3730 H 0.24348 0.8192 0.83201 0.0
C3731 C 0.23734 0.86985 0.93872 0.0
C3732 C 0.24092 0.82884 0.90205 0.0
H3733 H 0.26819 0.82559 0.86418 0.0
C3734 C 0.22761 0.81272 0.89654 0.0
C3735 C 0.25584 0.83343 0.89037 0.0
C3736 C 0.27103 0.85005 0.89608 0.0
C3737 C 0.22858 0.8013 0.87932 0.0
C3738 C 0.24342 0.80602 0.86756 0.0
C3739 C 0.2568 0.82204 0.87322 0.0
C3740 C 0.24508 0.79517 0.84884 0.0
C3741 C 0.21353 0.78458 0.87365 0.0
C3742 C 0.2477 0.77616 0.84807 0.0
C3743 C 0.25107 0.7668 0.8304 0.0
C3744 C 0.25218 0.77649 0.81344 0.0
C3745 C 0.24907 0.79536 0.81429 0.0
C3746 C 0.24549 0.80455 0.83175 0.0
H3747 H 0.20095 0.78548 0.88168 0.0
H3748 H 0.20933 0.7834 0.85772 0.0
H3749 H 0.219 0.7715 0.8772 0.0
H3750 H 0.24778 0.76876 0.8612 0.0
H3751 H 0.25351 0.75229 0.83019 0.0
H3752 H 0.89649 0.52942 0.72062 0.0
H3753 H 0.90589 0.52737 0.68711 0.0
H3754 H 0.94198 0.48724 0.70267 0.0
H3755 H 0.93275 0.48916 0.73592 0.0
H3756 H 0.94482 0.53664 0.67979 0.0
H3757 H 0.9142 0.46407 0.64965 0.0
H3758 H 0.90536 0.47611 0.67009 0.0
H3759 H 0.92618 0.46557 0.67365 0.0
C3760 C 0.9061 0.51987 0.71674 0.0
C3761 C 0.914 0.50957 0.73089 0.0
C3762 C 0.91147 0.51874 0.69766 0.0
C3763 C 0.92448 0.50703 0.69247 0.0
C3764 C 0.93171 0.49613 0.70634 0.0
H3765 H 0.99072 0.48874 0.59518 0.0
H3766 H 0.97665 0.48819 0.62651 0.0
C3767 C 0.92653 0.49738 0.72538 0.0
C3768 C 0.93221 0.50764 0.67331 0.0
H3769 H 0.9381 0.48016 0.63244 0.0
C3770 C 0.94318 0.52439 0.66929 0.0
C3771 C 0.93024 0.4915 0.6599 0.0
C3772 C 0.91823 0.47331 0.66341 0.0
C3773 C 0.95264 0.52533 0.65234 0.0
C3774 C 0.95072 0.50918 0.63892 0.0
C3775 C 0.93962 0.49246 0.64286 0.0
C3776 C 0.95954 0.50963 0.62032 0.0
C3777 C 0.96501 0.54345 0.6492 0.0
C3778 C 0.95443 0.52176 0.60656 0.0
C3779 C 0.96244 0.52216 0.58886 0.0
C3780 C 0.97559 0.5103 0.58445 0.0
C3781 C 0.98069 0.49809 0.59823 0.0
C3782 C 0.97264 0.49772 0.61605 0.0
H3783 H 0.96909 0.55246 0.6631 0.0
H3784 H 0.97789 0.54057 0.64258 0.0
H3785 H 0.9573 0.55154 0.6391 0.0
H3786 H 0.94408 0.53079 0.60945 0.0
H3787 H 0.95814 0.5317 0.57855 0.0
H3788 H 0.28609 0.13284 0.43463 0.0
H3789 H 0.28797 0.15032 0.40533 0.0
H3790 H 0.25057 0.18628 0.42801 0.0
H3791 H 0.24952 0.1696 0.45755 0.0
H3792 H 0.26481 0.15671 0.377 0.0
H3793 H 0.29177 0.2256 0.41729 0.0
H3794 H 0.28978 0.20392 0.42906 0.0
H3795 H 0.26987 0.21604 0.42561 0.0
C3796 C 0.27823 0.14443 0.43325 0.0
C3797 C 0.26785 0.15003 0.44844 0.0
C3798 C 0.27935 0.15446 0.41655 0.0
C3799 C 0.26993 0.17009 0.41471 0.0
C3800 C 0.25863 0.17485 0.4294 0.0
H3801 H 0.23852 0.21714 0.30828 0.0
H3802 H 0.24144 0.19957 0.33699 0.0
C3803 C 0.25786 0.16514 0.44621 0.0
C3804 C 0.27165 0.18136 0.39743 0.0
H3805 H 0.27863 0.2266 0.38429 0.0
C3806 C 0.26805 0.17198 0.37862 0.0
C3807 C 0.27642 0.20128 0.39938 0.0
C3808 C 0.28239 0.21225 0.41893 0.0
C3809 C 0.26824 0.18198 0.36184 0.0
C3810 C 0.27136 0.20197 0.36391 0.0
C3811 C 0.27583 0.21131 0.38265 0.0
C3812 C 0.26944 0.21342 0.34691 0.0
C3813 C 0.26527 0.17091 0.34209 0.0
C3814 C 0.28372 0.22797 0.34348 0.0
C3815 C 0.28185 0.23847 0.32726 0.0
C3816 C 0.26573 0.23447 0.31413 0.0
C3817 C 0.25125 0.22034 0.31796 0.0
C3818 C 0.25298 0.21013 0.33428 0.0
H3819 H 0.2699 0.15691 0.34282 0.0
H3820 H 0.25014 0.16842 0.33714 0.0
H3821 H 0.27296 0.17858 0.33102 0.0
H3822 H 0.29647 0.23096 0.35314 0.0
H3823 H 0.29322 0.24927 0.32465 0.0
H3824 H 0.33757 0.62387 0.51339 0.0
H3825 H 0.36267 0.60516 0.50932 0.0
H3826 H 0.32543 0.55484 0.51889 0.0
H3827 H 0.30027 0.57361 0.52347 0.0
H3828 H 0.35895 0.55643 0.53885 0.0
H3829 H 0.36963 0.5707 0.46248 0.0
H3830 H 0.37128 0.59219 0.47786 0.0
H3831 H 0.34948 0.57627 0.4742 0.0
C3832 C 0.3347 0.60882 0.51464 0.0
C3833 C 0.31691 0.6002 0.51868 0.0
C3834 C 0.34902 0.59811 0.5121 0.0
C3835 C 0.3458 0.57851 0.51325 0.0
C3836 C 0.32816 0.56991 0.51771 0.0
H3837 H 0.43852 0.51713 0.48375 0.0
H3838 H 0.40657 0.52493 0.48329 0.0
C3839 C 0.31383 0.58066 0.52038 0.0
C3840 C 0.36116 0.56728 0.51065 0.0
H3841 H 0.3953 0.56002 0.48073 0.0
C3842 C 0.36669 0.55694 0.52599 0.0
C3843 C 0.37102 0.56754 0.49367 0.0
C3844 C 0.36491 0.5771 0.47604 0.0
C3845 C 0.38256 0.54797 0.52538 0.0
C3846 C 0.39338 0.5497 0.50918 0.0
C3847 C 0.38713 0.5589 0.49325 0.0
C3848 C 0.41222 0.54405 0.50954 0.0
C3849 C 0.38785 0.5371 0.54233 0.0
C3850 C 0.42596 0.55242 0.52421 0.0
C3851 C 0.44402 0.54808 0.52447 0.0
C3852 C 0.4489 0.53535 0.50995 0.0
C3853 C 0.43516 0.52694 0.49516 0.0
C3854 C 0.41695 0.53137 0.49489 0.0
H3855 H 0.37535 0.5315 0.54968 0.0
H3856 H 0.39501 0.52515 0.53755 0.0
H3857 H 0.39745 0.54666 0.55327 0.0
H3858 H 0.4228 0.56261 0.53536 0.0
H3859 H 0.4542 0.55485 0.5361 0.0
H3860 H 0.83421 0.89472 0.55415 0.0
H3861 H 0.86385 0.91593 0.55541 0.0
H3862 H 0.83748 0.95294 0.51943 0.0
H3863 H 0.80745 0.93224 0.51931 0.0
H3864 H 0.88358 0.92266 0.52772 0.0
H3865 H 0.86802 0.99186 0.55648 0.0
H3866 H 0.85187 0.97038 0.55712 0.0
H3867 H 0.85275 0.98263 0.53522 0.0
C3868 C 0.83468 0.90761 0.54688 0.0
C3869 C 0.81856 0.91188 0.53668 0.0
C3870 C 0.85164 0.91973 0.54755 0.0
C3871 C 0.85304 0.93623 0.53765 0.0
C3872 C 0.8368 0.94067 0.52769 0.0
H3873 H 0.95829 0.9806 0.49506 0.0
H3874 H 0.9263 0.96642 0.49904 0.0
C3875 C 0.81964 0.92876 0.52749 0.0
C3876 C 0.87181 0.94754 0.53627 0.0
H3877 H 0.89639 0.99226 0.54057 0.0
C3878 C 0.88633 0.93787 0.53077 0.0
C3879 C 0.87568 0.9674 0.54042 0.0
C3880 C 0.86129 0.97863 0.54784 0.0
C3881 C 0.90436 0.94735 0.52909 0.0
C3882 C 0.90794 0.96729 0.53206 0.0
C3883 C 0.8936 0.97702 0.53795 0.0
C3884 C 0.92646 0.97809 0.52893 0.0
C3885 C 0.91948 0.93575 0.52455 0.0
C3886 C 0.93682 0.99053 0.54392 0.0
C3887 C 0.95505 0.99913 0.54145 0.0
C3888 C 0.96321 0.9952 0.52406 0.0
C3889 C 0.95246 0.98357 0.50877 0.0
C3890 C 0.93421 0.97536 0.51107 0.0
H3891 H 0.9162 0.92124 0.52918 0.0
H3892 H 0.92054 0.93449 0.50855 0.0
H3893 H 0.93327 0.94234 0.53191 0.0
H3894 H 0.93109 0.99303 0.55776 0.0
H3895 H 0.96305 0.00808 0.55343 0.0
H3896 H 0.88763 0.07792 0.26808 0.0
H3897 H 0.87114 0.10509 0.27149 0.0
H3898 H 0.82249 0.07305 0.23845 0.0
H3899 H 0.83875 0.04559 0.23546 0.0
H3900 H 0.85678 0.12568 0.24537 0.0
H3901 H 0.79958 0.09224 0.28598 0.0
H3902 H 0.82006 0.08152 0.28186 0.0
H3903 H 0.8012 0.07952 0.26294 0.0
C3904 C 0.87344 0.07665 0.26145 0.0
C3905 C 0.86448 0.05954 0.25156 0.0
C3906 C 0.864 0.09221 0.26347 0.0
C3907 C 0.8454 0.09104 0.25564 0.0
C3908 C 0.83663 0.07417 0.24515 0.0
H3909 H 0.7872 0.18278 0.22922 0.0
H3910 H 0.80241 0.15485 0.22979 0.0
C3911 C 0.84602 0.05853 0.24325 0.0
C3912 C 0.83542 0.10765 0.25808 0.0
H3913 H 0.79588 0.12202 0.27415 0.0
C3914 C 0.84353 0.12486 0.25178 0.0
C3915 C 0.81825 0.10676 0.26677 0.0
C3916 C 0.80934 0.08907 0.27496 0.0
C3917 C 0.83472 0.14096 0.25335 0.0
C3918 C 0.81715 0.13981 0.26115 0.0
C3919 C 0.80927 0.12282 0.26802 0.0
C3920 C 0.80647 0.15593 0.26128 0.0
C3921 C 0.8443 0.15914 0.24665 0.0
C3922 C 0.80302 0.16546 0.27888 0.0
C3923 C 0.7942 0.18159 0.27865 0.0
C3924 C 0.78864 0.18832 0.26079 0.0
C3925 C 0.7914 0.17815 0.24327 0.0
C3926 C 0.80018 0.16216 0.24353 0.0
H3927 H 0.85952 0.15905 0.24587 0.0
H3928 H 0.83811 0.16105 0.23183 0.0
H3929 H 0.84235 0.17141 0.25661 0.0
H3930 H 0.80767 0.16077 0.29276 0.0
H3931 H 0.79229 0.18909 0.29238 0.0
H3932 H 0.70315 0.14957 0.01715 0.0
H3933 H 0.67198 0.13173 0.0179 0.0
H3934 H 0.69542 0.08012 0.01964 0.0
H3935 H 0.72679 0.09785 0.01915 0.0
H3936 H 0.65435 0.10266 0.99047 0.0
H3937 H 0.66149 0.07779 0.06488 0.0
H3938 H 0.6777 0.09672 0.05711 0.0
H3939 H 0.67897 0.07268 0.04901 0.0
C3940 C 0.70176 0.13444 0.0178 0.0
C3941 C 0.71754 0.12518 0.01813 0.0
C3942 C 0.68391 0.12427 0.01823 0.0
C3943 C 0.68142 0.10465 0.01908 0.0
C3944 C 0.69707 0.0953 0.01938 0.0
H3945 H 0.57572 0.0268 0.0151 0.0
H3946 H 0.60918 0.03956 0.0177 0.0
C3947 C 0.71499 0.10547 0.01897 0.0
C3948 C 0.6623 0.09405 0.01879 0.0
H3949 H 0.63275 0.06754 0.04598 0.0
C3950 C 0.64965 0.09494 0.00258 0.0
C3951 C 0.65628 0.08384 0.03454 0.0
C3952 C 0.66923 0.08275 0.05247 0.0
C3953 C 0.63104 0.08615 0.00181 0.0
C3954 C 0.62483 0.07649 0.01783 0.0
C3955 C 0.63759 0.07505 0.03379 0.0
C3956 C 0.60489 0.06872 0.0185 0.0
C3957 C 0.61812 0.08733 0.98386 0.0
C3958 C 0.59155 0.08094 0.01886 0.0
C3959 C 0.57254 0.07376 0.01737 0.0
C3960 C 0.56651 0.05419 0.01561 0.0
C3961 C 0.57994 0.04195 0.0164 0.0
C3962 C 0.59903 0.04919 0.01785 0.0
H3963 H 0.62601 0.09076 0.97105 0.0
H3964 H 0.6085 0.07385 0.98007 0.0
H3965 H 0.60956 0.09863 0.98678 0.0
H3966 H 0.59584 0.09608 0.01973 0.0
H3967 H 0.56258 0.08358 0.01703 0.0
H3968 H 0.19182 0.46697 0.25439 0.0
H3969 H 0.20921 0.44059 0.25815 0.0
H3970 H 0.16428 0.41168 0.28726 0.0
H3971 H 0.14659 0.43776 0.28307 0.0
H3972 H 0.22187 0.42532 0.29138 0.0
H3973 H 0.17106 0.37251 0.24417 0.0
H3974 H 0.17004 0.39745 0.24502 0.0
H3975 H 0.1612 0.38382 0.26411 0.0
C3976 C 0.18559 0.45493 0.26146 0.0
C3977 C 0.16777 0.45432 0.26825 0.0
C3978 C 0.19558 0.43993 0.2637 0.0
C3979 C 0.18795 0.42412 0.2728 0.0
C3980 C 0.17027 0.4236 0.27985 0.0
H3981 H 0.24591 0.33058 0.30547 0.0
H3982 H 0.23284 0.36028 0.3078 0.0
C3983 C 0.16019 0.4385 0.27745 0.0
C3984 C 0.19843 0.40807 0.27461 0.0
H3985 H 0.19642 0.36134 0.26057 0.0
C3986 C 0.21633 0.4113 0.28469 0.0
C3987 C 0.19116 0.38986 0.26576 0.0
C3988 C 0.17239 0.38567 0.25401 0.0
C3989 C 0.22724 0.39677 0.28598 0.0
C3990 C 0.21993 0.3786 0.27715 0.0
C3991 C 0.20194 0.37533 0.26737 0.0
C3992 C 0.23094 0.36287 0.27661 0.0
C3993 C 0.24668 0.40103 0.29622 0.0
C3994 C 0.23461 0.35486 0.25843 0.0
C3995 C 0.24182 0.33798 0.25709 0.0
C3996 C 0.24561 0.32884 0.27392 0.0
C3997 C 0.24326 0.3375 0.29232 0.0
C3998 C 0.2358 0.35442 0.29365 0.0
H3999 H 0.25142 0.41643 0.29933 0.0
H4000 H 0.24686 0.39444 0.31028 0.0
H4001 H 0.25678 0.39498 0.28723 0.0
H4002 H 0.231 0.3612 0.24514 0.0
H4003 H 0.24361 0.33161 0.24273 0.0
H4004 H 0.22748 0.43817 0.05234 0.0
H4005 H 0.19998 0.45426 0.0527 0.0
H4006 H 0.16699 0.40644 0.01875 0.0
H4007 H 0.19417 0.39008 0.01893 0.0
H4008 H 0.17906 0.46571 0.02372 0.0
H4009 H 0.13394 0.41383 0.06154 0.0
H4010 H 0.15852 0.41303 0.06018 0.0
H4011 H 0.14187 0.40318 0.04 0.0
C4012 C 0.21429 0.43098 0.0452 0.0
C4013 C 0.21298 0.41274 0.0358 0.0
C4014 C 0.19859 0.44024 0.04532 0.0
C4015 C 0.18126 0.43149 0.03602 0.0
C4016 C 0.18 0.41333 0.02651 0.0
H4017 H 0.0861 0.48759 0.0008 0.0
H4018 H 0.11565 0.47474 0.00209 0.0
C4019 C 0.19562 0.404 0.02656 0.0
C4020 C 0.16462 0.44148 0.03581 0.0
H4021 H 0.11888 0.43665 0.04577 0.0
C4022 C 0.16593 0.45941 0.02868 0.0
C4023 C 0.14752 0.43345 0.04251 0.0
C4024 C 0.14541 0.41491 0.05168 0.0
C4025 C 0.15058 0.46934 0.02776 0.0
C4026 C 0.13325 0.46092 0.03367 0.0
C4027 C 0.13206 0.4431 0.04104 0.0
C4028 C 0.11623 0.47035 0.03291 0.0
C4029 C 0.15325 0.48891 0.02089 0.0
C4030 C 0.10656 0.47212 0.04969 0.0
C4031 C 0.08958 0.4791 0.04885 0.0
C4032 C 0.08187 0.48468 0.03126 0.0
C4033 C 0.09183 0.48364 0.01461 0.0
C4034 C 0.10877 0.47634 0.01537 0.0
H4035 H 0.1682 0.49541 0.02267 0.0
H4036 H 0.14845 0.48808 0.00513 0.0
H4037 H 0.14506 0.49827 0.029 0.0
H4038 H 0.11197 0.46769 0.06341 0.0
H4039 H 0.08228 0.47977 0.06198 0.0
H4040 H 0.84374 0.9684 0.25031 0.0
H4041 H 0.82143 0.93922 0.25062 0.0
H4042 H 0.8672 0.90741 0.25569 0.0
H4043 H 0.88942 0.93619 0.25564 0.0
H4044 H 0.81571 0.90433 0.22648 0.0
H4045 H 0.83841 0.89427 0.30301 0.0
H4046 H 0.8443 0.91637 0.29242 0.0
H4047 H 0.85759 0.89747 0.28802 0.0
C4048 C 0.84903 0.95516 0.25137 0.0
C4049 C 0.86841 0.95472 0.2532 0.0
C4050 C 0.83626 0.93852 0.25156 0.0
C4051 C 0.84268 0.92121 0.25362 0.0
C4052 C 0.86194 0.92066 0.25458 0.0
H4053 H 0.81111 0.80413 0.25639 0.0
H4054 H 0.82481 0.83678 0.25412 0.0
C4055 C 0.87465 0.93719 0.25448 0.0
C4056 C 0.82952 0.9036 0.25512 0.0
H4057 H 0.82135 0.86711 0.28391 0.0
C4058 C 0.81666 0.89632 0.23915 0.0
C4059 C 0.83067 0.89325 0.27176 0.0
C4060 C 0.84335 0.90082 0.28986 0.0
C4061 C 0.80577 0.8784 0.23893 0.0
C4062 C 0.80777 0.86764 0.25512 0.0
C4063 C 0.81995 0.87534 0.27144 0.0
C4064 C 0.79869 0.84775 0.25492 0.0
C4065 C 0.79288 0.87065 0.22107 0.0
C4066 C 0.77934 0.84302 0.25594 0.0
C4067 C 0.77136 0.82422 0.25729 0.0
C4068 C 0.78265 0.80988 0.2577 0.0
C4069 C 0.80195 0.81474 0.25619 0.0
C4070 C 0.80985 0.83343 0.25488 0.0
H4071 H 0.79438 0.87993 0.20891 0.0
H4072 H 0.79569 0.85642 0.21595 0.0
H4073 H 0.77818 0.86915 0.22487 0.0
H4074 H 0.77051 0.85392 0.25622 0.0
H4075 H 0.75648 0.821 0.25851 0.0
H4076 H 0.67078 0.04407 0.76465 0.0
H4077 H 0.68985 0.07509 0.76418 0.0
H4078 H 0.64014 0.10131 0.76371 0.0
H4079 H 0.62101 0.0706 0.76437 0.0
H4080 H 0.68833 0.10398 0.73727 0.0
H4081 H 0.67344 0.12774 0.81207 0.0
H4082 H 0.66906 0.10327 0.80265 0.0
H4083 H 0.65279 0.11886 0.79617 0.0
C4084 C 0.66388 0.05642 0.76435 0.0
C4085 C 0.64434 0.05483 0.76475 0.0
C4086 C 0.67481 0.07412 0.76406 0.0
C4087 C 0.66641 0.09047 0.76423 0.0
C4088 C 0.64691 0.08887 0.76394 0.0
H4089 H 0.69163 0.20964 0.76849 0.0
H4090 H 0.6785 0.17627 0.76427 0.0
C4091 C 0.636 0.07126 0.76427 0.0
C4092 C 0.67788 0.10937 0.76523 0.0
H4093 H 0.68684 0.15154 0.79281 0.0
C4094 C 0.68822 0.11436 0.74948 0.0
C4095 C 0.67783 0.12276 0.78129 0.0
C4096 C 0.66784 0.11787 0.7991 0.0
C4097 C 0.69774 0.13279 0.74895 0.0
C4098 C 0.69697 0.14638 0.76465 0.0
C4099 C 0.68723 0.14112 0.7807 0.0
C4100 C 0.70526 0.16643 0.7645 0.0
C4101 C 0.70793 0.13783 0.73134 0.0
C4102 C 0.72469 0.17197 0.76558 0.0
C4103 C 0.7323 0.19114 0.76793 0.0
C4104 C 0.72054 0.20498 0.76945 0.0
C4105 C 0.70108 0.19934 0.76752 0.0
C4106 C 0.69353 0.18027 0.76509 0.0
H4107 H 0.70452 0.12666 0.71905 0.0
H4108 H 0.70445 0.1513 0.72628 0.0
H4109 H 0.72322 0.13977 0.73538 0.0
H4110 H 0.73399 0.16149 0.76542 0.0
H4111 H 0.74735 0.19506 0.76947 0.0
loop_
_geom_bond_atom_site_label_1
_geom_bond_atom_site_label_2
_geom_bond_distance
_geom_bond_site_symmetry_2
_ccdc_geom_bond_type
Co0 O1 2.216 . S
Co0 O2 2.091 . S
Co0 O4 2.004 1_455 S
Co0 O10 2.021 . S
Co0 O12 2.137 . S
Co0 O13 2.244 . S
O1 Co0 2.216 . S
O1 C8 1.247 . S
O2 Co0 2.091 . S
O2 C8 1.261 . S
C3 O12 1.247 . S
C3 O13 1.272 . S
O4 Co0 2.004 1_655 S
O4 C9 1.259 . S
Co5 O6 2.061 . S
Co5 O11 2.052 1_655 S
Co5 O13 2.135 1_655 S
O6 Co5 2.061 . S
O6 C9 1.235 . S
C7 O10 1.238 . S
C7 O11 1.241 . S
C8 O1 1.247 . S
C8 O2 1.261 . S
C9 O4 1.259 . S
C9 O6 1.235 . S
O10 Co0 2.021 . S
O10 C7 1.238 . S
O11 Co5 2.052 1_455 S
O11 C7 1.241 . S
O12 Co0 2.137 . S
O12 C3 1.247 . S
O13 Co0 2.244 . S
O13 C3 1.272 . S
O13 Co5 2.135 1_455 S
Co14 O15 2.216 1_455 S
Co14 O16 2.091 1_455 S
Co14 O18 2.004 . S
Co14 O24 2.021 . S
Co14 O26 2.137 . S
Co14 O27 2.244 . S
O15 Co14 2.216 1_655 S
O15 C22 1.247 . S
O16 Co14 2.091 1_655 S
O16 C22 1.261 . S
C17 O26 1.247 . S
C17 O27 1.272 . S
O18 Co14 2.004 . S
O18 C23 1.259 . S
Co19 O20 2.061 . S
Co19 O25 2.052 . S
Co19 O27 2.135 . S
O20 Co19 2.061 . S
O20 C23 1.235 . S
C21 O24 1.238 . S
C21 O25 1.241 . S
C22 O15 1.247 . S
C22 O16 1.261 . S
C23 O18 1.259 . S
C23 O20 1.235 . S
O24 Co14 2.021 . S
O24 C21 1.238 . S
O25 Co19 2.052 . S
O25 C21 1.241 . S
O26 Co14 2.137 . S
O26 C17 1.247 . S
O27 Co14 2.244 . S
O27 C17 1.272 . S
O27 Co19 2.135 . S
Co28 O29 2.216 . S
Co28 O30 2.091 . S
Co28 O32 2.004 . S
Co28 O38 2.021 . S
Co28 O40 2.137 . S
Co28 O41 2.244 . S
O29 Co28 2.216 . S
O29 C36 1.247 . S
O30 Co28 2.091 . S
O30 C36 1.261 . S
C31 O40 1.247 . S
C31 O41 1.272 . S
O32 Co28 2.004 . S
O32 C37 1.259 . S
Co33 O34 2.061 . S
Co33 O39 2.052 . S
Co33 O41 2.135 . S
O34 Co33 2.061 . S
O34 C37 1.235 . S
C35 O38 1.238 . S
C35 O39 1.241 . S
C36 O29 1.247 . S
C36 O30 1.261 . S
C37 O32 1.259 . S
C37 O34 1.235 . S
O38 Co28 2.021 . S
O38 C35 1.238 . S
O39 Co33 2.052 . S
O39 C35 1.241 . S
O40 Co28 2.137 . S
O40 C31 1.247 . S
O41 Co28 2.244 . S
O41 C31 1.272 . S
O41 Co33 2.135 . S
Co42 O43 2.216 . S
Co42 O44 2.091 . S
Co42 O46 2.004 . S
Co42 O52 2.021 . S
Co42 O54 2.137 . S
Co42 O55 2.244 . S
O43 Co42 2.216 . S
O43 C50 1.247 . S
O44 Co42 2.091 . S
O44 C50 1.261 . S
C45 O54 1.247 . S
C45 O55 1.272 . S
O46 Co42 2.004 . S
O46 C51 1.259 . S
Co47 O48 2.061 . S
Co47 O53 2.052 . S
Co47 O55 2.135 . S
O48 Co47 2.061 . S
O48 C51 1.235 . S
C49 O52 1.238 . S
C49 O53 1.241 . S
C50 O43 1.247 . S
C50 O44 1.261 . S
C51 O46 1.259 . S
C51 O48 1.235 . S
O52 Co42 2.021 . S
O52 C49 1.238 . S
O53 Co47 2.052 . S
O53 C49 1.241 . S
O54 Co42 2.137 . S
O54 C45 1.247 . S
O55 Co42 2.244 . S
O55 C45 1.272 . S
O55 Co47 2.135 . S
Co56 O57 2.216 1_455 S
Co56 O58 2.123 . S
Co56 O60 2.004 . S
Co56 O66 2.021 . S
Co56 O68 2.137 . S
Co56 O69 2.244 . S
O57 Co56 2.216 1_655 S
O57 C64 1.247 . S
O58 Co56 2.123 . S
O58 C64 1.226 1_455 S
C59 O68 1.247 . S
C59 O69 1.272 . S
O60 Co56 2.004 . S
O60 C65 1.259 . S
Co61 O62 2.061 . S
Co61 O67 2.052 . S
Co61 O69 2.135 . S
O62 Co61 2.061 . S
O62 C65 1.235 . S
C63 O66 1.238 . S
C63 O67 1.241 . S
C64 O57 1.247 . S
C64 O58 1.226 1_655 S
C65 O60 1.259 . S
C65 O62 1.235 . S
O66 Co56 2.021 . S
O66 C63 1.238 . S
O67 Co61 2.052 . S
O67 C63 1.241 . S
O68 Co56 2.137 . S
O68 C59 1.247 . S
O69 Co56 2.244 . S
O69 C59 1.272 . S
O69 Co61 2.135 . S
Co70 O71 2.216 . S
Co70 O72 2.091 . S
Co70 O74 2.004 . S
Co70 O80 2.021 . S
Co70 O82 2.137 . S
Co70 O83 2.244 . S
O71 Co70 2.216 . S
O71 C78 1.247 . S
O72 Co70 2.091 . S
O72 C78 1.261 . S
C73 O82 1.247 . S
C73 O83 1.272 . S
O74 Co70 2.004 . S
O74 C79 1.259 . S
Co75 O76 2.061 . S
Co75 O81 2.052 . S
Co75 O83 2.135 . S
O76 Co75 2.061 . S
O76 C79 1.235 . S
C77 O80 1.238 . S
C77 O81 1.241 . S
C78 O71 1.247 . S
C78 O72 1.261 . S
C79 O74 1.259 . S
C79 O76 1.235 . S
O80 Co70 2.021 . S
O80 C77 1.238 . S
O81 Co75 2.052 . S
O81 C77 1.241 . S
O82 Co70 2.137 . S
O82 C73 1.247 . S
O83 Co70 2.244 . S
O83 C73 1.272 . S
O83 Co75 2.135 . S
Co84 O85 2.216 . S
Co84 O86 2.091 . S
Co84 O88 2.004 . S
Co84 O94 2.021 . S
Co84 O96 2.137 . S
Co84 O97 2.244 . S
O85 Co84 2.216 . S
O85 C92 1.247 . S
O86 Co84 2.091 . S
O86 C92 1.261 . S
C87 O96 1.247 . S
C87 O97 1.272 . S
O88 Co84 2.004 . S
O88 C93 1.259 . S
Co89 O90 2.061 . S
Co89 O95 2.052 . S
Co89 O97 2.135 . S
O90 Co89 2.061 . S
O90 C93 1.235 . S
C91 O94 1.238 . S
C91 O95 1.241 . S
C92 O85 1.247 . S
C92 O86 1.261 . S
C93 O88 1.259 . S
C93 O90 1.235 . S
O94 Co84 2.021 . S
O94 C91 1.238 . S
O95 Co89 2.052 . S
O95 C91 1.241 . S
O96 Co84 2.137 . S
O96 C87 1.247 . S
O97 Co84 2.244 . S
O97 C87 1.272 . S
O97 Co89 2.135 . S
Co98 O99 2.216 . S
Co98 O100 2.091 . S
Co98 O102 2.004 1_455 S
Co98 O108 2.021 . S
Co98 O110 2.137 . S
Co98 O111 2.244 1_455 S
O99 Co98 2.216 . S
O99 C106 1.247 . S
O100 Co98 2.091 . S
O100 C106 1.261 . S
C101 O110 1.247 . S
C101 O111 1.272 1_455 S
O102 Co98 2.004 1_655 S
O102 C107 1.259 . S
Co103 O104 2.061 . S
Co103 O109 2.052 . S
Co103 O111 2.135 . S
O104 Co103 2.061 . S
O104 C107 1.235 . S
C105 O108 1.238 1_655 S
C105 O109 1.241 . S
C106 O99 1.247 . S
C106 O100 1.261 . S
C107 O102 1.259 . S
C107 O104 1.235 . S
O108 Co98 2.021 . S
O108 C105 1.238 1_455 S
O109 Co103 2.052 . S
O109 C105 1.241 . S
O110 Co98 2.137 . S
O110 C101 1.247 . S
O111 Co98 2.244 1_655 S
O111 C101 1.272 1_655 S
O111 Co103 2.135 . S
Co112 O113 2.216 . S
Co112 O114 2.091 . S
Co112 O116 2.004 1_545 S
Co112 O122 2.021 . S
Co112 O124 2.137 . S
Co112 O125 2.244 . S
O113 Co112 2.216 . S
O113 C120 1.247 . S
O114 Co112 2.091 . S
O114 C120 1.261 . S
C115 O124 1.247 . S
C115 O125 1.272 . S
O116 Co112 2.004 1_565 S
O116 C121 1.259 . S
Co117 O118 2.061 . S
Co117 O123 2.052 1_565 S
Co117 O125 2.135 1_565 S
O118 Co117 2.061 . S
O118 C121 1.235 . S
C119 O122 1.238 . S
C119 O123 1.241 . S
C120 O113 1.247 . S
C120 O114 1.261 . S
C121 O116 1.259 . S
C121 O118 1.235 . S
O122 Co112 2.021 . S
O122 C119 1.238 . S
O123 Co117 2.052 1_545 S
O123 C119 1.241 . S
O124 Co112 2.137 . S
O124 C115 1.247 . S
O125 Co112 2.244 . S
O125 C115 1.272 . S
O125 Co117 2.135 1_545 S
Co126 O127 2.216 . S
Co126 O128 2.091 . S
Co126 O130 2.004 . S
Co126 O136 2.021 . S
Co126 O138 2.137 . S
Co126 O139 2.244 . S
O127 Co126 2.216 . S
O127 C134 1.247 . S
O128 Co126 2.091 . S
O128 C134 1.261 . S
C129 O138 1.247 . S
C129 O139 1.272 . S
O130 Co126 2.004 . S
O130 C135 1.259 . S
Co131 O132 2.061 . S
Co131 O137 2.052 . S
Co131 O139 2.135 . S
O132 Co131 2.061 . S
O132 C135 1.235 . S
C133 O136 1.238 . S
C133 O137 1.241 . S
C134 O127 1.247 . S
C134 O128 1.261 . S
C135 O130 1.259 . S
C135 O132 1.235 . S
O136 Co126 2.021 . S
O136 C133 1.238 . S
O137 Co131 2.052 . S
O137 C133 1.241 . S
O138 Co126 2.137 . S
O138 C129 1.247 . S
O139 Co126 2.244 . S
O139 C129 1.272 . S
O139 Co131 2.135 . S
Co140 O141 2.216 1_545 S
Co140 O142 2.091 1_545 S
Co140 O144 2.004 . S
Co140 O150 2.021 . S
Co140 O152 2.137 . S
Co140 O153 2.244 . S
O141 Co140 2.216 1_565 S
O141 C148 1.247 . S
O142 Co140 2.091 1_565 S
O142 C148 1.261 . S
C143 O152 1.247 . S
C143 O153 1.272 . S
O144 Co140 2.004 . S
O144 C149 1.259 . S
Co145 O146 2.061 . S
Co145 O151 2.052 . S
Co145 O153 2.135 . S
O146 Co145 2.061 . S
O146 C149 1.235 . S
C147 O150 1.238 . S
C147 O151 1.241 . S
C148 O141 1.247 . S
C148 O142 1.261 . S
C149 O144 1.259 . S
C149 O146 1.235 . S
O150 Co140 2.021 . S
O150 C147 1.238 . S
O151 Co145 2.052 . S
O151 C147 1.241 . S
O152 Co140 2.137 . S
O152 C143 1.247 . S
O153 Co140 2.244 . S
O153 C143 1.272 . S
O153 Co145 2.135 . S
Co154 O155 2.216 . S
Co154 O156 2.091 . S
Co154 O158 2.004 . S
Co154 O164 2.021 . S
Co154 O166 2.137 1_554 S
Co154 O167 2.244 1_554 S
O155 Co154 2.216 . S
O155 C162 1.247 . S
O156 Co154 2.091 . S
O156 C162 1.261 . S
C157 O166 1.247 . S
C157 O167 1.272 . S
O158 Co154 2.004 . S
O158 C163 1.259 . S
Co159 O160 2.061 . S
Co159 O165 2.052 . S
Co159 O167 2.135 1_554 S
O160 Co159 2.061 . S
O160 C163 1.235 . S
C161 O164 1.238 . S
C161 O165 1.241 . S
C162 O155 1.247 . S
C162 O156 1.261 . S
C163 O158 1.259 . S
C163 O160 1.235 . S
O164 Co154 2.021 . S
O164 C161 1.238 . S
O165 Co159 2.052 . S
O165 C161 1.241 . S
O166 Co154 2.137 1_556 S
O166 C157 1.247 . S
O167 Co154 2.244 1_556 S
O167 C157 1.272 . S
O167 Co159 2.135 1_556 S
Co168 O169 2.216 . S
Co168 O170 2.091 . S
Co168 O172 2.004 . S
Co168 O178 2.021 . S
Co168 O180 2.137 . S
Co168 O181 2.244 . S
O169 Co168 2.216 . S
O169 C176 1.247 . S
O170 Co168 2.091 . S
O170 C176 1.261 . S
C171 O180 1.247 . S
C171 O181 1.272 . S
O172 Co168 2.004 . S
O172 C177 1.259 . S
Co173 O174 2.061 . S
Co173 O179 2.052 . S
Co173 O181 2.135 . S
O174 Co173 2.061 . S
O174 C177 1.235 . S
C175 O178 1.238 . S
C175 O179 1.241 . S
C176 O169 1.247 . S
C176 O170 1.261 . S
C177 O172 1.259 . S
C177 O174 1.235 . S
O178 Co168 2.021 . S
O178 C175 1.238 . S
O179 Co173 2.052 . S
O179 C175 1.241 . S
O180 Co168 2.137 . S
O180 C171 1.247 . S
O181 Co168 2.244 . S
O181 C171 1.272 . S
O181 Co173 2.135 . S
Co182 O183 2.216 . S
Co182 O184 2.091 . S
Co182 O186 2.004 . S
Co182 O192 2.021 . S
Co182 O194 2.137 1_554 S
Co182 O195 2.244 . S
O183 Co182 2.216 . S
O183 C190 1.247 . S
O184 Co182 2.091 . S
O184 C190 1.261 . S
C185 O194 1.247 . S
C185 O195 1.272 1_556 S
O186 Co182 2.004 . S
O186 C191 1.259 . S
Co187 O188 2.061 . S
Co187 O193 2.052 . S
Co187 O195 2.135 . S
O188 Co187 2.061 . S
O188 C191 1.235 . S
C189 O192 1.238 . S
C189 O193 1.241 . S
C190 O183 1.247 . S
C190 O184 1.261 . S
C191 O186 1.259 . S
C191 O188 1.235 . S
O192 Co182 2.021 . S
O192 C189 1.238 . S
O193 Co187 2.052 . S
O193 C189 1.241 . S
O194 Co182 2.137 1_556 S
O194 C185 1.247 . S
O195 Co182 2.244 . S
O195 C185 1.272 1_554 S
O195 Co187 2.135 . S
Co196 O197 2.216 . S
Co196 O198 2.091 . S
Co196 O200 2.004 . S
Co196 O206 2.021 . S
Co196 O208 2.137 . S
Co196 O209 2.244 . S
O197 Co196 2.216 . S
O197 C204 1.247 . S
O198 Co196 2.091 . S
O198 C204 1.261 . S
C199 O208 1.247 . S
C199 O209 1.272 . S
O200 Co196 2.004 . S
O200 C205 1.259 . S
Co201 O202 2.061 . S
Co201 O207 2.052 . S
Co201 O209 2.135 . S
O202 Co201 2.061 . S
O202 C205 1.235 . S
C203 O206 1.238 . S
C203 O207 1.241 . S
C204 O197 1.247 . S
C204 O198 1.261 . S
C205 O200 1.259 . S
C205 O202 1.235 . S
O206 Co196 2.021 . S
O206 C203 1.238 . S
O207 Co201 2.052 . S
O207 C203 1.241 . S
O208 Co196 2.137 . S
O208 C199 1.247 . S
O209 Co196 2.244 . S
O209 C199 1.272 . S
O209 Co201 2.135 . S
Co210 O211 2.216 . S
Co210 O212 2.091 . S
Co210 O214 2.004 . S
Co210 O220 2.021 . S
Co210 O222 2.137 . S
Co210 O223 2.244 . S
O211 Co210 2.216 . S
O211 C218 1.247 . S
O212 Co210 2.091 . S
O212 C218 1.261 . S
C213 O222 1.247 . S
C213 O223 1.272 . S
O214 Co210 2.004 . S
O214 C219 1.259 . S
Co215 O216 2.061 . S
Co215 O221 2.052 . S
Co215 O223 2.135 . S
O216 Co215 2.061 . S
O216 C219 1.235 . S
C217 O220 1.238 . S
C217 O221 1.241 . S
C218 O211 1.247 . S
C218 O212 1.261 . S
C219 O214 1.259 . S
C219 O216 1.235 . S
O220 Co210 2.021 . S
O220 C217 1.238 . S
O221 Co215 2.052 . S
O221 C217 1.241 . S
O222 Co210 2.137 . S
O222 C213 1.247 . S
O223 Co210 2.244 . S
O223 C213 1.272 . S
O223 Co215 2.135 . S
Co224 O225 2.216 . S
Co224 O226 2.091 . S
Co224 O228 2.004 1_545 S
Co224 O234 2.021 . S
Co224 O236 2.137 . S
Co224 O237 2.244 . S
O225 Co224 2.216 . S
O225 C232 1.247 . S
O226 Co224 2.091 . S
O226 C232 1.261 . S
C227 O236 1.247 . S
C227 O237 1.272 . S
O228 Co224 2.004 1_565 S
O228 C233 1.259 . S
Co229 O230 2.061 . S
Co229 O235 2.052 1_565 S
Co229 O237 2.135 1_565 S
O230 Co229 2.061 . S
O230 C233 1.235 . S
C231 O234 1.238 . S
C231 O235 1.241 . S
C232 O225 1.247 . S
C232 O226 1.261 . S
C233 O228 1.259 . S
C233 O230 1.235 . S
O234 Co224 2.021 . S
O234 C231 1.238 . S
O235 Co229 2.052 1_545 S
O235 C231 1.241 . S
O236 Co224 2.137 . S
O236 C227 1.247 . S
O237 Co224 2.244 . S
O237 C227 1.272 . S
O237 Co229 2.135 1_545 S
Co238 O239 2.216 . S
Co238 O240 2.091 . S
Co238 O242 2.004 . S
Co238 O248 2.021 . S
Co238 O250 2.137 . S
Co238 O251 2.244 . S
O239 Co238 2.216 . S
O239 C246 1.247 . S
O240 Co238 2.091 . S
O240 C246 1.261 . S
C241 O250 1.247 . S
C241 O251 1.272 . S
O242 Co238 2.004 . S
O242 C247 1.259 . S
Co243 O244 2.061 . S
Co243 O249 2.052 . S
Co243 O251 2.135 . S
O244 Co243 2.061 . S
O244 C247 1.235 . S
C245 O248 1.238 . S
C245 O249 1.241 . S
C246 O239 1.247 . S
C246 O240 1.261 . S
C247 O242 1.259 . S
C247 O244 1.235 . S
O248 Co238 2.021 . S
O248 C245 1.238 . S
O249 Co243 2.052 . S
O249 C245 1.241 . S
O250 Co238 2.137 . S
O250 C241 1.247 . S
O251 Co238 2.244 . S
O251 C241 1.272 . S
O251 Co243 2.135 . S
Co252 O253 2.216 . S
Co252 O254 2.091 . S
Co252 O256 2.004 . S
Co252 O262 2.021 . S
Co252 O264 2.137 . S
Co252 O265 2.244 . S
O253 Co252 2.216 . S
O253 C260 1.247 . S
O254 Co252 2.091 . S
O254 C260 1.261 . S
C255 O264 1.247 . S
C255 O265 1.272 . S
O256 Co252 2.004 . S
O256 C261 1.259 . S
Co257 O258 2.061 . S
Co257 O263 2.052 . S
Co257 O265 2.135 . S
O258 Co257 2.061 . S
O258 C261 1.235 . S
C259 O262 1.238 . S
C259 O263 1.241 . S
C260 O253 1.247 . S
C260 O254 1.261 . S
C261 O256 1.259 . S
C261 O258 1.235 . S
O262 Co252 2.021 . S
O262 C259 1.238 . S
O263 Co257 2.052 . S
O263 C259 1.241 . S
O264 Co252 2.137 . S
O264 C255 1.247 . S
O265 Co252 2.244 . S
O265 C255 1.272 . S
O265 Co257 2.135 . S
Co266 O267 2.216 . S
Co266 O268 2.091 . S
Co266 O270 2.004 1_565 S
Co266 O276 2.021 . S
Co266 O278 2.137 . S
Co266 O279 2.244 1_565 S
O267 Co266 2.216 . S
O267 C274 1.247 . S
O268 Co266 2.091 . S
O268 C274 1.261 . S
C269 O278 1.235 1_545 S
C269 O279 1.282 . S
O270 Co266 2.004 1_545 S
O270 C275 1.259 . S
Co271 O272 2.061 . S
Co271 O277 2.052 . S
Co271 O279 2.135 . S
O272 Co271 2.061 . S
O272 C275 1.235 . S
C273 O276 1.235 1_545 S
C273 O277 1.245 . S
C274 O267 1.247 . S
C274 O268 1.261 . S
C275 O270 1.259 . S
C275 O272 1.235 . S
O276 Co266 2.021 . S
O276 C273 1.235 1_565 S
O277 Co271 2.052 . S
O277 C273 1.245 . S
O278 Co266 2.137 . S
O278 C269 1.235 1_565 S
O279 Co266 2.244 1_545 S
O279 C269 1.282 . S
O279 Co271 2.135 . S
Co280 O281 2.216 . S
Co280 O282 2.093 . S
Co280 O284 2.004 . S
Co280 O290 2.021 1_556 S
Co280 O292 2.137 . S
Co280 O293 2.244 . S
O281 Co280 2.216 . S
O281 C288 1.242 1_556 S
O282 Co280 2.093 . S
O282 C288 1.266 1_556 S
C283 O292 1.247 . S
C283 O293 1.272 . S
O284 Co280 2.004 . S
O284 C289 1.259 . S
Co285 O286 2.063 1_554 S
Co285 O291 2.058 . S
Co285 O293 2.131 1_554 S
O286 Co285 2.063 1_556 S
O286 C289 1.236 . S
C287 O290 1.238 . S
C287 O291 1.241 . S
C288 O281 1.242 1_554 S
C288 O282 1.266 1_554 S
C289 O284 1.259 . S
C289 O286 1.236 . S
O290 Co280 2.021 1_554 S
O290 C287 1.238 . S
O291 Co285 2.058 . S
O291 C287 1.241 . S
O292 Co280 2.137 . S
O292 C283 1.247 . S
O293 Co280 2.244 . S
O293 C283 1.272 . S
O293 Co285 2.131 1_556 S
Co294 O295 2.216 . S
Co294 O296 2.091 . S
Co294 O298 2.004 . S
Co294 O304 2.021 . S
Co294 O306 2.137 . S
Co294 O307 2.244 . S
O295 Co294 2.216 . S
O295 C302 1.247 . S
O296 Co294 2.091 . S
O296 C302 1.261 . S
C297 O306 1.247 . S
C297 O307 1.272 . S
O298 Co294 2.004 . S
O298 C303 1.259 . S
Co299 O300 2.061 . S
Co299 O305 2.052 . S
Co299 O307 2.135 . S
O300 Co299 2.061 . S
O300 C303 1.235 . S
C301 O304 1.238 . S
C301 O305 1.241 . S
C302 O295 1.247 . S
C302 O296 1.261 . S
C303 O298 1.259 . S
C303 O300 1.235 . S
O304 Co294 2.021 . S
O304 C301 1.238 . S
O305 Co299 2.052 . S
O305 C301 1.241 . S
O306 Co294 2.137 . S
O306 C297 1.247 . S
O307 Co294 2.244 . S
O307 C297 1.272 . S
O307 Co299 2.135 . S
Co308 O309 2.216 . S
Co308 O310 2.091 . S
Co308 O312 2.004 . S
Co308 O318 2.021 . S
Co308 O320 2.137 . S
Co308 O321 2.244 . S
O309 Co308 2.216 . S
O309 C316 1.247 . S
O310 Co308 2.091 . S
O310 C316 1.261 . S
C311 O320 1.247 . S
C311 O321 1.272 . S
O312 Co308 2.004 . S
O312 C317 1.259 . S
Co313 O314 2.061 . S
Co313 O319 2.052 . S
Co313 O321 2.135 . S
O314 Co313 2.061 . S
O314 C317 1.235 . S
C315 O318 1.238 . S
C315 O319 1.241 . S
C316 O309 1.247 . S
C316 O310 1.261 . S
C317 O312 1.259 . S
C317 O314 1.235 . S
O318 Co308 2.021 . S
O318 C315 1.238 . S
O319 Co313 2.052 . S
O319 C315 1.241 . S
O320 Co308 2.137 . S
O320 C311 1.247 . S
O321 Co308 2.244 . S
O321 C311 1.272 . S
O321 Co313 2.135 . S
Co322 O323 2.216 . S
Co322 O324 2.091 . S
Co322 O326 2.004 . S
Co322 O332 2.021 . S
Co322 O334 2.137 . S
Co322 O335 2.244 . S
O323 Co322 2.216 . S
O323 C330 1.247 . S
O324 Co322 2.091 . S
O324 C330 1.261 . S
C325 O334 1.247 . S
C325 O335 1.272 . S
O326 Co322 2.004 . S
O326 C331 1.259 . S
Co327 O328 2.061 . S
Co327 O333 2.052 . S
Co327 O335 2.135 . S
O328 Co327 2.061 . S
O328 C331 1.235 . S
C329 O332 1.238 . S
C329 O333 1.241 . S
C330 O323 1.247 . S
C330 O324 1.261 . S
C331 O326 1.259 . S
C331 O328 1.235 . S
O332 Co322 2.021 . S
O332 C329 1.238 . S
O333 Co327 2.052 . S
O333 C329 1.241 . S
O334 Co322 2.137 . S
O334 C325 1.247 . S
O335 Co322 2.244 . S
O335 C325 1.272 . S
O335 Co327 2.135 . S
Zn336 O342 1.969 . S
Zn336 O343 1.965 1_565 S
Zn336 O347 2.024 . S
Zn336 O352 1.969 1_565 S
Zn337 O344 1.969 1_654 S
Zn337 O350 1.950 1_554 S
Zn337 O351 1.965 . S
Zn337 O353 2.024 1_655 S
C338 O339 1.229 . S
C338 O347 1.058 . S
O339 C338 1.229 . S
C340 O341 1.229 1_454 S
C340 O353 1.058 . S
O341 C340 1.229 1_656 S
O342 Zn336 1.969 . S
O342 C345 1.267 . S
O343 Zn336 1.965 1_545 S
O343 C354 1.260 1_554 S
O344 Zn337 1.969 1_456 S
O344 C354 1.258 . S
C345 O342 1.267 . S
C345 O346 1.228 . S
O346 C345 1.228 . S
O347 Zn336 2.024 . S
O347 C338 1.058 . S
C348 O349 1.228 . S
C348 O350 1.238 1_554 S
O349 C348 1.228 . S
O350 Zn337 1.950 1_556 S
O350 C348 1.238 1_556 S
O351 Zn337 1.965 . S
O351 C355 1.260 1_655 S
O352 Zn336 1.969 1_545 S
O352 C355 1.258 . S
O353 Zn337 2.024 1_455 S
O353 C340 1.058 . S
C354 O343 1.260 1_556 S
C354 O344 1.258 . S
C355 O351 1.260 1_455 S
C355 O352 1.258 . S
Zn356 O362 1.969 . S
Zn356 O363 1.965 . S
Zn356 O367 2.024 . S
Zn356 O372 1.969 . S
Zn357 O364 1.969 . S
Zn357 O370 1.969 . S
Zn357 O371 1.965 . S
Zn357 O373 2.024 . S
C358 O359 1.229 . S
C358 O367 1.058 . S
O359 C358 1.229 . S
C360 O361 1.229 . S
C360 O373 1.058 . S
O361 C360 1.229 . S
O362 Zn356 1.969 . S
O362 C365 1.267 . S
O363 Zn356 1.965 . S
O363 C374 1.260 . S
O364 Zn357 1.969 . S
O364 C374 1.258 . S
C365 O362 1.267 . S
C365 O366 1.228 . S
O366 C365 1.228 . S
O367 Zn356 2.024 . S
O367 C358 1.058 . S
C368 O369 1.228 . S
C368 O370 1.267 . S
O369 C368 1.228 . S
O370 Zn357 1.969 . S
O370 C368 1.267 . S
O371 Zn357 1.965 . S
O371 C375 1.260 . S
O372 Zn356 1.969 . S
O372 C375 1.258 . S
O373 Zn357 2.024 . S
O373 C360 1.058 . S
C374 O363 1.260 . S
C374 O364 1.258 . S
C375 O371 1.260 . S
C375 O372 1.258 . S
Zn376 O382 1.969 . S
Zn376 O383 1.965 . S
Zn376 O387 2.024 . S
Zn376 O392 1.969 . S
Zn377 O384 1.969 . S
Zn377 O390 1.969 . S
Zn377 O391 1.965 1_565 S
Zn377 O393 2.024 . S
C378 O379 1.229 . S
C378 O387 1.058 . S
O379 C378 1.229 . S
C380 O381 1.229 . S
C380 O393 1.058 . S
O381 C380 1.229 . S
O382 Zn376 1.969 . S
O382 C385 1.267 . S
O383 Zn376 1.965 . S
O383 C394 1.260 . S
O384 Zn377 1.969 . S
O384 C394 1.258 1_565 S
C385 O382 1.267 . S
C385 O386 1.228 . S
O386 C385 1.228 . S
O387 Zn376 2.024 . S
O387 C378 1.058 . S
C388 O389 1.228 . S
C388 O390 1.267 . S
O389 C388 1.228 . S
O390 Zn377 1.969 . S
O390 C388 1.267 . S
O391 Zn377 1.965 1_545 S
O391 C395 1.260 . S
O392 Zn376 1.969 . S
O392 C395 1.258 . S
O393 Zn377 2.024 . S
O393 C380 1.058 . S
C394 O383 1.260 . S
C394 O384 1.258 1_545 S
C395 O391 1.260 . S
C395 O392 1.258 . S
Zn396 O402 1.969 . S
Zn396 O403 1.965 . S
Zn396 O407 2.024 . S
Zn396 O412 1.969 . S
Zn397 O404 1.969 . S
Zn397 O410 1.969 . S
Zn397 O411 1.965 . S
Zn397 O413 2.024 . S
C398 O399 1.229 . S
C398 O407 1.058 . S
O399 C398 1.229 . S
C400 O401 1.229 . S
C400 O413 1.058 . S
O401 C400 1.229 . S
O402 Zn396 1.969 . S
O402 C405 1.267 . S
O403 Zn396 1.965 . S
O403 C414 1.260 . S
O404 Zn397 1.969 . S
O404 C414 1.258 . S
C405 O402 1.267 . S
C405 O406 1.228 . S
O406 C405 1.228 . S
O407 Zn396 2.024 . S
O407 C398 1.058 . S
C408 O409 1.228 . S
C408 O410 1.267 . S
O409 C408 1.228 . S
O410 Zn397 1.969 . S
O410 C408 1.267 . S
O411 Zn397 1.965 . S
O411 C415 1.260 . S
O412 Zn396 1.969 . S
O412 C415 1.258 . S
O413 Zn397 2.024 . S
O413 C400 1.058 . S
C414 O403 1.260 . S
C414 O404 1.258 . S
C415 O411 1.260 . S
C415 O412 1.258 . S
Zn416 O422 1.969 . S
Zn416 O423 1.965 1_455 S
Zn416 O427 2.024 1_565 S
Zn416 O432 1.969 1_565 S
Zn417 O424 1.969 1_455 S
Zn417 O430 1.969 1_455 S
Zn417 O431 1.965 . S
Zn417 O433 2.024 . S
C418 O419 1.229 1_545 S
C418 O427 1.058 . S
O419 C418 1.229 1_565 S
C420 O421 1.229 . S
C420 O433 1.058 1_655 S
O421 C420 1.229 . S
O422 Zn416 1.969 . S
O422 C425 1.267 . S
O423 Zn416 1.965 1_655 S
O423 C434 1.260 . S
O424 Zn417 1.969 1_655 S
O424 C434 1.258 1_545 S
C425 O422 1.267 . S
C425 O426 1.228 . S
O426 C425 1.228 . S
O427 Zn416 2.024 1_545 S
O427 C418 1.058 . S
C428 O429 1.228 . S
C428 O430 1.267 1_455 S
O429 C428 1.228 . S
O430 Zn417 1.969 1_655 S
O430 C428 1.267 1_655 S
O431 Zn417 1.965 . S
O431 C435 1.260 . S
O432 Zn416 1.969 1_545 S
O432 C435 1.258 . S
O433 Zn417 2.024 . S
O433 C420 1.058 1_455 S
C434 O423 1.260 . S
C434 O424 1.258 1_565 S
C435 O431 1.260 . S
C435 O432 1.258 . S
Zn436 O442 1.969 . S
Zn436 O443 1.965 . S
Zn436 O447 2.024 . S
Zn436 O452 1.969 . S
Zn437 O444 1.969 . S
Zn437 O450 1.969 . S
Zn437 O451 1.965 . S
Zn437 O453 2.024 . S
C438 O439 1.229 . S
C438 O447 1.058 . S
O439 C438 1.229 . S
C440 O441 1.229 . S
C440 O453 1.058 . S
O441 C440 1.229 . S
O442 Zn436 1.969 . S
O442 C445 1.267 . S
O443 Zn436 1.965 . S
O443 C454 1.260 . S
O444 Zn437 1.969 . S
O444 C454 1.258 . S
C445 O442 1.267 . S
C445 O446 1.228 . S
O446 C445 1.228 . S
O447 Zn436 2.024 . S
O447 C438 1.058 . S
C448 O449 1.228 . S
C448 O450 1.267 . S
O449 C448 1.228 . S
O450 Zn437 1.969 . S
O450 C448 1.267 . S
O451 Zn437 1.965 . S
O451 C455 1.260 . S
O452 Zn436 1.969 . S
O452 C455 1.258 . S
O453 Zn437 2.024 . S
O453 C440 1.058 . S
C454 O443 1.260 . S
C454 O444 1.258 . S
C455 O451 1.260 . S
C455 O452 1.258 . S
Zn456 O462 2.006 . S
Zn456 O463 1.965 1_545 S
Zn456 O467 2.005 1_556 S
Zn456 O472 1.952 1_556 S
Zn457 O464 1.969 1_545 S
Zn457 O470 1.969 1_545 S
Zn457 O471 1.965 . S
Zn457 O473 2.024 . S
C458 O459 1.229 . S
C458 O467 1.058 . S
O459 C458 1.229 . S
C460 O461 1.229 . S
C460 O473 1.058 1_565 S
O461 C460 1.229 . S
O462 Zn456 2.006 . S
O462 C465 1.267 . S
O463 Zn456 1.965 1_565 S
O463 C474 1.238 1_556 S
O464 Zn457 1.969 1_565 S
O464 C474 1.258 . S
C465 O462 1.267 . S
C465 O466 1.228 . S
O466 C465 1.228 . S
O467 Zn456 2.005 1_554 S
O467 C458 1.058 . S
C468 O469 1.228 . S
C468 O470 1.267 1_545 S
O469 C468 1.228 . S
O470 Zn457 1.969 1_565 S
O470 C468 1.267 1_565 S
O471 Zn457 1.965 . S
O471 C475 1.260 . S
O472 Zn456 1.952 1_554 S
O472 C475 1.258 . S
O473 Zn457 2.024 . S
O473 C460 1.058 1_545 S
C474 O463 1.238 1_554 S
C474 O464 1.258 . S
C475 O471 1.260 . S
C475 O472 1.258 . S
Zn476 O482 1.969 . S
Zn476 O483 1.965 . S
Zn476 O487 2.024 . S
Zn476 O492 1.969 . S
Zn477 O484 1.969 . S
Zn477 O490 1.969 . S
Zn477 O491 1.965 . S
Zn477 O493 2.024 . S
C478 O479 1.229 . S
C478 O487 1.058 . S
O479 C478 1.229 . S
C480 O481 1.229 . S
C480 O493 1.058 . S
O481 C480 1.229 . S
O482 Zn476 1.969 . S
O482 C485 1.267 . S
O483 Zn476 1.965 . S
O483 C494 1.260 . S
O484 Zn477 1.969 . S
O484 C494 1.258 . S
C485 O482 1.267 . S
C485 O486 1.228 . S
O486 C485 1.228 . S
O487 Zn476 2.024 . S
O487 C478 1.058 . S
C488 O489 1.228 . S
C488 O490 1.267 . S
O489 C488 1.228 . S
O490 Zn477 1.969 . S
O490 C488 1.267 . S
O491 Zn477 1.965 . S
O491 C495 1.260 . S
O492 Zn476 1.969 . S
O492 C495 1.258 . S
O493 Zn477 2.024 . S
O493 C480 1.058 . S
C494 O483 1.260 . S
C494 O484 1.258 . S
C495 O491 1.260 . S
C495 O492 1.258 . S
Zn496 O502 1.969 . S
Zn496 O503 1.965 . S
Zn496 O507 2.024 . S
Zn496 O512 1.969 . S
Zn497 O504 1.969 1_556 S
Zn497 O510 1.969 1_556 S
Zn497 O511 1.965 1_556 S
Zn497 O513 2.024 . S
C498 O499 1.229 . S
C498 O507 1.058 . S
O499 C498 1.229 . S
C500 O501 1.229 . S
C500 O513 1.058 . S
O501 C500 1.229 . S
O502 Zn496 1.969 . S
O502 C505 1.267 . S
O503 Zn496 1.965 . S
O503 C514 1.260 . S
O504 Zn497 1.969 1_554 S
O504 C514 1.258 . S
C505 O502 1.267 . S
C505 O506 1.228 . S
O506 C505 1.228 . S
O507 Zn496 2.024 . S
O507 C498 1.058 . S
C508 O509 1.228 . S
C508 O510 1.267 1_556 S
O509 C508 1.228 . S
O510 Zn497 1.969 1_554 S
O510 C508 1.267 1_554 S
O511 Zn497 1.965 1_554 S
O511 C515 1.260 . S
O512 Zn496 1.969 . S
O512 C515 1.258 . S
O513 Zn497 2.024 . S
O513 C500 1.058 . S
C514 O503 1.260 . S
C514 O504 1.258 . S
C515 O511 1.260 . S
C515 O512 1.258 . S
Zn516 O522 1.969 . S
Zn516 O523 1.965 . S
Zn516 O527 2.024 . S
Zn516 O532 1.969 . S
Zn517 O524 1.969 . S
Zn517 O530 1.969 . S
Zn517 O531 1.965 . S
Zn517 O533 2.024 . S
C518 O519 1.229 . S
C518 O527 1.058 . S
O519 C518 1.229 . S
C520 O521 1.229 . S
C520 O533 1.058 . S
O521 C520 1.229 . S
O522 Zn516 1.969 . S
O522 C525 1.267 . S
O523 Zn516 1.965 . S
O523 C534 1.260 . S
O524 Zn517 1.969 . S
O524 C534 1.258 . S
C525 O522 1.267 . S
C525 O526 1.228 . S
O526 C525 1.228 . S
O527 Zn516 2.024 . S
O527 C518 1.058 . S
C528 O529 1.228 . S
C528 O530 1.267 . S
O529 C528 1.228 . S
O530 Zn517 1.969 . S
O530 C528 1.267 . S
O531 Zn517 1.965 . S
O531 C535 1.260 . S
O532 Zn516 1.969 . S
O532 C535 1.258 . S
O533 Zn517 2.024 . S
O533 C520 1.058 . S
C534 O523 1.260 . S
C534 O524 1.258 . S
C535 O531 1.260 . S
C535 O532 1.258 . S
Zn536 O542 1.969 . S
Zn536 O543 1.965 . S
Zn536 O547 2.024 . S
Zn536 O552 1.969 . S
Zn537 O544 1.969 . S
Zn537 O550 1.969 . S
Zn537 O551 1.965 1_655 S
Zn537 O553 2.024 . S
C538 O539 1.229 . S
C538 O547 1.058 . S
O539 C538 1.229 . S
C540 O541 1.229 . S
C540 O553 1.058 . S
O541 C540 1.229 . S
O542 Zn536 1.969 . S
O542 C545 1.267 . S
O543 Zn536 1.965 . S
O543 C554 1.260 . S
O544 Zn537 1.969 . S
O544 C554 1.258 1_655 S
C545 O542 1.267 . S
C545 O546 1.228 . S
O546 C545 1.228 . S
O547 Zn536 2.024 . S
O547 C538 1.058 . S
C548 O549 1.228 . S
C548 O550 1.267 . S
O549 C548 1.228 . S
O550 Zn537 1.969 . S
O550 C548 1.267 . S
O551 Zn537 1.965 1_455 S
O551 C555 1.260 . S
O552 Zn536 1.969 . S
O552 C555 1.258 . S
O553 Zn537 2.024 . S
O553 C540 1.058 . S
C554 O543 1.260 . S
C554 O544 1.258 1_455 S
C555 O551 1.260 . S
C555 O552 1.258 . S
Zn556 O562 1.969 . S
Zn556 O563 1.965 . S
Zn556 O567 2.024 . S
Zn556 O572 1.969 . S
Zn557 O564 1.969 . S
Zn557 O570 1.969 . S
Zn557 O571 1.965 . S
Zn557 O573 2.024 . S
C558 O559 1.229 . S
C558 O567 1.058 . S
O559 C558 1.229 . S
C560 O561 1.229 . S
C560 O573 1.058 . S
O561 C560 1.229 . S
O562 Zn556 1.969 . S
O562 C565 1.267 . S
O563 Zn556 1.965 . S
O563 C574 1.260 . S
O564 Zn557 1.969 . S
O564 C574 1.258 . S
C565 O562 1.267 . S
C565 O566 1.228 . S
O566 C565 1.228 . S
O567 Zn556 2.024 . S
O567 C558 1.058 . S
C568 O569 1.228 . S
C568 O570 1.267 . S
O569 C568 1.228 . S
O570 Zn557 1.969 . S
O570 C568 1.267 . S
O571 Zn557 1.965 . S
O571 C575 1.260 . S
O572 Zn556 1.969 . S
O572 C575 1.258 . S
O573 Zn557 2.024 . S
O573 C560 1.058 . S
C574 O563 1.260 . S
C574 O564 1.258 . S
C575 O571 1.260 . S
C575 O572 1.258 . S
Zn576 O582 1.969 . S
Zn576 O583 1.965 . S
Zn576 O587 2.024 . S
Zn576 O592 1.969 . S
Zn577 O584 1.969 . S
Zn577 O590 1.969 . S
Zn577 O591 1.965 . S
Zn577 O593 2.024 . S
C578 O579 1.229 . S
C578 O587 1.058 . S
O579 C578 1.229 . S
C580 O581 1.229 . S
C580 O593 1.058 . S
O581 C580 1.229 . S
O582 Zn576 1.969 . S
O582 C585 1.267 . S
O583 Zn576 1.965 . S
O583 C594 1.260 . S
O584 Zn577 1.969 . S
O584 C594 1.258 . S
C585 O582 1.267 . S
C585 O586 1.228 . S
O586 C585 1.228 . S
O587 Zn576 2.024 . S
O587 C578 1.058 . S
C588 O589 1.228 . S
C588 O590 1.267 . S
O589 C588 1.228 . S
O590 Zn577 1.969 . S
O590 C588 1.267 . S
O591 Zn577 1.965 . S
O591 C595 1.260 . S
O592 Zn576 1.969 . S
O592 C595 1.258 . S
O593 Zn577 2.024 . S
O593 C580 1.058 . S
C594 O583 1.260 . S
C594 O584 1.258 . S
C595 O591 1.260 . S
C595 O592 1.258 . S
Zn596 O602 1.969 . S
Zn596 O603 1.965 . S
Zn596 O607 2.024 . S
Zn596 O612 1.969 . S
Zn597 O604 1.969 . S
Zn597 O610 1.969 . S
Zn597 O611 1.965 . S
Zn597 O613 2.024 . S
C598 O599 1.229 . S
C598 O607 1.058 . S
O599 C598 1.229 . S
C600 O601 1.229 . S
C600 O613 1.058 . S
O601 C600 1.229 . S
O602 Zn596 1.969 . S
O602 C605 1.267 . S
O603 Zn596 1.965 . S
O603 C614 1.260 . S
O604 Zn597 1.969 . S
O604 C614 1.258 . S
C605 O602 1.267 . S
C605 O606 1.228 . S
O606 C605 1.228 . S
O607 Zn596 2.024 . S
O607 C598 1.058 . S
C608 O609 1.228 . S
C608 O610 1.267 . S
O609 C608 1.228 . S
O610 Zn597 1.969 . S
O610 C608 1.267 . S
O611 Zn597 1.965 . S
O611 C615 1.260 . S
O612 Zn596 1.969 . S
O612 C615 1.258 . S
O613 Zn597 2.024 . S
O613 C600 1.058 . S
C614 O603 1.260 . S
C614 O604 1.258 . S
C615 O611 1.260 . S
C615 O612 1.258 . S
Zn616 O622 1.969 . S
Zn616 O623 1.965 . S
Zn616 O627 2.024 . S
Zn616 O632 1.969 . S
Zn617 O624 1.969 . S
Zn617 O630 1.969 . S
Zn617 O631 1.965 . S
Zn617 O633 2.024 . S
C618 O619 1.229 . S
C618 O627 1.058 . S
O619 C618 1.229 . S
C620 O621 1.229 . S
C620 O633 1.058 . S
O621 C620 1.229 . S
O622 Zn616 1.969 . S
O622 C625 1.267 . S
O623 Zn616 1.965 . S
O623 C634 1.260 . S
O624 Zn617 1.969 . S
O624 C634 1.258 . S
C625 O622 1.267 . S
C625 O626 1.228 . S
O626 C625 1.228 . S
O627 Zn616 2.024 . S
O627 C618 1.058 . S
C628 O629 1.228 . S
C628 O630 1.267 . S
O629 C628 1.228 . S
O630 Zn617 1.969 . S
O630 C628 1.267 . S
O631 Zn617 1.965 . S
O631 C635 1.260 . S
O632 Zn616 1.969 . S
O632 C635 1.258 . S
O633 Zn617 2.024 . S
O633 C620 1.058 . S
C634 O623 1.260 . S
C634 O624 1.258 . S
C635 O631 1.260 . S
C635 O632 1.258 . S
Zn636 O642 1.969 . S
Zn636 O643 1.965 . S
Zn636 O647 2.024 1_655 S
Zn636 O652 1.969 1_655 S
Zn637 O644 1.969 1_554 S
Zn637 O650 1.969 . S
Zn637 O651 1.965 . S
Zn637 O653 2.024 . S
C638 O639 1.229 1_455 S
C638 O647 1.058 . S
O639 C638 1.229 1_655 S
C640 O641 1.229 1_554 S
C640 O653 1.058 . S
O641 C640 1.229 1_556 S
O642 Zn636 1.969 . S
O642 C645 1.267 . S
O643 Zn636 1.965 . S
O643 C654 1.260 1_654 S
O644 Zn637 1.969 1_556 S
O644 C654 1.258 . S
C645 O642 1.267 . S
C645 O646 1.228 . S
O646 C645 1.228 . S
O647 Zn636 2.024 1_455 S
O647 C638 1.058 . S
C648 O649 1.228 . S
C648 O650 1.267 . S
O649 C648 1.228 . S
O650 Zn637 1.969 . S
O650 C648 1.267 . S
O651 Zn637 1.965 . S
O651 C655 1.260 . S
O652 Zn636 1.969 1_455 S
O652 C655 1.258 . S
O653 Zn637 2.024 . S
O653 C640 1.058 . S
C654 O643 1.260 1_456 S
C654 O644 1.258 . S
C655 O651 1.260 . S
C655 O652 1.258 . S
H656 C664 0.929 . S
H657 C666 0.930 . S
H658 C668 0.930 . S
H659 C671 0.929 . S
H660 C674 0.930 . S
H661 C676 0.960 . S
H662 C676 0.960 . S
H663 C676 0.960 . S
C664 H656 0.929 . S
C664 C665 1.378 . S
C664 C666 1.384 . S
C665 C664 1.378 . S
C665 C671 1.388 1_655 S
C666 H657 0.930 . S
C666 C664 1.384 . S
C666 C667 1.372 1_655 S
C667 C666 1.372 1_455 S
C667 C668 1.400 . S
C667 C672 1.490 . S
C668 H658 0.930 . S
C668 C667 1.400 . S
C668 C671 1.386 . S
H669 C685 0.930 . S
H670 C686 0.944 . S
C671 H659 0.929 . S
C671 C665 1.388 1_455 S
C671 C668 1.386 . S
C672 C667 1.490 . S
C672 C674 1.395 . S
C672 C675 1.403 1_455 S
H673 C679 0.930 . S
C674 H660 0.930 . S
C674 C672 1.395 . S
C674 C677 1.403 . S
C675 C672 1.403 1_655 S
C675 C676 1.524 . S
C675 C679 1.400 . S
C676 H661 0.960 . S
C676 H662 0.960 . S
C676 H663 0.960 . S
C676 C675 1.524 . S
C677 C674 1.403 . S
C677 C678 1.392 . S
C677 C681 1.495 . S
C678 C677 1.392 . S
C678 C679 1.385 1_455 S
C678 C680 1.478 . S
C679 H673 0.930 . S
C679 C675 1.400 . S
C679 C678 1.385 1_655 S
C680 C678 1.478 . S
C680 C682 1.381 . S
C680 C686 1.347 1_556 S
C681 C677 1.495 . S
C681 H687 0.959 . S
C681 H688 0.961 . S
C681 H689 0.960 . S
C682 C680 1.381 . S
C682 C683 1.394 . S
C682 H690 0.930 . S
C683 C682 1.394 . S
C683 C684 1.383 1_556 S
C683 H691 0.929 . S
C684 C683 1.383 1_554 S
C684 C685 1.377 . S
C685 H669 0.930 . S
C685 C684 1.377 . S
C685 C686 1.403 . S
C686 H670 0.944 . S
C686 C680 1.347 1_554 S
C686 C685 1.403 . S
H687 C681 0.959 . S
H688 C681 0.961 . S
H689 C681 0.960 . S
H690 C682 0.930 . S
H691 C683 0.929 . S
H692 C700 0.929 . S
H693 C702 0.930 . S
H694 C704 0.930 . S
H695 C707 0.929 . S
H696 C710 0.930 . S
H697 C712 0.960 . S
H698 C712 0.960 . S
H699 C712 0.960 . S
C700 H692 0.929 . S
C700 C701 1.377 . S
C700 C702 1.384 . S
C701 C700 1.377 . S
C701 C707 1.390 . S
C702 H693 0.930 . S
C702 C700 1.384 . S
C702 C703 1.372 . S
C703 C702 1.372 . S
C703 C704 1.400 . S
C703 C708 1.490 . S
C704 H694 0.930 . S
C704 C703 1.400 . S
C704 C707 1.386 . S
H705 C721 0.930 . S
H706 C722 0.931 . S
C707 H695 0.929 . S
C707 C701 1.390 . S
C707 C704 1.386 . S
C708 C703 1.490 . S
C708 C710 1.395 . S
C708 C711 1.403 . S
H709 C715 0.930 . S
C710 H696 0.930 . S
C710 C708 1.395 . S
C710 C713 1.403 . S
C711 C708 1.403 . S
C711 C712 1.524 . S
C711 C715 1.400 . S
C712 H697 0.960 . S
C712 H698 0.960 . S
C712 H699 0.960 . S
C712 C711 1.524 . S
C713 C710 1.403 . S
C713 C714 1.392 . S
C713 C717 1.495 . S
C714 C713 1.392 . S
C714 C715 1.385 . S
C714 C716 1.478 . S
C715 H709 0.930 . S
C715 C711 1.400 . S
C715 C714 1.385 . S
C716 C714 1.478 . S
C716 C718 1.381 . S
C716 C722 1.383 . S
C717 C713 1.495 . S
C717 H723 0.959 . S
C717 H724 0.961 . S
C717 H725 0.960 . S
C718 C716 1.381 . S
C718 C719 1.394 . S
C718 H726 0.930 . S
C719 C718 1.394 . S
C719 C720 1.383 . S
C719 H727 0.929 . S
C720 C719 1.383 . S
C720 C721 1.377 . S
C721 H705 0.930 . S
C721 C720 1.377 . S
C721 C722 1.379 . S
C722 H706 0.931 . S
C722 C716 1.383 . S
C722 C721 1.379 . S
H723 C717 0.959 . S
H724 C717 0.961 . S
H725 C717 0.960 . S
H726 C718 0.930 . S
H727 C719 0.929 . S
H728 C736 0.929 . S
H729 C738 0.930 . S
H730 C740 0.930 . S
H731 C743 0.929 . S
H732 C746 0.930 . S
H733 C748 0.960 . S
H734 C748 0.960 . S
H735 C748 0.960 . S
C736 H728 0.929 . S
C736 C737 1.377 . S
C736 C738 1.384 . S
C737 C736 1.377 . S
C737 C743 1.390 . S
C738 H729 0.930 . S
C738 C736 1.384 . S
C738 C739 1.372 . S
C739 C738 1.372 . S
C739 C740 1.400 . S
C739 C744 1.490 . S
C740 H730 0.930 . S
C740 C739 1.400 . S
C740 C743 1.386 . S
H741 C757 0.930 . S
H742 C758 0.931 . S
C743 H731 0.929 . S
C743 C737 1.390 . S
C743 C740 1.386 . S
C744 C739 1.490 . S
C744 C746 1.395 . S
C744 C747 1.403 . S
H745 C751 0.930 . S
C746 H732 0.930 . S
C746 C744 1.395 . S
C746 C749 1.403 . S
C747 C744 1.403 . S
C747 C748 1.524 . S
C747 C751 1.400 . S
C748 H733 0.960 . S
C748 H734 0.960 . S
C748 H735 0.960 . S
C748 C747 1.524 . S
C749 C746 1.403 . S
C749 C750 1.392 . S
C749 C753 1.495 . S
C750 C749 1.392 . S
C750 C751 1.385 . S
C750 C752 1.478 . S
C751 H745 0.930 . S
C751 C747 1.400 . S
C751 C750 1.385 . S
C752 C750 1.478 . S
C752 C754 1.381 . S
C752 C758 1.383 . S
C753 C749 1.495 . S
C753 H759 0.959 . S
C753 H760 0.961 . S
C753 H761 0.960 . S
C754 C752 1.381 . S
C754 C755 1.394 . S
C754 H762 0.930 . S
C755 C754 1.394 . S
C755 C756 1.383 . S
C755 H763 0.929 . S
C756 C755 1.383 . S
C756 C757 1.377 . S
C757 H741 0.930 . S
C757 C756 1.377 . S
C757 C758 1.379 . S
C758 H742 0.931 . S
C758 C752 1.383 . S
C758 C757 1.379 . S
H759 C753 0.959 . S
H760 C753 0.961 . S
H761 C753 0.960 . S
H762 C754 0.930 . S
H763 C755 0.929 . S
H764 C772 0.929 . S
H765 C774 0.930 . S
H766 C776 0.930 . S
H767 C779 0.929 . S
H768 C782 0.930 . S
H769 C784 0.960 . S
H770 C784 0.960 . S
H771 C784 0.960 . S
C772 H764 0.929 . S
C772 C773 1.377 . S
C772 C774 1.384 . S
C773 C772 1.377 . S
C773 C779 1.390 . S
C774 H765 0.930 . S
C774 C772 1.384 . S
C774 C775 1.372 . S
C775 C774 1.372 . S
C775 C776 1.400 . S
C775 C780 1.490 . S
C776 H766 0.930 . S
C776 C775 1.400 . S
C776 C779 1.386 . S
H777 C793 0.930 . S
H778 C794 0.931 . S
C779 H767 0.929 . S
C779 C773 1.390 . S
C779 C776 1.386 . S
C780 C775 1.490 . S
C780 C782 1.395 . S
C780 C783 1.403 . S
H781 C787 0.930 . S
C782 H768 0.930 . S
C782 C780 1.395 . S
C782 C785 1.403 . S
C783 C780 1.403 . S
C783 C784 1.524 . S
C783 C787 1.400 . S
C784 H769 0.960 . S
C784 H770 0.960 . S
C784 H771 0.960 . S
C784 C783 1.524 . S
C785 C782 1.403 . S
C785 C786 1.392 . S
C785 C789 1.495 . S
C786 C785 1.392 . S
C786 C787 1.385 . S
C786 C788 1.478 . S
C787 H781 0.930 . S
C787 C783 1.400 . S
C787 C786 1.385 . S
C788 C786 1.478 . S
C788 C790 1.381 . S
C788 C794 1.383 . S
C789 C785 1.495 . S
C789 H795 0.959 . S
C789 H796 0.961 . S
C789 H797 0.960 . S
C790 C788 1.381 . S
C790 C791 1.394 . S
C790 H798 0.930 . S
C791 C790 1.394 . S
C791 C792 1.383 . S
C791 H799 0.929 . S
C792 C791 1.383 . S
C792 C793 1.377 . S
C793 H777 0.930 . S
C793 C792 1.377 . S
C793 C794 1.379 . S
C794 H778 0.931 . S
C794 C788 1.383 . S
C794 C793 1.379 . S
H795 C789 0.959 . S
H796 C789 0.961 . S
H797 C789 0.960 . S
H798 C790 0.930 . S
H799 C791 0.929 . S
H800 C808 0.929 . S
H801 C810 0.930 . S
H802 C812 0.930 . S
H803 C815 0.929 . S
H804 C818 0.930 . S
H805 C820 0.960 . S
H806 C820 0.960 1_655 S
H807 C820 0.960 . S
C808 H800 0.929 . S
C808 C809 1.377 1_655 S
C808 C810 1.384 . S
C809 C808 1.377 1_455 S
C809 C815 1.390 . S
C810 H801 0.930 . S
C810 C808 1.384 . S
C810 C811 1.372 1_655 S
C811 C810 1.372 1_455 S
C811 C812 1.400 . S
C811 C816 1.490 . S
C812 H802 0.930 . S
C812 C811 1.400 . S
C812 C815 1.386 . S
H813 C829 0.930 . S
H814 C830 0.931 . S
C815 H803 0.929 . S
C815 C809 1.390 . S
C815 C812 1.386 . S
C816 C811 1.490 . S
C816 C818 1.395 . S
C816 C819 1.403 . S
H817 C823 0.930 . S
C818 H804 0.930 . S
C818 C816 1.395 . S
C818 C821 1.403 . S
C819 C816 1.403 . S
C819 C820 1.524 . S
C819 C823 1.400 . S
C820 H805 0.960 . S
C820 H806 0.960 1_455 S
C820 H807 0.960 . S
C820 C819 1.524 . S
C821 C818 1.403 . S
C821 C822 1.392 . S
C821 C825 1.495 . S
C822 C821 1.392 . S
C822 C823 1.385 . S
C822 C824 1.478 . S
C823 H817 0.930 . S
C823 C819 1.400 . S
C823 C822 1.385 . S
C824 C822 1.478 . S
C824 C826 1.381 . S
C824 C830 1.383 . S
C825 C821 1.495 . S
C825 H831 0.959 . S
C825 H832 0.961 . S
C825 H833 0.960 . S
C826 C824 1.381 . S
C826 C827 1.394 . S
C826 H834 0.930 1_455 S
C827 C826 1.394 . S
C827 C828 1.383 . S
C827 H835 0.929 1_455 S
C828 C827 1.383 . S
C828 C829 1.377 . S
C829 H813 0.930 . S
C829 C828 1.377 . S
C829 C830 1.379 . S
C830 H814 0.931 . S
C830 C824 1.383 . S
C830 C829 1.379 . S
H831 C825 0.959 . S
H832 C825 0.961 . S
H833 C825 0.960 . S
H834 C826 0.930 1_655 S
H835 C827 0.929 1_655 S
H836 C844 0.929 . S
H837 C846 0.930 . S
H838 C848 0.930 . S
H839 C851 0.929 . S
H840 C854 0.930 . S
H841 C856 0.960 . S
H842 C856 0.960 . S
H843 C856 0.960 . S
C844 H836 0.929 . S
C844 C845 1.377 . S
C844 C846 1.384 . S
C845 C844 1.377 . S
C845 C851 1.390 . S
C846 H837 0.930 . S
C846 C844 1.384 . S
C846 C847 1.372 . S
C847 C846 1.372 . S
C847 C848 1.400 . S
C847 C852 1.490 . S
C848 H838 0.930 . S
C848 C847 1.400 . S
C848 C851 1.386 . S
H849 C865 0.930 . S
H850 C866 0.931 . S
C851 H839 0.929 . S
C851 C845 1.390 . S
C851 C848 1.386 . S
C852 C847 1.490 . S
C852 C854 1.395 . S
C852 C855 1.403 . S
H853 C859 0.930 . S
C854 H840 0.930 . S
C854 C852 1.395 . S
C854 C857 1.403 . S
C855 C852 1.403 . S
C855 C856 1.524 . S
C855 C859 1.400 . S
C856 H841 0.960 . S
C856 H842 0.960 . S
C856 H843 0.960 . S
C856 C855 1.524 . S
C857 C854 1.403 . S
C857 C858 1.392 . S
C857 C861 1.495 . S
C858 C857 1.392 . S
C858 C859 1.385 . S
C858 C860 1.478 . S
C859 H853 0.930 . S
C859 C855 1.400 . S
C859 C858 1.385 . S
C860 C858 1.478 . S
C860 C862 1.381 . S
C860 C866 1.383 . S
C861 C857 1.495 . S
C861 H867 0.959 . S
C861 H868 0.961 . S
C861 H869 0.960 . S
C862 C860 1.381 . S
C862 C863 1.394 . S
C862 H870 0.930 . S
C863 C862 1.394 . S
C863 C864 1.383 . S
C863 H871 0.929 . S
C864 C863 1.383 . S
C864 C865 1.377 . S
C865 H849 0.930 . S
C865 C864 1.377 . S
C865 C866 1.379 . S
C866 H850 0.931 . S
C866 C860 1.383 . S
C866 C865 1.379 . S
H867 C861 0.959 . S
H868 C861 0.961 . S
H869 C861 0.960 . S
H870 C862 0.930 . S
H871 C863 0.929 . S
H872 C880 0.929 . S
H873 C882 0.930 . S
H874 C884 0.930 . S
H875 C887 0.929 . S
H876 C890 0.930 . S
H877 C892 0.960 . S
H878 C892 0.960 . S
H879 C892 0.960 . S
C880 H872 0.929 . S
C880 C881 1.377 . S
C880 C882 1.384 . S
C881 C880 1.377 . S
C881 C887 1.390 . S
C882 H873 0.930 . S
C882 C880 1.384 . S
C882 C883 1.372 . S
C883 C882 1.372 . S
C883 C884 1.400 . S
C883 C888 1.490 . S
C884 H874 0.930 . S
C884 C883 1.400 . S
C884 C887 1.386 . S
H885 C901 0.930 . S
H886 C902 0.931 . S
C887 H875 0.929 . S
C887 C881 1.390 . S
C887 C884 1.386 . S
C888 C883 1.490 . S
C888 C890 1.395 . S
C888 C891 1.403 . S
H889 C895 0.930 . S
C890 H876 0.930 . S
C890 C888 1.395 . S
C890 C893 1.403 . S
C891 C888 1.403 . S
C891 C892 1.524 . S
C891 C895 1.400 . S
C892 H877 0.960 . S
C892 H878 0.960 . S
C892 H879 0.960 . S
C892 C891 1.524 . S
C893 C890 1.403 . S
C893 C894 1.392 . S
C893 C897 1.495 . S
C894 C893 1.392 . S
C894 C895 1.385 . S
C894 C896 1.478 . S
C895 H889 0.930 . S
C895 C891 1.400 . S
C895 C894 1.385 . S
C896 C894 1.478 . S
C896 C898 1.381 . S
C896 C902 1.383 . S
C897 C893 1.495 . S
C897 H903 0.959 . S
C897 H904 0.961 . S
C897 H905 0.960 . S
C898 C896 1.381 . S
C898 C899 1.394 . S
C898 H906 0.930 . S
C899 C898 1.394 . S
C899 C900 1.383 . S
C899 H907 0.929 . S
C900 C899 1.383 . S
C900 C901 1.377 . S
C901 H885 0.930 . S
C901 C900 1.377 . S
C901 C902 1.379 . S
C902 H886 0.931 . S
C902 C896 1.383 . S
C902 C901 1.379 . S
H903 C897 0.959 . S
H904 C897 0.961 . S
H905 C897 0.960 . S
H906 C898 0.930 . S
H907 C899 0.929 . S
H908 C916 0.929 . S
H909 C918 0.930 . S
H910 C920 0.930 . S
H911 C923 0.929 . S
H912 C926 0.930 . S
H913 C928 0.960 . S
H914 C928 0.960 . S
H915 C928 0.960 . S
C916 H908 0.929 . S
C916 C917 1.377 . S
C916 C918 1.384 . S
C917 C916 1.377 . S
C917 C923 1.390 . S
C918 H909 0.930 . S
C918 C916 1.384 . S
C918 C919 1.372 . S
C919 C918 1.372 . S
C919 C920 1.400 . S
C919 C924 1.490 . S
C920 H910 0.930 . S
C920 C919 1.400 . S
C920 C923 1.386 . S
H921 C937 0.930 . S
H922 C938 0.931 . S
C923 H911 0.929 . S
C923 C917 1.390 . S
C923 C920 1.386 . S
C924 C919 1.490 . S
C924 C926 1.395 . S
C924 C927 1.403 . S
H925 C931 0.930 . S
C926 H912 0.930 . S
C926 C924 1.395 . S
C926 C929 1.403 . S
C927 C924 1.403 . S
C927 C928 1.524 . S
C927 C931 1.400 . S
C928 H913 0.960 . S
C928 H914 0.960 . S
C928 H915 0.960 . S
C928 C927 1.524 . S
C929 C926 1.403 . S
C929 C930 1.392 . S
C929 C933 1.495 . S
C930 C929 1.392 . S
C930 C931 1.385 . S
C930 C932 1.478 . S
C931 H925 0.930 . S
C931 C927 1.400 . S
C931 C930 1.385 . S
C932 C930 1.478 . S
C932 C934 1.381 . S
C932 C938 1.383 . S
C933 C929 1.495 . S
C933 H939 0.959 . S
C933 H940 0.961 . S
C933 H941 0.960 . S
C934 C932 1.381 . S
C934 C935 1.394 . S
C934 H942 0.930 . S
C935 C934 1.394 . S
C935 C936 1.383 . S
C935 H943 0.929 . S
C936 C935 1.383 . S
C936 C937 1.377 . S
C937 H921 0.930 . S
C937 C936 1.377 . S
C937 C938 1.379 . S
C938 H922 0.931 . S
C938 C932 1.383 . S
C938 C937 1.379 . S
H939 C933 0.959 . S
H940 C933 0.961 . S
H941 C933 0.960 . S
H942 C934 0.930 . S
H943 C935 0.929 . S
H944 C952 0.929 . S
H945 C954 0.930 . S
H946 C956 0.930 . S
H947 C959 0.929 . S
H948 C962 0.930 1_565 S
H949 C964 0.960 . S
H950 C964 0.960 . S
H951 C964 0.960 . S
C952 H944 0.929 . S
C952 C953 1.377 1_565 S
C952 C954 1.384 . S
C953 C952 1.377 1_545 S
C953 C959 1.390 . S
C954 H945 0.930 . S
C954 C952 1.384 . S
C954 C955 1.372 1_565 S
C955 C954 1.372 1_545 S
C955 C956 1.400 . S
C955 C960 1.490 . S
C956 H946 0.930 . S
C956 C955 1.400 . S
C956 C959 1.386 . S
H957 C973 0.930 . S
H958 C974 0.931 . S
C959 H947 0.929 . S
C959 C953 1.390 . S
C959 C956 1.386 . S
C960 C955 1.490 . S
C960 C962 1.395 . S
C960 C963 1.403 . S
H961 C967 0.930 . S
C962 H948 0.930 1_545 S
C962 C960 1.395 . S
C962 C965 1.403 . S
C963 C960 1.403 . S
C963 C964 1.524 . S
C963 C967 1.400 . S
C964 H949 0.960 . S
C964 H950 0.960 . S
C964 H951 0.960 . S
C964 C963 1.524 . S
C965 C962 1.403 . S
C965 C966 1.392 . S
C965 C969 1.495 1_545 S
C966 C965 1.392 . S
C966 C967 1.385 . S
C966 C968 1.478 . S
C967 H961 0.930 . S
C967 C963 1.400 . S
C967 C966 1.385 . S
C968 C966 1.478 . S
C968 C970 1.421 . S
C968 C974 1.383 . S
C969 C965 1.495 1_565 S
C969 H975 0.959 . S
C969 H976 0.961 . S
C969 H977 0.960 . S
C970 C968 1.421 . S
C970 C971 1.398 . S
C970 H978 0.888 1_545 S
C971 C970 1.398 . S
C971 C972 1.383 . S
C971 H979 0.929 1_645 S
C972 C971 1.383 . S
C972 C973 1.377 . S
C973 H957 0.930 . S
C973 C972 1.377 . S
C973 C974 1.379 . S
C974 H958 0.931 . S
C974 C968 1.383 . S
C974 C973 1.379 . S
H975 C969 0.959 . S
H976 C969 0.961 . S
H977 C969 0.960 . S
H978 C970 0.888 1_565 S
H979 C971 0.929 1_465 S
H980 C988 0.929 . S
H981 C990 0.930 . S
H982 C992 0.930 . S
H983 C995 0.929 . S
H984 C998 0.930 . S
H985 C1000 0.960 . S
H986 C1000 0.960 . S
H987 C1000 0.960 . S
C988 H980 0.929 . S
C988 C989 1.377 . S
C988 C990 1.384 . S
C989 C988 1.377 . S
C989 C995 1.390 . S
C990 H981 0.930 . S
C990 C988 1.384 . S
C990 C991 1.372 . S
C991 C990 1.372 . S
C991 C992 1.400 . S
C991 C996 1.490 . S
C992 H982 0.930 . S
C992 C991 1.400 . S
C992 C995 1.386 . S
H993 C1009 0.930 . S
H994 C1010 0.931 . S
C995 H983 0.929 . S
C995 C989 1.390 . S
C995 C992 1.386 . S
C996 C991 1.490 . S
C996 C998 1.395 . S
C996 C999 1.403 . S
H997 C1003 0.930 . S
C998 H984 0.930 . S
C998 C996 1.395 . S
C998 C1001 1.403 . S
C999 C996 1.403 . S
C999 C1000 1.524 . S
C999 C1003 1.400 . S
C1000 H985 0.960 . S
C1000 H986 0.960 . S
C1000 H987 0.960 . S
C1000 C999 1.524 . S
C1001 C998 1.403 . S
C1001 C1002 1.392 . S
C1001 C1005 1.495 . S
C1002 C1001 1.392 . S
C1002 C1003 1.385 . S
C1002 C1004 1.478 . S
C1003 H997 0.930 . S
C1003 C999 1.400 . S
C1003 C1002 1.385 . S
C1004 C1002 1.478 . S
C1004 C1006 1.381 . S
C1004 C1010 1.383 . S
C1005 C1001 1.495 . S
C1005 H1011 0.959 . S
C1005 H1012 0.961 . S
C1005 H1013 0.960 . S
C1006 C1004 1.381 . S
C1006 C1007 1.394 . S
C1006 H1014 0.930 . S
C1007 C1006 1.394 . S
C1007 C1008 1.383 . S
C1007 H1015 0.929 . S
C1008 C1007 1.383 . S
C1008 C1009 1.377 . S
C1009 H993 0.930 . S
C1009 C1008 1.377 . S
C1009 C1010 1.379 . S
C1010 H994 0.931 . S
C1010 C1004 1.383 . S
C1010 C1009 1.379 . S
H1011 C1005 0.959 . S
H1012 C1005 0.961 . S
H1013 C1005 0.960 . S
H1014 C1006 0.930 . S
H1015 C1007 0.929 . S
H1016 C1024 0.929 . S
H1017 C1026 0.930 . S
H1018 C1028 0.930 . S
H1019 C1031 0.929 . S
H1020 C1034 0.930 . S
H1021 C1036 0.960 . S
H1022 C1036 0.960 . S
H1023 C1036 0.960 . S
C1024 H1016 0.929 . S
C1024 C1025 1.377 . S
C1024 C1026 1.384 . S
C1025 C1024 1.377 . S
C1025 C1031 1.390 1_565 S
C1026 H1017 0.930 . S
C1026 C1024 1.384 . S
C1026 C1027 1.372 . S
C1027 C1026 1.372 . S
C1027 C1028 1.400 1_565 S
C1027 C1032 1.490 . S
C1028 H1018 0.930 . S
C1028 C1027 1.400 1_545 S
C1028 C1031 1.386 . S
H1029 C1045 0.930 . S
H1030 C1046 0.931 . S
C1031 H1019 0.929 . S
C1031 C1025 1.390 1_545 S
C1031 C1028 1.386 . S
C1032 C1027 1.490 . S
C1032 C1034 1.395 1_565 S
C1032 C1035 1.403 . S
H1033 C1039 0.930 . S
C1034 H1020 0.930 . S
C1034 C1032 1.395 1_545 S
C1034 C1037 1.403 . S
C1035 C1032 1.403 . S
C1035 C1036 1.524 . S
C1035 C1039 1.400 . S
C1036 H1021 0.960 . S
C1036 H1022 0.960 . S
C1036 H1023 0.960 . S
C1036 C1035 1.524 . S
C1037 C1034 1.403 . S
C1037 C1038 1.410 . S
C1037 C1041 1.495 . S
C1038 C1037 1.410 . S
C1038 C1039 1.357 1_545 S
C1038 C1040 1.491 . S
C1039 H1033 0.930 . S
C1039 C1035 1.400 . S
C1039 C1038 1.357 1_565 S
C1040 C1038 1.491 . S
C1040 C1042 1.381 1_545 S
C1040 C1046 1.383 . S
C1041 C1037 1.495 . S
C1041 H1047 0.959 . S
C1041 H1048 0.961 . S
C1041 H1049 0.960 . S
C1042 C1040 1.381 1_565 S
C1042 C1043 1.394 . S
C1042 H1050 0.930 . S
C1043 C1042 1.394 . S
C1043 C1044 1.383 1_565 S
C1043 H1051 0.929 . S
C1044 C1043 1.383 1_545 S
C1044 C1045 1.377 . S
C1045 H1029 0.930 . S
C1045 C1044 1.377 . S
C1045 C1046 1.379 . S
C1046 H1030 0.931 . S
C1046 C1040 1.383 . S
C1046 C1045 1.379 . S
H1047 C1041 0.959 . S
H1048 C1041 0.961 . S
H1049 C1041 0.960 . S
H1050 C1042 0.930 . S
H1051 C1043 0.929 . S
H1052 C1060 0.929 . S
H1053 C1062 0.930 . S
H1054 C1064 0.930 . S
H1055 C1067 0.929 . S
H1056 C1070 0.930 . S
H1057 C1072 0.960 . S
H1058 C1072 0.960 . S
H1059 C1072 0.960 . S
C1060 H1052 0.929 . S
C1060 C1061 1.377 . S
C1060 C1062 1.384 . S
C1061 C1060 1.377 . S
C1061 C1067 1.390 . S
C1062 H1053 0.930 . S
C1062 C1060 1.384 . S
C1062 C1063 1.372 . S
C1063 C1062 1.372 . S
C1063 C1064 1.400 . S
C1063 C1068 1.490 . S
C1064 H1054 0.930 . S
C1064 C1063 1.400 . S
C1064 C1067 1.386 . S
H1065 C1081 0.930 . S
H1066 C1082 0.931 . S
C1067 H1055 0.929 . S
C1067 C1061 1.390 . S
C1067 C1064 1.386 . S
C1068 C1063 1.490 . S
C1068 C1070 1.395 . S
C1068 C1071 1.403 . S
H1069 C1075 0.930 . S
C1070 H1056 0.930 . S
C1070 C1068 1.395 . S
C1070 C1073 1.403 . S
C1071 C1068 1.403 . S
C1071 C1072 1.524 . S
C1071 C1075 1.400 . S
C1072 H1057 0.960 . S
C1072 H1058 0.960 . S
C1072 H1059 0.960 . S
C1072 C1071 1.524 . S
C1073 C1070 1.403 . S
C1073 C1074 1.392 . S
C1073 C1077 1.495 . S
C1074 C1073 1.392 . S
C1074 C1075 1.385 . S
C1074 C1076 1.478 . S
C1075 H1069 0.930 . S
C1075 C1071 1.400 . S
C1075 C1074 1.385 . S
C1076 C1074 1.478 . S
C1076 C1078 1.381 . S
C1076 C1082 1.383 . S
C1077 C1073 1.495 . S
C1077 H1083 0.959 . S
C1077 H1084 0.961 . S
C1077 H1085 0.960 . S
C1078 C1076 1.381 . S
C1078 C1079 1.394 . S
C1078 H1086 0.930 . S
C1079 C1078 1.394 . S
C1079 C1080 1.383 . S
C1079 H1087 0.929 . S
C1080 C1079 1.383 . S
C1080 C1081 1.377 . S
C1081 H1065 0.930 . S
C1081 C1080 1.377 . S
C1081 C1082 1.379 . S
C1082 H1066 0.931 . S
C1082 C1076 1.383 . S
C1082 C1081 1.379 . S
H1083 C1077 0.959 . S
H1084 C1077 0.961 . S
H1085 C1077 0.960 . S
H1086 C1078 0.930 . S
H1087 C1079 0.929 . S
H1088 C1096 0.929 . S
H1089 C1098 0.941 . S
H1090 C1100 0.930 . S
H1091 C1103 0.929 . S
H1092 C1106 0.930 . S
H1093 C1108 0.960 . S
H1094 C1108 0.960 . S
H1095 C1108 0.952 1_545 S
C1096 H1088 0.929 . S
C1096 C1097 1.377 . S
C1096 C1098 1.384 . S
C1097 C1096 1.377 . S
C1097 C1103 1.390 . S
C1098 H1089 0.941 . S
C1098 C1096 1.384 . S
C1098 C1099 1.372 . S
C1099 C1098 1.372 . S
C1099 C1100 1.400 . S
C1099 C1104 1.490 . S
C1100 H1090 0.930 . S
C1100 C1099 1.400 . S
C1100 C1103 1.386 . S
H1101 C1117 0.930 . S
H1102 C1118 0.931 . S
C1103 H1091 0.929 . S
C1103 C1097 1.390 . S
C1103 C1100 1.386 . S
C1104 C1099 1.490 . S
C1104 C1106 1.395 . S
C1104 C1107 1.403 . S
H1105 C1111 0.930 1_565 S
C1106 H1092 0.930 . S
C1106 C1104 1.395 . S
C1106 C1109 1.403 . S
C1107 C1104 1.403 . S
C1107 C1108 1.524 1_545 S
C1107 C1111 1.400 . S
C1108 H1093 0.960 . S
C1108 H1094 0.960 . S
C1108 H1095 0.952 1_565 S
C1108 C1107 1.524 1_565 S
C1109 C1106 1.403 . S
C1109 C1110 1.392 . S
C1109 C1113 1.495 . S
C1110 C1109 1.392 . S
C1110 C1111 1.385 . S
C1110 C1112 1.478 . S
C1111 H1105 0.930 1_545 S
C1111 C1107 1.400 . S
C1111 C1110 1.385 . S
C1112 C1110 1.478 . S
C1112 C1114 1.381 . S
C1112 C1118 1.383 . S
C1113 C1109 1.495 . S
C1113 H1119 0.959 . S
C1113 H1120 0.961 . S
C1113 H1121 0.960 1_655 S
C1114 C1112 1.381 . S
C1114 C1115 1.395 . S
C1114 H1122 0.930 1_545 S
C1115 C1114 1.395 . S
C1115 C1116 1.385 . S
C1115 H1123 0.927 1_645 S
C1116 C1115 1.385 . S
C1116 C1117 1.377 . S
C1117 H1101 0.930 . S
C1117 C1116 1.377 . S
C1117 C1118 1.379 . S
C1118 H1102 0.931 . S
C1118 C1112 1.383 . S
C1118 C1117 1.379 . S
H1119 C1113 0.959 . S
H1120 C1113 0.961 . S
H1121 C1113 0.960 1_455 S
H1122 C1114 0.930 1_565 S
H1123 C1115 0.927 1_465 S
H1124 C1132 0.929 . S
H1125 C1134 0.930 . S
H1126 C1136 0.930 . S
H1127 C1139 0.929 . S
H1128 C1142 0.930 . S
H1129 C1144 0.960 . S
H1130 C1144 0.960 . S
H1131 C1144 0.960 . S
C1132 H1124 0.929 . S
C1132 C1133 1.377 . S
C1132 C1134 1.384 . S
C1133 C1132 1.377 . S
C1133 C1139 1.390 . S
C1134 H1125 0.930 . S
C1134 C1132 1.384 . S
C1134 C1135 1.372 . S
C1135 C1134 1.372 . S
C1135 C1136 1.400 . S
C1135 C1140 1.490 . S
C1136 H1126 0.930 . S
C1136 C1135 1.400 . S
C1136 C1139 1.386 . S
H1137 C1153 0.930 . S
H1138 C1154 0.931 . S
C1139 H1127 0.929 . S
C1139 C1133 1.390 . S
C1139 C1136 1.386 . S
C1140 C1135 1.490 . S
C1140 C1142 1.395 . S
C1140 C1143 1.403 . S
H1141 C1147 0.930 . S
C1142 H1128 0.930 . S
C1142 C1140 1.395 . S
C1142 C1145 1.403 . S
C1143 C1140 1.403 . S
C1143 C1144 1.524 . S
C1143 C1147 1.400 . S
C1144 H1129 0.960 . S
C1144 H1130 0.960 . S
C1144 H1131 0.960 . S
C1144 C1143 1.524 . S
C1145 C1142 1.403 . S
C1145 C1146 1.392 . S
C1145 C1149 1.495 . S
C1146 C1145 1.392 . S
C1146 C1147 1.385 . S
C1146 C1148 1.478 . S
C1147 H1141 0.930 . S
C1147 C1143 1.400 . S
C1147 C1146 1.385 . S
C1148 C1146 1.478 . S
C1148 C1150 1.381 . S
C1148 C1154 1.383 . S
C1149 C1145 1.495 . S
C1149 H1155 0.959 . S
C1149 H1156 0.961 . S
C1149 H1157 0.960 . S
C1150 C1148 1.381 . S
C1150 C1151 1.394 . S
C1150 H1158 0.930 . S
C1151 C1150 1.394 . S
C1151 C1152 1.383 . S
C1151 H1159 0.929 . S
C1152 C1151 1.383 . S
C1152 C1153 1.377 . S
C1153 H1137 0.930 . S
C1153 C1152 1.377 . S
C1153 C1154 1.379 . S
C1154 H1138 0.931 . S
C1154 C1148 1.383 . S
C1154 C1153 1.379 . S
H1155 C1149 0.959 . S
H1156 C1149 0.961 . S
H1157 C1149 0.960 . S
H1158 C1150 0.930 . S
H1159 C1151 0.929 . S
H1160 C1168 0.929 . S
H1161 C1170 0.930 . S
H1162 C1172 0.930 . S
H1163 C1175 0.929 . S
H1164 C1178 0.930 . S
H1165 C1180 0.960 . S
H1166 C1180 0.960 . S
H1167 C1180 0.960 . S
C1168 H1160 0.929 . S
C1168 C1169 1.377 . S
C1168 C1170 1.384 . S
C1169 C1168 1.377 . S
C1169 C1175 1.390 1_545 S
C1170 H1161 0.930 . S
C1170 C1168 1.384 . S
C1170 C1171 1.372 . S
C1171 C1170 1.372 . S
C1171 C1172 1.400 1_545 S
C1171 C1176 1.490 . S
C1172 H1162 0.930 . S
C1172 C1171 1.400 1_565 S
C1172 C1175 1.386 . S
H1173 C1189 0.930 . S
H1174 C1190 0.931 . S
C1175 H1163 0.929 . S
C1175 C1169 1.390 1_565 S
C1175 C1172 1.386 . S
C1176 C1171 1.490 . S
C1176 C1178 1.395 . S
C1176 C1179 1.403 1_545 S
H1177 C1183 0.964 . S
C1178 H1164 0.930 . S
C1178 C1176 1.395 . S
C1178 C1181 1.403 . S
C1179 C1176 1.403 1_565 S
C1179 C1180 1.524 . S
C1179 C1183 1.411 . S
C1180 H1165 0.960 . S
C1180 H1166 0.960 . S
C1180 H1167 0.960 . S
C1180 C1179 1.524 . S
C1181 C1178 1.403 . S
C1181 C1182 1.392 . S
C1181 C1185 1.495 . S
C1182 C1181 1.392 . S
C1182 C1183 1.343 1_545 S
C1182 C1184 1.478 . S
C1183 H1177 0.964 . S
C1183 C1179 1.411 . S
C1183 C1182 1.343 1_565 S
C1184 C1182 1.478 . S
C1184 C1186 1.381 . S
C1184 C1190 1.383 . S
C1185 C1181 1.495 . S
C1185 H1191 0.959 . S
C1185 H1192 0.961 . S
C1185 H1193 0.960 . S
C1186 C1184 1.381 . S
C1186 C1187 1.394 . S
C1186 H1194 0.930 . S
C1187 C1186 1.394 . S
C1187 C1188 1.383 . S
C1187 H1195 0.929 . S
C1188 C1187 1.383 . S
C1188 C1189 1.377 . S
C1189 H1173 0.930 . S
C1189 C1188 1.377 . S
C1189 C1190 1.379 . S
C1190 H1174 0.931 . S
C1190 C1184 1.383 . S
C1190 C1189 1.379 . S
H1191 C1185 0.959 . S
H1192 C1185 0.961 . S
H1193 C1185 0.960 . S
H1194 C1186 0.930 . S
H1195 C1187 0.929 . S
H1196 C1204 0.929 . S
H1197 C1206 0.930 . S
H1198 C1208 0.930 . S
H1199 C1211 0.929 . S
H1200 C1214 0.930 . S
H1201 C1216 0.960 . S
H1202 C1216 0.960 . S
H1203 C1216 0.960 . S
C1204 H1196 0.929 . S
C1204 C1205 1.377 . S
C1204 C1206 1.384 . S
C1205 C1204 1.377 . S
C1205 C1211 1.390 . S
C1206 H1197 0.930 . S
C1206 C1204 1.384 . S
C1206 C1207 1.372 . S
C1207 C1206 1.372 . S
C1207 C1208 1.400 . S
C1207 C1212 1.490 . S
C1208 H1198 0.930 . S
C1208 C1207 1.400 . S
C1208 C1211 1.386 . S
H1209 C1225 0.930 . S
H1210 C1226 0.931 . S
C1211 H1199 0.929 . S
C1211 C1205 1.390 . S
C1211 C1208 1.386 . S
C1212 C1207 1.490 . S
C1212 C1214 1.395 . S
C1212 C1215 1.403 . S
H1213 C1219 0.930 . S
C1214 H1200 0.930 . S
C1214 C1212 1.395 . S
C1214 C1217 1.403 . S
C1215 C1212 1.403 . S
C1215 C1216 1.524 . S
C1215 C1219 1.400 . S
C1216 H1201 0.960 . S
C1216 H1202 0.960 . S
C1216 H1203 0.960 . S
C1216 C1215 1.524 . S
C1217 C1214 1.403 . S
C1217 C1218 1.392 . S
C1217 C1221 1.495 . S
C1218 C1217 1.392 . S
C1218 C1219 1.385 . S
C1218 C1220 1.478 . S
C1219 H1213 0.930 . S
C1219 C1215 1.400 . S
C1219 C1218 1.385 . S
C1220 C1218 1.478 . S
C1220 C1222 1.381 . S
C1220 C1226 1.383 . S
C1221 C1217 1.495 . S
C1221 H1227 0.959 . S
C1221 H1228 0.961 . S
C1221 H1229 0.960 . S
C1222 C1220 1.381 . S
C1222 C1223 1.394 . S
C1222 H1230 0.930 . S
C1223 C1222 1.394 . S
C1223 C1224 1.383 . S
C1223 H1231 0.929 . S
C1224 C1223 1.383 . S
C1224 C1225 1.377 . S
C1225 H1209 0.930 . S
C1225 C1224 1.377 . S
C1225 C1226 1.379 . S
C1226 H1210 0.931 . S
C1226 C1220 1.383 . S
C1226 C1225 1.379 . S
H1227 C1221 0.959 . S
H1228 C1221 0.961 . S
H1229 C1221 0.960 . S
H1230 C1222 0.930 . S
H1231 C1223 0.929 . S
H1232 C1240 0.929 . S
H1233 C1242 0.930 . S
H1234 C1244 0.930 . S
H1235 C1247 0.930 . S
H1236 C1250 0.930 . S
H1237 C1252 0.960 . S
H1238 C1252 0.960 . S
H1239 C1252 0.960 . S
C1240 H1232 0.929 . S
C1240 C1241 1.377 . S
C1240 C1242 1.384 . S
C1241 C1240 1.377 . S
C1241 C1247 1.390 . S
C1242 H1233 0.930 . S
C1242 C1240 1.384 . S
C1242 C1243 1.372 . S
C1243 C1242 1.372 . S
C1243 C1244 1.400 . S
C1243 C1248 1.490 . S
C1244 H1234 0.930 . S
C1244 C1243 1.400 . S
C1244 C1247 1.386 . S
H1245 C1261 0.930 . S
H1246 C1262 0.931 . S
C1247 H1235 0.930 . S
C1247 C1241 1.390 . S
C1247 C1244 1.386 . S
C1248 C1243 1.490 . S
C1248 C1250 1.395 . S
C1248 C1251 1.403 . S
H1249 C1255 0.930 . S
C1250 H1236 0.930 . S
C1250 C1248 1.395 . S
C1250 C1253 1.403 . S
C1251 C1248 1.403 . S
C1251 C1252 1.524 . S
C1251 C1255 1.400 . S
C1252 H1237 0.960 . S
C1252 H1238 0.960 . S
C1252 H1239 0.960 . S
C1252 C1251 1.524 . S
C1253 C1250 1.403 . S
C1253 C1254 1.392 . S
C1253 C1257 1.495 . S
C1254 C1253 1.392 . S
C1254 C1255 1.385 . S
C1254 C1256 1.478 . S
C1255 H1249 0.930 . S
C1255 C1251 1.400 . S
C1255 C1254 1.385 . S
C1256 C1254 1.478 . S
C1256 C1258 1.381 . S
C1256 C1262 1.383 . S
C1257 C1253 1.495 . S
C1257 H1263 0.959 . S
C1257 H1264 0.961 . S
C1257 H1265 0.960 . S
C1258 C1256 1.381 . S
C1258 C1259 1.394 . S
C1258 H1266 0.930 . S
C1259 C1258 1.394 . S
C1259 C1260 1.383 . S
C1259 H1267 0.929 1_565 S
C1260 C1259 1.383 . S
C1260 C1261 1.377 . S
C1261 H1245 0.930 . S
C1261 C1260 1.377 . S
C1261 C1262 1.379 . S
C1262 H1246 0.931 . S
C1262 C1256 1.383 . S
C1262 C1261 1.379 . S
H1263 C1257 0.959 . S
H1264 C1257 0.961 . S
H1265 C1257 0.960 . S
H1266 C1258 0.930 . S
H1267 C1259 0.929 1_545 S
H1268 C1276 0.929 . S
H1269 C1278 0.930 . S
H1270 C1280 0.930 . S
H1271 C1283 0.929 . S
H1272 C1286 0.930 . S
H1273 C1288 0.960 . S
H1274 C1288 0.960 . S
H1275 C1288 0.960 . S
C1276 H1268 0.929 . S
C1276 C1277 1.377 . S
C1276 C1278 1.384 . S
C1277 C1276 1.377 . S
C1277 C1283 1.390 1_556 S
C1278 H1269 0.930 . S
C1278 C1276 1.384 . S
C1278 C1279 1.368 1_556 S
C1279 C1278 1.368 1_554 S
C1279 C1280 1.403 . S
C1279 C1284 1.491 . S
C1280 H1270 0.930 . S
C1280 C1279 1.403 . S
C1280 C1283 1.386 . S
H1281 C1297 0.930 . S
H1282 C1298 0.931 . S
C1283 H1271 0.929 . S
C1283 C1277 1.390 1_554 S
C1283 C1280 1.386 . S
C1284 C1279 1.491 . S
C1284 C1286 1.395 1_554 S
C1284 C1287 1.403 . S
H1285 C1291 0.930 . S
C1286 H1272 0.930 . S
C1286 C1284 1.395 1_556 S
C1286 C1289 1.403 . S
C1287 C1284 1.403 . S
C1287 C1288 1.524 . S
C1287 C1291 1.400 . S
C1288 H1273 0.960 . S
C1288 H1274 0.960 . S
C1288 H1275 0.960 . S
C1288 C1287 1.524 . S
C1289 C1286 1.403 . S
C1289 C1290 1.392 1_556 S
C1289 C1293 1.495 . S
C1290 C1289 1.392 1_554 S
C1290 C1291 1.385 . S
C1290 C1292 1.478 . S
C1291 H1285 0.930 . S
C1291 C1287 1.400 . S
C1291 C1290 1.385 . S
C1292 C1290 1.478 . S
C1292 C1294 1.381 1_554 S
C1292 C1298 1.383 . S
C1293 C1289 1.495 . S
C1293 H1299 0.959 . S
C1293 H1300 0.961 . S
C1293 H1301 0.960 . S
C1294 C1292 1.381 1_556 S
C1294 C1295 1.384 1_556 S
C1294 H1302 0.930 . S
C1295 C1294 1.384 1_554 S
C1295 C1296 1.403 . S
C1295 H1303 0.922 1_554 S
C1296 C1295 1.403 . S
C1296 C1297 1.377 . S
C1297 H1281 0.930 . S
C1297 C1296 1.377 . S
C1297 C1298 1.379 . S
C1298 H1282 0.931 . S
C1298 C1292 1.383 . S
C1298 C1297 1.379 . S
H1299 C1293 0.959 . S
H1300 C1293 0.961 . S
H1301 C1293 0.960 . S
H1302 C1294 0.930 . S
H1303 C1295 0.922 1_556 S
H1304 C1312 0.929 . S
H1305 C1314 0.930 . S
H1306 C1316 0.930 . S
H1307 C1319 0.929 . S
H1308 C1322 0.930 . S
H1309 C1324 0.960 . S
H1310 C1324 0.960 . S
H1311 C1324 0.960 . S
C1312 H1304 0.929 . S
C1312 C1313 1.377 . S
C1312 C1314 1.384 . S
C1313 C1312 1.377 . S
C1313 C1319 1.390 . S
C1314 H1305 0.930 . S
C1314 C1312 1.384 . S
C1314 C1315 1.372 . S
C1315 C1314 1.372 . S
C1315 C1316 1.400 . S
C1315 C1320 1.490 . S
C1316 H1306 0.930 . S
C1316 C1315 1.400 . S
C1316 C1319 1.386 . S
H1317 C1333 0.930 . S
H1318 C1334 0.931 . S
C1319 H1307 0.929 . S
C1319 C1313 1.390 . S
C1319 C1316 1.386 . S
C1320 C1315 1.490 . S
C1320 C1322 1.395 . S
C1320 C1323 1.403 . S
H1321 C1327 0.930 . S
C1322 H1308 0.930 . S
C1322 C1320 1.395 . S
C1322 C1325 1.403 . S
C1323 C1320 1.403 . S
C1323 C1324 1.524 . S
C1323 C1327 1.400 . S
C1324 H1309 0.960 . S
C1324 H1310 0.960 . S
C1324 H1311 0.960 . S
C1324 C1323 1.524 . S
C1325 C1322 1.403 . S
C1325 C1326 1.392 . S
C1325 C1329 1.495 . S
C1326 C1325 1.392 . S
C1326 C1327 1.385 . S
C1326 C1328 1.478 . S
C1327 H1321 0.930 . S
C1327 C1323 1.400 . S
C1327 C1326 1.385 . S
C1328 C1326 1.478 . S
C1328 C1330 1.381 . S
C1328 C1334 1.383 . S
C1329 C1325 1.495 . S
C1329 H1335 0.959 . S
C1329 H1336 0.961 . S
C1329 H1337 0.960 . S
C1330 C1328 1.381 . S
C1330 C1331 1.394 . S
C1330 H1338 0.930 . S
C1331 C1330 1.394 . S
C1331 C1332 1.383 . S
C1331 H1339 0.929 . S
C1332 C1331 1.383 . S
C1332 C1333 1.377 . S
C1333 H1317 0.930 . S
C1333 C1332 1.377 . S
C1333 C1334 1.379 . S
C1334 H1318 0.931 . S
C1334 C1328 1.383 . S
C1334 C1333 1.379 . S
H1335 C1329 0.959 . S
H1336 C1329 0.961 . S
H1337 C1329 0.960 . S
H1338 C1330 0.930 . S
H1339 C1331 0.929 . S
H1340 C1348 0.929 . S
H1341 C1350 0.930 . S
H1342 C1352 0.930 . S
H1343 C1355 0.929 . S
H1344 C1358 0.930 . S
H1345 C1360 0.960 . S
H1346 C1360 0.960 . S
H1347 C1360 0.960 . S
C1348 H1340 0.929 . S
C1348 C1349 1.377 . S
C1348 C1350 1.384 . S
C1349 C1348 1.377 . S
C1349 C1355 1.390 . S
C1350 H1341 0.930 . S
C1350 C1348 1.384 . S
C1350 C1351 1.372 . S
C1351 C1350 1.372 . S
C1351 C1352 1.400 . S
C1351 C1356 1.490 . S
C1352 H1342 0.930 . S
C1352 C1351 1.400 . S
C1352 C1355 1.386 . S
H1353 C1369 0.930 . S
H1354 C1370 0.931 . S
C1355 H1343 0.929 . S
C1355 C1349 1.390 . S
C1355 C1352 1.386 . S
C1356 C1351 1.490 . S
C1356 C1358 1.395 . S
C1356 C1359 1.403 . S
H1357 C1363 0.930 . S
C1358 H1344 0.930 . S
C1358 C1356 1.395 . S
C1358 C1361 1.403 . S
C1359 C1356 1.403 . S
C1359 C1360 1.524 . S
C1359 C1363 1.400 . S
C1360 H1345 0.960 . S
C1360 H1346 0.960 . S
C1360 H1347 0.960 . S
C1360 C1359 1.524 . S
C1361 C1358 1.403 . S
C1361 C1362 1.392 . S
C1361 C1365 1.495 . S
C1362 C1361 1.392 . S
C1362 C1363 1.385 . S
C1362 C1364 1.478 . S
C1363 H1357 0.930 . S
C1363 C1359 1.400 . S
C1363 C1362 1.385 . S
C1364 C1362 1.478 . S
C1364 C1366 1.381 . S
C1364 C1370 1.383 . S
C1365 C1361 1.495 . S
C1365 H1371 0.959 . S
C1365 H1372 0.961 . S
C1365 H1373 0.960 . S
C1366 C1364 1.381 . S
C1366 C1367 1.394 . S
C1366 H1374 0.930 . S
C1367 C1366 1.394 . S
C1367 C1368 1.383 . S
C1367 H1375 0.929 . S
C1368 C1367 1.383 . S
C1368 C1369 1.377 . S
C1369 H1353 0.930 . S
C1369 C1368 1.377 . S
C1369 C1370 1.379 . S
C1370 H1354 0.931 . S
C1370 C1364 1.383 . S
C1370 C1369 1.379 . S
H1371 C1365 0.959 . S
H1372 C1365 0.961 . S
H1373 C1365 0.960 . S
H1374 C1366 0.930 . S
H1375 C1367 0.929 . S
H1376 C1384 0.929 . S
H1377 C1386 0.930 . S
H1378 C1388 0.930 . S
H1379 C1391 0.929 . S
H1380 C1394 0.930 . S
H1381 C1396 0.960 . S
H1382 C1396 0.960 . S
H1383 C1396 0.960 . S
C1384 H1376 0.929 . S
C1384 C1385 1.377 . S
C1384 C1386 1.384 . S
C1385 C1384 1.377 . S
C1385 C1391 1.390 . S
C1386 H1377 0.930 . S
C1386 C1384 1.384 . S
C1386 C1387 1.372 . S
C1387 C1386 1.372 . S
C1387 C1388 1.400 . S
C1387 C1392 1.490 . S
C1388 H1378 0.930 . S
C1388 C1387 1.400 . S
C1388 C1391 1.386 . S
H1389 C1405 0.930 . S
H1390 C1406 0.931 . S
C1391 H1379 0.929 . S
C1391 C1385 1.390 . S
C1391 C1388 1.386 . S
C1392 C1387 1.490 . S
C1392 C1394 1.395 . S
C1392 C1395 1.403 . S
H1393 C1399 0.930 . S
C1394 H1380 0.930 . S
C1394 C1392 1.395 . S
C1394 C1397 1.403 . S
C1395 C1392 1.403 . S
C1395 C1396 1.524 . S
C1395 C1399 1.400 . S
C1396 H1381 0.960 . S
C1396 H1382 0.960 . S
C1396 H1383 0.960 . S
C1396 C1395 1.524 . S
C1397 C1394 1.403 . S
C1397 C1398 1.392 . S
C1397 C1401 1.495 . S
C1398 C1397 1.392 . S
C1398 C1399 1.385 . S
C1398 C1400 1.478 . S
C1399 H1393 0.930 . S
C1399 C1395 1.400 . S
C1399 C1398 1.385 . S
C1400 C1398 1.478 . S
C1400 C1402 1.381 . S
C1400 C1406 1.383 . S
C1401 C1397 1.495 . S
C1401 H1407 0.959 . S
C1401 H1408 0.961 . S
C1401 H1409 0.960 . S
C1402 C1400 1.381 . S
C1402 C1403 1.394 . S
C1402 H1410 0.930 . S
C1403 C1402 1.394 . S
C1403 C1404 1.383 . S
C1403 H1411 0.929 . S
C1404 C1403 1.383 . S
C1404 C1405 1.377 . S
C1405 H1389 0.930 . S
C1405 C1404 1.377 . S
C1405 C1406 1.379 . S
C1406 H1390 0.931 . S
C1406 C1400 1.383 . S
C1406 C1405 1.379 . S
H1407 C1401 0.959 . S
H1408 C1401 0.961 . S
H1409 C1401 0.960 . S
H1410 C1402 0.930 . S
H1411 C1403 0.929 . S
H1412 C1420 0.929 . S
H1413 C1422 0.930 . S
H1414 C1424 0.930 . S
H1415 C1427 0.929 . S
H1416 C1430 0.930 . S
H1417 C1432 0.960 . S
H1418 C1432 0.960 . S
H1419 C1432 0.960 . S
C1420 H1412 0.929 . S
C1420 C1421 1.377 . S
C1420 C1422 1.384 . S
C1421 C1420 1.377 . S
C1421 C1427 1.390 . S
C1422 H1413 0.930 . S
C1422 C1420 1.384 . S
C1422 C1423 1.372 . S
C1423 C1422 1.372 . S
C1423 C1424 1.400 . S
C1423 C1428 1.490 . S
C1424 H1414 0.930 . S
C1424 C1423 1.400 . S
C1424 C1427 1.386 . S
H1425 C1441 0.930 . S
H1426 C1442 0.931 . S
C1427 H1415 0.929 . S
C1427 C1421 1.390 . S
C1427 C1424 1.386 . S
C1428 C1423 1.490 . S
C1428 C1430 1.395 . S
C1428 C1431 1.403 . S
H1429 C1435 0.930 . S
C1430 H1416 0.930 . S
C1430 C1428 1.395 . S
C1430 C1433 1.403 . S
C1431 C1428 1.403 . S
C1431 C1432 1.524 . S
C1431 C1435 1.400 . S
C1432 H1417 0.960 . S
C1432 H1418 0.960 . S
C1432 H1419 0.960 . S
C1432 C1431 1.524 . S
C1433 C1430 1.403 . S
C1433 C1434 1.392 . S
C1433 C1437 1.495 . S
C1434 C1433 1.392 . S
C1434 C1435 1.385 . S
C1434 C1436 1.478 . S
C1435 H1429 0.930 . S
C1435 C1431 1.400 . S
C1435 C1434 1.385 . S
C1436 C1434 1.478 . S
C1436 C1438 1.381 . S
C1436 C1442 1.383 . S
C1437 C1433 1.495 . S
C1437 H1443 0.959 . S
C1437 H1444 0.961 . S
C1437 H1445 0.960 . S
C1438 C1436 1.381 . S
C1438 C1439 1.394 . S
C1438 H1446 0.930 . S
C1439 C1438 1.394 . S
C1439 C1440 1.383 . S
C1439 H1447 0.929 . S
C1440 C1439 1.383 . S
C1440 C1441 1.377 . S
C1441 H1425 0.930 . S
C1441 C1440 1.377 . S
C1441 C1442 1.379 . S
C1442 H1426 0.931 . S
C1442 C1436 1.383 . S
C1442 C1441 1.379 . S
H1443 C1437 0.959 . S
H1444 C1437 0.961 . S
H1445 C1437 0.960 . S
H1446 C1438 0.930 . S
H1447 C1439 0.929 . S
H1448 C1456 0.929 . S
H1449 C1458 0.930 . S
H1450 C1460 0.930 . S
H1451 C1463 0.929 . S
H1452 C1466 0.930 . S
H1453 C1468 0.960 . S
H1454 C1468 0.960 . S
H1455 C1468 0.960 . S
C1456 H1448 0.929 . S
C1456 C1457 1.377 . S
C1456 C1458 1.384 . S
C1457 C1456 1.377 . S
C1457 C1463 1.390 . S
C1458 H1449 0.930 . S
C1458 C1456 1.384 . S
C1458 C1459 1.372 . S
C1459 C1458 1.372 . S
C1459 C1460 1.400 . S
C1459 C1464 1.490 . S
C1460 H1450 0.930 . S
C1460 C1459 1.400 . S
C1460 C1463 1.386 . S
H1461 C1477 0.930 . S
H1462 C1478 0.931 . S
C1463 H1451 0.929 . S
C1463 C1457 1.390 . S
C1463 C1460 1.386 . S
C1464 C1459 1.490 . S
C1464 C1466 1.395 . S
C1464 C1467 1.403 . S
H1465 C1471 0.930 . S
C1466 H1452 0.930 . S
C1466 C1464 1.395 . S
C1466 C1469 1.403 . S
C1467 C1464 1.403 . S
C1467 C1468 1.524 . S
C1467 C1471 1.400 . S
C1468 H1453 0.960 . S
C1468 H1454 0.960 . S
C1468 H1455 0.960 . S
C1468 C1467 1.524 . S
C1469 C1466 1.403 . S
C1469 C1470 1.392 . S
C1469 C1473 1.495 . S
C1470 C1469 1.392 . S
C1470 C1471 1.385 . S
C1470 C1472 1.478 . S
C1471 H1465 0.930 . S
C1471 C1467 1.400 . S
C1471 C1470 1.385 . S
C1472 C1470 1.478 . S
C1472 C1474 1.381 . S
C1472 C1478 1.383 . S
C1473 C1469 1.495 . S
C1473 H1479 0.959 . S
C1473 H1480 0.961 . S
C1473 H1481 0.960 . S
C1474 C1472 1.381 . S
C1474 C1475 1.394 . S
C1474 H1482 0.930 . S
C1475 C1474 1.394 . S
C1475 C1476 1.383 . S
C1475 H1483 0.929 . S
C1476 C1475 1.383 . S
C1476 C1477 1.377 . S
C1477 H1461 0.930 . S
C1477 C1476 1.377 . S
C1477 C1478 1.379 . S
C1478 H1462 0.931 . S
C1478 C1472 1.383 . S
C1478 C1477 1.379 . S
H1479 C1473 0.959 . S
H1480 C1473 0.961 . S
H1481 C1473 0.960 . S
H1482 C1474 0.930 . S
H1483 C1475 0.929 . S
H1484 C1492 0.929 . S
H1485 C1494 0.930 . S
H1486 C1496 0.930 . S
H1487 C1499 0.929 . S
H1488 C1502 0.930 . S
H1489 C1504 0.960 . S
H1490 C1504 0.960 . S
H1491 C1504 0.960 . S
C1492 H1484 0.929 . S
C1492 C1493 1.377 . S
C1492 C1494 1.384 . S
C1493 C1492 1.377 . S
C1493 C1499 1.390 . S
C1494 H1485 0.930 . S
C1494 C1492 1.384 . S
C1494 C1495 1.372 . S
C1495 C1494 1.372 . S
C1495 C1496 1.400 . S
C1495 C1500 1.490 . S
C1496 H1486 0.930 . S
C1496 C1495 1.400 . S
C1496 C1499 1.386 . S
H1497 C1513 0.930 . S
H1498 C1514 0.931 . S
C1499 H1487 0.929 . S
C1499 C1493 1.390 . S
C1499 C1496 1.386 . S
C1500 C1495 1.490 . S
C1500 C1502 1.395 . S
C1500 C1503 1.403 . S
H1501 C1507 0.930 . S
C1502 H1488 0.930 . S
C1502 C1500 1.395 . S
C1502 C1505 1.403 . S
C1503 C1500 1.403 . S
C1503 C1504 1.524 . S
C1503 C1507 1.400 . S
C1504 H1489 0.960 . S
C1504 H1490 0.960 . S
C1504 H1491 0.960 . S
C1504 C1503 1.524 . S
C1505 C1502 1.403 . S
C1505 C1506 1.392 . S
C1505 C1509 1.495 . S
C1506 C1505 1.392 . S
C1506 C1507 1.385 . S
C1506 C1508 1.478 . S
C1507 H1501 0.930 . S
C1507 C1503 1.400 . S
C1507 C1506 1.385 . S
C1508 C1506 1.478 . S
C1508 C1510 1.381 . S
C1508 C1514 1.383 . S
C1509 C1505 1.495 . S
C1509 H1515 0.959 . S
C1509 H1516 0.961 . S
C1509 H1517 0.960 . S
C1510 C1508 1.381 . S
C1510 C1511 1.394 . S
C1510 H1518 0.930 . S
C1511 C1510 1.394 . S
C1511 C1512 1.383 . S
C1511 H1519 0.929 . S
C1512 C1511 1.383 . S
C1512 C1513 1.377 . S
C1513 H1497 0.930 . S
C1513 C1512 1.377 . S
C1513 C1514 1.379 . S
C1514 H1498 0.931 . S
C1514 C1508 1.383 . S
C1514 C1513 1.379 . S
H1515 C1509 0.959 . S
H1516 C1509 0.961 . S
H1517 C1509 0.960 . S
H1518 C1510 0.930 . S
H1519 C1511 0.929 . S
H1520 C1528 0.929 . S
H1521 C1530 0.930 . S
H1522 C1532 0.930 . S
H1523 C1535 0.929 . S
H1524 C1538 0.930 . S
H1525 C1540 0.960 . S
H1526 C1540 0.960 . S
H1527 C1540 0.960 . S
C1528 H1520 0.929 . S
C1528 C1529 1.377 . S
C1528 C1530 1.384 . S
C1529 C1528 1.377 . S
C1529 C1535 1.390 . S
C1530 H1521 0.930 . S
C1530 C1528 1.384 . S
C1530 C1531 1.372 . S
C1531 C1530 1.372 . S
C1531 C1532 1.400 . S
C1531 C1536 1.490 . S
C1532 H1522 0.930 . S
C1532 C1531 1.400 . S
C1532 C1535 1.386 . S
H1533 C1549 0.943 . S
H1534 C1550 0.902 1_655 S
C1535 H1523 0.929 . S
C1535 C1529 1.390 . S
C1535 C1532 1.386 . S
C1536 C1531 1.490 . S
C1536 C1538 1.395 . S
C1536 C1539 1.403 . S
H1537 C1543 0.930 . S
C1538 H1524 0.930 . S
C1538 C1536 1.395 . S
C1538 C1541 1.403 . S
C1539 C1536 1.403 . S
C1539 C1540 1.524 . S
C1539 C1543 1.400 . S
C1540 H1525 0.960 . S
C1540 H1526 0.960 . S
C1540 H1527 0.960 . S
C1540 C1539 1.524 . S
C1541 C1538 1.403 . S
C1541 C1542 1.392 . S
C1541 C1545 1.495 . S
C1542 C1541 1.392 . S
C1542 C1543 1.385 . S
C1542 C1544 1.478 . S
C1543 H1537 0.930 . S
C1543 C1539 1.400 . S
C1543 C1542 1.385 . S
C1544 C1542 1.478 . S
C1544 C1546 1.381 . S
C1544 C1550 1.420 . S
C1545 C1541 1.495 . S
C1545 H1551 0.961 . S
C1545 H1552 0.961 1_455 S
C1545 H1553 0.960 . S
C1546 C1544 1.381 . S
C1546 C1547 1.394 . S
C1546 H1554 0.930 . S
C1547 C1546 1.394 . S
C1547 C1548 1.383 . S
C1547 H1555 0.929 . S
C1548 C1547 1.383 . S
C1548 C1549 1.366 1_455 S
C1549 H1533 0.943 . S
C1549 C1548 1.366 1_655 S
C1549 C1550 1.371 1_655 S
C1550 H1534 0.902 1_455 S
C1550 C1544 1.420 . S
C1550 C1549 1.371 1_455 S
H1551 C1545 0.961 . S
H1552 C1545 0.961 1_655 S
H1553 C1545 0.960 . S
H1554 C1546 0.930 . S
H1555 C1547 0.929 . S
H1556 C1564 0.929 . S
H1557 C1566 0.930 . S
H1558 C1568 0.930 . S
H1559 C1571 0.929 . S
H1560 C1574 0.930 . S
H1561 C1576 0.960 . S
H1562 C1576 0.960 . S
H1563 C1576 0.960 . S
C1564 H1556 0.929 . S
C1564 C1565 1.377 . S
C1564 C1566 1.384 . S
C1565 C1564 1.377 . S
C1565 C1571 1.390 . S
C1566 H1557 0.930 . S
C1566 C1564 1.384 . S
C1566 C1567 1.372 . S
C1567 C1566 1.372 . S
C1567 C1568 1.400 . S
C1567 C1572 1.490 . S
C1568 H1558 0.930 . S
C1568 C1567 1.400 . S
C1568 C1571 1.386 . S
H1569 C1585 0.930 . S
H1570 C1586 0.931 . S
C1571 H1559 0.929 . S
C1571 C1565 1.390 . S
C1571 C1568 1.386 . S
C1572 C1567 1.490 . S
C1572 C1574 1.395 . S
C1572 C1575 1.403 . S
H1573 C1579 0.930 . S
C1574 H1560 0.930 . S
C1574 C1572 1.395 . S
C1574 C1577 1.403 . S
C1575 C1572 1.403 . S
C1575 C1576 1.524 . S
C1575 C1579 1.400 . S
C1576 H1561 0.960 . S
C1576 H1562 0.960 . S
C1576 H1563 0.960 . S
C1576 C1575 1.524 . S
C1577 C1574 1.403 . S
C1577 C1578 1.392 . S
C1577 C1581 1.495 . S
C1578 C1577 1.392 . S
C1578 C1579 1.385 . S
C1578 C1580 1.478 . S
C1579 H1573 0.930 . S
C1579 C1575 1.400 . S
C1579 C1578 1.385 . S
C1580 C1578 1.478 . S
C1580 C1582 1.381 . S
C1580 C1586 1.383 . S
C1581 C1577 1.495 . S
C1581 H1587 0.959 . S
C1581 H1588 0.961 . S
C1581 H1589 0.960 . S
C1582 C1580 1.381 . S
C1582 C1583 1.394 . S
C1582 H1590 0.930 . S
C1583 C1582 1.394 . S
C1583 C1584 1.383 . S
C1583 H1591 0.929 . S
C1584 C1583 1.383 . S
C1584 C1585 1.377 . S
C1585 H1569 0.930 . S
C1585 C1584 1.377 . S
C1585 C1586 1.379 . S
C1586 H1570 0.931 . S
C1586 C1580 1.383 . S
C1586 C1585 1.379 . S
H1587 C1581 0.959 . S
H1588 C1581 0.961 . S
H1589 C1581 0.960 . S
H1590 C1582 0.930 . S
H1591 C1583 0.929 . S
H1592 C1600 0.929 . S
H1593 C1602 0.930 . S
H1594 C1604 0.930 . S
H1595 C1607 0.929 . S
H1596 C1610 0.930 . S
H1597 C1612 0.960 . S
H1598 C1612 0.960 . S
H1599 C1612 0.960 . S
C1600 H1592 0.929 . S
C1600 C1601 1.377 . S
C1600 C1602 1.384 . S
C1601 C1600 1.377 . S
C1601 C1607 1.390 . S
C1602 H1593 0.930 . S
C1602 C1600 1.384 . S
C1602 C1603 1.372 . S
C1603 C1602 1.372 . S
C1603 C1604 1.400 . S
C1603 C1608 1.490 . S
C1604 H1594 0.930 . S
C1604 C1603 1.400 . S
C1604 C1607 1.386 . S
H1605 C1621 0.930 . S
H1606 C1622 0.931 . S
C1607 H1595 0.929 . S
C1607 C1601 1.390 . S
C1607 C1604 1.386 . S
C1608 C1603 1.490 . S
C1608 C1610 1.395 . S
C1608 C1611 1.403 . S
H1609 C1615 0.930 . S
C1610 H1596 0.930 . S
C1610 C1608 1.395 . S
C1610 C1613 1.403 . S
C1611 C1608 1.403 . S
C1611 C1612 1.524 . S
C1611 C1615 1.400 . S
C1612 H1597 0.960 . S
C1612 H1598 0.960 . S
C1612 H1599 0.960 . S
C1612 C1611 1.524 . S
C1613 C1610 1.403 . S
C1613 C1614 1.392 . S
C1613 C1617 1.495 . S
C1614 C1613 1.392 . S
C1614 C1615 1.385 . S
C1614 C1616 1.478 . S
C1615 H1609 0.930 . S
C1615 C1611 1.400 . S
C1615 C1614 1.385 . S
C1616 C1614 1.478 . S
C1616 C1618 1.381 . S
C1616 C1622 1.383 . S
C1617 C1613 1.495 . S
C1617 H1623 0.959 . S
C1617 H1624 0.961 . S
C1617 H1625 0.960 . S
C1618 C1616 1.381 . S
C1618 C1619 1.394 . S
C1618 H1626 0.930 . S
C1619 C1618 1.394 . S
C1619 C1620 1.383 . S
C1619 H1627 0.929 . S
C1620 C1619 1.383 . S
C1620 C1621 1.377 . S
C1621 H1605 0.930 . S
C1621 C1620 1.377 . S
C1621 C1622 1.379 . S
C1622 H1606 0.931 . S
C1622 C1616 1.383 . S
C1622 C1621 1.379 . S
H1623 C1617 0.959 . S
H1624 C1617 0.961 . S
H1625 C1617 0.960 . S
H1626 C1618 0.930 . S
H1627 C1619 0.929 . S
H1628 C1636 0.929 . S
H1629 C1638 0.930 . S
H1630 C1640 0.930 . S
H1631 C1643 0.929 . S
H1632 C1646 0.930 . S
H1633 C1648 0.960 . S
H1634 C1648 0.960 . S
H1635 C1648 0.960 . S
C1636 H1628 0.929 . S
C1636 C1637 1.377 . S
C1636 C1638 1.384 . S
C1637 C1636 1.377 . S
C1637 C1643 1.390 . S
C1638 H1629 0.930 . S
C1638 C1636 1.384 . S
C1638 C1639 1.372 . S
C1639 C1638 1.372 . S
C1639 C1640 1.400 . S
C1639 C1644 1.490 . S
C1640 H1630 0.930 . S
C1640 C1639 1.400 . S
C1640 C1643 1.386 . S
H1641 C1657 0.930 . S
H1642 C1658 0.931 . S
C1643 H1631 0.929 . S
C1643 C1637 1.390 . S
C1643 C1640 1.386 . S
C1644 C1639 1.490 . S
C1644 C1646 1.395 . S
C1644 C1647 1.403 . S
H1645 C1651 0.930 . S
C1646 H1632 0.930 . S
C1646 C1644 1.395 . S
C1646 C1649 1.403 . S
C1647 C1644 1.403 . S
C1647 C1648 1.524 . S
C1647 C1651 1.400 . S
C1648 H1633 0.960 . S
C1648 H1634 0.960 . S
C1648 H1635 0.960 . S
C1648 C1647 1.524 . S
C1649 C1646 1.403 . S
C1649 C1650 1.392 . S
C1649 C1653 1.495 . S
C1650 C1649 1.392 . S
C1650 C1651 1.385 . S
C1650 C1652 1.478 . S
C1651 H1645 0.930 . S
C1651 C1647 1.400 . S
C1651 C1650 1.385 . S
C1652 C1650 1.478 . S
C1652 C1654 1.381 . S
C1652 C1658 1.383 . S
C1653 C1649 1.495 . S
C1653 H1659 0.959 . S
C1653 H1660 0.961 . S
C1653 H1661 0.960 . S
C1654 C1652 1.381 . S
C1654 C1655 1.394 . S
C1654 H1662 0.930 . S
C1655 C1654 1.394 . S
C1655 C1656 1.383 . S
C1655 H1663 0.929 . S
C1656 C1655 1.383 . S
C1656 C1657 1.377 . S
C1657 H1641 0.930 . S
C1657 C1656 1.377 . S
C1657 C1658 1.379 . S
C1658 H1642 0.931 . S
C1658 C1652 1.383 . S
C1658 C1657 1.379 . S
H1659 C1653 0.959 . S
H1660 C1653 0.961 . S
H1661 C1653 0.960 . S
H1662 C1654 0.930 . S
H1663 C1655 0.929 . S
H1664 C1672 0.929 . S
H1665 C1674 0.930 . S
H1666 C1676 0.930 . S
H1667 C1679 0.963 . S
H1668 C1682 0.930 . S
H1669 C1684 0.960 . S
H1670 C1684 0.960 . S
H1671 C1684 0.960 . S
C1672 H1664 0.929 . S
C1672 C1673 1.377 . S
C1672 C1674 1.384 . S
C1673 C1672 1.377 . S
C1673 C1679 1.359 1_455 S
C1674 H1665 0.930 . S
C1674 C1672 1.384 . S
C1674 C1675 1.372 . S
C1675 C1674 1.372 . S
C1675 C1676 1.400 1_455 S
C1675 C1680 1.490 . S
C1676 H1666 0.930 . S
C1676 C1675 1.400 1_655 S
C1676 C1679 1.384 . S
H1677 C1693 0.930 . S
H1678 C1694 0.931 . S
C1679 H1667 0.963 . S
C1679 C1673 1.359 1_655 S
C1679 C1676 1.384 . S
C1680 C1675 1.490 . S
C1680 C1682 1.395 . S
C1680 C1683 1.403 1_455 S
H1681 C1687 0.930 . S
C1682 H1668 0.930 . S
C1682 C1680 1.395 . S
C1682 C1685 1.403 . S
C1683 C1680 1.403 1_655 S
C1683 C1684 1.524 . S
C1683 C1687 1.400 . S
C1684 H1669 0.960 . S
C1684 H1670 0.960 . S
C1684 H1671 0.960 . S
C1684 C1683 1.524 . S
C1685 C1682 1.403 . S
C1685 C1686 1.392 . S
C1685 C1689 1.495 . S
C1686 C1685 1.392 . S
C1686 C1687 1.385 1_455 S
C1686 C1688 1.478 . S
C1687 H1681 0.930 . S
C1687 C1683 1.400 . S
C1687 C1686 1.385 1_655 S
C1688 C1686 1.478 . S
C1688 C1690 1.381 . S
C1688 C1694 1.383 1_455 S
C1689 C1685 1.495 . S
C1689 H1695 0.959 . S
C1689 H1696 0.961 . S
C1689 H1697 0.960 . S
C1690 C1688 1.381 . S
C1690 C1691 1.394 . S
C1690 H1698 0.930 . S
C1691 C1690 1.394 . S
C1691 C1692 1.383 . S
C1691 H1699 0.929 . S
C1692 C1691 1.383 . S
C1692 C1693 1.377 1_455 S
C1693 H1677 0.930 . S
C1693 C1692 1.377 1_655 S
C1693 C1694 1.379 . S
C1694 H1678 0.931 . S
C1694 C1688 1.383 1_655 S
C1694 C1693 1.379 . S
H1695 C1689 0.959 . S
H1696 C1689 0.961 . S
H1697 C1689 0.960 . S
H1698 C1690 0.930 . S
H1699 C1691 0.929 . S
H1700 C1708 0.929 . S
H1701 C1710 0.930 . S
H1702 C1712 0.930 . S
H1703 C1715 0.929 . S
H1704 C1718 0.930 . S
H1705 C1720 0.960 . S
H1706 C1720 0.960 . S
H1707 C1720 0.960 . S
C1708 H1700 0.929 . S
C1708 C1709 1.377 . S
C1708 C1710 1.384 . S
C1709 C1708 1.377 . S
C1709 C1715 1.390 . S
C1710 H1701 0.930 . S
C1710 C1708 1.384 . S
C1710 C1711 1.372 . S
C1711 C1710 1.372 . S
C1711 C1712 1.400 . S
C1711 C1716 1.490 . S
C1712 H1702 0.930 . S
C1712 C1711 1.400 . S
C1712 C1715 1.386 . S
H1713 C1729 0.930 . S
H1714 C1730 0.931 . S
C1715 H1703 0.929 . S
C1715 C1709 1.390 . S
C1715 C1712 1.386 . S
C1716 C1711 1.490 . S
C1716 C1718 1.395 . S
C1716 C1719 1.403 . S
H1717 C1723 0.930 . S
C1718 H1704 0.930 . S
C1718 C1716 1.395 . S
C1718 C1721 1.403 . S
C1719 C1716 1.403 . S
C1719 C1720 1.524 . S
C1719 C1723 1.400 . S
C1720 H1705 0.960 . S
C1720 H1706 0.960 . S
C1720 H1707 0.960 . S
C1720 C1719 1.524 . S
C1721 C1718 1.403 . S
C1721 C1722 1.392 . S
C1721 C1725 1.495 . S
C1722 C1721 1.392 . S
C1722 C1723 1.385 . S
C1722 C1724 1.478 . S
C1723 H1717 0.930 . S
C1723 C1719 1.400 . S
C1723 C1722 1.385 . S
C1724 C1722 1.478 . S
C1724 C1726 1.381 . S
C1724 C1730 1.383 . S
C1725 C1721 1.495 . S
C1725 H1731 0.959 . S
C1725 H1732 0.961 . S
C1725 H1733 0.960 . S
C1726 C1724 1.381 . S
C1726 C1727 1.394 . S
C1726 H1734 0.930 . S
C1727 C1726 1.394 . S
C1727 C1728 1.383 . S
C1727 H1735 0.929 . S
C1728 C1727 1.383 . S
C1728 C1729 1.377 . S
C1729 H1713 0.930 . S
C1729 C1728 1.377 . S
C1729 C1730 1.379 . S
C1730 H1714 0.931 . S
C1730 C1724 1.383 . S
C1730 C1729 1.379 . S
H1731 C1725 0.959 . S
H1732 C1725 0.961 . S
H1733 C1725 0.960 . S
H1734 C1726 0.930 . S
H1735 C1727 0.929 . S
H1736 C1744 0.929 . S
H1737 C1746 0.930 . S
H1738 C1748 0.930 . S
H1739 C1751 0.929 . S
H1740 C1754 0.930 . S
H1741 C1756 0.960 . S
H1742 C1756 0.960 . S
H1743 C1756 0.960 . S
C1744 H1736 0.929 . S
C1744 C1745 1.377 . S
C1744 C1746 1.384 . S
C1745 C1744 1.377 . S
C1745 C1751 1.390 . S
C1746 H1737 0.930 . S
C1746 C1744 1.384 . S
C1746 C1747 1.372 . S
C1747 C1746 1.372 . S
C1747 C1748 1.400 . S
C1747 C1752 1.490 . S
C1748 H1738 0.930 . S
C1748 C1747 1.400 . S
C1748 C1751 1.386 . S
H1749 C1765 0.944 . S
H1750 C1766 0.931 . S
C1751 H1739 0.929 . S
C1751 C1745 1.390 . S
C1751 C1748 1.386 . S
C1752 C1747 1.490 . S
C1752 C1754 1.395 . S
C1752 C1755 1.403 . S
H1753 C1759 0.930 . S
C1754 H1740 0.930 . S
C1754 C1752 1.395 . S
C1754 C1757 1.403 . S
C1755 C1752 1.403 . S
C1755 C1756 1.524 . S
C1755 C1759 1.400 . S
C1756 H1741 0.960 . S
C1756 H1742 0.960 . S
C1756 H1743 0.960 . S
C1756 C1755 1.524 . S
C1757 C1754 1.403 . S
C1757 C1758 1.392 . S
C1757 C1761 1.495 . S
C1758 C1757 1.392 . S
C1758 C1759 1.385 . S
C1758 C1760 1.478 . S
C1759 H1753 0.930 . S
C1759 C1755 1.400 . S
C1759 C1758 1.385 . S
C1760 C1758 1.478 . S
C1760 C1762 1.381 . S
C1760 C1766 1.383 . S
C1761 C1757 1.495 . S
C1761 H1767 0.959 . S
C1761 H1768 0.961 . S
C1761 H1769 0.960 . S
C1762 C1760 1.381 . S
C1762 C1763 1.394 . S
C1762 H1770 0.930 . S
C1763 C1762 1.394 . S
C1763 C1764 1.383 . S
C1763 H1771 0.929 . S
C1764 C1763 1.383 . S
C1764 C1765 1.377 . S
C1765 H1749 0.944 . S
C1765 C1764 1.377 . S
C1765 C1766 1.379 . S
C1766 H1750 0.931 . S
C1766 C1760 1.383 . S
C1766 C1765 1.379 . S
H1767 C1761 0.959 . S
H1768 C1761 0.961 . S
H1769 C1761 0.960 . S
H1770 C1762 0.930 . S
H1771 C1763 0.929 . S
H1772 C1780 0.929 . S
H1773 C1782 0.930 . S
H1774 C1784 0.930 . S
H1775 C1787 0.929 . S
H1776 C1790 0.930 . S
H1777 C1792 0.960 . S
H1778 C1792 0.960 . S
H1779 C1792 0.960 . S
C1780 H1772 0.929 . S
C1780 C1781 1.377 . S
C1780 C1782 1.384 . S
C1781 C1780 1.377 . S
C1781 C1787 1.390 . S
C1782 H1773 0.930 . S
C1782 C1780 1.384 . S
C1782 C1783 1.372 . S
C1783 C1782 1.372 . S
C1783 C1784 1.400 . S
C1783 C1788 1.490 . S
C1784 H1774 0.930 . S
C1784 C1783 1.400 . S
C1784 C1787 1.386 . S
H1785 C1801 0.930 . S
H1786 C1802 0.931 . S
C1787 H1775 0.929 . S
C1787 C1781 1.390 . S
C1787 C1784 1.386 . S
C1788 C1783 1.490 . S
C1788 C1790 1.395 . S
C1788 C1791 1.403 . S
H1789 C1795 0.930 . S
C1790 H1776 0.930 . S
C1790 C1788 1.395 . S
C1790 C1793 1.403 . S
C1791 C1788 1.403 . S
C1791 C1792 1.524 . S
C1791 C1795 1.400 . S
C1792 H1777 0.960 . S
C1792 H1778 0.960 . S
C1792 H1779 0.960 . S
C1792 C1791 1.524 . S
C1793 C1790 1.403 . S
C1793 C1794 1.392 . S
C1793 C1797 1.495 . S
C1794 C1793 1.392 . S
C1794 C1795 1.385 . S
C1794 C1796 1.478 . S
C1795 H1789 0.930 . S
C1795 C1791 1.400 . S
C1795 C1794 1.385 . S
C1796 C1794 1.478 . S
C1796 C1798 1.381 . S
C1796 C1802 1.383 . S
C1797 C1793 1.495 . S
C1797 H1803 0.959 . S
C1797 H1804 0.961 . S
C1797 H1805 0.960 . S
C1798 C1796 1.381 . S
C1798 C1799 1.394 . S
C1798 H1806 0.930 . S
C1799 C1798 1.394 . S
C1799 C1800 1.383 . S
C1799 H1807 0.929 . S
C1800 C1799 1.383 . S
C1800 C1801 1.377 . S
C1801 H1785 0.930 . S
C1801 C1800 1.377 . S
C1801 C1802 1.379 . S
C1802 H1786 0.931 . S
C1802 C1796 1.383 . S
C1802 C1801 1.379 . S
H1803 C1797 0.959 . S
H1804 C1797 0.961 . S
H1805 C1797 0.960 . S
H1806 C1798 0.930 . S
H1807 C1799 0.929 . S
H1808 C1816 0.929 . S
H1809 C1818 0.930 . S
H1810 C1820 0.930 . S
H1811 C1823 0.929 . S
H1812 C1826 0.930 . S
H1813 C1828 0.960 . S
H1814 C1828 0.960 . S
H1815 C1828 0.960 . S
C1816 H1808 0.929 . S
C1816 C1817 1.377 . S
C1816 C1818 1.384 . S
C1817 C1816 1.377 . S
C1817 C1823 1.390 1_545 S
C1818 H1809 0.930 . S
C1818 C1816 1.384 . S
C1818 C1819 1.372 . S
C1819 C1818 1.372 . S
C1819 C1820 1.400 1_545 S
C1819 C1824 1.490 . S
C1820 H1810 0.930 . S
C1820 C1819 1.400 1_565 S
C1820 C1823 1.386 . S
H1821 C1837 0.930 . S
H1822 C1838 0.931 . S
C1823 H1811 0.929 . S
C1823 C1817 1.390 1_565 S
C1823 C1820 1.386 . S
C1824 C1819 1.490 . S
C1824 C1826 1.395 . S
C1824 C1827 1.403 1_545 S
H1825 C1831 0.930 . S
C1826 H1812 0.930 . S
C1826 C1824 1.395 . S
C1826 C1829 1.403 . S
C1827 C1824 1.403 1_565 S
C1827 C1828 1.524 . S
C1827 C1831 1.400 . S
C1828 H1813 0.960 . S
C1828 H1814 0.960 . S
C1828 H1815 0.960 . S
C1828 C1827 1.524 . S
C1829 C1826 1.403 . S
C1829 C1830 1.392 . S
C1829 C1833 1.495 . S
C1830 C1829 1.392 . S
C1830 C1831 1.385 1_545 S
C1830 C1832 1.478 . S
C1831 H1825 0.930 . S
C1831 C1827 1.400 . S
C1831 C1830 1.385 1_565 S
C1832 C1830 1.478 . S
C1832 C1834 1.381 . S
C1832 C1838 1.383 1_545 S
C1833 C1829 1.495 . S
C1833 H1839 0.959 . S
C1833 H1840 0.961 . S
C1833 H1841 0.960 . S
C1834 C1832 1.381 . S
C1834 C1835 1.394 . S
C1834 H1842 0.930 . S
C1835 C1834 1.394 . S
C1835 C1836 1.383 . S
C1835 H1843 0.929 . S
C1836 C1835 1.383 . S
C1836 C1837 1.377 1_545 S
C1837 H1821 0.930 . S
C1837 C1836 1.377 1_565 S
C1837 C1838 1.379 . S
C1838 H1822 0.931 . S
C1838 C1832 1.383 1_565 S
C1838 C1837 1.379 . S
H1839 C1833 0.959 . S
H1840 C1833 0.961 . S
H1841 C1833 0.960 . S
H1842 C1834 0.930 . S
H1843 C1835 0.929 . S
H1844 C1852 0.929 . S
H1845 C1854 0.930 . S
H1846 C1856 0.930 . S
H1847 C1859 0.929 . S
H1848 C1862 0.930 . S
H1849 C1864 0.960 . S
H1850 C1864 0.960 . S
H1851 C1864 0.960 . S
C1852 H1844 0.929 . S
C1852 C1853 1.377 . S
C1852 C1854 1.384 . S
C1853 C1852 1.377 . S
C1853 C1859 1.390 . S
C1854 H1845 0.930 . S
C1854 C1852 1.384 . S
C1854 C1855 1.372 . S
C1855 C1854 1.372 . S
C1855 C1856 1.400 . S
C1855 C1860 1.490 . S
C1856 H1846 0.930 . S
C1856 C1855 1.400 . S
C1856 C1859 1.386 . S
H1857 C1873 0.930 . S
H1858 C1874 0.931 . S
C1859 H1847 0.929 . S
C1859 C1853 1.390 . S
C1859 C1856 1.386 . S
C1860 C1855 1.490 . S
C1860 C1862 1.395 . S
C1860 C1863 1.403 . S
H1861 C1867 0.930 . S
C1862 H1848 0.930 . S
C1862 C1860 1.395 . S
C1862 C1865 1.403 . S
C1863 C1860 1.403 . S
C1863 C1864 1.524 . S
C1863 C1867 1.400 . S
C1864 H1849 0.960 . S
C1864 H1850 0.960 . S
C1864 H1851 0.960 . S
C1864 C1863 1.524 . S
C1865 C1862 1.403 . S
C1865 C1866 1.392 . S
C1865 C1869 1.495 . S
C1866 C1865 1.392 . S
C1866 C1867 1.385 . S
C1866 C1868 1.478 . S
C1867 H1861 0.930 . S
C1867 C1863 1.400 . S
C1867 C1866 1.385 . S
C1868 C1866 1.478 . S
C1868 C1870 1.381 . S
C1868 C1874 1.383 . S
C1869 C1865 1.495 . S
C1869 H1875 0.959 . S
C1869 H1876 0.961 . S
C1869 H1877 0.960 . S
C1870 C1868 1.381 . S
C1870 C1871 1.394 . S
C1870 H1878 0.930 . S
C1871 C1870 1.394 . S
C1871 C1872 1.383 . S
C1871 H1879 0.929 . S
C1872 C1871 1.383 . S
C1872 C1873 1.377 . S
C1873 H1857 0.930 . S
C1873 C1872 1.377 . S
C1873 C1874 1.379 . S
C1874 H1858 0.931 . S
C1874 C1868 1.383 . S
C1874 C1873 1.379 . S
H1875 C1869 0.959 . S
H1876 C1869 0.961 . S
H1877 C1869 0.960 . S
H1878 C1870 0.930 . S
H1879 C1871 0.929 . S
H1880 C1888 0.929 . S
H1881 C1890 0.930 . S
H1882 C1892 0.930 . S
H1883 C1895 0.929 . S
H1884 C1898 0.935 . S
H1885 C1900 0.960 . S
H1886 C1900 0.960 . S
H1887 C1900 0.960 . S
C1888 H1880 0.929 . S
C1888 C1889 1.377 . S
C1888 C1890 1.384 . S
C1889 C1888 1.377 . S
C1889 C1895 1.390 . S
C1890 H1881 0.930 . S
C1890 C1888 1.384 . S
C1890 C1891 1.372 . S
C1891 C1890 1.372 . S
C1891 C1892 1.400 . S
C1891 C1896 1.490 . S
C1892 H1882 0.930 . S
C1892 C1891 1.400 . S
C1892 C1895 1.386 . S
H1893 C1909 0.930 . S
H1894 C1910 0.931 . S
C1895 H1883 0.929 . S
C1895 C1889 1.390 . S
C1895 C1892 1.386 . S
C1896 C1891 1.490 . S
C1896 C1898 1.395 . S
C1896 C1899 1.403 . S
H1897 C1903 0.930 . S
C1898 H1884 0.935 . S
C1898 C1896 1.395 . S
C1898 C1901 1.403 . S
C1899 C1896 1.403 . S
C1899 C1900 1.524 . S
C1899 C1903 1.400 . S
C1900 H1885 0.960 . S
C1900 H1886 0.960 . S
C1900 H1887 0.960 . S
C1900 C1899 1.524 . S
C1901 C1898 1.403 . S
C1901 C1902 1.392 . S
C1901 C1905 1.495 1_545 S
C1902 C1901 1.392 . S
C1902 C1903 1.385 . S
C1902 C1904 1.478 . S
C1903 H1897 0.930 . S
C1903 C1899 1.400 . S
C1903 C1902 1.385 . S
C1904 C1902 1.478 . S
C1904 C1906 1.381 . S
C1904 C1910 1.383 . S
C1905 C1901 1.495 1_565 S
C1905 H1911 0.959 . S
C1905 H1912 0.961 . S
C1905 H1913 0.960 . S
C1906 C1904 1.381 . S
C1906 C1907 1.394 . S
C1906 H1914 0.930 . S
C1907 C1906 1.394 . S
C1907 C1908 1.383 . S
C1907 H1915 0.929 . S
C1908 C1907 1.383 . S
C1908 C1909 1.377 . S
C1909 H1893 0.930 . S
C1909 C1908 1.377 . S
C1909 C1910 1.379 . S
C1910 H1894 0.931 . S
C1910 C1904 1.383 . S
C1910 C1909 1.379 . S
H1911 C1905 0.959 . S
H1912 C1905 0.961 . S
H1913 C1905 0.960 . S
H1914 C1906 0.930 . S
H1915 C1907 0.929 . S
H1916 C1924 0.929 . S
H1917 C1926 0.930 . S
H1918 C1928 0.930 . S
H1919 C1931 0.929 . S
H1920 C1934 0.930 . S
H1921 C1936 0.960 . S
H1922 C1936 0.960 . S
H1923 C1936 0.960 . S
C1924 H1916 0.929 . S
C1924 C1925 1.377 . S
C1924 C1926 1.384 . S
C1925 C1924 1.377 . S
C1925 C1931 1.390 . S
C1926 H1917 0.930 . S
C1926 C1924 1.384 . S
C1926 C1927 1.372 . S
C1927 C1926 1.372 . S
C1927 C1928 1.400 . S
C1927 C1932 1.490 . S
C1928 H1918 0.930 . S
C1928 C1927 1.400 . S
C1928 C1931 1.386 . S
H1929 C1945 0.930 . S
H1930 C1946 0.931 . S
C1931 H1919 0.929 . S
C1931 C1925 1.390 . S
C1931 C1928 1.386 . S
C1932 C1927 1.490 . S
C1932 C1934 1.395 . S
C1932 C1935 1.403 . S
H1933 C1939 0.930 . S
C1934 H1920 0.930 . S
C1934 C1932 1.395 . S
C1934 C1937 1.403 . S
C1935 C1932 1.403 . S
C1935 C1936 1.524 . S
C1935 C1939 1.400 . S
C1936 H1921 0.960 . S
C1936 H1922 0.960 . S
C1936 H1923 0.960 . S
C1936 C1935 1.524 . S
C1937 C1934 1.403 . S
C1937 C1938 1.392 . S
C1937 C1941 1.495 . S
C1938 C1937 1.392 . S
C1938 C1939 1.385 . S
C1938 C1940 1.478 . S
C1939 H1933 0.930 . S
C1939 C1935 1.400 . S
C1939 C1938 1.385 . S
C1940 C1938 1.478 . S
C1940 C1942 1.381 . S
C1940 C1946 1.383 . S
C1941 C1937 1.495 . S
C1941 H1947 0.959 . S
C1941 H1948 0.961 . S
C1941 H1949 0.960 . S
C1942 C1940 1.381 . S
C1942 C1943 1.394 . S
C1942 H1950 0.930 . S
C1943 C1942 1.394 . S
C1943 C1944 1.383 . S
C1943 H1951 0.929 . S
C1944 C1943 1.383 . S
C1944 C1945 1.377 . S
C1945 H1929 0.930 . S
C1945 C1944 1.377 . S
C1945 C1946 1.379 . S
C1946 H1930 0.931 . S
C1946 C1940 1.383 . S
C1946 C1945 1.379 . S
H1947 C1941 0.959 . S
H1948 C1941 0.961 . S
H1949 C1941 0.960 . S
H1950 C1942 0.930 . S
H1951 C1943 0.929 . S
H1952 C1960 0.929 . S
H1953 C1962 0.930 . S
H1954 C1964 0.930 . S
H1955 C1967 0.929 . S
H1956 C1970 0.930 . S
H1957 C1972 0.960 . S
H1958 C1972 0.960 . S
H1959 C1972 0.960 1_545 S
C1960 H1952 0.929 . S
C1960 C1961 1.377 1_565 S
C1960 C1962 1.384 . S
C1961 C1960 1.377 1_545 S
C1961 C1967 1.390 . S
C1962 H1953 0.930 . S
C1962 C1960 1.384 . S
C1962 C1963 1.372 1_565 S
C1963 C1962 1.372 1_545 S
C1963 C1964 1.400 . S
C1963 C1968 1.490 . S
C1964 H1954 0.930 . S
C1964 C1963 1.400 . S
C1964 C1967 1.386 . S
H1965 C1981 0.930 . S
H1966 C1982 0.931 . S
C1967 H1955 0.929 . S
C1967 C1961 1.390 . S
C1967 C1964 1.386 . S
C1968 C1963 1.490 . S
C1968 C1970 1.395 . S
C1968 C1971 1.403 . S
H1969 C1975 0.930 . S
C1970 H1956 0.930 . S
C1970 C1968 1.395 . S
C1970 C1973 1.403 . S
C1971 C1968 1.403 . S
C1971 C1972 1.524 1_545 S
C1971 C1975 1.400 . S
C1972 H1957 0.960 . S
C1972 H1958 0.960 . S
C1972 H1959 0.960 1_565 S
C1972 C1971 1.524 1_565 S
C1973 C1970 1.403 . S
C1973 C1974 1.392 . S
C1973 C1977 1.495 . S
C1974 C1973 1.392 . S
C1974 C1975 1.385 . S
C1974 C1976 1.478 . S
C1975 H1969 0.930 . S
C1975 C1971 1.400 . S
C1975 C1974 1.385 . S
C1976 C1974 1.478 . S
C1976 C1978 1.381 1_545 S
C1976 C1982 1.383 . S
C1977 C1973 1.495 . S
C1977 H1983 0.959 . S
C1977 H1984 0.961 . S
C1977 H1985 0.960 . S
C1978 C1976 1.381 1_565 S
C1978 C1979 1.394 . S
C1978 H1986 0.930 . S
C1979 C1978 1.394 . S
C1979 C1980 1.383 1_565 S
C1979 H1987 0.929 . S
C1980 C1979 1.383 1_545 S
C1980 C1981 1.377 . S
C1981 H1965 0.930 . S
C1981 C1980 1.377 . S
C1981 C1982 1.379 . S
C1982 H1966 0.931 . S
C1982 C1976 1.383 . S
C1982 C1981 1.379 . S
H1983 C1977 0.959 . S
H1984 C1977 0.961 . S
H1985 C1977 0.960 . S
H1986 C1978 0.930 . S
H1987 C1979 0.929 . S
H1988 C1996 0.929 . S
H1989 C1998 0.930 . S
H1990 C2000 0.930 . S
H1991 C2003 0.929 . S
H1992 C2006 0.930 . S
H1993 C2008 0.960 . S
H1994 C2008 0.960 . S
H1995 C2008 0.960 . S
C1996 H1988 0.929 . S
C1996 C1997 1.377 . S
C1996 C1998 1.384 . S
C1997 C1996 1.377 . S
C1997 C2003 1.390 . S
C1998 H1989 0.930 . S
C1998 C1996 1.384 . S
C1998 C1999 1.372 . S
C1999 C1998 1.372 . S
C1999 C2000 1.400 . S
C1999 C2004 1.490 . S
C2000 H1990 0.930 . S
C2000 C1999 1.400 . S
C2000 C2003 1.386 . S
H2001 C2017 0.930 . S
H2002 C2018 0.931 . S
C2003 H1991 0.929 . S
C2003 C1997 1.390 . S
C2003 C2000 1.386 . S
C2004 C1999 1.490 . S
C2004 C2006 1.395 . S
C2004 C2007 1.403 . S
H2005 C2011 0.930 . S
C2006 H1992 0.930 . S
C2006 C2004 1.395 . S
C2006 C2009 1.403 . S
C2007 C2004 1.403 . S
C2007 C2008 1.524 . S
C2007 C2011 1.400 . S
C2008 H1993 0.960 . S
C2008 H1994 0.960 . S
C2008 H1995 0.960 . S
C2008 C2007 1.524 . S
C2009 C2006 1.403 . S
C2009 C2010 1.392 . S
C2009 C2013 1.495 . S
C2010 C2009 1.392 . S
C2010 C2011 1.385 . S
C2010 C2012 1.478 . S
C2011 H2005 0.930 . S
C2011 C2007 1.400 . S
C2011 C2010 1.385 . S
C2012 C2010 1.478 . S
C2012 C2014 1.381 . S
C2012 C2018 1.383 . S
C2013 C2009 1.495 . S
C2013 H2019 0.959 . S
C2013 H2020 0.961 . S
C2013 H2021 0.960 . S
C2014 C2012 1.381 . S
C2014 C2015 1.394 . S
C2014 H2022 0.930 . S
C2015 C2014 1.394 . S
C2015 C2016 1.383 . S
C2015 H2023 0.929 . S
C2016 C2015 1.383 . S
C2016 C2017 1.377 . S
C2017 H2001 0.930 . S
C2017 C2016 1.377 . S
C2017 C2018 1.379 . S
C2018 H2002 0.931 . S
C2018 C2012 1.383 . S
C2018 C2017 1.379 . S
H2019 C2013 0.959 . S
H2020 C2013 0.961 . S
H2021 C2013 0.960 . S
H2022 C2014 0.930 . S
H2023 C2015 0.929 . S
H2024 C2032 0.929 . S
H2025 C2034 0.930 . S
H2026 C2036 0.930 1_565 S
H2027 C2039 0.912 1_565 S
H2028 C2042 0.930 . S
H2029 C2044 0.960 . S
H2030 C2044 0.960 . S
H2031 C2044 0.960 . S
C2032 H2024 0.929 . S
C2032 C2033 1.377 . S
C2032 C2034 1.384 . S
C2033 C2032 1.377 . S
C2033 C2039 1.390 . S
C2034 H2025 0.930 . S
C2034 C2032 1.384 . S
C2034 C2035 1.372 . S
C2035 C2034 1.372 . S
C2035 C2036 1.400 . S
C2035 C2040 1.490 . S
C2036 H2026 0.930 1_545 S
C2036 C2035 1.400 . S
C2036 C2039 1.386 . S
H2037 C2053 0.930 . S
H2038 C2054 0.931 . S
C2039 H2027 0.912 1_545 S
C2039 C2033 1.390 . S
C2039 C2036 1.386 . S
C2040 C2035 1.490 . S
C2040 C2042 1.395 . S
C2040 C2043 1.403 . S
H2041 C2047 0.930 . S
C2042 H2028 0.930 . S
C2042 C2040 1.395 . S
C2042 C2045 1.403 . S
C2043 C2040 1.403 . S
C2043 C2044 1.524 . S
C2043 C2047 1.400 . S
C2044 H2029 0.960 . S
C2044 H2030 0.960 . S
C2044 H2031 0.960 . S
C2044 C2043 1.524 . S
C2045 C2042 1.403 . S
C2045 C2046 1.392 . S
C2045 C2049 1.495 1_545 S
C2046 C2045 1.392 . S
C2046 C2047 1.385 . S
C2046 C2048 1.478 . S
C2047 H2041 0.930 . S
C2047 C2043 1.400 . S
C2047 C2046 1.385 . S
C2048 C2046 1.478 . S
C2048 C2050 1.381 . S
C2048 C2054 1.383 1_545 S
C2049 C2045 1.495 1_565 S
C2049 H2055 0.959 . S
C2049 H2056 0.961 . S
C2049 H2057 0.960 1_565 S
C2050 C2048 1.381 . S
C2050 C2051 1.394 . S
C2050 H2058 0.930 . S
C2051 C2050 1.394 . S
C2051 C2052 1.407 . S
C2051 H2059 0.929 . S
C2052 C2051 1.407 . S
C2052 C2053 1.358 1_545 S
C2053 H2037 0.930 . S
C2053 C2052 1.358 1_565 S
C2053 C2054 1.379 . S
C2054 H2038 0.931 . S
C2054 C2048 1.383 1_565 S
C2054 C2053 1.379 . S
H2055 C2049 0.959 . S
H2056 C2049 0.961 . S
H2057 C2049 0.960 1_545 S
H2058 C2050 0.930 . S
H2059 C2051 0.929 . S
H2060 C2068 0.929 . S
H2061 C2070 0.930 . S
H2062 C2072 0.930 . S
H2063 C2075 0.929 . S
H2064 C2078 0.930 . S
H2065 C2080 0.960 . S
H2066 C2080 0.960 . S
H2067 C2080 0.960 . S
C2068 H2060 0.929 . S
C2068 C2069 1.377 . S
C2068 C2070 1.384 . S
C2069 C2068 1.377 . S
C2069 C2075 1.390 . S
C2070 H2061 0.930 . S
C2070 C2068 1.384 . S
C2070 C2071 1.372 . S
C2071 C2070 1.372 . S
C2071 C2072 1.400 . S
C2071 C2076 1.490 . S
C2072 H2062 0.930 . S
C2072 C2071 1.400 . S
C2072 C2075 1.386 . S
H2073 C2089 0.930 . S
H2074 C2090 0.931 . S
C2075 H2063 0.929 . S
C2075 C2069 1.390 . S
C2075 C2072 1.386 . S
C2076 C2071 1.490 . S
C2076 C2078 1.395 . S
C2076 C2079 1.403 . S
H2077 C2083 0.930 . S
C2078 H2064 0.930 . S
C2078 C2076 1.395 . S
C2078 C2081 1.403 . S
C2079 C2076 1.403 . S
C2079 C2080 1.524 . S
C2079 C2083 1.400 . S
C2080 H2065 0.960 . S
C2080 H2066 0.960 . S
C2080 H2067 0.960 . S
C2080 C2079 1.524 . S
C2081 C2078 1.403 . S
C2081 C2082 1.392 . S
C2081 C2085 1.495 . S
C2082 C2081 1.392 . S
C2082 C2083 1.385 . S
C2082 C2084 1.478 . S
C2083 H2077 0.930 . S
C2083 C2079 1.400 . S
C2083 C2082 1.385 . S
C2084 C2082 1.478 . S
C2084 C2086 1.381 . S
C2084 C2090 1.383 . S
C2085 C2081 1.495 . S
C2085 H2091 0.959 . S
C2085 H2092 0.961 . S
C2085 H2093 0.960 . S
C2086 C2084 1.381 . S
C2086 C2087 1.394 . S
C2086 H2094 0.930 . S
C2087 C2086 1.394 . S
C2087 C2088 1.383 . S
C2087 H2095 0.929 . S
C2088 C2087 1.383 . S
C2088 C2089 1.377 . S
C2089 H2073 0.930 . S
C2089 C2088 1.377 . S
C2089 C2090 1.379 . S
C2090 H2074 0.931 . S
C2090 C2084 1.383 . S
C2090 C2089 1.379 . S
H2091 C2085 0.959 . S
H2092 C2085 0.961 . S
H2093 C2085 0.960 . S
H2094 C2086 0.930 . S
H2095 C2087 0.929 . S
H2096 C2104 0.929 1_556 S
H2097 C2106 0.925 1_556 S
H2098 C2108 0.930 . S
H2099 C2111 0.929 . S
H2100 C2114 0.921 1_556 S
H2101 C2116 0.960 . S
H2102 C2116 0.960 . S
H2103 C2116 0.960 . S
C2104 H2096 0.929 1_554 S
C2104 C2105 1.377 . S
C2104 C2106 1.385 . S
C2105 C2104 1.377 . S
C2105 C2111 1.390 . S
C2106 H2097 0.925 1_554 S
C2106 C2104 1.385 . S
C2106 C2107 1.376 . S
C2107 C2106 1.376 . S
C2107 C2108 1.400 . S
C2107 C2112 1.490 . S
C2108 H2098 0.930 . S
C2108 C2107 1.400 . S
C2108 C2111 1.386 . S
H2109 C2125 0.930 . S
H2110 C2126 0.931 . S
C2111 H2099 0.929 . S
C2111 C2105 1.390 . S
C2111 C2108 1.386 . S
C2112 C2107 1.490 . S
C2112 C2114 1.407 . S
C2112 C2115 1.403 . S
H2113 C2119 0.930 . S
C2114 H2100 0.921 1_554 S
C2114 C2112 1.407 . S
C2114 C2117 1.401 1_554 S
C2115 C2112 1.403 . S
C2115 C2116 1.524 . S
C2115 C2119 1.400 . S
C2116 H2101 0.960 . S
C2116 H2102 0.960 . S
C2116 H2103 0.960 . S
C2116 C2115 1.524 . S
C2117 C2114 1.401 1_556 S
C2117 C2118 1.392 1_556 S
C2117 C2121 1.495 . S
C2118 C2117 1.392 1_554 S
C2118 C2119 1.385 . S
C2118 C2120 1.478 . S
C2119 H2113 0.930 . S
C2119 C2115 1.400 . S
C2119 C2118 1.385 . S
C2120 C2118 1.478 . S
C2120 C2122 1.381 1_554 S
C2120 C2126 1.383 . S
C2121 C2117 1.495 . S
C2121 H2127 0.959 . S
C2121 H2128 0.961 . S
C2121 H2129 0.960 . S
C2122 C2120 1.381 1_556 S
C2122 C2123 1.394 . S
C2122 H2130 0.930 . S
C2123 C2122 1.394 . S
C2123 C2124 1.383 1_556 S
C2123 H2131 0.929 . S
C2124 C2123 1.383 1_554 S
C2124 C2125 1.377 . S
C2125 H2109 0.930 . S
C2125 C2124 1.377 . S
C2125 C2126 1.379 . S
C2126 H2110 0.931 . S
C2126 C2120 1.383 . S
C2126 C2125 1.379 . S
H2127 C2121 0.959 . S
H2128 C2121 0.961 . S
H2129 C2121 0.960 . S
H2130 C2122 0.930 . S
H2131 C2123 0.929 . S
H2132 C2140 0.929 . S
H2133 C2142 0.930 . S
H2134 C2144 0.930 . S
H2135 C2147 0.929 . S
H2136 C2150 0.930 . S
H2137 C2152 0.960 . S
H2138 C2152 0.960 . S
H2139 C2152 0.960 . S
C2140 H2132 0.929 . S
C2140 C2141 1.377 . S
C2140 C2142 1.384 . S
C2141 C2140 1.377 . S
C2141 C2147 1.390 . S
C2142 H2133 0.930 . S
C2142 C2140 1.384 . S
C2142 C2143 1.372 . S
C2143 C2142 1.372 . S
C2143 C2144 1.400 . S
C2143 C2148 1.490 . S
C2144 H2134 0.930 . S
C2144 C2143 1.400 . S
C2144 C2147 1.386 . S
H2145 C2161 0.930 1_556 S
H2146 C2162 0.971 . S
C2147 H2135 0.929 . S
C2147 C2141 1.390 . S
C2147 C2144 1.386 . S
C2148 C2143 1.490 . S
C2148 C2150 1.395 . S
C2148 C2151 1.403 . S
H2149 C2155 0.930 . S
C2150 H2136 0.930 . S
C2150 C2148 1.395 . S
C2150 C2153 1.403 . S
C2151 C2148 1.403 . S
C2151 C2152 1.524 . S
C2151 C2155 1.400 . S
C2152 H2137 0.960 . S
C2152 H2138 0.960 . S
C2152 H2139 0.960 . S
C2152 C2151 1.524 . S
C2153 C2150 1.403 . S
C2153 C2154 1.392 . S
C2153 C2157 1.495 . S
C2154 C2153 1.392 . S
C2154 C2155 1.385 . S
C2154 C2156 1.478 . S
C2155 H2149 0.930 . S
C2155 C2151 1.400 . S
C2155 C2154 1.385 . S
C2156 C2154 1.478 . S
C2156 C2158 1.381 . S
C2156 C2162 1.383 . S
C2157 C2153 1.495 . S
C2157 H2163 0.959 . S
C2157 H2164 0.961 . S
C2157 H2165 0.960 . S
C2158 C2156 1.381 . S
C2158 C2159 1.394 . S
C2158 H2166 0.930 . S
C2159 C2158 1.394 . S
C2159 C2160 1.383 . S
C2159 H2167 0.929 . S
C2160 C2159 1.383 . S
C2160 C2161 1.377 . S
C2161 H2145 0.930 1_554 S
C2161 C2160 1.377 . S
C2161 C2162 1.379 . S
C2162 H2146 0.971 . S
C2162 C2156 1.383 . S
C2162 C2161 1.379 . S
H2163 C2157 0.959 . S
H2164 C2157 0.961 . S
H2165 C2157 0.960 . S
H2166 C2158 0.930 . S
H2167 C2159 0.929 . S
H2168 C2176 0.929 . S
H2169 C2178 0.930 . S
H2170 C2180 0.930 . S
H2171 C2183 0.929 . S
H2172 C2186 0.930 . S
H2173 C2188 0.960 . S
H2174 C2188 0.960 . S
H2175 C2188 0.960 . S
C2176 H2168 0.929 . S
C2176 C2177 1.377 . S
C2176 C2178 1.384 . S
C2177 C2176 1.377 . S
C2177 C2183 1.390 . S
C2178 H2169 0.930 . S
C2178 C2176 1.384 . S
C2178 C2179 1.372 . S
C2179 C2178 1.372 . S
C2179 C2180 1.400 . S
C2179 C2184 1.490 . S
C2180 H2170 0.930 . S
C2180 C2179 1.400 . S
C2180 C2183 1.386 . S
H2181 C2197 0.930 . S
H2182 C2198 0.931 . S
C2183 H2171 0.929 . S
C2183 C2177 1.390 . S
C2183 C2180 1.386 . S
C2184 C2179 1.490 . S
C2184 C2186 1.395 . S
C2184 C2187 1.403 . S
H2185 C2191 0.930 . S
C2186 H2172 0.930 . S
C2186 C2184 1.395 . S
C2186 C2189 1.403 . S
C2187 C2184 1.403 . S
C2187 C2188 1.524 . S
C2187 C2191 1.400 . S
C2188 H2173 0.960 . S
C2188 H2174 0.960 . S
C2188 H2175 0.960 . S
C2188 C2187 1.524 . S
C2189 C2186 1.403 . S
C2189 C2190 1.392 . S
C2189 C2193 1.495 . S
C2190 C2189 1.392 . S
C2190 C2191 1.385 . S
C2190 C2192 1.478 . S
C2191 H2185 0.930 . S
C2191 C2187 1.400 . S
C2191 C2190 1.385 . S
C2192 C2190 1.478 . S
C2192 C2194 1.381 . S
C2192 C2198 1.383 . S
C2193 C2189 1.495 . S
C2193 H2199 0.959 . S
C2193 H2200 0.961 . S
C2193 H2201 0.960 . S
C2194 C2192 1.381 . S
C2194 C2195 1.394 . S
C2194 H2202 0.930 . S
C2195 C2194 1.394 . S
C2195 C2196 1.383 . S
C2195 H2203 0.929 . S
C2196 C2195 1.383 . S
C2196 C2197 1.377 . S
C2197 H2181 0.930 . S
C2197 C2196 1.377 . S
C2197 C2198 1.379 . S
C2198 H2182 0.931 . S
C2198 C2192 1.383 . S
C2198 C2197 1.379 . S
H2199 C2193 0.959 . S
H2200 C2193 0.961 . S
H2201 C2193 0.960 . S
H2202 C2194 0.930 . S
H2203 C2195 0.929 . S
H2204 C2212 0.929 . S
H2205 C2214 0.930 . S
H2206 C2216 0.930 . S
H2207 C2219 0.929 . S
H2208 C2222 0.930 . S
H2209 C2224 0.960 . S
H2210 C2224 0.960 . S
H2211 C2224 0.960 . S
C2212 H2204 0.929 . S
C2212 C2213 1.377 . S
C2212 C2214 1.384 . S
C2213 C2212 1.377 . S
C2213 C2219 1.390 . S
C2214 H2205 0.930 . S
C2214 C2212 1.384 . S
C2214 C2215 1.372 . S
C2215 C2214 1.372 . S
C2215 C2216 1.400 . S
C2215 C2220 1.490 . S
C2216 H2206 0.930 . S
C2216 C2215 1.400 . S
C2216 C2219 1.386 . S
H2217 C2233 0.930 . S
H2218 C2234 0.931 . S
C2219 H2207 0.929 . S
C2219 C2213 1.390 . S
C2219 C2216 1.386 . S
C2220 C2215 1.490 . S
C2220 C2222 1.395 . S
C2220 C2223 1.403 . S
H2221 C2227 0.930 . S
C2222 H2208 0.930 . S
C2222 C2220 1.395 . S
C2222 C2225 1.403 . S
C2223 C2220 1.403 . S
C2223 C2224 1.524 . S
C2223 C2227 1.400 . S
C2224 H2209 0.960 . S
C2224 H2210 0.960 . S
C2224 H2211 0.960 . S
C2224 C2223 1.524 . S
C2225 C2222 1.403 . S
C2225 C2226 1.392 . S
C2225 C2229 1.495 . S
C2226 C2225 1.392 . S
C2226 C2227 1.385 . S
C2226 C2228 1.478 . S
C2227 H2221 0.930 . S
C2227 C2223 1.400 . S
C2227 C2226 1.385 . S
C2228 C2226 1.478 . S
C2228 C2230 1.381 . S
C2228 C2234 1.383 . S
C2229 C2225 1.495 . S
C2229 H2235 0.959 . S
C2229 H2236 0.961 . S
C2229 H2237 0.960 . S
C2230 C2228 1.381 . S
C2230 C2231 1.394 . S
C2230 H2238 0.930 . S
C2231 C2230 1.394 . S
C2231 C2232 1.383 . S
C2231 H2239 0.929 . S
C2232 C2231 1.383 . S
C2232 C2233 1.377 . S
C2233 H2217 0.930 . S
C2233 C2232 1.377 . S
C2233 C2234 1.379 . S
C2234 H2218 0.931 . S
C2234 C2228 1.383 . S
C2234 C2233 1.379 . S
H2235 C2229 0.959 . S
H2236 C2229 0.961 . S
H2237 C2229 0.960 . S
H2238 C2230 0.930 . S
H2239 C2231 0.929 . S
H2240 C2248 0.929 . S
H2241 C2250 0.930 . S
H2242 C2252 0.930 . S
H2243 C2255 0.929 . S
H2244 C2258 0.930 . S
H2245 C2260 0.960 . S
H2246 C2260 0.960 . S
H2247 C2260 0.960 . S
C2248 H2240 0.929 . S
C2248 C2249 1.377 . S
C2248 C2250 1.384 . S
C2249 C2248 1.377 . S
C2249 C2255 1.390 . S
C2250 H2241 0.930 . S
C2250 C2248 1.384 . S
C2250 C2251 1.372 . S
C2251 C2250 1.372 . S
C2251 C2252 1.400 . S
C2251 C2256 1.490 . S
C2252 H2242 0.930 . S
C2252 C2251 1.400 . S
C2252 C2255 1.386 . S
H2253 C2269 0.930 . S
H2254 C2270 0.931 . S
C2255 H2243 0.929 . S
C2255 C2249 1.390 . S
C2255 C2252 1.386 . S
C2256 C2251 1.490 . S
C2256 C2258 1.395 . S
C2256 C2259 1.403 . S
H2257 C2263 0.930 . S
C2258 H2244 0.930 . S
C2258 C2256 1.395 . S
C2258 C2261 1.403 . S
C2259 C2256 1.403 . S
C2259 C2260 1.524 . S
C2259 C2263 1.400 . S
C2260 H2245 0.960 . S
C2260 H2246 0.960 . S
C2260 H2247 0.960 . S
C2260 C2259 1.524 . S
C2261 C2258 1.403 . S
C2261 C2262 1.392 . S
C2261 C2265 1.495 . S
C2262 C2261 1.392 . S
C2262 C2263 1.385 . S
C2262 C2264 1.478 . S
C2263 H2257 0.930 . S
C2263 C2259 1.400 . S
C2263 C2262 1.385 . S
C2264 C2262 1.478 . S
C2264 C2266 1.381 . S
C2264 C2270 1.383 . S
C2265 C2261 1.495 . S
C2265 H2271 0.959 . S
C2265 H2272 0.961 . S
C2265 H2273 0.960 . S
C2266 C2264 1.381 . S
C2266 C2267 1.394 . S
C2266 H2274 0.930 . S
C2267 C2266 1.394 . S
C2267 C2268 1.383 . S
C2267 H2275 0.929 . S
C2268 C2267 1.383 . S
C2268 C2269 1.377 . S
C2269 H2253 0.930 . S
C2269 C2268 1.377 . S
C2269 C2270 1.379 . S
C2270 H2254 0.931 . S
C2270 C2264 1.383 . S
C2270 C2269 1.379 . S
H2271 C2265 0.959 . S
H2272 C2265 0.961 . S
H2273 C2265 0.960 . S
H2274 C2266 0.930 . S
H2275 C2267 0.929 . S
H2276 C2284 0.929 . S
H2277 C2286 0.930 . S
H2278 C2288 0.930 . S
H2279 C2291 0.929 . S
H2280 C2294 0.930 . S
H2281 C2296 0.960 . S
H2282 C2296 0.960 . S
H2283 C2296 0.960 . S
C2284 H2276 0.929 . S
C2284 C2285 1.377 . S
C2284 C2286 1.384 . S
C2285 C2284 1.377 . S
C2285 C2291 1.390 . S
C2286 H2277 0.930 . S
C2286 C2284 1.384 . S
C2286 C2287 1.372 . S
C2287 C2286 1.372 . S
C2287 C2288 1.400 . S
C2287 C2292 1.490 . S
C2288 H2278 0.930 . S
C2288 C2287 1.400 . S
C2288 C2291 1.386 . S
H2289 C2305 0.930 . S
H2290 C2306 0.931 . S
C2291 H2279 0.929 . S
C2291 C2285 1.390 . S
C2291 C2288 1.386 . S
C2292 C2287 1.490 . S
C2292 C2294 1.395 . S
C2292 C2295 1.403 . S
H2293 C2299 0.930 . S
C2294 H2280 0.930 . S
C2294 C2292 1.395 . S
C2294 C2297 1.403 . S
C2295 C2292 1.403 . S
C2295 C2296 1.524 . S
C2295 C2299 1.400 . S
C2296 H2281 0.960 . S
C2296 H2282 0.960 . S
C2296 H2283 0.960 . S
C2296 C2295 1.524 . S
C2297 C2294 1.403 . S
C2297 C2298 1.392 . S
C2297 C2301 1.495 . S
C2298 C2297 1.392 . S
C2298 C2299 1.385 . S
C2298 C2300 1.478 . S
C2299 H2293 0.930 . S
C2299 C2295 1.400 . S
C2299 C2298 1.385 . S
C2300 C2298 1.478 . S
C2300 C2302 1.381 . S
C2300 C2306 1.383 . S
C2301 C2297 1.495 . S
C2301 H2307 0.959 . S
C2301 H2308 0.961 . S
C2301 H2309 0.960 . S
C2302 C2300 1.381 . S
C2302 C2303 1.394 . S
C2302 H2310 0.930 . S
C2303 C2302 1.394 . S
C2303 C2304 1.383 . S
C2303 H2311 0.929 1_565 S
C2304 C2303 1.383 . S
C2304 C2305 1.377 . S
C2305 H2289 0.930 . S
C2305 C2304 1.377 . S
C2305 C2306 1.379 . S
C2306 H2290 0.931 . S
C2306 C2300 1.383 . S
C2306 C2305 1.379 . S
H2307 C2301 0.959 . S
H2308 C2301 0.961 . S
H2309 C2301 0.960 . S
H2310 C2302 0.930 . S
H2311 C2303 0.929 1_545 S
H2312 C2320 0.929 . S
H2313 C2322 0.930 . S
H2314 C2324 0.930 . S
H2315 C2327 0.929 . S
H2316 C2330 0.930 . S
H2317 C2332 0.960 . S
H2318 C2332 0.960 . S
H2319 C2332 0.960 . S
C2320 H2312 0.929 . S
C2320 C2321 1.377 . S
C2320 C2322 1.384 . S
C2321 C2320 1.377 . S
C2321 C2327 1.390 . S
C2322 H2313 0.930 . S
C2322 C2320 1.384 . S
C2322 C2323 1.372 . S
C2323 C2322 1.372 . S
C2323 C2324 1.400 . S
C2323 C2328 1.490 . S
C2324 H2314 0.930 . S
C2324 C2323 1.400 . S
C2324 C2327 1.386 . S
H2325 C2341 0.930 . S
H2326 C2342 0.931 . S
C2327 H2315 0.929 . S
C2327 C2321 1.390 . S
C2327 C2324 1.386 . S
C2328 C2323 1.490 . S
C2328 C2330 1.395 . S
C2328 C2331 1.403 . S
H2329 C2335 0.930 . S
C2330 H2316 0.930 . S
C2330 C2328 1.395 . S
C2330 C2333 1.403 . S
C2331 C2328 1.403 . S
C2331 C2332 1.524 . S
C2331 C2335 1.400 . S
C2332 H2317 0.960 . S
C2332 H2318 0.960 . S
C2332 H2319 0.960 . S
C2332 C2331 1.524 . S
C2333 C2330 1.403 . S
C2333 C2334 1.392 . S
C2333 C2337 1.495 . S
C2334 C2333 1.392 . S
C2334 C2335 1.385 . S
C2334 C2336 1.478 . S
C2335 H2329 0.930 . S
C2335 C2331 1.400 . S
C2335 C2334 1.385 . S
C2336 C2334 1.478 . S
C2336 C2338 1.381 . S
C2336 C2342 1.383 . S
C2337 C2333 1.495 . S
C2337 H2343 0.959 . S
C2337 H2344 0.961 . S
C2337 H2345 0.960 . S
C2338 C2336 1.381 . S
C2338 C2339 1.394 . S
C2338 H2346 0.930 . S
C2339 C2338 1.394 . S
C2339 C2340 1.383 . S
C2339 H2347 0.929 . S
C2340 C2339 1.383 . S
C2340 C2341 1.377 . S
C2341 H2325 0.930 . S
C2341 C2340 1.377 . S
C2341 C2342 1.379 . S
C2342 H2326 0.931 . S
C2342 C2336 1.383 . S
C2342 C2341 1.379 . S
H2343 C2337 0.959 . S
H2344 C2337 0.961 . S
H2345 C2337 0.960 . S
H2346 C2338 0.930 . S
H2347 C2339 0.929 . S
H2348 C2356 0.929 . S
H2349 C2358 0.930 . S
H2350 C2360 0.930 . S
H2351 C2363 0.929 . S
H2352 C2366 0.930 . S
H2353 C2368 0.960 . S
H2354 C2368 0.960 . S
H2355 C2368 0.960 . S
C2356 H2348 0.929 . S
C2356 C2357 1.377 . S
C2356 C2358 1.384 . S
C2357 C2356 1.377 . S
C2357 C2363 1.390 . S
C2358 H2349 0.930 . S
C2358 C2356 1.384 . S
C2358 C2359 1.372 . S
C2359 C2358 1.372 . S
C2359 C2360 1.400 . S
C2359 C2364 1.490 . S
C2360 H2350 0.930 . S
C2360 C2359 1.400 . S
C2360 C2363 1.386 . S
H2361 C2377 0.930 . S
H2362 C2378 0.931 . S
C2363 H2351 0.929 . S
C2363 C2357 1.390 . S
C2363 C2360 1.386 . S
C2364 C2359 1.490 . S
C2364 C2366 1.395 . S
C2364 C2367 1.403 . S
H2365 C2371 0.930 . S
C2366 H2352 0.930 . S
C2366 C2364 1.395 . S
C2366 C2369 1.403 . S
C2367 C2364 1.403 . S
C2367 C2368 1.524 . S
C2367 C2371 1.400 . S
C2368 H2353 0.960 . S
C2368 H2354 0.960 . S
C2368 H2355 0.960 . S
C2368 C2367 1.524 . S
C2369 C2366 1.403 . S
C2369 C2370 1.392 . S
C2369 C2373 1.495 . S
C2370 C2369 1.392 . S
C2370 C2371 1.385 . S
C2370 C2372 1.478 . S
C2371 H2365 0.930 . S
C2371 C2367 1.400 . S
C2371 C2370 1.385 . S
C2372 C2370 1.478 . S
C2372 C2374 1.381 . S
C2372 C2378 1.383 . S
C2373 C2369 1.495 . S
C2373 H2379 0.959 . S
C2373 H2380 0.961 . S
C2373 H2381 0.960 . S
C2374 C2372 1.381 . S
C2374 C2375 1.394 . S
C2374 H2382 0.930 . S
C2375 C2374 1.394 . S
C2375 C2376 1.383 . S
C2375 H2383 0.929 . S
C2376 C2375 1.383 . S
C2376 C2377 1.377 . S
C2377 H2361 0.930 . S
C2377 C2376 1.377 . S
C2377 C2378 1.379 . S
C2378 H2362 0.931 . S
C2378 C2372 1.383 . S
C2378 C2377 1.379 . S
H2379 C2373 0.959 . S
H2380 C2373 0.961 . S
H2381 C2373 0.960 . S
H2382 C2374 0.930 . S
H2383 C2375 0.929 . S
H2384 C2392 0.929 . S
H2385 C2394 0.930 . S
H2386 C2396 0.930 . S
H2387 C2399 0.929 . S
H2388 C2402 0.930 . S
H2389 C2404 0.960 . S
H2390 C2404 0.960 . S
H2391 C2404 0.960 . S
C2392 H2384 0.929 . S
C2392 C2393 1.377 . S
C2392 C2394 1.384 . S
C2393 C2392 1.377 . S
C2393 C2399 1.390 . S
C2394 H2385 0.930 . S
C2394 C2392 1.384 . S
C2394 C2395 1.372 . S
C2395 C2394 1.372 . S
C2395 C2396 1.400 . S
C2395 C2400 1.490 . S
C2396 H2386 0.930 . S
C2396 C2395 1.400 . S
C2396 C2399 1.386 . S
H2397 C2413 0.930 . S
H2398 C2414 0.931 . S
C2399 H2387 0.929 . S
C2399 C2393 1.390 . S
C2399 C2396 1.386 . S
C2400 C2395 1.490 . S
C2400 C2402 1.395 . S
C2400 C2403 1.403 . S
H2401 C2407 0.930 . S
C2402 H2388 0.930 . S
C2402 C2400 1.395 . S
C2402 C2405 1.403 . S
C2403 C2400 1.403 . S
C2403 C2404 1.524 . S
C2403 C2407 1.400 . S
C2404 H2389 0.960 . S
C2404 H2390 0.960 . S
C2404 H2391 0.960 . S
C2404 C2403 1.524 . S
C2405 C2402 1.403 . S
C2405 C2406 1.392 . S
C2405 C2409 1.495 . S
C2406 C2405 1.392 . S
C2406 C2407 1.385 . S
C2406 C2408 1.478 . S
C2407 H2401 0.930 . S
C2407 C2403 1.400 . S
C2407 C2406 1.385 . S
C2408 C2406 1.478 . S
C2408 C2410 1.381 . S
C2408 C2414 1.383 . S
C2409 C2405 1.495 . S
C2409 H2415 0.959 . S
C2409 H2416 0.961 . S
C2409 H2417 0.960 . S
C2410 C2408 1.381 . S
C2410 C2411 1.394 . S
C2410 H2418 0.930 . S
C2411 C2410 1.394 . S
C2411 C2412 1.383 . S
C2411 H2419 0.929 . S
C2412 C2411 1.383 . S
C2412 C2413 1.377 . S
C2413 H2397 0.930 . S
C2413 C2412 1.377 . S
C2413 C2414 1.379 . S
C2414 H2398 0.931 . S
C2414 C2408 1.383 . S
C2414 C2413 1.379 . S
H2415 C2409 0.959 . S
H2416 C2409 0.961 . S
H2417 C2409 0.960 . S
H2418 C2410 0.930 . S
H2419 C2411 0.929 . S
H2420 C2428 0.929 . S
H2421 C2430 0.930 . S
H2422 C2432 0.930 . S
H2423 C2435 0.929 . S
H2424 C2438 0.930 . S
H2425 C2440 0.960 . S
H2426 C2440 0.960 . S
H2427 C2440 0.960 . S
C2428 H2420 0.929 . S
C2428 C2429 1.377 . S
C2428 C2430 1.384 . S
C2429 C2428 1.377 . S
C2429 C2435 1.390 . S
C2430 H2421 0.930 . S
C2430 C2428 1.384 . S
C2430 C2431 1.372 . S
C2431 C2430 1.372 . S
C2431 C2432 1.400 . S
C2431 C2436 1.490 . S
C2432 H2422 0.930 . S
C2432 C2431 1.400 . S
C2432 C2435 1.386 . S
H2433 C2449 0.930 . S
H2434 C2450 0.931 . S
C2435 H2423 0.929 . S
C2435 C2429 1.390 . S
C2435 C2432 1.386 . S
C2436 C2431 1.490 . S
C2436 C2438 1.395 . S
C2436 C2439 1.403 . S
H2437 C2443 0.930 . S
C2438 H2424 0.930 . S
C2438 C2436 1.395 . S
C2438 C2441 1.403 . S
C2439 C2436 1.403 . S
C2439 C2440 1.524 . S
C2439 C2443 1.400 . S
C2440 H2425 0.960 . S
C2440 H2426 0.960 . S
C2440 H2427 0.960 . S
C2440 C2439 1.524 . S
C2441 C2438 1.403 . S
C2441 C2442 1.392 . S
C2441 C2445 1.495 . S
C2442 C2441 1.392 . S
C2442 C2443 1.385 . S
C2442 C2444 1.478 . S
C2443 H2437 0.930 . S
C2443 C2439 1.400 . S
C2443 C2442 1.385 . S
C2444 C2442 1.478 . S
C2444 C2446 1.381 . S
C2444 C2450 1.383 . S
C2445 C2441 1.495 . S
C2445 H2451 0.959 . S
C2445 H2452 0.961 . S
C2445 H2453 0.960 . S
C2446 C2444 1.381 . S
C2446 C2447 1.394 . S
C2446 H2454 0.930 . S
C2447 C2446 1.394 . S
C2447 C2448 1.383 . S
C2447 H2455 0.929 . S
C2448 C2447 1.383 . S
C2448 C2449 1.377 . S
C2449 H2433 0.930 . S
C2449 C2448 1.377 . S
C2449 C2450 1.379 . S
C2450 H2434 0.931 . S
C2450 C2444 1.383 . S
C2450 C2449 1.379 . S
H2451 C2445 0.959 . S
H2452 C2445 0.961 . S
H2453 C2445 0.960 . S
H2454 C2446 0.930 . S
H2455 C2447 0.929 . S
H2456 C2464 0.929 . S
H2457 C2466 0.930 . S
H2458 C2468 0.930 . S
H2459 C2471 0.929 . S
H2460 C2474 0.930 . S
H2461 C2476 0.966 . S
H2462 C2476 0.960 . S
H2463 C2476 0.960 1_655 S
C2464 H2456 0.929 . S
C2464 C2465 1.377 . S
C2464 C2466 1.384 . S
C2465 C2464 1.377 . S
C2465 C2471 1.390 1_455 S
C2466 H2457 0.930 . S
C2466 C2464 1.384 . S
C2466 C2467 1.372 . S
C2467 C2466 1.372 . S
C2467 C2468 1.400 1_455 S
C2467 C2472 1.490 . S
C2468 H2458 0.930 . S
C2468 C2467 1.400 1_655 S
C2468 C2471 1.386 . S
H2469 C2485 0.930 1_554 S
H2470 C2486 0.931 . S
C2471 H2459 0.929 . S
C2471 C2465 1.390 1_655 S
C2471 C2468 1.386 . S
C2472 C2467 1.490 . S
C2472 C2474 1.395 . S
C2472 C2475 1.403 . S
H2473 C2479 0.930 . S
C2474 H2460 0.930 . S
C2474 C2472 1.395 . S
C2474 C2477 1.403 . S
C2475 C2472 1.403 . S
C2475 C2476 1.524 . S
C2475 C2479 1.400 . S
C2476 H2461 0.966 . S
C2476 H2462 0.960 . S
C2476 H2463 0.960 1_455 S
C2476 C2475 1.524 . S
C2477 C2474 1.403 . S
C2477 C2478 1.392 . S
C2477 C2481 1.495 . S
C2478 C2477 1.392 . S
C2478 C2479 1.385 . S
C2478 C2480 1.478 . S
C2479 H2473 0.930 . S
C2479 C2475 1.400 . S
C2479 C2478 1.385 . S
C2480 C2478 1.478 . S
C2480 C2482 1.381 . S
C2480 C2486 1.383 1_455 S
C2481 C2477 1.495 . S
C2481 H2487 0.959 . S
C2481 H2488 0.924 1_455 S
C2481 H2489 0.960 . S
C2482 C2480 1.381 . S
C2482 C2483 1.394 . S
C2482 H2490 0.930 . S
C2483 C2482 1.394 . S
C2483 C2484 1.402 . S
C2483 H2491 0.929 . S
C2484 C2483 1.402 . S
C2484 C2485 1.379 1_455 S
C2485 H2469 0.930 1_556 S
C2485 C2484 1.379 1_655 S
C2485 C2486 1.379 . S
C2486 H2470 0.931 . S
C2486 C2480 1.383 1_655 S
C2486 C2485 1.379 . S
H2487 C2481 0.959 . S
H2488 C2481 0.924 1_655 S
H2489 C2481 0.960 . S
H2490 C2482 0.930 . S
H2491 C2483 0.929 . S
H2492 C2500 0.929 . S
H2493 C2502 0.930 . S
H2494 C2504 0.930 . S
H2495 C2507 0.929 . S
H2496 C2510 0.930 . S
H2497 C2512 0.960 . S
H2498 C2512 0.960 . S
H2499 C2512 0.960 . S
C2500 H2492 0.929 . S
C2500 C2501 1.377 . S
C2500 C2502 1.384 . S
C2501 C2500 1.377 . S
C2501 C2507 1.390 . S
C2502 H2493 0.930 . S
C2502 C2500 1.384 . S
C2502 C2503 1.372 . S
C2503 C2502 1.372 . S
C2503 C2504 1.400 . S
C2503 C2508 1.490 . S
C2504 H2494 0.930 . S
C2504 C2503 1.400 . S
C2504 C2507 1.386 . S
H2505 C2521 0.930 . S
H2506 C2522 0.931 . S
C2507 H2495 0.929 . S
C2507 C2501 1.390 . S
C2507 C2504 1.386 . S
C2508 C2503 1.490 . S
C2508 C2510 1.395 . S
C2508 C2511 1.403 . S
H2509 C2515 0.930 . S
C2510 H2496 0.930 . S
C2510 C2508 1.395 . S
C2510 C2513 1.403 . S
C2511 C2508 1.403 . S
C2511 C2512 1.524 . S
C2511 C2515 1.400 . S
C2512 H2497 0.960 . S
C2512 H2498 0.960 . S
C2512 H2499 0.960 . S
C2512 C2511 1.524 . S
C2513 C2510 1.403 . S
C2513 C2514 1.392 . S
C2513 C2517 1.495 . S
C2514 C2513 1.392 . S
C2514 C2515 1.385 . S
C2514 C2516 1.478 . S
C2515 H2509 0.930 . S
C2515 C2511 1.400 . S
C2515 C2514 1.385 . S
C2516 C2514 1.478 . S
C2516 C2518 1.381 . S
C2516 C2522 1.383 . S
C2517 C2513 1.495 . S
C2517 H2523 0.959 . S
C2517 H2524 0.961 . S
C2517 H2525 0.960 . S
C2518 C2516 1.381 . S
C2518 C2519 1.394 . S
C2518 H2526 0.930 . S
C2519 C2518 1.394 . S
C2519 C2520 1.383 . S
C2519 H2527 0.929 . S
C2520 C2519 1.383 . S
C2520 C2521 1.377 . S
C2521 H2505 0.930 . S
C2521 C2520 1.377 . S
C2521 C2522 1.379 . S
C2522 H2506 0.931 . S
C2522 C2516 1.383 . S
C2522 C2521 1.379 . S
H2523 C2517 0.959 . S
H2524 C2517 0.961 . S
H2525 C2517 0.960 . S
H2526 C2518 0.930 . S
H2527 C2519 0.929 . S
H2528 C2536 0.929 . S
H2529 C2538 0.930 . S
H2530 C2540 0.930 . S
H2531 C2543 0.929 . S
H2532 C2546 0.930 . S
H2533 C2548 0.960 . S
H2534 C2548 0.960 . S
H2535 C2548 0.960 . S
C2536 H2528 0.929 . S
C2536 C2537 1.377 . S
C2536 C2538 1.384 . S
C2537 C2536 1.377 . S
C2537 C2543 1.390 . S
C2538 H2529 0.930 . S
C2538 C2536 1.384 . S
C2538 C2539 1.372 . S
C2539 C2538 1.372 . S
C2539 C2540 1.400 . S
C2539 C2544 1.490 . S
C2540 H2530 0.930 . S
C2540 C2539 1.400 . S
C2540 C2543 1.386 . S
H2541 C2557 0.930 . S
H2542 C2558 0.931 . S
C2543 H2531 0.929 . S
C2543 C2537 1.390 . S
C2543 C2540 1.386 . S
C2544 C2539 1.490 . S
C2544 C2546 1.395 . S
C2544 C2547 1.403 . S
H2545 C2551 0.930 . S
C2546 H2532 0.930 . S
C2546 C2544 1.395 . S
C2546 C2549 1.403 . S
C2547 C2544 1.403 . S
C2547 C2548 1.524 . S
C2547 C2551 1.400 . S
C2548 H2533 0.960 . S
C2548 H2534 0.960 . S
C2548 H2535 0.960 . S
C2548 C2547 1.524 . S
C2549 C2546 1.403 . S
C2549 C2550 1.392 . S
C2549 C2553 1.495 . S
C2550 C2549 1.392 . S
C2550 C2551 1.385 . S
C2550 C2552 1.478 . S
C2551 H2545 0.930 . S
C2551 C2547 1.400 . S
C2551 C2550 1.385 . S
C2552 C2550 1.478 . S
C2552 C2554 1.381 . S
C2552 C2558 1.383 . S
C2553 C2549 1.495 . S
C2553 H2559 0.959 . S
C2553 H2560 0.961 . S
C2553 H2561 0.960 . S
C2554 C2552 1.381 . S
C2554 C2555 1.394 . S
C2554 H2562 0.930 . S
C2555 C2554 1.394 . S
C2555 C2556 1.383 . S
C2555 H2563 0.929 . S
C2556 C2555 1.383 . S
C2556 C2557 1.377 . S
C2557 H2541 0.930 . S
C2557 C2556 1.377 . S
C2557 C2558 1.379 . S
C2558 H2542 0.931 . S
C2558 C2552 1.383 . S
C2558 C2557 1.379 . S
H2559 C2553 0.959 . S
H2560 C2553 0.961 . S
H2561 C2553 0.960 . S
H2562 C2554 0.930 . S
H2563 C2555 0.929 . S
H2564 C2572 0.929 . S
H2565 C2574 0.930 . S
H2566 C2576 0.930 . S
H2567 C2579 0.929 . S
H2568 C2582 0.930 . S
H2569 C2584 0.960 . S
H2570 C2584 0.960 . S
H2571 C2584 0.960 . S
C2572 H2564 0.929 . S
C2572 C2573 1.377 . S
C2572 C2574 1.384 . S
C2573 C2572 1.377 . S
C2573 C2579 1.390 . S
C2574 H2565 0.930 . S
C2574 C2572 1.384 . S
C2574 C2575 1.372 . S
C2575 C2574 1.372 . S
C2575 C2576 1.400 . S
C2575 C2580 1.490 . S
C2576 H2566 0.930 . S
C2576 C2575 1.400 . S
C2576 C2579 1.386 . S
H2577 C2593 0.930 . S
H2578 C2594 0.931 . S
C2579 H2567 0.929 . S
C2579 C2573 1.390 . S
C2579 C2576 1.386 . S
C2580 C2575 1.490 . S
C2580 C2582 1.395 . S
C2580 C2583 1.403 . S
H2581 C2587 0.930 . S
C2582 H2568 0.930 . S
C2582 C2580 1.395 . S
C2582 C2585 1.403 . S
C2583 C2580 1.403 . S
C2583 C2584 1.524 . S
C2583 C2587 1.400 . S
C2584 H2569 0.960 . S
C2584 H2570 0.960 . S
C2584 H2571 0.960 . S
C2584 C2583 1.524 . S
C2585 C2582 1.403 . S
C2585 C2586 1.392 . S
C2585 C2589 1.495 . S
C2586 C2585 1.392 . S
C2586 C2587 1.385 . S
C2586 C2588 1.478 . S
C2587 H2581 0.930 . S
C2587 C2583 1.400 . S
C2587 C2586 1.385 . S
C2588 C2586 1.478 . S
C2588 C2590 1.381 . S
C2588 C2594 1.383 . S
C2589 C2585 1.495 . S
C2589 H2595 0.959 . S
C2589 H2596 0.961 . S
C2589 H2597 0.960 . S
C2590 C2588 1.381 . S
C2590 C2591 1.394 . S
C2590 H2598 0.930 . S
C2591 C2590 1.394 . S
C2591 C2592 1.383 . S
C2591 H2599 0.929 . S
C2592 C2591 1.383 . S
C2592 C2593 1.377 . S
C2593 H2577 0.930 . S
C2593 C2592 1.377 . S
C2593 C2594 1.379 . S
C2594 H2578 0.931 . S
C2594 C2588 1.383 . S
C2594 C2593 1.379 . S
H2595 C2589 0.959 . S
H2596 C2589 0.961 . S
H2597 C2589 0.960 . S
H2598 C2590 0.930 . S
H2599 C2591 0.929 . S
H2600 C2608 0.929 . S
H2601 C2610 0.930 . S
H2602 C2612 0.930 . S
H2603 C2615 0.929 . S
H2604 C2618 0.930 . S
H2605 C2620 0.960 . S
H2606 C2620 0.960 . S
H2607 C2620 0.960 . S
C2608 H2600 0.929 . S
C2608 C2609 1.355 1_655 S
C2608 C2610 1.384 . S
C2609 C2608 1.355 1_455 S
C2609 C2615 1.425 . S
C2610 H2601 0.930 . S
C2610 C2608 1.384 . S
C2610 C2611 1.372 1_655 S
C2611 C2610 1.372 1_455 S
C2611 C2612 1.400 . S
C2611 C2616 1.490 . S
C2612 H2602 0.930 . S
C2612 C2611 1.400 . S
C2612 C2615 1.386 . S
H2613 C2629 0.930 . S
H2614 C2630 0.931 . S
C2615 H2603 0.929 . S
C2615 C2609 1.425 . S
C2615 C2612 1.386 . S
C2616 C2611 1.490 . S
C2616 C2618 1.395 . S
C2616 C2619 1.403 1_455 S
H2617 C2623 0.930 . S
C2618 H2604 0.930 . S
C2618 C2616 1.395 . S
C2618 C2621 1.403 . S
C2619 C2616 1.403 1_655 S
C2619 C2620 1.524 . S
C2619 C2623 1.400 . S
C2620 H2605 0.960 . S
C2620 H2606 0.960 . S
C2620 H2607 0.960 . S
C2620 C2619 1.524 . S
C2621 C2618 1.403 . S
C2621 C2622 1.392 . S
C2621 C2625 1.495 . S
C2622 C2621 1.392 . S
C2622 C2623 1.385 1_455 S
C2622 C2624 1.478 . S
C2623 H2617 0.930 . S
C2623 C2619 1.400 . S
C2623 C2622 1.385 1_655 S
C2624 C2622 1.478 . S
C2624 C2626 1.381 1_455 S
C2624 C2630 1.383 . S
C2625 C2621 1.495 . S
C2625 H2631 0.959 . S
C2625 H2632 0.961 . S
C2625 H2633 0.960 . S
C2626 C2624 1.381 1_655 S
C2626 C2627 1.394 . S
C2626 H2634 0.930 . S
C2627 C2626 1.394 . S
C2627 C2628 1.383 1_655 S
C2627 H2635 0.929 . S
C2628 C2627 1.383 1_455 S
C2628 C2629 1.377 . S
C2629 H2613 0.930 . S
C2629 C2628 1.377 . S
C2629 C2630 1.379 . S
C2630 H2614 0.931 . S
C2630 C2624 1.383 . S
C2630 C2629 1.379 . S
H2631 C2625 0.959 . S
H2632 C2625 0.961 . S
H2633 C2625 0.960 . S
H2634 C2626 0.930 . S
H2635 C2627 0.929 . S
H2636 C2644 0.929 . S
H2637 C2646 0.930 . S
H2638 C2648 0.930 . S
H2639 C2651 0.929 . S
H2640 C2654 0.930 . S
H2641 C2656 0.960 . S
H2642 C2656 0.960 . S
H2643 C2656 0.960 . S
C2644 H2636 0.929 . S
C2644 C2645 1.377 . S
C2644 C2646 1.384 . S
C2645 C2644 1.377 . S
C2645 C2651 1.390 . S
C2646 H2637 0.930 . S
C2646 C2644 1.384 . S
C2646 C2647 1.372 . S
C2647 C2646 1.372 . S
C2647 C2648 1.400 . S
C2647 C2652 1.490 . S
C2648 H2638 0.930 . S
C2648 C2647 1.400 . S
C2648 C2651 1.386 . S
H2649 C2665 0.930 . S
H2650 C2666 0.931 . S
C2651 H2639 0.929 . S
C2651 C2645 1.390 . S
C2651 C2648 1.386 . S
C2652 C2647 1.490 . S
C2652 C2654 1.395 . S
C2652 C2655 1.403 . S
H2653 C2659 0.930 . S
C2654 H2640 0.930 . S
C2654 C2652 1.395 . S
C2654 C2657 1.403 . S
C2655 C2652 1.403 . S
C2655 C2656 1.524 . S
C2655 C2659 1.400 . S
C2656 H2641 0.960 . S
C2656 H2642 0.960 . S
C2656 H2643 0.960 . S
C2656 C2655 1.524 . S
C2657 C2654 1.403 . S
C2657 C2658 1.392 . S
C2657 C2661 1.495 . S
C2658 C2657 1.392 . S
C2658 C2659 1.385 . S
C2658 C2660 1.478 . S
C2659 H2653 0.930 . S
C2659 C2655 1.400 . S
C2659 C2658 1.385 . S
C2660 C2658 1.478 . S
C2660 C2662 1.381 . S
C2660 C2666 1.383 . S
C2661 C2657 1.495 . S
C2661 H2667 0.959 . S
C2661 H2668 0.961 . S
C2661 H2669 0.960 . S
C2662 C2660 1.381 . S
C2662 C2663 1.394 . S
C2662 H2670 0.930 . S
C2663 C2662 1.394 . S
C2663 C2664 1.383 . S
C2663 H2671 0.929 . S
C2664 C2663 1.383 . S
C2664 C2665 1.377 . S
C2665 H2649 0.930 . S
C2665 C2664 1.377 . S
C2665 C2666 1.379 . S
C2666 H2650 0.931 . S
C2666 C2660 1.383 . S
C2666 C2665 1.379 . S
H2667 C2661 0.959 . S
H2668 C2661 0.961 . S
H2669 C2661 0.960 . S
H2670 C2662 0.930 . S
H2671 C2663 0.929 . S
H2672 C2680 0.929 . S
H2673 C2682 0.930 . S
H2674 C2684 0.930 . S
H2675 C2687 0.929 . S
H2676 C2690 0.930 . S
H2677 C2692 0.960 . S
H2678 C2692 0.960 . S
H2679 C2692 0.960 . S
C2680 H2672 0.929 . S
C2680 C2681 1.377 . S
C2680 C2682 1.384 . S
C2681 C2680 1.377 . S
C2681 C2687 1.390 . S
C2682 H2673 0.930 . S
C2682 C2680 1.384 . S
C2682 C2683 1.372 . S
C2683 C2682 1.372 . S
C2683 C2684 1.400 . S
C2683 C2688 1.490 . S
C2684 H2674 0.930 . S
C2684 C2683 1.400 . S
C2684 C2687 1.386 . S
H2685 C2701 0.930 . S
H2686 C2702 0.931 . S
C2687 H2675 0.929 . S
C2687 C2681 1.390 . S
C2687 C2684 1.386 . S
C2688 C2683 1.490 . S
C2688 C2690 1.395 . S
C2688 C2691 1.403 . S
H2689 C2695 0.930 . S
C2690 H2676 0.930 . S
C2690 C2688 1.395 . S
C2690 C2693 1.403 . S
C2691 C2688 1.403 . S
C2691 C2692 1.524 . S
C2691 C2695 1.400 . S
C2692 H2677 0.960 . S
C2692 H2678 0.960 . S
C2692 H2679 0.960 . S
C2692 C2691 1.524 . S
C2693 C2690 1.403 . S
C2693 C2694 1.392 . S
C2693 C2697 1.495 . S
C2694 C2693 1.392 . S
C2694 C2695 1.385 . S
C2694 C2696 1.478 . S
C2695 H2689 0.930 . S
C2695 C2691 1.400 . S
C2695 C2694 1.385 . S
C2696 C2694 1.478 . S
C2696 C2698 1.381 . S
C2696 C2702 1.383 . S
C2697 C2693 1.495 . S
C2697 H2703 0.959 . S
C2697 H2704 0.961 . S
C2697 H2705 0.960 . S
C2698 C2696 1.381 . S
C2698 C2699 1.394 . S
C2698 H2706 0.930 . S
C2699 C2698 1.394 . S
C2699 C2700 1.383 . S
C2699 H2707 0.929 . S
C2700 C2699 1.383 . S
C2700 C2701 1.377 . S
C2701 H2685 0.930 . S
C2701 C2700 1.377 . S
C2701 C2702 1.379 . S
C2702 H2686 0.931 . S
C2702 C2696 1.383 . S
C2702 C2701 1.379 . S
H2703 C2697 0.959 . S
H2704 C2697 0.961 . S
H2705 C2697 0.960 . S
H2706 C2698 0.930 . S
H2707 C2699 0.929 . S
H2708 C2716 0.929 . S
H2709 C2718 0.930 . S
H2710 C2720 0.930 . S
H2711 C2723 0.929 . S
H2712 C2726 0.930 . S
H2713 C2728 0.960 . S
H2714 C2728 0.960 . S
H2715 C2728 0.960 . S
C2716 H2708 0.929 . S
C2716 C2717 1.377 . S
C2716 C2718 1.384 . S
C2717 C2716 1.377 . S
C2717 C2723 1.390 . S
C2718 H2709 0.930 . S
C2718 C2716 1.384 . S
C2718 C2719 1.372 . S
C2719 C2718 1.372 . S
C2719 C2720 1.400 . S
C2719 C2724 1.490 . S
C2720 H2710 0.930 . S
C2720 C2719 1.400 . S
C2720 C2723 1.386 . S
H2721 C2737 0.930 . S
H2722 C2738 0.931 . S
C2723 H2711 0.929 . S
C2723 C2717 1.390 . S
C2723 C2720 1.386 . S
C2724 C2719 1.490 . S
C2724 C2726 1.395 . S
C2724 C2727 1.403 . S
H2725 C2731 0.930 . S
C2726 H2712 0.930 . S
C2726 C2724 1.395 . S
C2726 C2729 1.403 . S
C2727 C2724 1.403 . S
C2727 C2728 1.524 . S
C2727 C2731 1.400 . S
C2728 H2713 0.960 . S
C2728 H2714 0.960 . S
C2728 H2715 0.960 . S
C2728 C2727 1.524 . S
C2729 C2726 1.403 . S
C2729 C2730 1.392 . S
C2729 C2733 1.495 . S
C2730 C2729 1.392 . S
C2730 C2731 1.385 . S
C2730 C2732 1.478 . S
C2731 H2725 0.930 . S
C2731 C2727 1.400 . S
C2731 C2730 1.385 . S
C2732 C2730 1.478 . S
C2732 C2734 1.381 . S
C2732 C2738 1.383 . S
C2733 C2729 1.495 . S
C2733 H2739 0.959 . S
C2733 H2740 0.961 . S
C2733 H2741 0.960 . S
C2734 C2732 1.381 . S
C2734 C2735 1.394 . S
C2734 H2742 0.930 . S
C2735 C2734 1.394 . S
C2735 C2736 1.383 . S
C2735 H2743 0.929 . S
C2736 C2735 1.383 . S
C2736 C2737 1.377 . S
C2737 H2721 0.930 . S
C2737 C2736 1.377 . S
C2737 C2738 1.379 . S
C2738 H2722 0.931 . S
C2738 C2732 1.383 . S
C2738 C2737 1.379 . S
H2739 C2733 0.959 . S
H2740 C2733 0.961 . S
H2741 C2733 0.960 . S
H2742 C2734 0.930 . S
H2743 C2735 0.929 . S
H2744 C2752 0.929 . S
H2745 C2754 0.930 . S
H2746 C2756 0.930 . S
H2747 C2759 0.929 . S
H2748 C2762 0.930 . S
H2749 C2764 0.960 . S
H2750 C2764 0.960 . S
H2751 C2764 0.960 . S
C2752 H2744 0.929 . S
C2752 C2753 1.377 . S
C2752 C2754 1.384 . S
C2753 C2752 1.377 . S
C2753 C2759 1.390 . S
C2754 H2745 0.930 . S
C2754 C2752 1.384 . S
C2754 C2755 1.372 . S
C2755 C2754 1.372 . S
C2755 C2756 1.400 . S
C2755 C2760 1.490 . S
C2756 H2746 0.930 . S
C2756 C2755 1.400 . S
C2756 C2759 1.386 . S
H2757 C2773 0.930 . S
H2758 C2774 0.931 . S
C2759 H2747 0.929 . S
C2759 C2753 1.390 . S
C2759 C2756 1.386 . S
C2760 C2755 1.490 . S
C2760 C2762 1.395 . S
C2760 C2763 1.403 . S
H2761 C2767 0.930 . S
C2762 H2748 0.930 . S
C2762 C2760 1.395 . S
C2762 C2765 1.403 . S
C2763 C2760 1.403 . S
C2763 C2764 1.524 . S
C2763 C2767 1.400 . S
C2764 H2749 0.960 . S
C2764 H2750 0.960 . S
C2764 H2751 0.960 . S
C2764 C2763 1.524 . S
C2765 C2762 1.403 . S
C2765 C2766 1.392 . S
C2765 C2769 1.495 . S
C2766 C2765 1.392 . S
C2766 C2767 1.385 . S
C2766 C2768 1.478 . S
C2767 H2761 0.930 . S
C2767 C2763 1.400 . S
C2767 C2766 1.385 . S
C2768 C2766 1.478 . S
C2768 C2770 1.381 . S
C2768 C2774 1.383 . S
C2769 C2765 1.495 . S
C2769 H2775 0.959 . S
C2769 H2776 0.961 . S
C2769 H2777 0.960 . S
C2770 C2768 1.381 . S
C2770 C2771 1.394 . S
C2770 H2778 0.930 . S
C2771 C2770 1.394 . S
C2771 C2772 1.383 . S
C2771 H2779 0.929 . S
C2772 C2771 1.383 . S
C2772 C2773 1.377 . S
C2773 H2757 0.930 . S
C2773 C2772 1.377 . S
C2773 C2774 1.379 . S
C2774 H2758 0.931 . S
C2774 C2768 1.383 . S
C2774 C2773 1.379 . S
H2775 C2769 0.959 . S
H2776 C2769 0.961 . S
H2777 C2769 0.960 . S
H2778 C2770 0.930 . S
H2779 C2771 0.929 . S
H2780 C2788 0.929 . S
H2781 C2790 0.930 . S
H2782 C2792 0.930 . S
H2783 C2795 0.929 . S
H2784 C2798 0.930 . S
H2785 C2800 0.960 . S
H2786 C2800 0.960 . S
H2787 C2800 0.960 . S
C2788 H2780 0.929 . S
C2788 C2789 1.377 . S
C2788 C2790 1.384 . S
C2789 C2788 1.377 . S
C2789 C2795 1.390 . S
C2790 H2781 0.930 . S
C2790 C2788 1.384 . S
C2790 C2791 1.372 . S
C2791 C2790 1.372 . S
C2791 C2792 1.400 . S
C2791 C2796 1.490 . S
C2792 H2782 0.930 . S
C2792 C2791 1.400 . S
C2792 C2795 1.386 . S
H2793 C2809 0.930 . S
H2794 C2810 0.931 . S
C2795 H2783 0.929 . S
C2795 C2789 1.390 . S
C2795 C2792 1.386 . S
C2796 C2791 1.490 . S
C2796 C2798 1.395 . S
C2796 C2799 1.403 . S
H2797 C2803 0.930 . S
C2798 H2784 0.930 . S
C2798 C2796 1.395 . S
C2798 C2801 1.403 . S
C2799 C2796 1.403 . S
C2799 C2800 1.524 . S
C2799 C2803 1.400 . S
C2800 H2785 0.960 . S
C2800 H2786 0.960 . S
C2800 H2787 0.960 . S
C2800 C2799 1.524 . S
C2801 C2798 1.403 . S
C2801 C2802 1.392 . S
C2801 C2805 1.495 . S
C2802 C2801 1.392 . S
C2802 C2803 1.385 . S
C2802 C2804 1.478 . S
C2803 H2797 0.930 . S
C2803 C2799 1.400 . S
C2803 C2802 1.385 . S
C2804 C2802 1.478 . S
C2804 C2806 1.381 . S
C2804 C2810 1.383 . S
C2805 C2801 1.495 . S
C2805 H2811 0.959 . S
C2805 H2812 0.961 . S
C2805 H2813 0.960 . S
C2806 C2804 1.381 . S
C2806 C2807 1.394 . S
C2806 H2814 0.930 . S
C2807 C2806 1.394 . S
C2807 C2808 1.383 . S
C2807 H2815 0.929 . S
C2808 C2807 1.383 . S
C2808 C2809 1.377 . S
C2809 H2793 0.930 . S
C2809 C2808 1.377 . S
C2809 C2810 1.379 . S
C2810 H2794 0.931 . S
C2810 C2804 1.383 . S
C2810 C2809 1.379 . S
H2811 C2805 0.959 . S
H2812 C2805 0.961 . S
H2813 C2805 0.960 . S
H2814 C2806 0.930 . S
H2815 C2807 0.929 . S
H2816 C2824 0.929 . S
H2817 C2826 0.930 . S
H2818 C2828 0.930 . S
H2819 C2831 0.929 . S
H2820 C2834 0.930 . S
H2821 C2836 0.960 . S
H2822 C2836 0.960 . S
H2823 C2836 0.960 . S
C2824 H2816 0.929 . S
C2824 C2825 1.377 . S
C2824 C2826 1.384 . S
C2825 C2824 1.377 . S
C2825 C2831 1.390 . S
C2826 H2817 0.930 . S
C2826 C2824 1.384 . S
C2826 C2827 1.372 . S
C2827 C2826 1.372 . S
C2827 C2828 1.400 . S
C2827 C2832 1.490 . S
C2828 H2818 0.930 . S
C2828 C2827 1.400 . S
C2828 C2831 1.386 . S
H2829 C2845 0.930 . S
H2830 C2846 0.931 . S
C2831 H2819 0.929 . S
C2831 C2825 1.390 . S
C2831 C2828 1.386 . S
C2832 C2827 1.490 . S
C2832 C2834 1.395 . S
C2832 C2835 1.403 . S
H2833 C2839 0.930 . S
C2834 H2820 0.930 . S
C2834 C2832 1.395 . S
C2834 C2837 1.403 . S
C2835 C2832 1.403 . S
C2835 C2836 1.524 . S
C2835 C2839 1.400 . S
C2836 H2821 0.960 . S
C2836 H2822 0.960 . S
C2836 H2823 0.960 . S
C2836 C2835 1.524 . S
C2837 C2834 1.403 . S
C2837 C2838 1.392 . S
C2837 C2841 1.495 . S
C2838 C2837 1.392 . S
C2838 C2839 1.385 . S
C2838 C2840 1.478 . S
C2839 H2833 0.930 . S
C2839 C2835 1.400 . S
C2839 C2838 1.385 . S
C2840 C2838 1.478 . S
C2840 C2842 1.381 . S
C2840 C2846 1.383 . S
C2841 C2837 1.495 . S
C2841 H2847 0.959 . S
C2841 H2848 0.961 . S
C2841 H2849 0.960 . S
C2842 C2840 1.381 . S
C2842 C2843 1.394 . S
C2842 H2850 0.930 . S
C2843 C2842 1.394 . S
C2843 C2844 1.383 . S
C2843 H2851 0.929 . S
C2844 C2843 1.383 . S
C2844 C2845 1.377 . S
C2845 H2829 0.930 . S
C2845 C2844 1.377 . S
C2845 C2846 1.379 . S
C2846 H2830 0.931 . S
C2846 C2840 1.383 . S
C2846 C2845 1.379 . S
H2847 C2841 0.959 . S
H2848 C2841 0.961 . S
H2849 C2841 0.960 . S
H2850 C2842 0.930 . S
H2851 C2843 0.929 . S
H2852 C2860 0.929 . S
H2853 C2862 0.930 . S
H2854 C2864 0.930 . S
H2855 C2867 0.929 . S
H2856 C2870 0.930 . S
H2857 C2872 0.960 . S
H2858 C2872 0.960 . S
H2859 C2872 0.960 . S
C2860 H2852 0.929 . S
C2860 C2861 1.377 . S
C2860 C2862 1.384 . S
C2861 C2860 1.377 . S
C2861 C2867 1.390 . S
C2862 H2853 0.930 . S
C2862 C2860 1.384 . S
C2862 C2863 1.372 . S
C2863 C2862 1.372 . S
C2863 C2864 1.400 . S
C2863 C2868 1.490 . S
C2864 H2854 0.930 . S
C2864 C2863 1.400 . S
C2864 C2867 1.386 . S
H2865 C2881 0.930 . S
H2866 C2882 0.931 . S
C2867 H2855 0.929 . S
C2867 C2861 1.390 . S
C2867 C2864 1.386 . S
C2868 C2863 1.490 . S
C2868 C2870 1.395 . S
C2868 C2871 1.403 . S
H2869 C2875 0.930 . S
C2870 H2856 0.930 . S
C2870 C2868 1.395 . S
C2870 C2873 1.403 . S
C2871 C2868 1.403 . S
C2871 C2872 1.524 . S
C2871 C2875 1.400 . S
C2872 H2857 0.960 . S
C2872 H2858 0.960 . S
C2872 H2859 0.960 . S
C2872 C2871 1.524 . S
C2873 C2870 1.403 . S
C2873 C2874 1.392 . S
C2873 C2877 1.495 . S
C2874 C2873 1.392 . S
C2874 C2875 1.385 . S
C2874 C2876 1.478 . S
C2875 H2869 0.930 . S
C2875 C2871 1.400 . S
C2875 C2874 1.385 . S
C2876 C2874 1.478 . S
C2876 C2878 1.381 . S
C2876 C2882 1.383 . S
C2877 C2873 1.495 . S
C2877 H2883 0.959 . S
C2877 H2884 0.961 . S
C2877 H2885 0.960 . S
C2878 C2876 1.381 . S
C2878 C2879 1.394 . S
C2878 H2886 0.930 . S
C2879 C2878 1.394 . S
C2879 C2880 1.383 . S
C2879 H2887 0.929 . S
C2880 C2879 1.383 . S
C2880 C2881 1.377 . S
C2881 H2865 0.930 . S
C2881 C2880 1.377 . S
C2881 C2882 1.379 . S
C2882 H2866 0.931 . S
C2882 C2876 1.383 . S
C2882 C2881 1.379 . S
H2883 C2877 0.959 . S
H2884 C2877 0.961 . S
H2885 C2877 0.960 . S
H2886 C2878 0.930 . S
H2887 C2879 0.929 . S
H2888 C2896 0.929 . S
H2889 C2898 0.930 . S
H2890 C2900 0.930 . S
H2891 C2903 0.929 . S
H2892 C2906 0.930 . S
H2893 C2908 0.960 . S
H2894 C2908 0.960 . S
H2895 C2908 0.960 . S
C2896 H2888 0.929 . S
C2896 C2897 1.377 . S
C2896 C2898 1.384 . S
C2897 C2896 1.377 . S
C2897 C2903 1.390 . S
C2898 H2889 0.930 . S
C2898 C2896 1.384 . S
C2898 C2899 1.372 . S
C2899 C2898 1.372 . S
C2899 C2900 1.400 . S
C2899 C2904 1.490 . S
C2900 H2890 0.930 . S
C2900 C2899 1.400 . S
C2900 C2903 1.386 . S
H2901 C2917 0.930 . S
H2902 C2918 0.931 . S
C2903 H2891 0.929 . S
C2903 C2897 1.390 . S
C2903 C2900 1.386 . S
C2904 C2899 1.490 . S
C2904 C2906 1.395 . S
C2904 C2907 1.403 . S
H2905 C2911 0.930 . S
C2906 H2892 0.930 . S
C2906 C2904 1.395 . S
C2906 C2909 1.403 . S
C2907 C2904 1.403 . S
C2907 C2908 1.524 . S
C2907 C2911 1.400 . S
C2908 H2893 0.960 . S
C2908 H2894 0.960 . S
C2908 H2895 0.960 . S
C2908 C2907 1.524 . S
C2909 C2906 1.403 . S
C2909 C2910 1.392 . S
C2909 C2913 1.495 . S
C2910 C2909 1.392 . S
C2910 C2911 1.385 . S
C2910 C2912 1.478 . S
C2911 H2905 0.930 . S
C2911 C2907 1.400 . S
C2911 C2910 1.385 . S
C2912 C2910 1.478 . S
C2912 C2914 1.381 . S
C2912 C2918 1.383 . S
C2913 C2909 1.495 . S
C2913 H2919 0.959 . S
C2913 H2920 0.961 . S
C2913 H2921 0.960 . S
C2914 C2912 1.381 . S
C2914 C2915 1.394 . S
C2914 H2922 0.930 . S
C2915 C2914 1.394 . S
C2915 C2916 1.383 . S
C2915 H2923 0.929 . S
C2916 C2915 1.383 . S
C2916 C2917 1.377 . S
C2917 H2901 0.930 . S
C2917 C2916 1.377 . S
C2917 C2918 1.379 . S
C2918 H2902 0.931 . S
C2918 C2912 1.383 . S
C2918 C2917 1.379 . S
H2919 C2913 0.959 . S
H2920 C2913 0.961 . S
H2921 C2913 0.960 . S
H2922 C2914 0.930 . S
H2923 C2915 0.929 . S
H2924 C2932 0.929 . S
H2925 C2934 0.930 . S
H2926 C2936 0.930 . S
H2927 C2939 0.929 . S
H2928 C2942 0.930 . S
H2929 C2944 0.960 . S
H2930 C2944 0.960 . S
H2931 C2944 0.960 . S
C2932 H2924 0.929 . S
C2932 C2933 1.377 . S
C2932 C2934 1.384 . S
C2933 C2932 1.377 . S
C2933 C2939 1.390 . S
C2934 H2925 0.930 . S
C2934 C2932 1.384 . S
C2934 C2935 1.372 . S
C2935 C2934 1.372 . S
C2935 C2936 1.400 . S
C2935 C2940 1.490 . S
C2936 H2926 0.930 . S
C2936 C2935 1.400 . S
C2936 C2939 1.386 . S
H2937 C2953 0.930 . S
H2938 C2954 0.931 . S
C2939 H2927 0.929 . S
C2939 C2933 1.390 . S
C2939 C2936 1.386 . S
C2940 C2935 1.490 . S
C2940 C2942 1.395 . S
C2940 C2943 1.403 . S
H2941 C2947 0.930 . S
C2942 H2928 0.930 . S
C2942 C2940 1.395 . S
C2942 C2945 1.403 . S
C2943 C2940 1.403 . S
C2943 C2944 1.524 . S
C2943 C2947 1.400 . S
C2944 H2929 0.960 . S
C2944 H2930 0.960 . S
C2944 H2931 0.960 . S
C2944 C2943 1.524 . S
C2945 C2942 1.403 . S
C2945 C2946 1.392 . S
C2945 C2949 1.495 . S
C2946 C2945 1.392 . S
C2946 C2947 1.385 . S
C2946 C2948 1.478 . S
C2947 H2941 0.930 . S
C2947 C2943 1.400 . S
C2947 C2946 1.385 . S
C2948 C2946 1.478 . S
C2948 C2950 1.381 . S
C2948 C2954 1.383 . S
C2949 C2945 1.495 . S
C2949 H2955 0.959 . S
C2949 H2956 0.961 . S
C2949 H2957 0.960 . S
C2950 C2948 1.381 . S
C2950 C2951 1.394 . S
C2950 H2958 0.930 . S
C2951 C2950 1.394 . S
C2951 C2952 1.383 . S
C2951 H2959 0.929 . S
C2952 C2951 1.383 . S
C2952 C2953 1.377 . S
C2953 H2937 0.930 . S
C2953 C2952 1.377 . S
C2953 C2954 1.379 . S
C2954 H2938 0.931 . S
C2954 C2948 1.383 . S
C2954 C2953 1.379 . S
H2955 C2949 0.959 . S
H2956 C2949 0.961 . S
H2957 C2949 0.960 . S
H2958 C2950 0.930 . S
H2959 C2951 0.929 . S
H2960 C2968 0.929 . S
H2961 C2970 0.930 . S
H2962 C2972 0.930 . S
H2963 C2975 0.929 . S
H2964 C2978 0.930 . S
H2965 C2980 0.960 . S
H2966 C2980 0.960 . S
H2967 C2980 0.960 . S
C2968 H2960 0.929 . S
C2968 C2969 1.377 . S
C2968 C2970 1.384 . S
C2969 C2968 1.377 . S
C2969 C2975 1.390 . S
C2970 H2961 0.930 . S
C2970 C2968 1.384 . S
C2970 C2971 1.372 . S
C2971 C2970 1.372 . S
C2971 C2972 1.400 . S
C2971 C2976 1.490 . S
C2972 H2962 0.930 . S
C2972 C2971 1.400 . S
C2972 C2975 1.386 . S
H2973 C2989 0.930 . S
H2974 C2990 0.931 . S
C2975 H2963 0.929 . S
C2975 C2969 1.390 . S
C2975 C2972 1.386 . S
C2976 C2971 1.490 . S
C2976 C2978 1.395 . S
C2976 C2979 1.403 . S
H2977 C2983 0.930 . S
C2978 H2964 0.930 . S
C2978 C2976 1.395 . S
C2978 C2981 1.403 . S
C2979 C2976 1.403 . S
C2979 C2980 1.524 . S
C2979 C2983 1.400 . S
C2980 H2965 0.960 . S
C2980 H2966 0.960 . S
C2980 H2967 0.960 . S
C2980 C2979 1.524 . S
C2981 C2978 1.403 . S
C2981 C2982 1.392 . S
C2981 C2985 1.495 . S
C2982 C2981 1.392 . S
C2982 C2983 1.385 . S
C2982 C2984 1.478 . S
C2983 H2977 0.930 . S
C2983 C2979 1.400 . S
C2983 C2982 1.385 . S
C2984 C2982 1.478 . S
C2984 C2986 1.381 . S
C2984 C2990 1.383 . S
C2985 C2981 1.495 . S
C2985 H2991 0.959 . S
C2985 H2992 0.961 . S
C2985 H2993 0.960 . S
C2986 C2984 1.381 . S
C2986 C2987 1.394 . S
C2986 H2994 0.930 . S
C2987 C2986 1.394 . S
C2987 C2988 1.383 . S
C2987 H2995 0.929 . S
C2988 C2987 1.383 . S
C2988 C2989 1.377 . S
C2989 H2973 0.930 . S
C2989 C2988 1.377 . S
C2989 C2990 1.379 . S
C2990 H2974 0.931 . S
C2990 C2984 1.383 . S
C2990 C2989 1.379 . S
H2991 C2985 0.959 . S
H2992 C2985 0.961 . S
H2993 C2985 0.960 . S
H2994 C2986 0.930 . S
H2995 C2987 0.929 . S
H2996 C3004 0.929 . S
H2997 C3006 0.930 . S
H2998 C3008 0.930 . S
H2999 C3011 0.929 . S
H3000 C3014 0.930 . S
H3001 C3016 0.960 . S
H3002 C3016 0.960 . S
H3003 C3016 0.960 . S
C3004 H2996 0.929 . S
C3004 C3005 1.377 . S
C3004 C3006 1.384 . S
C3005 C3004 1.377 . S
C3005 C3011 1.390 . S
C3006 H2997 0.930 . S
C3006 C3004 1.384 . S
C3006 C3007 1.372 . S
C3007 C3006 1.372 . S
C3007 C3008 1.400 . S
C3007 C3012 1.490 . S
C3008 H2998 0.930 . S
C3008 C3007 1.400 . S
C3008 C3011 1.386 . S
H3009 C3025 0.930 . S
H3010 C3026 0.931 . S
C3011 H2999 0.929 . S
C3011 C3005 1.390 . S
C3011 C3008 1.386 . S
C3012 C3007 1.490 . S
C3012 C3014 1.395 . S
C3012 C3015 1.403 . S
H3013 C3019 0.930 . S
C3014 H3000 0.930 . S
C3014 C3012 1.395 . S
C3014 C3017 1.403 . S
C3015 C3012 1.403 . S
C3015 C3016 1.524 . S
C3015 C3019 1.400 . S
C3016 H3001 0.960 . S
C3016 H3002 0.960 . S
C3016 H3003 0.960 . S
C3016 C3015 1.524 . S
C3017 C3014 1.403 . S
C3017 C3018 1.392 . S
C3017 C3021 1.495 . S
C3018 C3017 1.392 . S
C3018 C3019 1.385 . S
C3018 C3020 1.478 . S
C3019 H3013 0.930 . S
C3019 C3015 1.400 . S
C3019 C3018 1.385 . S
C3020 C3018 1.478 . S
C3020 C3022 1.381 . S
C3020 C3026 1.383 . S
C3021 C3017 1.495 . S
C3021 H3027 0.959 . S
C3021 H3028 0.961 . S
C3021 H3029 0.960 . S
C3022 C3020 1.381 . S
C3022 C3023 1.394 . S
C3022 H3030 0.930 . S
C3023 C3022 1.394 . S
C3023 C3024 1.383 . S
C3023 H3031 0.929 . S
C3024 C3023 1.383 . S
C3024 C3025 1.377 . S
C3025 H3009 0.930 . S
C3025 C3024 1.377 . S
C3025 C3026 1.379 . S
C3026 H3010 0.931 . S
C3026 C3020 1.383 . S
C3026 C3025 1.379 . S
H3027 C3021 0.959 . S
H3028 C3021 0.961 . S
H3029 C3021 0.960 . S
H3030 C3022 0.930 . S
H3031 C3023 0.929 . S
H3032 C3040 0.929 . S
H3033 C3042 0.930 . S
H3034 C3044 0.930 . S
H3035 C3047 0.929 . S
H3036 C3050 0.930 . S
H3037 C3052 0.960 . S
H3038 C3052 0.960 . S
H3039 C3052 0.960 . S
C3040 H3032 0.929 . S
C3040 C3041 1.377 . S
C3040 C3042 1.384 . S
C3041 C3040 1.377 . S
C3041 C3047 1.390 . S
C3042 H3033 0.930 . S
C3042 C3040 1.384 . S
C3042 C3043 1.372 . S
C3043 C3042 1.372 . S
C3043 C3044 1.400 . S
C3043 C3048 1.490 . S
C3044 H3034 0.930 . S
C3044 C3043 1.400 . S
C3044 C3047 1.386 . S
H3045 C3061 0.930 . S
H3046 C3062 0.931 . S
C3047 H3035 0.929 . S
C3047 C3041 1.390 . S
C3047 C3044 1.386 . S
C3048 C3043 1.490 . S
C3048 C3050 1.395 . S
C3048 C3051 1.403 . S
H3049 C3055 0.930 . S
C3050 H3036 0.930 . S
C3050 C3048 1.395 . S
C3050 C3053 1.403 . S
C3051 C3048 1.403 . S
C3051 C3052 1.524 . S
C3051 C3055 1.400 . S
C3052 H3037 0.960 . S
C3052 H3038 0.960 . S
C3052 H3039 0.960 . S
C3052 C3051 1.524 . S
C3053 C3050 1.403 . S
C3053 C3054 1.392 . S
C3053 C3057 1.495 . S
C3054 C3053 1.392 . S
C3054 C3055 1.385 . S
C3054 C3056 1.478 . S
C3055 H3049 0.930 . S
C3055 C3051 1.400 . S
C3055 C3054 1.385 . S
C3056 C3054 1.478 . S
C3056 C3058 1.381 . S
C3056 C3062 1.383 . S
C3057 C3053 1.495 . S
C3057 H3063 0.959 . S
C3057 H3064 0.961 . S
C3057 H3065 0.960 . S
C3058 C3056 1.381 . S
C3058 C3059 1.394 . S
C3058 H3066 0.930 . S
C3059 C3058 1.394 . S
C3059 C3060 1.383 . S
C3059 H3067 0.929 . S
C3060 C3059 1.383 . S
C3060 C3061 1.377 . S
C3061 H3045 0.930 . S
C3061 C3060 1.377 . S
C3061 C3062 1.379 . S
C3062 H3046 0.931 . S
C3062 C3056 1.383 . S
C3062 C3061 1.379 . S
H3063 C3057 0.959 . S
H3064 C3057 0.961 . S
H3065 C3057 0.960 . S
H3066 C3058 0.930 . S
H3067 C3059 0.929 . S
H3068 C3076 0.929 . S
H3069 C3078 0.930 . S
H3070 C3080 0.930 1_556 S
H3071 C3083 0.929 1_556 S
H3072 C3086 0.930 . S
H3073 C3088 0.960 . S
H3074 C3088 0.960 . S
H3075 C3088 0.960 . S
C3076 H3068 0.929 . S
C3076 C3077 1.377 . S
C3076 C3078 1.384 . S
C3077 C3076 1.377 . S
C3077 C3083 1.390 . S
C3078 H3069 0.930 . S
C3078 C3076 1.384 . S
C3078 C3079 1.372 . S
C3079 C3078 1.372 . S
C3079 C3080 1.400 . S
C3079 C3084 1.490 . S
C3080 H3070 0.930 1_554 S
C3080 C3079 1.400 . S
C3080 C3083 1.386 . S
H3081 C3097 0.930 . S
H3082 C3098 0.951 . S
C3083 H3071 0.929 1_554 S
C3083 C3077 1.390 . S
C3083 C3080 1.386 . S
C3084 C3079 1.490 . S
C3084 C3086 1.395 . S
C3084 C3087 1.403 . S
H3085 C3091 0.930 . S
C3086 H3072 0.930 . S
C3086 C3084 1.395 . S
C3086 C3089 1.403 . S
C3087 C3084 1.403 . S
C3087 C3088 1.524 . S
C3087 C3091 1.400 . S
C3088 H3073 0.960 . S
C3088 H3074 0.960 . S
C3088 H3075 0.960 . S
C3088 C3087 1.524 . S
C3089 C3086 1.403 . S
C3089 C3090 1.392 . S
C3089 C3093 1.495 . S
C3090 C3089 1.392 . S
C3090 C3091 1.385 . S
C3090 C3092 1.478 . S
C3091 H3085 0.930 . S
C3091 C3087 1.400 . S
C3091 C3090 1.385 . S
C3092 C3090 1.478 . S
C3092 C3094 1.381 . S
C3092 C3098 1.359 1_554 S
C3093 C3089 1.495 . S
C3093 H3099 0.959 . S
C3093 H3100 0.961 . S
C3093 H3101 0.960 . S
C3094 C3092 1.381 . S
C3094 C3095 1.394 . S
C3094 H3102 0.930 . S
C3095 C3094 1.394 . S
C3095 C3096 1.383 . S
C3095 H3103 0.929 . S
C3096 C3095 1.383 . S
C3096 C3097 1.377 1_554 S
C3097 H3081 0.930 . S
C3097 C3096 1.377 1_556 S
C3097 C3098 1.384 . S
C3098 H3082 0.951 . S
C3098 C3092 1.359 1_556 S
C3098 C3097 1.384 . S
H3099 C3093 0.959 . S
H3100 C3093 0.961 . S
H3101 C3093 0.960 . S
H3102 C3094 0.930 . S
H3103 C3095 0.929 . S
H3104 C3112 0.929 . S
H3105 C3114 0.930 . S
H3106 C3116 0.930 . S
H3107 C3119 0.929 . S
H3108 C3122 0.930 . S
H3109 C3124 0.960 . S
H3110 C3124 0.960 . S
H3111 C3124 0.960 . S
C3112 H3104 0.929 . S
C3112 C3113 1.377 . S
C3112 C3114 1.384 . S
C3113 C3112 1.377 . S
C3113 C3119 1.390 . S
C3114 H3105 0.930 . S
C3114 C3112 1.384 . S
C3114 C3115 1.372 . S
C3115 C3114 1.372 . S
C3115 C3116 1.400 . S
C3115 C3120 1.490 . S
C3116 H3106 0.930 . S
C3116 C3115 1.400 . S
C3116 C3119 1.386 . S
H3117 C3133 0.930 . S
H3118 C3134 0.931 . S
C3119 H3107 0.929 . S
C3119 C3113 1.390 . S
C3119 C3116 1.386 . S
C3120 C3115 1.490 . S
C3120 C3122 1.395 . S
C3120 C3123 1.403 . S
H3121 C3127 0.930 . S
C3122 H3108 0.930 . S
C3122 C3120 1.395 . S
C3122 C3125 1.403 . S
C3123 C3120 1.403 . S
C3123 C3124 1.524 . S
C3123 C3127 1.400 . S
C3124 H3109 0.960 . S
C3124 H3110 0.960 . S
C3124 H3111 0.960 . S
C3124 C3123 1.524 . S
C3125 C3122 1.403 . S
C3125 C3126 1.392 . S
C3125 C3129 1.495 . S
C3126 C3125 1.392 . S
C3126 C3127 1.385 . S
C3126 C3128 1.478 . S
C3127 H3121 0.930 . S
C3127 C3123 1.400 . S
C3127 C3126 1.385 . S
C3128 C3126 1.478 . S
C3128 C3130 1.381 . S
C3128 C3134 1.383 . S
C3129 C3125 1.495 . S
C3129 H3135 0.959 . S
C3129 H3136 0.961 . S
C3129 H3137 0.960 . S
C3130 C3128 1.381 . S
C3130 C3131 1.394 . S
C3130 H3138 0.930 . S
C3131 C3130 1.394 . S
C3131 C3132 1.383 . S
C3131 H3139 0.929 . S
C3132 C3131 1.383 . S
C3132 C3133 1.377 . S
C3133 H3117 0.930 . S
C3133 C3132 1.377 . S
C3133 C3134 1.379 . S
C3134 H3118 0.931 . S
C3134 C3128 1.383 . S
C3134 C3133 1.379 . S
H3135 C3129 0.959 . S
H3136 C3129 0.961 . S
H3137 C3129 0.960 . S
H3138 C3130 0.930 . S
H3139 C3131 0.929 . S
H3140 C3148 0.929 . S
H3141 C3150 0.930 . S
H3142 C3152 0.930 . S
H3143 C3155 0.929 . S
H3144 C3158 0.930 . S
H3145 C3160 0.960 . S
H3146 C3160 0.960 . S
H3147 C3160 0.960 1_556 S
C3148 H3140 0.929 . S
C3148 C3149 1.377 . S
C3148 C3150 1.384 . S
C3149 C3148 1.377 . S
C3149 C3155 1.390 1_554 S
C3150 H3141 0.930 . S
C3150 C3148 1.384 . S
C3150 C3151 1.372 . S
C3151 C3150 1.372 . S
C3151 C3152 1.400 1_554 S
C3151 C3156 1.490 . S
C3152 H3142 0.930 . S
C3152 C3151 1.400 1_556 S
C3152 C3155 1.386 . S
H3153 C3169 0.883 1_556 S
H3154 C3170 0.931 1_556 S
C3155 H3143 0.929 . S
C3155 C3149 1.390 1_556 S
C3155 C3152 1.386 . S
C3156 C3151 1.490 . S
C3156 C3158 1.395 . S
C3156 C3159 1.403 . S
H3157 C3163 0.930 . S
C3158 H3144 0.930 . S
C3158 C3156 1.395 . S
C3158 C3161 1.403 . S
C3159 C3156 1.403 . S
C3159 C3160 1.524 . S
C3159 C3163 1.400 . S
C3160 H3145 0.960 . S
C3160 H3146 0.960 . S
C3160 H3147 0.960 1_554 S
C3160 C3159 1.524 . S
C3161 C3158 1.403 . S
C3161 C3162 1.392 . S
C3161 C3165 1.495 . S
C3162 C3161 1.392 . S
C3162 C3163 1.385 . S
C3162 C3164 1.478 . S
C3163 H3157 0.930 . S
C3163 C3159 1.400 . S
C3163 C3162 1.385 . S
C3164 C3162 1.478 . S
C3164 C3166 1.381 . S
C3164 C3170 1.383 . S
C3165 C3161 1.495 . S
C3165 H3171 0.959 . S
C3165 H3172 0.961 . S
C3165 H3173 0.960 . S
C3166 C3164 1.381 . S
C3166 C3167 1.394 . S
C3166 H3174 0.930 . S
C3167 C3166 1.394 . S
C3167 C3168 1.383 . S
C3167 H3175 0.929 . S
C3168 C3167 1.383 . S
C3168 C3169 1.377 . S
C3169 H3153 0.883 1_554 S
C3169 C3168 1.377 . S
C3169 C3170 1.379 . S
C3170 H3154 0.931 1_554 S
C3170 C3164 1.383 . S
C3170 C3169 1.379 . S
H3171 C3165 0.959 . S
H3172 C3165 0.961 . S
H3173 C3165 0.960 . S
H3174 C3166 0.930 . S
H3175 C3167 0.929 . S
H3176 C3184 0.929 . S
H3177 C3186 0.930 . S
H3178 C3188 0.930 . S
H3179 C3191 0.929 . S
H3180 C3194 0.930 . S
H3181 C3196 0.960 . S
H3182 C3196 0.960 . S
H3183 C3196 0.960 . S
C3184 H3176 0.929 . S
C3184 C3185 1.377 . S
C3184 C3186 1.384 . S
C3185 C3184 1.377 . S
C3185 C3191 1.390 . S
C3186 H3177 0.930 . S
C3186 C3184 1.384 . S
C3186 C3187 1.372 . S
C3187 C3186 1.372 . S
C3187 C3188 1.400 . S
C3187 C3192 1.490 . S
C3188 H3178 0.930 . S
C3188 C3187 1.400 . S
C3188 C3191 1.386 . S
H3189 C3205 0.930 . S
H3190 C3206 0.931 . S
C3191 H3179 0.929 . S
C3191 C3185 1.390 . S
C3191 C3188 1.386 . S
C3192 C3187 1.490 . S
C3192 C3194 1.395 . S
C3192 C3195 1.403 . S
H3193 C3199 0.930 . S
C3194 H3180 0.930 . S
C3194 C3192 1.395 . S
C3194 C3197 1.403 . S
C3195 C3192 1.403 . S
C3195 C3196 1.524 . S
C3195 C3199 1.400 . S
C3196 H3181 0.960 . S
C3196 H3182 0.960 . S
C3196 H3183 0.960 . S
C3196 C3195 1.524 . S
C3197 C3194 1.403 . S
C3197 C3198 1.392 . S
C3197 C3201 1.495 . S
C3198 C3197 1.392 . S
C3198 C3199 1.385 . S
C3198 C3200 1.478 . S
C3199 H3193 0.930 . S
C3199 C3195 1.400 . S
C3199 C3198 1.385 . S
C3200 C3198 1.478 . S
C3200 C3202 1.381 . S
C3200 C3206 1.383 . S
C3201 C3197 1.495 . S
C3201 H3207 0.959 . S
C3201 H3208 0.961 . S
C3201 H3209 0.960 . S
C3202 C3200 1.381 . S
C3202 C3203 1.394 . S
C3202 H3210 0.930 . S
C3203 C3202 1.394 . S
C3203 C3204 1.383 . S
C3203 H3211 0.929 . S
C3204 C3203 1.383 . S
C3204 C3205 1.377 . S
C3205 H3189 0.930 . S
C3205 C3204 1.377 . S
C3205 C3206 1.379 . S
C3206 H3190 0.931 . S
C3206 C3200 1.383 . S
C3206 C3205 1.379 . S
H3207 C3201 0.959 . S
H3208 C3201 0.961 . S
H3209 C3201 0.960 . S
H3210 C3202 0.930 . S
H3211 C3203 0.929 . S
H3212 C3220 0.929 . S
H3213 C3222 0.930 . S
H3214 C3224 0.930 . S
H3215 C3227 0.929 . S
H3216 C3230 0.930 . S
H3217 C3232 0.960 . S
H3218 C3232 0.960 . S
H3219 C3232 0.960 . S
C3220 H3212 0.929 . S
C3220 C3221 1.377 . S
C3220 C3222 1.384 . S
C3221 C3220 1.377 . S
C3221 C3227 1.390 . S
C3222 H3213 0.930 . S
C3222 C3220 1.384 . S
C3222 C3223 1.372 . S
C3223 C3222 1.372 . S
C3223 C3224 1.400 . S
C3223 C3228 1.490 . S
C3224 H3214 0.930 . S
C3224 C3223 1.400 . S
C3224 C3227 1.386 . S
H3225 C3241 0.930 . S
H3226 C3242 0.931 . S
C3227 H3215 0.929 . S
C3227 C3221 1.390 . S
C3227 C3224 1.386 . S
C3228 C3223 1.490 . S
C3228 C3230 1.395 . S
C3228 C3231 1.403 . S
H3229 C3235 0.930 . S
C3230 H3216 0.930 . S
C3230 C3228 1.395 . S
C3230 C3233 1.403 . S
C3231 C3228 1.403 . S
C3231 C3232 1.524 . S
C3231 C3235 1.400 . S
C3232 H3217 0.960 . S
C3232 H3218 0.960 . S
C3232 H3219 0.960 . S
C3232 C3231 1.524 . S
C3233 C3230 1.403 . S
C3233 C3234 1.392 . S
C3233 C3237 1.495 . S
C3234 C3233 1.392 . S
C3234 C3235 1.385 . S
C3234 C3236 1.478 . S
C3235 H3229 0.930 . S
C3235 C3231 1.400 . S
C3235 C3234 1.385 . S
C3236 C3234 1.478 . S
C3236 C3238 1.381 . S
C3236 C3242 1.383 . S
C3237 C3233 1.495 . S
C3237 H3243 0.959 . S
C3237 H3244 0.961 . S
C3237 H3245 0.960 . S
C3238 C3236 1.381 . S
C3238 C3239 1.394 . S
C3238 H3246 0.930 . S
C3239 C3238 1.394 . S
C3239 C3240 1.383 . S
C3239 H3247 0.929 . S
C3240 C3239 1.383 . S
C3240 C3241 1.377 . S
C3241 H3225 0.930 . S
C3241 C3240 1.377 . S
C3241 C3242 1.379 . S
C3242 H3226 0.931 . S
C3242 C3236 1.383 . S
C3242 C3241 1.379 . S
H3243 C3237 0.959 . S
H3244 C3237 0.961 . S
H3245 C3237 0.960 . S
H3246 C3238 0.930 . S
H3247 C3239 0.929 . S
H3248 C3256 0.929 . S
H3249 C3258 0.930 . S
H3250 C3260 0.930 . S
H3251 C3263 0.929 . S
H3252 C3266 0.930 . S
H3253 C3268 0.960 . S
H3254 C3268 0.960 . S
H3255 C3268 0.960 . S
C3256 H3248 0.929 . S
C3256 C3257 1.377 . S
C3256 C3258 1.384 . S
C3257 C3256 1.377 . S
C3257 C3263 1.390 . S
C3258 H3249 0.930 . S
C3258 C3256 1.384 . S
C3258 C3259 1.372 . S
C3259 C3258 1.372 . S
C3259 C3260 1.400 . S
C3259 C3264 1.490 . S
C3260 H3250 0.930 . S
C3260 C3259 1.400 . S
C3260 C3263 1.386 . S
H3261 C3277 0.930 . S
H3262 C3278 0.931 . S
C3263 H3251 0.929 . S
C3263 C3257 1.390 . S
C3263 C3260 1.386 . S
C3264 C3259 1.490 . S
C3264 C3266 1.395 . S
C3264 C3267 1.403 . S
H3265 C3271 0.930 . S
C3266 H3252 0.930 . S
C3266 C3264 1.395 . S
C3266 C3269 1.403 . S
C3267 C3264 1.403 . S
C3267 C3268 1.524 . S
C3267 C3271 1.400 . S
C3268 H3253 0.960 . S
C3268 H3254 0.960 . S
C3268 H3255 0.960 . S
C3268 C3267 1.524 . S
C3269 C3266 1.403 . S
C3269 C3270 1.392 . S
C3269 C3273 1.495 . S
C3270 C3269 1.392 . S
C3270 C3271 1.385 . S
C3270 C3272 1.478 . S
C3271 H3265 0.930 . S
C3271 C3267 1.400 . S
C3271 C3270 1.385 . S
C3272 C3270 1.478 . S
C3272 C3274 1.381 . S
C3272 C3278 1.383 . S
C3273 C3269 1.495 . S
C3273 H3279 0.959 . S
C3273 H3280 0.961 . S
C3273 H3281 0.960 . S
C3274 C3272 1.381 . S
C3274 C3275 1.394 . S
C3274 H3282 0.930 . S
C3275 C3274 1.394 . S
C3275 C3276 1.383 . S
C3275 H3283 0.929 . S
C3276 C3275 1.383 . S
C3276 C3277 1.377 . S
C3277 H3261 0.930 . S
C3277 C3276 1.377 . S
C3277 C3278 1.379 . S
C3278 H3262 0.931 . S
C3278 C3272 1.383 . S
C3278 C3277 1.379 . S
H3279 C3273 0.959 . S
H3280 C3273 0.961 . S
H3281 C3273 0.960 . S
H3282 C3274 0.930 . S
H3283 C3275 0.929 . S
H3284 C3292 0.929 . S
H3285 C3294 0.930 . S
H3286 C3296 0.930 . S
H3287 C3299 0.929 . S
H3288 C3302 0.930 . S
H3289 C3304 0.960 . S
H3290 C3304 0.960 . S
H3291 C3304 0.960 . S
C3292 H3284 0.929 . S
C3292 C3293 1.377 . S
C3292 C3294 1.384 . S
C3293 C3292 1.377 . S
C3293 C3299 1.390 . S
C3294 H3285 0.930 . S
C3294 C3292 1.384 . S
C3294 C3295 1.372 . S
C3295 C3294 1.372 . S
C3295 C3296 1.400 . S
C3295 C3300 1.490 . S
C3296 H3286 0.930 . S
C3296 C3295 1.400 . S
C3296 C3299 1.386 . S
H3297 C3313 0.930 . S
H3298 C3314 0.931 . S
C3299 H3287 0.929 . S
C3299 C3293 1.390 . S
C3299 C3296 1.386 . S
C3300 C3295 1.490 . S
C3300 C3302 1.395 . S
C3300 C3303 1.403 . S
H3301 C3307 0.930 . S
C3302 H3288 0.930 . S
C3302 C3300 1.395 . S
C3302 C3305 1.403 . S
C3303 C3300 1.403 . S
C3303 C3304 1.524 . S
C3303 C3307 1.400 . S
C3304 H3289 0.960 . S
C3304 H3290 0.960 . S
C3304 H3291 0.960 . S
C3304 C3303 1.524 . S
C3305 C3302 1.403 . S
C3305 C3306 1.392 . S
C3305 C3309 1.495 . S
C3306 C3305 1.392 . S
C3306 C3307 1.385 . S
C3306 C3308 1.478 . S
C3307 H3301 0.930 . S
C3307 C3303 1.400 . S
C3307 C3306 1.385 . S
C3308 C3306 1.478 . S
C3308 C3310 1.381 . S
C3308 C3314 1.383 . S
C3309 C3305 1.495 . S
C3309 H3315 0.959 . S
C3309 H3316 0.961 . S
C3309 H3317 0.960 . S
C3310 C3308 1.381 . S
C3310 C3311 1.394 . S
C3310 H3318 0.930 . S
C3311 C3310 1.394 . S
C3311 C3312 1.383 . S
C3311 H3319 0.929 . S
C3312 C3311 1.383 . S
C3312 C3313 1.377 . S
C3313 H3297 0.930 . S
C3313 C3312 1.377 . S
C3313 C3314 1.379 . S
C3314 H3298 0.931 . S
C3314 C3308 1.383 . S
C3314 C3313 1.379 . S
H3315 C3309 0.959 . S
H3316 C3309 0.961 . S
H3317 C3309 0.960 . S
H3318 C3310 0.930 . S
H3319 C3311 0.929 . S
H3320 C3328 0.929 . S
H3321 C3330 0.930 . S
H3322 C3332 0.930 1_655 S
H3323 C3335 0.874 1_655 S
H3324 C3338 0.930 . S
H3325 C3340 0.960 . S
H3326 C3340 0.960 . S
H3327 C3340 0.960 1_655 S
C3328 H3320 0.929 . S
C3328 C3329 1.377 . S
C3328 C3330 1.384 . S
C3329 C3328 1.377 . S
C3329 C3335 1.435 . S
C3330 H3321 0.930 . S
C3330 C3328 1.384 . S
C3330 C3331 1.372 . S
C3331 C3330 1.372 . S
C3331 C3332 1.400 . S
C3331 C3336 1.490 . S
C3332 H3322 0.930 1_455 S
C3332 C3331 1.400 . S
C3332 C3335 1.398 . S
H3333 C3349 0.977 . S
H3334 C3350 0.939 . S
C3335 H3323 0.874 1_455 S
C3335 C3329 1.435 . S
C3335 C3332 1.398 . S
C3336 C3331 1.490 . S
C3336 C3338 1.395 . S
C3336 C3339 1.403 . S
H3337 C3343 0.930 . S
C3338 H3324 0.930 . S
C3338 C3336 1.395 . S
C3338 C3341 1.403 . S
C3339 C3336 1.403 . S
C3339 C3340 1.524 . S
C3339 C3343 1.400 . S
C3340 H3325 0.960 . S
C3340 H3326 0.960 . S
C3340 H3327 0.960 1_455 S
C3340 C3339 1.524 . S
C3341 C3338 1.403 . S
C3341 C3342 1.392 . S
C3341 C3345 1.495 . S
C3342 C3341 1.392 . S
C3342 C3343 1.385 . S
C3342 C3344 1.478 . S
C3343 H3337 0.930 . S
C3343 C3339 1.400 . S
C3343 C3342 1.385 . S
C3344 C3342 1.478 . S
C3344 C3346 1.381 . S
C3344 C3350 1.376 1_455 S
C3345 C3341 1.495 . S
C3345 H3351 0.959 . S
C3345 H3352 0.961 . S
C3345 H3353 0.960 . S
C3346 C3344 1.381 . S
C3346 C3347 1.394 . S
C3346 H3354 0.930 . S
C3347 C3346 1.394 . S
C3347 C3348 1.383 . S
C3347 H3355 0.929 . S
C3348 C3347 1.383 . S
C3348 C3349 1.323 1_455 S
C3349 H3333 0.977 . S
C3349 C3348 1.323 1_655 S
C3349 C3350 1.387 . S
C3350 H3334 0.939 . S
C3350 C3344 1.376 1_655 S
C3350 C3349 1.387 . S
H3351 C3345 0.959 . S
H3352 C3345 0.961 . S
H3353 C3345 0.960 . S
H3354 C3346 0.930 . S
H3355 C3347 0.929 . S
H3356 C3364 0.929 . S
H3357 C3366 0.930 . S
H3358 C3368 0.930 . S
H3359 C3371 0.929 . S
H3360 C3374 0.930 . S
H3361 C3376 0.960 . S
H3362 C3376 0.960 . S
H3363 C3376 0.960 . S
C3364 H3356 0.929 . S
C3364 C3365 1.377 . S
C3364 C3366 1.384 . S
C3365 C3364 1.377 . S
C3365 C3371 1.390 . S
C3366 H3357 0.930 . S
C3366 C3364 1.384 . S
C3366 C3367 1.372 . S
C3367 C3366 1.372 . S
C3367 C3368 1.400 . S
C3367 C3372 1.490 . S
C3368 H3358 0.930 . S
C3368 C3367 1.400 . S
C3368 C3371 1.386 . S
H3369 C3385 0.930 . S
H3370 C3386 0.931 . S
C3371 H3359 0.929 . S
C3371 C3365 1.390 . S
C3371 C3368 1.386 . S
C3372 C3367 1.490 . S
C3372 C3374 1.395 . S
C3372 C3375 1.403 . S
H3373 C3379 0.930 . S
C3374 H3360 0.930 . S
C3374 C3372 1.395 . S
C3374 C3377 1.403 . S
C3375 C3372 1.403 . S
C3375 C3376 1.524 . S
C3375 C3379 1.400 . S
C3376 H3361 0.960 . S
C3376 H3362 0.960 . S
C3376 H3363 0.960 . S
C3376 C3375 1.524 . S
C3377 C3374 1.403 . S
C3377 C3378 1.392 . S
C3377 C3381 1.495 . S
C3378 C3377 1.392 . S
C3378 C3379 1.385 . S
C3378 C3380 1.478 . S
C3379 H3373 0.930 . S
C3379 C3375 1.400 . S
C3379 C3378 1.385 . S
C3380 C3378 1.478 . S
C3380 C3382 1.381 . S
C3380 C3386 1.383 . S
C3381 C3377 1.495 . S
C3381 H3387 0.959 . S
C3381 H3388 0.961 . S
C3381 H3389 0.960 . S
C3382 C3380 1.381 . S
C3382 C3383 1.394 . S
C3382 H3390 0.930 . S
C3383 C3382 1.394 . S
C3383 C3384 1.383 . S
C3383 H3391 0.929 . S
C3384 C3383 1.383 . S
C3384 C3385 1.377 . S
C3385 H3369 0.930 . S
C3385 C3384 1.377 . S
C3385 C3386 1.379 . S
C3386 H3370 0.931 . S
C3386 C3380 1.383 . S
C3386 C3385 1.379 . S
H3387 C3381 0.959 . S
H3388 C3381 0.961 . S
H3389 C3381 0.960 . S
H3390 C3382 0.930 . S
H3391 C3383 0.929 . S
H3392 C3400 0.929 . S
H3393 C3402 0.930 . S
H3394 C3404 0.930 . S
H3395 C3407 0.929 . S
H3396 C3410 0.930 . S
H3397 C3412 0.960 . S
H3398 C3412 0.960 . S
H3399 C3412 0.960 . S
C3400 H3392 0.929 . S
C3400 C3401 1.377 . S
C3400 C3402 1.384 . S
C3401 C3400 1.377 . S
C3401 C3407 1.390 . S
C3402 H3393 0.930 . S
C3402 C3400 1.384 . S
C3402 C3403 1.372 . S
C3403 C3402 1.372 . S
C3403 C3404 1.400 . S
C3403 C3408 1.490 . S
C3404 H3394 0.930 . S
C3404 C3403 1.400 . S
C3404 C3407 1.386 . S
H3405 C3421 0.930 . S
H3406 C3422 0.931 . S
C3407 H3395 0.929 . S
C3407 C3401 1.390 . S
C3407 C3404 1.386 . S
C3408 C3403 1.490 . S
C3408 C3410 1.395 . S
C3408 C3411 1.403 . S
H3409 C3415 0.930 . S
C3410 H3396 0.930 . S
C3410 C3408 1.395 . S
C3410 C3413 1.403 . S
C3411 C3408 1.403 . S
C3411 C3412 1.524 . S
C3411 C3415 1.400 . S
C3412 H3397 0.960 . S
C3412 H3398 0.960 . S
C3412 H3399 0.960 . S
C3412 C3411 1.524 . S
C3413 C3410 1.403 . S
C3413 C3414 1.392 . S
C3413 C3417 1.495 . S
C3414 C3413 1.392 . S
C3414 C3415 1.385 . S
C3414 C3416 1.478 . S
C3415 H3409 0.930 . S
C3415 C3411 1.400 . S
C3415 C3414 1.385 . S
C3416 C3414 1.478 . S
C3416 C3418 1.381 . S
C3416 C3422 1.383 . S
C3417 C3413 1.495 . S
C3417 H3423 0.959 . S
C3417 H3424 0.961 . S
C3417 H3425 0.960 . S
C3418 C3416 1.381 . S
C3418 C3419 1.394 . S
C3418 H3426 0.930 . S
C3419 C3418 1.394 . S
C3419 C3420 1.383 . S
C3419 H3427 0.929 . S
C3420 C3419 1.383 . S
C3420 C3421 1.377 . S
C3421 H3405 0.930 . S
C3421 C3420 1.377 . S
C3421 C3422 1.379 . S
C3422 H3406 0.931 . S
C3422 C3416 1.383 . S
C3422 C3421 1.379 . S
H3423 C3417 0.959 . S
H3424 C3417 0.961 . S
H3425 C3417 0.960 . S
H3426 C3418 0.930 . S
H3427 C3419 0.929 . S
H3428 C3436 0.929 . S
H3429 C3438 0.930 . S
H3430 C3440 0.930 . S
H3431 C3443 0.929 . S
H3432 C3446 0.930 . S
H3433 C3448 0.960 . S
H3434 C3448 0.960 . S
H3435 C3448 0.960 . S
C3436 H3428 0.929 . S
C3436 C3437 1.377 . S
C3436 C3438 1.384 . S
C3437 C3436 1.377 . S
C3437 C3443 1.390 . S
C3438 H3429 0.930 . S
C3438 C3436 1.384 . S
C3438 C3439 1.372 . S
C3439 C3438 1.372 . S
C3439 C3440 1.400 . S
C3439 C3444 1.490 . S
C3440 H3430 0.930 . S
C3440 C3439 1.400 . S
C3440 C3443 1.386 . S
H3441 C3457 0.930 . S
H3442 C3458 0.931 . S
C3443 H3431 0.929 . S
C3443 C3437 1.390 . S
C3443 C3440 1.386 . S
C3444 C3439 1.490 . S
C3444 C3446 1.395 . S
C3444 C3447 1.403 . S
H3445 C3451 0.930 . S
C3446 H3432 0.930 . S
C3446 C3444 1.395 . S
C3446 C3449 1.403 . S
C3447 C3444 1.403 . S
C3447 C3448 1.524 . S
C3447 C3451 1.400 . S
C3448 H3433 0.960 . S
C3448 H3434 0.960 . S
C3448 H3435 0.960 . S
C3448 C3447 1.524 . S
C3449 C3446 1.403 . S
C3449 C3450 1.392 . S
C3449 C3453 1.495 . S
C3450 C3449 1.392 . S
C3450 C3451 1.385 . S
C3450 C3452 1.478 . S
C3451 H3445 0.930 . S
C3451 C3447 1.400 . S
C3451 C3450 1.385 . S
C3452 C3450 1.478 . S
C3452 C3454 1.381 . S
C3452 C3458 1.383 . S
C3453 C3449 1.495 . S
C3453 H3459 0.959 . S
C3453 H3460 0.961 . S
C3453 H3461 0.960 . S
C3454 C3452 1.381 . S
C3454 C3455 1.394 . S
C3454 H3462 0.930 . S
C3455 C3454 1.394 . S
C3455 C3456 1.383 . S
C3455 H3463 0.929 . S
C3456 C3455 1.383 . S
C3456 C3457 1.377 . S
C3457 H3441 0.930 . S
C3457 C3456 1.377 . S
C3457 C3458 1.379 . S
C3458 H3442 0.931 . S
C3458 C3452 1.383 . S
C3458 C3457 1.379 . S
H3459 C3453 0.959 . S
H3460 C3453 0.961 . S
H3461 C3453 0.960 . S
H3462 C3454 0.930 . S
H3463 C3455 0.929 . S
H3464 C3472 0.929 . S
H3465 C3474 0.930 . S
H3466 C3476 0.930 . S
H3467 C3479 0.929 . S
H3468 C3482 0.930 . S
H3469 C3484 0.960 . S
H3470 C3484 0.960 . S
H3471 C3484 0.960 . S
C3472 H3464 0.929 . S
C3472 C3473 1.377 . S
C3472 C3474 1.384 . S
C3473 C3472 1.377 . S
C3473 C3479 1.390 . S
C3474 H3465 0.930 . S
C3474 C3472 1.384 . S
C3474 C3475 1.372 . S
C3475 C3474 1.372 . S
C3475 C3476 1.400 . S
C3475 C3480 1.490 . S
C3476 H3466 0.930 . S
C3476 C3475 1.400 . S
C3476 C3479 1.386 . S
H3477 C3493 0.930 . S
H3478 C3494 0.931 . S
C3479 H3467 0.929 . S
C3479 C3473 1.390 . S
C3479 C3476 1.386 . S
C3480 C3475 1.490 . S
C3480 C3482 1.395 . S
C3480 C3483 1.403 . S
H3481 C3487 0.930 1_655 S
C3482 H3468 0.930 . S
C3482 C3480 1.395 . S
C3482 C3485 1.403 . S
C3483 C3480 1.403 . S
C3483 C3484 1.524 1_455 S
C3483 C3487 1.400 . S
C3484 H3469 0.960 . S
C3484 H3470 0.960 . S
C3484 H3471 0.960 . S
C3484 C3483 1.524 1_655 S
C3485 C3482 1.403 . S
C3485 C3486 1.392 . S
C3485 C3489 1.495 . S
C3486 C3485 1.392 . S
C3486 C3487 1.385 . S
C3486 C3488 1.478 . S
C3487 H3481 0.930 1_455 S
C3487 C3483 1.400 . S
C3487 C3486 1.385 . S
C3488 C3486 1.478 . S
C3488 C3490 1.381 . S
C3488 C3494 1.383 . S
C3489 C3485 1.495 . S
C3489 H3495 0.959 . S
C3489 H3496 0.961 . S
C3489 H3497 0.960 . S
C3490 C3488 1.381 . S
C3490 C3491 1.394 . S
C3490 H3498 0.930 . S
C3491 C3490 1.394 . S
C3491 C3492 1.383 . S
C3491 H3499 0.929 . S
C3492 C3491 1.383 . S
C3492 C3493 1.377 . S
C3493 H3477 0.930 . S
C3493 C3492 1.377 . S
C3493 C3494 1.379 . S
C3494 H3478 0.931 . S
C3494 C3488 1.383 . S
C3494 C3493 1.379 . S
H3495 C3489 0.959 . S
H3496 C3489 0.961 . S
H3497 C3489 0.960 . S
H3498 C3490 0.930 . S
H3499 C3491 0.929 . S
H3500 C3508 0.929 . S
H3501 C3510 0.930 . S
H3502 C3512 0.930 . S
H3503 C3515 0.929 . S
H3504 C3518 0.930 . S
H3505 C3520 0.960 . S
H3506 C3520 0.960 . S
H3507 C3520 0.960 . S
C3508 H3500 0.929 . S
C3508 C3509 1.377 . S
C3508 C3510 1.384 . S
C3509 C3508 1.377 . S
C3509 C3515 1.390 . S
C3510 H3501 0.930 . S
C3510 C3508 1.384 . S
C3510 C3511 1.372 . S
C3511 C3510 1.372 . S
C3511 C3512 1.400 . S
C3511 C3516 1.490 . S
C3512 H3502 0.930 . S
C3512 C3511 1.400 . S
C3512 C3515 1.386 . S
H3513 C3529 0.930 . S
H3514 C3530 0.931 . S
C3515 H3503 0.929 . S
C3515 C3509 1.390 . S
C3515 C3512 1.386 . S
C3516 C3511 1.490 . S
C3516 C3518 1.395 . S
C3516 C3519 1.403 . S
H3517 C3523 0.930 . S
C3518 H3504 0.930 . S
C3518 C3516 1.395 . S
C3518 C3521 1.403 . S
C3519 C3516 1.403 . S
C3519 C3520 1.524 . S
C3519 C3523 1.400 . S
C3520 H3505 0.960 . S
C3520 H3506 0.960 . S
C3520 H3507 0.960 . S
C3520 C3519 1.524 . S
C3521 C3518 1.403 . S
C3521 C3522 1.392 . S
C3521 C3525 1.495 . S
C3522 C3521 1.392 . S
C3522 C3523 1.385 . S
C3522 C3524 1.478 . S
C3523 H3517 0.930 . S
C3523 C3519 1.400 . S
C3523 C3522 1.385 . S
C3524 C3522 1.478 . S
C3524 C3526 1.381 . S
C3524 C3530 1.383 . S
C3525 C3521 1.495 . S
C3525 H3531 0.959 . S
C3525 H3532 0.961 . S
C3525 H3533 0.960 . S
C3526 C3524 1.381 . S
C3526 C3527 1.394 . S
C3526 H3534 0.930 . S
C3527 C3526 1.394 . S
C3527 C3528 1.383 . S
C3527 H3535 0.929 . S
C3528 C3527 1.383 . S
C3528 C3529 1.377 . S
C3529 H3513 0.930 . S
C3529 C3528 1.377 . S
C3529 C3530 1.379 . S
C3530 H3514 0.931 . S
C3530 C3524 1.383 . S
C3530 C3529 1.379 . S
H3531 C3525 0.959 . S
H3532 C3525 0.961 . S
H3533 C3525 0.960 . S
H3534 C3526 0.930 . S
H3535 C3527 0.929 . S
H3536 C3544 0.929 . S
H3537 C3546 0.930 . S
H3538 C3548 0.930 . S
H3539 C3551 0.929 . S
H3540 C3554 0.930 . S
H3541 C3556 0.960 . S
H3542 C3556 0.960 . S
H3543 C3556 0.960 . S
C3544 H3536 0.929 . S
C3544 C3545 1.377 . S
C3544 C3546 1.384 . S
C3545 C3544 1.377 . S
C3545 C3551 1.390 . S
C3546 H3537 0.930 . S
C3546 C3544 1.384 . S
C3546 C3547 1.372 . S
C3547 C3546 1.372 . S
C3547 C3548 1.400 . S
C3547 C3552 1.490 . S
C3548 H3538 0.930 . S
C3548 C3547 1.400 . S
C3548 C3551 1.386 . S
H3549 C3565 0.930 . S
H3550 C3566 0.931 . S
C3551 H3539 0.929 . S
C3551 C3545 1.390 . S
C3551 C3548 1.386 . S
C3552 C3547 1.490 . S
C3552 C3554 1.395 . S
C3552 C3555 1.403 . S
H3553 C3559 0.930 . S
C3554 H3540 0.930 . S
C3554 C3552 1.395 . S
C3554 C3557 1.403 . S
C3555 C3552 1.403 . S
C3555 C3556 1.524 . S
C3555 C3559 1.400 . S
C3556 H3541 0.960 . S
C3556 H3542 0.960 . S
C3556 H3543 0.960 . S
C3556 C3555 1.524 . S
C3557 C3554 1.403 . S
C3557 C3558 1.392 . S
C3557 C3561 1.495 . S
C3558 C3557 1.392 . S
C3558 C3559 1.385 . S
C3558 C3560 1.478 . S
C3559 H3553 0.930 . S
C3559 C3555 1.400 . S
C3559 C3558 1.385 . S
C3560 C3558 1.478 . S
C3560 C3562 1.381 . S
C3560 C3566 1.383 . S
C3561 C3557 1.495 . S
C3561 H3567 0.959 . S
C3561 H3568 0.961 . S
C3561 H3569 0.960 . S
C3562 C3560 1.381 . S
C3562 C3563 1.394 . S
C3562 H3570 0.930 . S
C3563 C3562 1.394 . S
C3563 C3564 1.383 . S
C3563 H3571 0.929 . S
C3564 C3563 1.383 . S
C3564 C3565 1.377 . S
C3565 H3549 0.930 . S
C3565 C3564 1.377 . S
C3565 C3566 1.379 . S
C3566 H3550 0.931 . S
C3566 C3560 1.383 . S
C3566 C3565 1.379 . S
H3567 C3561 0.959 . S
H3568 C3561 0.961 . S
H3569 C3561 0.960 . S
H3570 C3562 0.930 . S
H3571 C3563 0.929 . S
H3572 C3580 0.929 . S
H3573 C3582 0.930 . S
H3574 C3584 0.930 . S
H3575 C3587 0.929 . S
H3576 C3590 0.930 . S
H3577 C3592 0.960 . S
H3578 C3592 0.960 . S
H3579 C3592 0.960 . S
C3580 H3572 0.929 . S
C3580 C3581 1.377 . S
C3580 C3582 1.384 . S
C3581 C3580 1.377 . S
C3581 C3587 1.390 . S
C3582 H3573 0.930 . S
C3582 C3580 1.384 . S
C3582 C3583 1.372 . S
C3583 C3582 1.372 . S
C3583 C3584 1.400 . S
C3583 C3588 1.490 . S
C3584 H3574 0.930 . S
C3584 C3583 1.400 . S
C3584 C3587 1.386 . S
H3585 C3601 0.930 . S
H3586 C3602 0.931 . S
C3587 H3575 0.929 . S
C3587 C3581 1.390 . S
C3587 C3584 1.386 . S
C3588 C3583 1.490 . S
C3588 C3590 1.395 . S
C3588 C3591 1.403 . S
H3589 C3595 0.930 . S
C3590 H3576 0.930 . S
C3590 C3588 1.395 . S
C3590 C3593 1.403 . S
C3591 C3588 1.403 . S
C3591 C3592 1.524 . S
C3591 C3595 1.400 . S
C3592 H3577 0.960 . S
C3592 H3578 0.960 . S
C3592 H3579 0.960 . S
C3592 C3591 1.524 . S
C3593 C3590 1.403 . S
C3593 C3594 1.392 . S
C3593 C3597 1.495 . S
C3594 C3593 1.392 . S
C3594 C3595 1.385 . S
C3594 C3596 1.478 . S
C3595 H3589 0.930 . S
C3595 C3591 1.400 . S
C3595 C3594 1.385 . S
C3596 C3594 1.478 . S
C3596 C3598 1.381 . S
C3596 C3602 1.383 . S
C3597 C3593 1.495 . S
C3597 H3603 0.959 . S
C3597 H3604 0.961 . S
C3597 H3605 0.960 . S
C3598 C3596 1.381 . S
C3598 C3599 1.394 . S
C3598 H3606 0.930 . S
C3599 C3598 1.394 . S
C3599 C3600 1.383 . S
C3599 H3607 0.929 . S
C3600 C3599 1.383 . S
C3600 C3601 1.377 . S
C3601 H3585 0.930 . S
C3601 C3600 1.377 . S
C3601 C3602 1.379 . S
C3602 H3586 0.931 . S
C3602 C3596 1.383 . S
C3602 C3601 1.379 . S
H3603 C3597 0.959 . S
H3604 C3597 0.961 . S
H3605 C3597 0.960 . S
H3606 C3598 0.930 . S
H3607 C3599 0.929 . S
H3608 C3616 0.929 . S
H3609 C3618 0.930 . S
H3610 C3620 0.930 . S
H3611 C3623 0.929 . S
H3612 C3626 0.930 . S
H3613 C3628 0.960 . S
H3614 C3628 0.960 . S
H3615 C3628 0.960 . S
C3616 H3608 0.929 . S
C3616 C3617 1.377 . S
C3616 C3618 1.384 . S
C3617 C3616 1.377 . S
C3617 C3623 1.390 . S
C3618 H3609 0.930 . S
C3618 C3616 1.384 . S
C3618 C3619 1.372 . S
C3619 C3618 1.372 . S
C3619 C3620 1.400 . S
C3619 C3624 1.490 . S
C3620 H3610 0.930 . S
C3620 C3619 1.400 . S
C3620 C3623 1.386 . S
H3621 C3637 0.930 . S
H3622 C3638 0.931 . S
C3623 H3611 0.929 . S
C3623 C3617 1.390 . S
C3623 C3620 1.386 . S
C3624 C3619 1.490 . S
C3624 C3626 1.395 . S
C3624 C3627 1.403 . S
H3625 C3631 0.930 . S
C3626 H3612 0.930 . S
C3626 C3624 1.395 . S
C3626 C3629 1.403 . S
C3627 C3624 1.403 . S
C3627 C3628 1.524 . S
C3627 C3631 1.400 . S
C3628 H3613 0.960 . S
C3628 H3614 0.960 . S
C3628 H3615 0.960 . S
C3628 C3627 1.524 . S
C3629 C3626 1.403 . S
C3629 C3630 1.392 . S
C3629 C3633 1.495 . S
C3630 C3629 1.392 . S
C3630 C3631 1.385 . S
C3630 C3632 1.478 . S
C3631 H3625 0.930 . S
C3631 C3627 1.400 . S
C3631 C3630 1.385 . S
C3632 C3630 1.478 . S
C3632 C3634 1.381 . S
C3632 C3638 1.383 . S
C3633 C3629 1.495 . S
C3633 H3639 0.959 . S
C3633 H3640 0.961 . S
C3633 H3641 0.960 . S
C3634 C3632 1.381 . S
C3634 C3635 1.394 1_655 S
C3634 H3642 0.930 1_655 S
C3635 C3634 1.394 1_455 S
C3635 C3636 1.383 1_455 S
C3635 H3643 0.929 . S
C3636 C3635 1.383 1_655 S
C3636 C3637 1.377 . S
C3637 H3621 0.930 . S
C3637 C3636 1.377 . S
C3637 C3638 1.379 . S
C3638 H3622 0.931 . S
C3638 C3632 1.383 . S
C3638 C3637 1.379 . S
H3639 C3633 0.959 . S
H3640 C3633 0.961 . S
H3641 C3633 0.960 . S
H3642 C3634 0.930 1_455 S
H3643 C3635 0.929 . S
H3644 C3652 0.929 . S
H3645 C3654 0.930 . S
H3646 C3656 0.930 . S
H3647 C3659 0.929 . S
H3648 C3662 0.930 . S
H3649 C3664 0.960 . S
H3650 C3664 0.960 . S
H3651 C3664 0.960 . S
C3652 H3644 0.929 . S
C3652 C3653 1.377 . S
C3652 C3654 1.384 . S
C3653 C3652 1.377 . S
C3653 C3659 1.390 . S
C3654 H3645 0.930 . S
C3654 C3652 1.384 . S
C3654 C3655 1.372 . S
C3655 C3654 1.372 . S
C3655 C3656 1.400 . S
C3655 C3660 1.490 . S
C3656 H3646 0.930 . S
C3656 C3655 1.400 . S
C3656 C3659 1.386 . S
H3657 C3673 0.930 . S
H3658 C3674 0.931 . S
C3659 H3647 0.929 . S
C3659 C3653 1.390 . S
C3659 C3656 1.386 . S
C3660 C3655 1.490 . S
C3660 C3662 1.395 . S
C3660 C3663 1.403 . S
H3661 C3667 0.930 . S
C3662 H3648 0.930 . S
C3662 C3660 1.395 . S
C3662 C3665 1.403 . S
C3663 C3660 1.403 . S
C3663 C3664 1.524 . S
C3663 C3667 1.400 . S
C3664 H3649 0.960 . S
C3664 H3650 0.960 . S
C3664 H3651 0.960 . S
C3664 C3663 1.524 . S
C3665 C3662 1.403 . S
C3665 C3666 1.392 . S
C3665 C3669 1.495 . S
C3666 C3665 1.392 . S
C3666 C3667 1.385 . S
C3666 C3668 1.478 . S
C3667 H3661 0.930 . S
C3667 C3663 1.400 . S
C3667 C3666 1.385 . S
C3668 C3666 1.478 . S
C3668 C3670 1.381 . S
C3668 C3674 1.383 . S
C3669 C3665 1.495 . S
C3669 H3675 0.959 . S
C3669 H3676 0.961 . S
C3669 H3677 0.960 . S
C3670 C3668 1.381 . S
C3670 C3671 1.394 . S
C3670 H3678 0.930 . S
C3671 C3670 1.394 . S
C3671 C3672 1.383 . S
C3671 H3679 0.929 . S
C3672 C3671 1.383 . S
C3672 C3673 1.377 . S
C3673 H3657 0.930 . S
C3673 C3672 1.377 . S
C3673 C3674 1.379 . S
C3674 H3658 0.931 . S
C3674 C3668 1.383 . S
C3674 C3673 1.379 . S
H3675 C3669 0.959 . S
H3676 C3669 0.961 . S
H3677 C3669 0.960 . S
H3678 C3670 0.930 . S
H3679 C3671 0.929 . S
H3680 C3688 0.929 . S
H3681 C3690 0.930 . S
H3682 C3692 0.930 . S
H3683 C3695 0.929 . S
H3684 C3698 0.930 . S
H3685 C3700 0.960 . S
H3686 C3700 0.960 . S
H3687 C3700 0.960 . S
C3688 H3680 0.929 . S
C3688 C3689 1.377 . S
C3688 C3690 1.384 . S
C3689 C3688 1.377 . S
C3689 C3695 1.390 . S
C3690 H3681 0.930 . S
C3690 C3688 1.384 . S
C3690 C3691 1.372 . S
C3691 C3690 1.372 . S
C3691 C3692 1.400 . S
C3691 C3696 1.490 . S
C3692 H3682 0.930 . S
C3692 C3691 1.400 . S
C3692 C3695 1.386 . S
H3693 C3709 0.930 . S
H3694 C3710 0.931 . S
C3695 H3683 0.929 . S
C3695 C3689 1.390 . S
C3695 C3692 1.386 . S
C3696 C3691 1.490 . S
C3696 C3698 1.395 . S
C3696 C3699 1.403 . S
H3697 C3703 0.930 . S
C3698 H3684 0.930 . S
C3698 C3696 1.395 . S
C3698 C3701 1.403 . S
C3699 C3696 1.403 . S
C3699 C3700 1.524 . S
C3699 C3703 1.400 . S
C3700 H3685 0.960 . S
C3700 H3686 0.960 . S
C3700 H3687 0.960 . S
C3700 C3699 1.524 . S
C3701 C3698 1.403 . S
C3701 C3702 1.392 . S
C3701 C3705 1.495 . S
C3702 C3701 1.392 . S
C3702 C3703 1.385 . S
C3702 C3704 1.478 . S
C3703 H3697 0.930 . S
C3703 C3699 1.400 . S
C3703 C3702 1.385 . S
C3704 C3702 1.478 . S
C3704 C3706 1.381 . S
C3704 C3710 1.383 . S
C3705 C3701 1.495 . S
C3705 H3711 0.959 . S
C3705 H3712 0.961 . S
C3705 H3713 0.960 . S
C3706 C3704 1.381 . S
C3706 C3707 1.394 . S
C3706 H3714 0.930 . S
C3707 C3706 1.394 . S
C3707 C3708 1.383 . S
C3707 H3715 0.929 . S
C3708 C3707 1.383 . S
C3708 C3709 1.377 . S
C3709 H3693 0.930 . S
C3709 C3708 1.377 . S
C3709 C3710 1.379 . S
C3710 H3694 0.931 . S
C3710 C3704 1.383 . S
C3710 C3709 1.379 . S
H3711 C3705 0.959 . S
H3712 C3705 0.961 . S
H3713 C3705 0.960 . S
H3714 C3706 0.930 . S
H3715 C3707 0.929 . S
H3716 C3724 0.929 . S
H3717 C3726 0.930 . S
H3718 C3728 0.930 . S
H3719 C3731 0.929 . S
H3720 C3734 0.930 . S
H3721 C3736 0.960 . S
H3722 C3736 0.960 . S
H3723 C3736 0.960 . S
C3724 H3716 0.929 . S
C3724 C3725 1.377 . S
C3724 C3726 1.384 . S
C3725 C3724 1.377 . S
C3725 C3731 1.390 . S
C3726 H3717 0.930 . S
C3726 C3724 1.384 . S
C3726 C3727 1.372 . S
C3727 C3726 1.372 . S
C3727 C3728 1.400 . S
C3727 C3732 1.490 . S
C3728 H3718 0.930 . S
C3728 C3727 1.400 . S
C3728 C3731 1.386 . S
H3729 C3745 0.930 . S
H3730 C3746 0.931 . S
C3731 H3719 0.929 . S
C3731 C3725 1.390 . S
C3731 C3728 1.386 . S
C3732 C3727 1.490 . S
C3732 C3734 1.395 . S
C3732 C3735 1.403 . S
H3733 C3739 0.930 . S
C3734 H3720 0.930 . S
C3734 C3732 1.395 . S
C3734 C3737 1.403 . S
C3735 C3732 1.403 . S
C3735 C3736 1.524 . S
C3735 C3739 1.400 . S
C3736 H3721 0.960 . S
C3736 H3722 0.960 . S
C3736 H3723 0.960 . S
C3736 C3735 1.524 . S
C3737 C3734 1.403 . S
C3737 C3738 1.392 . S
C3737 C3741 1.495 . S
C3738 C3737 1.392 . S
C3738 C3739 1.385 . S
C3738 C3740 1.478 . S
C3739 H3733 0.930 . S
C3739 C3735 1.400 . S
C3739 C3738 1.385 . S
C3740 C3738 1.478 . S
C3740 C3742 1.381 . S
C3740 C3746 1.383 . S
C3741 C3737 1.495 . S
C3741 H3747 0.959 . S
C3741 H3748 0.961 . S
C3741 H3749 0.960 . S
C3742 C3740 1.381 . S
C3742 C3743 1.394 . S
C3742 H3750 0.930 . S
C3743 C3742 1.394 . S
C3743 C3744 1.383 . S
C3743 H3751 0.929 . S
C3744 C3743 1.383 . S
C3744 C3745 1.377 . S
C3745 H3729 0.930 . S
C3745 C3744 1.377 . S
C3745 C3746 1.379 . S
C3746 H3730 0.931 . S
C3746 C3740 1.383 . S
C3746 C3745 1.379 . S
H3747 C3741 0.959 . S
H3748 C3741 0.961 . S
H3749 C3741 0.960 . S
H3750 C3742 0.930 . S
H3751 C3743 0.929 . S
H3752 C3760 0.929 . S
H3753 C3762 0.930 . S
H3754 C3764 0.930 . S
H3755 C3767 0.929 . S
H3756 C3770 0.930 . S
H3757 C3772 0.960 . S
H3758 C3772 0.960 . S
H3759 C3772 0.960 . S
C3760 H3752 0.929 . S
C3760 C3761 1.377 . S
C3760 C3762 1.384 . S
C3761 C3760 1.377 . S
C3761 C3767 1.390 . S
C3762 H3753 0.930 . S
C3762 C3760 1.384 . S
C3762 C3763 1.372 . S
C3763 C3762 1.372 . S
C3763 C3764 1.400 . S
C3763 C3768 1.490 . S
C3764 H3754 0.930 . S
C3764 C3763 1.400 . S
C3764 C3767 1.386 . S
H3765 C3781 0.877 1_455 S
H3766 C3782 0.931 . S
C3767 H3755 0.929 . S
C3767 C3761 1.390 . S
C3767 C3764 1.386 . S
C3768 C3763 1.490 . S
C3768 C3770 1.395 . S
C3768 C3771 1.403 . S
H3769 C3775 0.930 . S
C3770 H3756 0.930 . S
C3770 C3768 1.395 . S
C3770 C3773 1.403 . S
C3771 C3768 1.403 . S
C3771 C3772 1.524 . S
C3771 C3775 1.400 . S
C3772 H3757 0.960 . S
C3772 H3758 0.960 . S
C3772 H3759 0.960 . S
C3772 C3771 1.524 . S
C3773 C3770 1.403 . S
C3773 C3774 1.392 . S
C3773 C3777 1.495 . S
C3774 C3773 1.392 . S
C3774 C3775 1.385 . S
C3774 C3776 1.478 . S
C3775 H3769 0.930 . S
C3775 C3771 1.400 . S
C3775 C3774 1.385 . S
C3776 C3774 1.478 . S
C3776 C3778 1.381 . S
C3776 C3782 1.383 . S
C3777 C3773 1.495 . S
C3777 H3783 0.959 . S
C3777 H3784 0.961 . S
C3777 H3785 0.960 . S
C3778 C3776 1.381 . S
C3778 C3779 1.394 . S
C3778 H3786 0.930 . S
C3779 C3778 1.394 . S
C3779 C3780 1.383 . S
C3779 H3787 0.929 . S
C3780 C3779 1.383 . S
C3780 C3781 1.377 . S
C3781 H3765 0.877 1_655 S
C3781 C3780 1.377 . S
C3781 C3782 1.379 . S
C3782 H3766 0.931 . S
C3782 C3776 1.383 . S
C3782 C3781 1.379 . S
H3783 C3777 0.959 . S
H3784 C3777 0.961 . S
H3785 C3777 0.960 . S
H3786 C3778 0.930 . S
H3787 C3779 0.929 . S
H3788 C3796 0.929 . S
H3789 C3798 0.930 . S
H3790 C3800 0.930 . S
H3791 C3803 0.929 . S
H3792 C3806 0.930 . S
H3793 C3808 0.960 . S
H3794 C3808 0.960 . S
H3795 C3808 0.960 . S
C3796 H3788 0.929 . S
C3796 C3797 1.377 . S
C3796 C3798 1.384 . S
C3797 C3796 1.377 . S
C3797 C3803 1.390 . S
C3798 H3789 0.930 . S
C3798 C3796 1.384 . S
C3798 C3799 1.372 . S
C3799 C3798 1.372 . S
C3799 C3800 1.400 . S
C3799 C3804 1.490 . S
C3800 H3790 0.930 . S
C3800 C3799 1.400 . S
C3800 C3803 1.386 . S
H3801 C3817 0.930 . S
H3802 C3818 0.931 . S
C3803 H3791 0.929 . S
C3803 C3797 1.390 . S
C3803 C3800 1.386 . S
C3804 C3799 1.490 . S
C3804 C3806 1.395 . S
C3804 C3807 1.403 . S
H3805 C3811 0.930 . S
C3806 H3792 0.930 . S
C3806 C3804 1.395 . S
C3806 C3809 1.403 . S
C3807 C3804 1.403 . S
C3807 C3808 1.524 . S
C3807 C3811 1.400 . S
C3808 H3793 0.960 . S
C3808 H3794 0.960 . S
C3808 H3795 0.960 . S
C3808 C3807 1.524 . S
C3809 C3806 1.403 . S
C3809 C3810 1.392 . S
C3809 C3813 1.495 . S
C3810 C3809 1.392 . S
C3810 C3811 1.385 . S
C3810 C3812 1.478 . S
C3811 H3805 0.930 . S
C3811 C3807 1.400 . S
C3811 C3810 1.385 . S
C3812 C3810 1.478 . S
C3812 C3814 1.381 . S
C3812 C3818 1.383 . S
C3813 C3809 1.495 . S
C3813 H3819 0.959 . S
C3813 H3820 0.961 . S
C3813 H3821 0.960 . S
C3814 C3812 1.381 . S
C3814 C3815 1.394 . S
C3814 H3822 0.930 . S
C3815 C3814 1.394 . S
C3815 C3816 1.383 . S
C3815 H3823 0.929 . S
C3816 C3815 1.383 . S
C3816 C3817 1.377 . S
C3817 H3801 0.930 . S
C3817 C3816 1.377 . S
C3817 C3818 1.379 . S
C3818 H3802 0.931 . S
C3818 C3812 1.383 . S
C3818 C3817 1.379 . S
H3819 C3813 0.959 . S
H3820 C3813 0.961 . S
H3821 C3813 0.960 . S
H3822 C3814 0.930 . S
H3823 C3815 0.929 . S
H3824 C3832 0.929 . S
H3825 C3834 0.930 . S
H3826 C3836 0.930 . S
H3827 C3839 0.929 . S
H3828 C3842 0.930 . S
H3829 C3844 0.960 . S
H3830 C3844 0.960 . S
H3831 C3844 0.960 . S
C3832 H3824 0.929 . S
C3832 C3833 1.377 . S
C3832 C3834 1.384 . S
C3833 C3832 1.377 . S
C3833 C3839 1.390 . S
C3834 H3825 0.930 . S
C3834 C3832 1.384 . S
C3834 C3835 1.372 . S
C3835 C3834 1.372 . S
C3835 C3836 1.400 . S
C3835 C3840 1.490 . S
C3836 H3826 0.930 . S
C3836 C3835 1.400 . S
C3836 C3839 1.386 . S
H3837 C3853 0.930 . S
H3838 C3854 0.931 . S
C3839 H3827 0.929 . S
C3839 C3833 1.390 . S
C3839 C3836 1.386 . S
C3840 C3835 1.490 . S
C3840 C3842 1.395 . S
C3840 C3843 1.403 . S
H3841 C3847 0.930 . S
C3842 H3828 0.930 . S
C3842 C3840 1.395 . S
C3842 C3845 1.403 . S
C3843 C3840 1.403 . S
C3843 C3844 1.524 . S
C3843 C3847 1.400 . S
C3844 H3829 0.960 . S
C3844 H3830 0.960 . S
C3844 H3831 0.960 . S
C3844 C3843 1.524 . S
C3845 C3842 1.403 . S
C3845 C3846 1.392 . S
C3845 C3849 1.495 . S
C3846 C3845 1.392 . S
C3846 C3847 1.385 . S
C3846 C3848 1.478 . S
C3847 H3841 0.930 . S
C3847 C3843 1.400 . S
C3847 C3846 1.385 . S
C3848 C3846 1.478 . S
C3848 C3850 1.381 . S
C3848 C3854 1.383 . S
C3849 C3845 1.495 . S
C3849 H3855 0.959 . S
C3849 H3856 0.961 . S
C3849 H3857 0.960 . S
C3850 C3848 1.381 . S
C3850 C3851 1.394 . S
C3850 H3858 0.930 . S
C3851 C3850 1.394 . S
C3851 C3852 1.383 . S
C3851 H3859 0.929 . S
C3852 C3851 1.383 . S
C3852 C3853 1.377 . S
C3853 H3837 0.930 . S
C3853 C3852 1.377 . S
C3853 C3854 1.379 . S
C3854 H3838 0.931 . S
C3854 C3848 1.383 . S
C3854 C3853 1.379 . S
H3855 C3849 0.959 . S
H3856 C3849 0.961 . S
H3857 C3849 0.960 . S
H3858 C3850 0.930 . S
H3859 C3851 0.929 . S
H3860 C3868 0.929 . S
H3861 C3870 0.930 . S
H3862 C3872 0.930 . S
H3863 C3875 0.929 . S
H3864 C3878 0.930 . S
H3865 C3880 0.960 . S
H3866 C3880 0.960 . S
H3867 C3880 0.960 . S
C3868 H3860 0.929 . S
C3868 C3869 1.377 . S
C3868 C3870 1.384 . S
C3869 C3868 1.377 . S
C3869 C3875 1.390 . S
C3870 H3861 0.930 . S
C3870 C3868 1.384 . S
C3870 C3871 1.372 . S
C3871 C3870 1.372 . S
C3871 C3872 1.400 . S
C3871 C3876 1.490 . S
C3872 H3862 0.930 . S
C3872 C3871 1.400 . S
C3872 C3875 1.386 . S
H3873 C3889 0.930 . S
H3874 C3890 0.931 . S
C3875 H3863 0.929 . S
C3875 C3869 1.390 . S
C3875 C3872 1.386 . S
C3876 C3871 1.490 . S
C3876 C3878 1.395 . S
C3876 C3879 1.403 . S
H3877 C3883 0.930 . S
C3878 H3864 0.930 . S
C3878 C3876 1.395 . S
C3878 C3881 1.403 . S
C3879 C3876 1.403 . S
C3879 C3880 1.524 . S
C3879 C3883 1.400 . S
C3880 H3865 0.960 . S
C3880 H3866 0.960 . S
C3880 H3867 0.960 . S
C3880 C3879 1.524 . S
C3881 C3878 1.403 . S
C3881 C3882 1.392 . S
C3881 C3885 1.495 . S
C3882 C3881 1.392 . S
C3882 C3883 1.385 . S
C3882 C3884 1.478 . S
C3883 H3877 0.930 . S
C3883 C3879 1.400 . S
C3883 C3882 1.385 . S
C3884 C3882 1.478 . S
C3884 C3886 1.381 . S
C3884 C3890 1.383 . S
C3885 C3881 1.495 . S
C3885 H3891 0.959 . S
C3885 H3892 0.961 . S
C3885 H3893 0.960 . S
C3886 C3884 1.381 . S
C3886 C3887 1.394 . S
C3886 H3894 0.930 . S
C3887 C3886 1.394 . S
C3887 C3888 1.383 . S
C3887 H3895 0.929 . S
C3888 C3887 1.383 . S
C3888 C3889 1.377 . S
C3889 H3873 0.930 . S
C3889 C3888 1.377 . S
C3889 C3890 1.379 . S
C3890 H3874 0.931 . S
C3890 C3884 1.383 . S
C3890 C3889 1.379 . S
H3891 C3885 0.959 . S
H3892 C3885 0.961 . S
H3893 C3885 0.960 . S
H3894 C3886 0.930 . S
H3895 C3887 0.929 . S
H3896 C3904 0.929 . S
H3897 C3906 0.930 . S
H3898 C3908 0.930 . S
H3899 C3911 0.929 . S
H3900 C3914 0.930 . S
H3901 C3916 0.960 . S
H3902 C3916 0.960 . S
H3903 C3916 0.960 . S
C3904 H3896 0.929 . S
C3904 C3905 1.377 . S
C3904 C3906 1.384 . S
C3905 C3904 1.377 . S
C3905 C3911 1.390 . S
C3906 H3897 0.930 . S
C3906 C3904 1.384 . S
C3906 C3907 1.372 . S
C3907 C3906 1.372 . S
C3907 C3908 1.400 . S
C3907 C3912 1.490 . S
C3908 H3898 0.930 . S
C3908 C3907 1.400 . S
C3908 C3911 1.386 . S
H3909 C3925 0.930 . S
H3910 C3926 0.931 . S
C3911 H3899 0.929 . S
C3911 C3905 1.390 . S
C3911 C3908 1.386 . S
C3912 C3907 1.490 . S
C3912 C3914 1.395 . S
C3912 C3915 1.403 . S
H3913 C3919 0.930 . S
C3914 H3900 0.930 . S
C3914 C3912 1.395 . S
C3914 C3917 1.403 . S
C3915 C3912 1.403 . S
C3915 C3916 1.524 . S
C3915 C3919 1.400 . S
C3916 H3901 0.960 . S
C3916 H3902 0.960 . S
C3916 H3903 0.960 . S
C3916 C3915 1.524 . S
C3917 C3914 1.403 . S
C3917 C3918 1.392 . S
C3917 C3921 1.495 . S
C3918 C3917 1.392 . S
C3918 C3919 1.385 . S
C3918 C3920 1.478 . S
C3919 H3913 0.930 . S
C3919 C3915 1.400 . S
C3919 C3918 1.385 . S
C3920 C3918 1.478 . S
C3920 C3922 1.381 . S
C3920 C3926 1.383 . S
C3921 C3917 1.495 . S
C3921 H3927 0.959 . S
C3921 H3928 0.961 . S
C3921 H3929 0.960 . S
C3922 C3920 1.381 . S
C3922 C3923 1.394 . S
C3922 H3930 0.930 . S
C3923 C3922 1.394 . S
C3923 C3924 1.383 . S
C3923 H3931 0.929 . S
C3924 C3923 1.383 . S
C3924 C3925 1.377 . S
C3925 H3909 0.930 . S
C3925 C3924 1.377 . S
C3925 C3926 1.379 . S
C3926 H3910 0.931 . S
C3926 C3920 1.383 . S
C3926 C3925 1.379 . S
H3927 C3921 0.959 . S
H3928 C3921 0.961 . S
H3929 C3921 0.960 . S
H3930 C3922 0.930 . S
H3931 C3923 0.929 . S
H3932 C3940 0.929 . S
H3933 C3942 0.930 . S
H3934 C3944 0.930 1_556 S
H3935 C3947 0.929 1_556 S
H3936 C3950 0.930 . S
H3937 C3952 0.960 . S
H3938 C3952 0.960 . S
H3939 C3952 0.960 . S
C3940 H3932 0.929 . S
C3940 C3941 1.377 . S
C3940 C3942 1.384 . S
C3941 C3940 1.377 . S
C3941 C3947 1.390 . S
C3942 H3933 0.930 . S
C3942 C3940 1.384 . S
C3942 C3943 1.372 . S
C3943 C3942 1.372 . S
C3943 C3944 1.400 . S
C3943 C3948 1.490 . S
C3944 H3934 0.930 1_554 S
C3944 C3943 1.400 . S
C3944 C3947 1.386 . S
H3945 C3961 0.930 1_556 S
H3946 C3962 0.931 1_556 S
C3947 H3935 0.929 1_554 S
C3947 C3941 1.390 . S
C3947 C3944 1.386 . S
C3948 C3943 1.490 . S
C3948 C3950 1.395 . S
C3948 C3951 1.403 . S
H3949 C3955 0.930 . S
C3950 H3936 0.930 . S
C3950 C3948 1.395 . S
C3950 C3953 1.403 . S
C3951 C3948 1.403 . S
C3951 C3952 1.524 . S
C3951 C3955 1.400 . S
C3952 H3937 0.960 . S
C3952 H3938 0.960 . S
C3952 H3939 0.960 . S
C3952 C3951 1.524 . S
C3953 C3950 1.403 . S
C3953 C3954 1.392 . S
C3953 C3957 1.495 . S
C3954 C3953 1.392 . S
C3954 C3955 1.385 . S
C3954 C3956 1.478 . S
C3955 H3949 0.930 . S
C3955 C3951 1.400 . S
C3955 C3954 1.385 . S
C3956 C3954 1.478 . S
C3956 C3958 1.381 . S
C3956 C3962 1.383 . S
C3957 C3953 1.495 . S
C3957 H3963 0.959 . S
C3957 H3964 0.961 . S
C3957 H3965 0.960 . S
C3958 C3956 1.381 . S
C3958 C3959 1.394 . S
C3958 H3966 0.930 . S
C3959 C3958 1.394 . S
C3959 C3960 1.383 . S
C3959 H3967 0.929 . S
C3960 C3959 1.383 . S
C3960 C3961 1.377 . S
C3961 H3945 0.930 1_554 S
C3961 C3960 1.377 . S
C3961 C3962 1.379 . S
C3962 H3946 0.931 1_554 S
C3962 C3956 1.383 . S
C3962 C3961 1.379 . S
H3963 C3957 0.959 . S
H3964 C3957 0.961 . S
H3965 C3957 0.960 . S
H3966 C3958 0.930 . S
H3967 C3959 0.929 . S
H3968 C3976 0.929 . S
H3969 C3978 0.930 . S
H3970 C3980 0.930 . S
H3971 C3983 0.929 . S
H3972 C3986 0.930 . S
H3973 C3988 0.960 . S
H3974 C3988 0.960 . S
H3975 C3988 0.960 . S
C3976 H3968 0.929 . S
C3976 C3977 1.377 . S
C3976 C3978 1.384 . S
C3977 C3976 1.377 . S
C3977 C3983 1.390 . S
C3978 H3969 0.930 . S
C3978 C3976 1.384 . S
C3978 C3979 1.372 . S
C3979 C3978 1.372 . S
C3979 C3980 1.400 . S
C3979 C3984 1.490 . S
C3980 H3970 0.930 . S
C3980 C3979 1.400 . S
C3980 C3983 1.386 . S
H3981 C3997 0.930 . S
H3982 C3998 0.931 . S
C3983 H3971 0.929 . S
C3983 C3977 1.390 . S
C3983 C3980 1.386 . S
C3984 C3979 1.490 . S
C3984 C3986 1.395 . S
C3984 C3987 1.403 . S
H3985 C3991 0.930 . S
C3986 H3972 0.930 . S
C3986 C3984 1.395 . S
C3986 C3989 1.403 . S
C3987 C3984 1.403 . S
C3987 C3988 1.524 . S
C3987 C3991 1.400 . S
C3988 H3973 0.960 . S
C3988 H3974 0.960 . S
C3988 H3975 0.960 . S
C3988 C3987 1.524 . S
C3989 C3986 1.403 . S
C3989 C3990 1.392 . S
C3989 C3993 1.495 . S
C3990 C3989 1.392 . S
C3990 C3991 1.385 . S
C3990 C3992 1.478 . S
C3991 H3985 0.930 . S
C3991 C3987 1.400 . S
C3991 C3990 1.385 . S
C3992 C3990 1.478 . S
C3992 C3994 1.381 . S
C3992 C3998 1.383 . S
C3993 C3989 1.495 . S
C3993 H3999 0.959 . S
C3993 H4000 0.961 . S
C3993 H4001 0.960 . S
C3994 C3992 1.381 . S
C3994 C3995 1.394 . S
C3994 H4002 0.930 . S
C3995 C3994 1.394 . S
C3995 C3996 1.383 . S
C3995 H4003 0.929 . S
C3996 C3995 1.383 . S
C3996 C3997 1.377 . S
C3997 H3981 0.930 . S
C3997 C3996 1.377 . S
C3997 C3998 1.379 . S
C3998 H3982 0.931 . S
C3998 C3992 1.383 . S
C3998 C3997 1.379 . S
H3999 C3993 0.959 . S
H4000 C3993 0.961 . S
H4001 C3993 0.960 . S
H4002 C3994 0.930 . S
H4003 C3995 0.929 . S
H4004 C4012 0.929 . S
H4005 C4014 0.930 . S
H4006 C4016 0.930 . S
H4007 C4019 0.929 . S
H4008 C4022 0.930 . S
H4009 C4024 0.960 . S
H4010 C4024 0.960 . S
H4011 C4024 0.955 1_556 S
C4012 H4004 0.929 . S
C4012 C4013 1.377 . S
C4012 C4014 1.384 . S
C4013 C4012 1.377 . S
C4013 C4019 1.390 . S
C4014 H4005 0.930 . S
C4014 C4012 1.384 . S
C4014 C4015 1.372 . S
C4015 C4014 1.372 . S
C4015 C4016 1.400 . S
C4015 C4020 1.490 . S
C4016 H4006 0.930 . S
C4016 C4015 1.400 . S
C4016 C4019 1.386 . S
H4017 C4033 0.930 . S
H4018 C4034 0.931 1_556 S
C4019 H4007 0.929 . S
C4019 C4013 1.390 . S
C4019 C4016 1.386 . S
C4020 C4015 1.490 . S
C4020 C4022 1.395 . S
C4020 C4023 1.403 . S
H4021 C4027 0.930 . S
C4022 H4008 0.930 . S
C4022 C4020 1.395 . S
C4022 C4025 1.403 . S
C4023 C4020 1.403 . S
C4023 C4024 1.524 . S
C4023 C4027 1.400 . S
C4024 H4009 0.960 . S
C4024 H4010 0.960 . S
C4024 H4011 0.955 1_554 S
C4024 C4023 1.524 . S
C4025 C4022 1.403 . S
C4025 C4026 1.392 . S
C4025 C4029 1.495 . S
C4026 C4025 1.392 . S
C4026 C4027 1.385 . S
C4026 C4028 1.478 . S
C4027 H4021 0.930 . S
C4027 C4023 1.400 . S
C4027 C4026 1.385 . S
C4028 C4026 1.478 . S
C4028 C4030 1.381 . S
C4028 C4034 1.383 . S
C4029 C4025 1.495 . S
C4029 H4035 0.959 . S
C4029 H4036 0.961 . S
C4029 H4037 0.960 . S
C4030 C4028 1.381 . S
C4030 C4031 1.394 . S
C4030 H4038 0.930 . S
C4031 C4030 1.394 . S
C4031 C4032 1.383 . S
C4031 H4039 0.929 . S
C4032 C4031 1.383 . S
C4032 C4033 1.377 1_554 S
C4033 H4017 0.930 . S
C4033 C4032 1.377 1_556 S
C4033 C4034 1.379 1_556 S
C4034 H4018 0.931 1_554 S
C4034 C4028 1.383 . S
C4034 C4033 1.379 1_554 S
H4035 C4029 0.959 . S
H4036 C4029 0.961 . S
H4037 C4029 0.960 . S
H4038 C4030 0.930 . S
H4039 C4031 0.929 . S
H4040 C4048 0.929 . S
H4041 C4050 0.930 . S
H4042 C4052 0.930 . S
H4043 C4055 0.929 . S
H4044 C4058 0.930 . S
H4045 C4060 0.960 . S
H4046 C4060 0.960 . S
H4047 C4060 0.960 . S
C4048 H4040 0.929 . S
C4048 C4049 1.377 . S
C4048 C4050 1.384 . S
C4049 C4048 1.377 . S
C4049 C4055 1.390 . S
C4050 H4041 0.930 . S
C4050 C4048 1.384 . S
C4050 C4051 1.372 . S
C4051 C4050 1.372 . S
C4051 C4052 1.400 . S
C4051 C4056 1.490 . S
C4052 H4042 0.930 . S
C4052 C4051 1.400 . S
C4052 C4055 1.386 . S
H4053 C4069 0.930 . S
H4054 C4070 0.931 . S
C4055 H4043 0.929 . S
C4055 C4049 1.390 . S
C4055 C4052 1.386 . S
C4056 C4051 1.490 . S
C4056 C4058 1.395 . S
C4056 C4059 1.403 . S
H4057 C4063 0.930 . S
C4058 H4044 0.930 . S
C4058 C4056 1.395 . S
C4058 C4061 1.403 . S
C4059 C4056 1.403 . S
C4059 C4060 1.524 . S
C4059 C4063 1.400 . S
C4060 H4045 0.960 . S
C4060 H4046 0.960 . S
C4060 H4047 0.960 . S
C4060 C4059 1.524 . S
C4061 C4058 1.403 . S
C4061 C4062 1.392 . S
C4061 C4065 1.495 . S
C4062 C4061 1.392 . S
C4062 C4063 1.385 . S
C4062 C4064 1.478 . S
C4063 H4057 0.930 . S
C4063 C4059 1.400 . S
C4063 C4062 1.385 . S
C4064 C4062 1.478 . S
C4064 C4066 1.381 . S
C4064 C4070 1.383 . S
C4065 C4061 1.495 . S
C4065 H4071 0.959 . S
C4065 H4072 0.961 . S
C4065 H4073 0.960 . S
C4066 C4064 1.381 . S
C4066 C4067 1.394 . S
C4066 H4074 0.930 . S
C4067 C4066 1.394 . S
C4067 C4068 1.383 . S
C4067 H4075 0.929 . S
C4068 C4067 1.383 . S
C4068 C4069 1.377 . S
C4069 H4053 0.930 . S
C4069 C4068 1.377 . S
C4069 C4070 1.379 . S
C4070 H4054 0.931 . S
C4070 C4064 1.383 . S
C4070 C4069 1.379 . S
H4071 C4065 0.959 . S
H4072 C4065 0.961 . S
H4073 C4065 0.960 . S
H4074 C4066 0.930 . S
H4075 C4067 0.929 . S
H4076 C4084 0.929 . S
H4077 C4086 0.930 . S
H4078 C4088 0.930 . S
H4079 C4091 0.929 . S
H4080 C4094 0.930 . S
H4081 C4096 0.960 . S
H4082 C4096 0.960 . S
H4083 C4096 0.960 . S
C4084 H4076 0.929 . S
C4084 C4085 1.377 . S
C4084 C4086 1.384 . S
C4085 C4084 1.377 . S
C4085 C4091 1.390 . S
C4086 H4077 0.930 . S
C4086 C4084 1.384 . S
C4086 C4087 1.372 . S
C4087 C4086 1.372 . S
C4087 C4088 1.400 . S
C4087 C4092 1.490 . S
C4088 H4078 0.930 . S
C4088 C4087 1.400 . S
C4088 C4091 1.386 . S
H4089 C4105 0.930 . S
H4090 C4106 0.931 . S
C4091 H4079 0.929 . S
C4091 C4085 1.390 . S
C4091 C4088 1.386 . S
C4092 C4087 1.490 . S
C4092 C4094 1.395 . S
C4092 C4095 1.403 . S
H4093 C4099 0.930 . S
C4094 H4080 0.930 . S
C4094 C4092 1.395 . S
C4094 C4097 1.403 . S
C4095 C4092 1.403 . S
C4095 C4096 1.524 . S
C4095 C4099 1.400 . S
C4096 H4081 0.960 . S
C4096 H4082 0.960 . S
C4096 H4083 0.960 . S
C4096 C4095 1.524 . S
C4097 C4094 1.403 . S
C4097 C4098 1.392 . S
C4097 C4101 1.495 . S
C4098 C4097 1.392 . S
C4098 C4099 1.385 . S
C4098 C4100 1.478 . S
C4099 H4093 0.930 . S
C4099 C4095 1.400 . S
C4099 C4098 1.385 . S
C4100 C4098 1.478 . S
C4100 C4102 1.381 . S
C4100 C4106 1.383 . S
C4101 C4097 1.495 . S
C4101 H4107 0.959 . S
C4101 H4108 0.961 . S
C4101 H4109 0.960 . S
C4102 C4100 1.381 . S
C4102 C4103 1.394 . S
C4102 H4110 0.930 . S
C4103 C4102 1.394 . S
C4103 C4104 1.383 . S
C4103 H4111 0.929 . S
C4104 C4103 1.383 . S
C4104 C4105 1.377 . S
C4105 H4089 0.930 . S
C4105 C4104 1.377 . S
C4105 C4106 1.379 . S
C4106 H4090 0.931 . S
C4106 C4100 1.383 . S
C4106 C4105 1.379 . S
H4107 C4101 0.959 . S
H4108 C4101 0.961 . S
H4109 C4101 0.960 . S
H4110 C4102 0.930 . S
H4111 C4103 0.929 . S
C665 C105 1.345 . S
C684 C340 1.227 . S
C701 C65 1.477 . S
C720 C375 1.431 . S
C737 C73 0.991 . S
C756 C380 0.888 . S
C792 C405 1.406 . S
C773 C92 1.464 . S
C809 C17 1.525 . S
C828 C425 1.409 . S
C864 C440 0.928 . S
C845 C37 0.976 . S
C900 C475 1.452 . S
C881 C49 1.456 . S
C917 C8 1.302 . S
C936 C480 1.141 . S
C972 C355 1.400 1_655 S
C953 C231 1.449 . S
C989 C241 0.918 . S
C1008 C365 0.844 . S
C1044 C395 1.408 . S
C1025 C273 1.412 1_565 S
C1080 C400 1.063 . S
C1061 C171 1.115 1_556 S
C1097 C227 1.100 . S
C1116 C420 1.015 . S
C1152 C455 1.404 . S
C1133 C245 1.402 . S
C1188 C465 0.928 . S
C1169 C269 0.931 . S
C1224 C495 1.407 . S
C1205 C175 1.444 . S
C1260 C345 1.289 . S
C1241 C162 1.375 . S
C1277 C289 1.756 . S
C1296 C515 1.736 . S
C1332 C525 1.346 . S
C1313 C330 1.483 . S
C1368 C540 0.859 . S
C1349 C317 0.974 . S
C1385 C120 1.324 . S
C1404 C485 1.176 . S
C1421 C134 1.510 . S
C1440 C385 1.376 . S
C1457 C331 1.715 . S
C1476 C575 1.663 . S
C1512 C580 0.866 . S
C1493 C303 0.933 . S
C1548 C338 1.278 . S
C1529 C59 1.382 . S
C1584 C594 1.505 . S
C1565 C107 1.518 . S
C1601 C91 1.017 . S
C1620 C378 0.921 . S
C1637 C78 1.504 . S
C1656 C568 1.449 . S
C1692 C428 1.496 . S
C1673 C7 1.543 . S
C1709 C51 1.012 . S
C1728 C518 0.894 . S
C1764 C474 1.490 1_556 S
C1745 C31 1.541 . S
C1800 C598 1.132 . S
C1781 C22 1.317 . S
C1836 C354 1.454 . S
C1817 C143 1.527 . S
C1872 C588 0.872 . S
C1853 C315 0.939 . S
C1889 C115 1.491 . S
C1908 C394 1.426 . S
C1925 C287 1.133 . S
C1944 C558 1.035 . S
C1961 C147 1.126 . S
C1980 C418 1.102 . S
C2016 C534 1.430 . S
C1997 C311 1.490 . S
C2033 C119 0.959 . S
C2052 C468 0.994 . S
C2069 C283 1.521 . S
C2088 C614 1.486 . S
C2105 C190 1.389 . S
C2124 C348 1.279 . S
C2141 C177 1.798 . S
C2160 C514 1.766 . S
C2177 C260 1.505 . S
C2196 C448 1.418 . S
C2213 C247 1.015 . S
C2232 C538 0.908 . S
C2268 C608 1.208 . S
C2249 C274 1.350 . S
C2285 C218 1.540 . S
C2304 C388 1.482 . S
C2340 C414 1.731 . S
C2321 C261 1.755 . S
C2376 C358 0.933 . S
C2357 C205 0.976 . S
C2393 C77 1.347 . S
C2412 C620 1.263 . S
C2448 C595 1.435 . S
C2429 C93 1.476 . S
C2465 C101 0.992 . S
C2484 C640 0.884 1_556 S
C2501 C64 1.464 . S
C2520 C565 1.412 . S
C2537 C45 1.526 . S
C2556 C505 1.409 . S
C2592 C520 0.925 . S
C2573 C9 0.976 . S
C2628 C555 1.450 . S
C2609 C21 1.459 . S
C2664 C600 1.131 . S
C2645 C36 1.299 . S
C2700 C635 1.418 . S
C2681 C259 1.450 . S
C2717 C185 0.915 . S
C2736 C585 0.936 . S
C2772 C655 1.427 . S
C2753 C203 1.414 . S
C2808 C560 1.084 . S
C2789 C213 1.116 . S
C2844 C500 1.039 . S
C2825 C255 1.101 . S
C2861 C189 1.401 . S
C2880 C535 1.404 . S
C2916 C545 0.850 . S
C2897 C199 0.931 . S
C2933 C217 1.454 . S
C2952 C615 1.445 . S
C2988 C625 1.306 . S
C2969 C316 1.377 . S
C3005 C135 1.759 . S
C3024 C435 1.704 . S
C3060 C445 1.350 . S
C3041 C148 1.482 . S
C3096 C460 0.872 . S
C3077 C163 0.974 . S
C3132 C605 1.189 . S
C3113 C302 1.326 . S
C3149 C288 1.516 . S
C3168 C645 1.446 . S
C3204 C415 1.690 . S
C3185 C149 1.712 . S
C3240 C360 0.941 . S
C3221 C121 0.928 . S
C3257 C87 1.382 . S
C3276 C618 1.276 . S
C3312 C374 1.461 . S
C3293 C79 1.516 . S
C3329 C63 1.008 . S
C3348 C638 0.945 . S
C3365 C106 1.501 . S
C3384 C408 1.390 . S
C3401 C35 1.536 . S
C3420 C508 1.463 . S
C3456 C438 0.893 . S
C3437 C23 1.010 . S
C3473 C3 1.540 . S
C3492 C554 1.518 . S
C3509 C50 1.316 . S
C3528 C478 1.153 . S
C3564 C634 1.438 . S
C3545 C325 1.526 . S
C3581 C161 0.950 . S
C3600 C368 0.929 . S
C3636 C654 1.472 1_655 S
C3617 C297 1.491 . S
C3653 C133 1.129 . S
C3672 C398 1.021 . S
C3689 C329 1.127 . S
C3708 C498 1.080 . S
C3744 C454 1.465 . S
C3725 C157 1.490 . S
C3761 C301 0.955 . S
C3780 C548 0.918 . S
C3816 C494 1.454 . S
C3797 C129 1.519 . S
C3852 C628 1.306 . S
C3833 C246 1.395 . S
C3888 C434 1.761 . S
C3869 C219 1.797 . S
C3905 C232 1.504 . S
C3924 C528 1.401 . S
C3960 C458 0.909 . S
C3941 C191 1.015 . S
C3977 C204 1.349 . S
C3996 C488 1.281 . S
C4013 C176 1.541 . S
C4032 C648 1.468 . S
C4068 C574 1.729 . S
C4049 C233 1.750 . S
C4104 C578 0.953 . S
C4085 C275 0.967 . S
