# Generated by pormake.
# Topology gar, (4,6)-cn, num edge types: 1
# Building blocks:
#     Node 0, Type 0, BuildingBlock: KUFVIS_clean_sbu_0, # of connection points: 4
#     Node 1, Type 0, BuildingBlock: KUFVIS_clean_sbu_0, # of connection points: 4
#     Node 2, Type 0, BuildingBlock: KUFVIS_clean_sbu_0, # of connection points: 4
#     Node 3, Type 0, BuildingBlock: KUFVIS_clean_sbu_0, # of connection points: 4
#     Node 4, Type 0, BuildingBlock: KUFVIS_clean_sbu_0, # of connection points: 4
#     Node 5, Type 0, BuildingBlock: KUFVIS_clean_sbu_0, # of connection points: 4
#     Node 6, Type 0, BuildingBlock: KUFVIS_clean_sbu_0, # of connection points: 4
#     Node 7, Type 0, BuildingBlock: KUFVIS_clean_sbu_0, # of connection points: 4
#     Node 8, Type 0, BuildingBlock: KUFVIS_clean_sbu_0, # of connection points: 4
#     Node 9, Type 0, BuildingBlock: KUFVIS_clean_sbu_0, # of connection points: 4
#     Node 10, Type 0, BuildingBlock: KUFVIS_clean_sbu_0, # of connection points: 4
#     Node 11, Type 0, BuildingBlock: KUFVIS_clean_sbu_0, # of connection points: 4
#     Node 12, Type 0, BuildingBlock: KUFVIS_clean_sbu_0, # of connection points: 4
#     Node 13, Type 0, BuildingBlock: KUFVIS_clean_sbu_0, # of connection points: 4
#     Node 14, Type 0, BuildingBlock: KUFVIS_clean_sbu_0, # of connection points: 4
#     Node 15, Type 0, BuildingBlock: KUFVIS_clean_sbu_0, # of connection points: 4
#     Node 16, Type 0, BuildingBlock: KUFVIS_clean_sbu_0, # of connection points: 4
#     Node 17, Type 0, BuildingBlock: KUFVIS_clean_sbu_0, # of connection points: 4
#     Node 18, Type 0, BuildingBlock: KUFVIS_clean_sbu_0, # of connection points: 4
#     Node 19, Type 0, BuildingBlock: KUFVIS_clean_sbu_0, # of connection points: 4
#     Node 20, Type 0, BuildingBlock: KUFVIS_clean_sbu_0, # of connection points: 4
#     Node 21, Type 0, BuildingBlock: KUFVIS_clean_sbu_0, # of connection points: 4
#     Node 22, Type 0, BuildingBlock: KUFVIS_clean_sbu_0, # of connection points: 4
#     Node 23, Type 0, BuildingBlock: KUFVIS_clean_sbu_0, # of connection points: 4
#     Node 24, Type 1, BuildingBlock: KUMBUR_clean_sbu_0, # of connection points: 6
#     Node 25, Type 1, BuildingBlock: KUMBUR_clean_sbu_0, # of connection points: 6
#     Node 26, Type 1, BuildingBlock: KUMBUR_clean_sbu_0, # of connection points: 6
#     Node 27, Type 1, BuildingBlock: KUMBUR_clean_sbu_0, # of connection points: 6
#     Node 28, Type 1, BuildingBlock: KUMBUR_clean_sbu_0, # of connection points: 6
#     Node 29, Type 1, BuildingBlock: KUMBUR_clean_sbu_0, # of connection points: 6
#     Node 30, Type 1, BuildingBlock: KUMBUR_clean_sbu_0, # of connection points: 6
#     Node 31, Type 1, BuildingBlock: KUMBUR_clean_sbu_0, # of connection points: 6
#     Node 32, Type 1, BuildingBlock: KUMBUR_clean_sbu_0, # of connection points: 6
#     Node 33, Type 1, BuildingBlock: KUMBUR_clean_sbu_0, # of connection points: 6
#     Node 34, Type 1, BuildingBlock: KUMBUR_clean_sbu_0, # of connection points: 6
#     Node 35, Type 1, BuildingBlock: KUMBUR_clean_sbu_0, # of connection points: 6
#     Node 36, Type 1, BuildingBlock: KUMBUR_clean_sbu_0, # of connection points: 6
#     Node 37, Type 1, BuildingBlock: KUMBUR_clean_sbu_0, # of connection points: 6
#     Node 38, Type 1, BuildingBlock: KUMBUR_clean_sbu_0, # of connection points: 6
#     Node 39, Type 1, BuildingBlock: KUMBUR_clean_sbu_0, # of connection points: 6
#     Edge 40, Type (0, 1), BuildingBlock: OJICUG_clean_linker_0, # of connection points: 2
#     Edge 41, Type (0, 1), BuildingBlock: OJICUG_clean_linker_0, # of connection points: 2
#     Edge 42, Type (0, 1), BuildingBlock: OJICUG_clean_linker_0, # of connection points: 2
#     Edge 43, Type (0, 1), BuildingBlock: OJICUG_clean_linker_0, # of connection points: 2
#     Edge 44, Type (0, 1), BuildingBlock: OJICUG_clean_linker_0, # of connection points: 2
#     Edge 45, Type (0, 1), BuildingBlock: OJICUG_clean_linker_0, # of connection points: 2
#     Edge 46, Type (0, 1), BuildingBlock: OJICUG_clean_linker_0, # of connection points: 2
#     Edge 47, Type (0, 1), BuildingBlock: OJICUG_clean_linker_0, # of connection points: 2
#     Edge 48, Type (0, 1), BuildingBlock: OJICUG_clean_linker_0, # of connection points: 2
#     Edge 49, Type (0, 1), BuildingBlock: OJICUG_clean_linker_0, # of connection points: 2
#     Edge 50, Type (0, 1), BuildingBlock: OJICUG_clean_linker_0, # of connection points: 2
#     Edge 51, Type (0, 1), BuildingBlock: OJICUG_clean_linker_0, # of connection points: 2
#     Edge 52, Type (0, 1), BuildingBlock: OJICUG_clean_linker_0, # of connection points: 2
#     Edge 53, Type (0, 1), BuildingBlock: OJICUG_clean_linker_0, # of connection points: 2
#     Edge 54, Type (0, 1), BuildingBlock: OJICUG_clean_linker_0, # of connection points: 2
#     Edge 55, Type (0, 1), BuildingBlock: OJICUG_clean_linker_0, # of connection points: 2
#     Edge 56, Type (0, 1), BuildingBlock: OJICUG_clean_linker_0, # of connection points: 2
#     Edge 57, Type (0, 1), BuildingBlock: OJICUG_clean_linker_0, # of connection points: 2
#     Edge 58, Type (0, 1), BuildingBlock: OJICUG_clean_linker_0, # of connection points: 2
#     Edge 59, Type (0, 1), BuildingBlock: OJICUG_clean_linker_0, # of connection points: 2
#     Edge 60, Type (0, 1), BuildingBlock: OJICUG_clean_linker_0, # of connection points: 2
#     Edge 61, Type (0, 1), BuildingBlock: OJICUG_clean_linker_0, # of connection points: 2
#     Edge 62, Type (0, 1), BuildingBlock: OJICUG_clean_linker_0, # of connection points: 2
#     Edge 63, Type (0, 1), BuildingBlock: OJICUG_clean_linker_0, # of connection points: 2
#     Edge 64, Type (0, 1), BuildingBlock: OJICUG_clean_linker_0, # of connection points: 2
#     Edge 65, Type (0, 1), BuildingBlock: OJICUG_clean_linker_0, # of connection points: 2
#     Edge 66, Type (0, 1), BuildingBlock: OJICUG_clean_linker_0, # of connection points: 2
#     Edge 67, Type (0, 1), BuildingBlock: OJICUG_clean_linker_0, # of connection points: 2
#     Edge 68, Type (0, 1), BuildingBlock: OJICUG_clean_linker_0, # of connection points: 2
#     Edge 69, Type (0, 1), BuildingBlock: OJICUG_clean_linker_0, # of connection points: 2
#     Edge 70, Type (0, 1), BuildingBlock: OJICUG_clean_linker_0, # of connection points: 2
#     Edge 71, Type (0, 1), BuildingBlock: OJICUG_clean_linker_0, # of connection points: 2
#     Edge 72, Type (0, 1), BuildingBlock: OJICUG_clean_linker_0, # of connection points: 2
#     Edge 73, Type (0, 1), BuildingBlock: OJICUG_clean_linker_0, # of connection points: 2
#     Edge 74, Type (0, 1), BuildingBlock: OJICUG_clean_linker_0, # of connection points: 2
#     Edge 75, Type (0, 1), BuildingBlock: OJICUG_clean_linker_0, # of connection points: 2
#     Edge 76, Type (0, 1), BuildingBlock: OJICUG_clean_linker_0, # of connection points: 2
#     Edge 77, Type (0, 1), BuildingBlock: OJICUG_clean_linker_0, # of connection points: 2
#     Edge 78, Type (0, 1), BuildingBlock: OJICUG_clean_linker_0, # of connection points: 2
#     Edge 79, Type (0, 1), BuildingBlock: OJICUG_clean_linker_0, # of connection points: 2
#     Edge 80, Type (0, 1), BuildingBlock: OJICUG_clean_linker_0, # of connection points: 2
#     Edge 81, Type (0, 1), BuildingBlock: OJICUG_clean_linker_0, # of connection points: 2
#     Edge 82, Type (0, 1), BuildingBlock: OJICUG_clean_linker_0, # of connection points: 2
#     Edge 83, Type (0, 1), BuildingBlock: OJICUG_clean_linker_0, # of connection points: 2
#     Edge 84, Type (0, 1), BuildingBlock: OJICUG_clean_linker_0, # of connection points: 2
#     Edge 85, Type (0, 1), BuildingBlock: OJICUG_clean_linker_0, # of connection points: 2
#     Edge 86, Type (0, 1), BuildingBlock: OJICUG_clean_linker_0, # of connection points: 2
#     Edge 87, Type (0, 1), BuildingBlock: OJICUG_clean_linker_0, # of connection points: 2
#     Edge 88, Type (0, 1), BuildingBlock: OJICUG_clean_linker_0, # of connection points: 2
#     Edge 89, Type (0, 1), BuildingBlock: OJICUG_clean_linker_0, # of connection points: 2
#     Edge 90, Type (0, 1), BuildingBlock: OJICUG_clean_linker_0, # of connection points: 2
#     Edge 91, Type (0, 1), BuildingBlock: OJICUG_clean_linker_0, # of connection points: 2
#     Edge 92, Type (0, 1), BuildingBlock: OJICUG_clean_linker_0, # of connection points: 2
#     Edge 93, Type (0, 1), BuildingBlock: OJICUG_clean_linker_0, # of connection points: 2
#     Edge 94, Type (0, 1), BuildingBlock: OJICUG_clean_linker_0, # of connection points: 2
#     Edge 95, Type (0, 1), BuildingBlock: OJICUG_clean_linker_0, # of connection points: 2
#     Edge 96, Type (0, 1), BuildingBlock: OJICUG_clean_linker_0, # of connection points: 2
#     Edge 97, Type (0, 1), BuildingBlock: OJICUG_clean_linker_0, # of connection points: 2
#     Edge 98, Type (0, 1), BuildingBlock: OJICUG_clean_linker_0, # of connection points: 2
#     Edge 99, Type (0, 1), BuildingBlock: OJICUG_clean_linker_0, # of connection points: 2
#     Edge 100, Type (0, 1), BuildingBlock: OJICUG_clean_linker_0, # of connection points: 2
#     Edge 101, Type (0, 1), BuildingBlock: OJICUG_clean_linker_0, # of connection points: 2
#     Edge 102, Type (0, 1), BuildingBlock: OJICUG_clean_linker_0, # of connection points: 2
#     Edge 103, Type (0, 1), BuildingBlock: OJICUG_clean_linker_0, # of connection points: 2
#     Edge 104, Type (0, 1), BuildingBlock: OJICUG_clean_linker_0, # of connection points: 2
#     Edge 105, Type (0, 1), BuildingBlock: OJICUG_clean_linker_0, # of connection points: 2
#     Edge 106, Type (0, 1), BuildingBlock: OJICUG_clean_linker_0, # of connection points: 2
#     Edge 107, Type (0, 1), BuildingBlock: OJICUG_clean_linker_0, # of connection points: 2
#     Edge 108, Type (0, 1), BuildingBlock: OJICUG_clean_linker_0, # of connection points: 2
#     Edge 109, Type (0, 1), BuildingBlock: OJICUG_clean_linker_0, # of connection points: 2
#     Edge 110, Type (0, 1), BuildingBlock: OJICUG_clean_linker_0, # of connection points: 2
#     Edge 111, Type (0, 1), BuildingBlock: OJICUG_clean_linker_0, # of connection points: 2
#     Edge 112, Type (0, 1), BuildingBlock: OJICUG_clean_linker_0, # of connection points: 2
#     Edge 113, Type (0, 1), BuildingBlock: OJICUG_clean_linker_0, # of connection points: 2
#     Edge 114, Type (0, 1), BuildingBlock: OJICUG_clean_linker_0, # of connection points: 2
#     Edge 115, Type (0, 1), BuildingBlock: OJICUG_clean_linker_0, # of connection points: 2
#     Edge 116, Type (0, 1), BuildingBlock: OJICUG_clean_linker_0, # of connection points: 2
#     Edge 117, Type (0, 1), BuildingBlock: OJICUG_clean_linker_0, # of connection points: 2
#     Edge 118, Type (0, 1), BuildingBlock: OJICUG_clean_linker_0, # of connection points: 2
#     Edge 119, Type (0, 1), BuildingBlock: OJICUG_clean_linker_0, # of connection points: 2
#     Edge 120, Type (0, 1), BuildingBlock: OJICUG_clean_linker_0, # of connection points: 2
#     Edge 121, Type (0, 1), BuildingBlock: OJICUG_clean_linker_0, # of connection points: 2
#     Edge 122, Type (0, 1), BuildingBlock: OJICUG_clean_linker_0, # of connection points: 2
#     Edge 123, Type (0, 1), BuildingBlock: OJICUG_clean_linker_0, # of connection points: 2
#     Edge 124, Type (0, 1), BuildingBlock: OJICUG_clean_linker_0, # of connection points: 2
#     Edge 125, Type (0, 1), BuildingBlock: OJICUG_clean_linker_0, # of connection points: 2
#     Edge 126, Type (0, 1), BuildingBlock: OJICUG_clean_linker_0, # of connection points: 2
#     Edge 127, Type (0, 1), BuildingBlock: OJICUG_clean_linker_0, # of connection points: 2
#     Edge 128, Type (0, 1), BuildingBlock: OJICUG_clean_linker_0, # of connection points: 2
#     Edge 129, Type (0, 1), BuildingBlock: OJICUG_clean_linker_0, # of connection points: 2
#     Edge 130, Type (0, 1), BuildingBlock: OJICUG_clean_linker_0, # of connection points: 2
#     Edge 131, Type (0, 1), BuildingBlock: OJICUG_clean_linker_0, # of connection points: 2
#     Edge 132, Type (0, 1), BuildingBlock: OJICUG_clean_linker_0, # of connection points: 2
#     Edge 133, Type (0, 1), BuildingBlock: OJICUG_clean_linker_0, # of connection points: 2
#     Edge 134, Type (0, 1), BuildingBlock: OJICUG_clean_linker_0, # of connection points: 2
#     Edge 135, Type (0, 1), BuildingBlock: OJICUG_clean_linker_0, # of connection points: 2
# Relax obj value: 0.146
# Max RMSD: 0.355
# Mean RMSD: 0.157
data_MOF--net-gar--node1-KUFVIS_clean_sbu_0--node2-KUMBUR_clean_sbu_0--edge1-OJICUG_clean_linker_0
_symmetry_space_group_name_H-M    P1
_symmetry_Int_Tables_number       1
_symmetry_cell_setting            triclinic
loop_
_symmetry_equiv_pos_as_xyz
'x, y, z'
_cell_length_a     46.333376
_cell_length_b     41.581577
_cell_length_c     42.740596
_cell_angle_alpha  101.12836
_cell_angle_beta   94.293286
_cell_angle_gamma 103.25453
loop_
_atom_site_label
_atom_site_type_symbol
_atom_site_fract_x
_atom_site_fract_y
_atom_site_fract_z
_atom_type_partial_charge
Mn0 Mn 0.1479 0.3414 0.40132 0.0
Mn1 Mn 0.14962 0.39363 0.34951 0.0
C2 C 0.10434 0.35013 0.37913 0.0
C3 C 0.1451 0.2916 0.41817 0.0
C4 C 0.163 0.41755 0.42136 0.0
O5 O 0.18839 0.34318 0.38549 0.0
O6 O 0.18606 0.3771 0.35039 0.0
C7 C 0.14897 0.34716 0.28747 0.0
N8 N 0.13743 0.37041 0.30592 0.0
C9 C 0.10871 0.37765 0.25977 0.0
C10 C 0.12021 0.35367 0.24019 0.0
C11 C 0.1402 0.33809 0.25417 0.0
C12 C 0.11755 0.38481 0.29285 0.0
H13 H 0.165 0.33606 0.29806 0.0
C14 C 0.19848 0.35782 0.36348 0.0
O15 O 0.15797 0.32068 0.43651 0.0
O16 O 0.13574 0.291 0.38846 0.0
N17 N 0.11557 0.41169 0.34524 0.0
C18 C 0.10436 0.43164 0.36784 0.0
C19 C 0.08351 0.44857 0.35815 0.0
C20 C 0.07464 0.44511 0.32528 0.0
C21 C 0.08616 0.42396 0.3025 0.0
C22 C 0.1063 0.40712 0.31369 0.0
H23 H 0.11069 0.43384 0.39301 0.0
O24 O 0.10539 0.34108 0.40656 0.0
O25 O 0.12856 0.35416 0.36545 0.0
O26 O 0.16046 0.38889 0.42798 0.0
O27 O 0.16167 0.42189 0.39277 0.0
C28 C 0.07856 0.41894 0.26909 0.0
C29 C 0.08928 0.39524 0.24777 0.0
H30 H 0.11396 0.34714 0.21441 0.0
H31 H 0.14931 0.31968 0.23923 0.0
H32 H 0.0746 0.46452 0.37593 0.0
H33 H 0.05873 0.45846 0.31785 0.0
H34 H 0.06354 0.43221 0.2596 0.0
H35 H 0.08245 0.39076 0.22219 0.0
Mn36 Mn 0.01226 0.74386 0.66503 0.0
Mn37 Mn 0.03572 0.81478 0.72345 0.0
C38 C 0.06146 0.76249 0.68773 0.0
C39 C 1.00009 0.68724 0.64075 0.0
C40 C 0.02095 0.81512 0.65381 0.0
O41 O 0.97359 0.74662 0.68349 0.0
O42 O 0.99156 0.79544 0.72142 0.0
C43 C 0.02338 0.79249 0.78384 0.0
N44 N 0.04336 0.8053 0.76492 0.0
C45 C 0.08408 0.81543 0.80697 0.0
C46 C 0.06398 0.80081 0.82624 0.0
C47 C 0.03343 0.78951 0.81468 0.0
C48 C 0.07268 0.81759 0.77635 0.0
H49 H 0.99994 0.78566 0.77586 0.0
C50 C 0.97051 0.76957 0.7068 0.0
O51 O 0.99264 0.70941 0.62649 0.0
O52 O 1.01001 0.69718 0.67127 0.0
N53 N 0.07814 0.83324 0.72735 0.0
C54 C 0.09485 0.84583 0.70546 0.0
C55 C 0.12592 0.85832 0.71336 0.0
C56 C 0.13953 0.85779 0.74367 0.0
C57 C 0.12196 0.84442 0.76567 0.0
C58 C 0.09112 0.83217 0.75639 0.0
H59 H 0.08464 0.84611 0.68201 0.0
O60 O 0.05472 0.74669 0.6578 0.0
O61 O 0.0396 0.76985 0.70245 0.0
O62 O 1.01179 0.78344 0.64498 0.0
O63 O 0.03039 0.82991 0.68284 0.0
C64 C 0.13391 0.84246 0.79634 0.0
C65 C 0.11496 0.82809 0.81702 0.0
H66 H 0.07167 0.79863 0.85012 0.0
H67 H 0.0176 0.77905 0.8297 0.0
H68 H 0.13935 0.86833 0.69612 0.0
H69 H 0.1635 0.86749 0.74969 0.0
H70 H 0.15766 0.85187 0.80423 0.0
H71 H 0.12439 0.82679 0.84057 0.0
Mn72 Mn 0.64546 0.83882 0.89962 0.0
Mn73 Mn 0.64725 0.88845 0.84554 0.0
C74 C 0.60161 0.84322 0.87391 0.0
C75 C 0.64494 0.7893 0.91667 0.0
C76 C 0.65577 0.91513 0.91737 0.0
O77 O 0.6879 0.84448 0.88757 0.0
O78 O 0.68481 0.8737 0.84873 0.0
C79 C 0.6488 0.83938 0.78579 0.0
N80 N 0.63691 0.86356 0.80228 0.0
C81 C 0.60891 0.86749 0.75413 0.0
C82 C 0.6214 0.8432 0.73638 0.0
C83 C 0.64108 0.82871 0.75236 0.0
C84 C 0.61701 0.87658 0.78737 0.0
H85 H 0.66407 0.82848 0.79807 0.0
C86 C 0.6982 0.85692 0.86433 0.0
O87 O 0.65486 0.81868 0.9358 0.0
O88 O 0.63711 0.78853 0.88658 0.0
N89 N 0.61229 0.9044 0.83857 0.0
C90 C 0.59895 0.92335 0.85973 0.0
C91 C 0.57721 0.93815 0.8481 0.0
C92 C 0.5696 0.93353 0.81484 0.0
C93 C 0.58314 0.91319 0.79356 0.0
C94 C 0.60422 0.89861 0.80662 0.0
H95 H 0.60422 0.92628 0.8852 0.0
O96 O 0.60189 0.83424 0.90137 0.0
O97 O 0.62673 0.84917 0.86196 0.0
O98 O 0.65321 0.88696 0.92533 0.0
O99 O 0.65711 0.91848 0.88853 0.0
C100 C 0.57633 0.90639 0.7599 0.0
C101 C 0.58879 0.88309 0.74021 0.0
H102 H 0.61578 0.83523 0.71055 0.0
H103 H 0.65056 0.80968 0.7389 0.0
H104 H 0.56648 0.95319 0.86468 0.0
H105 H 0.5529 0.94511 0.80594 0.0
H106 H 0.56066 0.91796 0.74897 0.0
H107 H 0.58252 0.87713 0.71445 0.0
Mn108 Mn 0.51758 0.24819 0.17062 0.0
Mn109 Mn 0.45834 0.22613 0.11509 0.0
C110 C 0.49934 0.19182 0.1458 0.0
C111 C 0.56859 0.26109 0.18328 0.0
C112 C 0.45855 0.25833 0.18504 0.0
O113 O 0.51708 0.29093 0.15454 0.0
O114 O 0.48361 0.26957 0.10948 0.0
C115 C 0.47878 0.21399 0.05109 0.0
N116 N 0.46427 0.20185 0.07457 0.0
C117 C 0.45332 0.14476 0.04397 0.0
C118 C 0.46946 0.15637 0.02013 0.0
C119 C 0.48167 0.1912 0.02335 0.0
C120 C 0.45069 0.16867 0.0707 0.0
H121 H 0.48867 0.24073 0.05393 0.0
C122 C 0.50436 0.29331 0.12767 0.0
O123 O 0.55173 0.27088 0.20423 0.0
O124 O 0.55608 0.24664 0.15434 0.0
N125 N 0.43452 0.18384 0.12035 0.0
C126 C 0.41999 0.17678 0.14575 0.0
C127 C 0.40528 0.14322 0.14554 0.0
C128 C 0.40586 0.11724 0.11935 0.0
C129 C 0.42112 0.12512 0.09361 0.0
C130 C 0.43501 0.1591 0.09497 0.0
H131 H 0.41969 0.19648 0.16614 0.0
O132 O 0.51304 0.20007 0.17496 0.0
O133 O 0.49371 0.21698 0.1349 0.0
O134 O 0.48301 0.2538 0.19638 0.0
O135 O 0.44922 0.25047 0.15519 0.0
C136 C 0.42373 0.10053 0.06702 0.0
C137 C 0.4402 0.1104 0.04253 0.0
H138 H 0.47265 0.13881 0.99926 0.0
H139 H 0.49368 0.20037 1.00479 0.0
H140 H 0.39375 0.13737 0.16562 0.0
H141 H 0.39475 0.09131 0.1194 0.0
H142 H 0.41348 0.07397 0.06532 0.0
H143 H 0.44257 0.09143 0.02253 0.0
Mn144 Mn 0.14198 0.82446 0.12801 0.0
Mn145 Mn 0.08422 0.79863 0.06675 0.0
C146 C 0.12384 0.76446 0.1022 0.0
C147 C 0.19292 0.83757 0.15812 0.0
C148 C 0.07493 0.81538 0.13647 0.0
O149 O 0.14038 0.87161 0.11269 0.0
O150 O 0.10136 0.84939 0.07376 0.0
C151 C 0.11662 0.81287 0.01203 0.0
N152 N 0.0983 0.79065 0.0259 0.0
C153 C 0.08661 0.74832 0.97664 0.0
C154 C 0.10539 0.77072 0.96181 0.0
C155 C 0.1206 0.80306 0.97964 0.0
C156 C 0.08382 0.75934 1.00907 0.0
H157 H 0.12775 0.83802 0.02547 0.0
C158 C 0.1211 0.8754 0.09031 0.0
O159 O 0.17034 0.846 0.17025 0.0
O160 O 0.18742 0.82618 0.1271 0.0
N161 N 0.06436 0.75146 0.05638 0.0
C162 C 0.04713 0.73283 0.0743 0.0
C163 C 0.03105 0.69951 0.0603 0.0
C164 C 0.03211 0.68604 0.02776 0.0
C165 C 0.0496 0.70589 1.00968 0.0
C166 C 0.06569 0.73865 0.02516 0.0
H167 H 0.04561 0.74331 0.09906 0.0
O168 O 0.13727 0.7756 0.13124 0.0
O169 O 0.12073 0.78912 0.0879 0.0
O170 O 0.10252 0.82437 0.14764 0.0
O171 O 0.06571 0.8049 0.1067 0.0
C172 C 0.0516 0.69461 0.97684 0.0
C173 C 0.07018 0.71571 0.96038 0.0
H174 H 0.10822 0.76342 0.93671 0.0
H175 H 0.135 0.82056 0.96831 0.0
H176 H 0.01752 0.68441 0.07441 0.0
H177 H 0.0194 0.66047 0.01693 0.0
H178 H 0.03877 0.66991 0.96385 0.0
H179 H 0.07154 0.70666 0.93514 0.0
Mn180 Mn 0.52994 0.769 0.44872 0.0
Mn181 Mn 0.53732 0.81491 0.39169 0.0
C182 C 0.48466 0.76908 0.41219 0.0
C183 C 0.53783 0.71582 0.46666 0.0
C184 C 0.5475 0.84832 0.46194 0.0
O185 O 0.57499 0.78081 0.44119 0.0
O186 O 0.57027 0.79288 0.39193 0.0
C187 C 0.53342 0.7702 0.32808 0.0
N188 N 0.52298 0.79333 0.34819 0.0
C189 C 0.49277 0.80275 0.30438 0.0
C190 C 0.50325 0.7792 0.28305 0.0
C191 C 0.52352 0.76266 0.295 0.0
C192 C 0.50395 0.80979 0.33692 0.0
H193 H 0.54958 0.75813 0.33717 0.0
C194 C 0.58517 0.78561 0.41475 0.0
O195 O 0.54012 0.74477 0.48599 0.0
O196 O 0.5293 0.71701 0.43727 0.0
N197 N 0.50535 0.8363 0.39033 0.0
C198 C 0.49185 0.85028 0.4149 0.0
C199 C 0.46735 0.86286 0.40819 0.0
C200 C 0.45597 0.85906 0.37629 0.0
C201 C 0.46951 0.84397 0.35118 0.0
C202 C 0.49396 0.83188 0.35944 0.0
H203 H 0.4978 0.84955 0.43934 0.0
O204 O 0.48276 0.75898 0.43919 0.0
O205 O 0.51251 0.77771 0.40747 0.0
O206 O 0.53392 0.82204 0.47221 0.0
O207 O 0.55578 0.84369 0.43418 0.0
C208 C 0.45804 0.83749 0.31862 0.0
C209 C 0.47072 0.81844 0.29498 0.0
H210 H 0.49549 0.77318 0.25757 0.0
H211 H 0.53167 0.74437 0.27874 0.0
H212 H 0.45584 0.87296 0.42744 0.0
H213 H 0.43487 0.86408 0.37208 0.0
H214 H 0.43868 0.84569 0.31181 0.0
H215 H 0.46219 0.81446 0.26991 0.0
Mn216 Mn 0.64099 0.32433 0.62748 0.0
Mn217 Mn 0.58434 0.29704 0.56533 0.0
C218 C 0.62377 0.26417 0.60232 0.0
C219 C 0.69163 0.33768 0.65757 0.0
C220 C 0.57355 0.31429 0.63448 0.0
O221 O 0.6394 0.37094 0.6115 0.0
O222 O 0.60054 0.34791 0.57251 0.0
C223 C 0.61779 0.31239 0.51161 0.0
N224 N 0.59948 0.2897 0.52503 0.0
C225 C 0.58955 0.24745 0.47581 0.0
C226 C 0.60834 0.27032 0.46143 0.0
C227 C 0.62264 0.30288 0.47947 0.0
C228 C 0.58581 0.25823 0.50799 0.0
H229 H 0.62826 0.33767 0.52519 0.0
C230 C 0.61997 0.3742 0.58903 0.0
O231 O 0.66918 0.34645 0.66978 0.0
O232 O 0.68611 0.32598 0.6266 0.0
N233 N 0.56545 0.24969 0.5547 0.0
C234 C 0.54838 0.23056 0.57237 0.0
C235 C 0.53302 0.19706 0.55814 0.0
C236 C 0.53475 0.18387 0.5257 0.0
C237 C 0.55236 0.20411 0.50797 0.0
C238 C 0.5676 0.2371 0.52364 0.0
H239 H 0.54658 0.24077 0.59716 0.0
O240 O 0.63641 0.27579 0.63162 0.0
O241 O 0.62071 0.28845 0.58747 0.0
O242 O 0.60109 0.3248 0.64595 0.0
O243 O 0.56494 0.3027 0.60468 0.0
C244 C 0.55535 0.19302 0.47535 0.0
C245 C 0.57402 0.21457 0.45934 0.0
H246 H 0.61186 0.26321 0.43653 0.0
H247 H 0.63703 0.32074 0.46849 0.0
H248 H 0.51957 0.18158 0.57199 0.0
H249 H 0.52243 0.15822 0.51475 0.0
H250 H 0.54328 0.16811 0.46215 0.0
H251 H 0.57615 0.20565 0.43429 0.0
Mn252 Mn 0.03015 0.26875 0.9474 0.0
Mn253 Mn 0.03745 0.31512 0.89029 0.0
C254 C 0.98493 0.2711 0.91237 0.0
C255 C 0.03783 0.21538 0.96492 0.0
C256 C 0.04999 0.34735 0.9613 0.0
O257 O 0.07489 0.27982 0.93923 0.0
O258 O 0.06953 0.2916 0.88988 0.0
C259 C 0.03072 0.2692 0.82667 0.0
N260 N 0.02183 0.29354 0.84697 0.0
C261 C 0.99128 0.30369 0.80373 0.0
C262 C 0.99995 0.27864 0.78229 0.0
C263 C 0.01964 0.26118 0.79386 0.0
C264 C 1.00321 0.31074 0.83606 0.0
H265 H 0.04644 0.2564 0.83543 0.0
C266 C 0.0847 0.28444 0.91261 0.0
O267 O 0.04033 0.2443 0.98436 0.0
O268 O 0.02896 0.2166 0.9356 0.0
N269 N 1.00669 0.33843 0.88945 0.0
C270 C 0.99608 0.35636 0.91423 0.0
C271 C 0.9727 0.3709 0.90783 0.0
C272 C 0.96047 0.36672 0.87609 0.0
C273 C 0.97188 0.34882 0.85075 0.0
C274 C 0.99467 0.33398 0.85874 0.0
H275 H 1.00378 0.35807 0.93882 0.0
O276 O 0.98304 0.26022 0.93898 0.0
O277 O 0.01254 0.27875 0.90689 0.0
O278 O 0.03564 0.32144 0.97144 0.0
O279 O 0.05631 0.34333 0.93263 0.0
C280 C 0.96032 0.34314 0.81821 0.0
C281 C 0.97059 0.32128 0.79457 0.0
H282 H 0.99131 0.27226 0.75702 0.0
H283 H 0.02646 0.24182 0.77746 0.0
H284 H 0.9632 0.38391 0.92734 0.0
H285 H 0.9407 0.37478 0.87222 0.0
H286 H 0.94319 0.35486 0.81118 0.0
H287 H 0.96158 0.3172 0.76963 0.0
Mn288 Mn 0.44578 0.04273 0.32254 0.0
Mn289 Mn 0.39311 0.02774 0.37203 0.0
C290 C 0.42829 0.98765 0.32322 0.0
C291 C 0.46157 0.04713 0.2743 0.0
C292 C 0.45862 0.0559 0.39467 0.0
O293 O 0.4298 0.08289 0.32594 0.0
O294 O 0.3965 0.07207 0.36023 0.0
C295 C 0.33634 0.0264 0.33398 0.0
N296 N 0.35593 1.01002 0.34486 0.0
C297 C 0.3278 0.95655 0.3129 0.0
C298 C 0.30755 0.9729 0.30069 0.0
C299 C 0.3116 1.00791 0.31161 0.0
C300 C 0.35167 0.97634 0.33536 0.0
H301 H 0.3395 0.05321 0.34258 0.0
C302 C 0.40904 0.08972 0.34137 0.0
O303 O 0.47848 0.06354 0.30084 0.0
O304 O 0.43455 0.03065 0.27588 0.0
N305 N 0.38534 0.98601 0.38579 0.0
C306 C 0.39781 0.97929 0.42004 0.0
C307 C 0.40067 0.93999 0.42897 0.0
C308 C 0.38872 0.90042 0.39719 0.0
C309 C 0.36698 0.91961 0.34243 0.0
C310 C 0.36982 0.96255 0.3523 0.0
H311 H 0.40711 1.00129 0.43916 0.0
O312 O 0.45611 0.99999 0.3208 0.0
O313 O 0.41218 1.00988 0.33202 0.0
O314 O 0.46579 0.05887 0.36736 0.0
O315 O 0.43203 0.04373 0.4002 0.0
C316 C 0.34349 0.90415 0.31613 0.0
C317 C 0.3242 0.92152 0.30348 0.0
H318 H 0.28845 0.95869 0.28335 0.0
H319 H 0.29578 0.02057 0.30272 0.0
H320 H 0.39602 0.91656 0.41663 0.0
H321 H 0.38707 0.87188 0.39944 0.0
H322 H 0.33775 0.8779 0.30638 0.0
H323 H 0.30584 0.90681 0.2854 0.0
Mn324 Mn 0.30159 0.21396 0.52618 0.0
Mn325 Mn 0.29154 0.14802 0.46254 0.0
C326 C 0.25231 0.17842 0.50598 0.0
C327 C 0.30908 0.23421 0.58539 0.0
C328 C 0.31319 0.22143 0.45606 0.0
O329 O 0.34281 0.20225 0.52569 0.0
O330 O 0.32985 0.1521 0.48912 0.0
C331 C 0.2875 0.08483 0.48535 0.0
N332 N 0.27417 0.10434 0.46991 0.0
C333 C 0.2326 0.05694 0.44694 0.0
C334 C 0.24579 0.03655 0.46302 0.0
C335 C 0.27322 0.05063 0.48256 0.0
C336 C 0.24781 0.09089 0.45082 0.0
H337 H 0.30937 0.09487 0.49857 0.0
C338 C 0.34822 0.17446 0.51118 0.0
O339 O 0.31589 0.25436 0.56584 0.0
O340 O 0.29859 0.20291 0.57077 0.0
N341 N 0.25448 0.14316 0.43691 0.0
C342 C 0.24524 0.16597 0.4221 0.0
C343 C 0.21743 0.15639 0.40297 0.0
C344 C 0.19957 0.12333 0.39889 0.0
C345 C 0.20955 0.10038 0.4144 0.0
C346 C 0.23708 0.11169 0.43395 0.0
H347 H 0.25884 0.19133 0.42482 0.0
O348 O 0.25632 0.20952 0.52154 0.0
O349 O 0.27715 0.17013 0.50096 0.0
O350 O 0.3085 0.23594 0.48428 0.0
O351 O 0.30955 0.18961 0.44875 0.0
C352 C 0.19363 0.06647 0.41059 0.0
C353 C 0.2056 0.04463 0.42613 0.0
H354 H 0.23557 1.00984 0.45983 0.0
H355 H 0.28382 0.03489 0.49455 0.0
H356 H 0.20995 0.17432 0.3911 0.0
H357 H 0.17834 0.1158 0.38368 0.0
H358 H 0.17261 0.05667 0.39503 0.0
H359 H 0.1942 0.01827 0.42122 0.0
Mn360 Mn 0.20147 0.02794 0.77405 0.0
Mn361 Mn 0.25677 0.04776 0.83771 0.0
C362 C 0.23299 0.08795 0.79399 0.0
C363 C 0.17655 0.02475 0.71425 0.0
C364 C 0.18944 0.03095 0.85062 0.0
O365 O 0.21906 0.97929 0.77219 0.0
O366 O 0.25263 0.99719 0.81695 0.0
C367 C 0.3098 0.0404 0.80462 0.0
N368 N 0.29567 0.05981 0.82441 0.0
C369 C 0.33899 0.10703 0.83504 0.0
C370 C 0.35402 0.08745 0.81499 0.0
C371 C 0.33932 0.05404 0.79961 0.0
C372 C 0.30961 0.0921 0.83918 0.0
H373 H 0.29874 1.01468 0.79277 0.0
C374 C 0.24032 0.97321 0.79205 0.0
O375 O 0.16282 1.01508 0.73745 0.0
O376 O 0.20508 0.03179 0.72399 0.0
N377 N 0.26469 0.09438 0.85924 0.0
C378 C 0.24599 0.11129 0.87453 0.0
C379 C 0.25685 0.14542 0.89011 0.0
C380 C 0.28672 0.16204 0.88938 0.0
C381 C 0.30526 0.1445 0.87254 0.0
C382 C 0.29322 0.11038 0.85766 0.0
H383 H 0.2228 0.09909 0.8743 0.0
O384 O 0.20533 0.08029 0.78172 0.0
O385 O 0.24074 0.06028 0.79758 0.0
O386 O 0.17976 0.02507 0.81974 0.0
O387 O 0.21792 0.03804 0.85843 0.0
C388 C 0.33502 0.15973 0.86937 0.0
C389 C 0.3519 0.14094 0.85075 0.0
H390 H 0.37677 0.0979 0.81101 0.0
H391 H 0.35074 0.0388 0.78398 0.0
H392 H 0.24217 0.15896 0.90241 0.0
H393 H 0.29499 0.18845 0.90126 0.0
H394 H 0.34504 0.18599 0.88079 0.0
H395 H 0.37471 0.15288 0.84841 0.0
Mn396 Mn 0.37259 0.95339 0.02637 0.0
Mn397 Mn 0.37231 0.9913 0.96415 0.0
C398 C 0.41741 0.97405 1.00932 0.0
C399 C 0.37036 0.95122 0.07896 0.0
C400 C 0.35484 0.91616 0.95819 0.0
O401 O 0.33168 0.96188 0.02175 0.0
O402 O 0.3351 0.99295 0.98403 0.0
C403 C 0.37193 0.06222 0.98951 0.0
N404 N 0.38658 0.03928 0.9757 0.0
C405 C 0.42184 0.08247 0.95856 0.0
C406 C 0.40694 0.10648 0.97224 0.0
C407 C 0.38198 0.09632 0.98799 0.0
C408 C 0.41051 0.04876 0.96039 0.0
H409 H 0.35212 0.05442 1.00068 0.0
C410 C 0.3211 0.97944 1.0048 0.0
O411 O 0.35977 0.92484 0.056 0.0
O412 O 0.38172 0.98 0.07147 0.0
N413 N 0.40726 0.99125 0.94361 0.0
C414 C 0.41704 0.96441 0.92868 0.0
C415 C 0.44298 0.9703 0.91361 0.0
C416 C 0.45774 1.00358 0.91303 0.0
C417 C 0.44702 0.03066 0.92837 0.0
C418 C 0.42199 0.02336 0.94432 0.0
H419 H 0.40538 0.93877 0.92857 0.0
O420 O 0.41444 0.95119 0.0265 0.0
O421 O 0.39403 0.98603 1.00398 0.0
O422 O 0.3619 0.916 0.9871 0.0
O423 O 0.35662 0.94273 0.94738 0.0
C424 C 0.45941 0.06448 0.92734 0.0
C425 C 0.44677 0.0904 0.94206 0.0
H426 H 0.41447 0.13275 0.97082 0.0
H427 H 0.37029 0.11465 0.99854 0.0
H428 H 0.45118 0.94927 0.90188 0.0
H429 H 0.47673 1.00795 0.89999 0.0
H430 H 0.47767 0.07048 0.9139 0.0
H431 H 0.45608 0.11619 0.94003 0.0
Mn432 Mn 0.3602 0.3913 0.05328 0.0
Mn433 Mn 0.37001 0.45421 0.01256 0.0
C434 C 0.4102 0.42526 0.05161 0.0
C435 C 0.34773 0.37395 0.1042 0.0
C436 C 0.3521 0.37917 0.97875 0.0
O437 O 0.3177 0.39933 0.043 0.0
O438 O 0.33233 0.45077 0.03143 0.0
C439 C 0.37632 0.51384 0.0654 0.0
N440 N 0.38691 0.49757 0.03967 0.0
C441 C 0.42627 0.54674 0.04072 0.0
C442 C 0.41577 0.56426 0.0671 0.0
C443 C 0.39089 0.54758 0.07977 0.0
C444 C 0.41137 0.51292 0.02802 0.0
H445 H 0.35679 0.50123 0.07468 0.0
C446 C 0.31214 0.42641 0.03632 0.0
O447 O 0.34327 0.35285 0.07655 0.0
O448 O 0.35934 0.40493 0.10242 0.0
N449 N 0.40595 0.46094 0.99295 0.0
C450 C 0.41404 0.44006 0.96828 0.0
C451 C 0.43888 0.45263 0.95335 0.0
C452 C 0.45474 0.48665 0.96353 0.0
C453 C 0.44616 0.50748 0.98913 0.0
C454 C 0.42132 0.4936 1.00311 0.0
H455 H 0.40147 0.41419 0.95961 0.0
O456 O 0.40604 0.39658 0.06063 0.0
O457 O 0.38538 0.43306 0.04481 0.0
O458 O 0.35747 0.36699 1.00367 0.0
O459 O 0.35277 0.41054 0.98142 0.0
C460 C 0.46097 0.54169 1.00096 0.0
C461 C 0.45091 0.56144 0.02647 0.0
H462 H 0.42671 0.59044 0.07791 0.0
H463 H 0.38271 0.56085 0.10022 0.0
H464 H 0.44541 0.43637 0.93364 0.0
H465 H 0.47313 0.49673 0.95121 0.0
H466 H 0.48022 0.55285 0.99072 0.0
H467 H 0.46237 0.58788 0.03506 0.0
Mn468 Mn 0.8024 0.15303 0.05547 0.0
Mn469 Mn 0.78295 0.09438 0.98987 0.0
C470 C 0.75283 0.1361 0.03521 0.0
C471 C 0.81025 0.17871 0.10808 0.0
C472 C 0.80578 0.16473 0.98915 0.0
O473 O 0.8358 0.13047 0.05947 0.0
O474 O 0.82597 0.10569 1.00733 0.0
C475 C 0.79262 0.03954 0.02167 0.0
N476 N 0.77613 0.05125 1.00081 0.0
C477 C 0.74707 0.99517 0.97653 0.0
C478 C 0.76364 0.98228 0.99769 0.0
C479 C 0.7861 1.00468 0.02088 0.0
C480 C 0.753 0.03027 0.98029 0.0
H481 H 0.81069 0.05652 0.03852 0.0
C482 C 0.84346 0.11619 0.03372 0.0
O483 O 0.82479 0.19249 0.08738 0.0
O484 O 0.79208 0.14887 0.09873 0.0
N485 N 0.74358 0.07909 0.96755 0.0
C486 C 0.72894 0.09578 0.94985 0.0
C487 C 0.70602 0.07721 0.92539 0.0
C488 C 0.69934 0.04175 0.91825 0.0
C489 C 0.71488 0.02519 0.93668 0.0
C490 C 0.73633 0.04496 0.9619 0.0
H491 H 0.73543 0.12295 0.9535 0.0
O492 O 0.76599 0.16758 0.04753 0.0
O493 O 0.77004 0.11489 0.03071 0.0
O494 O 0.81889 0.17045 0.0173 0.0
O495 O 0.78811 0.13668 0.97603 0.0
C496 C 0.71127 0.98995 0.92992 0.0
C497 C 0.72615 0.97474 0.95073 0.0
H498 H 0.75954 0.95527 0.99612 0.0
H499 H 0.79901 0.995 0.03733 0.0
H500 H 0.69446 0.09021 0.91121 0.0
H501 H 0.68249 0.02757 0.8984 0.0
H502 H 0.69728 0.97438 0.90856 0.0
H503 H 0.72217 0.94745 0.94595 0.0
Mn504 Mn 0.21671 0.56352 0.23037 0.0
Mn505 Mn 0.27775 0.59063 0.28601 0.0
C506 C 0.24081 0.62 0.24365 0.0
C507 C 0.19079 0.54166 0.18093 0.0
C508 C 0.21488 0.57149 0.30178 0.0
O509 O 0.22806 0.52051 0.23205 0.0
O510 O 0.27051 0.54195 0.26657 0.0
C511 C 0.3256 0.58239 0.24496 0.0
N512 N 0.31433 0.60157 0.26809 0.0
C513 C 0.36022 0.64532 0.27978 0.0
C514 C 0.37236 0.62615 0.256 0.0
C515 C 0.3549 0.59466 0.23835 0.0
C516 C 0.33083 0.63202 0.28498 0.0
H517 H 0.31237 0.55789 0.23192 0.0
C518 C 0.25137 0.51765 0.24737 0.0
O519 O 0.17868 0.53752 0.20654 0.0
O520 O 0.21899 0.55733 0.18377 0.0
N521 N 0.28747 0.6372 0.30721 0.0
C522 C 0.27059 0.65525 0.3244 0.0
C523 C 0.28406 0.68806 0.34229 0.0
C524 C 0.31476 0.70169 0.34248 0.0
C525 C 0.33132 0.68295 0.32371 0.0
C526 C 0.31667 0.65063 0.3062 0.0
H527 H 0.24694 0.64493 0.32369 0.0
O528 O 0.2129 0.61007 0.23144 0.0
O529 O 0.25439 0.59667 0.24771 0.0
O530 O 0.20239 0.5648 0.27331 0.0
O531 O 0.24297 0.58136 0.3094 0.0
C532 C 0.36155 0.69553 0.32082 0.0
C533 C 0.37595 0.67719 0.29843 0.0
H534 H 0.39497 0.63543 0.25095 0.0
H535 H 0.36414 0.57974 0.21994 0.0
H536 H 0.27086 0.7028 0.3558 0.0
H537 H 0.32526 0.72694 0.35618 0.0
H538 H 0.3736 0.71939 0.33559 0.0
H539 H 0.39899 0.68785 0.29563 0.0
Mn540 Mn 0.86185 0.89119 0.55337 0.0
Mn541 Mn 0.8697 0.95291 0.51012 0.0
C542 C 0.91074 0.92528 0.54946 0.0
C543 C 0.85205 0.87319 0.60424 0.0
C544 C 0.85304 0.87755 0.47819 0.0
O545 O 0.8194 0.89988 0.54741 0.0
O546 O 0.83087 0.94674 0.52683 0.0
C547 C 0.87166 1.01238 0.56168 0.0
N548 N 0.88401 0.99692 0.53698 0.0
C549 C 0.92249 0.04754 0.5399 0.0
C550 C 0.91017 0.06416 0.56532 0.0
C551 C 0.88477 0.04641 0.57642 0.0
C552 C 0.90875 1.01351 0.52655 0.0
H553 H 0.85191 0.99887 0.56992 0.0
C554 C 0.81285 0.92551 0.53863 0.0
O555 O 0.84661 0.85239 0.57641 0.0
O556 O 0.86342 0.90437 0.60276 0.0
N557 N 0.90637 0.96203 0.49206 0.0
C558 C 0.91605 0.94194 0.46809 0.0
C559 C 0.9413 0.95576 0.45437 0.0
C560 C 0.95606 0.99015 0.46517 0.0
C561 C 0.9458 1.01019 0.48995 0.0
C562 C 0.92041 0.99511 0.50251 0.0
H563 H 0.9044 0.91573 0.45914 0.0
O564 O 0.90736 0.89635 0.55793 0.0
O565 O 0.88575 0.93331 0.54379 0.0
O566 O 0.85679 0.86607 0.50385 0.0
O567 O 0.85519 0.90892 0.47935 0.0
C568 C 0.95965 0.04463 0.50254 0.0
C569 C 0.94795 0.06333 0.52741 0.0
H570 H 0.92012 0.09046 0.57659 0.0
H571 H 0.87518 0.05901 0.59608 0.0
H572 H 0.949 0.94006 0.43517 0.0
H573 H 0.975 1.00122 0.45411 0.0
H574 H 0.97949 0.05684 0.49352 0.0
H575 H 0.95871 0.08983 0.53683 0.0
Mn576 Mn 0.96604 0.0682 0.27313 0.0
Mn577 Mn 0.91492 0.06294 0.32854 0.0
C578 C 0.93495 1.01131 0.27911 0.0
C579 C 0.99029 0.0699 0.2173 0.0
C580 C 0.98272 0.0751 0.35206 0.0
O581 O 0.94891 0.117 0.27876 0.0
O582 O 0.91768 0.10919 0.31602 0.0
C583 C 0.85952 0.0622 0.28834 0.0
N584 N 0.87456 0.0477 0.30804 0.0
C585 C 0.82994 1.00486 0.30883 0.0
C586 C 0.81397 0.01956 0.28884 0.0
C587 C 0.82888 0.04821 0.27837 0.0
C588 C 0.86049 0.01979 0.31785 0.0
H589 H 0.87068 0.08433 0.2803 0.0
C590 C 0.92823 0.12716 0.2959 0.0
O591 O 1.00379 0.08189 0.24627 0.0
O592 O 0.96208 0.05904 0.22015 0.0
N593 N 0.90729 0.021 0.34275 0.0
C594 C 0.9262 1.00789 0.35969 0.0
C595 C 0.91501 0.97806 0.37027 0.0
C596 C 0.88444 0.96205 0.36368 0.0
C597 C 0.86535 0.97593 0.34636 0.0
C598 C 0.87779 1.0057 0.33627 0.0
H599 H 0.9497 0.01977 0.36512 0.0
O600 O 0.9605 1.01568 0.26787 0.0
O601 O 0.92826 0.04057 0.28743 0.0
O602 O 0.99033 0.07382 0.32279 0.0
O603 O 0.95586 0.07723 0.35602 0.0
C604 C 0.83451 0.96113 0.33838 0.0
C605 C 0.81679 0.97577 0.31989 0.0
H606 H 0.79032 1.00884 0.28112 0.0
H607 H 0.81674 0.0596 0.2628 0.0
H608 H 0.92995 0.96749 0.38356 0.0
H609 H 0.87589 0.93897 0.37182 0.0
H610 H 0.82422 0.93835 0.34616 0.0
H611 H 0.79306 0.96435 0.31424 0.0
Mn612 Mn 0.30401 0.65196 0.55436 0.0
Mn613 Mn 0.28319 0.59001 0.4916 0.0
C614 C 0.25414 0.63281 0.53569 0.0
C615 C 0.31237 0.6835 0.6051 0.0
C616 C 0.30659 0.65908 0.4869 0.0
O617 O 0.33738 0.63017 0.56004 0.0
O618 O 0.32634 0.60094 0.50889 0.0
C619 C 0.29453 0.53317 0.51895 0.0
N620 N 0.27636 0.54633 0.50135 0.0
C621 C 0.25175 0.49134 0.46924 0.0
C622 C 0.26979 0.47696 0.48735 0.0
C623 C 0.29083 0.49793 0.51282 0.0
C624 C 0.25465 0.52614 0.47843 0.0
H625 H 0.31215 0.54947 0.53679 0.0
C626 C 0.34406 0.613 0.53515 0.0
O627 O 0.32653 0.69397 0.58263 0.0
O628 O 0.29511 0.65293 0.59884 0.0
N629 N 0.24342 0.57587 0.47123 0.0
C630 C 0.22712 0.59408 0.4577 0.0
C631 C 0.20409 0.57712 0.43297 0.0
C632 C 0.20004 0.54234 0.42037 0.0
C633 C 0.21729 0.52432 0.43503 0.0
C634 C 0.23739 0.54198 0.46208 0.0
H635 H 0.23231 0.62136 0.46514 0.0
O636 O 0.26692 0.66487 0.5452 0.0
O637 O 0.27167 0.61193 0.53254 0.0
O638 O 0.32014 0.66596 0.51483 0.0
O639 O 0.28812 0.63119 0.476 0.0
C640 C 0.2165 0.49005 0.42325 0.0
C641 C 0.23277 0.47318 0.44099 0.0
H642 H 0.26818 0.45003 0.48144 0.0
H643 H 0.30516 0.48711 0.5266 0.0
H644 H 0.19057 0.59123 0.42295 0.0
H645 H 0.18361 0.52985 0.39966 0.0
H646 H 0.20324 0.47639 0.40071 0.0
H647 H 0.2312 0.44653 0.43216 0.0
Mn648 Mn 0.4636 0.56868 0.77151 0.0
Mn649 Mn 0.4126 0.56339 0.82685 0.0
C650 C 0.43286 0.51171 0.77767 0.0
C651 C 0.48762 0.56994 0.71566 0.0
C652 C 0.48055 0.57618 0.85043 0.0
O653 O 0.44621 0.61738 0.77681 0.0
O654 O 0.41472 0.6095 0.81381 0.0
C655 C 0.35676 0.56196 0.78712 0.0
N656 N 0.37217 0.54769 0.80669 0.0
C657 C 0.32778 0.505 0.80855 0.0
C658 C 0.31142 0.51951 0.78876 0.0
C659 C 0.32603 0.54795 0.77779 0.0
C660 C 0.35838 0.51996 0.81697 0.0
H661 H 0.36767 0.58396 0.77872 0.0
C662 C 0.42523 0.62743 0.79357 0.0
O663 O 0.50123 0.58216 0.74455 0.0
O664 O 0.45943 0.55914 0.71858 0.0
N665 N 0.40549 0.52153 0.84129 0.0
C666 C 0.42479 0.50833 0.8576 0.0
C667 C 0.41397 0.4784 0.86819 0.0
C668 C 0.38338 0.46239 0.86226 0.0
C669 C 0.36392 0.47631 0.84549 0.0
C670 C 0.37601 0.5061 0.83525 0.0
H671 H 0.44832 0.52013 0.8624 0.0
O672 O 0.45846 0.51626 0.76655 0.0
O673 O 0.42593 0.54088 0.7858 0.0
O674 O 0.48811 0.57473 0.82115 0.0
O675 O 0.45363 0.57816 0.8543 0.0
C676 C 0.33303 0.46149 0.83813 0.0
C677 C 0.31494 0.47607 0.82002 0.0
H678 H 0.2877 0.50879 0.78153 0.0
H679 H 0.31361 0.55919 0.76234 0.0
H680 H 0.42921 0.46774 0.88096 0.0
H681 H 0.37512 0.43925 0.87042 0.0
H682 H 0.32299 0.43873 0.8461 0.0
H683 H 0.29117 0.46474 0.81495 0.0
Mn684 Mn 0.71784 0.06681 0.73246 0.0
Mn685 Mn 0.77752 0.09671 0.7899 0.0
C686 C 0.74178 0.1231 0.74361 0.0
C687 C 0.69226 0.04404 0.68294 0.0
C688 C 0.71469 0.08128 0.8043 0.0
O689 O 0.72921 0.02429 0.73498 0.0
O690 O 0.76688 0.04704 0.77536 0.0
C691 C 0.82471 0.07803 0.75221 0.0
N692 N 0.81467 0.10125 0.77259 0.0
C693 C 0.86358 0.13963 0.78441 0.0
C694 C 0.87456 0.116 0.76376 0.0
C695 C 0.85496 0.0853 0.74723 0.0
C696 C 0.83322 0.13117 0.78805 0.0
H697 H 0.80983 0.05401 0.74034 0.0
C698 C 0.74949 0.0221 0.75517 0.0
O699 O 0.67998 0.04035 0.70855 0.0
O700 O 0.72043 0.05973 0.68583 0.0
N701 N 0.79078 0.14416 0.80728 0.0
C702 C 0.77574 0.16573 0.82277 0.0
C703 C 0.79162 0.19829 0.8393 0.0
C704 C 0.82282 0.20811 0.83991 0.0
C705 C 0.8376 0.18567 0.82308 0.0
C706 C 0.82058 0.15373 0.80688 0.0
H707 H 0.75181 0.15822 0.82201 0.0
O708 O 0.71371 0.1127 0.73213 0.0
O709 O 0.75568 0.10045 0.74931 0.0
O710 O 0.70303 0.06875 0.77564 0.0
O711 O 0.74235 0.09436 0.81235 0.0
C712 C 0.86844 0.19395 0.82115 0.0
C713 C 0.88149 0.17118 0.80165 0.0
H714 H 0.89796 0.1212 0.7603 0.0
H715 H 0.86328 0.06703 0.73114 0.0
H716 H 0.77985 0.21556 0.85168 0.0
H717 H 0.8352 0.23308 0.85279 0.0
H718 H 0.88216 0.21777 0.83459 0.0
H719 H 0.90523 0.17824 0.80001 0.0
Mn720 Mn 0.80035 0.71464 0.02746 0.0
Mn721 Mn 0.79153 0.64962 0.96327 0.0
C722 C 0.75134 0.67835 1.00659 0.0
C723 C 0.80726 0.73483 0.08649 0.0
C724 C 0.8124 0.72337 0.95751 0.0
O725 O 0.8417 0.7035 0.02764 0.0
O726 O 0.83063 0.65542 0.98868 0.0
C727 C 0.78991 0.58852 0.98914 0.0
N728 N 0.77617 0.60603 0.97154 0.0
C729 C 0.73611 0.55692 0.94945 0.0
C730 C 0.74964 0.5383 0.96749 0.0
C731 C 0.77655 0.55426 0.98763 0.0
C732 C 0.75019 0.59098 0.95225 0.0
H733 H 0.8111 0.60047 1.00377 0.0
C734 C 0.84838 0.67714 0.01161 0.0
O735 O 0.81442 0.75497 0.067 0.0
O736 O 0.79668 0.70352 0.07189 0.0
N737 N 0.75405 0.64276 0.93796 0.0
C738 C 0.74351 0.66467 0.92302 0.0
C739 C 0.71572 0.65342 0.90377 0.0
C740 C 0.69937 0.61968 0.89971 0.0
C741 C 0.71078 0.5977 0.91538 0.0
C742 C 0.73819 0.61062 0.93494 0.0
H743 H 0.75614 0.69051 0.92574 0.0
O744 O 0.7549 0.70944 0.02205 0.0
O745 O 0.77649 0.67068 1.00178 0.0
O746 O 0.80816 0.73742 0.98609 0.0
O747 O 0.80762 0.69149 0.94923 0.0
C748 C 0.69639 0.56333 0.91187 0.0
C749 C 0.70954 0.54288 0.92823 0.0
H750 H 0.73963 0.51174 0.966 0.0
H751 H 0.78724 0.54003 1.00148 0.0
H752 H 0.70711 0.6706 0.89182 0.0
H753 H 0.67814 0.61089 0.88446 0.0
H754 H 0.67558 0.55218 0.89616 0.0
H755 H 0.69947 0.51626 0.92371 0.0
Mn756 Mn 0.94155 0.54459 0.82182 0.0
Mn757 Mn 0.89104 0.52852 0.874 0.0
C758 C 0.92326 0.48916 0.82111 0.0
C759 C 0.95708 0.54898 0.77319 0.0
C760 C 0.95704 0.55683 0.89383 0.0
O761 O 0.92504 0.58509 0.82701 0.0
O762 O 0.89323 0.57312 0.86291 0.0
C763 C 0.83017 0.52645 0.84529 0.0
N764 N 0.85258 0.51106 0.84964 0.0
C765 C 0.82384 0.45831 0.8172 0.0
C766 C 0.80144 0.47431 0.80967 0.0
C767 C 0.80425 0.50833 0.82444 0.0
C768 C 0.84895 0.47784 0.83798 0.0
H769 H 0.83261 0.55257 0.85704 0.0
C770 C 0.90502 0.59146 0.84411 0.0
O771 O 0.97393 0.5655 0.79967 0.0
O772 O 0.92985 0.53318 0.77497 0.0
N773 N 0.88481 0.48612 0.88635 0.0
C774 C 0.89875 0.47807 0.91932 0.0
C775 C 0.90269 0.43827 0.92597 0.0
C776 C 0.89022 0.39975 0.893 0.0
C777 C 0.86595 0.42104 0.84085 0.0
C778 C 0.8684 0.46374 0.8527 0.0
H779 H 0.9084 0.49949 0.93893 0.0
O780 O 0.95115 0.50082 0.81833 0.0
O781 O 0.90824 0.51195 0.83195 0.0
O782 O 0.96311 0.56001 0.86622 0.0
O783 O 0.93089 0.54432 0.90021 0.0
C784 C 0.84149 0.40628 0.81538 0.0
C785 C 0.82079 0.42368 0.80573 0.0
H786 H 0.78134 0.46029 0.79372 0.0
H787 H 0.78654 0.52045 0.81979 0.0
H788 H 0.89799 0.41521 0.91276 0.0
H789 H 0.88927 0.37098 0.89383 0.0
H790 H 0.83505 0.38003 0.80523 0.0
H791 H 0.80142 0.40916 0.78888 0.0
Mn792 Mn 0.87303 0.45034 0.5326 0.0
Mn793 Mn 0.88061 0.50598 0.48497 0.0
C794 C 0.91929 0.47083 0.51826 0.0
C795 C 0.86983 0.43684 0.5815 0.0
C796 C 0.86045 0.43154 0.46025 0.0
O797 O 0.83465 0.46451 0.53423 0.0
O798 O 0.84075 0.49874 0.4996 0.0
C799 C 0.87921 0.56498 0.53587 0.0
N800 N 0.89322 0.54995 0.51243 0.0
C801 C 0.93329 0.60006 0.52022 0.0
C802 C 0.91937 0.61616 0.54442 0.0
C803 C 0.89223 0.59846 0.55236 0.0
C804 C 0.91949 0.5665 0.50501 0.0
H805 H 0.85825 0.5516 0.54191 0.0
C806 C 0.82529 0.4835 0.51824 0.0
O807 O 0.85727 0.41495 0.55532 0.0
O808 O 0.8835 0.46715 0.57921 0.0
N809 N 0.91765 0.51634 0.46856 0.0
C810 C 0.92783 0.49717 0.44435 0.0
C811 C 0.95407 0.51147 0.43273 0.0
C812 C 0.96896 0.54529 0.44587 0.0
C813 C 0.95848 0.56429 0.47107 0.0
C814 C 0.93211 0.54887 0.48142 0.0
H815 H 0.91584 0.47139 0.43373 0.0
O816 O 0.91335 0.44299 0.52861 0.0
O817 O 0.89829 0.48722 0.51836 0.0
O818 O 0.85944 0.42367 0.48738 0.0
O819 O 0.86847 0.4615 0.45577 0.0
C820 C 0.97265 0.59818 0.48564 0.0
C821 C 0.96012 0.61606 0.51026 0.0
H822 H 0.92927 0.64208 0.557 0.0
H823 H 0.88128 0.61068 0.57098 0.0
H824 H 0.96232 0.49686 0.41318 0.0
H825 H 0.9877 0.55699 0.4357 0.0
H826 H 0.99305 0.61077 0.47801 0.0
H827 H 0.97106 0.64222 0.52099 0.0
Mn828 Mn 0.70106 0.52787 0.27308 0.0
Mn829 Mn 0.75609 0.54801 0.33739 0.0
C830 C 0.73212 0.58809 0.29366 0.0
C831 C 0.67619 0.5231 0.21264 0.0
C832 C 0.68847 0.53 0.34981 0.0
O833 O 0.71938 0.47983 0.27116 0.0
O834 O 0.75286 0.49791 0.31599 0.0
C835 C 0.80965 0.54241 0.30455 0.0
N836 N 0.79502 0.56117 0.32435 0.0
C837 C 0.8377 0.6092 0.33555 0.0
C838 C 0.8532 0.59033 0.31541 0.0
C839 C 0.83907 0.55683 0.29976 0.0
C840 C 0.80843 0.59355 0.33937 0.0
H841 H 0.79907 0.51662 0.29252 0.0
C842 C 0.74091 0.47409 0.29087 0.0
O843 O 0.66263 0.51311 0.23584 0.0
O844 O 0.70468 0.53187 0.22293 0.0
N845 N 0.76337 0.59436 0.35948 0.0
C846 C 0.74452 0.61037 0.37543 0.0
C847 C 0.75502 0.64413 0.39221 0.0
C848 C 0.78469 0.66148 0.39164 0.0
C849 C 0.80337 0.64496 0.3739 0.0
C850 C 0.79173 0.61104 0.35814 0.0
H851 H 0.72151 0.59774 0.3746 0.0
O852 O 0.7046 0.58026 0.28077 0.0
O853 O 0.73991 0.56049 0.29731 0.0
O854 O 0.67913 0.52458 0.31881 0.0
O855 O 0.71696 0.53713 0.35789 0.0
C856 C 0.83298 0.66094 0.37093 0.0
C857 C 0.85014 0.64301 0.35186 0.0
H858 H 0.87588 0.60136 0.31165 0.0
H859 H 0.85087 0.54211 0.28412 0.0
H860 H 0.74018 0.65684 0.4052 0.0
H861 H 0.79271 0.68764 0.40437 0.0
H862 H 0.84269 0.68708 0.38299 0.0
H863 H 0.87288 0.65545 0.34985 0.0
Tb864 Tb 0.05436 0.02453 1.01049 0.0
C865 C 0.13076 0.15215 0.08695 0.0
C866 C 0.14181 0.18655 0.04752 0.0
C867 C 0.14654 0.21361 0.10387 0.0
C868 C 0.13222 0.15443 0.05518 0.0
C869 C 0.1379 0.1818 0.11161 0.0
C870 C 0.14872 0.21596 0.07194 0.0
C871 C 0.13206 0.14664 0.15052 0.0
N872 N 0.12503 0.12097 0.09403 0.0
C873 C 0.12773 0.11827 0.12567 0.0
C874 C 0.13728 0.17865 0.14354 0.0
Tb875 Tb 0.11781 0.07559 0.05089 0.0
N876 N 0.12625 0.1254 0.0321 0.0
C877 C 0.13062 0.12754 1.00096 0.0
C878 C 0.14531 0.18832 0.01572 0.0
C879 C 0.1397 0.15867 0.99238 0.0
H880 H 0.12595 0.09383 0.13173 0.0
H881 H 0.14239 0.15968 0.96762 0.0
H882 H 0.15625 0.24067 0.06643 0.0
H883 H 0.13176 0.14357 0.17502 0.0
H884 H 0.12586 0.10585 0.98152 0.0
H885 H 0.02812 0.94765 0.10025 0.0
H886 H 0.15273 0.21244 1.009 0.0
H887 H 0.04976 0.99969 0.92929 0.0
H888 H 0.05173 0.99789 0.08326 0.0
H889 H 0.04176 0.9465 0.88956 0.0
H890 H 0.15241 0.23654 0.12253 0.0
H891 H 1.00696 0.89425 0.06062 0.0
H892 H 0.99902 0.8625 1.00389 0.0
H893 H 0.14193 0.2008 0.16303 0.0
H894 H 1.00637 0.86152 0.9475 0.0
N895 N 0.0423 0.97651 0.03242 0.0
C896 C 0.04145 0.97631 0.06455 0.0
C897 C 0.01678 0.91699 0.0525 0.0
C898 C 0.01896 0.91631 0.02007 0.0
C899 C 0.02857 0.94703 0.07486 0.0
C900 C 0.03178 0.94675 1.01058 0.0
H901 H 0.02744 0.89173 0.90667 0.0
N902 N 0.04507 0.97612 0.9698 0.0
C903 C 0.03984 0.94603 0.91456 0.0
C904 C 0.03472 0.94631 0.97864 0.0
C905 C 0.04537 0.9762 0.93752 0.0
C906 C 0.0312 0.9154 0.924 0.0
C907 C 0.02648 0.91536 0.95575 0.0
O908 O 0.01463 1.00679 0.97878 0.0
O909 O 0.07559 0.07934 0.02606 0.0
O910 O 0.08457 0.07391 0.08943 0.0
O911 O 0.04058 0.04042 0.06097 0.0
O912 O 0.05842 0.06119 0.97894 0.0
O913 O 0.01642 0.04126 0.02461 0.0
O914 O 0.15937 0.09799 0.07877 0.0
O915 O 0.09675 0.02085 0.03505 0.0
O916 O 0.08784 0.02397 0.97241 0.0
O917 O 0.13083 0.06006 1.00026 0.0
O918 O 0.11741 0.03778 0.08094 0.0
O919 O 0.1563 0.06356 0.0338 0.0
C920 C 0.06949 0.08908 0.99972 0.0
C921 C 0.96881 0.02158 0.99007 0.0
C922 C 0.92628 0.04502 0.99844 0.0
C923 C 0.95598 0.04568 1.00732 0.0
C924 C 0.9091 0.01999 0.97277 0.0
C925 C 0.95157 0.99644 0.96441 0.0
C926 C 0.92173 0.99564 0.9559 0.0
C927 C 0.0553 0.05949 0.08927 0.0
C928 C 1.00033 0.02327 0.9981 0.0
C929 C 0.01347 0.8853 0.96501 0.0
C930 C 1.0092 0.88589 0.99703 0.0
C931 C 0.10421 1.01019 0.06051 0.0
C932 C 0.19629 0.06736 0.07309 0.0
C933 C 0.2111 0.04799 0.05251 0.0
C934 C 0.23417 0.03584 0.0651 0.0
C935 C 0.24269 0.04354 0.09848 0.0
C936 C 0.20508 0.07498 0.10646 0.0
C937 C 0.22821 0.06306 0.119 0.0
C938 C 0.11665 0.03984 0.97234 0.0
C939 C 0.17383 0.08203 0.05915 0.0
H940 H 0.96917 0.06543 0.02691 0.0
H941 H 0.88603 0.01953 0.96568 0.0
H942 H 0.96116 0.97753 0.95085 0.0
H943 H 0.90851 0.97638 0.93605 0.0
H944 H 0.2049 0.0426 0.02669 0.0
H945 H 0.261 0.03505 0.10864 0.0
H946 H 0.19446 0.09054 0.12283 0.0
H947 H 0.23515 0.06927 0.14465 0.0
Tb948 Tb 0.35473 0.78532 0.2465 0.0
C949 C 0.30908 0.88085 0.36668 0.0
C950 C 0.35719 0.93048 0.39144 0.0
C951 C 0.30665 0.93421 0.40266 0.0
C952 C 0.33914 0.88831 0.37431 0.0
C953 C 0.2927 0.90332 0.38095 0.0
C954 C 0.33759 0.94858 0.40706 0.0
C955 C 0.24928 0.86901 0.34481 0.0
N956 N 0.2969 0.85571 0.3401 0.0
C957 C 0.2672 0.84986 0.32922 0.0
C958 C 0.26201 0.8957 0.37079 0.0
Tb959 Tb 0.32448 0.81894 0.31663 0.0
N960 N 0.35554 0.86495 0.35256 0.0
C961 C 0.38797 0.87163 0.34313 0.0
C962 C 0.41005 0.94106 0.37376 0.0
C963 C 0.41452 0.90674 0.35188 0.0
H964 H 0.25679 0.82922 0.30919 0.0
H965 H 0.43656 0.9065 0.34552 0.0
H966 H 0.34453 0.97442 0.42062 0.0
H967 H 0.22569 0.86347 0.3364 0.0
H968 H 0.3959 0.85131 0.33092 0.0
H969 H 0.25416 0.70573 0.1697 0.0
H970 H 0.39774 0.94279 0.38019 0.0
H971 H 0.4213 0.77113 0.26012 0.0
H972 H 0.28219 0.75408 0.20979 0.0
H973 H 0.44786 0.7276 0.2419 0.0
H974 H 0.29279 0.94984 0.41373 0.0
H975 H 0.27741 0.65986 0.14775 0.0
H976 H 0.3224 0.6363 0.14682 0.0
H977 H 0.24819 0.91145 0.38166 0.0
H978 H 0.37474 0.64168 0.16711 0.0
N979 N 0.32317 0.73806 0.21188 0.0
C980 C 0.29397 0.73562 0.20059 0.0
C981 C 0.2904 0.68158 0.16555 0.0
C982 C 0.32005 0.6839 0.17663 0.0
C983 C 0.27728 0.70746 0.17777 0.0
C984 C 0.33593 0.71261 0.20011 0.0
H985 H 0.42145 0.67525 0.2028 0.0
N986 N 0.37914 0.74279 0.23472 0.0
C987 C 0.4244 0.72341 0.2336 0.0
C988 C 0.36488 0.71503 0.2121 0.0
C989 C 0.40905 0.7478 0.24437 0.0
C990 C 0.40946 0.69402 0.2115 0.0
C991 C 0.37946 0.68969 0.20013 0.0
O992 O 0.39352 0.80217 0.22561 0.0
O993 O 0.35067 0.83204 0.27646 0.0
O994 O 0.29928 0.83385 0.27647 0.0
O995 O 0.3148 0.80417 0.23108 0.0
O996 O 0.39282 0.8262 0.26646 0.0
O997 O 0.3488 0.79976 0.20242 0.0
O998 O 0.28697 0.79312 0.33398 0.0
O999 O 0.32753 0.77434 0.28267 0.0
O1000 O 0.37886 0.77214 0.28925 0.0
O1001 O 0.36475 0.80299 0.33441 0.0
O1002 O 0.2857 0.7814 0.29069 0.0
O1003 O 0.33161 0.79631 0.35544 0.0
C1004 C 0.37802 0.84794 0.27607 0.0
C1005 C 0.39106 0.82084 0.17609 0.0
C1006 C 0.40055 0.86721 0.14883 0.0
C1007 C 0.38436 0.84984 0.1693 0.0
C1008 C 0.42342 0.85476 0.13467 0.0
C1009 C 0.41419 0.80874 0.16258 0.0
C1010 C 0.43013 0.82555 0.14155 0.0
C1011 C 0.29657 0.82237 0.24445 0.0
C1012 C 0.37771 0.8078 0.20196 0.0
C1013 C 0.36392 0.66133 0.1766 0.0
C1014 C 0.3342 0.65837 0.16496 0.0
C1015 C 0.29985 0.76079 0.27651 0.0
C1016 C 0.29292 0.79182 0.38848 0.0
C1017 C 0.30423 0.77573 0.41025 0.0
C1018 C 0.28907 0.76944 0.43604 0.0
C1019 C 0.26431 0.78246 0.44245 0.0
C1020 C 0.26824 0.80541 0.39478 0.0
C1021 C 0.25448 0.80143 0.42224 0.0
C1022 C 0.38253 0.78446 0.32123 0.0
C1023 C 0.30303 0.78666 0.35692 0.0
H1024 H 0.36738 0.8598 0.18124 0.0
H1025 H 0.43581 0.86729 0.11805 0.0
H1026 H 0.42017 0.78682 0.16875 0.0
H1027 H 0.44787 0.81617 0.13085 0.0
H1028 H 0.32253 0.76407 0.40488 0.0
H1029 H 0.25185 0.77651 0.46193 0.0
H1030 H 0.2585 0.81729 0.37788 0.0
H1031 H 0.235 0.81104 0.42662 0.0
Tb1032 Tb 0.61688 0.05855 0.51574 0.0
C1033 C 0.515 1.00103 0.5859 0.0
C1034 C 0.48706 0.95196 0.54603 0.0
C1035 C 0.48625 0.95212 0.60282 0.0
C1036 C 0.50636 0.98477 0.55412 0.0
C1037 C 0.5045 0.98528 0.61065 0.0
C1038 C 0.47763 0.93544 0.57055 0.0
C1039 C 0.52932 0.03702 0.64883 0.0
N1040 N 0.53278 0.03292 0.59252 0.0
C1041 C 0.53934 0.05149 0.62343 0.0
C1042 C 0.51213 1.00362 0.64245 0.0
Tb1043 Tb 0.54919 0.05377 0.54968 0.0
N1044 N 0.51559 1.00181 0.53121 0.0
C1045 C 0.50422 0.98806 0.49957 0.0
C1046 C 0.47709 0.93713 0.51364 0.0
C1047 C 0.48533 0.95552 0.49037 0.0
H1048 H 0.55274 0.07726 0.62853 0.0
H1049 H 0.4772 0.94464 0.46525 0.0
H1050 H 0.46304 0.91013 0.56482 0.0
H1051 H 0.53489 0.05162 0.67329 0.0
H1052 H 0.50991 1.00113 0.48065 0.0
H1053 H 0.68881 0.16922 0.59804 0.0
H1054 H 0.46239 0.91192 0.50643 0.0
H1055 H 0.6156 0.03293 0.43742 0.0
H1056 H 0.65717 0.11191 0.58323 0.0
H1057 H 0.6323 0.05791 0.39185 0.0
H1058 H 0.47819 0.93941 0.62151 0.0
H1059 H 0.70166 0.20193 0.55631 0.0
H1060 H 0.69946 0.20318 0.49764 0.0
H1061 H 0.5044 0.99246 0.66217 0.0
H1062 H 0.68441 0.17268 0.44124 0.0
N1063 N 0.64999 0.1111 0.53294 0.0
C1064 C 0.66189 0.12521 0.56433 0.0
C1065 C 0.6874 0.17647 0.5495 0.0
C1066 C 0.67706 0.16119 0.51727 0.0
C1067 C 0.68024 0.1581 0.57307 0.0
C1068 C 0.65846 0.128 0.50974 0.0
H1069 H 0.66005 0.11809 0.40154 0.0
N1070 N 0.6334 0.07865 0.47241 0.0
C1071 C 0.63724 0.07323 0.41604 0.0
C1072 C 0.64999 0.11105 0.47827 0.0
C1073 C 0.6279 0.05913 0.4419 0.0
C1074 C 0.65284 0.10722 0.42159 0.0
C1075 C 0.65982 0.12647 0.45309 0.0
O1076 O 0.63326 1.01695 0.4961 0.0
O1077 O 0.57792 0.02342 0.52719 0.0
O1078 O 0.57667 0.03403 0.58089 0.0
O1079 O 0.62176 0.06132 0.56691 0.0
O1080 O 0.59062 1.01173 0.48295 0.0
O1081 O 0.65792 0.0533 0.53732 0.0
O1082 O 0.53476 0.09649 0.56995 0.0
O1083 O 0.58814 0.08928 0.5383 0.0
O1084 O 0.58857 0.07541 0.48242 0.0
O1085 O 0.54335 0.05195 0.49901 0.0
O1086 O 0.57634 0.09909 0.58332 0.0
O1087 O 0.50725 0.05955 0.53086 0.0
C1088 C 0.57242 0.99978 0.50169 0.0
C1089 C 0.68409 0.01783 0.50603 0.0
C1090 C 0.72233 0.98583 0.50717 0.0
C1091 C 0.69885 0.99743 0.5209 0.0
C1092 C 0.73121 0.99547 0.4789 0.0
C1093 C 0.69362 0.02742 0.47807 0.0
C1094 C 0.71712 1.01632 0.46467 0.0
C1095 C 0.60594 0.04498 0.58579 0.0
C1096 C 0.65649 0.02487 0.51752 0.0
C1097 C 0.67697 0.16017 0.46026 0.0
C1098 C 0.68553 0.17754 0.49236 0.0
C1099 C 0.59397 0.11211 0.56458 0.0
C1100 C 0.48406 0.09629 0.56508 0.0
C1101 C 0.46515 0.11207 0.5493 0.0
C1102 C 0.44219 0.12302 0.5648 0.0
C1103 C 0.43904 0.11888 0.59636 0.0
C1104 C 0.47994 0.09192 0.59633 0.0
C1105 C 0.45771 0.1034 0.6119 0.0
C1106 C 0.55914 0.06594 0.47884 0.0
C1107 C 0.51019 0.0885 0.55054 0.0
H1108 H 0.69142 0.98965 0.54236 0.0
H1109 H 0.74933 0.98709 0.46799 0.0
H1110 H 0.68245 0.04279 0.46618 0.0
H1111 H 0.72422 0.02357 0.44291 0.0
H1112 H 0.46816 0.11555 0.52515 0.0
H1113 H 0.42172 0.12729 0.60891 0.0
H1114 H 0.49436 0.08039 0.60906 0.0
H1115 H 0.45492 0.1003 0.63615 0.0
Tb1116 Tb 0.29957 0.309 0.7829 0.0
C1117 C 0.40441 0.264 0.83512 0.0
C1118 C 0.43004 0.31289 0.87643 0.0
C1119 C 0.43814 0.25776 0.87874 0.0
C1120 C 0.40999 0.29814 0.84796 0.0
C1121 C 0.41897 0.24349 0.84994 0.0
C1122 C 0.44371 0.29243 0.89193 0.0
C1123 C 0.39808 0.19738 0.80448 0.0
N1124 N 0.38687 0.25142 0.80656 0.0
C1125 C 0.38485 0.21893 0.79037 0.0
C1126 C 0.41503 0.20965 0.83457 0.0
Tb1127 Tb 0.36753 0.28874 0.78365 0.0
N1128 N 0.39653 0.31709 0.83209 0.0
C1129 C 0.40315 0.35158 0.84358 0.0
C1130 C 0.43613 0.34781 0.88827 0.0
C1131 C 0.42262 0.3672 0.87169 0.0
H1132 H 0.37246 0.20943 0.76662 0.0
H1133 H 0.42713 0.3943 0.88053 0.0
H1134 H 0.45905 0.30328 0.91382 0.0
H1135 H 0.39557 0.17148 0.79192 0.0
H1136 H 0.39293 0.36784 0.83235 0.0
H1137 H 0.24057 0.20167 0.68774 0.0
H1138 H 0.45134 0.36004 0.91001 0.0
H1139 H 0.29236 0.38779 0.79798 0.0
H1140 H 0.27052 0.22886 0.73893 0.0
H1141 H 0.27129 0.425 0.76911 0.0
H1142 H 0.44942 0.24238 0.89052 0.0
H1143 H 0.22314 0.2359 0.65268 0.0
H1144 H 0.2188 0.29283 0.64493 0.0
H1145 H 0.42581 0.1931 0.8452 0.0
H1146 H 0.22741 0.35387 0.66706 0.0
N1147 N 0.2714 0.27965 0.7345 0.0
C1148 C 0.26317 0.24495 0.72494 0.0
C1149 C 0.23648 0.24836 0.67555 0.0
C1150 C 0.2433 0.2835 0.68605 0.0
C1151 C 0.24612 0.22898 0.69533 0.0
C1152 C 0.26086 0.29852 0.71603 0.0
H1153 H 0.24663 0.40325 0.71356 0.0
N1154 N 0.28094 0.34555 0.75811 0.0
C1155 C 0.27 0.39923 0.75732 0.0
C1156 C 0.26588 0.33271 0.72826 0.0
C1157 C 0.28183 0.37803 0.77345 0.0
C1158 C 0.25608 0.38685 0.72585 0.0
C1159 C 0.25326 0.35302 0.71117 0.0
O1160 O 0.27805 0.33204 0.81929 0.0
O1161 O 0.33498 0.30164 0.81595 0.0
O1162 O 0.33645 0.24102 0.79272 0.0
O1163 O 0.29102 0.25516 0.79059 0.0
O1164 O 0.32355 0.34693 0.82415 0.0
O1165 O 0.2579 0.28181 0.79265 0.0
O1166 O 0.3901 0.26643 0.74761 0.0
O1167 O 0.33183 0.29587 0.75129 0.0
O1168 O 0.33076 0.35675 0.77396 0.0
O1169 O 0.37646 0.34362 0.77969 0.0
O1170 O 0.34502 0.2517 0.74044 0.0
O1171 O 0.40758 0.31782 0.77229 0.0
C1172 C 0.33809 0.32916 0.83737 0.0
C1173 C 0.22604 0.31315 0.81821 0.0
C1174 C 0.18276 0.31247 0.8475 0.0
C1175 C 0.20949 0.30284 0.84246 0.0
C1176 C 0.17267 0.33228 0.82803 0.0
C1177 C 0.21514 0.33208 0.79842 0.0
C1178 C 0.18868 0.34177 0.80349 0.0
C1179 C 0.30675 0.23229 0.79313 0.0
C1180 C 0.25553 0.30606 0.81573 0.0
C1181 C 0.23705 0.3386 0.68065 0.0
C1182 C 0.23212 0.30386 0.66808 0.0
C1183 C 0.32865 0.26898 0.7293 0.0
C1184 C 0.44218 0.28859 0.74992 0.0
C1185 C 0.45951 0.29831 0.72587 0.0
C1186 C 0.48877 0.29373 0.7255 0.0
C1187 C 0.50008 0.27871 0.74882 0.0
C1188 C 0.45421 0.2738 0.77291 0.0
C1189 C 0.48285 0.26871 0.77223 0.0
C1190 C 0.36071 0.36617 0.77608 0.0
C1191 C 0.41156 0.29339 0.7504 0.0
H1192 H 0.21762 0.28795 0.85771 0.0
H1193 H 0.15207 0.33988 0.83148 0.0
H1194 H 0.2271 0.33965 0.7793 0.0
H1195 H 0.18056 0.35671 0.78836 0.0
H1196 H 0.45045 0.30967 0.70785 0.0
H1197 H 0.52229 0.27445 0.74875 0.0
H1198 H 0.44158 0.26604 0.79139 0.0
H1199 H 0.49177 0.25702 0.79 0.0
Tb1200 Tb 0.07699 0.08751 0.55022 0.0
C1201 C 0.11232 0.98408 0.44718 0.0
C1202 C 0.068 0.96289 0.40831 0.0
C1203 C 0.11481 0.95091 0.39433 0.0
C1204 C 0.08236 0.98108 0.43906 0.0
C1205 C 0.12867 0.96801 0.4253 0.0
C1206 C 0.08454 0.94853 0.38578 0.0
C1207 C 0.17042 0.98415 0.46713 0.0
N1208 N 0.12479 1.00027 0.47747 0.0
C1209 C 0.1538 1.0008 0.4875 0.0
C1210 C 0.15786 0.96774 0.43583 0.0
Tb1211 Tb 0.09223 1.01348 0.51304 0.0
N1212 N 0.06686 0.99378 0.46204 0.0
C1213 C 0.0365 0.98828 0.45571 0.0
C1214 C 0.0372 0.95821 0.4016 0.0
C1215 C 0.02138 0.97078 0.42546 0.0
H1216 H 0.16344 1.01234 0.51208 0.0
H1217 H 0.99747 0.96659 0.42048 0.0
H1218 H 0.07387 0.9345 0.36209 0.0
H1219 H 0.1926 0.98322 0.47594 0.0
H1220 H 0.02357 0.99721 0.47382 0.0
H1221 H 0.17903 0.13076 0.63264 0.0
H1222 H 0.02532 0.94423 0.37838 0.0
H1223 H 1.00659 0.08995 0.5612 0.0
H1224 H 0.14942 0.10651 0.58053 0.0
H1225 H 0.97858 0.10359 0.60669 0.0
H1226 H 0.12707 0.93861 0.37716 0.0
H1227 H 0.15433 0.14313 0.68117 0.0
H1228 H 0.10728 0.14518 0.70543 0.0
H1229 H 0.17082 0.95472 0.42011 0.0
H1230 H 0.05283 0.13705 0.69852 0.0
N1231 N 0.10704 0.10305 0.59838 0.0
C1232 C 0.13768 0.11135 0.601 0.0
C1233 C 0.14086 0.13188 0.65814 0.0
C1234 C 0.10968 0.12503 0.6553 0.0
C1235 C 0.15489 0.1251 0.63083 0.0
C1236 C 0.09308 0.11037 0.62474 0.0
H1237 H 1.00477 0.12128 0.66206 0.0
N1238 N 0.04732 0.09511 0.59063 0.0
C1239 C 1.00196 0.10388 0.6111 0.0
C1240 C 0.06226 0.10582 0.62084 0.0
C1241 C 0.01771 0.09548 0.58546 0.0
C1242 C 0.01683 0.11382 0.64226 0.0
C1243 C 0.04743 0.11576 0.64739 0.0
O1244 O 0.06331 0.13235 0.56369 0.0
O1245 O 0.07012 0.05377 0.50182 0.0
O1246 O 0.12895 0.05255 0.50201 0.0
O1247 O 0.12069 0.10127 0.5324 0.0
O1248 O 0.0464 0.08806 0.50778 0.0
O1249 O 0.1024 0.13247 0.54005 0.0
O1250 O 0.11196 0.97525 0.5224 0.0
O1251 O 0.09531 0.04528 0.56235 0.0
O1252 O 0.03571 0.04731 0.5511 0.0
O1253 O 0.047 0.99833 0.52562 0.0
O1254 O 0.12591 0.01891 0.55512 0.0
O1255 O 0.06336 0.96615 0.51413 0.0
C1256 C 0.05186 0.06629 0.48446 0.0
C1257 C 0.07348 0.17027 0.52941 0.0
C1258 C 0.08309 0.20408 0.4892 0.0
C1259 C 0.0926 0.18449 0.50907 0.0
C1260 C 0.05465 0.21032 0.49027 0.0
C1261 C 0.04504 0.17686 0.5304 0.0
C1262 C 0.03578 0.19687 0.51095 0.0
C1263 C 0.13701 0.08556 0.51382 0.0
C1264 C 0.08369 0.14987 0.55043 0.0
C1265 C 0.06382 0.12915 0.67793 0.0
C1266 C 0.09485 0.13383 0.68186 0.0
C1267 C 0.11781 0.03797 0.57848 0.0
C1268 C 0.08392 0.92011 0.5248 0.0
C1269 C 0.06659 0.90776 0.54736 0.0
C1270 C 0.068 0.87677 0.55474 0.0
C1271 C 0.08659 0.85815 0.53911 0.0
C1272 C 0.10253 0.90156 0.50948 0.0
C1273 C 0.10369 0.87051 0.51652 0.0
C1274 C 0.02853 1.01397 0.54036 0.0
C1275 C 0.08623 0.95452 0.52114 0.0
H1276 H 0.11492 0.18065 0.5088 0.0
H1277 H 0.04738 0.22627 0.47565 0.0
H1278 H 0.02998 0.16679 0.54634 0.0
H1279 H 0.01401 0.20212 0.51206 0.0
H1280 H 0.05281 0.92263 0.55981 0.0
H1281 H 0.08827 0.83431 0.54482 0.0
H1282 H 0.11657 0.91143 0.49258 0.0
H1283 H 0.11824 0.8563 0.50487 0.0
Tb1284 Tb 0.36302 0.82131 0.78054 0.0
C1285 C 0.28171 0.72202 0.83829 0.0
C1286 C 0.29242 0.6695 0.81267 0.0
C1287 C 0.27484 0.67485 0.86513 0.0
C1288 C 0.29156 0.70323 0.81285 0.0
C1289 C 0.27251 0.70778 0.86435 0.0
C1290 C 0.28472 0.65572 0.8393 0.0
C1291 C 0.25574 0.75789 0.88468 0.0
N1292 N 0.27936 0.75357 0.83648 0.0
C1293 C 0.26478 0.77067 0.85807 0.0
C1294 C 0.26013 0.72656 0.88815 0.0
Tb1295 Tb 0.29504 0.7721 0.79221 0.0
N1296 N 0.2987 0.71735 0.78752 0.0
C1297 C 0.30583 0.69841 0.7606 0.0
C1298 C 0.30032 0.65038 0.78548 0.0
C1299 C 0.3068 0.66486 0.75921 0.0
H1300 H 0.26063 0.79443 0.85494 0.0
H1301 H 0.31289 0.65034 0.73799 0.0
H1302 H 0.28562 0.63001 0.83979 0.0
H1303 H 0.2451 0.77201 0.90228 0.0
H1304 H 0.31174 0.70902 0.74026 0.0
H1305 H 0.34865 0.94542 0.83164 0.0
H1306 H 0.30123 0.62439 0.7844 0.0
H1307 H 0.39787 0.79705 0.71871 0.0
H1308 H 0.34995 0.88705 0.83174 0.0
H1309 H 0.41405 0.81814 0.67089 0.0
H1310 H 0.26818 0.66356 0.88512 0.0
H1311 H 0.35668 0.9679 0.7827 0.0
H1312 H 0.37022 0.95939 0.72654 0.0
H1313 H 0.25281 0.71652 0.9086 0.0
H1314 H 0.38756 0.92437 0.68226 0.0
N1315 N 0.35832 0.87531 0.78273 0.0
C1316 C 0.35342 0.89599 0.80994 0.0
C1317 C 0.35715 0.94192 0.78243 0.0
C1318 C 0.36349 0.92128 0.75519 0.0
C1319 C 0.35273 0.92941 0.81013 0.0
C1320 C 0.36414 0.88772 0.75615 0.0
H1321 H 0.40443 0.87183 0.66148 0.0
N1322 N 0.37736 0.83717 0.73466 0.0
C1323 C 0.4025 0.83219 0.68748 0.0
C1324 C 0.37392 0.86796 0.7312 0.0
C1325 C 0.39328 0.82029 0.71448 0.0
C1326 C 0.39689 0.86244 0.68217 0.0
C1327 C 0.38332 0.88127 0.70469 0.0
O1328 O 0.40508 0.81321 0.79237 0.0
O1329 O 0.34392 0.77043 0.79088 0.0
O1330 O 0.319 0.78702 0.83938 0.0
O1331 O 0.35473 0.83185 0.83022 0.0
O1332 O 0.37998 0.77461 0.76803 0.0
O1333 O 0.3977 0.86237 0.80653 0.0
O1334 O 0.25201 0.77965 0.79054 0.0
O1335 O 0.31548 0.8236 0.78454 0.0
O1336 O 0.33988 0.80119 0.73217 0.0
O1337 O 0.30023 0.76139 0.7426 0.0
O1338 O 0.27724 0.81894 0.80206 0.0
O1339 O 0.2609 0.73654 0.75921 0.0
C1340 C 0.36323 0.75198 0.78033 0.0
C1341 C 0.44617 0.85791 0.79646 0.0
C1342 C 0.49846 0.85795 0.80198 0.0
C1343 C 0.47062 0.8519 0.81312 0.0
C1344 C 0.50147 0.86954 0.77335 0.0
C1345 C 0.44972 0.87175 0.76914 0.0
C1346 C 0.47732 0.87714 0.75738 0.0
C1347 C 0.3404 0.81445 0.84931 0.0
C1348 C 0.41707 0.84446 0.80585 0.0
C1349 C 0.3807 0.91381 0.7026 0.0
C1350 C 0.37085 0.93379 0.72783 0.0
C1351 C 0.29512 0.84165 0.79105 0.0
C1352 C 0.21095 0.73448 0.77025 0.0
C1353 C 0.18767 0.74308 0.75383 0.0
C1354 C 0.15788 0.7289 0.75693 0.0
C1355 C 0.15174 0.70583 0.77724 0.0
C1356 C 0.20479 0.71185 0.79066 0.0
C1357 C 0.17512 0.69752 0.79406 0.0
C1358 C 0.31653 0.77527 0.7229 0.0
C1359 C 0.24105 0.75305 0.7678 0.0
H1360 H 0.46762 0.84098 0.83413 0.0
H1361 H 0.52236 0.87292 0.76349 0.0
H1362 H 0.43126 0.87759 0.75652 0.0
H1363 H 0.47991 0.88676 0.73569 0.0
H1364 H 0.19302 0.76196 0.73942 0.0
H1365 H 0.12897 0.69402 0.78001 0.0
H1366 H 0.22271 0.70564 0.80409 0.0
H1367 H 0.17021 0.68003 0.80983 0.0
Tb1368 Tb 0.58661 0.03859 0.067 0.0
C1369 C 0.54343 0.09243 0.94686 0.0
C1370 C 0.53505 0.04359 0.90312 0.0
C1371 C 0.52601 0.09614 0.8929 0.0
C1372 C 0.54446 0.05952 0.93569 0.0
C1373 C 0.53318 0.11088 0.92589 0.0
C1374 C 0.5267 0.06238 0.88157 0.0
C1375 C 0.54071 0.15799 0.97109 0.0
N1376 N 0.55366 0.10676 0.9781 0.0
C1377 C 0.55335 0.13967 0.99008 0.0
C1378 C 0.53096 0.14369 0.93863 0.0
Tb1379 Tb 0.58417 0.07992 1.00202 0.0
N1380 N 0.55477 0.04324 0.95692 0.0
C1381 C 0.5521 1.00899 0.94757 0.0
C1382 C 0.534 1.00923 0.8933 0.0
C1383 C 0.5413 0.99158 0.91602 0.0
H1384 H 0.56527 0.15284 0.01335 0.0
H1385 H 0.53946 0.96467 0.90915 0.0
H1386 H 0.52002 0.05082 0.85632 0.0
H1387 H 0.54053 0.18395 0.98088 0.0
H1388 H 0.55899 0.99439 0.96362 0.0
H1389 H 0.64483 0.15597 0.15183 0.0
H1390 H 0.52653 0.99589 0.86859 0.0
H1391 H 0.59686 0.96149 0.06033 0.0
H1392 H 0.60409 0.11943 0.11328 0.0
H1393 H 0.63536 0.93465 0.07854 0.0
H1394 H 0.51886 0.11019 0.87622 0.0
H1395 H 0.68814 0.13514 0.16822 0.0
H1396 H 0.71253 0.08698 0.1652 0.0
H1397 H 0.52263 0.15849 0.92347 0.0
H1398 H 0.71012 0.02673 0.14513 0.0
N1399 N 0.62279 0.07608 0.10631 0.0
C1400 C 0.62198 0.10865 0.11987 0.0
C1401 C 0.66999 0.11843 0.151 0.0
C1402 C 0.67035 0.08498 0.13833 0.0
C1403 C 0.64554 0.13018 0.14193 0.0
C1404 C 0.64619 0.06426 0.11582 0.0
H1405 H 0.68127 0.96968 0.11321 0.0
N1406 N 0.621 1.01155 0.08368 0.0
C1407 C 0.63856 0.96176 0.08577 0.0
C1408 C 0.64516 0.03075 0.10419 0.0
C1409 C 0.61677 0.9771 0.07559 0.0
C1410 C 0.66444 0.98162 0.10524 0.0
C1411 C 0.66777 1.01647 0.1152 0.0
O1412 O 0.56041 0.9958 0.07943 0.0
O1413 O 0.5591 0.04724 0.02827 0.0
O1414 O 0.5553 0.10102 0.0347 0.0
O1415 O 0.5658 0.08088 0.08052 0.0
O1416 O 0.55357 0.99858 0.03275 0.0
O1417 O 0.56356 0.04657 0.10656 0.0
O1418 O 0.61036 0.12566 0.99485 0.0
O1419 O 0.61138 0.07057 0.0399 0.0
O1420 O 0.60989 1.01229 0.03179 0.0
O1421 O 0.60265 0.03607 0.98752 0.0
O1422 O 0.61462 0.11959 0.03891 0.0
O1423 O 0.61526 0.0773 0.96933 0.0
C1424 C 0.54307 0.01792 0.01728 0.0
C1425 C 0.55402 1.00327 0.13418 0.0
C1426 C 0.53423 1.00406 0.18443 0.0
C1427 C 0.53507 1.01374 0.15525 0.0
C1428 C 0.55237 0.98362 0.19294 0.0
C1429 C 0.57278 0.98327 0.14245 0.0
C1430 C 0.57188 0.97344 0.17191 0.0
C1431 C 0.55373 0.10061 0.06557 0.0
C1432 C 0.55297 1.01425 0.10416 0.0
C1433 C 0.69239 0.03716 0.13665 0.0
C1434 C 0.69373 0.07142 0.14811 0.0
C1435 C 0.62762 0.09974 0.05098 0.0
C1436 C 0.61981 0.12048 0.94101 0.0
C1437 C 0.63111 0.10338 0.9154 0.0
C1438 C 0.63042 0.1133 0.88618 0.0
C1439 C 0.61645 0.13878 0.88149 0.0
C1440 C 0.60709 0.14723 0.93688 0.0
C1441 C 0.60446 0.15547 0.90684 0.0
C1442 C 0.61174 1.01358 1.00133 0.0
C1443 C 0.62191 0.10995 0.97157 0.0
H1444 H 0.52067 0.02938 0.14885 0.0
H1445 H 0.55164 0.97595 0.21574 0.0
H1446 H 0.58778 0.97508 0.1264 0.0
H1447 H 0.58619 0.95792 0.17838 0.0
H1448 H 0.64225 0.08378 0.91882 0.0
H1449 H 0.61646 0.14703 0.85895 0.0
H1450 H 0.59938 0.16189 0.95672 0.0
H1451 H 0.59432 0.17579 0.90363 0.0
Tb1452 Tb 0.35873 0.34246 0.30368 0.0
C1453 C 0.24032 0.22879 0.23553 0.0
C1454 C 0.21349 0.21502 0.27941 0.0
C1455 C 0.1905 0.19095 0.2246 0.0
C1456 C 0.23954 0.23149 0.26797 0.0
C1457 C 0.21575 0.20852 0.21334 0.0
C1458 C 0.18925 0.19432 0.25755 0.0
C1459 C 0.24331 0.2231 0.17043 0.0
N1460 N 0.26545 0.24546 0.22565 0.0
C1461 C 0.26715 0.24248 0.19328 0.0
C1462 C 0.2175 0.20585 0.1805 0.0
Tb1463 Tb 0.30726 0.26604 0.26355 0.0
N1464 N 0.26385 0.25117 0.28827 0.0
C1465 C 0.2616 0.25749 0.32082 0.0
C1466 C 0.21231 0.22004 0.31242 0.0
C1467 C 0.23625 0.24194 0.33315 0.0
H1468 H 0.28807 0.25182 0.18489 0.0
H1469 H 0.23523 0.24705 0.35881 0.0
H1470 H 0.16933 0.18104 0.26588 0.0
H1471 H 0.2454 0.2203 0.14505 0.0
H1472 H 0.27873 0.27516 0.33819 0.0
H1473 H 0.43203 0.37282 0.2146 0.0
H1474 H 0.19272 0.20791 0.32207 0.0
H1475 H 0.37411 0.35314 0.38289 0.0
H1476 H 0.38487 0.35485 0.2336 0.0
H1477 H 0.41792 0.3725 0.42338 0.0
H1478 H 0.1718 0.17488 0.20809 0.0
H1479 H 0.47894 0.3851 0.25078 0.0
H1480 H 0.50376 0.39411 0.30617 0.0
H1481 H 0.1994 0.19003 0.16273 0.0
H1482 H 0.49963 0.39567 0.36263 0.0
N1483 N 0.40275 0.35246 0.28075 0.0
C1484 C 0.40424 0.35887 0.25041 0.0
C1485 C 0.45782 0.37591 0.25935 0.0
C1486 C 0.45648 0.3727 0.29109 0.0
C1487 C 0.43149 0.36929 0.23901 0.0
C1488 C 0.4284 0.36036 0.3012 0.0
H1489 H 0.46822 0.38707 0.40688 0.0
N1490 N 0.39884 0.35081 0.34245 0.0
C1491 C 0.42076 0.36835 0.39812 0.0
C1492 C 0.42635 0.35995 0.33318 0.0
C1493 C 0.39592 0.35637 0.37481 0.0
C1494 C 0.44907 0.37659 0.3887 0.0
C1495 C 0.45213 0.37309 0.35603 0.0
O1496 O 0.36029 0.38425 0.3404 0.0
O1497 O 0.31123 0.31838 0.2877 0.0
O1498 O 0.30675 0.30052 0.22893 0.0
O1499 O 0.34199 0.34986 0.25527 0.0
O1500 O 0.3251 0.34268 0.33501 0.0
O1501 O 0.36729 0.3907 0.29277 0.0
O1502 O 0.3026 0.2203 0.23052 0.0
O1503 O 0.3542 0.29258 0.27596 0.0
O1504 O 0.35644 0.30677 0.33747 0.0
O1505 O 0.31728 0.26049 0.3134 0.0
O1506 O 0.33754 0.26993 0.22816 0.0
O1507 O 0.32907 0.23057 0.27629 0.0
C1508 C 0.30213 0.32804 0.31438 0.0
C1509 C 0.35013 0.43169 0.32706 0.0
C1510 C 0.30955 0.4544 0.3113 0.0
C1511 C 0.32482 0.42916 0.30619 0.0
C1512 C 0.31921 0.48198 0.33772 0.0
C1513 C 0.35988 0.459 0.35352 0.0
C1514 C 0.34432 0.48412 0.35889 0.0
C1515 C 0.32407 0.3311 0.22888 0.0
C1516 C 0.36627 0.40567 0.32221 0.0
C1517 C 0.47989 0.3847 0.34577 0.0
C1518 C 0.48218 0.38405 0.31342 0.0
C1519 C 0.36115 0.2855 0.24781 0.0
C1520 C 0.30816 0.17324 0.25065 0.0
C1521 C 0.32286 0.16201 0.27424 0.0
C1522 C 0.32087 0.1278 0.27126 0.0
C1523 C 0.30247 0.10395 0.24564 0.0
C1524 C 0.28906 0.14956 0.22513 0.0
C1525 C 0.2859 0.1149 0.223 0.0
C1526 C 0.33657 0.27836 0.33876 0.0
C1527 C 0.31857 0.20874 0.24941 0.0
H1528 H 0.31736 0.40807 0.28563 0.0
H1529 H 0.30796 0.50232 0.34129 0.0
H1530 H 0.37948 0.46083 0.36992 0.0
H1531 H 0.35198 0.50544 0.3791 0.0
H1532 H 0.33879 0.18006 0.2931 0.0
H1533 H 0.30184 0.07731 0.2426 0.0
H1534 H 0.27781 0.15775 0.20611 0.0
H1535 H 0.2719 0.09669 0.20292 0.0
Tb1536 Tb 0.57461 0.58435 0.0454 0.0
C1537 C 0.61429 0.48891 0.94574 0.0
C1538 C 0.57319 0.4712 0.90238 0.0
C1539 C 0.62143 0.46105 0.89228 0.0
C1540 C 0.58478 0.48702 0.93472 0.0
C1541 C 0.63227 0.47431 0.92486 0.0
C1542 C 0.59198 0.45962 0.88105 0.0
C1543 C 0.66887 0.48175 0.97066 0.0
N1544 N 0.62349 0.49942 0.97793 0.0
C1545 C 0.65023 0.49546 0.99056 0.0
C1546 C 0.65961 0.47061 0.93778 0.0
Tb1547 Tb 0.58813 0.51205 1.00959 0.0
N1548 N 0.56643 0.4957 0.95661 0.0
C1549 C 0.53607 0.48699 0.9474 0.0
C1550 C 0.54254 0.46467 0.8929 0.0
C1551 C 0.52388 0.47217 0.91565 0.0
H1552 H 0.65693 0.5024 0.01621 0.0
H1553 H 0.49994 0.46601 0.90888 0.0
H1554 H 0.58343 0.44758 0.85622 0.0
H1555 H 0.68995 0.47878 0.98082 0.0
H1556 H 0.52033 0.49121 0.96382 0.0
H1557 H 0.68166 0.63716 0.11779 0.0
H1558 H 0.53287 0.45234 0.86844 0.0
H1559 H 0.5048 0.57987 0.06236 0.0
H1560 H 0.64821 0.60138 0.07085 0.0
H1561 H 0.48011 0.59962 0.10896 0.0
H1562 H 0.63512 0.45011 0.87592 0.0
H1563 H 0.66089 0.66185 0.16567 0.0
H1564 H 0.61599 0.66733 0.19341 0.0
H1565 H 0.67362 0.45869 0.92259 0.0
H1566 H 0.56136 0.65502 0.1918 0.0
N1567 N 0.60809 0.6053 0.09096 0.0
C1568 C 0.63845 0.61164 0.0912 0.0
C1569 C 0.6459 0.64595 0.14496 0.0
C1570 C 0.6149 0.63884 0.14503 0.0
C1571 C 0.6577 0.63204 0.11801 0.0
C1572 C 0.5963 0.61826 0.1173 0.0
H1573 H 0.51065 0.62946 0.16075 0.0
N1574 N 0.54832 0.59449 0.08825 0.0
C1575 C 0.50408 0.60291 0.11151 0.0
C1576 C 0.56548 0.61184 0.11621 0.0
C1577 C 0.518 0.5913 0.08531 0.0
C1578 C 0.5214 0.61973 0.14063 0.0
C1579 C 0.5525 0.62511 0.14306 0.0
O1580 O 0.55051 0.62094 0.04457 0.0
O1581 O 0.57184 0.55517 0.99457 0.0
O1582 O 0.63062 0.55027 1.00857 0.0
O1583 O 0.61423 0.599 0.02036 0.0
O1584 O 0.53671 0.57351 1.00656 0.0
O1585 O 0.59855 0.63493 0.04836 0.0
O1586 O 0.58684 0.4611 0.99115 0.0
O1587 O 0.59772 0.54614 0.05835 0.0
O1588 O 0.54141 0.54322 0.05976 0.0
O1589 O 0.54028 0.50408 0.01484 0.0
O1590 O 0.61683 0.50778 0.05236 0.0
O1591 O 0.56569 0.47497 0.03275 0.0
C1592 C 0.54643 0.55916 0.98134 0.0
C1593 C 0.57141 0.67154 0.0296 0.0
C1594 C 0.58684 0.70635 0.99141 0.0
C1595 C 0.59012 0.68009 1.00653 0.0
C1596 C 0.56505 0.724 0.99951 0.0
C1597 C 0.54973 0.68942 0.03741 0.0
C1598 C 0.54658 0.7155 0.02242 0.0
C1599 C 0.63493 0.58336 1.01082 0.0
C1600 C 0.57418 0.64548 0.04747 0.0
C1601 C 0.57094 0.64459 0.171 0.0
C1602 C 0.60205 0.65169 0.17188 0.0
C1603 C 0.61372 0.53117 0.07569 0.0
C1604 C 0.58135 0.42428 0.02697 0.0
C1605 C 0.56373 0.40982 0.04829 0.0
C1606 C 0.56988 0.38241 0.05938 0.0
C1607 C 0.59361 0.36911 0.04901 0.0
C1608 C 0.60521 0.41097 0.0167 0.0
C1609 C 0.6112 0.3834 0.02771 0.0
C1610 C 0.52749 0.51448 0.0399 0.0
C1611 C 0.57206 0.45039 0.01312 0.0
H1612 H 0.60704 0.66674 1.00052 0.0
H1613 H 0.5627 0.74476 0.98843 0.0
H1614 H 0.53536 0.68335 0.05544 0.0
H1615 H 0.52998 0.72935 0.02878 0.0
H1616 H 0.54484 0.4194 0.05574 0.0
H1617 H 0.5981 0.3473 0.05692 0.0
H1618 H 0.6188 0.42129 0.99971 0.0
H1619 H 0.62923 0.3728 0.0194 0.0
Tb1620 Tb 0.86728 0.32051 0.28474 0.0
C1621 C 0.80437 0.22726 0.339 0.0
C1622 C 0.80855 0.17471 0.30552 0.0
C1623 C 0.80838 0.17955 0.36295 0.0
C1624 C 0.80644 0.20857 0.30905 0.0
C1625 C 0.80456 0.21248 0.36614 0.0
C1626 C 0.81023 0.16064 0.33269 0.0
C1627 C 0.79145 0.26093 0.39662 0.0
N1628 N 0.79907 0.25836 0.34097 0.0
C1629 C 0.79053 0.27399 0.36899 0.0
C1630 C 0.79909 0.23032 0.39538 0.0
Tb1631 Tb 0.79801 0.27648 0.29287 0.0
N1632 N 0.80408 0.22254 0.28304 0.0
C1633 C 0.80068 0.20274 0.25284 0.0
C1634 C 0.80823 0.15565 0.27468 0.0
C1635 C 0.80376 0.1696 0.24817 0.0
H1636 H 0.78193 0.29613 0.37 0.0
H1637 H 0.8017 0.1545 0.22408 0.0
H1638 H 0.81225 0.13487 0.33043 0.0
H1639 H 0.78532 0.274 0.4186 0.0
H1640 H 0.79414 0.21147 0.23216 0.0
H1641 H 0.86042 0.44534 0.34288 0.0
H1642 H 0.8101 0.12973 0.27104 0.0
H1643 H 0.89688 0.2996 0.21633 0.0
H1644 H 0.86373 0.38706 0.33997 0.0
H1645 H 0.90268 0.31955 0.16608 0.0
H1646 H 0.80875 0.16798 0.38357 0.0
H1647 H 0.85839 0.46743 0.29328 0.0
H1648 H 0.86191 0.4586 0.23419 0.0
H1649 H 0.79902 0.21978 0.41667 0.0
H1650 H 0.87285 0.42365 0.18542 0.0
N1651 N 0.86206 0.37464 0.28917 0.0
C1652 C 0.86184 0.39556 0.31804 0.0
C1653 C 0.85943 0.44143 0.29184 0.0
C1654 C 0.86132 0.42062 0.26257 0.0
C1655 C 0.86058 0.42909 0.31985 0.0
C1656 C 0.86312 0.38708 0.2621 0.0
H1657 H 0.88826 0.37181 0.15977 0.0
N1658 N 0.87524 0.33741 0.23694 0.0
C1659 C 0.89289 0.33306 0.18499 0.0
C1660 C 0.86955 0.36755 0.23485 0.0
C1661 C 0.88919 0.32164 0.21343 0.0
C1662 C 0.88465 0.36248 0.18151 0.0
C1663 C 0.87401 0.38088 0.20709 0.0
O1664 O 0.91069 0.31918 0.27828 0.0
O1665 O 0.84539 0.26857 0.29112 0.0
O1666 O 0.81359 0.31706 0.33404 0.0
O1667 O 0.86341 0.32131 0.33517 0.0
O1668 O 0.88837 0.27746 0.28315 0.0
O1669 O 0.9023 0.3548 0.31839 0.0
O1670 O 0.75774 0.26388 0.31158 0.0
O1671 O 0.81983 0.32826 0.28588 0.0
O1672 O 0.84965 0.28573 0.24007 0.0
O1673 O 0.79904 0.27213 0.24169 0.0
O1674 O 0.77605 0.31878 0.28993 0.0
O1675 O 0.75919 0.2518 0.25959 0.0
C1676 C 0.86836 0.25318 0.28929 0.0
C1677 C 0.95001 0.36536 0.29908 0.0
C1678 C 1.00294 0.36953 0.30799 0.0
C1679 C 0.9749 0.36406 0.31868 0.0
C1680 C 1.00606 0.37834 0.27807 0.0
C1681 C 0.95355 0.37652 0.2703 0.0
C1682 C 0.98172 0.38318 0.25994 0.0
C1683 C 0.84047 0.32671 0.3494 0.0
C1684 C 0.92225 0.34307 0.30321 0.0
C1685 C 0.86977 0.41315 0.20659 0.0
C1686 C 0.86355 0.43305 0.23436 0.0
C1687 C 0.79683 0.34343 0.2853 0.0
C1688 C 0.71125 0.23515 0.27957 0.0
C1689 C 0.69258 0.2404 0.25489 0.0
C1690 C 0.66163 0.22953 0.25385 0.0
C1691 C 0.6494 0.21262 0.2771 0.0
C1692 C 0.69901 0.21866 0.30304 0.0
C1693 C 0.66811 0.2072 0.30161 0.0
C1694 C 0.8224 0.27219 0.2263 0.0
C1695 C 0.74308 0.25084 0.2833 0.0
H1696 H 0.97178 0.3543 0.34034 0.0
H1697 H 0.02692 0.38047 0.26829 0.0
H1698 H 0.93435 0.37716 0.25463 0.0
H1699 H 0.98433 0.39001 0.23694 0.0
H1700 H 0.702 0.25415 0.23737 0.0
H1701 H 0.62541 0.20452 0.27681 0.0
H1702 H 0.71331 0.21516 0.3227 0.0
H1703 H 0.65866 0.19476 0.31987 0.0
Tb1704 Tb 0.08962 0.53474 0.57025 0.0
C1705 C 0.04546 0.58751 0.44948 0.0
C1706 C 0.03098 0.53695 0.40701 0.0
C1707 C 0.02322 0.59013 0.39696 0.0
C1708 C 0.04406 0.55369 0.43858 0.0
C1709 C 0.03471 0.60612 0.42899 0.0
C1710 C 0.02127 0.55556 0.38601 0.0
C1711 C 0.04755 0.65477 0.47334 0.0
N1712 N 0.0572 0.60205 0.4803 0.0
C1713 C 0.05883 0.63548 0.49235 0.0
C1714 C 0.03573 0.64012 0.44137 0.0
Tb1715 Tb 0.08595 0.57312 0.50324 0.0
N1716 N 0.0547 0.53713 0.45936 0.0
C1717 C 0.05089 0.50267 0.45028 0.0
C1718 C 0.02712 0.50197 0.39791 0.0
C1719 C 0.03645 0.48467 0.41998 0.0
H1720 H 0.07031 0.6478 0.51611 0.0
H1721 H 0.03342 0.45752 0.41331 0.0
H1722 H 1.01149 0.54327 0.36158 0.0
H1723 H 0.04898 0.6812 0.483 0.0
H1724 H 0.05921 0.48828 0.46567 0.0
H1725 H 0.15213 0.65165 0.65278 0.0
H1726 H 0.01662 0.48805 0.37413 0.0
H1727 H 0.09643 0.45654 0.56493 0.0
H1728 H 0.10931 0.61562 0.61687 0.0
H1729 H 0.13425 0.42814 0.5822 0.0
H1730 H 0.01512 0.60405 0.38073 0.0
H1731 H 0.19535 0.62954 0.6668 0.0
H1732 H 0.21821 0.58007 0.66298 0.0
H1733 H 0.02757 0.65527 0.42647 0.0
H1734 H 0.21341 0.51911 0.64387 0.0
N1735 N 0.12692 0.57145 0.6086 0.0
C1736 C 0.12722 0.60436 0.62226 0.0
C1737 C 0.17629 0.61307 0.65065 0.0
C1738 C 0.17537 0.57917 0.63826 0.0
C1739 C 0.15192 0.62557 0.64291 0.0
C1740 C 0.15009 0.55882 0.61713 0.0
H1741 H 0.18193 0.46213 0.61427 0.0
N1742 N 0.12257 0.50614 0.58681 0.0
C1743 C 0.13842 0.4554 0.58894 0.0
C1744 C 0.1477 0.52487 0.60603 0.0
C1745 C 0.11699 0.47156 0.57941 0.0
C1746 C 0.16533 0.47468 0.60692 0.0
C1747 C 0.17004 0.50982 0.6162 0.0
O1748 O 0.06103 0.4938 0.58304 0.0
O1749 O 0.06187 0.54136 0.53086 0.0
O1750 O 0.05579 0.59319 0.53431 0.0
O1751 O 0.07158 0.57946 0.582 0.0
O1752 O 0.05646 0.49353 0.53698 0.0
O1753 O 0.06837 0.54511 0.611 0.0
O1754 O 0.11466 0.61667 0.49472 0.0
O1755 O 0.11368 0.56606 0.54207 0.0
O1756 O 0.1151 0.50979 0.53697 0.0
O1757 O 0.10303 0.52821 0.49057 0.0
O1758 O 0.11589 0.61435 0.53905 0.0
O1759 O 0.11374 0.56671 0.46755 0.0
C1760 C 0.04558 0.51204 0.52079 0.0
C1761 C 0.05389 0.50116 0.63759 0.0
C1762 C 0.03079 0.50087 0.68605 0.0
C1763 C 0.03512 0.51292 0.65826 0.0
C1764 C 0.04542 0.47676 0.69347 0.0
C1765 C 0.06914 0.47751 0.64493 0.0
C1766 C 0.06488 0.46538 0.67298 0.0
C1767 C 0.05712 0.59647 0.56597 0.0
C1768 C 0.05513 0.51328 0.6081 0.0
C1769 C 0.19582 0.53012 0.63611 0.0
C1770 C 0.19853 0.5648 0.64702 0.0
C1771 C 0.12932 0.59565 0.55242 0.0
C1772 C 0.12132 0.61081 0.44001 0.0
C1773 C 0.13065 0.59287 0.41332 0.0
C1774 C 0.13306 0.60563 0.38559 0.0
C1775 C 0.12298 0.63439 0.383 0.0
C1776 C 0.11214 0.64036 0.43786 0.0
C1777 C 0.11191 0.65132 0.409 0.0
C1778 C 0.1151 0.5088 0.50592 0.0
C1779 C 0.12329 0.59925 0.4701 0.0
H1780 H 0.02321 0.53108 0.65233 0.0
H1781 H 0.04202 0.46713 0.71506 0.0
H1782 H 0.08382 0.46812 0.62903 0.0
H1783 H 0.07642 0.44698 0.67868 0.0
H1784 H 0.13859 0.57058 0.41506 0.0
H1785 H 0.12537 0.64478 0.36169 0.0
H1786 H 0.10578 0.65541 0.45847 0.0
H1787 H 0.10477 0.67403 0.40741 0.0
Tb1788 Tb 0.79986 0.80991 0.28465 0.0
C1789 C 0.90375 0.76198 0.33383 0.0
C1790 C 0.93098 0.81058 0.37461 0.0
C1791 C 0.93788 0.75493 0.37667 0.0
C1792 C 0.91027 0.79621 0.34658 0.0
C1793 C 0.91813 0.74104 0.34822 0.0
C1794 C 0.94436 0.78968 0.3898 0.0
C1795 C 0.89649 0.69536 0.30264 0.0
N1796 N 0.88597 0.74984 0.30537 0.0
C1797 C 0.88356 0.71735 0.28888 0.0
C1798 C 0.91369 0.7072 0.3326 0.0
Tb1799 Tb 0.86732 0.78796 0.28286 0.0
N1800 N 0.897 0.81559 0.33108 0.0
C1801 C 0.90422 0.85008 0.34273 0.0
C1802 C 0.93787 0.84555 0.38645 0.0
C1803 C 0.92437 0.86535 0.37041 0.0
H1804 H 0.8711 0.70819 0.26514 0.0
H1805 H 0.92938 0.89248 0.37939 0.0
H1806 H 0.96016 0.80023 0.41137 0.0
H1807 H 0.89361 0.66947 0.28987 0.0
H1808 H 0.89397 0.86662 0.33198 0.0
H1809 H 0.73401 0.70133 0.19451 0.0
H1810 H 0.95359 0.85748 0.40788 0.0
H1811 H 0.79391 0.88953 0.29708 0.0
H1812 H 0.76546 0.72913 0.24445 0.0
H1813 H 0.77588 0.92671 0.26576 0.0
H1814 H 0.94901 0.7392 0.38812 0.0
H1815 H 0.71956 0.73475 0.15694 0.0
H1816 H 0.71982 0.7916 0.14552 0.0
H1817 H 0.92435 0.69035 0.34289 0.0
H1818 H 0.73175 0.85338 0.16483 0.0
N1819 N 0.76996 0.77975 0.23732 0.0
C1820 C 0.75964 0.74509 0.22944 0.0
C1821 C 0.73356 0.74757 0.17936 0.0
C1822 C 0.74277 0.78283 0.18794 0.0
C1823 C 0.74153 0.72867 0.20055 0.0
C1824 C 0.76079 0.79831 0.21759 0.0
H1825 H 0.75223 0.90392 0.20991 0.0
N1826 N 0.78211 0.84613 0.25831 0.0
C1827 C 0.77363 0.90043 0.25495 0.0
C1828 C 0.76733 0.83281 0.2284 0.0
C1829 C 0.78374 0.87919 0.27248 0.0
C1830 C 0.76036 0.88748 0.22332 0.0
C1831 C 0.75625 0.85309 0.20995 0.0
O1832 O 0.7788 0.83568 0.31961 0.0
O1833 O 0.83548 0.80108 0.3162 0.0
O1834 O 0.83571 0.74015 0.29089 0.0
O1835 O 0.79123 0.75629 0.29326 0.0
O1836 O 0.82511 0.84688 0.3259 0.0
O1837 O 0.75932 0.78372 0.29786 0.0
O1838 O 0.8898 0.7653 0.24681 0.0
O1839 O 0.83111 0.79619 0.25204 0.0
O1840 O 0.83192 0.85757 0.27665 0.0
O1841 O 0.87709 0.84292 0.27917 0.0
O1842 O 0.84375 0.75187 0.23939 0.0
O1843 O 0.90706 0.81688 0.27065 0.0
C1844 C 0.83922 0.82819 0.33827 0.0
C1845 C 0.72715 0.81612 0.32113 0.0
C1846 C 0.68337 0.81424 0.34986 0.0
C1847 C 0.71038 0.80515 0.34502 0.0
C1848 C 0.6732 0.8341 0.3305 0.0
C1849 C 0.71624 0.83526 0.30157 0.0
C1850 C 0.68946 0.8443 0.30637 0.0
C1851 C 0.80638 0.73243 0.29352 0.0
C1852 C 0.75694 0.80971 0.31891 0.0
C1853 C 0.74013 0.83815 0.17949 0.0
C1854 C 0.73333 0.80301 0.16851 0.0
C1855 C 0.82692 0.76946 0.22969 0.0
C1856 C 0.9421 0.78737 0.24983 0.0
C1857 C 0.96 0.79537 0.22556 0.0
C1858 C 0.98882 0.78912 0.2257 0.0
C1859 C 0.99942 0.77551 0.25063 0.0
C1860 C 0.9536 0.7739 0.27416 0.0
C1861 C 0.98195 0.76801 0.27457 0.0
C1862 C 0.86174 0.86617 0.27719 0.0
C1863 C 0.91132 0.79217 0.24929 0.0
H1864 H 0.71859 0.79022 0.36017 0.0
H1865 H 0.65241 0.8413 0.33378 0.0
H1866 H 0.72854 0.8436 0.2829 0.0
H1867 H 0.68131 0.85938 0.29141 0.0
H1868 H 0.95133 0.80559 0.20641 0.0
H1869 H 0.02148 0.77081 0.25175 0.0
H1870 H 0.9408 0.76778 0.29293 0.0
H1871 H 0.99041 0.75751 0.29358 0.0
Tb1872 Tb 0.85756 0.28847 0.74501 0.0
C1873 C 0.8098 0.38018 0.86541 0.0
C1874 C 0.85795 0.42958 0.89059 0.0
C1875 C 0.80752 0.43256 0.90301 0.0
C1876 C 0.84 0.3877 0.87248 0.0
C1877 C 0.7935 0.40241 0.8803 0.0
C1878 C 0.83849 0.44685 0.90761 0.0
C1879 C 0.7503 0.36988 0.84277 0.0
N1880 N 0.7976 0.35587 0.83823 0.0
C1881 C 0.76811 0.35076 0.82691 0.0
C1882 C 0.76294 0.39556 0.86965 0.0
Tb1883 Tb 0.82504 0.3192 0.81465 0.0
N1884 N 0.85604 0.36558 0.84891 0.0
C1885 C 0.88785 0.3733 0.83769 0.0
C1886 C 0.90984 0.44204 0.87073 0.0
C1887 C 0.91405 0.40863 0.84699 0.0
H1888 H 0.75777 0.33064 0.80642 0.0
H1889 H 0.93573 0.40917 0.83922 0.0
H1890 H 0.8455 0.47229 0.9221 0.0
H1891 H 0.72683 0.36497 0.83404 0.0
H1892 H 0.89499 0.3539 0.8224 0.0
H1893 H 0.77522 0.22197 0.64161 0.0
H1894 H 0.89776 0.44325 0.87786 0.0
H1895 H 0.92216 0.26793 0.75984 0.0
H1896 H 0.81128 0.27164 0.67573 0.0
H1897 H 0.94167 0.21761 0.75294 0.0
H1898 H 0.79372 0.44786 0.91473 0.0
H1899 H 0.77993 0.16465 0.64508 0.0
H1900 H 0.81233 0.12987 0.6647 0.0
H1901 H 0.74921 0.41123 0.88085 0.0
H1902 H 0.8596 0.12886 0.69434 0.0
N1903 N 0.82858 0.24364 0.70574 0.0
C1904 C 0.81003 0.24715 0.68089 0.0
C1905 C 0.79397 0.1866 0.66182 0.0
C1906 C 0.81756 0.18364 0.68248 0.0
C1907 C 0.791 0.21883 0.66006 0.0
C1908 C 0.83486 0.21309 0.70408 0.0
H1909 H 0.909 0.16201 0.72551 0.0
N1910 N 0.87727 0.24148 0.74033 0.0
C1911 C 0.91845 0.21532 0.74477 0.0
C1912 C 0.86053 0.21209 0.72166 0.0
C1913 C 0.90698 0.24388 0.74908 0.0
C1914 C 0.89996 0.18406 0.72939 0.0
C1915 C 0.87076 0.18222 0.7169 0.0
O1916 O 0.90244 0.31477 0.74717 0.0
O1917 O 0.85809 0.33334 0.78048 0.0
O1918 O 0.79962 0.3327 0.77344 0.0
O1919 O 0.81335 0.3002 0.72807 0.0
O1920 O 0.85564 0.33598 0.73249 0.0
O1921 O 0.87673 0.28579 0.70209 0.0
O1922 O 0.78762 0.29329 0.83236 0.0
O1923 O 0.82975 0.27538 0.78031 0.0
O1924 O 0.88306 0.28107 0.79029 0.0
O1925 O 0.86481 0.30542 0.83562 0.0
O1926 O 0.78723 0.28151 0.78756 0.0
O1927 O 0.83213 0.29655 0.85349 0.0
C1928 C 0.85926 0.35405 0.7611 0.0
C1929 C 0.9173 0.33065 0.69979 0.0
C1930 C 0.91582 0.37386 0.66954 0.0
C1931 C 0.90127 0.34967 0.68534 0.0
C1932 C 0.9465 0.3781 0.6671 0.0
C1933 C 0.94787 0.33496 0.69738 0.0
C1934 C 0.96237 0.3585 0.68084 0.0
C1935 C 0.79548 0.31928 0.74156 0.0
C1936 C 0.90245 0.30519 0.71629 0.0
C1937 C 0.85246 0.15221 0.69765 0.0
C1938 C 0.82563 0.15283 0.68069 0.0
C1939 C 0.80205 0.26185 0.77323 0.0
C1940 C 0.79427 0.29352 0.88731 0.0
C1941 C 0.80419 0.27664 0.90924 0.0
C1942 C 0.7919 0.27648 0.93797 0.0
C1943 C 0.77099 0.29538 0.94594 0.0
C1944 C 0.77287 0.31195 0.89496 0.0
C1945 C 0.76184 0.31352 0.92454 0.0
C1946 C 0.88444 0.28995 0.82244 0.0
C1947 C 0.80371 0.28707 0.85541 0.0
H1948 H 0.87744 0.34546 0.68574 0.0
H1949 H 0.95798 0.39593 0.65395 0.0
H1950 H 0.9604 0.31984 0.70795 0.0
H1951 H 0.98589 0.36148 0.67857 0.0
H1952 H 0.81945 0.26092 0.90257 0.0
H1953 H 0.76089 0.29488 0.96795 0.0
H1954 H 0.76369 0.32395 0.87792 0.0
H1955 H 0.74516 0.32746 0.9302 0.0
Tb1956 Tb 0.86086 0.84415 0.80357 0.0
C1957 C 0.74315 0.74783 0.73603 0.0
C1958 C 0.71206 0.73845 0.77823 0.0
C1959 C 0.68929 0.72419 0.72307 0.0
C1960 C 0.74065 0.74907 0.76836 0.0
C1961 C 0.71737 0.73437 0.713 0.0
C1962 C 0.68658 0.72657 0.75554 0.0
C1963 C 0.74897 0.73623 0.67105 0.0
N1964 N 0.77083 0.75617 0.72676 0.0
C1965 C 0.77372 0.74867 0.69444 0.0
C1966 C 0.72059 0.72935 0.68034 0.0
Tb1967 Tb 0.81057 0.76584 0.76652 0.0
N1968 N 0.76604 0.75796 0.7897 0.0
C1969 C 0.76329 0.75634 0.8213 0.0
C1970 C 0.70976 0.73835 0.81048 0.0
C1971 C 0.73549 0.74735 0.83206 0.0
H1972 H 0.79524 0.75021 0.68613 0.0
H1973 H 0.73404 0.74717 0.8572 0.0
H1974 H 0.6647 0.71795 0.76276 0.0
H1975 H 0.75194 0.73067 0.64586 0.0
H1976 H 0.78176 0.76345 0.83975 0.0
H1977 H 0.93576 0.85482 0.71288 0.0
H1978 H 0.68825 0.73061 0.81884 0.0
H1979 H 0.87474 0.85972 0.88368 0.0
H1980 H 0.88792 0.84149 0.73228 0.0
H1981 H 0.91833 0.8802 0.92463 0.0
H1982 H 0.6695 0.71345 0.70601 0.0
H1983 H 0.98216 0.87076 0.75054 0.0
H1984 H 1.00621 0.88609 0.80702 0.0
H1985 H 0.70147 0.71869 0.66211 0.0
H1986 H 1.00119 0.89477 0.86391 0.0
N1987 N 0.90503 0.84666 0.78138 0.0
C1988 C 0.90712 0.8475 0.74968 0.0
C1989 C 0.96077 0.86391 0.75938 0.0
C1990 C 0.95884 0.86536 0.79198 0.0
C1991 C 0.93471 0.85517 0.73816 0.0
C1992 C 0.9304 0.85607 0.8024 0.0
H1993 H 0.96895 0.89139 0.90851 0.0
N1994 N 0.89999 0.85339 0.84385 0.0
C1995 C 0.92139 0.87393 0.89951 0.0
C1996 C 0.9278 0.85971 0.83476 0.0
C1997 C 0.89666 0.86121 0.87605 0.0
C1998 C 0.94992 0.88027 0.89029 0.0
C1999 C 0.95342 0.8737 0.85765 0.0
O2000 O 0.87804 0.89292 0.83251 0.0
O2001 O 0.81354 0.8177 0.79135 0.0
O2002 O 0.81795 0.7969 0.72866 0.0
O2003 O 0.84588 0.8504 0.75495 0.0
O2004 O 0.82829 0.84843 0.83662 0.0
O2005 O 0.85577 0.88608 0.78549 0.0
O2006 O 0.82121 0.73338 0.72768 0.0
O2007 O 0.85566 0.79705 0.77053 0.0
O2008 O 0.85504 0.81161 0.84073 0.0
O2009 O 0.82239 0.75972 0.81572 0.0
O2010 O 0.85109 0.75024 0.77963 0.0
O2011 O 0.79132 0.71382 0.75997 0.0
C2012 C 0.80534 0.82881 0.81828 0.0
C2013 C 0.85068 0.93155 0.82493 0.0
C2014 C 0.80965 0.95675 0.81729 0.0
C2015 C 0.82426 0.93175 0.80739 0.0
C2016 C 0.82041 0.98088 0.84611 0.0
C2017 C 0.86167 0.95553 0.8538 0.0
C2018 C 0.84627 0.97994 0.86454 0.0
C2019 C 0.83146 0.82879 0.72828 0.0
C2020 C 0.86749 0.90755 0.8121 0.0
C2021 C 0.98152 0.88281 0.84719 0.0
C2022 C 0.98433 0.87818 0.81453 0.0
C2023 C 0.8703 0.77611 0.7753 0.0
C2024 C 0.81789 0.67787 0.73219 0.0
C2025 C 0.83184 0.67105 0.75942 0.0
C2026 C 0.84389 0.64303 0.75622 0.0
C2027 C 0.84244 0.62211 0.72575 0.0
C2028 C 0.81635 0.65696 0.70185 0.0
C2029 C 0.82869 0.62913 0.69866 0.0
C2030 C 0.83877 0.78088 0.8417 0.0
C2031 C 0.80469 0.70655 0.73465 0.0
H2032 H 0.81564 0.91357 0.7849 0.0
H2033 H 0.8096 1.00111 0.85357 0.0
H2034 H 0.88225 0.95566 0.86769 0.0
H2035 H 0.85489 0.99872 0.88655 0.0
H2036 H 0.83254 0.68672 0.78304 0.0
H2037 H 0.85171 0.60019 0.72303 0.0
H2038 H 0.80553 0.66216 0.68068 0.0
H2039 H 0.82742 0.6129 0.67527 0.0
Tb2040 Tb 0.55263 0.52279 0.50916 0.0
C2041 C 0.63387 0.65102 0.58458 0.0
C2042 C 0.64723 0.68284 0.54378 0.0
C2043 C 0.65324 0.71233 0.59941 0.0
C2044 C 0.63601 0.65166 0.55273 0.0
C2045 C 0.64214 0.68149 0.60821 0.0
C2046 C 0.65604 0.71297 0.56728 0.0
C2047 C 0.63144 0.6491 0.6487 0.0
N2048 N 0.62452 0.62065 0.59264 0.0
C2049 C 0.62474 0.61956 0.62478 0.0
C2050 C 0.63957 0.68023 0.64022 0.0
Tb2051 Tb 0.6156 0.57294 0.55102 0.0
N2052 N 0.62731 0.622 0.53056 0.0
C2053 C 0.62913 0.62278 0.49867 0.0
C2054 C 0.64943 0.68305 0.51149 0.0
C2055 C 0.64006 0.65288 0.48883 0.0
H2056 H 0.62029 0.5956 0.63217 0.0
H2057 H 0.64095 0.65273 0.46356 0.0
H2058 H 0.66488 0.73694 0.56081 0.0
H2059 H 0.63074 0.64776 0.67368 0.0
H2060 H 0.62071 0.60093 0.47966 0.0
H2061 H 0.524 0.44434 0.5972 0.0
H2062 H 0.65794 0.70639 0.50377 0.0
H2063 H 0.54972 0.49901 0.42798 0.0
H2064 H 0.54676 0.49542 0.5812 0.0
H2065 H 0.54222 0.44633 0.38774 0.0
H2066 H 0.66008 0.73581 0.61736 0.0
H2067 H 0.50545 0.39085 0.55704 0.0
H2068 H 0.49941 0.35975 0.50029 0.0
H2069 H 0.64428 0.7033 0.65843 0.0
H2070 H 0.50745 0.35982 0.44423 0.0
N2071 N 0.53977 0.47427 0.53024 0.0
C2072 C 0.53769 0.47374 0.56216 0.0
C2073 C 0.51496 0.41393 0.54931 0.0
C2074 C 0.51795 0.41374 0.51709 0.0
C2075 C 0.52526 0.44401 0.57196 0.0
C2076 C 0.53038 0.44459 0.50811 0.0
H2077 H 0.5279 0.39115 0.40389 0.0
N2078 N 0.54414 0.47478 0.46801 0.0
C2079 C 0.53997 0.44544 0.4126 0.0
C2080 C 0.53389 0.4447 0.47636 0.0
C2081 C 0.54509 0.47532 0.43587 0.0
C2082 C 0.53137 0.41456 0.42155 0.0
C2083 C 0.5264 0.41395 0.45315 0.0
O2084 O 0.51455 0.50797 0.47496 0.0
O2085 O 0.5735 0.57754 0.52657 0.0
O2086 O 0.58152 0.57354 0.58823 0.0
O2087 O 0.53823 0.53875 0.55946 0.0
O2088 O 0.55727 0.56069 0.47913 0.0
O2089 O 0.51325 0.53552 0.52343 0.0
O2090 O 0.65229 0.58358 0.58604 0.0
O2091 O 0.5945 0.51828 0.53343 0.0
O2092 O 0.5871 0.52212 0.47216 0.0
O2093 O 0.63012 0.5576 0.50074 0.0
O2094 O 0.61095 0.53448 0.5806 0.0
O2095 O 0.65635 0.56368 0.53613 0.0
C2096 C 0.56773 0.58813 0.50061 0.0
C2097 C 0.4675 0.51923 0.48639 0.0
C2098 C 0.42485 0.54193 0.49556 0.0
C2099 C 0.45412 0.54171 0.50499 0.0
C2100 C 0.40848 0.51929 0.46789 0.0
C2101 C 0.45123 0.49642 0.45867 0.0
C2102 C 0.42168 0.4964 0.44958 0.0
C2103 C 0.55245 0.55839 0.5878 0.0
C2104 C 0.4988 0.5209 0.49513 0.0
C2105 C 0.51388 0.38348 0.46196 0.0
C2106 C 0.50922 0.38345 0.4938 0.0
C2107 C 0.60005 0.50723 0.55911 0.0
C2108 C 0.70043 0.57588 0.5757 0.0
C2109 C 0.71486 0.55411 0.55765 0.0
C2110 C 0.74276 0.5516 0.57005 0.0
C2111 C 0.75683 0.5718 0.59991 0.0
C2112 C 0.71463 0.59632 0.60549 0.0
C2113 C 0.74288 0.59441 0.61741 0.0
C2114 C 0.6161 0.53757 0.47252 0.0
C2115 C 0.66927 0.574 0.56561 0.0
H2116 H 0.46664 0.55975 0.52617 0.0
H2117 H 0.38569 0.5196 0.46042 0.0
H2118 H 0.46138 0.47884 0.44399 0.0
H2119 H 0.40914 0.47895 0.42818 0.0
H2120 H 0.70386 0.53788 0.53486 0.0
H2121 H 0.77863 0.57015 0.60955 0.0
H2122 H 0.70364 0.61322 0.61985 0.0
H2123 H 0.75372 0.60999 0.64044 0.0
Tb2124 Tb 0.11537 0.55841 0.01577 0.0
C2125 C 1.01064 0.50446 0.08726 0.0
C2126 C 0.97919 0.45607 0.04914 0.0
C2127 C 0.97715 0.46024 0.10635 0.0
C2128 C 1.0011 0.48716 0.05592 0.0
C2129 C 0.99848 0.49149 0.11287 0.0
C2130 C 0.96756 0.44254 0.07453 0.0
C2131 C 0.02818 0.54206 0.14933 0.0
N2132 N 0.03126 0.53451 0.09263 0.0
C2133 C 0.03958 0.55386 0.12315 0.0
C2134 C 1.00771 0.5106 0.14421 0.0
Tb2135 Tb 0.0475 0.55249 0.04828 0.0
N2136 N 0.01295 0.50101 0.03207 0.0
C2137 C 1.00276 0.48524 1.00056 0.0
C2138 C 0.96942 0.43965 0.01706 0.0
C2139 C 0.98112 0.45445 0.99269 0.0
H2140 H 0.05529 0.57828 0.12751 0.0
H2141 H 0.97355 0.44215 0.96775 0.0
H2142 H 0.95087 0.41863 0.06981 0.0
H2143 H 0.03512 0.55729 0.17344 0.0
H2144 H 1.01115 0.49554 0.98086 0.0
H2145 H 0.18684 0.67296 0.09237 0.0
H2146 H 0.95269 0.41573 1.01087 0.0
H2147 H 0.10972 0.5284 0.9361 0.0
H2148 H 0.15403 0.61623 0.08111 0.0
H2149 H 0.12665 0.55006 0.8893 0.0
H2150 H 0.96768 0.44975 0.12571 0.0
H2151 H 0.20088 0.70102 0.04785 0.0
H2152 H 0.19939 0.6974 0.98861 0.0
H2153 H 0.99883 0.50156 0.16453 0.0
H2154 H 0.18357 0.66379 0.93349 0.0
N2155 N 0.14703 0.61161 0.0302 0.0
C2156 C 0.15903 0.62775 0.06112 0.0
C2157 C 0.18593 0.67592 0.04262 0.0
C2158 C 0.17539 0.65853 1.01094 0.0
C2159 C 0.17809 0.66019 0.06778 0.0
C2160 C 0.1559 0.62588 1.00538 0.0
H2161 H 0.15701 0.60878 0.89639 0.0
N2162 N 0.12945 0.57486 0.96985 0.0
C2163 C 0.13232 0.56637 0.91304 0.0
C2164 C 0.14704 0.60686 0.97428 0.0
C2165 C 0.12266 0.55422 0.93974 0.0
C2166 C 0.14945 0.59954 0.91714 0.0
C2167 C 0.1573 0.62012 0.94802 0.0
O2168 O 0.13113 0.51405 0.01309 0.0
O2169 O 0.07675 0.5218 0.02636 0.0
O2170 O 0.07533 0.53271 0.07918 0.0
O2171 O 0.11911 0.56482 0.06735 0.0
O2172 O 0.08946 0.51229 0.98215 0.0
O2173 O 0.16165 0.56196 0.02656 0.0
O2174 O 0.03106 0.59402 0.0676 0.0
O2175 O 0.08629 0.58897 0.03773 0.0
O2176 O 0.0868 0.57437 0.98182 0.0
O2177 O 0.04184 0.54873 0.99723 0.0
O2178 O 0.07255 0.59942 0.08156 0.0
O2179 O 1.00644 0.55732 0.02644 0.0
C2180 C 0.07164 0.49842 1.00045 0.0
C2181 C 0.18007 0.51587 1.00112 0.0
C2182 C 0.21664 0.48074 0.99245 0.0
C2183 C 0.1971 0.49492 0.01207 0.0
C2184 C 0.21769 0.48819 0.96144 0.0
C2185 C 0.18243 0.52258 0.97055 0.0
C2186 C 0.2007 0.50848 0.95076 0.0
C2187 C 0.10431 0.54625 0.08529 0.0
C2188 C 0.1589 0.52959 0.02094 0.0
C2189 C 0.17564 0.65313 0.9534 0.0
C2190 C 0.18463 0.67229 0.98479 0.0
C2191 C 0.09086 0.61239 0.0635 0.0
C2192 C 0.97995 0.5909 0.05929 0.0
C2193 C 0.9634 0.61015 0.04521 0.0
C2194 C 0.93985 0.62037 0.06011 0.0
C2195 C 0.93288 0.61059 0.08891 0.0
C2196 C 0.97228 0.58113 0.0878 0.0
C2197 C 0.94886 0.59095 0.10247 0.0
C2198 C 0.0574 0.56414 0.97775 0.0
C2199 C 1.00749 0.58549 0.04657 0.0
H2200 H 0.19468 0.48986 0.03572 0.0
H2201 H 0.23212 0.47953 0.94494 0.0
H2202 H 0.17026 0.53889 0.96193 0.0
H2203 H 0.20213 0.51381 0.92702 0.0
H2204 H 0.96946 0.61808 0.02335 0.0
H2205 H 0.91465 0.61765 0.10069 0.0
H2206 H 0.98484 0.56666 0.09917 0.0
H2207 H 0.94323 0.58355 0.12462 0.0
C2208 C 0.04943 0.15548 0.95212 0.0
C2209 C 0.04628 0.18364 0.97514 0.0
H2210 H 0.0592 0.10638 0.94138 0.0
C2211 C 0.05226 0.18073 1.00773 0.0
H2212 H 0.04575 0.15565 0.92684 0.0
C2213 C 0.06021 0.1515 0.01643 0.0
C2214 C 0.06302 0.12322 0.99307 0.0
H2215 H 0.05052 0.20116 0.02688 0.0
H2216 H 0.0638 0.15102 0.04163 0.0
C2217 C 0.05745 0.12664 0.96073 0.0
C2218 C 0.24293 0.81992 0.16766 0.0
C2219 C 0.22106 0.83627 0.17963 0.0
H2220 H 0.28276 0.80291 0.17742 0.0
C2221 C 0.22508 0.84871 0.21348 0.0
H2222 H 0.24099 0.80925 0.14217 0.0
C2223 C 0.2494 0.84505 0.23407 0.0
C2224 C 0.27114 0.82845 0.22214 0.0
H2225 H 0.20899 0.86105 0.22439 0.0
H2226 H 0.25082 0.85495 0.25964 0.0
C2227 C 0.26718 0.81613 0.18827 0.0
C2228 C 0.55548 0.90361 0.50964 0.0
C2229 C 0.54981 0.88647 0.47666 0.0
H2230 H 0.56713 0.9522 0.54441 0.0
C2231 C 0.54893 0.90787 0.45459 0.0
H2232 H 0.55691 0.88915 0.52797 0.0
C2233 C 0.55385 0.94323 0.4639 0.0
C2234 C 0.56096 0.96083 0.49612 0.0
H2235 H 0.54515 0.8974 0.42899 0.0
H2236 H 0.55332 0.95726 0.44505 0.0
C2237 C 0.56126 0.94017 0.51919 0.0
C2238 C 0.55758 0.33022 0.68923 0.0
C2239 C 0.55033 0.31301 0.65687 0.0
H2240 H 0.5433 0.33817 0.73609 0.0
C2241 C 0.52104 0.29259 0.64658 0.0
H2242 H 0.57971 0.3464 0.69796 0.0
C2243 C 0.50016 0.28802 0.66847 0.0
C2244 C 0.50809 0.30384 0.70107 0.0
H2245 H 0.51458 0.27888 0.62186 0.0
H2246 H 0.47841 0.2707 0.66027 0.0
C2247 C 0.5367 0.32567 0.71104 0.0
C2248 C 0.02122 0.81575 0.59587 0.0
C2249 C 0.02639 0.834 0.62801 0.0
H2250 H 0.03072 0.81519 0.54768 0.0
C2251 C 0.04171 0.8684 0.63496 0.0
H2252 H 1.00939 0.78926 0.58941 0.0
C2253 C 0.05375 0.88332 0.61058 0.0
C2254 C 0.05083 0.86383 0.57921 0.0
H2255 H 0.04606 0.88313 0.65942 0.0
H2256 H 0.06698 0.90929 0.61666 0.0
C2257 C 0.03355 0.83044 0.57184 0.0
C2258 C 0.56821 0.83056 0.8229 0.0
C2259 C 0.57371 0.84362 0.85615 0.0
H2260 H 0.53999 0.82537 0.7793 0.0
C2261 C 0.55308 0.85837 0.87198 0.0
H2262 H 0.5835 0.81793 0.81061 0.0
C2263 C 0.52848 0.86286 0.85422 0.0
C2264 C 0.52392 0.85186 0.82056 0.0
H2265 H 0.55693 0.86819 0.89774 0.0
H2266 H 0.5136 0.87599 0.86672 0.0
C2267 C 0.54352 0.83488 0.80509 0.0
C2268 C 0.51235 0.13573 0.13245 0.0
C2269 C 0.5081 0.16505 0.12321 0.0
H2270 H 0.53032 0.09236 0.12158 0.0
C2271 C 0.51843 0.17227 0.09461 0.0
H2272 H 0.50588 0.13021 0.15505 0.0
C2273 C 0.5313 0.15027 0.07493 0.0
C2274 C 0.53643 0.12154 0.0844 0.0
H2275 H 0.51845 0.19616 0.08827 0.0
H2276 H 0.53884 0.15716 0.0534 0.0
C2277 C 0.52658 0.11427 0.11333 0.0
C2278 C 0.25228 0.37295 0.36019 0.0
C2279 C 0.22454 0.35044 0.34965 0.0
H2280 H 0.29853 0.38415 0.35594 0.0
C2281 C 0.22106 0.32445 0.3221 0.0
H2282 H 0.25495 0.39455 0.37994 0.0
C2283 C 0.24582 0.31979 0.30656 0.0
C2284 C 0.27443 0.33895 0.3204 0.0
H2285 H 0.19929 0.30778 0.31263 0.0
H2286 H 0.24262 0.3003 0.28505 0.0
C2287 C 0.27702 0.36716 0.34587 0.0
C2288 C 0.03639 0.08659 0.18213 0.0
C2289 C 1.00654 0.06773 0.18412 0.0
H2290 H 0.07377 0.1001 0.15477 0.0
C2291 C 0.99361 0.04607 0.15334 0.0
H2292 H 0.04869 0.10386 0.20375 0.0
C2293 C 1.00872 0.04362 0.12415 0.0
C2294 C 0.03851 0.06267 0.12211 0.0
H2295 H 0.97129 0.03009 0.15163 0.0
H2296 H 0.99658 0.02601 0.10264 0.0
C2297 C 0.05141 0.08431 0.1529 0.0
C2298 C 0.3237 0.71946 0.48453 0.0
C2299 C 0.30633 0.68663 0.47055 0.0
H2300 H 0.33106 0.77232 0.48463 0.0
C2301 C 0.28456 0.68147 0.44419 0.0
H2302 H 0.34089 0.72398 0.50462 0.0
C2303 C 0.27838 0.70897 0.43394 0.0
C2304 C 0.29428 0.74172 0.44945 0.0
H2305 H 0.27113 0.65642 0.43262 0.0
H2306 H 0.26108 0.70477 0.41399 0.0
C2307 C 0.31777 0.74701 0.47377 0.0
C2308 C 0.66632 0.07345 0.65211 0.0
C2309 C 0.67223 0.04269 0.65522 0.0
H2310 H 0.63734 0.09771 0.62982 0.0
C2311 C 0.6528 1.01195 0.63897 0.0
H2312 H 0.68027 0.09733 0.66601 0.0
C2313 C 0.6284 1.01217 0.61793 0.0
C2314 C 0.62291 0.04312 0.61458 0.0
H2315 H 0.65651 0.98808 0.64263 0.0
H2316 H 0.61472 0.98853 0.60338 0.0
C2317 C 0.64137 0.07364 0.63246 0.0
C2318 C 0.35969 0.33405 0.92983 0.0
C2319 C 0.34476 0.35837 0.94411 0.0
H2320 H 0.36811 0.3034 0.88591 0.0
C2321 C 0.32546 0.36826 0.92293 0.0
H2322 H 0.37498 0.32562 0.94489 0.0
C2323 C 0.32293 0.35715 0.88945 0.0
C2324 C 0.33902 0.33462 0.87435 0.0
H2325 H 0.31313 0.38647 0.93224 0.0
H2326 H 0.30862 0.36767 0.87533 0.0
C2327 C 0.35634 0.32184 0.89555 0.0
C2328 C 0.02657 0.05434 0.38596 0.0
C2329 C 1.00376 0.07293 0.38408 0.0
H2330 H 0.0592 0.03691 0.41464 0.0
C2331 C 0.99813 0.08675 0.41568 0.0
H2332 H 0.0325 0.04188 0.3636 0.0
C2333 C 0.01335 0.08331 0.44543 0.0
C2334 C 0.03576 0.06466 0.44814 0.0
H2335 H 0.98132 0.10107 0.4178 0.0
H2336 H 1.00716 0.09636 0.46735 0.0
C2337 C 0.04199 0.05065 0.41639 0.0
C2338 C 0.3313 0.74047 0.64015 0.0
C2339 C 0.31252 0.70765 0.63461 0.0
H2340 H 0.34541 0.78912 0.67156 0.0
C2341 C 0.29154 0.6996 0.65544 0.0
H2342 H 0.34683 0.74776 0.62353 0.0
C2343 C 0.29062 0.72344 0.68258 0.0
C2344 C 0.31143 0.75529 0.6899 0.0
H2345 H 0.2759 0.67495 0.6509 0.0
H2346 H 0.27462 0.71593 0.69865 0.0
C2347 C 0.33051 0.76427 0.66753 0.0
C2348 C 0.66612 0.06374 0.82469 0.0
C2349 C 0.69444 0.08625 0.82809 0.0
H2350 H 0.62295 0.05477 0.84132 0.0
C2351 C 0.7015 0.11655 0.85131 0.0
H2352 H 0.66046 0.04006 0.80701 0.0
C2353 C 0.67977 0.12571 0.86897 0.0
C2354 C 0.6513 0.10385 0.86485 0.0
H2355 H 0.72332 0.13391 0.855 0.0
H2356 H 0.68535 0.14957 0.88643 0.0
C2357 C 0.64468 0.07227 0.84363 0.0
C2358 C 0.32565 0.32981 0.13698 0.0
C2359 C 0.34025 0.36338 0.13602 0.0
H2360 H 0.30906 0.29372 0.16509 0.0
C2361 C 0.34787 0.38657 0.16618 0.0
H2362 H 0.31931 0.31076 0.11482 0.0
C2363 C 0.34173 0.37658 0.19566 0.0
C2364 C 0.32724 0.3429 0.19671 0.0
H2365 H 0.35917 0.41266 0.16717 0.0
H2366 H 0.34886 0.3954 0.2179 0.0
C2367 C 0.31932 0.31994 0.16639 0.0
C2368 C 0.28471 1.01544 1.00333 0.0
C2369 C 0.29319 0.98823 0.01321 0.0
H2370 H 0.25894 0.05221 0.01245 0.0
C2371 C 0.27748 0.97287 0.03557 0.0
H2372 H 0.29604 0.02745 0.98575 0.0
C2373 C 0.25645 0.98704 0.05075 0.0
C2374 C 0.25059 1.01657 0.04366 0.0
H2375 H 0.2829 0.95131 0.04311 0.0
H2376 H 0.24609 0.97612 0.06947 0.0
C2377 C 0.26348 0.02959 0.01855 0.0
C2378 C 0.69425 0.66009 0.99717 0.0
C2379 C 0.72168 0.6521 1.00383 0.0
H2380 H 0.64635 0.64489 0.99296 0.0
C2381 C 0.72012 0.62011 1.01148 0.0
H2382 H 0.69413 0.68444 0.9917 0.0
C2383 C 0.69234 0.59697 0.01191 0.0
C2384 C 0.66488 0.60535 1.00583 0.0
H2385 H 0.7405 0.61336 0.01841 0.0
H2386 H 0.69248 0.57316 0.01857 0.0
C2387 C 0.6666 0.63726 0.99807 0.0
C2388 C 0.77526 0.43526 0.31278 0.0
C2389 C 0.75547 0.44021 0.28708 0.0
H2390 H 0.80175 0.40546 0.33386 0.0
C2391 C 0.75279 0.41282 0.25952 0.0
H2392 H 0.77938 0.45367 0.33532 0.0
C2393 C 0.76771 0.38449 0.25834 0.0
C2394 C 0.78794 0.37997 0.28403 0.0
H2395 H 0.73862 0.41276 0.23819 0.0
H2396 H 0.76249 0.36496 0.23653 0.0
C2397 C 0.78962 0.40678 0.31169 0.0
C2398 C 0.96563 0.46218 0.49577 0.0
C2399 C 0.95013 0.48425 0.51214 0.0
H2400 H 1.00833 0.45414 0.48514 0.0
C2401 C 0.96592 0.51699 0.52774 0.0
H2402 H 0.95391 0.43647 0.48408 0.0
C2403 C 0.99677 0.52731 0.52758 0.0
C2404 C 0.0127 0.50475 0.51281 0.0
H2405 H 0.95475 0.53393 0.54175 0.0
H2406 H 1.0081 0.55194 0.5415 0.0
C2407 C 0.99666 0.47231 0.4962 0.0
C2408 C 0.39376 0.11184 0.29543 0.0
C2409 C 0.39176 0.1101 0.32781 0.0
H2410 H 0.37112 0.11585 0.25158 0.0
C2411 C 0.36716 0.11752 0.34228 0.0
H2412 H 0.41263 0.1069 0.28351 0.0
C2413 C 0.34321 0.12218 0.32356 0.0
C2414 C 0.3439 0.11936 0.29048 0.0
H2415 H 0.36531 0.11676 0.36727 0.0
H2416 H 0.32394 0.12717 0.33461 0.0
C2417 C 0.36968 0.11575 0.27677 0.0
C2418 C 0.40379 0.17914 0.52408 0.0
C2419 C 0.37361 0.1632 0.5247 0.0
H2420 H 0.44983 0.17845 0.53592 0.0
C2421 C 0.36682 0.13386 0.53704 0.0
H2422 H 0.40959 0.20177 0.51453 0.0
C2423 C 0.38926 0.12021 0.54812 0.0
C2424 C 0.41941 0.13603 0.54819 0.0
H2425 H 0.34397 0.12176 0.53895 0.0
H2426 H 0.38299 0.09758 0.55763 0.0
C2427 C 0.42667 0.16554 0.53577 0.0
C2428 C 0.74342 0.65487 0.30784 0.0
C2429 C 0.75319 0.625 0.29682 0.0
H2430 H 0.75112 0.70959 0.31631 0.0
C2431 C 0.78172 0.63167 0.28543 0.0
H2432 H 0.7219 0.65226 0.31669 0.0
C2433 C 0.79896 0.66548 0.28514 0.0
C2434 C 0.78895 0.69534 0.29594 0.0
H2435 H 0.79058 0.61044 0.27565 0.0
H2436 H 0.82006 0.66801 0.2754 0.0
C2437 C 0.76057 0.68854 0.30754 0.0
C2438 C 0.92514 0.43147 0.78947 0.0
C2439 C 0.90918 0.45658 0.79663 0.0
H2440 H 0.92112 0.37786 0.7752 0.0
C2441 C 0.88163 0.45042 0.77736 0.0
H2442 H 0.94855 0.43668 0.79868 0.0
C2443 C 0.86712 0.41698 0.76048 0.0
C2444 C 0.8787 0.38975 0.76634 0.0
H2445 H 0.87056 0.4706 0.77692 0.0
H2446 H 0.84487 0.41207 0.74788 0.0
C2447 C 0.90956 0.39767 0.77584 0.0
C2448 C 0.13124 0.94269 0.10259 0.0
C2449 C 0.11931 0.91051 0.08185 0.0
H2450 H 0.13569 0.9968 0.11273 0.0
C2451 C 0.10307 0.91201 0.05244 0.0
H2452 H 0.14389 0.94415 0.12538 0.0
C2453 C 0.09908 0.94306 0.04442 0.0
C2454 C 0.10956 0.97506 0.06596 0.0
H2455 H 0.09327 0.88869 0.03497 0.0
H2456 H 0.08759 0.94168 0.02112 0.0
C2457 C 0.12624 0.97354 0.09506 0.0
C2458 C 0.93581 0.2904 0.90096 0.0
C2459 C 0.95774 0.27364 0.88984 0.0
H2460 H 0.89711 0.30904 0.88983 0.0
C2461 C 0.95357 0.25998 0.85629 0.0
H2462 H 0.93721 0.30101 0.92639 0.0
C2463 C 0.93062 0.26521 0.83487 0.0
C2464 C 0.90946 0.28342 0.84556 0.0
H2465 H 0.96867 0.24558 0.84621 0.0
H2466 H 0.92951 0.2544 0.80975 0.0
C2467 C 0.91253 0.29524 0.87953 0.0
C2468 C 0.61587 0.20809 0.55709 0.0
C2469 C 0.61549 0.22536 0.58923 0.0
H2470 H 0.60847 0.15973 0.52292 0.0
C2471 C 0.61019 0.20451 0.61166 0.0
H2472 H 0.62159 0.22262 0.53902 0.0
C2473 C 0.60478 0.16897 0.60294 0.0
C2474 C 0.60366 0.15121 0.57096 0.0
H2475 H 0.61029 0.21582 0.63674 0.0
H2476 H 0.60094 0.1551 0.62187 0.0
C2477 C 0.60921 0.17167 0.54792 0.0
C2478 C 0.6374 0.81806 0.41889 0.0
C2479 C 0.61637 0.78662 0.40959 0.0
H2480 H 0.67554 0.8516 0.40683 0.0
C2481 C 0.62155 0.76211 0.38447 0.0
H2482 H 0.63333 0.83785 0.43729 0.0
C2483 C 0.64565 0.76999 0.367 0.0
C2484 C 0.66474 0.80263 0.37417 0.0
H2485 H 0.60505 0.7382 0.376 0.0
H2486 H 0.64756 0.75171 0.34594 0.0
C2487 C 0.6613 0.8261 0.40116 0.0
C2488 C 0.14499 0.26661 0.46621 0.0
C2489 C 0.13548 0.26275 0.43332 0.0
H2490 H 0.13531 0.25069 0.50983 0.0
C2491 C 0.11181 0.23529 0.41791 0.0
H2492 H 0.16318 0.28759 0.47879 0.0
C2493 C 0.09579 0.21435 0.4359 0.0
C2494 C 0.10357 0.2205 0.46924 0.0
H2495 H 0.10401 0.23181 0.39267 0.0
H2496 H 0.07623 0.19471 0.42418 0.0
C2497 C 0.12908 0.24562 0.48407 0.0
C2498 C 0.61985 0.2804 0.21298 0.0
C2499 C 0.59659 0.25451 0.19452 0.0
H2500 H 0.66005 0.29232 0.24579 0.0
C2501 C 0.59719 0.22054 0.19209 0.0
H2502 H 0.6194 0.30668 0.21523 0.0
C2503 C 0.6195 0.21235 0.2102 0.0
C2504 C 0.64183 0.2381 0.2302 0.0
H2505 H 0.57901 0.20024 0.17832 0.0
H2506 H 0.6185 0.18598 0.20987 0.0
C2507 C 0.64283 0.27218 0.23037 0.0
C2508 C 0.64674 0.94073 0.9729 0.0
C2509 C 0.65015 0.94349 0.94105 0.0
H2510 H 0.63174 0.96039 0.01684 0.0
C2511 C 0.64302 0.97105 0.93045 0.0
H2512 H 0.65184 0.91979 0.98192 0.0
C2513 C 0.63142 0.99414 0.95037 0.0
C2514 C 0.62645 0.99036 0.98159 0.0
H2515 H 0.64519 0.97417 0.9061 0.0
H2516 H 0.62556 1.01437 0.94074 0.0
C2517 C 0.635 0.96396 0.99295 0.0
C2518 C 0.91722 0.77219 0.70658 0.0
C2519 C 0.94226 0.76449 0.72075 0.0
H2520 H 0.87373 0.78022 0.71259 0.0
C2521 C 0.94136 0.75529 0.75068 0.0
H2522 H 0.91709 0.77843 0.68311 0.0
C2523 C 0.91777 0.75874 0.76847 0.0
C2524 C 0.89417 0.76996 0.75581 0.0
H2525 H 0.95922 0.74616 0.76071 0.0
H2526 H 0.9183 0.75341 0.79231 0.0
C2527 C 0.89282 0.7738 0.72369 0.0
C2528 C 0.13994 1.01054 0.88147 0.0
C2529 C 0.16869 0.03248 0.88029 0.0
H2530 H 0.10236 0.99412 0.908 0.0
C2531 C 0.17887 0.05621 0.9106 0.0
H2532 H 0.13 0.99094 0.86038 0.0
C2533 C 0.16246 0.05836 0.93854 0.0
C2534 C 0.13397 0.03654 0.94008 0.0
H2535 H 0.20038 0.07401 0.91316 0.0
H2536 H 0.1727 0.07784 0.95963 0.0
C2537 C 0.12355 1.01238 0.90988 0.0
C2538 C 0.89802 0.44378 0.63451 0.0
C2539 C 0.87409 0.42528 0.61115 0.0
H2540 H 0.93022 0.44131 0.67179 0.0
C2541 C 0.85968 0.39204 0.61231 0.0
H2542 H 0.90927 0.46963 0.63434 0.0
C2543 C 0.872 0.3758 0.63338 0.0
C2544 C 0.8986 0.39291 0.65355 0.0
H2545 H 0.84082 0.3775 0.59478 0.0
H2546 H 0.86228 0.34913 0.63171 0.0
C2547 C 0.91031 0.42752 0.65557 0.0
C2548 C 0.4974 0.08983 0.43915 0.0
C2549 C 0.48419 0.05906 0.41779 0.0
H2550 H 0.53409 0.11653 0.47528 0.0
C2551 C 0.49999 0.03387 0.41205 0.0
H2552 H 0.486 0.11003 0.44283 0.0
C2553 C 0.52822 0.03879 0.42851 0.0
C2554 C 0.54083 0.06881 0.45124 0.0
H2555 H 0.49046 1.0104 0.39457 0.0
H2556 H 0.539 0.01802 0.4256 0.0
C2557 C 0.52545 0.09438 0.45619 0.0
C2558 C 0.80256 0.72149 0.14195 0.0
C2559 C 0.81062 0.74593 0.12331 0.0
H2560 H 0.80114 0.70982 0.18871 0.0
C2561 C 0.82189 0.77994 0.14062 0.0
H2562 H 0.7937 0.69511 0.13026 0.0
C2563 C 0.82541 0.78871 0.17505 0.0
C2564 C 0.81797 0.76372 0.19342 0.0
H2565 H 0.82855 0.79978 0.1276 0.0
H2566 H 0.83517 0.81478 0.18722 0.0
C2567 C 0.80657 0.73008 0.17589 0.0
C2568 C 0.17437 0.02762 0.65117 0.0
C2569 C 0.16079 0.02958 0.68022 0.0
H2570 H 0.17293 0.0282 0.60031 0.0
C2571 C 0.13195 0.03709 0.67537 0.0
H2572 H 0.19611 0.02214 0.65156 0.0
C2573 C 0.11815 0.04152 0.64464 0.0
C2574 C 0.13178 0.03877 0.61533 0.0
H2575 H 0.11954 0.03967 0.6958 0.0
H2576 H 0.09613 0.04627 0.64394 0.0
C2577 C 0.16053 0.03149 0.62068 0.0
C2578 C 0.87896 0.39057 0.42339 0.0
C2579 C 0.85516 0.40402 0.43291 0.0
H2580 H 0.89273 0.35405 0.38934 0.0
C2581 C 0.82629 0.39009 0.41732 0.0
H2582 H 0.90136 0.40132 0.43594 0.0
C2583 C 0.82129 0.36338 0.39104 0.0
C2584 C 0.84515 0.35015 0.38051 0.0
H2585 H 0.80785 0.40033 0.42503 0.0
H2586 H 0.79896 0.35437 0.37818 0.0
C2587 C 0.87397 0.36351 0.39723 0.0
C2588 C 0.46854 1.0046 0.22943 0.0
C2589 C 0.47545 0.03868 0.24571 0.0
H2590 H 0.48318 0.96656 0.19789 0.0
C2591 C 0.5005 0.06177 0.2399 0.0
H2592 H 0.44949 0.98628 0.2341 0.0
C2593 C 0.51961 0.05039 0.21939 0.0
C2594 C 0.51403 1.01583 0.20548 0.0
H2595 H 0.50611 0.08804 0.25256 0.0
H2596 H 0.5393 0.06821 0.21534 0.0
C2597 C 0.48802 0.99312 0.20954 0.0
C2598 C 0.82849 0.72217 0.9016 0.0
C2599 C 0.82226 0.74174 0.93035 0.0
H2600 H 0.83824 0.71842 0.85283 0.0
C2601 C 0.82445 0.77631 0.93033 0.0
H2602 H 0.82772 0.69563 0.89961 0.0
C2603 C 0.83166 0.78988 0.90259 0.0
C2604 C 0.83649 0.76935 0.87366 0.0
H2605 H 0.81992 0.79269 0.95134 0.0
H2606 H 0.8322 0.81618 0.90338 0.0
C2607 C 0.83491 0.73536 0.87418 0.0
C2608 C 0.88858 0.11513 1.00777 0.0
C2609 C 0.87255 0.10873 0.03339 0.0
H2610 H 0.91914 0.09934 0.9767 0.0
C2611 C 0.8798 0.08691 0.05217 0.0
H2612 H 0.88307 0.13193 0.99305 0.0
C2613 C 0.9001 0.06801 0.04256 0.0
C2614 C 0.91322 0.07143 0.0145 0.0
H2615 H 0.86727 0.08151 0.07177 0.0
H2616 H 0.90334 0.04859 0.05512 0.0
C2617 C 0.90894 0.09649 0.99834 0.0
C2618 C 0.46049 0.43626 0.02977 0.0
C2619 C 0.44096 0.44753 0.05052 0.0
H2620 H 0.50168 0.44811 1.00958 0.0
C2621 C 0.45108 0.48064 0.06976 0.0
H2622 H 0.45388 0.41095 0.01482 0.0
C2623 C 0.47913 0.50214 0.06731 0.0
C2624 C 0.49803 0.49158 0.04513 0.0
H2625 H 0.43701 0.49017 0.0865 0.0
H2626 H 0.48557 0.52722 0.08243 0.0
C2627 C 0.48811 0.45792 0.02676 0.0
C2628 C 0.3872 0.66933 0.80999 0.0
C2629 C 0.4096 0.65969 0.79028 0.0
H2630 H 0.35667 0.70161 0.82486 0.0
C2631 C 0.41406 0.68106 0.76733 0.0
H2632 H 0.38121 0.65529 0.82839 0.0
C2633 C 0.3986 0.70819 0.76475 0.0
C2634 C 0.37631 0.71808 0.78433 0.0
H2635 H 0.42994 0.67694 0.75061 0.0
H2636 H 0.40479 0.72227 0.74644 0.0
C2637 C 0.37192 0.69685 0.8076 0.0
C2638 C 0.20794 0.64641 0.55524 0.0
C2639 C 0.22235 0.62183 0.54103 0.0
H2640 H 0.1678 0.65701 0.57138 0.0
C2641 C 0.20689 0.58761 0.53517 0.0
H2642 H 0.21931 0.67304 0.56132 0.0
C2643 C 0.17714 0.57852 0.54139 0.0
C2644 C 0.16232 0.60344 0.55373 0.0
H2645 H 0.21758 0.56792 0.52556 0.0
H2646 H 0.16566 0.5521 0.53547 0.0
C2647 C 0.17846 0.6373 0.56161 0.0
C2648 C 0.77616 0.97895 0.74551 0.0
C2649 C 0.75214 0.98927 0.75832 0.0
H2650 H 0.81452 0.96105 0.75574 0.0
C2651 C 0.74184 0.9792 0.78576 0.0
H2652 H 0.78424 0.98692 0.72436 0.0
C2653 C 0.75958 0.96556 0.80439 0.0
C2654 C 0.78664 0.96088 0.7945 0.0
H2655 H 0.72317 0.98731 0.79569 0.0
H2656 H 0.75372 0.96184 0.82773 0.0
C2657 C 0.79369 0.96488 0.76382 0.0
C2658 C 0.76098 0.91608 0.51305 0.0
C2659 C 0.78276 0.93184 0.53959 0.0
H2660 H 0.72436 0.92106 0.48197 0.0
C2661 C 0.78017 0.96224 0.55908 0.0
H2662 H 0.76294 0.89329 0.49703 0.0
C2663 C 0.75812 0.97823 0.55043 0.0
C2664 C 0.73852 0.96428 0.52189 0.0
H2665 H 0.79716 0.97549 0.5791 0.0
H2666 H 0.75837 1.00305 0.56428 0.0
C2667 C 0.73915 0.93225 0.50419 0.0
C2668 C 0.42669 0.44933 0.78556 0.0
C2669 C 0.41335 0.47502 0.77815 0.0
H2670 H 0.42218 0.39774 0.79103 0.0
C2671 C 0.38184 0.46344 0.76871 0.0
H2672 H 0.45063 0.45561 0.79234 0.0
C2673 C 0.36489 0.42935 0.76829 0.0
C2674 C 0.37834 0.40383 0.77616 0.0
H2675 H 0.37001 0.48078 0.76114 0.0
H2676 H 0.34099 0.42296 0.76128 0.0
C2677 C 0.40994 0.4153 0.78471 0.0
C2678 C 0.28659 0.66641 0.24804 0.0
C2679 C 0.25603 0.65588 0.25027 0.0
H2680 H 0.32573 0.70762 0.26081 0.0
C2681 C 0.23978 0.68001 0.25889 0.0
H2682 H 0.29896 0.64829 0.23892 0.0
C2683 C 0.25427 0.71415 0.26657 0.0
C2684 C 0.28539 0.72458 0.26705 0.0
H2685 H 0.21596 0.67249 0.26006 0.0
H2686 H 0.24109 0.73233 0.27285 0.0
C2687 C 0.30163 0.70032 0.25911 0.0
C2688 C 0.55723 0.68303 0.5088 0.0
C2689 C 0.54567 0.6838 0.47694 0.0
H2690 H 0.57293 0.65484 0.54199 0.0
C2691 C 0.54234 0.6529 0.4544 0.0
H2692 H 0.56072 0.70565 0.52752 0.0
C2693 C 0.54975 0.62367 0.46275 0.0
C2694 C 0.5611 0.62242 0.49438 0.0
H2695 H 0.53386 0.65111 0.42966 0.0
H2696 H 0.54633 0.60136 0.44367 0.0
C2697 C 0.56456 0.65336 0.51729 0.0
C2698 C 0.72655 0.35144 0.71187 0.0
C2699 C 0.71954 0.33551 0.67871 0.0
H2700 H 0.75497 0.35977 0.75684 0.0
C2701 C 0.738 0.31443 0.66693 0.0
H2702 H 0.71298 0.36752 0.72265 0.0
C2703 C 0.76191 0.30944 0.68689 0.0
C2704 C 0.76942 0.32543 0.71994 0.0
H2705 H 0.73345 0.30072 0.6421 0.0
H2706 H 0.77407 0.29228 0.67591 0.0
C2707 C 0.7509 0.34675 0.73183 0.0
C2708 C 0.07885 0.40794 0.966 0.0
C2709 C 0.05786 0.3852 0.97892 0.0
H2710 H 0.09845 0.45789 0.96129 0.0
C2711 C 0.04291 0.40083 1.00313 0.0
H2712 H 0.09173 0.39833 0.9479 0.0
C2713 C 0.0482 0.43725 0.01248 0.0
C2714 C 0.06722 0.45944 0.99671 0.0
H2715 H 0.0265 0.38512 0.01414 0.0
H2716 H 0.03673 0.44764 0.03139 0.0
C2717 C 0.08283 0.44323 0.97396 0.0
C2718 C 0.03692 0.83406 0.17045 0.0
C2719 C 0.05246 0.80977 0.1589 0.0
H2720 H 1.00407 0.84655 0.20067 0.0
C2721 C 0.0451 0.77817 0.16721 0.0
H2722 H 0.04194 0.85844 0.16385 0.0
C2723 C 0.02323 0.77111 0.18735 0.0
C2724 C 1.00836 0.79565 0.2002 0.0
H2725 H 0.05644 0.75885 0.15817 0.0
H2726 H 0.01836 0.74649 0.19348 0.0
C2727 C 0.01502 0.82708 0.19106 0.0
C2728 C 0.54633 0.34284 0.12773 0.0
C2729 C 0.51772 0.32261 0.11441 0.0
H2730 H 0.58554 0.37781 0.12008 0.0
C2731 C 0.50453 0.32709 0.08536 0.0
H2732 H 0.55708 0.34023 0.15018 0.0
C2733 C 0.52086 0.3489 0.06841 0.0
C2734 C 0.55053 0.36611 0.08026 0.0
H2735 H 0.48241 0.31213 0.07467 0.0
H2736 H 0.51114 0.3504 0.04503 0.0
C2737 C 0.56273 0.36422 0.11057 0.0
C2738 C 0.05681 0.36799 0.37817 0.0
C2739 C 0.07627 0.3513 0.36224 0.0
H2740 H 0.01885 0.38846 0.37286 0.0
C2741 C 0.07 0.33762 0.32914 0.0
H2742 H 0.06128 0.37833 0.40384 0.0
C2743 C 0.04595 0.34326 0.31146 0.0
C2744 C 0.0278 0.36249 0.32681 0.0
H2745 H 0.08438 0.32362 0.31675 0.0
H2746 H 0.04186 0.33305 0.28577 0.0
C2747 C 0.03282 0.37391 0.36044 0.0
C2748 C 1.00632 0.65467 0.58744 0.0
C2749 C 1.00755 0.65772 0.62096 0.0
H2750 H 0.02167 0.63376 0.54392 0.0
C2751 C 0.02278 0.63793 0.63555 0.0
H2752 H 0.99502 0.66986 0.57544 0.0
C2753 C 0.03833 0.61754 0.61746 0.0
C2754 C 0.03898 0.61649 0.58436 0.0
H2755 H 0.02435 0.63984 0.66129 0.0
H2756 H 0.05072 0.60362 0.62986 0.0
C2757 C 0.02201 0.6344 0.56936 0.0
C2758 C 0.74544 0.83804 0.87127 0.0
C2759 C 0.72522 0.84847 0.85194 0.0
H2760 H 0.78679 0.82384 0.87526 0.0
C2761 C 0.73021 0.84916 0.81978 0.0
H2762 H 0.74227 0.83702 0.89595 0.0
C2763 C 0.75491 0.83969 0.80733 0.0
C2764 C 0.77553 0.83043 0.82716 0.0
H2765 H 0.71517 0.85726 0.80416 0.0
H2766 H 0.75876 0.84145 0.78296 0.0
C2767 C 0.77069 0.83007 0.85926 0.0
C2768 C 0.53412 0.5849 0.68077 0.0
C2769 C 0.50376 0.56748 0.68247 0.0
H2770 H 0.57187 0.59702 0.65367 0.0
C2771 C 0.49017 0.54697 0.65141 0.0
H2772 H 0.54693 0.60113 0.70265 0.0
C2773 C 0.5052 0.54425 0.62218 0.0
C2774 C 0.53551 0.56191 0.62045 0.0
H2775 H 0.46737 0.53218 0.64948 0.0
H2776 H 0.49256 0.52762 0.6004 0.0
C2777 C 0.54903 0.5824 0.65153 0.0
C2778 C 0.77466 0.19838 0.96993 0.0
C2779 C 0.80328 0.19366 0.97631 0.0
H2780 H 0.74878 0.22926 0.9533 0.0
C2781 C 0.82865 0.21805 0.97333 0.0
H2782 H 0.75494 0.18032 0.97347 0.0
C2783 C 0.82517 0.24655 0.96247 0.0
C2784 C 0.79636 0.25086 0.95537 0.0
H2785 H 0.85086 0.21475 0.97885 0.0
H2786 H 0.84478 0.26476 0.95882 0.0
C2787 C 0.77118 0.2268 0.95945 0.0
C2788 C 0.16715 0.57208 0.14911 0.0
C2789 C 0.17062 0.54072 0.15346 0.0
H2790 H 0.14006 0.59831 0.12697 0.0
C2791 C 0.14889 0.51093 0.13907 0.0
H2792 H 0.18277 0.59546 0.16177 0.0
C2793 C 0.1247 0.51248 0.11844 0.0
C2794 C 0.12179 0.54399 0.11368 0.0
H2795 H 0.15067 0.48677 0.14388 0.0
H2796 H 0.10916 0.48931 0.10531 0.0
C2797 C 0.1424 0.57376 0.13011 0.0
C2798 C 0.86205 0.83355 0.43001 0.0
C2799 C 0.84507 0.85541 0.44441 0.0
H2800 H 0.87193 0.80478 0.38615 0.0
C2801 C 0.82348 0.86251 0.42372 0.0
H2802 H 0.87913 0.82741 0.44482 0.0
C2803 C 0.8208 0.85141 0.39023 0.0
C2804 C 0.83917 0.83184 0.37492 0.0
H2805 H 0.80971 0.87894 0.4334 0.0
H2806 H 0.80487 0.86006 0.37631 0.0
C2807 C 0.85856 0.82128 0.39586 0.0
C2808 C 0.52637 0.55816 0.88406 0.0
C2809 C 0.50159 0.57392 0.88246 0.0
H2810 H 0.55985 0.54151 0.91223 0.0
C2811 C 0.49438 0.58484 0.91414 0.0
H2812 H 0.53386 0.54826 0.86164 0.0
C2813 C 0.5096 0.58084 0.9437 0.0
C2814 C 0.53344 0.56417 0.94592 0.0
H2815 H 0.47616 0.59708 0.9165 0.0
H2816 H 0.5022 0.59176 0.96574 0.0
C2817 C 0.54162 0.55371 0.9142 0.0
C2818 C 0.78738 0.21093 0.14897 0.0
C2819 C 0.81198 0.19878 0.13986 0.0
H2820 H 0.77172 0.24553 0.18345 0.0
C2821 C 0.83986 0.21149 0.15818 0.0
H2822 H 0.7659 0.20177 0.13415 0.0
C2823 C 0.84327 0.23629 0.18579 0.0
C2824 C 0.81894 0.24929 0.19497 0.0
H2825 H 0.85906 0.20256 0.15085 0.0
H2826 H 0.8649 0.24457 0.20023 0.0
C2827 C 0.79087 0.23633 0.17648 0.0
C2828 C 0.20472 0.60153 0.35348 0.0
C2829 C 0.19538 0.57458 0.32677 0.0
H2830 H 0.19103 0.63455 0.39086 0.0
C2831 C 0.16529 0.55602 0.32054 0.0
H2832 H 0.22785 0.61552 0.35951 0.0
C2833 C 0.14449 0.56576 0.33981 0.0
C2834 C 0.15362 0.59486 0.36432 0.0
H2835 H 0.15771 0.53496 0.30005 0.0
H2836 H 0.12136 0.55142 0.33502 0.0
C2837 C 0.18371 0.61258 0.37117 0.0
C2838 C 0.83221 0.82796 0.63651 0.0
C2839 C 0.84562 0.86197 0.63586 0.0
H2840 H 0.81752 0.79094 0.66439 0.0
C2841 C 0.85299 0.88497 0.66604 0.0
H2842 H 0.8261 0.8091 0.61421 0.0
C2843 C 0.84758 0.87442 0.69531 0.0
C2844 C 0.83437 0.8403 0.6961 0.0
H2845 H 0.86336 0.91136 0.66717 0.0
H2846 H 0.85427 0.89324 0.71759 0.0
C2847 C 0.82684 0.81742 0.6658 0.0
C2848 C 0.78774 0.51615 0.5099 0.0
C2849 C 0.79767 0.49321 0.52566 0.0
H2850 H 0.76196 0.55298 0.51214 0.0
C2851 C 0.78436 0.48471 0.55242 0.0
H2852 H 0.79724 0.52277 0.4889 0.0
C2853 C 0.7645 0.50226 0.56572 0.0
C2854 C 0.75744 0.52789 0.55203 0.0
H2855 H 0.79116 0.46671 0.56476 0.0
H2856 H 0.75617 0.49741 0.58782 0.0
C2857 C 0.76763 0.53344 0.52308 0.0
C2858 C 0.2213 0.12109 0.51216 0.0
C2859 C 0.22268 0.15268 0.50382 0.0
H2860 H 0.1938 0.07488 0.52068 0.0
C2861 C 0.1953 0.16084 0.49728 0.0
H2862 H 0.24172 0.11441 0.51907 0.0
C2863 C 0.16772 0.13846 0.49914 0.0
C2864 C 0.16632 0.10691 0.50743 0.0
H2865 H 0.19521 0.18499 0.49133 0.0
H2866 H 0.14731 0.14606 0.49444 0.0
C2867 C 0.19365 0.09837 0.51336 0.0
C2868 C 0.25685 0.91444 0.76068 0.0
C2869 C 0.25383 0.93851 0.78907 0.0
H2870 H 0.27122 0.86935 0.73768 0.0
C2871 C 0.26791 0.93017 0.81686 0.0
H2872 H 0.24772 0.91745 0.73768 0.0
C2873 C 0.28186 0.90154 0.81683 0.0
C2874 C 0.28574 0.87793 0.78882 0.0
H2875 H 0.26772 0.94602 0.84008 0.0
H2876 H 0.28986 0.89786 0.84001 0.0
C2877 C 0.27165 0.88599 0.76064 0.0
C2878 C 0.46201 0.02196 1.01067 0.0
C2879 C 0.44772 0.98742 1.00127 0.0
H2880 H 0.50369 0.05946 0.02201 0.0
C2881 C 0.46491 0.96436 0.99156 0.0
H2882 H 0.44932 0.03982 0.0194 0.0
C2883 C 0.49595 0.97522 0.99356 0.0
C2884 C 0.51064 1.00937 1.00555 0.0
H2885 H 0.45447 0.93748 0.98456 0.0
H2886 H 0.50868 0.95643 0.98809 0.0
C2887 C 0.49325 0.033 0.01245 0.0
C2888 C 0.86039 0.58851 0.81025 0.0
C2889 C 0.88583 0.60929 0.83015 0.0
H2890 H 0.82623 0.58369 0.77244 0.0
C2891 C 0.89586 0.64317 0.82819 0.0
H2892 H 0.85453 0.56156 0.80834 0.0
C2893 C 0.88072 0.6556 0.80549 0.0
C2894 C 0.85607 0.63378 0.78469 0.0
H2895 H 0.91634 0.65899 0.84234 0.0
H2896 H 0.8895 0.68117 0.80251 0.0
C2897 C 0.84505 0.60086 0.78847 0.0
C2898 C 0.89179 0.68185 0.05291 0.0
C2899 C 0.87655 0.66835 0.02177 0.0
H2900 H 0.92415 0.67736 0.08938 0.0
C2901 C 0.88595 0.64247 1.00178 0.0
H2902 H 0.8853 0.7018 0.06892 0.0
C2903 C 0.90823 0.62855 0.0135 0.0
C2904 C 0.92146 0.63999 0.04554 0.0
H2905 H 0.87497 0.63162 0.97751 0.0
H2906 H 0.91358 0.6073 0.99815 0.0
C2907 C 0.91392 0.6677 0.0647 0.0
C2908 C 0.28322 0.13179 0.7873 0.0
C2909 C 0.25393 0.12488 0.79689 0.0
H2910 H 0.32223 0.16836 0.77884 0.0
C2911 C 0.24326 0.1545 0.8058 0.0
H2912 H 0.29278 0.11073 0.77897 0.0
C2913 C 0.26027 0.18813 0.80531 0.0
C2914 C 0.28949 0.19521 0.79572 0.0
H2915 H 0.22109 0.1517 0.81307 0.0
H2916 H 0.25006 0.20894 0.81234 0.0
C2917 C 0.30043 0.16563 0.787 0.0
C2918 C 0.38854 0.943 0.28069 0.0
C2919 C 0.41619 0.95352 0.30063 0.0
H2920 H 0.35422 0.8993 0.25375 0.0
C2921 C 0.4351 0.93136 0.29533 0.0
H2922 H 0.37557 0.961 0.2778 0.0
C2923 C 0.42292 0.89693 0.28195 0.0
C2924 C 0.39179 0.88445 0.27474 0.0
H2925 H 0.45851 0.93942 0.30506 0.0
H2926 H 0.43753 0.88013 0.28087 0.0
C2927 C 0.3766 0.90796 0.26656 0.0
C2928 C 0.60259 0.41026 0.55037 0.0
C2929 C 0.61761 0.40898 0.58052 0.0
H2930 H 0.58712 0.43963 0.51868 0.0
C2931 C 0.62738 0.44089 0.60213 0.0
H2932 H 0.59433 0.38702 0.53235 0.0
C2933 C 0.62163 0.47134 0.59457 0.0
C2934 C 0.60633 0.47266 0.56462 0.0
H2935 H 0.63878 0.44235 0.6256 0.0
H2936 H 0.62932 0.49441 0.61288 0.0
C2937 C 0.5978 0.441 0.54239 0.0
C2938 C 0.45354 0.75722 0.35522 0.0
C2939 C 0.4571 0.77024 0.38897 0.0
H2940 H 0.42919 0.75107 0.30832 0.0
C2941 C 0.43378 0.78473 0.39994 0.0
H2942 H 0.46958 0.74426 0.34514 0.0
C2943 C 0.41022 0.78891 0.3784 0.0
C2944 C 0.40781 0.7781 0.34435 0.0
H2945 H 0.43443 0.79445 0.42544 0.0
H2946 H 0.39399 0.80143 0.38873 0.0
C2947 C 0.42985 0.76116 0.33365 0.0
C2948 C 0.11435 0.70846 0.05652 0.0
C2949 C 0.11458 0.72567 0.08884 0.0
H2950 H 0.10607 0.66013 0.02205 0.0
C2951 C 0.10909 0.70468 0.11114 0.0
H2952 H 0.12008 0.72305 0.0385 0.0
C2953 C 0.10295 0.66909 0.10214 0.0
C2954 C 0.10138 0.65144 0.07005 0.0
H2955 H 0.10961 0.71593 0.1363 0.0
H2956 H 0.09895 0.65507 0.12095 0.0
C2957 C 0.10712 0.67201 0.04712 0.0
C2958 C 0.13668 0.31725 0.91626 0.0
C2959 C 0.11586 0.28564 0.90733 0.0
H2960 H 0.17465 0.35067 0.90383 0.0
C2961 C 0.12124 0.2608 0.8827 0.0
H2962 H 0.13242 0.33723 0.93431 0.0
C2963 C 0.14539 0.26847 0.86527 0.0
C2964 C 0.16423 0.30125 0.87198 0.0
H2965 H 0.1049 0.23672 0.87456 0.0
H2966 H 0.14751 0.24991 0.84454 0.0
C2967 C 0.16058 0.32509 0.89854 0.0
C2968 C 0.61046 0.73424 0.91742 0.0
C2969 C 0.63656 0.75943 0.93075 0.0
H2970 H 0.57385 0.69688 0.927 0.0
C2971 C 0.64964 0.76074 0.96189 0.0
H2972 H 0.59972 0.73299 0.89366 0.0
C2973 C 0.63496 0.73991 0.98076 0.0
C2974 C 0.60703 0.71774 0.9687 0.0
H2975 H 0.66971 0.78008 0.97273 0.0
H2976 H 0.64389 0.74363 1.00573 0.0
C2977 C 0.5956 0.71368 0.93647 0.0
C2978 C 0.11358 0.75564 0.69234 0.0
C2979 C 0.08759 0.75793 0.70636 0.0
H2980 H 0.15572 0.74329 0.69668 0.0
C2981 C 0.08473 0.75041 0.73681 0.0
H2982 H 0.11587 0.76022 0.66844 0.0
C2983 C 0.10779 0.74198 0.75355 0.0
C2984 C 0.13369 0.73904 0.73949 0.0
H2985 H 0.06419 0.74985 0.74739 0.0
H2986 H 0.10503 0.73732 0.77735 0.0
C2987 C 0.13637 0.74604 0.70865 0.0
C2988 C 0.15243 0.47359 0.43772 0.0
C2989 C 0.15871 0.44498 0.44667 0.0
H2990 H 0.13449 0.51595 0.4491 0.0
C2991 C 0.15354 0.43951 0.4775 0.0
H2992 H 0.15504 0.47827 0.41395 0.0
C2993 C 0.14008 0.46081 0.49763 0.0
C2994 C 0.13204 0.48792 0.48727 0.0
H2995 H 0.15778 0.41747 0.48513 0.0
H2996 H 0.13466 0.45494 0.52032 0.0
C2997 C 0.13966 0.49491 0.45778 0.0
C2998 C 0.41722 0.28542 0.19111 0.0
C2999 C 0.43854 0.27223 0.20587 0.0
H3000 H 0.3757 0.29833 0.19275 0.0
C3001 C 0.43716 0.2687 0.2379 0.0
H3002 H 0.41806 0.28954 0.16688 0.0
C3003 C 0.41298 0.27569 0.25371 0.0
C3004 C 0.39031 0.28559 0.23708 0.0
H3005 H 0.45346 0.25864 0.24977 0.0
H3006 H 0.41091 0.27112 0.27764 0.0
C3007 C 0.39293 0.29067 0.20597 0.0
C3008 C 0.64479 0.50341 0.38544 0.0
C3009 C 0.66715 0.53117 0.37921 0.0
H3010 H 0.61245 0.48245 0.41602 0.0
C3011 C 0.67121 0.5604 0.4051 0.0
H3012 H 0.64002 0.47944 0.36832 0.0
C3013 C 0.65546 0.56199 0.43358 0.0
C3014 C 0.63322 0.53459 0.43997 0.0
H3015 H 0.68712 0.58329 0.40385 0.0
H3016 H 0.66103 0.58576 0.45102 0.0
C3017 C 0.62854 0.50514 0.41402 0.0
C3018 C 0.35383 0.92053 0.11963 0.0
C3019 C 0.37601 0.94501 0.11079 0.0
H3020 H 0.34439 0.87517 0.1371 0.0
C3021 C 0.40602 0.94935 0.12255 0.0
H3022 H 0.33055 0.91674 0.1105 0.0
C3023 C 0.41419 0.92516 0.13741 0.0
C3024 C 0.39223 0.89713 0.1411 0.0
H3025 H 0.42347 0.96806 0.11579 0.0
H3026 H 0.43769 0.92688 0.14353 0.0
C3027 C 0.36189 0.89634 0.13431 0.0
C3028 C 0.99755 0.53333 0.91117 0.0
C3029 C 0.98319 0.55982 0.91618 0.0
H3030 H 0.03506 0.51536 0.92559 0.0
C3031 C 0.99762 0.5907 0.93685 0.0
H3032 H 0.98707 0.5097 0.89431 0.0
C3033 C 0.02536 0.5941 0.95414 0.0
C3034 C 0.0392 0.56716 0.95005 0.0
H3035 H 0.98727 0.61179 0.93999 0.0
H3036 H 0.03487 0.61657 0.97272 0.0
C3037 C 0.02544 0.53703 0.92788 0.0
C3038 C 0.3131 0.22048 0.64087 0.0
C3039 C 0.31317 0.24507 0.62231 0.0
H3040 H 0.31744 0.20871 0.68742 0.0
C3041 C 0.31671 0.2788 0.63979 0.0
H3042 H 0.31049 0.19429 0.62907 0.0
C3043 C 0.32036 0.28728 0.67429 0.0
C3044 C 0.32088 0.26234 0.69258 0.0
H3045 H 0.31666 0.29872 0.62681 0.0
H3046 H 0.32348 0.31341 0.68654 0.0
C3047 C 0.31706 0.22889 0.67482 0.0
C3048 C 0.65649 0.50205 0.14852 0.0
C3049 C 0.66004 0.52641 0.1781 0.0
H3050 H 0.64093 0.48435 0.09744 0.0
C3051 C 0.64663 0.55355 0.1733 0.0
H3052 H 0.66501 0.47995 0.14888 0.0
C3053 C 0.63155 0.55593 0.14239 0.0
C3054 C 0.62887 0.53201 0.11238 0.0
H3055 H 0.64747 0.57354 0.19401 0.0
H3056 H 0.62149 0.57666 0.14266 0.0
C3057 C 0.64199 0.50481 0.11779 0.0
C3058 C 0.32145 0.87429 0.91479 0.0
C3059 C 0.34835 0.88456 0.93514 0.0
H3060 H 0.29811 0.8428 0.87086 0.0
C3061 C 0.37121 0.86793 0.92975 0.0
H3062 H 0.30408 0.88771 0.91847 0.0
C3063 C 0.36786 0.84234 0.90252 0.0
C3064 C 0.3413 0.83293 0.88154 0.0
H3065 H 0.39244 0.8766 0.94506 0.0
H3066 H 0.38648 0.8315 0.8968 0.0
C3067 C 0.31789 0.84835 0.88805 0.0
C3068 C 0.9644 0.50448 0.73 0.0
C3069 C 0.97141 0.53897 0.74512 0.0
H3070 H 0.97925 0.46501 0.70057 0.0
C3071 C 0.99712 0.56108 0.73927 0.0
H3072 H 0.94499 0.48681 0.73486 0.0
C3073 C 0.0164 0.54856 0.71966 0.0
C3074 C 1.01047 0.51374 0.70656 0.0
H3075 H 1.00305 0.58759 0.75123 0.0
H3076 H 0.0365 0.56578 0.71565 0.0
C3077 C 0.98415 0.49184 0.71112 0.0
C3078 C 0.31983 0.21789 0.39679 0.0
C3079 C 0.32082 0.23883 0.42768 0.0
H3080 H 0.3238 0.21314 0.34644 0.0
C3081 C 0.32868 0.27411 0.42906 0.0
H3082 H 0.31381 0.1906 0.39339 0.0
C3083 C 0.33513 0.2873 0.40094 0.0
C3084 C 0.33382 0.26582 0.37027 0.0
H3085 H 0.32963 0.29156 0.45168 0.0
H3086 H 0.33999 0.31438 0.4031 0.0
C3087 C 0.32579 0.23089 0.36914 0.0
C3088 C 0.37709 0.57927 0.55069 0.0
C3089 C 0.3728 0.60513 0.53562 0.0
H3090 H 0.39748 0.53772 0.54873 0.0
C3091 C 0.39091 0.61485 0.51257 0.0
H3092 H 0.36291 0.57144 0.5683 0.0
C3093 C 0.41051 0.59581 0.50154 0.0
C3094 C 0.4117 0.56706 0.51348 0.0
H3095 H 0.38749 0.6347 0.50065 0.0
H3096 H 0.42255 0.60156 0.4817 0.0
C3097 C 0.39646 0.55992 0.53936 0.0
C3098 C 0.96164 0.93594 0.52958 0.0
C3099 C 0.94116 0.94792 0.54839 0.0
H3100 H 1.00379 0.94689 0.51145 0.0
C3101 C 0.95016 0.98176 0.56607 0.0
H3102 H 0.9558 0.91007 0.51589 0.0
C3103 C 0.97812 1.00336 0.5637 0.0
C3104 C 0.99827 0.99176 0.5438 0.0
H3105 H 0.93532 0.99174 0.58151 0.0
H3106 H 0.98382 0.02911 0.57745 0.0
C3107 C 0.9894 0.95742 0.52708 0.0
C3108 C 0.89424 0.17187 0.31654 0.0
C3109 C 0.91291 0.15961 0.2934 0.0
H3110 H 0.86805 0.20751 0.33569 0.0
C3111 C 0.9135 0.17819 0.26813 0.0
H3112 H 0.89169 0.16034 0.33714 0.0
C3113 C 0.8977 0.20521 0.26651 0.0
C3114 C 0.8787 0.21723 0.28939 0.0
H3115 H 0.9265 0.17193 0.24888 0.0
H3116 H 0.90107 0.21763 0.24656 0.0
C3117 C 0.87902 0.19944 0.31522 0.0
C3118 C 0.70384 0.09192 0.02863 0.0
C3119 C 0.72104 0.12505 0.04056 0.0
H3120 H 0.66115 0.05765 0.02287 0.0
C3121 C 0.70812 0.14799 0.06024 0.0
H3122 H 0.71325 0.07303 0.0151 0.0
C3123 C 0.6783 0.13879 0.06569 0.0
C3124 C 0.66053 0.10647 0.05171 0.0
H3125 H 0.72092 0.17343 0.07136 0.0
H3126 H 0.66881 0.15741 0.07984 0.0
C3127 C 0.67388 0.08285 0.03385 0.0
C3128 C 0.24189 0.47284 0.27561 0.0
C3129 C 0.2538 0.48429 0.24941 0.0
H3130 H 0.25206 0.45508 0.31784 0.0
C3131 C 0.27851 0.47435 0.23782 0.0
H3132 H 0.22273 0.48058 0.2847 0.0
C3133 C 0.29501 0.45941 0.25647 0.0
C3134 C 0.28657 0.45489 0.28649 0.0
H3135 H 0.28782 0.48325 0.2176 0.0
H3136 H 0.3164 0.45608 0.24972 0.0
C3137 C 0.25882 0.45888 0.29482 0.0
C3138 C 0.27514 0.42828 0.99318 0.0
C3139 C 0.28153 0.42867 0.02582 0.0
H3140 H 0.25027 0.44171 0.95691 0.0
C3141 C 0.26378 0.44236 0.04735 0.0
H3142 H 0.28889 0.41873 0.97601 0.0
C3143 C 0.24153 0.45741 0.03656 0.0
C3144 C 0.23675 0.45971 1.00393 0.0
H3145 H 0.26858 0.44377 0.07284 0.0
H3146 H 0.2296 0.4689 0.05448 0.0
C3147 C 0.25317 0.44302 0.98239 0.0
C3148 C 0.88375 0.96334 0.26972 0.0
C3149 C 0.91521 0.97473 0.27955 0.0
H3150 H 0.84273 0.92312 0.26191 0.0
C3151 C 0.92825 0.94897 0.28729 0.0
H3152 H 0.87217 0.98076 0.26187 0.0
C3153 C 0.91126 0.915 0.28633 0.0
C3154 C 0.87969 0.90374 0.27744 0.0
H3155 H 0.95213 0.95511 0.29439 0.0
H3156 H 0.92327 0.89733 0.29286 0.0
C3157 C 0.86655 0.92937 0.26927 0.0
C3158 C 0.74104 0.18309 0.7471 0.0
C3159 C 0.75725 0.15841 0.7462 0.0
H3160 H 0.7433 0.23586 0.75408 0.0
C3161 C 0.78833 0.16794 0.74826 0.0
H3162 H 0.71684 0.17634 0.7443 0.0
C3163 C 0.80326 0.2018 0.75867 0.0
C3164 C 0.78745 0.22654 0.75978 0.0
H3165 H 0.801 0.14912 0.74423 0.0
H3166 H 0.82696 0.20861 0.76641 0.0
C3167 C 0.75617 0.21702 0.75286 0.0
loop_
_geom_bond_atom_site_label_1
_geom_bond_atom_site_label_2
_geom_bond_distance
_geom_bond_site_symmetry_2
_ccdc_geom_bond_type
Mn0 O5 2.095 . S
Mn0 O15 2.162 . S
Mn0 O16 2.297 . S
Mn0 O24 2.385 . S
Mn0 O25 2.209 . S
Mn0 O26 2.094 . S
Mn1 O6 2.121 . S
Mn1 N8 2.257 . S
Mn1 N17 2.282 . S
Mn1 O25 2.215 . S
Mn1 O27 2.117 . S
C2 O24 1.234 . S
C2 O25 1.283 . S
C3 O15 1.281 . S
C3 O16 1.236 . S
C4 O26 1.240 . S
C4 O27 1.264 . S
O5 Mn0 2.095 . S
O5 C14 1.250 . S
O6 Mn1 2.121 . S
O6 C14 1.258 . S
C7 N8 1.326 . S
C7 C11 1.460 . S
C7 H13 0.929 . S
N8 Mn1 2.257 . S
N8 C7 1.326 . S
N8 C12 1.362 . S
C9 C10 1.258 . S
C9 C12 1.431 . S
C9 C29 1.449 . S
C10 C9 1.258 . S
C10 C11 1.477 . S
C10 H30 0.931 . S
C11 C7 1.460 . S
C11 C10 1.477 . S
C11 H31 0.930 . S
C12 N8 1.362 . S
C12 C9 1.431 . S
C12 C22 1.476 . S
H13 C7 0.929 . S
C14 O5 1.250 . S
C14 O6 1.258 . S
O15 Mn0 2.162 . S
O15 C3 1.281 . S
O16 Mn0 2.297 . S
O16 C3 1.236 . S
N17 Mn1 2.282 . S
N17 C18 1.328 . S
N17 C22 1.318 . S
C18 N17 1.328 . S
C18 C19 1.457 . S
C18 H23 0.929 . S
C19 C18 1.457 . S
C19 C20 1.291 . S
C19 H32 0.931 . S
C20 C19 1.291 . S
C20 C21 1.373 . S
C20 H33 0.929 . S
C21 C20 1.373 . S
C21 C22 1.396 . S
C21 C28 1.403 . S
C22 C12 1.476 . S
C22 N17 1.318 . S
C22 C21 1.396 . S
H23 C18 0.929 . S
O24 Mn0 2.385 . S
O24 C2 1.234 . S
O25 Mn0 2.209 . S
O25 Mn1 2.215 . S
O25 C2 1.283 . S
O26 Mn0 2.094 . S
O26 C4 1.240 . S
O27 Mn1 2.117 . S
O27 C4 1.264 . S
C28 C21 1.403 . S
C28 C29 1.399 . S
C28 H34 0.929 . S
C29 C9 1.449 . S
C29 C28 1.399 . S
C29 H35 0.930 . S
H30 C10 0.931 . S
H31 C11 0.930 . S
H32 C19 0.931 . S
H33 C20 0.929 . S
H34 C28 0.929 . S
H35 C29 0.930 . S
Mn36 O41 2.083 1_455 S
Mn36 O51 2.162 1_455 S
Mn36 O52 2.299 1_455 S
Mn36 O60 2.398 . S
Mn36 O61 2.214 . S
Mn36 O62 2.093 . S
Mn37 O42 2.121 1_455 S
Mn37 N44 2.257 . S
Mn37 N53 2.282 . S
Mn37 O61 2.215 . S
Mn37 O63 2.117 . S
C38 O60 1.234 . S
C38 O61 1.283 . S
C39 O51 1.281 . S
C39 O52 1.236 . S
C40 O62 1.240 . S
C40 O63 1.264 . S
O41 Mn36 2.083 1_655 S
O41 C50 1.250 . S
O42 Mn37 2.121 1_655 S
O42 C50 1.258 . S
C43 N44 1.326 . S
C43 C47 1.460 . S
C43 H49 0.929 1_455 S
N44 Mn37 2.257 . S
N44 C43 1.326 . S
N44 C48 1.362 . S
C45 C46 1.258 . S
C45 C48 1.431 . S
C45 C65 1.449 . S
C46 C45 1.258 . S
C46 C47 1.477 . S
C46 H66 0.931 . S
C47 C43 1.460 . S
C47 C46 1.477 . S
C47 H67 0.930 . S
C48 N44 1.362 . S
C48 C45 1.431 . S
C48 C58 1.476 . S
H49 C43 0.929 1_655 S
C50 O41 1.250 . S
C50 O42 1.258 . S
O51 Mn36 2.162 1_655 S
O51 C39 1.281 . S
O52 Mn36 2.299 1_655 S
O52 C39 1.236 . S
N53 Mn37 2.282 . S
N53 C54 1.328 . S
N53 C58 1.318 . S
C54 N53 1.328 . S
C54 C55 1.457 . S
C54 H59 0.929 . S
C55 C54 1.457 . S
C55 C56 1.291 . S
C55 H68 0.931 . S
C56 C55 1.291 . S
C56 C57 1.373 . S
C56 H69 0.929 . S
C57 C56 1.373 . S
C57 C58 1.396 . S
C57 C64 1.403 . S
C58 C48 1.476 . S
C58 N53 1.318 . S
C58 C57 1.396 . S
H59 C54 0.929 . S
O60 Mn36 2.398 . S
O60 C38 1.234 . S
O61 Mn36 2.214 . S
O61 Mn37 2.215 . S
O61 C38 1.283 . S
O62 Mn36 2.093 . S
O62 C40 1.240 . S
O63 Mn37 2.117 . S
O63 C40 1.264 . S
C64 C57 1.403 . S
C64 C65 1.399 . S
C64 H70 0.929 . S
C65 C45 1.449 . S
C65 C64 1.399 . S
C65 H71 0.930 . S
H66 C46 0.931 . S
H67 C47 0.930 . S
H68 C55 0.931 . S
H69 C56 0.929 . S
H70 C64 0.929 . S
H71 C65 0.930 . S
Mn72 O77 2.095 . S
Mn72 O87 2.162 . S
Mn72 O88 2.297 . S
Mn72 O96 2.385 . S
Mn72 O97 2.209 . S
Mn72 O98 2.094 . S
Mn73 O78 2.121 . S
Mn73 N80 2.257 . S
Mn73 N89 2.282 . S
Mn73 O97 2.215 . S
Mn73 O99 2.117 . S
C74 O96 1.234 . S
C74 O97 1.283 . S
C75 O87 1.281 . S
C75 O88 1.236 . S
C76 O98 1.240 . S
C76 O99 1.264 . S
O77 Mn72 2.095 . S
O77 C86 1.250 . S
O78 Mn73 2.121 . S
O78 C86 1.258 . S
C79 N80 1.326 . S
C79 C83 1.460 . S
C79 H85 0.929 . S
N80 Mn73 2.257 . S
N80 C79 1.326 . S
N80 C84 1.362 . S
C81 C82 1.258 . S
C81 C84 1.431 . S
C81 C101 1.449 . S
C82 C81 1.258 . S
C82 C83 1.477 . S
C82 H102 0.931 . S
C83 C79 1.460 . S
C83 C82 1.477 . S
C83 H103 0.930 . S
C84 N80 1.362 . S
C84 C81 1.431 . S
C84 C94 1.476 . S
H85 C79 0.929 . S
C86 O77 1.250 . S
C86 O78 1.258 . S
O87 Mn72 2.162 . S
O87 C75 1.281 . S
O88 Mn72 2.297 . S
O88 C75 1.236 . S
N89 Mn73 2.282 . S
N89 C90 1.328 . S
N89 C94 1.318 . S
C90 N89 1.328 . S
C90 C91 1.457 . S
C90 H95 0.929 . S
C91 C90 1.457 . S
C91 C92 1.291 . S
C91 H104 0.931 . S
C92 C91 1.291 . S
C92 C93 1.373 . S
C92 H105 0.929 . S
C93 C92 1.373 . S
C93 C94 1.396 . S
C93 C100 1.403 . S
C94 C84 1.476 . S
C94 N89 1.318 . S
C94 C93 1.396 . S
H95 C90 0.929 . S
O96 Mn72 2.385 . S
O96 C74 1.234 . S
O97 Mn72 2.209 . S
O97 Mn73 2.215 . S
O97 C74 1.283 . S
O98 Mn72 2.094 . S
O98 C76 1.240 . S
O99 Mn73 2.117 . S
O99 C76 1.264 . S
C100 C93 1.403 . S
C100 C101 1.399 . S
C100 H106 0.929 . S
C101 C81 1.449 . S
C101 C100 1.399 . S
C101 H107 0.930 . S
H102 C82 0.931 . S
H103 C83 0.930 . S
H104 C91 0.931 . S
H105 C92 0.929 . S
H106 C100 0.929 . S
H107 C101 0.930 . S
Mn108 O113 2.095 . S
Mn108 O123 2.162 . S
Mn108 O124 2.297 . S
Mn108 O132 2.385 . S
Mn108 O133 2.209 . S
Mn108 O134 2.094 . S
Mn109 O114 2.121 . S
Mn109 N116 2.257 . S
Mn109 N125 2.282 . S
Mn109 O133 2.215 . S
Mn109 O135 2.117 . S
C110 O132 1.234 . S
C110 O133 1.283 . S
C111 O123 1.281 . S
C111 O124 1.236 . S
C112 O134 1.240 . S
C112 O135 1.264 . S
O113 Mn108 2.095 . S
O113 C122 1.250 . S
O114 Mn109 2.121 . S
O114 C122 1.258 . S
C115 N116 1.326 . S
C115 C119 1.460 1_554 S
C115 H121 0.929 . S
N116 Mn109 2.257 . S
N116 C115 1.326 . S
N116 C120 1.362 . S
C117 C118 1.258 1_554 S
C117 C120 1.431 . S
C117 C137 1.449 1_554 S
C118 C117 1.258 1_556 S
C118 C119 1.477 . S
C118 H138 0.931 . S
C119 C115 1.460 1_556 S
C119 C118 1.477 . S
C119 H139 0.930 . S
C120 N116 1.362 . S
C120 C117 1.431 . S
C120 C130 1.476 . S
H121 C115 0.929 . S
C122 O113 1.250 . S
C122 O114 1.258 . S
O123 Mn108 2.162 . S
O123 C111 1.281 . S
O124 Mn108 2.297 . S
O124 C111 1.236 . S
N125 Mn109 2.282 . S
N125 C126 1.328 . S
N125 C130 1.318 . S
C126 N125 1.328 . S
C126 C127 1.457 . S
C126 H131 0.929 . S
C127 C126 1.457 . S
C127 C128 1.291 . S
C127 H140 0.931 . S
C128 C127 1.291 . S
C128 C129 1.373 . S
C128 H141 0.929 . S
C129 C128 1.373 . S
C129 C130 1.396 . S
C129 C136 1.403 . S
C130 C120 1.476 . S
C130 N125 1.318 . S
C130 C129 1.396 . S
H131 C126 0.929 . S
O132 Mn108 2.385 . S
O132 C110 1.234 . S
O133 Mn108 2.209 . S
O133 Mn109 2.215 . S
O133 C110 1.283 . S
O134 Mn108 2.094 . S
O134 C112 1.240 . S
O135 Mn109 2.117 . S
O135 C112 1.264 . S
C136 C129 1.403 . S
C136 C137 1.399 1_554 S
C136 H142 0.929 . S
C137 C117 1.449 1_556 S
C137 C136 1.399 1_556 S
C137 H143 0.930 . S
H138 C118 0.931 . S
H139 C119 0.930 . S
H140 C127 0.931 . S
H141 C128 0.929 . S
H142 C136 0.929 . S
H143 C137 0.930 . S
Mn144 O149 2.095 . S
Mn144 O159 2.162 . S
Mn144 O160 2.297 . S
Mn144 O168 2.385 . S
Mn144 O169 2.209 . S
Mn144 O170 2.094 . S
Mn145 O150 2.121 . S
Mn145 N152 2.257 1_554 S
Mn145 N161 2.282 . S
Mn145 O169 2.215 . S
Mn145 O171 2.117 . S
C146 O168 1.234 . S
C146 O169 1.283 . S
C147 O159 1.281 . S
C147 O160 1.236 . S
C148 O170 1.240 . S
C148 O171 1.264 . S
O149 Mn144 2.095 . S
O149 C158 1.250 . S
O150 Mn145 2.121 . S
O150 C158 1.258 . S
C151 N152 1.326 . S
C151 C155 1.460 . S
C151 H157 0.929 . S
N152 Mn145 2.257 1_556 S
N152 C151 1.326 . S
N152 C156 1.362 . S
C153 C154 1.258 . S
C153 C156 1.431 . S
C153 C173 1.449 . S
C154 C153 1.258 . S
C154 C155 1.477 . S
C154 H174 0.931 . S
C155 C151 1.460 . S
C155 C154 1.477 . S
C155 H175 0.930 . S
C156 N152 1.362 . S
C156 C153 1.431 . S
C156 C166 1.476 1_556 S
H157 C151 0.929 . S
C158 O149 1.250 . S
C158 O150 1.258 . S
O159 Mn144 2.162 . S
O159 C147 1.281 . S
O160 Mn144 2.297 . S
O160 C147 1.236 . S
N161 Mn145 2.282 . S
N161 C162 1.328 . S
N161 C166 1.318 . S
C162 N161 1.328 . S
C162 C163 1.457 . S
C162 H167 0.929 . S
C163 C162 1.457 . S
C163 C164 1.291 . S
C163 H176 0.931 . S
C164 C163 1.291 . S
C164 C165 1.373 1_554 S
C164 H177 0.928 1_455 S
C165 C164 1.373 1_556 S
C165 C166 1.396 1_556 S
C165 C172 1.403 . S
C166 C156 1.476 1_554 S
C166 N161 1.318 . S
C166 C165 1.396 1_554 S
H167 C162 0.929 . S
O168 Mn144 2.385 . S
O168 C146 1.234 . S
O169 Mn144 2.209 . S
O169 Mn145 2.215 . S
O169 C146 1.283 . S
O170 Mn144 2.094 . S
O170 C148 1.240 . S
O171 Mn145 2.117 . S
O171 C148 1.264 . S
C172 C165 1.403 . S
C172 C173 1.399 . S
C172 H178 0.929 . S
C173 C153 1.449 . S
C173 C172 1.399 . S
C173 H179 0.930 . S
H174 C154 0.931 . S
H175 C155 0.930 . S
H176 C163 0.931 . S
H177 C164 0.928 1_655 S
H178 C172 0.929 . S
H179 C173 0.930 . S
Mn180 O185 2.095 . S
Mn180 O195 2.162 . S
Mn180 O196 2.297 . S
Mn180 O204 2.385 . S
Mn180 O205 2.209 . S
Mn180 O206 2.094 . S
Mn181 O186 2.121 . S
Mn181 N188 2.257 . S
Mn181 N197 2.282 . S
Mn181 O205 2.215 . S
Mn181 O207 2.117 . S
C182 O204 1.234 . S
C182 O205 1.283 . S
C183 O195 1.281 . S
C183 O196 1.236 . S
C184 O206 1.240 . S
C184 O207 1.264 . S
O185 Mn180 2.095 . S
O185 C194 1.250 . S
O186 Mn181 2.121 . S
O186 C194 1.258 . S
C187 N188 1.326 . S
C187 C191 1.460 . S
C187 H193 0.929 . S
N188 Mn181 2.257 . S
N188 C187 1.326 . S
N188 C192 1.362 . S
C189 C190 1.258 . S
C189 C192 1.431 . S
C189 C209 1.449 . S
C190 C189 1.258 . S
C190 C191 1.477 . S
C190 H210 0.931 . S
C191 C187 1.460 . S
C191 C190 1.477 . S
C191 H211 0.930 . S
C192 N188 1.362 . S
C192 C189 1.431 . S
C192 C202 1.476 . S
H193 C187 0.929 . S
C194 O185 1.250 . S
C194 O186 1.258 . S
O195 Mn180 2.162 . S
O195 C183 1.281 . S
O196 Mn180 2.297 . S
O196 C183 1.236 . S
N197 Mn181 2.282 . S
N197 C198 1.328 . S
N197 C202 1.318 . S
C198 N197 1.328 . S
C198 C199 1.457 . S
C198 H203 0.929 . S
C199 C198 1.457 . S
C199 C200 1.291 . S
C199 H212 0.931 . S
C200 C199 1.291 . S
C200 C201 1.373 . S
C200 H213 0.929 . S
C201 C200 1.373 . S
C201 C202 1.396 . S
C201 C208 1.403 . S
C202 C192 1.476 . S
C202 N197 1.318 . S
C202 C201 1.396 . S
H203 C198 0.929 . S
O204 Mn180 2.385 . S
O204 C182 1.234 . S
O205 Mn180 2.209 . S
O205 Mn181 2.215 . S
O205 C182 1.283 . S
O206 Mn180 2.094 . S
O206 C184 1.240 . S
O207 Mn181 2.117 . S
O207 C184 1.264 . S
C208 C201 1.403 . S
C208 C209 1.399 . S
C208 H214 0.929 . S
C209 C189 1.449 . S
C209 C208 1.399 . S
C209 H215 0.930 . S
H210 C190 0.931 . S
H211 C191 0.930 . S
H212 C199 0.931 . S
H213 C200 0.929 . S
H214 C208 0.929 . S
H215 C209 0.930 . S
Mn216 O221 2.095 . S
Mn216 O231 2.162 . S
Mn216 O232 2.297 . S
Mn216 O240 2.385 . S
Mn216 O241 2.209 . S
Mn216 O242 2.094 . S
Mn217 O222 2.121 . S
Mn217 N224 2.257 . S
Mn217 N233 2.282 . S
Mn217 O241 2.215 . S
Mn217 O243 2.117 . S
C218 O240 1.234 . S
C218 O241 1.283 . S
C219 O231 1.281 . S
C219 O232 1.236 . S
C220 O242 1.240 . S
C220 O243 1.264 . S
O221 Mn216 2.095 . S
O221 C230 1.250 . S
O222 Mn217 2.121 . S
O222 C230 1.258 . S
C223 N224 1.326 . S
C223 C227 1.460 . S
C223 H229 0.929 . S
N224 Mn217 2.257 . S
N224 C223 1.326 . S
N224 C228 1.362 . S
C225 C226 1.258 . S
C225 C228 1.431 . S
C225 C245 1.449 . S
C226 C225 1.258 . S
C226 C227 1.477 . S
C226 H246 0.931 . S
C227 C223 1.460 . S
C227 C226 1.477 . S
C227 H247 0.930 . S
C228 N224 1.362 . S
C228 C225 1.431 . S
C228 C238 1.476 . S
H229 C223 0.929 . S
C230 O221 1.250 . S
C230 O222 1.258 . S
O231 Mn216 2.162 . S
O231 C219 1.281 . S
O232 Mn216 2.297 . S
O232 C219 1.236 . S
N233 Mn217 2.282 . S
N233 C234 1.328 . S
N233 C238 1.318 . S
C234 N233 1.328 . S
C234 C235 1.457 . S
C234 H239 0.929 . S
C235 C234 1.457 . S
C235 C236 1.291 . S
C235 H248 0.931 . S
C236 C235 1.291 . S
C236 C237 1.373 . S
C236 H249 0.929 . S
C237 C236 1.373 . S
C237 C238 1.396 . S
C237 C244 1.403 . S
C238 C228 1.476 . S
C238 N233 1.318 . S
C238 C237 1.396 . S
H239 C234 0.929 . S
O240 Mn216 2.385 . S
O240 C218 1.234 . S
O241 Mn216 2.209 . S
O241 Mn217 2.215 . S
O241 C218 1.283 . S
O242 Mn216 2.094 . S
O242 C220 1.240 . S
O243 Mn217 2.117 . S
O243 C220 1.264 . S
C244 C237 1.403 . S
C244 C245 1.399 . S
C244 H250 0.929 . S
C245 C225 1.449 . S
C245 C244 1.399 . S
C245 H251 0.930 . S
H246 C226 0.931 . S
H247 C227 0.930 . S
H248 C235 0.931 . S
H249 C236 0.929 . S
H250 C244 0.929 . S
H251 C245 0.930 . S
Mn252 O257 2.095 . S
Mn252 O267 2.162 . S
Mn252 O268 2.297 . S
Mn252 O276 2.385 1_455 S
Mn252 O277 2.209 . S
Mn252 O278 2.094 . S
Mn253 O258 2.121 . S
Mn253 N260 2.257 . S
Mn253 N269 2.282 1_455 S
Mn253 O277 2.215 . S
Mn253 O279 2.117 . S
C254 O276 1.234 . S
C254 O277 1.283 1_655 S
C255 O267 1.281 . S
C255 O268 1.236 . S
C256 O278 1.240 . S
C256 O279 1.264 . S
O257 Mn252 2.095 . S
O257 C266 1.250 . S
O258 Mn253 2.121 . S
O258 C266 1.258 . S
C259 N260 1.326 . S
C259 C263 1.460 . S
C259 H265 0.929 . S
N260 Mn253 2.257 . S
N260 C259 1.326 . S
N260 C264 1.362 1_455 S
C261 C262 1.258 . S
C261 C264 1.431 . S
C261 C281 1.449 . S
C262 C261 1.258 . S
C262 C263 1.477 1_655 S
C262 H282 0.931 . S
C263 C259 1.460 . S
C263 C262 1.477 1_455 S
C263 H283 0.930 . S
C264 N260 1.362 1_655 S
C264 C261 1.431 . S
C264 C274 1.476 . S
H265 C259 0.929 . S
C266 O257 1.250 . S
C266 O258 1.258 . S
O267 Mn252 2.162 . S
O267 C255 1.281 . S
O268 Mn252 2.297 . S
O268 C255 1.236 . S
N269 Mn253 2.282 1_655 S
N269 C270 1.328 . S
N269 C274 1.318 . S
C270 N269 1.328 . S
C270 C271 1.457 . S
C270 H275 0.929 . S
C271 C270 1.457 . S
C271 C272 1.291 . S
C271 H284 0.931 . S
C272 C271 1.291 . S
C272 C273 1.373 . S
C272 H285 0.929 . S
C273 C272 1.373 . S
C273 C274 1.396 . S
C273 C280 1.403 . S
C274 C264 1.476 . S
C274 N269 1.318 . S
C274 C273 1.396 . S
H275 C270 0.929 . S
O276 Mn252 2.385 1_655 S
O276 C254 1.234 . S
O277 Mn252 2.209 . S
O277 Mn253 2.215 . S
O277 C254 1.283 1_455 S
O278 Mn252 2.094 . S
O278 C256 1.240 . S
O279 Mn253 2.117 . S
O279 C256 1.264 . S
C280 C273 1.403 . S
C280 C281 1.399 . S
C280 H286 0.929 . S
C281 C261 1.449 . S
C281 C280 1.399 . S
C281 H287 0.930 . S
H282 C262 0.931 . S
H283 C263 0.930 . S
H284 C271 0.931 . S
H285 C272 0.929 . S
H286 C280 0.929 . S
H287 C281 0.930 . S
Mn288 O293 2.095 . S
Mn288 O303 2.162 . S
Mn288 O304 2.297 1_545 S
Mn288 O312 2.385 1_545 S
Mn288 O313 2.209 1_545 S
Mn288 O314 2.094 . S
Mn289 O294 2.121 1_565 S
Mn289 N296 2.257 . S
Mn289 N305 2.282 . S
Mn289 O313 2.215 . S
Mn289 O315 2.117 1_565 S
C290 O312 1.234 . S
C290 O313 1.283 . S
C291 O303 1.281 . S
C291 O304 1.236 1_545 S
C292 O314 1.240 . S
C292 O315 1.264 . S
O293 Mn288 2.095 . S
O293 C302 1.250 . S
O294 Mn289 2.121 1_545 S
O294 C302 1.258 . S
C295 N296 1.326 . S
C295 C299 1.460 . S
C295 H301 0.929 1_565 S
N296 Mn289 2.257 . S
N296 C295 1.326 . S
N296 C300 1.362 . S
C297 C298 1.258 . S
C297 C300 1.431 . S
C297 C317 1.449 . S
C298 C297 1.258 . S
C298 C299 1.477 . S
C298 H318 0.931 . S
C299 C295 1.460 . S
C299 C298 1.477 . S
C299 H319 0.930 . S
C300 N296 1.362 . S
C300 C297 1.431 . S
C300 C310 1.476 . S
H301 C295 0.929 1_545 S
C302 O293 1.250 . S
C302 O294 1.258 . S
O303 Mn288 2.162 . S
O303 C291 1.281 . S
O304 Mn288 2.297 1_565 S
O304 C291 1.236 1_565 S
N305 Mn289 2.282 . S
N305 C306 1.328 . S
N305 C310 1.318 . S
C306 N305 1.328 . S
C306 C307 1.457 . S
C306 H311 0.929 . S
C307 C306 1.457 . S
C307 C308 1.291 . S
C307 H320 0.931 . S
C308 C307 1.291 . S
C308 C309 1.373 . S
C308 H321 0.929 . S
C309 C308 1.373 . S
C309 C310 1.396 . S
C309 C316 1.403 . S
C310 C300 1.476 . S
C310 N305 1.318 . S
C310 C309 1.396 . S
H311 C306 0.929 . S
O312 Mn288 2.385 1_565 S
O312 C290 1.234 . S
O313 Mn288 2.209 1_565 S
O313 Mn289 2.215 . S
O313 C290 1.283 . S
O314 Mn288 2.094 . S
O314 C292 1.240 . S
O315 Mn289 2.117 1_545 S
O315 C292 1.264 . S
C316 C309 1.403 . S
C316 C317 1.399 . S
C316 H322 0.929 . S
C317 C297 1.449 . S
C317 C316 1.399 . S
C317 H323 0.930 . S
H318 C298 0.931 . S
H319 C299 0.930 . S
H320 C307 0.931 . S
H321 C308 0.929 . S
H322 C316 0.929 . S
H323 C317 0.930 . S
Mn324 O329 2.095 . S
Mn324 O339 2.162 . S
Mn324 O340 2.297 . S
Mn324 O348 2.385 . S
Mn324 O349 2.209 . S
Mn324 O350 2.094 . S
Mn325 O330 2.121 . S
Mn325 N332 2.257 . S
Mn325 N341 2.282 . S
Mn325 O349 2.215 . S
Mn325 O351 2.117 . S
C326 O348 1.234 . S
C326 O349 1.283 . S
C327 O339 1.281 . S
C327 O340 1.236 . S
C328 O350 1.240 . S
C328 O351 1.264 . S
O329 Mn324 2.095 . S
O329 C338 1.250 . S
O330 Mn325 2.121 . S
O330 C338 1.258 . S
C331 N332 1.326 . S
C331 C335 1.460 . S
C331 H337 0.929 . S
N332 Mn325 2.257 . S
N332 C331 1.326 . S
N332 C336 1.362 . S
C333 C334 1.258 . S
C333 C336 1.431 . S
C333 C353 1.449 . S
C334 C333 1.258 . S
C334 C335 1.477 . S
C334 H354 0.931 1_545 S
C335 C331 1.460 . S
C335 C334 1.477 . S
C335 H355 0.930 . S
C336 N332 1.362 . S
C336 C333 1.431 . S
C336 C346 1.476 . S
H337 C331 0.929 . S
C338 O329 1.250 . S
C338 O330 1.258 . S
O339 Mn324 2.162 . S
O339 C327 1.281 . S
O340 Mn324 2.297 . S
O340 C327 1.236 . S
N341 Mn325 2.282 . S
N341 C342 1.328 . S
N341 C346 1.318 . S
C342 N341 1.328 . S
C342 C343 1.457 . S
C342 H347 0.929 . S
C343 C342 1.457 . S
C343 C344 1.291 . S
C343 H356 0.931 . S
C344 C343 1.291 . S
C344 C345 1.373 . S
C344 H357 0.929 . S
C345 C344 1.373 . S
C345 C346 1.396 . S
C345 C352 1.403 . S
C346 C336 1.476 . S
C346 N341 1.318 . S
C346 C345 1.396 . S
H347 C342 0.929 . S
O348 Mn324 2.385 . S
O348 C326 1.234 . S
O349 Mn324 2.209 . S
O349 Mn325 2.215 . S
O349 C326 1.283 . S
O350 Mn324 2.094 . S
O350 C328 1.240 . S
O351 Mn325 2.117 . S
O351 C328 1.264 . S
C352 C345 1.403 . S
C352 C353 1.399 . S
C352 H358 0.929 . S
C353 C333 1.449 . S
C353 C352 1.399 . S
C353 H359 0.930 . S
H354 C334 0.931 1_565 S
H355 C335 0.930 . S
H356 C343 0.931 . S
H357 C344 0.929 . S
H358 C352 0.929 . S
H359 C353 0.930 . S
Mn360 O365 2.124 . S
Mn360 O375 2.159 . S
Mn360 O376 2.294 . S
Mn360 O384 2.356 1_565 S
Mn360 O385 2.198 1_565 S
Mn360 O386 2.094 . S
Mn361 O366 2.121 1_545 S
Mn361 N368 2.257 . S
Mn361 N377 2.282 . S
Mn361 O385 2.215 . S
Mn361 O387 2.117 . S
C362 O384 1.234 . S
C362 O385 1.283 . S
C363 O375 1.281 . S
C363 O376 1.236 . S
C364 O386 1.246 1_545 S
C364 O387 1.264 . S
O365 Mn360 2.124 . S
O365 C374 1.250 . S
O366 Mn361 2.121 1_565 S
O366 C374 1.258 . S
C367 N368 1.326 . S
C367 C371 1.460 . S
C367 H373 0.929 . S
N368 Mn361 2.257 . S
N368 C367 1.326 . S
N368 C372 1.362 . S
C369 C370 1.258 . S
C369 C372 1.431 . S
C369 C389 1.449 . S
C370 C369 1.258 . S
C370 C371 1.477 . S
C370 H390 0.931 . S
C371 C367 1.460 . S
C371 C370 1.477 . S
C371 H391 0.930 . S
C372 N368 1.362 . S
C372 C369 1.431 . S
C372 C382 1.476 . S
H373 C367 0.929 . S
C374 O365 1.250 . S
C374 O366 1.258 . S
O375 Mn360 2.159 . S
O375 C363 1.281 . S
O376 Mn360 2.294 . S
O376 C363 1.236 . S
N377 Mn361 2.282 . S
N377 C378 1.328 . S
N377 C382 1.318 . S
C378 N377 1.328 . S
C378 C379 1.457 . S
C378 H383 0.929 . S
C379 C378 1.457 . S
C379 C380 1.291 . S
C379 H392 0.931 . S
C380 C379 1.291 . S
C380 C381 1.373 . S
C380 H393 0.929 . S
C381 C380 1.373 . S
C381 C382 1.396 . S
C381 C388 1.403 . S
C382 C372 1.476 . S
C382 N377 1.318 . S
C382 C381 1.396 . S
H383 C378 0.929 . S
O384 Mn360 2.356 1_545 S
O384 C362 1.234 . S
O385 Mn360 2.198 1_545 S
O385 Mn361 2.215 . S
O385 C362 1.283 . S
O386 Mn360 2.094 . S
O386 C364 1.246 1_565 S
O387 Mn361 2.117 . S
O387 C364 1.264 . S
C388 C381 1.403 . S
C388 C389 1.399 . S
C388 H394 0.929 . S
C389 C369 1.449 . S
C389 C388 1.399 . S
C389 H395 0.930 . S
H390 C370 0.931 . S
H391 C371 0.930 . S
H392 C379 0.931 . S
H393 C380 0.929 . S
H394 C388 0.929 . S
H395 C389 0.930 . S
Mn396 O401 2.095 1_554 S
Mn396 O411 2.162 . S
Mn396 O412 2.297 . S
Mn396 O420 2.385 . S
Mn396 O421 2.209 . S
Mn396 O422 2.094 1_554 S
Mn397 O402 2.121 . S
Mn397 N404 2.257 1_565 S
Mn397 N413 2.283 . S
Mn397 O421 2.215 1_556 S
Mn397 O423 2.117 . S
C398 O420 1.234 . S
C398 O421 1.283 . S
C399 O411 1.281 . S
C399 O412 1.236 . S
C400 O422 1.240 . S
C400 O423 1.264 . S
O401 Mn396 2.095 1_556 S
O401 C410 1.250 . S
O402 Mn397 2.121 . S
O402 C410 1.258 . S
C403 N404 1.326 . S
C403 C407 1.460 1_556 S
C403 H409 0.922 1_556 S
N404 Mn397 2.257 1_545 S
N404 C403 1.326 . S
N404 C408 1.362 . S
C405 C406 1.258 . S
C405 C408 1.431 . S
C405 C425 1.449 . S
C406 C405 1.258 . S
C406 C407 1.476 1_556 S
C406 H426 0.931 . S
C407 C403 1.460 1_554 S
C407 C406 1.476 1_554 S
C407 H427 0.931 . S
C408 N404 1.362 . S
C408 C405 1.431 . S
C408 C418 1.476 . S
H409 C403 0.922 1_554 S
C410 O401 1.250 . S
C410 O402 1.258 . S
O411 Mn396 2.162 . S
O411 C399 1.281 . S
O412 Mn396 2.297 . S
O412 C399 1.236 . S
N413 Mn397 2.283 . S
N413 C414 1.343 . S
N413 C418 1.301 1_565 S
C414 N413 1.343 . S
C414 C415 1.457 . S
C414 H419 0.929 . S
C415 C414 1.457 . S
C415 C416 1.291 1_565 S
C415 H428 0.931 . S
C416 C415 1.291 1_545 S
C416 C417 1.373 . S
C416 H429 0.929 . S
C417 C416 1.373 . S
C417 C418 1.396 . S
C417 C424 1.403 . S
C418 C408 1.476 . S
C418 N413 1.301 1_545 S
C418 C417 1.396 . S
H419 C414 0.929 . S
O420 Mn396 2.385 . S
O420 C398 1.234 . S
O421 Mn396 2.209 . S
O421 Mn397 2.215 1_554 S
O421 C398 1.283 . S
O422 Mn396 2.094 1_556 S
O422 C400 1.240 . S
O423 Mn397 2.117 . S
O423 C400 1.264 . S
C424 C417 1.403 . S
C424 C425 1.399 . S
C424 H430 0.929 . S
C425 C405 1.449 . S
C425 C424 1.399 . S
C425 H431 0.930 . S
H426 C406 0.931 . S
H427 C407 0.931 . S
H428 C415 0.931 . S
H429 C416 0.929 . S
H430 C424 0.929 . S
H431 C425 0.930 . S
Mn432 O437 2.095 . S
Mn432 O447 2.162 . S
Mn432 O448 2.297 . S
Mn432 O456 2.385 . S
Mn432 O457 2.209 . S
Mn432 O458 2.094 1_554 S
Mn433 O438 2.121 1_556 S
Mn433 N440 2.257 1_556 S
Mn433 N449 2.282 . S
Mn433 O457 2.215 1_556 S
Mn433 O459 2.117 . S
C434 O456 1.234 . S
C434 O457 1.283 . S
C435 O447 1.281 . S
C435 O448 1.236 . S
C436 O458 1.240 . S
C436 O459 1.264 . S
O437 Mn432 2.095 . S
O437 C446 1.250 . S
O438 Mn433 2.121 1_554 S
O438 C446 1.258 . S
C439 N440 1.326 . S
C439 C443 1.460 . S
C439 H445 0.929 . S
N440 Mn433 2.257 1_554 S
N440 C439 1.326 . S
N440 C444 1.362 . S
C441 C442 1.258 . S
C441 C444 1.431 . S
C441 C461 1.458 . S
C442 C441 1.258 . S
C442 C443 1.477 . S
C442 H462 0.931 . S
C443 C439 1.460 . S
C443 C442 1.477 . S
C443 H463 0.930 . S
C444 N440 1.362 . S
C444 C441 1.431 . S
C444 C454 1.476 1_554 S
H445 C439 0.929 . S
C446 O437 1.250 . S
C446 O438 1.258 . S
O447 Mn432 2.162 . S
O447 C435 1.281 . S
O448 Mn432 2.297 . S
O448 C435 1.236 . S
N449 Mn433 2.282 . S
N449 C450 1.328 . S
N449 C454 1.318 . S
C450 N449 1.328 . S
C450 C451 1.457 . S
C450 H455 0.929 . S
C451 C450 1.457 . S
C451 C452 1.291 . S
C451 H464 0.931 . S
C452 C451 1.291 . S
C452 C453 1.373 . S
C452 H465 0.929 . S
C453 C452 1.373 . S
C453 C454 1.396 . S
C453 C460 1.403 . S
C454 C444 1.476 1_556 S
C454 N449 1.318 . S
C454 C453 1.396 . S
H455 C450 0.929 . S
O456 Mn432 2.385 . S
O456 C434 1.234 . S
O457 Mn432 2.209 . S
O457 Mn433 2.215 1_554 S
O457 C434 1.283 . S
O458 Mn432 2.094 1_556 S
O458 C436 1.240 . S
O459 Mn433 2.117 . S
O459 C436 1.264 . S
C460 C453 1.403 . S
C460 C461 1.392 1_556 S
C460 H466 0.929 . S
C461 C441 1.458 . S
C461 C460 1.392 1_554 S
C461 H467 0.928 . S
H462 C442 0.931 . S
H463 C443 0.930 . S
H464 C451 0.931 . S
H465 C452 0.929 . S
H466 C460 0.929 . S
H467 C461 0.928 . S
Mn468 O473 2.095 . S
Mn468 O483 2.162 . S
Mn468 O484 2.297 . S
Mn468 O492 2.385 . S
Mn468 O493 2.209 . S
Mn468 O494 2.094 . S
Mn469 O474 2.121 1_556 S
Mn469 N476 2.257 . S
Mn469 N485 2.282 . S
Mn469 O493 2.215 1_556 S
Mn469 O495 2.117 . S
C470 O492 1.234 . S
C470 O493 1.283 . S
C471 O483 1.281 . S
C471 O484 1.236 . S
C472 O494 1.240 1_556 S
C472 O495 1.264 . S
O473 Mn468 2.095 . S
O473 C482 1.250 . S
O474 Mn469 2.121 1_554 S
O474 C482 1.258 . S
C475 N476 1.326 1_565 S
C475 C479 1.460 . S
C475 H481 0.929 1_566 S
N476 Mn469 2.257 . S
N476 C475 1.326 1_545 S
N476 C480 1.362 . S
C477 C478 1.258 . S
C477 C480 1.431 1_565 S
C477 C497 1.449 . S
C478 C477 1.258 . S
C478 C479 1.477 . S
C478 H498 0.931 . S
C479 C475 1.460 . S
C479 C478 1.477 . S
C479 H499 0.930 . S
C480 N476 1.362 . S
C480 C477 1.431 1_545 S
C480 C490 1.476 . S
H481 C475 0.929 1_544 S
C482 O473 1.250 . S
C482 O474 1.258 . S
O483 Mn468 2.162 . S
O483 C471 1.281 . S
O484 Mn468 2.297 . S
O484 C471 1.236 . S
N485 Mn469 2.282 . S
N485 C486 1.328 . S
N485 C490 1.318 . S
C486 N485 1.328 . S
C486 C487 1.457 . S
C486 H491 0.929 . S
C487 C486 1.457 . S
C487 C488 1.291 . S
C487 H500 0.931 . S
C488 C487 1.291 . S
C488 C489 1.373 . S
C488 H501 0.929 . S
C489 C488 1.373 . S
C489 C490 1.396 . S
C489 C496 1.403 1_545 S
C490 C480 1.476 . S
C490 N485 1.318 . S
C490 C489 1.396 . S
H491 C486 0.929 . S
O492 Mn468 2.385 . S
O492 C470 1.234 . S
O493 Mn468 2.209 . S
O493 Mn469 2.215 1_554 S
O493 C470 1.283 . S
O494 Mn468 2.094 . S
O494 C472 1.240 1_554 S
O495 Mn469 2.117 . S
O495 C472 1.264 . S
C496 C489 1.403 1_565 S
C496 C497 1.399 . S
C496 H502 0.929 . S
C497 C477 1.449 . S
C497 C496 1.399 . S
C497 H503 0.930 . S
H498 C478 0.931 . S
H499 C479 0.930 . S
H500 C487 0.931 . S
H501 C488 0.929 . S
H502 C496 0.929 . S
H503 C497 0.930 . S
Mn504 O509 2.095 . S
Mn504 O519 2.162 . S
Mn504 O520 2.297 . S
Mn504 O528 2.385 . S
Mn504 O529 2.209 . S
Mn504 O530 2.094 . S
Mn505 O510 2.121 . S
Mn505 N512 2.257 . S
Mn505 N521 2.282 . S
Mn505 O529 2.215 . S
Mn505 O531 2.117 . S
C506 O528 1.234 . S
C506 O529 1.283 . S
C507 O519 1.281 . S
C507 O520 1.236 . S
C508 O530 1.240 . S
C508 O531 1.264 . S
O509 Mn504 2.095 . S
O509 C518 1.250 . S
O510 Mn505 2.121 . S
O510 C518 1.258 . S
C511 N512 1.326 . S
C511 C515 1.460 . S
C511 H517 0.929 . S
N512 Mn505 2.257 . S
N512 C511 1.326 . S
N512 C516 1.362 . S
C513 C514 1.258 . S
C513 C516 1.431 . S
C513 C533 1.449 . S
C514 C513 1.258 . S
C514 C515 1.477 . S
C514 H534 0.931 . S
C515 C511 1.460 . S
C515 C514 1.477 . S
C515 H535 0.930 . S
C516 N512 1.362 . S
C516 C513 1.431 . S
C516 C526 1.476 . S
H517 C511 0.929 . S
C518 O509 1.250 . S
C518 O510 1.258 . S
O519 Mn504 2.162 . S
O519 C507 1.281 . S
O520 Mn504 2.297 . S
O520 C507 1.236 . S
N521 Mn505 2.282 . S
N521 C522 1.328 . S
N521 C526 1.318 . S
C522 N521 1.328 . S
C522 C523 1.457 . S
C522 H527 0.929 . S
C523 C522 1.457 . S
C523 C524 1.291 . S
C523 H536 0.931 . S
C524 C523 1.291 . S
C524 C525 1.373 . S
C524 H537 0.929 . S
C525 C524 1.373 . S
C525 C526 1.396 . S
C525 C532 1.403 . S
C526 C516 1.476 . S
C526 N521 1.318 . S
C526 C525 1.396 . S
H527 C522 0.929 . S
O528 Mn504 2.385 . S
O528 C506 1.234 . S
O529 Mn504 2.209 . S
O529 Mn505 2.215 . S
O529 C506 1.283 . S
O530 Mn504 2.094 . S
O530 C508 1.240 . S
O531 Mn505 2.117 . S
O531 C508 1.264 . S
C532 C525 1.403 . S
C532 C533 1.399 . S
C532 H538 0.929 . S
C533 C513 1.449 . S
C533 C532 1.399 . S
C533 H539 0.930 . S
H534 C514 0.931 . S
H535 C515 0.930 . S
H536 C523 0.931 . S
H537 C524 0.929 . S
H538 C532 0.929 . S
H539 C533 0.930 . S
Mn540 O545 2.095 . S
Mn540 O555 2.162 . S
Mn540 O556 2.297 . S
Mn540 O564 2.385 . S
Mn540 O565 2.209 . S
Mn540 O566 2.094 . S
Mn541 O546 2.121 . S
Mn541 N548 2.257 . S
Mn541 N557 2.282 . S
Mn541 O565 2.215 . S
Mn541 O567 2.117 . S
C542 O564 1.234 . S
C542 O565 1.283 . S
C543 O555 1.281 . S
C543 O556 1.236 . S
C544 O566 1.240 . S
C544 O567 1.264 . S
O545 Mn540 2.095 . S
O545 C554 1.250 . S
O546 Mn541 2.121 . S
O546 C554 1.258 . S
C547 N548 1.312 1_545 S
C547 C551 1.477 . S
C547 H553 0.926 1_545 S
N548 Mn541 2.257 . S
N548 C547 1.312 1_565 S
N548 C552 1.362 . S
C549 C550 1.258 . S
C549 C552 1.431 1_545 S
C549 C569 1.449 . S
C550 C549 1.258 . S
C550 C551 1.477 . S
C550 H570 0.931 . S
C551 C547 1.477 . S
C551 C550 1.477 . S
C551 H571 0.930 . S
C552 N548 1.362 . S
C552 C549 1.431 1_565 S
C552 C562 1.476 . S
H553 C547 0.926 1_565 S
C554 O545 1.250 . S
C554 O546 1.258 . S
O555 Mn540 2.162 . S
O555 C543 1.281 . S
O556 Mn540 2.297 . S
O556 C543 1.236 . S
N557 Mn541 2.282 . S
N557 C558 1.328 . S
N557 C562 1.318 . S
C558 N557 1.328 . S
C558 C559 1.457 . S
C558 H563 0.929 . S
C559 C558 1.457 . S
C559 C560 1.291 . S
C559 H572 0.931 . S
C560 C559 1.291 . S
C560 C561 1.373 . S
C560 H573 0.929 . S
C561 C560 1.373 . S
C561 C562 1.396 . S
C561 C568 1.403 1_565 S
C562 C552 1.476 . S
C562 N557 1.318 . S
C562 C561 1.396 . S
H563 C558 0.929 . S
O564 Mn540 2.385 . S
O564 C542 1.234 . S
O565 Mn540 2.209 . S
O565 Mn541 2.215 . S
O565 C542 1.283 . S
O566 Mn540 2.094 . S
O566 C544 1.240 . S
O567 Mn541 2.117 . S
O567 C544 1.264 . S
C568 C561 1.403 1_545 S
C568 C569 1.399 . S
C568 H574 0.929 . S
C569 C549 1.449 . S
C569 C568 1.399 . S
C569 H575 0.930 . S
H570 C550 0.931 . S
H571 C551 0.930 . S
H572 C559 0.931 . S
H573 C560 0.929 . S
H574 C568 0.929 . S
H575 C569 0.930 . S
Mn576 O581 2.095 . S
Mn576 O591 2.162 1_655 S
Mn576 O592 2.297 . S
Mn576 O600 2.385 . S
Mn576 O601 2.209 . S
Mn576 O602 2.094 . S
Mn577 O582 2.121 . S
Mn577 N584 2.257 . S
Mn577 N593 2.282 . S
Mn577 O601 2.215 . S
Mn577 O603 2.117 . S
C578 O600 1.234 . S
C578 O601 1.283 . S
C579 O591 1.281 1_655 S
C579 O592 1.236 . S
C580 O602 1.240 . S
C580 O603 1.264 . S
O581 Mn576 2.095 . S
O581 C590 1.250 . S
O582 Mn577 2.121 . S
O582 C590 1.258 . S
C583 N584 1.326 . S
C583 C587 1.460 . S
C583 H589 0.929 . S
N584 Mn577 2.257 . S
N584 C583 1.326 . S
N584 C588 1.362 . S
C585 C586 1.258 1_565 S
C585 C588 1.431 1_565 S
C585 C605 1.449 . S
C586 C585 1.258 1_545 S
C586 C587 1.477 . S
C586 H606 0.931 1_545 S
C587 C583 1.460 . S
C587 C586 1.477 . S
C587 H607 0.930 . S
C588 N584 1.362 . S
C588 C585 1.431 1_545 S
C588 C598 1.476 1_545 S
H589 C583 0.929 . S
C590 O581 1.250 . S
C590 O582 1.258 . S
O591 Mn576 2.162 1_455 S
O591 C579 1.281 1_455 S
O592 Mn576 2.297 . S
O592 C579 1.236 . S
N593 Mn577 2.282 . S
N593 C594 1.328 1_545 S
N593 C598 1.318 1_545 S
C594 N593 1.328 1_565 S
C594 C595 1.457 . S
C594 H599 0.929 1_565 S
C595 C594 1.457 . S
C595 C596 1.291 . S
C595 H608 0.931 . S
C596 C595 1.291 . S
C596 C597 1.373 . S
C596 H609 0.929 . S
C597 C596 1.373 . S
C597 C598 1.396 . S
C597 C604 1.403 . S
C598 C588 1.476 1_565 S
C598 N593 1.318 1_565 S
C598 C597 1.396 . S
H599 C594 0.929 1_545 S
O600 Mn576 2.385 . S
O600 C578 1.234 . S
O601 Mn576 2.209 . S
O601 Mn577 2.215 . S
O601 C578 1.283 . S
O602 Mn576 2.094 . S
O602 C580 1.240 . S
O603 Mn577 2.117 . S
O603 C580 1.264 . S
C604 C597 1.403 . S
C604 C605 1.399 . S
C604 H610 0.929 . S
C605 C585 1.449 . S
C605 C604 1.399 . S
C605 H611 0.930 . S
H606 C586 0.931 1_565 S
H607 C587 0.930 . S
H608 C595 0.931 . S
H609 C596 0.929 . S
H610 C604 0.929 . S
H611 C605 0.930 . S
Mn612 O617 2.095 . S
Mn612 O627 2.162 . S
Mn612 O628 2.297 . S
Mn612 O636 2.385 . S
Mn612 O637 2.209 . S
Mn612 O638 2.094 . S
Mn613 O618 2.121 . S
Mn613 N620 2.257 . S
Mn613 N629 2.282 . S
Mn613 O637 2.215 . S
Mn613 O639 2.117 . S
C614 O636 1.234 . S
C614 O637 1.283 . S
C615 O627 1.281 . S
C615 O628 1.236 . S
C616 O638 1.240 . S
C616 O639 1.264 . S
O617 Mn612 2.095 . S
O617 C626 1.250 . S
O618 Mn613 2.121 . S
O618 C626 1.258 . S
C619 N620 1.326 . S
C619 C623 1.460 . S
C619 H625 0.929 . S
N620 Mn613 2.257 . S
N620 C619 1.326 . S
N620 C624 1.362 . S
C621 C622 1.258 . S
C621 C624 1.431 . S
C621 C641 1.449 . S
C622 C621 1.258 . S
C622 C623 1.477 . S
C622 H642 0.931 . S
C623 C619 1.460 . S
C623 C622 1.477 . S
C623 H643 0.930 . S
C624 N620 1.362 . S
C624 C621 1.431 . S
C624 C634 1.476 . S
H625 C619 0.929 . S
C626 O617 1.250 . S
C626 O618 1.258 . S
O627 Mn612 2.162 . S
O627 C615 1.281 . S
O628 Mn612 2.297 . S
O628 C615 1.236 . S
N629 Mn613 2.282 . S
N629 C630 1.328 . S
N629 C634 1.318 . S
C630 N629 1.328 . S
C630 C631 1.457 . S
C630 H635 0.929 . S
C631 C630 1.457 . S
C631 C632 1.291 . S
C631 H644 0.931 . S
C632 C631 1.291 . S
C632 C633 1.373 . S
C632 H645 0.929 . S
C633 C632 1.373 . S
C633 C634 1.396 . S
C633 C640 1.403 . S
C634 C624 1.476 . S
C634 N629 1.318 . S
C634 C633 1.396 . S
H635 C630 0.929 . S
O636 Mn612 2.385 . S
O636 C614 1.234 . S
O637 Mn612 2.209 . S
O637 Mn613 2.215 . S
O637 C614 1.283 . S
O638 Mn612 2.094 . S
O638 C616 1.240 . S
O639 Mn613 2.117 . S
O639 C616 1.264 . S
C640 C633 1.403 . S
C640 C641 1.399 . S
C640 H646 0.929 . S
C641 C621 1.449 . S
C641 C640 1.399 . S
C641 H647 0.930 . S
H642 C622 0.931 . S
H643 C623 0.930 . S
H644 C631 0.931 . S
H645 C632 0.929 . S
H646 C640 0.929 . S
H647 C641 0.930 . S
Mn648 O653 2.095 . S
Mn648 O663 2.162 . S
Mn648 O664 2.297 . S
Mn648 O672 2.385 . S
Mn648 O673 2.209 . S
Mn648 O674 2.094 . S
Mn649 O654 2.121 . S
Mn649 N656 2.257 . S
Mn649 N665 2.282 . S
Mn649 O673 2.215 . S
Mn649 O675 2.117 . S
C650 O672 1.234 . S
C650 O673 1.283 . S
C651 O663 1.281 . S
C651 O664 1.236 . S
C652 O674 1.240 . S
C652 O675 1.264 . S
O653 Mn648 2.095 . S
O653 C662 1.250 . S
O654 Mn649 2.121 . S
O654 C662 1.258 . S
C655 N656 1.326 . S
C655 C659 1.460 . S
C655 H661 0.929 . S
N656 Mn649 2.257 . S
N656 C655 1.326 . S
N656 C660 1.362 . S
C657 C658 1.258 . S
C657 C660 1.431 . S
C657 C677 1.449 . S
C658 C657 1.258 . S
C658 C659 1.477 . S
C658 H678 0.931 . S
C659 C655 1.460 . S
C659 C658 1.477 . S
C659 H679 0.930 . S
C660 N656 1.362 . S
C660 C657 1.431 . S
C660 C670 1.476 . S
H661 C655 0.929 . S
C662 O653 1.250 . S
C662 O654 1.258 . S
O663 Mn648 2.162 . S
O663 C651 1.281 . S
O664 Mn648 2.297 . S
O664 C651 1.236 . S
N665 Mn649 2.282 . S
N665 C666 1.328 . S
N665 C670 1.318 . S
C666 N665 1.328 . S
C666 C667 1.457 . S
C666 H671 0.929 . S
C667 C666 1.457 . S
C667 C668 1.291 . S
C667 H680 0.931 . S
C668 C667 1.291 . S
C668 C669 1.373 . S
C668 H681 0.929 . S
C669 C668 1.373 . S
C669 C670 1.396 . S
C669 C676 1.403 . S
C670 C660 1.476 . S
C670 N665 1.318 . S
C670 C669 1.396 . S
H671 C666 0.929 . S
O672 Mn648 2.385 . S
O672 C650 1.234 . S
O673 Mn648 2.209 . S
O673 Mn649 2.215 . S
O673 C650 1.283 . S
O674 Mn648 2.094 . S
O674 C652 1.240 . S
O675 Mn649 2.117 . S
O675 C652 1.264 . S
C676 C669 1.403 . S
C676 C677 1.399 . S
C676 H682 0.929 . S
C677 C657 1.449 . S
C677 C676 1.399 . S
C677 H683 0.930 . S
H678 C658 0.931 . S
H679 C659 0.930 . S
H680 C667 0.931 . S
H681 C668 0.929 . S
H682 C676 0.929 . S
H683 C677 0.930 . S
Mn684 O689 2.095 . S
Mn684 O699 2.162 . S
Mn684 O700 2.297 . S
Mn684 O708 2.385 . S
Mn684 O709 2.209 . S
Mn684 O710 2.094 . S
Mn685 O690 2.121 . S
Mn685 N692 2.257 . S
Mn685 N701 2.282 . S
Mn685 O709 2.215 . S
Mn685 O711 2.117 . S
C686 O708 1.234 . S
C686 O709 1.283 . S
C687 O699 1.281 . S
C687 O700 1.236 . S
C688 O710 1.240 . S
C688 O711 1.264 . S
O689 Mn684 2.095 . S
O689 C698 1.250 . S
O690 Mn685 2.121 . S
O690 C698 1.258 . S
C691 N692 1.326 . S
C691 C695 1.460 . S
C691 H697 0.929 . S
N692 Mn685 2.257 . S
N692 C691 1.326 . S
N692 C696 1.362 . S
C693 C694 1.258 . S
C693 C696 1.431 . S
C693 C713 1.449 . S
C694 C693 1.258 . S
C694 C695 1.477 . S
C694 H714 0.931 . S
C695 C691 1.460 . S
C695 C694 1.477 . S
C695 H715 0.930 . S
C696 N692 1.362 . S
C696 C693 1.431 . S
C696 C706 1.476 . S
H697 C691 0.929 . S
C698 O689 1.250 . S
C698 O690 1.258 . S
O699 Mn684 2.162 . S
O699 C687 1.281 . S
O700 Mn684 2.297 . S
O700 C687 1.236 . S
N701 Mn685 2.282 . S
N701 C702 1.328 . S
N701 C706 1.318 . S
C702 N701 1.328 . S
C702 C703 1.457 . S
C702 H707 0.929 . S
C703 C702 1.457 . S
C703 C704 1.291 . S
C703 H716 0.931 . S
C704 C703 1.291 . S
C704 C705 1.373 . S
C704 H717 0.929 . S
C705 C704 1.373 . S
C705 C706 1.396 . S
C705 C712 1.403 . S
C706 C696 1.476 . S
C706 N701 1.318 . S
C706 C705 1.396 . S
H707 C702 0.929 . S
O708 Mn684 2.385 . S
O708 C686 1.234 . S
O709 Mn684 2.209 . S
O709 Mn685 2.215 . S
O709 C686 1.283 . S
O710 Mn684 2.094 . S
O710 C688 1.240 . S
O711 Mn685 2.117 . S
O711 C688 1.264 . S
C712 C705 1.403 . S
C712 C713 1.399 . S
C712 H718 0.929 . S
C713 C693 1.449 . S
C713 C712 1.399 . S
C713 H719 0.930 . S
H714 C694 0.931 . S
H715 C695 0.930 . S
H716 C703 0.931 . S
H717 C704 0.929 . S
H718 C712 0.929 . S
H719 C713 0.930 . S
Mn720 O725 2.091 1_554 S
Mn720 O735 2.162 . S
Mn720 O736 2.297 . S
Mn720 O744 2.385 . S
Mn720 O745 2.209 1_554 S
Mn720 O746 2.094 1_554 S
Mn721 O726 2.121 . S
Mn721 N728 2.257 . S
Mn721 N737 2.282 . S
Mn721 O745 2.215 . S
Mn721 O747 2.117 . S
C722 O744 1.234 1_556 S
C722 O745 1.283 . S
C723 O735 1.281 . S
C723 O736 1.236 . S
C724 O746 1.240 . S
C724 O747 1.264 . S
O725 Mn720 2.091 1_556 S
O725 C734 1.251 . S
O726 Mn721 2.121 . S
O726 C734 1.258 . S
C727 N728 1.326 . S
C727 C731 1.460 . S
C727 H733 0.929 . S
N728 Mn721 2.257 . S
N728 C727 1.326 . S
N728 C732 1.362 . S
C729 C730 1.258 . S
C729 C732 1.431 . S
C729 C749 1.449 . S
C730 C729 1.258 . S
C730 C731 1.477 . S
C730 H750 0.931 . S
C731 C727 1.460 . S
C731 C730 1.477 . S
C731 H751 0.930 . S
C732 N728 1.362 . S
C732 C729 1.431 . S
C732 C742 1.476 . S
H733 C727 0.929 . S
C734 O725 1.251 . S
C734 O726 1.258 . S
O735 Mn720 2.162 . S
O735 C723 1.281 . S
O736 Mn720 2.297 . S
O736 C723 1.236 . S
N737 Mn721 2.282 . S
N737 C738 1.328 . S
N737 C742 1.318 . S
C738 N737 1.328 . S
C738 C739 1.457 . S
C738 H743 0.929 . S
C739 C738 1.457 . S
C739 C740 1.291 . S
C739 H752 0.931 . S
C740 C739 1.291 . S
C740 C741 1.373 . S
C740 H753 0.929 . S
C741 C740 1.373 . S
C741 C742 1.396 . S
C741 C748 1.403 . S
C742 C732 1.476 . S
C742 N737 1.318 . S
C742 C741 1.396 . S
H743 C738 0.929 . S
O744 Mn720 2.385 . S
O744 C722 1.234 1_554 S
O745 Mn720 2.209 1_556 S
O745 Mn721 2.215 . S
O745 C722 1.283 . S
O746 Mn720 2.094 1_556 S
O746 C724 1.240 . S
O747 Mn721 2.117 . S
O747 C724 1.264 . S
C748 C741 1.403 . S
C748 C749 1.399 . S
C748 H754 0.929 . S
C749 C729 1.449 . S
C749 C748 1.399 . S
C749 H755 0.930 . S
H750 C730 0.931 . S
H751 C731 0.930 . S
H752 C739 0.931 . S
H753 C740 0.929 . S
H754 C748 0.929 . S
H755 C749 0.930 . S
Mn756 O761 2.095 . S
Mn756 O771 2.162 . S
Mn756 O772 2.297 . S
Mn756 O780 2.385 . S
Mn756 O781 2.209 . S
Mn756 O782 2.094 . S
Mn757 O762 2.121 . S
Mn757 N764 2.257 . S
Mn757 N773 2.282 . S
Mn757 O781 2.215 . S
Mn757 O783 2.117 . S
C758 O780 1.234 . S
C758 O781 1.283 . S
C759 O771 1.281 . S
C759 O772 1.236 . S
C760 O782 1.240 . S
C760 O783 1.264 . S
O761 Mn756 2.095 . S
O761 C770 1.250 . S
O762 Mn757 2.121 . S
O762 C770 1.258 . S
C763 N764 1.326 . S
C763 C767 1.460 . S
C763 H769 0.929 . S
N764 Mn757 2.257 . S
N764 C763 1.326 . S
N764 C768 1.362 . S
C765 C766 1.258 . S
C765 C768 1.431 . S
C765 C785 1.449 . S
C766 C765 1.258 . S
C766 C767 1.477 . S
C766 H786 0.931 . S
C767 C763 1.460 . S
C767 C766 1.477 . S
C767 H787 0.930 . S
C768 N764 1.362 . S
C768 C765 1.431 . S
C768 C778 1.476 . S
H769 C763 0.929 . S
C770 O761 1.250 . S
C770 O762 1.258 . S
O771 Mn756 2.162 . S
O771 C759 1.281 . S
O772 Mn756 2.297 . S
O772 C759 1.236 . S
N773 Mn757 2.282 . S
N773 C774 1.328 . S
N773 C778 1.318 . S
C774 N773 1.328 . S
C774 C775 1.457 . S
C774 H779 0.929 . S
C775 C774 1.457 . S
C775 C776 1.291 . S
C775 H788 0.931 . S
C776 C775 1.291 . S
C776 C777 1.373 . S
C776 H789 0.929 . S
C777 C776 1.373 . S
C777 C778 1.396 . S
C777 C784 1.403 . S
C778 C768 1.476 . S
C778 N773 1.318 . S
C778 C777 1.396 . S
H779 C774 0.929 . S
O780 Mn756 2.385 . S
O780 C758 1.234 . S
O781 Mn756 2.209 . S
O781 Mn757 2.215 . S
O781 C758 1.283 . S
O782 Mn756 2.094 . S
O782 C760 1.240 . S
O783 Mn757 2.117 . S
O783 C760 1.264 . S
C784 C777 1.403 . S
C784 C785 1.399 . S
C784 H790 0.929 . S
C785 C765 1.449 . S
C785 C784 1.399 . S
C785 H791 0.930 . S
H786 C766 0.931 . S
H787 C767 0.930 . S
H788 C775 0.931 . S
H789 C776 0.929 . S
H790 C784 0.929 . S
H791 C785 0.930 . S
Mn792 O797 2.095 . S
Mn792 O807 2.162 . S
Mn792 O808 2.297 . S
Mn792 O816 2.385 . S
Mn792 O817 2.209 . S
Mn792 O818 2.094 . S
Mn793 O798 2.121 . S
Mn793 N800 2.257 . S
Mn793 N809 2.282 . S
Mn793 O817 2.215 . S
Mn793 O819 2.117 . S
C794 O816 1.234 . S
C794 O817 1.283 . S
C795 O807 1.281 . S
C795 O808 1.236 . S
C796 O818 1.240 . S
C796 O819 1.264 . S
O797 Mn792 2.095 . S
O797 C806 1.250 . S
O798 Mn793 2.121 . S
O798 C806 1.258 . S
C799 N800 1.326 . S
C799 C803 1.460 . S
C799 H805 0.929 . S
N800 Mn793 2.257 . S
N800 C799 1.326 . S
N800 C804 1.362 . S
C801 C802 1.258 . S
C801 C804 1.431 . S
C801 C821 1.449 . S
C802 C801 1.258 . S
C802 C803 1.477 . S
C802 H822 0.931 . S
C803 C799 1.460 . S
C803 C802 1.477 . S
C803 H823 0.930 . S
C804 N800 1.362 . S
C804 C801 1.431 . S
C804 C814 1.476 . S
H805 C799 0.929 . S
C806 O797 1.250 . S
C806 O798 1.258 . S
O807 Mn792 2.162 . S
O807 C795 1.281 . S
O808 Mn792 2.297 . S
O808 C795 1.236 . S
N809 Mn793 2.282 . S
N809 C810 1.328 . S
N809 C814 1.318 . S
C810 N809 1.328 . S
C810 C811 1.457 . S
C810 H815 0.929 . S
C811 C810 1.457 . S
C811 C812 1.291 . S
C811 H824 0.931 . S
C812 C811 1.291 . S
C812 C813 1.373 . S
C812 H825 0.929 1_655 S
C813 C812 1.373 . S
C813 C814 1.396 . S
C813 C820 1.403 . S
C814 C804 1.476 . S
C814 N809 1.318 . S
C814 C813 1.396 . S
H815 C810 0.929 . S
O816 Mn792 2.385 . S
O816 C794 1.234 . S
O817 Mn792 2.209 . S
O817 Mn793 2.215 . S
O817 C794 1.283 . S
O818 Mn792 2.094 . S
O818 C796 1.240 . S
O819 Mn793 2.117 . S
O819 C796 1.264 . S
C820 C813 1.403 . S
C820 C821 1.399 . S
C820 H826 0.929 1_655 S
C821 C801 1.449 . S
C821 C820 1.399 . S
C821 H827 0.930 . S
H822 C802 0.931 . S
H823 C803 0.930 . S
H824 C811 0.931 . S
H825 C812 0.929 1_455 S
H826 C820 0.929 1_455 S
H827 C821 0.930 . S
Mn828 O833 2.095 . S
Mn828 O843 2.162 . S
Mn828 O844 2.297 . S
Mn828 O852 2.385 . S
Mn828 O853 2.209 . S
Mn828 O854 2.094 . S
Mn829 O834 2.121 . S
Mn829 N836 2.257 . S
Mn829 N845 2.282 . S
Mn829 O853 2.215 . S
Mn829 O855 2.117 . S
C830 O852 1.234 . S
C830 O853 1.283 . S
C831 O843 1.281 . S
C831 O844 1.236 . S
C832 O854 1.240 . S
C832 O855 1.264 . S
O833 Mn828 2.095 . S
O833 C842 1.250 . S
O834 Mn829 2.121 . S
O834 C842 1.258 . S
C835 N836 1.326 . S
C835 C839 1.460 . S
C835 H841 0.929 . S
N836 Mn829 2.257 . S
N836 C835 1.326 . S
N836 C840 1.362 . S
C837 C838 1.258 . S
C837 C840 1.431 . S
C837 C857 1.449 . S
C838 C837 1.258 . S
C838 C839 1.477 . S
C838 H858 0.931 . S
C839 C835 1.460 . S
C839 C838 1.477 . S
C839 H859 0.930 . S
C840 N836 1.362 . S
C840 C837 1.431 . S
C840 C850 1.476 . S
H841 C835 0.929 . S
C842 O833 1.250 . S
C842 O834 1.258 . S
O843 Mn828 2.162 . S
O843 C831 1.281 . S
O844 Mn828 2.297 . S
O844 C831 1.236 . S
N845 Mn829 2.282 . S
N845 C846 1.328 . S
N845 C850 1.318 . S
C846 N845 1.328 . S
C846 C847 1.457 . S
C846 H851 0.929 . S
C847 C846 1.457 . S
C847 C848 1.291 . S
C847 H860 0.931 . S
C848 C847 1.291 . S
C848 C849 1.373 . S
C848 H861 0.929 . S
C849 C848 1.373 . S
C849 C850 1.396 . S
C849 C856 1.403 . S
C850 C840 1.476 . S
C850 N845 1.318 . S
C850 C849 1.396 . S
H851 C846 0.929 . S
O852 Mn828 2.385 . S
O852 C830 1.234 . S
O853 Mn828 2.209 . S
O853 Mn829 2.215 . S
O853 C830 1.283 . S
O854 Mn828 2.094 . S
O854 C832 1.240 . S
O855 Mn829 2.117 . S
O855 C832 1.264 . S
C856 C849 1.403 . S
C856 C857 1.399 . S
C856 H862 0.929 . S
C857 C837 1.449 . S
C857 C856 1.399 . S
C857 H863 0.930 . S
H858 C838 0.931 . S
H859 C839 0.930 . S
H860 C847 0.931 . S
H861 C848 0.929 . S
H862 C856 0.929 . S
H863 C857 0.930 . S
Tb864 N895 2.660 1_546 S
Tb864 N902 2.600 1_545 S
Tb864 O908 2.546 1_455 S
Tb864 O909 2.610 1_556 S
Tb864 O911 2.320 1_556 S
Tb864 O912 2.552 . S
Tb864 O913 2.413 1_456 S
Tb864 O915 2.362 1_546 S
Tb864 O916 2.421 . S
Tb864 C928 2.833 1_455 S
C865 C868 1.432 . S
C865 C869 1.414 . S
C865 N872 1.359 . S
C866 C868 1.417 . S
C866 C870 1.432 . S
C866 C878 1.410 1_554 S
C867 C869 1.444 . S
C867 C870 1.317 . S
C867 H890 0.929 . S
C868 C865 1.432 . S
C868 C866 1.417 . S
C868 N876 1.360 . S
C869 C865 1.414 . S
C869 C867 1.444 . S
C869 C874 1.385 . S
C870 C866 1.432 . S
C870 C867 1.317 . S
C870 H882 0.930 . S
C871 C873 1.392 . S
C871 C874 1.370 . S
C871 H883 0.931 . S
N872 C865 1.359 . S
N872 C873 1.327 . S
N872 Tb875 2.600 . S
C873 C871 1.392 . S
C873 N872 1.327 . S
C873 H880 0.930 . S
C874 C869 1.385 . S
C874 C871 1.370 . S
C874 H893 0.930 . S
Tb875 N872 2.600 . S
Tb875 N876 2.660 . S
Tb875 O909 2.362 . S
Tb875 O910 2.421 . S
Tb875 O914 2.546 . S
Tb875 O915 2.610 1_545 S
Tb875 O917 2.320 1_554 S
Tb875 O918 2.552 1_545 S
Tb875 O919 2.413 . S
Tb875 C939 2.833 . S
N876 C868 1.360 . S
N876 Tb875 2.660 . S
N876 C877 1.305 1_554 S
C877 N876 1.305 1_556 S
C877 C879 1.407 . S
C877 H884 0.930 . S
C878 C866 1.410 1_556 S
C878 C879 1.345 . S
C878 H886 0.930 . S
C879 C877 1.407 . S
C879 C878 1.345 . S
C879 H881 0.930 . S
H880 C873 0.930 . S
H881 C879 0.930 . S
H882 C870 0.930 . S
H883 C871 0.931 . S
H884 C877 0.930 . S
H885 C899 0.930 . S
H886 C878 0.930 . S
H887 C905 0.930 . S
H888 C896 0.930 . S
H889 C903 0.931 . S
H890 C867 0.929 . S
H891 C897 0.930 . S
H892 C930 0.930 . S
H893 C874 0.930 . S
H894 C929 0.929 . S
N895 Tb864 2.660 1_564 S
N895 C896 1.305 . S
N895 C900 1.360 1_455 S
C896 H888 0.930 . S
C896 N895 1.305 . S
C896 C899 1.413 . S
C897 H891 0.930 . S
C897 C898 1.410 . S
C897 C899 1.340 1_655 S
C898 C897 1.410 . S
C898 C900 1.417 . S
C898 C930 1.432 1_554 S
C899 H885 0.930 . S
C899 C896 1.413 . S
C899 C897 1.340 1_455 S
C900 N895 1.360 1_655 S
C900 C898 1.417 . S
C900 C904 1.432 1_554 S
H901 C906 0.930 . S
N902 Tb864 2.600 1_565 S
N902 C904 1.359 1_455 S
N902 C905 1.327 . S
C903 H889 0.931 . S
C903 C905 1.392 1_655 S
C903 C906 1.370 . S
C904 C900 1.432 1_556 S
C904 N902 1.359 1_655 S
C904 C907 1.414 . S
C905 H887 0.930 . S
C905 N902 1.327 . S
C905 C903 1.392 1_455 S
C906 H901 0.930 . S
C906 C903 1.370 . S
C906 C907 1.385 . S
C907 C904 1.414 . S
C907 C906 1.385 . S
C907 C929 1.444 . S
O908 Tb864 2.546 1_655 S
O908 C928 1.251 . S
O909 Tb864 2.610 1_554 S
O909 Tb875 2.362 . S
O909 C920 1.283 . S
O910 Tb875 2.421 . S
O910 C927 1.262 . S
O911 Tb864 2.320 1_554 S
O911 C927 1.260 . S
O912 Tb864 2.552 . S
O912 C920 1.243 1_556 S
O913 Tb864 2.413 1_654 S
O913 C928 1.256 1_554 S
O914 Tb875 2.546 . S
O914 C939 1.251 . S
O915 Tb864 2.362 1_564 S
O915 Tb875 2.610 1_565 S
O915 C931 1.283 . S
O916 Tb864 2.421 . S
O916 C938 1.262 . S
O917 Tb875 2.320 1_556 S
O917 C938 1.260 . S
O918 Tb875 2.552 1_565 S
O918 C931 1.243 . S
O919 Tb875 2.413 . S
O919 C939 1.256 . S
C920 O909 1.283 . S
C920 O912 1.243 1_554 S
C921 C923 1.382 . S
C921 C925 1.390 1_545 S
C921 C928 1.500 . S
C922 C923 1.400 . S
C922 C924 1.384 . S
C923 C921 1.382 . S
C923 C922 1.400 . S
C923 H940 0.930 1_556 S
C924 C922 1.384 . S
C924 C926 1.392 . S
C924 H941 0.931 . S
C925 C921 1.390 1_565 S
C925 C926 1.388 1_565 S
C925 H942 0.948 . S
C926 C924 1.392 . S
C926 C925 1.388 1_545 S
C926 H943 0.930 1_545 S
C927 O910 1.262 . S
C927 O911 1.260 . S
C928 Tb864 2.833 1_655 S
C928 O908 1.251 . S
C928 O913 1.256 1_556 S
C928 C921 1.500 . S
C929 H894 0.929 . S
C929 C907 1.444 . S
C929 C930 1.317 . S
C930 H892 0.930 . S
C930 C898 1.432 1_556 S
C930 C929 1.317 . S
C931 O915 1.283 . S
C931 O918 1.243 . S
C932 C933 1.382 . S
C932 C936 1.393 . S
C932 C939 1.500 . S
C933 C932 1.382 . S
C933 C934 1.400 . S
C933 H944 0.930 . S
C934 C933 1.400 . S
C934 C935 1.384 . S
C935 C934 1.384 . S
C935 C937 1.392 . S
C935 H945 0.931 . S
C936 C932 1.393 . S
C936 C937 1.401 . S
C936 H946 0.930 . S
C937 C935 1.392 . S
C937 C936 1.401 . S
C937 H947 0.930 . S
C938 O916 1.262 . S
C938 O917 1.260 . S
C939 Tb875 2.833 . S
C939 O914 1.251 . S
C939 O919 1.256 . S
C939 C932 1.500 . S
H940 C923 0.930 1_554 S
H941 C924 0.931 . S
H942 C925 0.948 . S
H943 C926 0.930 1_565 S
H944 C933 0.930 . S
H945 C935 0.931 . S
H946 C936 0.930 . S
H947 C937 0.930 . S
Tb948 N979 2.660 . S
Tb948 N986 2.600 . S
Tb948 O992 2.546 . S
Tb948 O993 2.610 . S
Tb948 O995 2.320 . S
Tb948 O996 2.552 . S
Tb948 O997 2.413 . S
Tb948 O999 2.362 . S
Tb948 O1000 2.421 . S
Tb948 C1012 2.833 . S
C949 C952 1.432 . S
C949 C953 1.414 . S
C949 N956 1.359 . S
C950 C952 1.417 . S
C950 C954 1.432 . S
C950 C962 1.410 . S
C951 C953 1.444 . S
C951 C954 1.317 . S
C951 H974 0.929 . S
C952 C949 1.432 . S
C952 C950 1.417 . S
C952 N960 1.360 . S
C953 C949 1.414 . S
C953 C951 1.444 . S
C953 C958 1.385 . S
C954 C950 1.432 . S
C954 C951 1.317 . S
C954 H966 0.930 . S
C955 C957 1.392 . S
C955 C958 1.370 . S
C955 H967 0.931 . S
N956 C949 1.359 . S
N956 C957 1.327 . S
N956 Tb959 2.600 . S
C957 C955 1.392 . S
C957 N956 1.327 . S
C957 H964 0.930 . S
C958 C953 1.385 . S
C958 C955 1.370 . S
C958 H977 0.930 . S
Tb959 N956 2.600 . S
Tb959 N960 2.660 . S
Tb959 O993 2.362 . S
Tb959 O994 2.421 . S
Tb959 O998 2.546 . S
Tb959 O999 2.610 . S
Tb959 O1001 2.320 . S
Tb959 O1002 2.552 . S
Tb959 O1003 2.413 . S
Tb959 C1023 2.833 . S
N960 C952 1.360 . S
N960 Tb959 2.660 . S
N960 C961 1.305 . S
C961 N960 1.305 . S
C961 C963 1.407 . S
C961 H968 0.930 . S
C962 C950 1.410 . S
C962 C963 1.345 . S
C962 H970 0.930 . S
C963 C961 1.407 . S
C963 C962 1.345 . S
C963 H965 0.930 . S
H964 C957 0.930 . S
H965 C963 0.930 . S
H966 C954 0.930 . S
H967 C955 0.931 . S
H968 C961 0.930 . S
H969 C983 0.930 . S
H970 C962 0.930 . S
H971 C989 0.930 . S
H972 C980 0.930 . S
H973 C987 0.931 . S
H974 C951 0.929 . S
H975 C981 0.930 . S
H976 C1014 0.930 . S
H977 C958 0.930 . S
H978 C1013 0.929 . S
N979 Tb948 2.660 . S
N979 C980 1.305 . S
N979 C984 1.360 . S
C980 H972 0.930 . S
C980 N979 1.305 . S
C980 C983 1.407 . S
C981 H975 0.930 . S
C981 C982 1.410 . S
C981 C983 1.345 . S
C982 C981 1.410 . S
C982 C984 1.417 . S
C982 C1014 1.432 . S
C983 H969 0.930 . S
C983 C980 1.407 . S
C983 C981 1.345 . S
C984 N979 1.360 . S
C984 C982 1.417 . S
C984 C988 1.432 . S
H985 C990 0.930 . S
N986 Tb948 2.600 . S
N986 C988 1.359 . S
N986 C989 1.327 . S
C987 H973 0.931 . S
C987 C989 1.392 . S
C987 C990 1.370 . S
C988 C984 1.432 . S
C988 N986 1.359 . S
C988 C991 1.414 . S
C989 H971 0.930 . S
C989 N986 1.327 . S
C989 C987 1.392 . S
C990 H985 0.930 . S
C990 C987 1.370 . S
C990 C991 1.385 . S
C991 C988 1.414 . S
C991 C990 1.385 . S
C991 C1013 1.444 . S
O992 Tb948 2.546 . S
O992 C1012 1.251 . S
O993 Tb948 2.610 . S
O993 Tb959 2.362 . S
O993 C1004 1.283 . S
O994 Tb959 2.421 . S
O994 C1011 1.262 . S
O995 Tb948 2.320 . S
O995 C1011 1.260 . S
O996 Tb948 2.552 . S
O996 C1004 1.243 . S
O997 Tb948 2.413 . S
O997 C1012 1.256 . S
O998 Tb959 2.546 . S
O998 C1023 1.251 . S
O999 Tb948 2.362 . S
O999 Tb959 2.610 . S
O999 C1015 1.283 . S
O1000 Tb948 2.421 . S
O1000 C1022 1.262 . S
O1001 Tb959 2.320 . S
O1001 C1022 1.260 . S
O1002 Tb959 2.552 . S
O1002 C1015 1.243 . S
O1003 Tb959 2.413 . S
O1003 C1023 1.256 . S
C1004 O993 1.283 . S
C1004 O996 1.243 . S
C1005 C1007 1.382 . S
C1005 C1009 1.393 . S
C1005 C1012 1.500 . S
C1006 C1007 1.400 . S
C1006 C1008 1.384 . S
C1007 C1005 1.382 . S
C1007 C1006 1.400 . S
C1007 H1024 0.930 . S
C1008 C1006 1.384 . S
C1008 C1010 1.392 . S
C1008 H1025 0.931 . S
C1009 C1005 1.393 . S
C1009 C1010 1.401 . S
C1009 H1026 0.930 . S
C1010 C1008 1.392 . S
C1010 C1009 1.401 . S
C1010 H1027 0.930 . S
C1011 O994 1.262 . S
C1011 O995 1.260 . S
C1012 Tb948 2.833 . S
C1012 O992 1.251 . S
C1012 O997 1.256 . S
C1012 C1005 1.500 . S
C1013 H978 0.929 . S
C1013 C991 1.444 . S
C1013 C1014 1.317 . S
C1014 H976 0.930 . S
C1014 C982 1.432 . S
C1014 C1013 1.317 . S
C1015 O999 1.283 . S
C1015 O1002 1.243 . S
C1016 C1017 1.382 . S
C1016 C1020 1.393 . S
C1016 C1023 1.500 . S
C1017 C1016 1.382 . S
C1017 C1018 1.400 . S
C1017 H1028 0.930 . S
C1018 C1017 1.400 . S
C1018 C1019 1.384 . S
C1019 C1018 1.384 . S
C1019 C1021 1.392 . S
C1019 H1029 0.931 . S
C1020 C1016 1.393 . S
C1020 C1021 1.401 . S
C1020 H1030 0.930 . S
C1021 C1019 1.392 . S
C1021 C1020 1.401 . S
C1021 H1031 0.930 . S
C1022 O1000 1.262 . S
C1022 O1001 1.260 . S
C1023 Tb959 2.833 . S
C1023 O998 1.251 . S
C1023 O1003 1.256 . S
C1023 C1016 1.500 . S
H1024 C1007 0.930 . S
H1025 C1008 0.931 . S
H1026 C1009 0.930 . S
H1027 C1010 0.930 . S
H1028 C1017 0.930 . S
H1029 C1019 0.931 . S
H1030 C1020 0.930 . S
H1031 C1021 0.930 . S
Tb1032 N1063 2.660 . S
Tb1032 N1070 2.600 . S
Tb1032 O1076 2.546 . S
Tb1032 O1077 2.610 . S
Tb1032 O1079 2.320 . S
Tb1032 O1080 2.552 1_545 S
Tb1032 O1081 2.413 . S
Tb1032 O1083 2.362 . S
Tb1032 O1084 2.421 . S
Tb1032 C1096 2.833 . S
C1033 C1036 1.432 . S
C1033 C1037 1.414 . S
C1033 N1040 1.359 1_565 S
C1034 C1036 1.417 . S
C1034 C1038 1.432 . S
C1034 C1046 1.410 . S
C1035 C1037 1.444 . S
C1035 C1038 1.317 . S
C1035 H1058 0.929 . S
C1036 C1033 1.432 . S
C1036 C1034 1.417 . S
C1036 N1044 1.360 . S
C1037 C1033 1.414 . S
C1037 C1035 1.444 . S
C1037 C1042 1.385 . S
C1038 C1034 1.432 . S
C1038 C1035 1.317 . S
C1038 H1050 0.930 . S
C1039 C1041 1.406 . S
C1039 C1042 1.352 1_545 S
C1039 H1051 0.936 . S
N1040 C1033 1.359 1_545 S
N1040 C1041 1.327 . S
N1040 Tb1043 2.600 . S
C1041 C1039 1.406 . S
C1041 N1040 1.327 . S
C1041 H1048 0.930 . S
C1042 C1037 1.385 . S
C1042 C1039 1.352 1_565 S
C1042 H1061 0.930 . S
Tb1043 N1040 2.600 . S
Tb1043 N1044 2.660 1_545 S
Tb1043 O1077 2.362 . S
Tb1043 O1078 2.421 . S
Tb1043 O1082 2.546 . S
Tb1043 O1083 2.610 . S
Tb1043 O1085 2.320 . S
Tb1043 O1086 2.552 . S
Tb1043 O1087 2.413 . S
Tb1043 C1107 2.833 . S
N1044 C1036 1.360 . S
N1044 Tb1043 2.660 1_565 S
N1044 C1045 1.305 . S
C1045 N1044 1.305 . S
C1045 C1047 1.407 . S
C1045 H1052 0.930 . S
C1046 C1034 1.410 . S
C1046 C1047 1.345 . S
C1046 H1054 0.930 . S
C1047 C1045 1.407 . S
C1047 C1046 1.345 . S
C1047 H1049 0.930 . S
H1048 C1041 0.930 . S
H1049 C1047 0.930 . S
H1050 C1038 0.930 . S
H1051 C1039 0.936 . S
H1052 C1045 0.930 . S
H1053 C1067 0.930 . S
H1054 C1046 0.930 . S
H1055 C1073 0.930 . S
H1056 C1064 0.930 . S
H1057 C1071 0.931 . S
H1058 C1035 0.929 . S
H1059 C1065 0.930 . S
H1060 C1098 0.930 . S
H1061 C1042 0.930 . S
H1062 C1097 0.929 . S
N1063 Tb1032 2.660 . S
N1063 C1064 1.305 . S
N1063 C1068 1.360 . S
C1064 H1056 0.930 . S
C1064 N1063 1.305 . S
C1064 C1067 1.407 . S
C1065 H1059 0.930 . S
C1065 C1066 1.410 . S
C1065 C1067 1.345 . S
C1066 C1065 1.410 . S
C1066 C1068 1.417 . S
C1066 C1098 1.432 . S
C1067 H1053 0.930 . S
C1067 C1064 1.407 . S
C1067 C1065 1.345 . S
C1068 N1063 1.360 . S
C1068 C1066 1.417 . S
C1068 C1072 1.432 . S
H1069 C1074 0.930 . S
N1070 Tb1032 2.600 . S
N1070 C1072 1.359 . S
N1070 C1073 1.327 . S
C1071 H1057 0.931 . S
C1071 C1073 1.392 . S
C1071 C1074 1.370 . S
C1072 C1068 1.432 . S
C1072 N1070 1.359 . S
C1072 C1075 1.414 . S
C1073 H1055 0.930 . S
C1073 N1070 1.327 . S
C1073 C1071 1.392 . S
C1074 H1069 0.930 . S
C1074 C1071 1.370 . S
C1074 C1075 1.385 . S
C1075 C1072 1.414 . S
C1075 C1074 1.385 . S
C1075 C1097 1.444 . S
O1076 Tb1032 2.546 . S
O1076 C1096 1.251 . S
O1077 Tb1032 2.610 . S
O1077 Tb1043 2.362 . S
O1077 C1088 1.283 1_545 S
O1078 Tb1043 2.421 . S
O1078 C1095 1.262 . S
O1079 Tb1032 2.320 . S
O1079 C1095 1.260 . S
O1080 Tb1032 2.552 1_565 S
O1080 C1088 1.243 . S
O1081 Tb1032 2.413 . S
O1081 C1096 1.256 . S
O1082 Tb1043 2.546 . S
O1082 C1107 1.251 . S
O1083 Tb1032 2.362 . S
O1083 Tb1043 2.610 . S
O1083 C1099 1.283 . S
O1084 Tb1032 2.421 . S
O1084 C1106 1.262 . S
O1085 Tb1043 2.320 . S
O1085 C1106 1.260 . S
O1086 Tb1043 2.552 . S
O1086 C1099 1.243 . S
O1087 Tb1043 2.413 . S
O1087 C1107 1.256 . S
C1088 O1077 1.283 1_565 S
C1088 O1080 1.243 . S
C1089 C1091 1.398 . S
C1089 C1093 1.393 . S
C1089 C1096 1.486 1_565 S
C1090 C1091 1.400 . S
C1090 C1092 1.384 . S
C1091 C1089 1.398 . S
C1091 C1090 1.400 . S
C1091 H1108 0.930 . S
C1092 C1090 1.384 . S
C1092 C1094 1.392 . S
C1092 H1109 0.931 . S
C1093 C1089 1.393 . S
C1093 C1094 1.401 . S
C1093 H1110 0.930 1_565 S
C1094 C1092 1.392 . S
C1094 C1093 1.401 . S
C1094 H1111 0.930 . S
C1095 O1078 1.262 . S
C1095 O1079 1.260 . S
C1096 Tb1032 2.833 . S
C1096 O1076 1.251 . S
C1096 O1081 1.256 . S
C1096 C1089 1.486 1_545 S
C1097 H1062 0.929 . S
C1097 C1075 1.444 . S
C1097 C1098 1.317 . S
C1098 H1060 0.930 . S
C1098 C1066 1.432 . S
C1098 C1097 1.317 . S
C1099 O1083 1.283 . S
C1099 O1086 1.243 . S
C1100 C1101 1.382 . S
C1100 C1104 1.393 . S
C1100 C1107 1.500 . S
C1101 C1100 1.382 . S
C1101 C1102 1.400 . S
C1101 H1112 0.930 . S
C1102 C1101 1.400 . S
C1102 C1103 1.384 . S
C1103 C1102 1.384 . S
C1103 C1105 1.392 . S
C1103 H1113 0.931 . S
C1104 C1100 1.393 . S
C1104 C1105 1.401 . S
C1104 H1114 0.930 . S
C1105 C1103 1.392 . S
C1105 C1104 1.401 . S
C1105 H1115 0.930 . S
C1106 O1084 1.262 . S
C1106 O1085 1.260 . S
C1107 Tb1043 2.833 . S
C1107 O1082 1.251 . S
C1107 O1087 1.256 . S
C1107 C1100 1.500 . S
H1108 C1091 0.930 . S
H1109 C1092 0.931 . S
H1110 C1093 0.930 1_545 S
H1111 C1094 0.930 . S
H1112 C1101 0.930 . S
H1113 C1103 0.931 . S
H1114 C1104 0.930 . S
H1115 C1105 0.930 . S
Tb1116 N1147 2.660 . S
Tb1116 N1154 2.600 . S
Tb1116 O1160 2.546 . S
Tb1116 O1161 2.610 . S
Tb1116 O1163 2.320 . S
Tb1116 O1164 2.552 . S
Tb1116 O1165 2.413 . S
Tb1116 O1167 2.362 . S
Tb1116 O1168 2.421 . S
Tb1116 C1180 2.833 . S
C1117 C1120 1.432 . S
C1117 C1121 1.414 . S
C1117 N1124 1.359 . S
C1118 C1120 1.417 . S
C1118 C1122 1.432 . S
C1118 C1130 1.410 . S
C1119 C1121 1.444 . S
C1119 C1122 1.317 . S
C1119 H1142 0.929 . S
C1120 C1117 1.432 . S
C1120 C1118 1.417 . S
C1120 N1128 1.360 . S
C1121 C1117 1.414 . S
C1121 C1119 1.444 . S
C1121 C1126 1.385 . S
C1122 C1118 1.432 . S
C1122 C1119 1.317 . S
C1122 H1134 0.930 . S
C1123 C1125 1.392 . S
C1123 C1126 1.370 . S
C1123 H1135 0.931 . S
N1124 C1117 1.359 . S
N1124 C1125 1.327 . S
N1124 Tb1127 2.600 . S
C1125 C1123 1.392 . S
C1125 N1124 1.327 . S
C1125 H1132 0.930 . S
C1126 C1121 1.385 . S
C1126 C1123 1.370 . S
C1126 H1145 0.930 . S
Tb1127 N1124 2.600 . S
Tb1127 N1128 2.660 . S
Tb1127 O1161 2.362 . S
Tb1127 O1162 2.421 . S
Tb1127 O1166 2.546 . S
Tb1127 O1167 2.610 . S
Tb1127 O1169 2.320 . S
Tb1127 O1170 2.552 . S
Tb1127 O1171 2.413 . S
Tb1127 C1191 2.833 . S
N1128 C1120 1.360 . S
N1128 Tb1127 2.660 . S
N1128 C1129 1.305 . S
C1129 N1128 1.305 . S
C1129 C1131 1.407 . S
C1129 H1136 0.930 . S
C1130 C1118 1.410 . S
C1130 C1131 1.345 . S
C1130 H1138 0.930 . S
C1131 C1129 1.407 . S
C1131 C1130 1.345 . S
C1131 H1133 0.930 . S
H1132 C1125 0.930 . S
H1133 C1131 0.930 . S
H1134 C1122 0.930 . S
H1135 C1123 0.931 . S
H1136 C1129 0.930 . S
H1137 C1151 0.930 . S
H1138 C1130 0.930 . S
H1139 C1157 0.930 . S
H1140 C1148 0.930 . S
H1141 C1155 0.931 . S
H1142 C1119 0.929 . S
H1143 C1149 0.930 . S
H1144 C1182 0.930 . S
H1145 C1126 0.930 . S
H1146 C1181 0.929 . S
N1147 Tb1116 2.660 . S
N1147 C1148 1.305 . S
N1147 C1152 1.360 . S
C1148 H1140 0.930 . S
C1148 N1147 1.305 . S
C1148 C1151 1.407 . S
C1149 H1143 0.930 . S
C1149 C1150 1.410 . S
C1149 C1151 1.345 . S
C1150 C1149 1.410 . S
C1150 C1152 1.417 . S
C1150 C1182 1.432 . S
C1151 H1137 0.930 . S
C1151 C1148 1.407 . S
C1151 C1149 1.345 . S
C1152 N1147 1.360 . S
C1152 C1150 1.417 . S
C1152 C1156 1.432 . S
H1153 C1158 0.930 . S
N1154 Tb1116 2.600 . S
N1154 C1156 1.359 . S
N1154 C1157 1.327 . S
C1155 H1141 0.931 . S
C1155 C1157 1.392 . S
C1155 C1158 1.370 . S
C1156 C1152 1.432 . S
C1156 N1154 1.359 . S
C1156 C1159 1.414 . S
C1157 H1139 0.930 . S
C1157 N1154 1.327 . S
C1157 C1155 1.392 . S
C1158 H1153 0.930 . S
C1158 C1155 1.370 . S
C1158 C1159 1.385 . S
C1159 C1156 1.414 . S
C1159 C1158 1.385 . S
C1159 C1181 1.444 . S
O1160 Tb1116 2.546 . S
O1160 C1180 1.251 . S
O1161 Tb1116 2.610 . S
O1161 Tb1127 2.362 . S
O1161 C1172 1.283 . S
O1162 Tb1127 2.421 . S
O1162 C1179 1.262 . S
O1163 Tb1116 2.320 . S
O1163 C1179 1.260 . S
O1164 Tb1116 2.552 . S
O1164 C1172 1.243 . S
O1165 Tb1116 2.413 . S
O1165 C1180 1.256 . S
O1166 Tb1127 2.546 . S
O1166 C1191 1.251 . S
O1167 Tb1116 2.362 . S
O1167 Tb1127 2.610 . S
O1167 C1183 1.283 . S
O1168 Tb1116 2.421 . S
O1168 C1190 1.262 . S
O1169 Tb1127 2.320 . S
O1169 C1190 1.260 . S
O1170 Tb1127 2.552 . S
O1170 C1183 1.243 . S
O1171 Tb1127 2.413 . S
O1171 C1191 1.256 . S
C1172 O1161 1.283 . S
C1172 O1164 1.243 . S
C1173 C1175 1.382 . S
C1173 C1177 1.393 . S
C1173 C1180 1.500 . S
C1174 C1175 1.400 . S
C1174 C1176 1.384 . S
C1175 C1173 1.382 . S
C1175 C1174 1.400 . S
C1175 H1192 0.930 . S
C1176 C1174 1.384 . S
C1176 C1178 1.392 . S
C1176 H1193 0.931 . S
C1177 C1173 1.393 . S
C1177 C1178 1.401 . S
C1177 H1194 0.930 . S
C1178 C1176 1.392 . S
C1178 C1177 1.401 . S
C1178 H1195 0.930 . S
C1179 O1162 1.262 . S
C1179 O1163 1.260 . S
C1180 Tb1116 2.833 . S
C1180 O1160 1.251 . S
C1180 O1165 1.256 . S
C1180 C1173 1.500 . S
C1181 H1146 0.929 . S
C1181 C1159 1.444 . S
C1181 C1182 1.317 . S
C1182 H1144 0.930 . S
C1182 C1150 1.432 . S
C1182 C1181 1.317 . S
C1183 O1167 1.283 . S
C1183 O1170 1.243 . S
C1184 C1185 1.382 . S
C1184 C1188 1.393 . S
C1184 C1191 1.500 . S
C1185 C1184 1.382 . S
C1185 C1186 1.400 . S
C1185 H1196 0.930 . S
C1186 C1185 1.400 . S
C1186 C1187 1.384 . S
C1187 C1186 1.384 . S
C1187 C1189 1.392 . S
C1187 H1197 0.931 . S
C1188 C1184 1.393 . S
C1188 C1189 1.401 . S
C1188 H1198 0.930 . S
C1189 C1187 1.392 . S
C1189 C1188 1.401 . S
C1189 H1199 0.930 . S
C1190 O1168 1.262 . S
C1190 O1169 1.260 . S
C1191 Tb1127 2.833 . S
C1191 O1166 1.251 . S
C1191 O1171 1.256 . S
C1191 C1184 1.500 . S
H1192 C1175 0.930 . S
H1193 C1176 0.931 . S
H1194 C1177 0.930 . S
H1195 C1178 0.930 . S
H1196 C1185 0.930 . S
H1197 C1187 0.931 . S
H1198 C1188 0.930 . S
H1199 C1189 0.930 . S
Tb1200 N1231 2.660 . S
Tb1200 N1238 2.600 . S
Tb1200 O1244 2.546 . S
Tb1200 O1245 2.610 . S
Tb1200 O1247 2.320 . S
Tb1200 O1248 2.552 . S
Tb1200 O1249 2.413 . S
Tb1200 O1251 2.362 . S
Tb1200 O1252 2.421 . S
Tb1200 C1264 2.833 . S
C1201 C1204 1.432 . S
C1201 C1205 1.414 . S
C1201 N1208 1.359 . S
C1202 C1204 1.417 . S
C1202 C1206 1.432 . S
C1202 C1214 1.410 . S
C1203 C1205 1.444 . S
C1203 C1206 1.317 . S
C1203 H1226 0.929 . S
C1204 C1201 1.432 . S
C1204 C1202 1.417 . S
C1204 N1212 1.360 . S
C1205 C1201 1.414 . S
C1205 C1203 1.444 . S
C1205 C1210 1.385 . S
C1206 C1202 1.432 . S
C1206 C1203 1.317 . S
C1206 H1218 0.930 . S
C1207 C1209 1.392 . S
C1207 C1210 1.370 . S
C1207 H1219 0.931 . S
N1208 C1201 1.359 . S
N1208 C1209 1.327 . S
N1208 Tb1211 2.600 . S
C1209 C1207 1.392 . S
C1209 N1208 1.327 . S
C1209 H1216 0.930 . S
C1210 C1205 1.385 . S
C1210 C1207 1.370 . S
C1210 H1229 0.930 . S
Tb1211 N1208 2.600 . S
Tb1211 N1212 2.660 . S
Tb1211 O1245 2.362 1_565 S
Tb1211 O1246 2.421 1_565 S
Tb1211 O1250 2.546 . S
Tb1211 O1251 2.610 1_565 S
Tb1211 O1253 2.320 . S
Tb1211 O1254 2.552 . S
Tb1211 O1255 2.413 . S
Tb1211 C1275 2.833 . S
N1212 C1204 1.360 . S
N1212 Tb1211 2.660 . S
N1212 C1213 1.305 . S
C1213 N1212 1.305 . S
C1213 C1215 1.407 1_455 S
C1213 H1220 0.930 . S
C1214 C1202 1.410 . S
C1214 C1215 1.345 1_455 S
C1214 H1222 0.930 1_455 S
C1215 C1213 1.407 1_655 S
C1215 C1214 1.345 1_655 S
C1215 H1217 0.930 . S
H1216 C1209 0.930 . S
H1217 C1215 0.930 . S
H1218 C1206 0.930 . S
H1219 C1207 0.931 . S
H1220 C1213 0.930 . S
H1221 C1235 0.930 . S
H1222 C1214 0.930 1_655 S
H1223 C1241 0.945 . S
H1224 C1232 0.930 . S
H1225 C1239 0.936 . S
H1226 C1203 0.929 . S
H1227 C1233 0.930 . S
H1228 C1266 0.930 . S
H1229 C1210 0.930 . S
H1230 C1265 0.929 . S
N1231 Tb1200 2.660 . S
N1231 C1232 1.305 . S
N1231 C1236 1.360 . S
C1232 H1224 0.930 . S
C1232 N1231 1.305 . S
C1232 C1235 1.407 . S
C1233 H1227 0.930 . S
C1233 C1234 1.410 . S
C1233 C1235 1.345 . S
C1234 C1233 1.410 . S
C1234 C1236 1.417 . S
C1234 C1266 1.432 . S
C1235 H1221 0.930 . S
C1235 C1232 1.407 . S
C1235 C1233 1.345 . S
C1236 N1231 1.360 . S
C1236 C1234 1.417 . S
C1236 C1240 1.432 . S
H1237 C1242 0.930 . S
N1238 Tb1200 2.600 . S
N1238 C1240 1.359 . S
N1238 C1241 1.327 . S
C1239 H1225 0.936 . S
C1239 C1241 1.389 1_655 S
C1239 C1242 1.367 1_655 S
C1240 C1236 1.432 . S
C1240 N1238 1.359 . S
C1240 C1243 1.414 . S
C1241 H1223 0.945 . S
C1241 N1238 1.327 . S
C1241 C1239 1.389 1_455 S
C1242 H1237 0.930 . S
C1242 C1239 1.367 1_455 S
C1242 C1243 1.385 . S
C1243 C1240 1.414 . S
C1243 C1242 1.385 . S
C1243 C1265 1.444 . S
O1244 Tb1200 2.546 . S
O1244 C1264 1.251 . S
O1245 Tb1200 2.610 . S
O1245 Tb1211 2.362 1_545 S
O1245 C1256 1.283 . S
O1246 Tb1211 2.421 1_545 S
O1246 C1263 1.262 . S
O1247 Tb1200 2.320 . S
O1247 C1263 1.260 . S
O1248 Tb1200 2.552 . S
O1248 C1256 1.243 . S
O1249 Tb1200 2.413 . S
O1249 C1264 1.256 . S
O1250 Tb1211 2.546 . S
O1250 C1275 1.251 . S
O1251 Tb1200 2.362 . S
O1251 Tb1211 2.610 1_545 S
O1251 C1267 1.283 . S
O1252 Tb1200 2.421 . S
O1252 C1274 1.262 . S
O1253 Tb1211 2.320 . S
O1253 C1274 1.260 1_565 S
O1254 Tb1211 2.552 . S
O1254 C1267 1.243 1_565 S
O1255 Tb1211 2.413 . S
O1255 C1275 1.256 . S
C1256 O1245 1.283 . S
C1256 O1248 1.243 . S
C1257 C1259 1.382 . S
C1257 C1261 1.393 . S
C1257 C1264 1.500 . S
C1258 C1259 1.400 . S
C1258 C1260 1.384 . S
C1259 C1257 1.382 . S
C1259 C1258 1.400 . S
C1259 H1276 0.930 . S
C1260 C1258 1.384 . S
C1260 C1262 1.392 . S
C1260 H1277 0.931 . S
C1261 C1257 1.393 . S
C1261 C1262 1.401 . S
C1261 H1278 0.930 . S
C1262 C1260 1.392 . S
C1262 C1261 1.401 . S
C1262 H1279 0.930 . S
C1263 O1246 1.262 . S
C1263 O1247 1.260 . S
C1264 Tb1200 2.833 . S
C1264 O1244 1.251 . S
C1264 O1249 1.256 . S
C1264 C1257 1.500 . S
C1265 H1230 0.929 . S
C1265 C1243 1.444 . S
C1265 C1266 1.317 . S
C1266 H1228 0.930 . S
C1266 C1234 1.432 . S
C1266 C1265 1.317 . S
C1267 O1251 1.283 . S
C1267 O1254 1.243 1_545 S
C1268 C1269 1.382 . S
C1268 C1272 1.393 . S
C1268 C1275 1.500 . S
C1269 C1268 1.382 . S
C1269 C1270 1.400 . S
C1269 H1280 0.930 . S
C1270 C1269 1.400 . S
C1270 C1271 1.384 . S
C1271 C1270 1.384 . S
C1271 C1273 1.392 . S
C1271 H1281 0.931 . S
C1272 C1268 1.393 . S
C1272 C1273 1.401 . S
C1272 H1282 0.930 . S
C1273 C1271 1.392 . S
C1273 C1272 1.401 . S
C1273 H1283 0.930 . S
C1274 O1252 1.262 . S
C1274 O1253 1.260 1_545 S
C1275 Tb1211 2.833 . S
C1275 O1250 1.251 . S
C1275 O1255 1.256 . S
C1275 C1268 1.500 . S
H1276 C1259 0.930 . S
H1277 C1260 0.931 . S
H1278 C1261 0.930 . S
H1279 C1262 0.930 . S
H1280 C1269 0.930 . S
H1281 C1271 0.931 . S
H1282 C1272 0.930 . S
H1283 C1273 0.930 . S
Tb1284 N1315 2.660 . S
Tb1284 N1322 2.600 . S
Tb1284 O1328 2.546 . S
Tb1284 O1329 2.610 . S
Tb1284 O1331 2.320 . S
Tb1284 O1332 2.552 . S
Tb1284 O1333 2.413 . S
Tb1284 O1335 2.362 . S
Tb1284 O1336 2.421 . S
Tb1284 C1348 2.833 . S
C1285 C1288 1.432 . S
C1285 C1289 1.414 . S
C1285 N1292 1.359 . S
C1286 C1288 1.417 . S
C1286 C1290 1.432 . S
C1286 C1298 1.410 . S
C1287 C1289 1.444 . S
C1287 C1290 1.317 . S
C1287 H1310 0.929 . S
C1288 C1285 1.432 . S
C1288 C1286 1.417 . S
C1288 N1296 1.360 . S
C1289 C1285 1.414 . S
C1289 C1287 1.444 . S
C1289 C1294 1.385 . S
C1290 C1286 1.432 . S
C1290 C1287 1.317 . S
C1290 H1302 0.930 . S
C1291 C1293 1.392 . S
C1291 C1294 1.370 . S
C1291 H1303 0.931 . S
N1292 C1285 1.359 . S
N1292 C1293 1.327 . S
N1292 Tb1295 2.600 . S
C1293 C1291 1.392 . S
C1293 N1292 1.327 . S
C1293 H1300 0.930 . S
C1294 C1289 1.385 . S
C1294 C1291 1.370 . S
C1294 H1313 0.930 . S
Tb1295 N1292 2.600 . S
Tb1295 N1296 2.660 . S
Tb1295 O1329 2.362 . S
Tb1295 O1330 2.421 . S
Tb1295 O1334 2.546 . S
Tb1295 O1335 2.610 . S
Tb1295 O1337 2.320 . S
Tb1295 O1338 2.552 . S
Tb1295 O1339 2.413 . S
Tb1295 C1359 2.833 . S
N1296 C1288 1.360 . S
N1296 Tb1295 2.660 . S
N1296 C1297 1.305 . S
C1297 N1296 1.305 . S
C1297 C1299 1.407 . S
C1297 H1304 0.930 . S
C1298 C1286 1.410 . S
C1298 C1299 1.345 . S
C1298 H1306 0.930 . S
C1299 C1297 1.407 . S
C1299 C1298 1.345 . S
C1299 H1301 0.930 . S
H1300 C1293 0.930 . S
H1301 C1299 0.930 . S
H1302 C1290 0.930 . S
H1303 C1291 0.931 . S
H1304 C1297 0.930 . S
H1305 C1319 0.930 . S
H1306 C1298 0.930 . S
H1307 C1325 0.930 . S
H1308 C1316 0.930 . S
H1309 C1323 0.931 . S
H1310 C1287 0.929 . S
H1311 C1317 0.930 . S
H1312 C1350 0.930 . S
H1313 C1294 0.930 . S
H1314 C1349 0.929 . S
N1315 Tb1284 2.660 . S
N1315 C1316 1.305 . S
N1315 C1320 1.360 . S
C1316 H1308 0.930 . S
C1316 N1315 1.305 . S
C1316 C1319 1.407 . S
C1317 H1311 0.930 . S
C1317 C1318 1.410 . S
C1317 C1319 1.345 . S
C1318 C1317 1.410 . S
C1318 C1320 1.417 . S
C1318 C1350 1.432 . S
C1319 H1305 0.930 . S
C1319 C1316 1.407 . S
C1319 C1317 1.345 . S
C1320 N1315 1.360 . S
C1320 C1318 1.417 . S
C1320 C1324 1.432 . S
H1321 C1326 0.930 . S
N1322 Tb1284 2.600 . S
N1322 C1324 1.359 . S
N1322 C1325 1.327 . S
C1323 H1309 0.931 . S
C1323 C1325 1.392 . S
C1323 C1326 1.370 . S
C1324 C1320 1.432 . S
C1324 N1322 1.359 . S
C1324 C1327 1.414 . S
C1325 H1307 0.930 . S
C1325 N1322 1.327 . S
C1325 C1323 1.392 . S
C1326 H1321 0.930 . S
C1326 C1323 1.370 . S
C1326 C1327 1.385 . S
C1327 C1324 1.414 . S
C1327 C1326 1.385 . S
C1327 C1349 1.444 . S
O1328 Tb1284 2.546 . S
O1328 C1348 1.251 . S
O1329 Tb1284 2.610 . S
O1329 Tb1295 2.362 . S
O1329 C1340 1.283 . S
O1330 Tb1295 2.421 . S
O1330 C1347 1.262 . S
O1331 Tb1284 2.320 . S
O1331 C1347 1.260 . S
O1332 Tb1284 2.552 . S
O1332 C1340 1.243 . S
O1333 Tb1284 2.413 . S
O1333 C1348 1.256 . S
O1334 Tb1295 2.546 . S
O1334 C1359 1.251 . S
O1335 Tb1284 2.362 . S
O1335 Tb1295 2.610 . S
O1335 C1351 1.283 . S
O1336 Tb1284 2.421 . S
O1336 C1358 1.262 . S
O1337 Tb1295 2.320 . S
O1337 C1358 1.260 . S
O1338 Tb1295 2.552 . S
O1338 C1351 1.243 . S
O1339 Tb1295 2.413 . S
O1339 C1359 1.256 . S
C1340 O1329 1.283 . S
C1340 O1332 1.243 . S
C1341 C1343 1.382 . S
C1341 C1345 1.393 . S
C1341 C1348 1.500 . S
C1342 C1343 1.400 . S
C1342 C1344 1.384 . S
C1343 C1341 1.382 . S
C1343 C1342 1.400 . S
C1343 H1360 0.930 . S
C1344 C1342 1.384 . S
C1344 C1346 1.392 . S
C1344 H1361 0.931 . S
C1345 C1341 1.393 . S
C1345 C1346 1.401 . S
C1345 H1362 0.930 . S
C1346 C1344 1.392 . S
C1346 C1345 1.401 . S
C1346 H1363 0.930 . S
C1347 O1330 1.262 . S
C1347 O1331 1.260 . S
C1348 Tb1284 2.833 . S
C1348 O1328 1.251 . S
C1348 O1333 1.256 . S
C1348 C1341 1.500 . S
C1349 H1314 0.929 . S
C1349 C1327 1.444 . S
C1349 C1350 1.317 . S
C1350 H1312 0.930 . S
C1350 C1318 1.432 . S
C1350 C1349 1.317 . S
C1351 O1335 1.283 . S
C1351 O1338 1.243 . S
C1352 C1353 1.382 . S
C1352 C1356 1.393 . S
C1352 C1359 1.500 . S
C1353 C1352 1.382 . S
C1353 C1354 1.400 . S
C1353 H1364 0.930 . S
C1354 C1353 1.400 . S
C1354 C1355 1.384 . S
C1355 C1354 1.384 . S
C1355 C1357 1.392 . S
C1355 H1365 0.931 . S
C1356 C1352 1.393 . S
C1356 C1357 1.401 . S
C1356 H1366 0.930 . S
C1357 C1355 1.392 . S
C1357 C1356 1.401 . S
C1357 H1367 0.930 . S
C1358 O1336 1.262 . S
C1358 O1337 1.260 . S
C1359 Tb1295 2.833 . S
C1359 O1334 1.251 . S
C1359 O1339 1.256 . S
C1359 C1352 1.500 . S
H1360 C1343 0.930 . S
H1361 C1344 0.931 . S
H1362 C1345 0.930 . S
H1363 C1346 0.930 . S
H1364 C1353 0.930 . S
H1365 C1355 0.931 . S
H1366 C1356 0.930 . S
H1367 C1357 0.930 . S
Tb1368 N1399 2.660 . S
Tb1368 N1406 2.600 . S
Tb1368 O1412 2.546 1_545 S
Tb1368 O1413 2.610 . S
Tb1368 O1415 2.320 . S
Tb1368 O1416 2.551 1_545 S
Tb1368 O1417 2.413 . S
Tb1368 O1419 2.362 . S
Tb1368 O1420 2.421 1_545 S
Tb1368 C1432 2.833 . S
C1369 C1372 1.432 . S
C1369 C1373 1.414 . S
C1369 N1376 1.359 . S
C1370 C1372 1.417 . S
C1370 C1374 1.432 . S
C1370 C1382 1.410 1_545 S
C1371 C1373 1.444 . S
C1371 C1374 1.317 . S
C1371 H1394 0.929 . S
C1372 C1369 1.432 . S
C1372 C1370 1.417 . S
C1372 N1380 1.360 . S
C1373 C1369 1.414 . S
C1373 C1371 1.444 . S
C1373 C1378 1.385 . S
C1374 C1370 1.432 . S
C1374 C1371 1.317 . S
C1374 H1386 0.930 . S
C1375 C1377 1.392 . S
C1375 C1378 1.370 . S
C1375 H1387 0.931 . S
N1376 C1369 1.359 . S
N1376 C1377 1.327 . S
N1376 Tb1379 2.600 . S
C1377 C1375 1.392 . S
C1377 N1376 1.327 . S
C1377 H1384 0.930 . S
C1378 C1373 1.385 . S
C1378 C1375 1.370 . S
C1378 H1397 0.930 . S
Tb1379 N1376 2.600 . S
Tb1379 N1380 2.660 . S
Tb1379 O1413 2.362 1_556 S
Tb1379 O1414 2.421 1_556 S
Tb1379 O1418 2.546 . S
Tb1379 O1419 2.610 1_556 S
Tb1379 O1421 2.320 . S
Tb1379 O1422 2.552 . S
Tb1379 O1423 2.413 . S
Tb1379 C1443 2.833 . S
N1380 C1372 1.360 . S
N1380 Tb1379 2.660 . S
N1380 C1381 1.305 1_545 S
C1381 N1380 1.305 1_565 S
C1381 C1383 1.407 . S
C1381 H1388 0.930 . S
C1382 C1370 1.410 1_565 S
C1382 C1383 1.345 . S
C1382 H1390 0.930 . S
C1383 C1381 1.407 . S
C1383 C1382 1.345 . S
C1383 H1385 0.930 . S
H1384 C1377 0.930 . S
H1385 C1383 0.930 . S
H1386 C1374 0.930 . S
H1387 C1375 0.931 . S
H1388 C1381 0.930 . S
H1389 C1403 0.930 . S
H1390 C1382 0.930 . S
H1391 C1409 0.930 . S
H1392 C1400 0.930 . S
H1393 C1407 0.931 . S
H1394 C1371 0.929 . S
H1395 C1401 0.930 . S
H1396 C1434 0.930 . S
H1397 C1378 0.930 . S
H1398 C1433 0.929 . S
N1399 Tb1368 2.660 . S
N1399 C1400 1.305 . S
N1399 C1404 1.360 . S
C1400 H1392 0.930 . S
C1400 N1399 1.305 . S
C1400 C1403 1.407 . S
C1401 H1395 0.930 . S
C1401 C1402 1.410 . S
C1401 C1403 1.345 . S
C1402 C1401 1.410 . S
C1402 C1404 1.417 . S
C1402 C1434 1.432 . S
C1403 H1389 0.930 . S
C1403 C1400 1.407 . S
C1403 C1401 1.345 . S
C1404 N1399 1.360 . S
C1404 C1402 1.417 . S
C1404 C1408 1.432 . S
H1405 C1410 0.930 . S
N1406 Tb1368 2.600 . S
N1406 C1408 1.359 . S
N1406 C1409 1.327 1_545 S
C1407 H1393 0.931 . S
C1407 C1409 1.392 . S
C1407 C1410 1.370 . S
C1408 C1404 1.432 . S
C1408 N1406 1.359 . S
C1408 C1411 1.414 . S
C1409 H1391 0.930 . S
C1409 N1406 1.327 1_565 S
C1409 C1407 1.392 . S
C1410 H1405 0.930 . S
C1410 C1407 1.370 . S
C1410 C1411 1.385 1_565 S
C1411 C1408 1.414 . S
C1411 C1410 1.385 1_545 S
C1411 C1433 1.444 . S
O1412 Tb1368 2.546 1_565 S
O1412 C1432 1.251 1_565 S
O1413 Tb1368 2.610 . S
O1413 Tb1379 2.362 1_554 S
O1413 C1424 1.283 . S
O1414 Tb1379 2.421 1_554 S
O1414 C1431 1.262 . S
O1415 Tb1368 2.320 . S
O1415 C1431 1.260 . S
O1416 Tb1368 2.551 1_565 S
O1416 C1424 1.236 1_565 S
O1417 Tb1368 2.413 . S
O1417 C1432 1.256 . S
O1418 Tb1379 2.546 . S
O1418 C1443 1.251 . S
O1419 Tb1368 2.362 . S
O1419 Tb1379 2.610 1_554 S
O1419 C1435 1.283 . S
O1420 Tb1368 2.421 1_565 S
O1420 C1442 1.262 1_554 S
O1421 Tb1379 2.320 . S
O1421 C1442 1.260 1_545 S
O1422 Tb1379 2.552 . S
O1422 C1435 1.243 1_556 S
O1423 Tb1379 2.413 . S
O1423 C1443 1.256 . S
C1424 O1413 1.283 . S
C1424 O1416 1.236 1_545 S
C1425 C1427 1.382 1_565 S
C1425 C1429 1.393 . S
C1425 C1432 1.500 1_565 S
C1426 C1427 1.392 1_565 S
C1426 C1428 1.407 . S
C1427 C1425 1.382 1_545 S
C1427 C1426 1.392 1_545 S
C1427 H1444 0.930 . S
C1428 C1426 1.407 . S
C1428 C1430 1.392 . S
C1428 H1445 0.931 . S
C1429 C1425 1.393 . S
C1429 C1430 1.401 . S
C1429 H1446 0.930 . S
C1430 C1428 1.392 . S
C1430 C1429 1.401 . S
C1430 H1447 0.930 . S
C1431 O1414 1.262 . S
C1431 O1415 1.260 . S
C1432 Tb1368 2.833 . S
C1432 O1412 1.251 1_545 S
C1432 O1417 1.256 . S
C1432 C1425 1.500 1_545 S
C1433 H1398 0.929 . S
C1433 C1411 1.444 . S
C1433 C1434 1.317 . S
C1434 H1396 0.930 . S
C1434 C1402 1.432 . S
C1434 C1433 1.317 . S
C1435 O1419 1.283 . S
C1435 O1422 1.243 1_554 S
C1436 C1437 1.382 . S
C1436 C1440 1.393 . S
C1436 C1443 1.500 . S
C1437 C1436 1.382 . S
C1437 C1438 1.400 . S
C1437 H1448 0.930 . S
C1438 C1437 1.400 . S
C1438 C1439 1.384 . S
C1439 C1438 1.384 . S
C1439 C1441 1.392 . S
C1439 H1449 0.931 . S
C1440 C1436 1.393 . S
C1440 C1441 1.401 . S
C1440 H1450 0.930 . S
C1441 C1439 1.392 . S
C1441 C1440 1.401 . S
C1441 H1451 0.930 . S
C1442 O1420 1.262 1_556 S
C1442 O1421 1.260 1_565 S
C1443 Tb1379 2.833 . S
C1443 O1418 1.251 . S
C1443 O1423 1.256 . S
C1443 C1436 1.500 . S
H1444 C1427 0.930 . S
H1445 C1428 0.931 . S
H1446 C1429 0.930 . S
H1447 C1430 0.930 . S
H1448 C1437 0.930 . S
H1449 C1439 0.931 . S
H1450 C1440 0.930 . S
H1451 C1441 0.930 . S
Tb1452 N1483 2.660 . S
Tb1452 N1490 2.600 . S
Tb1452 O1496 2.546 . S
Tb1452 O1497 2.610 . S
Tb1452 O1499 2.320 . S
Tb1452 O1500 2.552 . S
Tb1452 O1501 2.413 . S
Tb1452 O1503 2.362 . S
Tb1452 O1504 2.421 . S
Tb1452 C1516 2.833 . S
C1453 C1456 1.432 . S
C1453 C1457 1.414 . S
C1453 N1460 1.359 . S
C1454 C1456 1.417 . S
C1454 C1458 1.432 . S
C1454 C1466 1.410 . S
C1455 C1457 1.444 . S
C1455 C1458 1.317 . S
C1455 H1478 0.929 . S
C1456 C1453 1.432 . S
C1456 C1454 1.417 . S
C1456 N1464 1.360 . S
C1457 C1453 1.414 . S
C1457 C1455 1.444 . S
C1457 C1462 1.385 . S
C1458 C1454 1.432 . S
C1458 C1455 1.317 . S
C1458 H1470 0.930 . S
C1459 C1461 1.392 . S
C1459 C1462 1.370 . S
C1459 H1471 0.931 . S
N1460 C1453 1.359 . S
N1460 C1461 1.327 . S
N1460 Tb1463 2.600 . S
C1461 C1459 1.392 . S
C1461 N1460 1.327 . S
C1461 H1468 0.930 . S
C1462 C1457 1.385 . S
C1462 C1459 1.370 . S
C1462 H1481 0.930 . S
Tb1463 N1460 2.600 . S
Tb1463 N1464 2.660 . S
Tb1463 O1497 2.362 . S
Tb1463 O1498 2.421 . S
Tb1463 O1502 2.546 . S
Tb1463 O1503 2.610 . S
Tb1463 O1505 2.320 . S
Tb1463 O1506 2.552 . S
Tb1463 O1507 2.413 . S
Tb1463 C1527 2.833 . S
N1464 C1456 1.360 . S
N1464 Tb1463 2.660 . S
N1464 C1465 1.305 . S
C1465 N1464 1.305 . S
C1465 C1467 1.407 . S
C1465 H1472 0.930 . S
C1466 C1454 1.410 . S
C1466 C1467 1.345 . S
C1466 H1474 0.930 . S
C1467 C1465 1.407 . S
C1467 C1466 1.345 . S
C1467 H1469 0.930 . S
H1468 C1461 0.930 . S
H1469 C1467 0.930 . S
H1470 C1458 0.930 . S
H1471 C1459 0.931 . S
H1472 C1465 0.930 . S
H1473 C1487 0.930 . S
H1474 C1466 0.930 . S
H1475 C1493 0.930 . S
H1476 C1484 0.930 . S
H1477 C1491 0.931 . S
H1478 C1455 0.929 . S
H1479 C1485 0.930 . S
H1480 C1518 0.930 . S
H1481 C1462 0.930 . S
H1482 C1517 0.929 . S
N1483 Tb1452 2.660 . S
N1483 C1484 1.305 . S
N1483 C1488 1.360 . S
C1484 H1476 0.930 . S
C1484 N1483 1.305 . S
C1484 C1487 1.407 . S
C1485 H1479 0.930 . S
C1485 C1486 1.410 . S
C1485 C1487 1.345 . S
C1486 C1485 1.410 . S
C1486 C1488 1.417 . S
C1486 C1518 1.432 . S
C1487 H1473 0.930 . S
C1487 C1484 1.407 . S
C1487 C1485 1.345 . S
C1488 N1483 1.360 . S
C1488 C1486 1.417 . S
C1488 C1492 1.432 . S
H1489 C1494 0.930 . S
N1490 Tb1452 2.600 . S
N1490 C1492 1.359 . S
N1490 C1493 1.327 . S
C1491 H1477 0.931 . S
C1491 C1493 1.392 . S
C1491 C1494 1.370 . S
C1492 C1488 1.432 . S
C1492 N1490 1.359 . S
C1492 C1495 1.414 . S
C1493 H1475 0.930 . S
C1493 N1490 1.327 . S
C1493 C1491 1.392 . S
C1494 H1489 0.930 . S
C1494 C1491 1.370 . S
C1494 C1495 1.385 . S
C1495 C1492 1.414 . S
C1495 C1494 1.385 . S
C1495 C1517 1.444 . S
O1496 Tb1452 2.546 . S
O1496 C1516 1.251 . S
O1497 Tb1452 2.610 . S
O1497 Tb1463 2.362 . S
O1497 C1508 1.283 . S
O1498 Tb1463 2.421 . S
O1498 C1515 1.262 . S
O1499 Tb1452 2.320 . S
O1499 C1515 1.260 . S
O1500 Tb1452 2.552 . S
O1500 C1508 1.243 . S
O1501 Tb1452 2.413 . S
O1501 C1516 1.256 . S
O1502 Tb1463 2.546 . S
O1502 C1527 1.251 . S
O1503 Tb1452 2.362 . S
O1503 Tb1463 2.610 . S
O1503 C1519 1.283 . S
O1504 Tb1452 2.421 . S
O1504 C1526 1.262 . S
O1505 Tb1463 2.320 . S
O1505 C1526 1.260 . S
O1506 Tb1463 2.552 . S
O1506 C1519 1.243 . S
O1507 Tb1463 2.413 . S
O1507 C1527 1.256 . S
C1508 O1497 1.283 . S
C1508 O1500 1.243 . S
C1509 C1511 1.382 . S
C1509 C1513 1.393 . S
C1509 C1516 1.500 . S
C1510 C1511 1.400 . S
C1510 C1512 1.384 . S
C1511 C1509 1.382 . S
C1511 C1510 1.400 . S
C1511 H1528 0.930 . S
C1512 C1510 1.384 . S
C1512 C1514 1.392 . S
C1512 H1529 0.931 . S
C1513 C1509 1.393 . S
C1513 C1514 1.401 . S
C1513 H1530 0.930 . S
C1514 C1512 1.392 . S
C1514 C1513 1.401 . S
C1514 H1531 0.930 . S
C1515 O1498 1.262 . S
C1515 O1499 1.260 . S
C1516 Tb1452 2.833 . S
C1516 O1496 1.251 . S
C1516 O1501 1.256 . S
C1516 C1509 1.500 . S
C1517 H1482 0.929 . S
C1517 C1495 1.444 . S
C1517 C1518 1.317 . S
C1518 H1480 0.930 . S
C1518 C1486 1.432 . S
C1518 C1517 1.317 . S
C1519 O1503 1.283 . S
C1519 O1506 1.243 . S
C1520 C1521 1.382 . S
C1520 C1524 1.393 . S
C1520 C1527 1.500 . S
C1521 C1520 1.382 . S
C1521 C1522 1.400 . S
C1521 H1532 0.930 . S
C1522 C1521 1.400 . S
C1522 C1523 1.384 . S
C1523 C1522 1.384 . S
C1523 C1525 1.392 . S
C1523 H1533 0.931 . S
C1524 C1520 1.393 . S
C1524 C1525 1.401 . S
C1524 H1534 0.930 . S
C1525 C1523 1.392 . S
C1525 C1524 1.401 . S
C1525 H1535 0.930 . S
C1526 O1504 1.262 . S
C1526 O1505 1.260 . S
C1527 Tb1463 2.833 . S
C1527 O1502 1.251 . S
C1527 O1507 1.256 . S
C1527 C1520 1.500 . S
H1528 C1511 0.930 . S
H1529 C1512 0.931 . S
H1530 C1513 0.930 . S
H1531 C1514 0.930 . S
H1532 C1521 0.930 . S
H1533 C1523 0.931 . S
H1534 C1524 0.930 . S
H1535 C1525 0.930 . S
Tb1536 N1567 2.660 . S
Tb1536 N1574 2.600 . S
Tb1536 O1580 2.546 . S
Tb1536 O1581 2.610 1_554 S
Tb1536 O1583 2.320 . S
Tb1536 O1584 2.552 1_554 S
Tb1536 O1585 2.413 . S
Tb1536 O1587 2.362 . S
Tb1536 O1588 2.421 . S
Tb1536 C1600 2.833 . S
C1537 C1540 1.432 . S
C1537 C1541 1.414 . S
C1537 N1544 1.359 . S
C1538 C1540 1.417 . S
C1538 C1542 1.432 . S
C1538 C1550 1.410 . S
C1539 C1541 1.444 . S
C1539 C1542 1.317 . S
C1539 H1562 0.929 . S
C1540 C1537 1.432 . S
C1540 C1538 1.417 . S
C1540 N1548 1.360 . S
C1541 C1537 1.414 . S
C1541 C1539 1.444 . S
C1541 C1546 1.385 . S
C1542 C1538 1.432 . S
C1542 C1539 1.317 . S
C1542 H1554 0.930 . S
C1543 C1545 1.392 . S
C1543 C1546 1.370 . S
C1543 H1555 0.931 . S
N1544 C1537 1.359 . S
N1544 C1545 1.327 . S
N1544 Tb1547 2.600 1_556 S
C1545 C1543 1.392 . S
C1545 N1544 1.327 . S
C1545 H1552 0.930 . S
C1546 C1541 1.385 . S
C1546 C1543 1.370 . S
C1546 H1565 0.930 . S
Tb1547 N1544 2.600 1_554 S
Tb1547 N1548 2.660 1_554 S
Tb1547 O1581 2.362 1_554 S
Tb1547 O1582 2.421 . S
Tb1547 O1586 2.546 . S
Tb1547 O1587 2.610 . S
Tb1547 O1589 2.320 . S
Tb1547 O1590 2.552 . S
Tb1547 O1591 2.413 . S
Tb1547 C1611 2.833 . S
N1548 C1540 1.360 . S
N1548 Tb1547 2.660 1_556 S
N1548 C1549 1.305 . S
C1549 N1548 1.305 . S
C1549 C1551 1.407 . S
C1549 H1556 0.930 . S
C1550 C1538 1.410 . S
C1550 C1551 1.345 . S
C1550 H1558 0.930 . S
C1551 C1549 1.407 . S
C1551 C1550 1.345 . S
C1551 H1553 0.930 . S
H1552 C1545 0.930 . S
H1553 C1551 0.930 . S
H1554 C1542 0.930 . S
H1555 C1543 0.931 . S
H1556 C1549 0.930 . S
H1557 C1571 0.930 . S
H1558 C1550 0.930 . S
H1559 C1577 0.930 . S
H1560 C1568 0.930 . S
H1561 C1575 0.931 . S
H1562 C1539 0.929 . S
H1563 C1569 0.930 . S
H1564 C1602 0.930 . S
H1565 C1546 0.930 . S
H1566 C1601 0.929 . S
N1567 Tb1536 2.660 . S
N1567 C1568 1.305 . S
N1567 C1572 1.360 . S
C1568 H1560 0.930 . S
C1568 N1567 1.305 . S
C1568 C1571 1.407 . S
C1569 H1563 0.930 . S
C1569 C1570 1.410 . S
C1569 C1571 1.345 . S
C1570 C1569 1.410 . S
C1570 C1572 1.417 . S
C1570 C1602 1.432 . S
C1571 H1557 0.930 . S
C1571 C1568 1.407 . S
C1571 C1569 1.345 . S
C1572 N1567 1.360 . S
C1572 C1570 1.417 . S
C1572 C1576 1.432 . S
H1573 C1578 0.930 . S
N1574 Tb1536 2.600 . S
N1574 C1576 1.359 . S
N1574 C1577 1.327 . S
C1575 H1561 0.931 . S
C1575 C1577 1.392 . S
C1575 C1578 1.370 . S
C1576 C1572 1.432 . S
C1576 N1574 1.359 . S
C1576 C1579 1.414 . S
C1577 H1559 0.930 . S
C1577 N1574 1.327 . S
C1577 C1575 1.392 . S
C1578 H1573 0.930 . S
C1578 C1575 1.370 . S
C1578 C1579 1.385 . S
C1579 C1576 1.414 . S
C1579 C1578 1.385 . S
C1579 C1601 1.444 . S
O1580 Tb1536 2.546 . S
O1580 C1600 1.251 . S
O1581 Tb1536 2.610 1_556 S
O1581 Tb1547 2.362 1_556 S
O1581 C1592 1.283 . S
O1582 Tb1547 2.421 . S
O1582 C1599 1.262 . S
O1583 Tb1536 2.320 . S
O1583 C1599 1.260 . S
O1584 Tb1536 2.552 1_556 S
O1584 C1592 1.243 . S
O1585 Tb1536 2.413 . S
O1585 C1600 1.256 . S
O1586 Tb1547 2.546 . S
O1586 C1611 1.251 . S
O1587 Tb1536 2.362 . S
O1587 Tb1547 2.610 . S
O1587 C1603 1.283 . S
O1588 Tb1536 2.421 . S
O1588 C1610 1.262 . S
O1589 Tb1547 2.320 . S
O1589 C1610 1.260 . S
O1590 Tb1547 2.552 . S
O1590 C1603 1.243 . S
O1591 Tb1547 2.413 . S
O1591 C1611 1.256 . S
C1592 O1581 1.283 . S
C1592 O1584 1.243 . S
C1593 C1595 1.382 . S
C1593 C1597 1.393 . S
C1593 C1600 1.500 . S
C1594 C1595 1.400 1_556 S
C1594 C1596 1.384 1_556 S
C1595 C1593 1.382 . S
C1595 C1594 1.400 1_554 S
C1595 H1612 0.930 1_554 S
C1596 C1594 1.384 1_554 S
C1596 C1598 1.392 . S
C1596 H1613 0.930 . S
C1597 C1593 1.393 . S
C1597 C1598 1.401 . S
C1597 H1614 0.930 . S
C1598 C1596 1.392 . S
C1598 C1597 1.401 . S
C1598 H1615 0.930 . S
C1599 O1582 1.262 . S
C1599 O1583 1.260 . S
C1600 Tb1536 2.833 . S
C1600 O1580 1.251 . S
C1600 O1585 1.256 . S
C1600 C1593 1.500 . S
C1601 H1566 0.929 . S
C1601 C1579 1.444 . S
C1601 C1602 1.317 . S
C1602 H1564 0.930 . S
C1602 C1570 1.432 . S
C1602 C1601 1.317 . S
C1603 O1587 1.283 . S
C1603 O1590 1.243 . S
C1604 C1605 1.382 . S
C1604 C1608 1.393 . S
C1604 C1611 1.500 . S
C1605 C1604 1.382 . S
C1605 C1606 1.400 . S
C1605 H1616 0.930 . S
C1606 C1605 1.400 . S
C1606 C1607 1.384 . S
C1607 C1606 1.384 . S
C1607 C1609 1.392 . S
C1607 H1617 0.931 . S
C1608 C1604 1.393 . S
C1608 C1609 1.401 . S
C1608 H1618 0.930 1_554 S
C1609 C1607 1.392 . S
C1609 C1608 1.401 . S
C1609 H1619 0.930 . S
C1610 O1588 1.262 . S
C1610 O1589 1.260 . S
C1611 Tb1547 2.833 . S
C1611 O1586 1.251 . S
C1611 O1591 1.256 . S
C1611 C1604 1.500 . S
H1612 C1595 0.930 1_556 S
H1613 C1596 0.930 . S
H1614 C1597 0.930 . S
H1615 C1598 0.930 . S
H1616 C1605 0.930 . S
H1617 C1607 0.931 . S
H1618 C1608 0.930 1_556 S
H1619 C1609 0.930 . S
Tb1620 N1651 2.660 . S
Tb1620 N1658 2.600 . S
Tb1620 O1664 2.546 . S
Tb1620 O1665 2.610 . S
Tb1620 O1667 2.320 . S
Tb1620 O1668 2.552 . S
Tb1620 O1669 2.413 . S
Tb1620 O1671 2.362 . S
Tb1620 O1672 2.421 . S
Tb1620 C1684 2.833 . S
C1621 C1624 1.432 . S
C1621 C1625 1.414 . S
C1621 N1628 1.359 . S
C1622 C1624 1.417 . S
C1622 C1626 1.432 . S
C1622 C1634 1.410 . S
C1623 C1625 1.444 . S
C1623 C1626 1.317 . S
C1623 H1646 0.929 . S
C1624 C1621 1.432 . S
C1624 C1622 1.417 . S
C1624 N1632 1.360 . S
C1625 C1621 1.414 . S
C1625 C1623 1.444 . S
C1625 C1630 1.385 . S
C1626 C1622 1.432 . S
C1626 C1623 1.317 . S
C1626 H1638 0.930 . S
C1627 C1629 1.392 . S
C1627 C1630 1.370 . S
C1627 H1639 0.931 . S
N1628 C1621 1.359 . S
N1628 C1629 1.327 . S
N1628 Tb1631 2.600 . S
C1629 C1627 1.392 . S
C1629 N1628 1.327 . S
C1629 H1636 0.930 . S
C1630 C1625 1.385 . S
C1630 C1627 1.370 . S
C1630 H1649 0.930 . S
Tb1631 N1628 2.600 . S
Tb1631 N1632 2.660 . S
Tb1631 O1665 2.362 . S
Tb1631 O1666 2.421 . S
Tb1631 O1670 2.546 . S
Tb1631 O1671 2.610 . S
Tb1631 O1673 2.320 . S
Tb1631 O1674 2.552 . S
Tb1631 O1675 2.413 . S
Tb1631 C1695 2.833 . S
N1632 C1624 1.360 . S
N1632 Tb1631 2.660 . S
N1632 C1633 1.305 . S
C1633 N1632 1.305 . S
C1633 C1635 1.407 . S
C1633 H1640 0.930 . S
C1634 C1622 1.410 . S
C1634 C1635 1.345 . S
C1634 H1642 0.930 . S
C1635 C1633 1.407 . S
C1635 C1634 1.345 . S
C1635 H1637 0.930 . S
H1636 C1629 0.930 . S
H1637 C1635 0.930 . S
H1638 C1626 0.930 . S
H1639 C1627 0.931 . S
H1640 C1633 0.930 . S
H1641 C1655 0.930 . S
H1642 C1634 0.930 . S
H1643 C1661 0.930 . S
H1644 C1652 0.930 . S
H1645 C1659 0.931 . S
H1646 C1623 0.929 . S
H1647 C1653 0.930 . S
H1648 C1686 0.930 . S
H1649 C1630 0.930 . S
H1650 C1685 0.929 . S
N1651 Tb1620 2.660 . S
N1651 C1652 1.305 . S
N1651 C1656 1.360 . S
C1652 H1644 0.930 . S
C1652 N1651 1.305 . S
C1652 C1655 1.407 . S
C1653 H1647 0.930 . S
C1653 C1654 1.410 . S
C1653 C1655 1.345 . S
C1654 C1653 1.410 . S
C1654 C1656 1.417 . S
C1654 C1686 1.432 . S
C1655 H1641 0.930 . S
C1655 C1652 1.407 . S
C1655 C1653 1.345 . S
C1656 N1651 1.360 . S
C1656 C1654 1.417 . S
C1656 C1660 1.432 . S
H1657 C1662 0.930 . S
N1658 Tb1620 2.600 . S
N1658 C1660 1.359 . S
N1658 C1661 1.327 . S
C1659 H1645 0.931 . S
C1659 C1661 1.392 . S
C1659 C1662 1.370 . S
C1660 C1656 1.432 . S
C1660 N1658 1.359 . S
C1660 C1663 1.414 . S
C1661 H1643 0.930 . S
C1661 N1658 1.327 . S
C1661 C1659 1.392 . S
C1662 H1657 0.930 . S
C1662 C1659 1.370 . S
C1662 C1663 1.385 . S
C1663 C1660 1.414 . S
C1663 C1662 1.385 . S
C1663 C1685 1.444 . S
O1664 Tb1620 2.546 . S
O1664 C1684 1.251 . S
O1665 Tb1620 2.610 . S
O1665 Tb1631 2.362 . S
O1665 C1676 1.283 . S
O1666 Tb1631 2.421 . S
O1666 C1683 1.262 . S
O1667 Tb1620 2.320 . S
O1667 C1683 1.260 . S
O1668 Tb1620 2.552 . S
O1668 C1676 1.243 . S
O1669 Tb1620 2.413 . S
O1669 C1684 1.256 . S
O1670 Tb1631 2.546 . S
O1670 C1695 1.251 . S
O1671 Tb1620 2.362 . S
O1671 Tb1631 2.610 . S
O1671 C1687 1.283 . S
O1672 Tb1620 2.421 . S
O1672 C1694 1.262 . S
O1673 Tb1631 2.320 . S
O1673 C1694 1.260 . S
O1674 Tb1631 2.552 . S
O1674 C1687 1.243 . S
O1675 Tb1631 2.413 . S
O1675 C1695 1.256 . S
C1676 O1665 1.283 . S
C1676 O1668 1.243 . S
C1677 C1679 1.382 . S
C1677 C1681 1.393 . S
C1677 C1684 1.500 . S
C1678 C1679 1.400 1_455 S
C1678 C1680 1.384 . S
C1679 C1677 1.382 . S
C1679 C1678 1.400 1_655 S
C1679 H1696 0.930 . S
C1680 C1678 1.384 . S
C1680 C1682 1.392 . S
C1680 H1697 0.931 . S
C1681 C1677 1.393 . S
C1681 C1682 1.401 1_655 S
C1681 H1698 0.930 . S
C1682 C1680 1.392 . S
C1682 C1681 1.401 1_455 S
C1682 H1699 0.930 . S
C1683 O1666 1.262 . S
C1683 O1667 1.260 . S
C1684 Tb1620 2.833 . S
C1684 O1664 1.251 . S
C1684 O1669 1.256 . S
C1684 C1677 1.500 . S
C1685 H1650 0.929 . S
C1685 C1663 1.444 . S
C1685 C1686 1.317 . S
C1686 H1648 0.930 . S
C1686 C1654 1.432 . S
C1686 C1685 1.317 . S
C1687 O1671 1.283 . S
C1687 O1674 1.243 . S
C1688 C1689 1.382 . S
C1688 C1692 1.393 . S
C1688 C1695 1.500 . S
C1689 C1688 1.382 . S
C1689 C1690 1.400 . S
C1689 H1700 0.930 . S
C1690 C1689 1.400 . S
C1690 C1691 1.384 . S
C1691 C1690 1.384 . S
C1691 C1693 1.392 . S
C1691 H1701 0.931 . S
C1692 C1688 1.393 . S
C1692 C1693 1.401 . S
C1692 H1702 0.930 . S
C1693 C1691 1.392 . S
C1693 C1692 1.401 . S
C1693 H1703 0.930 . S
C1694 O1672 1.262 . S
C1694 O1673 1.260 . S
C1695 Tb1631 2.833 . S
C1695 O1670 1.251 . S
C1695 O1675 1.256 . S
C1695 C1688 1.500 . S
H1696 C1679 0.930 . S
H1697 C1680 0.931 . S
H1698 C1681 0.930 . S
H1699 C1682 0.930 . S
H1700 C1689 0.930 . S
H1701 C1691 0.931 . S
H1702 C1692 0.930 . S
H1703 C1693 0.930 . S
Tb1704 N1735 2.660 . S
Tb1704 N1742 2.600 . S
Tb1704 O1748 2.546 . S
Tb1704 O1749 2.610 . S
Tb1704 O1751 2.320 . S
Tb1704 O1752 2.552 . S
Tb1704 O1753 2.413 . S
Tb1704 O1755 2.362 . S
Tb1704 O1756 2.421 . S
Tb1704 C1768 2.833 . S
C1705 C1708 1.432 . S
C1705 C1709 1.414 1_455 S
C1705 N1712 1.359 . S
C1706 C1708 1.417 1_655 S
C1706 C1710 1.432 . S
C1706 C1718 1.410 . S
C1707 C1709 1.444 . S
C1707 C1710 1.317 . S
C1707 H1730 0.929 . S
C1708 C1705 1.432 . S
C1708 C1706 1.417 1_455 S
C1708 N1716 1.360 . S
C1709 C1705 1.414 1_655 S
C1709 C1707 1.444 . S
C1709 C1714 1.385 . S
C1710 C1706 1.432 . S
C1710 C1707 1.317 . S
C1710 H1722 0.930 . S
C1711 C1713 1.392 . S
C1711 C1714 1.370 1_455 S
C1711 H1723 0.931 . S
N1712 C1705 1.359 . S
N1712 C1713 1.327 . S
N1712 Tb1715 2.600 . S
C1713 C1711 1.392 . S
C1713 N1712 1.327 . S
C1713 H1720 0.930 . S
C1714 C1709 1.385 . S
C1714 C1711 1.370 1_655 S
C1714 H1733 0.930 . S
Tb1715 N1712 2.600 . S
Tb1715 N1716 2.660 . S
Tb1715 O1749 2.362 . S
Tb1715 O1750 2.421 . S
Tb1715 O1754 2.546 . S
Tb1715 O1755 2.610 . S
Tb1715 O1757 2.320 . S
Tb1715 O1758 2.552 . S
Tb1715 O1759 2.413 . S
Tb1715 C1779 2.833 . S
N1716 C1708 1.360 . S
N1716 Tb1715 2.660 . S
N1716 C1717 1.305 . S
C1717 N1716 1.305 . S
C1717 C1719 1.407 1_455 S
C1717 H1724 0.930 . S
C1718 C1706 1.410 . S
C1718 C1719 1.345 . S
C1718 H1726 0.930 . S
C1719 C1717 1.407 1_655 S
C1719 C1718 1.345 . S
C1719 H1721 0.930 . S
H1720 C1713 0.930 . S
H1721 C1719 0.930 . S
H1722 C1710 0.930 . S
H1723 C1711 0.931 . S
H1724 C1717 0.930 . S
H1725 C1739 0.930 . S
H1726 C1718 0.930 . S
H1727 C1745 0.930 . S
H1728 C1736 0.930 . S
H1729 C1743 0.931 . S
H1730 C1707 0.929 . S
H1731 C1737 0.930 . S
H1732 C1770 0.930 . S
H1733 C1714 0.930 . S
H1734 C1769 0.929 . S
N1735 Tb1704 2.660 . S
N1735 C1736 1.305 . S
N1735 C1740 1.360 . S
C1736 H1728 0.930 . S
C1736 N1735 1.305 . S
C1736 C1739 1.407 . S
C1737 H1731 0.930 . S
C1737 C1738 1.410 . S
C1737 C1739 1.345 . S
C1738 C1737 1.410 . S
C1738 C1740 1.417 . S
C1738 C1770 1.432 . S
C1739 H1725 0.930 . S
C1739 C1736 1.407 . S
C1739 C1737 1.345 . S
C1740 N1735 1.360 . S
C1740 C1738 1.417 . S
C1740 C1744 1.432 . S
H1741 C1746 0.930 . S
N1742 Tb1704 2.600 . S
N1742 C1744 1.359 . S
N1742 C1745 1.327 . S
C1743 H1729 0.931 . S
C1743 C1745 1.392 . S
C1743 C1746 1.370 . S
C1744 C1740 1.432 . S
C1744 N1742 1.359 . S
C1744 C1747 1.414 . S
C1745 H1727 0.930 . S
C1745 N1742 1.327 . S
C1745 C1743 1.392 . S
C1746 H1741 0.930 . S
C1746 C1743 1.370 . S
C1746 C1747 1.385 . S
C1747 C1744 1.414 . S
C1747 C1746 1.385 . S
C1747 C1769 1.444 . S
O1748 Tb1704 2.546 . S
O1748 C1768 1.251 . S
O1749 Tb1704 2.610 . S
O1749 Tb1715 2.362 . S
O1749 C1760 1.283 . S
O1750 Tb1715 2.421 . S
O1750 C1767 1.262 . S
O1751 Tb1704 2.320 . S
O1751 C1767 1.260 . S
O1752 Tb1704 2.552 . S
O1752 C1760 1.243 . S
O1753 Tb1704 2.413 . S
O1753 C1768 1.256 . S
O1754 Tb1715 2.546 . S
O1754 C1779 1.251 . S
O1755 Tb1704 2.362 . S
O1755 Tb1715 2.610 . S
O1755 C1771 1.283 . S
O1756 Tb1704 2.421 . S
O1756 C1778 1.262 . S
O1757 Tb1715 2.320 . S
O1757 C1778 1.260 . S
O1758 Tb1715 2.552 . S
O1758 C1771 1.243 . S
O1759 Tb1715 2.413 . S
O1759 C1779 1.256 . S
C1760 O1749 1.283 . S
C1760 O1752 1.243 . S
C1761 C1763 1.382 . S
C1761 C1765 1.393 . S
C1761 C1768 1.500 . S
C1762 C1763 1.400 . S
C1762 C1764 1.384 . S
C1763 C1761 1.382 . S
C1763 C1762 1.400 . S
C1763 H1780 0.930 . S
C1764 C1762 1.384 . S
C1764 C1766 1.392 . S
C1764 H1781 0.931 . S
C1765 C1761 1.393 . S
C1765 C1766 1.401 . S
C1765 H1782 0.930 . S
C1766 C1764 1.392 . S
C1766 C1765 1.401 . S
C1766 H1783 0.930 . S
C1767 O1750 1.262 . S
C1767 O1751 1.260 . S
C1768 Tb1704 2.833 . S
C1768 O1748 1.251 . S
C1768 O1753 1.256 . S
C1768 C1761 1.500 . S
C1769 H1734 0.929 . S
C1769 C1747 1.444 . S
C1769 C1770 1.317 . S
C1770 H1732 0.930 . S
C1770 C1738 1.432 . S
C1770 C1769 1.317 . S
C1771 O1755 1.283 . S
C1771 O1758 1.243 . S
C1772 C1773 1.382 . S
C1772 C1776 1.393 . S
C1772 C1779 1.500 . S
C1773 C1772 1.382 . S
C1773 C1774 1.400 . S
C1773 H1784 0.930 . S
C1774 C1773 1.400 . S
C1774 C1775 1.384 . S
C1775 C1774 1.384 . S
C1775 C1777 1.392 . S
C1775 H1785 0.931 . S
C1776 C1772 1.393 . S
C1776 C1777 1.401 . S
C1776 H1786 0.930 . S
C1777 C1775 1.392 . S
C1777 C1776 1.401 . S
C1777 H1787 0.930 . S
C1778 O1756 1.262 . S
C1778 O1757 1.260 . S
C1779 Tb1715 2.833 . S
C1779 O1754 1.251 . S
C1779 O1759 1.256 . S
C1779 C1772 1.500 . S
H1780 C1763 0.930 . S
H1781 C1764 0.931 . S
H1782 C1765 0.930 . S
H1783 C1766 0.930 . S
H1784 C1773 0.930 . S
H1785 C1775 0.931 . S
H1786 C1776 0.930 . S
H1787 C1777 0.930 . S
Tb1788 N1819 2.660 . S
Tb1788 N1826 2.600 . S
Tb1788 O1832 2.546 . S
Tb1788 O1833 2.610 . S
Tb1788 O1835 2.320 . S
Tb1788 O1836 2.552 . S
Tb1788 O1837 2.413 . S
Tb1788 O1839 2.362 . S
Tb1788 O1840 2.421 . S
Tb1788 C1852 2.833 . S
C1789 C1792 1.432 . S
C1789 C1793 1.414 . S
C1789 N1796 1.359 . S
C1790 C1792 1.417 . S
C1790 C1794 1.432 . S
C1790 C1802 1.410 . S
C1791 C1793 1.444 . S
C1791 C1794 1.317 . S
C1791 H1814 0.929 . S
C1792 C1789 1.432 . S
C1792 C1790 1.417 . S
C1792 N1800 1.360 . S
C1793 C1789 1.414 . S
C1793 C1791 1.444 . S
C1793 C1798 1.385 . S
C1794 C1790 1.432 . S
C1794 C1791 1.317 . S
C1794 H1806 0.930 . S
C1795 C1797 1.392 . S
C1795 C1798 1.370 . S
C1795 H1807 0.931 . S
N1796 C1789 1.359 . S
N1796 C1797 1.327 . S
N1796 Tb1799 2.600 . S
C1797 C1795 1.392 . S
C1797 N1796 1.327 . S
C1797 H1804 0.930 . S
C1798 C1793 1.385 . S
C1798 C1795 1.370 . S
C1798 H1817 0.930 . S
Tb1799 N1796 2.600 . S
Tb1799 N1800 2.660 . S
Tb1799 O1833 2.362 . S
Tb1799 O1834 2.421 . S
Tb1799 O1838 2.546 . S
Tb1799 O1839 2.610 . S
Tb1799 O1841 2.320 . S
Tb1799 O1842 2.552 . S
Tb1799 O1843 2.413 . S
Tb1799 C1863 2.833 . S
N1800 C1792 1.360 . S
N1800 Tb1799 2.660 . S
N1800 C1801 1.305 . S
C1801 N1800 1.305 . S
C1801 C1803 1.407 . S
C1801 H1808 0.930 . S
C1802 C1790 1.410 . S
C1802 C1803 1.345 . S
C1802 H1810 0.930 . S
C1803 C1801 1.407 . S
C1803 C1802 1.345 . S
C1803 H1805 0.930 . S
H1804 C1797 0.930 . S
H1805 C1803 0.930 . S
H1806 C1794 0.930 . S
H1807 C1795 0.931 . S
H1808 C1801 0.930 . S
H1809 C1823 0.930 . S
H1810 C1802 0.930 . S
H1811 C1829 0.930 . S
H1812 C1820 0.930 . S
H1813 C1827 0.931 . S
H1814 C1791 0.929 . S
H1815 C1821 0.930 . S
H1816 C1854 0.930 . S
H1817 C1798 0.930 . S
H1818 C1853 0.929 . S
N1819 Tb1788 2.660 . S
N1819 C1820 1.305 . S
N1819 C1824 1.360 . S
C1820 H1812 0.930 . S
C1820 N1819 1.305 . S
C1820 C1823 1.407 . S
C1821 H1815 0.930 . S
C1821 C1822 1.410 . S
C1821 C1823 1.345 . S
C1822 C1821 1.410 . S
C1822 C1824 1.417 . S
C1822 C1854 1.432 . S
C1823 H1809 0.930 . S
C1823 C1820 1.407 . S
C1823 C1821 1.345 . S
C1824 N1819 1.360 . S
C1824 C1822 1.417 . S
C1824 C1828 1.432 . S
H1825 C1830 0.930 . S
N1826 Tb1788 2.600 . S
N1826 C1828 1.359 . S
N1826 C1829 1.327 . S
C1827 H1813 0.931 . S
C1827 C1829 1.392 . S
C1827 C1830 1.370 . S
C1828 C1824 1.432 . S
C1828 N1826 1.359 . S
C1828 C1831 1.414 . S
C1829 H1811 0.930 . S
C1829 N1826 1.327 . S
C1829 C1827 1.392 . S
C1830 H1825 0.930 . S
C1830 C1827 1.370 . S
C1830 C1831 1.385 . S
C1831 C1828 1.414 . S
C1831 C1830 1.385 . S
C1831 C1853 1.444 . S
O1832 Tb1788 2.546 . S
O1832 C1852 1.251 . S
O1833 Tb1788 2.610 . S
O1833 Tb1799 2.362 . S
O1833 C1844 1.283 . S
O1834 Tb1799 2.421 . S
O1834 C1851 1.262 . S
O1835 Tb1788 2.320 . S
O1835 C1851 1.260 . S
O1836 Tb1788 2.552 . S
O1836 C1844 1.243 . S
O1837 Tb1788 2.413 . S
O1837 C1852 1.256 . S
O1838 Tb1799 2.546 . S
O1838 C1863 1.251 . S
O1839 Tb1788 2.362 . S
O1839 Tb1799 2.610 . S
O1839 C1855 1.283 . S
O1840 Tb1788 2.421 . S
O1840 C1862 1.262 . S
O1841 Tb1799 2.320 . S
O1841 C1862 1.260 . S
O1842 Tb1799 2.552 . S
O1842 C1855 1.243 . S
O1843 Tb1799 2.413 . S
O1843 C1863 1.256 . S
C1844 O1833 1.283 . S
C1844 O1836 1.243 . S
C1845 C1847 1.382 . S
C1845 C1849 1.393 . S
C1845 C1852 1.500 . S
C1846 C1847 1.400 . S
C1846 C1848 1.384 . S
C1847 C1845 1.382 . S
C1847 C1846 1.400 . S
C1847 H1864 0.930 . S
C1848 C1846 1.384 . S
C1848 C1850 1.392 . S
C1848 H1865 0.931 . S
C1849 C1845 1.393 . S
C1849 C1850 1.401 . S
C1849 H1866 0.930 . S
C1850 C1848 1.392 . S
C1850 C1849 1.401 . S
C1850 H1867 0.930 . S
C1851 O1834 1.262 . S
C1851 O1835 1.260 . S
C1852 Tb1788 2.833 . S
C1852 O1832 1.251 . S
C1852 O1837 1.256 . S
C1852 C1845 1.500 . S
C1853 H1818 0.929 . S
C1853 C1831 1.444 . S
C1853 C1854 1.317 . S
C1854 H1816 0.930 . S
C1854 C1822 1.432 . S
C1854 C1853 1.317 . S
C1855 O1839 1.283 . S
C1855 O1842 1.243 . S
C1856 C1857 1.382 . S
C1856 C1860 1.393 . S
C1856 C1863 1.500 . S
C1857 C1856 1.382 . S
C1857 C1858 1.400 . S
C1857 H1868 0.930 . S
C1858 C1857 1.400 . S
C1858 C1859 1.384 . S
C1859 C1858 1.384 . S
C1859 C1861 1.392 . S
C1859 H1869 0.901 1_655 S
C1860 C1856 1.393 . S
C1860 C1861 1.401 . S
C1860 H1870 0.930 . S
C1861 C1859 1.392 . S
C1861 C1860 1.401 . S
C1861 H1871 0.930 . S
C1862 O1840 1.262 . S
C1862 O1841 1.260 . S
C1863 Tb1799 2.833 . S
C1863 O1838 1.251 . S
C1863 O1843 1.256 . S
C1863 C1856 1.500 . S
H1864 C1847 0.930 . S
H1865 C1848 0.931 . S
H1866 C1849 0.930 . S
H1867 C1850 0.930 . S
H1868 C1857 0.930 . S
H1869 C1859 0.901 1_455 S
H1870 C1860 0.930 . S
H1871 C1861 0.930 . S
Tb1872 N1903 2.660 . S
Tb1872 N1910 2.600 . S
Tb1872 O1916 2.546 . S
Tb1872 O1917 2.610 . S
Tb1872 O1919 2.320 . S
Tb1872 O1920 2.552 . S
Tb1872 O1921 2.413 . S
Tb1872 O1923 2.362 . S
Tb1872 O1924 2.421 . S
Tb1872 C1936 2.833 . S
C1873 C1876 1.432 . S
C1873 C1877 1.414 . S
C1873 N1880 1.359 . S
C1874 C1876 1.417 . S
C1874 C1878 1.432 . S
C1874 C1886 1.410 . S
C1875 C1877 1.444 . S
C1875 C1878 1.317 . S
C1875 H1898 0.929 . S
C1876 C1873 1.432 . S
C1876 C1874 1.417 . S
C1876 N1884 1.360 . S
C1877 C1873 1.414 . S
C1877 C1875 1.444 . S
C1877 C1882 1.385 . S
C1878 C1874 1.432 . S
C1878 C1875 1.317 . S
C1878 H1890 0.930 . S
C1879 C1881 1.392 . S
C1879 C1882 1.370 . S
C1879 H1891 0.931 . S
N1880 C1873 1.359 . S
N1880 C1881 1.327 . S
N1880 Tb1883 2.600 . S
C1881 C1879 1.392 . S
C1881 N1880 1.327 . S
C1881 H1888 0.930 . S
C1882 C1877 1.385 . S
C1882 C1879 1.370 . S
C1882 H1901 0.930 . S
Tb1883 N1880 2.600 . S
Tb1883 N1884 2.660 . S
Tb1883 O1917 2.362 . S
Tb1883 O1918 2.421 . S
Tb1883 O1922 2.546 . S
Tb1883 O1923 2.610 . S
Tb1883 O1925 2.320 . S
Tb1883 O1926 2.552 . S
Tb1883 O1927 2.413 . S
Tb1883 C1947 2.833 . S
N1884 C1876 1.360 . S
N1884 Tb1883 2.660 . S
N1884 C1885 1.305 . S
C1885 N1884 1.305 . S
C1885 C1887 1.407 . S
C1885 H1892 0.930 . S
C1886 C1874 1.410 . S
C1886 C1887 1.345 . S
C1886 H1894 0.930 . S
C1887 C1885 1.407 . S
C1887 C1886 1.345 . S
C1887 H1889 0.930 . S
H1888 C1881 0.930 . S
H1889 C1887 0.930 . S
H1890 C1878 0.930 . S
H1891 C1879 0.931 . S
H1892 C1885 0.930 . S
H1893 C1907 0.930 . S
H1894 C1886 0.930 . S
H1895 C1913 0.930 . S
H1896 C1904 0.930 . S
H1897 C1911 0.931 . S
H1898 C1875 0.929 . S
H1899 C1905 0.930 . S
H1900 C1938 0.930 . S
H1901 C1882 0.930 . S
H1902 C1937 0.929 . S
N1903 Tb1872 2.660 . S
N1903 C1904 1.305 . S
N1903 C1908 1.360 . S
C1904 H1896 0.930 . S
C1904 N1903 1.305 . S
C1904 C1907 1.407 . S
C1905 H1899 0.930 . S
C1905 C1906 1.410 . S
C1905 C1907 1.345 . S
C1906 C1905 1.410 . S
C1906 C1908 1.417 . S
C1906 C1938 1.432 . S
C1907 H1893 0.930 . S
C1907 C1904 1.407 . S
C1907 C1905 1.345 . S
C1908 N1903 1.360 . S
C1908 C1906 1.417 . S
C1908 C1912 1.432 . S
H1909 C1914 0.930 . S
N1910 Tb1872 2.600 . S
N1910 C1912 1.359 . S
N1910 C1913 1.327 . S
C1911 H1897 0.931 . S
C1911 C1913 1.392 . S
C1911 C1914 1.370 . S
C1912 C1908 1.432 . S
C1912 N1910 1.359 . S
C1912 C1915 1.414 . S
C1913 H1895 0.930 . S
C1913 N1910 1.327 . S
C1913 C1911 1.392 . S
C1914 H1909 0.930 . S
C1914 C1911 1.370 . S
C1914 C1915 1.385 . S
C1915 C1912 1.414 . S
C1915 C1914 1.385 . S
C1915 C1937 1.444 . S
O1916 Tb1872 2.546 . S
O1916 C1936 1.251 . S
O1917 Tb1872 2.610 . S
O1917 Tb1883 2.362 . S
O1917 C1928 1.283 . S
O1918 Tb1883 2.421 . S
O1918 C1935 1.262 . S
O1919 Tb1872 2.320 . S
O1919 C1935 1.260 . S
O1920 Tb1872 2.552 . S
O1920 C1928 1.243 . S
O1921 Tb1872 2.413 . S
O1921 C1936 1.256 . S
O1922 Tb1883 2.546 . S
O1922 C1947 1.251 . S
O1923 Tb1872 2.362 . S
O1923 Tb1883 2.610 . S
O1923 C1939 1.283 . S
O1924 Tb1872 2.421 . S
O1924 C1946 1.262 . S
O1925 Tb1883 2.320 . S
O1925 C1946 1.260 . S
O1926 Tb1883 2.552 . S
O1926 C1939 1.243 . S
O1927 Tb1883 2.413 . S
O1927 C1947 1.256 . S
C1928 O1917 1.283 . S
C1928 O1920 1.243 . S
C1929 C1931 1.382 . S
C1929 C1933 1.393 . S
C1929 C1936 1.500 . S
C1930 C1931 1.400 . S
C1930 C1932 1.384 . S
C1931 C1929 1.382 . S
C1931 C1930 1.400 . S
C1931 H1948 0.930 . S
C1932 C1930 1.384 . S
C1932 C1934 1.392 . S
C1932 H1949 0.931 . S
C1933 C1929 1.393 . S
C1933 C1934 1.401 . S
C1933 H1950 0.930 . S
C1934 C1932 1.392 . S
C1934 C1933 1.401 . S
C1934 H1951 0.930 . S
C1935 O1918 1.262 . S
C1935 O1919 1.260 . S
C1936 Tb1872 2.833 . S
C1936 O1916 1.251 . S
C1936 O1921 1.256 . S
C1936 C1929 1.500 . S
C1937 H1902 0.929 . S
C1937 C1915 1.444 . S
C1937 C1938 1.317 . S
C1938 H1900 0.930 . S
C1938 C1906 1.432 . S
C1938 C1937 1.317 . S
C1939 O1923 1.283 . S
C1939 O1926 1.243 . S
C1940 C1941 1.382 . S
C1940 C1944 1.393 . S
C1940 C1947 1.500 . S
C1941 C1940 1.382 . S
C1941 C1942 1.400 . S
C1941 H1952 0.930 . S
C1942 C1941 1.400 . S
C1942 C1943 1.384 . S
C1943 C1942 1.384 . S
C1943 C1945 1.392 . S
C1943 H1953 0.931 . S
C1944 C1940 1.393 . S
C1944 C1945 1.401 . S
C1944 H1954 0.930 . S
C1945 C1943 1.392 . S
C1945 C1944 1.401 . S
C1945 H1955 0.930 . S
C1946 O1924 1.262 . S
C1946 O1925 1.260 . S
C1947 Tb1883 2.833 . S
C1947 O1922 1.251 . S
C1947 O1927 1.256 . S
C1947 C1940 1.500 . S
H1948 C1931 0.930 . S
H1949 C1932 0.931 . S
H1950 C1933 0.930 . S
H1951 C1934 0.930 . S
H1952 C1941 0.930 . S
H1953 C1943 0.931 . S
H1954 C1944 0.930 . S
H1955 C1945 0.930 . S
Tb1956 N1987 2.660 . S
Tb1956 N1994 2.600 . S
Tb1956 O2000 2.546 . S
Tb1956 O2001 2.610 . S
Tb1956 O2003 2.320 . S
Tb1956 O2004 2.552 . S
Tb1956 O2005 2.413 . S
Tb1956 O2007 2.362 . S
Tb1956 O2008 2.421 . S
Tb1956 C2020 2.833 . S
C1957 C1960 1.432 . S
C1957 C1961 1.414 . S
C1957 N1964 1.359 . S
C1958 C1960 1.417 . S
C1958 C1962 1.432 . S
C1958 C1970 1.410 . S
C1959 C1961 1.444 . S
C1959 C1962 1.317 . S
C1959 H1982 0.929 . S
C1960 C1957 1.432 . S
C1960 C1958 1.417 . S
C1960 N1968 1.360 . S
C1961 C1957 1.414 . S
C1961 C1959 1.444 . S
C1961 C1966 1.385 . S
C1962 C1958 1.432 . S
C1962 C1959 1.317 . S
C1962 H1974 0.930 . S
C1963 C1965 1.392 . S
C1963 C1966 1.370 . S
C1963 H1975 0.931 . S
N1964 C1957 1.359 . S
N1964 C1965 1.327 . S
N1964 Tb1967 2.600 . S
C1965 C1963 1.392 . S
C1965 N1964 1.327 . S
C1965 H1972 0.930 . S
C1966 C1961 1.385 . S
C1966 C1963 1.370 . S
C1966 H1985 0.930 . S
Tb1967 N1964 2.600 . S
Tb1967 N1968 2.660 . S
Tb1967 O2001 2.362 . S
Tb1967 O2002 2.421 . S
Tb1967 O2006 2.546 . S
Tb1967 O2007 2.610 . S
Tb1967 O2009 2.320 . S
Tb1967 O2010 2.552 . S
Tb1967 O2011 2.413 . S
Tb1967 C2031 2.833 . S
N1968 C1960 1.360 . S
N1968 Tb1967 2.660 . S
N1968 C1969 1.305 . S
C1969 N1968 1.305 . S
C1969 C1971 1.407 . S
C1969 H1976 0.930 . S
C1970 C1958 1.410 . S
C1970 C1971 1.345 . S
C1970 H1978 0.930 . S
C1971 C1969 1.407 . S
C1971 C1970 1.345 . S
C1971 H1973 0.930 . S
H1972 C1965 0.930 . S
H1973 C1971 0.930 . S
H1974 C1962 0.930 . S
H1975 C1963 0.931 . S
H1976 C1969 0.930 . S
H1977 C1991 0.930 . S
H1978 C1970 0.930 . S
H1979 C1997 0.930 . S
H1980 C1988 0.930 . S
H1981 C1995 0.931 . S
H1982 C1959 0.929 . S
H1983 C1989 0.930 . S
H1984 C2022 0.930 . S
H1985 C1966 0.930 . S
H1986 C2021 0.929 . S
N1987 Tb1956 2.660 . S
N1987 C1988 1.305 . S
N1987 C1992 1.360 . S
C1988 H1980 0.930 . S
C1988 N1987 1.305 . S
C1988 C1991 1.407 . S
C1989 H1983 0.930 . S
C1989 C1990 1.410 . S
C1989 C1991 1.345 . S
C1990 C1989 1.410 . S
C1990 C1992 1.417 . S
C1990 C2022 1.432 . S
C1991 H1977 0.930 . S
C1991 C1988 1.407 . S
C1991 C1989 1.345 . S
C1992 N1987 1.360 . S
C1992 C1990 1.417 . S
C1992 C1996 1.432 . S
H1993 C1998 0.930 . S
N1994 Tb1956 2.600 . S
N1994 C1996 1.359 . S
N1994 C1997 1.327 . S
C1995 H1981 0.931 . S
C1995 C1997 1.392 . S
C1995 C1998 1.370 . S
C1996 C1992 1.432 . S
C1996 N1994 1.359 . S
C1996 C1999 1.414 . S
C1997 H1979 0.930 . S
C1997 N1994 1.327 . S
C1997 C1995 1.392 . S
C1998 H1993 0.930 . S
C1998 C1995 1.370 . S
C1998 C1999 1.385 . S
C1999 C1996 1.414 . S
C1999 C1998 1.385 . S
C1999 C2021 1.444 . S
O2000 Tb1956 2.546 . S
O2000 C2020 1.251 . S
O2001 Tb1956 2.610 . S
O2001 Tb1967 2.362 . S
O2001 C2012 1.283 . S
O2002 Tb1967 2.421 . S
O2002 C2019 1.262 . S
O2003 Tb1956 2.320 . S
O2003 C2019 1.260 . S
O2004 Tb1956 2.552 . S
O2004 C2012 1.243 . S
O2005 Tb1956 2.413 . S
O2005 C2020 1.256 . S
O2006 Tb1967 2.546 . S
O2006 C2031 1.251 . S
O2007 Tb1956 2.362 . S
O2007 Tb1967 2.610 . S
O2007 C2023 1.283 . S
O2008 Tb1956 2.421 . S
O2008 C2030 1.262 . S
O2009 Tb1967 2.320 . S
O2009 C2030 1.260 . S
O2010 Tb1967 2.552 . S
O2010 C2023 1.243 . S
O2011 Tb1967 2.413 . S
O2011 C2031 1.256 . S
C2012 O2001 1.283 . S
C2012 O2004 1.243 . S
C2013 C2015 1.382 . S
C2013 C2017 1.393 . S
C2013 C2020 1.500 . S
C2014 C2015 1.400 . S
C2014 C2016 1.399 . S
C2015 C2013 1.382 . S
C2015 C2014 1.400 . S
C2015 H2032 0.930 . S
C2016 C2014 1.399 . S
C2016 C2018 1.412 . S
C2016 H2033 0.897 1_565 S
C2017 C2013 1.393 . S
C2017 C2018 1.401 . S
C2017 H2034 0.930 . S
C2018 C2016 1.412 . S
C2018 C2017 1.401 . S
C2018 H2035 0.930 1_565 S
C2019 O2002 1.262 . S
C2019 O2003 1.260 . S
C2020 Tb1956 2.833 . S
C2020 O2000 1.251 . S
C2020 O2005 1.256 . S
C2020 C2013 1.500 . S
C2021 H1986 0.929 . S
C2021 C1999 1.444 . S
C2021 C2022 1.317 . S
C2022 H1984 0.930 . S
C2022 C1990 1.432 . S
C2022 C2021 1.317 . S
C2023 O2007 1.283 . S
C2023 O2010 1.243 . S
C2024 C2025 1.382 . S
C2024 C2028 1.393 . S
C2024 C2031 1.500 . S
C2025 C2024 1.382 . S
C2025 C2026 1.400 . S
C2025 H2036 0.930 . S
C2026 C2025 1.400 . S
C2026 C2027 1.384 . S
C2027 C2026 1.384 . S
C2027 C2029 1.392 . S
C2027 H2037 0.931 . S
C2028 C2024 1.393 . S
C2028 C2029 1.401 . S
C2028 H2038 0.930 . S
C2029 C2027 1.392 . S
C2029 C2028 1.401 . S
C2029 H2039 0.930 . S
C2030 O2008 1.262 . S
C2030 O2009 1.260 . S
C2031 Tb1967 2.833 . S
C2031 O2006 1.251 . S
C2031 O2011 1.256 . S
C2031 C2024 1.500 . S
H2032 C2015 0.930 . S
H2033 C2016 0.897 1_545 S
H2034 C2017 0.930 . S
H2035 C2018 0.930 1_545 S
H2036 C2025 0.930 . S
H2037 C2027 0.931 . S
H2038 C2028 0.930 . S
H2039 C2029 0.930 . S
Tb2040 N2071 2.660 . S
Tb2040 N2078 2.600 . S
Tb2040 O2084 2.546 . S
Tb2040 O2085 2.610 . S
Tb2040 O2087 2.320 . S
Tb2040 O2088 2.552 . S
Tb2040 O2089 2.413 . S
Tb2040 O2091 2.362 . S
Tb2040 O2092 2.421 . S
Tb2040 C2104 2.833 . S
C2041 C2044 1.432 . S
C2041 C2045 1.414 . S
C2041 N2048 1.359 . S
C2042 C2044 1.417 . S
C2042 C2046 1.432 . S
C2042 C2054 1.410 . S
C2043 C2045 1.444 . S
C2043 C2046 1.317 . S
C2043 H2066 0.929 . S
C2044 C2041 1.432 . S
C2044 C2042 1.417 . S
C2044 N2052 1.360 . S
C2045 C2041 1.414 . S
C2045 C2043 1.444 . S
C2045 C2050 1.385 . S
C2046 C2042 1.432 . S
C2046 C2043 1.317 . S
C2046 H2058 0.930 . S
C2047 C2049 1.392 . S
C2047 C2050 1.370 . S
C2047 H2059 0.931 . S
N2048 C2041 1.359 . S
N2048 C2049 1.327 . S
N2048 Tb2051 2.600 . S
C2049 C2047 1.392 . S
C2049 N2048 1.327 . S
C2049 H2056 0.930 . S
C2050 C2045 1.385 . S
C2050 C2047 1.370 . S
C2050 H2069 0.930 . S
Tb2051 N2048 2.600 . S
Tb2051 N2052 2.660 . S
Tb2051 O2085 2.362 . S
Tb2051 O2086 2.421 . S
Tb2051 O2090 2.546 . S
Tb2051 O2091 2.610 . S
Tb2051 O2093 2.320 . S
Tb2051 O2094 2.552 . S
Tb2051 O2095 2.413 . S
Tb2051 C2115 2.833 . S
N2052 C2044 1.360 . S
N2052 Tb2051 2.660 . S
N2052 C2053 1.305 . S
C2053 N2052 1.305 . S
C2053 C2055 1.407 . S
C2053 H2060 0.930 . S
C2054 C2042 1.410 . S
C2054 C2055 1.345 . S
C2054 H2062 0.930 . S
C2055 C2053 1.407 . S
C2055 C2054 1.345 . S
C2055 H2057 0.930 . S
H2056 C2049 0.930 . S
H2057 C2055 0.930 . S
H2058 C2046 0.930 . S
H2059 C2047 0.931 . S
H2060 C2053 0.930 . S
H2061 C2075 0.930 . S
H2062 C2054 0.930 . S
H2063 C2081 0.930 . S
H2064 C2072 0.930 . S
H2065 C2079 0.931 . S
H2066 C2043 0.929 . S
H2067 C2073 0.930 . S
H2068 C2106 0.930 . S
H2069 C2050 0.930 . S
H2070 C2105 0.929 . S
N2071 Tb2040 2.660 . S
N2071 C2072 1.305 . S
N2071 C2076 1.360 . S
C2072 H2064 0.930 . S
C2072 N2071 1.305 . S
C2072 C2075 1.407 . S
C2073 H2067 0.930 . S
C2073 C2074 1.410 . S
C2073 C2075 1.345 . S
C2074 C2073 1.410 . S
C2074 C2076 1.417 . S
C2074 C2106 1.432 . S
C2075 H2061 0.930 . S
C2075 C2072 1.407 . S
C2075 C2073 1.345 . S
C2076 N2071 1.360 . S
C2076 C2074 1.417 . S
C2076 C2080 1.432 . S
H2077 C2082 0.930 . S
N2078 Tb2040 2.600 . S
N2078 C2080 1.359 . S
N2078 C2081 1.327 . S
C2079 H2065 0.931 . S
C2079 C2081 1.392 . S
C2079 C2082 1.370 . S
C2080 C2076 1.432 . S
C2080 N2078 1.359 . S
C2080 C2083 1.414 . S
C2081 H2063 0.930 . S
C2081 N2078 1.327 . S
C2081 C2079 1.392 . S
C2082 H2077 0.930 . S
C2082 C2079 1.370 . S
C2082 C2083 1.385 . S
C2083 C2080 1.414 . S
C2083 C2082 1.385 . S
C2083 C2105 1.444 . S
O2084 Tb2040 2.546 . S
O2084 C2104 1.251 . S
O2085 Tb2040 2.610 . S
O2085 Tb2051 2.362 . S
O2085 C2096 1.283 . S
O2086 Tb2051 2.421 . S
O2086 C2103 1.262 . S
O2087 Tb2040 2.320 . S
O2087 C2103 1.260 . S
O2088 Tb2040 2.552 . S
O2088 C2096 1.243 . S
O2089 Tb2040 2.413 . S
O2089 C2104 1.256 . S
O2090 Tb2051 2.546 . S
O2090 C2115 1.251 . S
O2091 Tb2040 2.362 . S
O2091 Tb2051 2.610 . S
O2091 C2107 1.283 . S
O2092 Tb2040 2.421 . S
O2092 C2114 1.262 . S
O2093 Tb2051 2.320 . S
O2093 C2114 1.260 . S
O2094 Tb2051 2.552 . S
O2094 C2107 1.243 . S
O2095 Tb2051 2.413 . S
O2095 C2115 1.256 . S
C2096 O2085 1.283 . S
C2096 O2088 1.243 . S
C2097 C2099 1.382 . S
C2097 C2101 1.393 . S
C2097 C2104 1.500 . S
C2098 C2099 1.400 . S
C2098 C2100 1.384 . S
C2099 C2097 1.382 . S
C2099 C2098 1.400 . S
C2099 H2116 0.930 . S
C2100 C2098 1.384 . S
C2100 C2102 1.392 . S
C2100 H2117 0.931 . S
C2101 C2097 1.393 . S
C2101 C2102 1.401 . S
C2101 H2118 0.930 . S
C2102 C2100 1.392 . S
C2102 C2101 1.401 . S
C2102 H2119 0.930 . S
C2103 O2086 1.262 . S
C2103 O2087 1.260 . S
C2104 Tb2040 2.833 . S
C2104 O2084 1.251 . S
C2104 O2089 1.256 . S
C2104 C2097 1.500 . S
C2105 H2070 0.929 . S
C2105 C2083 1.444 . S
C2105 C2106 1.317 . S
C2106 H2068 0.930 . S
C2106 C2074 1.432 . S
C2106 C2105 1.317 . S
C2107 O2091 1.283 . S
C2107 O2094 1.243 . S
C2108 C2109 1.382 . S
C2108 C2112 1.393 . S
C2108 C2115 1.500 . S
C2109 C2108 1.382 . S
C2109 C2110 1.400 . S
C2109 H2120 0.930 . S
C2110 C2109 1.400 . S
C2110 C2111 1.384 . S
C2111 C2110 1.384 . S
C2111 C2113 1.392 . S
C2111 H2121 0.931 . S
C2112 C2108 1.393 . S
C2112 C2113 1.401 . S
C2112 H2122 0.930 . S
C2113 C2111 1.392 . S
C2113 C2112 1.401 . S
C2113 H2123 0.930 . S
C2114 O2092 1.262 . S
C2114 O2093 1.260 . S
C2115 Tb2051 2.833 . S
C2115 O2090 1.251 . S
C2115 O2095 1.256 . S
C2115 C2108 1.500 . S
H2116 C2099 0.930 . S
H2117 C2100 0.931 . S
H2118 C2101 0.930 . S
H2119 C2102 0.930 . S
H2120 C2109 0.930 . S
H2121 C2111 0.931 . S
H2122 C2112 0.930 . S
H2123 C2113 0.930 . S
Tb2124 N2155 2.659 1_556 S
Tb2124 N2162 2.603 . S
Tb2124 O2168 2.548 . S
Tb2124 O2169 2.608 1_556 S
Tb2124 O2171 2.316 1_556 S
Tb2124 O2172 2.551 . S
Tb2124 O2173 2.413 1_556 S
Tb2124 O2175 2.361 1_556 S
Tb2124 O2176 2.423 . S
Tb2124 C2188 2.834 . S
C2125 C2128 1.432 . S
C2125 C2129 1.414 . S
C2125 N2132 1.359 1_655 S
C2126 C2128 1.417 . S
C2126 C2130 1.432 . S
C2126 C2138 1.410 1_554 S
C2127 C2129 1.444 . S
C2127 C2130 1.317 . S
C2127 H2150 0.929 . S
C2128 C2125 1.432 . S
C2128 C2126 1.417 . S
C2128 N2136 1.364 . S
C2129 C2125 1.414 . S
C2129 C2127 1.444 . S
C2129 C2134 1.385 . S
C2130 C2126 1.432 . S
C2130 C2127 1.317 . S
C2130 H2142 0.930 . S
C2131 C2133 1.392 . S
C2131 C2134 1.370 1_455 S
C2131 H2143 0.931 . S
N2132 C2125 1.359 1_455 S
N2132 C2133 1.327 . S
N2132 Tb2135 2.600 . S
C2133 C2131 1.392 . S
C2133 N2132 1.327 . S
C2133 H2140 0.930 . S
C2134 C2129 1.385 . S
C2134 C2131 1.370 1_655 S
C2134 H2153 0.930 . S
Tb2135 N2132 2.600 . S
Tb2135 N2136 2.655 1_455 S
Tb2135 O2169 2.362 . S
Tb2135 O2170 2.421 . S
Tb2135 O2174 2.546 . S
Tb2135 O2175 2.610 . S
Tb2135 O2177 2.320 1_554 S
Tb2135 O2178 2.552 . S
Tb2135 O2179 2.413 1_455 S
Tb2135 C2199 2.833 1_455 S
N2136 C2128 1.364 . S
N2136 Tb2135 2.655 1_655 S
N2136 C2137 1.306 1_554 S
C2137 N2136 1.306 1_556 S
C2137 C2139 1.407 . S
C2137 H2144 0.930 1_655 S
C2138 C2126 1.410 1_556 S
C2138 C2139 1.345 . S
C2138 H2146 0.930 . S
C2139 C2137 1.407 . S
C2139 C2138 1.345 . S
C2139 H2141 0.930 . S
H2140 C2133 0.930 . S
H2141 C2139 0.930 . S
H2142 C2130 0.930 . S
H2143 C2131 0.931 . S
H2144 C2137 0.930 1_455 S
H2145 C2159 0.930 . S
H2146 C2138 0.930 . S
H2147 C2165 0.930 . S
H2148 C2156 0.930 . S
H2149 C2163 0.931 . S
H2150 C2127 0.929 . S
H2151 C2157 0.930 . S
H2152 C2190 0.930 1_554 S
H2153 C2134 0.930 . S
H2154 C2189 0.929 . S
N2155 Tb2124 2.659 1_554 S
N2155 C2156 1.305 . S
N2155 C2160 1.360 . S
C2156 H2148 0.930 . S
C2156 N2155 1.305 . S
C2156 C2159 1.407 . S
C2157 H2151 0.930 . S
C2157 C2158 1.410 . S
C2157 C2159 1.345 . S
C2158 C2157 1.410 . S
C2158 C2160 1.417 . S
C2158 C2190 1.432 1_554 S
C2159 H2145 0.930 . S
C2159 C2156 1.407 . S
C2159 C2157 1.345 . S
C2160 N2155 1.360 . S
C2160 C2158 1.417 . S
C2160 C2164 1.432 1_554 S
H2161 C2166 0.930 . S
N2162 Tb2124 2.603 . S
N2162 C2164 1.359 . S
N2162 C2165 1.327 . S
C2163 H2149 0.931 . S
C2163 C2165 1.392 . S
C2163 C2166 1.370 . S
C2164 C2160 1.432 1_556 S
C2164 N2162 1.359 . S
C2164 C2167 1.414 . S
C2165 H2147 0.930 . S
C2165 N2162 1.327 . S
C2165 C2163 1.392 . S
C2166 H2161 0.930 . S
C2166 C2163 1.370 . S
C2166 C2167 1.385 . S
C2167 C2164 1.414 . S
C2167 C2166 1.385 . S
C2167 C2189 1.444 . S
O2168 Tb2124 2.548 . S
O2168 C2188 1.251 . S
O2169 Tb2124 2.608 1_554 S
O2169 Tb2135 2.362 . S
O2169 C2180 1.283 . S
O2170 Tb2135 2.421 . S
O2170 C2187 1.262 . S
O2171 Tb2124 2.316 1_554 S
O2171 C2187 1.260 . S
O2172 Tb2124 2.551 . S
O2172 C2180 1.243 1_556 S
O2173 Tb2124 2.413 1_554 S
O2173 C2188 1.256 1_554 S
O2174 Tb2135 2.546 . S
O2174 C2199 1.251 1_455 S
O2175 Tb2124 2.361 1_554 S
O2175 Tb2135 2.610 . S
O2175 C2191 1.283 . S
O2176 Tb2124 2.423 . S
O2176 C2198 1.262 . S
O2177 Tb2135 2.320 1_556 S
O2177 C2198 1.260 . S
O2178 Tb2135 2.552 . S
O2178 C2191 1.243 . S
O2179 Tb2135 2.413 1_655 S
O2179 C2199 1.256 . S
C2180 O2169 1.283 . S
C2180 O2172 1.243 1_554 S
C2181 C2183 1.382 . S
C2181 C2185 1.393 . S
C2181 C2188 1.500 . S
C2182 C2183 1.400 . S
C2182 C2184 1.384 . S
C2183 C2181 1.382 . S
C2183 C2182 1.400 . S
C2183 H2200 0.930 1_556 S
C2184 C2182 1.384 . S
C2184 C2186 1.392 . S
C2184 H2201 0.931 . S
C2185 C2181 1.393 . S
C2185 C2186 1.401 . S
C2185 H2202 0.930 . S
C2186 C2184 1.392 . S
C2186 C2185 1.401 . S
C2186 H2203 0.930 . S
C2187 O2170 1.262 . S
C2187 O2171 1.260 . S
C2188 Tb2124 2.834 . S
C2188 O2168 1.251 . S
C2188 O2173 1.256 1_556 S
C2188 C2181 1.500 . S
C2189 H2154 0.929 . S
C2189 C2167 1.444 . S
C2189 C2190 1.317 . S
C2190 H2152 0.930 1_556 S
C2190 C2158 1.432 1_556 S
C2190 C2189 1.317 . S
C2191 O2175 1.283 . S
C2191 O2178 1.243 . S
C2192 C2193 1.382 . S
C2192 C2196 1.393 . S
C2192 C2199 1.500 . S
C2193 C2192 1.382 . S
C2193 C2194 1.400 . S
C2193 H2204 0.930 . S
C2194 C2193 1.400 . S
C2194 C2195 1.384 . S
C2195 C2194 1.384 . S
C2195 C2197 1.392 . S
C2195 H2205 0.931 . S
C2196 C2192 1.393 . S
C2196 C2197 1.401 . S
C2196 H2206 0.930 . S
C2197 C2195 1.392 . S
C2197 C2196 1.401 . S
C2197 H2207 0.930 . S
C2198 O2176 1.262 . S
C2198 O2177 1.260 . S
C2199 Tb2135 2.833 1_655 S
C2199 O2174 1.251 1_655 S
C2199 O2179 1.256 . S
C2199 C2192 1.500 . S
H2200 C2183 0.930 1_554 S
H2201 C2184 0.931 . S
H2202 C2185 0.930 . S
H2203 C2186 0.930 . S
H2204 C2193 0.930 . S
H2205 C2195 0.931 . S
H2206 C2196 0.930 . S
H2207 C2197 0.930 . S
C2208 C2209 1.387 . S
C2208 H2212 0.950 . S
C2208 C2217 1.390 . S
C2209 C2208 1.387 . S
C2209 C2211 1.390 1_556 S
H2210 C2217 0.950 . S
C2211 C2209 1.390 1_554 S
C2211 C2213 1.388 . S
C2211 H2215 0.949 1_455 S
H2212 C2208 0.950 . S
C2213 C2211 1.388 . S
C2213 C2214 1.387 . S
C2213 H2216 0.950 . S
C2214 C2213 1.387 . S
C2214 C2217 1.387 1_554 S
H2215 C2211 0.949 1_655 S
H2216 C2213 0.950 . S
C2217 C2208 1.390 . S
C2217 H2210 0.950 . S
C2217 C2214 1.387 1_556 S
C2218 C2219 1.387 . S
C2218 H2222 0.950 . S
C2218 C2227 1.390 . S
C2219 C2218 1.387 . S
C2219 C2221 1.387 . S
H2220 C2227 0.950 . S
C2221 C2219 1.387 . S
C2221 C2223 1.390 . S
C2221 H2225 0.950 . S
H2222 C2218 0.950 . S
C2223 C2221 1.390 . S
C2223 C2224 1.387 . S
C2223 H2226 0.950 . S
C2224 C2223 1.387 . S
C2224 C2227 1.387 . S
H2225 C2221 0.950 . S
H2226 C2223 0.950 . S
C2227 C2218 1.390 . S
C2227 H2220 0.950 . S
C2227 C2224 1.387 . S
C2228 C2229 1.387 . S
C2228 H2232 0.950 . S
C2228 C2237 1.390 . S
C2229 C2228 1.387 . S
C2229 C2231 1.387 . S
H2230 C2237 0.950 . S
C2231 C2229 1.387 . S
C2231 C2233 1.390 . S
C2231 H2235 0.950 . S
H2232 C2228 0.950 . S
C2233 C2231 1.390 . S
C2233 C2234 1.387 . S
C2233 H2236 0.950 . S
C2234 C2233 1.387 . S
C2234 C2237 1.387 . S
H2235 C2231 0.950 . S
H2236 C2233 0.950 . S
C2237 C2228 1.390 . S
C2237 H2230 0.950 . S
C2237 C2234 1.387 . S
C2238 C2239 1.387 . S
C2238 H2242 0.950 . S
C2238 C2247 1.390 . S
C2239 C2238 1.387 . S
C2239 C2241 1.387 . S
H2240 C2247 0.950 . S
C2241 C2239 1.387 . S
C2241 C2243 1.390 . S
C2241 H2245 0.950 . S
H2242 C2238 0.950 . S
C2243 C2241 1.390 . S
C2243 C2244 1.387 . S
C2243 H2246 0.950 . S
C2244 C2243 1.387 . S
C2244 C2247 1.387 . S
H2245 C2241 0.950 . S
H2246 C2243 0.950 . S
C2247 C2238 1.390 . S
C2247 H2240 0.950 . S
C2247 C2244 1.387 . S
C2248 C2249 1.387 . S
C2248 H2252 0.950 . S
C2248 C2257 1.390 . S
C2249 C2248 1.387 . S
C2249 C2251 1.387 . S
H2250 C2257 0.950 . S
C2251 C2249 1.387 . S
C2251 C2253 1.390 . S
C2251 H2255 0.948 . S
H2252 C2248 0.950 . S
C2253 C2251 1.390 . S
C2253 C2254 1.387 . S
C2253 H2256 0.950 . S
C2254 C2253 1.387 . S
C2254 C2257 1.387 . S
H2255 C2251 0.948 . S
H2256 C2253 0.950 . S
C2257 C2248 1.390 . S
C2257 H2250 0.950 . S
C2257 C2254 1.387 . S
C2258 C2259 1.387 . S
C2258 H2262 0.950 . S
C2258 C2267 1.390 . S
C2259 C2258 1.387 . S
C2259 C2261 1.387 . S
H2260 C2267 0.950 . S
C2261 C2259 1.387 . S
C2261 C2263 1.390 . S
C2261 H2265 0.950 . S
H2262 C2258 0.950 . S
C2263 C2261 1.390 . S
C2263 C2264 1.387 . S
C2263 H2266 0.950 . S
C2264 C2263 1.387 . S
C2264 C2267 1.387 . S
H2265 C2261 0.950 . S
H2266 C2263 0.950 . S
C2267 C2258 1.390 . S
C2267 H2260 0.950 . S
C2267 C2264 1.387 . S
C2268 C2269 1.387 . S
C2268 H2272 0.950 . S
C2268 C2277 1.390 . S
C2269 C2268 1.387 . S
C2269 C2271 1.387 . S
H2270 C2277 0.950 . S
C2271 C2269 1.387 . S
C2271 C2273 1.390 . S
C2271 H2275 0.950 . S
H2272 C2268 0.950 . S
C2273 C2271 1.390 . S
C2273 C2274 1.387 . S
C2273 H2276 0.950 . S
C2274 C2273 1.387 . S
C2274 C2277 1.387 . S
H2275 C2271 0.950 . S
H2276 C2273 0.950 . S
C2277 C2268 1.390 . S
C2277 H2270 0.950 . S
C2277 C2274 1.387 . S
C2278 C2279 1.387 . S
C2278 H2282 0.950 . S
C2278 C2287 1.390 . S
C2279 C2278 1.387 . S
C2279 C2281 1.387 . S
H2280 C2287 0.950 . S
C2281 C2279 1.387 . S
C2281 C2283 1.390 . S
C2281 H2285 0.950 . S
H2282 C2278 0.950 . S
C2283 C2281 1.390 . S
C2283 C2284 1.387 . S
C2283 H2286 0.950 . S
C2284 C2283 1.387 . S
C2284 C2287 1.387 . S
H2285 C2281 0.950 . S
H2286 C2283 0.950 . S
C2287 C2278 1.390 . S
C2287 H2280 0.950 . S
C2287 C2284 1.387 . S
C2288 C2289 1.387 . S
C2288 H2292 0.950 . S
C2288 C2297 1.390 . S
C2289 C2288 1.387 . S
C2289 C2291 1.387 . S
H2290 C2297 0.950 . S
C2291 C2289 1.387 . S
C2291 C2293 1.390 . S
C2291 H2295 0.950 . S
H2292 C2288 0.950 . S
C2293 C2291 1.390 . S
C2293 C2294 1.387 . S
C2293 H2296 0.950 . S
C2294 C2293 1.387 . S
C2294 C2297 1.387 . S
H2295 C2291 0.950 . S
H2296 C2293 0.950 . S
C2297 C2288 1.390 . S
C2297 H2290 0.950 . S
C2297 C2294 1.387 . S
C2298 C2299 1.387 . S
C2298 H2302 0.950 . S
C2298 C2307 1.390 . S
C2299 C2298 1.387 . S
C2299 C2301 1.387 . S
H2300 C2307 0.950 . S
C2301 C2299 1.387 . S
C2301 C2303 1.390 . S
C2301 H2305 0.950 . S
H2302 C2298 0.950 . S
C2303 C2301 1.390 . S
C2303 C2304 1.387 . S
C2303 H2306 0.950 . S
C2304 C2303 1.387 . S
C2304 C2307 1.387 . S
H2305 C2301 0.950 . S
H2306 C2303 0.950 . S
C2307 C2298 1.390 . S
C2307 H2300 0.950 . S
C2307 C2304 1.387 . S
C2308 C2309 1.387 . S
C2308 H2312 0.950 . S
C2308 C2317 1.390 . S
C2309 C2308 1.387 . S
C2309 C2311 1.387 . S
H2310 C2317 0.950 . S
C2311 C2309 1.387 . S
C2311 C2313 1.390 . S
C2311 H2315 0.950 . S
H2312 C2308 0.950 . S
C2313 C2311 1.390 . S
C2313 C2314 1.387 . S
C2313 H2316 0.950 1_545 S
C2314 C2313 1.387 . S
C2314 C2317 1.387 . S
H2315 C2311 0.950 . S
H2316 C2313 0.950 1_565 S
C2317 C2308 1.390 . S
C2317 H2310 0.950 . S
C2317 C2314 1.387 . S
C2318 C2319 1.387 . S
C2318 H2322 0.950 . S
C2318 C2327 1.390 . S
C2319 C2318 1.387 . S
C2319 C2321 1.387 . S
H2320 C2327 0.950 . S
C2321 C2319 1.387 . S
C2321 C2323 1.390 . S
C2321 H2325 0.950 . S
H2322 C2318 0.950 . S
C2323 C2321 1.390 . S
C2323 C2324 1.387 . S
C2323 H2326 0.950 . S
C2324 C2323 1.387 . S
C2324 C2327 1.387 . S
H2325 C2321 0.950 . S
H2326 C2323 0.950 . S
C2327 C2318 1.390 . S
C2327 H2320 0.950 . S
C2327 C2324 1.387 . S
C2328 C2329 1.387 . S
C2328 H2332 0.950 1_455 S
C2328 C2337 1.390 . S
C2329 C2328 1.387 . S
C2329 C2331 1.387 . S
H2330 C2337 0.950 . S
C2331 C2329 1.387 . S
C2331 C2333 1.390 . S
C2331 H2335 0.950 . S
H2332 C2328 0.950 1_655 S
C2333 C2331 1.390 . S
C2333 C2334 1.387 . S
C2333 H2336 0.950 . S
C2334 C2333 1.387 . S
C2334 C2337 1.387 . S
H2335 C2331 0.950 . S
H2336 C2333 0.950 . S
C2337 C2328 1.390 . S
C2337 H2330 0.950 . S
C2337 C2334 1.387 . S
C2338 C2339 1.387 . S
C2338 H2342 0.950 . S
C2338 C2347 1.390 . S
C2339 C2338 1.387 . S
C2339 C2341 1.387 . S
H2340 C2347 0.950 . S
C2341 C2339 1.387 . S
C2341 C2343 1.390 . S
C2341 H2345 0.950 . S
H2342 C2338 0.950 . S
C2343 C2341 1.390 . S
C2343 C2344 1.387 . S
C2343 H2346 0.950 . S
C2344 C2343 1.387 . S
C2344 C2347 1.387 . S
H2345 C2341 0.950 . S
H2346 C2343 0.950 . S
C2347 C2338 1.390 . S
C2347 H2340 0.950 . S
C2347 C2344 1.387 . S
C2348 C2349 1.387 . S
C2348 H2352 0.950 . S
C2348 C2357 1.390 . S
C2349 C2348 1.387 . S
C2349 C2351 1.387 . S
H2350 C2357 0.950 . S
C2351 C2349 1.387 . S
C2351 C2353 1.390 . S
C2351 H2355 0.950 . S
H2352 C2348 0.950 . S
C2353 C2351 1.390 . S
C2353 C2354 1.387 . S
C2353 H2356 0.950 . S
C2354 C2353 1.387 . S
C2354 C2357 1.387 . S
H2355 C2351 0.950 . S
H2356 C2353 0.950 . S
C2357 C2348 1.390 . S
C2357 H2350 0.950 . S
C2357 C2354 1.387 . S
C2358 C2359 1.387 . S
C2358 H2362 0.950 . S
C2358 C2367 1.390 . S
C2359 C2358 1.387 . S
C2359 C2361 1.387 . S
H2360 C2367 0.950 . S
C2361 C2359 1.387 . S
C2361 C2363 1.390 . S
C2361 H2365 0.950 . S
H2362 C2358 0.950 . S
C2363 C2361 1.390 . S
C2363 C2364 1.387 . S
C2363 H2366 0.950 . S
C2364 C2363 1.387 . S
C2364 C2367 1.387 . S
H2365 C2361 0.950 . S
H2366 C2363 0.950 . S
C2367 C2358 1.390 . S
C2367 H2360 0.950 . S
C2367 C2364 1.387 . S
C2368 C2369 1.387 1_546 S
C2368 H2372 0.950 . S
C2368 C2377 1.390 1_556 S
C2369 C2368 1.387 1_564 S
C2369 C2371 1.387 . S
H2370 C2377 0.950 . S
C2371 C2369 1.387 . S
C2371 C2373 1.390 . S
C2371 H2375 0.950 . S
H2372 C2368 0.950 . S
C2373 C2371 1.390 . S
C2373 C2374 1.387 1_565 S
C2373 H2376 0.950 . S
C2374 C2373 1.387 1_545 S
C2374 C2377 1.387 . S
H2375 C2371 0.950 . S
H2376 C2373 0.950 . S
C2377 C2368 1.390 1_554 S
C2377 H2370 0.950 . S
C2377 C2374 1.387 . S
C2378 C2379 1.387 . S
C2378 H2382 0.950 . S
C2378 C2387 1.390 . S
C2379 C2378 1.387 . S
C2379 C2381 1.387 1_556 S
H2380 C2387 0.950 . S
C2381 C2379 1.387 1_554 S
C2381 C2383 1.390 . S
C2381 H2385 0.950 . S
H2382 C2378 0.950 . S
C2383 C2381 1.390 . S
C2383 C2384 1.387 1_554 S
C2383 H2386 0.950 . S
C2384 C2383 1.387 1_556 S
C2384 C2387 1.387 . S
H2385 C2381 0.950 . S
H2386 C2383 0.950 . S
C2387 C2378 1.390 . S
C2387 H2380 0.950 . S
C2387 C2384 1.387 . S
C2388 C2389 1.387 . S
C2388 H2392 0.950 . S
C2388 C2397 1.390 . S
C2389 C2388 1.387 . S
C2389 C2391 1.387 . S
H2390 C2397 0.950 . S
C2391 C2389 1.387 . S
C2391 C2393 1.390 . S
C2391 H2395 0.950 . S
H2392 C2388 0.950 . S
C2393 C2391 1.390 . S
C2393 C2394 1.387 . S
C2393 H2396 0.950 . S
C2394 C2393 1.387 . S
C2394 C2397 1.387 . S
H2395 C2391 0.950 . S
H2396 C2393 0.950 . S
C2397 C2388 1.390 . S
C2397 H2390 0.950 . S
C2397 C2394 1.387 . S
C2398 C2399 1.387 . S
C2398 H2402 0.950 . S
C2398 C2407 1.390 . S
C2399 C2398 1.387 . S
C2399 C2401 1.387 . S
H2400 C2407 0.966 . S
C2401 C2399 1.387 . S
C2401 C2403 1.390 . S
C2401 H2405 0.950 . S
H2402 C2398 0.950 . S
C2403 C2401 1.390 . S
C2403 C2404 1.387 1_655 S
C2403 H2406 0.950 1_655 S
C2404 C2403 1.387 1_455 S
C2404 C2407 1.387 1_455 S
H2405 C2401 0.950 . S
H2406 C2403 0.950 1_455 S
C2407 C2398 1.390 . S
C2407 H2400 0.966 . S
C2407 C2404 1.387 1_655 S
C2408 C2409 1.387 . S
C2408 H2412 0.950 . S
C2408 C2417 1.390 . S
C2409 C2408 1.387 . S
C2409 C2411 1.387 . S
H2410 C2417 0.950 . S
C2411 C2409 1.387 . S
C2411 C2413 1.390 . S
C2411 H2415 0.950 . S
H2412 C2408 0.950 . S
C2413 C2411 1.390 . S
C2413 C2414 1.387 . S
C2413 H2416 0.950 . S
C2414 C2413 1.387 . S
C2414 C2417 1.387 . S
H2415 C2411 0.950 . S
H2416 C2413 0.950 . S
C2417 C2408 1.390 . S
C2417 H2410 0.950 . S
C2417 C2414 1.387 . S
C2418 C2419 1.387 . S
C2418 H2422 0.950 . S
C2418 C2427 1.390 . S
C2419 C2418 1.387 . S
C2419 C2421 1.387 . S
H2420 C2427 0.950 . S
C2421 C2419 1.387 . S
C2421 C2423 1.390 . S
C2421 H2425 0.950 . S
H2422 C2418 0.950 . S
C2423 C2421 1.390 . S
C2423 C2424 1.387 . S
C2423 H2426 0.950 . S
C2424 C2423 1.387 . S
C2424 C2427 1.387 . S
H2425 C2421 0.950 . S
H2426 C2423 0.950 . S
C2427 C2418 1.390 . S
C2427 H2420 0.950 . S
C2427 C2424 1.387 . S
C2428 C2429 1.387 . S
C2428 H2432 0.950 . S
C2428 C2437 1.390 . S
C2429 C2428 1.387 . S
C2429 C2431 1.387 . S
H2430 C2437 0.950 . S
C2431 C2429 1.387 . S
C2431 C2433 1.390 . S
C2431 H2435 0.950 . S
H2432 C2428 0.950 . S
C2433 C2431 1.390 . S
C2433 C2434 1.387 . S
C2433 H2436 0.950 . S
C2434 C2433 1.387 . S
C2434 C2437 1.387 . S
H2435 C2431 0.950 . S
H2436 C2433 0.950 . S
C2437 C2428 1.390 . S
C2437 H2430 0.950 . S
C2437 C2434 1.387 . S
C2438 C2439 1.387 . S
C2438 H2442 0.950 . S
C2438 C2447 1.390 . S
C2439 C2438 1.387 . S
C2439 C2441 1.387 . S
H2440 C2447 0.950 . S
C2441 C2439 1.387 . S
C2441 C2443 1.390 . S
C2441 H2445 0.950 . S
H2442 C2438 0.950 . S
C2443 C2441 1.390 . S
C2443 C2444 1.387 . S
C2443 H2446 0.950 . S
C2444 C2443 1.387 . S
C2444 C2447 1.387 . S
H2445 C2441 0.950 . S
H2446 C2443 0.950 . S
C2447 C2438 1.390 . S
C2447 H2440 0.950 . S
C2447 C2444 1.387 . S
C2448 C2449 1.387 . S
C2448 H2452 0.950 . S
C2448 C2457 1.390 . S
C2449 C2448 1.387 . S
C2449 C2451 1.387 . S
H2450 C2457 0.950 . S
C2451 C2449 1.387 . S
C2451 C2453 1.390 . S
C2451 H2455 0.950 . S
H2452 C2448 0.950 . S
C2453 C2451 1.390 . S
C2453 C2454 1.387 . S
C2453 H2456 0.950 . S
C2454 C2453 1.387 . S
C2454 C2457 1.387 . S
H2455 C2451 0.950 . S
H2456 C2453 0.950 . S
C2457 C2448 1.390 . S
C2457 H2450 0.950 . S
C2457 C2454 1.387 . S
C2458 C2459 1.387 . S
C2458 H2462 0.950 . S
C2458 C2467 1.390 . S
C2459 C2458 1.387 . S
C2459 C2461 1.387 . S
H2460 C2467 0.950 . S
C2461 C2459 1.387 . S
C2461 C2463 1.390 . S
C2461 H2465 0.950 . S
H2462 C2458 0.950 . S
C2463 C2461 1.390 . S
C2463 C2464 1.387 . S
C2463 H2466 0.950 . S
C2464 C2463 1.387 . S
C2464 C2467 1.387 . S
H2465 C2461 0.950 . S
H2466 C2463 0.950 . S
C2467 C2458 1.390 . S
C2467 H2460 0.950 . S
C2467 C2464 1.387 . S
C2468 C2469 1.387 . S
C2468 H2472 0.950 . S
C2468 C2477 1.390 . S
C2469 C2468 1.387 . S
C2469 C2471 1.387 . S
H2470 C2477 0.950 . S
C2471 C2469 1.387 . S
C2471 C2473 1.390 . S
C2471 H2475 0.950 . S
H2472 C2468 0.950 . S
C2473 C2471 1.390 . S
C2473 C2474 1.387 . S
C2473 H2476 0.950 . S
C2474 C2473 1.387 . S
C2474 C2477 1.387 . S
H2475 C2471 0.950 . S
H2476 C2473 0.950 . S
C2477 C2468 1.390 . S
C2477 H2470 0.950 . S
C2477 C2474 1.387 . S
C2478 C2479 1.387 . S
C2478 H2482 0.950 . S
C2478 C2487 1.390 . S
C2479 C2478 1.387 . S
C2479 C2481 1.387 . S
H2480 C2487 0.950 . S
C2481 C2479 1.387 . S
C2481 C2483 1.390 . S
C2481 H2485 0.950 . S
H2482 C2478 0.950 . S
C2483 C2481 1.390 . S
C2483 C2484 1.387 . S
C2483 H2486 0.950 . S
C2484 C2483 1.387 . S
C2484 C2487 1.387 . S
H2485 C2481 0.950 . S
H2486 C2483 0.950 . S
C2487 C2478 1.390 . S
C2487 H2480 0.950 . S
C2487 C2484 1.387 . S
C2488 C2489 1.387 . S
C2488 H2492 0.950 . S
C2488 C2497 1.390 . S
C2489 C2488 1.387 . S
C2489 C2491 1.387 . S
H2490 C2497 0.950 . S
C2491 C2489 1.387 . S
C2491 C2493 1.390 . S
C2491 H2495 0.950 . S
H2492 C2488 0.950 . S
C2493 C2491 1.390 . S
C2493 C2494 1.387 . S
C2493 H2496 0.950 . S
C2494 C2493 1.387 . S
C2494 C2497 1.387 . S
H2495 C2491 0.950 . S
H2496 C2493 0.950 . S
C2497 C2488 1.390 . S
C2497 H2490 0.950 . S
C2497 C2494 1.387 . S
C2498 C2499 1.387 . S
C2498 H2502 0.950 . S
C2498 C2507 1.390 . S
C2499 C2498 1.387 . S
C2499 C2501 1.387 . S
H2500 C2507 0.950 . S
C2501 C2499 1.387 . S
C2501 C2503 1.390 . S
C2501 H2505 0.950 . S
H2502 C2498 0.950 . S
C2503 C2501 1.390 . S
C2503 C2504 1.387 . S
C2503 H2506 0.950 . S
C2504 C2503 1.387 . S
C2504 C2507 1.387 . S
H2505 C2501 0.950 . S
H2506 C2503 0.950 . S
C2507 C2498 1.390 . S
C2507 H2500 0.950 . S
C2507 C2504 1.387 . S
C2508 C2509 1.387 . S
C2508 H2512 0.950 . S
C2508 C2517 1.390 . S
C2509 C2508 1.387 . S
C2509 C2511 1.387 . S
H2510 C2517 0.950 1_554 S
C2511 C2509 1.387 . S
C2511 C2513 1.390 . S
C2511 H2515 0.950 . S
H2512 C2508 0.950 . S
C2513 C2511 1.390 . S
C2513 C2514 1.387 . S
C2513 H2516 0.950 . S
C2514 C2513 1.387 . S
C2514 C2517 1.387 . S
H2515 C2511 0.950 . S
H2516 C2513 0.950 . S
C2517 C2508 1.390 . S
C2517 H2510 0.950 1_556 S
C2517 C2514 1.387 . S
C2518 C2519 1.387 . S
C2518 H2522 0.950 . S
C2518 C2527 1.390 . S
C2519 C2518 1.387 . S
C2519 C2521 1.387 . S
H2520 C2527 0.950 . S
C2521 C2519 1.387 . S
C2521 C2523 1.390 . S
C2521 H2525 0.950 . S
H2522 C2518 0.950 . S
C2523 C2521 1.390 . S
C2523 C2524 1.387 . S
C2523 H2526 0.950 . S
C2524 C2523 1.387 . S
C2524 C2527 1.387 . S
H2525 C2521 0.950 . S
H2526 C2523 0.950 . S
C2527 C2518 1.390 . S
C2527 H2520 0.950 . S
C2527 C2524 1.387 . S
C2528 C2529 1.387 1_565 S
C2528 H2532 0.950 . S
C2528 C2537 1.390 . S
C2529 C2528 1.387 1_545 S
C2529 C2531 1.387 . S
H2530 C2537 0.950 . S
C2531 C2529 1.387 . S
C2531 C2533 1.390 . S
C2531 H2535 0.950 . S
H2532 C2528 0.950 . S
C2533 C2531 1.390 . S
C2533 C2534 1.414 . S
C2533 H2536 0.950 . S
C2534 C2533 1.414 . S
C2534 C2537 1.363 1_545 S
H2535 C2531 0.950 . S
H2536 C2533 0.950 . S
C2537 C2528 1.390 . S
C2537 H2530 0.950 . S
C2537 C2534 1.363 1_565 S
C2538 C2539 1.387 . S
C2538 H2542 0.950 . S
C2538 C2547 1.390 . S
C2539 C2538 1.387 . S
C2539 C2541 1.387 . S
H2540 C2547 0.950 . S
C2541 C2539 1.387 . S
C2541 C2543 1.390 . S
C2541 H2545 0.950 . S
H2542 C2538 0.950 . S
C2543 C2541 1.390 . S
C2543 C2544 1.387 . S
C2543 H2546 0.950 . S
C2544 C2543 1.387 . S
C2544 C2547 1.387 . S
H2545 C2541 0.950 . S
H2546 C2543 0.950 . S
C2547 C2538 1.390 . S
C2547 H2540 0.950 . S
C2547 C2544 1.387 . S
C2548 C2549 1.387 . S
C2548 H2552 0.950 . S
C2548 C2557 1.390 . S
C2549 C2548 1.387 . S
C2549 C2551 1.387 . S
H2550 C2557 0.950 . S
C2551 C2549 1.387 . S
C2551 C2553 1.390 . S
C2551 H2555 0.950 1_545 S
H2552 C2548 0.950 . S
C2553 C2551 1.390 . S
C2553 C2554 1.387 . S
C2553 H2556 0.950 1_545 S
C2554 C2553 1.387 . S
C2554 C2557 1.387 . S
H2555 C2551 0.950 1_565 S
H2556 C2553 0.950 1_565 S
C2557 C2548 1.390 . S
C2557 H2550 0.950 . S
C2557 C2554 1.387 . S
C2558 C2559 1.387 . S
C2558 H2562 0.950 . S
C2558 C2567 1.390 . S
C2559 C2558 1.387 . S
C2559 C2561 1.387 . S
H2560 C2567 0.950 . S
C2561 C2559 1.387 . S
C2561 C2563 1.390 . S
C2561 H2565 0.950 . S
H2562 C2558 0.950 . S
C2563 C2561 1.390 . S
C2563 C2564 1.387 . S
C2563 H2566 0.950 . S
C2564 C2563 1.387 . S
C2564 C2567 1.387 . S
H2565 C2561 0.950 . S
H2566 C2563 0.950 . S
C2567 C2558 1.390 . S
C2567 H2560 0.950 . S
C2567 C2564 1.387 . S
C2568 C2569 1.387 . S
C2568 H2572 0.950 . S
C2568 C2577 1.390 . S
C2569 C2568 1.387 . S
C2569 C2571 1.387 1_565 S
H2570 C2577 0.950 . S
C2571 C2569 1.387 1_545 S
C2571 C2573 1.390 . S
C2571 H2575 0.950 . S
H2572 C2568 0.950 . S
C2573 C2571 1.390 . S
C2573 C2574 1.387 . S
C2573 H2576 0.950 . S
C2574 C2573 1.387 . S
C2574 C2577 1.387 1_545 S
H2575 C2571 0.950 . S
H2576 C2573 0.950 . S
C2577 C2568 1.390 . S
C2577 H2570 0.950 . S
C2577 C2574 1.387 1_565 S
C2578 C2579 1.387 . S
C2578 H2582 0.950 . S
C2578 C2587 1.390 . S
C2579 C2578 1.387 . S
C2579 C2581 1.387 . S
H2580 C2587 0.950 . S
C2581 C2579 1.387 . S
C2581 C2583 1.390 . S
C2581 H2585 0.950 . S
H2582 C2578 0.950 . S
C2583 C2581 1.390 . S
C2583 C2584 1.387 . S
C2583 H2586 0.950 . S
C2584 C2583 1.387 . S
C2584 C2587 1.387 . S
H2585 C2581 0.950 . S
H2586 C2583 0.950 . S
C2587 C2578 1.390 . S
C2587 H2580 0.950 . S
C2587 C2584 1.387 . S
C2588 C2589 1.387 1_565 S
C2588 H2592 0.950 . S
C2588 C2597 1.390 . S
C2589 C2588 1.387 1_545 S
C2589 C2591 1.387 . S
H2590 C2597 0.950 . S
C2591 C2589 1.387 . S
C2591 C2593 1.390 . S
C2591 H2595 0.950 . S
H2592 C2588 0.950 . S
C2593 C2591 1.390 . S
C2593 C2594 1.387 . S
C2593 H2596 0.950 . S
C2594 C2593 1.387 . S
C2594 C2597 1.387 1_545 S
H2595 C2591 0.950 . S
H2596 C2593 0.950 . S
C2597 C2588 1.390 . S
C2597 H2590 0.950 . S
C2597 C2594 1.387 1_565 S
C2598 C2599 1.387 . S
C2598 H2602 0.950 . S
C2598 C2607 1.390 . S
C2599 C2598 1.387 . S
C2599 C2601 1.387 . S
H2600 C2607 0.950 . S
C2601 C2599 1.387 . S
C2601 C2603 1.390 . S
C2601 H2605 0.950 . S
H2602 C2598 0.950 . S
C2603 C2601 1.390 . S
C2603 C2604 1.387 . S
C2603 H2606 0.950 . S
C2604 C2603 1.387 . S
C2604 C2607 1.387 . S
H2605 C2601 0.950 . S
H2606 C2603 0.950 . S
C2607 C2598 1.390 . S
C2607 H2600 0.950 . S
C2607 C2604 1.387 . S
C2608 C2609 1.368 1_556 S
C2608 H2612 0.963 . S
C2608 C2617 1.396 . S
C2609 C2608 1.368 1_554 S
C2609 C2611 1.387 . S
H2610 C2617 0.950 . S
C2611 C2609 1.387 . S
C2611 C2613 1.390 . S
C2611 H2615 0.950 . S
H2612 C2608 0.963 . S
C2613 C2611 1.390 . S
C2613 C2614 1.387 . S
C2613 H2616 0.950 . S
C2614 C2613 1.387 . S
C2614 C2617 1.387 1_554 S
H2615 C2611 0.950 . S
H2616 C2613 0.950 . S
C2617 C2608 1.396 . S
C2617 H2610 0.950 . S
C2617 C2614 1.387 1_556 S
C2618 C2619 1.387 . S
C2618 H2622 0.930 1_554 S
C2618 C2627 1.390 . S
C2619 C2618 1.387 . S
C2619 C2621 1.387 . S
H2620 C2627 0.950 1_556 S
C2621 C2619 1.387 . S
C2621 C2623 1.390 . S
C2621 H2625 0.950 . S
H2622 C2618 0.930 1_556 S
C2623 C2621 1.390 . S
C2623 C2624 1.387 . S
C2623 H2626 0.950 . S
C2624 C2623 1.387 . S
C2624 C2627 1.387 . S
H2625 C2621 0.950 . S
H2626 C2623 0.950 . S
C2627 C2618 1.390 . S
C2627 H2620 0.950 1_554 S
C2627 C2624 1.387 . S
C2628 C2629 1.387 . S
C2628 H2632 0.950 . S
C2628 C2637 1.390 . S
C2629 C2628 1.387 . S
C2629 C2631 1.387 . S
H2630 C2637 0.950 . S
C2631 C2629 1.387 . S
C2631 C2633 1.390 . S
C2631 H2635 0.950 . S
H2632 C2628 0.950 . S
C2633 C2631 1.390 . S
C2633 C2634 1.387 . S
C2633 H2636 0.950 . S
C2634 C2633 1.387 . S
C2634 C2637 1.387 . S
H2635 C2631 0.950 . S
H2636 C2633 0.950 . S
C2637 C2628 1.390 . S
C2637 H2630 0.950 . S
C2637 C2634 1.387 . S
C2638 C2639 1.387 . S
C2638 H2642 0.950 . S
C2638 C2647 1.390 . S
C2639 C2638 1.387 . S
C2639 C2641 1.387 . S
H2640 C2647 0.950 . S
C2641 C2639 1.387 . S
C2641 C2643 1.390 . S
C2641 H2645 0.950 . S
H2642 C2638 0.950 . S
C2643 C2641 1.390 . S
C2643 C2644 1.387 . S
C2643 H2646 0.950 . S
C2644 C2643 1.387 . S
C2644 C2647 1.387 . S
H2645 C2641 0.950 . S
H2646 C2643 0.950 . S
C2647 C2638 1.390 . S
C2647 H2640 0.950 . S
C2647 C2644 1.387 . S
C2648 C2649 1.394 . S
C2648 H2652 0.950 . S
C2648 C2657 1.390 . S
C2649 C2648 1.394 . S
C2649 C2651 1.386 1_565 S
H2650 C2657 0.950 . S
C2651 C2649 1.386 1_545 S
C2651 C2653 1.390 . S
C2651 H2655 0.950 . S
H2652 C2648 0.950 . S
C2653 C2651 1.390 . S
C2653 C2654 1.387 1_545 S
C2653 H2656 0.950 . S
C2654 C2653 1.387 1_565 S
C2654 C2657 1.387 . S
H2655 C2651 0.950 . S
H2656 C2653 0.950 . S
C2657 C2648 1.390 . S
C2657 H2650 0.950 . S
C2657 C2654 1.387 . S
C2658 C2659 1.387 . S
C2658 H2662 0.950 . S
C2658 C2667 1.390 . S
C2659 C2658 1.387 . S
C2659 C2661 1.387 . S
H2660 C2667 0.950 . S
C2661 C2659 1.387 . S
C2661 C2663 1.390 . S
C2661 H2665 0.950 . S
H2662 C2658 0.950 . S
C2663 C2661 1.390 . S
C2663 C2664 1.387 . S
C2663 H2666 0.950 . S
C2664 C2663 1.387 . S
C2664 C2667 1.387 . S
H2665 C2661 0.950 . S
H2666 C2663 0.950 . S
C2667 C2658 1.390 . S
C2667 H2660 0.950 . S
C2667 C2664 1.387 . S
C2668 C2669 1.387 . S
C2668 H2672 0.950 . S
C2668 C2677 1.390 . S
C2669 C2668 1.387 . S
C2669 C2671 1.387 . S
H2670 C2677 0.950 . S
C2671 C2669 1.387 . S
C2671 C2673 1.390 . S
C2671 H2675 0.950 . S
H2672 C2668 0.950 . S
C2673 C2671 1.390 . S
C2673 C2674 1.387 . S
C2673 H2676 0.950 . S
C2674 C2673 1.387 . S
C2674 C2677 1.387 . S
H2675 C2671 0.950 . S
H2676 C2673 0.950 . S
C2677 C2668 1.390 . S
C2677 H2670 0.950 . S
C2677 C2674 1.387 . S
C2678 C2679 1.387 . S
C2678 H2682 0.950 . S
C2678 C2687 1.390 . S
C2679 C2678 1.387 . S
C2679 C2681 1.387 . S
H2680 C2687 0.950 . S
C2681 C2679 1.387 . S
C2681 C2683 1.390 . S
C2681 H2685 0.950 . S
H2682 C2678 0.950 . S
C2683 C2681 1.390 . S
C2683 C2684 1.387 . S
C2683 H2686 0.950 . S
C2684 C2683 1.387 . S
C2684 C2687 1.387 . S
H2685 C2681 0.950 . S
H2686 C2683 0.950 . S
C2687 C2678 1.390 . S
C2687 H2680 0.950 . S
C2687 C2684 1.387 . S
C2688 C2689 1.387 . S
C2688 H2692 0.950 . S
C2688 C2697 1.390 . S
C2689 C2688 1.387 . S
C2689 C2691 1.387 . S
H2690 C2697 0.950 . S
C2691 C2689 1.387 . S
C2691 C2693 1.390 . S
C2691 H2695 0.950 . S
H2692 C2688 0.950 . S
C2693 C2691 1.390 . S
C2693 C2694 1.387 . S
C2693 H2696 0.950 . S
C2694 C2693 1.387 . S
C2694 C2697 1.387 . S
H2695 C2691 0.950 . S
H2696 C2693 0.950 . S
C2697 C2688 1.390 . S
C2697 H2690 0.950 . S
C2697 C2694 1.387 . S
C2698 C2699 1.387 . S
C2698 H2702 0.950 . S
C2698 C2707 1.390 . S
C2699 C2698 1.387 . S
C2699 C2701 1.387 . S
H2700 C2707 0.950 . S
C2701 C2699 1.387 . S
C2701 C2703 1.390 . S
C2701 H2705 0.950 . S
H2702 C2698 0.950 . S
C2703 C2701 1.390 . S
C2703 C2704 1.387 . S
C2703 H2706 0.950 . S
C2704 C2703 1.387 . S
C2704 C2707 1.387 . S
H2705 C2701 0.950 . S
H2706 C2703 0.950 . S
C2707 C2698 1.390 . S
C2707 H2700 0.950 . S
C2707 C2704 1.387 . S
C2708 C2709 1.387 . S
C2708 H2712 0.950 . S
C2708 C2717 1.390 . S
C2709 C2708 1.387 . S
C2709 C2711 1.387 1_556 S
H2710 C2717 0.950 . S
C2711 C2709 1.387 1_554 S
C2711 C2713 1.390 . S
C2711 H2715 0.950 . S
H2712 C2708 0.950 . S
C2713 C2711 1.390 . S
C2713 C2714 1.387 . S
C2713 H2716 0.950 . S
C2714 C2713 1.387 . S
C2714 C2717 1.387 1_554 S
H2715 C2711 0.950 . S
H2716 C2713 0.950 . S
C2717 C2708 1.390 . S
C2717 H2710 0.950 . S
C2717 C2714 1.387 1_556 S
C2718 C2719 1.387 . S
C2718 H2722 0.950 . S
C2718 C2727 1.390 1_455 S
C2719 C2718 1.387 . S
C2719 C2721 1.387 . S
H2720 C2727 0.950 . S
C2721 C2719 1.387 . S
C2721 C2723 1.390 . S
C2721 H2725 0.950 . S
H2722 C2718 0.950 . S
C2723 C2721 1.390 . S
C2723 C2724 1.387 1_455 S
C2723 H2726 0.951 . S
C2724 C2723 1.387 1_655 S
C2724 C2727 1.387 . S
H2725 C2721 0.950 . S
H2726 C2723 0.951 . S
C2727 C2718 1.390 1_655 S
C2727 H2720 0.950 . S
C2727 C2724 1.387 . S
C2728 C2729 1.387 . S
C2728 H2732 0.950 . S
C2728 C2737 1.390 . S
C2729 C2728 1.387 . S
C2729 C2731 1.387 . S
H2730 C2737 0.950 . S
C2731 C2729 1.387 . S
C2731 C2733 1.390 . S
C2731 H2735 0.950 . S
H2732 C2728 0.950 . S
C2733 C2731 1.390 . S
C2733 C2734 1.387 . S
C2733 H2736 0.950 . S
C2734 C2733 1.387 . S
C2734 C2737 1.387 . S
H2735 C2731 0.950 . S
H2736 C2733 0.950 . S
C2737 C2728 1.390 . S
C2737 H2730 0.950 . S
C2737 C2734 1.387 . S
C2738 C2739 1.387 . S
C2738 H2742 0.950 . S
C2738 C2747 1.390 . S
C2739 C2738 1.387 . S
C2739 C2741 1.387 . S
H2740 C2747 0.950 . S
C2741 C2739 1.387 . S
C2741 C2743 1.390 . S
C2741 H2745 0.950 . S
H2742 C2738 0.950 . S
C2743 C2741 1.390 . S
C2743 C2744 1.387 . S
C2743 H2746 0.950 . S
C2744 C2743 1.387 . S
C2744 C2747 1.387 . S
H2745 C2741 0.950 . S
H2746 C2743 0.950 . S
C2747 C2738 1.390 . S
C2747 H2740 0.950 . S
C2747 C2744 1.387 . S
C2748 C2749 1.387 1_455 S
C2748 H2752 0.950 . S
C2748 C2757 1.390 . S
C2749 C2748 1.387 1_655 S
C2749 C2751 1.387 1_655 S
H2750 C2757 0.950 . S
C2751 C2749 1.387 1_455 S
C2751 C2753 1.390 . S
C2751 H2755 0.950 1_455 S
H2752 C2748 0.950 . S
C2753 C2751 1.390 . S
C2753 C2754 1.387 . S
C2753 H2756 0.950 . S
C2754 C2753 1.387 . S
C2754 C2757 1.387 . S
H2755 C2751 0.950 1_655 S
H2756 C2753 0.950 . S
C2757 C2748 1.390 . S
C2757 H2750 0.950 . S
C2757 C2754 1.387 . S
C2758 C2759 1.387 . S
C2758 H2762 0.950 . S
C2758 C2767 1.390 . S
C2759 C2758 1.387 . S
C2759 C2761 1.387 . S
H2760 C2767 0.950 . S
C2761 C2759 1.387 . S
C2761 C2763 1.390 . S
C2761 H2765 0.950 . S
H2762 C2758 0.950 . S
C2763 C2761 1.390 . S
C2763 C2764 1.387 . S
C2763 H2766 0.950 . S
C2764 C2763 1.387 . S
C2764 C2767 1.387 . S
H2765 C2761 0.950 . S
H2766 C2763 0.950 . S
C2767 C2758 1.390 . S
C2767 H2760 0.950 . S
C2767 C2764 1.387 . S
C2768 C2769 1.387 . S
C2768 H2772 0.950 . S
C2768 C2777 1.390 . S
C2769 C2768 1.387 . S
C2769 C2771 1.387 . S
H2770 C2777 0.950 . S
C2771 C2769 1.387 . S
C2771 C2773 1.390 . S
C2771 H2775 0.950 . S
H2772 C2768 0.950 . S
C2773 C2771 1.390 . S
C2773 C2774 1.387 . S
C2773 H2776 0.950 . S
C2774 C2773 1.387 . S
C2774 C2777 1.387 . S
H2775 C2771 0.950 . S
H2776 C2773 0.950 . S
C2777 C2768 1.390 . S
C2777 H2770 0.950 . S
C2777 C2774 1.387 . S
C2778 C2779 1.387 . S
C2778 H2782 0.950 . S
C2778 C2787 1.390 . S
C2779 C2778 1.387 . S
C2779 C2781 1.387 . S
H2780 C2787 0.950 . S
C2781 C2779 1.387 . S
C2781 C2783 1.390 . S
C2781 H2785 0.950 . S
H2782 C2778 0.950 . S
C2783 C2781 1.390 . S
C2783 C2784 1.387 . S
C2783 H2786 0.950 . S
C2784 C2783 1.387 . S
C2784 C2787 1.387 . S
H2785 C2781 0.950 . S
H2786 C2783 0.950 . S
C2787 C2778 1.390 . S
C2787 H2780 0.950 . S
C2787 C2784 1.387 . S
C2788 C2789 1.387 . S
C2788 H2792 0.950 . S
C2788 C2797 1.390 . S
C2789 C2788 1.387 . S
C2789 C2791 1.387 . S
H2790 C2797 0.950 . S
C2791 C2789 1.387 . S
C2791 C2793 1.390 . S
C2791 H2795 0.950 . S
H2792 C2788 0.950 . S
C2793 C2791 1.390 . S
C2793 C2794 1.387 . S
C2793 H2796 0.950 . S
C2794 C2793 1.387 . S
C2794 C2797 1.387 . S
H2795 C2791 0.950 . S
H2796 C2793 0.950 . S
C2797 C2788 1.390 . S
C2797 H2790 0.950 . S
C2797 C2794 1.387 . S
C2798 C2799 1.387 . S
C2798 H2802 0.950 . S
C2798 C2807 1.390 . S
C2799 C2798 1.387 . S
C2799 C2801 1.387 . S
H2800 C2807 0.950 . S
C2801 C2799 1.387 . S
C2801 C2803 1.390 . S
C2801 H2805 0.950 . S
H2802 C2798 0.950 . S
C2803 C2801 1.390 . S
C2803 C2804 1.387 . S
C2803 H2806 0.950 . S
C2804 C2803 1.387 . S
C2804 C2807 1.387 . S
H2805 C2801 0.950 . S
H2806 C2803 0.950 . S
C2807 C2798 1.390 . S
C2807 H2800 0.950 . S
C2807 C2804 1.387 . S
C2808 C2809 1.387 . S
C2808 H2812 0.950 . S
C2808 C2817 1.390 . S
C2809 C2808 1.387 . S
C2809 C2811 1.387 . S
H2810 C2817 0.950 . S
C2811 C2809 1.387 . S
C2811 C2813 1.390 . S
C2811 H2815 0.950 . S
H2812 C2808 0.950 . S
C2813 C2811 1.390 . S
C2813 C2814 1.387 . S
C2813 H2816 0.950 . S
C2814 C2813 1.387 . S
C2814 C2817 1.387 . S
H2815 C2811 0.950 . S
H2816 C2813 0.950 . S
C2817 C2808 1.390 . S
C2817 H2810 0.950 . S
C2817 C2814 1.387 . S
C2818 C2819 1.387 . S
C2818 H2822 0.950 . S
C2818 C2827 1.390 . S
C2819 C2818 1.387 . S
C2819 C2821 1.387 . S
H2820 C2827 0.950 . S
C2821 C2819 1.387 . S
C2821 C2823 1.390 . S
C2821 H2825 0.950 . S
H2822 C2818 0.950 . S
C2823 C2821 1.390 . S
C2823 C2824 1.387 . S
C2823 H2826 0.950 . S
C2824 C2823 1.387 . S
C2824 C2827 1.387 . S
H2825 C2821 0.950 . S
H2826 C2823 0.950 . S
C2827 C2818 1.390 . S
C2827 H2820 0.950 . S
C2827 C2824 1.387 . S
C2828 C2829 1.387 . S
C2828 H2832 0.950 . S
C2828 C2837 1.390 . S
C2829 C2828 1.387 . S
C2829 C2831 1.387 . S
H2830 C2837 0.950 . S
C2831 C2829 1.387 . S
C2831 C2833 1.390 . S
C2831 H2835 0.950 . S
H2832 C2828 0.950 . S
C2833 C2831 1.390 . S
C2833 C2834 1.387 . S
C2833 H2836 0.950 . S
C2834 C2833 1.387 . S
C2834 C2837 1.387 . S
H2835 C2831 0.950 . S
H2836 C2833 0.950 . S
C2837 C2828 1.390 . S
C2837 H2830 0.950 . S
C2837 C2834 1.387 . S
C2838 C2839 1.387 . S
C2838 H2842 0.950 . S
C2838 C2847 1.390 . S
C2839 C2838 1.387 . S
C2839 C2841 1.387 . S
H2840 C2847 0.950 . S
C2841 C2839 1.387 . S
C2841 C2843 1.390 . S
C2841 H2845 0.950 . S
H2842 C2838 0.950 . S
C2843 C2841 1.390 . S
C2843 C2844 1.387 . S
C2843 H2846 0.950 . S
C2844 C2843 1.387 . S
C2844 C2847 1.387 . S
H2845 C2841 0.950 . S
H2846 C2843 0.950 . S
C2847 C2838 1.390 . S
C2847 H2840 0.950 . S
C2847 C2844 1.387 . S
C2848 C2849 1.387 . S
C2848 H2852 0.950 . S
C2848 C2857 1.390 . S
C2849 C2848 1.387 . S
C2849 C2851 1.387 . S
H2850 C2857 0.950 . S
C2851 C2849 1.387 . S
C2851 C2853 1.390 . S
C2851 H2855 0.950 . S
H2852 C2848 0.950 . S
C2853 C2851 1.390 . S
C2853 C2854 1.387 . S
C2853 H2856 0.950 . S
C2854 C2853 1.387 . S
C2854 C2857 1.387 . S
H2855 C2851 0.950 . S
H2856 C2853 0.950 . S
C2857 C2848 1.390 . S
C2857 H2850 0.950 . S
C2857 C2854 1.387 . S
C2858 C2859 1.387 . S
C2858 H2862 0.950 . S
C2858 C2867 1.390 . S
C2859 C2858 1.387 . S
C2859 C2861 1.387 . S
H2860 C2867 0.950 . S
C2861 C2859 1.387 . S
C2861 C2863 1.390 . S
C2861 H2865 0.950 . S
H2862 C2858 0.950 . S
C2863 C2861 1.390 . S
C2863 C2864 1.387 . S
C2863 H2866 0.950 . S
C2864 C2863 1.387 . S
C2864 C2867 1.387 . S
H2865 C2861 0.950 . S
H2866 C2863 0.950 . S
C2867 C2858 1.390 . S
C2867 H2860 0.950 . S
C2867 C2864 1.387 . S
C2868 C2869 1.387 . S
C2868 H2872 0.950 . S
C2868 C2877 1.390 . S
C2869 C2868 1.387 . S
C2869 C2871 1.387 . S
H2870 C2877 0.950 . S
C2871 C2869 1.387 . S
C2871 C2873 1.390 . S
C2871 H2875 0.950 . S
H2872 C2868 0.950 . S
C2873 C2871 1.390 . S
C2873 C2874 1.387 . S
C2873 H2876 0.950 . S
C2874 C2873 1.387 . S
C2874 C2877 1.387 . S
H2875 C2871 0.950 . S
H2876 C2873 0.950 . S
C2877 C2868 1.390 . S
C2877 H2870 0.950 . S
C2877 C2874 1.387 . S
C2878 C2879 1.387 . S
C2878 H2882 0.950 . S
C2878 C2887 1.390 1_565 S
C2879 C2878 1.387 . S
C2879 C2881 1.387 1_554 S
H2880 C2887 0.950 . S
C2881 C2879 1.387 1_556 S
C2881 C2883 1.389 1_565 S
C2881 H2885 0.950 . S
H2882 C2878 0.950 . S
C2883 C2881 1.389 1_545 S
C2883 C2884 1.388 1_556 S
C2883 H2886 0.950 . S
C2884 C2883 1.388 1_554 S
C2884 C2887 1.387 . S
H2885 C2881 0.950 . S
H2886 C2883 0.950 . S
C2887 C2878 1.390 1_545 S
C2887 H2880 0.950 . S
C2887 C2884 1.387 . S
C2888 C2889 1.387 . S
C2888 H2892 0.950 . S
C2888 C2897 1.390 . S
C2889 C2888 1.387 . S
C2889 C2891 1.387 . S
H2890 C2897 0.950 . S
C2891 C2889 1.387 . S
C2891 C2893 1.390 . S
C2891 H2895 0.950 . S
H2892 C2888 0.950 . S
C2893 C2891 1.390 . S
C2893 C2894 1.387 . S
C2893 H2896 0.950 . S
C2894 C2893 1.387 . S
C2894 C2897 1.387 . S
H2895 C2891 0.950 . S
H2896 C2893 0.950 . S
C2897 C2888 1.390 . S
C2897 H2890 0.950 . S
C2897 C2894 1.387 . S
C2898 C2899 1.387 . S
C2898 H2902 0.950 . S
C2898 C2907 1.390 . S
C2899 C2898 1.387 . S
C2899 C2901 1.387 1_554 S
H2900 C2907 0.950 . S
C2901 C2899 1.387 1_556 S
C2901 C2903 1.387 1_556 S
C2901 H2905 0.950 . S
H2902 C2898 0.950 . S
C2903 C2901 1.387 1_554 S
C2903 C2904 1.394 . S
C2903 H2906 0.946 1_554 S
C2904 C2903 1.394 . S
C2904 C2907 1.387 . S
H2905 C2901 0.950 . S
H2906 C2903 0.946 1_556 S
C2907 C2898 1.390 . S
C2907 H2900 0.950 . S
C2907 C2904 1.387 . S
C2908 C2909 1.387 . S
C2908 H2912 0.950 . S
C2908 C2917 1.390 . S
C2909 C2908 1.387 . S
C2909 C2911 1.387 . S
H2910 C2917 0.950 . S
C2911 C2909 1.387 . S
C2911 C2913 1.390 . S
C2911 H2915 0.950 . S
H2912 C2908 0.950 . S
C2913 C2911 1.390 . S
C2913 C2914 1.387 . S
C2913 H2916 0.950 . S
C2914 C2913 1.387 . S
C2914 C2917 1.387 . S
H2915 C2911 0.950 . S
H2916 C2913 0.950 . S
C2917 C2908 1.390 . S
C2917 H2910 0.950 . S
C2917 C2914 1.387 . S
C2918 C2919 1.387 . S
C2918 H2922 0.950 . S
C2918 C2927 1.390 . S
C2919 C2918 1.387 . S
C2919 C2921 1.387 . S
H2920 C2927 0.950 . S
C2921 C2919 1.387 . S
C2921 C2923 1.390 . S
C2921 H2925 0.950 . S
H2922 C2918 0.950 . S
C2923 C2921 1.390 . S
C2923 C2924 1.387 . S
C2923 H2926 0.950 . S
C2924 C2923 1.387 . S
C2924 C2927 1.387 . S
H2925 C2921 0.950 . S
H2926 C2923 0.950 . S
C2927 C2918 1.390 . S
C2927 H2920 0.950 . S
C2927 C2924 1.387 . S
C2928 C2929 1.387 . S
C2928 H2932 0.950 . S
C2928 C2937 1.390 . S
C2929 C2928 1.387 . S
C2929 C2931 1.387 . S
H2930 C2937 0.950 . S
C2931 C2929 1.387 . S
C2931 C2933 1.390 . S
C2931 H2935 0.950 . S
H2932 C2928 0.950 . S
C2933 C2931 1.390 . S
C2933 C2934 1.387 . S
C2933 H2936 0.950 . S
C2934 C2933 1.387 . S
C2934 C2937 1.387 . S
H2935 C2931 0.950 . S
H2936 C2933 0.950 . S
C2937 C2928 1.390 . S
C2937 H2930 0.950 . S
C2937 C2934 1.387 . S
C2938 C2939 1.387 . S
C2938 H2942 0.950 . S
C2938 C2947 1.390 . S
C2939 C2938 1.387 . S
C2939 C2941 1.387 . S
H2940 C2947 0.950 . S
C2941 C2939 1.387 . S
C2941 C2943 1.390 . S
C2941 H2945 0.950 . S
H2942 C2938 0.950 . S
C2943 C2941 1.390 . S
C2943 C2944 1.387 . S
C2943 H2946 0.950 . S
C2944 C2943 1.387 . S
C2944 C2947 1.387 . S
H2945 C2941 0.950 . S
H2946 C2943 0.950 . S
C2947 C2938 1.390 . S
C2947 H2940 0.950 . S
C2947 C2944 1.387 . S
C2948 C2949 1.387 . S
C2948 H2952 0.950 . S
C2948 C2957 1.390 . S
C2949 C2948 1.387 . S
C2949 C2951 1.387 . S
H2950 C2957 0.950 . S
C2951 C2949 1.387 . S
C2951 C2953 1.390 . S
C2951 H2955 0.950 . S
H2952 C2948 0.950 . S
C2953 C2951 1.390 . S
C2953 C2954 1.387 . S
C2953 H2956 0.950 . S
C2954 C2953 1.387 . S
C2954 C2957 1.387 . S
H2955 C2951 0.950 . S
H2956 C2953 0.950 . S
C2957 C2948 1.390 . S
C2957 H2950 0.950 . S
C2957 C2954 1.387 . S
C2958 C2959 1.387 . S
C2958 H2962 0.950 . S
C2958 C2967 1.390 . S
C2959 C2958 1.387 . S
C2959 C2961 1.387 . S
H2960 C2967 0.950 . S
C2961 C2959 1.387 . S
C2961 C2963 1.390 . S
C2961 H2965 0.950 . S
H2962 C2958 0.950 . S
C2963 C2961 1.390 . S
C2963 C2964 1.387 . S
C2963 H2966 0.950 . S
C2964 C2963 1.387 . S
C2964 C2967 1.387 . S
H2965 C2961 0.950 . S
H2966 C2963 0.950 . S
C2967 C2958 1.390 . S
C2967 H2960 0.950 . S
C2967 C2964 1.387 . S
C2968 C2969 1.387 . S
C2968 H2972 0.950 . S
C2968 C2977 1.390 . S
C2969 C2968 1.387 . S
C2969 C2971 1.387 . S
H2970 C2977 0.950 . S
C2971 C2969 1.387 . S
C2971 C2973 1.390 . S
C2971 H2975 0.950 . S
H2972 C2968 0.950 . S
C2973 C2971 1.390 . S
C2973 C2974 1.387 . S
C2973 H2976 0.950 1_556 S
C2974 C2973 1.387 . S
C2974 C2977 1.387 . S
H2975 C2971 0.950 . S
H2976 C2973 0.950 1_554 S
C2977 C2968 1.390 . S
C2977 H2970 0.950 . S
C2977 C2974 1.387 . S
C2978 C2979 1.387 . S
C2978 H2982 0.950 . S
C2978 C2987 1.390 . S
C2979 C2978 1.387 . S
C2979 C2981 1.387 . S
H2980 C2987 0.950 . S
C2981 C2979 1.387 . S
C2981 C2983 1.390 . S
C2981 H2985 0.950 . S
H2982 C2978 0.950 . S
C2983 C2981 1.390 . S
C2983 C2984 1.387 . S
C2983 H2986 0.950 . S
C2984 C2983 1.387 . S
C2984 C2987 1.387 . S
H2985 C2981 0.950 . S
H2986 C2983 0.950 . S
C2987 C2978 1.390 . S
C2987 H2980 0.950 . S
C2987 C2984 1.387 . S
C2988 C2989 1.387 . S
C2988 H2992 0.950 . S
C2988 C2997 1.390 . S
C2989 C2988 1.387 . S
C2989 C2991 1.387 . S
H2990 C2997 0.950 . S
C2991 C2989 1.387 . S
C2991 C2993 1.390 . S
C2991 H2995 0.950 . S
H2992 C2988 0.950 . S
C2993 C2991 1.390 . S
C2993 C2994 1.387 . S
C2993 H2996 0.950 . S
C2994 C2993 1.387 . S
C2994 C2997 1.387 . S
H2995 C2991 0.950 . S
H2996 C2993 0.950 . S
C2997 C2988 1.390 . S
C2997 H2990 0.950 . S
C2997 C2994 1.387 . S
C2998 C2999 1.387 . S
C2998 H3002 0.950 . S
C2998 C3007 1.390 . S
C2999 C2998 1.387 . S
C2999 C3001 1.387 . S
H3000 C3007 0.950 . S
C3001 C2999 1.387 . S
C3001 C3003 1.390 . S
C3001 H3005 0.950 . S
H3002 C2998 0.950 . S
C3003 C3001 1.390 . S
C3003 C3004 1.387 . S
C3003 H3006 0.950 . S
C3004 C3003 1.387 . S
C3004 C3007 1.387 . S
H3005 C3001 0.950 . S
H3006 C3003 0.950 . S
C3007 C2998 1.390 . S
C3007 H3000 0.950 . S
C3007 C3004 1.387 . S
C3008 C3009 1.387 . S
C3008 H3012 0.950 . S
C3008 C3017 1.390 . S
C3009 C3008 1.387 . S
C3009 C3011 1.387 . S
H3010 C3017 0.950 . S
C3011 C3009 1.387 . S
C3011 C3013 1.390 . S
C3011 H3015 0.950 . S
H3012 C3008 0.950 . S
C3013 C3011 1.390 . S
C3013 C3014 1.387 . S
C3013 H3016 0.950 . S
C3014 C3013 1.387 . S
C3014 C3017 1.387 . S
H3015 C3011 0.950 . S
H3016 C3013 0.950 . S
C3017 C3008 1.390 . S
C3017 H3010 0.950 . S
C3017 C3014 1.387 . S
C3018 C3019 1.387 . S
C3018 H3022 0.950 . S
C3018 C3027 1.390 . S
C3019 C3018 1.387 . S
C3019 C3021 1.387 . S
H3020 C3027 0.950 . S
C3021 C3019 1.387 . S
C3021 C3023 1.390 . S
C3021 H3025 0.950 . S
H3022 C3018 0.950 . S
C3023 C3021 1.390 . S
C3023 C3024 1.387 . S
C3023 H3026 0.950 . S
C3024 C3023 1.387 . S
C3024 C3027 1.387 . S
H3025 C3021 0.950 . S
H3026 C3023 0.950 . S
C3027 C3018 1.390 . S
C3027 H3020 0.950 . S
C3027 C3024 1.387 . S
C3028 C3029 1.387 . S
C3028 H3032 0.950 . S
C3028 C3037 1.390 1_655 S
C3029 C3028 1.387 . S
C3029 C3031 1.387 . S
H3030 C3037 0.950 . S
C3031 C3029 1.387 . S
C3031 C3033 1.390 1_655 S
C3031 H3035 0.950 . S
H3032 C3028 0.950 . S
C3033 C3031 1.390 1_455 S
C3033 C3034 1.387 . S
C3033 H3036 0.950 . S
C3034 C3033 1.387 . S
C3034 C3037 1.387 . S
H3035 C3031 0.950 . S
H3036 C3033 0.950 . S
C3037 C3028 1.390 1_455 S
C3037 H3030 0.950 . S
C3037 C3034 1.387 . S
C3038 C3039 1.387 . S
C3038 H3042 0.950 . S
C3038 C3047 1.390 . S
C3039 C3038 1.387 . S
C3039 C3041 1.387 . S
H3040 C3047 0.950 . S
C3041 C3039 1.387 . S
C3041 C3043 1.390 . S
C3041 H3045 0.950 . S
H3042 C3038 0.950 . S
C3043 C3041 1.390 . S
C3043 C3044 1.387 . S
C3043 H3046 0.950 . S
C3044 C3043 1.387 . S
C3044 C3047 1.387 . S
H3045 C3041 0.950 . S
H3046 C3043 0.950 . S
C3047 C3038 1.390 . S
C3047 H3040 0.950 . S
C3047 C3044 1.387 . S
C3048 C3049 1.387 . S
C3048 H3052 0.950 . S
C3048 C3057 1.390 . S
C3049 C3048 1.387 . S
C3049 C3051 1.387 . S
H3050 C3057 0.950 . S
C3051 C3049 1.387 . S
C3051 C3053 1.390 . S
C3051 H3055 0.950 . S
H3052 C3048 0.950 . S
C3053 C3051 1.390 . S
C3053 C3054 1.387 . S
C3053 H3056 0.950 . S
C3054 C3053 1.387 . S
C3054 C3057 1.387 . S
H3055 C3051 0.950 . S
H3056 C3053 0.950 . S
C3057 C3048 1.390 . S
C3057 H3050 0.950 . S
C3057 C3054 1.387 . S
C3058 C3059 1.387 . S
C3058 H3062 0.950 . S
C3058 C3067 1.390 . S
C3059 C3058 1.387 . S
C3059 C3061 1.387 . S
H3060 C3067 0.950 . S
C3061 C3059 1.387 . S
C3061 C3063 1.390 . S
C3061 H3065 0.950 . S
H3062 C3058 0.950 . S
C3063 C3061 1.390 . S
C3063 C3064 1.387 . S
C3063 H3066 0.950 . S
C3064 C3063 1.387 . S
C3064 C3067 1.387 . S
H3065 C3061 0.950 . S
H3066 C3063 0.950 . S
C3067 C3058 1.390 . S
C3067 H3060 0.950 . S
C3067 C3064 1.387 . S
C3068 C3069 1.387 . S
C3068 H3072 0.950 . S
C3068 C3077 1.390 . S
C3069 C3068 1.387 . S
C3069 C3071 1.387 . S
H3070 C3077 0.950 . S
C3071 C3069 1.387 . S
C3071 C3073 1.390 . S
C3071 H3075 0.950 . S
H3072 C3068 0.950 . S
C3073 C3071 1.390 . S
C3073 C3074 1.387 . S
C3073 H3076 0.958 . S
C3074 C3073 1.387 . S
C3074 C3077 1.387 . S
H3075 C3071 0.950 . S
H3076 C3073 0.958 . S
C3077 C3068 1.390 . S
C3077 H3070 0.950 . S
C3077 C3074 1.387 . S
C3078 C3079 1.387 . S
C3078 H3082 0.950 . S
C3078 C3087 1.390 . S
C3079 C3078 1.387 . S
C3079 C3081 1.387 . S
H3080 C3087 0.950 . S
C3081 C3079 1.387 . S
C3081 C3083 1.390 . S
C3081 H3085 0.950 . S
H3082 C3078 0.950 . S
C3083 C3081 1.390 . S
C3083 C3084 1.387 . S
C3083 H3086 0.950 . S
C3084 C3083 1.387 . S
C3084 C3087 1.387 . S
H3085 C3081 0.950 . S
H3086 C3083 0.950 . S
C3087 C3078 1.390 . S
C3087 H3080 0.950 . S
C3087 C3084 1.387 . S
C3088 C3089 1.387 . S
C3088 H3092 0.950 . S
C3088 C3097 1.390 . S
C3089 C3088 1.387 . S
C3089 C3091 1.387 . S
H3090 C3097 0.950 . S
C3091 C3089 1.387 . S
C3091 C3093 1.390 . S
C3091 H3095 0.950 . S
H3092 C3088 0.950 . S
C3093 C3091 1.390 . S
C3093 C3094 1.387 . S
C3093 H3096 0.950 . S
C3094 C3093 1.387 . S
C3094 C3097 1.387 . S
H3095 C3091 0.950 . S
H3096 C3093 0.950 . S
C3097 C3088 1.390 . S
C3097 H3090 0.950 . S
C3097 C3094 1.387 . S
C3098 C3099 1.387 . S
C3098 H3102 0.950 . S
C3098 C3107 1.390 . S
C3099 C3098 1.387 . S
C3099 C3101 1.387 . S
H3100 C3107 0.950 . S
C3101 C3099 1.387 . S
C3101 C3103 1.390 . S
C3101 H3105 0.950 . S
H3102 C3098 0.950 . S
C3103 C3101 1.390 . S
C3103 C3104 1.387 . S
C3103 H3106 0.950 . S
C3104 C3103 1.387 . S
C3104 C3107 1.387 . S
H3105 C3101 0.950 . S
H3106 C3103 0.950 . S
C3107 C3098 1.390 . S
C3107 H3100 0.950 . S
C3107 C3104 1.387 . S
C3108 C3109 1.387 . S
C3108 H3112 0.950 . S
C3108 C3117 1.390 . S
C3109 C3108 1.387 . S
C3109 C3111 1.387 . S
H3110 C3117 0.950 . S
C3111 C3109 1.387 . S
C3111 C3113 1.390 . S
C3111 H3115 0.950 . S
H3112 C3108 0.950 . S
C3113 C3111 1.390 . S
C3113 C3114 1.387 . S
C3113 H3116 0.950 . S
C3114 C3113 1.387 . S
C3114 C3117 1.387 . S
H3115 C3111 0.950 . S
H3116 C3113 0.950 . S
C3117 C3108 1.390 . S
C3117 H3110 0.950 . S
C3117 C3114 1.387 . S
C3118 C3119 1.387 . S
C3118 H3122 0.950 1_554 S
C3118 C3127 1.389 . S
C3119 C3118 1.387 . S
C3119 C3121 1.387 . S
H3120 C3127 0.924 1_556 S
C3121 C3119 1.387 . S
C3121 C3123 1.390 . S
C3121 H3125 0.950 . S
H3122 C3118 0.950 1_556 S
C3123 C3121 1.390 . S
C3123 C3124 1.387 . S
C3123 H3126 0.950 . S
C3124 C3123 1.387 . S
C3124 C3127 1.415 . S
H3125 C3121 0.950 . S
H3126 C3123 0.950 . S
C3127 C3118 1.389 . S
C3127 H3120 0.924 1_554 S
C3127 C3124 1.415 . S
C3128 C3129 1.387 . S
C3128 H3132 0.950 . S
C3128 C3137 1.390 . S
C3129 C3128 1.387 . S
C3129 C3131 1.387 . S
H3130 C3137 0.950 . S
C3131 C3129 1.387 . S
C3131 C3133 1.390 . S
C3131 H3135 0.950 . S
H3132 C3128 0.950 . S
C3133 C3131 1.390 . S
C3133 C3134 1.387 . S
C3133 H3136 0.950 . S
C3134 C3133 1.387 . S
C3134 C3137 1.387 . S
H3135 C3131 0.950 . S
H3136 C3133 0.950 . S
C3137 C3128 1.390 . S
C3137 H3130 0.950 . S
C3137 C3134 1.387 . S
C3138 C3139 1.387 . S
C3138 H3142 0.938 1_554 S
C3138 C3147 1.390 1_554 S
C3139 C3138 1.387 . S
C3139 C3141 1.387 . S
H3140 C3147 0.950 . S
C3141 C3139 1.387 . S
C3141 C3143 1.390 . S
C3141 H3145 0.950 . S
H3142 C3138 0.938 1_556 S
C3143 C3141 1.390 . S
C3143 C3144 1.387 . S
C3143 H3146 0.950 . S
C3144 C3143 1.387 . S
C3144 C3147 1.387 1_554 S
H3145 C3141 0.950 . S
H3146 C3143 0.950 . S
C3147 C3138 1.390 1_556 S
C3147 H3140 0.950 . S
C3147 C3144 1.387 1_556 S
C3148 C3149 1.387 . S
C3148 H3152 0.950 . S
C3148 C3157 1.390 . S
C3149 C3148 1.387 . S
C3149 C3151 1.387 . S
H3150 C3157 0.950 . S
C3151 C3149 1.387 . S
C3151 C3153 1.390 . S
C3151 H3155 0.950 . S
H3152 C3148 0.950 . S
C3153 C3151 1.390 . S
C3153 C3154 1.387 . S
C3153 H3156 0.950 . S
C3154 C3153 1.387 . S
C3154 C3157 1.387 . S
H3155 C3151 0.950 . S
H3156 C3153 0.950 . S
C3157 C3148 1.390 . S
C3157 H3150 0.950 . S
C3157 C3154 1.387 . S
C3158 C3159 1.387 . S
C3158 H3162 0.950 . S
C3158 C3167 1.390 . S
C3159 C3158 1.387 . S
C3159 C3161 1.387 . S
H3160 C3167 0.950 . S
C3161 C3159 1.387 . S
C3161 C3163 1.390 . S
C3161 H3165 0.950 . S
H3162 C3158 0.950 . S
C3163 C3161 1.390 . S
C3163 C3164 1.387 . S
C3163 H3166 0.950 . S
C3164 C3163 1.387 . S
C3164 C3167 1.387 . S
H3165 C3161 0.950 . S
H3166 C3163 0.950 . S
C3167 C3158 1.390 . S
C3167 H3160 0.950 . S
C3167 C3164 1.387 . S
C2209 C255 1.977 . S
C2214 C920 1.842 . S
C2219 C147 2.213 . S
C2224 C1011 2.201 . S
C2229 C184 1.621 . S
C2234 C1088 1.576 . S
C2244 C1186 1.354 . S
C2239 C220 1.466 . S
C2249 C40 1.574 . S
C2254 C1270 1.627 . S
C2264 C1342 1.042 . S
C2259 C74 1.099 . S
C2274 C1431 1.353 . S
C2269 C110 1.233 . S
C2279 C14 1.764 . S
C2284 C1508 1.485 . S
C2294 C927 2.117 . S
C2289 C579 2.225 1_455 S
C2299 C616 0.854 . S
C2304 C1018 0.836 . S
C2314 C1095 1.270 . S
C2309 C687 1.312 . S
C2324 C1172 1.671 . S
C2319 C436 1.733 . S
C2329 C580 2.192 1_455 S
C2334 C1256 2.022 . S
C2344 C1358 1.216 . S
C2339 C615 1.323 . S
C2354 C1438 0.850 . S
C2349 C688 0.877 . S
C2364 C1515 1.710 . S
C2359 C435 1.905 . S
C2374 C934 1.432 . S
C2369 C410 1.482 1_554 S
C2379 C722 1.959 . S
C2384 C1599 1.884 1_556 S
C2394 C1687 2.349 . S
C2389 C842 2.482 . S
C2404 C1760 0.726 . S
C2399 C794 0.721 . S
C2409 C302 1.448 . S
C2414 C1522 1.537 . S
C2419 C338 1.537 . S
C2424 C1102 1.510 . S
C2429 C830 2.239 . S
C2434 C1851 2.170 . S
C2444 C1928 0.861 . S
C2439 C758 0.879 . S
C2454 C931 1.828 . S
C2449 C158 1.841 . S
C2464 C1946 2.193 . S
C2459 C254 2.245 . S
C2469 C218 1.641 . S
C2474 C1099 1.604 . S
C2479 C194 1.372 . S
C2484 C1846 1.341 . S
C2494 C1258 1.647 . S
C2489 C3 1.584 . S
C2499 C111 1.014 . S
C2504 C1690 0.958 . S
C2514 C1442 1.360 . S
C2509 C76 1.224 . S
C2524 C2023 1.552 . S
C2519 C50 1.611 . S
C2534 C938 2.087 . S
C2529 C364 2.199 . S
C2544 C1930 0.861 . S
C2539 C795 0.862 . S
C2549 C292 1.307 . S
C2554 C1106 1.228 . S
C2559 C723 1.708 . S
C2564 C1855 1.616 . S
C2569 C363 2.217 . S
C2574 C1267 2.009 . S
C2584 C1683 1.217 . S
C2579 C796 1.363 . S
C2589 C291 0.845 . S
C2594 C1426 0.810 1_545 S
C2599 C724 1.909 . S
C2604 C2030 1.710 . S
C2609 C482 1.391 . S
C2614 C922 1.453 1_554 S
C2619 C434 1.917 . S
C2624 C1610 1.855 . S
C2629 C662 2.432 . S
C2634 C1340 2.322 . S
C2639 C614 0.690 . S
C2644 C1771 0.689 . S
C2654 C2014 1.440 . S
C2649 C698 1.126 1_565 S
C2659 C554 1.386 . S
C2664 C1090 1.549 . S
C2674 C1190 2.122 . S
C2669 C650 2.189 . S
C2684 C1015 0.816 . S
C2679 C506 0.857 . S
C2689 C183 1.975 . S
C2694 C2096 1.840 . S
C2704 C1935 2.197 . S
C2699 C219 2.213 . S
C2709 C256 1.620 . S
C2714 C2180 1.574 . S
C2719 C148 1.465 . S
C2724 C1858 1.353 . S
C2729 C122 1.612 . S
C2734 C1606 1.646 . S
C2744 C1678 1.007 . S
C2739 C2 1.064 . S
C2754 C1767 1.350 . S
C2749 C39 1.210 . S
C2764 C2012 1.544 . S
C2759 C86 1.797 . S
C2774 C2103 2.126 . S
C2769 C651 2.234 . S
C2779 C472 0.854 . S
C2784 C1942 0.831 . S
C2794 C2187 1.253 . S
C2789 C507 1.296 . S
C2804 C1844 1.672 . S
C2799 C544 1.732 . S
C2814 C1592 2.027 . S
C2809 C652 2.203 . S
C2819 C471 1.311 . S
C2824 C1694 1.210 . S
C2834 C1774 0.834 . S
C2829 C508 0.869 . S
C2839 C543 1.904 . S
C2844 C2019 1.723 . S
C2854 C2110 1.445 . S
C2849 C806 1.498 . S
C2859 C326 1.923 . S
C2864 C1263 1.852 . S
C2874 C1351 2.332 . S
C2869 C374 2.465 . S
C2884 C1424 0.747 . S
C2879 C398 0.751 . S
C2894 C2026 1.433 . S
C2889 C770 1.362 . S
C2899 C734 1.528 1_554 S
C2904 C2194 1.499 . S
C2914 C1179 2.160 . S
C2909 C362 2.221 . S
C2924 C1004 0.881 . S
C2919 C290 0.906 . S
C2929 C230 1.838 . S
C2934 C2107 1.822 . S
C2944 C1022 2.197 . S
C2939 C182 2.251 . S
C2949 C146 1.639 . S
C2954 C2191 1.606 . S
C2959 C266 1.374 . S
C2964 C1174 1.346 . S
C2969 C75 1.593 . S
C2974 C1594 1.651 . S
C2984 C1354 1.039 . S
C2979 C38 1.096 . S
C2989 C4 1.181 . S
C2994 C1778 1.329 . S
C2999 C112 1.782 . S
C3004 C1519 1.512 . S
C3014 C2114 2.083 . S
C3009 C832 2.198 . S
C3019 C399 0.882 . S
C3024 C1006 0.875 . S
C3034 C2198 1.222 . S
C3029 C760 1.303 . S
C3039 C327 1.706 . S
C3044 C1183 1.616 . S
C3049 C831 2.249 . S
C3054 C1603 2.048 . S
C3064 C1347 1.212 . S
C3059 C400 1.358 . S
C3069 C759 0.864 . S
C3074 C1762 0.845 1_655 S
C3084 C1526 1.710 . S
C3079 C328 1.895 . S
C3094 C2098 1.458 . S
C3089 C626 1.398 . S
C3104 C1274 1.862 1_665 S
C3099 C542 1.932 . S
C3109 C590 2.401 . S
C3114 C1676 2.294 . S
C3124 C1435 0.705 . S
C3119 C470 0.701 . S
C3129 C518 1.076 . S
C3134 C1510 1.350 . S
C3139 C446 1.377 . S
C3144 C2182 1.533 1_554 S
C3154 C1862 2.134 . S
C3149 C578 2.203 1_565 S
C3164 C1939 0.805 . S
C3159 C686 0.840 . S
