# Generated by pormake.
# Topology gar, (4,6)-cn, num edge types: 1
# Building blocks:
#     Node 0, Type 0, BuildingBlock: QUQFOY_clean_sbu_1, # of connection points: 4
#     Node 1, Type 0, BuildingBlock: QUQFOY_clean_sbu_1, # of connection points: 4
#     Node 2, Type 0, BuildingBlock: QUQFOY_clean_sbu_1, # of connection points: 4
#     Node 3, Type 0, BuildingBlock: QUQFOY_clean_sbu_1, # of connection points: 4
#     Node 4, Type 0, BuildingBlock: QUQFOY_clean_sbu_1, # of connection points: 4
#     Node 5, Type 0, BuildingBlock: QUQFOY_clean_sbu_1, # of connection points: 4
#     Node 6, Type 0, BuildingBlock: QUQFOY_clean_sbu_1, # of connection points: 4
#     Node 7, Type 0, BuildingBlock: QUQFOY_clean_sbu_1, # of connection points: 4
#     Node 8, Type 0, BuildingBlock: QUQFOY_clean_sbu_1, # of connection points: 4
#     Node 9, Type 0, BuildingBlock: QUQFOY_clean_sbu_1, # of connection points: 4
#     Node 10, Type 0, BuildingBlock: QUQFOY_clean_sbu_1, # of connection points: 4
#     Node 11, Type 0, BuildingBlock: QUQFOY_clean_sbu_1, # of connection points: 4
#     Node 12, Type 0, BuildingBlock: QUQFOY_clean_sbu_1, # of connection points: 4
#     Node 13, Type 0, BuildingBlock: QUQFOY_clean_sbu_1, # of connection points: 4
#     Node 14, Type 0, BuildingBlock: QUQFOY_clean_sbu_1, # of connection points: 4
#     Node 15, Type 0, BuildingBlock: QUQFOY_clean_sbu_1, # of connection points: 4
#     Node 16, Type 0, BuildingBlock: QUQFOY_clean_sbu_1, # of connection points: 4
#     Node 17, Type 0, BuildingBlock: QUQFOY_clean_sbu_1, # of connection points: 4
#     Node 18, Type 0, BuildingBlock: QUQFOY_clean_sbu_1, # of connection points: 4
#     Node 19, Type 0, BuildingBlock: QUQFOY_clean_sbu_1, # of connection points: 4
#     Node 20, Type 0, BuildingBlock: QUQFOY_clean_sbu_1, # of connection points: 4
#     Node 21, Type 0, BuildingBlock: QUQFOY_clean_sbu_1, # of connection points: 4
#     Node 22, Type 0, BuildingBlock: QUQFOY_clean_sbu_1, # of connection points: 4
#     Node 23, Type 0, BuildingBlock: QUQFOY_clean_sbu_1, # of connection points: 4
#     Node 24, Type 1, BuildingBlock: BETDAH_clean_sbu_0, # of connection points: 6
#     Node 25, Type 1, BuildingBlock: BETDAH_clean_sbu_0, # of connection points: 6
#     Node 26, Type 1, BuildingBlock: BETDAH_clean_sbu_0, # of connection points: 6
#     Node 27, Type 1, BuildingBlock: BETDAH_clean_sbu_0, # of connection points: 6
#     Node 28, Type 1, BuildingBlock: BETDAH_clean_sbu_0, # of connection points: 6
#     Node 29, Type 1, BuildingBlock: BETDAH_clean_sbu_0, # of connection points: 6
#     Node 30, Type 1, BuildingBlock: BETDAH_clean_sbu_0, # of connection points: 6
#     Node 31, Type 1, BuildingBlock: BETDAH_clean_sbu_0, # of connection points: 6
#     Node 32, Type 1, BuildingBlock: BETDAH_clean_sbu_0, # of connection points: 6
#     Node 33, Type 1, BuildingBlock: BETDAH_clean_sbu_0, # of connection points: 6
#     Node 34, Type 1, BuildingBlock: BETDAH_clean_sbu_0, # of connection points: 6
#     Node 35, Type 1, BuildingBlock: BETDAH_clean_sbu_0, # of connection points: 6
#     Node 36, Type 1, BuildingBlock: BETDAH_clean_sbu_0, # of connection points: 6
#     Node 37, Type 1, BuildingBlock: BETDAH_clean_sbu_0, # of connection points: 6
#     Node 38, Type 1, BuildingBlock: BETDAH_clean_sbu_0, # of connection points: 6
#     Node 39, Type 1, BuildingBlock: BETDAH_clean_sbu_0, # of connection points: 6
#     Edge 40, Type (0, 1), BuildingBlock: ZUJKAS_clean_linker_0, # of connection points: 2
#     Edge 41, Type (0, 1), BuildingBlock: ZUJKAS_clean_linker_0, # of connection points: 2
#     Edge 42, Type (0, 1), BuildingBlock: ZUJKAS_clean_linker_0, # of connection points: 2
#     Edge 43, Type (0, 1), BuildingBlock: ZUJKAS_clean_linker_0, # of connection points: 2
#     Edge 44, Type (0, 1), BuildingBlock: ZUJKAS_clean_linker_0, # of connection points: 2
#     Edge 45, Type (0, 1), BuildingBlock: ZUJKAS_clean_linker_0, # of connection points: 2
#     Edge 46, Type (0, 1), BuildingBlock: ZUJKAS_clean_linker_0, # of connection points: 2
#     Edge 47, Type (0, 1), BuildingBlock: ZUJKAS_clean_linker_0, # of connection points: 2
#     Edge 48, Type (0, 1), BuildingBlock: ZUJKAS_clean_linker_0, # of connection points: 2
#     Edge 49, Type (0, 1), BuildingBlock: ZUJKAS_clean_linker_0, # of connection points: 2
#     Edge 50, Type (0, 1), BuildingBlock: ZUJKAS_clean_linker_0, # of connection points: 2
#     Edge 51, Type (0, 1), BuildingBlock: ZUJKAS_clean_linker_0, # of connection points: 2
#     Edge 52, Type (0, 1), BuildingBlock: ZUJKAS_clean_linker_0, # of connection points: 2
#     Edge 53, Type (0, 1), BuildingBlock: ZUJKAS_clean_linker_0, # of connection points: 2
#     Edge 54, Type (0, 1), BuildingBlock: ZUJKAS_clean_linker_0, # of connection points: 2
#     Edge 55, Type (0, 1), BuildingBlock: ZUJKAS_clean_linker_0, # of connection points: 2
#     Edge 56, Type (0, 1), BuildingBlock: ZUJKAS_clean_linker_0, # of connection points: 2
#     Edge 57, Type (0, 1), BuildingBlock: ZUJKAS_clean_linker_0, # of connection points: 2
#     Edge 58, Type (0, 1), BuildingBlock: ZUJKAS_clean_linker_0, # of connection points: 2
#     Edge 59, Type (0, 1), BuildingBlock: ZUJKAS_clean_linker_0, # of connection points: 2
#     Edge 60, Type (0, 1), BuildingBlock: ZUJKAS_clean_linker_0, # of connection points: 2
#     Edge 61, Type (0, 1), BuildingBlock: ZUJKAS_clean_linker_0, # of connection points: 2
#     Edge 62, Type (0, 1), BuildingBlock: ZUJKAS_clean_linker_0, # of connection points: 2
#     Edge 63, Type (0, 1), BuildingBlock: ZUJKAS_clean_linker_0, # of connection points: 2
#     Edge 64, Type (0, 1), BuildingBlock: ZUJKAS_clean_linker_0, # of connection points: 2
#     Edge 65, Type (0, 1), BuildingBlock: ZUJKAS_clean_linker_0, # of connection points: 2
#     Edge 66, Type (0, 1), BuildingBlock: ZUJKAS_clean_linker_0, # of connection points: 2
#     Edge 67, Type (0, 1), BuildingBlock: ZUJKAS_clean_linker_0, # of connection points: 2
#     Edge 68, Type (0, 1), BuildingBlock: ZUJKAS_clean_linker_0, # of connection points: 2
#     Edge 69, Type (0, 1), BuildingBlock: ZUJKAS_clean_linker_0, # of connection points: 2
#     Edge 70, Type (0, 1), BuildingBlock: ZUJKAS_clean_linker_0, # of connection points: 2
#     Edge 71, Type (0, 1), BuildingBlock: ZUJKAS_clean_linker_0, # of connection points: 2
#     Edge 72, Type (0, 1), BuildingBlock: ZUJKAS_clean_linker_0, # of connection points: 2
#     Edge 73, Type (0, 1), BuildingBlock: ZUJKAS_clean_linker_0, # of connection points: 2
#     Edge 74, Type (0, 1), BuildingBlock: ZUJKAS_clean_linker_0, # of connection points: 2
#     Edge 75, Type (0, 1), BuildingBlock: ZUJKAS_clean_linker_0, # of connection points: 2
#     Edge 76, Type (0, 1), BuildingBlock: ZUJKAS_clean_linker_0, # of connection points: 2
#     Edge 77, Type (0, 1), BuildingBlock: ZUJKAS_clean_linker_0, # of connection points: 2
#     Edge 78, Type (0, 1), BuildingBlock: ZUJKAS_clean_linker_0, # of connection points: 2
#     Edge 79, Type (0, 1), BuildingBlock: ZUJKAS_clean_linker_0, # of connection points: 2
#     Edge 80, Type (0, 1), BuildingBlock: ZUJKAS_clean_linker_0, # of connection points: 2
#     Edge 81, Type (0, 1), BuildingBlock: ZUJKAS_clean_linker_0, # of connection points: 2
#     Edge 82, Type (0, 1), BuildingBlock: ZUJKAS_clean_linker_0, # of connection points: 2
#     Edge 83, Type (0, 1), BuildingBlock: ZUJKAS_clean_linker_0, # of connection points: 2
#     Edge 84, Type (0, 1), BuildingBlock: ZUJKAS_clean_linker_0, # of connection points: 2
#     Edge 85, Type (0, 1), BuildingBlock: ZUJKAS_clean_linker_0, # of connection points: 2
#     Edge 86, Type (0, 1), BuildingBlock: ZUJKAS_clean_linker_0, # of connection points: 2
#     Edge 87, Type (0, 1), BuildingBlock: ZUJKAS_clean_linker_0, # of connection points: 2
#     Edge 88, Type (0, 1), BuildingBlock: ZUJKAS_clean_linker_0, # of connection points: 2
#     Edge 89, Type (0, 1), BuildingBlock: ZUJKAS_clean_linker_0, # of connection points: 2
#     Edge 90, Type (0, 1), BuildingBlock: ZUJKAS_clean_linker_0, # of connection points: 2
#     Edge 91, Type (0, 1), BuildingBlock: ZUJKAS_clean_linker_0, # of connection points: 2
#     Edge 92, Type (0, 1), BuildingBlock: ZUJKAS_clean_linker_0, # of connection points: 2
#     Edge 93, Type (0, 1), BuildingBlock: ZUJKAS_clean_linker_0, # of connection points: 2
#     Edge 94, Type (0, 1), BuildingBlock: ZUJKAS_clean_linker_0, # of connection points: 2
#     Edge 95, Type (0, 1), BuildingBlock: ZUJKAS_clean_linker_0, # of connection points: 2
#     Edge 96, Type (0, 1), BuildingBlock: ZUJKAS_clean_linker_0, # of connection points: 2
#     Edge 97, Type (0, 1), BuildingBlock: ZUJKAS_clean_linker_0, # of connection points: 2
#     Edge 98, Type (0, 1), BuildingBlock: ZUJKAS_clean_linker_0, # of connection points: 2
#     Edge 99, Type (0, 1), BuildingBlock: ZUJKAS_clean_linker_0, # of connection points: 2
#     Edge 100, Type (0, 1), BuildingBlock: ZUJKAS_clean_linker_0, # of connection points: 2
#     Edge 101, Type (0, 1), BuildingBlock: ZUJKAS_clean_linker_0, # of connection points: 2
#     Edge 102, Type (0, 1), BuildingBlock: ZUJKAS_clean_linker_0, # of connection points: 2
#     Edge 103, Type (0, 1), BuildingBlock: ZUJKAS_clean_linker_0, # of connection points: 2
#     Edge 104, Type (0, 1), BuildingBlock: ZUJKAS_clean_linker_0, # of connection points: 2
#     Edge 105, Type (0, 1), BuildingBlock: ZUJKAS_clean_linker_0, # of connection points: 2
#     Edge 106, Type (0, 1), BuildingBlock: ZUJKAS_clean_linker_0, # of connection points: 2
#     Edge 107, Type (0, 1), BuildingBlock: ZUJKAS_clean_linker_0, # of connection points: 2
#     Edge 108, Type (0, 1), BuildingBlock: ZUJKAS_clean_linker_0, # of connection points: 2
#     Edge 109, Type (0, 1), BuildingBlock: ZUJKAS_clean_linker_0, # of connection points: 2
#     Edge 110, Type (0, 1), BuildingBlock: ZUJKAS_clean_linker_0, # of connection points: 2
#     Edge 111, Type (0, 1), BuildingBlock: ZUJKAS_clean_linker_0, # of connection points: 2
#     Edge 112, Type (0, 1), BuildingBlock: ZUJKAS_clean_linker_0, # of connection points: 2
#     Edge 113, Type (0, 1), BuildingBlock: ZUJKAS_clean_linker_0, # of connection points: 2
#     Edge 114, Type (0, 1), BuildingBlock: ZUJKAS_clean_linker_0, # of connection points: 2
#     Edge 115, Type (0, 1), BuildingBlock: ZUJKAS_clean_linker_0, # of connection points: 2
#     Edge 116, Type (0, 1), BuildingBlock: ZUJKAS_clean_linker_0, # of connection points: 2
#     Edge 117, Type (0, 1), BuildingBlock: ZUJKAS_clean_linker_0, # of connection points: 2
#     Edge 118, Type (0, 1), BuildingBlock: ZUJKAS_clean_linker_0, # of connection points: 2
#     Edge 119, Type (0, 1), BuildingBlock: ZUJKAS_clean_linker_0, # of connection points: 2
#     Edge 120, Type (0, 1), BuildingBlock: ZUJKAS_clean_linker_0, # of connection points: 2
#     Edge 121, Type (0, 1), BuildingBlock: ZUJKAS_clean_linker_0, # of connection points: 2
#     Edge 122, Type (0, 1), BuildingBlock: ZUJKAS_clean_linker_0, # of connection points: 2
#     Edge 123, Type (0, 1), BuildingBlock: ZUJKAS_clean_linker_0, # of connection points: 2
#     Edge 124, Type (0, 1), BuildingBlock: ZUJKAS_clean_linker_0, # of connection points: 2
#     Edge 125, Type (0, 1), BuildingBlock: ZUJKAS_clean_linker_0, # of connection points: 2
#     Edge 126, Type (0, 1), BuildingBlock: ZUJKAS_clean_linker_0, # of connection points: 2
#     Edge 127, Type (0, 1), BuildingBlock: ZUJKAS_clean_linker_0, # of connection points: 2
#     Edge 128, Type (0, 1), BuildingBlock: ZUJKAS_clean_linker_0, # of connection points: 2
#     Edge 129, Type (0, 1), BuildingBlock: ZUJKAS_clean_linker_0, # of connection points: 2
#     Edge 130, Type (0, 1), BuildingBlock: ZUJKAS_clean_linker_0, # of connection points: 2
#     Edge 131, Type (0, 1), BuildingBlock: ZUJKAS_clean_linker_0, # of connection points: 2
#     Edge 132, Type (0, 1), BuildingBlock: ZUJKAS_clean_linker_0, # of connection points: 2
#     Edge 133, Type (0, 1), BuildingBlock: ZUJKAS_clean_linker_0, # of connection points: 2
#     Edge 134, Type (0, 1), BuildingBlock: ZUJKAS_clean_linker_0, # of connection points: 2
#     Edge 135, Type (0, 1), BuildingBlock: ZUJKAS_clean_linker_0, # of connection points: 2
# Relax obj value: 0.177
# Max RMSD: 0.296
# Mean RMSD: 0.180
data_MOF--net-gar--node1-QUQFOY_clean_sbu_1--node2-BETDAH_clean_sbu_0--edge1-ZUJKAS_clean_linker_0
_symmetry_space_group_name_H-M    P1
_symmetry_Int_Tables_number       1
_symmetry_cell_setting            triclinic
loop_
_symmetry_equiv_pos_as_xyz
'x, y, z'
_cell_length_a     79.214285
_cell_length_b     72.727268
_cell_length_c     73.26314
_cell_angle_alpha  97.776351
_cell_angle_beta   95.011585
_cell_angle_gamma 104.27255
loop_
_atom_site_label
_atom_site_type_symbol
_atom_site_fract_x
_atom_site_fract_y
_atom_site_fract_z
_atom_type_partial_charge
O0 O 0.11493 0.29694 0.39824 0.0
Cd1 Cd 0.10852 0.31628 0.38253 0.0
Cd2 Cd 0.10559 0.33534 0.41478 0.0
O3 O 0.11713 0.31577 0.42507 0.0
O4 O 0.11706 0.31305 0.35789 0.0
O5 O 0.12771 0.33886 0.37956 0.0
C6 C 0.12778 0.32983 0.36316 0.0
C7 C 0.11628 0.36833 0.42384 0.0
C8 C 0.11864 0.30027 0.41582 0.0
C9 C 0.07271 0.31983 0.38882 0.0
O10 O 0.0791 0.3267 0.40557 0.0
O11 O 0.08258 0.31574 0.37703 0.0
O12 O 0.10875 0.35754 0.43497 0.0
O13 O 0.11865 0.36018 0.40785 0.0
O14 O 0.99889 0.7117 0.66823 0.0
Cd15 Cd 1.00052 0.73739 0.68461 0.0
Cd16 Cd 1.00774 0.75234 0.6534 0.0
O17 O 1.00082 0.72349 0.64211 0.0
O18 O 0.98726 0.73104 0.70552 0.0
O19 O 0.97959 0.7479 0.6846 0.0
C20 C 0.97651 0.74013 0.69925 0.0
C21 C 0.99955 0.77391 0.63568 0.0
C22 C 0.99861 0.7092 0.65073 0.0
C23 C 0.03588 0.76343 0.68663 0.0
O24 O 0.03178 0.76356 0.6695 0.0
O25 O 0.02481 0.75433 0.6959 0.0
O26 O 0.01124 0.76517 0.63121 0.0
O27 O 0.99194 0.76997 0.65009 0.0
O28 O 0.62337 0.83054 0.8728 0.0
Cd29 Cd 0.60353 0.82752 0.88973 0.0
Cd30 Cd 0.58695 0.83803 0.86089 0.0
O31 O 0.60973 0.8399 0.84961 0.0
O32 O 0.61067 0.81405 0.90996 0.0
O33 O 0.58663 0.80192 0.89 0.0
C34 C 0.59663 0.80037 0.90426 0.0
C35 C 0.56146 0.81591 0.84653 0.0
C36 C 0.62328 0.83618 0.8571 0.0
C37 C 0.59179 0.86413 0.89653 0.0
O38 O 0.58606 0.86142 0.87939 0.0
O39 O 0.59873 0.85214 0.90332 0.0
O40 O 0.56717 0.83197 0.84058 0.0
O41 O 0.57035 0.8125 0.86072 0.0
O42 O 0.49934 0.21558 0.17172 0.0
Cd43 Cd 0.50114 0.24243 0.18584 0.0
Cd44 Cd 0.50727 0.2538 0.15363 0.0
O45 O 0.49906 0.22451 0.14415 0.0
O46 O 0.48843 0.23919 0.20771 0.0
O47 O 0.48018 0.25283 0.1843 0.0
C48 C 0.47756 0.2474 0.20014 0.0
C49 C 0.49741 0.27534 0.13734 0.0
C50 C 0.49778 0.21136 0.15416 0.0
C51 C 0.53663 0.2671 0.1851 0.0
O52 O 0.53227 0.26506 0.16769 0.0
O53 O 0.52555 0.26001 0.19544 0.0
O54 O 0.50793 0.26586 0.13082 0.0
O55 O 0.49176 0.27194 0.15288 0.0
O56 O 0.08002 0.78844 0.13303 0.0
Cd57 Cd 0.08585 0.81319 0.15239 0.0
Cd58 Cd 0.10246 0.82789 0.12399 0.0
O59 O 0.09286 0.79985 0.10988 0.0
O60 O 0.07093 0.80508 0.17204 0.0
O61 O 0.06736 0.82781 0.15616 0.0
C62 C 0.06227 0.81728 0.16852 0.0
C63 C 0.0956 0.85368 0.11145 0.0
C64 C 0.08407 0.78581 0.11665 0.0
C65 C 0.12542 0.82916 0.15948 0.0
O66 O 0.12484 0.83286 0.14296 0.0
O67 O 0.1113 0.82204 0.16599 0.0
O68 O 0.10741 0.8458 0.10539 0.0
O69 O 0.08758 0.84683 0.12468 0.0
O70 O 0.55401 0.77526 0.40715 0.0
Cd71 Cd 0.53592 0.77601 0.42565 0.0
Cd72 Cd 0.51857 0.78691 0.39359 0.0
O73 O 0.54004 0.78102 0.38197 0.0
O74 O 0.54493 0.76411 0.44618 0.0
O75 O 0.51931 0.75103 0.42912 0.0
C76 C 0.53094 0.75008 0.44221 0.0
C77 C 0.49148 0.78015 0.37465 0.0
C78 C 0.55332 0.77721 0.39014 0.0
C79 C 0.52911 0.81517 0.43027 0.0
O80 O 0.52292 0.81135 0.41319 0.0
O81 O 0.53452 0.80279 0.43819 0.0
O82 O 0.50471 0.79377 0.37264 0.0
O83 O 0.49374 0.76968 0.38708 0.0
O84 O 0.58011 0.29017 0.63793 0.0
Cd85 Cd 0.58603 0.31497 0.65733 0.0
Cd86 Cd 0.60248 0.33007 0.62902 0.0
O87 O 0.59265 0.30218 0.61488 0.0
O88 O 0.57044 0.30768 0.67671 0.0
O89 O 0.56784 0.33017 0.66006 0.0
C90 C 0.56212 0.31998 0.67248 0.0
C91 C 0.59644 0.35567 0.61558 0.0
C92 C 0.58401 0.28792 0.62146 0.0
C93 C 0.62565 0.33108 0.66428 0.0
O94 O 0.6249 0.33486 0.6478 0.0
O95 O 0.61161 0.32386 0.67093 0.0
O96 O 0.60783 0.34704 0.60974 0.0
O97 O 0.58844 0.34981 0.62921 0.0
O98 O 0.01853 0.23715 0.90808 0.0
Cd99 Cd 0.01936 0.25776 0.89088 0.0
Cd100 Cd 1.00953 0.27679 0.92125 0.0
O101 O 0.01464 0.25443 0.93375 0.0
O102 O 0.03386 0.25127 0.87115 0.0
O103 O 0.0423 0.27783 0.89192 0.0
C104 C 0.04566 0.26696 0.87799 0.0
C105 C 0.02117 0.30879 0.93558 0.0
C106 C 0.01729 0.23907 0.92541 0.0
C107 C 0.98405 0.26624 0.88599 0.0
O108 O 0.98655 0.27199 0.90344 0.0
O109 O 0.99597 0.26078 0.87786 0.0
O110 O 1.00826 0.29754 0.94149 0.0
O111 O 0.02799 0.30162 0.92183 0.0
O112 O 0.42736 0.09011 0.28256 0.0
Cd113 Cd 0.42043 0.08286 0.30772 0.0
Cd114 Cd 0.45353 0.07927 0.31144 0.0
O115 O 0.45553 0.0918 0.28801 0.0
O116 O 0.39629 0.086 0.30697 0.0
O117 O 0.418 0.10354 0.328 0.0
C118 C 0.40167 0.09932 0.32119 0.0
C119 C 0.47426 0.09174 0.33735 0.0
C120 C 0.44266 0.09387 0.27764 0.0
C121 C 0.4253 0.0434 0.30914 0.0
O122 O 0.44147 0.05022 0.308 0.0
O123 O 0.41518 0.05444 0.31063 0.0
O124 O 0.47781 0.08202 0.32279 0.0
O125 O 0.45888 0.09488 0.33699 0.0
O126 O 0.30097 0.19464 0.54224 0.0
Cd127 Cd 0.29609 0.17425 0.51853 0.0
Cd128 Cd 0.28075 0.20131 0.50517 0.0
O129 O 0.29002 0.21683 0.53165 0.0
O130 O 0.31016 0.15628 0.52538 0.0
O131 O 0.31537 0.17267 0.50235 0.0
C132 C 0.31954 0.16075 0.51235 0.0
C133 C 0.28641 0.21571 0.47869 0.0
C134 C 0.29759 0.21093 0.54488 0.0
C135 C 0.25691 0.16205 0.5062 0.0
O136 O 0.25817 0.17905 0.50291 0.0
O137 O 0.27056 0.15709 0.51179 0.0
O138 O 0.27511 0.21977 0.48914 0.0
O139 O 0.29483 0.20363 0.48345 0.0
O140 O 0.17091 0.01893 0.75201 0.0
Cd141 Cd 0.19293 0.02148 0.77222 0.0
Cd142 Cd 0.16361 0.04091 0.79505 0.0
O143 O 0.15126 0.03096 0.76661 0.0
O144 O 0.21013 1.00684 0.76014 0.0
O145 O 0.19774 0.99801 0.78401 0.0
C146 C 0.20807 0.99496 0.77188 0.0
C147 C 0.148 0.04009 0.8233 0.0
C148 C 0.15627 0.02369 0.75158 0.0
C149 C 0.20137 0.06607 0.78946 0.0
O150 O 0.18642 0.0638 0.79565 0.0
O151 O 0.20607 0.05158 0.78129 0.0
O152 O 0.14639 0.05134 0.81142 0.0
O153 O 0.15795 0.02887 0.81916 0.0
O154 O 0.27631 0.94186 0.02447 0.0
Cd155 Cd 0.28622 0.9541 1.00252 0.0
Cd156 Cd 0.28661 0.91738 0.98945 0.0
O157 O 0.27224 0.91183 0.011 0.0
O158 O 0.28049 0.97922 1.00458 0.0
O159 O 0.26971 0.95573 0.98076 0.0
C160 C 0.27052 0.97287 0.98898 0.0
C161 C 0.27857 0.89487 0.96226 0.0
C162 C 0.27051 0.92394 0.02443 0.0
C163 C 0.32133 0.94756 0.99968 0.0
O164 O 0.3133 0.92984 0.99556 0.0
O165 O 0.3128 0.96016 1.00194 0.0
O166 O 0.28644 0.89133 0.97699 0.0
O167 O 0.27485 0.91125 0.96299 0.0
O168 O 0.31582 0.40862 0.07991 0.0
Cd169 Cd 0.31813 0.42458 0.05843 0.0
Cd170 Cd 0.32634 0.3929 0.04101 0.0
O171 O 0.31865 0.38153 0.06451 0.0
O172 O 0.30602 0.44519 0.06513 0.0
O173 O 0.29647 0.42238 0.04064 0.0
C174 C 0.2944 0.43735 0.05097 0.0
C175 C 0.31538 0.37716 0.01066 0.0
C176 C 0.31583 0.39106 0.07933 0.0
C177 C 0.35479 0.43004 0.04796 0.0
O178 O 0.35093 0.41185 0.04338 0.0
O179 O 0.34322 0.43822 0.05341 0.0
O180 O 0.3261 0.37106 0.02107 0.0
O181 O 0.31012 0.39169 0.0178 0.0
O182 O 0.81625 0.16338 0.0751 0.0
Cd183 Cd 0.80524 0.13834 0.05639 0.0
Cd184 Cd 0.79492 0.16181 0.03514 0.0
O185 O 0.80996 0.1825 0.05611 0.0
O186 O 0.81922 0.11912 0.05786 0.0
O187 O 0.81659 0.13387 0.0336 0.0
C188 C 0.82292 0.1217 0.0414 0.0
C189 C 0.79738 0.168 1.00494 0.0
C190 C 0.81702 0.18021 0.07158 0.0
C191 C 0.76678 0.13202 0.04815 0.0
O192 O 0.77063 0.14657 0.04 0.0
O193 O 0.7788 0.12549 0.05537 0.0
O194 O 0.78913 0.17692 0.01595 0.0
O195 O 0.80429 0.15537 0.01108 0.0
O196 O 0.16775 0.51771 0.20766 0.0
Cd197 Cd 0.18743 0.53311 0.2283 0.0
Cd198 Cd 0.1612 0.543 0.24339 0.0
O199 O 0.14581 0.52212 0.22275 0.0
O200 O 0.20795 0.52203 0.22724 0.0
O201 O 0.19249 0.52212 0.25103 0.0
C202 C 0.20555 0.51798 0.2436 0.0
C203 C 0.15708 0.54397 0.2744 0.0
C204 C 0.15136 0.51446 0.20865 0.0
C205 C 0.18793 0.57452 0.23216 0.0
O206 O 0.17261 0.56947 0.2368 0.0
O207 O 0.19667 0.56221 0.22897 0.0
O208 O 0.14622 0.54845 0.26272 0.0
O209 O 0.1698 0.53788 0.26818 0.0
O210 O 0.813 0.90623 0.57805 0.0
Cd211 Cd 0.81631 0.92328 0.55743 0.0
Cd212 Cd 0.82441 0.8913 0.53924 0.0
O213 O 0.81719 0.87973 0.56276 0.0
O214 O 0.80476 0.94423 0.56493 0.0
O215 O 0.79513 0.92268 0.53953 0.0
C216 C 0.79332 0.9374 0.55044 0.0
C217 C 0.81374 0.87511 0.50891 0.0
C218 C 0.81361 0.88883 0.5774 0.0
C219 C 0.85313 0.92847 0.54727 0.0
O220 O 0.84883 0.91044 0.5416 0.0
O221 O 0.84187 0.93672 0.55348 0.0
O222 O 0.825 0.86977 0.51936 0.0
O223 O 0.80778 0.88913 0.51604 0.0
O224 O 0.94039 0.07409 0.23248 0.0
Cd225 Cd 0.92009 0.07541 0.25034 0.0
Cd226 Cd 0.95212 0.0589 0.27408 0.0
O227 O 0.96188 0.065 0.24802 0.0
O228 O 0.90204 0.08912 0.23906 0.0
O229 O 0.91855 0.10179 0.26525 0.0
C230 C 0.90653 0.10323 0.25279 0.0
C231 C 0.9695 0.06026 0.30416 0.0
C232 C 0.95534 0.06989 0.23316 0.0
C233 C 0.91196 0.03473 0.26415 0.0
O234 O 0.92808 0.03793 0.27078 0.0
O235 O 0.90645 0.04746 0.25641 0.0
O236 O 0.9685 0.04714 0.29006 0.0
O237 O 0.96179 0.07346 0.30105 0.0
O238 O 0.32027 0.67468 0.57999 0.0
Cd239 Cd 0.30647 0.65076 0.56118 0.0
Cd240 Cd 0.29804 0.6767 0.54298 0.0
O241 O 0.31867 0.69497 0.56063 0.0
O242 O 0.31731 0.62947 0.56446 0.0
O243 O 0.31748 0.64278 0.53892 0.0
C244 C 0.32192 0.63031 0.54805 0.0
C245 C 0.29391 0.68287 0.51281 0.0
C246 C 0.32471 0.69157 0.57606 0.0
C247 C 0.26937 0.65116 0.55894 0.0
O248 O 0.27464 0.66705 0.55321 0.0
O249 O 0.27988 0.64087 0.56163 0.0
O250 O 0.29181 0.69435 0.52688 0.0
O251 O 0.29898 0.66786 0.51583 0.0
O252 O 0.44039 0.57275 0.72972 0.0
Cd253 Cd 0.42038 0.5742 0.74799 0.0
Cd254 Cd 0.45251 0.55771 0.77111 0.0
O255 O 0.46201 0.56355 0.74487 0.0
O256 O 0.40231 0.58807 0.73702 0.0
O257 O 0.419 0.60057 0.76312 0.0
C258 C 0.40691 0.60211 0.75081 0.0
C259 C 0.47003 0.5594 0.80117 0.0
C260 C 0.45528 0.56843 0.7301 0.0
C261 C 0.41237 0.53353 0.76178 0.0
O262 O 0.42855 0.53669 0.76814 0.0
O263 O 0.40676 0.54628 0.75418 0.0
O264 O 0.46908 0.54622 0.78713 0.0
O265 O 0.46221 0.5725 0.79798 0.0
O266 O 0.65732 0.02783 0.70456 0.0
Cd267 Cd 0.6788 0.03988 0.72412 0.0
Cd268 Cd 0.655 0.04665 0.74604 0.0
O269 O 0.6376 0.03159 0.7232 0.0
O270 O 0.6981 0.02771 0.71882 0.0
O271 O 0.68453 0.02549 0.74398 0.0
C272 C 0.69649 0.02149 0.73445 0.0
C273 C 0.64996 0.03977 0.77549 0.0
C274 C 0.64139 0.02563 0.70736 0.0
C275 C 0.68209 0.08091 0.73835 0.0
O276 O 0.66842 0.07479 0.74593 0.0
O277 O 0.68868 0.06918 0.7288 0.0
O278 O 0.64052 0.04864 0.76665 0.0
O279 O 0.66194 0.03408 0.76725 0.0
O280 O 0.80062 0.69318 0.04106 0.0
Cd281 Cd 0.79715 0.6747 0.01615 0.0
Cd282 Cd 0.78413 0.70321 1.00402 0.0
O283 O 0.79343 0.71775 0.03082 0.0
O284 O 0.81035 0.65559 0.02181 0.0
O285 O 0.81763 0.67486 1.00133 0.0
C286 C 0.82076 0.66151 0.01004 0.0
C287 C 0.7912 0.71769 0.97794 0.0
C288 C 0.79881 0.71018 0.04411 0.0
C289 C 0.75862 0.66439 1.00227 0.0
O290 O 0.76068 0.68205 1.00093 0.0
O291 O 0.7718 0.65821 1.00692 0.0
O292 O 0.77995 0.72237 0.98813 0.0
O293 O 0.79886 0.70503 0.98284 0.0
O294 O 0.93774 0.58398 0.77298 0.0
Cd295 Cd 0.92926 0.57678 0.7976 0.0
Cd296 Cd 0.96211 0.57727 0.80528 0.0
O297 O 0.96596 0.59155 0.78311 0.0
O298 O 0.90505 0.57979 0.79574 0.0
O299 O 0.92624 0.59735 0.81739 0.0
C300 C 0.9101 0.59323 0.80995 0.0
C301 C 0.97586 0.59132 0.83473 0.0
C302 C 0.9536 0.59103 0.77066 0.0
C303 C 0.9371 0.5393 0.80115 0.0
O304 O 0.95305 0.54759 0.80028 0.0
O305 O 0.92578 0.54894 0.80203 0.0
O306 O 0.98429 0.58438 0.82237 0.0
O307 O 0.95959 0.59074 0.83009 0.0
O308 O 0.79266 0.44984 0.52486 0.0
Cd309 Cd 0.79808 0.45908 0.50009 0.0
Cd310 Cd 0.79593 0.42196 0.48861 0.0
O311 O 0.78477 0.41915 0.51267 0.0
O312 O 0.79182 0.48386 0.50078 0.0
O313 O 0.77804 0.45761 0.48078 0.0
C314 C 0.7795 0.47543 0.48739 0.0
C315 C 0.78469 0.39788 0.46298 0.0
C316 C 0.78622 0.43239 0.52637 0.0
C317 C 0.83132 0.45041 0.49197 0.0
O318 O 0.82279 0.43294 0.49065 0.0
O319 O 0.82351 0.46368 0.49431 0.0
O320 O 0.79308 0.39474 0.47758 0.0
O321 O 0.78207 0.41473 0.4631 0.0
O322 O 0.67174 0.52115 0.24904 0.0
Cd323 Cd 0.69385 0.52328 0.26904 0.0
Cd324 Cd 0.66492 0.54266 0.29222 0.0
O325 O 0.65209 0.53289 0.26391 0.0
O326 O 0.71066 0.50835 0.25657 0.0
O327 O 0.69841 0.49951 0.2805 0.0
C328 C 0.70853 0.49635 0.26818 0.0
C329 C 0.65006 0.54141 0.32104 0.0
C330 C 0.65707 0.52585 0.24876 0.0
C331 C 0.70261 0.56784 0.28616 0.0
O332 O 0.68763 0.56558 0.29229 0.0
O333 O 0.7074 0.5533 0.27824 0.0
O334 O 0.64831 0.55303 0.30958 0.0
O335 O 0.65972 0.53007 0.31618 0.0
Ho336 Ho 0.0341 0.03925 0.01835 0.0
Ho337 Ho 0.0692 0.06173 0.03667 0.0
C338 C 0.04252 0.08397 0.01938 0.0
C339 C 1.00225 0.01812 1.00841 0.0
C340 C 0.98586 0.02193 1.00103 0.0
C341 C 0.98591 0.04001 0.99636 0.0
C342 C 0.97009 0.04468 0.99213 0.0
C343 C 0.95395 0.0313 0.9925 0.0
C344 C 0.95403 1.01282 0.99622 0.0
C345 C 0.96987 1.00822 1.00052 0.0
C346 C 0.05824 0.04737 0.99361 0.0
C347 C 0.05975 0.01648 0.03692 0.0
C348 C 0.1021 0.07915 0.03953 0.0
C349 C 0.11612 0.0739 0.02985 0.0
C350 C 0.11461 0.05456 0.02289 0.0
C351 C 0.12713 0.04949 0.01246 0.0
C352 C 0.1414 0.06367 1.00869 0.0
C353 C 0.14296 0.08307 0.01577 0.0
C354 C 0.13034 0.08815 0.02624 0.0
C355 C 0.04718 0.06255 0.06409 0.0
O356 O 0.02964 0.06848 0.01909 0.0
O357 O 0.05901 0.08399 0.02387 0.0
O358 O 0.01455 0.01933 0.99755 0.0
O359 O 1.00832 0.02669 0.02536 0.0
O360 O 0.04214 0.04854 0.99145 0.0
O361 O 0.06096 0.04209 1.00934 0.0
O362 O 0.07247 0.03247 0.03935 0.0
O363 O 0.04371 0.01581 0.02973 0.0
O364 O 0.09547 0.06782 0.05102 0.0
O365 O 0.09002 0.08349 0.02887 0.0
O366 O 0.06384 0.07081 0.06606 0.0
O367 O 0.04293 0.05424 0.04723 0.0
H368 H 0.99817 0.05079 0.99677 0.0
H369 H 0.97055 0.0591 0.98957 0.0
H370 H 0.94183 1.00212 0.99636 0.0
H371 H 0.96963 0.99419 1.00412 0.0
H372 H 0.10362 0.04333 0.02532 0.0
H373 H 0.1257 0.03439 1.00752 0.0
H374 H 0.15376 0.09432 0.013 0.0
H375 H 0.13156 0.10318 0.03129 0.0
Ho376 Ho 0.31284 0.80476 0.24803 0.0
Ho377 Ho 0.30689 0.80969 0.29099 0.0
C378 C 0.32763 0.84619 0.27506 0.0
C379 C 0.31367 0.80729 0.21338 0.0
C380 C 0.30569 0.81787 0.20104 0.0
C381 C 0.29936 0.83338 0.20832 0.0
C382 C 0.29047 0.84238 0.19649 0.0
C383 C 0.28775 0.83592 0.17724 0.0
C384 C 0.29427 0.82047 0.17005 0.0
C385 C 0.30314 0.8115 0.18188 0.0
C386 C 0.33418 0.79207 0.27135 0.0
C387 C 0.28624 0.77125 0.26278 0.0
C388 C 0.30918 0.80609 0.32544 0.0
C389 C 0.29866 0.79276 0.33618 0.0
C390 C 0.29738 0.77295 0.33255 0.0
C391 C 0.28826 0.76056 0.3434 0.0
C392 C 0.28001 0.7676 0.35803 0.0
C393 C 0.28066 0.78731 0.36113 0.0
C394 C 0.29 0.79978 0.35037 0.0
C395 C 0.2806 0.81737 0.26891 0.0
O396 O 0.32174 0.83681 0.25794 0.0
O397 O 0.32514 0.83809 0.29008 0.0
O398 O 0.326 0.81763 0.22645 0.0
O399 O 0.30244 0.79373 0.21937 0.0
O400 O 0.32947 0.78457 0.25401 0.0
O401 O 0.32857 0.80674 0.27479 0.0
O402 O 0.29379 0.77857 0.27994 0.0
O403 O 0.28944 0.78044 0.24855 0.0
O404 O 0.30177 0.81856 0.31897 0.0
O405 O 0.31795 0.7985 0.31349 0.0
O406 O 0.28108 0.8185 0.28681 0.0
O407 O 0.29396 0.8124 0.26469 0.0
H408 H 0.30103 0.83829 0.22317 0.0
H409 H 0.28551 0.85418 0.20239 0.0
H410 H 0.29264 0.81541 0.15524 0.0
H411 H 0.30785 0.79945 0.1761 0.0
H412 H 0.30378 0.76698 0.3216 0.0
H413 H 0.28836 0.74558 0.34076 0.0
H414 H 0.27425 0.79319 0.3721 0.0
H415 H 0.29066 0.81497 0.35332 0.0
Ho416 Ho 0.57792 0.0559 0.52793 0.0
Ho417 Ho 0.5385 0.05013 0.51274 0.0
C418 C 0.55443 1.01415 0.5055 0.0
C419 C 0.60759 0.05351 0.54408 0.0
C420 C 0.62001 0.04133 0.54271 0.0
C421 C 0.62905 0.03866 0.55904 0.0
C422 C 0.64196 0.02857 0.55825 0.0
C423 C 0.6462 0.02095 0.54106 0.0
C424 C 0.63669 0.02313 0.52467 0.0
C425 C 0.62371 0.03321 0.52548 0.0
C426 C 0.57145 0.06523 0.49413 0.0
C427 C 0.56182 0.09181 0.53598 0.0
C428 C 0.5092 0.05229 0.49555 0.0
C429 C 0.4962 0.06364 0.497 0.0
C430 C 0.48387 0.06206 0.48158 0.0
C431 C 0.47096 0.07211 0.48262 0.0
C432 C 0.47001 0.08382 0.49923 0.0
C433 C 0.48254 0.08551 0.51468 0.0
C434 C 0.4956 0.07557 0.51354 0.0
C435 C 0.54472 0.04102 0.54662 0.0
O436 O 0.56808 0.02382 0.5178 0.0
O437 O 0.54256 0.02241 0.49896 0.0
O438 O 0.60626 0.06359 0.53077 0.0
O439 O 0.59243 0.04609 0.54948 0.0
O440 O 0.58503 0.07443 0.50595 0.0
O441 O 0.56279 0.05109 0.50043 0.0
O442 O 0.54787 0.08209 0.52402 0.0
O443 O 0.57414 0.08372 0.54178 0.0
O444 O 0.51015 0.04133 0.50816 0.0
O445 O 0.52464 0.0611 0.49167 0.0
O446 O 0.53084 0.03216 0.53505 0.0
O447 O 0.55361 0.05495 0.54022 0.0
H448 H 0.62634 0.04471 0.57248 0.0
H449 H 0.64872 0.02686 0.57116 0.0
H450 H 0.63964 0.01757 0.51119 0.0
H451 H 0.61686 0.03501 0.51266 0.0
H452 H 0.48409 0.05283 0.46873 0.0
H453 H 0.46142 0.07029 0.47055 0.0
H454 H 0.48225 0.09454 0.52761 0.0
H455 H 0.50507 0.07702 0.52559 0.0
Ho456 Ho 0.28702 0.30285 0.77173 0.0
Ho457 Ho 0.32223 0.29875 0.77949 0.0
C458 C 0.30481 0.31151 0.81426 0.0
C459 C 0.25401 0.30249 0.76958 0.0
C460 C 0.23932 0.30144 0.78084 0.0
C461 C 0.23693 0.28992 0.79482 0.0
C462 C 0.22212 0.28835 0.80432 0.0
C463 C 0.20946 0.29826 0.79999 0.0
C464 C 0.21225 0.31015 0.78631 0.0
C465 C 0.22698 0.31168 0.77685 0.0
C466 C 0.31224 0.33473 0.76667 0.0
C467 C 0.30443 0.29044 0.73686 0.0
C468 C 0.35535 0.29933 0.78209 0.0
C469 C 0.37051 0.30159 0.77148 0.0
C470 C 0.36961 0.30582 0.75334 0.0
C471 C 0.38448 0.30809 0.74387 0.0
C472 C 0.40048 0.30613 0.7524 0.0
C473 C 0.40119 0.30197 0.77062 0.0
C474 C 0.38638 0.2997 0.78 0.0
C475 C 0.29692 0.26691 0.78446 0.0
O476 O 0.28996 0.30493 0.80299 0.0
O477 O 0.32 0.31294 0.80785 0.0
O478 O 0.26678 0.3182 0.77316 0.0
O479 O 0.25962 0.2871 0.76608 0.0
O480 O 0.29763 0.32695 0.75591 0.0
O481 O 0.31283 0.32513 0.77987 0.0
O482 O 0.31927 0.2967 0.74822 0.0
O483 O 0.28923 0.28914 0.74323 0.0
O484 O 0.34261 0.2837 0.77709 0.0
O485 O 0.3496 0.3145 0.78633 0.0
O486 O 0.31141 0.27476 0.7954 0.0
O487 O 0.29645 0.27646 0.7712 0.0
H488 H 0.24632 0.28191 0.79818 0.0
H489 H 0.22037 0.27898 0.81468 0.0
H490 H 0.20301 0.3183 0.78286 0.0
H491 H 0.22861 0.32071 0.76617 0.0
H492 H 0.35746 0.30739 0.74655 0.0
H493 H 0.3834 0.31115 0.72982 0.0
H494 H 0.4133 0.30074 0.77781 0.0
H495 H 0.38737 0.29657 0.79405 0.0
Ho496 Ho 0.06154 0.06034 0.53478 0.0
Ho497 Ho 0.05492 0.01739 0.52322 0.0
C498 C 0.04447 0.04365 0.49218 0.0
C499 C 0.0765 0.09656 0.54462 0.0
C500 C 0.08272 0.1128 0.53459 0.0
C501 C 0.10033 0.11809 0.53115 0.0
C502 C 0.10608 0.13294 0.52107 0.0
C503 C 0.09438 0.14289 0.51433 0.0
C504 C 0.0769 0.13789 0.51816 0.0
C505 C 0.07114 0.12305 0.5282 0.0
C506 C 0.02932 0.03966 0.53902 0.0
C507 C 0.07221 0.03427 0.5657 0.0
C508 C 0.04012 0.98112 0.51287 0.0
C509 C 0.03337 0.96483 0.52239 0.0
C510 C 0.03426 0.9674 0.5418 0.0
C511 C 0.02774 0.95179 0.55073 0.0
C512 C 0.02027 0.93334 0.54037 0.0
C513 C 0.01933 0.93092 0.52088 0.0
C514 C 0.02582 0.94656 0.51198 0.0
C515 C 0.08693 0.03849 0.51843 0.0
O516 O 0.05306 0.05934 0.50407 0.0
O517 O 0.04284 0.02629 0.497 0.0
O518 O 0.05949 0.08927 0.54326 0.0
O519 O 0.08514 0.08333 0.54348 0.0
O520 O 0.0325 0.05675 0.53461 0.0
O521 O 0.04349 0.03511 0.54244 0.0
O522 O 0.06331 0.01856 0.55401 0.0
O523 O 0.07404 0.05154 0.5607 0.0
O524 O 0.05715 0.98839 0.51551 0.0
O525 O 0.03147 0.99432 0.51392 0.0
O526 O 0.08416 0.02146 0.52299 0.0
O527 O 0.07256 0.04259 0.51531 0.0
H528 H 0.10963 0.11061 0.53606 0.0
H529 H 0.11962 0.13641 0.51828 0.0
H530 H 0.06766 0.14557 0.51349 0.0
H531 H 0.05756 0.11955 0.53084 0.0
H532 H 0.04009 0.98145 0.55005 0.0
H533 H 0.02887 0.95409 0.56575 0.0
H534 H 0.01346 0.91696 0.5125 0.0
H535 H 0.02494 0.94438 0.49697 0.0
Ho536 Ho 0.3262 0.81374 0.77358 0.0
Ho537 Ho 0.29283 0.7865 0.75268 0.0
C538 C 0.32445 0.76693 0.76274 0.0
C539 C 0.3536 0.82714 0.79744 0.0
C540 C 0.36929 0.81978 0.79868 0.0
C541 C 0.37574 0.81562 0.81565 0.0
C542 C 0.38874 0.80567 0.81634 0.0
C543 C 0.39551 0.79984 0.80007 0.0
C544 C 0.38922 0.80425 0.78315 0.0
C545 C 0.37613 0.814 0.78242 0.0
C546 C 0.32541 0.80838 0.73645 0.0
C547 C 0.29465 0.83345 0.7636 0.0
C548 C 0.266 0.7703 0.72831 0.0
C549 C 0.24836 0.77326 0.72516 0.0
C550 C 0.24596 0.79184 0.726 0.0
C551 C 0.22911 0.79458 0.72506 0.0
C552 C 0.21438 0.77875 0.72311 0.0
C553 C 0.2168 0.76012 0.72172 0.0
C554 C 0.23367 0.75741 0.72277 0.0
C555 C 0.29359 0.79223 0.78998 0.0
O556 O 0.33222 0.78397 0.77319 0.0
O557 O 0.30946 0.76481 0.75196 0.0
O558 O 0.35084 0.83511 0.78282 0.0
O559 O 0.33941 0.81524 0.80101 0.0
O560 O 0.33353 0.82447 0.74709 0.0
O561 O 0.31959 0.79589 0.74623 0.0
O562 O 0.28664 0.81626 0.75338 0.0
O563 O 0.30987 0.83574 0.77413 0.0
O564 O 0.26924 0.76357 0.74356 0.0
O565 O 0.2791 0.78412 0.72534 0.0
O566 O 0.28533 0.77616 0.77939 0.0
O567 O 0.29945 0.80443 0.77999 0.0
H568 H 0.37037 0.81958 0.82825 0.0
H569 H 0.39356 0.80262 0.82959 0.0
H570 H 0.39417 0.7998 0.77041 0.0
H571 H 0.37103 0.8165 0.76903 0.0
H572 H 0.2571 0.80428 0.72769 0.0
H573 H 0.2276 0.80906 0.7259 0.0
H574 H 0.20567 0.74767 0.72037 0.0
H575 H 0.23527 0.74298 0.72221 0.0
Ho576 Ho 0.54731 0.02777 0.05473 0.0
Ho577 Ho 0.54353 0.03583 0.01434 0.0
C578 C 0.5093 1.01429 0.02855 0.0
C579 C 0.54328 0.02687 0.08913 0.0
C580 C 0.5309 0.03393 0.10018 0.0
C581 C 0.51467 0.0349 0.09158 0.0
C582 C 0.50396 0.04407 0.10142 0.0
C583 C 0.50929 0.05255 0.12009 0.0
C584 C 0.52541 0.05116 0.1288 0.0
C585 C 0.53615 0.042 0.11888 0.0
C586 C 0.55661 1.00314 0.02937 0.0
C587 C 0.58164 0.04829 0.03929 0.0
C588 C 0.54718 0.03979 0.98045 0.0
C589 C 0.56169 0.04128 0.96903 0.0
C590 C 0.57094 0.02709 0.96698 0.0
C591 C 0.58412 0.02846 0.95536 0.0
C592 C 0.58844 0.04417 0.9458 0.0
C593 C 0.57972 0.0588 0.94868 0.0
C594 C 0.56638 0.05726 0.96004 0.0
C595 C 0.53337 0.05978 0.03995 0.0
O596 O 0.51798 0.02028 0.04549 0.0
O597 O 0.51713 0.01625 0.01351 0.0
O598 O 0.53654 1.01208 0.07599 0.0
O599 O 0.55489 0.0404 0.0836 0.0
O600 O 0.56403 1.00772 0.04646 0.0
O601 O 0.54398 1.01049 0.02724 0.0
O602 O 0.57273 0.04234 0.02252 0.0
O603 O 0.574 0.04693 0.05453 0.0
O604 O 0.54884 0.05436 0.99371 0.0
O605 O 0.54092 0.0231 0.98555 0.0
O606 O 0.52598 0.05486 0.02289 0.0
O607 O 0.54641 0.05298 0.04202 0.0
H608 H 0.51042 0.02906 0.07711 0.0
H609 H 0.49171 0.04489 0.09423 0.0
H610 H 0.52975 0.05713 0.14329 0.0
H611 H 0.54872 0.04158 0.1257 0.0
H612 H 0.5678 1.01477 0.97407 0.0
H613 H 0.59047 0.01687 0.95341 0.0
H614 H 0.58302 0.07136 0.94196 0.0
H615 H 0.55959 0.06852 0.96167 0.0
Ho616 Ho 0.3106 0.32238 0.28525 0.0
Ho617 Ho 0.28855 0.28247 0.27184 0.0
C618 C 0.2701 0.31739 0.28166 0.0
C619 C 0.33183 0.35638 0.29068 0.0
C620 C 0.32897 0.37576 0.29151 0.0
C621 C 0.32136 0.38133 0.27582 0.0
C622 C 0.31646 0.39856 0.27742 0.0
C623 C 0.31901 0.41053 0.29472 0.0
C624 C 0.32739 0.40542 0.31022 0.0
C625 C 0.33243 0.38823 0.30859 0.0
C626 C 0.30077 0.3016 0.31243 0.0
C627 C 0.32928 0.28815 0.27533 0.0
C628 C 0.26734 0.24892 0.27019 0.0
C629 C 0.26965 0.23198 0.27824 0.0
C630 C 0.26784 0.23098 0.29705 0.0
C631 C 0.27329 0.21702 0.30556 0.0
C632 C 0.28061 0.20378 0.29546 0.0
C633 C 0.28107 0.2038 0.27632 0.0
C634 C 0.27557 0.21772 0.26778 0.0
C635 C 0.29762 0.30261 0.24409 0.0
O636 O 0.2851 0.32991 0.28102 0.0
O637 O 0.26887 0.29877 0.28025 0.0
O638 O 0.32641 0.34729 0.30415 0.0
O639 O 0.32791 0.34519 0.2745 0.0
O640 O 0.30124 0.31962 0.31321 0.0
O641 O 0.30599 0.29562 0.29757 0.0
O642 O 0.31438 0.27565 0.27646 0.0
O643 O 0.33039 0.30666 0.27627 0.0
O644 O 0.27683 0.25365 0.25696 0.0
O645 O 0.26704 0.26391 0.28211 0.0
O646 O 0.29559 0.28426 0.24293 0.0
O647 O 0.29319 0.30905 0.25928 0.0
H648 H 0.31852 0.37208 0.26244 0.0
H649 H 0.30984 0.40201 0.26528 0.0
H650 H 0.32964 0.41449 0.32367 0.0
H651 H 0.3384 0.3843 0.32086 0.0
H652 H 0.26303 0.24154 0.30548 0.0
H653 H 0.27239 0.21703 0.32019 0.0
H654 H 0.28672 0.19383 0.26815 0.0
H655 H 0.27691 0.21795 0.25321 0.0
Ho656 Ho 0.56282 0.56352 0.03252 0.0
Ho657 Ho 0.55786 0.51851 0.01927 0.0
C658 C 0.54547 0.54354 0.98921 0.0
C659 C 0.57623 0.60014 0.03665 0.0
C660 C 0.57192 0.61612 0.02872 0.0
C661 C 0.58314 0.63463 0.03382 0.0
C662 C 0.58076 0.64945 0.02441 0.0
C663 C 0.56715 0.64594 0.00965 0.0
C664 C 0.55547 0.62749 1.00512 0.0
C665 C 0.55784 0.61269 0.0146 0.0
C666 C 0.52966 0.5427 0.03528 0.0
C667 C 0.57277 0.53803 0.06334 0.0
C668 C 0.54961 0.48142 0.01506 0.0
C669 C 0.54281 0.46653 0.02622 0.0
C670 C 0.53237 0.46975 0.04022 0.0
C671 C 0.52547 0.45509 0.05016 0.0
C672 C 0.52911 0.43705 0.04646 0.0
C673 C 0.53998 0.43415 0.0327 0.0
C674 C 0.54666 0.44872 0.02263 0.0
C675 C 0.58746 0.54274 0.01235 0.0
O676 O 0.55295 0.55949 1.00144 0.0
O677 O 0.54455 0.52608 0.99348 0.0
O678 O 0.56558 0.59202 0.04772 0.0
O679 O 0.58078 0.58767 0.02473 0.0
O680 O 0.53498 0.56129 0.03986 0.0
O681 O 0.54236 0.53708 0.02977 0.0
O682 O 0.56499 0.5222 0.051 0.0
O683 O 0.57464 0.55555 0.05888 0.0
O684 O 0.56561 0.49212 0.02059 0.0
O685 O 0.53878 0.4913 0.00989 0.0
O686 O 0.57971 0.52659 1.0016 0.0
O687 O 0.57977 0.54431 0.02657 0.0
H688 H 0.59417 0.63745 0.04457 0.0
H689 H 0.59013 0.66341 0.02808 0.0
H690 H 0.54476 0.62438 0.99397 0.0
H691 H 0.54909 0.59841 0.01046 0.0
H692 H 0.52944 0.48351 0.0434 0.0
H693 H 0.51706 0.45785 0.06052 0.0
H694 H 0.54347 0.42066 0.02977 0.0
H695 H 0.55485 0.44605 0.01199 0.0
Ho696 Ho 0.82553 0.31467 0.27011 0.0
Ho697 Ho 0.7914 0.28631 0.25144 0.0
C698 C 0.82375 0.26764 0.26173 0.0
C699 C 0.8519 0.33254 0.29454 0.0
C700 C 0.86889 0.32977 0.30142 0.0
C701 C 0.87395 0.33289 0.32062 0.0
C702 C 0.8898 0.32989 0.32767 0.0
C703 C 0.9009 0.32385 0.31558 0.0
C704 C 0.89583 0.32075 0.29631 0.0
C705 C 0.87986 0.32356 0.28927 0.0
C706 C 0.82313 0.30639 0.23288 0.0
C707 C 0.79327 0.33338 0.25933 0.0
C708 C 0.76351 0.26948 0.22887 0.0
C709 C 0.74633 0.27387 0.22639 0.0
C710 C 0.74488 0.29142 0.22124 0.0
C711 C 0.72892 0.29633 0.22106 0.0
C712 C 0.71421 0.28386 0.22618 0.0
C713 C 0.71554 0.26612 0.23085 0.0
C714 C 0.73144 0.26113 0.23086 0.0
C715 C 0.79402 0.29451 0.28866 0.0
O716 O 0.83198 0.28517 0.27114 0.0
O717 O 0.8083 0.26495 0.25151 0.0
O718 O 0.85009 0.33648 0.27766 0.0
O719 O 0.83814 0.32015 0.29833 0.0
O720 O 0.83192 0.32297 0.24228 0.0
O721 O 0.81774 0.29508 0.24386 0.0
O722 O 0.78478 0.31568 0.25062 0.0
O723 O 0.80903 0.33635 0.26895 0.0
O724 O 0.76723 0.2638 0.24462 0.0
O725 O 0.77687 0.2818 0.22418 0.0
O726 O 0.78572 0.27777 0.27928 0.0
O727 O 0.7991 0.30593 0.27766 0.0
H728 H 0.86559 0.3376 0.33019 0.0
H729 H 0.8935 0.33258 0.34257 0.0
H730 H 0.90411 0.31592 0.28673 0.0
H731 H 0.87609 0.32082 0.27438 0.0
H732 H 0.75613 0.30162 0.21779 0.0
H733 H 0.7282 0.3101 0.21743 0.0
H734 H 0.70427 0.25612 0.23453 0.0
H735 H 0.73223 0.24752 0.23485 0.0
Ho736 Ho 0.05464 0.53109 0.53992 0.0
Ho737 Ho 0.05057 0.54698 0.50381 0.0
C738 C 0.0182 0.51613 0.51178 0.0
C739 C 0.0502 0.52092 0.57192 0.0
C740 C 0.03823 0.5253 0.58497 0.0
C741 C 0.02437 0.53282 0.57905 0.0
C742 C 0.01487 0.54031 0.59196 0.0
C743 C 0.019 0.54017 0.61094 0.0
C744 C 0.0323 0.53173 0.61673 0.0
C745 C 0.04195 0.52445 0.60381 0.0
C746 C 0.07046 0.51623 0.51274 0.0
C747 C 0.08618 0.5631 0.53208 0.0
C748 C 0.05499 0.56031 0.47327 0.0
C749 C 0.07027 0.56597 0.46338 0.0
C750 C 0.08333 0.55599 0.46352 0.0
C751 C 0.0974 0.56094 0.45337 0.0
C752 C 0.09881 0.57619 0.44315 0.0
C753 C 0.08618 0.58683 0.44396 0.0
C754 C 0.07196 0.58166 0.4539 0.0
C755 C 0.03526 0.56167 0.53178 0.0
O756 O 0.02579 0.52017 0.52919 0.0
O757 O 0.02635 0.52289 0.49819 0.0
O758 O 0.04285 0.5098 0.55626 0.0
O759 O 0.06229 0.53591 0.56953 0.0
O760 O 0.07578 0.51794 0.53025 0.0
O761 O 0.05594 0.52028 0.5106 0.0
O762 O 0.07939 0.55785 0.51446 0.0
O763 O 0.07725 0.55715 0.54547 0.0
O764 O 0.05545 0.57123 0.48911 0.0
O765 O 0.04942 0.54194 0.47399 0.0
O766 O 0.02889 0.55902 0.51445 0.0
O767 O 0.04984 0.55779 0.53315 0.0
H768 H 0.02139 0.53368 0.56453 0.0
H769 H 1.00461 0.54663 0.58716 0.0
H770 H 0.03581 0.53161 0.63133 0.0
H771 H 0.05274 0.51888 0.6086 0.0
H772 H 0.08247 0.5441 0.47113 0.0
H773 H 0.10672 0.55227 0.45294 0.0
H774 H 0.08706 0.59891 0.4366 0.0
H775 H 0.06217 0.58976 0.45399 0.0
Ho776 Ho 0.7859 0.80332 0.27025 0.0
Ho777 Ho 0.82497 0.80245 0.27827 0.0
C778 C 0.80435 0.81079 0.31303 0.0
C779 C 0.75248 0.80028 0.26782 0.0
C780 C 0.73766 0.79718 0.2788 0.0
C781 C 0.73782 0.78817 0.29458 0.0
C782 C 0.72338 0.78558 0.30465 0.0
C783 C 0.70868 0.7921 0.29917 0.0
C784 C 0.70868 0.80108 0.28334 0.0
C785 C 0.72302 0.80358 0.27328 0.0
C786 C 0.81046 0.83584 0.2659 0.0
C787 C 0.80495 0.78988 0.2362 0.0
C788 C 0.85885 0.81462 0.28119 0.0
C789 C 0.87399 0.81299 0.27125 0.0
C790 C 0.88604 0.83 0.26905 0.0
C791 C 0.90048 0.8294 0.25957 0.0
C792 C 0.90328 0.81171 0.2521 0.0
C793 C 0.89126 0.79459 0.25442 0.0
C794 C 0.87667 0.79522 0.26386 0.0
C795 C 0.80341 0.76594 0.27745 0.0
O796 O 0.78954 0.80589 0.30148 0.0
O797 O 0.81988 0.81202 0.30719 0.0
O798 O 0.76444 0.81662 0.27263 0.0
O799 O 0.75915 0.78574 0.26341 0.0
O800 O 0.79578 0.82826 0.25516 0.0
O801 O 0.81127 0.8257 0.27863 0.0
O802 O 0.82012 0.79692 0.247 0.0
O803 O 0.78967 0.7886 0.24261 0.0
O804 O 0.85075 0.80004 0.28866 0.0
O805 O 0.84807 0.82308 0.27331 0.0
O806 O 0.82048 0.77046 0.28006 0.0
O807 O 0.79916 0.78124 0.27509 0.0
H808 H 0.74908 0.78322 0.2991 0.0
H809 H 0.72383 0.77875 0.31687 0.0
H810 H 0.69748 0.806 0.27856 0.0
H811 H 0.72266 0.81052 0.26111 0.0
H812 H 0.88427 0.84387 0.27469 0.0
H813 H 0.90961 0.84283 0.25833 0.0
H814 H 0.893 0.78074 0.24872 0.0
H815 H 0.8675 0.78188 0.26529 0.0
Ho816 Ho 0.81396 0.30501 0.75314 0.0
Ho817 Ho 0.80846 0.31602 0.79544 0.0
C818 C 0.83137 0.34858 0.77594 0.0
C819 C 0.81553 0.30333 0.71802 0.0
C820 C 0.81303 0.31635 0.7051 0.0
C821 C 0.80762 0.33287 0.71118 0.0
C822 C 0.80425 0.34473 0.69862 0.0
C823 C 0.80627 0.34021 0.6798 0.0
C824 C 0.81204 0.32381 0.6739 0.0
C825 C 0.81536 0.31195 0.68647 0.0
C826 C 0.83297 0.29188 0.77863 0.0
C827 C 0.78757 0.27512 0.7713 0.0
C828 C 0.81199 0.31736 0.83088 0.0
C829 C 0.81569 0.30324 0.84202 0.0
C830 C 0.82011 0.28693 0.83345 0.0
C831 C 0.82232 0.27262 0.84361 0.0
C832 C 0.81992 0.27431 0.86248 0.0
C833 C 0.81579 0.2909 0.87108 0.0
C834 C 0.81371 0.30528 0.8609 0.0
C835 C 0.78437 0.32554 0.77203 0.0
O836 O 0.82683 0.33688 0.75974 0.0
O837 O 0.82641 0.34366 0.79177 0.0
O838 O 0.82941 0.30968 0.73048 0.0
O839 O 0.80138 0.2954 0.725 0.0
O840 O 0.82757 0.28299 0.76176 0.0
O841 O 0.82907 0.30771 0.78041 0.0
O842 O 0.7961 0.28411 0.7877 0.0
O843 O 0.79018 0.28241 0.75594 0.0
O844 O 0.79672 0.31188 0.82057 0.0
O845 O 0.82476 0.32522 0.82192 0.0
O846 O 0.78543 0.32909 0.79002 0.0
O847 O 0.79649 0.31793 0.76826 0.0
H848 H 0.80571 0.3364 0.72557 0.0
H849 H 0.79968 0.35715 0.70354 0.0
H850 H 0.81399 0.32015 0.65955 0.0
H851 H 0.81957 0.29925 0.68163 0.0
H852 H 0.82146 0.28506 0.81879 0.0
H853 H 0.82569 0.26015 0.83663 0.0
H854 H 0.81357 0.29249 0.88552 0.0
H855 H 0.81011 0.31771 0.86764 0.0
Ho856 Ho 0.81526 0.82136 0.78283 0.0
Ho857 Ho 0.7908 0.78174 0.77136 0.0
C858 C 0.77341 0.81529 0.78209 0.0
C859 C 0.83072 0.85753 0.78692 0.0
C860 C 0.82417 0.87422 0.78382 0.0
C861 C 0.81231 0.87323 0.76808 0.0
C862 C 0.80477 0.88839 0.76618 0.0
C863 C 0.80878 0.90468 0.78008 0.0
C864 C 0.82081 0.90577 0.79571 0.0
C865 C 0.82852 0.89066 0.79751 0.0
C866 C 0.81282 0.7994 0.81001 0.0
C867 C 0.83266 0.78765 0.77338 0.0
C868 C 0.7751 0.74567 0.76809 0.0
C869 C 0.77973 0.73003 0.77666 0.0
C870 C 0.77935 0.72972 0.79578 0.0
C871 C 0.78629 0.71674 0.80432 0.0
C872 C 0.79368 0.70377 0.79395 0.0
C873 C 0.79304 0.7032 0.77465 0.0
C874 C 0.7861 0.71622 0.76607 0.0
C875 C 0.7937 0.80373 0.74413 0.0
O876 O 0.78847 0.82706 0.77996 0.0
O877 O 0.7717 0.79682 0.7819 0.0
O878 O 0.82466 0.84904 0.80052 0.0
O879 O 0.83091 0.84532 0.77212 0.0
O880 O 0.82707 0.81171 0.80771 0.0
O881 O 0.8003 0.80016 0.79847 0.0
O882 O 0.81753 0.77625 0.77587 0.0
O883 O 0.83457 0.80609 0.77292 0.0
O884 O 0.78533 0.75275 0.75625 0.0
O885 O 0.77106 0.75906 0.7793 0.0
O886 O 0.77939 0.79135 0.74611 0.0
O887 O 0.80595 0.80274 0.75581 0.0
H888 H 0.80847 0.86055 0.75747 0.0
H889 H 0.79532 0.88707 0.75414 0.0
H890 H 0.82413 0.91822 0.80657 0.0
H891 H 0.83751 0.89159 0.80983 0.0
H892 H 0.77428 0.73994 0.80435 0.0
H893 H 0.78631 0.71714 0.81912 0.0
H894 H 0.79871 0.69337 0.76633 0.0
H895 H 0.78642 0.71604 0.7513 0.0
Ho896 Ho 0.53642 0.53724 0.51693 0.0
Ho897 Ho 0.57333 0.56298 0.53718 0.0
C898 C 0.54562 0.58329 0.51885 0.0
C899 C 0.50356 0.51911 0.5098 0.0
C900 C 0.48733 0.52446 0.51314 0.0
C901 C 0.48808 0.54254 0.52316 0.0
C902 C 0.47273 0.54842 0.52487 0.0
C903 C 0.45638 0.53635 0.5165 0.0
C904 C 0.45569 0.51808 0.50674 0.0
C905 C 0.47108 0.51219 0.50508 0.0
C906 C 0.56144 0.53994 0.49206 0.0
C907 C 0.56364 0.51657 0.53542 0.0
C908 C 0.60626 0.58054 0.54126 0.0
C909 C 0.62032 0.57617 0.53115 0.0
C910 C 0.61619 0.56092 0.51621 0.0
C911 C 0.62944 0.55585 0.50698 0.0
C912 C 0.6471 0.56588 0.51263 0.0
C913 C 0.65115 0.58147 0.52738 0.0
C914 C 0.63781 0.58659 0.53658 0.0
C915 C 0.54915 0.56128 0.5626 0.0
O916 O 0.53312 0.56707 0.51711 0.0
O917 O 0.56221 0.58465 0.52474 0.0
O918 O 0.51239 0.52833 0.49806 0.0
O919 O 0.51361 0.51793 0.52455 0.0
O920 O 0.54501 0.53072 0.48808 0.0
O921 O 0.56318 0.54687 0.50923 0.0
O922 O 0.57607 0.53297 0.53788 0.0
O923 O 0.54726 0.51491 0.52845 0.0
O924 O 0.59949 0.56775 0.55139 0.0
O925 O 0.59429 0.58589 0.53138 0.0
O926 O 0.56561 0.57066 0.56581 0.0
O927 O 0.5465 0.5535 0.54547 0.0
H928 H 0.50058 0.5523 0.52922 0.0
H929 H 0.47375 0.56269 0.53223 0.0
H930 H 0.44327 0.50842 0.50028 0.0
H931 H 0.47034 0.49823 0.49719 0.0
H932 H 0.60271 0.55267 0.51201 0.0
H933 H 0.6259 0.54358 0.49591 0.0
H934 H 0.66463 0.58954 0.53196 0.0
H935 H 0.64118 0.59842 0.54809 0.0
Ho936 Ho 0.07674 0.55246 0.02606 0.0
Ho937 Ho 0.03562 0.54384 0.0223 0.0
C938 C 0.05224 0.51008 1.00672 0.0
C939 C 0.1094 0.55277 0.03342 0.0
C940 C 0.12085 0.53957 0.03446 0.0
C941 C 0.13412 0.54341 0.04949 0.0
C942 C 0.14631 0.53241 0.05005 0.0
C943 C 0.14554 0.51734 0.03551 0.0
C944 C 0.13188 0.51313 0.0207 0.0
C945 C 0.11962 0.5241 0.0202 0.0
C946 C 0.06177 0.56551 0.99792 0.0
C947 C 0.06037 0.58664 0.04043 0.0
C948 C 1.00251 0.54202 0.01606 0.0
C949 C 0.99021 0.55369 0.01233 0.0
C950 C 0.99537 0.57388 0.01588 0.0
C951 C 0.98288 0.5844 0.01359 0.0
C952 C 0.96506 0.57485 1.00789 0.0
C953 C 0.96017 0.55465 1.0038 0.0
C954 C 0.97262 0.54421 1.00601 0.0
C955 C 0.05098 0.53116 0.05052 0.0
O956 O 0.06759 0.5205 0.01571 0.0
O957 O 0.03825 0.51694 1.00529 0.0
O958 O 0.10211 0.55366 0.01693 0.0
O959 O 0.09886 0.55338 0.04616 0.0
O960 O 0.07754 0.57364 1.00612 0.0
O961 O 0.05557 0.54997 1.00365 0.0
O962 O 0.04501 0.57612 0.03141 0.0
O963 O 0.07423 0.57964 0.04252 0.0
O964 O 0.01136 0.54587 0.03267 0.0
O965 O 0.0119 0.5382 1.00292 0.0
O966 O 0.03563 0.52229 0.04169 0.0
O967 O 0.05671 0.54682 0.04487 0.0
H968 H 0.13537 0.5553 0.06061 0.0
H969 H 0.15674 0.5362 0.06157 0.0
H970 H 0.13077 0.50146 1.00941 0.0
H971 H 0.10943 0.52073 1.00848 0.0
H972 H 1.00892 0.58146 0.02078 0.0
H973 H 0.98706 0.59994 0.0169 0.0
H974 H 0.94664 0.54686 0.99905 0.0
H975 H 0.96841 0.52865 1.00313 0.0
H976 H 0.01928 0.20285 0.91148 0.0
H977 H 0.0224 0.17708 0.92865 0.0
H978 H 0.0232 0.21394 0.98021 0.0
H979 H 0.0196 0.23965 0.96311 0.0
H980 H 0.04825 0.17534 0.95359 0.0
H981 H 0.98702 0.16632 0.98653 0.0
H982 H 0.99123 0.18036 0.96813 0.0
H983 H 1.00079 0.19046 0.99166 0.0
C984 C 0.02 0.20547 0.92647 0.0
C985 C 0.01908 0.22334 0.93588 0.0
C986 C 0.0218 0.19069 0.93628 0.0
C987 C 0.02275 0.19339 0.95574 0.0
C988 C 0.02203 0.21128 0.9652 0.0
H989 H 0.06457 0.12003 0.02258 0.0
H990 H 0.05957 0.14696 1.00819 0.0
C991 C 0.02009 0.22604 0.95538 0.0
C992 C 0.02508 0.17768 0.96606 0.0
H993 H 1.00752 0.14999 0.99742 0.0
C994 C 0.0393 0.16977 0.96314 0.0
C995 C 0.01329 0.17017 0.97834 0.0
C996 C 0.99713 0.17711 0.98123 0.0
C997 C 0.04215 0.15477 0.97222 0.0
C998 C 0.03075 0.14776 0.98504 0.0
C999 C 0.01641 0.1555 0.98781 0.0
C1000 C 0.03323 0.13204 0.99528 0.0
C1001 C 0.0571 0.14624 0.96754 0.0
C1002 C 0.01975 0.11502 0.99377 0.0
C1003 C 0.02245 0.09969 1.00232 0.0
C1004 C 0.03873 0.10103 0.0125 0.0
C1005 C 0.05193 0.11841 0.01468 0.0
C1006 C 0.04915 0.13379 1.00631 0.0
H1007 H 0.06117 0.14918 0.95386 0.0
H1008 H 0.06862 0.15278 0.97822 0.0
H1009 H 0.05347 0.13044 0.96727 0.0
H1010 H 1.00729 0.11336 0.98548 0.0
H1011 H 0.01198 0.08656 1.00034 0.0
H1012 H 0.13147 0.81902 0.19362 0.0
H1013 H 0.15961 0.81935 0.21041 0.0
H1014 H 0.18669 0.84415 0.16745 0.0
H1015 H 0.15854 0.84387 0.15044 0.0
H1016 H 0.18442 0.7997 0.19492 0.0
H1017 H 0.2132 0.87834 0.2175 0.0
H1018 H 0.18991 0.868 0.21091 0.0
H1019 H 0.20445 0.87033 0.19343 0.0
C1020 C 0.14339 0.82481 0.1878 0.0
C1021 C 0.14267 0.83143 0.17063 0.0
C1022 C 0.15948 0.82491 0.19742 0.0
C1023 C 0.17525 0.83182 0.19022 0.0
C1024 C 0.17469 0.83893 0.17335 0.0
H1025 H 0.27549 0.80972 0.23086 0.0
H1026 H 0.25108 0.814 0.21012 0.0
C1027 C 0.15856 0.83873 0.16364 0.0
C1028 C 0.19211 0.83064 0.20002 0.0
H1029 H 0.23056 0.8578 0.22545 0.0
C1030 C 0.19458 0.8124 0.20147 0.0
C1031 C 0.20531 0.84723 0.20858 0.0
C1032 C 0.20316 0.86713 0.2077 0.0
C1033 C 0.20978 0.81029 0.21146 0.0
C1034 C 0.22289 0.82686 0.22022 0.0
C1035 C 0.22054 0.84512 0.21859 0.0
C1036 C 0.23839 0.82542 0.23236 0.0
C1037 C 0.21149 0.79036 0.21314 0.0
C1038 C 0.23953 0.83076 0.25165 0.0
C1039 C 0.25339 0.82831 0.26344 0.0
C1040 C 0.2665 0.82066 0.25615 0.0
C1041 C 0.26561 0.81574 0.23681 0.0
C1042 C 0.25165 0.81809 0.22498 0.0
H1043 H 0.19916 0.7791 0.20765 0.0
H1044 H 0.2221 0.78736 0.20523 0.0
H1045 H 0.21513 0.78933 0.22788 0.0
H1046 H 0.22944 0.83642 0.25763 0.0
H1047 H 0.25376 0.83225 0.27829 0.0
H1048 H 0.54835 0.83218 0.46401 0.0
H1049 H 0.55261 0.86537 0.47958 0.0
H1050 H 0.51799 0.87532 0.43541 0.0
H1051 H 0.51369 0.84238 0.41976 0.0
H1052 H 0.56585 0.89954 0.46225 0.0
H1053 H 0.49987 0.89494 0.48439 0.0
H1054 H 0.50815 0.87405 0.47903 0.0
H1055 H 0.49984 0.8847 0.46063 0.0
C1056 C 0.54147 0.84136 0.45774 0.0
C1057 C 0.53068 0.83462 0.44063 0.0
C1058 C 0.54396 0.86031 0.46663 0.0
C1059 C 0.53549 0.8727 0.45871 0.0
C1060 C 0.52445 0.8659 0.44186 0.0
H1061 H 0.53102 0.99053 0.47713 0.0
H1062 H 0.52737 0.95626 0.46667 0.0
C1063 C 0.52209 0.84708 0.4329 0.0
C1064 C 0.53885 0.8931 0.46737 0.0
H1065 H 0.51852 0.92631 0.48567 0.0
C1066 C 0.5556 0.90541 0.46759 0.0
C1067 C 0.52539 0.90065 0.47418 0.0
C1068 C 0.50732 0.88791 0.47473 0.0
C1069 C 0.55908 0.92527 0.47382 0.0
C1070 C 0.54552 0.93291 0.48041 0.0
C1071 C 0.52888 0.92047 0.48056 0.0
C1072 C 0.54813 0.95382 0.4867 0.0
C1073 C 0.57701 0.93796 0.47256 0.0
C1074 C 0.56097 0.96385 0.50152 0.0
C1075 C 0.56321 0.9835 0.50743 0.0
C1076 C 0.55248 0.99347 0.4988 0.0
C1077 C 0.53954 0.98334 0.48407 0.0
C1078 C 0.5374 0.96372 0.47809 0.0
H1079 H 0.58421 0.93073 0.46277 0.0
H1080 H 0.57602 0.95165 0.468 0.0
H1081 H 0.58489 0.94146 0.48646 0.0
H1082 H 0.56913 0.95643 0.50867 0.0
H1083 H 0.57318 0.9908 0.51895 0.0
H1084 H 0.54711 0.29966 0.69824 0.0
H1085 H 0.5196 0.30009 0.71066 0.0
H1086 H 0.51302 0.344 0.67867 0.0
H1087 H 0.54053 0.3434 0.66584 0.0
H1088 H 0.5095 0.32903 0.73108 0.0
H1089 H 0.4663 0.3036 0.66379 0.0
H1090 H 0.4889 0.30258 0.66647 0.0
H1091 H 0.48369 0.32497 0.66449 0.0
C1092 C 0.53988 0.30948 0.69384 0.0
C1093 C 0.54602 0.32144 0.68095 0.0
C1094 C 0.52411 0.30969 0.70098 0.0
C1095 C 0.51404 0.32182 0.69538 0.0
C1096 C 0.52034 0.33419 0.68289 0.0
H1097 H 0.41243 0.33243 0.72957 0.0
H1098 H 0.43974 0.33735 0.71525 0.0
C1099 C 0.53615 0.33396 0.67568 0.0
C1100 C 0.49704 0.32139 0.70281 0.0
H1101 H 0.45262 0.31062 0.69029 0.0
C1102 C 0.49709 0.32508 0.72214 0.0
C1103 C 0.4808 0.31628 0.69115 0.0
C1104 C 0.4798 0.31147 0.67033 0.0
C1105 C 0.4814 0.32359 0.73012 0.0
C1106 C 0.46516 0.31802 0.71851 0.0
C1107 C 0.46509 0.31486 0.69917 0.0
C1108 C 0.44814 0.3145 0.72631 0.0
C1109 C 0.48234 0.32797 0.75097 0.0
C1110 C 0.44356 0.29969 0.73683 0.0
C1111 C 0.42794 0.29673 0.74487 0.0
C1112 C 0.41649 0.30853 0.74262 0.0
C1113 C 0.42085 0.323 0.73154 0.0
C1114 C 0.43651 0.32591 0.72342 0.0
H1115 H 0.49558 0.33675 0.75748 0.0
H1116 H 0.47247 0.33575 0.75502 0.0
H1117 H 0.47951 0.31428 0.75662 0.0
H1118 H 0.45214 0.29043 0.7389 0.0
H1119 H 0.42485 0.28515 0.75291 0.0
H1120 H 1.01082 0.78169 0.60286 0.0
H1121 H 1.00834 0.80861 0.58723 0.0
H1122 H 0.97803 0.82703 0.6288 0.0
H1123 H 0.98056 0.80003 0.64475 0.0
H1124 H 0.97837 0.82047 0.57299 0.0
H1125 H 0.02122 0.87375 0.63087 0.0
H1126 H 0.01972 0.84836 0.62866 0.0
H1127 H 1.00211 0.85748 0.63665 0.0
C1128 C 1.00346 0.79132 0.60862 0.0
C1129 C 0.99602 0.78883 0.62515 0.0
C1130 C 1.00202 0.80668 0.59962 0.0
C1131 C 0.99322 0.81993 0.607 0.0
C1132 C 0.98509 0.81707 0.62304 0.0
H1133 H 1.00149 0.93156 0.57013 0.0
H1134 H 0.99207 0.90412 0.58632 0.0
C1135 C 0.98646 0.8016 0.63206 0.0
C1136 C 0.99356 0.8372 0.59825 0.0
H1137 H 0.01303 0.88538 0.60406 0.0
C1138 C 0.98573 0.83473 0.57985 0.0
C1139 C 1.00315 0.85576 0.60727 0.0
C1140 C 0.01215 0.85913 0.62691 0.0
C1141 C 0.98767 0.85025 0.57002 0.0
C1142 C 0.99801 0.86862 0.57873 0.0
C1143 C 1.00515 0.87127 0.59741 0.0
C1144 C 1.00275 0.88491 0.56834 0.0
C1145 C 0.97878 0.84676 0.55033 0.0
C1146 C 0.01204 0.88328 0.55301 0.0
C1147 C 0.0175 0.8989 0.54381 0.0
C1148 C 0.01391 0.91658 0.54985 0.0
C1149 C 1.00459 0.91819 0.56523 0.0
C1150 C 0.9991 0.90251 0.57442 0.0
H1151 H 0.96711 0.83418 0.54791 0.0
H1152 H 0.97461 0.85954 0.54697 0.0
H1153 H 0.98811 0.84367 0.54063 0.0
H1154 H 0.01546 0.87002 0.54841 0.0
H1155 H 0.02495 0.89728 0.53225 0.0
H1156 H 0.54353 0.78347 0.8586 0.0
H1157 H 0.51352 0.76434 0.8471 0.0
H1158 H 0.51145 0.79904 0.80404 0.0
H1159 H 0.5413 0.81795 0.81523 0.0
H1160 H 0.48746 0.78153 0.84868 0.0
H1161 H 0.48402 0.74699 0.77647 0.0
H1162 H 0.50435 0.75476 0.79204 0.0
H1163 H 0.4969 0.77142 0.77927 0.0
C1164 C 0.53683 0.78666 0.84636 0.0
C1165 C 0.54465 0.80238 0.83796 0.0
C1166 C 0.51973 0.77564 0.83976 0.0
C1167 C 0.51032 0.78007 0.82455 0.0
C1168 C 0.51858 0.79499 0.81546 0.0
H1169 H 0.426 0.80872 0.78507 0.0
H1170 H 0.45121 0.79553 0.78984 0.0
C1171 C 0.53559 0.806 0.82206 0.0
C1172 C 0.49106 0.7722 0.82047 0.0
H1173 H 0.45862 0.75963 0.78385 0.0
C1174 C 0.48099 0.77601 0.83464 0.0
C1175 C 0.48266 0.76483 0.8022 0.0
C1176 C 0.49259 0.75908 0.78671 0.0
C1177 C 0.46317 0.77514 0.83061 0.0
C1178 C 0.45522 0.76989 0.81194 0.0
C1179 C 0.46481 0.76386 0.79812 0.0
C1180 C 0.43864 0.77457 0.80614 0.0
C1181 C 0.4536 0.78187 0.84609 0.0
C1182 C 0.42299 0.76667 0.81315 0.0
C1183 C 0.40863 0.77445 0.81068 0.0
C1184 C 0.40969 0.78996 0.80088 0.0
C1185 C 0.42487 0.79679 0.79268 0.0
C1186 C 0.43924 0.78919 0.79534 0.0
H1187 H 0.46237 0.78753 0.85939 0.0
H1188 H 0.44761 0.79334 0.8423 0.0
H1189 H 0.4429 0.76966 0.84842 0.0
H1190 H 0.42216 0.75512 0.82121 0.0
H1191 H 0.39688 0.76871 0.8168 0.0
H1192 H 0.50359 0.18191 0.17117 0.0
H1193 H 0.50616 0.15077 0.15609 0.0
H1194 H 0.49112 0.16434 0.10261 0.0
H1195 H 0.48898 0.19579 0.11743 0.0
H1196 H 0.47663 0.12056 0.11577 0.0
H1197 H 0.54802 0.15582 0.11808 0.0
H1198 H 0.53638 0.16085 0.13745 0.0
H1199 H 0.53207 0.16964 0.11631 0.0
C1200 C 0.50041 0.17812 0.15624 0.0
C1201 C 0.49625 0.19139 0.14545 0.0
C1202 C 0.50177 0.16027 0.1477 0.0
C1203 C 0.49864 0.1553 0.12835 0.0
C1204 C 0.49342 0.16796 0.11762 0.0
H1205 H 0.50417 0.07306 0.03751 0.0
H1206 H 0.4944 0.093 0.06182 0.0
C1207 C 0.4923 0.18593 0.1261 0.0
C1208 C 0.50317 0.13825 0.11906 0.0
H1209 H 0.53722 0.12503 0.10071 0.0
C1210 C 0.4899 0.12131 0.11267 0.0
C1211 C 0.52052 0.13936 0.11531 0.0
C1212 C 0.53517 0.15734 0.12209 0.0
C1213 C 0.49347 0.10555 0.10189 0.0
C1214 C 0.51066 0.10709 0.0971 0.0
C1215 C 0.52405 0.12378 0.10435 0.0
C1216 C 0.51495 0.09263 0.08325 0.0
C1217 C 0.47872 0.08762 0.09557 0.0
C1218 C 0.52993 0.08606 0.08703 0.0
C1219 C 0.53588 0.07528 0.07295 0.0
C1220 C 0.52676 0.07056 0.05495 0.0
C1221 C 0.51142 0.0765 0.0513 0.0
C1222 C 0.50566 0.08762 0.06529 0.0
H1223 H 0.46936 0.08561 0.10603 0.0
H1224 H 0.47133 0.08908 0.08249 0.0
H1225 H 0.48365 0.07462 0.09301 0.0
H1226 H 0.5374 0.08986 0.10073 0.0
H1227 H 0.54786 0.07111 0.07605 0.0
H1228 H 0.12144 0.33442 0.32722 0.0
H1229 H 0.14342 0.3434 0.30614 0.0
H1230 H 0.18471 0.34996 0.35105 0.0
H1231 H 0.16281 0.34291 0.37233 0.0
H1232 H 0.19603 0.37342 0.32894 0.0
H1233 H 0.16345 0.30246 0.28508 0.0
H1234 H 0.15081 0.31979 0.28626 0.0
H1235 H 0.15607 0.30994 0.30667 0.0
C1236 C 0.13526 0.33828 0.33255 0.0
C1237 C 0.1406 0.33777 0.35119 0.0
C1238 C 0.14779 0.34323 0.32052 0.0
C1239 C 0.16573 0.3466 0.32679 0.0
C1240 C 0.17097 0.34733 0.34578 0.0
H1241 H 0.24149 0.29883 0.29567 0.0
H1242 H 0.21584 0.30995 0.30209 0.0
C1243 C 0.15849 0.3432 0.35794 0.0
C1244 C 0.17904 0.347 0.31368 0.0
H1245 H 0.19137 0.31776 0.27987 0.0
C1246 C 0.19496 0.36139 0.31801 0.0
C1247 C 0.17751 0.33142 0.29916 0.0
C1248 C 0.16112 0.31496 0.29405 0.0
C1249 C 0.20998 0.35944 0.30991 0.0
C1250 C 0.20872 0.34309 0.29648 0.0
C1251 C 0.19226 0.33011 0.29038 0.0
C1252 C 0.22439 0.33679 0.29161 0.0
C1253 C 0.2273 0.37392 0.31706 0.0
C1254 C 0.23781 0.34816 0.28355 0.0
C1255 C 0.25282 0.34195 0.28023 0.0
C1256 C 0.25432 0.32409 0.28452 0.0
C1257 C 0.24065 0.31258 0.29208 0.0
C1258 C 0.22594 0.31893 0.29573 0.0
H1259 H 0.22633 0.38423 0.32933 0.0
H1260 H 0.23747 0.36655 0.32097 0.0
H1261 H 0.23176 0.38227 0.30597 0.0
H1262 H 0.23674 0.3618 0.2799 0.0
H1263 H 0.26316 0.35101 0.27424 0.0
H1264 H 0.94279 0.07131 0.19681 0.0
H1265 H 0.95706 0.06897 0.16856 0.0
H1266 H 1.0042 0.06639 0.201 0.0
H1267 H 0.98963 0.0677 0.22912 0.0
H1268 H 0.9814 0.08781 0.15353 0.0
H1269 H 1.00435 0.02372 0.1631 0.0
H1270 H 0.99005 0.03215 0.17808 0.0
H1271 H 0.01348 0.04271 0.18224 0.0
C1272 C 0.9562 0.07017 0.19806 0.0
C1273 C 0.9648 0.06959 0.21568 0.0
C1274 C 0.96449 0.06882 0.18164 0.0
C1275 C 0.98186 0.0669 0.18191 0.0
C1276 C 0.99066 0.06698 0.19966 0.0
H1277 H 0.05899 0.0722 0.10119 0.0
H1278 H 0.04279 0.07256 0.1281 0.0
C1279 C 0.98228 0.06802 0.21605 0.0
C1280 C 0.99065 0.06523 0.16389 0.0
H1281 H 0.01664 0.04116 0.13993 0.0
C1282 C 0.9889 0.07738 0.15065 0.0
C1283 C 1.00058 0.05166 0.15934 0.0
C1284 C 1.00208 0.03669 0.17133 0.0
C1285 C 0.9969 0.07672 0.1339 0.0
C1286 C 1.0072 0.06358 0.12972 0.0
C1287 C 1.0089 0.05136 0.14281 0.0
C1288 C 0.01695 0.06292 0.11245 0.0
C1289 C 0.99465 0.09055 0.12089 0.0
C1290 C 1.00819 0.05711 0.09405 0.0
C1291 C 0.01762 0.05655 0.0783 0.0
C1292 C 0.03619 0.06208 0.08033 0.0
C1293 C 0.04479 0.06785 0.09875 0.0
C1294 C 0.03544 0.06806 0.11437 0.0
H1295 H 0.98857 0.10174 0.12716 0.0
H1296 H 1.00754 0.09772 0.11687 0.0
H1297 H 0.98611 0.0825 0.10804 0.0
H1298 H 0.99399 0.05283 0.09181 0.0
H1299 H 1.01035 0.05203 0.06453 0.0
H1300 H 0.28515 0.65719 0.48024 0.0
H1301 H 0.27501 0.66358 0.44962 0.0
H1302 H 0.28322 0.72343 0.47254 0.0
H1303 H 0.29275 0.71707 0.50299 0.0
H1304 H 0.25088 0.70799 0.45177 0.0
H1305 H 0.30438 0.69076 0.4135 0.0
H1306 H 0.2919 0.67229 0.42466 0.0
H1307 H 0.30598 0.69375 0.43849 0.0
C1308 C 0.28498 0.67172 0.47861 0.0
C1309 C 0.28974 0.68665 0.49393 0.0
C1310 C 0.27918 0.67534 0.46116 0.0
C1311 C 0.27839 0.69398 0.45883 0.0
C1312 C 0.28357 0.70891 0.47407 0.0
H1313 H 0.28158 0.77659 0.3957 0.0
H1314 H 0.27467 0.75445 0.41763 0.0
C1315 C 0.28911 0.70528 0.49144 0.0
C1316 C 0.27221 0.69846 0.44074 0.0
H1317 H 0.2854 0.70566 0.39862 0.0
C1318 C 0.25818 0.7071 0.43996 0.0
C1319 C 0.28161 0.69705 0.42529 0.0
C1320 C 0.29687 0.68807 0.42543 0.0
C1321 C 0.25428 0.71583 0.42479 0.0
C1322 C 0.26464 0.71582 0.41009 0.0
C1323 C 0.27753 0.7056 0.41002 0.0
C1324 C 0.26473 0.72917 0.39662 0.0
C1325 C 0.23981 0.72595 0.42506 0.0
C1326 C 0.26096 0.7223 0.37752 0.0
C1327 C 0.26462 0.73504 0.36484 0.0
C1328 C 0.27254 0.75475 0.3711 0.0
C1329 C 0.27528 0.76163 0.39029 0.0
C1330 C 0.27137 0.74895 0.40291 0.0
H1331 H 0.22989 0.71988 0.43397 0.0
H1332 H 0.24552 0.74139 0.4308 0.0
H1333 H 0.23316 0.7249 0.41082 0.0
H1334 H 0.25589 0.70704 0.37246 0.0
H1335 H 0.26198 0.7293 0.35014 0.0
H1336 H 0.645 0.02065 0.6705 0.0
H1337 H 0.62192 1.01506 0.64462 0.0
H1338 H 0.58274 1.00759 0.68228 0.0
H1339 H 0.60591 1.01397 0.70849 0.0
H1340 H 0.59222 0.988 0.62892 0.0
H1341 H 0.57623 0.05437 0.66165 0.0
H1342 H 0.59502 0.04703 0.67056 0.0
H1343 H 0.57338 0.03502 0.67487 0.0
C1344 C 0.63147 0.01748 0.6733 0.0
C1345 C 0.6273 0.0182 0.69159 0.0
C1346 C 0.61826 1.01421 0.65845 0.0
C1347 C 0.60066 1.01142 0.66159 0.0
C1348 C 0.59629 1.01026 0.67963 0.0
H1349 H 0.52996 1.00803 0.55966 0.0
H1350 H 0.53993 0.99796 0.58852 0.0
C1351 C 0.60954 1.01383 0.69457 0.0
C1352 C 0.58748 1.01211 0.64625 0.0
H1353 H 0.5632 0.04127 0.63142 0.0
C1354 C 0.58556 0.9994 0.62952 0.0
C1355 C 0.57894 0.02712 0.64711 0.0
C1356 C 0.58104 0.04177 0.66443 0.0
C1357 C 0.57626 1.00203 0.6133 0.0
C1358 C 0.56836 0.01751 0.61403 0.0
C1359 C 0.56927 0.0294 0.63102 0.0
C1360 C 0.56148 0.02347 0.59702 0.0
C1361 C 0.57599 0.98911 0.59527 0.0
C1362 C 0.57001 0.04133 0.5926 0.0
C1363 C 0.56426 0.04715 0.57637 0.0
C1364 C 0.54995 0.03516 0.56422 0.0
C1365 C 0.54111 0.01747 0.56881 0.0
C1366 C 0.54684 1.01165 0.58517 0.0
H1367 H 0.58484 0.97953 0.59666 0.0
H1368 H 0.56245 0.97997 0.59065 0.0
H1369 H 0.57998 0.99781 0.58427 0.0
H1370 H 0.58131 0.05067 0.60161 0.0
H1371 H 0.57118 0.06095 0.57323 0.0
H1372 H 0.31517 0.34111 0.99411 0.0
H1373 H 0.31071 0.3285 0.96087 0.0
H1374 H 0.30162 0.38197 0.94882 0.0
H1375 H 0.30508 0.3942 0.98212 0.0
H1376 H 0.28099 0.35392 0.92525 0.0
H1377 H 0.34743 0.342 0.92809 0.0
H1378 H 0.33419 0.32813 0.94259 0.0
H1379 H 0.34006 0.35403 0.94777 0.0
C1380 C 0.31199 0.35008 0.98437 0.0
C1381 C 0.3106 0.3687 0.99072 0.0
C1382 C 0.30963 0.34293 0.96533 0.0
C1383 C 0.30643 0.35449 0.9522 0.0
C1384 C 0.30424 0.37279 0.95859 0.0
H1385 H 0.33076 0.33653 0.83898 0.0
H1386 H 0.33015 0.34708 0.87195 0.0
C1387 C 0.30619 0.37977 0.97766 0.0
C1388 C 0.30584 0.34778 0.9319 0.0
H1389 H 0.32872 0.32954 0.89974 0.0
C1390 C 0.29147 0.34866 0.91967 0.0
C1391 C 0.31966 0.34126 0.92446 0.0
C1392 C 0.33628 0.34149 0.93639 0.0
C1393 C 0.29048 0.34315 0.90034 0.0
C1394 C 0.30393 0.3358 0.89301 0.0
C1395 C 0.31829 0.33496 0.90526 0.0
C1396 C 0.30384 0.32958 0.87269 0.0
C1397 C 0.27532 0.34593 0.88802 0.0
C1398 C 0.28932 0.31612 0.86194 0.0
C1399 C 0.28951 0.31038 0.84291 0.0
C1400 C 0.30444 0.31754 0.83435 0.0
C1401 C 0.31908 0.33067 0.84517 0.0
C1402 C 0.31874 0.33672 0.86406 0.0
H1403 H 0.2696 0.3571 0.89499 0.0
H1404 H 0.27944 0.35019 0.87476 0.0
H1405 H 0.26482 0.33226 0.88482 0.0
H1406 H 0.27787 0.30985 0.86827 0.0
H1407 H 0.27808 0.30008 0.83498 0.0
H1408 H 0.98151 0.03074 0.3163 0.0
H1409 H 0.99377 0.02843 0.34754 0.0
H1410 H 0.99034 0.08581 0.36718 0.0
H1411 H 0.97733 0.08778 0.33613 0.0
H1412 H 0.02137 0.04405 0.37027 0.0
H1413 H 0.96874 0.06276 0.4075 0.0
H1414 H 0.96692 0.05868 0.38252 0.0
H1415 H 0.97893 0.08172 0.39564 0.0
C1416 C 0.9833 0.04292 0.32724 0.0
C1417 C 0.9782 0.05944 0.32337 0.0
C1418 C 0.9904 0.04157 0.34532 0.0
C1419 C 0.99278 0.05669 0.36041 0.0
C1420 C 0.98819 0.07347 0.35637 0.0
H1421 H 0.04079 0.07638 0.47836 0.0
H1422 H 0.02866 0.07933 0.44718 0.0
C1423 C 0.98088 0.07472 0.33834 0.0
C1424 C 1.00027 0.05494 0.38 0.0
H1425 H 0.99453 0.06201 0.42636 0.0
C1426 C 0.0153 0.04789 0.38242 0.0
C1427 C 0.99268 0.05978 0.39636 0.0
C1428 C 0.97583 0.06595 0.39539 0.0
C1429 C 0.02291 0.04595 0.40018 0.0
C1430 C 0.01546 0.05106 0.41647 0.0
C1431 C 1.00049 0.05814 0.41414 0.0
C1432 C 0.02292 0.0491 0.43589 0.0
C1433 C 0.03921 0.03877 0.40138 0.0
C1434 C 0.02375 0.03109 0.44057 0.0
C1435 C 0.03057 0.02932 0.45863 0.0
C1436 C 0.03701 0.0455 0.47277 0.0
C1437 C 0.03613 0.0635 0.46806 0.0
C1438 C 0.0291 0.06523 0.45007 0.0
H1439 H 0.04574 0.03979 0.3886 0.0
H1440 H 0.04875 0.04703 0.41349 0.0
H1441 H 0.03557 0.02345 0.40322 0.0
H1442 H 0.01892 0.01824 0.43027 0.0
H1443 H 0.03086 1.01516 0.46145 0.0
H1444 H 0.33205 0.69164 0.6132 0.0
H1445 H 0.34053 0.71987 0.63744 0.0
H1446 H 0.34795 0.75683 0.59587 0.0
H1447 H 0.33908 0.72864 0.57143 0.0
H1448 H 0.36801 0.75406 0.64861 0.0
H1449 H 0.3056 0.76779 0.61955 0.0
H1450 H 0.31135 0.7457 0.6122 0.0
H1451 H 0.32215 0.76742 0.60432 0.0
C1452 C 0.33597 0.70572 0.60918 0.0
C1453 C 0.33445 0.70793 0.5904 0.0
C1454 C 0.34086 0.72186 0.62307 0.0
C1455 C 0.34442 0.7404 0.61838 0.0
C1456 C 0.34487 0.74262 0.59971 0.0
H1457 H 0.34873 0.82896 0.71632 0.0
H1458 H 0.35599 0.81733 0.68557 0.0
C1459 C 0.33983 0.72649 0.58579 0.0
C1460 C 0.34482 0.75685 0.63283 0.0
H1461 H 0.31851 0.78463 0.64879 0.0
C1462 C 0.35751 0.76121 0.64847 0.0
C1463 C 0.33096 0.76601 0.63259 0.0
C1464 C 0.31665 0.76149 0.61636 0.0
C1465 C 0.35605 0.77354 0.6644 0.0
C1466 C 0.34159 0.78166 0.66452 0.0
C1467 C 0.32964 0.77844 0.64845 0.0
C1468 C 0.33661 0.78993 0.6821 0.0
C1469 C 0.36908 0.77657 0.68152 0.0
C1470 C 0.32308 0.77851 0.6899 0.0
C1471 C 0.319 0.785 0.70728 0.0
C1472 C 0.32829 0.80311 0.71711 0.0
C1473 C 0.34134 0.81497 0.70894 0.0
C1474 C 0.34555 0.80834 0.6915 0.0
H1475 H 0.3797 0.76934 0.67908 0.0
H1476 H 0.37511 0.79219 0.68611 0.0
H1477 H 0.36223 0.77092 0.69299 0.0
H1478 H 0.31606 0.76425 0.68278 0.0
H1479 H 0.30894 0.77556 0.71328 0.0
H1480 H 0.67029 0.02589 0.79965 0.0
H1481 H 0.66807 0.02541 0.83286 0.0
H1482 H 0.62283 0.04825 0.82821 0.0
H1483 H 0.62491 0.04886 0.79531 0.0
H1484 H 0.65356 0.06874 0.85787 0.0
H1485 H 0.6271 0.99005 0.85729 0.0
H1486 H 0.64518 0.9988 0.84463 0.0
H1487 H 0.62364 1.00042 0.83668 0.0
C1488 C 0.65974 0.03057 0.80569 0.0
C1489 C 0.64779 0.03746 0.79491 0.0
C1490 C 0.65853 0.03031 0.82461 0.0
C1491 C 0.64533 0.03685 0.83286 0.0
C1492 C 0.63315 0.04322 0.82202 0.0
H1493 H 0.58619 0.05683 0.91253 0.0
H1494 H 0.60564 0.05628 0.88877 0.0
C1495 C 0.63434 0.0435 0.80322 0.0
C1496 C 0.64418 0.03785 0.85291 0.0
H1497 H 0.62482 1.01106 0.88384 0.0
C1498 C 0.64776 0.0561 0.86378 0.0
C1499 C 0.63681 0.02131 0.86054 0.0
C1500 C 0.6329 1.00146 0.84929 0.0
C1501 C 0.64273 0.05836 0.88162 0.0
C1502 C 0.63374 0.04196 0.88853 0.0
C1503 C 0.6317 0.02358 0.8784 0.0
C1504 C 0.62336 0.04382 0.9041 0.0
C1505 C 0.64597 0.07834 0.89243 0.0
C1506 C 0.62689 0.03688 0.92056 0.0
C1507 C 0.61587 0.03747 0.93445 0.0
C1508 C 0.60103 0.0447 0.93187 0.0
C1509 C 0.59771 0.05167 0.91529 0.0
C1510 C 0.60879 0.05128 0.90162 0.0
H1511 H 0.65742 0.0884 0.88824 0.0
H1512 H 0.63426 0.0838 0.88961 0.0
H1513 H 0.64829 0.07831 0.9076 0.0
H1514 H 0.63803 0.03091 0.92258 0.0
H1515 H 0.61891 0.03215 0.94712 0.0
H1516 H 0.30949 0.40728 0.11318 0.0
H1517 H 0.30676 0.39306 0.14152 0.0
H1518 H 0.31333 0.34014 0.11246 0.0
H1519 H 0.31631 0.3543 0.08405 0.0
H1520 H 0.28291 0.36074 0.14894 0.0
H1521 H 0.35072 0.35228 0.15759 0.0
H1522 H 0.34392 0.36685 0.14178 0.0
H1523 H 0.33851 0.34113 0.13537 0.0
C1524 C 0.31035 0.39259 0.11276 0.0
C1525 C 0.31324 0.382 0.09629 0.0
C1526 C 0.30877 0.38449 0.12901 0.0
C1527 C 0.31015 0.36564 0.12925 0.0
C1528 C 0.31261 0.35485 0.11275 0.0
H1529 H 0.30407 0.28864 0.20986 0.0
H1530 H 0.30712 0.30481 0.18271 0.0
C1531 C 0.31419 0.36294 0.09646 0.0
C1532 C 0.30892 0.35731 0.14673 0.0
H1533 H 0.33131 0.33773 0.17756 0.0
C1534 C 0.29353 0.35581 0.15527 0.0
C1535 C 0.3228 0.35094 0.15505 0.0
C1536 C 0.33999 0.35302 0.1471 0.0
C1537 C 0.29145 0.34762 0.17154 0.0
C1538 C 0.30526 0.34106 0.17973 0.0
C1539 C 0.32072 0.34275 0.1713 0.0
C1540 C 0.30369 0.33162 0.19657 0.0
C1541 C 0.27427 0.34552 0.1795 0.0
C1542 C 0.30104 0.3414 0.21357 0.0
C1543 C 0.29925 0.33213 0.22917 0.0
C1544 C 0.30017 0.31295 0.22804 0.0
C1545 C 0.30321 0.30338 0.21115 0.0
C1546 C 0.30498 0.31262 0.19561 0.0
H1547 H 0.26367 0.34705 0.1693 0.0
H1548 H 0.27003 0.33133 0.18409 0.0
H1549 H 0.27596 0.35688 0.19177 0.0
H1550 H 0.30037 0.3562 0.21478 0.0
H1551 H 0.29703 0.33989 0.24204 0.0
H1552 H 0.27017 1.00925 1.00333 0.0
H1553 H 0.2483 0.02611 0.99525 0.0
H1554 H 0.22385 0.98008 0.95006 0.0
H1555 H 0.24559 0.96275 0.95836 0.0
H1556 H 0.23488 0.03896 0.96362 0.0
H1557 H 0.1863 0.97876 0.98526 0.0
H1558 H 0.2096 0.98134 0.98927 0.0
H1559 H 0.19793 0.97266 0.96634 0.0
C1560 C 0.26034 1.0028 0.99146 0.0
C1561 C 0.25936 0.98446 0.98174 0.0
C1562 C 0.24791 1.01255 0.98679 0.0
C1563 C 0.23429 1.00418 0.97229 0.0
C1564 C 0.23412 0.98662 0.96151 0.0
H1565 H 0.13603 0.03646 0.97765 0.0
H1566 H 0.15805 0.02372 0.96272 0.0
C1567 C 0.24655 0.97676 0.96625 0.0
C1568 C 0.21922 1.01269 0.97047 0.0
H1569 H 0.17738 1.00619 0.98119 0.0
C1570 C 0.22215 0.0317 0.96707 0.0
C1571 C 0.20264 1.00315 0.97497 0.0
C1572 C 0.19885 0.9829 0.97929 0.0
C1573 C 0.20919 0.04173 0.96891 0.0
C1574 C 0.19306 0.03259 0.97463 0.0
C1575 C 0.18975 1.01319 0.97681 0.0
C1576 C 0.18022 0.04317 0.98067 0.0
C1577 C 0.21307 0.06215 0.96518 0.0
C1578 C 0.18537 0.05869 0.99542 0.0
C1579 C 0.17279 0.06612 1.00388 0.0
C1580 C 0.15482 0.05793 0.99794 0.0
C1581 C 0.14976 0.043 0.98261 0.0
C1582 C 0.16234 0.03576 0.974 0.0
H1583 H 0.22231 0.06442 0.95463 0.0
H1584 H 0.2009 0.06596 0.96028 0.0
H1585 H 0.2194 0.07208 0.97818 0.0
H1586 H 0.19904 0.06428 1.00119 0.0
H1587 H 0.17711 0.07744 0.01581 0.0
H1588 H 0.72724 0.6739 0.99895 0.0
H1589 H 0.69791 0.65294 0.99894 0.0
H1590 H 0.71979 0.6043 0.99998 0.0
H1591 H 0.74924 0.62524 1.00054 0.0
H1592 H 0.67745 0.62137 0.97618 0.0
H1593 H 0.69413 0.60273 0.04524 0.0
H1594 H 0.70847 0.62155 0.03591 0.0
H1595 H 0.70799 0.59677 0.02853 0.0
C1596 C 0.72583 0.65872 0.99903 0.0
C1597 C 0.74066 0.65131 0.99997 0.0
C1598 C 0.70903 0.64675 0.99903 0.0
C1599 C 0.70667 0.62712 0.9999 0.0
C1600 C 0.72133 0.61949 0.99984 0.0
H1601 H 0.60551 0.54087 0.9824 0.0
H1602 H 0.63416 0.56148 0.97879 0.0
C1603 C 0.73816 0.63148 1.00001 0.0
C1604 C 0.68898 0.61482 1.00142 0.0
H1605 H 0.66634 0.58564 0.02886 0.0
C1606 C 0.675 0.61357 0.98771 0.0
C1607 C 0.6857 0.60493 0.01665 0.0
C1608 C 0.69981 0.60668 0.03252 0.0
C1609 C 0.65792 0.60252 0.98869 0.0
C1610 C 0.6548 0.59207 1.00357 0.0
C1611 C 0.66874 0.59349 0.01736 0.0
C1612 C 0.63715 0.57983 1.00538 0.0
C1613 C 0.64332 0.60255 0.97402 0.0
C1614 C 0.62947 0.58291 0.02171 0.0
C1615 C 0.61326 0.57095 0.02391 0.0
C1616 C 0.60434 0.55573 0.00978 0.0
C1617 C 0.61201 0.55262 0.99344 0.0
C1618 C 0.62831 0.5645 0.9913 0.0
H1619 H 0.64673 0.61535 0.96699 0.0
H1620 H 0.64101 0.58956 0.9633 0.0
H1621 H 0.63091 0.60232 0.98007 0.0
H1622 H 0.63608 0.59454 0.03283 0.0
H1623 H 0.6078 0.5735 0.03678 0.0
H1624 H 0.73135 0.48654 0.24402 0.0
H1625 H 0.74515 0.45977 0.24235 0.0
H1626 H 0.71933 0.4404 0.28823 0.0
H1627 H 0.70581 0.4675 0.2902 0.0
H1628 H 0.75072 0.43534 0.29291 0.0
H1629 H 0.72713 0.40525 0.2193 0.0
H1630 H 0.73988 0.42972 0.222 0.0
H1631 H 0.71933 0.42412 0.23152 0.0
C1632 C 0.72849 0.47661 0.25378 0.0
C1633 C 0.71719 0.47953 0.26721 0.0
C1634 C 0.73636 0.46095 0.25269 0.0
C1635 C 0.73323 0.44722 0.26484 0.0
C1636 C 0.72215 0.45033 0.27846 0.0
H1637 H 0.75953 0.3334 0.24421 0.0
H1638 H 0.74536 0.35999 0.2458 0.0
C1639 C 0.71429 0.46602 0.27958 0.0
C1640 C 0.74168 0.43009 0.26367 0.0
H1641 H 0.74917 0.39284 0.23359 0.0
C1642 C 0.75027 0.42612 0.27985 0.0
C1643 C 0.74114 0.41731 0.24688 0.0
C1644 C 0.73122 0.41915 0.22898 0.0
C1645 C 0.75837 0.41059 0.2797 0.0
C1646 C 0.75851 0.39833 0.26278 0.0
C1647 C 0.74957 0.40202 0.24666 0.0
C1648 C 0.76753 0.38167 0.26155 0.0
C1649 C 0.76627 0.40719 0.29803 0.0
C1650 C 0.7851 0.38429 0.26943 0.0
C1651 C 0.79329 0.3689 0.26856 0.0
C1652 C 0.78445 0.35005 0.25956 0.0
C1653 C 0.76701 0.34747 0.2513 0.0
C1654 C 0.75879 0.36289 0.25222 0.0
H1655 H 0.76021 0.41316 0.30979 0.0
H1656 H 0.76463 0.39163 0.2983 0.0
H1657 H 0.7805 0.41456 0.3003 0.0
H1658 H 0.79271 0.39841 0.27622 0.0
H1659 H 0.8067 0.37188 0.27505 0.0
H1660 H 0.85285 0.42627 0.49233 0.0
H1661 H 0.88488 0.43495 0.49453 0.0
H1662 H 0.88526 0.4941 0.49284 0.0
H1663 H 0.85327 0.48568 0.49106 0.0
H1664 H 0.90808 0.45177 0.47186 0.0
H1665 H 0.91705 0.49775 0.54067 0.0
H1666 H 0.89619 0.48163 0.53048 0.0
H1667 H 0.90353 0.50469 0.52332 0.0
C1668 C 0.85973 0.44112 0.49234 0.0
C1669 C 0.85053 0.45534 0.49174 0.0
C1670 C 0.87803 0.44604 0.49358 0.0
C1671 C 0.88741 0.46521 0.49422 0.0
C1672 C 0.87825 0.47929 0.49281 0.0
H1673 H 0.9956 0.51238 0.48025 0.0
H1674 H 0.96397 0.49777 0.4755 0.0
C1675 C 0.85997 0.47443 0.49171 0.0
C1676 C 0.90682 0.47059 0.49678 0.0
H1677 H 0.94244 0.49971 0.52519 0.0
C1678 C 0.91564 0.46216 0.48356 0.0
C1679 C 0.91659 0.48383 0.51228 0.0
C1680 C 0.90787 0.49236 0.5276 0.0
C1681 C 0.93405 0.46708 0.48516 0.0
C1682 C 0.94379 0.48107 0.50017 0.0
C1683 C 0.93494 0.4891 0.51362 0.0
C1684 C 0.96315 0.48802 0.50214 0.0
C1685 C 0.94286 0.45711 0.47091 0.0
C1686 C 0.97317 0.48751 0.51874 0.0
C1687 C 0.99119 0.49611 0.52161 0.0
C1688 C 0.99953 0.50535 0.50791 0.0
C1689 C 0.98958 0.50526 0.49102 0.0
C1690 C 0.97151 0.4968 0.48823 0.0
H1691 H 0.93414 0.44297 0.46408 0.0
H1692 H 0.946 0.46615 0.45999 0.0
H1693 H 0.95527 0.45482 0.47727 0.0
H1694 H 0.96695 0.48086 0.52967 0.0
H1695 H 0.9985 0.49588 0.53475 0.0
H1696 H 0.36637 0.0863 0.31893 0.0
H1697 H 0.34549 0.10564 0.32381 0.0
H1698 H 0.3883 0.156 0.34355 0.0
H1699 H 0.40941 0.13657 0.33891 0.0
H1700 H 0.34151 0.13791 0.35642 0.0
H1701 H 0.36157 0.15844 0.28922 0.0
H1702 H 0.36482 0.13682 0.29676 0.0
H1703 H 0.37833 0.15982 0.30801 0.0
C1704 C 0.37133 0.10138 0.32485 0.0
C1705 C 0.38947 0.11005 0.3283 0.0
C1706 C 0.35939 0.11235 0.32776 0.0
C1707 C 0.36542 0.13217 0.33396 0.0
C1708 C 0.38348 0.14064 0.33886 0.0
H1709 H 0.30255 0.21434 0.32807 0.0
H1710 H 0.32195 0.1965 0.34078 0.0
C1711 C 0.39548 0.12957 0.33618 0.0
C1712 C 0.35308 0.14413 0.33169 0.0
H1713 H 0.33781 0.16836 0.30004 0.0
C1714 C 0.34081 0.14487 0.34429 0.0
C1715 C 0.35214 0.15284 0.31566 0.0
C1716 C 0.36483 0.15198 0.30152 0.0
C1717 C 0.32737 0.154 0.34105 0.0
C1718 C 0.32625 0.16229 0.32478 0.0
C1719 C 0.33874 0.16185 0.31244 0.0
C1720 C 0.31205 0.17121 0.3198 0.0
C1721 C 0.31413 0.15425 0.35459 0.0
C1722 C 0.29981 0.16263 0.30409 0.0
C1723 C 0.28865 0.17271 0.29683 0.0
C1724 C 0.28968 0.19161 0.30511 0.0
C1725 C 0.30123 0.19969 0.32154 0.0
C1726 C 0.31236 0.18956 0.32882 0.0
H1727 H 0.31577 0.14548 0.36559 0.0
H1728 H 0.31559 0.16928 0.36129 0.0
H1729 H 0.3006 0.14874 0.34713 0.0
H1730 H 0.2995 0.14848 0.29692 0.0
H1731 H 0.27977 0.16606 0.28428 0.0
H1732 H 0.34158 0.16596 0.48539 0.0
H1733 H 0.36719 0.15311 0.48159 0.0
H1734 H 0.35808 0.12547 0.52963 0.0
H1735 H 0.33241 0.13779 0.53325 0.0
H1736 H 0.39743 0.15879 0.50523 0.0
H1737 H 0.36248 0.08144 0.49216 0.0
H1738 H 0.35112 0.10003 0.49139 0.0
H1739 H 0.35786 0.09372 0.51329 0.0
C1740 C 0.34495 0.15699 0.49502 0.0
C1741 C 0.33484 0.15278 0.50952 0.0
C1742 C 0.35961 0.14969 0.49287 0.0
C1743 C 0.36439 0.13801 0.50512 0.0
C1744 C 0.35441 0.134 0.5197 0.0
H1745 H 0.44961 0.08612 0.52731 0.0
H1746 H 0.42459 0.10029 0.52841 0.0
C1747 C 0.33976 0.14117 0.52181 0.0
C1748 C 0.3801 0.13046 0.50314 0.0
H1749 H 0.39366 0.08912 0.49991 0.0
C1750 C 0.39658 0.14355 0.50386 0.0
C1751 C 0.37901 0.11054 0.50132 0.0
C1752 C 0.36164 0.09561 0.4993 0.0
C1753 C 0.41202 0.1373 0.50342 0.0
C1754 C 0.41094 0.11746 0.50212 0.0
C1755 C 0.39446 0.10435 0.50109 0.0
C1756 C 0.42674 0.10994 0.50184 0.0
C1757 C 0.42946 0.15198 0.50485 0.0
C1758 C 0.43626 0.11072 0.48656 0.0
C1759 C 0.45053 0.1026 0.48588 0.0
C1760 C 0.45559 0.09359 0.5005 0.0
C1761 C 0.4462 0.09315 0.51594 0.0
C1762 C 0.43184 0.10114 0.51654 0.0
H1763 H 0.42842 0.16686 0.50918 0.0
H1764 H 0.4393 0.14891 0.51493 0.0
H1765 H 0.43436 0.15119 0.4911 0.0
H1766 H 0.43243 0.11726 0.47499 0.0
H1767 H 0.45756 0.10328 0.47385 0.0
H1768 H 0.69404 0.60213 0.29608 0.0
H1769 H 0.71029 0.63482 0.29401 0.0
H1770 H 0.75317 0.61359 0.27563 0.0
H1771 H 0.73654 0.58061 0.27687 0.0
H1772 H 0.73814 0.65957 0.30961 0.0
H1773 H 0.7501 0.64498 0.2366 0.0
H1774 H 0.73599 0.62716 0.24722 0.0
H1775 H 0.75949 0.63078 0.25062 0.0
C1776 C 0.70695 0.60427 0.29161 0.0
C1777 C 0.71376 0.5883 0.28659 0.0
C1778 C 0.71634 0.62322 0.2904 0.0
C1779 C 0.73302 0.62718 0.28416 0.0
C1780 C 0.74015 0.61132 0.27982 0.0
H1781 H 0.81328 0.73247 0.27576 0.0
H1782 H 0.79585 0.69996 0.27712 0.0
C1783 C 0.73065 0.59227 0.2808 0.0
C1784 C 0.74278 0.64777 0.28249 0.0
H1785 H 0.76574 0.6756 0.25365 0.0
C1786 C 0.744 0.66294 0.29724 0.0
C1787 C 0.75055 0.6528 0.26641 0.0
C1788 C 0.74882 0.63812 0.24925 0.0
C1789 C 0.75288 0.68235 0.29656 0.0
C1790 C 0.76094 0.68723 0.28068 0.0
C1791 C 0.7597 0.67216 0.26592 0.0
C1792 C 0.77134 0.70759 0.27944 0.0
C1793 C 0.75399 0.6975 0.31317 0.0
C1794 C 0.76361 0.72322 0.27995 0.0
C1795 C 0.77366 0.74208 0.27891 0.0
C1796 C 0.79181 0.74594 0.2775 0.0
C1797 C 0.7994 0.73025 0.27685 0.0
C1798 C 0.78937 0.71148 0.27762 0.0
H1799 H 0.75024 0.69109 0.32564 0.0
H1800 H 0.7675 0.70713 0.31651 0.0
H1801 H 0.74496 0.70642 0.30994 0.0
H1802 H 0.74973 0.72085 0.28108 0.0
H1803 H 0.76727 0.75367 0.27952 0.0
H1804 H 0.90971 0.51972 0.81641 0.0
H1805 H 0.8969 0.485 0.81135 0.0
H1806 H 0.93755 0.47666 0.77814 0.0
H1807 H 0.95078 0.51164 0.78348 0.0
H1808 H 0.89531 0.46247 0.76318 0.0
H1809 H 0.9196 0.43811 0.82686 0.0
H1810 H 0.91442 0.46103 0.82963 0.0
H1811 H 0.9325 0.45802 0.8175 0.0
C1812 C 0.91614 0.51049 0.80832 0.0
C1813 C 0.93117 0.51832 0.80025 0.0
C1814 C 0.90884 0.4907 0.80551 0.0
C1815 C 0.91634 0.47842 0.79441 0.0
C1816 C 0.93172 0.48603 0.78685 0.0
H1817 H 0.8533 0.36037 0.75057 0.0
H1818 H 0.87569 0.39088 0.75349 0.0
C1819 C 0.93925 0.50592 0.78994 0.0
C1820 C 0.90677 0.45799 0.78937 0.0
H1821 H 0.89457 0.41702 0.80803 0.0
C1822 C 0.89534 0.45229 0.77273 0.0
C1823 C 0.90684 0.44505 0.80204 0.0
C1824 C 0.91905 0.45071 0.82001 0.0
C1825 C 0.88313 0.43422 0.76888 0.0
C1826 C 0.88273 0.42144 0.7819 0.0
C1827 C 0.89485 0.42686 0.79812 0.0
C1828 C 0.86905 0.40301 0.7797 0.0
C1829 C 0.87008 0.42952 0.75153 0.0
C1830 C 0.85805 0.3996 0.79357 0.0
C1831 C 0.84545 0.38211 0.79208 0.0
C1832 C 0.84352 0.36772 0.77661 0.0
C1833 C 0.85431 0.37128 0.76253 0.0
C1834 C 0.8671 0.38872 0.76417 0.0
H1835 H 0.86947 0.44256 0.74545 0.0
H1836 H 0.87408 0.41953 0.74097 0.0
H1837 H 0.85672 0.4224 0.75445 0.0
H1838 H 0.8593 0.41047 0.80565 0.0
H1839 H 0.83734 0.3798 0.80315 0.0
H1840 H 0.10957 0.87012 0.0828 0.0
H1841 H 0.10331 0.89739 0.0699 0.0
H1842 H 0.0661 0.90169 0.10878 0.0
H1843 H 0.0724 0.87447 0.12191 0.0
H1844 H 0.07174 0.9018 0.0534 0.0
H1845 H 0.09809 0.9566 0.11644 0.0
H1846 H 0.10257 0.93329 0.1136 0.0
H1847 H 0.08183 0.93585 0.12018 0.0
C1848 C 0.10007 0.87686 0.08867 0.0
C1849 C 0.09155 0.87012 0.10348 0.0
C1850 C 0.09649 0.89246 0.08123 0.0
C1851 C 0.08441 0.90179 0.0885 0.0
C1852 C 0.07571 0.89497 0.10315 0.0
H1853 H 0.03664 0.98135 0.0366 0.0
H1854 H 0.04255 0.95341 0.04849 0.0
C1855 C 0.07926 0.87932 0.11058 0.0
C1856 C 0.08085 0.91852 0.0806 0.0
H1857 H 0.08321 0.9664 0.09153 0.0
C1858 C 0.07425 0.91593 0.06173 0.0
C1859 C 0.08435 0.93704 0.09139 0.0
C1860 C 0.09225 0.941 0.11148 0.0
C1861 C 0.07085 0.93124 0.05344 0.0
C1862 C 0.07391 0.94964 0.06436 0.0
C1863 C 0.08072 0.95228 0.08317 0.0
C1864 C 0.07034 0.96642 0.05653 0.0
C1865 C 0.06435 0.92765 0.03297 0.0
C1866 C 0.08391 0.98321 0.05728 0.0
C1867 C 0.08056 0.99927 0.05056 0.0
C1868 C 0.0635 0.99898 0.04301 0.0
C1869 C 0.04995 0.98208 0.04216 0.0
C1870 C 0.05333 0.96603 0.04891 0.0
H1871 H 0.06715 0.9145 0.02569 0.0
H1872 H 0.04992 0.92561 0.0311 0.0
H1873 H 0.07046 0.94005 0.02629 0.0
H1874 H 0.09714 0.9839 0.06314 0.0
H1875 H 0.09133 1.012 0.0515 0.0
H1876 H 0.95511 0.27477 0.89923 0.0
H1877 H 0.92827 0.27685 0.88143 0.0
H1878 H 0.94814 0.26069 0.83042 0.0
H1879 H 0.97515 0.25865 0.84811 0.0
H1880 H 0.93523 0.2935 0.83106 0.0
H1881 H 0.887 0.23357 0.85268 0.0
H1882 H 0.90077 0.25049 0.87155 0.0
H1883 H 0.91037 0.23601 0.85586 0.0
C1884 C 0.95376 0.27148 0.88423 0.0
C1885 C 0.96735 0.26651 0.87513 0.0
C1886 C 0.93832 0.27257 0.87407 0.0
C1887 C 0.93607 0.26868 0.85459 0.0
C1888 C 0.94954 0.26363 0.84545 0.0
H1889 H 0.84348 0.25868 0.77631 0.0
H1890 H 0.86795 0.2525 0.79537 0.0
C1891 C 0.96497 0.26245 0.8556 0.0
C1892 C 0.92011 0.27094 0.84377 0.0
H1893 H 0.87533 0.25448 0.83595 0.0
C1894 C 0.92215 0.28491 0.83208 0.0
C1895 C 0.90304 0.25965 0.84502 0.0
C1896 C 0.90009 0.24396 0.85682 0.0
C1897 C 0.90758 0.28813 0.82187 0.0
C1898 C 0.89049 0.27719 0.82347 0.0
C1899 C 0.88843 0.26297 0.83488 0.0
C1900 C 0.87468 0.28023 0.8131 0.0
C1901 C 0.9106 0.30311 0.80928 0.0
C1902 C 0.87005 0.29764 0.81709 0.0
C1903 C 0.8561 0.30118 0.80625 0.0
C1904 C 0.84649 0.28734 0.79125 0.0
C1905 C 0.8507 0.26962 0.78773 0.0
C1906 C 0.86464 0.26607 0.79863 0.0
H1907 H 0.92452 0.30739 0.80664 0.0
H1908 H 0.90213 0.29772 0.79576 0.0
H1909 H 0.90715 0.31612 0.81588 0.0
H1910 H 0.87748 0.30867 0.82834 0.0
H1911 H 0.85318 0.31497 0.80929 0.0
H1912 H 0.56085 0.25566 0.62827 0.0
H1913 H 0.55565 0.22271 0.61218 0.0
H1914 H 0.59209 0.24246 0.57416 0.0
H1915 H 0.597 0.27561 0.58987 0.0
H1916 H 0.56367 0.21467 0.55644 0.0
H1917 H 0.59039 0.19121 0.61917 0.0
H1918 H 0.57221 0.20125 0.62296 0.0
H1919 H 0.59234 0.21617 0.61766 0.0
C1920 C 0.56767 0.25305 0.61639 0.0
C1921 C 0.57949 0.26827 0.61048 0.0
C1922 C 0.56476 0.23416 0.60727 0.0
C1923 C 0.57384 0.23003 0.59227 0.0
C1924 C 0.58505 0.24528 0.58581 0.0
H1925 H 0.59058 0.11819 0.55563 0.0
H1926 H 0.59327 0.15178 0.56815 0.0
C1927 C 0.58783 0.26423 0.5948 0.0
C1928 C 0.57204 0.20978 0.58371 0.0
H1929 H 0.57673 0.16665 0.59374 0.0
C1930 C 0.56656 0.20417 0.56457 0.0
C1931 C 0.57612 0.19615 0.59426 0.0
C1932 C 0.58327 0.20151 0.6146 0.0
C1933 C 0.56482 0.18525 0.55575 0.0
C1934 C 0.56825 0.17145 0.56646 0.0
C1935 C 0.57391 0.17715 0.58555 0.0
C1936 C 0.56655 0.15113 0.55816 0.0
C1937 C 0.55975 0.18041 0.53499 0.0
C1938 C 0.5506 0.13947 0.54845 0.0
C1939 C 0.54907 0.12025 0.54109 0.0
C1940 C 0.56338 0.1122 0.5436 0.0
C1941 C 0.57927 0.12387 0.55349 0.0
C1942 C 0.58084 0.14311 0.56065 0.0
H1943 H 0.56264 0.19349 0.52831 0.0
H1944 H 0.56677 0.17021 0.52861 0.0
H1945 H 0.54543 0.1736 0.53195 0.0
H1946 H 0.53924 0.14514 0.54676 0.0
H1947 H 0.53659 0.11163 0.53367 0.0
H1948 H 0.55817 0.78325 0.35451 0.0
H1949 H 0.5845 0.78357 0.33923 0.0
H1950 H 0.60946 0.76879 0.38781 0.0
H1951 H 0.58338 0.76863 0.40326 0.0
H1952 H 0.63016 0.79996 0.37543 0.0
H1953 H 0.60385 0.73916 0.31741 0.0
H1954 H 0.59143 0.75678 0.31908 0.0
H1955 H 0.5925 0.74278 0.33738 0.0
C1956 C 0.56917 0.77984 0.36187 0.0
C1957 C 0.56863 0.77594 0.38014 0.0
C1958 C 0.58419 0.77994 0.35307 0.0
C1959 C 0.59888 0.77601 0.36231 0.0
C1960 C 0.59826 0.7718 0.3804 0.0
H1961 H 0.69229 0.76029 0.3134 0.0
H1962 H 0.66613 0.75603 0.32965 0.0
C1963 C 0.5833 0.77171 0.38921 0.0
C1964 C 0.6153 0.77741 0.35362 0.0
H1965 H 0.6323 0.75924 0.31606 0.0
C1966 C 0.63065 0.79099 0.3625 0.0
C1967 C 0.61597 0.76554 0.33687 0.0
C1968 C 0.60011 0.75011 0.32718 0.0
C1969 C 0.64655 0.79332 0.35487 0.0
C1970 C 0.64706 0.78194 0.33777 0.0
C1971 C 0.63183 0.76804 0.32911 0.0
C1972 C 0.66317 0.78465 0.32844 0.0
C1973 C 0.66269 0.80787 0.36522 0.0
C1974 C 0.67014 0.80212 0.32237 0.0
C1975 C 0.68506 0.80461 0.31317 0.0
C1976 C 0.69331 0.78963 0.30977 0.0
C1977 C 0.68637 0.77217 0.31599 0.0
C1978 C 0.67136 0.76967 0.32515 0.0
H1979 H 0.6613 0.81162 0.38013 0.0
H1980 H 0.67454 0.8024 0.3642 0.0
H1981 H 0.66477 0.82124 0.35903 0.0
H1982 H 0.66389 0.81378 0.32454 0.0
H1983 H 0.69015 0.81829 0.30871 0.0
H1984 H 0.11757 0.2632 0.40134 0.0
H1985 H 0.11836 0.23689 0.41867 0.0
H1986 H 0.12943 0.2767 0.47014 0.0
H1987 H 0.12848 0.30309 0.45302 0.0
H1988 H 0.1431 0.22963 0.44734 0.0
H1989 H 0.08065 0.23899 0.47165 0.0
H1990 H 0.08969 0.24994 0.45275 0.0
H1991 H 0.09885 0.26009 0.47633 0.0
C1992 C 0.12055 0.26646 0.41632 0.0
C1993 C 0.12264 0.28519 0.42582 0.0
C1994 C 0.12103 0.2514 0.42619 0.0
C1995 C 0.12364 0.25487 0.44565 0.0
C1996 C 0.12714 0.27376 0.4551 0.0
H1997 H 0.12507 0.17157 0.52082 0.0
H1998 H 0.13372 0.19839 0.50367 0.0
C1999 C 0.12661 0.2888 0.44528 0.0
C2000 C 0.12068 0.23854 0.45603 0.0
H2001 H 0.09213 0.21514 0.48278 0.0
C2002 C 0.13203 0.22646 0.45518 0.0
C2003 C 0.10605 0.23437 0.46598 0.0
C2004 C 0.093 0.2464 0.46667 0.0
C2005 C 0.12914 0.21026 0.46416 0.0
C2006 C 0.1146 0.20624 0.47425 0.0
C2007 C 0.1033 0.21835 0.47508 0.0
C2008 C 0.11037 0.1892 0.48359 0.0
C2009 C 0.14133 0.19731 0.46243 0.0
C2010 C 0.09439 0.17523 0.47797 0.0
C2011 C 0.08941 0.15998 0.48771 0.0
C2012 C 0.10028 0.15846 0.50335 0.0
C2013 C 0.1165 0.17225 0.50871 0.0
C2014 C 0.12148 0.18754 0.49892 0.0
H2015 H 0.14973 0.20022 0.45122 0.0
H2016 H 0.15003 0.19968 0.47572 0.0
H2017 H 0.13377 0.18197 0.45958 0.0
H2018 H 0.08564 0.1763 0.46616 0.0
H2019 H 0.07698 0.14942 0.48306 0.0
H2020 H 0.5647 0.28032 0.16684 0.0
H2021 H 0.59561 0.29103 0.17995 0.0
H2022 H 0.58099 0.28602 0.23474 0.0
H2023 H 0.55003 0.27508 0.22181 0.0
H2024 H 0.61654 0.32106 0.21063 0.0
H2025 H 0.60945 0.24557 0.22264 0.0
H2026 H 0.59318 0.25218 0.20795 0.0
H2027 H 0.59465 0.258 0.23274 0.0
C2028 C 0.56801 0.28181 0.18172 0.0
C2029 C 0.55496 0.27647 0.19324 0.0
C2030 C 0.58566 0.28804 0.18918 0.0
C2031 C 0.59048 0.28904 0.20823 0.0
C2032 C 0.57745 0.28512 0.21997 0.0
H2033 H 0.69333 0.28182 0.25383 0.0
H2034 H 0.66409 0.28749 0.25314 0.0
C2035 C 0.5598 0.27883 0.21253 0.0
C2036 C 0.60906 0.29169 0.21526 0.0
H2037 H 0.63757 0.26641 0.22866 0.0
C2038 C 0.62119 0.30925 0.21484 0.0
C2039 C 0.61496 0.2762 0.22075 0.0
C2040 C 0.60246 0.25686 0.22098 0.0
C2041 C 0.63926 0.31158 0.21938 0.0
C2042 C 0.64521 0.29578 0.224 0.0
C2043 C 0.63297 0.27852 0.22516 0.0
C2044 C 0.66397 0.29594 0.22592 0.0
C2045 C 0.65178 0.33082 0.21899 0.0
C2046 C 0.67366 0.2991 0.21096 0.0
C2047 C 0.69035 0.29593 0.21136 0.0
C2048 C 0.69744 0.28922 0.22659 0.0
C2049 C 0.68801 0.28675 0.24183 0.0
C2050 C 0.67141 0.29012 0.24151 0.0
H2051 H 0.64534 0.34268 0.22187 0.0
H2052 H 0.66363 0.33359 0.22928 0.0
H2053 H 0.65599 0.33106 0.20495 0.0
H2054 H 0.66798 0.30304 0.19856 0.0
H2055 H 0.69732 0.29778 0.19938 0.0
H2056 H 0.5955 0.89995 0.88768 0.0
H2057 H 0.59539 0.92931 0.90844 0.0
H2058 H 0.58453 0.89638 0.95288 0.0
H2059 H 0.58593 0.86745 0.93257 0.0
H2060 H 0.57226 0.94035 0.92457 0.0
H2061 H 0.62255 0.93888 0.98039 0.0
H2062 H 0.61892 0.92297 0.95848 0.0
H2063 H 0.60623 0.9164 0.97705 0.0
C2064 C 0.59323 0.89911 0.90195 0.0
C2065 C 0.59086 0.88157 0.90865 0.0
C2066 C 0.59321 0.91586 0.9138 0.0
C2067 C 0.59048 0.91521 0.93242 0.0
C2068 C 0.58748 0.89748 0.93885 0.0
H2069 H 0.53745 0.97898 0.99944 0.0
H2070 H 0.54817 0.96114 0.9744 0.0
C2071 C 0.58803 0.88089 0.92719 0.0
C2072 C 0.58961 0.93271 0.9449 0.0
H2073 H 0.60003 0.95463 0.98999 0.0
C2074 C 0.57866 0.94375 0.93877 0.0
C2075 C 0.59851 0.93782 0.9632 0.0
C2076 C 0.61237 0.9285 0.97002 0.0
C2077 C 0.57521 0.95864 0.95089 0.0
C2078 C 0.58213 0.96185 0.96989 0.0
C2079 C 0.59426 0.95192 0.97558 0.0
C2080 C 0.57577 0.9739 0.98437 0.0
C2081 C 0.56407 0.97053 0.94309 0.0
C2082 C 0.5876 0.98643 0.99886 0.0
C2083 C 0.58139 0.99579 0.01375 0.0
C2084 C 0.56329 0.99314 0.01406 0.0
C2085 C 0.55148 0.98118 0.99938 0.0
C2086 C 0.55764 0.97128 0.98489 0.0
H2087 H 0.56693 0.97276 0.92885 0.0
H2088 H 0.55 0.96271 0.94201 0.0
H2089 H 0.56628 0.98479 0.95183 0.0
H2090 H 0.60164 0.98872 0.99885 0.0
H2091 H 0.5907 1.00523 0.02488 0.0
H2092 H 0.96679 0.72514 0.73007 0.0
H2093 H 0.94126 0.72749 0.74582 0.0
H2094 H 0.92601 0.76058 0.70573 0.0
H2095 H 0.95139 0.75815 0.68975 0.0
H2096 H 0.93367 0.76091 0.76171 0.0
H2097 H 0.88071 0.71882 0.70657 0.0
H2098 H 0.90325 0.7177 0.70658 0.0
H2099 H 0.89631 0.73717 0.69823 0.0
C2100 C 0.95795 0.73282 0.72453 0.0
C2101 C 0.96105 0.74144 0.70865 0.0
C2102 C 0.94338 0.73411 0.73354 0.0
C2103 C 0.93166 0.74391 0.72672 0.0
C2104 C 0.93474 0.75258 0.71092 0.0
H2105 H 0.86612 0.80703 0.77024 0.0
H2106 H 0.89017 0.79339 0.76231 0.0
C2107 C 0.94929 0.7513 0.7019 0.0
C2108 C 0.91672 0.7461 0.73669 0.0
H2109 H 0.87255 0.74051 0.72995 0.0
C2110 C 0.92025 0.75615 0.75492 0.0
C2111 C 0.89923 0.73949 0.72792 0.0
C2112 C 0.89461 0.72751 0.70881 0.0
C2113 C 0.90682 0.76099 0.76416 0.0
C2114 C 0.88957 0.75584 0.75476 0.0
C2115 C 0.88585 0.74459 0.73705 0.0
C2116 C 0.87566 0.76389 0.76197 0.0
C2117 C 0.91128 0.77203 0.78368 0.0
C2118 C 0.85951 0.75178 0.7643 0.0
C2119 C 0.84563 0.75953 0.76872 0.0
C2120 C 0.8477 0.7795 0.77063 0.0
C2121 C 0.86409 0.79159 0.76884 0.0
C2122 C 0.87791 0.78384 0.76448 0.0
H2123 H 0.923 0.76909 0.79097 0.0
H2124 H 0.91437 0.78766 0.78313 0.0
H2125 H 0.90013 0.76837 0.79189 0.0
H2126 H 0.85752 0.73632 0.76224 0.0
H2127 H 0.83316 0.74984 0.77002 0.0
H2128 H 0.15381 0.02354 0.85468 0.0
H2129 H 0.13986 0.02471 0.88342 0.0
H2130 H 0.10769 0.05841 0.86152 0.0
H2131 H 0.12179 0.05757 0.83295 0.0
H2132 H 0.13729 0.05772 0.91046 0.0
H2133 H 0.07116 1.01401 0.87828 0.0
H2134 H 0.09062 1.01399 0.86715 0.0
H2135 H 0.08081 0.03374 0.86691 0.0
C2136 C 0.14373 0.03118 0.85586 0.0
C2137 C 0.13905 0.04037 0.84108 0.0
C2138 C 0.13572 0.03191 0.87251 0.0
C2139 C 0.12239 0.04151 0.87503 0.0
C2140 C 0.11767 0.05065 0.86025 0.0
H2141 H 0.05133 0.05712 0.95942 0.0
H2142 H 0.0671 0.05578 0.93228 0.0
C2143 C 0.12588 0.0502 0.84374 0.0
C2144 C 0.11352 0.04206 0.89291 0.0
H2145 H 0.07365 0.02856 0.90956 0.0
C2146 C 0.12337 0.05122 0.91018 0.0
C2147 C 0.09529 0.03378 0.89307 0.0
C2148 C 0.08379 0.02317 0.87544 0.0
C2149 C 0.11561 0.05277 0.92704 0.0
C2150 C 0.09736 0.04434 0.92726 0.0
C2151 C 0.08757 0.03507 0.90994 0.0
C2152 C 0.08799 0.04551 0.94486 0.0
C2153 C 0.1271 0.0642 0.94437 0.0
C2154 C 0.09399 0.04017 0.96172 0.0
C2155 C 0.08478 0.04094 0.9776 0.0
C2156 C 0.06915 0.04705 0.97733 0.0
C2157 C 0.06325 0.05236 0.96051 0.0
C2158 C 0.07236 0.05154 0.94472 0.0
H2159 H 0.13876 0.07465 0.94103 0.0
H2160 H 0.11977 0.07216 0.95333 0.0
H2161 H 0.13189 0.0542 0.95232 0.0
H2162 H 0.10564 0.03495 0.96254 0.0
H2163 H 0.08973 0.03636 0.98997 0.0
H2164 H 0.76804 0.39764 0.53335 0.0
H2165 H 0.76832 0.38637 0.56322 0.0
H2166 H 0.79696 0.44317 0.59059 0.0
H2167 H 0.79674 0.45472 0.56067 0.0
H2168 H 0.80656 0.39477 0.58325 0.0
H2169 H 0.75744 0.41744 0.62504 0.0
H2170 H 0.75341 0.41227 0.59996 0.0
H2171 H 0.7697 0.43345 0.61118 0.0
C2172 C 0.77396 0.40791 0.54576 0.0
C2173 C 0.78262 0.42699 0.54463 0.0
C2174 C 0.77404 0.40145 0.56281 0.0
C2175 C 0.78267 0.41397 0.57899 0.0
C2176 C 0.79009 0.43339 0.5782 0.0
H2177 H 0.81445 0.37957 0.68415 0.0
H2178 H 0.80858 0.39935 0.66097 0.0
C2179 C 0.78997 0.43993 0.5611 0.0
C2180 C 0.78667 0.40582 0.59567 0.0
H2181 H 0.77379 0.398 0.63781 0.0
C2182 C 0.79952 0.39559 0.59526 0.0
C2183 C 0.77754 0.40719 0.61127 0.0
C2184 C 0.76371 0.41815 0.61207 0.0
C2185 C 0.80315 0.38612 0.60991 0.0
C2186 C 0.79348 0.38671 0.62518 0.0
C2187 C 0.78108 0.39756 0.62596 0.0
C2188 C 0.79549 0.37508 0.63979 0.0
C2189 C 0.81711 0.37529 0.60883 0.0
C2190 C 0.78975 0.355 0.63553 0.0
C2191 C 0.79303 0.34371 0.64864 0.0
C2192 C 0.80211 0.35234 0.66627 0.0
C2193 C 0.80735 0.37253 0.6707 0.0
C2194 C 0.80403 0.38384 0.65753 0.0
H2195 H 0.82599 0.37983 0.59841 0.0
H2196 H 0.82511 0.37744 0.62255 0.0
H2197 H 0.81073 0.35968 0.60475 0.0
H2198 H 0.783 0.34806 0.6219 0.0
H2199 H 0.7885 0.32821 0.64496 0.0
H2200 H 0.47154 0.11294 0.37041 0.0
H2201 H 0.49119 0.11873 0.39954 0.0
H2202 H 0.52486 0.08872 0.3718 0.0
H2203 H 0.50582 0.08356 0.34277 0.0
H2204 H 0.49636 0.09207 0.41754 0.0
H2205 H 0.56132 0.13115 0.40326 0.0
H2206 H 0.54156 0.12934 0.38806 0.0
H2207 H 0.55294 0.11066 0.38543 0.0
C2208 C 0.48339 0.10804 0.37046 0.0
C2209 C 0.48709 0.09772 0.35432 0.0
C2210 C 0.49462 0.11138 0.38709 0.0
C2211 C 0.50968 0.10443 0.38784 0.0
C2212 C 0.51368 0.09478 0.37153 0.0
H2213 H 0.54775 0.04536 0.46498 0.0
H2214 H 0.53343 0.0584 0.44074 0.0
C2215 C 0.50261 0.09163 0.35492 0.0
C2216 C 0.5198 0.10454 0.40588 0.0
H2217 H 0.56148 0.10895 0.42588 0.0
C2218 C 0.5106 0.09626 0.41955 0.0
C2219 C 0.53839 0.11035 0.40882 0.0
C2220 C 0.54906 0.12108 0.39566 0.0
C2221 C 0.51946 0.09209 0.43522 0.0
C2222 C 0.53796 0.09577 0.43696 0.0
C2223 C 0.54725 0.10563 0.42423 0.0
C2224 C 0.54761 0.08804 0.45098 0.0
C2225 C 0.50888 0.08323 0.44947 0.0
C2226 C 0.561 0.10028 0.46413 0.0
C2227 C 0.5694 0.09278 0.47783 0.0
C2228 C 0.56445 0.07298 0.47849 0.0
C2229 C 0.55165 0.06069 0.46482 0.0
C2230 C 0.54337 0.06815 0.45111 0.0
H2231 H 0.49627 0.08735 0.44961 0.0
H2232 H 0.5057 0.06733 0.44593 0.0
H2233 H 0.51627 0.08763 0.46363 0.0
H2234 H 0.56459 0.11565 0.4641 0.0
H2235 H 0.57926 0.10252 0.48828 0.0
H2236 H 0.80069 0.74822 0.05627 0.0
H2237 H 0.80414 0.76449 0.08846 0.0
H2238 H 0.80609 0.71157 0.10791 0.0
H2239 H 0.80335 0.6955 0.07601 0.0
H2240 H 0.78359 0.75857 0.11446 0.0
H2241 H 0.84725 0.74733 0.14022 0.0
H2242 H 0.83906 0.74268 0.11584 0.0
H2243 H 0.83198 0.72486 0.13039 0.0
C2244 C 0.80213 0.74014 0.06742 0.0
C2245 C 0.8019 0.72058 0.06352 0.0
C2246 C 0.80406 0.74944 0.08583 0.0
C2247 C 0.80573 0.73938 0.10071 0.0
C2248 C 0.80542 0.71986 0.09678 0.0
H2249 H 0.7782 0.76596 0.21128 0.0
H2250 H 0.77878 0.7549 0.17839 0.0
C2251 C 0.80372 0.71063 0.07845 0.0
C2252 C 0.8068 0.74889 0.12028 0.0
H2253 H 0.82934 0.75492 0.16353 0.0
C2254 C 0.79373 0.75797 0.12515 0.0
C2255 C 0.82019 0.74849 0.13425 0.0
C2256 C 0.83551 0.7405 0.12986 0.0
C2257 C 0.79331 0.76602 0.14362 0.0
C2258 C 0.80599 0.76438 0.15778 0.0
C2259 C 0.81942 0.75592 0.1528 0.0
C2260 C 0.80555 0.77121 0.17783 0.0
C2261 C 0.77941 0.7764 0.14764 0.0
C2262 C 0.82059 0.78349 0.18877 0.0
C2263 C 0.82042 0.78947 0.20772 0.0
C2264 C 0.80514 0.78342 0.21614 0.0
C2265 C 0.79011 0.77109 0.20519 0.0
C2266 C 0.79038 0.76487 0.18631 0.0
H2267 H 0.77492 0.78205 0.13525 0.0
H2268 H 0.76784 0.7662 0.15141 0.0
H2269 H 0.78429 0.78858 0.15931 0.0
H2270 H 0.83249 0.78852 0.18264 0.0
H2271 H 0.83223 0.79899 0.21573 0.0
H2272 H 0.16323 1.01019 0.71655 0.0
H2273 H 0.14859 1.01133 0.68609 0.0
H2274 H 0.11126 0.03658 0.71232 0.0
H2275 H 0.1258 0.03529 0.74301 0.0
H2276 H 0.09453 1.01082 0.68165 0.0
H2277 H 0.15339 0.05751 0.66054 0.0
H2278 H 0.15712 0.03561 0.66656 0.0
H2279 H 0.15235 0.05288 0.68404 0.0
C2280 C 0.15183 0.0159 0.71601 0.0
C2281 C 0.1459 0.02265 0.73267 0.0
C2282 C 0.14349 0.01674 0.69835 0.0
C2283 C 0.12887 0.02449 0.69645 0.0
C2284 C 0.12252 0.03064 0.71303 0.0
H2285 H 0.09235 0.0631 0.59347 0.0
H2286 H 0.10517 0.06055 0.62441 0.0
C2287 C 0.1309 0.02984 0.73075 0.0
C2288 C 0.12038 0.02621 0.67734 0.0
H2289 H 0.12927 0.04401 0.63694 0.0
C2290 C 0.10221 0.01812 0.67195 0.0
C2291 C 0.13001 0.03597 0.66437 0.0
C2292 C 0.14925 0.04616 0.66919 0.0
C2293 C 0.0937 0.01911 0.65428 0.0
C2294 C 0.10347 0.02828 0.64106 0.0
C2295 C 0.12156 0.03672 0.64663 0.0
C2296 C 0.09523 0.02968 0.62172 0.0
C2297 C 0.07412 1.01067 0.65018 0.0
C2298 C 0.0853 1.01327 0.60918 0.0
C2299 C 0.07787 1.01472 0.59126 0.0
C2300 C 0.08008 0.03263 0.58502 0.0
C2301 C 0.09014 0.04901 0.59751 0.0
C2302 C 0.0976 0.04754 0.6154 0.0
H2303 H 0.06789 1.00951 0.66313 0.0
H2304 H 0.06788 0.01949 0.6419 0.0
H2305 H 0.07139 0.99598 0.6421 0.0
H2306 H 0.08346 0.99916 0.61312 0.0
H2307 H 0.0704 1.00167 0.58224 0.0
H2308 H 0.78476 0.3602 0.46037 0.0
H2309 H 0.78251 0.33739 0.43198 0.0
H2310 H 0.7722 0.37927 0.39917 0.0
H2311 H 0.7742 0.40219 0.42757 0.0
H2312 H 0.75256 0.33962 0.3852 0.0
H2313 H 0.82452 0.34931 0.40142 0.0
H2314 H 0.81139 0.3416 0.41915 0.0
H2315 H 0.81309 0.36507 0.41316 0.0
C2316 C 0.78166 0.36445 0.44713 0.0
C2317 C 0.77992 0.38309 0.44616 0.0
C2318 C 0.78041 0.3514 0.43095 0.0
C2319 C 0.77754 0.35683 0.41355 0.0
C2320 C 0.77449 0.37489 0.41252 0.0
H2321 H 0.80811 0.33018 0.30819 0.0
H2322 H 0.80339 0.34259 0.3394 0.0
C2323 C 0.77564 0.38795 0.42874 0.0
C2324 C 0.77959 0.34458 0.39652 0.0
H2325 H 0.81052 0.32893 0.37379 0.0
C2326 C 0.76515 0.33705 0.38274 0.0
C2327 C 0.79612 0.34147 0.39338 0.0
C2328 C 0.81223 0.34988 0.40746 0.0
C2329 C 0.76691 0.32675 0.36567 0.0
C2330 C 0.78349 0.32387 0.36249 0.0
C2331 C 0.7978 0.33102 0.37644 0.0
C2332 C 0.78681 0.3156 0.34404 0.0
C2333 C 0.75129 0.31976 0.35085 0.0
C2334 C 0.77935 0.29617 0.33652 0.0
C2335 C 0.78215 0.28896 0.31864 0.0
C2336 C 0.79239 0.30115 0.30815 0.0
C2337 C 0.80021 0.32044 0.31598 0.0
C2338 C 0.79749 0.32756 0.33378 0.0
H2339 H 0.73996 0.32523 0.35472 0.0
H2340 H 0.75486 0.32432 0.33752 0.0
H2341 H 0.74712 0.30381 0.34854 0.0
H2342 H 0.77124 0.28668 0.34438 0.0
H2343 H 0.77598 0.27403 0.31288 0.0
H2344 H 0.41742 0.09028 0.24839 0.0
H2345 H 0.42203 0.09023 0.21576 0.0
H2346 H 0.47805 0.10691 0.23161 0.0
H2347 H 0.47366 0.10699 0.26417 0.0
H2348 H 0.46294 0.12292 0.19849 0.0
H2349 H 0.44301 0.04341 0.19653 0.0
H2350 H 0.42882 0.05758 0.20508 0.0
H2351 H 0.44959 0.05976 0.21824 0.0
C2352 C 0.43072 0.09452 0.245 0.0
C2353 C 0.4452 0.09826 0.25881 0.0
C2354 C 0.4333 0.09451 0.22636 0.0
C2355 C 0.45036 0.0984 0.22138 0.0
C2356 C 0.46479 0.10392 0.23526 0.0
H2357 H 0.51958 0.08546 0.14579 0.0
H2358 H 0.50158 0.09869 0.16645 0.0
C2359 C 0.46225 0.10382 0.25384 0.0
C2360 C 0.45342 0.09338 0.20199 0.0
H2361 H 0.45693 0.05479 0.17212 0.0
C2362 C 0.46126 0.10803 0.19242 0.0
C2363 C 0.45105 0.07395 0.19412 0.0
C2364 C 0.44272 0.05768 0.20395 0.0
C2365 C 0.46768 0.10371 0.17552 0.0
C2366 C 0.46673 0.08431 0.16848 0.0
C2367 C 0.45772 0.06967 0.17746 0.0
C2368 C 0.47696 0.07879 0.15361 0.0
C2369 C 0.47585 0.12003 0.16576 0.0
C2370 C 0.46924 0.06312 0.13948 0.0
C2371 C 0.47966 0.05497 0.12815 0.0
C2372 C 0.498 0.06249 0.13059 0.0
C2373 C 0.50554 0.07902 0.14385 0.0
C2374 C 0.49517 0.08693 0.1554 0.0
H2375 H 0.469 0.13164 0.16765 0.0
H2376 H 0.48969 0.12628 0.17204 0.0
H2377 H 0.47554 0.11521 0.15067 0.0
H2378 H 0.45524 0.05653 0.13785 0.0
H2379 H 0.47339 0.04222 0.1181 0.0
H2380 H 0.81337 0.71028 0.95271 0.0
H2381 H 0.81815 0.72376 0.92408 0.0
H2382 H 0.7813 0.75734 0.93562 0.0
H2383 H 0.77663 0.7442 0.96427 0.0
H2384 H 0.79407 0.72163 0.8934 0.0
H2385 H 0.82374 0.79763 0.92554 0.0
H2386 H 0.82135 0.77808 0.93872 0.0
H2387 H 0.80293 0.78748 0.93295 0.0
C2388 C 0.8064 0.72066 0.94924 0.0
C2389 C 0.7947 0.72624 0.96088 0.0
C2390 C 0.80911 0.72832 0.93283 0.0
C2391 C 0.80028 0.74178 0.92781 0.0
C2392 C 0.78856 0.7473 0.93937 0.0
H2393 H 0.78305 0.77623 0.81952 0.0
H2394 H 0.78019 0.76113 0.84753 0.0
C2395 C 0.78584 0.73968 0.95574 0.0
C2396 C 0.80289 0.74968 0.91023 0.0
H2397 H 0.81505 0.79168 0.89288 0.0
C2398 C 0.79874 0.73694 0.8933 0.0
C2399 C 0.80917 0.76965 0.91007 0.0
C2400 C 0.81472 0.784 0.92779 0.0
C2401 C 0.80035 0.74365 0.87623 0.0
C2402 C 0.80601 0.76366 0.87603 0.0
C2403 C 0.81051 0.77636 0.89299 0.0
C2404 C 0.80772 0.77177 0.85846 0.0
C2405 C 0.7962 0.72926 0.85856 0.0
C2406 C 0.82408 0.7828 0.85527 0.0
C2407 C 0.82572 0.79137 0.83931 0.0
C2408 C 0.811 0.78927 0.82626 0.0
C2409 C 0.79463 0.77803 0.8293 0.0
C2410 C 0.79301 0.76935 0.84527 0.0
H2411 H 0.79661 0.71467 0.86119 0.0
H2412 H 0.78279 0.72836 0.85203 0.0
H2413 H 0.80559 0.73377 0.84861 0.0
H2414 H 0.83561 0.78488 0.86522 0.0
H2415 H 0.83852 0.79991 0.83734 0.0
H2416 H 0.83656 0.09376 0.05329 0.0
H2417 H 0.85597 0.07701 0.03789 0.0
H2418 H 0.85412 0.10868 0.99241 0.0
H2419 H 0.83468 0.12561 1.00773 0.0
H2420 H 0.8504 0.05454 0.99997 0.0
H2421 H 0.90744 0.1194 0.01252 0.0
H2422 H 0.88884 0.11783 0.02537 0.0
H2423 H 0.8869 0.12153 1.00165 0.0
C2424 C 0.84023 0.09715 0.03999 0.0
C2425 C 0.83419 0.11112 0.0318 0.0
C2426 C 0.85125 0.08751 0.03119 0.0
C2427 C 0.85654 0.09174 0.01412 0.0
C2428 C 0.85028 0.10537 1.00568 0.0
H2429 H 0.94363 0.05395 0.96887 0.0
H2430 H 0.91807 0.06725 0.9697 0.0
C2431 C 0.83918 0.115 0.01445 0.0
C2432 C 0.86914 0.08228 1.00566 0.0
H2433 H 0.91238 0.09024 0.99956 0.0
C2434 C 0.86391 0.06235 0.99962 0.0
C2435 C 0.88667 0.09258 1.00505 0.0
C2436 C 0.89294 0.11401 0.01155 0.0
C2437 C 0.87595 0.05229 0.99362 0.0
C2438 C 0.89375 0.06241 0.99413 0.0
C2439 C 0.89874 0.0825 0.99921 0.0
C2440 C 0.90775 0.05238 0.99162 0.0
C2441 C 0.86956 0.0309 0.98707 0.0
C2442 C 0.91035 0.03951 1.00356 0.0
C2443 C 0.92492 0.032 1.00319 0.0
C2444 C 0.93732 0.0373 0.99096 0.0
C2445 C 0.9344 0.04971 0.97856 0.0
C2446 C 0.91977 0.05724 0.97894 0.0
H2447 H 0.85549 0.0267 0.98117 0.0
H2448 H 0.87734 0.02599 0.97642 0.0
H2449 H 0.87083 0.0233 0.99907 0.0
H2450 H 0.90156 0.036 0.01384 0.0
H2451 H 0.92693 0.02283 0.01321 0.0
H2452 H 0.3825 0.41731 0.0364 0.0
H2453 H 0.41222 0.4364 0.03466 0.0
H2454 H 0.39781 0.48817 0.05489 0.0
H2455 H 0.36806 0.46919 0.05689 0.0
H2456 H 0.423 0.46598 0.01414 0.0
H2457 H 0.44244 0.49219 0.08964 0.0
H2458 H 0.42346 0.47247 0.08063 0.0
H2459 H 0.42241 0.49686 0.08047 0.0
C2460 C 0.38563 0.43275 0.04057 0.0
C2461 C 0.37286 0.44168 0.04689 0.0
C2462 C 0.40264 0.44364 0.03954 0.0
C2463 C 0.40733 0.46368 0.0449 0.0
C2464 C 0.3946 0.47269 0.05104 0.0
H2465 H 0.50224 0.55495 0.04747 0.0
H2466 H 0.4726 0.53555 0.04938 0.0
C2467 C 0.37756 0.46181 0.05207 0.0
C2468 C 0.42542 0.47516 0.04366 0.0
H2469 H 0.46201 0.50593 0.06945 0.0
C2470 C 0.43157 0.47465 0.02624 0.0
C2471 C 0.43658 0.48647 0.05945 0.0
C2472 C 0.431 0.48695 0.07865 0.0
C2473 C 0.44843 0.48544 0.02412 0.0
C2474 C 0.45959 0.49679 0.03992 0.0
C2475 C 0.45345 0.49725 0.05734 0.0
C2476 C 0.47761 0.50844 0.03865 0.0
C2477 C 0.45398 0.48498 1.00491 0.0
C2478 C 0.49037 0.49966 0.03219 0.0
C2479 C 0.50729 0.51077 0.03102 0.0
C2480 C 0.51183 0.53079 0.03646 0.0
C2481 C 0.49912 0.53953 0.04314 0.0
C2482 C 0.48219 0.52846 0.04426 0.0
H2483 H 0.44252 0.47979 0.99394 0.0
H2484 H 0.46153 0.49946 1.00293 0.0
H2485 H 0.46253 0.47504 1.00303 0.0
H2486 H 0.4873 0.48421 0.02815 0.0
H2487 H 0.5168 0.50372 0.0259 0.0
H2488 H 0.41524 0.63554 0.77727 0.0
H2489 H 0.40189 0.66281 0.77962 0.0
H2490 H 0.36642 0.63552 0.73009 0.0
H2491 H 0.37963 0.60826 0.72778 0.0
H2492 H 0.39873 0.68993 0.75826 0.0
H2493 H 0.33118 0.64806 0.76238 0.0
H2494 H 0.34969 0.63785 0.76448 0.0
H2495 H 0.33974 0.63959 0.74194 0.0
C2496 C 0.40454 0.6352 0.76686 0.0
C2497 C 0.39862 0.61923 0.75237 0.0
C2498 C 0.39684 0.65102 0.7682 0.0
C2499 C 0.38267 0.65159 0.75528 0.0
C2500 C 0.3769 0.63571 0.74068 0.0
H2501 H 0.31486 0.73121 0.73989 0.0
H2502 H 0.32917 0.70487 0.73838 0.0
C2503 C 0.38466 0.61996 0.73927 0.0
C2504 C 0.3742 0.66868 0.75689 0.0
H2505 H 0.33462 0.68046 0.75815 0.0
C2506 C 0.3847 0.68774 0.75832 0.0
C2507 C 0.35581 0.66646 0.757 0.0
C2508 C 0.34344 0.64693 0.75655 0.0
C2509 C 0.37754 0.70405 0.75924 0.0
C2510 C 0.35911 0.70183 0.75933 0.0
C2511 C 0.34866 0.68274 0.75804 0.0
C2512 C 0.35034 0.71874 0.76041 0.0
C2513 C 0.38998 0.72346 0.75934 0.0
C2514 C 0.35686 0.73595 0.77343 0.0
C2515 C 0.34866 0.75136 0.77417 0.0
C2516 C 0.33328 0.75026 0.7622 0.0
C2517 C 0.32657 0.73295 0.74945 0.0
C2518 C 0.33487 0.71764 0.74859 0.0
H2519 H 0.40197 0.7221 0.75306 0.0
H2520 H 0.38367 0.73263 0.75162 0.0
H2521 H 0.39422 0.73083 0.7739 0.0
H2522 H 0.36827 0.73751 0.78333 0.0
H2523 H 0.35439 0.76418 0.78432 0.0
H2524 H 0.24576 0.67245 0.56386 0.0
H2525 H 0.21413 0.66062 0.56418 0.0
H2526 H 0.21901 0.60235 0.55804 0.0
H2527 H 0.25071 0.61416 0.55852 0.0
H2528 H 0.19167 0.6394 0.53697 0.0
H2529 H 0.18671 0.60054 0.59679 0.0
H2530 H 0.20701 0.61656 0.59309 0.0
H2531 H 0.20043 0.592 0.58133 0.0
C2532 C 0.24012 0.65714 0.56296 0.0
C2533 C 0.25068 0.64421 0.56119 0.0
C2534 C 0.22206 0.6504 0.56314 0.0
C2535 C 0.21421 0.63061 0.56137 0.0
C2536 C 0.2248 0.61771 0.55997 0.0
H2537 H 0.11151 0.56908 0.50908 0.0
H2538 H 0.14212 0.58737 0.51725 0.0
C2539 C 0.24292 0.62447 0.56012 0.0
C2540 C 0.19484 0.62335 0.55915 0.0
H2541 H 0.16137 0.59136 0.57337 0.0
C2542 C 0.18502 0.62913 0.54515 0.0
C2543 C 0.18609 0.61023 0.57001 0.0
C2544 C 0.19562 0.60466 0.58627 0.0
C2545 C 0.1668 0.62152 0.54117 0.0
C2546 C 0.15828 0.60722 0.55103 0.0
C2547 C 0.16796 0.6021 0.5656 0.0
C2548 C 0.13953 0.59681 0.54597 0.0
C2549 C 0.15694 0.62892 0.52646 0.0
C2550 C 0.128 0.59555 0.55952 0.0
C2551 C 0.11057 0.58472 0.55498 0.0
C2552 C 0.10437 0.5751 0.53677 0.0
C2553 C 0.11587 0.57654 0.52318 0.0
C2554 C 0.13334 0.58711 0.5278 0.0
H2555 H 0.16382 0.6439 0.52522 0.0
H2556 H 0.15618 0.61982 0.51282 0.0
H2557 H 0.14339 0.62857 0.52952 0.0
H2558 H 0.13253 0.60283 0.57365 0.0
H2559 H 0.10198 0.58388 0.56573 0.0
H2560 H 0.72097 1.0084 0.71641 0.0
H2561 H 0.74087 0.99062 0.72813 0.0
H2562 H 0.71909 0.99244 0.7801 0.0
H2563 H 0.69884 1.00991 0.76834 0.0
H2564 H 0.76622 1.00178 0.75902 0.0
H2565 H 0.71559 0.93538 0.7652 0.0
H2566 H 0.71074 0.95342 0.75246 0.0
H2567 H 0.71274 0.95734 0.77739 0.0
C2568 C 0.72033 1.00492 0.73029 0.0
C2569 C 0.70827 1.01044 0.74141 0.0
C2570 C 0.73174 0.99482 0.73698 0.0
C2571 C 0.7313 0.99005 0.75489 0.0
C2572 C 0.71939 0.99567 0.76611 0.0
H2573 H 0.79258 0.92131 0.80656 0.0
H2574 H 0.775 0.94435 0.80294 0.0
C2575 C 0.70789 1.0057 0.75939 0.0
C2576 C 0.7435 0.97935 0.76172 0.0
H2577 H 0.74505 0.93639 0.77463 0.0
C2578 C 0.76161 0.98753 0.76254 0.0
C2579 C 0.7374 0.96081 0.7664 0.0
C2580 C 0.71806 0.9511 0.76521 0.0
C2581 C 0.77381 0.97746 0.76753 0.0
C2582 C 0.76769 0.95873 0.77163 0.0
C2583 C 0.74963 0.95081 0.7715 0.0
C2584 C 0.77963 0.94644 0.77454 0.0
C2585 C 0.79314 0.98683 0.76819 0.0
C2586 C 0.78804 0.94014 0.75977 0.0
C2587 C 0.79798 0.92699 0.76176 0.0
C2588 C 0.79968 0.91997 0.77858 0.0
C2589 C 0.79163 0.9267 0.79353 0.0
C2590 C 0.78156 0.93975 0.79147 0.0
H2591 H 0.79587 1.00272 0.76952 0.0
H2592 H 0.80084 0.98323 0.77998 0.0
H2593 H 0.79775 0.98142 0.75514 0.0
H2594 H 0.78646 0.94494 0.74651 0.0
H2595 H 0.8041 0.92206 0.75006 0.0
H2596 H 0.76505 0.92454 0.52315 0.0
H2597 H 0.73978 0.9381 0.51864 0.0
H2598 H 0.76224 0.98269 0.5656 0.0
H2599 H 0.78746 0.9694 0.57012 0.0
H2600 H 0.71595 0.94352 0.54425 0.0
H2601 H 0.75047 1.0129 0.52507 0.0
H2602 H 0.76 0.99272 0.52452 0.0
H2603 H 0.76048 1.00795 0.54616 0.0
C2604 C 0.76468 0.93735 0.5324 0.0
C2605 C 0.77834 0.94593 0.54695 0.0
C2606 C 0.75021 0.94505 0.52983 0.0
C2607 C 0.74922 0.96158 0.54162 0.0
C2608 C 0.76286 0.97017 0.55609 0.0
H2609 H 0.67795 0.03156 0.56302 0.0
H2610 H 0.70199 0.01609 0.56204 0.0
C2611 C 0.77726 0.96247 0.55871 0.0
C2612 C 0.73367 0.9695 0.53939 0.0
H2613 H 0.72168 1.01056 0.5335 0.0
C2614 C 0.71713 0.95809 0.54167 0.0
C2615 C 0.73524 0.98853 0.53604 0.0
C2616 C 0.75247 1.0012 0.53263 0.0
C2617 C 0.70227 0.96546 0.54146 0.0
C2618 C 0.70393 0.98465 0.53855 0.0
C2619 C 0.7204 0.99588 0.53581 0.0
C2620 C 0.68897 0.99367 0.53907 0.0
C2621 C 0.68509 0.95287 0.54511 0.0
C2622 C 0.67362 0.98633 0.52639 0.0
C2623 C 0.65971 0.99507 0.52703 0.0
C2624 C 0.66088 1.01141 0.54032 0.0
C2625 C 0.67638 0.0188 0.55284 0.0
C2626 C 0.69024 1.01006 0.5522 0.0
H2627 H 0.68696 0.94033 0.55139 0.0
H2628 H 0.67836 0.96117 0.5545 0.0
H2629 H 0.67637 0.94734 0.53179 0.0
H2630 H 0.67244 0.97392 0.5159 0.0
H2631 H 0.64798 0.98892 0.51721 0.0
H2632 H 0.41852 0.50737 0.78353 0.0
H2633 H 0.40112 0.47479 0.7842 0.0
H2634 H 0.36156 0.48164 0.74341 0.0
H2635 H 0.37908 0.51458 0.74262 0.0
H2636 H 0.36775 0.45991 0.79312 0.0
H2637 H 0.37081 0.43132 0.71973 0.0
H2638 H 0.3847 0.45423 0.73132 0.0
H2639 H 0.36213 0.45198 0.72305 0.0
C2640 C 0.40608 0.50213 0.77468 0.0
C2641 C 0.40041 0.51395 0.76295 0.0
C2642 C 0.39606 0.48329 0.77511 0.0
C2643 C 0.38 0.47525 0.76366 0.0
C2644 C 0.37401 0.4871 0.75218 0.0
H2645 H 0.30682 0.35919 0.74275 0.0
H2646 H 0.32283 0.39251 0.74267 0.0
C2647 C 0.38402 0.50615 0.75187 0.0
C2648 C 0.36979 0.45459 0.76392 0.0
H2649 H 0.3538 0.41008 0.73683 0.0
C2650 C 0.36473 0.44906 0.78077 0.0
C2651 C 0.36569 0.4401 0.74793 0.0
C2652 C 0.37121 0.44456 0.72949 0.0
C2653 C 0.35554 0.42993 0.78201 0.0
C2654 C 0.35162 0.41532 0.76606 0.0
C2655 C 0.35668 0.42092 0.74919 0.0
C2656 C 0.3419 0.39444 0.76635 0.0
C2657 C 0.34964 0.42581 0.8004 0.0
C2658 C 0.34712 0.38364 0.77947 0.0
C2659 C 0.33773 0.36437 0.77965 0.0
C2660 C 0.32294 0.35508 0.76654 0.0
C2661 C 0.31805 0.3657 0.75316 0.0
C2662 C 0.32731 0.38493 0.75307 0.0
H2663 H 0.34861 0.43906 0.80925 0.0
H2664 H 0.3367 0.41505 0.79848 0.0
H2665 H 0.35943 0.42009 0.80799 0.0
H2666 H 0.35858 0.39005 0.78957 0.0
H2667 H 0.34207 0.35673 0.79007 0.0
H2668 H 0.22257 0.5915 0.23149 0.0
H2669 H 0.23676 0.6258 0.23518 0.0
H2670 H 0.18631 0.63831 0.23588 0.0
H2671 H 0.17201 0.60395 0.23283 0.0
H2672 H 0.23424 0.65319 0.21498 0.0
H2673 H 0.21267 0.67016 0.28397 0.0
H2674 H 0.20999 0.64583 0.27266 0.0
H2675 H 0.19497 0.65929 0.26572 0.0
C2676 C 0.21445 0.60151 0.23228 0.0
C2677 C 0.19619 0.59504 0.23207 0.0
C2678 C 0.22259 0.62112 0.2344 0.0
C2679 C 0.21262 0.6346 0.23622 0.0
C2680 C 0.19429 0.62816 0.23503 0.0
H2681 H 0.26175 0.75542 0.23262 0.0
H2682 H 0.24238 0.72286 0.22595 0.0
C2683 C 0.18613 0.60853 0.23315 0.0
C2684 C 0.22163 0.65536 0.23975 0.0
H2685 H 0.22858 0.69638 0.27131 0.0
C2686 C 0.23297 0.66267 0.22725 0.0
C2687 C 0.2201 0.66759 0.25593 0.0
C2688 C 0.20891 0.66033 0.27044 0.0
C2689 C 0.24305 0.68182 0.23061 0.0
C2690 C 0.24128 0.69414 0.2466 0.0
C2691 C 0.22977 0.68691 0.25899 0.0
C2692 C 0.25194 0.71432 0.25122 0.0
C2693 C 0.25599 0.68841 0.21735 0.0
C2694 C 0.2631 0.72058 0.26807 0.0
C2695 C 0.27396 0.73928 0.27208 0.0
C2696 C 0.27391 0.75196 0.25922 0.0
C2697 C 0.2623 0.74585 0.24264 0.0
C2698 C 0.25127 0.72724 0.23877 0.0
H2699 H 0.25908 0.67609 0.20886 0.0
H2700 H 0.25024 0.69643 0.20772 0.0
H2701 H 0.26843 0.69809 0.22494 0.0
H2702 H 0.26371 0.71084 0.27792 0.0
H2703 H 0.28273 0.74361 0.28499 0.0
H2704 H 0.55424 0.74398 0.46889 0.0
H2705 H 0.55249 0.71509 0.48285 0.0
H2706 H 0.50151 0.68876 0.4516 0.0
H2707 H 0.50334 0.71761 0.43716 0.0
H2708 H 0.52932 0.69639 0.50406 0.0
H2709 H 0.52824 0.64907 0.43741 0.0
H2710 H 0.53332 0.6749 0.43946 0.0
H2711 H 0.51094 0.66102 0.43804 0.0
C2712 C 0.54259 0.7321 0.46501 0.0
C2713 C 0.52898 0.73307 0.45177 0.0
C2714 C 0.54161 0.71557 0.47304 0.0
C2715 C 0.52702 0.6996 0.46805 0.0
C2716 C 0.51308 0.70074 0.45536 0.0
H2717 H 0.5144 0.58554 0.50098 0.0
H2718 H 0.50786 0.61354 0.48968 0.0
C2719 C 0.51409 0.71729 0.44721 0.0
C2720 C 0.52679 0.68175 0.47596 0.0
H2721 H 0.52713 0.63471 0.46437 0.0
C2722 C 0.52872 0.68287 0.49536 0.0
C2723 C 0.526 0.66409 0.46462 0.0
C2724 C 0.52466 0.66213 0.44374 0.0
C2725 C 0.53017 0.66694 0.50372 0.0
C2726 C 0.52985 0.64947 0.49239 0.0
C2727 C 0.52733 0.64813 0.47301 0.0
C2728 C 0.53331 0.63283 0.50034 0.0
C2729 C 0.53216 0.66896 0.52461 0.0
C2730 C 0.54979 0.63439 0.51008 0.0
C2731 C 0.55362 0.61843 0.51647 0.0
C2732 C 0.54104 0.60052 0.51326 0.0
C2733 C 0.5244 0.5991 0.50378 0.0
C2734 C 0.52062 0.61508 0.49727 0.0
H2735 H 0.52743 0.6812 0.53101 0.0
H2736 H 0.52485 0.6556 0.52914 0.0
H2737 H 0.54625 0.67166 0.52992 0.0
H2738 H 0.55988 0.64787 0.51234 0.0
H2739 H 0.56658 0.62009 0.52368 0.0
H2740 H 0.63245 0.32135 0.69856 0.0
H2741 H 0.66097 0.32248 0.71507 0.0
H2742 H 0.6869 0.34678 0.6712 0.0
H2743 H 0.65844 0.34583 0.65458 0.0
H2744 H 0.6857 0.30352 0.70152 0.0
H2745 H 0.71423 0.38259 0.71872 0.0
H2746 H 0.69103 0.3719 0.71192 0.0
H2747 H 0.70593 0.37344 0.69472 0.0
C2748 C 0.6442 0.3272 0.6925 0.0
C2749 C 0.64307 0.33355 0.67521 0.0
C2750 C 0.66052 0.32775 0.70194 0.0
C2751 C 0.67611 0.33482 0.69445 0.0
C2752 C 0.67509 0.34152 0.6774 0.0
H2753 H 0.77694 0.31326 0.73431 0.0
H2754 H 0.75176 0.31609 0.71373 0.0
C2755 C 0.65876 0.34092 0.66789 0.0
C2756 C 0.6933 0.33437 0.70416 0.0
H2757 H 0.73268 0.36295 0.72637 0.0
C2758 C 0.69601 0.3165 0.70688 0.0
C2759 C 0.70673 0.35133 0.71119 0.0
C2760 C 0.70438 0.37094 0.70917 0.0
C2761 C 0.71167 0.31514 0.71656 0.0
C2762 C 0.7251 0.33209 0.72361 0.0
C2763 C 0.72246 0.34996 0.72078 0.0
C2764 C 0.74128 0.33165 0.73536 0.0
C2765 C 0.71351 0.29561 0.71974 0.0
C2766 C 0.74408 0.33997 0.75416 0.0
C2767 C 0.75842 0.33839 0.76584 0.0
C2768 C 0.77036 0.32861 0.75895 0.0
C2769 C 0.76797 0.32089 0.73997 0.0
C2770 C 0.75353 0.3224 0.72825 0.0
H2771 H 0.70081 0.28441 0.71631 0.0
H2772 H 0.72296 0.2913 0.71082 0.0
H2773 H 0.71868 0.29606 0.73442 0.0
H2774 H 0.73486 0.3472 0.75996 0.0
H2775 H 0.75993 0.34452 0.7804 0.0
H2776 H 1.00909 0.32744 0.96445 0.0
H2777 H 0.01678 0.36191 0.97604 0.0
H2778 H 0.05437 0.37166 0.9369 0.0
H2779 H 0.04655 0.33708 0.92497 0.0
H2780 H 0.04834 0.38778 0.99161 0.0
H2781 H 0.02294 0.40685 0.92554 0.0
H2782 H 0.01826 0.38242 0.93003 0.0
H2783 H 0.03925 0.39361 0.92354 0.0
C2784 C 0.01908 0.33686 0.95834 0.0
C2785 C 0.02712 0.32949 0.94367 0.0
C2786 C 0.02347 0.35659 0.96502 0.0
C2787 C 0.03593 0.36941 0.95714 0.0
C2788 C 0.04446 0.36207 0.94293 0.0
H2789 H 0.07802 0.49091 1.00602 0.0
H2790 H 0.075 0.45716 0.99367 0.0
C2791 C 0.04006 0.34228 0.93622 0.0
C2792 C 0.03962 0.39043 0.96366 0.0
H2793 H 0.03624 0.43256 0.94984 0.0
C2794 C 0.04579 0.3976 0.98246 0.0
C2795 C 0.03604 0.40317 0.95176 0.0
C2796 C 0.02861 0.39617 0.93163 0.0
C2797 C 0.04842 0.41714 0.98971 0.0
C2798 C 0.04506 0.42993 0.97776 0.0
C2799 C 0.03894 0.42276 0.95894 0.0
C2800 C 0.04712 0.45063 0.98466 0.0
C2801 C 0.05425 0.42381 0.01023 0.0
C2802 C 0.03257 0.45836 0.98318 0.0
C2803 C 0.03426 0.47771 0.9901 0.0
C2804 C 0.05057 0.48977 0.99859 0.0
C2805 C 0.06522 0.48206 0.99969 0.0
C2806 C 0.06351 0.46271 0.99272 0.0
H2807 H 0.05212 0.41159 0.01813 0.0
H2808 H 0.06849 0.43115 0.01242 0.0
H2809 H 0.04711 0.43417 0.01602 0.0
H2810 H 0.0198 0.44932 0.97693 0.0
H2811 H 0.0227 0.48313 0.98898 0.0
H2812 H 0.03977 0.83998 0.16309 0.0
H2813 H 0.01287 0.83996 0.17738 0.0
H2814 H 0.02197 0.79641 0.20861 0.0
H2815 H 0.04886 0.79654 0.19471 0.0
H2816 H 0.98331 0.8095 0.17554 0.0
H2817 H 0.01283 0.8358 0.24873 0.0
H2818 H 0.02567 0.83772 0.22956 0.0
H2819 H 0.0195 0.81537 0.23831 0.0
C2820 C 0.03615 0.83058 0.17318 0.0
C2821 C 0.04654 0.81834 0.17783 0.0
C2822 C 0.02075 0.83054 0.18129 0.0
C2823 C 0.01552 0.81838 0.19428 0.0
C2824 C 0.02592 0.80623 0.19896 0.0
H2825 H 0.92576 0.78865 0.25503 0.0
H2826 H 0.95244 0.78974 0.24007 0.0
C2827 C 0.04127 0.80626 0.1909 0.0
C2828 C 0.99884 0.8177 0.20238 0.0
H2829 H 0.98184 0.82225 0.24356 0.0
C2830 C 0.98299 0.81245 0.1904 0.0
C2831 C 0.99843 0.82148 0.22179 0.0
C2832 C 0.01503 0.82809 0.23535 0.0
C2833 C 0.96673 0.81043 0.19732 0.0
C2834 C 0.96633 0.81399 0.21672 0.0
C2835 C 0.98217 0.81938 0.22869 0.0
C2836 C 0.94963 0.81258 0.22492 0.0
C2837 C 0.9501 0.80404 0.18382 0.0
C2838 C 0.93918 0.82503 0.22134 0.0
C2839 C 0.92395 0.82441 0.22982 0.0
C2840 C 0.91885 0.81137 0.24213 0.0
C2841 C 0.9292 0.7987 0.24547 0.0
C2842 C 0.9445 0.7994 0.23703 0.0
H2843 H 0.95235 0.7973 0.17003 0.0
H2844 H 0.93975 0.79364 0.18923 0.0
H2845 H 0.94514 0.81674 0.18186 0.0
H2846 H 0.943 0.8355 0.21226 0.0
H2847 H 0.9162 0.83425 0.22681 0.0
H2848 H 0.48706 0.30656 0.15265 0.0
H2849 H 0.48643 0.33526 0.13865 0.0
H2850 H 0.49881 0.30808 0.08735 0.0
H2851 H 0.49976 0.27959 0.10126 0.0
H2852 H 0.51934 0.35437 0.12263 0.0
H2853 H 0.45802 0.33473 0.07314 0.0
H2854 H 0.46017 0.32367 0.0936 0.0
H2855 H 0.47014 0.31682 0.07358 0.0
C2856 C 0.48917 0.30652 0.13824 0.0
C2857 C 0.49354 0.29089 0.12805 0.0
C2858 C 0.48885 0.32291 0.1303 0.0
C2859 C 0.49247 0.32368 0.11197 0.0
C2860 C 0.49578 0.30765 0.10145 0.0
H2861 H 0.51742 0.39839 0.03326 0.0
H2862 H 0.50741 0.37239 0.05073 0.0
C2863 C 0.49638 0.29142 0.10944 0.0
C2864 C 0.4952 0.34192 0.10449 0.0
H2865 H 0.48 0.36247 0.06953 0.0
C2866 C 0.51062 0.35638 0.11124 0.0
C2867 C 0.48385 0.34425 0.08953 0.0
C2868 C 0.46703 0.32913 0.08205 0.0
C2869 C 0.51552 0.37276 0.10277 0.0
C2870 C 0.50435 0.37498 0.08749 0.0
C2871 C 0.48854 0.36079 0.08123 0.0
C2872 C 0.5095 0.39109 0.07692 0.0
C2873 C 0.53312 0.38688 0.10957 0.0
C2874 C 0.51371 0.41031 0.08572 0.0
C2875 C 0.51992 0.42526 0.07585 0.0
C2876 C 0.52173 0.42129 0.05688 0.0
C2877 C 0.51669 0.40202 0.04795 0.0
C2878 C 0.51073 0.38711 0.05787 0.0
H2879 H 0.54186 0.38059 0.11808 0.0
H2880 H 0.53991 0.39177 0.09778 0.0
H2881 H 0.53113 0.39964 0.1184 0.0
H2882 H 0.51245 0.41377 0.1003 0.0
H2883 H 0.52371 0.43988 0.08325 0.0
H2884 H 0.0555 0.30751 0.35373 0.0
H2885 H 0.02515 0.30621 0.34303 0.0
H2886 H 0.01688 0.32514 0.39913 0.0
H2887 H 0.04743 0.32683 0.41002 0.0
H2888 H 0.99319 0.28593 0.35305 0.0
H2889 H 1.00399 0.36524 0.36983 0.0
H2890 H 0.02188 0.35396 0.36941 0.0
H2891 H 1.00951 0.35367 0.38883 0.0
C2892 C 0.04724 0.3113 0.36385 0.0
C2893 C 0.05393 0.31747 0.38271 0.0
C2894 C 0.02989 0.3105 0.3577 0.0
C2895 C 0.01892 0.31585 0.37026 0.0
C2896 C 0.02529 0.32129 0.3892 0.0
H2897 H 0.90707 0.30479 0.34402 0.0
H2898 H 0.9355 0.30186 0.35761 0.0
C2899 C 0.0427 0.32216 0.39539 0.0
C2900 C 1.00104 0.31637 0.36326 0.0
H2901 H 0.97537 0.34702 0.35735 0.0
C2902 C 0.98922 0.29924 0.35408 0.0
C2903 C 0.99608 0.33384 0.36445 0.0
C2904 C 1.00854 0.35278 0.37352 0.0
C2905 C 0.97249 0.29914 0.34596 0.0
C2906 C 0.96754 0.31659 0.34725 0.0
C2907 C 0.97929 0.33369 0.35651 0.0
C2908 C 0.95035 0.31756 0.33862 0.0
C2909 C 0.9604 0.28055 0.33565 0.0
C2910 C 0.94945 0.3274 0.32353 0.0
C2911 C 0.93329 0.32909 0.31576 0.0
C2912 C 0.91786 0.32113 0.32313 0.0
C2913 C 0.91881 0.31115 0.33818 0.0
C2914 C 0.93496 0.30936 0.34585 0.0
H2915 H 0.9673 0.26903 0.33326 0.0
H2916 H 0.94951 0.2756 0.34386 0.0
H2917 H 0.95454 0.28274 0.32204 0.0
H2918 H 0.96127 0.33389 0.31787 0.0
H2919 H 0.93292 0.33703 0.30431 0.0
H2920 H 0.99698 0.67591 0.66497 0.0
H2921 H 0.99957 0.64529 0.64847 0.0
H2922 H 1.0 0.66805 0.59711 0.0
H2923 H 0.99746 0.69865 0.61335 0.0
H2924 H 0.97901 0.6189 0.61123 0.0
H2925 H 0.04961 0.65538 0.61206 0.0
H2926 H 0.03612 0.66385 0.62817 0.0
H2927 H 0.03445 0.66852 0.60472 0.0
C2928 C 0.99728 0.67429 0.6501 0.0
C2929 C 0.99729 0.68983 0.6405 0.0
C2930 C 0.99869 0.65677 0.64073 0.0
C2931 C 1.0001 0.6546 0.62168 0.0
C2932 C 0.99897 0.66959 0.61187 0.0
H2933 H 1.00499 0.57304 0.53046 0.0
H2934 H 0.99517 0.59214 0.55546 0.0
C2935 C 0.99757 0.68707 0.62118 0.0
C2936 C 1.00487 0.63771 0.61232 0.0
H2937 H 0.03841 0.62568 0.59182 0.0
C2938 C 0.99203 0.62019 0.60715 0.0
C2939 C 0.02198 0.63942 0.60749 0.0
C2940 C 0.03642 0.65774 0.6135 0.0
C2941 C 0.99567 0.60456 0.59619 0.0
C2942 C 0.01244 0.60679 0.59015 0.0
C2943 C 0.02552 0.62399 0.59635 0.0
C2944 C 0.01653 0.59237 0.57616 0.0
C2945 C 0.98146 0.58598 0.59103 0.0
C2946 C 0.03178 0.58617 0.57948 0.0
C2947 C 0.03757 0.57561 0.56513 0.0
C2948 C 0.02817 0.57105 0.54726 0.0
C2949 C 0.01247 0.57643 0.54414 0.0
C2950 C 1.00673 0.58712 0.55847 0.0
H2951 H 0.97274 0.58394 0.60209 0.0
H2952 H 0.97326 0.58649 0.57812 0.0
H2953 H 0.98699 0.57338 0.5886 0.0
H2954 H 0.03957 0.59013 0.59301 0.0
H2955 H 0.04967 0.57149 0.56792 0.0
H2956 H 0.63036 0.85613 0.8285 0.0
H2957 H 0.65671 0.86102 0.81281 0.0
H2958 H 0.6783 0.82759 0.84839 0.0
H2959 H 0.65224 0.82312 0.86456 0.0
H2960 H 0.70254 0.8605 0.8436 0.0
H2961 H 0.66663 0.81954 0.77572 0.0
H2962 H 0.65929 0.83985 0.78527 0.0
H2963 H 0.65664 0.81929 0.7969 0.0
C2964 C 0.64071 0.84978 0.83297 0.0
C2965 C 0.63917 0.83905 0.84763 0.0
C2966 C 0.65573 0.85259 0.82397 0.0
C2967 C 0.6693 0.84444 0.82928 0.0
C2968 C 0.66794 0.83401 0.84411 0.0
H2969 H 0.74047 0.79471 0.78505 0.0
H2970 H 0.71596 0.80685 0.7938 0.0
C2971 C 0.65302 0.83139 0.85327 0.0
C2972 C 0.68474 0.84606 0.81911 0.0
H2973 H 0.69724 0.82966 0.77797 0.0
C2974 C 0.70145 0.85408 0.82915 0.0
C2975 C 0.68314 0.83776 0.80022 0.0
C2976 C 0.66549 0.82849 0.78887 0.0
C2977 C 0.71666 0.85272 0.82123 0.0
C2978 C 0.715 0.84345 0.80266 0.0
C2979 C 0.69837 0.83683 0.79218 0.0
C2980 C 0.7296 0.83683 0.79529 0.0
C2981 C 0.73421 0.85981 0.8332 0.0
C2982 C 0.74531 0.84971 0.79282 0.0
C2983 C 0.75956 0.84277 0.78793 0.0
C2984 C 0.75815 0.82289 0.78542 0.0
C2985 C 0.74208 0.81011 0.78705 0.0
C2986 C 0.72799 0.81702 0.79195 0.0
H2987 H 0.73291 0.86477 0.84791 0.0
H2988 H 0.74112 0.84824 0.83276 0.0
H2989 H 0.74251 0.87203 0.8278 0.0
H2990 H 0.74667 0.86506 0.7951 0.0
H2991 H 0.77175 0.85296 0.78662 0.0
H2992 H 0.48902 0.56468 0.72508 0.0
H2993 H 0.50301 0.56307 0.69648 0.0
H2994 H 0.45596 0.56785 0.66549 0.0
H2995 H 0.44235 0.57039 0.69406 0.0
H2996 H 0.49971 0.54051 0.66619 0.0
H2997 H 0.48719 0.60514 0.6422 0.0
H2998 H 0.48274 0.59958 0.6648 0.0
H2999 H 0.46702 0.58845 0.64457 0.0
C3000 C 0.48167 0.5657 0.71225 0.0
C3001 C 0.46444 0.568 0.71239 0.0
C3002 C 0.48974 0.56467 0.69564 0.0
C3003 C 0.48102 0.56579 0.67824 0.0
C3004 C 0.46366 0.56771 0.67838 0.0
H3005 H 0.51186 0.54939 0.56155 0.0
H3006 H 0.49459 0.54972 0.58824 0.0
C3007 C 0.45568 0.569 0.69499 0.0
C3008 C 0.48979 0.56436 0.66017 0.0
H3009 H 0.4971 0.58421 0.62027 0.0
C3010 C 0.49906 0.55022 0.65632 0.0
C3011 C 0.48939 0.57682 0.64669 0.0
C3012 C 0.48122 0.59346 0.64984 0.0
C3013 C 0.50747 0.54816 0.63996 0.0
C3014 C 0.50684 0.56042 0.62648 0.0
C3015 C 0.49752 0.57446 0.63015 0.0
C3016 C 0.51704 0.55989 0.60953 0.0
C3017 C 0.51702 0.53266 0.63716 0.0
C3018 C 0.53551 0.5655 0.61202 0.0
C3019 C 0.54532 0.56555 0.59679 0.0
C3020 C 0.5373 0.55977 0.57814 0.0
C3021 C 0.51873 0.55387 0.57549 0.0
C3022 C 0.50879 0.55414 0.5909 0.0
H3023 H 0.51331 0.5218 0.64641 0.0
H3024 H 0.51427 0.52527 0.62251 0.0
H3025 H 0.53137 0.5393 0.64027 0.0
H3026 H 0.54249 0.57017 0.62591 0.0
H3027 H 0.5595 0.57027 0.59976 0.0
H3028 H 0.78408 0.19381 0.98886 0.0
H3029 H 0.78862 0.20335 0.95875 0.0
H3030 H 0.81917 0.16236 0.94804 0.0
H3031 H 0.81493 0.15287 0.97857 0.0
H3032 H 0.83577 0.19769 0.94156 0.0
H3033 H 0.76789 0.1779 0.90652 0.0
H3034 H 0.76906 0.19159 0.92907 0.0
H3035 H 0.77392 0.16849 0.92701 0.0
C3036 C 0.79159 0.18661 0.98005 0.0
C3037 C 0.79917 0.1726 0.98609 0.0
C3038 C 0.79402 0.19195 0.96274 0.0
C3039 C 0.80391 0.18326 0.951 0.0
C3040 C 0.81132 0.16906 0.95683 0.0
H3041 H 0.8069 0.23565 0.85034 0.0
H3042 H 0.80565 0.20965 0.86851 0.0
C3043 C 0.8089 0.16369 0.97425 0.0
C3044 C 0.80779 0.19062 0.93356 0.0
H3045 H 0.78797 0.20539 0.89718 0.0
C3046 C 0.82535 0.19894 0.93154 0.0
C3047 C 0.79425 0.19183 0.92023 0.0
C3048 C 0.77525 0.18176 0.92072 0.0
C3049 C 0.82961 0.21003 0.91755 0.0
C3050 C 0.81593 0.21319 0.90565 0.0
C3051 C 0.79848 0.20331 0.90655 0.0
C3052 C 0.81912 0.22834 0.89382 0.0
C3053 C 0.8487 0.2188 0.9161 0.0
C3054 C 0.82727 0.24746 0.90197 0.0
C3055 C 0.82817 0.26231 0.8916 0.0
C3056 C 0.82071 0.25838 0.87292 0.0
C3057 C 0.813 0.23915 0.86463 0.0
C3058 C 0.81218 0.22427 0.87501 0.0
H3059 H 0.85696 0.2095 0.92057 0.0
H3060 H 0.8508 0.22111 0.9017 0.0
H3061 H 0.85321 0.23287 0.92545 0.0
H3062 H 0.8323 0.25102 0.9166 0.0
H3063 H 0.83435 0.27693 0.89833 0.0
H3064 H 0.15823 0.50791 0.1729 0.0
H3065 H 0.13697 0.5017 0.14524 0.0
H3066 H 0.09458 0.49255 0.17893 0.0
H3067 H 0.11587 0.49958 0.20689 0.0
H3068 H 0.10732 0.47576 0.12635 0.0
H3069 H 0.09214 0.54199 0.1605 0.0
H3070 H 0.10989 0.53328 0.1699 0.0
H3071 H 0.08761 0.52197 0.17283 0.0
C3072 C 0.14438 0.50401 0.17443 0.0
C3073 C 0.13871 0.5048 0.1921 0.0
C3074 C 0.13222 0.50042 0.15856 0.0
C3075 C 0.11426 0.49732 0.16014 0.0
C3076 C 0.10845 0.49549 0.17752 0.0
H3077 H 0.04144 0.49621 0.06157 0.0
H3078 H 0.05547 0.48553 0.08789 0.0
C3079 C 0.12062 0.49944 0.19345 0.0
C3080 C 0.10231 0.49931 0.14428 0.0
H3081 H 0.07897 0.52961 0.13013 0.0
C3082 C 0.1009 0.48735 0.12718 0.0
C3083 C 0.09423 0.51471 0.14539 0.0
C3084 C 0.09611 0.52884 0.16306 0.0
C3085 C 0.09205 0.49074 0.11101 0.0
C3086 C 0.08419 0.50626 0.11217 0.0
C3087 C 0.08504 0.51773 0.12937 0.0
C3088 C 0.07614 0.51195 0.0956 0.0
C3089 C 0.09194 0.47834 0.09272 0.0
C3090 C 0.08296 0.53042 0.09144 0.0
C3091 C 0.07484 0.53663 0.07667 0.0
C3092 C 0.05983 0.52441 0.06575 0.0
C3093 C 0.05307 0.50585 0.06978 0.0
C3094 C 0.06114 0.49968 0.08467 0.0
H3095 H 0.10158 0.4696 0.09363 0.0
H3096 H 0.07868 0.46838 0.08848 0.0
H3097 H 0.09493 0.48731 0.0817 0.0
H3098 H 0.09446 0.54015 0.09982 0.0
H3099 H 0.08009 0.55112 0.07407 0.0
H3100 H 0.79398 0.88615 0.48183 0.0
H3101 H 0.78903 0.87375 0.44843 0.0
H3102 H 0.8183 0.83236 0.45747 0.0
H3103 H 0.82318 0.84452 0.49076 0.0
H3104 H 0.81511 0.87383 0.42543 0.0
H3105 H 0.77468 0.79944 0.42335 0.0
H3106 H 0.77771 0.81797 0.44333 0.0
H3107 H 0.79443 0.80557 0.43942 0.0
C3108 C 0.79909 0.87418 0.47675 0.0
C3109 C 0.80895 0.86631 0.48901 0.0
C3110 C 0.79629 0.86714 0.45764 0.0
C3111 C 0.80312 0.85197 0.45043 0.0
C3112 C 0.8126 0.8438 0.4627 0.0
H3113 H 0.83181 0.82426 0.34101 0.0
H3114 H 0.83056 0.83411 0.37398 0.0
C3115 C 0.81545 0.85086 0.48176 0.0
C3116 C 0.80154 0.84563 0.43002 0.0
H3117 H 0.78774 0.80618 0.39593 0.0
C3118 C 0.80898 0.85907 0.41896 0.0
C3119 C 0.79341 0.82642 0.42152 0.0
C3120 C 0.78445 0.81154 0.43247 0.0
C3121 C 0.80901 0.85371 0.3998 0.0
C3122 C 0.80159 0.83431 0.39146 0.0
C3123 C 0.79362 0.821 0.40237 0.0
C3124 C 0.80222 0.8276 0.37148 0.0
C3125 C 0.81695 0.86888 0.38862 0.0
C3126 C 0.78667 0.82011 0.35915 0.0
C3127 C 0.78732 0.81439 0.34022 0.0
C3128 C 0.80355 0.8159 0.33326 0.0
C3129 C 0.81908 0.82295 0.34579 0.0
C3130 C 0.8184 0.82871 0.36467 0.0
H3131 H 0.81788 0.8836 0.39588 0.0
H3132 H 0.83042 0.86795 0.38643 0.0
H3133 H 0.80913 0.86667 0.37479 0.0
H3134 H 0.77403 0.81901 0.36411 0.0
H3135 H 0.77509 0.80897 0.33104 0.0
H3136 H 0.48282 0.53038 0.8133 0.0
H3137 H 0.49516 0.52827 0.84457 0.0
H3138 H 0.49022 0.58502 0.86429 0.0
H3139 H 0.47718 0.5868 0.83319 0.0
H3140 H 0.52267 0.54481 0.86748 0.0
H3141 H 0.46879 0.56087 0.90428 0.0
H3142 H 0.46718 0.55693 0.87931 0.0
H3143 H 0.47853 0.58014 0.89254 0.0
C3144 C 0.4843 0.54246 0.82426 0.0
C3145 C 0.47878 0.55875 0.82039 0.0
C3146 C 0.49145 0.54124 0.84235 0.0
C3147 C 0.49343 0.55624 0.85747 0.0
C3148 C 0.48841 0.57278 0.85345 0.0
H3149 H 0.54008 0.57599 0.97594 0.0
H3150 H 0.5279 0.57891 0.94479 0.0
C3151 C 0.48107 0.57392 0.83539 0.0
C3152 C 0.50097 0.5546 0.87707 0.0
H3153 H 0.4947 0.5608 0.9233 0.0
C3154 C 0.51636 0.54822 0.87957 0.0
C3155 C 0.49307 0.5589 0.89335 0.0
C3156 C 0.47589 0.56439 0.89225 0.0
C3157 C 0.52403 0.54641 0.89734 0.0
C3158 C 0.51625 0.55094 0.91356 0.0
C3159 C 0.50092 0.55737 0.91114 0.0
C3160 C 0.52372 0.54899 0.93299 0.0
C3161 C 0.54076 0.54003 0.89863 0.0
C3162 C 0.52541 0.53116 0.9374 0.0
C3163 C 0.53228 0.52938 0.95543 0.0
C3164 C 0.53787 0.5454 0.96985 0.0
C3165 C 0.53609 0.56323 0.96543 0.0
C3166 C 0.52902 0.56494 0.94745 0.0
H3167 H 0.54749 0.54177 0.88604 0.0
H3168 H 0.54996 0.54828 0.91099 0.0
H3169 H 0.5376 0.52459 0.90002 0.0
H3170 H 0.52124 0.51842 0.92688 0.0
H3171 H 0.53328 0.51536 0.95801 0.0
H3172 H 0.82499 0.1812 0.10888 0.0
H3173 H 0.83177 0.20952 0.13312 0.0
H3174 H 0.83292 0.24611 0.09134 0.0
H3175 H 0.82579 0.21789 0.06701 0.0
H3176 H 0.858 0.24511 0.14227 0.0
H3177 H 0.79205 0.25438 0.11939 0.0
H3178 H 0.79863 0.23298 0.11125 0.0
H3179 H 0.8069 0.25474 0.10217 0.0
C3180 C 0.82704 0.19529 0.10483 0.0
C3181 C 0.82451 0.19727 0.08605 0.0
C3182 C 0.83094 0.21147 0.11869 0.0
C3183 C 0.83247 0.22984 0.11399 0.0
C3184 C 0.83143 0.23201 0.09524 0.0
H3185 H 0.84426 0.32428 0.20907 0.0
H3186 H 0.84853 0.30972 0.17796 0.0
C3187 C 0.82738 0.21585 0.08137 0.0
C3188 C 0.83315 0.24621 0.12868 0.0
H3189 H 0.80764 0.27404 0.14655 0.0
C3190 C 0.8472 0.25178 0.14304 0.0
C3191 C 0.81893 0.25476 0.12964 0.0
C3192 C 0.80319 0.24889 0.1149 0.0
C3193 C 0.84701 0.26503 0.15881 0.0
C3194 C 0.83243 0.27287 0.16011 0.0
C3195 C 0.81886 0.26812 0.14531 0.0
C3196 C 0.82935 0.28277 0.17797 0.0
C3197 C 0.86173 0.26956 0.17458 0.0
C3198 C 0.81692 0.27256 0.18788 0.0
C3199 C 0.81454 0.2807 0.20543 0.0
C3200 C 0.82443 0.29932 0.21338 0.0
C3201 C 0.83642 0.30993 0.20318 0.0
C3202 C 0.83893 0.30163 0.18552 0.0
H3203 H 0.87197 0.26196 0.17153 0.0
H3204 H 0.86795 0.28527 0.17739 0.0
H3205 H 0.85642 0.26543 0.18741 0.0
H3206 H 0.80944 0.25797 0.18225 0.0
H3207 H 0.80532 0.27211 0.21301 0.0
H3208 H 0.18034 0.5408 0.30301 0.0
H3209 H 0.17957 0.55003 0.33634 0.0
H3210 H 0.13047 0.56424 0.32429 0.0
H3211 H 0.13116 0.55526 0.29113 0.0
H3212 H 0.15824 0.59374 0.34897 0.0
H3213 H 0.14541 0.52104 0.36991 0.0
H3214 H 0.16309 0.52839 0.35639 0.0
H3215 H 0.1408 0.52393 0.34604 0.0
C3216 C 0.16927 0.54565 0.3075 0.0
C3217 C 0.15579 0.54731 0.29447 0.0
C3218 C 0.16889 0.55094 0.32651 0.0
C3219 C 0.155 0.55784 0.33267 0.0
C3220 C 0.14136 0.55905 0.31973 0.0
H3221 H 0.09485 0.58565 0.40857 0.0
H3222 H 0.11479 0.58582 0.3853 0.0
C3223 C 0.14173 0.55381 0.3008 0.0
C3224 C 0.15443 0.56413 0.35254 0.0
H3225 H 0.14212 0.5464 0.39144 0.0
C3226 C 0.15514 0.58351 0.35846 0.0
C3227 C 0.15069 0.55077 0.3649 0.0
C3228 C 0.14987 0.52983 0.35911 0.0
C3229 C 0.15076 0.58958 0.37596 0.0
C3230 C 0.14532 0.57585 0.3876 0.0
C3231 C 0.14626 0.55687 0.3824 0.0
C3232 C 0.13534 0.57975 0.4031 0.0
C3233 C 0.15103 0.61041 0.38142 0.0
C3234 C 0.14038 0.57653 0.42097 0.0
C3235 C 0.12899 0.57663 0.43451 0.0
C3236 C 0.11226 0.57957 0.43022 0.0
C3237 C 0.10771 0.58371 0.41254 0.0
C3238 C 0.11913 0.58381 0.39915 0.0
H3239 H 0.16114 0.6199 0.37484 0.0
H3240 H 0.13808 0.61251 0.37656 0.0
H3241 H 0.15368 0.6149 0.39673 0.0
H3242 H 0.1528 0.57323 0.4242 0.0
H3243 H 0.13303 0.5737 0.44808 0.0
H3244 H 0.80021 0.90136 0.60853 0.0
H3245 H 0.79708 0.88704 0.63674 0.0
H3246 H 0.81825 0.84131 0.61298 0.0
H3247 H 0.82089 0.85524 0.58441 0.0
H3248 H 0.7912 0.82732 0.63039 0.0
H3249 H 0.8354 0.88995 0.67728 0.0
H3250 H 0.81757 0.8962 0.66503 0.0
H3251 H 0.83356 0.88806 0.65234 0.0
C3252 C 0.80419 0.88823 0.60926 0.0
C3253 C 0.81091 0.87953 0.5942 0.0
C3254 C 0.80253 0.88014 0.62551 0.0
C3255 C 0.80786 0.86335 0.62726 0.0
C3256 C 0.81418 0.85436 0.61207 0.0
H3257 H 0.82446 0.82269 0.73294 0.0
H3258 H 0.82811 0.83693 0.70455 0.0
C3259 C 0.81566 0.86233 0.59571 0.0
C3260 C 0.80657 0.85498 0.64478 0.0
H3261 H 0.81807 0.86574 0.69185 0.0
C3262 C 0.79717 0.83571 0.64381 0.0
C3263 C 0.81461 0.86576 0.66232 0.0
C3264 C 0.826 0.88607 0.66432 0.0
C3265 C 0.79526 0.82708 0.65983 0.0
C3266 C 0.80252 0.83816 0.67747 0.0
C3267 C 0.81226 0.8573 0.67841 0.0
C3268 C 0.80027 0.8301 0.69506 0.0
C3269 C 0.78578 0.80603 0.65759 0.0
C3270 C 0.78343 0.82199 0.69951 0.0
C3271 C 0.78135 0.8137 0.71561 0.0
C3272 C 0.79605 0.81362 0.72777 0.0
C3273 C 0.81289 0.82245 0.72377 0.0
C3274 C 0.81498 0.83059 0.70754 0.0
H3275 H 0.78595 0.79841 0.64343 0.0
H3276 H 0.79172 0.79879 0.66786 0.0
H3277 H 0.77185 0.8046 0.65973 0.0
H3278 H 0.77185 0.82197 0.69048 0.0
H3279 H 0.7682 0.80722 0.71847 0.0
H3280 H 0.74901 0.46056 0.46357 0.0
H3281 H 0.72556 0.47637 0.45769 0.0
H3282 H 0.75728 0.52868 0.49164 0.0
H3283 H 0.78073 0.51321 0.49729 0.0
H3284 H 0.70923 0.48868 0.4856 0.0
H3285 H 0.73555 0.55006 0.45032 0.0
H3286 H 0.74564 0.53036 0.45087 0.0
H3287 H 0.75053 0.54995 0.47008 0.0
C3288 C 0.75116 0.47559 0.46933 0.0
C3289 C 0.76665 0.48559 0.48103 0.0
C3290 C 0.73777 0.4846 0.46594 0.0
C3291 C 0.73974 0.50377 0.47405 0.0
C3292 C 0.7556 0.51405 0.48485 0.0
H3293 H 0.67733 0.56199 0.53049 0.0
H3294 H 0.69885 0.54695 0.5173 0.0
C3295 C 0.76895 0.50509 0.48824 0.0
C3296 C 0.72447 0.51213 0.47397 0.0
H3297 H 0.71275 0.55371 0.46999 0.0
C3298 C 0.70979 0.50265 0.48167 0.0
C3299 C 0.72515 0.53034 0.46881 0.0
C3300 C 0.74001 0.54065 0.45937 0.0
C3301 C 0.69645 0.51153 0.48566 0.0
C3302 C 0.6979 0.53037 0.48195 0.0
C3303 C 0.71186 0.53933 0.47301 0.0
C3304 C 0.68596 0.54147 0.48911 0.0
C3305 C 0.68131 0.50115 0.49472 0.0
C3306 C 0.67189 0.54376 0.47745 0.0
C3307 C 0.65955 0.55242 0.48495 0.0
C3308 C 0.66121 0.55896 0.50418 0.0
C3309 C 0.67579 0.55735 0.51562 0.0
C3310 C 0.68804 0.54866 0.50814 0.0
H3311 H 0.68027 0.4855 0.49335 0.0
H3312 H 0.68324 0.5072 0.50972 0.0
H3313 H 0.66874 0.50321 0.48851 0.0
H3314 H 0.67015 0.53828 0.46272 0.0
H3315 H 0.64853 0.55363 0.47577 0.0
H3316 H 0.24898 0.12527 0.51398 0.0
H3317 H 0.2199 0.10388 0.51427 0.0
H3318 H 0.19579 0.14649 0.49622 0.0
H3319 H 0.2248 0.16792 0.49568 0.0
H3320 H 0.19449 0.11187 0.53597 0.0
H3321 H 0.16869 0.0974 0.46106 0.0
H3322 H 0.19173 0.10733 0.46937 0.0
H3323 H 0.17688 0.12244 0.47069 0.0
C3324 C 0.23752 0.13002 0.5098 0.0
C3325 C 0.23929 0.14835 0.50478 0.0
C3326 C 0.22088 0.11777 0.51003 0.0
C3327 C 0.20565 0.12348 0.5051 0.0
C3328 C 0.20734 0.14161 0.49974 0.0
H3329 H 0.09394 0.07337 0.50669 0.0
H3330 H 0.12274 0.09416 0.50374 0.0
C3331 C 0.22397 0.15389 0.49953 0.0
C3332 C 0.18807 0.11096 0.50664 0.0
H3333 H 0.14839 0.08675 0.48186 0.0
C3334 C 0.18444 0.10628 0.52412 0.0
C3335 C 0.17492 0.10381 0.49119 0.0
C3336 C 0.17824 0.10783 0.47197 0.0
C3337 C 0.16798 0.09486 0.52663 0.0
C3338 C 0.15487 0.08757 0.51117 0.0
C3339 C 0.15845 0.09233 0.4937 0.0
C3340 C 0.13742 0.07487 0.51284 0.0
C3341 C 0.16463 0.09107 0.54591 0.0
C3342 C 0.13606 0.05701 0.51871 0.0
C3343 C 0.11964 0.04516 0.52048 0.0
C3344 C 0.10426 0.05089 0.51628 0.0
C3345 C 0.10559 0.06862 0.51011 0.0
C3346 C 0.12203 0.08048 0.50837 0.0
H3347 H 0.17407 0.10171 0.55677 0.0
H3348 H 0.15108 0.09146 0.54841 0.0
H3349 H 0.16615 0.07658 0.54745 0.0
H3350 H 0.14772 0.05221 0.52188 0.0
H3351 H 0.11899 0.03153 0.52516 0.0
H3352 H 0.20527 0.96621 0.79397 0.0
H3353 H 0.21927 0.93959 0.79264 0.0
H3354 H 0.24576 0.95906 0.74718 0.0
H3355 H 0.2314 0.98543 0.7482 0.0
H3356 H 0.23646 0.92178 0.73972 0.0
H3357 H 0.26641 0.9373 0.81284 0.0
H3358 H 0.24302 0.93316 0.81095 0.0
H3359 H 0.25608 0.95365 0.8027 0.0
C3360 C 0.21414 0.96499 0.78371 0.0
C3361 C 0.21709 0.97844 0.77129 0.0
C3362 C 0.22239 0.94963 0.78304 0.0
C3363 C 0.2342 0.94701 0.77006 0.0
C3364 C 0.23695 0.96034 0.7575 0.0
H3365 H 0.3076 0.87178 0.78057 0.0
H3366 H 0.29338 0.89826 0.78164 0.0
C3367 C 0.22867 0.97567 0.75813 0.0
C3368 C 0.24329 0.9304 0.76924 0.0
H3369 H 0.26704 0.90728 0.79577 0.0
C3370 C 0.24313 0.91876 0.75208 0.0
C3371 C 0.25251 0.92608 0.78506 0.0
C3372 C 0.25471 0.93831 0.80389 0.0
C3373 C 0.25134 0.90328 0.75036 0.0
C3374 C 0.25997 0.89848 0.76629 0.0
C3375 C 0.26041 0.91034 0.7834 0.0
C3376 C 0.26885 0.8817 0.76549 0.0
C3377 C 0.25111 0.89262 0.73115 0.0
C3378 C 0.26018 0.86285 0.75633 0.0
C3379 C 0.26846 0.84752 0.75559 0.0
C3380 C 0.2858 0.85012 0.76414 0.0
C3381 C 0.29436 0.86886 0.77361 0.0
C3382 C 0.2861 0.88422 0.77429 0.0
H3383 H 0.24937 0.90156 0.72033 0.0
H3384 H 0.26342 0.88815 0.72974 0.0
H3385 H 0.23989 0.87958 0.72841 0.0
H3386 H 0.24675 0.85976 0.74989 0.0
H3387 H 0.26105 0.83347 0.74847 0.0
H3388 H 0.34276 0.98346 1.00062 0.0
H3389 H 0.37484 0.99332 1.00584 0.0
H3390 H 0.37569 0.9352 0.01125 0.0
H3391 H 0.34366 0.92508 1.00536 0.0
H3392 H 0.39678 0.9927 0.03532 0.0
H3393 H 0.40966 0.9466 0.9742 0.0
H3394 H 0.38814 0.94988 0.97694 0.0
H3395 H 0.39629 0.93321 0.98896 0.0
C3396 C 0.34979 0.97275 1.00276 0.0
C3397 C 0.34071 0.95347 1.00243 0.0
C3398 C 0.3681 0.97841 1.00578 0.0
C3399 C 0.37766 0.96494 1.00865 0.0
C3400 C 0.36861 0.94573 1.00857 0.0
H3401 H 0.48887 1.00063 0.05458 0.0
H3402 H 0.45693 0.98771 0.05059 0.0
C3403 C 0.3503 0.93999 1.00529 0.0
C3404 C 0.39707 0.97117 0.01215 0.0
H3405 H 0.43424 0.96302 0.99635 0.0
C3406 C 0.40499 0.98625 0.02678 0.0
C3407 C 0.40772 0.96282 1.00088 0.0
C3408 C 0.40004 0.94737 0.98426 0.0
C3409 C 0.4233 0.99334 0.03039 0.0
C3410 C 0.43396 0.98468 0.0194 0.0
C3411 C 0.42603 0.9695 1.00487 0.0
C3412 C 0.45332 0.99189 0.02194 0.0
C3413 C 0.43098 1.01044 0.04551 0.0
C3414 C 0.46192 0.99789 1.00699 0.0
C3415 C 0.48013 1.00492 1.00912 0.0
C3416 C 0.4901 1.00621 0.0263 0.0
C3417 C 0.48151 1.00001 0.04123 0.0
C3418 C 0.46326 0.99272 0.03901 0.0
H3419 H 0.42112 0.01841 0.04913 0.0
H3420 H 0.43555 1.00538 0.05821 0.0
H3421 H 0.44237 0.02054 0.04129 0.0
H3422 H 0.45451 0.99735 0.99369 0.0
H3423 H 0.48633 1.00964 0.99736 0.0
H3424 H 0.87545 0.58632 0.79759 0.0
H3425 H 0.85596 0.60654 0.80529 0.0
H3426 H 0.89702 0.6448 0.84541 0.0
H3427 H 0.91692 0.62471 0.83744 0.0
H3428 H 0.84362 0.62017 0.83763 0.0
H3429 H 0.88657 0.67912 0.80836 0.0
H3430 H 0.88937 0.65508 0.80545 0.0
H3431 H 0.89649 0.67065 0.82743 0.0
C3432 C 0.88034 0.59891 0.8082 0.0
C3433 C 0.89782 0.60413 0.81667 0.0
C3434 C 0.86913 0.61039 0.81267 0.0
C3435 C 0.87515 0.6273 0.82569 0.0
C3436 C 0.89225 0.63195 0.83509 0.0
H3437 H 0.81832 0.71616 0.82425 0.0
H3438 H 0.83741 0.69825 0.83754 0.0
C3439 C 0.90356 0.62045 0.83056 0.0
C3440 C 0.86389 0.6407 0.82775 0.0
H3441 H 0.85916 0.68268 0.81489 0.0
C3442 C 0.84712 0.63404 0.83304 0.0
C3443 C 0.86853 0.65876 0.82172 0.0
C3444 C 0.88615 0.66637 0.81529 0.0
C3445 C 0.83453 0.64451 0.83148 0.0
C3446 C 0.83885 0.66194 0.82438 0.0
C3447 C 0.85596 0.66925 0.82034 0.0
C3448 C 0.82541 0.67168 0.81877 0.0
C3449 C 0.81652 0.63653 0.8368 0.0
C3450 C 0.81226 0.66254 0.80396 0.0
C3451 C 0.80138 0.67273 0.79632 0.0
C3452 C 0.80349 0.69219 0.80342 0.0
C3453 C 0.81621 0.70107 0.81875 0.0
C3454 C 0.82715 0.69091 0.8263 0.0
H3455 H 0.81683 0.6265 0.84692 0.0
H3456 H 0.81098 0.64826 0.84287 0.0
H3457 H 0.80761 0.62843 0.82419 0.0
H3458 H 0.81099 0.64781 0.79771 0.0
H3459 H 0.79168 0.66558 0.78452 0.0
H3460 H 0.84825 0.67414 0.99041 0.0
H3461 H 0.87384 0.66109 0.98696 0.0
H3462 H 0.85323 0.61778 0.01981 0.0
H3463 H 0.82781 0.63064 0.02336 0.0
H3464 H 0.89851 0.65611 0.0173 0.0
H3465 H 0.86395 0.58745 0.97162 0.0
H3466 H 0.85496 0.60807 0.97429 0.0
H3467 H 0.85356 0.59285 0.99178 0.0
C3468 C 0.84912 0.66175 0.99677 0.0
C3469 C 0.83595 0.6534 1.0071 0.0
C3470 C 0.86376 0.65436 0.99483 0.0
C3471 C 0.86533 0.63835 1.00296 0.0
C3472 C 0.85217 0.62997 0.0132 0.0
H3473 H 0.93299 0.5661 0.02024 0.0
H3474 H 0.90997 0.58291 0.01786 0.0
C3475 C 0.83766 0.6374 0.01526 0.0
C3476 C 0.88086 0.63052 1.00134 0.0
H3477 H 0.8925 0.58938 0.98637 0.0
C3478 C 0.89732 0.64163 0.01031 0.0
C3479 C 0.87922 0.61164 0.99223 0.0
C3480 C 0.86201 0.59933 0.98178 0.0
C3481 C 0.912 0.63397 0.01122 0.0
C3482 C 0.9102 0.61483 1.00261 0.0
C3483 C 0.89387 0.60402 0.99305 0.0
C3484 C 0.92469 0.60521 1.00431 0.0
C3485 C 0.92904 0.64611 0.02216 0.0
C3486 C 0.9407 0.61214 0.99749 0.0
C3487 C 0.95398 0.60252 0.99886 0.0
C3488 C 0.95137 0.58565 1.00686 0.0
C3489 C 0.93534 0.57886 0.01373 0.0
C3490 C 0.92217 0.5885 0.01245 0.0
H3491 H 0.92718 0.65877 0.0313 0.0
H3492 H 0.93513 0.63751 0.03086 0.0
H3493 H 0.93834 0.65145 0.0124 0.0
H3494 H 0.94283 0.62479 0.99083 0.0
H3495 H 0.9661 0.60801 0.99328 0.0
H3496 H 0.23093 0.07901 0.77204 0.0
H3497 H 0.2468 0.1122 0.77063 0.0
H3498 H 0.21318 0.13317 0.80674 0.0
H3499 H 0.19702 0.10011 0.80778 0.0
H3500 H 0.21708 0.15412 0.78048 0.0
H3501 H 0.28391 0.15071 0.80554 0.0
H3502 H 0.27434 0.13324 0.78526 0.0
H3503 H 0.26473 0.13163 0.80657 0.0
C3504 C 0.22704 0.09063 0.77995 0.0
C3505 C 0.21262 0.08649 0.79018 0.0
C3506 C 0.23625 0.10982 0.77919 0.0
C3507 C 0.23159 0.12569 0.7888 0.0
C3508 C 0.21729 0.12153 0.79914 0.0
H3509 H 0.29847 0.24483 0.81172 0.0
H3510 H 0.28245 0.21157 0.81222 0.0
C3511 C 0.20803 0.1024 0.79982 0.0
C3512 C 0.24109 0.14648 0.78774 0.0
H3513 H 0.2818 0.17866 0.79305 0.0
C3514 C 0.23125 0.15939 0.78327 0.0
C3515 C 0.25963 0.15393 0.79157 0.0
C3516 C 0.27127 0.14173 0.79769 0.0
C3517 C 0.23921 0.17899 0.78242 0.0
C3518 C 0.2578 0.18628 0.78568 0.0
C3519 C 0.26762 0.17341 0.79029 0.0
C3520 C 0.2673 0.20721 0.78522 0.0
C3521 C 0.22744 0.19184 0.77861 0.0
C3522 C 0.26446 0.21652 0.7699 0.0
C3523 C 0.27362 0.23588 0.76967 0.0
C3524 C 0.28614 0.24657 0.78466 0.0
C3525 C 0.28897 0.23724 0.7999 0.0
C3526 C 0.27978 0.21801 0.80016 0.0
H3527 H 0.21397 0.18591 0.782 0.0
H3528 H 0.23277 0.2065 0.78674 0.0
H3529 H 0.2264 0.19298 0.76363 0.0
H3530 H 0.25536 0.20872 0.75787 0.0
H3531 H 0.27113 0.24236 0.75759 0.0
H3532 H 0.4402 1.01442 0.29701 0.0
H3533 H 0.42564 0.97989 0.28991 0.0
H3534 H 0.37881 0.99066 0.30994 0.0
H3535 H 0.39304 0.02501 0.31678 0.0
H3536 H 0.40946 0.95306 0.31155 0.0
H3537 H 0.36169 0.96317 0.25643 0.0
H3538 H 0.38127 0.9817 0.26635 0.0
H3539 H 0.36209 0.9779 0.27827 0.0
C3540 C 0.42687 1.00938 0.30009 0.0
C3541 C 0.41768 0.02245 0.30721 0.0
C3542 C 0.41858 0.9897 0.29599 0.0
C3543 C 0.40103 0.98287 0.29896 0.0
C3544 C 0.39221 0.99575 0.30708 0.0
H3545 H 0.33826 0.87155 0.30748 0.0
H3546 H 0.35726 0.90415 0.31195 0.0
C3547 C 0.40041 0.01536 0.31107 0.0
C3548 C 0.39163 0.96237 0.29327 0.0
H3549 H 0.35472 0.93286 0.26716 0.0
C3550 C 0.3976 0.94856 0.3017 0.0
C3551 C 0.3764 0.95655 0.28008 0.0
C3552 C 0.37007 0.97058 0.26961 0.0
C3553 C 0.38819 0.92913 0.29798 0.0
C3554 C 0.37226 0.92355 0.28581 0.0
C3555 C 0.3668 0.93722 0.27669 0.0
C3556 C 0.36069 0.90378 0.28293 0.0
C3557 C 0.39539 0.9148 0.30714 0.0
C3558 C 0.35568 0.89308 0.265 0.0
C3559 C 0.34456 0.87449 0.26232 0.0
C3560 C 0.33827 0.86633 0.27757 0.0
C3561 C 0.343 0.87731 0.29545 0.0
C3562 C 0.35401 0.8959 0.29807 0.0
H3563 H 0.40985 0.91999 0.31093 0.0
H3564 H 0.3894 0.91274 0.3201 0.0
H3565 H 0.39231 0.90065 0.29793 0.0
H3566 H 0.36054 0.89903 0.2531 0.0
H3567 H 0.34118 0.86642 0.24837 0.0
H3568 H 0.58074 0.38324 0.62965 0.0
H3569 H 0.57548 0.41017 0.61531 0.0
H3570 H 0.59789 0.3909 0.56701 0.0
H3571 H 0.60396 0.36459 0.58168 0.0
H3572 H 0.60945 0.42761 0.5752 0.0
H3573 H 0.53764 0.41061 0.57649 0.0
H3574 H 0.54919 0.41411 0.59936 0.0
H3575 H 0.55037 0.39432 0.58226 0.0
C3576 C 0.58447 0.38471 0.61594 0.0
C3577 C 0.59271 0.37173 0.60679 0.0
C3578 C 0.58132 0.40005 0.60766 0.0
C3579 C 0.5859 0.40243 0.58983 0.0
C3580 C 0.59415 0.38943 0.58072 0.0
H3581 H 0.5459 0.47859 0.52492 0.0
H3582 H 0.55206 0.45082 0.53695 0.0
C3583 C 0.5976 0.37434 0.58913 0.0
C3584 C 0.58266 0.41874 0.58086 0.0
H3585 H 0.55123 0.4416 0.56964 0.0
C3586 C 0.59667 0.43055 0.57388 0.0
C3587 C 0.56593 0.4225 0.57875 0.0
C3588 C 0.5499 0.40958 0.58443 0.0
C3589 C 0.59451 0.44605 0.56515 0.0
C3590 C 0.57802 0.45044 0.56397 0.0
C3591 C 0.56395 0.43846 0.57069 0.0
C3592 C 0.575 0.46731 0.55583 0.0
C3593 C 0.60987 0.45719 0.55689 0.0
C3594 C 0.58583 0.48594 0.56228 0.0
C3595 C 0.58255 0.5018 0.55511 0.0
C3596 C 0.56805 0.4995 0.54167 0.0
C3597 C 0.55719 0.48088 0.53524 0.0
C3598 C 0.56067 0.46498 0.54217 0.0
H3599 H 0.61902 0.44828 0.55326 0.0
H3600 H 0.60547 0.46239 0.5442 0.0
H3601 H 0.61733 0.46979 0.56725 0.0
H3602 H 0.59662 0.48833 0.57321 0.0
H3603 H 0.59102 0.51596 0.56061 0.0
H3604 H 0.46032 0.75346 0.37578 0.0
H3605 H 0.4316 0.75064 0.35836 0.0
H3606 H 0.4548 0.79858 0.33187 0.0
H3607 H 0.48337 0.80122 0.34878 0.0
H3608 H 0.41189 0.77674 0.35858 0.0
H3609 H 0.42858 0.75948 0.28774 0.0
H3610 H 0.44242 0.75822 0.3082 0.0
H3611 H 0.44371 0.7809 0.30035 0.0
C3612 C 0.45932 0.76322 0.36605 0.0
C3613 C 0.47419 0.77746 0.36357 0.0
C3614 C 0.44289 0.76163 0.35616 0.0
C3615 C 0.44108 0.77418 0.34355 0.0
C3616 C 0.45592 0.78841 0.34113 0.0
H3617 H 0.35313 0.81339 0.30352 0.0
H3618 H 0.37758 0.8067 0.32187 0.0
C3619 C 0.47227 0.78996 0.35092 0.0
C3620 C 0.42367 0.77311 0.33338 0.0
H3621 H 0.40323 0.77184 0.29006 0.0
C3622 C 0.4099 0.77539 0.34358 0.0
C3623 C 0.4209 0.77099 0.31378 0.0
C3624 C 0.43464 0.76705 0.30188 0.0
C3625 C 0.39376 0.77654 0.33476 0.0
C3626 C 0.39149 0.77585 0.31526 0.0
C3627 C 0.40498 0.77265 0.30502 0.0
C3628 C 0.37559 0.77911 0.30515 0.0
C3629 C 0.37935 0.77846 0.34646 0.0
C3630 C 0.3664 0.76603 0.28944 0.0
C3631 C 0.35261 0.77001 0.27875 0.0
C3632 C 0.34769 0.78713 0.28359 0.0
C3633 C 0.35653 0.79998 0.29957 0.0
C3634 C 0.37045 0.79609 0.31016 0.0
H3635 H 0.38072 0.77213 0.35932 0.0
H3636 H 0.3802 0.79393 0.3507 0.0
H3637 H 0.36617 0.77134 0.33868 0.0
H3638 H 0.37013 0.75287 0.28522 0.0
H3639 H 0.346 0.75985 0.26649 0.0
H3640 H 0.06146 0.75393 0.12477 0.0
H3641 H 0.05673 0.72058 0.11015 0.0
H3642 H 0.09203 0.73883 0.07064 0.0
H3643 H 0.09665 0.77246 0.08504 0.0
H3644 H 0.06235 0.70931 0.05472 0.0
H3645 H 0.09394 0.69139 0.11811 0.0
H3646 H 0.07593 0.70163 0.12226 0.0
H3647 H 0.09531 0.71583 0.11482 0.0
C3648 C 0.06812 0.75093 0.11286 0.0
C3649 C 0.0796 0.7659 0.10622 0.0
C3650 C 0.06546 0.73181 0.10458 0.0
C3651 C 0.07436 0.72717 0.08961 0.0
C3652 C 0.08514 0.74209 0.0823 0.0
H3653 H 0.09033 0.61387 0.05653 0.0
H3654 H 0.09372 0.64798 0.06742 0.0
C3655 C 0.08775 0.76131 0.09053 0.0
C3656 C 0.07284 0.70671 0.08208 0.0
H3657 H 0.07929 0.66512 0.09455 0.0
C3658 C 0.06611 0.69964 0.06339 0.0
C3659 C 0.07803 0.69419 0.09332 0.0
C3660 C 0.08637 0.70115 0.11319 0.0
C3661 C 0.06405 0.68028 0.05575 0.0
C3662 C 0.06857 0.66758 0.06722 0.0
C3663 C 0.07564 0.67478 0.0858 0.0
C3664 C 0.06635 0.64683 0.06024 0.0
C3665 C 0.05736 0.6737 0.03541 0.0
C3666 C 0.04978 0.6347 0.0528 0.0
C3667 C 0.04779 0.61514 0.04649 0.0
C3668 C 0.06232 0.60725 0.04767 0.0
C3669 C 0.07884 0.6194 0.05541 0.0
C3670 C 0.08082 0.63895 0.06163 0.0
H3671 H 0.05928 0.68598 0.02759 0.0
H3672 H 0.06406 0.66317 0.02905 0.0
H3673 H 0.04308 0.66666 0.03386 0.0
H3674 H 0.03833 0.64031 0.05202 0.0
H3675 H 0.03485 0.60623 0.04072 0.0
H3676 H 0.05621 0.24647 0.84912 0.0
H3677 H 0.08481 0.25326 0.83772 0.0
H3678 H 0.10266 0.30484 0.87842 0.0
H3679 H 0.07391 0.29824 0.88987 0.0
H3680 H 0.11177 0.30998 0.84287 0.0
H3681 H 0.13008 0.2466 0.86447 0.0
H3682 H 0.10919 0.24066 0.85033 0.0
H3683 H 0.11217 0.25509 0.87291 0.0
C3684 C 0.06618 0.2593 0.85566 0.0
C3685 C 0.06277 0.27176 0.87049 0.0
C3686 C 0.08258 0.26309 0.84919 0.0
C3687 C 0.096 0.27935 0.85745 0.0
C3688 C 0.09254 0.29212 0.87193 0.0
H3689 H 0.20586 0.29586 0.83673 0.0
H3690 H 0.17896 0.29226 0.85166 0.0
C3691 C 0.07609 0.28833 0.87845 0.0
C3692 C 0.11356 0.28302 0.85079 0.0
H3693 H 0.14778 0.26305 0.84393 0.0
C3694 C 0.11971 0.2998 0.84322 0.0
C3695 C 0.12406 0.26988 0.85152 0.0
C3696 C 0.11865 0.25214 0.86041 0.0
C3697 C 0.13575 0.30344 0.83577 0.0
C3698 C 0.14582 0.28982 0.83565 0.0
C3699 C 0.13998 0.27339 0.84383 0.0
C3700 C 0.16219 0.2921 0.82666 0.0
C3701 C 0.14181 0.32189 0.82813 0.0
C3702 C 0.16166 0.29283 0.80759 0.0
C3703 C 0.17695 0.29475 0.799 0.0
C3704 C 0.19317 0.29593 0.80927 0.0
C3705 C 0.19361 0.29488 0.82835 0.0
C3706 C 0.17826 0.29293 0.83694 0.0
H3707 H 0.13544 0.333 0.83394 0.0
H3708 H 0.15627 0.32773 0.83118 0.0
H3709 H 0.13825 0.31901 0.81283 0.0
H3710 H 0.14935 0.29168 0.79926 0.0
H3711 H 0.17599 0.29504 0.78421 0.0
H3712 H 0.56715 0.77013 0.89688 0.0
H3713 H 0.55943 0.74297 0.91379 0.0
H3714 H 0.60774 0.7659 0.9508 0.0
H3715 H 0.61563 0.79295 0.93397 0.0
H3716 H 0.60073 0.72632 0.93638 0.0
H3717 H 0.54368 0.74465 0.96639 0.0
H3718 H 0.54321 0.74343 0.94166 0.0
H3719 H 0.55974 0.76179 0.9569 0.0
C3720 C 0.57613 0.76938 0.90862 0.0
C3721 C 0.592 0.7837 0.9141 0.0
C3722 C 0.57164 0.75393 0.91832 0.0
C3723 C 0.58291 0.7526 0.93367 0.0
C3724 C 0.59883 0.76674 0.93903 0.0
H3725 H 0.57146 0.68445 0.02134 0.0
H3726 H 0.57372 0.70972 1.00202 0.0
C3727 C 0.60331 0.78218 0.92939 0.0
C3728 C 0.57846 0.73624 0.94397 0.0
H3729 H 0.5498 0.71559 0.97222 0.0
C3730 C 0.58955 0.72391 0.94415 0.0
C3731 C 0.56396 0.73329 0.95421 0.0
C3732 C 0.552 0.74654 0.95497 0.0
C3733 C 0.58659 0.7087 0.95437 0.0
C3734 C 0.572 0.70562 0.96448 0.0
C3735 C 0.56087 0.71793 0.9643 0.0
C3736 C 0.56866 0.69017 0.97596 0.0
C3737 C 0.59936 0.69636 0.95469 0.0
C3738 C 0.56454 0.67081 0.96765 0.0
C3739 C 0.56333 0.65636 0.97863 0.0
C3740 C 0.56617 0.66104 0.99812 0.0
C3741 C 0.56944 0.68041 1.00637 0.0
C3742 C 0.57063 0.69484 0.99537 0.0
H3743 H 0.61175 0.70303 0.94937 0.0
H3744 H 0.60259 0.69374 0.96901 0.0
H3745 H 0.59329 0.68224 0.9458 0.0
H3746 H 0.56278 0.66692 0.95268 0.0
H3747 H 0.56094 0.64162 0.97182 0.0
H3748 H 0.0643 0.77769 0.66945 0.0
H3749 H 0.095 0.78714 0.68287 0.0
H3750 H 0.07955 0.77965 0.73698 0.0
H3751 H 0.04866 0.76954 0.72353 0.0
H3752 H 0.11647 0.81419 0.71104 0.0
H3753 H 0.10698 0.73973 0.72694 0.0
H3754 H 0.09035 0.74664 0.7131 0.0
H3755 H 0.09385 0.75383 0.73788 0.0
C3756 C 0.06737 0.77833 0.68426 0.0
C3757 C 0.05408 0.77243 0.69536 0.0
C3758 C 0.08494 0.78384 0.69193 0.0
C3759 C 0.08952 0.78368 0.71083 0.0
C3760 C 0.07625 0.77943 0.72227 0.0
H3761 H 0.20338 0.80518 0.74602 0.0
H3762 H 0.17341 0.8088 0.74627 0.0
C3763 C 0.05864 0.77369 0.71457 0.0
C3764 C 0.10807 0.78566 0.71769 0.0
H3765 H 0.13569 0.75902 0.7304 0.0
C3766 C 0.12073 0.80231 0.71563 0.0
C3767 C 0.11349 0.77001 0.72354 0.0
C3768 C 0.10052 0.75147 0.7254 0.0
C3769 C 0.13871 0.8033 0.71825 0.0
C3770 C 0.14403 0.78732 0.7233 0.0
C3771 C 0.13144 0.77119 0.72649 0.0
C3772 C 0.16227 0.78592 0.7231 0.0
C3773 C 0.1518 0.82086 0.71447 0.0
C3774 C 0.16579 0.77179 0.71007 0.0
C3775 C 0.18277 0.76965 0.70993 0.0
C3776 C 0.19653 0.78161 0.72284 0.0
C3777 C 0.19303 0.79593 0.73577 0.0
C3778 C 0.17597 0.79802 0.73595 0.0
H3779 H 0.14531 0.83083 0.70819 0.0
H3780 H 0.15978 0.82874 0.7277 0.0
H3781 H 0.16088 0.81661 0.70501 0.0
H3782 H 0.15535 0.76236 0.70002 0.0
H3783 H 0.18514 0.75865 0.69969 0.0
H3784 H 0.11969 0.38973 0.45801 0.0
H3785 H 0.11786 0.42295 0.4647 0.0
H3786 H 0.11793 0.42758 0.40668 0.0
H3787 H 0.12006 0.39431 0.39983 0.0
H3788 H 0.13803 0.46366 0.44682 0.0
H3789 H 0.06648 0.42749 0.43054 0.0
H3790 H 0.08062 0.41455 0.44064 0.0
H3791 H 0.08259 0.4198 0.41759 0.0
C3792 C 0.11993 0.398 0.44676 0.0
C3793 C 0.11981 0.3894 0.42839 0.0
C3794 C 0.11896 0.41698 0.45061 0.0
C3795 C 0.1177 0.42756 0.43615 0.0
C3796 C 0.11903 0.4196 0.41798 0.0
H3797 H 0.05979 0.50886 0.4753 0.0
H3798 H 0.07337 0.49294 0.45115 0.0
C3799 C 0.12022 0.40062 0.41413 0.0
C3800 C 0.11179 0.44521 0.4399 0.0
H3801 H 0.07457 0.45808 0.44911 0.0
C3802 C 0.12415 0.46271 0.44686 0.0
C3803 C 0.09369 0.44396 0.43949 0.0
C3804 C 0.07998 0.4255 0.4316 0.0
C3805 C 0.11881 0.47865 0.45493 0.0
C3806 C 0.10079 0.47662 0.45667 0.0
C3807 C 0.0884 0.45967 0.44798 0.0
C3808 C 0.09475 0.49 0.47013 0.0
C3809 C 0.13259 0.49722 0.46213 0.0
C3810 C 0.10237 0.49393 0.48875 0.0
C3811 C 0.09476 0.50315 0.50242 0.0
C3812 C 0.07916 0.50826 0.49783 0.0
C3813 C 0.07181 0.505 0.47917 0.0
C3814 C 0.0796 0.49599 0.46539 0.0
H3815 H 0.14305 0.49946 0.45288 0.0
H3816 H 0.12691 0.50979 0.46324 0.0
H3817 H 0.13889 0.49645 0.47604 0.0
H3818 H 0.11365 0.48889 0.49296 0.0
H3819 H 0.10071 0.50553 0.51671 0.0
H3820 H 0.44837 0.25607 0.18505 0.0
H3821 H 0.42362 0.26144 0.20079 0.0
H3822 H 0.44849 0.25173 0.25211 0.0
H3823 H 0.47295 0.24562 0.2363 0.0
H3824 H 0.41417 0.23419 0.24704 0.0
H3825 H 0.42423 0.30952 0.23525 0.0
H3826 H 0.42121 0.29314 0.21391 0.0
H3827 H 0.44011 0.29603 0.23067 0.0
C3828 C 0.44855 0.25511 0.19969 0.0
C3829 C 0.46261 0.25059 0.2095 0.0
C3830 C 0.43447 0.25826 0.20868 0.0
C3831 C 0.43443 0.25739 0.2277 0.0
C3832 C 0.44832 0.25256 0.23745 0.0
H3833 H 0.36304 0.30793 0.28725 0.0
H3834 H 0.38945 0.29897 0.27893 0.0
C3835 C 0.46228 0.24912 0.2284 0.0
C3836 C 0.41991 0.26154 0.23743 0.0
H3837 H 0.39697 0.29509 0.24537 0.0
C3838 C 0.41048 0.24758 0.24686 0.0
C3839 C 0.41541 0.27918 0.23751 0.0
C3840 C 0.4259 0.29539 0.22896 0.0
C3841 C 0.39628 0.25058 0.25593 0.0
C3842 C 0.39112 0.26774 0.25501 0.0
C3843 C 0.40086 0.28187 0.24597 0.0
C3844 C 0.37541 0.27137 0.26277 0.0
C3845 C 0.38713 0.23544 0.26653 0.0
C3846 C 0.35879 0.25856 0.25695 0.0
C3847 C 0.3437 0.26349 0.26205 0.0
C3848 C 0.34506 0.28152 0.27257 0.0
C3849 C 0.36169 0.294 0.27899 0.0
C3850 C 0.37676 0.28888 0.27426 0.0
H3851 H 0.39609 0.22697 0.27129 0.0
H3852 H 0.38207 0.24191 0.2788 0.0
H3853 H 0.3759 0.2253 0.25726 0.0
H3854 H 0.35738 0.2452 0.24768 0.0
H3855 H 0.33097 0.25373 0.25681 0.0
H3856 H 0.62714 0.56224 0.33402 0.0
H3857 H 0.61399 0.56266 0.36317 0.0
H3858 H 0.64026 0.52093 0.37895 0.0
H3859 H 0.6535 0.52056 0.34985 0.0
H3860 H 0.59151 0.53638 0.37818 0.0
H3861 H 0.65303 0.55816 0.42676 0.0
H3862 H 0.65287 0.55913 0.40226 0.0
H3863 H 0.65112 0.53666 0.41062 0.0
C3864 C 0.63023 0.55314 0.34365 0.0
C3865 C 0.64162 0.54141 0.33919 0.0
C3866 C 0.6226 0.55339 0.36054 0.0
C3867 C 0.62614 0.54213 0.37399 0.0
C3868 C 0.63741 0.53026 0.36946 0.0
H3869 H 0.58958 0.52454 0.48472 0.0
H3870 H 0.60515 0.52526 0.457 0.0
C3871 C 0.64495 0.52991 0.3525 0.0
C3872 C 0.61771 0.54248 0.39225 0.0
H3873 H 0.62662 0.54897 0.44008 0.0
C3874 C 0.59932 0.53927 0.39166 0.0
C3875 C 0.62747 0.54601 0.41027 0.0
C3876 C 0.64722 0.55037 0.41262 0.0
C3877 C 0.59063 0.53911 0.40794 0.0
C3878 C 0.60039 0.54298 0.42601 0.0
C3879 C 0.61879 0.54608 0.42661 0.0
C3880 C 0.59178 0.54379 0.44417 0.0
C3881 C 0.57083 0.53398 0.40536 0.0
C3882 C 0.57935 0.55454 0.44735 0.0
C3883 C 0.57046 0.55417 0.46337 0.0
C3884 C 0.57391 0.54357 0.4774 0.0
C3885 C 0.58682 0.53341 0.4747 0.0
C3886 C 0.59567 0.53367 0.45855 0.0
H3887 H 0.56534 0.52518 0.39153 0.0
H3888 H 0.56531 0.52583 0.41619 0.0
H3889 H 0.5664 0.54736 0.40615 0.0
H3890 H 0.57621 0.56312 0.43723 0.0
H3891 H 0.56044 0.5619 0.46455 0.0
H3892 H 0.27729 0.94272 0.06023 0.0
H3893 H 0.27222 0.92797 0.08806 0.0
H3894 H 0.24313 0.87461 0.05386 0.0
H3895 H 0.24861 0.88904 0.02598 0.0
H3896 H 0.24378 0.90608 0.1047 0.0
H3897 H 0.28799 0.8633 0.07709 0.0
H3898 H 0.28458 0.88382 0.06747 0.0
H3899 H 0.26841 0.86104 0.0617 0.0
C3900 C 0.26938 0.92802 0.05867 0.0
C3901 C 0.26368 0.91686 0.04097 0.0
C3902 C 0.26647 0.91963 0.07458 0.0
C3903 C 0.25765 0.90011 0.07292 0.0
C3904 C 0.25025 0.88961 0.05535 0.0
H3905 H 0.26273 0.81902 0.14776 0.0
H3906 H 0.25155 0.83473 0.12366 0.0
C3907 C 0.2534 0.89786 0.03946 0.0
C3908 C 0.25872 0.89004 0.089 0.0
H3909 H 0.27716 0.85663 0.10492 0.0
C3910 C 0.25096 0.89517 0.10477 0.0
C3911 C 0.26835 0.87603 0.08908 0.0
C3912 C 0.27796 0.87081 0.07302 0.0
C3913 C 0.25246 0.88644 0.12061 0.0
C3914 C 0.26202 0.87241 0.12056 0.0
C3915 C 0.26963 0.86722 0.10475 0.0
C3916 C 0.26543 0.86355 0.13699 0.0
C3917 C 0.24387 0.8922 0.13724 0.0
C3918 C 0.27659 0.87465 0.15263 0.0
C3919 C 0.28312 0.8657 0.16634 0.0
C3920 C 0.27867 0.84554 0.16447 0.0
C3921 C 0.2666 0.83457 0.14937 0.0
C3922 C 0.26008 0.84351 0.13571 0.0
H3923 H 0.2337 0.89969 0.1336 0.0
H3924 H 0.23774 0.87942 0.14341 0.0
H3925 H 0.25399 0.90212 0.14795 0.0
H3926 H 0.28115 0.89011 0.15365 0.0
H3927 H 0.29249 0.8745 0.17776 0.0
H3928 H 0.95996 0.59769 0.86576 0.0
H3929 H 0.97323 0.60207 0.89806 0.0
H3930 H 0.02373 0.60378 0.87955 0.0
H3931 H 1.01064 0.59941 0.84738 0.0
H3932 H 0.98867 0.57343 0.90793 0.0
H3933 H 0.03609 0.64504 0.92645 0.0
H3934 H 0.01812 0.63961 0.9079 0.0
H3935 H 0.03795 0.63258 0.90413 0.0
C3936 C 0.97399 0.5996 0.86862 0.0
C3937 C 0.98425 0.59798 0.85407 0.0
C3938 C 0.98154 0.60213 0.88706 0.0
C3939 C 0.99947 0.60341 0.89116 0.0
C3940 C 1.00994 0.6032 0.87671 0.0
H3941 H 0.07406 0.58025 0.96818 0.0
H3942 H 0.05764 0.59184 0.94421 0.0
C3943 C 1.0024 0.60051 0.8583 0.0
C3944 C 1.00665 0.60134 0.90984 0.0
H3945 H 0.04121 0.62057 0.94382 0.0
C3946 C 0.9999 0.5839 0.91606 0.0
C3947 C 0.02138 0.61498 0.92021 0.0
C3948 C 0.02872 0.63419 0.91443 0.0
C3949 C 1.00821 0.57914 0.93173 0.0
C3950 C 0.02339 0.59248 0.94176 0.0
C3951 C 0.02961 0.61036 0.93607 0.0
C3952 C 0.03373 0.58744 0.95722 0.0
C3953 C 1.00129 0.55935 0.93661 0.0
C3954 C 0.02592 0.58169 0.9727 0.0
C3955 C 0.03513 0.57465 0.98603 0.0
C3956 C 0.05237 0.57366 0.98431 0.0
C3957 C 0.06063 0.58063 0.96956 0.0
C3958 C 0.05131 0.58733 0.95598 0.0
H3959 H 0.99227 0.54938 0.92497 0.0
H3960 H 0.0122 0.55294 0.94039 0.0
H3961 H 0.99385 0.56046 0.94868 0.0
H3962 H 0.01259 0.58231 0.9743 0.0
H3963 H 0.02886 0.57023 0.99778 0.0
H3964 H 0.28771 0.24359 0.55768 0.0
H3965 H 0.29082 0.25952 0.58993 0.0
H3966 H 0.31871 0.21972 0.60752 0.0
H3967 H 0.3155 0.2036 0.57549 0.0
H3968 H 0.29131 0.22201 0.62729 0.0
H3969 H 0.33265 0.29514 0.62492 0.0
H3970 H 0.31351 0.2873 0.60792 0.0
H3971 H 0.33057 0.275 0.60674 0.0
C3972 C 0.29478 0.23843 0.56836 0.0
C3973 C 0.3013 0.22225 0.56395 0.0
C3974 C 0.29661 0.24762 0.5868 0.0
C3975 C 0.30512 0.24091 0.60116 0.0
C3976 C 0.31211 0.22517 0.59669 0.0
H3977 H 0.33319 0.29041 0.71845 0.0
H3978 H 0.33348 0.27901 0.68547 0.0
C3979 C 0.31027 0.21597 0.57833 0.0
C3980 C 0.30555 0.2492 0.62096 0.0
H3981 H 0.31976 0.29055 0.65269 0.0
C3982 C 0.29757 0.23699 0.63283 0.0
C3983 C 0.31386 0.26871 0.62825 0.0
C3984 C 0.32328 0.2823 0.61637 0.0
C3985 C 0.2975 0.24376 0.6517 0.0
C3986 C 0.30537 0.26338 0.65888 0.0
C3987 C 0.31358 0.27556 0.64711 0.0
C3988 C 0.30524 0.27136 0.67864 0.0
C3989 C 0.28921 0.22976 0.66385 0.0
C3990 C 0.2893 0.27121 0.68567 0.0
C3991 C 0.28907 0.27768 0.7045 0.0
C3992 C 0.30482 0.28453 0.7167 0.0
C3993 C 0.32082 0.28518 0.70949 0.0
C3994 C 0.32102 0.2787 0.69063 0.0
H3995 H 0.28775 0.21461 0.65745 0.0
H3996 H 0.29713 0.23254 0.67769 0.0
H3997 H 0.27594 0.23148 0.66593 0.0
H3998 H 0.27698 0.26591 0.67661 0.0
H3999 H 0.27651 0.27709 0.7095 0.0
H4000 H 0.6643 0.51335 0.21355 0.0
H4001 H 0.6495 0.51469 0.18323 0.0
H4002 H 0.61142 0.53823 0.20991 0.0
H4003 H 0.62615 0.53678 0.24047 0.0
H4004 H 0.59516 0.51236 0.1787 0.0
H4005 H 0.65314 0.56157 0.15867 0.0
H4006 H 0.65751 0.53983 0.16438 0.0
H4007 H 0.65214 0.55646 0.18202 0.0
C4008 C 0.6527 0.51872 0.21314 0.0
C4009 C 0.64663 0.52496 0.2299 0.0
C4010 C 0.64426 0.51967 0.19556 0.0
C4011 C 0.62937 0.527 0.19382 0.0
C4012 C 0.62288 0.53262 0.21049 0.0
H4013 H 0.59155 0.56666 0.09205 0.0
H4014 H 0.60429 0.56372 0.12287 0.0
C4015 C 0.63138 0.53174 0.22814 0.0
C4016 C 0.62075 0.52883 0.17479 0.0
H4017 H 0.62921 0.54789 0.13491 0.0
C4018 C 0.60269 0.52017 0.1692 0.0
C4019 C 0.63018 0.53922 0.16207 0.0
C4020 C 0.64926 0.54997 0.16711 0.0
C4021 C 0.59411 0.52123 0.15158 0.0
C4022 C 0.60367 0.5311 0.13863 0.0
C4023 C 0.62165 0.54009 0.14439 0.0
C4024 C 0.59534 0.5327 0.11938 0.0
C4025 C 0.57464 0.51209 0.14724 0.0
C4026 C 0.58594 0.51636 0.10643 0.0
C4027 C 0.57854 0.51803 0.08855 0.0
C4028 C 0.58024 0.53612 0.08276 0.0
C4029 C 0.58971 0.55243 0.09571 0.0
C4030 C 0.59715 0.55075 0.11353 0.0
H4031 H 0.56836 0.51022 0.16009 0.0
H4032 H 0.56805 0.52083 0.13922 0.0
H4033 H 0.57242 0.49764 0.13881 0.0
H4034 H 0.58453 0.50215 0.10998 0.0
H4035 H 0.57157 0.50502 0.07917 0.0
H4036 H 0.25489 0.89201 0.93171 0.0
H4037 H 0.25032 0.86949 0.90249 0.0
H4038 H 0.29057 0.84482 0.92431 0.0
H4039 H 0.29436 0.86633 0.95363 0.0
H4040 H 0.27101 0.86759 0.87864 0.0
H4041 H 0.25661 0.79672 0.90066 0.0
H4042 H 0.25636 0.81814 0.91614 0.0
H4043 H 0.27658 0.81121 0.91401 0.0
C4044 C 0.26247 0.88149 0.93032 0.0
C4045 C 0.2749 0.88084 0.94494 0.0
C4046 C 0.25985 0.86862 0.91366 0.0
C4047 C 0.2698 0.85508 0.91128 0.0
C4048 C 0.28218 0.85449 0.92597 0.0
H4049 H 0.31205 0.82342 0.81424 0.0
H4050 H 0.30402 0.83659 0.84356 0.0
C4051 C 0.2845 0.86701 0.9427 0.0
C4052 C 0.26891 0.84318 0.89288 0.0
H4053 H 0.2715 0.79896 0.87263 0.0
C4054 C 0.27069 0.85247 0.8773 0.0
C4055 C 0.26803 0.82328 0.89082 0.0
C4056 C 0.26407 0.81178 0.90631 0.0
C4057 C 0.27293 0.84285 0.86016 0.0
C4058 C 0.27424 0.82365 0.85876 0.0
C4059 C 0.27106 0.81387 0.87387 0.0
C4060 C 0.28002 0.81409 0.84216 0.0
C4061 C 0.27412 0.85352 0.84382 0.0
C4062 C 0.26995 0.79622 0.83238 0.0
C4063 C 0.27494 0.78824 0.81586 0.0
C4064 C 0.28994 0.79816 0.80892 0.0
C4065 C 0.30045 0.81546 0.81929 0.0
C4066 C 0.2957 0.82316 0.8359 0.0
H4067 H 0.26649 0.86446 0.84507 0.0
H4068 H 0.28802 0.86122 0.84347 0.0
H4069 H 0.26918 0.8436 0.83047 0.0
H4070 H 0.25792 0.78884 0.83713 0.0
H4071 H 0.26657 0.77491 0.80805 0.0
H4072 H 0.98254 0.61698 0.76361 0.0
H4073 H 0.99291 0.61958 0.73337 0.0
H4074 H 0.94547 0.57767 0.70691 0.0
H4075 H 0.9347 0.57596 0.73688 0.0
H4076 H 1.00101 0.5911 0.71651 0.0
H4077 H 0.95373 0.60847 0.66663 0.0
H4078 H 0.95284 0.6129 0.69135 0.0
H4079 H 0.94207 0.58966 0.67777 0.0
C4080 C 0.97406 0.60893 0.75122 0.0
C4081 C 0.95793 0.59611 0.75254 0.0
C4082 C 0.97997 0.61044 0.73395 0.0
C4083 C 0.97 0.59884 0.71778 0.0
C4084 C 0.95325 0.58717 0.71901 0.0
H4085 H 1.00454 0.52618 0.64024 0.0
H4086 H 0.99291 0.54356 0.66501 0.0
C4087 C 0.94715 0.58603 0.73623 0.0
C4088 C 0.97845 0.59565 0.70077 0.0
H4089 H 0.97004 0.58589 0.65345 0.0
C4090 C 0.99442 0.59053 0.70275 0.0
C4091 C 0.97009 0.59507 0.68273 0.0
C4092 C 0.95383 0.60205 0.67955 0.0
C4093 C 1.00148 0.58343 0.68734 0.0
C4094 C 0.99207 0.58081 0.66949 0.0
C4095 C 0.97693 0.58741 0.66725 0.0
C4096 C 0.99722 0.56993 0.6534 0.0
C4097 C 0.01867 0.57814 0.69038 0.0
C4098 C 1.00273 0.5788 0.63833 0.0
C4099 C 1.00929 0.56884 0.62414 0.0
C4100 C 1.01032 0.54991 0.62483 0.0
C4101 C 1.00406 0.54082 0.63952 0.0
C4102 C 0.99744 0.55073 0.65363 0.0
H4103 H 0.02671 0.58645 0.70345 0.0
H4104 H 0.01597 0.56265 0.69151 0.0
H4105 H 0.02644 0.58075 0.67864 0.0
H4106 H 1.00259 0.5936 0.63791 0.0
H4107 H 0.01425 0.57619 0.61306 0.0
H4108 H 0.30485 0.20595 0.45047 0.0
H4109 H 0.30815 0.21961 0.42168 0.0
H4110 H 0.27745 0.25855 0.43938 0.0
H4111 H 0.27397 0.24497 0.468 0.0
H4112 H 0.27857 0.22213 0.39442 0.0
H4113 H 0.32405 0.29295 0.42511 0.0
H4114 H 0.32152 0.27207 0.4365 0.0
H4115 H 0.3051 0.28524 0.43678 0.0
C4116 C 0.29891 0.21751 0.44828 0.0
C4117 C 0.28918 0.22439 0.46158 0.0
C4118 C 0.30076 0.22526 0.43181 0.0
C4119 C 0.29317 0.2402 0.42847 0.0
C4120 C 0.28358 0.24718 0.44176 0.0
H4121 H 0.28948 0.31294 0.34506 0.0
H4122 H 0.28709 0.29675 0.37224 0.0
C4123 C 0.28157 0.23934 0.45811 0.0
C4124 C 0.29478 0.24825 0.4109 0.0
H4125 H 0.31181 0.28939 0.39381 0.0
C4126 C 0.28592 0.23679 0.39421 0.0
C4127 C 0.30431 0.26738 0.4107 0.0
C4128 C 0.31442 0.28016 0.42818 0.0
C4129 C 0.28584 0.24416 0.3774 0.0
C4130 C 0.29532 0.2634 0.37716 0.0
C4131 C 0.30446 0.2747 0.39389 0.0
C4132 C 0.29571 0.27238 0.35995 0.0
C4133 C 0.27515 0.23134 0.36026 0.0
C4134 C 0.30118 0.26406 0.34378 0.0
C4135 C 0.30231 0.27322 0.32809 0.0
C4136 C 0.29833 0.29106 0.32838 0.0
C4137 C 0.2927 0.29925 0.34445 0.0
C4138 C 0.29137 0.29001 0.36002 0.0
H4139 H 0.26429 0.22003 0.36385 0.0
H4140 H 0.26945 0.23964 0.35088 0.0
H4141 H 0.2838 0.224 0.35268 0.0
H4142 H 0.30496 0.25071 0.34341 0.0
H4143 H 0.30672 0.26657 0.31591 0.0
H4144 H 0.33126 0.60155 0.56323 0.0
H4145 H 0.35164 0.58336 0.55268 0.0
H4146 H 0.35736 0.61251 0.5052 0.0
H4147 H 0.33701 0.63102 0.51577 0.0
H4148 H 0.35212 0.5591 0.51844 0.0
H4149 H 0.40759 0.62542 0.53371 0.0
H4150 H 0.38665 0.62441 0.54203 0.0
H4151 H 0.38898 0.62605 0.51811 0.0
C4152 C 0.3367 0.604 0.55044 0.0
C4153 C 0.3327 0.6179 0.54045 0.0
C4154 C 0.34828 0.59352 0.5444 0.0
C4155 C 0.35613 0.59678 0.52831 0.0
C4156 C 0.35156 0.60998 0.51779 0.0
H4157 H 0.42995 0.53249 0.48844 0.0
H4158 H 0.40456 0.54605 0.48945 0.0
C4159 C 0.33992 0.62049 0.52382 0.0
C4160 C 0.37003 0.58734 0.52355 0.0
H4161 H 0.41443 0.59632 0.52406 0.0
C4162 C 0.36573 0.56719 0.5194 0.0
C4163 C 0.38776 0.59802 0.52507 0.0
C4164 C 0.39315 0.61966 0.53009 0.0
C4165 C 0.37881 0.55739 0.51715 0.0
C4166 C 0.39655 0.56808 0.51901 0.0
C4167 C 0.40078 0.58823 0.52265 0.0
C4168 C 0.4111 0.55873 0.51847 0.0
C4169 C 0.37369 0.5357 0.51358 0.0
C4170 C 0.4231 0.56139 0.53445 0.0
C4171 C 0.43754 0.55366 0.53394 0.0
C4172 C 0.4403 0.54321 0.51739 0.0
C4173 C 0.42804 0.54024 0.50146 0.0
C4174 C 0.41356 0.548 0.502 0.0
H4175 H 0.3598 0.5296 0.51558 0.0
H4176 H 0.3754 0.53057 0.49906 0.0
H4177 H 0.38229 0.53007 0.52294 0.0
H4178 H 0.42137 0.56962 0.5473 0.0
H4179 H 0.44664 0.55599 0.54648 0.0
H4180 H 0.87947 0.91583 0.53225 0.0
H4181 H 0.90968 0.93409 0.53155 0.0
H4182 H 0.8987 0.98488 0.56008 0.0
H4183 H 0.86836 0.96669 0.56094 0.0
H4184 H 0.92145 0.96754 0.51541 0.0
H4185 H 0.94336 0.98031 0.59125 0.0
H4186 H 0.92372 0.96225 0.58052 0.0
H4187 H 0.92363 0.98713 0.58473 0.0
C4188 C 0.88344 0.93088 0.53845 0.0
C4189 C 0.87144 0.93976 0.54672 0.0
C4190 C 0.90074 0.94129 0.53801 0.0
C4191 C 0.90651 0.96077 0.54597 0.0
C4192 C 0.8946 0.96977 0.55413 0.0
H4193 H 0.99807 0.04703 0.52922 0.0
H4194 H 0.96857 0.02716 0.5308 0.0
C4195 C 0.87723 0.95937 0.5545 0.0
C4196 C 0.9249 0.97172 0.54529 0.0
H4197 H 0.96314 0.99658 0.57251 0.0
C4198 C 0.93058 0.97385 0.52789 0.0
C4199 C 0.93686 0.97971 0.56158 0.0
C4200 C 0.9317 0.97714 0.5806 0.0
C4201 C 0.94777 0.98415 0.52636 0.0
C4202 C 0.95956 0.99265 0.54265 0.0
C4203 C 0.95403 0.99014 0.56005 0.0
C4204 C 0.97753 1.00462 0.54187 0.0
C4205 C 0.95325 0.98578 0.5073 0.0
C4206 C 0.99237 0.99869 0.54787 0.0
C4207 C 1.00928 1.01004 0.54697 0.0
C4208 C 0.01158 0.02758 0.54023 0.0
C4209 C 0.9967 0.03357 0.53445 0.0
C4210 C 0.97984 0.0222 0.53526 0.0
H4211 H 0.94415 0.97489 0.49636 0.0
H4212 H 0.95322 1.00026 0.5041 0.0
H4213 H 0.96675 0.98405 0.50677 0.0
H4214 H 0.99086 0.98519 0.55307 0.0
H4215 H 0.02053 1.00513 0.55157 0.0
H4216 H 0.87836 0.1085 0.2304 0.0
H4217 H 0.86513 0.13583 0.23246 0.0
H4218 H 0.9023 0.16462 0.28032 0.0
H4219 H 0.91553 0.13732 0.27832 0.0
H4220 H 0.8484 0.15249 0.25886 0.0
H4221 H 0.90764 0.20811 0.25049 0.0
H4222 H 0.90641 0.18277 0.24589 0.0
H4223 H 0.91077 0.19543 0.26937 0.0
C4224 C 0.88384 0.12063 0.24138 0.0
C4225 C 0.89825 0.12034 0.25412 0.0
C4226 C 0.87615 0.13644 0.24258 0.0
C4227 C 0.88265 0.15294 0.25638 0.0
C4228 C 0.897 0.15261 0.26919 0.0
H4229 H 0.85458 0.26533 0.28221 0.0
H4230 H 0.86813 0.23824 0.28132 0.0
C4231 C 0.90458 0.13672 0.26811 0.0
C4232 C 0.87425 0.17006 0.25752 0.0
H4233 H 0.88306 0.21915 0.25835 0.0
C4234 C 0.85608 0.16701 0.25865 0.0
C4235 C 0.88389 0.18941 0.25746 0.0
C4236 C 0.90322 0.1942 0.25557 0.0
C4237 C 0.84758 0.18226 0.26007 0.0
C4238 C 0.85714 0.20162 0.2597 0.0
C4239 C 0.87536 0.20466 0.25864 0.0
C4240 C 0.8486 0.21867 0.26032 0.0
C4241 C 0.8284 0.17735 0.26269 0.0
C4242 C 0.83302 0.21763 0.24871 0.0
C4243 C 0.82508 0.23319 0.24938 0.0
C4244 C 0.83242 0.25086 0.26145 0.0
C4245 C 0.84824 0.25214 0.27278 0.0
C4246 C 0.85612 0.23646 0.27221 0.0
H4247 H 0.8247 0.1642 0.26917 0.0
H4248 H 0.82508 0.18927 0.27153 0.0
H4249 H 0.82035 0.17442 0.24893 0.0
H4250 H 0.82696 0.20475 0.23878 0.0
H4251 H 0.81314 0.23137 0.24014 0.0
H4252 H 0.75206 0.09475 0.05205 0.0
H4253 H 0.72071 0.07897 0.05077 0.0
H4254 H 0.70836 0.13276 0.04563 0.0
H4255 H 0.73944 0.14831 0.04606 0.0
H4256 H 0.69594 0.08396 0.07162 0.0
H4257 H 0.67789 0.09875 1.00148 0.0
H4258 H 0.70041 0.10287 0.01135 0.0
H4259 H 0.68844 0.12051 0.01716 0.0
C4260 C 0.74262 0.10317 0.05066 0.0
C4261 C 0.74813 0.12267 0.04887 0.0
C4262 C 0.72474 0.09416 0.04993 0.0
C4263 C 0.71216 0.10457 0.04759 0.0
C4264 C 0.71776 0.12427 0.04677 0.0
H4265 H 0.60361 0.07174 0.06869 0.0
H4266 H 0.63545 0.08454 0.07088 0.0
C4267 C 0.73555 0.13318 0.04714 0.0
C4268 C 0.69316 0.09492 0.04595 0.0
H4269 H 0.65419 0.08876 0.01904 0.0
C4270 C 0.68681 0.08485 0.06004 0.0
C4271 C 0.68131 0.09574 0.03064 0.0
C4272 C 0.68739 0.10487 0.01421 0.0
C4273 C 0.66885 0.07601 0.0595 0.0
C4274 C 0.65688 0.07788 0.04478 0.0
C4275 C 0.66332 0.08755 0.03047 0.0
C4276 C 0.63764 0.06986 0.04376 0.0
C4277 C 0.66299 0.0645 0.07454 0.0
C4278 C 0.62818 0.05791 0.02754 0.0
C4279 C 0.60996 0.05103 0.02608 0.0
C4280 C 0.60087 0.05581 0.04089 0.0
C4281 C 0.61032 0.06768 0.05714 0.0
C4282 C 0.62853 0.07486 0.05847 0.0
H4283 H 0.67381 0.05927 0.08088 0.0
H4284 H 0.65894 0.07379 0.0857 0.0
H4285 H 0.65169 0.05192 0.06907 0.0
H4286 H 0.6349 0.05391 0.01598 0.0
H4287 H 0.60304 0.04181 0.0134 0.0
H4288 H 0.23412 0.508 0.23157 0.0
H4289 H 0.25456 0.49407 0.24833 0.0
H4290 H 0.22537 0.49485 0.29532 0.0
H4291 H 0.20466 0.5087 0.27855 0.0
H4292 H 0.27541 0.50937 0.28431 0.0
H4293 H 0.22776 0.43815 0.28209 0.0
H4294 H 0.2239 0.45483 0.26709 0.0
H4295 H 0.22146 0.45935 0.29128 0.0
C4296 C 0.23199 0.50518 0.24545 0.0
C4297 C 0.21772 0.50932 0.2537 0.0
C4298 C 0.24373 0.49731 0.25503 0.0
C4299 C 0.24139 0.49339 0.27298 0.0
C4300 C 0.22726 0.49764 0.28138 0.0
H4301 H 0.29969 0.4206 0.32157 0.0
H4302 H 0.28262 0.44444 0.32165 0.0
C4303 C 0.21547 0.50553 0.27179 0.0
C4304 C 0.25364 0.48439 0.28249 0.0
H4305 H 0.25707 0.4412 0.29319 0.0
C4306 C 0.27139 0.49456 0.28658 0.0
C4307 C 0.24826 0.46517 0.28559 0.0
C4308 C 0.22934 0.45361 0.28124 0.0
C4309 C 0.28411 0.48566 0.29281 0.0
C4310 C 0.27891 0.46603 0.29462 0.0
C4311 C 0.261 0.45626 0.29174 0.0
C4312 C 0.29176 0.4546 0.29691 0.0
C4313 C 0.30304 0.49717 0.29686 0.0
C4314 C 0.30283 0.45274 0.28321 0.0
C4315 C 0.3126 0.43921 0.28316 0.0
C4316 C 0.31138 0.42721 0.29674 0.0
C4317 C 0.30105 0.42982 0.31105 0.0
C4318 C 0.29123 0.44335 0.31108 0.0
H4319 H 0.30408 0.51267 0.30135 0.0
H4320 H 0.31034 0.49193 0.30781 0.0
H4321 H 0.30942 0.49586 0.28403 0.0
H4322 H 0.30314 0.46096 0.27192 0.0
H4323 H 0.32053 0.43755 0.27204 0.0
H4324 H 0.28784 0.46963 0.06928 0.0
H4325 H 0.26175 0.48145 0.06443 0.0
H4326 H 0.23974 0.43445 0.01947 0.0
H4327 H 0.26584 0.42238 0.02431 0.0
H4328 H 0.24722 0.49252 0.03233 0.0
H4329 H 0.20097 0.43099 0.05427 0.0
H4330 H 0.22451 0.4356 0.05918 0.0
H4331 H 0.21364 0.42485 0.0363 0.0
C4332 C 0.27749 0.46179 0.05831 0.0
C4333 C 0.27891 0.44499 0.04723 0.0
C4334 C 0.26258 0.4686 0.05556 0.0
C4335 C 0.24869 0.45871 0.04177 0.0
C4336 C 0.25017 0.44214 0.03041 0.0
H4337 H 0.16216 0.50646 1.0062 0.0
H4338 H 0.18648 0.49119 1.00663 0.0
C4339 C 0.26515 0.43533 0.03311 0.0
C4340 C 0.23271 0.46586 0.03943 0.0
H4341 H 0.18889 0.45493 0.04388 0.0
C4342 C 0.23444 0.48427 0.03474 0.0
C4343 C 0.2161 0.45515 0.04281 0.0
C4344 C 0.21361 0.43561 0.04857 0.0
C4345 C 0.22002 0.49227 0.03337 0.0
C4346 C 0.20338 0.4815 0.03659 0.0
C4347 C 0.20163 0.46309 0.04127 0.0
C4348 C 0.18782 0.4895 0.03595 0.0
C4349 C 0.22283 0.51242 0.029 0.0
C4350 C 0.18011 0.49304 0.05215 0.0
C4351 C 0.16613 0.50166 0.05193 0.0
C4352 C 0.15947 0.50678 0.03545 0.0
C4353 C 0.16686 0.50259 0.0191 0.0
C4354 C 0.18088 0.49404 0.01935 0.0
H4355 H 0.23697 0.52019 0.03079 0.0
H4356 H 0.21741 0.51173 0.01437 0.0
H4357 H 0.2159 0.52082 0.03804 0.0
H4358 H 0.18518 0.48954 0.06509 0.0
H4359 H 0.16061 0.50443 0.06472 0.0
H4360 H 0.87919 0.01552 0.24402 0.0
H4361 H 0.86166 0.98247 0.24451 0.0
H4362 H 0.90026 0.97607 0.28663 0.0
H4363 H 0.91766 1.00868 0.28623 0.0
H4364 H 0.87113 0.94687 0.23712 0.0
H4365 H 0.85495 0.95734 0.30914 0.0
H4366 H 0.86297 0.97723 0.29713 0.0
H4367 H 0.87796 0.96539 0.30731 0.0
C4368 C 0.88384 1.0072 0.25359 0.0
C4369 C 0.89995 1.01514 0.26515 0.0
C4370 C 0.87381 0.98814 0.25379 0.0
C4371 C 0.87936 0.97651 0.26579 0.0
C4372 C 0.89531 0.98455 0.27745 0.0
H4373 H 0.83983 0.85794 0.2901 0.0
H4374 H 0.85661 0.89127 0.28967 0.0
C4375 C 0.90537 1.00339 0.27712 0.0
C4376 C 0.86903 0.95587 0.26581 0.0
H4377 H 0.84907 0.92502 0.29392 0.0
C4378 C 0.86619 0.94219 0.24953 0.0
C4379 C 0.86265 0.94933 0.28198 0.0
C4380 C 0.86462 0.96309 0.29985 0.0
C4381 C 0.85767 0.92247 0.24906 0.0
C4382 C 0.85112 0.91592 0.26519 0.0
C4383 C 0.85396 0.92965 0.28147 0.0
C4384 C 0.84105 0.89515 0.26536 0.0
C4385 C 0.85643 0.90874 0.2313 0.0
C4386 C 0.82643 0.88578 0.25208 0.0
C4387 C 0.81696 0.86665 0.25221 0.0
C4388 C 0.82148 0.85607 0.2658 0.0
C4389 C 0.83596 0.86542 0.27929 0.0
C4390 C 0.84556 0.88463 0.27908 0.0
H4391 H 0.86695 0.91431 0.22285 0.0
H4392 H 0.85738 0.89439 0.23412 0.0
H4393 H 0.84364 0.90703 0.22286 0.0
H4394 H 0.82206 0.89338 0.24165 0.0
H4395 H 0.80582 0.86019 0.24168 0.0
H4396 H 0.67344 0.10964 0.76067 0.0
H4397 H 0.68967 0.14351 0.76813 0.0
H4398 H 0.727 0.13311 0.73116 0.0
H4399 H 0.71106 0.09916 0.72381 0.0
H4400 H 0.74239 0.15284 0.76639 0.0
H4401 H 0.69258 0.18599 0.73607 0.0
H4402 H 0.68505 0.17001 0.75206 0.0
H4403 H 0.69123 0.16069 0.73039 0.0
C4404 C 0.68499 0.11458 0.75395 0.0
C4405 C 0.69097 0.10169 0.74164 0.0
C4406 C 0.6942 0.13396 0.75819 0.0
C4407 C 0.70942 0.14079 0.75008 0.0
C4408 C 0.71525 0.12807 0.73755 0.0
H4409 H 0.76846 0.25256 0.7399 0.0
H4410 H 0.74895 0.22044 0.7369 0.0
C4411 C 0.7061 0.10869 0.73333 0.0
C4412 C 0.71979 0.16103 0.75518 0.0
H4413 H 0.71857 0.20718 0.75268 0.0
C4414 C 0.73719 0.16476 0.76348 0.0
C4415 C 0.7129 0.17645 0.7513 0.0
C4416 C 0.69447 0.17317 0.74183 0.0
C4417 C 0.74808 0.18355 0.76768 0.0
C4418 C 0.74121 0.19899 0.76378 0.0
C4419 C 0.7237 0.19528 0.7558 0.0
C4420 C 0.75246 0.21886 0.76621 0.0
C4421 C 0.767 0.18663 0.77557 0.0
C4422 C 0.76072 0.22872 0.78377 0.0
C4423 C 0.77206 0.24714 0.78556 0.0
C4424 C 0.77517 0.25597 0.7698 0.0
C4425 C 0.76647 0.24618 0.75233 0.0
C4426 C 0.75523 0.22782 0.75057 0.0
H4427 H 0.77107 0.17299 0.77422 0.0
H4428 H 0.77586 0.19695 0.7685 0.0
H4429 H 0.76876 0.19274 0.79055 0.0
H4430 H 0.75849 0.22213 0.79605 0.0
H4431 H 0.77847 0.25435 0.79923 0.0
loop_
_geom_bond_atom_site_label_1
_geom_bond_atom_site_label_2
_geom_bond_distance
_geom_bond_site_symmetry_2
_ccdc_geom_bond_type
O0 Cd1 2.223 . S
O0 C8 1.315 . S
Cd1 O0 2.223 . S
Cd1 O4 2.297 . S
Cd1 O5 2.439 . S
Cd1 O11 2.240 . S
Cd2 O3 2.240 . S
Cd2 O10 2.223 . S
Cd2 O12 2.297 . S
Cd2 O13 2.439 . S
O3 Cd2 2.240 . S
O3 C8 1.279 . S
O4 Cd1 2.297 . S
O4 C6 1.247 . S
O5 Cd1 2.439 . S
O5 C6 1.208 . S
C6 O4 1.247 . S
C6 O5 1.208 . S
C7 O12 1.247 . S
C7 O13 1.208 . S
C8 O0 1.315 . S
C8 O3 1.279 . S
C9 O10 1.315 . S
C9 O11 1.279 . S
O10 Cd2 2.223 . S
O10 C9 1.315 . S
O11 Cd1 2.240 . S
O11 C9 1.279 . S
O12 Cd2 2.297 . S
O12 C7 1.247 . S
O13 Cd2 2.439 . S
O13 C7 1.208 . S
O14 Cd15 2.250 . S
O14 C22 1.323 . S
Cd15 O14 2.250 . S
Cd15 O18 2.297 . S
Cd15 O19 2.439 . S
Cd15 O25 2.240 1_655 S
Cd16 O17 2.240 1_455 S
Cd16 O24 2.223 . S
Cd16 O26 2.297 . S
Cd16 O27 2.446 . S
O17 Cd16 2.240 1_655 S
O17 C22 1.279 . S
O18 Cd15 2.297 . S
O18 C20 1.247 . S
O19 Cd15 2.439 . S
O19 C20 1.208 . S
C20 O18 1.247 . S
C20 O19 1.208 . S
C21 O26 1.247 . S
C21 O27 1.217 . S
C22 O14 1.323 . S
C22 O17 1.279 . S
C23 O24 1.315 . S
C23 O25 1.279 . S
O24 Cd16 2.223 . S
O24 C23 1.315 . S
O25 Cd15 2.240 1_455 S
O25 C23 1.279 . S
O26 Cd16 2.297 . S
O26 C21 1.247 . S
O27 Cd16 2.446 . S
O27 C21 1.217 . S
O28 Cd29 2.223 . S
O28 C36 1.315 . S
Cd29 O28 2.223 . S
Cd29 O32 2.297 . S
Cd29 O33 2.439 . S
Cd29 O39 2.240 . S
Cd30 O31 2.240 . S
Cd30 O38 2.223 . S
Cd30 O40 2.297 . S
Cd30 O41 2.439 . S
O31 Cd30 2.240 . S
O31 C36 1.279 . S
O32 Cd29 2.297 . S
O32 C34 1.247 . S
O33 Cd29 2.439 . S
O33 C34 1.208 . S
C34 O32 1.247 . S
C34 O33 1.208 . S
C35 O40 1.247 . S
C35 O41 1.208 . S
C36 O28 1.315 . S
C36 O31 1.279 . S
C37 O38 1.315 . S
C37 O39 1.279 . S
O38 Cd30 2.223 . S
O38 C37 1.315 . S
O39 Cd29 2.240 . S
O39 C37 1.279 . S
O40 Cd30 2.297 . S
O40 C35 1.247 . S
O41 Cd30 2.439 . S
O41 C35 1.208 . S
O42 Cd43 2.223 . S
O42 C50 1.315 . S
Cd43 O42 2.223 . S
Cd43 O46 2.297 . S
Cd43 O47 2.439 . S
Cd43 O53 2.240 . S
Cd44 O45 2.240 . S
Cd44 O52 2.223 . S
Cd44 O54 2.297 . S
Cd44 O55 2.439 . S
O45 Cd44 2.240 . S
O45 C50 1.279 . S
O46 Cd43 2.297 . S
O46 C48 1.247 . S
O47 Cd43 2.439 . S
O47 C48 1.208 . S
C48 O46 1.247 . S
C48 O47 1.208 . S
C49 O54 1.247 . S
C49 O55 1.208 . S
C50 O42 1.315 . S
C50 O45 1.279 . S
C51 O52 1.315 . S
C51 O53 1.279 . S
O52 Cd44 2.223 . S
O52 C51 1.315 . S
O53 Cd43 2.240 . S
O53 C51 1.279 . S
O54 Cd44 2.297 . S
O54 C49 1.247 . S
O55 Cd44 2.439 . S
O55 C49 1.208 . S
O56 Cd57 2.223 . S
O56 C64 1.315 . S
Cd57 O56 2.223 . S
Cd57 O60 2.297 . S
Cd57 O61 2.439 . S
Cd57 O67 2.240 . S
Cd58 O59 2.240 . S
Cd58 O66 2.223 . S
Cd58 O68 2.297 . S
Cd58 O69 2.439 . S
O59 Cd58 2.240 . S
O59 C64 1.279 . S
O60 Cd57 2.297 . S
O60 C62 1.247 . S
O61 Cd57 2.439 . S
O61 C62 1.208 . S
C62 O60 1.247 . S
C62 O61 1.208 . S
C63 O68 1.247 . S
C63 O69 1.208 . S
C64 O56 1.315 . S
C64 O59 1.279 . S
C65 O66 1.315 . S
C65 O67 1.279 . S
O66 Cd58 2.223 . S
O66 C65 1.315 . S
O67 Cd57 2.240 . S
O67 C65 1.279 . S
O68 Cd58 2.297 . S
O68 C63 1.247 . S
O69 Cd58 2.439 . S
O69 C63 1.208 . S
O70 Cd71 2.223 . S
O70 C78 1.315 . S
Cd71 O70 2.223 . S
Cd71 O74 2.297 . S
Cd71 O75 2.439 . S
Cd71 O81 2.240 . S
Cd72 O73 2.240 . S
Cd72 O80 2.223 . S
Cd72 O82 2.297 . S
Cd72 O83 2.439 . S
O73 Cd72 2.240 . S
O73 C78 1.279 . S
O74 Cd71 2.297 . S
O74 C76 1.247 . S
O75 Cd71 2.439 . S
O75 C76 1.208 . S
C76 O74 1.247 . S
C76 O75 1.208 . S
C77 O82 1.247 . S
C77 O83 1.208 . S
C78 O70 1.315 . S
C78 O73 1.279 . S
C79 O80 1.315 . S
C79 O81 1.279 . S
O80 Cd72 2.223 . S
O80 C79 1.315 . S
O81 Cd71 2.240 . S
O81 C79 1.279 . S
O82 Cd72 2.297 . S
O82 C77 1.247 . S
O83 Cd72 2.439 . S
O83 C77 1.208 . S
O84 Cd85 2.223 . S
O84 C92 1.315 . S
Cd85 O84 2.223 . S
Cd85 O88 2.297 . S
Cd85 O89 2.439 . S
Cd85 O95 2.240 . S
Cd86 O87 2.240 . S
Cd86 O94 2.223 . S
Cd86 O96 2.297 . S
Cd86 O97 2.439 . S
O87 Cd86 2.240 . S
O87 C92 1.279 . S
O88 Cd85 2.297 . S
O88 C90 1.247 . S
O89 Cd85 2.439 . S
O89 C90 1.208 . S
C90 O88 1.247 . S
C90 O89 1.208 . S
C91 O96 1.247 . S
C91 O97 1.208 . S
C92 O84 1.315 . S
C92 O87 1.279 . S
C93 O94 1.315 . S
C93 O95 1.279 . S
O94 Cd86 2.223 . S
O94 C93 1.315 . S
O95 Cd85 2.240 . S
O95 C93 1.279 . S
O96 Cd86 2.297 . S
O96 C91 1.247 . S
O97 Cd86 2.439 . S
O97 C91 1.208 . S
O98 Cd99 2.223 . S
O98 C106 1.315 . S
Cd99 O98 2.223 . S
Cd99 O102 2.297 . S
Cd99 O103 2.439 . S
Cd99 O109 2.240 . S
Cd100 O101 2.240 . S
Cd100 O108 2.223 1_455 S
Cd100 O110 2.297 . S
Cd100 O111 2.439 . S
O101 Cd100 2.240 . S
O101 C106 1.279 . S
O102 Cd99 2.297 . S
O102 C104 1.247 . S
O103 Cd99 2.439 . S
O103 C104 1.208 . S
C104 O102 1.247 . S
C104 O103 1.208 . S
C105 O110 1.247 . S
C105 O111 1.208 . S
C106 O98 1.315 . S
C106 O101 1.279 . S
C107 O108 1.315 . S
C107 O109 1.279 1_655 S
O108 Cd100 2.223 1_655 S
O108 C107 1.315 . S
O109 Cd99 2.240 . S
O109 C107 1.279 1_455 S
O110 Cd100 2.297 . S
O110 C105 1.247 . S
O111 Cd100 2.439 . S
O111 C105 1.208 . S
O112 Cd113 2.223 . S
O112 C120 1.315 . S
Cd113 O112 2.223 . S
Cd113 O116 2.297 . S
Cd113 O117 2.439 . S
Cd113 O123 2.240 1_545 S
Cd114 O115 2.240 . S
Cd114 O122 2.223 1_545 S
Cd114 O124 2.297 . S
Cd114 O125 2.439 . S
O115 Cd114 2.240 . S
O115 C120 1.279 . S
O116 Cd113 2.297 . S
O116 C118 1.247 . S
O117 Cd113 2.439 . S
O117 C118 1.208 . S
C118 O116 1.247 . S
C118 O117 1.208 . S
C119 O124 1.247 . S
C119 O125 1.208 . S
C120 O112 1.315 . S
C120 O115 1.279 . S
C121 O122 1.315 . S
C121 O123 1.279 . S
O122 Cd114 2.223 1_565 S
O122 C121 1.315 . S
O123 Cd113 2.240 1_565 S
O123 C121 1.279 . S
O124 Cd114 2.297 . S
O124 C119 1.247 . S
O125 Cd114 2.439 . S
O125 C119 1.208 . S
O126 Cd127 2.223 . S
O126 C134 1.315 . S
Cd127 O126 2.223 . S
Cd127 O130 2.297 . S
Cd127 O131 2.439 . S
Cd127 O137 2.240 . S
Cd128 O129 2.240 . S
Cd128 O136 2.223 . S
Cd128 O138 2.297 . S
Cd128 O139 2.439 . S
O129 Cd128 2.240 . S
O129 C134 1.279 . S
O130 Cd127 2.297 . S
O130 C132 1.247 . S
O131 Cd127 2.439 . S
O131 C132 1.208 . S
C132 O130 1.247 . S
C132 O131 1.208 . S
C133 O138 1.247 . S
C133 O139 1.208 . S
C134 O126 1.315 . S
C134 O129 1.279 . S
C135 O136 1.315 . S
C135 O137 1.279 . S
O136 Cd128 2.223 . S
O136 C135 1.315 . S
O137 Cd127 2.240 . S
O137 C135 1.279 . S
O138 Cd128 2.297 . S
O138 C133 1.247 . S
O139 Cd128 2.439 . S
O139 C133 1.208 . S
O140 Cd141 2.223 1_545 S
O140 C148 1.315 1_545 S
Cd141 O140 2.223 1_565 S
Cd141 O144 2.297 . S
Cd141 O145 2.439 . S
Cd141 O151 2.240 1_565 S
Cd142 O143 2.240 1_545 S
Cd142 O150 2.223 . S
Cd142 O152 2.297 . S
Cd142 O153 2.439 1_545 S
O143 Cd142 2.240 1_565 S
O143 C148 1.279 . S
O144 Cd141 2.297 . S
O144 C146 1.247 . S
O145 Cd141 2.439 . S
O145 C146 1.208 . S
C146 O144 1.247 . S
C146 O145 1.208 . S
C147 O152 1.247 . S
C147 O153 1.208 1_545 S
C148 O140 1.315 1_565 S
C148 O143 1.279 . S
C149 O150 1.315 . S
C149 O151 1.279 . S
O150 Cd142 2.223 . S
O150 C149 1.315 . S
O151 Cd141 2.240 1_545 S
O151 C149 1.279 . S
O152 Cd142 2.297 . S
O152 C147 1.247 . S
O153 Cd142 2.439 1_565 S
O153 C147 1.208 1_565 S
O154 Cd155 2.223 . S
O154 C162 1.315 . S
Cd155 O154 2.223 . S
Cd155 O158 2.297 . S
Cd155 O159 2.426 1_554 S
Cd155 O165 2.240 . S
Cd156 O157 2.240 1_556 S
Cd156 O164 2.223 1_556 S
Cd156 O166 2.297 . S
Cd156 O167 2.439 . S
O157 Cd156 2.240 1_554 S
O157 C162 1.279 . S
O158 Cd155 2.297 . S
O158 C160 1.247 . S
O159 Cd155 2.426 1_556 S
O159 C160 1.185 1_556 S
C160 O158 1.247 . S
C160 O159 1.185 1_554 S
C161 O166 1.247 . S
C161 O167 1.208 . S
C162 O154 1.315 . S
C162 O157 1.279 . S
C163 O164 1.315 . S
C163 O165 1.279 . S
O164 Cd156 2.223 1_554 S
O164 C163 1.315 . S
O165 Cd155 2.240 . S
O165 C163 1.279 . S
O166 Cd156 2.297 . S
O166 C161 1.247 . S
O167 Cd156 2.439 . S
O167 C161 1.208 . S
O168 Cd169 2.223 . S
O168 C176 1.315 . S
Cd169 O168 2.223 . S
Cd169 O172 2.297 . S
Cd169 O173 2.439 . S
Cd169 O179 2.240 . S
Cd170 O171 2.240 . S
Cd170 O178 2.223 . S
Cd170 O180 2.297 1_554 S
Cd170 O181 2.439 1_554 S
O171 Cd170 2.240 . S
O171 C176 1.279 . S
O172 Cd169 2.297 . S
O172 C174 1.247 . S
O173 Cd169 2.439 . S
O173 C174 1.208 . S
C174 O172 1.247 . S
C174 O173 1.208 . S
C175 O180 1.247 . S
C175 O181 1.208 . S
C176 O168 1.315 . S
C176 O171 1.279 . S
C177 O178 1.315 . S
C177 O179 1.279 . S
O178 Cd170 2.223 . S
O178 C177 1.315 . S
O179 Cd169 2.240 . S
O179 C177 1.279 . S
O180 Cd170 2.297 1_556 S
O180 C175 1.247 . S
O181 Cd170 2.439 1_556 S
O181 C175 1.208 . S
O182 Cd183 2.223 . S
O182 C190 1.315 . S
Cd183 O182 2.223 . S
Cd183 O186 2.297 . S
Cd183 O187 2.439 . S
Cd183 O193 2.240 . S
Cd184 O185 2.240 . S
Cd184 O192 2.223 . S
Cd184 O194 2.297 1_554 S
Cd184 O195 2.439 1_554 S
O185 Cd184 2.240 . S
O185 C190 1.279 . S
O186 Cd183 2.297 . S
O186 C188 1.247 . S
O187 Cd183 2.439 . S
O187 C188 1.208 . S
C188 O186 1.247 . S
C188 O187 1.208 . S
C189 O194 1.247 . S
C189 O195 1.208 . S
C190 O182 1.315 . S
C190 O185 1.279 . S
C191 O192 1.315 . S
C191 O193 1.279 . S
O192 Cd184 2.223 . S
O192 C191 1.315 . S
O193 Cd183 2.240 . S
O193 C191 1.279 . S
O194 Cd184 2.297 1_556 S
O194 C189 1.247 . S
O195 Cd184 2.439 1_556 S
O195 C189 1.208 . S
O196 Cd197 2.223 . S
O196 C204 1.315 . S
Cd197 O196 2.223 . S
Cd197 O200 2.297 . S
Cd197 O201 2.439 . S
Cd197 O207 2.240 . S
Cd198 O199 2.240 . S
Cd198 O206 2.223 . S
Cd198 O208 2.297 . S
Cd198 O209 2.439 . S
O199 Cd198 2.240 . S
O199 C204 1.279 . S
O200 Cd197 2.297 . S
O200 C202 1.247 . S
O201 Cd197 2.439 . S
O201 C202 1.208 . S
C202 O200 1.247 . S
C202 O201 1.208 . S
C203 O208 1.247 . S
C203 O209 1.208 . S
C204 O196 1.315 . S
C204 O199 1.279 . S
C205 O206 1.315 . S
C205 O207 1.279 . S
O206 Cd198 2.223 . S
O206 C205 1.315 . S
O207 Cd197 2.240 . S
O207 C205 1.279 . S
O208 Cd198 2.297 . S
O208 C203 1.247 . S
O209 Cd198 2.439 . S
O209 C203 1.208 . S
O210 Cd211 2.223 . S
O210 C218 1.315 . S
Cd211 O210 2.223 . S
Cd211 O214 2.297 . S
Cd211 O215 2.439 . S
Cd211 O221 2.240 . S
Cd212 O213 2.240 . S
Cd212 O220 2.223 . S
Cd212 O222 2.297 . S
Cd212 O223 2.439 . S
O213 Cd212 2.240 . S
O213 C218 1.279 . S
O214 Cd211 2.297 . S
O214 C216 1.247 . S
O215 Cd211 2.439 . S
O215 C216 1.208 . S
C216 O214 1.247 . S
C216 O215 1.208 . S
C217 O222 1.247 . S
C217 O223 1.208 . S
C218 O210 1.315 . S
C218 O213 1.279 . S
C219 O220 1.315 . S
C219 O221 1.279 . S
O220 Cd212 2.223 . S
O220 C219 1.315 . S
O221 Cd211 2.240 . S
O221 C219 1.279 . S
O222 Cd212 2.297 . S
O222 C217 1.247 . S
O223 Cd212 2.439 . S
O223 C217 1.208 . S
O224 Cd225 2.223 . S
O224 C232 1.315 . S
Cd225 O224 2.223 . S
Cd225 O228 2.297 . S
Cd225 O229 2.439 . S
Cd225 O235 2.240 . S
Cd226 O227 2.240 . S
Cd226 O234 2.223 . S
Cd226 O236 2.297 . S
Cd226 O237 2.439 . S
O227 Cd226 2.240 . S
O227 C232 1.279 . S
O228 Cd225 2.297 . S
O228 C230 1.247 . S
O229 Cd225 2.439 . S
O229 C230 1.208 . S
C230 O228 1.247 . S
C230 O229 1.208 . S
C231 O236 1.247 . S
C231 O237 1.208 . S
C232 O224 1.315 . S
C232 O227 1.279 . S
C233 O234 1.315 . S
C233 O235 1.279 . S
O234 Cd226 2.223 . S
O234 C233 1.315 . S
O235 Cd225 2.240 . S
O235 C233 1.279 . S
O236 Cd226 2.297 . S
O236 C231 1.247 . S
O237 Cd226 2.439 . S
O237 C231 1.208 . S
O238 Cd239 2.223 . S
O238 C246 1.315 . S
Cd239 O238 2.223 . S
Cd239 O242 2.297 . S
Cd239 O243 2.439 . S
Cd239 O249 2.240 . S
Cd240 O241 2.240 . S
Cd240 O248 2.223 . S
Cd240 O250 2.297 . S
Cd240 O251 2.439 . S
O241 Cd240 2.240 . S
O241 C246 1.279 . S
O242 Cd239 2.297 . S
O242 C244 1.247 . S
O243 Cd239 2.439 . S
O243 C244 1.208 . S
C244 O242 1.247 . S
C244 O243 1.208 . S
C245 O250 1.247 . S
C245 O251 1.208 . S
C246 O238 1.315 . S
C246 O241 1.279 . S
C247 O248 1.315 . S
C247 O249 1.279 . S
O248 Cd240 2.223 . S
O248 C247 1.315 . S
O249 Cd239 2.240 . S
O249 C247 1.279 . S
O250 Cd240 2.297 . S
O250 C245 1.247 . S
O251 Cd240 2.439 . S
O251 C245 1.208 . S
O252 Cd253 2.223 . S
O252 C260 1.315 . S
Cd253 O252 2.223 . S
Cd253 O256 2.297 . S
Cd253 O257 2.439 . S
Cd253 O263 2.240 . S
Cd254 O255 2.240 . S
Cd254 O262 2.223 . S
Cd254 O264 2.297 . S
Cd254 O265 2.439 . S
O255 Cd254 2.240 . S
O255 C260 1.279 . S
O256 Cd253 2.297 . S
O256 C258 1.247 . S
O257 Cd253 2.439 . S
O257 C258 1.208 . S
C258 O256 1.247 . S
C258 O257 1.208 . S
C259 O264 1.247 . S
C259 O265 1.208 . S
C260 O252 1.315 . S
C260 O255 1.279 . S
C261 O262 1.315 . S
C261 O263 1.279 . S
O262 Cd254 2.223 . S
O262 C261 1.315 . S
O263 Cd253 2.240 . S
O263 C261 1.279 . S
O264 Cd254 2.297 . S
O264 C259 1.247 . S
O265 Cd254 2.439 . S
O265 C259 1.208 . S
O266 Cd267 2.223 . S
O266 C274 1.315 . S
Cd267 O266 2.223 . S
Cd267 O270 2.297 . S
Cd267 O271 2.439 . S
Cd267 O277 2.240 . S
Cd268 O269 2.240 . S
Cd268 O276 2.223 . S
Cd268 O278 2.297 . S
Cd268 O279 2.439 . S
O269 Cd268 2.240 . S
O269 C274 1.279 . S
O270 Cd267 2.297 . S
O270 C272 1.247 . S
O271 Cd267 2.439 . S
O271 C272 1.208 . S
C272 O270 1.247 . S
C272 O271 1.208 . S
C273 O278 1.247 . S
C273 O279 1.208 . S
C274 O266 1.315 . S
C274 O269 1.279 . S
C275 O276 1.315 . S
C275 O277 1.279 . S
O276 Cd268 2.223 . S
O276 C275 1.315 . S
O277 Cd267 2.240 . S
O277 C275 1.279 . S
O278 Cd268 2.297 . S
O278 C273 1.247 . S
O279 Cd268 2.439 . S
O279 C273 1.208 . S
O280 Cd281 2.223 . S
O280 C288 1.315 . S
Cd281 O280 2.223 . S
Cd281 O284 2.297 . S
Cd281 O285 2.439 . S
Cd281 O291 2.240 . S
Cd282 O283 2.240 . S
Cd282 O290 2.223 . S
Cd282 O292 2.297 1_554 S
Cd282 O293 2.439 1_554 S
O283 Cd282 2.240 . S
O283 C288 1.279 . S
O284 Cd281 2.297 . S
O284 C286 1.247 . S
O285 Cd281 2.439 . S
O285 C286 1.208 . S
C286 O284 1.247 . S
C286 O285 1.208 . S
C287 O292 1.247 . S
C287 O293 1.208 . S
C288 O280 1.315 . S
C288 O283 1.279 . S
C289 O290 1.315 . S
C289 O291 1.279 . S
O290 Cd282 2.223 . S
O290 C289 1.315 . S
O291 Cd281 2.240 . S
O291 C289 1.279 . S
O292 Cd282 2.297 1_556 S
O292 C287 1.247 . S
O293 Cd282 2.439 1_556 S
O293 C287 1.208 . S
O294 Cd295 2.223 . S
O294 C302 1.315 . S
Cd295 O294 2.223 . S
Cd295 O298 2.297 . S
Cd295 O299 2.439 . S
Cd295 O305 2.240 . S
Cd296 O297 2.240 . S
Cd296 O304 2.223 . S
Cd296 O306 2.297 . S
Cd296 O307 2.439 . S
O297 Cd296 2.240 . S
O297 C302 1.279 . S
O298 Cd295 2.297 . S
O298 C300 1.247 . S
O299 Cd295 2.439 . S
O299 C300 1.208 . S
C300 O298 1.247 . S
C300 O299 1.208 . S
C301 O306 1.247 . S
C301 O307 1.208 . S
C302 O294 1.315 . S
C302 O297 1.279 . S
C303 O304 1.315 . S
C303 O305 1.279 . S
O304 Cd296 2.223 . S
O304 C303 1.315 . S
O305 Cd295 2.240 . S
O305 C303 1.279 . S
O306 Cd296 2.297 . S
O306 C301 1.247 . S
O307 Cd296 2.439 . S
O307 C301 1.208 . S
O308 Cd309 2.223 . S
O308 C316 1.315 . S
Cd309 O308 2.223 . S
Cd309 O312 2.297 . S
Cd309 O313 2.439 . S
Cd309 O319 2.240 . S
Cd310 O311 2.240 . S
Cd310 O318 2.223 . S
Cd310 O320 2.297 . S
Cd310 O321 2.439 . S
O311 Cd310 2.240 . S
O311 C316 1.279 . S
O312 Cd309 2.297 . S
O312 C314 1.247 . S
O313 Cd309 2.439 . S
O313 C314 1.208 . S
C314 O312 1.247 . S
C314 O313 1.208 . S
C315 O320 1.247 . S
C315 O321 1.208 . S
C316 O308 1.315 . S
C316 O311 1.279 . S
C317 O318 1.315 . S
C317 O319 1.279 . S
O318 Cd310 2.223 . S
O318 C317 1.315 . S
O319 Cd309 2.240 . S
O319 C317 1.279 . S
O320 Cd310 2.297 . S
O320 C315 1.247 . S
O321 Cd310 2.439 . S
O321 C315 1.208 . S
O322 Cd323 2.223 . S
O322 C330 1.315 . S
Cd323 O322 2.223 . S
Cd323 O326 2.297 . S
Cd323 O327 2.439 . S
Cd323 O333 2.240 . S
Cd324 O325 2.240 . S
Cd324 O332 2.223 . S
Cd324 O334 2.297 . S
Cd324 O335 2.439 . S
O325 Cd324 2.240 . S
O325 C330 1.279 . S
O326 Cd323 2.297 . S
O326 C328 1.247 . S
O327 Cd323 2.439 . S
O327 C328 1.208 . S
C328 O326 1.247 . S
C328 O327 1.208 . S
C329 O334 1.247 . S
C329 O335 1.208 . S
C330 O322 1.315 . S
C330 O325 1.279 . S
C331 O332 1.315 . S
C331 O333 1.279 . S
O332 Cd324 2.223 . S
O332 C331 1.315 . S
O333 Cd323 2.240 . S
O333 C331 1.279 . S
O334 Cd324 2.297 . S
O334 C329 1.247 . S
O335 Cd324 2.439 . S
O335 C329 1.208 . S
Ho336 C339 2.811 1_455 S
Ho336 O356 2.322 . S
Ho336 O358 2.378 1_454 S
Ho336 O359 2.524 1_455 S
Ho336 O360 2.381 1_554 S
Ho336 O361 2.679 . S
Ho336 O363 2.346 . S
Ho336 O367 2.305 . S
Ho337 C348 2.811 . S
Ho337 O357 2.346 . S
Ho337 O361 2.328 . S
Ho337 O362 2.322 . S
Ho337 O364 2.378 . S
Ho337 O365 2.524 . S
Ho337 O366 2.381 . S
Ho337 O367 2.669 . S
C338 O356 1.259 . S
C338 O357 1.268 . S
C339 Ho336 2.811 1_655 S
C339 C340 1.488 1_554 S
C339 O358 1.215 1_554 S
C339 O359 1.289 . S
C340 C339 1.488 1_556 S
C340 C341 1.348 1_556 S
C340 C345 1.413 . S
C341 C340 1.348 1_554 S
C341 C342 1.442 . S
C341 H368 0.930 . S
C342 C341 1.442 . S
C342 C343 1.381 1_554 S
C342 H369 0.931 . S
C343 C342 1.381 1_556 S
C343 C344 1.321 . S
C344 C343 1.321 . S
C344 C345 1.403 . S
C344 H370 0.934 . S
C345 C340 1.413 . S
C345 C344 1.403 . S
C345 H371 0.930 . S
C346 O360 1.275 . S
C346 O361 1.228 1_556 S
C347 O362 1.259 . S
C347 O363 1.268 . S
C348 Ho337 2.811 . S
C348 C349 1.488 . S
C348 O364 1.215 . S
C348 O365 1.289 . S
C349 C348 1.488 . S
C349 C350 1.348 . S
C349 C354 1.413 . S
C350 C349 1.348 . S
C350 C351 1.442 . S
C350 H372 0.930 . S
C351 C350 1.442 . S
C351 C352 1.381 . S
C351 H373 0.931 1_545 S
C352 C351 1.381 . S
C352 C353 1.321 . S
C353 C352 1.321 . S
C353 C354 1.403 . S
C353 H374 0.934 . S
C354 C349 1.413 . S
C354 C353 1.403 . S
C354 H375 0.930 . S
C355 O366 1.275 . S
C355 O367 1.256 . S
O356 Ho336 2.322 . S
O356 C338 1.259 . S
O357 Ho337 2.346 . S
O357 C338 1.268 . S
O358 Ho336 2.378 1_656 S
O358 C339 1.215 1_556 S
O359 Ho336 2.524 1_655 S
O359 C339 1.289 . S
O360 Ho336 2.381 1_556 S
O360 C346 1.275 . S
O361 Ho336 2.679 . S
O361 Ho337 2.328 . S
O361 C346 1.228 1_554 S
O362 Ho337 2.322 . S
O362 C347 1.259 . S
O363 Ho336 2.346 . S
O363 C347 1.268 . S
O364 Ho337 2.378 . S
O364 C348 1.215 . S
O365 Ho337 2.524 . S
O365 C348 1.289 . S
O366 Ho337 2.381 . S
O366 C355 1.275 . S
O367 Ho336 2.305 . S
O367 Ho337 2.669 . S
O367 C355 1.256 . S
H368 C341 0.930 . S
H369 C342 0.931 . S
H370 C344 0.934 . S
H371 C345 0.930 . S
H372 C350 0.930 . S
H373 C351 0.931 1_565 S
H374 C353 0.934 . S
H375 C354 0.930 . S
Ho376 C379 2.811 . S
Ho376 O396 2.322 . S
Ho376 O398 2.378 . S
Ho376 O399 2.524 . S
Ho376 O400 2.381 . S
Ho376 O401 2.669 . S
Ho376 O403 2.346 . S
Ho376 O407 2.305 . S
Ho377 C388 2.811 . S
Ho377 O397 2.346 . S
Ho377 O401 2.305 . S
Ho377 O402 2.322 . S
Ho377 O404 2.378 . S
Ho377 O405 2.524 . S
Ho377 O406 2.381 . S
Ho377 O407 2.669 . S
C378 O396 1.259 . S
C378 O397 1.268 . S
C379 Ho376 2.811 . S
C379 C380 1.488 . S
C379 O398 1.215 . S
C379 O399 1.289 . S
C380 C379 1.488 . S
C380 C381 1.348 . S
C380 C385 1.413 . S
C381 C380 1.348 . S
C381 C382 1.442 . S
C381 H408 0.930 . S
C382 C381 1.442 . S
C382 C383 1.381 . S
C382 H409 0.931 . S
C383 C382 1.381 . S
C383 C384 1.321 . S
C384 C383 1.321 . S
C384 C385 1.403 . S
C384 H410 0.934 . S
C385 C380 1.413 . S
C385 C384 1.403 . S
C385 H411 0.930 . S
C386 O400 1.275 . S
C386 O401 1.256 . S
C387 O402 1.259 . S
C387 O403 1.268 . S
C388 Ho377 2.811 . S
C388 C389 1.488 . S
C388 O404 1.215 . S
C388 O405 1.289 . S
C389 C388 1.488 . S
C389 C390 1.348 . S
C389 C394 1.413 . S
C390 C389 1.348 . S
C390 C391 1.442 . S
C390 H412 0.930 . S
C391 C390 1.442 . S
C391 C392 1.381 . S
C391 H413 0.931 . S
C392 C391 1.381 . S
C392 C393 1.321 . S
C393 C392 1.321 . S
C393 C394 1.403 . S
C393 H414 0.934 . S
C394 C389 1.413 . S
C394 C393 1.403 . S
C394 H415 0.930 . S
C395 O406 1.275 . S
C395 O407 1.256 . S
O396 Ho376 2.322 . S
O396 C378 1.259 . S
O397 Ho377 2.346 . S
O397 C378 1.268 . S
O398 Ho376 2.378 . S
O398 C379 1.215 . S
O399 Ho376 2.524 . S
O399 C379 1.289 . S
O400 Ho376 2.381 . S
O400 C386 1.275 . S
O401 Ho376 2.669 . S
O401 Ho377 2.305 . S
O401 C386 1.256 . S
O402 Ho377 2.322 . S
O402 C387 1.259 . S
O403 Ho376 2.346 . S
O403 C387 1.268 . S
O404 Ho377 2.378 . S
O404 C388 1.215 . S
O405 Ho377 2.524 . S
O405 C388 1.289 . S
O406 Ho377 2.381 . S
O406 C395 1.275 . S
O407 Ho376 2.305 . S
O407 Ho377 2.669 . S
O407 C395 1.256 . S
H408 C381 0.930 . S
H409 C382 0.931 . S
H410 C384 0.934 . S
H411 C385 0.930 . S
H412 C390 0.930 . S
H413 C391 0.931 . S
H414 C393 0.934 . S
H415 C394 0.930 . S
Ho416 C419 2.811 . S
Ho416 O436 2.322 . S
Ho416 O438 2.378 . S
Ho416 O439 2.524 . S
Ho416 O440 2.381 . S
Ho416 O441 2.669 . S
Ho416 O443 2.346 . S
Ho416 O447 2.305 . S
Ho417 C428 2.811 . S
Ho417 O437 2.354 . S
Ho417 O441 2.305 . S
Ho417 O442 2.322 . S
Ho417 O444 2.378 . S
Ho417 O445 2.524 . S
Ho417 O446 2.381 . S
Ho417 O447 2.669 . S
C418 O436 1.259 1_565 S
C418 O437 1.264 1_565 S
C419 Ho416 2.811 . S
C419 C420 1.488 . S
C419 O438 1.215 . S
C419 O439 1.289 . S
C420 C419 1.488 . S
C420 C421 1.348 1_545 S
C420 C425 1.413 . S
C421 C420 1.348 1_565 S
C421 C422 1.442 . S
C421 H448 0.930 . S
C422 C421 1.442 . S
C422 C423 1.381 . S
C422 H449 0.931 . S
C423 C422 1.381 . S
C423 C424 1.321 . S
C424 C423 1.321 . S
C424 C425 1.403 1_565 S
C424 H450 0.934 . S
C425 C420 1.413 . S
C425 C424 1.403 1_545 S
C425 H451 0.930 . S
C426 O440 1.275 . S
C426 O441 1.256 . S
C427 O442 1.259 . S
C427 O443 1.268 . S
C428 Ho417 2.811 . S
C428 C429 1.488 . S
C428 O444 1.215 . S
C428 O445 1.289 . S
C429 C428 1.488 . S
C429 C430 1.348 . S
C429 C434 1.413 . S
C430 C429 1.348 . S
C430 C431 1.442 . S
C430 H452 0.930 . S
C431 C430 1.442 . S
C431 C432 1.381 . S
C431 H453 0.931 . S
C432 C431 1.381 . S
C432 C433 1.321 . S
C433 C432 1.321 . S
C433 C434 1.403 . S
C433 H454 0.934 . S
C434 C429 1.413 . S
C434 C433 1.403 . S
C434 H455 0.930 . S
C435 O446 1.275 . S
C435 O447 1.256 . S
O436 Ho416 2.322 . S
O436 C418 1.259 1_545 S
O437 Ho417 2.354 . S
O437 C418 1.264 1_545 S
O438 Ho416 2.378 . S
O438 C419 1.215 . S
O439 Ho416 2.524 . S
O439 C419 1.289 . S
O440 Ho416 2.381 . S
O440 C426 1.275 . S
O441 Ho416 2.669 . S
O441 Ho417 2.305 . S
O441 C426 1.256 . S
O442 Ho417 2.322 . S
O442 C427 1.259 . S
O443 Ho416 2.346 . S
O443 C427 1.268 . S
O444 Ho417 2.378 . S
O444 C428 1.215 . S
O445 Ho417 2.524 . S
O445 C428 1.289 . S
O446 Ho417 2.381 . S
O446 C435 1.275 . S
O447 Ho416 2.305 . S
O447 Ho417 2.669 . S
O447 C435 1.256 . S
H448 C421 0.930 . S
H449 C422 0.931 . S
H450 C424 0.934 . S
H451 C425 0.930 . S
H452 C430 0.930 . S
H453 C431 0.931 . S
H454 C433 0.934 . S
H455 C434 0.930 . S
Ho456 C459 2.811 . S
Ho456 O476 2.322 . S
Ho456 O478 2.378 . S
Ho456 O479 2.524 . S
Ho456 O480 2.381 . S
Ho456 O481 2.669 . S
Ho456 O483 2.346 . S
Ho456 O487 2.305 . S
Ho457 C468 2.811 . S
Ho457 O477 2.346 . S
Ho457 O481 2.305 . S
Ho457 O482 2.322 . S
Ho457 O484 2.378 . S
Ho457 O485 2.524 . S
Ho457 O486 2.381 . S
Ho457 O487 2.669 . S
C458 O476 1.259 . S
C458 O477 1.268 . S
C459 Ho456 2.811 . S
C459 C460 1.488 . S
C459 O478 1.215 . S
C459 O479 1.289 . S
C460 C459 1.488 . S
C460 C461 1.348 . S
C460 C465 1.413 . S
C461 C460 1.348 . S
C461 C462 1.442 . S
C461 H488 0.930 . S
C462 C461 1.442 . S
C462 C463 1.381 . S
C462 H489 0.931 . S
C463 C462 1.381 . S
C463 C464 1.321 . S
C464 C463 1.321 . S
C464 C465 1.403 . S
C464 H490 0.934 . S
C465 C460 1.413 . S
C465 C464 1.403 . S
C465 H491 0.930 . S
C466 O480 1.275 . S
C466 O481 1.256 . S
C467 O482 1.259 . S
C467 O483 1.268 . S
C468 Ho457 2.811 . S
C468 C469 1.488 . S
C468 O484 1.215 . S
C468 O485 1.289 . S
C469 C468 1.488 . S
C469 C470 1.348 . S
C469 C474 1.413 . S
C470 C469 1.348 . S
C470 C471 1.442 . S
C470 H492 0.930 . S
C471 C470 1.442 . S
C471 C472 1.381 . S
C471 H493 0.931 . S
C472 C471 1.381 . S
C472 C473 1.321 . S
C473 C472 1.321 . S
C473 C474 1.403 . S
C473 H494 0.934 . S
C474 C469 1.413 . S
C474 C473 1.403 . S
C474 H495 0.930 . S
C475 O486 1.275 . S
C475 O487 1.256 . S
O476 Ho456 2.322 . S
O476 C458 1.259 . S
O477 Ho457 2.346 . S
O477 C458 1.268 . S
O478 Ho456 2.378 . S
O478 C459 1.215 . S
O479 Ho456 2.524 . S
O479 C459 1.289 . S
O480 Ho456 2.381 . S
O480 C466 1.275 . S
O481 Ho456 2.669 . S
O481 Ho457 2.305 . S
O481 C466 1.256 . S
O482 Ho457 2.322 . S
O482 C467 1.259 . S
O483 Ho456 2.346 . S
O483 C467 1.268 . S
O484 Ho457 2.378 . S
O484 C468 1.215 . S
O485 Ho457 2.524 . S
O485 C468 1.289 . S
O486 Ho457 2.381 . S
O486 C475 1.275 . S
O487 Ho456 2.305 . S
O487 Ho457 2.669 . S
O487 C475 1.256 . S
H488 C461 0.930 . S
H489 C462 0.931 . S
H490 C464 0.934 . S
H491 C465 0.930 . S
H492 C470 0.930 . S
H493 C471 0.931 . S
H494 C473 0.934 . S
H495 C474 0.930 . S
Ho496 C499 2.811 . S
Ho496 O516 2.322 . S
Ho496 O518 2.378 . S
Ho496 O519 2.524 . S
Ho496 O520 2.381 . S
Ho496 O521 2.669 . S
Ho496 O523 2.346 . S
Ho496 O527 2.305 . S
Ho497 C508 2.811 1_545 S
Ho497 O517 2.346 . S
Ho497 O521 2.305 . S
Ho497 O522 2.322 . S
Ho497 O524 2.378 1_545 S
Ho497 O525 2.524 1_545 S
Ho497 O526 2.381 . S
Ho497 O527 2.669 . S
C498 O516 1.259 . S
C498 O517 1.268 . S
C499 Ho496 2.811 . S
C499 C500 1.488 . S
C499 O518 1.215 . S
C499 O519 1.289 . S
C500 C499 1.488 . S
C500 C501 1.348 . S
C500 C505 1.413 . S
C501 C500 1.348 . S
C501 C502 1.442 . S
C501 H528 0.930 . S
C502 C501 1.442 . S
C502 C503 1.381 . S
C502 H529 0.931 . S
C503 C502 1.381 . S
C503 C504 1.321 . S
C504 C503 1.321 . S
C504 C505 1.403 . S
C504 H530 0.934 . S
C505 C500 1.413 . S
C505 C504 1.403 . S
C505 H531 0.930 . S
C506 O520 1.275 . S
C506 O521 1.256 . S
C507 O522 1.259 . S
C507 O523 1.268 . S
C508 Ho497 2.811 1_565 S
C508 C509 1.488 . S
C508 O524 1.215 . S
C508 O525 1.289 . S
C509 C508 1.488 . S
C509 C510 1.348 . S
C509 C514 1.413 . S
C510 C509 1.348 . S
C510 C511 1.442 . S
C510 H532 0.930 . S
C511 C510 1.442 . S
C511 C512 1.381 . S
C511 H533 0.931 . S
C512 C511 1.381 . S
C512 C513 1.321 . S
C513 C512 1.321 . S
C513 C514 1.403 . S
C513 H534 0.934 . S
C514 C509 1.413 . S
C514 C513 1.403 . S
C514 H535 0.930 . S
C515 O526 1.275 . S
C515 O527 1.256 . S
O516 Ho496 2.322 . S
O516 C498 1.259 . S
O517 Ho497 2.346 . S
O517 C498 1.268 . S
O518 Ho496 2.378 . S
O518 C499 1.215 . S
O519 Ho496 2.524 . S
O519 C499 1.289 . S
O520 Ho496 2.381 . S
O520 C506 1.275 . S
O521 Ho496 2.669 . S
O521 Ho497 2.305 . S
O521 C506 1.256 . S
O522 Ho497 2.322 . S
O522 C507 1.259 . S
O523 Ho496 2.346 . S
O523 C507 1.268 . S
O524 Ho497 2.378 1_565 S
O524 C508 1.215 . S
O525 Ho497 2.524 1_565 S
O525 C508 1.289 . S
O526 Ho497 2.381 . S
O526 C515 1.275 . S
O527 Ho496 2.305 . S
O527 Ho497 2.669 . S
O527 C515 1.256 . S
H528 C501 0.930 . S
H529 C502 0.931 . S
H530 C504 0.934 . S
H531 C505 0.930 . S
H532 C510 0.930 . S
H533 C511 0.931 . S
H534 C513 0.934 . S
H535 C514 0.930 . S
Ho536 C539 2.811 . S
Ho536 O556 2.322 . S
Ho536 O558 2.378 . S
Ho536 O559 2.524 . S
Ho536 O560 2.381 . S
Ho536 O561 2.669 . S
Ho536 O563 2.346 . S
Ho536 O567 2.305 . S
Ho537 C548 2.811 . S
Ho537 O557 2.346 . S
Ho537 O561 2.305 . S
Ho537 O562 2.322 . S
Ho537 O564 2.378 . S
Ho537 O565 2.524 . S
Ho537 O566 2.381 . S
Ho537 O567 2.669 . S
C538 O556 1.259 . S
C538 O557 1.268 . S
C539 Ho536 2.811 . S
C539 C540 1.488 . S
C539 O558 1.215 . S
C539 O559 1.289 . S
C540 C539 1.488 . S
C540 C541 1.348 . S
C540 C545 1.413 . S
C541 C540 1.348 . S
C541 C542 1.442 . S
C541 H568 0.930 . S
C542 C541 1.442 . S
C542 C543 1.381 . S
C542 H569 0.931 . S
C543 C542 1.381 . S
C543 C544 1.321 . S
C544 C543 1.321 . S
C544 C545 1.403 . S
C544 H570 0.934 . S
C545 C540 1.413 . S
C545 C544 1.403 . S
C545 H571 0.930 . S
C546 O560 1.275 . S
C546 O561 1.256 . S
C547 O562 1.259 . S
C547 O563 1.268 . S
C548 Ho537 2.811 . S
C548 C549 1.488 . S
C548 O564 1.215 . S
C548 O565 1.289 . S
C549 C548 1.488 . S
C549 C550 1.348 . S
C549 C554 1.413 . S
C550 C549 1.348 . S
C550 C551 1.442 . S
C550 H572 0.930 . S
C551 C550 1.442 . S
C551 C552 1.381 . S
C551 H573 0.931 . S
C552 C551 1.381 . S
C552 C553 1.321 . S
C553 C552 1.321 . S
C553 C554 1.403 . S
C553 H574 0.934 . S
C554 C549 1.413 . S
C554 C553 1.403 . S
C554 H575 0.930 . S
C555 O566 1.275 . S
C555 O567 1.256 . S
O556 Ho536 2.322 . S
O556 C538 1.259 . S
O557 Ho537 2.346 . S
O557 C538 1.268 . S
O558 Ho536 2.378 . S
O558 C539 1.215 . S
O559 Ho536 2.524 . S
O559 C539 1.289 . S
O560 Ho536 2.381 . S
O560 C546 1.275 . S
O561 Ho536 2.669 . S
O561 Ho537 2.305 . S
O561 C546 1.256 . S
O562 Ho537 2.322 . S
O562 C547 1.259 . S
O563 Ho536 2.346 . S
O563 C547 1.268 . S
O564 Ho537 2.378 . S
O564 C548 1.215 . S
O565 Ho537 2.524 . S
O565 C548 1.289 . S
O566 Ho537 2.381 . S
O566 C555 1.275 . S
O567 Ho536 2.305 . S
O567 Ho537 2.669 . S
O567 C555 1.256 . S
H568 C541 0.930 . S
H569 C542 0.931 . S
H570 C544 0.934 . S
H571 C545 0.930 . S
H572 C550 0.930 . S
H573 C551 0.931 . S
H574 C553 0.934 . S
H575 C554 0.930 . S
Ho576 C579 2.811 . S
Ho576 O596 2.322 . S
Ho576 O598 2.378 . S
Ho576 O599 2.524 . S
Ho576 O600 2.376 1_545 S
Ho576 O601 2.669 . S
Ho576 O603 2.346 . S
Ho576 O607 2.305 . S
Ho577 C588 2.811 . S
Ho577 O597 2.346 1_556 S
Ho577 O601 2.305 1_556 S
Ho577 O602 2.322 1_556 S
Ho577 O604 2.378 . S
Ho577 O605 2.524 . S
Ho577 O606 2.381 1_556 S
Ho577 O607 2.669 1_556 S
C578 O596 1.259 . S
C578 O597 1.268 . S
C579 Ho576 2.811 . S
C579 C580 1.488 . S
C579 O598 1.215 . S
C579 O599 1.289 . S
C580 C579 1.488 . S
C580 C581 1.348 . S
C580 C585 1.413 1_545 S
C581 C580 1.348 . S
C581 C582 1.442 . S
C581 H608 0.930 . S
C582 C581 1.442 . S
C582 C583 1.381 . S
C582 H609 0.931 . S
C583 C582 1.381 . S
C583 C584 1.321 1_545 S
C584 C583 1.321 1_565 S
C584 C585 1.403 . S
C584 H610 0.934 . S
C585 C580 1.413 1_565 S
C585 C584 1.403 . S
C585 H611 0.930 . S
C586 O600 1.272 1_545 S
C586 O601 1.256 . S
C587 O602 1.259 . S
C587 O603 1.268 . S
C588 Ho577 2.811 . S
C588 C589 1.488 . S
C588 O604 1.215 . S
C588 O605 1.289 . S
C589 C588 1.488 . S
C589 C590 1.348 . S
C589 C594 1.413 . S
C590 C589 1.348 . S
C590 C591 1.442 . S
C590 H612 0.930 . S
C591 C590 1.442 . S
C591 C592 1.381 . S
C591 H613 0.931 . S
C592 C591 1.381 . S
C592 C593 1.321 . S
C593 C592 1.321 . S
C593 C594 1.403 . S
C593 H614 0.934 . S
C594 C589 1.413 . S
C594 C593 1.403 . S
C594 H615 0.930 . S
C595 O606 1.275 . S
C595 O607 1.256 . S
O596 Ho576 2.322 . S
O596 C578 1.259 . S
O597 Ho577 2.346 1_554 S
O597 C578 1.268 . S
O598 Ho576 2.378 . S
O598 C579 1.215 . S
O599 Ho576 2.524 . S
O599 C579 1.289 . S
O600 Ho576 2.376 1_565 S
O600 C586 1.272 1_565 S
O601 Ho576 2.669 . S
O601 Ho577 2.305 1_554 S
O601 C586 1.256 . S
O602 Ho577 2.322 1_554 S
O602 C587 1.259 . S
O603 Ho576 2.346 . S
O603 C587 1.268 . S
O604 Ho577 2.378 . S
O604 C588 1.215 . S
O605 Ho577 2.524 . S
O605 C588 1.289 . S
O606 Ho577 2.381 1_554 S
O606 C595 1.275 . S
O607 Ho576 2.305 . S
O607 Ho577 2.669 1_554 S
O607 C595 1.256 . S
H608 C581 0.930 . S
H609 C582 0.931 . S
H610 C584 0.934 . S
H611 C585 0.930 . S
H612 C590 0.930 . S
H613 C591 0.931 . S
H614 C593 0.934 . S
H615 C594 0.930 . S
Ho616 C619 2.811 . S
Ho616 O636 2.322 . S
Ho616 O638 2.378 . S
Ho616 O639 2.524 . S
Ho616 O640 2.381 . S
Ho616 O641 2.669 . S
Ho616 O643 2.346 . S
Ho616 O647 2.305 . S
Ho617 C628 2.811 . S
Ho617 O637 2.346 . S
Ho617 O641 2.305 . S
Ho617 O642 2.322 . S
Ho617 O644 2.378 . S
Ho617 O645 2.524 . S
Ho617 O646 2.381 . S
Ho617 O647 2.669 . S
C618 O636 1.259 . S
C618 O637 1.268 . S
C619 Ho616 2.811 . S
C619 C620 1.488 . S
C619 O638 1.215 . S
C619 O639 1.289 . S
C620 C619 1.488 . S
C620 C621 1.348 . S
C620 C625 1.413 . S
C621 C620 1.348 . S
C621 C622 1.442 . S
C621 H648 0.930 . S
C622 C621 1.442 . S
C622 C623 1.381 . S
C622 H649 0.931 . S
C623 C622 1.381 . S
C623 C624 1.321 . S
C624 C623 1.321 . S
C624 C625 1.403 . S
C624 H650 0.934 . S
C625 C620 1.413 . S
C625 C624 1.403 . S
C625 H651 0.930 . S
C626 O640 1.275 . S
C626 O641 1.256 . S
C627 O642 1.259 . S
C627 O643 1.268 . S
C628 Ho617 2.811 . S
C628 C629 1.488 . S
C628 O644 1.215 . S
C628 O645 1.289 . S
C629 C628 1.488 . S
C629 C630 1.348 . S
C629 C634 1.413 . S
C630 C629 1.348 . S
C630 C631 1.442 . S
C630 H652 0.930 . S
C631 C630 1.442 . S
C631 C632 1.381 . S
C631 H653 0.931 . S
C632 C631 1.381 . S
C632 C633 1.321 . S
C633 C632 1.321 . S
C633 C634 1.403 . S
C633 H654 0.934 . S
C634 C629 1.413 . S
C634 C633 1.403 . S
C634 H655 0.930 . S
C635 O646 1.275 . S
C635 O647 1.256 . S
O636 Ho616 2.322 . S
O636 C618 1.259 . S
O637 Ho617 2.346 . S
O637 C618 1.268 . S
O638 Ho616 2.378 . S
O638 C619 1.215 . S
O639 Ho616 2.524 . S
O639 C619 1.289 . S
O640 Ho616 2.381 . S
O640 C626 1.275 . S
O641 Ho616 2.669 . S
O641 Ho617 2.305 . S
O641 C626 1.256 . S
O642 Ho617 2.322 . S
O642 C627 1.259 . S
O643 Ho616 2.346 . S
O643 C627 1.268 . S
O644 Ho617 2.378 . S
O644 C628 1.215 . S
O645 Ho617 2.524 . S
O645 C628 1.289 . S
O646 Ho617 2.381 . S
O646 C635 1.275 . S
O647 Ho616 2.305 . S
O647 Ho617 2.669 . S
O647 C635 1.256 . S
H648 C621 0.930 . S
H649 C622 0.931 . S
H650 C624 0.934 . S
H651 C625 0.930 . S
H652 C630 0.930 . S
H653 C631 0.931 . S
H654 C633 0.934 . S
H655 C634 0.930 . S
Ho656 C659 2.811 . S
Ho656 O676 2.322 1_554 S
Ho656 O678 2.378 . S
Ho656 O679 2.524 . S
Ho656 O680 2.381 . S
Ho656 O681 2.669 . S
Ho656 O683 2.346 . S
Ho656 O687 2.305 . S
Ho657 C668 2.811 . S
Ho657 O677 2.346 1_554 S
Ho657 O681 2.305 . S
Ho657 O682 2.322 . S
Ho657 O684 2.378 . S
Ho657 O685 2.524 . S
Ho657 O686 2.381 . S
Ho657 O687 2.669 . S
C658 O676 1.259 . S
C658 O677 1.268 . S
C659 Ho656 2.811 . S
C659 C660 1.488 1_554 S
C659 O678 1.215 . S
C659 O679 1.289 . S
C660 C659 1.488 1_556 S
C660 C661 1.348 . S
C660 C665 1.410 1_556 S
C661 C660 1.348 . S
C661 C662 1.442 . S
C661 H688 0.930 . S
C662 C661 1.442 . S
C662 C663 1.381 . S
C662 H689 0.931 . S
C663 C662 1.381 . S
C663 C664 1.321 . S
C664 C663 1.321 . S
C664 C665 1.391 1_556 S
C664 H690 0.934 . S
C665 C660 1.410 1_554 S
C665 C664 1.391 1_554 S
C665 H691 0.945 . S
C666 O680 1.275 . S
C666 O681 1.256 . S
C667 O682 1.259 . S
C667 O683 1.268 . S
C668 Ho657 2.811 . S
C668 C669 1.488 . S
C668 O684 1.215 . S
C668 O685 1.289 . S
C669 C668 1.488 . S
C669 C670 1.348 . S
C669 C674 1.413 . S
C670 C669 1.348 . S
C670 C671 1.442 . S
C670 H692 0.930 . S
C671 C670 1.442 . S
C671 C672 1.381 . S
C671 H693 0.931 . S
C672 C671 1.381 . S
C672 C673 1.321 . S
C673 C672 1.321 . S
C673 C674 1.403 . S
C673 H694 0.934 . S
C674 C669 1.413 . S
C674 C673 1.403 . S
C674 H695 0.930 . S
C675 O686 1.275 . S
C675 O687 1.256 . S
O676 Ho656 2.322 1_556 S
O676 C658 1.259 . S
O677 Ho657 2.346 1_556 S
O677 C658 1.268 . S
O678 Ho656 2.378 . S
O678 C659 1.215 . S
O679 Ho656 2.524 . S
O679 C659 1.289 . S
O680 Ho656 2.381 . S
O680 C666 1.275 . S
O681 Ho656 2.669 . S
O681 Ho657 2.305 . S
O681 C666 1.256 . S
O682 Ho657 2.322 . S
O682 C667 1.259 . S
O683 Ho656 2.346 . S
O683 C667 1.268 . S
O684 Ho657 2.378 . S
O684 C668 1.215 . S
O685 Ho657 2.524 . S
O685 C668 1.289 . S
O686 Ho657 2.381 . S
O686 C675 1.275 . S
O687 Ho656 2.305 . S
O687 Ho657 2.669 . S
O687 C675 1.256 . S
H688 C661 0.930 . S
H689 C662 0.931 . S
H690 C664 0.934 . S
H691 C665 0.945 . S
H692 C670 0.930 . S
H693 C671 0.931 . S
H694 C673 0.934 . S
H695 C674 0.930 . S
Ho696 C699 2.811 . S
Ho696 O716 2.322 . S
Ho696 O718 2.378 . S
Ho696 O719 2.524 . S
Ho696 O720 2.381 . S
Ho696 O721 2.669 . S
Ho696 O723 2.346 . S
Ho696 O727 2.305 . S
Ho697 C708 2.811 . S
Ho697 O717 2.346 . S
Ho697 O721 2.305 . S
Ho697 O722 2.322 . S
Ho697 O724 2.378 . S
Ho697 O725 2.524 . S
Ho697 O726 2.381 . S
Ho697 O727 2.669 . S
C698 O716 1.259 . S
C698 O717 1.268 . S
C699 Ho696 2.811 . S
C699 C700 1.488 . S
C699 O718 1.215 . S
C699 O719 1.289 . S
C700 C699 1.488 . S
C700 C701 1.348 . S
C700 C705 1.413 . S
C701 C700 1.348 . S
C701 C702 1.442 . S
C701 H728 0.930 . S
C702 C701 1.442 . S
C702 C703 1.381 . S
C702 H729 0.931 . S
C703 C702 1.381 . S
C703 C704 1.321 . S
C704 C703 1.321 . S
C704 C705 1.403 . S
C704 H730 0.934 . S
C705 C700 1.413 . S
C705 C704 1.403 . S
C705 H731 0.930 . S
C706 O720 1.275 . S
C706 O721 1.256 . S
C707 O722 1.259 . S
C707 O723 1.268 . S
C708 Ho697 2.811 . S
C708 C709 1.488 . S
C708 O724 1.215 . S
C708 O725 1.289 . S
C709 C708 1.488 . S
C709 C710 1.348 . S
C709 C714 1.413 . S
C710 C709 1.348 . S
C710 C711 1.442 . S
C710 H732 0.930 . S
C711 C710 1.442 . S
C711 C712 1.381 . S
C711 H733 0.931 . S
C712 C711 1.381 . S
C712 C713 1.321 . S
C713 C712 1.321 . S
C713 C714 1.403 . S
C713 H734 0.934 . S
C714 C709 1.413 . S
C714 C713 1.403 . S
C714 H735 0.930 . S
C715 O726 1.275 . S
C715 O727 1.256 . S
O716 Ho696 2.322 . S
O716 C698 1.259 . S
O717 Ho697 2.346 . S
O717 C698 1.268 . S
O718 Ho696 2.378 . S
O718 C699 1.215 . S
O719 Ho696 2.524 . S
O719 C699 1.289 . S
O720 Ho696 2.381 . S
O720 C706 1.275 . S
O721 Ho696 2.669 . S
O721 Ho697 2.305 . S
O721 C706 1.256 . S
O722 Ho697 2.322 . S
O722 C707 1.259 . S
O723 Ho696 2.346 . S
O723 C707 1.268 . S
O724 Ho697 2.378 . S
O724 C708 1.215 . S
O725 Ho697 2.524 . S
O725 C708 1.289 . S
O726 Ho697 2.381 . S
O726 C715 1.275 . S
O727 Ho696 2.305 . S
O727 Ho697 2.669 . S
O727 C715 1.256 . S
H728 C701 0.930 . S
H729 C702 0.931 . S
H730 C704 0.934 . S
H731 C705 0.930 . S
H732 C710 0.930 . S
H733 C711 0.931 . S
H734 C713 0.934 . S
H735 C714 0.930 . S
Ho736 C739 2.811 . S
Ho736 O756 2.322 . S
Ho736 O758 2.378 . S
Ho736 O759 2.524 . S
Ho736 O760 2.381 . S
Ho736 O761 2.669 . S
Ho736 O763 2.346 . S
Ho736 O767 2.305 . S
Ho737 C748 2.811 . S
Ho737 O757 2.346 . S
Ho737 O761 2.305 . S
Ho737 O762 2.322 . S
Ho737 O764 2.378 . S
Ho737 O765 2.524 . S
Ho737 O766 2.381 . S
Ho737 O767 2.669 . S
C738 O756 1.259 . S
C738 O757 1.268 . S
C739 Ho736 2.811 . S
C739 C740 1.488 . S
C739 O758 1.215 . S
C739 O759 1.289 . S
C740 C739 1.488 . S
C740 C741 1.348 . S
C740 C745 1.413 . S
C741 C740 1.348 . S
C741 C742 1.442 1_455 S
C741 H768 0.930 . S
C742 C741 1.442 1_655 S
C742 C743 1.381 . S
C742 H769 0.931 . S
C743 C742 1.381 . S
C743 C744 1.321 1_655 S
C744 C743 1.321 1_455 S
C744 C745 1.403 . S
C744 H770 0.934 . S
C745 C740 1.413 . S
C745 C744 1.403 . S
C745 H771 0.930 . S
C746 O760 1.275 . S
C746 O761 1.256 . S
C747 O762 1.259 . S
C747 O763 1.268 . S
C748 Ho737 2.811 . S
C748 C749 1.488 . S
C748 O764 1.215 . S
C748 O765 1.289 . S
C749 C748 1.488 . S
C749 C750 1.348 . S
C749 C754 1.413 . S
C750 C749 1.348 . S
C750 C751 1.442 . S
C750 H772 0.930 . S
C751 C750 1.442 . S
C751 C752 1.381 . S
C751 H773 0.931 . S
C752 C751 1.381 . S
C752 C753 1.321 . S
C753 C752 1.321 . S
C753 C754 1.403 . S
C753 H774 0.934 . S
C754 C749 1.413 . S
C754 C753 1.403 . S
C754 H775 0.930 . S
C755 O766 1.275 . S
C755 O767 1.256 . S
O756 Ho736 2.322 . S
O756 C738 1.259 . S
O757 Ho737 2.346 . S
O757 C738 1.268 . S
O758 Ho736 2.378 . S
O758 C739 1.215 . S
O759 Ho736 2.524 . S
O759 C739 1.289 . S
O760 Ho736 2.381 . S
O760 C746 1.275 . S
O761 Ho736 2.669 . S
O761 Ho737 2.305 . S
O761 C746 1.256 . S
O762 Ho737 2.322 . S
O762 C747 1.259 . S
O763 Ho736 2.346 . S
O763 C747 1.268 . S
O764 Ho737 2.378 . S
O764 C748 1.215 . S
O765 Ho737 2.524 . S
O765 C748 1.289 . S
O766 Ho737 2.381 . S
O766 C755 1.275 . S
O767 Ho736 2.305 . S
O767 Ho737 2.669 . S
O767 C755 1.256 . S
H768 C741 0.930 . S
H769 C742 0.931 . S
H770 C744 0.934 . S
H771 C745 0.930 . S
H772 C750 0.930 . S
H773 C751 0.931 . S
H774 C753 0.934 . S
H775 C754 0.930 . S
Ho776 C779 2.811 . S
Ho776 O796 2.322 . S
Ho776 O798 2.378 . S
Ho776 O799 2.524 . S
Ho776 O800 2.381 . S
Ho776 O801 2.669 . S
Ho776 O803 2.346 . S
Ho776 O807 2.305 . S
Ho777 C788 2.811 . S
Ho777 O797 2.346 . S
Ho777 O801 2.305 . S
Ho777 O802 2.322 . S
Ho777 O804 2.378 . S
Ho777 O805 2.524 . S
Ho777 O806 2.381 . S
Ho777 O807 2.669 . S
C778 O796 1.259 . S
C778 O797 1.268 . S
C779 Ho776 2.811 . S
C779 C780 1.488 . S
C779 O798 1.215 . S
C779 O799 1.289 . S
C780 C779 1.488 . S
C780 C781 1.348 . S
C780 C785 1.413 . S
C781 C780 1.348 . S
C781 C782 1.442 . S
C781 H808 0.930 . S
C782 C781 1.442 . S
C782 C783 1.381 . S
C782 H809 0.931 . S
C783 C782 1.381 . S
C783 C784 1.321 . S
C784 C783 1.321 . S
C784 C785 1.403 . S
C784 H810 0.934 . S
C785 C780 1.413 . S
C785 C784 1.403 . S
C785 H811 0.930 . S
C786 O800 1.275 . S
C786 O801 1.256 . S
C787 O802 1.259 . S
C787 O803 1.268 . S
C788 Ho777 2.811 . S
C788 C789 1.488 . S
C788 O804 1.215 . S
C788 O805 1.289 . S
C789 C788 1.488 . S
C789 C790 1.348 . S
C789 C794 1.413 . S
C790 C789 1.348 . S
C790 C791 1.442 . S
C790 H812 0.930 . S
C791 C790 1.442 . S
C791 C792 1.381 . S
C791 H813 0.931 . S
C792 C791 1.381 . S
C792 C793 1.321 . S
C793 C792 1.321 . S
C793 C794 1.403 . S
C793 H814 0.934 . S
C794 C789 1.413 . S
C794 C793 1.403 . S
C794 H815 0.930 . S
C795 O806 1.275 . S
C795 O807 1.256 . S
O796 Ho776 2.322 . S
O796 C778 1.259 . S
O797 Ho777 2.346 . S
O797 C778 1.268 . S
O798 Ho776 2.378 . S
O798 C779 1.215 . S
O799 Ho776 2.524 . S
O799 C779 1.289 . S
O800 Ho776 2.381 . S
O800 C786 1.275 . S
O801 Ho776 2.669 . S
O801 Ho777 2.305 . S
O801 C786 1.256 . S
O802 Ho777 2.322 . S
O802 C787 1.259 . S
O803 Ho776 2.346 . S
O803 C787 1.268 . S
O804 Ho777 2.378 . S
O804 C788 1.215 . S
O805 Ho777 2.524 . S
O805 C788 1.289 . S
O806 Ho777 2.381 . S
O806 C795 1.275 . S
O807 Ho776 2.305 . S
O807 Ho777 2.669 . S
O807 C795 1.256 . S
H808 C781 0.930 . S
H809 C782 0.931 . S
H810 C784 0.934 . S
H811 C785 0.930 . S
H812 C790 0.930 . S
H813 C791 0.931 . S
H814 C793 0.934 . S
H815 C794 0.930 . S
Ho816 C819 2.811 . S
Ho816 O836 2.322 . S
Ho816 O838 2.378 . S
Ho816 O839 2.524 . S
Ho816 O840 2.381 . S
Ho816 O841 2.669 . S
Ho816 O843 2.346 . S
Ho816 O847 2.305 . S
Ho817 C828 2.811 . S
Ho817 O837 2.346 . S
Ho817 O841 2.305 . S
Ho817 O842 2.322 . S
Ho817 O844 2.378 . S
Ho817 O845 2.524 . S
Ho817 O846 2.381 . S
Ho817 O847 2.669 . S
C818 O836 1.259 . S
C818 O837 1.268 . S
C819 Ho816 2.811 . S
C819 C820 1.488 . S
C819 O838 1.215 . S
C819 O839 1.289 . S
C820 C819 1.488 . S
C820 C821 1.348 . S
C820 C825 1.413 . S
C821 C820 1.348 . S
C821 C822 1.442 . S
C821 H848 0.930 . S
C822 C821 1.442 . S
C822 C823 1.381 . S
C822 H849 0.931 . S
C823 C822 1.381 . S
C823 C824 1.321 . S
C824 C823 1.321 . S
C824 C825 1.403 . S
C824 H850 0.934 . S
C825 C820 1.413 . S
C825 C824 1.403 . S
C825 H851 0.930 . S
C826 O840 1.275 . S
C826 O841 1.256 . S
C827 O842 1.259 . S
C827 O843 1.268 . S
C828 Ho817 2.811 . S
C828 C829 1.488 . S
C828 O844 1.215 . S
C828 O845 1.289 . S
C829 C828 1.488 . S
C829 C830 1.348 . S
C829 C834 1.413 . S
C830 C829 1.348 . S
C830 C831 1.442 . S
C830 H852 0.930 . S
C831 C830 1.442 . S
C831 C832 1.381 . S
C831 H853 0.931 . S
C832 C831 1.381 . S
C832 C833 1.321 . S
C833 C832 1.321 . S
C833 C834 1.403 . S
C833 H854 0.934 . S
C834 C829 1.413 . S
C834 C833 1.403 . S
C834 H855 0.930 . S
C835 O846 1.275 . S
C835 O847 1.256 . S
O836 Ho816 2.322 . S
O836 C818 1.259 . S
O837 Ho817 2.346 . S
O837 C818 1.268 . S
O838 Ho816 2.378 . S
O838 C819 1.215 . S
O839 Ho816 2.524 . S
O839 C819 1.289 . S
O840 Ho816 2.381 . S
O840 C826 1.275 . S
O841 Ho816 2.669 . S
O841 Ho817 2.305 . S
O841 C826 1.256 . S
O842 Ho817 2.322 . S
O842 C827 1.259 . S
O843 Ho816 2.346 . S
O843 C827 1.268 . S
O844 Ho817 2.378 . S
O844 C828 1.215 . S
O845 Ho817 2.524 . S
O845 C828 1.289 . S
O846 Ho817 2.381 . S
O846 C835 1.275 . S
O847 Ho816 2.305 . S
O847 Ho817 2.669 . S
O847 C835 1.256 . S
H848 C821 0.930 . S
H849 C822 0.931 . S
H850 C824 0.934 . S
H851 C825 0.930 . S
H852 C830 0.930 . S
H853 C831 0.931 . S
H854 C833 0.934 . S
H855 C834 0.930 . S
Ho856 C859 2.811 . S
Ho856 O876 2.322 . S
Ho856 O878 2.378 . S
Ho856 O879 2.524 . S
Ho856 O880 2.381 . S
Ho856 O881 2.669 . S
Ho856 O883 2.346 . S
Ho856 O887 2.305 . S
Ho857 C868 2.811 . S
Ho857 O877 2.346 . S
Ho857 O881 2.305 . S
Ho857 O882 2.322 . S
Ho857 O884 2.378 . S
Ho857 O885 2.524 . S
Ho857 O886 2.381 . S
Ho857 O887 2.669 . S
C858 O876 1.259 . S
C858 O877 1.268 . S
C859 Ho856 2.811 . S
C859 C860 1.488 . S
C859 O878 1.215 . S
C859 O879 1.289 . S
C860 C859 1.488 . S
C860 C861 1.348 . S
C860 C865 1.413 . S
C861 C860 1.348 . S
C861 C862 1.442 . S
C861 H888 0.930 . S
C862 C861 1.442 . S
C862 C863 1.381 . S
C862 H889 0.931 . S
C863 C862 1.381 . S
C863 C864 1.321 . S
C864 C863 1.321 . S
C864 C865 1.403 . S
C864 H890 0.934 . S
C865 C860 1.413 . S
C865 C864 1.403 . S
C865 H891 0.930 . S
C866 O880 1.275 . S
C866 O881 1.256 . S
C867 O882 1.259 . S
C867 O883 1.268 . S
C868 Ho857 2.811 . S
C868 C869 1.488 . S
C868 O884 1.215 . S
C868 O885 1.289 . S
C869 C868 1.488 . S
C869 C870 1.348 . S
C869 C874 1.413 . S
C870 C869 1.348 . S
C870 C871 1.442 . S
C870 H892 0.930 . S
C871 C870 1.442 . S
C871 C872 1.381 . S
C871 H893 0.931 . S
C872 C871 1.381 . S
C872 C873 1.321 . S
C873 C872 1.321 . S
C873 C874 1.403 . S
C873 H894 0.934 . S
C874 C869 1.413 . S
C874 C873 1.403 . S
C874 H895 0.930 . S
C875 O886 1.275 . S
C875 O887 1.256 . S
O876 Ho856 2.322 . S
O876 C858 1.259 . S
O877 Ho857 2.346 . S
O877 C858 1.268 . S
O878 Ho856 2.378 . S
O878 C859 1.215 . S
O879 Ho856 2.524 . S
O879 C859 1.289 . S
O880 Ho856 2.381 . S
O880 C866 1.275 . S
O881 Ho856 2.669 . S
O881 Ho857 2.305 . S
O881 C866 1.256 . S
O882 Ho857 2.322 . S
O882 C867 1.259 . S
O883 Ho856 2.346 . S
O883 C867 1.268 . S
O884 Ho857 2.378 . S
O884 C868 1.215 . S
O885 Ho857 2.524 . S
O885 C868 1.289 . S
O886 Ho857 2.381 . S
O886 C875 1.275 . S
O887 Ho856 2.305 . S
O887 Ho857 2.669 . S
O887 C875 1.256 . S
H888 C861 0.930 . S
H889 C862 0.931 . S
H890 C864 0.934 . S
H891 C865 0.930 . S
H892 C870 0.930 . S
H893 C871 0.931 . S
H894 C873 0.934 . S
H895 C874 0.930 . S
Ho896 C899 2.811 . S
Ho896 O916 2.322 . S
Ho896 O918 2.378 . S
Ho896 O919 2.524 . S
Ho896 O920 2.381 . S
Ho896 O921 2.669 . S
Ho896 O923 2.346 . S
Ho896 O927 2.305 . S
Ho897 C908 2.811 . S
Ho897 O917 2.346 . S
Ho897 O921 2.305 . S
Ho897 O922 2.322 . S
Ho897 O924 2.378 . S
Ho897 O925 2.524 . S
Ho897 O926 2.381 . S
Ho897 O927 2.669 . S
C898 O916 1.259 . S
C898 O917 1.268 . S
C899 Ho896 2.811 . S
C899 C900 1.488 . S
C899 O918 1.215 . S
C899 O919 1.289 . S
C900 C899 1.488 . S
C900 C901 1.348 . S
C900 C905 1.413 . S
C901 C900 1.348 . S
C901 C902 1.442 . S
C901 H928 0.930 . S
C902 C901 1.442 . S
C902 C903 1.381 . S
C902 H929 0.931 . S
C903 C902 1.381 . S
C903 C904 1.321 . S
C904 C903 1.321 . S
C904 C905 1.403 . S
C904 H930 0.934 . S
C905 C900 1.413 . S
C905 C904 1.403 . S
C905 H931 0.930 . S
C906 O920 1.275 . S
C906 O921 1.256 . S
C907 O922 1.259 . S
C907 O923 1.268 . S
C908 Ho897 2.811 . S
C908 C909 1.488 . S
C908 O924 1.215 . S
C908 O925 1.289 . S
C909 C908 1.488 . S
C909 C910 1.348 . S
C909 C914 1.413 . S
C910 C909 1.348 . S
C910 C911 1.442 . S
C910 H932 0.930 . S
C911 C910 1.442 . S
C911 C912 1.381 . S
C911 H933 0.931 . S
C912 C911 1.381 . S
C912 C913 1.321 . S
C913 C912 1.321 . S
C913 C914 1.403 . S
C913 H934 0.934 . S
C914 C909 1.413 . S
C914 C913 1.403 . S
C914 H935 0.930 . S
C915 O926 1.275 . S
C915 O927 1.256 . S
O916 Ho896 2.322 . S
O916 C898 1.259 . S
O917 Ho897 2.346 . S
O917 C898 1.268 . S
O918 Ho896 2.378 . S
O918 C899 1.215 . S
O919 Ho896 2.524 . S
O919 C899 1.289 . S
O920 Ho896 2.381 . S
O920 C906 1.275 . S
O921 Ho896 2.669 . S
O921 Ho897 2.305 . S
O921 C906 1.256 . S
O922 Ho897 2.322 . S
O922 C907 1.259 . S
O923 Ho896 2.346 . S
O923 C907 1.268 . S
O924 Ho897 2.378 . S
O924 C908 1.215 . S
O925 Ho897 2.524 . S
O925 C908 1.289 . S
O926 Ho897 2.381 . S
O926 C915 1.275 . S
O927 Ho896 2.305 . S
O927 Ho897 2.669 . S
O927 C915 1.256 . S
H928 C901 0.930 . S
H929 C902 0.931 . S
H930 C904 0.934 . S
H931 C905 0.930 . S
H932 C910 0.930 . S
H933 C911 0.931 . S
H934 C913 0.934 . S
H935 C914 0.930 . S
Ho936 C939 2.811 . S
Ho936 O956 2.322 . S
Ho936 O958 2.378 . S
Ho936 O959 2.524 . S
Ho936 O960 2.381 1_554 S
Ho936 O961 2.669 . S
Ho936 O963 2.346 . S
Ho936 O967 2.305 . S
Ho937 C948 2.811 1_455 S
Ho937 O957 2.346 . S
Ho937 O961 2.305 . S
Ho937 O962 2.322 . S
Ho937 O964 2.381 1_455 S
Ho937 O965 2.524 . S
Ho937 O966 2.381 . S
Ho937 O967 2.669 . S
C938 O956 1.259 . S
C938 O957 1.268 . S
C939 Ho936 2.811 . S
C939 C940 1.488 . S
C939 O958 1.215 . S
C939 O959 1.289 . S
C940 C939 1.488 . S
C940 C941 1.348 . S
C940 C945 1.413 . S
C941 C940 1.348 . S
C941 C942 1.442 . S
C941 H968 0.930 . S
C942 C941 1.442 . S
C942 C943 1.381 . S
C942 H969 0.931 . S
C943 C942 1.381 . S
C943 C944 1.288 1_554 S
C944 C943 1.288 1_556 S
C944 C945 1.397 1_556 S
C944 H970 0.975 . S
C945 C940 1.413 . S
C945 C944 1.397 1_554 S
C945 H971 0.930 1_554 S
C946 O960 1.275 1_554 S
C946 O961 1.256 . S
C947 O962 1.259 . S
C947 O963 1.268 . S
C948 Ho937 2.811 1_655 S
C948 C949 1.488 . S
C948 O964 1.214 . S
C948 O965 1.289 1_655 S
C949 C948 1.488 . S
C949 C950 1.348 . S
C949 C954 1.413 . S
C950 C949 1.348 . S
C950 C951 1.442 . S
C950 H972 0.930 . S
C951 C950 1.442 . S
C951 C952 1.381 . S
C951 H973 0.931 . S
C952 C951 1.381 . S
C952 C953 1.321 . S
C953 C952 1.321 . S
C953 C954 1.403 . S
C953 H974 0.934 . S
C954 C949 1.413 . S
C954 C953 1.403 . S
C954 H975 0.930 . S
C955 O966 1.275 . S
C955 O967 1.256 . S
O956 Ho936 2.322 . S
O956 C938 1.259 . S
O957 Ho937 2.346 . S
O957 C938 1.268 . S
O958 Ho936 2.378 . S
O958 C939 1.215 . S
O959 Ho936 2.524 . S
O959 C939 1.289 . S
O960 Ho936 2.381 1_556 S
O960 C946 1.275 1_556 S
O961 Ho936 2.669 . S
O961 Ho937 2.305 . S
O961 C946 1.256 . S
O962 Ho937 2.322 . S
O962 C947 1.259 . S
O963 Ho936 2.346 . S
O963 C947 1.268 . S
O964 Ho937 2.381 1_655 S
O964 C948 1.214 . S
O965 Ho937 2.524 . S
O965 C948 1.289 1_455 S
O966 Ho937 2.381 . S
O966 C955 1.275 . S
O967 Ho936 2.305 . S
O967 Ho937 2.669 . S
O967 C955 1.256 . S
H968 C941 0.930 . S
H969 C942 0.931 . S
H970 C944 0.975 . S
H971 C945 0.930 1_556 S
H972 C950 0.930 . S
H973 C951 0.931 . S
H974 C953 0.934 . S
H975 C954 0.930 . S
H976 C984 0.929 1_655 S
H977 C986 0.931 1_655 S
H978 C988 0.930 . S
H979 C991 0.929 . S
H980 C994 0.930 . S
H981 C996 0.960 1_554 S
H982 C996 0.960 . S
H983 C996 0.960 . S
C984 H976 0.929 1_455 S
C984 C985 1.377 . S
C984 C986 1.384 . S
C985 C984 1.377 . S
C985 C991 1.390 . S
C986 H977 0.931 1_455 S
C986 C984 1.384 . S
C986 C987 1.372 . S
C987 C986 1.372 . S
C987 C988 1.400 . S
C987 C992 1.490 . S
C988 H978 0.930 . S
C988 C987 1.400 . S
C988 C991 1.386 . S
H989 C1005 0.930 . S
H990 C1006 0.931 . S
C991 H979 0.929 . S
C991 C985 1.390 . S
C991 C988 1.386 . S
C992 C987 1.490 . S
C992 C994 1.395 . S
C992 C995 1.403 . S
H993 C999 0.930 . S
C994 H980 0.930 . S
C994 C992 1.395 . S
C994 C997 1.403 . S
C995 C992 1.403 . S
C995 C996 1.524 . S
C995 C999 1.400 . S
C996 H981 0.960 1_556 S
C996 H982 0.960 . S
C996 H983 0.960 . S
C996 C995 1.524 . S
C997 C994 1.403 . S
C997 C998 1.392 . S
C997 C1001 1.495 . S
C998 C997 1.392 . S
C998 C999 1.385 . S
C998 C1000 1.478 . S
C999 H993 0.930 . S
C999 C995 1.400 . S
C999 C998 1.385 . S
C1000 C998 1.478 . S
C1000 C1002 1.381 . S
C1000 C1006 1.383 . S
C1001 C997 1.495 . S
C1001 H1007 0.959 . S
C1001 H1008 0.961 . S
C1001 H1009 0.960 . S
C1002 C1000 1.381 . S
C1002 C1003 1.394 . S
C1002 H1010 0.930 . S
C1003 C1002 1.394 . S
C1003 C1004 1.366 1_556 S
C1003 H1011 0.929 . S
C1004 C1003 1.366 1_554 S
C1004 C1005 1.377 . S
C1005 H989 0.930 . S
C1005 C1004 1.377 . S
C1005 C1006 1.379 1_554 S
C1006 H990 0.931 . S
C1006 C1000 1.383 . S
C1006 C1005 1.379 1_556 S
H1007 C1001 0.959 . S
H1008 C1001 0.961 . S
H1009 C1001 0.960 . S
H1010 C1002 0.930 . S
H1011 C1003 0.929 . S
H1012 C1020 0.929 . S
H1013 C1022 0.930 . S
H1014 C1024 0.930 . S
H1015 C1027 0.929 . S
H1016 C1030 0.930 . S
H1017 C1032 0.960 . S
H1018 C1032 0.960 . S
H1019 C1032 0.960 . S
C1020 H1012 0.929 . S
C1020 C1021 1.377 . S
C1020 C1022 1.384 . S
C1021 C1020 1.377 . S
C1021 C1027 1.390 . S
C1022 H1013 0.930 . S
C1022 C1020 1.384 . S
C1022 C1023 1.372 . S
C1023 C1022 1.372 . S
C1023 C1024 1.400 . S
C1023 C1028 1.490 . S
C1024 H1014 0.930 . S
C1024 C1023 1.400 . S
C1024 C1027 1.386 . S
H1025 C1041 0.930 . S
H1026 C1042 0.931 . S
C1027 H1015 0.929 . S
C1027 C1021 1.390 . S
C1027 C1024 1.386 . S
C1028 C1023 1.490 . S
C1028 C1030 1.395 . S
C1028 C1031 1.403 . S
H1029 C1035 0.930 . S
C1030 H1016 0.930 . S
C1030 C1028 1.395 . S
C1030 C1033 1.403 . S
C1031 C1028 1.403 . S
C1031 C1032 1.524 . S
C1031 C1035 1.400 . S
C1032 H1017 0.960 . S
C1032 H1018 0.960 . S
C1032 H1019 0.960 . S
C1032 C1031 1.524 . S
C1033 C1030 1.403 . S
C1033 C1034 1.392 . S
C1033 C1037 1.495 . S
C1034 C1033 1.392 . S
C1034 C1035 1.385 . S
C1034 C1036 1.478 . S
C1035 H1029 0.930 . S
C1035 C1031 1.400 . S
C1035 C1034 1.385 . S
C1036 C1034 1.478 . S
C1036 C1038 1.381 . S
C1036 C1042 1.383 . S
C1037 C1033 1.495 . S
C1037 H1043 0.959 . S
C1037 H1044 0.961 . S
C1037 H1045 0.960 . S
C1038 C1036 1.381 . S
C1038 C1039 1.394 . S
C1038 H1046 0.930 . S
C1039 C1038 1.394 . S
C1039 C1040 1.383 . S
C1039 H1047 0.929 . S
C1040 C1039 1.383 . S
C1040 C1041 1.377 . S
C1041 H1025 0.930 . S
C1041 C1040 1.377 . S
C1041 C1042 1.379 . S
C1042 H1026 0.931 . S
C1042 C1036 1.383 . S
C1042 C1041 1.379 . S
H1043 C1037 0.959 . S
H1044 C1037 0.961 . S
H1045 C1037 0.960 . S
H1046 C1038 0.930 . S
H1047 C1039 0.929 . S
H1048 C1056 0.929 . S
H1049 C1058 0.930 . S
H1050 C1060 0.930 . S
H1051 C1063 0.929 . S
H1052 C1066 0.930 . S
H1053 C1068 0.960 . S
H1054 C1068 0.960 . S
H1055 C1068 0.960 . S
C1056 H1048 0.929 . S
C1056 C1057 1.377 . S
C1056 C1058 1.384 . S
C1057 C1056 1.377 . S
C1057 C1063 1.390 . S
C1058 H1049 0.930 . S
C1058 C1056 1.384 . S
C1058 C1059 1.372 . S
C1059 C1058 1.372 . S
C1059 C1060 1.400 . S
C1059 C1064 1.490 . S
C1060 H1050 0.930 . S
C1060 C1059 1.400 . S
C1060 C1063 1.386 . S
H1061 C1077 0.930 . S
H1062 C1078 0.931 . S
C1063 H1051 0.929 . S
C1063 C1057 1.390 . S
C1063 C1060 1.386 . S
C1064 C1059 1.490 . S
C1064 C1066 1.395 . S
C1064 C1067 1.403 . S
H1065 C1071 0.930 . S
C1066 H1052 0.930 . S
C1066 C1064 1.395 . S
C1066 C1069 1.403 . S
C1067 C1064 1.403 . S
C1067 C1068 1.524 . S
C1067 C1071 1.400 . S
C1068 H1053 0.960 . S
C1068 H1054 0.960 . S
C1068 H1055 0.960 . S
C1068 C1067 1.524 . S
C1069 C1066 1.403 . S
C1069 C1070 1.392 . S
C1069 C1073 1.495 . S
C1070 C1069 1.392 . S
C1070 C1071 1.385 . S
C1070 C1072 1.478 . S
C1071 H1065 0.930 . S
C1071 C1067 1.400 . S
C1071 C1070 1.385 . S
C1072 C1070 1.478 . S
C1072 C1074 1.381 . S
C1072 C1078 1.383 . S
C1073 C1069 1.495 . S
C1073 H1079 0.959 . S
C1073 H1080 0.961 . S
C1073 H1081 0.960 . S
C1074 C1072 1.381 . S
C1074 C1075 1.394 . S
C1074 H1082 0.930 . S
C1075 C1074 1.394 . S
C1075 C1076 1.383 . S
C1075 H1083 0.929 . S
C1076 C1075 1.383 . S
C1076 C1077 1.377 . S
C1077 H1061 0.930 . S
C1077 C1076 1.377 . S
C1077 C1078 1.379 . S
C1078 H1062 0.931 . S
C1078 C1072 1.383 . S
C1078 C1077 1.379 . S
H1079 C1073 0.959 . S
H1080 C1073 0.961 . S
H1081 C1073 0.960 . S
H1082 C1074 0.930 . S
H1083 C1075 0.929 . S
H1084 C1092 0.929 . S
H1085 C1094 0.930 . S
H1086 C1096 0.930 . S
H1087 C1099 0.929 . S
H1088 C1102 0.930 . S
H1089 C1104 0.960 . S
H1090 C1104 0.960 . S
H1091 C1104 0.960 . S
C1092 H1084 0.929 . S
C1092 C1093 1.377 . S
C1092 C1094 1.384 . S
C1093 C1092 1.377 . S
C1093 C1099 1.390 . S
C1094 H1085 0.930 . S
C1094 C1092 1.384 . S
C1094 C1095 1.372 . S
C1095 C1094 1.372 . S
C1095 C1096 1.400 . S
C1095 C1100 1.490 . S
C1096 H1086 0.930 . S
C1096 C1095 1.400 . S
C1096 C1099 1.386 . S
H1097 C1113 0.930 . S
H1098 C1114 0.931 . S
C1099 H1087 0.929 . S
C1099 C1093 1.390 . S
C1099 C1096 1.386 . S
C1100 C1095 1.490 . S
C1100 C1102 1.395 . S
C1100 C1103 1.403 . S
H1101 C1107 0.930 . S
C1102 H1088 0.930 . S
C1102 C1100 1.395 . S
C1102 C1105 1.403 . S
C1103 C1100 1.403 . S
C1103 C1104 1.524 . S
C1103 C1107 1.400 . S
C1104 H1089 0.960 . S
C1104 H1090 0.960 . S
C1104 H1091 0.960 . S
C1104 C1103 1.524 . S
C1105 C1102 1.403 . S
C1105 C1106 1.392 . S
C1105 C1109 1.495 . S
C1106 C1105 1.392 . S
C1106 C1107 1.385 . S
C1106 C1108 1.478 . S
C1107 H1101 0.930 . S
C1107 C1103 1.400 . S
C1107 C1106 1.385 . S
C1108 C1106 1.478 . S
C1108 C1110 1.381 . S
C1108 C1114 1.383 . S
C1109 C1105 1.495 . S
C1109 H1115 0.959 . S
C1109 H1116 0.961 . S
C1109 H1117 0.960 . S
C1110 C1108 1.381 . S
C1110 C1111 1.394 . S
C1110 H1118 0.930 . S
C1111 C1110 1.394 . S
C1111 C1112 1.383 . S
C1111 H1119 0.929 . S
C1112 C1111 1.383 . S
C1112 C1113 1.377 . S
C1113 H1097 0.930 . S
C1113 C1112 1.377 . S
C1113 C1114 1.379 . S
C1114 H1098 0.931 . S
C1114 C1108 1.383 . S
C1114 C1113 1.379 . S
H1115 C1109 0.959 . S
H1116 C1109 0.961 . S
H1117 C1109 0.960 . S
H1118 C1110 0.930 . S
H1119 C1111 0.929 . S
H1120 C1128 0.929 . S
H1121 C1130 0.930 . S
H1122 C1132 0.930 1_655 S
H1123 C1135 0.869 1_655 S
H1124 C1138 0.930 . S
H1125 C1140 0.960 . S
H1126 C1140 0.960 . S
H1127 C1140 0.960 . S
C1128 H1120 0.929 . S
C1128 C1129 1.377 . S
C1128 C1130 1.384 . S
C1129 C1128 1.377 . S
C1129 C1135 1.439 . S
C1130 H1121 0.930 . S
C1130 C1128 1.384 . S
C1130 C1131 1.372 . S
C1131 C1130 1.372 . S
C1131 C1132 1.400 . S
C1131 C1136 1.490 . S
C1132 H1122 0.930 1_455 S
C1132 C1131 1.400 . S
C1132 C1135 1.399 . S
H1133 C1149 0.930 . S
H1134 C1150 0.931 . S
C1135 H1123 0.869 1_455 S
C1135 C1129 1.439 . S
C1135 C1132 1.399 . S
C1136 C1131 1.490 . S
C1136 C1138 1.395 . S
C1136 C1139 1.403 . S
H1137 C1143 0.930 . S
C1138 H1124 0.930 . S
C1138 C1136 1.395 . S
C1138 C1141 1.403 . S
C1139 C1136 1.403 . S
C1139 C1140 1.524 . S
C1139 C1143 1.400 . S
C1140 H1125 0.960 . S
C1140 H1126 0.960 . S
C1140 H1127 0.960 . S
C1140 C1139 1.524 . S
C1141 C1138 1.403 . S
C1141 C1142 1.392 . S
C1141 C1145 1.495 . S
C1142 C1141 1.392 . S
C1142 C1143 1.385 . S
C1142 C1144 1.478 . S
C1143 H1137 0.930 . S
C1143 C1139 1.400 . S
C1143 C1142 1.385 . S
C1144 C1142 1.478 . S
C1144 C1146 1.381 . S
C1144 C1150 1.383 . S
C1145 C1141 1.495 . S
C1145 H1151 0.959 . S
C1145 H1152 0.961 . S
C1145 H1153 0.960 . S
C1146 C1144 1.381 . S
C1146 C1147 1.394 . S
C1146 H1154 0.930 . S
C1147 C1146 1.394 . S
C1147 C1148 1.383 . S
C1147 H1155 0.929 . S
C1148 C1147 1.383 . S
C1148 C1149 1.377 . S
C1149 H1133 0.930 . S
C1149 C1148 1.377 . S
C1149 C1150 1.379 . S
C1150 H1134 0.931 . S
C1150 C1144 1.383 . S
C1150 C1149 1.379 . S
H1151 C1145 0.959 . S
H1152 C1145 0.961 . S
H1153 C1145 0.960 . S
H1154 C1146 0.930 . S
H1155 C1147 0.929 . S
H1156 C1164 0.929 . S
H1157 C1166 0.930 . S
H1158 C1168 0.930 . S
H1159 C1171 0.929 . S
H1160 C1174 0.930 . S
H1161 C1176 0.960 . S
H1162 C1176 0.960 . S
H1163 C1176 0.960 . S
C1164 H1156 0.929 . S
C1164 C1165 1.377 . S
C1164 C1166 1.384 . S
C1165 C1164 1.377 . S
C1165 C1171 1.390 . S
C1166 H1157 0.930 . S
C1166 C1164 1.384 . S
C1166 C1167 1.372 . S
C1167 C1166 1.372 . S
C1167 C1168 1.400 . S
C1167 C1172 1.490 . S
C1168 H1158 0.930 . S
C1168 C1167 1.400 . S
C1168 C1171 1.386 . S
H1169 C1185 0.930 . S
H1170 C1186 0.931 . S
C1171 H1159 0.929 . S
C1171 C1165 1.390 . S
C1171 C1168 1.386 . S
C1172 C1167 1.490 . S
C1172 C1174 1.395 . S
C1172 C1175 1.403 . S
H1173 C1179 0.930 . S
C1174 H1160 0.930 . S
C1174 C1172 1.395 . S
C1174 C1177 1.403 . S
C1175 C1172 1.403 . S
C1175 C1176 1.524 . S
C1175 C1179 1.400 . S
C1176 H1161 0.960 . S
C1176 H1162 0.960 . S
C1176 H1163 0.960 . S
C1176 C1175 1.524 . S
C1177 C1174 1.403 . S
C1177 C1178 1.392 . S
C1177 C1181 1.495 . S
C1178 C1177 1.392 . S
C1178 C1179 1.385 . S
C1178 C1180 1.478 . S
C1179 H1173 0.930 . S
C1179 C1175 1.400 . S
C1179 C1178 1.385 . S
C1180 C1178 1.478 . S
C1180 C1182 1.381 . S
C1180 C1186 1.383 . S
C1181 C1177 1.495 . S
C1181 H1187 0.959 . S
C1181 H1188 0.961 . S
C1181 H1189 0.960 . S
C1182 C1180 1.381 . S
C1182 C1183 1.394 . S
C1182 H1190 0.930 . S
C1183 C1182 1.394 . S
C1183 C1184 1.383 . S
C1183 H1191 0.929 . S
C1184 C1183 1.383 . S
C1184 C1185 1.377 . S
C1185 H1169 0.930 . S
C1185 C1184 1.377 . S
C1185 C1186 1.379 . S
C1186 H1170 0.931 . S
C1186 C1180 1.383 . S
C1186 C1185 1.379 . S
H1187 C1181 0.959 . S
H1188 C1181 0.961 . S
H1189 C1181 0.960 . S
H1190 C1182 0.930 . S
H1191 C1183 0.929 . S
H1192 C1200 0.929 . S
H1193 C1202 0.930 . S
H1194 C1204 0.930 . S
H1195 C1207 0.929 . S
H1196 C1210 0.930 . S
H1197 C1212 0.960 . S
H1198 C1212 0.960 . S
H1199 C1212 0.960 . S
C1200 H1192 0.929 . S
C1200 C1201 1.377 . S
C1200 C1202 1.384 . S
C1201 C1200 1.377 . S
C1201 C1207 1.390 . S
C1202 H1193 0.930 . S
C1202 C1200 1.384 . S
C1202 C1203 1.372 . S
C1203 C1202 1.372 . S
C1203 C1204 1.400 . S
C1203 C1208 1.490 . S
C1204 H1194 0.930 . S
C1204 C1203 1.400 . S
C1204 C1207 1.386 . S
H1205 C1221 0.930 . S
H1206 C1222 0.931 . S
C1207 H1195 0.929 . S
C1207 C1201 1.390 . S
C1207 C1204 1.386 . S
C1208 C1203 1.490 . S
C1208 C1210 1.395 . S
C1208 C1211 1.403 . S
H1209 C1215 0.930 . S
C1210 H1196 0.930 . S
C1210 C1208 1.395 . S
C1210 C1213 1.403 . S
C1211 C1208 1.403 . S
C1211 C1212 1.524 . S
C1211 C1215 1.400 . S
C1212 H1197 0.960 . S
C1212 H1198 0.960 . S
C1212 H1199 0.960 . S
C1212 C1211 1.524 . S
C1213 C1210 1.403 . S
C1213 C1214 1.392 . S
C1213 C1217 1.495 . S
C1214 C1213 1.392 . S
C1214 C1215 1.385 . S
C1214 C1216 1.478 . S
C1215 H1209 0.930 . S
C1215 C1211 1.400 . S
C1215 C1214 1.385 . S
C1216 C1214 1.478 . S
C1216 C1218 1.381 . S
C1216 C1222 1.383 . S
C1217 C1213 1.495 . S
C1217 H1223 0.959 . S
C1217 H1224 0.961 . S
C1217 H1225 0.960 . S
C1218 C1216 1.381 . S
C1218 C1219 1.394 . S
C1218 H1226 0.930 . S
C1219 C1218 1.394 . S
C1219 C1220 1.383 . S
C1219 H1227 0.929 . S
C1220 C1219 1.383 . S
C1220 C1221 1.377 . S
C1221 H1205 0.930 . S
C1221 C1220 1.377 . S
C1221 C1222 1.379 . S
C1222 H1206 0.931 . S
C1222 C1216 1.383 . S
C1222 C1221 1.379 . S
H1223 C1217 0.959 . S
H1224 C1217 0.961 . S
H1225 C1217 0.960 . S
H1226 C1218 0.930 . S
H1227 C1219 0.929 . S
H1228 C1236 0.929 . S
H1229 C1238 0.930 . S
H1230 C1240 0.930 . S
H1231 C1243 0.929 . S
H1232 C1246 0.930 . S
H1233 C1248 0.960 . S
H1234 C1248 0.960 . S
H1235 C1248 0.960 . S
C1236 H1228 0.929 . S
C1236 C1237 1.377 . S
C1236 C1238 1.384 . S
C1237 C1236 1.377 . S
C1237 C1243 1.390 . S
C1238 H1229 0.930 . S
C1238 C1236 1.384 . S
C1238 C1239 1.372 . S
C1239 C1238 1.372 . S
C1239 C1240 1.400 . S
C1239 C1244 1.490 . S
C1240 H1230 0.930 . S
C1240 C1239 1.400 . S
C1240 C1243 1.386 . S
H1241 C1257 0.930 . S
H1242 C1258 0.931 . S
C1243 H1231 0.929 . S
C1243 C1237 1.390 . S
C1243 C1240 1.386 . S
C1244 C1239 1.490 . S
C1244 C1246 1.395 . S
C1244 C1247 1.403 . S
H1245 C1251 0.930 . S
C1246 H1232 0.930 . S
C1246 C1244 1.395 . S
C1246 C1249 1.403 . S
C1247 C1244 1.403 . S
C1247 C1248 1.524 . S
C1247 C1251 1.400 . S
C1248 H1233 0.960 . S
C1248 H1234 0.960 . S
C1248 H1235 0.960 . S
C1248 C1247 1.524 . S
C1249 C1246 1.403 . S
C1249 C1250 1.392 . S
C1249 C1253 1.495 . S
C1250 C1249 1.392 . S
C1250 C1251 1.385 . S
C1250 C1252 1.478 . S
C1251 H1245 0.930 . S
C1251 C1247 1.400 . S
C1251 C1250 1.385 . S
C1252 C1250 1.478 . S
C1252 C1254 1.381 . S
C1252 C1258 1.383 . S
C1253 C1249 1.495 . S
C1253 H1259 0.959 . S
C1253 H1260 0.961 . S
C1253 H1261 0.960 . S
C1254 C1252 1.381 . S
C1254 C1255 1.394 . S
C1254 H1262 0.930 . S
C1255 C1254 1.394 . S
C1255 C1256 1.383 . S
C1255 H1263 0.929 . S
C1256 C1255 1.383 . S
C1256 C1257 1.377 . S
C1257 H1241 0.930 . S
C1257 C1256 1.377 . S
C1257 C1258 1.379 . S
C1258 H1242 0.931 . S
C1258 C1252 1.383 . S
C1258 C1257 1.379 . S
H1259 C1253 0.959 . S
H1260 C1253 0.961 . S
H1261 C1253 0.960 . S
H1262 C1254 0.930 . S
H1263 C1255 0.929 . S
H1264 C1272 0.929 . S
H1265 C1274 0.930 . S
H1266 C1276 0.930 . S
H1267 C1279 0.929 . S
H1268 C1282 0.930 . S
H1269 C1284 0.960 . S
H1270 C1284 0.960 . S
H1271 C1284 0.960 . S
C1272 H1264 0.929 . S
C1272 C1273 1.377 . S
C1272 C1274 1.384 . S
C1273 C1272 1.377 . S
C1273 C1279 1.390 . S
C1274 H1265 0.930 . S
C1274 C1272 1.384 . S
C1274 C1275 1.372 . S
C1275 C1274 1.372 . S
C1275 C1276 1.400 . S
C1275 C1280 1.490 . S
C1276 H1266 0.930 . S
C1276 C1275 1.400 . S
C1276 C1279 1.386 . S
H1277 C1293 0.930 . S
H1278 C1294 0.931 . S
C1279 H1267 0.929 . S
C1279 C1273 1.390 . S
C1279 C1276 1.386 . S
C1280 C1275 1.490 . S
C1280 C1282 1.395 . S
C1280 C1283 1.403 . S
H1281 C1287 0.930 . S
C1282 H1268 0.930 . S
C1282 C1280 1.395 . S
C1282 C1285 1.406 . S
C1283 C1280 1.403 . S
C1283 C1284 1.524 . S
C1283 C1287 1.400 . S
C1284 H1269 0.960 . S
C1284 H1270 0.960 . S
C1284 H1271 0.960 . S
C1284 C1283 1.524 . S
C1285 C1282 1.406 . S
C1285 C1286 1.393 1_655 S
C1285 C1289 1.494 1_655 S
C1286 C1285 1.393 1_455 S
C1286 C1287 1.387 1_455 S
C1286 C1288 1.474 . S
C1287 H1281 0.930 . S
C1287 C1283 1.400 . S
C1287 C1286 1.387 1_655 S
C1288 C1286 1.474 . S
C1288 C1290 1.381 . S
C1288 C1294 1.383 . S
C1289 C1285 1.494 1_455 S
C1289 H1295 0.959 . S
C1289 H1296 0.961 . S
C1289 H1297 0.960 . S
C1290 C1288 1.381 . S
C1290 C1291 1.394 . S
C1290 H1298 0.930 1_455 S
C1291 C1290 1.394 . S
C1291 C1292 1.383 . S
C1291 H1299 0.929 . S
C1292 C1291 1.383 . S
C1292 C1293 1.377 . S
C1293 H1277 0.930 . S
C1293 C1292 1.377 . S
C1293 C1294 1.379 . S
C1294 H1278 0.931 . S
C1294 C1288 1.383 . S
C1294 C1293 1.379 . S
H1295 C1289 0.959 . S
H1296 C1289 0.961 . S
H1297 C1289 0.960 . S
H1298 C1290 0.930 1_655 S
H1299 C1291 0.929 . S
H1300 C1308 0.929 . S
H1301 C1310 0.930 . S
H1302 C1312 0.930 . S
H1303 C1315 0.929 . S
H1304 C1318 0.930 . S
H1305 C1320 0.960 . S
H1306 C1320 0.960 . S
H1307 C1320 0.960 . S
C1308 H1300 0.929 . S
C1308 C1309 1.377 . S
C1308 C1310 1.384 . S
C1309 C1308 1.377 . S
C1309 C1315 1.390 . S
C1310 H1301 0.930 . S
C1310 C1308 1.384 . S
C1310 C1311 1.372 . S
C1311 C1310 1.372 . S
C1311 C1312 1.400 . S
C1311 C1316 1.490 . S
C1312 H1302 0.930 . S
C1312 C1311 1.400 . S
C1312 C1315 1.386 . S
H1313 C1329 0.930 . S
H1314 C1330 0.931 . S
C1315 H1303 0.929 . S
C1315 C1309 1.390 . S
C1315 C1312 1.386 . S
C1316 C1311 1.490 . S
C1316 C1318 1.395 . S
C1316 C1319 1.403 . S
H1317 C1323 0.930 . S
C1318 H1304 0.930 . S
C1318 C1316 1.395 . S
C1318 C1321 1.403 . S
C1319 C1316 1.403 . S
C1319 C1320 1.524 . S
C1319 C1323 1.400 . S
C1320 H1305 0.960 . S
C1320 H1306 0.960 . S
C1320 H1307 0.960 . S
C1320 C1319 1.524 . S
C1321 C1318 1.403 . S
C1321 C1322 1.392 . S
C1321 C1325 1.495 . S
C1322 C1321 1.392 . S
C1322 C1323 1.385 . S
C1322 C1324 1.478 . S
C1323 H1317 0.930 . S
C1323 C1319 1.400 . S
C1323 C1322 1.385 . S
C1324 C1322 1.478 . S
C1324 C1326 1.381 . S
C1324 C1330 1.383 . S
C1325 C1321 1.495 . S
C1325 H1331 0.959 . S
C1325 H1332 0.961 . S
C1325 H1333 0.960 . S
C1326 C1324 1.381 . S
C1326 C1327 1.394 . S
C1326 H1334 0.930 . S
C1327 C1326 1.394 . S
C1327 C1328 1.383 . S
C1327 H1335 0.929 . S
C1328 C1327 1.383 . S
C1328 C1329 1.377 . S
C1329 H1313 0.930 . S
C1329 C1328 1.377 . S
C1329 C1330 1.379 . S
C1330 H1314 0.931 . S
C1330 C1324 1.383 . S
C1330 C1329 1.379 . S
H1331 C1325 0.959 . S
H1332 C1325 0.961 . S
H1333 C1325 0.960 . S
H1334 C1326 0.930 . S
H1335 C1327 0.929 . S
H1336 C1344 0.929 . S
H1337 C1346 0.930 . S
H1338 C1348 0.930 . S
H1339 C1351 0.929 . S
H1340 C1354 0.930 . S
H1341 C1356 0.960 . S
H1342 C1356 0.960 . S
H1343 C1356 0.960 . S
C1344 H1336 0.929 . S
C1344 C1345 1.377 . S
C1344 C1346 1.384 . S
C1345 C1344 1.377 . S
C1345 C1351 1.390 . S
C1346 H1337 0.930 . S
C1346 C1344 1.384 . S
C1346 C1347 1.372 . S
C1347 C1346 1.372 . S
C1347 C1348 1.400 . S
C1347 C1352 1.490 . S
C1348 H1338 0.930 . S
C1348 C1347 1.400 . S
C1348 C1351 1.386 . S
H1349 C1365 0.930 . S
H1350 C1366 0.931 . S
C1351 H1339 0.929 . S
C1351 C1345 1.390 . S
C1351 C1348 1.386 . S
C1352 C1347 1.490 . S
C1352 C1354 1.395 . S
C1352 C1355 1.403 . S
H1353 C1359 0.930 . S
C1354 H1340 0.930 . S
C1354 C1352 1.395 . S
C1354 C1357 1.403 . S
C1355 C1352 1.403 . S
C1355 C1356 1.524 . S
C1355 C1359 1.400 . S
C1356 H1341 0.960 . S
C1356 H1342 0.960 . S
C1356 H1343 0.960 . S
C1356 C1355 1.524 . S
C1357 C1354 1.403 . S
C1357 C1358 1.392 . S
C1357 C1361 1.495 . S
C1358 C1357 1.392 . S
C1358 C1359 1.385 . S
C1358 C1360 1.478 . S
C1359 H1353 0.930 . S
C1359 C1355 1.400 . S
C1359 C1358 1.385 . S
C1360 C1358 1.478 . S
C1360 C1362 1.381 . S
C1360 C1366 1.383 . S
C1361 C1357 1.495 . S
C1361 H1367 0.959 . S
C1361 H1368 0.961 . S
C1361 H1369 0.960 . S
C1362 C1360 1.381 . S
C1362 C1363 1.394 . S
C1362 H1370 0.930 . S
C1363 C1362 1.394 . S
C1363 C1364 1.383 . S
C1363 H1371 0.929 . S
C1364 C1363 1.383 . S
C1364 C1365 1.377 . S
C1365 H1349 0.930 . S
C1365 C1364 1.377 . S
C1365 C1366 1.379 . S
C1366 H1350 0.931 . S
C1366 C1360 1.383 . S
C1366 C1365 1.379 . S
H1367 C1361 0.959 . S
H1368 C1361 0.961 . S
H1369 C1361 0.960 . S
H1370 C1362 0.930 . S
H1371 C1363 0.929 . S
H1372 C1380 0.929 . S
H1373 C1382 0.930 . S
H1374 C1384 0.930 . S
H1375 C1387 0.929 . S
H1376 C1390 0.930 . S
H1377 C1392 0.960 . S
H1378 C1392 0.960 . S
H1379 C1392 0.960 . S
C1380 H1372 0.929 . S
C1380 C1381 1.377 . S
C1380 C1382 1.384 . S
C1381 C1380 1.377 . S
C1381 C1387 1.390 . S
C1382 H1373 0.930 . S
C1382 C1380 1.384 . S
C1382 C1383 1.372 . S
C1383 C1382 1.372 . S
C1383 C1384 1.400 . S
C1383 C1388 1.490 . S
C1384 H1374 0.930 . S
C1384 C1383 1.400 . S
C1384 C1387 1.386 . S
H1385 C1401 0.930 . S
H1386 C1402 0.931 . S
C1387 H1375 0.929 . S
C1387 C1381 1.390 . S
C1387 C1384 1.386 . S
C1388 C1383 1.490 . S
C1388 C1390 1.395 . S
C1388 C1391 1.403 . S
H1389 C1395 0.930 . S
C1390 H1376 0.930 . S
C1390 C1388 1.395 . S
C1390 C1393 1.403 . S
C1391 C1388 1.403 . S
C1391 C1392 1.524 . S
C1391 C1395 1.400 . S
C1392 H1377 0.960 . S
C1392 H1378 0.960 . S
C1392 H1379 0.960 . S
C1392 C1391 1.524 . S
C1393 C1390 1.403 . S
C1393 C1394 1.392 . S
C1393 C1397 1.495 . S
C1394 C1393 1.392 . S
C1394 C1395 1.385 . S
C1394 C1396 1.478 . S
C1395 H1389 0.930 . S
C1395 C1391 1.400 . S
C1395 C1394 1.385 . S
C1396 C1394 1.478 . S
C1396 C1398 1.381 . S
C1396 C1402 1.383 . S
C1397 C1393 1.495 . S
C1397 H1403 0.959 . S
C1397 H1404 0.961 . S
C1397 H1405 0.960 . S
C1398 C1396 1.381 . S
C1398 C1399 1.394 . S
C1398 H1406 0.930 . S
C1399 C1398 1.394 . S
C1399 C1400 1.383 . S
C1399 H1407 0.929 . S
C1400 C1399 1.383 . S
C1400 C1401 1.377 . S
C1401 H1385 0.930 . S
C1401 C1400 1.377 . S
C1401 C1402 1.379 . S
C1402 H1386 0.931 . S
C1402 C1396 1.383 . S
C1402 C1401 1.379 . S
H1403 C1397 0.959 . S
H1404 C1397 0.961 . S
H1405 C1397 0.960 . S
H1406 C1398 0.930 . S
H1407 C1399 0.929 . S
H1408 C1416 0.929 . S
H1409 C1418 0.930 . S
H1410 C1420 0.930 . S
H1411 C1423 0.929 . S
H1412 C1426 0.930 . S
H1413 C1428 0.960 . S
H1414 C1428 0.960 . S
H1415 C1428 0.960 . S
C1416 H1408 0.929 . S
C1416 C1417 1.377 . S
C1416 C1418 1.384 . S
C1417 C1416 1.377 . S
C1417 C1423 1.390 . S
C1418 H1409 0.930 . S
C1418 C1416 1.384 . S
C1418 C1419 1.372 . S
C1419 C1418 1.372 . S
C1419 C1420 1.400 . S
C1419 C1424 1.490 . S
C1420 H1410 0.930 . S
C1420 C1419 1.400 . S
C1420 C1423 1.386 . S
H1421 C1437 0.930 . S
H1422 C1438 0.931 . S
C1423 H1411 0.929 . S
C1423 C1417 1.390 . S
C1423 C1420 1.386 . S
C1424 C1419 1.490 . S
C1424 C1426 1.395 1_655 S
C1424 C1427 1.403 . S
H1425 C1431 0.930 . S
C1426 H1412 0.930 . S
C1426 C1424 1.395 1_455 S
C1426 C1429 1.403 . S
C1427 C1424 1.403 . S
C1427 C1428 1.524 . S
C1427 C1431 1.400 . S
C1428 H1413 0.960 . S
C1428 H1414 0.960 . S
C1428 H1415 0.960 . S
C1428 C1427 1.524 . S
C1429 C1426 1.403 . S
C1429 C1430 1.392 . S
C1429 C1433 1.495 . S
C1430 C1429 1.392 . S
C1430 C1431 1.385 1_455 S
C1430 C1432 1.478 . S
C1431 H1425 0.930 . S
C1431 C1427 1.400 . S
C1431 C1430 1.385 1_655 S
C1432 C1430 1.478 . S
C1432 C1434 1.381 . S
C1432 C1438 1.383 . S
C1433 C1429 1.495 . S
C1433 H1439 0.959 . S
C1433 H1440 0.961 . S
C1433 H1441 0.960 . S
C1434 C1432 1.381 . S
C1434 C1435 1.394 . S
C1434 H1442 0.930 . S
C1435 C1434 1.394 . S
C1435 C1436 1.383 . S
C1435 H1443 0.929 . S
C1436 C1435 1.383 . S
C1436 C1437 1.377 . S
C1437 H1421 0.930 . S
C1437 C1436 1.377 . S
C1437 C1438 1.379 . S
C1438 H1422 0.931 . S
C1438 C1432 1.383 . S
C1438 C1437 1.379 . S
H1439 C1433 0.959 . S
H1440 C1433 0.961 . S
H1441 C1433 0.960 . S
H1442 C1434 0.930 . S
H1443 C1435 0.929 . S
H1444 C1452 0.929 . S
H1445 C1454 0.930 . S
H1446 C1456 0.930 . S
H1447 C1459 0.929 . S
H1448 C1462 0.930 . S
H1449 C1464 0.960 . S
H1450 C1464 0.960 . S
H1451 C1464 0.960 . S
C1452 H1444 0.929 . S
C1452 C1453 1.377 . S
C1452 C1454 1.384 . S
C1453 C1452 1.377 . S
C1453 C1459 1.390 . S
C1454 H1445 0.930 . S
C1454 C1452 1.384 . S
C1454 C1455 1.372 . S
C1455 C1454 1.372 . S
C1455 C1456 1.400 . S
C1455 C1460 1.490 . S
C1456 H1446 0.930 . S
C1456 C1455 1.400 . S
C1456 C1459 1.386 . S
H1457 C1473 0.930 . S
H1458 C1474 0.931 . S
C1459 H1447 0.929 . S
C1459 C1453 1.390 . S
C1459 C1456 1.386 . S
C1460 C1455 1.490 . S
C1460 C1462 1.395 . S
C1460 C1463 1.403 . S
H1461 C1467 0.930 . S
C1462 H1448 0.930 . S
C1462 C1460 1.395 . S
C1462 C1465 1.403 . S
C1463 C1460 1.403 . S
C1463 C1464 1.524 . S
C1463 C1467 1.400 . S
C1464 H1449 0.960 . S
C1464 H1450 0.960 . S
C1464 H1451 0.960 . S
C1464 C1463 1.524 . S
C1465 C1462 1.403 . S
C1465 C1466 1.392 . S
C1465 C1469 1.495 . S
C1466 C1465 1.392 . S
C1466 C1467 1.385 . S
C1466 C1468 1.478 . S
C1467 H1461 0.930 . S
C1467 C1463 1.400 . S
C1467 C1466 1.385 . S
C1468 C1466 1.478 . S
C1468 C1470 1.381 . S
C1468 C1474 1.383 . S
C1469 C1465 1.495 . S
C1469 H1475 0.959 . S
C1469 H1476 0.961 . S
C1469 H1477 0.960 . S
C1470 C1468 1.381 . S
C1470 C1471 1.394 . S
C1470 H1478 0.930 . S
C1471 C1470 1.394 . S
C1471 C1472 1.383 . S
C1471 H1479 0.929 . S
C1472 C1471 1.383 . S
C1472 C1473 1.377 . S
C1473 H1457 0.930 . S
C1473 C1472 1.377 . S
C1473 C1474 1.379 . S
C1474 H1458 0.931 . S
C1474 C1468 1.383 . S
C1474 C1473 1.379 . S
H1475 C1469 0.959 . S
H1476 C1469 0.961 . S
H1477 C1469 0.960 . S
H1478 C1470 0.930 . S
H1479 C1471 0.929 . S
H1480 C1488 0.929 . S
H1481 C1490 0.930 . S
H1482 C1492 0.930 . S
H1483 C1495 0.929 . S
H1484 C1498 0.930 . S
H1485 C1500 0.960 . S
H1486 C1500 0.960 . S
H1487 C1500 0.960 . S
C1488 H1480 0.929 . S
C1488 C1489 1.377 . S
C1488 C1490 1.384 . S
C1489 C1488 1.377 . S
C1489 C1495 1.390 . S
C1490 H1481 0.930 . S
C1490 C1488 1.384 . S
C1490 C1491 1.372 . S
C1491 C1490 1.372 . S
C1491 C1492 1.400 . S
C1491 C1496 1.490 . S
C1492 H1482 0.930 . S
C1492 C1491 1.400 . S
C1492 C1495 1.386 . S
H1493 C1509 0.930 . S
H1494 C1510 0.931 . S
C1495 H1483 0.929 . S
C1495 C1489 1.390 . S
C1495 C1492 1.386 . S
C1496 C1491 1.490 . S
C1496 C1498 1.395 . S
C1496 C1499 1.403 . S
H1497 C1503 0.930 . S
C1498 H1484 0.930 . S
C1498 C1496 1.395 . S
C1498 C1501 1.403 . S
C1499 C1496 1.403 . S
C1499 C1500 1.524 . S
C1499 C1503 1.400 . S
C1500 H1485 0.960 . S
C1500 H1486 0.960 . S
C1500 H1487 0.960 . S
C1500 C1499 1.524 . S
C1501 C1498 1.403 . S
C1501 C1502 1.392 . S
C1501 C1505 1.495 . S
C1502 C1501 1.392 . S
C1502 C1503 1.385 . S
C1502 C1504 1.478 . S
C1503 H1497 0.930 . S
C1503 C1499 1.400 . S
C1503 C1502 1.385 . S
C1504 C1502 1.478 . S
C1504 C1506 1.381 . S
C1504 C1510 1.383 . S
C1505 C1501 1.495 . S
C1505 H1511 0.959 . S
C1505 H1512 0.961 . S
C1505 H1513 0.960 . S
C1506 C1504 1.381 . S
C1506 C1507 1.394 . S
C1506 H1514 0.930 . S
C1507 C1506 1.394 . S
C1507 C1508 1.383 . S
C1507 H1515 0.929 . S
C1508 C1507 1.383 . S
C1508 C1509 1.377 . S
C1509 H1493 0.930 . S
C1509 C1508 1.377 . S
C1509 C1510 1.379 . S
C1510 H1494 0.931 . S
C1510 C1504 1.383 . S
C1510 C1509 1.379 . S
H1511 C1505 0.959 . S
H1512 C1505 0.961 . S
H1513 C1505 0.960 . S
H1514 C1506 0.930 . S
H1515 C1507 0.929 . S
H1516 C1524 0.929 . S
H1517 C1526 0.930 . S
H1518 C1528 0.930 . S
H1519 C1531 0.929 . S
H1520 C1534 0.930 . S
H1521 C1536 0.960 . S
H1522 C1536 0.960 . S
H1523 C1536 0.960 . S
C1524 H1516 0.929 . S
C1524 C1525 1.377 . S
C1524 C1526 1.384 . S
C1525 C1524 1.377 . S
C1525 C1531 1.390 . S
C1526 H1517 0.930 . S
C1526 C1524 1.384 . S
C1526 C1527 1.372 . S
C1527 C1526 1.372 . S
C1527 C1528 1.400 . S
C1527 C1532 1.490 . S
C1528 H1518 0.930 . S
C1528 C1527 1.400 . S
C1528 C1531 1.386 . S
H1529 C1545 0.930 . S
H1530 C1546 0.931 . S
C1531 H1519 0.929 . S
C1531 C1525 1.390 . S
C1531 C1528 1.386 . S
C1532 C1527 1.490 . S
C1532 C1534 1.395 . S
C1532 C1535 1.403 . S
H1533 C1539 0.930 . S
C1534 H1520 0.930 . S
C1534 C1532 1.395 . S
C1534 C1537 1.403 . S
C1535 C1532 1.403 . S
C1535 C1536 1.524 . S
C1535 C1539 1.400 . S
C1536 H1521 0.960 . S
C1536 H1522 0.960 . S
C1536 H1523 0.960 . S
C1536 C1535 1.524 . S
C1537 C1534 1.403 . S
C1537 C1538 1.392 . S
C1537 C1541 1.495 . S
C1538 C1537 1.392 . S
C1538 C1539 1.385 . S
C1538 C1540 1.478 . S
C1539 H1533 0.930 . S
C1539 C1535 1.400 . S
C1539 C1538 1.385 . S
C1540 C1538 1.478 . S
C1540 C1542 1.381 . S
C1540 C1546 1.383 . S
C1541 C1537 1.495 . S
C1541 H1547 0.959 . S
C1541 H1548 0.961 . S
C1541 H1549 0.960 . S
C1542 C1540 1.381 . S
C1542 C1543 1.394 . S
C1542 H1550 0.930 . S
C1543 C1542 1.394 . S
C1543 C1544 1.383 . S
C1543 H1551 0.929 . S
C1544 C1543 1.383 . S
C1544 C1545 1.377 . S
C1545 H1529 0.930 . S
C1545 C1544 1.377 . S
C1545 C1546 1.379 . S
C1546 H1530 0.931 . S
C1546 C1540 1.383 . S
C1546 C1545 1.379 . S
H1547 C1541 0.959 . S
H1548 C1541 0.961 . S
H1549 C1541 0.960 . S
H1550 C1542 0.930 . S
H1551 C1543 0.929 . S
H1552 C1560 0.929 . S
H1553 C1562 0.930 . S
H1554 C1564 0.930 1_556 S
H1555 C1567 0.979 . S
H1556 C1570 0.930 . S
H1557 C1572 0.960 . S
H1558 C1572 0.960 . S
H1559 C1572 0.960 1_556 S
C1560 H1552 0.929 . S
C1560 C1561 1.377 . S
C1560 C1562 1.384 . S
C1561 C1560 1.377 . S
C1561 C1567 1.354 1_554 S
C1562 H1553 0.930 . S
C1562 C1560 1.384 . S
C1562 C1563 1.372 . S
C1563 C1562 1.372 . S
C1563 C1564 1.400 . S
C1563 C1568 1.490 . S
C1564 H1554 0.930 1_554 S
C1564 C1563 1.400 . S
C1564 C1567 1.373 1_554 S
H1565 C1581 0.930 . S
H1566 C1582 0.931 . S
C1567 H1555 0.979 . S
C1567 C1561 1.354 1_556 S
C1567 C1564 1.373 1_556 S
C1568 C1563 1.490 . S
C1568 C1570 1.395 . S
C1568 C1571 1.403 . S
H1569 C1575 0.930 . S
C1570 H1556 0.930 . S
C1570 C1568 1.395 . S
C1570 C1573 1.403 . S
C1571 C1568 1.403 . S
C1571 C1572 1.524 . S
C1571 C1575 1.400 . S
C1572 H1557 0.960 . S
C1572 H1558 0.960 . S
C1572 H1559 0.960 1_554 S
C1572 C1571 1.524 . S
C1573 C1570 1.403 . S
C1573 C1574 1.392 . S
C1573 C1577 1.495 1_565 S
C1574 C1573 1.392 . S
C1574 C1575 1.385 . S
C1574 C1576 1.478 . S
C1575 H1569 0.930 . S
C1575 C1571 1.400 . S
C1575 C1574 1.385 . S
C1576 C1574 1.478 . S
C1576 C1578 1.381 . S
C1576 C1582 1.389 . S
C1577 C1573 1.495 1_545 S
C1577 H1583 0.959 . S
C1577 H1584 0.961 . S
C1577 H1585 0.960 . S
C1578 C1576 1.381 . S
C1578 C1579 1.393 1_565 S
C1578 H1586 0.930 . S
C1579 C1578 1.393 1_545 S
C1579 C1580 1.385 . S
C1579 H1587 0.929 . S
C1580 C1579 1.385 . S
C1580 C1581 1.377 . S
C1581 H1565 0.930 . S
C1581 C1580 1.377 . S
C1581 C1582 1.374 1_545 S
C1582 H1566 0.931 . S
C1582 C1576 1.389 . S
C1582 C1581 1.374 1_565 S
H1583 C1577 0.959 . S
H1584 C1577 0.961 . S
H1585 C1577 0.960 . S
H1586 C1578 0.930 . S
H1587 C1579 0.929 . S
H1588 C1596 0.929 . S
H1589 C1598 0.930 . S
H1590 C1600 0.956 . S
H1591 C1603 0.929 . S
H1592 C1606 0.930 . S
H1593 C1608 0.960 . S
H1594 C1608 0.960 . S
H1595 C1608 0.960 . S
C1596 H1588 0.929 . S
C1596 C1597 1.377 . S
C1596 C1598 1.384 . S
C1597 C1596 1.377 . S
C1597 C1603 1.390 1_554 S
C1598 H1589 0.930 . S
C1598 C1596 1.384 . S
C1598 C1599 1.372 . S
C1599 C1598 1.372 . S
C1599 C1600 1.363 1_554 S
C1599 C1604 1.490 . S
C1600 H1590 0.956 . S
C1600 C1599 1.363 1_556 S
C1600 C1603 1.400 . S
H1601 C1617 0.930 . S
H1602 C1618 0.931 . S
C1603 H1591 0.929 . S
C1603 C1597 1.390 1_556 S
C1603 C1600 1.400 . S
C1604 C1599 1.490 . S
C1604 C1606 1.395 . S
C1604 C1607 1.403 . S
H1605 C1611 0.930 . S
C1606 H1592 0.930 . S
C1606 C1604 1.395 . S
C1606 C1609 1.403 . S
C1607 C1604 1.403 . S
C1607 C1608 1.524 . S
C1607 C1611 1.400 . S
C1608 H1593 0.960 . S
C1608 H1594 0.960 . S
C1608 H1595 0.960 . S
C1608 C1607 1.524 . S
C1609 C1606 1.403 . S
C1609 C1610 1.392 . S
C1609 C1613 1.495 . S
C1610 C1609 1.392 . S
C1610 C1611 1.385 . S
C1610 C1612 1.478 . S
C1611 H1605 0.930 . S
C1611 C1607 1.400 . S
C1611 C1610 1.385 . S
C1612 C1610 1.478 . S
C1612 C1614 1.381 . S
C1612 C1618 1.383 1_554 S
C1613 C1609 1.495 . S
C1613 H1619 0.959 . S
C1613 H1620 0.961 1_554 S
C1613 H1621 0.960 . S
C1614 C1612 1.381 . S
C1614 C1615 1.394 . S
C1614 H1622 0.930 . S
C1615 C1614 1.394 . S
C1615 C1616 1.383 . S
C1615 H1623 0.929 . S
C1616 C1615 1.383 . S
C1616 C1617 1.377 1_554 S
C1617 H1601 0.930 . S
C1617 C1616 1.377 1_556 S
C1617 C1618 1.379 . S
C1618 H1602 0.931 . S
C1618 C1612 1.383 1_556 S
C1618 C1617 1.379 . S
H1619 C1613 0.959 . S
H1620 C1613 0.961 1_556 S
H1621 C1613 0.960 . S
H1622 C1614 0.930 . S
H1623 C1615 0.929 . S
H1624 C1632 0.929 . S
H1625 C1634 0.930 . S
H1626 C1636 0.930 . S
H1627 C1639 0.929 . S
H1628 C1642 0.930 . S
H1629 C1644 0.960 . S
H1630 C1644 0.960 . S
H1631 C1644 0.960 . S
C1632 H1624 0.929 . S
C1632 C1633 1.377 . S
C1632 C1634 1.384 . S
C1633 C1632 1.377 . S
C1633 C1639 1.390 . S
C1634 H1625 0.930 . S
C1634 C1632 1.384 . S
C1634 C1635 1.372 . S
C1635 C1634 1.372 . S
C1635 C1636 1.400 . S
C1635 C1640 1.490 . S
C1636 H1626 0.930 . S
C1636 C1635 1.400 . S
C1636 C1639 1.386 . S
H1637 C1653 0.930 . S
H1638 C1654 0.931 . S
C1639 H1627 0.929 . S
C1639 C1633 1.390 . S
C1639 C1636 1.386 . S
C1640 C1635 1.490 . S
C1640 C1642 1.395 . S
C1640 C1643 1.403 . S
H1641 C1647 0.930 . S
C1642 H1628 0.930 . S
C1642 C1640 1.395 . S
C1642 C1645 1.403 . S
C1643 C1640 1.403 . S
C1643 C1644 1.524 . S
C1643 C1647 1.400 . S
C1644 H1629 0.960 . S
C1644 H1630 0.960 . S
C1644 H1631 0.960 . S
C1644 C1643 1.524 . S
C1645 C1642 1.403 . S
C1645 C1646 1.392 . S
C1645 C1649 1.495 . S
C1646 C1645 1.392 . S
C1646 C1647 1.385 . S
C1646 C1648 1.478 . S
C1647 H1641 0.930 . S
C1647 C1643 1.400 . S
C1647 C1646 1.385 . S
C1648 C1646 1.478 . S
C1648 C1650 1.381 . S
C1648 C1654 1.383 . S
C1649 C1645 1.495 . S
C1649 H1655 0.959 . S
C1649 H1656 0.961 . S
C1649 H1657 0.960 . S
C1650 C1648 1.381 . S
C1650 C1651 1.394 . S
C1650 H1658 0.930 . S
C1651 C1650 1.394 . S
C1651 C1652 1.383 . S
C1651 H1659 0.929 . S
C1652 C1651 1.383 . S
C1652 C1653 1.377 . S
C1653 H1637 0.930 . S
C1653 C1652 1.377 . S
C1653 C1654 1.379 . S
C1654 H1638 0.931 . S
C1654 C1648 1.383 . S
C1654 C1653 1.379 . S
H1655 C1649 0.959 . S
H1656 C1649 0.961 . S
H1657 C1649 0.960 . S
H1658 C1650 0.930 . S
H1659 C1651 0.929 . S
H1660 C1668 0.929 . S
H1661 C1670 0.930 . S
H1662 C1672 0.930 . S
H1663 C1675 0.929 . S
H1664 C1678 0.930 . S
H1665 C1680 0.960 . S
H1666 C1680 0.960 . S
H1667 C1680 0.960 . S
C1668 H1660 0.929 . S
C1668 C1669 1.377 . S
C1668 C1670 1.384 . S
C1669 C1668 1.377 . S
C1669 C1675 1.390 . S
C1670 H1661 0.930 . S
C1670 C1668 1.384 . S
C1670 C1671 1.372 . S
C1671 C1670 1.372 . S
C1671 C1672 1.400 . S
C1671 C1676 1.490 . S
C1672 H1662 0.930 . S
C1672 C1671 1.400 . S
C1672 C1675 1.386 . S
H1673 C1689 0.930 . S
H1674 C1690 0.931 . S
C1675 H1663 0.929 . S
C1675 C1669 1.390 . S
C1675 C1672 1.386 . S
C1676 C1671 1.490 . S
C1676 C1678 1.395 . S
C1676 C1679 1.403 . S
H1677 C1683 0.930 . S
C1678 H1664 0.930 . S
C1678 C1676 1.395 . S
C1678 C1681 1.403 . S
C1679 C1676 1.403 . S
C1679 C1680 1.524 . S
C1679 C1683 1.400 . S
C1680 H1665 0.960 . S
C1680 H1666 0.960 . S
C1680 H1667 0.960 . S
C1680 C1679 1.524 . S
C1681 C1678 1.403 . S
C1681 C1682 1.392 . S
C1681 C1685 1.495 . S
C1682 C1681 1.392 . S
C1682 C1683 1.385 . S
C1682 C1684 1.478 . S
C1683 H1677 0.930 . S
C1683 C1679 1.400 . S
C1683 C1682 1.385 . S
C1684 C1682 1.478 . S
C1684 C1686 1.381 . S
C1684 C1690 1.383 . S
C1685 C1681 1.495 . S
C1685 H1691 0.959 . S
C1685 H1692 0.961 . S
C1685 H1693 0.960 . S
C1686 C1684 1.381 . S
C1686 C1687 1.394 . S
C1686 H1694 0.930 . S
C1687 C1686 1.394 . S
C1687 C1688 1.383 . S
C1687 H1695 0.929 1_655 S
C1688 C1687 1.383 . S
C1688 C1689 1.377 . S
C1689 H1673 0.930 . S
C1689 C1688 1.377 . S
C1689 C1690 1.379 . S
C1690 H1674 0.931 . S
C1690 C1684 1.383 . S
C1690 C1689 1.379 . S
H1691 C1685 0.959 . S
H1692 C1685 0.961 . S
H1693 C1685 0.960 . S
H1694 C1686 0.930 . S
H1695 C1687 0.929 1_455 S
H1696 C1704 0.929 . S
H1697 C1706 0.930 . S
H1698 C1708 0.930 . S
H1699 C1711 0.929 . S
H1700 C1714 0.930 . S
H1701 C1716 0.960 . S
H1702 C1716 0.960 . S
H1703 C1716 0.960 . S
C1704 H1696 0.929 . S
C1704 C1705 1.377 . S
C1704 C1706 1.384 . S
C1705 C1704 1.377 . S
C1705 C1711 1.390 . S
C1706 H1697 0.930 . S
C1706 C1704 1.384 . S
C1706 C1707 1.372 . S
C1707 C1706 1.372 . S
C1707 C1708 1.400 . S
C1707 C1712 1.490 . S
C1708 H1698 0.930 . S
C1708 C1707 1.400 . S
C1708 C1711 1.386 . S
H1709 C1725 0.930 . S
H1710 C1726 0.931 . S
C1711 H1699 0.929 . S
C1711 C1705 1.390 . S
C1711 C1708 1.386 . S
C1712 C1707 1.490 . S
C1712 C1714 1.395 . S
C1712 C1715 1.403 . S
H1713 C1719 0.930 . S
C1714 H1700 0.930 . S
C1714 C1712 1.395 . S
C1714 C1717 1.403 . S
C1715 C1712 1.403 . S
C1715 C1716 1.524 . S
C1715 C1719 1.400 . S
C1716 H1701 0.960 . S
C1716 H1702 0.960 . S
C1716 H1703 0.960 . S
C1716 C1715 1.524 . S
C1717 C1714 1.403 . S
C1717 C1718 1.392 . S
C1717 C1721 1.495 . S
C1718 C1717 1.392 . S
C1718 C1719 1.385 . S
C1718 C1720 1.478 . S
C1719 H1713 0.930 . S
C1719 C1715 1.400 . S
C1719 C1718 1.385 . S
C1720 C1718 1.478 . S
C1720 C1722 1.381 . S
C1720 C1726 1.383 . S
C1721 C1717 1.495 . S
C1721 H1727 0.959 . S
C1721 H1728 0.961 . S
C1721 H1729 0.960 . S
C1722 C1720 1.381 . S
C1722 C1723 1.394 . S
C1722 H1730 0.930 . S
C1723 C1722 1.394 . S
C1723 C1724 1.383 . S
C1723 H1731 0.929 . S
C1724 C1723 1.383 . S
C1724 C1725 1.377 . S
C1725 H1709 0.930 . S
C1725 C1724 1.377 . S
C1725 C1726 1.379 . S
C1726 H1710 0.931 . S
C1726 C1720 1.383 . S
C1726 C1725 1.379 . S
H1727 C1721 0.959 . S
H1728 C1721 0.961 . S
H1729 C1721 0.960 . S
H1730 C1722 0.930 . S
H1731 C1723 0.929 . S
H1732 C1740 0.929 . S
H1733 C1742 0.930 . S
H1734 C1744 0.930 . S
H1735 C1747 0.929 . S
H1736 C1750 0.930 . S
H1737 C1752 0.960 . S
H1738 C1752 0.960 . S
H1739 C1752 0.960 . S
C1740 H1732 0.929 . S
C1740 C1741 1.377 . S
C1740 C1742 1.384 . S
C1741 C1740 1.377 . S
C1741 C1747 1.390 . S
C1742 H1733 0.930 . S
C1742 C1740 1.384 . S
C1742 C1743 1.372 . S
C1743 C1742 1.372 . S
C1743 C1744 1.400 . S
C1743 C1748 1.490 . S
C1744 H1734 0.930 . S
C1744 C1743 1.400 . S
C1744 C1747 1.386 . S
H1745 C1761 0.930 . S
H1746 C1762 0.931 . S
C1747 H1735 0.929 . S
C1747 C1741 1.390 . S
C1747 C1744 1.386 . S
C1748 C1743 1.490 . S
C1748 C1750 1.395 . S
C1748 C1751 1.403 . S
H1749 C1755 0.930 . S
C1750 H1736 0.930 . S
C1750 C1748 1.395 . S
C1750 C1753 1.403 . S
C1751 C1748 1.403 . S
C1751 C1752 1.524 . S
C1751 C1755 1.400 . S
C1752 H1737 0.960 . S
C1752 H1738 0.960 . S
C1752 H1739 0.960 . S
C1752 C1751 1.524 . S
C1753 C1750 1.403 . S
C1753 C1754 1.392 . S
C1753 C1757 1.495 . S
C1754 C1753 1.392 . S
C1754 C1755 1.385 . S
C1754 C1756 1.478 . S
C1755 H1749 0.930 . S
C1755 C1751 1.400 . S
C1755 C1754 1.385 . S
C1756 C1754 1.478 . S
C1756 C1758 1.381 . S
C1756 C1762 1.383 . S
C1757 C1753 1.495 . S
C1757 H1763 0.959 . S
C1757 H1764 0.961 . S
C1757 H1765 0.960 . S
C1758 C1756 1.381 . S
C1758 C1759 1.394 . S
C1758 H1766 0.930 . S
C1759 C1758 1.394 . S
C1759 C1760 1.383 . S
C1759 H1767 0.929 . S
C1760 C1759 1.383 . S
C1760 C1761 1.377 . S
C1761 H1745 0.930 . S
C1761 C1760 1.377 . S
C1761 C1762 1.379 . S
C1762 H1746 0.931 . S
C1762 C1756 1.383 . S
C1762 C1761 1.379 . S
H1763 C1757 0.959 . S
H1764 C1757 0.961 . S
H1765 C1757 0.960 . S
H1766 C1758 0.930 . S
H1767 C1759 0.929 . S
H1768 C1776 0.929 . S
H1769 C1778 0.930 . S
H1770 C1780 0.930 . S
H1771 C1783 0.929 . S
H1772 C1786 0.930 . S
H1773 C1788 0.960 . S
H1774 C1788 0.960 . S
H1775 C1788 0.960 . S
C1776 H1768 0.929 . S
C1776 C1777 1.377 . S
C1776 C1778 1.384 . S
C1777 C1776 1.377 . S
C1777 C1783 1.390 . S
C1778 H1769 0.930 . S
C1778 C1776 1.384 . S
C1778 C1779 1.372 . S
C1779 C1778 1.372 . S
C1779 C1780 1.400 . S
C1779 C1784 1.490 . S
C1780 H1770 0.930 . S
C1780 C1779 1.400 . S
C1780 C1783 1.386 . S
H1781 C1797 0.930 . S
H1782 C1798 0.931 . S
C1783 H1771 0.929 . S
C1783 C1777 1.390 . S
C1783 C1780 1.386 . S
C1784 C1779 1.490 . S
C1784 C1786 1.395 . S
C1784 C1787 1.403 . S
H1785 C1791 0.930 . S
C1786 H1772 0.930 . S
C1786 C1784 1.395 . S
C1786 C1789 1.403 . S
C1787 C1784 1.403 . S
C1787 C1788 1.524 . S
C1787 C1791 1.400 . S
C1788 H1773 0.960 . S
C1788 H1774 0.960 . S
C1788 H1775 0.960 . S
C1788 C1787 1.524 . S
C1789 C1786 1.403 . S
C1789 C1790 1.392 . S
C1789 C1793 1.495 . S
C1790 C1789 1.392 . S
C1790 C1791 1.385 . S
C1790 C1792 1.478 . S
C1791 H1785 0.930 . S
C1791 C1787 1.400 . S
C1791 C1790 1.385 . S
C1792 C1790 1.478 . S
C1792 C1794 1.381 . S
C1792 C1798 1.383 . S
C1793 C1789 1.495 . S
C1793 H1799 0.959 . S
C1793 H1800 0.961 . S
C1793 H1801 0.960 . S
C1794 C1792 1.381 . S
C1794 C1795 1.394 . S
C1794 H1802 0.930 . S
C1795 C1794 1.394 . S
C1795 C1796 1.383 . S
C1795 H1803 0.929 . S
C1796 C1795 1.383 . S
C1796 C1797 1.377 . S
C1797 H1781 0.930 . S
C1797 C1796 1.377 . S
C1797 C1798 1.379 . S
C1798 H1782 0.931 . S
C1798 C1792 1.383 . S
C1798 C1797 1.379 . S
H1799 C1793 0.959 . S
H1800 C1793 0.961 . S
H1801 C1793 0.960 . S
H1802 C1794 0.930 . S
H1803 C1795 0.929 . S
H1804 C1812 0.929 . S
H1805 C1814 0.930 . S
H1806 C1816 0.930 . S
H1807 C1819 0.929 . S
H1808 C1822 0.930 . S
H1809 C1824 0.960 . S
H1810 C1824 0.960 . S
H1811 C1824 0.960 . S
C1812 H1804 0.929 . S
C1812 C1813 1.377 . S
C1812 C1814 1.384 . S
C1813 C1812 1.377 . S
C1813 C1819 1.390 . S
C1814 H1805 0.930 . S
C1814 C1812 1.384 . S
C1814 C1815 1.372 . S
C1815 C1814 1.372 . S
C1815 C1816 1.400 . S
C1815 C1820 1.490 . S
C1816 H1806 0.930 . S
C1816 C1815 1.400 . S
C1816 C1819 1.386 . S
H1817 C1833 0.930 . S
H1818 C1834 0.931 . S
C1819 H1807 0.929 . S
C1819 C1813 1.390 . S
C1819 C1816 1.386 . S
C1820 C1815 1.490 . S
C1820 C1822 1.395 . S
C1820 C1823 1.403 . S
H1821 C1827 0.930 . S
C1822 H1808 0.930 . S
C1822 C1820 1.395 . S
C1822 C1825 1.403 . S
C1823 C1820 1.403 . S
C1823 C1824 1.524 . S
C1823 C1827 1.400 . S
C1824 H1809 0.960 . S
C1824 H1810 0.960 . S
C1824 H1811 0.960 . S
C1824 C1823 1.524 . S
C1825 C1822 1.403 . S
C1825 C1826 1.392 . S
C1825 C1829 1.495 . S
C1826 C1825 1.392 . S
C1826 C1827 1.385 . S
C1826 C1828 1.478 . S
C1827 H1821 0.930 . S
C1827 C1823 1.400 . S
C1827 C1826 1.385 . S
C1828 C1826 1.478 . S
C1828 C1830 1.381 . S
C1828 C1834 1.383 . S
C1829 C1825 1.495 . S
C1829 H1835 0.959 . S
C1829 H1836 0.961 . S
C1829 H1837 0.960 . S
C1830 C1828 1.381 . S
C1830 C1831 1.394 . S
C1830 H1838 0.930 . S
C1831 C1830 1.394 . S
C1831 C1832 1.383 . S
C1831 H1839 0.929 . S
C1832 C1831 1.383 . S
C1832 C1833 1.377 . S
C1833 H1817 0.930 . S
C1833 C1832 1.377 . S
C1833 C1834 1.379 . S
C1834 H1818 0.931 . S
C1834 C1828 1.383 . S
C1834 C1833 1.379 . S
H1835 C1829 0.959 . S
H1836 C1829 0.961 . S
H1837 C1829 0.960 . S
H1838 C1830 0.930 . S
H1839 C1831 0.929 . S
H1840 C1848 0.929 . S
H1841 C1850 0.930 . S
H1842 C1852 0.930 . S
H1843 C1855 0.929 . S
H1844 C1858 0.930 . S
H1845 C1860 0.960 . S
H1846 C1860 0.960 . S
H1847 C1860 0.960 . S
C1848 H1840 0.929 . S
C1848 C1849 1.377 . S
C1848 C1850 1.384 . S
C1849 C1848 1.377 . S
C1849 C1855 1.390 . S
C1850 H1841 0.930 . S
C1850 C1848 1.384 . S
C1850 C1851 1.372 . S
C1851 C1850 1.372 . S
C1851 C1852 1.400 . S
C1851 C1856 1.490 . S
C1852 H1842 0.930 . S
C1852 C1851 1.400 . S
C1852 C1855 1.386 . S
H1853 C1869 0.930 . S
H1854 C1870 0.931 . S
C1855 H1843 0.929 . S
C1855 C1849 1.390 . S
C1855 C1852 1.386 . S
C1856 C1851 1.490 . S
C1856 C1858 1.395 . S
C1856 C1859 1.403 . S
H1857 C1863 0.930 . S
C1858 H1844 0.930 . S
C1858 C1856 1.395 . S
C1858 C1861 1.403 . S
C1859 C1856 1.403 . S
C1859 C1860 1.524 . S
C1859 C1863 1.400 . S
C1860 H1845 0.960 . S
C1860 H1846 0.960 . S
C1860 H1847 0.960 . S
C1860 C1859 1.524 . S
C1861 C1858 1.403 . S
C1861 C1862 1.392 . S
C1861 C1865 1.495 . S
C1862 C1861 1.392 . S
C1862 C1863 1.385 . S
C1862 C1864 1.478 . S
C1863 H1857 0.930 . S
C1863 C1859 1.400 . S
C1863 C1862 1.385 . S
C1864 C1862 1.478 . S
C1864 C1866 1.381 . S
C1864 C1870 1.383 . S
C1865 C1861 1.495 . S
C1865 H1871 0.959 . S
C1865 H1872 0.961 . S
C1865 H1873 0.960 . S
C1866 C1864 1.381 . S
C1866 C1867 1.394 . S
C1866 H1874 0.930 . S
C1867 C1866 1.394 . S
C1867 C1868 1.383 . S
C1867 H1875 0.929 . S
C1868 C1867 1.383 . S
C1868 C1869 1.377 . S
C1869 H1853 0.930 . S
C1869 C1868 1.377 . S
C1869 C1870 1.379 . S
C1870 H1854 0.931 . S
C1870 C1864 1.383 . S
C1870 C1869 1.379 . S
H1871 C1865 0.959 . S
H1872 C1865 0.961 . S
H1873 C1865 0.960 . S
H1874 C1866 0.930 . S
H1875 C1867 0.929 . S
H1876 C1884 0.929 . S
H1877 C1886 0.930 . S
H1878 C1888 0.930 . S
H1879 C1891 0.929 . S
H1880 C1894 0.930 . S
H1881 C1896 0.960 . S
H1882 C1896 0.960 . S
H1883 C1896 0.960 . S
C1884 H1876 0.929 . S
C1884 C1885 1.377 . S
C1884 C1886 1.384 . S
C1885 C1884 1.377 . S
C1885 C1891 1.390 . S
C1886 H1877 0.930 . S
C1886 C1884 1.384 . S
C1886 C1887 1.372 . S
C1887 C1886 1.372 . S
C1887 C1888 1.400 . S
C1887 C1892 1.490 . S
C1888 H1878 0.930 . S
C1888 C1887 1.400 . S
C1888 C1891 1.386 . S
H1889 C1905 0.930 . S
H1890 C1906 0.931 . S
C1891 H1879 0.929 . S
C1891 C1885 1.390 . S
C1891 C1888 1.386 . S
C1892 C1887 1.490 . S
C1892 C1894 1.395 . S
C1892 C1895 1.403 . S
H1893 C1899 0.930 . S
C1894 H1880 0.930 . S
C1894 C1892 1.395 . S
C1894 C1897 1.403 . S
C1895 C1892 1.403 . S
C1895 C1896 1.524 . S
C1895 C1899 1.400 . S
C1896 H1881 0.960 . S
C1896 H1882 0.960 . S
C1896 H1883 0.960 . S
C1896 C1895 1.524 . S
C1897 C1894 1.403 . S
C1897 C1898 1.392 . S
C1897 C1901 1.495 . S
C1898 C1897 1.392 . S
C1898 C1899 1.385 . S
C1898 C1900 1.478 . S
C1899 H1893 0.930 . S
C1899 C1895 1.400 . S
C1899 C1898 1.385 . S
C1900 C1898 1.478 . S
C1900 C1902 1.381 . S
C1900 C1906 1.383 . S
C1901 C1897 1.495 . S
C1901 H1907 0.959 . S
C1901 H1908 0.961 . S
C1901 H1909 0.960 . S
C1902 C1900 1.381 . S
C1902 C1903 1.394 . S
C1902 H1910 0.930 . S
C1903 C1902 1.394 . S
C1903 C1904 1.383 . S
C1903 H1911 0.929 . S
C1904 C1903 1.383 . S
C1904 C1905 1.377 . S
C1905 H1889 0.930 . S
C1905 C1904 1.377 . S
C1905 C1906 1.379 . S
C1906 H1890 0.931 . S
C1906 C1900 1.383 . S
C1906 C1905 1.379 . S
H1907 C1901 0.959 . S
H1908 C1901 0.961 . S
H1909 C1901 0.960 . S
H1910 C1902 0.930 . S
H1911 C1903 0.929 . S
H1912 C1920 0.929 . S
H1913 C1922 0.930 . S
H1914 C1924 0.930 . S
H1915 C1927 0.929 . S
H1916 C1930 0.930 . S
H1917 C1932 0.960 . S
H1918 C1932 0.960 . S
H1919 C1932 0.960 . S
C1920 H1912 0.929 . S
C1920 C1921 1.377 . S
C1920 C1922 1.384 . S
C1921 C1920 1.377 . S
C1921 C1927 1.390 . S
C1922 H1913 0.930 . S
C1922 C1920 1.384 . S
C1922 C1923 1.372 . S
C1923 C1922 1.372 . S
C1923 C1924 1.400 . S
C1923 C1928 1.490 . S
C1924 H1914 0.930 . S
C1924 C1923 1.400 . S
C1924 C1927 1.386 . S
H1925 C1941 0.930 . S
H1926 C1942 0.931 . S
C1927 H1915 0.929 . S
C1927 C1921 1.390 . S
C1927 C1924 1.386 . S
C1928 C1923 1.490 . S
C1928 C1930 1.395 . S
C1928 C1931 1.403 . S
H1929 C1935 0.930 . S
C1930 H1916 0.930 . S
C1930 C1928 1.395 . S
C1930 C1933 1.403 . S
C1931 C1928 1.403 . S
C1931 C1932 1.524 . S
C1931 C1935 1.400 . S
C1932 H1917 0.960 . S
C1932 H1918 0.960 . S
C1932 H1919 0.960 . S
C1932 C1931 1.524 . S
C1933 C1930 1.403 . S
C1933 C1934 1.392 . S
C1933 C1937 1.495 . S
C1934 C1933 1.392 . S
C1934 C1935 1.385 . S
C1934 C1936 1.478 . S
C1935 H1929 0.930 . S
C1935 C1931 1.400 . S
C1935 C1934 1.385 . S
C1936 C1934 1.478 . S
C1936 C1938 1.381 . S
C1936 C1942 1.383 . S
C1937 C1933 1.495 . S
C1937 H1943 0.959 . S
C1937 H1944 0.961 . S
C1937 H1945 0.960 . S
C1938 C1936 1.381 . S
C1938 C1939 1.394 . S
C1938 H1946 0.930 . S
C1939 C1938 1.394 . S
C1939 C1940 1.383 . S
C1939 H1947 0.929 . S
C1940 C1939 1.383 . S
C1940 C1941 1.377 . S
C1941 H1925 0.930 . S
C1941 C1940 1.377 . S
C1941 C1942 1.379 . S
C1942 H1926 0.931 . S
C1942 C1936 1.383 . S
C1942 C1941 1.379 . S
H1943 C1937 0.959 . S
H1944 C1937 0.961 . S
H1945 C1937 0.960 . S
H1946 C1938 0.930 . S
H1947 C1939 0.929 . S
H1948 C1956 0.929 . S
H1949 C1958 0.930 . S
H1950 C1960 0.930 . S
H1951 C1963 0.929 . S
H1952 C1966 0.930 . S
H1953 C1968 0.960 . S
H1954 C1968 0.960 . S
H1955 C1968 0.960 . S
C1956 H1948 0.929 . S
C1956 C1957 1.377 . S
C1956 C1958 1.384 . S
C1957 C1956 1.377 . S
C1957 C1963 1.390 . S
C1958 H1949 0.930 . S
C1958 C1956 1.384 . S
C1958 C1959 1.372 . S
C1959 C1958 1.372 . S
C1959 C1960 1.400 . S
C1959 C1964 1.490 . S
C1960 H1950 0.930 . S
C1960 C1959 1.400 . S
C1960 C1963 1.386 . S
H1961 C1977 0.930 . S
H1962 C1978 0.931 . S
C1963 H1951 0.929 . S
C1963 C1957 1.390 . S
C1963 C1960 1.386 . S
C1964 C1959 1.490 . S
C1964 C1966 1.395 . S
C1964 C1967 1.403 . S
H1965 C1971 0.930 . S
C1966 H1952 0.930 . S
C1966 C1964 1.395 . S
C1966 C1969 1.403 . S
C1967 C1964 1.403 . S
C1967 C1968 1.524 . S
C1967 C1971 1.400 . S
C1968 H1953 0.960 . S
C1968 H1954 0.960 . S
C1968 H1955 0.960 . S
C1968 C1967 1.524 . S
C1969 C1966 1.403 . S
C1969 C1970 1.392 . S
C1969 C1973 1.495 . S
C1970 C1969 1.392 . S
C1970 C1971 1.385 . S
C1970 C1972 1.478 . S
C1971 H1965 0.930 . S
C1971 C1967 1.400 . S
C1971 C1970 1.385 . S
C1972 C1970 1.478 . S
C1972 C1974 1.381 . S
C1972 C1978 1.383 . S
C1973 C1969 1.495 . S
C1973 H1979 0.959 . S
C1973 H1980 0.961 . S
C1973 H1981 0.960 . S
C1974 C1972 1.381 . S
C1974 C1975 1.394 . S
C1974 H1982 0.930 . S
C1975 C1974 1.394 . S
C1975 C1976 1.383 . S
C1975 H1983 0.929 . S
C1976 C1975 1.383 . S
C1976 C1977 1.377 . S
C1977 H1961 0.930 . S
C1977 C1976 1.377 . S
C1977 C1978 1.379 . S
C1978 H1962 0.931 . S
C1978 C1972 1.383 . S
C1978 C1977 1.379 . S
H1979 C1973 0.959 . S
H1980 C1973 0.961 . S
H1981 C1973 0.960 . S
H1982 C1974 0.930 . S
H1983 C1975 0.929 . S
H1984 C1992 0.929 . S
H1985 C1994 0.930 . S
H1986 C1996 0.930 . S
H1987 C1999 0.929 . S
H1988 C2002 0.930 . S
H1989 C2004 0.960 . S
H1990 C2004 0.960 . S
H1991 C2004 0.960 . S
C1992 H1984 0.929 . S
C1992 C1993 1.377 . S
C1992 C1994 1.384 . S
C1993 C1992 1.377 . S
C1993 C1999 1.390 . S
C1994 H1985 0.930 . S
C1994 C1992 1.384 . S
C1994 C1995 1.372 . S
C1995 C1994 1.372 . S
C1995 C1996 1.400 . S
C1995 C2000 1.490 . S
C1996 H1986 0.930 . S
C1996 C1995 1.400 . S
C1996 C1999 1.386 . S
H1997 C2013 0.930 . S
H1998 C2014 0.931 . S
C1999 H1987 0.929 . S
C1999 C1993 1.390 . S
C1999 C1996 1.386 . S
C2000 C1995 1.490 . S
C2000 C2002 1.395 . S
C2000 C2003 1.403 . S
H2001 C2007 0.930 . S
C2002 H1988 0.930 . S
C2002 C2000 1.395 . S
C2002 C2005 1.403 . S
C2003 C2000 1.403 . S
C2003 C2004 1.524 . S
C2003 C2007 1.400 . S
C2004 H1989 0.960 . S
C2004 H1990 0.960 . S
C2004 H1991 0.960 . S
C2004 C2003 1.524 . S
C2005 C2002 1.403 . S
C2005 C2006 1.392 . S
C2005 C2009 1.495 . S
C2006 C2005 1.392 . S
C2006 C2007 1.385 . S
C2006 C2008 1.478 . S
C2007 H2001 0.930 . S
C2007 C2003 1.400 . S
C2007 C2006 1.385 . S
C2008 C2006 1.478 . S
C2008 C2010 1.381 . S
C2008 C2014 1.383 . S
C2009 C2005 1.495 . S
C2009 H2015 0.959 . S
C2009 H2016 0.961 . S
C2009 H2017 0.960 . S
C2010 C2008 1.381 . S
C2010 C2011 1.394 . S
C2010 H2018 0.930 . S
C2011 C2010 1.394 . S
C2011 C2012 1.383 . S
C2011 H2019 0.929 . S
C2012 C2011 1.383 . S
C2012 C2013 1.377 . S
C2013 H1997 0.930 . S
C2013 C2012 1.377 . S
C2013 C2014 1.379 . S
C2014 H1998 0.931 . S
C2014 C2008 1.383 . S
C2014 C2013 1.379 . S
H2015 C2009 0.959 . S
H2016 C2009 0.961 . S
H2017 C2009 0.960 . S
H2018 C2010 0.930 . S
H2019 C2011 0.929 . S
H2020 C2028 0.929 . S
H2021 C2030 0.930 . S
H2022 C2032 0.930 . S
H2023 C2035 0.929 . S
H2024 C2038 0.930 . S
H2025 C2040 0.960 . S
H2026 C2040 0.960 . S
H2027 C2040 0.960 . S
C2028 H2020 0.929 . S
C2028 C2029 1.377 . S
C2028 C2030 1.384 . S
C2029 C2028 1.377 . S
C2029 C2035 1.390 . S
C2030 H2021 0.930 . S
C2030 C2028 1.384 . S
C2030 C2031 1.372 . S
C2031 C2030 1.372 . S
C2031 C2032 1.400 . S
C2031 C2036 1.490 . S
C2032 H2022 0.930 . S
C2032 C2031 1.400 . S
C2032 C2035 1.386 . S
H2033 C2049 0.930 . S
H2034 C2050 0.931 . S
C2035 H2023 0.929 . S
C2035 C2029 1.390 . S
C2035 C2032 1.386 . S
C2036 C2031 1.490 . S
C2036 C2038 1.395 . S
C2036 C2039 1.403 . S
H2037 C2043 0.930 . S
C2038 H2024 0.930 . S
C2038 C2036 1.395 . S
C2038 C2041 1.403 . S
C2039 C2036 1.403 . S
C2039 C2040 1.524 . S
C2039 C2043 1.400 . S
C2040 H2025 0.960 . S
C2040 H2026 0.960 . S
C2040 H2027 0.960 . S
C2040 C2039 1.524 . S
C2041 C2038 1.403 . S
C2041 C2042 1.392 . S
C2041 C2045 1.495 . S
C2042 C2041 1.392 . S
C2042 C2043 1.385 . S
C2042 C2044 1.478 . S
C2043 H2037 0.930 . S
C2043 C2039 1.400 . S
C2043 C2042 1.385 . S
C2044 C2042 1.478 . S
C2044 C2046 1.381 . S
C2044 C2050 1.383 . S
C2045 C2041 1.495 . S
C2045 H2051 0.959 . S
C2045 H2052 0.961 . S
C2045 H2053 0.960 . S
C2046 C2044 1.381 . S
C2046 C2047 1.394 . S
C2046 H2054 0.930 . S
C2047 C2046 1.394 . S
C2047 C2048 1.383 . S
C2047 H2055 0.929 . S
C2048 C2047 1.383 . S
C2048 C2049 1.377 . S
C2049 H2033 0.930 . S
C2049 C2048 1.377 . S
C2049 C2050 1.379 . S
C2050 H2034 0.931 . S
C2050 C2044 1.383 . S
C2050 C2049 1.379 . S
H2051 C2045 0.959 . S
H2052 C2045 0.961 . S
H2053 C2045 0.960 . S
H2054 C2046 0.930 . S
H2055 C2047 0.929 . S
H2056 C2064 0.929 . S
H2057 C2066 0.930 . S
H2058 C2068 0.930 . S
H2059 C2071 0.929 . S
H2060 C2074 0.930 . S
H2061 C2076 0.960 . S
H2062 C2076 0.960 . S
H2063 C2076 0.960 . S
C2064 H2056 0.929 . S
C2064 C2065 1.377 . S
C2064 C2066 1.384 . S
C2065 C2064 1.377 . S
C2065 C2071 1.390 . S
C2066 H2057 0.930 . S
C2066 C2064 1.384 . S
C2066 C2067 1.372 . S
C2067 C2066 1.372 . S
C2067 C2068 1.400 . S
C2067 C2072 1.490 . S
C2068 H2058 0.930 . S
C2068 C2067 1.400 . S
C2068 C2071 1.386 . S
H2069 C2085 0.930 1_554 S
H2070 C2086 0.931 . S
C2071 H2059 0.929 . S
C2071 C2065 1.390 . S
C2071 C2068 1.386 . S
C2072 C2067 1.490 . S
C2072 C2074 1.395 . S
C2072 C2075 1.403 . S
H2073 C2079 0.930 . S
C2074 H2060 0.930 . S
C2074 C2072 1.395 . S
C2074 C2077 1.403 . S
C2075 C2072 1.403 . S
C2075 C2076 1.524 . S
C2075 C2079 1.400 . S
C2076 H2061 0.960 . S
C2076 H2062 0.960 . S
C2076 H2063 0.960 . S
C2076 C2075 1.524 . S
C2077 C2074 1.403 . S
C2077 C2078 1.392 . S
C2077 C2081 1.495 . S
C2078 C2077 1.392 . S
C2078 C2079 1.385 . S
C2078 C2080 1.478 . S
C2079 H2073 0.930 . S
C2079 C2075 1.400 . S
C2079 C2078 1.385 . S
C2080 C2078 1.478 . S
C2080 C2082 1.381 . S
C2080 C2086 1.383 . S
C2081 C2077 1.495 . S
C2081 H2087 0.959 . S
C2081 H2088 0.961 . S
C2081 H2089 0.960 . S
C2082 C2080 1.381 . S
C2082 C2083 1.394 . S
C2082 H2090 0.930 . S
C2083 C2082 1.394 . S
C2083 C2084 1.383 . S
C2083 H2091 0.929 1_565 S
C2084 C2083 1.383 . S
C2084 C2085 1.377 . S
C2085 H2069 0.930 1_556 S
C2085 C2084 1.377 . S
C2085 C2086 1.379 . S
C2086 H2070 0.931 . S
C2086 C2080 1.383 . S
C2086 C2085 1.379 . S
H2087 C2081 0.959 . S
H2088 C2081 0.961 . S
H2089 C2081 0.960 . S
H2090 C2082 0.930 . S
H2091 C2083 0.929 1_545 S
H2092 C2100 0.929 . S
H2093 C2102 0.930 . S
H2094 C2104 0.930 . S
H2095 C2107 0.929 . S
H2096 C2110 0.930 . S
H2097 C2112 0.960 . S
H2098 C2112 0.960 . S
H2099 C2112 0.960 . S
C2100 H2092 0.929 . S
C2100 C2101 1.377 . S
C2100 C2102 1.384 . S
C2101 C2100 1.377 . S
C2101 C2107 1.390 . S
C2102 H2093 0.930 . S
C2102 C2100 1.384 . S
C2102 C2103 1.372 . S
C2103 C2102 1.372 . S
C2103 C2104 1.400 . S
C2103 C2108 1.490 . S
C2104 H2094 0.930 . S
C2104 C2103 1.400 . S
C2104 C2107 1.386 . S
H2105 C2121 0.930 . S
H2106 C2122 0.931 . S
C2107 H2095 0.929 . S
C2107 C2101 1.390 . S
C2107 C2104 1.386 . S
C2108 C2103 1.490 . S
C2108 C2110 1.395 . S
C2108 C2111 1.403 . S
H2109 C2115 0.930 . S
C2110 H2096 0.930 . S
C2110 C2108 1.395 . S
C2110 C2113 1.403 . S
C2111 C2108 1.403 . S
C2111 C2112 1.524 . S
C2111 C2115 1.400 . S
C2112 H2097 0.960 . S
C2112 H2098 0.960 . S
C2112 H2099 0.960 . S
C2112 C2111 1.524 . S
C2113 C2110 1.403 . S
C2113 C2114 1.392 . S
C2113 C2117 1.495 . S
C2114 C2113 1.392 . S
C2114 C2115 1.385 . S
C2114 C2116 1.478 . S
C2115 H2109 0.930 . S
C2115 C2111 1.400 . S
C2115 C2114 1.385 . S
C2116 C2114 1.478 . S
C2116 C2118 1.381 . S
C2116 C2122 1.383 . S
C2117 C2113 1.495 . S
C2117 H2123 0.959 . S
C2117 H2124 0.961 . S
C2117 H2125 0.960 . S
C2118 C2116 1.381 . S
C2118 C2119 1.394 . S
C2118 H2126 0.930 . S
C2119 C2118 1.394 . S
C2119 C2120 1.383 . S
C2119 H2127 0.929 . S
C2120 C2119 1.383 . S
C2120 C2121 1.377 . S
C2121 H2105 0.930 . S
C2121 C2120 1.377 . S
C2121 C2122 1.379 . S
C2122 H2106 0.931 . S
C2122 C2116 1.383 . S
C2122 C2121 1.379 . S
H2123 C2117 0.959 . S
H2124 C2117 0.961 . S
H2125 C2117 0.960 . S
H2126 C2118 0.930 . S
H2127 C2119 0.929 . S
H2128 C2136 0.929 . S
H2129 C2138 0.933 1_565 S
H2130 C2140 0.930 . S
H2131 C2143 0.929 . S
H2132 C2146 0.930 . S
H2133 C2148 0.960 . S
H2134 C2148 0.960 1_565 S
H2135 C2148 0.960 . S
C2136 H2128 0.929 . S
C2136 C2137 1.377 1_565 S
C2136 C2138 1.384 1_565 S
C2137 C2136 1.377 1_545 S
C2137 C2143 1.390 . S
C2138 H2129 0.933 1_545 S
C2138 C2136 1.384 1_545 S
C2138 C2139 1.369 . S
C2139 C2138 1.369 . S
C2139 C2140 1.400 . S
C2139 C2144 1.490 . S
C2140 H2130 0.930 . S
C2140 C2139 1.400 . S
C2140 C2143 1.386 . S
H2141 C2157 0.930 . S
H2142 C2158 0.931 . S
C2143 H2131 0.929 . S
C2143 C2137 1.390 . S
C2143 C2140 1.386 . S
C2144 C2139 1.490 . S
C2144 C2146 1.395 . S
C2144 C2147 1.403 . S
H2145 C2151 0.930 . S
C2146 H2132 0.930 . S
C2146 C2144 1.395 . S
C2146 C2149 1.403 . S
C2147 C2144 1.403 . S
C2147 C2148 1.524 . S
C2147 C2151 1.400 . S
C2148 H2133 0.960 . S
C2148 H2134 0.960 1_545 S
C2148 H2135 0.960 . S
C2148 C2147 1.524 . S
C2149 C2146 1.403 . S
C2149 C2150 1.392 . S
C2149 C2153 1.495 . S
C2150 C2149 1.392 . S
C2150 C2151 1.385 . S
C2150 C2152 1.478 . S
C2151 H2145 0.930 . S
C2151 C2147 1.400 . S
C2151 C2150 1.385 . S
C2152 C2150 1.478 . S
C2152 C2154 1.381 . S
C2152 C2158 1.383 . S
C2153 C2149 1.495 . S
C2153 H2159 0.959 . S
C2153 H2160 0.961 . S
C2153 H2161 0.960 . S
C2154 C2152 1.381 . S
C2154 C2155 1.394 . S
C2154 H2162 0.930 . S
C2155 C2154 1.394 . S
C2155 C2156 1.383 . S
C2155 H2163 0.929 . S
C2156 C2155 1.383 . S
C2156 C2157 1.377 . S
C2157 H2141 0.930 . S
C2157 C2156 1.377 . S
C2157 C2158 1.379 . S
C2158 H2142 0.931 . S
C2158 C2152 1.383 . S
C2158 C2157 1.379 . S
H2159 C2153 0.959 . S
H2160 C2153 0.961 . S
H2161 C2153 0.960 . S
H2162 C2154 0.930 . S
H2163 C2155 0.929 . S
H2164 C2172 0.929 . S
H2165 C2174 0.930 . S
H2166 C2176 0.930 . S
H2167 C2179 0.929 . S
H2168 C2182 0.930 . S
H2169 C2184 0.960 . S
H2170 C2184 0.960 . S
H2171 C2184 0.960 . S
C2172 H2164 0.929 . S
C2172 C2173 1.377 . S
C2172 C2174 1.384 . S
C2173 C2172 1.377 . S
C2173 C2179 1.390 . S
C2174 H2165 0.930 . S
C2174 C2172 1.384 . S
C2174 C2175 1.372 . S
C2175 C2174 1.372 . S
C2175 C2176 1.400 . S
C2175 C2180 1.490 . S
C2176 H2166 0.930 . S
C2176 C2175 1.400 . S
C2176 C2179 1.386 . S
H2177 C2193 0.930 . S
H2178 C2194 0.931 . S
C2179 H2167 0.929 . S
C2179 C2173 1.390 . S
C2179 C2176 1.386 . S
C2180 C2175 1.490 . S
C2180 C2182 1.395 . S
C2180 C2183 1.403 . S
H2181 C2187 0.930 . S
C2182 H2168 0.930 . S
C2182 C2180 1.395 . S
C2182 C2185 1.403 . S
C2183 C2180 1.403 . S
C2183 C2184 1.524 . S
C2183 C2187 1.400 . S
C2184 H2169 0.960 . S
C2184 H2170 0.960 . S
C2184 H2171 0.960 . S
C2184 C2183 1.524 . S
C2185 C2182 1.403 . S
C2185 C2186 1.392 . S
C2185 C2189 1.495 . S
C2186 C2185 1.392 . S
C2186 C2187 1.385 . S
C2186 C2188 1.478 . S
C2187 H2181 0.930 . S
C2187 C2183 1.400 . S
C2187 C2186 1.385 . S
C2188 C2186 1.478 . S
C2188 C2190 1.381 . S
C2188 C2194 1.383 . S
C2189 C2185 1.495 . S
C2189 H2195 0.959 . S
C2189 H2196 0.961 . S
C2189 H2197 0.960 . S
C2190 C2188 1.381 . S
C2190 C2191 1.394 . S
C2190 H2198 0.930 . S
C2191 C2190 1.394 . S
C2191 C2192 1.383 . S
C2191 H2199 0.929 . S
C2192 C2191 1.383 . S
C2192 C2193 1.377 . S
C2193 H2177 0.930 . S
C2193 C2192 1.377 . S
C2193 C2194 1.379 . S
C2194 H2178 0.931 . S
C2194 C2188 1.383 . S
C2194 C2193 1.379 . S
H2195 C2189 0.959 . S
H2196 C2189 0.961 . S
H2197 C2189 0.960 . S
H2198 C2190 0.930 . S
H2199 C2191 0.929 . S
H2200 C2208 0.929 . S
H2201 C2210 0.930 . S
H2202 C2212 0.930 . S
H2203 C2215 0.929 . S
H2204 C2218 0.930 . S
H2205 C2220 0.960 . S
H2206 C2220 0.960 . S
H2207 C2220 0.960 . S
C2208 H2200 0.929 . S
C2208 C2209 1.377 . S
C2208 C2210 1.384 . S
C2209 C2208 1.377 . S
C2209 C2215 1.390 . S
C2210 H2201 0.930 . S
C2210 C2208 1.384 . S
C2210 C2211 1.372 . S
C2211 C2210 1.372 . S
C2211 C2212 1.400 . S
C2211 C2216 1.490 . S
C2212 H2202 0.930 . S
C2212 C2211 1.400 . S
C2212 C2215 1.386 . S
H2213 C2229 0.930 . S
H2214 C2230 0.931 . S
C2215 H2203 0.929 . S
C2215 C2209 1.390 . S
C2215 C2212 1.386 . S
C2216 C2211 1.490 . S
C2216 C2218 1.395 . S
C2216 C2219 1.403 . S
H2217 C2223 0.930 . S
C2218 H2204 0.930 . S
C2218 C2216 1.395 . S
C2218 C2221 1.403 . S
C2219 C2216 1.403 . S
C2219 C2220 1.524 . S
C2219 C2223 1.400 . S
C2220 H2205 0.960 . S
C2220 H2206 0.960 . S
C2220 H2207 0.960 . S
C2220 C2219 1.524 . S
C2221 C2218 1.403 . S
C2221 C2222 1.392 . S
C2221 C2225 1.495 . S
C2222 C2221 1.392 . S
C2222 C2223 1.385 . S
C2222 C2224 1.478 . S
C2223 H2217 0.930 . S
C2223 C2219 1.400 . S
C2223 C2222 1.385 . S
C2224 C2222 1.478 . S
C2224 C2226 1.381 . S
C2224 C2230 1.383 . S
C2225 C2221 1.495 . S
C2225 H2231 0.959 . S
C2225 H2232 0.961 . S
C2225 H2233 0.960 . S
C2226 C2224 1.381 . S
C2226 C2227 1.394 . S
C2226 H2234 0.930 . S
C2227 C2226 1.394 . S
C2227 C2228 1.383 . S
C2227 H2235 0.929 . S
C2228 C2227 1.383 . S
C2228 C2229 1.377 . S
C2229 H2213 0.930 . S
C2229 C2228 1.377 . S
C2229 C2230 1.379 . S
C2230 H2214 0.931 . S
C2230 C2224 1.383 . S
C2230 C2229 1.379 . S
H2231 C2225 0.959 . S
H2232 C2225 0.961 . S
H2233 C2225 0.960 . S
H2234 C2226 0.930 . S
H2235 C2227 0.929 . S
H2236 C2244 0.929 . S
H2237 C2246 0.930 . S
H2238 C2248 0.930 . S
H2239 C2251 0.929 . S
H2240 C2254 0.930 . S
H2241 C2256 0.960 . S
H2242 C2256 0.960 . S
H2243 C2256 0.960 . S
C2244 H2236 0.929 . S
C2244 C2245 1.377 . S
C2244 C2246 1.384 . S
C2245 C2244 1.377 . S
C2245 C2251 1.390 . S
C2246 H2237 0.930 . S
C2246 C2244 1.384 . S
C2246 C2247 1.372 . S
C2247 C2246 1.372 . S
C2247 C2248 1.400 . S
C2247 C2252 1.490 . S
C2248 H2238 0.930 . S
C2248 C2247 1.400 . S
C2248 C2251 1.386 . S
H2249 C2265 0.930 . S
H2250 C2266 0.931 . S
C2251 H2239 0.929 . S
C2251 C2245 1.390 . S
C2251 C2248 1.386 . S
C2252 C2247 1.490 . S
C2252 C2254 1.395 . S
C2252 C2255 1.403 . S
H2253 C2259 0.930 . S
C2254 H2240 0.930 . S
C2254 C2252 1.395 . S
C2254 C2257 1.403 . S
C2255 C2252 1.403 . S
C2255 C2256 1.524 . S
C2255 C2259 1.400 . S
C2256 H2241 0.960 . S
C2256 H2242 0.960 . S
C2256 H2243 0.960 . S
C2256 C2255 1.524 . S
C2257 C2254 1.403 . S
C2257 C2258 1.392 . S
C2257 C2261 1.495 . S
C2258 C2257 1.392 . S
C2258 C2259 1.385 . S
C2258 C2260 1.478 . S
C2259 H2253 0.930 . S
C2259 C2255 1.400 . S
C2259 C2258 1.385 . S
C2260 C2258 1.478 . S
C2260 C2262 1.381 . S
C2260 C2266 1.383 . S
C2261 C2257 1.495 . S
C2261 H2267 0.959 . S
C2261 H2268 0.961 . S
C2261 H2269 0.960 . S
C2262 C2260 1.381 . S
C2262 C2263 1.394 . S
C2262 H2270 0.930 . S
C2263 C2262 1.394 . S
C2263 C2264 1.383 . S
C2263 H2271 0.929 . S
C2264 C2263 1.383 . S
C2264 C2265 1.377 . S
C2265 H2249 0.930 . S
C2265 C2264 1.377 . S
C2265 C2266 1.379 . S
C2266 H2250 0.931 . S
C2266 C2260 1.383 . S
C2266 C2265 1.379 . S
H2267 C2261 0.959 . S
H2268 C2261 0.961 . S
H2269 C2261 0.960 . S
H2270 C2262 0.930 . S
H2271 C2263 0.929 . S
H2272 C2280 0.929 . S
H2273 C2282 0.930 . S
H2274 C2284 0.930 . S
H2275 C2287 0.929 . S
H2276 C2290 0.950 . S
H2277 C2292 0.960 . S
H2278 C2292 0.960 . S
H2279 C2292 0.960 . S
C2280 H2272 0.929 . S
C2280 C2281 1.353 1_565 S
C2280 C2282 1.384 . S
C2281 C2280 1.353 1_545 S
C2281 C2287 1.435 . S
C2282 H2273 0.930 . S
C2282 C2280 1.384 . S
C2282 C2283 1.372 1_565 S
C2283 C2282 1.372 1_545 S
C2283 C2284 1.400 . S
C2283 C2288 1.490 . S
C2284 H2274 0.930 . S
C2284 C2283 1.400 . S
C2284 C2287 1.386 . S
H2285 C2301 0.930 . S
H2286 C2302 0.931 . S
C2287 H2275 0.929 . S
C2287 C2281 1.435 . S
C2287 C2284 1.386 . S
C2288 C2283 1.490 . S
C2288 C2290 1.388 1_545 S
C2288 C2291 1.403 . S
H2289 C2295 0.930 . S
C2290 H2276 0.950 . S
C2290 C2288 1.388 1_565 S
C2290 C2293 1.392 1_565 S
C2291 C2288 1.403 . S
C2291 C2292 1.524 . S
C2291 C2295 1.400 . S
C2292 H2277 0.960 . S
C2292 H2278 0.960 . S
C2292 H2279 0.960 . S
C2292 C2291 1.524 . S
C2293 C2290 1.392 1_545 S
C2293 C2294 1.392 . S
C2293 C2297 1.495 1_545 S
C2294 C2293 1.392 . S
C2294 C2295 1.385 . S
C2294 C2296 1.478 . S
C2295 H2289 0.930 . S
C2295 C2291 1.400 . S
C2295 C2294 1.385 . S
C2296 C2294 1.478 . S
C2296 C2298 1.381 . S
C2296 C2302 1.383 . S
C2297 C2293 1.495 1_565 S
C2297 H2303 0.959 . S
C2297 H2304 0.961 . S
C2297 H2305 0.960 . S
C2298 C2296 1.381 . S
C2298 C2299 1.394 . S
C2298 H2306 0.930 1_545 S
C2299 C2298 1.394 . S
C2299 C2300 1.383 . S
C2299 H2307 0.929 . S
C2300 C2299 1.383 . S
C2300 C2301 1.377 . S
C2301 H2285 0.930 . S
C2301 C2300 1.377 . S
C2301 C2302 1.379 . S
C2302 H2286 0.931 . S
C2302 C2296 1.383 . S
C2302 C2301 1.379 . S
H2303 C2297 0.959 . S
H2304 C2297 0.961 . S
H2305 C2297 0.960 . S
H2306 C2298 0.930 1_565 S
H2307 C2299 0.929 . S
H2308 C2316 0.929 . S
H2309 C2318 0.930 . S
H2310 C2320 0.930 . S
H2311 C2323 0.929 . S
H2312 C2326 0.930 . S
H2313 C2328 0.960 . S
H2314 C2328 0.960 . S
H2315 C2328 0.960 . S
C2316 H2308 0.929 . S
C2316 C2317 1.377 . S
C2316 C2318 1.384 . S
C2317 C2316 1.377 . S
C2317 C2323 1.390 . S
C2318 H2309 0.930 . S
C2318 C2316 1.384 . S
C2318 C2319 1.372 . S
C2319 C2318 1.372 . S
C2319 C2320 1.400 . S
C2319 C2324 1.490 . S
C2320 H2310 0.930 . S
C2320 C2319 1.400 . S
C2320 C2323 1.386 . S
H2321 C2337 0.930 . S
H2322 C2338 0.931 . S
C2323 H2311 0.929 . S
C2323 C2317 1.390 . S
C2323 C2320 1.386 . S
C2324 C2319 1.490 . S
C2324 C2326 1.395 . S
C2324 C2327 1.403 . S
H2325 C2331 0.930 . S
C2326 H2312 0.930 . S
C2326 C2324 1.395 . S
C2326 C2329 1.403 . S
C2327 C2324 1.403 . S
C2327 C2328 1.524 . S
C2327 C2331 1.400 . S
C2328 H2313 0.960 . S
C2328 H2314 0.960 . S
C2328 H2315 0.960 . S
C2328 C2327 1.524 . S
C2329 C2326 1.403 . S
C2329 C2330 1.392 . S
C2329 C2333 1.495 . S
C2330 C2329 1.392 . S
C2330 C2331 1.385 . S
C2330 C2332 1.478 . S
C2331 H2325 0.930 . S
C2331 C2327 1.400 . S
C2331 C2330 1.385 . S
C2332 C2330 1.478 . S
C2332 C2334 1.381 . S
C2332 C2338 1.383 . S
C2333 C2329 1.495 . S
C2333 H2339 0.959 . S
C2333 H2340 0.961 . S
C2333 H2341 0.960 . S
C2334 C2332 1.381 . S
C2334 C2335 1.394 . S
C2334 H2342 0.930 . S
C2335 C2334 1.394 . S
C2335 C2336 1.383 . S
C2335 H2343 0.929 . S
C2336 C2335 1.383 . S
C2336 C2337 1.377 . S
C2337 H2321 0.930 . S
C2337 C2336 1.377 . S
C2337 C2338 1.379 . S
C2338 H2322 0.931 . S
C2338 C2332 1.383 . S
C2338 C2337 1.379 . S
H2339 C2333 0.959 . S
H2340 C2333 0.961 . S
H2341 C2333 0.960 . S
H2342 C2334 0.930 . S
H2343 C2335 0.929 . S
H2344 C2352 0.929 . S
H2345 C2354 0.930 . S
H2346 C2356 0.930 1_565 S
H2347 C2359 0.929 1_565 S
H2348 C2362 0.930 . S
H2349 C2364 0.960 . S
H2350 C2364 0.960 . S
H2351 C2364 0.960 . S
C2352 H2344 0.929 . S
C2352 C2353 1.377 . S
C2352 C2354 1.384 . S
C2353 C2352 1.377 . S
C2353 C2359 1.390 . S
C2354 H2345 0.930 . S
C2354 C2352 1.384 . S
C2354 C2355 1.372 . S
C2355 C2354 1.372 . S
C2355 C2356 1.400 . S
C2355 C2360 1.490 . S
C2356 H2346 0.930 1_545 S
C2356 C2355 1.400 . S
C2356 C2359 1.386 . S
H2357 C2373 0.930 . S
H2358 C2374 0.931 . S
C2359 H2347 0.929 1_545 S
C2359 C2353 1.390 . S
C2359 C2356 1.386 . S
C2360 C2355 1.490 . S
C2360 C2362 1.395 . S
C2360 C2363 1.403 1_545 S
H2361 C2367 0.930 . S
C2362 H2348 0.930 . S
C2362 C2360 1.395 . S
C2362 C2365 1.403 . S
C2363 C2360 1.403 1_565 S
C2363 C2364 1.524 . S
C2363 C2367 1.400 . S
C2364 H2349 0.960 . S
C2364 H2350 0.960 . S
C2364 H2351 0.960 . S
C2364 C2363 1.524 . S
C2365 C2362 1.403 . S
C2365 C2366 1.392 . S
C2365 C2369 1.495 . S
C2366 C2365 1.392 . S
C2366 C2367 1.385 1_545 S
C2366 C2368 1.478 . S
C2367 H2361 0.930 . S
C2367 C2363 1.400 . S
C2367 C2366 1.385 1_565 S
C2368 C2366 1.478 . S
C2368 C2370 1.381 . S
C2368 C2374 1.383 1_545 S
C2369 C2365 1.495 . S
C2369 H2375 0.959 . S
C2369 H2376 0.961 . S
C2369 H2377 0.960 . S
C2370 C2368 1.381 . S
C2370 C2371 1.394 . S
C2370 H2378 0.930 . S
C2371 C2370 1.394 . S
C2371 C2372 1.383 1_545 S
C2371 H2379 0.929 . S
C2372 C2371 1.383 1_565 S
C2372 C2373 1.377 . S
C2373 H2357 0.930 . S
C2373 C2372 1.377 . S
C2373 C2374 1.379 . S
C2374 H2358 0.931 . S
C2374 C2368 1.383 1_565 S
C2374 C2373 1.379 . S
H2375 C2369 0.959 . S
H2376 C2369 0.961 . S
H2377 C2369 0.960 . S
H2378 C2370 0.930 . S
H2379 C2371 0.929 . S
H2380 C2388 0.929 . S
H2381 C2390 0.930 . S
H2382 C2392 0.930 . S
H2383 C2395 0.929 . S
H2384 C2398 0.930 . S
H2385 C2400 0.960 . S
H2386 C2400 0.960 . S
H2387 C2400 0.960 . S
C2388 H2380 0.929 . S
C2388 C2389 1.377 . S
C2388 C2390 1.384 . S
C2389 C2388 1.377 . S
C2389 C2395 1.390 . S
C2390 H2381 0.930 . S
C2390 C2388 1.384 . S
C2390 C2391 1.372 . S
C2391 C2390 1.372 . S
C2391 C2392 1.400 . S
C2391 C2396 1.490 . S
C2392 H2382 0.930 . S
C2392 C2391 1.400 . S
C2392 C2395 1.386 . S
H2393 C2409 0.930 . S
H2394 C2410 0.931 . S
C2395 H2383 0.929 . S
C2395 C2389 1.390 . S
C2395 C2392 1.386 . S
C2396 C2391 1.490 . S
C2396 C2398 1.395 . S
C2396 C2399 1.403 . S
H2397 C2403 0.930 . S
C2398 H2384 0.930 . S
C2398 C2396 1.395 . S
C2398 C2401 1.403 . S
C2399 C2396 1.403 . S
C2399 C2400 1.524 . S
C2399 C2403 1.400 . S
C2400 H2385 0.960 . S
C2400 H2386 0.960 . S
C2400 H2387 0.960 . S
C2400 C2399 1.524 . S
C2401 C2398 1.403 . S
C2401 C2402 1.392 . S
C2401 C2405 1.495 . S
C2402 C2401 1.392 . S
C2402 C2403 1.385 . S
C2402 C2404 1.478 . S
C2403 H2397 0.930 . S
C2403 C2399 1.400 . S
C2403 C2402 1.385 . S
C2404 C2402 1.478 . S
C2404 C2406 1.381 . S
C2404 C2410 1.383 . S
C2405 C2401 1.495 . S
C2405 H2411 0.959 . S
C2405 H2412 0.961 . S
C2405 H2413 0.960 . S
C2406 C2404 1.381 . S
C2406 C2407 1.394 . S
C2406 H2414 0.930 . S
C2407 C2406 1.394 . S
C2407 C2408 1.383 . S
C2407 H2415 0.929 . S
C2408 C2407 1.383 . S
C2408 C2409 1.377 . S
C2409 H2393 0.930 . S
C2409 C2408 1.377 . S
C2409 C2410 1.379 . S
C2410 H2394 0.931 . S
C2410 C2404 1.383 . S
C2410 C2409 1.379 . S
H2411 C2405 0.959 . S
H2412 C2405 0.961 . S
H2413 C2405 0.960 . S
H2414 C2406 0.930 . S
H2415 C2407 0.929 . S
H2416 C2424 0.929 . S
H2417 C2426 0.930 . S
H2418 C2428 0.930 . S
H2419 C2431 0.929 . S
H2420 C2434 0.930 . S
H2421 C2436 0.960 . S
H2422 C2436 0.960 . S
H2423 C2436 0.960 . S
C2424 H2416 0.929 . S
C2424 C2425 1.377 . S
C2424 C2426 1.384 . S
C2425 C2424 1.377 . S
C2425 C2431 1.390 . S
C2426 H2417 0.930 . S
C2426 C2424 1.384 . S
C2426 C2427 1.372 . S
C2427 C2426 1.372 . S
C2427 C2428 1.400 . S
C2427 C2432 1.490 . S
C2428 H2418 0.930 . S
C2428 C2427 1.400 . S
C2428 C2431 1.386 . S
H2429 C2445 0.930 . S
H2430 C2446 0.931 . S
C2431 H2419 0.929 . S
C2431 C2425 1.390 . S
C2431 C2428 1.386 . S
C2432 C2427 1.490 . S
C2432 C2434 1.395 1_554 S
C2432 C2435 1.403 . S
H2433 C2439 0.930 . S
C2434 H2420 0.930 . S
C2434 C2432 1.395 1_556 S
C2434 C2437 1.403 . S
C2435 C2432 1.403 . S
C2435 C2436 1.524 . S
C2435 C2439 1.400 . S
C2436 H2421 0.960 . S
C2436 H2422 0.960 . S
C2436 H2423 0.960 . S
C2436 C2435 1.524 . S
C2437 C2434 1.403 . S
C2437 C2438 1.392 . S
C2437 C2441 1.495 . S
C2438 C2437 1.392 . S
C2438 C2439 1.385 1_556 S
C2438 C2440 1.478 . S
C2439 H2433 0.930 . S
C2439 C2435 1.400 . S
C2439 C2438 1.385 1_554 S
C2440 C2438 1.478 . S
C2440 C2442 1.381 . S
C2440 C2446 1.383 . S
C2441 C2437 1.495 . S
C2441 H2447 0.959 . S
C2441 H2448 0.961 . S
C2441 H2449 0.960 . S
C2442 C2440 1.381 . S
C2442 C2443 1.394 . S
C2442 H2450 0.930 . S
C2443 C2442 1.394 . S
C2443 C2444 1.383 . S
C2443 H2451 0.929 . S
C2444 C2443 1.383 . S
C2444 C2445 1.377 . S
C2445 H2429 0.930 . S
C2445 C2444 1.377 . S
C2445 C2446 1.379 . S
C2446 H2430 0.931 . S
C2446 C2440 1.383 . S
C2446 C2445 1.379 . S
H2447 C2441 0.959 . S
H2448 C2441 0.961 . S
H2449 C2441 0.960 . S
H2450 C2442 0.930 . S
H2451 C2443 0.929 . S
H2452 C2460 0.929 . S
H2453 C2462 0.930 . S
H2454 C2464 0.930 . S
H2455 C2467 0.929 . S
H2456 C2470 0.930 1_556 S
H2457 C2472 0.960 . S
H2458 C2472 0.960 . S
H2459 C2472 0.960 . S
C2460 H2452 0.929 . S
C2460 C2461 1.377 . S
C2460 C2462 1.384 . S
C2461 C2460 1.377 . S
C2461 C2467 1.390 . S
C2462 H2453 0.930 . S
C2462 C2460 1.384 . S
C2462 C2463 1.372 . S
C2463 C2462 1.372 . S
C2463 C2464 1.400 . S
C2463 C2468 1.490 . S
C2464 H2454 0.930 . S
C2464 C2463 1.400 . S
C2464 C2467 1.386 . S
H2465 C2481 0.930 . S
H2466 C2482 0.931 . S
C2467 H2455 0.929 . S
C2467 C2461 1.390 . S
C2467 C2464 1.386 . S
C2468 C2463 1.490 . S
C2468 C2470 1.395 . S
C2468 C2471 1.403 . S
H2469 C2475 0.930 . S
C2470 H2456 0.930 1_554 S
C2470 C2468 1.395 . S
C2470 C2473 1.403 . S
C2471 C2468 1.403 . S
C2471 C2472 1.524 . S
C2471 C2475 1.400 . S
C2472 H2457 0.960 . S
C2472 H2458 0.960 . S
C2472 H2459 0.960 . S
C2472 C2471 1.524 . S
C2473 C2470 1.403 . S
C2473 C2474 1.392 . S
C2473 C2477 1.495 1_554 S
C2474 C2473 1.392 . S
C2474 C2475 1.385 . S
C2474 C2476 1.478 . S
C2475 H2469 0.930 . S
C2475 C2471 1.400 . S
C2475 C2474 1.385 . S
C2476 C2474 1.478 . S
C2476 C2478 1.381 . S
C2476 C2482 1.383 . S
C2477 C2473 1.495 1_556 S
C2477 H2483 0.959 . S
C2477 H2484 0.961 . S
C2477 H2485 0.960 . S
C2478 C2476 1.381 . S
C2478 C2479 1.394 . S
C2478 H2486 0.930 . S
C2479 C2478 1.394 . S
C2479 C2480 1.383 . S
C2479 H2487 0.929 . S
C2480 C2479 1.383 . S
C2480 C2481 1.377 . S
C2481 H2465 0.930 . S
C2481 C2480 1.377 . S
C2481 C2482 1.379 . S
C2482 H2466 0.931 . S
C2482 C2476 1.383 . S
C2482 C2481 1.379 . S
H2483 C2477 0.959 . S
H2484 C2477 0.961 . S
H2485 C2477 0.960 . S
H2486 C2478 0.930 . S
H2487 C2479 0.929 . S
H2488 C2496 0.929 . S
H2489 C2498 0.930 . S
H2490 C2500 0.930 . S
H2491 C2503 0.929 . S
H2492 C2506 0.930 . S
H2493 C2508 0.960 . S
H2494 C2508 0.960 . S
H2495 C2508 0.960 . S
C2496 H2488 0.929 . S
C2496 C2497 1.377 . S
C2496 C2498 1.384 . S
C2497 C2496 1.377 . S
C2497 C2503 1.390 . S
C2498 H2489 0.930 . S
C2498 C2496 1.384 . S
C2498 C2499 1.372 . S
C2499 C2498 1.372 . S
C2499 C2500 1.400 . S
C2499 C2504 1.490 . S
C2500 H2490 0.930 . S
C2500 C2499 1.400 . S
C2500 C2503 1.386 . S
H2501 C2517 0.930 . S
H2502 C2518 0.931 . S
C2503 H2491 0.929 . S
C2503 C2497 1.390 . S
C2503 C2500 1.386 . S
C2504 C2499 1.490 . S
C2504 C2506 1.395 . S
C2504 C2507 1.403 . S
H2505 C2511 0.930 . S
C2506 H2492 0.930 . S
C2506 C2504 1.395 . S
C2506 C2509 1.403 . S
C2507 C2504 1.403 . S
C2507 C2508 1.524 . S
C2507 C2511 1.400 . S
C2508 H2493 0.960 . S
C2508 H2494 0.960 . S
C2508 H2495 0.960 . S
C2508 C2507 1.524 . S
C2509 C2506 1.403 . S
C2509 C2510 1.392 . S
C2509 C2513 1.495 . S
C2510 C2509 1.392 . S
C2510 C2511 1.385 . S
C2510 C2512 1.478 . S
C2511 H2505 0.930 . S
C2511 C2507 1.400 . S
C2511 C2510 1.385 . S
C2512 C2510 1.478 . S
C2512 C2514 1.381 . S
C2512 C2518 1.383 . S
C2513 C2509 1.495 . S
C2513 H2519 0.959 . S
C2513 H2520 0.961 . S
C2513 H2521 0.960 . S
C2514 C2512 1.381 . S
C2514 C2515 1.394 . S
C2514 H2522 0.930 . S
C2515 C2514 1.394 . S
C2515 C2516 1.383 . S
C2515 H2523 0.929 . S
C2516 C2515 1.383 . S
C2516 C2517 1.377 . S
C2517 H2501 0.930 . S
C2517 C2516 1.377 . S
C2517 C2518 1.379 . S
C2518 H2502 0.931 . S
C2518 C2512 1.383 . S
C2518 C2517 1.379 . S
H2519 C2513 0.959 . S
H2520 C2513 0.961 . S
H2521 C2513 0.960 . S
H2522 C2514 0.930 . S
H2523 C2515 0.929 . S
H2524 C2532 0.929 . S
H2525 C2534 0.930 . S
H2526 C2536 0.930 . S
H2527 C2539 0.929 . S
H2528 C2542 0.930 . S
H2529 C2544 0.960 . S
H2530 C2544 0.960 . S
H2531 C2544 0.960 . S
C2532 H2524 0.929 . S
C2532 C2533 1.377 . S
C2532 C2534 1.384 . S
C2533 C2532 1.377 . S
C2533 C2539 1.390 . S
C2534 H2525 0.930 . S
C2534 C2532 1.384 . S
C2534 C2535 1.372 . S
C2535 C2534 1.372 . S
C2535 C2536 1.400 . S
C2535 C2540 1.490 . S
C2536 H2526 0.930 . S
C2536 C2535 1.400 . S
C2536 C2539 1.386 . S
H2537 C2553 0.930 . S
H2538 C2554 0.931 . S
C2539 H2527 0.929 . S
C2539 C2533 1.390 . S
C2539 C2536 1.386 . S
C2540 C2535 1.490 . S
C2540 C2542 1.395 . S
C2540 C2543 1.403 . S
H2541 C2547 0.930 . S
C2542 H2528 0.930 . S
C2542 C2540 1.395 . S
C2542 C2545 1.403 . S
C2543 C2540 1.403 . S
C2543 C2544 1.524 . S
C2543 C2547 1.400 . S
C2544 H2529 0.960 . S
C2544 H2530 0.960 . S
C2544 H2531 0.960 . S
C2544 C2543 1.524 . S
C2545 C2542 1.403 . S
C2545 C2546 1.392 . S
C2545 C2549 1.495 . S
C2546 C2545 1.392 . S
C2546 C2547 1.385 . S
C2546 C2548 1.478 . S
C2547 H2541 0.930 . S
C2547 C2543 1.400 . S
C2547 C2546 1.385 . S
C2548 C2546 1.478 . S
C2548 C2550 1.381 . S
C2548 C2554 1.383 . S
C2549 C2545 1.495 . S
C2549 H2555 0.959 . S
C2549 H2556 0.961 . S
C2549 H2557 0.960 . S
C2550 C2548 1.381 . S
C2550 C2551 1.394 . S
C2550 H2558 0.930 . S
C2551 C2550 1.394 . S
C2551 C2552 1.383 . S
C2551 H2559 0.929 . S
C2552 C2551 1.383 . S
C2552 C2553 1.377 . S
C2553 H2537 0.930 . S
C2553 C2552 1.377 . S
C2553 C2554 1.379 . S
C2554 H2538 0.931 . S
C2554 C2548 1.383 . S
C2554 C2553 1.379 . S
H2555 C2549 0.959 . S
H2556 C2549 0.961 . S
H2557 C2549 0.960 . S
H2558 C2550 0.930 . S
H2559 C2551 0.929 . S
H2560 C2568 0.929 . S
H2561 C2570 0.930 . S
H2562 C2572 0.930 . S
H2563 C2575 0.929 . S
H2564 C2578 0.930 . S
H2565 C2580 0.960 . S
H2566 C2580 0.960 . S
H2567 C2580 0.960 . S
C2568 H2560 0.929 . S
C2568 C2569 1.377 . S
C2568 C2570 1.384 1_545 S
C2569 C2568 1.377 . S
C2569 C2575 1.390 1_545 S
C2570 H2561 0.930 . S
C2570 C2568 1.384 1_565 S
C2570 C2571 1.372 . S
C2571 C2570 1.372 . S
C2571 C2572 1.400 . S
C2571 C2576 1.490 . S
C2572 H2562 0.930 . S
C2572 C2571 1.400 . S
C2572 C2575 1.386 . S
H2573 C2589 0.930 . S
H2574 C2590 0.931 . S
C2575 H2563 0.929 . S
C2575 C2569 1.390 1_565 S
C2575 C2572 1.386 . S
C2576 C2571 1.490 . S
C2576 C2578 1.395 . S
C2576 C2579 1.403 . S
H2577 C2583 0.930 . S
C2578 H2564 0.930 . S
C2578 C2576 1.395 . S
C2578 C2581 1.403 . S
C2579 C2576 1.403 . S
C2579 C2580 1.524 . S
C2579 C2583 1.400 . S
C2580 H2565 0.960 . S
C2580 H2566 0.960 . S
C2580 H2567 0.960 . S
C2580 C2579 1.524 . S
C2581 C2578 1.403 . S
C2581 C2582 1.392 . S
C2581 C2585 1.495 . S
C2582 C2581 1.392 . S
C2582 C2583 1.385 . S
C2582 C2584 1.478 . S
C2583 H2577 0.930 . S
C2583 C2579 1.400 . S
C2583 C2582 1.385 . S
C2584 C2582 1.478 . S
C2584 C2586 1.381 . S
C2584 C2590 1.383 . S
C2585 C2581 1.495 . S
C2585 H2591 0.959 . S
C2585 H2592 0.961 . S
C2585 H2593 0.960 . S
C2586 C2584 1.381 . S
C2586 C2587 1.394 . S
C2586 H2594 0.930 . S
C2587 C2586 1.394 . S
C2587 C2588 1.383 . S
C2587 H2595 0.929 . S
C2588 C2587 1.383 . S
C2588 C2589 1.377 . S
C2589 H2573 0.930 . S
C2589 C2588 1.377 . S
C2589 C2590 1.379 . S
C2590 H2574 0.931 . S
C2590 C2584 1.383 . S
C2590 C2589 1.379 . S
H2591 C2585 0.959 . S
H2592 C2585 0.961 . S
H2593 C2585 0.960 . S
H2594 C2586 0.930 . S
H2595 C2587 0.929 . S
H2596 C2604 0.929 . S
H2597 C2606 0.930 . S
H2598 C2608 0.930 . S
H2599 C2611 0.929 . S
H2600 C2614 0.930 . S
H2601 C2616 0.960 . S
H2602 C2616 0.960 . S
H2603 C2616 0.960 . S
C2604 H2596 0.929 . S
C2604 C2605 1.377 . S
C2604 C2606 1.384 . S
C2605 C2604 1.377 . S
C2605 C2611 1.390 . S
C2606 H2597 0.930 . S
C2606 C2604 1.384 . S
C2606 C2607 1.372 . S
C2607 C2606 1.372 . S
C2607 C2608 1.400 . S
C2607 C2612 1.490 . S
C2608 H2598 0.930 . S
C2608 C2607 1.400 . S
C2608 C2611 1.386 . S
H2609 C2625 0.930 . S
H2610 C2626 0.931 . S
C2611 H2599 0.929 . S
C2611 C2605 1.390 . S
C2611 C2608 1.386 . S
C2612 C2607 1.490 . S
C2612 C2614 1.395 . S
C2612 C2615 1.403 . S
H2613 C2619 0.930 . S
C2614 H2600 0.930 . S
C2614 C2612 1.395 . S
C2614 C2617 1.403 . S
C2615 C2612 1.403 . S
C2615 C2616 1.524 . S
C2615 C2619 1.400 . S
C2616 H2601 0.960 . S
C2616 H2602 0.960 . S
C2616 H2603 0.960 . S
C2616 C2615 1.524 . S
C2617 C2614 1.403 . S
C2617 C2618 1.392 . S
C2617 C2621 1.495 . S
C2618 C2617 1.392 . S
C2618 C2619 1.385 . S
C2618 C2620 1.478 . S
C2619 H2613 0.930 . S
C2619 C2615 1.400 . S
C2619 C2618 1.385 . S
C2620 C2618 1.478 . S
C2620 C2622 1.381 . S
C2620 C2626 1.383 . S
C2621 C2617 1.495 . S
C2621 H2627 0.959 . S
C2621 H2628 0.961 . S
C2621 H2629 0.960 . S
C2622 C2620 1.381 . S
C2622 C2623 1.394 . S
C2622 H2630 0.930 . S
C2623 C2622 1.394 . S
C2623 C2624 1.383 . S
C2623 H2631 0.929 . S
C2624 C2623 1.383 . S
C2624 C2625 1.377 . S
C2625 H2609 0.930 . S
C2625 C2624 1.377 . S
C2625 C2626 1.379 . S
C2626 H2610 0.931 . S
C2626 C2620 1.383 . S
C2626 C2625 1.379 . S
H2627 C2621 0.959 . S
H2628 C2621 0.961 . S
H2629 C2621 0.960 . S
H2630 C2622 0.930 . S
H2631 C2623 0.929 . S
H2632 C2640 0.929 . S
H2633 C2642 0.930 . S
H2634 C2644 0.930 . S
H2635 C2647 0.929 . S
H2636 C2650 0.930 . S
H2637 C2652 0.960 . S
H2638 C2652 0.960 . S
H2639 C2652 0.960 . S
C2640 H2632 0.929 . S
C2640 C2641 1.377 . S
C2640 C2642 1.384 . S
C2641 C2640 1.377 . S
C2641 C2647 1.390 . S
C2642 H2633 0.930 . S
C2642 C2640 1.384 . S
C2642 C2643 1.372 . S
C2643 C2642 1.372 . S
C2643 C2644 1.400 . S
C2643 C2648 1.490 . S
C2644 H2634 0.930 . S
C2644 C2643 1.400 . S
C2644 C2647 1.386 . S
H2645 C2661 0.930 . S
H2646 C2662 0.931 . S
C2647 H2635 0.929 . S
C2647 C2641 1.390 . S
C2647 C2644 1.386 . S
C2648 C2643 1.490 . S
C2648 C2650 1.395 . S
C2648 C2651 1.403 . S
H2649 C2655 0.930 . S
C2650 H2636 0.930 . S
C2650 C2648 1.395 . S
C2650 C2653 1.403 . S
C2651 C2648 1.403 . S
C2651 C2652 1.524 . S
C2651 C2655 1.400 . S
C2652 H2637 0.960 . S
C2652 H2638 0.960 . S
C2652 H2639 0.960 . S
C2652 C2651 1.524 . S
C2653 C2650 1.403 . S
C2653 C2654 1.392 . S
C2653 C2657 1.495 . S
C2654 C2653 1.392 . S
C2654 C2655 1.385 . S
C2654 C2656 1.478 . S
C2655 H2649 0.930 . S
C2655 C2651 1.400 . S
C2655 C2654 1.385 . S
C2656 C2654 1.478 . S
C2656 C2658 1.381 . S
C2656 C2662 1.383 . S
C2657 C2653 1.495 . S
C2657 H2663 0.959 . S
C2657 H2664 0.961 . S
C2657 H2665 0.960 . S
C2658 C2656 1.381 . S
C2658 C2659 1.394 . S
C2658 H2666 0.930 . S
C2659 C2658 1.394 . S
C2659 C2660 1.383 . S
C2659 H2667 0.929 . S
C2660 C2659 1.383 . S
C2660 C2661 1.377 . S
C2661 H2645 0.930 . S
C2661 C2660 1.377 . S
C2661 C2662 1.379 . S
C2662 H2646 0.931 . S
C2662 C2656 1.383 . S
C2662 C2661 1.379 . S
H2663 C2657 0.959 . S
H2664 C2657 0.961 . S
H2665 C2657 0.960 . S
H2666 C2658 0.930 . S
H2667 C2659 0.929 . S
H2668 C2676 0.929 . S
H2669 C2678 0.930 . S
H2670 C2680 0.930 . S
H2671 C2683 0.929 . S
H2672 C2686 0.930 . S
H2673 C2688 0.960 . S
H2674 C2688 0.960 . S
H2675 C2688 0.960 . S
C2676 H2668 0.929 . S
C2676 C2677 1.377 . S
C2676 C2678 1.384 . S
C2677 C2676 1.377 . S
C2677 C2683 1.390 . S
C2678 H2669 0.930 . S
C2678 C2676 1.384 . S
C2678 C2679 1.372 . S
C2679 C2678 1.372 . S
C2679 C2680 1.400 . S
C2679 C2684 1.490 . S
C2680 H2670 0.930 . S
C2680 C2679 1.400 . S
C2680 C2683 1.386 . S
H2681 C2697 0.930 . S
H2682 C2698 0.931 . S
C2683 H2671 0.929 . S
C2683 C2677 1.390 . S
C2683 C2680 1.386 . S
C2684 C2679 1.490 . S
C2684 C2686 1.395 . S
C2684 C2687 1.403 . S
H2685 C2691 0.930 . S
C2686 H2672 0.930 . S
C2686 C2684 1.395 . S
C2686 C2689 1.403 . S
C2687 C2684 1.403 . S
C2687 C2688 1.524 . S
C2687 C2691 1.400 . S
C2688 H2673 0.960 . S
C2688 H2674 0.960 . S
C2688 H2675 0.960 . S
C2688 C2687 1.524 . S
C2689 C2686 1.403 . S
C2689 C2690 1.392 . S
C2689 C2693 1.495 . S
C2690 C2689 1.392 . S
C2690 C2691 1.385 . S
C2690 C2692 1.478 . S
C2691 H2685 0.930 . S
C2691 C2687 1.400 . S
C2691 C2690 1.385 . S
C2692 C2690 1.478 . S
C2692 C2694 1.381 . S
C2692 C2698 1.383 . S
C2693 C2689 1.495 . S
C2693 H2699 0.959 . S
C2693 H2700 0.961 . S
C2693 H2701 0.960 . S
C2694 C2692 1.381 . S
C2694 C2695 1.394 . S
C2694 H2702 0.930 . S
C2695 C2694 1.394 . S
C2695 C2696 1.383 . S
C2695 H2703 0.929 . S
C2696 C2695 1.383 . S
C2696 C2697 1.377 . S
C2697 H2681 0.930 . S
C2697 C2696 1.377 . S
C2697 C2698 1.379 . S
C2698 H2682 0.931 . S
C2698 C2692 1.383 . S
C2698 C2697 1.379 . S
H2699 C2693 0.959 . S
H2700 C2693 0.961 . S
H2701 C2693 0.960 . S
H2702 C2694 0.930 . S
H2703 C2695 0.929 . S
H2704 C2712 0.929 . S
H2705 C2714 0.930 . S
H2706 C2716 0.930 . S
H2707 C2719 0.929 . S
H2708 C2722 0.930 . S
H2709 C2724 0.960 . S
H2710 C2724 0.960 . S
H2711 C2724 0.960 . S
C2712 H2704 0.929 . S
C2712 C2713 1.377 . S
C2712 C2714 1.384 . S
C2713 C2712 1.377 . S
C2713 C2719 1.390 . S
C2714 H2705 0.930 . S
C2714 C2712 1.384 . S
C2714 C2715 1.372 . S
C2715 C2714 1.372 . S
C2715 C2716 1.400 . S
C2715 C2720 1.490 . S
C2716 H2706 0.930 . S
C2716 C2715 1.400 . S
C2716 C2719 1.386 . S
H2717 C2733 0.930 . S
H2718 C2734 0.931 . S
C2719 H2707 0.929 . S
C2719 C2713 1.390 . S
C2719 C2716 1.386 . S
C2720 C2715 1.490 . S
C2720 C2722 1.395 . S
C2720 C2723 1.403 . S
H2721 C2727 0.930 . S
C2722 H2708 0.930 . S
C2722 C2720 1.395 . S
C2722 C2725 1.403 . S
C2723 C2720 1.403 . S
C2723 C2724 1.524 . S
C2723 C2727 1.400 . S
C2724 H2709 0.960 . S
C2724 H2710 0.960 . S
C2724 H2711 0.960 . S
C2724 C2723 1.524 . S
C2725 C2722 1.403 . S
C2725 C2726 1.392 . S
C2725 C2729 1.495 . S
C2726 C2725 1.392 . S
C2726 C2727 1.385 . S
C2726 C2728 1.478 . S
C2727 H2721 0.930 . S
C2727 C2723 1.400 . S
C2727 C2726 1.385 . S
C2728 C2726 1.478 . S
C2728 C2730 1.381 . S
C2728 C2734 1.383 . S
C2729 C2725 1.495 . S
C2729 H2735 0.959 . S
C2729 H2736 0.961 . S
C2729 H2737 0.960 . S
C2730 C2728 1.381 . S
C2730 C2731 1.394 . S
C2730 H2738 0.930 . S
C2731 C2730 1.394 . S
C2731 C2732 1.383 . S
C2731 H2739 0.929 . S
C2732 C2731 1.383 . S
C2732 C2733 1.377 . S
C2733 H2717 0.930 . S
C2733 C2732 1.377 . S
C2733 C2734 1.379 . S
C2734 H2718 0.931 . S
C2734 C2728 1.383 . S
C2734 C2733 1.379 . S
H2735 C2729 0.959 . S
H2736 C2729 0.961 . S
H2737 C2729 0.960 . S
H2738 C2730 0.930 . S
H2739 C2731 0.929 . S
H2740 C2748 0.929 . S
H2741 C2750 0.930 . S
H2742 C2752 0.930 . S
H2743 C2755 0.929 . S
H2744 C2758 0.930 . S
H2745 C2760 0.960 . S
H2746 C2760 0.960 . S
H2747 C2760 0.960 . S
C2748 H2740 0.929 . S
C2748 C2749 1.377 . S
C2748 C2750 1.384 . S
C2749 C2748 1.377 . S
C2749 C2755 1.390 . S
C2750 H2741 0.930 . S
C2750 C2748 1.384 . S
C2750 C2751 1.372 . S
C2751 C2750 1.372 . S
C2751 C2752 1.400 . S
C2751 C2756 1.490 . S
C2752 H2742 0.930 . S
C2752 C2751 1.400 . S
C2752 C2755 1.386 . S
H2753 C2769 0.930 . S
H2754 C2770 0.931 . S
C2755 H2743 0.929 . S
C2755 C2749 1.390 . S
C2755 C2752 1.386 . S
C2756 C2751 1.490 . S
C2756 C2758 1.395 . S
C2756 C2759 1.403 . S
H2757 C2763 0.930 . S
C2758 H2744 0.930 . S
C2758 C2756 1.395 . S
C2758 C2761 1.403 . S
C2759 C2756 1.403 . S
C2759 C2760 1.524 . S
C2759 C2763 1.400 . S
C2760 H2745 0.960 . S
C2760 H2746 0.960 . S
C2760 H2747 0.960 . S
C2760 C2759 1.524 . S
C2761 C2758 1.403 . S
C2761 C2762 1.392 . S
C2761 C2765 1.495 . S
C2762 C2761 1.392 . S
C2762 C2763 1.385 . S
C2762 C2764 1.478 . S
C2763 H2757 0.930 . S
C2763 C2759 1.400 . S
C2763 C2762 1.385 . S
C2764 C2762 1.478 . S
C2764 C2766 1.381 . S
C2764 C2770 1.383 . S
C2765 C2761 1.495 . S
C2765 H2771 0.959 . S
C2765 H2772 0.961 . S
C2765 H2773 0.960 . S
C2766 C2764 1.381 . S
C2766 C2767 1.394 . S
C2766 H2774 0.930 . S
C2767 C2766 1.394 . S
C2767 C2768 1.383 . S
C2767 H2775 0.929 . S
C2768 C2767 1.383 . S
C2768 C2769 1.377 . S
C2769 H2753 0.930 . S
C2769 C2768 1.377 . S
C2769 C2770 1.379 . S
C2770 H2754 0.931 . S
C2770 C2764 1.383 . S
C2770 C2769 1.379 . S
H2771 C2765 0.959 . S
H2772 C2765 0.961 . S
H2773 C2765 0.960 . S
H2774 C2766 0.930 . S
H2775 C2767 0.929 . S
H2776 C2784 0.922 1_655 S
H2777 C2786 0.930 . S
H2778 C2788 0.930 . S
H2779 C2791 0.929 . S
H2780 C2794 0.930 . S
H2781 C2796 0.960 . S
H2782 C2796 0.960 . S
H2783 C2796 0.960 . S
C2784 H2776 0.922 1_455 S
C2784 C2785 1.377 . S
C2784 C2786 1.384 . S
C2785 C2784 1.377 . S
C2785 C2791 1.390 . S
C2786 H2777 0.930 . S
C2786 C2784 1.384 . S
C2786 C2787 1.372 . S
C2787 C2786 1.372 . S
C2787 C2788 1.400 . S
C2787 C2792 1.490 . S
C2788 H2778 0.930 . S
C2788 C2787 1.400 . S
C2788 C2791 1.386 . S
H2789 C2805 0.930 . S
H2790 C2806 0.931 . S
C2791 H2779 0.929 . S
C2791 C2785 1.390 . S
C2791 C2788 1.386 . S
C2792 C2787 1.490 . S
C2792 C2794 1.395 . S
C2792 C2795 1.403 . S
H2793 C2799 0.930 . S
C2794 H2780 0.930 . S
C2794 C2792 1.395 . S
C2794 C2797 1.403 1_556 S
C2795 C2792 1.403 . S
C2795 C2796 1.524 . S
C2795 C2799 1.400 . S
C2796 H2781 0.960 . S
C2796 H2782 0.960 . S
C2796 H2783 0.960 . S
C2796 C2795 1.524 . S
C2797 C2794 1.403 1_554 S
C2797 C2798 1.392 1_554 S
C2797 C2801 1.495 . S
C2798 C2797 1.392 1_556 S
C2798 C2799 1.385 . S
C2798 C2800 1.478 1_556 S
C2799 H2793 0.930 . S
C2799 C2795 1.400 . S
C2799 C2798 1.385 . S
C2800 C2798 1.478 1_554 S
C2800 C2802 1.381 . S
C2800 C2806 1.383 . S
C2801 C2797 1.495 . S
C2801 H2807 0.959 . S
C2801 H2808 0.961 . S
C2801 H2809 0.960 . S
C2802 C2800 1.381 . S
C2802 C2803 1.394 . S
C2802 H2810 0.930 . S
C2803 C2802 1.394 . S
C2803 C2804 1.383 . S
C2803 H2811 0.929 . S
C2804 C2803 1.383 . S
C2804 C2805 1.377 . S
C2805 H2789 0.930 . S
C2805 C2804 1.377 . S
C2805 C2806 1.379 . S
C2806 H2790 0.931 . S
C2806 C2800 1.383 . S
C2806 C2805 1.379 . S
H2807 C2801 0.959 . S
H2808 C2801 0.961 . S
H2809 C2801 0.960 . S
H2810 C2802 0.930 . S
H2811 C2803 0.929 . S
H2812 C2820 0.928 1_455 S
H2813 C2822 0.930 . S
H2814 C2824 0.930 . S
H2815 C2827 0.929 . S
H2816 C2830 0.930 . S
H2817 C2832 0.960 . S
H2818 C2832 0.960 . S
H2819 C2832 0.960 . S
C2820 H2812 0.928 1_655 S
C2820 C2821 1.348 1_655 S
C2820 C2822 1.415 . S
C2821 C2820 1.348 1_455 S
C2821 C2827 1.390 . S
C2822 H2813 0.930 . S
C2822 C2820 1.415 . S
C2822 C2823 1.372 . S
C2823 C2822 1.372 . S
C2823 C2824 1.400 . S
C2823 C2828 1.490 . S
C2824 H2814 0.930 . S
C2824 C2823 1.400 . S
C2824 C2827 1.386 1_655 S
H2825 C2841 0.930 . S
H2826 C2842 0.931 . S
C2827 H2815 0.929 . S
C2827 C2821 1.390 . S
C2827 C2824 1.386 1_455 S
C2828 C2823 1.490 . S
C2828 C2830 1.395 . S
C2828 C2831 1.403 . S
H2829 C2835 0.930 . S
C2830 H2816 0.930 . S
C2830 C2828 1.395 . S
C2830 C2833 1.403 . S
C2831 C2828 1.403 . S
C2831 C2832 1.524 . S
C2831 C2835 1.400 . S
C2832 H2817 0.960 . S
C2832 H2818 0.960 . S
C2832 H2819 0.960 . S
C2832 C2831 1.524 . S
C2833 C2830 1.403 . S
C2833 C2834 1.392 . S
C2833 C2837 1.495 . S
C2834 C2833 1.392 . S
C2834 C2835 1.385 . S
C2834 C2836 1.478 . S
C2835 H2829 0.930 . S
C2835 C2831 1.400 . S
C2835 C2834 1.385 . S
C2836 C2834 1.478 . S
C2836 C2838 1.381 . S
C2836 C2842 1.383 . S
C2837 C2833 1.495 . S
C2837 H2843 0.959 . S
C2837 H2844 0.961 . S
C2837 H2845 0.960 . S
C2838 C2836 1.381 . S
C2838 C2839 1.394 . S
C2838 H2846 0.930 . S
C2839 C2838 1.394 . S
C2839 C2840 1.383 . S
C2839 H2847 0.929 . S
C2840 C2839 1.383 . S
C2840 C2841 1.377 . S
C2841 H2825 0.930 . S
C2841 C2840 1.377 . S
C2841 C2842 1.379 . S
C2842 H2826 0.931 . S
C2842 C2836 1.383 . S
C2842 C2841 1.379 . S
H2843 C2837 0.959 . S
H2844 C2837 0.961 . S
H2845 C2837 0.960 . S
H2846 C2838 0.930 . S
H2847 C2839 0.929 . S
H2848 C2856 0.929 . S
H2849 C2858 0.930 . S
H2850 C2860 0.930 . S
H2851 C2863 0.929 . S
H2852 C2866 0.930 . S
H2853 C2868 0.960 . S
H2854 C2868 0.960 . S
H2855 C2868 0.960 . S
C2856 H2848 0.929 . S
C2856 C2857 1.377 . S
C2856 C2858 1.384 . S
C2857 C2856 1.377 . S
C2857 C2863 1.390 . S
C2858 H2849 0.930 . S
C2858 C2856 1.384 . S
C2858 C2859 1.372 . S
C2859 C2858 1.372 . S
C2859 C2860 1.400 . S
C2859 C2864 1.490 . S
C2860 H2850 0.930 . S
C2860 C2859 1.400 . S
C2860 C2863 1.386 . S
H2861 C2877 0.930 . S
H2862 C2878 0.931 . S
C2863 H2851 0.929 . S
C2863 C2857 1.390 . S
C2863 C2860 1.386 . S
C2864 C2859 1.490 . S
C2864 C2866 1.395 . S
C2864 C2867 1.403 . S
H2865 C2871 0.930 . S
C2866 H2852 0.930 . S
C2866 C2864 1.395 . S
C2866 C2869 1.403 . S
C2867 C2864 1.403 . S
C2867 C2868 1.524 . S
C2867 C2871 1.400 . S
C2868 H2853 0.960 . S
C2868 H2854 0.960 . S
C2868 H2855 0.960 . S
C2868 C2867 1.524 . S
C2869 C2866 1.403 . S
C2869 C2870 1.392 . S
C2869 C2873 1.495 . S
C2870 C2869 1.392 . S
C2870 C2871 1.385 . S
C2870 C2872 1.478 . S
C2871 H2865 0.930 . S
C2871 C2867 1.400 . S
C2871 C2870 1.385 . S
C2872 C2870 1.478 . S
C2872 C2874 1.381 . S
C2872 C2878 1.383 . S
C2873 C2869 1.495 . S
C2873 H2879 0.959 . S
C2873 H2880 0.961 . S
C2873 H2881 0.960 . S
C2874 C2872 1.381 . S
C2874 C2875 1.394 . S
C2874 H2882 0.930 . S
C2875 C2874 1.394 . S
C2875 C2876 1.383 . S
C2875 H2883 0.929 . S
C2876 C2875 1.383 . S
C2876 C2877 1.377 . S
C2877 H2861 0.930 . S
C2877 C2876 1.377 . S
C2877 C2878 1.379 . S
C2878 H2862 0.931 . S
C2878 C2872 1.383 . S
C2878 C2877 1.379 . S
H2879 C2873 0.959 . S
H2880 C2873 0.961 . S
H2881 C2873 0.960 . S
H2882 C2874 0.930 . S
H2883 C2875 0.929 . S
H2884 C2892 0.929 . S
H2885 C2894 0.930 . S
H2886 C2896 0.930 . S
H2887 C2899 0.929 . S
H2888 C2902 0.887 1_455 S
H2889 C2904 0.960 . S
H2890 C2904 0.960 . S
H2891 C2904 0.960 . S
C2892 H2884 0.929 . S
C2892 C2893 1.377 . S
C2892 C2894 1.384 . S
C2893 C2892 1.377 . S
C2893 C2899 1.390 . S
C2894 H2885 0.930 . S
C2894 C2892 1.384 . S
C2894 C2895 1.372 . S
C2895 C2894 1.372 . S
C2895 C2896 1.400 . S
C2895 C2900 1.490 1_455 S
C2896 H2886 0.930 . S
C2896 C2895 1.400 . S
C2896 C2899 1.386 . S
H2897 C2913 0.930 . S
H2898 C2914 0.931 . S
C2899 H2887 0.929 . S
C2899 C2893 1.390 . S
C2899 C2896 1.386 . S
C2900 C2895 1.490 1_655 S
C2900 C2902 1.395 . S
C2900 C2903 1.403 . S
H2901 C2907 0.930 . S
C2902 H2888 0.887 1_655 S
C2902 C2900 1.395 . S
C2902 C2905 1.403 . S
C2903 C2900 1.403 . S
C2903 C2904 1.524 . S
C2903 C2907 1.400 . S
C2904 H2889 0.960 . S
C2904 H2890 0.960 . S
C2904 H2891 0.960 . S
C2904 C2903 1.524 . S
C2905 C2902 1.403 . S
C2905 C2906 1.392 . S
C2905 C2909 1.495 . S
C2906 C2905 1.392 . S
C2906 C2907 1.385 . S
C2906 C2908 1.478 . S
C2907 H2901 0.930 . S
C2907 C2903 1.400 . S
C2907 C2906 1.385 . S
C2908 C2906 1.478 . S
C2908 C2910 1.381 . S
C2908 C2914 1.383 . S
C2909 C2905 1.495 . S
C2909 H2915 0.959 . S
C2909 H2916 0.961 . S
C2909 H2917 0.960 . S
C2910 C2908 1.381 . S
C2910 C2911 1.394 . S
C2910 H2918 0.930 . S
C2911 C2910 1.394 . S
C2911 C2912 1.383 . S
C2911 H2919 0.929 . S
C2912 C2911 1.383 . S
C2912 C2913 1.377 . S
C2913 H2897 0.930 . S
C2913 C2912 1.377 . S
C2913 C2914 1.379 . S
C2914 H2898 0.931 . S
C2914 C2908 1.383 . S
C2914 C2913 1.379 . S
H2915 C2909 0.959 . S
H2916 C2909 0.961 . S
H2917 C2909 0.960 . S
H2918 C2910 0.930 . S
H2919 C2911 0.929 . S
H2920 C2928 0.929 . S
H2921 C2930 0.930 . S
H2922 C2932 0.930 . S
H2923 C2935 0.929 . S
H2924 C2938 0.930 . S
H2925 C2940 0.960 . S
H2926 C2940 0.960 . S
H2927 C2940 0.960 . S
C2928 H2920 0.929 . S
C2928 C2929 1.377 . S
C2928 C2930 1.384 . S
C2929 C2928 1.377 . S
C2929 C2935 1.390 1_655 S
C2930 H2921 0.930 . S
C2930 C2928 1.384 . S
C2930 C2931 1.372 1_655 S
C2931 C2930 1.372 1_455 S
C2931 C2932 1.400 . S
C2931 C2936 1.490 . S
C2932 H2922 0.930 . S
C2932 C2931 1.400 . S
C2932 C2935 1.386 . S
H2933 C2949 0.930 . S
H2934 C2950 0.931 . S
C2935 H2923 0.929 . S
C2935 C2929 1.390 1_455 S
C2935 C2932 1.386 . S
C2936 C2931 1.490 . S
C2936 C2938 1.395 1_455 S
C2936 C2939 1.403 . S
H2937 C2943 0.930 . S
C2938 H2924 0.930 . S
C2938 C2936 1.395 1_655 S
C2938 C2941 1.403 . S
C2939 C2936 1.403 . S
C2939 C2940 1.524 . S
C2939 C2943 1.400 . S
C2940 H2925 0.960 . S
C2940 H2926 0.960 . S
C2940 H2927 0.960 . S
C2940 C2939 1.524 . S
C2941 C2938 1.403 . S
C2941 C2942 1.392 1_655 S
C2941 C2945 1.495 . S
C2942 C2941 1.392 1_455 S
C2942 C2943 1.385 . S
C2942 C2944 1.478 . S
C2943 H2937 0.930 . S
C2943 C2939 1.400 . S
C2943 C2942 1.385 . S
C2944 C2942 1.478 . S
C2944 C2946 1.381 . S
C2944 C2950 1.383 . S
C2945 C2941 1.495 . S
C2945 H2951 0.959 . S
C2945 H2952 0.961 . S
C2945 H2953 0.960 . S
C2946 C2944 1.381 . S
C2946 C2947 1.394 . S
C2946 H2954 0.930 . S
C2947 C2946 1.394 . S
C2947 C2948 1.383 . S
C2947 H2955 0.929 . S
C2948 C2947 1.383 . S
C2948 C2949 1.377 . S
C2949 H2933 0.930 . S
C2949 C2948 1.377 . S
C2949 C2950 1.379 . S
C2950 H2934 0.931 . S
C2950 C2944 1.383 . S
C2950 C2949 1.379 . S
H2951 C2945 0.959 . S
H2952 C2945 0.961 . S
H2953 C2945 0.960 . S
H2954 C2946 0.930 . S
H2955 C2947 0.929 . S
H2956 C2964 0.929 . S
H2957 C2966 0.930 . S
H2958 C2968 0.930 . S
H2959 C2971 0.929 . S
H2960 C2974 0.930 . S
H2961 C2976 0.960 . S
H2962 C2976 0.960 . S
H2963 C2976 0.960 . S
C2964 H2956 0.929 . S
C2964 C2965 1.377 . S
C2964 C2966 1.384 . S
C2965 C2964 1.377 . S
C2965 C2971 1.390 . S
C2966 H2957 0.930 . S
C2966 C2964 1.384 . S
C2966 C2967 1.372 . S
C2967 C2966 1.372 . S
C2967 C2968 1.400 . S
C2967 C2972 1.490 . S
C2968 H2958 0.930 . S
C2968 C2967 1.400 . S
C2968 C2971 1.386 . S
H2969 C2985 0.930 . S
H2970 C2986 0.931 . S
C2971 H2959 0.929 . S
C2971 C2965 1.390 . S
C2971 C2968 1.386 . S
C2972 C2967 1.490 . S
C2972 C2974 1.395 . S
C2972 C2975 1.403 . S
H2973 C2979 0.930 . S
C2974 H2960 0.930 . S
C2974 C2972 1.395 . S
C2974 C2977 1.403 . S
C2975 C2972 1.403 . S
C2975 C2976 1.524 . S
C2975 C2979 1.400 . S
C2976 H2961 0.960 . S
C2976 H2962 0.960 . S
C2976 H2963 0.960 . S
C2976 C2975 1.524 . S
C2977 C2974 1.403 . S
C2977 C2978 1.392 . S
C2977 C2981 1.495 . S
C2978 C2977 1.392 . S
C2978 C2979 1.385 . S
C2978 C2980 1.478 . S
C2979 H2973 0.930 . S
C2979 C2975 1.400 . S
C2979 C2978 1.385 . S
C2980 C2978 1.478 . S
C2980 C2982 1.381 . S
C2980 C2986 1.383 . S
C2981 C2977 1.495 . S
C2981 H2987 0.959 . S
C2981 H2988 0.961 . S
C2981 H2989 0.960 . S
C2982 C2980 1.381 . S
C2982 C2983 1.394 . S
C2982 H2990 0.930 . S
C2983 C2982 1.394 . S
C2983 C2984 1.383 . S
C2983 H2991 0.929 . S
C2984 C2983 1.383 . S
C2984 C2985 1.377 . S
C2985 H2969 0.930 . S
C2985 C2984 1.377 . S
C2985 C2986 1.379 . S
C2986 H2970 0.931 . S
C2986 C2980 1.383 . S
C2986 C2985 1.379 . S
H2987 C2981 0.959 . S
H2988 C2981 0.961 . S
H2989 C2981 0.960 . S
H2990 C2982 0.930 . S
H2991 C2983 0.929 . S
H2992 C3000 0.929 . S
H2993 C3002 0.930 . S
H2994 C3004 0.930 . S
H2995 C3007 0.929 . S
H2996 C3010 0.930 . S
H2997 C3012 0.960 . S
H2998 C3012 0.960 . S
H2999 C3012 0.960 . S
C3000 H2992 0.929 . S
C3000 C3001 1.377 . S
C3000 C3002 1.384 . S
C3001 C3000 1.377 . S
C3001 C3007 1.390 . S
C3002 H2993 0.930 . S
C3002 C3000 1.384 . S
C3002 C3003 1.372 . S
C3003 C3002 1.372 . S
C3003 C3004 1.400 . S
C3003 C3008 1.490 . S
C3004 H2994 0.930 . S
C3004 C3003 1.400 . S
C3004 C3007 1.386 . S
H3005 C3021 0.930 . S
H3006 C3022 0.931 . S
C3007 H2995 0.929 . S
C3007 C3001 1.390 . S
C3007 C3004 1.386 . S
C3008 C3003 1.490 . S
C3008 C3010 1.395 . S
C3008 C3011 1.403 . S
H3009 C3015 0.930 . S
C3010 H2996 0.930 . S
C3010 C3008 1.395 . S
C3010 C3013 1.403 . S
C3011 C3008 1.403 . S
C3011 C3012 1.524 . S
C3011 C3015 1.400 . S
C3012 H2997 0.960 . S
C3012 H2998 0.960 . S
C3012 H2999 0.960 . S
C3012 C3011 1.524 . S
C3013 C3010 1.403 . S
C3013 C3014 1.392 . S
C3013 C3017 1.495 . S
C3014 C3013 1.392 . S
C3014 C3015 1.385 . S
C3014 C3016 1.478 . S
C3015 H3009 0.930 . S
C3015 C3011 1.400 . S
C3015 C3014 1.385 . S
C3016 C3014 1.478 . S
C3016 C3018 1.381 . S
C3016 C3022 1.383 . S
C3017 C3013 1.495 . S
C3017 H3023 0.959 . S
C3017 H3024 0.961 . S
C3017 H3025 0.960 . S
C3018 C3016 1.381 . S
C3018 C3019 1.394 . S
C3018 H3026 0.930 . S
C3019 C3018 1.394 . S
C3019 C3020 1.383 . S
C3019 H3027 0.929 . S
C3020 C3019 1.383 . S
C3020 C3021 1.377 . S
C3021 H3005 0.930 . S
C3021 C3020 1.377 . S
C3021 C3022 1.379 . S
C3022 H3006 0.931 . S
C3022 C3016 1.383 . S
C3022 C3021 1.379 . S
H3023 C3017 0.959 . S
H3024 C3017 0.961 . S
H3025 C3017 0.960 . S
H3026 C3018 0.930 . S
H3027 C3019 0.929 . S
H3028 C3036 0.929 . S
H3029 C3038 0.930 . S
H3030 C3040 0.930 . S
H3031 C3043 0.929 . S
H3032 C3046 0.930 . S
H3033 C3048 0.960 . S
H3034 C3048 0.960 . S
H3035 C3048 0.960 . S
C3036 H3028 0.929 . S
C3036 C3037 1.377 . S
C3036 C3038 1.384 . S
C3037 C3036 1.377 . S
C3037 C3043 1.390 . S
C3038 H3029 0.930 . S
C3038 C3036 1.384 . S
C3038 C3039 1.372 . S
C3039 C3038 1.372 . S
C3039 C3040 1.400 . S
C3039 C3044 1.490 . S
C3040 H3030 0.930 . S
C3040 C3039 1.400 . S
C3040 C3043 1.386 . S
H3041 C3057 0.930 . S
H3042 C3058 0.931 . S
C3043 H3031 0.929 . S
C3043 C3037 1.390 . S
C3043 C3040 1.386 . S
C3044 C3039 1.490 . S
C3044 C3046 1.395 . S
C3044 C3047 1.403 . S
H3045 C3051 0.930 . S
C3046 H3032 0.930 . S
C3046 C3044 1.395 . S
C3046 C3049 1.403 . S
C3047 C3044 1.403 . S
C3047 C3048 1.524 . S
C3047 C3051 1.400 . S
C3048 H3033 0.960 . S
C3048 H3034 0.960 . S
C3048 H3035 0.960 . S
C3048 C3047 1.524 . S
C3049 C3046 1.403 . S
C3049 C3050 1.392 . S
C3049 C3053 1.495 . S
C3050 C3049 1.392 . S
C3050 C3051 1.385 . S
C3050 C3052 1.478 . S
C3051 H3045 0.930 . S
C3051 C3047 1.400 . S
C3051 C3050 1.385 . S
C3052 C3050 1.478 . S
C3052 C3054 1.381 . S
C3052 C3058 1.383 . S
C3053 C3049 1.495 . S
C3053 H3059 0.959 . S
C3053 H3060 0.961 . S
C3053 H3061 0.960 . S
C3054 C3052 1.381 . S
C3054 C3055 1.394 . S
C3054 H3062 0.930 . S
C3055 C3054 1.394 . S
C3055 C3056 1.383 . S
C3055 H3063 0.929 . S
C3056 C3055 1.383 . S
C3056 C3057 1.377 . S
C3057 H3041 0.930 . S
C3057 C3056 1.377 . S
C3057 C3058 1.379 . S
C3058 H3042 0.931 . S
C3058 C3052 1.383 . S
C3058 C3057 1.379 . S
H3059 C3053 0.959 . S
H3060 C3053 0.961 . S
H3061 C3053 0.960 . S
H3062 C3054 0.930 . S
H3063 C3055 0.929 . S
H3064 C3072 0.929 . S
H3065 C3074 0.930 . S
H3066 C3076 0.930 . S
H3067 C3079 0.929 . S
H3068 C3082 0.930 . S
H3069 C3084 0.960 . S
H3070 C3084 0.960 . S
H3071 C3084 0.960 . S
C3072 H3064 0.929 . S
C3072 C3073 1.377 . S
C3072 C3074 1.384 . S
C3073 C3072 1.377 . S
C3073 C3079 1.390 . S
C3074 H3065 0.930 . S
C3074 C3072 1.384 . S
C3074 C3075 1.372 . S
C3075 C3074 1.372 . S
C3075 C3076 1.400 . S
C3075 C3080 1.490 . S
C3076 H3066 0.930 . S
C3076 C3075 1.400 . S
C3076 C3079 1.386 . S
H3077 C3093 0.930 . S
H3078 C3094 0.931 . S
C3079 H3067 0.929 . S
C3079 C3073 1.390 . S
C3079 C3076 1.386 . S
C3080 C3075 1.490 . S
C3080 C3082 1.395 . S
C3080 C3083 1.403 . S
H3081 C3087 0.930 . S
C3082 H3068 0.930 . S
C3082 C3080 1.395 . S
C3082 C3085 1.403 . S
C3083 C3080 1.403 . S
C3083 C3084 1.524 . S
C3083 C3087 1.400 . S
C3084 H3069 0.960 . S
C3084 H3070 0.960 . S
C3084 H3071 0.960 . S
C3084 C3083 1.524 . S
C3085 C3082 1.403 . S
C3085 C3086 1.392 . S
C3085 C3089 1.495 . S
C3086 C3085 1.392 . S
C3086 C3087 1.385 . S
C3086 C3088 1.478 . S
C3087 H3081 0.930 . S
C3087 C3083 1.400 . S
C3087 C3086 1.385 . S
C3088 C3086 1.478 . S
C3088 C3090 1.381 . S
C3088 C3094 1.383 . S
C3089 C3085 1.495 . S
C3089 H3095 0.959 . S
C3089 H3096 0.961 . S
C3089 H3097 0.960 . S
C3090 C3088 1.381 . S
C3090 C3091 1.394 . S
C3090 H3098 0.930 . S
C3091 C3090 1.394 . S
C3091 C3092 1.383 . S
C3091 H3099 0.929 . S
C3092 C3091 1.383 . S
C3092 C3093 1.377 . S
C3093 H3077 0.930 . S
C3093 C3092 1.377 . S
C3093 C3094 1.379 . S
C3094 H3078 0.931 . S
C3094 C3088 1.383 . S
C3094 C3093 1.379 . S
H3095 C3089 0.959 . S
H3096 C3089 0.961 . S
H3097 C3089 0.960 . S
H3098 C3090 0.930 . S
H3099 C3091 0.929 . S
H3100 C3108 0.929 . S
H3101 C3110 0.930 . S
H3102 C3112 0.930 . S
H3103 C3115 0.929 . S
H3104 C3118 0.930 . S
H3105 C3120 0.960 . S
H3106 C3120 0.960 . S
H3107 C3120 0.960 . S
C3108 H3100 0.929 . S
C3108 C3109 1.377 . S
C3108 C3110 1.384 . S
C3109 C3108 1.377 . S
C3109 C3115 1.390 . S
C3110 H3101 0.930 . S
C3110 C3108 1.384 . S
C3110 C3111 1.372 . S
C3111 C3110 1.372 . S
C3111 C3112 1.400 . S
C3111 C3116 1.490 . S
C3112 H3102 0.930 . S
C3112 C3111 1.400 . S
C3112 C3115 1.386 . S
H3113 C3129 0.930 . S
H3114 C3130 0.931 . S
C3115 H3103 0.929 . S
C3115 C3109 1.390 . S
C3115 C3112 1.386 . S
C3116 C3111 1.490 . S
C3116 C3118 1.395 . S
C3116 C3119 1.403 . S
H3117 C3123 0.930 . S
C3118 H3104 0.930 . S
C3118 C3116 1.395 . S
C3118 C3121 1.403 . S
C3119 C3116 1.403 . S
C3119 C3120 1.524 . S
C3119 C3123 1.400 . S
C3120 H3105 0.960 . S
C3120 H3106 0.960 . S
C3120 H3107 0.960 . S
C3120 C3119 1.524 . S
C3121 C3118 1.403 . S
C3121 C3122 1.392 . S
C3121 C3125 1.495 . S
C3122 C3121 1.392 . S
C3122 C3123 1.385 . S
C3122 C3124 1.478 . S
C3123 H3117 0.930 . S
C3123 C3119 1.400 . S
C3123 C3122 1.385 . S
C3124 C3122 1.478 . S
C3124 C3126 1.381 . S
C3124 C3130 1.383 . S
C3125 C3121 1.495 . S
C3125 H3131 0.959 . S
C3125 H3132 0.961 . S
C3125 H3133 0.960 . S
C3126 C3124 1.381 . S
C3126 C3127 1.394 . S
C3126 H3134 0.930 . S
C3127 C3126 1.394 . S
C3127 C3128 1.383 . S
C3127 H3135 0.929 . S
C3128 C3127 1.383 . S
C3128 C3129 1.377 . S
C3129 H3113 0.930 . S
C3129 C3128 1.377 . S
C3129 C3130 1.379 . S
C3130 H3114 0.931 . S
C3130 C3124 1.383 . S
C3130 C3129 1.379 . S
H3131 C3125 0.959 . S
H3132 C3125 0.961 . S
H3133 C3125 0.960 . S
H3134 C3126 0.930 . S
H3135 C3127 0.929 . S
H3136 C3144 0.929 . S
H3137 C3146 0.930 . S
H3138 C3148 0.930 . S
H3139 C3151 0.929 . S
H3140 C3154 0.930 . S
H3141 C3156 0.960 . S
H3142 C3156 0.960 . S
H3143 C3156 0.960 . S
C3144 H3136 0.929 . S
C3144 C3145 1.377 . S
C3144 C3146 1.384 . S
C3145 C3144 1.377 . S
C3145 C3151 1.390 . S
C3146 H3137 0.930 . S
C3146 C3144 1.384 . S
C3146 C3147 1.372 . S
C3147 C3146 1.372 . S
C3147 C3148 1.400 . S
C3147 C3152 1.490 . S
C3148 H3138 0.930 . S
C3148 C3147 1.400 . S
C3148 C3151 1.386 . S
H3149 C3165 0.930 . S
H3150 C3166 0.931 . S
C3151 H3139 0.929 . S
C3151 C3145 1.390 . S
C3151 C3148 1.386 . S
C3152 C3147 1.490 . S
C3152 C3154 1.395 . S
C3152 C3155 1.403 . S
H3153 C3159 0.930 . S
C3154 H3140 0.930 . S
C3154 C3152 1.395 . S
C3154 C3157 1.403 . S
C3155 C3152 1.403 . S
C3155 C3156 1.524 . S
C3155 C3159 1.400 . S
C3156 H3141 0.960 . S
C3156 H3142 0.960 . S
C3156 H3143 0.960 . S
C3156 C3155 1.524 . S
C3157 C3154 1.403 . S
C3157 C3158 1.392 . S
C3157 C3161 1.495 . S
C3158 C3157 1.392 . S
C3158 C3159 1.385 . S
C3158 C3160 1.478 . S
C3159 H3153 0.930 . S
C3159 C3155 1.400 . S
C3159 C3158 1.385 . S
C3160 C3158 1.478 . S
C3160 C3162 1.381 . S
C3160 C3166 1.383 . S
C3161 C3157 1.495 . S
C3161 H3167 0.959 . S
C3161 H3168 0.961 . S
C3161 H3169 0.960 . S
C3162 C3160 1.381 . S
C3162 C3163 1.394 . S
C3162 H3170 0.930 . S
C3163 C3162 1.394 . S
C3163 C3164 1.383 . S
C3163 H3171 0.929 . S
C3164 C3163 1.383 . S
C3164 C3165 1.377 . S
C3165 H3149 0.930 . S
C3165 C3164 1.377 . S
C3165 C3166 1.379 . S
C3166 H3150 0.931 . S
C3166 C3160 1.383 . S
C3166 C3165 1.379 . S
H3167 C3161 0.959 . S
H3168 C3161 0.961 . S
H3169 C3161 0.960 . S
H3170 C3162 0.930 . S
H3171 C3163 0.929 . S
H3172 C3180 0.929 . S
H3173 C3182 0.930 . S
H3174 C3184 0.930 . S
H3175 C3187 0.929 . S
H3176 C3190 0.930 . S
H3177 C3192 0.960 . S
H3178 C3192 0.960 . S
H3179 C3192 0.960 . S
C3180 H3172 0.929 . S
C3180 C3181 1.377 . S
C3180 C3182 1.384 . S
C3181 C3180 1.377 . S
C3181 C3187 1.390 . S
C3182 H3173 0.930 . S
C3182 C3180 1.384 . S
C3182 C3183 1.372 . S
C3183 C3182 1.372 . S
C3183 C3184 1.400 . S
C3183 C3188 1.490 . S
C3184 H3174 0.930 . S
C3184 C3183 1.400 . S
C3184 C3187 1.386 . S
H3185 C3201 0.930 . S
H3186 C3202 0.931 . S
C3187 H3175 0.929 . S
C3187 C3181 1.390 . S
C3187 C3184 1.386 . S
C3188 C3183 1.490 . S
C3188 C3190 1.395 . S
C3188 C3191 1.403 . S
H3189 C3195 0.930 . S
C3190 H3176 0.930 . S
C3190 C3188 1.395 . S
C3190 C3193 1.403 . S
C3191 C3188 1.403 . S
C3191 C3192 1.524 . S
C3191 C3195 1.400 . S
C3192 H3177 0.960 . S
C3192 H3178 0.960 . S
C3192 H3179 0.960 . S
C3192 C3191 1.524 . S
C3193 C3190 1.403 . S
C3193 C3194 1.392 . S
C3193 C3197 1.495 . S
C3194 C3193 1.392 . S
C3194 C3195 1.385 . S
C3194 C3196 1.478 . S
C3195 H3189 0.930 . S
C3195 C3191 1.400 . S
C3195 C3194 1.385 . S
C3196 C3194 1.478 . S
C3196 C3198 1.381 . S
C3196 C3202 1.383 . S
C3197 C3193 1.495 . S
C3197 H3203 0.959 . S
C3197 H3204 0.961 . S
C3197 H3205 0.960 . S
C3198 C3196 1.381 . S
C3198 C3199 1.394 . S
C3198 H3206 0.930 . S
C3199 C3198 1.394 . S
C3199 C3200 1.383 . S
C3199 H3207 0.929 . S
C3200 C3199 1.383 . S
C3200 C3201 1.377 . S
C3201 H3185 0.930 . S
C3201 C3200 1.377 . S
C3201 C3202 1.379 . S
C3202 H3186 0.931 . S
C3202 C3196 1.383 . S
C3202 C3201 1.379 . S
H3203 C3197 0.959 . S
H3204 C3197 0.961 . S
H3205 C3197 0.960 . S
H3206 C3198 0.930 . S
H3207 C3199 0.929 . S
H3208 C3216 0.929 . S
H3209 C3218 0.930 . S
H3210 C3220 0.930 . S
H3211 C3223 0.929 . S
H3212 C3226 0.930 . S
H3213 C3228 0.960 . S
H3214 C3228 0.960 . S
H3215 C3228 0.960 . S
C3216 H3208 0.929 . S
C3216 C3217 1.377 . S
C3216 C3218 1.384 . S
C3217 C3216 1.377 . S
C3217 C3223 1.390 . S
C3218 H3209 0.930 . S
C3218 C3216 1.384 . S
C3218 C3219 1.372 . S
C3219 C3218 1.372 . S
C3219 C3220 1.400 . S
C3219 C3224 1.490 . S
C3220 H3210 0.930 . S
C3220 C3219 1.400 . S
C3220 C3223 1.386 . S
H3221 C3237 0.930 . S
H3222 C3238 0.931 . S
C3223 H3211 0.929 . S
C3223 C3217 1.390 . S
C3223 C3220 1.386 . S
C3224 C3219 1.490 . S
C3224 C3226 1.395 . S
C3224 C3227 1.403 . S
H3225 C3231 0.930 . S
C3226 H3212 0.930 . S
C3226 C3224 1.395 . S
C3226 C3229 1.403 . S
C3227 C3224 1.403 . S
C3227 C3228 1.524 . S
C3227 C3231 1.400 . S
C3228 H3213 0.960 . S
C3228 H3214 0.960 . S
C3228 H3215 0.960 . S
C3228 C3227 1.524 . S
C3229 C3226 1.403 . S
C3229 C3230 1.392 . S
C3229 C3233 1.495 . S
C3230 C3229 1.392 . S
C3230 C3231 1.385 . S
C3230 C3232 1.478 . S
C3231 H3225 0.930 . S
C3231 C3227 1.400 . S
C3231 C3230 1.385 . S
C3232 C3230 1.478 . S
C3232 C3234 1.381 . S
C3232 C3238 1.383 . S
C3233 C3229 1.495 . S
C3233 H3239 0.959 . S
C3233 H3240 0.961 . S
C3233 H3241 0.960 . S
C3234 C3232 1.381 . S
C3234 C3235 1.394 . S
C3234 H3242 0.930 . S
C3235 C3234 1.394 . S
C3235 C3236 1.383 . S
C3235 H3243 0.929 . S
C3236 C3235 1.383 . S
C3236 C3237 1.377 . S
C3237 H3221 0.930 . S
C3237 C3236 1.377 . S
C3237 C3238 1.379 . S
C3238 H3222 0.931 . S
C3238 C3232 1.383 . S
C3238 C3237 1.379 . S
H3239 C3233 0.959 . S
H3240 C3233 0.961 . S
H3241 C3233 0.960 . S
H3242 C3234 0.930 . S
H3243 C3235 0.929 . S
H3244 C3252 0.929 . S
H3245 C3254 0.930 . S
H3246 C3256 0.930 . S
H3247 C3259 0.929 . S
H3248 C3262 0.930 . S
H3249 C3264 0.960 . S
H3250 C3264 0.960 . S
H3251 C3264 0.960 . S
C3252 H3244 0.929 . S
C3252 C3253 1.377 . S
C3252 C3254 1.384 . S
C3253 C3252 1.377 . S
C3253 C3259 1.390 . S
C3254 H3245 0.930 . S
C3254 C3252 1.384 . S
C3254 C3255 1.372 . S
C3255 C3254 1.372 . S
C3255 C3256 1.400 . S
C3255 C3260 1.490 . S
C3256 H3246 0.930 . S
C3256 C3255 1.400 . S
C3256 C3259 1.386 . S
H3257 C3273 0.930 . S
H3258 C3274 0.931 . S
C3259 H3247 0.929 . S
C3259 C3253 1.390 . S
C3259 C3256 1.386 . S
C3260 C3255 1.490 . S
C3260 C3262 1.395 . S
C3260 C3263 1.403 . S
H3261 C3267 0.930 . S
C3262 H3248 0.930 . S
C3262 C3260 1.395 . S
C3262 C3265 1.403 . S
C3263 C3260 1.403 . S
C3263 C3264 1.524 . S
C3263 C3267 1.400 . S
C3264 H3249 0.960 . S
C3264 H3250 0.960 . S
C3264 H3251 0.960 . S
C3264 C3263 1.524 . S
C3265 C3262 1.403 . S
C3265 C3266 1.392 . S
C3265 C3269 1.495 . S
C3266 C3265 1.392 . S
C3266 C3267 1.385 . S
C3266 C3268 1.478 . S
C3267 H3261 0.930 . S
C3267 C3263 1.400 . S
C3267 C3266 1.385 . S
C3268 C3266 1.478 . S
C3268 C3270 1.381 . S
C3268 C3274 1.383 . S
C3269 C3265 1.495 . S
C3269 H3275 0.959 . S
C3269 H3276 0.961 . S
C3269 H3277 0.960 . S
C3270 C3268 1.381 . S
C3270 C3271 1.394 . S
C3270 H3278 0.930 . S
C3271 C3270 1.394 . S
C3271 C3272 1.383 . S
C3271 H3279 0.929 . S
C3272 C3271 1.383 . S
C3272 C3273 1.377 . S
C3273 H3257 0.930 . S
C3273 C3272 1.377 . S
C3273 C3274 1.379 . S
C3274 H3258 0.931 . S
C3274 C3268 1.383 . S
C3274 C3273 1.379 . S
H3275 C3269 0.959 . S
H3276 C3269 0.961 . S
H3277 C3269 0.960 . S
H3278 C3270 0.930 . S
H3279 C3271 0.929 . S
H3280 C3288 0.929 . S
H3281 C3290 0.930 . S
H3282 C3292 0.930 . S
H3283 C3295 0.929 . S
H3284 C3298 0.930 . S
H3285 C3300 0.960 . S
H3286 C3300 0.960 . S
H3287 C3300 0.960 . S
C3288 H3280 0.929 . S
C3288 C3289 1.377 . S
C3288 C3290 1.384 . S
C3289 C3288 1.377 . S
C3289 C3295 1.390 . S
C3290 H3281 0.930 . S
C3290 C3288 1.384 . S
C3290 C3291 1.372 . S
C3291 C3290 1.372 . S
C3291 C3292 1.400 . S
C3291 C3296 1.490 . S
C3292 H3282 0.930 . S
C3292 C3291 1.400 . S
C3292 C3295 1.386 . S
H3293 C3309 0.930 . S
H3294 C3310 0.931 . S
C3295 H3283 0.929 . S
C3295 C3289 1.390 . S
C3295 C3292 1.386 . S
C3296 C3291 1.490 . S
C3296 C3298 1.395 . S
C3296 C3299 1.403 . S
H3297 C3303 0.930 . S
C3298 H3284 0.930 . S
C3298 C3296 1.395 . S
C3298 C3301 1.403 . S
C3299 C3296 1.403 . S
C3299 C3300 1.524 . S
C3299 C3303 1.400 . S
C3300 H3285 0.960 . S
C3300 H3286 0.960 . S
C3300 H3287 0.960 . S
C3300 C3299 1.524 . S
C3301 C3298 1.403 . S
C3301 C3302 1.392 . S
C3301 C3305 1.495 . S
C3302 C3301 1.392 . S
C3302 C3303 1.385 . S
C3302 C3304 1.478 . S
C3303 H3297 0.930 . S
C3303 C3299 1.400 . S
C3303 C3302 1.385 . S
C3304 C3302 1.478 . S
C3304 C3306 1.381 . S
C3304 C3310 1.383 . S
C3305 C3301 1.495 . S
C3305 H3311 0.959 . S
C3305 H3312 0.961 . S
C3305 H3313 0.960 . S
C3306 C3304 1.381 . S
C3306 C3307 1.394 . S
C3306 H3314 0.930 . S
C3307 C3306 1.394 . S
C3307 C3308 1.383 . S
C3307 H3315 0.929 . S
C3308 C3307 1.383 . S
C3308 C3309 1.377 . S
C3309 H3293 0.930 . S
C3309 C3308 1.377 . S
C3309 C3310 1.379 . S
C3310 H3294 0.931 . S
C3310 C3304 1.383 . S
C3310 C3309 1.379 . S
H3311 C3305 0.959 . S
H3312 C3305 0.961 . S
H3313 C3305 0.960 . S
H3314 C3306 0.930 . S
H3315 C3307 0.929 . S
H3316 C3324 0.929 . S
H3317 C3326 0.930 . S
H3318 C3328 0.930 . S
H3319 C3331 0.929 . S
H3320 C3334 0.930 . S
H3321 C3336 0.960 . S
H3322 C3336 0.960 . S
H3323 C3336 0.960 . S
C3324 H3316 0.929 . S
C3324 C3325 1.377 . S
C3324 C3326 1.384 . S
C3325 C3324 1.377 . S
C3325 C3331 1.390 . S
C3326 H3317 0.930 . S
C3326 C3324 1.384 . S
C3326 C3327 1.372 . S
C3327 C3326 1.372 . S
C3327 C3328 1.400 . S
C3327 C3332 1.490 . S
C3328 H3318 0.930 . S
C3328 C3327 1.400 . S
C3328 C3331 1.386 . S
H3329 C3345 0.930 . S
H3330 C3346 0.931 . S
C3331 H3319 0.929 . S
C3331 C3325 1.390 . S
C3331 C3328 1.386 . S
C3332 C3327 1.490 . S
C3332 C3334 1.395 . S
C3332 C3335 1.403 . S
H3333 C3339 0.930 . S
C3334 H3320 0.930 . S
C3334 C3332 1.395 . S
C3334 C3337 1.403 . S
C3335 C3332 1.403 . S
C3335 C3336 1.524 . S
C3335 C3339 1.400 . S
C3336 H3321 0.960 . S
C3336 H3322 0.960 . S
C3336 H3323 0.960 . S
C3336 C3335 1.524 . S
C3337 C3334 1.403 . S
C3337 C3338 1.392 . S
C3337 C3341 1.495 . S
C3338 C3337 1.392 . S
C3338 C3339 1.385 . S
C3338 C3340 1.478 . S
C3339 H3333 0.930 . S
C3339 C3335 1.400 . S
C3339 C3338 1.385 . S
C3340 C3338 1.478 . S
C3340 C3342 1.381 . S
C3340 C3346 1.383 . S
C3341 C3337 1.495 . S
C3341 H3347 0.959 . S
C3341 H3348 0.961 . S
C3341 H3349 0.960 . S
C3342 C3340 1.381 . S
C3342 C3343 1.394 . S
C3342 H3350 0.930 . S
C3343 C3342 1.394 . S
C3343 C3344 1.383 . S
C3343 H3351 0.929 . S
C3344 C3343 1.383 . S
C3344 C3345 1.377 . S
C3345 H3329 0.930 . S
C3345 C3344 1.377 . S
C3345 C3346 1.379 . S
C3346 H3330 0.931 . S
C3346 C3340 1.383 . S
C3346 C3345 1.379 . S
H3347 C3341 0.959 . S
H3348 C3341 0.961 . S
H3349 C3341 0.960 . S
H3350 C3342 0.930 . S
H3351 C3343 0.929 . S
H3352 C3360 0.929 . S
H3353 C3362 0.930 . S
H3354 C3364 0.930 . S
H3355 C3367 0.929 . S
H3356 C3370 0.930 . S
H3357 C3372 0.960 . S
H3358 C3372 0.960 . S
H3359 C3372 0.960 . S
C3360 H3352 0.929 . S
C3360 C3361 1.377 . S
C3360 C3362 1.384 . S
C3361 C3360 1.377 . S
C3361 C3367 1.390 . S
C3362 H3353 0.930 . S
C3362 C3360 1.384 . S
C3362 C3363 1.372 . S
C3363 C3362 1.372 . S
C3363 C3364 1.400 . S
C3363 C3368 1.490 . S
C3364 H3354 0.930 . S
C3364 C3363 1.400 . S
C3364 C3367 1.386 . S
H3365 C3381 0.930 . S
H3366 C3382 0.931 . S
C3367 H3355 0.929 . S
C3367 C3361 1.390 . S
C3367 C3364 1.386 . S
C3368 C3363 1.490 . S
C3368 C3370 1.395 . S
C3368 C3371 1.403 . S
H3369 C3375 0.930 . S
C3370 H3356 0.930 . S
C3370 C3368 1.395 . S
C3370 C3373 1.403 . S
C3371 C3368 1.403 . S
C3371 C3372 1.524 . S
C3371 C3375 1.400 . S
C3372 H3357 0.960 . S
C3372 H3358 0.960 . S
C3372 H3359 0.960 . S
C3372 C3371 1.524 . S
C3373 C3370 1.403 . S
C3373 C3374 1.392 . S
C3373 C3377 1.495 . S
C3374 C3373 1.392 . S
C3374 C3375 1.385 . S
C3374 C3376 1.478 . S
C3375 H3369 0.930 . S
C3375 C3371 1.400 . S
C3375 C3374 1.385 . S
C3376 C3374 1.478 . S
C3376 C3378 1.381 . S
C3376 C3382 1.383 . S
C3377 C3373 1.495 . S
C3377 H3383 0.959 . S
C3377 H3384 0.961 . S
C3377 H3385 0.960 . S
C3378 C3376 1.381 . S
C3378 C3379 1.394 . S
C3378 H3386 0.930 . S
C3379 C3378 1.394 . S
C3379 C3380 1.383 . S
C3379 H3387 0.929 . S
C3380 C3379 1.383 . S
C3380 C3381 1.377 . S
C3381 H3365 0.930 . S
C3381 C3380 1.377 . S
C3381 C3382 1.379 . S
C3382 H3366 0.931 . S
C3382 C3376 1.383 . S
C3382 C3381 1.379 . S
H3383 C3377 0.959 . S
H3384 C3377 0.961 . S
H3385 C3377 0.960 . S
H3386 C3378 0.930 . S
H3387 C3379 0.929 . S
H3388 C3396 0.951 . S
H3389 C3398 0.903 1_556 S
H3390 C3400 0.930 . S
H3391 C3403 0.929 . S
H3392 C3406 0.930 . S
H3393 C3408 0.960 . S
H3394 C3408 0.960 1_556 S
H3395 C3408 0.960 . S
C3396 H3388 0.951 . S
C3396 C3397 1.352 1_556 S
C3396 C3398 1.394 1_556 S
C3397 C3396 1.352 1_554 S
C3397 C3403 1.390 . S
C3398 H3389 0.903 1_554 S
C3398 C3396 1.394 1_554 S
C3398 C3399 1.395 . S
C3399 C3398 1.395 . S
C3399 C3400 1.400 . S
C3399 C3404 1.490 . S
C3400 H3390 0.930 . S
C3400 C3399 1.400 . S
C3400 C3403 1.386 . S
H3401 C3417 0.930 . S
H3402 C3418 0.931 . S
C3403 H3391 0.929 . S
C3403 C3397 1.390 . S
C3403 C3400 1.386 . S
C3404 C3399 1.490 . S
C3404 C3406 1.395 . S
C3404 C3407 1.403 . S
H3405 C3411 0.930 . S
C3406 H3392 0.930 . S
C3406 C3404 1.395 . S
C3406 C3409 1.403 . S
C3407 C3404 1.403 . S
C3407 C3408 1.524 . S
C3407 C3411 1.400 . S
C3408 H3393 0.960 . S
C3408 H3394 0.960 1_554 S
C3408 H3395 0.960 . S
C3408 C3407 1.524 . S
C3409 C3406 1.403 . S
C3409 C3410 1.392 . S
C3409 C3413 1.495 1_565 S
C3410 C3409 1.392 . S
C3410 C3411 1.385 . S
C3410 C3412 1.477 . S
C3411 H3405 0.930 . S
C3411 C3407 1.400 . S
C3411 C3410 1.385 . S
C3412 C3410 1.477 . S
C3412 C3414 1.383 1_565 S
C3412 C3418 1.381 . S
C3413 C3409 1.495 1_545 S
C3413 H3419 0.959 . S
C3413 H3420 0.961 . S
C3413 H3421 0.960 . S
C3414 C3412 1.383 1_545 S
C3414 C3415 1.394 . S
C3414 H3422 0.930 1_554 S
C3415 C3414 1.394 . S
C3415 C3416 1.383 . S
C3415 H3423 0.930 1_554 S
C3416 C3415 1.383 . S
C3416 C3417 1.377 . S
C3417 H3401 0.930 . S
C3417 C3416 1.377 . S
C3417 C3418 1.379 1_545 S
C3418 H3402 0.931 . S
C3418 C3412 1.381 . S
C3418 C3417 1.379 1_565 S
H3419 C3413 0.959 . S
H3420 C3413 0.961 . S
H3421 C3413 0.960 . S
H3422 C3414 0.930 1_556 S
H3423 C3415 0.930 1_556 S
H3424 C3432 0.929 . S
H3425 C3434 0.930 . S
H3426 C3436 0.930 . S
H3427 C3439 0.929 . S
H3428 C3442 0.930 . S
H3429 C3444 0.960 . S
H3430 C3444 0.960 . S
H3431 C3444 0.960 . S
C3432 H3424 0.929 . S
C3432 C3433 1.377 . S
C3432 C3434 1.384 . S
C3433 C3432 1.377 . S
C3433 C3439 1.390 . S
C3434 H3425 0.930 . S
C3434 C3432 1.384 . S
C3434 C3435 1.372 . S
C3435 C3434 1.372 . S
C3435 C3436 1.400 . S
C3435 C3440 1.490 . S
C3436 H3426 0.930 . S
C3436 C3435 1.400 . S
C3436 C3439 1.386 . S
H3437 C3453 0.930 . S
H3438 C3454 0.931 . S
C3439 H3427 0.929 . S
C3439 C3433 1.390 . S
C3439 C3436 1.386 . S
C3440 C3435 1.490 . S
C3440 C3442 1.395 . S
C3440 C3443 1.403 . S
H3441 C3447 0.930 . S
C3442 H3428 0.930 . S
C3442 C3440 1.395 . S
C3442 C3445 1.403 . S
C3443 C3440 1.403 . S
C3443 C3444 1.524 . S
C3443 C3447 1.400 . S
C3444 H3429 0.960 . S
C3444 H3430 0.960 . S
C3444 H3431 0.960 . S
C3444 C3443 1.524 . S
C3445 C3442 1.403 . S
C3445 C3446 1.392 . S
C3445 C3449 1.495 . S
C3446 C3445 1.392 . S
C3446 C3447 1.385 . S
C3446 C3448 1.478 . S
C3447 H3441 0.930 . S
C3447 C3443 1.400 . S
C3447 C3446 1.385 . S
C3448 C3446 1.478 . S
C3448 C3450 1.381 . S
C3448 C3454 1.383 . S
C3449 C3445 1.495 . S
C3449 H3455 0.959 . S
C3449 H3456 0.961 . S
C3449 H3457 0.960 . S
C3450 C3448 1.381 . S
C3450 C3451 1.394 . S
C3450 H3458 0.930 . S
C3451 C3450 1.394 . S
C3451 C3452 1.383 . S
C3451 H3459 0.929 . S
C3452 C3451 1.383 . S
C3452 C3453 1.377 . S
C3453 H3437 0.930 . S
C3453 C3452 1.377 . S
C3453 C3454 1.379 . S
C3454 H3438 0.931 . S
C3454 C3448 1.383 . S
C3454 C3453 1.379 . S
H3455 C3449 0.959 . S
H3456 C3449 0.961 . S
H3457 C3449 0.960 . S
H3458 C3450 0.930 . S
H3459 C3451 0.929 . S
H3460 C3468 0.929 1_556 S
H3461 C3470 0.930 . S
H3462 C3472 0.930 . S
H3463 C3475 0.929 . S
H3464 C3478 0.930 . S
H3465 C3480 0.960 . S
H3466 C3480 0.960 . S
H3467 C3480 0.960 . S
C3468 H3460 0.929 1_554 S
C3468 C3469 1.377 . S
C3468 C3470 1.384 . S
C3469 C3468 1.377 . S
C3469 C3475 1.390 . S
C3470 H3461 0.930 . S
C3470 C3468 1.384 . S
C3470 C3471 1.372 . S
C3471 C3470 1.372 . S
C3471 C3472 1.400 . S
C3471 C3476 1.490 . S
C3472 H3462 0.930 . S
C3472 C3471 1.400 . S
C3472 C3475 1.386 . S
H3473 C3489 0.930 . S
H3474 C3490 0.931 . S
C3475 H3463 0.929 . S
C3475 C3469 1.390 . S
C3475 C3472 1.386 . S
C3476 C3471 1.490 . S
C3476 C3478 1.395 . S
C3476 C3479 1.403 . S
H3477 C3483 0.930 . S
C3478 H3464 0.930 . S
C3478 C3476 1.395 . S
C3478 C3481 1.403 . S
C3479 C3476 1.403 . S
C3479 C3480 1.524 . S
C3479 C3483 1.400 . S
C3480 H3465 0.960 . S
C3480 H3466 0.960 . S
C3480 H3467 0.960 . S
C3480 C3479 1.524 . S
C3481 C3478 1.403 . S
C3481 C3482 1.392 . S
C3481 C3485 1.495 . S
C3482 C3481 1.392 . S
C3482 C3483 1.385 . S
C3482 C3484 1.478 . S
C3483 H3477 0.930 . S
C3483 C3479 1.400 . S
C3483 C3482 1.385 . S
C3484 C3482 1.478 . S
C3484 C3486 1.381 . S
C3484 C3490 1.383 . S
C3485 C3481 1.495 . S
C3485 H3491 0.959 . S
C3485 H3492 0.961 . S
C3485 H3493 0.960 . S
C3486 C3484 1.381 . S
C3486 C3487 1.394 . S
C3486 H3494 0.930 . S
C3487 C3486 1.394 . S
C3487 C3488 1.383 . S
C3487 H3495 0.929 . S
C3488 C3487 1.383 . S
C3488 C3489 1.377 . S
C3489 H3473 0.930 . S
C3489 C3488 1.377 . S
C3489 C3490 1.379 . S
C3490 H3474 0.931 . S
C3490 C3484 1.383 . S
C3490 C3489 1.379 . S
H3491 C3485 0.959 . S
H3492 C3485 0.961 . S
H3493 C3485 0.960 . S
H3494 C3486 0.930 . S
H3495 C3487 0.929 . S
H3496 C3504 0.929 . S
H3497 C3506 0.930 . S
H3498 C3508 0.930 . S
H3499 C3511 0.929 . S
H3500 C3514 0.930 . S
H3501 C3516 0.960 . S
H3502 C3516 0.960 . S
H3503 C3516 0.960 . S
C3504 H3496 0.929 . S
C3504 C3505 1.377 . S
C3504 C3506 1.384 . S
C3505 C3504 1.377 . S
C3505 C3511 1.390 . S
C3506 H3497 0.930 . S
C3506 C3504 1.384 . S
C3506 C3507 1.372 . S
C3507 C3506 1.372 . S
C3507 C3508 1.400 . S
C3507 C3512 1.490 . S
C3508 H3498 0.930 . S
C3508 C3507 1.400 . S
C3508 C3511 1.386 . S
H3509 C3525 0.930 . S
H3510 C3526 0.931 . S
C3511 H3499 0.929 . S
C3511 C3505 1.390 . S
C3511 C3508 1.386 . S
C3512 C3507 1.490 . S
C3512 C3514 1.395 . S
C3512 C3515 1.403 . S
H3513 C3519 0.930 . S
C3514 H3500 0.930 . S
C3514 C3512 1.395 . S
C3514 C3517 1.403 . S
C3515 C3512 1.403 . S
C3515 C3516 1.524 . S
C3515 C3519 1.400 . S
C3516 H3501 0.960 . S
C3516 H3502 0.960 . S
C3516 H3503 0.960 . S
C3516 C3515 1.524 . S
C3517 C3514 1.403 . S
C3517 C3518 1.392 . S
C3517 C3521 1.495 . S
C3518 C3517 1.392 . S
C3518 C3519 1.385 . S
C3518 C3520 1.478 . S
C3519 H3513 0.930 . S
C3519 C3515 1.400 . S
C3519 C3518 1.385 . S
C3520 C3518 1.478 . S
C3520 C3522 1.381 . S
C3520 C3526 1.383 . S
C3521 C3517 1.495 . S
C3521 H3527 0.959 . S
C3521 H3528 0.961 . S
C3521 H3529 0.960 . S
C3522 C3520 1.381 . S
C3522 C3523 1.394 . S
C3522 H3530 0.930 . S
C3523 C3522 1.394 . S
C3523 C3524 1.383 . S
C3523 H3531 0.929 . S
C3524 C3523 1.383 . S
C3524 C3525 1.377 . S
C3525 H3509 0.930 . S
C3525 C3524 1.377 . S
C3525 C3526 1.379 . S
C3526 H3510 0.931 . S
C3526 C3520 1.383 . S
C3526 C3525 1.379 . S
H3527 C3521 0.959 . S
H3528 C3521 0.961 . S
H3529 C3521 0.960 . S
H3530 C3522 0.930 . S
H3531 C3523 0.929 . S
H3532 C3540 0.929 . S
H3533 C3542 0.930 . S
H3534 C3544 0.930 . S
H3535 C3547 0.929 . S
H3536 C3550 0.930 . S
H3537 C3552 0.960 . S
H3538 C3552 0.960 . S
H3539 C3552 0.960 . S
C3540 H3532 0.929 . S
C3540 C3541 1.377 . S
C3540 C3542 1.384 . S
C3541 C3540 1.377 . S
C3541 C3547 1.390 . S
C3542 H3533 0.930 . S
C3542 C3540 1.384 . S
C3542 C3543 1.372 . S
C3543 C3542 1.372 . S
C3543 C3544 1.400 . S
C3543 C3548 1.490 . S
C3544 H3534 0.930 . S
C3544 C3543 1.400 . S
C3544 C3547 1.386 . S
H3545 C3561 0.930 . S
H3546 C3562 0.931 . S
C3547 H3535 0.929 . S
C3547 C3541 1.390 . S
C3547 C3544 1.386 . S
C3548 C3543 1.490 . S
C3548 C3550 1.395 . S
C3548 C3551 1.403 . S
H3549 C3555 0.930 . S
C3550 H3536 0.930 . S
C3550 C3548 1.395 . S
C3550 C3553 1.403 . S
C3551 C3548 1.403 . S
C3551 C3552 1.524 . S
C3551 C3555 1.400 . S
C3552 H3537 0.960 . S
C3552 H3538 0.960 . S
C3552 H3539 0.960 . S
C3552 C3551 1.524 . S
C3553 C3550 1.403 . S
C3553 C3554 1.392 . S
C3553 C3557 1.495 . S
C3554 C3553 1.392 . S
C3554 C3555 1.385 . S
C3554 C3556 1.478 . S
C3555 H3549 0.930 . S
C3555 C3551 1.400 . S
C3555 C3554 1.385 . S
C3556 C3554 1.478 . S
C3556 C3558 1.381 . S
C3556 C3562 1.383 . S
C3557 C3553 1.495 . S
C3557 H3563 0.959 . S
C3557 H3564 0.961 . S
C3557 H3565 0.960 . S
C3558 C3556 1.381 . S
C3558 C3559 1.394 . S
C3558 H3566 0.930 . S
C3559 C3558 1.394 . S
C3559 C3560 1.383 . S
C3559 H3567 0.929 . S
C3560 C3559 1.383 . S
C3560 C3561 1.377 . S
C3561 H3545 0.930 . S
C3561 C3560 1.377 . S
C3561 C3562 1.379 . S
C3562 H3546 0.931 . S
C3562 C3556 1.383 . S
C3562 C3561 1.379 . S
H3563 C3557 0.959 . S
H3564 C3557 0.961 . S
H3565 C3557 0.960 . S
H3566 C3558 0.930 . S
H3567 C3559 0.929 . S
H3568 C3576 0.929 . S
H3569 C3578 0.930 . S
H3570 C3580 0.930 . S
H3571 C3583 0.929 . S
H3572 C3586 0.930 . S
H3573 C3588 0.960 . S
H3574 C3588 0.960 . S
H3575 C3588 0.960 . S
C3576 H3568 0.929 . S
C3576 C3577 1.377 . S
C3576 C3578 1.384 . S
C3577 C3576 1.377 . S
C3577 C3583 1.390 . S
C3578 H3569 0.930 . S
C3578 C3576 1.384 . S
C3578 C3579 1.372 . S
C3579 C3578 1.372 . S
C3579 C3580 1.400 . S
C3579 C3584 1.490 . S
C3580 H3570 0.930 . S
C3580 C3579 1.400 . S
C3580 C3583 1.386 . S
H3581 C3597 0.930 . S
H3582 C3598 0.931 . S
C3583 H3571 0.929 . S
C3583 C3577 1.390 . S
C3583 C3580 1.386 . S
C3584 C3579 1.490 . S
C3584 C3586 1.395 . S
C3584 C3587 1.403 . S
H3585 C3591 0.930 . S
C3586 H3572 0.930 . S
C3586 C3584 1.395 . S
C3586 C3589 1.403 . S
C3587 C3584 1.403 . S
C3587 C3588 1.524 . S
C3587 C3591 1.400 . S
C3588 H3573 0.960 . S
C3588 H3574 0.960 . S
C3588 H3575 0.960 . S
C3588 C3587 1.524 . S
C3589 C3586 1.403 . S
C3589 C3590 1.392 . S
C3589 C3593 1.495 . S
C3590 C3589 1.392 . S
C3590 C3591 1.385 . S
C3590 C3592 1.478 . S
C3591 H3585 0.930 . S
C3591 C3587 1.400 . S
C3591 C3590 1.385 . S
C3592 C3590 1.478 . S
C3592 C3594 1.381 . S
C3592 C3598 1.383 . S
C3593 C3589 1.495 . S
C3593 H3599 0.959 . S
C3593 H3600 0.961 . S
C3593 H3601 0.960 . S
C3594 C3592 1.381 . S
C3594 C3595 1.394 . S
C3594 H3602 0.930 . S
C3595 C3594 1.394 . S
C3595 C3596 1.383 . S
C3595 H3603 0.929 . S
C3596 C3595 1.383 . S
C3596 C3597 1.377 . S
C3597 H3581 0.930 . S
C3597 C3596 1.377 . S
C3597 C3598 1.379 . S
C3598 H3582 0.931 . S
C3598 C3592 1.383 . S
C3598 C3597 1.379 . S
H3599 C3593 0.959 . S
H3600 C3593 0.961 . S
H3601 C3593 0.960 . S
H3602 C3594 0.930 . S
H3603 C3595 0.929 . S
H3604 C3612 0.929 . S
H3605 C3614 0.930 . S
H3606 C3616 0.930 . S
H3607 C3619 0.929 . S
H3608 C3622 0.930 . S
H3609 C3624 0.960 . S
H3610 C3624 0.960 . S
H3611 C3624 0.960 . S
C3612 H3604 0.929 . S
C3612 C3613 1.377 . S
C3612 C3614 1.384 . S
C3613 C3612 1.377 . S
C3613 C3619 1.390 . S
C3614 H3605 0.930 . S
C3614 C3612 1.384 . S
C3614 C3615 1.372 . S
C3615 C3614 1.372 . S
C3615 C3616 1.400 . S
C3615 C3620 1.490 . S
C3616 H3606 0.930 . S
C3616 C3615 1.400 . S
C3616 C3619 1.386 . S
H3617 C3633 0.930 . S
H3618 C3634 0.931 . S
C3619 H3607 0.929 . S
C3619 C3613 1.390 . S
C3619 C3616 1.386 . S
C3620 C3615 1.490 . S
C3620 C3622 1.395 . S
C3620 C3623 1.403 . S
H3621 C3627 0.930 . S
C3622 H3608 0.930 . S
C3622 C3620 1.395 . S
C3622 C3625 1.403 . S
C3623 C3620 1.403 . S
C3623 C3624 1.524 . S
C3623 C3627 1.400 . S
C3624 H3609 0.960 . S
C3624 H3610 0.960 . S
C3624 H3611 0.960 . S
C3624 C3623 1.524 . S
C3625 C3622 1.403 . S
C3625 C3626 1.392 . S
C3625 C3629 1.495 . S
C3626 C3625 1.392 . S
C3626 C3627 1.385 . S
C3626 C3628 1.478 . S
C3627 H3621 0.930 . S
C3627 C3623 1.400 . S
C3627 C3626 1.385 . S
C3628 C3626 1.478 . S
C3628 C3630 1.381 . S
C3628 C3634 1.383 . S
C3629 C3625 1.495 . S
C3629 H3635 0.959 . S
C3629 H3636 0.961 . S
C3629 H3637 0.960 . S
C3630 C3628 1.381 . S
C3630 C3631 1.394 . S
C3630 H3638 0.930 . S
C3631 C3630 1.394 . S
C3631 C3632 1.383 . S
C3631 H3639 0.929 . S
C3632 C3631 1.383 . S
C3632 C3633 1.377 . S
C3633 H3617 0.930 . S
C3633 C3632 1.377 . S
C3633 C3634 1.379 . S
C3634 H3618 0.931 . S
C3634 C3628 1.383 . S
C3634 C3633 1.379 . S
H3635 C3629 0.959 . S
H3636 C3629 0.961 . S
H3637 C3629 0.960 . S
H3638 C3630 0.930 . S
H3639 C3631 0.929 . S
H3640 C3648 0.929 . S
H3641 C3650 0.930 . S
H3642 C3652 0.930 . S
H3643 C3655 0.929 . S
H3644 C3658 0.930 . S
H3645 C3660 0.960 . S
H3646 C3660 0.960 . S
H3647 C3660 0.960 . S
C3648 H3640 0.929 . S
C3648 C3649 1.377 . S
C3648 C3650 1.384 . S
C3649 C3648 1.377 . S
C3649 C3655 1.390 . S
C3650 H3641 0.930 . S
C3650 C3648 1.384 . S
C3650 C3651 1.372 . S
C3651 C3650 1.372 . S
C3651 C3652 1.400 . S
C3651 C3656 1.490 . S
C3652 H3642 0.930 . S
C3652 C3651 1.400 . S
C3652 C3655 1.386 . S
H3653 C3669 0.930 . S
H3654 C3670 0.931 . S
C3655 H3643 0.929 . S
C3655 C3649 1.390 . S
C3655 C3652 1.386 . S
C3656 C3651 1.490 . S
C3656 C3658 1.395 . S
C3656 C3659 1.403 . S
H3657 C3663 0.930 . S
C3658 H3644 0.930 . S
C3658 C3656 1.395 . S
C3658 C3661 1.403 . S
C3659 C3656 1.403 . S
C3659 C3660 1.524 . S
C3659 C3663 1.400 . S
C3660 H3645 0.960 . S
C3660 H3646 0.960 . S
C3660 H3647 0.960 . S
C3660 C3659 1.524 . S
C3661 C3658 1.403 . S
C3661 C3662 1.392 . S
C3661 C3665 1.495 . S
C3662 C3661 1.392 . S
C3662 C3663 1.385 . S
C3662 C3664 1.478 . S
C3663 H3657 0.930 . S
C3663 C3659 1.400 . S
C3663 C3662 1.385 . S
C3664 C3662 1.478 . S
C3664 C3666 1.381 . S
C3664 C3670 1.383 . S
C3665 C3661 1.495 . S
C3665 H3671 0.959 . S
C3665 H3672 0.961 . S
C3665 H3673 0.960 . S
C3666 C3664 1.381 . S
C3666 C3667 1.394 . S
C3666 H3674 0.930 . S
C3667 C3666 1.394 . S
C3667 C3668 1.383 . S
C3667 H3675 0.929 . S
C3668 C3667 1.383 . S
C3668 C3669 1.377 . S
C3669 H3653 0.930 . S
C3669 C3668 1.377 . S
C3669 C3670 1.379 . S
C3670 H3654 0.931 . S
C3670 C3664 1.383 . S
C3670 C3669 1.379 . S
H3671 C3665 0.959 . S
H3672 C3665 0.961 . S
H3673 C3665 0.960 . S
H3674 C3666 0.930 . S
H3675 C3667 0.929 . S
H3676 C3684 0.929 . S
H3677 C3686 0.930 . S
H3678 C3688 0.930 . S
H3679 C3691 0.929 . S
H3680 C3694 0.930 . S
H3681 C3696 0.960 . S
H3682 C3696 0.960 . S
H3683 C3696 0.960 . S
C3684 H3676 0.929 . S
C3684 C3685 1.377 . S
C3684 C3686 1.384 . S
C3685 C3684 1.377 . S
C3685 C3691 1.390 . S
C3686 H3677 0.930 . S
C3686 C3684 1.384 . S
C3686 C3687 1.372 . S
C3687 C3686 1.372 . S
C3687 C3688 1.400 . S
C3687 C3692 1.490 . S
C3688 H3678 0.930 . S
C3688 C3687 1.400 . S
C3688 C3691 1.386 . S
H3689 C3705 0.930 . S
H3690 C3706 0.931 . S
C3691 H3679 0.929 . S
C3691 C3685 1.390 . S
C3691 C3688 1.386 . S
C3692 C3687 1.490 . S
C3692 C3694 1.395 . S
C3692 C3695 1.403 . S
H3693 C3699 0.930 . S
C3694 H3680 0.930 . S
C3694 C3692 1.395 . S
C3694 C3697 1.403 . S
C3695 C3692 1.403 . S
C3695 C3696 1.524 . S
C3695 C3699 1.400 . S
C3696 H3681 0.960 . S
C3696 H3682 0.960 . S
C3696 H3683 0.960 . S
C3696 C3695 1.524 . S
C3697 C3694 1.403 . S
C3697 C3698 1.392 . S
C3697 C3701 1.495 . S
C3698 C3697 1.392 . S
C3698 C3699 1.385 . S
C3698 C3700 1.478 . S
C3699 H3693 0.930 . S
C3699 C3695 1.400 . S
C3699 C3698 1.385 . S
C3700 C3698 1.478 . S
C3700 C3702 1.381 . S
C3700 C3706 1.383 . S
C3701 C3697 1.495 . S
C3701 H3707 0.959 . S
C3701 H3708 0.961 . S
C3701 H3709 0.960 . S
C3702 C3700 1.381 . S
C3702 C3703 1.394 . S
C3702 H3710 0.930 . S
C3703 C3702 1.394 . S
C3703 C3704 1.383 . S
C3703 H3711 0.929 . S
C3704 C3703 1.383 . S
C3704 C3705 1.377 . S
C3705 H3689 0.930 . S
C3705 C3704 1.377 . S
C3705 C3706 1.379 . S
C3706 H3690 0.931 . S
C3706 C3700 1.383 . S
C3706 C3705 1.379 . S
H3707 C3701 0.959 . S
H3708 C3701 0.961 . S
H3709 C3701 0.960 . S
H3710 C3702 0.930 . S
H3711 C3703 0.929 . S
H3712 C3720 0.929 . S
H3713 C3722 0.930 . S
H3714 C3724 0.930 . S
H3715 C3727 0.929 . S
H3716 C3730 0.930 . S
H3717 C3732 0.960 . S
H3718 C3732 0.960 . S
H3719 C3732 0.960 . S
C3720 H3712 0.929 . S
C3720 C3721 1.377 . S
C3720 C3722 1.384 . S
C3721 C3720 1.377 . S
C3721 C3727 1.390 . S
C3722 H3713 0.930 . S
C3722 C3720 1.384 . S
C3722 C3723 1.372 . S
C3723 C3722 1.372 . S
C3723 C3724 1.400 . S
C3723 C3728 1.490 . S
C3724 H3714 0.930 . S
C3724 C3723 1.400 . S
C3724 C3727 1.386 . S
H3725 C3741 0.930 . S
H3726 C3742 0.931 . S
C3727 H3715 0.929 . S
C3727 C3721 1.390 . S
C3727 C3724 1.386 . S
C3728 C3723 1.490 . S
C3728 C3730 1.395 . S
C3728 C3731 1.403 . S
H3729 C3735 0.930 . S
C3730 H3716 0.930 . S
C3730 C3728 1.395 . S
C3730 C3733 1.403 . S
C3731 C3728 1.403 . S
C3731 C3732 1.524 . S
C3731 C3735 1.400 . S
C3732 H3717 0.960 . S
C3732 H3718 0.960 . S
C3732 H3719 0.960 . S
C3732 C3731 1.524 . S
C3733 C3730 1.403 . S
C3733 C3734 1.392 . S
C3733 C3737 1.495 . S
C3734 C3733 1.392 . S
C3734 C3735 1.385 . S
C3734 C3736 1.478 . S
C3735 H3729 0.930 . S
C3735 C3731 1.400 . S
C3735 C3734 1.385 . S
C3736 C3734 1.478 . S
C3736 C3738 1.381 . S
C3736 C3742 1.383 . S
C3737 C3733 1.495 . S
C3737 H3743 0.959 . S
C3737 H3744 0.961 . S
C3737 H3745 0.960 . S
C3738 C3736 1.381 . S
C3738 C3739 1.394 . S
C3738 H3746 0.930 . S
C3739 C3738 1.394 . S
C3739 C3740 1.383 . S
C3739 H3747 0.929 . S
C3740 C3739 1.383 . S
C3740 C3741 1.377 . S
C3741 H3725 0.930 . S
C3741 C3740 1.377 . S
C3741 C3742 1.379 . S
C3742 H3726 0.931 . S
C3742 C3736 1.383 . S
C3742 C3741 1.379 . S
H3743 C3737 0.959 . S
H3744 C3737 0.961 . S
H3745 C3737 0.960 . S
H3746 C3738 0.930 . S
H3747 C3739 0.929 . S
H3748 C3756 0.929 . S
H3749 C3758 0.930 . S
H3750 C3760 0.930 . S
H3751 C3763 0.929 . S
H3752 C3766 0.930 . S
H3753 C3768 0.960 . S
H3754 C3768 0.960 . S
H3755 C3768 0.960 . S
C3756 H3748 0.929 . S
C3756 C3757 1.377 . S
C3756 C3758 1.384 . S
C3757 C3756 1.377 . S
C3757 C3763 1.390 . S
C3758 H3749 0.930 . S
C3758 C3756 1.384 . S
C3758 C3759 1.372 . S
C3759 C3758 1.372 . S
C3759 C3760 1.400 . S
C3759 C3764 1.490 . S
C3760 H3750 0.930 . S
C3760 C3759 1.400 . S
C3760 C3763 1.386 . S
H3761 C3777 0.930 . S
H3762 C3778 0.931 . S
C3763 H3751 0.929 . S
C3763 C3757 1.390 . S
C3763 C3760 1.386 . S
C3764 C3759 1.490 . S
C3764 C3766 1.395 . S
C3764 C3767 1.403 . S
H3765 C3771 0.930 . S
C3766 H3752 0.930 . S
C3766 C3764 1.395 . S
C3766 C3769 1.403 . S
C3767 C3764 1.403 . S
C3767 C3768 1.524 . S
C3767 C3771 1.400 . S
C3768 H3753 0.960 . S
C3768 H3754 0.960 . S
C3768 H3755 0.960 . S
C3768 C3767 1.524 . S
C3769 C3766 1.403 . S
C3769 C3770 1.392 . S
C3769 C3773 1.495 . S
C3770 C3769 1.392 . S
C3770 C3771 1.385 . S
C3770 C3772 1.478 . S
C3771 H3765 0.930 . S
C3771 C3767 1.400 . S
C3771 C3770 1.385 . S
C3772 C3770 1.478 . S
C3772 C3774 1.381 . S
C3772 C3778 1.383 . S
C3773 C3769 1.495 . S
C3773 H3779 0.959 . S
C3773 H3780 0.961 . S
C3773 H3781 0.960 . S
C3774 C3772 1.381 . S
C3774 C3775 1.394 . S
C3774 H3782 0.930 . S
C3775 C3774 1.394 . S
C3775 C3776 1.383 . S
C3775 H3783 0.929 . S
C3776 C3775 1.383 . S
C3776 C3777 1.377 . S
C3777 H3761 0.930 . S
C3777 C3776 1.377 . S
C3777 C3778 1.379 . S
C3778 H3762 0.931 . S
C3778 C3772 1.383 . S
C3778 C3777 1.379 . S
H3779 C3773 0.959 . S
H3780 C3773 0.961 . S
H3781 C3773 0.960 . S
H3782 C3774 0.930 . S
H3783 C3775 0.929 . S
H3784 C3792 0.929 . S
H3785 C3794 0.930 . S
H3786 C3796 0.930 . S
H3787 C3799 0.929 . S
H3788 C3802 0.930 . S
H3789 C3804 0.960 . S
H3790 C3804 0.960 . S
H3791 C3804 0.960 . S
C3792 H3784 0.929 . S
C3792 C3793 1.377 . S
C3792 C3794 1.384 . S
C3793 C3792 1.377 . S
C3793 C3799 1.390 . S
C3794 H3785 0.930 . S
C3794 C3792 1.384 . S
C3794 C3795 1.372 . S
C3795 C3794 1.372 . S
C3795 C3796 1.400 . S
C3795 C3800 1.490 . S
C3796 H3786 0.930 . S
C3796 C3795 1.400 . S
C3796 C3799 1.386 . S
H3797 C3813 0.930 . S
H3798 C3814 0.931 . S
C3799 H3787 0.929 . S
C3799 C3793 1.390 . S
C3799 C3796 1.386 . S
C3800 C3795 1.490 . S
C3800 C3802 1.395 . S
C3800 C3803 1.403 . S
H3801 C3807 0.930 . S
C3802 H3788 0.930 . S
C3802 C3800 1.395 . S
C3802 C3805 1.403 . S
C3803 C3800 1.403 . S
C3803 C3804 1.524 . S
C3803 C3807 1.400 . S
C3804 H3789 0.960 . S
C3804 H3790 0.960 . S
C3804 H3791 0.960 . S
C3804 C3803 1.524 . S
C3805 C3802 1.403 . S
C3805 C3806 1.392 . S
C3805 C3809 1.495 . S
C3806 C3805 1.392 . S
C3806 C3807 1.385 . S
C3806 C3808 1.478 . S
C3807 H3801 0.930 . S
C3807 C3803 1.400 . S
C3807 C3806 1.385 . S
C3808 C3806 1.478 . S
C3808 C3810 1.381 . S
C3808 C3814 1.383 . S
C3809 C3805 1.495 . S
C3809 H3815 0.959 . S
C3809 H3816 0.961 . S
C3809 H3817 0.960 . S
C3810 C3808 1.381 . S
C3810 C3811 1.394 . S
C3810 H3818 0.930 . S
C3811 C3810 1.394 . S
C3811 C3812 1.383 . S
C3811 H3819 0.929 . S
C3812 C3811 1.383 . S
C3812 C3813 1.377 . S
C3813 H3797 0.930 . S
C3813 C3812 1.377 . S
C3813 C3814 1.379 . S
C3814 H3798 0.931 . S
C3814 C3808 1.383 . S
C3814 C3813 1.379 . S
H3815 C3809 0.959 . S
H3816 C3809 0.961 . S
H3817 C3809 0.960 . S
H3818 C3810 0.930 . S
H3819 C3811 0.929 . S
H3820 C3828 0.929 . S
H3821 C3830 0.930 . S
H3822 C3832 0.930 . S
H3823 C3835 0.929 . S
H3824 C3838 0.930 . S
H3825 C3840 0.960 . S
H3826 C3840 0.960 . S
H3827 C3840 0.960 . S
C3828 H3820 0.929 . S
C3828 C3829 1.377 . S
C3828 C3830 1.384 . S
C3829 C3828 1.377 . S
C3829 C3835 1.390 . S
C3830 H3821 0.930 . S
C3830 C3828 1.384 . S
C3830 C3831 1.372 . S
C3831 C3830 1.372 . S
C3831 C3832 1.400 . S
C3831 C3836 1.490 . S
C3832 H3822 0.930 . S
C3832 C3831 1.400 . S
C3832 C3835 1.386 . S
H3833 C3849 0.930 . S
H3834 C3850 0.931 . S
C3835 H3823 0.929 . S
C3835 C3829 1.390 . S
C3835 C3832 1.386 . S
C3836 C3831 1.490 . S
C3836 C3838 1.395 . S
C3836 C3839 1.403 . S
H3837 C3843 0.930 . S
C3838 H3824 0.930 . S
C3838 C3836 1.395 . S
C3838 C3841 1.403 . S
C3839 C3836 1.403 . S
C3839 C3840 1.524 . S
C3839 C3843 1.400 . S
C3840 H3825 0.960 . S
C3840 H3826 0.960 . S
C3840 H3827 0.960 . S
C3840 C3839 1.524 . S
C3841 C3838 1.403 . S
C3841 C3842 1.392 . S
C3841 C3845 1.495 . S
C3842 C3841 1.392 . S
C3842 C3843 1.385 . S
C3842 C3844 1.478 . S
C3843 H3837 0.930 . S
C3843 C3839 1.400 . S
C3843 C3842 1.385 . S
C3844 C3842 1.478 . S
C3844 C3846 1.381 . S
C3844 C3850 1.383 . S
C3845 C3841 1.495 . S
C3845 H3851 0.959 . S
C3845 H3852 0.961 . S
C3845 H3853 0.960 . S
C3846 C3844 1.381 . S
C3846 C3847 1.394 . S
C3846 H3854 0.930 . S
C3847 C3846 1.394 . S
C3847 C3848 1.383 . S
C3847 H3855 0.929 . S
C3848 C3847 1.383 . S
C3848 C3849 1.377 . S
C3849 H3833 0.930 . S
C3849 C3848 1.377 . S
C3849 C3850 1.379 . S
C3850 H3834 0.931 . S
C3850 C3844 1.383 . S
C3850 C3849 1.379 . S
H3851 C3845 0.959 . S
H3852 C3845 0.961 . S
H3853 C3845 0.960 . S
H3854 C3846 0.930 . S
H3855 C3847 0.929 . S
H3856 C3864 0.929 . S
H3857 C3866 0.930 . S
H3858 C3868 0.930 . S
H3859 C3871 0.929 . S
H3860 C3874 0.930 . S
H3861 C3876 0.960 . S
H3862 C3876 0.960 . S
H3863 C3876 0.960 . S
C3864 H3856 0.929 . S
C3864 C3865 1.377 . S
C3864 C3866 1.384 . S
C3865 C3864 1.377 . S
C3865 C3871 1.390 . S
C3866 H3857 0.930 . S
C3866 C3864 1.384 . S
C3866 C3867 1.372 . S
C3867 C3866 1.372 . S
C3867 C3868 1.400 . S
C3867 C3872 1.490 . S
C3868 H3858 0.930 . S
C3868 C3867 1.400 . S
C3868 C3871 1.386 . S
H3869 C3885 0.930 . S
H3870 C3886 0.931 . S
C3871 H3859 0.929 . S
C3871 C3865 1.390 . S
C3871 C3868 1.386 . S
C3872 C3867 1.490 . S
C3872 C3874 1.395 . S
C3872 C3875 1.403 . S
H3873 C3879 0.930 . S
C3874 H3860 0.930 . S
C3874 C3872 1.395 . S
C3874 C3877 1.403 . S
C3875 C3872 1.403 . S
C3875 C3876 1.524 . S
C3875 C3879 1.400 . S
C3876 H3861 0.960 . S
C3876 H3862 0.960 . S
C3876 H3863 0.960 . S
C3876 C3875 1.524 . S
C3877 C3874 1.403 . S
C3877 C3878 1.392 . S
C3877 C3881 1.495 . S
C3878 C3877 1.392 . S
C3878 C3879 1.385 . S
C3878 C3880 1.478 . S
C3879 H3873 0.930 . S
C3879 C3875 1.400 . S
C3879 C3878 1.385 . S
C3880 C3878 1.478 . S
C3880 C3882 1.381 . S
C3880 C3886 1.383 . S
C3881 C3877 1.495 . S
C3881 H3887 0.959 . S
C3881 H3888 0.961 . S
C3881 H3889 0.960 . S
C3882 C3880 1.381 . S
C3882 C3883 1.394 . S
C3882 H3890 0.930 . S
C3883 C3882 1.394 . S
C3883 C3884 1.383 . S
C3883 H3891 0.929 . S
C3884 C3883 1.383 . S
C3884 C3885 1.377 . S
C3885 H3869 0.930 . S
C3885 C3884 1.377 . S
C3885 C3886 1.379 . S
C3886 H3870 0.931 . S
C3886 C3880 1.383 . S
C3886 C3885 1.379 . S
H3887 C3881 0.959 . S
H3888 C3881 0.961 . S
H3889 C3881 0.960 . S
H3890 C3882 0.930 . S
H3891 C3883 0.929 . S
H3892 C3900 0.929 . S
H3893 C3902 0.930 . S
H3894 C3904 0.930 . S
H3895 C3907 0.929 . S
H3896 C3910 0.930 . S
H3897 C3912 0.960 . S
H3898 C3912 0.960 . S
H3899 C3912 0.960 . S
C3900 H3892 0.929 . S
C3900 C3901 1.377 . S
C3900 C3902 1.384 . S
C3901 C3900 1.377 . S
C3901 C3907 1.390 . S
C3902 H3893 0.930 . S
C3902 C3900 1.384 . S
C3902 C3903 1.372 . S
C3903 C3902 1.372 . S
C3903 C3904 1.400 . S
C3903 C3908 1.490 . S
C3904 H3894 0.930 . S
C3904 C3903 1.400 . S
C3904 C3907 1.386 . S
H3905 C3921 0.930 . S
H3906 C3922 0.931 . S
C3907 H3895 0.929 . S
C3907 C3901 1.390 . S
C3907 C3904 1.386 . S
C3908 C3903 1.490 . S
C3908 C3910 1.395 . S
C3908 C3911 1.403 . S
H3909 C3915 0.930 . S
C3910 H3896 0.930 . S
C3910 C3908 1.395 . S
C3910 C3913 1.403 . S
C3911 C3908 1.403 . S
C3911 C3912 1.524 . S
C3911 C3915 1.400 . S
C3912 H3897 0.960 . S
C3912 H3898 0.960 . S
C3912 H3899 0.960 . S
C3912 C3911 1.524 . S
C3913 C3910 1.403 . S
C3913 C3914 1.392 . S
C3913 C3917 1.495 . S
C3914 C3913 1.392 . S
C3914 C3915 1.385 . S
C3914 C3916 1.478 . S
C3915 H3909 0.930 . S
C3915 C3911 1.400 . S
C3915 C3914 1.385 . S
C3916 C3914 1.478 . S
C3916 C3918 1.381 . S
C3916 C3922 1.383 . S
C3917 C3913 1.495 . S
C3917 H3923 0.959 . S
C3917 H3924 0.961 . S
C3917 H3925 0.960 . S
C3918 C3916 1.381 . S
C3918 C3919 1.394 . S
C3918 H3926 0.930 . S
C3919 C3918 1.394 . S
C3919 C3920 1.383 . S
C3919 H3927 0.929 . S
C3920 C3919 1.383 . S
C3920 C3921 1.377 . S
C3921 H3905 0.930 . S
C3921 C3920 1.377 . S
C3921 C3922 1.379 . S
C3922 H3906 0.931 . S
C3922 C3916 1.383 . S
C3922 C3921 1.379 . S
H3923 C3917 0.959 . S
H3924 C3917 0.961 . S
H3925 C3917 0.960 . S
H3926 C3918 0.930 . S
H3927 C3919 0.929 . S
H3928 C3936 0.929 . S
H3929 C3938 0.930 . S
H3930 C3940 0.930 . S
H3931 C3943 0.929 . S
H3932 C3946 0.930 . S
H3933 C3948 1.006 . S
H3934 C3948 0.903 1_655 S
H3935 C3948 0.991 . S
C3936 H3928 0.929 . S
C3936 C3937 1.377 . S
C3936 C3938 1.384 . S
C3937 C3936 1.377 . S
C3937 C3943 1.390 . S
C3938 H3929 0.930 . S
C3938 C3936 1.384 . S
C3938 C3939 1.372 . S
C3939 C3938 1.372 . S
C3939 C3940 1.400 . S
C3939 C3944 1.490 . S
C3940 H3930 0.930 . S
C3940 C3939 1.400 . S
C3940 C3943 1.386 . S
H3941 C3957 0.930 . S
H3942 C3958 0.931 . S
C3943 H3931 0.929 . S
C3943 C3937 1.390 . S
C3943 C3940 1.386 . S
C3944 C3939 1.490 . S
C3944 C3946 1.395 . S
C3944 C3947 1.403 . S
H3945 C3951 0.930 . S
C3946 H3932 0.930 . S
C3946 C3944 1.395 . S
C3946 C3949 1.403 . S
C3947 C3944 1.403 . S
C3947 C3948 1.510 1_655 S
C3947 C3951 1.400 1_655 S
C3948 H3933 1.006 . S
C3948 H3934 0.903 1_455 S
C3948 H3935 0.991 . S
C3948 C3947 1.510 1_455 S
C3949 C3946 1.403 . S
C3949 C3950 1.392 . S
C3949 C3953 1.495 . S
C3950 C3949 1.392 . S
C3950 C3951 1.385 1_655 S
C3950 C3952 1.478 1_655 S
C3951 H3945 0.930 . S
C3951 C3947 1.400 1_455 S
C3951 C3950 1.385 1_455 S
C3952 C3950 1.478 1_455 S
C3952 C3954 1.381 1_455 S
C3952 C3958 1.383 . S
C3953 C3949 1.495 . S
C3953 H3959 0.959 . S
C3953 H3960 0.961 . S
C3953 H3961 0.960 . S
C3954 C3952 1.381 1_655 S
C3954 C3955 1.394 1_655 S
C3954 H3962 0.930 . S
C3955 C3954 1.394 1_455 S
C3955 C3956 1.383 . S
C3955 H3963 0.929 . S
C3956 C3955 1.383 . S
C3956 C3957 1.377 . S
C3957 H3941 0.930 . S
C3957 C3956 1.377 . S
C3957 C3958 1.379 . S
C3958 H3942 0.931 . S
C3958 C3952 1.383 . S
C3958 C3957 1.379 . S
H3959 C3953 0.959 . S
H3960 C3953 0.961 . S
H3961 C3953 0.960 . S
H3962 C3954 0.930 . S
H3963 C3955 0.929 . S
H3964 C3972 0.929 . S
H3965 C3974 0.930 . S
H3966 C3976 0.930 . S
H3967 C3979 0.929 . S
H3968 C3982 0.930 . S
H3969 C3984 0.960 . S
H3970 C3984 0.960 . S
H3971 C3984 0.960 . S
C3972 H3964 0.929 . S
C3972 C3973 1.377 . S
C3972 C3974 1.384 . S
C3973 C3972 1.377 . S
C3973 C3979 1.390 . S
C3974 H3965 0.930 . S
C3974 C3972 1.384 . S
C3974 C3975 1.372 . S
C3975 C3974 1.372 . S
C3975 C3976 1.400 . S
C3975 C3980 1.490 . S
C3976 H3966 0.930 . S
C3976 C3975 1.400 . S
C3976 C3979 1.386 . S
H3977 C3993 0.930 . S
H3978 C3994 0.931 . S
C3979 H3967 0.929 . S
C3979 C3973 1.390 . S
C3979 C3976 1.386 . S
C3980 C3975 1.490 . S
C3980 C3982 1.395 . S
C3980 C3983 1.403 . S
H3981 C3987 0.930 . S
C3982 H3968 0.930 . S
C3982 C3980 1.395 . S
C3982 C3985 1.403 . S
C3983 C3980 1.403 . S
C3983 C3984 1.524 . S
C3983 C3987 1.400 . S
C3984 H3969 0.960 . S
C3984 H3970 0.960 . S
C3984 H3971 0.960 . S
C3984 C3983 1.524 . S
C3985 C3982 1.403 . S
C3985 C3986 1.392 . S
C3985 C3989 1.495 . S
C3986 C3985 1.392 . S
C3986 C3987 1.385 . S
C3986 C3988 1.478 . S
C3987 H3981 0.930 . S
C3987 C3983 1.400 . S
C3987 C3986 1.385 . S
C3988 C3986 1.478 . S
C3988 C3990 1.381 . S
C3988 C3994 1.383 . S
C3989 C3985 1.495 . S
C3989 H3995 0.959 . S
C3989 H3996 0.961 . S
C3989 H3997 0.960 . S
C3990 C3988 1.381 . S
C3990 C3991 1.394 . S
C3990 H3998 0.930 . S
C3991 C3990 1.394 . S
C3991 C3992 1.383 . S
C3991 H3999 0.929 . S
C3992 C3991 1.383 . S
C3992 C3993 1.377 . S
C3993 H3977 0.930 . S
C3993 C3992 1.377 . S
C3993 C3994 1.379 . S
C3994 H3978 0.931 . S
C3994 C3988 1.383 . S
C3994 C3993 1.379 . S
H3995 C3989 0.959 . S
H3996 C3989 0.961 . S
H3997 C3989 0.960 . S
H3998 C3990 0.930 . S
H3999 C3991 0.929 . S
H4000 C4008 0.929 . S
H4001 C4010 0.930 . S
H4002 C4012 0.930 . S
H4003 C4015 0.929 . S
H4004 C4018 0.930 . S
H4005 C4020 0.960 . S
H4006 C4020 0.960 . S
H4007 C4020 0.960 . S
C4008 H4000 0.929 . S
C4008 C4009 1.377 . S
C4008 C4010 1.384 . S
C4009 C4008 1.377 . S
C4009 C4015 1.390 . S
C4010 H4001 0.930 . S
C4010 C4008 1.384 . S
C4010 C4011 1.372 . S
C4011 C4010 1.372 . S
C4011 C4012 1.400 . S
C4011 C4016 1.490 . S
C4012 H4002 0.930 . S
C4012 C4011 1.400 . S
C4012 C4015 1.386 . S
H4013 C4029 0.930 . S
H4014 C4030 0.931 . S
C4015 H4003 0.929 . S
C4015 C4009 1.390 . S
C4015 C4012 1.386 . S
C4016 C4011 1.490 . S
C4016 C4018 1.395 . S
C4016 C4019 1.403 . S
H4017 C4023 0.930 . S
C4018 H4004 0.930 . S
C4018 C4016 1.395 . S
C4018 C4021 1.403 . S
C4019 C4016 1.403 . S
C4019 C4020 1.524 . S
C4019 C4023 1.400 . S
C4020 H4005 0.960 . S
C4020 H4006 0.960 . S
C4020 H4007 0.960 . S
C4020 C4019 1.524 . S
C4021 C4018 1.403 . S
C4021 C4022 1.392 . S
C4021 C4025 1.495 . S
C4022 C4021 1.392 . S
C4022 C4023 1.385 . S
C4022 C4024 1.478 . S
C4023 H4017 0.930 . S
C4023 C4019 1.400 . S
C4023 C4022 1.385 . S
C4024 C4022 1.478 . S
C4024 C4026 1.381 . S
C4024 C4030 1.383 . S
C4025 C4021 1.495 . S
C4025 H4031 0.959 . S
C4025 H4032 0.961 . S
C4025 H4033 0.960 . S
C4026 C4024 1.381 . S
C4026 C4027 1.394 . S
C4026 H4034 0.930 . S
C4027 C4026 1.394 . S
C4027 C4028 1.383 . S
C4027 H4035 0.929 . S
C4028 C4027 1.383 . S
C4028 C4029 1.377 . S
C4029 H4013 0.930 . S
C4029 C4028 1.377 . S
C4029 C4030 1.379 . S
C4030 H4014 0.931 . S
C4030 C4024 1.383 . S
C4030 C4029 1.379 . S
H4031 C4025 0.959 . S
H4032 C4025 0.961 . S
H4033 C4025 0.960 . S
H4034 C4026 0.930 . S
H4035 C4027 0.929 . S
H4036 C4044 0.929 . S
H4037 C4046 0.930 . S
H4038 C4048 0.930 . S
H4039 C4051 0.929 . S
H4040 C4054 0.930 . S
H4041 C4056 0.960 . S
H4042 C4056 0.960 . S
H4043 C4056 0.960 . S
C4044 H4036 0.929 . S
C4044 C4045 1.377 . S
C4044 C4046 1.384 . S
C4045 C4044 1.377 . S
C4045 C4051 1.390 . S
C4046 H4037 0.930 . S
C4046 C4044 1.384 . S
C4046 C4047 1.372 . S
C4047 C4046 1.372 . S
C4047 C4048 1.400 . S
C4047 C4052 1.490 . S
C4048 H4038 0.930 . S
C4048 C4047 1.400 . S
C4048 C4051 1.386 . S
H4049 C4065 0.930 . S
H4050 C4066 0.931 . S
C4051 H4039 0.929 . S
C4051 C4045 1.390 . S
C4051 C4048 1.386 . S
C4052 C4047 1.490 . S
C4052 C4054 1.395 . S
C4052 C4055 1.403 . S
H4053 C4059 0.930 . S
C4054 H4040 0.930 . S
C4054 C4052 1.395 . S
C4054 C4057 1.403 . S
C4055 C4052 1.403 . S
C4055 C4056 1.524 . S
C4055 C4059 1.400 . S
C4056 H4041 0.960 . S
C4056 H4042 0.960 . S
C4056 H4043 0.960 . S
C4056 C4055 1.524 . S
C4057 C4054 1.403 . S
C4057 C4058 1.392 . S
C4057 C4061 1.495 . S
C4058 C4057 1.392 . S
C4058 C4059 1.385 . S
C4058 C4060 1.478 . S
C4059 H4053 0.930 . S
C4059 C4055 1.400 . S
C4059 C4058 1.385 . S
C4060 C4058 1.478 . S
C4060 C4062 1.381 . S
C4060 C4066 1.383 . S
C4061 C4057 1.495 . S
C4061 H4067 0.959 . S
C4061 H4068 0.961 . S
C4061 H4069 0.960 . S
C4062 C4060 1.381 . S
C4062 C4063 1.394 . S
C4062 H4070 0.930 . S
C4063 C4062 1.394 . S
C4063 C4064 1.383 . S
C4063 H4071 0.929 . S
C4064 C4063 1.383 . S
C4064 C4065 1.377 . S
C4065 H4049 0.930 . S
C4065 C4064 1.377 . S
C4065 C4066 1.379 . S
C4066 H4050 0.931 . S
C4066 C4060 1.383 . S
C4066 C4065 1.379 . S
H4067 C4061 0.959 . S
H4068 C4061 0.961 . S
H4069 C4061 0.960 . S
H4070 C4062 0.930 . S
H4071 C4063 0.929 . S
H4072 C4080 0.929 . S
H4073 C4082 0.930 . S
H4074 C4084 0.930 . S
H4075 C4087 0.929 . S
H4076 C4090 0.930 . S
H4077 C4092 0.960 . S
H4078 C4092 0.960 . S
H4079 C4092 0.960 . S
C4080 H4072 0.929 . S
C4080 C4081 1.377 . S
C4080 C4082 1.384 . S
C4081 C4080 1.377 . S
C4081 C4087 1.390 . S
C4082 H4073 0.930 . S
C4082 C4080 1.384 . S
C4082 C4083 1.372 . S
C4083 C4082 1.372 . S
C4083 C4084 1.400 . S
C4083 C4088 1.490 . S
C4084 H4074 0.930 . S
C4084 C4083 1.400 . S
C4084 C4087 1.386 . S
H4085 C4101 0.930 . S
H4086 C4102 0.931 . S
C4087 H4075 0.929 . S
C4087 C4081 1.390 . S
C4087 C4084 1.386 . S
C4088 C4083 1.490 . S
C4088 C4090 1.395 . S
C4088 C4091 1.403 . S
H4089 C4095 0.930 . S
C4090 H4076 0.930 . S
C4090 C4088 1.395 . S
C4090 C4093 1.403 . S
C4091 C4088 1.403 . S
C4091 C4092 1.524 . S
C4091 C4095 1.400 . S
C4092 H4077 0.960 . S
C4092 H4078 0.960 . S
C4092 H4079 0.960 . S
C4092 C4091 1.524 . S
C4093 C4090 1.403 . S
C4093 C4094 1.392 . S
C4093 C4097 1.495 1_655 S
C4094 C4093 1.392 . S
C4094 C4095 1.385 . S
C4094 C4096 1.478 . S
C4095 H4089 0.930 . S
C4095 C4091 1.400 . S
C4095 C4094 1.385 . S
C4096 C4094 1.478 . S
C4096 C4098 1.381 . S
C4096 C4102 1.383 . S
C4097 C4093 1.495 1_455 S
C4097 H4103 0.959 . S
C4097 H4104 0.961 . S
C4097 H4105 0.960 . S
C4098 C4096 1.381 . S
C4098 C4099 1.394 . S
C4098 H4106 0.930 . S
C4099 C4098 1.394 . S
C4099 C4100 1.383 . S
C4099 H4107 0.929 1_655 S
C4100 C4099 1.383 . S
C4100 C4101 1.377 . S
C4101 H4085 0.930 . S
C4101 C4100 1.377 . S
C4101 C4102 1.379 . S
C4102 H4086 0.931 . S
C4102 C4096 1.383 . S
C4102 C4101 1.379 . S
H4103 C4097 0.959 . S
H4104 C4097 0.961 . S
H4105 C4097 0.960 . S
H4106 C4098 0.930 . S
H4107 C4099 0.929 1_455 S
H4108 C4116 0.929 . S
H4109 C4118 0.930 . S
H4110 C4120 0.930 . S
H4111 C4123 0.929 . S
H4112 C4126 0.930 . S
H4113 C4128 0.960 . S
H4114 C4128 0.960 . S
H4115 C4128 0.960 . S
C4116 H4108 0.929 . S
C4116 C4117 1.377 . S
C4116 C4118 1.384 . S
C4117 C4116 1.377 . S
C4117 C4123 1.390 . S
C4118 H4109 0.930 . S
C4118 C4116 1.384 . S
C4118 C4119 1.372 . S
C4119 C4118 1.372 . S
C4119 C4120 1.400 . S
C4119 C4124 1.490 . S
C4120 H4110 0.930 . S
C4120 C4119 1.400 . S
C4120 C4123 1.386 . S
H4121 C4137 0.930 . S
H4122 C4138 0.931 . S
C4123 H4111 0.929 . S
C4123 C4117 1.390 . S
C4123 C4120 1.386 . S
C4124 C4119 1.490 . S
C4124 C4126 1.395 . S
C4124 C4127 1.403 . S
H4125 C4131 0.930 . S
C4126 H4112 0.930 . S
C4126 C4124 1.395 . S
C4126 C4129 1.403 . S
C4127 C4124 1.403 . S
C4127 C4128 1.524 . S
C4127 C4131 1.400 . S
C4128 H4113 0.960 . S
C4128 H4114 0.960 . S
C4128 H4115 0.960 . S
C4128 C4127 1.524 . S
C4129 C4126 1.403 . S
C4129 C4130 1.392 . S
C4129 C4133 1.495 . S
C4130 C4129 1.392 . S
C4130 C4131 1.385 . S
C4130 C4132 1.478 . S
C4131 H4125 0.930 . S
C4131 C4127 1.400 . S
C4131 C4130 1.385 . S
C4132 C4130 1.478 . S
C4132 C4134 1.381 . S
C4132 C4138 1.383 . S
C4133 C4129 1.495 . S
C4133 H4139 0.959 . S
C4133 H4140 0.961 . S
C4133 H4141 0.960 . S
C4134 C4132 1.381 . S
C4134 C4135 1.394 . S
C4134 H4142 0.930 . S
C4135 C4134 1.394 . S
C4135 C4136 1.383 . S
C4135 H4143 0.929 . S
C4136 C4135 1.383 . S
C4136 C4137 1.377 . S
C4137 H4121 0.930 . S
C4137 C4136 1.377 . S
C4137 C4138 1.379 . S
C4138 H4122 0.931 . S
C4138 C4132 1.383 . S
C4138 C4137 1.379 . S
H4139 C4133 0.959 . S
H4140 C4133 0.961 . S
H4141 C4133 0.960 . S
H4142 C4134 0.930 . S
H4143 C4135 0.929 . S
H4144 C4152 0.929 . S
H4145 C4154 0.930 . S
H4146 C4156 0.930 . S
H4147 C4159 0.929 . S
H4148 C4162 0.930 . S
H4149 C4164 0.960 . S
H4150 C4164 0.960 . S
H4151 C4164 0.960 . S
C4152 H4144 0.929 . S
C4152 C4153 1.377 . S
C4152 C4154 1.384 . S
C4153 C4152 1.377 . S
C4153 C4159 1.390 . S
C4154 H4145 0.930 . S
C4154 C4152 1.384 . S
C4154 C4155 1.372 . S
C4155 C4154 1.372 . S
C4155 C4156 1.400 . S
C4155 C4160 1.490 . S
C4156 H4146 0.930 . S
C4156 C4155 1.400 . S
C4156 C4159 1.386 . S
H4157 C4173 0.930 . S
H4158 C4174 0.931 . S
C4159 H4147 0.929 . S
C4159 C4153 1.390 . S
C4159 C4156 1.386 . S
C4160 C4155 1.490 . S
C4160 C4162 1.395 . S
C4160 C4163 1.403 . S
H4161 C4167 0.930 . S
C4162 H4148 0.930 . S
C4162 C4160 1.395 . S
C4162 C4165 1.403 . S
C4163 C4160 1.403 . S
C4163 C4164 1.524 . S
C4163 C4167 1.400 . S
C4164 H4149 0.960 . S
C4164 H4150 0.960 . S
C4164 H4151 0.960 . S
C4164 C4163 1.524 . S
C4165 C4162 1.403 . S
C4165 C4166 1.392 . S
C4165 C4169 1.495 . S
C4166 C4165 1.392 . S
C4166 C4167 1.385 . S
C4166 C4168 1.478 . S
C4167 H4161 0.930 . S
C4167 C4163 1.400 . S
C4167 C4166 1.385 . S
C4168 C4166 1.478 . S
C4168 C4170 1.381 . S
C4168 C4174 1.383 . S
C4169 C4165 1.495 . S
C4169 H4175 0.959 . S
C4169 H4176 0.961 . S
C4169 H4177 0.960 . S
C4170 C4168 1.381 . S
C4170 C4171 1.394 . S
C4170 H4178 0.930 . S
C4171 C4170 1.394 . S
C4171 C4172 1.383 . S
C4171 H4179 0.929 . S
C4172 C4171 1.383 . S
C4172 C4173 1.377 . S
C4173 H4157 0.930 . S
C4173 C4172 1.377 . S
C4173 C4174 1.379 . S
C4174 H4158 0.931 . S
C4174 C4168 1.383 . S
C4174 C4173 1.379 . S
H4175 C4169 0.959 . S
H4176 C4169 0.961 . S
H4177 C4169 0.960 . S
H4178 C4170 0.930 . S
H4179 C4171 0.929 . S
H4180 C4188 0.929 . S
H4181 C4190 0.930 . S
H4182 C4192 0.930 . S
H4183 C4195 0.929 . S
H4184 C4198 0.930 . S
H4185 C4200 0.960 . S
H4186 C4200 0.960 . S
H4187 C4200 0.960 . S
C4188 H4180 0.929 . S
C4188 C4189 1.377 . S
C4188 C4190 1.384 . S
C4189 C4188 1.377 . S
C4189 C4195 1.390 . S
C4190 H4181 0.930 . S
C4190 C4188 1.384 . S
C4190 C4191 1.372 . S
C4191 C4190 1.372 . S
C4191 C4192 1.400 . S
C4191 C4196 1.490 . S
C4192 H4182 0.930 . S
C4192 C4191 1.400 . S
C4192 C4195 1.386 . S
H4193 C4209 0.930 . S
H4194 C4210 0.931 1_545 S
C4195 H4183 0.929 . S
C4195 C4189 1.390 . S
C4195 C4192 1.386 . S
C4196 C4191 1.490 . S
C4196 C4198 1.395 . S
C4196 C4199 1.403 . S
H4197 C4203 0.930 . S
C4198 H4184 0.930 . S
C4198 C4196 1.395 . S
C4198 C4201 1.403 . S
C4199 C4196 1.403 . S
C4199 C4200 1.524 . S
C4199 C4203 1.400 . S
C4200 H4185 0.960 . S
C4200 H4186 0.960 . S
C4200 H4187 0.960 . S
C4200 C4199 1.524 . S
C4201 C4198 1.403 . S
C4201 C4202 1.392 . S
C4201 C4205 1.495 . S
C4202 C4201 1.392 . S
C4202 C4203 1.385 . S
C4202 C4204 1.478 . S
C4203 H4197 0.930 . S
C4203 C4199 1.400 . S
C4203 C4202 1.385 . S
C4204 C4202 1.478 . S
C4204 C4206 1.381 . S
C4204 C4210 1.383 . S
C4205 C4201 1.495 . S
C4205 H4211 0.959 . S
C4205 H4212 0.961 . S
C4205 H4213 0.960 . S
C4206 C4204 1.381 . S
C4206 C4207 1.394 . S
C4206 H4214 0.930 . S
C4207 C4206 1.394 . S
C4207 C4208 1.383 1_565 S
C4207 H4215 0.929 . S
C4208 C4207 1.383 1_545 S
C4208 C4209 1.377 . S
C4209 H4193 0.930 . S
C4209 C4208 1.377 . S
C4209 C4210 1.379 1_545 S
C4210 H4194 0.931 1_565 S
C4210 C4204 1.383 . S
C4210 C4209 1.379 1_565 S
H4211 C4205 0.959 . S
H4212 C4205 0.961 . S
H4213 C4205 0.960 . S
H4214 C4206 0.930 . S
H4215 C4207 0.929 . S
H4216 C4224 0.929 . S
H4217 C4226 0.930 . S
H4218 C4228 0.930 . S
H4219 C4231 0.929 . S
H4220 C4234 0.930 . S
H4221 C4236 0.960 . S
H4222 C4236 0.960 . S
H4223 C4236 0.960 . S
C4224 H4216 0.929 . S
C4224 C4225 1.377 . S
C4224 C4226 1.384 . S
C4225 C4224 1.377 . S
C4225 C4231 1.390 . S
C4226 H4217 0.930 . S
C4226 C4224 1.384 . S
C4226 C4227 1.372 . S
C4227 C4226 1.372 . S
C4227 C4228 1.400 . S
C4227 C4232 1.490 . S
C4228 H4218 0.930 . S
C4228 C4227 1.400 . S
C4228 C4231 1.386 . S
H4229 C4245 0.930 . S
H4230 C4246 0.931 . S
C4231 H4219 0.929 . S
C4231 C4225 1.390 . S
C4231 C4228 1.386 . S
C4232 C4227 1.490 . S
C4232 C4234 1.395 . S
C4232 C4235 1.403 . S
H4233 C4239 0.930 . S
C4234 H4220 0.930 . S
C4234 C4232 1.395 . S
C4234 C4237 1.403 . S
C4235 C4232 1.403 . S
C4235 C4236 1.524 . S
C4235 C4239 1.400 . S
C4236 H4221 0.960 . S
C4236 H4222 0.960 . S
C4236 H4223 0.960 . S
C4236 C4235 1.524 . S
C4237 C4234 1.403 . S
C4237 C4238 1.392 . S
C4237 C4241 1.495 . S
C4238 C4237 1.392 . S
C4238 C4239 1.385 . S
C4238 C4240 1.478 . S
C4239 H4233 0.930 . S
C4239 C4235 1.400 . S
C4239 C4238 1.385 . S
C4240 C4238 1.478 . S
C4240 C4242 1.381 . S
C4240 C4246 1.383 . S
C4241 C4237 1.495 . S
C4241 H4247 0.959 . S
C4241 H4248 0.961 . S
C4241 H4249 0.960 . S
C4242 C4240 1.381 . S
C4242 C4243 1.394 . S
C4242 H4250 0.930 . S
C4243 C4242 1.394 . S
C4243 C4244 1.383 . S
C4243 H4251 0.929 . S
C4244 C4243 1.383 . S
C4244 C4245 1.377 . S
C4245 H4229 0.930 . S
C4245 C4244 1.377 . S
C4245 C4246 1.379 . S
C4246 H4230 0.931 . S
C4246 C4240 1.383 . S
C4246 C4245 1.379 . S
H4247 C4241 0.959 . S
H4248 C4241 0.961 . S
H4249 C4241 0.960 . S
H4250 C4242 0.930 . S
H4251 C4243 0.929 . S
H4252 C4260 0.929 . S
H4253 C4262 0.930 . S
H4254 C4264 0.930 . S
H4255 C4267 0.929 . S
H4256 C4270 0.930 . S
H4257 C4272 0.960 . S
H4258 C4272 0.960 1_556 S
H4259 C4272 0.960 . S
C4260 H4252 0.929 . S
C4260 C4261 1.377 1_556 S
C4260 C4262 1.384 . S
C4261 C4260 1.377 1_554 S
C4261 C4267 1.390 . S
C4262 H4253 0.930 . S
C4262 C4260 1.384 . S
C4262 C4263 1.372 1_556 S
C4263 C4262 1.372 1_554 S
C4263 C4264 1.400 . S
C4263 C4268 1.490 . S
C4264 H4254 0.930 . S
C4264 C4263 1.400 . S
C4264 C4267 1.386 . S
H4265 C4281 0.930 . S
H4266 C4282 0.931 . S
C4267 H4255 0.929 . S
C4267 C4261 1.390 . S
C4267 C4264 1.386 . S
C4268 C4263 1.490 . S
C4268 C4270 1.395 . S
C4268 C4271 1.403 . S
H4269 C4275 0.930 . S
C4270 H4256 0.930 . S
C4270 C4268 1.395 . S
C4270 C4273 1.403 . S
C4271 C4268 1.403 . S
C4271 C4272 1.524 . S
C4271 C4275 1.400 . S
C4272 H4257 0.960 . S
C4272 H4258 0.960 1_554 S
C4272 H4259 0.960 . S
C4272 C4271 1.524 . S
C4273 C4270 1.403 . S
C4273 C4274 1.392 . S
C4273 C4277 1.495 . S
C4274 C4273 1.392 . S
C4274 C4275 1.385 . S
C4274 C4276 1.478 . S
C4275 H4269 0.930 . S
C4275 C4271 1.400 . S
C4275 C4274 1.385 . S
C4276 C4274 1.478 . S
C4276 C4278 1.381 . S
C4276 C4282 1.383 . S
C4277 C4273 1.495 . S
C4277 H4283 0.959 . S
C4277 H4284 0.961 . S
C4277 H4285 0.960 . S
C4278 C4276 1.381 . S
C4278 C4279 1.394 . S
C4278 H4286 0.930 1_554 S
C4279 C4278 1.394 . S
C4279 C4280 1.383 . S
C4279 H4287 0.929 1_554 S
C4280 C4279 1.383 . S
C4280 C4281 1.377 . S
C4281 H4265 0.930 . S
C4281 C4280 1.377 . S
C4281 C4282 1.379 . S
C4282 H4266 0.931 . S
C4282 C4276 1.383 . S
C4282 C4281 1.379 . S
H4283 C4277 0.959 . S
H4284 C4277 0.961 . S
H4285 C4277 0.960 . S
H4286 C4278 0.930 1_556 S
H4287 C4279 0.929 1_556 S
H4288 C4296 0.929 . S
H4289 C4298 0.930 . S
H4290 C4300 0.930 . S
H4291 C4303 0.929 . S
H4292 C4306 0.930 . S
H4293 C4308 0.960 . S
H4294 C4308 0.960 . S
H4295 C4308 0.960 . S
C4296 H4288 0.929 . S
C4296 C4297 1.377 . S
C4296 C4298 1.384 . S
C4297 C4296 1.377 . S
C4297 C4303 1.390 . S
C4298 H4289 0.930 . S
C4298 C4296 1.384 . S
C4298 C4299 1.372 . S
C4299 C4298 1.372 . S
C4299 C4300 1.400 . S
C4299 C4304 1.490 . S
C4300 H4290 0.930 . S
C4300 C4299 1.400 . S
C4300 C4303 1.386 . S
H4301 C4317 0.930 . S
H4302 C4318 0.931 . S
C4303 H4291 0.929 . S
C4303 C4297 1.390 . S
C4303 C4300 1.386 . S
C4304 C4299 1.490 . S
C4304 C4306 1.395 . S
C4304 C4307 1.403 . S
H4305 C4311 0.930 . S
C4306 H4292 0.930 . S
C4306 C4304 1.395 . S
C4306 C4309 1.403 . S
C4307 C4304 1.403 . S
C4307 C4308 1.524 . S
C4307 C4311 1.400 . S
C4308 H4293 0.960 . S
C4308 H4294 0.960 . S
C4308 H4295 0.960 . S
C4308 C4307 1.524 . S
C4309 C4306 1.403 . S
C4309 C4310 1.392 . S
C4309 C4313 1.495 . S
C4310 C4309 1.392 . S
C4310 C4311 1.385 . S
C4310 C4312 1.478 . S
C4311 H4305 0.930 . S
C4311 C4307 1.400 . S
C4311 C4310 1.385 . S
C4312 C4310 1.478 . S
C4312 C4314 1.381 . S
C4312 C4318 1.383 . S
C4313 C4309 1.495 . S
C4313 H4319 0.959 . S
C4313 H4320 0.961 . S
C4313 H4321 0.960 . S
C4314 C4312 1.381 . S
C4314 C4315 1.394 . S
C4314 H4322 0.930 . S
C4315 C4314 1.394 . S
C4315 C4316 1.383 . S
C4315 H4323 0.929 . S
C4316 C4315 1.383 . S
C4316 C4317 1.377 . S
C4317 H4301 0.930 . S
C4317 C4316 1.377 . S
C4317 C4318 1.379 . S
C4318 H4302 0.931 . S
C4318 C4312 1.383 . S
C4318 C4317 1.379 . S
H4319 C4313 0.959 . S
H4320 C4313 0.961 . S
H4321 C4313 0.960 . S
H4322 C4314 0.930 . S
H4323 C4315 0.929 . S
H4324 C4332 0.929 . S
H4325 C4334 0.930 . S
H4326 C4336 0.930 1_556 S
H4327 C4339 0.935 . S
H4328 C4342 0.930 . S
H4329 C4344 0.960 . S
H4330 C4344 0.960 . S
H4331 C4344 0.960 . S
C4332 H4324 0.929 . S
C4332 C4333 1.377 . S
C4332 C4334 1.384 . S
C4333 C4332 1.377 . S
C4333 C4339 1.390 . S
C4334 H4325 0.930 . S
C4334 C4332 1.384 . S
C4334 C4335 1.372 . S
C4335 C4334 1.372 . S
C4335 C4336 1.400 . S
C4335 C4340 1.490 . S
C4336 H4326 0.930 1_554 S
C4336 C4335 1.400 . S
C4336 C4339 1.386 . S
H4337 C4353 0.977 . S
H4338 C4354 0.931 1_556 S
C4339 H4327 0.935 . S
C4339 C4333 1.390 . S
C4339 C4336 1.386 . S
C4340 C4335 1.490 . S
C4340 C4342 1.395 . S
C4340 C4343 1.403 . S
H4341 C4347 0.930 1_556 S
C4342 H4328 0.930 . S
C4342 C4340 1.395 . S
C4342 C4345 1.403 . S
C4343 C4340 1.403 . S
C4343 C4344 1.524 1_554 S
C4343 C4347 1.400 . S
C4344 H4329 0.960 . S
C4344 H4330 0.960 . S
C4344 H4331 0.960 . S
C4344 C4343 1.524 1_556 S
C4345 C4342 1.403 . S
C4345 C4346 1.392 . S
C4345 C4349 1.495 . S
C4346 C4345 1.392 . S
C4346 C4347 1.385 . S
C4346 C4348 1.478 . S
C4347 H4341 0.930 1_554 S
C4347 C4343 1.400 . S
C4347 C4346 1.385 . S
C4348 C4346 1.478 . S
C4348 C4350 1.381 . S
C4348 C4354 1.383 . S
C4349 C4345 1.495 . S
C4349 H4355 0.959 . S
C4349 H4356 0.961 . S
C4349 H4357 0.960 . S
C4350 C4348 1.381 . S
C4350 C4351 1.394 . S
C4350 H4358 0.930 . S
C4351 C4350 1.394 . S
C4351 C4352 1.383 . S
C4351 H4359 0.929 . S
C4352 C4351 1.383 . S
C4352 C4353 1.339 1_554 S
C4353 H4337 0.977 . S
C4353 C4352 1.339 1_556 S
C4353 C4354 1.372 1_556 S
C4354 H4338 0.931 1_554 S
C4354 C4348 1.383 . S
C4354 C4353 1.372 1_554 S
H4355 C4349 0.959 . S
H4356 C4349 0.961 . S
H4357 C4349 0.960 . S
H4358 C4350 0.930 . S
H4359 C4351 0.929 . S
H4360 C4368 0.891 1_545 S
H4361 C4370 0.930 . S
H4362 C4372 0.930 . S
H4363 C4375 0.929 . S
H4364 C4378 0.930 . S
H4365 C4380 0.960 . S
H4366 C4380 0.960 . S
H4367 C4380 0.960 . S
C4368 H4360 0.891 1_565 S
C4368 C4369 1.377 . S
C4368 C4370 1.384 . S
C4369 C4368 1.377 . S
C4369 C4375 1.390 . S
C4370 H4361 0.930 . S
C4370 C4368 1.384 . S
C4370 C4371 1.372 . S
C4371 C4370 1.372 . S
C4371 C4372 1.400 . S
C4371 C4376 1.490 . S
C4372 H4362 0.930 . S
C4372 C4371 1.400 . S
C4372 C4375 1.386 . S
H4373 C4389 0.930 . S
H4374 C4390 0.931 . S
C4375 H4363 0.929 . S
C4375 C4369 1.390 . S
C4375 C4372 1.386 . S
C4376 C4371 1.490 . S
C4376 C4378 1.395 . S
C4376 C4379 1.403 . S
H4377 C4383 0.930 . S
C4378 H4364 0.930 . S
C4378 C4376 1.395 . S
C4378 C4381 1.403 . S
C4379 C4376 1.403 . S
C4379 C4380 1.524 . S
C4379 C4383 1.400 . S
C4380 H4365 0.960 . S
C4380 H4366 0.960 . S
C4380 H4367 0.960 . S
C4380 C4379 1.524 . S
C4381 C4378 1.403 . S
C4381 C4382 1.392 . S
C4381 C4385 1.495 . S
C4382 C4381 1.392 . S
C4382 C4383 1.385 . S
C4382 C4384 1.478 . S
C4383 H4377 0.930 . S
C4383 C4379 1.400 . S
C4383 C4382 1.385 . S
C4384 C4382 1.478 . S
C4384 C4386 1.381 . S
C4384 C4390 1.383 . S
C4385 C4381 1.495 . S
C4385 H4391 0.959 . S
C4385 H4392 0.961 . S
C4385 H4393 0.960 . S
C4386 C4384 1.381 . S
C4386 C4387 1.394 . S
C4386 H4394 0.930 . S
C4387 C4386 1.394 . S
C4387 C4388 1.383 . S
C4387 H4395 0.929 . S
C4388 C4387 1.383 . S
C4388 C4389 1.377 . S
C4389 H4373 0.930 . S
C4389 C4388 1.377 . S
C4389 C4390 1.379 . S
C4390 H4374 0.931 . S
C4390 C4384 1.383 . S
C4390 C4389 1.379 . S
H4391 C4385 0.959 . S
H4392 C4385 0.961 . S
H4393 C4385 0.960 . S
H4394 C4386 0.930 . S
H4395 C4387 0.929 . S
H4396 C4404 0.929 . S
H4397 C4406 0.930 . S
H4398 C4408 0.930 . S
H4399 C4411 0.929 . S
H4400 C4414 0.930 . S
H4401 C4416 0.960 . S
H4402 C4416 0.960 . S
H4403 C4416 0.960 . S
C4404 H4396 0.929 . S
C4404 C4405 1.377 . S
C4404 C4406 1.384 . S
C4405 C4404 1.377 . S
C4405 C4411 1.390 . S
C4406 H4397 0.930 . S
C4406 C4404 1.384 . S
C4406 C4407 1.372 . S
C4407 C4406 1.372 . S
C4407 C4408 1.400 . S
C4407 C4412 1.490 . S
C4408 H4398 0.930 . S
C4408 C4407 1.400 . S
C4408 C4411 1.386 . S
H4409 C4425 0.930 . S
H4410 C4426 0.931 . S
C4411 H4399 0.929 . S
C4411 C4405 1.390 . S
C4411 C4408 1.386 . S
C4412 C4407 1.490 . S
C4412 C4414 1.395 . S
C4412 C4415 1.403 . S
H4413 C4419 0.930 . S
C4414 H4400 0.930 . S
C4414 C4412 1.395 . S
C4414 C4417 1.403 . S
C4415 C4412 1.403 . S
C4415 C4416 1.524 . S
C4415 C4419 1.400 . S
C4416 H4401 0.960 . S
C4416 H4402 0.960 . S
C4416 H4403 0.960 . S
C4416 C4415 1.524 . S
C4417 C4414 1.403 . S
C4417 C4418 1.392 . S
C4417 C4421 1.495 . S
C4418 C4417 1.392 . S
C4418 C4419 1.385 . S
C4418 C4420 1.478 . S
C4419 H4413 0.930 . S
C4419 C4415 1.400 . S
C4419 C4418 1.385 . S
C4420 C4418 1.478 . S
C4420 C4422 1.381 . S
C4420 C4426 1.383 . S
C4421 C4417 1.495 . S
C4421 H4427 0.959 . S
C4421 H4428 0.961 . S
C4421 H4429 0.960 . S
C4422 C4420 1.381 . S
C4422 C4423 1.394 . S
C4422 H4430 0.930 . S
C4423 C4422 1.394 . S
C4423 C4424 1.383 . S
C4423 H4431 0.929 . S
C4424 C4423 1.383 . S
C4424 C4425 1.377 . S
C4425 H4409 0.930 . S
C4425 C4424 1.377 . S
C4425 C4426 1.379 . S
C4426 H4410 0.931 . S
C4426 C4420 1.383 . S
C4426 C4425 1.379 . S
H4427 C4421 0.959 . S
H4428 C4421 0.961 . S
H4429 C4421 0.960 . S
H4430 C4422 0.930 . S
H4431 C4423 0.929 . S
C985 C106 2.540 . S
C1004 C338 2.523 . S
C1021 C65 2.014 . S
C1040 C395 1.996 . S
C1057 C79 1.431 . S
C1076 C418 1.398 . S
C1112 C472 1.177 . S
C1093 C90 1.158 . S
C1129 C21 0.970 . S
C1148 C512 1.008 . S
C1184 C543 0.303 . S
C1165 C35 0.422 . S
C1220 C595 1.148 . S
C1201 C50 1.160 . S
C1237 C6 1.744 . S
C1256 C618 1.739 . S
C1292 C355 2.641 . S
C1273 C232 2.644 . S
C1309 C245 0.463 . S
C1328 C392 0.436 . S
C1364 C435 1.414 . S
C1345 C274 1.410 . S
C1400 C458 1.177 . S
C1381 C175 1.172 . S
C1417 C231 1.482 . S
C1436 C498 1.526 . S
C1472 C546 1.392 . S
C1453 C246 1.432 . S
C1508 C592 0.355 . S
C1489 C273 0.392 . S
C1544 C635 2.137 . S
C1525 C176 2.125 . S
C1580 C352 1.465 . S
C1561 C160 1.446 . S
C1597 C289 1.983 . S
C1616 C675 1.980 . S
C1652 C707 2.663 . S
C1633 C328 2.652 . S
C1688 C738 0.697 1_655 S
C1669 C317 0.744 . S
C1705 C118 1.334 . S
C1724 C632 1.344 . S
C1741 C132 1.532 . S
C1760 C432 1.566 . S
C1777 C331 2.391 . S
C1796 C795 2.378 . S
C1832 C818 0.773 . S
C1813 C303 0.709 . S
C1868 C347 2.062 1_565 S
C1849 C63 2.074 . S
C1904 C826 2.499 . S
C1885 C107 2.464 . S
C1921 C92 1.186 . S
C1940 C427 1.211 . S
C1957 C78 1.746 . S
C1976 C783 1.749 . S
C2012 C503 1.458 . S
C1993 C8 1.490 . S
C2029 C51 0.510 . S
C2048 C712 0.472 . S
C2084 C586 1.673 1_566 S
C2065 C37 1.610 . S
C2120 C867 1.636 . S
C2101 C20 1.646 . S
C2156 C346 2.468 . S
C2137 C147 2.427 . S
C2192 C823 0.529 . S
C2173 C316 0.419 . S
C2209 C119 1.293 . S
C2228 C426 1.331 . S
C2245 C288 1.325 . S
C2264 C787 1.342 . S
C2281 C148 1.937 1_545 S
C2300 C507 1.937 . S
C2336 C715 1.409 . S
C2317 C315 1.399 . S
C2353 C120 0.297 . S
C2372 C583 0.290 1_565 S
C2389 C287 1.979 . S
C2408 C866 1.996 . S
C2425 C188 1.317 . S
C2444 C343 1.324 . S
C2461 C177 2.343 . S
C2480 C666 2.360 . S
C2497 C258 2.764 . S
C2516 C538 2.788 . S
C2533 C247 0.767 . S
C2552 C747 0.769 . S
C2588 C863 1.156 . S
C2569 C272 1.142 . S
C2605 C216 1.315 . S
C2624 C423 1.322 . S
C2660 C466 2.629 . S
C2641 C261 2.629 . S
C2696 C387 0.731 . S
C2677 C205 0.681 . S
C2713 C76 2.125 . S
C2732 C898 2.133 . S
C2768 C835 2.110 . S
C2749 C93 2.120 . S
C2785 C105 0.991 . S
C2804 C938 1.011 . S
C2821 C62 1.184 . S
C2840 C792 1.206 . S
C2857 C49 0.962 . S
C2876 C672 0.972 . S
C2912 C703 0.758 . S
C2893 C9 0.724 . S
C2948 C755 1.044 . S
C2929 C22 1.056 . S
C2984 C858 2.101 . S
C2965 C36 2.172 . S
C3020 C915 2.565 . S
C3001 C260 2.569 . S
C3037 C189 0.386 . S
C3056 C832 0.211 . S
C3092 C955 1.285 . S
C3073 C204 1.279 . S
C3128 C778 0.956 . S
C3109 C217 0.991 . S
C3164 C658 1.821 . S
C3145 C259 1.772 . S
C3181 C190 1.546 . S
C3200 C706 1.524 . S
C3236 C752 0.351 . S
C3217 C203 0.390 . S
C3253 C218 2.226 . S
C3272 C875 2.233 . S
C3308 C912 1.410 . S
C3289 C314 1.410 . S
C3325 C135 2.076 . S
C3344 C515 2.063 . S
C3380 C547 2.546 . S
C3361 C146 2.525 . S
C3416 C578 0.795 . S
C3397 C163 0.756 . S
C3452 C872 1.394 . S
C3433 C300 1.357 . S
C3469 C286 1.470 . S
C3488 C952 1.494 . S
C3524 C475 2.280 . S
C3505 C149 2.283 . S
C3560 C378 0.615 . S
C3541 C121 0.665 . S
C3577 C91 2.055 . S
C3596 C907 2.043 . S
C3632 C386 2.078 . S
C3613 C77 1.982 . S
C3649 C64 1.154 . S
C3668 C947 1.184 . S
C3685 C104 1.356 . S
C3704 C463 1.398 . S
C3721 C34 1.074 . S
C3740 C663 1.057 . S
C3776 C552 0.446 . S
C3757 C23 0.483 . S
C3793 C7 1.156 . S
C3812 C746 1.233 . S
C3829 C48 1.618 . S
C3848 C627 1.607 . S
C3884 C906 2.417 . S
C3865 C329 2.394 . S
C3901 C162 0.426 . S
C3920 C383 0.402 . S
C3956 C946 1.329 1_556 S
C3937 C301 1.305 . S
C3973 C134 1.346 . S
C3992 C467 1.327 . S
C4009 C330 1.912 . S
C4028 C667 1.886 . S
C4064 C555 1.422 . S
C4045 C161 1.422 . S
C4081 C302 0.303 . S
C4100 C743 0.338 . S
C4136 C626 1.963 . S
C4117 C133 1.957 . S
C4172 C903 1.509 . S
C4153 C244 1.517 . S
C4208 C506 2.294 1_655 S
C4189 C219 2.268 . S
C4225 C230 2.398 . S
C4244 C698 2.420 . S
C4280 C587 0.778 . S
C4261 C191 0.757 . S
C4297 C202 1.324 . S
C4316 C623 1.323 . S
C4333 C174 1.552 . S
C4352 C943 1.565 . S
C4388 C786 2.597 . S
C4369 C233 2.590 1_565 S
C4424 C827 0.713 . S
C4405 C275 0.674 . S
