# Generated by pormake.
# Topology pts, (4,4)-cn, num edge types: 1
# Building blocks:
#     Node 0, Type 0, BuildingBlock: KOZSID_clean_sbu_0, # of connection points: 4
#     Node 1, Type 0, BuildingBlock: KOZSID_clean_sbu_0, # of connection points: 4
#     Node 2, Type 1, BuildingBlock: QUQFOY_clean_sbu_1, # of connection points: 4
#     Node 3, Type 1, BuildingBlock: QUQFOY_clean_sbu_1, # of connection points: 4
#     Edge 4, Type (0, 1), BuildingBlock: TEMPAE_clean_linker_10, # of connection points: 2
#     Edge 5, Type (0, 1), BuildingBlock: TEMPAE_clean_linker_10, # of connection points: 2
#     Edge 6, Type (0, 1), BuildingBlock: TEMPAE_clean_linker_10, # of connection points: 2
#     Edge 7, Type (0, 1), BuildingBlock: TEMPAE_clean_linker_10, # of connection points: 2
#     Edge 8, Type (0, 1), BuildingBlock: TEMPAE_clean_linker_10, # of connection points: 2
#     Edge 9, Type (0, 1), BuildingBlock: TEMPAE_clean_linker_10, # of connection points: 2
#     Edge 10, Type (0, 1), BuildingBlock: TEMPAE_clean_linker_10, # of connection points: 2
#     Edge 11, Type (0, 1), BuildingBlock: TEMPAE_clean_linker_10, # of connection points: 2
# Relax obj value: 0.094
# Max RMSD: 0.254
# Mean RMSD: 0.145
data_MOF--net-pts--node1-KOZSID_clean_sbu_0--node2-QUQFOY_clean_sbu_1--edge1-TEMPAE_clean_linker_10
_symmetry_space_group_name_H-M    P1
_symmetry_Int_Tables_number       1
_symmetry_cell_setting            triclinic
loop_
_symmetry_equiv_pos_as_xyz
'x, y, z'
_cell_length_a     25.616647
_cell_length_b     28.695927
_cell_length_c     42.406266
_cell_angle_alpha  86.111423
_cell_angle_beta   94.251685
_cell_angle_gamma 90.116202
loop_
_atom_site_label
_atom_site_type_symbol
_atom_site_fract_x
_atom_site_fract_y
_atom_site_fract_z
_atom_type_partial_charge
C0 C 0.62852 0.11817 0.05203 0.0
C1 C 0.64095 0.16325 0.05988 0.0
C2 C 0.60931 0.19257 0.04036 0.0
C3 C 0.57958 0.16386 0.02176 0.0
N4 N 0.59022 0.11788 0.02819 0.0
Co5 Co 0.55623 0.06407 0.00679 0.0
N6 N 0.50952 0.10737 0.97816 0.0
C7 C 0.5085 0.15462 0.97735 0.0
C8 C 0.47272 0.17478 0.95496 0.0
C9 C 0.44928 0.13831 0.94059 0.0
C10 C 0.4721 0.09779 0.95524 0.0
N11 N 0.52219 0.01026 0.98542 0.0
C12 C 0.48345 0.00992 0.96184 0.0
C13 C 0.47074 0.96478 0.95421 0.0
C14 C 0.50271 0.93552 0.97355 0.0
C15 C 0.53285 0.96427 0.99187 0.0
N16 N 0.60297 0.02077 0.0354 0.0
C17 C 0.60429 0.97354 0.03606 0.0
C18 C 0.64021 0.9534 0.05838 0.0
C19 C 0.66338 0.98987 0.0729 0.0
C20 C 0.64018 0.03035 0.05844 0.0
N21 N 0.50273 0.06039 0.03844 0.0
C22 C 0.42664 0.05528 0.08316 0.0
C23 C 0.45313 0.01532 0.07612 0.0
C24 C 0.49043 0.01857 0.05367 0.0
C25 C 0.43887 0.09785 0.0676 0.0
C26 C 0.477 0.09966 0.04569 0.0
N27 N 0.60973 0.06776 0.9751 0.0
C28 C 0.67303 0.03012 0.94561 0.0
C29 C 0.68544 0.07268 0.93012 0.0
C30 C 0.65939 0.11275 0.9374 0.0
C31 C 0.6223 0.10959 0.95998 0.0
C32 C 0.6351 0.02841 0.96765 0.0
H33 H 0.60454 0.14151 0.96485 0.0
H34 H 0.62699 0.99482 0.97829 0.0
H35 H 0.50856 0.98673 0.04899 0.0
H36 H 0.48496 0.13323 0.03495 0.0
C37 C 0.54156 0.17906 0.99803 0.0
C38 C 0.65478 0.07692 0.06759 0.0
C39 C 0.45689 0.05116 0.94642 0.0
C40 C 0.57109 0.94909 0.01547 0.0
H41 H 0.67005 0.17384 0.0778 0.0
H42 H 0.60822 0.23033 0.03972 0.0
H43 H 0.46466 0.21162 0.9497 0.0
H44 H 0.41883 0.14123 0.92144 0.0
H45 H 0.44117 0.95407 0.93662 0.0
H46 H 0.50365 0.89774 0.9743 0.0
H47 H 0.64847 0.91658 0.06353 0.0
H48 H 0.69384 0.987 0.09204 0.0
H49 H 0.44444 0.9815 0.08745 0.0
H50 H 0.41952 0.12979 0.0726 0.0
H51 H 0.69205 0.9981 0.94045 0.0
H52 H 0.66826 0.14657 0.92612 0.0
C53 C 0.10597 0.49191 0.55951 0.0
C54 C 0.1535 0.47774 0.57506 0.0
C55 C 0.19134 0.5035 0.56111 0.0
C56 C 0.16487 0.5321 0.53815 0.0
N57 N 0.11229 0.5269 0.537 0.0
Co58 Co 0.05902 0.56103 0.50699 0.0
N59 N 0.11505 0.59589 0.48441 0.0
C60 C 0.16745 0.59171 0.49091 0.0
C61 C 0.19603 0.62259 0.47321 0.0
C62 C 0.15985 0.64863 0.45457 0.0
C63 C 0.11093 0.63175 0.46176 0.0
N64 N 0.00575 0.59509 0.47695 0.0
C65 C 0.01207 0.62986 0.45429 0.0
C66 C 0.96455 0.6438 0.43862 0.0
C67 C 0.92672 0.61812 0.45263 0.0
C68 C 0.95318 0.58978 0.47574 0.0
N69 N 0.00298 0.52622 0.5296 0.0
C70 C 0.95057 0.53053 0.52318 0.0
C71 C 0.92199 0.49972 0.54092 0.0
C72 C 0.95816 0.47358 0.55949 0.0
C73 C 0.00709 0.49033 0.55221 0.0
N74 N 0.05631 0.61224 0.53618 0.0
C75 C 0.05257 0.68958 0.57387 0.0
C76 C 0.0067 0.66795 0.56235 0.0
C77 C 0.00944 0.6299 0.54362 0.0
C78 C 0.10033 0.67098 0.56666 0.0
C79 C 0.10128 0.63245 0.5483 0.0
N80 N 0.06172 0.50981 0.47781 0.0
C81 C 0.01764 0.45069 0.44772 0.0
C82 C 0.06535 0.43232 0.44025 0.0
C83 C 0.11125 0.45424 0.45145 0.0
C84 C 0.10857 0.49238 0.47013 0.0
C85 C 0.01674 0.48931 0.46598 0.0
H86 H 0.14496 0.50687 0.47832 0.0
H87 H 0.97908 0.50141 0.47061 0.0
H88 H 0.97306 0.61567 0.53519 0.0
H89 H 0.13896 0.62015 0.54386 0.0
C90 C 0.1884 0.56199 0.5161 0.0
C91 C 0.05635 0.46928 0.56583 0.0
C92 C 0.06166 0.65257 0.44797 0.0
C93 C 0.92962 0.56008 0.49789 0.0
H94 H 0.16025 0.45067 0.59396 0.0
H95 H 0.23324 0.50075 0.56643 0.0
H96 H 0.23807 0.62716 0.47479 0.0
H97 H 0.16885 0.67782 0.43844 0.0
H98 H 0.9578 0.67067 0.41958 0.0
H99 H 0.88482 0.62076 0.44724 0.0
H100 H 0.87993 0.49521 0.53938 0.0
H101 H 0.94914 0.44437 0.5756 0.0
H102 H 0.9686 0.68011 0.56777 0.0
H103 H 0.13714 0.68651 0.57459 0.0
H104 H 0.98082 0.43493 0.44007 0.0
H105 H 0.1493 0.44224 0.44582 0.0
O106 O 0.97567 0.02724 0.24101 0.0
Cd107 Cd 0.0465 0.00723 0.264 0.0
Cd108 Cd 0.05876 0.10451 0.2633 0.0
O109 O 0.98843 0.10333 0.23607 0.0
O110 O 0.03634 0.93909 0.27384 0.0
O111 O 0.05613 0.98838 0.31083 0.0
C112 C 0.04608 0.94624 0.30334 0.0
C113 C 0.06664 0.16096 0.30064 0.0
C114 C 0.96032 0.06782 0.23054 0.0
C115 C 0.13905 0.04845 0.23292 0.0
O116 O 0.12593 0.08743 0.24257 0.0
O117 O 0.11146 0.01224 0.23802 0.0
O118 O 0.0698 0.17168 0.27087 0.0
O119 O 0.059 0.11768 0.30952 0.0
O120 O -0.00013 0.11015 0.77439 0.0
Cd121 Cd 0.06532 0.11395 0.74876 0.0
Cd122 Cd 0.05245 0.01678 0.75125 0.0
O123 O 0.98459 0.03487 0.77087 0.0
O124 O 0.07639 0.18192 0.73882 0.0
O125 O 0.05679 0.1326 0.70185 0.0
C126 C 0.06723 0.17468 0.70931 0.0
C127 C 0.04625 0.96023 0.71397 0.0
C128 C 0.97173 0.07438 0.77981 0.0
C129 C 0.15042 0.05392 0.78397 0.0
O130 O 0.12191 0.01839 0.77929 0.0
O131 O 0.13577 0.09412 0.7723 0.0
O132 O 0.04167 0.94959 0.74363 0.0
O133 O 0.05417 0.0035 0.70518 0.0
C134 C 0.33712 0.0736 0.09855 0.0
C135 C 0.3861 0.05256 0.10635 0.0
C136 C 0.29815 0.0712 0.12013 0.0
C137 C 0.30876 0.0478 0.15042 0.0
C138 C 0.35829 0.02669 0.15849 0.0
C139 C 0.39629 0.029 0.13622 0.0
C140 C 0.24555 0.09357 0.11048 0.0
C141 C 0.37129 0.00211 0.19072 0.0
C142 C 0.22171 0.08256 0.21356 0.0
C143 C 0.18514 0.0461 0.21397 0.0
C144 C 0.26329 0.08269 0.1938 0.0
C145 C 0.26793 0.04583 0.17362 0.0
C146 C 0.23194 0.00835 0.17449 0.0
C147 C 0.19118 0.00875 0.19484 0.0
C148 C 0.30143 0.12289 0.19392 0.0
C149 C 0.23532 0.96869 0.15306 0.0
H150 H 0.32907 0.09139 0.07532 0.0
H151 H 0.43436 0.01308 0.14233 0.0
H152 H 0.2141 0.06712 0.11251 0.0
H153 H 0.23768 0.12111 0.12666 0.0
H154 H 0.24324 0.10949 0.0858 0.0
H155 H 0.41171 0.98768 0.1933 0.0
H156 H 0.36716 0.02678 0.20943 0.0
H157 H 0.34339 0.97313 0.19491 0.0
H158 H 0.21754 0.11137 0.22846 0.0
H159 H 0.16298 0.98054 0.19494 0.0
H160 H 0.29775 0.14309 0.17061 0.0
H161 H 0.3422 0.10955 0.19759 0.0
H162 H 0.29469 0.14695 0.21267 0.0
H163 H 0.22919 0.98233 0.12794 0.0
H164 H 0.20576 0.94115 0.15764 0.0
H165 H 0.27484 0.95257 0.15621 0.0
C166 C 0.08174 0.38499 0.57477 0.0
C167 C 0.05663 0.4239 0.58509 0.0
C168 C 0.08459 0.34246 0.59325 0.0
C169 C 0.06039 0.3385 0.62227 0.0
C170 C 0.03404 0.37756 0.63243 0.0
C171 C 0.03354 0.42011 0.61404 0.0
C172 C 0.11465 0.30222 0.58215 0.0
C173 C 0.0067 0.37452 0.66285 0.0
C174 C 0.03002 0.21807 0.65967 0.0
C175 C 0.06808 0.21406 0.68517 0.0
C176 C 0.02721 0.25828 0.63872 0.0
C177 C 0.06454 0.29432 0.64283 0.0
C178 C 0.10462 0.28915 0.66767 0.0
C179 C 0.10524 0.24949 0.68892 0.0
C180 C 0.983 0.26314 0.61312 0.0
C181 C 0.14625 0.32594 0.67222 0.0
H182 H 0.09995 0.38821 0.55244 0.0
H183 H 0.01494 0.45051 0.62222 0.0
H184 H 0.14742 0.29218 0.5999 0.0
H185 H 0.08897 0.27127 0.58004 0.0
H186 H 0.13091 0.31093 0.55891 0.0
H187 H 0.98423 0.40677 0.66594 0.0
H188 H 0.97948 0.34439 0.66325 0.0
H189 H 0.03589 0.36866 0.68338 0.0
H190 H 0.001 0.19078 0.65702 0.0
H191 H 0.13489 0.24615 0.70857 0.0
H192 H 0.99867 0.27017 0.58958 0.0
H193 H 0.95803 0.29339 0.61721 0.0
H194 H 0.95816 0.23139 0.61245 0.0
H195 H 0.1644 0.33473 0.64961 0.0
H196 H 0.17752 0.31446 0.69064 0.0
H197 H 0.12832 0.3584 0.67934 0.0
C198 C 0.68685 0.08895 0.12347 0.0
C199 C 0.69793 0.0821 0.09232 0.0
C200 C 0.72736 0.09022 0.14758 0.0
C201 C 0.77986 0.08436 0.14013 0.0
C202 C 0.79105 0.07872 0.10837 0.0
C203 C 0.74979 0.0776 0.0848 0.0
C204 C 0.71392 0.09631 0.18111 0.0
C205 C 0.84646 0.07238 0.09946 0.0
C206 C 0.895 0.117 0.19598 0.0
C207 C 0.91105 0.07307 0.20989 0.0
C208 C 0.85122 0.12151 0.17398 0.0
C209 C 0.82296 0.08115 0.16567 0.0
C210 C 0.83778 0.037 0.18048 0.0
C211 C 0.88154 0.03351 0.20242 0.0
C212 C 0.83631 0.1692 0.1588 0.0
C213 C 0.80854 0.99313 0.17229 0.0
H214 H 0.64643 0.09227 0.129 0.0
H215 H 0.75782 0.07222 0.06056 0.0
H216 H 0.72419 0.06404 0.19618 0.0
H217 H 0.73713 0.12519 0.19117 0.0
H218 H 0.67166 0.10381 0.18253 0.0
H219 H 0.84866 0.07096 0.07348 0.0
H220 H 0.87143 0.10143 0.10769 0.0
H221 H 0.86306 0.03949 0.11137 0.0
H222 H 0.91739 0.1478 0.20165 0.0
H223 H 0.89339 0.99942 0.21309 0.0
H224 H 0.79418 0.17615 0.16093 0.0
H225 H 0.84251 0.17043 0.13314 0.0
H226 H 0.85964 0.19748 0.16962 0.0
H227 H 0.76619 0.99732 0.17528 0.0
H228 H 0.82325 0.9619 0.1872 0.0
H229 H 0.81251 0.98674 0.14706 0.0
C230 C 0.01082 0.76477 0.58668 0.0
C231 C 0.05071 0.73118 0.5931 0.0
C232 C 0.00828 0.8037 0.6049 0.0
C233 C 0.04714 0.80982 0.62976 0.0
C234 C 0.08805 0.77665 0.63601 0.0
C235 C 0.08901 0.73755 0.61789 0.0
C236 C 0.9636 0.83796 0.59781 0.0
C237 C 0.13057 0.78215 0.66212 0.0
C238 C 0.06716 0.92947 0.66242 0.0
C239 C 0.04354 0.92333 0.69118 0.0
C240 C 0.06819 0.89298 0.64193 0.0
C241 C 0.04403 0.84983 0.65016 0.0
C242 C 0.01851 0.84415 0.67865 0.0
C243 C 0.01908 0.88077 0.69896 0.0
C244 C 0.0966 0.90005 0.61204 0.0
C245 C 0.99132 0.79907 0.68797 0.0
H246 H 0.98157 0.76087 0.56725 0.0
H247 H 0.11951 0.71159 0.62354 0.0
H248 H 0.94086 0.83962 0.61899 0.0
H249 H 0.979 0.8735 0.59231 0.0
H250 H 0.93665 0.82834 0.57755 0.0
H251 H 0.16143 0.7549 0.66263 0.0
H252 H 0.14914 0.81698 0.65908 0.0
H253 H 0.11338 0.7801 0.68542 0.0
H254 H 0.08636 0.96224 0.65642 0.0
H255 H 0.00038 0.876 0.72106 0.0
H256 H 0.07016 0.89249 0.59111 0.0
H257 H 0.12998 0.87527 0.61309 0.0
H258 H 0.11178 0.93617 0.60849 0.0
H259 H 0.96271 0.78962 0.66852 0.0
H260 H 0.97043 0.80136 0.70986 0.0
H261 H 0.0204 0.7703 0.69201 0.0
C262 C 0.42336 0.03448 0.89152 0.0
C263 C 0.41318 0.04588 0.92202 0.0
C264 C 0.3825 0.0322 0.86772 0.0
C265 C 0.33057 0.04181 0.87476 0.0
C266 C 0.3202 0.05235 0.90587 0.0
C267 C 0.36178 0.05423 0.92918 0.0
C268 C 0.39503 0.02077 0.83488 0.0
C269 C 0.26542 0.0629 0.91431 0.0
C270 C 0.23091 0.08865 0.80989 0.0
C271 C 0.19942 0.04935 0.80491 0.0
C272 C 0.27463 0.08624 0.83187 0.0
C273 C 0.2873 0.04348 0.84933 0.0
C274 C 0.25692 0.00323 0.84365 0.0
C275 C 0.21331 0.00663 0.82147 0.0
C276 C 0.30622 0.1299 0.83719 0.0
C277 C 0.26942 0.95701 0.86176 0.0
H278 H 0.46341 0.02817 0.88623 0.0
H279 H 0.35439 0.06306 0.95291 0.0
H280 H 0.3704 0.99138 0.82685 0.0
H281 H 0.3859 0.05133 0.81793 0.0
H282 H 0.43687 0.01129 0.83383 0.0
H283 H 0.26375 0.06834 0.93991 0.0
H284 H 0.25047 0.09485 0.90037 0.0
H285 H 0.23873 0.03388 0.90814 0.0
H286 H 0.22075 0.12177 0.79712 0.0
H287 H 0.18931 0.97605 0.81777 0.0
H288 H 0.34824 0.12325 0.83445 0.0
H289 H 0.303 0.14006 0.86175 0.0
H290 H 0.29292 0.15974 0.82048 0.0
H291 H 0.31105 0.9476 0.86005 0.0
H292 H 0.24438 0.9283 0.85295 0.0
H293 H 0.26364 0.95988 0.88723 0.0
C294 C 0.02824 0.38399 0.39662 0.0
C295 C 0.06705 0.39065 0.42107 0.0
C296 C 0.02879 0.34469 0.37868 0.0
C297 C 0.06985 0.31163 0.38472 0.0
C298 C 0.10932 0.31809 0.40918 0.0
C299 C 0.10717 0.35722 0.42726 0.0
C300 C 0.98564 0.33883 0.35299 0.0
C301 C 0.15419 0.28398 0.416 0.0
C302 C 0.04825 0.1918 0.35262 0.0
C303 C 0.07068 0.19779 0.32347 0.0
C304 C 0.04831 0.22834 0.37312 0.0
C305 C 0.07239 0.27138 0.36448 0.0
C306 C 0.09688 0.27684 0.33562 0.0
C307 C 0.0952 0.24018 0.31533 0.0
C308 C 0.02101 0.2215 0.40343 0.0
C309 C 0.12396 0.32177 0.32585 0.0
H310 H 0.99758 0.40984 0.39111 0.0
H311 H 0.13685 0.36137 0.44641 0.0
H312 H 0.0022 0.34059 0.3295 0.0
H313 H 0.96717 0.30402 0.35642 0.0
H314 H 0.95481 0.36608 0.35261 0.0
H315 H 0.1817 0.29392 0.4359 0.0
H316 H 0.13901 0.24847 0.4219 0.0
H317 H 0.17625 0.28203 0.39457 0.0
H318 H 0.02904 0.15914 0.35891 0.0
H319 H 0.11303 0.24482 0.29293 0.0
H320 H 0.98753 0.24614 0.40265 0.0
H321 H 0.04806 0.22942 0.424 0.0
H322 H 0.00612 0.18534 0.40737 0.0
H323 H 0.09489 0.35056 0.32189 0.0
H324 H 0.14432 0.31918 0.3038 0.0
H325 H 0.153 0.33141 0.34503 0.0
C326 C 0.71523 0.09851 0.87684 0.0
C327 C 0.72571 0.0752 0.90677 0.0
C328 C 0.75286 0.10029 0.85433 0.0
C329 C 0.80231 0.07892 0.86223 0.0
C330 C 0.81324 0.05589 0.89261 0.0
C331 C 0.77462 0.054 0.91442 0.0
C332 C 0.73951 0.12447 0.82202 0.0
C333 C 0.86578 0.03331 0.9021 0.0
C334 C 0.88835 0.04188 0.79924 0.0
C335 C 0.92545 0.07789 0.79848 0.0
C336 C 0.84678 0.04274 0.81896 0.0
C337 C 0.84271 0.08013 0.83877 0.0
C338 C 0.87914 0.11725 0.83747 0.0
C339 C 0.91987 0.11586 0.81714 0.0
C340 C 0.80813 0.00293 0.81928 0.0
C341 C 0.8764 0.15746 0.85849 0.0
H342 H 0.6772 0.11458 0.87085 0.0
H343 H 0.78288 0.0364 0.93769 0.0
H344 H 0.76772 0.15305 0.81738 0.0
H345 H 0.74283 0.09939 0.80346 0.0
H346 H 0.6993 0.13935 0.81964 0.0
H347 H 0.86845 0.01791 0.92692 0.0
H348 H 0.87302 0.00531 0.88615 0.0
H349 H 0.89742 0.05947 0.89958 0.0
H350 H 0.89216 0.01261 0.78469 0.0
H351 H 0.94847 0.14375 0.81678 0.0
H352 H 0.7675 0.01664 0.8158 0.0
H353 H 0.81201 0.98296 0.84267 0.0
H354 H 0.8142 0.97856 0.8006 0.0
H355 H 0.83694 0.1737 0.85548 0.0
H356 H 0.90597 0.18479 0.85339 0.0
H357 H 0.88301 0.14435 0.88369 0.0
C358 C 0.03566 0.73666 0.43858 0.0
C359 C 0.06127 0.69782 0.42854 0.0
C360 C 0.03234 0.77895 0.41984 0.0
C361 C 0.05663 0.78277 0.39084 0.0
C362 C 0.08363 0.74385 0.38101 0.0
C363 C 0.08456 0.7015 0.39965 0.0
C364 C 0.00161 0.81902 0.43061 0.0
C365 C 0.11112 0.74678 0.35065 0.0
C366 C 0.01006 0.87058 0.3238 0.0
C367 C 0.04637 0.90672 0.32744 0.0
C368 C 0.01162 0.83098 0.34514 0.0
C369 C 0.05178 0.82664 0.36997 0.0
C370 C 0.08835 0.86332 0.37391 0.0
C371 C 0.08459 0.90342 0.35287 0.0
C372 C 0.97078 0.79346 0.34077 0.0
C373 C 0.13266 0.85934 0.39948 0.0
H374 H 0.01732 0.73353 0.46087 0.0
H375 H 0.10357 0.67115 0.39169 0.0
H376 H 0.02677 0.85035 0.43245 0.0
H377 H 0.96869 0.82836 0.41281 0.0
H378 H 0.98548 0.81049 0.45391 0.0
H379 H 0.13426 0.7148 0.34789 0.0
H380 H 0.08195 0.75186 0.33004 0.0
H381 H 0.13774 0.77734 0.35003 0.0
H382 H 0.98028 0.87335 0.30421 0.0
H383 H 0.11297 0.93124 0.35543 0.0
H384 H 0.95261 0.78472 0.36338 0.0
H385 H 0.98943 0.76116 0.33396 0.0
H386 H 0.93942 0.8042 0.3222 0.0
H387 H 0.11712 0.85252 0.42306 0.0
H388 H 0.15705 0.89138 0.39987 0.0
H389 H 0.15805 0.82926 0.39562 0.0
loop_
_geom_bond_atom_site_label_1
_geom_bond_atom_site_label_2
_geom_bond_distance
_geom_bond_site_symmetry_2
_ccdc_geom_bond_type
C0 C1 1.443 . S
C0 N4 1.376 . S
C0 C38 1.389 . S
C1 C0 1.443 . S
C1 C2 1.340 . S
C1 H41 0.951 . S
C2 C1 1.340 . S
C2 C3 1.439 . S
C2 H42 0.950 . S
C3 C2 1.439 . S
C3 N4 1.374 . S
C3 C37 1.395 1_554 S
N4 C0 1.376 . S
N4 C3 1.374 . S
N4 Co5 2.008 . S
Co5 N4 2.008 . S
Co5 N6 1.995 1_554 S
Co5 N11 2.008 1_554 S
Co5 N16 1.995 . S
Co5 N21 2.282 . S
Co5 N27 2.282 1_554 S
N6 Co5 1.995 1_556 S
N6 C7 1.376 . S
N6 C10 1.383 . S
C7 N6 1.376 . S
C7 C8 1.446 . S
C7 C37 1.391 . S
C8 C7 1.446 . S
C8 C9 1.339 . S
C8 H43 0.949 . S
C9 C8 1.339 . S
C9 C10 1.439 . S
C9 H44 0.950 . S
C10 N6 1.383 . S
C10 C9 1.439 . S
C10 C39 1.392 . S
N11 Co5 2.008 1_556 S
N11 C12 1.376 . S
N11 C15 1.374 1_545 S
C12 N11 1.376 . S
C12 C13 1.443 1_545 S
C12 C39 1.389 . S
C13 C12 1.443 1_565 S
C13 C14 1.340 . S
C13 H45 0.951 . S
C14 C13 1.340 . S
C14 C15 1.439 . S
C14 H46 0.950 . S
C15 N11 1.374 1_565 S
C15 C14 1.439 . S
C15 C40 1.395 1_556 S
N16 Co5 1.995 . S
N16 C17 1.376 1_545 S
N16 C20 1.383 . S
C17 N16 1.376 1_565 S
C17 C18 1.446 . S
C17 C40 1.391 . S
C18 C17 1.446 . S
C18 C19 1.339 . S
C18 H47 0.949 . S
C19 C18 1.339 . S
C19 C20 1.439 1_565 S
C19 H48 0.950 . S
C20 N16 1.383 . S
C20 C19 1.439 1_545 S
C20 C38 1.392 . S
N21 Co5 2.282 . S
N21 C24 1.332 . S
N21 C26 1.332 . S
C22 C23 1.386 . S
C22 C25 1.388 . S
C23 C22 1.386 . S
C23 C24 1.382 . S
C23 H49 0.954 . S
C24 N21 1.332 . S
C24 C23 1.382 . S
C24 H35 0.952 . S
C25 C22 1.388 . S
C25 C26 1.382 . S
C25 H50 0.950 . S
C26 N21 1.332 . S
C26 C25 1.382 . S
C26 H36 0.948 . S
N27 Co5 2.282 1_556 S
N27 C31 1.332 . S
N27 C32 1.332 . S
C28 C29 1.388 . S
C28 C32 1.382 . S
C28 H51 0.950 . S
C29 C28 1.388 . S
C29 C30 1.386 . S
C30 C29 1.386 . S
C30 C31 1.382 . S
C30 H52 0.950 . S
C31 N27 1.332 . S
C31 C30 1.382 . S
C31 H33 0.952 . S
C32 N27 1.332 . S
C32 C28 1.382 . S
C32 H34 0.948 . S
H33 C31 0.952 . S
H34 C32 0.948 . S
H35 C24 0.952 . S
H36 C26 0.948 . S
C37 C3 1.395 1_556 S
C37 C7 1.391 . S
C38 C0 1.389 . S
C38 C20 1.392 . S
C39 C10 1.392 . S
C39 C12 1.389 . S
C40 C15 1.395 1_554 S
C40 C17 1.391 . S
H41 C1 0.951 . S
H42 C2 0.950 . S
H43 C8 0.949 . S
H44 C9 0.950 . S
H45 C13 0.951 . S
H46 C14 0.950 . S
H47 C18 0.949 . S
H48 C19 0.950 . S
H49 C23 0.954 . S
H50 C25 0.950 . S
H51 C28 0.950 . S
H52 C30 0.950 . S
C53 C54 1.443 . S
C53 N57 1.376 . S
C53 C91 1.389 . S
C54 C53 1.443 . S
C54 C55 1.340 . S
C54 H94 0.951 . S
C55 C54 1.340 . S
C55 C56 1.439 . S
C55 H95 0.950 . S
C56 C55 1.439 . S
C56 N57 1.374 . S
C56 C90 1.395 . S
N57 C53 1.376 . S
N57 C56 1.374 . S
N57 Co58 2.008 . S
Co58 N57 2.008 . S
Co58 N59 1.995 . S
Co58 N64 2.008 . S
Co58 N69 1.995 . S
Co58 N74 2.282 . S
Co58 N80 2.282 . S
N59 Co58 1.995 . S
N59 C60 1.376 . S
N59 C63 1.383 . S
C60 N59 1.376 . S
C60 C61 1.446 . S
C60 C90 1.391 . S
C61 C60 1.446 . S
C61 C62 1.339 . S
C61 H96 0.949 . S
C62 C61 1.339 . S
C62 C63 1.439 . S
C62 H97 0.950 . S
C63 N59 1.383 . S
C63 C62 1.439 . S
C63 C92 1.392 . S
N64 Co58 2.008 . S
N64 C65 1.376 . S
N64 C68 1.374 1_455 S
C65 N64 1.376 . S
C65 C66 1.443 1_455 S
C65 C92 1.389 . S
C66 C65 1.443 1_655 S
C66 C67 1.340 . S
C66 H98 0.951 . S
C67 C66 1.340 . S
C67 C68 1.439 . S
C67 H99 0.950 . S
C68 N64 1.374 1_655 S
C68 C67 1.439 . S
C68 C93 1.395 . S
N69 Co58 1.995 . S
N69 C70 1.376 1_455 S
N69 C73 1.383 . S
C70 N69 1.376 1_655 S
C70 C71 1.446 . S
C70 C93 1.391 . S
C71 C70 1.446 . S
C71 C72 1.339 . S
C71 H100 0.949 . S
C72 C71 1.339 . S
C72 C73 1.439 1_655 S
C72 H101 0.950 . S
C73 N69 1.383 . S
C73 C72 1.439 1_455 S
C73 C91 1.392 . S
N74 Co58 2.282 . S
N74 C77 1.332 . S
N74 C79 1.332 . S
C75 C76 1.386 . S
C75 C78 1.388 . S
C76 C75 1.386 . S
C76 C77 1.382 . S
C76 H102 0.950 1_455 S
C77 N74 1.332 . S
C77 C76 1.382 . S
C77 H88 0.952 1_455 S
C78 C75 1.388 . S
C78 C79 1.382 . S
C78 H103 0.950 . S
C79 N74 1.332 . S
C79 C78 1.382 . S
C79 H89 0.948 . S
N80 Co58 2.282 . S
N80 C84 1.332 . S
N80 C85 1.332 . S
C81 C82 1.388 . S
C81 C85 1.382 . S
C81 H104 0.950 1_455 S
C82 C81 1.388 . S
C82 C83 1.386 . S
C83 C82 1.386 . S
C83 C84 1.382 . S
C83 H105 0.950 . S
C84 N80 1.332 . S
C84 C83 1.382 . S
C84 H86 0.952 . S
C85 N80 1.332 . S
C85 C81 1.382 . S
C85 H87 0.948 1_455 S
H86 C84 0.952 . S
H87 C85 0.948 1_655 S
H88 C77 0.952 1_655 S
H89 C79 0.948 . S
C90 C56 1.395 . S
C90 C60 1.391 . S
C91 C53 1.389 . S
C91 C73 1.392 . S
C92 C63 1.392 . S
C92 C65 1.389 . S
C93 C68 1.395 . S
C93 C70 1.391 . S
H94 C54 0.951 . S
H95 C55 0.950 . S
H96 C61 0.949 . S
H97 C62 0.950 . S
H98 C66 0.951 . S
H99 C67 0.950 . S
H100 C71 0.949 . S
H101 C72 0.950 . S
H102 C76 0.950 1_655 S
H103 C78 0.950 . S
H104 C81 0.950 1_655 S
H105 C83 0.950 . S
O106 Cd107 2.223 . S
O106 C114 1.315 1_465 S
Cd107 O106 2.223 . S
Cd107 O110 2.297 . S
Cd107 O111 2.439 . S
Cd107 O117 2.240 1_565 S
Cd108 O109 2.240 1_455 S
Cd108 O116 2.223 . S
Cd108 O118 2.297 . S
Cd108 O119 2.439 . S
O109 Cd108 2.240 1_655 S
O109 C114 1.279 . S
O110 Cd107 2.297 . S
O110 C112 1.247 . S
O111 Cd107 2.439 . S
O111 C112 1.208 . S
C112 O110 1.247 . S
C112 O111 1.208 . S
C113 O118 1.247 . S
C113 O119 1.208 . S
C114 O106 1.315 1_645 S
C114 O109 1.279 . S
C115 O116 1.315 . S
C115 O117 1.279 . S
O116 Cd108 2.223 . S
O116 C115 1.315 . S
O117 Cd107 2.240 1_545 S
O117 C115 1.279 . S
O118 Cd108 2.297 . S
O118 C113 1.247 . S
O119 Cd108 2.439 . S
O119 C113 1.208 . S
O120 Cd121 2.223 . S
O120 C128 1.315 . S
Cd121 O120 2.223 . S
Cd121 O124 2.297 . S
Cd121 O125 2.439 . S
Cd121 O131 2.240 . S
Cd122 O123 2.240 . S
Cd122 O130 2.223 . S
Cd122 O132 2.297 1_545 S
Cd122 O133 2.439 . S
O123 Cd122 2.240 . S
O123 C128 1.279 . S
O124 Cd121 2.297 . S
O124 C126 1.247 . S
O125 Cd121 2.439 . S
O125 C126 1.208 . S
C126 O124 1.247 . S
C126 O125 1.208 . S
C127 O132 1.247 . S
C127 O133 1.208 1_565 S
C128 O120 1.315 . S
C128 O123 1.279 . S
C129 O130 1.315 . S
C129 O131 1.279 . S
O130 Cd122 2.223 . S
O130 C129 1.315 . S
O131 Cd121 2.240 . S
O131 C129 1.279 . S
O132 Cd122 2.297 1_565 S
O132 C127 1.247 . S
O133 Cd122 2.439 . S
O133 C127 1.208 1_545 S
C134 C135 1.391 . S
C134 C136 1.394 . S
C134 H150 0.931 . S
C135 C134 1.391 . S
C135 C139 1.376 . S
C136 C134 1.394 . S
C136 C137 1.369 . S
C136 C140 1.531 . S
C137 C136 1.369 . S
C137 C138 1.410 . S
C137 C145 1.503 . S
C138 C137 1.410 . S
C138 C139 1.392 . S
C138 C141 1.511 . S
C139 C135 1.376 . S
C139 C138 1.392 . S
C139 H151 0.929 . S
C140 C136 1.531 . S
C140 H152 0.960 . S
C140 H153 0.962 . S
C140 H154 0.960 . S
C141 C138 1.511 . S
C141 H155 0.961 . S
C141 H156 0.961 . S
C141 H157 0.961 1_545 S
C142 C143 1.370 . S
C142 C144 1.363 . S
C142 H158 0.931 . S
C143 C142 1.370 . S
C143 C147 1.408 . S
C144 C142 1.363 . S
C144 C145 1.370 . S
C144 C148 1.524 . S
C145 C137 1.503 . S
C145 C144 1.370 . S
C145 C146 1.403 . S
C146 C145 1.403 . S
C146 C147 1.404 . S
C146 C149 1.539 1_545 S
C147 C143 1.408 . S
C147 C146 1.404 . S
C147 H159 0.930 . S
C148 C144 1.524 . S
C148 H160 0.956 . S
C148 H161 0.961 . S
C148 H162 0.961 . S
C149 C146 1.539 1_565 S
C149 H163 0.958 . S
C149 H164 0.961 . S
C149 H165 0.960 . S
H150 C134 0.931 . S
H151 C139 0.929 . S
H152 C140 0.960 . S
H153 C140 0.962 . S
H154 C140 0.960 . S
H155 C141 0.961 . S
H156 C141 0.961 . S
H157 C141 0.961 1_565 S
H158 C142 0.931 . S
H159 C147 0.930 . S
H160 C148 0.956 . S
H161 C148 0.961 . S
H162 C148 0.961 . S
H163 C149 0.958 . S
H164 C149 0.961 . S
H165 C149 0.960 . S
C166 C167 1.391 . S
C166 C168 1.394 . S
C166 H182 0.931 . S
C167 C166 1.391 . S
C167 C171 1.376 . S
C168 C166 1.394 . S
C168 C169 1.369 . S
C168 C172 1.531 . S
C169 C168 1.369 . S
C169 C170 1.410 . S
C169 C177 1.503 . S
C170 C169 1.410 . S
C170 C171 1.392 . S
C170 C173 1.511 . S
C171 C167 1.376 . S
C171 C170 1.392 . S
C171 H183 0.929 . S
C172 C168 1.531 . S
C172 H184 0.960 . S
C172 H185 0.962 . S
C172 H186 0.960 . S
C173 C170 1.511 . S
C173 H187 0.961 . S
C173 H188 0.961 . S
C173 H189 0.961 . S
C174 C175 1.370 1_655 S
C174 C176 1.363 1_655 S
C174 H190 0.931 . S
C175 C174 1.370 1_455 S
C175 C179 1.408 . S
C176 C174 1.363 1_455 S
C176 C177 1.370 . S
C176 C180 1.524 1_455 S
C177 C169 1.503 . S
C177 C176 1.370 . S
C177 C178 1.403 . S
C178 C177 1.403 . S
C178 C179 1.404 . S
C178 C181 1.539 . S
C179 C175 1.408 . S
C179 C178 1.404 . S
C179 H191 0.930 . S
C180 C176 1.524 1_655 S
C180 H192 0.956 . S
C180 H193 0.961 . S
C180 H194 0.961 . S
C181 C178 1.539 . S
C181 H195 0.958 . S
C181 H196 0.961 . S
C181 H197 0.960 . S
H182 C166 0.931 . S
H183 C171 0.929 . S
H184 C172 0.960 . S
H185 C172 0.962 . S
H186 C172 0.960 . S
H187 C173 0.961 . S
H188 C173 0.961 . S
H189 C173 0.961 . S
H190 C174 0.931 . S
H191 C179 0.930 . S
H192 C180 0.956 . S
H193 C180 0.961 . S
H194 C180 0.961 . S
H195 C181 0.958 . S
H196 C181 0.961 . S
H197 C181 0.960 . S
C198 C199 1.391 . S
C198 C200 1.394 . S
C198 H214 0.931 . S
C199 C198 1.391 . S
C199 C203 1.376 . S
C200 C198 1.394 . S
C200 C201 1.369 . S
C200 C204 1.531 . S
C201 C200 1.369 . S
C201 C202 1.410 . S
C201 C209 1.503 . S
C202 C201 1.410 . S
C202 C203 1.392 . S
C202 C205 1.511 . S
C203 C199 1.376 . S
C203 C202 1.392 . S
C203 H215 0.929 . S
C204 C200 1.531 . S
C204 H216 0.960 . S
C204 H217 0.962 . S
C204 H218 0.960 . S
C205 C202 1.511 . S
C205 H219 0.961 . S
C205 H220 0.961 . S
C205 H221 0.961 . S
C206 C207 1.370 . S
C206 C208 1.363 . S
C206 H222 0.931 . S
C207 C206 1.370 . S
C207 C211 1.408 1_545 S
C208 C206 1.363 . S
C208 C209 1.370 . S
C208 C212 1.524 . S
C209 C201 1.503 . S
C209 C208 1.370 . S
C209 C210 1.403 1_545 S
C210 C209 1.403 1_565 S
C210 C211 1.404 . S
C210 C213 1.539 . S
C211 C207 1.408 1_565 S
C211 C210 1.404 . S
C211 H223 0.930 . S
C212 C208 1.524 . S
C212 H224 0.956 . S
C212 H225 0.961 . S
C212 H226 0.961 . S
C213 C210 1.539 . S
C213 H227 0.958 . S
C213 H228 0.961 . S
C213 H229 0.960 . S
H214 C198 0.931 . S
H215 C203 0.929 . S
H216 C204 0.960 . S
H217 C204 0.962 . S
H218 C204 0.960 . S
H219 C205 0.961 . S
H220 C205 0.961 . S
H221 C205 0.961 . S
H222 C206 0.931 . S
H223 C211 0.930 . S
H224 C212 0.956 . S
H225 C212 0.961 . S
H226 C212 0.961 . S
H227 C213 0.958 . S
H228 C213 0.961 . S
H229 C213 0.960 . S
C230 C231 1.391 . S
C230 C232 1.394 . S
C230 H246 0.931 1_455 S
C231 C230 1.391 . S
C231 C235 1.376 . S
C232 C230 1.394 . S
C232 C233 1.369 . S
C232 C236 1.531 1_455 S
C233 C232 1.369 . S
C233 C234 1.410 . S
C233 C241 1.503 . S
C234 C233 1.410 . S
C234 C235 1.392 . S
C234 C237 1.511 . S
C235 C231 1.376 . S
C235 C234 1.392 . S
C235 H247 0.929 . S
C236 C232 1.531 1_655 S
C236 H248 0.960 . S
C236 H249 0.962 . S
C236 H250 0.960 . S
C237 C234 1.511 . S
C237 H251 0.961 . S
C237 H252 0.961 . S
C237 H253 0.961 . S
C238 C239 1.370 . S
C238 C240 1.363 . S
C238 H254 0.931 . S
C239 C238 1.370 . S
C239 C243 1.408 . S
C240 C238 1.363 . S
C240 C241 1.370 . S
C240 C244 1.524 . S
C241 C233 1.503 . S
C241 C240 1.370 . S
C241 C242 1.403 . S
C242 C241 1.403 . S
C242 C243 1.404 . S
C242 C245 1.539 . S
C243 C239 1.408 . S
C243 C242 1.404 . S
C243 H255 0.930 . S
C244 C240 1.524 . S
C244 H256 0.956 . S
C244 H257 0.961 . S
C244 H258 0.961 . S
C245 C242 1.539 . S
C245 H259 0.958 . S
C245 H260 0.961 . S
C245 H261 0.960 . S
H246 C230 0.931 1_655 S
H247 C235 0.929 . S
H248 C236 0.960 . S
H249 C236 0.962 . S
H250 C236 0.960 . S
H251 C237 0.961 . S
H252 C237 0.961 . S
H253 C237 0.961 . S
H254 C238 0.931 . S
H255 C243 0.930 . S
H256 C244 0.956 . S
H257 C244 0.961 . S
H258 C244 0.961 . S
H259 C245 0.958 . S
H260 C245 0.961 . S
H261 C245 0.960 . S
C262 C263 1.391 . S
C262 C264 1.394 . S
C262 H278 0.921 1_545 S
C263 C262 1.391 . S
C263 C267 1.376 . S
C264 C262 1.394 . S
C264 C265 1.369 . S
C264 C268 1.531 1_545 S
C265 C264 1.369 . S
C265 C266 1.410 . S
C265 C273 1.503 . S
C266 C265 1.410 . S
C266 C267 1.392 . S
C266 C269 1.511 . S
C267 C263 1.376 . S
C267 C266 1.392 . S
C267 H279 0.929 . S
C268 C264 1.531 1_565 S
C268 H280 0.960 . S
C268 H281 0.962 . S
C268 H282 0.960 . S
C269 C266 1.511 . S
C269 H283 0.961 . S
C269 H284 0.961 . S
C269 H285 0.961 . S
C270 C271 1.370 . S
C270 C272 1.363 . S
C270 H286 0.931 . S
C271 C270 1.370 . S
C271 C275 1.408 . S
C272 C270 1.363 . S
C272 C273 1.370 . S
C272 C276 1.524 . S
C273 C265 1.503 . S
C273 C272 1.370 . S
C273 C274 1.403 . S
C274 C273 1.403 . S
C274 C275 1.404 . S
C274 C277 1.539 . S
C275 C271 1.408 . S
C275 C274 1.404 . S
C275 H287 0.930 . S
C276 C272 1.524 . S
C276 H288 0.956 . S
C276 H289 0.961 . S
C276 H290 0.961 . S
C277 C274 1.539 . S
C277 H291 0.958 . S
C277 H292 0.961 . S
C277 H293 0.960 . S
H278 C262 0.921 1_565 S
H279 C267 0.929 . S
H280 C268 0.960 . S
H281 C268 0.962 . S
H282 C268 0.960 . S
H283 C269 0.961 . S
H284 C269 0.961 . S
H285 C269 0.961 . S
H286 C270 0.931 . S
H287 C275 0.930 . S
H288 C276 0.956 . S
H289 C276 0.961 . S
H290 C276 0.961 . S
H291 C277 0.958 . S
H292 C277 0.961 . S
H293 C277 0.960 . S
C294 C295 1.391 . S
C294 C296 1.394 . S
C294 H310 0.931 1_455 S
C295 C294 1.391 . S
C295 C299 1.376 . S
C296 C294 1.394 . S
C296 C297 1.369 . S
C296 C300 1.531 1_455 S
C297 C296 1.369 . S
C297 C298 1.410 . S
C297 C305 1.503 . S
C298 C297 1.410 . S
C298 C299 1.392 . S
C298 C301 1.511 . S
C299 C295 1.376 . S
C299 C298 1.392 . S
C299 H311 0.929 . S
C300 C296 1.531 1_655 S
C300 H312 0.960 1_655 S
C300 H313 0.962 . S
C300 H314 0.960 . S
C301 C298 1.511 . S
C301 H315 0.961 . S
C301 H316 0.961 . S
C301 H317 0.961 . S
C302 C303 1.370 . S
C302 C304 1.363 . S
C302 H318 0.931 . S
C303 C302 1.370 . S
C303 C307 1.408 . S
C304 C302 1.363 . S
C304 C305 1.370 . S
C304 C308 1.524 . S
C305 C297 1.503 . S
C305 C304 1.370 . S
C305 C306 1.403 . S
C306 C305 1.403 . S
C306 C307 1.404 . S
C306 C309 1.539 . S
C307 C303 1.408 . S
C307 C306 1.404 . S
C307 H319 0.930 . S
C308 C304 1.524 . S
C308 H320 0.956 . S
C308 H321 0.961 . S
C308 H322 0.961 . S
C309 C306 1.539 . S
C309 H323 0.958 . S
C309 H324 0.961 . S
C309 H325 0.960 . S
H310 C294 0.931 1_655 S
H311 C299 0.929 . S
H312 C300 0.960 1_455 S
H313 C300 0.962 . S
H314 C300 0.960 . S
H315 C301 0.961 . S
H316 C301 0.961 . S
H317 C301 0.961 . S
H318 C302 0.931 . S
H319 C307 0.930 . S
H320 C308 0.956 . S
H321 C308 0.961 . S
H322 C308 0.961 . S
H323 C309 0.958 . S
H324 C309 0.961 . S
H325 C309 0.960 . S
C326 C327 1.391 . S
C326 C328 1.394 . S
C326 H342 0.931 . S
C327 C326 1.391 . S
C327 C331 1.376 . S
C328 C326 1.394 . S
C328 C329 1.369 . S
C328 C332 1.531 . S
C329 C328 1.369 . S
C329 C330 1.410 . S
C329 C337 1.503 . S
C330 C329 1.410 . S
C330 C331 1.392 . S
C330 C333 1.511 . S
C331 C327 1.376 . S
C331 C330 1.392 . S
C331 H343 0.929 . S
C332 C328 1.531 . S
C332 H344 0.960 . S
C332 H345 0.962 . S
C332 H346 0.960 . S
C333 C330 1.511 . S
C333 H347 0.961 . S
C333 H348 0.961 . S
C333 H349 0.961 . S
C334 C335 1.370 . S
C334 C336 1.363 . S
C334 H350 0.931 . S
C335 C334 1.370 . S
C335 C339 1.408 . S
C336 C334 1.363 . S
C336 C337 1.370 . S
C336 C340 1.524 . S
C337 C329 1.503 . S
C337 C336 1.370 . S
C337 C338 1.403 . S
C338 C337 1.403 . S
C338 C339 1.404 . S
C338 C341 1.539 . S
C339 C335 1.408 . S
C339 C338 1.404 . S
C339 H351 0.930 . S
C340 C336 1.524 . S
C340 H352 0.956 . S
C340 H353 0.961 . S
C340 H354 0.961 1_545 S
C341 C338 1.539 . S
C341 H355 0.958 . S
C341 H356 0.961 . S
C341 H357 0.960 . S
H342 C326 0.931 . S
H343 C331 0.929 . S
H344 C332 0.960 . S
H345 C332 0.962 . S
H346 C332 0.960 . S
H347 C333 0.961 . S
H348 C333 0.961 . S
H349 C333 0.961 . S
H350 C334 0.931 . S
H351 C339 0.930 . S
H352 C340 0.956 . S
H353 C340 0.961 . S
H354 C340 0.961 1_565 S
H355 C341 0.958 . S
H356 C341 0.961 . S
H357 C341 0.960 . S
C358 C359 1.391 . S
C358 C360 1.394 . S
C358 H374 0.931 . S
C359 C358 1.391 . S
C359 C363 1.376 . S
C360 C358 1.394 . S
C360 C361 1.369 . S
C360 C364 1.531 1_455 S
C361 C360 1.369 . S
C361 C362 1.410 . S
C361 C369 1.503 . S
C362 C361 1.410 . S
C362 C363 1.392 . S
C362 C365 1.511 . S
C363 C359 1.376 . S
C363 C362 1.392 . S
C363 H375 0.929 . S
C364 C360 1.531 1_655 S
C364 H376 0.960 1_655 S
C364 H377 0.962 . S
C364 H378 0.960 . S
C365 C362 1.511 . S
C365 H379 0.961 . S
C365 H380 0.961 . S
C365 H381 0.961 . S
C366 C367 1.370 1_655 S
C366 C368 1.363 . S
C366 H382 0.931 . S
C367 C366 1.370 1_455 S
C367 C371 1.408 . S
C368 C366 1.363 . S
C368 C369 1.370 1_655 S
C368 C372 1.524 . S
C369 C361 1.503 . S
C369 C368 1.370 1_455 S
C369 C370 1.403 . S
C370 C369 1.403 . S
C370 C371 1.404 . S
C370 C373 1.539 . S
C371 C367 1.408 . S
C371 C370 1.404 . S
C371 H383 0.930 . S
C372 C368 1.524 . S
C372 H384 0.956 . S
C372 H385 0.961 . S
C372 H386 0.961 . S
C373 C370 1.539 . S
C373 H387 0.958 . S
C373 H388 0.961 . S
C373 H389 0.960 . S
H374 C358 0.931 . S
H375 C363 0.929 . S
H376 C364 0.960 1_455 S
H377 C364 0.962 . S
H378 C364 0.960 . S
H379 C365 0.961 . S
H380 C365 0.961 . S
H381 C365 0.961 . S
H382 C366 0.931 . S
H383 C371 0.930 . S
H384 C372 0.956 . S
H385 C372 0.961 . S
H386 C372 0.961 . S
H387 C373 0.958 . S
H388 C373 0.961 . S
H389 C373 0.960 . S
C143 C115 1.589 . S
C135 C22 1.588 . S
C175 C126 1.522 . S
C167 C91 1.615 . S
C207 C114 1.619 . S
C199 C38 1.606 . S
C239 C127 1.511 . S
C231 C75 1.575 . S
C271 C129 1.619 . S
C263 C39 1.614 . S
C303 C113 1.519 . S
C295 C82 1.575 . S
C335 C128 1.583 1_655 S
C327 C29 1.580 . S
C359 C92 1.615 . S
C367 C112 1.534 . S
