# Generated by pormake.
# Topology fgl, (4,4)-cn, num edge types: 1
# Building blocks:
#     Node 0, Type 0, BuildingBlock: ESEHIV_clean_sbu_0, # of connection points: 4
#     Node 1, Type 0, BuildingBlock: ESEHIV_clean_sbu_0, # of connection points: 4
#     Node 2, Type 0, BuildingBlock: ESEHIV_clean_sbu_0, # of connection points: 4
#     Node 3, Type 0, BuildingBlock: ESEHIV_clean_sbu_0, # of connection points: 4
#     Node 4, Type 0, BuildingBlock: ESEHIV_clean_sbu_0, # of connection points: 4
#     Node 5, Type 0, BuildingBlock: ESEHIV_clean_sbu_0, # of connection points: 4
#     Node 6, Type 0, BuildingBlock: ESEHIV_clean_sbu_0, # of connection points: 4
#     Node 7, Type 0, BuildingBlock: ESEHIV_clean_sbu_0, # of connection points: 4
#     Node 8, Type 0, BuildingBlock: ESEHIV_clean_sbu_0, # of connection points: 4
#     Node 9, Type 0, BuildingBlock: ESEHIV_clean_sbu_0, # of connection points: 4
#     Node 10, Type 0, BuildingBlock: ESEHIV_clean_sbu_0, # of connection points: 4
#     Node 11, Type 0, BuildingBlock: ESEHIV_clean_sbu_0, # of connection points: 4
#     Node 12, Type 0, BuildingBlock: ESEHIV_clean_sbu_0, # of connection points: 4
#     Node 13, Type 0, BuildingBlock: ESEHIV_clean_sbu_0, # of connection points: 4
#     Node 14, Type 0, BuildingBlock: ESEHIV_clean_sbu_0, # of connection points: 4
#     Node 15, Type 0, BuildingBlock: ESEHIV_clean_sbu_0, # of connection points: 4
#     Node 16, Type 0, BuildingBlock: ESEHIV_clean_sbu_0, # of connection points: 4
#     Node 17, Type 0, BuildingBlock: ESEHIV_clean_sbu_0, # of connection points: 4
#     Node 18, Type 1, BuildingBlock: GALJAG_clean_sbu_0, # of connection points: 4
#     Node 19, Type 1, BuildingBlock: GALJAG_clean_sbu_0, # of connection points: 4
#     Node 20, Type 1, BuildingBlock: GALJAG_clean_sbu_0, # of connection points: 4
#     Node 21, Type 1, BuildingBlock: GALJAG_clean_sbu_0, # of connection points: 4
#     Node 22, Type 1, BuildingBlock: GALJAG_clean_sbu_0, # of connection points: 4
#     Node 23, Type 1, BuildingBlock: GALJAG_clean_sbu_0, # of connection points: 4
#     Node 24, Type 1, BuildingBlock: GALJAG_clean_sbu_0, # of connection points: 4
#     Node 25, Type 1, BuildingBlock: GALJAG_clean_sbu_0, # of connection points: 4
#     Node 26, Type 1, BuildingBlock: GALJAG_clean_sbu_0, # of connection points: 4
#     Node 27, Type 1, BuildingBlock: GALJAG_clean_sbu_0, # of connection points: 4
#     Node 28, Type 1, BuildingBlock: GALJAG_clean_sbu_0, # of connection points: 4
#     Node 29, Type 1, BuildingBlock: GALJAG_clean_sbu_0, # of connection points: 4
#     Node 30, Type 1, BuildingBlock: GALJAG_clean_sbu_0, # of connection points: 4
#     Node 31, Type 1, BuildingBlock: GALJAG_clean_sbu_0, # of connection points: 4
#     Node 32, Type 1, BuildingBlock: GALJAG_clean_sbu_0, # of connection points: 4
#     Node 33, Type 1, BuildingBlock: GALJAG_clean_sbu_0, # of connection points: 4
#     Node 34, Type 1, BuildingBlock: GALJAG_clean_sbu_0, # of connection points: 4
#     Node 35, Type 1, BuildingBlock: GALJAG_clean_sbu_0, # of connection points: 4
#     Edge 36, Type (0, 1), BuildingBlock: ZUJKAS_clean_linker_0, # of connection points: 2
#     Edge 37, Type (0, 1), BuildingBlock: ZUJKAS_clean_linker_0, # of connection points: 2
#     Edge 38, Type (0, 1), BuildingBlock: ZUJKAS_clean_linker_0, # of connection points: 2
#     Edge 39, Type (0, 1), BuildingBlock: ZUJKAS_clean_linker_0, # of connection points: 2
#     Edge 40, Type (0, 1), BuildingBlock: ZUJKAS_clean_linker_0, # of connection points: 2
#     Edge 41, Type (0, 1), BuildingBlock: ZUJKAS_clean_linker_0, # of connection points: 2
#     Edge 42, Type (0, 1), BuildingBlock: ZUJKAS_clean_linker_0, # of connection points: 2
#     Edge 43, Type (0, 1), BuildingBlock: ZUJKAS_clean_linker_0, # of connection points: 2
#     Edge 44, Type (0, 1), BuildingBlock: ZUJKAS_clean_linker_0, # of connection points: 2
#     Edge 45, Type (0, 1), BuildingBlock: ZUJKAS_clean_linker_0, # of connection points: 2
#     Edge 46, Type (0, 1), BuildingBlock: ZUJKAS_clean_linker_0, # of connection points: 2
#     Edge 47, Type (0, 1), BuildingBlock: ZUJKAS_clean_linker_0, # of connection points: 2
#     Edge 48, Type (0, 1), BuildingBlock: ZUJKAS_clean_linker_0, # of connection points: 2
#     Edge 49, Type (0, 1), BuildingBlock: ZUJKAS_clean_linker_0, # of connection points: 2
#     Edge 50, Type (0, 1), BuildingBlock: ZUJKAS_clean_linker_0, # of connection points: 2
#     Edge 51, Type (0, 1), BuildingBlock: ZUJKAS_clean_linker_0, # of connection points: 2
#     Edge 52, Type (0, 1), BuildingBlock: ZUJKAS_clean_linker_0, # of connection points: 2
#     Edge 53, Type (0, 1), BuildingBlock: ZUJKAS_clean_linker_0, # of connection points: 2
#     Edge 54, Type (0, 1), BuildingBlock: ZUJKAS_clean_linker_0, # of connection points: 2
#     Edge 55, Type (0, 1), BuildingBlock: ZUJKAS_clean_linker_0, # of connection points: 2
#     Edge 56, Type (0, 1), BuildingBlock: ZUJKAS_clean_linker_0, # of connection points: 2
#     Edge 57, Type (0, 1), BuildingBlock: ZUJKAS_clean_linker_0, # of connection points: 2
#     Edge 58, Type (0, 1), BuildingBlock: ZUJKAS_clean_linker_0, # of connection points: 2
#     Edge 59, Type (0, 1), BuildingBlock: ZUJKAS_clean_linker_0, # of connection points: 2
#     Edge 60, Type (0, 1), BuildingBlock: ZUJKAS_clean_linker_0, # of connection points: 2
#     Edge 61, Type (0, 1), BuildingBlock: ZUJKAS_clean_linker_0, # of connection points: 2
#     Edge 62, Type (0, 1), BuildingBlock: ZUJKAS_clean_linker_0, # of connection points: 2
#     Edge 63, Type (0, 1), BuildingBlock: ZUJKAS_clean_linker_0, # of connection points: 2
#     Edge 64, Type (0, 1), BuildingBlock: ZUJKAS_clean_linker_0, # of connection points: 2
#     Edge 65, Type (0, 1), BuildingBlock: ZUJKAS_clean_linker_0, # of connection points: 2
#     Edge 66, Type (0, 1), BuildingBlock: ZUJKAS_clean_linker_0, # of connection points: 2
#     Edge 67, Type (0, 1), BuildingBlock: ZUJKAS_clean_linker_0, # of connection points: 2
#     Edge 68, Type (0, 1), BuildingBlock: ZUJKAS_clean_linker_0, # of connection points: 2
#     Edge 69, Type (0, 1), BuildingBlock: ZUJKAS_clean_linker_0, # of connection points: 2
#     Edge 70, Type (0, 1), BuildingBlock: ZUJKAS_clean_linker_0, # of connection points: 2
#     Edge 71, Type (0, 1), BuildingBlock: ZUJKAS_clean_linker_0, # of connection points: 2
#     Edge 72, Type (0, 1), BuildingBlock: ZUJKAS_clean_linker_0, # of connection points: 2
#     Edge 73, Type (0, 1), BuildingBlock: ZUJKAS_clean_linker_0, # of connection points: 2
#     Edge 74, Type (0, 1), BuildingBlock: ZUJKAS_clean_linker_0, # of connection points: 2
#     Edge 75, Type (0, 1), BuildingBlock: ZUJKAS_clean_linker_0, # of connection points: 2
#     Edge 76, Type (0, 1), BuildingBlock: ZUJKAS_clean_linker_0, # of connection points: 2
#     Edge 77, Type (0, 1), BuildingBlock: ZUJKAS_clean_linker_0, # of connection points: 2
#     Edge 78, Type (0, 1), BuildingBlock: ZUJKAS_clean_linker_0, # of connection points: 2
#     Edge 79, Type (0, 1), BuildingBlock: ZUJKAS_clean_linker_0, # of connection points: 2
#     Edge 80, Type (0, 1), BuildingBlock: ZUJKAS_clean_linker_0, # of connection points: 2
#     Edge 81, Type (0, 1), BuildingBlock: ZUJKAS_clean_linker_0, # of connection points: 2
#     Edge 82, Type (0, 1), BuildingBlock: ZUJKAS_clean_linker_0, # of connection points: 2
#     Edge 83, Type (0, 1), BuildingBlock: ZUJKAS_clean_linker_0, # of connection points: 2
#     Edge 84, Type (0, 1), BuildingBlock: ZUJKAS_clean_linker_0, # of connection points: 2
#     Edge 85, Type (0, 1), BuildingBlock: ZUJKAS_clean_linker_0, # of connection points: 2
#     Edge 86, Type (0, 1), BuildingBlock: ZUJKAS_clean_linker_0, # of connection points: 2
#     Edge 87, Type (0, 1), BuildingBlock: ZUJKAS_clean_linker_0, # of connection points: 2
#     Edge 88, Type (0, 1), BuildingBlock: ZUJKAS_clean_linker_0, # of connection points: 2
#     Edge 89, Type (0, 1), BuildingBlock: ZUJKAS_clean_linker_0, # of connection points: 2
#     Edge 90, Type (0, 1), BuildingBlock: ZUJKAS_clean_linker_0, # of connection points: 2
#     Edge 91, Type (0, 1), BuildingBlock: ZUJKAS_clean_linker_0, # of connection points: 2
#     Edge 92, Type (0, 1), BuildingBlock: ZUJKAS_clean_linker_0, # of connection points: 2
#     Edge 93, Type (0, 1), BuildingBlock: ZUJKAS_clean_linker_0, # of connection points: 2
#     Edge 94, Type (0, 1), BuildingBlock: ZUJKAS_clean_linker_0, # of connection points: 2
#     Edge 95, Type (0, 1), BuildingBlock: ZUJKAS_clean_linker_0, # of connection points: 2
#     Edge 96, Type (0, 1), BuildingBlock: ZUJKAS_clean_linker_0, # of connection points: 2
#     Edge 97, Type (0, 1), BuildingBlock: ZUJKAS_clean_linker_0, # of connection points: 2
#     Edge 98, Type (0, 1), BuildingBlock: ZUJKAS_clean_linker_0, # of connection points: 2
#     Edge 99, Type (0, 1), BuildingBlock: ZUJKAS_clean_linker_0, # of connection points: 2
#     Edge 100, Type (0, 1), BuildingBlock: ZUJKAS_clean_linker_0, # of connection points: 2
#     Edge 101, Type (0, 1), BuildingBlock: ZUJKAS_clean_linker_0, # of connection points: 2
#     Edge 102, Type (0, 1), BuildingBlock: ZUJKAS_clean_linker_0, # of connection points: 2
#     Edge 103, Type (0, 1), BuildingBlock: ZUJKAS_clean_linker_0, # of connection points: 2
#     Edge 104, Type (0, 1), BuildingBlock: ZUJKAS_clean_linker_0, # of connection points: 2
#     Edge 105, Type (0, 1), BuildingBlock: ZUJKAS_clean_linker_0, # of connection points: 2
#     Edge 106, Type (0, 1), BuildingBlock: ZUJKAS_clean_linker_0, # of connection points: 2
#     Edge 107, Type (0, 1), BuildingBlock: ZUJKAS_clean_linker_0, # of connection points: 2
# Relax obj value: 0.027
# Max RMSD: 0.112
# Mean RMSD: 0.092
data_MOF--net-fgl--node1-ESEHIV_clean_sbu_0--node2-GALJAG_clean_sbu_0--edge1-ZUJKAS_clean_linker_0
_symmetry_space_group_name_H-M    P1
_symmetry_Int_Tables_number       1
_symmetry_cell_setting            triclinic
loop_
_symmetry_equiv_pos_as_xyz
'x, y, z'
_cell_length_a     98.352459
_cell_length_b     98.503524
_cell_length_c     65.424818
_cell_angle_alpha  90.148037
_cell_angle_beta   90.234919
_cell_angle_gamma 119.91331
loop_
_atom_site_label
_atom_site_type_symbol
_atom_site_fract_x
_atom_site_fract_y
_atom_site_fract_z
_atom_type_partial_charge
Cu0 Cu 0.03568 0.54037 0.01436 0.0
N1 N 0.04825 0.55487 0.03461 0.0
N2 N 0.05447 0.57095 0.06176 0.0
C3 C 0.04386 0.56312 0.04676 0.0
C4 C 0.06604 0.56754 0.05878 0.0
C5 C 0.06218 0.55766 0.04206 0.0
O6 O 0.01975 0.54573 0.00749 0.0
C7 C 0.02594 0.51579 0.04352 0.0
O8 O 0.02833 0.52656 0.05717 0.0
H9 H 0.03269 0.5627 0.04528 0.0
H10 H 0.06876 0.55239 0.03622 0.0
N11 N 0.04691 0.54145 0.99066 0.0
N12 N 0.05273 0.53356 0.96141 0.0
C13 C 0.04488 0.52909 0.9793 0.0
C14 C 0.05647 0.55419 0.97967 0.0
C15 C 0.06007 0.54937 0.96164 0.0
C16 C 0.0142 0.54478 0.98962 0.0
O17 O 0.0174 0.53754 0.97515 0.0
H18 H 0.03705 0.51704 0.98354 0.0
H19 H 0.06 0.5661 0.98405 0.0
O20 O 0.02729 0.51924 0.02463 0.0
H21 H 0.07644 0.57167 0.06822 0.0
H22 H 0.06727 0.55692 0.94947 0.0
Cu23 Cu 0.54584 0.5564 0.02323 0.0
N24 N 0.54802 0.56315 0.99469 0.0
N25 N 0.55789 0.57281 0.96391 0.0
C26 C 0.56106 0.56999 0.9831 0.0
C27 C 0.5423 0.56753 0.9636 0.0
C28 C 0.53627 0.56161 0.98257 0.0
O29 O 0.56138 0.57912 0.03218 0.0
C30 C 0.5308 0.52182 0.01825 0.0
O31 O 0.54321 0.52362 0.02823 0.0
H32 H 0.57255 0.57266 0.98851 0.0
H33 H 0.52418 0.55654 0.98724 0.0
N34 N 0.54345 0.54962 0.0518 0.0
N35 N 0.53266 0.53891 0.08182 0.0
C36 C 0.53018 0.54283 0.0629 0.0
C37 C 0.55469 0.55 0.06394 0.0
C38 C 0.54809 0.54344 0.08245 0.0
C39 C 0.57617 0.58466 0.03364 0.0
O40 O 0.58195 0.57552 0.02931 0.0
H41 H 0.51897 0.54075 0.05714 0.0
H42 H 0.56673 0.55439 0.0595 0.0
O43 O 0.52962 0.53387 0.01426 0.0
H44 H 0.53572 0.56814 0.95068 0.0
H45 H 0.55415 0.54175 0.09516 0.0
Cu46 Cu 0.54148 0.07067 0.02651 0.0
N47 N 0.53847 0.08276 0.00718 0.0
N48 N 0.52755 0.08771 0.98036 0.0
C49 C 0.52635 0.07692 0.99398 0.0
C50 C 0.54103 0.10091 0.9852 0.0
C51 C 0.54774 0.09782 1.00183 0.0
O52 O 0.52061 0.05441 0.03488 0.0
C53 C 0.56909 0.07406 0.01235 0.0
O54 O 0.5731 0.08843 0.01775 0.0
H55 H 0.51719 0.06475 0.99384 0.0
H56 H 0.55879 0.10585 0.00909 0.0
N57 N 0.55211 0.08225 0.0497 0.0
N58 N 0.56613 0.08796 0.07856 0.0
C59 C 0.55843 0.07716 0.06384 0.0
C60 C 0.55582 0.09679 0.05564 0.0
C61 C 0.56445 0.10034 0.07354 0.0
C62 C 0.51328 0.05943 0.04571 0.0
O63 O 0.52031 0.07441 0.05034 0.0
H64 H 0.55737 0.06569 0.0632 0.0
H65 H 0.55262 0.10432 0.04746 0.0
O66 O 0.55481 0.06334 0.01437 0.0
H67 H 0.54581 0.11192 0.97713 0.0
H68 H 0.56938 0.11129 0.08191 0.0
Cu69 Cu 0.53401 0.03659 0.53062 0.0
N70 N 0.53269 0.0274 0.50523 0.0
N71 N 0.54083 0.02376 0.47496 0.0
C72 C 0.54476 0.03245 0.49223 0.0
C73 C 0.52556 0.01282 0.47721 0.0
C74 C 0.52057 0.0151 0.49593 0.0
O75 O 0.55484 0.04174 0.54184 0.0
C76 C 0.51416 0.04794 0.5211 0.0
O77 O 0.50511 0.03272 0.51903 0.0
H78 H 0.55617 0.04249 0.4954 0.0
H79 H 0.50894 0.00828 0.50225 0.0
N80 N 0.51884 0.02236 0.54854 0.0
N81 N 0.50173 0.01397 0.57426 0.0
C82 C 0.51315 0.02652 0.56453 0.0
C83 C 0.5108 0.0066 0.54813 0.0
C84 C 0.50027 1.00138 0.56405 0.0
C85 C 0.55639 0.02967 0.54428 0.0
O86 O 0.54447 0.01592 0.53935 0.0
H87 H 0.51728 0.03859 0.56879 0.0
H88 H 0.51231 0.99939 0.5369 0.0
O89 O 0.52856 0.05324 0.52614 0.0
H90 H 0.51852 1.0037 0.46627 0.0
H91 H 0.4919 0.98929 0.56747 0.0
Cu92 Cu 0.05163 0.55606 0.51889 0.0
N93 N 0.06398 0.55152 0.53673 0.0
N94 N 0.06949 0.53926 0.56165 0.0
C95 C 0.05812 0.53975 0.55048 0.0
C96 C 0.08306 0.55124 0.55454 0.0
C97 C 0.07964 0.55878 0.53927 0.0
O98 O 0.0353 0.53562 0.5092 0.0
C99 C 0.0508 0.57645 0.54895 0.0
O100 O 0.06094 0.57373 0.55854 0.0
H101 H 0.04569 0.53167 0.55216 0.0
H102 H 0.08798 0.56901 0.53095 0.0
N103 N 0.0621 0.568 0.49569 0.0
N104 N 0.06555 0.58169 0.46679 0.0
C105 C 0.05589 0.57407 0.48259 0.0
C106 C 0.07623 0.57191 0.48795 0.0
C107 C 0.07839 0.58033 0.47021 0.0
C108 C 0.04048 0.52882 0.4976 0.0
O109 O 0.05543 0.53633 0.49284 0.0
H110 H 0.04444 0.57287 0.48474 0.0
H111 H 0.08426 0.56857 0.49442 0.0
O112 O 0.04413 0.56868 0.53277 0.0
H113 H 0.09466 0.55461 0.56029 0.0
H114 H 0.08851 0.58473 0.46037 0.0
Cu115 Cu 0.53606 0.5377 0.52863 0.0
N116 N 0.5544 0.53898 0.5186 0.0
N117 N 0.57898 0.55053 0.50716 0.0
C118 C 0.56699 0.55253 0.51312 0.0
C119 C 0.57366 0.53503 0.50875 0.0
C120 C 0.55846 0.52791 0.51595 0.0
O121 O 0.54296 0.55577 0.54689 0.0
C122 C 0.52015 0.5249 0.49316 0.0
O123 O 0.52547 0.51549 0.49819 0.0
H124 H 0.5673 0.56366 0.51356 0.0
H125 H 0.55099 0.51559 0.51918 0.0
N126 N 0.52431 0.51959 0.5438 0.0
N127 N 0.50312 0.49961 0.55777 0.0
C128 C 0.50865 0.51241 0.54583 0.0
C129 C 0.52895 0.5111 0.55485 0.0
C130 C 0.51587 0.49875 0.56354 0.0
C131 C 0.55328 0.55713 0.5599 0.0
O132 O 0.55732 0.54628 0.56038 0.0
H133 H 0.50153 0.51669 0.53885 0.0
H134 H 0.54095 0.5137 0.55649 0.0
O135 O 0.52326 0.53645 0.50495 0.0
H136 H 0.58037 0.52931 0.50541 0.0
H137 H 0.51576 0.48975 0.5731 0.0
Cu138 Cu 0.69163 0.87252 0.35888 0.0
N139 N 0.67556 0.8763 0.35116 0.0
N140 N 0.66409 0.88882 0.33745 0.0
C141 C 0.67752 0.88842 0.33965 0.0
C142 C 0.65311 0.87622 0.34759 0.0
C143 C 0.66024 0.86849 0.35605 0.0
O144 O 0.70362 0.88769 0.38102 0.0
C145 C 0.7117 0.86773 0.32943 0.0
O146 O 0.71955 0.86652 0.34494 0.0
H147 H 0.68865 0.89688 0.33315 0.0
H148 H 0.65467 0.85812 0.36541 0.0
N149 N 0.68282 0.85288 0.37122 0.0
N150 N 0.68001 0.83007 0.38192 0.0
C151 C 0.68653 0.84162 0.36793 0.0
C152 C 0.67352 0.84824 0.38774 0.0
C153 C 0.6717 0.83416 0.39433 0.0
C154 C 0.7074 0.90213 0.3817 0.0
O155 O 0.70646 0.90891 0.36494 0.0
H156 H 0.69463 0.84235 0.35635 0.0
H157 H 0.66907 0.85506 0.39515 0.0
O158 O 0.70131 0.87162 0.33279 0.0
H159 H 0.64098 0.87316 0.34942 0.0
H160 H 0.66526 0.8278 0.4077 0.0
Cu161 Cu 0.20819 0.89543 0.36502 0.0
N162 N 0.18819 0.88429 0.35281 0.0
N163 N 0.16682 0.86357 0.33952 0.0
C164 C 0.18056 0.86867 0.3496 0.0
C165 C 0.16575 0.87656 0.33633 0.0
C166 C 0.17891 0.88929 0.34457 0.0
O167 O 0.20658 0.88305 0.38925 0.0
C168 C 0.22224 0.90405 0.32776 0.0
O169 O 0.21126 0.90789 0.32658 0.0
H170 H 0.18529 0.86127 0.35406 0.0
H171 H 0.18166 0.90137 0.3441 0.0
N172 N 0.21411 0.91602 0.37329 0.0
N173 N 0.22977 0.9409 0.38358 0.0
C174 C 0.22896 0.92736 0.3775 0.0
C175 C 0.20519 0.92261 0.37671 0.0
C176 C 0.21478 0.9379 0.38308 0.0
C177 C 0.19746 0.88318 0.40298 0.0
O178 O 0.19123 0.89214 0.40022 0.0
H179 H 0.23894 0.92557 0.3765 0.0
H180 H 0.19258 0.91669 0.375 0.0
O181 O 0.22346 0.89776 0.3442 0.0
H182 H 0.15617 0.87687 0.32857 0.0
H183 H 0.21097 0.94616 0.38692 0.0
Cu184 Cu 0.20959 0.40997 0.35274 0.0
N185 N 0.20702 0.42258 0.33366 0.0
N186 N 0.19741 0.42818 0.30597 0.0
C187 C 0.19723 0.41678 0.31754 0.0
C188 C 0.20772 0.44175 0.31526 0.0
C189 C 0.21369 0.43826 0.33233 0.0
O190 O 0.18841 0.39418 0.36096 0.0
C191 C 0.23545 0.41296 0.33307 0.0
O192 O 0.23822 0.42746 0.33341 0.0
H193 H 0.18994 0.40436 0.3146 0.0
H194 H 0.2224 0.44657 0.34281 0.0
N195 N 0.22052 0.42085 0.37615 0.0
N196 N 0.23409 0.42488 0.40516 0.0
C197 C 0.2275 0.41545 0.38879 0.0
C198 C 0.22271 0.43423 0.38474 0.0
C199 C 0.23108 0.43674 0.4027 0.0
C200 C 0.18084 0.39995 0.36971 0.0
O201 O 0.18791 0.41519 0.37245 0.0
H202 H 0.22727 0.40447 0.38626 0.0
H203 H 0.21825 0.44146 0.3787 0.0
O204 O 0.22257 0.40224 0.34051 0.0
H205 H 0.21092 0.45336 0.30993 0.0
H206 H 0.23459 0.44648 0.41314 0.0
Cu207 Cu 0.19748 0.35519 0.87161 0.0
N208 N 0.19508 0.34355 0.84805 0.0
N209 N 0.20113 0.33881 0.81698 0.0
C210 C 0.20601 0.34842 0.83341 0.0
C211 C 0.1865 0.3273 0.82162 0.0
C212 C 0.18276 0.33031 0.84081 0.0
O213 O 0.21872 0.36173 0.88213 0.0
C214 C 0.17747 0.36534 0.85902 0.0
O215 O 0.16831 0.35009 0.86016 0.0
H216 H 0.2173 0.35898 0.83484 0.0
H217 H 0.1717 0.3236 0.8486 0.0
N218 N 0.18316 0.34333 0.89192 0.0
N219 N 0.16698 0.33839 0.91825 0.0
C220 C 0.17802 0.34948 0.90622 0.0
C221 C 0.17521 0.32776 0.89502 0.0
C222 C 0.16524 0.32468 0.91135 0.0
C223 C 0.2207 0.35013 0.88624 0.0
O224 O 0.20881 0.33595 0.88321 0.0
H225 H 0.18221 0.36191 0.90756 0.0
H226 H 0.17632 0.31923 0.88584 0.0
O227 O 0.19203 0.37118 0.86345 0.0
H228 H 0.17881 0.31773 0.81162 0.0
H229 H 0.15701 0.31322 0.91724 0.0
Cu230 Cu 0.7187 0.88535 0.84897 0.0
N231 N 0.72724 0.8735 0.83854 0.0
N232 N 0.72775 0.85305 0.8243 0.0
C233 C 0.71925 0.8602 0.82755 0.0
C234 C 0.74181 0.8625 0.83317 0.0
C235 C 0.74146 0.87508 0.84194 0.0
O236 O 0.70717 0.87471 0.87413 0.0
C237 C 0.7012 0.89695 0.82442 0.0
O238 O 0.69703 0.9009 0.84149 0.0
H239 H 0.70721 0.8556 0.82266 0.0
H240 H 0.75075 0.88437 0.85079 0.0
N241 N 0.73461 0.90487 0.85835 0.0
N242 N 0.74564 0.92981 0.86897 0.0
C243 C 0.73484 0.91861 0.85655 0.0
C244 C 0.74575 0.90749 0.87233 0.0
C245 C 0.75264 0.92286 0.8788 0.0
C246 C 0.70051 0.85997 0.87736 0.0
O247 O 0.6975 0.85046 0.86177 0.0
H248 H 0.72639 0.92002 0.8476 0.0
H249 H 0.74789 0.89857 0.87857 0.0
O250 O 0.70857 0.88934 0.82531 0.0
H251 H 0.75141 0.86012 0.83421 0.0
H252 H 0.76151 0.92821 0.89061 0.0
Cu253 Cu 0.1937 0.87501 0.86675 0.0
N254 N 0.18209 0.87518 0.84411 0.0
N255 N 0.16946 0.86773 0.814 0.0
C256 C 0.1777 0.86498 0.82838 0.0
C257 C 0.1687 0.88024 0.82107 0.0
C258 C 0.17648 0.8848 0.83962 0.0
O259 O 0.18252 0.85365 0.87687 0.0
C260 C 0.22155 0.89502 0.84892 0.0
O261 O 0.21364 0.90242 0.84661 0.0
H262 H 0.18075 0.85586 0.82746 0.0
H263 H 0.17801 0.89449 0.84908 0.0
N264 N 0.19542 0.88902 0.88741 0.0
N265 N 0.20523 0.90461 0.91491 0.0
C266 C 0.20764 0.8962 0.90049 0.0
C267 C 0.18489 0.89304 0.89367 0.0
C268 C 0.19094 0.90273 0.91057 0.0
C269 C 0.17982 0.85007 0.89568 0.0
O270 O 0.18679 0.86105 0.90964 0.0
H271 H 0.21796 0.89497 0.89964 0.0
H272 H 0.17343 0.88882 0.88687 0.0
O273 O 0.21485 0.88171 0.85762 0.0
H274 H 0.1628 0.88566 0.81355 0.0
H275 H 0.185 0.90747 0.91945 0.0
Cu276 Cu 0.36501 0.21203 0.71085 0.0
N277 N 0.34845 0.21481 0.70201 0.0
N278 N 0.33549 0.22482 0.68568 0.0
C279 C 0.34952 0.22581 0.68894 0.0
C280 C 0.32514 0.21254 0.69689 0.0
C281 C 0.33317 0.20638 0.70695 0.0
O282 O 0.37672 0.22771 0.73245 0.0
C283 C 0.36699 0.20126 0.67254 0.0
O284 O 0.3518 0.19384 0.67585 0.0
H285 H 0.36039 0.23437 0.68192 0.0
H286 H 0.3282 0.19651 0.71721 0.0
N287 N 0.35689 0.19274 0.72384 0.0
N288 N 0.35405 0.16975 0.73365 0.0
C289 C 0.36072 0.18163 0.72013 0.0
C290 C 0.34754 0.18782 0.7403 0.0
C291 C 0.34568 0.17361 0.74632 0.0
C292 C 0.37875 0.24157 0.73317 0.0
O293 O 0.37551 0.24724 0.71691 0.0
H294 H 0.36855 0.18246 0.70801 0.0
H295 H 0.34289 0.19441 0.74785 0.0
O296 O 0.37605 0.21077 0.68632 0.0
H297 H 0.31275 0.20857 0.69817 0.0
H298 H 0.33926 0.16702 0.75958 0.0
Cu299 Cu 0.87137 0.21199 0.67953 0.0
N300 N 0.87051 0.22066 0.65458 0.0
N301 N 0.87878 0.23433 0.62561 0.0
C302 C 0.88297 0.22989 0.64293 0.0
C303 C 0.86299 0.2276 0.62649 0.0
C304 C 0.85793 0.21919 0.64441 0.0
O305 O 0.89284 0.22606 0.69008 0.0
C306 C 0.86148 0.18267 0.65838 0.0
O307 O 0.86641 0.19125 0.64181 0.0
H308 H 0.89487 0.23301 0.64697 0.0
H309 H 0.84595 0.21246 0.64964 0.0
N310 N 0.85674 0.21226 0.69734 0.0
N311 N 0.83985 0.20515 0.72328 0.0
C312 C 0.84982 0.20211 0.71274 0.0
C313 C 0.85092 0.22205 0.69799 0.0
C314 C 0.84046 0.21767 0.71398 0.0
C315 C 0.89563 0.23296 0.70745 0.0
O316 O 0.88412 0.22844 0.72057 0.0
H317 H 0.85206 0.19264 0.71606 0.0
H318 H 0.85416 0.23174 0.68768 0.0
O319 O 0.86421 0.18949 0.67579 0.0
H320 H 0.85562 0.22877 0.61514 0.0
H321 H 0.83405 0.22345 0.71864 0.0
Cu322 Cu 0.88301 0.73084 0.68444 0.0
N323 N 0.88003 0.74436 0.6675 0.0
N324 N 0.87042 0.75109 0.64084 0.0
C325 C 0.87014 0.73923 0.65145 0.0
C326 C 0.88087 0.76427 0.65076 0.0
C327 C 0.88684 0.76008 0.6672 0.0
O328 O 0.86191 0.71364 0.69042 0.0
C329 C 0.9105 0.73741 0.66647 0.0
O330 O 0.91278 0.75129 0.67162 0.0
H331 H 0.86287 0.72694 0.6477 0.0
H332 H 0.89578 0.76796 0.6778 0.0
N333 N 0.89292 0.74004 0.70917 0.0
N334 N 0.90545 0.74239 0.73869 0.0
C335 C 0.89936 0.73385 0.72148 0.0
C336 C 0.89502 0.75304 0.71882 0.0
C337 C 0.90278 0.75453 0.73705 0.0
C338 C 0.85393 0.71767 0.70168 0.0
O339 O 0.86064 0.73218 0.70837 0.0
H340 H 0.89961 0.72328 0.71769 0.0
H341 H 0.89092 0.7607 0.71326 0.0
O342 O 0.89722 0.72546 0.6704 0.0
H343 H 0.88429 0.77609 0.64618 0.0
H344 H 0.90586 0.76365 0.74838 0.0
Cu345 Cu 0.86059 0.70432 0.17289 0.0
N346 N 0.85882 0.69501 0.14737 0.0
N347 N 0.86639 0.68965 0.11781 0.0
C348 C 0.87105 0.69722 0.13586 0.0
C349 C 0.8506 0.68246 0.11777 0.0
C350 C 0.84593 0.68572 0.13615 0.0
O351 O 0.88168 0.71028 0.18366 0.0
C352 C 0.8397 0.71517 0.16689 0.0
O353 O 0.83029 0.69994 0.16712 0.0
H354 H 0.88318 0.70452 0.14047 0.0
H355 H 0.83401 0.68168 0.14089 0.0
N356 N 0.8465 0.69001 0.19156 0.0
N357 N 0.8315 0.68174 0.21933 0.0
C358 C 0.84214 0.69423 0.20875 0.0
C359 C 0.83843 0.67424 0.1912 0.0
C360 C 0.82917 0.66908 0.20846 0.0
C361 C 0.88428 0.69878 0.18438 0.0
O362 O 0.87304 0.68493 0.17837 0.0
H363 H 0.84668 0.70631 0.21332 0.0
H364 H 0.83909 0.66705 0.17916 0.0
O365 O 0.85447 0.72053 0.16917 0.0
H366 H 0.84302 0.67528 0.10545 0.0
H367 H 0.8211 0.65702 0.21242 0.0
Cu368 Cu 0.39221 0.22394 0.20315 0.0
N369 N 0.40056 0.21197 0.19234 0.0
N370 N 0.40069 0.19087 0.17966 0.0
C371 C 0.39225 0.19811 0.18256 0.0
C372 C 0.41505 0.20082 0.18747 0.0
C373 C 0.41493 0.2138 0.19524 0.0
O374 O 0.3819 0.21384 0.22909 0.0
C375 C 0.38932 0.23402 0.16513 0.0
O376 O 0.40357 0.23602 0.16517 0.0
H377 H 0.37991 0.19298 0.17893 0.0
H378 H 0.42445 0.22352 0.20323 0.0
N379 N 0.40779 0.24395 0.21143 0.0
N380 N 0.41738 0.269 0.22101 0.0
C381 C 0.40646 0.25687 0.20977 0.0
C382 C 0.41999 0.24796 0.22416 0.0
C383 C 0.42601 0.26341 0.22995 0.0
C384 C 0.37483 0.19913 0.2326 0.0
O385 O 0.37049 0.18933 0.21711 0.0
H386 H 0.39705 0.25698 0.20133 0.0
H387 H 0.4235 0.23992 0.23009 0.0
O388 O 0.38084 0.22787 0.18097 0.0
H389 H 0.42481 0.19868 0.18815 0.0
H390 H 0.4353 0.26961 0.24104 0.0
Cu391 Cu 0.85857 0.22813 0.18169 0.0
N392 N 0.85008 0.22951 0.15671 0.0
N393 N 0.8377 0.22168 0.12662 0.0
C394 C 0.8408 0.21718 0.14467 0.0
C395 C 0.84536 0.23748 0.12728 0.0
C396 C 0.85296 0.24228 0.14594 0.0
O397 O 0.8441 0.20814 0.19385 0.0
C398 C 0.88971 0.24522 0.17273 0.0
O399 O 0.88562 0.25602 0.1721 0.0
H400 H 0.83691 0.20516 0.14876 0.0
H401 H 0.86037 0.25423 0.15106 0.0
N402 N 0.86127 0.24375 0.20024 0.0
N403 N 0.87242 0.26094 0.22585 0.0
C404 C 0.87183 0.24877 0.21558 0.0
C405 C 0.85473 0.25291 0.20088 0.0
C406 C 0.86156 0.26353 0.21677 0.0
C407 C 0.83016 0.20564 0.19574 0.0
O408 O 0.827 0.21647 0.18961 0.0
H409 H 0.87915 0.2437 0.21885 0.0
H410 H 0.84593 0.25219 0.19025 0.0
O411 O 0.87932 0.2311 0.17641 0.0
H412 H 0.84556 0.245 0.11511 0.0
H413 H 0.85913 0.27276 0.22082 0.0
In414 In 0.03808 0.67523 0.26247 0.0
O415 O 0.06122 0.69858 0.25845 0.0
O416 O 0.04683 0.69659 0.28359 0.0
C417 C 0.04057 0.65892 0.23018 0.0
C418 C 0.04071 0.65894 0.29458 0.0
C419 C 0.01334 0.67934 0.25203 0.0
O420 O 0.04992 0.67335 0.23308 0.0
O421 O 0.02997 0.6527 0.24349 0.0
O422 O 0.01378 0.6729 0.2685 0.0
O423 O 0.02509 0.68331 0.24077 0.0
C424 C 0.05933 0.7051 0.27398 0.0
O425 O 0.02772 0.65752 0.28904 0.0
O426 O 0.05219 0.66839 0.28387 0.0
In427 In 0.41471 0.43683 0.28086 0.0
O428 O 0.41643 0.44637 0.2483 0.0
O429 O 0.4376 0.45326 0.26449 0.0
C430 C 0.38444 0.42905 0.28787 0.0
C431 C 0.41562 0.41028 0.27219 0.0
C432 C 0.42824 0.45381 0.3153 0.0
O433 O 0.39335 0.44007 0.27616 0.0
O434 O 0.39079 0.422 0.29605 0.0
O435 O 0.42476 0.43969 0.31326 0.0
O436 O 0.42479 0.45935 0.30006 0.0
C437 C 0.43123 0.45413 0.24817 0.0
O438 O 0.42521 0.4207 0.28425 0.0
O439 O 0.40552 0.41317 0.26464 0.0
In440 In 0.65935 0.05161 0.27161 0.0
O441 O 0.6559 0.05882 0.30367 0.0
O442 O 0.63622 0.04027 0.28854 0.0
C443 C 0.68948 0.07362 0.26504 0.0
C444 C 0.65999 0.02459 0.27442 0.0
C445 C 0.64562 0.05949 0.24184 0.0
O446 O 0.68277 0.07249 0.28188 0.0
O447 O 0.68103 0.06365 0.25171 0.0
O448 O 0.64795 0.04803 0.24023 0.0
O449 O 0.65028 0.06701 0.25845 0.0
C450 C 0.64148 0.04874 0.3043 0.0
O451 O 0.65066 0.02611 0.26266 0.0
O452 O 0.6691 0.03672 0.2845 0.0
In453 In 0.04943 0.41761 0.76199 0.0
O454 O 0.03644 0.42523 0.78474 0.0
O455 O 0.06113 0.4363 0.78717 0.0
C456 C 0.02574 0.38803 0.75198 0.0
C457 C 0.05253 0.43619 0.72913 0.0
C458 C 0.07245 0.41169 0.77477 0.0
O459 O 0.02596 0.39497 0.76832 0.0
O460 O 0.03737 0.39599 0.7406 0.0
O461 O 0.07446 0.42116 0.76055 0.0
O462 O 0.05882 0.40504 0.78223 0.0
C463 C 0.04867 0.43519 0.79404 0.0
O464 O 0.06238 0.43194 0.73338 0.0
O465 O 0.04112 0.43102 0.74129 0.0
In466 In 0.66753 0.66438 0.75413 0.0
O467 O 0.64704 0.64464 0.77145 0.0
O468 O 0.66706 0.66007 0.78886 0.0
C469 C 0.6934 0.66295 0.74275 0.0
C470 C 0.64704 0.65143 0.7225 0.0
C471 C 0.67591 0.69483 0.76115 0.0
O472 O 0.68773 0.6594 0.7605 0.0
O473 O 0.68584 0.66682 0.73078 0.0
O474 O 0.66205 0.68373 0.76336 0.0
O475 O 0.68539 0.69059 0.75517 0.0
C476 C 0.65337 0.64839 0.78887 0.0
O477 O 0.65218 0.66541 0.72829 0.0
O478 O 0.65231 0.6441 0.73256 0.0
In479 In 0.40214 0.0287 0.77746 0.0
O480 O 0.41007 0.03965 0.80913 0.0
O481 O 0.42522 0.03403 0.79267 0.0
C482 C 0.39305 0.04987 0.76872 0.0
C483 C 0.41647 0.02466 0.74469 0.0
C484 C 0.37676 1.00159 0.78928 0.0
O485 O 0.40647 0.0537 0.77563 0.0
O486 O 0.38418 0.03535 0.76611 0.0
O487 O 0.37867 0.00651 0.77116 0.0
O488 O 0.3877 0.01026 0.8014 0.0
C489 C 0.42292 0.03968 0.80875 0.0
O490 O 0.41057 0.01468 0.75876 0.0
O491 O 0.41508 0.0366 0.74711 0.0
In492 In 0.70896 0.99789 0.60462 0.0
O493 O 0.73487 0.01735 0.60074 0.0
O494 O 0.72234 0.01961 0.62544 0.0
C495 C 0.70991 0.98232 0.56992 0.0
C496 C 0.70643 0.98047 0.63875 0.0
C497 C 0.68558 0.00462 0.59514 0.0
O498 O 0.71763 0.99702 0.57195 0.0
O499 O 0.70172 0.97541 0.58532 0.0
O500 O 0.68283 0.99161 0.60228 0.0
O501 O 0.69996 0.01411 0.59267 0.0
C502 C 0.73512 0.02547 0.61586 0.0
O503 O 0.6975 0.98599 0.63522 0.0
O504 O 0.71659 0.98362 0.62507 0.0
In505 In 0.08756 0.76237 0.59491 0.0
O506 O 0.09306 0.77774 0.56626 0.0
O507 O 0.11054 0.77285 0.57693 0.0
C508 C 0.0577 0.7552 0.60343 0.0
C509 C 0.08188 0.7331 0.58584 0.0
C510 C 0.10264 0.77997 0.62837 0.0
O511 O 0.06518 0.7637 0.58845 0.0
O512 O 0.06531 0.75054 0.61399 0.0
O513 O 0.10142 0.76679 0.62487 0.0
O514 O 0.09645 0.78435 0.6149 0.0
C515 C 0.10664 0.77965 0.5638 0.0
O516 O 0.09034 0.74095 0.6008 0.0
O517 O 0.0766 0.74014 0.57522 0.0
In518 In 0.31051 0.37191 0.6026 0.0
O519 O 0.30397 0.3467 0.59449 0.0
O520 O 0.32228 0.35922 0.61613 0.0
C521 C 0.29647 0.3792 0.57246 0.0
C522 C 0.29212 0.36722 0.63531 0.0
C523 C 0.34054 0.39449 0.59717 0.0
O524 O 0.29952 0.36823 0.57072 0.0
O525 O 0.30032 0.38629 0.58941 0.0
O526 O 0.33312 0.39355 0.61334 0.0
O527 O 0.33273 0.38419 0.58384 0.0
C528 C 0.31405 0.34661 0.60643 0.0
O529 O 0.3054 0.37937 0.63344 0.0
O530 O 0.28815 0.35763 0.62065 0.0
In531 In 0.70939 0.7748 0.10353 0.0
O532 O 0.69773 0.77816 0.13247 0.0
O533 O 0.72046 0.79635 0.12524 0.0
C534 C 0.6868 0.74498 0.09275 0.0
C535 C 0.70818 0.79125 0.07023 0.0
C536 C 0.73352 0.76951 0.11326 0.0
O537 O 0.68555 0.7521 0.10809 0.0
O538 O 0.69932 0.75288 0.08288 0.0
O539 O 0.7347 0.77919 0.09978 0.0
O540 O 0.72029 0.76258 0.12176 0.0
C541 C 0.70911 0.79134 0.13749 0.0
O542 O 0.7201 0.79021 0.07484 0.0
O543 O 0.69698 0.78432 0.08259 0.0
In544 In 0.32682 0.9975 0.11846 0.0
O545 O 0.32185 0.97826 0.14195 0.0
O546 O 0.30994 0.991 0.14561 0.0
C547 C 0.35417 1.00102 0.10381 0.0
C548 C 0.30557 0.98203 0.08809 0.0
C549 C 0.33723 0.02807 0.12791 0.0
O550 O 0.34941 0.9963 0.12168 0.0
O551 O 0.34511 1.00387 0.09331 0.0
O552 O 0.32641 0.02054 0.11504 0.0
O553 O 0.34263 0.02017 0.13614 0.0
C554 C 0.31231 0.98038 0.15237 0.0
O555 O 0.30799 0.99493 0.09537 0.0
O556 O 0.31364 0.97681 0.09634 0.0
In557 In 0.06979 0.37476 0.10628 0.0
O558 O 0.0929 0.39348 0.12063 0.0
O559 O 0.0794 0.37238 0.13701 0.0
C560 C 0.0594 0.39479 0.09668 0.0
C561 C 0.08575 0.36925 0.07698 0.0
C562 C 0.04254 0.34873 0.11586 0.0
O563 O 0.06588 0.39521 0.11352 0.0
O564 O 0.05821 0.38428 0.08451 0.0
O565 O 0.04985 0.34986 0.0996 0.0
O566 O 0.04886 0.36074 0.12712 0.0
C567 C 0.09162 0.38566 0.13646 0.0
O568 O 0.08031 0.36079 0.0926 0.0
O569 O 0.08318 0.38058 0.0761 0.0
In570 In 0.38153 0.33576 0.95698 0.0
O571 O 0.36961 0.32266 0.98677 0.0
O572 O 0.39059 0.32319 0.97811 0.0
C573 C 0.35658 0.33999 0.94778 0.0
C574 C 0.40679 0.36421 0.96734 0.0
C575 C 0.38383 0.32126 0.92215 0.0
O576 O 0.35497 0.3268 0.95212 0.0
O577 O 0.3706 0.35095 0.94831 0.0
O578 O 0.38861 0.33573 0.92324 0.0
O579 O 0.37807 0.31409 0.93861 0.0
C580 C 0.37963 0.31859 0.99097 0.0
O581 O 0.40658 0.35654 0.95172 0.0
O582 O 0.39449 0.35742 0.97791 0.0
In583 In 0.74022 0.09573 0.92924 0.0
O584 O 0.74525 0.07608 0.93796 0.0
O585 O 0.73556 0.0751 0.9086 0.0
C586 C 0.75571 0.11562 0.96061 0.0
C587 C 0.75527 0.11504 0.89751 0.0
C588 C 0.70945 0.08408 0.9378 0.0
O589 O 0.75945 0.10591 0.9539 0.0
O590 O 0.74421 0.11529 0.95154 0.0
O591 O 0.71538 0.09036 0.9209 0.0
O592 O 0.71898 0.08348 0.95024 0.0
C593 C 0.74058 0.06889 0.92112 0.0
O594 O 0.7415 0.11144 0.90255 0.0
O595 O 0.76138 0.10899 0.90848 0.0
In596 In 0.99471 0.7022 0.93434 0.0
O597 O 0.98744 0.71331 0.95976 0.0
O598 O 0.97265 0.68907 0.95346 0.0
C599 C 0.0257 0.72319 0.93151 0.0
C600 C 0.99622 0.67592 0.94044 0.0
C601 C 0.981 0.70806 0.90231 0.0
O602 O 0.01795 0.72161 0.94754 0.0
O603 O 0.01784 0.71417 0.91702 0.0
O604 O 0.9801 0.69493 0.90477 0.0
O605 O 0.98884 0.71811 0.91584 0.0
C606 C 0.97505 0.70076 0.96405 0.0
O607 O 0.99154 0.67862 0.92371 0.0
O608 O 1.00029 0.68654 0.95379 0.0
In609 In 0.38965 0.11546 0.45686 0.0
O610 O 0.37971 0.11759 0.48784 0.0
O611 O 0.3996 0.13791 0.47689 0.0
C612 C 0.36483 0.08703 0.44598 0.0
C613 C 0.38884 0.13172 0.42319 0.0
C614 C 0.41288 0.1088 0.46694 0.0
O615 O 0.36401 0.09566 0.45964 0.0
O616 O 0.37819 0.09264 0.43789 0.0
O617 O 0.41515 0.11981 0.45502 0.0
O618 O 0.39906 0.10128 0.47363 0.0
C619 C 0.38964 0.13181 0.49098 0.0
O620 O 0.40002 0.12919 0.42674 0.0
O621 O 0.37838 0.1264 0.43672 0.0
In622 In 0.99417 0.34577 0.4298 0.0
O623 O 0.99232 0.33717 0.46294 0.0
O624 O 0.97209 0.32595 0.44407 0.0
C625 C 0.02215 0.34852 0.41913 0.0
C626 C 0.97778 0.33458 0.39453 0.0
C627 C 0.99654 0.37304 0.44299 0.0
O628 O 0.01271 0.33802 0.43106 0.0
O629 O 0.01749 0.35756 0.41265 0.0
O630 O 0.98427 0.36219 0.43484 0.0
O631 O 0.00766 0.37019 0.44448 0.0
C632 C 0.97803 0.32684 0.46145 0.0
O633 O 0.9831 0.34854 0.40045 0.0
O634 O 0.98106 0.32638 0.40613 0.0
In635 In 0.75087 0.70777 0.43413 0.0
O636 O 0.76779 0.72668 0.45642 0.0
O637 O 0.76688 0.70471 0.45664 0.0
C638 C 0.74017 0.72754 0.42479 0.0
C639 C 0.7649 0.70201 0.40252 0.0
C640 C 0.72422 0.68157 0.44472 0.0
O641 O 0.73876 0.72168 0.4423 0.0
O642 O 0.74716 0.7236 0.41204 0.0
O643 O 0.72673 0.68701 0.42684 0.0
O644 O 0.73512 0.6894 0.45734 0.0
C645 C 0.77279 0.71828 0.46419 0.0
O646 O 0.75279 0.69147 0.4111 0.0
O647 O 0.7701 0.71556 0.40997 0.0
H648 H 0.02716 0.50627 0.08243 0.0
H649 H 0.02989 0.48383 0.09244 0.0
H650 H 0.02525 0.4692 0.02943 0.0
H651 H 0.02246 0.49156 0.01921 0.0
H652 H 0.00893 0.44398 0.05971 0.0
H653 H 0.07183 0.48487 0.07773 0.0
H654 H 0.05801 0.48914 0.08985 0.0
H655 H 0.06016 0.4906 0.06258 0.0
C656 C 0.02642 0.49814 0.07071 0.0
C657 C 0.02477 0.50083 0.04998 0.0
C658 C 0.02805 0.48536 0.07647 0.0
C659 C 0.02804 0.47505 0.06163 0.0
C660 C 0.02537 0.47709 0.04109 0.0
H661 H 0.04704 0.39766 0.06048 0.0
H662 H 0.03853 0.41653 0.05216 0.0
C663 C 0.02378 0.48989 0.0353 0.0
C664 C 0.03198 0.46287 0.06729 0.0
H665 H 0.06217 0.45814 0.08446 0.0
C666 C 0.02054 0.44702 0.06515 0.0
C667 C 0.04718 0.46693 0.07428 0.0
C668 C 0.06008 0.48379 0.07613 0.0
C669 C 0.02384 0.43508 0.07018 0.0
C670 C 0.03908 0.43916 0.0771 0.0
C671 C 0.05049 0.45503 0.07921 0.0
C672 C 0.04356 0.42723 0.08224 0.0
C673 C 0.0109 0.41825 0.06846 0.0
C674 C 0.04954 0.4272 0.10174 0.0
C675 C 0.05458 0.41658 0.10644 0.0
C676 C 0.05377 0.40579 0.09169 0.0
C677 C 0.04772 0.40578 0.07219 0.0
C678 C 0.04274 0.41647 0.06747 0.0
H679 H 0.99912 0.41722 0.06856 0.0
H680 H 0.01211 0.41325 0.05381 0.0
H681 H 0.01155 0.41112 0.08114 0.0
H682 H 0.05036 0.43545 0.11334 0.0
H683 H 0.05918 0.41688 0.1216 0.0
H684 H 0.60779 0.59911 0.04124 0.0
H685 H 0.62546 0.62619 0.05184 0.0
H686 H 0.58682 0.63515 0.05145 0.0
H687 H 0.56898 0.60798 0.04076 0.0
H688 H 0.6142 0.65878 0.03194 0.0
H689 H 0.62832 0.6454 0.10879 0.0
H690 H 0.63123 0.63497 0.08828 0.0
H691 H 0.61179 0.63125 0.09385 0.0
C692 C 0.60298 0.60678 0.04345 0.0
C693 C 0.58688 0.60125 0.0402 0.0
C694 C 0.61313 0.6223 0.04964 0.0
C695 C 0.60749 0.63273 0.05276 0.0
C696 C 0.59147 0.62734 0.04928 0.0
H697 H 0.6598 0.72473 0.11307 0.0
H698 H 0.64017 0.69784 0.10335 0.0
C699 C 0.58126 0.61176 0.04319 0.0
C700 C 0.6184 0.64931 0.05928 0.0
H701 H 0.64394 0.67161 0.09728 0.0
C702 C 0.62064 0.66158 0.04627 0.0
C703 C 0.62672 0.65305 0.0781 0.0
C704 C 0.62433 0.64051 0.09318 0.0
C705 C 0.63122 0.67737 0.05128 0.0
C706 C 0.63995 0.68108 0.06977 0.0
C707 C 0.63739 0.66883 0.08303 0.0
C708 C 0.65185 0.69755 0.07554 0.0
C709 C 0.63285 0.68998 0.03681 0.0
C710 C 0.66511 0.70639 0.06333 0.0
C711 C 0.67638 0.72174 0.0689 0.0
C712 C 0.6747 0.72868 0.08684 0.0
C713 C 0.66146 0.7198 0.09911 0.0
C714 C 0.65022 0.7044 0.09358 0.0
H715 H 0.62261 0.68568 0.02629 0.0
H716 H 0.63411 0.70032 0.04532 0.0
H717 H 0.6435 0.69383 0.0274 0.0
H718 H 0.66685 0.70133 0.04956 0.0
H719 H 0.68646 0.72818 0.05913 0.0
H720 H 0.49916 0.06409 0.07812 0.0
H721 H 0.47136 0.05038 0.08636 0.0
H722 H 0.46197 0.01868 0.03577 0.0
H723 H 0.49013 0.03232 0.0276 0.0
H724 H 0.44916 0.0492 0.05973 0.0
H725 H 0.43528 0.98923 0.08215 0.0
H726 H 0.45512 0.00553 0.08146 0.0
H727 H 0.44512 0.99624 0.05811 0.0
C728 C 0.49125 0.05401 0.06893 0.0
C729 C 0.49682 0.04932 0.05215 0.0
C730 C 0.47534 0.04619 0.07367 0.0
C731 C 0.46456 0.03351 0.0617 0.0
C732 C 0.47011 0.0283 0.0454 0.0
H733 H 0.36579 0.00911 0.06516 0.0
H734 H 0.39177 0.01531 0.05305 0.0
C735 C 0.48618 0.0361 0.04073 0.0
C736 C 0.44752 0.02693 0.06545 0.0
H737 H 0.41417 0.99429 0.08123 0.0
C738 C 0.44148 0.03716 0.06431 0.0
C739 C 0.43756 0.01125 0.07154 0.0
C740 C 0.44355 0.9999 0.07357 0.0
C741 C 0.42591 0.03231 0.06953 0.0
C742 C 0.4159 0.01663 0.07559 0.0
C743 C 0.42183 0.00628 0.07643 0.0
C744 C 0.39952 0.01112 0.08216 0.0
C745 C 0.42052 0.04423 0.06928 0.0
C746 C 0.39498 0.00606 0.10231 0.0
C747 C 0.38008 1.00237 0.10922 0.0
C748 C 0.36944 1.00368 0.09609 0.0
C749 C 0.37378 0.00815 0.0757 0.0
C750 C 0.38864 0.01174 0.06877 0.0
H751 H 0.43056 0.05642 0.06912 0.0
H752 H 0.41338 0.04249 0.05532 0.0
H753 H 0.41315 0.04288 0.08279 0.0
H754 H 0.40316 0.00546 0.1129 0.0
H755 H 0.37705 0.9989 0.12499 0.0
H756 H 0.48378 0.03951 0.52688 0.0
H757 H 0.47027 0.05381 0.51838 0.0
H758 H 0.51396 0.09327 0.49913 0.0
H759 H 0.52778 0.07883 0.5078 0.0
H760 H 0.47572 0.08401 0.53273 0.0
H761 H 0.48334 0.08213 0.44866 0.0
H762 H 0.48585 0.06927 0.46594 0.0
H763 H 0.50052 0.08958 0.46474 0.0
C764 C 0.49063 0.05129 0.52097 0.0
C765 C 0.5069 0.05797 0.51794 0.0
C766 C 0.48284 0.05947 0.51613 0.0
C767 C 0.49098 0.07455 0.50783 0.0
C768 C 0.50735 0.08156 0.50528 0.0
H769 H 0.44415 0.12405 0.45633 0.0
H770 H 0.4643 0.11755 0.46658 0.0
C771 C 0.51527 0.07336 0.51041 0.0
C772 C 0.48197 0.08248 0.50169 0.0
H773 H 0.46724 0.09192 0.45998 0.0
C774 C 0.47403 0.08593 0.51683 0.0
C775 C 0.47973 0.08502 0.48096 0.0
C776 C 0.48771 0.08127 0.46402 0.0
C777 C 0.46376 0.09153 0.51183 0.0
C778 C 0.46088 0.09334 0.49102 0.0
C779 C 0.46929 0.09047 0.47591 0.0
C780 C 0.44866 0.09743 0.48469 0.0
C781 C 0.4561 0.09548 0.52901 0.0
C782 C 0.43301 0.08819 0.49105 0.0
C783 C 0.42152 0.09193 0.48529 0.0
C784 C 0.42526 0.10492 0.47277 0.0
C785 C 0.44085 0.11401 0.46604 0.0
C786 C 0.45239 0.11028 0.47189 0.0
H787 H 0.46328 0.09859 0.54322 0.0
H788 H 0.45427 0.10538 0.52491 0.0
H789 H 0.44453 0.08509 0.53235 0.0
H790 H 0.42962 0.07795 0.50039 0.0
H791 H 0.40963 0.08456 0.49062 0.0
H792 H 0.01292 0.5056 0.51426 0.0
H793 H 0.99975 0.47743 0.506 0.0
H794 H 0.03349 0.48676 0.45842 0.0
H795 H 0.04641 0.5146 0.46629 0.0
H796 H 1.00312 0.46451 0.44707 0.0
H797 H 0.01999 0.45114 0.52257 0.0
H798 H 0.00844 0.46066 0.52287 0.0
H799 H 0.02812 0.47091 0.51332 0.0
C800 C 0.01729 0.50162 0.50178 0.0
C801 C 0.03078 0.51228 0.49105 0.0
C802 C 0.00986 0.48554 0.4972 0.0
C803 C 0.01582 0.47998 0.48182 0.0
C804 C 0.02872 0.49075 0.47039 0.0
H805 H 0.02228 0.39864 0.45893 0.0
H806 H 0.02466 0.42364 0.46924 0.0
C807 C 0.03612 0.50669 0.47497 0.0
C808 C 0.00952 0.46299 0.47811 0.0
H809 H 0.00873 0.43071 0.49852 0.0
C810 C 1.00408 0.45701 0.4584 0.0
C811 C 0.01101 0.45332 0.49287 0.0
C812 C 0.0173 0.45928 0.51407 0.0
C813 C 1.00065 0.44184 0.4528 0.0
C814 C 1.00246 0.43229 0.46743 0.0
C815 C 0.00733 0.43805 0.48736 0.0
C816 C 1.00059 0.4168 0.46192 0.0
C817 C 0.99598 0.43652 0.43096 0.0
C818 C 0.98621 0.40456 0.45466 0.0
C819 C 0.98486 0.39029 0.44862 0.0
C820 C 0.99783 0.38796 0.44992 0.0
C821 C 0.0121 0.4001 0.45768 0.0
C822 C 0.01345 0.41437 0.46363 0.0
H823 H 0.99839 0.44642 0.42068 0.0
H824 H 1.00232 0.43063 0.4251 0.0
H825 H 0.98322 0.42799 0.43025 0.0
H826 H 0.97604 0.40606 0.45357 0.0
H827 H 0.97367 0.38111 0.44285 0.0
H828 H 0.59418 0.58068 0.51994 0.0
H829 H 0.61928 0.60173 0.50773 0.0
H830 H 0.62379 0.56913 0.46817 0.0
H831 H 0.5985 0.54789 0.48032 0.0
H832 H 0.65162 0.58989 0.48978 0.0
H833 H 0.62556 0.62156 0.45085 0.0
H834 H 0.62001 0.61736 0.47718 0.0
H835 H 0.61396 0.60152 0.45916 0.0
C836 C 0.60043 0.57798 0.50852 0.0
C837 C 0.59425 0.56267 0.50083 0.0
C838 C 0.61478 0.59003 0.50159 0.0
C839 C 0.62319 0.58703 0.48674 0.0
C840 C 0.61738 0.57167 0.47953 0.0
H841 H 0.70004 0.66218 0.41957 0.0
H842 H 0.6759 0.63832 0.42888 0.0
C843 C 0.60299 0.55956 0.48653 0.0
C844 C 0.63803 0.60005 0.47878 0.0
H845 H 0.65333 0.63554 0.45534 0.0
C846 C 0.65201 0.59982 0.48209 0.0
C847 C 0.63844 0.61286 0.4685 0.0
C848 C 0.62368 0.61332 0.46351 0.0
C849 C 0.66652 0.61237 0.47598 0.0
C850 C 0.667 0.62554 0.46662 0.0
C851 C 0.65294 0.6255 0.46272 0.0
C852 C 0.68194 0.6396 0.46095 0.0
C853 C 0.68117 0.61138 0.47949 0.0
C854 C 0.69326 0.64829 0.47594 0.0
C855 C 0.70707 0.6619 0.47065 0.0
C856 C 0.70971 0.66712 0.45032 0.0
C857 C 0.69833 0.65844 0.43536 0.0
C858 C 0.68455 0.64481 0.44065 0.0
H859 H 0.67843 0.59905 0.48122 0.0
H860 H 0.68955 0.61678 0.4667 0.0
H861 H 0.687 0.61778 0.49377 0.0
H862 H 0.69131 0.64469 0.49178 0.0
H863 H 0.71561 0.66841 0.48252 0.0
H864 H 0.00902 0.56373 0.01513 0.0
H865 H 1.00283 0.58394 1.0053 0.0
H866 H 0.99805 0.56905 0.94239 0.0
H867 H 1.00427 0.54874 0.95202 0.0
H868 H 0.02329 0.60733 0.97493 0.0
H869 H 0.95997 0.57665 0.95353 0.0
H870 H 0.96806 0.56822 0.97088 0.0
H871 H 0.97173 0.56871 0.944 0.0
C872 C 0.00628 0.56445 0.99926 0.0
C873 C 0.00728 0.55469 0.98432 0.0
C874 C 1.00276 0.57604 0.99368 0.0
C875 C 0.99999 0.57796 0.97315 0.0
C876 C 1.0 0.56763 0.95835 0.0
H877 H 0.98993 0.65201 0.91367 0.0
H878 H 0.99088 0.62802 0.92067 0.0
C879 C 1.00359 0.55605 0.9639 0.0
C880 C 0.99905 0.59192 0.96702 0.0
H881 H 0.97437 0.60403 0.94851 0.0
C882 C 0.0126 0.60663 0.96917 0.0
C883 C 0.98516 0.59088 0.95923 0.0
C884 C 0.97032 0.5753 0.95681 0.0
C885 C 0.01262 0.62041 0.96384 0.0
C886 C 0.99858 0.61947 0.95667 0.0
C887 C 0.98509 0.60471 0.95411 0.0
C888 C 0.99763 0.63376 0.95242 0.0
C889 C 0.02776 0.63582 0.9657 0.0
C890 C 1.00087 0.64478 0.96802 0.0
C891 C 1.00047 0.65849 0.96403 0.0
C892 C 0.99662 0.66136 0.94441 0.0
C893 C 0.99302 0.65015 0.9289 0.0
C894 C 0.99351 0.63644 0.93289 0.0
H895 H 0.03813 0.63416 0.96529 0.0
H896 H 0.02885 0.64394 0.95325 0.0
H897 H 0.02798 0.64141 0.98054 0.0
H898 H 1.00371 0.64278 0.98332 0.0
H899 H 1.00312 0.66682 0.97636 0.0
H900 H 0.50597 0.51345 0.99175 0.0
H901 H 0.48527 0.487 0.98233 0.0
H902 H 0.50575 0.46735 0.02255 0.0
H903 H 0.52675 0.49368 0.03139 0.0
H904 H 0.49733 0.45128 0.98862 0.0
H905 H 0.44724 0.45786 0.01371 0.0
H906 H 0.45887 0.47194 0.99472 0.0
H907 H 0.46729 0.47237 0.01938 0.0
C908 C 0.50605 0.50349 0.99863 0.0
C909 C 0.51805 0.50576 0.0124 0.0
C910 C 0.49409 0.48832 0.99334 0.0
C911 C 0.49363 0.47502 1.00201 0.0
C912 C 0.5057 0.47731 0.01564 0.0
H913 H 0.41147 0.38105 1.00261 0.0
H914 H 0.43276 0.40748 0.01073 0.0
C915 C 0.51775 0.49244 0.02072 0.0
C916 C 0.48085 0.45873 0.99671 0.0
H917 H 0.44097 0.43478 0.99488 0.0
C918 C 0.48501 0.4477 0.99006 0.0
C919 C 0.4647 0.45382 0.99884 0.0
C920 C 0.45924 0.46456 0.00725 0.0
C921 C 0.47361 0.43209 0.98542 0.0
C922 C 0.45746 0.42734 0.98679 0.0
C923 C 0.4533 0.43834 0.99356 0.0
C924 C 0.44468 0.41097 0.98182 0.0
C925 C 0.4791 0.42075 0.97971 0.0
C926 C 0.44409 0.40395 0.96282 0.0
C927 C 0.43201 0.38868 0.95827 0.0
C928 C 0.42003 0.38015 0.97245 0.0
C929 C 0.42052 0.38724 0.99135 0.0
C930 C 0.4327 0.40242 0.99599 0.0
H931 H 0.49115 0.42474 0.98553 0.0
H932 H 0.47113 0.40888 0.98581 0.0
H933 H 0.47936 0.41994 0.96281 0.0
H934 H 0.45284 0.41035 0.95131 0.0
H935 H 0.43189 0.38367 0.94347 0.0
H936 H 0.56593 0.04982 0.98759 0.0
H937 H 0.58735 0.04723 0.97215 0.0
H938 H 0.62127 0.08871 1.0045 0.0
H939 H 0.60022 0.09153 0.01939 0.0
H940 H 0.62717 0.09021 0.96374 0.0
H941 H 0.61767 0.03389 0.99576 0.0
H942 H 0.60118 0.03335 0.98298 0.0
H943 H 0.60848 0.04425 0.00636 0.0
C944 C 0.57797 0.05822 0.99157 0.0
C945 C 0.5814 0.07096 1.00454 0.0
C946 C 0.59019 0.05671 0.98281 0.0
C947 C 0.60594 0.06778 0.98719 0.0
C948 C 0.60924 0.08009 1.00077 0.0
H949 H 0.69565 0.07506 0.97519 0.0
H950 H 0.66928 0.06924 0.98482 0.0
C951 C 0.59716 0.08169 0.00927 0.0
C952 C 0.61924 0.06749 0.97688 0.0
H953 H 0.6392 0.04742 0.9737 0.0
C954 C 0.62972 0.08078 0.96574 0.0
C955 C 0.6226 0.05522 0.97963 0.0
C956 C 0.61199 0.04089 0.99194 0.0
C957 C 0.64374 0.08245 0.95796 0.0
C958 C 0.6472 0.07024 0.9608 0.0
C959 C 0.63649 0.05671 0.97141 0.0
C960 C 0.66244 0.07194 0.95429 0.0
C961 C 0.65508 0.09766 0.94773 0.0
C962 C 0.66724 0.07495 0.9338 0.0
C963 C 0.68241 0.07851 0.92831 0.0
C964 C 0.69295 0.07885 0.94315 0.0
C965 C 0.68782 0.07495 0.96342 0.0
C966 C 0.67273 0.07157 0.96894 0.0
H967 H 0.6524 0.10712 0.95122 0.0
H968 H 0.66733 0.10165 0.95259 0.0
H969 H 0.65428 0.09591 0.93091 0.0
H970 H 0.65939 0.07494 0.92214 0.0
H971 H 0.68596 0.08129 0.91252 0.0
H972 H 0.55851 0.00616 0.56238 0.0
H973 H 0.58181 0.00475 0.57109 0.0
H974 H 0.61105 0.0525 0.55161 0.0
H975 H 0.5874 0.05407 0.54301 0.0
H976 H 0.60403 0.00733 0.54448 0.0
H977 H 0.6319 0.05229 0.6057 0.0
H978 H 0.61186 0.04493 0.59752 0.0
H979 H 0.62775 0.05895 0.58218 0.0
C980 C 0.56987 0.01651 0.56015 0.0
C981 C 0.57102 0.03024 0.55192 0.0
C982 C 0.58324 0.01565 0.56515 0.0
C983 C 0.5983 0.02848 0.5621 0.0
C984 C 0.5996 0.04247 0.55445 0.0
H985 H 0.68914 0.03226 0.58041 0.0
H986 H 0.66865 0.03861 0.57185 0.0
C987 C 0.58607 0.04338 0.54951 0.0
C988 C 0.6123 0.02652 0.56587 0.0
H989 H 0.64527 0.03907 0.59553 0.0
C990 C 0.61305 0.01433 0.55562 0.0
C991 C 0.62421 0.03565 0.58031 0.0
C992 C 0.62392 0.04862 0.59222 0.0
C993 C 0.62512 0.01091 0.55952 0.0
C994 C 0.63677 0.01971 0.5744 0.0
C995 C 0.63632 0.03221 0.58424 0.0
C996 C 0.6493 0.01592 0.58008 0.0
C997 C 0.62534 0.99794 0.54747 0.0
C998 C 0.64539 1.00111 0.58788 0.0
C999 C 0.65711 0.99743 0.59278 0.0
C1000 C 0.67307 0.00851 0.5901 0.0
C1001 C 0.67698 0.02341 0.58259 0.0
C1002 C 0.66525 0.02708 0.57773 0.0
H1003 H 0.61856 0.99545 0.53298 0.0
H1004 H 0.63753 1.00092 0.5438 0.0
H1005 H 0.61991 0.98707 0.55669 0.0
H1006 H 0.63322 0.99236 0.59026 0.0
H1007 H 0.65365 0.9859 0.59866 0.0
H1008 H 0.03761 0.59083 0.52701 0.0
H1009 H 0.04098 0.6169 0.5334 0.0
H1010 H 0.06575 0.6204 0.58944 0.0
H1011 H 0.0625 0.5945 0.58323 0.0
H1012 H 0.03377 0.63106 0.56859 0.0
H1013 H 0.09754 0.65769 0.55353 0.0
H1014 H 0.08348 0.63783 0.54624 0.0
H1015 H 0.08997 0.64243 0.57234 0.0
C1016 C 0.04347 0.597 0.54092 0.0
C1017 C 0.04993 0.59063 0.5545 0.0
C1018 C 0.04543 0.61192 0.5445 0.0
C1019 C 0.0539 0.6207 0.56167 0.0
C1020 C 0.05943 0.61394 0.5759 0.0
H1021 H 0.09135 0.71535 0.60703 0.0
H1022 H 0.08391 0.68798 0.60076 0.0
C1023 C 0.05749 0.59908 0.57236 0.0
C1024 C 0.05784 0.63725 0.5642 0.0
H1025 H 0.08889 0.67462 0.56621 0.0
C1026 C 0.04579 0.64062 0.56795 0.0
C1027 C 0.07354 0.64968 0.56331 0.0
C1028 C 0.0869 0.64681 0.55846 0.0
C1029 C 0.0491 0.65608 0.57146 0.0
C1030 C 0.06484 0.66849 0.57081 0.0
C1031 C 0.07684 0.6651 0.56679 0.0
C1032 C 0.06921 0.68508 0.57453 0.0
C1033 C 0.03577 0.65894 0.57643 0.0
C1034 C 0.06364 0.69265 0.56166 0.0
C1035 C 0.06789 0.70831 0.5652 0.0
C1036 C 0.07788 0.71672 0.58161 0.0
C1037 C 0.08364 0.70919 0.59428 0.0
C1038 C 0.07938 0.69354 0.59072 0.0
H1039 H 0.02513 0.64805 0.58136 0.0
H1040 H 0.0392 0.6679 0.5887 0.0
H1041 H 0.03266 0.66333 0.5626 0.0
H1042 H 0.05607 0.68648 0.5488 0.0
H1043 H 0.0633 0.71379 0.55513 0.0
H1044 H 0.49213 0.4815 0.59164 0.0
H1045 H 0.46463 0.46398 0.60055 0.0
H1046 H 0.44997 0.4766 0.54502 0.0
H1047 H 0.47733 0.49395 0.5359 0.0
H1048 H 0.43376 0.47725 0.58044 0.0
H1049 H 0.43486 0.42155 0.57269 0.0
H1050 H 0.44956 0.43606 0.5893 0.0
H1051 H 0.45004 0.43984 0.5624 0.0
C1052 C 0.48307 0.48043 0.58122 0.0
C1053 C 0.48696 0.48914 0.56305 0.0
C1054 C 0.46736 0.47044 0.58637 0.0
C1055 C 0.4553 0.46893 0.57336 0.0
C1056 C 0.45913 0.47765 0.55529 0.0
H1057 H 0.35845 0.39809 0.56384 0.0
H1058 H 0.38632 0.41676 0.55928 0.0
C1059 C 0.47479 0.48761 0.55014 0.0
C1060 C 0.43863 0.45827 0.57845 0.0
H1061 H 0.41123 0.41967 0.58399 0.0
C1062 C 0.42881 0.46466 0.58133 0.0
C1063 C 0.43225 0.44186 0.57939 0.0
C1064 C 0.44215 0.43434 0.57563 0.0
C1065 C 0.41271 0.45504 0.58502 0.0
C1066 C 0.40635 0.43864 0.58605 0.0
C1067 C 0.41619 0.43227 0.58331 0.0
C1068 C 0.38937 0.42778 0.58888 0.0
C1069 C 0.40255 0.46244 0.58715 0.0
C1070 C 0.38186 0.42782 0.60706 0.0
C1071 C 0.36588 0.41715 0.60971 0.0
C1072 C 0.35723 0.40626 0.59424 0.0
C1073 C 0.36479 0.40635 0.57602 0.0
C1074 C 0.38072 0.41698 0.5734 0.0
H1075 H 0.40862 0.47477 0.58182 0.0
H1076 H 0.39146 0.45571 0.57834 0.0
H1077 H 0.39949 0.46235 0.60347 0.0
H1078 H 0.38839 0.43592 0.6193 0.0
H1079 H 0.36037 0.4173 0.62395 0.0
H1080 H 0.68939 0.81659 0.35317 0.0
H1081 H 0.69822 0.79768 0.359 0.0
H1082 H 0.68757 0.79638 0.42306 0.0
H1083 H 0.67898 0.81541 0.41751 0.0
H1084 H 0.72308 0.80287 0.38589 0.0
H1085 H 0.66741 0.74975 0.40711 0.0
H1086 H 0.66792 0.76608 0.39391 0.0
H1087 H 0.67145 0.76714 0.421 0.0
C1088 C 0.68885 0.81224 0.36849 0.0
C1089 C 0.68352 0.81761 0.38487 0.0
C1090 C 0.69383 0.80138 0.37176 0.0
C1091 C 0.69341 0.79554 0.39141 0.0
C1092 C 0.6877 0.80051 0.40769 0.0
H1093 H 0.72564 0.73829 0.45017 0.0
H1094 H 0.71459 0.75496 0.44132 0.0
C1095 C 0.68276 0.8114 0.40446 0.0
C1096 C 0.70001 0.78516 0.39522 0.0
H1097 H 0.69098 0.74921 0.41343 0.0
C1098 C 0.71606 0.79108 0.39173 0.0
C1099 C 0.69081 0.76984 0.40294 0.0
C1100 C 0.67341 0.76273 0.40631 0.0
C1101 C 0.72327 0.78223 0.3963 0.0
C1102 C 0.71409 0.76693 0.40417 0.0
C1103 C 0.69799 0.76095 0.40743 0.0
C1104 C 0.721 0.75701 0.40941 0.0
C1105 C 0.74074 0.78953 0.39329 0.0
C1106 C 0.72818 0.75257 0.39436 0.0
C1107 C 0.73458 0.74313 0.39941 0.0
C1108 C 0.73378 0.73785 0.41954 0.0
C1109 C 0.72648 0.74222 0.43454 0.0
C1110 C 0.72013 0.7517 0.4295 0.0
H1111 H 0.7466 0.8025 0.3923 0.0
H1112 H 0.74619 0.78641 0.40598 0.0
H1113 H 0.74295 0.78509 0.3788 0.0
H1114 H 0.72868 0.75627 0.37868 0.0
H1115 H 0.74002 0.73984 0.38749 0.0
H1116 H 0.23121 0.96339 0.40919 0.0
H1117 H 0.25452 0.98791 0.41925 0.0
H1118 H 0.28329 0.97588 0.38254 0.0
H1119 H 0.25998 0.95145 0.37205 0.0
H1120 H 0.28194 0.99226 0.43954 0.0
H1121 H 0.29592 0.02036 0.36316 0.0
H1122 H 0.27709 1.00358 0.36894 0.0
H1123 H 0.29369 1.00112 0.364 0.0
C1124 C 0.24244 0.96599 0.40303 0.0
C1125 C 0.24362 0.95539 0.38967 0.0
C1126 C 0.2558 0.98001 0.40893 0.0
C1127 C 0.27067 0.98388 0.40147 0.0
C1128 C 0.27194 0.9733 0.38826 0.0
H1129 H 0.36416 0.06573 0.41832 0.0
H1130 H 0.34163 0.04053 0.40811 0.0
C1131 C 0.25858 0.95923 0.38243 0.0
C1132 C 0.28483 0.99885 0.40785 0.0
H1133 H 0.31421 0.03373 0.38972 0.0
C1134 C 0.28898 1.00135 0.42865 0.0
C1135 C 0.29408 0.0107 0.39365 0.0
C1136 C 0.28995 0.00894 0.3712 0.0
C1137 C 0.30219 0.01522 0.43561 0.0
C1138 C 0.31135 0.02718 0.42146 0.0
C1139 C 0.30724 0.02463 0.40062 0.0
C1140 C 0.32511 0.04247 0.42795 0.0
C1141 C 0.30641 0.01674 0.45802 0.0
C1142 C 0.32339 0.05213 0.44234 0.0
C1143 C 0.33629 0.0665 0.4483 0.0
C1144 C 0.35119 0.07167 0.43982 0.0
C1145 C 0.35287 0.0621 0.42521 0.0
C1146 C 0.33997 0.04768 0.41933 0.0
H1147 H 0.30138 0.0051 0.46545 0.0
H1148 H 0.31932 0.02309 0.46034 0.0
H1149 H 0.30156 0.0234 0.46584 0.0
H1150 H 0.31202 0.04864 0.44885 0.0
H1151 H 0.33454 0.07364 0.45943 0.0
H1152 H 0.16503 0.40865 0.39543 0.0
H1153 H 0.13733 0.39456 0.40383 0.0
H1154 H 0.13085 0.35542 0.36691 0.0
H1155 H 0.15894 0.3697 0.35817 0.0
H1156 H 0.10887 0.36493 0.35869 0.0
H1157 H 0.11249 0.35782 0.44186 0.0
H1158 H 0.12519 0.37771 0.43422 0.0
H1159 H 0.12869 0.36249 0.42494 0.0
C1160 C 0.15782 0.39696 0.38923 0.0
C1161 C 0.16424 0.3903 0.3761 0.0
C1162 C 0.14195 0.38886 0.39421 0.0
C1163 C 0.13201 0.37383 0.38629 0.0
C1164 C 0.13834 0.36697 0.37336 0.0
H1165 H 0.03457 0.3301 0.43026 0.0
H1166 H 0.06026 0.33352 0.42105 0.0
C1167 C 0.15438 0.3751 0.36843 0.0
C1168 C 0.1149 0.36606 0.39056 0.0
H1169 H 0.08905 0.3575 0.42974 0.0
C1170 C 0.10447 0.36299 0.3742 0.0
C1171 C 0.10907 0.3633 0.41077 0.0
C1172 C 0.11944 0.36535 0.42893 0.0
C1173 C 0.08859 0.35824 0.37759 0.0
C1174 C 0.08308 0.3568 0.39789 0.0
C1175 C 0.09328 0.35884 0.41418 0.0
C1176 C 0.06712 0.35413 0.40261 0.0
C1177 C 0.07795 0.35502 0.35936 0.0
C1178 C 0.06244 0.36465 0.39552 0.0
C1179 C 0.04779 0.3627 0.40072 0.0
C1180 C 0.03752 0.35027 0.41332 0.0
C1181 C 0.0422 0.33977 0.42049 0.0
C1182 C 0.05688 0.34171 0.41523 0.0
H1183 H 0.0822 0.35139 0.34584 0.0
H1184 H 0.06575 0.34573 0.36268 0.0
H1185 H 0.07783 0.36588 0.35527 0.0
H1186 H 0.07027 0.37459 0.38627 0.0
H1187 H 0.0446 0.37106 0.39506 0.0
H1188 H 0.18997 0.39241 0.83585 0.0
H1189 H 0.1755 0.40479 0.82158 0.0
H1190 H 0.13394 0.37135 0.85347 0.0
H1191 H 0.14814 0.35911 0.86752 0.0
H1192 H 0.14745 0.38869 0.79658 0.0
H1193 H 0.13612 0.41322 0.86636 0.0
H1194 H 0.1514 0.40815 0.86509 0.0
H1195 H 0.13137 0.39322 0.86934 0.0
C1196 C 0.17787 0.38801 0.84017 0.0
C1197 C 0.17021 0.37482 0.85285 0.0
C1198 C 0.16957 0.39499 0.83191 0.0
C1199 C 0.15363 0.38909 0.83659 0.0
C1200 C 0.14625 0.3763 0.84985 0.0
H1201 H 0.07044 0.39162 0.80492 0.0
H1202 H 0.09134 0.38764 0.81871 0.0
C1203 C 0.1544 0.36927 0.85783 0.0
C1204 C 0.14412 0.39528 0.82671 0.0
H1205 H 0.11891 0.4087 0.83782 0.0
C1206 C 0.14145 0.39337 0.80551 0.0
C1207 C 0.13617 0.40129 0.83835 0.0
C1208 C 0.13901 0.40424 0.86102 0.0
C1209 C 0.13044 0.39648 0.79586 0.0
C1210 C 0.12205 0.40193 0.80766 0.0
C1211 C 0.12521 0.40442 0.82874 0.0
C1212 C 0.10939 0.40436 0.79875 0.0
C1213 C 0.1273 0.39311 0.7733 0.0
C1214 C 0.11249 0.41515 0.78294 0.0
C1215 C 0.10048 0.4174 0.77493 0.0
C1216 C 0.08514 0.409 0.78267 0.0
C1217 C 0.08209 0.39826 0.79854 0.0
C1218 C 0.09407 0.396 0.80649 0.0
H1219 H 0.13191 0.38558 0.7675 0.0
H1220 H 0.11453 0.38724 0.76993 0.0
H1221 H 0.13315 0.4043 0.76478 0.0
H1222 H 0.12424 0.422 0.77695 0.0
H1223 H 0.10327 0.42586 0.76283 0.0
H1224 H 0.74539 0.84203 0.80686 0.0
H1225 H 0.73629 0.81545 0.79415 0.0
H1226 H 0.68877 0.80243 0.80962 0.0
H1227 H 0.69773 0.82885 0.82244 0.0
H1228 H 0.72097 0.78788 0.81632 0.0
H1229 H 0.68392 0.78619 0.7511 0.0
H1230 H 0.69803 0.80425 0.76341 0.0
H1231 H 0.67924 0.79195 0.77491 0.0
C1232 C 0.733 0.83354 0.80749 0.0
C1233 C 0.72231 0.83767 0.8156 0.0
C1234 C 0.7278 0.81836 0.80015 0.0
C1235 C 0.71181 0.807 0.80065 0.0
C1236 C 0.7011 0.81109 0.8086 0.0
H1237 H 0.65788 0.70687 0.77527 0.0
H1238 H 0.66664 0.73417 0.78461 0.0
C1239 C 0.70627 0.82626 0.81592 0.0
C1240 C 0.70645 0.79066 0.79394 0.0
H1241 H 0.68174 0.76191 0.7608 0.0
C1242 C 0.71249 0.78224 0.80407 0.0
C1243 C 0.69529 0.78328 0.77806 0.0
C1244 C 0.68883 0.79191 0.76609 0.0
C1245 C 0.70748 0.76657 0.79901 0.0
C1246 C 0.69633 0.75919 0.78312 0.0
C1247 C 0.69027 0.76759 0.77298 0.0
C1248 C 0.69092 0.74278 0.77675 0.0
C1249 C 0.71391 0.75794 0.81104 0.0
C1250 C 0.7016 0.73863 0.76884 0.0
C1251 C 0.69665 0.72309 0.76351 0.0
C1252 C 0.68088 0.71138 0.76588 0.0
C1253 C 0.67011 0.71562 0.77332 0.0
C1254 C 0.67509 0.7312 0.77865 0.0
H1255 H 0.7191 0.76383 0.82585 0.0
H1256 H 0.70459 0.7457 0.81409 0.0
H1257 H 0.72325 0.75755 0.80206 0.0
H1258 H 0.71381 0.74742 0.76687 0.0
H1259 H 0.70522 0.72023 0.75771 0.0
H1260 H 0.24344 0.88587 0.85638 0.0
H1261 H 0.27159 0.90061 0.84824 0.0
H1262 H 0.26518 0.93632 0.81934 0.0
H1263 H 0.23736 0.92189 0.82731 0.0
H1264 H 0.28766 0.91309 0.80792 0.0
H1265 H 0.29896 0.95892 0.86565 0.0
H1266 H 0.28175 0.93965 0.86618 0.0
H1267 H 0.28262 0.95429 0.84903 0.0
C1268 C 0.24803 0.89679 0.84813 0.0
C1269 C 0.2382 0.9028 0.84269 0.0
C1270 C 0.26408 0.90517 0.84351 0.0
C1271 C 0.27043 0.91964 0.83349 0.0
C1272 C 0.26052 0.92529 0.82737 0.0
H1273 H 0.35068 0.98262 0.76662 0.0
H1274 H 0.32604 0.96066 0.77867 0.0
C1275 C 0.2446 0.91699 0.83193 0.0
C1276 C 0.28747 0.92933 0.82983 0.0
H1277 H 0.31842 0.96569 0.83988 0.0
C1278 C 0.29452 0.92448 0.81513 0.0
C1279 C 0.29641 0.94406 0.8395 0.0
C1280 C 0.28962 0.94952 0.85612 0.0
C1281 C 0.31008 0.93444 0.80897 0.0
C1282 C 0.31864 0.94966 0.81756 0.0
C1283 C 0.31184 0.95408 0.83315 0.0
C1284 C 0.33418 0.96166 0.80975 0.0
C1285 C 0.31712 0.92864 0.79316 0.0
C1286 C 0.34692 0.96965 0.82323 0.0
C1287 C 0.36095 0.98235 0.81642 0.0
C1288 C 0.36247 0.98732 0.79602 0.0
C1289 C 0.34988 0.97902 0.7824 0.0
C1290 C 0.33583 0.96637 0.78924 0.0
H1291 H 0.31147 0.91566 0.79338 0.0
H1292 H 0.31519 0.93208 0.77775 0.0
H1293 H 0.32994 0.93375 0.79562 0.0
H1294 H 0.34587 0.9663 0.83915 0.0
H1295 H 0.37047 0.98852 0.82727 0.0
H1296 H 0.68599 0.91947 0.3358 0.0
H1297 H 0.6831 0.94056 0.32095 0.0
H1298 H 0.63557 0.90734 0.30303 0.0
H1299 H 0.63836 0.88609 0.31825 0.0
H1300 H 0.6768 0.94527 0.28199 0.0
H1301 H 0.62984 0.93966 0.33434 0.0
H1302 H 0.64081 0.92976 0.33889 0.0
H1303 H 0.6253 0.92225 0.32017 0.0
C1304 C 0.67496 0.91661 0.32854 0.0
C1305 C 0.66239 0.90112 0.32816 0.0
C1306 C 0.67331 0.92869 0.32012 0.0
C1307 C 0.65907 0.92556 0.3111 0.0
C1308 C 0.64655 0.91007 0.31032 0.0
H1309 H 0.63817 0.9957 0.26006 0.0
H1310 H 0.63717 0.97066 0.26641 0.0
C1311 C 0.64816 0.89795 0.31895 0.0
C1312 C 0.65754 0.9387 0.3027 0.0
H1313 H 0.63839 0.95931 0.30926 0.0
C1314 C 0.66831 0.94826 0.28784 0.0
C1315 C 0.64646 0.94258 0.31037 0.0
C1316 C 0.63502 0.93313 0.32694 0.0
C1317 C 0.66856 0.96182 0.28082 0.0
C1318 C 0.65777 0.96588 0.28887 0.0
C1319 C 0.6466 0.95605 0.30312 0.0
C1320 C 0.65873 0.98095 0.28398 0.0
C1321 C 0.68052 0.97189 0.26512 0.0
C1322 C 0.67117 0.99491 0.29181 0.0
C1323 C 0.67171 0.00915 0.28839 0.0
C1324 C 0.65983 0.00964 0.27698 0.0
C1325 C 0.64751 0.99565 0.26882 0.0
C1326 C 0.6469 0.98137 0.27245 0.0
H1327 H 0.68575 0.96556 0.25734 0.0
H1328 H 0.67514 0.97595 0.25344 0.0
H1329 H 0.6901 0.9824 0.27279 0.0
H1330 H 0.68031 0.99475 0.30094 0.0
H1331 H 0.68133 0.01974 0.29487 0.0
H1332 H 0.14706 0.85441 0.30677 0.0
H1333 H 0.12899 0.8276 0.29544 0.0
H1334 H 0.14369 0.80977 0.34588 0.0
H1335 H 0.16191 0.83657 0.35717 0.0
H1336 H 0.14206 0.79446 0.31094 0.0
H1337 H 0.08725 0.79678 0.31968 0.0
H1338 H 0.10119 0.81178 0.30324 0.0
H1339 H 0.10581 0.81176 0.32988 0.0
C1340 C 0.14633 0.8448 0.31561 0.0
C1341 C 0.15592 0.8477 0.33297 0.0
C1342 C 0.13595 0.82944 0.30911 0.0
C1343 C 0.13473 0.81658 0.31998 0.0
C1344 C 0.14437 0.81945 0.33723 0.0
H1345 H 0.05859 0.72025 0.3086 0.0
H1346 H 0.07723 0.747 0.31956 0.0
C1347 C 0.15483 0.83481 0.34365 0.0
C1348 C 0.12365 0.80018 0.31319 0.0
H1349 H 0.08505 0.77451 0.3024 0.0
C1350 C 0.12958 0.7901 0.30912 0.0
C1351 C 0.10731 0.79435 0.31108 0.0
C1352 C 0.09996 0.80417 0.31639 0.0
C1353 C 0.11972 0.77448 0.30281 0.0
C1354 C 0.10347 0.76881 0.30001 0.0
C1355 C 0.09751 0.77885 0.3043 0.0
C1356 C 0.09233 0.75241 0.29326 0.0
C1357 C 0.12678 0.7641 0.29971 0.0
C1358 C 0.09445 0.74647 0.27471 0.0
C1359 C 0.08383 0.73108 0.26847 0.0
C1360 C 0.07074 0.72137 0.28053 0.0
C1361 C 0.06855 0.7274 0.29896 0.0
C1362 C 0.0792 0.74272 0.30523 0.0
H1363 H 0.13815 0.76869 0.30796 0.0
H1364 H 0.11872 0.75199 0.30501 0.0
H1365 H 0.12902 0.76361 0.28319 0.0
H1366 H 0.10424 0.75379 0.26491 0.0
H1367 H 0.0858 0.72685 0.25412 0.0
H1368 H 0.24055 0.38859 0.34278 0.0
H1369 H 0.26385 0.38654 0.33418 0.0
H1370 H 0.28202 0.42891 0.29887 0.0
H1371 H 0.25901 0.43097 0.30724 0.0
H1372 H 0.28548 0.40449 0.27998 0.0
H1373 H 0.30749 0.41684 0.36032 0.0
H1374 H 0.28796 0.40075 0.35605 0.0
H1375 H 0.29217 0.4204 0.35137 0.0
C1376 C 0.2494 0.39727 0.33288 0.0
C1377 C 0.24799 0.40999 0.32579 0.0
C1378 C 0.26275 0.39618 0.32813 0.0
C1379 C 0.27478 0.40772 0.31612 0.0
C1380 C 0.27294 0.41991 0.30822 0.0
H1381 H 0.3685 0.44302 0.27273 0.0
H1382 H 0.34132 0.43604 0.27937 0.0
C1383 C 0.25976 0.42108 0.31306 0.0
C1384 C 0.28973 0.4078 0.31239 0.0
H1385 H 0.32405 0.41552 0.33566 0.0
C1386 C 0.29384 0.40671 0.29218 0.0
C1387 C 0.30064 0.41069 0.32832 0.0
C1388 C 0.29699 0.41235 0.35025 0.0
C1389 C 0.30868 0.40876 0.2874 0.0
C1390 C 0.31986 0.41237 0.30322 0.0
C1391 C 0.31552 0.41284 0.32353 0.0
C1392 C 0.33633 0.41641 0.29894 0.0
C1393 C 0.31223 0.40707 0.26543 0.0
C1394 C 0.34277 0.40801 0.30817 0.0
C1395 C 0.35838 0.41209 0.30453 0.0
C1396 C 0.3679 0.42471 0.29168 0.0
C1397 C 0.36146 0.43318 0.28259 0.0
C1398 C 0.34587 0.42911 0.28626 0.0
H1399 H 0.30132 0.39959 0.25658 0.0
H1400 H 0.31823 0.4188 0.25821 0.0
H1401 H 0.32001 0.40194 0.26433 0.0
H1402 H 0.33569 0.39825 0.31814 0.0
H1403 H 0.36299 0.40535 0.31182 0.0
H1404 H 0.22545 0.32703 0.90062 0.0
H1405 H 0.2498 0.32833 0.91086 0.0
H1406 H 0.27504 0.37794 0.899 0.0
H1407 H 0.2503 0.37676 0.88872 0.0
H1408 H 0.27588 0.33729 0.88652 0.0
H1409 H 0.29141 0.37488 0.95605 0.0
H1410 H 0.272 0.36558 0.94485 0.0
H1411 H 0.28775 0.38254 0.93306 0.0
C1412 C 0.2361 0.33832 0.90025 0.0
C1413 C 0.23583 0.35181 0.89374 0.0
C1414 C 0.25008 0.33901 0.90615 0.0
C1415 C 0.26432 0.3532 0.90582 0.0
C1416 C 0.26419 0.36685 0.89968 0.0
H1417 H 0.35771 0.36754 0.93793 0.0
H1418 H 0.33603 0.37151 0.92727 0.0
C1419 C 0.25005 0.36617 0.89374 0.0
C1420 C 0.27912 0.35319 0.91114 0.0
H1421 H 0.30851 0.3656 0.94689 0.0
C1422 C 0.28305 0.34356 0.89967 0.0
C1423 C 0.28856 0.3614 0.92824 0.0
C1424 C 0.28474 0.37162 0.94141 0.0
C1425 C 0.29593 0.34173 0.90494 0.0
C1426 C 0.30506 0.34949 0.92245 0.0
C1427 C 0.30146 0.35953 0.93357 0.0
C1428 C 0.3182 0.34711 0.92957 0.0
C1429 C 0.2997 0.33155 0.89156 0.0
C1430 C 0.31544 0.3321 0.93482 0.0
C1431 C 0.32783 0.32978 0.94091 0.0
C1432 C 0.34328 0.34244 0.94202 0.0
C1433 C 0.34597 0.35751 0.93718 0.0
C1434 C 0.33357 0.35982 0.93111 0.0
H1435 H 0.29467 0.33021 0.87595 0.0
H1436 H 0.31256 0.33647 0.89028 0.0
H1437 H 0.29456 0.31971 0.89839 0.0
H1438 H 0.30366 0.32213 0.93419 0.0
H1439 H 0.32532 0.31805 0.94463 0.0
H1440 H 0.75575 0.94649 0.90447 0.0
H1441 H 0.75576 0.97065 0.91295 0.0
H1442 H 0.73867 0.97152 0.85248 0.0
H1443 H 0.73875 0.9474 0.84374 0.0
H1444 H 0.77079 1.00069 0.89447 0.0
H1445 H 0.70586 0.97249 0.89051 0.0
H1446 H 0.71588 0.96136 0.89153 0.0
H1447 H 0.71483 0.97012 0.86795 0.0
C1448 C 0.75223 0.95191 0.89281 0.0
C1449 C 0.74711 0.94487 0.87343 0.0
C1450 C 0.75216 0.9657 0.89776 0.0
C1451 C 0.74693 0.9727 0.88349 0.0
C1452 C 0.74241 0.9661 0.86388 0.0
H1453 H 0.73188 0.05218 0.88549 0.0
H1454 H 0.73389 0.02909 0.87672 0.0
C1455 C 0.74248 0.95231 0.85891 0.0
C1456 C 0.7459 0.98675 0.88927 0.0
H1457 H 0.72 1.0 0.89523 0.0
C1458 C 0.75969 1.00055 0.89471 0.0
C1459 C 0.73139 0.9865 0.88961 0.0
C1460 C 0.71611 0.9718 0.88477 0.0
C1461 C 0.75941 0.01424 0.90007 0.0
C1462 C 0.7449 0.014 0.90035 0.0
C1463 C 0.73111 1.00016 0.89498 0.0
C1464 C 0.74375 0.02803 0.90589 0.0
C1465 C 0.77469 0.02894 0.90487 0.0
C1466 C 0.7484 0.03497 0.92533 0.0
C1467 C 0.74728 0.04819 0.93039 0.0
C1468 C 0.74138 0.05464 0.91613 0.0
C1469 C 0.73649 0.04751 0.8968 0.0
C1470 C 0.73764 0.03431 0.89176 0.0
H1471 H 0.78492 0.02829 0.89893 0.0
H1472 H 0.77486 0.0394 0.89828 0.0
H1473 H 0.77606 0.03053 0.92169 0.0
H1474 H 0.75283 0.03011 0.93663 0.0
H1475 H 0.75106 0.05338 0.94543 0.0
H1476 H 0.16776 0.83996 0.93382 0.0
H1477 H 0.14315 0.81637 0.94232 0.0
H1478 H 0.13695 0.8017 0.87919 0.0
H1479 H 0.16156 0.82519 0.87052 0.0
H1480 H 0.11456 0.81051 0.9247 0.0
H1481 H 0.12519 0.76105 0.91028 0.0
H1482 H 0.14094 0.78093 0.91409 0.0
H1483 H 0.13103 0.77494 0.88981 0.0
C1484 C 0.16138 0.83154 0.9218 0.0
C1485 C 0.16661 0.83453 0.90146 0.0
C1486 C 0.14729 0.81807 0.9267 0.0
C1487 C 0.13826 0.80725 0.91142 0.0
C1488 C 0.14385 0.80977 0.89129 0.0
H1489 H 0.04404 0.72984 0.89768 0.0
H1490 H 0.0716 0.75001 0.89406 0.0
C1491 C 0.15791 0.82326 0.88635 0.0
C1492 C 0.12225 0.79433 0.91603 0.0
H1493 H 0.09852 0.75461 0.91401 0.0
C1494 C 0.11108 0.79826 0.92261 0.0
C1495 C 0.11774 0.77841 0.91308 0.0
C1496 C 0.12937 0.77351 0.90659 0.0
C1497 C 0.0954 0.78674 0.92578 0.0
C1498 C 0.09083 0.77079 0.92273 0.0
C1499 C 0.10205 0.76683 0.91638 0.0
C1500 C 0.07434 0.75812 0.92538 0.0
C1501 C 0.08374 0.7918 0.93158 0.0
C1502 C 0.06681 0.75579 0.9443 0.0
C1503 C 0.05102 0.74435 0.94637 0.0
C1504 C 0.04255 0.73491 0.92961 0.0
C1505 C 0.05024 0.73696 0.91085 0.0
C1506 C 0.066 0.74845 0.90877 0.0
H1507 H 0.08823 0.80438 0.92821 0.0
H1508 H 0.07243 0.78473 0.92334 0.0
H1509 H 0.08145 0.79009 0.94823 0.0
H1510 H 0.07312 0.7629 0.95743 0.0
H1511 H 0.04544 0.74295 0.96106 0.0
H1512 H 0.37884 0.16747 0.71962 0.0
H1513 H 0.38348 0.14555 0.72404 0.0
H1514 H 0.33985 0.12008 0.75649 0.0
H1515 H 0.33494 0.1419 0.75189 0.0
H1516 H 0.36585 0.12149 0.77677 0.0
H1517 H 0.36195 0.10217 0.69614 0.0
H1518 H 0.37496 0.12276 0.70021 0.0
H1519 H 0.3543 0.11452 0.70455 0.0
C1520 C 0.37004 0.15713 0.72735 0.0
C1521 C 0.35648 0.1565 0.73538 0.0
C1522 C 0.37274 0.14459 0.72987 0.0
C1523 C 0.36192 0.13114 0.74038 0.0
C1524 C 0.34832 0.13037 0.74828 0.0
H1525 H 0.36535 0.04456 0.75181 0.0
H1526 H 0.3571 0.06387 0.74503 0.0
C1527 C 0.34558 0.14289 0.74573 0.0
C1528 C 0.36527 0.11827 0.74415 0.0
H1529 H 0.37264 0.09179 0.72018 0.0
C1530 C 0.36722 0.11491 0.76442 0.0
C1531 C 0.36691 0.10963 0.728 0.0
C1532 C 0.36429 0.11232 0.70599 0.0
C1533 C 0.37121 0.10341 0.76896 0.0
C1534 C 0.37344 0.0952 0.75277 0.0
C1535 C 0.37105 0.09823 0.73253 0.0
C1536 C 0.37851 0.08358 0.75661 0.0
C1537 C 0.37298 0.10012 0.79102 0.0
C1538 C 0.39335 0.08835 0.76508 0.0
C1539 C 0.39811 0.07739 0.7689 0.0
C1540 C 0.38809 0.06146 0.76429 0.0
C1541 C 0.37329 0.05674 0.75558 0.0
C1542 C 0.36857 0.06774 0.75167 0.0
H1543 H 0.36729 0.10464 0.80153 0.0
H1544 H 0.36785 0.08735 0.79358 0.0
H1545 H 0.38564 0.10595 0.79502 0.0
H1546 H 0.40127 0.10057 0.7687 0.0
H1547 H 0.4096 0.08138 0.77555 0.0
H1548 H 0.90514 0.24931 0.74341 0.0
H1549 H 0.92801 0.27504 0.74971 0.0
H1550 H 0.94344 0.27613 0.68789 0.0
H1551 H 0.92044 0.25018 0.68138 0.0
H1552 H 0.96826 0.28769 0.71869 0.0
H1553 H 0.93138 0.31545 0.72594 0.0
H1554 H 0.92552 0.29872 0.74207 0.0
H1555 H 0.92415 0.29626 0.71476 0.0
C1556 C 0.91344 0.25488 0.73114 0.0
C1557 C 0.91081 0.24761 0.71181 0.0
C1558 C 0.92651 0.2697 0.73477 0.0
C1559 C 0.93733 0.27773 0.71919 0.0
C1560 C 0.93521 0.27023 0.70014 0.0
H1561 H 0.02235 0.37111 0.71702 0.0
H1562 H 1.0014 0.34458 0.70839 0.0
C1563 C 0.92207 0.25535 0.69646 0.0
C1564 C 0.95049 0.29409 0.72278 0.0
H1565 H 0.95813 0.33097 0.73556 0.0
C1566 C 0.96607 0.29719 0.72222 0.0
C1567 C 0.94768 0.30653 0.72743 0.0
C1568 C 0.9313 0.30417 0.72743 0.0
C1569 C 0.97881 0.31221 0.72682 0.0
C1570 C 0.97598 0.32463 0.73169 0.0
C1571 C 0.96039 0.32153 0.73194 0.0
C1572 C 0.9889 0.34086 0.73686 0.0
C1573 C 0.99515 0.31447 0.72711 0.0
C1574 C 0.98876 0.34795 0.75549 0.0
C1575 C 1.00066 0.36322 0.76037 0.0
C1576 C 0.01301 0.37184 0.7467 0.0
C1577 C 0.01309 0.36479 0.72797 0.0
C1578 C 1.00115 0.34953 0.72308 0.0
H1579 H 0.99497 0.30315 0.72875 0.0
H1580 H 1.00104 0.31982 0.71249 0.0
H1581 H 1.00225 0.32237 0.7398 0.0
H1582 H 0.97944 0.34162 0.76638 0.0
H1583 H 1.00019 0.36825 0.7749 0.0
H1584 H 0.83211 0.69149 0.68025 0.0
H1585 H 0.80342 0.67754 0.68499 0.0
H1586 H 0.80916 0.70654 0.73742 0.0
H1587 H 0.83748 0.72041 0.73285 0.0
H1588 H 0.78261 0.66227 0.72369 0.0
H1589 H 0.78235 0.71448 0.69234 0.0
H1590 H 0.79814 0.71051 0.68775 0.0
H1591 H 0.79684 0.71856 0.71185 0.0
C1592 C 0.82724 0.69461 0.69304 0.0
C1593 C 0.83705 0.70716 0.70604 0.0
C1594 C 0.81087 0.68667 0.6957 0.0
C1595 C 0.80419 0.69117 0.71141 0.0
C1596 C 0.81406 0.703 0.72509 0.0
H1597 H 0.71439 0.65986 0.7672 0.0
H1598 H 0.74044 0.66449 0.75782 0.0
C1599 C 0.83027 0.71092 0.72242 0.0
C1600 C 0.78698 0.68467 0.7128 0.0
H1601 H 0.75931 0.69584 0.70937 0.0
C1602 C 0.77742 0.66948 0.72031 0.0
C1603 C 0.78023 0.69406 0.7082 0.0
C1604 C 0.78985 0.71027 0.69942 0.0
C1605 C 0.76135 0.66366 0.72408 0.0
C1606 C 0.75479 0.67341 0.72053 0.0
C1607 C 0.76429 0.68836 0.71224 0.0
C1608 C 0.73829 0.66872 0.72582 0.0
C1609 C 0.75158 0.64716 0.73182 0.0
C1610 C 0.72837 0.66963 0.71106 0.0
C1611 C 0.71357 0.6672 0.71645 0.0
C1612 C 0.70834 0.6638 0.73675 0.0
C1613 C 0.71804 0.66236 0.75141 0.0
C1614 C 0.73291 0.66489 0.74602 0.0
H1615 H 0.75678 0.6398 0.72756 0.0
H1616 H 0.75108 0.64741 0.74875 0.0
H1617 H 0.73941 0.64158 0.72572 0.0
H1618 H 0.73225 0.67263 0.69541 0.0
H1619 H 0.70639 0.66839 0.70479 0.0
H1620 H 0.85138 0.74355 0.14667 0.0
H1621 H 0.83672 0.75712 0.13794 0.0
H1622 H 0.79682 0.7224 0.17129 0.0
H1623 H 0.81119 0.70897 0.17989 0.0
H1624 H 0.80706 0.74297 0.11581 0.0
H1625 H 0.80127 0.76386 0.19211 0.0
H1626 H 0.81596 0.75849 0.18656 0.0
H1627 H 0.7961 0.74362 0.19189 0.0
C1628 C 0.83963 0.73908 0.15252 0.0
C1629 C 0.83248 0.72522 0.16403 0.0
C1630 C 0.83121 0.74676 0.1474 0.0
C1631 C 0.81567 0.74087 0.15411 0.0
C1632 C 0.80883 0.72735 0.16618 0.0
H1633 H 0.73287 0.74835 0.14078 0.0
H1634 H 0.75392 0.74298 0.14965 0.0
C1635 C 0.81708 0.71964 0.17102 0.0
C1636 C 0.80597 0.74795 0.14759 0.0
H1637 H 0.78276 0.76176 0.16656 0.0
C1638 C 0.80197 0.74738 0.12684 0.0
C1639 C 0.7992 0.75358 0.16197 0.0
C1640 C 0.80346 0.75508 0.18436 0.0
C1641 C 0.79082 0.75148 0.12024 0.0
C1642 C 0.78365 0.75663 0.13473 0.0
C1643 C 0.78812 0.75775 0.15539 0.0
C1644 C 0.77094 0.76013 0.12906 0.0
C1645 C 0.78622 0.74947 0.09794 0.0
C1646 C 0.77341 0.7717 0.11462 0.0
C1647 C 0.7613 0.77476 0.10943 0.0
C1648 C 0.74648 0.76641 0.11869 0.0
C1649 C 0.74411 0.75499 0.1333 0.0
C1650 C 0.75617 0.75192 0.13843 0.0
H1651 H 0.78984 0.74187 0.08983 0.0
H1652 H 0.77334 0.74432 0.0961 0.0
H1653 H 0.79206 0.7611 0.09044 0.0
H1654 H 0.78475 0.77849 0.10747 0.0
H1655 H 0.76358 0.78371 0.09822 0.0
H1656 H 0.37614 0.17394 0.15389 0.0
H1657 H 0.36496 0.1463 0.14442 0.0
H1658 H 0.40076 0.14394 0.17985 0.0
H1659 H 0.41177 0.17137 0.18977 0.0
H1660 H 0.37896 0.13046 0.12446 0.0
H1661 H 0.35947 0.10812 0.20294 0.0
H1662 H 0.36497 0.12784 0.19553 0.0
H1663 H 0.37982 0.12279 0.20105 0.0
C1664 C 0.38162 0.16754 0.15973 0.0
C1665 C 0.39482 0.17493 0.17272 0.0
C1666 C 0.37525 0.15175 0.15421 0.0
C1667 C 0.38186 0.14298 0.1617 0.0
C1668 C 0.3953 0.15041 0.17417 0.0
H1669 H 0.36145 0.04683 0.15353 0.0
H1670 H 0.37196 0.07468 0.16092 0.0
C1671 C 0.4017 0.16618 0.17963 0.0
C1672 C 0.37469 0.12604 0.15664 0.0
H1673 H 0.35769 0.08968 0.17817 0.0
C1674 C 0.37422 0.12152 0.13616 0.0
C1675 C 0.36849 0.11439 0.17194 0.0
C1676 C 0.36805 0.11846 0.19408 0.0
C1677 C 0.36814 0.1057 0.13064 0.0
C1678 C 0.36206 0.09405 0.14597 0.0
C1679 C 0.36238 0.09859 0.16642 0.0
C1680 C 0.35557 0.07711 0.14124 0.0
C1681 C 0.36875 0.10168 0.10851 0.0
C1682 C 0.34271 0.06911 0.12792 0.0
C1683 C 0.3367 0.05317 0.1236 0.0
C1684 C 0.34335 0.04488 0.13269 0.0
C1685 C 0.35607 0.05286 0.14626 0.0
C1686 C 0.36209 0.06879 0.15051 0.0
H1687 H 0.37738 0.11205 0.09975 0.0
H1688 H 0.37186 0.09232 0.10711 0.0
H1689 H 0.35704 0.09738 0.10139 0.0
H1690 H 0.33723 0.07515 0.12095 0.0
H1691 H 0.32683 0.04733 0.11318 0.0
H1692 H 0.90224 0.23055 0.15032 0.0
H1693 H 0.93004 0.24189 0.1407 0.0
H1694 H 0.94195 0.28213 0.17887 0.0
H1695 H 0.91445 0.27108 0.1881 0.0
H1696 H 0.94598 0.27271 0.12117 0.0
H1697 H 0.97701 0.27127 0.19114 0.0
H1698 H 0.95636 0.25783 0.18668 0.0
H1699 H 0.96287 0.27737 0.19584 0.0
C1700 C 0.91093 0.24159 0.15704 0.0
C1701 C 0.90632 0.25002 0.16986 0.0
C1702 C 0.92673 0.24806 0.15153 0.0
C1703 C 0.93803 0.26276 0.15927 0.0
C1704 C 0.93347 0.27066 0.17301 0.0
H1705 H 0.02351 0.34497 0.14798 0.0
H1706 H 0.99885 0.32164 0.15692 0.0
C1707 C 0.91776 0.26439 0.17817 0.0
C1708 C 0.95416 0.27114 0.15112 0.0
H1709 H 0.99226 0.29183 0.16708 0.0
C1710 C 0.9562 0.27657 0.13095 0.0
C1711 C 0.96738 0.27618 0.16402 0.0
C1712 C 0.96584 0.27025 0.18559 0.0
C1713 C 0.97099 0.28797 0.12385 0.0
C1714 C 0.98409 0.29376 0.1372 0.0
C1715 C 0.98219 0.28746 0.15691 0.0
C1716 C 0.99942 0.30751 0.13189 0.0
C1717 C 0.97221 0.29456 0.10269 0.0
C1718 C 0.00801 0.30728 0.11494 0.0
C1719 C 0.02204 0.3207 0.10965 0.0
C1720 C 0.02779 0.33448 0.12139 0.0
C1721 C 0.01935 0.33454 0.13861 0.0
C1722 C 1.00529 0.3212 0.14378 0.0
H1723 H 0.96051 0.29099 0.09594 0.0
H1724 H 0.97919 0.30755 0.10301 0.0
H1725 H 0.97822 0.29022 0.09251 0.0
H1726 H 1.00385 0.29676 0.10579 0.0
H1727 H 0.0284 0.32028 0.09641 0.0
H1728 H 0.35532 0.2557 0.67971 0.0
H1729 H 0.3498 0.27399 0.6614 0.0
H1730 H 0.30338 0.23631 0.64655 0.0
H1731 H 0.30879 0.21795 0.66521 0.0
H1732 H 0.34195 0.27522 0.62182 0.0
H1733 H 0.29386 0.26761 0.67341 0.0
H1734 H 0.30669 0.26001 0.67947 0.0
H1735 H 0.29091 0.24992 0.66142 0.0
C1736 C 0.34399 0.25127 0.67239 0.0
C1737 C 0.33245 0.2354 0.67398 0.0
C1738 C 0.34083 0.26174 0.66197 0.0
C1739 C 0.32609 0.25657 0.65289 0.0
C1740 C 0.3147 0.24063 0.65388 0.0
H1741 H 0.29395 0.31629 0.59471 0.0
H1742 H 0.29611 0.29309 0.60293 0.0
C1743 C 0.3178 0.23015 0.66449 0.0
C1744 C 0.32273 0.26804 0.64276 0.0
H1745 H 0.29986 0.28505 0.64595 0.0
C1746 C 0.33267 0.27728 0.62699 0.0
C1747 C 0.31059 0.27071 0.64952 0.0
C1748 C 0.29997 0.26165 0.66699 0.0
C1749 C 0.33103 0.28935 0.61815 0.0
C1750 C 0.31919 0.29226 0.62529 0.0
C1751 C 0.30886 0.28267 0.64047 0.0
C1752 C 0.31834 0.30617 0.61878 0.0
C1753 C 0.34215 0.29913 0.6015 0.0
C1754 C 0.33011 0.32109 0.625 0.0
C1755 C 0.32884 0.33425 0.62054 0.0
C1756 C 0.31579 0.33273 0.60968 0.0
C1757 C 0.30416 0.31779 0.60301 0.0
C1758 C 0.30537 0.30457 0.6077 0.0
H1759 H 0.34804 0.29319 0.59439 0.0
H1760 H 0.33586 0.3018 0.58944 0.0
H1761 H 0.35133 0.31041 0.60815 0.0
H1762 H 0.3401 0.32251 0.63381 0.0
H1763 H 0.33797 0.34561 0.62588 0.0
H1764 H 0.85609 0.16419 0.62454 0.0
H1765 H 0.83565 0.13686 0.61947 0.0
H1766 H 0.8211 0.13465 0.68197 0.0
H1767 H 0.84161 0.16205 0.68725 0.0
H1768 H 0.82866 0.10803 0.64193 0.0
H1769 H 0.78099 0.12273 0.64627 0.0
H1770 H 0.80118 0.13738 0.64178 0.0
H1771 H 0.795 0.1296 0.66695 0.0
C1772 C 0.84871 0.15786 0.63734 0.0
C1773 C 0.85054 0.16541 0.65632 0.0
C1774 C 0.83699 0.1422 0.63438 0.0
C1775 C 0.82666 0.13371 0.65022 0.0
C1776 C 0.8288 0.14099 0.66942 0.0
H1777 H 0.73933 0.04323 0.65013 0.0
H1778 H 0.76182 0.06876 0.65912 0.0
C1779 C 0.84063 0.15665 0.67247 0.0
C1780 C 0.81334 0.11749 0.64633 0.0
H1781 H 0.77338 0.09619 0.64156 0.0
C1782 C 0.81656 0.10542 0.64189 0.0
C1783 C 0.79754 0.11403 0.6463 0.0
C1784 C 0.79336 0.12658 0.65043 0.0
C1785 C 0.80444 0.08999 0.63769 0.0
C1786 C 0.7886 0.08657 0.63724 0.0
C1787 C 0.78543 0.09868 0.64184 0.0
C1788 C 0.77515 0.07061 0.63198 0.0
C1789 C 0.80878 0.07747 0.63429 0.0
C1790 C 0.77492 0.06297 0.61365 0.0
C1791 C 0.76211 0.04823 0.60859 0.0
C1792 C 0.74904 0.04084 0.62156 0.0
C1793 C 0.7492 0.04853 0.6398 0.0
C1794 C 0.76208 0.06319 0.64495 0.0
H1795 H 0.82021 0.08066 0.6416 0.0
H1796 H 0.7997 0.06602 0.64044 0.0
H1797 H 0.80992 0.07612 0.61765 0.0
H1798 H 0.78455 0.06853 0.603 0.0
H1799 H 0.76232 0.04275 0.59432 0.0
H1800 H 0.91303 0.711 0.65938 0.0
H1801 H 0.93648 0.71038 0.64744 0.0
H1802 H 0.96121 0.76063 0.64166 0.0
H1803 H 0.93818 0.76141 0.65334 0.0
H1804 H 0.95674 0.72564 0.60863 0.0
H1805 H 0.98706 0.74856 0.68312 0.0
H1806 H 0.96597 0.73875 0.68037 0.0
H1807 H 0.97779 0.75878 0.67256 0.0
C1808 C 0.92342 0.72187 0.65533 0.0
C1809 C 0.92375 0.73625 0.65752 0.0
C1810 C 0.93678 0.7215 0.64853 0.0
C1811 C 0.95061 0.7355 0.64391 0.0
C1812 C 0.95072 0.74973 0.64536 0.0
H1813 H 0.03883 0.7644 0.58404 0.0
H1814 H 0.0121 0.75781 0.59331 0.0
C1815 C 0.93749 0.75011 0.65206 0.0
C1816 C 0.96532 0.73567 0.6384 0.0
H1817 H 1.0029 0.74954 0.65521 0.0
C1818 C 0.96679 0.73065 0.61887 0.0
C1819 C 0.97838 0.74214 0.65184 0.0
C1820 C 0.97727 0.74727 0.67323 0.0
C1821 C 0.9812 0.73247 0.61216 0.0
C1822 C 0.99449 0.7397 0.62526 0.0
C1823 C 0.99278 0.74414 0.64508 0.0
C1824 C 0.01035 0.74302 0.61877 0.0
C1825 C 0.98206 0.72665 0.59114 0.0
C1826 C 0.01841 0.73719 0.6302 0.0
C1827 C 0.03371 0.74106 0.62506 0.0
C1828 C 0.04135 0.75094 0.60842 0.0
C1829 C 0.03325 0.75672 0.59689 0.0
C1830 C 0.01792 0.75284 0.60207 0.0
H1831 H 0.9703 0.71756 0.58556 0.0
H1832 H 0.98668 0.73658 0.58027 0.0
H1833 H 0.99003 0.7217 0.59102 0.0
H1834 H 0.01288 0.72968 0.64321 0.0
H1835 H 0.03961 0.7364 0.63425 0.0
H1836 H 0.89614 0.68048 0.17274 0.0
H1837 H 0.91875 0.67967 0.18643 0.0
H1838 H 0.92935 0.71892 0.22582 0.0
H1839 H 0.90656 0.71998 0.2117 0.0
H1840 H 0.95635 0.72038 0.20903 0.0
H1841 H 0.91851 0.66194 0.24245 0.0
H1842 H 0.91483 0.66219 0.21563 0.0
H1843 H 0.91078 0.67394 0.23297 0.0
C1844 C 0.90329 0.68905 0.18425 0.0
C1845 C 0.89939 0.70018 0.19131 0.0
C1846 C 0.91621 0.6885 0.19216 0.0
C1847 C 0.92553 0.6989 0.20764 0.0
C1848 C 0.92222 0.71062 0.21406 0.0
H1849 H 0.98858 0.6754 0.27564 0.0
H1850 H 0.96798 0.6815 0.26667 0.0
C1851 C 0.90924 0.71127 0.20594 0.0
C1852 C 0.93843 0.69709 0.21709 0.0
H1853 H 0.94569 0.66978 0.23893 0.0
C1854 C 0.95401 0.70938 0.21579 0.0
C1855 C 0.93545 0.68286 0.22632 0.0
C1856 C 0.91897 0.66955 0.22964 0.0
C1857 C 0.96666 0.70758 0.22257 0.0
C1858 C 0.96373 0.69294 0.23046 0.0
C1859 C 0.94808 0.68093 0.23261 0.0
C1860 C 0.97661 0.68968 0.23617 0.0
C1861 C 0.98304 0.72145 0.22131 0.0
C1862 C 0.98827 0.69195 0.222 0.0
C1863 C 1.0001 0.68855 0.22716 0.0
C1864 C 1.00047 0.68254 0.24652 0.0
C1865 C 0.98866 0.67999 0.26059 0.0
C1866 C 0.97687 0.68352 0.25547 0.0
H1867 H 0.98292 0.73266 0.22172 0.0
H1868 H 0.99056 0.72147 0.23402 0.0
H1869 H 0.98838 0.72095 0.20662 0.0
H1870 H 0.98813 0.69618 0.20679 0.0
H1871 H 0.00894 0.69055 0.21589 0.0
H1872 H 0.39458 0.27663 0.21415 0.0
H1873 H 0.3956 0.3012 0.22214 0.0
H1874 H 0.44246 0.31981 0.24617 0.0
H1875 H 0.4419 0.29545 0.23734 0.0
H1876 H 0.39866 0.31456 0.2591 0.0
H1877 H 0.44795 0.35519 0.20979 0.0
H1878 H 0.43853 0.33419 0.20705 0.0
H1879 H 0.45291 0.34408 0.22687 0.0
C1880 C 0.40528 0.28595 0.22072 0.0
C1881 C 0.41819 0.28388 0.22498 0.0
C1882 C 0.40577 0.30004 0.22545 0.0
C1883 C 0.41916 0.31246 0.23455 0.0
C1884 C 0.4321 0.31053 0.23878 0.0
H1885 H 0.43793 0.40286 0.28354 0.0
H1886 H 0.43891 0.37912 0.27483 0.0
C1887 C 0.43167 0.29646 0.23393 0.0
C1888 C 0.41919 0.3271 0.2404 0.0
H1889 H 0.4385 0.36679 0.23356 0.0
C1890 C 0.40734 0.32596 0.25344 0.0
C1891 C 0.43054 0.34202 0.23307 0.0
C1892 C 0.44312 0.34398 0.21827 0.0
C1893 C 0.40659 0.33928 0.25942 0.0
C1894 C 0.41791 0.35415 0.25207 0.0
C1895 C 0.42986 0.35536 0.23921 0.0
C1896 C 0.41734 0.36853 0.25727 0.0
C1897 C 0.39379 0.33738 0.27375 0.0
C1898 C 0.40496 0.37051 0.25011 0.0
C1899 C 0.40441 0.38406 0.25497 0.0
C1900 C 0.41621 0.3959 0.26713 0.0
C1901 C 0.42863 0.39392 0.27422 0.0
C1902 C 0.42923 0.3804 0.26922 0.0
H1903 H 0.38816 0.32583 0.28149 0.0
H1904 H 0.3985 0.34677 0.28557 0.0
H1905 H 0.38462 0.33831 0.26494 0.0
H1906 H 0.39577 0.36158 0.24065 0.0
H1907 H 0.39472 0.38526 0.24922 0.0
H1908 H 0.83273 0.18386 0.21924 0.0
H1909 H 0.8112 0.16041 0.23508 0.0
H1910 H 0.77765 0.17086 0.2072 0.0
H1911 H 0.79891 0.19433 0.19201 0.0
H1912 H 0.77177 0.16434 0.24703 0.0
H1913 H 0.78054 0.11869 0.20913 0.0
H1914 H 0.79714 0.13342 0.22313 0.0
H1915 H 0.79033 0.13878 0.20071 0.0
C1916 C 0.82074 0.18104 0.21641 0.0
C1917 C 0.8175 0.19095 0.20445 0.0
C1918 C 0.80846 0.16763 0.22539 0.0
C1919 C 0.7928 0.16381 0.2222 0.0
C1920 C 0.78963 0.17359 0.20996 0.0
H1921 H 0.70409 0.08129 0.22823 0.0
H1922 H 0.73033 0.10279 0.22062 0.0
C1923 C 0.80182 0.18701 0.20126 0.0
C1924 C 0.77951 0.14998 0.2319 0.0
H1925 H 0.75947 0.11 0.23207 0.0
C1926 C 0.76913 0.15244 0.24392 0.0
C1927 C 0.7761 0.13449 0.22774 0.0
C1928 C 0.78652 0.1311 0.21435 0.0
C1929 C 0.75508 0.13988 0.25112 0.0
C1930 C 0.75154 0.12437 0.24677 0.0
C1931 C 0.76224 0.1219 0.23546 0.0
C1932 C 0.73614 0.11065 0.25202 0.0
C1933 C 0.74378 0.14341 0.26229 0.0
C1934 C 0.73077 0.10771 0.27228 0.0
C1935 C 0.71563 0.09555 0.27663 0.0
C1936 C 0.70576 0.08597 0.26083 0.0
C1937 C 0.71142 0.08852 0.24072 0.0
C1938 C 0.72644 0.10077 0.23636 0.0
H1939 H 0.7466 0.15573 0.26008 0.0
H1940 H 0.73153 0.13554 0.25705 0.0
H1941 H 0.74443 0.14158 0.27891 0.0
H1942 H 0.73819 0.11494 0.28468 0.0
H1943 H 0.71162 0.09373 0.29231 0.0
H1944 H 0.04976 0.50471 0.96435 0.0
H1945 H 0.04914 0.48787 0.93626 0.0
H1946 H 0.05316 0.52248 0.89274 0.0
H1947 H 0.05429 0.53948 0.92075 0.0
H1948 H 0.02978 0.47382 0.90577 0.0
H1949 H 0.08721 0.51556 0.87243 0.0
H1950 H 0.08098 0.51901 0.89681 0.0
H1951 H 0.07444 0.52362 0.87341 0.0
C1952 C 0.05057 0.50874 0.94879 0.0
C1953 C 0.05228 0.52355 0.94484 0.0
C1954 C 0.05022 0.4991 0.9327 0.0
C1955 C 0.05146 0.50398 0.91225 0.0
C1956 C 0.05274 0.5186 0.90831 0.0
H1957 H 0.02468 0.43974 0.80693 0.0
H1958 H 0.02502 0.45614 0.83539 0.0
C1959 C 0.05333 0.52833 0.92438 0.0
C1960 C 0.05111 0.49367 0.89511 0.0
H1961 H 0.0705 0.49326 0.85202 0.0
C1962 C 0.03875 0.47807 0.89409 0.0
C1963 C 0.06291 0.49901 0.87994 0.0
C1964 C 0.07721 0.51516 0.8808 0.0
C1965 C 0.03775 0.46781 0.87833 0.0
C1966 C 0.04916 0.47339 0.86262 0.0
C1967 C 0.06161 0.48893 0.86381 0.0
C1968 C 0.04874 0.46328 0.84516 0.0
C1969 C 0.0247 0.45098 0.87908 0.0
C1970 C 0.0621 0.46215 0.84051 0.0
C1971 C 0.06204 0.45308 0.82393 0.0
C1972 C 0.04857 0.44477 0.81163 0.0
C1973 C 0.03519 0.44586 0.81623 0.0
C1974 C 0.03534 0.45516 0.83265 0.0
H1975 H 0.02024 0.44746 0.89488 0.0
H1976 H 0.01477 0.44957 0.86942 0.0
H1977 H 0.02863 0.4429 0.87331 0.0
H1978 H 0.07262 0.46828 0.84977 0.0
H1979 H 0.07254 0.4525 0.82083 0.0
H1980 H 0.5891 0.59404 0.96631 0.0
H1981 H 0.60687 0.60736 0.93772 0.0
H1982 H 0.56899 0.58131 0.89509 0.0
H1983 H 0.55127 0.56802 0.92342 0.0
H1984 H 0.61577 0.59601 0.90399 0.0
H1985 H 0.58419 0.62649 0.87867 0.0
H1986 H 0.58077 0.61699 0.90317 0.0
H1987 H 0.57168 0.60567 0.88045 0.0
C1988 C 0.5846 0.59106 0.95084 0.0
C1989 C 0.56868 0.58009 0.9472 0.0
C1990 C 0.59475 0.59873 0.93452 0.0
C1991 C 0.58919 0.5956 0.91426 0.0
C1992 C 0.57347 0.58425 0.91059 0.0
H1993 H 0.62349 0.62392 0.79202 0.0
H1994 H 0.60903 0.61137 0.82315 0.0
C1995 C 0.56333 0.57665 0.92684 0.0
C1996 C 0.59967 0.60417 0.89688 0.0
H1997 H 0.60297 0.62674 0.85554 0.0
C1998 C 0.61308 0.60286 0.8935 0.0
C1999 C 0.5962 0.61318 0.88324 0.0
C2000 C 0.58252 0.61582 0.88664 0.0
C2001 C 0.62273 0.60982 0.87642 0.0
C2002 C 0.61897 0.61845 0.86249 0.0
C2003 C 0.60578 0.62003 0.86614 0.0
C2004 C 0.62827 0.6256 0.84371 0.0
C2005 C 0.63658 0.60747 0.87301 0.0
C2006 C 0.64393 0.63779 0.84489 0.0
C2007 C 0.65225 0.64503 0.82707 0.0
C2008 C 0.64503 0.64022 0.80775 0.0
C2009 C 0.62941 0.62789 0.80664 0.0
C2010 C 0.62111 0.62071 0.82443 0.0
H2011 H 0.63599 0.59791 0.88265 0.0
H2012 H 0.63727 0.60469 0.85672 0.0
H2013 H 0.64754 0.61844 0.87696 0.0
H2014 H 0.64961 0.64194 0.85961 0.0
H2015 H 0.66423 0.65455 0.82844 0.0
H2016 H 0.49648 0.06695 0.97826 0.0
H2017 H 0.4795 0.06031 0.94817 0.0
H2018 H 0.5181 0.09551 0.91341 0.0
H2019 H 0.53523 0.10219 0.94351 0.0
H2020 H 0.48919 0.09478 0.90678 0.0
H2021 H 0.48302 0.03584 0.8993 0.0
H2022 H 0.47796 0.03977 0.9241 0.0
H2023 H 0.49783 0.05104 0.91527 0.0
C2024 C 0.50137 0.07327 0.96421 0.0
C2025 C 0.51725 0.08495 0.96319 0.0
C2026 C 0.49166 0.06947 0.94705 0.0
C2027 C 0.49765 0.0772 0.92849 0.0
C2028 C 0.5133 0.08935 0.92759 0.0
H2029 H 0.4515 0.0415 0.81091 0.0
H2030 H 0.47041 0.0517 0.8392 0.0
C2031 C 0.52304 0.0932 0.94482 0.0
C2032 C 0.48762 0.0723 0.90994 0.0
H2033 H 0.4661 0.04088 0.87865 0.0
C2034 C 0.48419 0.08303 0.90053 0.0
C2035 C 0.48135 0.05704 0.90166 0.0
C2036 C 0.48532 0.04528 0.91046 0.0
C2037 C 0.47426 0.07875 0.88335 0.0
C2038 C 0.46744 0.06327 0.87563 0.0
C2039 C 0.47123 0.05269 0.88472 0.0
C2040 C 0.45623 0.05771 0.85824 0.0
C2041 C 0.47127 0.09086 0.87351 0.0
C2042 C 0.44193 0.05758 0.85966 0.0
C2043 C 0.43112 0.05178 0.84353 0.0
C2044 C 0.43438 0.04589 0.82576 0.0
C2045 C 0.44867 0.04597 0.82441 0.0
C2046 C 0.45949 0.0518 0.84053 0.0
H2047 H 0.48057 0.10296 0.87754 0.0
H2048 H 0.47061 0.08959 0.85661 0.0
H2049 H 0.45991 0.08928 0.87899 0.0
H2050 H 0.43903 0.06176 0.87338 0.0
H2051 H 0.42016 0.0518 0.84504 0.0
H2052 H 0.4876 0.99151 0.6031 0.0
H2053 H 0.47253 0.99209 0.63247 0.0
H2054 H 0.48025 0.03732 0.61374 0.0
H2055 H 0.49519 0.03679 0.58437 0.0
H2056 H 0.48665 0.03573 0.65525 0.0
H2057 H 0.42819 0.98647 0.63239 0.0
H2058 H 0.44381 0.982 0.63276 0.0
H2059 H 0.44424 0.9959 0.61466 0.0
C2060 C 0.48593 1.00149 0.60511 0.0
C2061 C 0.49264 0.01412 0.59141 0.0
C2062 C 0.47731 1.0018 0.62188 0.0
C2063 C 0.47514 0.01468 0.62514 0.0
C2064 C 0.4818 0.02728 0.6115 0.0
H2065 H 0.43054 0.04497 0.71325 0.0
H2066 H 0.44483 0.04215 0.68457 0.0
C2067 C 0.49042 0.02699 0.59477 0.0
C2068 C 0.46635 0.01533 0.64307 0.0
H2069 H 0.43012 0.99772 0.66503 0.0
C2070 C 0.47429 0.02743 0.6574 0.0
C2071 C 0.45025 0.00444 0.64583 0.0
C2072 C 0.44104 0.99153 0.63054 0.0
C2073 C 0.46656 0.02893 0.67448 0.0
C2074 C 0.4504 0.01818 0.67709 0.0
C2075 C 0.44251 0.00594 0.66294 0.0
C2076 C 0.44144 0.01968 0.69422 0.0
C2077 C 0.47579 0.04189 0.68972 0.0
C2078 C 0.43444 0.00777 0.70881 0.0
C2079 C 0.4262 0.00931 0.72518 0.0
C2080 C 0.42475 0.02275 0.72711 0.0
C2081 C 0.43152 0.03452 0.71223 0.0
C2082 C 0.43976 0.03297 0.6959 0.0
H2083 H 0.4886 0.04643 0.68844 0.0
H2084 H 0.47362 0.05175 0.68677 0.0
H2085 H 0.4721 0.0378 0.7056 0.0
H2086 H 0.43553 0.99738 0.70769 0.0
H2087 H 0.42106 1.00004 0.73638 0.0
H2088 H 0.09055 0.53083 0.57473 0.0
H2089 H 0.08739 0.51297 0.60256 0.0
H2090 H 0.04105 0.50554 0.61411 0.0
H2091 H 0.04409 0.52329 0.58623 0.0
H2092 H 0.08282 0.51447 0.64296 0.0
H2093 H 0.03195 0.46097 0.61121 0.0
H2094 H 0.04317 0.47836 0.59616 0.0
H2095 H 0.02842 0.4771 0.61349 0.0
C2096 C 0.07968 0.52543 0.58316 0.0
C2097 C 0.06755 0.52851 0.57803 0.0
C2098 C 0.07786 0.51514 0.59909 0.0
C2099 C 0.06386 0.5076 0.61032 0.0
C2100 C 0.0518 0.51079 0.60539 0.0
H2101 H 0.03216 0.44588 0.71642 0.0
H2102 H 0.03517 0.46318 0.68783 0.0
C2103 C 0.05358 0.52102 0.58939 0.0
C2104 C 0.06211 0.49682 0.62752 0.0
H2105 H 0.03883 0.45969 0.64578 0.0
C2106 C 0.07325 0.50246 0.64347 0.0
C2107 C 0.04962 0.48111 0.62834 0.0
C2108 C 0.03769 0.47395 0.6113 0.0
C2109 C 0.07209 0.49301 0.66027 0.0
C2110 C 0.05956 0.47735 0.66113 0.0
C2111 C 0.04842 0.47169 0.6452 0.0
C2112 C 0.05777 0.46669 0.67846 0.0
C2113 C 0.08411 0.50002 0.67723 0.0
C2114 C 0.06934 0.46265 0.68266 0.0
C2115 C 0.06762 0.45271 0.699 0.0
C2116 C 0.05427 0.44653 0.71153 0.0
C2117 C 0.04261 0.45044 0.70715 0.0
C2118 C 0.04431 0.46034 0.69077 0.0
H2119 H 0.09051 0.51303 0.67686 0.0
H2120 H 0.07851 0.49613 0.69242 0.0
H2121 H 0.09283 0.49608 0.67548 0.0
H2122 H 0.07969 0.46713 0.6732 0.0
H2123 H 0.07679 0.4499 0.70185 0.0
H2124 H 0.54229 0.5752 0.57795 0.0
H2125 H 0.55599 0.59575 0.6042 0.0
H2126 H 0.59657 0.59008 0.59898 0.0
H2127 H 0.58309 0.56974 0.57326 0.0
H2128 H 0.56804 0.59045 0.6423 0.0
H2129 H 0.61511 0.63813 0.59745 0.0
H2130 H 0.59727 0.62284 0.58587 0.0
H2131 H 0.6131 0.61934 0.59201 0.0
C2132 C 0.55424 0.57861 0.58219 0.0
C2133 C 0.56161 0.57084 0.57366 0.0
C2134 C 0.56202 0.59027 0.59718 0.0
C2135 C 0.57737 0.59455 0.60337 0.0
C2136 C 0.58485 0.58717 0.59424 0.0
H2137 H 0.63297 0.62103 0.70968 0.0
H2138 H 0.61447 0.60881 0.68137 0.0
C2139 C 0.57707 0.57545 0.57963 0.0
C2140 C 0.58535 0.6056 0.62061 0.0
H2141 H 0.62034 0.63773 0.63351 0.0
C2142 C 0.5793 0.601 0.64036 0.0
C2143 C 0.59999 0.61942 0.61809 0.0
C2144 C 0.60669 0.62533 0.59718 0.0
C2145 C 0.58802 0.60925 0.65772 0.0
C2146 C 0.60323 0.62232 0.65524 0.0
C2147 C 0.60877 0.62759 0.63544 0.0
C2148 C 0.61405 0.62982 0.67288 0.0
C2149 C 0.58106 0.60362 0.67859 0.0
C2150 C 0.62026 0.64581 0.67728 0.0
C2151 C 0.63091 0.65286 0.69351 0.0
C2152 C 0.63567 0.64408 0.70543 0.0
C2153 C 0.6295 0.62811 0.70086 0.0
C2154 C 0.61883 0.62108 0.68475 0.0
H2155 H 0.56804 0.59689 0.6779 0.0
H2156 H 0.58514 0.59575 0.6847 0.0
H2157 H 0.58478 0.61358 0.68941 0.0
H2158 H 0.61686 0.65281 0.66819 0.0
H2159 H 0.63549 0.6652 0.69662 0.0
H2160 H 0.06619 0.57443 0.1003 0.0
H2161 H 0.06343 0.58915 0.12855 0.0
H2162 H 0.03732 0.60313 0.08923 0.0
H2163 H 0.0397 0.58803 0.06107 0.0
H2164 H 0.07319 0.61882 0.13447 0.0
H2165 H 0.00835 0.58766 0.13668 0.0
H2166 H 0.01898 0.5808 0.12146 0.0
H2167 H 0.01577 0.59619 0.11218 0.0
C2168 C 0.05988 0.58065 0.09763 0.0
C2169 C 0.05311 0.57996 0.07838 0.0
C2170 C 0.05826 0.58906 0.11386 0.0
C2171 C 0.04989 0.59708 0.1113 0.0
C2172 C 0.0434 0.59669 0.09193 0.0
H2173 H 0.05922 0.67047 0.19638 0.0
H2174 H 0.06141 0.65579 0.16757 0.0
C2175 C 0.04485 0.5881 0.07575 0.0
C2176 C 0.04829 0.60608 0.12877 0.0
H2177 H 0.02163 0.61103 0.15654 0.0
C2178 C 0.06189 0.61705 0.13931 0.0
C2179 C 0.03356 0.60368 0.13547 0.0
C2180 C 0.01833 0.59133 0.126 0.0
C2181 C 0.06121 0.62571 0.15606 0.0
C2182 C 0.04654 0.62381 0.16219 0.0
C2183 C 0.03292 0.61271 0.1518 0.0
C2184 C 0.04499 0.63291 0.17956 0.0
C2185 C 0.07623 0.63648 0.16736 0.0
C2186 C 0.03456 0.62511 0.19567 0.0
C2187 C 0.03305 0.63354 0.21199 0.0
C2188 C 0.04199 0.64999 0.21268 0.0
C2189 C 0.05229 0.65781 0.19647 0.0
C2190 C 0.05365 0.64939 0.18002 0.0
H2191 H 0.08522 0.63294 0.16508 0.0
H2192 H 0.08109 0.64855 0.16141 0.0
H2193 H 0.07419 0.63664 0.18401 0.0
H2194 H 0.02767 0.61244 0.19575 0.0
H2195 H 0.02499 0.62713 0.22419 0.0
H2196 H 0.50099 0.52022 0.07773 0.0
H2197 H 0.48205 0.50666 0.105 0.0
H2198 H 0.51959 0.52562 0.14945 0.0
H2199 H 0.53844 0.53966 0.12255 0.0
H2200 H 0.48023 0.48429 0.13131 0.0
H2201 H 0.48865 0.53591 0.17554 0.0
H2202 H 0.49599 0.53746 0.14991 0.0
H2203 H 0.50676 0.5361 0.17137 0.0
C2204 C 0.50521 0.52175 0.09333 0.0
C2205 C 0.52131 0.53112 0.09786 0.0
C2206 C 0.49435 0.51388 0.10891 0.0
C2207 C 0.49934 0.51531 0.12935 0.0
C2208 C 0.51538 0.5246 0.13389 0.0
H2209 H 0.46295 0.47312 0.24586 0.0
H2210 H 0.47836 0.48778 0.21625 0.0
C2211 C 0.52621 0.53247 0.11838 0.0
C2212 C 0.48795 0.5066 0.14589 0.0
H2213 H 0.47553 0.51123 0.19278 0.0
C2214 C 0.47904 0.49019 0.14462 0.0
C2215 C 0.48635 0.5143 0.16326 0.0
C2216 C 0.49483 0.53192 0.16504 0.0
C2217 C 0.4691 0.48125 0.16061 0.0
C2218 C 0.46792 0.48894 0.17824 0.0
C2219 C 0.47652 0.50535 0.1793 0.0
C2220 C 0.45833 0.48013 0.19612 0.0
C2221 C 0.46036 0.46363 0.15887 0.0
C2222 C 0.44191 0.47112 0.1947 0.0
C2223 C 0.43304 0.46277 0.21166 0.0
C2224 C 0.44045 0.46327 0.23031 0.0
C2225 C 0.45688 0.47245 0.2317 0.0
C2226 C 0.46571 0.48085 0.21481 0.0
H2227 H 0.46472 0.45945 0.14605 0.0
H2228 H 0.46143 0.45829 0.17329 0.0
H2229 H 0.44773 0.45942 0.15617 0.0
H2230 H 0.43596 0.47058 0.1805 0.0
H2231 H 0.42041 0.45583 0.21012 0.0
H2232 H 0.57935 0.06958 0.08077 0.0
H2233 H 0.59255 0.06604 0.11015 0.0
H2234 H 0.58602 0.09975 0.14447 0.0
H2235 H 0.57241 0.10317 0.11513 0.0
H2236 H 0.6177 0.10308 0.1458 0.0
H2237 H 0.56961 0.04315 0.16388 0.0
H2238 H 0.57552 0.04623 0.13755 0.0
H2239 H 0.56661 0.05665 0.14847 0.0
C2240 C 0.58051 0.07612 0.0946 0.0
C2241 C 0.57459 0.08649 0.09567 0.0
C2242 C 0.58813 0.07413 0.11135 0.0
C2243 C 0.59001 0.08245 0.12952 0.0
C2244 C 0.58457 0.09316 0.13056 0.0
H2245 H 0.6378 0.08248 0.24284 0.0
H2246 H 0.62431 0.08884 0.21625 0.0
C2247 C 0.57687 0.09514 0.11377 0.0
C2248 C 0.5977 0.07985 0.14733 0.0
H2249 H 0.59407 0.05159 0.1805 0.0
C2250 C 0.61251 0.09191 0.15359 0.0
C2251 C 0.59084 0.06524 0.15734 0.0
C2252 C 0.57471 0.05209 0.15163 0.0
C2253 C 0.62095 0.08951 0.16916 0.0
C2254 C 0.61421 0.07476 0.1789 0.0
C2255 C 0.59923 0.06285 0.17294 0.0
C2256 C 0.62264 0.07123 0.19493 0.0
C2257 C 0.63722 0.10255 0.17449 0.0
C2258 C 0.62588 0.05901 0.19191 0.0
C2259 C 0.63344 0.05526 0.20712 0.0
C2260 C 0.63786 0.06365 0.22565 0.0
C2261 C 0.63461 0.07588 0.22866 0.0
C2262 C 0.62699 0.07959 0.21345 0.0
H2263 H 0.6421 0.11162 0.16239 0.0
H2264 H 0.63677 0.10829 0.18888 0.0
H2265 H 0.64535 0.09793 0.17691 0.0
H2266 H 0.62255 0.05237 0.17775 0.0
H2267 H 0.63577 0.04577 0.20438 0.0
H2268 H 0.57267 0.03855 0.47506 0.0
H2269 H 0.58972 0.04341 0.44584 0.0
H2270 H 0.54922 0.01807 0.40678 0.0
H2271 H 0.532 0.0138 0.43578 0.0
H2272 H 0.59272 0.02315 0.42097 0.0
H2273 H 0.57395 0.0586 0.37579 0.0
H2274 H 0.56875 0.05383 0.40227 0.0
H2275 H 0.55805 0.03966 0.38253 0.0
C2276 C 0.56732 0.03421 0.46024 0.0
C2277 C 0.5509 0.02596 0.4578 0.0
C2278 C 0.57712 0.03689 0.44355 0.0
C2279 C 0.57075 0.03138 0.42406 0.0
C2280 C 0.55439 0.02277 0.4216 0.0
H2281 H 0.60987 0.02979 0.30693 0.0
H2282 H 0.59312 0.02601 0.33637 0.0
C2283 C 0.54455 0.02016 0.43828 0.0
C2284 C 0.58131 0.03443 0.40643 0.0
H2285 H 0.59049 0.05092 0.35901 0.0
C2286 C 0.5923 0.0293 0.40748 0.0
C2287 C 0.58078 0.04254 0.38888 0.0
C2288 C 0.56986 0.04912 0.38732 0.0
C2289 C 0.60257 0.03179 0.39127 0.0
C2290 C 0.60186 0.03967 0.37365 0.0
C2291 C 0.59094 0.04486 0.37259 0.0
C2292 C 0.61211 0.04228 0.35591 0.0
C2293 C 0.61389 0.02571 0.39286 0.0
C2294 C 0.62829 0.05284 0.35716 0.0
C2295 C 0.63791 0.0551 0.34032 0.0
C2296 C 0.63144 0.04678 0.32204 0.0
C2297 C 0.6152 0.03633 0.32083 0.0
C2298 C 0.60561 0.03416 0.3376 0.0
H2299 H 0.61122 0.01766 0.40601 0.0
H2300 H 0.61366 0.01944 0.37861 0.0
H2301 H 0.62598 0.03572 0.3949 0.0
H2302 H 0.63347 0.05932 0.37115 0.0
H2303 H 0.65038 0.06324 0.34165 0.0
H2304 H 0.0373 0.57708 0.45288 0.0
H2305 H 0.03253 0.58971 0.4238 0.0
H2306 H 0.08219 0.61623 0.4123 0.0
H2307 H 0.08713 0.60383 0.44144 0.0
H2308 H 0.0432 0.6214 0.41606 0.0
H2309 H 0.06442 0.59644 0.35647 0.0
H2310 H 0.06019 0.58894 0.3822 0.0
H2311 H 0.07834 0.60646 0.37665 0.0
C2312 C 0.04727 0.58566 0.44433 0.0
C2313 C 0.06264 0.58928 0.44964 0.0
C2314 C 0.04449 0.59284 0.42757 0.0
C2315 C 0.05696 0.60375 0.41556 0.0
C2316 C 0.07231 0.60759 0.42097 0.0
H2317 H 0.06775 0.66107 0.30938 0.0
H2318 H 0.07101 0.64761 0.33875 0.0
C2319 C 0.07512 0.60044 0.43773 0.0
C2320 C 0.05395 0.61128 0.39758 0.0
H2321 H 0.05927 0.61649 0.34593 0.0
C2322 C 0.04662 0.62024 0.40071 0.0
C2323 C 0.05839 0.6098 0.37749 0.0
C2324 C 0.06564 0.59977 0.37289 0.0
C2325 C 0.04403 0.62809 0.38447 0.0
C2326 C 0.04859 0.62671 0.36438 0.0
C2327 C 0.05578 0.61762 0.36126 0.0
C2328 C 0.04638 0.63488 0.34648 0.0
C2329 C 0.0369 0.63821 0.38912 0.0
C2330 C 0.0314 0.63214 0.34072 0.0
C2331 C 0.02951 0.63989 0.32389 0.0
C2332 C 0.04253 0.65048 0.31231 0.0
C2333 C 0.05746 0.65303 0.31794 0.0
C2334 C 0.05934 0.64531 0.33476 0.0
H2335 H 0.03797 0.64138 0.4056 0.0
H2336 H 0.04254 0.64915 0.38003 0.0
H2337 H 0.02423 0.63168 0.38514 0.0
H2338 H 0.02114 0.62389 0.34915 0.0
H2339 H 0.01783 0.63757 0.31992 0.0
H2340 H 0.49927 0.53477 0.48209 0.0
H2341 H 0.48229 0.52669 0.45139 0.0
H2342 H 0.50295 0.49941 0.43094 0.0
H2343 H 0.51969 0.50728 0.46115 0.0
H2344 H 0.49948 0.51882 0.39988 0.0
H2345 H 0.44484 0.4802 0.44294 0.0
H2346 H 0.45694 0.50019 0.45133 0.0
H2347 H 0.46405 0.48668 0.45374 0.0
C2348 C 0.50026 0.52719 0.4709 0.0
C2349 C 0.51074 0.52157 0.47413 0.0
C2350 C 0.49053 0.52253 0.45346 0.0
C2351 C 0.49129 0.51234 0.43899 0.0
C2352 C 0.50214 0.50724 0.44191 0.0
H2353 H 0.43617 0.4441 0.35014 0.0
H2354 H 0.45049 0.45993 0.37996 0.0
C2355 C 0.51167 0.51173 0.45927 0.0
C2356 C 0.48059 0.50632 0.42101 0.0
H2357 H 0.44338 0.47854 0.40712 0.0
C2358 C 0.48712 0.51026 0.40139 0.0
C2359 C 0.46455 0.49499 0.4231 0.0
C2360 C 0.45708 0.49013 0.44386 0.0
C2361 C 0.47819 0.50275 0.38384 0.0
C2362 C 0.46225 0.49107 0.38597 0.0
C2363 C 0.45558 0.48753 0.40554 0.0
C2364 C 0.45276 0.48149 0.36826 0.0
C2365 C 0.48608 0.50677 0.36326 0.0
C2366 C 0.44906 0.48829 0.3519 0.0
C2367 C 0.44087 0.47926 0.33481 0.0
C2368 C 0.43621 0.46325 0.33379 0.0
C2369 C 0.43962 0.4564 0.35042 0.0
C2370 C 0.44777 0.46543 0.3675 0.0
H2371 H 0.49904 0.51406 0.36464 0.0
H2372 H 0.48319 0.49595 0.35458 0.0
H2373 H 0.48176 0.51341 0.35428 0.0
H2374 H 0.45262 0.50062 0.35228 0.0
H2375 H 0.43836 0.48486 0.32228 0.0
H2376 H 0.73101 0.85651 0.31713 0.0
H2377 H 0.73132 0.84491 0.28412 0.0
H2378 H 0.69519 0.8537 0.26162 0.0
H2379 H 0.69501 0.86556 0.29444 0.0
H2380 H 0.70837 0.81925 0.26544 0.0
H2381 H 0.72553 0.87006 0.21466 0.0
H2382 H 0.72714 0.87197 0.24213 0.0
H2383 H 0.70853 0.86538 0.22966 0.0
C2384 C 0.72331 0.85624 0.30508 0.0
C2385 C 0.71307 0.86214 0.30857 0.0
C2386 C 0.72344 0.8495 0.28615 0.0
C2387 C 0.71341 0.84852 0.27009 0.0
C2388 C 0.70332 0.85457 0.27345 0.0
H2389 H 0.68609 0.78275 0.16644 0.0
H2390 H 0.68699 0.79651 0.19814 0.0
C2391 C 0.70319 0.86134 0.29237 0.0
C2392 C 0.71301 0.8405 0.25029 0.0
H2393 H 0.71625 0.84532 0.19831 0.0
C2394 C 0.71015 0.82501 0.25079 0.0
C2395 C 0.7155 0.84794 0.23103 0.0
C2396 C 0.7195 0.8648 0.22928 0.0
C2397 C 0.70947 0.81676 0.23277 0.0
C2398 C 0.71142 0.82401 0.21347 0.0
C2399 C 0.71455 0.8396 0.21298 0.0
C2400 C 0.71059 0.81577 0.19371 0.0
C2401 C 0.70701 0.80042 0.23468 0.0
C2402 C 0.7233 0.82215 0.18008 0.0
C2403 C 0.72274 0.81434 0.1618 0.0
C2404 C 0.70942 0.79996 0.15655 0.0
C2405 C 0.69658 0.79374 0.16999 0.0
C2406 C 0.69713 0.80156 0.18826 0.0
H2407 H 0.71015 0.79828 0.25021 0.0
H2408 H 0.69445 0.79179 0.23192 0.0
H2409 H 0.71409 0.7983 0.2233 0.0
H2410 H 0.7338 0.8331 0.18375 0.0
H2411 H 0.73285 0.81952 0.15186 0.0
H2412 H 0.21564 0.90565 0.28808 0.0
H2413 H 0.2338 0.91602 0.25959 0.0
H2414 H 0.27176 0.92241 0.29911 0.0
H2415 H 0.2534 0.91187 0.32803 0.0
H2416 H 0.27747 0.9496 0.27671 0.0
H2417 H 0.25628 0.89825 0.22527 0.0
H2418 H 0.24069 0.90112 0.23436 0.0
H2419 H 0.25171 0.89645 0.2522 0.0
C2420 C 0.2278 0.90895 0.29068 0.0
C2421 C 0.23309 0.90792 0.3103 0.0
C2422 C 0.23816 0.91481 0.27431 0.0
C2423 C 0.25412 0.91985 0.27711 0.0
C2424 C 0.25945 0.91845 0.29657 0.0
H2425 H 0.31504 0.95639 0.16913 0.0
H2426 H 0.30269 0.94171 0.20034 0.0
C2427 C 0.24896 0.91236 0.31303 0.0
C2428 C 0.26518 0.92786 0.26002 0.0
H2429 H 0.27089 0.92358 0.20945 0.0
C2430 C 0.27625 0.94385 0.26211 0.0
C2431 C 0.26368 0.92036 0.24099 0.0
C2432 C 0.25255 0.90306 0.23808 0.0
C2433 C 0.28522 0.9527 0.2454 0.0
C2434 C 0.28292 0.94542 0.22601 0.0
C2435 C 0.27251 0.92924 0.22422 0.0
C2436 C 0.29066 0.95449 0.20727 0.0
C2437 C 0.29692 0.96983 0.24859 0.0
C2438 C 0.28782 0.96641 0.20058 0.0
C2439 C 0.29481 0.97477 0.18274 0.0
C2440 C 0.30475 0.97135 0.17114 0.0
C2441 C 0.30747 0.95933 0.17775 0.0
C2442 C 0.30043 0.95093 0.19558 0.0
H2443 H 0.30061 0.97247 0.26487 0.0
H2444 H 0.3075 0.97355 0.23905 0.0
H2445 H 0.29144 0.97689 0.24417 0.0
H2446 H 0.28005 0.96914 0.20907 0.0
H2447 H 0.29241 0.9839 0.17803 0.0
H2448 H 0.18728 0.44741 0.29136 0.0
H2449 H 0.17064 0.44288 0.26119 0.0
H2450 H 0.17007 0.39952 0.24928 0.0
H2451 H 0.18696 0.40414 0.27897 0.0
H2452 H 0.17491 0.4181 0.21413 0.0
H2453 H 0.12346 0.40943 0.25948 0.0
H2454 H 0.14147 0.42745 0.26404 0.0
H2455 H 0.14005 0.40915 0.27092 0.0
C2456 C 0.18376 0.43701 0.28217 0.0
C2457 C 0.1883 0.42605 0.2877 0.0
C2458 C 0.17415 0.43437 0.26506 0.0
C2459 C 0.16895 0.42075 0.25321 0.0
C2460 C 0.17387 0.41006 0.25832 0.0
H2461 H 0.09099 0.37075 0.17175 0.0
H2462 H 0.11037 0.38045 0.19946 0.0
C2463 C 0.18342 0.41266 0.2754 0.0
C2464 C 0.15809 0.41731 0.23572 0.0
H2465 H 0.12047 0.40752 0.22366 0.0
C2466 C 0.16304 0.41591 0.21614 0.0
C2467 C 0.14257 0.41427 0.23851 0.0
C2468 C 0.13645 0.41501 0.25937 0.0
C2469 C 0.15282 0.41138 0.19925 0.0
C2470 C 0.13731 0.40836 0.20205 0.0
C2471 C 0.13241 0.40994 0.22159 0.0
C2472 C 0.12569 0.4027 0.18512 0.0
C2473 C 0.15851 0.40931 0.17873 0.0
C2474 C 0.12783 0.41206 0.16795 0.0
C2475 C 0.11678 0.40653 0.15205 0.0
C2476 C 0.10337 0.39157 0.15315 0.0
C2477 C 0.10121 0.3823 0.17045 0.0
C2478 C 0.11225 0.38784 0.1863 0.0
H2479 H 0.16956 0.40887 0.18007 0.0
H2480 H 0.14949 0.3984 0.1711 0.0
H2481 H 0.1608 0.41933 0.16878 0.0
H2482 H 0.138 0.42367 0.1669 0.0
H2483 H 0.11871 0.41396 0.13895 0.0
H2484 H 0.15395 0.32027 0.95164 0.0
H2485 H 0.13987 0.32482 0.97921 0.0
H2486 H 0.14653 0.36651 0.94888 0.0
H2487 H 0.16049 0.36201 0.92133 0.0
H2488 H 0.1543 0.37097 0.99043 0.0
H2489 H 0.09548 0.31881 0.97739 0.0
H2490 H 0.1112 0.31465 0.98035 0.0
H2491 H 0.1109 0.32563 0.95864 0.0
C2492 C 0.15226 0.3303 0.95075 0.0
C2493 C 0.1584 0.3408 0.93432 0.0
C2494 C 0.14421 0.33288 0.96649 0.0
C2495 C 0.14203 0.34592 0.96597 0.0
C2496 C 0.14811 0.35638 0.94959 0.0
H2497 H 0.09895 0.38602 0.04229 0.0
H2498 H 0.11291 0.38039 0.01567 0.0
C2499 C 0.15616 0.35384 0.9339 0.0
C2500 C 0.13381 0.34899 0.98272 0.0
H2501 H 0.09849 0.33423 0.0067 0.0
C2502 C 0.14209 0.36296 0.99398 0.0
C2503 C 0.1179 0.3385 0.98731 0.0
C2504 C 0.10827 0.32361 0.97521 0.0
C2505 C 0.13491 0.36667 0.00984 0.0
C2506 C 0.11897 0.35624 0.01432 0.0
C2507 C 0.11072 0.3422 1.0032 0.0
C2508 C 0.1106 0.35971 0.03044 0.0
C2509 C 0.14452 0.3816 0.02187 0.0
C2510 C 0.10441 0.34978 0.04733 0.0
C2511 C 0.0964 0.35293 0.06251 0.0
C2512 C 0.09433 0.36603 0.06097 0.0
C2513 C 0.10043 0.37589 0.04394 0.0
C2514 C 0.10847 0.37274 0.02878 0.0
H2515 H 0.15731 0.38623 0.02002 0.0
H2516 H 0.14181 0.39063 0.01634 0.0
H2517 H 0.14165 0.37972 0.03839 0.0
H2518 H 0.10587 0.33962 0.04883 0.0
H2519 H 0.09179 0.34509 0.07542 0.0
H2520 H 0.71348 0.87622 0.91329 0.0
H2521 H 0.71432 0.86534 0.94668 0.0
H2522 H 0.68503 0.81863 0.92302 0.0
H2523 H 0.68444 0.82936 0.88961 0.0
H2524 H 0.6931 0.84681 0.97509 0.0
H2525 H 0.72205 0.81556 0.94348 0.0
H2526 H 0.71964 0.82974 0.92889 0.0
H2527 H 0.70364 0.80995 0.9312 0.0
C2528 C 0.70702 0.86363 0.91525 0.0
C2529 C 0.69897 0.8537 0.89859 0.0
C2530 C 0.70757 0.8574 0.93439 0.0
C2531 C 0.7001 0.84109 0.93738 0.0
C2532 C 0.69132 0.83122 0.92108 0.0
H2533 H 0.68271 0.79248 0.05514 0.0
H2534 H 0.68085 0.80488 0.02366 0.0
C2535 C 0.69086 0.83741 0.90196 0.0
C2536 C 0.70177 0.83439 0.95725 0.0
H2537 H 0.7129 0.80937 0.97762 0.0
C2538 C 0.69747 0.83866 0.97562 0.0
C2539 C 0.70777 0.82395 0.9582 0.0
C2540 C 0.7137 0.81964 0.93943 0.0
C2541 C 0.69866 0.83257 0.99466 0.0
C2542 C 0.70402 0.8216 0.99549 0.0
C2543 C 0.70861 0.8176 0.97716 0.0
C2544 C 0.70515 0.81426 0.01511 0.0
C2545 C 0.69449 0.83827 0.01376 0.0
C2546 C 0.71929 0.8149 0.0208 0.0
C2547 C 0.72032 0.80762 0.03873 0.0
C2548 C 0.70722 0.79945 0.0515 0.0
C2549 C 0.69308 0.7988 0.04583 0.0
C2550 C 0.69203 0.80601 0.02782 0.0
H2551 H 0.69537 0.84985 0.01137 0.0
H2552 H 0.68219 0.82983 0.01796 0.0
H2553 H 0.70223 0.83928 0.02676 0.0
H2554 H 0.7296 0.82108 0.01134 0.0
H2555 H 0.73138 0.80833 0.04254 0.0
H2556 H 0.22607 0.89832 0.93391 0.0
H2557 H 0.24266 0.91192 0.96341 0.0
H2558 H 0.22398 0.94329 0.96473 0.0
H2559 H 0.20723 0.92964 0.93524 0.0
H2560 H 0.26567 0.94218 0.96833 0.0
H2561 H 0.21783 0.92862 0.02337 0.0
H2562 H 0.21432 0.91901 0.99882 0.0
H2563 H 0.21685 0.93836 1.00074 0.0
C2564 C 0.22553 0.90817 0.94035 0.0
C2565 C 0.21525 0.91284 0.93217 0.0
C2566 C 0.23499 0.9159 0.95732 0.0
C2567 C 0.2344 0.92848 0.96656 0.0
C2568 C 0.22436 0.93336 0.95824 0.0
H2569 H 0.28647 0.99069 0.06841 0.0
H2570 H 0.26929 0.97792 0.03885 0.0
C2571 C 0.21481 0.92557 0.94132 0.0
C2572 C 0.24455 0.9366 0.98463 0.0
H2573 H 0.24374 0.9464 0.03465 0.0
C2574 C 0.26085 0.94305 0.98284 0.0
C2575 C 0.2383 0.93777 1.00361 0.0
C2576 C 0.22086 0.93045 0.00688 0.0
C2577 C 0.27105 0.95073 0.99937 0.0
C2578 C 0.26479 0.95185 0.01832 0.0
C2579 C 0.24852 0.94554 0.0201 0.0
C2580 C 0.27495 0.95938 0.03652 0.0
C2581 C 0.28848 0.9578 0.99632 0.0
C2582 C 0.28362 0.95305 0.04528 0.0
C2583 C 0.29339 0.96028 0.0622 0.0
C2584 C 0.29467 0.974 0.07074 0.0
C2585 C 0.28576 0.98016 0.06217 0.0
C2586 C 0.27594 0.97288 0.04528 0.0
H2587 H 0.29162 0.95931 0.97986 0.0
H2588 H 0.29505 0.96936 1.00409 0.0
H2589 H 0.29234 0.94993 1.00303 0.0
H2590 H 0.28283 0.94249 0.03901 0.0
H2591 H 0.30004 0.9552 0.06847 0.0
H2592 H 0.70109 0.88982 0.42062 0.0
H2593 H 0.7022 0.90332 0.45267 0.0
H2594 H 0.72137 0.94711 0.42044 0.0
H2595 H 0.71978 0.93363 0.38834 0.0
H2596 H 0.72428 0.92607 0.47552 0.0
H2597 H 0.68516 0.94728 0.44716 0.0
H2598 H 0.68829 0.93335 0.43304 0.0
H2599 H 0.7023 0.95399 0.43167 0.0
C2600 C 0.7057 0.90236 0.42036 0.0
C2601 C 0.71024 0.91057 0.40174 0.0
C2602 C 0.70627 0.91009 0.43876 0.0
C2603 C 0.71144 0.92625 0.43908 0.0
C2604 C 0.7168 0.93459 0.42068 0.0
H2605 H 0.72415 0.995 0.53335 0.0
H2606 H 0.72467 0.98125 0.50228 0.0
C2607 C 0.71605 0.92685 0.40227 0.0
C2608 C 0.71107 0.93432 0.4585 0.0
H2609 H 0.69811 0.95795 0.47888 0.0
C2610 C 0.71846 0.93294 0.47622 0.0
C2611 C 0.70341 0.94329 0.45971 0.0
C2612 C 0.6942 0.94444 0.44195 0.0
C2613 C 0.71873 0.94052 0.49473 0.0
C2614 C 0.71134 0.9497 0.49577 0.0
C2615 C 0.70389 0.95103 0.47813 0.0
C2616 C 0.71117 0.95802 0.51496 0.0
C2617 C 0.72722 0.9389 0.51298 0.0
C2618 C 0.70327 0.94961 0.53252 0.0
C2619 C 0.70285 0.95746 0.5503 0.0
C2620 C 0.71037 0.97394 0.55103 0.0
C2621 C 0.71827 0.98232 0.53342 0.0
C2622 C 0.71857 0.97446 0.51559 0.0
H2623 H 0.73509 0.93431 0.50862 0.0
H2624 H 0.73428 0.95035 0.52086 0.0
H2625 H 0.71849 0.93063 0.52401 0.0
H2626 H 0.69725 0.93693 0.53241 0.0
H2627 H 0.69661 0.9506 0.56351 0.0
H2628 H 0.19686 0.85499 0.40757 0.0
H2629 H 0.18403 0.83585 0.43519 0.0
H2630 H 0.1729 0.86794 0.46564 0.0
H2631 H 0.18567 0.88695 0.43848 0.0
H2632 H 0.18314 0.85274 0.49252 0.0
H2633 H 0.13569 0.8108 0.44054 0.0
H2634 H 0.15547 0.81667 0.43327 0.0
H2635 H 0.14904 0.83081 0.43339 0.0
C2636 C 0.19195 0.85804 0.42038 0.0
C2637 C 0.19221 0.87245 0.42078 0.0
C2638 C 0.18448 0.84705 0.43604 0.0
C2639 C 0.17725 0.85035 0.45234 0.0
C2640 C 0.1783 0.86506 0.45322 0.0
H2641 H 0.1009 0.79544 0.53366 0.0
H2642 H 0.11873 0.81175 0.50664 0.0
C2643 C 0.18561 0.87593 0.43763 0.0
C2644 C 0.16793 0.83847 0.46814 0.0
H2645 H 0.13349 0.80421 0.47536 0.0
C2646 C 0.17239 0.84202 0.48876 0.0
C2647 C 0.15376 0.82461 0.46325 0.0
C2648 C 0.14806 0.82046 0.44146 0.0
C2649 C 0.16296 0.83227 0.5046 0.0
C2650 C 0.14874 0.81846 0.49972 0.0
C2651 C 0.14441 0.81476 0.47909 0.0
C2652 C 0.13784 0.80812 0.51584 0.0
C2653 C 0.16798 0.83719 0.52647 0.0
C2654 C 0.14253 0.80046 0.52986 0.0
C2655 C 0.13237 0.79115 0.54533 0.0
C2656 C 0.11725 0.78924 0.54707 0.0
C2657 C 0.11247 0.7967 0.53279 0.0
C2658 C 0.12264 0.806 0.51731 0.0
H2659 H 0.17726 0.8497 0.52768 0.0
H2660 H 0.15786 0.83533 0.53594 0.0
H2661 H 0.17274 0.82999 0.53292 0.0
H2662 H 0.15408 0.80168 0.52884 0.0
H2663 H 0.13639 0.78549 0.556 0.0
H2664 H 0.23681 0.43544 0.44424 0.0
H2665 H 0.24859 0.4293 0.47324 0.0
H2666 H 0.25993 0.40127 0.43376 0.0
H2667 H 0.24886 0.40786 0.40467 0.0
H2668 H 0.23937 0.40035 0.48907 0.0
H2669 H 0.30104 0.42755 0.46345 0.0
H2670 H 0.28698 0.43177 0.45154 0.0
H2671 H 0.28744 0.41427 0.44483 0.0
C2672 C 0.24211 0.42825 0.44164 0.0
C2673 C 0.24184 0.42212 0.4221 0.0
C2674 C 0.24873 0.42466 0.45826 0.0
C2675 C 0.25531 0.41498 0.45562 0.0
C2676 C 0.25521 0.40901 0.43611 0.0
H2677 H 0.29024 0.36806 0.53322 0.0
H2678 H 0.27977 0.37678 0.50527 0.0
C2679 C 0.24866 0.41263 0.41951 0.0
C2680 C 0.26149 0.41038 0.47338 0.0
H2681 H 0.2937 0.40936 0.49102 0.0
C2682 C 0.2513 0.40247 0.48961 0.0
C2683 C 0.27705 0.41313 0.47403 0.0
C2684 C 0.28881 0.42228 0.45762 0.0
C2685 C 0.25613 0.39686 0.5062 0.0
C2686 C 0.27157 0.39933 0.5066 0.0
C2687 C 0.28182 0.40739 0.49053 0.0
C2688 C 0.27737 0.39374 0.52366 0.0
C2689 C 0.2446 0.38799 0.52294 0.0
C2690 C 0.27949 0.40044 0.54317 0.0
C2691 C 0.2855 0.39554 0.55911 0.0
C2692 C 0.28948 0.38385 0.55578 0.0
C2693 C 0.28721 0.37705 0.53625 0.0
C2694 C 0.28128 0.38203 0.52028 0.0
H2695 H 0.23236 0.3844 0.5184 0.0
H2696 H 0.24518 0.37737 0.52717 0.0
H2697 H 0.24765 0.39557 0.53673 0.0
H2698 H 0.27672 0.40963 0.54599 0.0
H2699 H 0.28717 0.40102 0.57398 0.0
H2700 H 0.19677 0.31662 0.78875 0.0
H2701 H 0.21157 0.32062 0.75711 0.0
H2702 H 0.23951 0.36987 0.77093 0.0
H2703 H 0.22465 0.36617 0.80208 0.0
H2704 H 0.21663 0.34393 0.72365 0.0
H2705 H 0.2712 0.35307 0.76189 0.0
H2706 H 0.25223 0.34293 0.77401 0.0
H2707 H 0.26251 0.3639 0.77225 0.0
C2708 C 0.20597 0.32832 0.78499 0.0
C2709 C 0.20959 0.34102 0.79816 0.0
C2710 C 0.21444 0.33056 0.76697 0.0
C2711 C 0.22674 0.34549 0.76193 0.0
C2712 C 0.23022 0.35821 0.77479 0.0
H2713 H 0.29703 0.38676 0.66771 0.0
H2714 H 0.28049 0.3813 0.69795 0.0
C2715 C 0.22174 0.35602 0.79269 0.0
C2716 C 0.23597 0.34797 0.74316 0.0
H2717 H 0.27271 0.35843 0.72649 0.0
C2718 C 0.22886 0.34698 0.72418 0.0
C2719 C 0.25192 0.35207 0.74405 0.0
C2720 C 0.25996 0.35297 0.76411 0.0
C2721 C 0.23744 0.35037 0.70597 0.0
C2722 C 0.25343 0.35449 0.70684 0.0
C2723 C 0.26047 0.35532 0.72586 0.0
C2724 C 0.26311 0.35793 0.68821 0.0
C2725 C 0.22943 0.35 0.68608 0.0
C2726 C 0.25888 0.34656 0.6728 0.0
C2727 C 0.26823 0.34969 0.6555 0.0
C2728 C 0.28209 0.36418 0.6534 0.0
C2729 C 0.28639 0.37551 0.6689 0.0
C2730 C 0.27697 0.3724 0.68616 0.0
H2731 H 0.21885 0.35109 0.68861 0.0
H2732 H 0.23751 0.35956 0.67579 0.0
H2733 H 0.22562 0.33865 0.67824 0.0
H2734 H 0.24846 0.33518 0.67429 0.0
H2735 H 0.26469 0.34068 0.64389 0.0
H2736 H 0.68576 0.91323 0.81631 0.0
H2737 H 0.68537 0.92601 0.78443 0.0
H2738 H 0.71366 0.90933 0.75559 0.0
H2739 H 0.71367 0.89615 0.78715 0.0
H2740 H 0.70842 0.94913 0.76432 0.0
H2741 H 0.68152 0.89815 0.71186 0.0
H2742 H 0.68171 0.89597 0.73921 0.0
H2743 H 0.6987 0.90015 0.72427 0.0
C2744 C 0.69166 0.91201 0.80308 0.0
C2745 C 0.69962 0.90347 0.8044 0.0
C2746 C 0.6915 0.91943 0.7848 0.0
C2747 C 0.69928 0.91854 0.76727 0.0
C2748 C 0.70715 0.90992 0.76854 0.0
H2749 H 0.72264 0.96521 0.64814 0.0
H2750 H 0.72073 0.95032 0.67909 0.0
C2751 C 0.70722 0.9024 0.78675 0.0
C2752 C 0.69984 0.92728 0.74812 0.0
H2753 H 0.69366 0.92337 0.69625 0.0
C2754 C 0.70504 0.94341 0.74949 0.0
C2755 C 0.6955 0.91998 0.72858 0.0
C2756 C 0.6889 0.90259 0.72588 0.0
C2757 C 0.7063 0.95239 0.73207 0.0
C2758 C 0.70214 0.94513 0.71256 0.0
C2759 C 0.69693 0.92902 0.71113 0.0
C2760 C 0.7031 0.95405 0.69353 0.0
C2761 C 0.71242 0.96971 0.73463 0.0
C2762 C 0.6937 0.961 0.69104 0.0
C2763 C 0.69471 0.96945 0.67327 0.0
C2764 C 0.70518 0.97123 0.65751 0.0
C2765 C 0.71449 0.96415 0.65995 0.0
C2766 C 0.71338 0.95559 0.67766 0.0
H2767 H 0.71844 0.97416 0.74959 0.0
H2768 H 0.72073 0.97643 0.72223 0.0
H2769 H 0.70246 0.97199 0.73382 0.0
H2770 H 0.6855 0.95982 0.70284 0.0
H2771 H 0.68731 0.97467 0.67194 0.0
H2772 H 0.1627 0.83797 0.80504 0.0
H2773 H 0.15224 0.82371 0.77303 0.0
H2774 H 0.15004 0.86305 0.74816 0.0
H2775 H 0.16113 0.8777 0.77982 0.0
H2776 H 0.12435 0.81465 0.75417 0.0
H2777 H 0.17289 0.85437 0.70328 0.0
H2778 H 0.17459 0.8557 0.73078 0.0
H2779 H 0.16452 0.86405 0.71737 0.0
C2780 C 0.16026 0.84375 0.79272 0.0
C2781 C 0.16296 0.85913 0.79511 0.0
C2782 C 0.15415 0.83549 0.77441 0.0
C2783 C 0.1506 0.84237 0.75801 0.0
C2784 C 0.15302 0.8576 0.7604 0.0
H2785 H 0.10762 0.8091 0.63828 0.0
H2786 H 0.11931 0.82409 0.66973 0.0
C2787 C 0.15919 0.86591 0.77869 0.0
C2788 C 0.14396 0.83342 0.73865 0.0
H2789 H 0.14987 0.83434 0.68707 0.0
C2790 C 0.12999 0.81893 0.73952 0.0
C2791 C 0.1513 0.83898 0.7195 0.0
C2792 C 0.16673 0.85405 0.71763 0.0
C2793 C 0.12304 0.80999 0.72178 0.0
C2794 C 0.13033 0.81559 0.70265 0.0
C2795 C 0.14428 0.83008 0.70175 0.0
C2796 C 0.12361 0.8066 0.68341 0.0
C2797 C 0.10776 0.79476 0.72359 0.0
C2798 C 0.12239 0.7919 0.68049 0.0
C2799 C 0.11577 0.78333 0.6625 0.0
C2800 C 0.11024 0.7893 0.64707 0.0
C2801 C 0.11172 0.80415 0.64989 0.0
C2802 C 0.11841 0.81273 0.66785 0.0
H2803 H 0.10189 0.79387 0.73841 0.0
H2804 H 0.0996 0.79347 0.71097 0.0
H2805 H 0.11009 0.78486 0.72255 0.0
H2806 H 0.12656 0.78704 0.69214 0.0
H2807 H 0.11484 0.77196 0.66077 0.0
H2808 H 0.35034 0.18857 0.63775 0.0
H2809 H 0.35783 0.17952 0.60747 0.0
H2810 H 0.40396 0.19611 0.63301 0.0
H2811 H 0.39641 0.20524 0.66383 0.0
H2812 H 0.38159 0.19513 0.57891 0.0
H2813 H 0.3884 0.14946 0.61993 0.0
H2814 H 0.37885 0.1592 0.63131 0.0
H2815 H 0.39984 0.16919 0.62942 0.0
C2816 C 0.36215 0.19043 0.63699 0.0
C2817 C 0.37274 0.19758 0.65337 0.0
C2818 C 0.36642 0.18525 0.61956 0.0
C2819 C 0.38138 0.18688 0.61795 0.0
C2820 C 0.39225 0.19447 0.63397 0.0
H2821 H 0.40956 0.16271 0.50097 0.0
H2822 H 0.40914 0.17691 0.53162 0.0
C2823 C 0.38798 0.19983 0.65152 0.0
C2824 C 0.38511 0.18022 0.59961 0.0
H2825 H 0.39168 0.15072 0.58426 0.0
C2826 C 0.384 0.18555 0.5801 0.0
C2827 C 0.38801 0.16753 0.60107 0.0
C2828 C 0.38875 0.16086 0.6215 0.0
C2829 C 0.38544 0.17845 0.56212 0.0
C2830 C 0.38826 0.16571 0.56356 0.0
C2831 C 0.38961 0.16052 0.58308 0.0
C2832 C 0.38896 0.15707 0.54506 0.0
C2833 C 0.38326 0.18424 0.54171 0.0
C2834 C 0.37802 0.14107 0.54247 0.0
C2835 C 0.37827 0.13292 0.52498 0.0
C2836 C 0.38954 0.14053 0.50964 0.0
C2837 C 0.40065 0.1565 0.51238 0.0
C2838 C 0.40038 0.16466 0.5299 0.0
H2839 H 0.37769 0.19161 0.54329 0.0
H2840 H 0.39488 0.19144 0.53448 0.0
H2841 H 0.37593 0.17428 0.53131 0.0
H2842 H 0.3691 0.1349 0.5539 0.0
H2843 H 0.36956 0.12063 0.52344 0.0
H2844 H 0.90977 0.25598 0.62884 0.0
H2845 H 0.92718 0.27201 0.6015 0.0
H2846 H 0.8887 0.25097 0.55853 0.0
H2847 H 0.87122 0.23477 0.58572 0.0
H2848 H 0.93463 0.26234 0.56489 0.0
H2849 H 0.90635 0.29802 0.5499 0.0
H2850 H 0.90259 0.28641 0.57269 0.0
H2851 H 0.8931 0.27726 0.54898 0.0
C2852 C 0.90498 0.25466 0.61358 0.0
C2853 C 0.88903 0.24405 0.60954 0.0
C2854 C 0.91496 0.26391 0.59798 0.0
C2855 C 0.9092 0.26285 0.57804 0.0
C2856 C 0.89333 0.25223 0.5739 0.0
H2857 H 0.94717 0.30435 0.46108 0.0
H2858 H 0.93124 0.28883 0.48979 0.0
C2859 C 0.88333 0.24297 0.58949 0.0
C2860 C 0.91986 0.27258 0.56148 0.0
H2861 H 0.92546 0.30023 0.52599 0.0
C2862 C 0.93271 0.27071 0.55646 0.0
C2863 C 0.91734 0.28351 0.55055 0.0
C2864 C 0.90419 0.28657 0.55589 0.0
C2865 C 0.94284 0.27916 0.54039 0.0
C2866 C 0.94018 0.28993 0.52928 0.0
C2867 C 0.92745 0.29193 0.53448 0.0
C2868 C 0.95021 0.299 0.51187 0.0
C2869 C 0.95601 0.27615 0.53504 0.0
C2870 C 0.9662 0.3099 0.51474 0.0
C2871 C 0.97538 0.31879 0.4983 0.0
C2872 C 0.96868 0.31699 0.47875 0.0
C2873 C 0.9527 0.306 0.47593 0.0
C2874 C 0.94356 0.29714 0.49233 0.0
H2875 H 0.95426 0.26504 0.54176 0.0
H2876 H 0.95713 0.27564 0.51821 0.0
H2877 H 0.96722 0.28587 0.5411 0.0
H2878 H 0.97152 0.31173 0.52977 0.0
H2879 H 0.98764 0.32724 0.50097 0.0
H2880 H 0.8616 0.77155 0.6268 0.0
H2881 H 0.84552 0.76829 0.59639 0.0
H2882 H 0.84319 0.72431 0.58302 0.0
H2883 H 0.85936 0.72754 0.61294 0.0
H2884 H 0.8507 0.76277 0.55338 0.0
H2885 H 0.79661 0.71398 0.58675 0.0
H2886 H 0.8133 0.72729 0.60216 0.0
H2887 H 0.81354 0.7116 0.58842 0.0
C2888 C 0.85779 0.76127 0.61728 0.0
C2889 C 0.86159 0.7497 0.62251 0.0
C2890 C 0.84857 0.75941 0.59997 0.0
C2891 C 0.84297 0.74593 0.58773 0.0
C2892 C 0.84714 0.73463 0.59254 0.0
H2893 H 0.78507 0.70211 0.48292 0.0
H2894 H 0.80267 0.71026 0.51254 0.0
C2895 C 0.85634 0.73648 0.60974 0.0
C2896 C 0.83259 0.7434 0.56998 0.0
H2897 H 0.79616 0.71805 0.551 0.0
C2898 C 0.83871 0.75313 0.55288 0.0
C2899 C 0.81697 0.7308 0.56947 0.0
C2900 C 0.80962 0.72038 0.58773 0.0
C2901 C 0.82978 0.75016 0.53488 0.0
C2902 C 0.8143 0.73728 0.5342 0.0
C2903 C 0.80807 0.72785 0.55153 0.0
C2904 C 0.80445 0.73298 0.51548 0.0
C2905 C 0.83717 0.76042 0.51651 0.0
C2906 C 0.79966 0.74308 0.50729 0.0
C2907 C 0.78961 0.73846 0.49031 0.0
C2908 C 0.78413 0.72362 0.48136 0.0
C2909 C 0.78911 0.71362 0.48947 0.0
C2910 C 0.79914 0.71824 0.5064 0.0
H2911 H 0.85013 0.76758 0.51807 0.0
H2912 H 0.83431 0.75325 0.50235 0.0
H2913 H 0.83246 0.76852 0.51478 0.0
H2914 H 0.80339 0.75438 0.5143 0.0
H2915 H 0.7859 0.74638 0.48444 0.0
H2916 H 0.8244 0.70384 0.23066 0.0
H2917 H 0.81273 0.70536 0.26284 0.0
H2918 H 0.80938 0.662 0.28227 0.0
H2919 H 0.82133 0.66051 0.25003 0.0
H2920 H 0.78268 0.68212 0.27959 0.0
H2921 H 0.83389 0.69475 0.32914 0.0
H2922 H 0.83554 0.69751 0.30179 0.0
H2923 H 0.82677 0.67814 0.31217 0.0
C2924 C 0.82131 0.69468 0.24183 0.0
C2925 C 0.82394 0.68214 0.23793 0.0
C2926 C 0.81455 0.69552 0.26013 0.0
C2927 C 0.81038 0.68389 0.27497 0.0
C2928 C 0.8127 0.67117 0.27105 0.0
H2929 H 0.75431 0.67416 0.38264 0.0
H2930 H 0.76532 0.66898 0.35209 0.0
C2931 C 0.81939 0.67028 0.25262 0.0
C2932 C 0.80361 0.68523 0.29447 0.0
H2933 H 0.81173 0.69309 0.34534 0.0
C2934 C 0.78895 0.6844 0.29401 0.0
C2935 C 0.81196 0.68839 0.31314 0.0
C2936 C 0.82797 0.68987 0.31423 0.0
C2937 C 0.78241 0.6867 0.31178 0.0
C2938 C 0.79074 0.68982 0.33046 0.0
C2939 C 0.80538 0.69061 0.33096 0.0
C2940 C 0.78458 0.69274 0.34952 0.0
C2941 C 0.76685 0.68619 0.31039 0.0
C2942 C 0.792 0.70774 0.35838 0.0
C2943 C 0.78573 0.71076 0.37581 0.0
C2944 C 0.77202 0.69876 0.3847 0.0
C2945 C 0.76486 0.68365 0.37608 0.0
C2946 C 0.77109 0.68067 0.35862 0.0
H2947 H 0.76336 0.68653 0.29431 0.0
H2948 H 0.75764 0.67521 0.31742 0.0
H2949 H 0.76729 0.69618 0.3189 0.0
H2950 H 0.80245 0.71718 0.35155 0.0
H2951 H 0.79152 0.7225 0.38216 0.0
H2952 H 0.35823 0.1688 0.24588 0.0
H2953 H 0.35994 0.15835 0.27902 0.0
H2954 H 0.39266 0.20505 0.30011 0.0
H2955 H 0.39062 0.21563 0.26715 0.0
H2956 H 0.38418 0.1585 0.29612 0.0
H2957 H 0.36475 0.18941 0.34882 0.0
H2958 H 0.36232 0.18945 0.32148 0.0
H2959 H 0.38093 0.20264 0.33327 0.0
C2960 C 0.36554 0.17692 0.2577 0.0
C2961 C 0.37418 0.19311 0.25378 0.0
C2962 C 0.36658 0.17089 0.27669 0.0
C2963 C 0.37633 0.18084 0.29236 0.0
C2964 C 0.38474 0.19707 0.28862 0.0
H2965 H 0.41069 0.14609 0.39284 0.0
H2966 H 0.40819 0.15843 0.36162 0.0
C2967 C 0.38358 0.20314 0.26965 0.0
C2968 C 0.37834 0.17408 0.31197 0.0
H2969 H 0.37673 0.17601 0.36414 0.0
C2970 C 0.38248 0.16232 0.31097 0.0
C2971 C 0.37599 0.17884 0.3315 0.0
C2972 C 0.3706 0.19066 0.33389 0.0
C2973 C 0.38442 0.15534 0.32871 0.0
C2974 C 0.38261 0.16048 0.34826 0.0
C2975 C 0.37833 0.17214 0.34928 0.0
C2976 C 0.38456 0.15356 0.36776 0.0
C2977 C 0.38793 0.14216 0.32621 0.0
C2978 C 0.37242 0.14719 0.38222 0.0
C2979 C 0.37393 0.14035 0.40025 0.0
C2980 C 0.38764 0.13966 0.40438 0.0
C2981 C 0.39992 0.14629 0.39012 0.0
C2982 C 0.39844 0.15326 0.37213 0.0
H2983 H 0.38437 0.13661 0.31085 0.0
H2984 H 0.40074 0.14688 0.3279 0.0
H2985 H 0.38182 0.13298 0.33795 0.0
H2986 H 0.3616 0.14728 0.3794 0.0
H2987 H 0.36423 0.13539 0.41086 0.0
H2988 H 0.86781 0.27695 0.25634 0.0
H2989 H 0.88596 0.29145 0.28444 0.0
H2990 H 0.91922 0.27909 0.26077 0.0
H2991 H 0.90146 0.26505 0.23248 0.0
H2992 H 0.89785 0.27972 0.31409 0.0
H2993 H 0.94605 0.3264 0.26913 0.0
H2994 H 0.92658 0.3142 0.25876 0.0
H2995 H 0.94017 0.30702 0.26004 0.0
C2996 C 0.87907 0.27751 0.25699 0.0
C2997 C 0.88313 0.26978 0.2422 0.0
C2998 C 0.88939 0.28572 0.27309 0.0
C2999 C 0.90402 0.28651 0.27455 0.0
C3000 C 0.90812 0.27887 0.25977 0.0
H3001 H 0.96418 0.30465 0.37976 0.0
H3002 H 0.94618 0.2935 0.35065 0.0
C3003 C 0.89783 0.27065 0.24374 0.0
C3004 C 0.91479 0.29473 0.29194 0.0
H3005 H 0.95216 0.32336 0.30362 0.0
C3006 C 0.90968 0.28935 0.31183 0.0
C3007 C 0.93016 0.3074 0.28898 0.0
C3008 C 0.93604 0.31422 0.2681 0.0
C3009 C 0.91969 0.29599 0.32878 0.0
C3010 C 0.9353 0.30817 0.32571 0.0
C3011 C 0.94025 0.31389 0.30591 0.0
C3012 C 0.94666 0.31508 0.34289 0.0
C3013 C 0.91344 0.28994 0.34984 0.0
C3014 C 0.95333 0.33104 0.34774 0.0
C3015 C 0.96371 0.33747 0.36429 0.0
C3016 C 0.96767 0.32806 0.37619 0.0
C3017 C 0.96131 0.31218 0.37094 0.0
C3018 C 0.95093 0.30577 0.3544 0.0
H3019 H 0.90042 0.28373 0.35014 0.0
H3020 H 0.91725 0.28154 0.35459 0.0
H3021 H 0.91804 0.29965 0.3612 0.0
H3022 H 0.95028 0.33845 0.33896 0.0
H3023 H 0.96844 0.34975 0.36795 0.0
H3024 H 0.38677 0.27221 0.73919 0.0
H3025 H 0.38939 0.28579 0.77153 0.0
H3026 H 0.3803 0.24429 0.80453 0.0
H3027 H 0.3781 0.23076 0.77218 0.0
H3028 H 0.36782 0.27942 0.79957 0.0
H3029 H 0.41682 0.27637 0.83697 0.0
H3030 H 0.41202 0.27169 0.81029 0.0
H3031 H 0.40101 0.25747 0.82963 0.0
C3032 C 0.38563 0.26603 0.75332 0.0
C3033 C 0.38232 0.25037 0.75297 0.0
C3034 C 0.38707 0.27382 0.77188 0.0
C3035 C 0.38522 0.26621 0.79068 0.0
C3036 C 0.38219 0.25065 0.79039 0.0
H3037 H 0.37603 0.29053 0.91697 0.0
H3038 H 0.37654 0.27733 0.88534 0.0
C3039 C 0.38088 0.24287 0.77179 0.0
C3040 C 0.38548 0.27428 0.81033 0.0
H3041 H 0.40238 0.28449 0.85796 0.0
C3042 C 0.37549 0.2806 0.81224 0.0
C3043 C 0.3954 0.27585 0.82707 0.0
C3044 C 0.40703 0.27013 0.82586 0.0
C3045 C 0.37499 0.2882 0.83028 0.0
C3046 C 0.38485 0.28971 0.847 0.0
C3047 C 0.39479 0.28334 0.8452 0.0
C3048 C 0.38501 0.29791 0.86639 0.0
C3049 C 0.36365 0.29428 0.83147 0.0
C3050 C 0.38982 0.31397 0.86645 0.0
C3051 C 0.38961 0.32156 0.88455 0.0
C3052 C 0.38455 0.31329 0.90306 0.0
C3053 C 0.37995 0.29726 0.90301 0.0
C3054 C 0.38026 0.2897 0.88492 0.0
H3055 H 0.35444 0.28907 0.81941 0.0
H3056 H 0.35789 0.29178 0.84663 0.0
H3057 H 0.37016 0.30717 0.82937 0.0
H3058 H 0.39375 0.32065 0.85246 0.0
H3059 H 0.39329 0.33391 0.884 0.0
H3060 H 0.84703 0.18938 0.75122 0.0
H3061 H 0.83156 0.17501 0.78083 0.0
H3062 H 0.79697 0.18815 0.76582 0.0
H3063 H 0.81225 0.20232 0.7358 0.0
H3064 H 0.82201 0.18695 0.81438 0.0
H3065 H 0.77124 0.13981 0.77175 0.0
H3066 H 0.78997 0.15222 0.75988 0.0
H3067 H 0.77688 0.15958 0.76485 0.0
C3068 C 0.83605 0.18908 0.75403 0.0
C3069 C 0.83082 0.19691 0.74099 0.0
C3070 C 0.82728 0.18095 0.77106 0.0
C3071 C 0.81304 0.18036 0.77538 0.0
C3072 C 0.80783 0.18828 0.76259 0.0
H3073 H 0.7448 0.1298 0.87177 0.0
H3074 H 0.75867 0.14661 0.84263 0.0
C3075 C 0.81664 0.19649 0.74555 0.0
C3076 C 0.80383 0.17158 0.79346 0.0
H3077 H 0.76962 0.13931 0.80772 0.0
C3078 C 0.81053 0.17656 0.81295 0.0
C3079 C 0.78884 0.15807 0.79153 0.0
C3080 C 0.78129 0.15197 0.7709 0.0
C3081 C 0.80267 0.16837 0.8306 0.0
C3082 C 0.78784 0.15463 0.82865 0.0
C3083 C 0.78099 0.14983 0.80918 0.0
C3084 C 0.77954 0.14474 0.84653 0.0
C3085 C 0.81027 0.17459 0.85117 0.0
C3086 C 0.78658 0.13796 0.85824 0.0
C3087 C 0.77871 0.12842 0.87487 0.0
C3088 C 0.76358 0.12534 0.88003 0.0
C3089 C 0.75647 0.13201 0.8682 0.0
C3090 C 0.76437 0.14159 0.85155 0.0
H3091 H 0.81896 0.18731 0.85055 0.0
H3092 H 0.80138 0.17265 0.86294 0.0
H3093 H 0.81656 0.1684 0.856 0.0
H3094 H 0.79811 0.1399 0.85436 0.0
H3095 H 0.78446 0.12336 0.88359 0.0
H3096 H 0.92628 0.76292 0.76642 0.0
H3097 H 0.93917 0.75698 0.79426 0.0
H3098 H 0.91468 0.70828 0.7766 0.0
H3099 H 0.90155 0.71399 0.74906 0.0
H3100 H 0.92448 0.73475 0.82717 0.0
H3101 H 0.96167 0.72049 0.77801 0.0
H3102 H 0.95253 0.7313 0.76876 0.0
H3103 H 0.94114 0.71042 0.7716 0.0
C3104 C 0.92354 0.75093 0.76852 0.0
C3105 C 0.91295 0.73897 0.75532 0.0
C3106 C 0.93098 0.74758 0.78437 0.0
C3107 C 0.92806 0.73224 0.78723 0.0
C3108 C 0.91735 0.72025 0.77435 0.0
H3109 H 0.96195 0.68798 0.87244 0.0
H3110 H 0.94874 0.69373 0.84472 0.0
C3111 C 0.90988 0.72357 0.75856 0.0
C3112 C 0.93597 0.72868 0.80393 0.0
H3113 H 0.96149 0.7154 0.81339 0.0
C3114 C 0.93264 0.73059 0.82421 0.0
C3115 C 0.9465 0.72315 0.79994 0.0
C3116 C 0.95081 0.72132 0.77841 0.0
C3117 C 0.93939 0.72689 0.84066 0.0
C3118 C 0.95002 0.72148 0.83669 0.0
C3119 C 0.95332 0.71954 0.81639 0.0
C3120 C 0.95805 0.71801 0.85339 0.0
C3121 C 0.93479 0.72848 0.86214 0.0
C3122 C 0.96785 0.72982 0.8672 0.0
C3123 C 0.97534 0.72655 0.88302 0.0
C3124 C 0.9733 0.71145 0.88522 0.0
C3125 C 0.96372 0.69971 0.87114 0.0
C3126 C 0.95617 0.70298 0.85533 0.0
H3127 H 0.92345 0.72841 0.86241 0.0
H3128 H 0.93378 0.71888 0.87202 0.0
H3129 H 0.94392 0.73978 0.86878 0.0
H3130 H 0.96976 0.74159 0.86569 0.0
H3131 H 0.98274 0.73588 0.89354 0.0
H3132 H 0.86317 0.69185 0.07715 0.0
H3133 H 0.88145 0.69363 0.05051 0.0
H3134 H 0.9103 0.68853 0.09632 0.0
H3135 H 0.89243 0.68756 0.12294 0.0
H3136 H 0.928 0.71082 0.072 0.0
H3137 H 0.88691 0.66043 0.02407 0.0
H3138 H 0.88055 0.67451 0.02689 0.0
H3139 H 0.88159 0.66413 0.04894 0.0
C3140 C 0.87334 0.69094 0.08139 0.0
C3141 C 0.87643 0.68955 0.102 0.0
C3142 C 0.88373 0.69186 0.06619 0.0
C3143 C 0.89714 0.69093 0.07132 0.0
C3144 C 0.90006 0.68928 0.09194 0.0
H3145 H 0.95345 0.67462 0.9837 0.0
H3146 H 0.93514 0.67271 0.0102 0.0
C3147 C 0.88987 0.68871 0.10714 0.0
C3148 C 0.90855 0.69236 0.05543 0.0
H3149 H 0.91183 0.67774 0.00952 0.0
C3150 C 0.92446 0.7035 0.0584 0.0
C3151 C 0.90401 0.68269 0.0378 0.0
C3152 C 0.88736 0.66966 0.03433 0.0
C3153 C 0.93593 0.70526 0.0443 0.0
C3154 C 0.9313 0.69608 0.02621 0.0
C3155 C 0.91539 0.68491 0.02325 0.0
C3156 C 0.94276 0.69748 0.01042 0.0
C3157 C 0.95292 0.71659 0.04933 0.0
C3158 C 0.95313 0.71203 1.00161 0.0
C3159 C 0.96388 0.71319 0.9868 0.0
C3160 C 0.9641 0.69974 0.9801 0.0
C3161 C 0.95352 0.68517 0.98859 0.0
C3162 C 0.94303 0.68407 1.0037 0.0
H3163 H 0.95479 0.71872 0.06607 0.0
H3164 H 0.96069 0.71221 0.04378 0.0
H3165 H 0.95647 0.728 0.04195 0.0
H3166 H 0.95283 0.72247 0.00601 0.0
H3167 H 0.97178 0.72453 0.98028 0.0
H3168 H 0.36519 0.241 0.1619 0.0
H3169 H 0.3598 0.25355 0.13275 0.0
H3170 H 0.39763 0.25389 0.09932 0.0
H3171 H 0.40282 0.24132 0.12775 0.0
H3172 H 0.37957 0.28251 0.11477 0.0
H3173 H 0.36318 0.23595 0.05686 0.0
H3174 H 0.36391 0.2325 0.08382 0.0
H3175 H 0.38156 0.24108 0.06882 0.0
C3176 C 0.37211 0.24347 0.14816 0.0
C3177 C 0.38438 0.24002 0.14723 0.0
C3178 C 0.36911 0.25075 0.13153 0.0
C3179 C 0.37815 0.2545 0.11357 0.0
C3180 C 0.39021 0.25084 0.11266 0.0
H3181 H 0.39876 0.30685 1.00156 0.0
H3182 H 0.39705 0.29128 0.0316 0.0
C3183 C 0.39323 0.24369 0.12913 0.0
C3184 C 0.37578 0.26293 0.09603 0.0
H3185 H 0.37184 0.26183 0.04389 0.0
C3186 C 0.37759 0.27786 0.09932 0.0
C3187 C 0.37322 0.25697 0.07576 0.0
C3188 C 0.37019 0.24068 0.07111 0.0
C3189 C 0.37771 0.28723 0.08291 0.0
C3190 C 0.3758 0.28149 0.06258 0.0
C3191 C 0.37347 0.26636 0.05938 0.0
C3192 C 0.37674 0.29115 0.04438 0.0
C3193 C 0.38057 0.30348 0.08738 0.0
C3194 C 0.36581 0.29622 0.04128 0.0
C3195 C 0.36673 0.30511 0.02401 0.0
C3196 C 0.37861 0.30916 0.00938 0.0
C3197 C 0.38948 0.30402 0.01249 0.0
C3198 C 0.38851 0.29507 0.02969 0.0
H3199 H 0.38506 0.30737 0.10317 0.0
H3200 H 0.3891 0.31205 0.07641 0.0
H3201 H 0.36938 0.30356 0.0857 0.0
H3202 H 0.35644 0.29316 0.05213 0.0
H3203 H 0.35811 0.3088 0.0221 0.0
H3204 H 0.84375 0.22738 0.08628 0.0
H3205 H 0.82964 0.20953 0.05788 0.0
H3206 H 0.79745 0.17541 0.10057 0.0
H3207 H 0.81192 0.19304 0.12898 0.0
H3208 H 0.8061 0.16161 0.07389 0.0
H3209 H 0.78915 0.19947 0.03145 0.0
H3210 H 0.80997 0.20867 0.03496 0.0
H3211 H 0.79743 0.20427 0.05686 0.0
C3212 C 0.83354 0.21615 0.08953 0.0
C3213 C 0.82888 0.2116 0.10981 0.0
C3214 C 0.82543 0.20597 0.07329 0.0
C3215 C 0.81226 0.1912 0.07699 0.0
C3216 C 0.80754 0.18673 0.09727 0.0
H3217 H 0.7459 0.13244 0.98306 0.0
H3218 H 0.75949 0.15024 0.01164 0.0
C3219 C 0.8158 0.19679 0.1135 0.0
C3220 C 0.80378 0.18013 0.05987 0.0
H3221 H 0.78579 0.17675 0.01386 0.0
C3222 C 0.80158 0.16491 0.06082 0.0
C3223 C 0.79765 0.1843 0.04292 0.0
C3224 C 0.79852 0.20001 0.04156 0.0
C3225 C 0.79357 0.15383 0.0453 0.0
C3226 C 0.78808 0.15823 0.0279 0.0
C3227 C 0.79015 0.1734 0.02704 0.0
C3228 C 0.77983 0.14721 0.01064 0.0
C3229 C 0.79074 0.1374 0.04805 0.0
C3230 C 0.78675 0.13965 1.00036 0.0
C3231 C 0.77885 0.12924 0.98425 0.0
C3232 C 0.76405 0.1265 0.97776 0.0
C3233 C 0.75729 0.13432 0.98773 0.0
C3234 C 0.76507 0.14452 1.00405 0.0
H3235 H 0.79112 0.13469 0.06444 0.0
H3236 H 0.7792 0.12857 0.04159 0.0
H3237 H 0.80007 0.13628 0.04009 0.0
H3238 H 0.79833 0.14188 1.00468 0.0
H3239 H 0.78443 0.12351 0.97669 0.0
loop_
_geom_bond_atom_site_label_1
_geom_bond_atom_site_label_2
_geom_bond_distance
_geom_bond_site_symmetry_2
_ccdc_geom_bond_type
Cu0 N1 1.999 . S
Cu0 O6 1.974 1_554 S
Cu0 N11 1.985 1_554 S
Cu0 O20 1.959 . S
N1 Cu0 1.999 . S
N1 C3 1.263 . S
N1 C5 1.389 . S
N2 C3 1.358 . S
N2 C4 1.400 . S
C3 N1 1.263 . S
C3 N2 1.358 . S
C3 H9 0.930 1_455 S
C4 N2 1.400 . S
C4 C5 1.351 . S
C4 H21 0.930 . S
C5 N1 1.389 . S
C5 C4 1.351 . S
C5 H10 0.930 . S
O6 Cu0 1.974 1_556 S
O6 C16 1.282 1_455 S
C7 O8 1.261 1_455 S
C7 O20 1.251 . S
O8 C7 1.261 1_655 S
H9 C3 0.930 1_655 S
H10 C5 0.930 . S
N11 Cu0 1.985 1_556 S
N11 C13 1.335 . S
N11 C14 1.390 1_455 S
N12 C13 1.345 . S
N12 C15 1.336 1_455 S
C13 N11 1.335 . S
C13 N12 1.345 . S
C13 H18 0.930 . S
C14 N11 1.390 1_655 S
C14 C15 1.346 . S
C14 H19 0.930 . S
C15 N12 1.336 1_655 S
C15 C14 1.346 . S
C15 H22 0.929 . S
C16 O6 1.282 1_655 S
C16 O17 1.216 . S
O17 C16 1.216 . S
H18 C13 0.930 . S
H19 C14 0.930 . S
O20 Cu0 1.959 . S
O20 C7 1.251 . S
H21 C4 0.930 . S
H22 C15 0.929 . S
Cu23 N24 1.999 1_554 S
Cu23 O29 1.974 . S
Cu23 N34 1.985 . S
Cu23 O43 1.976 . S
N24 Cu23 1.999 1_556 S
N24 C26 1.263 . S
N24 C28 1.389 . S
N25 C26 1.358 . S
N25 C27 1.400 . S
C26 N24 1.263 . S
C26 N25 1.358 . S
C26 H32 0.930 . S
C27 N25 1.400 . S
C27 C28 1.351 . S
C27 H44 0.930 . S
C28 N24 1.389 . S
C28 C27 1.351 . S
C28 H33 0.930 . S
O29 Cu23 1.974 . S
O29 C39 1.282 . S
C30 O31 1.264 . S
C30 O43 1.251 . S
O31 C30 1.264 . S
H32 C26 0.930 . S
H33 C28 0.930 . S
N34 Cu23 1.985 . S
N34 C36 1.335 . S
N34 C37 1.390 . S
N35 C36 1.345 . S
N35 C38 1.336 . S
C36 N34 1.335 . S
C36 N35 1.345 . S
C36 H41 0.930 . S
C37 N34 1.390 . S
C37 C38 1.346 . S
C37 H42 0.930 . S
C38 N35 1.336 . S
C38 C37 1.346 . S
C38 H45 0.929 . S
C39 O29 1.282 . S
C39 O40 1.216 . S
O40 C39 1.216 . S
H41 C36 0.930 . S
H42 C37 0.930 . S
O43 Cu23 1.976 . S
O43 C30 1.251 . S
H44 C27 0.930 . S
H45 C38 0.929 . S
Cu46 N47 1.999 1_554 S
Cu46 O52 1.974 . S
Cu46 N57 1.985 . S
Cu46 O66 1.959 . S
N47 Cu46 1.999 1_556 S
N47 C49 1.263 . S
N47 C51 1.389 . S
N48 C49 1.358 . S
N48 C50 1.400 . S
C49 N47 1.263 . S
C49 N48 1.358 . S
C49 H55 0.930 . S
C50 N48 1.400 . S
C50 C51 1.351 . S
C50 H67 0.930 . S
C51 N47 1.389 . S
C51 C50 1.351 . S
C51 H56 0.930 . S
O52 Cu46 1.974 . S
O52 C62 1.282 . S
C53 O54 1.261 . S
C53 O66 1.251 . S
O54 C53 1.261 . S
H55 C49 0.930 . S
H56 C51 0.930 . S
N57 Cu46 1.985 . S
N57 C59 1.335 . S
N57 C60 1.390 . S
N58 C59 1.345 . S
N58 C61 1.336 . S
C59 N57 1.335 . S
C59 N58 1.345 . S
C59 H64 0.930 . S
C60 N57 1.390 . S
C60 C61 1.346 . S
C60 H65 0.930 . S
C61 N58 1.336 . S
C61 C60 1.346 . S
C61 H68 0.929 . S
C62 O52 1.282 . S
C62 O63 1.216 . S
O63 C62 1.216 . S
H64 C59 0.930 . S
H65 C60 0.930 . S
O66 Cu46 1.959 . S
O66 C53 1.251 . S
H67 C50 0.930 . S
H68 C61 0.929 . S
Cu69 N70 1.999 . S
Cu69 O75 1.974 . S
Cu69 N80 1.985 . S
Cu69 O89 1.959 . S
N70 Cu69 1.999 . S
N70 C72 1.263 . S
N70 C74 1.389 . S
N71 C72 1.358 . S
N71 C73 1.400 . S
C72 N70 1.263 . S
C72 N71 1.358 . S
C72 H78 0.930 . S
C73 N71 1.400 . S
C73 C74 1.351 . S
C73 H90 0.930 . S
C74 N70 1.389 . S
C74 C73 1.351 . S
C74 H79 0.930 . S
O75 Cu69 1.974 . S
O75 C85 1.282 . S
C76 O77 1.261 . S
C76 O89 1.251 . S
O77 C76 1.261 . S
H78 C72 0.930 . S
H79 C74 0.930 . S
N80 Cu69 1.985 . S
N80 C82 1.335 . S
N80 C83 1.390 . S
N81 C82 1.345 . S
N81 C84 1.336 . S
C82 N80 1.335 . S
C82 N81 1.345 . S
C82 H87 0.930 . S
C83 N80 1.390 . S
C83 C84 1.346 . S
C83 H88 0.930 . S
C84 N81 1.336 . S
C84 C83 1.346 . S
C84 H91 0.929 . S
C85 O75 1.282 . S
C85 O86 1.216 1_545 S
O86 C85 1.216 1_565 S
H87 C82 0.930 . S
H88 C83 0.930 . S
O89 Cu69 1.959 . S
O89 C76 1.251 . S
H90 C73 0.930 . S
H91 C84 0.929 . S
Cu92 N93 1.999 . S
Cu92 O98 1.974 . S
Cu92 N103 1.985 . S
Cu92 O112 1.959 . S
N93 Cu92 1.999 . S
N93 C95 1.263 . S
N93 C97 1.389 . S
N94 C95 1.358 . S
N94 C96 1.400 . S
C95 N93 1.263 . S
C95 N94 1.358 . S
C95 H101 0.930 . S
C96 N94 1.400 . S
C96 C97 1.351 . S
C96 H113 0.930 . S
C97 N93 1.389 . S
C97 C96 1.351 . S
C97 H102 0.930 . S
O98 Cu92 1.974 . S
O98 C108 1.282 . S
C99 O100 1.261 . S
C99 O112 1.251 . S
O100 C99 1.261 . S
H101 C95 0.930 . S
H102 C97 0.930 . S
N103 Cu92 1.985 . S
N103 C105 1.335 . S
N103 C106 1.390 . S
N104 C105 1.345 . S
N104 C107 1.336 . S
C105 N103 1.335 . S
C105 N104 1.345 . S
C105 H110 0.930 . S
C106 N103 1.390 . S
C106 C107 1.346 . S
C106 H111 0.930 . S
C107 N104 1.336 . S
C107 C106 1.346 . S
C107 H114 0.929 . S
C108 O98 1.282 . S
C108 O109 1.216 . S
O109 C108 1.216 . S
H110 C105 0.930 . S
H111 C106 0.930 . S
O112 Cu92 1.959 . S
O112 C99 1.251 . S
H113 C96 0.930 . S
H114 C107 0.929 . S
Cu115 N116 1.999 . S
Cu115 O121 1.974 . S
Cu115 N126 1.985 . S
Cu115 O135 1.959 . S
N116 Cu115 1.999 . S
N116 C118 1.263 . S
N116 C120 1.389 . S
N117 C118 1.358 . S
N117 C119 1.400 . S
C118 N116 1.263 . S
C118 N117 1.358 . S
C118 H124 0.930 . S
C119 N117 1.400 . S
C119 C120 1.351 . S
C119 H136 0.930 . S
C120 N116 1.389 . S
C120 C119 1.351 . S
C120 H125 0.930 . S
O121 Cu115 1.974 . S
O121 C131 1.282 . S
C122 O123 1.261 . S
C122 O135 1.251 . S
O123 C122 1.261 . S
H124 C118 0.930 . S
H125 C120 0.930 . S
N126 Cu115 1.985 . S
N126 C128 1.335 . S
N126 C129 1.390 . S
N127 C128 1.345 . S
N127 C130 1.336 . S
C128 N126 1.335 . S
C128 N127 1.345 . S
C128 H133 0.930 . S
C129 N126 1.390 . S
C129 C130 1.346 . S
C129 H134 0.930 . S
C130 N127 1.336 . S
C130 C129 1.346 . S
C130 H137 0.929 . S
C131 O121 1.282 . S
C131 O132 1.216 . S
O132 C131 1.216 . S
H133 C128 0.930 . S
H134 C129 0.930 . S
O135 Cu115 1.959 . S
O135 C122 1.251 . S
H136 C119 0.930 . S
H137 C130 0.929 . S
Cu138 N139 1.999 . S
Cu138 O144 1.974 . S
Cu138 N149 1.985 . S
Cu138 O158 1.959 . S
N139 Cu138 1.999 . S
N139 C141 1.263 . S
N139 C143 1.389 . S
N140 C141 1.358 . S
N140 C142 1.400 . S
C141 N139 1.263 . S
C141 N140 1.358 . S
C141 H147 0.930 . S
C142 N140 1.400 . S
C142 C143 1.351 . S
C142 H159 0.930 . S
C143 N139 1.389 . S
C143 C142 1.351 . S
C143 H148 0.930 . S
O144 Cu138 1.974 . S
O144 C154 1.282 . S
C145 O146 1.261 . S
C145 O158 1.251 . S
O146 C145 1.261 . S
H147 C141 0.930 . S
H148 C143 0.930 . S
N149 Cu138 1.985 . S
N149 C151 1.335 . S
N149 C152 1.390 . S
N150 C151 1.345 . S
N150 C153 1.336 . S
C151 N149 1.335 . S
C151 N150 1.345 . S
C151 H156 0.930 . S
C152 N149 1.390 . S
C152 C153 1.346 . S
C152 H157 0.930 . S
C153 N150 1.336 . S
C153 C152 1.346 . S
C153 H160 0.929 . S
C154 O144 1.282 . S
C154 O155 1.216 . S
O155 C154 1.216 . S
H156 C151 0.930 . S
H157 C152 0.930 . S
O158 Cu138 1.959 . S
O158 C145 1.251 . S
H159 C142 0.930 . S
H160 C153 0.929 . S
Cu161 N162 1.999 . S
Cu161 O167 1.974 . S
Cu161 N172 1.985 . S
Cu161 O181 1.959 . S
N162 Cu161 1.999 . S
N162 C164 1.263 . S
N162 C166 1.389 . S
N163 C164 1.358 . S
N163 C165 1.400 . S
C164 N162 1.263 . S
C164 N163 1.358 . S
C164 H170 0.930 . S
C165 N163 1.400 . S
C165 C166 1.351 . S
C165 H182 0.930 . S
C166 N162 1.389 . S
C166 C165 1.351 . S
C166 H171 0.930 . S
O167 Cu161 1.974 . S
O167 C177 1.282 . S
C168 O169 1.261 . S
C168 O181 1.251 . S
O169 C168 1.261 . S
H170 C164 0.930 . S
H171 C166 0.930 . S
N172 Cu161 1.985 . S
N172 C174 1.335 . S
N172 C175 1.390 . S
N173 C174 1.345 . S
N173 C176 1.336 . S
C174 N172 1.335 . S
C174 N173 1.345 . S
C174 H179 0.930 . S
C175 N172 1.390 . S
C175 C176 1.346 . S
C175 H180 0.930 . S
C176 N173 1.336 . S
C176 C175 1.346 . S
C176 H183 0.929 . S
C177 O167 1.282 . S
C177 O178 1.216 . S
O178 C177 1.216 . S
H179 C174 0.930 . S
H180 C175 0.930 . S
O181 Cu161 1.959 . S
O181 C168 1.251 . S
H182 C165 0.930 . S
H183 C176 0.929 . S
Cu184 N185 1.999 . S
Cu184 O190 1.974 . S
Cu184 N195 1.985 . S
Cu184 O204 1.959 . S
N185 Cu184 1.999 . S
N185 C187 1.263 . S
N185 C189 1.389 . S
N186 C187 1.358 . S
N186 C188 1.400 . S
C187 N185 1.263 . S
C187 N186 1.358 . S
C187 H193 0.930 . S
C188 N186 1.400 . S
C188 C189 1.351 . S
C188 H205 0.930 . S
C189 N185 1.389 . S
C189 C188 1.351 . S
C189 H194 0.930 . S
O190 Cu184 1.974 . S
O190 C200 1.282 . S
C191 O192 1.261 . S
C191 O204 1.251 . S
O192 C191 1.261 . S
H193 C187 0.930 . S
H194 C189 0.930 . S
N195 Cu184 1.985 . S
N195 C197 1.335 . S
N195 C198 1.390 . S
N196 C197 1.345 . S
N196 C199 1.336 . S
C197 N195 1.335 . S
C197 N196 1.345 . S
C197 H202 0.930 . S
C198 N195 1.390 . S
C198 C199 1.346 . S
C198 H203 0.930 . S
C199 N196 1.336 . S
C199 C198 1.346 . S
C199 H206 0.929 . S
C200 O190 1.282 . S
C200 O201 1.216 . S
O201 C200 1.216 . S
H202 C197 0.930 . S
H203 C198 0.930 . S
O204 Cu184 1.959 . S
O204 C191 1.251 . S
H205 C188 0.930 . S
H206 C199 0.929 . S
Cu207 N208 1.999 . S
Cu207 O213 1.974 . S
Cu207 N218 1.985 . S
Cu207 O227 1.959 . S
N208 Cu207 1.999 . S
N208 C210 1.263 . S
N208 C212 1.389 . S
N209 C210 1.358 . S
N209 C211 1.400 . S
C210 N208 1.263 . S
C210 N209 1.358 . S
C210 H216 0.930 . S
C211 N209 1.400 . S
C211 C212 1.351 . S
C211 H228 0.930 . S
C212 N208 1.389 . S
C212 C211 1.351 . S
C212 H217 0.930 . S
O213 Cu207 1.974 . S
O213 C223 1.282 . S
C214 O215 1.261 . S
C214 O227 1.251 . S
O215 C214 1.261 . S
H216 C210 0.930 . S
H217 C212 0.930 . S
N218 Cu207 1.985 . S
N218 C220 1.335 . S
N218 C221 1.390 . S
N219 C220 1.345 . S
N219 C222 1.336 . S
C220 N218 1.335 . S
C220 N219 1.345 . S
C220 H225 0.930 . S
C221 N218 1.390 . S
C221 C222 1.346 . S
C221 H226 0.930 . S
C222 N219 1.336 . S
C222 C221 1.346 . S
C222 H229 0.929 . S
C223 O213 1.282 . S
C223 O224 1.216 . S
O224 C223 1.216 . S
H225 C220 0.930 . S
H226 C221 0.930 . S
O227 Cu207 1.959 . S
O227 C214 1.251 . S
H228 C211 0.930 . S
H229 C222 0.929 . S
Cu230 N231 1.999 . S
Cu230 O236 1.974 . S
Cu230 N241 1.985 . S
Cu230 O250 1.959 . S
N231 Cu230 1.999 . S
N231 C233 1.263 . S
N231 C235 1.389 . S
N232 C233 1.358 . S
N232 C234 1.400 . S
C233 N231 1.263 . S
C233 N232 1.358 . S
C233 H239 0.930 . S
C234 N232 1.400 . S
C234 C235 1.351 . S
C234 H251 0.930 . S
C235 N231 1.389 . S
C235 C234 1.351 . S
C235 H240 0.930 . S
O236 Cu230 1.974 . S
O236 C246 1.282 . S
C237 O238 1.261 . S
C237 O250 1.251 . S
O238 C237 1.261 . S
H239 C233 0.930 . S
H240 C235 0.930 . S
N241 Cu230 1.985 . S
N241 C243 1.335 . S
N241 C244 1.390 . S
N242 C243 1.345 . S
N242 C245 1.336 . S
C243 N241 1.335 . S
C243 N242 1.345 . S
C243 H248 0.930 . S
C244 N241 1.390 . S
C244 C245 1.346 . S
C244 H249 0.930 . S
C245 N242 1.336 . S
C245 C244 1.346 . S
C245 H252 0.929 . S
C246 O236 1.282 . S
C246 O247 1.216 . S
O247 C246 1.216 . S
H248 C243 0.930 . S
H249 C244 0.930 . S
O250 Cu230 1.959 . S
O250 C237 1.251 . S
H251 C234 0.930 . S
H252 C245 0.929 . S
Cu253 N254 1.999 . S
Cu253 O259 1.974 . S
Cu253 N264 1.985 . S
Cu253 O273 1.959 . S
N254 Cu253 1.999 . S
N254 C256 1.263 . S
N254 C258 1.389 . S
N255 C256 1.358 . S
N255 C257 1.400 . S
C256 N254 1.263 . S
C256 N255 1.358 . S
C256 H262 0.930 . S
C257 N255 1.400 . S
C257 C258 1.351 . S
C257 H274 0.930 . S
C258 N254 1.389 . S
C258 C257 1.351 . S
C258 H263 0.930 . S
O259 Cu253 1.974 . S
O259 C269 1.282 . S
C260 O261 1.261 . S
C260 O273 1.251 . S
O261 C260 1.261 . S
H262 C256 0.930 . S
H263 C258 0.930 . S
N264 Cu253 1.985 . S
N264 C266 1.335 . S
N264 C267 1.390 . S
N265 C266 1.345 . S
N265 C268 1.336 . S
C266 N264 1.335 . S
C266 N265 1.345 . S
C266 H271 0.930 . S
C267 N264 1.390 . S
C267 C268 1.346 . S
C267 H272 0.930 . S
C268 N265 1.336 . S
C268 C267 1.346 . S
C268 H275 0.929 . S
C269 O259 1.282 . S
C269 O270 1.216 . S
O270 C269 1.216 . S
H271 C266 0.930 . S
H272 C267 0.930 . S
O273 Cu253 1.959 . S
O273 C260 1.251 . S
H274 C257 0.930 . S
H275 C268 0.929 . S
Cu276 N277 1.999 . S
Cu276 O282 1.974 . S
Cu276 N287 1.985 . S
Cu276 O296 1.959 . S
N277 Cu276 1.999 . S
N277 C279 1.263 . S
N277 C281 1.389 . S
N278 C279 1.358 . S
N278 C280 1.400 . S
C279 N277 1.263 . S
C279 N278 1.358 . S
C279 H285 0.930 . S
C280 N278 1.400 . S
C280 C281 1.351 . S
C280 H297 0.930 . S
C281 N277 1.389 . S
C281 C280 1.351 . S
C281 H286 0.930 . S
O282 Cu276 1.974 . S
O282 C292 1.282 . S
C283 O284 1.261 . S
C283 O296 1.251 . S
O284 C283 1.261 . S
H285 C279 0.930 . S
H286 C281 0.930 . S
N287 Cu276 1.985 . S
N287 C289 1.335 . S
N287 C290 1.390 . S
N288 C289 1.345 . S
N288 C291 1.336 . S
C289 N287 1.335 . S
C289 N288 1.345 . S
C289 H294 0.930 . S
C290 N287 1.390 . S
C290 C291 1.346 . S
C290 H295 0.930 . S
C291 N288 1.336 . S
C291 C290 1.346 . S
C291 H298 0.929 . S
C292 O282 1.282 . S
C292 O293 1.216 . S
O293 C292 1.216 . S
H294 C289 0.930 . S
H295 C290 0.930 . S
O296 Cu276 1.959 . S
O296 C283 1.251 . S
H297 C280 0.930 . S
H298 C291 0.929 . S
Cu299 N300 1.999 . S
Cu299 O305 1.974 . S
Cu299 N310 1.985 . S
Cu299 O319 1.959 . S
N300 Cu299 1.999 . S
N300 C302 1.263 . S
N300 C304 1.389 . S
N301 C302 1.358 . S
N301 C303 1.400 . S
C302 N300 1.263 . S
C302 N301 1.358 . S
C302 H308 0.930 . S
C303 N301 1.400 . S
C303 C304 1.351 . S
C303 H320 0.930 . S
C304 N300 1.389 . S
C304 C303 1.351 . S
C304 H309 0.930 . S
O305 Cu299 1.974 . S
O305 C315 1.282 . S
C306 O307 1.261 . S
C306 O319 1.251 . S
O307 C306 1.261 . S
H308 C302 0.930 . S
H309 C304 0.930 . S
N310 Cu299 1.985 . S
N310 C312 1.335 . S
N310 C313 1.390 . S
N311 C312 1.345 . S
N311 C314 1.336 . S
C312 N310 1.335 . S
C312 N311 1.345 . S
C312 H317 0.930 . S
C313 N310 1.390 . S
C313 C314 1.346 . S
C313 H318 0.930 . S
C314 N311 1.336 . S
C314 C313 1.346 . S
C314 H321 0.929 . S
C315 O305 1.282 . S
C315 O316 1.216 . S
O316 C315 1.216 . S
H317 C312 0.930 . S
H318 C313 0.930 . S
O319 Cu299 1.959 . S
O319 C306 1.251 . S
H320 C303 0.930 . S
H321 C314 0.929 . S
Cu322 N323 1.999 . S
Cu322 O328 1.974 . S
Cu322 N333 1.985 . S
Cu322 O342 1.959 . S
N323 Cu322 1.999 . S
N323 C325 1.263 . S
N323 C327 1.389 . S
N324 C325 1.358 . S
N324 C326 1.400 . S
C325 N323 1.263 . S
C325 N324 1.358 . S
C325 H331 0.930 . S
C326 N324 1.400 . S
C326 C327 1.351 . S
C326 H343 0.930 . S
C327 N323 1.389 . S
C327 C326 1.351 . S
C327 H332 0.930 . S
O328 Cu322 1.974 . S
O328 C338 1.282 . S
C329 O330 1.261 . S
C329 O342 1.251 . S
O330 C329 1.261 . S
H331 C325 0.930 . S
H332 C327 0.930 . S
N333 Cu322 1.985 . S
N333 C335 1.335 . S
N333 C336 1.390 . S
N334 C335 1.345 . S
N334 C337 1.336 . S
C335 N333 1.335 . S
C335 N334 1.345 . S
C335 H340 0.930 . S
C336 N333 1.390 . S
C336 C337 1.346 . S
C336 H341 0.930 . S
C337 N334 1.336 . S
C337 C336 1.346 . S
C337 H344 0.929 . S
C338 O328 1.282 . S
C338 O339 1.216 . S
O339 C338 1.216 . S
H340 C335 0.930 . S
H341 C336 0.930 . S
O342 Cu322 1.959 . S
O342 C329 1.251 . S
H343 C326 0.930 . S
H344 C337 0.929 . S
Cu345 N346 1.999 . S
Cu345 O351 1.974 . S
Cu345 N356 1.985 . S
Cu345 O365 1.959 . S
N346 Cu345 1.999 . S
N346 C348 1.263 . S
N346 C350 1.389 . S
N347 C348 1.358 . S
N347 C349 1.400 . S
C348 N346 1.263 . S
C348 N347 1.358 . S
C348 H354 0.930 . S
C349 N347 1.400 . S
C349 C350 1.351 . S
C349 H366 0.930 . S
C350 N346 1.389 . S
C350 C349 1.351 . S
C350 H355 0.930 . S
O351 Cu345 1.974 . S
O351 C361 1.282 . S
C352 O353 1.261 . S
C352 O365 1.251 . S
O353 C352 1.261 . S
H354 C348 0.930 . S
H355 C350 0.930 . S
N356 Cu345 1.985 . S
N356 C358 1.335 . S
N356 C359 1.390 . S
N357 C358 1.345 . S
N357 C360 1.336 . S
C358 N356 1.335 . S
C358 N357 1.345 . S
C358 H363 0.930 . S
C359 N356 1.390 . S
C359 C360 1.346 . S
C359 H364 0.930 . S
C360 N357 1.336 . S
C360 C359 1.346 . S
C360 H367 0.929 . S
C361 O351 1.282 . S
C361 O362 1.216 . S
O362 C361 1.216 . S
H363 C358 0.930 . S
H364 C359 0.930 . S
O365 Cu345 1.959 . S
O365 C352 1.251 . S
H366 C349 0.930 . S
H367 C360 0.929 . S
Cu368 N369 1.999 . S
Cu368 O374 1.974 . S
Cu368 N379 1.985 . S
Cu368 O388 1.959 . S
N369 Cu368 1.999 . S
N369 C371 1.263 . S
N369 C373 1.389 . S
N370 C371 1.358 . S
N370 C372 1.400 . S
C371 N369 1.263 . S
C371 N370 1.358 . S
C371 H377 0.930 . S
C372 N370 1.400 . S
C372 C373 1.351 . S
C372 H389 0.930 . S
C373 N369 1.389 . S
C373 C372 1.351 . S
C373 H378 0.930 . S
O374 Cu368 1.974 . S
O374 C384 1.282 . S
C375 O376 1.261 . S
C375 O388 1.251 . S
O376 C375 1.261 . S
H377 C371 0.930 . S
H378 C373 0.930 . S
N379 Cu368 1.985 . S
N379 C381 1.335 . S
N379 C382 1.390 . S
N380 C381 1.345 . S
N380 C383 1.336 . S
C381 N379 1.335 . S
C381 N380 1.345 . S
C381 H386 0.930 . S
C382 N379 1.390 . S
C382 C383 1.346 . S
C382 H387 0.930 . S
C383 N380 1.336 . S
C383 C382 1.346 . S
C383 H390 0.929 . S
C384 O374 1.282 . S
C384 O385 1.216 . S
O385 C384 1.216 . S
H386 C381 0.930 . S
H387 C382 0.930 . S
O388 Cu368 1.959 . S
O388 C375 1.251 . S
H389 C372 0.930 . S
H390 C383 0.929 . S
Cu391 N392 1.999 . S
Cu391 O397 1.974 . S
Cu391 N402 1.985 . S
Cu391 O411 1.959 . S
N392 Cu391 1.999 . S
N392 C394 1.263 . S
N392 C396 1.389 . S
N393 C394 1.358 . S
N393 C395 1.400 . S
C394 N392 1.263 . S
C394 N393 1.358 . S
C394 H400 0.930 . S
C395 N393 1.400 . S
C395 C396 1.351 . S
C395 H412 0.930 . S
C396 N392 1.389 . S
C396 C395 1.351 . S
C396 H401 0.930 . S
O397 Cu391 1.974 . S
O397 C407 1.282 . S
C398 O399 1.261 . S
C398 O411 1.251 . S
O399 C398 1.261 . S
H400 C394 0.930 . S
H401 C396 0.930 . S
N402 Cu391 1.985 . S
N402 C404 1.335 . S
N402 C405 1.390 . S
N403 C404 1.345 . S
N403 C406 1.336 . S
C404 N402 1.335 . S
C404 N403 1.345 . S
C404 H409 0.930 . S
C405 N402 1.390 . S
C405 C406 1.346 . S
C405 H410 0.930 . S
C406 N403 1.336 . S
C406 C405 1.346 . S
C406 H413 0.929 . S
C407 O397 1.282 . S
C407 O408 1.216 . S
O408 C407 1.216 . S
H409 C404 0.930 . S
H410 C405 0.930 . S
O411 Cu391 1.959 . S
O411 C398 1.251 . S
H412 C395 0.930 . S
H413 C406 0.929 . S
In414 O415 2.294 . S
In414 O416 2.326 . S
In414 O420 2.266 . S
In414 O421 2.326 . S
In414 O422 2.266 . S
In414 O423 2.326 . S
In414 O425 2.294 . S
In414 O426 2.326 . S
O415 In414 2.294 . S
O415 C424 1.240 . S
O416 In414 2.326 . S
O416 C424 1.252 . S
C417 O420 1.252 . S
C417 O421 1.260 . S
C418 O425 1.240 . S
C418 O426 1.252 . S
C419 O422 1.252 . S
C419 O423 1.260 . S
O420 In414 2.266 . S
O420 C417 1.252 . S
O421 In414 2.326 . S
O421 C417 1.260 . S
O422 In414 2.266 . S
O422 C419 1.252 . S
O423 In414 2.326 . S
O423 C419 1.260 . S
C424 O415 1.240 . S
C424 O416 1.252 . S
O425 In414 2.294 . S
O425 C418 1.240 . S
O426 In414 2.326 . S
O426 C418 1.252 . S
In427 O428 2.294 . S
In427 O429 2.326 . S
In427 O433 2.266 . S
In427 O434 2.326 . S
In427 O435 2.266 . S
In427 O436 2.326 . S
In427 O438 2.294 . S
In427 O439 2.326 . S
O428 In427 2.294 . S
O428 C437 1.240 . S
O429 In427 2.326 . S
O429 C437 1.252 . S
C430 O433 1.252 . S
C430 O434 1.260 . S
C431 O438 1.240 . S
C431 O439 1.252 . S
C432 O435 1.252 . S
C432 O436 1.260 . S
O433 In427 2.266 . S
O433 C430 1.252 . S
O434 In427 2.326 . S
O434 C430 1.260 . S
O435 In427 2.266 . S
O435 C432 1.252 . S
O436 In427 2.326 . S
O436 C432 1.260 . S
C437 O428 1.240 . S
C437 O429 1.252 . S
O438 In427 2.294 . S
O438 C431 1.240 . S
O439 In427 2.326 . S
O439 C431 1.252 . S
In440 O441 2.294 . S
In440 O442 2.326 . S
In440 O446 2.266 . S
In440 O447 2.326 . S
In440 O448 2.266 . S
In440 O449 2.326 . S
In440 O451 2.294 . S
In440 O452 2.326 . S
O441 In440 2.294 . S
O441 C450 1.240 . S
O442 In440 2.326 . S
O442 C450 1.252 . S
C443 O446 1.252 . S
C443 O447 1.260 . S
C444 O451 1.240 . S
C444 O452 1.252 . S
C445 O448 1.252 . S
C445 O449 1.260 . S
O446 In440 2.266 . S
O446 C443 1.252 . S
O447 In440 2.326 . S
O447 C443 1.260 . S
O448 In440 2.266 . S
O448 C445 1.252 . S
O449 In440 2.326 . S
O449 C445 1.260 . S
C450 O441 1.240 . S
C450 O442 1.252 . S
O451 In440 2.294 . S
O451 C444 1.240 . S
O452 In440 2.326 . S
O452 C444 1.252 . S
In453 O454 2.294 . S
In453 O455 2.326 . S
In453 O459 2.266 . S
In453 O460 2.326 . S
In453 O461 2.266 . S
In453 O462 2.326 . S
In453 O464 2.294 . S
In453 O465 2.326 . S
O454 In453 2.294 . S
O454 C463 1.240 . S
O455 In453 2.326 . S
O455 C463 1.252 . S
C456 O459 1.252 . S
C456 O460 1.260 . S
C457 O464 1.240 . S
C457 O465 1.252 . S
C458 O461 1.252 . S
C458 O462 1.260 . S
O459 In453 2.266 . S
O459 C456 1.252 . S
O460 In453 2.326 . S
O460 C456 1.260 . S
O461 In453 2.266 . S
O461 C458 1.252 . S
O462 In453 2.326 . S
O462 C458 1.260 . S
C463 O454 1.240 . S
C463 O455 1.252 . S
O464 In453 2.294 . S
O464 C457 1.240 . S
O465 In453 2.326 . S
O465 C457 1.252 . S
In466 O467 2.294 . S
In466 O468 2.326 . S
In466 O472 2.266 . S
In466 O473 2.326 . S
In466 O474 2.266 . S
In466 O475 2.326 . S
In466 O477 2.294 . S
In466 O478 2.326 . S
O467 In466 2.294 . S
O467 C476 1.240 . S
O468 In466 2.326 . S
O468 C476 1.252 . S
C469 O472 1.252 . S
C469 O473 1.260 . S
C470 O477 1.240 . S
C470 O478 1.252 . S
C471 O474 1.252 . S
C471 O475 1.260 . S
O472 In466 2.266 . S
O472 C469 1.252 . S
O473 In466 2.326 . S
O473 C469 1.260 . S
O474 In466 2.266 . S
O474 C471 1.252 . S
O475 In466 2.326 . S
O475 C471 1.260 . S
C476 O467 1.240 . S
C476 O468 1.252 . S
O477 In466 2.294 . S
O477 C470 1.240 . S
O478 In466 2.326 . S
O478 C470 1.252 . S
In479 O480 2.294 . S
In479 O481 2.326 . S
In479 O485 2.266 . S
In479 O486 2.326 . S
In479 O487 2.266 . S
In479 O488 2.326 . S
In479 O490 2.294 . S
In479 O491 2.326 . S
O480 In479 2.294 . S
O480 C489 1.240 . S
O481 In479 2.326 . S
O481 C489 1.252 . S
C482 O485 1.252 . S
C482 O486 1.260 . S
C483 O490 1.240 . S
C483 O491 1.252 . S
C484 O487 1.252 . S
C484 O488 1.260 . S
O485 In479 2.266 . S
O485 C482 1.252 . S
O486 In479 2.326 . S
O486 C482 1.260 . S
O487 In479 2.266 . S
O487 C484 1.252 . S
O488 In479 2.326 . S
O488 C484 1.260 . S
C489 O480 1.240 . S
C489 O481 1.252 . S
O490 In479 2.294 . S
O490 C483 1.240 . S
O491 In479 2.326 . S
O491 C483 1.252 . S
In492 O493 2.294 1_565 S
In492 O494 2.326 1_565 S
In492 O498 2.266 . S
In492 O499 2.326 . S
In492 O500 2.266 . S
In492 O501 2.303 1_565 S
In492 O503 2.294 . S
In492 O504 2.326 . S
O493 In492 2.294 1_545 S
O493 C502 1.240 . S
O494 In492 2.326 1_545 S
O494 C502 1.252 . S
C495 O498 1.252 . S
C495 O499 1.260 . S
C496 O503 1.240 . S
C496 O504 1.252 . S
C497 O500 1.252 . S
C497 O501 1.260 1_565 S
O498 In492 2.266 . S
O498 C495 1.252 . S
O499 In492 2.326 . S
O499 C495 1.260 . S
O500 In492 2.266 . S
O500 C497 1.252 . S
O501 In492 2.303 1_545 S
O501 C497 1.260 1_545 S
C502 O493 1.240 . S
C502 O494 1.252 . S
O503 In492 2.294 . S
O503 C496 1.240 . S
O504 In492 2.326 . S
O504 C496 1.252 . S
In505 O506 2.294 . S
In505 O507 2.326 . S
In505 O511 2.266 . S
In505 O512 2.326 . S
In505 O513 2.266 . S
In505 O514 2.326 . S
In505 O516 2.294 . S
In505 O517 2.326 . S
O506 In505 2.294 . S
O506 C515 1.240 . S
O507 In505 2.326 . S
O507 C515 1.252 . S
C508 O511 1.252 . S
C508 O512 1.260 . S
C509 O516 1.240 . S
C509 O517 1.252 . S
C510 O513 1.252 . S
C510 O514 1.260 . S
O511 In505 2.266 . S
O511 C508 1.252 . S
O512 In505 2.326 . S
O512 C508 1.260 . S
O513 In505 2.266 . S
O513 C510 1.252 . S
O514 In505 2.326 . S
O514 C510 1.260 . S
C515 O506 1.240 . S
C515 O507 1.252 . S
O516 In505 2.294 . S
O516 C509 1.240 . S
O517 In505 2.326 . S
O517 C509 1.252 . S
In518 O519 2.294 . S
In518 O520 2.326 . S
In518 O524 2.266 . S
In518 O525 2.326 . S
In518 O526 2.266 . S
In518 O527 2.326 . S
In518 O529 2.294 . S
In518 O530 2.326 . S
O519 In518 2.294 . S
O519 C528 1.240 . S
O520 In518 2.326 . S
O520 C528 1.252 . S
C521 O524 1.252 . S
C521 O525 1.260 . S
C522 O529 1.240 . S
C522 O530 1.252 . S
C523 O526 1.252 . S
C523 O527 1.260 . S
O524 In518 2.266 . S
O524 C521 1.252 . S
O525 In518 2.326 . S
O525 C521 1.260 . S
O526 In518 2.266 . S
O526 C523 1.252 . S
O527 In518 2.326 . S
O527 C523 1.260 . S
C528 O519 1.240 . S
C528 O520 1.252 . S
O529 In518 2.294 . S
O529 C522 1.240 . S
O530 In518 2.326 . S
O530 C522 1.252 . S
In531 O532 2.294 . S
In531 O533 2.326 . S
In531 O537 2.266 . S
In531 O538 2.326 . S
In531 O539 2.266 . S
In531 O540 2.326 . S
In531 O542 2.294 . S
In531 O543 2.326 . S
O532 In531 2.294 . S
O532 C541 1.240 . S
O533 In531 2.326 . S
O533 C541 1.252 . S
C534 O537 1.252 . S
C534 O538 1.260 . S
C535 O542 1.240 . S
C535 O543 1.252 . S
C536 O539 1.252 . S
C536 O540 1.260 . S
O537 In531 2.266 . S
O537 C534 1.252 . S
O538 In531 2.326 . S
O538 C534 1.260 . S
O539 In531 2.266 . S
O539 C536 1.252 . S
O540 In531 2.326 . S
O540 C536 1.260 . S
C541 O532 1.240 . S
C541 O533 1.252 . S
O542 In531 2.294 . S
O542 C535 1.240 . S
O543 In531 2.326 . S
O543 C535 1.252 . S
In544 O545 2.313 . S
In544 O546 2.327 . S
In544 O550 2.278 1_565 S
In544 O551 2.320 1_565 S
In544 O552 2.239 1_565 S
In544 O553 2.310 1_565 S
In544 O555 2.290 . S
In544 O556 2.346 . S
O545 In544 2.313 . S
O545 C554 1.240 . S
O546 In544 2.327 . S
O546 C554 1.252 . S
C547 O550 1.252 . S
C547 O551 1.260 . S
C548 O555 1.240 . S
C548 O556 1.252 . S
C549 O552 1.252 . S
C549 O553 1.260 . S
O550 In544 2.278 1_545 S
O550 C547 1.252 . S
O551 In544 2.320 1_545 S
O551 C547 1.260 . S
O552 In544 2.239 1_545 S
O552 C549 1.252 . S
O553 In544 2.310 1_545 S
O553 C549 1.260 . S
C554 O545 1.240 . S
C554 O546 1.252 . S
O555 In544 2.290 . S
O555 C548 1.240 . S
O556 In544 2.346 . S
O556 C548 1.252 . S
In557 O558 2.294 . S
In557 O559 2.326 . S
In557 O563 2.266 . S
In557 O564 2.326 . S
In557 O565 2.266 . S
In557 O566 2.326 . S
In557 O568 2.294 . S
In557 O569 2.326 . S
O558 In557 2.294 . S
O558 C567 1.240 . S
O559 In557 2.326 . S
O559 C567 1.252 . S
C560 O563 1.252 . S
C560 O564 1.260 . S
C561 O568 1.240 . S
C561 O569 1.252 . S
C562 O565 1.252 . S
C562 O566 1.260 . S
O563 In557 2.266 . S
O563 C560 1.252 . S
O564 In557 2.326 . S
O564 C560 1.260 . S
O565 In557 2.266 . S
O565 C562 1.252 . S
O566 In557 2.326 . S
O566 C562 1.260 . S
C567 O558 1.240 . S
C567 O559 1.252 . S
O568 In557 2.294 . S
O568 C561 1.240 . S
O569 In557 2.326 . S
O569 C561 1.252 . S
In570 O571 2.294 . S
In570 O572 2.326 . S
In570 O576 2.266 . S
In570 O577 2.326 . S
In570 O578 2.266 . S
In570 O579 2.326 . S
In570 O581 2.294 . S
In570 O582 2.326 . S
O571 In570 2.294 . S
O571 C580 1.240 . S
O572 In570 2.326 . S
O572 C580 1.252 . S
C573 O576 1.252 . S
C573 O577 1.260 . S
C574 O581 1.240 . S
C574 O582 1.252 . S
C575 O578 1.252 . S
C575 O579 1.260 . S
O576 In570 2.266 . S
O576 C573 1.252 . S
O577 In570 2.326 . S
O577 C573 1.260 . S
O578 In570 2.266 . S
O578 C575 1.252 . S
O579 In570 2.326 . S
O579 C575 1.260 . S
C580 O571 1.240 . S
C580 O572 1.252 . S
O581 In570 2.294 . S
O581 C574 1.240 . S
O582 In570 2.326 . S
O582 C574 1.252 . S
In583 O584 2.294 . S
In583 O585 2.326 . S
In583 O589 2.266 . S
In583 O590 2.326 . S
In583 O591 2.266 . S
In583 O592 2.326 . S
In583 O594 2.294 . S
In583 O595 2.326 . S
O584 In583 2.294 . S
O584 C593 1.240 . S
O585 In583 2.326 . S
O585 C593 1.252 . S
C586 O589 1.252 . S
C586 O590 1.260 . S
C587 O594 1.240 . S
C587 O595 1.252 . S
C588 O591 1.252 . S
C588 O592 1.260 . S
O589 In583 2.266 . S
O589 C586 1.252 . S
O590 In583 2.326 . S
O590 C586 1.260 . S
O591 In583 2.266 . S
O591 C588 1.252 . S
O592 In583 2.326 . S
O592 C588 1.260 . S
C593 O584 1.240 . S
C593 O585 1.252 . S
O594 In583 2.294 . S
O594 C587 1.240 . S
O595 In583 2.326 . S
O595 C587 1.252 . S
In596 O597 2.294 . S
In596 O598 2.326 . S
In596 O602 2.266 1_655 S
In596 O603 2.326 1_655 S
In596 O604 2.266 . S
In596 O605 2.326 . S
In596 O607 2.294 . S
In596 O608 2.326 . S
O597 In596 2.294 . S
O597 C606 1.240 . S
O598 In596 2.326 . S
O598 C606 1.252 . S
C599 O602 1.252 . S
C599 O603 1.260 . S
C600 O607 1.240 . S
C600 O608 1.252 . S
C601 O604 1.252 . S
C601 O605 1.260 . S
O602 In596 2.266 1_455 S
O602 C599 1.252 . S
O603 In596 2.326 1_455 S
O603 C599 1.260 . S
O604 In596 2.266 . S
O604 C601 1.252 . S
O605 In596 2.326 . S
O605 C601 1.260 . S
C606 O597 1.240 . S
C606 O598 1.252 . S
O607 In596 2.294 . S
O607 C600 1.240 . S
O608 In596 2.326 . S
O608 C600 1.252 . S
In609 O610 2.294 . S
In609 O611 2.326 . S
In609 O615 2.266 . S
In609 O616 2.326 . S
In609 O617 2.266 . S
In609 O618 2.326 . S
In609 O620 2.294 . S
In609 O621 2.326 . S
O610 In609 2.294 . S
O610 C619 1.240 . S
O611 In609 2.326 . S
O611 C619 1.252 . S
C612 O615 1.252 . S
C612 O616 1.260 . S
C613 O620 1.240 . S
C613 O621 1.252 . S
C614 O617 1.252 . S
C614 O618 1.260 . S
O615 In609 2.266 . S
O615 C612 1.252 . S
O616 In609 2.326 . S
O616 C612 1.260 . S
O617 In609 2.266 . S
O617 C614 1.252 . S
O618 In609 2.326 . S
O618 C614 1.260 . S
C619 O610 1.240 . S
C619 O611 1.252 . S
O620 In609 2.294 . S
O620 C613 1.240 . S
O621 In609 2.326 . S
O621 C613 1.252 . S
In622 O623 2.294 . S
In622 O624 2.326 . S
In622 O628 2.266 1_655 S
In622 O629 2.326 1_655 S
In622 O630 2.266 . S
In622 O631 2.326 1_655 S
In622 O633 2.294 . S
In622 O634 2.326 . S
O623 In622 2.294 . S
O623 C632 1.240 . S
O624 In622 2.326 . S
O624 C632 1.252 . S
C625 O628 1.252 . S
C625 O629 1.260 . S
C626 O633 1.240 . S
C626 O634 1.252 . S
C627 O630 1.252 1_455 S
C627 O631 1.260 . S
O628 In622 2.266 1_455 S
O628 C625 1.252 . S
O629 In622 2.326 1_455 S
O629 C625 1.260 . S
O630 In622 2.266 . S
O630 C627 1.252 1_655 S
O631 In622 2.326 1_455 S
O631 C627 1.260 . S
C632 O623 1.240 . S
C632 O624 1.252 . S
O633 In622 2.294 . S
O633 C626 1.240 . S
O634 In622 2.326 . S
O634 C626 1.252 . S
In635 O636 2.294 . S
In635 O637 2.326 . S
In635 O641 2.266 . S
In635 O642 2.326 . S
In635 O643 2.266 . S
In635 O644 2.326 . S
In635 O646 2.294 . S
In635 O647 2.326 . S
O636 In635 2.294 . S
O636 C645 1.240 . S
O637 In635 2.326 . S
O637 C645 1.252 . S
C638 O641 1.252 . S
C638 O642 1.260 . S
C639 O646 1.240 . S
C639 O647 1.252 . S
C640 O643 1.252 . S
C640 O644 1.260 . S
O641 In635 2.266 . S
O641 C638 1.252 . S
O642 In635 2.326 . S
O642 C638 1.260 . S
O643 In635 2.266 . S
O643 C640 1.252 . S
O644 In635 2.326 . S
O644 C640 1.260 . S
C645 O636 1.240 . S
C645 O637 1.252 . S
O646 In635 2.294 . S
O646 C639 1.240 . S
O647 In635 2.326 . S
O647 C639 1.252 . S
H648 C656 0.929 1_655 S
H649 C658 0.930 . S
H650 C660 0.930 . S
H651 C663 0.929 . S
H652 C666 0.899 1_655 S
H653 C668 0.960 . S
H654 C668 0.960 . S
H655 C668 0.960 . S
C656 H648 0.929 1_455 S
C656 C657 1.377 . S
C656 C658 1.384 . S
C657 C656 1.377 . S
C657 C663 1.390 . S
C658 H649 0.930 . S
C658 C656 1.384 . S
C658 C659 1.372 . S
C659 C658 1.372 . S
C659 C660 1.400 . S
C659 C664 1.490 . S
C660 H650 0.930 . S
C660 C659 1.400 . S
C660 C663 1.386 . S
H661 C677 0.930 . S
H662 C678 0.931 . S
C663 H651 0.929 . S
C663 C657 1.390 . S
C663 C660 1.386 . S
C664 C659 1.490 . S
C664 C666 1.395 . S
C664 C667 1.403 . S
H665 C671 0.930 . S
C666 H652 0.899 1_455 S
C666 C664 1.395 . S
C666 C669 1.403 . S
C667 C664 1.403 . S
C667 C668 1.524 . S
C667 C671 1.400 . S
C668 H653 0.960 . S
C668 H654 0.960 . S
C668 H655 0.960 . S
C668 C667 1.524 . S
C669 C666 1.403 . S
C669 C670 1.392 . S
C669 C673 1.495 . S
C670 C669 1.392 . S
C670 C671 1.385 . S
C670 C672 1.478 . S
C671 H665 0.930 . S
C671 C667 1.400 . S
C671 C670 1.385 . S
C672 C670 1.478 . S
C672 C674 1.381 . S
C672 C678 1.383 . S
C673 C669 1.495 . S
C673 H679 0.959 1_455 S
C673 H680 0.961 . S
C673 H681 0.960 . S
C674 C672 1.381 . S
C674 C675 1.394 . S
C674 H682 0.930 . S
C675 C674 1.394 . S
C675 C676 1.383 . S
C675 H683 0.929 . S
C676 C675 1.383 . S
C676 C677 1.377 . S
C677 H661 0.930 . S
C677 C676 1.377 . S
C677 C678 1.379 . S
C678 H662 0.931 . S
C678 C672 1.383 . S
C678 C677 1.379 . S
H679 C673 0.959 1_655 S
H680 C673 0.961 . S
H681 C673 0.960 . S
H682 C674 0.930 . S
H683 C675 0.929 . S
H684 C692 0.929 . S
H685 C694 0.930 . S
H686 C696 0.930 . S
H687 C699 0.929 . S
H688 C702 0.930 . S
H689 C704 0.960 . S
H690 C704 0.960 . S
H691 C704 0.960 . S
C692 H684 0.929 . S
C692 C693 1.377 . S
C692 C694 1.384 . S
C693 C692 1.377 . S
C693 C699 1.390 . S
C694 H685 0.930 . S
C694 C692 1.384 . S
C694 C695 1.372 . S
C695 C694 1.372 . S
C695 C696 1.400 . S
C695 C700 1.490 . S
C696 H686 0.930 . S
C696 C695 1.400 . S
C696 C699 1.386 . S
H697 C713 0.930 . S
H698 C714 0.931 . S
C699 H687 0.929 . S
C699 C693 1.390 . S
C699 C696 1.386 . S
C700 C695 1.490 . S
C700 C702 1.395 . S
C700 C703 1.403 . S
H701 C707 0.930 . S
C702 H688 0.930 . S
C702 C700 1.395 . S
C702 C705 1.403 . S
C703 C700 1.403 . S
C703 C704 1.524 . S
C703 C707 1.400 . S
C704 H689 0.960 . S
C704 H690 0.960 . S
C704 H691 0.960 . S
C704 C703 1.524 . S
C705 C702 1.403 . S
C705 C706 1.392 . S
C705 C709 1.495 . S
C706 C705 1.392 . S
C706 C707 1.385 . S
C706 C708 1.478 . S
C707 H701 0.930 . S
C707 C703 1.400 . S
C707 C706 1.385 . S
C708 C706 1.478 . S
C708 C710 1.381 . S
C708 C714 1.383 . S
C709 C705 1.495 . S
C709 H715 0.959 . S
C709 H716 0.961 . S
C709 H717 0.960 . S
C710 C708 1.381 . S
C710 C711 1.394 . S
C710 H718 0.930 . S
C711 C710 1.394 . S
C711 C712 1.383 . S
C711 H719 0.929 . S
C712 C711 1.383 . S
C712 C713 1.377 . S
C713 H697 0.930 . S
C713 C712 1.377 . S
C713 C714 1.379 . S
C714 H698 0.931 . S
C714 C708 1.383 . S
C714 C713 1.379 . S
H715 C709 0.959 . S
H716 C709 0.961 . S
H717 C709 0.960 . S
H718 C710 0.930 . S
H719 C711 0.929 . S
H720 C728 0.929 . S
H721 C730 0.930 . S
H722 C732 0.930 . S
H723 C735 0.929 . S
H724 C738 0.930 . S
H725 C740 0.960 . S
H726 C740 0.960 . S
H727 C740 0.960 . S
C728 H720 0.929 . S
C728 C729 1.377 . S
C728 C730 1.384 . S
C729 C728 1.377 . S
C729 C735 1.390 . S
C730 H721 0.930 . S
C730 C728 1.384 . S
C730 C731 1.372 . S
C731 C730 1.372 . S
C731 C732 1.400 . S
C731 C736 1.490 . S
C732 H722 0.930 . S
C732 C731 1.400 . S
C732 C735 1.386 . S
H733 C749 0.930 . S
H734 C750 0.931 . S
C735 H723 0.929 . S
C735 C729 1.390 . S
C735 C732 1.386 . S
C736 C731 1.490 . S
C736 C738 1.395 . S
C736 C739 1.403 . S
H737 C743 0.930 . S
C738 H724 0.930 . S
C738 C736 1.395 . S
C738 C741 1.403 . S
C739 C736 1.403 . S
C739 C740 1.524 . S
C739 C743 1.400 . S
C740 H725 0.960 . S
C740 H726 0.960 . S
C740 H727 0.960 . S
C740 C739 1.524 . S
C741 C738 1.403 . S
C741 C742 1.392 . S
C741 C745 1.495 . S
C742 C741 1.392 . S
C742 C743 1.385 . S
C742 C744 1.478 . S
C743 H737 0.930 . S
C743 C739 1.400 . S
C743 C742 1.385 . S
C744 C742 1.478 . S
C744 C746 1.381 . S
C744 C750 1.383 . S
C745 C741 1.495 . S
C745 H751 0.959 . S
C745 H752 0.961 . S
C745 H753 0.960 . S
C746 C744 1.381 . S
C746 C747 1.394 . S
C746 H754 0.930 . S
C747 C746 1.394 . S
C747 C748 1.383 . S
C747 H755 0.929 . S
C748 C747 1.383 . S
C748 C749 1.377 . S
C749 H733 0.930 . S
C749 C748 1.377 . S
C749 C750 1.379 . S
C750 H734 0.931 . S
C750 C744 1.383 . S
C750 C749 1.379 . S
H751 C745 0.959 . S
H752 C745 0.961 . S
H753 C745 0.960 . S
H754 C746 0.930 . S
H755 C747 0.929 . S
H756 C764 0.929 . S
H757 C766 0.930 . S
H758 C768 0.930 . S
H759 C771 0.929 . S
H760 C774 0.930 . S
H761 C776 0.960 . S
H762 C776 0.960 . S
H763 C776 0.960 . S
C764 H756 0.929 . S
C764 C765 1.377 . S
C764 C766 1.384 . S
C765 C764 1.377 . S
C765 C771 1.390 . S
C766 H757 0.930 . S
C766 C764 1.384 . S
C766 C767 1.372 . S
C767 C766 1.372 . S
C767 C768 1.400 . S
C767 C772 1.490 . S
C768 H758 0.930 . S
C768 C767 1.400 . S
C768 C771 1.386 . S
H769 C785 0.930 . S
H770 C786 0.931 . S
C771 H759 0.929 . S
C771 C765 1.390 . S
C771 C768 1.386 . S
C772 C767 1.490 . S
C772 C774 1.395 . S
C772 C775 1.403 . S
H773 C779 0.930 . S
C774 H760 0.930 . S
C774 C772 1.395 . S
C774 C777 1.403 . S
C775 C772 1.403 . S
C775 C776 1.524 . S
C775 C779 1.400 . S
C776 H761 0.960 . S
C776 H762 0.960 . S
C776 H763 0.960 . S
C776 C775 1.524 . S
C777 C774 1.403 . S
C777 C778 1.392 . S
C777 C781 1.495 . S
C778 C777 1.392 . S
C778 C779 1.385 . S
C778 C780 1.478 . S
C779 H773 0.930 . S
C779 C775 1.400 . S
C779 C778 1.385 . S
C780 C778 1.478 . S
C780 C782 1.381 . S
C780 C786 1.383 . S
C781 C777 1.495 . S
C781 H787 0.959 . S
C781 H788 0.961 . S
C781 H789 0.960 . S
C782 C780 1.381 . S
C782 C783 1.394 . S
C782 H790 0.930 . S
C783 C782 1.394 . S
C783 C784 1.383 . S
C783 H791 0.929 . S
C784 C783 1.383 . S
C784 C785 1.377 . S
C785 H769 0.930 . S
C785 C784 1.377 . S
C785 C786 1.379 . S
C786 H770 0.931 . S
C786 C780 1.383 . S
C786 C785 1.379 . S
H787 C781 0.959 . S
H788 C781 0.961 . S
H789 C781 0.960 . S
H790 C782 0.930 . S
H791 C783 0.929 . S
H792 C800 0.929 . S
H793 C802 0.930 . S
H794 C804 0.930 . S
H795 C807 0.929 . S
H796 C810 0.930 . S
H797 C812 0.960 . S
H798 C812 0.960 . S
H799 C812 0.960 . S
C800 H792 0.929 . S
C800 C801 1.377 . S
C800 C802 1.384 . S
C801 C800 1.377 . S
C801 C807 1.390 . S
C802 H793 0.930 . S
C802 C800 1.384 . S
C802 C803 1.372 . S
C803 C802 1.372 . S
C803 C804 1.400 . S
C803 C808 1.490 . S
C804 H794 0.930 . S
C804 C803 1.400 . S
C804 C807 1.386 . S
H805 C821 0.930 . S
H806 C822 0.931 . S
C807 H795 0.929 . S
C807 C801 1.390 . S
C807 C804 1.386 . S
C808 C803 1.490 . S
C808 C810 1.395 . S
C808 C811 1.403 . S
H809 C815 0.930 . S
C810 H796 0.930 . S
C810 C808 1.395 . S
C810 C813 1.403 . S
C811 C808 1.403 . S
C811 C812 1.524 . S
C811 C815 1.400 . S
C812 H797 0.960 . S
C812 H798 0.960 . S
C812 H799 0.960 . S
C812 C811 1.524 . S
C813 C810 1.403 . S
C813 C814 1.392 . S
C813 C817 1.495 . S
C814 C813 1.392 . S
C814 C815 1.385 . S
C814 C816 1.478 . S
C815 H809 0.930 . S
C815 C811 1.400 . S
C815 C814 1.385 . S
C816 C814 1.478 . S
C816 C818 1.381 . S
C816 C822 1.383 . S
C817 C813 1.495 . S
C817 H823 0.959 . S
C817 H824 0.961 . S
C817 H825 0.960 . S
C818 C816 1.381 . S
C818 C819 1.394 . S
C818 H826 0.886 1_455 S
C819 C818 1.394 . S
C819 C820 1.383 . S
C819 H827 0.929 1_455 S
C820 C819 1.383 . S
C820 C821 1.377 . S
C821 H805 0.930 . S
C821 C820 1.377 . S
C821 C822 1.379 . S
C822 H806 0.931 . S
C822 C816 1.383 . S
C822 C821 1.379 . S
H823 C817 0.959 . S
H824 C817 0.961 . S
H825 C817 0.960 . S
H826 C818 0.886 1_655 S
H827 C819 0.929 1_655 S
H828 C836 0.929 . S
H829 C838 0.930 . S
H830 C840 0.930 . S
H831 C843 0.929 . S
H832 C846 0.930 . S
H833 C848 0.960 . S
H834 C848 0.960 . S
H835 C848 0.960 . S
C836 H828 0.929 . S
C836 C837 1.377 . S
C836 C838 1.384 . S
C837 C836 1.377 . S
C837 C843 1.390 . S
C838 H829 0.930 . S
C838 C836 1.384 . S
C838 C839 1.372 . S
C839 C838 1.372 . S
C839 C840 1.400 . S
C839 C844 1.490 . S
C840 H830 0.930 . S
C840 C839 1.400 . S
C840 C843 1.386 . S
H841 C857 0.930 . S
H842 C858 0.931 . S
C843 H831 0.929 . S
C843 C837 1.390 . S
C843 C840 1.386 . S
C844 C839 1.490 . S
C844 C846 1.395 . S
C844 C847 1.403 . S
H845 C851 0.930 . S
C846 H832 0.930 . S
C846 C844 1.395 . S
C846 C849 1.403 . S
C847 C844 1.403 . S
C847 C848 1.524 . S
C847 C851 1.400 . S
C848 H833 0.960 . S
C848 H834 0.960 . S
C848 H835 0.960 . S
C848 C847 1.524 . S
C849 C846 1.403 . S
C849 C850 1.392 . S
C849 C853 1.495 . S
C850 C849 1.392 . S
C850 C851 1.385 . S
C850 C852 1.478 . S
C851 H845 0.930 . S
C851 C847 1.400 . S
C851 C850 1.385 . S
C852 C850 1.478 . S
C852 C854 1.381 . S
C852 C858 1.383 . S
C853 C849 1.495 . S
C853 H859 0.959 . S
C853 H860 0.961 . S
C853 H861 0.960 . S
C854 C852 1.381 . S
C854 C855 1.394 . S
C854 H862 0.930 . S
C855 C854 1.394 . S
C855 C856 1.383 . S
C855 H863 0.929 . S
C856 C855 1.383 . S
C856 C857 1.377 . S
C857 H841 0.930 . S
C857 C856 1.377 . S
C857 C858 1.379 . S
C858 H842 0.931 . S
C858 C852 1.383 . S
C858 C857 1.379 . S
H859 C853 0.959 . S
H860 C853 0.961 . S
H861 C853 0.960 . S
H862 C854 0.930 . S
H863 C855 0.929 . S
H864 C872 0.929 1_554 S
H865 C874 0.930 . S
H866 C876 0.930 . S
H867 C879 0.929 . S
H868 C882 0.930 . S
H869 C884 0.960 . S
H870 C884 0.960 1_554 S
H871 C884 0.960 . S
C872 H864 0.929 1_556 S
C872 C873 1.377 1_455 S
C872 C874 1.384 . S
C873 C872 1.377 1_655 S
C873 C879 1.390 . S
C874 H865 0.930 . S
C874 C872 1.384 . S
C874 C875 1.372 1_455 S
C875 C874 1.372 1_655 S
C875 C876 1.400 . S
C875 C880 1.490 . S
C876 H866 0.930 . S
C876 C875 1.400 . S
C876 C879 1.386 . S
H877 C893 0.930 . S
H878 C894 0.931 . S
C879 H867 0.929 . S
C879 C873 1.390 . S
C879 C876 1.386 . S
C880 C875 1.490 . S
C880 C882 1.395 1_655 S
C880 C883 1.403 . S
H881 C887 0.930 . S
C882 H868 0.930 . S
C882 C880 1.395 1_455 S
C882 C885 1.403 . S
C883 C880 1.403 . S
C883 C884 1.524 . S
C883 C887 1.400 . S
C884 H869 0.960 . S
C884 H870 0.960 1_556 S
C884 H871 0.960 . S
C884 C883 1.524 . S
C885 C882 1.403 . S
C885 C886 1.392 1_455 S
C885 C889 1.495 . S
C886 C885 1.392 1_655 S
C886 C887 1.385 . S
C886 C888 1.478 . S
C887 H881 0.930 . S
C887 C883 1.400 . S
C887 C886 1.385 . S
C888 C886 1.478 . S
C888 C890 1.381 1_655 S
C888 C894 1.383 . S
C889 C885 1.495 . S
C889 H895 0.959 . S
C889 H896 0.961 . S
C889 H897 0.960 . S
C890 C888 1.381 1_455 S
C890 C891 1.394 . S
C890 H898 0.930 . S
C891 C890 1.394 . S
C891 C892 1.383 1_455 S
C891 H899 0.929 . S
C892 C891 1.383 1_655 S
C892 C893 1.377 . S
C893 H877 0.930 . S
C893 C892 1.377 . S
C893 C894 1.379 . S
C894 H878 0.931 . S
C894 C888 1.383 . S
C894 C893 1.379 . S
H895 C889 0.959 . S
H896 C889 0.961 . S
H897 C889 0.960 . S
H898 C890 0.930 . S
H899 C891 0.929 . S
H900 C908 0.929 . S
H901 C910 0.930 . S
H902 C912 0.930 . S
H903 C915 0.929 . S
H904 C918 0.930 . S
H905 C920 0.960 . S
H906 C920 0.960 . S
H907 C920 0.960 . S
C908 H900 0.929 . S
C908 C909 1.377 . S
C908 C910 1.384 . S
C909 C908 1.377 . S
C909 C915 1.390 1_556 S
C910 H901 0.930 . S
C910 C908 1.384 . S
C910 C911 1.372 . S
C911 C910 1.372 . S
C911 C912 1.400 1_556 S
C911 C916 1.490 . S
C912 H902 0.930 . S
C912 C911 1.400 1_554 S
C912 C915 1.386 . S
H913 C929 0.930 . S
H914 C930 0.931 . S
C915 H903 0.929 . S
C915 C909 1.390 1_554 S
C915 C912 1.386 . S
C916 C911 1.490 . S
C916 C918 1.395 . S
C916 C919 1.403 . S
H917 C923 0.930 . S
C918 H904 0.930 . S
C918 C916 1.395 . S
C918 C921 1.403 . S
C919 C916 1.403 . S
C919 C920 1.524 1_556 S
C919 C923 1.400 . S
C920 H905 0.960 . S
C920 H906 0.960 . S
C920 H907 0.960 . S
C920 C919 1.524 1_554 S
C921 C918 1.403 . S
C921 C922 1.392 . S
C921 C925 1.495 . S
C922 C921 1.392 . S
C922 C923 1.385 . S
C922 C924 1.478 . S
C923 H917 0.930 . S
C923 C919 1.400 . S
C923 C922 1.385 . S
C924 C922 1.478 . S
C924 C926 1.381 . S
C924 C930 1.383 . S
C925 C921 1.495 . S
C925 H931 0.959 . S
C925 H932 0.961 . S
C925 H933 0.960 . S
C926 C924 1.381 . S
C926 C927 1.394 . S
C926 H934 0.930 . S
C927 C926 1.394 . S
C927 C928 1.383 . S
C927 H935 0.929 . S
C928 C927 1.383 . S
C928 C929 1.377 . S
C929 H913 0.930 . S
C929 C928 1.377 . S
C929 C930 1.379 . S
C930 H914 0.931 . S
C930 C924 1.383 . S
C930 C929 1.379 . S
H931 C925 0.959 . S
H932 C925 0.961 . S
H933 C925 0.960 . S
H934 C926 0.930 . S
H935 C927 0.929 . S
H936 C944 0.929 . S
H937 C946 0.930 . S
H938 C948 0.930 . S
H939 C951 0.929 . S
H940 C954 0.930 . S
H941 C956 0.960 . S
H942 C956 0.960 . S
H943 C956 0.960 . S
C944 H936 0.929 . S
C944 C945 1.377 . S
C944 C946 1.384 . S
C945 C944 1.377 . S
C945 C951 1.390 1_556 S
C946 H937 0.930 . S
C946 C944 1.384 . S
C946 C947 1.372 . S
C947 C946 1.372 . S
C947 C948 1.400 1_556 S
C947 C952 1.490 . S
C948 H938 0.930 . S
C948 C947 1.400 1_554 S
C948 C951 1.386 . S
H949 C965 0.930 . S
H950 C966 0.931 . S
C951 H939 0.929 . S
C951 C945 1.390 1_554 S
C951 C948 1.386 . S
C952 C947 1.490 . S
C952 C954 1.395 . S
C952 C955 1.403 . S
H953 C959 0.930 . S
C954 H940 0.930 . S
C954 C952 1.395 . S
C954 C957 1.403 . S
C955 C952 1.403 . S
C955 C956 1.524 1_556 S
C955 C959 1.400 . S
C956 H941 0.960 . S
C956 H942 0.960 . S
C956 H943 0.960 . S
C956 C955 1.524 1_554 S
C957 C954 1.403 . S
C957 C958 1.392 . S
C957 C961 1.495 . S
C958 C957 1.392 . S
C958 C959 1.385 . S
C958 C960 1.478 . S
C959 H953 0.930 . S
C959 C955 1.400 . S
C959 C958 1.385 . S
C960 C958 1.478 . S
C960 C962 1.381 . S
C960 C966 1.383 . S
C961 C957 1.495 . S
C961 H967 0.959 . S
C961 H968 0.961 . S
C961 H969 0.960 . S
C962 C960 1.381 . S
C962 C963 1.394 . S
C962 H970 0.930 . S
C963 C962 1.394 . S
C963 C964 1.383 . S
C963 H971 0.929 . S
C964 C963 1.383 . S
C964 C965 1.377 . S
C965 H949 0.930 . S
C965 C964 1.377 . S
C965 C966 1.379 . S
C966 H950 0.931 . S
C966 C960 1.383 . S
C966 C965 1.379 . S
H967 C961 0.959 . S
H968 C961 0.961 . S
H969 C961 0.960 . S
H970 C962 0.930 . S
H971 C963 0.929 . S
H972 C980 0.929 . S
H973 C982 0.930 . S
H974 C984 0.930 . S
H975 C987 0.929 . S
H976 C990 0.930 . S
H977 C992 0.960 . S
H978 C992 0.960 . S
H979 C992 0.960 . S
C980 H972 0.929 . S
C980 C981 1.377 . S
C980 C982 1.384 . S
C981 C980 1.377 . S
C981 C987 1.390 . S
C982 H973 0.930 . S
C982 C980 1.384 . S
C982 C983 1.372 . S
C983 C982 1.372 . S
C983 C984 1.400 . S
C983 C988 1.490 . S
C984 H974 0.930 . S
C984 C983 1.400 . S
C984 C987 1.386 . S
H985 C1001 0.930 . S
H986 C1002 0.931 . S
C987 H975 0.929 . S
C987 C981 1.390 . S
C987 C984 1.386 . S
C988 C983 1.490 . S
C988 C990 1.395 1_545 S
C988 C991 1.403 . S
H989 C995 0.930 . S
C990 H976 0.930 . S
C990 C988 1.395 1_565 S
C990 C993 1.403 . S
C991 C988 1.403 . S
C991 C992 1.524 . S
C991 C995 1.400 . S
C992 H977 0.960 . S
C992 H978 0.960 . S
C992 H979 0.960 . S
C992 C991 1.524 . S
C993 C990 1.403 . S
C993 C994 1.392 . S
C993 C997 1.495 . S
C994 C993 1.392 . S
C994 C995 1.385 1_565 S
C994 C996 1.478 . S
C995 H989 0.930 . S
C995 C991 1.400 . S
C995 C994 1.385 1_545 S
C996 C994 1.478 . S
C996 C998 1.381 . S
C996 C1002 1.383 . S
C997 C993 1.495 . S
C997 H1003 0.959 . S
C997 H1004 0.961 . S
C997 H1005 0.960 . S
C998 C996 1.381 . S
C998 C999 1.394 . S
C998 H1006 0.918 1_565 S
C999 C998 1.394 . S
C999 C1000 1.383 . S
C999 H1007 0.929 1_565 S
C1000 C999 1.383 . S
C1000 C1001 1.377 . S
C1001 H985 0.930 . S
C1001 C1000 1.377 . S
C1001 C1002 1.379 . S
C1002 H986 0.931 . S
C1002 C996 1.383 . S
C1002 C1001 1.379 . S
H1003 C997 0.959 . S
H1004 C997 0.961 . S
H1005 C997 0.960 . S
H1006 C998 0.918 1_545 S
H1007 C999 0.929 1_545 S
H1008 C1016 0.929 . S
H1009 C1018 0.930 . S
H1010 C1020 0.930 . S
H1011 C1023 0.929 . S
H1012 C1026 0.930 . S
H1013 C1028 0.960 . S
H1014 C1028 0.960 . S
H1015 C1028 0.960 . S
C1016 H1008 0.929 . S
C1016 C1017 1.377 . S
C1016 C1018 1.384 . S
C1017 C1016 1.377 . S
C1017 C1023 1.390 . S
C1018 H1009 0.930 . S
C1018 C1016 1.384 . S
C1018 C1019 1.372 . S
C1019 C1018 1.372 . S
C1019 C1020 1.400 . S
C1019 C1024 1.490 . S
C1020 H1010 0.930 . S
C1020 C1019 1.400 . S
C1020 C1023 1.386 . S
H1021 C1037 0.930 . S
H1022 C1038 0.931 . S
C1023 H1011 0.929 . S
C1023 C1017 1.390 . S
C1023 C1020 1.386 . S
C1024 C1019 1.490 . S
C1024 C1026 1.395 . S
C1024 C1027 1.403 . S
H1025 C1031 0.930 . S
C1026 H1012 0.930 . S
C1026 C1024 1.395 . S
C1026 C1029 1.403 . S
C1027 C1024 1.403 . S
C1027 C1028 1.524 . S
C1027 C1031 1.400 . S
C1028 H1013 0.960 . S
C1028 H1014 0.960 . S
C1028 H1015 0.960 . S
C1028 C1027 1.524 . S
C1029 C1026 1.403 . S
C1029 C1030 1.392 . S
C1029 C1033 1.495 . S
C1030 C1029 1.392 . S
C1030 C1031 1.385 . S
C1030 C1032 1.478 . S
C1031 H1025 0.930 . S
C1031 C1027 1.400 . S
C1031 C1030 1.385 . S
C1032 C1030 1.478 . S
C1032 C1034 1.381 . S
C1032 C1038 1.383 . S
C1033 C1029 1.495 . S
C1033 H1039 0.959 . S
C1033 H1040 0.961 . S
C1033 H1041 0.960 . S
C1034 C1032 1.381 . S
C1034 C1035 1.394 . S
C1034 H1042 0.930 . S
C1035 C1034 1.394 . S
C1035 C1036 1.383 . S
C1035 H1043 0.929 . S
C1036 C1035 1.383 . S
C1036 C1037 1.377 . S
C1037 H1021 0.930 . S
C1037 C1036 1.377 . S
C1037 C1038 1.379 . S
C1038 H1022 0.931 . S
C1038 C1032 1.383 . S
C1038 C1037 1.379 . S
H1039 C1033 0.959 . S
H1040 C1033 0.961 . S
H1041 C1033 0.960 . S
H1042 C1034 0.930 . S
H1043 C1035 0.929 . S
H1044 C1052 0.929 . S
H1045 C1054 0.930 . S
H1046 C1056 0.930 . S
H1047 C1059 0.929 . S
H1048 C1062 0.930 . S
H1049 C1064 0.960 . S
H1050 C1064 0.960 . S
H1051 C1064 0.960 . S
C1052 H1044 0.929 . S
C1052 C1053 1.377 . S
C1052 C1054 1.384 . S
C1053 C1052 1.377 . S
C1053 C1059 1.390 . S
C1054 H1045 0.930 . S
C1054 C1052 1.384 . S
C1054 C1055 1.372 . S
C1055 C1054 1.372 . S
C1055 C1056 1.400 . S
C1055 C1060 1.490 . S
C1056 H1046 0.930 . S
C1056 C1055 1.400 . S
C1056 C1059 1.386 . S
H1057 C1073 0.930 . S
H1058 C1074 0.931 . S
C1059 H1047 0.929 . S
C1059 C1053 1.390 . S
C1059 C1056 1.386 . S
C1060 C1055 1.490 . S
C1060 C1062 1.395 . S
C1060 C1063 1.403 . S
H1061 C1067 0.930 . S
C1062 H1048 0.930 . S
C1062 C1060 1.395 . S
C1062 C1065 1.403 . S
C1063 C1060 1.403 . S
C1063 C1064 1.524 . S
C1063 C1067 1.400 . S
C1064 H1049 0.960 . S
C1064 H1050 0.960 . S
C1064 H1051 0.960 . S
C1064 C1063 1.524 . S
C1065 C1062 1.403 . S
C1065 C1066 1.392 . S
C1065 C1069 1.495 . S
C1066 C1065 1.392 . S
C1066 C1067 1.385 . S
C1066 C1068 1.478 . S
C1067 H1061 0.930 . S
C1067 C1063 1.400 . S
C1067 C1066 1.385 . S
C1068 C1066 1.478 . S
C1068 C1070 1.381 . S
C1068 C1074 1.383 . S
C1069 C1065 1.495 . S
C1069 H1075 0.959 . S
C1069 H1076 0.961 . S
C1069 H1077 0.960 . S
C1070 C1068 1.381 . S
C1070 C1071 1.394 . S
C1070 H1078 0.930 . S
C1071 C1070 1.394 . S
C1071 C1072 1.383 . S
C1071 H1079 0.929 . S
C1072 C1071 1.383 . S
C1072 C1073 1.377 . S
C1073 H1057 0.930 . S
C1073 C1072 1.377 . S
C1073 C1074 1.379 . S
C1074 H1058 0.931 . S
C1074 C1068 1.383 . S
C1074 C1073 1.379 . S
H1075 C1069 0.959 . S
H1076 C1069 0.961 . S
H1077 C1069 0.960 . S
H1078 C1070 0.930 . S
H1079 C1071 0.929 . S
H1080 C1088 0.929 . S
H1081 C1090 0.930 . S
H1082 C1092 0.930 . S
H1083 C1095 0.929 . S
H1084 C1098 0.930 . S
H1085 C1100 0.960 . S
H1086 C1100 0.960 . S
H1087 C1100 0.960 . S
C1088 H1080 0.929 . S
C1088 C1089 1.377 . S
C1088 C1090 1.384 . S
C1089 C1088 1.377 . S
C1089 C1095 1.390 . S
C1090 H1081 0.930 . S
C1090 C1088 1.384 . S
C1090 C1091 1.372 . S
C1091 C1090 1.372 . S
C1091 C1092 1.400 . S
C1091 C1096 1.490 . S
C1092 H1082 0.930 . S
C1092 C1091 1.400 . S
C1092 C1095 1.386 . S
H1093 C1109 0.930 . S
H1094 C1110 0.931 . S
C1095 H1083 0.929 . S
C1095 C1089 1.390 . S
C1095 C1092 1.386 . S
C1096 C1091 1.490 . S
C1096 C1098 1.395 . S
C1096 C1099 1.403 . S
H1097 C1103 0.930 . S
C1098 H1084 0.930 . S
C1098 C1096 1.395 . S
C1098 C1101 1.403 . S
C1099 C1096 1.403 . S
C1099 C1100 1.524 . S
C1099 C1103 1.400 . S
C1100 H1085 0.960 . S
C1100 H1086 0.960 . S
C1100 H1087 0.960 . S
C1100 C1099 1.524 . S
C1101 C1098 1.403 . S
C1101 C1102 1.392 . S
C1101 C1105 1.495 . S
C1102 C1101 1.392 . S
C1102 C1103 1.385 . S
C1102 C1104 1.478 . S
C1103 H1097 0.930 . S
C1103 C1099 1.400 . S
C1103 C1102 1.385 . S
C1104 C1102 1.478 . S
C1104 C1106 1.381 . S
C1104 C1110 1.383 . S
C1105 C1101 1.495 . S
C1105 H1111 0.959 . S
C1105 H1112 0.961 . S
C1105 H1113 0.960 . S
C1106 C1104 1.381 . S
C1106 C1107 1.394 . S
C1106 H1114 0.930 . S
C1107 C1106 1.394 . S
C1107 C1108 1.383 . S
C1107 H1115 0.929 . S
C1108 C1107 1.383 . S
C1108 C1109 1.377 . S
C1109 H1093 0.930 . S
C1109 C1108 1.377 . S
C1109 C1110 1.379 . S
C1110 H1094 0.931 . S
C1110 C1104 1.383 . S
C1110 C1109 1.379 . S
H1111 C1105 0.959 . S
H1112 C1105 0.961 . S
H1113 C1105 0.960 . S
H1114 C1106 0.930 . S
H1115 C1107 0.929 . S
H1116 C1124 0.929 . S
H1117 C1126 0.930 . S
H1118 C1128 0.930 . S
H1119 C1131 0.929 . S
H1120 C1134 0.930 . S
H1121 C1136 0.960 . S
H1122 C1136 0.960 . S
H1123 C1136 0.960 . S
C1124 H1116 0.929 . S
C1124 C1125 1.377 . S
C1124 C1126 1.384 . S
C1125 C1124 1.377 . S
C1125 C1131 1.390 . S
C1126 H1117 0.930 . S
C1126 C1124 1.384 . S
C1126 C1127 1.372 . S
C1127 C1126 1.372 . S
C1127 C1128 1.400 . S
C1127 C1132 1.490 . S
C1128 H1118 0.930 . S
C1128 C1127 1.400 . S
C1128 C1131 1.386 . S
H1129 C1145 0.930 . S
H1130 C1146 0.931 . S
C1131 H1119 0.929 . S
C1131 C1125 1.390 . S
C1131 C1128 1.386 . S
C1132 C1127 1.490 . S
C1132 C1134 1.395 . S
C1132 C1135 1.403 . S
H1133 C1139 0.930 . S
C1134 H1120 0.930 . S
C1134 C1132 1.395 . S
C1134 C1137 1.403 . S
C1135 C1132 1.403 . S
C1135 C1136 1.524 . S
C1135 C1139 1.400 1_565 S
C1136 H1121 0.960 . S
C1136 H1122 0.960 . S
C1136 H1123 0.960 . S
C1136 C1135 1.524 . S
C1137 C1134 1.403 . S
C1137 C1138 1.392 1_565 S
C1137 C1141 1.495 . S
C1138 C1137 1.392 1_545 S
C1138 C1139 1.385 . S
C1138 C1140 1.478 . S
C1139 H1133 0.930 . S
C1139 C1135 1.400 1_545 S
C1139 C1138 1.385 . S
C1140 C1138 1.478 . S
C1140 C1142 1.381 . S
C1140 C1146 1.383 . S
C1141 C1137 1.495 . S
C1141 H1147 0.959 . S
C1141 H1148 0.961 . S
C1141 H1149 0.987 . S
C1142 C1140 1.381 . S
C1142 C1143 1.394 . S
C1142 H1150 0.930 . S
C1143 C1142 1.394 . S
C1143 C1144 1.383 . S
C1143 H1151 0.929 . S
C1144 C1143 1.383 . S
C1144 C1145 1.377 . S
C1145 H1129 0.930 . S
C1145 C1144 1.377 . S
C1145 C1146 1.379 . S
C1146 H1130 0.931 . S
C1146 C1140 1.383 . S
C1146 C1145 1.379 . S
H1147 C1141 0.959 . S
H1148 C1141 0.961 . S
H1149 C1141 0.987 . S
H1150 C1142 0.930 . S
H1151 C1143 0.929 . S
H1152 C1160 0.929 . S
H1153 C1162 0.930 . S
H1154 C1164 0.930 . S
H1155 C1167 0.929 . S
H1156 C1170 0.930 . S
H1157 C1172 0.960 . S
H1158 C1172 0.960 . S
H1159 C1172 0.960 . S
C1160 H1152 0.929 . S
C1160 C1161 1.377 . S
C1160 C1162 1.384 . S
C1161 C1160 1.377 . S
C1161 C1167 1.390 . S
C1162 H1153 0.930 . S
C1162 C1160 1.384 . S
C1162 C1163 1.372 . S
C1163 C1162 1.372 . S
C1163 C1164 1.400 . S
C1163 C1168 1.490 . S
C1164 H1154 0.930 . S
C1164 C1163 1.400 . S
C1164 C1167 1.386 . S
H1165 C1181 0.930 . S
H1166 C1182 0.931 . S
C1167 H1155 0.929 . S
C1167 C1161 1.390 . S
C1167 C1164 1.386 . S
C1168 C1163 1.490 . S
C1168 C1170 1.395 . S
C1168 C1171 1.403 . S
H1169 C1175 0.930 . S
C1170 H1156 0.930 . S
C1170 C1168 1.395 . S
C1170 C1173 1.403 . S
C1171 C1168 1.403 . S
C1171 C1172 1.524 . S
C1171 C1175 1.400 . S
C1172 H1157 0.960 . S
C1172 H1158 0.960 . S
C1172 H1159 0.960 . S
C1172 C1171 1.524 . S
C1173 C1170 1.403 . S
C1173 C1174 1.392 . S
C1173 C1177 1.495 . S
C1174 C1173 1.392 . S
C1174 C1175 1.385 . S
C1174 C1176 1.478 . S
C1175 H1169 0.930 . S
C1175 C1171 1.400 . S
C1175 C1174 1.385 . S
C1176 C1174 1.478 . S
C1176 C1178 1.381 . S
C1176 C1182 1.383 . S
C1177 C1173 1.495 . S
C1177 H1183 0.959 . S
C1177 H1184 0.961 . S
C1177 H1185 0.960 . S
C1178 C1176 1.381 . S
C1178 C1179 1.394 . S
C1178 H1186 0.930 . S
C1179 C1178 1.394 . S
C1179 C1180 1.383 . S
C1179 H1187 0.929 . S
C1180 C1179 1.383 . S
C1180 C1181 1.377 . S
C1181 H1165 0.930 . S
C1181 C1180 1.377 . S
C1181 C1182 1.379 . S
C1182 H1166 0.931 . S
C1182 C1176 1.383 . S
C1182 C1181 1.379 . S
H1183 C1177 0.959 . S
H1184 C1177 0.961 . S
H1185 C1177 0.960 . S
H1186 C1178 0.930 . S
H1187 C1179 0.929 . S
H1188 C1196 0.929 . S
H1189 C1198 0.930 . S
H1190 C1200 0.930 . S
H1191 C1203 0.929 . S
H1192 C1206 0.930 . S
H1193 C1208 0.960 . S
H1194 C1208 0.960 . S
H1195 C1208 0.960 . S
C1196 H1188 0.929 . S
C1196 C1197 1.377 . S
C1196 C1198 1.384 . S
C1197 C1196 1.377 . S
C1197 C1203 1.390 . S
C1198 H1189 0.930 . S
C1198 C1196 1.384 . S
C1198 C1199 1.372 . S
C1199 C1198 1.372 . S
C1199 C1200 1.400 . S
C1199 C1204 1.490 . S
C1200 H1190 0.930 . S
C1200 C1199 1.400 . S
C1200 C1203 1.386 . S
H1201 C1217 0.930 . S
H1202 C1218 0.931 . S
C1203 H1191 0.929 . S
C1203 C1197 1.390 . S
C1203 C1200 1.386 . S
C1204 C1199 1.490 . S
C1204 C1206 1.395 . S
C1204 C1207 1.403 . S
H1205 C1211 0.930 . S
C1206 H1192 0.930 . S
C1206 C1204 1.395 . S
C1206 C1209 1.403 . S
C1207 C1204 1.403 . S
C1207 C1208 1.524 . S
C1207 C1211 1.400 . S
C1208 H1193 0.960 . S
C1208 H1194 0.960 . S
C1208 H1195 0.960 . S
C1208 C1207 1.524 . S
C1209 C1206 1.403 . S
C1209 C1210 1.392 . S
C1209 C1213 1.495 . S
C1210 C1209 1.392 . S
C1210 C1211 1.385 . S
C1210 C1212 1.478 . S
C1211 H1205 0.930 . S
C1211 C1207 1.400 . S
C1211 C1210 1.385 . S
C1212 C1210 1.478 . S
C1212 C1214 1.381 . S
C1212 C1218 1.383 . S
C1213 C1209 1.495 . S
C1213 H1219 0.959 . S
C1213 H1220 0.961 . S
C1213 H1221 0.960 . S
C1214 C1212 1.381 . S
C1214 C1215 1.394 . S
C1214 H1222 0.930 . S
C1215 C1214 1.394 . S
C1215 C1216 1.383 . S
C1215 H1223 0.929 . S
C1216 C1215 1.383 . S
C1216 C1217 1.377 . S
C1217 H1201 0.930 . S
C1217 C1216 1.377 . S
C1217 C1218 1.379 . S
C1218 H1202 0.931 . S
C1218 C1212 1.383 . S
C1218 C1217 1.379 . S
H1219 C1213 0.959 . S
H1220 C1213 0.961 . S
H1221 C1213 0.960 . S
H1222 C1214 0.930 . S
H1223 C1215 0.929 . S
H1224 C1232 0.929 . S
H1225 C1234 0.930 . S
H1226 C1236 0.930 . S
H1227 C1239 0.929 . S
H1228 C1242 0.930 . S
H1229 C1244 0.960 . S
H1230 C1244 0.960 . S
H1231 C1244 0.960 . S
C1232 H1224 0.929 . S
C1232 C1233 1.377 . S
C1232 C1234 1.384 . S
C1233 C1232 1.377 . S
C1233 C1239 1.390 . S
C1234 H1225 0.930 . S
C1234 C1232 1.384 . S
C1234 C1235 1.372 . S
C1235 C1234 1.372 . S
C1235 C1236 1.400 . S
C1235 C1240 1.490 . S
C1236 H1226 0.930 . S
C1236 C1235 1.400 . S
C1236 C1239 1.386 . S
H1237 C1253 0.930 . S
H1238 C1254 0.931 . S
C1239 H1227 0.929 . S
C1239 C1233 1.390 . S
C1239 C1236 1.386 . S
C1240 C1235 1.490 . S
C1240 C1242 1.395 . S
C1240 C1243 1.403 . S
H1241 C1247 0.930 . S
C1242 H1228 0.930 . S
C1242 C1240 1.395 . S
C1242 C1245 1.403 . S
C1243 C1240 1.403 . S
C1243 C1244 1.524 . S
C1243 C1247 1.400 . S
C1244 H1229 0.960 . S
C1244 H1230 0.960 . S
C1244 H1231 0.960 . S
C1244 C1243 1.524 . S
C1245 C1242 1.403 . S
C1245 C1246 1.392 . S
C1245 C1249 1.495 . S
C1246 C1245 1.392 . S
C1246 C1247 1.385 . S
C1246 C1248 1.478 . S
C1247 H1241 0.930 . S
C1247 C1243 1.400 . S
C1247 C1246 1.385 . S
C1248 C1246 1.478 . S
C1248 C1250 1.381 . S
C1248 C1254 1.383 . S
C1249 C1245 1.495 . S
C1249 H1255 0.959 . S
C1249 H1256 0.961 . S
C1249 H1257 0.960 . S
C1250 C1248 1.381 . S
C1250 C1251 1.394 . S
C1250 H1258 0.930 . S
C1251 C1250 1.394 . S
C1251 C1252 1.383 . S
C1251 H1259 0.929 . S
C1252 C1251 1.383 . S
C1252 C1253 1.377 . S
C1253 H1237 0.930 . S
C1253 C1252 1.377 . S
C1253 C1254 1.379 . S
C1254 H1238 0.931 . S
C1254 C1248 1.383 . S
C1254 C1253 1.379 . S
H1255 C1249 0.959 . S
H1256 C1249 0.961 . S
H1257 C1249 0.960 . S
H1258 C1250 0.930 . S
H1259 C1251 0.929 . S
H1260 C1268 0.929 . S
H1261 C1270 0.930 . S
H1262 C1272 0.930 . S
H1263 C1275 0.929 . S
H1264 C1278 0.930 . S
H1265 C1280 0.960 . S
H1266 C1280 0.960 . S
H1267 C1280 0.960 . S
C1268 H1260 0.929 . S
C1268 C1269 1.377 . S
C1268 C1270 1.384 . S
C1269 C1268 1.377 . S
C1269 C1275 1.390 . S
C1270 H1261 0.930 . S
C1270 C1268 1.384 . S
C1270 C1271 1.372 . S
C1271 C1270 1.372 . S
C1271 C1272 1.400 . S
C1271 C1276 1.490 . S
C1272 H1262 0.930 . S
C1272 C1271 1.400 . S
C1272 C1275 1.386 . S
H1273 C1289 0.930 . S
H1274 C1290 0.931 . S
C1275 H1263 0.929 . S
C1275 C1269 1.390 . S
C1275 C1272 1.386 . S
C1276 C1271 1.490 . S
C1276 C1278 1.395 . S
C1276 C1279 1.403 . S
H1277 C1283 0.930 . S
C1278 H1264 0.930 . S
C1278 C1276 1.395 . S
C1278 C1281 1.403 . S
C1279 C1276 1.403 . S
C1279 C1280 1.524 . S
C1279 C1283 1.400 . S
C1280 H1265 0.960 . S
C1280 H1266 0.960 . S
C1280 H1267 0.960 . S
C1280 C1279 1.524 . S
C1281 C1278 1.403 . S
C1281 C1282 1.392 . S
C1281 C1285 1.495 . S
C1282 C1281 1.392 . S
C1282 C1283 1.385 . S
C1282 C1284 1.478 . S
C1283 H1277 0.930 . S
C1283 C1279 1.400 . S
C1283 C1282 1.385 . S
C1284 C1282 1.478 . S
C1284 C1286 1.381 . S
C1284 C1290 1.383 . S
C1285 C1281 1.495 . S
C1285 H1291 0.959 . S
C1285 H1292 0.961 . S
C1285 H1293 0.960 . S
C1286 C1284 1.381 . S
C1286 C1287 1.394 . S
C1286 H1294 0.930 . S
C1287 C1286 1.394 . S
C1287 C1288 1.381 1_565 S
C1287 H1295 0.929 1_565 S
C1288 C1287 1.381 1_545 S
C1288 C1289 1.376 1_545 S
C1289 H1273 0.930 . S
C1289 C1288 1.376 1_565 S
C1289 C1290 1.379 . S
C1290 H1274 0.931 . S
C1290 C1284 1.383 . S
C1290 C1289 1.379 . S
H1291 C1285 0.959 . S
H1292 C1285 0.961 . S
H1293 C1285 0.960 . S
H1294 C1286 0.930 . S
H1295 C1287 0.929 1_545 S
H1296 C1304 0.929 . S
H1297 C1306 0.930 . S
H1298 C1308 0.930 . S
H1299 C1311 0.929 . S
H1300 C1314 0.930 . S
H1301 C1316 0.960 . S
H1302 C1316 0.960 . S
H1303 C1316 0.960 . S
C1304 H1296 0.929 . S
C1304 C1305 1.377 . S
C1304 C1306 1.384 . S
C1305 C1304 1.377 . S
C1305 C1311 1.390 . S
C1306 H1297 0.930 . S
C1306 C1304 1.384 . S
C1306 C1307 1.372 . S
C1307 C1306 1.372 . S
C1307 C1308 1.400 . S
C1307 C1312 1.490 . S
C1308 H1298 0.930 . S
C1308 C1307 1.400 . S
C1308 C1311 1.386 . S
H1309 C1325 0.930 . S
H1310 C1326 0.931 1_565 S
C1311 H1299 0.929 . S
C1311 C1305 1.390 . S
C1311 C1308 1.386 . S
C1312 C1307 1.490 . S
C1312 C1314 1.395 . S
C1312 C1315 1.403 . S
H1313 C1319 0.930 . S
C1314 H1300 0.930 . S
C1314 C1312 1.395 . S
C1314 C1317 1.403 . S
C1315 C1312 1.403 . S
C1315 C1316 1.524 . S
C1315 C1319 1.400 . S
C1316 H1301 0.960 . S
C1316 H1302 0.960 . S
C1316 H1303 0.960 . S
C1316 C1315 1.524 . S
C1317 C1314 1.403 . S
C1317 C1318 1.392 . S
C1317 C1321 1.495 . S
C1318 C1317 1.392 . S
C1318 C1319 1.385 . S
C1318 C1320 1.478 . S
C1319 H1313 0.930 . S
C1319 C1315 1.400 . S
C1319 C1318 1.385 . S
C1320 C1318 1.478 . S
C1320 C1322 1.381 1_565 S
C1320 C1326 1.383 1_565 S
C1321 C1317 1.495 . S
C1321 H1327 0.959 . S
C1321 H1328 0.961 1_565 S
C1321 H1329 0.960 . S
C1322 C1320 1.381 1_545 S
C1322 C1323 1.394 . S
C1322 H1330 0.930 1_545 S
C1323 C1322 1.394 . S
C1323 C1324 1.383 . S
C1323 H1331 0.929 . S
C1324 C1323 1.383 . S
C1324 C1325 1.377 . S
C1325 H1309 0.930 . S
C1325 C1324 1.377 . S
C1325 C1326 1.379 . S
C1326 H1310 0.931 1_545 S
C1326 C1320 1.383 1_545 S
C1326 C1325 1.379 . S
H1327 C1321 0.959 . S
H1328 C1321 0.961 1_545 S
H1329 C1321 0.960 . S
H1330 C1322 0.930 1_565 S
H1331 C1323 0.929 . S
H1332 C1340 0.929 . S
H1333 C1342 0.930 . S
H1334 C1344 0.930 . S
H1335 C1347 0.929 . S
H1336 C1350 0.930 . S
H1337 C1352 0.960 . S
H1338 C1352 0.960 . S
H1339 C1352 0.960 . S
C1340 H1332 0.929 . S
C1340 C1341 1.377 . S
C1340 C1342 1.384 . S
C1341 C1340 1.377 . S
C1341 C1347 1.390 . S
C1342 H1333 0.930 . S
C1342 C1340 1.384 . S
C1342 C1343 1.372 . S
C1343 C1342 1.372 . S
C1343 C1344 1.400 . S
C1343 C1348 1.490 . S
C1344 H1334 0.930 . S
C1344 C1343 1.400 . S
C1344 C1347 1.386 . S
H1345 C1361 0.930 . S
H1346 C1362 0.931 . S
C1347 H1335 0.929 . S
C1347 C1341 1.390 . S
C1347 C1344 1.386 . S
C1348 C1343 1.490 . S
C1348 C1350 1.395 . S
C1348 C1351 1.403 . S
H1349 C1355 0.930 . S
C1350 H1336 0.930 . S
C1350 C1348 1.395 . S
C1350 C1353 1.403 . S
C1351 C1348 1.403 . S
C1351 C1352 1.524 . S
C1351 C1355 1.400 . S
C1352 H1337 0.960 . S
C1352 H1338 0.960 . S
C1352 H1339 0.960 . S
C1352 C1351 1.524 . S
C1353 C1350 1.403 . S
C1353 C1354 1.392 . S
C1353 C1357 1.495 . S
C1354 C1353 1.392 . S
C1354 C1355 1.385 . S
C1354 C1356 1.478 . S
C1355 H1349 0.930 . S
C1355 C1351 1.400 . S
C1355 C1354 1.385 . S
C1356 C1354 1.478 . S
C1356 C1358 1.381 . S
C1356 C1362 1.383 . S
C1357 C1353 1.495 . S
C1357 H1363 0.959 . S
C1357 H1364 0.961 . S
C1357 H1365 0.960 . S
C1358 C1356 1.381 . S
C1358 C1359 1.394 . S
C1358 H1366 0.930 . S
C1359 C1358 1.394 . S
C1359 C1360 1.383 . S
C1359 H1367 0.929 . S
C1360 C1359 1.383 . S
C1360 C1361 1.377 . S
C1361 H1345 0.930 . S
C1361 C1360 1.377 . S
C1361 C1362 1.379 . S
C1362 H1346 0.931 . S
C1362 C1356 1.383 . S
C1362 C1361 1.379 . S
H1363 C1357 0.959 . S
H1364 C1357 0.961 . S
H1365 C1357 0.960 . S
H1366 C1358 0.930 . S
H1367 C1359 0.929 . S
H1368 C1376 0.929 . S
H1369 C1378 0.930 . S
H1370 C1380 0.930 . S
H1371 C1383 0.929 . S
H1372 C1386 0.930 . S
H1373 C1388 0.960 . S
H1374 C1388 0.960 . S
H1375 C1388 0.960 . S
C1376 H1368 0.929 . S
C1376 C1377 1.377 . S
C1376 C1378 1.384 . S
C1377 C1376 1.377 . S
C1377 C1383 1.390 . S
C1378 H1369 0.930 . S
C1378 C1376 1.384 . S
C1378 C1379 1.372 . S
C1379 C1378 1.372 . S
C1379 C1380 1.400 . S
C1379 C1384 1.490 . S
C1380 H1370 0.930 . S
C1380 C1379 1.400 . S
C1380 C1383 1.386 . S
H1381 C1397 0.930 . S
H1382 C1398 0.931 . S
C1383 H1371 0.929 . S
C1383 C1377 1.390 . S
C1383 C1380 1.386 . S
C1384 C1379 1.490 . S
C1384 C1386 1.395 . S
C1384 C1387 1.403 . S
H1385 C1391 0.930 . S
C1386 H1372 0.930 . S
C1386 C1384 1.395 . S
C1386 C1389 1.403 . S
C1387 C1384 1.403 . S
C1387 C1388 1.524 . S
C1387 C1391 1.400 . S
C1388 H1373 0.960 . S
C1388 H1374 0.960 . S
C1388 H1375 0.960 . S
C1388 C1387 1.524 . S
C1389 C1386 1.403 . S
C1389 C1390 1.392 . S
C1389 C1393 1.495 . S
C1390 C1389 1.392 . S
C1390 C1391 1.385 . S
C1390 C1392 1.478 . S
C1391 H1385 0.930 . S
C1391 C1387 1.400 . S
C1391 C1390 1.385 . S
C1392 C1390 1.478 . S
C1392 C1394 1.381 . S
C1392 C1398 1.383 . S
C1393 C1389 1.495 . S
C1393 H1399 0.959 . S
C1393 H1400 0.961 . S
C1393 H1401 0.960 . S
C1394 C1392 1.381 . S
C1394 C1395 1.394 . S
C1394 H1402 0.930 . S
C1395 C1394 1.394 . S
C1395 C1396 1.383 . S
C1395 H1403 0.929 . S
C1396 C1395 1.383 . S
C1396 C1397 1.377 . S
C1397 H1381 0.930 . S
C1397 C1396 1.377 . S
C1397 C1398 1.379 . S
C1398 H1382 0.931 . S
C1398 C1392 1.383 . S
C1398 C1397 1.379 . S
H1399 C1393 0.959 . S
H1400 C1393 0.961 . S
H1401 C1393 0.960 . S
H1402 C1394 0.930 . S
H1403 C1395 0.929 . S
H1404 C1412 0.929 . S
H1405 C1414 0.930 . S
H1406 C1416 0.930 . S
H1407 C1419 0.929 . S
H1408 C1422 0.930 . S
H1409 C1424 0.960 . S
H1410 C1424 0.960 . S
H1411 C1424 0.960 . S
C1412 H1404 0.929 . S
C1412 C1413 1.377 . S
C1412 C1414 1.384 . S
C1413 C1412 1.377 . S
C1413 C1419 1.390 . S
C1414 H1405 0.930 . S
C1414 C1412 1.384 . S
C1414 C1415 1.372 . S
C1415 C1414 1.372 . S
C1415 C1416 1.400 . S
C1415 C1420 1.490 . S
C1416 H1406 0.930 . S
C1416 C1415 1.400 . S
C1416 C1419 1.386 . S
H1417 C1433 0.930 . S
H1418 C1434 0.931 . S
C1419 H1407 0.929 . S
C1419 C1413 1.390 . S
C1419 C1416 1.386 . S
C1420 C1415 1.490 . S
C1420 C1422 1.395 . S
C1420 C1423 1.403 . S
H1421 C1427 0.930 . S
C1422 H1408 0.930 . S
C1422 C1420 1.395 . S
C1422 C1425 1.403 . S
C1423 C1420 1.403 . S
C1423 C1424 1.524 . S
C1423 C1427 1.400 . S
C1424 H1409 0.960 . S
C1424 H1410 0.960 . S
C1424 H1411 0.960 . S
C1424 C1423 1.524 . S
C1425 C1422 1.403 . S
C1425 C1426 1.392 . S
C1425 C1429 1.495 . S
C1426 C1425 1.392 . S
C1426 C1427 1.385 . S
C1426 C1428 1.478 . S
C1427 H1421 0.930 . S
C1427 C1423 1.400 . S
C1427 C1426 1.385 . S
C1428 C1426 1.478 . S
C1428 C1430 1.381 . S
C1428 C1434 1.383 . S
C1429 C1425 1.495 . S
C1429 H1435 0.959 . S
C1429 H1436 0.961 . S
C1429 H1437 0.960 . S
C1430 C1428 1.381 . S
C1430 C1431 1.394 . S
C1430 H1438 0.930 . S
C1431 C1430 1.394 . S
C1431 C1432 1.383 . S
C1431 H1439 0.929 . S
C1432 C1431 1.383 . S
C1432 C1433 1.377 . S
C1433 H1417 0.930 . S
C1433 C1432 1.377 . S
C1433 C1434 1.379 . S
C1434 H1418 0.931 . S
C1434 C1428 1.383 . S
C1434 C1433 1.379 . S
H1435 C1429 0.959 . S
H1436 C1429 0.961 . S
H1437 C1429 0.960 . S
H1438 C1430 0.930 . S
H1439 C1431 0.929 . S
H1440 C1448 0.929 . S
H1441 C1450 0.930 . S
H1442 C1452 0.930 . S
H1443 C1455 0.929 . S
H1444 C1458 0.930 . S
H1445 C1460 0.960 . S
H1446 C1460 0.960 . S
H1447 C1460 0.960 . S
C1448 H1440 0.929 . S
C1448 C1449 1.377 . S
C1448 C1450 1.384 . S
C1449 C1448 1.377 . S
C1449 C1455 1.390 . S
C1450 H1441 0.930 . S
C1450 C1448 1.384 . S
C1450 C1451 1.372 . S
C1451 C1450 1.372 . S
C1451 C1452 1.400 . S
C1451 C1456 1.490 . S
C1452 H1442 0.930 . S
C1452 C1451 1.400 . S
C1452 C1455 1.386 . S
H1453 C1469 0.930 . S
H1454 C1470 0.931 . S
C1455 H1443 0.929 . S
C1455 C1449 1.390 . S
C1455 C1452 1.386 . S
C1456 C1451 1.490 . S
C1456 C1458 1.395 . S
C1456 C1459 1.403 . S
H1457 C1463 0.930 . S
C1458 H1444 0.930 . S
C1458 C1456 1.395 . S
C1458 C1461 1.403 1_565 S
C1459 C1456 1.403 . S
C1459 C1460 1.524 . S
C1459 C1463 1.400 1_565 S
C1460 H1445 0.960 . S
C1460 H1446 0.960 . S
C1460 H1447 0.960 . S
C1460 C1459 1.524 . S
C1461 C1458 1.403 1_545 S
C1461 C1462 1.392 . S
C1461 C1465 1.495 . S
C1462 C1461 1.392 . S
C1462 C1463 1.385 . S
C1462 C1464 1.478 . S
C1463 H1457 0.930 . S
C1463 C1459 1.400 1_545 S
C1463 C1462 1.385 . S
C1464 C1462 1.478 . S
C1464 C1466 1.381 . S
C1464 C1470 1.383 . S
C1465 C1461 1.495 . S
C1465 H1471 0.959 . S
C1465 H1472 0.961 . S
C1465 H1473 0.960 . S
C1466 C1464 1.381 . S
C1466 C1467 1.394 . S
C1466 H1474 0.930 . S
C1467 C1466 1.394 . S
C1467 C1468 1.383 . S
C1467 H1475 0.929 . S
C1468 C1467 1.383 . S
C1468 C1469 1.377 . S
C1469 H1453 0.930 . S
C1469 C1468 1.377 . S
C1469 C1470 1.379 . S
C1470 H1454 0.931 . S
C1470 C1464 1.383 . S
C1470 C1469 1.379 . S
H1471 C1465 0.959 . S
H1472 C1465 0.961 . S
H1473 C1465 0.960 . S
H1474 C1466 0.930 . S
H1475 C1467 0.929 . S
H1476 C1484 0.929 . S
H1477 C1486 0.930 . S
H1478 C1488 0.930 . S
H1479 C1491 0.929 . S
H1480 C1494 0.930 . S
H1481 C1496 0.960 . S
H1482 C1496 0.960 . S
H1483 C1496 0.960 . S
C1484 H1476 0.929 . S
C1484 C1485 1.377 . S
C1484 C1486 1.384 . S
C1485 C1484 1.377 . S
C1485 C1491 1.390 . S
C1486 H1477 0.930 . S
C1486 C1484 1.384 . S
C1486 C1487 1.372 . S
C1487 C1486 1.372 . S
C1487 C1488 1.400 . S
C1487 C1492 1.490 . S
C1488 H1478 0.930 . S
C1488 C1487 1.400 . S
C1488 C1491 1.386 . S
H1489 C1505 0.930 . S
H1490 C1506 0.931 . S
C1491 H1479 0.929 . S
C1491 C1485 1.390 . S
C1491 C1488 1.386 . S
C1492 C1487 1.490 . S
C1492 C1494 1.395 . S
C1492 C1495 1.403 . S
H1493 C1499 0.930 . S
C1494 H1480 0.930 . S
C1494 C1492 1.395 . S
C1494 C1497 1.403 . S
C1495 C1492 1.403 . S
C1495 C1496 1.524 . S
C1495 C1499 1.400 . S
C1496 H1481 0.960 . S
C1496 H1482 0.960 . S
C1496 H1483 0.960 . S
C1496 C1495 1.524 . S
C1497 C1494 1.403 . S
C1497 C1498 1.392 . S
C1497 C1501 1.495 . S
C1498 C1497 1.392 . S
C1498 C1499 1.385 . S
C1498 C1500 1.478 . S
C1499 H1493 0.930 . S
C1499 C1495 1.400 . S
C1499 C1498 1.385 . S
C1500 C1498 1.478 . S
C1500 C1502 1.381 . S
C1500 C1506 1.383 . S
C1501 C1497 1.495 . S
C1501 H1507 0.959 . S
C1501 H1508 0.961 . S
C1501 H1509 0.960 . S
C1502 C1500 1.381 . S
C1502 C1503 1.394 . S
C1502 H1510 0.930 . S
C1503 C1502 1.394 . S
C1503 C1504 1.383 . S
C1503 H1511 0.929 . S
C1504 C1503 1.383 . S
C1504 C1505 1.377 . S
C1505 H1489 0.930 . S
C1505 C1504 1.377 . S
C1505 C1506 1.379 . S
C1506 H1490 0.931 . S
C1506 C1500 1.383 . S
C1506 C1505 1.379 . S
H1507 C1501 0.959 . S
H1508 C1501 0.961 . S
H1509 C1501 0.960 . S
H1510 C1502 0.930 . S
H1511 C1503 0.929 . S
H1512 C1520 0.929 . S
H1513 C1522 0.930 . S
H1514 C1524 0.930 . S
H1515 C1527 0.929 . S
H1516 C1530 0.930 . S
H1517 C1532 0.960 . S
H1518 C1532 0.960 . S
H1519 C1532 0.960 . S
C1520 H1512 0.929 . S
C1520 C1521 1.377 . S
C1520 C1522 1.384 . S
C1521 C1520 1.377 . S
C1521 C1527 1.390 . S
C1522 H1513 0.930 . S
C1522 C1520 1.384 . S
C1522 C1523 1.372 . S
C1523 C1522 1.372 . S
C1523 C1524 1.400 . S
C1523 C1528 1.490 . S
C1524 H1514 0.930 . S
C1524 C1523 1.400 . S
C1524 C1527 1.386 . S
H1525 C1541 0.930 . S
H1526 C1542 0.931 . S
C1527 H1515 0.929 . S
C1527 C1521 1.390 . S
C1527 C1524 1.386 . S
C1528 C1523 1.490 . S
C1528 C1530 1.395 . S
C1528 C1531 1.403 . S
H1529 C1535 0.930 . S
C1530 H1516 0.930 . S
C1530 C1528 1.395 . S
C1530 C1533 1.403 . S
C1531 C1528 1.403 . S
C1531 C1532 1.524 . S
C1531 C1535 1.400 . S
C1532 H1517 0.960 . S
C1532 H1518 0.960 . S
C1532 H1519 0.960 . S
C1532 C1531 1.524 . S
C1533 C1530 1.403 . S
C1533 C1534 1.392 . S
C1533 C1537 1.495 . S
C1534 C1533 1.392 . S
C1534 C1535 1.385 . S
C1534 C1536 1.478 . S
C1535 H1529 0.930 . S
C1535 C1531 1.400 . S
C1535 C1534 1.385 . S
C1536 C1534 1.478 . S
C1536 C1538 1.381 . S
C1536 C1542 1.383 . S
C1537 C1533 1.495 . S
C1537 H1543 0.959 . S
C1537 H1544 0.961 . S
C1537 H1545 0.960 . S
C1538 C1536 1.381 . S
C1538 C1539 1.394 . S
C1538 H1546 0.930 . S
C1539 C1538 1.394 . S
C1539 C1540 1.383 . S
C1539 H1547 0.929 . S
C1540 C1539 1.383 . S
C1540 C1541 1.377 . S
C1541 H1525 0.930 . S
C1541 C1540 1.377 . S
C1541 C1542 1.379 . S
C1542 H1526 0.931 . S
C1542 C1536 1.383 . S
C1542 C1541 1.379 . S
H1543 C1537 0.959 . S
H1544 C1537 0.961 . S
H1545 C1537 0.960 . S
H1546 C1538 0.930 . S
H1547 C1539 0.929 . S
H1548 C1556 0.929 . S
H1549 C1558 0.930 . S
H1550 C1560 0.930 . S
H1551 C1563 0.929 . S
H1552 C1566 0.930 . S
H1553 C1568 0.960 . S
H1554 C1568 0.960 . S
H1555 C1568 0.960 . S
C1556 H1548 0.929 . S
C1556 C1557 1.377 . S
C1556 C1558 1.384 . S
C1557 C1556 1.377 . S
C1557 C1563 1.390 . S
C1558 H1549 0.930 . S
C1558 C1556 1.384 . S
C1558 C1559 1.372 . S
C1559 C1558 1.372 . S
C1559 C1560 1.400 . S
C1559 C1564 1.490 . S
C1560 H1550 0.930 . S
C1560 C1559 1.400 . S
C1560 C1563 1.386 . S
H1561 C1577 0.930 . S
H1562 C1578 0.931 . S
C1563 H1551 0.929 . S
C1563 C1557 1.390 . S
C1563 C1560 1.386 . S
C1564 C1559 1.490 . S
C1564 C1566 1.395 . S
C1564 C1567 1.403 . S
H1565 C1571 0.930 . S
C1566 H1552 0.930 . S
C1566 C1564 1.395 . S
C1566 C1569 1.403 . S
C1567 C1564 1.403 . S
C1567 C1568 1.524 . S
C1567 C1571 1.400 . S
C1568 H1553 0.960 . S
C1568 H1554 0.960 . S
C1568 H1555 0.960 . S
C1568 C1567 1.524 . S
C1569 C1566 1.403 . S
C1569 C1570 1.392 . S
C1569 C1573 1.495 . S
C1570 C1569 1.392 . S
C1570 C1571 1.385 . S
C1570 C1572 1.478 . S
C1571 H1565 0.930 . S
C1571 C1567 1.400 . S
C1571 C1570 1.385 . S
C1572 C1570 1.478 . S
C1572 C1574 1.381 . S
C1572 C1578 1.383 . S
C1573 C1569 1.495 . S
C1573 H1579 0.959 . S
C1573 H1580 0.964 . S
C1573 H1581 0.960 . S
C1574 C1572 1.381 . S
C1574 C1575 1.394 1_655 S
C1574 H1582 0.930 . S
C1575 C1574 1.394 1_455 S
C1575 C1576 1.383 . S
C1575 H1583 0.929 . S
C1576 C1575 1.383 . S
C1576 C1577 1.377 1_455 S
C1577 H1561 0.930 . S
C1577 C1576 1.377 1_655 S
C1577 C1578 1.379 . S
C1578 H1562 0.931 . S
C1578 C1572 1.383 . S
C1578 C1577 1.379 . S
H1579 C1573 0.959 . S
H1580 C1573 0.964 . S
H1581 C1573 0.960 . S
H1582 C1574 0.930 . S
H1583 C1575 0.929 . S
H1584 C1592 0.929 . S
H1585 C1594 0.930 . S
H1586 C1596 0.930 . S
H1587 C1599 0.929 . S
H1588 C1602 0.930 . S
H1589 C1604 0.960 . S
H1590 C1604 0.960 . S
H1591 C1604 0.960 . S
C1592 H1584 0.929 . S
C1592 C1593 1.377 . S
C1592 C1594 1.384 . S
C1593 C1592 1.377 . S
C1593 C1599 1.390 . S
C1594 H1585 0.930 . S
C1594 C1592 1.384 . S
C1594 C1595 1.372 . S
C1595 C1594 1.372 . S
C1595 C1596 1.400 . S
C1595 C1600 1.490 . S
C1596 H1586 0.930 . S
C1596 C1595 1.400 . S
C1596 C1599 1.386 . S
H1597 C1613 0.930 . S
H1598 C1614 0.931 . S
C1599 H1587 0.929 . S
C1599 C1593 1.390 . S
C1599 C1596 1.386 . S
C1600 C1595 1.490 . S
C1600 C1602 1.395 . S
C1600 C1603 1.403 . S
H1601 C1607 0.930 . S
C1602 H1588 0.930 . S
C1602 C1600 1.395 . S
C1602 C1605 1.403 . S
C1603 C1600 1.403 . S
C1603 C1604 1.524 . S
C1603 C1607 1.400 . S
C1604 H1589 0.960 . S
C1604 H1590 0.960 . S
C1604 H1591 0.960 . S
C1604 C1603 1.524 . S
C1605 C1602 1.403 . S
C1605 C1606 1.392 . S
C1605 C1609 1.495 . S
C1606 C1605 1.392 . S
C1606 C1607 1.385 . S
C1606 C1608 1.478 . S
C1607 H1601 0.930 . S
C1607 C1603 1.400 . S
C1607 C1606 1.385 . S
C1608 C1606 1.478 . S
C1608 C1610 1.381 . S
C1608 C1614 1.383 . S
C1609 C1605 1.495 . S
C1609 H1615 0.959 . S
C1609 H1616 0.961 . S
C1609 H1617 0.960 . S
C1610 C1608 1.381 . S
C1610 C1611 1.394 . S
C1610 H1618 0.930 . S
C1611 C1610 1.394 . S
C1611 C1612 1.383 . S
C1611 H1619 0.929 . S
C1612 C1611 1.383 . S
C1612 C1613 1.377 . S
C1613 H1597 0.930 . S
C1613 C1612 1.377 . S
C1613 C1614 1.379 . S
C1614 H1598 0.931 . S
C1614 C1608 1.383 . S
C1614 C1613 1.379 . S
H1615 C1609 0.959 . S
H1616 C1609 0.961 . S
H1617 C1609 0.960 . S
H1618 C1610 0.930 . S
H1619 C1611 0.929 . S
H1620 C1628 0.929 . S
H1621 C1630 0.930 . S
H1622 C1632 0.930 . S
H1623 C1635 0.929 . S
H1624 C1638 0.930 . S
H1625 C1640 0.960 . S
H1626 C1640 0.960 . S
H1627 C1640 0.960 . S
C1628 H1620 0.929 . S
C1628 C1629 1.377 . S
C1628 C1630 1.384 . S
C1629 C1628 1.377 . S
C1629 C1635 1.390 . S
C1630 H1621 0.930 . S
C1630 C1628 1.384 . S
C1630 C1631 1.372 . S
C1631 C1630 1.372 . S
C1631 C1632 1.400 . S
C1631 C1636 1.490 . S
C1632 H1622 0.930 . S
C1632 C1631 1.400 . S
C1632 C1635 1.386 . S
H1633 C1649 0.930 . S
H1634 C1650 0.931 . S
C1635 H1623 0.929 . S
C1635 C1629 1.390 . S
C1635 C1632 1.386 . S
C1636 C1631 1.490 . S
C1636 C1638 1.395 . S
C1636 C1639 1.403 . S
H1637 C1643 0.930 . S
C1638 H1624 0.930 . S
C1638 C1636 1.395 . S
C1638 C1641 1.403 . S
C1639 C1636 1.403 . S
C1639 C1640 1.524 . S
C1639 C1643 1.400 . S
C1640 H1625 0.960 . S
C1640 H1626 0.960 . S
C1640 H1627 0.960 . S
C1640 C1639 1.524 . S
C1641 C1638 1.403 . S
C1641 C1642 1.392 . S
C1641 C1645 1.495 . S
C1642 C1641 1.392 . S
C1642 C1643 1.385 . S
C1642 C1644 1.478 . S
C1643 H1637 0.930 . S
C1643 C1639 1.400 . S
C1643 C1642 1.385 . S
C1644 C1642 1.478 . S
C1644 C1646 1.381 . S
C1644 C1650 1.383 . S
C1645 C1641 1.495 . S
C1645 H1651 0.959 . S
C1645 H1652 0.961 . S
C1645 H1653 0.960 . S
C1646 C1644 1.381 . S
C1646 C1647 1.394 . S
C1646 H1654 0.930 . S
C1647 C1646 1.394 . S
C1647 C1648 1.383 . S
C1647 H1655 0.929 . S
C1648 C1647 1.383 . S
C1648 C1649 1.377 . S
C1649 H1633 0.930 . S
C1649 C1648 1.377 . S
C1649 C1650 1.379 . S
C1650 H1634 0.931 . S
C1650 C1644 1.383 . S
C1650 C1649 1.379 . S
H1651 C1645 0.959 . S
H1652 C1645 0.961 . S
H1653 C1645 0.960 . S
H1654 C1646 0.930 . S
H1655 C1647 0.929 . S
H1656 C1664 0.929 . S
H1657 C1666 0.930 . S
H1658 C1668 0.930 . S
H1659 C1671 0.929 . S
H1660 C1674 0.930 . S
H1661 C1676 0.960 . S
H1662 C1676 0.960 . S
H1663 C1676 0.960 . S
C1664 H1656 0.929 . S
C1664 C1665 1.377 . S
C1664 C1666 1.384 . S
C1665 C1664 1.377 . S
C1665 C1671 1.390 . S
C1666 H1657 0.930 . S
C1666 C1664 1.384 . S
C1666 C1667 1.372 . S
C1667 C1666 1.372 . S
C1667 C1668 1.400 . S
C1667 C1672 1.490 . S
C1668 H1658 0.930 . S
C1668 C1667 1.400 . S
C1668 C1671 1.386 . S
H1669 C1685 0.930 . S
H1670 C1686 0.931 . S
C1671 H1659 0.929 . S
C1671 C1665 1.390 . S
C1671 C1668 1.386 . S
C1672 C1667 1.490 . S
C1672 C1674 1.395 . S
C1672 C1675 1.403 . S
H1673 C1679 0.930 . S
C1674 H1660 0.930 . S
C1674 C1672 1.395 . S
C1674 C1677 1.403 . S
C1675 C1672 1.403 . S
C1675 C1676 1.524 . S
C1675 C1679 1.400 . S
C1676 H1661 0.960 . S
C1676 H1662 0.960 . S
C1676 H1663 0.960 . S
C1676 C1675 1.524 . S
C1677 C1674 1.403 . S
C1677 C1678 1.392 . S
C1677 C1681 1.495 . S
C1678 C1677 1.392 . S
C1678 C1679 1.385 . S
C1678 C1680 1.478 . S
C1679 H1673 0.930 . S
C1679 C1675 1.400 . S
C1679 C1678 1.385 . S
C1680 C1678 1.478 . S
C1680 C1682 1.381 . S
C1680 C1686 1.383 . S
C1681 C1677 1.495 . S
C1681 H1687 0.959 . S
C1681 H1688 0.961 . S
C1681 H1689 0.960 . S
C1682 C1680 1.381 . S
C1682 C1683 1.394 . S
C1682 H1690 0.930 . S
C1683 C1682 1.394 . S
C1683 C1684 1.383 . S
C1683 H1691 0.929 . S
C1684 C1683 1.383 . S
C1684 C1685 1.377 . S
C1685 H1669 0.930 . S
C1685 C1684 1.377 . S
C1685 C1686 1.379 . S
C1686 H1670 0.931 . S
C1686 C1680 1.383 . S
C1686 C1685 1.379 . S
H1687 C1681 0.959 . S
H1688 C1681 0.961 . S
H1689 C1681 0.960 . S
H1690 C1682 0.930 . S
H1691 C1683 0.929 . S
H1692 C1700 0.929 . S
H1693 C1702 0.930 . S
H1694 C1704 0.930 . S
H1695 C1707 0.929 . S
H1696 C1710 0.930 . S
H1697 C1712 0.960 . S
H1698 C1712 0.960 . S
H1699 C1712 0.960 . S
C1700 H1692 0.929 . S
C1700 C1701 1.377 . S
C1700 C1702 1.384 . S
C1701 C1700 1.377 . S
C1701 C1707 1.390 . S
C1702 H1693 0.930 . S
C1702 C1700 1.384 . S
C1702 C1703 1.372 . S
C1703 C1702 1.372 . S
C1703 C1704 1.400 . S
C1703 C1708 1.490 . S
C1704 H1694 0.930 . S
C1704 C1703 1.400 . S
C1704 C1707 1.386 . S
H1705 C1721 0.930 . S
H1706 C1722 0.931 . S
C1707 H1695 0.929 . S
C1707 C1701 1.390 . S
C1707 C1704 1.386 . S
C1708 C1703 1.490 . S
C1708 C1710 1.395 . S
C1708 C1711 1.403 . S
H1709 C1715 0.930 . S
C1710 H1696 0.930 . S
C1710 C1708 1.395 . S
C1710 C1713 1.403 . S
C1711 C1708 1.403 . S
C1711 C1712 1.524 . S
C1711 C1715 1.400 . S
C1712 H1697 0.960 . S
C1712 H1698 0.960 . S
C1712 H1699 0.960 . S
C1712 C1711 1.524 . S
C1713 C1710 1.403 . S
C1713 C1714 1.392 . S
C1713 C1717 1.495 . S
C1714 C1713 1.392 . S
C1714 C1715 1.385 . S
C1714 C1716 1.478 . S
C1715 H1709 0.930 . S
C1715 C1711 1.400 . S
C1715 C1714 1.385 . S
C1716 C1714 1.478 . S
C1716 C1718 1.381 . S
C1716 C1722 1.383 . S
C1717 C1713 1.495 . S
C1717 H1723 0.959 . S
C1717 H1724 0.961 . S
C1717 H1725 0.960 . S
C1718 C1716 1.381 . S
C1718 C1719 1.394 1_655 S
C1718 H1726 0.930 . S
C1719 C1718 1.394 1_455 S
C1719 C1720 1.383 . S
C1719 H1727 0.929 . S
C1720 C1719 1.383 . S
C1720 C1721 1.377 . S
C1721 H1705 0.930 . S
C1721 C1720 1.377 . S
C1721 C1722 1.379 1_455 S
C1722 H1706 0.931 . S
C1722 C1716 1.383 . S
C1722 C1721 1.379 1_655 S
H1723 C1717 0.959 . S
H1724 C1717 0.961 . S
H1725 C1717 0.960 . S
H1726 C1718 0.930 . S
H1727 C1719 0.929 . S
H1728 C1736 0.929 . S
H1729 C1738 0.930 . S
H1730 C1740 0.930 . S
H1731 C1743 0.929 . S
H1732 C1746 0.930 . S
H1733 C1748 0.960 . S
H1734 C1748 0.960 . S
H1735 C1748 0.960 . S
C1736 H1728 0.929 . S
C1736 C1737 1.377 . S
C1736 C1738 1.384 . S
C1737 C1736 1.377 . S
C1737 C1743 1.390 . S
C1738 H1729 0.930 . S
C1738 C1736 1.384 . S
C1738 C1739 1.372 . S
C1739 C1738 1.372 . S
C1739 C1740 1.400 . S
C1739 C1744 1.490 . S
C1740 H1730 0.930 . S
C1740 C1739 1.400 . S
C1740 C1743 1.386 . S
H1741 C1757 0.930 . S
H1742 C1758 0.931 . S
C1743 H1731 0.929 . S
C1743 C1737 1.390 . S
C1743 C1740 1.386 . S
C1744 C1739 1.490 . S
C1744 C1746 1.395 . S
C1744 C1747 1.403 . S
H1745 C1751 0.930 . S
C1746 H1732 0.930 . S
C1746 C1744 1.395 . S
C1746 C1749 1.403 . S
C1747 C1744 1.403 . S
C1747 C1748 1.524 . S
C1747 C1751 1.400 . S
C1748 H1733 0.960 . S
C1748 H1734 0.960 . S
C1748 H1735 0.960 . S
C1748 C1747 1.524 . S
C1749 C1746 1.403 . S
C1749 C1750 1.392 . S
C1749 C1753 1.495 . S
C1750 C1749 1.392 . S
C1750 C1751 1.385 . S
C1750 C1752 1.478 . S
C1751 H1745 0.930 . S
C1751 C1747 1.400 . S
C1751 C1750 1.385 . S
C1752 C1750 1.478 . S
C1752 C1754 1.381 . S
C1752 C1758 1.383 . S
C1753 C1749 1.495 . S
C1753 H1759 0.959 . S
C1753 H1760 0.961 . S
C1753 H1761 0.960 . S
C1754 C1752 1.381 . S
C1754 C1755 1.394 . S
C1754 H1762 0.930 . S
C1755 C1754 1.394 . S
C1755 C1756 1.383 . S
C1755 H1763 0.929 . S
C1756 C1755 1.383 . S
C1756 C1757 1.377 . S
C1757 H1741 0.930 . S
C1757 C1756 1.377 . S
C1757 C1758 1.379 . S
C1758 H1742 0.931 . S
C1758 C1752 1.383 . S
C1758 C1757 1.379 . S
H1759 C1753 0.959 . S
H1760 C1753 0.961 . S
H1761 C1753 0.960 . S
H1762 C1754 0.930 . S
H1763 C1755 0.929 . S
H1764 C1772 0.929 . S
H1765 C1774 0.930 . S
H1766 C1776 0.930 . S
H1767 C1779 0.929 . S
H1768 C1782 0.930 . S
H1769 C1784 0.960 . S
H1770 C1784 0.960 . S
H1771 C1784 0.960 . S
C1772 H1764 0.929 . S
C1772 C1773 1.377 . S
C1772 C1774 1.384 . S
C1773 C1772 1.377 . S
C1773 C1779 1.390 . S
C1774 H1765 0.930 . S
C1774 C1772 1.384 . S
C1774 C1775 1.372 . S
C1775 C1774 1.372 . S
C1775 C1776 1.400 . S
C1775 C1780 1.490 . S
C1776 H1766 0.930 . S
C1776 C1775 1.400 . S
C1776 C1779 1.386 . S
H1777 C1793 0.930 . S
H1778 C1794 0.931 . S
C1779 H1767 0.929 . S
C1779 C1773 1.390 . S
C1779 C1776 1.386 . S
C1780 C1775 1.490 . S
C1780 C1782 1.395 . S
C1780 C1783 1.403 . S
H1781 C1787 0.930 . S
C1782 H1768 0.930 . S
C1782 C1780 1.395 . S
C1782 C1785 1.403 . S
C1783 C1780 1.403 . S
C1783 C1784 1.524 . S
C1783 C1787 1.400 . S
C1784 H1769 0.960 . S
C1784 H1770 0.960 . S
C1784 H1771 0.960 . S
C1784 C1783 1.524 . S
C1785 C1782 1.403 . S
C1785 C1786 1.392 . S
C1785 C1789 1.495 . S
C1786 C1785 1.392 . S
C1786 C1787 1.385 . S
C1786 C1788 1.478 . S
C1787 H1781 0.930 . S
C1787 C1783 1.400 . S
C1787 C1786 1.385 . S
C1788 C1786 1.478 . S
C1788 C1790 1.381 . S
C1788 C1794 1.383 . S
C1789 C1785 1.495 . S
C1789 H1795 0.959 . S
C1789 H1796 0.961 . S
C1789 H1797 0.960 . S
C1790 C1788 1.381 . S
C1790 C1791 1.394 . S
C1790 H1798 0.930 . S
C1791 C1790 1.394 . S
C1791 C1792 1.383 . S
C1791 H1799 0.929 . S
C1792 C1791 1.383 . S
C1792 C1793 1.377 . S
C1793 H1777 0.930 . S
C1793 C1792 1.377 . S
C1793 C1794 1.379 . S
C1794 H1778 0.931 . S
C1794 C1788 1.383 . S
C1794 C1793 1.379 . S
H1795 C1789 0.959 . S
H1796 C1789 0.961 . S
H1797 C1789 0.960 . S
H1798 C1790 0.930 . S
H1799 C1791 0.929 . S
H1800 C1808 0.929 . S
H1801 C1810 0.930 . S
H1802 C1812 0.930 . S
H1803 C1815 0.929 . S
H1804 C1818 0.930 . S
H1805 C1820 0.960 . S
H1806 C1820 0.960 . S
H1807 C1820 0.960 . S
C1808 H1800 0.929 . S
C1808 C1809 1.377 . S
C1808 C1810 1.384 . S
C1809 C1808 1.377 . S
C1809 C1815 1.390 . S
C1810 H1801 0.930 . S
C1810 C1808 1.384 . S
C1810 C1811 1.372 . S
C1811 C1810 1.372 . S
C1811 C1812 1.400 . S
C1811 C1816 1.490 . S
C1812 H1802 0.930 . S
C1812 C1811 1.400 . S
C1812 C1815 1.386 . S
H1813 C1829 0.930 . S
H1814 C1830 0.931 . S
C1815 H1803 0.929 . S
C1815 C1809 1.390 . S
C1815 C1812 1.386 . S
C1816 C1811 1.490 . S
C1816 C1818 1.395 . S
C1816 C1819 1.403 . S
H1817 C1823 0.930 1_455 S
C1818 H1804 0.930 . S
C1818 C1816 1.395 . S
C1818 C1821 1.403 . S
C1819 C1816 1.403 . S
C1819 C1820 1.524 . S
C1819 C1823 1.400 . S
C1820 H1805 0.960 . S
C1820 H1806 0.960 . S
C1820 H1807 0.960 . S
C1820 C1819 1.524 . S
C1821 C1818 1.403 . S
C1821 C1822 1.392 . S
C1821 C1825 1.495 . S
C1822 C1821 1.392 . S
C1822 C1823 1.385 . S
C1822 C1824 1.478 1_655 S
C1823 H1817 0.930 1_655 S
C1823 C1819 1.400 . S
C1823 C1822 1.385 . S
C1824 C1822 1.478 1_455 S
C1824 C1826 1.381 . S
C1824 C1830 1.383 . S
C1825 C1821 1.495 . S
C1825 H1831 0.959 . S
C1825 H1832 0.961 . S
C1825 H1833 0.960 . S
C1826 C1824 1.381 . S
C1826 C1827 1.394 . S
C1826 H1834 0.930 . S
C1827 C1826 1.394 . S
C1827 C1828 1.383 . S
C1827 H1835 0.929 . S
C1828 C1827 1.383 . S
C1828 C1829 1.377 . S
C1829 H1813 0.930 . S
C1829 C1828 1.377 . S
C1829 C1830 1.379 . S
C1830 H1814 0.931 . S
C1830 C1824 1.383 . S
C1830 C1829 1.379 . S
H1831 C1825 0.959 . S
H1832 C1825 0.961 . S
H1833 C1825 0.960 . S
H1834 C1826 0.930 . S
H1835 C1827 0.929 . S
H1836 C1844 0.929 . S
H1837 C1846 0.930 . S
H1838 C1848 0.930 . S
H1839 C1851 0.929 . S
H1840 C1854 0.930 . S
H1841 C1856 0.960 . S
H1842 C1856 0.960 . S
H1843 C1856 0.960 . S
C1844 H1836 0.929 . S
C1844 C1845 1.377 . S
C1844 C1846 1.384 . S
C1845 C1844 1.377 . S
C1845 C1851 1.390 . S
C1846 H1837 0.930 . S
C1846 C1844 1.384 . S
C1846 C1847 1.372 . S
C1847 C1846 1.372 . S
C1847 C1848 1.400 . S
C1847 C1852 1.490 . S
C1848 H1838 0.930 . S
C1848 C1847 1.400 . S
C1848 C1851 1.386 . S
H1849 C1865 0.930 . S
H1850 C1866 0.931 . S
C1851 H1839 0.929 . S
C1851 C1845 1.390 . S
C1851 C1848 1.386 . S
C1852 C1847 1.490 . S
C1852 C1854 1.395 . S
C1852 C1855 1.403 . S
H1853 C1859 0.930 . S
C1854 H1840 0.930 . S
C1854 C1852 1.395 . S
C1854 C1857 1.403 . S
C1855 C1852 1.403 . S
C1855 C1856 1.524 . S
C1855 C1859 1.400 . S
C1856 H1841 0.960 . S
C1856 H1842 0.960 . S
C1856 H1843 0.960 . S
C1856 C1855 1.524 . S
C1857 C1854 1.403 . S
C1857 C1858 1.392 . S
C1857 C1861 1.495 . S
C1858 C1857 1.392 . S
C1858 C1859 1.385 . S
C1858 C1860 1.478 . S
C1859 H1853 0.930 . S
C1859 C1855 1.400 . S
C1859 C1858 1.385 . S
C1860 C1858 1.478 . S
C1860 C1862 1.381 . S
C1860 C1866 1.383 . S
C1861 C1857 1.495 . S
C1861 H1867 0.959 . S
C1861 H1868 0.961 . S
C1861 H1869 0.960 . S
C1862 C1860 1.381 . S
C1862 C1863 1.394 . S
C1862 H1870 0.930 . S
C1863 C1862 1.394 . S
C1863 C1864 1.383 . S
C1863 H1871 0.929 . S
C1864 C1863 1.383 . S
C1864 C1865 1.377 . S
C1865 H1849 0.930 . S
C1865 C1864 1.377 . S
C1865 C1866 1.379 . S
C1866 H1850 0.931 . S
C1866 C1860 1.383 . S
C1866 C1865 1.379 . S
H1867 C1861 0.959 . S
H1868 C1861 0.961 . S
H1869 C1861 0.960 . S
H1870 C1862 0.930 . S
H1871 C1863 0.929 . S
H1872 C1880 0.929 . S
H1873 C1882 0.930 . S
H1874 C1884 0.930 . S
H1875 C1887 0.929 . S
H1876 C1890 0.930 . S
H1877 C1892 0.960 . S
H1878 C1892 0.960 . S
H1879 C1892 0.960 . S
C1880 H1872 0.929 . S
C1880 C1881 1.377 . S
C1880 C1882 1.384 . S
C1881 C1880 1.377 . S
C1881 C1887 1.390 . S
C1882 H1873 0.930 . S
C1882 C1880 1.384 . S
C1882 C1883 1.372 . S
C1883 C1882 1.372 . S
C1883 C1884 1.400 . S
C1883 C1888 1.490 . S
C1884 H1874 0.930 . S
C1884 C1883 1.400 . S
C1884 C1887 1.386 . S
H1885 C1901 0.930 . S
H1886 C1902 0.931 . S
C1887 H1875 0.929 . S
C1887 C1881 1.390 . S
C1887 C1884 1.386 . S
C1888 C1883 1.490 . S
C1888 C1890 1.395 . S
C1888 C1891 1.403 . S
H1889 C1895 0.930 . S
C1890 H1876 0.930 . S
C1890 C1888 1.395 . S
C1890 C1893 1.403 . S
C1891 C1888 1.403 . S
C1891 C1892 1.524 . S
C1891 C1895 1.400 . S
C1892 H1877 0.960 . S
C1892 H1878 0.960 . S
C1892 H1879 0.960 . S
C1892 C1891 1.524 . S
C1893 C1890 1.403 . S
C1893 C1894 1.392 . S
C1893 C1897 1.495 . S
C1894 C1893 1.392 . S
C1894 C1895 1.385 . S
C1894 C1896 1.478 . S
C1895 H1889 0.930 . S
C1895 C1891 1.400 . S
C1895 C1894 1.385 . S
C1896 C1894 1.478 . S
C1896 C1898 1.381 . S
C1896 C1902 1.383 . S
C1897 C1893 1.495 . S
C1897 H1903 0.959 . S
C1897 H1904 0.961 . S
C1897 H1905 0.960 . S
C1898 C1896 1.381 . S
C1898 C1899 1.394 . S
C1898 H1906 0.930 . S
C1899 C1898 1.394 . S
C1899 C1900 1.383 . S
C1899 H1907 0.929 . S
C1900 C1899 1.383 . S
C1900 C1901 1.377 . S
C1901 H1885 0.930 . S
C1901 C1900 1.377 . S
C1901 C1902 1.379 . S
C1902 H1886 0.931 . S
C1902 C1896 1.383 . S
C1902 C1901 1.379 . S
H1903 C1897 0.959 . S
H1904 C1897 0.961 . S
H1905 C1897 0.960 . S
H1906 C1898 0.930 . S
H1907 C1899 0.929 . S
H1908 C1916 0.929 . S
H1909 C1918 0.930 . S
H1910 C1920 0.930 . S
H1911 C1923 0.929 . S
H1912 C1926 0.930 . S
H1913 C1928 0.960 . S
H1914 C1928 0.960 . S
H1915 C1928 0.960 . S
C1916 H1908 0.929 . S
C1916 C1917 1.377 . S
C1916 C1918 1.384 . S
C1917 C1916 1.377 . S
C1917 C1923 1.390 . S
C1918 H1909 0.930 . S
C1918 C1916 1.384 . S
C1918 C1919 1.372 . S
C1919 C1918 1.372 . S
C1919 C1920 1.400 . S
C1919 C1924 1.490 . S
C1920 H1910 0.930 . S
C1920 C1919 1.400 . S
C1920 C1923 1.386 . S
H1921 C1937 0.930 . S
H1922 C1938 0.931 . S
C1923 H1911 0.929 . S
C1923 C1917 1.390 . S
C1923 C1920 1.386 . S
C1924 C1919 1.490 . S
C1924 C1926 1.395 . S
C1924 C1927 1.403 . S
H1925 C1931 0.930 . S
C1926 H1912 0.930 . S
C1926 C1924 1.395 . S
C1926 C1929 1.403 . S
C1927 C1924 1.403 . S
C1927 C1928 1.524 . S
C1927 C1931 1.400 . S
C1928 H1913 0.960 . S
C1928 H1914 0.960 . S
C1928 H1915 0.960 . S
C1928 C1927 1.524 . S
C1929 C1926 1.403 . S
C1929 C1930 1.392 . S
C1929 C1933 1.495 . S
C1930 C1929 1.392 . S
C1930 C1931 1.385 . S
C1930 C1932 1.478 . S
C1931 H1925 0.930 . S
C1931 C1927 1.400 . S
C1931 C1930 1.385 . S
C1932 C1930 1.478 . S
C1932 C1934 1.381 . S
C1932 C1938 1.383 . S
C1933 C1929 1.495 . S
C1933 H1939 0.959 . S
C1933 H1940 0.961 . S
C1933 H1941 0.960 . S
C1934 C1932 1.381 . S
C1934 C1935 1.394 . S
C1934 H1942 0.930 . S
C1935 C1934 1.394 . S
C1935 C1936 1.383 . S
C1935 H1943 0.929 . S
C1936 C1935 1.383 . S
C1936 C1937 1.377 . S
C1937 H1921 0.930 . S
C1937 C1936 1.377 . S
C1937 C1938 1.379 . S
C1938 H1922 0.931 . S
C1938 C1932 1.383 . S
C1938 C1937 1.379 . S
H1939 C1933 0.959 . S
H1940 C1933 0.961 . S
H1941 C1933 0.960 . S
H1942 C1934 0.930 . S
H1943 C1935 0.929 . S
H1944 C1952 0.929 . S
H1945 C1954 0.930 . S
H1946 C1956 0.920 1_655 S
H1947 C1959 0.873 1_655 S
H1948 C1962 0.930 . S
H1949 C1964 0.960 . S
H1950 C1964 0.960 . S
H1951 C1964 0.960 . S
C1952 H1944 0.929 . S
C1952 C1953 1.377 . S
C1952 C1954 1.384 . S
C1953 C1952 1.377 . S
C1953 C1959 1.417 . S
C1954 H1945 0.930 . S
C1954 C1952 1.384 . S
C1954 C1955 1.372 . S
C1955 C1954 1.372 . S
C1955 C1956 1.400 . S
C1955 C1960 1.490 . S
C1956 H1946 0.920 1_455 S
C1956 C1955 1.400 . S
C1956 C1959 1.417 . S
H1957 C1973 0.930 . S
H1958 C1974 0.931 . S
C1959 H1947 0.873 1_455 S
C1959 C1953 1.417 . S
C1959 C1956 1.417 . S
C1960 C1955 1.490 . S
C1960 C1962 1.395 . S
C1960 C1963 1.403 . S
H1961 C1967 0.930 . S
C1962 H1948 0.930 . S
C1962 C1960 1.395 . S
C1962 C1965 1.403 . S
C1963 C1960 1.403 . S
C1963 C1964 1.524 . S
C1963 C1967 1.400 . S
C1964 H1949 0.960 . S
C1964 H1950 0.960 . S
C1964 H1951 0.960 . S
C1964 C1963 1.524 . S
C1965 C1962 1.403 . S
C1965 C1966 1.392 . S
C1965 C1969 1.495 . S
C1966 C1965 1.392 . S
C1966 C1967 1.385 . S
C1966 C1968 1.478 . S
C1967 H1961 0.930 . S
C1967 C1963 1.400 . S
C1967 C1966 1.385 . S
C1968 C1966 1.478 . S
C1968 C1970 1.381 . S
C1968 C1974 1.383 . S
C1969 C1965 1.495 . S
C1969 H1975 0.959 . S
C1969 H1976 0.963 . S
C1969 H1977 0.960 . S
C1970 C1968 1.381 . S
C1970 C1971 1.394 . S
C1970 H1978 0.930 . S
C1971 C1970 1.394 . S
C1971 C1972 1.383 . S
C1971 H1979 0.929 . S
C1972 C1971 1.383 . S
C1972 C1973 1.377 . S
C1973 H1957 0.930 . S
C1973 C1972 1.377 . S
C1973 C1974 1.379 . S
C1974 H1958 0.931 . S
C1974 C1968 1.383 . S
C1974 C1973 1.379 . S
H1975 C1969 0.959 . S
H1976 C1969 0.963 . S
H1977 C1969 0.960 . S
H1978 C1970 0.930 . S
H1979 C1971 0.929 . S
H1980 C1988 0.929 . S
H1981 C1990 0.930 . S
H1982 C1992 0.930 . S
H1983 C1995 0.929 . S
H1984 C1998 0.930 . S
H1985 C2000 0.960 . S
H1986 C2000 0.960 . S
H1987 C2000 0.960 . S
C1988 H1980 0.929 . S
C1988 C1989 1.377 . S
C1988 C1990 1.384 . S
C1989 C1988 1.377 . S
C1989 C1995 1.390 . S
C1990 H1981 0.930 . S
C1990 C1988 1.384 . S
C1990 C1991 1.372 . S
C1991 C1990 1.372 . S
C1991 C1992 1.400 . S
C1991 C1996 1.490 . S
C1992 H1982 0.930 . S
C1992 C1991 1.400 . S
C1992 C1995 1.386 . S
H1993 C2009 0.930 . S
H1994 C2010 0.931 . S
C1995 H1983 0.929 . S
C1995 C1989 1.390 . S
C1995 C1992 1.386 . S
C1996 C1991 1.490 . S
C1996 C1998 1.395 . S
C1996 C1999 1.403 . S
H1997 C2003 0.930 . S
C1998 H1984 0.930 . S
C1998 C1996 1.395 . S
C1998 C2001 1.403 . S
C1999 C1996 1.403 . S
C1999 C2000 1.524 . S
C1999 C2003 1.400 . S
C2000 H1985 0.960 . S
C2000 H1986 0.960 . S
C2000 H1987 0.960 . S
C2000 C1999 1.524 . S
C2001 C1998 1.403 . S
C2001 C2002 1.392 . S
C2001 C2005 1.495 . S
C2002 C2001 1.392 . S
C2002 C2003 1.385 . S
C2002 C2004 1.478 . S
C2003 H1997 0.930 . S
C2003 C1999 1.400 . S
C2003 C2002 1.385 . S
C2004 C2002 1.478 . S
C2004 C2006 1.381 . S
C2004 C2010 1.383 . S
C2005 C2001 1.495 . S
C2005 H2011 0.959 . S
C2005 H2012 0.961 . S
C2005 H2013 0.960 . S
C2006 C2004 1.381 . S
C2006 C2007 1.394 . S
C2006 H2014 0.930 . S
C2007 C2006 1.394 . S
C2007 C2008 1.383 . S
C2007 H2015 0.929 . S
C2008 C2007 1.383 . S
C2008 C2009 1.377 . S
C2009 H1993 0.930 . S
C2009 C2008 1.377 . S
C2009 C2010 1.379 . S
C2010 H1994 0.931 . S
C2010 C2004 1.383 . S
C2010 C2009 1.379 . S
H2011 C2005 0.959 . S
H2012 C2005 0.961 . S
H2013 C2005 0.960 . S
H2014 C2006 0.930 . S
H2015 C2007 0.929 . S
H2016 C2024 0.929 . S
H2017 C2026 0.930 . S
H2018 C2028 0.930 . S
H2019 C2031 0.929 . S
H2020 C2034 0.930 . S
H2021 C2036 0.960 . S
H2022 C2036 0.960 . S
H2023 C2036 0.960 . S
C2024 H2016 0.929 . S
C2024 C2025 1.377 . S
C2024 C2026 1.384 . S
C2025 C2024 1.377 . S
C2025 C2031 1.390 . S
C2026 H2017 0.930 . S
C2026 C2024 1.384 . S
C2026 C2027 1.372 . S
C2027 C2026 1.372 . S
C2027 C2028 1.400 . S
C2027 C2032 1.490 . S
C2028 H2018 0.930 . S
C2028 C2027 1.400 . S
C2028 C2031 1.386 . S
H2029 C2045 0.930 . S
H2030 C2046 0.931 . S
C2031 H2019 0.929 . S
C2031 C2025 1.390 . S
C2031 C2028 1.386 . S
C2032 C2027 1.490 . S
C2032 C2034 1.395 . S
C2032 C2035 1.403 . S
H2033 C2039 0.930 . S
C2034 H2020 0.930 . S
C2034 C2032 1.395 . S
C2034 C2037 1.403 . S
C2035 C2032 1.403 . S
C2035 C2036 1.524 . S
C2035 C2039 1.400 . S
C2036 H2021 0.960 . S
C2036 H2022 0.960 . S
C2036 H2023 0.960 . S
C2036 C2035 1.524 . S
C2037 C2034 1.403 . S
C2037 C2038 1.392 . S
C2037 C2041 1.495 . S
C2038 C2037 1.392 . S
C2038 C2039 1.385 . S
C2038 C2040 1.478 . S
C2039 H2033 0.930 . S
C2039 C2035 1.400 . S
C2039 C2038 1.385 . S
C2040 C2038 1.478 . S
C2040 C2042 1.381 . S
C2040 C2046 1.383 . S
C2041 C2037 1.495 . S
C2041 H2047 0.959 . S
C2041 H2048 0.961 . S
C2041 H2049 0.960 . S
C2042 C2040 1.381 . S
C2042 C2043 1.394 . S
C2042 H2050 0.930 . S
C2043 C2042 1.394 . S
C2043 C2044 1.383 . S
C2043 H2051 0.929 . S
C2044 C2043 1.383 . S
C2044 C2045 1.377 . S
C2045 H2029 0.930 . S
C2045 C2044 1.377 . S
C2045 C2046 1.379 . S
C2046 H2030 0.931 . S
C2046 C2040 1.383 . S
C2046 C2045 1.379 . S
H2047 C2041 0.959 . S
H2048 C2041 0.961 . S
H2049 C2041 0.960 . S
H2050 C2042 0.930 . S
H2051 C2043 0.929 . S
H2052 C2060 0.929 . S
H2053 C2062 0.930 . S
H2054 C2064 0.930 . S
H2055 C2067 0.929 . S
H2056 C2070 0.930 . S
H2057 C2072 0.960 1_565 S
H2058 C2072 0.960 1_565 S
H2059 C2072 0.960 . S
C2060 H2052 0.929 . S
C2060 C2061 1.377 . S
C2060 C2062 1.384 . S
C2061 C2060 1.377 . S
C2061 C2067 1.390 . S
C2062 H2053 0.930 . S
C2062 C2060 1.384 . S
C2062 C2063 1.372 . S
C2063 C2062 1.372 . S
C2063 C2064 1.400 . S
C2063 C2068 1.490 . S
C2064 H2054 0.930 . S
C2064 C2063 1.400 . S
C2064 C2067 1.386 . S
H2065 C2081 0.930 . S
H2066 C2082 0.931 . S
C2067 H2055 0.929 . S
C2067 C2061 1.390 . S
C2067 C2064 1.386 . S
C2068 C2063 1.490 . S
C2068 C2070 1.395 . S
C2068 C2071 1.403 . S
H2069 C2075 0.930 . S
C2070 H2056 0.930 . S
C2070 C2068 1.395 . S
C2070 C2073 1.403 . S
C2071 C2068 1.403 . S
C2071 C2072 1.524 . S
C2071 C2075 1.400 . S
C2072 H2057 0.960 1_545 S
C2072 H2058 0.960 1_545 S
C2072 H2059 0.960 . S
C2072 C2071 1.524 . S
C2073 C2070 1.403 . S
C2073 C2074 1.392 . S
C2073 C2077 1.495 . S
C2074 C2073 1.392 . S
C2074 C2075 1.385 . S
C2074 C2076 1.478 . S
C2075 H2069 0.930 . S
C2075 C2071 1.400 . S
C2075 C2074 1.385 . S
C2076 C2074 1.478 . S
C2076 C2078 1.381 . S
C2076 C2082 1.383 . S
C2077 C2073 1.495 . S
C2077 H2083 0.959 . S
C2077 H2084 0.961 . S
C2077 H2085 0.960 . S
C2078 C2076 1.381 . S
C2078 C2079 1.394 . S
C2078 H2086 0.930 . S
C2079 C2078 1.394 . S
C2079 C2080 1.383 . S
C2079 H2087 0.929 . S
C2080 C2079 1.383 . S
C2080 C2081 1.377 . S
C2081 H2065 0.930 . S
C2081 C2080 1.377 . S
C2081 C2082 1.379 . S
C2082 H2066 0.931 . S
C2082 C2076 1.383 . S
C2082 C2081 1.379 . S
H2083 C2077 0.959 . S
H2084 C2077 0.961 . S
H2085 C2077 0.960 . S
H2086 C2078 0.930 . S
H2087 C2079 0.929 . S
H2088 C2096 0.929 . S
H2089 C2098 0.930 . S
H2090 C2100 0.930 . S
H2091 C2103 0.929 . S
H2092 C2106 0.930 . S
H2093 C2108 0.960 . S
H2094 C2108 0.960 . S
H2095 C2108 0.960 . S
C2096 H2088 0.929 . S
C2096 C2097 1.377 . S
C2096 C2098 1.384 . S
C2097 C2096 1.377 . S
C2097 C2103 1.390 . S
C2098 H2089 0.930 . S
C2098 C2096 1.384 . S
C2098 C2099 1.372 . S
C2099 C2098 1.372 . S
C2099 C2100 1.400 . S
C2099 C2104 1.490 . S
C2100 H2090 0.930 . S
C2100 C2099 1.400 . S
C2100 C2103 1.386 . S
H2101 C2117 0.930 . S
H2102 C2118 0.931 . S
C2103 H2091 0.929 . S
C2103 C2097 1.390 . S
C2103 C2100 1.386 . S
C2104 C2099 1.490 . S
C2104 C2106 1.395 . S
C2104 C2107 1.403 . S
H2105 C2111 0.930 . S
C2106 H2092 0.930 . S
C2106 C2104 1.395 . S
C2106 C2109 1.403 . S
C2107 C2104 1.403 . S
C2107 C2108 1.524 . S
C2107 C2111 1.400 . S
C2108 H2093 0.960 . S
C2108 H2094 0.960 . S
C2108 H2095 0.960 . S
C2108 C2107 1.524 . S
C2109 C2106 1.403 . S
C2109 C2110 1.392 . S
C2109 C2113 1.495 . S
C2110 C2109 1.392 . S
C2110 C2111 1.385 . S
C2110 C2112 1.478 . S
C2111 H2105 0.930 . S
C2111 C2107 1.400 . S
C2111 C2110 1.385 . S
C2112 C2110 1.478 . S
C2112 C2114 1.381 . S
C2112 C2118 1.383 . S
C2113 C2109 1.495 . S
C2113 H2119 0.959 . S
C2113 H2120 0.961 . S
C2113 H2121 0.960 . S
C2114 C2112 1.381 . S
C2114 C2115 1.394 . S
C2114 H2122 0.930 . S
C2115 C2114 1.394 . S
C2115 C2116 1.383 . S
C2115 H2123 0.929 . S
C2116 C2115 1.383 . S
C2116 C2117 1.377 . S
C2117 H2101 0.930 . S
C2117 C2116 1.377 . S
C2117 C2118 1.379 . S
C2118 H2102 0.931 . S
C2118 C2112 1.383 . S
C2118 C2117 1.379 . S
H2119 C2113 0.959 . S
H2120 C2113 0.961 . S
H2121 C2113 0.960 . S
H2122 C2114 0.930 . S
H2123 C2115 0.929 . S
H2124 C2132 0.929 . S
H2125 C2134 0.930 . S
H2126 C2136 0.930 . S
H2127 C2139 0.929 . S
H2128 C2142 0.930 . S
H2129 C2144 0.960 . S
H2130 C2144 0.960 . S
H2131 C2144 0.960 . S
C2132 H2124 0.929 . S
C2132 C2133 1.377 . S
C2132 C2134 1.384 . S
C2133 C2132 1.377 . S
C2133 C2139 1.390 . S
C2134 H2125 0.930 . S
C2134 C2132 1.384 . S
C2134 C2135 1.372 . S
C2135 C2134 1.372 . S
C2135 C2136 1.400 . S
C2135 C2140 1.490 . S
C2136 H2126 0.930 . S
C2136 C2135 1.400 . S
C2136 C2139 1.386 . S
H2137 C2153 0.930 . S
H2138 C2154 0.931 . S
C2139 H2127 0.929 . S
C2139 C2133 1.390 . S
C2139 C2136 1.386 . S
C2140 C2135 1.490 . S
C2140 C2142 1.395 . S
C2140 C2143 1.403 . S
H2141 C2147 0.930 . S
C2142 H2128 0.930 . S
C2142 C2140 1.395 . S
C2142 C2145 1.403 . S
C2143 C2140 1.403 . S
C2143 C2144 1.524 . S
C2143 C2147 1.400 . S
C2144 H2129 0.960 . S
C2144 H2130 0.960 . S
C2144 H2131 0.960 . S
C2144 C2143 1.524 . S
C2145 C2142 1.403 . S
C2145 C2146 1.392 . S
C2145 C2149 1.495 . S
C2146 C2145 1.392 . S
C2146 C2147 1.385 . S
C2146 C2148 1.478 . S
C2147 H2141 0.930 . S
C2147 C2143 1.400 . S
C2147 C2146 1.385 . S
C2148 C2146 1.478 . S
C2148 C2150 1.381 . S
C2148 C2154 1.383 . S
C2149 C2145 1.495 . S
C2149 H2155 0.959 . S
C2149 H2156 0.961 . S
C2149 H2157 0.960 . S
C2150 C2148 1.381 . S
C2150 C2151 1.394 . S
C2150 H2158 0.930 . S
C2151 C2150 1.394 . S
C2151 C2152 1.383 . S
C2151 H2159 0.929 . S
C2152 C2151 1.383 . S
C2152 C2153 1.377 . S
C2153 H2137 0.930 . S
C2153 C2152 1.377 . S
C2153 C2154 1.379 . S
C2154 H2138 0.931 . S
C2154 C2148 1.383 . S
C2154 C2153 1.379 . S
H2155 C2149 0.959 . S
H2156 C2149 0.961 . S
H2157 C2149 0.960 . S
H2158 C2150 0.930 . S
H2159 C2151 0.929 . S
H2160 C2168 0.929 . S
H2161 C2170 0.930 . S
H2162 C2172 0.930 1_655 S
H2163 C2175 0.933 . S
H2164 C2178 0.930 . S
H2165 C2180 0.960 . S
H2166 C2180 0.960 . S
H2167 C2180 0.960 . S
C2168 H2160 0.929 . S
C2168 C2169 1.377 . S
C2168 C2170 1.384 . S
C2169 C2168 1.377 . S
C2169 C2175 1.384 1_455 S
C2170 H2161 0.930 . S
C2170 C2168 1.384 . S
C2170 C2171 1.372 . S
C2171 C2170 1.372 . S
C2171 C2172 1.400 . S
C2171 C2176 1.490 . S
C2172 H2162 0.930 1_455 S
C2172 C2171 1.400 . S
C2172 C2175 1.387 1_455 S
H2173 C2189 0.930 . S
H2174 C2190 0.931 . S
C2175 H2163 0.933 . S
C2175 C2169 1.384 1_655 S
C2175 C2172 1.387 1_655 S
C2176 C2171 1.490 . S
C2176 C2178 1.395 . S
C2176 C2179 1.378 1_455 S
H2177 C2183 0.930 1_655 S
C2178 H2164 0.930 . S
C2178 C2176 1.395 . S
C2178 C2181 1.403 . S
C2179 C2176 1.378 1_655 S
C2179 C2180 1.545 . S
C2179 C2183 1.403 1_655 S
C2180 H2165 0.960 . S
C2180 H2166 0.960 . S
C2180 H2167 0.960 . S
C2180 C2179 1.545 . S
C2181 C2178 1.403 . S
C2181 C2182 1.392 . S
C2181 C2185 1.495 . S
C2182 C2181 1.392 . S
C2182 C2183 1.385 . S
C2182 C2184 1.478 . S
C2183 H2177 0.930 1_455 S
C2183 C2179 1.403 1_455 S
C2183 C2182 1.385 . S
C2184 C2182 1.478 . S
C2184 C2186 1.381 . S
C2184 C2190 1.383 . S
C2185 C2181 1.495 . S
C2185 H2191 0.959 . S
C2185 H2192 0.961 . S
C2185 H2193 0.960 . S
C2186 C2184 1.381 . S
C2186 C2187 1.394 . S
C2186 H2194 0.930 . S
C2187 C2186 1.394 . S
C2187 C2188 1.383 . S
C2187 H2195 0.929 . S
C2188 C2187 1.383 . S
C2188 C2189 1.377 . S
C2189 H2173 0.930 . S
C2189 C2188 1.377 . S
C2189 C2190 1.379 . S
C2190 H2174 0.931 . S
C2190 C2184 1.383 . S
C2190 C2189 1.379 . S
H2191 C2185 0.959 . S
H2192 C2185 0.961 . S
H2193 C2185 0.960 . S
H2194 C2186 0.930 . S
H2195 C2187 0.929 . S
H2196 C2204 0.929 . S
H2197 C2206 0.930 . S
H2198 C2208 0.930 . S
H2199 C2211 0.929 . S
H2200 C2214 0.930 . S
H2201 C2216 0.960 . S
H2202 C2216 0.960 . S
H2203 C2216 0.960 . S
C2204 H2196 0.929 . S
C2204 C2205 1.377 . S
C2204 C2206 1.384 . S
C2205 C2204 1.377 . S
C2205 C2211 1.390 . S
C2206 H2197 0.930 . S
C2206 C2204 1.384 . S
C2206 C2207 1.372 . S
C2207 C2206 1.372 . S
C2207 C2208 1.400 . S
C2207 C2212 1.490 . S
C2208 H2198 0.930 . S
C2208 C2207 1.400 . S
C2208 C2211 1.386 . S
H2209 C2225 0.930 . S
H2210 C2226 0.931 . S
C2211 H2199 0.929 . S
C2211 C2205 1.390 . S
C2211 C2208 1.386 . S
C2212 C2207 1.490 . S
C2212 C2214 1.395 . S
C2212 C2215 1.403 . S
H2213 C2219 0.930 . S
C2214 H2200 0.930 . S
C2214 C2212 1.395 . S
C2214 C2217 1.403 . S
C2215 C2212 1.403 . S
C2215 C2216 1.524 . S
C2215 C2219 1.400 . S
C2216 H2201 0.960 . S
C2216 H2202 0.960 . S
C2216 H2203 0.960 . S
C2216 C2215 1.524 . S
C2217 C2214 1.403 . S
C2217 C2218 1.392 . S
C2217 C2221 1.495 . S
C2218 C2217 1.392 . S
C2218 C2219 1.385 . S
C2218 C2220 1.478 . S
C2219 H2213 0.930 . S
C2219 C2215 1.400 . S
C2219 C2218 1.385 . S
C2220 C2218 1.478 . S
C2220 C2222 1.381 . S
C2220 C2226 1.383 . S
C2221 C2217 1.495 . S
C2221 H2227 0.959 . S
C2221 H2228 0.961 . S
C2221 H2229 0.960 . S
C2222 C2220 1.381 . S
C2222 C2223 1.394 . S
C2222 H2230 0.930 . S
C2223 C2222 1.394 . S
C2223 C2224 1.383 . S
C2223 H2231 0.929 . S
C2224 C2223 1.383 . S
C2224 C2225 1.377 . S
C2225 H2209 0.930 . S
C2225 C2224 1.377 . S
C2225 C2226 1.379 . S
C2226 H2210 0.931 . S
C2226 C2220 1.383 . S
C2226 C2225 1.379 . S
H2227 C2221 0.959 . S
H2228 C2221 0.961 . S
H2229 C2221 0.960 . S
H2230 C2222 0.930 . S
H2231 C2223 0.929 . S
H2232 C2240 0.929 . S
H2233 C2242 0.930 . S
H2234 C2244 0.930 . S
H2235 C2247 0.929 . S
H2236 C2250 0.930 . S
H2237 C2252 0.960 . S
H2238 C2252 0.960 . S
H2239 C2252 0.960 . S
C2240 H2232 0.929 . S
C2240 C2241 1.377 . S
C2240 C2242 1.384 . S
C2241 C2240 1.377 . S
C2241 C2247 1.390 . S
C2242 H2233 0.930 . S
C2242 C2240 1.384 . S
C2242 C2243 1.372 . S
C2243 C2242 1.372 . S
C2243 C2244 1.400 . S
C2243 C2248 1.490 . S
C2244 H2234 0.930 . S
C2244 C2243 1.400 . S
C2244 C2247 1.386 . S
H2245 C2261 0.930 . S
H2246 C2262 0.931 . S
C2247 H2235 0.929 . S
C2247 C2241 1.390 . S
C2247 C2244 1.386 . S
C2248 C2243 1.490 . S
C2248 C2250 1.395 . S
C2248 C2251 1.403 . S
H2249 C2255 0.930 . S
C2250 H2236 0.930 . S
C2250 C2248 1.395 . S
C2250 C2253 1.403 . S
C2251 C2248 1.403 . S
C2251 C2252 1.524 . S
C2251 C2255 1.400 . S
C2252 H2237 0.960 . S
C2252 H2238 0.960 . S
C2252 H2239 0.960 . S
C2252 C2251 1.524 . S
C2253 C2250 1.403 . S
C2253 C2254 1.392 . S
C2253 C2257 1.495 . S
C2254 C2253 1.392 . S
C2254 C2255 1.385 . S
C2254 C2256 1.478 . S
C2255 H2249 0.930 . S
C2255 C2251 1.400 . S
C2255 C2254 1.385 . S
C2256 C2254 1.478 . S
C2256 C2258 1.381 . S
C2256 C2262 1.383 . S
C2257 C2253 1.495 . S
C2257 H2263 0.959 . S
C2257 H2264 0.961 . S
C2257 H2265 0.960 . S
C2258 C2256 1.381 . S
C2258 C2259 1.394 . S
C2258 H2266 0.930 . S
C2259 C2258 1.394 . S
C2259 C2260 1.383 . S
C2259 H2267 0.929 . S
C2260 C2259 1.383 . S
C2260 C2261 1.377 . S
C2261 H2245 0.930 . S
C2261 C2260 1.377 . S
C2261 C2262 1.379 . S
C2262 H2246 0.931 . S
C2262 C2256 1.383 . S
C2262 C2261 1.379 . S
H2263 C2257 0.959 . S
H2264 C2257 0.961 . S
H2265 C2257 0.960 . S
H2266 C2258 0.930 . S
H2267 C2259 0.929 . S
H2268 C2276 0.929 . S
H2269 C2278 0.930 . S
H2270 C2280 0.930 . S
H2271 C2283 0.929 . S
H2272 C2286 0.930 . S
H2273 C2288 0.960 . S
H2274 C2288 0.960 . S
H2275 C2288 0.960 . S
C2276 H2268 0.929 . S
C2276 C2277 1.377 . S
C2276 C2278 1.384 . S
C2277 C2276 1.377 . S
C2277 C2283 1.390 . S
C2278 H2269 0.930 . S
C2278 C2276 1.384 . S
C2278 C2279 1.372 . S
C2279 C2278 1.372 . S
C2279 C2280 1.400 . S
C2279 C2284 1.490 . S
C2280 H2270 0.930 . S
C2280 C2279 1.400 . S
C2280 C2283 1.386 . S
H2281 C2297 0.930 . S
H2282 C2298 0.931 . S
C2283 H2271 0.929 . S
C2283 C2277 1.390 . S
C2283 C2280 1.386 . S
C2284 C2279 1.490 . S
C2284 C2286 1.395 . S
C2284 C2287 1.403 . S
H2285 C2291 0.930 . S
C2286 H2272 0.930 . S
C2286 C2284 1.395 . S
C2286 C2289 1.403 . S
C2287 C2284 1.403 . S
C2287 C2288 1.524 . S
C2287 C2291 1.400 . S
C2288 H2273 0.960 . S
C2288 H2274 0.960 . S
C2288 H2275 0.960 . S
C2288 C2287 1.524 . S
C2289 C2286 1.403 . S
C2289 C2290 1.392 . S
C2289 C2293 1.495 . S
C2290 C2289 1.392 . S
C2290 C2291 1.385 . S
C2290 C2292 1.478 . S
C2291 H2285 0.930 . S
C2291 C2287 1.400 . S
C2291 C2290 1.385 . S
C2292 C2290 1.478 . S
C2292 C2294 1.381 . S
C2292 C2298 1.383 . S
C2293 C2289 1.495 . S
C2293 H2299 0.959 . S
C2293 H2300 0.961 . S
C2293 H2301 0.960 . S
C2294 C2292 1.381 . S
C2294 C2295 1.394 . S
C2294 H2302 0.930 . S
C2295 C2294 1.394 . S
C2295 C2296 1.383 . S
C2295 H2303 0.929 . S
C2296 C2295 1.383 . S
C2296 C2297 1.377 . S
C2297 H2281 0.930 . S
C2297 C2296 1.377 . S
C2297 C2298 1.379 . S
C2298 H2282 0.931 . S
C2298 C2292 1.383 . S
C2298 C2297 1.379 . S
H2299 C2293 0.959 . S
H2300 C2293 0.961 . S
H2301 C2293 0.960 . S
H2302 C2294 0.930 . S
H2303 C2295 0.929 . S
H2304 C2312 0.929 . S
H2305 C2314 0.930 . S
H2306 C2316 0.930 . S
H2307 C2319 0.929 . S
H2308 C2322 0.930 . S
H2309 C2324 0.960 . S
H2310 C2324 0.960 . S
H2311 C2324 0.960 . S
C2312 H2304 0.929 . S
C2312 C2313 1.377 . S
C2312 C2314 1.384 . S
C2313 C2312 1.377 . S
C2313 C2319 1.390 . S
C2314 H2305 0.930 . S
C2314 C2312 1.384 . S
C2314 C2315 1.372 . S
C2315 C2314 1.372 . S
C2315 C2316 1.400 . S
C2315 C2320 1.490 . S
C2316 H2306 0.930 . S
C2316 C2315 1.400 . S
C2316 C2319 1.386 . S
H2317 C2333 0.930 . S
H2318 C2334 0.931 . S
C2319 H2307 0.929 . S
C2319 C2313 1.390 . S
C2319 C2316 1.386 . S
C2320 C2315 1.490 . S
C2320 C2322 1.395 . S
C2320 C2323 1.403 . S
H2321 C2327 0.930 . S
C2322 H2308 0.930 . S
C2322 C2320 1.395 . S
C2322 C2325 1.403 . S
C2323 C2320 1.403 . S
C2323 C2324 1.524 . S
C2323 C2327 1.400 . S
C2324 H2309 0.960 . S
C2324 H2310 0.960 . S
C2324 H2311 0.960 . S
C2324 C2323 1.524 . S
C2325 C2322 1.403 . S
C2325 C2326 1.392 . S
C2325 C2329 1.495 . S
C2326 C2325 1.392 . S
C2326 C2327 1.385 . S
C2326 C2328 1.478 . S
C2327 H2321 0.930 . S
C2327 C2323 1.400 . S
C2327 C2326 1.385 . S
C2328 C2326 1.478 . S
C2328 C2330 1.381 . S
C2328 C2334 1.383 . S
C2329 C2325 1.495 . S
C2329 H2335 0.959 . S
C2329 H2336 0.961 . S
C2329 H2337 0.960 . S
C2330 C2328 1.381 . S
C2330 C2331 1.394 . S
C2330 H2338 0.930 . S
C2331 C2330 1.394 . S
C2331 C2332 1.383 . S
C2331 H2339 0.929 . S
C2332 C2331 1.383 . S
C2332 C2333 1.377 . S
C2333 H2317 0.930 . S
C2333 C2332 1.377 . S
C2333 C2334 1.379 . S
C2334 H2318 0.931 . S
C2334 C2328 1.383 . S
C2334 C2333 1.379 . S
H2335 C2329 0.959 . S
H2336 C2329 0.961 . S
H2337 C2329 0.960 . S
H2338 C2330 0.930 . S
H2339 C2331 0.929 . S
H2340 C2348 0.929 . S
H2341 C2350 0.930 . S
H2342 C2352 0.930 . S
H2343 C2355 0.929 . S
H2344 C2358 0.930 . S
H2345 C2360 0.960 . S
H2346 C2360 0.960 . S
H2347 C2360 0.960 . S
C2348 H2340 0.929 . S
C2348 C2349 1.377 . S
C2348 C2350 1.384 . S
C2349 C2348 1.377 . S
C2349 C2355 1.390 . S
C2350 H2341 0.930 . S
C2350 C2348 1.384 . S
C2350 C2351 1.372 . S
C2351 C2350 1.372 . S
C2351 C2352 1.400 . S
C2351 C2356 1.490 . S
C2352 H2342 0.930 . S
C2352 C2351 1.400 . S
C2352 C2355 1.386 . S
H2353 C2369 0.930 . S
H2354 C2370 0.931 . S
C2355 H2343 0.929 . S
C2355 C2349 1.390 . S
C2355 C2352 1.386 . S
C2356 C2351 1.490 . S
C2356 C2358 1.395 . S
C2356 C2359 1.403 . S
H2357 C2363 0.930 . S
C2358 H2344 0.930 . S
C2358 C2356 1.395 . S
C2358 C2361 1.403 . S
C2359 C2356 1.403 . S
C2359 C2360 1.524 . S
C2359 C2363 1.400 . S
C2360 H2345 0.960 . S
C2360 H2346 0.960 . S
C2360 H2347 0.960 . S
C2360 C2359 1.524 . S
C2361 C2358 1.403 . S
C2361 C2362 1.392 . S
C2361 C2365 1.495 . S
C2362 C2361 1.392 . S
C2362 C2363 1.385 . S
C2362 C2364 1.478 . S
C2363 H2357 0.930 . S
C2363 C2359 1.400 . S
C2363 C2362 1.385 . S
C2364 C2362 1.478 . S
C2364 C2366 1.381 . S
C2364 C2370 1.383 . S
C2365 C2361 1.495 . S
C2365 H2371 0.959 . S
C2365 H2372 0.961 . S
C2365 H2373 0.960 . S
C2366 C2364 1.381 . S
C2366 C2367 1.394 . S
C2366 H2374 0.930 . S
C2367 C2366 1.394 . S
C2367 C2368 1.383 . S
C2367 H2375 0.929 . S
C2368 C2367 1.383 . S
C2368 C2369 1.377 . S
C2369 H2353 0.930 . S
C2369 C2368 1.377 . S
C2369 C2370 1.379 . S
C2370 H2354 0.931 . S
C2370 C2364 1.383 . S
C2370 C2369 1.379 . S
H2371 C2365 0.959 . S
H2372 C2365 0.961 . S
H2373 C2365 0.960 . S
H2374 C2366 0.930 . S
H2375 C2367 0.929 . S
H2376 C2384 0.929 . S
H2377 C2386 0.930 . S
H2378 C2388 0.930 . S
H2379 C2391 0.929 . S
H2380 C2394 0.930 . S
H2381 C2396 0.960 . S
H2382 C2396 0.960 . S
H2383 C2396 0.960 . S
C2384 H2376 0.929 . S
C2384 C2385 1.377 . S
C2384 C2386 1.384 . S
C2385 C2384 1.377 . S
C2385 C2391 1.390 . S
C2386 H2377 0.930 . S
C2386 C2384 1.384 . S
C2386 C2387 1.372 . S
C2387 C2386 1.372 . S
C2387 C2388 1.400 . S
C2387 C2392 1.490 . S
C2388 H2378 0.930 . S
C2388 C2387 1.400 . S
C2388 C2391 1.386 . S
H2389 C2405 0.930 . S
H2390 C2406 0.931 . S
C2391 H2379 0.929 . S
C2391 C2385 1.390 . S
C2391 C2388 1.386 . S
C2392 C2387 1.490 . S
C2392 C2394 1.395 . S
C2392 C2395 1.403 . S
H2393 C2399 0.930 . S
C2394 H2380 0.930 . S
C2394 C2392 1.395 . S
C2394 C2397 1.403 . S
C2395 C2392 1.403 . S
C2395 C2396 1.524 . S
C2395 C2399 1.400 . S
C2396 H2381 0.960 . S
C2396 H2382 0.960 . S
C2396 H2383 0.960 . S
C2396 C2395 1.524 . S
C2397 C2394 1.403 . S
C2397 C2398 1.392 . S
C2397 C2401 1.495 . S
C2398 C2397 1.392 . S
C2398 C2399 1.385 . S
C2398 C2400 1.478 . S
C2399 H2393 0.930 . S
C2399 C2395 1.400 . S
C2399 C2398 1.385 . S
C2400 C2398 1.478 . S
C2400 C2402 1.381 . S
C2400 C2406 1.383 . S
C2401 C2397 1.495 . S
C2401 H2407 0.959 . S
C2401 H2408 0.961 . S
C2401 H2409 0.960 . S
C2402 C2400 1.381 . S
C2402 C2403 1.394 . S
C2402 H2410 0.930 . S
C2403 C2402 1.394 . S
C2403 C2404 1.383 . S
C2403 H2411 0.929 . S
C2404 C2403 1.383 . S
C2404 C2405 1.377 . S
C2405 H2389 0.930 . S
C2405 C2404 1.377 . S
C2405 C2406 1.379 . S
C2406 H2390 0.931 . S
C2406 C2400 1.383 . S
C2406 C2405 1.379 . S
H2407 C2401 0.959 . S
H2408 C2401 0.961 . S
H2409 C2401 0.960 . S
H2410 C2402 0.930 . S
H2411 C2403 0.929 . S
H2412 C2420 0.929 . S
H2413 C2422 0.930 . S
H2414 C2424 0.930 . S
H2415 C2427 0.929 . S
H2416 C2430 0.930 . S
H2417 C2432 0.960 . S
H2418 C2432 0.960 . S
H2419 C2432 0.960 . S
C2420 H2412 0.929 . S
C2420 C2421 1.377 . S
C2420 C2422 1.384 . S
C2421 C2420 1.377 . S
C2421 C2427 1.390 . S
C2422 H2413 0.930 . S
C2422 C2420 1.384 . S
C2422 C2423 1.372 . S
C2423 C2422 1.372 . S
C2423 C2424 1.400 . S
C2423 C2428 1.490 . S
C2424 H2414 0.930 . S
C2424 C2423 1.400 . S
C2424 C2427 1.386 . S
H2425 C2441 0.930 . S
H2426 C2442 0.931 . S
C2427 H2415 0.929 . S
C2427 C2421 1.390 . S
C2427 C2424 1.386 . S
C2428 C2423 1.490 . S
C2428 C2430 1.395 . S
C2428 C2431 1.403 . S
H2429 C2435 0.930 . S
C2430 H2416 0.930 . S
C2430 C2428 1.395 . S
C2430 C2433 1.403 . S
C2431 C2428 1.403 . S
C2431 C2432 1.524 . S
C2431 C2435 1.400 . S
C2432 H2417 0.960 . S
C2432 H2418 0.960 . S
C2432 H2419 0.960 . S
C2432 C2431 1.524 . S
C2433 C2430 1.403 . S
C2433 C2434 1.392 . S
C2433 C2437 1.495 . S
C2434 C2433 1.392 . S
C2434 C2435 1.385 . S
C2434 C2436 1.478 . S
C2435 H2429 0.930 . S
C2435 C2431 1.400 . S
C2435 C2434 1.385 . S
C2436 C2434 1.478 . S
C2436 C2438 1.381 . S
C2436 C2442 1.383 . S
C2437 C2433 1.495 . S
C2437 H2443 0.959 . S
C2437 H2444 0.961 . S
C2437 H2445 0.960 . S
C2438 C2436 1.381 . S
C2438 C2439 1.394 . S
C2438 H2446 0.930 . S
C2439 C2438 1.394 . S
C2439 C2440 1.383 . S
C2439 H2447 0.929 . S
C2440 C2439 1.383 . S
C2440 C2441 1.377 . S
C2441 H2425 0.930 . S
C2441 C2440 1.377 . S
C2441 C2442 1.379 . S
C2442 H2426 0.931 . S
C2442 C2436 1.383 . S
C2442 C2441 1.379 . S
H2443 C2437 0.959 . S
H2444 C2437 0.961 . S
H2445 C2437 0.960 . S
H2446 C2438 0.930 . S
H2447 C2439 0.929 . S
H2448 C2456 0.929 . S
H2449 C2458 0.930 . S
H2450 C2460 0.930 . S
H2451 C2463 0.929 . S
H2452 C2466 0.930 . S
H2453 C2468 0.960 . S
H2454 C2468 0.960 . S
H2455 C2468 0.960 . S
C2456 H2448 0.929 . S
C2456 C2457 1.377 . S
C2456 C2458 1.384 . S
C2457 C2456 1.377 . S
C2457 C2463 1.390 . S
C2458 H2449 0.930 . S
C2458 C2456 1.384 . S
C2458 C2459 1.372 . S
C2459 C2458 1.372 . S
C2459 C2460 1.400 . S
C2459 C2464 1.490 . S
C2460 H2450 0.930 . S
C2460 C2459 1.400 . S
C2460 C2463 1.386 . S
H2461 C2477 0.930 . S
H2462 C2478 0.931 . S
C2463 H2451 0.929 . S
C2463 C2457 1.390 . S
C2463 C2460 1.386 . S
C2464 C2459 1.490 . S
C2464 C2466 1.395 . S
C2464 C2467 1.403 . S
H2465 C2471 0.930 . S
C2466 H2452 0.930 . S
C2466 C2464 1.395 . S
C2466 C2469 1.403 . S
C2467 C2464 1.403 . S
C2467 C2468 1.524 . S
C2467 C2471 1.400 . S
C2468 H2453 0.960 . S
C2468 H2454 0.960 . S
C2468 H2455 0.960 . S
C2468 C2467 1.524 . S
C2469 C2466 1.403 . S
C2469 C2470 1.392 . S
C2469 C2473 1.495 . S
C2470 C2469 1.392 . S
C2470 C2471 1.385 . S
C2470 C2472 1.478 . S
C2471 H2465 0.930 . S
C2471 C2467 1.400 . S
C2471 C2470 1.385 . S
C2472 C2470 1.478 . S
C2472 C2474 1.381 . S
C2472 C2478 1.383 . S
C2473 C2469 1.495 . S
C2473 H2479 0.959 . S
C2473 H2480 0.961 . S
C2473 H2481 0.960 . S
C2474 C2472 1.381 . S
C2474 C2475 1.394 . S
C2474 H2482 0.930 . S
C2475 C2474 1.394 . S
C2475 C2476 1.383 . S
C2475 H2483 0.929 . S
C2476 C2475 1.383 . S
C2476 C2477 1.377 . S
C2477 H2461 0.930 . S
C2477 C2476 1.377 . S
C2477 C2478 1.379 . S
C2478 H2462 0.931 . S
C2478 C2472 1.383 . S
C2478 C2477 1.379 . S
H2479 C2473 0.959 . S
H2480 C2473 0.961 . S
H2481 C2473 0.960 . S
H2482 C2474 0.930 . S
H2483 C2475 0.929 . S
H2484 C2492 0.929 . S
H2485 C2494 0.930 . S
H2486 C2496 0.930 . S
H2487 C2499 0.929 . S
H2488 C2502 0.930 . S
H2489 C2504 0.960 . S
H2490 C2504 0.960 . S
H2491 C2504 0.960 . S
C2492 H2484 0.929 . S
C2492 C2493 1.377 . S
C2492 C2494 1.384 . S
C2493 C2492 1.377 . S
C2493 C2499 1.390 . S
C2494 H2485 0.930 . S
C2494 C2492 1.384 . S
C2494 C2495 1.372 . S
C2495 C2494 1.372 . S
C2495 C2496 1.400 . S
C2495 C2500 1.490 . S
C2496 H2486 0.930 . S
C2496 C2495 1.400 . S
C2496 C2499 1.386 . S
H2497 C2513 0.930 . S
H2498 C2514 0.931 . S
C2499 H2487 0.929 . S
C2499 C2493 1.390 . S
C2499 C2496 1.386 . S
C2500 C2495 1.490 . S
C2500 C2502 1.395 . S
C2500 C2503 1.403 . S
H2501 C2507 0.936 . S
C2502 H2488 0.930 . S
C2502 C2500 1.395 . S
C2502 C2505 1.403 1_556 S
C2503 C2500 1.403 . S
C2503 C2504 1.524 . S
C2503 C2507 1.381 1_556 S
C2504 H2489 0.960 . S
C2504 H2490 0.960 . S
C2504 H2491 0.960 . S
C2504 C2503 1.524 . S
C2505 C2502 1.403 1_554 S
C2505 C2506 1.392 . S
C2505 C2509 1.495 . S
C2506 C2505 1.392 . S
C2506 C2507 1.399 . S
C2506 C2508 1.478 . S
C2507 H2501 0.936 . S
C2507 C2503 1.381 1_554 S
C2507 C2506 1.399 . S
C2508 C2506 1.478 . S
C2508 C2510 1.381 . S
C2508 C2514 1.383 . S
C2509 C2505 1.495 . S
C2509 H2515 0.959 . S
C2509 H2516 0.961 . S
C2509 H2517 0.960 . S
C2510 C2508 1.381 . S
C2510 C2511 1.394 . S
C2510 H2518 0.930 . S
C2511 C2510 1.394 . S
C2511 C2512 1.383 . S
C2511 H2519 0.929 . S
C2512 C2511 1.383 . S
C2512 C2513 1.377 . S
C2513 H2497 0.930 . S
C2513 C2512 1.377 . S
C2513 C2514 1.379 . S
C2514 H2498 0.931 . S
C2514 C2508 1.383 . S
C2514 C2513 1.379 . S
H2515 C2509 0.959 . S
H2516 C2509 0.961 . S
H2517 C2509 0.960 . S
H2518 C2510 0.930 . S
H2519 C2511 0.929 . S
H2520 C2528 0.929 . S
H2521 C2530 0.930 . S
H2522 C2532 0.930 . S
H2523 C2535 0.929 . S
H2524 C2538 0.930 . S
H2525 C2540 0.960 . S
H2526 C2540 0.960 . S
H2527 C2540 0.960 . S
C2528 H2520 0.929 . S
C2528 C2529 1.377 . S
C2528 C2530 1.384 . S
C2529 C2528 1.377 . S
C2529 C2535 1.390 . S
C2530 H2521 0.930 . S
C2530 C2528 1.384 . S
C2530 C2531 1.372 . S
C2531 C2530 1.372 . S
C2531 C2532 1.400 . S
C2531 C2536 1.490 . S
C2532 H2522 0.930 . S
C2532 C2531 1.400 . S
C2532 C2535 1.386 . S
H2533 C2549 0.930 . S
H2534 C2550 0.931 . S
C2535 H2523 0.929 . S
C2535 C2529 1.390 . S
C2535 C2532 1.386 . S
C2536 C2531 1.490 . S
C2536 C2538 1.395 . S
C2536 C2539 1.403 . S
H2537 C2543 0.930 . S
C2538 H2524 0.930 . S
C2538 C2536 1.395 . S
C2538 C2541 1.403 . S
C2539 C2536 1.403 . S
C2539 C2540 1.524 . S
C2539 C2543 1.400 . S
C2540 H2525 0.960 . S
C2540 H2526 0.960 . S
C2540 H2527 0.960 . S
C2540 C2539 1.524 . S
C2541 C2538 1.403 . S
C2541 C2542 1.392 . S
C2541 C2545 1.495 1_556 S
C2542 C2541 1.392 . S
C2542 C2543 1.385 . S
C2542 C2544 1.478 1_556 S
C2543 H2537 0.930 . S
C2543 C2539 1.400 . S
C2543 C2542 1.385 . S
C2544 C2542 1.478 1_554 S
C2544 C2546 1.381 . S
C2544 C2550 1.383 . S
C2545 C2541 1.495 1_554 S
C2545 H2551 0.959 . S
C2545 H2552 0.961 . S
C2545 H2553 0.960 . S
C2546 C2544 1.381 . S
C2546 C2547 1.394 . S
C2546 H2554 0.930 . S
C2547 C2546 1.394 . S
C2547 C2548 1.383 . S
C2547 H2555 0.929 . S
C2548 C2547 1.383 . S
C2548 C2549 1.377 . S
C2549 H2533 0.930 . S
C2549 C2548 1.377 . S
C2549 C2550 1.379 . S
C2550 H2534 0.931 . S
C2550 C2544 1.383 . S
C2550 C2549 1.379 . S
H2551 C2545 0.959 . S
H2552 C2545 0.961 . S
H2553 C2545 0.960 . S
H2554 C2546 0.930 . S
H2555 C2547 0.929 . S
H2556 C2564 0.929 . S
H2557 C2566 0.930 . S
H2558 C2568 0.930 . S
H2559 C2571 0.929 . S
H2560 C2574 0.930 . S
H2561 C2576 0.960 1_554 S
H2562 C2576 0.960 . S
H2563 C2576 0.960 . S
C2564 H2556 0.929 . S
C2564 C2565 1.377 . S
C2564 C2566 1.384 . S
C2565 C2564 1.377 . S
C2565 C2571 1.390 . S
C2566 H2557 0.930 . S
C2566 C2564 1.384 . S
C2566 C2567 1.372 . S
C2567 C2566 1.372 . S
C2567 C2568 1.400 . S
C2567 C2572 1.490 . S
C2568 H2558 0.930 . S
C2568 C2567 1.400 . S
C2568 C2571 1.386 . S
H2569 C2585 0.930 . S
H2570 C2586 0.931 . S
C2571 H2559 0.929 . S
C2571 C2565 1.390 . S
C2571 C2568 1.386 . S
C2572 C2567 1.490 . S
C2572 C2574 1.395 . S
C2572 C2575 1.403 . S
H2573 C2579 0.930 . S
C2574 H2560 0.930 . S
C2574 C2572 1.395 . S
C2574 C2577 1.403 . S
C2575 C2572 1.403 . S
C2575 C2576 1.524 . S
C2575 C2579 1.400 1_556 S
C2576 H2561 0.960 1_556 S
C2576 H2562 0.960 . S
C2576 H2563 0.960 . S
C2576 C2575 1.524 . S
C2577 C2574 1.403 . S
C2577 C2578 1.392 1_556 S
C2577 C2581 1.495 . S
C2578 C2577 1.392 1_554 S
C2578 C2579 1.385 . S
C2578 C2580 1.478 . S
C2579 H2573 0.930 . S
C2579 C2575 1.400 1_554 S
C2579 C2578 1.385 . S
C2580 C2578 1.478 . S
C2580 C2582 1.381 . S
C2580 C2586 1.383 . S
C2581 C2577 1.495 . S
C2581 H2587 0.959 . S
C2581 H2588 0.961 . S
C2581 H2589 0.960 1_556 S
C2582 C2580 1.381 . S
C2582 C2583 1.394 . S
C2582 H2590 0.930 . S
C2583 C2582 1.394 . S
C2583 C2584 1.383 . S
C2583 H2591 0.929 . S
C2584 C2583 1.383 . S
C2584 C2585 1.377 . S
C2585 H2569 0.930 . S
C2585 C2584 1.377 . S
C2585 C2586 1.379 . S
C2586 H2570 0.931 . S
C2586 C2580 1.383 . S
C2586 C2585 1.379 . S
H2587 C2581 0.959 . S
H2588 C2581 0.961 . S
H2589 C2581 0.960 1_554 S
H2590 C2582 0.930 . S
H2591 C2583 0.929 . S
H2592 C2600 0.929 . S
H2593 C2602 0.930 . S
H2594 C2604 0.930 . S
H2595 C2607 0.929 . S
H2596 C2610 0.930 . S
H2597 C2612 0.960 . S
H2598 C2612 0.960 . S
H2599 C2612 0.960 . S
C2600 H2592 0.929 . S
C2600 C2601 1.377 . S
C2600 C2602 1.384 . S
C2601 C2600 1.377 . S
C2601 C2607 1.390 . S
C2602 H2593 0.930 . S
C2602 C2600 1.384 . S
C2602 C2603 1.372 . S
C2603 C2602 1.372 . S
C2603 C2604 1.400 . S
C2603 C2608 1.490 . S
C2604 H2594 0.930 . S
C2604 C2603 1.400 . S
C2604 C2607 1.386 . S
H2605 C2621 0.930 . S
H2606 C2622 0.931 . S
C2607 H2595 0.929 . S
C2607 C2601 1.390 . S
C2607 C2604 1.386 . S
C2608 C2603 1.490 . S
C2608 C2610 1.395 . S
C2608 C2611 1.403 . S
H2609 C2615 0.930 . S
C2610 H2596 0.930 . S
C2610 C2608 1.395 . S
C2610 C2613 1.403 . S
C2611 C2608 1.403 . S
C2611 C2612 1.524 . S
C2611 C2615 1.400 . S
C2612 H2597 0.960 . S
C2612 H2598 0.960 . S
C2612 H2599 0.960 . S
C2612 C2611 1.524 . S
C2613 C2610 1.403 . S
C2613 C2614 1.392 . S
C2613 C2617 1.495 . S
C2614 C2613 1.392 . S
C2614 C2615 1.385 . S
C2614 C2616 1.478 . S
C2615 H2609 0.930 . S
C2615 C2611 1.400 . S
C2615 C2614 1.385 . S
C2616 C2614 1.478 . S
C2616 C2618 1.381 . S
C2616 C2622 1.383 . S
C2617 C2613 1.495 . S
C2617 H2623 0.959 . S
C2617 H2624 0.961 . S
C2617 H2625 0.960 . S
C2618 C2616 1.381 . S
C2618 C2619 1.394 . S
C2618 H2626 0.930 . S
C2619 C2618 1.394 . S
C2619 C2620 1.383 . S
C2619 H2627 0.929 . S
C2620 C2619 1.383 . S
C2620 C2621 1.377 . S
C2621 H2605 0.930 . S
C2621 C2620 1.377 . S
C2621 C2622 1.379 . S
C2622 H2606 0.931 . S
C2622 C2616 1.383 . S
C2622 C2621 1.379 . S
H2623 C2617 0.959 . S
H2624 C2617 0.961 . S
H2625 C2617 0.960 . S
H2626 C2618 0.930 . S
H2627 C2619 0.929 . S
H2628 C2636 0.929 . S
H2629 C2638 0.930 . S
H2630 C2640 0.930 . S
H2631 C2643 0.929 . S
H2632 C2646 0.930 . S
H2633 C2648 0.960 . S
H2634 C2648 0.960 . S
H2635 C2648 0.960 . S
C2636 H2628 0.929 . S
C2636 C2637 1.377 . S
C2636 C2638 1.384 . S
C2637 C2636 1.377 . S
C2637 C2643 1.390 . S
C2638 H2629 0.930 . S
C2638 C2636 1.384 . S
C2638 C2639 1.372 . S
C2639 C2638 1.372 . S
C2639 C2640 1.400 . S
C2639 C2644 1.490 . S
C2640 H2630 0.930 . S
C2640 C2639 1.400 . S
C2640 C2643 1.386 . S
H2641 C2657 0.930 . S
H2642 C2658 0.931 . S
C2643 H2631 0.929 . S
C2643 C2637 1.390 . S
C2643 C2640 1.386 . S
C2644 C2639 1.490 . S
C2644 C2646 1.395 . S
C2644 C2647 1.403 . S
H2645 C2651 0.930 . S
C2646 H2632 0.930 . S
C2646 C2644 1.395 . S
C2646 C2649 1.403 . S
C2647 C2644 1.403 . S
C2647 C2648 1.524 . S
C2647 C2651 1.400 . S
C2648 H2633 0.960 . S
C2648 H2634 0.960 . S
C2648 H2635 0.960 . S
C2648 C2647 1.524 . S
C2649 C2646 1.403 . S
C2649 C2650 1.392 . S
C2649 C2653 1.495 . S
C2650 C2649 1.392 . S
C2650 C2651 1.385 . S
C2650 C2652 1.478 . S
C2651 H2645 0.930 . S
C2651 C2647 1.400 . S
C2651 C2650 1.385 . S
C2652 C2650 1.478 . S
C2652 C2654 1.381 . S
C2652 C2658 1.383 . S
C2653 C2649 1.495 . S
C2653 H2659 0.959 . S
C2653 H2660 0.961 . S
C2653 H2661 0.960 . S
C2654 C2652 1.381 . S
C2654 C2655 1.394 . S
C2654 H2662 0.930 . S
C2655 C2654 1.394 . S
C2655 C2656 1.383 . S
C2655 H2663 0.929 . S
C2656 C2655 1.383 . S
C2656 C2657 1.377 . S
C2657 H2641 0.930 . S
C2657 C2656 1.377 . S
C2657 C2658 1.379 . S
C2658 H2642 0.931 . S
C2658 C2652 1.383 . S
C2658 C2657 1.379 . S
H2659 C2653 0.959 . S
H2660 C2653 0.961 . S
H2661 C2653 0.960 . S
H2662 C2654 0.930 . S
H2663 C2655 0.929 . S
H2664 C2672 0.929 . S
H2665 C2674 0.930 . S
H2666 C2676 0.930 . S
H2667 C2679 0.929 . S
H2668 C2682 0.930 . S
H2669 C2684 0.960 . S
H2670 C2684 0.960 . S
H2671 C2684 0.960 . S
C2672 H2664 0.929 . S
C2672 C2673 1.377 . S
C2672 C2674 1.384 . S
C2673 C2672 1.377 . S
C2673 C2679 1.390 . S
C2674 H2665 0.930 . S
C2674 C2672 1.384 . S
C2674 C2675 1.372 . S
C2675 C2674 1.372 . S
C2675 C2676 1.400 . S
C2675 C2680 1.490 . S
C2676 H2666 0.930 . S
C2676 C2675 1.400 . S
C2676 C2679 1.386 . S
H2677 C2693 0.930 . S
H2678 C2694 0.931 . S
C2679 H2667 0.929 . S
C2679 C2673 1.390 . S
C2679 C2676 1.386 . S
C2680 C2675 1.490 . S
C2680 C2682 1.395 . S
C2680 C2683 1.403 . S
H2681 C2687 0.930 . S
C2682 H2668 0.930 . S
C2682 C2680 1.395 . S
C2682 C2685 1.403 . S
C2683 C2680 1.403 . S
C2683 C2684 1.524 . S
C2683 C2687 1.400 . S
C2684 H2669 0.960 . S
C2684 H2670 0.960 . S
C2684 H2671 0.960 . S
C2684 C2683 1.524 . S
C2685 C2682 1.403 . S
C2685 C2686 1.392 . S
C2685 C2689 1.495 . S
C2686 C2685 1.392 . S
C2686 C2687 1.385 . S
C2686 C2688 1.478 . S
C2687 H2681 0.930 . S
C2687 C2683 1.400 . S
C2687 C2686 1.385 . S
C2688 C2686 1.478 . S
C2688 C2690 1.381 . S
C2688 C2694 1.383 . S
C2689 C2685 1.495 . S
C2689 H2695 0.959 . S
C2689 H2696 0.961 . S
C2689 H2697 0.960 . S
C2690 C2688 1.381 . S
C2690 C2691 1.394 . S
C2690 H2698 0.930 . S
C2691 C2690 1.394 . S
C2691 C2692 1.383 . S
C2691 H2699 0.929 . S
C2692 C2691 1.383 . S
C2692 C2693 1.377 . S
C2693 H2677 0.930 . S
C2693 C2692 1.377 . S
C2693 C2694 1.379 . S
C2694 H2678 0.931 . S
C2694 C2688 1.383 . S
C2694 C2693 1.379 . S
H2695 C2689 0.959 . S
H2696 C2689 0.961 . S
H2697 C2689 0.960 . S
H2698 C2690 0.930 . S
H2699 C2691 0.929 . S
H2700 C2708 0.929 . S
H2701 C2710 0.930 . S
H2702 C2712 0.930 . S
H2703 C2715 0.929 . S
H2704 C2718 0.930 . S
H2705 C2720 0.960 . S
H2706 C2720 0.960 . S
H2707 C2720 0.960 . S
C2708 H2700 0.929 . S
C2708 C2709 1.377 . S
C2708 C2710 1.384 . S
C2709 C2708 1.377 . S
C2709 C2715 1.390 . S
C2710 H2701 0.930 . S
C2710 C2708 1.384 . S
C2710 C2711 1.372 . S
C2711 C2710 1.372 . S
C2711 C2712 1.400 . S
C2711 C2716 1.490 . S
C2712 H2702 0.930 . S
C2712 C2711 1.400 . S
C2712 C2715 1.386 . S
H2713 C2729 0.930 . S
H2714 C2730 0.931 . S
C2715 H2703 0.929 . S
C2715 C2709 1.390 . S
C2715 C2712 1.386 . S
C2716 C2711 1.490 . S
C2716 C2718 1.395 . S
C2716 C2719 1.403 . S
H2717 C2723 0.930 . S
C2718 H2704 0.930 . S
C2718 C2716 1.395 . S
C2718 C2721 1.403 . S
C2719 C2716 1.403 . S
C2719 C2720 1.524 . S
C2719 C2723 1.400 . S
C2720 H2705 0.960 . S
C2720 H2706 0.960 . S
C2720 H2707 0.960 . S
C2720 C2719 1.524 . S
C2721 C2718 1.403 . S
C2721 C2722 1.392 . S
C2721 C2725 1.495 . S
C2722 C2721 1.392 . S
C2722 C2723 1.385 . S
C2722 C2724 1.478 . S
C2723 H2717 0.930 . S
C2723 C2719 1.400 . S
C2723 C2722 1.385 . S
C2724 C2722 1.478 . S
C2724 C2726 1.381 . S
C2724 C2730 1.383 . S
C2725 C2721 1.495 . S
C2725 H2731 0.959 . S
C2725 H2732 0.961 . S
C2725 H2733 0.960 . S
C2726 C2724 1.381 . S
C2726 C2727 1.394 . S
C2726 H2734 0.930 . S
C2727 C2726 1.394 . S
C2727 C2728 1.383 . S
C2727 H2735 0.929 . S
C2728 C2727 1.383 . S
C2728 C2729 1.377 . S
C2729 H2713 0.930 . S
C2729 C2728 1.377 . S
C2729 C2730 1.379 . S
C2730 H2714 0.931 . S
C2730 C2724 1.383 . S
C2730 C2729 1.379 . S
H2731 C2725 0.959 . S
H2732 C2725 0.961 . S
H2733 C2725 0.960 . S
H2734 C2726 0.930 . S
H2735 C2727 0.929 . S
H2736 C2744 0.929 . S
H2737 C2746 0.930 . S
H2738 C2748 0.930 . S
H2739 C2751 0.929 . S
H2740 C2754 0.930 . S
H2741 C2756 0.960 . S
H2742 C2756 0.960 . S
H2743 C2756 0.960 . S
C2744 H2736 0.929 . S
C2744 C2745 1.377 . S
C2744 C2746 1.384 . S
C2745 C2744 1.377 . S
C2745 C2751 1.390 . S
C2746 H2737 0.930 . S
C2746 C2744 1.384 . S
C2746 C2747 1.372 . S
C2747 C2746 1.372 . S
C2747 C2748 1.400 . S
C2747 C2752 1.490 . S
C2748 H2738 0.930 . S
C2748 C2747 1.400 . S
C2748 C2751 1.386 . S
H2749 C2765 0.930 . S
H2750 C2766 0.931 . S
C2751 H2739 0.929 . S
C2751 C2745 1.390 . S
C2751 C2748 1.386 . S
C2752 C2747 1.490 . S
C2752 C2754 1.395 . S
C2752 C2755 1.403 . S
H2753 C2759 0.930 . S
C2754 H2740 0.930 . S
C2754 C2752 1.395 . S
C2754 C2757 1.403 . S
C2755 C2752 1.403 . S
C2755 C2756 1.524 . S
C2755 C2759 1.400 . S
C2756 H2741 0.960 . S
C2756 H2742 0.960 . S
C2756 H2743 0.960 . S
C2756 C2755 1.524 . S
C2757 C2754 1.403 . S
C2757 C2758 1.392 . S
C2757 C2761 1.495 . S
C2758 C2757 1.392 . S
C2758 C2759 1.385 . S
C2758 C2760 1.478 . S
C2759 H2753 0.930 . S
C2759 C2755 1.400 . S
C2759 C2758 1.385 . S
C2760 C2758 1.478 . S
C2760 C2762 1.381 . S
C2760 C2766 1.383 . S
C2761 C2757 1.495 . S
C2761 H2767 0.959 . S
C2761 H2768 0.961 . S
C2761 H2769 0.960 . S
C2762 C2760 1.381 . S
C2762 C2763 1.394 . S
C2762 H2770 0.930 . S
C2763 C2762 1.394 . S
C2763 C2764 1.383 . S
C2763 H2771 0.929 . S
C2764 C2763 1.383 . S
C2764 C2765 1.377 . S
C2765 H2749 0.930 . S
C2765 C2764 1.377 . S
C2765 C2766 1.379 . S
C2766 H2750 0.931 . S
C2766 C2760 1.383 . S
C2766 C2765 1.379 . S
H2767 C2761 0.959 . S
H2768 C2761 0.961 . S
H2769 C2761 0.960 . S
H2770 C2762 0.930 . S
H2771 C2763 0.929 . S
H2772 C2780 0.929 . S
H2773 C2782 0.930 . S
H2774 C2784 0.930 . S
H2775 C2787 0.929 . S
H2776 C2790 0.930 . S
H2777 C2792 0.960 . S
H2778 C2792 0.960 . S
H2779 C2792 0.960 . S
C2780 H2772 0.929 . S
C2780 C2781 1.377 . S
C2780 C2782 1.384 . S
C2781 C2780 1.377 . S
C2781 C2787 1.390 . S
C2782 H2773 0.930 . S
C2782 C2780 1.384 . S
C2782 C2783 1.372 . S
C2783 C2782 1.372 . S
C2783 C2784 1.400 . S
C2783 C2788 1.490 . S
C2784 H2774 0.930 . S
C2784 C2783 1.400 . S
C2784 C2787 1.386 . S
H2785 C2801 0.930 . S
H2786 C2802 0.931 . S
C2787 H2775 0.929 . S
C2787 C2781 1.390 . S
C2787 C2784 1.386 . S
C2788 C2783 1.490 . S
C2788 C2790 1.395 . S
C2788 C2791 1.403 . S
H2789 C2795 0.930 . S
C2790 H2776 0.930 . S
C2790 C2788 1.395 . S
C2790 C2793 1.403 . S
C2791 C2788 1.403 . S
C2791 C2792 1.524 . S
C2791 C2795 1.400 . S
C2792 H2777 0.960 . S
C2792 H2778 0.960 . S
C2792 H2779 0.960 . S
C2792 C2791 1.524 . S
C2793 C2790 1.403 . S
C2793 C2794 1.392 . S
C2793 C2797 1.495 . S
C2794 C2793 1.392 . S
C2794 C2795 1.385 . S
C2794 C2796 1.478 . S
C2795 H2789 0.930 . S
C2795 C2791 1.400 . S
C2795 C2794 1.385 . S
C2796 C2794 1.478 . S
C2796 C2798 1.381 . S
C2796 C2802 1.383 . S
C2797 C2793 1.495 . S
C2797 H2803 0.959 . S
C2797 H2804 0.961 . S
C2797 H2805 0.960 . S
C2798 C2796 1.381 . S
C2798 C2799 1.394 . S
C2798 H2806 0.930 . S
C2799 C2798 1.394 . S
C2799 C2800 1.383 . S
C2799 H2807 0.929 . S
C2800 C2799 1.383 . S
C2800 C2801 1.377 . S
C2801 H2785 0.930 . S
C2801 C2800 1.377 . S
C2801 C2802 1.379 . S
C2802 H2786 0.931 . S
C2802 C2796 1.383 . S
C2802 C2801 1.379 . S
H2803 C2797 0.959 . S
H2804 C2797 0.961 . S
H2805 C2797 0.960 . S
H2806 C2798 0.930 . S
H2807 C2799 0.929 . S
H2808 C2816 0.929 . S
H2809 C2818 0.930 . S
H2810 C2820 0.930 . S
H2811 C2823 0.929 . S
H2812 C2826 0.930 . S
H2813 C2828 0.960 . S
H2814 C2828 0.960 . S
H2815 C2828 0.960 . S
C2816 H2808 0.929 . S
C2816 C2817 1.377 . S
C2816 C2818 1.384 . S
C2817 C2816 1.377 . S
C2817 C2823 1.390 . S
C2818 H2809 0.930 . S
C2818 C2816 1.384 . S
C2818 C2819 1.372 . S
C2819 C2818 1.372 . S
C2819 C2820 1.400 . S
C2819 C2824 1.490 . S
C2820 H2810 0.930 . S
C2820 C2819 1.400 . S
C2820 C2823 1.386 . S
H2821 C2837 0.930 . S
H2822 C2838 0.931 . S
C2823 H2811 0.929 . S
C2823 C2817 1.390 . S
C2823 C2820 1.386 . S
C2824 C2819 1.490 . S
C2824 C2826 1.395 . S
C2824 C2827 1.403 . S
H2825 C2831 0.930 . S
C2826 H2812 0.930 . S
C2826 C2824 1.395 . S
C2826 C2829 1.403 . S
C2827 C2824 1.403 . S
C2827 C2828 1.524 . S
C2827 C2831 1.400 . S
C2828 H2813 0.960 . S
C2828 H2814 0.960 . S
C2828 H2815 0.960 . S
C2828 C2827 1.524 . S
C2829 C2826 1.403 . S
C2829 C2830 1.392 . S
C2829 C2833 1.495 . S
C2830 C2829 1.392 . S
C2830 C2831 1.385 . S
C2830 C2832 1.478 . S
C2831 H2825 0.930 . S
C2831 C2827 1.400 . S
C2831 C2830 1.385 . S
C2832 C2830 1.478 . S
C2832 C2834 1.381 . S
C2832 C2838 1.383 . S
C2833 C2829 1.495 . S
C2833 H2839 0.959 . S
C2833 H2840 0.961 . S
C2833 H2841 0.960 . S
C2834 C2832 1.381 . S
C2834 C2835 1.394 . S
C2834 H2842 0.930 . S
C2835 C2834 1.394 . S
C2835 C2836 1.383 . S
C2835 H2843 0.929 . S
C2836 C2835 1.383 . S
C2836 C2837 1.377 . S
C2837 H2821 0.930 . S
C2837 C2836 1.377 . S
C2837 C2838 1.379 . S
C2838 H2822 0.931 . S
C2838 C2832 1.383 . S
C2838 C2837 1.379 . S
H2839 C2833 0.959 . S
H2840 C2833 0.961 . S
H2841 C2833 0.960 . S
H2842 C2834 0.930 . S
H2843 C2835 0.929 . S
H2844 C2852 0.929 . S
H2845 C2854 0.930 . S
H2846 C2856 0.930 . S
H2847 C2859 0.929 . S
H2848 C2862 0.930 . S
H2849 C2864 0.960 . S
H2850 C2864 0.960 . S
H2851 C2864 0.960 . S
C2852 H2844 0.929 . S
C2852 C2853 1.377 . S
C2852 C2854 1.384 . S
C2853 C2852 1.377 . S
C2853 C2859 1.390 . S
C2854 H2845 0.930 . S
C2854 C2852 1.384 . S
C2854 C2855 1.372 . S
C2855 C2854 1.372 . S
C2855 C2856 1.400 . S
C2855 C2860 1.490 . S
C2856 H2846 0.930 . S
C2856 C2855 1.400 . S
C2856 C2859 1.386 . S
H2857 C2873 0.930 . S
H2858 C2874 0.931 . S
C2859 H2847 0.929 . S
C2859 C2853 1.390 . S
C2859 C2856 1.386 . S
C2860 C2855 1.490 . S
C2860 C2862 1.395 . S
C2860 C2863 1.403 . S
H2861 C2867 0.930 . S
C2862 H2848 0.930 . S
C2862 C2860 1.395 . S
C2862 C2865 1.403 . S
C2863 C2860 1.403 . S
C2863 C2864 1.524 . S
C2863 C2867 1.400 . S
C2864 H2849 0.960 . S
C2864 H2850 0.960 . S
C2864 H2851 0.960 . S
C2864 C2863 1.524 . S
C2865 C2862 1.403 . S
C2865 C2866 1.392 . S
C2865 C2869 1.495 . S
C2866 C2865 1.392 . S
C2866 C2867 1.385 . S
C2866 C2868 1.478 . S
C2867 H2861 0.930 . S
C2867 C2863 1.400 . S
C2867 C2866 1.385 . S
C2868 C2866 1.478 . S
C2868 C2870 1.381 . S
C2868 C2874 1.383 . S
C2869 C2865 1.495 . S
C2869 H2875 0.959 . S
C2869 H2876 0.961 . S
C2869 H2877 0.960 . S
C2870 C2868 1.381 . S
C2870 C2871 1.394 . S
C2870 H2878 0.930 . S
C2871 C2870 1.394 . S
C2871 C2872 1.383 . S
C2871 H2879 0.929 . S
C2872 C2871 1.383 . S
C2872 C2873 1.377 . S
C2873 H2857 0.930 . S
C2873 C2872 1.377 . S
C2873 C2874 1.379 . S
C2874 H2858 0.931 . S
C2874 C2868 1.383 . S
C2874 C2873 1.379 . S
H2875 C2869 0.959 . S
H2876 C2869 0.961 . S
H2877 C2869 0.960 . S
H2878 C2870 0.930 . S
H2879 C2871 0.929 . S
H2880 C2888 0.929 . S
H2881 C2890 0.930 . S
H2882 C2892 0.930 . S
H2883 C2895 0.929 . S
H2884 C2898 0.930 . S
H2885 C2900 0.960 . S
H2886 C2900 0.960 . S
H2887 C2900 0.960 . S
C2888 H2880 0.929 . S
C2888 C2889 1.377 . S
C2888 C2890 1.384 . S
C2889 C2888 1.377 . S
C2889 C2895 1.390 . S
C2890 H2881 0.930 . S
C2890 C2888 1.384 . S
C2890 C2891 1.372 . S
C2891 C2890 1.372 . S
C2891 C2892 1.400 . S
C2891 C2896 1.490 . S
C2892 H2882 0.930 . S
C2892 C2891 1.400 . S
C2892 C2895 1.386 . S
H2893 C2909 0.930 . S
H2894 C2910 0.931 . S
C2895 H2883 0.929 . S
C2895 C2889 1.390 . S
C2895 C2892 1.386 . S
C2896 C2891 1.490 . S
C2896 C2898 1.395 . S
C2896 C2899 1.403 . S
H2897 C2903 0.930 . S
C2898 H2884 0.930 . S
C2898 C2896 1.395 . S
C2898 C2901 1.403 . S
C2899 C2896 1.403 . S
C2899 C2900 1.524 . S
C2899 C2903 1.400 . S
C2900 H2885 0.960 . S
C2900 H2886 0.960 . S
C2900 H2887 0.960 . S
C2900 C2899 1.524 . S
C2901 C2898 1.403 . S
C2901 C2902 1.392 . S
C2901 C2905 1.495 . S
C2902 C2901 1.392 . S
C2902 C2903 1.385 . S
C2902 C2904 1.478 . S
C2903 H2897 0.930 . S
C2903 C2899 1.400 . S
C2903 C2902 1.385 . S
C2904 C2902 1.478 . S
C2904 C2906 1.381 . S
C2904 C2910 1.383 . S
C2905 C2901 1.495 . S
C2905 H2911 0.959 . S
C2905 H2912 0.961 . S
C2905 H2913 0.960 . S
C2906 C2904 1.381 . S
C2906 C2907 1.394 . S
C2906 H2914 0.930 . S
C2907 C2906 1.394 . S
C2907 C2908 1.383 . S
C2907 H2915 0.929 . S
C2908 C2907 1.383 . S
C2908 C2909 1.377 . S
C2909 H2893 0.930 . S
C2909 C2908 1.377 . S
C2909 C2910 1.379 . S
C2910 H2894 0.931 . S
C2910 C2904 1.383 . S
C2910 C2909 1.379 . S
H2911 C2905 0.959 . S
H2912 C2905 0.961 . S
H2913 C2905 0.960 . S
H2914 C2906 0.930 . S
H2915 C2907 0.929 . S
H2916 C2924 0.929 . S
H2917 C2926 0.930 . S
H2918 C2928 0.930 . S
H2919 C2931 0.929 . S
H2920 C2934 0.930 . S
H2921 C2936 0.960 . S
H2922 C2936 0.960 . S
H2923 C2936 0.960 . S
C2924 H2916 0.929 . S
C2924 C2925 1.377 . S
C2924 C2926 1.384 . S
C2925 C2924 1.377 . S
C2925 C2931 1.390 . S
C2926 H2917 0.930 . S
C2926 C2924 1.384 . S
C2926 C2927 1.372 . S
C2927 C2926 1.372 . S
C2927 C2928 1.400 . S
C2927 C2932 1.490 . S
C2928 H2918 0.930 . S
C2928 C2927 1.400 . S
C2928 C2931 1.386 . S
H2929 C2945 0.930 . S
H2930 C2946 0.931 . S
C2931 H2919 0.929 . S
C2931 C2925 1.390 . S
C2931 C2928 1.386 . S
C2932 C2927 1.490 . S
C2932 C2934 1.395 . S
C2932 C2935 1.403 . S
H2933 C2939 0.930 . S
C2934 H2920 0.930 . S
C2934 C2932 1.395 . S
C2934 C2937 1.403 . S
C2935 C2932 1.403 . S
C2935 C2936 1.524 . S
C2935 C2939 1.400 . S
C2936 H2921 0.960 . S
C2936 H2922 0.960 . S
C2936 H2923 0.960 . S
C2936 C2935 1.524 . S
C2937 C2934 1.403 . S
C2937 C2938 1.392 . S
C2937 C2941 1.495 . S
C2938 C2937 1.392 . S
C2938 C2939 1.385 . S
C2938 C2940 1.478 . S
C2939 H2933 0.930 . S
C2939 C2935 1.400 . S
C2939 C2938 1.385 . S
C2940 C2938 1.478 . S
C2940 C2942 1.381 . S
C2940 C2946 1.383 . S
C2941 C2937 1.495 . S
C2941 H2947 0.959 . S
C2941 H2948 0.961 . S
C2941 H2949 0.960 . S
C2942 C2940 1.381 . S
C2942 C2943 1.394 . S
C2942 H2950 0.930 . S
C2943 C2942 1.394 . S
C2943 C2944 1.383 . S
C2943 H2951 0.929 . S
C2944 C2943 1.383 . S
C2944 C2945 1.377 . S
C2945 H2929 0.930 . S
C2945 C2944 1.377 . S
C2945 C2946 1.379 . S
C2946 H2930 0.931 . S
C2946 C2940 1.383 . S
C2946 C2945 1.379 . S
H2947 C2941 0.959 . S
H2948 C2941 0.961 . S
H2949 C2941 0.960 . S
H2950 C2942 0.930 . S
H2951 C2943 0.929 . S
H2952 C2960 0.929 . S
H2953 C2962 0.930 . S
H2954 C2964 0.930 . S
H2955 C2967 0.929 . S
H2956 C2970 0.930 . S
H2957 C2972 0.960 . S
H2958 C2972 0.960 . S
H2959 C2972 0.960 . S
C2960 H2952 0.929 . S
C2960 C2961 1.377 . S
C2960 C2962 1.384 . S
C2961 C2960 1.377 . S
C2961 C2967 1.390 . S
C2962 H2953 0.930 . S
C2962 C2960 1.384 . S
C2962 C2963 1.372 . S
C2963 C2962 1.372 . S
C2963 C2964 1.400 . S
C2963 C2968 1.490 . S
C2964 H2954 0.930 . S
C2964 C2963 1.400 . S
C2964 C2967 1.386 . S
H2965 C2981 0.930 . S
H2966 C2982 0.931 . S
C2967 H2955 0.929 . S
C2967 C2961 1.390 . S
C2967 C2964 1.386 . S
C2968 C2963 1.490 . S
C2968 C2970 1.395 . S
C2968 C2971 1.403 . S
H2969 C2975 0.930 . S
C2970 H2956 0.930 . S
C2970 C2968 1.395 . S
C2970 C2973 1.403 . S
C2971 C2968 1.403 . S
C2971 C2972 1.524 . S
C2971 C2975 1.400 . S
C2972 H2957 0.960 . S
C2972 H2958 0.960 . S
C2972 H2959 0.960 . S
C2972 C2971 1.524 . S
C2973 C2970 1.403 . S
C2973 C2974 1.392 . S
C2973 C2977 1.495 . S
C2974 C2973 1.392 . S
C2974 C2975 1.385 . S
C2974 C2976 1.478 . S
C2975 H2969 0.930 . S
C2975 C2971 1.400 . S
C2975 C2974 1.385 . S
C2976 C2974 1.478 . S
C2976 C2978 1.381 . S
C2976 C2982 1.383 . S
C2977 C2973 1.495 . S
C2977 H2983 0.959 . S
C2977 H2984 0.961 . S
C2977 H2985 0.960 . S
C2978 C2976 1.381 . S
C2978 C2979 1.394 . S
C2978 H2986 0.930 . S
C2979 C2978 1.394 . S
C2979 C2980 1.383 . S
C2979 H2987 0.929 . S
C2980 C2979 1.383 . S
C2980 C2981 1.377 . S
C2981 H2965 0.930 . S
C2981 C2980 1.377 . S
C2981 C2982 1.379 . S
C2982 H2966 0.931 . S
C2982 C2976 1.383 . S
C2982 C2981 1.379 . S
H2983 C2977 0.959 . S
H2984 C2977 0.961 . S
H2985 C2977 0.960 . S
H2986 C2978 0.930 . S
H2987 C2979 0.929 . S
H2988 C2996 0.929 . S
H2989 C2998 0.930 . S
H2990 C3000 0.930 . S
H2991 C3003 0.929 . S
H2992 C3006 0.930 . S
H2993 C3008 0.960 . S
H2994 C3008 0.960 . S
H2995 C3008 0.960 . S
C2996 H2988 0.929 . S
C2996 C2997 1.377 . S
C2996 C2998 1.384 . S
C2997 C2996 1.377 . S
C2997 C3003 1.390 . S
C2998 H2989 0.930 . S
C2998 C2996 1.384 . S
C2998 C2999 1.372 . S
C2999 C2998 1.372 . S
C2999 C3000 1.400 . S
C2999 C3004 1.490 . S
C3000 H2990 0.930 . S
C3000 C2999 1.400 . S
C3000 C3003 1.386 . S
H3001 C3017 0.930 . S
H3002 C3018 0.931 . S
C3003 H2991 0.929 . S
C3003 C2997 1.390 . S
C3003 C3000 1.386 . S
C3004 C2999 1.490 . S
C3004 C3006 1.395 . S
C3004 C3007 1.403 . S
H3005 C3011 0.930 . S
C3006 H2992 0.930 . S
C3006 C3004 1.395 . S
C3006 C3009 1.403 . S
C3007 C3004 1.403 . S
C3007 C3008 1.524 . S
C3007 C3011 1.400 . S
C3008 H2993 0.960 . S
C3008 H2994 0.960 . S
C3008 H2995 0.960 . S
C3008 C3007 1.524 . S
C3009 C3006 1.403 . S
C3009 C3010 1.392 . S
C3009 C3013 1.495 . S
C3010 C3009 1.392 . S
C3010 C3011 1.385 . S
C3010 C3012 1.478 . S
C3011 H3005 0.930 . S
C3011 C3007 1.400 . S
C3011 C3010 1.385 . S
C3012 C3010 1.478 . S
C3012 C3014 1.381 . S
C3012 C3018 1.383 . S
C3013 C3009 1.495 . S
C3013 H3019 0.959 . S
C3013 H3020 0.961 . S
C3013 H3021 0.960 . S
C3014 C3012 1.381 . S
C3014 C3015 1.394 . S
C3014 H3022 0.930 . S
C3015 C3014 1.394 . S
C3015 C3016 1.383 . S
C3015 H3023 0.929 . S
C3016 C3015 1.383 . S
C3016 C3017 1.377 . S
C3017 H3001 0.930 . S
C3017 C3016 1.377 . S
C3017 C3018 1.379 . S
C3018 H3002 0.931 . S
C3018 C3012 1.383 . S
C3018 C3017 1.379 . S
H3019 C3013 0.959 . S
H3020 C3013 0.961 . S
H3021 C3013 0.960 . S
H3022 C3014 0.930 . S
H3023 C3015 0.929 . S
H3024 C3032 0.929 . S
H3025 C3034 0.930 . S
H3026 C3036 0.930 . S
H3027 C3039 0.929 . S
H3028 C3042 0.930 . S
H3029 C3044 0.960 . S
H3030 C3044 0.960 . S
H3031 C3044 0.960 . S
C3032 H3024 0.929 . S
C3032 C3033 1.377 . S
C3032 C3034 1.384 . S
C3033 C3032 1.377 . S
C3033 C3039 1.390 . S
C3034 H3025 0.930 . S
C3034 C3032 1.384 . S
C3034 C3035 1.372 . S
C3035 C3034 1.372 . S
C3035 C3036 1.400 . S
C3035 C3040 1.490 . S
C3036 H3026 0.930 . S
C3036 C3035 1.400 . S
C3036 C3039 1.386 . S
H3037 C3053 0.930 . S
H3038 C3054 0.931 . S
C3039 H3027 0.929 . S
C3039 C3033 1.390 . S
C3039 C3036 1.386 . S
C3040 C3035 1.490 . S
C3040 C3042 1.395 . S
C3040 C3043 1.403 . S
H3041 C3047 0.930 . S
C3042 H3028 0.930 . S
C3042 C3040 1.395 . S
C3042 C3045 1.403 . S
C3043 C3040 1.403 . S
C3043 C3044 1.524 . S
C3043 C3047 1.400 . S
C3044 H3029 0.960 . S
C3044 H3030 0.960 . S
C3044 H3031 0.960 . S
C3044 C3043 1.524 . S
C3045 C3042 1.403 . S
C3045 C3046 1.392 . S
C3045 C3049 1.495 . S
C3046 C3045 1.392 . S
C3046 C3047 1.385 . S
C3046 C3048 1.478 . S
C3047 H3041 0.930 . S
C3047 C3043 1.400 . S
C3047 C3046 1.385 . S
C3048 C3046 1.478 . S
C3048 C3050 1.381 . S
C3048 C3054 1.383 . S
C3049 C3045 1.495 . S
C3049 H3055 0.959 . S
C3049 H3056 0.961 . S
C3049 H3057 0.960 . S
C3050 C3048 1.381 . S
C3050 C3051 1.394 . S
C3050 H3058 0.930 . S
C3051 C3050 1.394 . S
C3051 C3052 1.383 . S
C3051 H3059 0.929 . S
C3052 C3051 1.383 . S
C3052 C3053 1.377 . S
C3053 H3037 0.930 . S
C3053 C3052 1.377 . S
C3053 C3054 1.379 . S
C3054 H3038 0.931 . S
C3054 C3048 1.383 . S
C3054 C3053 1.379 . S
H3055 C3049 0.959 . S
H3056 C3049 0.961 . S
H3057 C3049 0.960 . S
H3058 C3050 0.930 . S
H3059 C3051 0.929 . S
H3060 C3068 0.929 . S
H3061 C3070 0.930 . S
H3062 C3072 0.930 . S
H3063 C3075 0.929 . S
H3064 C3078 0.930 . S
H3065 C3080 0.960 . S
H3066 C3080 0.960 . S
H3067 C3080 0.960 . S
C3068 H3060 0.929 . S
C3068 C3069 1.377 . S
C3068 C3070 1.384 . S
C3069 C3068 1.377 . S
C3069 C3075 1.390 . S
C3070 H3061 0.930 . S
C3070 C3068 1.384 . S
C3070 C3071 1.372 . S
C3071 C3070 1.372 . S
C3071 C3072 1.400 . S
C3071 C3076 1.490 . S
C3072 H3062 0.930 . S
C3072 C3071 1.400 . S
C3072 C3075 1.386 . S
H3073 C3089 0.930 . S
H3074 C3090 0.931 . S
C3075 H3063 0.929 . S
C3075 C3069 1.390 . S
C3075 C3072 1.386 . S
C3076 C3071 1.490 . S
C3076 C3078 1.395 . S
C3076 C3079 1.403 . S
H3077 C3083 0.930 . S
C3078 H3064 0.930 . S
C3078 C3076 1.395 . S
C3078 C3081 1.403 . S
C3079 C3076 1.403 . S
C3079 C3080 1.524 . S
C3079 C3083 1.400 . S
C3080 H3065 0.960 . S
C3080 H3066 0.960 . S
C3080 H3067 0.960 . S
C3080 C3079 1.524 . S
C3081 C3078 1.403 . S
C3081 C3082 1.392 . S
C3081 C3085 1.495 . S
C3082 C3081 1.392 . S
C3082 C3083 1.385 . S
C3082 C3084 1.478 . S
C3083 H3077 0.930 . S
C3083 C3079 1.400 . S
C3083 C3082 1.385 . S
C3084 C3082 1.478 . S
C3084 C3086 1.381 . S
C3084 C3090 1.383 . S
C3085 C3081 1.495 . S
C3085 H3091 0.959 . S
C3085 H3092 0.961 . S
C3085 H3093 0.960 . S
C3086 C3084 1.381 . S
C3086 C3087 1.394 . S
C3086 H3094 0.930 . S
C3087 C3086 1.394 . S
C3087 C3088 1.383 . S
C3087 H3095 0.929 . S
C3088 C3087 1.383 . S
C3088 C3089 1.377 . S
C3089 H3073 0.930 . S
C3089 C3088 1.377 . S
C3089 C3090 1.379 . S
C3090 H3074 0.931 . S
C3090 C3084 1.383 . S
C3090 C3089 1.379 . S
H3091 C3085 0.959 . S
H3092 C3085 0.961 . S
H3093 C3085 0.960 . S
H3094 C3086 0.930 . S
H3095 C3087 0.929 . S
H3096 C3104 0.929 . S
H3097 C3106 0.930 . S
H3098 C3108 0.930 . S
H3099 C3111 0.929 . S
H3100 C3114 0.930 . S
H3101 C3116 0.960 . S
H3102 C3116 0.960 . S
H3103 C3116 0.960 . S
C3104 H3096 0.929 . S
C3104 C3105 1.377 . S
C3104 C3106 1.384 . S
C3105 C3104 1.377 . S
C3105 C3111 1.390 . S
C3106 H3097 0.930 . S
C3106 C3104 1.384 . S
C3106 C3107 1.372 . S
C3107 C3106 1.372 . S
C3107 C3108 1.400 . S
C3107 C3112 1.490 . S
C3108 H3098 0.930 . S
C3108 C3107 1.400 . S
C3108 C3111 1.386 . S
H3109 C3125 0.930 . S
H3110 C3126 0.931 . S
C3111 H3099 0.929 . S
C3111 C3105 1.390 . S
C3111 C3108 1.386 . S
C3112 C3107 1.490 . S
C3112 C3114 1.395 . S
C3112 C3115 1.403 . S
H3113 C3119 0.930 . S
C3114 H3100 0.930 . S
C3114 C3112 1.395 . S
C3114 C3117 1.403 . S
C3115 C3112 1.403 . S
C3115 C3116 1.524 . S
C3115 C3119 1.400 . S
C3116 H3101 0.960 . S
C3116 H3102 0.960 . S
C3116 H3103 0.960 . S
C3116 C3115 1.524 . S
C3117 C3114 1.403 . S
C3117 C3118 1.392 . S
C3117 C3121 1.495 . S
C3118 C3117 1.392 . S
C3118 C3119 1.385 . S
C3118 C3120 1.478 . S
C3119 H3113 0.930 . S
C3119 C3115 1.400 . S
C3119 C3118 1.385 . S
C3120 C3118 1.478 . S
C3120 C3122 1.381 . S
C3120 C3126 1.383 . S
C3121 C3117 1.495 . S
C3121 H3127 0.959 . S
C3121 H3128 0.961 . S
C3121 H3129 0.960 . S
C3122 C3120 1.381 . S
C3122 C3123 1.394 . S
C3122 H3130 0.930 . S
C3123 C3122 1.394 . S
C3123 C3124 1.383 . S
C3123 H3131 0.929 . S
C3124 C3123 1.383 . S
C3124 C3125 1.377 . S
C3125 H3109 0.930 . S
C3125 C3124 1.377 . S
C3125 C3126 1.379 . S
C3126 H3110 0.931 . S
C3126 C3120 1.383 . S
C3126 C3125 1.379 . S
H3127 C3121 0.959 . S
H3128 C3121 0.961 . S
H3129 C3121 0.960 . S
H3130 C3122 0.930 . S
H3131 C3123 0.929 . S
H3132 C3140 0.929 . S
H3133 C3142 0.930 . S
H3134 C3144 0.930 . S
H3135 C3147 0.929 . S
H3136 C3150 0.930 . S
H3137 C3152 0.960 . S
H3138 C3152 0.960 . S
H3139 C3152 0.960 . S
C3140 H3132 0.929 . S
C3140 C3141 1.377 . S
C3140 C3142 1.384 . S
C3141 C3140 1.377 . S
C3141 C3147 1.390 . S
C3142 H3133 0.930 . S
C3142 C3140 1.384 . S
C3142 C3143 1.372 . S
C3143 C3142 1.372 . S
C3143 C3144 1.400 . S
C3143 C3148 1.490 . S
C3144 H3134 0.930 . S
C3144 C3143 1.400 . S
C3144 C3147 1.386 . S
H3145 C3161 0.930 . S
H3146 C3162 0.931 . S
C3147 H3135 0.929 . S
C3147 C3141 1.390 . S
C3147 C3144 1.386 . S
C3148 C3143 1.490 . S
C3148 C3150 1.395 . S
C3148 C3151 1.403 . S
H3149 C3155 0.930 . S
C3150 H3136 0.930 . S
C3150 C3148 1.395 . S
C3150 C3153 1.403 . S
C3151 C3148 1.403 . S
C3151 C3152 1.524 . S
C3151 C3155 1.400 . S
C3152 H3137 0.960 . S
C3152 H3138 0.960 . S
C3152 H3139 0.960 . S
C3152 C3151 1.524 . S
C3153 C3150 1.403 . S
C3153 C3154 1.392 . S
C3153 C3157 1.495 . S
C3154 C3153 1.392 . S
C3154 C3155 1.385 . S
C3154 C3156 1.478 . S
C3155 H3149 0.930 . S
C3155 C3151 1.400 . S
C3155 C3154 1.385 . S
C3156 C3154 1.478 . S
C3156 C3158 1.381 1_554 S
C3156 C3162 1.383 . S
C3157 C3153 1.495 . S
C3157 H3163 0.959 . S
C3157 H3164 0.961 . S
C3157 H3165 0.960 . S
C3158 C3156 1.381 1_556 S
C3158 C3159 1.394 . S
C3158 H3166 0.930 . S
C3159 C3158 1.394 . S
C3159 C3160 1.383 . S
C3159 H3167 0.929 . S
C3160 C3159 1.383 . S
C3160 C3161 1.377 . S
C3161 H3145 0.930 . S
C3161 C3160 1.377 . S
C3161 C3162 1.379 1_556 S
C3162 H3146 0.931 . S
C3162 C3156 1.383 . S
C3162 C3161 1.379 1_554 S
H3163 C3157 0.959 . S
H3164 C3157 0.961 . S
H3165 C3157 0.960 . S
H3166 C3158 0.930 . S
H3167 C3159 0.929 . S
H3168 C3176 0.929 . S
H3169 C3178 0.930 . S
H3170 C3180 0.930 . S
H3171 C3183 0.929 . S
H3172 C3186 0.930 . S
H3173 C3188 0.960 . S
H3174 C3188 0.960 . S
H3175 C3188 0.960 . S
C3176 H3168 0.929 . S
C3176 C3177 1.377 . S
C3176 C3178 1.384 . S
C3177 C3176 1.377 . S
C3177 C3183 1.390 . S
C3178 H3169 0.930 . S
C3178 C3176 1.384 . S
C3178 C3179 1.372 . S
C3179 C3178 1.372 . S
C3179 C3180 1.400 . S
C3179 C3184 1.490 . S
C3180 H3170 0.930 . S
C3180 C3179 1.400 . S
C3180 C3183 1.386 . S
H3181 C3197 0.930 . S
H3182 C3198 0.931 . S
C3183 H3171 0.929 . S
C3183 C3177 1.390 . S
C3183 C3180 1.386 . S
C3184 C3179 1.490 . S
C3184 C3186 1.395 . S
C3184 C3187 1.403 . S
H3185 C3191 0.930 . S
C3186 H3172 0.930 . S
C3186 C3184 1.395 . S
C3186 C3189 1.403 . S
C3187 C3184 1.403 . S
C3187 C3188 1.524 . S
C3187 C3191 1.400 . S
C3188 H3173 0.960 . S
C3188 H3174 0.960 . S
C3188 H3175 0.960 . S
C3188 C3187 1.524 . S
C3189 C3186 1.403 . S
C3189 C3190 1.392 . S
C3189 C3193 1.495 . S
C3190 C3189 1.392 . S
C3190 C3191 1.385 . S
C3190 C3192 1.478 . S
C3191 H3185 0.930 . S
C3191 C3187 1.400 . S
C3191 C3190 1.385 . S
C3192 C3190 1.478 . S
C3192 C3194 1.381 . S
C3192 C3198 1.383 . S
C3193 C3189 1.495 . S
C3193 H3199 0.959 . S
C3193 H3200 0.961 . S
C3193 H3201 0.960 . S
C3194 C3192 1.381 . S
C3194 C3195 1.394 . S
C3194 H3202 0.930 . S
C3195 C3194 1.394 . S
C3195 C3196 1.383 1_554 S
C3195 H3203 0.929 1_554 S
C3196 C3195 1.383 1_556 S
C3196 C3197 1.377 1_556 S
C3197 H3181 0.930 . S
C3197 C3196 1.377 1_554 S
C3197 C3198 1.379 . S
C3198 H3182 0.931 . S
C3198 C3192 1.383 . S
C3198 C3197 1.379 . S
H3199 C3193 0.959 . S
H3200 C3193 0.961 . S
H3201 C3193 0.960 . S
H3202 C3194 0.930 . S
H3203 C3195 0.929 1_556 S
H3204 C3212 0.929 . S
H3205 C3214 0.930 . S
H3206 C3216 0.930 . S
H3207 C3219 0.929 . S
H3208 C3222 0.930 . S
H3209 C3224 0.960 . S
H3210 C3224 0.960 . S
H3211 C3224 0.960 . S
C3212 H3204 0.929 . S
C3212 C3213 1.377 . S
C3212 C3214 1.384 . S
C3213 C3212 1.377 . S
C3213 C3219 1.390 . S
C3214 H3205 0.930 . S
C3214 C3212 1.384 . S
C3214 C3215 1.372 . S
C3215 C3214 1.372 . S
C3215 C3216 1.400 . S
C3215 C3220 1.490 . S
C3216 H3206 0.930 . S
C3216 C3215 1.400 . S
C3216 C3219 1.386 . S
H3217 C3233 0.930 . S
H3218 C3234 0.931 . S
C3219 H3207 0.929 . S
C3219 C3213 1.390 . S
C3219 C3216 1.386 . S
C3220 C3215 1.490 . S
C3220 C3222 1.395 . S
C3220 C3223 1.403 . S
H3221 C3227 0.930 . S
C3222 H3208 0.930 . S
C3222 C3220 1.395 . S
C3222 C3225 1.403 . S
C3223 C3220 1.403 . S
C3223 C3224 1.524 . S
C3223 C3227 1.400 . S
C3224 H3209 0.960 . S
C3224 H3210 0.960 . S
C3224 H3211 0.960 . S
C3224 C3223 1.524 . S
C3225 C3222 1.403 . S
C3225 C3226 1.392 . S
C3225 C3229 1.495 . S
C3226 C3225 1.392 . S
C3226 C3227 1.385 . S
C3226 C3228 1.478 . S
C3227 H3221 0.930 . S
C3227 C3223 1.400 . S
C3227 C3226 1.385 . S
C3228 C3226 1.478 . S
C3228 C3230 1.378 1_554 S
C3228 C3234 1.383 . S
C3229 C3225 1.495 . S
C3229 H3235 0.959 . S
C3229 H3236 0.961 . S
C3229 H3237 0.960 . S
C3230 C3228 1.378 1_556 S
C3230 C3231 1.397 . S
C3230 H3238 0.930 1_556 S
C3231 C3230 1.397 . S
C3231 C3232 1.383 . S
C3231 H3239 0.929 . S
C3232 C3231 1.383 . S
C3232 C3233 1.377 . S
C3233 H3217 0.930 . S
C3233 C3232 1.377 . S
C3233 C3234 1.379 1_556 S
C3234 H3218 0.931 . S
C3234 C3228 1.383 . S
C3234 C3233 1.379 1_554 S
H3235 C3229 0.959 . S
H3236 C3229 0.961 . S
H3237 C3229 0.960 . S
H3238 C3230 0.930 1_554 S
H3239 C3231 0.929 . S
C657 C7 1.558 . S
C676 C560 1.559 . S
C712 C534 1.855 . S
C693 C39 1.853 . S
C748 C547 1.675 . S
C729 C62 1.679 . S
C765 C76 1.866 . S
C784 C614 1.867 . S
C801 C108 1.498 . S
C820 C627 1.491 . S
C837 N117 1.369 . S
C856 C640 1.383 . S
C892 C600 1.401 . S
C873 C16 1.403 . S
C909 C30 1.747 1_556 S
C928 C574 1.743 . S
C964 C588 1.449 . S
C945 C53 1.451 1_556 S
C981 C85 1.723 . S
C1000 C497 1.715 . S
C1036 C509 1.559 . S
C1017 C99 1.555 . S
C1053 N127 1.227 . S
C1072 C523 1.254 . S
C1089 N150 1.208 . S
C1108 C638 1.237 . S
C1144 C612 1.643 . S
C1125 N173 1.604 . S
C1180 C625 1.475 . S
C1161 C200 1.476 . S
C1197 C214 1.676 . S
C1216 C458 1.680 . S
C1233 N232 1.535 . S
C1252 C471 1.557 . S
C1269 C260 1.544 . S
C1288 C484 1.551 . S
C1324 C444 1.262 . S
C1305 N140 1.248 . S
C1341 N163 1.345 . S
C1360 C424 1.340 . S
C1396 C430 1.502 . S
C1377 C191 1.505 . S
C1432 C573 1.769 . S
C1413 C223 1.772 . S
C1468 C593 1.380 . S
C1449 N242 1.355 . S
C1504 C599 1.419 . S
C1485 C269 1.432 . S
C1521 N288 1.327 . S
C1540 C482 1.351 . S
C1557 C315 1.586 . S
C1576 C456 1.585 . S
C1593 C338 1.758 . S
C1612 C469 1.758 . S
C1629 C352 1.919 . S
C1648 C536 1.919 . S
C1684 C549 1.579 . S
C1665 N370 1.568 . S
C1720 C562 1.591 . S
C1701 C398 1.590 . S
C1756 C528 1.187 . S
C1737 N278 1.177 . S
C1773 C306 1.641 . S
C1792 C502 1.634 . S
C1809 C329 1.556 . S
C1828 C508 1.555 . S
C1864 C419 1.478 1_655 S
C1845 C361 1.480 . S
C1881 N380 1.406 . S
C1900 C431 1.432 . S
C1936 C443 1.359 . S
C1917 C407 1.370 . S
C1972 C463 1.438 . S
C1953 N12 1.434 . S
C1989 N25 1.523 . S
C2008 C476 1.559 . S
C2044 C489 1.324 . S
C2025 N48 1.297 . S
C2080 C483 1.412 . S
C2061 N81 1.394 . S
C2116 C457 1.623 . S
C2097 N94 1.579 . S
C2152 C470 1.665 . S
C2133 C131 1.647 . S
C2188 C417 1.366 . S
C2169 N2 1.319 . S
C2205 N35 1.434 . S
C2224 C437 1.461 . S
C2241 N58 1.206 . S
C2260 C445 1.229 . S
C2296 C450 1.359 . S
C2277 N71 1.315 . S
C2332 C418 1.448 . S
C2313 N104 1.414 . S
C2368 C432 1.637 . S
C2349 C122 1.634 . S
C2385 C145 1.985 . S
C2404 C541 1.976 . S
C2421 C168 1.685 . S
C2440 C554 1.683 . S
C2457 N186 1.471 . S
C2476 C567 1.512 . S
C2512 C561 1.486 . S
C2493 N219 1.469 . S
C2548 C535 1.863 . S
C2529 C246 1.848 . S
C2584 C548 1.558 . S
C2565 N265 1.543 . S
C2620 C495 1.800 . S
C2601 C154 1.790 . S
C2637 C177 1.704 . S
C2656 C515 1.714 . S
C2673 N196 1.309 . S
C2692 C521 1.340 . S
C2709 N209 1.254 . S
C2728 C522 1.308 . S
C2745 C237 1.835 . S
C2764 C496 1.832 . S
C2800 C510 1.469 . S
C2781 N255 1.416 . S
C2817 C283 1.848 . S
C2836 C619 1.849 . S
C2853 N301 1.479 . S
C2872 C632 1.518 . S
C2889 N324 1.260 . S
C2908 C645 1.285 . S
C2944 C639 1.244 . S
C2925 N357 1.240 . S
C2980 C613 1.818 . S
C2961 C384 1.812 . S
C2997 N403 1.413 . S
C3016 C626 1.433 . S
C3033 C292 1.830 . S
C3052 C575 1.851 . S
C3088 C587 1.404 . S
C3069 N311 1.369 . S
C3105 N334 1.308 . S
C3124 C601 1.336 . S
C3141 N347 1.338 . S
C3160 C606 1.378 . S
C3196 C580 1.876 . S
C3177 C375 1.883 . S
C3213 N393 1.382 . S
C3232 C586 1.435 . S
