# Generated by pormake.
# Topology pyr, (3,6)-cn, num edge types: 1
# Building blocks:
#     Node 0, Type 0, BuildingBlock: OLANEW_clean_sbu_2, # of connection points: 3
#     Node 1, Type 0, BuildingBlock: OLANEW_clean_sbu_2, # of connection points: 3
#     Node 2, Type 0, BuildingBlock: OLANEW_clean_sbu_2, # of connection points: 3
#     Node 3, Type 0, BuildingBlock: OLANEW_clean_sbu_2, # of connection points: 3
#     Node 4, Type 0, BuildingBlock: OLANEW_clean_sbu_2, # of connection points: 3
#     Node 5, Type 0, BuildingBlock: OLANEW_clean_sbu_2, # of connection points: 3
#     Node 6, Type 0, BuildingBlock: OLANEW_clean_sbu_2, # of connection points: 3
#     Node 7, Type 0, BuildingBlock: OLANEW_clean_sbu_2, # of connection points: 3
#     Node 8, Type 1, BuildingBlock: BETDEL_clean_sbu_0, # of connection points: 6
#     Node 9, Type 1, BuildingBlock: BETDEL_clean_sbu_0, # of connection points: 6
#     Node 10, Type 1, BuildingBlock: BETDEL_clean_sbu_0, # of connection points: 6
#     Node 11, Type 1, BuildingBlock: BETDEL_clean_sbu_0, # of connection points: 6
#     Edge 12, Type (0, 1), BuildingBlock: ZUJKAS_clean_linker_0, # of connection points: 2
#     Edge 13, Type (0, 1), BuildingBlock: ZUJKAS_clean_linker_0, # of connection points: 2
#     Edge 14, Type (0, 1), BuildingBlock: ZUJKAS_clean_linker_0, # of connection points: 2
#     Edge 15, Type (0, 1), BuildingBlock: ZUJKAS_clean_linker_0, # of connection points: 2
#     Edge 16, Type (0, 1), BuildingBlock: ZUJKAS_clean_linker_0, # of connection points: 2
#     Edge 17, Type (0, 1), BuildingBlock: ZUJKAS_clean_linker_0, # of connection points: 2
#     Edge 18, Type (0, 1), BuildingBlock: ZUJKAS_clean_linker_0, # of connection points: 2
#     Edge 19, Type (0, 1), BuildingBlock: ZUJKAS_clean_linker_0, # of connection points: 2
#     Edge 20, Type (0, 1), BuildingBlock: ZUJKAS_clean_linker_0, # of connection points: 2
#     Edge 21, Type (0, 1), BuildingBlock: ZUJKAS_clean_linker_0, # of connection points: 2
#     Edge 22, Type (0, 1), BuildingBlock: ZUJKAS_clean_linker_0, # of connection points: 2
#     Edge 23, Type (0, 1), BuildingBlock: ZUJKAS_clean_linker_0, # of connection points: 2
#     Edge 24, Type (0, 1), BuildingBlock: ZUJKAS_clean_linker_0, # of connection points: 2
#     Edge 25, Type (0, 1), BuildingBlock: ZUJKAS_clean_linker_0, # of connection points: 2
#     Edge 26, Type (0, 1), BuildingBlock: ZUJKAS_clean_linker_0, # of connection points: 2
#     Edge 27, Type (0, 1), BuildingBlock: ZUJKAS_clean_linker_0, # of connection points: 2
#     Edge 28, Type (0, 1), BuildingBlock: ZUJKAS_clean_linker_0, # of connection points: 2
#     Edge 29, Type (0, 1), BuildingBlock: ZUJKAS_clean_linker_0, # of connection points: 2
#     Edge 30, Type (0, 1), BuildingBlock: ZUJKAS_clean_linker_0, # of connection points: 2
#     Edge 31, Type (0, 1), BuildingBlock: ZUJKAS_clean_linker_0, # of connection points: 2
#     Edge 32, Type (0, 1), BuildingBlock: ZUJKAS_clean_linker_0, # of connection points: 2
#     Edge 33, Type (0, 1), BuildingBlock: ZUJKAS_clean_linker_0, # of connection points: 2
#     Edge 34, Type (0, 1), BuildingBlock: ZUJKAS_clean_linker_0, # of connection points: 2
#     Edge 35, Type (0, 1), BuildingBlock: ZUJKAS_clean_linker_0, # of connection points: 2
# Relax obj value: 0.050
# Max RMSD: 0.148
# Mean RMSD: 0.112
data_MOF--net-pyr--node1-OLANEW_clean_sbu_2--node2-BETDEL_clean_sbu_0--edge1-ZUJKAS_clean_linker_0
_symmetry_space_group_name_H-M    P1
_symmetry_Int_Tables_number       1
_symmetry_cell_setting            triclinic
loop_
_symmetry_equiv_pos_as_xyz
'x, y, z'
_cell_length_a     50.154026
_cell_length_b     52.599378
_cell_length_c     47.084149
_cell_angle_alpha  96.301428
_cell_angle_beta   88.131477
_cell_angle_gamma 99.153168
loop_
_atom_site_label
_atom_site_type_symbol
_atom_site_fract_x
_atom_site_fract_y
_atom_site_fract_z
_atom_type_partial_charge
O0 O 0.2881 0.26659 0.16517 0.0
Cd1 Cd 0.26743 0.30447 0.18263 0.0
O2 O 0.26117 0.2442 0.19394 0.0
Cd3 Cd 0.24367 0.21257 0.21874 0.0
O4 O 0.22001 0.18703 0.24708 0.0
C5 C 0.21582 0.19612 0.27268 0.0
O6 O 0.2263 0.22017 0.28114 0.0
C7 C 0.28039 0.24528 0.17556 0.0
C8 C 0.22846 0.31581 0.14715 0.0
O9 O 0.25351 0.32486 0.14381 0.0
O10 O 0.22192 0.30093 0.16691 0.0
O11 O 0.33595 0.85843 0.74731 0.0
Cd12 Cd 0.32144 0.84492 0.69826 0.0
O13 O 0.30297 0.83267 0.76643 0.0
Cd14 Cd 0.28128 0.82499 0.72632 0.0
O15 O 0.25352 0.83775 0.69824 0.0
C16 C 0.23815 0.85252 0.71097 0.0
O17 O 0.23983 0.85781 0.73885 0.0
C18 C 0.32474 0.84878 0.76915 0.0
C19 C 0.35062 0.80636 0.6757 0.0
O20 O 0.35917 0.83024 0.67277 0.0
O21 O 0.32793 0.80072 0.68867 0.0
O22 O 0.69339 0.38439 0.86761 0.0
Cd23 Cd 0.64765 0.36596 0.85195 0.0
O24 O 0.70225 0.34916 0.88441 0.0
Cd25 Cd 0.66248 0.32533 0.87997 0.0
O26 O 0.63511 0.29245 0.89453 0.0
C27 C 0.62934 0.29318 0.92109 0.0
O28 O 0.63861 0.3141 0.93795 0.0
C29 C 0.70971 0.37239 0.87891 0.0
C30 C 0.63158 0.39247 0.80859 0.0
O31 O 0.62665 0.39938 0.83495 0.0
O32 O 0.64396 0.37297 0.80273 0.0
O33 O 0.8909 0.70714 0.38172 0.0
Cd34 Cd 0.8629 0.66505 0.3693 0.0
O35 O 0.92621 0.69232 0.39628 0.0
Cd36 Cd 0.90234 0.654 0.3969 0.0
O37 O 0.86606 0.63104 0.41296 0.0
C38 C 0.85312 0.64389 0.43152 0.0
O39 O 0.8629 0.66831 0.43911 0.0
C40 C 0.91505 0.71123 0.39066 0.0
C41 C 0.88008 0.64014 0.31815 0.0
O42 O 0.86345 0.65629 0.31817 0.0
O43 O 0.88844 0.63571 0.34227 0.0
O44 O 0.85536 0.8442 0.868 0.0
Cd45 Cd 0.8258 0.82759 0.90631 0.0
O46 O 0.83596 0.87876 0.86675 0.0
Cd47 Cd 0.80617 0.87147 0.90092 0.0
O48 O 0.77371 0.88261 0.92933 0.0
C49 C 0.74942 0.87744 0.92095 0.0
O50 O 0.74423 0.86393 0.89604 0.0
C51 C 0.85372 0.86506 0.85734 0.0
C52 C 0.848 0.7897 0.93044 0.0
O53 O 0.83256 0.78382 0.90877 0.0
O54 O 0.85267 0.81349 0.94095 0.0
O55 O 0.70689 0.13741 0.40041 0.0
Cd56 Cd 0.72595 0.14712 0.44803 0.0
O57 O 0.7091 0.17931 0.40118 0.0
Cd58 Cd 0.69952 0.2148 0.38674 0.0
O59 O 0.68562 0.25131 0.3824 0.0
C60 C 0.66059 0.25237 0.38595 0.0
O61 O 0.64407 0.23123 0.39089 0.0
C62 C 0.7028 0.15675 0.38818 0.0
C63 C 0.77386 0.12758 0.45212 0.0
O64 O 0.7511 0.11447 0.45856 0.0
O65 O 0.7739 0.1499 0.44357 0.0
O66 O 0.40206 0.73484 0.19948 0.0
Cd67 Cd 0.38247 0.69151 0.21146 0.0
O68 O 0.36535 0.75117 0.21307 0.0
Cd69 Cd 0.34096 0.71395 0.2192 0.0
O70 O 0.30653 0.68438 0.20673 0.0
C71 C 0.30756 0.67136 0.18244 0.0
O72 O 0.32991 0.67491 0.16704 0.0
C73 C 0.38953 0.75419 0.20352 0.0
C74 C 0.40909 0.67453 0.2554 0.0
O75 O 0.41589 0.66943 0.22916 0.0
O76 O 0.38992 0.6879 0.26086 0.0
O77 O 0.1544 0.4449 0.6875 0.0
Cd78 Cd 0.17201 0.42743 0.64185 0.0
O79 O 0.15307 0.40507 0.69694 0.0
Cd80 Cd 0.14362 0.36986 0.71837 0.0
O81 O 0.13599 0.32783 0.71781 0.0
C82 C 0.11277 0.31575 0.72354 0.0
O83 O 0.09331 0.32904 0.73185 0.0
C84 C 0.14904 0.42804 0.70507 0.0
C85 C 0.22507 0.44935 0.63123 0.0
O86 O 0.2055 0.45622 0.61866 0.0
O87 O 0.2196 0.4323 0.64887 0.0
Dy88 Dy 0.05188 0.02159 0.52837 0.0
C89 C 0.00166 0.97427 0.62548 0.0
C90 C 0.07373 0.04887 0.48489 0.0
Dy91 Dy 0.02164 0.00075 0.58069 0.0
O92 O 0.08715 0.04285 0.50561 0.0
O93 O 0.0482 0.04001 0.48786 0.0
O94 O 0.0798 0.99242 0.52902 0.0
O95 O 0.06376 0.0082 0.56767 0.0
C96 C 0.07762 0.99163 0.55648 0.0
C97 C 0.99526 0.03027 0.55241 0.0
O98 O 0.04623 0.03634 0.60184 0.0
O99 O 0.05357 0.05683 0.56052 0.0
O100 O 0.99116 0.99249 0.61572 0.0
O101 O 0.02328 0.97038 0.61076 0.0
O102 O 0.99293 0.02909 0.57978 0.0
O103 O 0.00956 0.01404 0.5413 0.0
O104 O 0.03053 0.98452 0.5065 0.0
O105 O 0.01424 0.96616 0.54777 0.0
C106 C 0.05346 0.05748 0.58879 0.0
C107 C 0.01838 0.96469 0.51967 0.0
Dy108 Dy 0.5181 0.04958 0.09971 0.0
C109 C 0.44231 0.97786 0.0259 0.0
C110 C 0.54799 0.08422 0.13797 0.0
Dy111 Dy 0.47732 0.01643 0.05421 0.0
O112 O 0.52491 0.07046 0.14348 0.0
O113 O 0.55473 0.07935 0.11121 0.0
O114 O 0.52223 0.01311 0.11848 0.0
O115 O 0.48584 0.01599 0.09931 0.0
C116 C 0.49876 0.00093 0.11026 0.0
C117 C 0.50249 0.06022 0.03377 0.0
O118 O 0.44945 0.03715 0.08279 0.0
O119 O 0.4818 0.06983 0.10417 0.0
O120 O 0.43795 0.00152 0.03241 0.0
O121 O 0.46571 0.97516 0.03524 0.0
O122 O 0.48489 0.04341 0.0192 0.0
O123 O 0.50504 0.05201 0.05735 0.0
O124 O 0.54686 0.03283 0.06859 0.0
O125 O 0.51562 0.9996 0.04618 0.0
C126 C 0.45633 0.05981 0.09819 0.0
C127 C 0.54084 0.01091 0.05157 0.0
Dy128 Dy 0.54664 0.52399 0.51179 0.0
C129 C 0.512 0.6101 0.58301 0.0
C130 C 0.56913 0.49026 0.47403 0.0
Dy131 Dy 0.534 0.571 0.55306 0.0
O132 O 0.5438 0.49309 0.47455 0.0
O133 O 0.58214 0.50611 0.49388 0.0
O134 O 0.51348 0.49748 0.53176 0.0
O135 O 0.51022 0.53665 0.53121 0.0
C136 C 0.49969 0.5158 0.54062 0.0
C137 C 0.58609 0.57121 0.5381 0.0
O138 O 0.53926 0.54267 0.58379 0.0
O139 O 0.56479 0.51819 0.55308 0.0
O140 O 0.53096 0.61314 0.56365 0.0
O141 O 0.50539 0.58569 0.5864 0.0
O142 O 0.57843 0.58152 0.56275 0.0
O143 O 0.56595 0.56356 0.5225 0.0
O144 O 0.53409 0.54811 0.47976 0.0
O145 O 0.51825 0.57973 0.51166 0.0
C146 C 0.5555 0.52502 0.57904 0.0
C147 C 0.52199 0.56886 0.48528 0.0
Dy148 Dy 0.02046 0.49376 0.02392 0.0
C149 C 0.98687 0.59067 0.00769 0.0
C150 C 0.04456 0.45116 0.02723 0.0
Dy151 Dy 0.00898 0.547 0.01167 0.0
O152 O 0.02214 0.45535 0.04011 0.0
O153 O 0.05352 0.47002 0.0121 0.0
O154 O 0.98844 0.49192 0.05843 0.0
O155 O 0.01018 0.52781 0.04998 0.0
C156 C 0.99061 0.5169 0.0639 0.0
C157 C 0.0396 0.52389 0.97244 0.0
O158 O 0.04479 0.56043 0.03944 0.0
O159 O 0.05879 0.52025 0.03786 0.0
O160 O 0.00474 0.58221 0.99012 0.0
O161 O 0.98121 0.5754 0.02767 0.0
O162 O 0.04236 0.54883 0.97874 0.0
O163 O 0.01945 0.51296 0.98558 0.0
O164 O 0.98501 0.48072 0.99551 0.0
O165 O 0.97027 0.52066 0.99906 0.0
C166 C 0.06302 0.54578 0.04432 0.0
C167 C 0.96634 0.49524 0.99173 0.0
H168 H 0.18797 0.14702 0.26113 0.0
H169 H 0.15997 0.12095 0.29422 0.0
H170 H 0.17827 0.18258 0.36233 0.0
H171 H 0.2058 0.20893 0.32938 0.0
H172 H 0.17447 0.10338 0.34259 0.0
H173 H 0.09668 0.16644 0.36864 0.0
H174 H 0.12012 0.17053 0.33897 0.0
H175 H 0.13029 0.18346 0.37465 0.0
C176 C 0.18592 0.15508 0.28312 0.0
C177 C 0.19903 0.18011 0.29259 0.0
C178 C 0.16989 0.14016 0.30198 0.0
C179 C 0.16661 0.15001 0.3306 0.0
C180 C 0.17992 0.17485 0.34017 0.0
H181 H 0.12652 0.06901 0.47819 0.0
H182 H 0.14746 0.09243 0.43909 0.0
C183 C 0.19585 0.18982 0.32133 0.0
C184 C 0.15035 0.13389 0.35085 0.0
H185 H 0.09882 0.13392 0.40009 0.0
C186 C 0.15774 0.10993 0.35495 0.0
C187 C 0.12822 0.14223 0.3666 0.0
C188 C 0.11816 0.16695 0.3618 0.0
C189 C 0.14433 0.09459 0.37521 0.0
C190 C 0.12333 0.10371 0.39222 0.0
C191 C 0.11517 0.12713 0.38729 0.0
C192 C 0.11035 0.0897 0.41595 0.0
C193 C 0.15281 0.06875 0.3782 0.0
C194 C 0.08236 0.08113 0.4164 0.0
C195 C 0.07028 0.06792 0.43892 0.0
C196 C 0.08603 0.06323 0.46133 0.0
C197 C 0.11393 0.0722 0.46106 0.0
C198 C 0.12595 0.08542 0.43864 0.0
H199 H 0.16286 0.0612 0.35837 0.0
H200 H 0.16745 0.07107 0.39582 0.0
H201 H 0.13522 0.05419 0.38329 0.0
H202 H 0.06993 0.08444 0.39919 0.0
H203 H 0.0487 0.06126 0.43871 0.0
H204 H 0.30145 0.83949 0.82116 0.0
H205 H 0.31869 0.85749 0.86838 0.0
H206 H 0.39124 0.89492 0.82922 0.0
H207 H 0.37396 0.87758 0.78195 0.0
H208 H 0.36473 0.85433 0.89785 0.0
H209 H 0.36228 0.95509 0.87502 0.0
H210 H 0.34643 0.92733 0.85228 0.0
H211 H 0.38223 0.93808 0.84948 0.0
C212 C 0.32117 0.85141 0.8226 0.0
C213 C 0.33619 0.8574 0.79779 0.0
C214 C 0.33098 0.86164 0.8496 0.0
C215 C 0.35596 0.87796 0.85222 0.0
C216 C 0.3716 0.88288 0.82759 0.0
H217 H 0.45582 0.93346 0.99802 0.0
H218 H 0.43173 0.9065 0.95836 0.0
C219 C 0.36174 0.87286 0.80061 0.0
C220 C 0.36528 0.89067 0.88055 0.0
H221 H 0.38528 0.94999 0.91688 0.0
C222 C 0.36906 0.87525 0.90216 0.0
C223 C 0.37032 0.91795 0.88628 0.0
C224 C 0.36485 0.93559 0.86465 0.0
C225 C 0.37862 0.88645 0.92913 0.0
C226 C 0.38504 0.91372 0.9343 0.0
C227 C 0.3805 0.92907 0.9129 0.0
C228 C 0.39741 0.92705 0.9612 0.0
C229 C 0.38152 0.86897 0.95181 0.0
C230 C 0.38611 0.94747 0.97615 0.0
C231 C 0.4001 0.96319 0.99842 0.0
C232 C 0.42554 0.95862 0.00623 0.0
C233 C 0.43612 0.93724 0.99251 0.0
C234 C 0.42228 0.92172 0.96996 0.0
H235 H 0.36768 0.85025 0.94806 0.0
H236 H 0.40249 0.86464 0.95116 0.0
H237 H 0.37734 0.87825 0.97348 0.0
H238 H 0.36697 0.95195 0.96976 0.0
H239 H 0.39152 0.97956 0.00872 0.0
H240 H 0.64102 0.38362 0.75107 0.0
H241 H 0.62784 0.40729 0.71325 0.0
H242 H 0.58992 0.45659 0.77601 0.0
H243 H 0.6034 0.43332 0.81404 0.0
H244 H 0.57684 0.41352 0.69783 0.0
H245 H 0.63802 0.50897 0.73169 0.0
H246 H 0.64324 0.47956 0.74565 0.0
H247 H 0.61584 0.49596 0.75905 0.0
C248 C 0.62996 0.39956 0.75687 0.0
C249 C 0.62338 0.40665 0.78561 0.0
C250 C 0.62243 0.41306 0.73521 0.0
C251 C 0.60827 0.43398 0.74183 0.0
C252 C 0.60137 0.44091 0.77045 0.0
H253 H 0.54233 0.53445 0.63587 0.0
H254 H 0.55451 0.51232 0.67557 0.0
C255 C 0.60895 0.42746 0.79216 0.0
C256 C 0.60018 0.44805 0.71864 0.0
H257 H 0.60735 0.50758 0.69404 0.0
C258 C 0.58357 0.43406 0.69696 0.0
C259 C 0.60892 0.47489 0.71757 0.0
C260 C 0.62769 0.49073 0.73957 0.0
C261 C 0.5753 0.44621 0.67439 0.0
C262 C 0.58417 0.47299 0.67324 0.0
C263 C 0.60056 0.48705 0.69503 0.0
C264 C 0.5771 0.48661 0.64924 0.0
C265 C 0.55682 0.43036 0.65215 0.0
C266 C 0.58615 0.47977 0.62136 0.0
C267 C 0.57931 0.49238 0.59865 0.0
C268 C 0.5633 0.51218 0.60336 0.0
C269 C 0.5546 0.51925 0.63143 0.0
C270 C 0.56155 0.50665 0.65417 0.0
H271 H 0.54653 0.41201 0.65982 0.0
H272 H 0.54124 0.44148 0.64599 0.0
H273 H 0.56887 0.42537 0.63274 0.0
H274 H 0.59858 0.46467 0.61718 0.0
H275 H 0.58648 0.48647 0.57738 0.0
H276 H 0.87053 0.64916 0.26351 0.0
H277 H 0.88754 0.62844 0.219 0.0
H278 H 0.92781 0.58089 0.26708 0.0
H279 H 0.91143 0.6019 0.31165 0.0
H280 H 0.96056 0.60258 0.22648 0.0
H281 H 0.86238 0.55659 0.17929 0.0
H282 H 0.86484 0.5909 0.18861 0.0
H283 H 0.86551 0.56995 0.21622 0.0
C284 C 0.88287 0.63418 0.2646 0.0
C285 C 0.88959 0.62713 0.29111 0.0
C286 C 0.89243 0.62224 0.23913 0.0
C287 C 0.90859 0.60283 0.23971 0.0
C288 C 0.91528 0.59575 0.26614 0.0
H289 H 0.95275 0.49502 0.10044 0.0
H290 H 0.93248 0.51661 0.14258 0.0
C291 C 0.90588 0.60777 0.2916 0.0
C292 C 0.91948 0.59056 0.21289 0.0
H293 H 0.90127 0.55541 0.14922 0.0
C294 C 0.9476 0.59223 0.2096 0.0
C295 C 0.90251 0.57682 0.19104 0.0
C296 C 0.87213 0.57319 0.194 0.0
C297 C 0.95925 0.58065 0.18501 0.0
C298 C 0.94233 0.56757 0.1628 0.0
C299 C 0.91419 0.56572 0.16615 0.0
C300 C 0.95346 0.55491 0.13636 0.0
C301 C 0.98955 0.582 0.18341 0.0
C302 C 0.97147 0.56938 0.11854 0.0
C303 C 0.98323 0.55706 0.09465 0.0
C304 C 0.97688 0.53012 0.08798 0.0
C305 C 0.95807 0.5158 0.10518 0.0
C306 C 0.94646 0.52811 0.1292 0.0
H307 H 0.99875 0.58654 0.20489 0.0
H308 H 0.99523 0.56345 0.17343 0.0
H309 H 0.99834 0.59755 0.17017 0.0
H310 H 0.97669 0.59016 0.12333 0.0
H311 H 0.99762 0.56857 0.0817 0.0
H312 H 0.33131 0.24715 0.15367 0.0
H313 H 0.35624 0.21126 0.14048 0.0
H314 H 0.28776 0.15728 0.16521 0.0
H315 H 0.26223 0.19307 0.17756 0.0
H316 H 0.3415 0.15268 0.18811 0.0
H317 H 0.34056 0.15436 0.07041 0.0
H318 H 0.35023 0.1854 0.09049 0.0
H319 H 0.31652 0.16834 0.09425 0.0
C320 C 0.32142 0.22765 0.15618 0.0
C321 C 0.29491 0.22308 0.16728 0.0
C322 C 0.33572 0.20717 0.14861 0.0
C323 C 0.3238 0.18168 0.15184 0.0
C324 C 0.29732 0.1769 0.16275 0.0
H325 H 0.4029 0.05046 0.08364 0.0
H326 H 0.36822 0.07738 0.0981 0.0
C327 C 0.28288 0.19743 0.17017 0.0
C328 C 0.33943 0.16024 0.14428 0.0
H329 H 0.37167 0.13039 0.08832 0.0
C330 C 0.34784 0.14753 0.16627 0.0
C331 C 0.34742 0.15347 0.11575 0.0
C332 C 0.33807 0.16591 0.09127 0.0
C333 C 0.36509 0.12894 0.16057 0.0
C334 C 0.3742 0.12314 0.13221 0.0
C335 C 0.36479 0.13502 0.11008 0.0
C336 C 0.3946 0.10584 0.12517 0.0
C337 C 0.37369 0.11587 0.18493 0.0
C338 C 0.42091 0.11298 0.1356 0.0
C339 C 0.44082 0.09775 0.12729 0.0
C340 C 0.43479 0.07506 0.10835 0.0
C341 C 0.40824 0.06774 0.09834 0.0
C342 C 0.38838 0.0831 0.10654 0.0
H343 H 0.35967 0.11721 0.2036 0.0
H344 H 0.37473 0.09514 0.17818 0.0
H345 H 0.3941 0.12549 0.19187 0.0
H346 H 0.42623 0.1307 0.14962 0.0
H347 H 0.46102 0.104 0.13542 0.0
H348 H 0.23156 0.84826 0.65292 0.0
H349 H 0.20256 0.8706 0.62662 0.0
H350 H 0.17389 0.90633 0.70617 0.0
H351 H 0.20287 0.8844 0.73258 0.0
H352 H 0.14534 0.86974 0.63039 0.0
H353 H 0.20239 0.96795 0.66071 0.0
H354 H 0.21588 0.93875 0.66483 0.0
H355 H 0.19167 0.9498 0.69033 0.0
C356 C 0.21903 0.86081 0.66481 0.0
C357 C 0.21968 0.86471 0.69483 0.0
C358 C 0.20248 0.87353 0.64976 0.0
C359 C 0.18646 0.89041 0.66448 0.0
C360 C 0.18651 0.89376 0.69442 0.0
H361 H 0.07987 0.99192 0.61434 0.0
H362 H 0.10478 0.96579 0.64073 0.0
C363 C 0.20301 0.8811 0.70946 0.0
C364 C 0.16982 0.90474 0.6486 0.0
H365 H 0.16106 0.96575 0.63691 0.0
C366 C 0.1488 0.89072 0.63168 0.0
C367 C 0.17443 0.9321 0.65042 0.0
C368 C 0.19745 0.94809 0.66734 0.0
C369 C 0.1319 0.90342 0.61687 0.0
C370 C 0.13649 0.93078 0.61877 0.0
C371 C 0.15753 0.94477 0.63567 0.0
C372 C 0.12016 0.94536 0.60284 0.0
C373 C 0.10898 0.88751 0.59977 0.0
C374 C 0.12067 0.94254 0.57287 0.0
C375 C 0.1065 0.95739 0.55781 0.0
C376 C 0.09171 0.9754 0.57251 0.0
C377 C 0.09104 0.97809 0.60252 0.0
C378 C 0.10526 0.96323 0.61758 0.0
H379 H 0.10395 0.86764 0.60636 0.0
H380 H 0.0906 0.8969 0.60211 0.0
H381 H 0.11495 0.88582 0.57682 0.0
H382 H 0.13248 0.92922 0.56112 0.0
H383 H 0.10738 0.95499 0.53467 0.0
H384 H 0.73034 0.42396 0.87926 0.0
H385 H 0.77509 0.44572 0.89516 0.0
H386 H 0.79588 0.37252 0.91235 0.0
H387 H 0.75138 0.35061 0.8966 0.0
H388 H 0.79623 0.44362 0.95174 0.0
H389 H 0.86081 0.40577 0.86406 0.0
H390 H 0.82508 0.4057 0.8601 0.0
H391 H 0.8365 0.38181 0.87919 0.0
C392 C 0.74454 0.41245 0.88612 0.0
C393 C 0.73726 0.38555 0.88669 0.0
C394 C 0.77006 0.42492 0.89522 0.0
C395 C 0.78882 0.41065 0.90462 0.0
C396 C 0.78181 0.38379 0.90475 0.0
H397 H 0.94783 0.44349 0.97867 0.0
H398 H 0.90462 0.42362 0.95732 0.0
C399 C 0.75629 0.37135 0.89589 0.0
C400 C 0.81514 0.42394 0.916 0.0
H401 H 0.88326 0.42815 0.90527 0.0
C402 C 0.81529 0.44047 0.94149 0.0
C403 C 0.83987 0.41951 0.90266 0.0
C404 C 0.84072 0.4024 0.87486 0.0
C405 C 0.83961 0.45225 0.95445 0.0
C406 C 0.86442 0.44787 0.9411 0.0
C407 C 0.86423 0.43147 0.91545 0.0
C408 C 0.89077 0.46001 0.95354 0.0
C409 C 0.83847 0.46859 0.98276 0.0
C410 C 0.89749 0.48704 0.95805 0.0
C411 C 0.92203 0.49845 0.97042 0.0
C412 C 0.94054 0.48303 0.97819 0.0
C413 C 0.93403 0.45594 0.97301 0.0
C414 C 0.90936 0.44454 0.96078 0.0
H415 H 0.81859 0.46414 0.99375 0.0
H416 H 0.85454 0.46563 0.99716 0.0
H417 H 0.84152 0.48934 0.97908 0.0
H418 H 0.88374 0.49936 0.95196 0.0
H419 H 0.92649 0.51938 0.9738 0.0
H420 H 0.82672 0.59397 0.42093 0.0
H421 H 0.78182 0.57614 0.43876 0.0
H422 H 0.7754 0.64978 0.48638 0.0
H423 H 0.82001 0.66774 0.46889 0.0
H424 H 0.7609 0.57681 0.5008 0.0
H425 H 0.70881 0.63052 0.42995 0.0
H426 H 0.74284 0.62399 0.42293 0.0
H427 H 0.73653 0.64932 0.44989 0.0
C428 C 0.81581 0.6063 0.43535 0.0
C429 C 0.82684 0.63233 0.44333 0.0
C430 C 0.79025 0.59607 0.44554 0.0
C431 C 0.77535 0.61177 0.46364 0.0
C432 C 0.78659 0.63748 0.47223 0.0
H433 H 0.63191 0.58957 0.56831 0.0
H434 H 0.67846 0.59569 0.5497 0.0
C435 C 0.81209 0.64767 0.4622 0.0
C436 C 0.74758 0.60184 0.47283 0.0
H437 H 0.6822 0.61041 0.46622 0.0
C438 C 0.7436 0.5839 0.49311 0.0
C439 C 0.72516 0.611 0.46246 0.0
C440 C 0.72837 0.62962 0.43993 0.0
C441 C 0.71767 0.57553 0.50406 0.0
C442 C 0.69539 0.58559 0.49458 0.0
C443 C 0.69935 0.60284 0.47356 0.0
C444 C 0.6678 0.57922 0.50662 0.0
C445 C 0.71432 0.55606 0.52566 0.0
C446 C 0.64643 0.56806 0.48855 0.0
C447 C 0.6199 0.56478 0.49906 0.0
C448 C 0.61429 0.57272 0.5278 0.0
C449 C 0.63573 0.58325 0.54608 0.0
C450 C 0.66231 0.58656 0.53554 0.0
H451 H 0.73162 0.54516 0.52485 0.0
H452 H 0.71324 0.56637 0.54743 0.0
H453 H 0.69537 0.54207 0.52208 0.0
H454 H 0.65024 0.56245 0.46613 0.0
H455 H 0.60372 0.55672 0.48446 0.0
H456 H 0.17358 0.30345 0.15242 0.0
H457 H 0.13922 0.31975 0.12685 0.0
H458 H 0.20158 0.3622 0.07759 0.0
H459 H 0.23608 0.34594 0.1029 0.0
H460 H 0.13679 0.37305 0.12801 0.0
H461 H 0.146 0.32761 0.01679 0.0
H462 H 0.15881 0.31525 0.04708 0.0
H463 H 0.17743 0.34306 0.03249 0.0
C464 C 0.17999 0.31591 0.13582 0.0
C465 C 0.20758 0.32347 0.12975 0.0
C466 C 0.16032 0.32518 0.12123 0.0
C467 C 0.16785 0.34193 0.10012 0.0
C468 C 0.19532 0.34889 0.09341 0.0
H469 H 0.09576 0.44579 0.0095 0.0
H470 H 0.12381 0.4163 0.02579 0.0
C471 C 0.21502 0.33971 0.10805 0.0
C472 C 0.14726 0.35421 0.08721 0.0
H473 H 0.12081 0.36275 0.02364 0.0
C474 C 0.133 0.37054 0.10524 0.0
C475 C 0.14261 0.35105 0.05749 0.0
C476 C 0.15683 0.33312 0.03731 0.0
C477 C 0.11483 0.38453 0.09427 0.0
C478 C 0.11028 0.38156 0.06448 0.0
C479 C 0.12424 0.36489 0.04646 0.0
C480 C 0.0922 0.39676 0.05166 0.0
C481 C 0.10159 0.40321 0.11459 0.0
C482 C 0.06485 0.39483 0.05989 0.0
C483 C 0.04888 0.41179 0.05081 0.0
C484 C 0.05993 0.43068 0.03304 0.0
C485 C 0.08677 0.43142 0.02325 0.0
C486 C 0.1028 0.4146 0.03253 0.0
H487 H 0.11219 0.40783 0.13531 0.0
H488 H 0.10113 0.42158 0.10516 0.0
H489 H 0.08047 0.39439 0.11901 0.0
H490 H 0.05612 0.3808 0.07414 0.0
H491 H 0.02817 0.4107 0.05849 0.0
H492 H 0.61423 0.24444 0.89395 0.0
H493 H 0.59227 0.20584 0.91522 0.0
H494 H 0.58915 0.25098 0.99706 0.0
H495 H 0.61112 0.28967 0.97608 0.0
H496 H 0.61295 0.18502 0.96457 0.0
H497 H 0.51018 0.21164 0.98238 0.0
H498 H 0.53409 0.22623 0.95704 0.0
H499 H 0.53815 0.23581 0.9946 0.0
C500 C 0.60865 0.24623 0.91641 0.0
C501 C 0.6144 0.27015 0.93331 0.0
C502 C 0.5962 0.22415 0.92853 0.0
C503 C 0.58901 0.22564 0.95764 0.0
C504 C 0.59434 0.24951 0.97448 0.0
H505 H 0.54183 0.096 0.06082 0.0
H506 H 0.56388 0.13691 0.04381 0.0
C507 C 0.60693 0.27157 0.96245 0.0
C508 C 0.57662 0.20205 0.97054 0.0
H509 H 0.5179 0.17302 0.99972 0.0
C510 C 0.59221 0.18238 0.97236 0.0
C511 C 0.54955 0.19875 0.98057 0.0
C512 C 0.53184 0.21909 0.97846 0.0
C513 C 0.58137 0.15939 0.98396 0.0
C514 C 0.55431 0.1561 0.99399 0.0
C515 C 0.53873 0.17578 0.99221 0.0
C516 C 0.54126 0.13164 0.00467 0.0
C517 C 0.59863 0.13848 0.98478 0.0
C518 C 0.52119 0.11538 0.9884 0.0
C519 C 0.50878 0.09212 0.99796 0.0
C520 C 0.51603 0.08482 0.0241 0.0
C521 C 0.53597 0.10119 0.04057 0.0
C522 C 0.54856 0.12446 0.03087 0.0
H523 H 0.61789 0.14256 0.97258 0.0
H524 H 0.60347 0.13692 0.00729 0.0
H525 H 0.58749 0.11946 0.97591 0.0
H526 H 0.51528 0.12062 0.96816 0.0
H527 H 0.49341 0.07988 0.98488 0.0
H528 H 0.96879 0.7277 0.4013 0.0
H529 H 0.99049 0.77181 0.41716 0.0
H530 H 0.91446 0.79931 0.41149 0.0
H531 H 0.89294 0.75564 0.39456 0.0
H532 H 0.95514 0.83363 0.39421 0.0
H533 H 0.98044 0.80275 0.49782 0.0
H534 H 0.99537 0.78643 0.46737 0.0
H535 H 0.95922 0.78166 0.47207 0.0
C536 C 0.95679 0.74322 0.40309 0.0
C537 C 0.92908 0.73812 0.39701 0.0
C538 C 0.96918 0.76838 0.41233 0.0
C539 C 0.95393 0.78873 0.41625 0.0
C540 C 0.9266 0.78389 0.40878 0.0
H541 H 0.9807 0.92512 0.53504 0.0
H542 H 0.96605 0.88338 0.50773 0.0
C543 C 0.91431 0.75887 0.39914 0.0
C544 C 0.9658 0.81477 0.4296 0.0
H545 H 0.99484 0.84645 0.49079 0.0
C546 C 0.96393 0.83647 0.41528 0.0
C547 C 0.97689 0.81844 0.4573 0.0
C548 C 0.9779 0.79614 0.47469 0.0
C549 C 0.97243 0.86176 0.42807 0.0
C550 C 0.98385 0.86536 0.4556 0.0
C551 C 0.9862 0.84364 0.46963 0.0
C552 C 0.99208 0.8914 0.47113 0.0
C553 C 0.96807 0.88429 0.41246 0.0
C554 C 0.01152 0.90991 0.45961 0.0
C555 C 0.01967 0.93404 0.47507 0.0
C556 C 0.0089 0.93982 0.50254 0.0
C557 C 0.98948 0.92124 0.51399 0.0
C558 C 0.98108 0.89734 0.4984 0.0
H559 H 0.95274 0.87835 0.39551 0.0
H560 H 0.96145 0.9 0.42742 0.0
H561 H 0.98733 0.89221 0.40209 0.0
H562 H 0.02079 0.90555 0.43893 0.0
H563 H 0.03489 0.94787 0.46581 0.0
H564 H 0.399 0.81208 0.6467 0.0
H565 H 0.42678 0.77861 0.63154 0.0
H566 H 0.36749 0.72151 0.66707 0.0
H567 H 0.33939 0.75469 0.68186 0.0
H568 H 0.4491 0.74786 0.66556 0.0
H569 H 0.37949 0.68739 0.58676 0.0
H570 H 0.37522 0.71992 0.60054 0.0
H571 H 0.36434 0.69339 0.62141 0.0
C572 C 0.39174 0.79235 0.65104 0.0
C573 C 0.36691 0.78601 0.66536 0.0
C574 C 0.40767 0.77328 0.64243 0.0
C575 C 0.39903 0.74754 0.64786 0.0
C576 C 0.37427 0.74115 0.66213 0.0
H577 H 0.46752 0.60529 0.61795 0.0
H578 H 0.4411 0.6393 0.63582 0.0
C579 C 0.35829 0.76018 0.67068 0.0
C580 C 0.41632 0.72752 0.63946 0.0
H581 H 0.4175 0.66951 0.59946 0.0
C582 C 0.44227 0.73078 0.651 0.0
C583 C 0.40732 0.70527 0.62048 0.0
C584 C 0.38018 0.70133 0.60635 0.0
C585 C 0.4593 0.71214 0.64442 0.0
C586 C 0.4502 0.68984 0.62561 0.0
C587 C 0.42429 0.68658 0.61405 0.0
C588 C 0.46745 0.66988 0.61696 0.0
C589 C 0.4867 0.7162 0.65798 0.0
C590 C 0.49106 0.67592 0.60064 0.0
C591 C 0.50612 0.65657 0.59041 0.0
C592 C 0.49775 0.63089 0.59632 0.0
C593 C 0.47448 0.62498 0.61325 0.0
C594 C 0.45936 0.64433 0.62337 0.0
H595 H 0.48806 0.7309 0.67693 0.0
H596 H 0.49136 0.69778 0.6646 0.0
H597 H 0.50235 0.72308 0.64218 0.0
H598 H 0.49737 0.69544 0.59507 0.0
H599 H 0.5239 0.66158 0.57726 0.0
H600 H 0.89455 0.84121 0.83154 0.0
H601 H 0.92573 0.8565 0.79357 0.0
H602 H 0.88617 0.9234 0.79246 0.0
H603 H 0.85526 0.90857 0.83033 0.0
H604 H 0.91382 0.86736 0.73812 0.0
H605 H 0.96601 0.95486 0.80162 0.0
H606 H 0.9457 0.92862 0.81787 0.0
H607 H 0.92994 0.95273 0.8034 0.0
C608 C 0.89256 0.85922 0.82327 0.0
C609 C 0.87251 0.87376 0.83414 0.0
C610 C 0.91038 0.8679 0.80159 0.0
C611 C 0.90856 0.89131 0.79063 0.0
C612 C 0.88832 0.90558 0.8011 0.0
H613 H 0.95844 0.98357 0.65862 0.0
H614 H 0.93923 0.96095 0.69898 0.0
C615 C 0.87055 0.89697 0.82267 0.0
C616 C 0.9272 0.90081 0.76771 0.0
H617 H 0.9698 0.95441 0.75049 0.0
C618 C 0.92652 0.88614 0.7409 0.0
C619 C 0.94388 0.92524 0.77152 0.0
C620 C 0.94668 0.94116 0.80025 0.0
C621 C 0.94075 0.89608 0.71729 0.0
C622 C 0.95608 0.92116 0.72079 0.0
C623 C 0.95787 0.93523 0.74792 0.0
C624 C 0.9681 0.93427 0.69614 0.0
C625 C 0.93815 0.88041 0.68843 0.0
C626 C 0.9908 0.92676 0.68132 0.0
C627 C 0.00194 0.93977 0.65823 0.0
C628 C 0.9904 0.96035 0.64975 0.0
C629 C 0.96771 0.96775 0.66469 0.0
C630 C 0.95673 0.95489 0.68774 0.0
H631 H 0.92356 0.86219 0.68883 0.0
H632 H 0.93153 0.89201 0.67241 0.0
H633 H 0.95815 0.87539 0.6813 0.0
H634 H -4e-05 0.91101 0.68772 0.0
H635 H 0.01948 0.93376 0.64705 0.0
H636 H 0.71047 0.1883 0.34507 0.0
H637 H 0.6873 0.18197 0.29926 0.0
H638 H 0.64371 0.10912 0.32127 0.0
H639 H 0.66643 0.11556 0.36732 0.0
H640 H 0.66732 0.1075 0.2656 0.0
H641 H 0.60685 0.18773 0.28779 0.0
H642 H 0.64268 0.19602 0.29297 0.0
H643 H 0.62276 0.1749 0.31575 0.0
C644 C 0.69545 0.17127 0.34046 0.0
C645 C 0.68962 0.1528 0.36012 0.0
C646 C 0.68242 0.16758 0.31419 0.0
C647 C 0.66347 0.14532 0.30716 0.0
C648 C 0.65816 0.12652 0.32643 0.0
H649 H 0.53475 0.0962 0.19349 0.0
H650 H 0.56532 0.11518 0.23219 0.0
C651 C 0.67116 0.13021 0.35267 0.0
C652 C 0.64923 0.14125 0.27963 0.0
H653 H 0.60121 0.16294 0.24298 0.0
C654 C 0.65309 0.11975 0.26043 0.0
C655 C 0.63062 0.15728 0.27317 0.0
C656 C 0.62522 0.1802 0.29352 0.0
C657 C 0.63824 0.11339 0.23523 0.0
C658 C 0.61933 0.1292 0.22893 0.0
C659 C 0.61598 0.15109 0.24777 0.0
C660 C 0.60066 0.12146 0.20473 0.0
C661 C 0.64193 0.08909 0.21625 0.0
C662 C 0.61027 0.11961 0.17634 0.0
C663 C 0.59278 0.10875 0.15412 0.0
C664 C 0.56554 0.09963 0.16011 0.0
C665 C 0.5557 0.10297 0.18831 0.0
C666 C 0.57311 0.11384 0.21043 0.0
H667 H 0.65402 0.07683 0.22662 0.0
H668 H 0.62205 0.07742 0.21041 0.0
H669 H 0.65258 0.09447 0.19623 0.0
H670 H 0.63143 0.12573 0.17153 0.0
H671 H 0.60081 0.10643 0.13252 0.0
H672 H 0.40145 0.68475 0.31306 0.0
H673 H 0.42264 0.66762 0.35136 0.0
H674 H 0.46752 0.62451 0.28884 0.0
H675 H 0.44688 0.64199 0.25042 0.0
H676 H 0.41962 0.6173 0.36165 0.0
H677 H 0.52653 0.65953 0.34308 0.0
H678 H 0.4988 0.67027 0.32678 0.0
H679 H 0.51074 0.64102 0.3121 0.0
C680 C 0.41602 0.67181 0.30744 0.0
C681 C 0.42255 0.66482 0.27867 0.0
C682 C 0.42809 0.66201 0.32937 0.0
C683 C 0.44697 0.64507 0.32301 0.0
C684 C 0.45351 0.63803 0.29431 0.0
H685 H 0.52877 0.55542 0.42777 0.0
H686 H 0.51065 0.57369 0.38821 0.0
C687 C 0.44155 0.64792 0.27235 0.0
C688 C 0.45881 0.63389 0.3464 0.0
H689 H 0.51847 0.62805 0.37626 0.0
C690 C 0.44123 0.61977 0.36491 0.0
C691 C 0.48702 0.63705 0.3506 0.0
C692 C 0.50688 0.65299 0.33227 0.0
C693 C 0.45108 0.60851 0.3873 0.0
C694 C 0.47925 0.61167 0.39147 0.0
C695 C 0.49688 0.62562 0.37291 0.0
C696 C 0.4907 0.60102 0.41539 0.0
C697 C 0.43131 0.59301 0.40612 0.0
C698 C 0.4858 0.61064 0.44372 0.0
C699 C 0.49616 0.60034 0.46636 0.0
C700 C 0.51165 0.58017 0.46112 0.0
C701 C 0.51683 0.57083 0.43263 0.0
C702 C 0.50655 0.58127 0.40997 0.0
H703 H 0.41109 0.58754 0.39629 0.0
H704 H 0.43883 0.57512 0.41058 0.0
H705 H 0.42895 0.60478 0.42683 0.0
H706 H 0.47392 0.62614 0.44832 0.0
H707 H 0.4918 0.6081 0.48798 0.0
H708 H 0.1209 0.46751 0.72107 0.0
H709 H 0.10351 0.48038 0.76874 0.0
H710 H 0.13468 0.41779 0.80164 0.0
H711 H 0.15294 0.40535 0.75424 0.0
H712 H 0.06639 0.45097 0.80338 0.0
H713 H 0.16606 0.48216 0.85516 0.0
H714 H 0.16244 0.47696 0.81684 0.0
H715 H 0.1607 0.44982 0.83725 0.0
C716 C 0.12406 0.45648 0.73846 0.0
C717 C 0.13791 0.43514 0.73378 0.0
C718 C 0.11405 0.46381 0.76563 0.0
C719 C 0.11795 0.45012 0.7887 0.0
C720 C 0.13165 0.42873 0.78413 0.0
H721 H 0.03131 0.47267 0.9521 0.0
H722 H 0.05127 0.45242 0.90883 0.0
C723 C 0.14167 0.42136 0.75691 0.0
C724 C 0.10756 0.45838 0.81746 0.0
H725 H 0.12729 0.484 0.8847 0.0
C726 C 0.07965 0.45805 0.82124 0.0
C727 C 0.125 0.4678 0.84057 0.0
C728 C 0.15525 0.46946 0.83735 0.0
C729 C 0.06869 0.46716 0.84747 0.0
C730 C 0.08611 0.47648 0.87063 0.0
C731 C 0.114 0.47659 0.86694 0.0
C732 C 0.07589 0.48788 0.89821 0.0
C733 C 0.03867 0.4676 0.84988 0.0
C734 C 0.08396 0.51425 0.90711 0.0
C735 C 0.07274 0.52578 0.93182 0.0
C736 C 0.05331 0.51111 0.94804 0.0
C737 C 0.0461 0.48446 0.93981 0.0
C738 C 0.05737 0.47291 0.91508 0.0
H739 H 0.02905 0.46488 0.82861 0.0
H740 H 0.02906 0.4517 0.86224 0.0
H741 H 0.03447 0.48619 0.86134 0.0
H742 H 0.09833 0.52608 0.89443 0.0
H743 H 0.07877 0.54633 0.93779 0.0
H744 H 0.75457 0.91189 0.96919 0.0
H745 H 0.71936 0.93362 0.99384 0.0
H746 H 0.66036 0.89103 0.93471 0.0
H747 H 0.69536 0.86916 0.9099 0.0
H748 H 0.6869 0.96433 0.96635 0.0
H749 H 0.62492 0.88248 0.01496 0.0
H750 H 0.65948 0.88184 0.00317 0.0
H751 H 0.63284 0.87625 0.97758 0.0
C752 C 0.73404 0.90686 0.96164 0.0
C753 C 0.72778 0.88879 0.93755 0.0
C754 C 0.71399 0.91935 0.97572 0.0
C755 C 0.68728 0.91377 0.9662 0.0
C756 C 0.68081 0.89533 0.94261 0.0
H757 H 0.53724 0.96988 0.01015 0.0
H758 H 0.57357 0.94743 0.98982 0.0
C759 C 0.70087 0.88293 0.92841 0.0
C760 C 0.6665 0.92837 0.97982 0.0
H761 H 0.60645 0.92143 0.01654 0.0
C762 C 0.66939 0.95505 0.97753 0.0
C763 C 0.64367 0.91611 0.9942 0.0
C764 C 0.64002 0.88763 0.9979 0.0
C765 C 0.64964 0.96973 0.98862 0.0
C766 C 0.62673 0.95746 0.00299 0.0
C767 C 0.62402 0.9308 0.00551 0.0
C768 C 0.60501 0.97176 0.01504 0.0
C769 C 0.65308 0.99801 0.984 0.0
C770 C 0.6106 0.99289 0.03607 0.0
C771 C 0.58987 0.00596 0.04761 0.0
C772 C 0.5631 0.99789 0.03861 0.0
C773 C 0.5576 0.97664 0.01762 0.0
C774 C 0.57834 0.96373 0.00598 0.0
H775 H 0.66753 0.0026 0.9662 0.0
H776 H 0.63347 0.00377 0.97924 0.0
H777 H 0.66113 0.0099 0.0037 0.0
H778 H 0.63093 0.99906 0.04387 0.0
H779 H 0.59478 0.02208 0.06394 0.0
H780 H 0.8245 0.14775 0.43427 0.0
H781 H 0.86696 0.13224 0.44171 0.0
H782 H 0.82349 0.07013 0.48559 0.0
H783 H 0.78101 0.085 0.47749 0.0
H784 H 0.89 0.1297 0.49061 0.0
H785 H 0.8716 0.03118 0.43392 0.0
H786 H 0.85038 0.05508 0.42938 0.0
H787 H 0.84483 0.03591 0.45912 0.0
C788 C 0.82397 0.13057 0.44516 0.0
C789 C 0.7994 0.11756 0.45525 0.0
C790 C 0.84824 0.12173 0.44936 0.0
C791 C 0.84838 0.09974 0.46373 0.0
C792 C 0.82384 0.08666 0.47368 0.0
H793 H 0.96014 0.06154 0.57457 0.0
H794 H 0.92816 0.08058 0.54896 0.0
C795 C 0.79956 0.09533 0.46925 0.0
C796 C 0.87425 0.09167 0.47055 0.0
H797 H 0.9052 0.03847 0.47108 0.0
C798 C 0.89356 0.10985 0.48585 0.0
C799 C 0.87927 0.06595 0.4638 0.0
C800 C 0.86052 0.04602 0.44536 0.0
C801 C 0.91683 0.10261 0.49622 0.0
C802 C 0.92051 0.07635 0.49182 0.0
C803 C 0.90218 0.05854 0.47485 0.0
C804 C 0.94163 0.06647 0.50683 0.0
C805 C 0.93698 0.12312 0.51221 0.0
C806 C 0.95957 0.05174 0.49171 0.0
C807 C 0.97769 0.04047 0.50642 0.0
C808 C 0.97798 0.04369 0.53643 0.0
C809 C 0.96042 0.05884 0.55143 0.0
C810 C 0.94229 0.06994 0.53679 0.0
H811 H 0.9368 0.14239 0.5047 0.0
H812 H 0.93144 0.12462 0.53528 0.0
H813 H 0.9578 0.11841 0.50971 0.0
H814 H 0.95922 0.04863 0.46859 0.0
H815 H 0.99096 0.02875 0.49437 0.0
H816 H 0.30293 0.64143 0.13105 0.0
H817 H 0.26154 0.6182 0.10856 0.0
H818 H 0.21521 0.64137 0.18298 0.0
H819 H 0.25655 0.66436 0.20587 0.0
H820 H 0.19933 0.58978 0.16078 0.0
H821 H 0.20608 0.65643 0.07627 0.0
H822 H 0.2355 0.64133 0.07867 0.0
H823 H 0.22646 0.66348 0.10789 0.0
C824 C 0.28399 0.6414 0.14278 0.0
C825 C 0.28301 0.65498 0.17015 0.0
C826 C 0.26034 0.62824 0.12981 0.0
C827 C 0.23528 0.62856 0.14387 0.0
C828 C 0.23436 0.64107 0.1717 0.0
H829 H 0.0775 0.59652 0.06579 0.0
H830 H 0.11897 0.61613 0.09074 0.0
C831 C 0.25801 0.65419 0.18473 0.0
C832 C 0.20994 0.61653 0.12926 0.0
H833 H 0.17176 0.61972 0.07141 0.0
C834 C 0.19325 0.5963 0.14125 0.0
C835 C 0.20188 0.62541 0.10406 0.0
C836 C 0.21825 0.64801 0.09106 0.0
C837 C 0.16888 0.58441 0.12843 0.0
C838 C 0.16127 0.59275 0.10272 0.0
C839 C 0.17777 0.61322 0.09098 0.0
C840 C 0.13612 0.58067 0.08776 0.0
C841 C 0.15126 0.56338 0.14281 0.0
C842 C 0.13221 0.55433 0.07743 0.0
C843 C 0.10852 0.54303 0.06322 0.0
C844 C 0.08836 0.55794 0.05884 0.0
C845 C 0.09256 0.58445 0.06881 0.0
C846 C 0.11624 0.5957 0.0831 0.0
H847 H 0.15623 0.56412 0.16575 0.0
H848 H 0.12955 0.56494 0.14119 0.0
H849 H 0.1545 0.54421 0.13214 0.0
H850 H 0.14757 0.54251 0.0802 0.0
H851 H 0.10608 0.52261 0.05565 0.0
H852 H 0.26652 0.46175 0.66856 0.0
H853 H 0.31368 0.47877 0.65795 0.0
H854 H 0.29446 0.47561 0.56873 0.0
H855 H 0.24702 0.46077 0.57985 0.0
H856 H 0.34947 0.4593 0.63041 0.0
H857 H 0.3381 0.54415 0.57585 0.0
H858 H 0.31012 0.52658 0.59411 0.0
H859 H 0.31855 0.51608 0.55755 0.0
C860 C 0.27241 0.46519 0.6468 0.0
C861 C 0.25325 0.46025 0.62504 0.0
C862 C 0.29934 0.47485 0.64071 0.0
C863 C 0.30773 0.47908 0.61258 0.0
C864 C 0.2885 0.47364 0.59077 0.0
H865 H 0.46862 0.46957 0.54751 0.0
H866 H 0.4227 0.46209 0.56689 0.0
C867 C 0.2614 0.46488 0.59705 0.0
C868 C 0.33679 0.48737 0.60574 0.0
H869 H 0.37933 0.52632 0.565 0.0
C870 C 0.356 0.47432 0.61651 0.0
C871 C 0.34569 0.50741 0.58822 0.0
C872 C 0.327 0.52452 0.57862 0.0
C873 C 0.38353 0.48002 0.60944 0.0
C874 C 0.39198 0.49818 0.5896 0.0
C875 C 0.37295 0.51197 0.57973 0.0
C876 C 0.42016 0.50274 0.57819 0.0
C877 C 0.40313 0.46672 0.62381 0.0
C878 C 0.43373 0.52809 0.57656 0.0
C879 C 0.45953 0.53236 0.56418 0.0
C880 C 0.4726 0.51141 0.55398 0.0
C881 C 0.45919 0.48609 0.55572 0.0
C882 C 0.43303 0.48181 0.56716 0.0
H883 H 0.39564 0.46221 0.64544 0.0
H884 H 0.40515 0.44807 0.61106 0.0
H885 H 0.42337 0.47881 0.62596 0.0
H886 H 0.42425 0.54463 0.58458 0.0
H887 H 0.46913 0.55203 0.5624 0.0
H888 H 0.84692 0.73914 0.90902 0.0
H889 H 0.86969 0.70681 0.92752 0.0
H890 H 0.90019 0.76249 0.99767 0.0
H891 H 0.87801 0.7952 0.97887 0.0
H892 H 0.93926 0.73781 0.97313 0.0
H893 H 0.85011 0.66552 0.99448 0.0
H894 H 0.85117 0.67343 0.95833 0.0
H895 H 0.84725 0.69798 0.9873 0.0
C896 C 0.85826 0.74446 0.92853 0.0
C897 C 0.86061 0.76973 0.94251 0.0
C898 C 0.87111 0.72588 0.93921 0.0
C899 C 0.88624 0.73207 0.96428 0.0
C900 C 0.88848 0.75724 0.97838 0.0
H901 H 0.94948 0.61079 0.04307 0.0
H902 H 0.92596 0.64697 0.03561 0.0
C903 C 0.87578 0.7759 0.96762 0.0
C904 C 0.90098 0.71271 0.9748 0.0
H905 H 0.89304 0.65065 0.99236 0.0
C906 C 0.92911 0.71886 0.97766 0.0
C907 C 0.8877 0.68813 0.98119 0.0
C908 C 0.85736 0.68096 0.98047 0.0
C909 C 0.94445 0.70076 0.98564 0.0
C910 C 0.93136 0.67563 0.99022 0.0
C911 C 0.90311 0.66982 0.9885 0.0
C912 C 0.94664 0.65475 0.99566 0.0
C913 C 0.97451 0.70878 0.9891 0.0
C914 C 0.96597 0.64708 0.97566 0.0
C915 C 0.97949 0.62662 0.97998 0.0
C916 C 0.97367 0.61322 0.00419 0.0
C917 C 0.95439 0.62089 0.02427 0.0
C918 C 0.94094 0.64148 0.02001 0.0
H919 H 0.97987 0.7301 0.99405 0.0
H920 H 0.98221 0.69922 0.00634 0.0
H921 H 0.98496 0.70314 0.96879 0.0
H922 H 0.9702 0.65657 0.95637 0.0
H923 H 0.9941 0.62094 0.96405 0.0
H924 H 0.43833 0.76681 0.17639 0.0
H925 H 0.45734 0.80865 0.16002 0.0
H926 H 0.38818 0.84119 0.19511 0.0
H927 H 0.36908 0.79964 0.21167 0.0
H928 H 0.43198 0.83675 0.12185 0.0
H929 H 0.45404 0.89259 0.22789 0.0
H930 H 0.44834 0.85762 0.22292 0.0
H931 H 0.42029 0.87513 0.22404 0.0
C932 C 0.4273 0.78293 0.18092 0.0
C933 C 0.40221 0.77987 0.19543 0.0
C934 C 0.43814 0.80677 0.17143 0.0
C935 C 0.42423 0.828 0.17653 0.0
C936 C 0.39938 0.82511 0.19128 0.0
H937 H 0.44855 0.97329 0.09829 0.0
H938 H 0.42999 0.93038 0.11272 0.0
C939 C 0.38848 0.80131 0.20068 0.0
C940 C 0.43531 0.85303 0.16582 0.0
H941 H 0.4587 0.91645 0.18769 0.0
C942 C 0.4379 0.85419 0.13619 0.0
C943 C 0.44308 0.87566 0.18465 0.0
C944 C 0.44155 0.87529 0.21666 0.0
C945 C 0.44784 0.87755 0.12486 0.0
C946 C 0.45519 0.90024 0.1437 0.0
C947 C 0.45282 0.89901 0.17332 0.0
C948 C 0.4665 0.92534 0.13329 0.0
C949 C 0.45087 0.87774 0.0929 0.0
C950 C 0.49307 0.9366 0.14009 0.0
C951 C 0.50362 0.96093 0.13193 0.0
C952 C 0.48771 0.97456 0.11702 0.0
C953 C 0.46121 0.96314 0.10976 0.0
C954 C 0.45066 0.93866 0.11788 0.0
H955 H 0.44915 0.85786 0.08166 0.0
H956 H 0.43479 0.88732 0.08501 0.0
H957 H 0.47068 0.8889 0.08725 0.0
H958 H 0.50558 0.92663 0.15198 0.0
H959 H 0.52413 0.96925 0.13774 0.0
H960 H 0.06526 0.28365 0.73216 0.0
H961 H 0.05442 0.23733 0.71647 0.0
H962 H 0.13583 0.23733 0.68399 0.0
H963 H 0.14701 0.28333 0.70013 0.0
H964 H 0.05521 0.21657 0.66195 0.0
H965 H 0.12422 0.17229 0.72372 0.0
H966 H 0.11756 0.20493 0.73313 0.0
H967 H 0.14201 0.19829 0.70556 0.0
C968 C 0.08101 0.27368 0.7222 0.0
C969 C 0.10698 0.28722 0.71733 0.0
C970 C 0.07477 0.24721 0.71323 0.0
C971 C 0.09439 0.23379 0.69934 0.0
C972 C 0.12054 0.2471 0.69526 0.0
H973 H 0.07159 0.10465 0.57 0.0
H974 H 0.08071 0.14661 0.59857 0.0
C975 C 0.12684 0.2735 0.70434 0.0
C976 C 0.0869 0.20666 0.68647 0.0
H977 H 0.1061 0.14684 0.68095 0.0
C978 C 0.06611 0.20125 0.66642 0.0
C979 C 0.10088 0.18658 0.69251 0.0
C980 C 0.12221 0.19074 0.71513 0.0
C981 C 0.05965 0.1766 0.65141 0.0
C982 C 0.07481 0.157 0.65611 0.0
C983 C 0.09481 0.16204 0.67704 0.0
C984 C 0.07049 0.13134 0.63906 0.0
C985 C 0.03666 0.17181 0.63062 0.0
C986 C 0.06274 0.10872 0.65247 0.0
C987 C 0.05773 0.08461 0.6362 0.0
C988 C 0.06049 0.08273 0.60623 0.0
C989 C 0.06904 0.10539 0.59299 0.0
C990 C 0.07411 0.12944 0.60927 0.0
H991 H 0.02237 0.18586 0.63563 0.0
H992 H 0.0449 0.17411 0.60873 0.0
H993 H 0.0253 0.15189 0.63073 0.0
H994 H 0.06003 0.10977 0.67547 0.0
H995 H 0.05123 0.06755 0.64711 0.0
H996 H 0.68906 0.29941 0.37563 0.0
H997 H 0.67384 0.34165 0.38383 0.0
H998 H 0.59488 0.30462 0.40854 0.0
H999 H 0.60975 0.26229 0.40032 0.0
H1000 H 0.62126 0.35947 0.36199 0.0
H1001 H 0.63169 0.3574 0.47916 0.0
H1002 H 0.64967 0.33845 0.45305 0.0
H1003 H 0.61423 0.32875 0.45921 0.0
C1004 C 0.66833 0.30019 0.38241 0.0
C1005 C 0.65068 0.27752 0.3876 0.0
C1006 C 0.65969 0.32431 0.38697 0.0
C1007 C 0.63334 0.32611 0.39688 0.0
C1008 C 0.61532 0.3035 0.4009 0.0
H1009 H 0.54303 0.45248 0.43585 0.0
H1010 H 0.56033 0.41398 0.41335 0.0
C1011 C 0.62388 0.27936 0.39622 0.0
C1012 C 0.62538 0.3517 0.40544 0.0
H1013 H 0.61403 0.39258 0.46434 0.0
C1014 C 0.61969 0.36682 0.38432 0.0
C1015 C 0.6237 0.36117 0.43458 0.0
C1016 C 0.63027 0.34577 0.45794 0.0
C1017 C 0.61184 0.39121 0.39175 0.0
C1018 C 0.60963 0.40044 0.42095 0.0
C1019 C 0.61577 0.38541 0.44197 0.0
C1020 C 0.60048 0.4254 0.43055 0.0
C1021 C 0.60619 0.40701 0.36841 0.0
C1022 C 0.61742 0.44465 0.44736 0.0
C1023 C 0.60757 0.46655 0.46027 0.0
C1024 C 0.58056 0.46942 0.45674 0.0
C1025 C 0.56397 0.45075 0.43882 0.0
C1026 C 0.57385 0.42883 0.42586 0.0
H1027 H 0.61482 0.40006 0.34749 0.0
H1028 H 0.58403 0.40547 0.36614 0.0
H1029 H 0.61458 0.42777 0.37381 0.0
H1030 H 0.63799 0.44225 0.45133 0.0
H1031 H 0.62078 0.48068 0.47399 0.0
loop_
_geom_bond_atom_site_label_1
_geom_bond_atom_site_label_2
_geom_bond_distance
_geom_bond_site_symmetry_2
_ccdc_geom_bond_type
O0 Cd1 2.300 . S
O0 C7 1.275 . S
Cd1 O0 2.300 . S
Cd1 O9 2.381 . S
Cd1 O10 2.378 . S
O2 Cd3 2.385 . S
O2 C7 1.255 . S
Cd3 O2 2.385 . S
Cd3 O4 2.317 . S
O4 Cd3 2.317 . S
O4 C5 1.232 . S
C5 O4 1.232 . S
C5 O6 1.218 . S
O6 C5 1.218 . S
C7 O0 1.275 . S
C7 O2 1.255 . S
C8 O9 1.258 . S
C8 O10 1.256 . S
O9 Cd1 2.381 . S
O9 C8 1.258 . S
O10 Cd1 2.378 . S
O10 C8 1.256 . S
O11 Cd12 2.300 . S
O11 C18 1.275 . S
Cd12 O11 2.300 . S
Cd12 O20 2.381 . S
Cd12 O21 2.378 . S
O13 Cd14 2.385 . S
O13 C18 1.255 . S
Cd14 O13 2.385 . S
Cd14 O15 2.317 . S
O15 Cd14 2.317 . S
O15 C16 1.232 . S
C16 O15 1.232 . S
C16 O17 1.218 . S
O17 C16 1.218 . S
C18 O11 1.275 . S
C18 O13 1.255 . S
C19 O20 1.258 . S
C19 O21 1.256 . S
O20 Cd12 2.381 . S
O20 C19 1.258 . S
O21 Cd12 2.378 . S
O21 C19 1.256 . S
O22 Cd23 2.300 . S
O22 C29 1.275 . S
Cd23 O22 2.300 . S
Cd23 O31 2.381 . S
Cd23 O32 2.378 . S
O24 Cd25 2.385 . S
O24 C29 1.255 . S
Cd25 O24 2.385 . S
Cd25 O26 2.317 . S
O26 Cd25 2.317 . S
O26 C27 1.232 . S
C27 O26 1.232 . S
C27 O28 1.218 . S
O28 C27 1.218 . S
C29 O22 1.275 . S
C29 O24 1.255 . S
C30 O31 1.258 . S
C30 O32 1.256 . S
O31 Cd23 2.381 . S
O31 C30 1.258 . S
O32 Cd23 2.378 . S
O32 C30 1.256 . S
O33 Cd34 2.300 . S
O33 C40 1.275 . S
Cd34 O33 2.300 . S
Cd34 O42 2.381 . S
Cd34 O43 2.378 . S
O35 Cd36 2.385 . S
O35 C40 1.255 . S
Cd36 O35 2.385 . S
Cd36 O37 2.317 . S
O37 Cd36 2.317 . S
O37 C38 1.232 . S
C38 O37 1.232 . S
C38 O39 1.218 . S
O39 C38 1.218 . S
C40 O33 1.275 . S
C40 O35 1.255 . S
C41 O42 1.258 . S
C41 O43 1.256 . S
O42 Cd34 2.381 . S
O42 C41 1.258 . S
O43 Cd34 2.378 . S
O43 C41 1.256 . S
O44 Cd45 2.300 . S
O44 C51 1.275 . S
Cd45 O44 2.300 . S
Cd45 O53 2.381 . S
Cd45 O54 2.378 . S
O46 Cd47 2.385 . S
O46 C51 1.255 . S
Cd47 O46 2.385 . S
Cd47 O48 2.317 . S
O48 Cd47 2.317 . S
O48 C49 1.232 . S
C49 O48 1.232 . S
C49 O50 1.218 . S
O50 C49 1.218 . S
C51 O44 1.275 . S
C51 O46 1.255 . S
C52 O53 1.258 . S
C52 O54 1.256 . S
O53 Cd45 2.381 . S
O53 C52 1.258 . S
O54 Cd45 2.378 . S
O54 C52 1.256 . S
O55 Cd56 2.300 . S
O55 C62 1.275 . S
Cd56 O55 2.300 . S
Cd56 O64 2.381 . S
Cd56 O65 2.378 . S
O57 Cd58 2.385 . S
O57 C62 1.255 . S
Cd58 O57 2.385 . S
Cd58 O59 2.317 . S
O59 Cd58 2.317 . S
O59 C60 1.232 . S
C60 O59 1.232 . S
C60 O61 1.218 . S
O61 C60 1.218 . S
C62 O55 1.275 . S
C62 O57 1.255 . S
C63 O64 1.258 . S
C63 O65 1.256 . S
O64 Cd56 2.381 . S
O64 C63 1.258 . S
O65 Cd56 2.378 . S
O65 C63 1.256 . S
O66 Cd67 2.300 . S
O66 C73 1.275 . S
Cd67 O66 2.300 . S
Cd67 O75 2.381 . S
Cd67 O76 2.378 . S
O68 Cd69 2.385 . S
O68 C73 1.255 . S
Cd69 O68 2.385 . S
Cd69 O70 2.317 . S
O70 Cd69 2.317 . S
O70 C71 1.232 . S
C71 O70 1.232 . S
C71 O72 1.218 . S
O72 C71 1.218 . S
C73 O66 1.275 . S
C73 O68 1.255 . S
C74 O75 1.258 . S
C74 O76 1.256 . S
O75 Cd67 2.381 . S
O75 C74 1.258 . S
O76 Cd67 2.378 . S
O76 C74 1.256 . S
O77 Cd78 2.300 . S
O77 C84 1.275 . S
Cd78 O77 2.300 . S
Cd78 O86 2.381 . S
Cd78 O87 2.378 . S
O79 Cd80 2.385 . S
O79 C84 1.255 . S
Cd80 O79 2.385 . S
Cd80 O81 2.317 . S
O81 Cd80 2.317 . S
O81 C82 1.232 . S
C82 O81 1.232 . S
C82 O83 1.218 . S
O83 C82 1.218 . S
C84 O77 1.275 . S
C84 O79 1.255 . S
C85 O86 1.258 . S
C85 O87 1.256 . S
O86 Cd78 2.381 . S
O86 C85 1.258 . S
O87 Cd78 2.378 . S
O87 C85 1.256 . S
Dy88 O92 2.398 . S
Dy88 O93 2.491 . S
Dy88 O94 2.403 . S
Dy88 O95 2.664 . S
Dy88 O99 2.326 . S
Dy88 O103 2.310 1_455 S
Dy88 O104 2.351 1_545 S
C89 O100 1.185 . S
C89 O101 1.355 . S
C90 O92 1.185 . S
C90 O93 1.355 . S
Dy91 O95 2.310 1_655 S
Dy91 O98 2.351 1_655 S
Dy91 O100 2.398 1_545 S
Dy91 O101 2.491 1_545 S
Dy91 O102 2.403 . S
Dy91 O103 2.664 . S
Dy91 O105 2.326 1_545 S
O92 Dy88 2.398 . S
O92 C90 1.185 . S
O93 Dy88 2.491 . S
O93 C90 1.355 . S
O94 Dy88 2.403 . S
O94 C96 1.261 . S
O95 Dy88 2.664 . S
O95 Dy91 2.310 1_455 S
O95 C96 1.273 . S
C96 O94 1.261 . S
C96 O95 1.273 . S
C97 O102 1.254 . S
C97 O103 1.268 . S
O98 Dy91 2.351 1_455 S
O98 C106 1.249 . S
O99 Dy88 2.326 . S
O99 C106 1.267 . S
O100 C89 1.185 . S
O100 Dy91 2.398 1_565 S
O101 C89 1.355 . S
O101 Dy91 2.491 1_565 S
O102 Dy91 2.403 . S
O102 C97 1.254 . S
O103 Dy88 2.310 1_655 S
O103 Dy91 2.664 . S
O103 C97 1.268 . S
O104 Dy88 2.351 1_565 S
O104 C107 1.249 1_455 S
O105 Dy91 2.326 1_565 S
O105 C107 1.267 . S
C106 O98 1.249 . S
C106 O99 1.267 . S
C107 O104 1.249 1_655 S
C107 O105 1.267 . S
Dy108 O112 2.398 . S
Dy108 O113 2.491 . S
Dy108 O114 2.391 1_545 S
Dy108 O115 2.664 . S
Dy108 O119 2.326 . S
Dy108 O123 2.310 . S
Dy108 O124 2.351 . S
C109 O120 1.185 1_565 S
C109 O121 1.355 . S
C110 O112 1.185 . S
C110 O113 1.355 . S
Dy111 O115 2.310 . S
Dy111 O118 2.351 . S
Dy111 O120 2.398 1_554 S
Dy111 O121 2.491 1_544 S
Dy111 O122 2.403 . S
Dy111 O123 2.664 . S
Dy111 O125 2.326 . S
O112 Dy108 2.398 . S
O112 C110 1.185 . S
O113 Dy108 2.491 . S
O113 C110 1.355 . S
O114 Dy108 2.391 1_565 S
O114 C116 1.256 . S
O115 Dy108 2.664 . S
O115 Dy111 2.310 . S
O115 C116 1.268 1_545 S
C116 O114 1.256 . S
C116 O115 1.268 1_565 S
C117 O122 1.254 . S
C117 O123 1.268 . S
O118 Dy111 2.351 . S
O118 C126 1.249 . S
O119 Dy108 2.326 . S
O119 C126 1.267 . S
O120 C109 1.185 1_545 S
O120 Dy111 2.398 1_556 S
O121 C109 1.355 . S
O121 Dy111 2.491 1_566 S
O122 Dy111 2.403 . S
O122 C117 1.254 . S
O123 Dy108 2.310 . S
O123 Dy111 2.664 . S
O123 C117 1.268 . S
O124 Dy108 2.351 . S
O124 C127 1.249 . S
O125 Dy111 2.326 . S
O125 C127 1.267 . S
C126 O118 1.249 . S
C126 O119 1.267 . S
C127 O124 1.249 . S
C127 O125 1.267 . S
Dy128 O132 2.398 . S
Dy128 O133 2.491 . S
Dy128 O134 2.403 . S
Dy128 O135 2.664 . S
Dy128 O139 2.326 . S
Dy128 O143 2.310 . S
Dy128 O144 2.351 . S
C129 O140 1.185 . S
C129 O141 1.355 . S
C130 O132 1.185 . S
C130 O133 1.355 . S
Dy131 O135 2.310 . S
Dy131 O138 2.351 . S
Dy131 O140 2.398 . S
Dy131 O141 2.491 . S
Dy131 O142 2.403 . S
Dy131 O143 2.664 . S
Dy131 O145 2.326 . S
O132 Dy128 2.398 . S
O132 C130 1.185 . S
O133 Dy128 2.491 . S
O133 C130 1.355 . S
O134 Dy128 2.403 . S
O134 C136 1.254 . S
O135 Dy128 2.664 . S
O135 Dy131 2.310 . S
O135 C136 1.268 . S
C136 O134 1.254 . S
C136 O135 1.268 . S
C137 O142 1.254 . S
C137 O143 1.268 . S
O138 Dy131 2.351 . S
O138 C146 1.249 . S
O139 Dy128 2.326 . S
O139 C146 1.267 . S
O140 C129 1.185 . S
O140 Dy131 2.398 . S
O141 C129 1.355 . S
O141 Dy131 2.491 . S
O142 Dy131 2.403 . S
O142 C137 1.254 . S
O143 Dy128 2.310 . S
O143 Dy131 2.664 . S
O143 C137 1.268 . S
O144 Dy128 2.351 . S
O144 C147 1.249 . S
O145 Dy131 2.326 . S
O145 C147 1.267 . S
C146 O138 1.249 . S
C146 O139 1.267 . S
C147 O144 1.249 . S
C147 O145 1.267 . S
Dy148 O152 2.398 . S
Dy148 O153 2.491 . S
Dy148 O154 2.403 . S
Dy148 O155 2.664 . S
Dy148 O159 2.326 . S
Dy148 O163 2.310 1_554 S
Dy148 O164 2.351 1_455 S
C149 O160 1.185 1_655 S
C149 O161 1.334 1_556 S
C150 O152 1.185 . S
C150 O153 1.355 . S
Dy151 O155 2.310 1_556 S
Dy151 O158 2.351 1_556 S
Dy151 O160 2.398 . S
Dy151 O161 2.492 1_456 S
Dy151 O162 2.403 . S
Dy151 O163 2.664 . S
Dy151 O165 2.326 1_455 S
O152 Dy148 2.398 . S
O152 C150 1.185 . S
O153 Dy148 2.491 . S
O153 C150 1.355 . S
O154 Dy148 2.403 . S
O154 C156 1.254 . S
O155 Dy148 2.664 . S
O155 Dy151 2.310 1_554 S
O155 C156 1.268 . S
C156 O154 1.254 . S
C156 O155 1.268 . S
C157 O162 1.254 . S
C157 O163 1.268 . S
O158 Dy151 2.351 1_554 S
O158 C166 1.249 . S
O159 Dy148 2.326 . S
O159 C166 1.267 . S
O160 C149 1.185 1_455 S
O160 Dy151 2.398 . S
O161 C149 1.334 1_554 S
O161 Dy151 2.492 1_654 S
O162 Dy151 2.403 . S
O162 C157 1.254 . S
O163 Dy148 2.310 1_556 S
O163 Dy151 2.664 . S
O163 C157 1.268 . S
O164 Dy148 2.351 1_655 S
O164 C167 1.249 1_554 S
O165 Dy151 2.326 1_655 S
O165 C167 1.267 . S
C166 O158 1.249 . S
C166 O159 1.267 . S
C167 O164 1.249 1_556 S
C167 O165 1.267 . S
H168 C176 0.929 . S
H169 C178 0.930 . S
H170 C180 0.930 . S
H171 C183 0.929 . S
H172 C186 0.930 . S
H173 C188 0.960 . S
H174 C188 0.960 . S
H175 C188 0.960 . S
C176 H168 0.929 . S
C176 C177 1.377 . S
C176 C178 1.384 . S
C177 C176 1.377 . S
C177 C183 1.390 . S
C178 H169 0.930 . S
C178 C176 1.384 . S
C178 C179 1.372 . S
C179 C178 1.372 . S
C179 C180 1.400 . S
C179 C184 1.490 . S
C180 H170 0.930 . S
C180 C179 1.400 . S
C180 C183 1.386 . S
H181 C197 0.930 . S
H182 C198 0.931 . S
C183 H171 0.929 . S
C183 C177 1.390 . S
C183 C180 1.386 . S
C184 C179 1.490 . S
C184 C186 1.395 . S
C184 C187 1.403 . S
H185 C191 0.930 . S
C186 H172 0.930 . S
C186 C184 1.395 . S
C186 C189 1.403 . S
C187 C184 1.403 . S
C187 C188 1.524 . S
C187 C191 1.400 . S
C188 H173 0.960 . S
C188 H174 0.960 . S
C188 H175 0.960 . S
C188 C187 1.524 . S
C189 C186 1.403 . S
C189 C190 1.392 . S
C189 C193 1.495 . S
C190 C189 1.392 . S
C190 C191 1.385 . S
C190 C192 1.478 . S
C191 H185 0.930 . S
C191 C187 1.400 . S
C191 C190 1.385 . S
C192 C190 1.478 . S
C192 C194 1.381 . S
C192 C198 1.383 . S
C193 C189 1.495 . S
C193 H199 0.959 . S
C193 H200 0.961 . S
C193 H201 0.960 . S
C194 C192 1.381 . S
C194 C195 1.394 . S
C194 H202 0.930 . S
C195 C194 1.394 . S
C195 C196 1.383 . S
C195 H203 0.929 . S
C196 C195 1.383 . S
C196 C197 1.377 . S
C197 H181 0.930 . S
C197 C196 1.377 . S
C197 C198 1.379 . S
C198 H182 0.931 . S
C198 C192 1.383 . S
C198 C197 1.379 . S
H199 C193 0.959 . S
H200 C193 0.961 . S
H201 C193 0.960 . S
H202 C194 0.930 . S
H203 C195 0.929 . S
H204 C212 0.929 . S
H205 C214 0.930 . S
H206 C216 0.930 . S
H207 C219 0.929 . S
H208 C222 0.930 . S
H209 C224 0.960 . S
H210 C224 0.960 . S
H211 C224 0.960 . S
C212 H204 0.929 . S
C212 C213 1.377 . S
C212 C214 1.384 . S
C213 C212 1.377 . S
C213 C219 1.390 . S
C214 H205 0.930 . S
C214 C212 1.384 . S
C214 C215 1.372 . S
C215 C214 1.372 . S
C215 C216 1.400 . S
C215 C220 1.490 . S
C216 H206 0.930 . S
C216 C215 1.400 . S
C216 C219 1.386 . S
H217 C233 0.930 . S
H218 C234 0.931 . S
C219 H207 0.929 . S
C219 C213 1.390 . S
C219 C216 1.386 . S
C220 C215 1.490 . S
C220 C222 1.395 . S
C220 C223 1.403 . S
H221 C227 0.930 . S
C222 H208 0.930 . S
C222 C220 1.395 . S
C222 C225 1.403 . S
C223 C220 1.403 . S
C223 C224 1.524 . S
C223 C227 1.400 . S
C224 H209 0.960 . S
C224 H210 0.960 . S
C224 H211 0.960 . S
C224 C223 1.524 . S
C225 C222 1.403 . S
C225 C226 1.392 . S
C225 C229 1.495 . S
C226 C225 1.392 . S
C226 C227 1.385 . S
C226 C228 1.478 . S
C227 H221 0.930 . S
C227 C223 1.400 . S
C227 C226 1.385 . S
C228 C226 1.478 . S
C228 C230 1.381 . S
C228 C234 1.383 . S
C229 C225 1.495 . S
C229 H235 0.959 . S
C229 H236 0.961 . S
C229 H237 0.960 . S
C230 C228 1.381 . S
C230 C231 1.394 . S
C230 H238 0.930 . S
C231 C230 1.394 . S
C231 C232 1.383 . S
C231 H239 0.929 . S
C232 C231 1.383 . S
C232 C233 1.377 . S
C233 H217 0.930 . S
C233 C232 1.377 . S
C233 C234 1.379 . S
C234 H218 0.931 . S
C234 C228 1.383 . S
C234 C233 1.379 . S
H235 C229 0.959 . S
H236 C229 0.961 . S
H237 C229 0.960 . S
H238 C230 0.930 . S
H239 C231 0.929 . S
H240 C248 0.929 . S
H241 C250 0.930 . S
H242 C252 0.930 . S
H243 C255 0.929 . S
H244 C258 0.930 . S
H245 C260 0.960 . S
H246 C260 0.960 . S
H247 C260 0.960 . S
C248 H240 0.929 . S
C248 C249 1.377 . S
C248 C250 1.384 . S
C249 C248 1.377 . S
C249 C255 1.390 . S
C250 H241 0.930 . S
C250 C248 1.384 . S
C250 C251 1.372 . S
C251 C250 1.372 . S
C251 C252 1.400 . S
C251 C256 1.490 . S
C252 H242 0.930 . S
C252 C251 1.400 . S
C252 C255 1.386 . S
H253 C269 0.930 . S
H254 C270 0.931 . S
C255 H243 0.929 . S
C255 C249 1.390 . S
C255 C252 1.386 . S
C256 C251 1.490 . S
C256 C258 1.395 . S
C256 C259 1.403 . S
H257 C263 0.930 . S
C258 H244 0.930 . S
C258 C256 1.395 . S
C258 C261 1.403 . S
C259 C256 1.403 . S
C259 C260 1.524 . S
C259 C263 1.400 . S
C260 H245 0.960 . S
C260 H246 0.960 . S
C260 H247 0.960 . S
C260 C259 1.524 . S
C261 C258 1.403 . S
C261 C262 1.392 . S
C261 C265 1.495 . S
C262 C261 1.392 . S
C262 C263 1.385 . S
C262 C264 1.478 . S
C263 H257 0.930 . S
C263 C259 1.400 . S
C263 C262 1.385 . S
C264 C262 1.478 . S
C264 C266 1.381 . S
C264 C270 1.383 . S
C265 C261 1.495 . S
C265 H271 0.959 . S
C265 H272 0.961 . S
C265 H273 0.960 . S
C266 C264 1.381 . S
C266 C267 1.394 . S
C266 H274 0.930 . S
C267 C266 1.394 . S
C267 C268 1.383 . S
C267 H275 0.929 . S
C268 C267 1.383 . S
C268 C269 1.377 . S
C269 H253 0.930 . S
C269 C268 1.377 . S
C269 C270 1.379 . S
C270 H254 0.931 . S
C270 C264 1.383 . S
C270 C269 1.379 . S
H271 C265 0.959 . S
H272 C265 0.961 . S
H273 C265 0.960 . S
H274 C266 0.930 . S
H275 C267 0.929 . S
H276 C284 0.929 . S
H277 C286 0.930 . S
H278 C288 0.930 . S
H279 C291 0.929 . S
H280 C294 0.930 . S
H281 C296 0.960 . S
H282 C296 0.960 . S
H283 C296 0.960 . S
C284 H276 0.929 . S
C284 C285 1.377 . S
C284 C286 1.384 . S
C285 C284 1.377 . S
C285 C291 1.390 . S
C286 H277 0.930 . S
C286 C284 1.384 . S
C286 C287 1.372 . S
C287 C286 1.372 . S
C287 C288 1.400 . S
C287 C292 1.490 . S
C288 H278 0.930 . S
C288 C287 1.400 . S
C288 C291 1.386 . S
H289 C305 0.930 . S
H290 C306 0.919 1_455 S
C291 H279 0.929 . S
C291 C285 1.390 . S
C291 C288 1.386 . S
C292 C287 1.490 . S
C292 C294 1.395 . S
C292 C295 1.403 . S
H293 C299 0.930 . S
C294 H280 0.930 . S
C294 C292 1.395 . S
C294 C297 1.403 . S
C295 C292 1.403 . S
C295 C296 1.524 . S
C295 C299 1.400 . S
C296 H281 0.960 . S
C296 H282 0.960 . S
C296 H283 0.960 . S
C296 C295 1.524 . S
C297 C294 1.403 . S
C297 C298 1.392 . S
C297 C301 1.495 . S
C298 C297 1.392 . S
C298 C299 1.385 . S
C298 C300 1.478 . S
C299 H293 0.930 . S
C299 C295 1.400 . S
C299 C298 1.385 . S
C300 C298 1.478 . S
C300 C302 1.381 . S
C300 C306 1.404 . S
C301 C297 1.495 . S
C301 H307 0.959 . S
C301 H308 0.961 1_655 S
C301 H309 0.960 . S
C302 C300 1.381 . S
C302 C303 1.394 . S
C302 H310 0.930 . S
C303 C302 1.394 . S
C303 C304 1.383 . S
C303 H311 0.929 . S
C304 C303 1.383 . S
C304 C305 1.377 1_655 S
C305 H289 0.930 . S
C305 C304 1.377 1_455 S
C305 C306 1.371 1_455 S
C306 H290 0.919 1_655 S
C306 C300 1.404 . S
C306 C305 1.371 1_655 S
H307 C301 0.959 . S
H308 C301 0.961 1_455 S
H309 C301 0.960 . S
H310 C302 0.930 . S
H311 C303 0.929 . S
H312 C320 0.929 . S
H313 C322 0.930 . S
H314 C324 0.930 . S
H315 C327 0.929 . S
H316 C330 0.930 . S
H317 C332 0.960 . S
H318 C332 0.960 . S
H319 C332 0.960 . S
C320 H312 0.929 . S
C320 C321 1.377 . S
C320 C322 1.384 . S
C321 C320 1.377 . S
C321 C327 1.390 . S
C322 H313 0.930 . S
C322 C320 1.384 . S
C322 C323 1.372 . S
C323 C322 1.372 . S
C323 C324 1.400 . S
C323 C328 1.490 . S
C324 H314 0.930 . S
C324 C323 1.400 . S
C324 C327 1.386 . S
H325 C341 0.930 . S
H326 C342 0.931 . S
C327 H315 0.929 . S
C327 C321 1.390 . S
C327 C324 1.386 . S
C328 C323 1.490 . S
C328 C330 1.395 . S
C328 C331 1.403 . S
H329 C335 0.930 . S
C330 H316 0.930 . S
C330 C328 1.395 . S
C330 C333 1.403 . S
C331 C328 1.403 . S
C331 C332 1.524 . S
C331 C335 1.400 . S
C332 H317 0.960 . S
C332 H318 0.960 . S
C332 H319 0.960 . S
C332 C331 1.524 . S
C333 C330 1.403 . S
C333 C334 1.392 . S
C333 C337 1.495 . S
C334 C333 1.392 . S
C334 C335 1.385 . S
C334 C336 1.478 . S
C335 H329 0.930 . S
C335 C331 1.400 . S
C335 C334 1.385 . S
C336 C334 1.478 . S
C336 C338 1.381 . S
C336 C342 1.383 . S
C337 C333 1.495 . S
C337 H343 0.959 . S
C337 H344 0.961 . S
C337 H345 0.960 . S
C338 C336 1.381 . S
C338 C339 1.394 . S
C338 H346 0.930 . S
C339 C338 1.394 . S
C339 C340 1.383 . S
C339 H347 0.929 . S
C340 C339 1.383 . S
C340 C341 1.377 . S
C341 H325 0.930 . S
C341 C340 1.377 . S
C341 C342 1.379 . S
C342 H326 0.931 . S
C342 C336 1.383 . S
C342 C341 1.379 . S
H343 C337 0.959 . S
H344 C337 0.961 . S
H345 C337 0.960 . S
H346 C338 0.930 . S
H347 C339 0.929 . S
H348 C356 0.929 . S
H349 C358 0.930 . S
H350 C360 0.930 . S
H351 C363 0.929 . S
H352 C366 0.930 . S
H353 C368 0.960 1_545 S
H354 C368 0.960 . S
H355 C368 0.960 . S
C356 H348 0.929 . S
C356 C357 1.377 . S
C356 C358 1.384 . S
C357 C356 1.377 . S
C357 C363 1.390 . S
C358 H349 0.930 . S
C358 C356 1.384 . S
C358 C359 1.372 . S
C359 C358 1.372 . S
C359 C360 1.400 . S
C359 C364 1.490 . S
C360 H350 0.930 . S
C360 C359 1.400 . S
C360 C363 1.386 . S
H361 C377 0.930 1_545 S
H362 C378 0.931 . S
C363 H351 0.929 . S
C363 C357 1.390 . S
C363 C360 1.386 . S
C364 C359 1.490 . S
C364 C366 1.395 . S
C364 C367 1.403 . S
H365 C371 0.930 . S
C366 H352 0.930 . S
C366 C364 1.395 . S
C366 C369 1.403 . S
C367 C364 1.403 . S
C367 C368 1.524 . S
C367 C371 1.400 . S
C368 H353 0.960 1_565 S
C368 H354 0.960 . S
C368 H355 0.960 . S
C368 C367 1.524 . S
C369 C366 1.403 . S
C369 C370 1.392 . S
C369 C373 1.495 . S
C370 C369 1.392 . S
C370 C371 1.385 . S
C370 C372 1.478 . S
C371 H365 0.930 . S
C371 C367 1.400 . S
C371 C370 1.385 . S
C372 C370 1.478 . S
C372 C374 1.381 . S
C372 C378 1.383 . S
C373 C369 1.495 . S
C373 H379 0.959 . S
C373 H380 0.961 . S
C373 H381 0.960 . S
C374 C372 1.381 . S
C374 C375 1.394 . S
C374 H382 0.930 . S
C375 C374 1.394 . S
C375 C376 1.383 . S
C375 H383 0.929 . S
C376 C375 1.383 . S
C376 C377 1.377 . S
C377 H361 0.930 1_565 S
C377 C376 1.377 . S
C377 C378 1.379 . S
C378 H362 0.931 . S
C378 C372 1.383 . S
C378 C377 1.379 . S
H379 C373 0.959 . S
H380 C373 0.961 . S
H381 C373 0.960 . S
H382 C374 0.930 . S
H383 C375 0.929 . S
H384 C392 0.929 . S
H385 C394 0.930 . S
H386 C396 0.930 . S
H387 C399 0.929 . S
H388 C402 0.930 . S
H389 C404 0.960 . S
H390 C404 0.960 . S
H391 C404 0.960 . S
C392 H384 0.929 . S
C392 C393 1.377 . S
C392 C394 1.384 . S
C393 C392 1.377 . S
C393 C399 1.390 . S
C394 H385 0.930 . S
C394 C392 1.384 . S
C394 C395 1.372 . S
C395 C394 1.372 . S
C395 C396 1.400 . S
C395 C400 1.490 . S
C396 H386 0.930 . S
C396 C395 1.400 . S
C396 C399 1.386 . S
H397 C413 0.930 1_554 S
H398 C414 0.931 . S
C399 H387 0.929 . S
C399 C393 1.390 . S
C399 C396 1.386 . S
C400 C395 1.490 . S
C400 C402 1.395 . S
C400 C403 1.403 . S
H401 C407 0.930 . S
C402 H388 0.930 . S
C402 C400 1.395 . S
C402 C405 1.403 . S
C403 C400 1.403 . S
C403 C404 1.524 . S
C403 C407 1.400 . S
C404 H389 0.960 . S
C404 H390 0.960 . S
C404 H391 0.960 . S
C404 C403 1.524 . S
C405 C402 1.403 . S
C405 C406 1.392 . S
C405 C409 1.495 . S
C406 C405 1.392 . S
C406 C407 1.385 . S
C406 C408 1.478 . S
C407 H401 0.930 . S
C407 C403 1.400 . S
C407 C406 1.385 . S
C408 C406 1.478 . S
C408 C410 1.381 . S
C408 C414 1.383 . S
C409 C405 1.495 . S
C409 H415 0.959 . S
C409 H416 0.961 1_556 S
C409 H417 0.960 . S
C410 C408 1.381 . S
C410 C411 1.394 . S
C410 H418 0.930 . S
C411 C410 1.394 . S
C411 C412 1.383 . S
C411 H419 0.929 . S
C412 C411 1.383 . S
C412 C413 1.377 . S
C413 H397 0.930 1_556 S
C413 C412 1.377 . S
C413 C414 1.379 . S
C414 H398 0.931 . S
C414 C408 1.383 . S
C414 C413 1.379 . S
H415 C409 0.959 . S
H416 C409 0.961 1_554 S
H417 C409 0.960 . S
H418 C410 0.930 . S
H419 C411 0.929 . S
H420 C428 0.929 . S
H421 C430 0.930 . S
H422 C432 0.930 . S
H423 C435 0.929 . S
H424 C438 0.930 . S
H425 C440 0.960 . S
H426 C440 0.960 . S
H427 C440 0.960 . S
C428 H420 0.929 . S
C428 C429 1.377 . S
C428 C430 1.384 . S
C429 C428 1.377 . S
C429 C435 1.390 . S
C430 H421 0.930 . S
C430 C428 1.384 . S
C430 C431 1.372 . S
C431 C430 1.372 . S
C431 C432 1.400 . S
C431 C436 1.490 . S
C432 H422 0.930 . S
C432 C431 1.400 . S
C432 C435 1.386 . S
H433 C449 0.930 . S
H434 C450 0.931 . S
C435 H423 0.929 . S
C435 C429 1.390 . S
C435 C432 1.386 . S
C436 C431 1.490 . S
C436 C438 1.395 . S
C436 C439 1.403 . S
H437 C443 0.930 . S
C438 H424 0.930 . S
C438 C436 1.395 . S
C438 C441 1.403 . S
C439 C436 1.403 . S
C439 C440 1.524 . S
C439 C443 1.400 . S
C440 H425 0.960 . S
C440 H426 0.960 . S
C440 H427 0.960 . S
C440 C439 1.524 . S
C441 C438 1.403 . S
C441 C442 1.392 . S
C441 C445 1.495 . S
C442 C441 1.392 . S
C442 C443 1.385 . S
C442 C444 1.478 . S
C443 H437 0.930 . S
C443 C439 1.400 . S
C443 C442 1.385 . S
C444 C442 1.478 . S
C444 C446 1.381 . S
C444 C450 1.383 . S
C445 C441 1.495 . S
C445 H451 0.959 . S
C445 H452 0.961 . S
C445 H453 0.960 . S
C446 C444 1.381 . S
C446 C447 1.394 . S
C446 H454 0.930 . S
C447 C446 1.394 . S
C447 C448 1.383 . S
C447 H455 0.929 . S
C448 C447 1.383 . S
C448 C449 1.377 . S
C449 H433 0.930 . S
C449 C448 1.377 . S
C449 C450 1.379 . S
C450 H434 0.931 . S
C450 C444 1.383 . S
C450 C449 1.379 . S
H451 C445 0.959 . S
H452 C445 0.961 . S
H453 C445 0.960 . S
H454 C446 0.930 . S
H455 C447 0.929 . S
H456 C464 0.929 . S
H457 C466 0.930 . S
H458 C468 0.930 . S
H459 C471 0.929 . S
H460 C474 0.930 . S
H461 C476 0.960 . S
H462 C476 0.960 . S
H463 C476 0.960 . S
C464 H456 0.929 . S
C464 C465 1.377 . S
C464 C466 1.384 . S
C465 C464 1.377 . S
C465 C471 1.390 . S
C466 H457 0.930 . S
C466 C464 1.384 . S
C466 C467 1.372 . S
C467 C466 1.372 . S
C467 C468 1.400 . S
C467 C472 1.490 . S
C468 H458 0.930 . S
C468 C467 1.400 . S
C468 C471 1.386 . S
H469 C485 0.930 . S
H470 C486 0.931 . S
C471 H459 0.929 . S
C471 C465 1.390 . S
C471 C468 1.386 . S
C472 C467 1.490 . S
C472 C474 1.395 . S
C472 C475 1.403 . S
H473 C479 0.930 . S
C474 H460 0.930 . S
C474 C472 1.395 . S
C474 C477 1.403 . S
C475 C472 1.403 . S
C475 C476 1.524 . S
C475 C479 1.400 . S
C476 H461 0.960 . S
C476 H462 0.960 . S
C476 H463 0.960 . S
C476 C475 1.524 . S
C477 C474 1.403 . S
C477 C478 1.392 . S
C477 C481 1.495 . S
C478 C477 1.392 . S
C478 C479 1.385 . S
C478 C480 1.478 . S
C479 H473 0.930 . S
C479 C475 1.400 . S
C479 C478 1.385 . S
C480 C478 1.478 . S
C480 C482 1.381 . S
C480 C486 1.383 . S
C481 C477 1.495 . S
C481 H487 0.959 . S
C481 H488 0.961 . S
C481 H489 0.960 . S
C482 C480 1.381 . S
C482 C483 1.394 . S
C482 H490 0.930 . S
C483 C482 1.394 . S
C483 C484 1.383 . S
C483 H491 0.929 . S
C484 C483 1.383 . S
C484 C485 1.377 . S
C485 H469 0.930 . S
C485 C484 1.377 . S
C485 C486 1.379 . S
C486 H470 0.931 . S
C486 C480 1.383 . S
C486 C485 1.379 . S
H487 C481 0.959 . S
H488 C481 0.961 . S
H489 C481 0.960 . S
H490 C482 0.930 . S
H491 C483 0.929 . S
H492 C500 0.929 . S
H493 C502 0.930 . S
H494 C504 0.930 . S
H495 C507 0.929 . S
H496 C510 0.930 . S
H497 C512 0.960 . S
H498 C512 0.960 . S
H499 C512 0.960 . S
C500 H492 0.929 . S
C500 C501 1.377 . S
C500 C502 1.384 . S
C501 C500 1.377 . S
C501 C507 1.390 . S
C502 H493 0.930 . S
C502 C500 1.384 . S
C502 C503 1.372 . S
C503 C502 1.372 . S
C503 C504 1.400 . S
C503 C508 1.490 . S
C504 H494 0.930 . S
C504 C503 1.400 . S
C504 C507 1.386 . S
H505 C521 0.930 . S
H506 C522 0.931 . S
C507 H495 0.929 . S
C507 C501 1.390 . S
C507 C504 1.386 . S
C508 C503 1.490 . S
C508 C510 1.395 . S
C508 C511 1.403 . S
H509 C515 0.930 . S
C510 H496 0.930 . S
C510 C508 1.395 . S
C510 C513 1.403 . S
C511 C508 1.403 . S
C511 C512 1.524 . S
C511 C515 1.400 . S
C512 H497 0.960 . S
C512 H498 0.960 . S
C512 H499 0.960 . S
C512 C511 1.524 . S
C513 C510 1.403 . S
C513 C514 1.392 . S
C513 C517 1.495 . S
C514 C513 1.392 . S
C514 C515 1.385 . S
C514 C516 1.458 1_556 S
C515 H509 0.930 . S
C515 C511 1.400 . S
C515 C514 1.385 . S
C516 C514 1.458 1_554 S
C516 C518 1.368 1_554 S
C516 C522 1.416 . S
C517 C513 1.495 . S
C517 H523 0.959 . S
C517 H524 0.961 1_556 S
C517 H525 0.960 . S
C518 C516 1.368 1_556 S
C518 C519 1.394 . S
C518 H526 0.930 . S
C519 C518 1.394 . S
C519 C520 1.383 1_556 S
C519 H527 0.929 . S
C520 C519 1.383 1_554 S
C520 C521 1.377 . S
C521 H505 0.930 . S
C521 C520 1.377 . S
C521 C522 1.379 . S
C522 H506 0.931 . S
C522 C516 1.416 . S
C522 C521 1.379 . S
H523 C517 0.959 . S
H524 C517 0.961 1_554 S
H525 C517 0.960 . S
H526 C518 0.930 . S
H527 C519 0.929 . S
H528 C536 0.929 . S
H529 C538 0.930 . S
H530 C540 0.930 . S
H531 C543 0.929 . S
H532 C546 0.930 . S
H533 C548 0.960 . S
H534 C548 0.960 . S
H535 C548 0.960 . S
C536 H528 0.929 . S
C536 C537 1.377 . S
C536 C538 1.384 . S
C537 C536 1.377 . S
C537 C543 1.390 . S
C538 H529 0.930 . S
C538 C536 1.384 . S
C538 C539 1.372 . S
C539 C538 1.372 . S
C539 C540 1.400 . S
C539 C544 1.490 . S
C540 H530 0.930 . S
C540 C539 1.400 . S
C540 C543 1.386 . S
H541 C557 0.930 . S
H542 C558 0.931 . S
C543 H531 0.929 . S
C543 C537 1.390 . S
C543 C540 1.386 . S
C544 C539 1.490 . S
C544 C546 1.395 . S
C544 C547 1.403 . S
H545 C551 0.930 . S
C546 H532 0.930 . S
C546 C544 1.395 . S
C546 C549 1.403 . S
C547 C544 1.403 . S
C547 C548 1.524 . S
C547 C551 1.400 . S
C548 H533 0.960 . S
C548 H534 0.960 . S
C548 H535 0.960 . S
C548 C547 1.524 . S
C549 C546 1.403 . S
C549 C550 1.392 . S
C549 C553 1.495 . S
C550 C549 1.392 . S
C550 C551 1.385 . S
C550 C552 1.478 . S
C551 H545 0.930 . S
C551 C547 1.400 . S
C551 C550 1.385 . S
C552 C550 1.478 . S
C552 C554 1.381 . S
C552 C558 1.383 . S
C553 C549 1.495 . S
C553 H559 0.959 . S
C553 H560 0.961 . S
C553 H561 0.960 . S
C554 C552 1.381 . S
C554 C555 1.394 . S
C554 H562 0.930 1_655 S
C555 C554 1.394 . S
C555 C556 1.383 . S
C555 H563 0.929 1_655 S
C556 C555 1.383 . S
C556 C557 1.377 . S
C557 H541 0.930 . S
C557 C556 1.377 . S
C557 C558 1.379 . S
C558 H542 0.931 . S
C558 C552 1.383 . S
C558 C557 1.379 . S
H559 C553 0.959 . S
H560 C553 0.961 . S
H561 C553 0.960 . S
H562 C554 0.930 1_455 S
H563 C555 0.929 1_455 S
H564 C572 0.929 . S
H565 C574 0.930 . S
H566 C576 0.930 . S
H567 C579 0.929 . S
H568 C582 0.930 . S
H569 C584 0.960 . S
H570 C584 0.960 . S
H571 C584 0.960 . S
C572 H564 0.929 . S
C572 C573 1.377 . S
C572 C574 1.384 . S
C573 C572 1.377 . S
C573 C579 1.390 . S
C574 H565 0.930 . S
C574 C572 1.384 . S
C574 C575 1.372 . S
C575 C574 1.372 . S
C575 C576 1.400 . S
C575 C580 1.490 . S
C576 H566 0.930 . S
C576 C575 1.400 . S
C576 C579 1.386 . S
H577 C593 0.930 . S
H578 C594 0.931 . S
C579 H567 0.929 . S
C579 C573 1.390 . S
C579 C576 1.386 . S
C580 C575 1.490 . S
C580 C582 1.395 . S
C580 C583 1.403 . S
H581 C587 0.930 . S
C582 H568 0.930 . S
C582 C580 1.395 . S
C582 C585 1.403 . S
C583 C580 1.403 . S
C583 C584 1.524 . S
C583 C587 1.400 . S
C584 H569 0.960 . S
C584 H570 0.960 . S
C584 H571 0.960 . S
C584 C583 1.524 . S
C585 C582 1.403 . S
C585 C586 1.392 . S
C585 C589 1.495 . S
C586 C585 1.392 . S
C586 C587 1.385 . S
C586 C588 1.478 . S
C587 H581 0.930 . S
C587 C583 1.400 . S
C587 C586 1.385 . S
C588 C586 1.478 . S
C588 C590 1.381 . S
C588 C594 1.383 . S
C589 C585 1.495 . S
C589 H595 0.959 . S
C589 H596 0.961 . S
C589 H597 0.960 . S
C590 C588 1.381 . S
C590 C591 1.394 . S
C590 H598 0.930 . S
C591 C590 1.394 . S
C591 C592 1.383 . S
C591 H599 0.929 . S
C592 C591 1.383 . S
C592 C593 1.377 . S
C593 H577 0.930 . S
C593 C592 1.377 . S
C593 C594 1.379 . S
C594 H578 0.931 . S
C594 C588 1.383 . S
C594 C593 1.379 . S
H595 C589 0.959 . S
H596 C589 0.961 . S
H597 C589 0.960 . S
H598 C590 0.930 . S
H599 C591 0.929 . S
H600 C608 0.929 . S
H601 C610 0.930 . S
H602 C612 0.930 . S
H603 C615 0.929 . S
H604 C618 0.930 . S
H605 C620 0.960 . S
H606 C620 0.960 . S
H607 C620 0.960 . S
C608 H600 0.929 . S
C608 C609 1.377 . S
C608 C610 1.384 . S
C609 C608 1.377 . S
C609 C615 1.390 . S
C610 H601 0.930 . S
C610 C608 1.384 . S
C610 C611 1.372 . S
C611 C610 1.372 . S
C611 C612 1.400 . S
C611 C616 1.490 . S
C612 H602 0.930 . S
C612 C611 1.400 . S
C612 C615 1.386 . S
H613 C629 0.930 . S
H614 C630 0.931 . S
C615 H603 0.929 . S
C615 C609 1.390 . S
C615 C612 1.386 . S
C616 C611 1.490 . S
C616 C618 1.395 . S
C616 C619 1.403 . S
H617 C623 0.930 . S
C618 H604 0.930 . S
C618 C616 1.395 . S
C618 C621 1.403 . S
C619 C616 1.403 . S
C619 C620 1.524 . S
C619 C623 1.400 . S
C620 H605 0.960 . S
C620 H606 0.960 . S
C620 H607 0.960 . S
C620 C619 1.524 . S
C621 C618 1.403 . S
C621 C622 1.392 . S
C621 C625 1.495 . S
C622 C621 1.392 . S
C622 C623 1.385 . S
C622 C624 1.478 . S
C623 H617 0.930 . S
C623 C619 1.400 . S
C623 C622 1.385 . S
C624 C622 1.478 . S
C624 C626 1.381 . S
C624 C630 1.383 . S
C625 C621 1.495 . S
C625 H631 0.959 . S
C625 H632 0.961 . S
C625 H633 0.960 . S
C626 C624 1.381 . S
C626 C627 1.394 . S
C626 H634 0.930 . S
C627 C626 1.394 . S
C627 C628 1.383 . S
C627 H635 0.929 . S
C628 C627 1.383 . S
C628 C629 1.377 . S
C629 H613 0.930 . S
C629 C628 1.377 . S
C629 C630 1.379 . S
C630 H614 0.931 . S
C630 C624 1.383 . S
C630 C629 1.379 . S
H631 C625 0.959 . S
H632 C625 0.961 . S
H633 C625 0.960 . S
H634 C626 0.930 . S
H635 C627 0.929 . S
H636 C644 0.929 . S
H637 C646 0.930 . S
H638 C648 0.930 . S
H639 C651 0.929 . S
H640 C654 0.930 . S
H641 C656 0.960 . S
H642 C656 0.960 . S
H643 C656 0.960 . S
C644 H636 0.929 . S
C644 C645 1.377 . S
C644 C646 1.384 . S
C645 C644 1.377 . S
C645 C651 1.390 . S
C646 H637 0.930 . S
C646 C644 1.384 . S
C646 C647 1.372 . S
C647 C646 1.372 . S
C647 C648 1.400 . S
C647 C652 1.490 . S
C648 H638 0.930 . S
C648 C647 1.400 . S
C648 C651 1.386 . S
H649 C665 0.930 . S
H650 C666 0.931 . S
C651 H639 0.929 . S
C651 C645 1.390 . S
C651 C648 1.386 . S
C652 C647 1.490 . S
C652 C654 1.395 . S
C652 C655 1.403 . S
H653 C659 0.930 . S
C654 H640 0.930 . S
C654 C652 1.395 . S
C654 C657 1.403 . S
C655 C652 1.403 . S
C655 C656 1.524 . S
C655 C659 1.400 . S
C656 H641 0.960 . S
C656 H642 0.960 . S
C656 H643 0.960 . S
C656 C655 1.524 . S
C657 C654 1.403 . S
C657 C658 1.392 . S
C657 C661 1.495 . S
C658 C657 1.392 . S
C658 C659 1.385 . S
C658 C660 1.478 . S
C659 H653 0.930 . S
C659 C655 1.400 . S
C659 C658 1.385 . S
C660 C658 1.478 . S
C660 C662 1.381 . S
C660 C666 1.383 . S
C661 C657 1.495 . S
C661 H667 0.959 . S
C661 H668 0.961 . S
C661 H669 0.960 . S
C662 C660 1.381 . S
C662 C663 1.394 . S
C662 H670 0.930 . S
C663 C662 1.394 . S
C663 C664 1.383 . S
C663 H671 0.929 . S
C664 C663 1.383 . S
C664 C665 1.377 . S
C665 H649 0.930 . S
C665 C664 1.377 . S
C665 C666 1.379 . S
C666 H650 0.931 . S
C666 C660 1.383 . S
C666 C665 1.379 . S
H667 C661 0.959 . S
H668 C661 0.961 . S
H669 C661 0.960 . S
H670 C662 0.930 . S
H671 C663 0.929 . S
H672 C680 0.929 . S
H673 C682 0.930 . S
H674 C684 0.930 . S
H675 C687 0.929 . S
H676 C690 0.930 . S
H677 C692 0.960 . S
H678 C692 0.960 . S
H679 C692 0.960 . S
C680 H672 0.929 . S
C680 C681 1.377 . S
C680 C682 1.384 . S
C681 C680 1.377 . S
C681 C687 1.390 . S
C682 H673 0.930 . S
C682 C680 1.384 . S
C682 C683 1.372 . S
C683 C682 1.372 . S
C683 C684 1.400 . S
C683 C688 1.490 . S
C684 H674 0.930 . S
C684 C683 1.400 . S
C684 C687 1.386 . S
H685 C701 0.930 . S
H686 C702 0.931 . S
C687 H675 0.929 . S
C687 C681 1.390 . S
C687 C684 1.386 . S
C688 C683 1.490 . S
C688 C690 1.395 . S
C688 C691 1.403 . S
H689 C695 0.930 . S
C690 H676 0.930 . S
C690 C688 1.395 . S
C690 C693 1.403 . S
C691 C688 1.403 . S
C691 C692 1.524 . S
C691 C695 1.400 . S
C692 H677 0.960 . S
C692 H678 0.960 . S
C692 H679 0.960 . S
C692 C691 1.524 . S
C693 C690 1.403 . S
C693 C694 1.392 . S
C693 C697 1.495 . S
C694 C693 1.392 . S
C694 C695 1.385 . S
C694 C696 1.478 . S
C695 H689 0.930 . S
C695 C691 1.400 . S
C695 C694 1.385 . S
C696 C694 1.478 . S
C696 C698 1.381 . S
C696 C702 1.383 . S
C697 C693 1.495 . S
C697 H703 0.959 . S
C697 H704 0.961 . S
C697 H705 0.960 . S
C698 C696 1.381 . S
C698 C699 1.394 . S
C698 H706 0.930 . S
C699 C698 1.394 . S
C699 C700 1.383 . S
C699 H707 0.929 . S
C700 C699 1.383 . S
C700 C701 1.377 . S
C701 H685 0.930 . S
C701 C700 1.377 . S
C701 C702 1.379 . S
C702 H686 0.931 . S
C702 C696 1.383 . S
C702 C701 1.379 . S
H703 C697 0.959 . S
H704 C697 0.961 . S
H705 C697 0.960 . S
H706 C698 0.930 . S
H707 C699 0.929 . S
H708 C716 0.929 . S
H709 C718 0.930 . S
H710 C720 0.930 . S
H711 C723 0.929 . S
H712 C726 0.930 . S
H713 C728 0.960 . S
H714 C728 0.960 . S
H715 C728 0.960 . S
C716 H708 0.929 . S
C716 C717 1.377 . S
C716 C718 1.384 . S
C717 C716 1.377 . S
C717 C723 1.390 . S
C718 H709 0.930 . S
C718 C716 1.384 . S
C718 C719 1.372 . S
C719 C718 1.372 . S
C719 C720 1.400 . S
C719 C724 1.490 . S
C720 H710 0.930 . S
C720 C719 1.400 . S
C720 C723 1.386 . S
H721 C737 0.930 . S
H722 C738 0.931 . S
C723 H711 0.929 . S
C723 C717 1.390 . S
C723 C720 1.386 . S
C724 C719 1.490 . S
C724 C726 1.395 . S
C724 C727 1.403 . S
H725 C731 0.930 . S
C726 H712 0.930 . S
C726 C724 1.395 . S
C726 C729 1.403 . S
C727 C724 1.403 . S
C727 C728 1.524 . S
C727 C731 1.400 . S
C728 H713 0.960 . S
C728 H714 0.960 . S
C728 H715 0.960 . S
C728 C727 1.524 . S
C729 C726 1.403 . S
C729 C730 1.392 . S
C729 C733 1.495 . S
C730 C729 1.392 . S
C730 C731 1.385 . S
C730 C732 1.478 . S
C731 H725 0.930 . S
C731 C727 1.400 . S
C731 C730 1.385 . S
C732 C730 1.478 . S
C732 C734 1.381 . S
C732 C738 1.383 . S
C733 C729 1.495 . S
C733 H739 0.959 . S
C733 H740 0.961 . S
C733 H741 0.960 . S
C734 C732 1.381 . S
C734 C735 1.394 . S
C734 H742 0.930 . S
C735 C734 1.394 . S
C735 C736 1.383 . S
C735 H743 0.929 . S
C736 C735 1.383 . S
C736 C737 1.377 . S
C737 H721 0.930 . S
C737 C736 1.377 . S
C737 C738 1.379 . S
C738 H722 0.931 . S
C738 C732 1.383 . S
C738 C737 1.379 . S
H739 C733 0.959 . S
H740 C733 0.961 . S
H741 C733 0.960 . S
H742 C734 0.930 . S
H743 C735 0.929 . S
H744 C752 0.929 . S
H745 C754 0.930 . S
H746 C756 0.930 . S
H747 C759 0.929 . S
H748 C762 0.930 . S
H749 C764 0.960 . S
H750 C764 0.960 . S
H751 C764 0.960 . S
C752 H744 0.929 . S
C752 C753 1.377 . S
C752 C754 1.384 . S
C753 C752 1.377 . S
C753 C759 1.390 . S
C754 H745 0.930 . S
C754 C752 1.384 . S
C754 C755 1.372 . S
C755 C754 1.372 . S
C755 C756 1.400 . S
C755 C760 1.490 . S
C756 H746 0.930 . S
C756 C755 1.400 . S
C756 C759 1.386 . S
H757 C773 0.930 . S
H758 C774 0.931 . S
C759 H747 0.929 . S
C759 C753 1.390 . S
C759 C756 1.386 . S
C760 C755 1.490 . S
C760 C762 1.395 . S
C760 C763 1.403 . S
H761 C767 0.930 . S
C762 H748 0.930 . S
C762 C760 1.395 . S
C762 C765 1.403 . S
C763 C760 1.403 . S
C763 C764 1.524 . S
C763 C767 1.400 . S
C764 H749 0.960 . S
C764 H750 0.960 . S
C764 H751 0.960 . S
C764 C763 1.524 . S
C765 C762 1.403 . S
C765 C766 1.392 . S
C765 C769 1.495 . S
C766 C765 1.392 . S
C766 C767 1.385 . S
C766 C768 1.478 . S
C767 H761 0.930 . S
C767 C763 1.400 . S
C767 C766 1.385 . S
C768 C766 1.478 . S
C768 C770 1.381 . S
C768 C774 1.383 . S
C769 C765 1.495 . S
C769 H775 0.959 . S
C769 H776 0.961 . S
C769 H777 0.960 . S
C770 C768 1.381 . S
C770 C771 1.394 . S
C770 H778 0.930 . S
C771 C770 1.394 . S
C771 C772 1.383 . S
C771 H779 0.929 1_566 S
C772 C771 1.383 . S
C772 C773 1.377 . S
C773 H757 0.930 . S
C773 C772 1.377 . S
C773 C774 1.379 . S
C774 H758 0.931 . S
C774 C768 1.383 . S
C774 C773 1.379 . S
H775 C769 0.959 . S
H776 C769 0.961 . S
H777 C769 0.960 . S
H778 C770 0.930 . S
H779 C771 0.929 1_544 S
H780 C788 0.929 . S
H781 C790 0.930 . S
H782 C792 0.930 . S
H783 C795 0.929 . S
H784 C798 0.930 . S
H785 C800 0.960 . S
H786 C800 0.960 . S
H787 C800 0.960 . S
C788 H780 0.929 . S
C788 C789 1.377 . S
C788 C790 1.384 . S
C789 C788 1.377 . S
C789 C795 1.390 . S
C790 H781 0.930 . S
C790 C788 1.384 . S
C790 C791 1.372 . S
C791 C790 1.372 . S
C791 C792 1.400 . S
C791 C796 1.490 . S
C792 H782 0.930 . S
C792 C791 1.400 . S
C792 C795 1.386 . S
H793 C809 0.930 . S
H794 C810 0.931 . S
C795 H783 0.929 . S
C795 C789 1.390 . S
C795 C792 1.386 . S
C796 C791 1.490 . S
C796 C798 1.395 . S
C796 C799 1.403 . S
H797 C803 0.930 . S
C798 H784 0.930 . S
C798 C796 1.395 . S
C798 C801 1.403 . S
C799 C796 1.403 . S
C799 C800 1.524 . S
C799 C803 1.400 . S
C800 H785 0.960 . S
C800 H786 0.960 . S
C800 H787 0.960 . S
C800 C799 1.524 . S
C801 C798 1.403 . S
C801 C802 1.392 . S
C801 C805 1.495 . S
C802 C801 1.392 . S
C802 C803 1.385 . S
C802 C804 1.478 . S
C803 H797 0.930 . S
C803 C799 1.400 . S
C803 C802 1.385 . S
C804 C802 1.478 . S
C804 C806 1.381 . S
C804 C810 1.383 . S
C805 C801 1.495 . S
C805 H811 0.959 . S
C805 H812 0.961 . S
C805 H813 0.960 . S
C806 C804 1.381 . S
C806 C807 1.394 . S
C806 H814 0.930 . S
C807 C806 1.394 . S
C807 C808 1.383 . S
C807 H815 0.929 . S
C808 C807 1.383 . S
C808 C809 1.377 . S
C809 H793 0.930 . S
C809 C808 1.377 . S
C809 C810 1.379 . S
C810 H794 0.931 . S
C810 C804 1.383 . S
C810 C809 1.379 . S
H811 C805 0.959 . S
H812 C805 0.961 . S
H813 C805 0.960 . S
H814 C806 0.930 . S
H815 C807 0.929 . S
H816 C824 0.929 . S
H817 C826 0.930 . S
H818 C828 0.930 . S
H819 C831 0.929 . S
H820 C834 0.930 . S
H821 C836 0.960 . S
H822 C836 0.960 . S
H823 C836 0.960 . S
C824 H816 0.929 . S
C824 C825 1.377 . S
C824 C826 1.384 . S
C825 C824 1.377 . S
C825 C831 1.390 . S
C826 H817 0.930 . S
C826 C824 1.384 . S
C826 C827 1.372 . S
C827 C826 1.372 . S
C827 C828 1.400 . S
C827 C832 1.490 . S
C828 H818 0.930 . S
C828 C827 1.400 . S
C828 C831 1.386 . S
H829 C845 0.930 . S
H830 C846 0.931 . S
C831 H819 0.929 . S
C831 C825 1.390 . S
C831 C828 1.386 . S
C832 C827 1.490 . S
C832 C834 1.395 . S
C832 C835 1.403 . S
H833 C839 0.930 . S
C834 H820 0.930 . S
C834 C832 1.395 . S
C834 C837 1.403 . S
C835 C832 1.403 . S
C835 C836 1.524 . S
C835 C839 1.400 . S
C836 H821 0.960 . S
C836 H822 0.960 . S
C836 H823 0.960 . S
C836 C835 1.524 . S
C837 C834 1.403 . S
C837 C838 1.392 . S
C837 C841 1.495 . S
C838 C837 1.392 . S
C838 C839 1.385 . S
C838 C840 1.478 . S
C839 H833 0.930 . S
C839 C835 1.400 . S
C839 C838 1.385 . S
C840 C838 1.478 . S
C840 C842 1.381 . S
C840 C846 1.383 . S
C841 C837 1.495 . S
C841 H847 0.959 . S
C841 H848 0.961 . S
C841 H849 0.960 . S
C842 C840 1.381 . S
C842 C843 1.394 . S
C842 H850 0.930 . S
C843 C842 1.394 . S
C843 C844 1.383 . S
C843 H851 0.929 . S
C844 C843 1.383 . S
C844 C845 1.377 . S
C845 H829 0.930 . S
C845 C844 1.377 . S
C845 C846 1.379 . S
C846 H830 0.931 . S
C846 C840 1.383 . S
C846 C845 1.379 . S
H847 C841 0.959 . S
H848 C841 0.961 . S
H849 C841 0.960 . S
H850 C842 0.930 . S
H851 C843 0.929 . S
H852 C860 0.929 . S
H853 C862 0.930 . S
H854 C864 0.930 . S
H855 C867 0.929 . S
H856 C870 0.930 . S
H857 C872 0.960 . S
H858 C872 0.960 . S
H859 C872 0.960 . S
C860 H852 0.929 . S
C860 C861 1.377 . S
C860 C862 1.384 . S
C861 C860 1.377 . S
C861 C867 1.390 . S
C862 H853 0.930 . S
C862 C860 1.384 . S
C862 C863 1.372 . S
C863 C862 1.372 . S
C863 C864 1.400 . S
C863 C868 1.490 . S
C864 H854 0.930 . S
C864 C863 1.400 . S
C864 C867 1.386 . S
H865 C881 0.930 . S
H866 C882 0.931 . S
C867 H855 0.929 . S
C867 C861 1.390 . S
C867 C864 1.386 . S
C868 C863 1.490 . S
C868 C870 1.395 . S
C868 C871 1.403 . S
H869 C875 0.930 . S
C870 H856 0.930 . S
C870 C868 1.395 . S
C870 C873 1.403 . S
C871 C868 1.403 . S
C871 C872 1.524 . S
C871 C875 1.400 . S
C872 H857 0.960 . S
C872 H858 0.960 . S
C872 H859 0.960 . S
C872 C871 1.524 . S
C873 C870 1.403 . S
C873 C874 1.392 . S
C873 C877 1.495 . S
C874 C873 1.392 . S
C874 C875 1.385 . S
C874 C876 1.478 . S
C875 H869 0.930 . S
C875 C871 1.400 . S
C875 C874 1.385 . S
C876 C874 1.478 . S
C876 C878 1.381 . S
C876 C882 1.383 . S
C877 C873 1.495 . S
C877 H883 0.959 . S
C877 H884 0.961 . S
C877 H885 0.960 . S
C878 C876 1.381 . S
C878 C879 1.394 . S
C878 H886 0.930 . S
C879 C878 1.394 . S
C879 C880 1.383 . S
C879 H887 0.929 . S
C880 C879 1.383 . S
C880 C881 1.377 . S
C881 H865 0.930 . S
C881 C880 1.377 . S
C881 C882 1.379 . S
C882 H866 0.931 . S
C882 C876 1.383 . S
C882 C881 1.379 . S
H883 C877 0.959 . S
H884 C877 0.961 . S
H885 C877 0.960 . S
H886 C878 0.930 . S
H887 C879 0.929 . S
H888 C896 0.929 . S
H889 C898 0.930 . S
H890 C900 0.930 . S
H891 C903 0.929 . S
H892 C906 0.930 . S
H893 C908 0.960 . S
H894 C908 0.960 . S
H895 C908 0.960 . S
C896 H888 0.929 . S
C896 C897 1.377 . S
C896 C898 1.384 . S
C897 C896 1.377 . S
C897 C903 1.390 . S
C898 H889 0.930 . S
C898 C896 1.384 . S
C898 C899 1.372 . S
C899 C898 1.372 . S
C899 C900 1.400 . S
C899 C904 1.490 . S
C900 H890 0.930 . S
C900 C899 1.400 . S
C900 C903 1.386 . S
H901 C917 0.930 . S
H902 C918 0.931 . S
C903 H891 0.929 . S
C903 C897 1.390 . S
C903 C900 1.386 . S
C904 C899 1.490 . S
C904 C906 1.395 . S
C904 C907 1.403 . S
H905 C911 0.930 . S
C906 H892 0.930 . S
C906 C904 1.395 . S
C906 C909 1.403 . S
C907 C904 1.403 . S
C907 C908 1.524 . S
C907 C911 1.400 . S
C908 H893 0.960 . S
C908 H894 0.960 . S
C908 H895 0.960 . S
C908 C907 1.524 . S
C909 C906 1.403 . S
C909 C910 1.392 . S
C909 C913 1.495 . S
C910 C909 1.392 . S
C910 C911 1.385 . S
C910 C912 1.478 . S
C911 H905 0.930 . S
C911 C907 1.400 . S
C911 C910 1.385 . S
C912 C910 1.478 . S
C912 C914 1.381 . S
C912 C918 1.383 . S
C913 C909 1.495 . S
C913 H919 0.959 . S
C913 H920 0.961 . S
C913 H921 0.960 . S
C914 C912 1.381 . S
C914 C915 1.394 . S
C914 H922 0.930 . S
C915 C914 1.394 . S
C915 C916 1.383 . S
C915 H923 0.929 . S
C916 C915 1.383 . S
C916 C917 1.377 . S
C917 H901 0.930 . S
C917 C916 1.377 . S
C917 C918 1.379 . S
C918 H902 0.931 . S
C918 C912 1.383 . S
C918 C917 1.379 . S
H919 C913 0.959 . S
H920 C913 0.961 . S
H921 C913 0.960 . S
H922 C914 0.930 . S
H923 C915 0.929 . S
H924 C932 0.929 . S
H925 C934 0.930 . S
H926 C936 0.930 . S
H927 C939 0.929 . S
H928 C942 0.930 . S
H929 C944 0.960 . S
H930 C944 0.960 . S
H931 C944 0.960 . S
C932 H924 0.929 . S
C932 C933 1.377 . S
C932 C934 1.384 . S
C933 C932 1.377 . S
C933 C939 1.390 . S
C934 H925 0.930 . S
C934 C932 1.384 . S
C934 C935 1.372 . S
C935 C934 1.372 . S
C935 C936 1.400 . S
C935 C940 1.490 . S
C936 H926 0.930 . S
C936 C935 1.400 . S
C936 C939 1.386 . S
H937 C953 0.930 . S
H938 C954 0.931 . S
C939 H927 0.929 . S
C939 C933 1.390 . S
C939 C936 1.386 . S
C940 C935 1.490 . S
C940 C942 1.395 . S
C940 C943 1.403 . S
H941 C947 0.930 . S
C942 H928 0.930 . S
C942 C940 1.395 . S
C942 C945 1.403 . S
C943 C940 1.403 . S
C943 C944 1.524 . S
C943 C947 1.400 . S
C944 H929 0.960 . S
C944 H930 0.960 . S
C944 H931 0.960 . S
C944 C943 1.524 . S
C945 C942 1.403 . S
C945 C946 1.392 . S
C945 C949 1.495 . S
C946 C945 1.392 . S
C946 C947 1.385 . S
C946 C948 1.478 . S
C947 H941 0.930 . S
C947 C943 1.400 . S
C947 C946 1.385 . S
C948 C946 1.478 . S
C948 C950 1.381 . S
C948 C954 1.383 . S
C949 C945 1.495 . S
C949 H955 0.959 . S
C949 H956 0.961 . S
C949 H957 0.960 . S
C950 C948 1.381 . S
C950 C951 1.394 . S
C950 H958 0.930 . S
C951 C950 1.394 . S
C951 C952 1.383 . S
C951 H959 0.929 . S
C952 C951 1.383 . S
C952 C953 1.377 . S
C953 H937 0.930 . S
C953 C952 1.377 . S
C953 C954 1.379 . S
C954 H938 0.931 . S
C954 C948 1.383 . S
C954 C953 1.379 . S
H955 C949 0.959 . S
H956 C949 0.961 . S
H957 C949 0.960 . S
H958 C950 0.930 . S
H959 C951 0.929 . S
H960 C968 0.929 . S
H961 C970 0.930 . S
H962 C972 0.930 . S
H963 C975 0.929 . S
H964 C978 0.930 . S
H965 C980 0.960 . S
H966 C980 0.960 . S
H967 C980 0.960 . S
C968 H960 0.929 . S
C968 C969 1.377 . S
C968 C970 1.384 . S
C969 C968 1.377 . S
C969 C975 1.390 . S
C970 H961 0.930 . S
C970 C968 1.384 . S
C970 C971 1.372 . S
C971 C970 1.372 . S
C971 C972 1.400 . S
C971 C976 1.490 . S
C972 H962 0.930 . S
C972 C971 1.400 . S
C972 C975 1.386 . S
H973 C989 0.930 . S
H974 C990 0.931 . S
C975 H963 0.929 . S
C975 C969 1.390 . S
C975 C972 1.386 . S
C976 C971 1.490 . S
C976 C978 1.395 . S
C976 C979 1.403 . S
H977 C983 0.930 . S
C978 H964 0.930 . S
C978 C976 1.395 . S
C978 C981 1.403 . S
C979 C976 1.403 . S
C979 C980 1.524 . S
C979 C983 1.400 . S
C980 H965 0.960 . S
C980 H966 0.960 . S
C980 H967 0.960 . S
C980 C979 1.524 . S
C981 C978 1.403 . S
C981 C982 1.392 . S
C981 C985 1.495 . S
C982 C981 1.392 . S
C982 C983 1.385 . S
C982 C984 1.478 . S
C983 H977 0.930 . S
C983 C979 1.400 . S
C983 C982 1.385 . S
C984 C982 1.478 . S
C984 C986 1.381 . S
C984 C990 1.383 . S
C985 C981 1.495 . S
C985 H991 0.959 . S
C985 H992 0.961 . S
C985 H993 0.960 . S
C986 C984 1.381 . S
C986 C987 1.394 . S
C986 H994 0.930 . S
C987 C986 1.394 . S
C987 C988 1.383 . S
C987 H995 0.929 . S
C988 C987 1.383 . S
C988 C989 1.377 . S
C989 H973 0.930 . S
C989 C988 1.377 . S
C989 C990 1.379 . S
C990 H974 0.931 . S
C990 C984 1.383 . S
C990 C989 1.379 . S
H991 C985 0.959 . S
H992 C985 0.961 . S
H993 C985 0.960 . S
H994 C986 0.930 . S
H995 C987 0.929 . S
H996 C1004 0.929 . S
H997 C1006 0.930 . S
H998 C1008 0.930 . S
H999 C1011 0.929 . S
H1000 C1014 0.930 . S
H1001 C1016 0.960 . S
H1002 C1016 0.960 . S
H1003 C1016 0.960 . S
C1004 H996 0.929 . S
C1004 C1005 1.377 . S
C1004 C1006 1.384 . S
C1005 C1004 1.377 . S
C1005 C1011 1.390 . S
C1006 H997 0.930 . S
C1006 C1004 1.384 . S
C1006 C1007 1.372 . S
C1007 C1006 1.372 . S
C1007 C1008 1.400 . S
C1007 C1012 1.490 . S
C1008 H998 0.930 . S
C1008 C1007 1.400 . S
C1008 C1011 1.386 . S
H1009 C1025 0.930 . S
H1010 C1026 0.931 . S
C1011 H999 0.929 . S
C1011 C1005 1.390 . S
C1011 C1008 1.386 . S
C1012 C1007 1.490 . S
C1012 C1014 1.395 . S
C1012 C1015 1.403 . S
H1013 C1019 0.930 . S
C1014 H1000 0.930 . S
C1014 C1012 1.395 . S
C1014 C1017 1.403 . S
C1015 C1012 1.403 . S
C1015 C1016 1.524 . S
C1015 C1019 1.400 . S
C1016 H1001 0.960 . S
C1016 H1002 0.960 . S
C1016 H1003 0.960 . S
C1016 C1015 1.524 . S
C1017 C1014 1.403 . S
C1017 C1018 1.392 . S
C1017 C1021 1.495 . S
C1018 C1017 1.392 . S
C1018 C1019 1.385 . S
C1018 C1020 1.478 . S
C1019 H1013 0.930 . S
C1019 C1015 1.400 . S
C1019 C1018 1.385 . S
C1020 C1018 1.478 . S
C1020 C1022 1.381 . S
C1020 C1026 1.383 . S
C1021 C1017 1.495 . S
C1021 H1027 0.959 . S
C1021 H1028 0.961 . S
C1021 H1029 0.960 . S
C1022 C1020 1.381 . S
C1022 C1023 1.394 . S
C1022 H1030 0.930 . S
C1023 C1022 1.394 . S
C1023 C1024 1.383 . S
C1023 H1031 0.929 . S
C1024 C1023 1.383 . S
C1024 C1025 1.377 . S
C1025 H1009 0.930 . S
C1025 C1024 1.377 . S
C1025 C1026 1.379 . S
C1026 H1010 0.931 . S
C1026 C1020 1.383 . S
C1026 C1025 1.379 . S
H1027 C1021 0.959 . S
H1028 C1021 0.961 . S
H1029 C1021 0.960 . S
H1030 C1022 0.930 . S
H1031 C1023 0.929 . S
C177 C5 1.402 . S
C196 C90 1.675 . S
C213 C18 1.410 . S
C232 C109 1.470 . S
C268 C146 1.529 . S
C249 C30 1.531 . S
C285 C41 1.323 . S
C304 C156 1.301 1_655 S
C340 C126 2.169 . S
C321 C7 2.060 . S
C376 C96 1.678 1_565 S
C357 C16 1.469 . S
C412 C167 1.536 . S
C393 C29 1.461 . S
C448 C137 0.884 . S
C429 C38 0.862 . S
C465 C8 1.771 . S
C484 C150 1.800 . S
C520 C117 1.926 . S
C501 C27 1.731 . S
C537 C40 1.769 . S
C556 C107 1.786 . S
C573 C19 0.893 . S
C592 C129 0.880 . S
C628 C89 1.500 . S
C609 C51 1.376 . S
C645 C62 1.634 . S
C664 C110 1.621 . S
C681 C74 1.660 . S
C700 C147 1.661 . S
C717 C84 1.463 . S
C736 C157 1.503 . S
C753 C49 1.906 . S
C772 C127 2.300 1_566 S
C808 C97 1.535 . S
C789 C63 1.543 . S
C844 C166 1.446 . S
C825 C71 1.303 . S
C880 C136 0.990 . S
C861 C85 1.004 . S
C897 C52 1.691 . S
C916 C149 1.717 . S
C952 C116 1.982 . S
C933 C73 1.981 . S
C988 C106 1.366 . S
C969 C82 1.132 . S
C1005 C60 1.097 . S
C1024 C130 1.282 . S
