# Generated by pormake.
# Topology hwx, (6,3)-cn, num edge types: 1
# Building blocks:
#     Node 0, Type 0, BuildingBlock: OJICUG_clean_sbu_0, # of connection points: 6
#     Node 1, Type 0, BuildingBlock: OJICUG_clean_sbu_0, # of connection points: 6
#     Node 2, Type 0, BuildingBlock: OJICUG_clean_sbu_0, # of connection points: 6
#     Node 3, Type 0, BuildingBlock: OJICUG_clean_sbu_0, # of connection points: 6
#     Node 4, Type 1, BuildingBlock: WUSLED_clean_sbu_0, # of connection points: 3
#     Node 5, Type 1, BuildingBlock: WUSLED_clean_sbu_0, # of connection points: 3
#     Node 6, Type 1, BuildingBlock: WUSLED_clean_sbu_0, # of connection points: 3
#     Node 7, Type 1, BuildingBlock: WUSLED_clean_sbu_0, # of connection points: 3
#     Node 8, Type 1, BuildingBlock: WUSLED_clean_sbu_0, # of connection points: 3
#     Node 9, Type 1, BuildingBlock: WUSLED_clean_sbu_0, # of connection points: 3
#     Node 10, Type 1, BuildingBlock: WUSLED_clean_sbu_0, # of connection points: 3
#     Node 11, Type 1, BuildingBlock: WUSLED_clean_sbu_0, # of connection points: 3
#     Edge 12, Type (0, 1), BuildingBlock: UVAHIK_clean_linker_0, # of connection points: 2
#     Edge 13, Type (0, 1), BuildingBlock: UVAHIK_clean_linker_0, # of connection points: 2
#     Edge 14, Type (0, 1), BuildingBlock: UVAHIK_clean_linker_0, # of connection points: 2
#     Edge 15, Type (0, 1), BuildingBlock: UVAHIK_clean_linker_0, # of connection points: 2
#     Edge 16, Type (0, 1), BuildingBlock: UVAHIK_clean_linker_0, # of connection points: 2
#     Edge 17, Type (0, 1), BuildingBlock: UVAHIK_clean_linker_0, # of connection points: 2
#     Edge 18, Type (0, 1), BuildingBlock: UVAHIK_clean_linker_0, # of connection points: 2
#     Edge 19, Type (0, 1), BuildingBlock: UVAHIK_clean_linker_0, # of connection points: 2
#     Edge 20, Type (0, 1), BuildingBlock: UVAHIK_clean_linker_0, # of connection points: 2
#     Edge 21, Type (0, 1), BuildingBlock: UVAHIK_clean_linker_0, # of connection points: 2
#     Edge 22, Type (0, 1), BuildingBlock: UVAHIK_clean_linker_0, # of connection points: 2
#     Edge 23, Type (0, 1), BuildingBlock: UVAHIK_clean_linker_0, # of connection points: 2
#     Edge 24, Type (0, 1), BuildingBlock: UVAHIK_clean_linker_0, # of connection points: 2
#     Edge 25, Type (0, 1), BuildingBlock: UVAHIK_clean_linker_0, # of connection points: 2
#     Edge 26, Type (0, 1), BuildingBlock: UVAHIK_clean_linker_0, # of connection points: 2
#     Edge 27, Type (0, 1), BuildingBlock: UVAHIK_clean_linker_0, # of connection points: 2
#     Edge 28, Type (0, 1), BuildingBlock: UVAHIK_clean_linker_0, # of connection points: 2
#     Edge 29, Type (0, 1), BuildingBlock: UVAHIK_clean_linker_0, # of connection points: 2
#     Edge 30, Type (0, 1), BuildingBlock: UVAHIK_clean_linker_0, # of connection points: 2
#     Edge 31, Type (0, 1), BuildingBlock: UVAHIK_clean_linker_0, # of connection points: 2
#     Edge 32, Type (0, 1), BuildingBlock: UVAHIK_clean_linker_0, # of connection points: 2
#     Edge 33, Type (0, 1), BuildingBlock: UVAHIK_clean_linker_0, # of connection points: 2
#     Edge 34, Type (0, 1), BuildingBlock: UVAHIK_clean_linker_0, # of connection points: 2
#     Edge 35, Type (0, 1), BuildingBlock: UVAHIK_clean_linker_0, # of connection points: 2
# Relax obj value: 0.072
# Max RMSD: 0.099
# Mean RMSD: 0.090
data_MOF--net-hwx--node1-OJICUG_clean_sbu_0--node2-WUSLED_clean_sbu_0--edge1-UVAHIK_clean_linker_0
_symmetry_space_group_name_H-M    P1
_symmetry_Int_Tables_number       1
_symmetry_cell_setting            triclinic
loop_
_symmetry_equiv_pos_as_xyz
'x, y, z'
_cell_length_a     79.510696
_cell_length_b     79.494214
_cell_length_c     35.71171
_cell_angle_alpha  90.441471
_cell_angle_beta   90.412909
_cell_angle_gamma 89.99481
loop_
_atom_site_label
_atom_site_type_symbol
_atom_site_fract_x
_atom_site_fract_y
_atom_site_fract_z
_atom_type_partial_charge
Sc0 Sc 0.22668 0.22914 0.05498 0.0
Sc1 Sc 0.20009 0.20223 0.00224 0.0
Sc2 Sc 0.22772 0.22987 0.95638 0.0
O3 O 0.21816 0.22041 0.00454 0.0
C4 C 0.2251 0.26302 0.00752 0.0
C5 C 0.18724 0.22518 0.07014 0.0
C6 C 0.18875 0.22642 0.9354 0.0
C7 C 0.22302 0.18977 0.07071 0.0
C8 C 0.26068 0.22729 0.00758 0.0
C9 C 0.22421 0.19075 0.93564 0.0
O10 O 0.22486 0.25512 0.03835 0.0
O11 O 0.18476 0.21469 0.04359 0.0
O12 O 0.20318 0.23305 0.9315 0.0
O13 O 0.22941 0.20417 0.07735 0.0
O14 O 0.25331 0.22765 0.97588 0.0
O15 O 0.21329 0.18766 0.96052 0.0
O16 O 0.25275 0.22792 0.03838 0.0
O17 O 0.21227 0.18721 0.04469 0.0
O18 O 0.2304 0.20533 0.93097 0.0
O19 O 0.20166 0.23136 0.07755 0.0
O20 O 0.22624 0.25559 0.97597 0.0
O21 O 0.1858 0.2151 0.95949 0.0
Sc22 Sc 0.27387 0.72961 0.45365 0.0
Sc23 Sc 0.30052 0.70194 0.50313 0.0
Sc24 Sc 0.2729 0.7288 0.55228 0.0
O25 O 0.28244 0.72011 0.50302 0.0
C26 C 0.27561 0.76271 0.50484 0.0
C27 C 0.31328 0.72585 0.43766 0.0
C28 C 0.31192 0.72506 0.57255 0.0
C29 C 0.27745 0.69053 0.43363 0.0
C30 C 0.2399 0.72713 0.50097 0.0
C31 C 0.27643 0.68938 0.56848 0.0
O32 O 0.27573 0.7553 0.47314 0.0
O33 O 0.31578 0.71499 0.46305 0.0
O34 O 0.29745 0.7315 0.57739 0.0
O35 O 0.27108 0.70502 0.42867 0.0
O36 O 0.24726 0.72712 0.53269 0.0
O37 O 0.28736 0.6868 0.54325 0.0
O38 O 0.24784 0.72805 0.47025 0.0
O39 O 0.28828 0.68755 0.45916 0.0
O40 O 0.27015 0.70383 0.57493 0.0
O41 O 0.29887 0.73218 0.43105 0.0
O42 O 0.27452 0.75479 0.53556 0.0
O43 O 0.3149 0.71419 0.5471 0.0
Sc44 Sc 0.773 0.77473 0.94968 0.0
Sc45 Sc 0.79894 0.80183 0.00348 0.0
Sc46 Sc 0.77144 0.77372 0.04826 0.0
O47 O 0.78113 0.78343 1.00047 0.0
C48 C 0.73873 0.77597 0.99574 0.0
C49 C 0.77635 0.81427 0.93481 0.0
C50 C 0.77423 0.81267 0.06984 0.0
C51 C 0.81235 0.77909 0.93544 0.0
C52 C 0.77483 0.74078 0.99723 0.0
C53 C 0.81035 0.77781 0.07026 0.0
O54 O 0.74686 0.77636 0.96521 0.0
O55 O 0.78633 0.81707 0.96216 0.0
O56 O 0.76767 0.79818 0.07323 0.0
O57 O 0.79821 0.7722 0.92849 0.0
O58 O 0.77422 0.74815 0.02891 0.0
O59 O 0.81351 0.78869 0.04531 0.0
O60 O 0.77428 0.7487 0.96643 0.0
O61 O 0.81438 0.79006 0.96121 0.0
O62 O 0.7958 0.7715 0.07459 0.0
O63 O 0.77078 0.79967 0.92678 0.0
O64 O 0.74591 0.77482 0.02756 0.0
O65 O 0.78569 0.81578 0.04617 0.0
Sc66 Sc 0.72776 0.27496 0.55435 0.0
Sc67 Sc 0.70093 0.30254 0.50513 0.0
Sc68 Sc 0.72898 0.27622 0.45575 0.0
O69 O 0.71922 0.28458 0.50507 0.0
C70 C 0.76184 0.27789 0.50774 0.0
C71 C 0.72371 0.31396 0.57495 0.0
C72 C 0.72509 0.31561 0.44029 0.0
C73 C 0.68832 0.27819 0.57004 0.0
C74 C 0.72644 0.24209 0.50231 0.0
C75 C 0.68993 0.27971 0.43505 0.0
O76 O 0.75378 0.27705 0.53831 0.0
O77 O 0.71306 0.317 0.54912 0.0
O78 O 0.73179 0.30133 0.434 0.0
O79 O 0.70274 0.27182 0.57634 0.0
O80 O 0.7272 0.25015 0.47172 0.0
O81 O 0.68668 0.29019 0.46113 0.0
O82 O 0.72652 0.24935 0.53418 0.0
O83 O 0.68581 0.2893 0.54519 0.0
O84 O 0.70455 0.27367 0.42992 0.0
O85 O 0.73004 0.29946 0.57999 0.0
O86 O 0.75459 0.27773 0.47587 0.0
O87 O 0.71388 0.31788 0.46505 0.0
C88 C 0.23782 0.5333 0.88776 0.0
C89 C 0.23909 0.55048 0.89652 0.0
C90 C 0.24089 0.55723 0.83026 0.0
C91 C 0.24061 0.56233 0.86807 0.0
C92 C 0.23948 0.53996 0.82164 0.0
C93 C 0.23796 0.5281 0.8502 0.0
U94 U 0.23721 0.52433 0.99098 0.0
O95 O 0.2223 0.50683 0.02464 0.0
O96 O 0.24985 0.50488 0.02452 0.0
C97 C 0.23558 0.49816 0.03516 0.0
C98 C 0.23674 0.52088 0.9179 0.0
C99 C 0.23437 0.47979 0.03064 0.0
C100 C 0.22662 0.45492 0.99442 0.0
C101 C 0.2277 0.47244 0.99788 0.0
C102 C 0.2391 0.45194 0.05612 0.0
C103 C 0.23234 0.44447 0.0235 0.0
C104 C 0.24007 0.46943 0.05964 0.0
C105 C 0.24068 0.5628 0.05632 0.0
C106 C 0.24354 0.5612 0.12398 0.0
C107 C 0.24146 0.58834 0.09384 0.0
C108 C 0.24023 0.58036 0.05898 0.0
C109 C 0.24316 0.57888 0.12678 0.0
C110 C 0.24227 0.55321 0.08897 0.0
C111 C 0.23973 0.55484 0.01915 0.0
O112 O 0.25049 0.51937 0.93824 0.0
O113 O 0.22301 0.52172 0.93812 0.0
O114 O 0.22528 0.54777 0.01038 0.0
O115 O 0.2528 0.54567 0.00963 0.0
H116 H 0.2391 0.55471 0.92545 0.0
H117 H 0.24194 0.57547 0.87577 0.0
H118 H 0.23947 0.53562 0.79282 0.0
H119 H 0.23697 0.51487 0.84298 0.0
H120 H 0.22152 0.44953 0.9688 0.0
H121 H 0.22335 0.48025 0.97504 0.0
H122 H 0.24342 0.44427 0.0792 0.0
H123 H 0.24526 0.47489 0.08512 0.0
H124 H 0.24469 0.55355 0.14884 0.0
H125 H 0.24141 0.60196 0.09489 0.0
H126 H 0.23907 0.58794 0.03399 0.0
H127 H 0.2426 0.5396 0.08734 0.0
C128 C 0.97026 0.74273 0.61728 0.0
C129 C 0.96773 0.7585 0.63447 0.0
C130 C 0.9467 0.74656 0.67581 0.0
C131 C 0.95605 0.7604 0.66326 0.0
C132 C 0.94956 0.7307 0.65934 0.0
C133 C 0.96123 0.72879 0.63048 0.0
U134 U 0.97898 0.74093 0.51248 0.0
O135 O 0.99902 0.75255 0.47923 0.0
O136 O 0.996 0.72509 0.47919 0.0
C137 C 0.00521 0.73795 0.46875 0.0
C138 C 0.98217 0.74099 0.58564 0.0
C139 C 0.0235 0.73604 0.47345 0.0
C140 C 0.04793 0.72698 0.50928 0.0
C141 C 0.03048 0.72881 0.50575 0.0
C142 C 0.05157 0.73985 0.44859 0.0
C143 C 0.0587 0.73245 0.48068 0.0
C144 C 0.03415 0.74159 0.44503 0.0
C145 C 0.94125 0.74519 0.44483 0.0
C146 C 0.93254 0.76139 0.39039 0.0
C147 C 0.92495 0.73198 0.39464 0.0
C148 C 0.93324 0.73099 0.42921 0.0
C149 C 0.92434 0.74724 0.37499 0.0
C150 C 0.94085 0.76039 0.42493 0.0
C151 C 0.94889 0.74433 0.48276 0.0
O152 O 0.98101 0.72711 0.56548 0.0
O153 O 0.98429 0.75449 0.56514 0.0
O154 O 0.95829 0.75714 0.49338 0.0
O155 O 0.95518 0.72971 0.49271 0.0
H156 H 0.97462 0.76946 0.62531 0.0
H157 H 0.95408 0.77283 0.67508 0.0
H158 H 0.94281 0.71971 0.6688 0.0
H159 H 0.96304 0.7164 0.61836 0.0
H160 H 0.05296 0.72108 0.53419 0.0
H161 H 0.02245 0.72451 0.5281 0.0
H162 H 0.05945 0.7445 0.42634 0.0
H163 H 0.02897 0.74731 0.42002 0.0
H164 H 0.93209 0.7734 0.37634 0.0
H165 H 0.91893 0.72079 0.3834 0.0
H166 H 0.93315 0.71914 0.44398 0.0
H167 H 0.94668 0.77165 0.43631 0.0
C168 C 0.76218 0.47254 0.12174 0.0
C169 C 0.74642 0.47012 0.13847 0.0
C170 C 0.75832 0.44918 0.18051 0.0
C171 C 0.74449 0.45854 0.1674 0.0
C172 C 0.77418 0.45198 0.16458 0.0
C173 C 0.77611 0.46354 0.13562 0.0
U174 U 0.76435 0.48006 0.01676 0.0
O175 O 0.75299 0.4995 0.98127 0.0
O176 O 0.78046 0.49676 0.98363 0.0
C177 C 0.76765 0.50577 0.97178 0.0
C178 C 0.76393 0.48417 0.08969 0.0
C179 C 0.76945 0.52407 0.97643 0.0
C180 C 0.76544 0.54974 0.01264 0.0
C181 C 0.764 0.53226 0.00912 0.0
C182 C 0.77815 0.55096 0.95125 0.0
C183 C 0.77248 0.55929 0.98367 0.0
C184 C 0.77661 0.5335 0.94766 0.0
C185 C 0.76049 0.44142 0.95247 0.0
C186 C 0.75803 0.44302 0.88474 0.0
C187 C 0.75956 0.41587 0.91502 0.0
C188 C 0.76072 0.42385 0.94989 0.0
C189 C 0.75814 0.42534 0.88201 0.0
C190 C 0.75923 0.45101 0.91974 0.0
C191 C 0.76121 0.44944 0.98959 0.0
O192 O 0.7779 0.48292 0.07033 0.0
O193 O 0.7505 0.48597 0.06835 0.0
O194 O 0.74832 0.45907 0.99803 0.0
O195 O 0.77577 0.45607 0.99919 0.0
H196 H 0.73547 0.47697 0.12876 0.0
H197 H 0.73207 0.45662 0.17883 0.0
H198 H 0.78515 0.44523 0.17451 0.0
H199 H 0.7885 0.46527 0.12387 0.0
H200 H 0.76115 0.55578 0.03814 0.0
H201 H 0.75857 0.52516 0.0318 0.0
H202 H 0.78348 0.55797 0.92831 0.0
H203 H 0.78089 0.52737 0.92226 0.0
H204 H 0.7571 0.45066 0.85983 0.0
H205 H 0.75941 0.40225 0.91399 0.0
H206 H 0.76161 0.41629 0.97494 0.0
H207 H 0.75908 0.46463 0.92131 0.0
C208 C 0.03023 0.2633 0.38942 0.0
C209 C 0.03084 0.24836 0.3682 0.0
C210 C 0.05372 0.25954 0.33075 0.0
C211 C 0.04249 0.24646 0.33932 0.0
C212 C 0.05274 0.27468 0.35126 0.0
C213 C 0.04115 0.27654 0.38027 0.0
U214 U 0.02259 0.26503 0.49438 0.0
O215 O 0.00544 0.28029 0.52863 0.0
O216 O 0.0034 0.25274 0.5289 0.0
C217 C 0.99676 0.26714 0.53948 0.0
C218 C 0.01853 0.26466 0.42145 0.0
C219 C 0.97839 0.26839 0.53514 0.0
C220 C 0.95356 0.2763 0.49928 0.0
C221 C 0.97107 0.27514 0.50267 0.0
C222 C 0.95054 0.26373 0.56047 0.0
C223 C 0.94311 0.27058 0.52815 0.0
C224 C 0.96803 0.26268 0.56393 0.0
C225 C 0.06134 0.26227 0.55853 0.0
C226 C 0.05984 0.25996 0.62622 0.0
C227 C 0.08693 0.26175 0.59584 0.0
C228 C 0.0789 0.26273 0.56103 0.0
C229 C 0.07751 0.26029 0.62886 0.0
C230 C 0.0518 0.26097 0.59129 0.0
C231 C 0.05328 0.26283 0.52146 0.0
O232 O 0.01723 0.25112 0.44214 0.0
O233 O 0.01926 0.27863 0.44142 0.0
O234 O 0.04617 0.27719 0.51256 0.0
O235 O 0.04409 0.24966 0.51242 0.0
H236 H 0.02252 0.23798 0.37444 0.0
H237 H 0.04298 0.23457 0.3244 0.0
H238 H 0.06096 0.28513 0.34496 0.0
H239 H 0.04093 0.28831 0.39573 0.0
H240 H 0.9482 0.28147 0.47389 0.0
H241 H 0.97888 0.27949 0.47997 0.0
H242 H 0.94284 0.25938 0.58334 0.0
H243 H 0.97347 0.25743 0.58917 0.0
H244 H 0.05223 0.259 0.65115 0.0
H245 H 0.10055 0.26177 0.59678 0.0
H246 H 0.08644 0.26366 0.53596 0.0
H247 H 0.03819 0.26064 0.58978 0.0
C248 C 0.73737 0.97165 0.61724 0.0
C249 C 0.72653 0.95771 0.61846 0.0
C250 C 0.74068 0.94756 0.67472 0.0
C251 C 0.72811 0.94586 0.64699 0.0
C252 C 0.75134 0.96169 0.6737 0.0
C253 C 0.74965 0.97362 0.64534 0.0
U254 U 0.73721 0.98071 0.51302 0.0
O255 O 0.7228 0.99864 0.47901 0.0
O256 O 0.75038 1.00015 0.48086 0.0
C257 C 0.73628 0.00718 0.4696 0.0
C258 C 0.73662 0.98379 0.58612 0.0
C259 C 0.73531 0.02552 0.47467 0.0
C260 C 0.72714 0.05024 0.51066 0.0
C261 C 0.7281 0.03274 0.50678 0.0
C262 C 0.74083 0.05346 0.45073 0.0
C263 C 0.7335 0.0608 0.48265 0.0
C264 C 0.74169 0.03599 0.44678 0.0
C265 C 0.74042 0.94293 0.44513 0.0
C266 C 0.72709 0.92787 0.39319 0.0
C267 C 0.75706 0.93315 0.39225 0.0
C268 C 0.75596 0.94139 0.42686 0.0
C269 C 0.74266 0.92616 0.37514 0.0
C270 C 0.72599 0.9361 0.42783 0.0
C271 C 0.73937 0.95053 0.4831 0.0
O272 O 0.75049 0.98506 0.56654 0.0
O273 O 0.72292 0.9835 0.5652 0.0
O274 O 0.72499 0.95759 0.49213 0.0
O275 O 0.75252 0.9592 0.49473 0.0
H276 H 0.71695 0.9558 0.59714 0.0
H277 H 0.71948 0.93532 0.64721 0.0
H278 H 0.76131 0.96333 0.6942 0.0
H279 H 0.7582 0.98423 0.64489 0.0
H280 H 0.72158 0.05553 0.53574 0.0
H281 H 0.72322 0.02484 0.52878 0.0
H282 H 0.74568 0.06124 0.4285 0.0
H283 H 0.74729 0.03063 0.42182 0.0
H284 H 0.71573 0.92277 0.38062 0.0
H285 H 0.7693 0.93181 0.37946 0.0
H286 H 0.76739 0.94626 0.43958 0.0
H287 H 0.71385 0.9369 0.44133 0.0
C288 C 0.53202 0.23908 0.88855 0.0
C289 C 0.54909 0.24109 0.89774 0.0
C290 C 0.55612 0.24269 0.8316 0.0
C291 C 0.56103 0.24287 0.86954 0.0
C292 C 0.53897 0.24062 0.82257 0.0
C293 C 0.52702 0.23882 0.85086 0.0
U294 U 0.5221 0.23807 0.99155 0.0
O295 O 0.50171 0.2495 0.02417 0.0
O296 O 0.50494 0.22206 0.02382 0.0
C297 C 0.49554 0.23486 0.0341 0.0
C298 C 0.51949 0.23744 0.91831 0.0
C299 C 0.47732 0.23272 0.02849 0.0
C300 C 0.45183 0.23662 0.99161 0.0
C301 C 0.46929 0.23817 0.99563 0.0
C302 C 0.45036 0.22374 0.05279 0.0
C303 C 0.44217 0.22947 0.02026 0.0
C304 C 0.46777 0.22539 0.05686 0.0
C305 C 0.55926 0.24357 0.06062 0.0
C306 C 0.57405 0.23078 0.11315 0.0
C307 C 0.56896 0.2608 0.11319 0.0
C308 C 0.56084 0.25933 0.07848 0.0
C309 C 0.57581 0.24657 0.13076 0.0
C310 C 0.56592 0.22931 0.07843 0.0
C311 C 0.55189 0.2422 0.02246 0.0
O312 O 0.52086 0.22378 0.9386 0.0
O313 O 0.51712 0.25111 0.93853 0.0
O314 O 0.54235 0.25477 0.01144 0.0
O315 O 0.5459 0.22741 0.01238 0.0
H316 H 0.55314 0.24138 0.92677 0.0
H317 H 0.57407 0.24469 0.87751 0.0
H318 H 0.5348 0.24025 0.79364 0.0
H319 H 0.51389 0.23725 0.84333 0.0
H320 H 0.44591 0.24096 0.96605 0.0
H321 H 0.47648 0.24375 0.97326 0.0
H322 H 0.44325 0.21835 0.07551 0.0
H323 H 0.47378 0.22112 0.08242 0.0
H324 H 0.57906 0.21955 0.1261 0.0
H325 H 0.57034 0.27319 0.12567 0.0
H326 H 0.55612 0.27063 0.06531 0.0
H327 H 0.56511 0.21701 0.06529 0.0
C328 C 0.26058 0.03329 0.39164 0.0
C329 C 0.25949 0.05043 0.40088 0.0
C330 C 0.25675 0.05751 0.3349 0.0
C331 C 0.2576 0.06242 0.37281 0.0
C332 C 0.2578 0.04028 0.32579 0.0
C333 C 0.25972 0.02826 0.35399 0.0
U334 U 0.26351 0.02392 0.49452 0.0
O335 O 0.25244 0.00398 0.52873 0.0
O336 O 0.27988 0.00677 0.52638 0.0
C337 C 0.26717 0.99761 0.53776 0.0
C338 C 0.2625 0.02076 0.42139 0.0
C339 C 0.26895 0.97935 0.53214 0.0
C340 C 0.26484 0.95403 0.49459 0.0
C341 C 0.26336 0.97147 0.49901 0.0
C342 C 0.27786 0.95222 0.55599 0.0
C343 C 0.27208 0.9442 0.52309 0.0
C344 C 0.27628 0.96964 0.56046 0.0
C345 C 0.26033 0.06227 0.56051 0.0
C346 C 0.25823 0.06083 0.62826 0.0
C347 C 0.25996 0.0879 0.59778 0.0
C348 C 0.26082 0.07984 0.56299 0.0
C349 C 0.25859 0.07851 0.63086 0.0
C350 C 0.25913 0.05276 0.59331 0.0
C351 C 0.26071 0.05427 0.52336 0.0
O352 O 0.27662 0.02184 0.44065 0.0
O353 O 0.24923 0.01884 0.44266 0.0
O354 O 0.24773 0.04471 0.51485 0.0
O355 O 0.27516 0.04766 0.51341 0.0
H356 H 0.26005 0.05452 0.42988 0.0
H357 H 0.25656 0.07554 0.38086 0.0
H358 H 0.25734 0.03609 0.29687 0.0
H359 H 0.26055 0.01506 0.3464 0.0
H360 H 0.26045 0.94825 0.46875 0.0
H361 H 0.25779 0.9788 0.47667 0.0
H362 H 0.28332 0.945 0.57862 0.0
H363 H 0.28067 0.97551 0.58621 0.0
H364 H 0.25733 0.05324 0.65322 0.0
H365 H 0.25998 0.10152 0.59866 0.0
H366 H 0.26168 0.08737 0.53789 0.0
H367 H 0.25877 0.03914 0.59184 0.0
C368 C 0.47044 0.76309 0.11954 0.0
C369 C 0.46963 0.74819 0.14034 0.0
C370 C 0.44689 0.75969 0.17809 0.0
C371 C 0.45796 0.74647 0.16915 0.0
C372 C 0.44807 0.7748 0.15803 0.0
C373 C 0.45969 0.77649 0.1291 0.0
U374 U 0.47795 0.76423 0.0146 0.0
O375 O 0.49506 0.77926 0.98026 0.0
O376 O 0.49701 0.7517 0.97972 0.0
C377 C 0.50363 0.76602 0.96904 0.0
C378 C 0.48213 0.76426 0.08749 0.0
C379 C 0.52201 0.76724 0.97276 0.0
C380 C 0.54714 0.77477 0.00827 0.0
C381 C 0.5296 0.77363 0.00551 0.0
C382 C 0.54964 0.7629 0.94584 0.0
C383 C 0.55735 0.76939 0.97846 0.0
C384 C 0.53213 0.76187 0.94304 0.0
C385 C 0.43918 0.76117 0.95068 0.0
C386 C 0.44075 0.75862 0.88296 0.0
C387 C 0.41362 0.76039 0.91325 0.0
C388 C 0.42161 0.76152 0.94812 0.0
C389 C 0.42308 0.75887 0.88024 0.0
C390 C 0.44875 0.75979 0.91795 0.0
C391 C 0.44721 0.76193 0.98777 0.0
O392 O 0.48341 0.7506 0.06669 0.0
O393 O 0.4814 0.77812 0.06762 0.0
O394 O 0.45435 0.77633 0.99673 0.0
O395 O 0.45639 0.74879 0.99672 0.0
H396 H 0.47783 0.73769 0.13381 0.0
H397 H 0.45732 0.73459 0.18372 0.0
H398 H 0.43997 0.78535 0.16463 0.0
H399 H 0.46006 0.78823 0.11397 0.0
H400 H 0.55271 0.77965 0.03389 0.0
H401 H 0.52198 0.77772 0.0289 0.0
H402 H 0.55714 0.75883 0.92225 0.0
H403 H 0.52647 0.75691 0.91756 0.0
H404 H 0.44839 0.75762 0.85805 0.0
H405 H 0.4 0.76035 0.91224 0.0
H406 H 0.41405 0.76251 0.97317 0.0
H407 H 0.46236 0.75954 0.91951 0.0
C408 C 0.17519 0.24061 0.12548 0.0
C409 C 0.17281 0.23003 0.09411 0.0
C410 C 0.16175 0.24459 0.14897 0.0
C411 C 0.11983 0.22923 0.17689 0.0
H412 H 0.1156 0.27373 0.22107 0.0
C413 C 0.06303 0.24829 0.26808 0.0
C414 C 0.06672 0.2572 0.30134 0.0
C415 C 0.07545 0.2456 0.24116 0.0
C416 C 0.11669 0.26121 0.20916 0.0
H417 H 0.15422 0.21569 0.06251 0.0
H418 H 0.13079 0.22283 0.1032 0.0
H419 H 0.13816 0.26801 0.17679 0.0
H420 H 0.08648 0.27017 0.33227 0.0
H421 H 0.10804 0.26562 0.28519 0.0
H422 H 0.09839 0.22242 0.20937 0.0
C423 C 0.14313 0.22781 0.10998 0.0
C424 C 0.12962 0.25792 0.18381 0.0
C425 C 0.15657 0.22379 0.0865 0.0
C426 C 0.08309 0.26352 0.30674 0.0
C427 C 0.09548 0.26089 0.27976 0.0
C428 C 0.10687 0.23253 0.20214 0.0
C429 C 0.14558 0.23814 0.14168 0.0
C430 C 0.13144 0.24185 0.16756 0.0
C431 C 0.09184 0.25181 0.24677 0.0
C432 C 0.10522 0.24852 0.21877 0.0
H433 H 0.18751 0.24564 0.13231 0.0
H434 H 0.16415 0.25242 0.17339 0.0
H435 H 0.121 0.21664 0.1654 0.0
H436 H 0.0505 0.24347 0.26271 0.0
H437 H 0.07219 0.23875 0.2158 0.0
C438 C 0.27828 0.65895 0.58665 0.0
C439 C 0.27124 0.67502 0.59217 0.0
C440 C 0.27407 0.64562 0.61011 0.0
C441 C 0.24242 0.63138 0.67856 0.0
H442 H 0.27867 0.60284 0.71388 0.0
C443 C 0.23486 0.58555 0.80228 0.0
C444 C 0.24303 0.56988 0.80016 0.0
C445 C 0.23753 0.59778 0.77502 0.0
C446 C 0.26835 0.61052 0.70388 0.0
H447 H 0.25394 0.68948 0.62644 0.0
H448 H 0.24673 0.66626 0.66745 0.0
H449 H 0.28465 0.62522 0.66975 0.0
H450 H 0.26028 0.55474 0.76733 0.0
H451 H 0.26467 0.57594 0.71938 0.0
H452 H 0.22614 0.61673 0.71297 0.0
C453 C 0.2554 0.66395 0.64473 0.0
C454 C 0.27178 0.62337 0.67857 0.0
C455 C 0.25961 0.6773 0.62129 0.0
C456 C 0.25367 0.56662 0.76968 0.0
C457 C 0.25635 0.57885 0.74242 0.0
C458 C 0.23898 0.6185 0.70387 0.0
C459 C 0.26271 0.64799 0.63966 0.0
C460 C 0.25888 0.63401 0.66572 0.0
C461 C 0.24843 0.59464 0.74494 0.0
C462 C 0.25192 0.60797 0.71698 0.0
H463 H 0.2872 0.65666 0.56442 0.0
H464 H 0.27973 0.63343 0.60507 0.0
H465 H 0.23215 0.6392 0.66882 0.0
H466 H 0.22642 0.58841 0.82513 0.0
H467 H 0.23134 0.60984 0.77805 0.0
C468 C 0.82079 0.76112 0.12507 0.0
C469 C 0.82399 0.77276 0.0965 0.0
C470 C 0.83323 0.75716 0.15138 0.0
C471 C 0.8717 0.77447 0.1947 0.0
H472 H 0.87611 0.72945 0.23471 0.0
C473 C 0.92056 0.75833 0.30961 0.0
C474 C 0.91458 0.74861 0.33944 0.0
C475 C 0.91091 0.76031 0.27703 0.0
C476 C 0.87497 0.74211 0.22394 0.0
H477 H 0.84306 0.78893 0.07265 0.0
H478 H 0.8648 0.78186 0.11842 0.0
H479 H 0.85685 0.73454 0.18253 0.0
H480 H 0.89372 0.73331 0.35823 0.0
H481 H 0.87698 0.73668 0.30147 0.0
H482 H 0.88963 0.78208 0.23648 0.0
C483 C 0.85255 0.77601 0.12072 0.0
C484 C 0.86393 0.74502 0.19405 0.0
C485 C 0.8401 0.77998 0.09435 0.0
C486 C 0.89886 0.74065 0.33559 0.0
C487 C 0.88924 0.74259 0.30302 0.0
C488 C 0.88276 0.77154 0.22454 0.0
C489 C 0.8492 0.76469 0.14981 0.0
C490 C 0.86197 0.76129 0.17944 0.0
C491 C 0.89508 0.75256 0.2735 0.0
C492 C 0.88434 0.75538 0.23988 0.0
H493 H 0.80855 0.75529 0.12768 0.0
H494 H 0.83013 0.74856 0.17367 0.0
H495 H 0.87033 0.78719 0.18449 0.0
H496 H 0.93273 0.76443 0.31141 0.0
H497 H 0.91586 0.76789 0.25458 0.0
C498 C 0.74156 0.32523 0.62762 0.0
C499 C 0.72868 0.32774 0.60105 0.0
C500 C 0.74573 0.33783 0.65351 0.0
C501 C 0.72771 0.37448 0.70149 0.0
H502 H 0.77394 0.38258 0.73189 0.0
C503 C 0.74463 0.4223 0.81842 0.0
C504 C 0.75638 0.41668 0.84515 0.0
C505 C 0.74212 0.41336 0.78495 0.0
C506 C 0.76096 0.38041 0.72385 0.0
H507 H 0.71034 0.34574 0.58044 0.0
H508 H 0.71766 0.36775 0.62576 0.0
H509 H 0.76793 0.36341 0.67981 0.0
H510 H 0.77522 0.39767 0.85691 0.0
H511 H 0.77061 0.38191 0.79907 0.0
H512 H 0.72069 0.3911 0.74611 0.0
C513 C 0.72443 0.35593 0.62663 0.0
C514 C 0.75752 0.36944 0.69399 0.0
C515 C 0.7203 0.34334 0.60055 0.0
C516 C 0.76591 0.40222 0.83713 0.0
C517 C 0.76341 0.3933 0.80373 0.0
C518 C 0.73114 0.38542 0.73141 0.0
C519 C 0.73709 0.35326 0.6536 0.0
C520 C 0.74084 0.36612 0.6829 0.0
C521 C 0.75132 0.39861 0.77744 0.0
C522 C 0.74779 0.38829 0.74337 0.0
H523 H 0.74833 0.31342 0.62883 0.0
H524 H 0.75541 0.33529 0.6742 0.0
H525 H 0.71471 0.37204 0.69392 0.0
H526 H 0.73701 0.43333 0.82383 0.0
H527 H 0.73284 0.4179 0.76512 0.0
C528 C 0.67923 0.26251 0.38071 0.0
C529 C 0.67628 0.27472 0.40864 0.0
C530 C 0.66675 0.25843 0.35446 0.0
C531 C 0.62914 0.27604 0.30918 0.0
H532 H 0.62274 0.23025 0.27367 0.0
C533 C 0.58001 0.25938 0.19481 0.0
C534 C 0.58546 0.24835 0.16641 0.0
C535 C 0.58964 0.26174 0.22736 0.0
C536 C 0.62445 0.24312 0.28313 0.0
H537 H 0.65764 0.29189 0.43129 0.0
H538 H 0.63585 0.2847 0.38545 0.0
H539 H 0.64215 0.23587 0.3255 0.0
H540 H 0.60531 0.23112 0.15009 0.0
H541 H 0.62206 0.23524 0.2067 0.0
H542 H 0.61172 0.28335 0.26635 0.0
C543 C 0.64791 0.27842 0.38373 0.0
C544 C 0.63556 0.24634 0.31284 0.0
C545 C 0.66039 0.28247 0.41012 0.0
C546 C 0.60059 0.2395 0.17165 0.0
C547 C 0.61021 0.24186 0.20415 0.0
C548 C 0.61804 0.27283 0.27944 0.0
C549 C 0.65101 0.26647 0.35538 0.0
C550 C 0.63821 0.26286 0.32586 0.0
C551 C 0.60494 0.25313 0.23225 0.0
C552 C 0.61574 0.25636 0.26571 0.0
H553 H 0.69128 0.25624 0.37869 0.0
H554 H 0.66962 0.24932 0.33274 0.0
H555 H 0.63106 0.28895 0.3182 0.0
H556 H 0.56829 0.26621 0.19188 0.0
H557 H 0.5851 0.27033 0.2487 0.0
C558 C 0.24233 0.17962 0.88377 0.0
C559 C 0.2295 0.17697 0.90999 0.0
C560 C 0.24662 0.16704 0.85801 0.0
C561 C 0.22878 0.13015 0.80982 0.0
H562 H 0.27495 0.12231 0.78013 0.0
C563 C 0.24542 0.08183 0.69435 0.0
C564 C 0.25707 0.0873 0.66762 0.0
C565 C 0.24303 0.09096 0.72755 0.0
C566 C 0.26198 0.12441 0.78796 0.0
H567 H 0.21144 0.15874 0.9302 0.0
H568 H 0.21897 0.1368 0.88521 0.0
H569 H 0.26899 0.14166 0.83172 0.0
H570 H 0.27594 0.10618 0.65572 0.0
H571 H 0.27154 0.12227 0.71304 0.0
H572 H 0.22171 0.11329 0.7655 0.0
C573 C 0.2256 0.1487 0.88445 0.0
C574 C 0.25858 0.13549 0.81753 0.0
C575 C 0.22135 0.16126 0.91036 0.0
C576 C 0.26669 0.10176 0.67546 0.0
C577 C 0.26431 0.11087 0.70859 0.0
C578 C 0.23218 0.11911 0.78018 0.0
C579 C 0.23816 0.15152 0.85772 0.0
C580 C 0.24192 0.13868 0.82844 0.0
C581 C 0.25227 0.10574 0.73481 0.0
C582 C 0.24881 0.1163 0.76849 0.0
H583 H 0.24893 0.19152 0.88266 0.0
H584 H 0.25623 0.16969 0.83754 0.0
H585 H 0.2158 0.1325 0.8172 0.0
H586 H 0.23773 0.07081 0.68909 0.0
H587 H 0.23381 0.08654 0.74735 0.0
C588 C 0.32527 0.74159 0.38316 0.0
C589 C 0.32768 0.7309 0.41395 0.0
C590 C 0.33867 0.7456 0.35971 0.0
C591 C 0.38043 0.72998 0.33065 0.0
H592 H 0.38494 0.77446 0.28807 0.0
C593 C 0.43741 0.74861 0.24039 0.0
C594 C 0.43385 0.75753 0.20741 0.0
C595 C 0.42494 0.74605 0.26716 0.0
C596 C 0.38378 0.76195 0.29954 0.0
H597 H 0.34632 0.71645 0.44469 0.0
H598 H 0.36966 0.72363 0.40415 0.0
H599 H 0.36236 0.76889 0.33222 0.0
H600 H 0.41424 0.77072 0.17685 0.0
H601 H 0.39259 0.76639 0.22368 0.0
H602 H 0.40181 0.72304 0.29789 0.0
C603 C 0.35733 0.72867 0.39772 0.0
C604 C 0.37083 0.75874 0.32481 0.0
C605 C 0.34393 0.72463 0.42113 0.0
C606 C 0.41755 0.76404 0.20217 0.0
C607 C 0.4051 0.76154 0.22901 0.0
C608 C 0.3934 0.73321 0.3055 0.0
C609 C 0.35484 0.73906 0.36648 0.0
C610 C 0.36893 0.74269 0.34053 0.0
C611 C 0.40862 0.75241 0.26169 0.0
C612 C 0.39517 0.74919 0.28947 0.0
H613 H 0.31295 0.74665 0.37669 0.0
H614 H 0.33625 0.75349 0.33567 0.0
H615 H 0.37919 0.7174 0.34169 0.0
H616 H 0.44989 0.74365 0.24565 0.0
H617 H 0.42811 0.73916 0.2923 0.0
C618 C 0.77478 0.84524 0.92148 0.0
C619 C 0.7713 0.82855 0.91066 0.0
C620 C 0.77043 0.85863 0.89813 0.0
C621 C 0.74382 0.86949 0.81547 0.0
H622 H 0.77497 0.90676 0.80664 0.0
C623 C 0.74085 0.91728 0.69472 0.0
C624 C 0.743 0.93441 0.70384 0.0
C625 C 0.7434 0.90487 0.72167 0.0
C626 C 0.76605 0.89653 0.80913 0.0
H627 H 0.76045 0.8129 0.86665 0.0
H628 H 0.75328 0.83612 0.82569 0.0
H629 H 0.78113 0.88416 0.8504 0.0
H630 H 0.74921 0.95183 0.74897 0.0
H631 H 0.75401 0.93009 0.79576 0.0
H632 H 0.72901 0.88172 0.77335 0.0
C633 C 0.75902 0.83895 0.85259 0.0
C634 C 0.76955 0.88358 0.83429 0.0
C635 C 0.76324 0.82559 0.87605 0.0
C636 C 0.74771 0.93878 0.74072 0.0
C637 C 0.75041 0.92633 0.7676 0.0
C638 C 0.74041 0.88237 0.79009 0.0
C639 C 0.76261 0.85565 0.86323 0.0
C640 C 0.75853 0.86982 0.83761 0.0
C641 C 0.74831 0.90925 0.75832 0.0
C642 C 0.75155 0.89597 0.78647 0.0
H643 H 0.78086 0.84801 0.94806 0.0
H644 H 0.77314 0.87133 0.90755 0.0
H645 H 0.73487 0.85929 0.81778 0.0
H646 H 0.73757 0.91338 0.66648 0.0
H647 H 0.74192 0.8918 0.71355 0.0
C648 C 0.84271 0.78221 0.91759 0.0
C649 C 0.82697 0.7745 0.91177 0.0
C650 C 0.85627 0.77846 0.89424 0.0
C651 C 0.87183 0.747 0.82559 0.0
H652 H 0.89938 0.78399 0.79134 0.0
C653 C 0.91817 0.74042 0.70238 0.0
C654 C 0.93373 0.74876 0.70531 0.0
C655 C 0.90573 0.74295 0.7293 0.0
C656 C 0.89196 0.77348 0.80103 0.0
H657 H 0.81333 0.7565 0.87704 0.0
H658 H 0.83691 0.7501 0.83624 0.0
H659 H 0.87668 0.78944 0.83526 0.0
H660 H 0.94854 0.76595 0.73959 0.0
H661 H 0.92681 0.77041 0.78648 0.0
H662 H 0.88703 0.73108 0.79101 0.0
C663 C 0.83881 0.75894 0.85911 0.0
C664 C 0.87894 0.7766 0.82623 0.0
C665 C 0.82524 0.7627 0.88242 0.0
C666 C 0.93661 0.75953 0.73612 0.0
C667 C 0.92415 0.76209 0.76302 0.0
C668 C 0.88485 0.74388 0.80036 0.0
C669 C 0.85445 0.76688 0.86453 0.0
C670 C 0.86866 0.76342 0.83868 0.0
C671 C 0.90852 0.75391 0.7598 0.0
C672 C 0.89502 0.7571 0.78762 0.0
H673 H 0.84457 0.7913 0.93998 0.0
H674 H 0.86821 0.78462 0.89953 0.0
H675 H 0.86431 0.73652 0.83505 0.0
H676 H 0.91542 0.73224 0.67873 0.0
H677 H 0.89374 0.73665 0.72566 0.0
C678 C 0.72263 0.34601 0.42232 0.0
C679 C 0.73006 0.33012 0.41683 0.0
C680 C 0.72654 0.35944 0.39891 0.0
C681 C 0.75785 0.37444 0.33049 0.0
H682 H 0.72092 0.40214 0.2953 0.0
C683 C 0.76436 0.42065 0.20725 0.0
C684 C 0.75609 0.43624 0.20996 0.0
C685 C 0.76184 0.40823 0.23413 0.0
C686 C 0.73142 0.39468 0.30525 0.0
H687 H 0.74778 0.3161 0.38272 0.0
H688 H 0.75447 0.3395 0.34176 0.0
H689 H 0.71548 0.37957 0.33933 0.0
H690 H 0.73902 0.45115 0.24375 0.0
H691 H 0.73458 0.42947 0.29063 0.0
H692 H 0.77376 0.38948 0.29607 0.0
C693 C 0.74571 0.34159 0.36443 0.0
C694 C 0.7283 0.38174 0.33051 0.0
C695 C 0.7418 0.32813 0.38783 0.0
C696 C 0.74538 0.43919 0.24049 0.0
C697 C 0.74284 0.42676 0.26736 0.0
C698 C 0.76097 0.3874 0.3052 0.0
C699 C 0.73798 0.35735 0.36942 0.0
C700 C 0.74146 0.37141 0.34334 0.0
C701 C 0.75096 0.41109 0.26438 0.0
C702 C 0.74778 0.39763 0.29216 0.0
H703 H 0.7136 0.34807 0.44445 0.0
H704 H 0.72056 0.37148 0.4039 0.0
H705 H 0.76831 0.36687 0.34022 0.0
H706 H 0.77249 0.41785 0.1838 0.0
H707 H 0.76808 0.39622 0.23067 0.0
C708 C 0.15939 0.22326 0.90955 0.0
C709 C 0.17498 0.23165 0.90968 0.0
C710 C 0.14688 0.22744 0.88349 0.0
C711 C 0.13356 0.26046 0.81676 0.0
H712 H 0.11212 0.22342 0.76372 0.0
C713 C 0.10062 0.26838 0.67378 0.0
C714 C 0.08623 0.25871 0.66565 0.0
C715 C 0.1096 0.26602 0.70709 0.0
C716 C 0.11774 0.23394 0.77867 0.0
H717 H 0.18934 0.25143 0.88312 0.0
H718 H 0.16761 0.2586 0.83772 0.0
H719 H 0.13111 0.21764 0.81587 0.0
H720 H 0.06975 0.23926 0.6867 0.0
H721 H 0.08527 0.23536 0.74522 0.0
H722 H 0.12042 0.27675 0.77911 0.0
C723 C 0.16501 0.24887 0.85793 0.0
C724 C 0.12864 0.23061 0.80858 0.0
C725 C 0.17753 0.24466 0.88385 0.0
C726 C 0.08073 0.24699 0.69219 0.0
C727 C 0.08973 0.24462 0.72554 0.0
C728 C 0.12263 0.26379 0.78689 0.0
C729 C 0.14963 0.24016 0.8571 0.0
C730 C 0.1369 0.24382 0.82758 0.0
C731 C 0.10441 0.25395 0.73315 0.0
C732 C 0.1148 0.25055 0.76707 0.0
H733 H 0.15694 0.21321 0.92909 0.0
H734 H 0.13509 0.22063 0.88385 0.0
H735 H 0.13952 0.27093 0.83123 0.0
H736 H 0.10507 0.27767 0.65417 0.0
H737 H 0.12094 0.27331 0.71182 0.0
C738 C 0.28086 0.66115 0.40803 0.0
C739 C 0.27241 0.67671 0.40768 0.0
C740 C 0.27673 0.64856 0.38195 0.0
C741 C 0.24363 0.63492 0.31472 0.0
H742 H 0.28054 0.61351 0.26238 0.0
C743 C 0.23521 0.6019 0.17179 0.0
C744 C 0.2449 0.58756 0.16365 0.0
C745 C 0.23769 0.61087 0.20514 0.0
C746 C 0.27006 0.61911 0.27714 0.0
H747 H 0.25262 0.69095 0.38019 0.0
H748 H 0.24553 0.66908 0.33482 0.0
H749 H 0.28645 0.6326 0.31452 0.0
H750 H 0.26453 0.57115 0.18477 0.0
H751 H 0.26866 0.58666 0.24341 0.0
H752 H 0.22725 0.62165 0.27695 0.0
C753 C 0.25527 0.66657 0.35539 0.0
C754 C 0.27346 0.63008 0.30704 0.0
C755 C 0.25944 0.67917 0.38129 0.0
C756 C 0.25678 0.58209 0.19026 0.0
C757 C 0.25928 0.59108 0.22368 0.0
C758 C 0.24023 0.62391 0.2849 0.0
C759 C 0.264 0.65119 0.35511 0.0
C760 C 0.2603 0.63834 0.32574 0.0
C761 C 0.24992 0.60572 0.23128 0.0
C762 C 0.25342 0.61611 0.26529 0.0
H763 H 0.29088 0.65879 0.42799 0.0
H764 H 0.28357 0.63678 0.38268 0.0
H765 H 0.2332 0.64087 0.32897 0.0
H766 H 0.22579 0.60632 0.15213 0.0
H767 H 0.23037 0.62217 0.20985 0.0
C768 C 0.34128 0.72164 0.59817 0.0
C769 C 0.32572 0.73008 0.59856 0.0
C770 C 0.35384 0.72574 0.62432 0.0
C771 C 0.36736 0.75874 0.69198 0.0
H772 H 0.38872 0.72173 0.74402 0.0
C773 C 0.40002 0.76681 0.83537 0.0
C774 C 0.41441 0.75718 0.84338 0.0
C775 C 0.39111 0.76439 0.80192 0.0
C776 C 0.38313 0.73223 0.72935 0.0
H777 H 0.31144 0.74983 0.62616 0.0
H778 H 0.33326 0.75686 0.67165 0.0
H779 H 0.36974 0.71591 0.69165 0.0
H780 H 0.43095 0.73771 0.822 0.0
H781 H 0.41555 0.73369 0.76322 0.0
H782 H 0.38051 0.77505 0.73011 0.0
C783 C 0.3358 0.74715 0.651 0.0
C784 C 0.37223 0.72889 0.69932 0.0
C785 C 0.32323 0.74302 0.62504 0.0
C786 C 0.41998 0.74541 0.8166 0.0
C787 C 0.41105 0.74298 0.7831 0.0
C788 C 0.37829 0.76209 0.72195 0.0
C789 C 0.35118 0.73843 0.65126 0.0
C790 C 0.36398 0.74209 0.68073 0.0
C791 C 0.39638 0.75229 0.77559 0.0
C792 C 0.38606 0.74886 0.74145 0.0
H793 H 0.34367 0.71164 0.57814 0.0
H794 H 0.36562 0.71891 0.62356 0.0
H795 H 0.36142 0.7692 0.67782 0.0
H796 H 0.39553 0.77614 0.85517 0.0
H797 H 0.37978 0.77167 0.79726 0.0
C798 C 0.75657 0.82326 0.12307 0.0
C799 C 0.76891 0.82628 0.0959 0.0
C800 C 0.75248 0.83562 0.14952 0.0
C801 C 0.77054 0.87285 0.19648 0.0
H802 H 0.725 0.87929 0.232 0.0
C803 C 0.7548 0.92195 0.31087 0.0
C804 C 0.74406 0.9165 0.33946 0.0
C805 C 0.75686 0.91231 0.2783 0.0
C806 C 0.7378 0.87756 0.22252 0.0
H807 H 0.78619 0.84501 0.07457 0.0
H808 H 0.77895 0.86657 0.12055 0.0
H809 H 0.73023 0.86006 0.17974 0.0
H810 H 0.72698 0.89666 0.35599 0.0
H811 H 0.73054 0.8799 0.29925 0.0
H812 H 0.77817 0.8901 0.23961 0.0
C813 C 0.77261 0.85453 0.12167 0.0
C814 C 0.7408 0.86655 0.19258 0.0
C815 C 0.77669 0.84218 0.09517 0.0
C816 C 0.73515 0.90137 0.33431 0.0
C817 C 0.73719 0.89175 0.30175 0.0
C818 C 0.76755 0.88385 0.22639 0.0
C819 C 0.76064 0.85131 0.14949 0.0
C820 C 0.75723 0.86391 0.17949 0.0
C821 C 0.74821 0.89701 0.27353 0.0
C822 C 0.75117 0.88619 0.24007 0.0
H823 H 0.75028 0.8112 0.12452 0.0
H824 H 0.74333 0.83265 0.17078 0.0
H825 H 0.78339 0.87092 0.1875 0.0
H826 H 0.76165 0.93367 0.31368 0.0
H827 H 0.76524 0.91685 0.25685 0.0
C828 C 0.65782 0.27977 0.58767 0.0
C829 C 0.67393 0.27291 0.59353 0.0
C830 C 0.64448 0.27554 0.61106 0.0
C831 C 0.63044 0.24416 0.68045 0.0
H832 H 0.60146 0.28036 0.71429 0.0
C833 C 0.58469 0.23711 0.80444 0.0
C834 C 0.56886 0.24492 0.80172 0.0
C835 C 0.59692 0.23976 0.77718 0.0
C836 C 0.60927 0.27005 0.70471 0.0
H837 H 0.68846 0.25587 0.6283 0.0
H838 H 0.66522 0.24865 0.66923 0.0
H839 H 0.62381 0.28626 0.67002 0.0
H840 H 0.55345 0.26153 0.76793 0.0
H841 H 0.57468 0.26591 0.72002 0.0
H842 H 0.61598 0.228 0.7155 0.0
C843 C 0.66288 0.25719 0.64628 0.0
C844 C 0.6221 0.27344 0.67931 0.0
C845 C 0.67625 0.26141 0.62289 0.0
C846 C 0.56546 0.25522 0.77073 0.0
C847 C 0.5777 0.25788 0.74349 0.0
C848 C 0.6176 0.24078 0.70588 0.0
C849 C 0.64688 0.26434 0.6409 0.0
C850 C 0.6329 0.26055 0.66699 0.0
C851 C 0.59362 0.25029 0.74653 0.0
C852 C 0.60691 0.25371 0.71846 0.0
H853 H 0.65551 0.28858 0.56524 0.0
H854 H 0.63225 0.28108 0.60577 0.0
H855 H 0.63838 0.23391 0.67112 0.0
H856 H 0.58766 0.22895 0.8277 0.0
H857 H 0.60909 0.23384 0.78058 0.0
C858 C 0.2399 0.17777 0.1239 0.0
C859 C 0.22791 0.17551 0.09514 0.0
C860 C 0.24391 0.16462 0.14813 0.0
C861 C 0.24123 0.11836 0.15915 0.0
H862 H 0.24566 0.12921 0.26481 0.0
C863 C 0.24356 0.06763 0.27488 0.0
C864 C 0.25463 0.07038 0.3052 0.0
C865 C 0.24102 0.08009 0.24796 0.0
C866 C 0.24468 0.12598 0.23535 0.0
H867 H 0.21099 0.1574 0.069 0.0
H868 H 0.21787 0.13455 0.11153 0.0
H869 H 0.24002 0.15153 0.2202 0.0
H870 H 0.27222 0.08814 0.3301 0.0
H871 H 0.2678 0.10984 0.28325 0.0
H872 H 0.24578 0.09275 0.17449 0.0
C873 C 0.2243 0.14647 0.11507 0.0
C874 C 0.24145 0.13879 0.20974 0.0
C875 C 0.22029 0.15963 0.09078 0.0
C876 C 0.26336 0.08574 0.30752 0.0
C877 C 0.26082 0.09818 0.28065 0.0
C878 C 0.24446 0.10552 0.18481 0.0
C879 C 0.23602 0.14886 0.14429 0.0
C880 C 0.23969 0.13516 0.17132 0.0
C881 C 0.24949 0.09559 0.25076 0.0
C882 C 0.24623 0.10918 0.22323 0.0
H883 H 0.24613 0.18977 0.128 0.0
H884 H 0.25321 0.16681 0.16993 0.0
H885 H 0.24015 0.11516 0.1297 0.0
H886 H 0.2365 0.05602 0.27249 0.0
H887 H 0.23206 0.07776 0.22554 0.0
C888 C 0.22172 0.29041 0.0423 0.0
C889 C 0.22446 0.2817 0.00846 0.0
C890 C 0.22176 0.308 0.04343 0.0
C891 C 0.21855 0.34582 0.98323 0.0
H892 H 0.2402 0.3678 0.06802 0.0
C893 C 0.21666 0.41808 0.00572 0.0
C894 C 0.23125 0.42585 0.02008 0.0
C895 C 0.21547 0.40053 0.00377 0.0
C896 C 0.23423 0.36189 0.04396 0.0
H897 H 0.22919 0.28479 0.94911 0.0
H898 H 0.22955 0.31539 0.95125 0.0
H899 H 0.23879 0.33726 0.06541 0.0
H900 H 0.25624 0.42128 0.04247 0.0
H901 H 0.25427 0.39074 0.03866 0.0
H902 H 0.21446 0.37048 0.96126 0.0
C903 C 0.2271 0.30864 0.97685 0.0
C904 C 0.23321 0.34434 0.04272 0.0
C905 C 0.22699 0.29105 0.97567 0.0
C906 C 0.24472 0.41568 0.03186 0.0
C907 C 0.24356 0.39816 0.02975 0.0
C908 C 0.21963 0.36339 0.98441 0.0
C909 C 0.22461 0.31734 0.01079 0.0
C910 C 0.22538 0.33607 0.01232 0.0
C911 C 0.22888 0.39034 0.01597 0.0
C912 C 0.22754 0.37165 0.01474 0.0
H913 H 0.2196 0.28366 0.06807 0.0
H914 H 0.2195 0.31427 0.06995 0.0
H915 H 0.21228 0.3399 0.95957 0.0
H916 H 0.206 0.42557 0.99681 0.0
H917 H 0.20389 0.39496 0.99345 0.0
C918 C 0.21257 0.72419 0.46566 0.0
C919 C 0.22124 0.72635 0.49985 0.0
C920 C 0.19498 0.72386 0.46462 0.0
C921 C 0.15796 0.73811 0.51698 0.0
H922 H 0.13398 0.70542 0.45568 0.0
C923 C 0.08549 0.73328 0.51871 0.0
C924 C 0.07728 0.73054 0.48418 0.0
C925 C 0.10299 0.73192 0.52165 0.0
C926 C 0.14047 0.71476 0.47262 0.0
H927 H 0.21811 0.72969 0.55981 0.0
H928 H 0.18747 0.72916 0.55784 0.0
H929 H 0.16464 0.70472 0.45851 0.0
H930 H 0.08111 0.72376 0.42588 0.0
H931 H 0.11157 0.72195 0.43071 0.0
H932 H 0.1339 0.7484 0.53058 0.0
C933 C 0.19431 0.72782 0.53185 0.0
C934 C 0.15805 0.71433 0.47428 0.0
C935 C 0.21188 0.72802 0.53296 0.0
C936 C 0.08701 0.72621 0.4528 0.0
C937 C 0.10449 0.72493 0.4557 0.0
C938 C 0.1404 0.73863 0.51514 0.0
C939 C 0.18566 0.7258 0.49766 0.0
C940 C 0.16698 0.72602 0.4964 0.0
C941 C 0.11273 0.72785 0.49011 0.0
C942 C 0.13142 0.72699 0.49285 0.0
H943 H 0.21934 0.72282 0.43961 0.0
H944 H 0.18867 0.72242 0.4378 0.0
H945 H 0.1645 0.74744 0.53388 0.0
H946 H 0.07844 0.73678 0.5434 0.0
H947 H 0.10887 0.73404 0.54871 0.0
C948 C 0.77862 0.71302 0.02937 0.0
C949 C 0.77591 0.72213 0.99625 0.0
C950 C 0.77916 0.69545 0.02866 0.0
C951 C 0.78431 0.65879 0.96462 0.0
H952 H 0.76303 0.63457 0.04532 0.0
C953 C 0.78821 0.58642 0.97563 0.0
C954 C 0.77363 0.5779 0.98689 0.0
C955 C 0.78911 0.60397 0.9778 0.0
C956 C 0.76892 0.64112 0.0224 0.0
H957 H 0.77175 0.71978 0.9363 0.0
H958 H 0.77235 0.68917 0.93521 0.0
H959 H 0.76324 0.66517 0.04634 0.0
H960 H 0.74851 0.58114 0.00897 0.0
H961 H 0.74996 0.61173 0.01233 0.0
H962 H 0.78947 0.63474 0.94002 0.0
C963 C 0.77437 0.69562 0.96168 0.0
C964 C 0.76925 0.6587 0.02325 0.0
C965 C 0.77393 0.71321 0.96234 0.0
C966 C 0.76001 0.58732 1.00058 0.0
C967 C 0.76086 0.60486 0.00255 0.0
C968 C 0.78392 0.64121 0.96369 0.0
C969 C 0.7769 0.68651 0.99486 0.0
C970 C 0.7769 0.66777 0.99431 0.0
C971 C 0.77541 0.61343 0.99109 0.0
C972 C 0.77617 0.63214 0.99251 0.0
H973 H 0.78034 0.71946 0.05597 0.0
H974 H 0.78143 0.68887 0.05466 0.0
H975 H 0.79049 0.66534 0.94208 0.0
H976 H 0.79901 0.57949 0.96543 0.0
H977 H 0.80062 0.6101 0.96935 0.0
C978 C 0.79006 0.27654 0.47663 0.0
C979 C 0.78049 0.27862 0.50932 0.0
C980 C 0.80764 0.27645 0.47839 0.0
C981 C 0.84288 0.26966 0.54498 0.0
H982 H 0.86955 0.28913 0.46588 0.0
C983 C 0.91428 0.25826 0.53553 0.0
C984 C 0.92451 0.27176 0.52473 0.0
C985 C 0.89677 0.25945 0.53313 0.0
C986 C 0.86231 0.28377 0.4884 0.0
H987 H 0.78201 0.28274 0.56941 0.0
H988 H 0.8126 0.28292 0.57232 0.0
H989 H 0.839 0.29136 0.46339 0.0
H990 H 0.92437 0.29716 0.50307 0.0
H991 H 0.89379 0.29936 0.49931 0.0
H992 H 0.86615 0.26245 0.57052 0.0
C993 C 0.80652 0.28096 0.54541 0.0
C994 C 0.84476 0.28486 0.48673 0.0
C995 C 0.78895 0.28095 0.5437 0.0
C996 C 0.91683 0.28646 0.51119 0.0
C997 C 0.8993 0.2877 0.509 0.0
C998 C 0.86041 0.26863 0.54674 0.0
C999 C 0.8161 0.27853 0.51284 0.0
C1000 C 0.83481 0.27776 0.51494 0.0
C1001 C 0.88904 0.27423 0.52009 0.0
C1002 C 0.87036 0.27559 0.51838 0.0
H1003 H 0.784 0.27465 0.44968 0.0
H1004 H 0.81458 0.27433 0.4528 0.0
H1005 H 0.83564 0.26385 0.56698 0.0
H1006 H 0.91983 0.24666 0.54551 0.0
H1007 H 0.8893 0.2487 0.54118 0.0
C1008 C 0.72759 0.21391 0.53362 0.0
C1009 C 0.72585 0.22343 0.50077 0.0
C1010 C 0.72771 0.19634 0.532 0.0
C1011 C 0.73527 0.16097 0.46624 0.0
H1012 H 0.71456 0.13449 0.54412 0.0
C1013 C 0.74621 0.08954 0.47692 0.0
C1014 C 0.73245 0.07939 0.48644 0.0
C1015 C 0.7451 0.10705 0.47933 0.0
C1016 C 0.72029 0.14168 0.52195 0.0
H1017 H 0.72241 0.22181 0.44049 0.0
H1018 H 0.72232 0.1912 0.43779 0.0
H1019 H 0.71243 0.16507 0.54624 0.0
H1020 H 0.7067 0.07967 0.50596 0.0
H1021 H 0.70466 0.11027 0.50978 0.0
H1022 H 0.74277 0.13761 0.44143 0.0
C1023 C 0.72396 0.19733 0.46475 0.0
C1024 C 0.71924 0.15924 0.52341 0.0
C1025 C 0.72392 0.21491 0.46634 0.0
C1026 C 0.71759 0.08715 0.49883 0.0
C1027 C 0.71643 0.10469 0.50106 0.0
C1028 C 0.73627 0.14343 0.46471 0.0
C1029 C 0.72601 0.18782 0.49752 0.0
C1030 C 0.72677 0.16911 0.49563 0.0
C1031 C 0.73015 0.11487 0.49112 0.0
C1032 C 0.72886 0.13355 0.49264 0.0
H1033 H 0.72916 0.22002 0.56063 0.0
H1034 H 0.72954 0.18944 0.55774 0.0
H1035 H 0.7414 0.16815 0.44461 0.0
H1036 H 0.75793 0.08393 0.46785 0.0
H1037 H 0.75603 0.11447 0.4722 0.0
C1038 C 0.28844 0.22362 0.97541 0.0
C1039 C 0.27933 0.22636 0.00854 0.0
C1040 C 0.30601 0.22317 0.97606 0.0
C1041 C 0.34269 0.21816 0.0399 0.0
H1042 H 0.36683 0.23927 0.95885 0.0
C1043 C 0.41498 0.21381 0.02795 0.0
C1044 C 0.42356 0.22836 0.01675 0.0
C1045 C 0.39743 0.21301 0.0259 0.0
C1046 C 0.3603 0.23343 0.98185 0.0
H1047 H 0.28169 0.23067 0.06843 0.0
H1048 H 0.31231 0.2302 0.06942 0.0
H1049 H 0.33623 0.23917 0.95816 0.0
H1050 H 0.42044 0.25352 0.99481 0.0
H1051 H 0.38984 0.25223 0.9916 0.0
H1052 H 0.36677 0.21291 0.06422 0.0
C1053 C 0.30585 0.22811 0.043 0.0
C1054 C 0.34273 0.23317 0.98121 0.0
C1055 C 0.28826 0.22847 0.04239 0.0
C1056 C 0.41421 0.24204 0.00314 0.0
C1057 C 0.39666 0.24128 0.00128 0.0
C1058 C 0.36028 0.21847 0.04061 0.0
C1059 C 0.31495 0.22554 0.0098 0.0
C1060 C 0.33369 0.22556 0.01027 0.0
C1061 C 0.38803 0.22678 0.01279 0.0
C1062 C 0.36931 0.22615 0.01164 0.0
H1063 H 0.28201 0.2218 0.94885 0.0
H1064 H 0.31258 0.22086 0.95006 0.0
H1065 H 0.33617 0.21202 0.06252 0.0
H1066 H 0.42185 0.20297 0.03809 0.0
H1067 H 0.39123 0.20153 0.03437 0.0
C1068 C 0.27427 0.79021 0.53991 0.0
C1069 C 0.27645 0.78138 0.50599 0.0
C1070 C 0.27456 0.80779 0.54082 0.0
C1071 C 0.26936 0.84495 0.47981 0.0
H1072 H 0.28944 0.8686 0.56429 0.0
C1073 C 0.25977 0.91624 0.5044 0.0
C1074 C 0.27334 0.92562 0.51891 0.0
C1075 C 0.26072 0.8987 0.50173 0.0
C1076 C 0.28393 0.86222 0.54027 0.0
H1077 H 0.28097 0.78426 0.4465 0.0
H1078 H 0.28176 0.81487 0.44827 0.0
H1079 H 0.29059 0.83802 0.56154 0.0
H1080 H 0.29876 0.92396 0.54095 0.0
H1081 H 0.30052 0.89341 0.53587 0.0
H1082 H 0.26303 0.86918 0.45813 0.0
C1083 C 0.2795 0.8082 0.47406 0.0
C1084 C 0.28439 0.84465 0.53894 0.0
C1085 C 0.27914 0.79061 0.4731 0.0
C1086 C 0.28799 0.91708 0.53017 0.0
C1087 C 0.28898 0.89955 0.52732 0.0
C1088 C 0.26895 0.86253 0.48107 0.0
C1089 C 0.27711 0.81702 0.5079 0.0
C1090 C 0.27703 0.83577 0.5088 0.0
C1091 C 0.27531 0.89012 0.51332 0.0
C1092 C 0.27615 0.8714 0.51142 0.0
H1093 H 0.2721 0.78356 0.56578 0.0
H1094 H 0.27244 0.81415 0.56729 0.0
H1095 H 0.26341 0.83855 0.45635 0.0
H1096 H 0.24822 0.92242 0.49596 0.0
H1097 H 0.24985 0.89186 0.49137 0.0
C1098 C 0.71156 0.77952 0.9602 0.0
C1099 C 0.72006 0.77654 0.99419 0.0
C1100 C 0.69398 0.77959 0.9586 0.0
C1101 C 0.65595 0.78274 0.01818 0.0
H1102 H 0.63405 0.7619 0.93231 0.0
C1103 C 0.58378 0.78502 0.99594 0.0
C1104 C 0.57597 0.77053 0.9812 0.0
C1105 C 0.60132 0.78621 0.99759 0.0
C1106 C 0.63994 0.76765 0.95666 0.0
H1107 H 0.71661 0.77141 0.05326 0.0
H1108 H 0.68604 0.77121 0.0503 0.0
H1109 H 0.6646 0.76307 0.93534 0.0
H1110 H 0.58046 0.74574 0.9576 0.0
H1111 H 0.61101 0.7477 0.96092 0.0
H1112 H 0.63128 0.78683 0.04005 0.0
C1113 C 0.69295 0.77379 0.02496 0.0
C1114 C 0.65749 0.76853 0.95815 0.0
C1115 C 0.71052 0.77381 0.0266 0.0
C1116 C 0.5861 0.75718 0.96856 0.0
C1117 C 0.60362 0.75833 0.97038 0.0
C1118 C 0.63839 0.7818 0.01676 0.0
C1119 C 0.68445 0.77659 0.99091 0.0
C1120 C 0.66573 0.77604 0.98898 0.0
C1121 C 0.61147 0.7729 0.9847 0.0
C1122 C 0.63016 0.77418 0.98604 0.0
H1123 H 0.71847 0.7818 0.93471 0.0
H1124 H 0.68787 0.78207 0.93202 0.0
H1125 H 0.66185 0.7888 0.04216 0.0
H1126 H 0.57632 0.7956 0.00548 0.0
H1127 H 0.60693 0.79771 0.00831 0.0
loop_
_geom_bond_atom_site_label_1
_geom_bond_atom_site_label_2
_geom_bond_distance
_geom_bond_site_symmetry_2
_ccdc_geom_bond_type
Sc0 O3 2.025 . S
Sc0 O10 2.105 . S
Sc0 O13 2.105 . S
Sc0 O16 2.105 . S
Sc0 O19 2.105 . S
Sc1 O3 2.025 . S
Sc1 O11 2.105 . S
Sc1 O15 2.105 1_554 S
Sc1 O17 2.105 . S
Sc1 O21 2.105 1_554 S
Sc2 O3 2.025 1_556 S
Sc2 O12 2.105 . S
Sc2 O14 2.105 . S
Sc2 O18 2.105 . S
Sc2 O20 2.105 . S
O3 Sc0 2.025 . S
O3 Sc1 2.025 . S
O3 Sc2 2.025 1_554 S
C4 O10 1.268 . S
C4 O20 1.268 1_554 S
C5 O11 1.268 . S
C5 O19 1.268 . S
C6 O12 1.268 . S
C6 O21 1.268 . S
C7 O13 1.268 . S
C7 O17 1.268 . S
C8 O14 1.268 1_554 S
C8 O16 1.268 . S
C9 O15 1.268 . S
C9 O18 1.268 . S
O10 Sc0 2.105 . S
O10 C4 1.268 . S
O11 Sc1 2.105 . S
O11 C5 1.268 . S
O12 Sc2 2.105 . S
O12 C6 1.268 . S
O13 Sc0 2.105 . S
O13 C7 1.268 . S
O14 Sc2 2.105 . S
O14 C8 1.268 1_556 S
O15 Sc1 2.105 1_556 S
O15 C9 1.268 . S
O16 Sc0 2.105 . S
O16 C8 1.268 . S
O17 Sc1 2.105 . S
O17 C7 1.268 . S
O18 Sc2 2.105 . S
O18 C9 1.268 . S
O19 Sc0 2.105 . S
O19 C5 1.268 . S
O20 Sc2 2.105 . S
O20 C4 1.268 1_556 S
O21 Sc1 2.105 1_556 S
O21 C6 1.268 . S
Sc22 O25 2.025 . S
Sc22 O32 2.105 . S
Sc22 O35 2.105 . S
Sc22 O38 2.105 . S
Sc22 O41 2.105 . S
Sc23 O25 2.025 . S
Sc23 O33 2.105 . S
Sc23 O37 2.105 . S
Sc23 O39 2.105 . S
Sc23 O43 2.105 . S
Sc24 O25 2.025 . S
Sc24 O34 2.105 . S
Sc24 O36 2.105 . S
Sc24 O40 2.105 . S
Sc24 O42 2.105 . S
O25 Sc22 2.025 . S
O25 Sc23 2.025 . S
O25 Sc24 2.025 . S
C26 O32 1.268 . S
C26 O42 1.268 . S
C27 O33 1.268 . S
C27 O41 1.268 . S
C28 O34 1.268 . S
C28 O43 1.268 . S
C29 O35 1.268 . S
C29 O39 1.268 . S
C30 O36 1.268 . S
C30 O38 1.268 . S
C31 O37 1.268 . S
C31 O40 1.268 . S
O32 Sc22 2.105 . S
O32 C26 1.268 . S
O33 Sc23 2.105 . S
O33 C27 1.268 . S
O34 Sc24 2.105 . S
O34 C28 1.268 . S
O35 Sc22 2.105 . S
O35 C29 1.268 . S
O36 Sc24 2.105 . S
O36 C30 1.268 . S
O37 Sc23 2.105 . S
O37 C31 1.268 . S
O38 Sc22 2.105 . S
O38 C30 1.268 . S
O39 Sc23 2.105 . S
O39 C29 1.268 . S
O40 Sc24 2.105 . S
O40 C31 1.268 . S
O41 Sc22 2.105 . S
O41 C27 1.268 . S
O42 Sc24 2.105 . S
O42 C26 1.268 . S
O43 Sc23 2.105 . S
O43 C28 1.268 . S
Sc44 O47 2.025 1_556 S
Sc44 O54 2.105 . S
Sc44 O57 2.105 . S
Sc44 O60 2.105 . S
Sc44 O63 2.105 . S
Sc45 O47 2.025 . S
Sc45 O55 2.105 1_554 S
Sc45 O59 2.105 . S
Sc45 O61 2.105 1_554 S
Sc45 O65 2.105 . S
Sc46 O47 2.025 . S
Sc46 O56 2.105 . S
Sc46 O58 2.105 . S
Sc46 O62 2.105 . S
Sc46 O64 2.105 . S
O47 Sc44 2.025 1_554 S
O47 Sc45 2.025 . S
O47 Sc46 2.025 . S
C48 O54 1.268 1_554 S
C48 O64 1.268 . S
C49 O55 1.268 . S
C49 O63 1.268 . S
C50 O56 1.268 . S
C50 O65 1.268 . S
C51 O57 1.268 . S
C51 O61 1.268 . S
C52 O58 1.268 . S
C52 O60 1.268 1_554 S
C53 O59 1.268 . S
C53 O62 1.268 . S
O54 Sc44 2.105 . S
O54 C48 1.268 1_556 S
O55 Sc45 2.105 1_556 S
O55 C49 1.268 . S
O56 Sc46 2.105 . S
O56 C50 1.268 . S
O57 Sc44 2.105 . S
O57 C51 1.268 . S
O58 Sc46 2.105 . S
O58 C52 1.268 . S
O59 Sc45 2.105 . S
O59 C53 1.268 . S
O60 Sc44 2.105 . S
O60 C52 1.268 1_556 S
O61 Sc45 2.105 1_556 S
O61 C51 1.268 . S
O62 Sc46 2.105 . S
O62 C53 1.268 . S
O63 Sc44 2.105 . S
O63 C49 1.268 . S
O64 Sc46 2.105 . S
O64 C48 1.268 . S
O65 Sc45 2.105 . S
O65 C50 1.268 . S
Sc66 O69 2.025 . S
Sc66 O76 2.105 . S
Sc66 O79 2.105 . S
Sc66 O82 2.105 . S
Sc66 O85 2.105 . S
Sc67 O69 2.025 . S
Sc67 O77 2.105 . S
Sc67 O81 2.105 . S
Sc67 O83 2.105 . S
Sc67 O87 2.105 . S
Sc68 O69 2.025 . S
Sc68 O78 2.105 . S
Sc68 O80 2.105 . S
Sc68 O84 2.105 . S
Sc68 O86 2.105 . S
O69 Sc66 2.025 . S
O69 Sc67 2.025 . S
O69 Sc68 2.025 . S
C70 O76 1.268 . S
C70 O86 1.268 . S
C71 O77 1.268 . S
C71 O85 1.268 . S
C72 O78 1.268 . S
C72 O87 1.268 . S
C73 O79 1.268 . S
C73 O83 1.268 . S
C74 O80 1.268 . S
C74 O82 1.268 . S
C75 O81 1.268 . S
C75 O84 1.268 . S
O76 Sc66 2.105 . S
O76 C70 1.268 . S
O77 Sc67 2.105 . S
O77 C71 1.268 . S
O78 Sc68 2.105 . S
O78 C72 1.268 . S
O79 Sc66 2.105 . S
O79 C73 1.268 . S
O80 Sc68 2.105 . S
O80 C74 1.268 . S
O81 Sc67 2.105 . S
O81 C75 1.268 . S
O82 Sc66 2.105 . S
O82 C74 1.268 . S
O83 Sc67 2.105 . S
O83 C73 1.268 . S
O84 Sc68 2.105 . S
O84 C75 1.268 . S
O85 Sc66 2.105 . S
O85 C71 1.268 . S
O86 Sc68 2.105 . S
O86 C70 1.268 . S
O87 Sc67 2.105 . S
O87 C72 1.268 . S
C88 C89 1.264 . S
C88 C93 1.479 . S
C88 C98 1.465 . S
C89 C88 1.264 . S
C89 C91 1.339 . S
C89 H116 0.931 . S
C90 C91 1.395 . S
C90 C92 1.320 . S
C91 C89 1.339 . S
C91 C90 1.395 . S
C91 H117 0.929 . S
C92 C90 1.320 . S
C92 C93 1.405 . S
C92 H118 0.930 . S
C93 C88 1.479 . S
C93 C92 1.405 . S
C93 H119 0.931 . S
U94 O95 2.454 . S
U94 O96 2.458 1_556 S
U94 C97 2.984 . S
U94 C98 2.847 . S
U94 C111 2.882 1_556 S
U94 O112 2.441 . S
U94 O113 2.420 . S
U94 O114 2.455 1_556 S
U94 O115 2.449 1_556 S
O95 U94 2.454 . S
O95 C97 1.353 . S
O96 U94 2.458 1_554 S
O96 C97 1.286 1_554 S
C97 U94 2.984 . S
C97 O95 1.353 . S
C97 O96 1.286 1_556 S
C97 C99 1.363 . S
C98 C88 1.465 . S
C98 U94 2.847 . S
C98 O112 1.249 . S
C98 O113 1.202 . S
C99 C97 1.363 . S
C99 C101 1.412 . S
C99 C104 1.338 1_556 S
C100 C101 1.310 . S
C100 C103 1.461 1_556 S
C100 H120 0.932 . S
C101 C99 1.412 . S
C101 C100 1.310 . S
C101 H121 0.930 . S
C102 C103 1.474 . S
C102 C104 1.285 . S
C102 H122 0.929 . S
C103 C100 1.461 1_554 S
C103 C102 1.474 . S
C104 C99 1.338 1_554 S
C104 C102 1.285 . S
C104 H123 0.930 . S
C105 C108 1.424 . S
C105 C110 1.245 . S
C105 C111 1.428 . S
C106 C109 1.260 . S
C106 C110 1.477 . S
C106 H124 0.932 . S
C107 C108 1.384 . S
C107 C109 1.479 . S
C107 H125 0.929 . S
C108 C105 1.424 . S
C108 C107 1.384 . S
C108 H126 0.928 . S
C109 C106 1.260 . S
C109 C107 1.479 . S
C110 C105 1.245 . S
C110 C106 1.477 . S
C110 H127 0.932 . S
C111 U94 2.882 1_554 S
C111 C105 1.428 . S
C111 O114 1.301 . S
C111 O115 1.282 . S
O112 U94 2.441 . S
O112 C98 1.249 . S
O113 U94 2.420 . S
O113 C98 1.202 . S
O114 U94 2.455 1_554 S
O114 C111 1.301 . S
O115 U94 2.449 1_554 S
O115 C111 1.282 . S
H116 C89 0.931 . S
H117 C91 0.929 . S
H118 C92 0.930 . S
H119 C93 0.931 . S
H120 C100 0.932 . S
H121 C101 0.930 . S
H122 C102 0.929 . S
H123 C104 0.930 . S
H124 C106 0.932 . S
H125 C107 0.929 . S
H126 C108 0.928 . S
H127 C110 0.932 . S
C128 C129 1.264 . S
C128 C133 1.479 . S
C128 C138 1.465 . S
C129 C128 1.264 . S
C129 C131 1.339 . S
C129 H156 0.931 . S
C130 C131 1.395 . S
C130 C132 1.320 . S
C131 C129 1.339 . S
C131 C130 1.395 . S
C131 H157 0.929 . S
C132 C130 1.320 . S
C132 C133 1.405 . S
C132 H158 0.930 . S
C133 C128 1.479 . S
C133 C132 1.405 . S
C133 H159 0.931 . S
U134 O135 2.454 1_655 S
U134 O136 2.458 1_655 S
U134 C137 2.984 1_655 S
U134 C138 2.847 . S
U134 C151 2.882 . S
U134 O152 2.441 . S
U134 O153 2.420 . S
U134 O154 2.455 . S
U134 O155 2.449 . S
O135 U134 2.454 1_455 S
O135 C137 1.353 . S
O136 U134 2.458 1_455 S
O136 C137 1.286 . S
C137 U134 2.984 1_455 S
C137 O135 1.353 . S
C137 O136 1.286 . S
C137 C139 1.363 . S
C138 C128 1.465 . S
C138 U134 2.847 . S
C138 O152 1.249 . S
C138 O153 1.202 . S
C139 C137 1.363 . S
C139 C141 1.408 . S
C139 C144 1.342 . S
C140 C141 1.310 . S
C140 C143 1.461 . S
C140 H160 0.932 . S
C141 C139 1.408 . S
C141 C140 1.310 . S
C141 H161 0.930 . S
C142 C143 1.474 . S
C142 C144 1.285 . S
C142 H162 0.929 . S
C143 C140 1.461 . S
C143 C142 1.474 . S
C144 C139 1.342 . S
C144 C142 1.285 . S
C144 H163 0.930 . S
C145 C148 1.424 . S
C145 C150 1.245 . S
C145 C151 1.428 . S
C146 C149 1.260 . S
C146 C150 1.477 . S
C146 H164 0.932 . S
C147 C148 1.384 . S
C147 C149 1.479 . S
C147 H165 0.929 . S
C148 C145 1.424 . S
C148 C147 1.384 . S
C148 H166 0.928 . S
C149 C146 1.260 . S
C149 C147 1.479 . S
C150 C145 1.245 . S
C150 C146 1.477 . S
C150 H167 0.932 . S
C151 U134 2.882 . S
C151 C145 1.428 . S
C151 O154 1.301 . S
C151 O155 1.282 . S
O152 U134 2.441 . S
O152 C138 1.249 . S
O153 U134 2.420 . S
O153 C138 1.202 . S
O154 U134 2.455 . S
O154 C151 1.301 . S
O155 U134 2.449 . S
O155 C151 1.282 . S
H156 C129 0.931 . S
H157 C131 0.929 . S
H158 C132 0.930 . S
H159 C133 0.931 . S
H160 C140 0.932 . S
H161 C141 0.930 . S
H162 C142 0.929 . S
H163 C144 0.930 . S
H164 C146 0.932 . S
H165 C147 0.929 . S
H166 C148 0.928 . S
H167 C150 0.932 . S
C168 C169 1.264 . S
C168 C173 1.479 . S
C168 C178 1.465 . S
C169 C168 1.264 . S
C169 C171 1.339 . S
C169 H196 0.931 . S
C170 C171 1.395 . S
C170 C172 1.320 . S
C171 C169 1.339 . S
C171 C170 1.395 . S
C171 H197 0.929 . S
C172 C170 1.320 . S
C172 C173 1.405 . S
C172 H198 0.930 . S
C173 C168 1.479 . S
C173 C172 1.405 . S
C173 H199 0.931 . S
U174 O175 2.454 . S
U174 O176 2.458 1_554 S
U174 C177 2.984 . S
U174 C178 2.847 . S
U174 C191 2.882 1_554 S
U174 O192 2.441 . S
U174 O193 2.420 . S
U174 O194 2.455 1_554 S
U174 O195 2.449 1_554 S
O175 U174 2.454 . S
O175 C177 1.353 . S
O176 U174 2.458 1_556 S
O176 C177 1.286 1_556 S
C177 U174 2.984 . S
C177 O175 1.353 . S
C177 O176 1.286 1_554 S
C177 C179 1.363 . S
C178 C168 1.465 . S
C178 U174 2.847 . S
C178 O192 1.249 . S
C178 O193 1.202 . S
C179 C177 1.363 . S
C179 C181 1.408 . S
C179 C184 1.342 1_554 S
C180 C181 1.310 . S
C180 C183 1.461 . S
C180 H200 0.932 . S
C181 C179 1.408 . S
C181 C180 1.310 . S
C181 H201 0.930 . S
C182 C183 1.474 1_556 S
C182 C184 1.285 . S
C182 H202 0.929 . S
C183 C180 1.461 . S
C183 C182 1.474 1_554 S
C184 C179 1.342 1_556 S
C184 C182 1.285 . S
C184 H203 0.930 . S
C185 C188 1.424 . S
C185 C190 1.245 . S
C185 C191 1.428 . S
C186 C189 1.260 . S
C186 C190 1.477 . S
C186 H204 0.932 . S
C187 C188 1.384 . S
C187 C189 1.479 . S
C187 H205 0.929 . S
C188 C185 1.424 . S
C188 C187 1.384 . S
C188 H206 0.928 . S
C189 C186 1.260 . S
C189 C187 1.479 . S
C190 C185 1.245 . S
C190 C186 1.477 . S
C190 H207 0.932 . S
C191 U174 2.882 1_556 S
C191 C185 1.428 . S
C191 O194 1.301 . S
C191 O195 1.282 . S
O192 U174 2.441 . S
O192 C178 1.249 . S
O193 U174 2.420 . S
O193 C178 1.202 . S
O194 U174 2.455 1_556 S
O194 C191 1.301 . S
O195 U174 2.449 1_556 S
O195 C191 1.282 . S
H196 C169 0.931 . S
H197 C171 0.929 . S
H198 C172 0.930 . S
H199 C173 0.931 . S
H200 C180 0.932 . S
H201 C181 0.930 . S
H202 C182 0.929 . S
H203 C184 0.930 . S
H204 C186 0.932 . S
H205 C187 0.929 . S
H206 C188 0.928 . S
H207 C190 0.932 . S
C208 C209 1.264 . S
C208 C213 1.479 . S
C208 C218 1.465 . S
C209 C208 1.264 . S
C209 C211 1.339 . S
C209 H236 0.931 . S
C210 C211 1.395 . S
C210 C212 1.320 . S
C211 C209 1.339 . S
C211 C210 1.395 . S
C211 H237 0.929 . S
C212 C210 1.320 . S
C212 C213 1.405 . S
C212 H238 0.930 . S
C213 C208 1.479 . S
C213 C212 1.405 . S
C213 H239 0.931 . S
U214 O215 2.454 1_455 S
U214 O216 2.458 1_455 S
U214 C217 2.984 1_455 S
U214 C218 2.847 . S
U214 C231 2.882 . S
U214 O232 2.441 . S
U214 O233 2.420 . S
U214 O234 2.455 . S
U214 O235 2.449 . S
O215 U214 2.454 1_655 S
O215 C217 1.353 . S
O216 U214 2.458 1_655 S
O216 C217 1.286 . S
C217 U214 2.984 1_655 S
C217 O215 1.353 . S
C217 O216 1.286 . S
C217 C219 1.363 . S
C218 C208 1.465 . S
C218 U214 2.847 . S
C218 O232 1.249 . S
C218 O233 1.202 . S
C219 C217 1.363 . S
C219 C221 1.408 . S
C219 C224 1.342 . S
C220 C221 1.310 . S
C220 C223 1.461 . S
C220 H240 0.932 . S
C221 C219 1.408 . S
C221 C220 1.310 . S
C221 H241 0.930 . S
C222 C223 1.474 . S
C222 C224 1.285 . S
C222 H242 0.929 . S
C223 C220 1.461 . S
C223 C222 1.474 . S
C224 C219 1.342 . S
C224 C222 1.285 . S
C224 H243 0.930 . S
C225 C228 1.424 . S
C225 C230 1.245 . S
C225 C231 1.428 . S
C226 C229 1.260 . S
C226 C230 1.477 . S
C226 H244 0.932 . S
C227 C228 1.384 . S
C227 C229 1.479 . S
C227 H245 0.929 . S
C228 C225 1.424 . S
C228 C227 1.384 . S
C228 H246 0.928 . S
C229 C226 1.260 . S
C229 C227 1.479 . S
C230 C225 1.245 . S
C230 C226 1.477 . S
C230 H247 0.932 . S
C231 U214 2.882 . S
C231 C225 1.428 . S
C231 O234 1.301 . S
C231 O235 1.282 . S
O232 U214 2.441 . S
O232 C218 1.249 . S
O233 U214 2.420 . S
O233 C218 1.202 . S
O234 U214 2.455 . S
O234 C231 1.301 . S
O235 U214 2.449 . S
O235 C231 1.282 . S
H236 C209 0.931 . S
H237 C211 0.929 . S
H238 C212 0.930 . S
H239 C213 0.931 . S
H240 C220 0.932 . S
H241 C221 0.930 . S
H242 C222 0.929 . S
H243 C224 0.930 . S
H244 C226 0.932 . S
H245 C227 0.929 . S
H246 C228 0.928 . S
H247 C230 0.932 . S
C248 C249 1.264 . S
C248 C253 1.479 . S
C248 C258 1.465 . S
C249 C248 1.264 . S
C249 C251 1.339 . S
C249 H276 0.931 . S
C250 C251 1.395 . S
C250 C252 1.320 . S
C251 C249 1.339 . S
C251 C250 1.395 . S
C251 H277 0.929 . S
C252 C250 1.320 . S
C252 C253 1.405 . S
C252 H278 0.930 . S
C253 C248 1.479 . S
C253 C252 1.405 . S
C253 H279 0.931 . S
U254 O255 2.454 1_565 S
U254 O256 2.458 1_565 S
U254 C257 2.984 1_565 S
U254 C258 2.847 . S
U254 C271 2.882 . S
U254 O272 2.441 . S
U254 O273 2.420 . S
U254 O274 2.455 . S
U254 O275 2.449 . S
O255 U254 2.454 1_545 S
O255 C257 1.353 . S
O256 U254 2.458 1_545 S
O256 C257 1.286 . S
C257 U254 2.984 1_545 S
C257 O255 1.353 . S
C257 O256 1.286 . S
C257 C259 1.363 . S
C258 C248 1.465 . S
C258 U254 2.847 . S
C258 O272 1.249 . S
C258 O273 1.202 . S
C259 C257 1.363 . S
C259 C261 1.408 . S
C259 C264 1.342 . S
C260 C261 1.310 . S
C260 C263 1.461 . S
C260 H280 0.932 . S
C261 C259 1.408 . S
C261 C260 1.310 . S
C261 H281 0.930 . S
C262 C263 1.474 . S
C262 C264 1.285 . S
C262 H282 0.929 . S
C263 C260 1.461 . S
C263 C262 1.474 . S
C264 C259 1.342 . S
C264 C262 1.285 . S
C264 H283 0.930 . S
C265 C268 1.424 . S
C265 C270 1.245 . S
C265 C271 1.428 . S
C266 C269 1.260 . S
C266 C270 1.477 . S
C266 H284 0.932 . S
C267 C268 1.384 . S
C267 C269 1.479 . S
C267 H285 0.929 . S
C268 C265 1.424 . S
C268 C267 1.384 . S
C268 H286 0.928 . S
C269 C266 1.260 . S
C269 C267 1.479 . S
C270 C265 1.245 . S
C270 C266 1.477 . S
C270 H287 0.932 . S
C271 U254 2.882 . S
C271 C265 1.428 . S
C271 O274 1.301 . S
C271 O275 1.282 . S
O272 U254 2.441 . S
O272 C258 1.249 . S
O273 U254 2.420 . S
O273 C258 1.202 . S
O274 U254 2.455 . S
O274 C271 1.301 . S
O275 U254 2.449 . S
O275 C271 1.282 . S
H276 C249 0.931 . S
H277 C251 0.929 . S
H278 C252 0.930 . S
H279 C253 0.931 . S
H280 C260 0.932 . S
H281 C261 0.930 . S
H282 C262 0.929 . S
H283 C264 0.930 . S
H284 C266 0.932 . S
H285 C267 0.929 . S
H286 C268 0.928 . S
H287 C270 0.932 . S
C288 C289 1.264 . S
C288 C293 1.479 . S
C288 C298 1.465 . S
C289 C288 1.264 . S
C289 C291 1.339 . S
C289 H316 0.931 . S
C290 C291 1.395 . S
C290 C292 1.320 . S
C291 C289 1.339 . S
C291 C290 1.395 . S
C291 H317 0.929 . S
C292 C290 1.320 . S
C292 C293 1.405 . S
C292 H318 0.930 . S
C293 C288 1.479 . S
C293 C292 1.405 . S
C293 H319 0.931 . S
U294 O295 2.454 . S
U294 O296 2.458 1_556 S
U294 C297 2.984 . S
U294 C298 2.847 . S
U294 C311 2.882 1_556 S
U294 O312 2.441 . S
U294 O313 2.420 . S
U294 O314 2.455 1_556 S
U294 O315 2.449 1_556 S
O295 U294 2.454 . S
O295 C297 1.353 . S
O296 U294 2.458 1_554 S
O296 C297 1.286 1_554 S
C297 U294 2.984 . S
C297 O295 1.353 . S
C297 O296 1.286 1_556 S
C297 C299 1.363 . S
C298 C288 1.465 . S
C298 U294 2.847 . S
C298 O312 1.249 . S
C298 O313 1.202 . S
C299 C297 1.363 . S
C299 C301 1.409 . S
C299 C304 1.341 1_556 S
C300 C301 1.310 . S
C300 C303 1.461 1_556 S
C300 H320 0.932 . S
C301 C299 1.409 . S
C301 C300 1.310 . S
C301 H321 0.930 . S
C302 C303 1.474 . S
C302 C304 1.285 . S
C302 H322 0.929 . S
C303 C300 1.461 1_554 S
C303 C302 1.474 . S
C304 C299 1.341 1_554 S
C304 C302 1.285 . S
C304 H323 0.930 . S
C305 C308 1.424 . S
C305 C310 1.245 . S
C305 C311 1.428 . S
C306 C309 1.260 . S
C306 C310 1.477 . S
C306 H324 0.932 . S
C307 C308 1.384 . S
C307 C309 1.479 . S
C307 H325 0.929 . S
C308 C305 1.424 . S
C308 C307 1.384 . S
C308 H326 0.928 . S
C309 C306 1.260 . S
C309 C307 1.479 . S
C310 C305 1.245 . S
C310 C306 1.477 . S
C310 H327 0.932 . S
C311 U294 2.882 1_554 S
C311 C305 1.428 . S
C311 O314 1.301 . S
C311 O315 1.282 . S
O312 U294 2.441 . S
O312 C298 1.249 . S
O313 U294 2.420 . S
O313 C298 1.202 . S
O314 U294 2.455 1_554 S
O314 C311 1.301 . S
O315 U294 2.449 1_554 S
O315 C311 1.282 . S
H316 C289 0.931 . S
H317 C291 0.929 . S
H318 C292 0.930 . S
H319 C293 0.931 . S
H320 C300 0.932 . S
H321 C301 0.930 . S
H322 C302 0.929 . S
H323 C304 0.930 . S
H324 C306 0.932 . S
H325 C307 0.929 . S
H326 C308 0.928 . S
H327 C310 0.932 . S
C328 C329 1.264 . S
C328 C333 1.479 . S
C328 C338 1.465 . S
C329 C328 1.264 . S
C329 C331 1.339 . S
C329 H356 0.931 . S
C330 C331 1.395 . S
C330 C332 1.320 . S
C331 C329 1.339 . S
C331 C330 1.395 . S
C331 H357 0.929 . S
C332 C330 1.320 . S
C332 C333 1.405 . S
C332 H358 0.930 . S
C333 C328 1.479 . S
C333 C332 1.405 . S
C333 H359 0.931 . S
U334 O335 2.454 1_545 S
U334 O336 2.458 1_545 S
U334 C337 2.984 1_545 S
U334 C338 2.847 . S
U334 C351 2.882 . S
U334 O352 2.441 . S
U334 O353 2.420 . S
U334 O354 2.455 . S
U334 O355 2.449 . S
O335 U334 2.454 1_565 S
O335 C337 1.353 . S
O336 U334 2.458 1_565 S
O336 C337 1.286 . S
C337 U334 2.984 1_565 S
C337 O335 1.353 . S
C337 O336 1.286 . S
C337 C339 1.363 . S
C338 C328 1.465 . S
C338 U334 2.847 . S
C338 O352 1.249 . S
C338 O353 1.202 . S
C339 C337 1.363 . S
C339 C341 1.408 . S
C339 C344 1.342 . S
C340 C341 1.310 . S
C340 C343 1.461 . S
C340 H360 0.932 . S
C341 C339 1.408 . S
C341 C340 1.310 . S
C341 H361 0.930 . S
C342 C343 1.474 . S
C342 C344 1.285 . S
C342 H362 0.929 . S
C343 C340 1.461 . S
C343 C342 1.474 . S
C344 C339 1.342 . S
C344 C342 1.285 . S
C344 H363 0.930 . S
C345 C348 1.424 . S
C345 C350 1.245 . S
C345 C351 1.428 . S
C346 C349 1.260 . S
C346 C350 1.477 . S
C346 H364 0.932 . S
C347 C348 1.384 . S
C347 C349 1.479 . S
C347 H365 0.929 . S
C348 C345 1.424 . S
C348 C347 1.384 . S
C348 H366 0.928 . S
C349 C346 1.260 . S
C349 C347 1.479 . S
C350 C345 1.245 . S
C350 C346 1.477 . S
C350 H367 0.932 . S
C351 U334 2.882 . S
C351 C345 1.428 . S
C351 O354 1.301 . S
C351 O355 1.282 . S
O352 U334 2.441 . S
O352 C338 1.249 . S
O353 U334 2.420 . S
O353 C338 1.202 . S
O354 U334 2.455 . S
O354 C351 1.301 . S
O355 U334 2.449 . S
O355 C351 1.282 . S
H356 C329 0.931 . S
H357 C331 0.929 . S
H358 C332 0.930 . S
H359 C333 0.931 . S
H360 C340 0.932 . S
H361 C341 0.930 . S
H362 C342 0.929 . S
H363 C344 0.930 . S
H364 C346 0.932 . S
H365 C347 0.929 . S
H366 C348 0.928 . S
H367 C350 0.932 . S
C368 C369 1.264 . S
C368 C373 1.479 . S
C368 C378 1.465 . S
C369 C368 1.264 . S
C369 C371 1.339 . S
C369 H396 0.931 . S
C370 C371 1.395 . S
C370 C372 1.320 . S
C371 C369 1.339 . S
C371 C370 1.395 . S
C371 H397 0.929 . S
C372 C370 1.320 . S
C372 C373 1.405 . S
C372 H398 0.930 . S
C373 C368 1.479 . S
C373 C372 1.405 . S
C373 H399 0.931 . S
U374 O375 2.454 . S
U374 O376 2.458 1_554 S
U374 C377 2.984 . S
U374 C378 2.847 . S
U374 C391 2.882 1_554 S
U374 O392 2.441 . S
U374 O393 2.420 . S
U374 O394 2.455 1_554 S
U374 O395 2.449 1_554 S
O375 U374 2.454 . S
O375 C377 1.353 . S
O376 U374 2.458 1_556 S
O376 C377 1.286 1_556 S
C377 U374 2.984 . S
C377 O375 1.353 . S
C377 O376 1.286 1_554 S
C377 C379 1.363 . S
C378 C368 1.465 . S
C378 U374 2.847 . S
C378 O392 1.249 . S
C378 O393 1.202 . S
C379 C377 1.363 . S
C379 C381 1.408 . S
C379 C384 1.342 1_554 S
C380 C381 1.310 . S
C380 C383 1.461 . S
C380 H400 0.932 . S
C381 C379 1.408 . S
C381 C380 1.310 . S
C381 H401 0.930 . S
C382 C383 1.474 1_556 S
C382 C384 1.285 . S
C382 H402 0.929 . S
C383 C380 1.461 . S
C383 C382 1.474 1_554 S
C384 C379 1.342 1_556 S
C384 C382 1.285 . S
C384 H403 0.930 . S
C385 C388 1.424 . S
C385 C390 1.245 . S
C385 C391 1.428 . S
C386 C389 1.260 . S
C386 C390 1.477 . S
C386 H404 0.932 . S
C387 C388 1.384 . S
C387 C389 1.479 . S
C387 H405 0.929 . S
C388 C385 1.424 . S
C388 C387 1.384 . S
C388 H406 0.928 . S
C389 C386 1.260 . S
C389 C387 1.479 . S
C390 C385 1.245 . S
C390 C386 1.477 . S
C390 H407 0.932 . S
C391 U374 2.882 1_556 S
C391 C385 1.428 . S
C391 O394 1.301 . S
C391 O395 1.282 . S
O392 U374 2.441 . S
O392 C378 1.249 . S
O393 U374 2.420 . S
O393 C378 1.202 . S
O394 U374 2.455 1_556 S
O394 C391 1.301 . S
O395 U374 2.449 1_556 S
O395 C391 1.282 . S
H396 C369 0.931 . S
H397 C371 0.929 . S
H398 C372 0.930 . S
H399 C373 0.931 . S
H400 C380 0.932 . S
H401 C381 0.930 . S
H402 C382 0.929 . S
H403 C384 0.930 . S
H404 C386 0.932 . S
H405 C387 0.929 . S
H406 C388 0.928 . S
H407 C390 0.932 . S
C408 C409 1.349 . S
C408 C410 1.327 . S
C408 H433 0.950 . S
C409 C408 1.349 . S
C409 C425 1.349 . S
C410 C408 1.327 . S
C410 C429 1.429 . S
C410 H434 0.950 . S
C411 C428 1.574 . S
C411 C430 1.368 . S
C411 H435 0.949 . S
H412 C416 0.949 . S
C413 C414 1.349 . S
C413 C415 1.327 . S
C413 H436 0.950 . S
C414 C413 1.349 . S
C414 C426 1.349 . S
C415 C413 1.327 . S
C415 C431 1.429 . S
C415 H437 0.950 . S
C416 H412 0.949 . S
C416 C424 1.574 . S
C416 C432 1.368 . S
H417 C425 0.950 . S
H418 C423 0.950 . S
H419 C424 0.949 . S
H420 C426 0.950 . S
H421 C427 0.950 . S
H422 C428 0.949 . S
C423 H418 0.950 . S
C423 C425 1.327 . S
C423 C429 1.429 . S
C424 C416 1.574 . S
C424 H419 0.949 . S
C424 C430 1.368 . S
C425 C409 1.349 . S
C425 H417 0.950 . S
C425 C423 1.327 . S
C426 C414 1.349 . S
C426 H420 0.950 . S
C426 C427 1.327 . S
C427 H421 0.950 . S
C427 C426 1.327 . S
C427 C431 1.429 . S
C428 C411 1.574 . S
C428 H422 0.949 . S
C428 C432 1.368 . S
C429 C410 1.429 . S
C429 C423 1.429 . S
C429 C430 1.523 . S
C430 C411 1.368 . S
C430 C424 1.368 . S
C430 C429 1.523 . S
C431 C415 1.429 . S
C431 C427 1.429 . S
C431 C432 1.523 . S
C432 C416 1.368 . S
C432 C428 1.368 . S
C432 C431 1.523 . S
H433 C408 0.950 . S
H434 C410 0.950 . S
H435 C411 0.949 . S
H436 C413 0.950 . S
H437 C415 0.950 . S
C438 C439 1.349 . S
C438 C440 1.327 . S
C438 H463 0.950 . S
C439 C438 1.349 . S
C439 C455 1.349 . S
C440 C438 1.327 . S
C440 C459 1.429 . S
C440 H464 0.950 . S
C441 C458 1.574 . S
C441 C460 1.368 . S
C441 H465 0.949 . S
H442 C446 0.949 . S
C443 C444 1.349 . S
C443 C445 1.327 . S
C443 H466 0.950 . S
C444 C443 1.349 . S
C444 C456 1.349 . S
C445 C443 1.327 . S
C445 C461 1.429 . S
C445 H467 0.950 . S
C446 H442 0.949 . S
C446 C454 1.574 . S
C446 C462 1.368 . S
H447 C455 0.950 . S
H448 C453 0.950 . S
H449 C454 0.949 . S
H450 C456 0.950 . S
H451 C457 0.950 . S
H452 C458 0.949 . S
C453 H448 0.950 . S
C453 C455 1.327 . S
C453 C459 1.429 . S
C454 C446 1.574 . S
C454 H449 0.949 . S
C454 C460 1.368 . S
C455 C439 1.349 . S
C455 H447 0.950 . S
C455 C453 1.327 . S
C456 C444 1.349 . S
C456 H450 0.950 . S
C456 C457 1.327 . S
C457 H451 0.950 . S
C457 C456 1.327 . S
C457 C461 1.429 . S
C458 C441 1.574 . S
C458 H452 0.949 . S
C458 C462 1.368 . S
C459 C440 1.429 . S
C459 C453 1.429 . S
C459 C460 1.523 . S
C460 C441 1.368 . S
C460 C454 1.368 . S
C460 C459 1.523 . S
C461 C445 1.429 . S
C461 C457 1.429 . S
C461 C462 1.523 . S
C462 C446 1.368 . S
C462 C458 1.368 . S
C462 C461 1.523 . S
H463 C438 0.950 . S
H464 C440 0.950 . S
H465 C441 0.949 . S
H466 C443 0.950 . S
H467 C445 0.950 . S
C468 C469 1.349 . S
C468 C470 1.327 . S
C468 H493 0.950 . S
C469 C468 1.349 . S
C469 C485 1.349 . S
C470 C468 1.327 . S
C470 C489 1.429 . S
C470 H494 0.950 . S
C471 C488 1.574 . S
C471 C490 1.368 . S
C471 H495 0.949 . S
H472 C476 0.949 . S
C473 C474 1.349 . S
C473 C475 1.327 . S
C473 H496 0.950 . S
C474 C473 1.349 . S
C474 C486 1.349 . S
C475 C473 1.327 . S
C475 C491 1.429 . S
C475 H497 0.950 . S
C476 H472 0.949 . S
C476 C484 1.574 . S
C476 C492 1.368 . S
H477 C485 0.950 . S
H478 C483 0.950 . S
H479 C484 0.949 . S
H480 C486 0.950 . S
H481 C487 0.950 . S
H482 C488 0.949 . S
C483 H478 0.950 . S
C483 C485 1.327 . S
C483 C489 1.429 . S
C484 C476 1.574 . S
C484 H479 0.949 . S
C484 C490 1.368 . S
C485 C469 1.349 . S
C485 H477 0.950 . S
C485 C483 1.327 . S
C486 C474 1.349 . S
C486 H480 0.950 . S
C486 C487 1.327 . S
C487 H481 0.950 . S
C487 C486 1.327 . S
C487 C491 1.429 . S
C488 C471 1.574 . S
C488 H482 0.949 . S
C488 C492 1.368 . S
C489 C470 1.429 . S
C489 C483 1.429 . S
C489 C490 1.523 . S
C490 C471 1.368 . S
C490 C484 1.368 . S
C490 C489 1.523 . S
C491 C475 1.429 . S
C491 C487 1.429 . S
C491 C492 1.523 . S
C492 C476 1.368 . S
C492 C488 1.368 . S
C492 C491 1.523 . S
H493 C468 0.950 . S
H494 C470 0.950 . S
H495 C471 0.949 . S
H496 C473 0.950 . S
H497 C475 0.950 . S
C498 C499 1.349 . S
C498 C500 1.327 . S
C498 H523 0.950 . S
C499 C498 1.349 . S
C499 C515 1.349 . S
C500 C498 1.327 . S
C500 C519 1.429 . S
C500 H524 0.950 . S
C501 C518 1.574 . S
C501 C520 1.368 . S
C501 H525 0.949 . S
H502 C506 0.949 . S
C503 C504 1.349 . S
C503 C505 1.327 . S
C503 H526 0.950 . S
C504 C503 1.349 . S
C504 C516 1.349 . S
C505 C503 1.327 . S
C505 C521 1.429 . S
C505 H527 0.950 . S
C506 H502 0.949 . S
C506 C514 1.574 . S
C506 C522 1.368 . S
H507 C515 0.950 . S
H508 C513 0.950 . S
H509 C514 0.949 . S
H510 C516 0.950 . S
H511 C517 0.950 . S
H512 C518 0.949 . S
C513 H508 0.950 . S
C513 C515 1.327 . S
C513 C519 1.429 . S
C514 C506 1.574 . S
C514 H509 0.949 . S
C514 C520 1.368 . S
C515 C499 1.349 . S
C515 H507 0.950 . S
C515 C513 1.327 . S
C516 C504 1.349 . S
C516 H510 0.950 . S
C516 C517 1.327 . S
C517 H511 0.950 . S
C517 C516 1.327 . S
C517 C521 1.429 . S
C518 C501 1.574 . S
C518 H512 0.949 . S
C518 C522 1.368 . S
C519 C500 1.429 . S
C519 C513 1.429 . S
C519 C520 1.523 . S
C520 C501 1.368 . S
C520 C514 1.368 . S
C520 C519 1.523 . S
C521 C505 1.429 . S
C521 C517 1.429 . S
C521 C522 1.523 . S
C522 C506 1.368 . S
C522 C518 1.368 . S
C522 C521 1.523 . S
H523 C498 0.950 . S
H524 C500 0.950 . S
H525 C501 0.949 . S
H526 C503 0.950 . S
H527 C505 0.950 . S
C528 C529 1.349 . S
C528 C530 1.327 . S
C528 H553 0.950 . S
C529 C528 1.349 . S
C529 C545 1.349 . S
C530 C528 1.327 . S
C530 C549 1.429 . S
C530 H554 0.950 . S
C531 C548 1.574 . S
C531 C550 1.368 . S
C531 H555 0.949 . S
H532 C536 0.949 . S
C533 C534 1.349 . S
C533 C535 1.327 . S
C533 H556 0.950 . S
C534 C533 1.349 . S
C534 C546 1.349 . S
C535 C533 1.327 . S
C535 C551 1.429 . S
C535 H557 0.950 . S
C536 H532 0.949 . S
C536 C544 1.574 . S
C536 C552 1.368 . S
H537 C545 0.950 . S
H538 C543 0.950 . S
H539 C544 0.949 . S
H540 C546 0.950 . S
H541 C547 0.950 . S
H542 C548 0.949 . S
C543 H538 0.950 . S
C543 C545 1.327 . S
C543 C549 1.429 . S
C544 C536 1.574 . S
C544 H539 0.949 . S
C544 C550 1.368 . S
C545 C529 1.349 . S
C545 H537 0.950 . S
C545 C543 1.327 . S
C546 C534 1.349 . S
C546 H540 0.950 . S
C546 C547 1.327 . S
C547 H541 0.950 . S
C547 C546 1.327 . S
C547 C551 1.429 . S
C548 C531 1.574 . S
C548 H542 0.949 . S
C548 C552 1.368 . S
C549 C530 1.429 . S
C549 C543 1.429 . S
C549 C550 1.523 . S
C550 C531 1.368 . S
C550 C544 1.368 . S
C550 C549 1.523 . S
C551 C535 1.429 . S
C551 C547 1.429 . S
C551 C552 1.523 . S
C552 C536 1.368 . S
C552 C548 1.368 . S
C552 C551 1.523 . S
H553 C528 0.950 . S
H554 C530 0.950 . S
H555 C531 0.949 . S
H556 C533 0.950 . S
H557 C535 0.950 . S
C558 C559 1.349 . S
C558 C560 1.327 . S
C558 H583 0.950 . S
C559 C558 1.349 . S
C559 C575 1.349 . S
C560 C558 1.327 . S
C560 C579 1.429 . S
C560 H584 0.950 . S
C561 C578 1.574 . S
C561 C580 1.368 . S
C561 H585 0.949 . S
H562 C566 0.949 . S
C563 C564 1.349 . S
C563 C565 1.327 . S
C563 H586 0.950 . S
C564 C563 1.349 . S
C564 C576 1.349 . S
C565 C563 1.327 . S
C565 C581 1.429 . S
C565 H587 0.950 . S
C566 H562 0.949 . S
C566 C574 1.574 . S
C566 C582 1.368 . S
H567 C575 0.950 . S
H568 C573 0.950 . S
H569 C574 0.949 . S
H570 C576 0.950 . S
H571 C577 0.950 . S
H572 C578 0.949 . S
C573 H568 0.950 . S
C573 C575 1.327 . S
C573 C579 1.429 . S
C574 C566 1.574 . S
C574 H569 0.949 . S
C574 C580 1.368 . S
C575 C559 1.349 . S
C575 H567 0.950 . S
C575 C573 1.327 . S
C576 C564 1.349 . S
C576 H570 0.950 . S
C576 C577 1.327 . S
C577 H571 0.950 . S
C577 C576 1.327 . S
C577 C581 1.429 . S
C578 C561 1.574 . S
C578 H572 0.949 . S
C578 C582 1.368 . S
C579 C560 1.429 . S
C579 C573 1.429 . S
C579 C580 1.523 . S
C580 C561 1.368 . S
C580 C574 1.368 . S
C580 C579 1.523 . S
C581 C565 1.429 . S
C581 C577 1.429 . S
C581 C582 1.523 . S
C582 C566 1.368 . S
C582 C578 1.368 . S
C582 C581 1.523 . S
H583 C558 0.950 . S
H584 C560 0.950 . S
H585 C561 0.949 . S
H586 C563 0.950 . S
H587 C565 0.950 . S
C588 C589 1.349 . S
C588 C590 1.327 . S
C588 H613 0.950 . S
C589 C588 1.349 . S
C589 C605 1.349 . S
C590 C588 1.327 . S
C590 C609 1.429 . S
C590 H614 0.950 . S
C591 C608 1.574 . S
C591 C610 1.368 . S
C591 H615 0.949 . S
H592 C596 0.949 . S
C593 C594 1.349 . S
C593 C595 1.327 . S
C593 H616 0.950 . S
C594 C593 1.349 . S
C594 C606 1.349 . S
C595 C593 1.327 . S
C595 C611 1.429 . S
C595 H617 0.950 . S
C596 H592 0.949 . S
C596 C604 1.574 . S
C596 C612 1.368 . S
H597 C605 0.950 . S
H598 C603 0.950 . S
H599 C604 0.949 . S
H600 C606 0.950 . S
H601 C607 0.950 . S
H602 C608 0.949 . S
C603 H598 0.950 . S
C603 C605 1.327 . S
C603 C609 1.429 . S
C604 C596 1.574 . S
C604 H599 0.949 . S
C604 C610 1.368 . S
C605 C589 1.349 . S
C605 H597 0.950 . S
C605 C603 1.327 . S
C606 C594 1.349 . S
C606 H600 0.950 . S
C606 C607 1.327 . S
C607 H601 0.950 . S
C607 C606 1.327 . S
C607 C611 1.429 . S
C608 C591 1.574 . S
C608 H602 0.949 . S
C608 C612 1.368 . S
C609 C590 1.429 . S
C609 C603 1.429 . S
C609 C610 1.523 . S
C610 C591 1.368 . S
C610 C604 1.368 . S
C610 C609 1.523 . S
C611 C595 1.429 . S
C611 C607 1.429 . S
C611 C612 1.523 . S
C612 C596 1.368 . S
C612 C608 1.368 . S
C612 C611 1.523 . S
H613 C588 0.950 . S
H614 C590 0.950 . S
H615 C591 0.949 . S
H616 C593 0.950 . S
H617 C595 0.950 . S
C618 C619 1.349 . S
C618 C620 1.327 . S
C618 H643 0.950 . S
C619 C618 1.349 . S
C619 C635 1.349 . S
C620 C618 1.327 . S
C620 C639 1.429 . S
C620 H644 0.950 . S
C621 C638 1.574 . S
C621 C640 1.368 . S
C621 H645 0.949 . S
H622 C626 0.949 . S
C623 C624 1.349 . S
C623 C625 1.327 . S
C623 H646 0.950 . S
C624 C623 1.349 . S
C624 C636 1.349 . S
C625 C623 1.327 . S
C625 C641 1.429 . S
C625 H647 0.950 . S
C626 H622 0.949 . S
C626 C634 1.574 . S
C626 C642 1.368 . S
H627 C635 0.950 . S
H628 C633 0.950 . S
H629 C634 0.949 . S
H630 C636 0.950 . S
H631 C637 0.950 . S
H632 C638 0.949 . S
C633 H628 0.950 . S
C633 C635 1.327 . S
C633 C639 1.429 . S
C634 C626 1.574 . S
C634 H629 0.949 . S
C634 C640 1.368 . S
C635 C619 1.349 . S
C635 H627 0.950 . S
C635 C633 1.327 . S
C636 C624 1.349 . S
C636 H630 0.950 . S
C636 C637 1.327 . S
C637 H631 0.950 . S
C637 C636 1.327 . S
C637 C641 1.429 . S
C638 C621 1.574 . S
C638 H632 0.949 . S
C638 C642 1.368 . S
C639 C620 1.429 . S
C639 C633 1.429 . S
C639 C640 1.523 . S
C640 C621 1.368 . S
C640 C634 1.368 . S
C640 C639 1.523 . S
C641 C625 1.429 . S
C641 C637 1.429 . S
C641 C642 1.523 . S
C642 C626 1.368 . S
C642 C638 1.368 . S
C642 C641 1.523 . S
H643 C618 0.950 . S
H644 C620 0.950 . S
H645 C621 0.949 . S
H646 C623 0.950 . S
H647 C625 0.950 . S
C648 C649 1.349 . S
C648 C650 1.327 . S
C648 H673 0.950 . S
C649 C648 1.349 . S
C649 C665 1.349 . S
C650 C648 1.327 . S
C650 C669 1.429 . S
C650 H674 0.950 . S
C651 C668 1.574 . S
C651 C670 1.368 . S
C651 H675 0.949 . S
H652 C656 0.949 . S
C653 C654 1.349 . S
C653 C655 1.327 . S
C653 H676 0.950 . S
C654 C653 1.349 . S
C654 C666 1.349 . S
C655 C653 1.327 . S
C655 C671 1.429 . S
C655 H677 0.950 . S
C656 H652 0.949 . S
C656 C664 1.574 . S
C656 C672 1.368 . S
H657 C665 0.950 . S
H658 C663 0.950 . S
H659 C664 0.949 . S
H660 C666 0.950 . S
H661 C667 0.950 . S
H662 C668 0.949 . S
C663 H658 0.950 . S
C663 C665 1.327 . S
C663 C669 1.429 . S
C664 C656 1.574 . S
C664 H659 0.949 . S
C664 C670 1.368 . S
C665 C649 1.349 . S
C665 H657 0.950 . S
C665 C663 1.327 . S
C666 C654 1.349 . S
C666 H660 0.950 . S
C666 C667 1.327 . S
C667 H661 0.950 . S
C667 C666 1.327 . S
C667 C671 1.429 . S
C668 C651 1.574 . S
C668 H662 0.949 . S
C668 C672 1.368 . S
C669 C650 1.429 . S
C669 C663 1.429 . S
C669 C670 1.523 . S
C670 C651 1.368 . S
C670 C664 1.368 . S
C670 C669 1.523 . S
C671 C655 1.429 . S
C671 C667 1.429 . S
C671 C672 1.523 . S
C672 C656 1.368 . S
C672 C668 1.368 . S
C672 C671 1.523 . S
H673 C648 0.950 . S
H674 C650 0.950 . S
H675 C651 0.949 . S
H676 C653 0.950 . S
H677 C655 0.950 . S
C678 C679 1.349 . S
C678 C680 1.327 . S
C678 H703 0.950 . S
C679 C678 1.349 . S
C679 C695 1.349 . S
C680 C678 1.327 . S
C680 C699 1.429 . S
C680 H704 0.950 . S
C681 C698 1.574 . S
C681 C700 1.368 . S
C681 H705 0.949 . S
H682 C686 0.949 . S
C683 C684 1.349 . S
C683 C685 1.327 . S
C683 H706 0.950 . S
C684 C683 1.349 . S
C684 C696 1.349 . S
C685 C683 1.327 . S
C685 C701 1.429 . S
C685 H707 0.950 . S
C686 H682 0.949 . S
C686 C694 1.574 . S
C686 C702 1.368 . S
H687 C695 0.950 . S
H688 C693 0.950 . S
H689 C694 0.949 . S
H690 C696 0.950 . S
H691 C697 0.950 . S
H692 C698 0.949 . S
C693 H688 0.950 . S
C693 C695 1.327 . S
C693 C699 1.429 . S
C694 C686 1.574 . S
C694 H689 0.949 . S
C694 C700 1.368 . S
C695 C679 1.349 . S
C695 H687 0.950 . S
C695 C693 1.327 . S
C696 C684 1.349 . S
C696 H690 0.950 . S
C696 C697 1.327 . S
C697 H691 0.950 . S
C697 C696 1.327 . S
C697 C701 1.429 . S
C698 C681 1.574 . S
C698 H692 0.949 . S
C698 C702 1.368 . S
C699 C680 1.429 . S
C699 C693 1.429 . S
C699 C700 1.523 . S
C700 C681 1.368 . S
C700 C694 1.368 . S
C700 C699 1.523 . S
C701 C685 1.429 . S
C701 C697 1.429 . S
C701 C702 1.523 . S
C702 C686 1.368 . S
C702 C698 1.368 . S
C702 C701 1.523 . S
H703 C678 0.950 . S
H704 C680 0.950 . S
H705 C681 0.949 . S
H706 C683 0.950 . S
H707 C685 0.950 . S
C708 C709 1.349 . S
C708 C710 1.327 . S
C708 H733 0.950 . S
C709 C708 1.349 . S
C709 C725 1.349 . S
C710 C708 1.327 . S
C710 C729 1.429 . S
C710 H734 0.950 . S
C711 C728 1.574 . S
C711 C730 1.368 . S
C711 H735 0.949 . S
H712 C716 0.949 . S
C713 C714 1.349 . S
C713 C715 1.327 . S
C713 H736 0.950 . S
C714 C713 1.349 . S
C714 C726 1.349 . S
C715 C713 1.327 . S
C715 C731 1.429 . S
C715 H737 0.950 . S
C716 H712 0.949 . S
C716 C724 1.574 . S
C716 C732 1.368 . S
H717 C725 0.950 . S
H718 C723 0.950 . S
H719 C724 0.949 . S
H720 C726 0.950 . S
H721 C727 0.950 . S
H722 C728 0.949 . S
C723 H718 0.950 . S
C723 C725 1.327 . S
C723 C729 1.429 . S
C724 C716 1.574 . S
C724 H719 0.949 . S
C724 C730 1.368 . S
C725 C709 1.349 . S
C725 H717 0.950 . S
C725 C723 1.327 . S
C726 C714 1.349 . S
C726 H720 0.950 . S
C726 C727 1.327 . S
C727 H721 0.950 . S
C727 C726 1.327 . S
C727 C731 1.429 . S
C728 C711 1.574 . S
C728 H722 0.949 . S
C728 C732 1.368 . S
C729 C710 1.429 . S
C729 C723 1.429 . S
C729 C730 1.523 . S
C730 C711 1.368 . S
C730 C724 1.368 . S
C730 C729 1.523 . S
C731 C715 1.429 . S
C731 C727 1.429 . S
C731 C732 1.523 . S
C732 C716 1.368 . S
C732 C728 1.368 . S
C732 C731 1.523 . S
H733 C708 0.950 . S
H734 C710 0.950 . S
H735 C711 0.949 . S
H736 C713 0.950 . S
H737 C715 0.950 . S
C738 C739 1.349 . S
C738 C740 1.327 . S
C738 H763 0.950 . S
C739 C738 1.349 . S
C739 C755 1.349 . S
C740 C738 1.327 . S
C740 C759 1.429 . S
C740 H764 0.950 . S
C741 C758 1.574 . S
C741 C760 1.368 . S
C741 H765 0.949 . S
H742 C746 0.949 . S
C743 C744 1.349 . S
C743 C745 1.327 . S
C743 H766 0.950 . S
C744 C743 1.349 . S
C744 C756 1.349 . S
C745 C743 1.327 . S
C745 C761 1.429 . S
C745 H767 0.950 . S
C746 H742 0.949 . S
C746 C754 1.574 . S
C746 C762 1.368 . S
H747 C755 0.950 . S
H748 C753 0.950 . S
H749 C754 0.949 . S
H750 C756 0.950 . S
H751 C757 0.950 . S
H752 C758 0.949 . S
C753 H748 0.950 . S
C753 C755 1.327 . S
C753 C759 1.429 . S
C754 C746 1.574 . S
C754 H749 0.949 . S
C754 C760 1.368 . S
C755 C739 1.349 . S
C755 H747 0.950 . S
C755 C753 1.327 . S
C756 C744 1.349 . S
C756 H750 0.950 . S
C756 C757 1.327 . S
C757 H751 0.950 . S
C757 C756 1.327 . S
C757 C761 1.429 . S
C758 C741 1.574 . S
C758 H752 0.949 . S
C758 C762 1.368 . S
C759 C740 1.429 . S
C759 C753 1.429 . S
C759 C760 1.523 . S
C760 C741 1.368 . S
C760 C754 1.368 . S
C760 C759 1.523 . S
C761 C745 1.429 . S
C761 C757 1.429 . S
C761 C762 1.523 . S
C762 C746 1.368 . S
C762 C758 1.368 . S
C762 C761 1.523 . S
H763 C738 0.950 . S
H764 C740 0.950 . S
H765 C741 0.949 . S
H766 C743 0.950 . S
H767 C745 0.950 . S
C768 C769 1.349 . S
C768 C770 1.327 . S
C768 H793 0.950 . S
C769 C768 1.349 . S
C769 C785 1.349 . S
C770 C768 1.327 . S
C770 C789 1.429 . S
C770 H794 0.950 . S
C771 C788 1.574 . S
C771 C790 1.368 . S
C771 H795 0.949 . S
H772 C776 0.949 . S
C773 C774 1.349 . S
C773 C775 1.327 . S
C773 H796 0.950 . S
C774 C773 1.349 . S
C774 C786 1.349 . S
C775 C773 1.327 . S
C775 C791 1.429 . S
C775 H797 0.950 . S
C776 H772 0.949 . S
C776 C784 1.574 . S
C776 C792 1.368 . S
H777 C785 0.950 . S
H778 C783 0.950 . S
H779 C784 0.949 . S
H780 C786 0.950 . S
H781 C787 0.950 . S
H782 C788 0.949 . S
C783 H778 0.950 . S
C783 C785 1.327 . S
C783 C789 1.429 . S
C784 C776 1.574 . S
C784 H779 0.949 . S
C784 C790 1.368 . S
C785 C769 1.349 . S
C785 H777 0.950 . S
C785 C783 1.327 . S
C786 C774 1.349 . S
C786 H780 0.950 . S
C786 C787 1.327 . S
C787 H781 0.950 . S
C787 C786 1.327 . S
C787 C791 1.429 . S
C788 C771 1.574 . S
C788 H782 0.949 . S
C788 C792 1.368 . S
C789 C770 1.429 . S
C789 C783 1.429 . S
C789 C790 1.523 . S
C790 C771 1.368 . S
C790 C784 1.368 . S
C790 C789 1.523 . S
C791 C775 1.429 . S
C791 C787 1.429 . S
C791 C792 1.523 . S
C792 C776 1.368 . S
C792 C788 1.368 . S
C792 C791 1.523 . S
H793 C768 0.950 . S
H794 C770 0.950 . S
H795 C771 0.949 . S
H796 C773 0.950 . S
H797 C775 0.950 . S
C798 C799 1.349 . S
C798 C800 1.327 . S
C798 H823 0.950 . S
C799 C798 1.349 . S
C799 C815 1.349 . S
C800 C798 1.327 . S
C800 C819 1.429 . S
C800 H824 0.950 . S
C801 C818 1.574 . S
C801 C820 1.368 . S
C801 H825 0.949 . S
H802 C806 0.949 . S
C803 C804 1.349 . S
C803 C805 1.327 . S
C803 H826 0.950 . S
C804 C803 1.349 . S
C804 C816 1.349 . S
C805 C803 1.327 . S
C805 C821 1.429 . S
C805 H827 0.950 . S
C806 H802 0.949 . S
C806 C814 1.574 . S
C806 C822 1.368 . S
H807 C815 0.950 . S
H808 C813 0.950 . S
H809 C814 0.949 . S
H810 C816 0.950 . S
H811 C817 0.950 . S
H812 C818 0.949 . S
C813 H808 0.950 . S
C813 C815 1.327 . S
C813 C819 1.429 . S
C814 C806 1.574 . S
C814 H809 0.949 . S
C814 C820 1.368 . S
C815 C799 1.349 . S
C815 H807 0.950 . S
C815 C813 1.327 . S
C816 C804 1.349 . S
C816 H810 0.950 . S
C816 C817 1.327 . S
C817 H811 0.950 . S
C817 C816 1.327 . S
C817 C821 1.429 . S
C818 C801 1.574 . S
C818 H812 0.949 . S
C818 C822 1.368 . S
C819 C800 1.429 . S
C819 C813 1.429 . S
C819 C820 1.523 . S
C820 C801 1.368 . S
C820 C814 1.368 . S
C820 C819 1.523 . S
C821 C805 1.429 . S
C821 C817 1.429 . S
C821 C822 1.523 . S
C822 C806 1.368 . S
C822 C818 1.368 . S
C822 C821 1.523 . S
H823 C798 0.950 . S
H824 C800 0.950 . S
H825 C801 0.949 . S
H826 C803 0.950 . S
H827 C805 0.950 . S
C828 C829 1.349 . S
C828 C830 1.327 . S
C828 H853 0.950 . S
C829 C828 1.349 . S
C829 C845 1.349 . S
C830 C828 1.327 . S
C830 C849 1.429 . S
C830 H854 0.950 . S
C831 C848 1.574 . S
C831 C850 1.368 . S
C831 H855 0.949 . S
H832 C836 0.949 . S
C833 C834 1.349 . S
C833 C835 1.327 . S
C833 H856 0.950 . S
C834 C833 1.349 . S
C834 C846 1.349 . S
C835 C833 1.327 . S
C835 C851 1.429 . S
C835 H857 0.950 . S
C836 H832 0.949 . S
C836 C844 1.574 . S
C836 C852 1.368 . S
H837 C845 0.950 . S
H838 C843 0.950 . S
H839 C844 0.949 . S
H840 C846 0.950 . S
H841 C847 0.950 . S
H842 C848 0.949 . S
C843 H838 0.950 . S
C843 C845 1.327 . S
C843 C849 1.429 . S
C844 C836 1.574 . S
C844 H839 0.949 . S
C844 C850 1.368 . S
C845 C829 1.349 . S
C845 H837 0.950 . S
C845 C843 1.327 . S
C846 C834 1.349 . S
C846 H840 0.950 . S
C846 C847 1.327 . S
C847 H841 0.950 . S
C847 C846 1.327 . S
C847 C851 1.429 . S
C848 C831 1.574 . S
C848 H842 0.949 . S
C848 C852 1.368 . S
C849 C830 1.429 . S
C849 C843 1.429 . S
C849 C850 1.523 . S
C850 C831 1.368 . S
C850 C844 1.368 . S
C850 C849 1.523 . S
C851 C835 1.429 . S
C851 C847 1.429 . S
C851 C852 1.523 . S
C852 C836 1.368 . S
C852 C848 1.368 . S
C852 C851 1.523 . S
H853 C828 0.950 . S
H854 C830 0.950 . S
H855 C831 0.949 . S
H856 C833 0.950 . S
H857 C835 0.950 . S
C858 C859 1.349 . S
C858 C860 1.327 . S
C858 H883 0.950 . S
C859 C858 1.349 . S
C859 C875 1.349 . S
C860 C858 1.327 . S
C860 C879 1.429 . S
C860 H884 0.950 . S
C861 C878 1.574 . S
C861 C880 1.368 . S
C861 H885 0.949 . S
H862 C866 0.949 . S
C863 C864 1.349 . S
C863 C865 1.327 . S
C863 H886 0.950 . S
C864 C863 1.349 . S
C864 C876 1.349 . S
C865 C863 1.327 . S
C865 C881 1.429 . S
C865 H887 0.950 . S
C866 H862 0.949 . S
C866 C874 1.574 . S
C866 C882 1.368 . S
H867 C875 0.950 . S
H868 C873 0.950 . S
H869 C874 0.949 . S
H870 C876 0.950 . S
H871 C877 0.950 . S
H872 C878 0.949 . S
C873 H868 0.950 . S
C873 C875 1.327 . S
C873 C879 1.429 . S
C874 C866 1.574 . S
C874 H869 0.949 . S
C874 C880 1.368 . S
C875 C859 1.349 . S
C875 H867 0.950 . S
C875 C873 1.327 . S
C876 C864 1.349 . S
C876 H870 0.950 . S
C876 C877 1.327 . S
C877 H871 0.950 . S
C877 C876 1.327 . S
C877 C881 1.429 . S
C878 C861 1.574 . S
C878 H872 0.949 . S
C878 C882 1.368 . S
C879 C860 1.429 . S
C879 C873 1.429 . S
C879 C880 1.523 . S
C880 C861 1.368 . S
C880 C874 1.368 . S
C880 C879 1.523 . S
C881 C865 1.429 . S
C881 C877 1.429 . S
C881 C882 1.523 . S
C882 C866 1.368 . S
C882 C878 1.368 . S
C882 C881 1.523 . S
H883 C858 0.950 . S
H884 C860 0.950 . S
H885 C861 0.949 . S
H886 C863 0.950 . S
H887 C865 0.950 . S
C888 C889 1.349 . S
C888 C890 1.327 . S
C888 H913 0.950 . S
C889 C888 1.349 . S
C889 C905 1.349 1_554 S
C890 C888 1.327 . S
C890 C909 1.429 . S
C890 H914 0.950 . S
C891 C908 1.574 . S
C891 C910 1.368 1_556 S
C891 H915 0.949 . S
H892 C896 0.949 . S
C893 C894 1.349 1_556 S
C893 C895 1.327 . S
C893 H916 0.950 . S
C894 C893 1.349 1_554 S
C894 C906 1.349 . S
C895 C893 1.327 . S
C895 C911 1.429 1_556 S
C895 H917 0.950 . S
C896 H892 0.949 . S
C896 C904 1.574 . S
C896 C912 1.368 . S
H897 C905 0.950 . S
H898 C903 0.950 . S
H899 C904 0.949 . S
H900 C906 0.950 . S
H901 C907 0.950 . S
H902 C908 0.949 . S
C903 H898 0.950 . S
C903 C905 1.327 . S
C903 C909 1.429 1_556 S
C904 C896 1.574 . S
C904 H899 0.949 . S
C904 C910 1.368 . S
C905 C889 1.349 1_556 S
C905 H897 0.950 . S
C905 C903 1.327 . S
C906 C894 1.349 . S
C906 H900 0.950 . S
C906 C907 1.327 . S
C907 H901 0.950 . S
C907 C906 1.327 . S
C907 C911 1.429 . S
C908 C891 1.574 . S
C908 H902 0.949 . S
C908 C912 1.368 1_556 S
C909 C890 1.429 . S
C909 C903 1.429 1_554 S
C909 C910 1.523 . S
C910 C891 1.368 1_554 S
C910 C904 1.368 . S
C910 C909 1.523 . S
C911 C895 1.429 1_554 S
C911 C907 1.429 . S
C911 C912 1.523 . S
C912 C896 1.368 . S
C912 C908 1.368 1_554 S
C912 C911 1.523 . S
H913 C888 0.950 . S
H914 C890 0.950 . S
H915 C891 0.949 . S
H916 C893 0.950 . S
H917 C895 0.950 . S
C918 C919 1.349 . S
C918 C920 1.327 . S
C918 H943 0.950 . S
C919 C918 1.349 . S
C919 C935 1.349 . S
C920 C918 1.327 . S
C920 C939 1.429 . S
C920 H944 0.950 . S
C921 C938 1.574 . S
C921 C940 1.368 . S
C921 H945 0.949 . S
H922 C926 0.949 . S
C923 C924 1.349 . S
C923 C925 1.327 . S
C923 H946 0.950 . S
C924 C923 1.349 . S
C924 C936 1.349 . S
C925 C923 1.327 . S
C925 C941 1.429 . S
C925 H947 0.950 . S
C926 H922 0.949 . S
C926 C934 1.574 . S
C926 C942 1.368 . S
H927 C935 0.950 . S
H928 C933 0.950 . S
H929 C934 0.949 . S
H930 C936 0.950 . S
H931 C937 0.950 . S
H932 C938 0.949 . S
C933 H928 0.950 . S
C933 C935 1.327 . S
C933 C939 1.429 . S
C934 C926 1.574 . S
C934 H929 0.949 . S
C934 C940 1.368 . S
C935 C919 1.349 . S
C935 H927 0.950 . S
C935 C933 1.327 . S
C936 C924 1.349 . S
C936 H930 0.950 . S
C936 C937 1.327 . S
C937 H931 0.950 . S
C937 C936 1.327 . S
C937 C941 1.429 . S
C938 C921 1.574 . S
C938 H932 0.949 . S
C938 C942 1.368 . S
C939 C920 1.429 . S
C939 C933 1.429 . S
C939 C940 1.523 . S
C940 C921 1.368 . S
C940 C934 1.368 . S
C940 C939 1.523 . S
C941 C925 1.429 . S
C941 C937 1.429 . S
C941 C942 1.523 . S
C942 C926 1.368 . S
C942 C938 1.368 . S
C942 C941 1.523 . S
H943 C918 0.950 . S
H944 C920 0.950 . S
H945 C921 0.949 . S
H946 C923 0.950 . S
H947 C925 0.950 . S
C948 C949 1.349 . S
C948 C950 1.327 . S
C948 H973 0.950 . S
C949 C948 1.349 . S
C949 C965 1.349 1_554 S
C950 C948 1.327 . S
C950 C969 1.429 . S
C950 H974 0.950 . S
C951 C968 1.574 . S
C951 C970 1.368 1_556 S
C951 H975 0.949 . S
H952 C956 0.949 . S
C953 C954 1.349 1_556 S
C953 C955 1.327 . S
C953 H976 0.950 . S
C954 C953 1.349 1_554 S
C954 C966 1.349 . S
C955 C953 1.327 . S
C955 C971 1.429 1_556 S
C955 H977 0.950 . S
C956 H952 0.949 . S
C956 C964 1.574 . S
C956 C972 1.368 . S
H957 C965 0.950 . S
H958 C963 0.950 . S
H959 C964 0.949 . S
H960 C966 0.950 . S
H961 C967 0.950 . S
H962 C968 0.949 . S
C963 H958 0.950 . S
C963 C965 1.327 . S
C963 C969 1.429 1_556 S
C964 C956 1.574 . S
C964 H959 0.949 . S
C964 C970 1.368 . S
C965 C949 1.349 1_556 S
C965 H957 0.950 . S
C965 C963 1.327 . S
C966 C954 1.349 . S
C966 H960 0.950 . S
C966 C967 1.327 . S
C967 H961 0.950 . S
C967 C966 1.327 . S
C967 C971 1.429 . S
C968 C951 1.574 . S
C968 H962 0.949 . S
C968 C972 1.368 1_556 S
C969 C950 1.429 . S
C969 C963 1.429 1_554 S
C969 C970 1.523 . S
C970 C951 1.368 1_554 S
C970 C964 1.368 . S
C970 C969 1.523 . S
C971 C955 1.429 1_554 S
C971 C967 1.429 . S
C971 C972 1.523 . S
C972 C956 1.368 . S
C972 C968 1.368 1_554 S
C972 C971 1.523 . S
H973 C948 0.950 . S
H974 C950 0.950 . S
H975 C951 0.949 . S
H976 C953 0.950 . S
H977 C955 0.950 . S
C978 C979 1.349 . S
C978 C980 1.327 . S
C978 H1003 0.950 . S
C979 C978 1.349 . S
C979 C995 1.349 . S
C980 C978 1.327 . S
C980 C999 1.429 . S
C980 H1004 0.950 . S
C981 C998 1.574 . S
C981 C1000 1.368 . S
C981 H1005 0.949 . S
H982 C986 0.949 . S
C983 C984 1.349 . S
C983 C985 1.327 . S
C983 H1006 0.950 . S
C984 C983 1.349 . S
C984 C996 1.349 . S
C985 C983 1.327 . S
C985 C1001 1.429 . S
C985 H1007 0.950 . S
C986 H982 0.949 . S
C986 C994 1.574 . S
C986 C1002 1.368 . S
H987 C995 0.950 . S
H988 C993 0.950 . S
H989 C994 0.949 . S
H990 C996 0.950 . S
H991 C997 0.950 . S
H992 C998 0.949 . S
C993 H988 0.950 . S
C993 C995 1.327 . S
C993 C999 1.429 . S
C994 C986 1.574 . S
C994 H989 0.949 . S
C994 C1000 1.368 . S
C995 C979 1.349 . S
C995 H987 0.950 . S
C995 C993 1.327 . S
C996 C984 1.349 . S
C996 H990 0.950 . S
C996 C997 1.327 . S
C997 H991 0.950 . S
C997 C996 1.327 . S
C997 C1001 1.429 . S
C998 C981 1.574 . S
C998 H992 0.949 . S
C998 C1002 1.368 . S
C999 C980 1.429 . S
C999 C993 1.429 . S
C999 C1000 1.523 . S
C1000 C981 1.368 . S
C1000 C994 1.368 . S
C1000 C999 1.523 . S
C1001 C985 1.429 . S
C1001 C997 1.429 . S
C1001 C1002 1.523 . S
C1002 C986 1.368 . S
C1002 C998 1.368 . S
C1002 C1001 1.523 . S
H1003 C978 0.950 . S
H1004 C980 0.950 . S
H1005 C981 0.949 . S
H1006 C983 0.950 . S
H1007 C985 0.950 . S
C1008 C1009 1.349 . S
C1008 C1010 1.327 . S
C1008 H1033 0.950 . S
C1009 C1008 1.349 . S
C1009 C1025 1.349 . S
C1010 C1008 1.327 . S
C1010 C1029 1.429 . S
C1010 H1034 0.950 . S
C1011 C1028 1.574 . S
C1011 C1030 1.368 . S
C1011 H1035 0.949 . S
H1012 C1016 0.949 . S
C1013 C1014 1.349 . S
C1013 C1015 1.327 . S
C1013 H1036 0.950 . S
C1014 C1013 1.349 . S
C1014 C1026 1.349 . S
C1015 C1013 1.327 . S
C1015 C1031 1.429 . S
C1015 H1037 0.950 . S
C1016 H1012 0.949 . S
C1016 C1024 1.574 . S
C1016 C1032 1.368 . S
H1017 C1025 0.950 . S
H1018 C1023 0.950 . S
H1019 C1024 0.949 . S
H1020 C1026 0.950 . S
H1021 C1027 0.950 . S
H1022 C1028 0.949 . S
C1023 H1018 0.950 . S
C1023 C1025 1.327 . S
C1023 C1029 1.429 . S
C1024 C1016 1.574 . S
C1024 H1019 0.949 . S
C1024 C1030 1.368 . S
C1025 C1009 1.349 . S
C1025 H1017 0.950 . S
C1025 C1023 1.327 . S
C1026 C1014 1.349 . S
C1026 H1020 0.950 . S
C1026 C1027 1.327 . S
C1027 H1021 0.950 . S
C1027 C1026 1.327 . S
C1027 C1031 1.429 . S
C1028 C1011 1.574 . S
C1028 H1022 0.949 . S
C1028 C1032 1.368 . S
C1029 C1010 1.429 . S
C1029 C1023 1.429 . S
C1029 C1030 1.523 . S
C1030 C1011 1.368 . S
C1030 C1024 1.368 . S
C1030 C1029 1.523 . S
C1031 C1015 1.429 . S
C1031 C1027 1.429 . S
C1031 C1032 1.523 . S
C1032 C1016 1.368 . S
C1032 C1028 1.368 . S
C1032 C1031 1.523 . S
H1033 C1008 0.950 . S
H1034 C1010 0.950 . S
H1035 C1011 0.949 . S
H1036 C1013 0.950 . S
H1037 C1015 0.950 . S
C1038 C1039 1.349 1_556 S
C1038 C1040 1.327 . S
C1038 H1063 0.950 . S
C1039 C1038 1.349 1_554 S
C1039 C1055 1.349 . S
C1040 C1038 1.327 . S
C1040 C1059 1.429 1_556 S
C1040 H1064 0.950 . S
C1041 C1058 1.574 . S
C1041 C1060 1.368 . S
C1041 H1065 0.949 . S
H1042 C1046 0.949 . S
C1043 C1044 1.349 . S
C1043 C1045 1.327 . S
C1043 H1066 0.950 . S
C1044 C1043 1.349 . S
C1044 C1056 1.349 1_554 S
C1045 C1043 1.327 . S
C1045 C1061 1.429 . S
C1045 H1067 0.950 . S
C1046 H1042 0.949 . S
C1046 C1054 1.574 . S
C1046 C1062 1.368 1_556 S
H1047 C1055 0.950 . S
H1048 C1053 0.950 . S
H1049 C1054 0.949 . S
H1050 C1056 0.950 . S
H1051 C1057 0.950 . S
H1052 C1058 0.949 . S
C1053 H1048 0.950 . S
C1053 C1055 1.327 . S
C1053 C1059 1.429 . S
C1054 C1046 1.574 . S
C1054 H1049 0.949 . S
C1054 C1060 1.368 1_556 S
C1055 C1039 1.349 . S
C1055 H1047 0.950 . S
C1055 C1053 1.327 . S
C1056 C1044 1.349 1_556 S
C1056 H1050 0.950 . S
C1056 C1057 1.327 . S
C1057 H1051 0.950 . S
C1057 C1056 1.327 . S
C1057 C1061 1.429 1_556 S
C1058 C1041 1.574 . S
C1058 H1052 0.949 . S
C1058 C1062 1.368 . S
C1059 C1040 1.429 1_554 S
C1059 C1053 1.429 . S
C1059 C1060 1.523 . S
C1060 C1041 1.368 . S
C1060 C1054 1.368 1_554 S
C1060 C1059 1.523 . S
C1061 C1045 1.429 . S
C1061 C1057 1.429 1_554 S
C1061 C1062 1.523 . S
C1062 C1046 1.368 1_554 S
C1062 C1058 1.368 . S
C1062 C1061 1.523 . S
H1063 C1038 0.950 . S
H1064 C1040 0.950 . S
H1065 C1041 0.949 . S
H1066 C1043 0.950 . S
H1067 C1045 0.950 . S
C1068 C1069 1.349 . S
C1068 C1070 1.327 . S
C1068 H1093 0.950 . S
C1069 C1068 1.349 . S
C1069 C1085 1.349 . S
C1070 C1068 1.327 . S
C1070 C1089 1.429 . S
C1070 H1094 0.950 . S
C1071 C1088 1.574 . S
C1071 C1090 1.368 . S
C1071 H1095 0.949 . S
H1072 C1076 0.949 . S
C1073 C1074 1.349 . S
C1073 C1075 1.327 . S
C1073 H1096 0.950 . S
C1074 C1073 1.349 . S
C1074 C1086 1.349 . S
C1075 C1073 1.327 . S
C1075 C1091 1.429 . S
C1075 H1097 0.950 . S
C1076 H1072 0.949 . S
C1076 C1084 1.574 . S
C1076 C1092 1.368 . S
H1077 C1085 0.950 . S
H1078 C1083 0.950 . S
H1079 C1084 0.949 . S
H1080 C1086 0.950 . S
H1081 C1087 0.950 . S
H1082 C1088 0.949 . S
C1083 H1078 0.950 . S
C1083 C1085 1.327 . S
C1083 C1089 1.429 . S
C1084 C1076 1.574 . S
C1084 H1079 0.949 . S
C1084 C1090 1.368 . S
C1085 C1069 1.349 . S
C1085 H1077 0.950 . S
C1085 C1083 1.327 . S
C1086 C1074 1.349 . S
C1086 H1080 0.950 . S
C1086 C1087 1.327 . S
C1087 H1081 0.950 . S
C1087 C1086 1.327 . S
C1087 C1091 1.429 . S
C1088 C1071 1.574 . S
C1088 H1082 0.949 . S
C1088 C1092 1.368 . S
C1089 C1070 1.429 . S
C1089 C1083 1.429 . S
C1089 C1090 1.523 . S
C1090 C1071 1.368 . S
C1090 C1084 1.368 . S
C1090 C1089 1.523 . S
C1091 C1075 1.429 . S
C1091 C1087 1.429 . S
C1091 C1092 1.523 . S
C1092 C1076 1.368 . S
C1092 C1088 1.368 . S
C1092 C1091 1.523 . S
H1093 C1068 0.950 . S
H1094 C1070 0.950 . S
H1095 C1071 0.949 . S
H1096 C1073 0.950 . S
H1097 C1075 0.950 . S
C1098 C1099 1.349 1_556 S
C1098 C1100 1.327 . S
C1098 H1123 0.950 . S
C1099 C1098 1.349 1_554 S
C1099 C1115 1.349 . S
C1100 C1098 1.327 . S
C1100 C1119 1.429 1_556 S
C1100 H1124 0.950 . S
C1101 C1118 1.574 . S
C1101 C1120 1.368 . S
C1101 H1125 0.949 . S
H1102 C1106 0.949 . S
C1103 C1104 1.349 . S
C1103 C1105 1.327 . S
C1103 H1126 0.950 . S
C1104 C1103 1.349 . S
C1104 C1116 1.349 1_554 S
C1105 C1103 1.327 . S
C1105 C1121 1.429 . S
C1105 H1127 0.950 . S
C1106 H1102 0.949 . S
C1106 C1114 1.574 . S
C1106 C1122 1.368 1_556 S
H1107 C1115 0.950 . S
H1108 C1113 0.950 . S
H1109 C1114 0.949 . S
H1110 C1116 0.950 . S
H1111 C1117 0.950 . S
H1112 C1118 0.949 . S
C1113 H1108 0.950 . S
C1113 C1115 1.327 . S
C1113 C1119 1.429 . S
C1114 C1106 1.574 . S
C1114 H1109 0.949 . S
C1114 C1120 1.368 1_556 S
C1115 C1099 1.349 . S
C1115 H1107 0.950 . S
C1115 C1113 1.327 . S
C1116 C1104 1.349 1_556 S
C1116 H1110 0.950 . S
C1116 C1117 1.327 . S
C1117 H1111 0.950 . S
C1117 C1116 1.327 . S
C1117 C1121 1.429 1_556 S
C1118 C1101 1.574 . S
C1118 H1112 0.949 . S
C1118 C1122 1.368 . S
C1119 C1100 1.429 1_554 S
C1119 C1113 1.429 . S
C1119 C1120 1.523 . S
C1120 C1101 1.368 . S
C1120 C1114 1.368 1_554 S
C1120 C1119 1.523 . S
C1121 C1105 1.429 . S
C1121 C1117 1.429 1_554 S
C1121 C1122 1.523 . S
C1122 C1106 1.368 1_554 S
C1122 C1118 1.368 . S
C1122 C1121 1.523 . S
H1123 C1098 0.950 . S
H1124 C1100 0.950 . S
H1125 C1101 0.949 . S
H1126 C1103 0.950 . S
H1127 C1105 0.950 . S
C409 C5 1.445 . S
C414 C210 1.461 . S
C439 C31 1.451 . S
C444 C90 1.467 . S
C474 C149 1.432 . S
C469 C53 1.466 . S
C499 C71 1.460 . S
C504 C189 1.426 . S
C534 C309 1.426 . S
C529 C75 1.459 . S
C564 C349 1.432 . S
C559 C9 1.466 . S
C594 C370 1.467 . S
C589 C27 1.451 . S
C624 C250 1.461 . S
C619 C49 1.445 . S
C649 C51 1.445 . S
C654 C130 1.428 . S
C679 C72 1.451 . S
C684 C170 1.434 . S
C709 C6 1.466 . S
C714 C229 1.468 . S
C744 C109 1.462 . S
C739 C29 1.460 . S
C769 C28 1.459 . S
C774 C389 1.462 . S
C804 C269 1.468 . S
C799 C50 1.466 . S
C834 C290 1.434 . S
C829 C73 1.451 . S
C859 C7 1.445 . S
C864 C330 1.429 . S
C894 C103 1.500 . S
C889 C4 1.497 . S
C924 C143 1.497 . S
C919 C30 1.497 . S
C949 C52 1.497 . S
C954 C183 1.497 . S
C979 C70 1.497 . S
C984 C223 1.500 . S
C1014 C263 1.500 . S
C1009 C74 1.497 . S
C1039 C8 1.497 . S
C1044 C303 1.497 . S
C1069 C26 1.496 . S
C1074 C343 1.497 . S
C1099 C48 1.497 . S
C1104 C383 1.500 . S
