# Generated by pormake.
# Topology ctn, (3,4)-cn, num edge types: 1
# Building blocks:
#     Node 0, Type 0, BuildingBlock: WUSLED_clean_sbu_0, # of connection points: 3
#     Node 1, Type 0, BuildingBlock: WUSLED_clean_sbu_0, # of connection points: 3
#     Node 2, Type 0, BuildingBlock: WUSLED_clean_sbu_0, # of connection points: 3
#     Node 3, Type 0, BuildingBlock: WUSLED_clean_sbu_0, # of connection points: 3
#     Node 4, Type 0, BuildingBlock: WUSLED_clean_sbu_0, # of connection points: 3
#     Node 5, Type 0, BuildingBlock: WUSLED_clean_sbu_0, # of connection points: 3
#     Node 6, Type 0, BuildingBlock: WUSLED_clean_sbu_0, # of connection points: 3
#     Node 7, Type 0, BuildingBlock: WUSLED_clean_sbu_0, # of connection points: 3
#     Node 8, Type 0, BuildingBlock: WUSLED_clean_sbu_0, # of connection points: 3
#     Node 9, Type 0, BuildingBlock: WUSLED_clean_sbu_0, # of connection points: 3
#     Node 10, Type 0, BuildingBlock: WUSLED_clean_sbu_0, # of connection points: 3
#     Node 11, Type 0, BuildingBlock: WUSLED_clean_sbu_0, # of connection points: 3
#     Node 12, Type 0, BuildingBlock: WUSLED_clean_sbu_0, # of connection points: 3
#     Node 13, Type 0, BuildingBlock: WUSLED_clean_sbu_0, # of connection points: 3
#     Node 14, Type 0, BuildingBlock: WUSLED_clean_sbu_0, # of connection points: 3
#     Node 15, Type 0, BuildingBlock: WUSLED_clean_sbu_0, # of connection points: 3
#     Node 16, Type 1, BuildingBlock: NAHDIM_clean_sbu_0, # of connection points: 4
#     Node 17, Type 1, BuildingBlock: NAHDIM_clean_sbu_0, # of connection points: 4
#     Node 18, Type 1, BuildingBlock: NAHDIM_clean_sbu_0, # of connection points: 4
#     Node 19, Type 1, BuildingBlock: NAHDIM_clean_sbu_0, # of connection points: 4
#     Node 20, Type 1, BuildingBlock: NAHDIM_clean_sbu_0, # of connection points: 4
#     Node 21, Type 1, BuildingBlock: NAHDIM_clean_sbu_0, # of connection points: 4
#     Node 22, Type 1, BuildingBlock: NAHDIM_clean_sbu_0, # of connection points: 4
#     Node 23, Type 1, BuildingBlock: NAHDIM_clean_sbu_0, # of connection points: 4
#     Node 24, Type 1, BuildingBlock: NAHDIM_clean_sbu_0, # of connection points: 4
#     Node 25, Type 1, BuildingBlock: NAHDIM_clean_sbu_0, # of connection points: 4
#     Node 26, Type 1, BuildingBlock: NAHDIM_clean_sbu_0, # of connection points: 4
#     Node 27, Type 1, BuildingBlock: NAHDIM_clean_sbu_0, # of connection points: 4
#     Edge 28, Type (0, 1), None
#     Edge 29, Type (0, 1), None
#     Edge 30, Type (0, 1), None
#     Edge 31, Type (0, 1), None
#     Edge 32, Type (0, 1), None
#     Edge 33, Type (0, 1), None
#     Edge 34, Type (0, 1), None
#     Edge 35, Type (0, 1), None
#     Edge 36, Type (0, 1), None
#     Edge 37, Type (0, 1), None
#     Edge 38, Type (0, 1), None
#     Edge 39, Type (0, 1), None
#     Edge 40, Type (0, 1), None
#     Edge 41, Type (0, 1), None
#     Edge 42, Type (0, 1), None
#     Edge 43, Type (0, 1), None
#     Edge 44, Type (0, 1), None
#     Edge 45, Type (0, 1), None
#     Edge 46, Type (0, 1), None
#     Edge 47, Type (0, 1), None
#     Edge 48, Type (0, 1), None
#     Edge 49, Type (0, 1), None
#     Edge 50, Type (0, 1), None
#     Edge 51, Type (0, 1), None
#     Edge 52, Type (0, 1), None
#     Edge 53, Type (0, 1), None
#     Edge 54, Type (0, 1), None
#     Edge 55, Type (0, 1), None
#     Edge 56, Type (0, 1), None
#     Edge 57, Type (0, 1), None
#     Edge 58, Type (0, 1), None
#     Edge 59, Type (0, 1), None
#     Edge 60, Type (0, 1), None
#     Edge 61, Type (0, 1), None
#     Edge 62, Type (0, 1), None
#     Edge 63, Type (0, 1), None
#     Edge 64, Type (0, 1), None
#     Edge 65, Type (0, 1), None
#     Edge 66, Type (0, 1), None
#     Edge 67, Type (0, 1), None
#     Edge 68, Type (0, 1), None
#     Edge 69, Type (0, 1), None
#     Edge 70, Type (0, 1), None
#     Edge 71, Type (0, 1), None
#     Edge 72, Type (0, 1), None
#     Edge 73, Type (0, 1), None
#     Edge 74, Type (0, 1), None
#     Edge 75, Type (0, 1), None
# Relax obj value: 0.003
# Max RMSD: 0.032
# Mean RMSD: 0.019
data_MOF--net-ctn--node1-WUSLED_clean_sbu_0--node2-NAHDIM_clean_sbu_0--edge1-none
_symmetry_space_group_name_H-M    P1
_symmetry_Int_Tables_number       1
_symmetry_cell_setting            triclinic
loop_
_symmetry_equiv_pos_as_xyz
'x, y, z'
_cell_length_a     39.597912
_cell_length_b     39.867549
_cell_length_c     39.748225
_cell_angle_alpha  91.551979
_cell_angle_beta   89.919318
_cell_angle_gamma 92.234119
loop_
_atom_site_label
_atom_site_type_symbol
_atom_site_fract_x
_atom_site_fract_y
_atom_site_fract_z
_atom_type_partial_charge
C0 C 0.99804 0.08421 0.14017 0.0
C1 C 1.01062 0.05525 0.15413 0.0
C2 C 0.96858 0.05759 0.19894 0.0
C3 C 0.996 0.04203 0.18327 0.0
C4 C 0.9562 0.0867 0.18482 0.0
C5 C 0.97081 0.09984 0.15569 0.0
U6 U 0.06399 0.08328 0.07029 0.0
O7 O 0.05859 0.09144 1.01599 0.0
O8 O 0.09238 0.12482 0.04653 0.0
C9 C 0.07809 0.1189 1.01702 0.0
C10 C 1.01292 0.09821 0.10941 0.0
C11 C 0.06444 0.14828 1.00085 0.0
C12 C 0.02884 0.19667 1.00178 0.0
C13 C 0.04064 0.16819 1.01722 0.0
C14 C 0.06407 0.18525 0.95324 0.0
C15 C 0.04059 0.20567 0.96967 0.0
C16 C 0.07586 0.15687 0.96872 0.0
C17 C 0.13042 1.01547 0.07129 0.0
C18 C 0.17067 1.00557 0.0262 0.0
C19 C 0.17381 0.9747 0.07772 0.0
C20 C 0.14611 0.99162 0.09052 0.0
C21 C 0.18633 0.98132 0.04532 0.0
C22 C 0.14295 1.02255 0.03911 0.0
C23 C 0.10087 0.03232 0.08516 0.0
O24 O 0.04329 0.11238 0.11286 0.0
O25 O 1.00977 0.07885 0.08221 0.0
O26 O 0.07314 0.02924 0.06702 0.0
O27 O 0.10671 0.06291 0.09748 0.0
H28 H 0.03169 0.04286 0.14244 0.0
H29 H 1.00617 1.01961 0.19345 0.0
H30 H 0.93512 0.09932 0.19617 0.0
H31 H 0.96078 0.12221 0.14523 0.0
H32 H 1.01074 0.21176 1.01513 0.0
H33 H 0.03146 0.16186 0.04204 0.0
H34 H 0.07365 0.19136 0.92853 0.0
H35 H 0.09419 0.14176 0.95569 0.0
H36 H 0.17967 1.01132 1.0012 0.0
H37 H 0.18522 0.95623 0.09314 0.0
H38 H 0.13678 0.98589 0.11545 0.0
H39 H 0.13117 0.041 0.02394 0.0
C40 C 0.28883 0.79455 0.15784 0.0
C41 C 0.30612 0.82481 0.16711 0.0
C42 C 0.29061 0.84909 0.1139 0.0
C43 C 0.30696 0.85189 0.14534 0.0
C44 C 0.27405 0.81839 0.10449 0.0
C45 C 0.27315 0.79144 0.12629 0.0
U46 U 0.31846 0.74597 0.23366 0.0
O47 O 0.28825 0.72214 0.27369 0.0
O48 O 0.32013 0.6916 0.24075 0.0
C49 C 0.29721 0.69179 0.2647 0.0
C50 C 0.28586 0.76636 0.18097 0.0
C51 C 0.26954 0.66625 0.2612 0.0
C52 C 0.22678 0.63533 0.22772 0.0
C53 C 0.25212 0.66076 0.23069 0.0
C54 C 0.23561 0.62124 0.28589 0.0
C55 C 0.21843 0.6151 0.25524 0.0
C56 C 0.26094 0.64654 0.28878 0.0
C57 C 0.39628 0.77579 0.28432 0.0
C58 C 0.45357 0.78159 0.30614 0.0
C59 C 0.40787 0.76309 0.34262 0.0
C60 C 0.38507 0.76494 0.31592 0.0
C61 C 0.44234 0.77172 0.33812 0.0
C62 C 0.43072 0.7837 0.27956 0.0
C63 C 0.37252 0.77937 0.25621 0.0
O64 O 0.30983 0.74449 0.17885 0.0
O65 O 0.27758 0.77427 0.21215 0.0
O66 O 0.3416 0.78721 0.26454 0.0
O67 O 0.37355 0.75612 0.2322 0.0
H68 H 0.31853 0.82763 0.19136 0.0
H69 H 0.32002 0.87512 0.15333 0.0
H70 H 0.26129 0.81526 0.08047 0.0
H71 H 0.25975 0.76825 0.11868 0.0
H72 H 0.21399 0.63134 0.20379 0.0
H73 H 0.25835 0.67587 0.20914 0.0
H74 H 0.22981 0.60623 0.30762 0.0
H75 H 0.27408 0.65051 0.31254 0.0
H76 H 0.47992 0.78843 0.30178 0.0
H77 H 0.39841 0.75526 0.36687 0.0
H78 H 0.35864 0.7583 0.32012 0.0
H79 H 0.43989 0.79194 0.25532 0.0
C80 C 0.98001 0.42625 0.99995 0.0
C81 C 1.01376 0.41936 1.00691 0.0
C82 C 1.01003 0.37008 0.96928 0.0
C83 C 0.02869 0.39159 0.99161 0.0
C84 C 0.97595 0.37667 0.9631 0.0
C85 C 0.96114 0.40455 0.97825 0.0
U86 U 0.97702 0.49459 0.0683 0.0
O87 O 0.96733 0.54843 0.06517 0.0
O88 O 0.93397 0.51583 0.09532 0.0
C89 C 0.93938 0.54582 0.08293 0.0
C90 C 0.96429 0.45596 1.015 0.0
C91 C 0.90975 0.56128 0.06845 0.0
C92 C 0.86086 0.55915 0.03137 0.0
C93 C 0.88942 0.54417 0.04414 0.0
C94 C 0.87312 0.60867 0.0666 0.0
C95 C 0.85226 0.59152 0.04262 0.0
C96 C 0.90155 0.59365 0.07938 0.0
C97 C 0.04406 0.49448 0.13868 0.0
C98 C 0.04137 0.50949 0.19836 0.0
C99 C 0.09555 0.50877 0.17007 0.0
C100 C 0.07932 0.4993 0.13987 0.0
C101 C 0.07681 0.51332 0.19982 0.0
C102 C 0.02513 0.50026 0.16807 0.0
C103 C 0.02804 0.48132 0.10722 0.0
O104 O 0.94944 0.45134 0.04418 0.0
O105 O 0.98261 0.48415 1.01406 0.0
O106 O 0.03123 0.50042 0.08087 0.0
O107 O 0.99777 0.4669 0.11002 0.0
H108 H 0.02867 0.43568 0.02389 0.0
H109 H 0.05492 0.3872 0.99701 0.0
H110 H 0.96084 0.36064 0.94606 0.0
H111 H 0.935 0.40937 0.97276 0.0
H112 H 0.84541 0.54526 1.0129 0.0
H113 H 0.89549 0.51918 0.03528 0.0
H114 H 0.86732 0.6336 0.07582 0.0
H115 H 0.91703 0.60726 0.09805 0.0
H116 H 0.02616 0.513 0.22076 0.0
H117 H 0.12287 0.51154 0.17027 0.0
H118 H 0.09443 0.49495 0.11753 0.0
H119 H 0.99785 0.49692 0.16789 0.0
C120 C 0.73308 0.7575 0.17409 0.0
C121 C 0.76201 0.76974 0.15734 0.0
C122 C 0.75671 0.72353 0.11607 0.0
C123 C 0.77376 0.75288 0.12861 0.0
C124 C 0.72771 0.71136 0.13304 0.0
C125 C 0.71603 0.72824 0.16183 0.0
U126 U 0.7374 0.83193 0.23597 0.0
O127 O 0.69666 0.86032 0.25947 0.0
O128 O 0.73158 0.83364 0.29106 0.0
C129 C 0.70347 0.85007 0.28978 0.0
C130 C 0.72044 0.77521 0.20414 0.0
C131 C 0.67455 0.8347 0.30766 0.0
C132 C 0.63225 0.78938 0.31301 0.0
C133 C 0.66041 0.80352 0.29664 0.0
C134 C 0.6322 0.83734 0.35181 0.0
C135 C 0.61768 0.80621 0.34067 0.0
C136 C 0.66042 0.85145 0.33539 0.0
C137 C 0.80535 0.90205 0.22169 0.0
C138 C 0.83061 0.94217 0.26242 0.0
C139 C 0.83503 0.95264 0.20279 0.0
C140 C 0.8167 0.92263 0.19563 0.0
C141 C 0.84253 0.9626 0.23625 0.0
C142 C 0.81208 0.9122 0.25521 0.0
C143 C 0.78761 0.86977 0.21305 0.0
O144 O 0.74128 0.77723 0.22989 0.0
O145 O 0.70604 0.80365 0.19846 0.0
O146 O 0.75633 0.87159 0.20245 0.0
O147 O 0.79174 0.84511 0.23381 0.0
H148 H 0.77544 0.79238 0.16647 0.0
H149 H 0.79612 0.76298 0.11615 0.0
H150 H 0.714 0.68885 0.12406 0.0
H151 H 0.69362 0.71849 0.17449 0.0
H152 H 0.62173 0.7654 0.30376 0.0
H153 H 0.67102 0.79027 0.27518 0.0
H154 H 0.62161 0.85095 0.37303 0.0
H155 H 0.67103 0.87558 0.34417 0.0
H156 H 0.83583 0.94916 0.28847 0.0
H157 H 0.84376 0.96775 0.18203 0.0
H158 H 0.81173 0.91526 0.16961 0.0
H159 H 0.8034 0.8968 0.27578 0.0
C160 C 0.99965 0.9693 0.41223 0.0
C161 C 0.99614 1.00344 0.40563 0.0
C162 C 0.96474 0.98848 0.3543 0.0
C163 C 0.97874 1.01294 0.37696 0.0
C164 C 0.9693 0.95438 0.36053 0.0
C165 C 0.9865 0.94493 0.38925 0.0
U166 U 0.06629 0.97805 0.48258 0.0
O167 O 0.06009 0.97094 0.537 0.0
O168 O 0.09383 0.93897 0.5077 0.0
C169 C 0.07916 0.94469 0.53687 0.0
C170 C 1.01557 0.95838 0.44341 0.0
C171 C 0.06458 0.91487 0.55334 0.0
C172 C 0.02602 0.8659 0.55358 0.0
C173 C 0.03902 0.89463 0.53779 0.0
C174 C 0.06371 0.87772 0.60076 0.0
C175 C 0.03836 0.85701 0.5852 0.0
C176 C 0.07669 0.90635 0.58494 0.0
C177 C 0.13372 0.0492 0.48294 0.0
C178 C 0.18043 0.0901 0.47804 0.0
C179 C 0.17039 0.06245 0.53088 0.0
C180 C 0.14284 0.04425 0.5165 0.0
C181 C 0.18936 0.08576 0.51186 0.0
C182 C 0.15282 0.07199 0.46376 0.0
C183 C 0.10429 0.03103 0.46766 0.0
O184 O 0.046 0.94663 0.4402 0.0
O185 O 1.01227 0.9781 0.47018 0.0
O186 O 0.07588 0.03275 0.48468 0.0
O187 O 0.10981 1.00068 0.45572 0.0
H188 H 1.0063 1.02275 0.42291 0.0
H189 H 0.97582 0.03942 0.37285 0.0
H190 H 0.95893 0.93487 0.34362 0.0
H191 H 0.989 0.91847 0.39384 0.0
H192 H 1.0065 0.85056 0.5409 0.0
H193 H 0.02933 0.90093 0.51337 0.0
H194 H 0.0738 0.87168 0.62508 0.0
H195 H 0.09638 0.92175 0.59732 0.0
H196 H 0.19447 0.1078 0.46266 0.0
H197 H 0.17661 0.05843 0.55694 0.0
H198 H 0.12846 1.02656 0.53163 0.0
H199 H 0.14621 0.07601 0.43777 0.0
C200 C 0.22777 0.81223 0.88551 0.0
C201 C 0.25277 0.79809 0.90498 0.0
C202 C 0.25081 0.84508 0.94536 0.0
C203 C 0.26417 0.81435 0.93468 0.0
C204 C 0.22597 0.85927 0.92552 0.0
C205 C 0.21453 0.84292 0.89585 0.0
U206 U 0.23259 0.74202 0.81898 0.0
O207 O 0.192 0.71137 0.79418 0.0
O208 O 0.22603 0.74331 0.76409 0.0
C209 C 0.19835 0.724 0.76454 0.0
C210 C 0.21526 0.79509 0.85454 0.0
C211 C 0.16902 0.73736 0.7476 0.0
C212 C 0.12615 0.77904 0.74403 0.0
C213 C 0.15452 0.76682 0.75983 0.0
C214 C 0.12659 0.73249 0.70353 0.0
C215 C 0.11178 0.76194 0.71577 0.0
C216 C 0.155 0.72032 0.71935 0.0
C217 C 0.30061 0.67728 0.82511 0.0
C218 C 0.34298 0.63557 0.8318 0.0
C219 C 0.3084 0.6344 0.78149 0.0
C220 C 0.29161 0.66243 0.79383 0.0
C221 C 0.33441 0.62074 0.80027 0.0
C222 C 0.32622 0.66361 0.84407 0.0
C223 C 0.28381 0.70722 0.83804 0.0
O224 O 0.23588 0.79666 0.82865 0.0
O225 O 0.2014 0.76496 0.85849 0.0
O226 O 0.25285 0.70194 0.84919 0.0
O227 O 0.28717 0.73383 0.81934 0.0
H228 H 0.26334 0.77443 0.89726 0.0
H229 H 0.28338 0.80276 0.94929 0.0
H230 H 0.21516 0.88288 0.933 0.0
H231 H 0.19523 0.85417 0.88103 0.0
H232 H 0.11539 0.80176 0.75412 0.0
H233 H 0.16504 0.78024 0.78171 0.0
H234 H 0.11617 0.71873 0.68183 0.0
H235 H 0.1659 0.6975 0.70965 0.0
H236 H 0.36286 0.62572 0.84692 0.0
H237 H 0.30112 0.62359 0.75715 0.0
H238 H 0.27179 0.67266 0.77891 0.0
H239 H 0.33343 0.67478 0.86829 0.0
C240 C 0.98107 0.63415 0.55132 0.0
C241 C 1.01337 0.64711 0.54295 0.0
C242 C 1.00736 0.69356 0.58334 0.0
C243 C 0.02645 0.67651 0.5589 0.0
C244 C 0.97463 0.68091 0.59093 0.0
C245 C 0.96166 0.65141 0.57509 0.0
U246 U 0.98338 0.56664 0.48212 0.0
O247 O 0.978 0.51153 0.48482 0.0
O248 O 0.94236 0.53911 0.45475 0.0
C249 C 0.94982 0.51011 0.46731 0.0
C250 C 0.96764 0.60246 0.53582 0.0
C251 C 0.92147 0.48999 0.48169 0.0
C252 C 0.86509 0.48503 0.50605 0.0
C253 C 0.89233 0.50496 0.49435 0.0
C254 C 0.8962 0.43505 0.49372 0.0
C255 C 0.86657 0.4498 0.50552 0.0
C256 C 0.92329 0.45495 0.48185 0.0
C257 C 0.05052 0.5795 0.41203 0.0
C258 C 0.08256 0.54093 0.37707 0.0
C259 C 0.07392 0.59733 0.35855 0.0
C260 C 0.05547 0.60406 0.38775 0.0
C261 C 0.08805 0.56584 0.35301 0.0
C262 C 0.06392 0.54768 0.40634 0.0
C263 C 0.03292 0.58866 0.44356 0.0
O264 O 0.95261 0.60516 0.50662 0.0
O265 O 0.98804 0.57725 0.53648 0.0
O266 O 0.03755 0.56985 0.46973 0.0
O267 O 1.00155 0.59771 0.44035 0.0
H268 H 0.02864 0.63422 0.52442 0.0
H269 H 0.05168 0.68561 0.55237 0.0
H270 H 0.95922 0.6934 0.6096 0.0
H271 H 0.93661 0.64184 0.58172 0.0
H272 H 0.84272 0.49722 0.51509 0.0
H273 H 0.89039 0.532 0.49476 0.0
H274 H 0.89826 0.40803 0.49298 0.0
H275 H 0.94555 0.4429 0.4723 0.0
H276 H 0.09302 0.51638 0.37352 0.0
H277 H 0.07754 0.61709 0.34057 0.0
H278 H 0.04548 0.62879 0.39164 0.0
H279 H 0.06045 0.52822 0.42465 0.0
C280 C 0.78788 0.77502 0.89964 0.0
C281 C 0.77706 0.77922 0.93299 0.0
C282 C 0.79009 0.72138 0.94442 0.0
C283 C 0.77822 0.75272 0.95522 0.0
C284 C 0.80166 0.7175 0.91111 0.0
C285 C 0.80068 0.74414 0.88893 0.0
U286 U 0.81635 0.82306 0.82198 0.0
O287 O 0.78584 0.84485 0.78235 0.0
O288 O 0.82018 0.87728 0.81339 0.0
C289 C 0.79612 0.87572 0.79057 0.0
C290 C 0.78476 0.80277 0.87627 0.0
C291 C 0.76934 0.90018 0.79474 0.0
C292 C 0.73478 0.93625 0.8298 0.0
C293 C 0.75906 0.91172 0.82672 0.0
C294 C 0.72994 0.93706 0.76908 0.0
C295 C 0.72018 0.94943 0.80099 0.0
C296 C 0.75434 0.91276 0.76603 0.0
C297 C 0.89212 0.79287 0.7708 0.0
C298 C 0.94836 0.78407 0.7486 0.0
C299 C 0.90505 0.80462 0.71233 0.0
C300 C 0.88216 0.80401 0.73922 0.0
C301 C 0.93833 0.79432 0.71665 0.0
C302 C 0.92543 0.78328 0.77535 0.0
C303 C 0.86822 0.79034 0.79914 0.0
O304 O 0.80954 0.82569 0.87704 0.0
O305 O 0.77487 0.79407 0.84559 0.0
O306 O 0.83671 0.78181 0.79138 0.0
O307 O 0.87098 0.81453 0.8222 0.0
H308 H 0.76723 0.80291 0.94173 0.0
H309 H 0.76916 0.75663 0.9807 0.0
H310 H 0.81108 0.69378 0.90202 0.0
H311 H 0.80943 0.74047 0.86331 0.0
H312 H 0.72773 0.94511 0.85474 0.0
H313 H 0.7701 0.90213 0.84927 0.0
H314 H 0.71924 0.94661 0.74635 0.0
H315 H 0.76185 0.90409 0.74115 0.0
H316 H 0.97378 0.77602 0.75286 0.0
H317 H 0.89655 0.81278 0.68811 0.0
H318 H 0.85661 0.81182 0.73523 0.0
H319 H 0.93363 0.77475 0.79956 0.0
C320 C 0.28786 0.27503 0.39962 0.0
C321 C 0.27703 0.27923 0.43297 0.0
C322 C 0.29008 0.2214 0.44441 0.0
C323 C 0.27819 0.25273 0.4552 0.0
C324 C 0.30167 0.21752 0.4111 0.0
C325 C 0.30068 0.24416 0.38892 0.0
U326 U 0.31633 0.32306 0.32196 0.0
O327 O 0.28582 0.34485 0.28232 0.0
O328 O 0.32017 0.37728 0.31336 0.0
C329 C 0.2961 0.37572 0.29053 0.0
C330 C 0.28474 0.30278 0.37625 0.0
C331 C 0.26933 0.40018 0.29471 0.0
C332 C 0.23473 0.43622 0.32978 0.0
C333 C 0.25902 0.41169 0.32669 0.0
C334 C 0.22995 0.43709 0.26905 0.0
C335 C 0.22017 0.44943 0.30096 0.0
C336 C 0.25435 0.41279 0.266 0.0
C337 C 0.39211 0.29287 0.27079 0.0
C338 C 0.44835 0.28407 0.24859 0.0
C339 C 0.40504 0.30461 0.21232 0.0
C340 C 0.38215 0.30401 0.23921 0.0
C341 C 0.43832 0.29432 0.21664 0.0
C342 C 0.42542 0.28328 0.27534 0.0
C343 C 0.36821 0.29034 0.29912 0.0
O344 O 0.30952 0.3257 0.37701 0.0
O345 O 0.27485 0.29407 0.34557 0.0
O346 O 0.3367 0.28181 0.29136 0.0
O347 O 0.37096 0.31453 0.32218 0.0
H348 H 0.26719 0.30291 0.4417 0.0
H349 H 0.26913 0.25664 0.48067 0.0
H350 H 0.3111 0.1938 0.40201 0.0
H351 H 0.30944 0.24049 0.3633 0.0
H352 H 0.22767 0.44505 0.35471 0.0
H353 H 0.27004 0.40208 0.34924 0.0
H354 H 0.21927 0.44667 0.24633 0.0
H355 H 0.26188 0.40415 0.24112 0.0
H356 H 0.47377 0.27602 0.25286 0.0
H357 H 0.39654 0.31277 0.18809 0.0
H358 H 0.3566 0.31181 0.23521 0.0
H359 H 0.43361 0.27475 0.29956 0.0
C360 C 0.48001 0.92626 0.49994 0.0
C361 C 0.51376 0.91938 0.5069 0.0
C362 C 0.51003 0.87009 0.46928 0.0
C363 C 0.52869 0.89161 0.4916 0.0
C364 C 0.47595 0.87667 0.4631 0.0
C365 C 0.46113 0.90456 0.47825 0.0
U366 U 0.47704 0.99464 0.56827 0.0
O367 O 0.46734 0.04847 0.56511 0.0
O368 O 0.434 1.01588 0.5953 0.0
C369 C 0.43941 0.04586 0.58289 0.0
C370 C 0.46429 0.95597 0.51499 0.0
C371 C 0.40976 0.06131 0.56842 0.0
C372 C 0.36086 0.05917 0.53136 0.0
C373 C 0.38943 0.0442 0.54413 0.0
C374 C 0.37313 0.1087 0.56656 0.0
C375 C 0.35226 0.09154 0.5426 0.0
C376 C 0.40157 0.09369 0.57934 0.0
C377 C 0.54412 0.99458 0.6386 0.0
C378 C 0.54139 1.00991 0.6982 0.0
C379 C 0.59562 1.00864 0.67005 0.0
C380 C 0.5794 0.99915 0.63985 0.0
C381 C 0.57684 1.01348 0.69973 0.0
C382 C 0.52516 1.00064 0.66791 0.0
C383 C 0.52809 0.98139 0.60716 0.0
O384 O 0.44945 0.95137 0.54418 0.0
O385 O 0.48259 0.98417 0.51402 0.0
O386 O 0.53126 1.00048 0.58079 0.0
O387 O 0.49782 0.96698 0.60998 0.0
H388 H 0.52866 0.9357 0.52388 0.0
H389 H 0.55492 0.88722 0.49701 0.0
H390 H 0.46084 0.86064 0.44606 0.0
H391 H 0.43499 0.90937 0.47276 0.0
H392 H 0.3454 0.04527 0.5129 0.0
H393 H 0.3955 1.01921 0.53527 0.0
H394 H 0.36733 0.13364 0.57578 0.0
H395 H 0.41706 0.1073 0.59799 0.0
H396 H 0.52615 1.01363 0.72055 0.0
H397 H 0.62295 1.01122 0.6703 0.0
H398 H 0.59453 0.99457 0.61757 0.0
H399 H 0.49787 0.9975 0.66766 0.0
C400 C 0.23307 0.2575 0.67408 0.0
C401 C 0.26201 0.26974 0.65734 0.0
C402 C 0.2567 0.22354 0.61606 0.0
C403 C 0.27376 0.25289 0.6286 0.0
C404 C 0.22771 0.21136 0.63303 0.0
C405 C 0.21602 0.22824 0.66183 0.0
U406 U 0.23739 0.33193 0.73597 0.0
O407 O 0.19666 0.36031 0.75947 0.0
O408 O 0.23158 0.33364 0.79106 0.0
C409 C 0.20347 0.35006 0.78978 0.0
C410 C 0.22044 0.27521 0.70413 0.0
C411 C 0.17455 0.33469 0.80766 0.0
C412 C 0.13224 0.28937 0.81301 0.0
C413 C 0.16041 0.30351 0.79664 0.0
C414 C 0.13219 0.33733 0.85181 0.0
C415 C 0.11767 0.3062 0.84067 0.0
C416 C 0.16041 0.35145 0.83539 0.0
C417 C 0.30535 0.40205 0.72169 0.0
C418 C 0.3306 0.44217 0.76242 0.0
C419 C 0.33503 0.45264 0.7028 0.0
C420 C 0.3167 0.42263 0.69563 0.0
C421 C 0.34253 0.4626 0.73625 0.0
C422 C 0.31208 0.41219 0.75521 0.0
C423 C 0.28761 0.36977 0.71305 0.0
O424 O 0.24127 0.27722 0.72988 0.0
O425 O 0.20603 0.30365 0.69846 0.0
O426 O 0.25633 0.37159 0.70245 0.0
O427 O 0.29174 0.34511 0.73381 0.0
H428 H 0.27543 0.29239 0.66647 0.0
H429 H 0.29612 0.26299 0.61614 0.0
H430 H 0.21399 0.18885 0.62405 0.0
H431 H 0.19361 0.21849 0.67449 0.0
H432 H 0.12173 0.2654 0.80375 0.0
H433 H 0.17101 0.29026 0.77518 0.0
H434 H 0.12161 0.35094 0.87303 0.0
H435 H 0.17103 0.37557 0.84418 0.0
H436 H 0.33583 0.44915 0.78847 0.0
H437 H 0.34376 0.46775 0.68204 0.0
H438 H 0.31173 0.41526 0.66961 0.0
H439 H 0.3034 0.3968 0.77579 0.0
C440 C 0.7888 0.29454 0.65785 0.0
C441 C 0.80608 0.3248 0.66713 0.0
C442 C 0.79059 0.34909 0.61391 0.0
C443 C 0.80692 0.35189 0.64536 0.0
C444 C 0.77403 0.31837 0.60451 0.0
C445 C 0.77313 0.29142 0.6263 0.0
U446 U 0.81844 0.24596 0.73367 0.0
O447 O 0.78824 0.22212 0.77369 0.0
O448 O 0.82012 0.19158 0.74075 0.0
C449 C 0.7972 0.19178 0.7647 0.0
C450 C 0.78584 0.26635 0.68098 0.0
C451 C 0.76953 0.16623 0.7612 0.0
C452 C 0.72675 0.13534 0.72773 0.0
C453 C 0.75208 0.16077 0.73071 0.0
C454 C 0.73562 0.1212 0.78589 0.0
C455 C 0.71841 0.11509 0.75524 0.0
C456 C 0.76095 0.14651 0.78878 0.0
C457 C 0.89627 0.27577 0.78432 0.0
C458 C 0.95356 0.28159 0.80614 0.0
C459 C 0.90787 0.26307 0.84262 0.0
C460 C 0.88506 0.26492 0.81593 0.0
C461 C 0.94233 0.27171 0.83812 0.0
C462 C 0.9307 0.2837 0.77956 0.0
C463 C 0.87251 0.27936 0.75621 0.0
O464 O 0.80981 0.24448 0.67886 0.0
O465 O 0.77756 0.27425 0.71216 0.0
O466 O 0.84158 0.2872 0.76455 0.0
O467 O 0.87353 0.25611 0.7322 0.0
H468 H 0.81849 0.32763 0.69138 0.0
H469 H 0.81997 0.37512 0.65335 0.0
H470 H 0.76128 0.31525 0.58047 0.0
H471 H 0.75974 0.26824 0.61869 0.0
H472 H 0.71394 0.13137 0.70381 0.0
H473 H 0.7583 0.1759 0.70916 0.0
H474 H 0.72983 0.10618 0.80761 0.0
H475 H 0.77411 0.15045 0.81253 0.0
H476 H 0.97991 0.28843 0.80178 0.0
H477 H 0.8984 0.25523 0.86687 0.0
H478 H 0.85863 0.25827 0.82013 0.0
H479 H 0.93988 0.29193 0.75533 0.0
C480 C 0.49803 0.58422 0.64018 0.0
C481 C 0.51063 0.55528 0.65415 0.0
C482 C 0.46858 0.5576 0.69895 0.0
C483 C 0.49601 0.54205 0.68329 0.0
C484 C 0.45619 0.5867 0.68482 0.0
C485 C 0.47079 0.59984 0.65569 0.0
U486 U 0.56398 0.58329 0.57029 0.0
O487 O 0.55858 0.59145 0.516 0.0
O488 O 0.59238 0.62482 0.54653 0.0
C489 C 0.57808 0.6189 0.51702 0.0
C490 C 0.51291 0.59823 0.60942 0.0
C491 C 0.56443 0.64829 0.50085 0.0
C492 C 0.52882 0.69667 0.50177 0.0
C493 C 0.54063 0.66819 0.51722 0.0
C494 C 0.56407 0.68527 0.45325 0.0
C495 C 0.54058 0.70567 0.46967 0.0
C496 C 0.57587 0.65688 0.46873 0.0
C497 C 0.63041 0.51548 0.5713 0.0
C498 C 0.67066 0.50558 0.52622 0.0
C499 C 0.67379 0.47469 0.57773 0.0
C500 C 0.64609 0.49161 0.59053 0.0
C501 C 0.68631 0.48131 0.54533 0.0
C502 C 0.64294 0.52256 0.53913 0.0
C503 C 0.60086 0.53233 0.58517 0.0
O504 O 0.54328 0.61239 0.61287 0.0
O505 O 0.50976 0.57887 0.58222 0.0
O506 O 0.57313 0.52924 0.56703 0.0
O507 O 0.6067 0.56292 0.59748 0.0
H508 H 0.53171 0.5429 0.64247 0.0
H509 H 0.5062 0.51965 0.69348 0.0
H510 H 0.43509 0.5993 0.69617 0.0
H511 H 0.46075 0.62221 0.64522 0.0
H512 H 0.51071 0.71176 0.51512 0.0
H513 H 0.53143 0.66186 0.54203 0.0
H514 H 0.57367 0.69138 0.42854 0.0
H515 H 0.59421 0.64178 0.45571 0.0
H516 H 0.67967 0.51133 0.50122 0.0
H517 H 0.68518 0.45621 0.59314 0.0
H518 H 0.63675 0.48588 0.61545 0.0
H519 H 0.63117 0.54102 0.52396 0.0
C520 C 0.49965 0.4693 0.91223 0.0
C521 C 0.49614 0.50344 0.90564 0.0
C522 C 0.46474 0.48848 0.8543 0.0
C523 C 0.47874 0.51294 0.87697 0.0
C524 C 0.4693 0.45438 0.86053 0.0
C525 C 0.4865 0.44493 0.88925 0.0
U526 U 0.56629 0.47805 0.98258 0.0
O527 O 0.56009 0.47093 0.037 0.0
O528 O 0.59383 0.43896 1.0077 0.0
C529 C 0.57917 0.44468 0.03687 0.0
C530 C 0.51558 0.45837 0.94341 0.0
C531 C 0.56459 0.41486 0.05334 0.0
C532 C 0.52602 0.36589 0.05358 0.0
C533 C 0.53902 0.39462 0.03779 0.0
C534 C 0.56372 0.37771 0.10076 0.0
C535 C 0.53836 0.35701 0.08519 0.0
C536 C 0.57669 0.40634 0.08494 0.0
C537 C 0.63373 0.54919 0.98294 0.0
C538 C 0.68043 0.59009 0.97805 0.0
C539 C 0.67039 0.56244 0.03088 0.0
C540 C 0.64284 0.54424 1.0165 0.0
C541 C 0.68937 0.58575 1.01187 0.0
C542 C 0.65283 0.57199 0.96377 0.0
C543 C 0.60429 0.53103 0.96767 0.0
O544 O 0.546 0.44662 0.94019 0.0
O545 O 0.51227 0.4781 0.97018 0.0
O546 O 0.57588 0.53275 0.98468 0.0
O547 O 0.60981 0.50068 0.95572 0.0
H548 H 0.5063 0.52274 0.92291 0.0
H549 H 0.47582 0.53942 0.87286 0.0
H550 H 0.45894 0.43487 0.84362 0.0
H551 H 0.48901 0.41847 0.89383 0.0
H552 H 0.50651 0.35055 0.04089 0.0
H553 H 0.52933 0.40092 1.01337 0.0
H554 H 0.5738 0.37167 0.12508 0.0
H555 H 0.59639 0.42174 0.09732 0.0
H556 H 0.69448 0.6078 0.96267 0.0
H557 H 0.67662 0.55842 0.05695 0.0
H558 H 0.62847 0.52655 0.03164 0.0
H559 H 0.64621 0.57601 0.93778 0.0
C560 C 0.72776 0.31222 0.38552 0.0
C561 C 0.75277 0.29809 0.40498 0.0
C562 C 0.7508 0.34507 0.44536 0.0
C563 C 0.76416 0.31435 0.43468 0.0
C564 C 0.72595 0.35926 0.42553 0.0
C565 C 0.71451 0.3429 0.39586 0.0
U566 U 0.73259 0.24201 0.31899 0.0
O567 O 0.69199 0.21136 0.29419 0.0
O568 O 0.72602 0.2433 0.2641 0.0
C569 C 0.69835 0.224 0.26454 0.0
C570 C 0.71526 0.29508 0.35455 0.0
C571 C 0.66902 0.23735 0.2476 0.0
C572 C 0.62615 0.27903 0.24403 0.0
C573 C 0.65451 0.26681 0.25983 0.0
C574 C 0.62658 0.23248 0.20354 0.0
C575 C 0.61177 0.26193 0.21577 0.0
C576 C 0.65499 0.22031 0.21936 0.0
C577 C 0.80061 0.17728 0.32511 0.0
C578 C 0.84299 0.13557 0.3318 0.0
C579 C 0.80839 0.13439 0.28149 0.0
C580 C 0.7916 0.16242 0.29384 0.0
C581 C 0.83441 0.12074 0.30027 0.0
C582 C 0.82623 0.16362 0.34406 0.0
C583 C 0.78381 0.20721 0.33805 0.0
O584 O 0.73587 0.29666 0.32865 0.0
O585 O 0.7014 0.26495 0.3585 0.0
O586 O 0.75285 0.20193 0.34919 0.0
O587 O 0.78716 0.23383 0.31934 0.0
H588 H 0.76335 0.27443 0.39726 0.0
H589 H 0.78338 0.30276 0.44929 0.0
H590 H 0.71514 0.38286 0.43302 0.0
H591 H 0.69521 0.35415 0.38105 0.0
H592 H 0.61538 0.30175 0.25413 0.0
H593 H 0.66503 0.28023 0.28171 0.0
H594 H 0.61616 0.21872 0.18183 0.0
H595 H 0.6659 0.1975 0.20965 0.0
H596 H 0.86287 0.12572 0.34691 0.0
H597 H 0.80111 0.12357 0.25716 0.0
H598 H 0.77177 0.17265 0.27892 0.0
H599 H 0.83344 0.17479 0.36828 0.0
C600 C 0.48108 0.13414 0.05131 0.0
C601 C 0.51338 0.1471 0.04294 0.0
C602 C 0.50736 0.19356 0.08333 0.0
C603 C 0.52646 0.1765 0.0589 0.0
C604 C 0.47463 0.18089 0.09093 0.0
C605 C 0.46166 0.15139 0.07509 0.0
U606 U 0.48341 0.06664 0.98211 0.0
O607 O 0.47803 1.01153 0.9848 0.0
O608 O 0.44239 0.03911 0.95473 0.0
C609 C 0.44985 1.01011 0.96728 0.0
C610 C 0.46765 0.10246 0.03581 0.0
C611 C 0.4215 0.98999 0.98166 0.0
C612 C 0.36513 0.98503 1.00604 0.0
C613 C 0.39237 1.00496 0.99434 0.0
C614 C 0.39621 0.93505 0.99366 0.0
C615 C 0.3666 0.9498 1.00549 0.0
C616 C 0.4233 0.95495 0.9818 0.0
C617 C 0.55057 0.07952 0.91205 0.0
C618 C 0.58252 0.04092 0.87703 0.0
C619 C 0.57409 0.0974 0.85863 0.0
C620 C 0.55563 0.10413 0.88783 0.0
C621 C 0.58811 0.06587 0.85304 0.0
C622 C 0.56387 0.04767 0.9063 0.0
C623 C 0.53295 0.08867 0.94357 0.0
O624 O 0.45263 0.10516 1.00662 0.0
O625 O 0.48805 0.07724 0.03647 0.0
O626 O 0.53758 0.06986 0.96973 0.0
O627 O 0.50158 0.09771 0.94035 0.0
H628 H 0.52865 0.13422 0.02442 0.0
H629 H 0.55169 0.18561 0.05237 0.0
H630 H 0.45923 0.19339 0.1096 0.0
H631 H 0.43661 0.14182 0.08172 0.0
H632 H 0.34276 0.99723 1.0151 0.0
H633 H 0.39044 0.032 0.99478 0.0
H634 H 0.39827 0.90803 0.99291 0.0
H635 H 0.44556 0.94289 0.97224 0.0
H636 H 0.5929 1.01634 0.87344 0.0
H637 H 0.5778 0.11719 0.84071 0.0
H638 H 0.54571 0.12889 0.89176 0.0
H639 H 0.56031 0.02817 0.92457 0.0
C640 C 0.21507 0.96254 0.0314 0.0
O641 O 0.22576 0.96753 1.00056 0.0
O642 O 0.25148 0.89022 0.98648 0.0
Zn643 Zn 0.26659 0.91225 0.03072 0.0
O644 O 0.30892 0.94132 0.02272 0.0
C645 C 0.28976 0.87817 0.0914 0.0
O646 O 0.30355 0.90747 0.10068 0.0
O647 O 0.22905 0.94068 0.04886 0.0
C648 C 0.33702 0.92839 1.01569 0.0
O649 O 0.33889 0.89556 1.0153 0.0
C650 C 0.2625 0.86186 0.97721 0.0
O651 O 0.28402 0.84723 0.9966 0.0
O652 O 0.27412 0.87525 0.06349 0.0
C653 C 0.19602 0.47689 0.30392 0.0
O654 O 0.19049 0.49186 0.33315 0.0
O655 O 0.12324 0.53195 0.31768 0.0
Zn656 Zn 0.15348 0.52838 0.27662 0.0
O657 O 0.18569 0.56904 0.27705 0.0
C658 C 0.0942 0.52013 0.23244 0.0
O659 O 0.07711 0.51873 0.26074 0.0
O660 O 0.18218 0.48765 0.27768 0.0
C661 C 0.19262 0.58723 0.25197 0.0
O662 O 0.17768 0.58025 0.223 0.0
C663 C 0.10907 0.55973 0.3227 0.0
O664 O 0.11416 0.5836 0.30089 0.0
O665 O 0.12616 0.52482 0.23346 0.0
C666 C 0.82127 0.607 0.03027 0.0
O667 O 0.80066 0.59029 1.00943 0.0
O668 O 0.77875 0.69675 0.99753 0.0
Zn669 Zn 0.77049 0.65922 0.02999 0.0
O670 O 0.73466 0.62713 1.01001 0.0
C671 C 0.76897 0.70605 0.08531 0.0
O672 O 0.79645 0.71728 0.07004 0.0
O673 O 0.81365 0.6361 0.04101 0.0
C674 C 0.71759 0.60623 0.02743 0.0
O675 O 0.72417 0.60426 0.05969 0.0
C676 C 0.78897 0.69267 0.96742 0.0
O677 O 0.79623 0.66243 0.9564 0.0
O678 O 0.7529 0.6804 0.07289 0.0
C679 C 0.85295 0.0917 0.28678 0.0
O680 O 0.84635 0.07919 0.25647 0.0
O681 O 0.93668 0.02859 0.32149 0.0
Zn682 Zn 0.90379 0.04143 0.28534 0.0
O683 O 0.87272 1.00116 0.27355 0.0
C684 C 0.95279 0.04352 0.22965 0.0
O685 O 0.96335 1.0156 0.24209 0.0
O686 O 0.8762 0.07922 0.30397 0.0
C687 C 0.86342 0.99361 0.2436 0.0
O688 O 0.87365 1.01295 0.21905 0.0
C689 C 0.94417 0.99816 0.3252 0.0
O690 O 0.93147 0.97501 0.30419 0.0
O691 O 0.92849 0.05821 0.24399 0.0
C692 C 0.32127 0.10701 0.53026 0.0
O693 O 0.30065 0.09029 0.50944 0.0
O694 O 0.27874 0.19676 0.49751 0.0
Zn695 Zn 0.27048 0.15923 0.52998 0.0
O696 O 0.23465 0.12714 0.50999 0.0
C697 C 0.26897 0.20606 0.58529 0.0
O698 O 0.29644 0.21729 0.57003 0.0
O699 O 0.31365 0.13612 0.54098 0.0
C700 C 0.21758 0.10624 0.52742 0.0
O701 O 0.22416 0.10428 0.55969 0.0
C702 C 0.28896 0.19269 0.46741 0.0
O703 O 0.29624 0.16245 0.45639 0.0
O704 O 0.25289 0.18041 0.57288 0.0
C705 C 0.35296 0.5917 0.78678 0.0
O706 O 0.34636 0.5792 0.75647 0.0
O707 O 0.43667 0.52859 0.8215 0.0
Zn708 Zn 0.40379 0.54143 0.78534 0.0
O709 O 0.37272 0.50116 0.77356 0.0
C710 C 0.45279 0.54353 0.72967 0.0
O711 O 0.46337 0.51562 0.74211 0.0
O712 O 0.37619 0.57922 0.80398 0.0
C713 C 0.36342 0.49361 0.7436 0.0
O714 O 0.37364 0.51294 0.71905 0.0
C715 C 0.44417 0.49816 0.8252 0.0
O716 O 0.43147 0.47501 0.80419 0.0
O717 O 0.42848 0.55821 0.74399 0.0
C718 C 0.71505 0.46254 0.53142 0.0
O719 O 0.72575 0.46753 0.50058 0.0
O720 O 0.75146 0.39021 0.48649 0.0
Zn721 Zn 0.76657 0.41224 0.53073 0.0
O722 O 0.80889 0.44131 0.52273 0.0
C723 C 0.78972 0.37817 0.59141 0.0
O724 O 0.80351 0.40746 0.6007 0.0
O725 O 0.72902 0.44066 0.54887 0.0
C726 C 0.837 0.42839 0.51572 0.0
O727 O 0.83888 0.39556 0.51536 0.0
C728 C 0.76249 0.36185 0.47721 0.0
O729 O 0.78402 0.34723 0.4966 0.0
O730 O 0.7741 0.37524 0.5635 0.0
C731 C 0.69603 0.97689 0.80394 0.0
O732 O 0.69054 0.9919 0.83316 0.0
O733 O 0.62322 0.03193 0.81766 0.0
Zn734 Zn 0.65348 0.02836 0.77661 0.0
O735 O 0.6857 0.06901 0.77704 0.0
C736 C 0.5942 1.02034 0.73236 0.0
O737 O 0.57704 1.01923 0.76063 0.0
O738 O 0.68217 0.98762 0.7777 0.0
C739 C 0.6926 0.08722 0.75197 0.0
O740 O 0.67762 0.08028 0.72301 0.0
C741 C 0.60914 0.05976 0.82274 0.0
O742 O 0.61434 0.08367 0.80098 0.0
O743 O 0.62618 1.02477 0.73344 0.0
C744 C 0.02916 0.23654 0.95371 0.0
O745 O 1.00844 0.25643 0.96965 0.0
O746 O 0.99744 0.2786 0.86238 0.0
Zn747 Zn 0.02986 0.28746 0.90105 0.0
O748 O 1.00908 0.3222 0.93179 0.0
C749 C 0.08709 0.29164 0.85719 0.0
O750 O 0.07337 0.26289 0.84615 0.0
O751 O 0.04036 0.24465 0.92489 0.0
C752 C 0.02635 0.34191 0.95134 0.0
O753 O 0.05915 0.33855 0.95343 0.0
C754 C 0.96609 0.27219 0.86695 0.0
O755 O 0.95469 0.26895 0.8978 0.0
O756 O 0.07309 0.30719 0.88148 0.0
C757 C 0.52916 0.73654 0.45371 0.0
O758 O 0.50842 0.75642 0.46964 0.0
O759 O 0.49745 0.7786 0.36238 0.0
Zn760 Zn 0.52987 0.78747 0.40105 0.0
O761 O 0.50909 0.82221 0.43179 0.0
C762 C 0.5871 0.79165 0.35719 0.0
O763 O 0.57337 0.7629 0.34616 0.0
O764 O 0.54036 0.74466 0.4249 0.0
C765 C 0.52635 0.84192 0.45134 0.0
O766 O 0.55915 0.83856 0.45343 0.0
C767 C 0.4661 0.7722 0.36695 0.0
O768 O 0.45469 0.76897 0.3978 0.0
O769 O 0.57309 0.8072 0.38148 0.0
C770 C 0.02553 0.82602 0.60159 0.0
O771 O 1.00285 0.8059 0.58656 0.0
O772 O 0.99216 0.78383 0.69226 0.0
Zn773 Zn 0.02497 0.77543 0.65438 0.0
O774 O 1.00453 0.73891 0.62371 0.0
C775 C 0.08127 0.77454 0.69952 0.0
O776 O 0.06774 0.80222 0.71088 0.0
O777 O 0.03731 0.8181 0.62992 0.0
C778 C 1.02205 0.7234 0.60193 0.0
O779 O 0.05399 0.73263 0.59794 0.0
C780 C 0.96209 0.79286 0.68783 0.0
O781 O 0.95177 0.79861 0.65719 0.0
O782 O 0.0674 0.75845 0.67483 0.0
C783 C 0.52553 0.32601 0.10158 0.0
O784 O 0.50285 0.30589 0.08656 0.0
O785 O 0.49215 0.28383 0.19226 0.0
Zn786 Zn 0.52497 0.27543 0.15438 0.0
O787 O 0.50453 0.2389 0.12371 0.0
C788 C 0.58127 0.27453 0.19952 0.0
O789 O 0.56774 0.30221 0.21088 0.0
O790 O 0.53731 0.31809 0.12992 0.0
C791 C 0.52205 0.22339 0.10193 0.0
O792 O 0.55399 0.23262 0.09794 0.0
C793 C 0.46208 0.29286 0.18782 0.0
O794 O 0.45177 0.2986 0.15718 0.0
O795 O 0.5674 0.25844 0.17484 0.0
loop_
_geom_bond_atom_site_label_1
_geom_bond_atom_site_label_2
_geom_bond_distance
_geom_bond_site_symmetry_2
_ccdc_geom_bond_type
C0 C1 1.264 1_545 S
C0 C5 1.479 . S
C0 C10 1.465 . S
C1 C0 1.264 1_565 S
C1 C3 1.339 . S
C1 H28 0.931 . S
C2 C3 1.395 1_545 S
C2 C4 1.320 . S
C3 C1 1.339 . S
C3 C2 1.395 1_565 S
C3 H29 0.929 . S
C4 C2 1.320 . S
C4 C5 1.405 . S
C4 H30 0.930 . S
C5 C0 1.479 . S
C5 C4 1.405 . S
C5 H31 0.931 . S
U6 O7 2.454 . S
U6 O8 2.458 1_554 S
U6 C9 2.984 1_554 S
U6 C10 2.847 1_455 S
U6 C23 2.882 1_545 S
U6 O24 2.441 1_455 S
U6 O25 2.420 . S
U6 O26 2.455 . S
U6 O27 2.449 1_545 S
O7 U6 2.454 . S
O7 C9 1.353 1_554 S
O8 U6 2.458 1_556 S
O8 C9 1.286 . S
C9 U6 2.984 1_556 S
C9 O7 1.353 1_556 S
C9 O8 1.286 . S
C9 C11 1.363 . S
C10 C0 1.465 . S
C10 U6 2.847 1_655 S
C10 O24 1.249 . S
C10 O25 1.202 1_655 S
C11 C9 1.363 . S
C11 C13 1.407 . S
C11 C16 1.342 . S
C12 C13 1.310 1_655 S
C12 C15 1.461 1_655 S
C12 H32 0.932 . S
C13 C11 1.407 . S
C13 C12 1.310 1_455 S
C13 H33 0.930 1_455 S
C14 C15 1.474 . S
C14 C16 1.285 . S
C14 H34 0.929 . S
C15 C12 1.461 1_455 S
C15 C14 1.474 . S
C16 C11 1.342 . S
C16 C14 1.285 . S
C16 H35 0.930 . S
C17 C20 1.424 . S
C17 C22 1.245 . S
C17 C23 1.428 . S
C18 C21 1.260 . S
C18 C22 1.477 . S
C18 H36 0.932 1_554 S
C19 C20 1.384 . S
C19 C21 1.479 . S
C19 H37 0.929 . S
C20 C17 1.424 . S
C20 C19 1.384 . S
C20 H38 0.928 . S
C21 C18 1.260 . S
C21 C19 1.479 . S
C22 C17 1.245 . S
C22 C18 1.477 . S
C22 H39 0.932 1_554 S
C23 U6 2.882 1_565 S
C23 C17 1.428 . S
C23 O26 1.301 1_565 S
C23 O27 1.282 . S
O24 U6 2.441 1_655 S
O24 C10 1.249 . S
O25 U6 2.420 . S
O25 C10 1.202 1_455 S
O26 U6 2.455 . S
O26 C23 1.301 1_545 S
O27 U6 2.449 1_565 S
O27 C23 1.282 . S
H28 C1 0.931 . S
H29 C3 0.929 . S
H30 C4 0.930 . S
H31 C5 0.931 . S
H32 C12 0.932 . S
H33 C13 0.930 1_655 S
H34 C14 0.929 . S
H35 C16 0.930 . S
H36 C18 0.932 1_556 S
H37 C19 0.929 . S
H38 C20 0.928 . S
H39 C22 0.932 1_556 S
C40 C41 1.264 . S
C40 C45 1.479 . S
C40 C50 1.465 . S
C41 C40 1.264 . S
C41 C43 1.339 . S
C41 H68 0.931 . S
C42 C43 1.395 . S
C42 C44 1.320 . S
C43 C41 1.339 . S
C43 C42 1.395 . S
C43 H69 0.929 . S
C44 C42 1.320 . S
C44 C45 1.405 . S
C44 H70 0.930 . S
C45 C40 1.479 . S
C45 C44 1.405 . S
C45 H71 0.931 . S
U46 O47 2.454 . S
U46 O48 2.458 . S
U46 C49 2.984 . S
U46 C50 2.847 . S
U46 C63 2.882 . S
U46 O64 2.441 . S
U46 O65 2.420 . S
U46 O66 2.455 . S
U46 O67 2.449 . S
O47 U46 2.454 . S
O47 C49 1.353 . S
O48 U46 2.458 . S
O48 C49 1.286 . S
C49 U46 2.984 . S
C49 O47 1.353 . S
C49 O48 1.286 . S
C49 C51 1.363 . S
C50 C40 1.465 . S
C50 U46 2.847 . S
C50 O64 1.249 . S
C50 O65 1.202 . S
C51 C49 1.363 . S
C51 C53 1.408 . S
C51 C56 1.342 . S
C52 C53 1.310 . S
C52 C55 1.461 . S
C52 H72 0.932 . S
C53 C51 1.408 . S
C53 C52 1.310 . S
C53 H73 0.930 . S
C54 C55 1.474 . S
C54 C56 1.285 . S
C54 H74 0.929 . S
C55 C52 1.461 . S
C55 C54 1.474 . S
C56 C51 1.342 . S
C56 C54 1.285 . S
C56 H75 0.930 . S
C57 C60 1.424 . S
C57 C62 1.245 . S
C57 C63 1.428 . S
C58 C61 1.260 . S
C58 C62 1.477 . S
C58 H76 0.932 . S
C59 C60 1.384 . S
C59 C61 1.479 . S
C59 H77 0.929 . S
C60 C57 1.424 . S
C60 C59 1.384 . S
C60 H78 0.928 . S
C61 C58 1.260 . S
C61 C59 1.479 . S
C62 C57 1.245 . S
C62 C58 1.477 . S
C62 H79 0.932 . S
C63 U46 2.882 . S
C63 C57 1.428 . S
C63 O66 1.301 . S
C63 O67 1.282 . S
O64 U46 2.441 . S
O64 C50 1.249 . S
O65 U46 2.420 . S
O65 C50 1.202 . S
O66 U46 2.455 . S
O66 C63 1.301 . S
O67 U46 2.449 . S
O67 C63 1.282 . S
H68 C41 0.931 . S
H69 C43 0.929 . S
H70 C44 0.930 . S
H71 C45 0.931 . S
H72 C52 0.932 . S
H73 C53 0.930 . S
H74 C54 0.929 . S
H75 C56 0.930 . S
H76 C58 0.932 . S
H77 C59 0.929 . S
H78 C60 0.928 . S
H79 C62 0.932 . S
C80 C81 1.264 1_655 S
C80 C85 1.479 . S
C80 C90 1.465 . S
C81 C80 1.264 1_455 S
C81 C83 1.339 . S
C81 H108 0.931 . S
C82 C83 1.395 1_655 S
C82 C84 1.320 . S
C83 C81 1.339 . S
C83 C82 1.395 1_455 S
C83 H109 0.929 . S
C84 C82 1.320 . S
C84 C85 1.405 . S
C84 H110 0.930 . S
C85 C80 1.479 . S
C85 C84 1.405 . S
C85 H111 0.931 . S
U86 O87 2.454 . S
U86 O88 2.458 . S
U86 C89 2.984 . S
U86 C90 2.847 1_554 S
U86 C103 2.882 1_655 S
U86 O104 2.441 1_554 S
U86 O105 2.420 1_655 S
U86 O106 2.455 . S
U86 O107 2.449 1_655 S
O87 U86 2.454 . S
O87 C89 1.353 . S
O88 U86 2.458 . S
O88 C89 1.286 . S
C89 U86 2.984 . S
C89 O87 1.353 . S
C89 O88 1.286 . S
C89 C91 1.363 . S
C90 C80 1.465 . S
C90 U86 2.847 1_556 S
C90 O104 1.249 . S
C90 O105 1.202 1_656 S
C91 C89 1.363 . S
C91 C93 1.408 1_554 S
C91 C96 1.342 . S
C92 C93 1.310 . S
C92 C95 1.461 1_556 S
C92 H112 0.932 . S
C93 C91 1.408 1_556 S
C93 C92 1.310 . S
C93 H113 0.930 . S
C94 C95 1.474 . S
C94 C96 1.285 . S
C94 H114 0.929 . S
C95 C92 1.461 1_554 S
C95 C94 1.474 . S
C96 C91 1.342 . S
C96 C94 1.285 . S
C96 H115 0.930 . S
C97 C100 1.424 . S
C97 C102 1.245 . S
C97 C103 1.428 . S
C98 C101 1.260 . S
C98 C102 1.477 . S
C98 H116 0.932 . S
C99 C100 1.384 . S
C99 C101 1.479 . S
C99 H117 0.929 . S
C100 C97 1.424 . S
C100 C99 1.384 . S
C100 H118 0.928 . S
C101 C98 1.260 . S
C101 C99 1.479 . S
C102 C97 1.245 . S
C102 C98 1.477 . S
C102 H119 0.932 . S
C103 U86 2.882 1_455 S
C103 C97 1.428 . S
C103 O106 1.302 1_455 S
C103 O107 1.282 . S
O104 U86 2.441 1_556 S
O104 C90 1.249 . S
O105 U86 2.420 1_455 S
O105 C90 1.202 1_454 S
O106 U86 2.455 . S
O106 C103 1.302 1_655 S
O107 U86 2.449 1_455 S
O107 C103 1.282 . S
H108 C81 0.931 . S
H109 C83 0.929 . S
H110 C84 0.930 . S
H111 C85 0.931 . S
H112 C92 0.932 . S
H113 C93 0.930 . S
H114 C94 0.929 . S
H115 C96 0.930 . S
H116 C98 0.932 . S
H117 C99 0.929 . S
H118 C100 0.928 . S
H119 C102 0.932 . S
C120 C121 1.264 . S
C120 C125 1.479 . S
C120 C130 1.465 . S
C121 C120 1.264 . S
C121 C123 1.339 . S
C121 H148 0.931 . S
C122 C123 1.395 . S
C122 C124 1.320 . S
C123 C121 1.339 . S
C123 C122 1.395 . S
C123 H149 0.929 . S
C124 C122 1.320 . S
C124 C125 1.405 . S
C124 H150 0.930 . S
C125 C120 1.479 . S
C125 C124 1.405 . S
C125 H151 0.931 . S
U126 O127 2.454 . S
U126 O128 2.458 . S
U126 C129 2.984 . S
U126 C130 2.847 . S
U126 C143 2.882 . S
U126 O144 2.441 . S
U126 O145 2.420 . S
U126 O146 2.455 . S
U126 O147 2.449 . S
O127 U126 2.454 . S
O127 C129 1.353 . S
O128 U126 2.458 . S
O128 C129 1.286 . S
C129 U126 2.984 . S
C129 O127 1.353 . S
C129 O128 1.286 . S
C129 C131 1.363 . S
C130 C120 1.465 . S
C130 U126 2.847 . S
C130 O144 1.249 . S
C130 O145 1.202 . S
C131 C129 1.363 . S
C131 C133 1.408 . S
C131 C136 1.342 . S
C132 C133 1.310 . S
C132 C135 1.461 . S
C132 H152 0.932 . S
C133 C131 1.408 . S
C133 C132 1.310 . S
C133 H153 0.930 . S
C134 C135 1.474 . S
C134 C136 1.285 . S
C134 H154 0.929 . S
C135 C132 1.461 . S
C135 C134 1.474 . S
C136 C131 1.342 . S
C136 C134 1.285 . S
C136 H155 0.930 . S
C137 C140 1.424 . S
C137 C142 1.245 . S
C137 C143 1.428 . S
C138 C141 1.260 . S
C138 C142 1.477 . S
C138 H156 0.932 . S
C139 C140 1.384 . S
C139 C141 1.479 . S
C139 H157 0.929 . S
C140 C137 1.424 . S
C140 C139 1.384 . S
C140 H158 0.928 . S
C141 C138 1.260 . S
C141 C139 1.479 . S
C142 C137 1.245 . S
C142 C138 1.477 . S
C142 H159 0.932 . S
C143 U126 2.882 . S
C143 C137 1.428 . S
C143 O146 1.301 . S
C143 O147 1.282 . S
O144 U126 2.441 . S
O144 C130 1.249 . S
O145 U126 2.420 . S
O145 C130 1.202 . S
O146 U126 2.455 . S
O146 C143 1.301 . S
O147 U126 2.449 . S
O147 C143 1.282 . S
H148 C121 0.931 . S
H149 C123 0.929 . S
H150 C124 0.930 . S
H151 C125 0.931 . S
H152 C132 0.932 . S
H153 C133 0.930 . S
H154 C134 0.929 . S
H155 C136 0.930 . S
H156 C138 0.932 . S
H157 C139 0.929 . S
H158 C140 0.928 . S
H159 C142 0.932 . S
C160 C161 1.264 1_565 S
C160 C165 1.479 . S
C160 C170 1.465 . S
C161 C160 1.264 1_545 S
C161 C163 1.339 . S
C161 H188 0.931 . S
C162 C163 1.395 . S
C162 C164 1.320 1_545 S
C163 C161 1.339 . S
C163 C162 1.395 . S
C163 H189 0.929 . S
C164 C162 1.320 1_565 S
C164 C165 1.405 . S
C164 H190 0.930 . S
C165 C160 1.479 . S
C165 C164 1.405 . S
C165 H191 0.931 . S
U166 O167 2.454 . S
U166 O168 2.458 . S
U166 C169 2.984 . S
U166 C170 2.847 1_455 S
U166 C183 2.882 1_565 S
U166 O184 2.441 1_455 S
U166 O185 2.420 1_565 S
U166 O186 2.455 1_565 S
U166 O187 2.449 1_565 S
O167 U166 2.454 . S
O167 C169 1.353 . S
O168 U166 2.458 . S
O168 C169 1.286 . S
C169 U166 2.984 . S
C169 O167 1.353 . S
C169 O168 1.286 . S
C169 C171 1.363 . S
C170 C160 1.465 . S
C170 U166 2.847 1_655 S
C170 O184 1.249 . S
C170 O185 1.202 1_665 S
C171 C169 1.363 . S
C171 C173 1.408 1_455 S
C171 C176 1.342 . S
C172 C173 1.310 . S
C172 C175 1.461 1_655 S
C172 H192 0.932 . S
C173 C171 1.408 1_655 S
C173 C172 1.310 . S
C173 H193 0.930 . S
C174 C175 1.474 . S
C174 C176 1.285 . S
C174 H194 0.929 . S
C175 C172 1.461 1_455 S
C175 C174 1.474 . S
C176 C171 1.342 . S
C176 C174 1.285 . S
C176 H195 0.930 . S
C177 C180 1.424 . S
C177 C182 1.245 . S
C177 C183 1.428 . S
C178 C181 1.260 . S
C178 C182 1.477 . S
C178 H196 0.932 . S
C179 C180 1.384 . S
C179 C181 1.479 . S
C179 H197 0.929 . S
C180 C177 1.424 . S
C180 C179 1.384 . S
C180 H198 0.928 . S
C181 C178 1.260 . S
C181 C179 1.479 . S
C182 C177 1.245 . S
C182 C178 1.477 . S
C182 H199 0.932 . S
C183 U166 2.882 1_545 S
C183 C177 1.428 . S
C183 O186 1.301 . S
C183 O187 1.282 . S
O184 U166 2.441 1_655 S
O184 C170 1.249 . S
O185 U166 2.420 1_545 S
O185 C170 1.202 1_445 S
O186 U166 2.455 1_545 S
O186 C183 1.301 . S
O187 U166 2.449 1_545 S
O187 C183 1.282 . S
H188 C161 0.931 . S
H189 C163 0.929 . S
H190 C164 0.930 . S
H191 C165 0.931 . S
H192 C172 0.932 . S
H193 C173 0.930 . S
H194 C174 0.929 . S
H195 C176 0.930 . S
H196 C178 0.932 . S
H197 C179 0.929 . S
H198 C180 0.928 . S
H199 C182 0.932 . S
C200 C201 1.264 . S
C200 C205 1.479 . S
C200 C210 1.465 . S
C201 C200 1.264 . S
C201 C203 1.339 . S
C201 H228 0.931 . S
C202 C203 1.395 . S
C202 C204 1.320 . S
C203 C201 1.339 . S
C203 C202 1.395 . S
C203 H229 0.929 . S
C204 C202 1.320 . S
C204 C205 1.405 . S
C204 H230 0.930 . S
C205 C200 1.479 . S
C205 C204 1.405 . S
C205 H231 0.931 . S
U206 O207 2.454 . S
U206 O208 2.458 . S
U206 C209 2.984 . S
U206 C210 2.847 . S
U206 C223 2.882 . S
U206 O224 2.441 . S
U206 O225 2.420 . S
U206 O226 2.455 . S
U206 O227 2.449 . S
O207 U206 2.454 . S
O207 C209 1.353 . S
O208 U206 2.458 . S
O208 C209 1.286 . S
C209 U206 2.984 . S
C209 O207 1.353 . S
C209 O208 1.286 . S
C209 C211 1.363 . S
C210 C200 1.465 . S
C210 U206 2.847 . S
C210 O224 1.249 . S
C210 O225 1.202 . S
C211 C209 1.363 . S
C211 C213 1.408 . S
C211 C216 1.342 . S
C212 C213 1.310 . S
C212 C215 1.461 . S
C212 H232 0.932 . S
C213 C211 1.408 . S
C213 C212 1.310 . S
C213 H233 0.930 . S
C214 C215 1.474 . S
C214 C216 1.285 . S
C214 H234 0.929 . S
C215 C212 1.461 . S
C215 C214 1.474 . S
C216 C211 1.342 . S
C216 C214 1.285 . S
C216 H235 0.930 . S
C217 C220 1.424 . S
C217 C222 1.245 . S
C217 C223 1.428 . S
C218 C221 1.260 . S
C218 C222 1.477 . S
C218 H236 0.932 . S
C219 C220 1.384 . S
C219 C221 1.479 . S
C219 H237 0.929 . S
C220 C217 1.424 . S
C220 C219 1.384 . S
C220 H238 0.928 . S
C221 C218 1.260 . S
C221 C219 1.479 . S
C222 C217 1.245 . S
C222 C218 1.477 . S
C222 H239 0.932 . S
C223 U206 2.882 . S
C223 C217 1.428 . S
C223 O226 1.301 . S
C223 O227 1.282 . S
O224 U206 2.441 . S
O224 C210 1.249 . S
O225 U206 2.420 . S
O225 C210 1.202 . S
O226 U206 2.455 . S
O226 C223 1.301 . S
O227 U206 2.449 . S
O227 C223 1.282 . S
H228 C201 0.931 . S
H229 C203 0.929 . S
H230 C204 0.930 . S
H231 C205 0.931 . S
H232 C212 0.932 . S
H233 C213 0.930 . S
H234 C214 0.929 . S
H235 C216 0.930 . S
H236 C218 0.932 . S
H237 C219 0.929 . S
H238 C220 0.928 . S
H239 C222 0.932 . S
C240 C241 1.264 1_655 S
C240 C245 1.479 . S
C240 C250 1.465 . S
C241 C240 1.264 1_455 S
C241 C243 1.339 . S
C241 H268 0.931 . S
C242 C243 1.395 . S
C242 C244 1.320 1_455 S
C243 C241 1.339 . S
C243 C242 1.395 . S
C243 H269 0.929 . S
C244 C242 1.320 1_655 S
C244 C245 1.405 . S
C244 H270 0.930 . S
C245 C240 1.479 . S
C245 C244 1.405 . S
C245 H271 0.931 . S
U246 O247 2.454 . S
U246 O248 2.458 . S
U246 C249 2.984 . S
U246 C250 2.847 . S
U246 C263 2.882 1_655 S
U246 O264 2.441 . S
U246 O265 2.420 1_655 S
U246 O266 2.455 . S
U246 O267 2.449 1_655 S
O247 U246 2.454 . S
O247 C249 1.353 . S
O248 U246 2.458 . S
O248 C249 1.286 . S
C249 U246 2.984 . S
C249 O247 1.353 . S
C249 O248 1.286 . S
C249 C251 1.363 . S
C250 C240 1.465 . S
C250 U246 2.847 . S
C250 O264 1.249 . S
C250 O265 1.202 1_655 S
C251 C249 1.363 . S
C251 C253 1.408 . S
C251 C256 1.342 . S
C252 C253 1.310 . S
C252 C255 1.461 . S
C252 H272 0.932 . S
C253 C251 1.408 . S
C253 C252 1.310 . S
C253 H273 0.930 . S
C254 C255 1.474 . S
C254 C256 1.285 . S
C254 H274 0.929 . S
C255 C252 1.461 . S
C255 C254 1.474 . S
C256 C251 1.342 . S
C256 C254 1.285 . S
C256 H275 0.930 . S
C257 C260 1.424 . S
C257 C262 1.245 . S
C257 C263 1.428 . S
C258 C261 1.260 . S
C258 C262 1.477 . S
C258 H276 0.932 . S
C259 C260 1.384 . S
C259 C261 1.479 . S
C259 H277 0.929 . S
C260 C257 1.424 . S
C260 C259 1.384 . S
C260 H278 0.928 . S
C261 C258 1.260 . S
C261 C259 1.479 . S
C262 C257 1.245 . S
C262 C258 1.477 . S
C262 H279 0.932 . S
C263 U246 2.882 1_455 S
C263 C257 1.428 . S
C263 O266 1.301 1_455 S
C263 O267 1.282 . S
O264 U246 2.441 . S
O264 C250 1.249 . S
O265 U246 2.420 1_455 S
O265 C250 1.202 1_455 S
O266 U246 2.455 . S
O266 C263 1.301 1_655 S
O267 U246 2.449 1_455 S
O267 C263 1.282 . S
H268 C241 0.931 . S
H269 C243 0.929 . S
H270 C244 0.930 . S
H271 C245 0.931 . S
H272 C252 0.932 . S
H273 C253 0.930 . S
H274 C254 0.929 . S
H275 C256 0.930 . S
H276 C258 0.932 . S
H277 C259 0.929 . S
H278 C260 0.928 . S
H279 C262 0.932 . S
C280 C281 1.264 . S
C280 C285 1.479 . S
C280 C290 1.465 . S
C281 C280 1.264 . S
C281 C283 1.339 . S
C281 H308 0.931 . S
C282 C283 1.395 . S
C282 C284 1.320 . S
C283 C281 1.339 . S
C283 C282 1.395 . S
C283 H309 0.929 . S
C284 C282 1.320 . S
C284 C285 1.405 . S
C284 H310 0.930 . S
C285 C280 1.479 . S
C285 C284 1.405 . S
C285 H311 0.931 . S
U286 O287 2.454 . S
U286 O288 2.458 . S
U286 C289 2.984 . S
U286 C290 2.847 . S
U286 C303 2.882 . S
U286 O304 2.441 . S
U286 O305 2.420 . S
U286 O306 2.455 . S
U286 O307 2.449 . S
O287 U286 2.454 . S
O287 C289 1.353 . S
O288 U286 2.458 . S
O288 C289 1.286 . S
C289 U286 2.984 . S
C289 O287 1.353 . S
C289 O288 1.286 . S
C289 C291 1.363 . S
C290 C280 1.465 . S
C290 U286 2.847 . S
C290 O304 1.249 . S
C290 O305 1.202 . S
C291 C289 1.363 . S
C291 C293 1.408 . S
C291 C296 1.342 . S
C292 C293 1.310 . S
C292 C295 1.461 . S
C292 H312 0.932 . S
C293 C291 1.408 . S
C293 C292 1.310 . S
C293 H313 0.930 . S
C294 C295 1.474 . S
C294 C296 1.285 . S
C294 H314 0.929 . S
C295 C292 1.461 . S
C295 C294 1.474 . S
C296 C291 1.342 . S
C296 C294 1.285 . S
C296 H315 0.930 . S
C297 C300 1.424 . S
C297 C302 1.245 . S
C297 C303 1.428 . S
C298 C301 1.260 . S
C298 C302 1.477 . S
C298 H316 0.932 . S
C299 C300 1.384 . S
C299 C301 1.479 . S
C299 H317 0.929 . S
C300 C297 1.424 . S
C300 C299 1.384 . S
C300 H318 0.928 . S
C301 C298 1.260 . S
C301 C299 1.479 . S
C302 C297 1.245 . S
C302 C298 1.477 . S
C302 H319 0.932 . S
C303 U286 2.882 . S
C303 C297 1.428 . S
C303 O306 1.301 . S
C303 O307 1.282 . S
O304 U286 2.441 . S
O304 C290 1.249 . S
O305 U286 2.420 . S
O305 C290 1.202 . S
O306 U286 2.455 . S
O306 C303 1.301 . S
O307 U286 2.449 . S
O307 C303 1.282 . S
H308 C281 0.931 . S
H309 C283 0.929 . S
H310 C284 0.930 . S
H311 C285 0.931 . S
H312 C292 0.932 . S
H313 C293 0.930 . S
H314 C294 0.929 . S
H315 C296 0.930 . S
H316 C298 0.932 . S
H317 C299 0.929 . S
H318 C300 0.928 . S
H319 C302 0.932 . S
C320 C321 1.264 . S
C320 C325 1.479 . S
C320 C330 1.465 . S
C321 C320 1.264 . S
C321 C323 1.339 . S
C321 H348 0.931 . S
C322 C323 1.395 . S
C322 C324 1.320 . S
C323 C321 1.339 . S
C323 C322 1.395 . S
C323 H349 0.929 . S
C324 C322 1.320 . S
C324 C325 1.405 . S
C324 H350 0.930 . S
C325 C320 1.479 . S
C325 C324 1.405 . S
C325 H351 0.931 . S
U326 O327 2.454 . S
U326 O328 2.458 . S
U326 C329 2.984 . S
U326 C330 2.847 . S
U326 C343 2.882 . S
U326 O344 2.441 . S
U326 O345 2.420 . S
U326 O346 2.455 . S
U326 O347 2.449 . S
O327 U326 2.454 . S
O327 C329 1.353 . S
O328 U326 2.458 . S
O328 C329 1.286 . S
C329 U326 2.984 . S
C329 O327 1.353 . S
C329 O328 1.286 . S
C329 C331 1.363 . S
C330 C320 1.465 . S
C330 U326 2.847 . S
C330 O344 1.249 . S
C330 O345 1.202 . S
C331 C329 1.363 . S
C331 C333 1.408 . S
C331 C336 1.342 . S
C332 C333 1.310 . S
C332 C335 1.461 . S
C332 H352 0.932 . S
C333 C331 1.408 . S
C333 C332 1.310 . S
C333 H353 0.930 . S
C334 C335 1.474 . S
C334 C336 1.285 . S
C334 H354 0.929 . S
C335 C332 1.461 . S
C335 C334 1.474 . S
C336 C331 1.342 . S
C336 C334 1.285 . S
C336 H355 0.930 . S
C337 C340 1.424 . S
C337 C342 1.245 . S
C337 C343 1.428 . S
C338 C341 1.260 . S
C338 C342 1.477 . S
C338 H356 0.932 . S
C339 C340 1.384 . S
C339 C341 1.479 . S
C339 H357 0.929 . S
C340 C337 1.424 . S
C340 C339 1.384 . S
C340 H358 0.928 . S
C341 C338 1.260 . S
C341 C339 1.479 . S
C342 C337 1.245 . S
C342 C338 1.477 . S
C342 H359 0.932 . S
C343 U326 2.882 . S
C343 C337 1.428 . S
C343 O346 1.301 . S
C343 O347 1.282 . S
O344 U326 2.441 . S
O344 C330 1.249 . S
O345 U326 2.420 . S
O345 C330 1.202 . S
O346 U326 2.455 . S
O346 C343 1.301 . S
O347 U326 2.449 . S
O347 C343 1.282 . S
H348 C321 0.931 . S
H349 C323 0.929 . S
H350 C324 0.930 . S
H351 C325 0.931 . S
H352 C332 0.932 . S
H353 C333 0.930 . S
H354 C334 0.929 . S
H355 C336 0.930 . S
H356 C338 0.932 . S
H357 C339 0.929 . S
H358 C340 0.928 . S
H359 C342 0.932 . S
C360 C361 1.264 . S
C360 C365 1.479 . S
C360 C370 1.465 . S
C361 C360 1.264 . S
C361 C363 1.339 . S
C361 H388 0.931 . S
C362 C363 1.395 . S
C362 C364 1.320 . S
C363 C361 1.339 . S
C363 C362 1.395 . S
C363 H389 0.929 . S
C364 C362 1.320 . S
C364 C365 1.405 . S
C364 H390 0.930 . S
C365 C360 1.479 . S
C365 C364 1.405 . S
C365 H391 0.931 . S
U366 O367 2.454 . S
U366 O368 2.458 1_565 S
U366 C369 2.984 1_565 S
U366 C370 2.847 . S
U366 C383 2.882 . S
U366 O384 2.441 . S
U366 O385 2.420 . S
U366 O386 2.455 1_565 S
U366 O387 2.449 . S
O367 U366 2.454 . S
O367 C369 1.353 1_565 S
O368 U366 2.458 1_545 S
O368 C369 1.286 . S
C369 U366 2.984 1_545 S
C369 O367 1.353 1_545 S
C369 O368 1.286 . S
C369 C371 1.363 . S
C370 C360 1.465 . S
C370 U366 2.847 . S
C370 O384 1.249 . S
C370 O385 1.202 . S
C371 C369 1.363 . S
C371 C373 1.408 . S
C371 C376 1.342 . S
C372 C373 1.310 . S
C372 C375 1.461 . S
C372 H392 0.932 . S
C373 C371 1.408 . S
C373 C372 1.310 . S
C373 H393 0.930 . S
C374 C375 1.474 . S
C374 C376 1.285 . S
C374 H394 0.929 . S
C375 C372 1.461 . S
C375 C374 1.474 . S
C376 C371 1.342 . S
C376 C374 1.285 . S
C376 H395 0.930 . S
C377 C380 1.424 . S
C377 C382 1.245 1_565 S
C377 C383 1.428 . S
C378 C381 1.260 1_545 S
C378 C382 1.477 . S
C378 H396 0.932 . S
C379 C380 1.384 . S
C379 C381 1.479 . S
C379 H397 0.929 . S
C380 C377 1.424 . S
C380 C379 1.384 . S
C380 H398 0.928 . S
C381 C378 1.260 1_565 S
C381 C379 1.479 . S
C382 C377 1.245 1_545 S
C382 C378 1.477 . S
C382 H399 0.932 . S
C383 U366 2.882 . S
C383 C377 1.428 . S
C383 O386 1.301 1_565 S
C383 O387 1.282 . S
O384 U366 2.441 . S
O384 C370 1.249 . S
O385 U366 2.420 . S
O385 C370 1.202 . S
O386 U366 2.455 1_545 S
O386 C383 1.301 1_545 S
O387 U366 2.449 . S
O387 C383 1.282 . S
H388 C361 0.931 . S
H389 C363 0.929 . S
H390 C364 0.930 . S
H391 C365 0.931 . S
H392 C372 0.932 . S
H393 C373 0.930 . S
H394 C374 0.929 . S
H395 C376 0.930 . S
H396 C378 0.932 . S
H397 C379 0.929 . S
H398 C380 0.928 . S
H399 C382 0.932 . S
C400 C401 1.264 . S
C400 C405 1.479 . S
C400 C410 1.465 . S
C401 C400 1.264 . S
C401 C403 1.339 . S
C401 H428 0.931 . S
C402 C403 1.395 . S
C402 C404 1.320 . S
C403 C401 1.339 . S
C403 C402 1.395 . S
C403 H429 0.929 . S
C404 C402 1.320 . S
C404 C405 1.405 . S
C404 H430 0.930 . S
C405 C400 1.479 . S
C405 C404 1.405 . S
C405 H431 0.931 . S
U406 O407 2.454 . S
U406 O408 2.458 . S
U406 C409 2.984 . S
U406 C410 2.847 . S
U406 C423 2.882 . S
U406 O424 2.441 . S
U406 O425 2.420 . S
U406 O426 2.455 . S
U406 O427 2.449 . S
O407 U406 2.454 . S
O407 C409 1.353 . S
O408 U406 2.458 . S
O408 C409 1.286 . S
C409 U406 2.984 . S
C409 O407 1.353 . S
C409 O408 1.286 . S
C409 C411 1.363 . S
C410 C400 1.465 . S
C410 U406 2.847 . S
C410 O424 1.249 . S
C410 O425 1.202 . S
C411 C409 1.363 . S
C411 C413 1.408 . S
C411 C416 1.342 . S
C412 C413 1.310 . S
C412 C415 1.461 . S
C412 H432 0.932 . S
C413 C411 1.408 . S
C413 C412 1.310 . S
C413 H433 0.930 . S
C414 C415 1.474 . S
C414 C416 1.285 . S
C414 H434 0.929 . S
C415 C412 1.461 . S
C415 C414 1.474 . S
C416 C411 1.342 . S
C416 C414 1.285 . S
C416 H435 0.930 . S
C417 C420 1.424 . S
C417 C422 1.245 . S
C417 C423 1.428 . S
C418 C421 1.260 . S
C418 C422 1.477 . S
C418 H436 0.932 . S
C419 C420 1.384 . S
C419 C421 1.479 . S
C419 H437 0.929 . S
C420 C417 1.424 . S
C420 C419 1.384 . S
C420 H438 0.928 . S
C421 C418 1.260 . S
C421 C419 1.479 . S
C422 C417 1.245 . S
C422 C418 1.477 . S
C422 H439 0.932 . S
C423 U406 2.882 . S
C423 C417 1.428 . S
C423 O426 1.301 . S
C423 O427 1.282 . S
O424 U406 2.441 . S
O424 C410 1.249 . S
O425 U406 2.420 . S
O425 C410 1.202 . S
O426 U406 2.455 . S
O426 C423 1.301 . S
O427 U406 2.449 . S
O427 C423 1.282 . S
H428 C401 0.931 . S
H429 C403 0.929 . S
H430 C404 0.930 . S
H431 C405 0.931 . S
H432 C412 0.932 . S
H433 C413 0.930 . S
H434 C414 0.929 . S
H435 C416 0.930 . S
H436 C418 0.932 . S
H437 C419 0.929 . S
H438 C420 0.928 . S
H439 C422 0.932 . S
C440 C441 1.264 . S
C440 C445 1.479 . S
C440 C450 1.465 . S
C441 C440 1.264 . S
C441 C443 1.339 . S
C441 H468 0.931 . S
C442 C443 1.395 . S
C442 C444 1.320 . S
C443 C441 1.339 . S
C443 C442 1.395 . S
C443 H469 0.929 . S
C444 C442 1.320 . S
C444 C445 1.405 . S
C444 H470 0.930 . S
C445 C440 1.479 . S
C445 C444 1.405 . S
C445 H471 0.931 . S
U446 O447 2.454 . S
U446 O448 2.458 . S
U446 C449 2.984 . S
U446 C450 2.847 . S
U446 C463 2.882 . S
U446 O464 2.441 . S
U446 O465 2.420 . S
U446 O466 2.455 . S
U446 O467 2.449 . S
O447 U446 2.454 . S
O447 C449 1.353 . S
O448 U446 2.458 . S
O448 C449 1.286 . S
C449 U446 2.984 . S
C449 O447 1.353 . S
C449 O448 1.286 . S
C449 C451 1.363 . S
C450 C440 1.465 . S
C450 U446 2.847 . S
C450 O464 1.249 . S
C450 O465 1.202 . S
C451 C449 1.363 . S
C451 C453 1.408 . S
C451 C456 1.342 . S
C452 C453 1.310 . S
C452 C455 1.461 . S
C452 H472 0.932 . S
C453 C451 1.408 . S
C453 C452 1.310 . S
C453 H473 0.930 . S
C454 C455 1.474 . S
C454 C456 1.285 . S
C454 H474 0.929 . S
C455 C452 1.461 . S
C455 C454 1.474 . S
C456 C451 1.342 . S
C456 C454 1.285 . S
C456 H475 0.930 . S
C457 C460 1.424 . S
C457 C462 1.245 . S
C457 C463 1.428 . S
C458 C461 1.260 . S
C458 C462 1.477 . S
C458 H476 0.932 . S
C459 C460 1.384 . S
C459 C461 1.479 . S
C459 H477 0.929 . S
C460 C457 1.424 . S
C460 C459 1.384 . S
C460 H478 0.928 . S
C461 C458 1.260 . S
C461 C459 1.479 . S
C462 C457 1.245 . S
C462 C458 1.477 . S
C462 H479 0.932 . S
C463 U446 2.882 . S
C463 C457 1.428 . S
C463 O466 1.301 . S
C463 O467 1.282 . S
O464 U446 2.441 . S
O464 C450 1.249 . S
O465 U446 2.420 . S
O465 C450 1.202 . S
O466 U446 2.455 . S
O466 C463 1.301 . S
O467 U446 2.449 . S
O467 C463 1.282 . S
H468 C441 0.931 . S
H469 C443 0.929 . S
H470 C444 0.930 . S
H471 C445 0.931 . S
H472 C452 0.932 . S
H473 C453 0.930 . S
H474 C454 0.929 . S
H475 C456 0.930 . S
H476 C458 0.932 . S
H477 C459 0.929 . S
H478 C460 0.928 . S
H479 C462 0.932 . S
C480 C481 1.264 . S
C480 C485 1.479 . S
C480 C490 1.465 . S
C481 C480 1.264 . S
C481 C483 1.339 . S
C481 H508 0.931 . S
C482 C483 1.395 . S
C482 C484 1.320 . S
C483 C481 1.339 . S
C483 C482 1.395 . S
C483 H509 0.929 . S
C484 C482 1.320 . S
C484 C485 1.405 . S
C484 H510 0.930 . S
C485 C480 1.479 . S
C485 C484 1.405 . S
C485 H511 0.931 . S
U486 O487 2.454 . S
U486 O488 2.458 . S
U486 C489 2.984 . S
U486 C490 2.847 . S
U486 C503 2.882 . S
U486 O504 2.441 . S
U486 O505 2.420 . S
U486 O506 2.455 . S
U486 O507 2.449 . S
O487 U486 2.454 . S
O487 C489 1.353 . S
O488 U486 2.458 . S
O488 C489 1.286 . S
C489 U486 2.984 . S
C489 O487 1.353 . S
C489 O488 1.286 . S
C489 C491 1.363 . S
C490 C480 1.465 . S
C490 U486 2.847 . S
C490 O504 1.249 . S
C490 O505 1.202 . S
C491 C489 1.363 . S
C491 C493 1.408 . S
C491 C496 1.342 . S
C492 C493 1.310 . S
C492 C495 1.461 . S
C492 H512 0.932 . S
C493 C491 1.408 . S
C493 C492 1.310 . S
C493 H513 0.930 . S
C494 C495 1.474 . S
C494 C496 1.285 . S
C494 H514 0.929 . S
C495 C492 1.461 . S
C495 C494 1.474 . S
C496 C491 1.342 . S
C496 C494 1.285 . S
C496 H515 0.930 . S
C497 C500 1.424 . S
C497 C502 1.245 . S
C497 C503 1.428 . S
C498 C501 1.260 . S
C498 C502 1.477 . S
C498 H516 0.932 . S
C499 C500 1.384 . S
C499 C501 1.479 . S
C499 H517 0.929 . S
C500 C497 1.424 . S
C500 C499 1.384 . S
C500 H518 0.928 . S
C501 C498 1.260 . S
C501 C499 1.479 . S
C502 C497 1.245 . S
C502 C498 1.477 . S
C502 H519 0.932 . S
C503 U486 2.882 . S
C503 C497 1.428 . S
C503 O506 1.301 . S
C503 O507 1.282 . S
O504 U486 2.441 . S
O504 C490 1.249 . S
O505 U486 2.420 . S
O505 C490 1.202 . S
O506 U486 2.455 . S
O506 C503 1.301 . S
O507 U486 2.449 . S
O507 C503 1.282 . S
H508 C481 0.931 . S
H509 C483 0.929 . S
H510 C484 0.930 . S
H511 C485 0.931 . S
H512 C492 0.932 . S
H513 C493 0.930 . S
H514 C494 0.929 . S
H515 C496 0.930 . S
H516 C498 0.932 . S
H517 C499 0.929 . S
H518 C500 0.928 . S
H519 C502 0.932 . S
C520 C521 1.264 . S
C520 C525 1.479 . S
C520 C530 1.465 . S
C521 C520 1.264 . S
C521 C523 1.339 . S
C521 H548 0.931 . S
C522 C523 1.395 . S
C522 C524 1.320 . S
C523 C521 1.339 . S
C523 C522 1.395 . S
C523 H549 0.929 . S
C524 C522 1.320 . S
C524 C525 1.405 . S
C524 H550 0.930 . S
C525 C520 1.479 . S
C525 C524 1.405 . S
C525 H551 0.931 . S
U526 O527 2.454 . S
U526 O528 2.458 1_556 S
U526 C529 2.984 1_556 S
U526 C530 2.847 . S
U526 C543 2.882 . S
U526 O544 2.441 . S
U526 O545 2.420 . S
U526 O546 2.455 1_556 S
U526 O547 2.449 . S
O527 U526 2.454 . S
O527 C529 1.353 1_556 S
O528 U526 2.458 1_554 S
O528 C529 1.286 . S
C529 U526 2.984 1_554 S
C529 O527 1.353 1_554 S
C529 O528 1.286 . S
C529 C531 1.363 . S
C530 C520 1.465 . S
C530 U526 2.847 . S
C530 O544 1.249 . S
C530 O545 1.202 . S
C531 C529 1.363 . S
C531 C533 1.408 . S
C531 C536 1.342 . S
C532 C533 1.310 . S
C532 C535 1.461 . S
C532 H552 0.932 . S
C533 C531 1.408 . S
C533 C532 1.310 . S
C533 H553 0.930 . S
C534 C535 1.474 . S
C534 C536 1.285 . S
C534 H554 0.929 . S
C535 C532 1.461 . S
C535 C534 1.474 . S
C536 C531 1.342 . S
C536 C534 1.285 . S
C536 H555 0.930 . S
C537 C540 1.424 . S
C537 C542 1.245 1_556 S
C537 C543 1.428 . S
C538 C541 1.260 1_554 S
C538 C542 1.477 . S
C538 H556 0.932 . S
C539 C540 1.384 . S
C539 C541 1.479 . S
C539 H557 0.929 . S
C540 C537 1.424 . S
C540 C539 1.384 . S
C540 H558 0.928 . S
C541 C538 1.260 1_556 S
C541 C539 1.479 . S
C542 C537 1.245 1_554 S
C542 C538 1.477 . S
C542 H559 0.932 . S
C543 U526 2.882 . S
C543 C537 1.428 . S
C543 O546 1.301 1_556 S
C543 O547 1.282 . S
O544 U526 2.441 . S
O544 C530 1.249 . S
O545 U526 2.420 . S
O545 C530 1.202 . S
O546 U526 2.455 1_554 S
O546 C543 1.301 1_554 S
O547 U526 2.449 . S
O547 C543 1.282 . S
H548 C521 0.931 . S
H549 C523 0.929 . S
H550 C524 0.930 . S
H551 C525 0.931 . S
H552 C532 0.932 . S
H553 C533 0.930 . S
H554 C534 0.929 . S
H555 C536 0.930 . S
H556 C538 0.932 . S
H557 C539 0.929 . S
H558 C540 0.928 . S
H559 C542 0.932 . S
C560 C561 1.264 . S
C560 C565 1.479 . S
C560 C570 1.465 . S
C561 C560 1.264 . S
C561 C563 1.339 . S
C561 H588 0.931 . S
C562 C563 1.395 . S
C562 C564 1.320 . S
C563 C561 1.339 . S
C563 C562 1.395 . S
C563 H589 0.929 . S
C564 C562 1.320 . S
C564 C565 1.405 . S
C564 H590 0.930 . S
C565 C560 1.479 . S
C565 C564 1.405 . S
C565 H591 0.931 . S
U566 O567 2.454 . S
U566 O568 2.458 . S
U566 C569 2.984 . S
U566 C570 2.847 . S
U566 C583 2.882 . S
U566 O584 2.441 . S
U566 O585 2.420 . S
U566 O586 2.455 . S
U566 O587 2.449 . S
O567 U566 2.454 . S
O567 C569 1.353 . S
O568 U566 2.458 . S
O568 C569 1.286 . S
C569 U566 2.984 . S
C569 O567 1.353 . S
C569 O568 1.286 . S
C569 C571 1.363 . S
C570 C560 1.465 . S
C570 U566 2.847 . S
C570 O584 1.249 . S
C570 O585 1.202 . S
C571 C569 1.363 . S
C571 C573 1.408 . S
C571 C576 1.342 . S
C572 C573 1.310 . S
C572 C575 1.461 . S
C572 H592 0.932 . S
C573 C571 1.408 . S
C573 C572 1.310 . S
C573 H593 0.930 . S
C574 C575 1.474 . S
C574 C576 1.285 . S
C574 H594 0.929 . S
C575 C572 1.461 . S
C575 C574 1.474 . S
C576 C571 1.342 . S
C576 C574 1.285 . S
C576 H595 0.930 . S
C577 C580 1.424 . S
C577 C582 1.245 . S
C577 C583 1.428 . S
C578 C581 1.260 . S
C578 C582 1.477 . S
C578 H596 0.932 . S
C579 C580 1.384 . S
C579 C581 1.479 . S
C579 H597 0.929 . S
C580 C577 1.424 . S
C580 C579 1.384 . S
C580 H598 0.928 . S
C581 C578 1.260 . S
C581 C579 1.479 . S
C582 C577 1.245 . S
C582 C578 1.477 . S
C582 H599 0.932 . S
C583 U566 2.882 . S
C583 C577 1.428 . S
C583 O586 1.301 . S
C583 O587 1.282 . S
O584 U566 2.441 . S
O584 C570 1.249 . S
O585 U566 2.420 . S
O585 C570 1.202 . S
O586 U566 2.455 . S
O586 C583 1.301 . S
O587 U566 2.449 . S
O587 C583 1.282 . S
H588 C561 0.931 . S
H589 C563 0.929 . S
H590 C564 0.930 . S
H591 C565 0.931 . S
H592 C572 0.932 . S
H593 C573 0.930 . S
H594 C574 0.929 . S
H595 C576 0.930 . S
H596 C578 0.932 . S
H597 C579 0.929 . S
H598 C580 0.928 . S
H599 C582 0.932 . S
C600 C601 1.264 . S
C600 C605 1.479 . S
C600 C610 1.465 . S
C601 C600 1.264 . S
C601 C603 1.339 . S
C601 H628 0.931 . S
C602 C603 1.395 . S
C602 C604 1.320 . S
C603 C601 1.339 . S
C603 C602 1.395 . S
C603 H629 0.929 . S
C604 C602 1.320 . S
C604 C605 1.405 . S
C604 H630 0.930 . S
C605 C600 1.479 . S
C605 C604 1.405 . S
C605 H631 0.931 . S
U606 O607 2.454 1_556 S
U606 O608 2.458 1_545 S
U606 C609 2.984 1_545 S
U606 C610 2.847 1_556 S
U606 C623 2.882 . S
U606 O624 2.441 1_556 S
U606 O625 2.420 1_556 S
U606 O626 2.455 1_545 S
U606 O627 2.449 . S
O607 U606 2.454 1_554 S
O607 C609 1.353 1_544 S
O608 U606 2.458 1_565 S
O608 C609 1.286 . S
C609 U606 2.984 1_565 S
C609 O607 1.353 1_566 S
C609 O608 1.286 . S
C609 C611 1.363 . S
C610 C600 1.465 . S
C610 U606 2.847 1_554 S
C610 O624 1.249 . S
C610 O625 1.202 . S
C611 C609 1.363 . S
C611 C613 1.408 1_556 S
C611 C616 1.342 . S
C612 C613 1.310 . S
C612 C615 1.461 1_554 S
C612 H632 0.932 . S
C613 C611 1.408 1_554 S
C613 C612 1.310 . S
C613 H633 0.930 . S
C614 C615 1.474 . S
C614 C616 1.285 . S
C614 H634 0.929 . S
C615 C612 1.461 1_556 S
C615 C614 1.474 . S
C616 C611 1.342 . S
C616 C614 1.285 . S
C616 H635 0.930 . S
C617 C620 1.424 . S
C617 C622 1.245 1_545 S
C617 C623 1.428 . S
C618 C621 1.260 1_565 S
C618 C622 1.477 . S
C618 H636 0.932 . S
C619 C620 1.384 . S
C619 C621 1.479 . S
C619 H637 0.929 . S
C620 C617 1.424 . S
C620 C619 1.384 . S
C620 H638 0.928 . S
C621 C618 1.260 1_545 S
C621 C619 1.479 . S
C622 C617 1.245 1_565 S
C622 C618 1.477 . S
C622 H639 0.932 . S
C623 U606 2.882 . S
C623 C617 1.428 . S
C623 O626 1.301 1_545 S
C623 O627 1.282 . S
O624 U606 2.441 1_554 S
O624 C610 1.249 . S
O625 U606 2.420 1_554 S
O625 C610 1.202 . S
O626 U606 2.455 1_565 S
O626 C623 1.301 1_565 S
O627 U606 2.449 . S
O627 C623 1.282 . S
H628 C601 0.931 . S
H629 C603 0.929 . S
H630 C604 0.930 . S
H631 C605 0.931 . S
H632 C612 0.932 . S
H633 C613 0.930 . S
H634 C614 0.929 . S
H635 C616 0.930 . S
H636 C618 0.932 . S
H637 C619 0.929 . S
H638 C620 0.928 . S
H639 C622 0.932 . S
C640 O641 1.160 1_554 S
C640 O647 1.185 . S
O641 C640 1.160 1_556 S
O642 Zn643 1.899 1_556 S
O642 C650 1.284 . S
Zn643 O642 1.899 1_554 S
Zn643 O644 2.032 . S
Zn643 O647 2.086 . S
Zn643 O652 1.977 . S
O644 Zn643 2.032 . S
O644 C648 1.278 . S
C645 O646 1.203 . S
C645 O652 1.267 . S
O646 C645 1.203 . S
O647 C640 1.185 . S
O647 Zn643 2.086 . S
C648 O644 1.278 . S
C648 O649 1.211 . S
O649 C648 1.211 . S
C650 O642 1.284 . S
C650 O651 1.273 . S
O651 C650 1.273 . S
O652 Zn643 1.977 . S
O652 C645 1.267 . S
C653 O654 1.160 . S
C653 O660 1.185 . S
O654 C653 1.160 . S
O655 Zn656 1.899 . S
O655 C663 1.284 . S
Zn656 O655 1.899 . S
Zn656 O657 2.032 . S
Zn656 O660 2.086 . S
Zn656 O665 1.977 . S
O657 Zn656 2.032 . S
O657 C661 1.278 . S
C658 O659 1.203 . S
C658 O665 1.267 . S
O659 C658 1.203 . S
O660 C653 1.185 . S
O660 Zn656 2.086 . S
C661 O657 1.278 . S
C661 O662 1.211 . S
O662 C661 1.211 . S
C663 O655 1.284 . S
C663 O664 1.273 . S
O664 C663 1.273 . S
O665 Zn656 1.977 . S
O665 C658 1.267 . S
C666 O667 1.160 1_554 S
C666 O673 1.185 . S
O667 C666 1.160 1_556 S
O668 Zn669 1.899 1_556 S
O668 C676 1.284 . S
Zn669 O668 1.899 1_554 S
Zn669 O670 2.032 1_554 S
Zn669 O673 2.086 . S
Zn669 O678 1.977 . S
O670 Zn669 2.032 1_556 S
O670 C674 1.278 . S
C671 O672 1.203 . S
C671 O678 1.267 . S
O672 C671 1.203 . S
O673 C666 1.185 . S
O673 Zn669 2.086 . S
C674 O670 1.278 . S
C674 O675 1.211 1_556 S
O675 C674 1.211 1_554 S
C676 O668 1.284 . S
C676 O677 1.273 . S
O677 C676 1.273 . S
O678 Zn669 1.977 . S
O678 C671 1.267 . S
C679 O680 1.160 . S
C679 O686 1.185 . S
O680 C679 1.160 . S
O681 Zn682 1.899 . S
O681 C689 1.284 1_545 S
Zn682 O681 1.899 . S
Zn682 O683 2.032 1_545 S
Zn682 O686 2.086 . S
Zn682 O691 1.977 . S
O683 Zn682 2.032 1_565 S
O683 C687 1.278 . S
C684 O685 1.203 1_545 S
C684 O691 1.267 . S
O685 C684 1.203 1_565 S
O686 C679 1.185 . S
O686 Zn682 2.086 . S
C687 O683 1.278 . S
C687 O688 1.211 . S
O688 C687 1.211 . S
C689 O681 1.284 1_565 S
C689 O690 1.273 . S
O690 C689 1.273 . S
O691 Zn682 1.977 . S
O691 C684 1.267 . S
C692 O693 1.160 . S
C692 O699 1.185 . S
O693 C692 1.160 . S
O694 Zn695 1.899 . S
O694 C702 1.284 . S
Zn695 O694 1.899 . S
Zn695 O696 2.032 . S
Zn695 O699 2.086 . S
Zn695 O704 1.977 . S
O696 Zn695 2.032 . S
O696 C700 1.278 . S
C697 O698 1.203 . S
C697 O704 1.267 . S
O698 C697 1.203 . S
O699 C692 1.185 . S
O699 Zn695 2.086 . S
C700 O696 1.278 . S
C700 O701 1.211 . S
O701 C700 1.211 . S
C702 O694 1.284 . S
C702 O703 1.273 . S
O703 C702 1.273 . S
O704 Zn695 1.977 . S
O704 C697 1.267 . S
C705 O706 1.160 . S
C705 O712 1.185 . S
O706 C705 1.160 . S
O707 Zn708 1.899 . S
O707 C715 1.284 . S
Zn708 O707 1.899 . S
Zn708 O709 2.032 . S
Zn708 O712 2.086 . S
Zn708 O717 1.977 . S
O709 Zn708 2.032 . S
O709 C713 1.278 . S
C710 O711 1.203 . S
C710 O717 1.267 . S
O711 C710 1.203 . S
O712 C705 1.185 . S
O712 Zn708 2.086 . S
C713 O709 1.278 . S
C713 O714 1.211 . S
O714 C713 1.211 . S
C715 O707 1.284 . S
C715 O716 1.273 . S
O716 C715 1.273 . S
O717 Zn708 1.977 . S
O717 C710 1.267 . S
C718 O719 1.160 . S
C718 O725 1.185 . S
O719 C718 1.160 . S
O720 Zn721 1.899 . S
O720 C728 1.284 . S
Zn721 O720 1.899 . S
Zn721 O722 2.032 . S
Zn721 O725 2.086 . S
Zn721 O730 1.977 . S
O722 Zn721 2.032 . S
O722 C726 1.278 . S
C723 O724 1.203 . S
C723 O730 1.267 . S
O724 C723 1.203 . S
O725 C718 1.185 . S
O725 Zn721 2.086 . S
C726 O722 1.278 . S
C726 O727 1.211 . S
O727 C726 1.211 . S
C728 O720 1.284 . S
C728 O729 1.273 . S
O729 C728 1.273 . S
O730 Zn721 1.977 . S
O730 C723 1.267 . S
C731 O732 1.160 . S
C731 O738 1.185 . S
O732 C731 1.160 . S
O733 Zn734 1.899 . S
O733 C741 1.284 1_565 S
Zn734 O733 1.899 . S
Zn734 O735 2.032 1_565 S
Zn734 O738 2.086 . S
Zn734 O743 1.977 . S
O735 Zn734 2.032 1_545 S
O735 C739 1.278 . S
C736 O737 1.203 1_565 S
C736 O743 1.267 . S
O737 C736 1.203 1_545 S
O738 C731 1.185 . S
O738 Zn734 2.086 . S
C739 O735 1.278 . S
C739 O740 1.211 . S
O740 C739 1.211 . S
C741 O733 1.284 1_545 S
C741 O742 1.273 . S
O742 C741 1.273 . S
O743 Zn734 1.977 . S
O743 C736 1.267 . S
C744 O745 1.160 1_455 S
C744 O751 1.185 . S
O745 C744 1.160 1_655 S
O746 Zn747 1.899 1_655 S
O746 C754 1.284 . S
Zn747 O746 1.899 1_455 S
Zn747 O748 2.033 . S
Zn747 O751 2.086 . S
Zn747 O756 1.977 . S
O748 Zn747 2.033 . S
O748 C752 1.278 . S
C749 O750 1.203 . S
C749 O756 1.267 . S
O750 C749 1.203 . S
O751 C744 1.185 . S
O751 Zn747 2.086 . S
C752 O748 1.278 . S
C752 O753 1.211 . S
O753 C752 1.211 . S
C754 O746 1.284 . S
C754 O755 1.273 . S
O755 C754 1.273 . S
O756 Zn747 1.977 . S
O756 C749 1.267 . S
C757 O758 1.160 . S
C757 O764 1.185 . S
O758 C757 1.160 . S
O759 Zn760 1.899 . S
O759 C767 1.284 . S
Zn760 O759 1.899 . S
Zn760 O761 2.032 . S
Zn760 O764 2.086 . S
Zn760 O769 1.977 . S
O761 Zn760 2.032 . S
O761 C765 1.278 . S
C762 O763 1.203 . S
C762 O769 1.267 . S
O763 C762 1.203 . S
O764 C757 1.185 . S
O764 Zn760 2.086 . S
C765 O761 1.278 . S
C765 O766 1.211 . S
O766 C765 1.211 . S
C767 O759 1.284 . S
C767 O768 1.273 . S
O768 C767 1.273 . S
O769 Zn760 1.977 . S
O769 C762 1.267 . S
C770 O771 1.160 1_455 S
C770 O777 1.185 . S
O771 C770 1.160 1_655 S
O772 Zn773 1.899 1_655 S
O772 C780 1.284 . S
Zn773 O772 1.899 1_455 S
Zn773 O774 2.032 1_455 S
Zn773 O777 2.086 . S
Zn773 O782 1.977 . S
O774 Zn773 2.032 1_655 S
O774 C778 1.278 1_655 S
C775 O776 1.203 . S
C775 O782 1.267 . S
O776 C775 1.203 . S
O777 C770 1.185 . S
O777 Zn773 2.086 . S
C778 O774 1.278 1_455 S
C778 O779 1.211 . S
O779 C778 1.211 . S
C780 O772 1.284 . S
C780 O781 1.273 . S
O781 C780 1.273 . S
O782 Zn773 1.977 . S
O782 C775 1.267 . S
C783 O784 1.160 . S
C783 O790 1.185 . S
O784 C783 1.160 . S
O785 Zn786 1.899 . S
O785 C793 1.284 . S
Zn786 O785 1.899 . S
Zn786 O787 2.032 . S
Zn786 O790 2.086 . S
Zn786 O795 1.977 . S
O787 Zn786 2.032 . S
O787 C791 1.278 . S
C788 O789 1.203 . S
C788 O795 1.267 . S
O789 C788 1.203 . S
O790 C783 1.185 . S
O790 Zn786 2.086 . S
C791 O787 1.278 . S
C791 O792 1.211 . S
O792 C791 1.211 . S
C793 O785 1.284 . S
C793 O794 1.273 . S
O794 C793 1.273 . S
O795 Zn786 1.977 . S
O795 C788 1.267 . S
C650 C202 1.479 . S
C663 C261 1.716 . S
C282 C676 1.413 . S
C689 C162 1.551 1_565 S
C697 C402 1.426 . S
C710 C482 1.427 . S
C442 C723 1.544 . S
C736 C381 1.619 . S
C461 C754 1.437 . S
C765 C362 1.444 . S
C415 C749 1.336 . S
C757 C495 1.489 . S
C301 C780 1.533 . S
C175 C770 1.491 . S
C215 C775 1.407 . S
C242 C778 1.497 . S
C141 C687 1.563 . S
C581 C679 1.470 . S
C648 C615 1.528 1_554 S
C653 C335 1.553 . S
C181 C700 1.572 . S
C739 C455 1.513 . S
C692 C375 1.413 . S
C718 C501 1.468 . S
C728 C562 1.479 . S
C621 C741 1.717 . S
C322 C702 1.411 . S
C715 C522 1.551 . S
C122 C671 1.425 . S
C684 C2 1.427 . S
C645 C42 1.544 . S
C658 C101 1.619 . S
C61 C767 1.438 . S
C82 C752 1.444 1_655 S
C135 C762 1.336 . S
C15 C744 1.489 . S
C793 C341 1.533 . S
C783 C535 1.491 . S
C788 C575 1.407 . S
C602 C791 1.497 . S
C421 C713 1.563 . S
C705 C221 1.470 . S
C726 C255 1.528 . S
C731 C295 1.554 . S
C541 C674 1.572 . S
C661 C55 1.513 . S
C95 C666 1.412 . S
C640 C21 1.468 . S
