# Generated by pormake.
# Topology iac, (4,6)-cn, num edge types: 1
# Building blocks:
#     Node 0, Type 0, BuildingBlock: CEKHIL_clean_sbu_0, # of connection points: 4
#     Node 1, Type 0, BuildingBlock: CEKHIL_clean_sbu_0, # of connection points: 4
#     Node 2, Type 0, BuildingBlock: CEKHIL_clean_sbu_0, # of connection points: 4
#     Node 3, Type 0, BuildingBlock: CEKHIL_clean_sbu_0, # of connection points: 4
#     Node 4, Type 0, BuildingBlock: CEKHIL_clean_sbu_0, # of connection points: 4
#     Node 5, Type 0, BuildingBlock: CEKHIL_clean_sbu_0, # of connection points: 4
#     Node 6, Type 0, BuildingBlock: CEKHIL_clean_sbu_0, # of connection points: 4
#     Node 7, Type 0, BuildingBlock: CEKHIL_clean_sbu_0, # of connection points: 4
#     Node 8, Type 0, BuildingBlock: CEKHIL_clean_sbu_0, # of connection points: 4
#     Node 9, Type 0, BuildingBlock: CEKHIL_clean_sbu_0, # of connection points: 4
#     Node 10, Type 0, BuildingBlock: CEKHIL_clean_sbu_0, # of connection points: 4
#     Node 11, Type 0, BuildingBlock: CEKHIL_clean_sbu_0, # of connection points: 4
#     Node 12, Type 0, BuildingBlock: CEKHIL_clean_sbu_0, # of connection points: 4
#     Node 13, Type 0, BuildingBlock: CEKHIL_clean_sbu_0, # of connection points: 4
#     Node 14, Type 0, BuildingBlock: CEKHIL_clean_sbu_0, # of connection points: 4
#     Node 15, Type 0, BuildingBlock: CEKHIL_clean_sbu_0, # of connection points: 4
#     Node 16, Type 0, BuildingBlock: CEKHIL_clean_sbu_0, # of connection points: 4
#     Node 17, Type 0, BuildingBlock: CEKHIL_clean_sbu_0, # of connection points: 4
#     Node 18, Type 0, BuildingBlock: CEKHIL_clean_sbu_0, # of connection points: 4
#     Node 19, Type 0, BuildingBlock: CEKHIL_clean_sbu_0, # of connection points: 4
#     Node 20, Type 0, BuildingBlock: CEKHIL_clean_sbu_0, # of connection points: 4
#     Node 21, Type 0, BuildingBlock: CEKHIL_clean_sbu_0, # of connection points: 4
#     Node 22, Type 0, BuildingBlock: CEKHIL_clean_sbu_0, # of connection points: 4
#     Node 23, Type 0, BuildingBlock: CEKHIL_clean_sbu_0, # of connection points: 4
#     Node 24, Type 1, BuildingBlock: FUNLAD_clean_sbu_0, # of connection points: 6
#     Node 25, Type 1, BuildingBlock: FUNLAD_clean_sbu_0, # of connection points: 6
#     Node 26, Type 1, BuildingBlock: FUNLAD_clean_sbu_0, # of connection points: 6
#     Node 27, Type 1, BuildingBlock: FUNLAD_clean_sbu_0, # of connection points: 6
#     Node 28, Type 1, BuildingBlock: FUNLAD_clean_sbu_0, # of connection points: 6
#     Node 29, Type 1, BuildingBlock: FUNLAD_clean_sbu_0, # of connection points: 6
#     Node 30, Type 1, BuildingBlock: FUNLAD_clean_sbu_0, # of connection points: 6
#     Node 31, Type 1, BuildingBlock: FUNLAD_clean_sbu_0, # of connection points: 6
#     Node 32, Type 1, BuildingBlock: FUNLAD_clean_sbu_0, # of connection points: 6
#     Node 33, Type 1, BuildingBlock: FUNLAD_clean_sbu_0, # of connection points: 6
#     Node 34, Type 1, BuildingBlock: FUNLAD_clean_sbu_0, # of connection points: 6
#     Node 35, Type 1, BuildingBlock: FUNLAD_clean_sbu_0, # of connection points: 6
#     Node 36, Type 1, BuildingBlock: FUNLAD_clean_sbu_0, # of connection points: 6
#     Node 37, Type 1, BuildingBlock: FUNLAD_clean_sbu_0, # of connection points: 6
#     Node 38, Type 1, BuildingBlock: FUNLAD_clean_sbu_0, # of connection points: 6
#     Node 39, Type 1, BuildingBlock: FUNLAD_clean_sbu_0, # of connection points: 6
#     Edge 40, Type (0, 1), BuildingBlock: AJUNOK_clean_linker_0, # of connection points: 2
#     Edge 41, Type (0, 1), BuildingBlock: AJUNOK_clean_linker_0, # of connection points: 2
#     Edge 42, Type (0, 1), BuildingBlock: AJUNOK_clean_linker_0, # of connection points: 2
#     Edge 43, Type (0, 1), BuildingBlock: AJUNOK_clean_linker_0, # of connection points: 2
#     Edge 44, Type (0, 1), BuildingBlock: AJUNOK_clean_linker_0, # of connection points: 2
#     Edge 45, Type (0, 1), BuildingBlock: AJUNOK_clean_linker_0, # of connection points: 2
#     Edge 46, Type (0, 1), BuildingBlock: AJUNOK_clean_linker_0, # of connection points: 2
#     Edge 47, Type (0, 1), BuildingBlock: AJUNOK_clean_linker_0, # of connection points: 2
#     Edge 48, Type (0, 1), BuildingBlock: AJUNOK_clean_linker_0, # of connection points: 2
#     Edge 49, Type (0, 1), BuildingBlock: AJUNOK_clean_linker_0, # of connection points: 2
#     Edge 50, Type (0, 1), BuildingBlock: AJUNOK_clean_linker_0, # of connection points: 2
#     Edge 51, Type (0, 1), BuildingBlock: AJUNOK_clean_linker_0, # of connection points: 2
#     Edge 52, Type (0, 1), BuildingBlock: AJUNOK_clean_linker_0, # of connection points: 2
#     Edge 53, Type (0, 1), BuildingBlock: AJUNOK_clean_linker_0, # of connection points: 2
#     Edge 54, Type (0, 1), BuildingBlock: AJUNOK_clean_linker_0, # of connection points: 2
#     Edge 55, Type (0, 1), BuildingBlock: AJUNOK_clean_linker_0, # of connection points: 2
#     Edge 56, Type (0, 1), BuildingBlock: AJUNOK_clean_linker_0, # of connection points: 2
#     Edge 57, Type (0, 1), BuildingBlock: AJUNOK_clean_linker_0, # of connection points: 2
#     Edge 58, Type (0, 1), BuildingBlock: AJUNOK_clean_linker_0, # of connection points: 2
#     Edge 59, Type (0, 1), BuildingBlock: AJUNOK_clean_linker_0, # of connection points: 2
#     Edge 60, Type (0, 1), BuildingBlock: AJUNOK_clean_linker_0, # of connection points: 2
#     Edge 61, Type (0, 1), BuildingBlock: AJUNOK_clean_linker_0, # of connection points: 2
#     Edge 62, Type (0, 1), BuildingBlock: AJUNOK_clean_linker_0, # of connection points: 2
#     Edge 63, Type (0, 1), BuildingBlock: AJUNOK_clean_linker_0, # of connection points: 2
#     Edge 64, Type (0, 1), BuildingBlock: AJUNOK_clean_linker_0, # of connection points: 2
#     Edge 65, Type (0, 1), BuildingBlock: AJUNOK_clean_linker_0, # of connection points: 2
#     Edge 66, Type (0, 1), BuildingBlock: AJUNOK_clean_linker_0, # of connection points: 2
#     Edge 67, Type (0, 1), BuildingBlock: AJUNOK_clean_linker_0, # of connection points: 2
#     Edge 68, Type (0, 1), BuildingBlock: AJUNOK_clean_linker_0, # of connection points: 2
#     Edge 69, Type (0, 1), BuildingBlock: AJUNOK_clean_linker_0, # of connection points: 2
#     Edge 70, Type (0, 1), BuildingBlock: AJUNOK_clean_linker_0, # of connection points: 2
#     Edge 71, Type (0, 1), BuildingBlock: AJUNOK_clean_linker_0, # of connection points: 2
#     Edge 72, Type (0, 1), BuildingBlock: AJUNOK_clean_linker_0, # of connection points: 2
#     Edge 73, Type (0, 1), BuildingBlock: AJUNOK_clean_linker_0, # of connection points: 2
#     Edge 74, Type (0, 1), BuildingBlock: AJUNOK_clean_linker_0, # of connection points: 2
#     Edge 75, Type (0, 1), BuildingBlock: AJUNOK_clean_linker_0, # of connection points: 2
#     Edge 76, Type (0, 1), BuildingBlock: AJUNOK_clean_linker_0, # of connection points: 2
#     Edge 77, Type (0, 1), BuildingBlock: AJUNOK_clean_linker_0, # of connection points: 2
#     Edge 78, Type (0, 1), BuildingBlock: AJUNOK_clean_linker_0, # of connection points: 2
#     Edge 79, Type (0, 1), BuildingBlock: AJUNOK_clean_linker_0, # of connection points: 2
#     Edge 80, Type (0, 1), BuildingBlock: AJUNOK_clean_linker_0, # of connection points: 2
#     Edge 81, Type (0, 1), BuildingBlock: AJUNOK_clean_linker_0, # of connection points: 2
#     Edge 82, Type (0, 1), BuildingBlock: AJUNOK_clean_linker_0, # of connection points: 2
#     Edge 83, Type (0, 1), BuildingBlock: AJUNOK_clean_linker_0, # of connection points: 2
#     Edge 84, Type (0, 1), BuildingBlock: AJUNOK_clean_linker_0, # of connection points: 2
#     Edge 85, Type (0, 1), BuildingBlock: AJUNOK_clean_linker_0, # of connection points: 2
#     Edge 86, Type (0, 1), BuildingBlock: AJUNOK_clean_linker_0, # of connection points: 2
#     Edge 87, Type (0, 1), BuildingBlock: AJUNOK_clean_linker_0, # of connection points: 2
#     Edge 88, Type (0, 1), BuildingBlock: AJUNOK_clean_linker_0, # of connection points: 2
#     Edge 89, Type (0, 1), BuildingBlock: AJUNOK_clean_linker_0, # of connection points: 2
#     Edge 90, Type (0, 1), BuildingBlock: AJUNOK_clean_linker_0, # of connection points: 2
#     Edge 91, Type (0, 1), BuildingBlock: AJUNOK_clean_linker_0, # of connection points: 2
#     Edge 92, Type (0, 1), BuildingBlock: AJUNOK_clean_linker_0, # of connection points: 2
#     Edge 93, Type (0, 1), BuildingBlock: AJUNOK_clean_linker_0, # of connection points: 2
#     Edge 94, Type (0, 1), BuildingBlock: AJUNOK_clean_linker_0, # of connection points: 2
#     Edge 95, Type (0, 1), BuildingBlock: AJUNOK_clean_linker_0, # of connection points: 2
#     Edge 96, Type (0, 1), BuildingBlock: AJUNOK_clean_linker_0, # of connection points: 2
#     Edge 97, Type (0, 1), BuildingBlock: AJUNOK_clean_linker_0, # of connection points: 2
#     Edge 98, Type (0, 1), BuildingBlock: AJUNOK_clean_linker_0, # of connection points: 2
#     Edge 99, Type (0, 1), BuildingBlock: AJUNOK_clean_linker_0, # of connection points: 2
#     Edge 100, Type (0, 1), BuildingBlock: AJUNOK_clean_linker_0, # of connection points: 2
#     Edge 101, Type (0, 1), BuildingBlock: AJUNOK_clean_linker_0, # of connection points: 2
#     Edge 102, Type (0, 1), BuildingBlock: AJUNOK_clean_linker_0, # of connection points: 2
#     Edge 103, Type (0, 1), BuildingBlock: AJUNOK_clean_linker_0, # of connection points: 2
#     Edge 104, Type (0, 1), BuildingBlock: AJUNOK_clean_linker_0, # of connection points: 2
#     Edge 105, Type (0, 1), BuildingBlock: AJUNOK_clean_linker_0, # of connection points: 2
#     Edge 106, Type (0, 1), BuildingBlock: AJUNOK_clean_linker_0, # of connection points: 2
#     Edge 107, Type (0, 1), BuildingBlock: AJUNOK_clean_linker_0, # of connection points: 2
#     Edge 108, Type (0, 1), BuildingBlock: AJUNOK_clean_linker_0, # of connection points: 2
#     Edge 109, Type (0, 1), BuildingBlock: AJUNOK_clean_linker_0, # of connection points: 2
#     Edge 110, Type (0, 1), BuildingBlock: AJUNOK_clean_linker_0, # of connection points: 2
#     Edge 111, Type (0, 1), BuildingBlock: AJUNOK_clean_linker_0, # of connection points: 2
#     Edge 112, Type (0, 1), BuildingBlock: AJUNOK_clean_linker_0, # of connection points: 2
#     Edge 113, Type (0, 1), BuildingBlock: AJUNOK_clean_linker_0, # of connection points: 2
#     Edge 114, Type (0, 1), BuildingBlock: AJUNOK_clean_linker_0, # of connection points: 2
#     Edge 115, Type (0, 1), BuildingBlock: AJUNOK_clean_linker_0, # of connection points: 2
#     Edge 116, Type (0, 1), BuildingBlock: AJUNOK_clean_linker_0, # of connection points: 2
#     Edge 117, Type (0, 1), BuildingBlock: AJUNOK_clean_linker_0, # of connection points: 2
#     Edge 118, Type (0, 1), BuildingBlock: AJUNOK_clean_linker_0, # of connection points: 2
#     Edge 119, Type (0, 1), BuildingBlock: AJUNOK_clean_linker_0, # of connection points: 2
#     Edge 120, Type (0, 1), BuildingBlock: AJUNOK_clean_linker_0, # of connection points: 2
#     Edge 121, Type (0, 1), BuildingBlock: AJUNOK_clean_linker_0, # of connection points: 2
#     Edge 122, Type (0, 1), BuildingBlock: AJUNOK_clean_linker_0, # of connection points: 2
#     Edge 123, Type (0, 1), BuildingBlock: AJUNOK_clean_linker_0, # of connection points: 2
#     Edge 124, Type (0, 1), BuildingBlock: AJUNOK_clean_linker_0, # of connection points: 2
#     Edge 125, Type (0, 1), BuildingBlock: AJUNOK_clean_linker_0, # of connection points: 2
#     Edge 126, Type (0, 1), BuildingBlock: AJUNOK_clean_linker_0, # of connection points: 2
#     Edge 127, Type (0, 1), BuildingBlock: AJUNOK_clean_linker_0, # of connection points: 2
#     Edge 128, Type (0, 1), BuildingBlock: AJUNOK_clean_linker_0, # of connection points: 2
#     Edge 129, Type (0, 1), BuildingBlock: AJUNOK_clean_linker_0, # of connection points: 2
#     Edge 130, Type (0, 1), BuildingBlock: AJUNOK_clean_linker_0, # of connection points: 2
#     Edge 131, Type (0, 1), BuildingBlock: AJUNOK_clean_linker_0, # of connection points: 2
#     Edge 132, Type (0, 1), BuildingBlock: AJUNOK_clean_linker_0, # of connection points: 2
#     Edge 133, Type (0, 1), BuildingBlock: AJUNOK_clean_linker_0, # of connection points: 2
#     Edge 134, Type (0, 1), BuildingBlock: AJUNOK_clean_linker_0, # of connection points: 2
#     Edge 135, Type (0, 1), BuildingBlock: AJUNOK_clean_linker_0, # of connection points: 2
# Relax obj value: 0.362
# Max RMSD: 0.308
# Mean RMSD: 0.140
data_MOF--net-iac--node1-CEKHIL_clean_sbu_0--node2-FUNLAD_clean_sbu_0--edge1-AJUNOK_clean_linker_0
_symmetry_space_group_name_H-M    P1
_symmetry_Int_Tables_number       1
_symmetry_cell_setting            triclinic
loop_
_symmetry_equiv_pos_as_xyz
'x, y, z'
_cell_length_a     40.907349
_cell_length_b     38.896722
_cell_length_c     44.524929
_cell_angle_alpha  89.472778
_cell_angle_beta   92.119796
_cell_angle_gamma 89.860522
loop_
_atom_site_label
_atom_site_type_symbol
_atom_site_fract_x
_atom_site_fract_y
_atom_site_fract_z
_atom_type_partial_charge
Co0 Co 0.10345 0.20678 0.16761 0.0
O1 O 0.05663 0.21028 0.16583 0.0
O2 O 0.08695 0.20116 0.20757 0.0
C3 C 0.11373 0.25136 0.13864 0.0
O4 O 0.1524 0.20388 0.17728 0.0
Co5 Co 0.14096 0.18899 0.1103 0.0
O6 O 0.17914 0.20629 0.13387 0.0
C7 C 0.08838 0.14753 0.13371 0.0
C8 C 0.05808 0.20485 0.1946 0.0
C9 C 0.17822 0.20965 0.16222 0.0
O10 O 0.09914 0.15685 0.15965 0.0
O11 O 0.10217 0.15761 0.10991 0.0
O12 O 0.108 0.25605 0.16688 0.0
O13 O 0.10963 0.22066 0.12822 0.0
Co14 Co 0.06197 0.76672 0.40166 0.0
O15 O 0.11075 0.7668 0.40502 0.0
O16 O 0.08322 0.75577 0.3636 0.0
C17 C 0.05532 0.81787 0.42825 0.0
O18 O 1.01277 0.76643 0.3849 0.0
Co19 Co 0.01335 0.7663 0.45269 0.0
O20 O 0.97803 0.77481 0.42175 0.0
C21 C 0.05201 0.70337 0.44212 0.0
C22 C 0.11187 0.75983 0.37654 0.0
C23 C 0.98315 0.77137 0.39391 0.0
O24 O 0.06062 0.71557 0.41613 0.0
O25 O 0.03603 0.72126 0.4606 0.0
O26 O 0.06242 0.81813 0.39995 0.0
O27 O 0.05323 0.7874 0.43945 0.0
Co28 Co 0.55616 0.76877 0.67932 0.0
O29 O 0.51296 0.75402 0.68774 0.0
O30 O 0.55881 0.72536 0.70039 0.0
C31 C 0.55089 0.82364 0.69297 0.0
O32 O 0.60432 0.77523 0.67567 0.0
Co33 Co 0.57213 0.82418 0.63161 0.0
O34 O 0.61822 0.82014 0.64724 0.0
C35 C 0.55185 0.75544 0.6124 0.0
C36 C 0.52714 0.72703 0.69987 0.0
C37 C 0.62581 0.7952 0.66488 0.0
O38 O 0.55284 0.74497 0.63985 0.0
O39 O 0.55699 0.78646 0.60417 0.0
O40 O 0.55732 0.80025 0.71346 0.0
O41 O 0.54555 0.81276 0.66591 0.0
Co42 Co 0.56646 0.27278 0.9 0.0
O43 O 0.615 0.27317 0.9043 0.0
O44 O 0.58813 0.26002 0.86287 0.0
C45 C 0.55861 0.32474 0.92452 0.0
O46 O 0.51788 0.27155 0.88253 0.0
Co47 Co 0.51658 0.2741 0.95012 0.0
O48 O 0.48179 0.28041 0.91828 0.0
C49 C 0.55716 0.21192 0.94297 0.0
C50 C 0.6165 0.2647 0.87616 0.0
C51 C 0.48799 0.27624 0.89072 0.0
O52 O 0.56517 0.22249 0.91631 0.0
O53 O 0.54096 0.23069 0.96062 0.0
O54 O 0.56663 0.3241 0.89646 0.0
O55 O 0.55659 0.29474 0.93659 0.0
Co56 Co 0.17899 0.01611 0.26547 0.0
O57 O 0.17624 0.96624 0.26711 0.0
O58 O 0.21796 0.99537 0.24989 0.0
C59 C 0.1627 0.02584 0.31266 0.0
O60 O 0.19335 0.06675 0.26243 0.0
Co61 Co 0.12008 0.06495 0.27176 0.0
O62 O 0.15416 0.09944 0.2815 0.0
C63 C 0.12339 0.02109 0.21885 0.0
C64 C 0.20545 0.96575 0.25657 0.0
C65 C 0.18356 0.09519 0.27394 0.0
O66 O 0.15441 0.01621 0.22446 0.0
O67 O 0.1051 0.03725 0.2366 0.0
O68 O 0.19276 0.01686 0.30816 0.0
O69 O 0.1433 0.0257 0.28918 0.0
Co70 Co 0.30412 0.90061 0.55984 0.0
O71 O 0.25688 0.89492 0.5566 0.0
O72 O 0.2811 0.94123 0.57441 0.0
C73 C 0.31477 0.88275 0.51305 0.0
O74 O 0.35294 0.91614 0.56423 0.0
Co75 Co 0.34954 0.83695 0.55574 0.0
O76 O 0.38474 0.87114 0.55228 0.0
C77 C 0.30923 0.84486 0.60825 0.0
C78 C 0.25382 0.92558 0.56724 0.0
C79 C 0.3812 0.90288 0.55816 0.0
O80 O 0.30435 0.87687 0.60112 0.0
O81 O 0.32379 0.82408 0.59113 0.0
O82 O 0.30499 0.91406 0.51736 0.0
O83 O 0.31421 0.86274 0.53628 0.0
Co84 Co 0.43036 0.01704 0.75706 0.0
O85 O 0.43305 0.06652 0.76116 0.0
O86 O 0.38895 0.03886 0.74488 0.0
C87 C 0.45348 0.00524 0.80253 0.0
O88 O 0.41643 0.96631 0.75246 0.0
Co89 Co 0.4904 0.9682 0.7599 0.0
O90 O 0.45787 0.93245 0.76917 0.0
C91 C 0.47929 0.0155 0.70777 0.0
C92 C 0.40244 0.06791 0.75246 0.0
C93 C 0.42768 0.93699 0.76225 0.0
O94 O 0.44932 0.02099 0.71511 0.0
O95 O 0.49928 0.99716 0.7239 0.0
O96 O 0.42246 0.01243 0.80003 0.0
O97 O 0.4695 0.00695 0.77825 0.0
Co98 Co 0.33468 0.13133 0.04901 0.0
O99 O 0.37526 0.11872 0.03286 0.0
O100 O 0.34322 0.08374 0.05866 0.0
C101 C 0.31499 0.15917 0.00849 0.0
O102 O 0.29064 0.13567 0.0675 0.0
Co103 Co 0.31686 0.20735 0.05913 0.0
O104 O 0.27161 0.18828 0.05579 0.0
C105 C 0.36547 0.17316 0.09937 0.0
C106 C 0.37001 0.08858 0.04436 0.0
C107 C 0.26693 0.1566 0.0617 0.0
O108 O 0.3575 0.14437 0.08761 0.0
O109 O 0.35396 0.20209 0.08991 0.0
O110 O 0.31298 0.12591 0.01015 0.0
O111 O 0.33174 0.17427 0.02983 0.0
Co112 Co 0.79825 0.40185 0.0596 0.0
O113 O 0.75086 0.39851 0.05792 0.0
O114 O 0.77775 0.44487 0.0721 0.0
C115 C 0.80645 0.3807 0.01351 0.0
O116 O 0.84768 0.41489 0.06142 0.0
Co117 Co 0.84027 0.33526 0.05707 0.0
O118 O 0.876 0.36757 0.04891 0.0
C119 C 0.80725 0.35091 0.11251 0.0
C120 C 0.74962 0.43035 0.06601 0.0
C121 C 0.87452 0.39972 0.05382 0.0
O122 O 0.79968 0.38138 0.1024 0.0
O123 O 0.82083 0.32803 0.09678 0.0
O124 O 0.79796 0.41258 0.0167 0.0
O125 O 0.80566 0.36197 0.03756 0.0
Co126 Co 0.92279 0.52012 0.25295 0.0
O127 O 0.92565 0.56979 0.25102 0.0
O128 O 0.88303 0.53978 0.23458 0.0
C129 C 0.93956 0.51454 0.30171 0.0
O130 O 0.90946 0.46889 0.25382 0.0
Co131 Co 0.98434 0.47476 0.26677 0.0
O132 O 0.95147 0.43912 0.27546 0.0
C133 C 0.97506 0.50636 0.20649 0.0
C134 C 0.89578 0.56976 0.24017 0.0
C135 C 0.92171 0.44119 0.26613 0.0
O136 O 0.94566 0.51614 0.21256 0.0
O137 O 0.99473 0.49256 0.22611 0.0
O138 O 0.90952 0.5229 0.29467 0.0
O139 O 0.95891 0.51344 0.27948 0.0
Co140 Co 0.86493 0.64523 0.52193 0.0
O141 O 0.90529 0.62939 0.539 0.0
O142 O 0.85604 0.6108 0.55169 0.0
C143 C 0.87659 0.64274 0.47351 0.0
O144 O 0.81835 0.65448 0.50812 0.0
Co145 Co 0.86049 0.71459 0.48805 0.0
O146 O 0.815 0.70007 0.47665 0.0
C147 C 0.87422 0.71321 0.55277 0.0
C148 C 0.88767 0.60883 0.5549 0.0
C149 C 0.80244 0.67409 0.48943 0.0
O150 O 0.86408 0.68208 0.55265 0.0
O151 O 0.87737 0.73076 0.52861 0.0
O152 O 0.869 0.61496 0.48805 0.0
O153 O 0.88211 0.66963 0.49001 0.0
Co154 Co 0.69699 0.5207 0.75682 0.0
O155 O 0.68952 0.47145 0.75702 0.0
O156 O 0.73543 0.49687 0.74445 0.0
C157 C 0.67631 0.53058 0.80254 0.0
O158 O 0.71658 0.56837 0.75516 0.0
Co159 Co 0.64337 0.5765 0.76019 0.0
O160 O 0.67964 0.61027 0.761 0.0
C161 C 0.65122 0.53839 0.70382 0.0
C162 C 0.7198 0.46853 0.74938 0.0
C163 C 0.70878 0.60011 0.7573 0.0
O164 O 0.67862 0.52523 0.71376 0.0
O165 O 0.63241 0.55608 0.72006 0.0
O166 O 0.70609 0.51946 0.8004 0.0
O167 O 0.65942 0.53352 0.77762 0.0
Co168 Co 0.01598 0.82121 0.90833 0.0
O169 O 0.0609 0.8083 0.9141 0.0
O170 O 0.03376 0.81218 0.86998 0.0
C171 C 0.02207 0.86517 0.93978 0.0
O172 O 0.97027 0.83292 0.89302 0.0
Co173 Co 0.96726 0.82808 0.95991 0.0
O174 O 0.93471 0.84316 0.92892 0.0
C175 C 0.98397 0.75969 0.93399 0.0
C176 C 0.0612 0.80692 0.88501 0.0
C177 C 0.94129 0.83933 0.90148 0.0
O178 O 1.00169 0.77281 0.91364 0.0
O179 O 0.97071 0.77717 0.95457 0.0
O180 O 0.02876 0.86927 0.91165 0.0
O181 O 1.01121 0.83556 0.94748 0.0
Co182 Co 0.0422 0.26428 0.66765 0.0
O183 O 0.99389 0.26552 0.66336 0.0
O184 O 0.02027 0.25313 0.70545 0.0
C185 C 0.04703 0.3165 0.6424 0.0
O186 O 0.09152 0.26197 0.68357 0.0
Co187 Co 0.09018 0.26883 0.61595 0.0
O188 O 0.12576 0.27383 0.64672 0.0
C189 C 0.05531 0.20275 0.62722 0.0
C190 C 0.9921 0.2592 0.69191 0.0
C191 C 0.12099 0.26701 0.67422 0.0
O192 O 0.04409 0.21379 0.6525 0.0
O193 O 0.07129 0.22211 0.6096 0.0
O194 O 0.04157 0.31539 0.67098 0.0
O195 O 0.04987 0.28677 0.63046 0.0
Co196 Co 0.5149 0.33724 0.41497 0.0
O197 O 0.56175 0.33836 0.41577 0.0
O198 O 0.53035 0.32628 0.37557 0.0
C199 C 0.51345 0.38684 0.44021 0.0
O200 O 0.46607 0.33327 0.40528 0.0
Co201 Co 0.47409 0.33814 0.47198 0.0
O202 O 0.43457 0.33642 0.44544 0.0
C203 C 0.49862 0.2723 0.4467 0.0
C204 C 0.55949 0.3313 0.38741 0.0
C205 C 0.43814 0.33154 0.4176 0.0
O206 O 0.51456 0.2878 0.42641 0.0
O207 O 0.48259 0.28766 0.46682 0.0
O208 O 0.51454 0.38684 0.41109 0.0
O209 O 0.51187 0.3571 0.45315 0.0
Co210 Co 0.53897 0.77033 0.16381 0.0
O211 O 0.49041 0.77229 0.15982 0.0
O212 O 0.51664 0.75831 0.20146 0.0
C213 C 0.54541 0.82305 0.13978 0.0
O214 O 0.58856 0.76714 0.17927 0.0
Co215 Co 0.58675 0.77527 0.11137 0.0
O216 O 0.62226 0.78046 0.14224 0.0
C217 C 0.55078 0.70987 0.12144 0.0
C218 C 0.48843 0.76497 0.18819 0.0
C219 C 0.61787 0.77291 0.16967 0.0
O220 O 0.54018 0.72034 0.1472 0.0
O221 O 0.56688 0.72923 0.10395 0.0
O222 O 0.53926 0.8214 0.16821 0.0
O223 O 0.54726 0.79358 0.12726 0.0
Co224 Co 0.91701 0.02626 0.82653 0.0
O225 O 0.92825 0.07428 0.82217 0.0
O226 O 0.88215 0.05008 0.80561 0.0
C227 C 0.93352 0.02419 0.87585 0.0
O228 O 0.89337 0.98111 0.82663 0.0
Co229 Co 0.9601 0.9658 0.84505 0.0
O230 O 0.92067 0.93605 0.84586 0.0
C231 C 0.95986 0.99113 0.78167 0.0
C232 C 0.89903 0.07783 0.80986 0.0
C233 C 0.89484 0.94941 0.8341 0.0
O234 O 0.9377 0.01357 0.78741 0.0
O235 O 0.97294 0.97148 0.80204 0.0
O236 O 0.90459 0.03541 0.86762 0.0
O237 O 0.95152 0.01387 0.85435 0.0
Co238 Co 0.81515 0.11866 0.49645 0.0
O239 O 0.86242 0.12062 0.4968 0.0
O240 O 0.83477 0.07372 0.50679 0.0
C241 C 0.80898 0.14913 0.45238 0.0
O242 O 0.76588 0.10691 0.49855 0.0
Co243 Co 0.77379 0.18642 0.49676 0.0
O244 O 0.73561 0.1554 0.49551 0.0
C245 C 0.80623 0.15944 0.55257 0.0
C246 C 0.86314 0.08821 0.50367 0.0
C247 C 0.738 0.12289 0.49854 0.0
O248 O 0.81462 0.13132 0.54002 0.0
O249 O 0.79325 0.18518 0.53856 0.0
O250 O 0.81428 0.11614 0.45217 0.0
O251 O 0.80894 0.16242 0.47867 0.0
Co252 Co 0.68796 0.00556 0.33289 0.0
O253 O 0.68446 0.95605 0.32821 0.0
O254 O 0.72878 0.9863 0.31993 0.0
C255 C 0.66207 0.00504 0.37795 0.0
O256 O 0.70341 0.05587 0.33415 0.0
Co257 Co 0.6297 0.05558 0.34012 0.0
O258 O 0.66163 0.09309 0.3354 0.0
C259 C 0.64786 0.03213 0.27942 0.0
C260 C 0.7148 0.95641 0.32049 0.0
C261 C 0.69178 0.08672 0.33202 0.0
O262 O 0.67214 0.01398 0.28998 0.0
O263 O 0.62801 0.04844 0.29571 0.0
O264 O 0.69329 0.99869 0.37701 0.0
O265 O 0.64801 0.01165 0.35226 0.0
Co266 Co 0.7569 0.87089 0.00826 0.0
O267 O 0.72749 0.88486 0.03848 0.0
O268 O 0.75906 0.91966 0.01269 0.0
C269 C 0.72136 0.83677 0.98303 0.0
O270 O 0.78807 0.86565 0.97455 0.0
Co271 Co 0.7826 0.7987 0.99552 0.0
O272 O 0.822 0.82286 0.98045 0.0
C273 C 0.81004 0.83802 0.04751 0.0
C274 C 0.73606 0.91609 0.03168 0.0
C275 C 0.81758 0.85497 0.97697 0.0
O276 O 0.79277 0.86419 0.03932 0.0
O277 O 0.80788 0.80889 0.03434 0.0
O278 O 0.72081 0.86992 0.97959 0.0
O279 O 0.74225 0.82476 0.00318 0.0
Co280 Co 0.30889 0.6197 0.99252 0.0
O281 O 0.35609 0.62511 0.99358 0.0
O282 O 0.33128 0.57654 0.00367 0.0
C283 C 0.30329 0.64875 0.94769 0.0
O284 O 0.26046 0.6037 0.99395 0.0
Co285 Co 0.26146 0.68252 0.98866 0.0
O286 O 0.22593 0.64832 0.9864 0.0
C287 C 0.29157 0.65925 0.04738 0.0
C288 C 0.35876 0.59281 1.00049 0.0
C289 C 0.23115 0.61651 0.99166 0.0
O290 O 0.3063 0.6336 0.03577 0.0
O291 O 0.27485 0.68178 0.03232 0.0
O292 O 0.30958 0.61597 0.94853 0.0
O293 O 0.30057 0.6627 0.97356 0.0
Co294 Co 0.18822 0.50631 0.82615 0.0
O295 O 0.18472 0.4572 0.82044 0.0
O296 O 0.23006 0.48681 0.81534 0.0
C297 C 0.15965 0.50666 0.86938 0.0
O298 O 0.20241 0.55674 0.82931 0.0
Co299 Co 0.1273 0.55466 0.82877 0.0
O300 O 0.15932 0.59235 0.8321 0.0
C301 C 0.1532 0.53361 0.77015 0.0
C302 C 0.21553 0.45714 0.81438 0.0
C303 C 0.18985 0.58721 0.82986 0.0
O304 O 0.17632 0.51549 0.78268 0.0
O305 O 0.13103 0.54893 0.78455 0.0
O306 O 0.19065 0.49899 0.87011 0.0
O307 O 0.14684 0.51227 0.843 0.0
Co308 Co 0.27708 0.39453 0.50475 0.0
O309 O 0.23288 0.37891 0.50077 0.0
O310 O 0.25294 0.41371 0.53619 0.0
C311 C 0.27896 0.40895 0.45617 0.0
O312 O 0.31918 0.41797 0.51579 0.0
Co313 Co 0.33373 0.36262 0.47357 0.0
O314 O 0.36028 0.40203 0.48747 0.0
C315 C 0.31496 0.33467 0.53191 0.0
C316 C 0.22767 0.39935 0.52301 0.0
C317 C 0.34862 0.42076 0.50772 0.0
O318 O 0.28998 0.3546 0.53079 0.0
O319 O 0.33589 0.33368 0.51131 0.0
O320 O 0.26735 0.42993 0.4755 0.0
O321 O 0.28896 0.37915 0.46645 0.0
Co322 Co 0.42551 0.52972 0.319 0.0
O323 O 0.42778 0.57884 0.313 0.0
O324 O 0.3842 0.54709 0.30245 0.0
C325 C 0.44936 0.53378 0.366 0.0
O326 O 0.412 0.47934 0.32206 0.0
Co327 Co 0.48463 0.48276 0.3339 0.0
O328 O 0.45358 0.44394 0.3344 0.0
C329 C 0.46812 0.50308 0.27022 0.0
C330 C 0.39715 0.57749 0.30438 0.0
C331 C 0.42368 0.44893 0.32674 0.0
O332 O 0.4425 0.52 0.27772 0.0
O333 O 0.48828 0.48931 0.28951 0.0
O334 O 0.418 0.53784 0.3617 0.0
O335 O 0.46506 0.52663 0.34227 0.0
C336 C 0.98689 0.04418 0.99793 0.0
N337 N 0.95303 0.98706 0.07074 0.0
C338 C 0.9259 1.00092 0.05695 0.0
C339 C 0.90233 0.97962 0.04384 0.0
C340 C 0.90526 0.94365 0.04707 0.0
C341 C 0.93004 0.93087 0.0671 0.0
C342 C 0.95455 0.95304 0.0779 0.0
Zn343 Zn 0.99442 0.01406 0.06329 0.0
C344 C 0.03769 0.97103 0.02646 0.0
N345 N 0.07814 0.06666 0.03645 0.0
C346 C 0.07979 0.10067 0.02919 0.0
C347 C 0.10545 0.04812 0.04396 0.0
C348 C 0.13563 0.06386 0.04605 0.0
C349 C 0.13845 0.09879 0.03867 0.0
C350 C 0.1101 0.11737 0.02991 0.0
Zn351 Zn 0.0362 0.04136 0.04426 0.0
O352 O 0.97292 0.02839 0.01906 0.0
C353 C 0.99324 0.08412 0.08237 0.0
O354 O 0.01522 0.05645 0.00299 0.0
H355 H 0.10371 0.0213 0.0502 0.0
H356 H 0.92488 0.0282 0.05205 0.0
H357 H 0.0576 0.11502 0.0239 0.0
O358 O 0.97598 0.05729 0.0847 0.0
O359 O 0.01762 0.08408 0.06547 0.0
H360 H 0.97627 0.94253 0.08919 0.0
O361 O 0.05856 0.02569 0.08593 0.0
O362 O 0.01743 0.99916 0.1056 0.0
O363 O 0.05373 0.99836 0.02273 0.0
O364 O 0.01324 0.97104 0.04308 0.0
C365 C 0.04705 0.00917 0.10774 0.0
H366 H 0.88392 0.99159 0.02917 0.0
H367 H 0.932 0.90387 0.07283 0.0
H368 H 0.15638 0.04884 0.05444 0.0
H369 H 0.11128 0.14448 0.0243 0.0
C370 C 0.36081 0.77679 0.25081 0.0
N371 N 0.26862 0.74015 0.21992 0.0
C372 C 0.27657 0.75819 0.19496 0.0
C373 C 0.27793 0.7418 0.16744 0.0
C374 C 0.27126 0.70653 0.16568 0.0
C375 C 0.26007 0.68923 0.1911 0.0
C376 C 0.25876 0.70679 0.21827 0.0
Zn377 Zn 0.28606 0.75957 0.25943 0.0
C378 C 0.32115 0.70422 0.29498 0.0
N379 N 0.32943 0.79846 0.33968 0.0
C380 C 0.34258 0.8305 0.34174 0.0
C381 C 0.3224 0.77991 0.36462 0.0
C382 C 0.32691 0.79408 0.39298 0.0
C383 C 0.3389 0.82769 0.39584 0.0
C384 C 0.34746 0.8458 0.36987 0.0
Zn385 Zn 0.31123 0.77959 0.30012 0.0
O386 O 0.33425 0.76728 0.2373 0.0
C387 C 0.27616 0.83537 0.26381 0.0
O388 O 0.3589 0.78582 0.27825 0.0
H389 H 0.31117 0.75488 0.36247 0.0
H390 H 0.28495 0.78444 0.19686 0.0
H391 H 0.34758 0.84493 0.32155 0.0
O392 O 0.26859 0.80994 0.24725 0.0
O393 O 0.29505 0.83045 0.2868 0.0
H394 H 0.2528 0.6929 0.23848 0.0
O395 O 0.26321 0.77217 0.32219 0.0
O396 O 0.2389 0.75126 0.28197 0.0
O397 O 0.32768 0.72907 0.31251 0.0
O398 O 0.30301 0.70972 0.27176 0.0
C399 C 0.23711 0.76035 0.30944 0.0
H400 H 0.28607 0.75608 0.1481 0.0
H401 H 0.25471 0.66199 0.19052 0.0
H402 H 0.31909 0.77961 0.41232 0.0
H403 H 0.35662 0.87186 0.37126 0.0
C404 C 0.53848 0.0402 0.59407 0.0
N405 N 0.60012 0.96058 0.57756 0.0
C406 C 0.61544 0.97334 0.60283 0.0
C407 C 0.61412 0.95543 0.63006 0.0
C408 C 0.59769 0.92406 0.63058 0.0
C409 C 0.5873 0.90893 0.60331 0.0
C410 C 0.58867 0.9279 0.57672 0.0
Zn411 Zn 0.57686 0.99631 0.55086 0.0
C412 C 0.50381 0.97759 0.53901 0.0
N413 N 0.52432 0.07473 0.50638 0.0
C414 C 0.52742 0.10623 0.51901 0.0
C415 C 0.51085 0.07042 0.47823 0.0
C416 C 0.50131 0.09909 0.46094 0.0
C417 C 0.50563 0.13171 0.47332 0.0
C418 C 0.51796 0.13525 0.5028 0.0
Zn419 Zn 0.54656 0.03651 0.5293 0.0
O420 O 0.56068 0.01771 0.5918 0.0
C421 C 0.61854 0.0561 0.53937 0.0
O422 O 0.52727 0.05501 0.57041 0.0
H423 H 0.50889 0.04497 0.46877 0.0
H424 H 0.62393 0.99962 0.60317 0.0
H425 H 0.53882 0.10902 0.54113 0.0
O426 O 0.62055 0.0262 0.5509 0.0
O427 O 0.59028 0.06774 0.53188 0.0
H428 H 0.57646 0.9184 0.5565 0.0
O429 O 0.56506 0.01767 0.48871 0.0
O430 O 0.59389 0.97556 0.5095 0.0
O431 O 0.50375 0.00657 0.52573 0.0
O432 O 0.53102 0.96598 0.55003 0.0
C433 C 0.58554 0.99331 0.48621 0.0
H434 H 0.62237 0.96768 0.65073 0.0
H435 H 0.57484 0.88436 0.60309 0.0
H436 H 0.49182 0.09598 0.43809 0.0
H437 H 0.52155 0.16039 0.51269 0.0
C438 C 0.33025 0.19612 0.769 0.0
N439 N 0.27782 0.24003 0.83781 0.0
C440 C 0.26835 0.20743 0.84435 0.0
C441 C 0.26507 0.19728 0.87418 0.0
C442 C 0.27057 0.22132 0.89722 0.0
C443 C 0.27642 0.25564 0.88943 0.0
C444 C 0.28083 0.2643 0.85957 0.0
Zn445 Zn 0.29515 0.25189 0.79696 0.0
C446 C 0.36922 0.27427 0.80857 0.0
N447 N 0.33581 0.28436 0.71619 0.0
C448 C 0.32834 0.25842 0.69675 0.0
C449 C 0.3475 0.31495 0.70612 0.0
C450 C 0.35015 0.32075 0.67513 0.0
C451 C 0.34075 0.29467 0.65495 0.0
C452 C 0.33135 0.26279 0.66614 0.0
Zn453 Zn 0.32003 0.27457 0.75848 0.0
O454 O 0.31064 0.19925 0.79027 0.0
C455 C 0.24524 0.2535 0.74801 0.0
O456 O 0.33667 0.22253 0.75346 0.0
H457 H 0.35263 0.33549 0.7218 0.0
H458 H 0.26586 0.18858 0.82673 0.0
H459 H 0.31737 0.23492 0.70443 0.0
O460 O 0.24747 0.24278 0.77512 0.0
O461 O 0.27115 0.26533 0.73657 0.0
H462 H 0.28913 0.28989 0.85437 0.0
O463 O 0.30432 0.32717 0.76478 0.0
O464 O 0.27955 0.30356 0.80243 0.0
O465 O 0.36782 0.28407 0.78104 0.0
O466 O 0.34326 0.26184 0.81951 0.0
C467 C 0.28526 0.33002 0.78662 0.0
H468 H 0.26115 0.17033 0.87909 0.0
H469 H 0.28047 0.27501 0.9065 0.0
H470 H 0.35717 0.34589 0.66698 0.0
H471 H 0.3237 0.2423 0.65112 0.0
C472 C 0.12065 0.9823 0.55846 0.0
N473 N 0.0818 0.03749 0.48458 0.0
C474 C 0.11201 0.05205 0.48382 0.0
C475 C 0.12673 0.0575 0.45631 0.0
C476 C 0.10991 0.04816 0.42958 0.0
C477 C 0.07809 0.03505 0.43108 0.0
C478 C 0.06442 0.03002 0.45887 0.0
Zn479 Zn 0.06502 0.01619 0.52299 0.0
C480 C 0.04978 0.93959 0.50856 0.0
N481 N 0.02978 0.96769 0.60223 0.0
C482 C 0.05012 0.97367 0.62655 0.0
C483 C 0.99772 0.9597 0.60594 0.0
C484 C 0.9847 0.95991 0.63471 0.0
C485 C 1.00486 0.96833 0.65985 0.0
C486 C 0.03822 0.97387 0.65553 0.0
Zn487 Zn 0.04613 0.98701 0.56178 0.0
O488 O 0.11439 1.00258 0.53647 0.0
C489 C 0.05993 0.06471 0.57356 0.0
O490 O 0.09686 0.97123 0.57353 0.0
H491 H 0.98161 0.9556 0.58652 0.0
H492 H 0.12553 0.0575 0.50455 0.0
H493 H 0.07509 0.98147 0.6235 0.0
O494 O 0.06861 0.06389 0.54639 0.0
O495 O 0.05146 0.03654 0.58588 0.0
H496 H 0.04085 0.01765 0.4599 0.0
O497 O 0.99643 1.00295 0.54865 0.0
O498 O 0.01576 0.03028 0.51009 0.0
O499 O 0.04041 0.93805 0.53577 0.0
O500 O 0.06053 0.96824 0.49917 0.0
C501 C 0.99139 0.02206 0.52554 0.0
H502 H 0.15135 0.06763 0.45596 0.0
H503 H 0.06463 0.02663 0.41108 0.0
H504 H 0.95891 0.95483 0.63712 0.0
H505 H 0.05462 0.98068 0.67418 0.0
C506 C 0.28919 0.78251 0.7253 0.0
N507 N 0.35996 0.71525 0.76062 0.0
C508 C 0.37559 0.72876 0.73688 0.0
C509 C 0.40323 0.71287 0.72652 0.0
C510 C 0.41561 0.68333 0.74124 0.0
C511 C 0.39889 0.66926 0.76524 0.0
C512 C 0.37042 0.6855 0.77431 0.0
Zn513 Zn 0.32221 0.74319 0.77578 0.0
C514 C 0.34385 0.81833 0.78619 0.0
N515 N 0.24569 0.80414 0.80542 0.0
C516 C 0.21798 0.80004 0.78802 0.0
C517 C 0.2449 0.8173 0.83356 0.0
C518 C 0.21488 0.82345 0.84635 0.0
C519 C 0.18595 0.81571 0.82986 0.0
C520 C 0.18763 0.8058 0.79985 0.0
Zn521 Zn 0.2849 0.77818 0.79192 0.0
O522 O 0.30815 0.75712 0.73062 0.0
C523 C 0.26335 0.70372 0.78348 0.0
O524 O 0.275 0.79616 0.74702 0.0
H525 H 0.26732 0.82016 0.84694 0.0
H526 H 0.36756 0.7528 0.72672 0.0
H527 H 0.2191 0.78881 0.76597 0.0
O528 O 0.29223 0.69892 0.77493 0.0
O529 O 0.25389 0.73432 0.78784 0.0
H530 H 0.35752 0.6751 0.79298 0.0
O531 O 0.29498 0.75996 0.83693 0.0
O532 O 0.33489 0.72836 0.82066 0.0
O533 O 0.31554 0.82149 0.79672 0.0
O534 O 0.35299 0.78878 0.77745 0.0
C535 C 0.31662 0.73687 0.84184 0.0
H536 H 0.41624 0.72509 0.70854 0.0
H537 H 0.40837 0.64694 0.77744 0.0
H538 H 0.21426 0.83185 0.86945 0.0
H539 H 0.16579 0.7995 0.78656 0.0
C540 C 0.55366 0.95209 0.06902 0.0
N541 N 0.57549 0.05069 0.09966 0.0
C542 C 0.55791 0.03892 0.12296 0.0
C543 C 0.57141 0.03927 0.15207 0.0
C544 C 0.60294 0.05234 0.1571 0.0
C545 C 0.61906 0.06796 0.13338 0.0
C546 C 0.60474 0.06675 0.10442 0.0
Zn547 Zn 0.56436 0.02936 0.05913 0.0
C548 C 0.62518 1.00106 0.0341 0.0
N549 N 0.54448 0.97841 0.9759 0.0
C550 C 0.51314 0.96767 0.97076 0.0
C551 C 0.56523 0.98154 0.95287 0.0
C552 C 0.55363 0.97755 0.92321 0.0
C553 C 0.51989 0.97297 0.91711 0.0
C554 C 0.50003 0.9658 0.94149 0.0
Zn555 Zn 0.5562 1.00104 0.01642 0.0
O556 O 0.55859 0.98043 0.08245 0.0
C557 C 0.49524 0.02838 0.04324 0.0
O558 O 0.55111 0.95261 0.04038 0.0
H559 H 0.59022 0.9896 0.95717 0.0
H560 H 0.53487 0.02597 0.11868 0.0
H561 H 0.49719 0.96361 0.98925 0.0
O562 O 0.51466 0.03998 0.06351 0.0
O563 O 0.50654 0.01197 0.02152 0.0
H564 H 0.6184 0.07561 0.08551 0.0
O565 O 0.56129 0.0497 0.99269 0.0
O566 O 0.57015 0.07811 0.03442 0.0
O567 O 0.60629 0.99066 0.01282 0.0
O568 O 0.61379 0.01777 0.05556 0.0
C569 C 0.56687 0.07824 0.0057 0.0
H570 H 0.55826 0.02751 0.17017 0.0
H571 H 0.64336 0.07854 0.13682 0.0
H572 H 0.57067 0.98035 0.90537 0.0
H573 H 0.47402 0.9614 0.93839 0.0
C574 C 0.27382 0.21064 0.29158 0.0
N575 N 0.36699 0.23443 0.25965 0.0
C576 C 0.37541 0.20091 0.26432 0.0
C577 C 0.39389 0.18384 0.24317 0.0
C578 C 0.40291 0.20153 0.21699 0.0
C579 C 0.39784 0.23723 0.21546 0.0
C580 C 0.37953 0.25307 0.23687 0.0
Zn581 Zn 0.32868 0.25746 0.2791 0.0
C582 C 0.27829 0.27703 0.23226 0.0
N583 N 0.24994 0.31275 0.31303 0.0
C584 C 0.23944 0.30445 0.3407 0.0
C585 C 0.24308 0.34388 0.29998 0.0
C586 C 0.23167 0.37055 0.31737 0.0
C587 C 0.22737 0.36426 0.3479 0.0
C588 C 0.22717 0.33018 0.35862 0.0
Zn589 Zn 0.28778 0.2866 0.29672 0.0
O590 O 0.30236 0.21007 0.28115 0.0
C591 C 0.33839 0.26716 0.3436 0.0
O592 O 0.26275 0.23892 0.3013 0.0
H593 H 0.25142 0.34971 0.27775 0.0
H594 H 0.36523 0.18662 0.2827 0.0
H595 H 0.24503 0.27943 0.35041 0.0
O596 O 0.34982 0.25054 0.32187 0.0
O597 O 0.311 0.28245 0.3399 0.0
H598 H 0.3721 0.27942 0.23295 0.0
O599 O 0.31267 0.3342 0.29277 0.0
O600 O 0.35487 0.3051 0.2786 0.0
O601 O 0.26586 0.2911 0.25465 0.0
O602 O 0.30667 0.26401 0.23539 0.0
C603 C 0.34263 0.33335 0.28673 0.0
H604 H 0.39764 0.15635 0.24548 0.0
H605 H 0.40343 0.25227 0.19576 0.0
H606 H 0.2319 0.3966 0.30853 0.0
H607 H 0.22378 0.32458 0.3822 0.0
C608 C 0.61987 0.49344 0.04757 0.0
N609 N 0.58216 0.54852 0.97108 0.0
C610 C 0.61417 0.55802 0.97021 0.0
C611 C 0.62978 0.56017 0.94275 0.0
C612 C 0.61211 0.5536 0.91571 0.0
C613 C 0.57834 0.54728 0.91724 0.0
C614 C 0.56397 0.54431 0.94516 0.0
Zn615 Zn 0.56413 0.52787 0.01036 0.0
C616 C 0.54961 0.45096 0.99799 0.0
N617 N 0.52966 0.47956 0.09 0.0
C618 C 0.54975 0.48513 0.11453 0.0
C619 C 0.4976 0.47122 0.09318 0.0
C620 C 0.48417 0.47096 0.12173 0.0
C621 C 0.50419 0.47871 0.14703 0.0
C622 C 0.53756 0.48448 0.14326 0.0
Zn623 Zn 0.5465 0.49909 0.05027 0.0
O624 O 0.61406 0.51319 0.02501 0.0
C625 C 0.5592 0.57643 0.0618 0.0
O626 O 0.59586 0.48337 0.06265 0.0
H627 H 0.48183 0.46714 0.07354 0.0
H628 H 0.62845 0.56135 0.99087 0.0
H629 H 0.57471 0.49318 0.11193 0.0
O630 O 0.56734 0.57624 0.03435 0.0
O631 O 0.55174 0.54798 0.07411 0.0
H632 H 0.5388 0.53609 0.94603 0.0
O633 O 0.49768 0.51438 0.03714 0.0
O634 O 0.51386 0.54225 0.99744 0.0
O635 O 0.54102 0.45084 0.02537 0.0
O636 O 0.55955 0.47919 0.98684 0.0
C637 C 0.49072 0.53297 0.01416 0.0
H638 H 0.6559 0.56451 0.94311 0.0
H639 H 0.56342 0.54266 0.8971 0.0
H640 H 0.45833 0.46593 0.1239 0.0
H641 H 0.55373 0.49076 0.16224 0.0
C642 C 0.79475 0.28419 0.22833 0.0
N643 N 0.86864 0.2208 0.26794 0.0
C644 C 0.8728 0.21268 0.23865 0.0
C645 C 0.90403 0.20575 0.22846 0.0
C646 C 0.93126 0.20616 0.24872 0.0
C647 C 0.92569 0.21122 0.27929 0.0
C648 C 0.89433 0.21939 0.2883 0.0
Zn649 Zn 0.82597 0.24439 0.2805 0.0
C650 C 0.84241 0.31981 0.29236 0.0
N651 N 0.74227 0.30047 0.30607 0.0
C652 C 0.71495 0.2975 0.2879 0.0
C653 C 0.74085 0.31426 0.33394 0.0
C654 C 0.71079 0.32385 0.34516 0.0
C655 C 0.682 0.31992 0.32727 0.0
C656 C 0.6845 0.30742 0.29798 0.0
Zn657 Zn 0.78387 0.27654 0.29342 0.0
O658 O 0.81649 0.26193 0.23564 0.0
C659 C 0.76798 0.20079 0.28308 0.0
O660 O 0.77475 0.29353 0.24782 0.0
H661 H 0.76279 0.31607 0.34813 0.0
H662 H 0.8523 0.21354 0.22266 0.0
H663 H 0.71645 0.28579 0.26606 0.0
O664 O 0.79765 0.19846 0.27549 0.0
O665 O 0.75619 0.23041 0.28815 0.0
H666 H 0.89115 0.22641 0.3114 0.0
O667 O 0.79335 0.25901 0.3391 0.0
O668 O 0.83433 0.22754 0.32505 0.0
O669 O 0.81245 0.32254 0.29886 0.0
O670 O 0.85358 0.29019 0.28646 0.0
C671 C 0.81519 0.23642 0.34533 0.0
H672 H 0.90691 0.20191 0.20465 0.0
H673 H 0.94551 0.21024 0.29605 0.0
H674 H 0.71002 0.33243 0.36818 0.0
H675 H 0.66298 0.3041 0.28341 0.0
C676 C 0.04428 0.44379 0.56856 0.0
N677 N 0.08425 0.53887 0.59311 0.0
C678 C 0.06935 0.53189 0.61924 0.0
C679 C 0.08621 0.53608 0.64649 0.0
C680 C 0.11867 0.5472 0.64669 0.0
C681 C 0.13311 0.5562 0.61979 0.0
C682 C 0.11509 0.55202 0.59284 0.0
Zn683 Zn 0.06266 0.51959 0.55559 0.0
C684 C 0.11079 0.48064 0.52292 0.0
N685 N 0.01971 0.47444 0.47752 0.0
C686 C 0.98763 0.46535 0.47449 0.0
C687 C 0.03773 0.48082 0.45302 0.0
C688 C 0.02314 0.48103 0.42438 0.0
C689 C 0.98955 0.47458 0.42063 0.0
C690 C 0.97195 0.46514 0.44596 0.0
Zn691 Zn 0.0403 0.49247 0.51682 0.0
O692 O 0.05654 0.47111 0.57975 0.0
C693 C 0.99198 0.52657 0.55474 0.0
O694 O 0.03372 0.44466 0.54121 0.0
H695 H 0.06285 0.48907 0.45571 0.0
H696 H 0.04513 0.52084 0.61897 0.0
H697 H 0.97362 0.4607 0.49423 0.0
O698 O 0.01772 0.53569 0.56905 0.0
O699 O 0.9942 0.50964 0.53062 0.0
H700 H 0.12644 0.55714 0.57171 0.0
O701 O 0.04746 0.54144 0.49227 0.0
O702 O 0.06899 0.56784 0.53113 0.0
O703 O 0.08653 0.47325 0.50564 0.0
O704 O 0.10733 0.50235 0.54342 0.0
C705 C 0.05964 0.56879 0.50349 0.0
H706 H 0.07464 0.529 0.66716 0.0
H707 H 0.15822 0.56494 0.61958 0.0
H708 H 0.03761 0.48881 0.40561 0.0
H709 H 0.94611 0.45928 0.44393 0.0
C710 C 0.82767 0.69963 0.25635 0.0
N711 N 0.7722 0.72774 0.32919 0.0
C712 C 0.76958 0.69295 0.32738 0.0
C713 C 0.7833 0.67251 0.35039 0.0
C714 C 0.79637 0.68855 0.37623 0.0
C715 C 0.78988 0.7237 0.38035 0.0
C716 C 0.77845 0.74328 0.35594 0.0
Zn717 Zn 0.79115 0.75135 0.29303 0.0
C718 C 0.86474 0.77082 0.31021 0.0
N719 N 0.83729 0.79722 0.21964 0.0
C720 C 0.83208 0.77779 0.19473 0.0
C721 C 0.85259 0.82823 0.21821 0.0
C722 C 0.86224 0.84121 0.19041 0.0
C723 C 0.8568 0.8214 0.16448 0.0
C724 C 0.84215 0.78909 0.16709 0.0
Zn725 Zn 0.81803 0.77639 0.25697 0.0
O726 O 0.8086 0.70197 0.27802 0.0
C727 C 0.74352 0.7584 0.24167 0.0
O728 O 0.83565 0.72701 0.24295 0.0
H729 H 0.8561 0.8434 0.23831 0.0
H730 H 0.76262 0.68115 0.30621 0.0
H731 H 0.81872 0.75394 0.19591 0.0
O732 O 0.74527 0.74552 0.26804 0.0
O733 O 0.76976 0.7711 0.23133 0.0
H734 H 0.77993 0.77096 0.3572 0.0
O735 O 0.80128 0.82578 0.2714 0.0
O736 O 0.77397 0.80043 0.30676 0.0
O737 O 0.86471 0.78189 0.28312 0.0
O738 O 0.83809 0.75808 0.31951 0.0
C739 C 0.78185 0.82785 0.29303 0.0
H740 H 0.78707 0.64548 0.34619 0.0
H741 H 0.79803 0.73674 0.40067 0.0
H742 H 0.87261 0.86673 0.18895 0.0
H743 H 0.83614 0.7737 0.14748 0.0
C744 C 0.86546 0.276 0.75362 0.0
N745 N 0.77389 0.23894 0.72275 0.0
C746 C 0.78078 0.25713 0.69758 0.0
C747 C 0.78325 0.24045 0.67034 0.0
C748 C 0.77922 0.20469 0.66918 0.0
C749 C 0.76867 0.1871 0.69468 0.0
C750 C 0.76578 0.20503 0.72147 0.0
Zn751 Zn 0.79105 0.25922 0.76189 0.0
C752 C 0.8268 0.20588 0.79828 0.0
N753 N 0.83361 0.29946 0.84157 0.0
C754 C 0.84711 0.33124 0.84464 0.0
C755 C 0.82539 0.28041 0.86587 0.0
C756 C 0.82873 0.29381 0.89449 0.0
C757 C 0.84103 0.32711 0.89845 0.0
C758 C 0.85108 0.34572 0.87321 0.0
Zn759 Zn 0.81616 0.28061 0.80195 0.0
O760 O 0.83893 0.26645 0.74016 0.0
C761 C 0.78229 0.335 0.7644 0.0
O762 O 0.86372 0.28584 0.78082 0.0
H763 H 0.81381 0.25568 0.86299 0.0
H764 H 0.78779 0.28383 0.69911 0.0
H765 H 0.85296 0.3461 0.82491 0.0
O766 O 0.77394 0.30909 0.74879 0.0
O767 O 0.80101 0.33075 0.78758 0.0
H768 H 0.76039 0.19108 0.74181 0.0
O769 O 0.76791 0.27418 0.82335 0.0
O770 O 0.74406 0.25125 0.78382 0.0
O771 O 0.83236 0.23117 0.81537 0.0
O772 O 0.80831 0.21004 0.77509 0.0
C773 C 0.74205 0.26163 0.81084 0.0
H774 H 0.79068 0.25498 0.65087 0.0
H775 H 0.76526 0.15951 0.69459 0.0
H776 H 0.81945 0.27904 0.91306 0.0
H777 H 0.86043 0.37163 0.87543 0.0
C778 C 0.79404 0.71386 0.76583 0.0
N779 N 0.84726 0.79012 0.7219 0.0
C780 C 0.87444 0.76989 0.72249 0.0
C781 C 0.89101 0.76434 0.69619 0.0
C782 C 0.87801 0.77788 0.66891 0.0
C783 C 0.8529 0.80248 0.66984 0.0
C784 C 0.83809 0.80865 0.69693 0.0
Zn785 Zn 0.81529 0.7858 0.75561 0.0
C786 C 0.74718 0.78998 0.73324 0.0
N787 N 0.74862 0.77422 0.82583 0.0
C788 C 0.75863 0.75449 0.84979 0.0
C789 C 0.71812 0.78825 0.82419 0.0
C790 C 0.69771 0.7853 0.8485 0.0
C791 C 0.70968 0.76983 0.87546 0.0
C792 C 0.73997 0.75263 0.87513 0.0
Zn793 Zn 0.78098 0.78111 0.79267 0.0
O794 O 0.8117 0.7312 0.74831 0.0
C795 C 0.84865 0.78114 0.81569 0.0
O796 O 0.78007 0.72877 0.78693 0.0
H797 H 0.70998 0.80298 0.80461 0.0
H798 H 0.88168 0.75572 0.74265 0.0
H799 H 0.78208 0.74165 0.85012 0.0
O800 O 0.85471 0.78137 0.7879 0.0
O801 O 0.81944 0.77789 0.82348 0.0
H802 H 0.81722 0.82571 0.69719 0.0
O803 O 0.78316 0.83441 0.79991 0.0
O804 O 0.81777 0.83866 0.76337 0.0
O805 O 0.7426 0.78554 0.76098 0.0
O806 O 0.77596 0.79213 0.72402 0.0
C807 C 0.8033 0.8521 0.78518 0.0
H808 H 0.91156 0.74672 0.6967 0.0
H809 H 0.84241 0.81413 0.6495 0.0
H810 H 0.67401 0.79776 0.84701 0.0
H811 H 0.75108 0.74052 0.89492 0.0
C812 C 0.51806 0.57106 0.47842 0.0
N813 N 0.49288 0.54592 0.56551 0.0
C814 C 0.46416 0.56142 0.55712 0.0
C815 C 0.435 0.54397 0.56076 0.0
C816 C 0.4362 0.51063 0.57299 0.0
C817 C 0.4653 0.49866 0.58706 0.0
C818 C 0.49393 0.51674 0.58255 0.0
Zn819 Zn 0.53285 0.55896 0.54358 0.0
C820 C 0.56075 0.49826 0.51385 0.0
N821 N 0.6177 0.58483 0.49817 0.0
C822 C 0.61617 0.61336 0.48021 0.0
C823 C 0.64659 0.56922 0.50564 0.0
C824 C 0.67575 0.58397 0.49707 0.0
C825 C 0.6751 0.61478 0.48026 0.0
C826 C 0.6448 0.62869 0.47067 0.0
Zn827 Zn 0.57743 0.57019 0.51967 0.0
O828 O 0.50418 0.5646 0.50285 0.0
C829 C 0.54632 0.63172 0.54642 0.0
O830 O 0.54855 0.57735 0.47937 0.0
H831 H 0.64715 0.54651 0.51984 0.0
H832 H 0.46413 0.58493 0.54396 0.0
H833 H 0.59284 0.6254 0.47468 0.0
O834 O 0.52551 0.60976 0.55438 0.0
O835 O 0.57082 0.62189 0.53211 0.0
H836 H 0.51715 0.50506 0.5891 0.0
O837 O 0.60661 0.5608 0.5607 0.0
O838 O 0.56107 0.55148 0.58347 0.0
O839 O 0.58285 0.51916 0.50627 0.0
O840 O 0.53923 0.50786 0.53174 0.0
C841 C 0.59205 0.55283 0.58452 0.0
H842 H 0.4129 0.55402 0.54972 0.0
H843 H 0.46678 0.47309 0.59691 0.0
H844 H 0.69857 0.57242 0.50514 0.0
H845 H 0.64324 0.65188 0.45706 0.0
C846 C 0.03682 0.51771 0.08965 0.0
N847 N 0.0956 0.4411 0.05183 0.0
C848 C 0.10708 0.43841 0.08081 0.0
C849 C 0.11791 0.40677 0.09222 0.0
C850 C 0.11811 0.37817 0.0732 0.0
C851 C 0.11051 0.38295 0.04254 0.0
C852 C 0.09799 0.41434 0.03252 0.0
Zn853 Zn 0.07069 0.48377 0.03767 0.0
C854 C 0.99841 0.46832 0.02778 0.0
N855 N 0.01669 0.56888 0.00775 0.0
C856 C 0.02056 0.60059 0.01975 0.0
C857 C 0.99874 0.56357 0.98183 0.0
C858 C 0.98574 0.59127 0.96558 0.0
C859 C 0.99104 0.62422 0.97664 0.0
C860 C 1.00762 0.62902 0.00439 0.0
Zn861 Zn 0.0421 0.52906 0.0243 0.0
O862 O 0.05692 0.49448 0.0824 0.0
C863 C 0.11375 0.54545 0.03253 0.0
O864 O 0.02742 0.53952 0.06964 0.0
H865 H 0.9962 0.538 0.97276 0.0
H866 H 0.10602 0.46015 0.09566 0.0
H867 H 0.03517 0.6039 0.04026 0.0
O868 O 0.11512 0.51398 0.04071 0.0
O869 O 0.08572 0.55923 0.02783 0.0
H870 H 0.08859 0.41632 0.00963 0.0
O871 O 0.05678 0.51945 0.97917 0.0
O872 O 0.08433 0.47396 0.99326 0.0
O873 O 0.99892 0.49972 0.02021 0.0
O874 O 0.02564 0.45343 0.03423 0.0
C875 C 0.07651 0.4956 0.9729 0.0
H876 H 0.12384 0.40434 0.11605 0.0
H877 H 0.11181 0.36195 0.02684 0.0
H878 H 0.97326 0.58723 0.94402 0.0
H879 H 1.01222 0.65457 0.01304 0.0
C880 C 0.04178 0.10807 0.14357 0.0
C881 C 0.05384 0.13788 0.13005 0.0
C882 C 1.01198 0.09406 0.13299 0.0
C883 C 0.99565 0.10825 0.10724 0.0
H884 H 0.05676 0.09379 0.15995 0.0
H885 H 1.00585 0.06842 0.14066 0.0
S886 S 1.00958 0.19409 0.07439 0.0
N887 N 0.04098 0.18774 0.09821 0.0
N888 N 0.98616 0.15978 0.07735 0.0
C889 C 1.00321 0.14199 0.09919 0.0
C890 C 0.03301 0.15667 0.11006 0.0
C891 C 0.17429 0.76731 0.37309 0.0
C892 C 0.14377 0.75827 0.35936 0.0
C893 C 0.20388 0.76753 0.35711 0.0
C894 C 0.20501 0.75854 0.32634 0.0
H895 H 0.17538 0.7748 0.39646 0.0
H896 H 0.22617 0.77513 0.36911 0.0
S897 S 0.13237 0.73204 0.27943 0.0
N898 N 0.11722 0.73956 0.31261 0.0
N899 N 0.17198 0.73976 0.28313 0.0
C900 C 0.17472 0.74902 0.31245 0.0
C901 C 0.14456 0.74896 0.32868 0.0
C902 C 0.53799 0.88253 0.68013 0.0
C903 C 0.55878 0.86006 0.6967 0.0
C904 C 0.55108 0.90684 0.66077 0.0
C905 C 0.58513 0.91009 0.65871 0.0
H906 H 0.51208 0.87696 0.67765 0.0
H907 H 0.5347 0.92016 0.64486 0.0
S908 S 0.6478 0.87139 0.71063 0.0
N909 N 0.6133 0.85226 0.71932 0.0
N910 N 0.63824 0.89886 0.6831 0.0
C911 C 0.60541 0.89398 0.68063 0.0
C912 C 0.59193 0.86899 0.70023 0.0
C913 C 0.42674 0.27376 0.87909 0.0
C914 C 0.45882 0.27597 0.8683 0.0
C915 C 0.39858 0.27359 0.85974 0.0
C916 C 0.40042 0.2761 0.82821 0.0
H917 H 0.42307 0.2718 0.90301 0.0
H918 H 0.37495 0.27151 0.86981 0.0
S919 S 0.47797 0.28221 0.78744 0.0
N920 N 0.49031 0.28041 0.8232 0.0
N921 N 0.43758 0.28056 0.787 0.0
C922 C 0.43223 0.2785 0.81687 0.0
C923 C 0.46118 0.27826 0.83673 0.0
C924 C 0.04405 0.84645 0.47826 0.0
C925 C 0.052 0.84961 0.44762 0.0
C926 C 0.04267 0.87524 0.4976 0.0
C927 C 0.04935 0.9089 0.48746 0.0
H928 H 0.03917 0.82129 0.48766 0.0
H929 H 0.03687 0.87091 0.52086 0.0
S930 S 0.07034 0.93193 0.40894 0.0
N931 N 0.06576 0.88979 0.40813 0.0
N932 N 0.06335 0.94333 0.44374 0.0
C933 C 0.05678 0.91243 0.45665 0.0
C934 C 0.05805 0.88313 0.43702 0.0
C935 C 0.50261 0.69952 0.74354 0.0
C936 C 0.50739 0.69978 0.71254 0.0
C937 C 0.47381 0.68592 0.75475 0.0
C938 C 0.44922 0.67324 0.73493 0.0
H939 H 0.51892 0.71376 0.75856 0.0
H940 H 0.46854 0.69075 0.77802 0.0
S941 S 0.45574 0.65836 0.6535 0.0
N942 N 0.48987 0.67853 0.66354 0.0
N943 N 0.43543 0.65319 0.68462 0.0
C944 C 0.45684 0.66741 0.70497 0.0
C945 C 0.48601 0.68124 0.69359 0.0
C946 C 0.57687 0.174 0.98588 0.0
C947 C 0.56583 0.17683 0.95548 0.0
C948 C 0.57814 0.14222 0.00146 0.0
C949 C 0.56819 0.11136 0.98759 0.0
H950 H 0.58346 0.19699 0.99824 0.0
H951 H 0.58613 0.1421 0.02493 0.0
S952 S 0.53704 0.10431 0.90826 0.0
N953 N 0.54498 0.14568 0.91207 0.0
N954 N 0.5473 0.08598 0.94088 0.0
C955 C 0.55805 0.11361 0.9568 0.0
C956 C 0.5569 0.14618 0.94092 0.0
C957 C 0.19793 0.25654 0.19465 0.0
C958 C 0.20538 0.22789 0.1773 0.0
C959 C 0.22256 0.27554 0.20905 0.0
C960 C 0.25566 0.26579 0.20766 0.0
H961 H 0.17274 0.26428 0.19732 0.0
H962 H 0.21526 0.29649 0.22323 0.0
S963 S 0.28806 0.19588 0.16072 0.0
N964 N 0.24793 0.19358 0.15541 0.0
N965 N 0.29476 0.2281 0.18407 0.0
C966 C 0.26362 0.23875 0.18831 0.0
C967 C 0.23831 0.21992 0.1729 0.0
C968 C 0.12034 0.01754 0.16257 0.0
C969 C 0.10698 0.0098 0.19036 0.0
C970 C 0.10116 0.01531 0.13578 0.0
C971 C 0.06794 0.0051 0.13573 0.0
H972 H 0.14494 0.02765 0.16167 0.0
H973 H 0.11215 0.02325 0.11507 0.0
S974 S 0.02318 0.97711 0.20255 0.0
N975 N 0.05985 0.98778 0.21609 0.0
N976 N 0.024 0.98357 0.16588 0.0
C977 C 0.05521 0.99476 0.16321 0.0
C978 C 0.07467 0.99714 0.19044 0.0
C979 C 0.31602 0.88907 0.45717 0.0
C980 C 0.32531 0.87064 0.48348 0.0
C981 C 0.32241 0.87612 0.42867 0.0
C982 C 0.33865 0.8445 0.42555 0.0
H983 H 0.30233 0.91285 0.45852 0.0
H984 H 0.31299 0.89003 0.409 0.0
S985 S 0.37322 0.78929 0.48716 0.0
N986 N 0.35483 0.82094 0.50435 0.0
N987 N 0.36775 0.79747 0.4509 0.0
C988 C 0.35025 0.8272 0.45161 0.0
C989 C 0.34332 0.84003 0.48056 0.0
C990 C 0.47361 0.03361 0.65279 0.0
C991 C 0.49279 0.02997 0.67956 0.0
C992 C 0.48828 0.04036 0.62507 0.0
C993 C 0.52254 0.04361 0.6233 0.0
H994 H 0.44752 0.02898 0.65289 0.0
H995 H 0.47298 0.04039 0.60468 0.0
S996 S 0.58296 0.04231 0.68725 0.0
N997 N 0.54751 0.03534 0.70273 0.0
N998 N 0.57453 0.04664 0.65088 0.0
C999 C 0.54149 0.04266 0.6501 0.0
C1000 C 0.52676 0.03627 0.67814 0.0
C1001 C 0.31602 0.20677 0.97148 0.0
C1002 C 0.29981 0.17829 0.98318 0.0
C1003 C 0.30508 0.22192 0.94441 0.0
C1004 C 0.27708 0.20957 0.92855 0.0
H1005 H 0.3385 0.21599 0.9822 0.0
H1006 H 0.31997 0.24204 0.93503 0.0
S1007 S 0.22226 0.1401 0.95369 0.0
N1008 N 0.25235 0.14091 0.97942 0.0
N1009 N 0.23059 0.17072 0.92921 0.0
C1010 C 0.25904 0.18303 0.94158 0.0
C1011 C 0.2707 0.16705 0.96878 0.0
C1012 C 0.16887 0.02611 0.36888 0.0
C1013 C 0.15122 0.03612 0.3425 0.0
C1014 C 0.15639 0.03203 0.39735 0.0
C1015 C 0.12605 0.04857 0.40035 0.0
H1016 H 0.19169 0.01212 0.36752 0.0
H1017 H 0.16972 0.02197 0.417 0.0
S1018 S 0.07292 0.08514 0.33887 0.0
N1019 N 0.10328 0.06661 0.32173 0.0
N1020 N 0.08091 0.07892 0.37508 0.0
C1021 C 0.10947 0.06101 0.37436 0.0
C1022 C 0.12175 0.05446 0.34547 0.0
C1023 C 0.2999 0.79423 0.64191 0.0
C1024 C 0.29912 0.8303 0.63768 0.0
C1025 C 0.29479 0.77897 0.66991 0.0
C1026 C 0.28807 0.7989 0.69502 0.0
H1027 H 0.30557 0.77734 0.6236 0.0
H1028 H 0.29713 0.75129 0.67209 0.0
S1029 S 0.28091 0.89413 0.69622 0.0
N1030 N 0.28931 0.88543 0.66108 0.0
N1031 N 0.27923 0.85664 0.71381 0.0
C1032 C 0.28535 0.83485 0.69099 0.0
C1033 C 0.29093 0.85055 0.66234 0.0
C1034 C 0.45868 0.97093 0.85018 0.0
C1035 C 0.47042 0.99668 0.83125 0.0
C1036 C 0.47578 0.96209 0.87707 0.0
C1037 C 0.50466 0.9795 0.88647 0.0
H1038 H 0.43651 0.95715 0.8439 0.0
H1039 H 0.46606 0.94157 0.89064 0.0
S1040 S 0.5444 0.04992 0.84386 0.0
N1041 N 0.51244 0.03894 0.82248 0.0
N1042 N 0.5433 0.02483 0.87388 0.0
C1043 C 0.5164 0.0055 0.86727 0.0
C1044 C 0.49952 0.01352 0.83952 0.0
C1045 C 0.37231 0.15184 0.15149 0.0
C1046 C 0.38406 0.17215 0.12808 0.0
C1047 C 0.38317 0.15725 0.18116 0.0
C1048 C 0.40628 0.18308 0.18817 0.0
H1049 H 0.35215 0.13427 0.14732 0.0
H1050 H 0.37009 0.14426 0.19864 0.0
S1051 S 0.45334 0.23296 0.13313 0.0
N1052 N 0.42554 0.21228 0.11241 0.0
N1053 N 0.44786 0.22082 0.16825 0.0
C1054 C 0.42258 0.19853 0.16421 0.0
C1055 C 0.41065 0.1939 0.13407 0.0
C1056 C 0.20587 0.16062 0.06303 0.0
C1057 C 0.23414 0.14197 0.05643 0.0
C1058 C 0.17467 0.14718 0.05627 0.0
C1059 C 0.17094 0.11529 0.04182 0.0
H1060 H 0.2079 0.18533 0.07397 0.0
H1061 H 0.15344 0.16141 0.06305 0.0
S1062 S 0.23753 0.05952 0.01522 0.0
N1063 N 0.25645 0.09113 0.03304 0.0
N1064 N 0.1982 0.06805 0.01734 0.0
C1065 C 0.19915 0.09768 0.03338 0.0
C1066 C 0.23065 0.11038 0.04158 0.0
C1067 C 0.6889 0.43196 0.07294 0.0
C1068 C 0.71762 0.44922 0.06505 0.0
C1069 C 0.65774 0.4471 0.06842 0.0
C1070 C 0.65367 0.47982 0.05482 0.0
H1071 H 0.69046 0.40615 0.08227 0.0
H1072 H 0.63652 0.43235 0.07452 0.0
S1073 S 0.721 0.53613 0.03023 0.0
N1074 N 0.73997 0.50146 0.04381 0.0
N1075 N 0.68153 0.52934 0.03422 0.0
C1076 C 0.68225 0.4976 0.04719 0.0
C1077 C 0.71411 0.48251 0.0526 0.0
C1078 C 0.86794 0.41332 0.27852 0.0
C1079 C 0.90094 0.41023 0.27092 0.0
C1080 C 0.84945 0.38424 0.28653 0.0
C1081 C 0.86315 0.35085 0.28712 0.0
H1082 H 0.85653 0.43846 0.27897 0.0
H1083 H 0.8241 0.38797 0.29195 0.0
S1084 S 0.94821 0.32878 0.26733 0.0
N1085 N 0.9461 0.37093 0.26334 0.0
N1086 N 0.91189 0.31678 0.27833 0.0
C1087 C 0.89609 0.34755 0.27916 0.0
C1088 C 0.91477 0.37703 0.27107 0.0
C1089 C 0.93159 0.58636 0.58736 0.0
C1090 C 0.90377 0.57946 0.5692 0.0
C1091 C 0.95959 0.56622 0.58517 0.0
C1092 C 0.96024 0.53902 0.56453 0.0
H1093 H 0.93334 0.61018 0.59976 0.0
H1094 H 0.98171 0.57459 0.59705 0.0
S1095 S 0.88942 0.50399 0.52061 0.0
N1096 N 0.87514 0.53865 0.53688 0.0
N1097 N 0.92809 0.50061 0.5323 0.0
C1098 C 0.93068 0.52824 0.5507 0.0
C1099 C 0.90204 0.54847 0.55346 0.0
C1100 C 0.23717 0.12536 0.26499 0.0
C1101 C 0.20708 0.12408 0.27936 0.0
C1102 C 0.2592 0.15274 0.26985 0.0
C1103 C 0.25212 0.1799 0.28941 0.0
H1104 H 0.24356 0.10539 0.24944 0.0
H1105 H 0.28154 0.15304 0.25754 0.0
S1106 S 0.17829 0.18714 0.33504 0.0
N1107 N 0.17266 0.15147 0.31582 0.0
N1108 N 0.21378 0.20244 0.32475 0.0
C1109 C 0.22265 0.17832 0.30465 0.0
C1110 C 0.20024 0.15061 0.29969 0.0
C1111 C 0.4425 0.90861 0.5617 0.0
C1112 C 0.41156 0.9243 0.55633 0.0
C1113 C 0.47193 0.92579 0.55601 0.0
C1114 C 0.47202 0.95945 0.54418 0.0
H1115 H 0.44405 0.88238 0.57005 0.0
H1116 H 0.4948 0.91232 0.56062 0.0
S1117 S 0.39783 0.01288 0.52704 0.0
N1118 N 0.38309 0.97607 0.53933 0.0
N1119 N 0.43802 0.00845 0.52842 0.0
C1120 C 0.44125 0.97579 0.53924 0.0
C1121 C 0.41123 0.95831 0.54542 0.0
C1122 C 0.89089 0.63372 0.23316 0.0
C1123 C 0.87603 0.602 0.23947 0.0
C1124 C 0.87438 0.66506 0.23716 0.0
C1125 C 0.84272 0.66601 0.2486 0.0
H1126 H 0.91583 0.63437 0.22578 0.0
H1127 H 0.8872 0.68878 0.23261 0.0
S1128 S 0.79268 0.59012 0.26807 0.0
N1129 N 0.82721 0.5735 0.2566 0.0
N1130 N 0.79674 0.63224 0.26515 0.0
C1131 C 0.82731 0.63444 0.25435 0.0
C1132 C 0.84379 0.60251 0.2495 0.0
C1133 C 0.71969 0.40437 0.74394 0.0
C1134 C 0.73695 0.4349 0.74998 0.0
C1135 C 0.73507 0.37212 0.74714 0.0
C1136 C 0.76796 0.36925 0.75739 0.0
H1137 H 0.69402 0.40539 0.73706 0.0
H1138 H 0.72068 0.34922 0.74283 0.0
S1139 S 0.82413 0.44129 0.77574 0.0
N1140 N 0.78917 0.46016 0.76566 0.0
N1141 N 0.81751 0.39959 0.77271 0.0
C1142 C 0.7856 0.39955 0.76304 0.0
C1143 C 0.77025 0.43236 0.75904 0.0
C1144 C 0.04236 0.92306 0.95462 0.0
C1145 C 0.02947 0.89103 0.96276 0.0
C1146 C 0.04848 0.94821 0.97627 0.0
C1147 C 0.04169 0.94197 0.00655 0.0
H1148 H 0.04676 0.92915 0.93133 0.0
H1149 H 0.05633 0.9734 0.96891 0.0
S1150 S 1.01222 0.86095 0.04018 0.0
N1151 N 0.01351 0.85324 0.00387 0.0
N1152 N 0.02495 0.90088 0.04426 0.0
C1153 C 0.03101 0.90939 0.01528 0.0
C1154 C 0.02476 0.88381 0.99341 0.0
C1155 C 0.9297 0.26565 0.69217 0.0
C1156 C 0.96004 0.26226 0.7083 0.0
C1157 C 0.89967 0.2703 0.70676 0.0
C1158 C 0.89817 0.27267 0.73839 0.0
H1159 H 0.92902 0.26465 0.66786 0.0
H1160 H 0.87735 0.27227 0.69298 0.0
S1161 S 0.97009 0.26468 0.79165 0.0
N1162 N 0.986 0.26091 0.75827 0.0
N1163 N 0.93039 0.27022 0.78531 0.0
C1164 C 0.92831 0.26931 0.75481 0.0
C1165 C 0.95882 0.26399 0.73997 0.0
C1166 C 0.52593 0.21599 0.44013 0.0
C1167 C 0.49772 0.23476 0.44647 0.0
C1168 C 0.52701 0.18049 0.44506 0.0
C1169 C 0.49976 0.16311 0.45592 0.0
H1170 H 0.54799 0.22906 0.43366 0.0
H1171 H 0.55012 0.16713 0.44311 0.0
S1172 S 0.41801 0.19948 0.46889 0.0
N1173 N 0.44023 0.23275 0.45876 0.0
N1174 N 0.4426 0.16576 0.46823 0.0
C1175 C 0.4704 0.18093 0.45894 0.0
C1176 C 0.46931 0.217 0.45419 0.0
C1177 C 0.6793 0.78007 0.17857 0.0
C1178 C 0.64883 0.76948 0.18975 0.0
C1179 C 0.70925 0.77597 0.19513 0.0
C1180 C 0.71092 0.76088 0.22404 0.0
H1181 H 0.68029 0.7918 0.15647 0.0
H1182 H 0.73139 0.78491 0.18501 0.0
S1183 S 0.63886 0.72868 0.2646 0.0
N1184 N 0.6228 0.74315 0.2323 0.0
N1185 N 0.67864 0.73546 0.26337 0.0
C1186 C 0.68071 0.75023 0.23575 0.0
C1187 C 0.64999 0.75453 0.21878 0.0
C1188 C 0.05165 0.16156 0.5844 0.0
C1189 C 0.05109 0.16644 0.61584 0.0
C1190 C 0.05463 0.12896 0.57154 0.0
C1191 C 0.05666 0.09881 0.58916 0.0
H1192 H 0.05076 0.18351 0.56922 0.0
H1193 H 0.05542 0.12756 0.54728 0.0
S1194 S 0.05324 0.09584 0.67253 0.0
N1195 N 0.05108 0.13737 0.66436 0.0
N1196 N 0.05544 0.07569 0.64012 0.0
C1197 C 0.05434 0.10275 0.62063 0.0
C1198 C 0.05177 0.13647 0.63393 0.0
C1199 C 0.59439 0.30397 0.3495 0.0
C1200 C 0.58902 0.33071 0.36963 0.0
C1201 C 0.62423 0.30126 0.33515 0.0
C1202 C 0.64938 0.3256 0.34005 0.0
H1203 H 0.57608 0.28421 0.34589 0.0
H1204 H 0.62805 0.27917 0.32105 0.0
S1205 S 0.64446 0.40368 0.38699 0.0
N1206 N 0.60941 0.38373 0.39167 0.0
N1207 N 0.66487 0.37965 0.36366 0.0
C1208 C 0.64324 0.35364 0.35876 0.0
C1209 C 0.61319 0.35595 0.37379 0.0
C1210 C 0.54805 0.8884 0.13553 0.0
C1211 C 0.54845 0.85589 0.12182 0.0
C1212 C 0.54982 0.91918 0.11844 0.0
C1213 C 0.55167 0.91897 0.08676 0.0
H1214 H 0.54632 0.89015 0.15968 0.0
H1215 H 0.54948 0.9434 0.13024 0.0
S1216 S 0.55399 0.84071 0.03967 0.0
N1217 N 0.55137 0.82572 0.07428 0.0
N1218 N 0.55431 0.88295 0.04264 0.0
C1219 C 0.55219 0.88662 0.07284 0.0
C1220 C 0.5507 0.85537 0.09018 0.0
C1221 C 0.9206 0.83037 0.84894 0.0
C1222 C 0.91453 0.83034 0.87985 0.0
C1223 C 0.90017 0.81276 0.82845 0.0
C1224 C 0.87289 0.79429 0.83809 0.0
H1225 H 0.94201 0.84316 0.84062 0.0
H1226 H 0.90561 0.81407 0.80485 0.0
S1227 S 0.84556 0.78672 0.91653 0.0
N1228 N 0.87849 0.81105 0.91897 0.0
N1229 N 0.84047 0.77757 0.88058 0.0
C1230 C 0.86615 0.79458 0.86887 0.0
C1231 C 0.88667 0.81291 0.88966 0.0
C1232 C 0.92657 0.03321 0.93125 0.0
C1233 C 0.9473 0.02917 0.90693 0.0
C1234 C 0.93933 0.03891 0.96061 0.0
C1235 C 0.97325 0.04195 0.96657 0.0
H1236 H 0.90029 0.03146 0.92766 0.0
H1237 H 0.92254 0.04085 0.97878 0.0
S1238 S 0.03809 0.03327 0.91083 0.0
N1239 N 1.00356 0.02822 0.89104 0.0
N1240 N 0.02731 0.03991 0.94564 0.0
C1241 C 0.99417 0.03838 0.94235 0.0
C1242 C 0.98127 0.03173 0.91272 0.0
C1243 C 0.8266 0.18282 0.6008 0.0
C1244 C 0.80518 0.1608 0.58516 0.0
C1245 C 0.81893 0.19495 0.62912 0.0
C1246 C 0.78918 0.18615 0.6422 0.0
H1247 H 0.84816 0.19262 0.59021 0.0
H1248 H 0.83555 0.21293 0.64011 0.0
S1249 S 0.72628 0.12686 0.61063 0.0
N1250 N 0.75468 0.12817 0.58523 0.0
N1251 N 0.73958 0.15186 0.63827 0.0
C1252 C 0.76873 0.16212 0.62762 0.0
C1253 C 0.77689 0.1493 0.599 0.0
C1254 C 0.65611 0.98726 0.43253 0.0
C1255 C 0.64233 1.00098 0.40548 0.0
C1256 C 0.63711 0.9824 0.45812 0.0
C1257 C 0.60358 0.99112 0.45771 0.0
H1258 H 0.68181 0.98046 0.43406 0.0
H1259 H 0.64914 0.97314 0.47873 0.0
S1260 S 0.55511 0.02636 0.39231 0.0
N1261 N 0.59238 0.022 0.37992 0.0
N1262 N 0.55727 0.01283 0.42754 0.0
C1263 C 0.58941 0.00397 0.43061 0.0
C1264 C 0.60858 0.00893 0.4047 0.0
C1265 C 0.8235 0.86544 0.09669 0.0
C1266 C 0.83145 0.84129 0.07472 0.0
C1267 C 0.83692 0.86278 0.12596 0.0
C1268 C 0.85867 0.83597 0.13394 0.0
H1269 H 0.80434 0.88429 0.09226 0.0
H1270 H 0.82689 0.87884 0.14314 0.0
S1271 S 0.89617 0.77463 0.08214 0.0
N1272 N 0.86893 0.79595 0.06087 0.0
N1273 N 0.8943 0.79115 0.11609 0.0
C1274 C 0.87114 0.81582 0.11095 0.0
C1275 C 0.85725 0.81823 0.08124 0.0
C1276 C 0.99737 0.96467 0.74479 0.0
C1277 C 0.97046 0.98631 0.75013 0.0
C1278 C 1.00769 0.95845 0.71564 0.0
C1279 C 0.99152 0.97331 0.6903 0.0
H1280 H 1.01088 0.95237 0.76332 0.0
H1281 H 0.02863 0.94181 0.71293 0.0
S1282 S 0.92 0.03218 0.69127 0.0
N1283 N 0.92782 0.02267 0.72704 0.0
N1284 N 0.94751 0.01115 0.67231 0.0
C1285 C 0.96451 0.99487 0.69508 0.0
C1286 C 0.95399 1.00138 0.7249 0.0
C1287 C 0.82462 0.16029 0.3993 0.0
C1288 C 0.80863 0.17123 0.42492 0.0
C1289 C 0.8277 0.18214 0.37428 0.0
C1290 C 0.81448 0.21573 0.3736 0.0
H1291 H 0.83549 0.13489 0.39876 0.0
H1292 H 0.84002 0.17223 0.35504 0.0
S1293 S 0.76894 0.25632 0.43447 0.0
N1294 N 0.77881 0.21778 0.44784 0.0
N1295 N 0.78394 0.25839 0.40059 0.0
C1296 C 0.79795 0.22679 0.39888 0.0
C1297 C 0.79521 0.20469 0.42455 0.0
C1298 C 0.6362 0.06992 0.23538 0.0
C1299 C 0.64256 0.03659 0.24685 0.0
C1300 C 0.6251 0.07513 0.2056 0.0
C1301 C 0.61955 0.04709 0.18662 0.0
H1302 H 0.63872 0.09205 0.2499 0.0
H1303 H 0.61927 0.10099 0.19784 0.0
S1304 S 0.63488 0.95515 0.20493 0.0
N1305 N 0.64482 0.97552 0.23638 0.0
N1306 N 0.62325 0.9852 0.18029 0.0
C1307 C 0.62731 0.01381 0.1973 0.0
C1308 C 0.63911 0.00856 0.2275 0.0
C1309 C 0.69003 0.83148 0.93487 0.0
C1310 C 0.70544 0.81514 0.95985 0.0
C1311 C 0.68568 0.81431 0.90775 0.0
C1312 C 0.6964 0.78007 0.90483 0.0
H1313 H 0.68469 0.85877 0.93504 0.0
H1314 H 0.67811 0.8298 0.88843 0.0
S1315 S 0.72119 0.72166 0.96807 0.0
N1316 N 0.72018 0.76025 0.98324 0.0
N1317 N 0.70965 0.72705 0.93237 0.0
C1318 C 0.70422 0.76153 0.93153 0.0
C1319 C 0.70962 0.77937 0.9591 0.0
C1320 C 0.83399 0.91207 0.99721 0.0
C1321 C 0.84292 0.87843 0.98986 0.0
C1322 C 0.85334 0.93186 0.0168 0.0
C1323 C 0.8843 0.92041 0.02777 0.0
H1324 H 0.81106 0.92283 0.98884 0.0
H1325 H 0.8433 0.95621 0.0235 0.0
S1326 S 0.92317 0.83724 0.00804 0.0
N1327 N 0.88639 0.83573 0.99166 0.0
N1328 N 0.92537 0.87491 0.02469 0.0
C1329 C 0.89518 0.888 0.01777 0.0
C1330 C 0.87422 0.86684 0.99937 0.0
C1331 C 0.41904 0.59187 0.99073 0.0
C1332 C 0.39171 0.57583 0.00329 0.0
C1333 C 0.45057 0.57719 0.99323 0.0
C1334 C 0.45642 0.54602 0.00885 0.0
H1335 H 0.41613 0.61616 0.97884 0.0
H1336 H 0.47068 0.59101 0.9836 0.0
S1337 S 0.39333 0.49299 0.04532 0.0
N1338 N 0.37268 0.52631 0.03121 0.0
N1339 N 0.43174 0.49909 0.03646 0.0
C1340 C 0.42924 0.52945 0.0212 0.0
C1341 C 0.39702 0.54419 0.01827 0.0
C1342 C 0.23879 0.61247 0.80523 0.0
C1343 C 0.21027 0.61736 0.82153 0.0
C1344 C 0.25509 0.64029 0.79208 0.0
C1345 C 0.24356 0.67429 0.79453 0.0
H1346 H 0.24815 0.58679 0.80171 0.0
H1347 H 0.27699 0.63503 0.77997 0.0
S1348 S 0.1714 0.70154 0.83704 0.0
N1349 N 0.17243 0.65932 0.84096 0.0
N1350 N 0.20261 0.71132 0.81618 0.0
C1351 C 0.21548 0.67963 0.81141 0.0
C1352 C 0.19905 0.65135 0.82495 0.0
C1353 C 0.17233 0.41331 0.50216 0.0
C1354 C 0.19515 0.41419 0.52658 0.0
C1355 C 0.14542 0.43549 0.50075 0.0
C1356 C 0.14044 0.45918 0.52374 0.0
H1357 H 0.17618 0.39682 0.48313 0.0
H1358 H 0.12875 0.4344 0.4813 0.0
S1359 S 0.1905 0.46743 0.59488 0.0
N1360 N 0.20914 0.4375 0.5758 0.0
N1361 N 0.15866 0.47933 0.57344 0.0
C1362 C 0.16211 0.45879 0.54918 0.0
C1363 C 0.18933 0.43608 0.55061 0.0
C1364 C 0.85536 0.90095 0.84098 0.0
C1365 C 0.86763 0.92751 0.82316 0.0
C1366 C 0.831 0.87888 0.82938 0.0
C1367 C 0.819 0.88209 0.79934 0.0
H1368 H 0.86515 0.89671 0.86366 0.0
H1369 H 0.82346 0.85751 0.84326 0.0
S1370 S 0.84296 0.94775 0.74378 0.0
N1371 N 0.86505 0.95675 0.77448 0.0
N1372 N 0.8205 0.91416 0.75252 0.0
C1373 C 0.83035 0.90918 0.78173 0.0
C1374 C 0.85444 0.93213 0.79368 0.0
C1375 C 0.70879 0.07517 0.5256 0.0
C1376 C 0.70742 0.10417 0.50638 0.0
C1377 C 0.68016 0.06056 0.53698 0.0
C1378 C 0.6488 0.07431 0.52976 0.0
H1379 H 0.73223 0.06422 0.53265 0.0
H1380 H 0.68269 0.03818 0.55154 0.0
S1381 S 0.63151 0.14887 0.47869 0.0
N1382 N 0.67172 0.1451 0.47955 0.0
N1383 N 0.61841 0.11804 0.50087 0.0
C1384 C 0.64713 0.10303 0.51018 0.0
C1385 C 0.6762 0.11776 0.49852 0.0
C1386 C 0.2638 0.4256 0.79347 0.0
C1387 C 0.23309 0.42474 0.80696 0.0
C1388 C 0.2805 0.39509 0.78631 0.0
C1389 C 0.26742 0.36256 0.79295 0.0
H1390 H 0.27496 0.45004 0.78822 0.0
H1391 H 0.30402 0.397 0.77603 0.0
S1392 S 0.18741 0.34599 0.82734 0.0
N1393 N 0.19012 0.38827 0.82587 0.0
N1394 N 0.22129 0.33149 0.81291 0.0
C1395 C 0.23664 0.36144 0.80622 0.0
C1396 C 0.21956 0.39232 0.8131 0.0
C1397 C 0.38772 0.63934 0.31584 0.0
C1398 C 0.37717 0.60927 0.30107 0.0
C1399 C 0.36865 0.66935 0.31495 0.0
C1400 C 0.33844 0.67076 0.29883 0.0
H1401 H 0.41081 0.63966 0.32857 0.0
H1402 H 0.37819 0.69192 0.32632 0.0
S1403 S 0.2996 0.59905 0.25625 0.0
N1404 N 0.33426 0.58259 0.27018 0.0
N1405 N 0.29872 0.63924 0.26784 0.0
C1406 C 0.32751 0.64084 0.28399 0.0
C1407 C 0.34677 0.61006 0.28528 0.0
C1408 C 0.52058 0.706 0.59325 0.0
C1409 C 0.54612 0.72937 0.58956 0.0
C1410 C 0.51932 0.67553 0.57712 0.0
C1411 C 0.54394 0.66728 0.5571 0.0
H1412 H 0.50247 0.71051 0.60992 0.0
H1413 H 0.50011 0.6574 0.58196 0.0
S1414 S 0.613 0.72328 0.53608 0.0
N1415 N 0.59404 0.74507 0.56196 0.0
N1416 N 0.59202 0.68739 0.53136 0.0
C1417 C 0.56792 0.6921 0.55114 0.0
C1418 C 0.56894 0.72336 0.5675 0.0
C1419 C 0.67875 0.27196 0.8733 0.0
C1420 C 0.64851 0.26209 0.85958 0.0
C1421 C 0.70849 0.27131 0.85769 0.0
C1422 C 0.70993 0.26057 0.82742 0.0
H1423 H 0.67949 0.2808 0.8963 0.0
H1424 H 0.73062 0.27964 0.86955 0.0
S1425 S 0.63809 0.2311 0.78095 0.0
N1426 N 0.6225 0.24053 0.81356 0.0
N1427 N 0.67763 0.23915 0.78473 0.0
C1428 C 0.67992 0.25014 0.8136 0.0
C1429 C 0.64963 0.25095 0.82944 0.0
C1430 C 0.1418 0.30575 0.12679 0.0
C1431 C 0.11889 0.28045 0.11871 0.0
C1432 C 0.1432 0.3365 0.11042 0.0
C1433 C 0.121 0.34314 0.08613 0.0
H1434 H 0.15806 0.30211 0.14634 0.0
H1435 H 0.16079 0.35578 0.11763 0.0
S1436 S 0.05598 0.28413 0.05697 0.0
N1437 N 0.07457 0.26264 0.08478 0.0
N1438 N 0.07521 0.32128 0.05513 0.0
C1439 C 0.09856 0.31723 0.07745 0.0
C1440 C 0.09796 0.28562 0.09356 0.0
C1441 C 0.95543 0.76826 0.3406 0.0
C1442 C 0.95314 0.77233 0.37206 0.0
C1443 C 0.92724 0.76858 0.32067 0.0
C1444 C 0.89512 0.77249 0.33109 0.0
H1445 H 0.97921 0.76462 0.33121 0.0
H1446 H 0.93063 0.76497 0.2969 0.0
S1447 S 0.87477 0.78714 0.41056 0.0
N1448 N 0.9149 0.78259 0.41185 0.0
N1449 N 0.86327 0.78273 0.37491 0.0
C1450 C 0.89253 0.77719 0.36224 0.0
C1451 C 0.92099 0.77724 0.38244 0.0
C1452 C 0.56138 0.38987 0.93117 0.0
C1453 C 0.55391 0.35704 0.94269 0.0
C1454 C 0.55935 0.41983 0.94892 0.0
C1455 C 0.54963 0.41865 0.97914 0.0
H1456 H 0.56953 0.39244 0.90839 0.0
H1457 H 0.56595 0.44416 0.93883 0.0
S1458 S 0.52592 0.33939 0.02 0.0
N1459 N 0.53531 0.32567 0.98643 0.0
N1460 N 0.53143 0.38139 0.01921 0.0
C1461 C 0.54138 0.38608 0.99069 0.0
C1462 C 0.54354 0.35559 0.97269 0.0
C1463 C 1.00226 0.18149 0.20028 0.0
C1464 C 0.02778 0.20253 0.21121 0.0
C1465 C 0.9717 0.18159 0.21348 0.0
C1466 C 0.96517 0.20355 0.23756 0.0
H1467 H 1.00584 0.1651 0.18111 0.0
H1468 H 0.95286 0.16478 0.2043 0.0
S1469 S 0.02427 0.26482 0.27325 0.0
N1470 N 0.0453 0.24551 0.24731 0.0
N1471 N 0.98737 0.2477 0.27114 0.0
C1472 C 0.99092 0.22456 0.24881 0.0
C1473 C 0.02232 0.22361 0.23582 0.0
C1474 C 0.07406 0.6637 0.48276 0.0
C1475 C 0.06045 0.66758 0.45327 0.0
C1476 C 0.07479 0.63176 0.49811 0.0
C1477 C 0.06157 0.60172 0.48503 0.0
H1478 H 0.083 0.68613 0.49473 0.0
H1479 H 0.08482 0.63101 0.52096 0.0
S1480 S 0.02387 0.59713 0.40773 0.0
N1481 N 0.03427 0.63799 0.41122 0.0
N1482 N 0.03558 0.57803 0.43966 0.0
C1483 C 0.04899 0.60487 0.455 0.0
C1484 C 0.04843 0.63761 0.43928 0.0
C1485 C 0.66478 0.76685 0.70102 0.0
C1486 C 0.65957 0.79078 0.67732 0.0
C1487 C 0.6937 0.76643 0.71826 0.0
C1488 C 0.71903 0.78919 0.71211 0.0
H1489 H 0.64576 0.74931 0.70763 0.0
H1490 H 0.69594 0.74853 0.73704 0.0
S1491 S 0.72072 0.85268 0.64971 0.0
N1492 N 0.68405 0.83509 0.64636 0.0
N1493 N 0.7394 0.83345 0.67884 0.0
C1494 C 0.71576 0.81111 0.68696 0.0
C1495 C 0.68579 0.81202 0.66945 0.0
C1496 C 0.60706 0.52641 0.66604 0.0
C1497 C 0.64003 0.5347 0.67206 0.0
C1498 C 0.59245 0.53118 0.63743 0.0
C1499 C 0.61004 0.54484 0.61348 0.0
H1500 H 0.59194 0.51762 0.68405 0.0
H1501 H 0.5667 0.52514 0.63446 0.0
S1502 S 0.69797 0.56855 0.61707 0.0
N1503 N 0.6906 0.55535 0.65155 0.0
N1504 N 0.66317 0.5644 0.59737 0.0
C1505 C 0.64363 0.55151 0.61874 0.0
C1506 C 0.65861 0.54641 0.64811 0.0
C1507 C 0.81335 0.38751 0.95838 0.0
C1508 C 0.81873 0.36791 0.98483 0.0
C1509 C 0.82285 0.37529 0.93051 0.0
C1510 C 0.83859 0.3433 0.92822 0.0
H1511 H 0.8005 0.41186 0.95895 0.0
H1512 H 0.81618 0.39014 0.9105 0.0
S1513 S 0.86308 0.28448 0.99109 0.0
N1514 N 0.84324 0.31603 0.00702 0.0
N1515 N 0.86307 0.29444 0.95501 0.0
C1516 C 0.84636 0.32473 0.95473 0.0
C1517 C 0.83585 0.33661 0.98294 0.0
C1518 C 0.98379 0.53837 0.15714 0.0
C1519 C 0.98768 0.50874 0.1754 0.0
C1520 C 1.00009 0.54163 0.12968 0.0
C1521 C 0.02104 0.5155 0.11957 0.0
H1522 H 0.96888 0.55951 0.16449 0.0
H1523 H 0.9964 0.56488 0.11642 0.0
S1524 S 0.0363 0.4311 0.15777 0.0
N1525 N 1.01179 0.45171 0.18007 0.0
N1526 N 0.04235 0.45779 0.12956 0.0
C1527 C 0.02417 0.4854 0.13742 0.0
C1528 C 1.00752 0.48205 0.16494 0.0
C1529 C 0.87047 0.67914 0.42825 0.0
C1530 C 0.86537 0.64721 0.44199 0.0
C1531 C 0.84915 0.69092 0.40538 0.0
C1532 C 0.82162 0.67159 0.39594 0.0
H1533 H 0.88912 0.69648 0.43703 0.0
H1534 H 0.85324 0.71629 0.39622 0.0
S1535 S 0.80659 0.58029 0.41581 0.0
N1536 N 0.83829 0.59158 0.43756 0.0
N1537 N 0.79633 0.61493 0.39588 0.0
C1538 C 0.81958 0.63733 0.40595 0.0
C1539 C 0.84213 0.62481 0.42867 0.0
C1540 C 0.63463 0.51689 0.83995 0.0
C1541 C 0.66133 0.53693 0.83164 0.0
C1542 C 0.6191 0.5226 0.867 0.0
C1543 C 0.629 0.54928 0.8866 0.0
H1544 H 0.62595 0.49625 0.82557 0.0
H1545 H 0.5994 0.50548 0.87273 0.0
S1546 S 0.69628 0.61106 0.87316 0.0
N1547 N 0.69664 0.58507 0.84403 0.0
N1548 N 0.66649 0.59733 0.89426 0.0
C1549 C 0.65545 0.57004 0.87803 0.0
C1550 C 0.67177 0.56356 0.85069 0.0
C1551 C 0.77261 0.33493 0.15615 0.0
C1552 C 0.80357 0.34119 0.14442 0.0
C1553 C 0.76956 0.31685 0.1836 0.0
C1554 C 0.79733 0.30374 0.19964 0.0
H1555 H 0.75068 0.34252 0.14337 0.0
H1556 H 0.74535 0.312 0.19173 0.0
S1557 S 0.88389 0.31749 0.18018 0.0
N1558 N 0.86235 0.33593 0.15236 0.0
N1559 N 0.85682 0.30198 0.20327 0.0
C1560 C 0.82834 0.31148 0.18872 0.0
C1561 C 0.83139 0.33015 0.16128 0.0
C1562 C 0.97761 0.48133 0.33612 0.0
C1563 C 0.95 0.50271 0.33225 0.0
C1564 C 0.98877 0.47043 0.36469 0.0
C1565 C 0.9733 0.48112 0.39072 0.0
H1566 H 0.99107 0.4731 0.31701 0.0
H1567 H 1.0104 0.45429 0.36647 0.0
S1568 S 0.9002 0.53775 0.3929 0.0
N1569 N 0.90689 0.53372 0.35675 0.0
N1570 N 0.92886 0.51462 0.41075 0.0
C1571 C 0.94524 0.50206 0.3872 0.0
C1572 C 0.93344 0.51261 0.35792 0.0
C1573 C 0.88358 0.76524 0.58495 0.0
C1574 C 0.8809 0.72932 0.58238 0.0
C1575 C 0.88548 0.78089 0.61321 0.0
C1576 C 0.8847 0.7612 0.63989 0.0
H1577 H 0.8827 0.78153 0.56507 0.0
H1578 H 0.88599 0.8087 0.61416 0.0
S1579 S 0.88235 0.66571 0.6453 0.0
N1580 N 0.88194 0.67423 0.60898 0.0
N1581 N 0.88358 0.70349 0.66172 0.0
C1582 C 0.88429 0.72509 0.63754 0.0
C1583 C 0.88281 0.70921 0.60889 0.0
C1584 C 0.76515 0.62845 0.47241 0.0
C1585 C 0.76939 0.6629 0.4806 0.0
C1586 C 0.73411 0.6141 0.46915 0.0
C1587 C 0.70613 0.63326 0.47554 0.0
H1588 H 0.78615 0.61191 0.47021 0.0
H1589 H 0.73222 0.58709 0.46361 0.0
S1590 S 0.70436 0.72541 0.49687 0.0
N1591 N 0.74353 0.71684 0.49286 0.0
N1592 N 0.68463 0.68937 0.48913 0.0
C1593 C 0.7099 0.66846 0.48232 0.0
C1594 C 0.74176 0.68338 0.4845 0.0
C1595 C 0.19312 0.92163 0.57502 0.0
C1596 C 0.22069 0.94195 0.56891 0.0
C1597 C 0.16108 0.93533 0.57334 0.0
C1598 C 0.15503 0.96971 0.56449 0.0
H1599 H 0.19629 0.89466 0.58069 0.0
H1600 H 0.14078 0.91836 0.57761 0.0
S1601 S 0.21854 0.0341 0.54667 0.0
N1602 N 0.23963 0.99875 0.55487 0.0
N1603 N 0.17968 0.02404 0.55046 0.0
C1604 C 0.18242 0.99046 0.55886 0.0
C1605 C 0.2151 0.97675 0.56141 0.0
C1606 C 0.41809 0.8736 0.76955 0.0
C1607 C 0.40517 0.90723 0.76676 0.0
C1608 C 0.39827 0.84526 0.77621 0.0
C1609 C 0.36466 0.84919 0.78095 0.0
H1610 H 0.44389 0.869 0.76659 0.0
H1611 H 0.40951 0.82003 0.77778 0.0
S1612 S 0.31821 0.93144 0.77559 0.0
N1613 N 0.35617 0.94251 0.76873 0.0
N1614 N 0.31905 0.88947 0.78148 0.0
C1615 C 0.35129 0.88261 0.77808 0.0
C1616 C 0.37143 0.91147 0.77088 0.0
C1617 C 0.41402 0.05705 0.0714 0.0
C1618 C 0.39611 0.06324 0.04445 0.0
C1619 C 0.44581 0.04385 0.07101 0.0
C1620 C 0.46015 0.03608 0.04367 0.0
H1621 H 0.40462 0.06535 0.09261 0.0
H1622 H 0.45979 0.04139 0.09208 0.0
S1623 S 0.4208 0.04349 0.96741 0.0
N1624 N 0.39307 0.05796 0.99022 0.0
N1625 N 0.45248 0.03187 0.98926 0.0
C1626 C 0.44113 0.03922 0.0168 0.0
C1627 C 0.40908 0.05324 0.01725 0.0
C1628 C 0.75923 0.62696 0.77905 0.0
C1629 C 0.735 0.62568 0.75592 0.0
C1630 C 0.78186 0.65397 0.78031 0.0
C1631 C 0.78155 0.67973 0.75794 0.0
H1632 H 0.75927 0.60832 0.79729 0.0
H1633 H 0.79807 0.65615 0.80001 0.0
S1634 S 0.72543 0.68513 0.69079 0.0
N1635 N 0.71354 0.65038 0.70897 0.0
N1636 N 0.75687 0.70055 0.71072 0.0
C1637 C 0.7592 0.67691 0.73337 0.0
C1638 C 0.73558 0.65003 0.73256 0.0
C1639 C 0.93583 0.40169 0.05197 0.0
C1640 C 0.90551 0.41922 0.04919 0.0
C1641 C 0.9654 0.41731 0.04435 0.0
C1642 C 0.96624 0.45124 0.03324 0.0
H1643 H 0.93679 0.37532 0.06002 0.0
H1644 H 0.98782 0.4026 0.04737 0.0
S1645 S 0.89374 0.50864 0.02133 0.0
N1646 N 0.87833 0.47254 0.03442 0.0
N1647 N 0.93355 0.5021 0.01996 0.0
C1648 C 0.93606 0.46922 0.0304 0.0
C1649 C 0.90591 0.45327 0.03846 0.0
C1650 C 0.35042 0.10027 0.76236 0.0
C1651 C 0.3834 0.10056 0.7541 0.0
C1652 C 0.33323 0.13109 0.76744 0.0
C1653 C 0.34809 0.16337 0.76358 0.0
H1654 H 0.33813 0.07602 0.76595 0.0
H1655 H 0.30813 0.12964 0.77429 0.0
S1656 S 0.43369 0.17826 0.74154 0.0
N1657 N 0.43005 0.13599 0.74225 0.0
N1658 N 0.39776 0.19354 0.75068 0.0
C1659 C 0.38082 0.16391 0.75466 0.0
C1660 C 0.39844 0.13266 0.75022 0.0
C1661 C 0.20923 0.90205 0.24812 0.0
C1662 C 0.22474 0.93332 0.25526 0.0
C1663 C 0.22658 0.87072 0.2493 0.0
C1664 C 0.25986 0.86929 0.25867 0.0
H1665 H 0.18338 0.90173 0.24187 0.0
H1666 H 0.21341 0.84724 0.24415 0.0
S1667 S 0.31188 0.94385 0.27968 0.0
N1668 N 0.27567 0.96095 0.27115 0.0
N1669 N 0.30773 0.90203 0.2747 0.0
C1670 C 0.27572 0.9004 0.26557 0.0
C1671 C 0.25832 0.9324 0.2635 0.0
C1672 C 0.51913 0.41688 0.48892 0.0
C1673 C 0.52508 0.41627 0.45805 0.0
C1674 C 0.53298 0.44214 0.50746 0.0
C1675 C 0.55365 0.46745 0.49589 0.0
H1676 H 0.5035 0.39776 0.49884 0.0
H1677 H 0.52666 0.44244 0.53088 0.0
S1678 S 0.57806 0.47622 0.41667 0.0
N1679 N 0.55376 0.44243 0.41676 0.0
N1680 N 0.57997 0.48995 0.45165 0.0
C1681 C 0.5605 0.46661 0.46515 0.0
C1682 C 0.546 0.44114 0.44617 0.0
C1683 C 0.42548 0.76875 0.18883 0.0
C1684 C 0.45613 0.76709 0.20473 0.0
C1685 C 0.39528 0.77203 0.20362 0.0
C1686 C 0.39372 0.77475 0.23527 0.0
H1687 H 0.4247 0.76732 0.16454 0.0
H1688 H 0.37284 0.77263 0.18994 0.0
S1689 S 0.4665 0.77197 0.28797 0.0
N1690 N 0.48231 0.76824 0.25456 0.0
N1691 N 0.42654 0.77514 0.28187 0.0
C1692 C 0.42421 0.77334 0.25142 0.0
C1693 C 0.45491 0.76935 0.2364 0.0
C1694 C 0.95547 0.70846 0.95301 0.0
C1695 C 0.98099 0.72225 0.93627 0.0
C1696 C 0.9571 0.67482 0.9639 0.0
C1697 C 0.98389 0.65407 0.95772 0.0
H1698 H 0.93544 0.72456 0.95981 0.0
H1699 H 0.93874 0.66589 0.97906 0.0
S1700 S 0.05364 0.67529 0.91042 0.0
N1701 N 0.03139 0.71077 0.91049 0.0
N1702 N 0.03393 0.64697 0.9308 0.0
C1703 C 1.00752 0.66596 0.93821 0.0
C1704 C 1.00611 0.70033 0.9273 0.0
C1705 C 0.18263 0.26996 0.68279 0.0
C1706 C 0.15157 0.26337 0.69471 0.0
C1707 C 0.21214 0.26599 0.6999 0.0
C1708 C 0.2128 0.25508 0.7302 0.0
H1709 H 0.18449 0.2784 0.65966 0.0
H1710 H 0.23478 0.2718 0.68908 0.0
S1711 S 0.13891 0.2345 0.77322 0.0
N1712 N 0.12383 0.24527 0.73948 0.0
N1713 N 0.17906 0.23799 0.77165 0.0
C1714 C 0.18205 0.24833 0.74267 0.0
C1715 C 0.15171 0.25244 0.72508 0.0
C1716 C 0.55702 0.64448 0.12472 0.0
C1717 C 0.54546 0.67422 0.10929 0.0
C1718 C 0.56095 0.61274 0.10957 0.0
C1719 C 0.55449 0.60974 0.07822 0.0
H1720 H 0.56471 0.64614 0.1482 0.0
H1721 H 0.57035 0.59076 0.12228 0.0
S1722 S 0.5197 0.6786 0.02835 0.0
N1723 N 0.5243 0.69709 0.06145 0.0
N1724 N 0.53264 0.63866 0.03332 0.0
C1725 C 0.54151 0.63885 0.06305 0.0
C1726 C 0.53678 0.67061 0.07845 0.0
C1727 C 0.0957 0.82422 0.84303 0.0
C1728 C 0.09232 0.8056 0.86992 0.0
C1729 C 0.1263 0.82816 0.83057 0.0
C1730 C 0.15439 0.81342 0.84453 0.0
H1731 H 0.0748 0.83693 0.83212 0.0
H1732 H 0.12807 0.84307 0.81003 0.0
S1733 S 0.15763 0.75864 0.91325 0.0
N1734 N 0.11887 0.77026 0.90899 0.0
N1735 N 0.17649 0.77684 0.88508 0.0
C1736 C 0.15111 0.79369 0.87085 0.0
C1737 C 0.12 0.78992 0.88364 0.0
C1738 C 0.04848 0.38174 0.63661 0.0
C1739 C 0.04662 0.34891 0.62351 0.0
C1740 C 0.04757 0.41211 0.61881 0.0
C1741 C 0.04402 0.41117 0.58709 0.0
H1742 H 0.05093 0.38404 0.66081 0.0
H1743 H 0.04949 0.43662 0.63009 0.0
S1744 S 0.03788 0.33188 0.54144 0.0
N1745 N 0.04118 0.31764 0.57646 0.0
N1746 N 0.03882 0.37419 0.54356 0.0
C1747 C 0.04186 0.37852 0.57379 0.0
C1748 C 0.04333 0.34766 0.59179 0.0
C1749 C 0.37914 0.32519 0.40113 0.0
C1750 C 0.41164 0.3137 0.40086 0.0
C1751 C 0.35431 0.30773 0.38488 0.0
C1752 C 0.36121 0.27792 0.36834 0.0
H1753 H 0.37313 0.34841 0.41302 0.0
H1754 H 0.32998 0.31884 0.3839 0.0
S1755 S 0.44128 0.23295 0.36722 0.0
N1756 N 0.44855 0.2678 0.38717 0.0
N1757 N 0.402 0.23457 0.35747 0.0
C1758 C 0.39309 0.26438 0.3707 0.0
C1759 C 0.41831 0.28245 0.38664 0.0
C1760 C 0.45025 0.54699 0.42131 0.0
C1761 C 0.467 0.54374 0.39445 0.0
C1762 C 0.46659 0.55721 0.44813 0.0
C1763 C 0.50026 0.5652 0.44907 0.0
H1764 H 0.4244 0.54112 0.42176 0.0
H1765 H 0.45279 0.55827 0.4684 0.0
S1766 S 0.55489 0.56313 0.38423 0.0
N1767 N 0.51899 0.55073 0.37021 0.0
N1768 N 0.54935 0.57046 0.4201 0.0
C1769 C 0.51702 0.56302 0.42207 0.0
C1770 C 0.50054 0.55211 0.39496 0.0
C1771 C 0.31452 0.68058 0.09577 0.0
C1772 C 0.29031 0.66202 0.07997 0.0
C1773 C 0.30874 0.69323 0.12443 0.0
C1774 C 0.27845 0.68796 0.13788 0.0
H1775 H 0.33707 0.68733 0.08515 0.0
H1776 H 0.32751 0.70864 0.13555 0.0
S1777 S 0.20838 0.63834 0.10606 0.0
N1778 N 0.23618 0.63666 0.08013 0.0
N1779 N 0.22508 0.66068 0.13401 0.0
C1780 C 0.25496 0.66742 0.123 0.0
C1781 C 0.26094 0.65447 0.09391 0.0
C1782 C 0.14419 0.47944 0.91807 0.0
C1783 C 0.13893 0.50517 0.89608 0.0
C1784 C 0.12283 0.47538 0.94188 0.0
C1785 C 0.09551 0.4972 0.94493 0.0
H1786 H 0.16462 0.46184 0.91657 0.0
H1787 H 0.12828 0.45536 0.95839 0.0
S1788 S 0.07209 0.57004 0.89398 0.0
N1789 N 0.10497 0.55346 0.87925 0.0
N1790 N 0.06522 0.5463 0.92399 0.0
C1791 C 0.0902 0.52326 0.92311 0.0
C1792 C 0.11179 0.52713 0.89875 0.0
C1793 C 0.35431 0.31863 0.57363 0.0
C1794 C 0.32229 0.31737 0.56088 0.0
C1795 C 0.36047 0.31119 0.60422 0.0
C1796 C 0.33483 0.30184 0.62268 0.0
H1797 H 0.37438 0.32751 0.56039 0.0
H1798 H 0.38519 0.31332 0.61359 0.0
S1799 S 0.24719 0.29265 0.59978 0.0
N1800 N 0.26513 0.3044 0.56872 0.0
N1801 N 0.27667 0.29029 0.62605 0.0
C1802 C 0.30303 0.29904 0.6099 0.0
C1803 C 0.29677 0.30674 0.57898 0.0
C1804 C 0.49829 0.47167 0.23117 0.0
C1805 C 0.47463 0.49665 0.23803 0.0
C1806 C 0.50631 0.4649 0.20161 0.0
C1807 C 0.491 0.48258 0.17739 0.0
H1808 H 0.51124 0.45721 0.24881 0.0
H1809 H 0.52527 0.44613 0.1977 0.0
S1810 S 0.42655 0.54935 0.18219 0.0
N1811 N 0.43501 0.53823 0.21754 0.0
N1812 N 0.45045 0.52548 0.16166 0.0
C1813 C 0.46652 0.50677 0.1835 0.0
C1814 C 0.45827 0.51381 0.21385 0.0
C1815 C 0.30172 0.70646 0.92177 0.0
C1816 C 0.30531 0.6704 0.92002 0.0
C1817 C 0.30615 0.72802 0.8967 0.0
C1818 C 0.31499 0.71448 0.86901 0.0
H1819 H 0.2956 0.71829 0.94277 0.0
H1820 H 0.30271 0.75548 0.89904 0.0
S1821 S 0.32387 0.62171 0.85145 0.0
N1822 N 0.31585 0.62214 0.8875 0.0
N1823 N 0.32425 0.6624 0.84064 0.0
C1824 C 0.31789 0.67843 0.86677 0.0
C1825 C 0.31302 0.65649 0.89216 0.0
C1826 C 0.14003 0.57017 0.72567 0.0
C1827 C 0.15205 0.53868 0.73744 0.0
C1828 C 0.13255 0.57422 0.69505 0.0
C1829 C 0.1371 0.54698 0.67537 0.0
H1830 H 0.13469 0.59129 0.74045 0.0
H1831 H 0.12087 0.59781 0.6871 0.0
S1832 S 0.17168 0.46104 0.69403 0.0
N1833 N 0.17143 0.48112 0.72658 0.0
N1834 N 0.157 0.48881 0.66862 0.0
C1835 C 0.15164 0.51641 0.68628 0.0
C1836 C 0.15936 0.51225 0.71754 0.0
C1837 C 0.2316 0.40956 0.42069 0.0
C1838 C 0.26577 0.41106 0.42545 0.0
C1839 C 0.21796 0.39876 0.39314 0.0
C1840 C 0.23825 0.39022 0.36966 0.0
H1841 H 0.21555 0.41291 0.43927 0.0
H1842 H 0.19195 0.39358 0.39126 0.0
S1843 S 0.3287 0.39728 0.36961 0.0
N1844 N 0.3191 0.40819 0.40392 0.0
N1845 N 0.29367 0.38944 0.35135 0.0
C1846 C 0.27214 0.39633 0.37306 0.0
C1847 C 0.28596 0.40625 0.40134 0.0
C1848 C 0.40407 0.43849 0.52548 0.0
C1849 C 0.37018 0.44396 0.52505 0.0
C1850 C 0.425 0.45883 0.54303 0.0
C1851 C 0.41282 0.48544 0.56073 0.0
H1852 H 0.41462 0.41838 0.51219 0.0
H1853 H 0.45111 0.45463 0.5416 0.0
S1854 S 0.32612 0.51008 0.56798 0.0
N1855 N 0.32516 0.47769 0.54425 0.0
N1856 N 0.36512 0.516 0.57733 0.0
C1857 C 0.37904 0.49092 0.56098 0.0
C1858 C 0.35756 0.47016 0.54311 0.0
C1859 C 0.89914 0.04129 0.52736 0.0
C1860 C 0.89507 0.06944 0.50741 0.0
C1861 C 0.93009 0.02563 0.53275 0.0
C1862 C 0.95812 0.037 0.51795 0.0
H1863 H 0.87853 0.032 0.53965 0.0
H1864 H 0.9321 0.00472 0.54896 0.0
S1865 S 0.95979 0.10813 0.46158 0.0
N1866 N 0.92141 0.10684 0.47168 0.0
N1867 N 0.97883 0.07738 0.48115 0.0
C1868 C 0.95391 0.06434 0.49709 0.0
C1869 C 0.92266 0.08052 0.49201 0.0
C1870 C 0.698 0.14704 0.31212 0.0
C1871 C 0.71275 0.1154 0.32068 0.0
C1872 C 0.71564 0.17346 0.29846 0.0
C1873 C 0.74905 0.16985 0.29254 0.0
H1874 H 0.67232 0.15156 0.31567 0.0
H1875 H 0.70292 0.19731 0.29295 0.0
S1876 S 0.80007 0.09279 0.31104 0.0
N1877 N 0.76336 0.08229 0.32228 0.0
N1878 N 0.79652 0.13211 0.29698 0.0
C1879 C 0.76428 0.13839 0.30086 0.0
C1880 C 0.74622 0.1113 0.31484 0.0
C1881 C 0.69125 0.94072 0.06047 0.0
C1882 C 0.7146 0.94511 0.03843 0.0
C1883 C 0.66329 0.96135 0.06032 0.0
C1884 C 0.65782 0.98651 0.0379 0.0
H1885 H 0.69324 0.91951 0.07639 0.0
H1886 H 0.64461 0.95571 0.0763 0.0
S1887 S 0.71427 0.01317 0.97928 0.0
N1888 N 0.73305 0.98079 0.99696 0.0
N1889 N 0.6794 0.01852 0.99621 0.0
C1890 C 0.68222 0.99354 0.01769 0.0
C1891 C 0.71114 0.97316 0.01823 0.0
C1892 C 0.37079 0.4239 0.30612 0.0
C1893 C 0.40276 0.41874 0.31846 0.0
C1894 C 0.3518 0.3964 0.29503 0.0
C1895 C 0.36414 0.36264 0.29527 0.0
H1896 H 0.36025 0.44946 0.30481 0.0
H1897 H 0.32719 0.40161 0.28632 0.0
S1898 S 0.44562 0.33446 0.32599 0.0
N1899 N 0.44526 0.37643 0.33103 0.0
N1900 N 0.40984 0.3252 0.30979 0.0
C1901 C 0.39591 0.35695 0.30761 0.0
C1902 C 0.41507 0.38481 0.31934 0.0
C1903 C 0.2039 0.56947 0.02174 0.0
C1904 C 0.20186 0.59537 0.99931 0.0
C1905 C 0.17552 0.55376 0.03284 0.0
C1906 C 0.14384 0.56364 0.02235 0.0
H1907 H 0.22754 0.56207 0.03153 0.0
H1908 H 0.17841 0.53404 0.05008 0.0
S1909 S 0.12518 0.62694 0.96088 0.0
N1910 N 0.16542 0.62767 0.96511 0.0
N1911 N 0.11268 0.59883 0.98591 0.0
C1912 C 0.14164 0.58866 0.99918 0.0
C1913 C 0.17039 0.60428 0.98773 0.0
C1914 C 0.72068 0.89216 0.32274 0.0
C1915 C 0.73273 0.92422 0.3134 0.0
C1916 C 0.73722 0.8614 0.31675 0.0
C1917 C 0.7663 0.86125 0.3007 0.0
H1918 H 0.69832 0.89073 0.33499 0.0
H1919 H 0.72667 0.83746 0.3243 0.0
S1920 S 0.80825 0.93834 0.27115 0.0
N1921 N 0.77588 0.95395 0.28749 0.0
N1922 N 0.80654 0.89622 0.27574 0.0
C1923 C 0.77866 0.89315 0.29122 0.0
C1924 C 0.76203 0.92456 0.2977 0.0
C1925 C 0.85262 0.11329 0.78933 0.0
C1926 C 0.88306 0.11165 0.80512 0.0
C1927 C 0.83424 0.14364 0.7879 0.0
C1928 C 0.84538 0.17349 0.80247 0.0
H1929 H 0.84257 0.09076 0.77827 0.0
H1930 H 0.81104 0.14363 0.77533 0.0
S1931 S 0.92443 0.18352 0.84527 0.0
N1932 N 0.92421 0.14299 0.83458 0.0
N1933 N 0.88964 0.20019 0.83192 0.0
C1934 C 0.87607 0.17249 0.81791 0.0
C1935 C 0.89498 0.14157 0.81912 0.0
loop_
_geom_bond_atom_site_label_1
_geom_bond_atom_site_label_2
_geom_bond_distance
_geom_bond_site_symmetry_2
_ccdc_geom_bond_type
Co0 O1 2.216 . S
Co0 O2 2.091 . S
Co0 O4 2.004 . S
Co0 O10 2.021 . S
Co0 O12 2.137 . S
Co0 O13 2.244 . S
O1 Co0 2.216 . S
O1 C8 1.247 . S
O2 Co0 2.091 . S
O2 C8 1.261 . S
C3 O12 1.247 . S
C3 O13 1.272 . S
O4 Co0 2.004 . S
O4 C9 1.259 . S
Co5 O6 2.061 . S
Co5 O11 2.052 . S
Co5 O13 2.135 . S
O6 Co5 2.061 . S
O6 C9 1.235 . S
C7 O10 1.238 . S
C7 O11 1.241 . S
C8 O1 1.247 . S
C8 O2 1.261 . S
C9 O4 1.259 . S
C9 O6 1.235 . S
O10 Co0 2.021 . S
O10 C7 1.238 . S
O11 Co5 2.052 . S
O11 C7 1.241 . S
O12 Co0 2.137 . S
O12 C3 1.247 . S
O13 Co0 2.244 . S
O13 C3 1.272 . S
O13 Co5 2.135 . S
Co14 O15 2.216 . S
Co14 O16 2.091 . S
Co14 O18 2.004 . S
Co14 O24 2.021 . S
Co14 O26 2.137 . S
Co14 O27 2.244 . S
O15 Co14 2.216 . S
O15 C22 1.247 . S
O16 Co14 2.091 . S
O16 C22 1.261 . S
C17 O26 1.247 . S
C17 O27 1.272 . S
O18 Co14 2.004 . S
O18 C23 1.259 1_455 S
Co19 O20 2.061 . S
Co19 O25 2.052 1_655 S
Co19 O27 2.135 1_655 S
O20 Co19 2.061 . S
O20 C23 1.235 . S
C21 O24 1.238 . S
C21 O25 1.241 . S
C22 O15 1.247 . S
C22 O16 1.261 . S
C23 O18 1.259 1_655 S
C23 O20 1.235 . S
O24 Co14 2.021 . S
O24 C21 1.238 . S
O25 Co19 2.052 1_455 S
O25 C21 1.241 . S
O26 Co14 2.137 . S
O26 C17 1.247 . S
O27 Co14 2.244 . S
O27 C17 1.272 . S
O27 Co19 2.135 1_455 S
Co28 O29 2.216 . S
Co28 O30 2.091 . S
Co28 O32 2.004 . S
Co28 O38 2.021 . S
Co28 O40 2.137 . S
Co28 O41 2.244 . S
O29 Co28 2.216 . S
O29 C36 1.247 . S
O30 Co28 2.091 . S
O30 C36 1.261 . S
C31 O40 1.247 . S
C31 O41 1.272 . S
O32 Co28 2.004 . S
O32 C37 1.259 . S
Co33 O34 2.061 . S
Co33 O39 2.052 . S
Co33 O41 2.135 . S
O34 Co33 2.061 . S
O34 C37 1.235 . S
C35 O38 1.238 . S
C35 O39 1.241 . S
C36 O29 1.247 . S
C36 O30 1.261 . S
C37 O32 1.259 . S
C37 O34 1.235 . S
O38 Co28 2.021 . S
O38 C35 1.238 . S
O39 Co33 2.052 . S
O39 C35 1.241 . S
O40 Co28 2.137 . S
O40 C31 1.247 . S
O41 Co28 2.244 . S
O41 C31 1.272 . S
O41 Co33 2.135 . S
Co42 O43 2.216 . S
Co42 O44 2.091 . S
Co42 O46 2.004 . S
Co42 O52 2.021 . S
Co42 O54 2.137 . S
Co42 O55 2.244 . S
O43 Co42 2.216 . S
O43 C50 1.247 . S
O44 Co42 2.091 . S
O44 C50 1.261 . S
C45 O54 1.247 . S
C45 O55 1.272 . S
O46 Co42 2.004 . S
O46 C51 1.259 . S
Co47 O48 2.061 . S
Co47 O53 2.052 . S
Co47 O55 2.135 . S
O48 Co47 2.061 . S
O48 C51 1.235 . S
C49 O52 1.238 . S
C49 O53 1.241 . S
C50 O43 1.247 . S
C50 O44 1.261 . S
C51 O46 1.259 . S
C51 O48 1.235 . S
O52 Co42 2.021 . S
O52 C49 1.238 . S
O53 Co47 2.052 . S
O53 C49 1.241 . S
O54 Co42 2.137 . S
O54 C45 1.247 . S
O55 Co42 2.244 . S
O55 C45 1.272 . S
O55 Co47 2.135 . S
Co56 O57 2.216 1_545 S
Co56 O58 2.091 1_545 S
Co56 O60 2.004 . S
Co56 O66 2.021 . S
Co56 O68 2.137 . S
Co56 O69 2.244 . S
O57 Co56 2.216 1_565 S
O57 C64 1.247 . S
O58 Co56 2.091 1_565 S
O58 C64 1.261 . S
C59 O68 1.247 . S
C59 O69 1.272 . S
O60 Co56 2.004 . S
O60 C65 1.259 . S
Co61 O62 2.061 . S
Co61 O67 2.052 . S
Co61 O69 2.135 . S
O62 Co61 2.061 . S
O62 C65 1.235 . S
C63 O66 1.238 . S
C63 O67 1.241 . S
C64 O57 1.247 . S
C64 O58 1.261 . S
C65 O60 1.259 . S
C65 O62 1.235 . S
O66 Co56 2.021 . S
O66 C63 1.238 . S
O67 Co61 2.052 . S
O67 C63 1.241 . S
O68 Co56 2.137 . S
O68 C59 1.247 . S
O69 Co56 2.244 . S
O69 C59 1.272 . S
O69 Co61 2.135 . S
Co70 O71 2.216 . S
Co70 O72 2.091 . S
Co70 O74 2.004 . S
Co70 O80 2.021 . S
Co70 O82 2.137 . S
Co70 O83 2.244 . S
O71 Co70 2.216 . S
O71 C78 1.247 . S
O72 Co70 2.091 . S
O72 C78 1.261 . S
C73 O82 1.247 . S
C73 O83 1.272 . S
O74 Co70 2.004 . S
O74 C79 1.259 . S
Co75 O76 2.061 . S
Co75 O81 2.052 . S
Co75 O83 2.135 . S
O76 Co75 2.061 . S
O76 C79 1.235 . S
C77 O80 1.238 . S
C77 O81 1.241 . S
C78 O71 1.247 . S
C78 O72 1.261 . S
C79 O74 1.259 . S
C79 O76 1.235 . S
O80 Co70 2.021 . S
O80 C77 1.238 . S
O81 Co75 2.052 . S
O81 C77 1.241 . S
O82 Co70 2.137 . S
O82 C73 1.247 . S
O83 Co70 2.244 . S
O83 C73 1.272 . S
O83 Co75 2.135 . S
Co84 O85 2.216 . S
Co84 O86 2.091 . S
Co84 O88 2.004 1_545 S
Co84 O94 2.021 . S
Co84 O96 2.137 . S
Co84 O97 2.244 . S
O85 Co84 2.216 . S
O85 C92 1.247 . S
O86 Co84 2.091 . S
O86 C92 1.261 . S
C87 O96 1.247 . S
C87 O97 1.272 . S
O88 Co84 2.004 1_565 S
O88 C93 1.259 . S
Co89 O90 2.061 . S
Co89 O95 2.052 . S
Co89 O97 2.135 1_565 S
O90 Co89 2.061 . S
O90 C93 1.235 . S
C91 O94 1.238 . S
C91 O95 1.241 1_545 S
C92 O85 1.247 . S
C92 O86 1.261 . S
C93 O88 1.259 . S
C93 O90 1.235 . S
O94 Co84 2.021 . S
O94 C91 1.238 . S
O95 Co89 2.052 . S
O95 C91 1.241 1_565 S
O96 Co84 2.137 . S
O96 C87 1.247 . S
O97 Co84 2.244 . S
O97 C87 1.272 . S
O97 Co89 2.135 1_545 S
Co98 O99 2.216 . S
Co98 O100 2.091 . S
Co98 O102 2.004 . S
Co98 O108 2.021 . S
Co98 O110 2.137 1_554 S
Co98 O111 2.244 . S
O99 Co98 2.216 . S
O99 C106 1.247 . S
O100 Co98 2.091 . S
O100 C106 1.261 . S
C101 O110 1.247 . S
C101 O111 1.272 1_556 S
O102 Co98 2.004 . S
O102 C107 1.259 . S
Co103 O104 2.061 . S
Co103 O109 2.052 . S
Co103 O111 2.135 . S
O104 Co103 2.061 . S
O104 C107 1.235 . S
C105 O108 1.238 . S
C105 O109 1.241 . S
C106 O99 1.247 . S
C106 O100 1.261 . S
C107 O102 1.259 . S
C107 O104 1.235 . S
O108 Co98 2.021 . S
O108 C105 1.238 . S
O109 Co103 2.052 . S
O109 C105 1.241 . S
O110 Co98 2.137 1_556 S
O110 C101 1.247 . S
O111 Co98 2.244 . S
O111 C101 1.272 1_554 S
O111 Co103 2.135 . S
Co112 O113 2.216 . S
Co112 O114 2.091 . S
Co112 O116 2.004 . S
Co112 O122 2.021 . S
Co112 O124 2.137 . S
Co112 O125 2.244 . S
O113 Co112 2.216 . S
O113 C120 1.247 . S
O114 Co112 2.091 . S
O114 C120 1.261 . S
C115 O124 1.247 . S
C115 O125 1.272 . S
O116 Co112 2.004 . S
O116 C121 1.259 . S
Co117 O118 2.061 . S
Co117 O123 2.052 . S
Co117 O125 2.135 . S
O118 Co117 2.061 . S
O118 C121 1.235 . S
C119 O122 1.238 . S
C119 O123 1.241 . S
C120 O113 1.247 . S
C120 O114 1.261 . S
C121 O116 1.259 . S
C121 O118 1.235 . S
O122 Co112 2.021 . S
O122 C119 1.238 . S
O123 Co117 2.052 . S
O123 C119 1.241 . S
O124 Co112 2.137 . S
O124 C115 1.247 . S
O125 Co112 2.244 . S
O125 C115 1.272 . S
O125 Co117 2.135 . S
Co126 O127 2.216 . S
Co126 O128 2.091 . S
Co126 O130 2.004 . S
Co126 O136 2.021 . S
Co126 O138 2.137 . S
Co126 O139 2.244 . S
O127 Co126 2.216 . S
O127 C134 1.247 . S
O128 Co126 2.091 . S
O128 C134 1.261 . S
C129 O138 1.247 . S
C129 O139 1.272 . S
O130 Co126 2.004 . S
O130 C135 1.259 . S
Co131 O132 2.061 . S
Co131 O137 2.052 . S
Co131 O139 2.135 . S
O132 Co131 2.061 . S
O132 C135 1.235 . S
C133 O136 1.238 . S
C133 O137 1.241 . S
C134 O127 1.247 . S
C134 O128 1.261 . S
C135 O130 1.259 . S
C135 O132 1.235 . S
O136 Co126 2.021 . S
O136 C133 1.238 . S
O137 Co131 2.052 . S
O137 C133 1.241 . S
O138 Co126 2.137 . S
O138 C129 1.247 . S
O139 Co126 2.244 . S
O139 C129 1.272 . S
O139 Co131 2.135 . S
Co140 O141 2.216 . S
Co140 O142 2.091 . S
Co140 O144 2.004 . S
Co140 O150 2.021 . S
Co140 O152 2.137 . S
Co140 O153 2.244 . S
O141 Co140 2.216 . S
O141 C148 1.247 . S
O142 Co140 2.091 . S
O142 C148 1.261 . S
C143 O152 1.247 . S
C143 O153 1.272 . S
O144 Co140 2.004 . S
O144 C149 1.259 . S
Co145 O146 2.061 . S
Co145 O151 2.052 . S
Co145 O153 2.135 . S
O146 Co145 2.061 . S
O146 C149 1.235 . S
C147 O150 1.238 . S
C147 O151 1.241 . S
C148 O141 1.247 . S
C148 O142 1.261 . S
C149 O144 1.259 . S
C149 O146 1.235 . S
O150 Co140 2.021 . S
O150 C147 1.238 . S
O151 Co145 2.052 . S
O151 C147 1.241 . S
O152 Co140 2.137 . S
O152 C143 1.247 . S
O153 Co140 2.244 . S
O153 C143 1.272 . S
O153 Co145 2.135 . S
Co154 O155 2.216 . S
Co154 O156 2.091 . S
Co154 O158 2.004 . S
Co154 O164 2.021 . S
Co154 O166 2.137 . S
Co154 O167 2.244 . S
O155 Co154 2.216 . S
O155 C162 1.247 . S
O156 Co154 2.091 . S
O156 C162 1.261 . S
C157 O166 1.247 . S
C157 O167 1.272 . S
O158 Co154 2.004 . S
O158 C163 1.259 . S
Co159 O160 2.061 . S
Co159 O165 2.052 . S
Co159 O167 2.135 . S
O160 Co159 2.061 . S
O160 C163 1.235 . S
C161 O164 1.238 . S
C161 O165 1.241 . S
C162 O155 1.247 . S
C162 O156 1.261 . S
C163 O158 1.259 . S
C163 O160 1.235 . S
O164 Co154 2.021 . S
O164 C161 1.238 . S
O165 Co159 2.052 . S
O165 C161 1.241 . S
O166 Co154 2.137 . S
O166 C157 1.247 . S
O167 Co154 2.244 . S
O167 C157 1.272 . S
O167 Co159 2.135 . S
Co168 O169 2.216 . S
Co168 O170 2.091 . S
Co168 O172 2.004 1_455 S
Co168 O178 2.021 . S
Co168 O180 2.137 . S
Co168 O181 2.244 1_455 S
O169 Co168 2.216 . S
O169 C176 1.247 . S
O170 Co168 2.091 . S
O170 C176 1.261 . S
C171 O180 1.248 . S
C171 O181 1.271 1_455 S
O172 Co168 2.004 1_655 S
O172 C177 1.259 . S
Co173 O174 2.061 . S
Co173 O179 2.052 . S
Co173 O181 2.135 . S
O174 Co173 2.061 . S
O174 C177 1.235 . S
C175 O178 1.238 1_655 S
C175 O179 1.241 . S
C176 O169 1.247 . S
C176 O170 1.261 . S
C177 O172 1.259 . S
C177 O174 1.235 . S
O178 Co168 2.021 . S
O178 C175 1.238 1_455 S
O179 Co173 2.052 . S
O179 C175 1.241 . S
O180 Co168 2.137 . S
O180 C171 1.248 . S
O181 Co168 2.244 1_655 S
O181 C171 1.271 1_655 S
O181 Co173 2.135 . S
Co182 O183 2.216 1_455 S
Co182 O184 2.091 . S
Co182 O186 2.004 . S
Co182 O192 2.021 . S
Co182 O194 2.137 . S
Co182 O195 2.244 . S
O183 Co182 2.216 1_655 S
O183 C190 1.247 . S
O184 Co182 2.091 . S
O184 C190 1.261 1_455 S
C185 O194 1.247 . S
C185 O195 1.272 . S
O186 Co182 2.004 . S
O186 C191 1.259 . S
Co187 O188 2.061 . S
Co187 O193 2.052 . S
Co187 O195 2.135 . S
O188 Co187 2.061 . S
O188 C191 1.235 . S
C189 O192 1.238 . S
C189 O193 1.241 . S
C190 O183 1.247 . S
C190 O184 1.261 1_655 S
C191 O186 1.259 . S
C191 O188 1.235 . S
O192 Co182 2.021 . S
O192 C189 1.238 . S
O193 Co187 2.052 . S
O193 C189 1.241 . S
O194 Co182 2.137 . S
O194 C185 1.247 . S
O195 Co182 2.244 . S
O195 C185 1.272 . S
O195 Co187 2.135 . S
Co196 O197 2.216 . S
Co196 O198 2.091 . S
Co196 O200 2.004 . S
Co196 O206 2.021 . S
Co196 O208 2.137 . S
Co196 O209 2.244 . S
O197 Co196 2.216 . S
O197 C204 1.247 . S
O198 Co196 2.091 . S
O198 C204 1.261 . S
C199 O208 1.247 . S
C199 O209 1.272 . S
O200 Co196 2.004 . S
O200 C205 1.259 . S
Co201 O202 2.061 . S
Co201 O207 2.052 . S
Co201 O209 2.135 . S
O202 Co201 2.061 . S
O202 C205 1.235 . S
C203 O206 1.238 . S
C203 O207 1.241 . S
C204 O197 1.247 . S
C204 O198 1.261 . S
C205 O200 1.259 . S
C205 O202 1.235 . S
O206 Co196 2.021 . S
O206 C203 1.238 . S
O207 Co201 2.052 . S
O207 C203 1.241 . S
O208 Co196 2.137 . S
O208 C199 1.247 . S
O209 Co196 2.244 . S
O209 C199 1.272 . S
O209 Co201 2.135 . S
Co210 O211 2.216 . S
Co210 O212 2.091 . S
Co210 O214 2.004 . S
Co210 O220 2.021 . S
Co210 O222 2.137 . S
Co210 O223 2.244 . S
O211 Co210 2.216 . S
O211 C218 1.247 . S
O212 Co210 2.091 . S
O212 C218 1.261 . S
C213 O222 1.247 . S
C213 O223 1.272 . S
O214 Co210 2.004 . S
O214 C219 1.259 . S
Co215 O216 2.061 . S
Co215 O221 2.052 . S
Co215 O223 2.135 . S
O216 Co215 2.061 . S
O216 C219 1.235 . S
C217 O220 1.238 . S
C217 O221 1.241 . S
C218 O211 1.247 . S
C218 O212 1.261 . S
C219 O214 1.259 . S
C219 O216 1.235 . S
O220 Co210 2.021 . S
O220 C217 1.238 . S
O221 Co215 2.052 . S
O221 C217 1.241 . S
O222 Co210 2.137 . S
O222 C213 1.247 . S
O223 Co210 2.244 . S
O223 C213 1.272 . S
O223 Co215 2.135 . S
Co224 O225 2.216 . S
Co224 O226 2.091 . S
Co224 O228 2.004 1_545 S
Co224 O234 2.021 . S
Co224 O236 2.137 . S
Co224 O237 2.244 1_545 S
O225 Co224 2.216 . S
O225 C232 1.247 . S
O226 Co224 2.091 . S
O226 C232 1.261 . S
C227 O236 1.247 . S
C227 O237 1.272 1_545 S
O228 Co224 2.004 1_565 S
O228 C233 1.259 . S
Co229 O230 2.061 . S
Co229 O235 2.052 . S
Co229 O237 2.135 . S
O230 Co229 2.061 . S
O230 C233 1.235 . S
C231 O234 1.232 1_565 S
C231 O235 1.251 . S
C232 O225 1.247 . S
C232 O226 1.261 . S
C233 O228 1.259 . S
C233 O230 1.235 . S
O234 Co224 2.021 . S
O234 C231 1.232 1_545 S
O235 Co229 2.052 . S
O235 C231 1.251 . S
O236 Co224 2.137 . S
O236 C227 1.247 . S
O237 Co224 2.244 1_565 S
O237 C227 1.272 1_565 S
O237 Co229 2.135 . S
Co238 O239 2.216 . S
Co238 O240 2.091 . S
Co238 O242 2.004 . S
Co238 O248 2.021 . S
Co238 O250 2.137 . S
Co238 O251 2.244 . S
O239 Co238 2.216 . S
O239 C246 1.247 . S
O240 Co238 2.091 . S
O240 C246 1.261 . S
C241 O250 1.247 . S
C241 O251 1.272 . S
O242 Co238 2.004 . S
O242 C247 1.259 . S
Co243 O244 2.061 . S
Co243 O249 2.052 . S
Co243 O251 2.135 . S
O244 Co243 2.061 . S
O244 C247 1.235 . S
C245 O248 1.238 . S
C245 O249 1.241 . S
C246 O239 1.247 . S
C246 O240 1.261 . S
C247 O242 1.259 . S
C247 O244 1.235 . S
O248 Co238 2.021 . S
O248 C245 1.238 . S
O249 Co243 2.052 . S
O249 C245 1.241 . S
O250 Co238 2.137 . S
O250 C241 1.247 . S
O251 Co238 2.244 . S
O251 C241 1.272 . S
O251 Co243 2.135 . S
Co252 O253 2.216 1_545 S
Co252 O254 2.091 1_545 S
Co252 O256 2.004 . S
Co252 O262 2.021 . S
Co252 O264 2.137 . S
Co252 O265 2.244 . S
O253 Co252 2.216 1_565 S
O253 C260 1.247 . S
O254 Co252 2.091 1_565 S
O254 C260 1.261 . S
C255 O264 1.247 . S
C255 O265 1.272 . S
O256 Co252 2.004 . S
O256 C261 1.259 . S
Co257 O258 2.061 . S
Co257 O263 2.052 . S
Co257 O265 2.135 . S
O258 Co257 2.061 . S
O258 C261 1.235 . S
C259 O262 1.238 . S
C259 O263 1.241 . S
C260 O253 1.247 . S
C260 O254 1.261 . S
C261 O256 1.259 . S
C261 O258 1.235 . S
O262 Co252 2.021 . S
O262 C259 1.238 . S
O263 Co257 2.052 . S
O263 C259 1.241 . S
O264 Co252 2.137 . S
O264 C255 1.247 . S
O265 Co252 2.244 . S
O265 C255 1.272 . S
O265 Co257 2.135 . S
Co266 O267 2.216 . S
Co266 O268 2.091 . S
Co266 O270 2.004 . S
Co266 O276 2.021 . S
Co266 O278 2.137 1_554 S
Co266 O279 2.244 . S
O267 Co266 2.216 . S
O267 C274 1.247 . S
O268 Co266 2.091 . S
O268 C274 1.261 . S
C269 O278 1.247 . S
C269 O279 1.272 1_556 S
O270 Co266 2.004 . S
O270 C275 1.259 . S
Co271 O272 2.061 . S
Co271 O277 2.052 . S
Co271 O279 2.135 . S
O272 Co271 2.061 . S
O272 C275 1.235 . S
C273 O276 1.238 . S
C273 O277 1.241 . S
C274 O267 1.247 . S
C274 O268 1.261 . S
C275 O270 1.259 . S
C275 O272 1.235 . S
O276 Co266 2.021 . S
O276 C273 1.238 . S
O277 Co271 2.052 . S
O277 C273 1.241 . S
O278 Co266 2.137 1_556 S
O278 C269 1.247 . S
O279 Co266 2.244 . S
O279 C269 1.272 1_554 S
O279 Co271 2.135 . S
Co280 O281 2.216 . S
Co280 O282 2.091 1_556 S
Co280 O284 2.004 . S
Co280 O290 2.021 1_556 S
Co280 O292 2.137 . S
Co280 O293 2.244 . S
O281 Co280 2.216 . S
O281 C288 1.247 1_556 S
O282 Co280 2.091 1_554 S
O282 C288 1.261 . S
C283 O292 1.247 . S
C283 O293 1.272 . S
O284 Co280 2.004 . S
O284 C289 1.259 . S
Co285 O286 2.062 1_556 S
Co285 O291 2.052 1_556 S
Co285 O293 2.135 . S
O286 Co285 2.062 1_554 S
O286 C289 1.235 1_554 S
C287 O290 1.238 . S
C287 O291 1.241 . S
C288 O281 1.247 1_554 S
C288 O282 1.261 . S
C289 O284 1.259 . S
C289 O286 1.235 1_556 S
O290 Co280 2.021 1_554 S
O290 C287 1.238 . S
O291 Co285 2.052 1_554 S
O291 C287 1.241 . S
O292 Co280 2.137 . S
O292 C283 1.247 . S
O293 Co280 2.244 . S
O293 C283 1.272 . S
O293 Co285 2.135 . S
Co294 O295 2.216 . S
Co294 O296 2.091 . S
Co294 O298 2.004 . S
Co294 O304 2.021 . S
Co294 O306 2.137 . S
Co294 O307 2.244 . S
O295 Co294 2.216 . S
O295 C302 1.247 . S
O296 Co294 2.091 . S
O296 C302 1.261 . S
C297 O306 1.247 . S
C297 O307 1.272 . S
O298 Co294 2.004 . S
O298 C303 1.259 . S
Co299 O300 2.061 . S
Co299 O305 2.052 . S
Co299 O307 2.135 . S
O300 Co299 2.061 . S
O300 C303 1.235 . S
C301 O304 1.238 . S
C301 O305 1.241 . S
C302 O295 1.247 . S
C302 O296 1.261 . S
C303 O298 1.259 . S
C303 O300 1.235 . S
O304 Co294 2.021 . S
O304 C301 1.238 . S
O305 Co299 2.052 . S
O305 C301 1.241 . S
O306 Co294 2.137 . S
O306 C297 1.247 . S
O307 Co294 2.244 . S
O307 C297 1.272 . S
O307 Co299 2.135 . S
Co308 O309 2.216 . S
Co308 O310 2.091 . S
Co308 O312 2.004 . S
Co308 O318 2.021 . S
Co308 O320 2.137 . S
Co308 O321 2.244 . S
O309 Co308 2.216 . S
O309 C316 1.247 . S
O310 Co308 2.091 . S
O310 C316 1.261 . S
C311 O320 1.247 . S
C311 O321 1.272 . S
O312 Co308 2.004 . S
O312 C317 1.259 . S
Co313 O314 2.061 . S
Co313 O319 2.052 . S
Co313 O321 2.135 . S
O314 Co313 2.061 . S
O314 C317 1.235 . S
C315 O318 1.238 . S
C315 O319 1.241 . S
C316 O309 1.247 . S
C316 O310 1.261 . S
C317 O312 1.259 . S
C317 O314 1.235 . S
O318 Co308 2.021 . S
O318 C315 1.238 . S
O319 Co313 2.052 . S
O319 C315 1.241 . S
O320 Co308 2.137 . S
O320 C311 1.247 . S
O321 Co308 2.244 . S
O321 C311 1.272 . S
O321 Co313 2.135 . S
Co322 O323 2.216 . S
Co322 O324 2.091 . S
Co322 O326 2.004 . S
Co322 O332 2.021 . S
Co322 O334 2.137 . S
Co322 O335 2.244 . S
O323 Co322 2.216 . S
O323 C330 1.247 . S
O324 Co322 2.091 . S
O324 C330 1.261 . S
C325 O334 1.247 . S
C325 O335 1.272 . S
O326 Co322 2.004 . S
O326 C331 1.259 . S
Co327 O328 2.061 . S
Co327 O333 2.052 . S
Co327 O335 2.135 . S
O328 Co327 2.061 . S
O328 C331 1.235 . S
C329 O332 1.238 . S
C329 O333 1.241 . S
C330 O323 1.247 . S
C330 O324 1.261 . S
C331 O326 1.259 . S
C331 O328 1.235 . S
O332 Co322 2.021 . S
O332 C329 1.238 . S
O333 Co327 2.052 . S
O333 C329 1.241 . S
O334 Co322 2.137 . S
O334 C325 1.247 . S
O335 Co322 2.244 . S
O335 C325 1.272 . S
O335 Co327 2.135 . S
C336 O352 1.256 1_455 S
C336 O354 1.254 . S
N337 C338 1.333 1_565 S
N337 C342 1.307 . S
N337 Zn343 2.020 1_665 S
C338 N337 1.333 1_545 S
C338 C339 1.379 . S
C338 H356 0.952 . S
C339 C338 1.379 . S
C339 C340 1.390 1_545 S
C339 H366 0.949 . S
C340 C339 1.390 1_565 S
C340 C341 1.357 . S
C341 C340 1.357 . S
C341 C342 1.370 . S
C341 H367 0.950 . S
C342 N337 1.307 . S
C342 C341 1.370 . S
C342 H360 0.948 . S
Zn343 N337 2.020 1_445 S
Zn343 O352 2.032 1_454 S
Zn343 O358 2.034 . S
Zn343 O362 2.025 1_545 S
Zn343 O364 2.024 1_545 S
C344 O363 1.246 . S
C344 O364 1.249 . S
N345 C346 1.307 1_554 S
N345 C347 1.333 . S
N345 Zn351 2.020 . S
C346 N345 1.307 1_556 S
C346 C350 1.370 . S
C346 H357 0.948 . S
C347 N345 1.333 . S
C347 C348 1.379 . S
C347 H355 0.952 . S
C348 C347 1.379 . S
C348 C349 1.387 . S
C348 H368 0.949 . S
C349 C348 1.387 . S
C349 C350 1.358 1_554 S
C350 C346 1.370 . S
C350 C349 1.358 1_556 S
C350 H369 0.950 . S
Zn351 N345 2.020 . S
Zn351 O354 2.025 1_554 S
Zn351 O359 2.024 . S
Zn351 O361 2.039 . S
Zn351 O363 2.034 1_545 S
O352 C336 1.256 1_655 S
O352 Zn343 2.032 1_656 S
C353 O358 1.246 . S
C353 O359 1.249 . S
O354 C336 1.254 . S
O354 Zn351 2.025 1_556 S
H355 C347 0.952 . S
H356 C338 0.952 . S
H357 C346 0.948 . S
O358 Zn343 2.034 . S
O358 C353 1.246 . S
O359 Zn351 2.024 . S
O359 C353 1.249 . S
H360 C342 0.948 . S
O361 Zn351 2.039 . S
O361 C365 1.251 1_545 S
O362 Zn343 2.025 1_565 S
O362 C365 1.254 . S
O363 C344 1.246 . S
O363 Zn351 2.034 1_565 S
O364 Zn343 2.024 1_565 S
O364 C344 1.249 . S
C365 O361 1.251 1_565 S
C365 O362 1.254 . S
H366 C339 0.949 . S
H367 C341 0.950 . S
H368 C348 0.949 . S
H369 C350 0.950 . S
C370 O386 1.251 . S
C370 O388 1.254 . S
N371 C372 1.333 . S
N371 C376 1.307 . S
N371 Zn377 2.020 . S
C372 N371 1.333 . S
C372 C373 1.379 . S
C372 H390 0.952 . S
C373 C372 1.379 . S
C373 C374 1.390 . S
C373 H400 0.949 . S
C374 C373 1.390 . S
C374 C375 1.357 . S
C375 C374 1.357 . S
C375 C376 1.370 . S
C375 H401 0.950 . S
C376 N371 1.307 . S
C376 C375 1.370 . S
C376 H394 0.948 . S
Zn377 N371 2.020 . S
Zn377 O386 2.039 . S
Zn377 O392 2.034 . S
Zn377 O396 2.025 . S
Zn377 O398 2.024 . S
C378 O397 1.246 . S
C378 O398 1.249 . S
N379 C380 1.307 . S
N379 C381 1.333 . S
N379 Zn385 2.020 . S
C380 N379 1.307 . S
C380 C384 1.370 . S
C380 H391 0.948 . S
C381 N379 1.333 . S
C381 C382 1.379 . S
C381 H389 0.952 . S
C382 C381 1.379 . S
C382 C383 1.390 . S
C382 H402 0.949 . S
C383 C382 1.390 . S
C383 C384 1.357 . S
C384 C380 1.370 . S
C384 C383 1.357 . S
C384 H403 0.950 . S
Zn385 N379 2.020 . S
Zn385 O388 2.025 . S
Zn385 O393 2.024 . S
Zn385 O395 2.039 . S
Zn385 O397 2.034 . S
O386 C370 1.251 . S
O386 Zn377 2.039 . S
C387 O392 1.246 . S
C387 O393 1.249 . S
O388 C370 1.254 . S
O388 Zn385 2.025 . S
H389 C381 0.952 . S
H390 C372 0.952 . S
H391 C380 0.948 . S
O392 Zn377 2.034 . S
O392 C387 1.246 . S
O393 Zn385 2.024 . S
O393 C387 1.249 . S
H394 C376 0.948 . S
O395 Zn385 2.039 . S
O395 C399 1.251 . S
O396 Zn377 2.025 . S
O396 C399 1.254 . S
O397 C378 1.246 . S
O397 Zn385 2.034 . S
O398 Zn377 2.024 . S
O398 C378 1.249 . S
C399 O395 1.251 . S
C399 O396 1.254 . S
H400 C373 0.949 . S
H401 C375 0.950 . S
H402 C382 0.949 . S
H403 C384 0.950 . S
C404 O420 1.249 . S
C404 O422 1.254 . S
N405 C406 1.333 . S
N405 C410 1.307 . S
N405 Zn411 2.020 . S
C406 N405 1.333 . S
C406 C407 1.379 . S
C406 H424 0.952 . S
C407 C406 1.379 . S
C407 C408 1.390 . S
C407 H434 0.949 . S
C408 C407 1.390 . S
C408 C409 1.357 . S
C409 C408 1.357 . S
C409 C410 1.370 . S
C409 H435 0.950 . S
C410 N405 1.307 . S
C410 C409 1.370 . S
C410 H428 0.948 . S
Zn411 N405 2.020 . S
Zn411 O420 2.040 1_565 S
Zn411 O426 2.034 1_565 S
Zn411 O430 2.025 . S
Zn411 O432 2.024 . S
C412 O431 1.246 1_565 S
C412 O432 1.249 . S
N413 C414 1.307 . S
N413 C415 1.333 . S
N413 Zn419 2.020 . S
C414 N413 1.307 . S
C414 C418 1.370 . S
C414 H425 0.948 . S
C415 N413 1.333 . S
C415 C416 1.379 . S
C415 H423 0.952 . S
C416 C415 1.379 . S
C416 C417 1.390 . S
C416 H436 0.949 . S
C417 C416 1.390 . S
C417 C418 1.357 . S
C418 C414 1.370 . S
C418 C417 1.357 . S
C418 H437 0.950 . S
Zn419 N413 2.020 . S
Zn419 O422 2.025 . S
Zn419 O427 2.024 . S
Zn419 O429 2.039 . S
Zn419 O431 2.034 . S
O420 C404 1.249 . S
O420 Zn411 2.040 1_545 S
C421 O426 1.246 . S
C421 O427 1.249 . S
O422 C404 1.254 . S
O422 Zn419 2.025 . S
H423 C415 0.952 . S
H424 C406 0.952 . S
H425 C414 0.948 . S
O426 Zn411 2.034 1_545 S
O426 C421 1.246 . S
O427 Zn419 2.024 . S
O427 C421 1.249 . S
H428 C410 0.948 . S
O429 Zn419 2.039 . S
O429 C433 1.273 . S
O430 Zn411 2.025 . S
O430 C433 1.236 1_565 S
O431 C412 1.246 1_545 S
O431 Zn419 2.034 . S
O432 Zn411 2.024 . S
O432 C412 1.249 . S
C433 O429 1.273 . S
C433 O430 1.236 1_545 S
H434 C407 0.949 . S
H435 C409 0.950 . S
H436 C416 0.949 . S
H437 C418 0.950 . S
C438 O454 1.251 . S
C438 O456 1.254 . S
N439 C440 1.333 . S
N439 C444 1.307 . S
N439 Zn445 2.020 . S
C440 N439 1.333 . S
C440 C441 1.379 . S
C440 H458 0.952 . S
C441 C440 1.379 . S
C441 C442 1.390 . S
C441 H468 0.949 . S
C442 C441 1.390 . S
C442 C443 1.357 . S
C443 C442 1.357 . S
C443 C444 1.370 . S
C443 H469 0.950 . S
C444 N439 1.307 . S
C444 C443 1.370 . S
C444 H462 0.948 . S
Zn445 N439 2.020 . S
Zn445 O454 2.039 . S
Zn445 O460 2.034 . S
Zn445 O464 2.025 . S
Zn445 O466 2.024 . S
C446 O465 1.246 . S
C446 O466 1.249 . S
N447 C448 1.307 . S
N447 C449 1.333 . S
N447 Zn453 2.020 . S
C448 N447 1.307 . S
C448 C452 1.370 . S
C448 H459 0.948 . S
C449 N447 1.333 . S
C449 C450 1.379 . S
C449 H457 0.952 . S
C450 C449 1.379 . S
C450 C451 1.390 . S
C450 H470 0.949 . S
C451 C450 1.390 . S
C451 C452 1.357 . S
C452 C448 1.370 . S
C452 C451 1.357 . S
C452 H471 0.950 . S
Zn453 N447 2.020 . S
Zn453 O456 2.025 . S
Zn453 O461 2.024 . S
Zn453 O463 2.039 . S
Zn453 O465 2.034 . S
O454 C438 1.251 . S
O454 Zn445 2.039 . S
C455 O460 1.246 . S
C455 O461 1.249 . S
O456 C438 1.254 . S
O456 Zn453 2.025 . S
H457 C449 0.952 . S
H458 C440 0.952 . S
H459 C448 0.948 . S
O460 Zn445 2.034 . S
O460 C455 1.246 . S
O461 Zn453 2.024 . S
O461 C455 1.249 . S
H462 C444 0.948 . S
O463 Zn453 2.039 . S
O463 C467 1.251 . S
O464 Zn445 2.025 . S
O464 C467 1.254 . S
O465 C446 1.246 . S
O465 Zn453 2.034 . S
O466 Zn445 2.024 . S
O466 C446 1.249 . S
C467 O463 1.251 . S
C467 O464 1.254 . S
H468 C441 0.949 . S
H469 C443 0.950 . S
H470 C450 0.949 . S
H471 C452 0.950 . S
C472 O488 1.251 1_565 S
C472 O490 1.254 . S
N473 C474 1.333 . S
N473 C478 1.307 . S
N473 Zn479 2.020 . S
C474 N473 1.333 . S
C474 C475 1.379 . S
C474 H492 0.952 . S
C475 C474 1.379 . S
C475 C476 1.390 . S
C475 H502 0.949 . S
C476 C475 1.390 . S
C476 C477 1.357 . S
C477 C476 1.357 . S
C477 C478 1.370 . S
C477 H503 0.950 . S
C478 N473 1.307 . S
C478 C477 1.370 . S
C478 H496 0.948 . S
Zn479 N473 2.020 . S
Zn479 O488 2.039 . S
Zn479 O494 2.034 . S
Zn479 O498 2.025 . S
Zn479 O500 2.024 1_545 S
C480 O499 1.246 . S
C480 O500 1.249 . S
N481 C482 1.307 . S
N481 C483 1.333 1_455 S
N481 Zn487 2.020 1_565 S
C482 N481 1.307 . S
C482 C486 1.370 . S
C482 H493 0.948 . S
C483 N481 1.333 1_655 S
C483 C484 1.379 . S
C483 H491 0.952 . S
C484 C483 1.379 . S
C484 C485 1.390 . S
C484 H504 0.949 . S
C485 C484 1.390 . S
C485 C486 1.357 1_655 S
C486 C482 1.370 . S
C486 C485 1.357 1_455 S
C486 H505 0.950 . S
Zn487 N481 2.020 1_545 S
Zn487 O490 2.025 1_545 S
Zn487 O495 2.024 . S
Zn487 O497 2.039 1_455 S
Zn487 O499 2.034 1_545 S
O488 C472 1.251 1_545 S
O488 Zn479 2.039 . S
C489 O494 1.246 . S
C489 O495 1.249 . S
O490 C472 1.254 . S
O490 Zn487 2.025 1_565 S
H491 C483 0.952 . S
H492 C474 0.952 . S
H493 C482 0.948 . S
O494 Zn479 2.034 . S
O494 C489 1.246 . S
O495 Zn487 2.024 . S
O495 C489 1.249 . S
H496 C478 0.948 . S
O497 Zn487 2.039 1_655 S
O497 C501 1.251 . S
O498 Zn479 2.025 . S
O498 C501 1.254 1_455 S
O499 C480 1.246 . S
O499 Zn487 2.034 1_565 S
O500 Zn479 2.024 1_565 S
O500 C480 1.249 . S
C501 O497 1.251 . S
C501 O498 1.254 1_655 S
H502 C475 0.949 . S
H503 C477 0.950 . S
H504 C484 0.949 . S
H505 C486 0.950 . S
C506 O522 1.251 . S
C506 O524 1.254 . S
N507 C508 1.333 . S
N507 C512 1.307 . S
N507 Zn513 2.020 . S
C508 N507 1.333 . S
C508 C509 1.379 . S
C508 H526 0.952 . S
C509 C508 1.379 . S
C509 C510 1.390 . S
C509 H536 0.949 . S
C510 C509 1.390 . S
C510 C511 1.357 . S
C511 C510 1.357 . S
C511 C512 1.370 . S
C511 H537 0.950 . S
C512 N507 1.307 . S
C512 C511 1.370 . S
C512 H530 0.948 . S
Zn513 N507 2.020 . S
Zn513 O522 2.039 . S
Zn513 O528 2.034 . S
Zn513 O532 2.025 . S
Zn513 O534 2.024 . S
C514 O533 1.246 . S
C514 O534 1.249 . S
N515 C516 1.307 . S
N515 C517 1.333 . S
N515 Zn521 2.020 . S
C516 N515 1.307 . S
C516 C520 1.370 . S
C516 H527 0.948 . S
C517 N515 1.333 . S
C517 C518 1.379 . S
C517 H525 0.952 . S
C518 C517 1.379 . S
C518 C519 1.390 . S
C518 H538 0.949 . S
C519 C518 1.390 . S
C519 C520 1.357 . S
C520 C516 1.370 . S
C520 C519 1.357 . S
C520 H539 0.950 . S
Zn521 N515 2.020 . S
Zn521 O524 2.025 . S
Zn521 O529 2.024 . S
Zn521 O531 2.039 . S
Zn521 O533 2.034 . S
O522 C506 1.251 . S
O522 Zn513 2.039 . S
C523 O528 1.246 . S
C523 O529 1.249 . S
O524 C506 1.254 . S
O524 Zn521 2.025 . S
H525 C517 0.952 . S
H526 C508 0.952 . S
H527 C516 0.948 . S
O528 Zn513 2.034 . S
O528 C523 1.246 . S
O529 Zn521 2.024 . S
O529 C523 1.249 . S
H530 C512 0.948 . S
O531 Zn521 2.039 . S
O531 C535 1.251 . S
O532 Zn513 2.025 . S
O532 C535 1.254 . S
O533 C514 1.246 . S
O533 Zn521 2.034 . S
O534 Zn513 2.024 . S
O534 C514 1.249 . S
C535 O531 1.251 . S
C535 O532 1.254 . S
H536 C509 0.949 . S
H537 C511 0.950 . S
H538 C518 0.949 . S
H539 C520 0.950 . S
C540 O556 1.251 . S
C540 O558 1.254 . S
N541 C542 1.333 . S
N541 C546 1.307 . S
N541 Zn547 2.020 . S
C542 N541 1.333 . S
C542 C543 1.379 . S
C542 H560 0.952 . S
C543 C542 1.379 . S
C543 C544 1.390 . S
C543 H570 0.949 . S
C544 C543 1.390 . S
C544 C545 1.357 . S
C545 C544 1.357 . S
C545 C546 1.370 . S
C545 H571 0.950 . S
C546 N541 1.307 . S
C546 C545 1.370 . S
C546 H564 0.948 . S
Zn547 N541 2.020 . S
Zn547 O556 2.039 1_545 S
Zn547 O562 2.034 . S
Zn547 O566 2.025 . S
Zn547 O568 2.024 . S
C548 O567 1.246 . S
C548 O568 1.249 1_565 S
N549 C550 1.307 . S
N549 C551 1.333 1_565 S
N549 Zn555 2.020 1_566 S
C550 N549 1.307 . S
C550 C554 1.370 . S
C550 H561 0.948 . S
C551 N549 1.333 1_545 S
C551 C552 1.379 1_545 S
C551 H559 0.952 . S
C552 C551 1.379 1_565 S
C552 C553 1.390 . S
C552 H572 0.949 1_565 S
C553 C552 1.390 . S
C553 C554 1.357 . S
C554 C550 1.370 . S
C554 C553 1.357 . S
C554 H573 0.950 . S
Zn555 N549 2.020 1_544 S
Zn555 O558 2.025 1_545 S
Zn555 O563 2.024 . S
Zn555 O565 2.039 1_554 S
Zn555 O567 2.034 1_545 S
O556 C540 1.251 . S
O556 Zn547 2.039 1_565 S
C557 O562 1.246 . S
C557 O563 1.249 . S
O558 C540 1.254 . S
O558 Zn555 2.025 1_565 S
H559 C551 0.952 . S
H560 C542 0.952 . S
H561 C550 0.948 . S
O562 Zn547 2.034 . S
O562 C557 1.246 . S
O563 Zn555 2.024 . S
O563 C557 1.249 . S
H564 C546 0.948 . S
O565 Zn555 2.039 1_556 S
O565 C569 1.251 1_556 S
O566 Zn547 2.025 . S
O566 C569 1.254 . S
O567 C548 1.246 . S
O567 Zn555 2.034 1_565 S
O568 Zn547 2.024 . S
O568 C548 1.249 1_545 S
C569 O565 1.251 1_554 S
C569 O566 1.254 . S
H570 C543 0.949 . S
H571 C545 0.950 . S
H572 C552 0.949 1_545 S
H573 C554 0.950 . S
C574 O590 1.251 . S
C574 O592 1.254 . S
N575 C576 1.333 . S
N575 C580 1.307 . S
N575 Zn581 2.020 . S
C576 N575 1.333 . S
C576 C577 1.379 . S
C576 H594 0.952 . S
C577 C576 1.379 . S
C577 C578 1.390 . S
C577 H604 0.949 . S
C578 C577 1.390 . S
C578 C579 1.357 . S
C579 C578 1.357 . S
C579 C580 1.370 . S
C579 H605 0.950 . S
C580 N575 1.307 . S
C580 C579 1.370 . S
C580 H598 0.948 . S
Zn581 N575 2.020 . S
Zn581 O590 2.039 . S
Zn581 O596 2.034 . S
Zn581 O600 2.025 . S
Zn581 O602 2.024 . S
C582 O601 1.246 . S
C582 O602 1.249 . S
N583 C584 1.307 . S
N583 C585 1.333 . S
N583 Zn589 2.020 . S
C584 N583 1.307 . S
C584 C588 1.370 . S
C584 H595 0.948 . S
C585 N583 1.333 . S
C585 C586 1.379 . S
C585 H593 0.952 . S
C586 C585 1.379 . S
C586 C587 1.390 . S
C586 H606 0.949 . S
C587 C586 1.390 . S
C587 C588 1.357 . S
C588 C584 1.370 . S
C588 C587 1.357 . S
C588 H607 0.950 . S
Zn589 N583 2.020 . S
Zn589 O592 2.025 . S
Zn589 O597 2.024 . S
Zn589 O599 2.039 . S
Zn589 O601 2.034 . S
O590 C574 1.251 . S
O590 Zn581 2.039 . S
C591 O596 1.246 . S
C591 O597 1.249 . S
O592 C574 1.254 . S
O592 Zn589 2.025 . S
H593 C585 0.952 . S
H594 C576 0.952 . S
H595 C584 0.948 . S
O596 Zn581 2.034 . S
O596 C591 1.246 . S
O597 Zn589 2.024 . S
O597 C591 1.249 . S
H598 C580 0.948 . S
O599 Zn589 2.039 . S
O599 C603 1.251 . S
O600 Zn581 2.025 . S
O600 C603 1.254 . S
O601 C582 1.246 . S
O601 Zn589 2.034 . S
O602 Zn581 2.024 . S
O602 C582 1.249 . S
C603 O599 1.251 . S
C603 O600 1.254 . S
H604 C577 0.949 . S
H605 C579 0.950 . S
H606 C586 0.949 . S
H607 C588 0.950 . S
C608 O624 1.251 . S
C608 O626 1.254 . S
N609 C610 1.333 . S
N609 C614 1.307 . S
N609 Zn615 2.020 1_556 S
C610 N609 1.333 . S
C610 C611 1.379 . S
C610 H628 0.952 . S
C611 C610 1.379 . S
C611 C612 1.390 . S
C611 H638 0.949 . S
C612 C611 1.390 . S
C612 C613 1.357 . S
C613 C612 1.357 . S
C613 C614 1.370 . S
C613 H639 0.950 . S
C614 N609 1.307 . S
C614 C613 1.370 . S
C614 H632 0.948 . S
Zn615 N609 2.020 1_554 S
Zn615 O624 2.039 . S
Zn615 O630 2.034 . S
Zn615 O634 2.025 . S
Zn615 O636 2.024 1_554 S
C616 O635 1.246 . S
C616 O636 1.249 1_554 S
N617 C618 1.307 . S
N617 C619 1.333 . S
N617 Zn623 2.020 . S
C618 N617 1.307 . S
C618 C622 1.370 . S
C618 H629 0.948 . S
C619 N617 1.333 . S
C619 C620 1.379 . S
C619 H627 0.952 . S
C620 C619 1.379 . S
C620 C621 1.390 . S
C620 H640 0.949 . S
C621 C620 1.390 . S
C621 C622 1.357 . S
C622 C618 1.370 . S
C622 C621 1.357 . S
C622 H641 0.950 . S
Zn623 N617 2.020 . S
Zn623 O626 2.025 . S
Zn623 O631 2.024 . S
Zn623 O633 2.039 . S
Zn623 O635 2.034 . S
O624 C608 1.251 . S
O624 Zn615 2.039 . S
C625 O630 1.246 . S
C625 O631 1.249 . S
O626 C608 1.254 . S
O626 Zn623 2.025 . S
H627 C619 0.952 . S
H628 C610 0.952 . S
H629 C618 0.948 . S
O630 Zn615 2.034 . S
O630 C625 1.246 . S
O631 Zn623 2.024 . S
O631 C625 1.249 . S
H632 C614 0.948 . S
O633 Zn623 2.039 . S
O633 C637 1.251 . S
O634 Zn615 2.025 . S
O634 C637 1.253 . S
O635 C616 1.246 . S
O635 Zn623 2.034 . S
O636 Zn615 2.024 1_556 S
O636 C616 1.249 1_556 S
C637 O633 1.251 . S
C637 O634 1.253 . S
H638 C611 0.949 . S
H639 C613 0.950 . S
H640 C620 0.949 . S
H641 C622 0.950 . S
C642 O658 1.251 . S
C642 O660 1.254 . S
N643 C644 1.333 . S
N643 C648 1.307 . S
N643 Zn649 2.020 . S
C644 N643 1.333 . S
C644 C645 1.379 . S
C644 H662 0.952 . S
C645 C644 1.379 . S
C645 C646 1.390 . S
C645 H672 0.949 . S
C646 C645 1.390 . S
C646 C647 1.357 . S
C647 C646 1.357 . S
C647 C648 1.370 . S
C647 H673 0.950 . S
C648 N643 1.307 . S
C648 C647 1.370 . S
C648 H666 0.948 . S
Zn649 N643 2.020 . S
Zn649 O658 2.039 . S
Zn649 O664 2.034 . S
Zn649 O668 2.025 . S
Zn649 O670 2.024 . S
C650 O669 1.246 . S
C650 O670 1.249 . S
N651 C652 1.307 . S
N651 C653 1.333 . S
N651 Zn657 2.020 . S
C652 N651 1.307 . S
C652 C656 1.370 . S
C652 H663 0.948 . S
C653 N651 1.333 . S
C653 C654 1.379 . S
C653 H661 0.952 . S
C654 C653 1.379 . S
C654 C655 1.390 . S
C654 H674 0.949 . S
C655 C654 1.390 . S
C655 C656 1.357 . S
C656 C652 1.370 . S
C656 C655 1.357 . S
C656 H675 0.950 . S
Zn657 N651 2.020 . S
Zn657 O660 2.025 . S
Zn657 O665 2.024 . S
Zn657 O667 2.039 . S
Zn657 O669 2.034 . S
O658 C642 1.251 . S
O658 Zn649 2.039 . S
C659 O664 1.246 . S
C659 O665 1.249 . S
O660 C642 1.254 . S
O660 Zn657 2.025 . S
H661 C653 0.952 . S
H662 C644 0.952 . S
H663 C652 0.948 . S
O664 Zn649 2.034 . S
O664 C659 1.246 . S
O665 Zn657 2.024 . S
O665 C659 1.249 . S
H666 C648 0.948 . S
O667 Zn657 2.039 . S
O667 C671 1.251 . S
O668 Zn649 2.025 . S
O668 C671 1.254 . S
O669 C650 1.246 . S
O669 Zn657 2.034 . S
O670 Zn649 2.024 . S
O670 C650 1.249 . S
C671 O667 1.251 . S
C671 O668 1.254 . S
H672 C645 0.949 . S
H673 C647 0.950 . S
H674 C654 0.949 . S
H675 C656 0.950 . S
C676 O692 1.251 . S
C676 O694 1.254 . S
N677 C678 1.333 . S
N677 C682 1.307 . S
N677 Zn683 2.020 . S
C678 N677 1.333 . S
C678 C679 1.379 . S
C678 H696 0.952 . S
C679 C678 1.379 . S
C679 C680 1.390 . S
C679 H706 0.949 . S
C680 C679 1.390 . S
C680 C681 1.357 . S
C681 C680 1.357 . S
C681 C682 1.370 . S
C681 H707 0.950 . S
C682 N677 1.307 . S
C682 C681 1.370 . S
C682 H700 0.948 . S
Zn683 N677 2.020 . S
Zn683 O692 2.039 . S
Zn683 O698 2.034 . S
Zn683 O702 2.025 . S
Zn683 O704 2.024 . S
C684 O703 1.246 . S
C684 O704 1.249 . S
N685 C686 1.307 1_455 S
N685 C687 1.333 . S
N685 Zn691 2.020 . S
C686 N685 1.307 1_655 S
C686 C690 1.370 . S
C686 H697 0.948 . S
C687 N685 1.333 . S
C687 C688 1.379 . S
C687 H695 0.952 . S
C688 C687 1.379 . S
C688 C689 1.390 1_455 S
C688 H708 0.949 . S
C689 C688 1.390 1_655 S
C689 C690 1.357 . S
C690 C686 1.370 . S
C690 C689 1.357 . S
C690 H709 0.950 . S
Zn691 N685 2.020 . S
Zn691 O694 2.025 . S
Zn691 O699 2.024 1_455 S
Zn691 O701 2.039 . S
Zn691 O703 2.034 . S
O692 C676 1.251 . S
O692 Zn683 2.039 . S
C693 O698 1.246 1_655 S
C693 O699 1.249 . S
O694 C676 1.254 . S
O694 Zn691 2.025 . S
H695 C687 0.952 . S
H696 C678 0.952 . S
H697 C686 0.948 . S
O698 Zn683 2.034 . S
O698 C693 1.246 1_455 S
O699 Zn691 2.024 1_655 S
O699 C693 1.249 . S
H700 C682 0.948 . S
O701 Zn691 2.039 . S
O701 C705 1.251 . S
O702 Zn683 2.025 . S
O702 C705 1.254 . S
O703 C684 1.246 . S
O703 Zn691 2.034 . S
O704 Zn683 2.024 . S
O704 C684 1.249 . S
C705 O701 1.251 . S
C705 O702 1.254 . S
H706 C679 0.949 . S
H707 C681 0.950 . S
H708 C688 0.949 . S
H709 C690 0.950 . S
C710 O726 1.251 . S
C710 O728 1.254 . S
N711 C712 1.333 . S
N711 C716 1.307 . S
N711 Zn717 2.020 . S
C712 N711 1.333 . S
C712 C713 1.379 . S
C712 H730 0.952 . S
C713 C712 1.379 . S
C713 C714 1.390 . S
C713 H740 0.949 . S
C714 C713 1.390 . S
C714 C715 1.357 . S
C715 C714 1.357 . S
C715 C716 1.370 . S
C715 H741 0.950 . S
C716 N711 1.307 . S
C716 C715 1.370 . S
C716 H734 0.948 . S
Zn717 N711 2.020 . S
Zn717 O726 2.039 . S
Zn717 O732 2.034 . S
Zn717 O736 2.025 . S
Zn717 O738 2.024 . S
C718 O737 1.246 . S
C718 O738 1.249 . S
N719 C720 1.307 . S
N719 C721 1.333 . S
N719 Zn725 2.020 . S
C720 N719 1.307 . S
C720 C724 1.370 . S
C720 H731 0.948 . S
C721 N719 1.333 . S
C721 C722 1.379 . S
C721 H729 0.952 . S
C722 C721 1.379 . S
C722 C723 1.390 . S
C722 H742 0.949 . S
C723 C722 1.390 . S
C723 C724 1.357 . S
C724 C720 1.370 . S
C724 C723 1.357 . S
C724 H743 0.950 . S
Zn725 N719 2.020 . S
Zn725 O728 2.025 . S
Zn725 O733 2.024 . S
Zn725 O735 2.039 . S
Zn725 O737 2.034 . S
O726 C710 1.251 . S
O726 Zn717 2.039 . S
C727 O732 1.246 . S
C727 O733 1.249 . S
O728 C710 1.254 . S
O728 Zn725 2.025 . S
H729 C721 0.952 . S
H730 C712 0.952 . S
H731 C720 0.948 . S
O732 Zn717 2.034 . S
O732 C727 1.246 . S
O733 Zn725 2.024 . S
O733 C727 1.249 . S
H734 C716 0.948 . S
O735 Zn725 2.039 . S
O735 C739 1.251 . S
O736 Zn717 2.025 . S
O736 C739 1.254 . S
O737 C718 1.246 . S
O737 Zn725 2.034 . S
O738 Zn717 2.024 . S
O738 C718 1.249 . S
C739 O735 1.251 . S
C739 O736 1.254 . S
H740 C713 0.949 . S
H741 C715 0.950 . S
H742 C722 0.949 . S
H743 C724 0.950 . S
C744 O760 1.251 . S
C744 O762 1.254 . S
N745 C746 1.333 . S
N745 C750 1.307 . S
N745 Zn751 2.020 . S
C746 N745 1.333 . S
C746 C747 1.379 . S
C746 H764 0.952 . S
C747 C746 1.379 . S
C747 C748 1.390 . S
C747 H774 0.949 . S
C748 C747 1.390 . S
C748 C749 1.357 . S
C749 C748 1.357 . S
C749 C750 1.370 . S
C749 H775 0.950 . S
C750 N745 1.307 . S
C750 C749 1.370 . S
C750 H768 0.948 . S
Zn751 N745 2.020 . S
Zn751 O760 2.039 . S
Zn751 O766 2.034 . S
Zn751 O770 2.025 . S
Zn751 O772 2.024 . S
C752 O771 1.246 . S
C752 O772 1.249 . S
N753 C754 1.307 . S
N753 C755 1.333 . S
N753 Zn759 2.020 . S
C754 N753 1.307 . S
C754 C758 1.370 . S
C754 H765 0.948 . S
C755 N753 1.333 . S
C755 C756 1.379 . S
C755 H763 0.952 . S
C756 C755 1.379 . S
C756 C757 1.390 . S
C756 H776 0.949 . S
C757 C756 1.390 . S
C757 C758 1.357 . S
C758 C754 1.370 . S
C758 C757 1.357 . S
C758 H777 0.950 . S
Zn759 N753 2.020 . S
Zn759 O762 2.025 . S
Zn759 O767 2.024 . S
Zn759 O769 2.039 . S
Zn759 O771 2.034 . S
O760 C744 1.251 . S
O760 Zn751 2.039 . S
C761 O766 1.246 . S
C761 O767 1.249 . S
O762 C744 1.254 . S
O762 Zn759 2.025 . S
H763 C755 0.952 . S
H764 C746 0.952 . S
H765 C754 0.948 . S
O766 Zn751 2.034 . S
O766 C761 1.246 . S
O767 Zn759 2.024 . S
O767 C761 1.249 . S
H768 C750 0.948 . S
O769 Zn759 2.039 . S
O769 C773 1.251 . S
O770 Zn751 2.025 . S
O770 C773 1.254 . S
O771 C752 1.246 . S
O771 Zn759 2.034 . S
O772 Zn751 2.024 . S
O772 C752 1.249 . S
C773 O769 1.251 . S
C773 O770 1.254 . S
H774 C747 0.949 . S
H775 C749 0.950 . S
H776 C756 0.949 . S
H777 C758 0.950 . S
C778 O794 1.251 . S
C778 O796 1.254 . S
N779 C780 1.333 . S
N779 C784 1.307 . S
N779 Zn785 2.020 . S
C780 N779 1.333 . S
C780 C781 1.379 . S
C780 H798 0.952 . S
C781 C780 1.379 . S
C781 C782 1.390 . S
C781 H808 0.949 . S
C782 C781 1.390 . S
C782 C783 1.357 . S
C783 C782 1.357 . S
C783 C784 1.370 . S
C783 H809 0.950 . S
C784 N779 1.307 . S
C784 C783 1.370 . S
C784 H802 0.948 . S
Zn785 N779 2.020 . S
Zn785 O794 2.039 . S
Zn785 O800 2.034 . S
Zn785 O804 2.025 . S
Zn785 O806 2.024 . S
C786 O805 1.246 . S
C786 O806 1.249 . S
N787 C788 1.307 . S
N787 C789 1.333 . S
N787 Zn793 2.020 . S
C788 N787 1.307 . S
C788 C792 1.370 . S
C788 H799 0.948 . S
C789 N787 1.333 . S
C789 C790 1.379 . S
C789 H797 0.952 . S
C790 C789 1.379 . S
C790 C791 1.390 . S
C790 H810 0.949 . S
C791 C790 1.390 . S
C791 C792 1.357 . S
C792 C788 1.370 . S
C792 C791 1.357 . S
C792 H811 0.950 . S
Zn793 N787 2.020 . S
Zn793 O796 2.025 . S
Zn793 O801 2.024 . S
Zn793 O803 2.039 . S
Zn793 O805 2.034 . S
O794 C778 1.251 . S
O794 Zn785 2.039 . S
C795 O800 1.246 . S
C795 O801 1.249 . S
O796 C778 1.254 . S
O796 Zn793 2.025 . S
H797 C789 0.952 . S
H798 C780 0.952 . S
H799 C788 0.948 . S
O800 Zn785 2.034 . S
O800 C795 1.246 . S
O801 Zn793 2.024 . S
O801 C795 1.249 . S
H802 C784 0.948 . S
O803 Zn793 2.039 . S
O803 C807 1.251 . S
O804 Zn785 2.025 . S
O804 C807 1.254 . S
O805 C786 1.246 . S
O805 Zn793 2.034 . S
O806 Zn785 2.024 . S
O806 C786 1.249 . S
C807 O803 1.251 . S
C807 O804 1.254 . S
H808 C781 0.949 . S
H809 C783 0.950 . S
H810 C790 0.949 . S
H811 C792 0.950 . S
C812 O828 1.251 . S
C812 O830 1.254 . S
N813 C814 1.333 . S
N813 C818 1.307 . S
N813 Zn819 2.020 . S
C814 N813 1.333 . S
C814 C815 1.379 . S
C814 H832 0.952 . S
C815 C814 1.379 . S
C815 C816 1.390 . S
C815 H842 0.949 . S
C816 C815 1.390 . S
C816 C817 1.357 . S
C817 C816 1.357 . S
C817 C818 1.370 . S
C817 H843 0.950 . S
C818 N813 1.307 . S
C818 C817 1.370 . S
C818 H836 0.948 . S
Zn819 N813 2.020 . S
Zn819 O828 2.039 . S
Zn819 O834 2.034 . S
Zn819 O838 2.025 . S
Zn819 O840 2.024 . S
C820 O839 1.246 . S
C820 O840 1.249 . S
N821 C822 1.307 . S
N821 C823 1.333 . S
N821 Zn827 2.020 . S
C822 N821 1.307 . S
C822 C826 1.370 . S
C822 H833 0.948 . S
C823 N821 1.333 . S
C823 C824 1.379 . S
C823 H831 0.952 . S
C824 C823 1.379 . S
C824 C825 1.390 . S
C824 H844 0.949 . S
C825 C824 1.390 . S
C825 C826 1.357 . S
C826 C822 1.370 . S
C826 C825 1.357 . S
C826 H845 0.950 . S
Zn827 N821 2.020 . S
Zn827 O830 2.025 . S
Zn827 O835 2.024 . S
Zn827 O837 2.039 . S
Zn827 O839 2.034 . S
O828 C812 1.251 . S
O828 Zn819 2.039 . S
C829 O834 1.246 . S
C829 O835 1.249 . S
O830 C812 1.254 . S
O830 Zn827 2.025 . S
H831 C823 0.952 . S
H832 C814 0.952 . S
H833 C822 0.948 . S
O834 Zn819 2.034 . S
O834 C829 1.246 . S
O835 Zn827 2.024 . S
O835 C829 1.249 . S
H836 C818 0.948 . S
O837 Zn827 2.039 . S
O837 C841 1.251 . S
O838 Zn819 2.025 . S
O838 C841 1.254 . S
O839 C820 1.246 . S
O839 Zn827 2.034 . S
O840 Zn819 2.024 . S
O840 C820 1.249 . S
C841 O837 1.251 . S
C841 O838 1.254 . S
H842 C815 0.949 . S
H843 C817 0.950 . S
H844 C824 0.949 . S
H845 C826 0.950 . S
C846 O862 1.251 . S
C846 O864 1.254 . S
N847 C848 1.333 . S
N847 C852 1.307 . S
N847 Zn853 2.020 . S
C848 N847 1.333 . S
C848 C849 1.379 . S
C848 H866 0.952 . S
C849 C848 1.379 . S
C849 C850 1.390 . S
C849 H876 0.949 . S
C850 C849 1.390 . S
C850 C851 1.357 . S
C851 C850 1.357 . S
C851 C852 1.370 . S
C851 H877 0.950 . S
C852 N847 1.307 . S
C852 C851 1.370 . S
C852 H870 0.948 . S
Zn853 N847 2.020 . S
Zn853 O862 2.039 . S
Zn853 O868 2.034 . S
Zn853 O872 2.029 1_554 S
Zn853 O874 2.024 . S
C854 O873 1.246 . S
C854 O874 1.249 1_655 S
N855 C856 1.307 . S
N855 C857 1.333 1_554 S
N855 Zn861 2.020 . S
C856 N855 1.307 . S
C856 C860 1.370 . S
C856 H867 0.948 . S
C857 N855 1.333 1_556 S
C857 C858 1.383 . S
C857 H865 0.952 . S
C858 C857 1.383 . S
C858 C859 1.388 1_455 S
C858 H878 0.947 1_455 S
C859 C858 1.388 1_655 S
C859 C860 1.357 1_656 S
C860 C856 1.370 . S
C860 C859 1.357 1_454 S
C860 H879 0.950 . S
Zn861 N855 2.020 . S
Zn861 O864 2.025 . S
Zn861 O869 2.024 . S
Zn861 O871 2.039 1_554 S
Zn861 O873 2.034 1_455 S
O862 C846 1.251 . S
O862 Zn853 2.039 . S
C863 O868 1.246 . S
C863 O869 1.249 . S
O864 C846 1.254 . S
O864 Zn861 2.025 . S
H865 C857 0.952 . S
H866 C848 0.952 . S
H867 C856 0.948 . S
O868 Zn853 2.034 . S
O868 C863 1.246 . S
O869 Zn861 2.024 . S
O869 C863 1.249 . S
H870 C852 0.948 . S
O871 Zn861 2.039 1_556 S
O871 C875 1.251 . S
O872 Zn853 2.029 1_556 S
O872 C875 1.251 . S
O873 C854 1.246 . S
O873 Zn861 2.034 1_655 S
O874 Zn853 2.024 . S
O874 C854 1.249 1_455 S
C875 O871 1.251 . S
C875 O872 1.251 . S
H876 C849 0.949 . S
H877 C851 0.950 . S
H878 C858 0.947 1_655 S
H879 C860 0.950 . S
C880 C881 1.369 . S
C880 C882 1.419 . S
C880 H884 0.930 . S
C881 C880 1.369 . S
C881 C890 1.429 . S
C882 C880 1.419 . S
C882 C883 1.363 . S
C882 H885 0.929 . S
C883 C882 1.363 . S
C883 C889 1.428 . S
H884 C880 0.930 . S
H885 C882 0.929 . S
S886 N887 1.613 . S
S886 N888 1.610 . S
N887 S886 1.613 . S
N887 C890 1.350 . S
N888 S886 1.610 . S
N888 C889 1.351 . S
C889 C883 1.428 . S
C889 N888 1.351 . S
C889 C890 1.434 . S
C890 C881 1.429 . S
C890 N887 1.350 . S
C890 C889 1.434 . S
C891 C892 1.369 . S
C891 C893 1.419 . S
C891 H895 0.930 . S
C892 C891 1.369 . S
C892 C901 1.429 . S
C893 C891 1.419 . S
C893 C894 1.363 . S
C893 H896 0.929 . S
C894 C893 1.363 . S
C894 C900 1.428 . S
H895 C891 0.930 . S
H896 C893 0.929 . S
S897 N898 1.613 . S
S897 N899 1.610 . S
N898 S897 1.613 . S
N898 C901 1.350 . S
N899 S897 1.610 . S
N899 C900 1.351 . S
C900 C894 1.428 . S
C900 N899 1.351 . S
C900 C901 1.434 . S
C901 C892 1.429 . S
C901 N898 1.350 . S
C901 C900 1.434 . S
C902 C903 1.369 . S
C902 C904 1.419 . S
C902 H906 0.930 . S
C903 C902 1.369 . S
C903 C912 1.429 . S
C904 C902 1.419 . S
C904 C905 1.363 . S
C904 H907 0.929 . S
C905 C904 1.363 . S
C905 C911 1.428 . S
H906 C902 0.930 . S
H907 C904 0.929 . S
S908 N909 1.613 . S
S908 N910 1.610 . S
N909 S908 1.613 . S
N909 C912 1.350 . S
N910 S908 1.610 . S
N910 C911 1.351 . S
C911 C905 1.428 . S
C911 N910 1.351 . S
C911 C912 1.434 . S
C912 C903 1.429 . S
C912 N909 1.350 . S
C912 C911 1.434 . S
C913 C914 1.369 . S
C913 C915 1.419 . S
C913 H917 0.930 . S
C914 C913 1.369 . S
C914 C923 1.429 . S
C915 C913 1.419 . S
C915 C916 1.363 . S
C915 H918 0.929 . S
C916 C915 1.363 . S
C916 C922 1.428 . S
H917 C913 0.930 . S
H918 C915 0.929 . S
S919 N920 1.613 . S
S919 N921 1.610 . S
N920 S919 1.613 . S
N920 C923 1.350 . S
N921 S919 1.610 . S
N921 C922 1.351 . S
C922 C916 1.428 . S
C922 N921 1.351 . S
C922 C923 1.434 . S
C923 C914 1.429 . S
C923 N920 1.350 . S
C923 C922 1.434 . S
C924 C925 1.369 . S
C924 C926 1.419 . S
C924 H928 0.930 . S
C925 C924 1.369 . S
C925 C934 1.429 . S
C926 C924 1.419 . S
C926 C927 1.363 . S
C926 H929 0.929 . S
C927 C926 1.363 . S
C927 C933 1.428 . S
H928 C924 0.930 . S
H929 C926 0.929 . S
S930 N931 1.613 . S
S930 N932 1.610 . S
N931 S930 1.613 . S
N931 C934 1.350 . S
N932 S930 1.610 . S
N932 C933 1.351 . S
C933 C927 1.428 . S
C933 N932 1.351 . S
C933 C934 1.434 . S
C934 C925 1.429 . S
C934 N931 1.350 . S
C934 C933 1.434 . S
C935 C936 1.369 . S
C935 C937 1.419 . S
C935 H939 0.930 . S
C936 C935 1.369 . S
C936 C945 1.429 . S
C937 C935 1.419 . S
C937 C938 1.363 . S
C937 H940 0.929 . S
C938 C937 1.363 . S
C938 C944 1.428 . S
H939 C935 0.930 . S
H940 C937 0.929 . S
S941 N942 1.613 . S
S941 N943 1.610 . S
N942 S941 1.613 . S
N942 C945 1.350 . S
N943 S941 1.610 . S
N943 C944 1.351 . S
C944 C938 1.428 . S
C944 N943 1.351 . S
C944 C945 1.434 . S
C945 C936 1.429 . S
C945 N942 1.350 . S
C945 C944 1.434 . S
C946 C947 1.369 . S
C946 C948 1.419 . S
C946 H950 0.930 . S
C947 C946 1.369 . S
C947 C956 1.429 . S
C948 C946 1.419 . S
C948 C949 1.363 . S
C948 H951 0.929 1_556 S
C949 C948 1.363 . S
C949 C955 1.428 . S
H950 C946 0.930 . S
H951 C948 0.929 1_554 S
S952 N953 1.613 . S
S952 N954 1.610 . S
N953 S952 1.613 . S
N953 C956 1.350 . S
N954 S952 1.610 . S
N954 C955 1.351 . S
C955 C949 1.428 . S
C955 N954 1.351 . S
C955 C956 1.434 . S
C956 C947 1.429 . S
C956 N953 1.350 . S
C956 C955 1.434 . S
C957 C958 1.369 . S
C957 C959 1.419 . S
C957 H961 0.930 . S
C958 C957 1.369 . S
C958 C967 1.429 . S
C959 C957 1.419 . S
C959 C960 1.363 . S
C959 H962 0.929 . S
C960 C959 1.363 . S
C960 C966 1.428 . S
H961 C957 0.930 . S
H962 C959 0.929 . S
S963 N964 1.613 . S
S963 N965 1.610 . S
N964 S963 1.613 . S
N964 C967 1.350 . S
N965 S963 1.610 . S
N965 C966 1.351 . S
C966 C960 1.428 . S
C966 N965 1.351 . S
C966 C967 1.434 . S
C967 C958 1.429 . S
C967 N964 1.350 . S
C967 C966 1.434 . S
C968 C969 1.369 . S
C968 C970 1.419 1_545 S
C968 H972 0.930 . S
C969 C968 1.369 . S
C969 C978 1.429 . S
C970 C968 1.419 1_565 S
C970 C971 1.363 . S
C970 H973 0.929 . S
C971 C970 1.363 . S
C971 C977 1.428 1_565 S
H972 C968 0.930 . S
H973 C970 0.929 . S
S974 N975 1.613 . S
S974 N976 1.610 . S
N975 S974 1.613 . S
N975 C978 1.350 . S
N976 S974 1.610 . S
N976 C977 1.351 . S
C977 C971 1.428 1_545 S
C977 N976 1.351 . S
C977 C978 1.434 . S
C978 C969 1.429 . S
C978 N975 1.350 . S
C978 C977 1.434 . S
C979 C980 1.369 . S
C979 C981 1.419 . S
C979 H983 0.930 . S
C980 C979 1.369 . S
C980 C989 1.429 . S
C981 C979 1.419 . S
C981 C982 1.363 . S
C981 H984 0.929 . S
C982 C981 1.363 . S
C982 C988 1.428 . S
H983 C979 0.930 . S
H984 C981 0.929 . S
S985 N986 1.613 . S
S985 N987 1.610 . S
N986 S985 1.613 . S
N986 C989 1.350 . S
N987 S985 1.610 . S
N987 C988 1.351 . S
C988 C982 1.428 . S
C988 N987 1.351 . S
C988 C989 1.434 . S
C989 C980 1.429 . S
C989 N986 1.350 . S
C989 C988 1.434 . S
C990 C991 1.369 . S
C990 C992 1.419 . S
C990 H994 0.930 . S
C991 C990 1.369 . S
C991 C1000 1.429 . S
C992 C990 1.419 . S
C992 C993 1.363 . S
C992 H995 0.929 . S
C993 C992 1.363 . S
C993 C999 1.428 . S
H994 C990 0.930 . S
H995 C992 0.929 . S
S996 N997 1.613 . S
S996 N998 1.610 1_565 S
N997 S996 1.613 . S
N997 C1000 1.350 1_565 S
N998 S996 1.610 1_545 S
N998 C999 1.351 . S
C999 C993 1.428 . S
C999 N998 1.351 . S
C999 C1000 1.434 . S
C1000 C991 1.429 . S
C1000 N997 1.350 1_545 S
C1000 C999 1.434 . S
C1001 C1002 1.369 . S
C1001 C1003 1.419 . S
C1001 H1005 0.930 . S
C1002 C1001 1.369 . S
C1002 C1011 1.429 . S
C1003 C1001 1.419 . S
C1003 C1004 1.363 . S
C1003 H1006 0.929 . S
C1004 C1003 1.363 . S
C1004 C1010 1.428 . S
H1005 C1001 0.930 . S
H1006 C1003 0.929 . S
S1007 N1008 1.613 . S
S1007 N1009 1.610 . S
N1008 S1007 1.613 . S
N1008 C1011 1.350 . S
N1009 S1007 1.610 . S
N1009 C1010 1.351 . S
C1010 C1004 1.428 . S
C1010 N1009 1.351 . S
C1010 C1011 1.434 . S
C1011 C1002 1.429 . S
C1011 N1008 1.350 . S
C1011 C1010 1.434 . S
C1012 C1013 1.369 . S
C1012 C1014 1.419 . S
C1012 H1016 0.930 1_545 S
C1013 C1012 1.369 . S
C1013 C1022 1.429 . S
C1014 C1012 1.419 . S
C1014 C1015 1.363 . S
C1014 H1017 0.929 . S
C1015 C1014 1.363 . S
C1015 C1021 1.428 . S
H1016 C1012 0.930 1_565 S
H1017 C1014 0.929 . S
S1018 N1019 1.613 . S
S1018 N1020 1.610 . S
N1019 S1018 1.613 . S
N1019 C1022 1.350 . S
N1020 S1018 1.610 . S
N1020 C1021 1.351 . S
C1021 C1015 1.428 . S
C1021 N1020 1.351 . S
C1021 C1022 1.434 . S
C1022 C1013 1.429 . S
C1022 N1019 1.350 . S
C1022 C1021 1.434 . S
C1023 C1024 1.369 . S
C1023 C1025 1.419 . S
C1023 H1027 0.930 . S
C1024 C1023 1.369 . S
C1024 C1033 1.429 . S
C1025 C1023 1.419 . S
C1025 C1026 1.363 . S
C1025 H1028 0.929 . S
C1026 C1025 1.363 . S
C1026 C1032 1.428 . S
H1027 C1023 0.930 . S
H1028 C1025 0.929 . S
S1029 N1030 1.613 . S
S1029 N1031 1.610 . S
N1030 S1029 1.613 . S
N1030 C1033 1.350 . S
N1031 S1029 1.610 . S
N1031 C1032 1.351 . S
C1032 C1026 1.428 . S
C1032 N1031 1.351 . S
C1032 C1033 1.434 . S
C1033 C1024 1.429 . S
C1033 N1030 1.350 . S
C1033 C1032 1.434 . S
C1034 C1035 1.369 1_565 S
C1034 C1036 1.419 . S
C1034 H1038 0.930 . S
C1035 C1034 1.369 1_545 S
C1035 C1044 1.429 . S
C1036 C1034 1.419 . S
C1036 C1037 1.363 . S
C1036 H1039 0.929 . S
C1037 C1036 1.363 . S
C1037 C1043 1.428 1_565 S
H1038 C1034 0.930 . S
H1039 C1036 0.929 . S
S1040 N1041 1.613 . S
S1040 N1042 1.610 . S
N1041 S1040 1.613 . S
N1041 C1044 1.350 . S
N1042 S1040 1.610 . S
N1042 C1043 1.351 . S
C1043 C1037 1.428 1_545 S
C1043 N1042 1.351 . S
C1043 C1044 1.434 . S
C1044 C1035 1.429 . S
C1044 N1041 1.350 . S
C1044 C1043 1.434 . S
C1045 C1046 1.369 . S
C1045 C1047 1.419 . S
C1045 H1049 0.930 . S
C1046 C1045 1.369 . S
C1046 C1055 1.429 . S
C1047 C1045 1.419 . S
C1047 C1048 1.363 . S
C1047 H1050 0.929 . S
C1048 C1047 1.363 . S
C1048 C1054 1.428 . S
H1049 C1045 0.930 . S
H1050 C1047 0.929 . S
S1051 N1052 1.613 . S
S1051 N1053 1.610 . S
N1052 S1051 1.613 . S
N1052 C1055 1.350 . S
N1053 S1051 1.610 . S
N1053 C1054 1.351 . S
C1054 C1048 1.428 . S
C1054 N1053 1.351 . S
C1054 C1055 1.434 . S
C1055 C1046 1.429 . S
C1055 N1052 1.350 . S
C1055 C1054 1.434 . S
C1056 C1057 1.369 . S
C1056 C1058 1.419 . S
C1056 H1060 0.930 . S
C1057 C1056 1.369 . S
C1057 C1066 1.429 1_554 S
C1058 C1056 1.419 . S
C1058 C1059 1.340 1_554 S
C1058 H1061 0.929 . S
C1059 C1058 1.340 1_556 S
C1059 C1065 1.442 . S
H1060 C1056 0.930 . S
H1061 C1058 0.929 . S
S1062 N1063 1.613 . S
S1062 N1064 1.610 . S
N1063 S1062 1.613 . S
N1063 C1066 1.350 . S
N1064 S1062 1.610 . S
N1064 C1065 1.351 . S
C1065 C1059 1.442 . S
C1065 N1064 1.351 . S
C1065 C1066 1.434 . S
C1066 C1057 1.429 1_556 S
C1066 N1063 1.350 . S
C1066 C1065 1.434 . S
C1067 C1068 1.369 . S
C1067 C1069 1.419 . S
C1067 H1071 0.930 . S
C1068 C1067 1.369 . S
C1068 C1077 1.429 . S
C1069 C1067 1.419 . S
C1069 C1070 1.363 . S
C1069 H1072 0.929 . S
C1070 C1069 1.363 . S
C1070 C1076 1.428 . S
H1071 C1067 0.930 . S
H1072 C1069 0.929 . S
S1073 N1074 1.613 . S
S1073 N1075 1.610 . S
N1074 S1073 1.613 . S
N1074 C1077 1.350 . S
N1075 S1073 1.610 . S
N1075 C1076 1.351 . S
C1076 C1070 1.428 . S
C1076 N1075 1.351 . S
C1076 C1077 1.434 . S
C1077 C1068 1.429 . S
C1077 N1074 1.350 . S
C1077 C1076 1.434 . S
C1078 C1079 1.369 . S
C1078 C1080 1.419 . S
C1078 H1082 0.930 . S
C1079 C1078 1.369 . S
C1079 C1088 1.429 . S
C1080 C1078 1.419 . S
C1080 C1081 1.363 . S
C1080 H1083 0.929 . S
C1081 C1080 1.363 . S
C1081 C1087 1.428 . S
H1082 C1078 0.930 . S
H1083 C1080 0.929 . S
S1084 N1085 1.613 . S
S1084 N1086 1.610 . S
N1085 S1084 1.613 . S
N1085 C1088 1.350 . S
N1086 S1084 1.610 . S
N1086 C1087 1.351 . S
C1087 C1081 1.428 . S
C1087 N1086 1.351 . S
C1087 C1088 1.434 . S
C1088 C1079 1.429 . S
C1088 N1085 1.350 . S
C1088 C1087 1.434 . S
C1089 C1090 1.369 . S
C1089 C1091 1.419 . S
C1089 H1093 0.930 . S
C1090 C1089 1.369 . S
C1090 C1099 1.429 . S
C1091 C1089 1.419 . S
C1091 C1092 1.363 . S
C1091 H1094 0.929 . S
C1092 C1091 1.363 . S
C1092 C1098 1.428 . S
H1093 C1089 0.930 . S
H1094 C1091 0.929 . S
S1095 N1096 1.613 . S
S1095 N1097 1.610 . S
N1096 S1095 1.613 . S
N1096 C1099 1.350 . S
N1097 S1095 1.610 . S
N1097 C1098 1.351 . S
C1098 C1092 1.428 . S
C1098 N1097 1.351 . S
C1098 C1099 1.434 . S
C1099 C1090 1.429 . S
C1099 N1096 1.350 . S
C1099 C1098 1.434 . S
C1100 C1101 1.369 . S
C1100 C1102 1.419 . S
C1100 H1104 0.930 . S
C1101 C1100 1.369 . S
C1101 C1110 1.429 . S
C1102 C1100 1.419 . S
C1102 C1103 1.363 . S
C1102 H1105 0.929 . S
C1103 C1102 1.363 . S
C1103 C1109 1.428 . S
H1104 C1100 0.930 . S
H1105 C1102 0.929 . S
S1106 N1107 1.613 . S
S1106 N1108 1.610 . S
N1107 S1106 1.613 . S
N1107 C1110 1.350 . S
N1108 S1106 1.610 . S
N1108 C1109 1.351 . S
C1109 C1103 1.428 . S
C1109 N1108 1.351 . S
C1109 C1110 1.434 . S
C1110 C1101 1.429 . S
C1110 N1107 1.350 . S
C1110 C1109 1.434 . S
C1111 C1112 1.369 . S
C1111 C1113 1.419 . S
C1111 H1115 0.930 . S
C1112 C1111 1.369 . S
C1112 C1121 1.429 . S
C1113 C1111 1.419 . S
C1113 C1114 1.363 . S
C1113 H1116 0.929 . S
C1114 C1113 1.363 . S
C1114 C1120 1.444 . S
H1115 C1111 0.930 . S
H1116 C1113 0.929 . S
S1117 N1118 1.613 . S
S1117 N1119 1.610 . S
N1118 S1117 1.613 . S
N1118 C1121 1.350 1_545 S
N1119 S1117 1.610 . S
N1119 C1120 1.326 1_545 S
C1120 C1114 1.444 . S
C1120 N1119 1.326 1_565 S
C1120 C1121 1.443 . S
C1121 C1112 1.429 . S
C1121 N1118 1.350 1_565 S
C1121 C1120 1.443 . S
C1122 C1123 1.369 . S
C1122 C1124 1.419 . S
C1122 H1126 0.930 . S
C1123 C1122 1.369 . S
C1123 C1132 1.429 . S
C1124 C1122 1.419 . S
C1124 C1125 1.363 . S
C1124 H1127 0.929 . S
C1125 C1124 1.363 . S
C1125 C1131 1.428 . S
H1126 C1122 0.930 . S
H1127 C1124 0.929 . S
S1128 N1129 1.613 . S
S1128 N1130 1.610 . S
N1129 S1128 1.613 . S
N1129 C1132 1.350 . S
N1130 S1128 1.610 . S
N1130 C1131 1.351 . S
C1131 C1125 1.428 . S
C1131 N1130 1.351 . S
C1131 C1132 1.434 . S
C1132 C1123 1.429 . S
C1132 N1129 1.350 . S
C1132 C1131 1.434 . S
C1133 C1134 1.369 . S
C1133 C1135 1.419 . S
C1133 H1137 0.930 . S
C1134 C1133 1.369 . S
C1134 C1143 1.429 . S
C1135 C1133 1.419 . S
C1135 C1136 1.363 . S
C1135 H1138 0.929 . S
C1136 C1135 1.363 . S
C1136 C1142 1.428 . S
H1137 C1133 0.930 . S
H1138 C1135 0.929 . S
S1139 N1140 1.613 . S
S1139 N1141 1.610 . S
N1140 S1139 1.613 . S
N1140 C1143 1.350 . S
N1141 S1139 1.610 . S
N1141 C1142 1.351 . S
C1142 C1136 1.428 . S
C1142 N1141 1.351 . S
C1142 C1143 1.434 . S
C1143 C1134 1.429 . S
C1143 N1140 1.350 . S
C1143 C1142 1.434 . S
C1144 C1145 1.369 . S
C1144 C1146 1.419 . S
C1144 H1148 0.930 . S
C1145 C1144 1.369 . S
C1145 C1154 1.429 1_455 S
C1146 C1144 1.419 . S
C1146 C1147 1.363 . S
C1146 H1149 0.929 . S
C1147 C1146 1.363 . S
C1147 C1153 1.428 . S
H1148 C1144 0.930 . S
H1149 C1146 0.929 . S
S1150 N1151 1.613 1_554 S
S1150 N1152 1.610 1_655 S
N1151 S1150 1.613 1_556 S
N1151 C1154 1.350 . S
N1152 S1150 1.610 1_455 S
N1152 C1153 1.351 1_554 S
C1153 C1147 1.428 . S
C1153 N1152 1.351 1_556 S
C1153 C1154 1.434 1_455 S
C1154 C1145 1.429 1_655 S
C1154 N1151 1.350 . S
C1154 C1153 1.434 1_655 S
C1155 C1156 1.369 . S
C1155 C1157 1.419 . S
C1155 H1159 0.930 . S
C1156 C1155 1.369 . S
C1156 C1165 1.429 . S
C1157 C1155 1.419 . S
C1157 C1158 1.363 . S
C1157 H1160 0.929 . S
C1158 C1157 1.363 . S
C1158 C1164 1.428 . S
H1159 C1155 0.930 . S
H1160 C1157 0.929 . S
S1161 N1162 1.613 . S
S1161 N1163 1.610 . S
N1162 S1161 1.613 . S
N1162 C1165 1.350 . S
N1163 S1161 1.610 . S
N1163 C1164 1.351 . S
C1164 C1158 1.428 . S
C1164 N1163 1.351 . S
C1164 C1165 1.434 . S
C1165 C1156 1.429 . S
C1165 N1162 1.350 . S
C1165 C1164 1.434 . S
C1166 C1167 1.369 . S
C1166 C1168 1.419 . S
C1166 H1170 0.930 . S
C1167 C1166 1.369 . S
C1167 C1176 1.429 . S
C1168 C1166 1.419 . S
C1168 C1169 1.363 . S
C1168 H1171 0.929 . S
C1169 C1168 1.363 . S
C1169 C1175 1.428 . S
H1170 C1166 0.930 . S
H1171 C1168 0.929 . S
S1172 N1173 1.613 . S
S1172 N1174 1.610 . S
N1173 S1172 1.613 . S
N1173 C1176 1.350 . S
N1174 S1172 1.610 . S
N1174 C1175 1.351 . S
C1175 C1169 1.428 . S
C1175 N1174 1.351 . S
C1175 C1176 1.434 . S
C1176 C1167 1.429 . S
C1176 N1173 1.350 . S
C1176 C1175 1.434 . S
C1177 C1178 1.369 . S
C1177 C1179 1.419 . S
C1177 H1181 0.930 . S
C1178 C1177 1.369 . S
C1178 C1187 1.429 . S
C1179 C1177 1.419 . S
C1179 C1180 1.363 . S
C1179 H1182 0.929 . S
C1180 C1179 1.363 . S
C1180 C1186 1.428 . S
H1181 C1177 0.930 . S
H1182 C1179 0.929 . S
S1183 N1184 1.613 . S
S1183 N1185 1.610 . S
N1184 S1183 1.613 . S
N1184 C1187 1.350 . S
N1185 S1183 1.610 . S
N1185 C1186 1.351 . S
C1186 C1180 1.428 . S
C1186 N1185 1.351 . S
C1186 C1187 1.434 . S
C1187 C1178 1.429 . S
C1187 N1184 1.350 . S
C1187 C1186 1.434 . S
C1188 C1189 1.369 . S
C1188 C1190 1.419 . S
C1188 H1192 0.930 . S
C1189 C1188 1.369 . S
C1189 C1198 1.429 . S
C1190 C1188 1.419 . S
C1190 C1191 1.363 . S
C1190 H1193 0.929 . S
C1191 C1190 1.363 . S
C1191 C1197 1.428 . S
H1192 C1188 0.930 . S
H1193 C1190 0.929 . S
S1194 N1195 1.613 . S
S1194 N1196 1.610 . S
N1195 S1194 1.613 . S
N1195 C1198 1.350 . S
N1196 S1194 1.610 . S
N1196 C1197 1.351 . S
C1197 C1191 1.428 . S
C1197 N1196 1.351 . S
C1197 C1198 1.434 . S
C1198 C1189 1.429 . S
C1198 N1195 1.350 . S
C1198 C1197 1.434 . S
C1199 C1200 1.369 . S
C1199 C1201 1.419 . S
C1199 H1203 0.930 . S
C1200 C1199 1.369 . S
C1200 C1209 1.429 . S
C1201 C1199 1.419 . S
C1201 C1202 1.363 . S
C1201 H1204 0.929 . S
C1202 C1201 1.363 . S
C1202 C1208 1.428 . S
H1203 C1199 0.930 . S
H1204 C1201 0.929 . S
S1205 N1206 1.613 . S
S1205 N1207 1.610 . S
N1206 S1205 1.613 . S
N1206 C1209 1.350 . S
N1207 S1205 1.610 . S
N1207 C1208 1.351 . S
C1208 C1202 1.428 . S
C1208 N1207 1.351 . S
C1208 C1209 1.434 . S
C1209 C1200 1.429 . S
C1209 N1206 1.350 . S
C1209 C1208 1.434 . S
C1210 C1211 1.369 . S
C1210 C1212 1.419 . S
C1210 H1214 0.930 . S
C1211 C1210 1.369 . S
C1211 C1220 1.429 . S
C1212 C1210 1.419 . S
C1212 C1213 1.363 . S
C1212 H1215 0.929 . S
C1213 C1212 1.363 . S
C1213 C1219 1.428 . S
H1214 C1210 0.930 . S
H1215 C1212 0.929 . S
S1216 N1217 1.613 . S
S1216 N1218 1.610 . S
N1217 S1216 1.613 . S
N1217 C1220 1.350 . S
N1218 S1216 1.610 . S
N1218 C1219 1.351 . S
C1219 C1213 1.428 . S
C1219 N1218 1.351 . S
C1219 C1220 1.434 . S
C1220 C1211 1.429 . S
C1220 N1217 1.350 . S
C1220 C1219 1.434 . S
C1221 C1222 1.369 . S
C1221 C1223 1.419 . S
C1221 H1225 0.930 . S
C1222 C1221 1.369 . S
C1222 C1231 1.429 . S
C1223 C1221 1.419 . S
C1223 C1224 1.363 . S
C1223 H1226 0.929 . S
C1224 C1223 1.363 . S
C1224 C1230 1.428 . S
H1225 C1221 0.930 . S
H1226 C1223 0.929 . S
S1227 N1228 1.613 . S
S1227 N1229 1.610 . S
N1228 S1227 1.613 . S
N1228 C1231 1.350 . S
N1229 S1227 1.610 . S
N1229 C1230 1.351 . S
C1230 C1224 1.428 . S
C1230 N1229 1.351 . S
C1230 C1231 1.434 . S
C1231 C1222 1.429 . S
C1231 N1228 1.350 . S
C1231 C1230 1.434 . S
C1232 C1233 1.369 1_565 S
C1232 C1234 1.419 . S
C1232 H1236 0.930 . S
C1233 C1232 1.369 1_545 S
C1233 C1242 1.429 . S
C1234 C1232 1.419 . S
C1234 C1235 1.366 1_565 S
C1234 H1237 0.929 1_655 S
C1235 C1234 1.366 1_545 S
C1235 C1241 1.438 . S
H1236 C1232 0.930 . S
H1237 C1234 0.929 1_455 S
S1238 N1239 1.613 . S
S1238 N1240 1.610 . S
N1239 S1238 1.613 . S
N1239 C1242 1.350 . S
N1240 S1238 1.610 . S
N1240 C1241 1.351 . S
C1241 C1235 1.438 . S
C1241 N1240 1.351 . S
C1241 C1242 1.434 . S
C1242 C1233 1.429 . S
C1242 N1239 1.350 . S
C1242 C1241 1.434 . S
C1243 C1244 1.369 . S
C1243 C1245 1.419 . S
C1243 H1247 0.930 . S
C1244 C1243 1.369 . S
C1244 C1253 1.429 . S
C1245 C1243 1.419 . S
C1245 C1246 1.363 . S
C1245 H1248 0.929 . S
C1246 C1245 1.363 . S
C1246 C1252 1.428 . S
H1247 C1243 0.930 . S
H1248 C1245 0.929 . S
S1249 N1250 1.613 . S
S1249 N1251 1.610 . S
N1250 S1249 1.613 . S
N1250 C1253 1.350 . S
N1251 S1249 1.610 . S
N1251 C1252 1.351 . S
C1252 C1246 1.428 . S
C1252 N1251 1.351 . S
C1252 C1253 1.434 . S
C1253 C1244 1.429 . S
C1253 N1250 1.350 . S
C1253 C1252 1.434 . S
C1254 C1255 1.369 . S
C1254 C1256 1.419 . S
C1254 H1258 0.930 . S
C1255 C1254 1.369 . S
C1255 C1264 1.429 1_545 S
C1256 C1254 1.419 . S
C1256 C1257 1.363 . S
C1256 H1259 0.929 . S
C1257 C1256 1.363 . S
C1257 C1263 1.428 1_545 S
H1258 C1254 0.930 . S
H1259 C1256 0.929 . S
S1260 N1261 1.613 . S
S1260 N1262 1.610 . S
N1261 S1260 1.613 . S
N1261 C1264 1.350 . S
N1262 S1260 1.610 . S
N1262 C1263 1.351 . S
C1263 C1257 1.428 1_565 S
C1263 N1262 1.351 . S
C1263 C1264 1.434 . S
C1264 C1255 1.429 1_565 S
C1264 N1261 1.350 . S
C1264 C1263 1.434 . S
C1265 C1266 1.369 . S
C1265 C1267 1.419 . S
C1265 H1269 0.930 . S
C1266 C1265 1.369 . S
C1266 C1275 1.429 . S
C1267 C1265 1.419 . S
C1267 C1268 1.363 . S
C1267 H1270 0.929 . S
C1268 C1267 1.363 . S
C1268 C1274 1.428 . S
H1269 C1265 0.930 . S
H1270 C1267 0.929 . S
S1271 N1272 1.613 . S
S1271 N1273 1.610 . S
N1272 S1271 1.613 . S
N1272 C1275 1.350 . S
N1273 S1271 1.610 . S
N1273 C1274 1.351 . S
C1274 C1268 1.428 . S
C1274 N1273 1.351 . S
C1274 C1275 1.434 . S
C1275 C1266 1.429 . S
C1275 N1272 1.350 . S
C1275 C1274 1.434 . S
C1276 C1277 1.402 . S
C1276 C1278 1.419 . S
C1276 H1280 0.930 . S
C1277 C1276 1.402 . S
C1277 C1286 1.409 1_565 S
C1278 C1276 1.419 . S
C1278 C1279 1.363 . S
C1278 H1281 0.929 . S
C1279 C1278 1.363 . S
C1279 C1285 1.428 1_565 S
H1280 C1276 0.930 . S
H1281 C1278 0.929 . S
S1282 N1283 1.613 . S
S1282 N1284 1.610 . S
N1283 S1282 1.613 . S
N1283 C1286 1.350 . S
N1284 S1282 1.610 . S
N1284 C1285 1.351 . S
C1285 C1279 1.428 1_545 S
C1285 N1284 1.351 . S
C1285 C1286 1.434 . S
C1286 C1277 1.409 1_545 S
C1286 N1283 1.350 . S
C1286 C1285 1.434 . S
C1287 C1288 1.369 . S
C1287 C1289 1.419 . S
C1287 H1291 0.930 . S
C1288 C1287 1.369 . S
C1288 C1297 1.429 . S
C1289 C1287 1.419 . S
C1289 C1290 1.363 . S
C1289 H1292 0.929 . S
C1290 C1289 1.363 . S
C1290 C1296 1.428 . S
H1291 C1287 0.930 . S
H1292 C1289 0.929 . S
S1293 N1294 1.613 . S
S1293 N1295 1.610 . S
N1294 S1293 1.613 . S
N1294 C1297 1.350 . S
N1295 S1293 1.610 . S
N1295 C1296 1.351 . S
C1296 C1290 1.428 . S
C1296 N1295 1.351 . S
C1296 C1297 1.434 . S
C1297 C1288 1.429 . S
C1297 N1294 1.350 . S
C1297 C1296 1.434 . S
C1298 C1299 1.369 . S
C1298 C1300 1.419 . S
C1298 H1302 0.930 . S
C1299 C1298 1.369 . S
C1299 C1308 1.429 . S
C1300 C1298 1.419 . S
C1300 C1301 1.363 . S
C1300 H1303 0.929 . S
C1301 C1300 1.363 . S
C1301 C1307 1.428 . S
H1302 C1298 0.930 . S
H1303 C1300 0.929 . S
S1304 N1305 1.613 . S
S1304 N1306 1.610 . S
N1305 S1304 1.613 . S
N1305 C1308 1.350 1_565 S
N1306 S1304 1.610 . S
N1306 C1307 1.351 1_565 S
C1307 C1301 1.428 . S
C1307 N1306 1.351 1_545 S
C1307 C1308 1.434 . S
C1308 C1299 1.429 . S
C1308 N1305 1.350 1_545 S
C1308 C1307 1.434 . S
C1309 C1310 1.369 . S
C1309 C1311 1.419 . S
C1309 H1313 0.930 . S
C1310 C1309 1.369 . S
C1310 C1319 1.429 . S
C1311 C1309 1.419 . S
C1311 C1312 1.363 . S
C1311 H1314 0.929 . S
C1312 C1311 1.363 . S
C1312 C1318 1.428 . S
H1313 C1309 0.930 . S
H1314 C1311 0.929 . S
S1315 N1316 1.613 . S
S1315 N1317 1.610 . S
N1316 S1315 1.613 . S
N1316 C1319 1.350 . S
N1317 S1315 1.610 . S
N1317 C1318 1.351 . S
C1318 C1312 1.428 . S
C1318 N1317 1.351 . S
C1318 C1319 1.434 . S
C1319 C1310 1.429 . S
C1319 N1316 1.350 . S
C1319 C1318 1.434 . S
C1320 C1321 1.369 . S
C1320 C1322 1.419 . S
C1320 H1324 0.930 . S
C1321 C1320 1.369 . S
C1321 C1330 1.429 . S
C1322 C1320 1.419 . S
C1322 C1323 1.363 . S
C1322 H1325 0.929 1_565 S
C1323 C1322 1.363 . S
C1323 C1329 1.428 . S
H1324 C1320 0.930 . S
H1325 C1322 0.929 1_545 S
S1326 N1327 1.613 . S
S1326 N1328 1.610 . S
N1327 S1326 1.613 . S
N1327 C1330 1.350 . S
N1328 S1326 1.610 . S
N1328 C1329 1.351 . S
C1329 C1323 1.428 . S
C1329 N1328 1.351 . S
C1329 C1330 1.434 . S
C1330 C1321 1.429 . S
C1330 N1327 1.350 . S
C1330 C1329 1.434 . S
C1331 C1332 1.369 . S
C1331 C1333 1.419 . S
C1331 H1335 0.930 . S
C1332 C1331 1.369 . S
C1332 C1341 1.429 . S
C1333 C1331 1.419 . S
C1333 C1334 1.363 . S
C1333 H1336 0.929 . S
C1334 C1333 1.363 . S
C1334 C1340 1.428 . S
H1335 C1331 0.930 . S
H1336 C1333 0.929 . S
S1337 N1338 1.613 . S
S1337 N1339 1.610 . S
N1338 S1337 1.613 . S
N1338 C1341 1.350 . S
N1339 S1337 1.610 . S
N1339 C1340 1.351 . S
C1340 C1334 1.428 . S
C1340 N1339 1.351 . S
C1340 C1341 1.434 . S
C1341 C1332 1.429 . S
C1341 N1338 1.350 . S
C1341 C1340 1.434 . S
C1342 C1343 1.369 . S
C1342 C1344 1.419 . S
C1342 H1346 0.930 . S
C1343 C1342 1.369 . S
C1343 C1352 1.429 . S
C1344 C1342 1.419 . S
C1344 C1345 1.363 . S
C1344 H1347 0.929 . S
C1345 C1344 1.363 . S
C1345 C1351 1.428 . S
H1346 C1342 0.930 . S
H1347 C1344 0.929 . S
S1348 N1349 1.613 . S
S1348 N1350 1.610 . S
N1349 S1348 1.613 . S
N1349 C1352 1.350 . S
N1350 S1348 1.610 . S
N1350 C1351 1.351 . S
C1351 C1345 1.428 . S
C1351 N1350 1.351 . S
C1351 C1352 1.434 . S
C1352 C1343 1.429 . S
C1352 N1349 1.350 . S
C1352 C1351 1.434 . S
C1353 C1354 1.369 . S
C1353 C1355 1.419 . S
C1353 H1357 0.930 . S
C1354 C1353 1.369 . S
C1354 C1363 1.429 . S
C1355 C1353 1.419 . S
C1355 C1356 1.363 . S
C1355 H1358 0.929 . S
C1356 C1355 1.363 . S
C1356 C1362 1.428 . S
H1357 C1353 0.930 . S
H1358 C1355 0.929 . S
S1359 N1360 1.613 . S
S1359 N1361 1.610 . S
N1360 S1359 1.613 . S
N1360 C1363 1.350 . S
N1361 S1359 1.610 . S
N1361 C1362 1.351 . S
C1362 C1356 1.428 . S
C1362 N1361 1.351 . S
C1362 C1363 1.434 . S
C1363 C1354 1.429 . S
C1363 N1360 1.350 . S
C1363 C1362 1.434 . S
C1364 C1365 1.369 . S
C1364 C1366 1.419 . S
C1364 H1368 0.930 . S
C1365 C1364 1.369 . S
C1365 C1374 1.429 . S
C1366 C1364 1.419 . S
C1366 C1367 1.363 . S
C1366 H1369 0.929 . S
C1367 C1366 1.363 . S
C1367 C1373 1.428 . S
H1368 C1364 0.930 . S
H1369 C1366 0.929 . S
S1370 N1371 1.613 . S
S1370 N1372 1.610 . S
N1371 S1370 1.613 . S
N1371 C1374 1.350 . S
N1372 S1370 1.610 . S
N1372 C1373 1.351 . S
C1373 C1367 1.428 . S
C1373 N1372 1.351 . S
C1373 C1374 1.434 . S
C1374 C1365 1.429 . S
C1374 N1371 1.350 . S
C1374 C1373 1.434 . S
C1375 C1376 1.369 . S
C1375 C1377 1.419 . S
C1375 H1379 0.930 . S
C1376 C1375 1.369 . S
C1376 C1385 1.429 . S
C1377 C1375 1.419 . S
C1377 C1378 1.363 . S
C1377 H1380 0.929 . S
C1378 C1377 1.363 . S
C1378 C1384 1.428 . S
H1379 C1375 0.930 . S
H1380 C1377 0.929 . S
S1381 N1382 1.613 . S
S1381 N1383 1.610 . S
N1382 S1381 1.613 . S
N1382 C1385 1.350 . S
N1383 S1381 1.610 . S
N1383 C1384 1.351 . S
C1384 C1378 1.428 . S
C1384 N1383 1.351 . S
C1384 C1385 1.434 . S
C1385 C1376 1.429 . S
C1385 N1382 1.350 . S
C1385 C1384 1.434 . S
C1386 C1387 1.369 . S
C1386 C1388 1.419 . S
C1386 H1390 0.930 . S
C1387 C1386 1.369 . S
C1387 C1396 1.429 . S
C1388 C1386 1.419 . S
C1388 C1389 1.363 . S
C1388 H1391 0.929 . S
C1389 C1388 1.363 . S
C1389 C1395 1.428 . S
H1390 C1386 0.930 . S
H1391 C1388 0.929 . S
S1392 N1393 1.613 . S
S1392 N1394 1.610 . S
N1393 S1392 1.613 . S
N1393 C1396 1.350 . S
N1394 S1392 1.610 . S
N1394 C1395 1.351 . S
C1395 C1389 1.428 . S
C1395 N1394 1.351 . S
C1395 C1396 1.434 . S
C1396 C1387 1.429 . S
C1396 N1393 1.350 . S
C1396 C1395 1.434 . S
C1397 C1398 1.369 . S
C1397 C1399 1.419 . S
C1397 H1401 0.930 . S
C1398 C1397 1.369 . S
C1398 C1407 1.429 . S
C1399 C1397 1.419 . S
C1399 C1400 1.363 . S
C1399 H1402 0.929 . S
C1400 C1399 1.363 . S
C1400 C1406 1.428 . S
H1401 C1397 0.930 . S
H1402 C1399 0.929 . S
S1403 N1404 1.613 . S
S1403 N1405 1.610 . S
N1404 S1403 1.613 . S
N1404 C1407 1.350 . S
N1405 S1403 1.610 . S
N1405 C1406 1.351 . S
C1406 C1400 1.428 . S
C1406 N1405 1.351 . S
C1406 C1407 1.434 . S
C1407 C1398 1.429 . S
C1407 N1404 1.350 . S
C1407 C1406 1.434 . S
C1408 C1409 1.369 . S
C1408 C1410 1.419 . S
C1408 H1412 0.930 . S
C1409 C1408 1.369 . S
C1409 C1418 1.429 . S
C1410 C1408 1.419 . S
C1410 C1411 1.363 . S
C1410 H1413 0.929 . S
C1411 C1410 1.363 . S
C1411 C1417 1.428 . S
H1412 C1408 0.930 . S
H1413 C1410 0.929 . S
S1414 N1415 1.613 . S
S1414 N1416 1.610 . S
N1415 S1414 1.613 . S
N1415 C1418 1.350 . S
N1416 S1414 1.610 . S
N1416 C1417 1.351 . S
C1417 C1411 1.428 . S
C1417 N1416 1.351 . S
C1417 C1418 1.434 . S
C1418 C1409 1.429 . S
C1418 N1415 1.350 . S
C1418 C1417 1.434 . S
C1419 C1420 1.369 . S
C1419 C1421 1.419 . S
C1419 H1423 0.930 . S
C1420 C1419 1.369 . S
C1420 C1429 1.429 . S
C1421 C1419 1.419 . S
C1421 C1422 1.363 . S
C1421 H1424 0.929 . S
C1422 C1421 1.363 . S
C1422 C1428 1.428 . S
H1423 C1419 0.930 . S
H1424 C1421 0.929 . S
S1425 N1426 1.613 . S
S1425 N1427 1.610 . S
N1426 S1425 1.613 . S
N1426 C1429 1.350 . S
N1427 S1425 1.610 . S
N1427 C1428 1.351 . S
C1428 C1422 1.428 . S
C1428 N1427 1.351 . S
C1428 C1429 1.434 . S
C1429 C1420 1.429 . S
C1429 N1426 1.350 . S
C1429 C1428 1.434 . S
C1430 C1431 1.369 . S
C1430 C1432 1.419 . S
C1430 H1434 0.930 . S
C1431 C1430 1.369 . S
C1431 C1440 1.429 . S
C1432 C1430 1.419 . S
C1432 C1433 1.363 . S
C1432 H1435 0.929 . S
C1433 C1432 1.363 . S
C1433 C1439 1.428 . S
H1434 C1430 0.930 . S
H1435 C1432 0.929 . S
S1436 N1437 1.613 . S
S1436 N1438 1.610 . S
N1437 S1436 1.613 . S
N1437 C1440 1.350 . S
N1438 S1436 1.610 . S
N1438 C1439 1.351 . S
C1439 C1433 1.428 . S
C1439 N1438 1.351 . S
C1439 C1440 1.434 . S
C1440 C1431 1.429 . S
C1440 N1437 1.350 . S
C1440 C1439 1.434 . S
C1441 C1442 1.369 . S
C1441 C1443 1.419 . S
C1441 H1445 0.930 . S
C1442 C1441 1.369 . S
C1442 C1451 1.429 . S
C1443 C1441 1.419 . S
C1443 C1444 1.363 . S
C1443 H1446 0.929 . S
C1444 C1443 1.363 . S
C1444 C1450 1.428 . S
H1445 C1441 0.930 . S
H1446 C1443 0.929 . S
S1447 N1448 1.613 . S
S1447 N1449 1.610 . S
N1448 S1447 1.613 . S
N1448 C1451 1.350 . S
N1449 S1447 1.610 . S
N1449 C1450 1.351 . S
C1450 C1444 1.428 . S
C1450 N1449 1.351 . S
C1450 C1451 1.434 . S
C1451 C1442 1.429 . S
C1451 N1448 1.350 . S
C1451 C1450 1.434 . S
C1452 C1453 1.369 . S
C1452 C1454 1.419 . S
C1452 H1456 0.930 . S
C1453 C1452 1.369 . S
C1453 C1462 1.429 . S
C1454 C1452 1.419 . S
C1454 C1455 1.363 . S
C1454 H1457 0.929 . S
C1455 C1454 1.363 . S
C1455 C1461 1.428 1_556 S
H1456 C1452 0.930 . S
H1457 C1454 0.929 . S
S1458 N1459 1.613 1_554 S
S1458 N1460 1.610 . S
N1459 S1458 1.613 1_556 S
N1459 C1462 1.350 . S
N1460 S1458 1.610 . S
N1460 C1461 1.351 . S
C1461 C1455 1.428 1_554 S
C1461 N1460 1.351 . S
C1461 C1462 1.434 1_554 S
C1462 C1453 1.429 . S
C1462 N1459 1.350 . S
C1462 C1461 1.434 1_556 S
C1463 C1464 1.369 1_655 S
C1463 C1465 1.419 . S
C1463 H1467 0.930 . S
C1464 C1463 1.369 1_455 S
C1464 C1473 1.429 1_455 S
C1465 C1463 1.419 . S
C1465 C1466 1.363 . S
C1465 H1468 0.929 . S
C1466 C1465 1.363 . S
C1466 C1472 1.428 . S
H1467 C1463 0.930 . S
H1468 C1465 0.929 . S
S1469 N1470 1.613 1_655 S
S1469 N1471 1.610 . S
N1470 S1469 1.613 1_455 S
N1470 C1473 1.350 1_455 S
N1471 S1469 1.610 . S
N1471 C1472 1.351 . S
C1472 C1466 1.428 . S
C1472 N1471 1.351 . S
C1472 C1473 1.434 . S
C1473 C1464 1.429 1_655 S
C1473 N1470 1.350 1_655 S
C1473 C1472 1.434 . S
C1474 C1475 1.369 . S
C1474 C1476 1.419 . S
C1474 H1478 0.930 . S
C1475 C1474 1.369 . S
C1475 C1484 1.429 . S
C1476 C1474 1.419 . S
C1476 C1477 1.363 . S
C1476 H1479 0.929 . S
C1477 C1476 1.363 . S
C1477 C1483 1.428 . S
H1478 C1474 0.930 . S
H1479 C1476 0.929 . S
S1480 N1481 1.613 . S
S1480 N1482 1.610 . S
N1481 S1480 1.613 . S
N1481 C1484 1.350 . S
N1482 S1480 1.610 . S
N1482 C1483 1.351 . S
C1483 C1477 1.428 . S
C1483 N1482 1.351 . S
C1483 C1484 1.434 . S
C1484 C1475 1.429 . S
C1484 N1481 1.350 . S
C1484 C1483 1.434 . S
C1485 C1486 1.369 . S
C1485 C1487 1.419 . S
C1485 H1489 0.930 . S
C1486 C1485 1.369 . S
C1486 C1495 1.429 . S
C1487 C1485 1.419 . S
C1487 C1488 1.363 . S
C1487 H1490 0.929 . S
C1488 C1487 1.363 . S
C1488 C1494 1.428 . S
H1489 C1485 0.930 . S
H1490 C1487 0.929 . S
S1491 N1492 1.613 . S
S1491 N1493 1.610 . S
N1492 S1491 1.613 . S
N1492 C1495 1.350 . S
N1493 S1491 1.610 . S
N1493 C1494 1.351 . S
C1494 C1488 1.428 . S
C1494 N1493 1.351 . S
C1494 C1495 1.434 . S
C1495 C1486 1.429 . S
C1495 N1492 1.350 . S
C1495 C1494 1.434 . S
C1496 C1497 1.369 . S
C1496 C1498 1.419 . S
C1496 H1500 0.930 . S
C1497 C1496 1.369 . S
C1497 C1506 1.429 . S
C1498 C1496 1.419 . S
C1498 C1499 1.363 . S
C1498 H1501 0.929 . S
C1499 C1498 1.363 . S
C1499 C1505 1.428 . S
H1500 C1496 0.930 . S
H1501 C1498 0.929 . S
S1502 N1503 1.613 . S
S1502 N1504 1.610 . S
N1503 S1502 1.613 . S
N1503 C1506 1.350 . S
N1504 S1502 1.610 . S
N1504 C1505 1.351 . S
C1505 C1499 1.428 . S
C1505 N1504 1.351 . S
C1505 C1506 1.434 . S
C1506 C1497 1.429 . S
C1506 N1503 1.350 . S
C1506 C1505 1.434 . S
C1507 C1508 1.369 . S
C1507 C1509 1.419 . S
C1507 H1511 0.930 . S
C1508 C1507 1.369 . S
C1508 C1517 1.429 . S
C1509 C1507 1.419 . S
C1509 C1510 1.363 . S
C1509 H1512 0.929 . S
C1510 C1509 1.363 . S
C1510 C1516 1.428 . S
H1511 C1507 0.930 . S
H1512 C1509 0.929 . S
S1513 N1514 1.613 . S
S1513 N1515 1.610 . S
N1514 S1513 1.613 . S
N1514 C1517 1.350 . S
N1515 S1513 1.610 . S
N1515 C1516 1.351 . S
C1516 C1510 1.428 . S
C1516 N1515 1.351 . S
C1516 C1517 1.434 . S
C1517 C1508 1.429 . S
C1517 N1514 1.350 . S
C1517 C1516 1.434 . S
C1518 C1519 1.369 . S
C1518 C1520 1.419 . S
C1518 H1522 0.930 . S
C1519 C1518 1.369 . S
C1519 C1528 1.429 . S
C1520 C1518 1.419 . S
C1520 C1521 1.363 . S
C1520 H1523 0.929 . S
C1521 C1520 1.363 . S
C1521 C1527 1.428 . S
H1522 C1518 0.930 . S
H1523 C1520 0.929 . S
S1524 N1525 1.613 . S
S1524 N1526 1.607 1_655 S
N1525 S1524 1.613 . S
N1525 C1528 1.350 . S
N1526 S1524 1.607 1_455 S
N1526 C1527 1.349 1_455 S
C1527 C1521 1.428 . S
C1527 N1526 1.349 1_655 S
C1527 C1528 1.434 . S
C1528 C1519 1.429 . S
C1528 N1525 1.350 . S
C1528 C1527 1.434 . S
C1529 C1530 1.369 . S
C1529 C1531 1.419 . S
C1529 H1533 0.930 . S
C1530 C1529 1.369 . S
C1530 C1539 1.429 . S
C1531 C1529 1.419 . S
C1531 C1532 1.363 . S
C1531 H1534 0.929 . S
C1532 C1531 1.363 . S
C1532 C1538 1.428 . S
H1533 C1529 0.930 . S
H1534 C1531 0.929 . S
S1535 N1536 1.613 . S
S1535 N1537 1.610 . S
N1536 S1535 1.613 . S
N1536 C1539 1.350 . S
N1537 S1535 1.610 . S
N1537 C1538 1.351 . S
C1538 C1532 1.428 . S
C1538 N1537 1.351 . S
C1538 C1539 1.434 . S
C1539 C1530 1.429 . S
C1539 N1536 1.350 . S
C1539 C1538 1.434 . S
C1540 C1541 1.369 . S
C1540 C1542 1.419 . S
C1540 H1544 0.930 . S
C1541 C1540 1.369 . S
C1541 C1550 1.429 . S
C1542 C1540 1.419 . S
C1542 C1543 1.363 . S
C1542 H1545 0.929 . S
C1543 C1542 1.363 . S
C1543 C1549 1.428 . S
H1544 C1540 0.930 . S
H1545 C1542 0.929 . S
S1546 N1547 1.613 . S
S1546 N1548 1.610 . S
N1547 S1546 1.613 . S
N1547 C1550 1.350 . S
N1548 S1546 1.610 . S
N1548 C1549 1.351 . S
C1549 C1543 1.428 . S
C1549 N1548 1.351 . S
C1549 C1550 1.434 . S
C1550 C1541 1.429 . S
C1550 N1547 1.350 . S
C1550 C1549 1.434 . S
C1551 C1552 1.369 . S
C1551 C1553 1.419 . S
C1551 H1555 0.930 . S
C1552 C1551 1.369 . S
C1552 C1561 1.429 . S
C1553 C1551 1.419 . S
C1553 C1554 1.363 . S
C1553 H1556 0.929 . S
C1554 C1553 1.363 . S
C1554 C1560 1.428 . S
H1555 C1551 0.930 . S
H1556 C1553 0.929 . S
S1557 N1558 1.613 . S
S1557 N1559 1.610 . S
N1558 S1557 1.613 . S
N1558 C1561 1.350 . S
N1559 S1557 1.610 . S
N1559 C1560 1.351 . S
C1560 C1554 1.428 . S
C1560 N1559 1.351 . S
C1560 C1561 1.434 . S
C1561 C1552 1.429 . S
C1561 N1558 1.350 . S
C1561 C1560 1.434 . S
C1562 C1563 1.369 . S
C1562 C1564 1.419 . S
C1562 H1566 0.930 . S
C1563 C1562 1.369 . S
C1563 C1572 1.429 . S
C1564 C1562 1.419 . S
C1564 C1565 1.363 . S
C1564 H1567 0.929 1_655 S
C1565 C1564 1.363 . S
C1565 C1571 1.428 . S
H1566 C1562 0.930 . S
H1567 C1564 0.929 1_455 S
S1568 N1569 1.613 . S
S1568 N1570 1.610 . S
N1569 S1568 1.613 . S
N1569 C1572 1.350 . S
N1570 S1568 1.610 . S
N1570 C1571 1.351 . S
C1571 C1565 1.428 . S
C1571 N1570 1.351 . S
C1571 C1572 1.434 . S
C1572 C1563 1.429 . S
C1572 N1569 1.350 . S
C1572 C1571 1.434 . S
C1573 C1574 1.369 . S
C1573 C1575 1.419 . S
C1573 H1577 0.930 . S
C1574 C1573 1.369 . S
C1574 C1583 1.429 . S
C1575 C1573 1.419 . S
C1575 C1576 1.363 . S
C1575 H1578 0.929 . S
C1576 C1575 1.363 . S
C1576 C1582 1.428 . S
H1577 C1573 0.930 . S
H1578 C1575 0.929 . S
S1579 N1580 1.613 . S
S1579 N1581 1.610 . S
N1580 S1579 1.613 . S
N1580 C1583 1.350 . S
N1581 S1579 1.610 . S
N1581 C1582 1.351 . S
C1582 C1576 1.428 . S
C1582 N1581 1.351 . S
C1582 C1583 1.434 . S
C1583 C1574 1.429 . S
C1583 N1580 1.350 . S
C1583 C1582 1.434 . S
C1584 C1585 1.369 . S
C1584 C1586 1.419 . S
C1584 H1588 0.930 . S
C1585 C1584 1.369 . S
C1585 C1594 1.429 . S
C1586 C1584 1.419 . S
C1586 C1587 1.363 . S
C1586 H1589 0.929 . S
C1587 C1586 1.363 . S
C1587 C1593 1.428 . S
H1588 C1584 0.930 . S
H1589 C1586 0.929 . S
S1590 N1591 1.613 . S
S1590 N1592 1.610 . S
N1591 S1590 1.613 . S
N1591 C1594 1.350 . S
N1592 S1590 1.610 . S
N1592 C1593 1.351 . S
C1593 C1587 1.428 . S
C1593 N1592 1.351 . S
C1593 C1594 1.434 . S
C1594 C1585 1.429 . S
C1594 N1591 1.350 . S
C1594 C1593 1.434 . S
C1595 C1596 1.369 . S
C1595 C1597 1.419 . S
C1595 H1599 0.930 . S
C1596 C1595 1.369 . S
C1596 C1605 1.429 . S
C1597 C1595 1.419 . S
C1597 C1598 1.363 . S
C1597 H1600 0.929 . S
C1598 C1597 1.363 . S
C1598 C1604 1.422 1_565 S
H1599 C1595 0.930 . S
H1600 C1597 0.929 . S
S1601 N1602 1.613 . S
S1601 N1603 1.610 . S
N1602 S1601 1.613 . S
N1602 C1605 1.350 1_545 S
N1603 S1601 1.610 . S
N1603 C1604 1.362 . S
C1604 C1598 1.422 1_545 S
C1604 N1603 1.362 . S
C1604 C1605 1.430 1_545 S
C1605 C1596 1.429 . S
C1605 N1602 1.350 1_565 S
C1605 C1604 1.430 1_565 S
C1606 C1607 1.369 . S
C1606 C1608 1.419 . S
C1606 H1610 0.930 . S
C1607 C1606 1.369 . S
C1607 C1616 1.429 . S
C1608 C1606 1.419 . S
C1608 C1609 1.363 . S
C1608 H1611 0.929 . S
C1609 C1608 1.363 . S
C1609 C1615 1.428 . S
H1610 C1606 0.930 . S
H1611 C1608 0.929 . S
S1612 N1613 1.613 . S
S1612 N1614 1.610 . S
N1613 S1612 1.613 . S
N1613 C1616 1.350 . S
N1614 S1612 1.610 . S
N1614 C1615 1.351 . S
C1615 C1609 1.428 . S
C1615 N1614 1.351 . S
C1615 C1616 1.434 . S
C1616 C1607 1.429 . S
C1616 N1613 1.350 . S
C1616 C1615 1.434 . S
C1617 C1618 1.369 . S
C1617 C1619 1.419 . S
C1617 H1621 0.930 . S
C1618 C1617 1.369 . S
C1618 C1627 1.429 . S
C1619 C1617 1.419 . S
C1619 C1620 1.363 . S
C1619 H1622 0.929 . S
C1620 C1619 1.363 . S
C1620 C1626 1.428 . S
H1621 C1617 0.930 . S
H1622 C1619 0.929 . S
S1623 N1624 1.613 1_565 S
S1623 N1625 1.610 . S
N1624 S1623 1.613 1_545 S
N1624 C1627 1.350 . S
N1625 S1623 1.610 . S
N1625 C1626 1.351 1_565 S
C1626 C1620 1.428 . S
C1626 N1625 1.351 1_545 S
C1626 C1627 1.434 . S
C1627 C1618 1.429 . S
C1627 N1624 1.350 . S
C1627 C1626 1.434 . S
C1628 C1629 1.369 . S
C1628 C1630 1.419 . S
C1628 H1632 0.930 . S
C1629 C1628 1.369 . S
C1629 C1638 1.429 . S
C1630 C1628 1.419 . S
C1630 C1631 1.363 . S
C1630 H1633 0.929 . S
C1631 C1630 1.363 . S
C1631 C1637 1.428 . S
H1632 C1628 0.930 . S
H1633 C1630 0.929 . S
S1634 N1635 1.613 . S
S1634 N1636 1.610 . S
N1635 S1634 1.613 . S
N1635 C1638 1.350 . S
N1636 S1634 1.610 . S
N1636 C1637 1.351 . S
C1637 C1631 1.428 . S
C1637 N1636 1.351 . S
C1637 C1638 1.434 . S
C1638 C1629 1.429 . S
C1638 N1635 1.350 . S
C1638 C1637 1.434 . S
C1639 C1640 1.369 . S
C1639 C1641 1.419 . S
C1639 H1643 0.930 . S
C1640 C1639 1.369 . S
C1640 C1649 1.429 . S
C1641 C1639 1.419 . S
C1641 C1642 1.363 . S
C1641 H1644 0.929 . S
C1642 C1641 1.363 . S
C1642 C1648 1.428 . S
H1643 C1639 0.930 . S
H1644 C1641 0.929 . S
S1645 N1646 1.613 1_556 S
S1645 N1647 1.610 . S
N1646 S1645 1.613 1_554 S
N1646 C1649 1.350 . S
N1647 S1645 1.610 . S
N1647 C1648 1.351 1_556 S
C1648 C1642 1.428 . S
C1648 N1647 1.351 1_554 S
C1648 C1649 1.434 . S
C1649 C1640 1.429 . S
C1649 N1646 1.350 . S
C1649 C1648 1.434 . S
C1650 C1651 1.369 . S
C1650 C1652 1.419 . S
C1650 H1654 0.930 . S
C1651 C1650 1.369 . S
C1651 C1660 1.429 . S
C1652 C1650 1.419 . S
C1652 C1653 1.363 . S
C1652 H1655 0.929 . S
C1653 C1652 1.363 . S
C1653 C1659 1.428 . S
H1654 C1650 0.930 . S
H1655 C1652 0.929 . S
S1656 N1657 1.613 . S
S1656 N1658 1.610 . S
N1657 S1656 1.613 . S
N1657 C1660 1.350 . S
N1658 S1656 1.610 . S
N1658 C1659 1.351 . S
C1659 C1653 1.428 . S
C1659 N1658 1.351 . S
C1659 C1660 1.434 . S
C1660 C1651 1.429 . S
C1660 N1657 1.350 . S
C1660 C1659 1.434 . S
C1661 C1662 1.369 . S
C1661 C1663 1.419 . S
C1661 H1665 0.930 . S
C1662 C1661 1.369 . S
C1662 C1671 1.429 . S
C1663 C1661 1.419 . S
C1663 C1664 1.363 . S
C1663 H1666 0.929 . S
C1664 C1663 1.363 . S
C1664 C1670 1.428 . S
H1665 C1661 0.930 . S
H1666 C1663 0.929 . S
S1667 N1668 1.613 . S
S1667 N1669 1.610 . S
N1668 S1667 1.613 . S
N1668 C1671 1.350 . S
N1669 S1667 1.610 . S
N1669 C1670 1.351 . S
C1670 C1664 1.428 . S
C1670 N1669 1.351 . S
C1670 C1671 1.434 . S
C1671 C1662 1.429 . S
C1671 N1668 1.350 . S
C1671 C1670 1.434 . S
C1672 C1673 1.369 . S
C1672 C1674 1.419 . S
C1672 H1676 0.930 . S
C1673 C1672 1.369 . S
C1673 C1682 1.429 . S
C1674 C1672 1.419 . S
C1674 C1675 1.363 . S
C1674 H1677 0.929 . S
C1675 C1674 1.363 . S
C1675 C1681 1.428 . S
H1676 C1672 0.930 . S
H1677 C1674 0.929 . S
S1678 N1679 1.613 . S
S1678 N1680 1.610 . S
N1679 S1678 1.613 . S
N1679 C1682 1.350 . S
N1680 S1678 1.610 . S
N1680 C1681 1.351 . S
C1681 C1675 1.428 . S
C1681 N1680 1.351 . S
C1681 C1682 1.434 . S
C1682 C1673 1.429 . S
C1682 N1679 1.350 . S
C1682 C1681 1.434 . S
C1683 C1684 1.369 . S
C1683 C1685 1.419 . S
C1683 H1687 0.930 . S
C1684 C1683 1.369 . S
C1684 C1693 1.429 . S
C1685 C1683 1.419 . S
C1685 C1686 1.363 . S
C1685 H1688 0.929 . S
C1686 C1685 1.363 . S
C1686 C1692 1.428 . S
H1687 C1683 0.930 . S
H1688 C1685 0.929 . S
S1689 N1690 1.613 . S
S1689 N1691 1.610 . S
N1690 S1689 1.613 . S
N1690 C1693 1.350 . S
N1691 S1689 1.610 . S
N1691 C1692 1.351 . S
C1692 C1686 1.428 . S
C1692 N1691 1.351 . S
C1692 C1693 1.434 . S
C1693 C1684 1.429 . S
C1693 N1690 1.350 . S
C1693 C1692 1.434 . S
C1694 C1695 1.366 1_655 S
C1694 C1696 1.419 . S
C1694 H1698 0.930 . S
C1695 C1694 1.366 1_455 S
C1695 C1704 1.431 . S
C1696 C1694 1.419 . S
C1696 C1697 1.363 . S
C1696 H1699 0.929 . S
C1697 C1696 1.363 . S
C1697 C1703 1.428 1_655 S
H1698 C1694 0.930 . S
H1699 C1696 0.929 . S
S1700 N1701 1.613 . S
S1700 N1702 1.610 . S
N1701 S1700 1.613 . S
N1701 C1704 1.350 . S
N1702 S1700 1.610 . S
N1702 C1703 1.351 . S
C1703 C1697 1.428 1_455 S
C1703 N1702 1.351 . S
C1703 C1704 1.434 . S
C1704 C1695 1.431 . S
C1704 N1701 1.350 . S
C1704 C1703 1.434 . S
C1705 C1706 1.369 . S
C1705 C1707 1.419 . S
C1705 H1709 0.930 . S
C1706 C1705 1.369 . S
C1706 C1715 1.429 . S
C1707 C1705 1.419 . S
C1707 C1708 1.363 . S
C1707 H1710 0.929 . S
C1708 C1707 1.363 . S
C1708 C1714 1.428 . S
H1709 C1705 0.930 . S
H1710 C1707 0.929 . S
S1711 N1712 1.613 . S
S1711 N1713 1.610 . S
N1712 S1711 1.613 . S
N1712 C1715 1.350 . S
N1713 S1711 1.610 . S
N1713 C1714 1.351 . S
C1714 C1708 1.428 . S
C1714 N1713 1.351 . S
C1714 C1715 1.434 . S
C1715 C1706 1.429 . S
C1715 N1712 1.350 . S
C1715 C1714 1.434 . S
C1716 C1717 1.369 . S
C1716 C1718 1.419 . S
C1716 H1720 0.930 . S
C1717 C1716 1.369 . S
C1717 C1726 1.429 . S
C1718 C1716 1.419 . S
C1718 C1719 1.363 . S
C1718 H1721 0.929 . S
C1719 C1718 1.363 . S
C1719 C1725 1.428 . S
H1720 C1716 0.930 . S
H1721 C1718 0.929 . S
S1722 N1723 1.613 . S
S1722 N1724 1.610 . S
N1723 S1722 1.613 . S
N1723 C1726 1.350 . S
N1724 S1722 1.610 . S
N1724 C1725 1.351 . S
C1725 C1719 1.428 . S
C1725 N1724 1.351 . S
C1725 C1726 1.434 . S
C1726 C1717 1.429 . S
C1726 N1723 1.350 . S
C1726 C1725 1.434 . S
C1727 C1728 1.369 . S
C1727 C1729 1.419 . S
C1727 H1731 0.930 . S
C1728 C1727 1.369 . S
C1728 C1737 1.429 . S
C1729 C1727 1.419 . S
C1729 C1730 1.363 . S
C1729 H1732 0.929 . S
C1730 C1729 1.363 . S
C1730 C1736 1.428 . S
H1731 C1727 0.930 . S
H1732 C1729 0.929 . S
S1733 N1734 1.613 . S
S1733 N1735 1.610 . S
N1734 S1733 1.613 . S
N1734 C1737 1.350 . S
N1735 S1733 1.610 . S
N1735 C1736 1.351 . S
C1736 C1730 1.428 . S
C1736 N1735 1.351 . S
C1736 C1737 1.434 . S
C1737 C1728 1.429 . S
C1737 N1734 1.350 . S
C1737 C1736 1.434 . S
C1738 C1739 1.369 . S
C1738 C1740 1.419 . S
C1738 H1742 0.930 . S
C1739 C1738 1.369 . S
C1739 C1748 1.429 . S
C1740 C1738 1.419 . S
C1740 C1741 1.363 . S
C1740 H1743 0.929 . S
C1741 C1740 1.363 . S
C1741 C1747 1.428 . S
H1742 C1738 0.930 . S
H1743 C1740 0.929 . S
S1744 N1745 1.613 1_655 S
S1744 N1746 1.610 1_655 S
N1745 S1744 1.613 1_455 S
N1745 C1748 1.350 . S
N1746 S1744 1.610 1_455 S
N1746 C1747 1.351 . S
C1747 C1741 1.428 . S
C1747 N1746 1.351 . S
C1747 C1748 1.434 . S
C1748 C1739 1.429 . S
C1748 N1745 1.350 . S
C1748 C1747 1.434 . S
C1749 C1750 1.369 . S
C1749 C1751 1.419 . S
C1749 H1753 0.930 . S
C1750 C1749 1.369 . S
C1750 C1759 1.429 . S
C1751 C1749 1.419 . S
C1751 C1752 1.363 . S
C1751 H1754 0.929 . S
C1752 C1751 1.363 . S
C1752 C1758 1.428 . S
H1753 C1749 0.930 . S
H1754 C1751 0.929 . S
S1755 N1756 1.613 . S
S1755 N1757 1.610 . S
N1756 S1755 1.613 . S
N1756 C1759 1.350 . S
N1757 S1755 1.610 . S
N1757 C1758 1.351 . S
C1758 C1752 1.428 . S
C1758 N1757 1.351 . S
C1758 C1759 1.434 . S
C1759 C1750 1.429 . S
C1759 N1756 1.350 . S
C1759 C1758 1.434 . S
C1760 C1761 1.369 . S
C1760 C1762 1.419 . S
C1760 H1764 0.930 . S
C1761 C1760 1.369 . S
C1761 C1770 1.429 . S
C1762 C1760 1.419 . S
C1762 C1763 1.363 . S
C1762 H1765 0.929 . S
C1763 C1762 1.363 . S
C1763 C1769 1.428 . S
H1764 C1760 0.930 . S
H1765 C1762 0.929 . S
S1766 N1767 1.613 . S
S1766 N1768 1.610 . S
N1767 S1766 1.613 . S
N1767 C1770 1.350 . S
N1768 S1766 1.610 . S
N1768 C1769 1.351 . S
C1769 C1763 1.428 . S
C1769 N1768 1.351 . S
C1769 C1770 1.434 . S
C1770 C1761 1.429 . S
C1770 N1767 1.350 . S
C1770 C1769 1.434 . S
C1771 C1772 1.369 . S
C1771 C1773 1.419 . S
C1771 H1775 0.930 . S
C1772 C1771 1.369 . S
C1772 C1781 1.429 . S
C1773 C1771 1.419 . S
C1773 C1774 1.363 . S
C1773 H1776 0.929 . S
C1774 C1773 1.363 . S
C1774 C1780 1.428 . S
H1775 C1771 0.930 . S
H1776 C1773 0.929 . S
S1777 N1778 1.613 . S
S1777 N1779 1.610 . S
N1778 S1777 1.613 . S
N1778 C1781 1.350 . S
N1779 S1777 1.610 . S
N1779 C1780 1.351 . S
C1780 C1774 1.428 . S
C1780 N1779 1.351 . S
C1780 C1781 1.434 . S
C1781 C1772 1.429 . S
C1781 N1778 1.350 . S
C1781 C1780 1.434 . S
C1782 C1783 1.369 . S
C1782 C1784 1.419 . S
C1782 H1786 0.930 . S
C1783 C1782 1.369 . S
C1783 C1792 1.429 . S
C1784 C1782 1.419 . S
C1784 C1785 1.363 . S
C1784 H1787 0.929 . S
C1785 C1784 1.363 . S
C1785 C1791 1.428 . S
H1786 C1782 0.930 . S
H1787 C1784 0.929 . S
S1788 N1789 1.613 . S
S1788 N1790 1.610 . S
N1789 S1788 1.613 . S
N1789 C1792 1.350 . S
N1790 S1788 1.610 . S
N1790 C1791 1.351 . S
C1791 C1785 1.428 . S
C1791 N1790 1.351 . S
C1791 C1792 1.434 . S
C1792 C1783 1.429 . S
C1792 N1789 1.350 . S
C1792 C1791 1.434 . S
C1793 C1794 1.369 . S
C1793 C1795 1.419 . S
C1793 H1797 0.930 . S
C1794 C1793 1.369 . S
C1794 C1803 1.429 . S
C1795 C1793 1.419 . S
C1795 C1796 1.363 . S
C1795 H1798 0.929 . S
C1796 C1795 1.363 . S
C1796 C1802 1.428 . S
H1797 C1793 0.930 . S
H1798 C1795 0.929 . S
S1799 N1800 1.613 . S
S1799 N1801 1.610 . S
N1800 S1799 1.613 . S
N1800 C1803 1.350 . S
N1801 S1799 1.610 . S
N1801 C1802 1.351 . S
C1802 C1796 1.428 . S
C1802 N1801 1.351 . S
C1802 C1803 1.434 . S
C1803 C1794 1.429 . S
C1803 N1800 1.350 . S
C1803 C1802 1.434 . S
C1804 C1805 1.369 . S
C1804 C1806 1.419 . S
C1804 H1808 0.930 . S
C1805 C1804 1.369 . S
C1805 C1814 1.429 . S
C1806 C1804 1.419 . S
C1806 C1807 1.363 . S
C1806 H1809 0.929 . S
C1807 C1806 1.363 . S
C1807 C1813 1.428 . S
H1808 C1804 0.930 . S
H1809 C1806 0.929 . S
S1810 N1811 1.613 . S
S1810 N1812 1.610 . S
N1811 S1810 1.613 . S
N1811 C1814 1.350 . S
N1812 S1810 1.610 . S
N1812 C1813 1.351 . S
C1813 C1807 1.428 . S
C1813 N1812 1.351 . S
C1813 C1814 1.434 . S
C1814 C1805 1.429 . S
C1814 N1811 1.350 . S
C1814 C1813 1.434 . S
C1815 C1816 1.369 . S
C1815 C1817 1.419 . S
C1815 H1819 0.930 . S
C1816 C1815 1.369 . S
C1816 C1825 1.429 . S
C1817 C1815 1.419 . S
C1817 C1818 1.363 . S
C1817 H1820 0.929 . S
C1818 C1817 1.363 . S
C1818 C1824 1.428 . S
H1819 C1815 0.930 . S
H1820 C1817 0.929 . S
S1821 N1822 1.613 . S
S1821 N1823 1.610 . S
N1822 S1821 1.613 . S
N1822 C1825 1.350 . S
N1823 S1821 1.610 . S
N1823 C1824 1.351 . S
C1824 C1818 1.428 . S
C1824 N1823 1.351 . S
C1824 C1825 1.434 . S
C1825 C1816 1.429 . S
C1825 N1822 1.350 . S
C1825 C1824 1.434 . S
C1826 C1827 1.369 . S
C1826 C1828 1.419 . S
C1826 H1830 0.930 . S
C1827 C1826 1.369 . S
C1827 C1836 1.429 . S
C1828 C1826 1.419 . S
C1828 C1829 1.363 . S
C1828 H1831 0.929 . S
C1829 C1828 1.363 . S
C1829 C1835 1.428 . S
H1830 C1826 0.930 . S
H1831 C1828 0.929 . S
S1832 N1833 1.613 . S
S1832 N1834 1.610 . S
N1833 S1832 1.613 . S
N1833 C1836 1.350 . S
N1834 S1832 1.610 . S
N1834 C1835 1.351 . S
C1835 C1829 1.428 . S
C1835 N1834 1.351 . S
C1835 C1836 1.434 . S
C1836 C1827 1.429 . S
C1836 N1833 1.350 . S
C1836 C1835 1.434 . S
C1837 C1838 1.369 . S
C1837 C1839 1.419 . S
C1837 H1841 0.930 . S
C1838 C1837 1.369 . S
C1838 C1847 1.429 . S
C1839 C1837 1.419 . S
C1839 C1840 1.363 . S
C1839 H1842 0.929 . S
C1840 C1839 1.363 . S
C1840 C1846 1.428 . S
H1841 C1837 0.930 . S
H1842 C1839 0.929 . S
S1843 N1844 1.613 . S
S1843 N1845 1.610 . S
N1844 S1843 1.613 . S
N1844 C1847 1.350 . S
N1845 S1843 1.610 . S
N1845 C1846 1.351 . S
C1846 C1840 1.428 . S
C1846 N1845 1.351 . S
C1846 C1847 1.434 . S
C1847 C1838 1.429 . S
C1847 N1844 1.350 . S
C1847 C1846 1.434 . S
C1848 C1849 1.369 . S
C1848 C1850 1.419 . S
C1848 H1852 0.930 . S
C1849 C1848 1.369 . S
C1849 C1858 1.429 . S
C1850 C1848 1.419 . S
C1850 C1851 1.363 . S
C1850 H1853 0.929 . S
C1851 C1850 1.363 . S
C1851 C1857 1.428 . S
H1852 C1848 0.930 . S
H1853 C1850 0.929 . S
S1854 N1855 1.613 . S
S1854 N1856 1.610 . S
N1855 S1854 1.613 . S
N1855 C1858 1.350 . S
N1856 S1854 1.610 . S
N1856 C1857 1.351 . S
C1857 C1851 1.428 . S
C1857 N1856 1.351 . S
C1857 C1858 1.434 . S
C1858 C1849 1.429 . S
C1858 N1855 1.350 . S
C1858 C1857 1.434 . S
C1859 C1860 1.369 . S
C1859 C1861 1.419 . S
C1859 H1863 0.930 . S
C1860 C1859 1.369 . S
C1860 C1869 1.429 . S
C1861 C1859 1.419 . S
C1861 C1862 1.363 . S
C1861 H1864 0.929 . S
C1862 C1861 1.363 . S
C1862 C1868 1.428 . S
H1863 C1859 0.930 . S
H1864 C1861 0.929 . S
S1865 N1866 1.613 . S
S1865 N1867 1.610 . S
N1866 S1865 1.613 . S
N1866 C1869 1.350 . S
N1867 S1865 1.610 . S
N1867 C1868 1.351 . S
C1868 C1862 1.428 . S
C1868 N1867 1.351 . S
C1868 C1869 1.434 . S
C1869 C1860 1.429 . S
C1869 N1866 1.350 . S
C1869 C1868 1.434 . S
C1870 C1871 1.369 . S
C1870 C1872 1.419 . S
C1870 H1874 0.930 . S
C1871 C1870 1.369 . S
C1871 C1880 1.429 . S
C1872 C1870 1.419 . S
C1872 C1873 1.363 . S
C1872 H1875 0.929 . S
C1873 C1872 1.363 . S
C1873 C1879 1.428 . S
H1874 C1870 0.930 . S
H1875 C1872 0.929 . S
S1876 N1877 1.613 . S
S1876 N1878 1.610 . S
N1877 S1876 1.613 . S
N1877 C1880 1.350 . S
N1878 S1876 1.610 . S
N1878 C1879 1.351 . S
C1879 C1873 1.428 . S
C1879 N1878 1.351 . S
C1879 C1880 1.434 . S
C1880 C1871 1.429 . S
C1880 N1877 1.350 . S
C1880 C1879 1.434 . S
C1881 C1882 1.369 . S
C1881 C1883 1.419 . S
C1881 H1885 0.930 . S
C1882 C1881 1.369 . S
C1882 C1891 1.429 . S
C1883 C1881 1.419 . S
C1883 C1884 1.363 . S
C1883 H1886 0.929 . S
C1884 C1883 1.363 . S
C1884 C1890 1.428 1_565 S
H1885 C1881 0.930 . S
H1886 C1883 0.929 . S
S1887 N1888 1.613 . S
S1887 N1889 1.610 . S
N1888 S1887 1.613 . S
N1888 C1891 1.350 1_545 S
N1889 S1887 1.610 . S
N1889 C1890 1.351 . S
C1890 C1884 1.428 1_545 S
C1890 N1889 1.351 . S
C1890 C1891 1.434 1_545 S
C1891 C1882 1.429 . S
C1891 N1888 1.350 1_565 S
C1891 C1890 1.434 1_565 S
C1892 C1893 1.369 . S
C1892 C1894 1.419 . S
C1892 H1896 0.930 . S
C1893 C1892 1.369 . S
C1893 C1902 1.429 . S
C1894 C1892 1.419 . S
C1894 C1895 1.363 . S
C1894 H1897 0.929 . S
C1895 C1894 1.363 . S
C1895 C1901 1.428 . S
H1896 C1892 0.930 . S
H1897 C1894 0.929 . S
S1898 N1899 1.613 . S
S1898 N1900 1.610 . S
N1899 S1898 1.613 . S
N1899 C1902 1.350 . S
N1900 S1898 1.610 . S
N1900 C1901 1.351 . S
C1901 C1895 1.428 . S
C1901 N1900 1.351 . S
C1901 C1902 1.434 . S
C1902 C1893 1.429 . S
C1902 N1899 1.350 . S
C1902 C1901 1.434 . S
C1903 C1904 1.369 . S
C1903 C1905 1.419 . S
C1903 H1907 0.930 . S
C1904 C1903 1.369 . S
C1904 C1913 1.429 1_554 S
C1905 C1903 1.419 . S
C1905 C1906 1.363 . S
C1905 H1908 0.929 . S
C1906 C1905 1.363 . S
C1906 C1912 1.428 . S
H1907 C1903 0.930 . S
H1908 C1905 0.929 . S
S1909 N1910 1.613 . S
S1909 N1911 1.610 . S
N1910 S1909 1.613 . S
N1910 C1913 1.350 . S
N1911 S1909 1.610 . S
N1911 C1912 1.351 1_556 S
C1912 C1906 1.428 . S
C1912 N1911 1.351 1_554 S
C1912 C1913 1.434 1_554 S
C1913 C1904 1.429 1_556 S
C1913 N1910 1.350 . S
C1913 C1912 1.434 1_556 S
C1914 C1915 1.369 . S
C1914 C1916 1.419 . S
C1914 H1918 0.930 . S
C1915 C1914 1.369 . S
C1915 C1924 1.429 . S
C1916 C1914 1.419 . S
C1916 C1917 1.363 . S
C1916 H1919 0.929 . S
C1917 C1916 1.363 . S
C1917 C1923 1.428 . S
H1918 C1914 0.930 . S
H1919 C1916 0.929 . S
S1920 N1921 1.613 . S
S1920 N1922 1.610 . S
N1921 S1920 1.613 . S
N1921 C1924 1.350 . S
N1922 S1920 1.610 . S
N1922 C1923 1.351 . S
C1923 C1917 1.428 . S
C1923 N1922 1.351 . S
C1923 C1924 1.434 . S
C1924 C1915 1.429 . S
C1924 N1921 1.350 . S
C1924 C1923 1.434 . S
C1925 C1926 1.369 . S
C1925 C1927 1.419 . S
C1925 H1929 0.930 . S
C1926 C1925 1.369 . S
C1926 C1935 1.429 . S
C1927 C1925 1.419 . S
C1927 C1928 1.363 . S
C1927 H1930 0.929 . S
C1928 C1927 1.363 . S
C1928 C1934 1.428 . S
H1929 C1925 0.930 . S
H1930 C1927 0.929 . S
S1931 N1932 1.613 . S
S1931 N1933 1.610 . S
N1932 S1931 1.613 . S
N1932 C1935 1.350 . S
N1933 S1931 1.610 . S
N1933 C1934 1.351 . S
C1934 C1928 1.428 . S
C1934 N1933 1.351 . S
C1934 C1935 1.434 . S
C1935 C1926 1.429 . S
C1935 N1932 1.350 . S
C1935 C1934 1.434 . S
C883 C353 1.312 . S
C881 C7 1.281 . S
C892 C22 1.974 . S
C894 C399 1.962 . S
C903 C31 1.058 . S
C905 C408 1.042 . S
C916 C446 1.783 . S
C914 C51 1.835 . S
C925 C17 1.803 . S
C927 C480 1.754 . S
C938 C510 0.954 . S
C936 C36 0.959 . S
C949 C569 1.760 1_556 S
C947 C49 1.737 . S
C958 C9 1.257 . S
C960 C582 1.234 . S
C969 C63 1.572 . S
C971 C365 1.538 . S
C980 C73 1.331 . S
C982 C383 1.310 . S
C993 C404 1.838 . S
C991 C91 1.822 . S
C1004 C442 1.112 . S
C1002 C101 1.142 . S
C1013 C59 1.435 . S
C1015 C476 1.395 . S
C1026 C506 1.747 . S
C1024 C77 1.756 . S
C1037 C553 1.375 . S
C1035 C87 1.421 . S
C1048 C578 0.908 . S
C1046 C105 0.892 . S
C1059 C349 0.896 1_556 S
C1057 C107 0.885 . S
C1070 C608 1.689 . S
C1068 C120 1.685 . S
C1079 C135 1.571 . S
C1081 C650 1.569 . S
C1092 C693 0.555 . S
C1090 C148 0.542 . S
C1101 C65 1.547 . S
C1103 C574 1.496 . S
C1114 C412 1.660 . S
C1112 C79 1.657 . S
C1123 C134 1.426 . S
C1125 C710 1.445 . S
C1136 C761 1.655 . S
C1134 C162 1.646 . S
C1145 C171 1.293 . S
C1147 C344 1.281 1_556 S
C1158 C744 1.926 . S
C1156 C190 1.934 . S
C1167 C203 1.014 . S
C1169 C417 1.038 . S
C1178 C219 1.801 . S
C1180 C727 1.743 . S
C1191 C489 1.727 . S
C1189 C189 1.683 . S
C1202 C655 0.937 . S
C1200 C204 0.938 . S
C1213 C540 1.724 . S
C1211 C213 1.743 . S
C1224 C795 1.221 . S
C1222 C177 1.243 . S
C1235 C336 1.497 1_655 S
C1233 C227 1.545 . S
C1244 C245 1.243 . S
C1246 C748 1.297 . S
C1257 C433 1.801 . S
C1255 C255 1.839 . S
C1266 C273 1.013 . S
C1268 C723 1.106 . S
C1277 C231 1.359 . S
C1279 C485 1.370 . S
C1288 C241 1.752 . S
C1290 C671 1.714 . S
C1301 C544 1.358 . S
C1299 C259 1.325 . S
C1310 C269 0.896 . S
C1312 C791 0.891 . S
C1321 C275 0.885 . S
C1323 C340 0.878 . S
C1332 C288 1.662 . S
C1334 C637 1.660 . S
C1343 C303 1.561 . S
C1345 C523 1.546 . S
C1354 C316 0.530 . S
C1356 C684 0.530 . S
C1367 C807 1.476 . S
C1365 C233 1.529 . S
C1378 C421 1.630 . S
C1376 C247 1.644 . S
C1389 C467 1.413 . S
C1387 C302 1.411 . S
C1400 C378 1.627 . S
C1398 C330 1.627 . S
C1409 C35 1.282 . S
C1411 C829 1.306 . S
C1422 C773 1.962 . S
C1420 C50 1.974 . S
C1433 C850 1.044 . S
C1431 C3 1.056 . S
C1442 C23 1.837 . S
C1444 C718 1.778 . S
C1453 C45 1.801 . S
C1455 C616 1.760 1_556 S
C1466 C646 0.949 . S
C1464 C8 0.956 . S
C1477 C705 1.761 . S
C1475 C21 1.740 . S
C1488 C786 1.235 . S
C1486 C37 1.253 . S
C1499 C841 1.533 . S
C1497 C161 1.574 . S
C1508 C115 1.335 1_556 S
C1510 C757 1.305 . S
C1519 C133 1.823 . S
C1521 C846 1.835 1_655 S
C1532 C714 1.109 . S
C1530 C143 1.146 . S
C1543 C612 1.395 . S
C1541 C157 1.435 . S
C1552 C119 1.750 . S
C1554 C642 1.750 . S
C1565 C689 1.373 . S
C1563 C129 1.421 . S
C1574 C147 0.897 . S
C1576 C782 0.897 . S
C1587 C825 0.887 . S
C1585 C149 0.892 . S
C1598 C472 1.689 . S
C1596 C78 1.683 . S
C1609 C514 1.572 . S
C1607 C93 1.570 . S
C1618 C106 0.539 . S
C1620 C557 0.565 . S
C1631 C778 1.494 . S
C1629 C163 1.551 . S
C1640 C121 1.650 . S
C1642 C854 1.663 . S
C1653 C438 1.444 . S
C1651 C92 1.429 . S
C1664 C387 1.657 . S
C1662 C64 1.648 . S
C1673 C199 1.296 . S
C1675 C820 1.279 . S
C1686 C370 1.928 . S
C1684 C218 1.932 . S
C1697 C859 1.036 . S
C1695 C175 1.018 1_455 S
C1706 C191 1.800 . S
C1708 C455 1.742 . S
C1717 C217 1.681 . S
C1719 C625 1.729 . S
C1728 C176 0.942 . S
C1730 C519 0.928 . S
C1739 C185 1.743 . S
C1741 C676 1.724 . S
C1750 C205 1.241 . S
C1752 C591 1.223 . S
C1763 C812 1.505 . S
C1761 C325 1.547 . S
C1772 C287 1.243 . S
C1774 C374 1.296 . S
C1785 C875 1.797 . S
C1783 C297 1.843 . S
C1794 C315 1.036 . S
C1796 C451 1.092 . S
C1805 C329 1.359 . S
C1807 C621 1.370 . S
C1818 C535 1.712 . S
C1816 C283 1.752 . S
C1827 C301 1.322 . S
C1829 C680 1.359 . S
C1840 C587 0.881 . S
C1838 C311 0.904 . S
C1851 C816 0.879 . S
C1849 C317 0.896 . S
C1862 C501 1.660 . S
C1860 C246 1.662 . S
C1871 C261 1.562 . S
C1873 C659 1.547 . S
C1884 C548 0.533 . S
C1882 C274 0.525 . S
C1895 C603 1.472 . S
C1893 C331 1.530 . S
C1904 C289 1.646 1_554 S
C1906 C863 1.630 . S
C1917 C739 1.413 . S
C1915 C260 1.409 . S
C1928 C752 1.629 . S
C1926 C232 1.628 . S
