# Generated by pormake.
# Topology rtl, (3,6)-cn, num edge types: 1
# Building blocks:
#     Node 0, Type 0, BuildingBlock: WUSLED_clean_sbu_0, # of connection points: 3
#     Node 1, Type 0, BuildingBlock: WUSLED_clean_sbu_0, # of connection points: 3
#     Node 2, Type 0, BuildingBlock: WUSLED_clean_sbu_0, # of connection points: 3
#     Node 3, Type 0, BuildingBlock: WUSLED_clean_sbu_0, # of connection points: 3
#     Node 4, Type 1, BuildingBlock: KUMBOL_clean_sbu_1, # of connection points: 6
#     Node 5, Type 1, BuildingBlock: KUMBOL_clean_sbu_1, # of connection points: 6
#     Edge 6, Type (0, 1), BuildingBlock: OJICUG_clean_linker_0, # of connection points: 2
#     Edge 7, Type (0, 1), BuildingBlock: OJICUG_clean_linker_0, # of connection points: 2
#     Edge 8, Type (0, 1), BuildingBlock: OJICUG_clean_linker_0, # of connection points: 2
#     Edge 9, Type (0, 1), BuildingBlock: OJICUG_clean_linker_0, # of connection points: 2
#     Edge 10, Type (0, 1), BuildingBlock: OJICUG_clean_linker_0, # of connection points: 2
#     Edge 11, Type (0, 1), BuildingBlock: OJICUG_clean_linker_0, # of connection points: 2
#     Edge 12, Type (0, 1), BuildingBlock: OJICUG_clean_linker_0, # of connection points: 2
#     Edge 13, Type (0, 1), BuildingBlock: OJICUG_clean_linker_0, # of connection points: 2
#     Edge 14, Type (0, 1), BuildingBlock: OJICUG_clean_linker_0, # of connection points: 2
#     Edge 15, Type (0, 1), BuildingBlock: OJICUG_clean_linker_0, # of connection points: 2
#     Edge 16, Type (0, 1), BuildingBlock: OJICUG_clean_linker_0, # of connection points: 2
#     Edge 17, Type (0, 1), BuildingBlock: OJICUG_clean_linker_0, # of connection points: 2
# Relax obj value: 0.017
# Max RMSD: 0.116
# Mean RMSD: 0.066
data_MOF--net-rtl--node1-WUSLED_clean_sbu_0--node2-KUMBOL_clean_sbu_1--edge1-OJICUG_clean_linker_0
_symmetry_space_group_name_H-M    P1
_symmetry_Int_Tables_number       1
_symmetry_cell_setting            triclinic
loop_
_symmetry_equiv_pos_as_xyz
'x, y, z'
_cell_length_a     33.458299
_cell_length_b     33.994951
_cell_length_c     29.412642
_cell_angle_alpha  79.22251
_cell_angle_beta   98.879662
_cell_angle_gamma 90.857953
loop_
_atom_site_label
_atom_site_type_symbol
_atom_site_fract_x
_atom_site_fract_y
_atom_site_fract_z
_atom_type_partial_charge
C0 C 0.20931 0.8512 0.15509 0.0
C1 C 0.17654 0.87759 0.13652 0.0
C2 C 0.16776 0.88535 0.21513 0.0
C3 C 0.15593 0.89447 0.16623 0.0
C4 C 0.20068 0.8588 0.23352 0.0
C5 C 0.22128 0.8419 0.2037 0.0
U6 U 0.224 0.84329 0.03226 0.0
O7 O 0.27937 0.83969 1.00112 0.0
O8 O 0.23476 0.7916 1.00059 0.0
C9 C 0.27054 0.8041 0.99134 0.0
C10 C 0.23102 0.83356 0.12379 0.0
C11 C 0.30363 0.77409 1.00371 0.0
C12 C 0.33474 0.71228 0.05012 0.0
C13 C 0.30485 0.74226 0.04203 0.0
C14 C 0.36333 0.74647 0.98288 0.0
C15 C 0.36389 0.71366 0.02008 0.0
C16 C 0.33344 0.77628 0.97477 0.0
C17 C 0.15589 0.9067 0.9295 0.0
C18 C 0.14759 0.89492 0.84955 0.0
C19 C 0.12398 0.95736 0.86529 0.0
C20 C 0.13738 0.94442 0.9131 0.0
C21 C 0.12876 0.93269 0.83299 0.0
C22 C 0.16126 0.88211 0.89742 0.0
C23 C 0.16916 0.89353 0.98008 0.0
O24 O 0.20933 0.81003 0.09914 0.0
O25 O 0.25311 0.8587 0.09888 0.0
O26 O 0.20563 0.90455 0.99611 0.0
O27 O 0.16146 0.85612 0.99721 0.0
H28 H 0.16684 0.88504 0.099 0.0
H29 H 0.13038 0.91428 0.15087 0.0
H30 H 0.21088 0.85149 0.27092 0.0
H31 H 0.24662 0.82167 0.21859 0.0
H32 H 0.33413 0.68731 0.07889 0.0
H33 H 0.28217 0.74005 0.06495 0.0
H34 H 0.38575 0.7489 0.95962 0.0
H35 H 0.33312 0.80071 0.94517 0.0
H36 H 0.15202 0.87544 0.82545 0.0
H37 H 0.10914 0.98639 0.85369 0.0
H38 H 0.13301 0.96378 0.93735 0.0
H39 H 0.17583 0.85297 0.90942 0.0
C40 C 0.67911 0.68815 0.77229 0.0
C41 C 0.64248 0.66911 0.76029 0.0
C42 C 0.63783 0.64558 0.84296 0.0
C43 C 0.62196 0.64819 0.79525 0.0
C44 C 0.6747 0.66451 0.85473 0.0
C45 C 0.69505 0.68563 0.81973 0.0
U46 U 0.70033 0.70909 0.64656 0.0
O47 O 0.75701 0.72089 0.61742 0.0
O48 O 0.70787 0.76587 0.59842 0.0
C49 C 0.7452 0.75695 0.59478 0.0
C50 C 0.70097 0.71042 0.73574 0.0
C51 C 0.77507 0.78945 0.59608 0.0
C52 C 0.83724 0.81805 0.63039 0.0
C53 C 0.80734 0.78859 0.63308 0.0
C54 C 0.80243 0.85001 0.55441 0.0
C55 C 0.83553 0.84873 0.59056 0.0
C56 C 0.77266 0.82073 0.55717 0.0
C57 C 0.63988 0.64587 0.56331 0.0
C58 C 0.64652 0.6475 0.4817 0.0
C59 C 0.59517 0.60669 0.51656 0.0
C60 C 0.6079 0.61914 0.55903 0.0
C61 C 0.61412 0.62081 0.47721 0.0
C62 C 0.65924 0.66004 0.52444 0.0
C63 C 0.65208 0.6582 0.60878 0.0
O64 O 0.7269 0.68918 0.72066 0.0
O65 O 0.6787 0.73494 0.7017 0.0
O66 O 0.6405 0.69431 0.61158 0.0
O67 O 0.68937 0.64917 0.62938 0.0
H68 H 0.62977 0.67036 0.72385 0.0
H69 H 0.59397 0.63352 0.78492 0.0
H70 H 0.68759 0.66343 0.89107 0.0
H71 H 0.72328 0.70007 0.82974 0.0
H72 H 0.86238 0.81604 0.65878 0.0
H73 H 0.80997 0.76472 0.66351 0.0
H74 H 0.79966 0.87354 0.52365 0.0
H75 H 0.74808 0.82204 0.52821 0.0
H76 H 0.66162 0.65912 0.45206 0.0
H77 H 0.57071 0.58554 0.51476 0.0
H78 H 0.59273 0.60774 0.58872 0.0
H79 H 0.68402 0.68078 0.52715 0.0
C80 C 0.83733 0.16136 0.22546 0.0
C81 C 0.85667 0.12502 0.22526 0.0
C82 C 0.88571 0.12073 0.30726 0.0
C83 C 0.88051 0.1047 0.26601 0.0
C84 C 0.86585 0.15689 0.30729 0.0
C85 C 0.84185 0.17696 0.26675 0.0
U86 U 0.81101 0.19003 0.09208 0.0
O87 O 0.75191 0.20569 0.04798 0.0
O88 O 0.8005 0.24982 0.04816 0.0
C89 C 0.76205 0.24313 0.03486 0.0
C90 C 0.8138 0.1844 0.18273 0.0
C91 C 0.73347 0.27353 0.04099 0.0
C92 C 0.7116 0.31995 0.08631 0.0
C93 C 0.73837 0.29014 0.08177 0.0
C94 C 0.67413 0.31594 1.01 0.0
C95 C 0.67935 0.33352 0.05023 0.0
C96 C 0.70099 0.28635 1.00542 0.0
C97 C 0.86837 0.13895 1.01414 0.0
C98 C 0.89309 0.16496 0.94089 0.0
C99 C 0.88474 0.09355 0.96453 0.0
C100 C 0.87073 0.10006 1.00499 0.0
C101 C 0.89704 0.12587 0.93262 0.0
C102 C 0.87875 0.17148 0.98113 0.0
C103 C 0.85832 0.14448 0.05978 0.0
O104 O 0.83457 0.21066 0.15747 0.0
O105 O 0.78847 0.16402 0.15748 0.0
O106 O 0.82199 0.13363 0.06865 0.0
O107 O 0.87002 0.17813 0.07333 0.0
H108 H 0.85378 0.1127 0.19351 0.0
H109 H 0.89571 0.07705 0.26495 0.0
H110 H 0.86892 0.16967 0.33874 0.0
H111 H 0.82718 0.20499 0.26749 0.0
H112 H 0.71673 0.33295 0.11759 0.0
H113 H 0.76316 0.2804 0.10984 0.0
H114 H 0.64915 0.32497 0.98196 0.0
H115 H 0.6965 0.2736 0.97392 0.0
H116 H 0.90187 0.19049 0.91664 0.0
H117 H 0.88772 0.06308 0.95934 0.0
H118 H 0.86298 0.07452 0.02998 0.0
H119 H 0.87695 0.20187 0.98702 0.0
C120 C 0.35652 0.34781 0.33246 0.0
C121 C 0.39484 0.36387 0.3443 0.0
C122 C 0.39786 0.39052 0.26187 0.0
C123 C 0.41537 0.38482 0.30937 0.0
C124 C 0.35928 0.37474 0.25023 0.0
C125 C 0.3389 0.35352 0.28518 0.0
U126 U 0.33526 0.32717 0.45807 0.0
O127 O 0.27883 0.31515 0.48768 0.0
O128 O 0.32848 0.27069 0.50706 0.0
C129 C 0.29129 0.27957 0.51129 0.0
C130 C 0.33464 0.32544 0.36901 0.0
C131 C 0.26173 0.24677 0.51235 0.0
C132 C 0.20078 0.21525 0.47975 0.0
C133 C 0.23045 0.24481 0.47503 0.0
C134 C 0.23381 0.18897 0.55859 0.0
C135 C 0.20173 0.18741 0.52198 0.0
C136 C 0.26339 0.21827 0.55378 0.0
C137 C 0.39412 0.39041 0.54138 0.0
C138 C 0.38607 0.38691 0.62288 0.0
C139 C 0.43706 0.42956 0.58982 0.0
C140 C 0.42539 0.41774 0.54679 0.0
C141 C 0.41774 0.41421 0.62853 0.0
C142 C 0.37442 0.375 0.57961 0.0
C143 C 0.38292 0.37862 0.4955 0.0
O144 O 0.35691 0.30101 0.40319 0.0
O145 O 0.30846 0.34652 0.38392 0.0
O146 O 0.34568 0.38738 0.47452 0.0
O147 O 0.39496 0.34269 0.49262 0.0
H148 H 0.4089 0.36026 0.3806 0.0
H149 H 0.44474 0.39706 0.31962 0.0
H150 H 0.34507 0.37832 0.214 0.0
H151 H 0.30935 0.34148 0.27526 0.0
H152 H 0.1764 0.21499 0.45094 0.0
H153 H 0.22845 0.26656 0.44272 0.0
H154 H 0.23594 0.16763 0.59123 0.0
H155 H 0.28722 0.21921 0.58303 0.0
H156 H 0.37072 0.37436 0.65202 0.0
H157 H 0.46098 0.45121 0.59254 0.0
H158 H 0.4408 0.43007 0.5176 0.0
H159 H 0.35019 0.35377 0.576 0.0
C160 C 0.94325 0.12922 0.51519 0.0
C161 C 0.87652 0.10636 0.48727 0.0
C162 C 0.91464 0.09909 0.51577 0.0
C163 C 0.86822 0.14353 0.45718 0.0
C164 C 0.93482 0.16677 0.4855 0.0
C165 C 0.89726 0.17366 0.45634 0.0
N166 N 0.97995 0.12125 0.54244 0.0
C167 C 1.00907 0.14975 0.54291 0.0
C168 C 0.96474 0.19603 0.48538 0.0
C169 C 1.00195 0.18752 0.51438 0.0
Gd170 Gd 0.04886 0.97772 0.53379 0.0
Gd171 Gd 0.9899 0.05667 0.58754 0.0
N172 N 0.92385 0.06298 0.54452 0.0
C173 C 0.84754 0.07631 0.4905 0.0
C174 C 0.89429 0.03528 0.55095 0.0
C175 C 0.85619 0.04097 0.52322 0.0
H176 H 0.89911 1.00936 0.57843 0.0
H177 H 0.83325 0.0184 0.52779 0.0
H178 H 0.13913 0.02104 0.56263 0.0
H179 H 0.03767 0.14344 0.56566 0.0
H180 H 0.20208 1.0043 0.61753 0.0
H181 H 0.81792 0.08072 0.46923 0.0
H182 H 0.83926 0.14943 0.43472 0.0
H183 H 0.99515 0.8937 0.54075 0.0
H184 H 0.95943 0.22522 0.46303 0.0
H185 H 0.02517 0.21002 0.51472 0.0
H186 H 0.18627 0.86734 0.689 0.0
H187 H 0.89038 0.20218 0.43297 0.0
H188 H 0.06333 0.80192 0.64098 0.0
H189 H 1.00121 0.8242 0.58507 0.0
N190 N 0.05254 0.91076 0.57239 0.0
C191 C 0.08739 0.89892 0.602 0.0
C192 C 0.02201 0.88444 0.56569 0.0
C193 C 0.06074 0.83248 0.62176 0.0
C194 C 0.02556 0.84497 0.59036 0.0
C195 C 0.09224 0.8595 0.62787 0.0
H196 H 0.13228 0.8183 0.67953 0.0
N197 N 0.11169 0.96499 0.58306 0.0
C198 C 0.1178 0.92679 0.60753 0.0
C199 C 0.18413 0.94414 0.64302 0.0
C200 C 0.15392 0.91559 0.63879 0.0
C201 C 0.14205 0.99215 0.58511 0.0
C202 C 0.17836 0.9824 0.6156 0.0
O203 O 0.9949 0.06913 0.51034 0.0
O204 O 0.99213 1.00737 0.48971 0.0
O205 O 0.08792 0.9878 0.48037 0.0
O206 O 0.04974 0.93598 0.48619 0.0
O207 O 0.96972 0.99145 0.59801 0.0
O208 O 0.98183 0.96851 0.5321 0.0
O209 O 0.0463 0.9661 0.61188 0.0
O210 O 0.04804 0.02897 0.62934 0.0
O211 O 0.95973 0.04625 0.64923 0.0
O212 O 0.98693 0.10323 0.62834 0.0
O213 O 0.07048 0.04232 0.52333 0.0
O214 O 0.05653 0.06849 0.58675 0.0
C215 C 0.98403 0.04593 0.47985 0.0
C216 C 0.96255 0.9665 0.56827 0.0
C217 C 0.06358 0.96443 0.41098 0.0
C218 C 0.07681 0.95498 0.33427 0.0
C219 C 0.01988 0.9964 0.34055 0.0
C220 C 0.03015 0.98894 0.38919 0.0
C221 C 0.043 0.9796 0.31318 0.0
C222 C 0.08681 0.94743 0.38349 0.0
C223 C 0.07485 0.95699 0.46223 0.0
C224 C 0.15879 0.87637 0.66469 0.0
C225 C 0.12806 0.84842 0.65925 0.0
H226 H 0.21231 0.93672 0.66664 0.0
C227 C 0.05615 0.99052 0.64127 0.0
C228 C 0.07643 0.06891 0.55119 0.0
C229 C 0.98802 0.0806 0.70895 0.0
C230 C 0.98276 0.09021 0.78807 0.0
C231 C 0.04779 0.07403 0.76832 0.0
C232 C 0.02973 0.07361 0.72242 0.0
C233 C 0.02456 0.08239 0.80096 0.0
C234 C 0.96448 0.08865 0.74194 0.0
C235 C 0.96941 0.08091 0.66016 0.0
H236 H 0.99393 0.01527 0.324 0.0
H237 H 1.01209 1.00237 0.40976 0.0
H238 H 0.03412 0.98553 0.27551 0.0
H239 H 0.11298 0.92893 0.40042 0.0
H240 H 0.07999 0.06837 0.77847 0.0
H241 H 0.04833 0.06847 0.69716 0.0
H242 H 0.0393 0.0828 0.83635 0.0
H243 H 0.93236 0.09484 0.73138 0.0
C244 C 0.64942 0.55878 0.08843 0.0
C245 C 0.64828 0.62785 0.04741 0.0
C246 C 0.62809 0.59412 0.0682 0.0
C247 C 0.69014 0.62557 0.04723 0.0
C248 C 0.69144 0.55641 0.08836 0.0
C249 C 0.71165 0.58997 0.06764 0.0
N250 N 0.62895 0.52653 0.10742 0.0
C251 C 0.6488 0.49151 0.12835 0.0
C252 C 0.71187 0.52028 0.10888 0.0
C253 C 0.69047 0.48776 0.12915 0.0
Gd254 Gd 0.47805 0.49632 1.00469 0.0
Gd255 Gd 0.55906 0.53553 0.10292 0.0
N256 N 0.58726 0.59491 0.06718 0.0
C257 C 0.62571 0.66276 0.02701 0.0
C258 C 0.56542 0.62934 0.04909 0.0
C259 C 0.58418 0.66359 0.02824 0.0
H260 H 0.53363 0.63069 0.0508 0.0
H261 H 0.56661 0.69067 1.01329 0.0
H262 H 0.51625 0.40198 0.04549 0.0
H263 H 0.63259 0.46664 0.14513 0.0
H264 H 0.49458 0.33814 0.08799 0.0
H265 H 0.64009 0.68929 1.01059 0.0
H266 H 0.70614 0.65114 0.03124 0.0
H267 H 0.39723 0.55725 0.9808 0.0
H268 H 0.74416 0.51725 0.1095 0.0
H269 H 0.70608 0.45985 0.14556 0.0
H270 H 0.35588 0.36171 0.09942 0.0
H271 H 0.74391 0.58867 0.06713 0.0
H272 H 0.2983 0.49187 0.0331 0.0
H273 H 0.32581 0.5548 0.99343 0.0
N274 N 0.40994 0.4968 1.01388 0.0
C275 C 0.3953 0.46159 0.03475 0.0
C276 C 0.38557 0.52989 0.99867 0.0
C277 C 0.32962 0.49281 0.02765 0.0
C278 C 0.34508 0.52845 1.00541 0.0
C279 C 0.35476 0.45881 0.04267 0.0
H280 H 0.30983 0.41993 0.07261 0.0
N281 N 0.46094 0.43271 0.04347 0.0
C282 C 0.42153 0.42872 0.05018 0.0
C283 C 0.43441 0.35967 0.08805 0.0
C284 C 0.40746 0.39226 0.07343 0.0
C285 C 0.48652 0.40029 0.05507 0.0
C286 C 0.47392 0.36358 0.07825 0.0
O287 O 0.57501 0.54378 0.02934 0.0
O288 O 0.51478 0.54993 0.97802 0.0
O289 O 0.48363 0.45915 0.95338 0.0
O290 O 0.43934 0.50708 0.9368 0.0
O291 O 0.49726 0.56658 0.08171 0.0
O292 O 0.47414 0.5623 1.00423 0.0
O293 O 0.46258 0.49588 0.07759 0.0
O294 O 0.52292 0.48077 0.1259 0.0
O295 O 0.54453 0.57275 0.15076 0.0
O296 O 0.59286 0.52887 0.17345 0.0
O297 O 0.54202 0.47149 1.01959 0.0
O298 O 0.56258 0.47017 0.09834 0.0
C299 C 0.55389 0.55597 0.98759 0.0
C300 C 0.47446 0.57948 0.04089 0.0
C301 C 0.46953 0.49158 0.87478 0.0
C302 C 0.46952 0.48151 0.79462 0.0
C303 C 0.51091 0.53326 0.82465 0.0
C304 C 0.4973 0.52252 0.86764 0.0
C305 C 0.49723 0.5129 0.78837 0.0
C306 C 0.45542 0.47118 0.83806 0.0
C307 C 0.45684 0.47955 0.92112 0.0
C308 C 0.36709 0.38942 0.08137 0.0
C309 C 0.34083 0.42257 0.06601 0.0
H310 H 0.42478 0.33118 0.10605 0.0
C311 C 0.4833 0.47907 0.11804 0.0
C312 C 0.56623 0.45828 0.05908 0.0
C313 C 0.55701 0.54435 0.23103 0.0
C314 C 0.55735 0.55391 0.31147 0.0
C315 C 0.51292 0.505 0.27954 0.0
C316 C 0.52736 0.51514 0.23694 0.0
C317 C 0.5277 0.52423 0.31656 0.0
C318 C 0.57217 0.5636 0.26842 0.0
C319 C 0.5713 0.55559 0.18554 0.0
H320 H 0.5323 0.55729 0.81952 0.0
H321 H 0.50864 0.53812 0.8955 0.0
H322 H 0.50815 0.52192 0.75521 0.0
H323 H 0.43438 0.44683 0.84364 0.0
H324 H 0.49008 0.48227 0.28381 0.0
H325 H 0.5153 0.50046 0.20845 0.0
H326 H 0.51613 0.51562 0.34937 0.0
H327 H 0.59474 0.5866 0.26365 0.0
C328 C 0.15355 0.1362 0.4934 0.0
C329 C 0.16902 0.15751 0.52875 0.0
H330 H 0.1125 0.09139 0.4728 0.0
C331 C 0.15332 0.14972 0.57122 0.0
H332 H 0.16514 0.14125 0.46041 0.0
C333 C 0.12321 0.12123 0.57835 0.0
C334 C 0.10804 0.09959 0.54325 0.0
H335 H 0.16412 0.16594 0.59899 0.0
H336 H 0.11205 0.11597 0.6116 0.0
C337 C 0.12357 0.10743 0.50065 0.0
C338 C 0.41226 0.66113 0.07053 0.0
C339 C 0.39348 0.68016 0.02586 0.0
H340 H 0.45276 0.61459 0.11041 0.0
C341 C 0.40247 0.66636 0.98634 0.0
H342 H 0.40633 0.67128 0.10166 0.0
C343 C 0.4292 0.63418 0.9913 0.0
C344 C 0.4475 0.61473 0.03593 0.0
H345 H 0.38817 0.6799 0.95144 0.0
H346 H 0.43519 0.62433 0.96001 0.0
C347 C 0.43909 0.62883 0.07551 0.0
C348 C 0.88633 0.89601 0.62349 0.0
C349 C 0.86859 0.87855 0.58557 0.0
H350 H 0.9297 0.93759 0.64779 0.0
C351 C 0.88251 0.88999 0.54229 0.0
H352 H 0.87618 0.88813 0.65721 0.0
C353 C 0.913 0.91829 0.53689 0.0
C354 C 0.93051 0.93601 0.5746 0.0
H355 H 0.87003 0.87677 0.51249 0.0
H356 H 0.92267 0.92648 0.50292 0.0
C357 C 0.91682 0.92454 0.618 0.0
C358 C 0.63789 0.3955 1.01399 0.0
C359 C 0.65168 0.36639 0.05378 0.0
H360 H 0.60055 0.44726 0.98477 0.0
C361 C 0.63842 0.36886 0.09638 0.0
H362 H 0.64814 0.3952 0.98088 0.0
C363 C 0.6113 0.3992 0.09871 0.0
C364 C 0.5969 0.42756 0.0585 0.0
H365 H 0.64816 0.34676 0.12764 0.0
H366 H 0.60078 0.39981 0.13161 0.0
C367 C 0.61075 0.42554 1.01628 0.0
C368 C 0.13252 0.94366 0.23418 0.0
C369 C 0.14569 0.90345 0.24663 0.0
H370 H 0.10118 0.99152 0.25228 0.0
C371 C 0.13701 0.8806 0.28895 0.0
H372 H 0.13934 0.96237 0.20233 0.0
C373 C 0.11516 0.89739 0.31771 0.0
C374 C 0.10141 0.9374 0.30478 0.0
H375 H 0.14626 0.84941 0.29935 0.0
H376 H 0.10817 0.87873 0.3495 0.0
C377 C 0.11065 0.9604 0.26285 0.0
C378 C 0.57391 0.62609 0.87671 0.0
C379 C 0.61621 0.62294 0.88023 0.0
H380 H 0.52116 0.60823 0.90813 0.0
C381 C 0.63773 0.5978 0.91957 0.0
H382 H 0.55644 0.64559 0.84724 0.0
C383 C 0.61745 0.57604 0.95416 0.0
C384 C 0.57515 0.57909 0.95058 0.0
H385 H 0.67025 0.59432 0.92324 0.0
H386 H 0.63497 0.55645 0.9835 0.0
C387 C 0.55366 0.60464 0.91162 0.0
C388 C 0.91015 0.05921 0.36647 0.0
C389 C 0.9125 0.10062 0.34996 0.0
H390 H 0.93085 1.0093 0.42104 0.0
C391 C 0.94026 0.12317 0.37502 0.0
H392 H 0.88896 0.04114 0.34785 0.0
C393 C 0.96442 0.10496 0.41632 0.0
C394 C 0.96096 0.06393 0.43391 0.0
H395 H 0.94328 0.15499 0.36269 0.0
H396 H 0.98558 0.12316 0.43478 0.0
C397 C 0.9341 0.04102 0.40825 0.0
C398 C 0.47209 0.43234 0.6897 0.0
C399 C 0.43078 0.42722 0.67416 0.0
H400 H 0.51657 0.45282 0.74014 0.0
C401 C 0.40234 0.4367 0.70123 0.0
H402 H 0.4949 0.42439 0.67045 0.0
C403 C 0.41489 0.45283 0.74161 0.0
C404 C 0.45608 0.45989 0.75551 0.0
H405 H 0.37028 0.43326 0.69018 0.0
H406 H 0.39226 0.4614 0.76072 0.0
C407 C 0.48454 0.44854 0.72974 0.0
C408 C 0.55827 0.6028 0.41747 0.0
C409 C 0.59987 0.60722 0.43212 0.0
H410 H 0.51239 0.58322 0.36781 0.0
C411 C 0.62741 0.59671 0.40457 0.0
H412 H 0.53612 0.61151 0.4371 0.0
C413 C 0.61368 0.58058 0.36447 0.0
C414 C 0.57216 0.57452 0.35121 0.0
H415 H 0.65966 0.59952 0.41494 0.0
H416 H 0.63567 0.57142 0.34491 0.0
C417 C 0.54463 0.58662 0.37766 0.0
C418 C 0.95311 0.13817 0.88458 0.0
C419 C 0.91697 0.11858 0.89308 0.0
H420 H 1.00199 0.14458 0.84476 0.0
C421 C 0.90153 0.0907 0.86524 0.0
H422 H 0.96603 0.15947 0.90571 0.0
C423 C 0.92218 0.08222 0.83011 0.0
C424 C 0.95896 0.10099 0.82272 0.0
H425 H 0.87364 0.07529 0.87085 0.0
H426 H 0.91003 0.06015 0.80968 0.0
C427 C 0.97391 0.12936 0.84998 0.0
C428 C 0.39922 0.44142 0.18786 0.0
C429 C 0.41971 0.41297 0.22471 0.0
H430 H 0.40338 0.48536 0.12629 0.0
C431 C 0.46132 0.40637 0.22601 0.0
H432 H 0.3673 0.44761 0.18606 0.0
C433 C 0.48188 0.42759 0.19129 0.0
C434 C 0.46145 0.45627 0.1547 0.0
H435 H 0.47794 0.38439 0.25361 0.0
H436 H 0.51383 0.42151 0.19314 0.0
C437 C 0.41991 0.46302 0.15351 0.0
C438 C 0.09094 0.92035 0.7563 0.0
C439 C 0.11323 0.94624 0.78244 0.0
H440 H 0.05502 0.9142 0.69107 0.0
C441 C 0.11909 0.98585 0.7605 0.0
H442 H 0.08589 0.88966 0.77225 0.0
C443 C 0.10167 0.99974 0.71409 0.0
C444 C 0.07754 0.97455 0.68881 0.0
H445 H 0.13695 1.00622 0.77936 0.0
H446 H 0.1069 0.03036 0.6981 0.0
C447 C 0.07321 0.9344 0.70989 0.0
loop_
_geom_bond_atom_site_label_1
_geom_bond_atom_site_label_2
_geom_bond_distance
_geom_bond_site_symmetry_2
_ccdc_geom_bond_type
C0 C1 1.264 . S
C0 C5 1.479 . S
C0 C10 1.465 . S
C1 C0 1.264 . S
C1 C3 1.339 . S
C1 H28 0.931 . S
C2 C3 1.395 . S
C2 C4 1.320 . S
C3 C1 1.339 . S
C3 C2 1.395 . S
C3 H29 0.929 . S
C4 C2 1.320 . S
C4 C5 1.405 . S
C4 H30 0.930 . S
C5 C0 1.479 . S
C5 C4 1.405 . S
C5 H31 0.931 . S
U6 O7 2.454 . S
U6 O8 2.458 1_554 S
U6 C9 2.984 . S
U6 C10 2.847 . S
U6 C23 2.882 1_554 S
U6 O24 2.441 . S
U6 O25 2.420 . S
U6 O26 2.455 1_554 S
U6 O27 2.449 1_554 S
O7 U6 2.454 . S
O7 C9 1.353 . S
O8 U6 2.458 1_556 S
O8 C9 1.286 1_556 S
C9 U6 2.984 . S
C9 O7 1.353 . S
C9 O8 1.286 1_554 S
C9 C11 1.363 . S
C10 C0 1.465 . S
C10 U6 2.847 . S
C10 O24 1.249 . S
C10 O25 1.202 . S
C11 C9 1.363 . S
C11 C13 1.408 . S
C11 C16 1.362 . S
C12 C13 1.310 . S
C12 C15 1.461 . S
C12 H32 0.932 . S
C13 C11 1.408 . S
C13 C12 1.310 . S
C13 H33 0.930 . S
C14 C15 1.474 . S
C14 C16 1.281 . S
C14 H34 0.929 1_554 S
C15 C12 1.461 . S
C15 C14 1.474 . S
C16 C11 1.362 . S
C16 C14 1.281 . S
C16 H35 0.914 1_554 S
C17 C20 1.424 . S
C17 C22 1.245 . S
C17 C23 1.428 . S
C18 C21 1.260 . S
C18 C22 1.477 . S
C18 H36 0.932 . S
C19 C20 1.384 . S
C19 C21 1.479 . S
C19 H37 0.929 . S
C20 C17 1.424 . S
C20 C19 1.384 . S
C20 H38 0.928 . S
C21 C18 1.260 . S
C21 C19 1.479 . S
C22 C17 1.245 . S
C22 C18 1.477 . S
C22 H39 0.932 . S
C23 U6 2.882 1_556 S
C23 C17 1.428 . S
C23 O26 1.301 . S
C23 O27 1.282 . S
O24 U6 2.441 . S
O24 C10 1.249 . S
O25 U6 2.420 . S
O25 C10 1.202 . S
O26 U6 2.455 1_556 S
O26 C23 1.301 . S
O27 U6 2.449 1_556 S
O27 C23 1.282 . S
H28 C1 0.931 . S
H29 C3 0.929 . S
H30 C4 0.930 . S
H31 C5 0.931 . S
H32 C12 0.932 . S
H33 C13 0.930 . S
H34 C14 0.929 1_556 S
H35 C16 0.914 1_556 S
H36 C18 0.932 . S
H37 C19 0.929 . S
H38 C20 0.928 . S
H39 C22 0.932 . S
C40 C41 1.264 . S
C40 C45 1.479 . S
C40 C50 1.465 . S
C41 C40 1.264 . S
C41 C43 1.339 . S
C41 H68 0.931 . S
C42 C43 1.395 . S
C42 C44 1.320 . S
C43 C41 1.339 . S
C43 C42 1.395 . S
C43 H69 0.929 . S
C44 C42 1.320 . S
C44 C45 1.405 . S
C44 H70 0.930 . S
C45 C40 1.479 . S
C45 C44 1.405 . S
C45 H71 0.931 . S
U46 O47 2.454 . S
U46 O48 2.458 . S
U46 C49 2.984 . S
U46 C50 2.847 . S
U46 C63 2.882 . S
U46 O64 2.441 . S
U46 O65 2.420 . S
U46 O66 2.455 . S
U46 O67 2.449 . S
O47 U46 2.454 . S
O47 C49 1.353 . S
O48 U46 2.458 . S
O48 C49 1.286 . S
C49 U46 2.984 . S
C49 O47 1.353 . S
C49 O48 1.286 . S
C49 C51 1.363 . S
C50 C40 1.465 . S
C50 U46 2.847 . S
C50 O64 1.249 . S
C50 O65 1.202 . S
C51 C49 1.363 . S
C51 C53 1.408 . S
C51 C56 1.342 . S
C52 C53 1.310 . S
C52 C55 1.461 . S
C52 H72 0.932 . S
C53 C51 1.408 . S
C53 C52 1.310 . S
C53 H73 0.930 . S
C54 C55 1.474 . S
C54 C56 1.285 . S
C54 H74 0.929 . S
C55 C52 1.461 . S
C55 C54 1.474 . S
C56 C51 1.342 . S
C56 C54 1.285 . S
C56 H75 0.930 . S
C57 C60 1.424 . S
C57 C62 1.245 . S
C57 C63 1.428 . S
C58 C61 1.260 . S
C58 C62 1.477 . S
C58 H76 0.932 . S
C59 C60 1.384 . S
C59 C61 1.479 . S
C59 H77 0.929 . S
C60 C57 1.424 . S
C60 C59 1.384 . S
C60 H78 0.928 . S
C61 C58 1.260 . S
C61 C59 1.479 . S
C62 C57 1.245 . S
C62 C58 1.477 . S
C62 H79 0.932 . S
C63 U46 2.882 . S
C63 C57 1.428 . S
C63 O66 1.301 . S
C63 O67 1.282 . S
O64 U46 2.441 . S
O64 C50 1.249 . S
O65 U46 2.420 . S
O65 C50 1.202 . S
O66 U46 2.455 . S
O66 C63 1.301 . S
O67 U46 2.449 . S
O67 C63 1.282 . S
H68 C41 0.931 . S
H69 C43 0.929 . S
H70 C44 0.930 . S
H71 C45 0.931 . S
H72 C52 0.932 . S
H73 C53 0.930 . S
H74 C54 0.929 . S
H75 C56 0.930 . S
H76 C58 0.932 . S
H77 C59 0.929 . S
H78 C60 0.928 . S
H79 C62 0.932 . S
C80 C81 1.264 . S
C80 C85 1.479 . S
C80 C90 1.465 . S
C81 C80 1.264 . S
C81 C83 1.339 . S
C81 H108 0.931 . S
C82 C83 1.395 . S
C82 C84 1.320 . S
C83 C81 1.339 . S
C83 C82 1.395 . S
C83 H109 0.929 . S
C84 C82 1.320 . S
C84 C85 1.405 . S
C84 H110 0.930 . S
C85 C80 1.479 . S
C85 C84 1.405 . S
C85 H111 0.931 . S
U86 O87 2.454 . S
U86 O88 2.458 . S
U86 C89 2.984 . S
U86 C90 2.847 . S
U86 C103 2.882 1_554 S
U86 O104 2.441 . S
U86 O105 2.420 . S
U86 O106 2.455 1_554 S
U86 O107 2.449 . S
O87 U86 2.454 . S
O87 C89 1.353 . S
O88 U86 2.458 . S
O88 C89 1.286 . S
C89 U86 2.984 . S
C89 O87 1.353 . S
C89 O88 1.286 . S
C89 C91 1.363 . S
C90 C80 1.465 . S
C90 U86 2.847 . S
C90 O104 1.249 . S
C90 O105 1.202 . S
C91 C89 1.363 . S
C91 C93 1.408 . S
C91 C96 1.342 1_554 S
C92 C93 1.310 . S
C92 C95 1.461 . S
C92 H112 0.932 . S
C93 C91 1.408 . S
C93 C92 1.310 . S
C93 H113 0.930 . S
C94 C95 1.474 1_556 S
C94 C96 1.285 . S
C94 H114 0.929 . S
C95 C92 1.461 . S
C95 C94 1.474 1_554 S
C96 C91 1.342 1_556 S
C96 C94 1.285 . S
C96 H115 0.930 . S
C97 C100 1.424 . S
C97 C102 1.245 . S
C97 C103 1.428 . S
C98 C101 1.260 . S
C98 C102 1.477 . S
C98 H116 0.932 . S
C99 C100 1.384 . S
C99 C101 1.479 . S
C99 H117 0.929 . S
C100 C97 1.424 . S
C100 C99 1.384 . S
C100 H118 0.928 . S
C101 C98 1.260 . S
C101 C99 1.479 . S
C102 C97 1.245 . S
C102 C98 1.477 . S
C102 H119 0.932 . S
C103 U86 2.882 1_556 S
C103 C97 1.428 . S
C103 O106 1.301 . S
C103 O107 1.282 1_556 S
O104 U86 2.441 . S
O104 C90 1.249 . S
O105 U86 2.420 . S
O105 C90 1.202 . S
O106 U86 2.455 1_556 S
O106 C103 1.301 . S
O107 U86 2.449 . S
O107 C103 1.282 1_554 S
H108 C81 0.931 . S
H109 C83 0.929 . S
H110 C84 0.930 . S
H111 C85 0.931 . S
H112 C92 0.932 . S
H113 C93 0.930 . S
H114 C94 0.929 . S
H115 C96 0.930 . S
H116 C98 0.932 . S
H117 C99 0.929 . S
H118 C100 0.928 . S
H119 C102 0.932 . S
C120 C121 1.264 . S
C120 C125 1.479 . S
C120 C130 1.465 . S
C121 C120 1.264 . S
C121 C123 1.339 . S
C121 H148 0.931 . S
C122 C123 1.395 . S
C122 C124 1.320 . S
C123 C121 1.339 . S
C123 C122 1.395 . S
C123 H149 0.929 . S
C124 C122 1.320 . S
C124 C125 1.405 . S
C124 H150 0.930 . S
C125 C120 1.479 . S
C125 C124 1.405 . S
C125 H151 0.931 . S
U126 O127 2.454 . S
U126 O128 2.458 . S
U126 C129 2.984 . S
U126 C130 2.847 . S
U126 C143 2.882 . S
U126 O144 2.441 . S
U126 O145 2.420 . S
U126 O146 2.455 . S
U126 O147 2.449 . S
O127 U126 2.454 . S
O127 C129 1.353 . S
O128 U126 2.458 . S
O128 C129 1.286 . S
C129 U126 2.984 . S
C129 O127 1.353 . S
C129 O128 1.286 . S
C129 C131 1.363 . S
C130 C120 1.465 . S
C130 U126 2.847 . S
C130 O144 1.249 . S
C130 O145 1.202 . S
C131 C129 1.363 . S
C131 C133 1.408 . S
C131 C136 1.342 . S
C132 C133 1.310 . S
C132 C135 1.461 . S
C132 H152 0.932 . S
C133 C131 1.408 . S
C133 C132 1.310 . S
C133 H153 0.930 . S
C134 C135 1.474 . S
C134 C136 1.285 . S
C134 H154 0.929 . S
C135 C132 1.461 . S
C135 C134 1.474 . S
C136 C131 1.342 . S
C136 C134 1.285 . S
C136 H155 0.930 . S
C137 C140 1.424 . S
C137 C142 1.245 . S
C137 C143 1.428 . S
C138 C141 1.260 . S
C138 C142 1.477 . S
C138 H156 0.932 . S
C139 C140 1.384 . S
C139 C141 1.479 . S
C139 H157 0.929 . S
C140 C137 1.424 . S
C140 C139 1.384 . S
C140 H158 0.928 . S
C141 C138 1.260 . S
C141 C139 1.479 . S
C142 C137 1.245 . S
C142 C138 1.477 . S
C142 H159 0.932 . S
C143 U126 2.882 . S
C143 C137 1.428 . S
C143 O146 1.301 . S
C143 O147 1.282 . S
O144 U126 2.441 . S
O144 C130 1.249 . S
O145 U126 2.420 . S
O145 C130 1.202 . S
O146 U126 2.455 . S
O146 C143 1.301 . S
O147 U126 2.449 . S
O147 C143 1.282 . S
H148 C121 0.931 . S
H149 C123 0.929 . S
H150 C124 0.930 . S
H151 C125 0.931 . S
H152 C132 0.932 . S
H153 C133 0.930 . S
H154 C134 0.929 . S
H155 C136 0.930 . S
H156 C138 0.932 . S
H157 C139 0.929 . S
H158 C140 0.928 . S
H159 C142 0.932 . S
C160 C162 1.422 . S
C160 C164 1.415 . S
C160 N166 1.369 . S
C161 C162 1.421 . S
C161 C163 1.417 . S
C161 C173 1.422 . S
C162 C160 1.422 . S
C162 C161 1.421 . S
C162 N172 1.359 . S
C163 C161 1.417 . S
C163 C165 1.329 . S
C163 H182 0.930 . S
C164 C160 1.415 . S
C164 C165 1.437 . S
C164 C168 1.413 . S
C165 C163 1.329 . S
C165 C164 1.437 . S
C165 H187 0.929 . S
N166 C160 1.369 . S
N166 C167 1.326 1_655 S
N166 Gd171 2.622 . S
C167 N166 1.326 1_455 S
C167 C169 1.378 1_455 S
C167 H179 0.942 . S
C168 C164 1.413 . S
C168 C169 1.348 . S
C168 H184 0.931 . S
C169 C167 1.378 1_655 S
C169 C168 1.348 . S
C169 H185 0.930 1_655 S
Gd170 N190 2.622 . S
Gd170 N197 2.570 . S
Gd170 O204 2.351 1_455 S
Gd170 O205 2.468 . S
Gd170 O206 2.427 . S
Gd170 O208 2.388 1_455 S
Gd170 O209 2.386 . S
Gd170 O213 2.307 1_565 S
Gd170 C223 2.805 . S
Gd171 N166 2.622 . S
Gd171 N172 2.570 . S
Gd171 O203 2.386 . S
Gd171 O207 2.307 1_545 S
Gd171 O210 2.353 1_655 S
Gd171 O211 2.468 . S
Gd171 O212 2.427 . S
Gd171 O214 2.388 1_655 S
Gd171 C235 2.805 . S
N172 C162 1.359 . S
N172 Gd171 2.570 . S
N172 C174 1.343 . S
C173 C161 1.422 . S
C173 C175 1.321 . S
C173 H181 0.931 . S
C174 N172 1.343 . S
C174 C175 1.390 . S
C174 H176 0.931 . S
C175 C173 1.321 . S
C175 C174 1.390 . S
C175 H177 0.930 . S
H176 C174 0.931 . S
H177 C175 0.930 . S
H178 C201 0.931 . S
H179 C167 0.942 . S
H180 C202 0.930 . S
H181 C173 0.931 . S
H182 C163 0.930 . S
H183 C192 0.929 1_655 S
H184 C168 0.931 . S
H185 C169 0.930 1_455 S
H186 C224 0.930 . S
H187 C165 0.929 . S
H188 C193 0.931 . S
H189 C194 0.930 1_655 S
N190 Gd170 2.622 . S
N190 C191 1.369 . S
N190 C192 1.338 . S
C191 N190 1.369 . S
C191 C195 1.415 . S
C191 C198 1.422 . S
C192 H183 0.929 1_455 S
C192 N190 1.338 . S
C192 C194 1.378 . S
C193 H188 0.931 . S
C193 C194 1.348 . S
C193 C195 1.413 . S
C194 H189 0.930 1_455 S
C194 C192 1.378 . S
C194 C193 1.348 . S
C195 C191 1.415 . S
C195 C193 1.413 . S
C195 C225 1.437 . S
H196 C225 0.929 . S
N197 Gd170 2.570 . S
N197 C198 1.359 . S
N197 C201 1.343 . S
C198 C191 1.422 . S
C198 N197 1.359 . S
C198 C200 1.421 . S
C199 C200 1.422 . S
C199 C202 1.321 . S
C199 H226 0.931 . S
C200 C198 1.421 . S
C200 C199 1.422 . S
C200 C224 1.417 . S
C201 H178 0.931 . S
C201 N197 1.343 . S
C201 C202 1.390 . S
C202 H180 0.930 . S
C202 C199 1.321 . S
C202 C201 1.390 . S
O203 Gd171 2.386 . S
O203 C215 1.265 . S
O204 Gd170 2.351 1_655 S
O204 C215 1.244 1_565 S
O205 Gd170 2.468 . S
O205 C223 1.263 . S
O206 Gd170 2.427 . S
O206 C223 1.252 . S
O207 Gd171 2.307 1_565 S
O207 C216 1.261 . S
O208 Gd170 2.388 1_655 S
O208 C216 1.252 . S
O209 Gd170 2.386 . S
O209 C227 1.265 . S
O210 Gd171 2.353 1_455 S
O210 C227 1.242 1_545 S
O211 Gd171 2.468 . S
O211 C235 1.263 . S
O212 Gd171 2.427 . S
O212 C235 1.252 . S
O213 Gd170 2.307 1_545 S
O213 C228 1.261 . S
O214 Gd171 2.388 1_455 S
O214 C228 1.252 . S
C215 O203 1.265 . S
C215 O204 1.244 1_545 S
C216 O207 1.261 . S
C216 O208 1.252 . S
C217 C220 1.394 . S
C217 C222 1.370 . S
C217 C223 1.500 . S
C218 C221 1.383 . S
C218 C222 1.395 . S
C219 C220 1.396 . S
C219 C221 1.365 . S
C219 H236 0.929 . S
C220 C217 1.394 . S
C220 C219 1.396 . S
C220 H237 0.930 . S
C221 C218 1.383 . S
C221 C219 1.365 . S
C221 H238 0.931 . S
C222 C217 1.370 . S
C222 C218 1.395 . S
C222 H239 0.930 . S
C223 Gd170 2.805 . S
C223 O205 1.263 . S
C223 O206 1.252 . S
C223 C217 1.500 . S
C224 H186 0.930 . S
C224 C200 1.417 . S
C224 C225 1.329 . S
C225 C195 1.437 . S
C225 H196 0.929 . S
C225 C224 1.329 . S
H226 C199 0.931 . S
C227 O209 1.265 . S
C227 O210 1.242 1_565 S
C228 O213 1.261 . S
C228 O214 1.252 . S
C229 C232 1.394 . S
C229 C234 1.370 . S
C229 C235 1.500 . S
C230 C233 1.383 . S
C230 C234 1.395 . S
C231 C232 1.396 . S
C231 C233 1.365 . S
C231 H240 0.929 . S
C232 C229 1.394 . S
C232 C231 1.396 . S
C232 H241 0.930 . S
C233 C230 1.383 . S
C233 C231 1.365 . S
C233 H242 0.931 . S
C234 C229 1.370 . S
C234 C230 1.395 . S
C234 H243 0.930 . S
C235 Gd171 2.805 . S
C235 O211 1.263 . S
C235 O212 1.252 . S
C235 C229 1.500 . S
H236 C219 0.929 . S
H237 C220 0.930 . S
H238 C221 0.931 . S
H239 C222 0.930 . S
H240 C231 0.929 . S
H241 C232 0.930 . S
H242 C233 0.931 . S
H243 C234 0.930 . S
C244 C246 1.422 . S
C244 C248 1.415 . S
C244 N250 1.369 . S
C245 C246 1.421 . S
C245 C247 1.417 . S
C245 C257 1.422 . S
C246 C244 1.422 . S
C246 C245 1.421 . S
C246 N256 1.359 . S
C247 C245 1.417 . S
C247 C249 1.329 . S
C247 H266 0.930 . S
C248 C244 1.415 . S
C248 C249 1.437 . S
C248 C252 1.413 . S
C249 C247 1.329 . S
C249 C248 1.437 . S
C249 H271 0.929 . S
N250 C244 1.369 . S
N250 C251 1.338 . S
N250 Gd255 2.622 . S
C251 N250 1.338 . S
C251 C253 1.378 . S
C251 H263 0.929 . S
C252 C248 1.413 . S
C252 C253 1.348 . S
C252 H268 0.931 . S
C253 C251 1.378 . S
C253 C252 1.348 . S
C253 H269 0.930 . S
Gd254 N274 2.622 . S
Gd254 N281 2.570 1_556 S
Gd254 O288 2.353 . S
Gd254 O289 2.468 . S
Gd254 O290 2.427 . S
Gd254 O292 2.387 1_556 S
Gd254 O293 2.386 1_556 S
Gd254 O297 2.307 1_556 S
Gd254 C307 2.805 . S
Gd255 N250 2.622 . S
Gd255 N256 2.570 . S
Gd255 O287 2.398 . S
Gd255 O291 2.307 . S
Gd255 O294 2.353 . S
Gd255 O295 2.468 . S
Gd255 O296 2.427 . S
Gd255 O298 2.388 . S
Gd255 C319 2.805 . S
N256 C246 1.359 . S
N256 Gd255 2.570 . S
N256 C258 1.343 . S
C257 C245 1.422 . S
C257 C259 1.321 . S
C257 H265 0.931 . S
C258 N256 1.343 . S
C258 C259 1.390 . S
C258 H260 0.931 . S
C259 C257 1.321 . S
C259 C258 1.390 . S
C259 H261 0.930 . S
H260 C258 0.931 . S
H261 C259 0.930 . S
H262 C285 0.931 . S
H263 C251 0.929 . S
H264 C286 0.930 . S
H265 C257 0.931 . S
H266 C247 0.930 . S
H267 C276 0.929 . S
H268 C252 0.931 . S
H269 C253 0.930 . S
H270 C308 0.930 . S
H271 C249 0.929 . S
H272 C277 0.931 . S
H273 C278 0.930 . S
N274 Gd254 2.622 . S
N274 C275 1.369 1_556 S
N274 C276 1.338 . S
C275 N274 1.369 1_554 S
C275 C279 1.415 . S
C275 C282 1.422 . S
C276 H267 0.929 . S
C276 N274 1.338 . S
C276 C278 1.378 . S
C277 H272 0.931 . S
C277 C278 1.348 1_554 S
C277 C279 1.413 . S
C278 H273 0.930 . S
C278 C276 1.378 . S
C278 C277 1.348 1_556 S
C279 C275 1.415 . S
C279 C277 1.413 . S
C279 C309 1.437 . S
H280 C309 0.929 . S
N281 Gd254 2.570 1_554 S
N281 C282 1.359 . S
N281 C285 1.343 . S
C282 C275 1.422 . S
C282 N281 1.359 . S
C282 C284 1.421 . S
C283 C284 1.422 . S
C283 C286 1.321 . S
C283 H310 0.931 . S
C284 C282 1.421 . S
C284 C283 1.422 . S
C284 C308 1.417 . S
C285 H262 0.931 . S
C285 N281 1.343 . S
C285 C286 1.390 . S
C286 H264 0.930 . S
C286 C283 1.321 . S
C286 C285 1.390 . S
O287 Gd255 2.398 . S
O287 C299 1.256 1_554 S
O288 Gd254 2.353 . S
O288 C299 1.242 . S
O289 Gd254 2.468 . S
O289 C307 1.263 . S
O290 Gd254 2.427 . S
O290 C307 1.252 . S
O291 Gd255 2.307 . S
O291 C300 1.261 . S
O292 Gd254 2.387 1_554 S
O292 C300 1.252 . S
O293 Gd254 2.386 1_554 S
O293 C311 1.265 . S
O294 Gd255 2.353 . S
O294 C311 1.242 . S
O295 Gd255 2.468 . S
O295 C319 1.263 . S
O296 Gd255 2.427 . S
O296 C319 1.252 . S
O297 Gd254 2.307 1_554 S
O297 C312 1.261 . S
O298 Gd255 2.388 . S
O298 C312 1.252 . S
C299 O287 1.256 1_556 S
C299 O288 1.242 . S
C300 O291 1.261 . S
C300 O292 1.252 . S
C301 C304 1.394 . S
C301 C306 1.370 . S
C301 C307 1.500 . S
C302 C305 1.383 . S
C302 C306 1.395 . S
C303 C304 1.396 . S
C303 C305 1.365 . S
C303 H320 0.929 . S
C304 C301 1.394 . S
C304 C303 1.396 . S
C304 H321 0.930 . S
C305 C302 1.383 . S
C305 C303 1.365 . S
C305 H322 0.931 . S
C306 C301 1.370 . S
C306 C302 1.395 . S
C306 H323 0.930 . S
C307 Gd254 2.805 . S
C307 O289 1.263 . S
C307 O290 1.252 . S
C307 C301 1.500 . S
C308 H270 0.930 . S
C308 C284 1.417 . S
C308 C309 1.329 . S
C309 C279 1.437 . S
C309 H280 0.929 . S
C309 C308 1.329 . S
H310 C283 0.931 . S
C311 O293 1.265 . S
C311 O294 1.242 . S
C312 O297 1.261 . S
C312 O298 1.252 . S
C313 C316 1.394 . S
C313 C318 1.370 . S
C313 C319 1.500 . S
C314 C317 1.383 . S
C314 C318 1.395 . S
C315 C316 1.396 . S
C315 C317 1.365 . S
C315 H324 0.929 . S
C316 C313 1.394 . S
C316 C315 1.396 . S
C316 H325 0.930 . S
C317 C314 1.383 . S
C317 C315 1.365 . S
C317 H326 0.931 . S
C318 C313 1.370 . S
C318 C314 1.395 . S
C318 H327 0.930 . S
C319 Gd255 2.805 . S
C319 O295 1.263 . S
C319 O296 1.252 . S
C319 C313 1.500 . S
H320 C303 0.929 . S
H321 C304 0.930 . S
H322 C305 0.931 . S
H323 C306 0.930 . S
H324 C315 0.929 . S
H325 C316 0.930 . S
H326 C317 0.931 . S
H327 C318 0.930 . S
C328 C329 1.387 . S
C328 H332 0.950 . S
C328 C337 1.390 . S
C329 C328 1.387 . S
C329 C331 1.387 . S
H330 C337 0.950 . S
C331 C329 1.387 . S
C331 C333 1.390 . S
C331 H335 0.950 . S
H332 C328 0.950 . S
C333 C331 1.390 . S
C333 C334 1.387 . S
C333 H336 0.950 . S
C334 C333 1.387 . S
C334 C337 1.387 . S
H335 C331 0.950 . S
H336 C333 0.950 . S
C337 C328 1.390 . S
C337 H330 0.950 . S
C337 C334 1.387 . S
C338 C339 1.387 . S
C338 H342 0.950 . S
C338 C347 1.390 . S
C339 C338 1.387 . S
C339 C341 1.387 . S
H340 C347 0.950 . S
C341 C339 1.387 . S
C341 C343 1.390 . S
C341 H345 0.950 . S
H342 C338 0.950 . S
C343 C341 1.390 . S
C343 C344 1.387 . S
C343 H346 0.950 . S
C344 C343 1.387 . S
C344 C347 1.387 . S
H345 C341 0.950 . S
H346 C343 0.950 . S
C347 C338 1.390 . S
C347 H340 0.950 . S
C347 C344 1.387 . S
C348 C349 1.387 . S
C348 H352 0.950 . S
C348 C357 1.390 . S
C349 C348 1.387 . S
C349 C351 1.387 . S
H350 C357 0.950 . S
C351 C349 1.387 . S
C351 C353 1.390 . S
C351 H355 0.950 . S
H352 C348 0.950 . S
C353 C351 1.390 . S
C353 C354 1.387 . S
C353 H356 0.950 . S
C354 C353 1.387 . S
C354 C357 1.387 . S
H355 C351 0.950 . S
H356 C353 0.950 . S
C357 C348 1.390 . S
C357 H350 0.950 . S
C357 C354 1.387 . S
C358 C359 1.387 1_556 S
C358 H362 0.950 . S
C358 C367 1.390 . S
C359 C358 1.387 1_554 S
C359 C361 1.387 . S
H360 C367 0.950 . S
C361 C359 1.387 . S
C361 C363 1.390 . S
C361 H365 0.950 . S
H362 C358 0.950 . S
C363 C361 1.390 . S
C363 C364 1.387 . S
C363 H366 0.950 . S
C364 C363 1.387 . S
C364 C367 1.387 1_554 S
H365 C361 0.950 . S
H366 C363 0.950 . S
C367 C358 1.390 . S
C367 H360 0.950 . S
C367 C364 1.387 1_556 S
C368 C369 1.387 . S
C368 H372 0.952 . S
C368 C377 1.390 . S
C369 C368 1.387 . S
C369 C371 1.387 . S
H370 C377 0.950 1_545 S
C371 C369 1.387 . S
C371 C373 1.390 . S
C371 H375 0.950 . S
H372 C368 0.952 . S
C373 C371 1.390 . S
C373 C374 1.387 . S
C373 H376 0.950 . S
C374 C373 1.387 . S
C374 C377 1.387 . S
H375 C371 0.950 . S
H376 C373 0.950 . S
C377 C368 1.390 . S
C377 H370 0.950 1_565 S
C377 C374 1.387 . S
C378 C379 1.387 . S
C378 H382 0.950 . S
C378 C387 1.390 . S
C379 C378 1.387 . S
C379 C381 1.387 . S
H380 C387 0.950 . S
C381 C379 1.387 . S
C381 C383 1.390 . S
C381 H385 0.950 . S
H382 C378 0.950 . S
C383 C381 1.390 . S
C383 C384 1.387 . S
C383 H386 0.950 . S
C384 C383 1.387 . S
C384 C387 1.387 . S
H385 C381 0.950 . S
H386 C383 0.950 . S
C387 C378 1.390 . S
C387 H380 0.950 . S
C387 C384 1.387 . S
C388 C389 1.388 . S
C388 H392 0.949 1_545 S
C388 C397 1.386 . S
C389 C388 1.388 . S
C389 C391 1.387 . S
H390 C397 0.930 1_565 S
C391 C389 1.387 . S
C391 C393 1.390 . S
C391 H395 0.950 . S
H392 C388 0.949 1_565 S
C393 C391 1.390 . S
C393 C394 1.387 . S
C393 H396 0.950 . S
C394 C393 1.387 . S
C394 C397 1.413 . S
H395 C391 0.950 . S
H396 C393 0.950 . S
C397 C388 1.386 . S
C397 H390 0.930 1_545 S
C397 C394 1.413 . S
C398 C399 1.387 . S
C398 H402 0.950 . S
C398 C407 1.390 . S
C399 C398 1.387 . S
C399 C401 1.387 . S
H400 C407 0.950 . S
C401 C399 1.387 . S
C401 C403 1.390 . S
C401 H405 0.950 . S
H402 C398 0.950 . S
C403 C401 1.390 . S
C403 C404 1.387 . S
C403 H406 0.950 . S
C404 C403 1.387 . S
C404 C407 1.387 . S
H405 C401 0.950 . S
H406 C403 0.950 . S
C407 C398 1.390 . S
C407 H400 0.950 . S
C407 C404 1.387 . S
C408 C409 1.387 . S
C408 H412 0.950 . S
C408 C417 1.390 . S
C409 C408 1.387 . S
C409 C411 1.387 . S
H410 C417 0.950 . S
C411 C409 1.387 . S
C411 C413 1.390 . S
C411 H415 0.950 . S
H412 C408 0.950 . S
C413 C411 1.390 . S
C413 C414 1.387 . S
C413 H416 0.950 . S
C414 C413 1.387 . S
C414 C417 1.387 . S
H415 C411 0.950 . S
H416 C413 0.950 . S
C417 C408 1.390 . S
C417 H410 0.950 . S
C417 C414 1.387 . S
C418 C419 1.387 . S
C418 H422 0.950 . S
C418 C427 1.390 . S
C419 C418 1.387 . S
C419 C421 1.387 . S
H420 C427 0.950 . S
C421 C419 1.387 . S
C421 C423 1.390 . S
C421 H425 0.950 . S
H422 C418 0.950 . S
C423 C421 1.390 . S
C423 C424 1.387 . S
C423 H426 0.950 1_545 S
C424 C423 1.387 . S
C424 C427 1.387 . S
H425 C421 0.950 . S
H426 C423 0.950 1_565 S
C427 C418 1.390 . S
C427 H420 0.950 . S
C427 C424 1.387 . S
C428 C429 1.387 . S
C428 H432 0.950 . S
C428 C437 1.390 . S
C429 C428 1.387 . S
C429 C431 1.387 . S
H430 C437 0.950 . S
C431 C429 1.387 . S
C431 C433 1.390 . S
C431 H435 0.950 . S
H432 C428 0.950 . S
C433 C431 1.390 . S
C433 C434 1.387 . S
C433 H436 0.950 . S
C434 C433 1.387 . S
C434 C437 1.387 . S
H435 C431 0.950 . S
H436 C433 0.950 . S
C437 C428 1.390 . S
C437 H430 0.950 . S
C437 C434 1.387 . S
C438 C439 1.387 . S
C438 H442 0.950 . S
C438 C447 1.390 . S
C439 C438 1.387 . S
C439 C441 1.387 1_565 S
H440 C447 0.950 . S
C441 C439 1.387 1_545 S
C441 C443 1.390 . S
C441 H445 0.950 . S
H442 C438 0.950 . S
C443 C441 1.390 . S
C443 C444 1.387 1_545 S
C443 H446 0.950 . S
C444 C443 1.387 1_565 S
C444 C447 1.387 . S
H445 C441 0.950 . S
H446 C443 0.950 . S
C447 C438 1.390 . S
C447 H440 0.950 . S
C447 C444 1.387 . S
C334 C228 1.722 . S
C329 C135 1.681 . S
C339 C15 1.677 . S
C344 C300 1.704 . S
C349 C55 1.677 . S
C354 C216 1.709 . S
C359 C95 1.690 . S
C364 C312 1.727 . S
C374 C218 1.444 . S
C369 C2 1.565 . S
C384 C299 1.644 . S
C379 C42 1.644 . S
C389 C82 1.675 . S
C394 C215 1.692 . S
C399 C141 1.514 . S
C404 C302 1.423 . S
C414 C314 1.441 . S
C409 C61 1.563 . S
C424 C230 1.469 . S
C419 C101 1.592 . S
C434 C311 1.670 . S
C429 C122 1.615 . S
C439 C21 1.713 . S
C444 C227 1.715 . S
