# Generated by pormake.
# Topology gar, (4,6)-cn, num edge types: 1
# Building blocks:
#     Node 0, Type 0, BuildingBlock: QUQFOY_clean_sbu_1, # of connection points: 4
#     Node 1, Type 0, BuildingBlock: QUQFOY_clean_sbu_1, # of connection points: 4
#     Node 2, Type 0, BuildingBlock: QUQFOY_clean_sbu_1, # of connection points: 4
#     Node 3, Type 0, BuildingBlock: QUQFOY_clean_sbu_1, # of connection points: 4
#     Node 4, Type 0, BuildingBlock: QUQFOY_clean_sbu_1, # of connection points: 4
#     Node 5, Type 0, BuildingBlock: QUQFOY_clean_sbu_1, # of connection points: 4
#     Node 6, Type 0, BuildingBlock: QUQFOY_clean_sbu_1, # of connection points: 4
#     Node 7, Type 0, BuildingBlock: QUQFOY_clean_sbu_1, # of connection points: 4
#     Node 8, Type 0, BuildingBlock: QUQFOY_clean_sbu_1, # of connection points: 4
#     Node 9, Type 0, BuildingBlock: QUQFOY_clean_sbu_1, # of connection points: 4
#     Node 10, Type 0, BuildingBlock: QUQFOY_clean_sbu_1, # of connection points: 4
#     Node 11, Type 0, BuildingBlock: QUQFOY_clean_sbu_1, # of connection points: 4
#     Node 12, Type 0, BuildingBlock: QUQFOY_clean_sbu_1, # of connection points: 4
#     Node 13, Type 0, BuildingBlock: QUQFOY_clean_sbu_1, # of connection points: 4
#     Node 14, Type 0, BuildingBlock: QUQFOY_clean_sbu_1, # of connection points: 4
#     Node 15, Type 0, BuildingBlock: QUQFOY_clean_sbu_1, # of connection points: 4
#     Node 16, Type 0, BuildingBlock: QUQFOY_clean_sbu_1, # of connection points: 4
#     Node 17, Type 0, BuildingBlock: QUQFOY_clean_sbu_1, # of connection points: 4
#     Node 18, Type 0, BuildingBlock: QUQFOY_clean_sbu_1, # of connection points: 4
#     Node 19, Type 0, BuildingBlock: QUQFOY_clean_sbu_1, # of connection points: 4
#     Node 20, Type 0, BuildingBlock: QUQFOY_clean_sbu_1, # of connection points: 4
#     Node 21, Type 0, BuildingBlock: QUQFOY_clean_sbu_1, # of connection points: 4
#     Node 22, Type 0, BuildingBlock: QUQFOY_clean_sbu_1, # of connection points: 4
#     Node 23, Type 0, BuildingBlock: QUQFOY_clean_sbu_1, # of connection points: 4
#     Node 24, Type 1, BuildingBlock: KUMBOL_clean_sbu_0, # of connection points: 6
#     Node 25, Type 1, BuildingBlock: KUMBOL_clean_sbu_0, # of connection points: 6
#     Node 26, Type 1, BuildingBlock: KUMBOL_clean_sbu_0, # of connection points: 6
#     Node 27, Type 1, BuildingBlock: KUMBOL_clean_sbu_0, # of connection points: 6
#     Node 28, Type 1, BuildingBlock: KUMBOL_clean_sbu_0, # of connection points: 6
#     Node 29, Type 1, BuildingBlock: KUMBOL_clean_sbu_0, # of connection points: 6
#     Node 30, Type 1, BuildingBlock: KUMBOL_clean_sbu_0, # of connection points: 6
#     Node 31, Type 1, BuildingBlock: KUMBOL_clean_sbu_0, # of connection points: 6
#     Node 32, Type 1, BuildingBlock: KUMBOL_clean_sbu_0, # of connection points: 6
#     Node 33, Type 1, BuildingBlock: KUMBOL_clean_sbu_0, # of connection points: 6
#     Node 34, Type 1, BuildingBlock: KUMBOL_clean_sbu_0, # of connection points: 6
#     Node 35, Type 1, BuildingBlock: KUMBOL_clean_sbu_0, # of connection points: 6
#     Node 36, Type 1, BuildingBlock: KUMBOL_clean_sbu_0, # of connection points: 6
#     Node 37, Type 1, BuildingBlock: KUMBOL_clean_sbu_0, # of connection points: 6
#     Node 38, Type 1, BuildingBlock: KUMBOL_clean_sbu_0, # of connection points: 6
#     Node 39, Type 1, BuildingBlock: KUMBOL_clean_sbu_0, # of connection points: 6
#     Edge 40, Type (0, 1), BuildingBlock: XUDNAN_clean_linker_2, # of connection points: 2
#     Edge 41, Type (0, 1), BuildingBlock: XUDNAN_clean_linker_2, # of connection points: 2
#     Edge 42, Type (0, 1), BuildingBlock: XUDNAN_clean_linker_2, # of connection points: 2
#     Edge 43, Type (0, 1), BuildingBlock: XUDNAN_clean_linker_2, # of connection points: 2
#     Edge 44, Type (0, 1), BuildingBlock: XUDNAN_clean_linker_2, # of connection points: 2
#     Edge 45, Type (0, 1), BuildingBlock: XUDNAN_clean_linker_2, # of connection points: 2
#     Edge 46, Type (0, 1), BuildingBlock: XUDNAN_clean_linker_2, # of connection points: 2
#     Edge 47, Type (0, 1), BuildingBlock: XUDNAN_clean_linker_2, # of connection points: 2
#     Edge 48, Type (0, 1), BuildingBlock: XUDNAN_clean_linker_2, # of connection points: 2
#     Edge 49, Type (0, 1), BuildingBlock: XUDNAN_clean_linker_2, # of connection points: 2
#     Edge 50, Type (0, 1), BuildingBlock: XUDNAN_clean_linker_2, # of connection points: 2
#     Edge 51, Type (0, 1), BuildingBlock: XUDNAN_clean_linker_2, # of connection points: 2
#     Edge 52, Type (0, 1), BuildingBlock: XUDNAN_clean_linker_2, # of connection points: 2
#     Edge 53, Type (0, 1), BuildingBlock: XUDNAN_clean_linker_2, # of connection points: 2
#     Edge 54, Type (0, 1), BuildingBlock: XUDNAN_clean_linker_2, # of connection points: 2
#     Edge 55, Type (0, 1), BuildingBlock: XUDNAN_clean_linker_2, # of connection points: 2
#     Edge 56, Type (0, 1), BuildingBlock: XUDNAN_clean_linker_2, # of connection points: 2
#     Edge 57, Type (0, 1), BuildingBlock: XUDNAN_clean_linker_2, # of connection points: 2
#     Edge 58, Type (0, 1), BuildingBlock: XUDNAN_clean_linker_2, # of connection points: 2
#     Edge 59, Type (0, 1), BuildingBlock: XUDNAN_clean_linker_2, # of connection points: 2
#     Edge 60, Type (0, 1), BuildingBlock: XUDNAN_clean_linker_2, # of connection points: 2
#     Edge 61, Type (0, 1), BuildingBlock: XUDNAN_clean_linker_2, # of connection points: 2
#     Edge 62, Type (0, 1), BuildingBlock: XUDNAN_clean_linker_2, # of connection points: 2
#     Edge 63, Type (0, 1), BuildingBlock: XUDNAN_clean_linker_2, # of connection points: 2
#     Edge 64, Type (0, 1), BuildingBlock: XUDNAN_clean_linker_2, # of connection points: 2
#     Edge 65, Type (0, 1), BuildingBlock: XUDNAN_clean_linker_2, # of connection points: 2
#     Edge 66, Type (0, 1), BuildingBlock: XUDNAN_clean_linker_2, # of connection points: 2
#     Edge 67, Type (0, 1), BuildingBlock: XUDNAN_clean_linker_2, # of connection points: 2
#     Edge 68, Type (0, 1), BuildingBlock: XUDNAN_clean_linker_2, # of connection points: 2
#     Edge 69, Type (0, 1), BuildingBlock: XUDNAN_clean_linker_2, # of connection points: 2
#     Edge 70, Type (0, 1), BuildingBlock: XUDNAN_clean_linker_2, # of connection points: 2
#     Edge 71, Type (0, 1), BuildingBlock: XUDNAN_clean_linker_2, # of connection points: 2
#     Edge 72, Type (0, 1), BuildingBlock: XUDNAN_clean_linker_2, # of connection points: 2
#     Edge 73, Type (0, 1), BuildingBlock: XUDNAN_clean_linker_2, # of connection points: 2
#     Edge 74, Type (0, 1), BuildingBlock: XUDNAN_clean_linker_2, # of connection points: 2
#     Edge 75, Type (0, 1), BuildingBlock: XUDNAN_clean_linker_2, # of connection points: 2
#     Edge 76, Type (0, 1), BuildingBlock: XUDNAN_clean_linker_2, # of connection points: 2
#     Edge 77, Type (0, 1), BuildingBlock: XUDNAN_clean_linker_2, # of connection points: 2
#     Edge 78, Type (0, 1), BuildingBlock: XUDNAN_clean_linker_2, # of connection points: 2
#     Edge 79, Type (0, 1), BuildingBlock: XUDNAN_clean_linker_2, # of connection points: 2
#     Edge 80, Type (0, 1), BuildingBlock: XUDNAN_clean_linker_2, # of connection points: 2
#     Edge 81, Type (0, 1), BuildingBlock: XUDNAN_clean_linker_2, # of connection points: 2
#     Edge 82, Type (0, 1), BuildingBlock: XUDNAN_clean_linker_2, # of connection points: 2
#     Edge 83, Type (0, 1), BuildingBlock: XUDNAN_clean_linker_2, # of connection points: 2
#     Edge 84, Type (0, 1), BuildingBlock: XUDNAN_clean_linker_2, # of connection points: 2
#     Edge 85, Type (0, 1), BuildingBlock: XUDNAN_clean_linker_2, # of connection points: 2
#     Edge 86, Type (0, 1), BuildingBlock: XUDNAN_clean_linker_2, # of connection points: 2
#     Edge 87, Type (0, 1), BuildingBlock: XUDNAN_clean_linker_2, # of connection points: 2
#     Edge 88, Type (0, 1), BuildingBlock: XUDNAN_clean_linker_2, # of connection points: 2
#     Edge 89, Type (0, 1), BuildingBlock: XUDNAN_clean_linker_2, # of connection points: 2
#     Edge 90, Type (0, 1), BuildingBlock: XUDNAN_clean_linker_2, # of connection points: 2
#     Edge 91, Type (0, 1), BuildingBlock: XUDNAN_clean_linker_2, # of connection points: 2
#     Edge 92, Type (0, 1), BuildingBlock: XUDNAN_clean_linker_2, # of connection points: 2
#     Edge 93, Type (0, 1), BuildingBlock: XUDNAN_clean_linker_2, # of connection points: 2
#     Edge 94, Type (0, 1), BuildingBlock: XUDNAN_clean_linker_2, # of connection points: 2
#     Edge 95, Type (0, 1), BuildingBlock: XUDNAN_clean_linker_2, # of connection points: 2
#     Edge 96, Type (0, 1), BuildingBlock: XUDNAN_clean_linker_2, # of connection points: 2
#     Edge 97, Type (0, 1), BuildingBlock: XUDNAN_clean_linker_2, # of connection points: 2
#     Edge 98, Type (0, 1), BuildingBlock: XUDNAN_clean_linker_2, # of connection points: 2
#     Edge 99, Type (0, 1), BuildingBlock: XUDNAN_clean_linker_2, # of connection points: 2
#     Edge 100, Type (0, 1), BuildingBlock: XUDNAN_clean_linker_2, # of connection points: 2
#     Edge 101, Type (0, 1), BuildingBlock: XUDNAN_clean_linker_2, # of connection points: 2
#     Edge 102, Type (0, 1), BuildingBlock: XUDNAN_clean_linker_2, # of connection points: 2
#     Edge 103, Type (0, 1), BuildingBlock: XUDNAN_clean_linker_2, # of connection points: 2
#     Edge 104, Type (0, 1), BuildingBlock: XUDNAN_clean_linker_2, # of connection points: 2
#     Edge 105, Type (0, 1), BuildingBlock: XUDNAN_clean_linker_2, # of connection points: 2
#     Edge 106, Type (0, 1), BuildingBlock: XUDNAN_clean_linker_2, # of connection points: 2
#     Edge 107, Type (0, 1), BuildingBlock: XUDNAN_clean_linker_2, # of connection points: 2
#     Edge 108, Type (0, 1), BuildingBlock: XUDNAN_clean_linker_2, # of connection points: 2
#     Edge 109, Type (0, 1), BuildingBlock: XUDNAN_clean_linker_2, # of connection points: 2
#     Edge 110, Type (0, 1), BuildingBlock: XUDNAN_clean_linker_2, # of connection points: 2
#     Edge 111, Type (0, 1), BuildingBlock: XUDNAN_clean_linker_2, # of connection points: 2
#     Edge 112, Type (0, 1), BuildingBlock: XUDNAN_clean_linker_2, # of connection points: 2
#     Edge 113, Type (0, 1), BuildingBlock: XUDNAN_clean_linker_2, # of connection points: 2
#     Edge 114, Type (0, 1), BuildingBlock: XUDNAN_clean_linker_2, # of connection points: 2
#     Edge 115, Type (0, 1), BuildingBlock: XUDNAN_clean_linker_2, # of connection points: 2
#     Edge 116, Type (0, 1), BuildingBlock: XUDNAN_clean_linker_2, # of connection points: 2
#     Edge 117, Type (0, 1), BuildingBlock: XUDNAN_clean_linker_2, # of connection points: 2
#     Edge 118, Type (0, 1), BuildingBlock: XUDNAN_clean_linker_2, # of connection points: 2
#     Edge 119, Type (0, 1), BuildingBlock: XUDNAN_clean_linker_2, # of connection points: 2
#     Edge 120, Type (0, 1), BuildingBlock: XUDNAN_clean_linker_2, # of connection points: 2
#     Edge 121, Type (0, 1), BuildingBlock: XUDNAN_clean_linker_2, # of connection points: 2
#     Edge 122, Type (0, 1), BuildingBlock: XUDNAN_clean_linker_2, # of connection points: 2
#     Edge 123, Type (0, 1), BuildingBlock: XUDNAN_clean_linker_2, # of connection points: 2
#     Edge 124, Type (0, 1), BuildingBlock: XUDNAN_clean_linker_2, # of connection points: 2
#     Edge 125, Type (0, 1), BuildingBlock: XUDNAN_clean_linker_2, # of connection points: 2
#     Edge 126, Type (0, 1), BuildingBlock: XUDNAN_clean_linker_2, # of connection points: 2
#     Edge 127, Type (0, 1), BuildingBlock: XUDNAN_clean_linker_2, # of connection points: 2
#     Edge 128, Type (0, 1), BuildingBlock: XUDNAN_clean_linker_2, # of connection points: 2
#     Edge 129, Type (0, 1), BuildingBlock: XUDNAN_clean_linker_2, # of connection points: 2
#     Edge 130, Type (0, 1), BuildingBlock: XUDNAN_clean_linker_2, # of connection points: 2
#     Edge 131, Type (0, 1), BuildingBlock: XUDNAN_clean_linker_2, # of connection points: 2
#     Edge 132, Type (0, 1), BuildingBlock: XUDNAN_clean_linker_2, # of connection points: 2
#     Edge 133, Type (0, 1), BuildingBlock: XUDNAN_clean_linker_2, # of connection points: 2
#     Edge 134, Type (0, 1), BuildingBlock: XUDNAN_clean_linker_2, # of connection points: 2
#     Edge 135, Type (0, 1), BuildingBlock: XUDNAN_clean_linker_2, # of connection points: 2
# Relax obj value: 0.136
# Max RMSD: 0.334
# Mean RMSD: 0.178
data_MOF--net-gar--node1-QUQFOY_clean_sbu_1--node2-KUMBOL_clean_sbu_0--edge1-XUDNAN_clean_linker_2
_symmetry_space_group_name_H-M    P1
_symmetry_Int_Tables_number       1
_symmetry_cell_setting            triclinic
loop_
_symmetry_equiv_pos_as_xyz
'x, y, z'
_cell_length_a     62.601064
_cell_length_b     56.718622
_cell_length_c     56.937791
_cell_angle_alpha  100.16135
_cell_angle_beta   93.99384
_cell_angle_gamma 104.44019
loop_
_atom_site_label
_atom_site_type_symbol
_atom_site_fract_x
_atom_site_fract_y
_atom_site_fract_z
_atom_type_partial_charge
O0 O 0.12706 0.30321 0.39904 0.0
Cd1 Cd 0.13338 0.33101 0.38014 0.0
Cd2 Cd 0.12363 0.35414 0.41909 0.0
O3 O 0.13096 0.32701 0.43467 0.0
O4 O 0.14046 0.31161 0.35123 0.0
O5 O 0.16454 0.34498 0.37303 0.0
C6 C 0.15997 0.32662 0.35488 0.0
C7 C 0.13418 0.39439 0.43952 0.0
C8 C 0.12868 0.3058 0.42166 0.0
C9 C 0.09063 0.34213 0.37627 0.0
O10 O 0.093 0.34611 0.39901 0.0
O11 O 0.10662 0.33907 0.36478 0.0
O12 O 0.11928 0.37772 0.44633 0.0
O13 O 0.14456 0.38793 0.42169 0.0
O14 O 0.99915 0.7236 0.67388 0.0
Cd15 Cd 0.00972 0.75961 0.69236 0.0
Cd16 Cd 0.01061 0.76604 0.65017 0.0
O17 O 0.98711 0.73268 0.64043 0.0
O18 O 0.99664 0.76122 0.72282 0.0
O19 O 0.98834 0.78001 0.69343 0.0
C20 C 0.98518 0.77442 0.71417 0.0
C21 C 1.00832 0.79977 0.63391 0.0
C22 C 0.98883 0.71658 0.6528 0.0
C23 C 0.05338 0.77013 0.67934 0.0
O24 O 0.04257 0.76386 0.6585 0.0
O25 O 0.0434 0.77421 0.69765 0.0
O26 O 0.01247 0.78065 0.62118 0.0
O27 O 1.00459 0.79951 0.65586 0.0
O28 O 0.66508 0.83813 0.88314 0.0
Cd29 Cd 0.64522 0.83795 0.91036 0.0
Cd30 Cd 0.62362 0.8576 0.88042 0.0
O31 O 0.64796 0.85591 0.85892 0.0
O32 O 0.65167 0.81497 0.93061 0.0
O33 O 0.61935 0.8083 0.90833 0.0
C34 C 0.63167 0.80143 0.92349 0.0
C35 C 0.58692 0.84447 0.86499 0.0
C36 C 0.66362 0.84654 0.86398 0.0
C37 C 0.63946 0.88741 0.92963 0.0
O38 O 0.62959 0.88577 0.90907 0.0
O39 O 0.64739 0.87019 0.93458 0.0
O40 O 0.59965 0.8649 0.86151 0.0
O41 O 0.59538 0.8304 0.87619 0.0
O42 O 0.49916 0.21201 0.17178 0.0
Cd43 Cd 0.50691 0.24669 0.19373 0.0
Cd44 Cd 0.51174 0.25929 0.15443 0.0
O45 O 0.48635 0.2278 0.14334 0.0
O46 O 0.49102 0.24814 0.22213 0.0
O47 O 0.48475 0.26565 0.19093 0.0
C48 C 0.48021 0.26087 0.21168 0.0
C49 C 0.51348 0.29302 0.13645 0.0
C50 C 0.48864 0.20886 0.15109 0.0
C51 C 0.55173 0.2628 0.18559 0.0
O52 O 0.54295 0.25563 0.16395 0.0
O53 O 0.53968 0.26505 0.20233 0.0
O54 O 0.5161 0.27246 0.12495 0.0
O55 O 0.50851 0.29406 0.15818 0.0
O56 O 0.09591 0.78711 0.11701 0.0
Cd57 Cd 0.09953 0.82142 0.13809 0.0
Cd58 Cd 0.12258 0.83813 0.10308 0.0
O59 O 0.11114 0.79907 0.08589 0.0
O60 O 0.07796 0.81117 0.16117 0.0
O61 O 0.07504 0.83934 0.13985 0.0
C62 C 0.0671 0.826 0.15497 0.0
C63 C 0.11258 0.87267 0.08833 0.0
C64 C 0.10194 0.78155 0.09643 0.0
C65 C 0.14933 0.84025 0.1509 0.0
O66 O 0.15067 0.84395 0.1294 0.0
O67 O 0.13032 0.83391 0.15819 0.0
O68 O 0.12661 0.86175 0.07874 0.0
O69 O 0.10388 0.86409 0.10608 0.0
O70 O 0.56971 0.78511 0.43447 0.0
Cd71 Cd 0.54784 0.77951 0.46008 0.0
Cd72 Cd 0.52269 0.7961 0.41435 0.0
O73 O 0.5522 0.79041 0.40094 0.0
O74 O 0.56194 0.76269 0.48426 0.0
O75 O 0.53164 0.7432 0.45974 0.0
C76 C 0.54689 0.74218 0.47577 0.0
C77 C 0.48814 0.79093 0.38937 0.0
C78 C 0.56958 0.78821 0.41277 0.0
C79 C 0.53591 0.82947 0.46698 0.0
O80 O 0.52907 0.82441 0.44456 0.0
O81 O 0.54184 0.81337 0.47738 0.0
O82 O 0.50494 0.80981 0.39058 0.0
O83 O 0.49103 0.77439 0.40133 0.0
O84 O 0.60331 0.28762 0.62057 0.0
Cd85 Cd 0.60986 0.32202 0.64217 0.0
Cd86 Cd 0.63333 0.33399 0.60509 0.0
O87 O 0.62001 0.2945 0.58883 0.0
O88 O 0.58811 0.3127 0.66564 0.0
O89 O 0.58668 0.3418 0.64508 0.0
C90 C 0.57809 0.32841 0.65984 0.0
C91 C 0.62032 0.36936 0.59546 0.0
C92 C 0.60874 0.27913 0.60038 0.0
C93 C 0.66032 0.33674 0.65351 0.0
O94 O 0.66147 0.33932 0.63163 0.0
O95 O 0.64137 0.33205 0.66133 0.0
O96 O 0.63447 0.36073 0.58342 0.0
O97 O 0.61331 0.35783 0.61226 0.0
O98 O 0.03255 0.23499 0.9362 0.0
Cd99 Cd 0.0328 0.25953 0.91189 0.0
Cd100 Cd 0.02204 0.29027 0.95655 0.0
O101 O 0.03188 0.26067 0.97018 0.0
O102 O 0.04679 0.24644 0.88316 0.0
O103 O 0.06373 0.28101 0.90893 0.0
C104 C 0.06408 0.26505 0.88983 0.0
C105 C 0.0323 0.33268 0.97867 0.0
C106 C 0.03399 0.23967 0.95917 0.0
C107 C 0.98933 0.27607 0.90867 0.0
O108 O 0.99336 0.28359 0.93149 0.0
O109 O 1.0033 0.26704 0.89726 0.0
O110 O 0.0175 0.31543 0.98498 0.0
O111 O 0.04237 0.3258 0.96067 0.0
O112 O 0.42321 0.05043 0.27977 0.0
Cd113 Cd 0.41613 0.06042 0.31469 0.0
Cd114 Cd 0.45453 0.06189 0.31903 0.0
O115 O 0.45697 0.07477 0.28806 0.0
O116 O 0.38666 0.06613 0.31245 0.0
O117 O 0.41767 0.0958 0.32749 0.0
C118 C 0.39638 0.08911 0.32164 0.0
C119 C 0.47451 0.0781 0.35485 0.0
C120 C 0.44121 0.06115 0.27261 0.0
C121 C 0.42394 0.01849 0.32767 0.0
O122 O 0.43989 0.02469 0.31558 0.0
O123 O 0.41369 0.03429 0.33534 0.0
O124 O 0.48295 0.06712 0.33741 0.0
O125 O 0.45536 0.08241 0.35103 0.0
O126 O 0.3236 0.21856 0.55614 0.0
Cd127 Cd 0.31921 0.19014 0.52646 0.0
Cd128 Cd 0.29637 0.21878 0.50618 0.0
O129 O 0.30487 0.24155 0.54075 0.0
O130 O 0.33795 0.16969 0.53798 0.0
O131 O 0.34348 0.18566 0.50551 0.0
C132 C 0.34908 0.17264 0.52009 0.0
C133 C 0.30278 0.23505 0.47087 0.0
C134 C 0.3158 0.23742 0.55865 0.0
C135 C 0.26967 0.16831 0.5105 0.0
O136 O 0.2691 0.18829 0.50353 0.0
O137 O 0.28795 0.16564 0.51932 0.0
O138 O 0.28787 0.23969 0.48414 0.0
O139 O 0.31469 0.22135 0.47776 0.0
O140 O 0.17837 1.01492 0.7306 0.0
Cd141 Cd 0.20732 1.01331 0.75503 0.0
Cd142 Cd 0.17485 0.04532 0.79176 0.0
O143 O 0.15905 0.0363 0.75417 0.0
O144 O 0.22771 0.99181 0.73724 0.0
O145 O 0.21516 0.98299 0.76976 0.0
C146 C 0.22712 0.97777 0.75295 0.0
C147 C 0.15613 0.04234 0.8302 0.0
C148 C 0.16245 0.02596 0.73294 0.0
C149 C 0.22325 0.07236 0.78068 0.0
O150 O 0.20609 0.07205 0.79205 0.0
O151 O 0.2258 0.05219 0.7678 0.0
O152 O 0.15717 0.06062 0.8192 0.0
O153 O 0.16492 0.02559 0.81957 0.0
O154 O 0.3288 0.95776 0.05695 0.0
Cd155 Cd 0.33192 0.9735 0.02742 0.0
Cd156 Cd 0.34082 0.93456 0.01012 0.0
O157 O 0.3247 0.92011 0.03645 0.0
O158 O 0.31513 0.99784 0.0334 0.0
O159 O 0.30593 0.96583 1.00223 0.0
C160 C 0.30153 0.98486 0.01495 0.0
C161 C 0.33566 0.91324 0.97134 0.0
C162 C 0.32428 0.93456 0.05603 0.0
C163 C 0.37766 0.98109 0.02364 0.0
O164 O 0.37234 0.95754 0.01984 0.0
O165 O 0.36299 0.99289 0.02472 0.0
O166 O 0.34562 0.90601 0.98816 0.0
O167 O 0.32744 0.93197 0.97669 0.0
O168 O 0.33141 0.40414 0.08015 0.0
Cd169 Cd 0.33505 0.42396 0.05328 0.0
Cd170 Cd 0.34383 0.37964 0.03117 0.0
O171 O 0.32974 0.36637 0.06058 0.0
O172 O 0.31924 0.45024 0.06268 0.0
O173 O 0.30668 0.419 0.03161 0.0
C174 C 0.3037 0.43822 0.04557 0.0
C175 C 0.33551 0.35797 0.99064 0.0
C176 C 0.32773 0.38096 0.07962 0.0
C177 C 0.38134 0.42872 0.0428 0.0
O178 O 0.37503 0.40502 0.03757 0.0
O179 O 0.3674 0.44119 0.04801 0.0
O180 O 0.34705 0.35087 1.00635 0.0
O181 O 0.32737 0.37637 0.99824 0.0
O182 O 0.79654 0.15369 0.08103 0.0
Cd183 Cd 0.80199 0.12474 0.05893 0.0
Cd184 Cd 0.79591 0.15341 0.0257 0.0
O185 O 0.80893 0.17854 0.0566 0.0
O186 O 0.82887 0.11616 0.06989 0.0
O187 O 0.82423 0.13244 0.03733 0.0
C188 C 0.83656 0.1246 0.0516 0.0
C189 C 0.79206 0.17818 0.99869 0.0
C190 C 0.8029 0.17529 0.07673 0.0
C191 C 0.7612 0.10547 0.03211 0.0
O192 O 0.76775 0.12571 0.02488 0.0
O193 O 0.77448 0.09788 0.04478 0.0
O194 O 0.77992 0.17613 0.01577 0.0
O195 O 0.80556 0.16437 0.99542 0.0
O196 O 0.21759 0.56936 0.21547 0.0
Cd197 Cd 0.23998 0.56168 0.23866 0.0
Cd198 Cd 0.20839 0.55985 0.26513 0.0
O199 O 0.19144 0.54602 0.23149 0.0
O200 O 0.25568 0.53838 0.22305 0.0
O201 O 0.23023 0.52951 0.24804 0.0
C202 C 0.24399 0.52262 0.23421 0.0
C203 C 0.19041 0.55243 0.29762 0.0
C204 C 0.19767 0.5568 0.21451 0.0
C205 C 0.24788 0.60362 0.27544 0.0
O206 O 0.22697 0.59606 0.27406 0.0
O207 O 0.25866 0.59005 0.26429 0.0
O208 O 0.18421 0.56516 0.2832 0.0
O209 O 0.20562 0.54137 0.29225 0.0
O210 O 0.83311 0.90311 0.58436 0.0
Cd211 Cd 0.8363 0.92147 0.55606 0.0
Cd212 Cd 0.84903 0.88015 0.53979 0.0
O213 O 0.83443 0.86539 0.56837 0.0
O214 O 0.82189 0.94803 0.56884 0.0
O215 O 0.8082 0.92048 0.53531 0.0
C216 C 0.80616 0.93866 0.55139 0.0
C217 C 0.83742 0.86704 0.4981 0.0
C218 C 0.83121 0.88069 0.58618 0.0
C219 C 0.88423 0.92925 0.55044 0.0
O220 O 0.88023 0.90581 0.54887 0.0
O221 O 0.86837 0.93961 0.55067 0.0
O222 O 0.84864 0.85525 0.50935 0.0
O223 O 0.83153 0.88511 0.51081 0.0
O224 O 0.95872 0.08464 0.23655 0.0
Cd225 Cd 0.93087 0.08463 0.25855 0.0
Cd226 Cd 0.97196 0.05786 0.28643 0.0
O227 O 0.98412 0.06787 0.25223 0.0
O228 O 0.90852 0.10159 0.24211 0.0
O229 O 0.92445 0.11819 0.27812 0.0
C230 C 0.91103 0.11957 0.2604 0.0
C231 C 0.9939 0.06016 0.32626 0.0
C232 C 0.97684 0.07744 0.23511 0.0
C233 C 0.91992 0.02888 0.27247 0.0
O234 O 0.94016 0.03131 0.28078 0.0
O235 O 0.91426 0.0468 0.26433 0.0
O236 O 0.99407 0.04424 0.30704 0.0
O237 O 0.98268 0.07587 0.32305 0.0
O238 O 0.29618 0.64055 0.57032 0.0
Cd239 Cd 0.29678 0.62031 0.53756 0.0
Cd240 Cd 0.29386 0.65938 0.52268 0.0
O241 O 0.30564 0.67568 0.55718 0.0
O242 O 0.31834 0.60076 0.54009 0.0
O243 O 0.32281 0.63276 0.5214 0.0
C244 C 0.3307 0.61619 0.52912 0.0
C245 C 0.30403 0.68151 0.49318 0.0
C246 C 0.30185 0.66401 0.57413 0.0
C247 C 0.25362 0.61664 0.51804 0.0
O248 O 0.26171 0.63974 0.51961 0.0
O249 O 0.26609 0.60243 0.52005 0.0
O250 O 0.29187 0.68836 0.5089 0.0
O251 O 0.31067 0.66192 0.494 0.0
O252 O 0.46207 0.58662 0.7394 0.0
Cd253 Cd 0.43228 0.58836 0.75916 0.0
Cd254 Cd 0.47248 0.56189 0.79429 0.0
O255 O 0.48517 0.57082 0.76065 0.0
O256 O 0.41091 0.60818 0.74291 0.0
O257 O 0.4261 0.62186 0.77939 0.0
C258 C 0.41339 0.62525 0.76203 0.0
C259 C 0.49421 0.56354 0.83446 0.0
C260 C 0.47999 0.57893 0.74154 0.0
C261 C 0.4211 0.53248 0.7751 0.0
O262 O 0.44075 0.5355 0.78558 0.0
O263 O 0.41567 0.55022 0.76614 0.0
O264 O 0.4922 0.54598 0.81592 0.0
O265 O 0.4851 0.58079 0.83043 0.0
O266 O 0.71114 0.06973 0.70864 0.0
Cd267 Cd 0.72896 0.06291 0.73579 0.0
Cd268 Cd 0.70112 0.07577 0.76281 0.0
O269 O 0.68276 0.06468 0.72996 0.0
O270 O 0.74325 0.03737 0.72333 0.0
O271 O 0.7159 0.03229 0.74675 0.0
C272 C 0.7303 0.02371 0.73526 0.0
C273 C 0.68913 0.06661 0.79793 0.0
C274 C 0.69063 0.06622 0.71017 0.0
C275 C 0.74585 0.10873 0.77002 0.0
O276 O 0.72548 0.108 0.77002 0.0
O277 O 0.75162 0.09051 0.75872 0.0
O278 O 0.68138 0.08156 0.78733 0.0
O279 O 0.70213 0.05489 0.78733 0.0
O280 O 0.81483 0.71467 0.05988 0.0
Cd281 Cd 0.81419 0.69207 0.02742 0.0
Cd282 Cd 0.79768 0.72835 0.01302 0.0
O283 O 0.80509 0.7467 0.04984 0.0
O284 O 0.8311 0.6695 0.03815 0.0
O285 O 0.84151 0.6912 0.01034 0.0
C286 C 0.84514 0.67598 0.02352 0.0
C287 C 0.81183 0.74089 0.97813 0.0
C288 C 0.81061 0.73552 0.06598 0.0
C289 C 0.76632 0.67684 1.00762 0.0
O290 O 0.76857 0.69949 1.00628 0.0
O291 O 0.78285 0.66939 0.01437 0.0
O292 O 0.79683 0.74988 0.98809 0.0
O293 O 0.8199 0.72623 0.98898 0.0
O294 O 0.92577 0.5601 0.79046 0.0
Cd295 Cd 0.91834 0.56545 0.82567 0.0
Cd296 Cd 0.95656 0.56401 0.83041 0.0
O297 O 0.96085 0.57969 0.80136 0.0
O298 O 0.91496 0.59887 0.84066 0.0
O299 O 0.88758 0.56667 0.82168 0.0
C300 C 0.89415 0.58944 0.83289 0.0
C301 C 0.97367 0.5805 0.8675 0.0
C302 C 0.94453 0.57101 0.78513 0.0
C303 C 0.92458 0.52066 0.83561 0.0
O304 O 0.94151 0.52685 0.82489 0.0
O305 O 0.91434 0.53655 0.84295 0.0
O306 O 0.98377 0.57003 0.85138 0.0
O307 O 0.95419 0.58326 0.86194 0.0
O308 O 0.84709 0.46549 0.56618 0.0
Cd309 Cd 0.8475 0.48212 0.5371 0.0
Cd310 Cd 0.84828 0.44018 0.51307 0.0
O311 O 0.8399 0.42807 0.54379 0.0
O312 O 0.82952 0.50539 0.54364 0.0
O313 O 0.81965 0.47154 0.51432 0.0
C314 C 0.81497 0.49052 0.52682 0.0
C315 C 0.83637 0.41243 0.47768 0.0
C316 C 0.84183 0.44209 0.56422 0.0
C317 C 0.88789 0.48432 0.51662 0.0
O318 O 0.87934 0.46111 0.51132 0.0
O319 O 0.87742 0.49862 0.52727 0.0
O320 O 0.85145 0.40994 0.49279 0.0
O321 O 0.82693 0.43012 0.4831 0.0
O322 O 0.68238 0.50945 0.23614 0.0
Cd323 Cd 0.71089 0.5104 0.26208 0.0
Cd324 Cd 0.67554 0.54201 0.29334 0.0
O325 O 0.66073 0.53143 0.25496 0.0
O326 O 0.73131 0.4882 0.24557 0.0
O327 O 0.71909 0.48144 0.27883 0.0
C328 C 0.7308 0.47518 0.26215 0.0
C329 C 0.65589 0.54235 0.33173 0.0
C330 C 0.66597 0.51973 0.2353 0.0
C331 C 0.72461 0.57018 0.28389 0.0
O332 O 0.70662 0.56956 0.29385 0.0
O333 O 0.7285 0.54991 0.27276 0.0
O334 O 0.65711 0.55882 0.31843 0.0
O335 O 0.66503 0.525 0.32344 0.0
Gd336 Gd 0.09799 0.07849 0.04979 0.0
Gd337 Gd 0.04546 0.04193 0.02095 0.0
C338 C 0.01833 0.95944 0.02231 0.0
C339 C 1.00927 0.9411 0.9798 0.0
C340 C 0.02665 0.98547 0.99284 0.0
C341 C 0.02684 0.98303 0.01663 0.0
C342 C 0.01759 0.96454 0.97418 0.0
C343 C 0.00969 0.93855 1.0038 0.0
C344 C 0.01834 0.95753 0.04645 0.0
C345 C 0.02635 0.97881 0.06428 0.0
N346 N 0.03474 1.00369 0.0342 0.0
C347 C 0.03421 1.0018 0.05787 0.0
H348 H 0.04051 0.01763 0.07228 0.0
C349 C 0.03238 1.0119 0.96473 0.0
N350 N 0.03439 1.00841 0.98789 0.0
C351 C 0.02391 0.99168 0.94567 0.0
C352 C 0.01656 0.96787 0.9504 0.0
H353 H 0.03731 0.03044 0.96104 0.0
H354 H 1.00299 0.92037 1.00787 0.0
H355 H 0.10209 0.10425 0.99895 0.0
H356 H 0.01203 0.93976 0.0515 0.0
H357 H 0.02643 0.97757 0.08304 0.0
H358 H 1.00218 0.92486 0.96571 0.0
H359 H 0.10684 0.08943 0.10952 0.0
H360 H 0.13683 0.18047 0.02017 0.0
H361 H 0.11874 0.14373 0.98852 0.0
H362 H 0.14949 0.19375 0.10575 0.0
H363 H 0.02267 0.99455 0.92738 0.0
H364 H 1.00965 0.95227 0.93562 0.0
H365 H 0.14822 0.19887 0.06376 0.0
H366 H 0.1244 0.12423 0.1433 0.0
N367 N 0.11022 0.11712 0.0371 0.0
C368 C 0.12944 0.16289 0.02511 0.0
C369 C 0.11934 0.14221 1.00723 0.0
C370 C 0.12998 0.16062 0.04915 0.0
C371 C 0.12006 0.13727 0.05468 0.0
C372 C 0.11002 0.11945 0.01348 0.0
N373 N 0.11131 0.11178 0.08295 0.0
C374 C 0.12056 0.13451 0.0783 0.0
C375 C 0.12324 0.12747 0.12514 0.0
C376 C 0.13233 0.15109 0.12067 0.0
C377 C 0.11309 0.10788 0.10598 0.0
C378 C 0.13128 0.15482 0.09704 0.0
H379 H 0.14048 0.16618 0.13551 0.0
O380 O 0.12318 0.06862 0.07079 0.0
O381 O 0.07796 0.0392 0.03609 0.0
O382 O 0.04157 0.05488 0.06143 0.0
O383 O 0.07399 0.08502 0.07839 0.0
O384 O 0.09223 0.0478 0.07125 0.0
O385 O 0.12937 0.07781 0.03586 0.0
O386 O 0.02155 0.05449 1.00122 0.0
O387 O 0.06533 0.08182 0.03448 0.0
O388 O 0.1009 0.06681 1.00861 0.0
O389 O 0.06966 0.03437 0.99345 0.0
O390 O 0.05158 0.07172 0.99892 0.0
O391 O 0.01124 0.03473 0.02983 0.0
C392 C 0.08156 0.02973 0.05416 0.0
C393 C 0.14111 0.17801 0.09162 0.0
C394 C 0.14042 0.18091 0.06772 0.0
C395 C 0.13701 0.07123 0.05487 0.0
C396 C 0.16055 0.0809 0.06366 0.0
C397 C 0.16843 0.09703 0.08599 0.0
C398 C 0.17499 0.07023 0.05073 0.0
C399 C 0.19702 0.07439 0.0603 0.0
C400 C 0.19068 0.10177 0.0954 0.0
C401 C 0.20491 0.09014 0.0828 0.0
C402 C 0.05354 0.0716 0.08027 0.0
C403 C 0.06194 0.09041 0.0156 0.0
C404 C 1.00554 0.0459 0.01323 0.0
C405 C 0.98342 0.03742 0.99996 0.0
C406 C 0.97946 0.0245 0.97602 0.0
C407 C 0.96818 0.04941 1.00929 0.0
C408 C 0.9509 0.05243 0.99414 0.0
C409 C 0.96093 0.02514 0.96126 0.0
C410 C 0.94707 0.03968 0.96998 0.0
C411 C 0.08928 0.04877 0.9905 0.0
H412 H 0.15734 0.10522 0.0964 0.0
H413 H 0.16864 0.05712 0.03386 0.0
H414 H 0.19672 0.11384 0.11279 0.0
H415 H 0.22189 0.09317 0.09063 0.0
H416 H 0.99115 1.01516 0.96842 0.0
H417 H 0.97126 0.05848 0.02809 0.0
H418 H 0.95812 1.01565 0.94262 0.0
H419 H 0.93403 0.04158 0.95755 0.0
Gd420 Gd 0.30569 0.82445 0.29635 0.0
Gd421 Gd 0.32905 0.80089 0.24164 0.0
C422 C 0.29448 0.72763 0.18956 0.0
C423 C 0.32377 0.70655 0.18778 0.0
C424 C 0.32894 0.74581 0.21602 0.0
C425 C 0.30811 0.74726 0.20741 0.0
C426 C 0.33689 0.72532 0.20627 0.0
C427 C 0.30263 0.70772 0.1794 0.0
C428 C 0.27275 0.7281 0.18286 0.0
C429 C 0.26475 0.74724 0.19447 0.0
N430 N 0.30079 0.76715 0.21711 0.0
C431 C 0.27885 0.76639 0.21175 0.0
H432 H 0.27139 0.77959 0.22131 0.0
C433 C 0.36296 0.76433 0.24084 0.0
N434 N 0.34165 0.76456 0.23346 0.0
C435 C 0.37119 0.74416 0.23223 0.0
C436 C 0.35809 0.72452 0.21491 0.0
H437 H 0.37418 0.7801 0.25289 0.0
H438 H 0.29246 0.69274 0.16553 0.0
H439 H 0.34693 0.84418 0.34373 0.0
H440 H 0.26175 0.71326 0.1695 0.0
H441 H 0.24757 0.74711 0.19038 0.0
H442 H 0.32973 0.69088 0.17999 0.0
H443 H 0.25548 0.83411 0.28483 0.0
H444 H 0.35836 0.92203 0.3679 0.0
H445 H 0.36804 0.88279 0.37 0.0
H446 H 0.29565 0.93938 0.32942 0.0
H447 H 0.38794 0.74419 0.23844 0.0
H448 H 0.3647 0.70912 0.20787 0.0
H449 H 0.33163 0.94319 0.35201 0.0
H450 H 0.23808 0.86886 0.28785 0.0
N451 N 0.32642 0.86096 0.32401 0.0
C452 C 0.34928 0.90507 0.35558 0.0
C453 C 0.35476 0.88298 0.35685 0.0
C454 C 0.33109 0.90463 0.33968 0.0
C455 C 0.31971 0.88196 0.32406 0.0
C456 C 0.34285 0.86098 0.34129 0.0
N457 N 0.2879 0.85715 0.29885 0.0
C458 C 0.29968 0.87996 0.31109 0.0
C459 C 0.25554 0.87239 0.29406 0.0
C460 C 0.26816 0.89645 0.30424 0.0
C461 C 0.26549 0.85278 0.29232 0.0
C462 C 0.29026 0.90036 0.31374 0.0
H463 H 0.2603 0.91157 0.30607 0.0
O464 O 0.27453 0.80807 0.30862 0.0
O465 O 0.31052 0.79164 0.27153 0.0
O466 O 0.29991 0.81469 0.22858 0.0
O467 O 0.29133 0.83683 0.26399 0.0
O468 O 0.27882 0.79051 0.27768 0.0
O469 O 0.30574 0.81494 0.33196 0.0
O470 O 0.3641 0.81607 0.23846 0.0
O471 O 0.33248 0.83045 0.27351 0.0
O472 O 0.33845 0.81564 0.30837 0.0
O473 O 0.34548 0.79072 0.27423 0.0
O474 O 0.33719 0.84216 0.24141 0.0
O475 O 0.34016 0.7991 0.20656 0.0
C476 C 0.29135 0.77744 0.26838 0.0
C477 C 0.30248 0.92347 0.32747 0.0
C478 C 0.32295 0.92562 0.34036 0.0
C479 C 0.28412 0.80709 0.3292 0.0
C480 C 0.27114 0.79739 0.34743 0.0
C481 C 0.2483 0.79573 0.3465 0.0
C482 C 0.28122 0.78779 0.36475 0.0
C483 C 0.26863 0.77596 0.38074 0.0
C484 C 0.23573 0.78429 0.36273 0.0
C485 C 0.24579 0.77419 0.3797 0.0
C486 C 0.28805 0.82838 0.24037 0.0
C487 C 0.33776 0.84918 0.2643 0.0
C488 C 0.36093 0.80972 0.21505 0.0
C489 C 0.37374 0.82644 0.20123 0.0
C490 C 0.39483 0.8241 0.19625 0.0
C491 C 0.36427 0.84249 0.19063 0.0
C492 C 0.37562 0.85561 0.17463 0.0
C493 C 0.40624 0.83744 0.18047 0.0
C494 C 0.39659 0.85304 0.16947 0.0
C495 C 0.34991 0.80088 0.29751 0.0
H496 H 0.24015 0.80298 0.33309 0.0
H497 H 0.29871 0.78842 0.36506 0.0
H498 H 0.21813 0.78294 0.36192 0.0
H499 H 0.23583 0.76502 0.39196 0.0
H500 H 0.40216 0.8114 0.20403 0.0
H501 H 0.34776 0.84398 0.19399 0.0
H502 H 0.42235 0.83528 0.17636 0.0
H503 H 0.40529 0.86283 0.15677 0.0
Gd504 Gd 0.54556 0.05199 0.54586 0.0
Gd505 Gd 0.59994 0.05338 0.52802 0.0
C506 C 0.64736 0.13081 0.54695 0.0
C507 C 0.65716 0.13798 0.50776 0.0
C508 C 0.63098 0.09941 0.51118 0.0
C509 C 0.63314 0.10739 0.53594 0.0
C510 C 0.64337 0.11442 0.4969 0.0
C511 C 0.65915 0.14615 0.53271 0.0
C512 C 0.6497 0.13789 0.57202 0.0
C513 C 0.6386 0.12143 0.58553 0.0
N514 N 0.62208 0.09187 0.54934 0.0
C515 C 0.62505 0.09818 0.57384 0.0
H516 H 0.61678 0.0854 0.58436 0.0
C517 C 0.61769 0.06641 0.47747 0.0
N518 N 0.61784 0.07637 0.50121 0.0
C519 C 0.62947 0.08071 0.46256 0.0
C520 C 0.64217 0.10493 0.47227 0.0
H521 H 0.60813 0.04751 0.47007 0.0
H522 H 0.67015 0.1642 0.54086 0.0
H523 H 0.51579 0.01895 0.49173 0.0
H524 H 0.66034 0.15581 0.58114 0.0
H525 H 0.64059 0.12659 0.60493 0.0
H526 H 0.66672 0.14982 0.49707 0.0
H527 H 0.54414 0.05679 0.60647 0.0
H528 H 0.48565 0.94555 0.50038 0.0
H529 H 0.49417 0.97665 0.47466 0.0
H530 H 0.49822 0.94998 0.58486 0.0
H531 H 0.62893 0.07296 0.44368 0.0
H532 H 0.65149 0.11588 0.46073 0.0
H533 H 0.4874 0.93577 0.54138 0.0
H534 H 0.5331 0.02939 0.63475 0.0
N535 N 0.5216 1.01246 0.52732 0.0
C536 C 0.49554 0.96427 0.50816 0.0
C537 C 0.50034 0.98175 0.4936 0.0
C538 C 0.50284 0.97137 0.53274 0.0
C539 C 0.51588 0.99595 0.542 0.0
C540 C 0.51304 1.00593 0.50354 0.0
N541 N 0.53403 0.02775 0.57508 0.0
C542 C 0.52234 1.00379 0.56651 0.0
C543 C 0.53025 0.02182 0.61562 0.0
C544 C 0.52005 0.99667 0.60709 0.0
C545 C 0.5366 0.03725 0.59934 0.0
C546 C 0.51544 0.98747 0.58231 0.0
H547 H 0.51498 0.98474 0.61975 0.0
O548 O 0.53399 0.07608 0.57253 0.0
O549 O 0.58046 0.07677 0.54885 0.0
O550 O 0.59373 0.03583 0.55987 0.0
O551 O 0.57061 0.05728 0.57758 0.0
O552 O 0.55497 0.08998 0.53653 0.0
O553 O 0.51235 0.05776 0.53876 0.0
O554 O 0.61693 0.02728 0.51081 0.0
O555 O 0.56757 0.02813 0.53229 0.0
O556 O 0.54477 0.05291 0.50681 0.0
O557 O 0.58181 0.06623 0.4996 0.0
O558 O 0.58012 0.02051 0.49994 0.0
O559 O 0.62982 0.04858 0.54655 0.0
C560 C 0.57612 0.09591 0.54279 0.0
C561 C 0.50338 0.96279 0.57301 0.0
C562 C 0.49715 0.95474 0.54827 0.0
C563 C 0.51494 0.0724 0.55981 0.0
C564 C 0.49794 0.08376 0.56973 0.0
C565 C 0.49728 0.08827 0.59469 0.0
C566 C 0.48272 0.09068 0.55475 0.0
C567 C 0.46736 0.1027 0.56483 0.0
C568 C 0.48179 0.09966 0.60465 0.0
C569 C 0.46698 0.10694 0.58988 0.0
C570 C 0.58386 0.04279 0.57836 0.0
C571 C 0.56479 1.01219 0.51284 0.0
C572 C 0.6325 0.03215 0.52871 0.0
C573 C 0.65521 0.03396 0.52247 0.0
C574 C 0.66484 0.05051 0.50817 0.0
C575 C 0.66693 0.01781 0.52984 0.0
C576 C 0.68798 0.01782 0.5225 0.0
C577 C 0.68565 0.05059 0.50082 0.0
C578 C 0.69712 0.03429 0.50779 0.0
C579 C 0.56026 0.06128 0.49352 0.0
H580 H 0.50874 0.08291 0.60653 0.0
H581 H 0.4833 0.08747 0.53549 0.0
H582 H 0.48133 0.10298 0.6239 0.0
H583 H 0.45509 0.11577 0.59806 0.0
H584 H 0.65628 0.06321 0.50249 0.0
H585 H 0.65952 1.00497 0.54089 0.0
H586 H 0.69293 0.06334 0.48968 0.0
H587 H 0.71338 0.03494 0.50211 0.0
Gd588 Gd 0.34954 0.2963 0.77522 0.0
Gd589 Gd 0.29372 0.30495 0.77317 0.0
C590 C 0.2502 0.28262 0.70064 0.0
C591 C 0.24021 0.32075 0.69763 0.0
C592 C 0.26486 0.31934 0.73211 0.0
C593 C 0.26327 0.29454 0.72281 0.0
C594 C 0.25304 0.33255 0.71972 0.0
C595 C 0.23881 0.29587 0.68811 0.0
C596 C 0.24889 0.25768 0.69163 0.0
C597 C 0.26036 0.24513 0.70462 0.0
N598 N 0.27464 0.28216 0.73523 0.0
C599 C 0.27301 0.25757 0.72649 0.0
H600 H 0.2819 0.24727 0.73564 0.0
C601 C 0.27699 0.3537 0.76453 0.0
N602 N 0.2773 0.33035 0.75357 0.0
C603 C 0.26586 0.36762 0.75282 0.0
C604 C 0.254 0.35709 0.73017 0.0
H605 H 0.28547 0.36158 0.78241 0.0
H606 H 0.22872 0.28697 0.67111 0.0
H607 H 0.36952 0.35392 0.81087 0.0
H608 H 0.23907 0.24793 0.67468 0.0
H609 H 0.2595 0.22582 0.69778 0.0
H610 H 0.23108 0.33064 0.68789 0.0
H611 H 0.35523 0.23774 0.76511 0.0
H612 H 0.40059 0.34653 0.87701 0.0
H613 H 0.38908 0.37269 0.85088 0.0
H614 H 0.39674 0.25997 0.86558 0.0
H615 H 0.26616 0.38633 0.76142 0.0
H616 H 0.24518 0.36782 0.72121 0.0
H617 H 0.40307 0.30446 0.88244 0.0
H618 H 0.36763 0.20932 0.78786 0.0
N619 N 0.36918 0.31667 0.81348 0.0
C620 C 0.39197 0.33799 0.8592 0.0
C621 C 0.38552 0.35281 0.84451 0.0
C622 C 0.3876 0.31242 0.85057 0.0
C623 C 0.37621 0.30217 0.82726 0.0
C624 C 0.37435 0.34189 0.82156 0.0
N625 N 0.36219 0.26801 0.79512 0.0
C626 C 0.37242 0.27708 0.81788 0.0
C627 C 0.36883 0.22823 0.79664 0.0
C628 C 0.37783 0.23682 0.82064 0.0
C629 C 0.36163 0.24431 0.78391 0.0
C630 C 0.38024 0.26164 0.83139 0.0
H631 H 0.38358 0.22441 0.83044 0.0
O632 O 0.36705 0.28263 0.74641 0.0
O633 O 0.3217 0.30114 0.75098 0.0
O634 O 0.29046 0.26423 0.77651 0.0
O635 O 0.32628 0.25917 0.77941 0.0
O636 O 0.33386 0.27033 0.74105 0.0
O637 O 0.38315 0.31701 0.77073 0.0
O638 O 0.27873 0.31231 0.80607 0.0
O639 O 0.32218 0.30134 0.79683 0.0
O640 O 0.35196 0.33758 0.77222 0.0
O641 O 0.31601 0.34284 0.76884 0.0
O642 O 0.3101 0.33229 0.80678 0.0
O643 O 0.25814 0.28857 0.77518 0.0
C644 C 0.32142 0.28326 0.73376 0.0
C645 C 0.39084 0.27159 0.85487 0.0
C646 C 0.3945 0.29693 0.86445 0.0
C647 C 0.38501 0.30075 0.75229 0.0
C648 C 0.40623 0.29367 0.75108 0.0
C649 C 0.41043 0.27547 0.76313 0.0
C650 C 0.42166 0.30358 0.73606 0.0
C651 C 0.44061 0.29466 0.7326 0.0
C652 C 0.42885 0.26626 0.75941 0.0
C653 C 0.44376 0.27561 0.74411 0.0
C654 C 0.30441 0.25027 0.77867 0.0
C655 C 0.32356 0.32003 0.81346 0.0
C656 C 0.25878 0.29936 0.79743 0.0
C657 C 0.24055 0.31065 0.80472 0.0
C658 C 0.2443 0.33662 0.80928 0.0
C659 C 0.22015 0.29593 0.80977 0.0
C660 C 0.20399 0.3073 0.81924 0.0
C661 C 0.22818 0.34773 0.81805 0.0
C662 C 0.20822 0.33324 0.82306 0.0
C663 C 0.33808 0.35191 0.77019 0.0
H664 H 0.39948 0.2682 0.77533 0.0
H665 H 0.41877 0.31785 0.72682 0.0
H666 H 0.43165 0.25192 0.76856 0.0
H667 H 0.45817 0.26847 0.74188 0.0
H668 H 0.26 0.3485 0.80684 0.0
H669 H 0.21708 0.27591 0.80684 0.0
H670 H 0.23133 0.36776 0.82135 0.0
H671 H 0.19598 0.34231 0.82999 0.0
Gd672 Gd 0.07946 0.01942 0.51814 0.0
Gd673 Gd 0.07251 0.07946 0.54204 0.0
C674 C 0.09755 0.12323 0.61817 0.0
C675 C 0.06449 0.13406 0.63124 0.0
C676 C 0.06262 0.10741 0.5922 0.0
C677 C 0.08507 0.10922 0.59634 0.0
C678 C 0.05212 0.12002 0.60953 0.0
C679 C 0.08715 0.13564 0.63555 0.0
C680 C 0.12016 0.12445 0.62186 0.0
C681 C 0.12975 0.11179 0.60409 0.0
N682 N 0.09469 0.09716 0.5791 0.0
C683 C 0.11675 0.09826 0.58271 0.0
H684 H 0.1245 0.08863 0.56938 0.0
C685 C 0.02963 0.09407 0.56505 0.0
N686 N 0.05128 0.09431 0.57078 0.0
C687 C 0.0184 0.10589 0.5818 0.0
C688 C 0.02968 0.11885 0.60419 0.0
H689 H 0.02108 0.08479 0.54741 0.0
H690 H 0.09652 0.14661 0.65233 0.0
H691 H 0.02355 0.99305 0.49937 0.0
H692 H 0.13032 0.13503 0.63835 0.0
H693 H 0.14721 0.11251 0.60678 0.0
H694 H 0.05675 0.14398 0.64469 0.0
H695 H 0.13133 0.02422 0.49986 0.0
H696 H 0.01408 0.97856 0.42325 0.0
H697 H 0.99898 0.97855 0.46207 0.0
H698 H 0.08725 1.00022 0.4009 0.0
H699 H 1.0012 0.10539 0.57727 0.0
H700 H 0.02106 0.12837 0.61698 0.0
H701 H 0.04682 0.98733 0.40073 0.0
H702 H 0.14836 0.02363 0.46271 0.0
N703 N 0.05339 1.00392 0.48295 0.0
C704 C 0.02522 0.98578 0.43981 0.0
C705 C 0.01666 0.98568 0.46167 0.0
C706 C 0.0481 0.9945 0.43952 0.0
C707 C 0.06204 1.00344 0.46163 0.0
C708 C 0.03097 0.99446 0.48308 0.0
N709 N 0.09816 0.01857 0.48312 0.0
C710 C 0.08494 1.01115 0.46173 0.0
C711 C 0.13055 0.02066 0.46214 0.0
C712 C 0.11732 1.015 0.4402 0.0
C713 C 0.12068 0.02171 0.48338 0.0
C714 C 0.09424 1.00951 0.43972 0.0
H715 H 0.12501 1.01377 0.42372 0.0
O716 O 0.09842 0.99187 0.51427 0.0
O717 O 0.08416 0.0477 0.55289 0.0
O718 O 0.10574 0.08448 0.52729 0.0
O719 O 0.11322 0.04636 0.52574 0.0
O720 O 0.09454 1.01674 0.55455 0.0
O721 O 0.06337 0.98203 0.52143 0.0
O722 O 0.05812 0.10415 0.52521 0.0
O723 O 0.07168 0.05292 0.50699 0.0
O724 O 0.04626 1.0149 0.53284 0.0
O725 O 0.04464 0.05314 0.55478 0.0
O726 O 0.0442 0.06625 0.51123 0.0
O727 O 0.09281 0.11628 0.54081 0.0
C728 C 0.09274 0.03672 0.56798 0.0
C729 C 0.08034 1.00144 0.41786 0.0
C730 C 0.05733 0.994 0.41777 0.0
C731 C 0.08151 0.97498 0.51832 0.0
C732 C 0.08226 0.94954 0.51878 0.0
C733 C 0.09911 0.94011 0.50894 0.0
C734 C 0.06781 0.93582 0.53211 0.0
C735 C 0.07062 0.91328 0.53653 0.0
C736 C 0.10161 0.91725 0.51282 0.0
C737 C 0.0876 0.90397 0.52682 0.0
C738 C 0.11927 0.07001 0.52457 0.0
C739 C 0.05344 0.05376 0.49574 0.0
C740 C 0.07651 0.12186 0.52947 0.0
C741 C 0.07458 0.14725 0.53534 0.0
C742 C 0.0659 0.15658 0.55595 0.0
C743 C 0.08058 0.162 0.51853 0.0
C744 C 0.0777 0.18597 0.5217 0.0
C745 C 0.0634 0.18075 0.55954 0.0
C746 C 0.06927 0.19548 0.54248 0.0
C747 C 0.03635 0.02905 0.54672 0.0
H748 H 0.11063 0.95065 0.49882 0.0
H749 H 0.05522 0.94341 0.54038 0.0
H750 H 0.11474 0.9101 0.50543 0.0
H751 H 0.09004 0.88655 0.53016 0.0
H752 H 0.06094 0.1453 0.56902 0.0
H753 H 0.08744 0.15464 0.50273 0.0
H754 H 0.05667 0.18798 0.57543 0.0
H755 H 0.06691 0.214 0.5453 0.0
Gd756 Gd 0.29764 0.78674 0.76725 0.0
Gd757 Gd 0.34929 0.82468 0.75718 0.0
C758 C 0.35211 0.90143 0.74058 0.0
C759 C 0.3647 0.8978 0.70105 0.0
C760 C 0.35971 0.86309 0.72174 0.0
C761 C 0.35276 0.87676 0.74086 0.0
C762 C 0.36641 0.87375 0.70194 0.0
C763 C 0.35753 0.91161 0.72033 0.0
C764 C 0.34679 0.91547 0.76099 0.0
C765 C 0.34316 0.90523 0.78134 0.0
N766 N 0.34813 0.86658 0.7604 0.0
C767 C 0.34423 0.88084 0.78088 0.0
H768 H 0.3413 0.87355 0.79692 0.0
C769 C 0.37231 0.82795 0.70714 0.0
N770 N 0.36161 0.8401 0.72334 0.0
C771 C 0.3789 0.83753 0.687 0.0
C772 C 0.37555 0.86034 0.68414 0.0
H773 H 0.37569 0.81082 0.70977 0.0
H774 H 0.35694 0.93043 0.71974 0.0
H775 H 0.30453 0.73746 0.72738 0.0
H776 H 0.34607 0.93443 0.76146 0.0
H777 H 0.3395 0.9161 0.79742 0.0
H778 H 0.36957 0.9062 0.68589 0.0
H779 H 0.27372 0.80253 0.81583 0.0
H780 H 0.29843 0.67624 0.76257 0.0
H781 H 0.30528 0.69455 0.72662 0.0
H782 H 0.2759 0.70533 0.83845 0.0
H783 H 0.3868 0.82748 0.67386 0.0
H784 H 0.38091 0.86789 0.66868 0.0
H785 H 0.28781 0.68056 0.80441 0.0
H786 H 0.26124 0.78541 0.85116 0.0
N787 N 0.29826 0.74472 0.76408 0.0
C788 C 0.29826 0.69539 0.76317 0.0
C789 C 0.30204 0.70562 0.74283 0.0
C790 C 0.29348 0.70971 0.78374 0.0
C791 C 0.29354 0.73461 0.78364 0.0
C792 C 0.30162 0.73023 0.74346 0.0
N793 N 0.28581 0.77184 0.80142 0.0
C794 C 0.2871 0.74861 0.80291 0.0
C795 C 0.26867 0.77496 0.83783 0.0
C796 C 0.27123 0.75178 0.84047 0.0
C797 C 0.27572 0.78458 0.81784 0.0
C798 C 0.28006 0.73803 0.82263 0.0
H799 H 0.2656 0.74428 0.85587 0.0
O800 O 0.26523 0.79389 0.7656 0.0
O801 O 0.31256 0.82314 0.75588 0.0
O802 O 0.34325 0.83291 0.79541 0.0
O803 O 0.31699 0.79991 0.80411 0.0
O804 O 0.29143 0.82441 0.78175 0.0
O805 O 0.27026 0.76216 0.7417 0.0
O806 O 0.38151 0.81736 0.75913 0.0
O807 O 0.33412 0.78773 0.76795 0.0
O808 O 0.30483 0.77871 0.7288 0.0
O809 O 0.33074 0.81227 0.72061 0.0
O810 O 0.35716 0.78753 0.74448 0.0
O811 O 0.37659 0.84999 0.78212 0.0
C812 C 0.30246 0.83764 0.76809 0.0
C813 C 0.28104 0.7137 0.82335 0.0
C814 C 0.28779 0.69958 0.80396 0.0
C815 C 0.25612 0.77438 0.74901 0.0
C816 C 0.23412 0.76005 0.7526 0.0
C817 C 0.23112 0.74581 0.77051 0.0
C818 C 0.21562 0.76224 0.7388 0.0
C819 C 0.19418 0.75063 0.74306 0.0
C820 C 0.20969 0.73425 0.77482 0.0
C821 C 0.19121 0.73673 0.76122 0.0
C822 C 0.33332 0.82042 0.81072 0.0
C823 C 0.34472 0.77332 0.75631 0.0
C824 C 0.39048 0.83713 0.77548 0.0
C825 C 0.41295 0.8504 0.77278 0.0
C826 C 0.41762 0.86855 0.75867 0.0
C827 C 0.43017 0.84345 0.78409 0.0
C828 C 0.4522 0.85473 0.78188 0.0
C829 C 0.43975 0.87998 0.75641 0.0
C830 C 0.45707 0.87327 0.76817 0.0
C831 C 0.3156 0.79102 0.71371 0.0
H832 H 0.24518 0.74379 0.78124 0.0
H833 H 0.21786 0.77329 0.72498 0.0
H834 H 0.20741 0.72343 0.78877 0.0
H835 H 0.17466 0.72771 0.76469 0.0
H836 H 0.40433 0.87378 0.74947 0.0
H837 H 0.42642 0.82924 0.79486 0.0
H838 H 0.44347 0.89402 0.74556 0.0
H839 H 0.47413 0.88225 0.76637 0.0
Gd840 Gd 0.56406 0.06589 1.00224 0.0
Gd841 Gd 0.57455 0.04964 0.06257 0.0
C842 C 0.64019 0.08262 0.11175 0.0
C843 C 0.65099 0.04559 0.11765 0.0
C844 C 0.61732 0.042 0.09167 0.0
C845 C 0.62107 0.06752 0.09666 0.0
C846 C 0.63213 0.03069 0.10226 0.0
C847 C 0.65505 0.07151 0.12232 0.0
C848 C 0.64403 0.10844 0.11537 0.0
C849 C 0.6291 0.11857 0.10389 0.0
N850 N 0.60669 0.0776 0.08554 0.0
C851 C 0.6104 0.10284 0.08904 0.0
H852 H 0.59929 0.1111 0.08008 0.0
C853 C 0.59394 1.00284 0.07225 0.0
N854 N 0.59918 0.02822 0.07629 0.0
C855 C 0.60812 0.99076 0.08231 0.0
C856 C 0.62739 1.00474 0.09724 0.0
H857 H 0.57869 0.99194 0.06127 0.0
H858 H 0.66979 0.0828 0.13402 0.0
H859 H 0.55176 1.00089 0.9883 0.0
H860 H 0.65856 0.12068 0.12676 0.0
H861 H 0.63202 0.13853 0.10641 0.0
H862 H 0.66257 0.03726 0.12595 0.0
H863 H 0.54343 0.11447 0.99966 0.0
H864 H 0.49948 0.97605 0.93079 0.0
H865 H 0.52827 0.9676 0.95748 0.0
H866 H 0.47336 0.04766 0.92759 0.0
H867 H 0.60404 0.97066 0.07875 0.0
H868 H 0.63831 0.99534 0.10508 0.0
H869 H 0.47967 1.00615 0.91935 0.0
H870 H 0.51162 0.12409 0.97999 0.0
N871 N 0.53832 0.02945 0.97887 0.0
C872 C 0.51009 0.99106 0.94432 0.0
C873 C 0.5264 0.98627 0.95921 0.0
C874 C 0.50709 1.01495 0.94767 0.0
C875 C 0.52112 0.03381 0.96585 0.0
C876 C 0.54027 1.00564 0.97649 0.0
N877 N 0.53154 0.0753 0.98757 0.0
C878 C 0.5174 0.0572 0.97064 0.0
C879 C 0.51259 0.10504 0.97766 0.0
C880 C 0.49724 0.0864 0.96129 0.0
C881 C 0.53013 0.0993 0.98982 0.0
C882 C 0.49996 0.06236 0.95695 0.0
H883 H 0.48409 0.09104 0.95118 0.0
O884 O 0.57637 0.10118 0.99146 0.0
O885 O 0.58649 0.07206 0.03595 0.0
O886 O 0.56271 0.08455 0.06802 0.0
O887 O 0.55097 0.09071 0.03005 0.0
O888 O 0.60101 0.08381 1.00739 0.0
O889 O 0.56907 0.0659 0.96514 0.0
O890 O 0.55204 0.02445 0.07991 0.0
O891 O 0.55038 0.04982 0.03224 0.0
O892 O 0.58225 0.03599 0.99691 0.0
O893 O 0.58733 0.02487 0.03479 0.0
O894 O 0.54632 1.01712 0.04383 0.0
O895 O 0.56497 0.06312 0.09739 0.0
C896 C 0.60483 0.08195 0.02932 0.0
C897 C 0.48655 0.04386 0.93844 0.0
C898 C 0.4903 0.02032 0.93358 0.0
C899 C 0.57492 0.09024 0.96892 0.0
C900 C 0.58978 0.10231 0.9534 0.0
C901 C 0.58443 0.1219 0.94448 0.0
C902 C 0.60799 0.09389 0.94609 0.0
C903 C 0.62098 0.1055 0.93013 0.0
C904 C 0.59721 0.13323 0.92845 0.0
C905 C 0.61546 0.12514 0.92134 0.0
C906 C 0.55314 0.09617 0.05389 0.0
C907 C 0.53733 0.02868 0.03001 0.0
C908 C 0.55304 0.04123 0.099 0.0
C909 C 0.55537 0.03348 0.12204 0.0
C910 C 0.57374 0.02554 0.12965 0.0
C911 C 0.53794 0.03268 0.13608 0.0
C912 C 0.5385 0.02362 0.15738 0.0
C913 C 0.57441 1.01654 0.15093 0.0
C914 C 0.55673 1.01536 0.16473 0.0
C915 C 0.5896 0.02322 0.01163 0.0
H916 H 0.57011 0.12817 0.94964 0.0
H917 H 0.61194 0.07844 0.95261 0.0
H918 H 0.59285 0.14812 0.92136 0.0
H919 H 0.62502 0.13388 0.90855 0.0
H920 H 0.58738 0.02597 0.11921 0.0
H921 H 0.52366 0.03871 0.13019 0.0
H922 H 0.5886 1.01038 0.15666 0.0
H923 H 0.55744 1.00845 0.18125 0.0
Gd924 Gd 0.29479 0.26258 0.25264 0.0
Gd925 Gd 0.33204 0.3235 0.28003 0.0
C926 C 0.40243 0.34576 0.25936 0.0
C927 C 0.42407 0.36164 0.29857 0.0
C928 C 0.38451 0.34141 0.29521 0.0
C929 C 0.38308 0.33861 0.27057 0.0
C930 C 0.4051 0.35267 0.30952 0.0
C931 C 0.42277 0.35803 0.27349 0.0
C932 C 0.40094 0.33949 0.23434 0.0
C933 C 0.3808 0.32528 0.22131 0.0
N934 N 0.36309 0.32688 0.25755 0.0
C935 C 0.36212 0.31868 0.23326 0.0
H936 H 0.34717 0.30666 0.22281 0.0
C937 C 0.36694 0.33349 0.32944 0.0
N938 N 0.36592 0.33197 0.30507 0.0
C939 C 0.38695 0.34452 0.34433 0.0
C940 C 0.40609 0.35437 0.33437 0.0
H941 H 0.35221 0.32742 0.33791 0.0
H942 H 0.4377 0.36417 0.2652 0.0
H943 H 0.2743 0.2766 0.30762 0.0
H944 H 0.41541 0.34451 0.22504 0.0
H945 H 0.37965 0.31926 0.20203 0.0
H946 H 0.43994 0.37073 0.30928 0.0
H947 H 0.27674 0.25859 0.19403 0.0
H948 H 0.20873 0.22929 0.30104 0.0
H949 H 0.24155 0.25894 0.32618 0.0
H950 H 0.1894 0.20462 0.21587 0.0
H951 H 0.38747 0.34594 0.36358 0.0
H952 H 0.42153 0.36311 0.34599 0.0
H953 H 0.18942 0.20881 0.25963 0.0
H954 H 0.2431 0.23822 0.16619 0.0
N955 N 0.2621 0.25461 0.27261 0.0
C956 C 0.22348 0.23647 0.29287 0.0
C957 C 0.24198 0.25309 0.30711 0.0
C958 C 0.22365 0.23097 0.268 0.0
C959 C 0.24329 0.24093 0.2583 0.0
C960 C 0.26096 0.26253 0.29654 0.0
N961 N 0.26163 0.25153 0.2256 0.0
C962 C 0.24302 0.23941 0.23388 0.0
C963 C 0.24272 0.2387 0.18525 0.0
C964 C 0.22354 0.22637 0.19365 0.0
C965 C 0.26173 0.25092 0.20141 0.0
C966 C 0.22346 0.22668 0.21823 0.0
H967 H 0.2089 0.21668 0.18105 0.0
O968 O 0.30496 0.2449 0.21983 0.0
O969 O 0.32931 0.2864 0.25904 0.0
O970 O 0.32259 0.32849 0.24306 0.0
O971 O 0.29717 0.28982 0.22643 0.0
O972 O 0.32465 0.25039 0.26478 0.0
O973 O 0.28445 0.22267 0.24181 0.0
O974 O 0.32658 0.34453 0.31358 0.0
O975 O 0.29741 0.29951 0.2746 0.0
O976 O 0.30259 0.25851 0.29127 0.0
O977 O 0.32599 0.29848 0.30747 0.0
O978 O 0.30161 0.3357 0.27042 0.0
O979 O 0.34378 0.36364 0.28743 0.0
C980 C 0.33907 0.27125 0.26543 0.0
C981 C 0.20444 0.21486 0.22763 0.0
C982 C 0.2045 0.21709 0.25252 0.0
C983 C 0.29478 0.22263 0.22258 0.0
C984 C 0.30621 0.20318 0.21673 0.0
C985 C 0.30808 0.19396 0.19263 0.0
C986 C 0.314 0.19261 0.2348 0.0
C987 C 0.32346 0.17288 0.2289 0.0
C988 C 0.31776 0.1743 0.18674 0.0
C989 C 0.32551 0.16375 0.20487 0.0
C990 C 0.30852 0.31279 0.22528 0.0
C991 C 0.28716 0.31495 0.26988 0.0
C992 C 0.33577 0.36587 0.30812 0.0
C993 C 0.32393 0.38498 0.31366 0.0
C994 C 0.32473 0.39679 0.33762 0.0
C995 C 0.31168 0.39135 0.29545 0.0
C996 C 0.30025 0.40952 0.30099 0.0
C997 C 0.31342 0.41496 0.34329 0.0
C998 C 0.30126 0.42138 0.3251 0.0
C999 C 0.31508 0.27572 0.30944 0.0
H1000 H 0.3018 0.20174 0.17839 0.0
H1001 H 0.31248 0.19946 0.25347 0.0
H1002 H 0.31903 0.16709 0.16813 0.0
H1003 H 0.33277 0.14835 0.20018 0.0
H1004 H 0.33415 0.392 0.3519 0.0
H1005 H 0.31107 0.38224 0.27694 0.0
H1006 H 0.31423 0.42423 0.36178 0.0
H1007 H 0.29308 0.43598 0.32988 0.0
Gd1008 Gd 0.58693 0.52125 0.02327 0.0
Gd1009 Gd 0.57368 0.57548 0.04921 0.0
C1010 C 0.59579 0.61667 0.12763 0.0
C1011 C 0.56081 0.62056 0.14147 0.0
C1012 C 0.56159 0.5987 0.1008 0.0
C1013 C 0.58433 0.60297 0.10512 0.0
C1014 C 0.54959 0.60773 0.11885 0.0
C1015 C 0.58387 0.62507 0.14584 0.0
C1016 C 0.61894 0.62215 0.13105 0.0
C1017 C 0.63016 0.61398 0.11236 0.0
N1018 N 0.59537 0.59471 0.08706 0.0
C1019 C 0.61815 0.60021 0.09054 0.0
H1020 H 0.62759 0.59372 0.07704 0.0
C1021 C 0.52918 0.58457 0.07287 0.0
N1022 N 0.55131 0.58686 0.07857 0.0
C1023 C 0.51654 0.59279 0.09025 0.0
C1024 C 0.52676 0.60429 0.1134 0.0
H1025 H 0.52125 0.57622 0.05479 0.0
H1026 H 0.5924 0.63546 0.16321 0.0
H1027 H 0.53435 0.50042 0.99266 0.0
H1028 H 0.6283 0.63271 0.14799 0.0
H1029 H 0.6481 0.61797 0.11481 0.0
H1030 H 0.55187 0.62758 0.15554 0.0
H1031 H 0.64114 0.52743 0.02085 0.0
H1032 H 0.53907 0.46672 0.92115 0.0
H1033 H 0.51651 0.47749 0.9532 0.0
H1034 H 0.61702 0.47751 0.91876 0.0
H1035 H 0.49897 0.59054 0.08567 0.0
H1036 H 0.517 0.61098 0.12676 0.0
H1037 H 0.57653 0.46697 0.9085 0.0
H1038 H 0.66602 0.51657 0.99126 0.0
N1039 N 0.56752 0.50224 0.98458 0.0
C1040 C 0.54722 0.47665 0.93881 0.0
C1041 C 0.53444 0.48264 0.95682 0.0
C1042 C 0.57035 0.48325 0.94389 0.0
C1043 C 0.58017 0.49613 0.96725 0.0
C1044 C 0.54485 0.4955 0.97958 0.0
N1045 N 0.61196 0.51385 0.99573 0.0
C1046 C 0.60301 0.50208 0.973 0.0
C1047 C 0.64836 0.51251 0.98586 0.0
C1048 C 0.63948 0.50085 0.96228 0.0
C1049 C 0.63427 0.51866 1.00252 0.0
C1050 C 0.61657 0.49532 0.95562 0.0
H1051 H 0.65042 0.4959 0.94945 0.0
O1052 O 0.60495 0.49676 0.03453 0.0
O1053 O 0.58501 0.54333 0.06039 0.0
O1054 O 0.60936 0.58313 0.03936 0.0
O1055 O 0.60859 0.5511 1.00805 0.0
O1056 O 0.61449 0.53626 0.05472 0.0
O1057 O 0.56876 0.48363 0.02515 0.0
O1058 O 0.55707 0.60063 0.03607 0.0
O1059 O 0.57434 0.55209 0.01324 0.0
O1060 O 0.55167 0.51189 0.03157 0.0
O1061 O 0.54501 0.54515 0.05697 0.0
O1062 O 0.54581 0.56215 0.01757 0.0
O1063 O 0.59305 0.61124 0.04362 0.0
C1064 C 0.60385 0.5441 0.0718 0.0
C1065 C 0.60686 0.48286 0.93232 0.0
C1066 C 0.58381 0.47686 0.92647 0.0
C1067 C 0.58696 0.47883 0.03308 0.0
C1068 C 0.58881 0.45346 0.02944 0.0
C1069 C 0.60347 0.44502 0.01468 0.0
C1070 C 0.57766 0.43865 0.04418 0.0
C1071 C 0.58169 0.41574 0.04543 0.0
C1072 C 0.60697 0.42166 0.01505 0.0
C1073 C 0.5963 0.40712 0.0305 0.0
C1074 C 0.618 0.57347 0.02065 0.0
C1075 C 0.55574 0.55121 1.00165 0.0
C1076 C 0.57552 0.61718 0.03563 0.0
C1077 C 0.57534 0.64325 0.04063 0.0
C1078 C 0.56675 0.6538 0.06073 0.0
C1079 C 0.58246 0.65722 0.02336 0.0
C1080 C 0.58063 0.68162 0.02553 0.0
C1081 C 0.56531 0.67832 0.06336 0.0
C1082 C 0.57213 0.69219 0.04586 0.0
C1083 C 0.53882 0.5217 0.04544 0.0
H1084 H 0.61248 0.45661 1.00344 0.0
H1085 H 0.56627 0.44549 0.05536 0.0
H1086 H 0.6184 0.4151 1.00382 0.0
H1087 H 0.59986 0.3895 0.03114 0.0
H1088 H 0.56093 0.64303 0.07407 0.0
H1089 H 0.58916 0.64883 1.00792 0.0
H1090 H 0.55854 0.68648 0.07879 0.0
H1091 H 0.57029 0.7109 0.04794 0.0
Gd1092 Gd 0.79564 0.28226 0.27263 0.0
Gd1093 Gd 0.85017 0.31765 0.27389 0.0
C1094 C 0.84813 0.39545 0.26403 0.0
C1095 C 0.85483 0.39426 0.22244 0.0
C1096 C 0.855 0.35855 0.2407 0.0
C1097 C 0.85017 0.37093 0.26206 0.0
C1098 C 0.85815 0.3705 0.22093 0.0
C1099 C 0.8498 0.4067 0.24393 0.0
C1100 C 0.84519 0.4083 0.28636 0.0
C1101 C 0.84538 0.39717 0.30627 0.0
N1102 N 0.8489 0.35971 0.28133 0.0
C1103 C 0.8476 0.37295 0.30354 0.0
H1104 H 0.848 0.36517 0.3194 0.0
C1105 C 0.86754 0.32526 0.22074 0.0
N1106 N 0.85847 0.33574 0.23986 0.0
C1107 C 0.87063 0.33623 0.20069 0.0
C1108 C 0.86548 0.35872 0.20057 0.0
H1109 H 0.87186 0.30792 0.2205 0.0
H1110 H 0.84798 0.42536 0.24508 0.0
H1111 H 0.80363 0.23463 0.23362 0.0
H1112 H 0.84348 0.42708 0.28856 0.0
H1113 H 0.8438 0.40723 0.3238 0.0
H1114 H 0.85689 0.40354 0.20734 0.0
H1115 H 0.76232 0.29296 0.31458 0.0
H1116 H 0.80036 0.17344 0.269 0.0
H1117 H 0.80698 0.19188 0.23304 0.0
H1118 H 0.76943 0.19854 0.34078 0.0
H1119 H 0.87707 0.32736 0.18538 0.0
H1120 H 0.86808 0.36731 0.18508 0.0
H1121 H 0.78687 0.17642 0.30974 0.0
H1122 H 0.74556 0.27338 0.34689 0.0
N1123 N 0.79706 0.2407 0.26965 0.0
C1124 C 0.79919 0.19224 0.26932 0.0
C1125 C 0.80286 0.20255 0.24896 0.0
C1126 C 0.79252 0.20569 0.2892 0.0
C1127 C 0.79129 0.2301 0.28867 0.0
C1128 C 0.80129 0.2268 0.24934 0.0
N1129 N 0.77901 0.26516 0.30384 0.0
C1130 C 0.78164 0.24259 0.3062 0.0
C1131 C 0.75588 0.26467 0.33573 0.0
C1132 C 0.76016 0.24259 0.33982 0.0
C1133 C 0.76537 0.2757 0.31742 0.0
C1134 C 0.77278 0.23097 0.32464 0.0
H1135 H 0.75291 0.23418 0.35409 0.0
O1136 O 0.76256 0.28684 0.26661 0.0
O1137 O 0.81444 0.32069 0.26868 0.0
O1138 O 0.84151 0.32259 0.31139 0.0
O1139 O 0.81043 0.29028 0.31109 0.0
O1140 O 0.79005 0.31898 0.29124 0.0
O1141 O 0.77186 0.25716 0.24376 0.0
O1142 O 0.88177 0.31182 0.26501 0.0
O1143 O 0.83043 0.27717 0.2674 0.0
O1144 O 0.80139 0.29153 0.2364 0.0
O1145 O 0.83805 0.29264 0.23803 0.0
O1146 O 0.85713 0.28778 0.29322 0.0
O1147 O 0.88034 0.33797 0.29736 0.0
C1148 C 0.8036 0.33418 0.28108 0.0
C1149 C 0.77572 0.20756 0.32644 0.0
C1150 C 0.78566 0.19496 0.30878 0.0
C1151 C 0.756 0.26736 0.24939 0.0
C1152 C 0.73424 0.25098 0.25054 0.0
C1153 C 0.73145 0.23044 0.26172 0.0
C1154 C 0.71572 0.25731 0.24131 0.0
C1155 C 0.69428 0.2436 0.24336 0.0
C1156 C 0.71004 0.21643 0.26359 0.0
C1157 C 0.69146 0.22293 0.25442 0.0
C1158 C 0.82728 0.30855 0.32242 0.0
C1159 C 0.84276 0.26839 0.2809 0.0
C1160 C 0.89284 0.32756 0.28397 0.0
C1161 C 0.91456 0.34294 0.28124 0.0
C1162 C 0.9173 0.36085 0.2668 0.0
C1163 C 0.93311 0.33863 0.29301 0.0
C1164 C 0.95445 0.35202 0.29043 0.0
C1165 C 0.93872 0.37435 0.26423 0.0
C1166 C 0.95731 0.36995 0.276 0.0
C1167 C 0.81909 0.29102 0.2257 0.0
H1168 H 0.74565 0.22534 0.26905 0.0
H1169 H 0.71805 0.27322 0.23266 0.0
H1170 H 0.70786 0.20069 0.27236 0.0
H1171 H 0.67499 0.21219 0.25638 0.0
H1172 H 0.90305 0.36425 0.25748 0.0
H1173 H 0.93097 0.32449 0.30391 0.0
H1174 H 0.94092 0.38803 0.25292 0.0
H1175 H 0.97383 0.38016 0.27357 0.0
Gd1176 Gd 0.06352 0.57484 0.51497 0.0
Gd1177 Gd 0.08063 0.5599 0.57401 0.0
C1178 C 0.14719 0.60037 0.61896 0.0
C1179 C 0.16436 0.56661 0.62068 0.0
C1180 C 0.12782 0.55853 0.59848 0.0
C1181 C 0.12864 0.58341 0.60441 0.0
C1182 C 0.14552 0.54973 0.60678 0.0
C1183 C 0.16517 0.59189 0.62681 0.0
C1184 C 0.14686 0.62522 0.62566 0.0
C1185 C 0.12824 0.6325 0.6181 0.0
N1186 N 0.11083 0.59083 0.59682 0.0
C1187 C 0.11022 0.61495 0.60373 0.0
H1188 H 0.09592 0.62086 0.59817 0.0
C1189 C 0.10673 0.51768 0.58092 0.0
N1190 N 0.10924 0.54275 0.58543 0.0
C1191 C 0.12391 0.50803 0.58854 0.0
C1192 C 0.14347 0.52414 0.6014 0.0
H1193 H 0.09153 0.50521 0.57111 0.0
H1194 H 0.17963 0.60467 0.63788 0.0
H1195 H 0.05059 0.51916 0.4774 0.0
H1196 H 0.16076 0.63883 0.63686 0.0
H1197 H 0.12773 0.65163 0.62336 0.0
H1198 H 0.17819 0.56024 0.62717 0.0
H1199 H 0.05372 0.63044 0.52572 0.0
H1200 H 0.98527 0.50595 0.44139 0.0
H1201 H 0.01948 0.49251 0.44815 0.0
H1202 H 0.96645 0.5823 0.46799 0.0
H1203 H 0.12199 0.48819 0.58463 0.0
H1204 H 0.15668 0.51662 0.60748 0.0
H1205 H 0.96529 0.53929 0.44953 0.0
H1206 H 0.02346 0.6497 0.51653 0.0
N1207 N 0.03413 0.54731 0.48783 0.0
C1208 C 0.9989 0.51776 0.45434 0.0
C1209 C 0.0182 0.51014 0.45805 0.0
C1210 C 0.99783 0.54101 0.46662 0.0
C1211 C 0.01612 0.55573 0.48317 0.0
C1212 C 0.0358 0.52531 0.47482 0.0
N1213 N 0.03545 0.5942 0.50765 0.0
C1214 C 0.01683 0.57998 0.49335 0.0
C1215 C 0.02133 0.63004 0.51003 0.0
C1216 C 1.00149 0.61536 0.49649 0.0
C1217 C 0.03839 0.61916 0.51518 0.0
C1218 C 0.99919 0.59009 0.48759 0.0
H1219 H 0.98833 0.62384 0.49244 0.0
O1220 O 0.08002 0.60397 0.4974 0.0
O1221 O 0.08788 0.58199 0.54651 0.0
O1222 O 0.06294 0.59084 0.5764 0.0
O1223 O 0.0396 0.5824 0.54047 0.0
O1224 O 0.08912 0.61147 0.53234 0.0
O1225 O 0.0765 0.56474 0.48155 0.0
O1226 O 0.06263 0.5328 0.59273 0.0
O1227 O 0.05687 0.55136 0.54185 0.0
O1228 O 0.07856 0.54164 0.51091 0.0
O1229 O 0.10105 0.54559 0.54713 0.0
O1230 O 0.05723 0.52187 0.55765 0.0
O1231 O 0.06726 0.57247 0.60651 0.0
C1232 C 0.10048 0.60307 0.54714 0.0
C1233 C 0.98028 0.57496 0.47242 0.0
C1234 C 0.97961 0.55046 0.46194 0.0
C1235 C 0.08371 0.58798 0.47974 0.0
C1236 C 0.08327 0.5935 0.45584 0.0
C1237 C 0.06992 0.60747 0.44744 0.0
C1238 C 0.09822 0.5854 0.44167 0.0
C1239 C 0.10013 0.59087 0.41892 0.0
C1240 C 0.07188 0.6133 0.42465 0.0
C1241 C 0.08704 0.60515 0.4104 0.0
C1242 C 0.04467 0.5919 0.56365 0.0
C1243 C 0.04767 0.52872 0.54024 0.0
C1244 C 0.05903 0.54979 0.60939 0.0
C1245 C 0.06 0.54548 0.63375 0.0
C1246 C 0.07681 0.53698 0.64426 0.0
C1247 C 0.04257 0.54931 0.64634 0.0
C1248 C 0.04161 0.54508 0.66967 0.0
C1249 C 0.07579 0.53225 0.66754 0.0
C1250 C 0.05819 0.5362 0.68027 0.0
C1251 C 0.09458 0.53626 0.52402 0.0
H1252 H 0.05831 0.61399 0.45845 0.0
H1253 H 0.10885 0.57512 0.44868 0.0
H1254 H 0.06171 0.62418 0.41805 0.0
H1255 H 0.08833 0.60968 0.39276 0.0
H1256 H 0.09043 0.53388 0.63449 0.0
H1257 H 0.02949 0.5555 0.63777 0.0
H1258 H 0.08867 0.52561 0.67576 0.0
H1259 H 0.05775 0.53281 0.69838 0.0
Gd1260 Gd 0.84568 0.7988 0.28051 0.0
Gd1261 Gd 0.78963 0.80382 0.28201 0.0
C1262 C 0.75547 0.7827 0.20454 0.0
C1263 C 0.75663 0.823 0.19506 0.0
C1264 C 0.77075 0.81996 0.23507 0.0
C1265 C 0.76588 0.7944 0.228 0.0
C1266 C 0.76496 0.83434 0.21901 0.0
C1267 C 0.75192 0.79719 0.18781 0.0
C1268 C 0.74792 0.7568 0.19891 0.0
C1269 C 0.74981 0.74328 0.21677 0.0
N1270 N 0.76949 0.78086 0.24461 0.0
C1271 C 0.76037 0.75565 0.23968 0.0
H1272 H 0.76084 0.74459 0.25309 0.0
C1273 C 0.77736 0.854 0.26759 0.0
N1274 N 0.77859 0.83036 0.2584 0.0
C1275 C 0.77171 0.86894 0.25243 0.0
C1276 C 0.76625 0.85933 0.22786 0.0
H1277 H 0.78167 0.8618 0.28658 0.0
H1278 H 0.74447 0.78852 0.16959 0.0
H1279 H 0.86602 0.85583 0.3177 0.0
H1280 H 0.73979 0.74715 0.18116 0.0
H1281 H 0.74316 0.72329 0.21293 0.0
H1282 H 0.75262 0.83386 0.18235 0.0
H1283 H 0.84984 0.73893 0.27108 0.0
H1284 H 0.89459 0.84648 0.38399 0.0
H1285 H 0.88499 0.87361 0.35787 0.0
H1286 H 0.88703 0.75934 0.37256 0.0
H1287 H 0.77173 0.88792 0.2597 0.0
H1288 H 0.76186 0.87093 0.21614 0.0
H1289 H 0.89536 0.80401 0.38919 0.0
H1290 H 0.85917 0.70979 0.2945 0.0
N1291 N 0.86427 0.81816 0.31964 0.0
C1292 C 0.8862 0.83836 0.36601 0.0
C1293 C 0.88089 0.85371 0.35132 0.0
C1294 C 0.88088 0.81276 0.35724 0.0
C1295 C 0.8697 0.80301 0.33372 0.0
C1296 C 0.87009 0.84334 0.32813 0.0
N1297 N 0.85532 0.76912 0.30125 0.0
C1298 C 0.86487 0.77778 0.32436 0.0
C1299 C 0.86046 0.72872 0.3033 0.0
C1300 C 0.86847 0.73687 0.32754 0.0
C1301 C 0.85473 0.74532 0.29021 0.0
C1302 C 0.87149 0.76181 0.33817 0.0
H1303 H 0.87331 0.7241 0.33757 0.0
O1304 O 0.86165 0.77992 0.25317 0.0
O1305 O 0.81244 0.78938 0.25824 0.0
O1306 O 0.78707 0.76369 0.2857 0.0
O1307 O 0.82106 0.75927 0.27492 0.0
O1308 O 0.83945 0.81045 0.2456 0.0
O1309 O 0.88013 0.81491 0.2757 0.0
O1310 O 0.77323 0.82514 0.30735 0.0
O1311 O 0.82308 0.81414 0.3039 0.0
O1312 O 0.84967 0.83961 0.27915 0.0
O1313 O 0.8135 0.84313 0.28125 0.0
O1314 O 0.79672 0.79425 0.31785 0.0
O1315 O 0.75649 0.78738 0.28988 0.0
C1316 C 0.81885 0.79861 0.24029 0.0
C1317 C 0.88195 0.77137 0.36174 0.0
C1318 C 0.88675 0.7968 0.37118 0.0
C1319 C 0.88043 0.79709 0.25797 0.0
C1320 C 0.90108 0.78918 0.25626 0.0
C1321 C 0.90588 0.772 0.26931 0.0
C1322 C 0.91603 0.79863 0.24066 0.0
C1323 C 0.93537 0.7905 0.23767 0.0
C1324 C 0.92485 0.76364 0.26623 0.0
C1325 C 0.93945 0.77269 0.25046 0.0
C1326 C 0.80077 0.74963 0.2805 0.0
C1327 C 0.81735 0.8059 0.32249 0.0
C1328 C 0.75521 0.80695 0.30494 0.0
C1329 C 0.73337 0.81259 0.30368 0.0
C1330 C 0.72516 0.81968 0.28326 0.0
C1331 C 0.71963 0.80844 0.32207 0.0
C1332 C 0.69769 0.81092 0.31976 0.0
C1333 C 0.70371 0.82274 0.28116 0.0
C1334 C 0.69003 0.81825 0.29914 0.0
C1335 C 0.83509 0.85303 0.27956 0.0
H1336 H 0.8951 0.76507 0.28191 0.0
H1337 H 0.91247 0.81206 0.23064 0.0
H1338 H 0.92835 0.75022 0.27626 0.0
H1339 H 0.95426 0.76621 0.24873 0.0
H1340 H 0.73509 0.82232 0.26868 0.0
H1341 H 0.72572 0.80252 0.33773 0.0
H1342 H 0.69754 0.8283 0.26535 0.0
H1343 H 0.67344 0.82071 0.297 0.0
Gd1344 Gd 0.81582 0.32182 0.80145 0.0
Gd1345 Gd 0.84312 0.30184 0.74876 0.0
C1346 C 0.80905 0.22634 0.69889 0.0
C1347 C 0.83959 0.20724 0.6956 0.0
C1348 C 0.8446 0.24732 0.7224 0.0
C1349 C 0.82295 0.24714 0.71527 0.0
C1350 C 0.85308 0.22726 0.71268 0.0
C1351 C 0.8176 0.20674 0.68879 0.0
C1352 C 0.78674 0.2254 0.69351 0.0
C1353 C 0.7785 0.24431 0.7051 0.0
N1354 N 0.81518 0.26659 0.72516 0.0
C1355 C 0.7928 0.26452 0.72105 0.0
H1356 H 0.78519 0.27766 0.73052 0.0
C1357 C 0.87893 0.26763 0.74608 0.0
N1358 N 0.85731 0.26682 0.73909 0.0
C1359 C 0.88791 0.24816 0.73709 0.0
C1360 C 0.87495 0.22789 0.72028 0.0
H1361 H 0.88981 0.28377 0.75789 0.0
H1362 H 0.80722 0.19089 0.67596 0.0
H1363 H 0.85875 0.34066 0.84747 0.0
H1364 H 0.77557 0.20973 0.68115 0.0
H1365 H 0.76099 0.24324 0.70197 0.0
H1366 H 0.84592 0.19188 0.6878 0.0
H1367 H 0.7662 0.33207 0.7887 0.0
H1368 H 0.86694 0.41662 0.87789 0.0
H1369 H 0.87854 0.37791 0.87607 0.0
H1370 H 0.80375 0.43488 0.84154 0.0
H1371 H 0.90503 0.24911 0.74275 0.0
H1372 H 0.88205 0.21293 0.71312 0.0
H1373 H 0.8394 0.43791 0.86437 0.0
H1374 H 0.7484 0.36638 0.79343 0.0
N1375 N 0.83628 0.3574 0.83066 0.0
C1376 C 0.85825 0.4002 0.86465 0.0
C1377 C 0.86479 0.3784 0.86371 0.0
C1378 C 0.83983 0.40018 0.84935 0.0
C1379 C 0.82899 0.37823 0.83239 0.0
C1380 C 0.85343 0.35708 0.84689 0.0
N1381 N 0.79812 0.35462 0.80508 0.0
C1382 C 0.80922 0.37677 0.81918 0.0
C1383 C 0.76569 0.36979 0.80032 0.0
C1384 C 0.77767 0.39334 0.81269 0.0
C1385 C 0.77596 0.35043 0.79744 0.0
C1386 C 0.79943 0.39688 0.82304 0.0
H1387 H 0.76954 0.40821 0.81542 0.0
O1388 O 0.78364 0.3033 0.80872 0.0
O1389 O 0.82426 0.29081 0.77782 0.0
O1390 O 0.81315 0.31365 0.73357 0.0
O1391 O 0.80118 0.3329 0.76839 0.0
O1392 O 0.79114 0.28753 0.78081 0.0
O1393 O 0.81192 0.31097 0.83663 0.0
O1394 O 0.87777 0.31953 0.74625 0.0
O1395 O 0.84358 0.33051 0.78039 0.0
O1396 O 0.84568 0.30928 0.81522 0.0
O1397 O 0.86328 0.29616 0.78233 0.0
O1398 O 0.84808 0.34278 0.74844 0.0
O1399 O 0.8547 0.3012 0.71397 0.0
C1400 C 0.80546 0.27582 0.77385 0.0
C1401 C 0.81091 0.41922 0.83859 0.0
C1402 C 0.83117 0.42091 0.85163 0.0
C1403 C 0.79062 0.30137 0.83005 0.0
C1404 C 0.77463 0.28966 0.84486 0.0
C1405 C 0.75166 0.28366 0.83729 0.0
C1406 C 0.78204 0.28354 0.86606 0.0
C1407 C 0.76663 0.27186 0.87977 0.0
C1408 C 0.73635 0.27194 0.85104 0.0
C1409 C 0.74379 0.26612 0.87236 0.0
C1410 C 0.7995 0.3255 0.74466 0.0
C1411 C 0.84759 0.34935 0.77122 0.0
C1412 C 0.87505 0.31352 0.72284 0.0
C1413 C 0.8865 0.33179 0.70969 0.0
C1414 C 0.90847 0.3327 0.70545 0.0
C1415 C 0.87511 0.3463 0.69915 0.0
C1416 C 0.88539 0.361 0.68374 0.0
C1417 C 0.91884 0.34772 0.69032 0.0
C1418 C 0.90726 0.36167 0.67924 0.0
C1419 C 0.86194 0.30063 0.80598 0.0
H1420 H 0.7455 0.28796 0.82074 0.0
H1421 H 0.79968 0.28766 0.87186 0.0
H1422 H 0.71873 0.2673 0.84512 0.0
H1423 H 0.73182 0.25683 0.88287 0.0
H1424 H 0.91734 0.32128 0.71329 0.0
H1425 H 0.85797 0.34531 0.70199 0.0
H1426 H 0.93567 0.3481 0.68676 0.0
H1427 H 0.91521 0.37275 0.66701 0.0
Gd1428 Gd 0.79799 0.76671 0.75865 0.0
Gd1429 Gd 0.82975 0.82822 0.79298 0.0
C1430 C 0.89564 0.87478 0.77603 0.0
C1431 C 0.91536 0.89217 0.81601 0.0
C1432 C 0.87955 0.86137 0.8105 0.0
C1433 C 0.87798 0.86062 0.78603 0.0
C1434 C 0.89841 0.87694 0.82573 0.0
C1435 C 0.914 0.89104 0.79119 0.0
C1436 C 0.8947 0.87158 0.75105 0.0
C1437 C 0.87705 0.85375 0.7367 0.0
N1438 N 0.86006 0.84447 0.7719 0.0
C1439 C 0.86002 0.84012 0.74741 0.0
H1440 H 0.84719 0.82593 0.73569 0.0
C1441 C 0.86422 0.84608 0.84336 0.0
N1442 N 0.86305 0.84607 0.81924 0.0
C1443 C 0.88262 0.86109 0.85911 0.0
C1444 C 0.89975 0.87668 0.85029 0.0
H1445 H 0.8505 0.83532 0.85078 0.0
H1446 H 0.9275 0.90235 0.78384 0.0
H1447 H 0.78122 0.74567 0.81075 0.0
H1448 H 0.90791 0.88208 0.74269 0.0
H1449 H 0.87657 0.85037 0.71733 0.0
H1450 H 0.92981 0.90448 0.82748 0.0
H1451 H 0.78076 0.76177 0.70028 0.0
H1452 H 0.71165 0.71752 0.80121 0.0
H1453 H 0.74784 0.72679 0.82557 0.0
H1454 H 0.68946 0.72511 0.72198 0.0
H1455 H 0.88332 0.86104 0.87815 0.0
H1456 H 0.91391 0.88846 0.86258 0.0
H1457 H 0.6901 0.7177 0.76309 0.0
H1458 H 0.74618 0.75097 0.67315 0.0
N1459 N 0.76568 0.75016 0.77725 0.0
C1460 C 0.72658 0.72666 0.79436 0.0
C1461 C 0.74694 0.73178 0.8081 0.0
C1462 C 0.72572 0.73287 0.77175 0.0
C1463 C 0.74571 0.74468 0.76349 0.0
C1464 C 0.76628 0.74316 0.79924 0.0
N1465 N 0.76483 0.75806 0.73196 0.0
C1466 C 0.74529 0.74894 0.7403 0.0
C1467 C 0.74559 0.75083 0.69208 0.0
C1468 C 0.72532 0.74314 0.70075 0.0
C1469 C 0.7652 0.7575 0.70778 0.0
C1470 C 0.72498 0.7414 0.72489 0.0
H1471 H 0.71013 0.73736 0.68841 0.0
O1472 O 0.80136 0.7404 0.72737 0.0
O1473 O 0.83129 0.79122 0.77423 0.0
O1474 O 0.81664 0.83337 0.75667 0.0
O1475 O 0.79726 0.79434 0.73406 0.0
O1476 O 0.82802 0.77228 0.7391 0.0
O1477 O 0.80055 0.73026 0.76296 0.0
O1478 O 0.82286 0.8513 0.82477 0.0
O1479 O 0.79629 0.80325 0.77757 0.0
O1480 O 0.81116 0.76512 0.79718 0.0
O1481 O 0.8375 0.802 0.81562 0.0
O1482 O 0.80064 0.81766 0.81365 0.0
O1483 O 0.82514 0.86417 0.79038 0.0
C1484 C 0.84181 0.7864 0.75682 0.0
C1485 C 0.70511 0.73091 0.73354 0.0
C1486 C 0.70549 0.72661 0.75691 0.0
C1487 C 0.80205 0.72368 0.74008 0.0
C1488 C 0.80435 0.69921 0.72948 0.0
C1489 C 0.79821 0.68896 0.70488 0.0
C1490 C 0.81319 0.68605 0.74425 0.0
C1491 C 0.81556 0.66257 0.73491 0.0
C1492 C 0.80055 0.66533 0.69545 0.0
C1493 C 0.80906 0.65197 0.7105 0.0
C1494 C 0.80549 0.81866 0.73651 0.0
C1495 C 0.7862 0.8052 0.79574 0.0
C1496 C 0.82235 0.86893 0.8131 0.0
C1497 C 0.81802 0.8921 0.82426 0.0
C1498 C 0.82334 0.90172 0.84901 0.0
C1499 C 0.80684 0.90375 0.80999 0.0
C1500 C 0.79979 0.92425 0.82025 0.0
C1501 C 0.81726 0.92301 0.85927 0.0
C1502 C 0.80536 0.93421 0.84498 0.0
C1503 C 0.82561 0.77924 0.81573 0.0
H1504 H 0.79145 0.69904 0.69309 0.0
H1505 H 0.8181 0.69398 0.76325 0.0
H1506 H 0.79565 0.65734 0.67654 0.0
H1507 H 0.81065 0.63361 0.70317 0.0
H1508 H 0.83202 0.89276 0.86033 0.0
H1509 H 0.80298 0.8963 0.79082 0.0
H1510 H 0.82136 0.93051 0.87836 0.0
H1511 H 0.80009 0.95019 0.8533 0.0
Gd1512 Gd 0.60314 0.57144 0.55534 0.0
Gd1513 Gd 0.54896 0.54216 0.5294 0.0
C1514 C 0.52653 0.45846 0.52758 0.0
C1515 C 0.52041 0.4412 0.48482 0.0
C1516 C 0.53388 0.48604 0.49926 0.0
C1517 C 0.5336 0.4827 0.52282 0.0
C1518 C 0.52654 0.46527 0.48004 0.0
C1519 C 0.5205 0.43781 0.50853 0.0
C1520 C 0.52475 0.45563 0.55131 0.0
C1521 C 0.52914 0.47661 0.56956 0.0
N1522 N 0.53866 0.50304 0.54096 0.0
C1523 C 0.53584 0.5002 0.56406 0.0
H1524 H 0.53928 0.51577 0.57877 0.0
C1525 C 0.53538 0.51341 0.47221 0.0
N1526 N 0.53935 0.50954 0.49506 0.0
C1527 C 0.52852 0.49346 0.45267 0.0
C1528 C 0.52442 0.46927 0.45656 0.0
H1529 H 0.5379 0.53206 0.46891 0.0
H1530 H 0.51509 0.41915 0.51192 0.0
H1531 H 0.60427 0.60058 0.50701 0.0
H1532 H 0.5194 0.43737 0.55564 0.0
H1533 H 0.52747 0.47467 0.58797 0.0
H1534 H 0.51485 0.42511 0.47028 0.0
H1535 H 0.61251 0.58012 0.61605 0.0
H1536 H 0.63646 0.67712 0.53146 0.0
H1537 H 0.62005 0.64128 0.49832 0.0
H1538 H 0.64565 0.68701 0.61676 0.0
H1539 H 0.52609 0.49678 0.43466 0.0
H1540 H 0.51873 0.45381 0.44141 0.0
H1541 H 0.64506 0.69404 0.57545 0.0
H1542 H 0.62666 0.61444 0.65077 0.0
N1543 N 0.6133 0.61141 0.54494 0.0
C1544 C 0.62992 0.65887 0.53544 0.0
C1545 C 0.62095 0.6387 0.51671 0.0
C1546 C 0.62995 0.65538 0.55911 0.0
C1547 C 0.62139 0.63115 0.56341 0.0
C1548 C 0.61266 0.61517 0.52179 0.0
N1549 N 0.61391 0.6036 0.59033 0.0
C1550 C 0.6215 0.62718 0.58672 0.0
C1551 C 0.62501 0.61836 0.6329 0.0
C1552 C 0.63176 0.64269 0.62951 0.0
C1553 C 0.6167 0.59896 0.61307 0.0
C1554 C 0.6305 0.64734 0.60624 0.0
H1555 H 0.63859 0.65766 0.64488 0.0
O1556 O 0.6256 0.55933 0.57834 0.0
O1557 O 0.57615 0.53603 0.55347 0.0
O1558 O 0.5438 0.55428 0.56895 0.0
O1559 O 0.58009 0.57189 0.58646 0.0
O1560 O 0.60528 0.53234 0.54104 0.0
O1561 O 0.63779 0.5785 0.54966 0.0
O1562 O 0.5268 0.55478 0.50657 0.0
O1563 O 0.57598 0.57692 0.53148 0.0
O1564 O 0.60767 0.56277 0.51541 0.0
O1565 O 0.57213 0.54146 0.49754 0.0
O1566 O 0.54713 0.58151 0.54308 0.0
O1567 O 0.51387 0.53343 0.53335 0.0
C1568 C 0.58685 0.52006 0.54654 0.0
C1569 C 0.63871 0.6714 0.60199 0.0
C1570 C 0.63846 0.6754 0.57848 0.0
C1571 C 0.64223 0.56713 0.56662 0.0
C1572 C 0.66485 0.57309 0.57817 0.0
C1573 C 0.67226 0.58839 0.60089 0.0
C1574 C 0.67914 0.56173 0.56571 0.0
C1575 C 0.70088 0.56505 0.57574 0.0
C1576 C 0.69413 0.59195 0.61107 0.0
C1577 C 0.70841 0.58018 0.59864 0.0
C1578 C 0.55824 0.56544 0.5883 0.0
C1579 C 0.56588 0.59347 0.53798 0.0
C1580 C 0.50975 0.54595 0.51727 0.0
C1581 C 0.48773 0.53905 0.50406 0.0
C1582 C 0.47882 0.51622 0.48817 0.0
C1583 C 0.47519 0.55618 0.50834 0.0
C1584 C 0.45365 0.55068 0.49695 0.0
C1585 C 0.45718 0.51073 0.47657 0.0
C1586 C 0.44453 0.52789 0.481 0.0
C1587 C 0.5939 0.55057 0.49579 0.0
H1588 H 0.66128 0.59731 0.61071 0.0
H1589 H 0.67302 0.54948 0.54834 0.0
H1590 H 0.69996 0.60365 0.62867 0.0
H1591 H 0.72522 0.58292 0.60682 0.0
H1592 H 0.48842 0.50276 0.48493 0.0
H1593 H 0.48208 0.57374 0.52088 0.0
H1594 H 0.45013 0.49311 0.46433 0.0
H1595 H 0.4277 0.52336 0.47221 0.0
Gd1596 Gd 0.0436 0.5537 0.05859 0.0
Gd1597 Gd 0.0998 0.56045 0.04076 0.0
C1598 C 0.14538 0.63883 0.04882 0.0
C1599 C 0.14981 0.64155 1.00724 0.0
C1600 C 0.12774 0.60348 0.01692 0.0
C1601 C 0.13203 0.6142 0.04111 0.0
C1602 C 0.13706 0.61679 0.99975 0.0
C1603 C 0.15388 0.65258 0.03173 0.0
C1604 C 0.15001 0.64881 0.07347 0.0
C1605 C 0.14199 0.63405 0.08977 0.0
N1606 N 0.12358 0.60036 0.05714 0.0
C1607 C 0.12898 0.60968 0.0813 0.0
H1608 H 0.123 0.59882 0.09435 0.0
C1609 C 0.11284 0.56721 0.98695 0.0
N1610 N 0.11521 0.57962 0.01025 0.0
C1611 C 0.12178 0.57961 0.96926 0.0
C1612 C 0.13369 0.60462 0.97563 0.0
H1613 H 0.1035 0.54791 0.98202 0.0
H1614 H 0.16399 0.67158 0.03729 0.0
H1615 H 0.01937 0.51142 1.00816 0.0
H1616 H 0.16005 0.6677 0.0801 0.0
H1617 H 0.14574 0.64146 0.1089 0.0
H1618 H 0.1569 0.65219 0.99429 0.0
H1619 H 0.04334 0.57201 0.11788 0.0
H1620 H 0.97721 0.44875 0.02873 0.0
H1621 H 0.99344 0.46991 0.99717 0.0
H1622 H 0.98239 0.47296 0.1143 0.0
H1623 H 0.11946 0.5699 0.95073 0.0
H1624 H 0.14061 0.61419 0.96189 0.0
H1625 H 0.9733 0.45 0.07243 0.0
H1626 H 0.02684 0.55477 0.15151 0.0
N1627 N 0.01867 0.51399 0.04593 0.0
C1628 C 0.98872 0.46708 0.03376 0.0
C1629 C 0.99782 0.47896 0.0159 0.0
C1630 C 0.99424 0.47917 0.05787 0.0
C1631 C 1.00937 0.503 0.06347 0.0
C1632 C 0.01263 0.50262 0.0223 0.0
N1633 N 0.02887 0.53894 0.0918 0.0
C1634 C 0.01461 0.51584 0.08708 0.0
C1635 C 0.02339 0.54357 0.13351 0.0
C1636 C 1.00949 0.51942 0.12913 0.0
C1637 C 0.03271 0.55326 0.11448 0.0
C1638 C 1.00471 0.50535 0.10568 0.0
H1639 H 1.00221 0.512 0.1439 0.0
O1640 O 0.03005 0.58495 0.06934 0.0
O1641 O 0.07487 0.58016 0.05312 0.0
O1642 O 0.09801 0.55994 0.08009 0.0
O1643 O 0.06188 0.54042 0.08616 0.0
O1644 O 0.06125 0.59075 0.08346 0.0
O1645 O 0.01224 0.55521 0.04015 0.0
O1646 O 0.11507 0.53177 0.02557 0.0
O1647 O 0.06846 0.53336 0.04562 0.0
O1648 O 0.04483 0.55125 0.01871 0.0
O1649 O 0.08024 0.57398 0.01414 0.0
O1650 O 0.08231 0.52503 0.01444 0.0
O1651 O 0.12941 0.55569 0.05983 0.0
C1652 C 0.07694 0.59807 0.07069 0.0
C1653 C 0.99005 0.4814 0.10024 0.0
C1654 C 0.98486 0.46833 0.07639 0.0
C1655 C 0.01227 0.57615 0.05398 0.0
C1656 C 0.99147 0.57862 0.06344 0.0
C1657 C 0.98598 0.57126 0.08501 0.0
C1658 C 0.97821 0.591 0.05215 0.0
C1659 C 0.95985 0.59655 0.06261 0.0
C1660 C 0.96781 0.57669 0.09546 0.0
C1661 C 0.95489 0.58941 0.08446 0.0
C1662 C 0.08329 0.54902 0.09302 0.0
C1663 C 0.06675 0.51664 0.02693 0.0
C1664 C 0.13125 0.53772 0.04296 0.0
C1665 C 0.15346 0.53895 0.03545 0.0
C1666 C 0.16302 0.55681 0.02237 0.0
C1667 C 0.16476 0.52138 0.04028 0.0
C1668 C 0.18569 0.52201 0.03231 0.0
C1669 C 0.18351 0.55719 0.0141 0.0
C1670 C 0.19481 0.53999 0.01905 0.0
C1671 C 0.05885 0.56474 1.00684 0.0
H1672 H 0.99593 0.5618 0.09405 0.0
H1673 H 0.98257 0.59701 0.03565 0.0
H1674 H 0.96384 0.57119 0.11224 0.0
H1675 H 0.9408 0.59333 0.09284 0.0
H1676 H 0.15461 0.57033 0.01837 0.0
H1677 H 0.15741 0.50747 0.05032 0.0
H1678 H 0.19066 0.57086 1.00377 0.0
H1679 H 0.21066 0.5406 0.01231 0.0
H1680 H 0.02647 0.18842 0.94395 0.0
H1681 H 0.05348 0.24732 1.0062 0.0
H1682 H 0.0637 0.21683 0.02816 0.0
H1683 H 1.00347 0.14144 0.97962 0.0
H1684 H 1.00847 0.11638 0.95843 0.0
H1685 H 1.003 0.14287 0.94823 0.0
H1686 H 0.03987 0.14987 0.92913 0.0
H1687 H 0.04543 0.12346 0.93929 0.0
H1688 H 0.06555 0.15335 0.94751 0.0
H1689 H 0.07089 0.17727 0.04386 0.0
H1690 H 0.07407 0.13575 0.04983 0.0
H1691 H 0.04381 0.10406 0.97661 0.0
C1692 C 0.03449 0.19501 0.96223 0.0
C1693 C 0.0391 0.22066 0.97312 0.0
C1694 C 0.0495 0.22799 0.99726 0.0
C1695 C 0.05546 0.21066 0.00994 0.0
C1696 C 0.05073 0.18557 0.99862 0.0
C1697 C 0.04023 0.17786 0.97529 0.0
C1698 C 0.0364 0.1499 0.96715 0.0
C1699 C 0.01136 0.13688 0.96311 0.0
C1700 C 0.04748 0.1438 0.94442 0.0
C1701 C 0.04753 0.14319 0.98878 0.0
C1702 C 0.05524 0.16376 1.00715 0.0
C1703 C 0.06505 0.16129 0.02929 0.0
C1704 C 0.06701 0.13752 0.03255 0.0
C1705 C 0.05998 0.11633 0.01357 0.0
C1706 C 0.04995 0.11966 0.99153 0.0
H1707 H 0.19553 0.86479 0.15512 0.0
H1708 H 0.14755 0.80869 0.18128 0.0
H1709 H 0.1775 0.80064 0.20583 0.0
H1710 H 0.23997 0.83494 0.1524 0.0
H1711 H 0.26211 0.86257 0.16441 0.0
H1712 H 0.23703 0.8649 0.14854 0.0
H1713 H 0.23173 0.89609 0.18526 0.0
H1714 H 0.25682 0.89384 0.20126 0.0
H1715 H 0.23107 0.88748 0.21425 0.0
H1716 H 0.21137 0.79786 0.22786 0.0
H1717 H 0.24864 0.80021 0.24634 0.0
H1718 H 0.27754 0.85744 0.20764 0.0
C1719 C 0.1914 0.85095 0.16613 0.0
C1720 C 0.16886 0.83761 0.16626 0.0
C1721 C 0.16438 0.81961 0.181 0.0
C1722 C 0.18138 0.81472 0.19504 0.0
C1723 C 0.20317 0.82813 0.19472 0.0
C1724 C 0.20843 0.84604 0.18091 0.0
C1725 C 0.23356 0.85795 0.18487 0.0
C1726 C 0.24377 0.8549 0.16113 0.0
C1727 C 0.2386 0.88548 0.19712 0.0
C1728 C 0.24147 0.84293 0.20192 0.0
C1729 C 0.22336 0.82623 0.20757 0.0
C1730 C 0.2257 0.81075 0.22346 0.0
C1731 C 0.24702 0.8122 0.23386 0.0
C1732 C 0.26613 0.82858 0.22818 0.0
C1733 C 0.26331 0.84436 0.212 0.0
H1734 H 0.54047 0.87037 0.44681 0.0
H1735 H 0.53934 0.8488 0.51618 0.0
H1736 H 0.54497 0.89307 0.53595 0.0
H1737 H 0.58395 0.92712 0.467 0.0
H1738 H 0.5726 0.9433 0.44686 0.0
H1739 H 0.56802 0.91011 0.43884 0.0
H1740 H 0.52546 0.90471 0.4332 0.0
H1741 H 0.52996 0.93787 0.44135 0.0
H1742 H 0.51236 0.91782 0.45759 0.0
H1743 H 0.55186 0.94137 0.54779 0.0
H1744 H 0.55997 0.98684 0.55025 0.0
H1745 H 0.55565 0.9754 0.47268 0.0
C1746 C 0.54108 0.87473 0.46618 0.0
C1747 C 0.53901 0.8558 0.47986 0.0
C1748 C 0.54066 0.86277 0.50523 0.0
C1749 C 0.54385 0.88793 0.51659 0.0
C1750 C 0.54568 0.90602 0.5024 0.0
C1751 C 0.54453 0.89957 0.47771 0.0
C1752 C 0.54799 0.92226 0.46629 0.0
C1753 C 0.5694 0.92591 0.45402 0.0
C1754 C 0.52773 0.92055 0.44856 0.0
C1755 C 0.55043 0.94261 0.48822 0.0
C1756 C 0.54935 0.93307 0.509 0.0
C1757 C 0.55239 0.94879 0.53152 0.0
C1758 C 0.55677 0.97466 0.53275 0.0
C1759 C 0.55755 0.98473 0.5116 0.0
C1760 C 0.55442 0.9683 0.48913 0.0
H1761 H 0.54124 0.29011 0.65643 0.0
H1762 H 0.56696 0.36936 0.68309 0.0
H1763 H 0.5319 0.37036 0.70066 0.0
H1764 H 0.48208 0.29344 0.64225 0.0
H1765 H 0.47082 0.26356 0.64969 0.0
H1766 H 0.49682 0.26983 0.63711 0.0
H1767 H 0.51588 0.25788 0.67339 0.0
H1768 H 0.49004 0.25163 0.68603 0.0
H1769 H 0.51435 0.27351 0.70345 0.0
H1770 H 0.4958 0.3615 0.7192 0.0
H1771 H 0.46206 0.34373 0.73718 0.0
H1772 H 0.45927 0.27049 0.69686 0.0
C1773 C 0.53928 0.30769 0.66572 0.0
C1774 C 0.55671 0.32966 0.66868 0.0
C1775 C 0.55368 0.35241 0.68067 0.0
C1776 C 0.53383 0.35311 0.6906 0.0
C1777 C 0.51697 0.33103 0.68764 0.0
C1778 C 0.51935 0.30881 0.67508 0.0
C1779 C 0.49902 0.2876 0.67497 0.0
C1780 C 0.48645 0.27804 0.6495 0.0
C1781 C 0.50521 0.26643 0.68509 0.0
C1782 C 0.48578 0.30086 0.6914 0.0
C1783 C 0.49603 0.32605 0.69787 0.0
C1784 C 0.48743 0.3419 0.71387 0.0
C1785 C 0.46821 0.33169 0.72393 0.0
C1786 C 0.45801 0.30582 0.71829 0.0
C1787 C 0.46667 0.29038 0.70136 0.0
H1788 H 0.04693 0.83354 0.63616 0.0
H1789 H 0.97734 0.81486 0.60875 0.0
H1790 H 0.98538 0.84821 0.58515 0.0
H1791 H 0.06043 0.9031 0.63532 0.0
H1792 H 0.08717 0.90259 0.6257 0.0
H1793 H 0.07516 0.88242 0.64526 0.0
H1794 H 0.07916 0.84437 0.61495 0.0
H1795 H 0.09091 0.86426 0.59525 0.0
H1796 H 0.06665 0.83869 0.58427 0.0
H1797 H 1.00185 0.87749 0.55937 0.0
H1798 H 0.02539 0.90023 0.53304 0.0
H1799 H 0.08448 0.89817 0.57618 0.0
C1800 C 0.03333 0.83745 0.62608 0.0
C1801 C 0.01151 0.82249 0.62457 0.0
C1802 C 0.99404 0.82686 0.61045 0.0
C1803 C 0.99849 0.84569 0.59708 0.0
C1804 C 0.02045 0.85969 0.59819 0.0
C1805 C 0.03758 0.85594 0.61255 0.0
C1806 C 0.06004 0.87052 0.60781 0.0
C1807 C 0.07136 0.89087 0.62983 0.0
C1808 C 0.07504 0.85342 0.6001 0.0
C1809 C 0.05299 0.8816 0.58733 0.0
C1810 C 0.0301 0.87584 0.58255 0.0
C1811 C 0.01976 0.8825 0.56322 0.0
C1812 C 0.03319 0.89518 0.54829 0.0
C1813 C 0.05659 0.90049 0.55257 0.0
C1814 C 0.06657 0.894 0.57251 0.0
H1815 H 0.56166 0.87642 0.86857 0.0
H1816 H 0.55943 0.79919 0.84291 0.0
H1817 H 0.52137 0.79186 0.82242 0.0
H1818 H 0.49908 0.86431 0.87462 0.0
H1819 H 0.49889 0.89325 0.86577 0.0
H1820 H 0.52319 0.89055 0.88292 0.0
H1821 H 0.54698 0.90527 0.85021 0.0
H1822 H 0.52286 0.90738 0.83262 0.0
H1823 H 0.53983 0.8883 0.81957 0.0
H1824 H 0.48753 0.79542 0.79862 0.0
H1825 H 0.45891 0.8086 0.77582 0.0
H1826 H 0.48403 0.88373 0.81706 0.0
C1827 C 0.55279 0.8578 0.85924 0.0
C1828 C 0.56319 0.83835 0.85696 0.0
C1829 C 0.55144 0.81418 0.8448 0.0
C1830 C 0.5299 0.80992 0.83321 0.0
C1831 C 0.52045 0.82991 0.83471 0.0
C1832 C 0.53131 0.85324 0.84802 0.0
C1833 C 0.51866 0.87219 0.84501 0.0
C1834 C 0.5094 0.88056 0.86847 0.0
C1835 C 0.53294 0.89457 0.83632 0.0
C1836 C 0.50024 0.85656 0.82593 0.0
C1837 C 0.50106 0.83203 0.82083 0.0
C1838 C 0.48647 0.81443 0.80278 0.0
C1839 C 0.47052 0.8221 0.78978 0.0
C1840 C 0.46976 0.84719 0.79461 0.0
C1841 C 0.48465 0.86454 0.81294 0.0
H1842 H 0.50127 0.16754 0.15827 0.0
H1843 H 0.4732 0.1993 0.10345 0.0
H1844 H 0.48509 0.17134 0.07221 0.0
H1845 H 0.54786 0.16512 0.13605 0.0
H1846 H 0.55014 0.13557 0.14187 0.0
H1847 H 0.53474 0.15288 0.16017 0.0
H1848 H 0.49905 0.11616 0.14985 0.0
H1849 H 0.51506 0.09808 0.13318 0.0
H1850 H 0.48957 0.10126 0.11892 0.0
H1851 H 0.51 0.15156 0.04966 0.0
H1852 H 0.53589 0.12902 0.03372 0.0
H1853 H 0.54444 0.10491 0.10104 0.0
C1854 C 0.4965 0.16764 0.13965 0.0
C1855 C 0.48668 0.1859 0.13334 0.0
C1856 C 0.48087 0.18561 0.10876 0.0
C1857 C 0.48767 0.16988 0.09084 0.0
C1858 C 0.49945 0.15398 0.09783 0.0
C1859 C 0.50293 0.15179 0.12147 0.0
C1860 C 0.51759 0.13456 0.12415 0.0
C1861 C 0.53882 0.14785 0.14159 0.0
C1862 C 0.50454 0.11108 0.13197 0.0
C1863 C 0.52284 0.12874 0.0986 0.0
C1864 C 0.51234 0.14036 0.08386 0.0
C1865 C 0.51712 0.14094 0.06052 0.0
C1866 C 0.53187 0.12787 0.05149 0.0
C1867 C 0.54118 0.11369 0.06533 0.0
C1868 C 0.53708 0.11482 0.08956 0.0
H1869 H 0.20358 0.35328 0.35761 0.0
H1870 H 0.15333 0.28945 0.31579 0.0
H1871 H 0.18005 0.28155 0.28785 0.0
H1872 H 0.23006 0.37279 0.30623 0.0
H1873 H 0.25769 0.38176 0.32202 0.0
H1874 H 0.23437 0.38398 0.33832 0.0
H1875 H 0.24533 0.35621 0.36623 0.0
H1876 H 0.26881 0.35443 0.35017 0.0
H1877 H 0.24895 0.3263 0.35309 0.0
H1878 H 0.21062 0.28317 0.26201 0.0
H1879 H 0.24688 0.28805 0.24573 0.0
H1880 H 0.27836 0.345 0.30781 0.0
C1881 C 0.19819 0.33779 0.34247 0.0
C1882 C 0.17632 0.32228 0.33857 0.0
C1883 C 0.16993 0.30188 0.31885 0.0
C1884 C 0.18491 0.29724 0.3028 0.0
C1885 C 0.20617 0.31315 0.30679 0.0
C1886 C 0.21303 0.33271 0.32634 0.0
C1887 C 0.23728 0.34601 0.32708 0.0
C1888 C 0.23999 0.37271 0.32319 0.0
C1889 C 0.25088 0.34568 0.35054 0.0
C1890 C 0.24305 0.33004 0.30559 0.0
C1891 C 0.22463 0.31196 0.29351 0.0
C1892 C 0.2254 0.29653 0.27184 0.0
C1893 C 0.24594 0.29889 0.26297 0.0
C1894 C 0.26525 0.31505 0.27669 0.0
C1895 C 0.26374 0.33161 0.29764 0.0
H1896 H 1.00214 0.04776 0.2081 0.0
H1897 H 0.97968 0.11418 0.20872 0.0
H1898 H 0.99707 0.12027 0.17187 0.0
H1899 H 0.05533 0.06939 0.18341 0.0
H1900 H 0.05355 0.03982 0.16438 0.0
H1901 H 0.04058 0.04105 0.19172 0.0
H1902 H 1.00302 1.01558 0.16757 0.0
H1903 H 0.0159 1.01429 0.14018 0.0
H1904 H 0.99197 0.02644 0.14267 0.0
H1905 H 0.01814 0.12003 0.13346 0.0
H1906 H 0.03724 0.11146 0.09746 0.0
H1907 H 0.04449 0.04345 0.1175 0.0
C1908 C 1.00107 0.06382 0.20074 0.0
C1909 C 0.98937 0.08072 0.21246 0.0
C1910 C 0.98835 0.10091 0.20103 0.0
C1911 C 0.99834 0.10458 0.17975 0.0
C1912 C 1.00947 0.08774 0.16875 0.0
C1913 C 0.01071 0.06752 0.17878 0.0
C1914 C 0.02284 0.0516 0.16244 0.0
C1915 C 0.04435 0.05038 0.17632 0.0
C1916 C 1.00752 0.02541 0.15264 0.0
C1917 C 0.02814 0.06587 0.14182 0.0
C1918 C 0.02051 0.08692 0.14613 0.0
C1919 C 0.02392 0.10342 0.13011 0.0
C1920 C 0.03498 0.09841 0.10944 0.0
C1921 C 0.04264 0.07672 0.10383 0.0
C1922 C 0.03896 0.06024 0.12067 0.0
H1923 H 0.27952 0.6703 0.45044 0.0
H1924 H 0.33605 0.72379 0.49428 0.0
H1925 H 0.33611 0.75236 0.46605 0.0
H1926 H 0.29265 0.68688 0.38952 0.0
H1927 H 0.26357 0.68267 0.38043 0.0
H1928 H 0.27202 0.66389 0.39984 0.0
H1929 H 0.24686 0.67798 0.43062 0.0
H1930 H 0.23881 0.6973 0.41176 0.0
H1931 H 0.25103 0.71069 0.44233 0.0
H1932 H 0.32565 0.77761 0.43837 0.0
H1933 H 0.30641 0.7976 0.41153 0.0
H1934 H 0.25535 0.72828 0.38692 0.0
C1935 C 0.29263 0.68745 0.45316 0.0
C1936 C 0.30827 0.69481 0.47375 0.0
C1937 C 0.32449 0.71781 0.47798 0.0
C1938 C 0.32456 0.73406 0.46212 0.0
C1939 C 0.30821 0.72684 0.44242 0.0
C1940 C 0.29268 0.70392 0.43768 0.0
C1941 C 0.27479 0.7022 0.41768 0.0
C1942 C 0.27583 0.68277 0.39555 0.0
C1943 C 0.25152 0.69673 0.42613 0.0
C1944 C 0.28195 0.7282 0.41295 0.0
C1945 C 0.30152 0.74191 0.42697 0.0
C1946 C 0.3106 0.76694 0.42691 0.0
C1947 C 0.29951 0.77816 0.41185 0.0
C1948 C 0.27945 0.76438 0.39745 0.0
C1949 C 0.2706 0.73915 0.39798 0.0
H1950 H 0.66313 0.09163 0.6955 0.0
H1951 H 0.6842 0.0241 0.67757 0.0
H1952 H 0.65247 1.00679 0.64555 0.0
H1953 H 0.60509 0.06589 0.68584 0.0
H1954 H 0.59908 0.08966 0.67126 0.0
H1955 H 0.62325 0.09699 0.69308 0.0
H1956 H 0.64936 0.11274 0.66221 0.0
H1957 H 0.62504 0.10711 0.64112 0.0
H1958 H 0.6471 0.0932 0.63302 0.0
H1959 H 0.6192 0.99707 0.61683 0.0
H1960 H 0.59243 0.99989 0.58439 0.0
H1961 H 0.5928 0.0737 0.62128 0.0
C1962 C 0.66104 0.07335 0.68452 0.0
C1963 C 0.67547 0.05887 0.68858 0.0
C1964 C 0.67295 0.0352 0.67417 0.0
C1965 C 0.65491 0.02516 0.6564 0.0
C1966 C 0.64008 0.03936 0.65359 0.0
C1967 C 0.64345 0.0633 0.66649 0.0
C1968 C 0.62645 0.07559 0.65817 0.0
C1969 C 0.61265 0.08242 0.6783 0.0
C1970 C 0.63766 0.09849 0.64802 0.0
C1971 C 0.6128 0.05468 0.63869 0.0
C1972 C 0.62072 0.03377 0.63671 0.0
C1973 C 0.61261 1.01312 0.61826 0.0
C1974 C 0.59738 1.0148 0.6001 0.0
C1975 C 0.59096 0.03706 0.60076 0.0
C1976 C 0.59724 0.05637 0.62098 0.0
H1977 H 0.32567 0.37806 0.95204 0.0
H1978 H 0.34142 0.31273 0.97013 0.0
H1979 H 0.34059 0.29539 0.92686 0.0
H1980 H 0.28911 0.34694 0.89679 0.0
H1981 H 0.29892 0.3722 0.88163 0.0
H1982 H 0.29922 0.37831 0.91381 0.0
H1983 H 0.34142 0.40025 0.91858 0.0
H1984 H 0.34122 0.39398 0.88643 0.0
H1985 H 0.36006 0.38368 0.90508 0.0
H1986 H 0.33618 0.2845 0.88024 0.0
H1987 H 0.33129 0.28299 0.83629 0.0
H1988 H 0.32374 0.35788 0.85001 0.0
C1989 C 0.32861 0.35994 0.94692 0.0
C1990 C 0.33329 0.34662 0.96455 0.0
C1991 C 0.33758 0.32321 0.95699 0.0
C1992 C 0.33717 0.31321 0.93241 0.0
C1993 C 0.33279 0.32699 0.9155 0.0
C1994 C 0.32873 0.34994 0.92253 0.0
C1995 C 0.32538 0.3616 0.90104 0.0
C1996 C 0.30176 0.36496 0.89815 0.0
C1997 C 0.34308 0.38634 0.90291 0.0
C1998 C 0.32843 0.34186 0.88086 0.0
C1999 C 0.33222 0.32173 0.88934 0.0
C2000 C 0.33375 0.30047 0.87356 0.0
C2001 C 0.33124 0.29985 0.8486 0.0
C2002 C 0.32821 0.32074 0.83968 0.0
C2003 C 0.3268 0.3419 0.85621 0.0
H2004 H 0.97803 0.04702 0.36898 0.0
H2005 H 0.03921 0.07419 0.33949 0.0
H2006 H 0.06075 0.07479 0.37797 0.0
H2007 H 0.99441 0.08093 0.43047 0.0
H2008 H 0.9809 0.05545 0.44384 0.0
H2009 H 0.97046 0.05749 0.41418 0.0
H2010 H 0.97371 1.01343 0.39817 0.0
H2011 H 0.98513 1.01113 0.4274 0.0
H2012 H 1.0002 1.00666 0.40183 0.0
H2013 H 0.0764 0.07153 0.42134 0.0
H2014 H 0.08356 0.06693 0.4635 0.0
H2015 H 0.01269 0.04234 0.46621 0.0
C2016 C 0.99598 0.05328 0.37062 0.0
C2017 C 1.00671 0.06078 0.35065 0.0
C2018 C 0.03032 0.06836 0.35402 0.0
C2019 C 0.0428 0.06873 0.37605 0.0
C2020 C 0.0318 0.06108 0.3952 0.0
C2021 C 1.00881 0.05345 0.39263 0.0
C2022 C 1.00106 0.04546 0.41577 0.0
C2023 C 0.98581 0.06075 0.42671 0.0
C2024 C 0.98931 0.01751 0.41051 0.0
C2025 C 0.02303 0.05093 0.4322 0.0
C2026 C 0.04065 0.05939 0.41977 0.0
C2027 C 0.06255 0.06493 0.43098 0.0
C2028 C 0.06655 0.06213 0.45516 0.0
C2029 C 0.0489 0.05401 0.46875 0.0
C2030 C 0.02678 0.04848 0.45671 0.0
H2031 H 0.27606 0.69331 0.59081 0.0
H2032 H 0.33238 0.66613 0.61035 0.0
H2033 H 0.34104 0.69684 0.64861 0.0
H2034 H 0.29907 0.75488 0.61184 0.0
H2035 H 0.27569 0.76288 0.62469 0.0
H2036 H 0.27119 0.73667 0.6002 0.0
H2037 H 0.24892 0.70744 0.62533 0.0
H2038 H 0.25257 0.73375 0.6496 0.0
H2039 H 0.26098 0.70676 0.65482 0.0
H2040 H 0.34985 0.73638 0.67555 0.0
H2041 H 0.35078 0.77415 0.7033 0.0
H2042 H 0.28446 0.77199 0.67367 0.0
C2043 C 0.28971 0.69346 0.60368 0.0
C2044 C 0.30387 0.67798 0.59816 0.0
C2045 C 0.32162 0.67816 0.61477 0.0
C2046 C 0.32662 0.69546 0.63628 0.0
C2047 C 0.31318 0.71155 0.64071 0.0
C2048 C 0.29443 0.71003 0.62566 0.0
C2049 C 0.28328 0.73014 0.63495 0.0
C2050 C 0.28226 0.74713 0.61683 0.0
C2051 C 0.26007 0.71884 0.64159 0.0
C2052 C 0.29944 0.74378 0.65696 0.0
C2053 C 0.31684 0.73304 0.65914 0.0
C2054 C 0.33578 0.74423 0.67507 0.0
C2055 C 0.33624 0.76603 0.69065 0.0
C2056 C 0.31746 0.77555 0.69122 0.0
C2057 C 0.29893 0.76478 0.67373 0.0
H2058 H 0.65919 0.03716 0.82039 0.0
H2059 H 0.71551 0.10185 0.83215 0.0
H2060 H 0.70967 0.11212 0.87461 0.0
H2061 H 0.62467 0.06141 0.8481 0.0
H2062 H 0.61169 0.03685 0.8629 0.0
H2063 H 0.62469 0.02967 0.83654 0.0
H2064 H 0.6495 1.00908 0.85984 0.0
H2065 H 0.6365 1.01631 0.88652 0.0
H2066 H 0.66627 0.02642 0.88742 0.0
H2067 H 0.69231 0.12212 0.90996 0.0
H2068 H 0.66403 0.13172 0.9352 0.0
H2069 H 0.6187 0.06044 0.90292 0.0
C2070 C 0.67086 0.05262 0.83245 0.0
C2071 C 0.68804 0.06847 0.8236 0.0
C2072 C 0.70261 0.08927 0.83912 0.0
C2073 C 0.69949 0.09511 0.86324 0.0
C2074 C 0.68188 0.07973 0.87156 0.0
C2075 C 0.66797 0.05861 0.85677 0.0
C2076 C 0.64816 0.04778 0.86902 0.0
C2077 C 0.62602 0.04376 0.85321 0.0
C2078 C 0.65023 0.02346 0.87613 0.0
C2079 C 0.65131 0.06818 0.89114 0.0
C2080 C 0.67156 0.08566 0.89292 0.0
C2081 C 0.67684 0.10817 0.90942 0.0
C2082 C 0.6607 0.11355 0.92363 0.0
C2083 C 0.63954 0.09657 0.92109 0.0
C2084 C 0.63514 0.07318 0.90559 0.0
H2085 H 0.32224 0.33354 0.09088 0.0
H2086 H 0.31699 0.40815 0.11879 0.0
H2087 H 0.30667 0.39607 0.15628 0.0
H2088 H 0.27527 0.30162 0.12219 0.0
H2089 H 0.28891 0.27859 0.12854 0.0
H2090 H 0.29356 0.29148 0.10196 0.0
H2091 H 0.33597 0.30469 0.11508 0.0
H2092 H 0.33141 0.29164 0.14149 0.0
H2093 H 0.34668 0.3237 0.14444 0.0
H2094 H 0.30043 0.37888 0.19179 0.0
H2095 H 0.30036 0.35695 0.22532 0.0
H2096 H 0.30888 0.29241 0.17722 0.0
C2097 C 0.31859 0.34715 0.10477 0.0
C2098 C 0.32051 0.37188 0.10162 0.0
C2099 C 0.31576 0.38914 0.12046 0.0
C2100 C 0.30968 0.38244 0.14194 0.0
C2101 C 0.30814 0.35826 0.1446 0.0
C2102 C 0.31238 0.34072 0.12671 0.0
C2103 C 0.3107 0.31645 0.13545 0.0
C2104 C 0.29094 0.29581 0.12118 0.0
C2105 C 0.3325 0.30868 0.13403 0.0
C2106 C 0.3064 0.32389 0.16141 0.0
C2107 C 0.30437 0.34794 0.16585 0.0
C2108 C 0.30165 0.3599 0.18853 0.0
C2109 C 0.30166 0.34731 0.20748 0.0
C2110 C 0.3044 0.32299 0.20379 0.0
C2111 C 0.30623 0.3108 0.18033 0.0
H2112 H 0.27347 0.98353 0.04732 0.0
H2113 H 0.28294 0.99911 0.97654 0.0
H2114 H 0.25204 0.01939 0.9783 0.0
H2115 H 0.21108 0.9778 0.04445 0.0
H2116 H 0.21481 0.99322 0.07556 0.0
H2117 H 0.23218 0.97346 0.06519 0.0
H2118 H 0.26692 1.00981 0.08232 0.0
H2119 H 0.24993 0.03004 0.09195 0.0
H2120 H 0.27041 0.03872 0.07208 0.0
H2121 H 0.22653 0.04537 0.99169 0.0
H2122 H 0.20654 0.07284 0.01426 0.0
H2123 H 0.21646 0.04228 0.07747 0.0
C2124 C 0.26816 0.99013 0.03174 0.0
C2125 C 0.27998 0.98971 0.0117 0.0
C2126 C 0.27348 0.99898 0.99176 0.0
C2127 C 0.25609 1.01053 0.99272 0.0
C2128 C 0.24567 1.01228 0.01365 0.0
C2129 C 0.25124 1.00188 0.03265 0.0
C2130 C 0.24054 1.00964 0.05462 0.0
C2131 C 0.22363 0.9872 0.06028 0.0
C2132 C 0.258 0.02284 0.0765 0.0
C2133 C 0.22924 0.02742 0.04565 0.0
C2134 C 0.23185 0.02821 0.02183 0.0
C2135 C 0.22407 0.0446 0.01019 0.0
C2136 C 0.21307 0.06031 0.02316 0.0
C2137 C 0.21052 0.05982 0.04757 0.0
C2138 C 0.21863 0.04318 0.0589 0.0
H2139 H 0.7417 0.6627 0.0425 0.0
H2140 H 0.74055 0.65321 0.96524 0.0
H2141 H 0.70242 0.62496 0.96 0.0
H2142 H 0.71034 0.59995 0.04422 0.0
H2143 H 0.69567 0.6099 0.0686 0.0
H2144 H 0.72313 0.62807 0.066 0.0
H2145 H 0.70823 0.66679 0.06615 0.0
H2146 H 0.68071 0.64871 0.06865 0.0
H2147 H 0.68533 0.66522 0.04436 0.0
H2148 H 0.6648 0.59676 0.96359 0.0
H2149 H 0.6295 0.57365 0.97544 0.0
H2150 H 0.6542 0.60468 0.05043 0.0
C2151 C 0.73338 0.65448 0.02451 0.0
C2152 C 0.74391 0.65975 1.0042 0.0
C2153 C 0.73264 0.64912 0.98092 0.0
C2154 C 0.71107 0.6331 0.97783 0.0
C2155 C 0.70102 0.62827 0.99826 0.0
C2156 C 0.71176 0.63884 0.02116 0.0
C2157 C 0.69701 0.63149 0.04014 0.0
C2158 C 0.70715 0.61646 0.05565 0.0
C2159 C 0.69256 0.65442 0.05574 0.0
C2160 C 0.67618 0.61535 0.02438 0.0
C2161 C 0.67897 0.61333 1.00029 0.0
C2162 C 0.66236 0.59846 0.98238 0.0
C2163 C 0.6424 0.58541 0.98926 0.0
C2164 C 0.639 0.58775 0.0138 0.0
C2165 C 0.65613 0.60298 0.03153 0.0
H2166 H 0.74625 0.45245 0.29951 0.0
H2167 H 0.74304 0.44796 0.22256 0.0
H2168 H 0.76152 0.41393 0.21899 0.0
H2169 H 0.80224 0.43975 0.30472 0.0
H2170 H 0.79642 0.42268 0.32841 0.0
H2171 H 0.78303 0.44687 0.32528 0.0
H2172 H 0.74458 0.4157 0.32277 0.0
H2173 H 0.75792 0.39155 0.32604 0.0
H2174 H 0.73751 0.38717 0.30059 0.0
H2175 H 0.78188 0.37859 0.22372 0.0
H2176 H 0.79878 0.34678 0.23604 0.0
H2177 H 0.78927 0.3723 0.30981 0.0
C2178 C 0.74932 0.44434 0.28182 0.0
C2179 C 0.74262 0.45366 0.26123 0.0
C2180 C 0.74766 0.44199 0.23877 0.0
C2181 C 0.75833 0.42231 0.23654 0.0
C2182 C 0.76476 0.41381 0.25696 0.0
C2183 C 0.7605 0.42465 0.27929 0.0
C2184 C 0.76974 0.41239 0.29848 0.0
C2185 C 0.78898 0.43156 0.31524 0.0
C2186 C 0.75133 0.40102 0.31282 0.0
C2187 C 0.77853 0.39208 0.28352 0.0
C2188 C 0.77607 0.39369 0.25959 0.0
C2189 C 0.7837 0.37748 0.2425 0.0
C2190 C 0.79357 0.35928 0.24973 0.0
C2191 C 0.79593 0.35648 0.27406 0.0
C2192 C 0.78808 0.37352 0.29104 0.0
H2193 H 0.92038 0.51904 0.54719 0.0
H2194 H 0.90713 0.46821 0.47817 0.0
H2195 H 0.94742 0.47409 0.47668 0.0
H2196 H 0.97243 0.56226 0.53772 0.0
H2197 H 0.98354 0.56443 0.56853 0.0
H2198 H 0.95416 0.55848 0.56072 0.0
H2199 H 0.95027 0.5199 0.58077 0.0
H2200 H 0.97997 0.52546 0.58602 0.0
H2201 H 0.96323 0.49603 0.56892 0.0
H2202 H 0.98749 0.47713 0.48781 0.0
H2203 H 0.0276 0.48977 0.50357 0.0
H2204 H 0.01495 0.54238 0.56222 0.0
C2205 C 0.92605 0.51011 0.53131 0.0
C2206 C 0.91096 0.49343 0.51268 0.0
C2207 C 0.91872 0.4812 0.4925 0.0
C2208 C 0.94145 0.4842 0.49161 0.0
C2209 C 0.95594 0.49944 0.51107 0.0
C2210 C 0.94866 0.51275 0.53022 0.0
C2211 C 0.96759 0.52673 0.5494 0.0
C2212 C 0.96957 0.55468 0.55429 0.0
C2213 C 0.9651 0.51641 0.57264 0.0
C2214 C 0.98673 0.52036 0.53736 0.0
C2215 C 0.97951 0.50343 0.51596 0.0
C2216 C 0.99365 0.4915 0.50376 0.0
C2217 C 0.01622 0.49867 0.51272 0.0
C2218 C 0.02411 0.5184 0.53261 0.0
C2219 C 1.0092 0.52852 0.5458 0.0
H2220 H 0.41015 0.13303 0.30835 0.0
H2221 H 0.35379 0.08429 0.33078 0.0
H2222 H 0.32898 0.10685 0.3149 0.0
H2223 H 0.38705 0.19113 0.3123 0.0
H2224 H 0.39865 0.1972 0.28519 0.0
H2225 H 0.41286 0.18407 0.30606 0.0
H2226 H 0.41289 0.14773 0.27145 0.0
H2227 H 0.39805 0.16005 0.25066 0.0
H2228 H 0.38684 0.1288 0.25493 0.0
H2229 H 0.30968 0.12621 0.28804 0.0
H2230 H 0.29734 0.14394 0.25442 0.0
H2231 H 0.36587 0.17777 0.24661 0.0
C2232 C 0.39283 0.12834 0.31136 0.0
C2233 C 0.38377 0.10744 0.3211 0.0
C2234 C 0.36091 0.10068 0.32371 0.0
C2235 C 0.34675 0.11335 0.31472 0.0
C2236 C 0.35583 0.13259 0.30319 0.0
C2237 C 0.37845 0.14041 0.30182 0.0
C2238 C 0.38347 0.15785 0.28444 0.0
C2239 C 0.39626 0.18413 0.2978 0.0
C2240 C 0.39604 0.14799 0.26419 0.0
C2241 C 0.36016 0.15711 0.27498 0.0
C2242 C 0.34448 0.14304 0.28651 0.0
C2243 C 0.32177 0.13783 0.27935 0.0
C2244 C 0.31493 0.14762 0.26015 0.0
C2245 C 0.33081 0.16185 0.24819 0.0
C2246 C 0.3536 0.16679 0.25568 0.0
H2247 H 0.38948 0.18929 0.54615 0.0
H2248 H 0.35007 0.13048 0.48915 0.0
H2249 H 0.37929 0.10792 0.4903 0.0
H2250 H 0.44566 0.18496 0.52733 0.0
H2251 H 0.45774 0.19176 0.55824 0.0
H2252 H 0.43574 0.20502 0.54968 0.0
H2253 H 0.41287 0.18631 0.58145 0.0
H2254 H 0.43465 0.17293 0.58995 0.0
H2255 H 0.40684 0.15333 0.5805 0.0
H2256 H 0.41033 0.08916 0.50232 0.0
H2257 H 0.44002 0.07632 0.52381 0.0
H2258 H 0.45911 0.14812 0.57226 0.0
C2259 C 0.3875 0.17213 0.53331 0.0
C2260 C 0.36794 0.16175 0.51721 0.0
C2261 C 0.36532 0.13889 0.50117 0.0
C2262 C 0.38179 0.12599 0.50176 0.0
C2263 C 0.40081 0.13647 0.51829 0.0
C2264 C 0.40386 0.15926 0.53352 0.0
C2265 C 0.42469 0.16555 0.55108 0.0
C2266 C 0.44198 0.18816 0.54629 0.0
C2267 C 0.41943 0.16975 0.57728 0.0
C2268 C 0.43212 0.14209 0.54449 0.0
C2269 C 0.41851 0.12571 0.52519 0.0
C2270 C 0.42134 0.10207 0.51712 0.0
C2271 C 0.43823 0.09493 0.52938 0.0
C2272 C 0.45177 0.11124 0.54967 0.0
C2273 C 0.44895 0.13528 0.55681 0.0
H2274 H 0.72852 0.61861 0.31093 0.0
H2275 H 0.75509 0.5803 0.25185 0.0
H2276 H 0.77694 0.62066 0.24501 0.0
H2277 H 0.72351 0.6709 0.28672 0.0
H2278 H 0.73326 0.69366 0.31422 0.0
H2279 H 0.72029 0.66181 0.31535 0.0
H2280 H 0.75486 0.6602 0.34196 0.0
H2281 H 0.76791 0.69213 0.34101 0.0
H2282 H 0.78182 0.66841 0.3317 0.0
H2283 H 0.79609 0.66658 0.24372 0.0
H2284 H 0.81018 0.71221 0.24846 0.0
H2285 H 0.77167 0.72239 0.30797 0.0
C2286 C 0.73914 0.6186 0.29672 0.0
C2287 C 0.7399 0.59553 0.28211 0.0
C2288 C 0.75414 0.59709 0.2637 0.0
C2289 C 0.76666 0.62021 0.25953 0.0
C2290 C 0.76542 0.64238 0.27405 0.0
C2291 C 0.75219 0.64177 0.29252 0.0
C2292 C 0.75425 0.66844 0.30577 0.0
C2293 C 0.73146 0.67402 0.30548 0.0
C2294 C 0.76535 0.67254 0.33165 0.0
C2295 C 0.76955 0.68414 0.29107 0.0
C2296 C 0.77621 0.66864 0.27317 0.0
C2297 C 0.7909 0.67869 0.25777 0.0
C2298 C 0.79896 0.70487 0.26065 0.0
C2299 C 0.79226 0.72146 0.27855 0.0
C2300 C 0.77716 0.71058 0.29391 0.0
H2301 H 0.88968 0.4961 0.80334 0.0
H2302 H 0.93459 0.48757 0.86074 0.0
H2303 H 0.91703 0.44212 0.85196 0.0
H2304 H 0.84048 0.44701 0.80918 0.0
H2305 H 0.83314 0.4369 0.77715 0.0
H2306 H 0.84711 0.46898 0.78972 0.0
H2307 H 0.87818 0.46692 0.76241 0.0
H2308 H 0.86451 0.43486 0.74962 0.0
H2309 H 0.89296 0.44351 0.76314 0.0
H2310 H 0.90041 0.3988 0.83223 0.0
H2311 H 0.87983 0.35823 0.80755 0.0
H2312 H 0.84403 0.39453 0.76387 0.0
C2313 C 0.89529 0.48457 0.81439 0.0
C2314 C 0.91313 0.49471 0.83277 0.0
C2315 C 0.92079 0.47963 0.84668 0.0
C2316 C 0.91094 0.45403 0.84181 0.0
C2317 C 0.89379 0.44434 0.82296 0.0
C2318 C 0.8858 0.45909 0.80962 0.0
C2319 C 0.86855 0.44378 0.78904 0.0
C2320 C 0.84597 0.4495 0.79144 0.0
C2321 C 0.87653 0.4475 0.76462 0.0
C2322 C 0.86801 0.41807 0.79304 0.0
C2323 C 0.88306 0.41893 0.81239 0.0
C2324 C 0.88786 0.39776 0.81775 0.0
C2325 C 0.87612 0.37493 0.80371 0.0
C2326 C 0.85962 0.3736 0.78496 0.0
C2327 C 0.85588 0.39532 0.77899 0.0
H2328 H 0.11003 0.91904 0.11316 0.0
H2329 H 0.10125 0.87449 0.04138 0.0
H2330 H 0.09075 0.90813 0.02471 0.0
H2331 H 0.06653 0.94982 0.10647 0.0
H2332 H 0.08276 0.97967 0.12327 0.0
H2333 H 0.08842 0.95166 0.12961 0.0
H2334 H 0.12945 0.96791 0.12247 0.0
H2335 H 0.12385 0.99597 0.11615 0.0
H2336 H 0.13558 0.97722 0.09447 0.0
H2337 H 0.08083 0.94813 0.01562 0.0
H2338 H 0.0757 0.99013 0.01533 0.0
H2339 H 0.0925 1.0096 0.09263 0.0
C2340 C 0.1057 0.91626 0.09395 0.0
C2341 C 0.10623 0.89366 0.07867 0.0
C2342 C 0.10095 0.89135 0.05357 0.0
C2343 C 0.09489 0.91047 0.0439 0.0
C2344 C 0.09457 0.93248 0.05937 0.0
C2345 C 0.10021 0.93559 0.08388 0.0
C2346 C 0.10012 0.9617 0.09643 0.0
C2347 C 0.08346 0.96063 0.11505 0.0
C2348 C 0.12364 0.97658 0.10807 0.0
C2349 C 0.09275 0.97246 0.07544 0.0
C2350 C 0.08967 0.95539 0.05412 0.0
C2351 C 0.08324 0.96148 0.03233 0.0
C2352 C 0.0802 0.98547 0.0323 0.0
C2353 C 0.08333 1.0034 0.05392 0.0
C2354 C 0.08969 0.99646 0.07571 0.0
H2355 H 0.97729 0.27403 0.85914 0.0
H2356 H 0.95284 0.28432 0.92872 0.0
H2357 H 0.91856 0.29014 0.90976 0.0
H2358 H 0.9553 0.32051 0.83686 0.0
H2359 H 0.94761 0.30328 0.80638 0.0
H2360 H 0.97025 0.29867 0.82478 0.0
H2361 H 0.95107 0.25159 0.81705 0.0
H2362 H 0.92835 0.2561 0.79866 0.0
H2363 H 0.92298 0.24113 0.82386 0.0
H2364 H 0.88643 0.29463 0.88401 0.0
H2365 H 0.85932 0.29984 0.85358 0.0
H2366 H 0.9033 0.2893 0.79921 0.0
C2367 C 0.96463 0.27726 0.87035 0.0
C2368 C 0.96809 0.27847 0.89572 0.0
C2369 C 0.95098 0.28316 0.90947 0.0
C2370 C 0.93125 0.28649 0.89878 0.0
C2371 C 0.92843 0.28532 0.87404 0.0
C2372 C 0.94462 0.28094 0.85988 0.0
C2373 C 0.93723 0.28146 0.8337 0.0
C2374 C 0.95358 0.30222 0.82492 0.0
C2375 C 0.93477 0.25606 0.81735 0.0
C2376 C 0.91455 0.28698 0.83554 0.0
C2377 C 0.90989 0.28883 0.85905 0.0
C2378 C 0.89004 0.29343 0.8656 0.0
C2379 C 0.87465 0.29652 0.84796 0.0
C2380 C 0.87885 0.29548 0.82362 0.0
C2381 C 0.89924 0.29033 0.81744 0.0
H2382 H 0.616 0.24662 0.55829 0.0
H2383 H 0.58881 0.24635 0.62661 0.0
H2384 H 0.58258 0.20167 0.62049 0.0
H2385 H 0.57545 0.18896 0.52723 0.0
H2386 H 0.59472 0.17729 0.50946 0.0
H2387 H 0.59904 0.2103 0.51918 0.0
H2388 H 0.63862 0.21415 0.53961 0.0
H2389 H 0.63396 0.18125 0.52886 0.0
H2390 H 0.6418 0.19438 0.56045 0.0
H2391 H 0.58096 0.15731 0.60977 0.0
H2392 H 0.57512 0.11367 0.58957 0.0
H2393 H 0.59761 0.13783 0.52527 0.0
C2394 C 0.60867 0.23716 0.57189 0.0
C2395 C 0.6034 0.25091 0.59326 0.0
C2396 C 0.5935 0.23715 0.61023 0.0
C2397 C 0.58992 0.21139 0.60706 0.0
C2398 C 0.59578 0.19865 0.58649 0.0
C2399 C 0.60429 0.21072 0.56872 0.0
C2400 C 0.60722 0.19138 0.54753 0.0
C2401 C 0.59327 0.19203 0.52448 0.0
C2402 C 0.63188 0.19555 0.54392 0.0
C2403 C 0.59852 0.16694 0.55617 0.0
C2404 C 0.59291 0.17198 0.57917 0.0
C2405 C 0.58516 0.15308 0.59167 0.0
C2406 C 0.5821 0.12826 0.58013 0.0
C2407 C 0.58617 0.12214 0.55599 0.0
C2408 C 0.59473 0.14188 0.5439 0.0
H2409 H 0.57886 0.76994 0.36691 0.0
H2410 H 0.60946 0.81555 0.4362 0.0
H2411 H 0.64609 0.82336 0.42122 0.0
H2412 H 0.62727 0.74311 0.35712 0.0
H2413 H 0.62389 0.74143 0.32513 0.0
H2414 H 0.60001 0.73824 0.34149 0.0
H2415 H 0.58989 0.77444 0.32522 0.0
H2416 H 0.61354 0.77753 0.30865 0.0
H2417 H 0.61038 0.80399 0.32949 0.0
H2418 H 0.6794 0.82815 0.39817 0.0
H2419 H 0.70621 0.83072 0.36807 0.0
H2420 H 0.65477 0.78142 0.3139 0.0
C2421 C 0.5933 0.78154 0.37885 0.0
C2422 C 0.59125 0.79225 0.40271 0.0
C2423 C 0.61062 0.80706 0.4179 0.0
C2424 C 0.63155 0.81157 0.40957 0.0
C2425 C 0.63312 0.80071 0.38607 0.0
C2426 C 0.61457 0.78579 0.37096 0.0
C2427 C 0.62103 0.77638 0.34651 0.0
C2428 C 0.61785 0.74811 0.34231 0.0
C2429 C 0.60793 0.78354 0.32628 0.0
C2430 C 0.64558 0.79004 0.34963 0.0
C2431 C 0.65239 0.80332 0.37284 0.0
C2432 C 0.67428 0.81766 0.37997 0.0
C2433 C 0.68944 0.81896 0.3628 0.0
C2434 C 0.68259 0.80636 0.33865 0.0
C2435 C 0.66045 0.79134 0.33222 0.0
H2436 H 0.13434 0.3041 0.46929 0.0
H2437 H 0.11209 0.25775 0.39816 0.0
H2438 H 0.09763 0.22164 0.41636 0.0
H2439 H 0.1497 0.25472 0.49716 0.0
H2440 H 0.14049 0.26579 0.52531 0.0
H2441 H 0.15164 0.28731 0.50659 0.0
H2442 H 0.11571 0.30217 0.50669 0.0
H2443 H 0.10419 0.28042 0.52496 0.0
H2444 H 0.08922 0.27981 0.49654 0.0
H2445 H 0.08091 0.1926 0.4417 0.0
H2446 H 0.0674 0.17002 0.47327 0.0
H2447 H 0.10163 0.23457 0.52806 0.0
C2448 C 0.12697 0.28621 0.45756 0.0
C2449 C 0.12426 0.28368 0.43239 0.0
C2450 C 0.11444 0.26004 0.41754 0.0
C2451 C 0.10609 0.23944 0.42768 0.0
C2452 C 0.10811 0.24281 0.45259 0.0
C2453 C 0.11875 0.26539 0.46736 0.0
C2454 C 0.11787 0.26416 0.49359 0.0
C2455 C 0.14132 0.26823 0.50642 0.0
C2456 C 0.10604 0.28274 0.50617 0.0
C2457 C 0.10419 0.23766 0.49117 0.0
C2458 C 0.09884 0.22569 0.46736 0.0
C2459 C 0.0854 0.20152 0.46044 0.0
C2460 C 0.07777 0.18893 0.47847 0.0
C2461 C 0.08372 0.20055 0.50303 0.0
C2462 C 0.09682 0.22533 0.50942 0.0
H2463 H 0.57348 0.2272 0.17831 0.0
H2464 H 0.58217 0.30532 0.20742 0.0
H2465 H 0.62153 0.30973 0.22177 0.0
H2466 H 0.60226 0.21623 0.22725 0.0
H2467 H 0.61462 0.19396 0.21072 0.0
H2468 H 0.58869 0.19778 0.19852 0.0
H2469 H 0.60551 0.2069 0.15975 0.0
H2470 H 0.6315 0.20285 0.17167 0.0
H2471 H 0.63081 0.23123 0.16189 0.0
H2472 H 0.65789 0.30468 0.23641 0.0
H2473 H 0.68936 0.29055 0.2517 0.0
H2474 H 0.65638 0.21492 0.21508 0.0
C2475 C 0.58401 0.24533 0.18704 0.0
C2476 C 0.57537 0.2661 0.19151 0.0
C2477 C 0.58895 0.28942 0.20373 0.0
C2478 C 0.61119 0.29205 0.2118 0.0
C2479 C 0.61921 0.27104 0.20772 0.0
C2480 C 0.60606 0.2481 0.19568 0.0
C2481 C 0.61784 0.22791 0.19633 0.0
C2482 C 0.60509 0.2078 0.20896 0.0
C2483 C 0.62164 0.21656 0.1709 0.0
C2484 C 0.63943 0.24298 0.21119 0.0
C2485 C 0.64001 0.26787 0.21715 0.0
C2486 C 0.65779 0.28532 0.23164 0.0
C2487 C 0.67551 0.27712 0.24026 0.0
C2488 C 0.67517 0.25168 0.2345 0.0
C2489 C 0.65692 0.23443 0.21979 0.0
H2490 H 0.60224 0.89389 0.94611 0.0
H2491 H 0.6732 0.92693 0.95293 0.0
H2492 H 0.66833 0.96571 0.97734 0.0
H2493 H 0.58689 0.94611 0.93716 0.0
H2494 H 0.56293 0.94114 0.95329 0.0
H2495 H 0.57227 0.91506 0.93943 0.0
H2496 H 0.57561 0.90124 0.98028 0.0
H2497 H 0.56579 0.92698 0.99418 0.0
H2498 H 0.59185 0.92307 1.00613 0.0
H2499 H 0.6545 1.0025 0.99358 0.0
H2500 H 0.63355 0.03303 1.00688 0.0
H2501 H 0.57229 0.97406 0.9934 0.0
C2502 C 0.6168 0.90901 0.95364 0.0
C2503 C 0.6381 0.9077 0.94835 0.0
C2504 C 0.65687 0.92778 0.95752 0.0
C2505 C 0.65419 0.94976 0.97113 0.0
C2506 C 0.63273 0.95084 0.97534 0.0
C2507 C 0.61441 0.93079 0.96729 0.0
C2508 C 0.59298 0.93711 0.9726 0.0
C2509 C 0.57789 0.9347 0.94923 0.0
C2510 C 0.58086 0.92116 0.98931 0.0
C2511 C 0.60207 0.9639 0.985 0.0
C2512 C 0.62496 0.97166 0.98594 0.0
C2513 C 0.63671 0.99647 0.9938 0.0
C2514 C 0.62474 1.01362 1.00137 0.0
C2515 C 0.60153 1.00563 1.00164 0.0
C2516 C 0.59007 0.98054 0.99345 0.0
H2517 H 0.94418 0.74414 0.7088 0.0
H2518 H 0.98476 0.81682 0.74499 0.0
H2519 H 0.9526 0.82482 0.7653 0.0
H2520 H 0.8969 0.76087 0.694 0.0
H2521 H 0.87753 0.7335 0.69936 0.0
H2522 H 0.90447 0.73191 0.69149 0.0
H2523 H 0.9114 0.71508 0.7301 0.0
H2524 H 0.88451 0.71723 0.73825 0.0
H2525 H 0.90913 0.73279 0.75892 0.0
H2526 H 0.91653 0.82126 0.78547 0.0
H2527 H 0.87657 0.8146 0.79068 0.0
H2528 H 0.8593 0.75221 0.73138 0.0
C2529 C 0.94624 0.76154 0.72133 0.0
C2530 C 0.96669 0.77974 0.72606 0.0
C2531 C 0.9691 0.80261 0.74186 0.0
C2532 C 0.95111 0.80712 0.75355 0.0
C2533 C 0.93113 0.78851 0.74898 0.0
C2534 C 0.92844 0.76645 0.73271 0.0
C2535 C 0.9046 0.75092 0.72855 0.0
C2536 C 0.89535 0.74395 0.70176 0.0
C2537 C 0.90228 0.72763 0.73959 0.0
C2538 C 0.894 0.76895 0.74286 0.0
C2539 C 0.90973 0.78936 0.75625 0.0
C2540 C 0.904 0.80638 0.77373 0.0
C2541 C 0.8814 0.80329 0.77604 0.0
C2542 C 0.86518 0.78586 0.75892 0.0
C2543 C 0.87152 0.76736 0.74321 0.0
H2544 H 0.15481 0.07857 0.8722 0.0
H2545 H 0.1309 0.99981 0.84183 0.0
H2546 H 0.1117 0.99346 0.87763 0.0
H2547 H 0.16553 0.07011 0.93433 0.0
H2548 H 0.15755 0.09724 0.9482 0.0
H2549 H 0.16852 0.09626 0.91969 0.0
H2550 H 0.1335 0.10562 0.90108 0.0
H2551 H 0.12246 0.10663 0.92955 0.0
H2552 H 0.10646 0.0859 0.90297 0.0
H2553 H 0.09294 0.99554 0.91729 0.0
H2554 H 0.08026 1.00492 0.95714 0.0
H2555 H 0.11868 0.08161 0.96614 0.0
C2556 C 0.14543 0.05996 0.87295 0.0
C2557 C 0.14446 0.03969 0.85326 0.0
C2558 C 0.13217 1.01578 0.85597 0.0
C2559 C 0.12103 1.01197 0.87651 0.0
C2560 C 0.12236 0.03208 0.89539 0.0
C2561 C 0.1346 0.05564 0.89401 0.0
C2562 C 0.13423 0.07374 0.91764 0.0
C2563 C 0.15787 0.08502 0.93074 0.0
C2564 C 0.12353 0.0942 0.9125 0.0
C2565 C 0.11974 0.05689 0.93231 0.0
C2566 C 0.11285 0.03295 0.91884 0.0
C2567 C 0.09862 1.01424 0.92789 0.0
C2568 C 0.09138 0.01982 0.95087 0.0
C2569 C 0.09837 0.04397 0.96578 0.0
C2570 C 0.11301 0.06274 0.95595 0.0
H2571 H 0.83853 0.3939 0.56688 0.0
H2572 H 0.84167 0.46598 0.6103 0.0
H2573 H 0.84561 0.44934 0.64702 0.0
H2574 H 0.81156 0.3547 0.61129 0.0
H2575 H 0.82824 0.33337 0.60369 0.0
H2576 H 0.81882 0.34842 0.58117 0.0
H2577 H 0.8595 0.36482 0.57301 0.0
H2578 H 0.86909 0.35033 0.59567 0.0
H2579 H 0.88004 0.38325 0.59749 0.0
H2580 H 0.85737 0.42847 0.6781 0.0
H2581 H 0.87596 0.40447 0.7012 0.0
H2582 H 0.86676 0.34676 0.63764 0.0
C2583 C 0.83915 0.40591 0.5841 0.0
C2584 C 0.83986 0.43121 0.58582 0.0
C2585 C 0.84111 0.44652 0.60863 0.0
C2586 C 0.84317 0.43717 0.62958 0.0
C2587 C 0.8437 0.41248 0.62733 0.0
C2588 C 0.84142 0.39691 0.60513 0.0
C2589 C 0.84619 0.3725 0.60744 0.0
C2590 C 0.82493 0.35098 0.60049 0.0
C2591 C 0.86482 0.36748 0.59254 0.0
C2592 C 0.85353 0.37775 0.6341 0.0
C2593 C 0.85113 0.40047 0.64542 0.0
C2594 C 0.85881 0.41039 0.66962 0.0
C2595 C 0.86947 0.39686 0.68252 0.0
C2596 C 0.87264 0.3741 0.67091 0.0
C2597 C 0.86424 0.36417 0.64667 0.0
H2598 H 0.48297 0.04153 0.37401 0.0
H2599 H 0.48858 0.12056 0.38953 0.0
H2600 H 0.51177 0.1248 0.42811 0.0
H2601 H 0.48228 0.03331 0.43864 0.0
H2602 H 0.49751 1.01018 0.43321 0.0
H2603 H 0.47842 1.01324 0.40947 0.0
H2604 H 0.51031 0.01834 0.38254 0.0
H2605 H 0.52975 1.01657 0.40652 0.0
H2606 H 0.53534 0.04319 0.39243 0.0
H2607 H 0.53924 0.12114 0.46044 0.0
H2608 H 0.56298 0.10844 0.48985 0.0
H2609 H 0.53792 0.03166 0.45293 0.0
C2610 C 0.48873 0.05961 0.38589 0.0
C2611 C 0.48471 0.0809 0.37911 0.0
C2612 C 0.49194 0.10426 0.39476 0.0
C2613 C 0.505 0.10675 0.41651 0.0
C2614 C 0.50991 0.08554 0.42206 0.0
C2615 C 0.5013 0.06224 0.40764 0.0
C2616 C 0.50977 0.04255 0.41699 0.0
C2617 C 0.49087 0.02373 0.42506 0.0
C2618 C 0.52202 0.02942 0.39851 0.0
C2619 C 0.52557 0.05869 0.4381 0.0
C2620 C 0.52541 0.08338 0.44084 0.0
C2621 C 0.53934 0.10186 0.45868 0.0
C2622 C 0.55303 0.09463 0.47488 0.0
C2623 C 0.55236 0.06929 0.47285 0.0
C2624 C 0.53889 0.0512 0.45416 0.0
H2625 H 0.82311 0.78265 0.09738 0.0
H2626 H 0.79149 0.70442 0.09335 0.0
H2627 H 0.78791 0.7126 0.1364 0.0
H2628 H 0.85459 0.7914 0.1552 0.0
H2629 H 0.85205 0.82226 0.16616 0.0
H2630 H 0.85117 0.81107 0.13437 0.0
H2631 H 0.81309 0.82048 0.12699 0.0
H2632 H 0.81392 0.83168 0.15879 0.0
H2633 H 0.79053 0.80725 0.14281 0.0
H2634 H 0.79128 0.72737 0.1803 0.0
H2635 H 0.79924 0.74928 0.22268 0.0
H2636 H 0.82579 0.81881 0.20023 0.0
C2637 C 0.81511 0.76742 0.10555 0.0
C2638 C 0.80762 0.74282 0.09182 0.0
C2639 C 0.79757 0.72336 0.10338 0.0
C2640 C 0.79535 0.72779 0.12791 0.0
C2641 C 0.80322 0.75191 0.14106 0.0
C2642 C 0.81282 0.77152 0.13045 0.0
C2643 C 0.82076 0.7954 0.14946 0.0
C2644 C 0.84615 0.80564 0.1514 0.0
C2645 C 0.80886 0.81485 0.14418 0.0
C2646 C 0.81383 0.78603 0.17205 0.0
C2647 C 0.80399 0.76079 0.16671 0.0
C2648 C 0.7982 0.74732 0.18465 0.0
C2649 C 0.80243 0.75997 0.20872 0.0
C2650 C 0.81162 0.78599 0.21474 0.0
C2651 C 0.8176 0.79909 0.19607 0.0
H2652 H 0.15734 1.00274 0.68272 0.0
H2653 H 0.13698 0.05926 0.7306 0.0
H2654 H 0.11767 0.06919 0.69585 0.0
H2655 H 0.1671 0.03299 0.63324 0.0
H2656 H 0.15469 1.00585 0.61012 0.0
H2657 H 0.16619 1.00243 0.63881 0.0
H2658 H 0.1286 0.97313 0.64375 0.0
H2659 H 0.11704 0.97643 0.61498 0.0
H2660 H 0.10374 0.98353 0.64138 0.0
H2661 H 0.09763 0.07188 0.65279 0.0
H2662 H 0.08289 0.06722 0.61003 0.0
H2663 H 0.1193 1.01286 0.5898 0.0
C2664 C 0.14872 1.01711 0.68609 0.0
C2665 C 0.14903 0.02992 0.71035 0.0
C2666 C 0.13721 0.04861 0.71291 0.0
C2667 C 0.12606 0.05457 0.69293 0.0
C2668 C 0.12614 0.04174 0.66949 0.0
C2669 C 0.13712 0.02318 0.66611 0.0
C2670 C 0.1343 1.01172 0.63915 0.0
C2671 C 0.15693 1.01336 0.62978 0.0
C2672 C 0.1201 0.98459 0.63454 0.0
C2673 C 0.12164 0.02777 0.62779 0.0
C2674 C 0.11627 0.04447 0.64553 0.0
C2675 C 0.10269 0.05938 0.63898 0.0
C2676 C 0.09477 0.0573 0.6142 0.0
C2677 C 0.10121 0.0415 0.59531 0.0
C2678 C 0.11464 0.02632 0.603 0.0
H2679 H 0.86323 0.40883 0.44306 0.0
H2680 H 0.79743 0.37801 0.46155 0.0
H2681 H 0.79058 0.34399 0.42571 0.0
H2682 H 0.84684 0.39676 0.37874 0.0
H2683 H 0.87244 0.38991 0.3713 0.0
H2684 H 0.87218 0.41106 0.39876 0.0
H2685 H 0.88968 0.38402 0.4224 0.0
H2686 H 0.88915 0.36228 0.39501 0.0
H2687 H 0.87569 0.35159 0.4196 0.0
H2688 H 0.79295 0.31129 0.39157 0.0
H2689 H 0.79829 0.28907 0.35226 0.0
H2690 H 0.85991 0.34478 0.35262 0.0
C2691 C 0.8473 0.39502 0.43922 0.0
C2692 C 0.83075 0.3955 0.45467 0.0
C2693 C 0.81008 0.37758 0.44954 0.0
C2694 C 0.80624 0.35817 0.42958 0.0
C2695 C 0.82323 0.35751 0.41512 0.0
C2696 C 0.84301 0.37594 0.41907 0.0
C2697 C 0.85769 0.37185 0.39958 0.0
C2698 C 0.86254 0.39368 0.38631 0.0
C2699 C 0.87933 0.36716 0.40977 0.0
C2700 C 0.84274 0.34851 0.38382 0.0
C2701 C 0.82347 0.34003 0.39373 0.0
C2702 C 0.80754 0.31825 0.3831 0.0
C2703 C 0.81051 0.30592 0.36064 0.0
C2704 C 0.8284 0.31631 0.34858 0.0
C2705 C 0.84551 0.33693 0.361 0.0
H2706 H 0.46477 0.08594 0.24181 0.0
H2707 H 0.43254 1.01245 0.25305 0.0
H2708 H 0.45196 0.99382 0.22164 0.0
H2709 H 0.46426 0.06441 0.17387 0.0
H2710 H 0.4907 0.08617 0.17402 0.0
H2711 H 0.47158 0.0941 0.19435 0.0
H2712 H 0.50174 0.10278 0.23049 0.0
H2713 H 0.5211 0.09529 0.21049 0.0
H2714 H 0.51532 0.07904 0.23481 0.0
H2715 H 0.48098 0.98442 0.19646 0.0
H2716 H 0.51267 0.98415 0.17265 0.0
H2717 H 0.52346 0.06307 0.17505 0.0
C2718 C 0.461 0.0659 0.2367 0.0
C2719 C 0.44697 0.05055 0.24937 0.0
C2720 C 0.4428 0.02441 0.24295 0.0
C2721 C 0.4539 1.01367 0.22531 0.0
C2722 C 0.46846 0.02935 0.21382 0.0
C2723 C 0.4714 0.05483 0.21858 0.0
C2724 C 0.4888 0.06755 0.20451 0.0
C2725 C 0.47818 0.07873 0.18557 0.0
C2726 C 0.50786 0.08731 0.22109 0.0
C2727 C 0.49645 0.04557 0.19279 0.0
C2728 C 0.48443 0.02364 0.1982 0.0
C2729 C 0.49004 1.0013 0.19139 0.0
C2730 C 0.50812 1.00134 0.17819 0.0
C2731 C 0.52011 0.02353 0.17199 0.0
C2732 C 0.51417 0.04582 0.17931 0.0
H2733 H 0.79604 0.76887 0.94907 0.0
H2734 H 0.84197 0.72318 0.95228 0.0
H2735 H 0.85057 0.72784 0.91138 0.0
H2736 H 0.7744 0.74539 0.88718 0.0
H2737 H 0.77232 0.77493 0.88114 0.0
H2738 H 0.77024 0.76876 0.91099 0.0
H2739 H 0.80249 0.8081 0.92806 0.0
H2740 H 0.80452 0.81442 0.89826 0.0
H2741 H 0.82862 0.81174 0.91575 0.0
H2742 H 0.85295 0.7359 0.86862 0.0
H2743 H 0.85029 0.74894 0.82926 0.0
H2744 H 0.80361 0.78993 0.85405 0.0
C2745 C 0.80811 0.76007 0.94132 0.0
C2746 C 0.81835 0.74568 0.95416 0.0
C2747 C 0.83391 0.73437 0.94306 0.0
C2748 C 0.83888 0.73685 0.9197 0.0
C2749 C 0.82826 0.7508 0.90744 0.0
C2750 C 0.81332 0.76241 0.91797 0.0
C2751 C 0.80407 0.77622 0.90085 0.0
C2752 C 0.77876 0.76569 0.89468 0.0
C2753 C 0.8103 0.80428 0.91136 0.0
C2754 C 0.81603 0.77049 0.87907 0.0
C2755 C 0.82985 0.75569 0.88314 0.0
C2756 C 0.84225 0.7476 0.86536 0.0
C2757 C 0.84062 0.75499 0.84303 0.0
C2758 C 0.82677 0.77035 0.83869 0.0
C2759 C 0.81435 0.77815 0.85697 0.0
H2760 H 0.84246 0.09719 0.01122 0.0
H2761 H 0.87728 0.14503 0.07775 0.0
H2762 H 0.91273 0.13671 0.06637 0.0
H2763 H 0.86726 0.05139 0.01625 0.0
H2764 H 0.86796 0.0412 0.98454 0.0
H2765 H 0.84706 0.05598 0.99456 0.0
H2766 H 0.85942 0.08929 0.96875 0.0
H2767 H 0.88029 0.07443 0.95831 0.0
H2768 H 0.88811 0.10693 0.97231 0.0
H2769 H 0.94324 0.1213 0.04817 0.0
H2770 H 0.96563 0.09528 0.0293 0.0
H2771 H 0.90772 0.05104 0.97965 0.0
C2772 C 0.85777 0.10649 0.02292 0.0
C2773 C 0.85774 0.12202 0.04492 0.0
C2774 C 0.8775 0.13328 0.06061 0.0
C2775 C 0.89755 0.12884 0.05419 0.0
C2776 C 0.897 0.11282 0.03239 0.0
C2777 C 0.87752 0.10151 0.01723 0.0
C2778 C 0.88029 0.08155 0.99735 0.0
C2779 C 0.86474 0.05603 0.99826 0.0
C2780 C 0.87683 0.08848 0.97272 0.0
C2781 C 0.90424 0.08272 1.00408 0.0
C2782 C 0.91382 0.10154 0.02366 0.0
C2783 C 0.93584 0.10627 0.03304 0.0
C2784 C 0.94826 0.09093 0.02241 0.0
C2785 C 0.93825 0.07022 1.00345 0.0
C2786 C 0.91604 0.06655 0.99397 0.0
H2787 H 0.40893 0.47459 0.06837 0.0
H2788 H 0.40718 0.41072 0.01266 0.0
H2789 H 0.44649 0.42787 1.00927 0.0
H2790 H 0.44703 0.52126 0.04373 0.0
H2791 H 0.46267 0.53795 0.07217 0.0
H2792 H 0.43393 0.52127 0.07096 0.0
H2793 H 0.44481 0.49676 0.10193 0.0
H2794 H 0.47361 0.51332 0.10318 0.0
H2795 H 0.46533 0.47985 0.09595 0.0
H2796 H 0.48519 0.44814 0.01344 0.0
H2797 H 0.52263 0.4746 0.02 0.0
H2798 H 0.50269 0.52994 0.07068 0.0
C2799 C 0.41689 0.46445 0.05536 0.0
C2800 C 0.40491 0.44109 0.04086 0.0
C2801 C 0.41594 0.42832 0.02419 0.0
C2802 C 0.43833 0.43794 0.0221 0.0
C2803 C 0.44978 0.46044 0.03688 0.0
C2804 C 0.43967 0.47385 0.05307 0.0
C2805 C 0.45671 0.49758 0.0667 0.0
C2806 C 0.44966 0.5209 0.06316 0.0
C2807 C 0.46032 0.49684 0.09353 0.0
C2808 C 0.4775 0.49565 0.05468 0.0
C2809 C 0.47285 0.47352 0.03817 0.0
C2810 C 0.48899 0.46585 0.02584 0.0
C2811 C 0.51044 0.48139 0.02975 0.0
C2812 C 0.51592 0.50519 0.0452 0.0
C2813 C 0.49914 0.51224 0.0583 0.0
H2814 H 0.40061 0.65374 0.72803 0.0
H2815 H 0.39885 0.6481 0.80274 0.0
H2816 H 0.38001 0.68184 0.80917 0.0
H2817 H 0.41291 0.72214 0.74014 0.0
H2818 H 0.39675 0.72339 0.71315 0.0
H2819 H 0.40884 0.69778 0.71389 0.0
H2820 H 0.37007 0.66696 0.70089 0.0
H2821 H 0.35795 0.69257 0.70024 0.0
H2822 H 0.3476 0.67009 0.71831 0.0
H2823 H 0.35903 0.71818 0.80737 0.0
H2824 H 0.34432 0.75302 0.79857 0.0
H2825 H 0.36193 0.73895 0.72625 0.0
C2826 C 0.39618 0.65936 0.74579 0.0
C2827 C 0.40149 0.64705 0.7648 0.0
C2828 C 0.39535 0.6563 0.78761 0.0
C2829 C 0.38438 0.67579 0.79148 0.0
C2830 C 0.37947 0.68737 0.77261 0.0
C2831 C 0.38559 0.67963 0.75019 0.0
C2832 C 0.37967 0.6963 0.7333 0.0
C2833 C 0.4008 0.71075 0.72459 0.0
C2834 C 0.36283 0.68053 0.71191 0.0
C2835 C 0.36915 0.7143 0.74938 0.0
C2836 C 0.36887 0.70863 0.77199 0.0
C2837 C 0.35953 0.72252 0.78963 0.0
C2838 C 0.3509 0.74254 0.78441 0.0
C2839 C 0.3514 0.74952 0.76158 0.0
C2840 C 0.36085 0.73465 0.74398 0.0
H2841 H 0.23301 0.63868 0.55162 0.0
H2842 H 0.2225 0.57641 0.49165 0.0
H2843 H 0.18215 0.5658 0.4953 0.0
H2844 H 0.18941 0.60705 0.58622 0.0
H2845 H 0.18256 0.63583 0.59696 0.0
H2846 H 0.21045 0.63621 0.59091 0.0
H2847 H 0.20803 0.66703 0.56269 0.0
H2848 H 0.17973 0.66546 0.56795 0.0
H2849 H 0.18638 0.65797 0.53771 0.0
H2850 H 0.14512 0.56949 0.49829 0.0
H2851 H 0.1103 0.57638 0.5084 0.0
H2852 H 0.14246 0.63195 0.57119 0.0
C2853 C 0.22212 0.62261 0.53949 0.0
C2854 C 0.23032 0.60844 0.52101 0.0
C2855 C 0.21614 0.58738 0.50565 0.0
C2856 C 0.19341 0.58134 0.50766 0.0
C2857 C 0.18572 0.59626 0.52552 0.0
C2858 C 0.19956 0.61597 0.54169 0.0
C2859 C 0.18666 0.62915 0.55879 0.0
C2860 C 0.19261 0.62689 0.58477 0.0
C2861 C 0.19044 0.65652 0.55664 0.0
C2862 C 0.16316 0.61421 0.549 0.0
C2863 C 0.16343 0.59584 0.5295 0.0
C2864 C 0.14456 0.58253 0.51445 0.0
C2865 C 0.12467 0.58671 0.52034 0.0
C2866 C 0.12313 0.60311 0.54152 0.0
C2867 C 0.14284 0.61794 0.55579 0.0
H2868 H 0.76315 0.03008 0.76863 0.0
H2869 H 0.71255 0.97332 0.71937 0.0
H2870 H 0.72569 0.94055 0.73546 0.0
H2871 H 0.80639 0.99919 0.76677 0.0
H2872 H 0.81602 1.01035 0.79834 0.0
H2873 H 0.80305 0.02851 0.78196 0.0
H2874 H 0.7741 0.02908 0.81239 0.0
H2875 H 0.78699 1.01103 0.82899 0.0
H2876 H 0.75779 1.0001 0.81814 0.0
H2877 H 0.74421 0.91519 0.758 0.0
H2878 H 0.76584 0.89831 0.78538 0.0
H2879 H 0.80357 0.97304 0.81989 0.0
C2880 C 0.75508 1.01068 0.76108 0.0
C2881 C 0.7373 1.00369 0.74277 0.0
C2882 C 0.72647 0.9785 0.73336 0.0
C2883 C 0.7338 0.96002 0.74235 0.0
C2884 C 0.75157 0.9676 0.76069 0.0
C2885 C 0.76193 0.99234 0.76996 0.0
C2886 C 0.77987 0.99596 0.79025 0.0
C2887 C 0.80268 1.00927 0.78394 0.0
C2888 C 0.77435 1.00986 0.81383 0.0
C2889 C 0.7782 0.96925 0.79106 0.0
C2890 C 0.76183 0.95317 0.77388 0.0
C2891 C 0.75705 0.92758 0.77149 0.0
C2892 C 0.76938 0.91822 0.78713 0.0
C2893 C 0.78621 0.93446 0.80481 0.0
C2894 C 0.79059 0.96026 0.80678 0.0
H2895 H 0.77969 0.94237 0.51225 0.0
H2896 H 0.78709 0.95514 0.59008 0.0
H2897 H 0.75386 0.97115 0.59064 0.0
H2898 H 0.76667 0.99801 0.50863 0.0
H2899 H 0.74705 0.98577 0.48189 0.0
H2900 H 0.76903 0.97145 0.48734 0.0
H2901 H 0.73999 0.92906 0.48373 0.0
H2902 H 0.71788 0.94332 0.47834 0.0
H2903 H 0.71783 0.92664 0.50251 0.0
H2904 H 0.72162 0.98869 0.58308 0.0
H2905 H 0.69556 1.01063 0.56826 0.0
H2906 H 0.71025 0.9889 0.49553 0.0
C2907 C 0.77401 0.94814 0.52933 0.0
C2908 C 0.78585 0.94748 0.55112 0.0
C2909 C 0.77828 0.95563 0.57319 0.0
C2910 C 0.7593 0.96453 0.57368 0.0
C2911 C 0.74816 0.96539 0.55194 0.0
C2912 C 0.75533 0.95763 0.53016 0.0
C2913 C 0.74197 0.96325 0.50962 0.0
C2914 C 0.75708 0.98066 0.49608 0.0
C2915 C 0.72862 0.93913 0.49254 0.0
C2916 C 0.72676 0.97616 0.52332 0.0
C2917 C 0.73015 0.97655 0.54764 0.0
C2918 C 0.7187 0.98833 0.56405 0.0
C2919 C 0.70387 1.00068 0.55548 0.0
C2920 C 0.70096 1.00154 0.53079 0.0
C2921 C 0.71221 0.9886 0.51452 0.0
H2922 H 0.42703 0.48449 0.76142 0.0
H2923 H 0.37751 0.52145 0.78586 0.0
H2924 H 0.35212 0.48054 0.78731 0.0
H2925 H 0.38528 0.42974 0.72267 0.0
H2926 H 0.40089 0.40805 0.72792 0.0
H2927 H 0.41514 0.44004 0.72863 0.0
H2928 H 0.4341 0.44347 0.77129 0.0
H2929 H 0.41982 0.41155 0.77073 0.0
H2930 H 0.41727 0.43575 0.79471 0.0
H2931 H 0.33215 0.43466 0.78792 0.0
H2932 H 0.31883 0.38964 0.78534 0.0
H2933 H 0.37966 0.37973 0.75831 0.0
C2934 C 0.41074 0.48402 0.76689 0.0
C2935 C 0.40452 0.50687 0.77349 0.0
C2936 C 0.38289 0.50479 0.78041 0.0
C2937 C 0.36831 0.48139 0.78142 0.0
C2938 C 0.37499 0.45945 0.77492 0.0
C2939 C 0.39561 0.46052 0.76733 0.0
C2940 C 0.39827 0.43394 0.76037 0.0
C2941 C 0.40001 0.42757 0.7333 0.0
C2942 C 0.41858 0.43101 0.77517 0.0
C2943 C 0.37649 0.4178 0.76647 0.0
C2944 C 0.36325 0.43305 0.77456 0.0
C2945 C 0.3424 0.42277 0.78124 0.0
C2946 C 0.33477 0.39672 0.77948 0.0
C2947 C 0.34755 0.38011 0.77109 0.0
C2948 C 0.36904 0.3913 0.76469 0.0
H2949 H 0.25666 0.63123 0.24306 0.0
H2950 H 0.25874 0.63496 0.31982 0.0
H2951 H 0.27314 0.68111 0.32686 0.0
H2952 H 0.30519 0.68094 0.24447 0.0
H2953 H 0.29344 0.69241 0.22064 0.0
H2954 H 0.28494 0.6598 0.22111 0.0
H2955 H 0.2436 0.66008 0.22013 0.0
H2956 H 0.25159 0.69222 0.21782 0.0
H2957 H 0.23578 0.68299 0.24152 0.0
H2958 H 0.28906 0.72662 0.32415 0.0
H2959 H 0.29828 0.76758 0.31262 0.0
H2960 H 0.27826 0.73205 0.23791 0.0
C2961 C 0.26062 0.64182 0.26136 0.0
C2962 C 0.25768 0.63011 0.28099 0.0
C2963 C 0.26183 0.64408 0.30473 0.0
C2964 C 0.26988 0.67007 0.30879 0.0
C2965 C 0.27294 0.68116 0.2888 0.0
C2966 C 0.2679 0.6674 0.2656 0.0
C2967 C 0.27094 0.68337 0.24706 0.0
C2968 C 0.28975 0.6788 0.23245 0.0
C2969 C 0.24918 0.67943 0.23069 0.0
C2970 C 0.2777 0.70854 0.26329 0.0
C2971 C 0.27967 0.70698 0.28729 0.0
C2972 C 0.28705 0.72799 0.30545 0.0
C2973 C 0.29196 0.75114 0.29876 0.0
C2974 C 0.28839 0.75296 0.27437 0.0
C2975 C 0.28135 0.7314 0.25651 0.0
H2976 H 0.56485 0.73225 0.51861 0.0
H2977 H 0.53238 0.69636 0.44686 0.0
H2978 H 0.53645 0.65609 0.45434 0.0
H2979 H 0.6035 0.69431 0.5227 0.0
H2980 H 0.60084 0.69231 0.55369 0.0
H2981 H 0.59666 0.71895 0.54276 0.0
H2982 H 0.55773 0.71149 0.55706 0.0
H2983 H 0.56191 0.685 0.56828 0.0
H2984 H 0.53795 0.68154 0.54718 0.0
H2985 H 0.54625 0.61982 0.46826 0.0
H2986 H 0.55414 0.58852 0.49017 0.0
H2987 H 0.57536 0.64495 0.55536 0.0
C2988 C 0.55854 0.71589 0.50452 0.0
C2989 C 0.54833 0.71774 0.48196 0.0
C2990 C 0.54017 0.69567 0.46422 0.0
C2991 C 0.54257 0.67262 0.46827 0.0
C2992 C 0.5528 0.67143 0.49045 0.0
C2993 C 0.56016 0.69231 0.50856 0.0
C2994 C 0.5692 0.68525 0.53127 0.0
C2995 C 0.59403 0.69849 0.53801 0.0
C2996 C 0.55589 0.69117 0.55218 0.0
C2997 C 0.56554 0.65719 0.5231 0.0
C2998 C 0.55669 0.64989 0.49921 0.0
C2999 C 0.55279 0.6253 0.48708 0.0
C3000 C 0.55733 0.60755 0.49972 0.0
C3001 C 0.56508 0.61398 0.52459 0.0
C3002 C 0.56937 0.63933 0.53638 0.0
H3003 H 0.7071 0.35559 0.65275 0.0
H3004 H 0.65851 0.31255 0.69051 0.0
H3005 H 0.68842 0.30521 0.71573 0.0
H3006 H 0.74735 0.31978 0.65365 0.0
H3007 H 0.77163 0.34593 0.6604 0.0
H3008 H 0.7466 0.34848 0.64457 0.0
H3009 H 0.74649 0.38676 0.67682 0.0
H3010 H 0.77157 0.38437 0.6927 0.0
H3011 H 0.74731 0.38431 0.70799 0.0
H3012 H 0.7224 0.30017 0.73607 0.0
H3013 H 0.75959 0.30079 0.75323 0.0
H3014 H 0.78931 0.34876 0.70607 0.0
C3015 C 0.7028 0.34477 0.66642 0.0
C3016 C 0.68004 0.33477 0.66939 0.0
C3017 C 0.67547 0.32077 0.6877 0.0
C3018 C 0.69247 0.31629 0.70221 0.0
C3019 C 0.71446 0.32617 0.69883 0.0
C3020 C 0.71989 0.34048 0.68176 0.0
C3021 C 0.7453 0.34946 0.68303 0.0
C3022 C 0.75318 0.34037 0.65897 0.0
C3023 C 0.75314 0.37792 0.69057 0.0
C3024 C 0.75305 0.33714 0.70279 0.0
C3025 C 0.7347 0.32391 0.71151 0.0
C3026 C 0.73687 0.31071 0.72955 0.0
C3027 C 0.75821 0.31126 0.73929 0.0
C3028 C 0.7776 0.325 0.73141 0.0
C3029 C 0.77493 0.33799 0.71256 0.0
H3030 H 0.05121 0.37499 0.9615 0.0
H3031 H 0.02223 0.35138 0.02325 0.0
H3032 H 0.02725 0.39537 0.0427 0.0
H3033 H 0.09184 0.43116 0.99417 0.0
H3034 H 0.08851 0.44875 0.97137 0.0
H3035 H 0.08381 0.41554 0.9632 0.0
H3036 H 0.0443 0.41171 0.94309 0.0
H3037 H 0.04888 0.44488 0.95137 0.0
H3038 H 0.0253 0.42446 0.96042 0.0
H3039 H 0.03764 0.44366 0.05644 0.0
H3040 H 0.04952 0.48956 0.061 0.0
H3041 H 0.06675 0.4808 0.9882 0.0
C3042 C 0.04614 0.37904 0.97924 0.0
C3043 C 0.03656 0.3595 0.9909 0.0
C3044 C 0.02977 0.36585 0.01393 0.0
C3045 C 0.03255 0.39089 0.02516 0.0
C3046 C 0.04188 0.40968 0.01309 0.0
C3047 C 0.04839 0.40395 0.99051 0.0
C3048 C 0.05717 0.42743 0.98089 0.0
C3049 C 0.08179 0.43092 0.97719 0.0
C3050 C 0.04306 0.42708 0.95756 0.0
C3051 C 0.05441 0.44722 1.00136 0.0
C3052 C 0.04599 0.43679 0.02006 0.0
C3053 C 0.0437 0.45183 0.04158 0.0
C3054 C 0.05019 0.47799 0.04394 0.0
C3055 C 0.05802 0.48901 0.0246 0.0
C3056 C 0.06011 0.47313 1.00312 0.0
H3057 H 0.0338 0.78619 0.15817 0.0
H3058 H 0.05245 0.86665 0.17272 0.0
H3059 H 0.01799 0.86657 0.19195 0.0
H3060 H 0.97246 0.77995 0.14552 0.0
H3061 H 0.96537 0.75243 0.15815 0.0
H3062 H 0.99012 0.75915 0.14339 0.0
H3063 H 0.01373 0.75668 0.18165 0.0
H3064 H 0.98916 0.75002 0.1965 0.0
H3065 H 0.01236 0.77602 0.20998 0.0
H3066 H 0.98365 0.85714 0.21396 0.0
H3067 H 0.95261 0.83952 0.23583 0.0
H3068 H 0.9558 0.76517 0.20476 0.0
C3069 C 0.03041 0.80377 0.1651 0.0
C3070 C 0.04571 0.82645 0.16419 0.0
C3071 C 0.04079 0.84912 0.17321 0.0
C3072 C 0.02128 0.8492 0.1841 0.0
C3073 C 1.00663 0.82643 0.18509 0.0
C3074 C 0.01079 0.80413 0.17535 0.0
C3075 C 0.99284 0.78219 0.17923 0.0
C3076 C 0.9794 0.76757 0.15514 0.0
C3077 C 1.00262 0.76526 0.19265 0.0
C3078 C 0.97894 0.79556 0.19449 0.0
C3079 C 0.98674 0.82106 0.19717 0.0
C3080 C 0.97718 0.8372 0.2116 0.0
C3081 C 0.95952 0.82703 0.22392 0.0
C3082 C 0.9518 0.80099 0.222 0.0
C3083 C 0.96139 0.78516 0.20663 0.0
H3084 H 0.52185 0.29451 0.09062 0.0
H3085 H 0.51795 0.34155 0.15827 0.0
H3086 H 0.53364 0.37881 0.14161 0.0
H3087 H 0.57336 0.32879 0.08138 0.0
H3088 H 0.56742 0.32388 0.0492 0.0
H3089 H 0.55311 0.30117 0.06515 0.0
H3090 H 0.51506 0.30472 0.04716 0.0
H3091 H 0.52923 0.32716 0.03079 0.0
H3092 H 0.50959 0.33481 0.05053 0.0
H3093 H 0.5543 0.41026 0.11917 0.0
H3094 H 0.57485 0.43377 0.09154 0.0
H3095 H 0.56411 0.36545 0.03855 0.0
C3096 C 0.52372 0.31262 0.10179 0.0
C3097 C 0.51863 0.31521 0.12568 0.0
C3098 C 0.52156 0.33922 0.13981 0.0
C3099 C 0.53055 0.36044 0.13055 0.0
C3100 C 0.53629 0.35713 0.10718 0.0
C3101 C 0.53268 0.33381 0.09291 0.0
C3102 C 0.54157 0.335 0.06905 0.0
C3103 C 0.55995 0.3214 0.06604 0.0
C3104 C 0.52274 0.32483 0.04815 0.0
C3105 C 0.55097 0.36267 0.07211 0.0
C3106 C 0.54786 0.37515 0.09422 0.0
C3107 C 0.55638 0.40073 0.10161 0.0
C3108 C 0.56798 0.41389 0.08574 0.0
C3109 C 0.57076 0.40144 0.06268 0.0
C3110 C 0.56228 0.37548 0.05599 0.0
H3111 H 0.05964 0.36839 0.38512 0.0
H3112 H 0.07304 0.30686 0.3369 0.0
H3113 H 0.03738 0.30019 0.31221 0.0
H3114 H 0.99793 0.34281 0.37931 0.0
H3115 H 0.99294 0.37278 0.37944 0.0
H3116 H 0.01785 0.37056 0.39578 0.0
H3117 H 0.0418 0.4007 0.37267 0.0
H3118 H 0.01707 0.40306 0.35623 0.0
H3119 H 0.03837 0.39355 0.34026 0.0
H3120 H 1.00263 0.30194 0.29103 0.0
H3121 H 0.97072 0.31367 0.27288 0.0
H3122 H 0.98013 0.37548 0.3329 0.0
C3123 C 0.05471 0.35325 0.36962 0.0
C3124 C 0.06883 0.33803 0.3628 0.0
C3125 C 0.06233 0.31871 0.34222 0.0
C3126 C 0.04208 0.31465 0.32824 0.0
C3127 C 0.02866 0.33024 0.33501 0.0
C3128 C 0.03464 0.34924 0.35511 0.0
C3129 C 0.01815 0.36484 0.35676 0.0
C3130 C 1.00599 0.3626 0.37915 0.0
C3131 C 0.02954 0.39215 0.35645 0.0
C3132 C 1.00264 0.35225 0.33389 0.0
C3133 C 1.00876 0.33195 0.32202 0.0
C3134 C 0.99756 0.31772 0.30012 0.0
C3135 C 0.97967 0.32458 0.28988 0.0
C3136 C 0.97352 0.34561 0.30142 0.0
C3137 C 0.9849 0.35948 0.32377 0.0
H3138 H 0.01228 0.68578 0.66457 0.0
H3139 H 0.96139 0.69106 0.61155 0.0
H3140 H 0.96648 0.65395 0.5848 0.0
H3141 H 0.0472 0.67859 0.62377 0.0
H3142 H 0.06051 0.6589 0.63763 0.0
H3143 H 0.04836 0.68016 0.65575 0.0
H3144 H 0.02334 0.6439 0.67183 0.0
H3145 H 0.03633 0.62291 0.65434 0.0
H3146 H 1.00648 0.617 0.65079 0.0
H3147 H 0.98199 0.62204 0.56138 0.0
H3148 H 1.00589 0.59747 0.54313 0.0
H3149 H 0.04946 0.61684 0.61029 0.0
C3150 C 1.00123 0.67831 0.64796 0.0
C3151 C 0.98604 0.69085 0.64033 0.0
C3152 C 0.97276 0.68131 0.61789 0.0
C3153 C 0.97562 0.66033 0.6026 0.0
C3154 C 0.99198 0.64952 0.61004 0.0
C3155 C 1.00454 0.6582 0.63225 0.0
C3156 C 0.02405 0.64714 0.63416 0.0
C3157 C 0.04632 0.6674 0.63805 0.0
C3158 C 0.02241 0.63181 0.65396 0.0
C3159 C 0.02057 0.63082 0.60956 0.0
C3160 C 1.0019 0.63227 0.59599 0.0
C3161 C 0.99644 0.62053 0.57199 0.0
C3162 C 0.01039 0.60693 0.56168 0.0
C3163 C 0.02972 0.60543 0.57521 0.0
C3164 C 0.03469 0.61736 0.59953 0.0
H3165 H 0.67727 0.80566 0.85158 0.0
H3166 H 0.68476 0.87978 0.83781 0.0
H3167 H 0.71326 0.8736 0.81072 0.0
H3168 H 0.73043 0.80433 0.857 0.0
H3169 H 0.72555 0.77253 0.84144 0.0
H3170 H 0.70382 0.78232 0.85585 0.0
H3171 H 0.67759 0.76747 0.81513 0.0
H3172 H 0.69951 0.75714 0.80157 0.0
H3173 H 0.68726 0.77819 0.78878 0.0
H3174 H 0.74401 0.86049 0.78976 0.0
H3175 H 0.77656 0.84446 0.78072 0.0
H3176 H 0.74896 0.78083 0.81148 0.0
C3177 C 0.68473 0.82044 0.84257 0.0
C3178 C 0.67916 0.84312 0.84662 0.0
C3179 C 0.68891 0.86214 0.83456 0.0
C3180 C 0.70492 0.85871 0.81911 0.0
C3181 C 0.71024 0.83594 0.81561 0.0
C3182 C 0.70032 0.8172 0.82704 0.0
C3183 C 0.70984 0.79525 0.8221 0.0
C3184 C 0.71791 0.78826 0.84549 0.0
C3185 C 0.69254 0.77323 0.80591 0.0
C3186 C 0.72872 0.80569 0.80866 0.0
C3187 C 0.72793 0.82854 0.80377 0.0
C3188 C 0.74462 0.84246 0.79302 0.0
C3189 C 0.76293 0.8332 0.78795 0.0
C3190 C 0.76461 0.81072 0.79449 0.0
C3191 C 0.74728 0.79689 0.80475 0.0
H3192 H 0.48318 0.60026 0.69841 0.0
H3193 H 0.51026 0.55126 0.73493 0.0
H3194 H 0.53253 0.54395 0.70187 0.0
H3195 H 0.47977 0.56766 0.6373 0.0
H3196 H 0.4897 0.59479 0.62463 0.0
H3197 H 0.47605 0.59719 0.65144 0.0
H3198 H 0.51006 0.63192 0.67356 0.0
H3199 H 0.52382 0.62957 0.64677 0.0
H3200 H 0.53715 0.62626 0.67462 0.0
H3201 H 0.55309 0.54123 0.66374 0.0
H3202 H 0.56803 0.5426 0.62474 0.0
H3203 H 0.52833 0.59191 0.60971 0.0
C3204 C 0.49384 0.58805 0.69962 0.0
C3205 C 0.49447 0.57651 0.72028 0.0
C3206 C 0.50907 0.56078 0.7202 0.0
C3207 C 0.52199 0.55636 0.70114 0.0
C3208 C 0.52099 0.56785 0.68138 0.0
C3209 C 0.50738 0.5836 0.68051 0.0
C3210 C 0.51003 0.59392 0.65713 0.0
C3211 C 0.48754 0.58803 0.64171 0.0
C3212 C 0.52089 0.62209 0.66338 0.0
C3213 C 0.52591 0.58028 0.64438 0.0
C3214 C 0.53251 0.56592 0.65921 0.0
C3215 C 0.54783 0.55245 0.65215 0.0
C3216 C 0.55642 0.55339 0.62972 0.0
C3217 C 0.5497 0.56722 0.61342 0.0
C3218 C 0.53401 0.58091 0.62124 0.0
H3219 H 0.80094 0.17853 0.95235 0.0
H3220 H 0.78149 0.22093 0.01451 0.0
H3221 H 0.77858 0.25323 0.99181 0.0
H3222 H 0.83183 0.23241 0.92805 0.0
H3223 H 0.82136 0.21712 0.8974 0.0
H3224 H 0.82552 0.19904 0.91953 0.0
H3225 H 0.78443 0.17301 0.90948 0.0
H3226 H 0.78024 0.19083 0.88725 0.0
H3227 H 0.76265 0.18869 0.91097 0.0
H3228 H 0.7728 0.27759 0.96208 0.0
H3229 H 0.76322 0.29239 0.92541 0.0
H3230 H 0.78653 0.23515 0.88224 0.0
C3231 C 0.7966 0.19494 0.9612 0.0
C3232 C 0.79151 0.19745 0.98501 0.0
C3233 C 0.78534 0.21874 0.99611 0.0
C3234 C 0.78388 0.23729 0.98352 0.0
C3235 C 0.78863 0.23418 0.9599 0.0
C3236 C 0.79476 0.21355 0.94873 0.0
C3237 C 0.79623 0.21341 0.92235 0.0
C3238 C 0.82017 0.21564 0.9165 0.0
C3239 C 0.77991 0.19011 0.9066 0.0
C3240 C 0.78921 0.2367 0.92039 0.0
C3241 C 0.78525 0.24858 0.94238 0.0
C3242 C 0.77629 0.2689 0.94481 0.0
C3243 C 0.7708 0.27707 0.92405 0.0
C3244 C 0.77442 0.26487 0.9015 0.0
C3245 C 0.78413 0.24488 0.89958 0.0
H3246 H 0.17327 0.52197 0.17701 0.0
H3247 H 0.18363 0.59778 0.21539 0.0
H3248 H 0.14973 0.60074 0.19234 0.0
H3249 H 0.15538 0.53448 0.11946 0.0
H3250 H 0.13619 0.50413 0.11013 0.0
H3251 H 0.16066 0.50838 0.13061 0.0
H3252 H 0.13535 0.48901 0.16041 0.0
H3253 H 0.11078 0.48594 0.14039 0.0
H3254 H 0.11396 0.50301 0.17086 0.0
H3255 H 0.11537 0.5955 0.16602 0.0
H3256 H 0.08757 0.58632 0.13042 0.0
H3257 H 0.10016 0.51455 0.10809 0.0
C3258 C 0.16841 0.53921 0.18019 0.0
C3259 C 0.18065 0.5597 0.19765 0.0
C3260 C 0.17424 0.58208 0.20171 0.0
C3261 C 0.15494 0.58376 0.18907 0.0
C3262 C 0.14263 0.5629 0.17248 0.0
C3263 C 0.14947 0.54137 0.16737 0.0
C3264 C 0.13447 0.52266 0.14694 0.0
C3265 C 0.14744 0.51711 0.12553 0.0
C3266 C 0.12296 0.49874 0.15516 0.0
C3267 C 0.11812 0.53707 0.14141 0.0
C3268 C 0.12283 0.56 0.15679 0.0
C3269 C 0.11122 0.5775 0.15406 0.0
C3270 C 0.09532 0.57205 0.13409 0.0
C3271 C 0.09159 0.54951 0.11735 0.0
C3272 C 0.1023 0.5314 0.12144 0.0
H3273 H 0.83639 0.82369 0.46608 0.0
H3274 H 0.82942 0.89836 0.46931 0.0
H3275 H 0.82643 0.89171 0.42502 0.0
H3276 H 0.86794 0.8204 0.41583 0.0
H3277 H 0.85347 0.78844 0.40299 0.0
H3278 H 0.85583 0.79972 0.43489 0.0
H3279 H 0.81286 0.78492 0.43282 0.0
H3280 H 0.81085 0.77403 0.40085 0.0
H3281 H 0.79585 0.79591 0.41267 0.0
H3282 H 0.8262 0.8778 0.38027 0.0
H3283 H 0.82225 0.85525 0.33815 0.0
H3284 H 0.8263 0.78846 0.36312 0.0
C3285 C 0.83411 0.83859 0.45744 0.0
C3286 C 0.83332 0.86166 0.47129 0.0
C3287 C 0.83007 0.88054 0.45921 0.0
C3288 C 0.82851 0.87699 0.43401 0.0
C3289 C 0.82984 0.85427 0.42093 0.0
C3290 C 0.83198 0.83514 0.43217 0.0
C3291 C 0.83168 0.81207 0.41375 0.0
C3292 C 0.85355 0.80475 0.41706 0.0
C3293 C 0.81161 0.79046 0.4151 0.0
C3294 C 0.82934 0.82132 0.39044 0.0
C3295 C 0.82868 0.84587 0.39505 0.0
C3296 C 0.8267 0.85858 0.37648 0.0
C3297 C 0.82469 0.84572 0.35261 0.0
C3298 C 0.82453 0.82033 0.34741 0.0
C3299 C 0.8269 0.80803 0.36663 0.0
H3300 H 0.4841 0.53342 0.86938 0.0
H3301 H 0.53399 0.59628 0.85637 0.0
H3302 H 0.55579 0.59848 0.89519 0.0
H3303 H 0.48612 0.55719 0.93348 0.0
H3304 H 0.48179 0.5272 0.94166 0.0
H3305 H 0.47102 0.52951 0.91222 0.0
H3306 H 0.49246 0.49896 0.8924 0.0
H3307 H 0.50233 0.49629 0.92201 0.0
H3308 H 0.52187 0.5053 0.9013 0.0
H3309 H 0.57392 0.59206 0.93673 0.0
H3310 H 0.58246 0.58244 0.97667 0.0
H3311 H 0.51862 0.52803 0.96647 0.0
C3312 C 0.49968 0.54761 0.87458 0.0
C3313 C 0.50722 0.5645 0.85897 0.0
C3314 C 0.52763 0.58292 0.86732 0.0
C3315 C 0.54028 0.58425 0.88959 0.0
C3316 C 0.53249 0.56734 0.90439 0.0
C3317 C 0.51233 0.54964 0.89731 0.0
C3318 C 0.507 0.5346 0.91718 0.0
C3319 C 0.48518 0.53729 0.9267 0.0
C3320 C 0.50585 0.50716 0.90765 0.0
C3321 C 0.52697 0.54663 0.93665 0.0
C3322 C 0.54188 0.56501 0.92859 0.0
C3323 C 0.56209 0.57775 0.94295 0.0
C3324 C 0.56698 0.57197 0.96581 0.0
C3325 C 0.55172 0.55392 0.97519 0.0
C3326 C 0.5312 0.54145 0.96009 0.0
H3327 H 0.81001 0.17768 0.12381 0.0
H3328 H 0.79649 0.22015 0.07096 0.0
H3329 H 0.79648 0.25545 0.10382 0.0
H3330 H 0.77812 0.2017 0.16932 0.0
H3331 H 0.79831 0.20143 0.19329 0.0
H3332 H 0.79373 0.17881 0.16569 0.0
H3333 H 0.83578 0.19246 0.161 0.0
H3334 H 0.84045 0.21501 0.18851 0.0
H3335 H 0.84881 0.22471 0.16129 0.0
H3336 H 0.79743 0.28567 0.14434 0.0
H3337 H 0.80495 0.30887 0.18704 0.0
H3338 H 0.82503 0.24745 0.20821 0.0
C3339 C 0.8068 0.19429 0.11913 0.0
C3340 C 0.80322 0.19648 0.09525 0.0
C3341 C 0.7994 0.2185 0.08951 0.0
C3342 C 0.7991 0.23838 0.10792 0.0
C3343 C 0.8029 0.23565 0.13156 0.0
C3344 C 0.80695 0.21417 0.13699 0.0
C3345 C 0.81285 0.21621 0.16327 0.0
C3346 C 0.79467 0.19849 0.17348 0.0
C3347 C 0.83584 0.21187 0.1688 0.0
C3348 C 0.81287 0.24271 0.17175 0.0
C3349 C 0.80594 0.25347 0.15374 0.0
C3350 C 0.80318 0.2775 0.15851 0.0
C3351 C 0.80759 0.29053 0.18252 0.0
C3352 C 0.81565 0.27962 0.20052 0.0
C3353 C 0.81877 0.25594 0.19485 0.0
H3354 H 0.18573 0.59363 0.32482 0.0
H3355 H 0.17678 0.51497 0.32233 0.0
H3356 H 0.15736 0.51821 0.35886 0.0
H3357 H 0.19071 0.61262 0.39364 0.0
H3358 H 0.17625 0.63598 0.391 0.0
H3359 H 0.1942 0.6287 0.36897 0.0
H3360 H 0.1617 0.62002 0.33519 0.0
H3361 H 0.14358 0.62681 0.35694 0.0
H3362 H 0.13607 0.59725 0.33628 0.0
H3363 H 0.13216 0.528 0.38843 0.0
H3364 H 0.105 0.54392 0.41137 0.0
H3365 H 0.1311 0.61671 0.3949 0.0
C3366 C 0.18022 0.57727 0.33247 0.0
C3367 C 0.18234 0.55401 0.32102 0.0
C3368 C 0.17519 0.53289 0.33117 0.0
C3369 C 0.16431 0.53465 0.35187 0.0
C3370 C 0.16147 0.55776 0.36215 0.0
C3371 C 0.16971 0.57886 0.3531 0.0
C3372 C 0.16227 0.60078 0.36544 0.0
C3373 C 0.18203 0.62069 0.38068 0.0
C3374 C 0.15018 0.61182 0.34737 0.0
C3375 C 0.1466 0.58808 0.38108 0.0
C3376 C 0.14694 0.56352 0.37953 0.0
C3377 C 0.1322 0.54734 0.39036 0.0
C3378 C 0.11673 0.55647 0.4031 0.0
C3379 C 0.11605 0.58149 0.4047 0.0
C3380 C 0.13129 0.59751 0.39377 0.0
H3381 H 0.81928 0.83354 0.59922 0.0
H3382 H 0.83125 0.91274 0.62742 0.0
H3383 H 0.82256 0.90436 0.66669 0.0
H3384 H 0.77301 0.81429 0.63524 0.0
H3385 H 0.78087 0.78712 0.64079 0.0
H3386 H 0.78691 0.7983 0.61358 0.0
H3387 H 0.82855 0.80114 0.62352 0.0
H3388 H 0.82255 0.78966 0.65053 0.0
H3389 H 0.84307 0.81873 0.65219 0.0
H3390 H 0.81387 0.88915 0.70326 0.0
H3391 H 0.80825 0.86723 0.73679 0.0
H3392 H 0.80214 0.79725 0.68781 0.0
C3393 C 0.81997 0.84904 0.61365 0.0
C3394 C 0.82585 0.87387 0.60981 0.0
C3395 C 0.82661 0.89354 0.62941 0.0
C3396 C 0.82164 0.88903 0.652 0.0
C3397 C 0.81574 0.86464 0.65516 0.0
C3398 C 0.81491 0.84485 0.63673 0.0
C3399 C 0.80864 0.82056 0.64587 0.0
C3400 C 0.78601 0.80409 0.6331 0.0
C3401 C 0.8268 0.80671 0.64285 0.0
C3402 C 0.8071 0.83013 0.67236 0.0
C3403 C 0.81081 0.85562 0.67697 0.0
C3404 C 0.81083 0.86914 0.6999 0.0
C3405 C 0.80759 0.85647 0.71889 0.0
C3406 C 0.80453 0.83043 0.71511 0.0
C3407 C 0.80385 0.81703 0.69132 0.0
H3408 H 0.78982 0.48917 0.56222 0.0
H3409 H 0.79072 0.49912 0.48867 0.0
H3410 H 0.75665 0.51398 0.4914 0.0
H3411 H 0.72639 0.4735 0.5626 0.0
H3412 H 0.7302 0.4904 0.59319 0.0
H3413 H 0.75002 0.4739 0.5828 0.0
H3414 H 0.78149 0.51458 0.59682 0.0
H3415 H 0.76191 0.53148 0.60643 0.0
H3416 H 0.78013 0.54169 0.58493 0.0
H3417 H 0.72889 0.53665 0.50555 0.0
H3418 H 0.70717 0.56168 0.52838 0.0
H3419 H 0.72535 0.5371 0.59301 0.0
C3420 C 0.78218 0.4935 0.54642 0.0
C3421 C 0.79247 0.49318 0.5253 0.0
C3422 C 0.78265 0.49917 0.5049 0.0
C3423 C 0.7634 0.50755 0.50635 0.0
C3424 C 0.75435 0.50926 0.52816 0.0
C3425 C 0.76314 0.50176 0.54766 0.0
C3426 C 0.75264 0.50862 0.57005 0.0
C3427 C 0.73899 0.48521 0.57759 0.0
C3428 C 0.77009 0.52507 0.59074 0.0
C3429 C 0.73783 0.52296 0.56071 0.0
C3430 C 0.73855 0.52262 0.53641 0.0
C3431 C 0.72774 0.53649 0.5244 0.0
C3432 C 0.71568 0.55081 0.53754 0.0
C3433 C 0.71482 0.55132 0.56243 0.0
C3434 C 0.72595 0.53715 0.57405 0.0
H3435 H 0.22637 0.16647 0.49371 0.0
H3436 H 0.26562 0.12633 0.52871 0.0
H3437 H 0.23145 0.09655 0.53429 0.0
H3438 H 0.18371 0.16142 0.53018 0.0
H3439 H 0.16113 0.15569 0.50665 0.0
H3440 H 0.18859 0.17287 0.50289 0.0
H3441 H 0.18781 0.14186 0.46341 0.0
H3442 H 0.16019 0.12473 0.46689 0.0
H3443 H 0.1819 0.10911 0.4635 0.0
H3444 H 0.19398 0.07299 0.53917 0.0
H3445 H 0.15428 0.0554 0.54157 0.0
H3446 H 0.13785 0.10986 0.50378 0.0
C3447 C 0.22776 0.15115 0.50215 0.0
C3448 C 0.24882 0.14886 0.51078 0.0
C3449 C 0.24983 0.12858 0.52184 0.0
C3450 C 0.23047 0.11149 0.52514 0.0
C3451 C 0.21008 0.1146 0.51702 0.0
C3452 C 0.20846 0.13364 0.50544 0.0
C3453 C 0.18422 0.13276 0.49902 0.0
C3454 C 0.17912 0.15713 0.51038 0.0
C3455 C 0.17817 0.12676 0.47158 0.0
C3456 C 0.17267 0.11121 0.51014 0.0
C3457 C 0.18802 0.10078 0.51994 0.0
C3458 C 0.18175 0.08077 0.53133 0.0
C3459 C 0.15915 0.07091 0.5326 0.0
C3460 C 0.143 0.08118 0.5228 0.0
C3461 C 0.14988 0.10171 0.5115 0.0
H3462 H 0.23765 0.94941 0.78768 0.0
H3463 H 0.24582 0.95723 0.71431 0.0
H3464 H 0.26588 0.92453 0.70997 0.0
H3465 H 0.29301 0.93872 0.80066 0.0
H3466 H 0.28354 0.9169 0.81963 0.0
H3467 H 0.26974 0.94087 0.8171 0.0
H3468 H 0.23226 0.9075 0.80413 0.0
H3469 H 0.246 0.88353 0.80673 0.0
H3470 H 0.2299 0.88247 0.77887 0.0
H3471 H 0.28658 0.88869 0.7137 0.0
H3472 H 0.30276 0.85575 0.72482 0.0
H3473 H 0.2821 0.87031 0.79569 0.0
C3474 C 0.24355 0.9443 0.7706 0.0
C3475 C 0.23958 0.95671 0.75128 0.0
C3476 C 0.2482 0.94879 0.72958 0.0
C3477 C 0.25982 0.92989 0.72691 0.0
C3478 C 0.2635 0.9183 0.74614 0.0
C3479 C 0.25558 0.92538 0.76768 0.0
C3480 C 0.26211 0.91027 0.78574 0.0
C3481 C 0.27803 0.92773 0.80706 0.0
C3482 C 0.24132 0.89504 0.79438 0.0
C3483 C 0.27415 0.89309 0.77099 0.0
C3484 C 0.2751 0.89823 0.7482 0.0
C3485 C 0.28572 0.88485 0.7316 0.0
C3486 C 0.29514 0.86596 0.73815 0.0
C3487 C 0.29427 0.85982 0.76132 0.0
C3488 C 0.28345 0.87407 0.77779 0.0
H3489 H 0.40788 0.97592 0.9934 0.0
H3490 H 0.39923 1.01526 0.06299 0.0
H3491 H 0.43991 0.03452 0.07126 0.0
H3492 H 0.45575 0.96047 1.00791 0.0
H3493 H 0.46842 0.96683 0.9814 0.0
H3494 H 0.43869 0.95839 0.98033 0.0
H3495 H 0.43645 0.9995 0.9664 0.0
H3496 H 0.4659 1.00559 0.96603 0.0
H3497 H 0.45456 0.02862 0.98282 0.0
H3498 H 0.48126 0.04688 0.07245 0.0
H3499 H 0.52069 0.05128 0.06704 0.0
H3500 H 0.50156 1.0021 0.99724 0.0
C3501 C 0.41465 0.98892 0.01017 0.0
C3502 C 0.40092 0.99449 0.02756 0.0
C3503 C 0.40986 1.01136 0.04942 0.0
C3504 C 0.43278 0.02225 0.05422 0.0
C3505 C 0.44605 1.01628 0.03666 0.0
C3506 C 0.43728 1.00019 0.01503 0.0
C3507 C 0.45499 0.99651 0.99934 0.0
C3508 C 0.45442 0.9689 0.99185 0.0
C3509 C 0.45281 1.00833 0.97736 0.0
C3510 C 0.47537 1.01109 0.01635 0.0
C3511 C 0.46982 0.02315 0.03743 0.0
C3512 C 0.4858 0.03775 0.05593 0.0
C3513 C 0.50806 0.04002 0.05274 0.0
C3514 C 0.51396 0.02724 0.03154 0.0
C3515 C 0.49748 1.01255 0.01321 0.0
H3516 H 0.90322 0.63643 0.82532 0.0
H3517 H 0.85026 0.57519 0.83625 0.0
H3518 H 0.82287 0.59123 0.81559 0.0
H3519 H 0.86658 0.68407 0.82535 0.0
H3520 H 0.88162 0.69646 0.80243 0.0
H3521 H 0.89573 0.68578 0.82546 0.0
H3522 H 0.90873 0.65711 0.79219 0.0
H3523 H 0.89383 0.66657 0.76908 0.0
H3524 H 0.88832 0.6341 0.77037 0.0
H3525 H 0.80414 0.60421 0.78324 0.0
H3526 H 0.79241 0.62159 0.7491 0.0
H3527 H 0.85686 0.67508 0.75907 0.0
C3528 C 0.8857 0.6276 0.82496 0.0
C3529 C 0.87865 0.60474 0.83227 0.0
C3530 C 0.85577 0.5929 0.83082 0.0
C3531 C 0.84013 0.6018 0.81899 0.0
C3532 C 0.84776 0.62279 0.80934 0.0
C3533 C 0.86988 0.6363 0.81305 0.0
C3534 C 0.87413 0.65597 0.79781 0.0
C3535 C 0.87983 0.68212 0.81371 0.0
C3536 C 0.89231 0.65323 0.78141 0.0
C3537 C 0.85155 0.64968 0.7834 0.0
C3538 C 0.83654 0.63071 0.79053 0.0
C3539 C 0.81542 0.61971 0.77803 0.0
C3540 C 0.80907 0.62922 0.75843 0.0
C3541 C 0.82388 0.64933 0.75167 0.0
C3542 C 0.84539 0.65957 0.7641 0.0
H3543 H 0.87743 0.68239 0.06007 0.0
H3544 H 0.85645 0.64722 0.98531 0.0
H3545 H 0.88658 0.62591 0.98592 0.0
H3546 H 0.93896 0.68984 0.05531 0.0
H3547 H 0.94368 0.68488 0.08542 0.0
H3548 H 0.92253 0.69975 0.07792 0.0
H3549 H 0.89337 0.66679 0.09341 0.0
H3550 H 0.91432 0.65175 0.10071 0.0
H3551 H 0.88951 0.63426 0.081 0.0
H3552 H 0.91567 0.6045 0.99645 0.0
H3553 H 0.94222 0.58567 0.01549 0.0
H3554 H 0.94505 0.63611 0.0831 0.0
C3555 C 0.87964 0.67069 0.0437 0.0
C3556 C 0.8649 0.66643 0.02258 0.0
C3557 C 0.86791 0.65089 1.0015 0.0
C3558 C 0.88492 0.63875 1.00173 0.0
C3559 C 0.89902 0.64295 0.02303 0.0
C3560 C 0.89685 0.65898 0.0435 0.0
C3561 C 0.91352 0.6595 0.06433 0.0
C3562 C 0.93069 0.685 0.07115 0.0
C3563 C 0.90197 0.65264 0.08613 0.0
C3564 C 0.92408 0.63968 0.053 0.0
C3565 C 0.91594 0.63084 0.02899 0.0
C3566 C 0.92247 0.61162 0.01508 0.0
C3567 C 0.93755 0.60105 0.02603 0.0
C3568 C 0.94566 0.60947 0.05071 0.0
C3569 C 0.93905 0.62928 0.0642 0.0
H3570 H 0.22474 0.12104 0.80494 0.0
H3571 H 0.25786 0.08164 0.75314 0.0
H3572 H 0.28147 0.12168 0.74766 0.0
H3573 H 0.22388 0.1719 0.77594 0.0
H3574 H 0.23002 0.19544 0.80307 0.0
H3575 H 0.21621 0.16375 0.804 0.0
H3576 H 0.24681 0.1635 0.83678 0.0
H3577 H 0.2607 0.19526 0.83604 0.0
H3578 H 0.27548 0.17165 0.83128 0.0
H3579 H 0.30197 0.16693 0.74718 0.0
H3580 H 0.31666 0.21232 0.7514 0.0
H3581 H 0.27042 0.22433 0.80252 0.0
C3582 C 0.23716 0.12072 0.79267 0.0
C3583 C 0.23927 0.09747 0.77972 0.0
C3584 C 0.25577 0.0986 0.76367 0.0
C3585 C 0.26934 0.12151 0.76031 0.0
C3586 C 0.26671 0.14384 0.77314 0.0
C3587 C 0.25109 0.14367 0.78914 0.0
C3588 C 0.25176 0.1705 0.80065 0.0
C3589 C 0.22911 0.1757 0.7956 0.0
C3590 C 0.25911 0.17553 0.8278 0.0
C3591 C 0.26952 0.18577 0.78799 0.0
C3592 C 0.2782 0.16989 0.77252 0.0
C3593 C 0.29524 0.17936 0.75934 0.0
C3594 C 0.30365 0.2054 0.76198 0.0
C3595 C 0.29506 0.22241 0.77741 0.0
C3596 C 0.27749 0.21214 0.79047 0.0
H3597 H 0.39183 0.99455 0.29228 0.0
H3598 H 0.43035 0.9847 0.35429 0.0
H3599 H 0.41123 0.93949 0.34496 0.0
H3600 H 0.34017 0.95038 0.29596 0.0
H3601 H 0.33418 0.93963 0.26385 0.0
H3602 H 0.35026 0.97104 0.27606 0.0
H3603 H 0.38203 0.96381 0.25106 0.0
H3604 H 0.36604 0.93234 0.23886 0.0
H3605 H 0.39365 0.93829 0.25402 0.0
H3606 H 0.39217 0.89583 0.32553 0.0
H3607 H 0.36862 0.85607 0.30198 0.0
H3608 H 0.34009 0.89499 0.25452 0.0
C3609 C 0.3959 0.98279 0.30403 0.0
C3610 C 0.4122 0.9925 0.324 0.0
C3611 C 0.41771 0.97709 0.33897 0.0
C3612 C 0.40704 0.95163 0.33376 0.0
C3613 C 0.39122 0.94242 0.31356 0.0
C3614 C 0.38547 0.95753 0.29908 0.0
C3615 C 0.36843 0.94295 0.2781 0.0
C3616 C 0.34698 0.95151 0.27855 0.0
C3617 C 0.37811 0.94445 0.2541 0.0
C3618 C 0.36496 0.91727 0.28342 0.0
C3619 C 0.37879 0.91734 0.30352 0.0
C3620 C 0.38057 0.89559 0.31042 0.0
C3621 C 0.36704 0.8732 0.29709 0.0
C3622 C 0.35162 0.87293 0.27763 0.0
C3623 C 0.351 0.89506 0.27017 0.0
H3624 H 0.62188 0.39226 0.55487 0.0
H3625 H 0.60169 0.39888 0.62652 0.0
H3626 H 0.59007 0.43643 0.62167 0.0
H3627 H 0.64255 0.45785 0.55532 0.0
H3628 H 0.63172 0.45575 0.52463 0.0
H3629 H 0.63864 0.42939 0.53359 0.0
H3630 H 0.59873 0.40231 0.51764 0.0
H3631 H 0.59174 0.42868 0.50871 0.0
H3632 H 0.57537 0.41223 0.52851 0.0
H3633 H 0.58254 0.47591 0.60995 0.0
H3634 H 0.57802 0.5111 0.59159 0.0
H3635 H 0.59964 0.4782 0.52611 0.0
C3636 C 0.61501 0.40157 0.56956 0.0
C3637 C 0.61293 0.3922 0.59127 0.0
C3638 C 0.60357 0.40522 0.60974 0.0
C3639 C 0.59689 0.42679 0.60714 0.0
C3640 C 0.59913 0.43548 0.58568 0.0
C3641 C 0.60774 0.42308 0.56706 0.0
C3642 C 0.60783 0.43615 0.54565 0.0
C3643 C 0.6316 0.44533 0.53944 0.0
C3644 C 0.59251 0.4188 0.52383 0.0
C3645 C 0.59846 0.45801 0.5553 0.0
C3646 C 0.59358 0.45728 0.57849 0.0
C3647 C 0.5858 0.47615 0.59157 0.0
C3648 C 0.58295 0.49606 0.58084 0.0
C3649 C 0.58714 0.49706 0.55681 0.0
C3650 C 0.59531 0.47768 0.54413 0.0
H3651 H 0.4642 0.82595 0.38631 0.0
H3652 H 0.46278 0.74921 0.35889 0.0
H3653 H 0.42741 0.74355 0.33356 0.0
H3654 H 0.40369 0.81234 0.38932 0.0
H3655 H 0.40136 0.8411 0.38149 0.0
H3656 H 0.42689 0.83963 0.39714 0.0
H3657 H 0.44858 0.85591 0.36365 0.0
H3658 H 0.42312 0.85746 0.34796 0.0
H3659 H 0.44023 0.83978 0.33286 0.0
H3660 H 0.39293 0.74648 0.30972 0.0
H3661 H 0.36075 0.75685 0.29081 0.0
H3662 H 0.38178 0.83099 0.33508 0.0
C3663 C 0.45643 0.80799 0.37489 0.0
C3664 C 0.46651 0.78801 0.37443 0.0
C3665 C 0.45552 0.76474 0.35958 0.0
C3666 C 0.43538 0.76138 0.34508 0.0
C3667 C 0.42585 0.78129 0.34596 0.0
C3668 C 0.4358 0.80408 0.36075 0.0
C3669 C 0.42135 0.82199 0.35896 0.0
C3670 C 0.41282 0.8292 0.38317 0.0
C3671 C 0.43409 0.84515 0.35033 0.0
C3672 C 0.40224 0.80604 0.34015 0.0
C3673 C 0.40526 0.7826 0.33301 0.0
C3674 C 0.39035 0.7647 0.31539 0.0
C3675 C 0.37205 0.77081 0.30467 0.0
C3676 C 0.3684 0.79465 0.31144 0.0
C3677 C 0.38371 0.81242 0.32974 0.0
H3678 H 0.09688 0.74404 0.12175 0.0
H3679 H 0.10272 0.75702 0.04939 0.0
H3680 H 0.0992 0.71197 0.035 0.0
H3681 H 0.12902 0.69785 0.11716 0.0
H3682 H 0.11246 0.68022 0.13602 0.0
H3683 H 0.11608 0.7133 0.14026 0.0
H3684 H 0.07333 0.70622 0.13501 0.0
H3685 H 0.06965 0.6732 0.13085 0.0
H3686 H 0.0571 0.68591 0.10832 0.0
H3687 H 0.09419 0.66386 0.02888 0.0
H3688 H 0.08678 0.61956 0.03145 0.0
H3689 H 0.08419 0.63865 0.10787 0.0
C3690 C 0.09735 0.73756 0.10278 0.0
C3691 C 0.09986 0.75438 0.08669 0.0
C3692 C 0.10076 0.74478 0.06214 0.0
C3693 C 0.09882 0.71912 0.05384 0.0
C3694 C 0.09635 0.70318 0.07032 0.0
C3695 C 0.09576 0.71223 0.09434 0.0
C3696 C 0.09307 0.69158 0.10864 0.0
C3697 C 0.11389 0.69602 0.12659 0.0
C3698 C 0.07203 0.68909 0.12145 0.0
C3699 C 0.09104 0.66909 0.08883 0.0
C3700 C 0.09347 0.67614 0.06689 0.0
C3701 C 0.09227 0.65841 0.04606 0.0
C3702 C 0.08804 0.6331 0.04764 0.0
C3703 C 0.08486 0.62528 0.06975 0.0
C3704 C 0.08665 0.64381 0.09063 0.0
H3705 H 0.10929 0.27759 0.90527 0.0
H3706 H 0.06172 0.25918 0.8414 0.0
H3707 H 0.09246 0.2639 0.81613 0.0
H3708 H 0.15183 0.32275 0.88825 0.0
H3709 H 0.17459 0.31238 0.90005 0.0
H3710 H 0.14886 0.30673 0.91303 0.0
H3711 H 0.14646 0.25973 0.90551 0.0
H3712 H 0.17209 0.26528 0.89217 0.0
H3713 H 0.14739 0.24347 0.87556 0.0
H3714 H 0.12819 0.27282 0.79779 0.0
H3715 H 0.16661 0.28697 0.78793 0.0
H3716 H 0.19174 0.29823 0.86297 0.0
C3717 C 0.10544 0.2746 0.88596 0.0
C3718 C 0.08308 0.2682 0.87526 0.0
C3719 C 0.07867 0.26403 0.84994 0.0
C3720 C 0.09604 0.2666 0.83544 0.0
C3721 C 0.11786 0.27269 0.8464 0.0
C3722 C 0.12267 0.27642 0.87108 0.0
C3723 C 0.14767 0.28261 0.87811 0.0
C3724 C 0.15623 0.30762 0.8959 0.0
C3725 C 0.15376 0.26153 0.88846 0.0
C3726 C 0.15613 0.28376 0.85378 0.0
C3727 C 0.13859 0.27722 0.83567 0.0
C3728 C 0.14206 0.27757 0.81176 0.0
C3729 C 0.16393 0.28542 0.80626 0.0
C3730 C 0.18212 0.293 0.82454 0.0
C3731 C 0.17815 0.29181 0.84857 0.0
H3732 H 0.63389 0.79983 0.97061 0.0
H3733 H 0.60918 0.75456 0.89973 0.0
H3734 H 0.59466 0.71798 0.91808 0.0
H3735 H 0.64974 0.75429 0.99915 0.0
H3736 H 0.63978 0.76432 0.02716 0.0
H3737 H 0.64924 0.78623 1.00828 0.0
H3738 H 0.61145 0.79728 1.00745 0.0
H3739 H 0.60189 0.7755 0.02642 0.0
H3740 H 0.58612 0.77283 0.99792 0.0
H3741 H 0.58291 0.6868 0.94458 0.0
H3742 H 0.57224 0.66389 0.97683 0.0
H3743 H 0.60337 0.73064 0.0304 0.0
C3744 C 0.62559 0.78211 0.95901 0.0
C3745 C 0.6228 0.77965 0.93387 0.0
C3746 C 0.61143 0.75654 0.91908 0.0
C3747 C 0.60325 0.73577 0.92933 0.0
C3748 C 0.60622 0.73881 0.95432 0.0
C3749 C 0.61683 0.76151 0.96895 0.0
C3750 C 0.61653 0.7604 0.99526 0.0
C3751 C 0.64023 0.76667 1.00822 0.0
C3752 C 0.60321 0.77752 1.00748 0.0
C3753 C 0.60449 0.73337 0.99326 0.0
C3754 C 0.59875 0.7212 0.96952 0.0
C3755 C 0.58731 0.69615 0.96322 0.0
C3756 C 0.58143 0.68328 0.98169 0.0
C3757 C 0.58698 0.69549 1.00617 0.0
C3758 C 0.5987 0.72086 0.0119 0.0
H3759 H 0.08568 0.79444 0.71682 0.0
H3760 H 0.07262 0.74138 0.64908 0.0
H3761 H 0.10917 0.7335 0.65655 0.0
H3762 H 0.14737 0.81782 0.71284 0.0
H3763 H 0.15398 0.82209 0.74489 0.0
H3764 H 0.1281 0.82624 0.73269 0.0
H3765 H 0.10653 0.79397 0.75549 0.0
H3766 H 0.13222 0.78957 0.7676 0.0
H3767 H 0.11079 0.76326 0.75092 0.0
H3768 H 0.14432 0.72709 0.67351 0.0
H3769 H 0.17735 0.72436 0.69841 0.0
H3770 H 0.16827 0.78195 0.75473 0.0
C3771 C 0.09083 0.78168 0.70332 0.0
C3772 C 0.07649 0.76865 0.68233 0.0
C3773 C 0.08357 0.75188 0.6651 0.0
C3774 C 0.10427 0.74723 0.66919 0.0
C3775 C 0.11785 0.75993 0.69031 0.0
C3776 C 0.11166 0.77718 0.7069 0.0
C3777 C 0.12899 0.78737 0.72865 0.0
C3778 C 0.14028 0.81502 0.72984 0.0
C3779 C 0.11902 0.78327 0.75203 0.0
C3780 C 0.14487 0.7716 0.72258 0.0
C3781 C 0.13841 0.75635 0.7001 0.0
C3782 C 0.1498 0.73923 0.69095 0.0
C3783 C 0.16836 0.73766 0.70517 0.0
C3784 C 0.17498 0.75288 0.72827 0.0
C3785 C 0.1633 0.77018 0.73704 0.0
H3786 H 0.10019 0.41408 0.43868 0.0
H3787 H 0.17059 0.43182 0.46247 0.0
H3788 H 0.16908 0.47311 0.48507 0.0
H3789 H 0.09663 0.47697 0.43313 0.0
H3790 H 0.07001 0.472 0.44443 0.0
H3791 H 0.07796 0.44617 0.42762 0.0
H3792 H 0.07076 0.42308 0.46298 0.0
H3793 H 0.06328 0.449 0.48008 0.0
H3794 H 0.08518 0.43774 0.49248 0.0
H3795 H 0.1575 0.50823 0.51086 0.0
H3796 H 0.13836 0.53715 0.53273 0.0
H3797 H 0.07628 0.49614 0.48918 0.0
C3798 C 0.11542 0.42704 0.44807 0.0
C3799 C 0.1355 0.42028 0.44902 0.0
C3800 C 0.15516 0.43717 0.46155 0.0
C3801 C 0.15437 0.46044 0.4744 0.0
C3802 C 0.1339 0.46616 0.47396 0.0
C3803 C 0.1149 0.45006 0.46064 0.0
C3804 C 0.09457 0.45922 0.46447 0.0
C3805 C 0.0842 0.46388 0.44101 0.0
C3806 C 0.07746 0.44119 0.47567 0.0
C3807 C 0.10496 0.48309 0.48211 0.0
C3808 C 0.12757 0.48672 0.48775 0.0
C3809 C 0.14 0.50603 0.50597 0.0
C3810 C 0.12902 0.52222 0.51832 0.0
C3811 C 0.10611 0.51919 0.51182 0.0
C3812 C 0.09401 0.49939 0.49365 0.0
H3813 H 0.43728 0.24783 0.19268 0.0
H3814 H 0.48273 0.28954 0.25563 0.0
H3815 H 0.45108 0.29809 0.27632 0.0
H3816 H 0.39724 0.28364 0.19506 0.0
H3817 H 0.37334 0.25707 0.18725 0.0
H3818 H 0.39936 0.25536 0.17641 0.0
H3819 H 0.39923 0.21703 0.19501 0.0
H3820 H 0.373 0.21794 0.20578 0.0
H3821 H 0.39634 0.21859 0.22648 0.0
H3822 H 0.41455 0.29581 0.29209 0.0
H3823 H 0.3751 0.28945 0.29945 0.0
H3824 H 0.354 0.25262 0.22525 0.0
C3825 C 0.44047 0.25929 0.21059 0.0
C3826 C 0.46212 0.26841 0.22271 0.0
C3827 C 0.46602 0.28262 0.24631 0.0
C3828 C 0.44826 0.28746 0.25811 0.0
C3829 C 0.4269 0.27748 0.24603 0.0
C3830 C 0.42291 0.26384 0.22274 0.0
C3831 C 0.39833 0.25376 0.21446 0.0
C3832 C 0.39167 0.26304 0.19198 0.0
C3833 C 0.39133 0.22515 0.21017 0.0
C3834 C 0.38921 0.26483 0.23633 0.0
C3835 C 0.40589 0.2777 0.25465 0.0
C3836 C 0.40135 0.28671 0.27762 0.0
C3837 C 0.37907 0.28331 0.28162 0.0
C3838 C 0.36208 0.27236 0.26242 0.0
C3839 C 0.36705 0.26222 0.2398 0.0
H3840 H 0.62535 0.50871 0.35544 0.0
H3841 H 0.66678 0.58434 0.36645 0.0
H3842 H 0.65599 0.5928 0.40726 0.0
H3843 H 0.57984 0.52533 0.38742 0.0
H3844 H 0.5734 0.49838 0.40101 0.0
H3845 H 0.58505 0.49673 0.37286 0.0
H3846 H 0.61699 0.48196 0.3912 0.0
H3847 H 0.60541 0.48354 0.41939 0.0
H3848 H 0.63374 0.50036 0.41842 0.0
H3849 H 0.64453 0.59236 0.44915 0.0
H3850 H 0.62798 0.58674 0.48573 0.0
H3851 H 0.58579 0.51472 0.44936 0.0
C3852 C 0.63221 0.52707 0.36643 0.0
C3853 C 0.64752 0.54582 0.357 0.0
C3854 C 0.65538 0.56951 0.3725 0.0
C3855 C 0.6493 0.57451 0.39606 0.0
C3856 C 0.63448 0.55598 0.4047 0.0
C3857 C 0.62551 0.53281 0.39025 0.0
C3858 C 0.60887 0.51702 0.40425 0.0
C3859 C 0.58539 0.50887 0.39056 0.0
C3860 C 0.6167 0.49436 0.40856 0.0
C3861 C 0.60976 0.53503 0.42851 0.0
C3862 C 0.6254 0.55702 0.42826 0.0
C3863 C 0.63155 0.57563 0.44895 0.0
C3864 C 0.62148 0.5723 0.47004 0.0
C3865 C 0.60388 0.55114 0.47121 0.0
C3866 C 0.59822 0.5319 0.44959 0.0
H3867 H 0.31849 0.88655 0.06091 0.0
H3868 H 0.33011 0.96175 0.10175 0.0
H3869 H 0.34014 0.94792 0.13857 0.0
H3870 H 0.29885 0.85351 0.11151 0.0
H3871 H 0.31283 0.82998 0.10164 0.0
H3872 H 0.30115 0.84442 0.08002 0.0
H3873 H 0.33947 0.85645 0.06445 0.0
H3874 H 0.3515 0.84274 0.08631 0.0
H3875 H 0.36333 0.87487 0.08514 0.0
H3876 H 0.35621 0.9284 0.1686 0.0
H3877 H 0.37414 0.90307 0.19072 0.0
H3878 H 0.35292 0.84114 0.13017 0.0
C3879 C 0.32215 0.89987 0.07778 0.0
C3880 C 0.32354 0.92517 0.07849 0.0
C3881 C 0.32878 0.94219 0.10082 0.0
C3882 C 0.33454 0.93453 0.12185 0.0
C3883 C 0.33453 0.90976 0.12024 0.0
C3884 C 0.32801 0.89254 0.09887 0.0
C3885 C 0.33204 0.86783 0.10124 0.0
C3886 C 0.3099 0.84775 0.09845 0.0
C3887 C 0.34751 0.86006 0.08323 0.0
C3888 C 0.34319 0.87436 0.12679 0.0
C3889 C 0.34406 0.89847 0.13763 0.0
C3890 C 0.35514 0.90931 0.16058 0.0
C3891 C 0.36539 0.89499 0.1729 0.0
C3892 C 0.36469 0.87045 0.16193 0.0
C3893 C 0.35341 0.85993 0.13877 0.0
H3894 H 0.97205 0.54608 0.89397 0.0
H3895 H 0.99719 0.62467 0.89502 0.0
H3896 H 0.02118 0.62954 0.93305 0.0
H3897 H 0.97487 0.55061 0.96154 0.0
H3898 H 0.98346 0.5223 0.95908 0.0
H3899 H 0.96506 0.52626 0.93519 0.0
H3900 H 0.99253 0.51675 0.90523 0.0
H3901 H 0.01145 0.5138 0.92909 0.0
H3902 H 0.02086 0.53571 0.91017 0.0
H3903 H 0.04785 0.62372 0.96417 0.0
H3904 H 0.07004 0.60975 0.99368 0.0
H3905 H 0.026 0.53527 0.97346 0.0
C3906 C 0.98188 0.56446 0.90296 0.0
C3907 C 0.98289 0.58518 0.8923 0.0
C3908 C 0.99623 0.60889 0.90357 0.0
C3909 C 0.00987 0.6117 0.92494 0.0
C3910 C 1.00955 0.59059 0.9344 0.0
C3911 C 0.9954 0.56752 0.92424 0.0
C3912 C 0.99971 0.54742 0.93663 0.0
C3913 C 0.97958 0.536 0.94884 0.0
C3914 C 1.00654 0.52725 0.91923 0.0
C3915 C 0.01897 0.56271 0.95481 0.0
C3916 C 0.02454 0.58745 0.95308 0.0
C3917 C 0.04321 0.6046 0.96636 0.0
C3918 C 0.05584 0.59646 0.98283 0.0
C3919 C 0.04924 0.57167 0.98606 0.0
C3920 C 0.03099 0.55447 0.97151 0.0
H3921 H 0.34164 0.23655 0.5992 0.0
H3922 H 0.29259 0.2716 0.57449 0.0
H3923 H 0.29106 0.29121 0.61664 0.0
H3924 H 0.3188 0.21904 0.64744 0.0
H3925 H 0.34434 0.22598 0.66718 0.0
H3926 H 0.34461 0.21891 0.63523 0.0
H3927 H 0.37415 0.26063 0.63752 0.0
H3928 H 0.37402 0.26784 0.66965 0.0
H3929 H 0.36873 0.28927 0.65155 0.0
H3930 H 0.29548 0.30713 0.66368 0.0
H3931 H 0.30138 0.31185 0.7081 0.0
H3932 H 0.34117 0.25924 0.69961 0.0
C3933 C 0.33093 0.24881 0.6025 0.0
C3934 C 0.31737 0.25262 0.58334 0.0
C3935 C 0.30345 0.26866 0.5887 0.0
C3936 C 0.30245 0.27989 0.61267 0.0
C3937 C 0.31563 0.27514 0.63119 0.0
C3938 C 0.32967 0.26 0.62621 0.0
C3939 C 0.34092 0.25612 0.64908 0.0
C3940 C 0.33688 0.22837 0.64976 0.0
C3941 C 0.36593 0.26923 0.65213 0.0
C3942 C 0.32936 0.26925 0.66765 0.0
C3943 C 0.31588 0.28147 0.65735 0.0
C3944 C 0.30533 0.29675 0.67168 0.0
C3945 C 0.30817 0.29881 0.69693 0.0
C3946 C 0.31975 0.28406 0.70745 0.0
C3947 C 0.33102 0.26977 0.69236 0.0
H3948 H 0.64735 0.55558 0.21676 0.0
H3949 H 0.65715 0.48222 0.19505 0.0
H3950 H 0.64029 0.47998 0.15393 0.0
H3951 H 0.59437 0.54551 0.17753 0.0
H3952 H 0.60167 0.57573 0.16971 0.0
H3953 H 0.61303 0.57145 0.19816 0.0
H3954 H 0.65271 0.58918 0.18814 0.0
H3955 H 0.64137 0.59351 0.15973 0.0
H3956 H 0.66126 0.57547 0.16056 0.0
H3957 H 0.62251 0.48543 0.11355 0.0
H3958 H 0.60892 0.49882 0.07831 0.0
H3959 H 0.60977 0.56946 0.12265 0.0
C3960 C 0.64559 0.53879 0.20351 0.0
C3961 C 0.65354 0.51872 0.21017 0.0
C3962 C 0.65127 0.49776 0.19136 0.0
C3963 C 0.64158 0.49633 0.1676 0.0
C3964 C 0.63413 0.51619 0.16172 0.0
C3965 C 0.63615 0.53721 0.17912 0.0
C3966 C 0.62791 0.55645 0.16721 0.0
C3967 C 0.60806 0.56266 0.17886 0.0
C3968 C 0.64694 0.58006 0.16903 0.0
C3969 C 0.62077 0.54292 0.14065 0.0
C3970 C 0.62452 0.51966 0.13816 0.0
C3971 C 0.61968 0.5037 0.11563 0.0
C3972 C 0.61163 0.51164 0.09525 0.0
C3973 C 0.60792 0.53562 0.09625 0.0
C3974 C 0.61234 0.5512 0.12004 0.0
H3975 H 0.30879 0.87116 0.94257 0.0
H3976 H 0.36728 0.93213 0.94554 0.0
H3977 H 0.37504 0.91198 0.90608 0.0
H3978 H 0.33039 0.82212 0.91415 0.0
H3979 H 0.30511 0.80534 0.8949 0.0
H3980 H 0.30388 0.82426 0.92349 0.0
H3981 H 0.28143 0.84906 0.90245 0.0
H3982 H 0.28219 0.82984 0.87392 0.0
H3983 H 0.29232 0.86313 0.87822 0.0
H3984 H 0.37774 0.88464 0.86855 0.0
H3985 H 0.3712 0.85605 0.82963 0.0
H3986 H 0.30973 0.81328 0.84935 0.0
C3987 C 0.32295 0.8803 0.93456 0.0
C3988 C 0.33744 0.90309 0.94656 0.0
C3989 C 0.35599 0.91472 0.93612 0.0
C3990 C 0.36062 0.90332 0.91399 0.0
C3991 C 0.34641 0.88046 0.90276 0.0
C3992 C 0.32764 0.86933 0.91226 0.0
C3993 C 0.31459 0.84534 0.89571 0.0
C3994 C 0.31343 0.82294 0.9078 0.0
C3995 C 0.29125 0.84695 0.88706 0.0
C3996 C 0.32899 0.84483 0.87548 0.0
C3997 C 0.34746 0.86503 0.88027 0.0
C3998 C 0.36321 0.8689 0.8644 0.0
C3999 C 0.35929 0.85247 0.84233 0.0
C4000 C 0.33952 0.83276 0.83612 0.0
C4001 C 0.32475 0.82823 0.85338 0.0
H4002 H 0.95267 0.53021 0.76091 0.0
H4003 H 0.94991 0.60467 0.75618 0.0
H4004 H 0.96923 0.60219 0.71977 0.0
H4005 H 1.0048 0.53837 0.75274 0.0
H4006 H 1.00365 0.50825 0.73518 0.0
H4007 H 0.98302 0.5115 0.75496 0.0
H4008 H 0.95164 0.49217 0.71968 0.0
H4009 H 0.97218 0.48826 0.69971 0.0
H4010 H 0.95232 0.50499 0.69285 0.0
H4011 H 0.99622 0.59645 0.69217 0.0
H4012 H 0.02768 0.58685 0.67261 0.0
H4013 H 0.01466 0.51624 0.6956 0.0
C4014 C 0.95497 0.54525 0.75115 0.0
C4015 C 0.9493 0.56727 0.76041 0.0
C4016 C 0.9536 0.58744 0.74856 0.0
C4017 C 0.96455 0.58613 0.72798 0.0
C4018 C 0.97116 0.56464 0.71994 0.0
C4019 C 0.96629 0.54435 0.73094 0.0
C4020 C 0.97885 0.5256 0.72184 0.0
C4021 C 0.99344 0.52068 0.74241 0.0
C4022 C 0.96279 0.50132 0.70767 0.0
C4023 C 0.99282 0.53943 0.70547 0.0
C4024 C 0.98764 0.56153 0.70414 0.0
C4025 C 0.99993 0.57885 0.69239 0.0
C4026 C 0.01784 0.57334 0.68152 0.0
C4027 C 0.02334 0.55076 0.68249 0.0
C4028 C 0.01067 0.53358 0.69458 0.0
H4029 H 0.32075 0.21788 0.42958 0.0
H4030 H 0.29083 0.27535 0.46148 0.0
H4031 H 0.29239 0.29188 0.4244 0.0
H4032 H 0.35725 0.25709 0.39394 0.0
H4033 H 0.3536 0.23201 0.36843 0.0
H4034 H 0.35235 0.22554 0.39827 0.0
H4035 H 0.31347 0.19496 0.38453 0.0
H4036 H 0.31459 0.20146 0.35473 0.0
H4037 H 0.29167 0.20565 0.371 0.0
H4038 H 0.2962 0.30227 0.38479 0.0
H4039 H 0.30047 0.30508 0.34275 0.0
H4040 H 0.32544 0.23959 0.33297 0.0
C4041 C 0.31486 0.23416 0.4288 0.0
C4042 C 0.3057 0.24538 0.4486 0.0
C4043 C 0.29787 0.26641 0.44669 0.0
C4044 C 0.29875 0.27601 0.42567 0.0
C4045 C 0.30741 0.26439 0.40642 0.0
C4046 C 0.31535 0.24393 0.40758 0.0
C4047 C 0.32281 0.2346 0.38348 0.0
C4048 C 0.348 0.23748 0.3862 0.0
C4049 C 0.30985 0.20756 0.37281 0.0
C4050 C 0.31693 0.25242 0.36853 0.0
C4051 C 0.30862 0.26977 0.38255 0.0
C4052 C 0.30257 0.28874 0.37358 0.0
C4053 C 0.30503 0.29013 0.34964 0.0
C4054 C 0.31291 0.27235 0.3345 0.0
C4055 C 0.31897 0.25315 0.34405 0.0
H4056 H 0.35474 0.59123 0.55159 0.0
H4057 H 0.35811 0.63952 0.49999 0.0
H4058 H 0.39524 0.63461 0.49231 0.0
H4059 H 0.41766 0.61037 0.5723 0.0
H4060 H 0.41644 0.57904 0.57556 0.0
H4061 H 0.39321 0.59171 0.5816 0.0
H4062 H 0.36724 0.55454 0.55115 0.0
H4063 H 0.39023 0.54189 0.54478 0.0
H4064 H 0.37361 0.54812 0.52064 0.0
H4065 H 0.42696 0.61718 0.48361 0.0
H4066 H 0.45115 0.58887 0.47505 0.0
H4067 H 0.42728 0.5522 0.53233 0.0
C4068 C 0.36353 0.6012 0.53907 0.0
C4069 C 0.35356 0.61536 0.52607 0.0
C4070 C 0.3655 0.62837 0.50998 0.0
C4071 C 0.38667 0.62592 0.50571 0.0
C4072 C 0.39571 0.61088 0.5181 0.0
C4073 C 0.38467 0.5991 0.5348 0.0
C4074 C 0.39647 0.58143 0.54336 0.0
C4075 C 0.40655 0.59123 0.56977 0.0
C4076 C 0.38096 0.55495 0.53973 0.0
C4077 C 0.41436 0.58289 0.52678 0.0
C4078 C 0.41425 0.60076 0.51307 0.0
C4079 C 0.42757 0.60355 0.49458 0.0
C4080 C 0.44097 0.58729 0.48962 0.0
C4081 C 0.44053 0.56844 0.50289 0.0
C4082 C 0.42765 0.56662 0.52206 0.0
H4083 H 0.90574 0.9619 0.52349 0.0
H4084 H 0.91529 0.93105 0.58661 0.0
H4085 H 0.9544 0.95632 0.59449 0.0
H4086 H 0.95886 0.96011 0.50435 0.0
H4087 H 0.96314 0.98837 0.49287 0.0
H4088 H 0.93535 0.96977 0.49339 0.0
H4089 H 0.92577 1.00795 0.51799 0.0
H4090 H 0.95359 0.02662 0.51762 0.0
H4091 H 0.94264 0.02435 0.54583 0.0
H4092 H 0.99269 0.98387 0.59509 0.0
H4093 H 0.02857 1.00904 0.5862 0.0
H4094 H 0.99547 0.02045 0.52145 0.0
C4095 C 0.91609 0.96074 0.53907 0.0
C4096 C 0.90755 0.94471 0.55462 0.0
C4097 C 0.92159 0.94323 0.57455 0.0
C4098 C 0.94377 0.95761 0.57922 0.0
C4099 C 0.95183 0.97312 0.56355 0.0
C4100 C 0.93855 0.97457 0.54367 0.0
C4101 C 0.95195 0.9912 0.52865 0.0
C4102 C 0.95235 0.97648 0.50332 0.0
C4103 C 0.94295 1.01388 0.52746 0.0
C4104 C 0.97477 0.99878 0.54318 0.0
C4105 C 0.97422 0.9884 0.56342 0.0
C4106 C 0.99331 0.99218 0.57936 0.0
C4107 C 0.01357 1.00652 0.57426 0.0
C4108 C 0.0146 1.01677 0.55338 0.0
C4109 C 0.99494 1.01304 0.53775 0.0
H4110 H 0.9005 0.15434 0.29874 0.0
H4111 H 0.89514 0.1348 0.22105 0.0
H4112 H 0.87773 0.16886 0.21803 0.0
H4113 H 0.84625 0.16974 0.30019 0.0
H4114 H 0.85563 0.19511 0.3257 0.0
H4115 H 0.86831 0.16962 0.32226 0.0
H4116 H 0.90689 0.2005 0.32472 0.0
H4117 H 0.89427 0.22602 0.32816 0.0
H4118 H 0.91128 0.22175 0.30432 0.0
H4119 H 0.86311 0.20858 0.22321 0.0
H4120 H 0.84933 0.24551 0.23591 0.0
H4121 H 0.8585 0.23832 0.30983 0.0
C4122 C 0.89572 0.15717 0.28103 0.0
C4123 C 0.89975 0.14121 0.26004 0.0
C4124 C 0.89264 0.14611 0.23751 0.0
C4125 C 0.88263 0.16575 0.23559 0.0
C4126 C 0.87896 0.18094 0.25634 0.0
C4127 C 0.88499 0.17665 0.27873 0.0
C4128 C 0.87829 0.19541 0.29809 0.0
C4129 C 0.86111 0.18164 0.31242 0.0
C4130 C 0.89891 0.21189 0.31483 0.0
C4131 C 0.86788 0.21097 0.28323 0.0
C4132 C 0.86873 0.20235 0.25915 0.0
C4133 C 0.86163 0.21463 0.24199 0.0
C4134 C 0.85326 0.23559 0.24931 0.0
C4135 C 0.85075 0.2444 0.27364 0.0
C4136 C 0.85888 0.23183 0.29086 0.0
H4137 H 0.72974 0.12764 0.01947 0.0
H4138 H 0.73898 0.06372 0.04731 0.0
H4139 H 0.70028 0.05499 0.05709 0.0
H4140 H 0.69689 0.1472 0.06564 0.0
H4141 H 0.67968 0.15742 0.04504 0.0
H4142 H 0.70814 0.15892 0.04038 0.0
H4143 H 0.69551 0.13226 0.99726 0.0
H4144 H 0.66722 0.13148 1.0016 0.0
H4145 H 0.67489 0.10284 0.99315 0.0
H4146 H 0.66065 0.05001 0.05725 0.0
H4147 H 0.6223 0.04841 0.04773 0.0
H4148 H 0.63959 0.12041 0.02913 0.0
C4149 C 0.72368 0.11155 0.02735 0.0
C4150 C 0.73729 0.09618 0.03251 0.0
C4151 C 0.72868 0.0755 0.04297 0.0
C4152 C 0.70697 0.07074 0.04899 0.0
C4153 C 0.69457 0.08722 0.04491 0.0
C4154 C 0.70255 0.10713 0.03427 0.0
C4155 C 0.68558 0.12144 0.03091 0.0
C4156 C 0.69303 0.1478 0.04643 0.0
C4157 C 0.6805 0.12201 1.00415 0.0
C4158 C 0.66622 0.1055 0.04008 0.0
C4159 C 0.67194 0.08604 0.04826 0.0
C4160 C 0.65616 0.06596 0.05252 0.0
C4161 C 0.634 0.0653 0.04742 0.0
C4162 C 0.62757 0.08514 0.04003 0.0
C4163 C 0.64403 0.10577 0.03664 0.0
H4164 H 0.22663 0.48898 0.26077 0.0
H4165 H 0.27023 0.50142 0.20564 0.0
H4166 H 0.28222 0.46413 0.21008 0.0
H4167 H 0.26277 0.47933 0.29867 0.0
H4168 H 0.24478 0.45568 0.311 0.0
H4169 H 0.23346 0.47705 0.29789 0.0
H4170 H 0.20546 0.44051 0.26873 0.0
H4171 H 0.21659 0.41873 0.28186 0.0
H4172 H 0.21533 0.41739 0.24991 0.0
H4173 H 0.29704 0.43475 0.22777 0.0
H4174 H 0.31369 0.41577 0.25724 0.0
H4175 H 0.26053 0.4212 0.30119 0.0
C4176 C 0.23792 0.48316 0.24885 0.0
C4177 C 0.24753 0.49791 0.23287 0.0
C4178 C 0.26264 0.49022 0.21795 0.0
C4179 C 0.26939 0.46895 0.22021 0.0
C4180 C 0.26068 0.45559 0.23729 0.0
C4181 C 0.24501 0.46223 0.25119 0.0
C4182 C 0.24166 0.44826 0.27151 0.0
C4183 C 0.24595 0.46615 0.29619 0.0
C4184 C 0.21837 0.43013 0.26776 0.0
C4185 C 0.25935 0.43451 0.26821 0.0
C4186 C 0.26956 0.43826 0.24788 0.0
C4187 C 0.28869 0.43085 0.24322 0.0
C4188 C 0.29806 0.42009 0.26014 0.0
C4189 C 0.28832 0.417 0.2815 0.0
C4190 C 0.26826 0.42335 0.285 0.0
H4191 H 0.29777 0.48471 0.05808 0.0
H4192 H 0.26204 0.40818 0.02802 0.0
H4193 H 0.22663 0.4203 0.02598 0.0
H4194 H 0.25537 0.50198 0.09309 0.0
H4195 H 0.26084 0.53251 0.08602 0.0
H4196 H 0.28284 0.51731 0.08738 0.0
H4197 H 0.28994 0.52239 0.04395 0.0
H4198 H 0.26814 0.5378 0.04258 0.0
H4199 H 0.26721 0.51074 0.0201 0.0
H4200 H 0.19497 0.44176 0.02618 0.0
H4201 H 0.17149 0.47089 0.02372 0.0
H4202 H 0.22877 0.53311 0.05177 0.0
C4203 C 0.28248 0.47048 0.05118 0.0
C4204 C 0.28263 0.44553 0.04315 0.0
C4205 C 0.26231 0.42747 0.03402 0.0
C4206 C 0.2421 0.43415 0.03305 0.0
C4207 C 0.24253 0.45901 0.04105 0.0
C4208 C 0.2623 0.47691 0.04966 0.0
C4209 C 0.25872 0.50263 0.0551 0.0
C4210 C 0.26481 0.51428 0.082 0.0
C4211 C 0.27177 0.51937 0.0395 0.0
C4212 C 0.23395 0.49658 0.0479 0.0
C4213 C 0.22471 0.4713 0.04031 0.0
C4214 C 0.20209 0.46158 0.03213 0.0
C4215 C 0.18885 0.47821 0.0309 0.0
C4216 C 0.19839 0.50421 0.03745 0.0
C4217 C 0.22108 0.51331 0.0466 0.0
H4218 H 0.92219 0.99111 0.29793 0.0
H4219 H 0.87895 1.00827 0.24439 0.0
H4220 H 0.85281 0.96663 0.24079 0.0
H4221 H 0.91465 0.92685 0.27282 0.0
H4222 H 0.91412 0.91685 0.30117 0.0
H4223 H 0.92904 0.94808 0.29992 0.0
H4224 H 0.90638 0.96544 0.33171 0.0
H4225 H 0.89139 0.93422 0.33304 0.0
H4226 H 0.87647 0.95609 0.32643 0.0
H4227 H 0.83096 0.92065 0.24243 0.0
H4228 H 0.81693 0.87781 0.24923 0.0
H4229 H 0.87387 0.89024 0.30192 0.0
C4230 C 0.90717 0.98629 0.28548 0.0
C4231 C 0.90296 1.00369 0.27147 0.0
C4232 C 0.88285 0.99597 0.25558 0.0
C4233 C 0.8678 0.97205 0.25335 0.0
C4234 C 0.87253 0.95549 0.26733 0.0
C4235 C 0.89174 0.96249 0.28328 0.0
C4236 C 0.89286 0.94144 0.29656 0.0
C4237 C 0.91392 0.9328 0.29235 0.0
C4238 C 0.89172 0.9498 0.32354 0.0
C4239 C 0.87186 0.92107 0.28496 0.0
C4240 C 0.86011 0.92967 0.26841 0.0
C4241 C 0.84008 0.91417 0.25566 0.0
C4242 C 0.83192 0.88971 0.25992 0.0
C4243 C 0.8435 0.88019 0.27676 0.0
C4244 C 0.86404 0.89643 0.28918 0.0
H4245 H 0.73896 0.14944 0.79756 0.0
H4246 H 0.79008 0.11986 0.76544 0.0
H4247 H 0.8153 0.16181 0.77331 0.0
H4248 H 0.74072 0.19208 0.77036 0.0
H4249 H 0.73801 0.21712 0.79336 0.0
H4250 H 0.72772 0.1857 0.79673 0.0
H4251 H 0.75205 0.19527 0.83771 0.0
H4252 H 0.76222 0.22714 0.83468 0.0
H4253 H 0.78149 0.20919 0.83979 0.0
H4254 H 0.83076 0.20566 0.77411 0.0
H4255 H 0.83522 0.24829 0.76814 0.0
H4256 H 0.77112 0.24804 0.79198 0.0
C4257 C 0.75587 0.15176 0.79333 0.0
C4258 C 0.76262 0.13174 0.78071 0.0
C4259 C 0.78469 0.13511 0.7752 0.0
C4260 C 0.79921 0.15885 0.77982 0.0
C4261 C 0.7914 0.17869 0.79027 0.0
C4262 C 0.77035 0.17539 0.79753 0.0
C4263 C 0.76412 0.19972 0.80313 0.0
C4264 C 0.74133 0.19854 0.79006 0.0
C4265 C 0.76503 0.20834 0.83044 0.0
C4266 C 0.78302 0.216 0.79366 0.0
C4267 C 0.79936 0.20413 0.78823 0.0
C4268 C 0.81807 0.21513 0.77836 0.0
C4269 C 0.82009 0.23892 0.77399 0.0
C4270 C 0.80279 0.25053 0.77764 0.0
C4271 C 0.78424 0.23912 0.78808 0.0
loop_
_geom_bond_atom_site_label_1
_geom_bond_atom_site_label_2
_geom_bond_distance
_geom_bond_site_symmetry_2
_ccdc_geom_bond_type
O0 Cd1 2.223 . S
O0 C8 1.315 . S
Cd1 O0 2.223 . S
Cd1 O4 2.297 . S
Cd1 O5 2.439 . S
Cd1 O11 2.240 . S
Cd2 O3 2.240 . S
Cd2 O10 2.223 . S
Cd2 O12 2.297 . S
Cd2 O13 2.439 . S
O3 Cd2 2.240 . S
O3 C8 1.279 . S
O4 Cd1 2.297 . S
O4 C6 1.247 . S
O5 Cd1 2.439 . S
O5 C6 1.208 . S
C6 O4 1.247 . S
C6 O5 1.208 . S
C7 O12 1.247 . S
C7 O13 1.208 . S
C8 O0 1.315 . S
C8 O3 1.279 . S
C9 O10 1.315 . S
C9 O11 1.279 . S
O10 Cd2 2.223 . S
O10 C9 1.315 . S
O11 Cd1 2.240 . S
O11 C9 1.279 . S
O12 Cd2 2.297 . S
O12 C7 1.247 . S
O13 Cd2 2.439 . S
O13 C7 1.208 . S
O14 Cd15 2.223 . S
O14 C22 1.315 . S
Cd15 O14 2.223 . S
Cd15 O18 2.297 . S
Cd15 O19 2.439 . S
Cd15 O25 2.240 1_655 S
Cd16 O17 2.240 1_455 S
Cd16 O24 2.223 . S
Cd16 O26 2.297 . S
Cd16 O27 2.454 . S
O17 Cd16 2.240 1_655 S
O17 C22 1.279 . S
O18 Cd15 2.297 . S
O18 C20 1.247 . S
O19 Cd15 2.439 . S
O19 C20 1.208 . S
C20 O18 1.247 . S
C20 O19 1.208 . S
C21 O26 1.247 . S
C21 O27 1.225 . S
C22 O14 1.315 . S
C22 O17 1.279 . S
C23 O24 1.315 . S
C23 O25 1.279 . S
O24 Cd16 2.223 . S
O24 C23 1.315 . S
O25 Cd15 2.240 1_455 S
O25 C23 1.279 . S
O26 Cd16 2.297 . S
O26 C21 1.247 . S
O27 Cd16 2.454 . S
O27 C21 1.225 . S
O28 Cd29 2.223 . S
O28 C36 1.315 . S
Cd29 O28 2.223 . S
Cd29 O32 2.297 . S
Cd29 O33 2.439 . S
Cd29 O39 2.240 . S
Cd30 O31 2.240 . S
Cd30 O38 2.223 . S
Cd30 O40 2.297 . S
Cd30 O41 2.439 . S
O31 Cd30 2.240 . S
O31 C36 1.279 . S
O32 Cd29 2.297 . S
O32 C34 1.247 . S
O33 Cd29 2.439 . S
O33 C34 1.208 . S
C34 O32 1.247 . S
C34 O33 1.208 . S
C35 O40 1.247 . S
C35 O41 1.208 . S
C36 O28 1.315 . S
C36 O31 1.279 . S
C37 O38 1.315 . S
C37 O39 1.279 . S
O38 Cd30 2.223 . S
O38 C37 1.315 . S
O39 Cd29 2.240 . S
O39 C37 1.279 . S
O40 Cd30 2.297 . S
O40 C35 1.247 . S
O41 Cd30 2.439 . S
O41 C35 1.208 . S
O42 Cd43 2.223 . S
O42 C50 1.315 . S
Cd43 O42 2.223 . S
Cd43 O46 2.297 . S
Cd43 O47 2.439 . S
Cd43 O53 2.240 . S
Cd44 O45 2.240 . S
Cd44 O52 2.223 . S
Cd44 O54 2.297 . S
Cd44 O55 2.439 . S
O45 Cd44 2.240 . S
O45 C50 1.279 . S
O46 Cd43 2.297 . S
O46 C48 1.247 . S
O47 Cd43 2.439 . S
O47 C48 1.208 . S
C48 O46 1.247 . S
C48 O47 1.208 . S
C49 O54 1.247 . S
C49 O55 1.208 . S
C50 O42 1.315 . S
C50 O45 1.279 . S
C51 O52 1.315 . S
C51 O53 1.279 . S
O52 Cd44 2.223 . S
O52 C51 1.315 . S
O53 Cd43 2.240 . S
O53 C51 1.279 . S
O54 Cd44 2.297 . S
O54 C49 1.247 . S
O55 Cd44 2.439 . S
O55 C49 1.208 . S
O56 Cd57 2.223 . S
O56 C64 1.315 . S
Cd57 O56 2.223 . S
Cd57 O60 2.297 . S
Cd57 O61 2.439 . S
Cd57 O67 2.240 . S
Cd58 O59 2.240 . S
Cd58 O66 2.223 . S
Cd58 O68 2.297 . S
Cd58 O69 2.439 . S
O59 Cd58 2.240 . S
O59 C64 1.279 . S
O60 Cd57 2.297 . S
O60 C62 1.247 . S
O61 Cd57 2.439 . S
O61 C62 1.208 . S
C62 O60 1.247 . S
C62 O61 1.208 . S
C63 O68 1.247 . S
C63 O69 1.208 . S
C64 O56 1.315 . S
C64 O59 1.279 . S
C65 O66 1.315 . S
C65 O67 1.279 . S
O66 Cd58 2.223 . S
O66 C65 1.315 . S
O67 Cd57 2.240 . S
O67 C65 1.279 . S
O68 Cd58 2.297 . S
O68 C63 1.247 . S
O69 Cd58 2.439 . S
O69 C63 1.208 . S
O70 Cd71 2.223 . S
O70 C78 1.315 . S
Cd71 O70 2.223 . S
Cd71 O74 2.297 . S
Cd71 O75 2.439 . S
Cd71 O81 2.240 . S
Cd72 O73 2.240 . S
Cd72 O80 2.223 . S
Cd72 O82 2.297 . S
Cd72 O83 2.439 . S
O73 Cd72 2.240 . S
O73 C78 1.279 . S
O74 Cd71 2.297 . S
O74 C76 1.247 . S
O75 Cd71 2.439 . S
O75 C76 1.208 . S
C76 O74 1.247 . S
C76 O75 1.208 . S
C77 O82 1.247 . S
C77 O83 1.208 . S
C78 O70 1.315 . S
C78 O73 1.279 . S
C79 O80 1.315 . S
C79 O81 1.279 . S
O80 Cd72 2.223 . S
O80 C79 1.315 . S
O81 Cd71 2.240 . S
O81 C79 1.279 . S
O82 Cd72 2.297 . S
O82 C77 1.247 . S
O83 Cd72 2.439 . S
O83 C77 1.208 . S
O84 Cd85 2.223 . S
O84 C92 1.315 . S
Cd85 O84 2.223 . S
Cd85 O88 2.297 . S
Cd85 O89 2.439 . S
Cd85 O95 2.240 . S
Cd86 O87 2.240 . S
Cd86 O94 2.223 . S
Cd86 O96 2.297 . S
Cd86 O97 2.439 . S
O87 Cd86 2.240 . S
O87 C92 1.279 . S
O88 Cd85 2.297 . S
O88 C90 1.247 . S
O89 Cd85 2.439 . S
O89 C90 1.208 . S
C90 O88 1.247 . S
C90 O89 1.208 . S
C91 O96 1.247 . S
C91 O97 1.208 . S
C92 O84 1.315 . S
C92 O87 1.279 . S
C93 O94 1.315 . S
C93 O95 1.279 . S
O94 Cd86 2.223 . S
O94 C93 1.315 . S
O95 Cd85 2.240 . S
O95 C93 1.279 . S
O96 Cd86 2.297 . S
O96 C91 1.247 . S
O97 Cd86 2.439 . S
O97 C91 1.208 . S
O98 Cd99 2.223 . S
O98 C106 1.315 . S
Cd99 O98 2.223 . S
Cd99 O102 2.297 . S
Cd99 O103 2.439 . S
Cd99 O109 2.240 . S
Cd100 O101 2.240 . S
Cd100 O108 2.223 1_455 S
Cd100 O110 2.297 . S
Cd100 O111 2.439 . S
O101 Cd100 2.240 . S
O101 C106 1.279 . S
O102 Cd99 2.297 . S
O102 C104 1.247 . S
O103 Cd99 2.439 . S
O103 C104 1.208 . S
C104 O102 1.247 . S
C104 O103 1.208 . S
C105 O110 1.247 . S
C105 O111 1.208 . S
C106 O98 1.315 . S
C106 O101 1.279 . S
C107 O108 1.315 . S
C107 O109 1.279 1_655 S
O108 Cd100 2.223 1_655 S
O108 C107 1.315 . S
O109 Cd99 2.240 . S
O109 C107 1.279 1_455 S
O110 Cd100 2.297 . S
O110 C105 1.247 . S
O111 Cd100 2.439 . S
O111 C105 1.208 . S
O112 Cd113 2.223 . S
O112 C120 1.315 . S
Cd113 O112 2.223 . S
Cd113 O116 2.297 . S
Cd113 O117 2.439 . S
Cd113 O123 2.240 . S
Cd114 O115 2.240 . S
Cd114 O122 2.223 1_545 S
Cd114 O124 2.297 . S
Cd114 O125 2.439 . S
O115 Cd114 2.240 . S
O115 C120 1.279 . S
O116 Cd113 2.297 . S
O116 C118 1.247 . S
O117 Cd113 2.439 . S
O117 C118 1.208 . S
C118 O116 1.247 . S
C118 O117 1.208 . S
C119 O124 1.247 . S
C119 O125 1.208 . S
C120 O112 1.315 . S
C120 O115 1.279 . S
C121 O122 1.315 . S
C121 O123 1.279 1_565 S
O122 Cd114 2.223 1_565 S
O122 C121 1.315 . S
O123 Cd113 2.240 . S
O123 C121 1.279 1_545 S
O124 Cd114 2.297 . S
O124 C119 1.247 . S
O125 Cd114 2.439 . S
O125 C119 1.208 . S
O126 Cd127 2.223 . S
O126 C134 1.315 . S
Cd127 O126 2.223 . S
Cd127 O130 2.297 . S
Cd127 O131 2.439 . S
Cd127 O137 2.240 . S
Cd128 O129 2.240 . S
Cd128 O136 2.223 . S
Cd128 O138 2.297 . S
Cd128 O139 2.439 . S
O129 Cd128 2.240 . S
O129 C134 1.279 . S
O130 Cd127 2.297 . S
O130 C132 1.247 . S
O131 Cd127 2.439 . S
O131 C132 1.208 . S
C132 O130 1.247 . S
C132 O131 1.208 . S
C133 O138 1.247 . S
C133 O139 1.208 . S
C134 O126 1.315 . S
C134 O129 1.279 . S
C135 O136 1.315 . S
C135 O137 1.279 . S
O136 Cd128 2.223 . S
O136 C135 1.315 . S
O137 Cd127 2.240 . S
O137 C135 1.279 . S
O138 Cd128 2.297 . S
O138 C133 1.247 . S
O139 Cd128 2.439 . S
O139 C133 1.208 . S
O140 Cd141 2.223 1_545 S
O140 C148 1.315 1_545 S
Cd141 O140 2.223 1_565 S
Cd141 O144 2.297 . S
Cd141 O145 2.439 . S
Cd141 O151 2.240 1_565 S
Cd142 O143 2.240 1_545 S
Cd142 O150 2.223 . S
Cd142 O152 2.297 . S
Cd142 O153 2.439 1_545 S
O143 Cd142 2.240 1_565 S
O143 C148 1.279 . S
O144 Cd141 2.297 . S
O144 C146 1.247 . S
O145 Cd141 2.439 . S
O145 C146 1.208 . S
C146 O144 1.247 . S
C146 O145 1.208 . S
C147 O152 1.247 . S
C147 O153 1.208 1_545 S
C148 O140 1.315 1_565 S
C148 O143 1.279 . S
C149 O150 1.315 . S
C149 O151 1.279 . S
O150 Cd142 2.223 . S
O150 C149 1.315 . S
O151 Cd141 2.240 1_545 S
O151 C149 1.279 . S
O152 Cd142 2.297 . S
O152 C147 1.247 . S
O153 Cd142 2.439 1_565 S
O153 C147 1.208 1_565 S
O154 Cd155 2.223 . S
O154 C162 1.315 . S
Cd155 O154 2.223 . S
Cd155 O158 2.297 . S
Cd155 O159 2.439 1_554 S
Cd155 O165 2.243 . S
Cd156 O157 2.240 1_556 S
Cd156 O164 2.223 1_556 S
Cd156 O166 2.297 . S
Cd156 O167 2.439 . S
O157 Cd156 2.240 1_554 S
O157 C162 1.279 . S
O158 Cd155 2.297 . S
O158 C160 1.247 . S
O159 Cd155 2.439 1_556 S
O159 C160 1.208 1_556 S
C160 O158 1.247 . S
C160 O159 1.208 1_554 S
C161 O166 1.247 . S
C161 O167 1.208 . S
C162 O154 1.315 . S
C162 O157 1.279 . S
C163 O164 1.315 . S
C163 O165 1.281 . S
O164 Cd156 2.223 1_554 S
O164 C163 1.315 . S
O165 Cd155 2.243 . S
O165 C163 1.281 . S
O166 Cd156 2.297 . S
O166 C161 1.247 . S
O167 Cd156 2.439 . S
O167 C161 1.208 . S
O168 Cd169 2.223 . S
O168 C176 1.315 . S
Cd169 O168 2.223 . S
Cd169 O172 2.297 . S
Cd169 O173 2.439 . S
Cd169 O179 2.240 . S
Cd170 O171 2.240 . S
Cd170 O178 2.223 . S
Cd170 O180 2.297 1_554 S
Cd170 O181 2.439 1_554 S
O171 Cd170 2.240 . S
O171 C176 1.279 . S
O172 Cd169 2.297 . S
O172 C174 1.247 . S
O173 Cd169 2.439 . S
O173 C174 1.208 . S
C174 O172 1.247 . S
C174 O173 1.208 . S
C175 O180 1.247 . S
C175 O181 1.208 . S
C176 O168 1.315 . S
C176 O171 1.279 . S
C177 O178 1.315 . S
C177 O179 1.279 . S
O178 Cd170 2.223 . S
O178 C177 1.315 . S
O179 Cd169 2.240 . S
O179 C177 1.279 . S
O180 Cd170 2.297 1_556 S
O180 C175 1.247 . S
O181 Cd170 2.439 1_556 S
O181 C175 1.208 . S
O182 Cd183 2.223 . S
O182 C190 1.315 . S
Cd183 O182 2.223 . S
Cd183 O186 2.297 . S
Cd183 O187 2.439 . S
Cd183 O193 2.240 . S
Cd184 O185 2.240 . S
Cd184 O192 2.223 . S
Cd184 O194 2.297 1_554 S
Cd184 O195 2.439 1_554 S
O185 Cd184 2.240 . S
O185 C190 1.279 . S
O186 Cd183 2.297 . S
O186 C188 1.247 . S
O187 Cd183 2.439 . S
O187 C188 1.208 . S
C188 O186 1.247 . S
C188 O187 1.208 . S
C189 O194 1.247 . S
C189 O195 1.208 . S
C190 O182 1.315 . S
C190 O185 1.279 . S
C191 O192 1.315 . S
C191 O193 1.279 . S
O192 Cd184 2.223 . S
O192 C191 1.315 . S
O193 Cd183 2.240 . S
O193 C191 1.279 . S
O194 Cd184 2.297 1_556 S
O194 C189 1.247 . S
O195 Cd184 2.439 1_556 S
O195 C189 1.208 . S
O196 Cd197 2.223 . S
O196 C204 1.315 . S
Cd197 O196 2.223 . S
Cd197 O200 2.297 . S
Cd197 O201 2.439 . S
Cd197 O207 2.240 . S
Cd198 O199 2.240 . S
Cd198 O206 2.223 . S
Cd198 O208 2.297 . S
Cd198 O209 2.439 . S
O199 Cd198 2.240 . S
O199 C204 1.279 . S
O200 Cd197 2.297 . S
O200 C202 1.247 . S
O201 Cd197 2.439 . S
O201 C202 1.208 . S
C202 O200 1.247 . S
C202 O201 1.208 . S
C203 O208 1.247 . S
C203 O209 1.208 . S
C204 O196 1.315 . S
C204 O199 1.279 . S
C205 O206 1.315 . S
C205 O207 1.279 . S
O206 Cd198 2.223 . S
O206 C205 1.315 . S
O207 Cd197 2.240 . S
O207 C205 1.279 . S
O208 Cd198 2.297 . S
O208 C203 1.247 . S
O209 Cd198 2.439 . S
O209 C203 1.208 . S
O210 Cd211 2.223 . S
O210 C218 1.315 . S
Cd211 O210 2.223 . S
Cd211 O214 2.297 . S
Cd211 O215 2.439 . S
Cd211 O221 2.240 . S
Cd212 O213 2.240 . S
Cd212 O220 2.223 . S
Cd212 O222 2.297 . S
Cd212 O223 2.439 . S
O213 Cd212 2.240 . S
O213 C218 1.279 . S
O214 Cd211 2.297 . S
O214 C216 1.247 . S
O215 Cd211 2.439 . S
O215 C216 1.208 . S
C216 O214 1.247 . S
C216 O215 1.208 . S
C217 O222 1.247 . S
C217 O223 1.208 . S
C218 O210 1.315 . S
C218 O213 1.279 . S
C219 O220 1.315 . S
C219 O221 1.279 . S
O220 Cd212 2.223 . S
O220 C219 1.315 . S
O221 Cd211 2.240 . S
O221 C219 1.279 . S
O222 Cd212 2.297 . S
O222 C217 1.247 . S
O223 Cd212 2.439 . S
O223 C217 1.208 . S
O224 Cd225 2.223 . S
O224 C232 1.315 . S
Cd225 O224 2.223 . S
Cd225 O228 2.297 . S
Cd225 O229 2.439 . S
Cd225 O235 2.240 . S
Cd226 O227 2.240 . S
Cd226 O234 2.223 . S
Cd226 O236 2.297 . S
Cd226 O237 2.439 . S
O227 Cd226 2.240 . S
O227 C232 1.279 . S
O228 Cd225 2.297 . S
O228 C230 1.247 . S
O229 Cd225 2.439 . S
O229 C230 1.208 . S
C230 O228 1.247 . S
C230 O229 1.208 . S
C231 O236 1.247 . S
C231 O237 1.208 . S
C232 O224 1.315 . S
C232 O227 1.279 . S
C233 O234 1.315 . S
C233 O235 1.279 . S
O234 Cd226 2.223 . S
O234 C233 1.315 . S
O235 Cd225 2.240 . S
O235 C233 1.279 . S
O236 Cd226 2.297 . S
O236 C231 1.247 . S
O237 Cd226 2.439 . S
O237 C231 1.208 . S
O238 Cd239 2.223 . S
O238 C246 1.315 . S
Cd239 O238 2.223 . S
Cd239 O242 2.297 . S
Cd239 O243 2.439 . S
Cd239 O249 2.240 . S
Cd240 O241 2.240 . S
Cd240 O248 2.223 . S
Cd240 O250 2.297 . S
Cd240 O251 2.439 . S
O241 Cd240 2.240 . S
O241 C246 1.279 . S
O242 Cd239 2.297 . S
O242 C244 1.247 . S
O243 Cd239 2.439 . S
O243 C244 1.208 . S
C244 O242 1.247 . S
C244 O243 1.208 . S
C245 O250 1.247 . S
C245 O251 1.208 . S
C246 O238 1.315 . S
C246 O241 1.279 . S
C247 O248 1.315 . S
C247 O249 1.279 . S
O248 Cd240 2.223 . S
O248 C247 1.315 . S
O249 Cd239 2.240 . S
O249 C247 1.279 . S
O250 Cd240 2.297 . S
O250 C245 1.247 . S
O251 Cd240 2.439 . S
O251 C245 1.208 . S
O252 Cd253 2.223 . S
O252 C260 1.315 . S
Cd253 O252 2.223 . S
Cd253 O256 2.297 . S
Cd253 O257 2.439 . S
Cd253 O263 2.240 . S
Cd254 O255 2.240 . S
Cd254 O262 2.223 . S
Cd254 O264 2.297 . S
Cd254 O265 2.439 . S
O255 Cd254 2.240 . S
O255 C260 1.279 . S
O256 Cd253 2.297 . S
O256 C258 1.247 . S
O257 Cd253 2.439 . S
O257 C258 1.208 . S
C258 O256 1.247 . S
C258 O257 1.208 . S
C259 O264 1.247 . S
C259 O265 1.208 . S
C260 O252 1.315 . S
C260 O255 1.279 . S
C261 O262 1.315 . S
C261 O263 1.279 . S
O262 Cd254 2.223 . S
O262 C261 1.315 . S
O263 Cd253 2.240 . S
O263 C261 1.279 . S
O264 Cd254 2.297 . S
O264 C259 1.247 . S
O265 Cd254 2.439 . S
O265 C259 1.208 . S
O266 Cd267 2.223 . S
O266 C274 1.315 . S
Cd267 O266 2.223 . S
Cd267 O270 2.297 . S
Cd267 O271 2.439 . S
Cd267 O277 2.240 . S
Cd268 O269 2.240 . S
Cd268 O276 2.223 . S
Cd268 O278 2.297 . S
Cd268 O279 2.439 . S
O269 Cd268 2.240 . S
O269 C274 1.279 . S
O270 Cd267 2.297 . S
O270 C272 1.247 . S
O271 Cd267 2.439 . S
O271 C272 1.208 . S
C272 O270 1.247 . S
C272 O271 1.208 . S
C273 O278 1.247 . S
C273 O279 1.208 . S
C274 O266 1.315 . S
C274 O269 1.279 . S
C275 O276 1.315 . S
C275 O277 1.279 . S
O276 Cd268 2.223 . S
O276 C275 1.315 . S
O277 Cd267 2.240 . S
O277 C275 1.279 . S
O278 Cd268 2.297 . S
O278 C273 1.247 . S
O279 Cd268 2.439 . S
O279 C273 1.208 . S
O280 Cd281 2.223 . S
O280 C288 1.315 . S
Cd281 O280 2.223 . S
Cd281 O284 2.297 . S
Cd281 O285 2.425 1_554 S
Cd281 O291 2.240 1_554 S
Cd282 O283 2.240 1_556 S
Cd282 O290 2.223 1_556 S
Cd282 O292 2.297 . S
Cd282 O293 2.438 . S
O283 Cd282 2.240 1_554 S
O283 C288 1.279 . S
O284 Cd281 2.297 . S
O284 C286 1.247 . S
O285 Cd281 2.425 1_556 S
O285 C286 1.189 1_556 S
C286 O284 1.247 . S
C286 O285 1.189 1_554 S
C287 O292 1.247 . S
C287 O293 1.208 . S
C288 O280 1.315 . S
C288 O283 1.279 . S
C289 O290 1.315 . S
C289 O291 1.279 1_554 S
O290 Cd282 2.223 1_554 S
O290 C289 1.315 . S
O291 Cd281 2.240 1_556 S
O291 C289 1.279 1_556 S
O292 Cd282 2.297 . S
O292 C287 1.247 . S
O293 Cd282 2.438 . S
O293 C287 1.208 . S
O294 Cd295 2.223 . S
O294 C302 1.315 . S
Cd295 O294 2.223 . S
Cd295 O298 2.297 . S
Cd295 O299 2.439 . S
Cd295 O305 2.240 . S
Cd296 O297 2.240 . S
Cd296 O304 2.223 . S
Cd296 O306 2.297 . S
Cd296 O307 2.439 . S
O297 Cd296 2.240 . S
O297 C302 1.279 . S
O298 Cd295 2.297 . S
O298 C300 1.247 . S
O299 Cd295 2.439 . S
O299 C300 1.208 . S
C300 O298 1.247 . S
C300 O299 1.208 . S
C301 O306 1.247 . S
C301 O307 1.208 . S
C302 O294 1.315 . S
C302 O297 1.279 . S
C303 O304 1.315 . S
C303 O305 1.279 . S
O304 Cd296 2.223 . S
O304 C303 1.315 . S
O305 Cd295 2.240 . S
O305 C303 1.279 . S
O306 Cd296 2.297 . S
O306 C301 1.247 . S
O307 Cd296 2.439 . S
O307 C301 1.208 . S
O308 Cd309 2.223 . S
O308 C316 1.315 . S
Cd309 O308 2.223 . S
Cd309 O312 2.297 . S
Cd309 O313 2.439 . S
Cd309 O319 2.240 . S
Cd310 O311 2.240 . S
Cd310 O318 2.223 . S
Cd310 O320 2.297 . S
Cd310 O321 2.439 . S
O311 Cd310 2.240 . S
O311 C316 1.279 . S
O312 Cd309 2.297 . S
O312 C314 1.247 . S
O313 Cd309 2.439 . S
O313 C314 1.208 . S
C314 O312 1.247 . S
C314 O313 1.208 . S
C315 O320 1.247 . S
C315 O321 1.208 . S
C316 O308 1.315 . S
C316 O311 1.279 . S
C317 O318 1.315 . S
C317 O319 1.279 . S
O318 Cd310 2.223 . S
O318 C317 1.315 . S
O319 Cd309 2.240 . S
O319 C317 1.279 . S
O320 Cd310 2.297 . S
O320 C315 1.247 . S
O321 Cd310 2.439 . S
O321 C315 1.208 . S
O322 Cd323 2.223 . S
O322 C330 1.315 . S
Cd323 O322 2.223 . S
Cd323 O326 2.297 . S
Cd323 O327 2.439 . S
Cd323 O333 2.240 . S
Cd324 O325 2.240 . S
Cd324 O332 2.223 . S
Cd324 O334 2.297 . S
Cd324 O335 2.439 . S
O325 Cd324 2.240 . S
O325 C330 1.279 . S
O326 Cd323 2.297 . S
O326 C328 1.247 . S
O327 Cd323 2.439 . S
O327 C328 1.208 . S
C328 O326 1.247 . S
C328 O327 1.208 . S
C329 O334 1.247 . S
C329 O335 1.208 . S
C330 O322 1.315 . S
C330 O325 1.279 . S
C331 O332 1.315 . S
C331 O333 1.279 . S
O332 Cd324 2.223 . S
O332 C331 1.315 . S
O333 Cd323 2.240 . S
O333 C331 1.279 . S
O334 Cd324 2.297 . S
O334 C329 1.247 . S
O335 Cd324 2.439 . S
O335 C329 1.208 . S
Gd336 N367 2.661 . S
Gd336 N373 2.601 . S
Gd336 O380 2.545 . S
Gd336 O381 2.606 . S
Gd336 O383 2.429 . S
Gd336 O384 2.545 . S
Gd336 O385 2.412 . S
Gd336 O387 2.362 . S
Gd336 O388 2.338 . S
Gd336 C395 2.828 . S
Gd337 N346 2.661 1_545 S
Gd337 N350 2.601 1_544 S
Gd337 O381 2.362 . S
Gd337 O382 2.324 . S
Gd337 O386 2.560 1_554 S
Gd337 O387 2.606 . S
Gd337 O389 2.429 1_554 S
Gd337 O390 2.545 . S
Gd337 O391 2.412 1_455 S
Gd337 C404 2.828 1_454 S
C338 C341 1.417 1_655 S
C338 C343 1.431 . S
C338 C344 1.412 . S
C339 C342 1.437 . S
C339 C343 1.317 1_556 S
C339 H358 0.929 . S
C340 C341 1.426 1_556 S
C340 C342 1.413 1_455 S
C340 N350 1.359 . S
C341 C338 1.417 1_455 S
C341 C340 1.426 1_554 S
C341 N346 1.350 . S
C342 C339 1.437 . S
C342 C340 1.413 1_655 S
C342 C352 1.391 . S
C343 C338 1.431 . S
C343 C339 1.317 1_554 S
C343 H354 0.930 . S
C344 C338 1.412 . S
C344 C345 1.355 1_655 S
C344 H356 0.930 . S
C345 C344 1.355 1_455 S
C345 C347 1.402 . S
C345 H357 0.930 . S
N346 Gd337 2.661 1_565 S
N346 C341 1.350 . S
N346 C347 1.307 . S
C347 C345 1.402 . S
C347 N346 1.307 . S
C347 H348 0.930 1_565 S
H348 C347 0.930 1_545 S
C349 N350 1.334 . S
C349 C351 1.394 . S
C349 H353 0.930 1_565 S
N350 Gd337 2.601 1_566 S
N350 C340 1.359 . S
N350 C349 1.334 . S
C351 C349 1.394 . S
C351 C352 1.359 1_455 S
C351 H363 0.930 . S
C352 C342 1.391 . S
C352 C351 1.359 1_655 S
C352 H364 0.929 . S
H353 C349 0.930 1_545 S
H354 C343 0.930 . S
H355 C372 0.918 1_556 S
H356 C344 0.930 . S
H357 C345 0.930 . S
H358 C339 0.929 . S
H359 C377 0.930 . S
H360 C368 0.906 1_556 S
H361 C369 0.930 . S
H362 C393 0.929 . S
H363 C351 0.930 . S
H364 C352 0.929 . S
H365 C394 0.930 . S
H366 C375 0.930 . S
N367 Gd336 2.661 . S
N367 C371 1.350 . S
N367 C372 1.336 . S
C368 H360 0.906 1_554 S
C368 C369 1.355 1_554 S
C368 C370 1.412 . S
C369 H361 0.930 . S
C369 C368 1.355 1_556 S
C369 C372 1.385 1_556 S
C370 C368 1.412 . S
C370 C371 1.417 . S
C370 C394 1.431 . S
C371 N367 1.350 . S
C371 C370 1.417 . S
C371 C374 1.426 . S
C372 H355 0.918 1_554 S
C372 N367 1.336 . S
C372 C369 1.385 1_554 S
N373 Gd336 2.601 . S
N373 C374 1.359 . S
N373 C377 1.334 . S
C374 C371 1.426 . S
C374 N373 1.359 . S
C374 C378 1.413 . S
C375 H366 0.930 . S
C375 C376 1.359 . S
C375 C377 1.394 . S
C376 C375 1.359 . S
C376 C378 1.391 . S
C376 H379 0.929 . S
C377 H359 0.930 . S
C377 N373 1.334 . S
C377 C375 1.394 . S
C378 C374 1.413 . S
C378 C376 1.391 . S
C378 C393 1.437 . S
H379 C376 0.929 . S
O380 Gd336 2.545 . S
O380 C395 1.258 . S
O381 Gd336 2.606 . S
O381 Gd337 2.362 . S
O381 C392 1.284 . S
O382 Gd337 2.324 . S
O382 C402 1.254 . S
O383 Gd336 2.429 . S
O383 C402 1.268 . S
O384 Gd336 2.545 . S
O384 C392 1.250 . S
O385 Gd336 2.412 . S
O385 C395 1.252 . S
O386 Gd337 2.560 1_556 S
O386 C404 1.244 1_455 S
O387 Gd336 2.362 . S
O387 Gd337 2.606 . S
O387 C403 1.284 . S
O388 Gd336 2.338 . S
O388 C411 1.244 1_554 S
O389 Gd337 2.429 1_556 S
O389 C411 1.268 . S
O390 Gd337 2.545 . S
O390 C403 1.250 . S
O391 Gd337 2.412 1_655 S
O391 C404 1.252 1_554 S
C392 O381 1.284 . S
C392 O384 1.250 . S
C393 H362 0.929 . S
C393 C378 1.437 . S
C393 C394 1.317 . S
C394 H365 0.930 . S
C394 C370 1.431 . S
C394 C393 1.317 . S
C395 Gd336 2.828 . S
C395 O380 1.258 . S
C395 O385 1.252 . S
C395 C396 1.497 . S
C396 C395 1.497 . S
C396 C397 1.395 . S
C396 C398 1.380 . S
C397 C396 1.395 . S
C397 C400 1.398 . S
C397 H412 0.930 . S
C398 C396 1.380 . S
C398 C399 1.391 . S
C398 H413 0.930 . S
C399 C398 1.391 . S
C399 C401 1.387 . S
C400 C397 1.398 . S
C400 C401 1.380 . S
C400 H414 0.930 . S
C401 C399 1.387 . S
C401 C400 1.380 . S
C401 H415 0.930 . S
C402 O382 1.254 . S
C402 O383 1.268 . S
C403 O387 1.284 . S
C403 O390 1.250 . S
C404 Gd337 2.828 1_656 S
C404 O386 1.244 1_655 S
C404 O391 1.252 1_556 S
C404 C405 1.497 . S
C405 C404 1.497 . S
C405 C406 1.395 . S
C405 C407 1.380 1_556 S
C406 C405 1.395 . S
C406 C409 1.398 . S
C406 H416 0.930 . S
C407 C405 1.380 1_554 S
C407 C408 1.391 . S
C407 H417 0.930 . S
C408 C407 1.391 . S
C408 C410 1.387 1_554 S
C409 C406 1.398 . S
C409 C410 1.380 . S
C409 H418 0.930 . S
C410 C408 1.387 1_556 S
C410 C409 1.380 . S
C410 H419 0.930 . S
C411 O388 1.244 1_556 S
C411 O389 1.268 . S
H412 C397 0.930 . S
H413 C398 0.930 . S
H414 C400 0.930 . S
H415 C401 0.930 . S
H416 C406 0.930 . S
H417 C407 0.930 . S
H418 C409 0.930 . S
H419 C410 0.930 . S
Gd420 N451 2.661 . S
Gd420 N457 2.601 . S
Gd420 O464 2.545 . S
Gd420 O465 2.606 . S
Gd420 O467 2.429 . S
Gd420 O468 2.545 . S
Gd420 O469 2.412 . S
Gd420 O471 2.362 . S
Gd420 O472 2.324 . S
Gd420 C479 2.828 . S
Gd421 N430 2.661 . S
Gd421 N434 2.601 . S
Gd421 O465 2.362 . S
Gd421 O466 2.324 . S
Gd421 O470 2.545 . S
Gd421 O471 2.606 . S
Gd421 O473 2.429 . S
Gd421 O474 2.545 . S
Gd421 O475 2.412 . S
Gd421 C488 2.828 . S
C422 C425 1.417 . S
C422 C427 1.431 . S
C422 C428 1.412 . S
C423 C426 1.437 . S
C423 C427 1.317 . S
C423 H442 0.929 . S
C424 C425 1.426 . S
C424 C426 1.413 . S
C424 N434 1.359 . S
C425 C422 1.417 . S
C425 C424 1.426 . S
C425 N430 1.350 . S
C426 C423 1.437 . S
C426 C424 1.413 . S
C426 C436 1.391 . S
C427 C422 1.431 . S
C427 C423 1.317 . S
C427 H438 0.930 . S
C428 C422 1.412 . S
C428 C429 1.355 . S
C428 H440 0.930 . S
C429 C428 1.355 . S
C429 C431 1.402 . S
C429 H441 0.930 . S
N430 Gd421 2.661 . S
N430 C425 1.350 . S
N430 C431 1.307 . S
C431 C429 1.402 . S
C431 N430 1.307 . S
C431 H432 0.930 . S
H432 C431 0.930 . S
C433 N434 1.334 . S
C433 C435 1.394 . S
C433 H437 0.930 . S
N434 Gd421 2.601 . S
N434 C424 1.359 . S
N434 C433 1.334 . S
C435 C433 1.394 . S
C435 C436 1.359 . S
C435 H447 0.930 . S
C436 C426 1.391 . S
C436 C435 1.359 . S
C436 H448 0.929 . S
H437 C433 0.930 . S
H438 C427 0.930 . S
H439 C456 0.930 . S
H440 C428 0.930 . S
H441 C429 0.930 . S
H442 C423 0.929 . S
H443 C461 0.930 . S
H444 C452 0.930 . S
H445 C453 0.930 . S
H446 C477 0.929 . S
H447 C435 0.930 . S
H448 C436 0.929 . S
H449 C478 0.930 . S
H450 C459 0.930 . S
N451 Gd420 2.661 . S
N451 C455 1.350 . S
N451 C456 1.307 . S
C452 H444 0.930 . S
C452 C453 1.355 . S
C452 C454 1.412 . S
C453 H445 0.930 . S
C453 C452 1.355 . S
C453 C456 1.402 . S
C454 C452 1.412 . S
C454 C455 1.417 . S
C454 C478 1.431 . S
C455 N451 1.350 . S
C455 C454 1.417 . S
C455 C458 1.426 . S
C456 H439 0.930 . S
C456 N451 1.307 . S
C456 C453 1.402 . S
N457 Gd420 2.601 . S
N457 C458 1.359 . S
N457 C461 1.334 . S
C458 C455 1.426 . S
C458 N457 1.359 . S
C458 C462 1.413 . S
C459 H450 0.930 . S
C459 C460 1.359 . S
C459 C461 1.394 . S
C460 C459 1.359 . S
C460 C462 1.391 . S
C460 H463 0.929 . S
C461 H443 0.930 . S
C461 N457 1.334 . S
C461 C459 1.394 . S
C462 C458 1.413 . S
C462 C460 1.391 . S
C462 C477 1.437 . S
H463 C460 0.929 . S
O464 Gd420 2.545 . S
O464 C479 1.258 . S
O465 Gd420 2.606 . S
O465 Gd421 2.362 . S
O465 C476 1.284 . S
O466 Gd421 2.324 . S
O466 C486 1.254 . S
O467 Gd420 2.429 . S
O467 C486 1.268 . S
O468 Gd420 2.545 . S
O468 C476 1.250 . S
O469 Gd420 2.412 . S
O469 C479 1.252 . S
O470 Gd421 2.545 . S
O470 C488 1.258 . S
O471 Gd420 2.362 . S
O471 Gd421 2.606 . S
O471 C487 1.284 . S
O472 Gd420 2.324 . S
O472 C495 1.254 . S
O473 Gd421 2.429 . S
O473 C495 1.268 . S
O474 Gd421 2.545 . S
O474 C487 1.250 . S
O475 Gd421 2.412 . S
O475 C488 1.252 . S
C476 O465 1.284 . S
C476 O468 1.250 . S
C477 H446 0.929 . S
C477 C462 1.437 . S
C477 C478 1.317 . S
C478 H449 0.930 . S
C478 C454 1.431 . S
C478 C477 1.317 . S
C479 Gd420 2.828 . S
C479 O464 1.258 . S
C479 O469 1.252 . S
C479 C480 1.497 . S
C480 C479 1.497 . S
C480 C481 1.395 . S
C480 C482 1.380 . S
C481 C480 1.395 . S
C481 C484 1.398 . S
C481 H496 0.930 . S
C482 C480 1.380 . S
C482 C483 1.391 . S
C482 H497 0.930 . S
C483 C482 1.391 . S
C483 C485 1.387 . S
C484 C481 1.398 . S
C484 C485 1.380 . S
C484 H498 0.930 . S
C485 C483 1.387 . S
C485 C484 1.380 . S
C485 H499 0.930 . S
C486 O466 1.254 . S
C486 O467 1.268 . S
C487 O471 1.284 . S
C487 O474 1.250 . S
C488 Gd421 2.828 . S
C488 O470 1.258 . S
C488 O475 1.252 . S
C488 C489 1.497 . S
C489 C488 1.497 . S
C489 C490 1.395 . S
C489 C491 1.380 . S
C490 C489 1.395 . S
C490 C493 1.398 . S
C490 H500 0.930 . S
C491 C489 1.380 . S
C491 C492 1.391 . S
C491 H501 0.930 . S
C492 C491 1.391 . S
C492 C494 1.387 . S
C493 C490 1.398 . S
C493 C494 1.380 . S
C493 H502 0.930 . S
C494 C492 1.387 . S
C494 C493 1.380 . S
C494 H503 0.930 . S
C495 O472 1.254 . S
C495 O473 1.268 . S
H496 C481 0.930 . S
H497 C482 0.930 . S
H498 C484 0.930 . S
H499 C485 0.930 . S
H500 C490 0.930 . S
H501 C491 0.930 . S
H502 C493 0.930 . S
H503 C494 0.930 . S
Gd504 N535 2.661 1_545 S
Gd504 N541 2.601 . S
Gd504 O548 2.545 . S
Gd504 O549 2.606 . S
Gd504 O551 2.429 . S
Gd504 O552 2.545 . S
Gd504 O553 2.412 . S
Gd504 O555 2.362 . S
Gd504 O556 2.324 . S
Gd504 C563 2.828 . S
Gd505 N514 2.661 . S
Gd505 N518 2.601 . S
Gd505 O549 2.362 . S
Gd505 O550 2.324 . S
Gd505 O554 2.545 . S
Gd505 O555 2.606 . S
Gd505 O557 2.429 . S
Gd505 O558 2.545 1_545 S
Gd505 O559 2.412 . S
Gd505 C572 2.828 . S
C506 C509 1.417 . S
C506 C511 1.431 . S
C506 C512 1.412 . S
C507 C510 1.437 . S
C507 C511 1.317 . S
C507 H526 0.929 . S
C508 C509 1.426 . S
C508 C510 1.413 . S
C508 N518 1.359 . S
C509 C506 1.417 . S
C509 C508 1.426 . S
C509 N514 1.350 . S
C510 C507 1.437 . S
C510 C508 1.413 . S
C510 C520 1.391 . S
C511 C506 1.431 . S
C511 C507 1.317 . S
C511 H522 0.930 . S
C512 C506 1.412 . S
C512 C513 1.355 . S
C512 H524 0.930 . S
C513 C512 1.355 . S
C513 C515 1.402 . S
C513 H525 0.930 . S
N514 Gd505 2.661 . S
N514 C509 1.350 . S
N514 C515 1.307 . S
C515 C513 1.402 . S
C515 N514 1.307 . S
C515 H516 0.930 . S
H516 C515 0.930 . S
C517 N518 1.334 . S
C517 C519 1.394 . S
C517 H521 0.930 . S
N518 Gd505 2.601 . S
N518 C508 1.359 . S
N518 C517 1.334 . S
C519 C517 1.394 . S
C519 C520 1.359 . S
C519 H531 0.930 . S
C520 C510 1.391 . S
C520 C519 1.359 . S
C520 H532 0.929 . S
H521 C517 0.930 . S
H522 C511 0.930 . S
H523 C540 0.930 . S
H524 C512 0.930 . S
H525 C513 0.930 . S
H526 C507 0.929 . S
H527 C545 0.930 . S
H528 C536 0.930 . S
H529 C537 0.930 . S
H530 C561 0.929 . S
H531 C519 0.930 . S
H532 C520 0.929 . S
H533 C562 0.930 . S
H534 C543 0.938 . S
N535 Gd504 2.661 1_565 S
N535 C539 1.350 . S
N535 C540 1.307 . S
C536 H528 0.930 . S
C536 C537 1.355 . S
C536 C538 1.412 . S
C537 H529 0.930 . S
C537 C536 1.355 . S
C537 C540 1.402 . S
C538 C536 1.412 . S
C538 C539 1.417 . S
C538 C562 1.431 . S
C539 N535 1.350 . S
C539 C538 1.417 . S
C539 C542 1.426 . S
C540 H523 0.930 . S
C540 N535 1.307 . S
C540 C537 1.402 . S
N541 Gd504 2.601 . S
N541 C542 1.359 1_545 S
N541 C545 1.334 . S
C542 C539 1.426 . S
C542 N541 1.359 1_565 S
C542 C546 1.413 . S
C543 H534 0.938 . S
C543 C544 1.328 1_545 S
C543 C545 1.420 . S
C544 C543 1.328 1_565 S
C544 C546 1.391 . S
C544 H547 0.929 . S
C545 H527 0.930 . S
C545 N541 1.334 . S
C545 C543 1.420 . S
C546 C542 1.413 . S
C546 C544 1.391 . S
C546 C561 1.437 . S
H547 C544 0.929 . S
O548 Gd504 2.545 . S
O548 C563 1.258 . S
O549 Gd504 2.606 . S
O549 Gd505 2.362 . S
O549 C560 1.284 . S
O550 Gd505 2.324 . S
O550 C570 1.254 . S
O551 Gd504 2.429 . S
O551 C570 1.268 . S
O552 Gd504 2.545 . S
O552 C560 1.250 . S
O553 Gd504 2.412 . S
O553 C563 1.252 . S
O554 Gd505 2.545 . S
O554 C572 1.258 . S
O555 Gd504 2.362 . S
O555 Gd505 2.606 . S
O555 C571 1.284 1_545 S
O556 Gd504 2.324 . S
O556 C579 1.254 . S
O557 Gd505 2.429 . S
O557 C579 1.268 . S
O558 Gd505 2.545 1_565 S
O558 C571 1.250 . S
O559 Gd505 2.412 . S
O559 C572 1.252 . S
C560 O549 1.284 . S
C560 O552 1.250 . S
C561 H530 0.929 . S
C561 C546 1.437 . S
C561 C562 1.317 . S
C562 H533 0.930 . S
C562 C538 1.431 . S
C562 C561 1.317 . S
C563 Gd504 2.828 . S
C563 O548 1.258 . S
C563 O553 1.252 . S
C563 C564 1.497 . S
C564 C563 1.497 . S
C564 C565 1.395 . S
C564 C566 1.380 . S
C565 C564 1.395 . S
C565 C568 1.398 . S
C565 H580 0.930 . S
C566 C564 1.380 . S
C566 C567 1.391 . S
C566 H581 0.930 . S
C567 C566 1.391 . S
C567 C569 1.387 . S
C568 C565 1.398 . S
C568 C569 1.380 . S
C568 H582 0.930 . S
C569 C567 1.387 . S
C569 C568 1.380 . S
C569 H583 0.930 . S
C570 O550 1.254 . S
C570 O551 1.268 . S
C571 O555 1.284 1_565 S
C571 O558 1.250 . S
C572 Gd505 2.828 . S
C572 O554 1.258 . S
C572 O559 1.252 . S
C572 C573 1.497 . S
C573 C572 1.497 . S
C573 C574 1.395 . S
C573 C575 1.405 . S
C574 C573 1.395 . S
C574 C577 1.423 . S
C574 H584 0.930 . S
C575 C573 1.405 . S
C575 C576 1.369 1_545 S
C575 H585 0.929 . S
C576 C575 1.369 1_565 S
C576 C578 1.387 . S
C577 C574 1.423 . S
C577 C578 1.353 1_545 S
C577 H586 0.934 . S
C578 C576 1.387 . S
C578 C577 1.353 1_565 S
C578 H587 0.930 . S
C579 O556 1.254 . S
C579 O557 1.268 . S
H580 C565 0.930 . S
H581 C566 0.930 . S
H582 C568 0.930 . S
H583 C569 0.930 . S
H584 C574 0.930 . S
H585 C575 0.929 . S
H586 C577 0.934 . S
H587 C578 0.930 . S
Gd588 N619 2.661 . S
Gd588 N625 2.601 . S
Gd588 O632 2.545 . S
Gd588 O633 2.606 . S
Gd588 O635 2.429 . S
Gd588 O636 2.545 . S
Gd588 O637 2.412 . S
Gd588 O639 2.362 . S
Gd588 O640 2.324 . S
Gd588 C647 2.828 . S
Gd589 N598 2.661 . S
Gd589 N602 2.601 . S
Gd589 O633 2.362 . S
Gd589 O634 2.324 . S
Gd589 O638 2.545 . S
Gd589 O639 2.606 . S
Gd589 O641 2.429 . S
Gd589 O642 2.545 . S
Gd589 O643 2.412 . S
Gd589 C656 2.828 . S
C590 C593 1.417 . S
C590 C595 1.431 . S
C590 C596 1.412 . S
C591 C594 1.437 . S
C591 C595 1.317 . S
C591 H610 0.929 . S
C592 C593 1.426 . S
C592 C594 1.413 . S
C592 N602 1.359 . S
C593 C590 1.417 . S
C593 C592 1.426 . S
C593 N598 1.350 . S
C594 C591 1.437 . S
C594 C592 1.413 . S
C594 C604 1.391 . S
C595 C590 1.431 . S
C595 C591 1.317 . S
C595 H606 0.930 . S
C596 C590 1.412 . S
C596 C597 1.355 . S
C596 H608 0.930 . S
C597 C596 1.355 . S
C597 C599 1.402 . S
C597 H609 0.930 . S
N598 Gd589 2.661 . S
N598 C593 1.350 . S
N598 C599 1.307 . S
C599 C597 1.402 . S
C599 N598 1.307 . S
C599 H600 0.930 . S
H600 C599 0.930 . S
C601 N602 1.334 . S
C601 C603 1.394 . S
C601 H605 0.930 . S
N602 Gd589 2.601 . S
N602 C592 1.359 . S
N602 C601 1.334 . S
C603 C601 1.394 . S
C603 C604 1.359 . S
C603 H615 0.930 . S
C604 C594 1.391 . S
C604 C603 1.359 . S
C604 H616 0.929 . S
H605 C601 0.930 . S
H606 C595 0.930 . S
H607 C624 0.930 . S
H608 C596 0.930 . S
H609 C597 0.930 . S
H610 C591 0.929 . S
H611 C629 0.930 . S
H612 C620 0.930 . S
H613 C621 0.930 . S
H614 C645 0.929 . S
H615 C603 0.930 . S
H616 C604 0.929 . S
H617 C646 0.930 . S
H618 C627 0.930 . S
N619 Gd588 2.661 . S
N619 C623 1.350 . S
N619 C624 1.307 . S
C620 H612 0.930 . S
C620 C621 1.355 . S
C620 C622 1.412 . S
C621 H613 0.930 . S
C621 C620 1.355 . S
C621 C624 1.402 . S
C622 C620 1.412 . S
C622 C623 1.417 . S
C622 C646 1.431 . S
C623 N619 1.350 . S
C623 C622 1.417 . S
C623 C626 1.426 . S
C624 H607 0.930 . S
C624 N619 1.307 . S
C624 C621 1.402 . S
N625 Gd588 2.601 . S
N625 C626 1.359 . S
N625 C629 1.334 . S
C626 C623 1.426 . S
C626 N625 1.359 . S
C626 C630 1.413 . S
C627 H618 0.930 . S
C627 C628 1.359 . S
C627 C629 1.394 . S
C628 C627 1.359 . S
C628 C630 1.391 . S
C628 H631 0.929 . S
C629 H611 0.930 . S
C629 N625 1.334 . S
C629 C627 1.394 . S
C630 C626 1.413 . S
C630 C628 1.391 . S
C630 C645 1.437 . S
H631 C628 0.929 . S
O632 Gd588 2.545 . S
O632 C647 1.258 . S
O633 Gd588 2.606 . S
O633 Gd589 2.362 . S
O633 C644 1.284 . S
O634 Gd589 2.324 . S
O634 C654 1.254 . S
O635 Gd588 2.429 . S
O635 C654 1.268 . S
O636 Gd588 2.545 . S
O636 C644 1.250 . S
O637 Gd588 2.412 . S
O637 C647 1.252 . S
O638 Gd589 2.545 . S
O638 C656 1.258 . S
O639 Gd588 2.362 . S
O639 Gd589 2.606 . S
O639 C655 1.284 . S
O640 Gd588 2.324 . S
O640 C663 1.254 . S
O641 Gd589 2.429 . S
O641 C663 1.268 . S
O642 Gd589 2.545 . S
O642 C655 1.250 . S
O643 Gd589 2.412 . S
O643 C656 1.252 . S
C644 O633 1.284 . S
C644 O636 1.250 . S
C645 H614 0.929 . S
C645 C630 1.437 . S
C645 C646 1.317 . S
C646 H617 0.930 . S
C646 C622 1.431 . S
C646 C645 1.317 . S
C647 Gd588 2.828 . S
C647 O632 1.258 . S
C647 O637 1.252 . S
C647 C648 1.497 . S
C648 C647 1.497 . S
C648 C649 1.395 . S
C648 C650 1.380 . S
C649 C648 1.395 . S
C649 C652 1.398 . S
C649 H664 0.930 . S
C650 C648 1.380 . S
C650 C651 1.391 . S
C650 H665 0.930 . S
C651 C650 1.391 . S
C651 C653 1.387 . S
C652 C649 1.398 . S
C652 C653 1.380 . S
C652 H666 0.930 . S
C653 C651 1.387 . S
C653 C652 1.380 . S
C653 H667 0.930 . S
C654 O634 1.254 . S
C654 O635 1.268 . S
C655 O639 1.284 . S
C655 O642 1.250 . S
C656 Gd589 2.828 . S
C656 O638 1.258 . S
C656 O643 1.252 . S
C656 C657 1.497 . S
C657 C656 1.497 . S
C657 C658 1.395 . S
C657 C659 1.380 . S
C658 C657 1.395 . S
C658 C661 1.398 . S
C658 H668 0.930 . S
C659 C657 1.380 . S
C659 C660 1.391 . S
C659 H669 0.930 . S
C660 C659 1.391 . S
C660 C662 1.387 . S
C661 C658 1.398 . S
C661 C662 1.380 . S
C661 H670 0.930 . S
C662 C660 1.387 . S
C662 C661 1.380 . S
C662 H671 0.930 . S
C663 O640 1.254 . S
C663 O641 1.268 . S
H664 C649 0.930 . S
H665 C650 0.930 . S
H666 C652 0.930 . S
H667 C653 0.930 . S
H668 C658 0.930 . S
H669 C659 0.930 . S
H670 C661 0.930 . S
H671 C662 0.930 . S
Gd672 N703 2.661 1_545 S
Gd672 N709 2.601 1_545 S
Gd672 O716 2.545 1_545 S
Gd672 O717 2.606 . S
Gd672 O719 2.429 . S
Gd672 O720 2.545 . S
Gd672 O721 2.412 1_545 S
Gd672 O723 2.362 . S
Gd672 O724 2.324 . S
Gd672 C731 2.828 1_545 S
Gd673 N682 2.661 . S
Gd673 N686 2.601 . S
Gd673 O717 2.362 . S
Gd673 O718 2.324 . S
Gd673 O722 2.545 . S
Gd673 O723 2.606 . S
Gd673 O725 2.429 . S
Gd673 O726 2.545 . S
Gd673 O727 2.412 . S
Gd673 C740 2.828 . S
C674 C677 1.417 . S
C674 C679 1.431 . S
C674 C680 1.412 . S
C675 C678 1.437 . S
C675 C679 1.317 . S
C675 H694 0.929 . S
C676 C677 1.426 . S
C676 C678 1.413 . S
C676 N686 1.359 . S
C677 C674 1.417 . S
C677 C676 1.426 . S
C677 N682 1.350 . S
C678 C675 1.437 . S
C678 C676 1.413 . S
C678 C688 1.391 . S
C679 C674 1.431 . S
C679 C675 1.317 . S
C679 H690 0.930 . S
C680 C674 1.412 . S
C680 C681 1.355 . S
C680 H692 0.930 . S
C681 C680 1.355 . S
C681 C683 1.402 . S
C681 H693 0.930 . S
N682 Gd673 2.661 . S
N682 C677 1.350 . S
N682 C683 1.307 . S
C683 C681 1.402 . S
C683 N682 1.307 . S
C683 H684 0.930 . S
H684 C683 0.930 . S
C685 N686 1.334 . S
C685 C687 1.394 . S
C685 H689 0.930 . S
N686 Gd673 2.601 . S
N686 C676 1.359 . S
N686 C685 1.334 . S
C687 C685 1.394 . S
C687 C688 1.359 . S
C687 H699 0.875 1_455 S
C688 C678 1.391 . S
C688 C687 1.359 . S
C688 H700 0.929 . S
H689 C685 0.930 . S
H690 C679 0.930 . S
H691 C708 0.930 . S
H692 C680 0.930 . S
H693 C681 0.930 . S
H694 C675 0.929 . S
H695 C713 0.930 1_545 S
H696 C704 0.930 . S
H697 C705 0.930 1_655 S
H698 C729 0.929 . S
H699 C687 0.875 1_655 S
H700 C688 0.929 . S
H701 C730 0.930 . S
H702 C711 0.930 . S
N703 Gd672 2.661 1_565 S
N703 C707 1.350 . S
N703 C708 1.307 . S
C704 H696 0.930 . S
C704 C705 1.355 . S
C704 C706 1.412 . S
C705 H697 0.930 1_455 S
C705 C704 1.355 . S
C705 C708 1.402 . S
C706 C704 1.412 . S
C706 C707 1.417 . S
C706 C730 1.431 . S
C707 N703 1.350 . S
C707 C706 1.417 . S
C707 C710 1.426 . S
C708 H691 0.930 . S
C708 N703 1.307 . S
C708 C705 1.402 . S
N709 Gd672 2.601 1_565 S
N709 C710 1.359 . S
N709 C713 1.334 . S
C710 C707 1.426 . S
C710 N709 1.359 . S
C710 C714 1.413 . S
C711 H702 0.930 . S
C711 C712 1.359 . S
C711 C713 1.394 . S
C712 C711 1.359 . S
C712 C714 1.391 . S
C712 H715 0.929 . S
C713 H695 0.930 1_565 S
C713 N709 1.334 . S
C713 C711 1.394 . S
C714 C710 1.413 . S
C714 C712 1.391 . S
C714 C729 1.437 . S
H715 C712 0.929 . S
O716 Gd672 2.545 1_565 S
O716 C731 1.258 . S
O717 Gd672 2.606 . S
O717 Gd673 2.362 . S
O717 C728 1.284 . S
O718 Gd673 2.324 . S
O718 C738 1.254 . S
O719 Gd672 2.429 . S
O719 C738 1.268 . S
O720 Gd672 2.545 . S
O720 C728 1.250 . S
O721 Gd672 2.412 1_565 S
O721 C731 1.252 . S
O722 Gd673 2.545 . S
O722 C740 1.258 . S
O723 Gd672 2.362 . S
O723 Gd673 2.606 . S
O723 C739 1.284 . S
O724 Gd672 2.324 . S
O724 C747 1.254 . S
O725 Gd673 2.429 . S
O725 C747 1.268 . S
O726 Gd673 2.545 . S
O726 C739 1.250 . S
O727 Gd673 2.412 . S
O727 C740 1.252 . S
C728 O717 1.284 . S
C728 O720 1.250 . S
C729 H698 0.929 . S
C729 C714 1.437 . S
C729 C730 1.317 . S
C730 H701 0.930 . S
C730 C706 1.431 . S
C730 C729 1.317 . S
C731 Gd672 2.828 1_565 S
C731 O716 1.258 . S
C731 O721 1.252 . S
C731 C732 1.497 . S
C732 C731 1.497 . S
C732 C733 1.395 . S
C732 C734 1.380 . S
C733 C732 1.395 . S
C733 C736 1.398 . S
C733 H748 0.930 . S
C734 C732 1.380 . S
C734 C735 1.391 . S
C734 H749 0.930 . S
C735 C734 1.391 . S
C735 C737 1.387 . S
C736 C733 1.398 . S
C736 C737 1.380 . S
C736 H750 0.930 . S
C737 C735 1.387 . S
C737 C736 1.380 . S
C737 H751 0.930 . S
C738 O718 1.254 . S
C738 O719 1.268 . S
C739 O723 1.284 . S
C739 O726 1.250 . S
C740 Gd673 2.828 . S
C740 O722 1.258 . S
C740 O727 1.252 . S
C740 C741 1.497 . S
C741 C740 1.497 . S
C741 C742 1.395 . S
C741 C743 1.380 . S
C742 C741 1.395 . S
C742 C745 1.398 . S
C742 H752 0.930 . S
C743 C741 1.380 . S
C743 C744 1.391 . S
C743 H753 0.930 . S
C744 C743 1.391 . S
C744 C746 1.387 . S
C745 C742 1.398 . S
C745 C746 1.380 . S
C745 H754 0.930 . S
C746 C744 1.387 . S
C746 C745 1.380 . S
C746 H755 0.930 . S
C747 O724 1.254 . S
C747 O725 1.268 . S
H748 C733 0.930 . S
H749 C734 0.930 . S
H750 C736 0.930 . S
H751 C737 0.930 . S
H752 C742 0.930 . S
H753 C743 0.930 . S
H754 C745 0.930 . S
H755 C746 0.930 . S
Gd756 N787 2.661 . S
Gd756 N793 2.601 . S
Gd756 O800 2.545 . S
Gd756 O801 2.606 . S
Gd756 O803 2.429 . S
Gd756 O804 2.545 . S
Gd756 O805 2.412 . S
Gd756 O807 2.362 . S
Gd756 O808 2.324 . S
Gd756 C815 2.828 . S
Gd757 N766 2.661 . S
Gd757 N770 2.601 . S
Gd757 O801 2.362 . S
Gd757 O802 2.324 . S
Gd757 O806 2.545 . S
Gd757 O807 2.606 . S
Gd757 O809 2.429 . S
Gd757 O810 2.545 . S
Gd757 O811 2.412 . S
Gd757 C824 2.828 . S
C758 C761 1.417 . S
C758 C763 1.431 . S
C758 C764 1.412 . S
C759 C762 1.437 . S
C759 C763 1.317 . S
C759 H778 0.929 . S
C760 C761 1.426 . S
C760 C762 1.413 . S
C760 N770 1.359 . S
C761 C758 1.417 . S
C761 C760 1.426 . S
C761 N766 1.350 . S
C762 C759 1.437 . S
C762 C760 1.413 . S
C762 C772 1.391 . S
C763 C758 1.431 . S
C763 C759 1.317 . S
C763 H774 0.930 . S
C764 C758 1.412 . S
C764 C765 1.355 . S
C764 H776 0.930 . S
C765 C764 1.355 . S
C765 C767 1.402 . S
C765 H777 0.930 . S
N766 Gd757 2.661 . S
N766 C761 1.350 . S
N766 C767 1.307 . S
C767 C765 1.402 . S
C767 N766 1.307 . S
C767 H768 0.930 . S
H768 C767 0.930 . S
C769 N770 1.334 . S
C769 C771 1.394 . S
C769 H773 0.930 . S
N770 Gd757 2.601 . S
N770 C760 1.359 . S
N770 C769 1.334 . S
C771 C769 1.394 . S
C771 C772 1.359 . S
C771 H783 0.930 . S
C772 C762 1.391 . S
C772 C771 1.359 . S
C772 H784 0.929 . S
H773 C769 0.930 . S
H774 C763 0.930 . S
H775 C792 0.930 . S
H776 C764 0.930 . S
H777 C765 0.930 . S
H778 C759 0.929 . S
H779 C797 0.930 . S
H780 C788 0.930 . S
H781 C789 0.930 . S
H782 C813 0.929 . S
H783 C771 0.930 . S
H784 C772 0.929 . S
H785 C814 0.930 . S
H786 C795 0.930 . S
N787 Gd756 2.661 . S
N787 C791 1.350 . S
N787 C792 1.307 . S
C788 H780 0.930 . S
C788 C789 1.355 . S
C788 C790 1.412 . S
C789 H781 0.930 . S
C789 C788 1.355 . S
C789 C792 1.402 . S
C790 C788 1.412 . S
C790 C791 1.417 . S
C790 C814 1.431 . S
C791 N787 1.350 . S
C791 C790 1.417 . S
C791 C794 1.426 . S
C792 H775 0.930 . S
C792 N787 1.307 . S
C792 C789 1.402 . S
N793 Gd756 2.601 . S
N793 C794 1.359 . S
N793 C797 1.334 . S
C794 C791 1.426 . S
C794 N793 1.359 . S
C794 C798 1.413 . S
C795 H786 0.930 . S
C795 C796 1.359 . S
C795 C797 1.394 . S
C796 C795 1.359 . S
C796 C798 1.391 . S
C796 H799 0.929 . S
C797 H779 0.930 . S
C797 N793 1.334 . S
C797 C795 1.394 . S
C798 C794 1.413 . S
C798 C796 1.391 . S
C798 C813 1.437 . S
H799 C796 0.929 . S
O800 Gd756 2.545 . S
O800 C815 1.258 . S
O801 Gd756 2.606 . S
O801 Gd757 2.362 . S
O801 C812 1.284 . S
O802 Gd757 2.324 . S
O802 C822 1.254 . S
O803 Gd756 2.429 . S
O803 C822 1.268 . S
O804 Gd756 2.545 . S
O804 C812 1.250 . S
O805 Gd756 2.412 . S
O805 C815 1.252 . S
O806 Gd757 2.545 . S
O806 C824 1.258 . S
O807 Gd756 2.362 . S
O807 Gd757 2.606 . S
O807 C823 1.284 . S
O808 Gd756 2.324 . S
O808 C831 1.254 . S
O809 Gd757 2.429 . S
O809 C831 1.268 . S
O810 Gd757 2.545 . S
O810 C823 1.250 . S
O811 Gd757 2.412 . S
O811 C824 1.252 . S
C812 O801 1.284 . S
C812 O804 1.250 . S
C813 H782 0.929 . S
C813 C798 1.437 . S
C813 C814 1.317 . S
C814 H785 0.930 . S
C814 C790 1.431 . S
C814 C813 1.317 . S
C815 Gd756 2.828 . S
C815 O800 1.258 . S
C815 O805 1.252 . S
C815 C816 1.497 . S
C816 C815 1.497 . S
C816 C817 1.395 . S
C816 C818 1.380 . S
C817 C816 1.395 . S
C817 C820 1.398 . S
C817 H832 0.930 . S
C818 C816 1.380 . S
C818 C819 1.391 . S
C818 H833 0.930 . S
C819 C818 1.391 . S
C819 C821 1.387 . S
C820 C817 1.398 . S
C820 C821 1.380 . S
C820 H834 0.930 . S
C821 C819 1.387 . S
C821 C820 1.380 . S
C821 H835 0.930 . S
C822 O802 1.254 . S
C822 O803 1.268 . S
C823 O807 1.284 . S
C823 O810 1.250 . S
C824 Gd757 2.828 . S
C824 O806 1.258 . S
C824 O811 1.252 . S
C824 C825 1.497 . S
C825 C824 1.497 . S
C825 C826 1.395 . S
C825 C827 1.380 . S
C826 C825 1.395 . S
C826 C829 1.398 . S
C826 H836 0.930 . S
C827 C825 1.380 . S
C827 C828 1.391 . S
C827 H837 0.930 . S
C828 C827 1.391 . S
C828 C830 1.387 . S
C829 C826 1.398 . S
C829 C830 1.380 . S
C829 H838 0.930 . S
C830 C828 1.387 . S
C830 C829 1.380 . S
C830 H839 0.930 . S
C831 O808 1.254 . S
C831 O809 1.268 . S
H832 C817 0.930 . S
H833 C818 0.930 . S
H834 C820 0.930 . S
H835 C821 0.930 . S
H836 C826 0.930 . S
H837 C827 0.930 . S
H838 C829 0.930 . S
H839 C830 0.930 . S
Gd840 N871 2.661 . S
Gd840 N877 2.601 . S
Gd840 O884 2.545 . S
Gd840 O885 2.606 1_556 S
Gd840 O887 2.429 1_556 S
Gd840 O888 2.545 1_556 S
Gd840 O889 2.412 . S
Gd840 O891 2.362 1_556 S
Gd840 O892 2.324 . S
Gd840 C899 2.828 . S
Gd841 N850 2.661 . S
Gd841 N854 2.601 . S
Gd841 O885 2.362 . S
Gd841 O886 2.324 . S
Gd841 O890 2.539 1_545 S
Gd841 O891 2.606 . S
Gd841 O893 2.429 1_545 S
Gd841 O894 2.545 . S
Gd841 O895 2.412 . S
Gd841 C908 2.828 . S
C842 C845 1.417 . S
C842 C847 1.431 . S
C842 C848 1.412 . S
C843 C846 1.437 . S
C843 C847 1.317 . S
C843 H862 0.929 . S
C844 C845 1.426 . S
C844 C846 1.413 . S
C844 N854 1.359 . S
C845 C842 1.417 . S
C845 C844 1.426 . S
C845 N850 1.350 . S
C846 C843 1.437 . S
C846 C844 1.413 . S
C846 C856 1.391 1_545 S
C847 C842 1.431 . S
C847 C843 1.317 . S
C847 H858 0.930 . S
C848 C842 1.412 . S
C848 C849 1.355 . S
C848 H860 0.930 . S
C849 C848 1.355 . S
C849 C851 1.402 . S
C849 H861 0.930 . S
N850 Gd841 2.661 . S
N850 C845 1.350 . S
N850 C851 1.307 . S
C851 C849 1.402 . S
C851 N850 1.307 . S
C851 H852 0.930 . S
H852 C851 0.930 . S
C853 N854 1.334 1_565 S
C853 C855 1.394 . S
C853 H857 0.930 . S
N854 Gd841 2.601 . S
N854 C844 1.359 . S
N854 C853 1.334 1_545 S
C855 C853 1.394 . S
C855 C856 1.359 . S
C855 H867 0.930 . S
C856 C846 1.391 1_565 S
C856 C855 1.359 . S
C856 H868 0.929 . S
H857 C853 0.930 . S
H858 C847 0.930 . S
H859 C876 0.930 . S
H860 C848 0.930 . S
H861 C849 0.930 . S
H862 C843 0.929 . S
H863 C881 0.930 . S
H864 C872 0.930 . S
H865 C873 0.930 . S
H866 C897 0.929 . S
H867 C855 0.930 . S
H868 C856 0.929 . S
H869 C898 0.930 . S
H870 C879 0.930 . S
N871 Gd840 2.661 . S
N871 C875 1.350 . S
N871 C876 1.307 1_545 S
C872 H864 0.930 . S
C872 C873 1.355 . S
C872 C874 1.412 1_565 S
C873 H865 0.930 . S
C873 C872 1.355 . S
C873 C876 1.402 . S
C874 C872 1.412 1_545 S
C874 C875 1.417 . S
C874 C898 1.431 . S
C875 N871 1.350 . S
C875 C874 1.417 . S
C875 C878 1.426 . S
C876 H859 0.930 . S
C876 N871 1.307 1_565 S
C876 C873 1.402 . S
N877 Gd840 2.601 . S
N877 C878 1.359 . S
N877 C881 1.334 . S
C878 C875 1.426 . S
C878 N877 1.359 . S
C878 C882 1.413 . S
C879 H870 0.930 . S
C879 C880 1.359 . S
C879 C881 1.394 . S
C880 C879 1.359 . S
C880 C882 1.391 . S
C880 H883 0.929 . S
C881 H863 0.930 . S
C881 N877 1.334 . S
C881 C879 1.394 . S
C882 C878 1.413 . S
C882 C880 1.391 . S
C882 C897 1.437 . S
H883 C880 0.929 . S
O884 Gd840 2.545 . S
O884 C899 1.258 . S
O885 Gd840 2.606 1_554 S
O885 Gd841 2.362 . S
O885 C896 1.284 . S
O886 Gd841 2.324 . S
O886 C906 1.254 . S
O887 Gd840 2.429 1_554 S
O887 C906 1.268 . S
O888 Gd840 2.545 1_554 S
O888 C896 1.250 . S
O889 Gd840 2.412 . S
O889 C899 1.252 . S
O890 Gd841 2.539 1_565 S
O890 C908 1.252 1_565 S
O891 Gd840 2.362 1_554 S
O891 Gd841 2.606 . S
O891 C907 1.284 . S
O892 Gd840 2.324 . S
O892 C915 1.252 1_546 S
O893 Gd841 2.429 1_565 S
O893 C915 1.269 . S
O894 Gd841 2.545 . S
O894 C907 1.250 . S
O895 Gd841 2.412 . S
O895 C908 1.252 . S
C896 O885 1.284 . S
C896 O888 1.250 . S
C897 H866 0.929 . S
C897 C882 1.437 . S
C897 C898 1.317 . S
C898 H869 0.930 . S
C898 C874 1.431 . S
C898 C897 1.317 . S
C899 Gd840 2.828 . S
C899 O884 1.258 . S
C899 O889 1.252 . S
C899 C900 1.497 . S
C900 C899 1.497 . S
C900 C901 1.395 . S
C900 C902 1.380 . S
C901 C900 1.395 . S
C901 C904 1.398 . S
C901 H916 0.930 . S
C902 C900 1.380 . S
C902 C903 1.391 . S
C902 H917 0.930 . S
C903 C902 1.391 . S
C903 C905 1.387 . S
C904 C901 1.398 . S
C904 C905 1.380 . S
C904 H918 0.930 . S
C905 C903 1.387 . S
C905 C904 1.380 . S
C905 H919 0.930 . S
C906 O886 1.254 . S
C906 O887 1.268 . S
C907 O891 1.284 . S
C907 O894 1.250 . S
C908 Gd841 2.828 . S
C908 O890 1.252 1_545 S
C908 O895 1.252 . S
C908 C909 1.497 . S
C909 C908 1.497 . S
C909 C910 1.395 1_545 S
C909 C911 1.380 . S
C910 C909 1.395 1_565 S
C910 C913 1.398 . S
C910 H920 0.930 . S
C911 C909 1.380 . S
C911 C912 1.391 . S
C911 H921 0.930 . S
C912 C911 1.391 . S
C912 C914 1.387 1_545 S
C913 C910 1.398 . S
C913 C914 1.380 . S
C913 H922 0.930 . S
C914 C912 1.387 1_565 S
C914 C913 1.380 . S
C914 H923 0.930 . S
C915 O892 1.252 1_564 S
C915 O893 1.269 . S
H916 C901 0.930 . S
H917 C902 0.930 . S
H918 C904 0.930 . S
H919 C905 0.930 . S
H920 C910 0.930 . S
H921 C911 0.930 . S
H922 C913 0.930 . S
H923 C914 0.930 . S
Gd924 N955 2.661 . S
Gd924 N961 2.601 . S
Gd924 O968 2.545 . S
Gd924 O969 2.606 . S
Gd924 O971 2.429 . S
Gd924 O972 2.545 . S
Gd924 O973 2.412 . S
Gd924 O975 2.362 . S
Gd924 O976 2.324 . S
Gd924 C983 2.828 . S
Gd925 N934 2.661 . S
Gd925 N938 2.601 . S
Gd925 O969 2.362 . S
Gd925 O970 2.324 . S
Gd925 O974 2.545 . S
Gd925 O975 2.606 . S
Gd925 O977 2.429 . S
Gd925 O978 2.545 . S
Gd925 O979 2.412 . S
Gd925 C992 2.828 . S
C926 C929 1.417 . S
C926 C931 1.431 . S
C926 C932 1.412 . S
C927 C930 1.437 . S
C927 C931 1.317 . S
C927 H946 0.929 . S
C928 C929 1.426 . S
C928 C930 1.413 . S
C928 N938 1.359 . S
C929 C926 1.417 . S
C929 C928 1.426 . S
C929 N934 1.350 . S
C930 C927 1.437 . S
C930 C928 1.413 . S
C930 C940 1.391 . S
C931 C926 1.431 . S
C931 C927 1.317 . S
C931 H942 0.930 . S
C932 C926 1.412 . S
C932 C933 1.355 . S
C932 H944 0.930 . S
C933 C932 1.355 . S
C933 C935 1.402 . S
C933 H945 0.930 . S
N934 Gd925 2.661 . S
N934 C929 1.350 . S
N934 C935 1.307 . S
C935 C933 1.402 . S
C935 N934 1.307 . S
C935 H936 0.930 . S
H936 C935 0.930 . S
C937 N938 1.334 . S
C937 C939 1.394 . S
C937 H941 0.930 . S
N938 Gd925 2.601 . S
N938 C928 1.359 . S
N938 C937 1.334 . S
C939 C937 1.394 . S
C939 C940 1.359 . S
C939 H951 0.930 . S
C940 C930 1.391 . S
C940 C939 1.359 . S
C940 H952 0.929 . S
H941 C937 0.930 . S
H942 C931 0.930 . S
H943 C960 0.930 . S
H944 C932 0.930 . S
H945 C933 0.930 . S
H946 C927 0.929 . S
H947 C965 0.930 . S
H948 C956 0.930 . S
H949 C957 0.930 . S
H950 C981 0.929 . S
H951 C939 0.930 . S
H952 C940 0.929 . S
H953 C982 0.930 . S
H954 C963 0.930 . S
N955 Gd924 2.661 . S
N955 C959 1.350 . S
N955 C960 1.307 . S
C956 H948 0.930 . S
C956 C957 1.355 . S
C956 C958 1.412 . S
C957 H949 0.930 . S
C957 C956 1.355 . S
C957 C960 1.402 . S
C958 C956 1.412 . S
C958 C959 1.417 . S
C958 C982 1.431 . S
C959 N955 1.350 . S
C959 C958 1.417 . S
C959 C962 1.426 . S
C960 H943 0.930 . S
C960 N955 1.307 . S
C960 C957 1.402 . S
N961 Gd924 2.601 . S
N961 C962 1.359 . S
N961 C965 1.334 . S
C962 C959 1.426 . S
C962 N961 1.359 . S
C962 C966 1.413 . S
C963 H954 0.930 . S
C963 C964 1.359 . S
C963 C965 1.394 . S
C964 C963 1.359 . S
C964 C966 1.391 . S
C964 H967 0.929 . S
C965 H947 0.930 . S
C965 N961 1.334 . S
C965 C963 1.394 . S
C966 C962 1.413 . S
C966 C964 1.391 . S
C966 C981 1.437 . S
H967 C964 0.929 . S
O968 Gd924 2.545 . S
O968 C983 1.258 . S
O969 Gd924 2.606 . S
O969 Gd925 2.362 . S
O969 C980 1.284 . S
O970 Gd925 2.324 . S
O970 C990 1.254 . S
O971 Gd924 2.429 . S
O971 C990 1.268 . S
O972 Gd924 2.545 . S
O972 C980 1.250 . S
O973 Gd924 2.412 . S
O973 C983 1.252 . S
O974 Gd925 2.545 . S
O974 C992 1.258 . S
O975 Gd924 2.362 . S
O975 Gd925 2.606 . S
O975 C991 1.284 . S
O976 Gd924 2.324 . S
O976 C999 1.254 . S
O977 Gd925 2.429 . S
O977 C999 1.268 . S
O978 Gd925 2.545 . S
O978 C991 1.250 . S
O979 Gd925 2.412 . S
O979 C992 1.252 . S
C980 O969 1.284 . S
C980 O972 1.250 . S
C981 H950 0.929 . S
C981 C966 1.437 . S
C981 C982 1.317 . S
C982 H953 0.930 . S
C982 C958 1.431 . S
C982 C981 1.317 . S
C983 Gd924 2.828 . S
C983 O968 1.258 . S
C983 O973 1.252 . S
C983 C984 1.497 . S
C984 C983 1.497 . S
C984 C985 1.395 . S
C984 C986 1.380 . S
C985 C984 1.395 . S
C985 C988 1.398 . S
C985 H1000 0.930 . S
C986 C984 1.380 . S
C986 C987 1.391 . S
C986 H1001 0.930 . S
C987 C986 1.391 . S
C987 C989 1.387 . S
C988 C985 1.398 . S
C988 C989 1.380 . S
C988 H1002 0.930 . S
C989 C987 1.387 . S
C989 C988 1.380 . S
C989 H1003 0.930 . S
C990 O970 1.254 . S
C990 O971 1.268 . S
C991 O975 1.284 . S
C991 O978 1.250 . S
C992 Gd925 2.828 . S
C992 O974 1.258 . S
C992 O979 1.252 . S
C992 C993 1.497 . S
C993 C992 1.497 . S
C993 C994 1.395 . S
C993 C995 1.380 . S
C994 C993 1.395 . S
C994 C997 1.398 . S
C994 H1004 0.930 . S
C995 C993 1.380 . S
C995 C996 1.391 . S
C995 H1005 0.930 . S
C996 C995 1.391 . S
C996 C998 1.387 . S
C997 C994 1.398 . S
C997 C998 1.380 . S
C997 H1006 0.930 . S
C998 C996 1.387 . S
C998 C997 1.380 . S
C998 H1007 0.930 . S
C999 O976 1.254 . S
C999 O977 1.268 . S
H1000 C985 0.930 . S
H1001 C986 0.930 . S
H1002 C988 0.930 . S
H1003 C989 0.930 . S
H1004 C994 0.930 . S
H1005 C995 0.930 . S
H1006 C997 0.930 . S
H1007 C998 0.930 . S
Gd1008 N1039 2.661 1_554 S
Gd1008 N1045 2.601 1_554 S
Gd1008 O1052 2.545 . S
Gd1008 O1053 2.606 . S
Gd1008 O1055 2.429 . S
Gd1008 O1056 2.545 . S
Gd1008 O1057 2.412 . S
Gd1008 O1059 2.344 1_554 S
Gd1008 O1060 2.324 . S
Gd1008 C1067 2.828 . S
Gd1009 N1018 2.661 . S
Gd1009 N1022 2.601 . S
Gd1009 O1053 2.362 . S
Gd1009 O1054 2.324 . S
Gd1009 O1058 2.545 . S
Gd1009 O1059 2.583 1_554 S
Gd1009 O1061 2.429 . S
Gd1009 O1062 2.545 1_554 S
Gd1009 O1063 2.412 . S
Gd1009 C1076 2.828 . S
C1010 C1013 1.417 . S
C1010 C1015 1.431 . S
C1010 C1016 1.412 . S
C1011 C1014 1.437 . S
C1011 C1015 1.317 . S
C1011 H1030 0.929 . S
C1012 C1013 1.426 . S
C1012 C1014 1.413 . S
C1012 N1022 1.359 . S
C1013 C1010 1.417 . S
C1013 C1012 1.426 . S
C1013 N1018 1.350 . S
C1014 C1011 1.437 . S
C1014 C1012 1.413 . S
C1014 C1024 1.391 . S
C1015 C1010 1.431 . S
C1015 C1011 1.317 . S
C1015 H1026 0.930 . S
C1016 C1010 1.412 . S
C1016 C1017 1.355 . S
C1016 H1028 0.930 . S
C1017 C1016 1.355 . S
C1017 C1019 1.402 . S
C1017 H1029 0.930 . S
N1018 Gd1009 2.661 . S
N1018 C1013 1.350 . S
N1018 C1019 1.307 . S
C1019 C1017 1.402 . S
C1019 N1018 1.307 . S
C1019 H1020 0.930 . S
H1020 C1019 0.930 . S
C1021 N1022 1.334 . S
C1021 C1023 1.394 . S
C1021 H1025 0.930 . S
N1022 Gd1009 2.601 . S
N1022 C1012 1.359 . S
N1022 C1021 1.334 . S
C1023 C1021 1.394 . S
C1023 C1024 1.359 . S
C1023 H1035 0.930 . S
C1024 C1014 1.391 . S
C1024 C1023 1.359 . S
C1024 H1036 0.929 . S
H1025 C1021 0.930 . S
H1026 C1015 0.930 . S
H1027 C1044 0.930 . S
H1028 C1016 0.930 . S
H1029 C1017 0.930 . S
H1030 C1011 0.929 . S
H1031 C1049 0.930 . S
H1032 C1040 0.930 . S
H1033 C1041 0.930 . S
H1034 C1065 0.929 . S
H1035 C1023 0.930 . S
H1036 C1024 0.929 . S
H1037 C1066 0.930 . S
H1038 C1047 0.930 . S
N1039 Gd1008 2.661 1_556 S
N1039 C1043 1.350 . S
N1039 C1044 1.307 . S
C1040 H1032 0.930 . S
C1040 C1041 1.355 . S
C1040 C1042 1.412 . S
C1041 H1033 0.930 . S
C1041 C1040 1.355 . S
C1041 C1044 1.402 . S
C1042 C1040 1.412 . S
C1042 C1043 1.417 . S
C1042 C1066 1.431 . S
C1043 N1039 1.350 . S
C1043 C1042 1.417 . S
C1043 C1046 1.426 . S
C1044 H1027 0.930 . S
C1044 N1039 1.307 . S
C1044 C1041 1.402 . S
N1045 Gd1008 2.601 1_556 S
N1045 C1046 1.359 . S
N1045 C1049 1.334 . S
C1046 C1043 1.426 . S
C1046 N1045 1.359 . S
C1046 C1050 1.413 . S
C1047 H1038 0.930 . S
C1047 C1048 1.359 . S
C1047 C1049 1.394 . S
C1048 C1047 1.359 . S
C1048 C1050 1.391 . S
C1048 H1051 0.929 . S
C1049 H1031 0.930 . S
C1049 N1045 1.334 . S
C1049 C1047 1.394 . S
C1050 C1046 1.413 . S
C1050 C1048 1.391 . S
C1050 C1065 1.437 . S
H1051 C1048 0.929 . S
O1052 Gd1008 2.545 . S
O1052 C1067 1.258 . S
O1053 Gd1008 2.606 . S
O1053 Gd1009 2.362 . S
O1053 C1064 1.284 . S
O1054 Gd1009 2.324 . S
O1054 C1074 1.254 . S
O1055 Gd1008 2.429 . S
O1055 C1074 1.268 . S
O1056 Gd1008 2.545 . S
O1056 C1064 1.250 . S
O1057 Gd1008 2.412 . S
O1057 C1067 1.252 . S
O1058 Gd1009 2.545 . S
O1058 C1076 1.258 . S
O1059 Gd1008 2.344 1_556 S
O1059 Gd1009 2.583 1_556 S
O1059 C1075 1.311 . S
O1060 Gd1008 2.324 . S
O1060 C1083 1.254 . S
O1061 Gd1009 2.429 . S
O1061 C1083 1.268 . S
O1062 Gd1009 2.545 1_556 S
O1062 C1075 1.250 . S
O1063 Gd1009 2.412 . S
O1063 C1076 1.252 . S
C1064 O1053 1.284 . S
C1064 O1056 1.250 . S
C1065 H1034 0.929 . S
C1065 C1050 1.437 . S
C1065 C1066 1.317 . S
C1066 H1037 0.930 . S
C1066 C1042 1.431 . S
C1066 C1065 1.317 . S
C1067 Gd1008 2.828 . S
C1067 O1052 1.258 . S
C1067 O1057 1.252 . S
C1067 C1068 1.497 . S
C1068 C1067 1.497 . S
C1068 C1069 1.395 . S
C1068 C1070 1.380 . S
C1069 C1068 1.395 . S
C1069 C1072 1.398 . S
C1069 H1084 0.930 . S
C1070 C1068 1.380 . S
C1070 C1071 1.391 . S
C1070 H1085 0.930 . S
C1071 C1070 1.391 . S
C1071 C1073 1.387 . S
C1072 C1069 1.398 . S
C1072 C1073 1.380 . S
C1072 H1086 0.930 . S
C1073 C1071 1.387 . S
C1073 C1072 1.380 . S
C1073 H1087 0.930 . S
C1074 O1054 1.254 . S
C1074 O1055 1.268 . S
C1075 O1059 1.311 . S
C1075 O1062 1.250 . S
C1076 Gd1009 2.828 . S
C1076 O1058 1.258 . S
C1076 O1063 1.252 . S
C1076 C1077 1.497 . S
C1077 C1076 1.497 . S
C1077 C1078 1.395 . S
C1077 C1079 1.380 . S
C1078 C1077 1.395 . S
C1078 C1081 1.398 . S
C1078 H1088 0.930 . S
C1079 C1077 1.380 . S
C1079 C1080 1.391 . S
C1079 H1089 0.930 . S
C1080 C1079 1.391 . S
C1080 C1082 1.387 . S
C1081 C1078 1.398 . S
C1081 C1082 1.380 . S
C1081 H1090 0.930 . S
C1082 C1080 1.387 . S
C1082 C1081 1.380 . S
C1082 H1091 0.930 . S
C1083 O1060 1.254 . S
C1083 O1061 1.268 . S
H1084 C1069 0.930 . S
H1085 C1070 0.930 . S
H1086 C1072 0.930 . S
H1087 C1073 0.930 . S
H1088 C1078 0.930 . S
H1089 C1079 0.930 . S
H1090 C1081 0.930 . S
H1091 C1082 0.930 . S
Gd1092 N1123 2.661 . S
Gd1092 N1129 2.601 . S
Gd1092 O1136 2.545 . S
Gd1092 O1137 2.606 . S
Gd1092 O1139 2.429 . S
Gd1092 O1140 2.545 . S
Gd1092 O1141 2.412 . S
Gd1092 O1143 2.362 . S
Gd1092 O1144 2.324 . S
Gd1092 C1151 2.828 . S
Gd1093 N1102 2.661 . S
Gd1093 N1106 2.601 . S
Gd1093 O1137 2.362 . S
Gd1093 O1138 2.324 . S
Gd1093 O1142 2.545 . S
Gd1093 O1143 2.606 . S
Gd1093 O1145 2.429 . S
Gd1093 O1146 2.545 . S
Gd1093 O1147 2.412 . S
Gd1093 C1160 2.828 . S
C1094 C1097 1.417 . S
C1094 C1099 1.431 . S
C1094 C1100 1.412 . S
C1095 C1098 1.437 . S
C1095 C1099 1.317 . S
C1095 H1114 0.929 . S
C1096 C1097 1.426 . S
C1096 C1098 1.413 . S
C1096 N1106 1.359 . S
C1097 C1094 1.417 . S
C1097 C1096 1.426 . S
C1097 N1102 1.350 . S
C1098 C1095 1.437 . S
C1098 C1096 1.413 . S
C1098 C1108 1.391 . S
C1099 C1094 1.431 . S
C1099 C1095 1.317 . S
C1099 H1110 0.930 . S
C1100 C1094 1.412 . S
C1100 C1101 1.355 . S
C1100 H1112 0.930 . S
C1101 C1100 1.355 . S
C1101 C1103 1.402 . S
C1101 H1113 0.930 . S
N1102 Gd1093 2.661 . S
N1102 C1097 1.350 . S
N1102 C1103 1.307 . S
C1103 C1101 1.402 . S
C1103 N1102 1.307 . S
C1103 H1104 0.930 . S
H1104 C1103 0.930 . S
C1105 N1106 1.334 . S
C1105 C1107 1.394 . S
C1105 H1109 0.930 . S
N1106 Gd1093 2.601 . S
N1106 C1096 1.359 . S
N1106 C1105 1.334 . S
C1107 C1105 1.394 . S
C1107 C1108 1.359 . S
C1107 H1119 0.930 . S
C1108 C1098 1.391 . S
C1108 C1107 1.359 . S
C1108 H1120 0.929 . S
H1109 C1105 0.930 . S
H1110 C1099 0.930 . S
H1111 C1128 0.930 . S
H1112 C1100 0.930 . S
H1113 C1101 0.930 . S
H1114 C1095 0.929 . S
H1115 C1133 0.930 . S
H1116 C1124 0.930 . S
H1117 C1125 0.930 . S
H1118 C1149 0.929 . S
H1119 C1107 0.930 . S
H1120 C1108 0.929 . S
H1121 C1150 0.930 . S
H1122 C1131 0.930 . S
N1123 Gd1092 2.661 . S
N1123 C1127 1.350 . S
N1123 C1128 1.307 . S
C1124 H1116 0.930 . S
C1124 C1125 1.355 . S
C1124 C1126 1.412 . S
C1125 H1117 0.930 . S
C1125 C1124 1.355 . S
C1125 C1128 1.402 . S
C1126 C1124 1.412 . S
C1126 C1127 1.417 . S
C1126 C1150 1.431 . S
C1127 N1123 1.350 . S
C1127 C1126 1.417 . S
C1127 C1130 1.426 . S
C1128 H1111 0.930 . S
C1128 N1123 1.307 . S
C1128 C1125 1.402 . S
N1129 Gd1092 2.601 . S
N1129 C1130 1.359 . S
N1129 C1133 1.334 . S
C1130 C1127 1.426 . S
C1130 N1129 1.359 . S
C1130 C1134 1.413 . S
C1131 H1122 0.930 . S
C1131 C1132 1.359 . S
C1131 C1133 1.394 . S
C1132 C1131 1.359 . S
C1132 C1134 1.391 . S
C1132 H1135 0.929 . S
C1133 H1115 0.930 . S
C1133 N1129 1.334 . S
C1133 C1131 1.394 . S
C1134 C1130 1.413 . S
C1134 C1132 1.391 . S
C1134 C1149 1.437 . S
H1135 C1132 0.929 . S
O1136 Gd1092 2.545 . S
O1136 C1151 1.258 . S
O1137 Gd1092 2.606 . S
O1137 Gd1093 2.362 . S
O1137 C1148 1.284 . S
O1138 Gd1093 2.324 . S
O1138 C1158 1.254 . S
O1139 Gd1092 2.429 . S
O1139 C1158 1.268 . S
O1140 Gd1092 2.545 . S
O1140 C1148 1.250 . S
O1141 Gd1092 2.412 . S
O1141 C1151 1.252 . S
O1142 Gd1093 2.545 . S
O1142 C1160 1.258 . S
O1143 Gd1092 2.362 . S
O1143 Gd1093 2.606 . S
O1143 C1159 1.284 . S
O1144 Gd1092 2.324 . S
O1144 C1167 1.254 . S
O1145 Gd1093 2.429 . S
O1145 C1167 1.268 . S
O1146 Gd1093 2.545 . S
O1146 C1159 1.250 . S
O1147 Gd1093 2.412 . S
O1147 C1160 1.252 . S
C1148 O1137 1.284 . S
C1148 O1140 1.250 . S
C1149 H1118 0.929 . S
C1149 C1134 1.437 . S
C1149 C1150 1.317 . S
C1150 H1121 0.930 . S
C1150 C1126 1.431 . S
C1150 C1149 1.317 . S
C1151 Gd1092 2.828 . S
C1151 O1136 1.258 . S
C1151 O1141 1.252 . S
C1151 C1152 1.497 . S
C1152 C1151 1.497 . S
C1152 C1153 1.395 . S
C1152 C1154 1.380 . S
C1153 C1152 1.395 . S
C1153 C1156 1.398 . S
C1153 H1168 0.930 . S
C1154 C1152 1.380 . S
C1154 C1155 1.391 . S
C1154 H1169 0.930 . S
C1155 C1154 1.391 . S
C1155 C1157 1.387 . S
C1156 C1153 1.398 . S
C1156 C1157 1.380 . S
C1156 H1170 0.930 . S
C1157 C1155 1.387 . S
C1157 C1156 1.380 . S
C1157 H1171 0.930 . S
C1158 O1138 1.254 . S
C1158 O1139 1.268 . S
C1159 O1143 1.284 . S
C1159 O1146 1.250 . S
C1160 Gd1093 2.828 . S
C1160 O1142 1.258 . S
C1160 O1147 1.252 . S
C1160 C1161 1.497 . S
C1161 C1160 1.497 . S
C1161 C1162 1.395 . S
C1161 C1163 1.380 . S
C1162 C1161 1.395 . S
C1162 C1165 1.398 . S
C1162 H1172 0.930 . S
C1163 C1161 1.380 . S
C1163 C1164 1.391 . S
C1163 H1173 0.930 . S
C1164 C1163 1.391 . S
C1164 C1166 1.387 . S
C1165 C1162 1.398 . S
C1165 C1166 1.380 . S
C1165 H1174 0.930 . S
C1166 C1164 1.387 . S
C1166 C1165 1.380 . S
C1166 H1175 0.930 . S
C1167 O1144 1.254 . S
C1167 O1145 1.268 . S
H1168 C1153 0.930 . S
H1169 C1154 0.930 . S
H1170 C1156 0.930 . S
H1171 C1157 0.930 . S
H1172 C1162 0.930 . S
H1173 C1163 0.930 . S
H1174 C1165 0.930 . S
H1175 C1166 0.930 . S
Gd1176 N1207 2.661 . S
Gd1176 N1213 2.601 . S
Gd1176 O1220 2.545 . S
Gd1176 O1221 2.606 . S
Gd1176 O1223 2.429 . S
Gd1176 O1224 2.545 . S
Gd1176 O1225 2.412 . S
Gd1176 O1227 2.362 . S
Gd1176 O1228 2.324 . S
Gd1176 C1235 2.828 . S
Gd1177 N1186 2.661 . S
Gd1177 N1190 2.601 . S
Gd1177 O1221 2.362 . S
Gd1177 O1222 2.324 . S
Gd1177 O1226 2.545 . S
Gd1177 O1227 2.606 . S
Gd1177 O1229 2.429 . S
Gd1177 O1230 2.545 . S
Gd1177 O1231 2.412 . S
Gd1177 C1244 2.828 . S
C1178 C1181 1.417 . S
C1178 C1183 1.431 . S
C1178 C1184 1.412 . S
C1179 C1182 1.437 . S
C1179 C1183 1.317 . S
C1179 H1198 0.929 . S
C1180 C1181 1.426 . S
C1180 C1182 1.413 . S
C1180 N1190 1.359 . S
C1181 C1178 1.417 . S
C1181 C1180 1.426 . S
C1181 N1186 1.350 . S
C1182 C1179 1.437 . S
C1182 C1180 1.413 . S
C1182 C1192 1.391 . S
C1183 C1178 1.431 . S
C1183 C1179 1.317 . S
C1183 H1194 0.930 . S
C1184 C1178 1.412 . S
C1184 C1185 1.355 . S
C1184 H1196 0.930 . S
C1185 C1184 1.355 . S
C1185 C1187 1.402 . S
C1185 H1197 0.930 . S
N1186 Gd1177 2.661 . S
N1186 C1181 1.350 . S
N1186 C1187 1.307 . S
C1187 C1185 1.402 . S
C1187 N1186 1.307 . S
C1187 H1188 0.930 . S
H1188 C1187 0.930 . S
C1189 N1190 1.334 . S
C1189 C1191 1.394 . S
C1189 H1193 0.930 . S
N1190 Gd1177 2.601 . S
N1190 C1180 1.359 . S
N1190 C1189 1.334 . S
C1191 C1189 1.394 . S
C1191 C1192 1.359 . S
C1191 H1203 0.930 . S
C1192 C1182 1.391 . S
C1192 C1191 1.359 . S
C1192 H1204 0.929 . S
H1193 C1189 0.930 . S
H1194 C1183 0.930 . S
H1195 C1212 0.930 . S
H1196 C1184 0.930 . S
H1197 C1185 0.930 . S
H1198 C1179 0.929 . S
H1199 C1217 0.930 . S
H1200 C1208 0.930 . S
H1201 C1209 0.942 1_655 S
H1202 C1233 0.929 . S
H1203 C1191 0.930 . S
H1204 C1192 0.929 . S
H1205 C1234 0.930 . S
H1206 C1215 0.930 . S
N1207 Gd1176 2.661 . S
N1207 C1211 1.350 . S
N1207 C1212 1.307 . S
C1208 H1200 0.930 . S
C1208 C1209 1.337 1_655 S
C1208 C1210 1.412 . S
C1209 H1201 0.942 1_455 S
C1209 C1208 1.337 1_455 S
C1209 C1212 1.415 . S
C1210 C1208 1.412 . S
C1210 C1211 1.417 1_655 S
C1210 C1234 1.431 . S
C1211 N1207 1.350 . S
C1211 C1210 1.417 1_455 S
C1211 C1214 1.426 . S
C1212 H1195 0.930 . S
C1212 N1207 1.307 . S
C1212 C1209 1.415 . S
N1213 Gd1176 2.601 . S
N1213 C1214 1.359 . S
N1213 C1217 1.334 . S
C1214 C1211 1.426 . S
C1214 N1213 1.359 . S
C1214 C1218 1.413 1_455 S
C1215 H1206 0.930 . S
C1215 C1216 1.359 1_455 S
C1215 C1217 1.394 . S
C1216 C1215 1.359 1_655 S
C1216 C1218 1.391 . S
C1216 H1219 0.929 . S
C1217 H1199 0.930 . S
C1217 N1213 1.334 . S
C1217 C1215 1.394 . S
C1218 C1214 1.413 1_655 S
C1218 C1216 1.391 . S
C1218 C1233 1.437 . S
H1219 C1216 0.929 . S
O1220 Gd1176 2.545 . S
O1220 C1235 1.258 . S
O1221 Gd1176 2.606 . S
O1221 Gd1177 2.362 . S
O1221 C1232 1.284 . S
O1222 Gd1177 2.324 . S
O1222 C1242 1.254 . S
O1223 Gd1176 2.429 . S
O1223 C1242 1.268 . S
O1224 Gd1176 2.545 . S
O1224 C1232 1.250 . S
O1225 Gd1176 2.412 . S
O1225 C1235 1.252 . S
O1226 Gd1177 2.545 . S
O1226 C1244 1.258 . S
O1227 Gd1176 2.362 . S
O1227 Gd1177 2.606 . S
O1227 C1243 1.284 . S
O1228 Gd1176 2.324 . S
O1228 C1251 1.254 . S
O1229 Gd1177 2.429 . S
O1229 C1251 1.268 . S
O1230 Gd1177 2.545 . S
O1230 C1243 1.250 . S
O1231 Gd1177 2.412 . S
O1231 C1244 1.252 . S
C1232 O1221 1.284 . S
C1232 O1224 1.250 . S
C1233 H1202 0.929 . S
C1233 C1218 1.437 . S
C1233 C1234 1.317 . S
C1234 H1205 0.930 . S
C1234 C1210 1.431 . S
C1234 C1233 1.317 . S
C1235 Gd1176 2.828 . S
C1235 O1220 1.258 . S
C1235 O1225 1.252 . S
C1235 C1236 1.497 . S
C1236 C1235 1.497 . S
C1236 C1237 1.395 . S
C1236 C1238 1.380 . S
C1237 C1236 1.395 . S
C1237 C1240 1.398 . S
C1237 H1252 0.930 . S
C1238 C1236 1.380 . S
C1238 C1239 1.391 . S
C1238 H1253 0.930 . S
C1239 C1238 1.391 . S
C1239 C1241 1.387 . S
C1240 C1237 1.398 . S
C1240 C1241 1.380 . S
C1240 H1254 0.930 . S
C1241 C1239 1.387 . S
C1241 C1240 1.380 . S
C1241 H1255 0.930 . S
C1242 O1222 1.254 . S
C1242 O1223 1.268 . S
C1243 O1227 1.284 . S
C1243 O1230 1.250 . S
C1244 Gd1177 2.828 . S
C1244 O1226 1.258 . S
C1244 O1231 1.252 . S
C1244 C1245 1.497 . S
C1245 C1244 1.497 . S
C1245 C1246 1.395 . S
C1245 C1247 1.380 . S
C1246 C1245 1.395 . S
C1246 C1249 1.398 . S
C1246 H1256 0.930 . S
C1247 C1245 1.380 . S
C1247 C1248 1.391 . S
C1247 H1257 0.930 . S
C1248 C1247 1.391 . S
C1248 C1250 1.387 . S
C1249 C1246 1.398 . S
C1249 C1250 1.380 . S
C1249 H1258 0.930 . S
C1250 C1248 1.387 . S
C1250 C1249 1.380 . S
C1250 H1259 0.930 . S
C1251 O1228 1.254 . S
C1251 O1229 1.268 . S
H1252 C1237 0.930 . S
H1253 C1238 0.930 . S
H1254 C1240 0.930 . S
H1255 C1241 0.930 . S
H1256 C1246 0.930 . S
H1257 C1247 0.930 . S
H1258 C1249 0.930 . S
H1259 C1250 0.930 . S
Gd1260 N1291 2.661 . S
Gd1260 N1297 2.601 . S
Gd1260 O1304 2.545 . S
Gd1260 O1305 2.606 . S
Gd1260 O1307 2.429 . S
Gd1260 O1308 2.545 . S
Gd1260 O1309 2.412 . S
Gd1260 O1311 2.362 . S
Gd1260 O1312 2.324 . S
Gd1260 C1319 2.828 . S
Gd1261 N1270 2.661 . S
Gd1261 N1274 2.601 . S
Gd1261 O1305 2.362 . S
Gd1261 O1306 2.324 . S
Gd1261 O1310 2.545 . S
Gd1261 O1311 2.606 . S
Gd1261 O1313 2.429 . S
Gd1261 O1314 2.545 . S
Gd1261 O1315 2.412 . S
Gd1261 C1328 2.828 . S
C1262 C1265 1.417 . S
C1262 C1267 1.431 . S
C1262 C1268 1.412 . S
C1263 C1266 1.437 . S
C1263 C1267 1.317 . S
C1263 H1282 0.929 . S
C1264 C1265 1.426 . S
C1264 C1266 1.413 . S
C1264 N1274 1.359 . S
C1265 C1262 1.417 . S
C1265 C1264 1.426 . S
C1265 N1270 1.350 . S
C1266 C1263 1.437 . S
C1266 C1264 1.413 . S
C1266 C1276 1.391 . S
C1267 C1262 1.431 . S
C1267 C1263 1.317 . S
C1267 H1278 0.930 . S
C1268 C1262 1.412 . S
C1268 C1269 1.355 . S
C1268 H1280 0.930 . S
C1269 C1268 1.355 . S
C1269 C1271 1.402 . S
C1269 H1281 0.930 . S
N1270 Gd1261 2.661 . S
N1270 C1265 1.350 . S
N1270 C1271 1.307 . S
C1271 C1269 1.402 . S
C1271 N1270 1.307 . S
C1271 H1272 0.930 . S
H1272 C1271 0.930 . S
C1273 N1274 1.334 . S
C1273 C1275 1.394 . S
C1273 H1277 0.930 . S
N1274 Gd1261 2.601 . S
N1274 C1264 1.359 . S
N1274 C1273 1.334 . S
C1275 C1273 1.394 . S
C1275 C1276 1.359 . S
C1275 H1287 0.930 . S
C1276 C1266 1.391 . S
C1276 C1275 1.359 . S
C1276 H1288 0.929 . S
H1277 C1273 0.930 . S
H1278 C1267 0.930 . S
H1279 C1296 0.930 . S
H1280 C1268 0.930 . S
H1281 C1269 0.930 . S
H1282 C1263 0.929 . S
H1283 C1301 0.930 . S
H1284 C1292 0.930 . S
H1285 C1293 0.930 . S
H1286 C1317 0.929 . S
H1287 C1275 0.930 . S
H1288 C1276 0.929 . S
H1289 C1318 0.930 . S
H1290 C1299 0.930 . S
N1291 Gd1260 2.661 . S
N1291 C1295 1.350 . S
N1291 C1296 1.307 . S
C1292 H1284 0.930 . S
C1292 C1293 1.355 . S
C1292 C1294 1.412 . S
C1293 H1285 0.930 . S
C1293 C1292 1.355 . S
C1293 C1296 1.402 . S
C1294 C1292 1.412 . S
C1294 C1295 1.417 . S
C1294 C1318 1.431 . S
C1295 N1291 1.350 . S
C1295 C1294 1.417 . S
C1295 C1298 1.426 . S
C1296 H1279 0.930 . S
C1296 N1291 1.307 . S
C1296 C1293 1.402 . S
N1297 Gd1260 2.601 . S
N1297 C1298 1.359 . S
N1297 C1301 1.334 . S
C1298 C1295 1.426 . S
C1298 N1297 1.359 . S
C1298 C1302 1.413 . S
C1299 H1290 0.930 . S
C1299 C1300 1.359 . S
C1299 C1301 1.394 . S
C1300 C1299 1.359 . S
C1300 C1302 1.391 . S
C1300 H1303 0.929 . S
C1301 H1283 0.930 . S
C1301 N1297 1.334 . S
C1301 C1299 1.394 . S
C1302 C1298 1.413 . S
C1302 C1300 1.391 . S
C1302 C1317 1.437 . S
H1303 C1300 0.929 . S
O1304 Gd1260 2.545 . S
O1304 C1319 1.258 . S
O1305 Gd1260 2.606 . S
O1305 Gd1261 2.362 . S
O1305 C1316 1.284 . S
O1306 Gd1261 2.324 . S
O1306 C1326 1.254 . S
O1307 Gd1260 2.429 . S
O1307 C1326 1.268 . S
O1308 Gd1260 2.545 . S
O1308 C1316 1.250 . S
O1309 Gd1260 2.412 . S
O1309 C1319 1.252 . S
O1310 Gd1261 2.545 . S
O1310 C1328 1.258 . S
O1311 Gd1260 2.362 . S
O1311 Gd1261 2.606 . S
O1311 C1327 1.284 . S
O1312 Gd1260 2.324 . S
O1312 C1335 1.254 . S
O1313 Gd1261 2.429 . S
O1313 C1335 1.268 . S
O1314 Gd1261 2.545 . S
O1314 C1327 1.250 . S
O1315 Gd1261 2.412 . S
O1315 C1328 1.252 . S
C1316 O1305 1.284 . S
C1316 O1308 1.250 . S
C1317 H1286 0.929 . S
C1317 C1302 1.437 . S
C1317 C1318 1.317 . S
C1318 H1289 0.930 . S
C1318 C1294 1.431 . S
C1318 C1317 1.317 . S
C1319 Gd1260 2.828 . S
C1319 O1304 1.258 . S
C1319 O1309 1.252 . S
C1319 C1320 1.497 . S
C1320 C1319 1.497 . S
C1320 C1321 1.395 . S
C1320 C1322 1.380 . S
C1321 C1320 1.395 . S
C1321 C1324 1.398 . S
C1321 H1336 0.930 . S
C1322 C1320 1.380 . S
C1322 C1323 1.391 . S
C1322 H1337 0.930 . S
C1323 C1322 1.391 . S
C1323 C1325 1.387 . S
C1324 C1321 1.398 . S
C1324 C1325 1.380 . S
C1324 H1338 0.930 . S
C1325 C1323 1.387 . S
C1325 C1324 1.380 . S
C1325 H1339 0.930 . S
C1326 O1306 1.254 . S
C1326 O1307 1.268 . S
C1327 O1311 1.284 . S
C1327 O1314 1.250 . S
C1328 Gd1261 2.828 . S
C1328 O1310 1.258 . S
C1328 O1315 1.252 . S
C1328 C1329 1.497 . S
C1329 C1328 1.497 . S
C1329 C1330 1.395 . S
C1329 C1331 1.380 . S
C1330 C1329 1.395 . S
C1330 C1333 1.398 . S
C1330 H1340 0.930 . S
C1331 C1329 1.380 . S
C1331 C1332 1.391 . S
C1331 H1341 0.930 . S
C1332 C1331 1.391 . S
C1332 C1334 1.387 . S
C1333 C1330 1.398 . S
C1333 C1334 1.380 . S
C1333 H1342 0.930 . S
C1334 C1332 1.387 . S
C1334 C1333 1.380 . S
C1334 H1343 0.930 . S
C1335 O1312 1.254 . S
C1335 O1313 1.268 . S
H1336 C1321 0.930 . S
H1337 C1322 0.930 . S
H1338 C1324 0.930 . S
H1339 C1325 0.930 . S
H1340 C1330 0.930 . S
H1341 C1331 0.930 . S
H1342 C1333 0.930 . S
H1343 C1334 0.930 . S
Gd1344 N1375 2.661 . S
Gd1344 N1381 2.601 . S
Gd1344 O1388 2.545 . S
Gd1344 O1389 2.606 . S
Gd1344 O1391 2.429 . S
Gd1344 O1392 2.545 . S
Gd1344 O1393 2.412 . S
Gd1344 O1395 2.362 . S
Gd1344 O1396 2.324 . S
Gd1344 C1403 2.828 . S
Gd1345 N1354 2.661 . S
Gd1345 N1358 2.601 . S
Gd1345 O1389 2.362 . S
Gd1345 O1390 2.324 . S
Gd1345 O1394 2.545 . S
Gd1345 O1395 2.606 . S
Gd1345 O1397 2.429 . S
Gd1345 O1398 2.545 . S
Gd1345 O1399 2.412 . S
Gd1345 C1412 2.828 . S
C1346 C1349 1.417 . S
C1346 C1351 1.431 . S
C1346 C1352 1.412 . S
C1347 C1350 1.437 . S
C1347 C1351 1.317 . S
C1347 H1366 0.929 . S
C1348 C1349 1.426 . S
C1348 C1350 1.413 . S
C1348 N1358 1.359 . S
C1349 C1346 1.417 . S
C1349 C1348 1.426 . S
C1349 N1354 1.350 . S
C1350 C1347 1.437 . S
C1350 C1348 1.413 . S
C1350 C1360 1.391 . S
C1351 C1346 1.431 . S
C1351 C1347 1.317 . S
C1351 H1362 0.930 . S
C1352 C1346 1.412 . S
C1352 C1353 1.355 . S
C1352 H1364 0.930 . S
C1353 C1352 1.355 . S
C1353 C1355 1.402 . S
C1353 H1365 0.930 . S
N1354 Gd1345 2.661 . S
N1354 C1349 1.350 . S
N1354 C1355 1.307 . S
C1355 C1353 1.402 . S
C1355 N1354 1.307 . S
C1355 H1356 0.930 . S
H1356 C1355 0.930 . S
C1357 N1358 1.334 . S
C1357 C1359 1.394 . S
C1357 H1361 0.930 . S
N1358 Gd1345 2.601 . S
N1358 C1348 1.359 . S
N1358 C1357 1.334 . S
C1359 C1357 1.394 . S
C1359 C1360 1.359 . S
C1359 H1371 0.930 . S
C1360 C1350 1.391 . S
C1360 C1359 1.359 . S
C1360 H1372 0.929 . S
H1361 C1357 0.930 . S
H1362 C1351 0.930 . S
H1363 C1380 0.930 . S
H1364 C1352 0.930 . S
H1365 C1353 0.930 . S
H1366 C1347 0.929 . S
H1367 C1385 0.930 . S
H1368 C1376 0.930 . S
H1369 C1377 0.930 . S
H1370 C1401 0.929 . S
H1371 C1359 0.930 . S
H1372 C1360 0.929 . S
H1373 C1402 0.930 . S
H1374 C1383 0.930 . S
N1375 Gd1344 2.661 . S
N1375 C1379 1.350 . S
N1375 C1380 1.307 . S
C1376 H1368 0.930 . S
C1376 C1377 1.355 . S
C1376 C1378 1.412 . S
C1377 H1369 0.930 . S
C1377 C1376 1.355 . S
C1377 C1380 1.402 . S
C1378 C1376 1.412 . S
C1378 C1379 1.417 . S
C1378 C1402 1.431 . S
C1379 N1375 1.350 . S
C1379 C1378 1.417 . S
C1379 C1382 1.426 . S
C1380 H1363 0.930 . S
C1380 N1375 1.307 . S
C1380 C1377 1.402 . S
N1381 Gd1344 2.601 . S
N1381 C1382 1.359 . S
N1381 C1385 1.334 . S
C1382 C1379 1.426 . S
C1382 N1381 1.359 . S
C1382 C1386 1.413 . S
C1383 H1374 0.930 . S
C1383 C1384 1.359 . S
C1383 C1385 1.394 . S
C1384 C1383 1.359 . S
C1384 C1386 1.391 . S
C1384 H1387 0.929 . S
C1385 H1367 0.930 . S
C1385 N1381 1.334 . S
C1385 C1383 1.394 . S
C1386 C1382 1.413 . S
C1386 C1384 1.391 . S
C1386 C1401 1.437 . S
H1387 C1384 0.929 . S
O1388 Gd1344 2.545 . S
O1388 C1403 1.258 . S
O1389 Gd1344 2.606 . S
O1389 Gd1345 2.362 . S
O1389 C1400 1.284 . S
O1390 Gd1345 2.324 . S
O1390 C1410 1.254 . S
O1391 Gd1344 2.429 . S
O1391 C1410 1.268 . S
O1392 Gd1344 2.545 . S
O1392 C1400 1.250 . S
O1393 Gd1344 2.412 . S
O1393 C1403 1.252 . S
O1394 Gd1345 2.545 . S
O1394 C1412 1.258 . S
O1395 Gd1344 2.362 . S
O1395 Gd1345 2.606 . S
O1395 C1411 1.284 . S
O1396 Gd1344 2.324 . S
O1396 C1419 1.254 . S
O1397 Gd1345 2.429 . S
O1397 C1419 1.268 . S
O1398 Gd1345 2.545 . S
O1398 C1411 1.250 . S
O1399 Gd1345 2.412 . S
O1399 C1412 1.252 . S
C1400 O1389 1.284 . S
C1400 O1392 1.250 . S
C1401 H1370 0.929 . S
C1401 C1386 1.437 . S
C1401 C1402 1.317 . S
C1402 H1373 0.930 . S
C1402 C1378 1.431 . S
C1402 C1401 1.317 . S
C1403 Gd1344 2.828 . S
C1403 O1388 1.258 . S
C1403 O1393 1.252 . S
C1403 C1404 1.497 . S
C1404 C1403 1.497 . S
C1404 C1405 1.395 . S
C1404 C1406 1.380 . S
C1405 C1404 1.395 . S
C1405 C1408 1.398 . S
C1405 H1420 0.930 . S
C1406 C1404 1.380 . S
C1406 C1407 1.391 . S
C1406 H1421 0.930 . S
C1407 C1406 1.391 . S
C1407 C1409 1.387 . S
C1408 C1405 1.398 . S
C1408 C1409 1.380 . S
C1408 H1422 0.930 . S
C1409 C1407 1.387 . S
C1409 C1408 1.380 . S
C1409 H1423 0.930 . S
C1410 O1390 1.254 . S
C1410 O1391 1.268 . S
C1411 O1395 1.284 . S
C1411 O1398 1.250 . S
C1412 Gd1345 2.828 . S
C1412 O1394 1.258 . S
C1412 O1399 1.252 . S
C1412 C1413 1.497 . S
C1413 C1412 1.497 . S
C1413 C1414 1.395 . S
C1413 C1415 1.380 . S
C1414 C1413 1.395 . S
C1414 C1417 1.398 . S
C1414 H1424 0.930 . S
C1415 C1413 1.380 . S
C1415 C1416 1.391 . S
C1415 H1425 0.930 . S
C1416 C1415 1.391 . S
C1416 C1418 1.387 . S
C1417 C1414 1.398 . S
C1417 C1418 1.380 . S
C1417 H1426 0.930 . S
C1418 C1416 1.387 . S
C1418 C1417 1.380 . S
C1418 H1427 0.930 . S
C1419 O1396 1.254 . S
C1419 O1397 1.268 . S
H1420 C1405 0.930 . S
H1421 C1406 0.930 . S
H1422 C1408 0.930 . S
H1423 C1409 0.930 . S
H1424 C1414 0.930 . S
H1425 C1415 0.930 . S
H1426 C1417 0.930 . S
H1427 C1418 0.930 . S
Gd1428 N1459 2.661 . S
Gd1428 N1465 2.601 . S
Gd1428 O1472 2.545 . S
Gd1428 O1473 2.606 . S
Gd1428 O1475 2.429 . S
Gd1428 O1476 2.545 . S
Gd1428 O1477 2.412 . S
Gd1428 O1479 2.362 . S
Gd1428 O1480 2.324 . S
Gd1428 C1487 2.828 . S
Gd1429 N1438 2.661 . S
Gd1429 N1442 2.601 . S
Gd1429 O1473 2.362 . S
Gd1429 O1474 2.324 . S
Gd1429 O1478 2.545 . S
Gd1429 O1479 2.606 . S
Gd1429 O1481 2.429 . S
Gd1429 O1482 2.545 . S
Gd1429 O1483 2.412 . S
Gd1429 C1496 2.828 . S
C1430 C1433 1.417 . S
C1430 C1435 1.431 . S
C1430 C1436 1.412 . S
C1431 C1434 1.437 . S
C1431 C1435 1.317 . S
C1431 H1450 0.929 . S
C1432 C1433 1.426 . S
C1432 C1434 1.413 . S
C1432 N1442 1.359 . S
C1433 C1430 1.417 . S
C1433 C1432 1.426 . S
C1433 N1438 1.350 . S
C1434 C1431 1.437 . S
C1434 C1432 1.413 . S
C1434 C1444 1.391 . S
C1435 C1430 1.431 . S
C1435 C1431 1.317 . S
C1435 H1446 0.930 . S
C1436 C1430 1.412 . S
C1436 C1437 1.355 . S
C1436 H1448 0.930 . S
C1437 C1436 1.355 . S
C1437 C1439 1.402 . S
C1437 H1449 0.930 . S
N1438 Gd1429 2.661 . S
N1438 C1433 1.350 . S
N1438 C1439 1.307 . S
C1439 C1437 1.402 . S
C1439 N1438 1.307 . S
C1439 H1440 0.930 . S
H1440 C1439 0.930 . S
C1441 N1442 1.334 . S
C1441 C1443 1.394 . S
C1441 H1445 0.930 . S
N1442 Gd1429 2.601 . S
N1442 C1432 1.359 . S
N1442 C1441 1.334 . S
C1443 C1441 1.394 . S
C1443 C1444 1.359 . S
C1443 H1455 0.930 . S
C1444 C1434 1.391 . S
C1444 C1443 1.359 . S
C1444 H1456 0.929 . S
H1445 C1441 0.930 . S
H1446 C1435 0.930 . S
H1447 C1464 0.930 . S
H1448 C1436 0.930 . S
H1449 C1437 0.930 . S
H1450 C1431 0.929 . S
H1451 C1469 0.930 . S
H1452 C1460 0.930 . S
H1453 C1461 0.930 . S
H1454 C1485 0.929 . S
H1455 C1443 0.930 . S
H1456 C1444 0.929 . S
H1457 C1486 0.930 . S
H1458 C1467 0.930 . S
N1459 Gd1428 2.661 . S
N1459 C1463 1.350 . S
N1459 C1464 1.307 . S
C1460 H1452 0.930 . S
C1460 C1461 1.355 . S
C1460 C1462 1.412 . S
C1461 H1453 0.930 . S
C1461 C1460 1.355 . S
C1461 C1464 1.402 . S
C1462 C1460 1.412 . S
C1462 C1463 1.417 . S
C1462 C1486 1.431 . S
C1463 N1459 1.350 . S
C1463 C1462 1.417 . S
C1463 C1466 1.426 . S
C1464 H1447 0.930 . S
C1464 N1459 1.307 . S
C1464 C1461 1.402 . S
N1465 Gd1428 2.601 . S
N1465 C1466 1.359 . S
N1465 C1469 1.334 . S
C1466 C1463 1.426 . S
C1466 N1465 1.359 . S
C1466 C1470 1.413 . S
C1467 H1458 0.930 . S
C1467 C1468 1.359 . S
C1467 C1469 1.394 . S
C1468 C1467 1.359 . S
C1468 C1470 1.391 . S
C1468 H1471 0.929 . S
C1469 H1451 0.930 . S
C1469 N1465 1.334 . S
C1469 C1467 1.394 . S
C1470 C1466 1.413 . S
C1470 C1468 1.391 . S
C1470 C1485 1.437 . S
H1471 C1468 0.929 . S
O1472 Gd1428 2.545 . S
O1472 C1487 1.258 . S
O1473 Gd1428 2.606 . S
O1473 Gd1429 2.362 . S
O1473 C1484 1.284 . S
O1474 Gd1429 2.324 . S
O1474 C1494 1.254 . S
O1475 Gd1428 2.429 . S
O1475 C1494 1.268 . S
O1476 Gd1428 2.545 . S
O1476 C1484 1.250 . S
O1477 Gd1428 2.412 . S
O1477 C1487 1.252 . S
O1478 Gd1429 2.545 . S
O1478 C1496 1.258 . S
O1479 Gd1428 2.362 . S
O1479 Gd1429 2.606 . S
O1479 C1495 1.284 . S
O1480 Gd1428 2.324 . S
O1480 C1503 1.254 . S
O1481 Gd1429 2.429 . S
O1481 C1503 1.268 . S
O1482 Gd1429 2.545 . S
O1482 C1495 1.250 . S
O1483 Gd1429 2.412 . S
O1483 C1496 1.252 . S
C1484 O1473 1.284 . S
C1484 O1476 1.250 . S
C1485 H1454 0.929 . S
C1485 C1470 1.437 . S
C1485 C1486 1.317 . S
C1486 H1457 0.930 . S
C1486 C1462 1.431 . S
C1486 C1485 1.317 . S
C1487 Gd1428 2.828 . S
C1487 O1472 1.258 . S
C1487 O1477 1.252 . S
C1487 C1488 1.497 . S
C1488 C1487 1.497 . S
C1488 C1489 1.395 . S
C1488 C1490 1.380 . S
C1489 C1488 1.395 . S
C1489 C1492 1.398 . S
C1489 H1504 0.930 . S
C1490 C1488 1.380 . S
C1490 C1491 1.391 . S
C1490 H1505 0.930 . S
C1491 C1490 1.391 . S
C1491 C1493 1.387 . S
C1492 C1489 1.398 . S
C1492 C1493 1.380 . S
C1492 H1506 0.930 . S
C1493 C1491 1.387 . S
C1493 C1492 1.380 . S
C1493 H1507 0.930 . S
C1494 O1474 1.254 . S
C1494 O1475 1.268 . S
C1495 O1479 1.284 . S
C1495 O1482 1.250 . S
C1496 Gd1429 2.828 . S
C1496 O1478 1.258 . S
C1496 O1483 1.252 . S
C1496 C1497 1.497 . S
C1497 C1496 1.497 . S
C1497 C1498 1.395 . S
C1497 C1499 1.380 . S
C1498 C1497 1.395 . S
C1498 C1501 1.398 . S
C1498 H1508 0.930 . S
C1499 C1497 1.380 . S
C1499 C1500 1.391 . S
C1499 H1509 0.930 . S
C1500 C1499 1.391 . S
C1500 C1502 1.387 . S
C1501 C1498 1.398 . S
C1501 C1502 1.380 . S
C1501 H1510 0.930 . S
C1502 C1500 1.387 . S
C1502 C1501 1.380 . S
C1502 H1511 0.930 . S
C1503 O1480 1.254 . S
C1503 O1481 1.268 . S
H1504 C1489 0.930 . S
H1505 C1490 0.930 . S
H1506 C1492 0.930 . S
H1507 C1493 0.930 . S
H1508 C1498 0.930 . S
H1509 C1499 0.930 . S
H1510 C1501 0.930 . S
H1511 C1502 0.930 . S
Gd1512 N1543 2.661 . S
Gd1512 N1549 2.601 . S
Gd1512 O1556 2.545 . S
Gd1512 O1557 2.606 . S
Gd1512 O1559 2.429 . S
Gd1512 O1560 2.545 . S
Gd1512 O1561 2.412 . S
Gd1512 O1563 2.362 . S
Gd1512 O1564 2.324 . S
Gd1512 C1571 2.828 . S
Gd1513 N1522 2.661 . S
Gd1513 N1526 2.601 . S
Gd1513 O1557 2.362 . S
Gd1513 O1558 2.324 . S
Gd1513 O1562 2.545 . S
Gd1513 O1563 2.606 . S
Gd1513 O1565 2.429 . S
Gd1513 O1566 2.545 . S
Gd1513 O1567 2.412 . S
Gd1513 C1580 2.828 . S
C1514 C1517 1.417 . S
C1514 C1519 1.431 . S
C1514 C1520 1.412 . S
C1515 C1518 1.437 . S
C1515 C1519 1.317 . S
C1515 H1534 0.929 . S
C1516 C1517 1.426 . S
C1516 C1518 1.413 . S
C1516 N1526 1.359 . S
C1517 C1514 1.417 . S
C1517 C1516 1.426 . S
C1517 N1522 1.350 . S
C1518 C1515 1.437 . S
C1518 C1516 1.413 . S
C1518 C1528 1.391 . S
C1519 C1514 1.431 . S
C1519 C1515 1.317 . S
C1519 H1530 0.930 . S
C1520 C1514 1.412 . S
C1520 C1521 1.355 . S
C1520 H1532 0.930 . S
C1521 C1520 1.355 . S
C1521 C1523 1.402 . S
C1521 H1533 0.930 . S
N1522 Gd1513 2.661 . S
N1522 C1517 1.350 . S
N1522 C1523 1.307 . S
C1523 C1521 1.402 . S
C1523 N1522 1.307 . S
C1523 H1524 0.930 . S
H1524 C1523 0.930 . S
C1525 N1526 1.334 . S
C1525 C1527 1.394 . S
C1525 H1529 0.930 . S
N1526 Gd1513 2.601 . S
N1526 C1516 1.359 . S
N1526 C1525 1.334 . S
C1527 C1525 1.394 . S
C1527 C1528 1.359 . S
C1527 H1539 0.930 . S
C1528 C1518 1.391 . S
C1528 C1527 1.359 . S
C1528 H1540 0.929 . S
H1529 C1525 0.930 . S
H1530 C1519 0.930 . S
H1531 C1548 0.930 . S
H1532 C1520 0.930 . S
H1533 C1521 0.930 . S
H1534 C1515 0.929 . S
H1535 C1553 0.930 . S
H1536 C1544 0.930 . S
H1537 C1545 0.930 . S
H1538 C1569 0.929 . S
H1539 C1527 0.930 . S
H1540 C1528 0.929 . S
H1541 C1570 0.930 . S
H1542 C1551 0.930 . S
N1543 Gd1512 2.661 . S
N1543 C1547 1.350 . S
N1543 C1548 1.307 . S
C1544 H1536 0.930 . S
C1544 C1545 1.355 . S
C1544 C1546 1.412 . S
C1545 H1537 0.930 . S
C1545 C1544 1.355 . S
C1545 C1548 1.402 . S
C1546 C1544 1.412 . S
C1546 C1547 1.417 . S
C1546 C1570 1.431 . S
C1547 N1543 1.350 . S
C1547 C1546 1.417 . S
C1547 C1550 1.426 . S
C1548 H1531 0.930 . S
C1548 N1543 1.307 . S
C1548 C1545 1.402 . S
N1549 Gd1512 2.601 . S
N1549 C1550 1.359 . S
N1549 C1553 1.334 . S
C1550 C1547 1.426 . S
C1550 N1549 1.359 . S
C1550 C1554 1.413 . S
C1551 H1542 0.930 . S
C1551 C1552 1.359 . S
C1551 C1553 1.394 . S
C1552 C1551 1.359 . S
C1552 C1554 1.391 . S
C1552 H1555 0.929 . S
C1553 H1535 0.930 . S
C1553 N1549 1.334 . S
C1553 C1551 1.394 . S
C1554 C1550 1.413 . S
C1554 C1552 1.391 . S
C1554 C1569 1.437 . S
H1555 C1552 0.929 . S
O1556 Gd1512 2.545 . S
O1556 C1571 1.258 . S
O1557 Gd1512 2.606 . S
O1557 Gd1513 2.362 . S
O1557 C1568 1.284 . S
O1558 Gd1513 2.324 . S
O1558 C1578 1.254 . S
O1559 Gd1512 2.429 . S
O1559 C1578 1.268 . S
O1560 Gd1512 2.545 . S
O1560 C1568 1.250 . S
O1561 Gd1512 2.412 . S
O1561 C1571 1.252 . S
O1562 Gd1513 2.545 . S
O1562 C1580 1.258 . S
O1563 Gd1512 2.362 . S
O1563 Gd1513 2.606 . S
O1563 C1579 1.284 . S
O1564 Gd1512 2.324 . S
O1564 C1587 1.254 . S
O1565 Gd1513 2.429 . S
O1565 C1587 1.268 . S
O1566 Gd1513 2.545 . S
O1566 C1579 1.250 . S
O1567 Gd1513 2.412 . S
O1567 C1580 1.252 . S
C1568 O1557 1.284 . S
C1568 O1560 1.250 . S
C1569 H1538 0.929 . S
C1569 C1554 1.437 . S
C1569 C1570 1.317 . S
C1570 H1541 0.930 . S
C1570 C1546 1.431 . S
C1570 C1569 1.317 . S
C1571 Gd1512 2.828 . S
C1571 O1556 1.258 . S
C1571 O1561 1.252 . S
C1571 C1572 1.497 . S
C1572 C1571 1.497 . S
C1572 C1573 1.395 . S
C1572 C1574 1.380 . S
C1573 C1572 1.395 . S
C1573 C1576 1.398 . S
C1573 H1588 0.930 . S
C1574 C1572 1.380 . S
C1574 C1575 1.391 . S
C1574 H1589 0.930 . S
C1575 C1574 1.391 . S
C1575 C1577 1.387 . S
C1576 C1573 1.398 . S
C1576 C1577 1.380 . S
C1576 H1590 0.930 . S
C1577 C1575 1.387 . S
C1577 C1576 1.380 . S
C1577 H1591 0.930 . S
C1578 O1558 1.254 . S
C1578 O1559 1.268 . S
C1579 O1563 1.284 . S
C1579 O1566 1.250 . S
C1580 Gd1513 2.828 . S
C1580 O1562 1.258 . S
C1580 O1567 1.252 . S
C1580 C1581 1.497 . S
C1581 C1580 1.497 . S
C1581 C1582 1.395 . S
C1581 C1583 1.380 . S
C1582 C1581 1.395 . S
C1582 C1585 1.398 . S
C1582 H1592 0.930 . S
C1583 C1581 1.380 . S
C1583 C1584 1.391 . S
C1583 H1593 0.930 . S
C1584 C1583 1.391 . S
C1584 C1586 1.387 . S
C1585 C1582 1.398 . S
C1585 C1586 1.380 . S
C1585 H1594 0.930 . S
C1586 C1584 1.387 . S
C1586 C1585 1.380 . S
C1586 H1595 0.930 . S
C1587 O1564 1.254 . S
C1587 O1565 1.268 . S
H1588 C1573 0.930 . S
H1589 C1574 0.930 . S
H1590 C1576 0.930 . S
H1591 C1577 0.930 . S
H1592 C1582 0.930 . S
H1593 C1583 0.930 . S
H1594 C1585 0.930 . S
H1595 C1586 0.930 . S
Gd1596 N1627 2.661 . S
Gd1596 N1633 2.601 . S
Gd1596 O1640 2.545 . S
Gd1596 O1641 2.606 . S
Gd1596 O1643 2.429 . S
Gd1596 O1644 2.545 . S
Gd1596 O1645 2.412 1_455 S
Gd1596 O1647 2.362 . S
Gd1596 O1648 2.324 . S
Gd1596 C1655 2.828 1_455 S
Gd1597 N1606 2.661 . S
Gd1597 N1610 2.601 . S
Gd1597 O1641 2.362 . S
Gd1597 O1642 2.324 . S
Gd1597 O1646 2.559 . S
Gd1597 O1647 2.606 . S
Gd1597 O1649 2.405 1_554 S
Gd1597 O1650 2.545 . S
Gd1597 O1651 2.412 . S
Gd1597 C1664 2.828 . S
C1598 C1601 1.417 . S
C1598 C1603 1.431 . S
C1598 C1604 1.412 . S
C1599 C1602 1.437 1_554 S
C1599 C1603 1.317 . S
C1599 H1618 0.930 . S
C1600 C1601 1.426 . S
C1600 C1602 1.413 1_554 S
C1600 N1610 1.359 . S
C1601 C1598 1.417 . S
C1601 C1600 1.426 . S
C1601 N1606 1.350 . S
C1602 C1599 1.437 1_556 S
C1602 C1600 1.413 1_556 S
C1602 C1612 1.391 . S
C1603 C1598 1.431 . S
C1603 C1599 1.317 . S
C1603 H1614 0.930 . S
C1604 C1598 1.412 . S
C1604 C1605 1.355 . S
C1604 H1616 0.930 . S
C1605 C1604 1.355 . S
C1605 C1607 1.402 . S
C1605 H1617 0.930 . S
N1606 Gd1597 2.661 . S
N1606 C1601 1.350 . S
N1606 C1607 1.307 . S
C1607 C1605 1.402 . S
C1607 N1606 1.307 . S
C1607 H1608 0.930 . S
H1608 C1607 0.930 . S
C1609 N1610 1.334 1_556 S
C1609 C1611 1.394 . S
C1609 H1613 0.930 . S
N1610 Gd1597 2.601 . S
N1610 C1600 1.359 . S
N1610 C1609 1.334 1_554 S
C1611 C1609 1.394 . S
C1611 C1612 1.359 . S
C1611 H1623 0.930 . S
C1612 C1602 1.391 . S
C1612 C1611 1.359 . S
C1612 H1624 0.929 . S
H1613 C1609 0.930 . S
H1614 C1603 0.930 . S
H1615 C1632 0.950 . S
H1616 C1604 0.930 . S
H1617 C1605 0.930 . S
H1618 C1599 0.930 . S
H1619 C1637 0.930 . S
H1620 C1628 0.930 . S
H1621 C1629 0.930 1_556 S
H1622 C1653 0.929 . S
H1623 C1611 0.930 . S
H1624 C1612 0.929 . S
H1625 C1654 0.930 . S
H1626 C1635 0.930 . S
N1627 Gd1596 2.661 . S
N1627 C1631 1.350 1_455 S
N1627 C1632 1.310 . S
C1628 H1620 0.930 . S
C1628 C1629 1.355 . S
C1628 C1630 1.412 . S
C1629 H1621 0.930 1_554 S
C1629 C1628 1.355 . S
C1629 C1632 1.384 1_655 S
C1630 C1628 1.412 . S
C1630 C1631 1.417 . S
C1630 C1654 1.431 . S
C1631 N1627 1.350 1_655 S
C1631 C1630 1.417 . S
C1631 C1634 1.427 . S
C1632 H1615 0.950 . S
C1632 N1627 1.310 . S
C1632 C1629 1.384 1_455 S
N1633 Gd1596 2.601 . S
N1633 C1634 1.356 1_455 S
N1633 C1637 1.334 . S
C1634 C1631 1.427 . S
C1634 N1633 1.356 1_655 S
C1634 C1638 1.416 . S
C1635 H1626 0.930 . S
C1635 C1636 1.359 1_455 S
C1635 C1637 1.394 . S
C1636 C1635 1.359 1_655 S
C1636 C1638 1.391 . S
C1636 H1639 0.929 . S
C1637 H1619 0.930 . S
C1637 N1633 1.334 . S
C1637 C1635 1.394 . S
C1638 C1634 1.416 . S
C1638 C1636 1.391 . S
C1638 C1653 1.437 . S
H1639 C1636 0.929 . S
O1640 Gd1596 2.545 . S
O1640 C1655 1.258 1_455 S
O1641 Gd1596 2.606 . S
O1641 Gd1597 2.362 . S
O1641 C1652 1.284 . S
O1642 Gd1597 2.324 . S
O1642 C1662 1.254 . S
O1643 Gd1596 2.429 . S
O1643 C1662 1.268 . S
O1644 Gd1596 2.545 . S
O1644 C1652 1.250 . S
O1645 Gd1596 2.412 1_655 S
O1645 C1655 1.252 . S
O1646 Gd1597 2.559 . S
O1646 C1664 1.274 . S
O1647 Gd1596 2.362 . S
O1647 Gd1597 2.606 . S
O1647 C1663 1.284 . S
O1648 Gd1596 2.324 . S
O1648 C1671 1.254 . S
O1649 Gd1597 2.405 1_556 S
O1649 C1671 1.264 1_556 S
O1650 Gd1597 2.545 . S
O1650 C1663 1.250 . S
O1651 Gd1597 2.412 . S
O1651 C1664 1.252 . S
C1652 O1641 1.284 . S
C1652 O1644 1.250 . S
C1653 H1622 0.929 . S
C1653 C1638 1.437 . S
C1653 C1654 1.317 . S
C1654 H1625 0.930 . S
C1654 C1630 1.431 . S
C1654 C1653 1.317 . S
C1655 Gd1596 2.828 1_655 S
C1655 O1640 1.258 1_655 S
C1655 O1645 1.252 . S
C1655 C1656 1.497 . S
C1656 C1655 1.497 . S
C1656 C1657 1.395 . S
C1656 C1658 1.380 . S
C1657 C1656 1.395 . S
C1657 C1660 1.398 . S
C1657 H1672 0.930 . S
C1658 C1656 1.380 . S
C1658 C1659 1.391 . S
C1658 H1673 0.930 . S
C1659 C1658 1.391 . S
C1659 C1661 1.387 . S
C1660 C1657 1.398 . S
C1660 C1661 1.380 . S
C1660 H1674 0.930 . S
C1661 C1659 1.387 . S
C1661 C1660 1.380 . S
C1661 H1675 0.930 . S
C1662 O1642 1.254 . S
C1662 O1643 1.268 . S
C1663 O1647 1.284 . S
C1663 O1650 1.250 . S
C1664 Gd1597 2.828 . S
C1664 O1646 1.274 . S
C1664 O1651 1.252 . S
C1664 C1665 1.497 . S
C1665 C1664 1.497 . S
C1665 C1666 1.395 1_554 S
C1665 C1667 1.380 . S
C1666 C1665 1.395 1_556 S
C1666 C1669 1.398 . S
C1666 H1676 0.930 . S
C1667 C1665 1.380 . S
C1667 C1668 1.391 . S
C1667 H1677 0.930 . S
C1668 C1667 1.391 . S
C1668 C1670 1.387 . S
C1669 C1666 1.398 . S
C1669 C1670 1.380 1_556 S
C1669 H1678 0.930 . S
C1670 C1668 1.387 . S
C1670 C1669 1.380 1_554 S
C1670 H1679 0.930 1_554 S
C1671 O1648 1.254 . S
C1671 O1649 1.264 1_554 S
H1672 C1657 0.930 . S
H1673 C1658 0.930 . S
H1674 C1660 0.930 . S
H1675 C1661 0.930 . S
H1676 C1666 0.930 . S
H1677 C1667 0.930 . S
H1678 C1669 0.930 . S
H1679 C1670 0.930 1_556 S
H1680 C1692 0.930 . S
H1681 C1694 0.930 . S
H1682 C1695 0.930 . S
H1683 C1699 0.959 . S
H1684 C1699 0.959 . S
H1685 C1699 0.961 . S
H1686 C1700 0.960 . S
H1687 C1700 0.961 . S
H1688 C1700 0.959 . S
H1689 C1703 0.929 . S
H1690 C1704 0.931 . S
H1691 C1706 0.930 . S
C1692 H1680 0.930 . S
C1692 C1693 1.399 . S
C1692 C1697 1.399 . S
C1693 C1692 1.399 . S
C1693 C1694 1.376 . S
C1694 H1681 0.930 . S
C1694 C1693 1.376 . S
C1694 C1695 1.388 . S
C1695 H1682 0.930 . S
C1695 C1694 1.388 . S
C1695 C1696 1.390 . S
C1696 C1695 1.390 . S
C1696 C1697 1.394 . S
C1696 C1702 1.465 . S
C1697 C1692 1.399 . S
C1697 C1696 1.394 . S
C1697 C1698 1.516 . S
C1698 C1697 1.516 . S
C1698 C1699 1.502 1_455 S
C1698 C1700 1.561 . S
C1698 C1701 1.526 . S
C1699 H1683 0.959 . S
C1699 H1684 0.959 . S
C1699 H1685 0.961 . S
C1699 C1698 1.502 1_655 S
C1700 H1686 0.960 . S
C1700 H1687 0.961 . S
C1700 H1688 0.959 . S
C1700 C1698 1.561 . S
C1701 C1698 1.526 . S
C1701 C1702 1.396 . S
C1701 C1706 1.390 . S
C1702 C1696 1.465 . S
C1702 C1701 1.396 . S
C1702 C1703 1.399 1_556 S
C1703 H1689 0.929 . S
C1703 C1702 1.399 1_554 S
C1703 C1704 1.385 . S
C1704 H1690 0.931 . S
C1704 C1703 1.385 . S
C1704 C1705 1.389 . S
C1705 C1704 1.389 . S
C1705 C1706 1.387 1_554 S
C1706 H1691 0.930 . S
C1706 C1701 1.390 . S
C1706 C1705 1.387 1_556 S
H1707 C1719 0.930 . S
H1708 C1721 0.930 . S
H1709 C1722 0.930 . S
H1710 C1726 0.959 . S
H1711 C1726 0.959 . S
H1712 C1726 0.961 . S
H1713 C1727 0.960 . S
H1714 C1727 0.961 . S
H1715 C1727 0.959 . S
H1716 C1730 0.929 . S
H1717 C1731 0.931 . S
H1718 C1733 0.930 . S
C1719 H1707 0.930 . S
C1719 C1720 1.399 . S
C1719 C1724 1.399 . S
C1720 C1719 1.399 . S
C1720 C1721 1.376 . S
C1721 H1708 0.930 . S
C1721 C1720 1.376 . S
C1721 C1722 1.388 . S
C1722 H1709 0.930 . S
C1722 C1721 1.388 . S
C1722 C1723 1.390 . S
C1723 C1722 1.390 . S
C1723 C1724 1.394 . S
C1723 C1729 1.465 . S
C1724 C1719 1.399 . S
C1724 C1723 1.394 . S
C1724 C1725 1.516 . S
C1725 C1724 1.516 . S
C1725 C1726 1.502 . S
C1725 C1727 1.561 . S
C1725 C1728 1.526 . S
C1726 H1710 0.959 . S
C1726 H1711 0.959 . S
C1726 H1712 0.961 . S
C1726 C1725 1.502 . S
C1727 H1713 0.960 . S
C1727 H1714 0.961 . S
C1727 H1715 0.959 . S
C1727 C1725 1.561 . S
C1728 C1725 1.526 . S
C1728 C1729 1.396 . S
C1728 C1733 1.390 . S
C1729 C1723 1.465 . S
C1729 C1728 1.396 . S
C1729 C1730 1.399 . S
C1730 H1716 0.929 . S
C1730 C1729 1.399 . S
C1730 C1731 1.385 . S
C1731 H1717 0.931 . S
C1731 C1730 1.385 . S
C1731 C1732 1.389 . S
C1732 C1731 1.389 . S
C1732 C1733 1.387 . S
C1733 H1718 0.930 . S
C1733 C1728 1.390 . S
C1733 C1732 1.387 . S
H1734 C1746 0.930 . S
H1735 C1748 0.930 . S
H1736 C1749 0.930 . S
H1737 C1753 0.959 . S
H1738 C1753 0.959 . S
H1739 C1753 0.961 . S
H1740 C1754 0.960 . S
H1741 C1754 0.961 . S
H1742 C1754 0.959 . S
H1743 C1757 0.929 . S
H1744 C1758 0.931 . S
H1745 C1760 0.930 . S
C1746 H1734 0.930 . S
C1746 C1747 1.399 . S
C1746 C1751 1.399 . S
C1747 C1746 1.399 . S
C1747 C1748 1.376 . S
C1748 H1735 0.930 . S
C1748 C1747 1.376 . S
C1748 C1749 1.388 . S
C1749 H1736 0.930 . S
C1749 C1748 1.388 . S
C1749 C1750 1.390 . S
C1750 C1749 1.390 . S
C1750 C1751 1.394 . S
C1750 C1756 1.465 . S
C1751 C1746 1.399 . S
C1751 C1750 1.394 . S
C1751 C1752 1.516 . S
C1752 C1751 1.516 . S
C1752 C1753 1.502 . S
C1752 C1754 1.561 . S
C1752 C1755 1.526 . S
C1753 H1737 0.959 . S
C1753 H1738 0.959 . S
C1753 H1739 0.961 . S
C1753 C1752 1.502 . S
C1754 H1740 0.960 . S
C1754 H1741 0.961 . S
C1754 H1742 0.959 . S
C1754 C1752 1.561 . S
C1755 C1752 1.526 . S
C1755 C1756 1.396 . S
C1755 C1760 1.390 . S
C1756 C1750 1.465 . S
C1756 C1755 1.396 . S
C1756 C1757 1.399 . S
C1757 H1743 0.929 . S
C1757 C1756 1.399 . S
C1757 C1758 1.385 . S
C1758 H1744 0.931 . S
C1758 C1757 1.385 . S
C1758 C1759 1.389 . S
C1759 C1758 1.389 . S
C1759 C1760 1.387 . S
C1760 H1745 0.930 . S
C1760 C1755 1.390 . S
C1760 C1759 1.387 . S
H1761 C1773 0.930 . S
H1762 C1775 0.930 . S
H1763 C1776 0.930 . S
H1764 C1780 0.959 . S
H1765 C1780 0.959 . S
H1766 C1780 0.961 . S
H1767 C1781 0.960 . S
H1768 C1781 0.961 . S
H1769 C1781 0.959 . S
H1770 C1784 0.929 . S
H1771 C1785 0.931 . S
H1772 C1787 0.930 . S
C1773 H1761 0.930 . S
C1773 C1774 1.399 . S
C1773 C1778 1.399 . S
C1774 C1773 1.399 . S
C1774 C1775 1.376 . S
C1775 H1762 0.930 . S
C1775 C1774 1.376 . S
C1775 C1776 1.388 . S
C1776 H1763 0.930 . S
C1776 C1775 1.388 . S
C1776 C1777 1.390 . S
C1777 C1776 1.390 . S
C1777 C1778 1.394 . S
C1777 C1783 1.465 . S
C1778 C1773 1.399 . S
C1778 C1777 1.394 . S
C1778 C1779 1.516 . S
C1779 C1778 1.516 . S
C1779 C1780 1.502 . S
C1779 C1781 1.561 . S
C1779 C1782 1.526 . S
C1780 H1764 0.959 . S
C1780 H1765 0.959 . S
C1780 H1766 0.961 . S
C1780 C1779 1.502 . S
C1781 H1767 0.960 . S
C1781 H1768 0.961 . S
C1781 H1769 0.959 . S
C1781 C1779 1.561 . S
C1782 C1779 1.526 . S
C1782 C1783 1.396 . S
C1782 C1787 1.390 . S
C1783 C1777 1.465 . S
C1783 C1782 1.396 . S
C1783 C1784 1.399 . S
C1784 H1770 0.929 . S
C1784 C1783 1.399 . S
C1784 C1785 1.385 . S
C1785 H1771 0.931 . S
C1785 C1784 1.385 . S
C1785 C1786 1.389 . S
C1786 C1785 1.389 . S
C1786 C1787 1.387 . S
C1787 H1772 0.930 . S
C1787 C1782 1.390 . S
C1787 C1786 1.387 . S
H1788 C1800 0.930 . S
H1789 C1802 0.930 . S
H1790 C1803 0.913 1_655 S
H1791 C1807 0.959 . S
H1792 C1807 0.959 . S
H1793 C1807 0.961 . S
H1794 C1808 0.960 . S
H1795 C1808 0.961 . S
H1796 C1808 0.959 . S
H1797 C1811 0.931 . S
H1798 C1812 0.931 . S
H1799 C1814 0.930 . S
C1800 H1788 0.930 . S
C1800 C1801 1.399 . S
C1800 C1805 1.399 . S
C1801 C1800 1.399 . S
C1801 C1802 1.376 1_455 S
C1802 H1789 0.930 . S
C1802 C1801 1.376 1_655 S
C1802 C1803 1.390 1_655 S
C1803 H1790 0.913 1_455 S
C1803 C1802 1.390 1_455 S
C1803 C1804 1.406 . S
C1804 C1803 1.406 . S
C1804 C1805 1.394 . S
C1804 C1810 1.465 . S
C1805 C1800 1.399 . S
C1805 C1804 1.394 . S
C1805 C1806 1.516 . S
C1806 C1805 1.516 . S
C1806 C1807 1.502 . S
C1806 C1808 1.561 . S
C1806 C1809 1.526 . S
C1807 H1791 0.959 . S
C1807 H1792 0.959 . S
C1807 H1793 0.961 . S
C1807 C1806 1.502 . S
C1808 H1794 0.960 . S
C1808 H1795 0.961 . S
C1808 H1796 0.959 . S
C1808 C1806 1.561 . S
C1809 C1806 1.526 . S
C1809 C1810 1.396 . S
C1809 C1814 1.390 . S
C1810 C1804 1.465 . S
C1810 C1809 1.396 . S
C1810 C1811 1.399 . S
C1811 H1797 0.931 . S
C1811 C1810 1.399 . S
C1811 C1812 1.385 . S
C1812 H1798 0.931 . S
C1812 C1811 1.385 . S
C1812 C1813 1.389 . S
C1813 C1812 1.389 . S
C1813 C1814 1.387 . S
C1814 H1799 0.930 . S
C1814 C1809 1.390 . S
C1814 C1813 1.387 . S
H1815 C1827 0.930 . S
H1816 C1829 0.930 . S
H1817 C1830 0.930 . S
H1818 C1834 0.959 . S
H1819 C1834 0.959 . S
H1820 C1834 0.961 . S
H1821 C1835 0.960 . S
H1822 C1835 0.961 . S
H1823 C1835 0.959 . S
H1824 C1838 0.929 . S
H1825 C1839 0.931 . S
H1826 C1841 0.930 . S
C1827 H1815 0.930 . S
C1827 C1828 1.399 . S
C1827 C1832 1.399 . S
C1828 C1827 1.399 . S
C1828 C1829 1.376 . S
C1829 H1816 0.930 . S
C1829 C1828 1.376 . S
C1829 C1830 1.388 . S
C1830 H1817 0.930 . S
C1830 C1829 1.388 . S
C1830 C1831 1.390 . S
C1831 C1830 1.390 . S
C1831 C1832 1.394 . S
C1831 C1837 1.465 . S
C1832 C1827 1.399 . S
C1832 C1831 1.394 . S
C1832 C1833 1.516 . S
C1833 C1832 1.516 . S
C1833 C1834 1.502 . S
C1833 C1835 1.561 . S
C1833 C1836 1.526 . S
C1834 H1818 0.959 . S
C1834 H1819 0.959 . S
C1834 H1820 0.961 . S
C1834 C1833 1.502 . S
C1835 H1821 0.960 . S
C1835 H1822 0.961 . S
C1835 H1823 0.959 . S
C1835 C1833 1.561 . S
C1836 C1833 1.526 . S
C1836 C1837 1.396 . S
C1836 C1841 1.390 . S
C1837 C1831 1.465 . S
C1837 C1836 1.396 . S
C1837 C1838 1.399 . S
C1838 H1824 0.929 . S
C1838 C1837 1.399 . S
C1838 C1839 1.385 . S
C1839 H1825 0.931 . S
C1839 C1838 1.385 . S
C1839 C1840 1.389 . S
C1840 C1839 1.389 . S
C1840 C1841 1.387 . S
C1841 H1826 0.930 . S
C1841 C1836 1.390 . S
C1841 C1840 1.387 . S
H1842 C1854 0.930 . S
H1843 C1856 0.930 . S
H1844 C1857 0.930 . S
H1845 C1861 0.959 . S
H1846 C1861 0.959 . S
H1847 C1861 0.961 . S
H1848 C1862 0.960 . S
H1849 C1862 0.961 . S
H1850 C1862 0.959 . S
H1851 C1865 0.929 . S
H1852 C1866 0.931 . S
H1853 C1868 0.930 . S
C1854 H1842 0.930 . S
C1854 C1855 1.399 . S
C1854 C1859 1.399 . S
C1855 C1854 1.399 . S
C1855 C1856 1.376 . S
C1856 H1843 0.930 . S
C1856 C1855 1.376 . S
C1856 C1857 1.388 . S
C1857 H1844 0.930 . S
C1857 C1856 1.388 . S
C1857 C1858 1.390 . S
C1858 C1857 1.390 . S
C1858 C1859 1.394 . S
C1858 C1864 1.465 . S
C1859 C1854 1.399 . S
C1859 C1858 1.394 . S
C1859 C1860 1.516 . S
C1860 C1859 1.516 . S
C1860 C1861 1.502 . S
C1860 C1862 1.561 . S
C1860 C1863 1.526 . S
C1861 H1845 0.959 . S
C1861 H1846 0.959 . S
C1861 H1847 0.961 . S
C1861 C1860 1.502 . S
C1862 H1848 0.960 . S
C1862 H1849 0.961 . S
C1862 H1850 0.959 . S
C1862 C1860 1.561 . S
C1863 C1860 1.526 . S
C1863 C1864 1.396 . S
C1863 C1868 1.390 . S
C1864 C1858 1.465 . S
C1864 C1863 1.396 . S
C1864 C1865 1.399 . S
C1865 H1851 0.929 . S
C1865 C1864 1.399 . S
C1865 C1866 1.385 . S
C1866 H1852 0.931 . S
C1866 C1865 1.385 . S
C1866 C1867 1.389 . S
C1867 C1866 1.389 . S
C1867 C1868 1.387 . S
C1868 H1853 0.930 . S
C1868 C1863 1.390 . S
C1868 C1867 1.387 . S
H1869 C1881 0.930 . S
H1870 C1883 0.930 . S
H1871 C1884 0.930 . S
H1872 C1888 0.959 . S
H1873 C1888 0.959 . S
H1874 C1888 0.961 . S
H1875 C1889 0.960 . S
H1876 C1889 0.961 . S
H1877 C1889 0.959 . S
H1878 C1892 0.929 . S
H1879 C1893 0.931 . S
H1880 C1895 0.930 . S
C1881 H1869 0.930 . S
C1881 C1882 1.399 . S
C1881 C1886 1.399 . S
C1882 C1881 1.399 . S
C1882 C1883 1.376 . S
C1883 H1870 0.930 . S
C1883 C1882 1.376 . S
C1883 C1884 1.388 . S
C1884 H1871 0.930 . S
C1884 C1883 1.388 . S
C1884 C1885 1.390 . S
C1885 C1884 1.390 . S
C1885 C1886 1.394 . S
C1885 C1891 1.465 . S
C1886 C1881 1.399 . S
C1886 C1885 1.394 . S
C1886 C1887 1.516 . S
C1887 C1886 1.516 . S
C1887 C1888 1.502 . S
C1887 C1889 1.561 . S
C1887 C1890 1.526 . S
C1888 H1872 0.959 . S
C1888 H1873 0.959 . S
C1888 H1874 0.961 . S
C1888 C1887 1.502 . S
C1889 H1875 0.960 . S
C1889 H1876 0.961 . S
C1889 H1877 0.959 . S
C1889 C1887 1.561 . S
C1890 C1887 1.526 . S
C1890 C1891 1.396 . S
C1890 C1895 1.390 . S
C1891 C1885 1.465 . S
C1891 C1890 1.396 . S
C1891 C1892 1.399 . S
C1892 H1878 0.929 . S
C1892 C1891 1.399 . S
C1892 C1893 1.385 . S
C1893 H1879 0.931 . S
C1893 C1892 1.385 . S
C1893 C1894 1.389 . S
C1894 C1893 1.389 . S
C1894 C1895 1.387 . S
C1895 H1880 0.930 . S
C1895 C1890 1.390 . S
C1895 C1894 1.387 . S
H1896 C1908 0.930 . S
H1897 C1910 0.930 . S
H1898 C1911 0.930 . S
H1899 C1915 0.959 . S
H1900 C1915 0.959 . S
H1901 C1915 0.961 . S
H1902 C1916 0.960 . S
H1903 C1916 0.961 1_455 S
H1904 C1916 0.959 . S
H1905 C1919 0.929 . S
H1906 C1920 0.931 . S
H1907 C1922 0.930 . S
C1908 H1896 0.930 . S
C1908 C1909 1.399 . S
C1908 C1913 1.399 . S
C1909 C1908 1.399 . S
C1909 C1910 1.376 . S
C1910 H1897 0.930 . S
C1910 C1909 1.376 . S
C1910 C1911 1.388 . S
C1911 H1898 0.930 . S
C1911 C1910 1.388 . S
C1911 C1912 1.390 . S
C1912 C1911 1.390 . S
C1912 C1913 1.394 . S
C1912 C1918 1.465 1_655 S
C1913 C1908 1.399 . S
C1913 C1912 1.394 . S
C1913 C1914 1.516 1_655 S
C1914 C1913 1.516 1_455 S
C1914 C1915 1.502 . S
C1914 C1916 1.561 1_455 S
C1914 C1917 1.526 . S
C1915 H1899 0.959 . S
C1915 H1900 0.959 . S
C1915 H1901 0.961 . S
C1915 C1914 1.502 . S
C1916 H1902 0.960 . S
C1916 H1903 0.961 1_655 S
C1916 H1904 0.959 . S
C1916 C1914 1.561 1_655 S
C1917 C1914 1.526 . S
C1917 C1918 1.396 . S
C1917 C1922 1.390 . S
C1918 C1912 1.465 1_455 S
C1918 C1917 1.396 . S
C1918 C1919 1.399 . S
C1919 H1905 0.929 . S
C1919 C1918 1.399 . S
C1919 C1920 1.385 . S
C1920 H1906 0.931 . S
C1920 C1919 1.385 . S
C1920 C1921 1.389 . S
C1921 C1920 1.389 . S
C1921 C1922 1.387 . S
C1922 H1907 0.930 . S
C1922 C1917 1.390 . S
C1922 C1921 1.387 . S
H1923 C1935 0.930 . S
H1924 C1937 0.930 . S
H1925 C1938 0.930 . S
H1926 C1942 0.959 . S
H1927 C1942 0.959 . S
H1928 C1942 0.961 . S
H1929 C1943 0.960 . S
H1930 C1943 0.961 . S
H1931 C1943 0.959 . S
H1932 C1946 0.929 . S
H1933 C1947 0.931 . S
H1934 C1949 0.930 . S
C1935 H1923 0.930 . S
C1935 C1936 1.399 . S
C1935 C1940 1.399 . S
C1936 C1935 1.399 . S
C1936 C1937 1.376 . S
C1937 H1924 0.930 . S
C1937 C1936 1.376 . S
C1937 C1938 1.388 . S
C1938 H1925 0.930 . S
C1938 C1937 1.388 . S
C1938 C1939 1.390 . S
C1939 C1938 1.390 . S
C1939 C1940 1.394 . S
C1939 C1945 1.465 . S
C1940 C1935 1.399 . S
C1940 C1939 1.394 . S
C1940 C1941 1.516 . S
C1941 C1940 1.516 . S
C1941 C1942 1.502 . S
C1941 C1943 1.561 . S
C1941 C1944 1.526 . S
C1942 H1926 0.959 . S
C1942 H1927 0.959 . S
C1942 H1928 0.961 . S
C1942 C1941 1.502 . S
C1943 H1929 0.960 . S
C1943 H1930 0.961 . S
C1943 H1931 0.959 . S
C1943 C1941 1.561 . S
C1944 C1941 1.526 . S
C1944 C1945 1.396 . S
C1944 C1949 1.390 . S
C1945 C1939 1.465 . S
C1945 C1944 1.396 . S
C1945 C1946 1.399 . S
C1946 H1932 0.929 . S
C1946 C1945 1.399 . S
C1946 C1947 1.385 . S
C1947 H1933 0.931 . S
C1947 C1946 1.385 . S
C1947 C1948 1.389 . S
C1948 C1947 1.389 . S
C1948 C1949 1.387 . S
C1949 H1934 0.930 . S
C1949 C1944 1.390 . S
C1949 C1948 1.387 . S
H1950 C1962 0.930 . S
H1951 C1964 0.930 . S
H1952 C1965 0.930 . S
H1953 C1969 0.959 . S
H1954 C1969 0.959 . S
H1955 C1969 0.961 . S
H1956 C1970 0.960 . S
H1957 C1970 0.961 . S
H1958 C1970 0.959 . S
H1959 C1973 0.929 . S
H1960 C1974 0.931 . S
H1961 C1976 0.930 . S
C1962 H1950 0.930 . S
C1962 C1963 1.399 . S
C1962 C1967 1.399 . S
C1963 C1962 1.399 . S
C1963 C1964 1.376 . S
C1964 H1951 0.930 . S
C1964 C1963 1.376 . S
C1964 C1965 1.388 . S
C1965 H1952 0.930 . S
C1965 C1964 1.388 . S
C1965 C1966 1.390 . S
C1966 C1965 1.390 . S
C1966 C1967 1.394 . S
C1966 C1972 1.465 . S
C1967 C1962 1.399 . S
C1967 C1966 1.394 . S
C1967 C1968 1.516 . S
C1968 C1967 1.516 . S
C1968 C1969 1.502 . S
C1968 C1970 1.561 . S
C1968 C1971 1.526 . S
C1969 H1953 0.959 . S
C1969 H1954 0.959 . S
C1969 H1955 0.961 . S
C1969 C1968 1.502 . S
C1970 H1956 0.960 . S
C1970 H1957 0.961 . S
C1970 H1958 0.959 . S
C1970 C1968 1.561 . S
C1971 C1968 1.526 . S
C1971 C1972 1.396 . S
C1971 C1976 1.390 . S
C1972 C1966 1.465 . S
C1972 C1971 1.396 . S
C1972 C1973 1.399 . S
C1973 H1959 0.929 . S
C1973 C1972 1.399 . S
C1973 C1974 1.385 . S
C1974 H1960 0.931 . S
C1974 C1973 1.385 . S
C1974 C1975 1.389 . S
C1975 C1974 1.389 . S
C1975 C1976 1.387 . S
C1976 H1961 0.930 . S
C1976 C1971 1.390 . S
C1976 C1975 1.387 . S
H1977 C1989 0.930 . S
H1978 C1991 0.930 . S
H1979 C1992 0.930 . S
H1980 C1996 0.959 . S
H1981 C1996 0.959 . S
H1982 C1996 0.961 . S
H1983 C1997 0.960 . S
H1984 C1997 0.961 . S
H1985 C1997 0.959 . S
H1986 C2000 0.929 . S
H1987 C2001 0.931 . S
H1988 C2003 0.930 . S
C1989 H1977 0.930 . S
C1989 C1990 1.399 . S
C1989 C1994 1.399 . S
C1990 C1989 1.399 . S
C1990 C1991 1.376 . S
C1991 H1978 0.930 . S
C1991 C1990 1.376 . S
C1991 C1992 1.388 . S
C1992 H1979 0.930 . S
C1992 C1991 1.388 . S
C1992 C1993 1.390 . S
C1993 C1992 1.390 . S
C1993 C1994 1.394 . S
C1993 C1999 1.465 . S
C1994 C1989 1.399 . S
C1994 C1993 1.394 . S
C1994 C1995 1.516 . S
C1995 C1994 1.516 . S
C1995 C1996 1.502 . S
C1995 C1997 1.561 . S
C1995 C1998 1.526 . S
C1996 H1980 0.959 . S
C1996 H1981 0.959 . S
C1996 H1982 0.961 . S
C1996 C1995 1.502 . S
C1997 H1983 0.960 . S
C1997 H1984 0.961 . S
C1997 H1985 0.959 . S
C1997 C1995 1.561 . S
C1998 C1995 1.526 . S
C1998 C1999 1.396 . S
C1998 C2003 1.390 . S
C1999 C1993 1.465 . S
C1999 C1998 1.396 . S
C1999 C2000 1.399 . S
C2000 H1986 0.929 . S
C2000 C1999 1.399 . S
C2000 C2001 1.385 . S
C2001 H1987 0.931 . S
C2001 C2000 1.385 . S
C2001 C2002 1.389 . S
C2002 C2001 1.389 . S
C2002 C2003 1.387 . S
C2003 H1988 0.930 . S
C2003 C1998 1.390 . S
C2003 C2002 1.387 . S
H2004 C2016 0.930 . S
H2005 C2018 0.930 . S
H2006 C2019 0.930 . S
H2007 C2023 0.959 . S
H2008 C2023 0.959 . S
H2009 C2023 0.961 . S
H2010 C2024 0.960 . S
H2011 C2024 0.964 . S
H2012 C2024 0.959 1_455 S
H2013 C2027 0.929 . S
H2014 C2028 0.931 . S
H2015 C2030 0.930 . S
C2016 H2004 0.930 . S
C2016 C2017 1.399 . S
C2016 C2021 1.420 . S
C2017 C2016 1.399 . S
C2017 C2018 1.376 1_655 S
C2018 H2005 0.930 . S
C2018 C2017 1.376 1_455 S
C2018 C2019 1.388 . S
C2019 H2006 0.930 . S
C2019 C2018 1.388 . S
C2019 C2020 1.390 . S
C2020 C2019 1.390 . S
C2020 C2021 1.368 1_455 S
C2020 C2026 1.465 . S
C2021 C2016 1.420 . S
C2021 C2020 1.368 1_655 S
C2021 C2022 1.517 . S
C2022 C2021 1.517 . S
C2022 C2023 1.502 . S
C2022 C2024 1.561 . S
C2022 C2025 1.526 1_655 S
C2023 H2007 0.959 . S
C2023 H2008 0.959 . S
C2023 H2009 0.961 . S
C2023 C2022 1.502 . S
C2024 H2010 0.960 . S
C2024 H2011 0.964 . S
C2024 H2012 0.959 1_655 S
C2024 C2022 1.561 . S
C2025 C2022 1.526 1_455 S
C2025 C2026 1.396 . S
C2025 C2030 1.390 . S
C2026 C2020 1.465 . S
C2026 C2025 1.396 . S
C2026 C2027 1.399 . S
C2027 H2013 0.929 . S
C2027 C2026 1.399 . S
C2027 C2028 1.385 . S
C2028 H2014 0.931 . S
C2028 C2027 1.385 . S
C2028 C2029 1.389 . S
C2029 C2028 1.389 . S
C2029 C2030 1.387 . S
C2030 H2015 0.930 . S
C2030 C2025 1.390 . S
C2030 C2029 1.387 . S
H2031 C2043 0.930 . S
H2032 C2045 0.930 . S
H2033 C2046 0.930 . S
H2034 C2050 0.959 . S
H2035 C2050 0.959 . S
H2036 C2050 0.961 . S
H2037 C2051 0.960 . S
H2038 C2051 0.961 . S
H2039 C2051 0.959 . S
H2040 C2054 0.929 . S
H2041 C2055 0.931 . S
H2042 C2057 0.930 . S
C2043 H2031 0.930 . S
C2043 C2044 1.399 . S
C2043 C2048 1.399 . S
C2044 C2043 1.399 . S
C2044 C2045 1.376 . S
C2045 H2032 0.930 . S
C2045 C2044 1.376 . S
C2045 C2046 1.388 . S
C2046 H2033 0.930 . S
C2046 C2045 1.388 . S
C2046 C2047 1.390 . S
C2047 C2046 1.390 . S
C2047 C2048 1.394 . S
C2047 C2053 1.465 . S
C2048 C2043 1.399 . S
C2048 C2047 1.394 . S
C2048 C2049 1.516 . S
C2049 C2048 1.516 . S
C2049 C2050 1.502 . S
C2049 C2051 1.561 . S
C2049 C2052 1.526 . S
C2050 H2034 0.959 . S
C2050 H2035 0.959 . S
C2050 H2036 0.961 . S
C2050 C2049 1.502 . S
C2051 H2037 0.960 . S
C2051 H2038 0.961 . S
C2051 H2039 0.959 . S
C2051 C2049 1.561 . S
C2052 C2049 1.526 . S
C2052 C2053 1.396 . S
C2052 C2057 1.390 . S
C2053 C2047 1.465 . S
C2053 C2052 1.396 . S
C2053 C2054 1.399 . S
C2054 H2040 0.929 . S
C2054 C2053 1.399 . S
C2054 C2055 1.385 . S
C2055 H2041 0.931 . S
C2055 C2054 1.385 . S
C2055 C2056 1.389 . S
C2056 C2055 1.389 . S
C2056 C2057 1.387 . S
C2057 H2042 0.930 . S
C2057 C2052 1.390 . S
C2057 C2056 1.387 . S
H2058 C2070 0.930 . S
H2059 C2072 0.930 . S
H2060 C2073 0.930 . S
H2061 C2077 0.959 . S
H2062 C2077 0.959 . S
H2063 C2077 0.961 . S
H2064 C2078 0.960 . S
H2065 C2078 0.961 . S
H2066 C2078 0.959 . S
H2067 C2081 0.929 . S
H2068 C2082 0.931 . S
H2069 C2084 0.930 . S
C2070 H2058 0.930 . S
C2070 C2071 1.399 . S
C2070 C2075 1.399 . S
C2071 C2070 1.399 . S
C2071 C2072 1.376 . S
C2072 H2059 0.930 . S
C2072 C2071 1.376 . S
C2072 C2073 1.388 . S
C2073 H2060 0.930 . S
C2073 C2072 1.388 . S
C2073 C2074 1.390 . S
C2074 C2073 1.390 . S
C2074 C2075 1.394 . S
C2074 C2080 1.465 . S
C2075 C2070 1.399 . S
C2075 C2074 1.394 . S
C2075 C2076 1.516 . S
C2076 C2075 1.516 . S
C2076 C2077 1.502 . S
C2076 C2078 1.561 . S
C2076 C2079 1.526 . S
C2077 H2061 0.959 . S
C2077 H2062 0.959 . S
C2077 H2063 0.961 . S
C2077 C2076 1.502 . S
C2078 H2064 0.960 . S
C2078 H2065 0.961 . S
C2078 H2066 0.959 . S
C2078 C2076 1.561 . S
C2079 C2076 1.526 . S
C2079 C2080 1.396 . S
C2079 C2084 1.390 . S
C2080 C2074 1.465 . S
C2080 C2079 1.396 . S
C2080 C2081 1.399 . S
C2081 H2067 0.929 . S
C2081 C2080 1.399 . S
C2081 C2082 1.385 . S
C2082 H2068 0.931 . S
C2082 C2081 1.385 . S
C2082 C2083 1.389 . S
C2083 C2082 1.389 . S
C2083 C2084 1.387 . S
C2084 H2069 0.930 . S
C2084 C2079 1.390 . S
C2084 C2083 1.387 . S
H2085 C2097 0.930 . S
H2086 C2099 0.930 . S
H2087 C2100 0.930 . S
H2088 C2104 0.959 . S
H2089 C2104 0.959 . S
H2090 C2104 0.961 . S
H2091 C2105 0.960 . S
H2092 C2105 0.961 . S
H2093 C2105 0.959 . S
H2094 C2108 0.929 . S
H2095 C2109 0.931 . S
H2096 C2111 0.930 . S
C2097 H2085 0.930 . S
C2097 C2098 1.399 . S
C2097 C2102 1.399 . S
C2098 C2097 1.399 . S
C2098 C2099 1.376 . S
C2099 H2086 0.930 . S
C2099 C2098 1.376 . S
C2099 C2100 1.388 . S
C2100 H2087 0.930 . S
C2100 C2099 1.388 . S
C2100 C2101 1.390 . S
C2101 C2100 1.390 . S
C2101 C2102 1.394 . S
C2101 C2107 1.465 . S
C2102 C2097 1.399 . S
C2102 C2101 1.394 . S
C2102 C2103 1.516 . S
C2103 C2102 1.516 . S
C2103 C2104 1.502 . S
C2103 C2105 1.561 . S
C2103 C2106 1.526 . S
C2104 H2088 0.959 . S
C2104 H2089 0.959 . S
C2104 H2090 0.961 . S
C2104 C2103 1.502 . S
C2105 H2091 0.960 . S
C2105 H2092 0.961 . S
C2105 H2093 0.959 . S
C2105 C2103 1.561 . S
C2106 C2103 1.526 . S
C2106 C2107 1.396 . S
C2106 C2111 1.390 . S
C2107 C2101 1.465 . S
C2107 C2106 1.396 . S
C2107 C2108 1.399 . S
C2108 H2094 0.929 . S
C2108 C2107 1.399 . S
C2108 C2109 1.385 . S
C2109 H2095 0.931 . S
C2109 C2108 1.385 . S
C2109 C2110 1.389 . S
C2110 C2109 1.389 . S
C2110 C2111 1.387 . S
C2111 H2096 0.930 . S
C2111 C2106 1.390 . S
C2111 C2110 1.387 . S
H2112 C2124 0.930 . S
H2113 C2126 0.930 . S
H2114 C2127 0.930 1_545 S
H2115 C2131 0.959 . S
H2116 C2131 0.959 . S
H2117 C2131 0.961 . S
H2118 C2132 0.960 . S
H2119 C2132 0.959 1_545 S
H2120 C2132 0.959 1_545 S
H2121 C2135 0.929 1_556 S
H2122 C2136 0.931 . S
H2123 C2138 0.930 . S
C2124 H2112 0.930 . S
C2124 C2125 1.399 . S
C2124 C2129 1.399 . S
C2125 C2124 1.399 . S
C2125 C2126 1.376 1_554 S
C2126 H2113 0.930 . S
C2126 C2125 1.376 1_556 S
C2126 C2127 1.388 . S
C2127 H2114 0.930 1_565 S
C2127 C2126 1.388 . S
C2127 C2128 1.390 1_556 S
C2128 C2127 1.390 1_554 S
C2128 C2129 1.394 . S
C2128 C2134 1.465 1_565 S
C2129 C2124 1.399 . S
C2129 C2128 1.394 . S
C2129 C2130 1.516 . S
C2130 C2129 1.516 . S
C2130 C2131 1.502 . S
C2130 C2132 1.561 . S
C2130 C2133 1.526 . S
C2131 H2115 0.959 . S
C2131 H2116 0.959 . S
C2131 H2117 0.961 . S
C2131 C2130 1.502 . S
C2132 H2118 0.960 . S
C2132 H2119 0.959 1_565 S
C2132 H2120 0.959 1_565 S
C2132 C2130 1.561 . S
C2133 C2130 1.526 . S
C2133 C2134 1.396 1_565 S
C2133 C2138 1.390 1_565 S
C2134 C2128 1.465 1_545 S
C2134 C2133 1.396 1_545 S
C2134 C2135 1.399 . S
C2135 H2121 0.929 1_554 S
C2135 C2134 1.399 . S
C2135 C2136 1.385 . S
C2136 H2122 0.931 . S
C2136 C2135 1.385 . S
C2136 C2137 1.389 . S
C2137 C2136 1.389 . S
C2137 C2138 1.387 . S
C2138 H2123 0.930 . S
C2138 C2133 1.390 1_545 S
C2138 C2137 1.387 . S
H2139 C2151 0.930 . S
H2140 C2153 0.930 . S
H2141 C2154 0.930 . S
H2142 C2158 0.959 . S
H2143 C2158 0.959 . S
H2144 C2158 0.961 . S
H2145 C2159 0.960 . S
H2146 C2159 0.961 . S
H2147 C2159 0.959 . S
H2148 C2162 0.929 . S
H2149 C2163 0.931 . S
H2150 C2165 0.930 . S
C2151 H2139 0.930 . S
C2151 C2152 1.399 . S
C2151 C2156 1.399 . S
C2152 C2151 1.399 . S
C2152 C2153 1.376 1_554 S
C2153 H2140 0.930 . S
C2153 C2152 1.376 1_556 S
C2153 C2154 1.388 . S
C2154 H2141 0.930 . S
C2154 C2153 1.388 . S
C2154 C2155 1.390 . S
C2155 C2154 1.390 . S
C2155 C2156 1.394 1_556 S
C2155 C2161 1.465 . S
C2156 C2151 1.399 . S
C2156 C2155 1.394 1_554 S
C2156 C2157 1.516 . S
C2157 C2156 1.516 . S
C2157 C2158 1.502 . S
C2157 C2159 1.561 . S
C2157 C2160 1.526 . S
C2158 H2142 0.959 . S
C2158 H2143 0.959 . S
C2158 H2144 0.961 . S
C2158 C2157 1.502 . S
C2159 H2145 0.960 . S
C2159 H2146 0.961 . S
C2159 H2147 0.959 . S
C2159 C2157 1.561 . S
C2160 C2157 1.526 . S
C2160 C2161 1.396 1_554 S
C2160 C2165 1.390 . S
C2161 C2155 1.465 . S
C2161 C2160 1.396 1_556 S
C2161 C2162 1.399 . S
C2162 H2148 0.929 . S
C2162 C2161 1.399 . S
C2162 C2163 1.385 . S
C2163 H2149 0.931 . S
C2163 C2162 1.385 . S
C2163 C2164 1.389 1_556 S
C2164 C2163 1.389 1_554 S
C2164 C2165 1.387 . S
C2165 H2150 0.930 . S
C2165 C2160 1.390 . S
C2165 C2164 1.387 . S
H2166 C2178 0.930 . S
H2167 C2180 0.930 . S
H2168 C2181 0.930 . S
H2169 C2185 0.959 . S
H2170 C2185 0.959 . S
H2171 C2185 0.961 . S
H2172 C2186 0.960 . S
H2173 C2186 0.961 . S
H2174 C2186 0.959 . S
H2175 C2189 0.929 . S
H2176 C2190 0.931 . S
H2177 C2192 0.930 . S
C2178 H2166 0.930 . S
C2178 C2179 1.399 . S
C2178 C2183 1.399 . S
C2179 C2178 1.399 . S
C2179 C2180 1.376 . S
C2180 H2167 0.930 . S
C2180 C2179 1.376 . S
C2180 C2181 1.388 . S
C2181 H2168 0.930 . S
C2181 C2180 1.388 . S
C2181 C2182 1.390 . S
C2182 C2181 1.390 . S
C2182 C2183 1.394 . S
C2182 C2188 1.465 . S
C2183 C2178 1.399 . S
C2183 C2182 1.394 . S
C2183 C2184 1.516 . S
C2184 C2183 1.516 . S
C2184 C2185 1.502 . S
C2184 C2186 1.561 . S
C2184 C2187 1.526 . S
C2185 H2169 0.959 . S
C2185 H2170 0.959 . S
C2185 H2171 0.961 . S
C2185 C2184 1.502 . S
C2186 H2172 0.960 . S
C2186 H2173 0.961 . S
C2186 H2174 0.959 . S
C2186 C2184 1.561 . S
C2187 C2184 1.526 . S
C2187 C2188 1.396 . S
C2187 C2192 1.390 . S
C2188 C2182 1.465 . S
C2188 C2187 1.396 . S
C2188 C2189 1.399 . S
C2189 H2175 0.929 . S
C2189 C2188 1.399 . S
C2189 C2190 1.385 . S
C2190 H2176 0.931 . S
C2190 C2189 1.385 . S
C2190 C2191 1.389 . S
C2191 C2190 1.389 . S
C2191 C2192 1.387 . S
C2192 H2177 0.930 . S
C2192 C2187 1.390 . S
C2192 C2191 1.387 . S
H2193 C2205 0.930 . S
H2194 C2207 0.930 . S
H2195 C2208 0.930 . S
H2196 C2212 0.959 . S
H2197 C2212 0.959 . S
H2198 C2212 0.961 . S
H2199 C2213 0.960 . S
H2200 C2213 0.961 . S
H2201 C2213 0.959 . S
H2202 C2216 0.929 . S
H2203 C2217 0.931 . S
H2204 C2219 0.930 . S
C2205 H2193 0.930 . S
C2205 C2206 1.399 . S
C2205 C2210 1.399 . S
C2206 C2205 1.399 . S
C2206 C2207 1.376 . S
C2207 H2194 0.930 . S
C2207 C2206 1.376 . S
C2207 C2208 1.388 . S
C2208 H2195 0.930 . S
C2208 C2207 1.388 . S
C2208 C2209 1.390 . S
C2209 C2208 1.390 . S
C2209 C2210 1.394 . S
C2209 C2215 1.465 . S
C2210 C2205 1.399 . S
C2210 C2209 1.394 . S
C2210 C2211 1.516 . S
C2211 C2210 1.516 . S
C2211 C2212 1.502 . S
C2211 C2213 1.561 . S
C2211 C2214 1.526 . S
C2212 H2196 0.959 . S
C2212 H2197 0.959 . S
C2212 H2198 0.961 . S
C2212 C2211 1.502 . S
C2213 H2199 0.960 . S
C2213 H2200 0.961 . S
C2213 H2201 0.959 . S
C2213 C2211 1.561 . S
C2214 C2211 1.526 . S
C2214 C2215 1.396 . S
C2214 C2219 1.390 . S
C2215 C2209 1.465 . S
C2215 C2214 1.396 . S
C2215 C2216 1.399 . S
C2216 H2202 0.929 . S
C2216 C2215 1.399 . S
C2216 C2217 1.385 1_655 S
C2217 H2203 0.931 . S
C2217 C2216 1.385 1_455 S
C2217 C2218 1.389 . S
C2218 C2217 1.389 . S
C2218 C2219 1.387 1_455 S
C2219 H2204 0.930 . S
C2219 C2214 1.390 . S
C2219 C2218 1.387 1_655 S
H2220 C2232 0.930 . S
H2221 C2234 0.930 . S
H2222 C2235 0.930 . S
H2223 C2239 0.959 . S
H2224 C2239 0.959 . S
H2225 C2239 0.961 . S
H2226 C2240 0.960 . S
H2227 C2240 0.961 . S
H2228 C2240 0.959 . S
H2229 C2243 0.929 . S
H2230 C2244 0.931 . S
H2231 C2246 0.930 . S
C2232 H2220 0.930 . S
C2232 C2233 1.399 . S
C2232 C2237 1.399 . S
C2233 C2232 1.399 . S
C2233 C2234 1.376 . S
C2234 H2221 0.930 . S
C2234 C2233 1.376 . S
C2234 C2235 1.388 . S
C2235 H2222 0.930 . S
C2235 C2234 1.388 . S
C2235 C2236 1.390 . S
C2236 C2235 1.390 . S
C2236 C2237 1.394 . S
C2236 C2242 1.465 . S
C2237 C2232 1.399 . S
C2237 C2236 1.394 . S
C2237 C2238 1.516 . S
C2238 C2237 1.516 . S
C2238 C2239 1.502 . S
C2238 C2240 1.561 . S
C2238 C2241 1.526 . S
C2239 H2223 0.959 . S
C2239 H2224 0.959 . S
C2239 H2225 0.961 . S
C2239 C2238 1.502 . S
C2240 H2226 0.960 . S
C2240 H2227 0.961 . S
C2240 H2228 0.959 . S
C2240 C2238 1.561 . S
C2241 C2238 1.526 . S
C2241 C2242 1.396 . S
C2241 C2246 1.390 . S
C2242 C2236 1.465 . S
C2242 C2241 1.396 . S
C2242 C2243 1.399 . S
C2243 H2229 0.929 . S
C2243 C2242 1.399 . S
C2243 C2244 1.385 . S
C2244 H2230 0.931 . S
C2244 C2243 1.385 . S
C2244 C2245 1.389 . S
C2245 C2244 1.389 . S
C2245 C2246 1.387 . S
C2246 H2231 0.930 . S
C2246 C2241 1.390 . S
C2246 C2245 1.387 . S
H2247 C2259 0.930 . S
H2248 C2261 0.930 . S
H2249 C2262 0.930 . S
H2250 C2266 0.959 . S
H2251 C2266 0.959 . S
H2252 C2266 0.961 . S
H2253 C2267 0.960 . S
H2254 C2267 0.961 . S
H2255 C2267 0.959 . S
H2256 C2270 0.929 . S
H2257 C2271 0.931 . S
H2258 C2273 0.930 . S
C2259 H2247 0.930 . S
C2259 C2260 1.399 . S
C2259 C2264 1.399 . S
C2260 C2259 1.399 . S
C2260 C2261 1.376 . S
C2261 H2248 0.930 . S
C2261 C2260 1.376 . S
C2261 C2262 1.388 . S
C2262 H2249 0.930 . S
C2262 C2261 1.388 . S
C2262 C2263 1.390 . S
C2263 C2262 1.390 . S
C2263 C2264 1.394 . S
C2263 C2269 1.465 . S
C2264 C2259 1.399 . S
C2264 C2263 1.394 . S
C2264 C2265 1.516 . S
C2265 C2264 1.516 . S
C2265 C2266 1.502 . S
C2265 C2267 1.561 . S
C2265 C2268 1.526 . S
C2266 H2250 0.959 . S
C2266 H2251 0.959 . S
C2266 H2252 0.961 . S
C2266 C2265 1.502 . S
C2267 H2253 0.960 . S
C2267 H2254 0.961 . S
C2267 H2255 0.959 . S
C2267 C2265 1.561 . S
C2268 C2265 1.526 . S
C2268 C2269 1.396 . S
C2268 C2273 1.390 . S
C2269 C2263 1.465 . S
C2269 C2268 1.396 . S
C2269 C2270 1.399 . S
C2270 H2256 0.929 . S
C2270 C2269 1.399 . S
C2270 C2271 1.385 . S
C2271 H2257 0.931 . S
C2271 C2270 1.385 . S
C2271 C2272 1.389 . S
C2272 C2271 1.389 . S
C2272 C2273 1.387 . S
C2273 H2258 0.930 . S
C2273 C2268 1.390 . S
C2273 C2272 1.387 . S
H2274 C2286 0.930 . S
H2275 C2288 0.930 . S
H2276 C2289 0.930 . S
H2277 C2293 0.959 . S
H2278 C2293 0.959 . S
H2279 C2293 0.961 . S
H2280 C2294 0.960 . S
H2281 C2294 0.961 . S
H2282 C2294 0.959 . S
H2283 C2297 0.929 . S
H2284 C2298 0.931 . S
H2285 C2300 0.930 . S
C2286 H2274 0.930 . S
C2286 C2287 1.399 . S
C2286 C2291 1.399 . S
C2287 C2286 1.399 . S
C2287 C2288 1.376 . S
C2288 H2275 0.930 . S
C2288 C2287 1.376 . S
C2288 C2289 1.388 . S
C2289 H2276 0.930 . S
C2289 C2288 1.388 . S
C2289 C2290 1.390 . S
C2290 C2289 1.390 . S
C2290 C2291 1.394 . S
C2290 C2296 1.465 . S
C2291 C2286 1.399 . S
C2291 C2290 1.394 . S
C2291 C2292 1.516 . S
C2292 C2291 1.516 . S
C2292 C2293 1.502 . S
C2292 C2294 1.561 . S
C2292 C2295 1.526 . S
C2293 H2277 0.959 . S
C2293 H2278 0.959 . S
C2293 H2279 0.961 . S
C2293 C2292 1.502 . S
C2294 H2280 0.960 . S
C2294 H2281 0.961 . S
C2294 H2282 0.959 . S
C2294 C2292 1.561 . S
C2295 C2292 1.526 . S
C2295 C2296 1.396 . S
C2295 C2300 1.390 . S
C2296 C2290 1.465 . S
C2296 C2295 1.396 . S
C2296 C2297 1.399 . S
C2297 H2283 0.929 . S
C2297 C2296 1.399 . S
C2297 C2298 1.385 . S
C2298 H2284 0.931 . S
C2298 C2297 1.385 . S
C2298 C2299 1.389 . S
C2299 C2298 1.389 . S
C2299 C2300 1.387 . S
C2300 H2285 0.930 . S
C2300 C2295 1.390 . S
C2300 C2299 1.387 . S
H2301 C2313 0.930 . S
H2302 C2315 0.930 . S
H2303 C2316 0.930 . S
H2304 C2320 0.959 . S
H2305 C2320 0.959 . S
H2306 C2320 0.961 . S
H2307 C2321 0.960 . S
H2308 C2321 0.961 . S
H2309 C2321 0.959 . S
H2310 C2324 0.929 . S
H2311 C2325 0.931 . S
H2312 C2327 0.930 . S
C2313 H2301 0.930 . S
C2313 C2314 1.399 . S
C2313 C2318 1.399 . S
C2314 C2313 1.399 . S
C2314 C2315 1.376 . S
C2315 H2302 0.930 . S
C2315 C2314 1.376 . S
C2315 C2316 1.388 . S
C2316 H2303 0.930 . S
C2316 C2315 1.388 . S
C2316 C2317 1.390 . S
C2317 C2316 1.390 . S
C2317 C2318 1.394 . S
C2317 C2323 1.465 . S
C2318 C2313 1.399 . S
C2318 C2317 1.394 . S
C2318 C2319 1.516 . S
C2319 C2318 1.516 . S
C2319 C2320 1.502 . S
C2319 C2321 1.561 . S
C2319 C2322 1.526 . S
C2320 H2304 0.959 . S
C2320 H2305 0.959 . S
C2320 H2306 0.961 . S
C2320 C2319 1.502 . S
C2321 H2307 0.960 . S
C2321 H2308 0.961 . S
C2321 H2309 0.959 . S
C2321 C2319 1.561 . S
C2322 C2319 1.526 . S
C2322 C2323 1.396 . S
C2322 C2327 1.390 . S
C2323 C2317 1.465 . S
C2323 C2322 1.396 . S
C2323 C2324 1.399 . S
C2324 H2310 0.929 . S
C2324 C2323 1.399 . S
C2324 C2325 1.385 . S
C2325 H2311 0.931 . S
C2325 C2324 1.385 . S
C2325 C2326 1.389 . S
C2326 C2325 1.389 . S
C2326 C2327 1.387 . S
C2327 H2312 0.930 . S
C2327 C2322 1.390 . S
C2327 C2326 1.387 . S
H2328 C2340 0.930 . S
H2329 C2342 0.930 . S
H2330 C2343 0.930 . S
H2331 C2347 0.959 . S
H2332 C2347 0.959 . S
H2333 C2347 0.961 . S
H2334 C2348 0.960 . S
H2335 C2348 0.961 . S
H2336 C2348 0.959 . S
H2337 C2351 0.929 . S
H2338 C2352 0.931 1_556 S
H2339 C2354 0.930 . S
C2340 H2328 0.930 . S
C2340 C2341 1.399 . S
C2340 C2345 1.399 . S
C2341 C2340 1.399 . S
C2341 C2342 1.376 . S
C2342 H2329 0.930 . S
C2342 C2341 1.376 . S
C2342 C2343 1.388 . S
C2343 H2330 0.930 . S
C2343 C2342 1.388 . S
C2343 C2344 1.390 . S
C2344 C2343 1.390 . S
C2344 C2345 1.394 . S
C2344 C2350 1.465 . S
C2345 C2340 1.399 . S
C2345 C2344 1.394 . S
C2345 C2346 1.516 . S
C2346 C2345 1.516 . S
C2346 C2347 1.502 . S
C2346 C2348 1.561 . S
C2346 C2349 1.526 . S
C2347 H2331 0.959 . S
C2347 H2332 0.959 . S
C2347 H2333 0.961 . S
C2347 C2346 1.502 . S
C2348 H2334 0.960 . S
C2348 H2335 0.961 . S
C2348 H2336 0.959 . S
C2348 C2346 1.561 . S
C2349 C2346 1.526 . S
C2349 C2350 1.396 . S
C2349 C2354 1.390 . S
C2350 C2344 1.465 . S
C2350 C2349 1.396 . S
C2350 C2351 1.399 . S
C2351 H2337 0.929 . S
C2351 C2350 1.399 . S
C2351 C2352 1.385 . S
C2352 H2338 0.931 1_554 S
C2352 C2351 1.385 . S
C2352 C2353 1.389 . S
C2353 C2352 1.389 . S
C2353 C2354 1.387 . S
C2354 H2339 0.930 . S
C2354 C2349 1.390 . S
C2354 C2353 1.387 . S
H2355 C2367 0.930 . S
H2356 C2369 0.930 . S
H2357 C2370 0.930 . S
H2358 C2374 0.959 . S
H2359 C2374 0.959 . S
H2360 C2374 0.961 . S
H2361 C2375 0.960 . S
H2362 C2375 0.961 . S
H2363 C2375 0.959 . S
H2364 C2378 0.929 . S
H2365 C2379 0.931 . S
H2366 C2381 0.930 . S
C2367 H2355 0.930 . S
C2367 C2368 1.399 . S
C2367 C2372 1.399 . S
C2368 C2367 1.399 . S
C2368 C2369 1.376 . S
C2369 H2356 0.930 . S
C2369 C2368 1.376 . S
C2369 C2370 1.388 . S
C2370 H2357 0.930 . S
C2370 C2369 1.388 . S
C2370 C2371 1.390 . S
C2371 C2370 1.390 . S
C2371 C2372 1.394 . S
C2371 C2377 1.465 . S
C2372 C2367 1.399 . S
C2372 C2371 1.394 . S
C2372 C2373 1.516 . S
C2373 C2372 1.516 . S
C2373 C2374 1.502 . S
C2373 C2375 1.561 . S
C2373 C2376 1.526 . S
C2374 H2358 0.959 . S
C2374 H2359 0.959 . S
C2374 H2360 0.961 . S
C2374 C2373 1.502 . S
C2375 H2361 0.960 . S
C2375 H2362 0.961 . S
C2375 H2363 0.959 . S
C2375 C2373 1.561 . S
C2376 C2373 1.526 . S
C2376 C2377 1.396 . S
C2376 C2381 1.390 . S
C2377 C2371 1.465 . S
C2377 C2376 1.396 . S
C2377 C2378 1.399 . S
C2378 H2364 0.929 . S
C2378 C2377 1.399 . S
C2378 C2379 1.385 . S
C2379 H2365 0.931 . S
C2379 C2378 1.385 . S
C2379 C2380 1.389 . S
C2380 C2379 1.389 . S
C2380 C2381 1.387 . S
C2381 H2366 0.930 . S
C2381 C2376 1.390 . S
C2381 C2380 1.387 . S
H2382 C2394 0.930 . S
H2383 C2396 0.930 . S
H2384 C2397 0.930 . S
H2385 C2401 0.959 . S
H2386 C2401 0.959 . S
H2387 C2401 0.961 . S
H2388 C2402 0.960 . S
H2389 C2402 0.961 . S
H2390 C2402 0.959 . S
H2391 C2405 0.929 . S
H2392 C2406 0.931 . S
H2393 C2408 0.930 . S
C2394 H2382 0.930 . S
C2394 C2395 1.399 . S
C2394 C2399 1.399 . S
C2395 C2394 1.399 . S
C2395 C2396 1.376 . S
C2396 H2383 0.930 . S
C2396 C2395 1.376 . S
C2396 C2397 1.388 . S
C2397 H2384 0.930 . S
C2397 C2396 1.388 . S
C2397 C2398 1.390 . S
C2398 C2397 1.390 . S
C2398 C2399 1.394 . S
C2398 C2404 1.465 . S
C2399 C2394 1.399 . S
C2399 C2398 1.394 . S
C2399 C2400 1.516 . S
C2400 C2399 1.516 . S
C2400 C2401 1.502 . S
C2400 C2402 1.561 . S
C2400 C2403 1.526 . S
C2401 H2385 0.959 . S
C2401 H2386 0.959 . S
C2401 H2387 0.961 . S
C2401 C2400 1.502 . S
C2402 H2388 0.960 . S
C2402 H2389 0.961 . S
C2402 H2390 0.959 . S
C2402 C2400 1.561 . S
C2403 C2400 1.526 . S
C2403 C2404 1.396 . S
C2403 C2408 1.390 . S
C2404 C2398 1.465 . S
C2404 C2403 1.396 . S
C2404 C2405 1.399 . S
C2405 H2391 0.929 . S
C2405 C2404 1.399 . S
C2405 C2406 1.385 . S
C2406 H2392 0.931 . S
C2406 C2405 1.385 . S
C2406 C2407 1.389 . S
C2407 C2406 1.389 . S
C2407 C2408 1.387 . S
C2408 H2393 0.930 . S
C2408 C2403 1.390 . S
C2408 C2407 1.387 . S
H2409 C2421 0.930 . S
H2410 C2423 0.930 . S
H2411 C2424 0.930 . S
H2412 C2428 0.959 . S
H2413 C2428 0.959 . S
H2414 C2428 0.961 . S
H2415 C2429 0.960 . S
H2416 C2429 0.961 . S
H2417 C2429 0.959 . S
H2418 C2432 0.929 . S
H2419 C2433 0.931 . S
H2420 C2435 0.930 . S
C2421 H2409 0.930 . S
C2421 C2422 1.399 . S
C2421 C2426 1.399 . S
C2422 C2421 1.399 . S
C2422 C2423 1.376 . S
C2423 H2410 0.930 . S
C2423 C2422 1.376 . S
C2423 C2424 1.388 . S
C2424 H2411 0.930 . S
C2424 C2423 1.388 . S
C2424 C2425 1.390 . S
C2425 C2424 1.390 . S
C2425 C2426 1.394 . S
C2425 C2431 1.465 . S
C2426 C2421 1.399 . S
C2426 C2425 1.394 . S
C2426 C2427 1.516 . S
C2427 C2426 1.516 . S
C2427 C2428 1.502 . S
C2427 C2429 1.561 . S
C2427 C2430 1.526 . S
C2428 H2412 0.959 . S
C2428 H2413 0.959 . S
C2428 H2414 0.961 . S
C2428 C2427 1.502 . S
C2429 H2415 0.960 . S
C2429 H2416 0.961 . S
C2429 H2417 0.959 . S
C2429 C2427 1.561 . S
C2430 C2427 1.526 . S
C2430 C2431 1.396 . S
C2430 C2435 1.390 . S
C2431 C2425 1.465 . S
C2431 C2430 1.396 . S
C2431 C2432 1.399 . S
C2432 H2418 0.929 . S
C2432 C2431 1.399 . S
C2432 C2433 1.385 . S
C2433 H2419 0.931 . S
C2433 C2432 1.385 . S
C2433 C2434 1.389 . S
C2434 C2433 1.389 . S
C2434 C2435 1.387 . S
C2435 H2420 0.930 . S
C2435 C2430 1.390 . S
C2435 C2434 1.387 . S
H2436 C2448 0.930 . S
H2437 C2450 0.930 . S
H2438 C2451 0.930 . S
H2439 C2455 0.959 . S
H2440 C2455 0.959 . S
H2441 C2455 0.961 . S
H2442 C2456 0.960 . S
H2443 C2456 0.961 . S
H2444 C2456 0.959 . S
H2445 C2459 0.929 . S
H2446 C2460 0.931 . S
H2447 C2462 0.930 . S
C2448 H2436 0.930 . S
C2448 C2449 1.399 . S
C2448 C2453 1.399 . S
C2449 C2448 1.399 . S
C2449 C2450 1.376 . S
C2450 H2437 0.930 . S
C2450 C2449 1.376 . S
C2450 C2451 1.388 . S
C2451 H2438 0.930 . S
C2451 C2450 1.388 . S
C2451 C2452 1.390 . S
C2452 C2451 1.390 . S
C2452 C2453 1.394 . S
C2452 C2458 1.465 . S
C2453 C2448 1.399 . S
C2453 C2452 1.394 . S
C2453 C2454 1.516 . S
C2454 C2453 1.516 . S
C2454 C2455 1.502 . S
C2454 C2456 1.561 . S
C2454 C2457 1.526 . S
C2455 H2439 0.959 . S
C2455 H2440 0.959 . S
C2455 H2441 0.961 . S
C2455 C2454 1.502 . S
C2456 H2442 0.960 . S
C2456 H2443 0.961 . S
C2456 H2444 0.959 . S
C2456 C2454 1.561 . S
C2457 C2454 1.526 . S
C2457 C2458 1.396 . S
C2457 C2462 1.390 . S
C2458 C2452 1.465 . S
C2458 C2457 1.396 . S
C2458 C2459 1.399 . S
C2459 H2445 0.929 . S
C2459 C2458 1.399 . S
C2459 C2460 1.385 . S
C2460 H2446 0.931 . S
C2460 C2459 1.385 . S
C2460 C2461 1.389 . S
C2461 C2460 1.389 . S
C2461 C2462 1.387 . S
C2462 H2447 0.930 . S
C2462 C2457 1.390 . S
C2462 C2461 1.387 . S
H2463 C2475 0.930 . S
H2464 C2477 0.930 . S
H2465 C2478 0.930 . S
H2466 C2482 0.959 . S
H2467 C2482 0.959 . S
H2468 C2482 0.961 . S
H2469 C2483 0.960 . S
H2470 C2483 0.961 . S
H2471 C2483 0.959 . S
H2472 C2486 0.929 . S
H2473 C2487 0.931 . S
H2474 C2489 0.930 . S
C2475 H2463 0.930 . S
C2475 C2476 1.399 . S
C2475 C2480 1.399 . S
C2476 C2475 1.399 . S
C2476 C2477 1.376 . S
C2477 H2464 0.930 . S
C2477 C2476 1.376 . S
C2477 C2478 1.388 . S
C2478 H2465 0.930 . S
C2478 C2477 1.388 . S
C2478 C2479 1.390 . S
C2479 C2478 1.390 . S
C2479 C2480 1.394 . S
C2479 C2485 1.465 . S
C2480 C2475 1.399 . S
C2480 C2479 1.394 . S
C2480 C2481 1.516 . S
C2481 C2480 1.516 . S
C2481 C2482 1.502 . S
C2481 C2483 1.561 . S
C2481 C2484 1.526 . S
C2482 H2466 0.959 . S
C2482 H2467 0.959 . S
C2482 H2468 0.961 . S
C2482 C2481 1.502 . S
C2483 H2469 0.960 . S
C2483 H2470 0.961 . S
C2483 H2471 0.959 . S
C2483 C2481 1.561 . S
C2484 C2481 1.526 . S
C2484 C2485 1.396 . S
C2484 C2489 1.390 . S
C2485 C2479 1.465 . S
C2485 C2484 1.396 . S
C2485 C2486 1.399 . S
C2486 H2472 0.929 . S
C2486 C2485 1.399 . S
C2486 C2487 1.385 . S
C2487 H2473 0.931 . S
C2487 C2486 1.385 . S
C2487 C2488 1.389 . S
C2488 C2487 1.389 . S
C2488 C2489 1.387 . S
C2489 H2474 0.930 . S
C2489 C2484 1.390 . S
C2489 C2488 1.387 . S
H2490 C2502 0.930 . S
H2491 C2504 0.930 . S
H2492 C2505 0.930 . S
H2493 C2509 0.959 . S
H2494 C2509 0.959 . S
H2495 C2509 0.961 . S
H2496 C2510 0.960 . S
H2497 C2510 0.961 . S
H2498 C2510 0.959 . S
H2499 C2513 0.929 . S
H2500 C2514 0.931 1_544 S
H2501 C2516 0.930 . S
C2502 H2490 0.930 . S
C2502 C2503 1.399 . S
C2502 C2507 1.399 . S
C2503 C2502 1.399 . S
C2503 C2504 1.376 . S
C2504 H2491 0.930 . S
C2504 C2503 1.376 . S
C2504 C2505 1.388 . S
C2505 H2492 0.930 . S
C2505 C2504 1.388 . S
C2505 C2506 1.390 . S
C2506 C2505 1.390 . S
C2506 C2507 1.394 . S
C2506 C2512 1.465 . S
C2507 C2502 1.399 . S
C2507 C2506 1.394 . S
C2507 C2508 1.516 . S
C2508 C2507 1.516 . S
C2508 C2509 1.502 . S
C2508 C2510 1.561 . S
C2508 C2511 1.526 . S
C2509 H2493 0.959 . S
C2509 H2494 0.959 . S
C2509 H2495 0.961 . S
C2509 C2508 1.502 . S
C2510 H2496 0.960 . S
C2510 H2497 0.961 . S
C2510 H2498 0.959 . S
C2510 C2508 1.561 . S
C2511 C2508 1.526 . S
C2511 C2512 1.396 . S
C2511 C2516 1.390 . S
C2512 C2506 1.465 . S
C2512 C2511 1.396 . S
C2512 C2513 1.399 . S
C2513 H2499 0.929 . S
C2513 C2512 1.399 . S
C2513 C2514 1.385 . S
C2514 H2500 0.931 1_566 S
C2514 C2513 1.385 . S
C2514 C2515 1.389 . S
C2515 C2514 1.389 . S
C2515 C2516 1.387 . S
C2516 H2501 0.930 . S
C2516 C2511 1.390 . S
C2516 C2515 1.387 . S
H2517 C2529 0.930 . S
H2518 C2531 0.930 . S
H2519 C2532 0.930 . S
H2520 C2536 0.959 . S
H2521 C2536 0.959 . S
H2522 C2536 0.961 . S
H2523 C2537 0.960 . S
H2524 C2537 0.961 . S
H2525 C2537 0.959 . S
H2526 C2540 0.929 . S
H2527 C2541 0.931 . S
H2528 C2543 0.930 . S
C2529 H2517 0.930 . S
C2529 C2530 1.399 . S
C2529 C2534 1.399 . S
C2530 C2529 1.399 . S
C2530 C2531 1.376 . S
C2531 H2518 0.930 . S
C2531 C2530 1.376 . S
C2531 C2532 1.388 . S
C2532 H2519 0.930 . S
C2532 C2531 1.388 . S
C2532 C2533 1.390 . S
C2533 C2532 1.390 . S
C2533 C2534 1.394 . S
C2533 C2539 1.465 . S
C2534 C2529 1.399 . S
C2534 C2533 1.394 . S
C2534 C2535 1.516 . S
C2535 C2534 1.516 . S
C2535 C2536 1.502 . S
C2535 C2537 1.561 . S
C2535 C2538 1.526 . S
C2536 H2520 0.959 . S
C2536 H2521 0.959 . S
C2536 H2522 0.961 . S
C2536 C2535 1.502 . S
C2537 H2523 0.960 . S
C2537 H2524 0.961 . S
C2537 H2525 0.959 . S
C2537 C2535 1.561 . S
C2538 C2535 1.526 . S
C2538 C2539 1.396 . S
C2538 C2543 1.390 . S
C2539 C2533 1.465 . S
C2539 C2538 1.396 . S
C2539 C2540 1.399 . S
C2540 H2526 0.929 . S
C2540 C2539 1.399 . S
C2540 C2541 1.385 . S
C2541 H2527 0.931 . S
C2541 C2540 1.385 . S
C2541 C2542 1.389 . S
C2542 C2541 1.389 . S
C2542 C2543 1.387 . S
C2543 H2528 0.930 . S
C2543 C2538 1.390 . S
C2543 C2542 1.387 . S
H2544 C2556 0.930 . S
H2545 C2558 0.930 . S
H2546 C2559 0.930 . S
H2547 C2563 0.959 . S
H2548 C2563 0.959 . S
H2549 C2563 0.961 . S
H2550 C2564 0.960 . S
H2551 C2564 0.961 . S
H2552 C2564 0.959 . S
H2553 C2567 0.929 . S
H2554 C2568 0.931 . S
H2555 C2570 0.930 . S
C2556 H2544 0.930 . S
C2556 C2557 1.399 . S
C2556 C2561 1.399 . S
C2557 C2556 1.399 . S
C2557 C2558 1.376 1_545 S
C2558 H2545 0.930 . S
C2558 C2557 1.376 1_565 S
C2558 C2559 1.388 . S
C2559 H2546 0.930 . S
C2559 C2558 1.388 . S
C2559 C2560 1.390 1_565 S
C2560 C2559 1.390 1_545 S
C2560 C2561 1.394 . S
C2560 C2566 1.465 . S
C2561 C2556 1.399 . S
C2561 C2560 1.394 . S
C2561 C2562 1.516 . S
C2562 C2561 1.516 . S
C2562 C2563 1.502 . S
C2562 C2564 1.561 . S
C2562 C2565 1.526 . S
C2563 H2547 0.959 . S
C2563 H2548 0.959 . S
C2563 H2549 0.961 . S
C2563 C2562 1.502 . S
C2564 H2550 0.960 . S
C2564 H2551 0.961 . S
C2564 H2552 0.959 . S
C2564 C2562 1.561 . S
C2565 C2562 1.526 . S
C2565 C2566 1.396 . S
C2565 C2570 1.390 . S
C2566 C2560 1.465 . S
C2566 C2565 1.396 . S
C2566 C2567 1.399 1_545 S
C2567 H2553 0.929 . S
C2567 C2566 1.399 1_565 S
C2567 C2568 1.385 . S
C2568 H2554 0.931 . S
C2568 C2567 1.385 . S
C2568 C2569 1.389 1_565 S
C2569 C2568 1.389 1_545 S
C2569 C2570 1.387 . S
C2570 H2555 0.930 . S
C2570 C2565 1.390 . S
C2570 C2569 1.387 . S
H2571 C2583 0.930 . S
H2572 C2585 0.930 . S
H2573 C2586 0.930 . S
H2574 C2590 0.959 . S
H2575 C2590 0.959 . S
H2576 C2590 0.961 . S
H2577 C2591 0.960 . S
H2578 C2591 0.961 . S
H2579 C2591 0.959 . S
H2580 C2594 0.929 . S
H2581 C2595 0.931 . S
H2582 C2597 0.930 . S
C2583 H2571 0.930 . S
C2583 C2584 1.399 . S
C2583 C2588 1.399 . S
C2584 C2583 1.399 . S
C2584 C2585 1.376 . S
C2585 H2572 0.930 . S
C2585 C2584 1.376 . S
C2585 C2586 1.388 . S
C2586 H2573 0.930 . S
C2586 C2585 1.388 . S
C2586 C2587 1.390 . S
C2587 C2586 1.390 . S
C2587 C2588 1.394 . S
C2587 C2593 1.465 . S
C2588 C2583 1.399 . S
C2588 C2587 1.394 . S
C2588 C2589 1.516 . S
C2589 C2588 1.516 . S
C2589 C2590 1.502 . S
C2589 C2591 1.561 . S
C2589 C2592 1.526 . S
C2590 H2574 0.959 . S
C2590 H2575 0.959 . S
C2590 H2576 0.961 . S
C2590 C2589 1.502 . S
C2591 H2577 0.960 . S
C2591 H2578 0.961 . S
C2591 H2579 0.959 . S
C2591 C2589 1.561 . S
C2592 C2589 1.526 . S
C2592 C2593 1.396 . S
C2592 C2597 1.390 . S
C2593 C2587 1.465 . S
C2593 C2592 1.396 . S
C2593 C2594 1.399 . S
C2594 H2580 0.929 . S
C2594 C2593 1.399 . S
C2594 C2595 1.385 . S
C2595 H2581 0.931 . S
C2595 C2594 1.385 . S
C2595 C2596 1.389 . S
C2596 C2595 1.389 . S
C2596 C2597 1.387 . S
C2597 H2582 0.930 . S
C2597 C2592 1.390 . S
C2597 C2596 1.387 . S
H2598 C2610 0.930 . S
H2599 C2612 0.930 . S
H2600 C2613 0.930 . S
H2601 C2617 0.959 . S
H2602 C2617 0.959 . S
H2603 C2617 0.961 . S
H2604 C2618 0.960 1_565 S
H2605 C2618 0.961 1_565 S
H2606 C2618 0.959 . S
H2607 C2621 0.929 . S
H2608 C2622 0.931 . S
H2609 C2624 0.930 . S
C2610 H2598 0.930 . S
C2610 C2611 1.399 . S
C2610 C2615 1.399 . S
C2611 C2610 1.399 . S
C2611 C2612 1.376 . S
C2612 H2599 0.930 . S
C2612 C2611 1.376 . S
C2612 C2613 1.388 . S
C2613 H2600 0.930 . S
C2613 C2612 1.388 . S
C2613 C2614 1.390 . S
C2614 C2613 1.390 . S
C2614 C2615 1.394 . S
C2614 C2620 1.465 . S
C2615 C2610 1.399 . S
C2615 C2614 1.394 . S
C2615 C2616 1.516 . S
C2616 C2615 1.516 . S
C2616 C2617 1.502 1_545 S
C2616 C2618 1.561 . S
C2616 C2619 1.526 . S
C2617 H2601 0.959 . S
C2617 H2602 0.959 . S
C2617 H2603 0.961 . S
C2617 C2616 1.502 1_565 S
C2618 H2604 0.960 1_545 S
C2618 H2605 0.961 1_545 S
C2618 H2606 0.959 . S
C2618 C2616 1.561 . S
C2619 C2616 1.526 . S
C2619 C2620 1.396 . S
C2619 C2624 1.390 . S
C2620 C2614 1.465 . S
C2620 C2619 1.396 . S
C2620 C2621 1.399 . S
C2621 H2607 0.929 . S
C2621 C2620 1.399 . S
C2621 C2622 1.385 . S
C2622 H2608 0.931 . S
C2622 C2621 1.385 . S
C2622 C2623 1.389 . S
C2623 C2622 1.389 . S
C2623 C2624 1.387 . S
C2624 H2609 0.930 . S
C2624 C2619 1.390 . S
C2624 C2623 1.387 . S
H2625 C2637 0.930 . S
H2626 C2639 0.930 . S
H2627 C2640 0.930 . S
H2628 C2644 0.959 . S
H2629 C2644 0.959 . S
H2630 C2644 0.961 . S
H2631 C2645 0.960 . S
H2632 C2645 0.961 . S
H2633 C2645 0.959 . S
H2634 C2648 0.929 . S
H2635 C2649 0.931 . S
H2636 C2651 0.930 . S
C2637 H2625 0.930 . S
C2637 C2638 1.399 . S
C2637 C2642 1.399 . S
C2638 C2637 1.399 . S
C2638 C2639 1.376 . S
C2639 H2626 0.930 . S
C2639 C2638 1.376 . S
C2639 C2640 1.388 . S
C2640 H2627 0.930 . S
C2640 C2639 1.388 . S
C2640 C2641 1.390 . S
C2641 C2640 1.390 . S
C2641 C2642 1.394 . S
C2641 C2647 1.465 . S
C2642 C2637 1.399 . S
C2642 C2641 1.394 . S
C2642 C2643 1.516 . S
C2643 C2642 1.516 . S
C2643 C2644 1.502 . S
C2643 C2645 1.561 . S
C2643 C2646 1.526 . S
C2644 H2628 0.959 . S
C2644 H2629 0.959 . S
C2644 H2630 0.961 . S
C2644 C2643 1.502 . S
C2645 H2631 0.960 . S
C2645 H2632 0.961 . S
C2645 H2633 0.959 . S
C2645 C2643 1.561 . S
C2646 C2643 1.526 . S
C2646 C2647 1.396 . S
C2646 C2651 1.390 . S
C2647 C2641 1.465 . S
C2647 C2646 1.396 . S
C2647 C2648 1.399 . S
C2648 H2634 0.929 . S
C2648 C2647 1.399 . S
C2648 C2649 1.385 . S
C2649 H2635 0.931 . S
C2649 C2648 1.385 . S
C2649 C2650 1.389 . S
C2650 C2649 1.389 . S
C2650 C2651 1.387 . S
C2651 H2636 0.930 . S
C2651 C2646 1.390 . S
C2651 C2650 1.387 . S
H2652 C2664 0.930 . S
H2653 C2666 0.930 . S
H2654 C2667 0.930 . S
H2655 C2671 0.959 . S
H2656 C2671 0.959 . S
H2657 C2671 0.961 . S
H2658 C2672 0.960 . S
H2659 C2672 0.961 . S
H2660 C2672 0.959 . S
H2661 C2675 0.929 . S
H2662 C2676 0.931 . S
H2663 C2678 0.930 1_565 S
C2664 H2652 0.930 . S
C2664 C2665 1.399 1_565 S
C2664 C2669 1.408 . S
C2665 C2664 1.399 1_545 S
C2665 C2666 1.376 . S
C2666 H2653 0.930 . S
C2666 C2665 1.376 . S
C2666 C2667 1.388 . S
C2667 H2654 0.930 . S
C2667 C2666 1.388 . S
C2667 C2668 1.390 . S
C2668 C2667 1.390 . S
C2668 C2669 1.381 1_545 S
C2668 C2674 1.465 . S
C2669 C2664 1.408 . S
C2669 C2668 1.381 1_565 S
C2669 C2670 1.518 . S
C2670 C2669 1.518 . S
C2670 C2671 1.502 . S
C2670 C2672 1.561 . S
C2670 C2673 1.526 1_565 S
C2671 H2655 0.959 . S
C2671 H2656 0.959 . S
C2671 H2657 0.961 . S
C2671 C2670 1.502 . S
C2672 H2658 0.960 . S
C2672 H2659 0.961 . S
C2672 H2660 0.959 . S
C2672 C2670 1.561 . S
C2673 C2670 1.526 1_545 S
C2673 C2674 1.396 . S
C2673 C2678 1.390 . S
C2674 C2668 1.465 . S
C2674 C2673 1.396 . S
C2674 C2675 1.399 . S
C2675 H2661 0.929 . S
C2675 C2674 1.399 . S
C2675 C2676 1.385 . S
C2676 H2662 0.931 . S
C2676 C2675 1.385 . S
C2676 C2677 1.389 . S
C2677 C2676 1.389 . S
C2677 C2678 1.387 . S
C2678 H2663 0.930 1_545 S
C2678 C2673 1.390 . S
C2678 C2677 1.387 . S
H2679 C2691 0.930 . S
H2680 C2693 0.930 . S
H2681 C2694 0.930 . S
H2682 C2698 0.959 . S
H2683 C2698 0.959 . S
H2684 C2698 0.961 . S
H2685 C2699 0.960 . S
H2686 C2699 0.961 . S
H2687 C2699 0.959 . S
H2688 C2702 0.929 . S
H2689 C2703 0.931 . S
H2690 C2705 0.930 . S
C2691 H2679 0.930 . S
C2691 C2692 1.399 . S
C2691 C2696 1.399 . S
C2692 C2691 1.399 . S
C2692 C2693 1.376 . S
C2693 H2680 0.930 . S
C2693 C2692 1.376 . S
C2693 C2694 1.388 . S
C2694 H2681 0.930 . S
C2694 C2693 1.388 . S
C2694 C2695 1.390 . S
C2695 C2694 1.390 . S
C2695 C2696 1.394 . S
C2695 C2701 1.465 . S
C2696 C2691 1.399 . S
C2696 C2695 1.394 . S
C2696 C2697 1.516 . S
C2697 C2696 1.516 . S
C2697 C2698 1.502 . S
C2697 C2699 1.561 . S
C2697 C2700 1.526 . S
C2698 H2682 0.959 . S
C2698 H2683 0.959 . S
C2698 H2684 0.961 . S
C2698 C2697 1.502 . S
C2699 H2685 0.960 . S
C2699 H2686 0.961 . S
C2699 H2687 0.959 . S
C2699 C2697 1.561 . S
C2700 C2697 1.526 . S
C2700 C2701 1.396 . S
C2700 C2705 1.390 . S
C2701 C2695 1.465 . S
C2701 C2700 1.396 . S
C2701 C2702 1.399 . S
C2702 H2688 0.929 . S
C2702 C2701 1.399 . S
C2702 C2703 1.385 . S
C2703 H2689 0.931 . S
C2703 C2702 1.385 . S
C2703 C2704 1.389 . S
C2704 C2703 1.389 . S
C2704 C2705 1.387 . S
C2705 H2690 0.930 . S
C2705 C2700 1.390 . S
C2705 C2704 1.387 . S
H2706 C2718 0.930 . S
H2707 C2720 0.927 1_565 S
H2708 C2721 0.930 . S
H2709 C2725 0.959 . S
H2710 C2725 0.959 . S
H2711 C2725 0.961 . S
H2712 C2726 0.960 . S
H2713 C2726 0.961 . S
H2714 C2726 0.959 . S
H2715 C2729 0.929 . S
H2716 C2730 0.931 1_565 S
H2717 C2732 0.930 . S
C2718 H2706 0.930 . S
C2718 C2719 1.399 . S
C2718 C2723 1.399 . S
C2719 C2718 1.399 . S
C2719 C2720 1.380 . S
C2720 H2707 0.927 1_545 S
C2720 C2719 1.380 . S
C2720 C2721 1.388 1_545 S
C2721 H2708 0.930 . S
C2721 C2720 1.388 1_565 S
C2721 C2722 1.390 1_565 S
C2722 C2721 1.390 1_545 S
C2722 C2723 1.394 . S
C2722 C2728 1.465 . S
C2723 C2718 1.399 . S
C2723 C2722 1.394 . S
C2723 C2724 1.516 . S
C2724 C2723 1.516 . S
C2724 C2725 1.502 . S
C2724 C2726 1.561 . S
C2724 C2727 1.526 . S
C2725 H2709 0.959 . S
C2725 H2710 0.959 . S
C2725 H2711 0.961 . S
C2725 C2724 1.502 . S
C2726 H2712 0.960 . S
C2726 H2713 0.961 . S
C2726 H2714 0.959 . S
C2726 C2724 1.561 . S
C2727 C2724 1.526 . S
C2727 C2728 1.396 . S
C2727 C2732 1.390 . S
C2728 C2722 1.465 . S
C2728 C2727 1.396 . S
C2728 C2729 1.399 1_545 S
C2729 H2715 0.929 . S
C2729 C2728 1.399 1_565 S
C2729 C2730 1.385 1_565 S
C2730 H2716 0.931 1_545 S
C2730 C2729 1.385 1_545 S
C2730 C2731 1.389 . S
C2731 C2730 1.389 . S
C2731 C2732 1.387 . S
C2732 H2717 0.930 . S
C2732 C2727 1.390 . S
C2732 C2731 1.387 . S
H2733 C2745 0.930 . S
H2734 C2747 0.930 . S
H2735 C2748 0.930 . S
H2736 C2752 0.959 . S
H2737 C2752 0.959 . S
H2738 C2752 0.961 . S
H2739 C2753 0.960 . S
H2740 C2753 0.961 . S
H2741 C2753 0.959 . S
H2742 C2756 0.929 . S
H2743 C2757 0.931 . S
H2744 C2759 0.930 . S
C2745 H2733 0.930 . S
C2745 C2746 1.399 . S
C2745 C2750 1.399 . S
C2746 C2745 1.399 . S
C2746 C2747 1.376 . S
C2747 H2734 0.930 . S
C2747 C2746 1.376 . S
C2747 C2748 1.388 . S
C2748 H2735 0.930 . S
C2748 C2747 1.388 . S
C2748 C2749 1.390 . S
C2749 C2748 1.390 . S
C2749 C2750 1.394 . S
C2749 C2755 1.465 . S
C2750 C2745 1.399 . S
C2750 C2749 1.394 . S
C2750 C2751 1.516 . S
C2751 C2750 1.516 . S
C2751 C2752 1.502 . S
C2751 C2753 1.561 . S
C2751 C2754 1.526 . S
C2752 H2736 0.959 . S
C2752 H2737 0.959 . S
C2752 H2738 0.961 . S
C2752 C2751 1.502 . S
C2753 H2739 0.960 . S
C2753 H2740 0.961 . S
C2753 H2741 0.959 . S
C2753 C2751 1.561 . S
C2754 C2751 1.526 . S
C2754 C2755 1.396 . S
C2754 C2759 1.390 . S
C2755 C2749 1.465 . S
C2755 C2754 1.396 . S
C2755 C2756 1.399 . S
C2756 H2742 0.929 . S
C2756 C2755 1.399 . S
C2756 C2757 1.385 . S
C2757 H2743 0.931 . S
C2757 C2756 1.385 . S
C2757 C2758 1.389 . S
C2758 C2757 1.389 . S
C2758 C2759 1.387 . S
C2759 H2744 0.930 . S
C2759 C2754 1.390 . S
C2759 C2758 1.387 . S
H2760 C2772 0.930 . S
H2761 C2774 0.930 . S
H2762 C2775 0.930 . S
H2763 C2779 0.959 1_554 S
H2764 C2779 0.959 . S
H2765 C2779 0.961 . S
H2766 C2780 0.960 . S
H2767 C2780 0.961 . S
H2768 C2780 0.959 . S
H2769 C2783 0.929 . S
H2770 C2784 0.931 . S
H2771 C2786 0.930 1_556 S
C2772 H2760 0.930 . S
C2772 C2773 1.399 . S
C2772 C2777 1.399 . S
C2773 C2772 1.399 . S
C2773 C2774 1.376 . S
C2774 H2761 0.930 . S
C2774 C2773 1.376 . S
C2774 C2775 1.388 . S
C2775 H2762 0.930 . S
C2775 C2774 1.388 . S
C2775 C2776 1.390 . S
C2776 C2775 1.390 . S
C2776 C2777 1.394 . S
C2776 C2782 1.465 . S
C2777 C2772 1.399 . S
C2777 C2776 1.394 . S
C2777 C2778 1.516 1_554 S
C2778 C2777 1.516 1_556 S
C2778 C2779 1.502 . S
C2778 C2780 1.561 . S
C2778 C2781 1.526 1_556 S
C2779 H2763 0.959 1_556 S
C2779 H2764 0.959 . S
C2779 H2765 0.961 . S
C2779 C2778 1.502 . S
C2780 H2766 0.960 . S
C2780 H2767 0.961 . S
C2780 H2768 0.959 . S
C2780 C2778 1.561 . S
C2781 C2778 1.526 1_554 S
C2781 C2782 1.396 . S
C2781 C2786 1.390 . S
C2782 C2776 1.465 . S
C2782 C2781 1.396 . S
C2782 C2783 1.399 . S
C2783 H2769 0.929 . S
C2783 C2782 1.399 . S
C2783 C2784 1.385 . S
C2784 H2770 0.931 . S
C2784 C2783 1.385 . S
C2784 C2785 1.389 . S
C2785 C2784 1.389 . S
C2785 C2786 1.387 . S
C2786 H2771 0.930 1_554 S
C2786 C2781 1.390 . S
C2786 C2785 1.387 . S
H2787 C2799 0.930 . S
H2788 C2801 0.930 . S
H2789 C2802 0.930 . S
H2790 C2806 0.959 . S
H2791 C2806 0.959 . S
H2792 C2806 0.961 . S
H2793 C2807 0.960 . S
H2794 C2807 0.961 . S
H2795 C2807 0.959 . S
H2796 C2810 0.929 . S
H2797 C2811 0.931 . S
H2798 C2813 0.930 . S
C2799 H2787 0.930 . S
C2799 C2800 1.399 . S
C2799 C2804 1.399 . S
C2800 C2799 1.399 . S
C2800 C2801 1.376 . S
C2801 H2788 0.930 . S
C2801 C2800 1.376 . S
C2801 C2802 1.388 . S
C2802 H2789 0.930 . S
C2802 C2801 1.388 . S
C2802 C2803 1.390 . S
C2803 C2802 1.390 . S
C2803 C2804 1.394 . S
C2803 C2809 1.465 . S
C2804 C2799 1.399 . S
C2804 C2803 1.394 . S
C2804 C2805 1.516 . S
C2805 C2804 1.516 . S
C2805 C2806 1.502 . S
C2805 C2807 1.561 . S
C2805 C2808 1.526 . S
C2806 H2790 0.959 . S
C2806 H2791 0.959 . S
C2806 H2792 0.961 . S
C2806 C2805 1.502 . S
C2807 H2793 0.960 . S
C2807 H2794 0.961 . S
C2807 H2795 0.959 . S
C2807 C2805 1.561 . S
C2808 C2805 1.526 . S
C2808 C2809 1.396 . S
C2808 C2813 1.390 . S
C2809 C2803 1.465 . S
C2809 C2808 1.396 . S
C2809 C2810 1.399 . S
C2810 H2796 0.929 . S
C2810 C2809 1.399 . S
C2810 C2811 1.385 . S
C2811 H2797 0.931 . S
C2811 C2810 1.385 . S
C2811 C2812 1.389 . S
C2812 C2811 1.389 . S
C2812 C2813 1.387 . S
C2813 H2798 0.930 . S
C2813 C2808 1.390 . S
C2813 C2812 1.387 . S
H2814 C2826 0.930 . S
H2815 C2828 0.930 . S
H2816 C2829 0.930 . S
H2817 C2833 0.959 . S
H2818 C2833 0.959 . S
H2819 C2833 0.961 . S
H2820 C2834 0.960 . S
H2821 C2834 0.961 . S
H2822 C2834 0.959 . S
H2823 C2837 0.929 . S
H2824 C2838 0.931 . S
H2825 C2840 0.930 . S
C2826 H2814 0.930 . S
C2826 C2827 1.399 . S
C2826 C2831 1.399 . S
C2827 C2826 1.399 . S
C2827 C2828 1.376 . S
C2828 H2815 0.930 . S
C2828 C2827 1.376 . S
C2828 C2829 1.388 . S
C2829 H2816 0.930 . S
C2829 C2828 1.388 . S
C2829 C2830 1.390 . S
C2830 C2829 1.390 . S
C2830 C2831 1.394 . S
C2830 C2836 1.465 . S
C2831 C2826 1.399 . S
C2831 C2830 1.394 . S
C2831 C2832 1.516 . S
C2832 C2831 1.516 . S
C2832 C2833 1.502 . S
C2832 C2834 1.561 . S
C2832 C2835 1.526 . S
C2833 H2817 0.959 . S
C2833 H2818 0.959 . S
C2833 H2819 0.961 . S
C2833 C2832 1.502 . S
C2834 H2820 0.960 . S
C2834 H2821 0.961 . S
C2834 H2822 0.959 . S
C2834 C2832 1.561 . S
C2835 C2832 1.526 . S
C2835 C2836 1.396 . S
C2835 C2840 1.390 . S
C2836 C2830 1.465 . S
C2836 C2835 1.396 . S
C2836 C2837 1.399 . S
C2837 H2823 0.929 . S
C2837 C2836 1.399 . S
C2837 C2838 1.385 . S
C2838 H2824 0.931 . S
C2838 C2837 1.385 . S
C2838 C2839 1.389 . S
C2839 C2838 1.389 . S
C2839 C2840 1.387 . S
C2840 H2825 0.930 . S
C2840 C2835 1.390 . S
C2840 C2839 1.387 . S
H2841 C2853 0.930 . S
H2842 C2855 0.930 . S
H2843 C2856 0.930 . S
H2844 C2860 0.959 . S
H2845 C2860 0.959 . S
H2846 C2860 0.961 . S
H2847 C2861 0.960 . S
H2848 C2861 0.961 . S
H2849 C2861 0.959 . S
H2850 C2864 0.929 . S
H2851 C2865 0.931 . S
H2852 C2867 0.930 . S
C2853 H2841 0.930 . S
C2853 C2854 1.399 . S
C2853 C2858 1.399 . S
C2854 C2853 1.399 . S
C2854 C2855 1.376 . S
C2855 H2842 0.930 . S
C2855 C2854 1.376 . S
C2855 C2856 1.388 . S
C2856 H2843 0.930 . S
C2856 C2855 1.388 . S
C2856 C2857 1.390 . S
C2857 C2856 1.390 . S
C2857 C2858 1.394 . S
C2857 C2863 1.465 . S
C2858 C2853 1.399 . S
C2858 C2857 1.394 . S
C2858 C2859 1.516 . S
C2859 C2858 1.516 . S
C2859 C2860 1.502 . S
C2859 C2861 1.561 . S
C2859 C2862 1.526 . S
C2860 H2844 0.959 . S
C2860 H2845 0.959 . S
C2860 H2846 0.961 . S
C2860 C2859 1.502 . S
C2861 H2847 0.960 . S
C2861 H2848 0.961 . S
C2861 H2849 0.959 . S
C2861 C2859 1.561 . S
C2862 C2859 1.526 . S
C2862 C2863 1.396 . S
C2862 C2867 1.390 . S
C2863 C2857 1.465 . S
C2863 C2862 1.396 . S
C2863 C2864 1.399 . S
C2864 H2850 0.929 . S
C2864 C2863 1.399 . S
C2864 C2865 1.385 . S
C2865 H2851 0.931 . S
C2865 C2864 1.385 . S
C2865 C2866 1.389 . S
C2866 C2865 1.389 . S
C2866 C2867 1.387 . S
C2867 H2852 0.930 . S
C2867 C2862 1.390 . S
C2867 C2866 1.387 . S
H2868 C2880 0.930 1_545 S
H2869 C2882 0.930 . S
H2870 C2883 0.930 . S
H2871 C2887 0.959 . S
H2872 C2887 0.947 . S
H2873 C2887 0.961 1_545 S
H2874 C2888 0.960 . S
H2875 C2888 0.961 . S
H2876 C2888 0.959 . S
H2877 C2891 0.929 . S
H2878 C2892 0.931 . S
H2879 C2894 0.930 . S
C2880 H2868 0.930 1_565 S
C2880 C2881 1.399 . S
C2880 C2885 1.399 . S
C2881 C2880 1.399 . S
C2881 C2882 1.376 . S
C2882 H2869 0.930 . S
C2882 C2881 1.376 . S
C2882 C2883 1.388 . S
C2883 H2870 0.930 . S
C2883 C2882 1.388 . S
C2883 C2884 1.390 . S
C2884 C2883 1.390 . S
C2884 C2885 1.394 . S
C2884 C2890 1.465 . S
C2885 C2880 1.399 . S
C2885 C2884 1.394 . S
C2885 C2886 1.516 . S
C2886 C2885 1.516 . S
C2886 C2887 1.502 . S
C2886 C2888 1.561 . S
C2886 C2889 1.526 . S
C2887 H2871 0.959 . S
C2887 H2872 0.947 . S
C2887 H2873 0.961 1_565 S
C2887 C2886 1.502 . S
C2888 H2874 0.960 . S
C2888 H2875 0.961 . S
C2888 H2876 0.959 . S
C2888 C2886 1.561 . S
C2889 C2886 1.526 . S
C2889 C2890 1.396 . S
C2889 C2894 1.390 . S
C2890 C2884 1.465 . S
C2890 C2889 1.396 . S
C2890 C2891 1.399 . S
C2891 H2877 0.929 . S
C2891 C2890 1.399 . S
C2891 C2892 1.385 . S
C2892 H2878 0.931 . S
C2892 C2891 1.385 . S
C2892 C2893 1.389 . S
C2893 C2892 1.389 . S
C2893 C2894 1.387 . S
C2894 H2879 0.930 . S
C2894 C2889 1.390 . S
C2894 C2893 1.387 . S
H2895 C2907 0.930 . S
H2896 C2909 0.930 . S
H2897 C2910 0.930 . S
H2898 C2914 0.959 . S
H2899 C2914 0.959 . S
H2900 C2914 0.961 . S
H2901 C2915 0.960 . S
H2902 C2915 0.961 . S
H2903 C2915 0.959 . S
H2904 C2918 0.929 . S
H2905 C2919 0.931 . S
H2906 C2921 0.930 . S
C2907 H2895 0.930 . S
C2907 C2908 1.399 . S
C2907 C2912 1.399 . S
C2908 C2907 1.399 . S
C2908 C2909 1.376 . S
C2909 H2896 0.930 . S
C2909 C2908 1.376 . S
C2909 C2910 1.388 . S
C2910 H2897 0.930 . S
C2910 C2909 1.388 . S
C2910 C2911 1.390 . S
C2911 C2910 1.390 . S
C2911 C2912 1.394 . S
C2911 C2917 1.465 . S
C2912 C2907 1.399 . S
C2912 C2911 1.394 . S
C2912 C2913 1.516 . S
C2913 C2912 1.516 . S
C2913 C2914 1.502 . S
C2913 C2915 1.561 . S
C2913 C2916 1.526 . S
C2914 H2898 0.959 . S
C2914 H2899 0.959 . S
C2914 H2900 0.961 . S
C2914 C2913 1.502 . S
C2915 H2901 0.960 . S
C2915 H2902 0.961 . S
C2915 H2903 0.959 . S
C2915 C2913 1.561 . S
C2916 C2913 1.526 . S
C2916 C2917 1.396 . S
C2916 C2921 1.390 . S
C2917 C2911 1.465 . S
C2917 C2916 1.396 . S
C2917 C2918 1.399 . S
C2918 H2904 0.929 . S
C2918 C2917 1.399 . S
C2918 C2919 1.385 . S
C2919 H2905 0.931 . S
C2919 C2918 1.385 . S
C2919 C2920 1.389 . S
C2920 C2919 1.389 . S
C2920 C2921 1.387 . S
C2921 H2906 0.930 . S
C2921 C2916 1.390 . S
C2921 C2920 1.387 . S
H2922 C2934 0.930 . S
H2923 C2936 0.930 . S
H2924 C2937 0.930 . S
H2925 C2941 0.959 . S
H2926 C2941 0.959 . S
H2927 C2941 0.961 . S
H2928 C2942 0.960 . S
H2929 C2942 0.961 . S
H2930 C2942 0.959 . S
H2931 C2945 0.929 . S
H2932 C2946 0.931 . S
H2933 C2948 0.930 . S
C2934 H2922 0.930 . S
C2934 C2935 1.399 . S
C2934 C2939 1.399 . S
C2935 C2934 1.399 . S
C2935 C2936 1.376 . S
C2936 H2923 0.930 . S
C2936 C2935 1.376 . S
C2936 C2937 1.388 . S
C2937 H2924 0.930 . S
C2937 C2936 1.388 . S
C2937 C2938 1.390 . S
C2938 C2937 1.390 . S
C2938 C2939 1.394 . S
C2938 C2944 1.465 . S
C2939 C2934 1.399 . S
C2939 C2938 1.394 . S
C2939 C2940 1.516 . S
C2940 C2939 1.516 . S
C2940 C2941 1.502 . S
C2940 C2942 1.561 . S
C2940 C2943 1.526 . S
C2941 H2925 0.959 . S
C2941 H2926 0.959 . S
C2941 H2927 0.961 . S
C2941 C2940 1.502 . S
C2942 H2928 0.960 . S
C2942 H2929 0.961 . S
C2942 H2930 0.959 . S
C2942 C2940 1.561 . S
C2943 C2940 1.526 . S
C2943 C2944 1.396 . S
C2943 C2948 1.390 . S
C2944 C2938 1.465 . S
C2944 C2943 1.396 . S
C2944 C2945 1.399 . S
C2945 H2931 0.929 . S
C2945 C2944 1.399 . S
C2945 C2946 1.385 . S
C2946 H2932 0.931 . S
C2946 C2945 1.385 . S
C2946 C2947 1.389 . S
C2947 C2946 1.389 . S
C2947 C2948 1.387 . S
C2948 H2933 0.930 . S
C2948 C2943 1.390 . S
C2948 C2947 1.387 . S
H2949 C2961 0.930 . S
H2950 C2963 0.930 . S
H2951 C2964 0.930 . S
H2952 C2968 0.959 . S
H2953 C2968 0.959 . S
H2954 C2968 0.961 . S
H2955 C2969 0.960 . S
H2956 C2969 0.961 . S
H2957 C2969 0.959 . S
H2958 C2972 0.929 . S
H2959 C2973 0.931 . S
H2960 C2975 0.930 . S
C2961 H2949 0.930 . S
C2961 C2962 1.399 . S
C2961 C2966 1.399 . S
C2962 C2961 1.399 . S
C2962 C2963 1.376 . S
C2963 H2950 0.930 . S
C2963 C2962 1.376 . S
C2963 C2964 1.388 . S
C2964 H2951 0.930 . S
C2964 C2963 1.388 . S
C2964 C2965 1.390 . S
C2965 C2964 1.390 . S
C2965 C2966 1.394 . S
C2965 C2971 1.465 . S
C2966 C2961 1.399 . S
C2966 C2965 1.394 . S
C2966 C2967 1.516 . S
C2967 C2966 1.516 . S
C2967 C2968 1.502 . S
C2967 C2969 1.561 . S
C2967 C2970 1.526 . S
C2968 H2952 0.959 . S
C2968 H2953 0.959 . S
C2968 H2954 0.961 . S
C2968 C2967 1.502 . S
C2969 H2955 0.960 . S
C2969 H2956 0.961 . S
C2969 H2957 0.959 . S
C2969 C2967 1.561 . S
C2970 C2967 1.526 . S
C2970 C2971 1.396 . S
C2970 C2975 1.390 . S
C2971 C2965 1.465 . S
C2971 C2970 1.396 . S
C2971 C2972 1.399 . S
C2972 H2958 0.929 . S
C2972 C2971 1.399 . S
C2972 C2973 1.385 . S
C2973 H2959 0.931 . S
C2973 C2972 1.385 . S
C2973 C2974 1.389 . S
C2974 C2973 1.389 . S
C2974 C2975 1.387 . S
C2975 H2960 0.930 . S
C2975 C2970 1.390 . S
C2975 C2974 1.387 . S
H2976 C2988 0.930 . S
H2977 C2990 0.930 . S
H2978 C2991 0.930 . S
H2979 C2995 0.959 . S
H2980 C2995 0.959 . S
H2981 C2995 0.961 . S
H2982 C2996 0.960 . S
H2983 C2996 0.961 . S
H2984 C2996 0.959 . S
H2985 C2999 0.929 . S
H2986 C3000 0.931 . S
H2987 C3002 0.930 . S
C2988 H2976 0.930 . S
C2988 C2989 1.399 . S
C2988 C2993 1.399 . S
C2989 C2988 1.399 . S
C2989 C2990 1.376 . S
C2990 H2977 0.930 . S
C2990 C2989 1.376 . S
C2990 C2991 1.388 . S
C2991 H2978 0.930 . S
C2991 C2990 1.388 . S
C2991 C2992 1.390 . S
C2992 C2991 1.390 . S
C2992 C2993 1.394 . S
C2992 C2998 1.465 . S
C2993 C2988 1.399 . S
C2993 C2992 1.394 . S
C2993 C2994 1.516 . S
C2994 C2993 1.516 . S
C2994 C2995 1.502 . S
C2994 C2996 1.561 . S
C2994 C2997 1.526 . S
C2995 H2979 0.959 . S
C2995 H2980 0.959 . S
C2995 H2981 0.961 . S
C2995 C2994 1.502 . S
C2996 H2982 0.960 . S
C2996 H2983 0.961 . S
C2996 H2984 0.959 . S
C2996 C2994 1.561 . S
C2997 C2994 1.526 . S
C2997 C2998 1.396 . S
C2997 C3002 1.390 . S
C2998 C2992 1.465 . S
C2998 C2997 1.396 . S
C2998 C2999 1.399 . S
C2999 H2985 0.929 . S
C2999 C2998 1.399 . S
C2999 C3000 1.385 . S
C3000 H2986 0.931 . S
C3000 C2999 1.385 . S
C3000 C3001 1.389 . S
C3001 C3000 1.389 . S
C3001 C3002 1.387 . S
C3002 H2987 0.930 . S
C3002 C2997 1.390 . S
C3002 C3001 1.387 . S
H3003 C3015 0.930 . S
H3004 C3017 0.930 . S
H3005 C3018 0.930 . S
H3006 C3022 0.959 . S
H3007 C3022 0.959 . S
H3008 C3022 0.961 . S
H3009 C3023 0.960 . S
H3010 C3023 0.961 . S
H3011 C3023 0.959 . S
H3012 C3026 0.929 . S
H3013 C3027 0.931 . S
H3014 C3029 0.930 . S
C3015 H3003 0.930 . S
C3015 C3016 1.399 . S
C3015 C3020 1.399 . S
C3016 C3015 1.399 . S
C3016 C3017 1.376 . S
C3017 H3004 0.930 . S
C3017 C3016 1.376 . S
C3017 C3018 1.388 . S
C3018 H3005 0.930 . S
C3018 C3017 1.388 . S
C3018 C3019 1.390 . S
C3019 C3018 1.390 . S
C3019 C3020 1.394 . S
C3019 C3025 1.465 . S
C3020 C3015 1.399 . S
C3020 C3019 1.394 . S
C3020 C3021 1.516 . S
C3021 C3020 1.516 . S
C3021 C3022 1.502 . S
C3021 C3023 1.561 . S
C3021 C3024 1.526 . S
C3022 H3006 0.959 . S
C3022 H3007 0.959 . S
C3022 H3008 0.961 . S
C3022 C3021 1.502 . S
C3023 H3009 0.960 . S
C3023 H3010 0.961 . S
C3023 H3011 0.959 . S
C3023 C3021 1.561 . S
C3024 C3021 1.526 . S
C3024 C3025 1.396 . S
C3024 C3029 1.390 . S
C3025 C3019 1.465 . S
C3025 C3024 1.396 . S
C3025 C3026 1.399 . S
C3026 H3012 0.929 . S
C3026 C3025 1.399 . S
C3026 C3027 1.385 . S
C3027 H3013 0.931 . S
C3027 C3026 1.385 . S
C3027 C3028 1.389 . S
C3028 C3027 1.389 . S
C3028 C3029 1.387 . S
C3029 H3014 0.930 . S
C3029 C3024 1.390 . S
C3029 C3028 1.387 . S
H3030 C3042 0.930 . S
H3031 C3044 0.930 . S
H3032 C3045 0.930 . S
H3033 C3049 0.959 . S
H3034 C3049 0.959 . S
H3035 C3049 0.961 . S
H3036 C3050 0.960 . S
H3037 C3050 0.961 . S
H3038 C3050 0.959 . S
H3039 C3053 0.929 . S
H3040 C3054 0.931 . S
H3041 C3056 0.930 . S
C3042 H3030 0.930 . S
C3042 C3043 1.399 . S
C3042 C3047 1.399 . S
C3043 C3042 1.399 . S
C3043 C3044 1.376 . S
C3044 H3031 0.930 . S
C3044 C3043 1.376 . S
C3044 C3045 1.388 1_556 S
C3045 H3032 0.930 . S
C3045 C3044 1.388 1_554 S
C3045 C3046 1.390 . S
C3046 C3045 1.390 . S
C3046 C3047 1.394 1_554 S
C3046 C3052 1.465 . S
C3047 C3042 1.399 . S
C3047 C3046 1.394 1_556 S
C3047 C3048 1.516 . S
C3048 C3047 1.516 . S
C3048 C3049 1.502 . S
C3048 C3050 1.561 . S
C3048 C3051 1.526 1_556 S
C3049 H3033 0.959 . S
C3049 H3034 0.959 . S
C3049 H3035 0.961 . S
C3049 C3048 1.502 . S
C3050 H3036 0.960 . S
C3050 H3037 0.961 . S
C3050 H3038 0.959 . S
C3050 C3048 1.561 . S
C3051 C3048 1.526 1_554 S
C3051 C3052 1.396 . S
C3051 C3056 1.390 . S
C3052 C3046 1.465 . S
C3052 C3051 1.396 . S
C3052 C3053 1.399 . S
C3053 H3039 0.929 . S
C3053 C3052 1.399 . S
C3053 C3054 1.385 . S
C3054 H3040 0.931 . S
C3054 C3053 1.385 . S
C3054 C3055 1.389 . S
C3055 C3054 1.389 . S
C3055 C3056 1.387 . S
C3056 H3041 0.930 . S
C3056 C3051 1.390 . S
C3056 C3055 1.387 . S
H3057 C3069 0.930 . S
H3058 C3071 0.930 . S
H3059 C3072 0.930 . S
H3060 C3076 0.959 . S
H3061 C3076 0.959 . S
H3062 C3076 0.961 . S
H3063 C3077 0.960 . S
H3064 C3077 0.961 . S
H3065 C3077 0.959 . S
H3066 C3080 0.929 . S
H3067 C3081 0.931 . S
H3068 C3083 0.930 . S
C3069 H3057 0.930 . S
C3069 C3070 1.399 . S
C3069 C3074 1.399 1_455 S
C3070 C3069 1.399 . S
C3070 C3071 1.376 . S
C3071 H3058 0.930 . S
C3071 C3070 1.376 . S
C3071 C3072 1.388 . S
C3072 H3059 0.930 . S
C3072 C3071 1.388 . S
C3072 C3073 1.390 1_455 S
C3073 C3072 1.390 1_655 S
C3073 C3074 1.394 . S
C3073 C3079 1.465 . S
C3074 C3069 1.399 1_655 S
C3074 C3073 1.394 . S
C3074 C3075 1.516 . S
C3075 C3074 1.516 . S
C3075 C3076 1.502 . S
C3075 C3077 1.561 . S
C3075 C3078 1.526 . S
C3076 H3060 0.959 . S
C3076 H3061 0.959 . S
C3076 H3062 0.961 . S
C3076 C3075 1.502 . S
C3077 H3063 0.960 . S
C3077 H3064 0.961 . S
C3077 H3065 0.959 . S
C3077 C3075 1.561 . S
C3078 C3075 1.526 . S
C3078 C3079 1.396 . S
C3078 C3083 1.390 . S
C3079 C3073 1.465 . S
C3079 C3078 1.396 . S
C3079 C3080 1.399 . S
C3080 H3066 0.929 . S
C3080 C3079 1.399 . S
C3080 C3081 1.385 . S
C3081 H3067 0.931 . S
C3081 C3080 1.385 . S
C3081 C3082 1.389 . S
C3082 C3081 1.389 . S
C3082 C3083 1.387 . S
C3083 H3068 0.930 . S
C3083 C3078 1.390 . S
C3083 C3082 1.387 . S
H3084 C3096 0.930 . S
H3085 C3098 0.930 . S
H3086 C3099 0.930 . S
H3087 C3103 0.959 . S
H3088 C3103 0.959 . S
H3089 C3103 0.961 . S
H3090 C3104 0.960 . S
H3091 C3104 0.961 . S
H3092 C3104 0.959 . S
H3093 C3107 0.929 . S
H3094 C3108 0.931 . S
H3095 C3110 0.930 . S
C3096 H3084 0.930 . S
C3096 C3097 1.399 . S
C3096 C3101 1.399 . S
C3097 C3096 1.399 . S
C3097 C3098 1.376 . S
C3098 H3085 0.930 . S
C3098 C3097 1.376 . S
C3098 C3099 1.388 . S
C3099 H3086 0.930 . S
C3099 C3098 1.388 . S
C3099 C3100 1.390 . S
C3100 C3099 1.390 . S
C3100 C3101 1.394 . S
C3100 C3106 1.465 . S
C3101 C3096 1.399 . S
C3101 C3100 1.394 . S
C3101 C3102 1.516 . S
C3102 C3101 1.516 . S
C3102 C3103 1.502 . S
C3102 C3104 1.561 . S
C3102 C3105 1.526 . S
C3103 H3087 0.959 . S
C3103 H3088 0.959 . S
C3103 H3089 0.961 . S
C3103 C3102 1.502 . S
C3104 H3090 0.960 . S
C3104 H3091 0.961 . S
C3104 H3092 0.959 . S
C3104 C3102 1.561 . S
C3105 C3102 1.526 . S
C3105 C3106 1.396 . S
C3105 C3110 1.390 . S
C3106 C3100 1.465 . S
C3106 C3105 1.396 . S
C3106 C3107 1.399 . S
C3107 H3093 0.929 . S
C3107 C3106 1.399 . S
C3107 C3108 1.385 . S
C3108 H3094 0.931 . S
C3108 C3107 1.385 . S
C3108 C3109 1.389 . S
C3109 C3108 1.389 . S
C3109 C3110 1.387 . S
C3110 H3095 0.930 . S
C3110 C3105 1.390 . S
C3110 C3109 1.387 . S
H3111 C3123 0.930 . S
H3112 C3125 0.930 . S
H3113 C3126 0.930 . S
H3114 C3130 0.959 . S
H3115 C3130 0.959 . S
H3116 C3130 0.961 1_455 S
H3117 C3131 0.960 . S
H3118 C3131 0.961 . S
H3119 C3131 0.959 . S
H3120 C3134 0.929 . S
H3121 C3135 0.931 . S
H3122 C3137 0.930 . S
C3123 H3111 0.930 . S
C3123 C3124 1.399 . S
C3123 C3128 1.399 . S
C3124 C3123 1.399 . S
C3124 C3125 1.376 . S
C3125 H3112 0.930 . S
C3125 C3124 1.376 . S
C3125 C3126 1.388 . S
C3126 H3113 0.930 . S
C3126 C3125 1.388 . S
C3126 C3127 1.390 . S
C3127 C3126 1.390 . S
C3127 C3128 1.394 . S
C3127 C3133 1.465 . S
C3128 C3123 1.399 . S
C3128 C3127 1.394 . S
C3128 C3129 1.516 . S
C3129 C3128 1.516 . S
C3129 C3130 1.502 1_455 S
C3129 C3131 1.561 . S
C3129 C3132 1.526 1_455 S
C3130 H3114 0.959 . S
C3130 H3115 0.959 . S
C3130 H3116 0.961 1_655 S
C3130 C3129 1.502 1_655 S
C3131 H3117 0.960 . S
C3131 H3118 0.961 . S
C3131 H3119 0.959 . S
C3131 C3129 1.561 . S
C3132 C3129 1.526 1_655 S
C3132 C3133 1.396 1_655 S
C3132 C3137 1.390 . S
C3133 C3127 1.465 . S
C3133 C3132 1.396 1_455 S
C3133 C3134 1.399 1_455 S
C3134 H3120 0.929 . S
C3134 C3133 1.399 1_655 S
C3134 C3135 1.385 . S
C3135 H3121 0.931 . S
C3135 C3134 1.385 . S
C3135 C3136 1.389 . S
C3136 C3135 1.389 . S
C3136 C3137 1.387 . S
C3137 H3122 0.930 . S
C3137 C3132 1.390 . S
C3137 C3136 1.387 . S
H3138 C3150 0.930 . S
H3139 C3152 0.930 . S
H3140 C3153 0.930 . S
H3141 C3157 0.959 . S
H3142 C3157 0.959 . S
H3143 C3157 0.961 . S
H3144 C3158 0.960 . S
H3145 C3158 0.961 . S
H3146 C3158 0.959 . S
H3147 C3161 0.929 1_655 S
H3148 C3162 0.931 . S
H3149 C3164 0.930 . S
C3150 H3138 0.930 . S
C3150 C3151 1.399 1_455 S
C3150 C3155 1.399 . S
C3151 C3150 1.399 1_655 S
C3151 C3152 1.376 . S
C3152 H3139 0.930 . S
C3152 C3151 1.376 . S
C3152 C3153 1.388 . S
C3153 H3140 0.930 . S
C3153 C3152 1.388 . S
C3153 C3154 1.390 1_655 S
C3154 C3153 1.390 1_455 S
C3154 C3155 1.394 . S
C3154 C3160 1.465 . S
C3155 C3150 1.399 . S
C3155 C3154 1.394 . S
C3155 C3156 1.516 . S
C3156 C3155 1.516 . S
C3156 C3157 1.502 . S
C3156 C3158 1.561 . S
C3156 C3159 1.526 . S
C3157 H3141 0.959 . S
C3157 H3142 0.959 . S
C3157 H3143 0.961 . S
C3157 C3156 1.502 . S
C3158 H3144 0.960 . S
C3158 H3145 0.961 . S
C3158 H3146 0.959 . S
C3158 C3156 1.561 . S
C3159 C3156 1.526 . S
C3159 C3160 1.396 . S
C3159 C3164 1.390 . S
C3160 C3154 1.465 . S
C3160 C3159 1.396 . S
C3160 C3161 1.399 . S
C3161 H3147 0.929 1_455 S
C3161 C3160 1.399 . S
C3161 C3162 1.385 . S
C3162 H3148 0.931 . S
C3162 C3161 1.385 . S
C3162 C3163 1.389 . S
C3163 C3162 1.389 . S
C3163 C3164 1.387 . S
C3164 H3149 0.930 . S
C3164 C3159 1.390 . S
C3164 C3163 1.387 . S
H3165 C3177 0.930 . S
H3166 C3179 0.930 . S
H3167 C3180 0.930 . S
H3168 C3184 0.959 . S
H3169 C3184 0.959 . S
H3170 C3184 0.961 . S
H3171 C3185 0.960 . S
H3172 C3185 0.961 . S
H3173 C3185 0.959 . S
H3174 C3188 0.929 . S
H3175 C3189 0.931 . S
H3176 C3191 0.930 . S
C3177 H3165 0.930 . S
C3177 C3178 1.399 . S
C3177 C3182 1.399 . S
C3178 C3177 1.399 . S
C3178 C3179 1.376 . S
C3179 H3166 0.930 . S
C3179 C3178 1.376 . S
C3179 C3180 1.388 . S
C3180 H3167 0.930 . S
C3180 C3179 1.388 . S
C3180 C3181 1.390 . S
C3181 C3180 1.390 . S
C3181 C3182 1.394 . S
C3181 C3187 1.465 . S
C3182 C3177 1.399 . S
C3182 C3181 1.394 . S
C3182 C3183 1.516 . S
C3183 C3182 1.516 . S
C3183 C3184 1.502 . S
C3183 C3185 1.561 . S
C3183 C3186 1.526 . S
C3184 H3168 0.959 . S
C3184 H3169 0.959 . S
C3184 H3170 0.961 . S
C3184 C3183 1.502 . S
C3185 H3171 0.960 . S
C3185 H3172 0.961 . S
C3185 H3173 0.959 . S
C3185 C3183 1.561 . S
C3186 C3183 1.526 . S
C3186 C3187 1.396 . S
C3186 C3191 1.390 . S
C3187 C3181 1.465 . S
C3187 C3186 1.396 . S
C3187 C3188 1.399 . S
C3188 H3174 0.929 . S
C3188 C3187 1.399 . S
C3188 C3189 1.385 . S
C3189 H3175 0.931 . S
C3189 C3188 1.385 . S
C3189 C3190 1.389 . S
C3190 C3189 1.389 . S
C3190 C3191 1.387 . S
C3191 H3176 0.930 . S
C3191 C3186 1.390 . S
C3191 C3190 1.387 . S
H3192 C3204 0.930 . S
H3193 C3206 0.930 . S
H3194 C3207 0.930 . S
H3195 C3211 0.959 . S
H3196 C3211 0.959 . S
H3197 C3211 0.961 . S
H3198 C3212 0.960 . S
H3199 C3212 0.961 . S
H3200 C3212 0.959 . S
H3201 C3215 0.929 . S
H3202 C3216 0.931 . S
H3203 C3218 0.930 . S
C3204 H3192 0.930 . S
C3204 C3205 1.399 . S
C3204 C3209 1.399 . S
C3205 C3204 1.399 . S
C3205 C3206 1.376 . S
C3206 H3193 0.930 . S
C3206 C3205 1.376 . S
C3206 C3207 1.388 . S
C3207 H3194 0.930 . S
C3207 C3206 1.388 . S
C3207 C3208 1.390 . S
C3208 C3207 1.390 . S
C3208 C3209 1.394 . S
C3208 C3214 1.465 . S
C3209 C3204 1.399 . S
C3209 C3208 1.394 . S
C3209 C3210 1.516 . S
C3210 C3209 1.516 . S
C3210 C3211 1.502 . S
C3210 C3212 1.561 . S
C3210 C3213 1.526 . S
C3211 H3195 0.959 . S
C3211 H3196 0.959 . S
C3211 H3197 0.961 . S
C3211 C3210 1.502 . S
C3212 H3198 0.960 . S
C3212 H3199 0.961 . S
C3212 H3200 0.959 . S
C3212 C3210 1.561 . S
C3213 C3210 1.526 . S
C3213 C3214 1.396 . S
C3213 C3218 1.390 . S
C3214 C3208 1.465 . S
C3214 C3213 1.396 . S
C3214 C3215 1.399 . S
C3215 H3201 0.929 . S
C3215 C3214 1.399 . S
C3215 C3216 1.385 . S
C3216 H3202 0.931 . S
C3216 C3215 1.385 . S
C3216 C3217 1.389 . S
C3217 C3216 1.389 . S
C3217 C3218 1.387 . S
C3218 H3203 0.930 . S
C3218 C3213 1.390 . S
C3218 C3217 1.387 . S
H3219 C3231 0.930 . S
H3220 C3233 0.930 . S
H3221 C3234 0.930 . S
H3222 C3238 0.959 . S
H3223 C3238 0.959 . S
H3224 C3238 0.961 . S
H3225 C3239 0.960 . S
H3226 C3239 0.961 . S
H3227 C3239 0.959 . S
H3228 C3242 0.929 . S
H3229 C3243 0.931 . S
H3230 C3245 0.930 . S
C3231 H3219 0.930 . S
C3231 C3232 1.399 . S
C3231 C3236 1.399 . S
C3232 C3231 1.399 . S
C3232 C3233 1.376 . S
C3233 H3220 0.930 . S
C3233 C3232 1.376 . S
C3233 C3234 1.388 . S
C3234 H3221 0.930 . S
C3234 C3233 1.388 . S
C3234 C3235 1.390 . S
C3235 C3234 1.390 . S
C3235 C3236 1.394 . S
C3235 C3241 1.465 . S
C3236 C3231 1.399 . S
C3236 C3235 1.394 . S
C3236 C3237 1.516 . S
C3237 C3236 1.516 . S
C3237 C3238 1.502 . S
C3237 C3239 1.561 . S
C3237 C3240 1.526 . S
C3238 H3222 0.959 . S
C3238 H3223 0.959 . S
C3238 H3224 0.961 . S
C3238 C3237 1.502 . S
C3239 H3225 0.960 . S
C3239 H3226 0.961 . S
C3239 H3227 0.959 . S
C3239 C3237 1.561 . S
C3240 C3237 1.526 . S
C3240 C3241 1.396 . S
C3240 C3245 1.390 . S
C3241 C3235 1.465 . S
C3241 C3240 1.396 . S
C3241 C3242 1.399 . S
C3242 H3228 0.929 . S
C3242 C3241 1.399 . S
C3242 C3243 1.385 . S
C3243 H3229 0.931 . S
C3243 C3242 1.385 . S
C3243 C3244 1.389 . S
C3244 C3243 1.389 . S
C3244 C3245 1.387 . S
C3245 H3230 0.930 . S
C3245 C3240 1.390 . S
C3245 C3244 1.387 . S
H3246 C3258 0.930 . S
H3247 C3260 0.930 . S
H3248 C3261 0.930 . S
H3249 C3265 0.959 . S
H3250 C3265 0.959 . S
H3251 C3265 0.961 . S
H3252 C3266 0.960 . S
H3253 C3266 0.961 . S
H3254 C3266 0.959 . S
H3255 C3269 0.929 . S
H3256 C3270 0.931 . S
H3257 C3272 0.930 . S
C3258 H3246 0.930 . S
C3258 C3259 1.399 . S
C3258 C3263 1.399 . S
C3259 C3258 1.399 . S
C3259 C3260 1.376 . S
C3260 H3247 0.930 . S
C3260 C3259 1.376 . S
C3260 C3261 1.388 . S
C3261 H3248 0.930 . S
C3261 C3260 1.388 . S
C3261 C3262 1.390 . S
C3262 C3261 1.390 . S
C3262 C3263 1.394 . S
C3262 C3268 1.465 . S
C3263 C3258 1.399 . S
C3263 C3262 1.394 . S
C3263 C3264 1.516 . S
C3264 C3263 1.516 . S
C3264 C3265 1.502 . S
C3264 C3266 1.561 . S
C3264 C3267 1.526 . S
C3265 H3249 0.959 . S
C3265 H3250 0.959 . S
C3265 H3251 0.961 . S
C3265 C3264 1.502 . S
C3266 H3252 0.960 . S
C3266 H3253 0.961 . S
C3266 H3254 0.959 . S
C3266 C3264 1.561 . S
C3267 C3264 1.526 . S
C3267 C3268 1.396 . S
C3267 C3272 1.390 . S
C3268 C3262 1.465 . S
C3268 C3267 1.396 . S
C3268 C3269 1.399 . S
C3269 H3255 0.929 . S
C3269 C3268 1.399 . S
C3269 C3270 1.385 . S
C3270 H3256 0.931 . S
C3270 C3269 1.385 . S
C3270 C3271 1.389 . S
C3271 C3270 1.389 . S
C3271 C3272 1.387 . S
C3272 H3257 0.930 . S
C3272 C3267 1.390 . S
C3272 C3271 1.387 . S
H3273 C3285 0.930 . S
H3274 C3287 0.930 . S
H3275 C3288 0.930 . S
H3276 C3292 0.959 . S
H3277 C3292 0.959 . S
H3278 C3292 0.961 . S
H3279 C3293 0.960 . S
H3280 C3293 0.961 . S
H3281 C3293 0.959 . S
H3282 C3296 0.929 . S
H3283 C3297 0.931 . S
H3284 C3299 0.930 . S
C3285 H3273 0.930 . S
C3285 C3286 1.399 . S
C3285 C3290 1.399 . S
C3286 C3285 1.399 . S
C3286 C3287 1.376 . S
C3287 H3274 0.930 . S
C3287 C3286 1.376 . S
C3287 C3288 1.388 . S
C3288 H3275 0.930 . S
C3288 C3287 1.388 . S
C3288 C3289 1.390 . S
C3289 C3288 1.390 . S
C3289 C3290 1.394 . S
C3289 C3295 1.465 . S
C3290 C3285 1.399 . S
C3290 C3289 1.394 . S
C3290 C3291 1.516 . S
C3291 C3290 1.516 . S
C3291 C3292 1.502 . S
C3291 C3293 1.561 . S
C3291 C3294 1.526 . S
C3292 H3276 0.959 . S
C3292 H3277 0.959 . S
C3292 H3278 0.961 . S
C3292 C3291 1.502 . S
C3293 H3279 0.960 . S
C3293 H3280 0.961 . S
C3293 H3281 0.959 . S
C3293 C3291 1.561 . S
C3294 C3291 1.526 . S
C3294 C3295 1.396 . S
C3294 C3299 1.390 . S
C3295 C3289 1.465 . S
C3295 C3294 1.396 . S
C3295 C3296 1.399 . S
C3296 H3282 0.929 . S
C3296 C3295 1.399 . S
C3296 C3297 1.385 . S
C3297 H3283 0.931 . S
C3297 C3296 1.385 . S
C3297 C3298 1.389 . S
C3298 C3297 1.389 . S
C3298 C3299 1.387 . S
C3299 H3284 0.930 . S
C3299 C3294 1.390 . S
C3299 C3298 1.387 . S
H3300 C3312 0.930 . S
H3301 C3314 0.930 . S
H3302 C3315 0.930 . S
H3303 C3319 0.959 . S
H3304 C3319 0.959 . S
H3305 C3319 0.961 . S
H3306 C3320 0.960 . S
H3307 C3320 0.961 . S
H3308 C3320 0.959 . S
H3309 C3323 0.929 . S
H3310 C3324 0.931 . S
H3311 C3326 0.930 . S
C3312 H3300 0.930 . S
C3312 C3313 1.399 . S
C3312 C3317 1.399 . S
C3313 C3312 1.399 . S
C3313 C3314 1.376 . S
C3314 H3301 0.930 . S
C3314 C3313 1.376 . S
C3314 C3315 1.388 . S
C3315 H3302 0.930 . S
C3315 C3314 1.388 . S
C3315 C3316 1.390 . S
C3316 C3315 1.390 . S
C3316 C3317 1.394 . S
C3316 C3322 1.465 . S
C3317 C3312 1.399 . S
C3317 C3316 1.394 . S
C3317 C3318 1.516 . S
C3318 C3317 1.516 . S
C3318 C3319 1.502 . S
C3318 C3320 1.561 . S
C3318 C3321 1.526 . S
C3319 H3303 0.959 . S
C3319 H3304 0.959 . S
C3319 H3305 0.961 . S
C3319 C3318 1.502 . S
C3320 H3306 0.960 . S
C3320 H3307 0.961 . S
C3320 H3308 0.959 . S
C3320 C3318 1.561 . S
C3321 C3318 1.526 . S
C3321 C3322 1.396 . S
C3321 C3326 1.390 . S
C3322 C3316 1.465 . S
C3322 C3321 1.396 . S
C3322 C3323 1.399 . S
C3323 H3309 0.929 . S
C3323 C3322 1.399 . S
C3323 C3324 1.385 . S
C3324 H3310 0.931 . S
C3324 C3323 1.385 . S
C3324 C3325 1.389 . S
C3325 C3324 1.389 . S
C3325 C3326 1.387 . S
C3326 H3311 0.930 . S
C3326 C3321 1.390 . S
C3326 C3325 1.387 . S
H3327 C3339 0.930 . S
H3328 C3341 0.930 . S
H3329 C3342 0.930 . S
H3330 C3346 0.959 . S
H3331 C3346 0.959 . S
H3332 C3346 0.961 . S
H3333 C3347 0.960 . S
H3334 C3347 0.961 . S
H3335 C3347 0.959 . S
H3336 C3350 0.929 . S
H3337 C3351 0.931 . S
H3338 C3353 0.930 . S
C3339 H3327 0.930 . S
C3339 C3340 1.399 . S
C3339 C3344 1.399 . S
C3340 C3339 1.399 . S
C3340 C3341 1.376 . S
C3341 H3328 0.930 . S
C3341 C3340 1.376 . S
C3341 C3342 1.388 . S
C3342 H3329 0.930 . S
C3342 C3341 1.388 . S
C3342 C3343 1.390 . S
C3343 C3342 1.390 . S
C3343 C3344 1.394 . S
C3343 C3349 1.465 . S
C3344 C3339 1.399 . S
C3344 C3343 1.394 . S
C3344 C3345 1.516 . S
C3345 C3344 1.516 . S
C3345 C3346 1.502 . S
C3345 C3347 1.561 . S
C3345 C3348 1.526 . S
C3346 H3330 0.959 . S
C3346 H3331 0.959 . S
C3346 H3332 0.961 . S
C3346 C3345 1.502 . S
C3347 H3333 0.960 . S
C3347 H3334 0.961 . S
C3347 H3335 0.959 . S
C3347 C3345 1.561 . S
C3348 C3345 1.526 . S
C3348 C3349 1.396 . S
C3348 C3353 1.390 . S
C3349 C3343 1.465 . S
C3349 C3348 1.396 . S
C3349 C3350 1.399 . S
C3350 H3336 0.929 . S
C3350 C3349 1.399 . S
C3350 C3351 1.385 . S
C3351 H3337 0.931 . S
C3351 C3350 1.385 . S
C3351 C3352 1.389 . S
C3352 C3351 1.389 . S
C3352 C3353 1.387 . S
C3353 H3338 0.930 . S
C3353 C3348 1.390 . S
C3353 C3352 1.387 . S
H3354 C3366 0.930 . S
H3355 C3368 0.930 . S
H3356 C3369 0.930 . S
H3357 C3373 0.959 . S
H3358 C3373 0.959 . S
H3359 C3373 0.961 . S
H3360 C3374 0.960 . S
H3361 C3374 0.961 . S
H3362 C3374 0.959 . S
H3363 C3377 0.929 . S
H3364 C3378 0.931 . S
H3365 C3380 0.930 . S
C3366 H3354 0.930 . S
C3366 C3367 1.399 . S
C3366 C3371 1.399 . S
C3367 C3366 1.399 . S
C3367 C3368 1.376 . S
C3368 H3355 0.930 . S
C3368 C3367 1.376 . S
C3368 C3369 1.388 . S
C3369 H3356 0.930 . S
C3369 C3368 1.388 . S
C3369 C3370 1.390 . S
C3370 C3369 1.390 . S
C3370 C3371 1.394 . S
C3370 C3376 1.465 . S
C3371 C3366 1.399 . S
C3371 C3370 1.394 . S
C3371 C3372 1.516 . S
C3372 C3371 1.516 . S
C3372 C3373 1.502 . S
C3372 C3374 1.561 . S
C3372 C3375 1.526 . S
C3373 H3357 0.959 . S
C3373 H3358 0.959 . S
C3373 H3359 0.961 . S
C3373 C3372 1.502 . S
C3374 H3360 0.960 . S
C3374 H3361 0.961 . S
C3374 H3362 0.959 . S
C3374 C3372 1.561 . S
C3375 C3372 1.526 . S
C3375 C3376 1.396 . S
C3375 C3380 1.390 . S
C3376 C3370 1.465 . S
C3376 C3375 1.396 . S
C3376 C3377 1.399 . S
C3377 H3363 0.929 . S
C3377 C3376 1.399 . S
C3377 C3378 1.385 . S
C3378 H3364 0.931 . S
C3378 C3377 1.385 . S
C3378 C3379 1.389 . S
C3379 C3378 1.389 . S
C3379 C3380 1.387 . S
C3380 H3365 0.930 . S
C3380 C3375 1.390 . S
C3380 C3379 1.387 . S
H3381 C3393 0.930 . S
H3382 C3395 0.930 . S
H3383 C3396 0.930 . S
H3384 C3400 0.959 . S
H3385 C3400 0.959 . S
H3386 C3400 0.961 . S
H3387 C3401 0.960 . S
H3388 C3401 0.961 . S
H3389 C3401 0.959 . S
H3390 C3404 0.929 . S
H3391 C3405 0.931 . S
H3392 C3407 0.930 . S
C3393 H3381 0.930 . S
C3393 C3394 1.399 . S
C3393 C3398 1.399 . S
C3394 C3393 1.399 . S
C3394 C3395 1.376 . S
C3395 H3382 0.930 . S
C3395 C3394 1.376 . S
C3395 C3396 1.388 . S
C3396 H3383 0.930 . S
C3396 C3395 1.388 . S
C3396 C3397 1.390 . S
C3397 C3396 1.390 . S
C3397 C3398 1.394 . S
C3397 C3403 1.465 . S
C3398 C3393 1.399 . S
C3398 C3397 1.394 . S
C3398 C3399 1.516 . S
C3399 C3398 1.516 . S
C3399 C3400 1.502 . S
C3399 C3401 1.561 . S
C3399 C3402 1.526 . S
C3400 H3384 0.959 . S
C3400 H3385 0.959 . S
C3400 H3386 0.961 . S
C3400 C3399 1.502 . S
C3401 H3387 0.960 . S
C3401 H3388 0.961 . S
C3401 H3389 0.959 . S
C3401 C3399 1.561 . S
C3402 C3399 1.526 . S
C3402 C3403 1.396 . S
C3402 C3407 1.390 . S
C3403 C3397 1.465 . S
C3403 C3402 1.396 . S
C3403 C3404 1.399 . S
C3404 H3390 0.929 . S
C3404 C3403 1.399 . S
C3404 C3405 1.385 . S
C3405 H3391 0.931 . S
C3405 C3404 1.385 . S
C3405 C3406 1.389 . S
C3406 C3405 1.389 . S
C3406 C3407 1.387 . S
C3407 H3392 0.930 . S
C3407 C3402 1.390 . S
C3407 C3406 1.387 . S
H3408 C3420 0.930 . S
H3409 C3422 0.930 . S
H3410 C3423 0.930 . S
H3411 C3427 0.959 . S
H3412 C3427 0.959 . S
H3413 C3427 0.961 . S
H3414 C3428 0.960 . S
H3415 C3428 0.961 . S
H3416 C3428 0.959 . S
H3417 C3431 0.929 . S
H3418 C3432 0.931 . S
H3419 C3434 0.930 . S
C3420 H3408 0.930 . S
C3420 C3421 1.399 . S
C3420 C3425 1.399 . S
C3421 C3420 1.399 . S
C3421 C3422 1.376 . S
C3422 H3409 0.930 . S
C3422 C3421 1.376 . S
C3422 C3423 1.388 . S
C3423 H3410 0.930 . S
C3423 C3422 1.388 . S
C3423 C3424 1.390 . S
C3424 C3423 1.390 . S
C3424 C3425 1.394 . S
C3424 C3430 1.465 . S
C3425 C3420 1.399 . S
C3425 C3424 1.394 . S
C3425 C3426 1.516 . S
C3426 C3425 1.516 . S
C3426 C3427 1.502 . S
C3426 C3428 1.561 . S
C3426 C3429 1.526 . S
C3427 H3411 0.959 . S
C3427 H3412 0.959 . S
C3427 H3413 0.961 . S
C3427 C3426 1.502 . S
C3428 H3414 0.960 . S
C3428 H3415 0.961 . S
C3428 H3416 0.959 . S
C3428 C3426 1.561 . S
C3429 C3426 1.526 . S
C3429 C3430 1.396 . S
C3429 C3434 1.390 . S
C3430 C3424 1.465 . S
C3430 C3429 1.396 . S
C3430 C3431 1.399 . S
C3431 H3417 0.929 . S
C3431 C3430 1.399 . S
C3431 C3432 1.385 . S
C3432 H3418 0.931 . S
C3432 C3431 1.385 . S
C3432 C3433 1.389 . S
C3433 C3432 1.389 . S
C3433 C3434 1.387 . S
C3434 H3419 0.930 . S
C3434 C3429 1.390 . S
C3434 C3433 1.387 . S
H3435 C3447 0.930 . S
H3436 C3449 0.930 . S
H3437 C3450 0.930 . S
H3438 C3454 0.959 . S
H3439 C3454 0.959 . S
H3440 C3454 0.961 . S
H3441 C3455 0.960 . S
H3442 C3455 0.961 . S
H3443 C3455 0.959 . S
H3444 C3458 0.929 . S
H3445 C3459 0.931 . S
H3446 C3461 0.930 . S
C3447 H3435 0.930 . S
C3447 C3448 1.399 . S
C3447 C3452 1.399 . S
C3448 C3447 1.399 . S
C3448 C3449 1.376 . S
C3449 H3436 0.930 . S
C3449 C3448 1.376 . S
C3449 C3450 1.388 . S
C3450 H3437 0.930 . S
C3450 C3449 1.388 . S
C3450 C3451 1.390 . S
C3451 C3450 1.390 . S
C3451 C3452 1.394 . S
C3451 C3457 1.465 . S
C3452 C3447 1.399 . S
C3452 C3451 1.394 . S
C3452 C3453 1.516 . S
C3453 C3452 1.516 . S
C3453 C3454 1.502 . S
C3453 C3455 1.561 . S
C3453 C3456 1.526 . S
C3454 H3438 0.959 . S
C3454 H3439 0.959 . S
C3454 H3440 0.961 . S
C3454 C3453 1.502 . S
C3455 H3441 0.960 . S
C3455 H3442 0.961 . S
C3455 H3443 0.959 . S
C3455 C3453 1.561 . S
C3456 C3453 1.526 . S
C3456 C3457 1.396 . S
C3456 C3461 1.390 . S
C3457 C3451 1.465 . S
C3457 C3456 1.396 . S
C3457 C3458 1.399 . S
C3458 H3444 0.929 . S
C3458 C3457 1.399 . S
C3458 C3459 1.385 . S
C3459 H3445 0.931 . S
C3459 C3458 1.385 . S
C3459 C3460 1.389 . S
C3460 C3459 1.389 . S
C3460 C3461 1.387 . S
C3461 H3446 0.930 . S
C3461 C3456 1.390 . S
C3461 C3460 1.387 . S
H3462 C3474 0.930 . S
H3463 C3476 0.930 . S
H3464 C3477 0.930 . S
H3465 C3481 0.959 . S
H3466 C3481 0.959 . S
H3467 C3481 0.961 . S
H3468 C3482 0.960 . S
H3469 C3482 0.961 . S
H3470 C3482 0.959 . S
H3471 C3485 0.929 . S
H3472 C3486 0.931 . S
H3473 C3488 0.930 . S
C3474 H3462 0.930 . S
C3474 C3475 1.399 . S
C3474 C3479 1.399 . S
C3475 C3474 1.399 . S
C3475 C3476 1.376 . S
C3476 H3463 0.930 . S
C3476 C3475 1.376 . S
C3476 C3477 1.388 . S
C3477 H3464 0.930 . S
C3477 C3476 1.388 . S
C3477 C3478 1.390 . S
C3478 C3477 1.390 . S
C3478 C3479 1.394 . S
C3478 C3484 1.465 . S
C3479 C3474 1.399 . S
C3479 C3478 1.394 . S
C3479 C3480 1.516 . S
C3480 C3479 1.516 . S
C3480 C3481 1.502 . S
C3480 C3482 1.561 . S
C3480 C3483 1.526 . S
C3481 H3465 0.959 . S
C3481 H3466 0.959 . S
C3481 H3467 0.961 . S
C3481 C3480 1.502 . S
C3482 H3468 0.960 . S
C3482 H3469 0.961 . S
C3482 H3470 0.959 . S
C3482 C3480 1.561 . S
C3483 C3480 1.526 . S
C3483 C3484 1.396 . S
C3483 C3488 1.390 . S
C3484 C3478 1.465 . S
C3484 C3483 1.396 . S
C3484 C3485 1.399 . S
C3485 H3471 0.929 . S
C3485 C3484 1.399 . S
C3485 C3486 1.385 . S
C3486 H3472 0.931 . S
C3486 C3485 1.385 . S
C3486 C3487 1.389 . S
C3487 C3486 1.389 . S
C3487 C3488 1.387 . S
C3488 H3473 0.930 . S
C3488 C3483 1.390 . S
C3488 C3487 1.387 . S
H3489 C3501 0.930 . S
H3490 C3503 0.930 . S
H3491 C3504 0.930 . S
H3492 C3508 0.959 . S
H3493 C3508 0.959 . S
H3494 C3508 0.961 . S
H3495 C3509 0.957 1_565 S
H3496 C3509 0.967 . S
H3497 C3509 0.980 . S
H3498 C3512 0.929 . S
H3499 C3513 0.931 . S
H3500 C3515 0.930 1_556 S
C3501 H3489 0.930 . S
C3501 C3502 1.399 1_556 S
C3501 C3506 1.399 1_556 S
C3502 C3501 1.399 1_554 S
C3502 C3503 1.376 . S
C3503 H3490 0.930 . S
C3503 C3502 1.376 . S
C3503 C3504 1.388 . S
C3504 H3491 0.930 . S
C3504 C3503 1.388 . S
C3504 C3505 1.390 . S
C3505 C3504 1.390 . S
C3505 C3506 1.394 . S
C3505 C3511 1.478 . S
C3506 C3501 1.399 1_554 S
C3506 C3505 1.394 . S
C3506 C3507 1.516 1_554 S
C3507 C3506 1.516 1_556 S
C3507 C3508 1.502 . S
C3507 C3509 1.539 1_565 S
C3507 C3510 1.526 1_556 S
C3508 H3492 0.959 . S
C3508 H3493 0.959 . S
C3508 H3494 0.961 . S
C3508 C3507 1.502 . S
C3509 H3495 0.957 1_545 S
C3509 H3496 0.967 . S
C3509 H3497 0.980 . S
C3509 C3507 1.539 1_545 S
C3510 C3507 1.526 1_554 S
C3510 C3511 1.396 . S
C3510 C3515 1.390 1_565 S
C3511 C3505 1.478 . S
C3511 C3510 1.396 . S
C3511 C3512 1.389 1_565 S
C3512 H3498 0.929 . S
C3512 C3511 1.389 1_545 S
C3512 C3513 1.385 . S
C3513 H3499 0.931 . S
C3513 C3512 1.385 . S
C3513 C3514 1.389 . S
C3514 C3513 1.389 . S
C3514 C3515 1.387 . S
C3515 H3500 0.930 1_554 S
C3515 C3510 1.390 1_545 S
C3515 C3514 1.387 . S
H3516 C3528 0.930 . S
H3517 C3530 0.930 . S
H3518 C3531 0.930 . S
H3519 C3535 0.959 . S
H3520 C3535 0.959 . S
H3521 C3535 0.961 . S
H3522 C3536 0.960 . S
H3523 C3536 0.961 . S
H3524 C3536 0.959 . S
H3525 C3539 0.929 . S
H3526 C3540 0.931 . S
H3527 C3542 0.930 . S
C3528 H3516 0.930 . S
C3528 C3529 1.399 . S
C3528 C3533 1.399 . S
C3529 C3528 1.399 . S
C3529 C3530 1.376 . S
C3530 H3517 0.930 . S
C3530 C3529 1.376 . S
C3530 C3531 1.388 . S
C3531 H3518 0.930 . S
C3531 C3530 1.388 . S
C3531 C3532 1.390 . S
C3532 C3531 1.390 . S
C3532 C3533 1.394 . S
C3532 C3538 1.465 . S
C3533 C3528 1.399 . S
C3533 C3532 1.394 . S
C3533 C3534 1.516 . S
C3534 C3533 1.516 . S
C3534 C3535 1.502 . S
C3534 C3536 1.561 . S
C3534 C3537 1.526 . S
C3535 H3519 0.959 . S
C3535 H3520 0.959 . S
C3535 H3521 0.961 . S
C3535 C3534 1.502 . S
C3536 H3522 0.960 . S
C3536 H3523 0.961 . S
C3536 H3524 0.959 . S
C3536 C3534 1.561 . S
C3537 C3534 1.526 . S
C3537 C3538 1.396 . S
C3537 C3542 1.390 . S
C3538 C3532 1.465 . S
C3538 C3537 1.396 . S
C3538 C3539 1.399 . S
C3539 H3525 0.929 . S
C3539 C3538 1.399 . S
C3539 C3540 1.385 . S
C3540 H3526 0.931 . S
C3540 C3539 1.385 . S
C3540 C3541 1.389 . S
C3541 C3540 1.389 . S
C3541 C3542 1.387 . S
C3542 H3527 0.930 . S
C3542 C3537 1.390 . S
C3542 C3541 1.387 . S
H3543 C3555 0.930 . S
H3544 C3557 0.930 . S
H3545 C3558 0.930 1_556 S
H3546 C3562 0.959 . S
H3547 C3562 0.959 . S
H3548 C3562 0.961 . S
H3549 C3563 0.960 . S
H3550 C3563 0.961 . S
H3551 C3563 0.959 . S
H3552 C3566 0.929 . S
H3553 C3567 0.931 . S
H3554 C3569 0.930 . S
C3555 H3543 0.930 . S
C3555 C3556 1.399 . S
C3555 C3560 1.399 . S
C3556 C3555 1.399 . S
C3556 C3557 1.376 1_554 S
C3557 H3544 0.930 . S
C3557 C3556 1.376 1_556 S
C3557 C3558 1.388 1_556 S
C3558 H3545 0.930 1_554 S
C3558 C3557 1.388 1_554 S
C3558 C3559 1.390 . S
C3559 C3558 1.390 . S
C3559 C3560 1.394 . S
C3559 C3565 1.465 . S
C3560 C3555 1.399 . S
C3560 C3559 1.394 . S
C3560 C3561 1.516 . S
C3561 C3560 1.516 . S
C3561 C3562 1.502 . S
C3561 C3563 1.561 . S
C3561 C3564 1.526 . S
C3562 H3546 0.959 . S
C3562 H3547 0.959 . S
C3562 H3548 0.961 . S
C3562 C3561 1.502 . S
C3563 H3549 0.960 . S
C3563 H3550 0.961 . S
C3563 H3551 0.959 . S
C3563 C3561 1.561 . S
C3564 C3561 1.526 . S
C3564 C3565 1.396 . S
C3564 C3569 1.390 . S
C3565 C3559 1.465 . S
C3565 C3564 1.396 . S
C3565 C3566 1.399 . S
C3566 H3552 0.929 . S
C3566 C3565 1.399 . S
C3566 C3567 1.385 . S
C3567 H3553 0.931 . S
C3567 C3566 1.385 . S
C3567 C3568 1.389 . S
C3568 C3567 1.389 . S
C3568 C3569 1.387 . S
C3569 H3554 0.930 . S
C3569 C3564 1.390 . S
C3569 C3568 1.387 . S
H3570 C3582 0.930 . S
H3571 C3584 0.930 . S
H3572 C3585 0.930 . S
H3573 C3589 0.959 . S
H3574 C3589 0.959 . S
H3575 C3589 0.961 . S
H3576 C3590 0.960 . S
H3577 C3590 0.961 . S
H3578 C3590 0.959 . S
H3579 C3593 0.929 . S
H3580 C3594 0.931 . S
H3581 C3596 0.930 . S
C3582 H3570 0.930 . S
C3582 C3583 1.399 . S
C3582 C3587 1.399 . S
C3583 C3582 1.399 . S
C3583 C3584 1.376 . S
C3584 H3571 0.930 . S
C3584 C3583 1.376 . S
C3584 C3585 1.388 . S
C3585 H3572 0.930 . S
C3585 C3584 1.388 . S
C3585 C3586 1.390 . S
C3586 C3585 1.390 . S
C3586 C3587 1.394 . S
C3586 C3592 1.465 . S
C3587 C3582 1.399 . S
C3587 C3586 1.394 . S
C3587 C3588 1.516 . S
C3588 C3587 1.516 . S
C3588 C3589 1.502 . S
C3588 C3590 1.561 . S
C3588 C3591 1.526 . S
C3589 H3573 0.959 . S
C3589 H3574 0.959 . S
C3589 H3575 0.961 . S
C3589 C3588 1.502 . S
C3590 H3576 0.960 . S
C3590 H3577 0.961 . S
C3590 H3578 0.959 . S
C3590 C3588 1.561 . S
C3591 C3588 1.526 . S
C3591 C3592 1.396 . S
C3591 C3596 1.390 . S
C3592 C3586 1.465 . S
C3592 C3591 1.396 . S
C3592 C3593 1.399 . S
C3593 H3579 0.929 . S
C3593 C3592 1.399 . S
C3593 C3594 1.385 . S
C3594 H3580 0.931 . S
C3594 C3593 1.385 . S
C3594 C3595 1.389 . S
C3595 C3594 1.389 . S
C3595 C3596 1.387 . S
C3596 H3581 0.930 . S
C3596 C3591 1.390 . S
C3596 C3595 1.387 . S
H3597 C3609 0.930 . S
H3598 C3611 0.930 . S
H3599 C3612 0.930 . S
H3600 C3616 0.959 . S
H3601 C3616 0.959 . S
H3602 C3616 0.961 . S
H3603 C3617 0.960 . S
H3604 C3617 0.961 . S
H3605 C3617 0.959 . S
H3606 C3620 0.929 . S
H3607 C3621 0.931 . S
H3608 C3623 0.930 . S
C3609 H3597 0.930 . S
C3609 C3610 1.399 . S
C3609 C3614 1.399 . S
C3610 C3609 1.399 . S
C3610 C3611 1.376 . S
C3611 H3598 0.930 . S
C3611 C3610 1.376 . S
C3611 C3612 1.388 . S
C3612 H3599 0.930 . S
C3612 C3611 1.388 . S
C3612 C3613 1.390 . S
C3613 C3612 1.390 . S
C3613 C3614 1.394 . S
C3613 C3619 1.465 . S
C3614 C3609 1.399 . S
C3614 C3613 1.394 . S
C3614 C3615 1.516 . S
C3615 C3614 1.516 . S
C3615 C3616 1.502 . S
C3615 C3617 1.561 . S
C3615 C3618 1.526 . S
C3616 H3600 0.959 . S
C3616 H3601 0.959 . S
C3616 H3602 0.961 . S
C3616 C3615 1.502 . S
C3617 H3603 0.960 . S
C3617 H3604 0.961 . S
C3617 H3605 0.959 . S
C3617 C3615 1.561 . S
C3618 C3615 1.526 . S
C3618 C3619 1.396 . S
C3618 C3623 1.390 . S
C3619 C3613 1.465 . S
C3619 C3618 1.396 . S
C3619 C3620 1.399 . S
C3620 H3606 0.929 . S
C3620 C3619 1.399 . S
C3620 C3621 1.385 . S
C3621 H3607 0.931 . S
C3621 C3620 1.385 . S
C3621 C3622 1.389 . S
C3622 C3621 1.389 . S
C3622 C3623 1.387 . S
C3623 H3608 0.930 . S
C3623 C3618 1.390 . S
C3623 C3622 1.387 . S
H3624 C3636 0.930 . S
H3625 C3638 0.930 . S
H3626 C3639 0.930 . S
H3627 C3643 0.959 . S
H3628 C3643 0.959 . S
H3629 C3643 0.961 . S
H3630 C3644 0.960 . S
H3631 C3644 0.961 . S
H3632 C3644 0.959 . S
H3633 C3647 0.929 . S
H3634 C3648 0.931 . S
H3635 C3650 0.930 . S
C3636 H3624 0.930 . S
C3636 C3637 1.399 . S
C3636 C3641 1.399 . S
C3637 C3636 1.399 . S
C3637 C3638 1.376 . S
C3638 H3625 0.930 . S
C3638 C3637 1.376 . S
C3638 C3639 1.388 . S
C3639 H3626 0.930 . S
C3639 C3638 1.388 . S
C3639 C3640 1.390 . S
C3640 C3639 1.390 . S
C3640 C3641 1.394 . S
C3640 C3646 1.465 . S
C3641 C3636 1.399 . S
C3641 C3640 1.394 . S
C3641 C3642 1.516 . S
C3642 C3641 1.516 . S
C3642 C3643 1.502 . S
C3642 C3644 1.561 . S
C3642 C3645 1.526 . S
C3643 H3627 0.959 . S
C3643 H3628 0.959 . S
C3643 H3629 0.961 . S
C3643 C3642 1.502 . S
C3644 H3630 0.960 . S
C3644 H3631 0.961 . S
C3644 H3632 0.959 . S
C3644 C3642 1.561 . S
C3645 C3642 1.526 . S
C3645 C3646 1.396 . S
C3645 C3650 1.390 . S
C3646 C3640 1.465 . S
C3646 C3645 1.396 . S
C3646 C3647 1.399 . S
C3647 H3633 0.929 . S
C3647 C3646 1.399 . S
C3647 C3648 1.385 . S
C3648 H3634 0.931 . S
C3648 C3647 1.385 . S
C3648 C3649 1.389 . S
C3649 C3648 1.389 . S
C3649 C3650 1.387 . S
C3650 H3635 0.930 . S
C3650 C3645 1.390 . S
C3650 C3649 1.387 . S
H3651 C3663 0.930 . S
H3652 C3665 0.930 . S
H3653 C3666 0.930 . S
H3654 C3670 0.959 . S
H3655 C3670 0.959 . S
H3656 C3670 0.961 . S
H3657 C3671 0.960 . S
H3658 C3671 0.961 . S
H3659 C3671 0.959 . S
H3660 C3674 0.929 . S
H3661 C3675 0.931 . S
H3662 C3677 0.930 . S
C3663 H3651 0.930 . S
C3663 C3664 1.399 . S
C3663 C3668 1.399 . S
C3664 C3663 1.399 . S
C3664 C3665 1.376 . S
C3665 H3652 0.930 . S
C3665 C3664 1.376 . S
C3665 C3666 1.388 . S
C3666 H3653 0.930 . S
C3666 C3665 1.388 . S
C3666 C3667 1.390 . S
C3667 C3666 1.390 . S
C3667 C3668 1.394 . S
C3667 C3673 1.465 . S
C3668 C3663 1.399 . S
C3668 C3667 1.394 . S
C3668 C3669 1.516 . S
C3669 C3668 1.516 . S
C3669 C3670 1.502 . S
C3669 C3671 1.561 . S
C3669 C3672 1.526 . S
C3670 H3654 0.959 . S
C3670 H3655 0.959 . S
C3670 H3656 0.961 . S
C3670 C3669 1.502 . S
C3671 H3657 0.960 . S
C3671 H3658 0.961 . S
C3671 H3659 0.959 . S
C3671 C3669 1.561 . S
C3672 C3669 1.526 . S
C3672 C3673 1.396 . S
C3672 C3677 1.390 . S
C3673 C3667 1.465 . S
C3673 C3672 1.396 . S
C3673 C3674 1.399 . S
C3674 H3660 0.929 . S
C3674 C3673 1.399 . S
C3674 C3675 1.385 . S
C3675 H3661 0.931 . S
C3675 C3674 1.385 . S
C3675 C3676 1.389 . S
C3676 C3675 1.389 . S
C3676 C3677 1.387 . S
C3677 H3662 0.930 . S
C3677 C3672 1.390 . S
C3677 C3676 1.387 . S
H3678 C3690 0.930 . S
H3679 C3692 0.930 . S
H3680 C3693 0.930 . S
H3681 C3697 0.959 . S
H3682 C3697 0.959 . S
H3683 C3697 0.961 . S
H3684 C3698 0.960 . S
H3685 C3698 0.961 . S
H3686 C3698 0.959 . S
H3687 C3701 0.929 . S
H3688 C3702 0.931 . S
H3689 C3704 0.930 . S
C3690 H3678 0.930 . S
C3690 C3691 1.399 . S
C3690 C3695 1.399 . S
C3691 C3690 1.399 . S
C3691 C3692 1.376 . S
C3692 H3679 0.930 . S
C3692 C3691 1.376 . S
C3692 C3693 1.388 . S
C3693 H3680 0.930 . S
C3693 C3692 1.388 . S
C3693 C3694 1.390 . S
C3694 C3693 1.390 . S
C3694 C3695 1.394 . S
C3694 C3700 1.465 . S
C3695 C3690 1.399 . S
C3695 C3694 1.394 . S
C3695 C3696 1.516 . S
C3696 C3695 1.516 . S
C3696 C3697 1.502 . S
C3696 C3698 1.561 . S
C3696 C3699 1.526 . S
C3697 H3681 0.959 . S
C3697 H3682 0.959 . S
C3697 H3683 0.961 . S
C3697 C3696 1.502 . S
C3698 H3684 0.960 . S
C3698 H3685 0.961 . S
C3698 H3686 0.959 . S
C3698 C3696 1.561 . S
C3699 C3696 1.526 . S
C3699 C3700 1.396 . S
C3699 C3704 1.390 . S
C3700 C3694 1.465 . S
C3700 C3699 1.396 . S
C3700 C3701 1.399 . S
C3701 H3687 0.929 . S
C3701 C3700 1.399 . S
C3701 C3702 1.385 . S
C3702 H3688 0.931 . S
C3702 C3701 1.385 . S
C3702 C3703 1.389 . S
C3703 C3702 1.389 . S
C3703 C3704 1.387 . S
C3704 H3689 0.930 . S
C3704 C3699 1.390 . S
C3704 C3703 1.387 . S
H3705 C3717 0.930 . S
H3706 C3719 0.930 . S
H3707 C3720 0.930 . S
H3708 C3724 0.959 . S
H3709 C3724 0.959 . S
H3710 C3724 0.961 . S
H3711 C3725 0.960 . S
H3712 C3725 0.961 . S
H3713 C3725 0.959 . S
H3714 C3728 0.929 . S
H3715 C3729 0.931 . S
H3716 C3731 0.930 . S
C3717 H3705 0.930 . S
C3717 C3718 1.399 . S
C3717 C3722 1.399 . S
C3718 C3717 1.399 . S
C3718 C3719 1.376 . S
C3719 H3706 0.930 . S
C3719 C3718 1.376 . S
C3719 C3720 1.388 . S
C3720 H3707 0.930 . S
C3720 C3719 1.388 . S
C3720 C3721 1.390 . S
C3721 C3720 1.390 . S
C3721 C3722 1.394 . S
C3721 C3727 1.465 . S
C3722 C3717 1.399 . S
C3722 C3721 1.394 . S
C3722 C3723 1.516 . S
C3723 C3722 1.516 . S
C3723 C3724 1.502 . S
C3723 C3725 1.561 . S
C3723 C3726 1.526 . S
C3724 H3708 0.959 . S
C3724 H3709 0.959 . S
C3724 H3710 0.961 . S
C3724 C3723 1.502 . S
C3725 H3711 0.960 . S
C3725 H3712 0.961 . S
C3725 H3713 0.959 . S
C3725 C3723 1.561 . S
C3726 C3723 1.526 . S
C3726 C3727 1.396 . S
C3726 C3731 1.390 . S
C3727 C3721 1.465 . S
C3727 C3726 1.396 . S
C3727 C3728 1.399 . S
C3728 H3714 0.929 . S
C3728 C3727 1.399 . S
C3728 C3729 1.385 . S
C3729 H3715 0.931 . S
C3729 C3728 1.385 . S
C3729 C3730 1.389 . S
C3730 C3729 1.389 . S
C3730 C3731 1.387 . S
C3731 H3716 0.930 . S
C3731 C3726 1.390 . S
C3731 C3730 1.387 . S
H3732 C3744 0.930 . S
H3733 C3746 0.930 . S
H3734 C3747 0.930 . S
H3735 C3751 0.959 . S
H3736 C3751 0.959 1_554 S
H3737 C3751 0.961 . S
H3738 C3752 0.960 . S
H3739 C3752 0.961 1_554 S
H3740 C3752 0.959 . S
H3741 C3755 0.929 . S
H3742 C3756 0.931 . S
H3743 C3758 0.930 1_554 S
C3744 H3732 0.930 . S
C3744 C3745 1.399 . S
C3744 C3749 1.399 . S
C3745 C3744 1.399 . S
C3745 C3746 1.376 . S
C3746 H3733 0.930 . S
C3746 C3745 1.376 . S
C3746 C3747 1.388 . S
C3747 H3734 0.930 . S
C3747 C3746 1.388 . S
C3747 C3748 1.390 . S
C3748 C3747 1.390 . S
C3748 C3749 1.394 . S
C3748 C3754 1.465 . S
C3749 C3744 1.399 . S
C3749 C3748 1.394 . S
C3749 C3750 1.516 . S
C3750 C3749 1.516 . S
C3750 C3751 1.502 . S
C3750 C3752 1.561 . S
C3750 C3753 1.526 . S
C3751 H3735 0.959 . S
C3751 H3736 0.959 1_556 S
C3751 H3737 0.961 . S
C3751 C3750 1.502 . S
C3752 H3738 0.960 . S
C3752 H3739 0.961 1_556 S
C3752 H3740 0.959 . S
C3752 C3750 1.561 . S
C3753 C3750 1.526 . S
C3753 C3754 1.396 . S
C3753 C3758 1.390 . S
C3754 C3748 1.465 . S
C3754 C3753 1.396 . S
C3754 C3755 1.399 . S
C3755 H3741 0.929 . S
C3755 C3754 1.399 . S
C3755 C3756 1.385 . S
C3756 H3742 0.931 . S
C3756 C3755 1.385 . S
C3756 C3757 1.389 . S
C3757 C3756 1.389 . S
C3757 C3758 1.387 . S
C3758 H3743 0.930 1_556 S
C3758 C3753 1.390 . S
C3758 C3757 1.387 . S
H3759 C3771 0.930 . S
H3760 C3773 0.930 . S
H3761 C3774 0.930 . S
H3762 C3778 0.959 . S
H3763 C3778 0.959 . S
H3764 C3778 0.961 . S
H3765 C3779 0.960 . S
H3766 C3779 0.961 . S
H3767 C3779 0.959 . S
H3768 C3782 0.929 . S
H3769 C3783 0.931 . S
H3770 C3785 0.930 . S
C3771 H3759 0.930 . S
C3771 C3772 1.399 . S
C3771 C3776 1.399 . S
C3772 C3771 1.399 . S
C3772 C3773 1.376 . S
C3773 H3760 0.930 . S
C3773 C3772 1.376 . S
C3773 C3774 1.388 . S
C3774 H3761 0.930 . S
C3774 C3773 1.388 . S
C3774 C3775 1.390 . S
C3775 C3774 1.390 . S
C3775 C3776 1.394 . S
C3775 C3781 1.465 . S
C3776 C3771 1.399 . S
C3776 C3775 1.394 . S
C3776 C3777 1.516 . S
C3777 C3776 1.516 . S
C3777 C3778 1.502 . S
C3777 C3779 1.561 . S
C3777 C3780 1.526 . S
C3778 H3762 0.959 . S
C3778 H3763 0.959 . S
C3778 H3764 0.961 . S
C3778 C3777 1.502 . S
C3779 H3765 0.960 . S
C3779 H3766 0.961 . S
C3779 H3767 0.959 . S
C3779 C3777 1.561 . S
C3780 C3777 1.526 . S
C3780 C3781 1.396 . S
C3780 C3785 1.390 . S
C3781 C3775 1.465 . S
C3781 C3780 1.396 . S
C3781 C3782 1.399 . S
C3782 H3768 0.929 . S
C3782 C3781 1.399 . S
C3782 C3783 1.385 . S
C3783 H3769 0.931 . S
C3783 C3782 1.385 . S
C3783 C3784 1.389 . S
C3784 C3783 1.389 . S
C3784 C3785 1.387 . S
C3785 H3770 0.930 . S
C3785 C3780 1.390 . S
C3785 C3784 1.387 . S
H3786 C3798 0.930 . S
H3787 C3800 0.930 . S
H3788 C3801 0.930 . S
H3789 C3805 0.959 . S
H3790 C3805 0.959 . S
H3791 C3805 0.961 . S
H3792 C3806 0.960 . S
H3793 C3806 0.961 . S
H3794 C3806 0.959 . S
H3795 C3809 0.929 . S
H3796 C3810 0.931 . S
H3797 C3812 0.930 . S
C3798 H3786 0.930 . S
C3798 C3799 1.399 . S
C3798 C3803 1.399 . S
C3799 C3798 1.399 . S
C3799 C3800 1.376 . S
C3800 H3787 0.930 . S
C3800 C3799 1.376 . S
C3800 C3801 1.388 . S
C3801 H3788 0.930 . S
C3801 C3800 1.388 . S
C3801 C3802 1.390 . S
C3802 C3801 1.390 . S
C3802 C3803 1.394 . S
C3802 C3808 1.465 . S
C3803 C3798 1.399 . S
C3803 C3802 1.394 . S
C3803 C3804 1.516 . S
C3804 C3803 1.516 . S
C3804 C3805 1.502 . S
C3804 C3806 1.561 . S
C3804 C3807 1.526 . S
C3805 H3789 0.959 . S
C3805 H3790 0.959 . S
C3805 H3791 0.961 . S
C3805 C3804 1.502 . S
C3806 H3792 0.960 . S
C3806 H3793 0.961 . S
C3806 H3794 0.959 . S
C3806 C3804 1.561 . S
C3807 C3804 1.526 . S
C3807 C3808 1.396 . S
C3807 C3812 1.390 . S
C3808 C3802 1.465 . S
C3808 C3807 1.396 . S
C3808 C3809 1.399 . S
C3809 H3795 0.929 . S
C3809 C3808 1.399 . S
C3809 C3810 1.385 . S
C3810 H3796 0.931 . S
C3810 C3809 1.385 . S
C3810 C3811 1.389 . S
C3811 C3810 1.389 . S
C3811 C3812 1.387 . S
C3812 H3797 0.930 . S
C3812 C3807 1.390 . S
C3812 C3811 1.387 . S
H3813 C3825 0.930 . S
H3814 C3827 0.930 . S
H3815 C3828 0.930 . S
H3816 C3832 0.959 . S
H3817 C3832 0.959 . S
H3818 C3832 0.961 . S
H3819 C3833 0.960 . S
H3820 C3833 0.961 . S
H3821 C3833 0.959 . S
H3822 C3836 0.929 . S
H3823 C3837 0.931 . S
H3824 C3839 0.930 . S
C3825 H3813 0.930 . S
C3825 C3826 1.399 . S
C3825 C3830 1.399 . S
C3826 C3825 1.399 . S
C3826 C3827 1.376 . S
C3827 H3814 0.930 . S
C3827 C3826 1.376 . S
C3827 C3828 1.388 . S
C3828 H3815 0.930 . S
C3828 C3827 1.388 . S
C3828 C3829 1.390 . S
C3829 C3828 1.390 . S
C3829 C3830 1.394 . S
C3829 C3835 1.465 . S
C3830 C3825 1.399 . S
C3830 C3829 1.394 . S
C3830 C3831 1.516 . S
C3831 C3830 1.516 . S
C3831 C3832 1.502 . S
C3831 C3833 1.561 . S
C3831 C3834 1.526 . S
C3832 H3816 0.959 . S
C3832 H3817 0.959 . S
C3832 H3818 0.961 . S
C3832 C3831 1.502 . S
C3833 H3819 0.960 . S
C3833 H3820 0.961 . S
C3833 H3821 0.959 . S
C3833 C3831 1.561 . S
C3834 C3831 1.526 . S
C3834 C3835 1.396 . S
C3834 C3839 1.390 . S
C3835 C3829 1.465 . S
C3835 C3834 1.396 . S
C3835 C3836 1.399 . S
C3836 H3822 0.929 . S
C3836 C3835 1.399 . S
C3836 C3837 1.385 . S
C3837 H3823 0.931 . S
C3837 C3836 1.385 . S
C3837 C3838 1.389 . S
C3838 C3837 1.389 . S
C3838 C3839 1.387 . S
C3839 H3824 0.930 . S
C3839 C3834 1.390 . S
C3839 C3838 1.387 . S
H3840 C3852 0.930 . S
H3841 C3854 0.930 . S
H3842 C3855 0.930 . S
H3843 C3859 0.959 . S
H3844 C3859 0.959 . S
H3845 C3859 0.961 . S
H3846 C3860 0.960 . S
H3847 C3860 0.961 . S
H3848 C3860 0.959 . S
H3849 C3863 0.929 . S
H3850 C3864 0.931 . S
H3851 C3866 0.930 . S
C3852 H3840 0.930 . S
C3852 C3853 1.399 . S
C3852 C3857 1.399 . S
C3853 C3852 1.399 . S
C3853 C3854 1.376 . S
C3854 H3841 0.930 . S
C3854 C3853 1.376 . S
C3854 C3855 1.388 . S
C3855 H3842 0.930 . S
C3855 C3854 1.388 . S
C3855 C3856 1.390 . S
C3856 C3855 1.390 . S
C3856 C3857 1.394 . S
C3856 C3862 1.465 . S
C3857 C3852 1.399 . S
C3857 C3856 1.394 . S
C3857 C3858 1.516 . S
C3858 C3857 1.516 . S
C3858 C3859 1.502 . S
C3858 C3860 1.561 . S
C3858 C3861 1.526 . S
C3859 H3843 0.959 . S
C3859 H3844 0.959 . S
C3859 H3845 0.961 . S
C3859 C3858 1.502 . S
C3860 H3846 0.960 . S
C3860 H3847 0.961 . S
C3860 H3848 0.959 . S
C3860 C3858 1.561 . S
C3861 C3858 1.526 . S
C3861 C3862 1.396 . S
C3861 C3866 1.390 . S
C3862 C3856 1.465 . S
C3862 C3861 1.396 . S
C3862 C3863 1.399 . S
C3863 H3849 0.929 . S
C3863 C3862 1.399 . S
C3863 C3864 1.385 . S
C3864 H3850 0.931 . S
C3864 C3863 1.385 . S
C3864 C3865 1.389 . S
C3865 C3864 1.389 . S
C3865 C3866 1.387 . S
C3866 H3851 0.930 . S
C3866 C3861 1.390 . S
C3866 C3865 1.387 . S
H3867 C3879 0.930 . S
H3868 C3881 0.930 . S
H3869 C3882 0.930 . S
H3870 C3886 0.959 . S
H3871 C3886 0.959 . S
H3872 C3886 0.961 . S
H3873 C3887 0.960 . S
H3874 C3887 0.961 . S
H3875 C3887 0.959 . S
H3876 C3890 0.929 . S
H3877 C3891 0.931 . S
H3878 C3893 0.930 . S
C3879 H3867 0.930 . S
C3879 C3880 1.399 . S
C3879 C3884 1.399 . S
C3880 C3879 1.399 . S
C3880 C3881 1.376 . S
C3881 H3868 0.930 . S
C3881 C3880 1.376 . S
C3881 C3882 1.388 . S
C3882 H3869 0.930 . S
C3882 C3881 1.388 . S
C3882 C3883 1.390 . S
C3883 C3882 1.390 . S
C3883 C3884 1.394 . S
C3883 C3889 1.465 . S
C3884 C3879 1.399 . S
C3884 C3883 1.394 . S
C3884 C3885 1.516 . S
C3885 C3884 1.516 . S
C3885 C3886 1.502 . S
C3885 C3887 1.561 . S
C3885 C3888 1.526 . S
C3886 H3870 0.959 . S
C3886 H3871 0.959 . S
C3886 H3872 0.961 . S
C3886 C3885 1.502 . S
C3887 H3873 0.960 . S
C3887 H3874 0.961 . S
C3887 H3875 0.959 . S
C3887 C3885 1.561 . S
C3888 C3885 1.526 . S
C3888 C3889 1.396 . S
C3888 C3893 1.390 . S
C3889 C3883 1.465 . S
C3889 C3888 1.396 . S
C3889 C3890 1.399 . S
C3890 H3876 0.929 . S
C3890 C3889 1.399 . S
C3890 C3891 1.385 . S
C3891 H3877 0.931 . S
C3891 C3890 1.385 . S
C3891 C3892 1.389 . S
C3892 C3891 1.389 . S
C3892 C3893 1.387 . S
C3893 H3878 0.930 . S
C3893 C3888 1.390 . S
C3893 C3892 1.387 . S
H3894 C3906 0.930 . S
H3895 C3908 0.930 . S
H3896 C3909 0.930 . S
H3897 C3913 0.959 . S
H3898 C3913 0.959 . S
H3899 C3913 0.961 . S
H3900 C3914 0.971 . S
H3901 C3914 0.950 1_455 S
H3902 C3914 0.943 1_455 S
H3903 C3917 0.929 . S
H3904 C3918 0.931 . S
H3905 C3920 0.930 . S
C3906 H3894 0.930 . S
C3906 C3907 1.399 . S
C3906 C3911 1.399 . S
C3907 C3906 1.399 . S
C3907 C3908 1.376 . S
C3908 H3895 0.930 . S
C3908 C3907 1.376 . S
C3908 C3909 1.388 . S
C3909 H3896 0.930 . S
C3909 C3908 1.388 . S
C3909 C3910 1.390 . S
C3910 C3909 1.390 . S
C3910 C3911 1.394 . S
C3910 C3916 1.465 1_655 S
C3911 C3906 1.399 . S
C3911 C3910 1.394 . S
C3911 C3912 1.516 . S
C3912 C3911 1.516 . S
C3912 C3913 1.502 . S
C3912 C3914 1.577 . S
C3912 C3915 1.526 1_655 S
C3913 H3897 0.959 . S
C3913 H3898 0.959 . S
C3913 H3899 0.961 . S
C3913 C3912 1.502 . S
C3914 H3900 0.971 . S
C3914 H3901 0.950 1_655 S
C3914 H3902 0.943 1_655 S
C3914 C3912 1.577 . S
C3915 C3912 1.526 1_455 S
C3915 C3916 1.396 . S
C3915 C3920 1.390 . S
C3916 C3910 1.465 1_455 S
C3916 C3915 1.396 . S
C3916 C3917 1.399 . S
C3917 H3903 0.929 . S
C3917 C3916 1.399 . S
C3917 C3918 1.385 . S
C3918 H3904 0.931 . S
C3918 C3917 1.385 . S
C3918 C3919 1.389 . S
C3919 C3918 1.389 . S
C3919 C3920 1.387 . S
C3920 H3905 0.930 . S
C3920 C3915 1.390 . S
C3920 C3919 1.387 . S
H3921 C3933 0.930 . S
H3922 C3935 0.930 . S
H3923 C3936 0.930 . S
H3924 C3940 0.959 . S
H3925 C3940 0.959 . S
H3926 C3940 0.961 . S
H3927 C3941 0.960 . S
H3928 C3941 0.961 . S
H3929 C3941 0.959 . S
H3930 C3944 0.929 . S
H3931 C3945 0.931 . S
H3932 C3947 0.930 . S
C3933 H3921 0.930 . S
C3933 C3934 1.399 . S
C3933 C3938 1.399 . S
C3934 C3933 1.399 . S
C3934 C3935 1.376 . S
C3935 H3922 0.930 . S
C3935 C3934 1.376 . S
C3935 C3936 1.388 . S
C3936 H3923 0.930 . S
C3936 C3935 1.388 . S
C3936 C3937 1.390 . S
C3937 C3936 1.390 . S
C3937 C3938 1.394 . S
C3937 C3943 1.465 . S
C3938 C3933 1.399 . S
C3938 C3937 1.394 . S
C3938 C3939 1.516 . S
C3939 C3938 1.516 . S
C3939 C3940 1.502 . S
C3939 C3941 1.561 . S
C3939 C3942 1.526 . S
C3940 H3924 0.959 . S
C3940 H3925 0.959 . S
C3940 H3926 0.961 . S
C3940 C3939 1.502 . S
C3941 H3927 0.960 . S
C3941 H3928 0.961 . S
C3941 H3929 0.959 . S
C3941 C3939 1.561 . S
C3942 C3939 1.526 . S
C3942 C3943 1.396 . S
C3942 C3947 1.390 . S
C3943 C3937 1.465 . S
C3943 C3942 1.396 . S
C3943 C3944 1.399 . S
C3944 H3930 0.929 . S
C3944 C3943 1.399 . S
C3944 C3945 1.385 . S
C3945 H3931 0.931 . S
C3945 C3944 1.385 . S
C3945 C3946 1.389 . S
C3946 C3945 1.389 . S
C3946 C3947 1.387 . S
C3947 H3932 0.930 . S
C3947 C3942 1.390 . S
C3947 C3946 1.387 . S
H3948 C3960 0.930 . S
H3949 C3962 0.930 . S
H3950 C3963 0.930 . S
H3951 C3967 0.959 . S
H3952 C3967 0.959 . S
H3953 C3967 0.961 . S
H3954 C3968 0.960 . S
H3955 C3968 0.961 . S
H3956 C3968 0.959 . S
H3957 C3971 0.929 . S
H3958 C3972 0.931 . S
H3959 C3974 0.930 . S
C3960 H3948 0.930 . S
C3960 C3961 1.399 . S
C3960 C3965 1.399 . S
C3961 C3960 1.399 . S
C3961 C3962 1.376 . S
C3962 H3949 0.930 . S
C3962 C3961 1.376 . S
C3962 C3963 1.388 . S
C3963 H3950 0.930 . S
C3963 C3962 1.388 . S
C3963 C3964 1.390 . S
C3964 C3963 1.390 . S
C3964 C3965 1.394 . S
C3964 C3970 1.465 . S
C3965 C3960 1.399 . S
C3965 C3964 1.394 . S
C3965 C3966 1.516 . S
C3966 C3965 1.516 . S
C3966 C3967 1.502 . S
C3966 C3968 1.561 . S
C3966 C3969 1.526 . S
C3967 H3951 0.959 . S
C3967 H3952 0.959 . S
C3967 H3953 0.961 . S
C3967 C3966 1.502 . S
C3968 H3954 0.960 . S
C3968 H3955 0.961 . S
C3968 H3956 0.959 . S
C3968 C3966 1.561 . S
C3969 C3966 1.526 . S
C3969 C3970 1.396 . S
C3969 C3974 1.390 . S
C3970 C3964 1.465 . S
C3970 C3969 1.396 . S
C3970 C3971 1.399 . S
C3971 H3957 0.929 . S
C3971 C3970 1.399 . S
C3971 C3972 1.385 . S
C3972 H3958 0.931 . S
C3972 C3971 1.385 . S
C3972 C3973 1.389 . S
C3973 C3972 1.389 . S
C3973 C3974 1.387 . S
C3974 H3959 0.930 . S
C3974 C3969 1.390 . S
C3974 C3973 1.387 . S
H3975 C3987 0.930 . S
H3976 C3989 0.930 . S
H3977 C3990 0.930 . S
H3978 C3994 0.959 . S
H3979 C3994 0.959 . S
H3980 C3994 0.961 . S
H3981 C3995 0.960 . S
H3982 C3995 0.961 . S
H3983 C3995 0.959 . S
H3984 C3998 0.929 . S
H3985 C3999 0.931 . S
H3986 C4001 0.930 . S
C3987 H3975 0.930 . S
C3987 C3988 1.399 . S
C3987 C3992 1.399 . S
C3988 C3987 1.399 . S
C3988 C3989 1.376 . S
C3989 H3976 0.930 . S
C3989 C3988 1.376 . S
C3989 C3990 1.388 . S
C3990 H3977 0.930 . S
C3990 C3989 1.388 . S
C3990 C3991 1.390 . S
C3991 C3990 1.390 . S
C3991 C3992 1.394 . S
C3991 C3997 1.465 . S
C3992 C3987 1.399 . S
C3992 C3991 1.394 . S
C3992 C3993 1.516 . S
C3993 C3992 1.516 . S
C3993 C3994 1.502 . S
C3993 C3995 1.561 . S
C3993 C3996 1.526 . S
C3994 H3978 0.959 . S
C3994 H3979 0.959 . S
C3994 H3980 0.961 . S
C3994 C3993 1.502 . S
C3995 H3981 0.960 . S
C3995 H3982 0.961 . S
C3995 H3983 0.959 . S
C3995 C3993 1.561 . S
C3996 C3993 1.526 . S
C3996 C3997 1.396 . S
C3996 C4001 1.390 . S
C3997 C3991 1.465 . S
C3997 C3996 1.396 . S
C3997 C3998 1.399 . S
C3998 H3984 0.929 . S
C3998 C3997 1.399 . S
C3998 C3999 1.385 . S
C3999 H3985 0.931 . S
C3999 C3998 1.385 . S
C3999 C4000 1.389 . S
C4000 C3999 1.389 . S
C4000 C4001 1.387 . S
C4001 H3986 0.930 . S
C4001 C3996 1.390 . S
C4001 C4000 1.387 . S
H4002 C4014 0.930 . S
H4003 C4016 0.930 . S
H4004 C4017 0.930 . S
H4005 C4021 0.959 1_455 S
H4006 C4021 0.959 1_455 S
H4007 C4021 0.961 . S
H4008 C4022 0.960 . S
H4009 C4022 0.961 . S
H4010 C4022 0.959 . S
H4011 C4025 0.929 . S
H4012 C4026 0.931 . S
H4013 C4028 0.930 1_455 S
C4014 H4002 0.930 . S
C4014 C4015 1.399 . S
C4014 C4019 1.399 . S
C4015 C4014 1.399 . S
C4015 C4016 1.376 . S
C4016 H4003 0.930 . S
C4016 C4015 1.376 . S
C4016 C4017 1.388 . S
C4017 H4004 0.930 . S
C4017 C4016 1.388 . S
C4017 C4018 1.390 . S
C4018 C4017 1.390 . S
C4018 C4019 1.394 . S
C4018 C4024 1.465 . S
C4019 C4014 1.399 . S
C4019 C4018 1.394 . S
C4019 C4020 1.516 . S
C4020 C4019 1.516 . S
C4020 C4021 1.502 . S
C4020 C4022 1.561 . S
C4020 C4023 1.526 . S
C4021 H4005 0.959 1_655 S
C4021 H4006 0.959 1_655 S
C4021 H4007 0.961 . S
C4021 C4020 1.502 . S
C4022 H4008 0.960 . S
C4022 H4009 0.961 . S
C4022 H4010 0.959 . S
C4022 C4020 1.561 . S
C4023 C4020 1.526 . S
C4023 C4024 1.396 . S
C4023 C4028 1.390 . S
C4024 C4018 1.465 . S
C4024 C4023 1.396 . S
C4024 C4025 1.399 . S
C4025 H4011 0.929 . S
C4025 C4024 1.399 . S
C4025 C4026 1.385 . S
C4026 H4012 0.931 . S
C4026 C4025 1.385 . S
C4026 C4027 1.389 1_655 S
C4027 C4026 1.389 1_455 S
C4027 C4028 1.387 1_455 S
C4028 H4013 0.930 1_655 S
C4028 C4023 1.390 . S
C4028 C4027 1.387 1_655 S
H4029 C4041 0.930 . S
H4030 C4043 0.930 . S
H4031 C4044 0.930 . S
H4032 C4048 0.959 . S
H4033 C4048 0.959 . S
H4034 C4048 0.961 . S
H4035 C4049 0.960 . S
H4036 C4049 0.961 . S
H4037 C4049 0.959 . S
H4038 C4052 0.929 . S
H4039 C4053 0.931 . S
H4040 C4055 0.930 . S
C4041 H4029 0.930 . S
C4041 C4042 1.399 . S
C4041 C4046 1.399 . S
C4042 C4041 1.399 . S
C4042 C4043 1.376 . S
C4043 H4030 0.930 . S
C4043 C4042 1.376 . S
C4043 C4044 1.388 . S
C4044 H4031 0.930 . S
C4044 C4043 1.388 . S
C4044 C4045 1.390 . S
C4045 C4044 1.390 . S
C4045 C4046 1.394 . S
C4045 C4051 1.465 . S
C4046 C4041 1.399 . S
C4046 C4045 1.394 . S
C4046 C4047 1.516 . S
C4047 C4046 1.516 . S
C4047 C4048 1.502 . S
C4047 C4049 1.561 . S
C4047 C4050 1.526 . S
C4048 H4032 0.959 . S
C4048 H4033 0.959 . S
C4048 H4034 0.961 . S
C4048 C4047 1.502 . S
C4049 H4035 0.960 . S
C4049 H4036 0.961 . S
C4049 H4037 0.959 . S
C4049 C4047 1.561 . S
C4050 C4047 1.526 . S
C4050 C4051 1.396 . S
C4050 C4055 1.390 . S
C4051 C4045 1.465 . S
C4051 C4050 1.396 . S
C4051 C4052 1.399 . S
C4052 H4038 0.929 . S
C4052 C4051 1.399 . S
C4052 C4053 1.385 . S
C4053 H4039 0.931 . S
C4053 C4052 1.385 . S
C4053 C4054 1.389 . S
C4054 C4053 1.389 . S
C4054 C4055 1.387 . S
C4055 H4040 0.930 . S
C4055 C4050 1.390 . S
C4055 C4054 1.387 . S
H4056 C4068 0.930 . S
H4057 C4070 0.930 . S
H4058 C4071 0.930 . S
H4059 C4075 0.959 . S
H4060 C4075 0.959 . S
H4061 C4075 0.961 . S
H4062 C4076 0.960 . S
H4063 C4076 0.961 . S
H4064 C4076 0.959 . S
H4065 C4079 0.929 . S
H4066 C4080 0.931 . S
H4067 C4082 0.930 . S
C4068 H4056 0.930 . S
C4068 C4069 1.399 . S
C4068 C4073 1.399 . S
C4069 C4068 1.399 . S
C4069 C4070 1.376 . S
C4070 H4057 0.930 . S
C4070 C4069 1.376 . S
C4070 C4071 1.388 . S
C4071 H4058 0.930 . S
C4071 C4070 1.388 . S
C4071 C4072 1.390 . S
C4072 C4071 1.390 . S
C4072 C4073 1.394 . S
C4072 C4078 1.465 . S
C4073 C4068 1.399 . S
C4073 C4072 1.394 . S
C4073 C4074 1.516 . S
C4074 C4073 1.516 . S
C4074 C4075 1.502 . S
C4074 C4076 1.561 . S
C4074 C4077 1.526 . S
C4075 H4059 0.959 . S
C4075 H4060 0.959 . S
C4075 H4061 0.961 . S
C4075 C4074 1.502 . S
C4076 H4062 0.960 . S
C4076 H4063 0.961 . S
C4076 H4064 0.959 . S
C4076 C4074 1.561 . S
C4077 C4074 1.526 . S
C4077 C4078 1.396 . S
C4077 C4082 1.390 . S
C4078 C4072 1.465 . S
C4078 C4077 1.396 . S
C4078 C4079 1.399 . S
C4079 H4065 0.929 . S
C4079 C4078 1.399 . S
C4079 C4080 1.385 . S
C4080 H4066 0.931 . S
C4080 C4079 1.385 . S
C4080 C4081 1.389 . S
C4081 C4080 1.389 . S
C4081 C4082 1.387 . S
C4082 H4067 0.930 . S
C4082 C4077 1.390 . S
C4082 C4081 1.387 . S
H4083 C4095 0.930 . S
H4084 C4097 0.930 . S
H4085 C4098 0.930 . S
H4086 C4102 0.959 . S
H4087 C4102 0.959 . S
H4088 C4102 0.961 . S
H4089 C4103 0.960 . S
H4090 C4103 0.961 . S
H4091 C4103 0.959 . S
H4092 C4106 0.929 . S
H4093 C4107 0.931 1_455 S
H4094 C4109 0.930 . S
C4095 H4083 0.930 . S
C4095 C4096 1.399 . S
C4095 C4100 1.399 . S
C4096 C4095 1.399 . S
C4096 C4097 1.376 . S
C4097 H4084 0.930 . S
C4097 C4096 1.376 . S
C4097 C4098 1.388 . S
C4098 H4085 0.930 . S
C4098 C4097 1.388 . S
C4098 C4099 1.390 . S
C4099 C4098 1.390 . S
C4099 C4100 1.394 . S
C4099 C4105 1.465 . S
C4100 C4095 1.399 . S
C4100 C4099 1.394 . S
C4100 C4101 1.516 . S
C4101 C4100 1.516 . S
C4101 C4102 1.502 . S
C4101 C4103 1.561 . S
C4101 C4104 1.526 . S
C4102 H4086 0.959 . S
C4102 H4087 0.959 . S
C4102 H4088 0.961 . S
C4102 C4101 1.502 . S
C4103 H4089 0.960 . S
C4103 H4090 0.961 . S
C4103 H4091 0.959 . S
C4103 C4101 1.561 . S
C4104 C4101 1.526 . S
C4104 C4105 1.396 . S
C4104 C4109 1.390 . S
C4105 C4099 1.465 . S
C4105 C4104 1.396 . S
C4105 C4106 1.399 . S
C4106 H4092 0.929 . S
C4106 C4105 1.399 . S
C4106 C4107 1.385 . S
C4107 H4093 0.931 1_655 S
C4107 C4106 1.385 . S
C4107 C4108 1.389 . S
C4108 C4107 1.389 . S
C4108 C4109 1.387 . S
C4109 H4094 0.930 . S
C4109 C4104 1.390 . S
C4109 C4108 1.387 . S
H4110 C4122 0.930 . S
H4111 C4124 0.930 . S
H4112 C4125 0.930 . S
H4113 C4129 0.959 . S
H4114 C4129 0.959 . S
H4115 C4129 0.961 . S
H4116 C4130 0.960 . S
H4117 C4130 0.961 . S
H4118 C4130 0.959 . S
H4119 C4133 0.929 . S
H4120 C4134 0.931 . S
H4121 C4136 0.930 . S
C4122 H4110 0.930 . S
C4122 C4123 1.399 . S
C4122 C4127 1.399 . S
C4123 C4122 1.399 . S
C4123 C4124 1.376 . S
C4124 H4111 0.930 . S
C4124 C4123 1.376 . S
C4124 C4125 1.388 . S
C4125 H4112 0.930 . S
C4125 C4124 1.388 . S
C4125 C4126 1.390 . S
C4126 C4125 1.390 . S
C4126 C4127 1.394 . S
C4126 C4132 1.465 . S
C4127 C4122 1.399 . S
C4127 C4126 1.394 . S
C4127 C4128 1.516 . S
C4128 C4127 1.516 . S
C4128 C4129 1.502 . S
C4128 C4130 1.561 . S
C4128 C4131 1.526 . S
C4129 H4113 0.959 . S
C4129 H4114 0.959 . S
C4129 H4115 0.961 . S
C4129 C4128 1.502 . S
C4130 H4116 0.960 . S
C4130 H4117 0.961 . S
C4130 H4118 0.959 . S
C4130 C4128 1.561 . S
C4131 C4128 1.526 . S
C4131 C4132 1.396 . S
C4131 C4136 1.390 . S
C4132 C4126 1.465 . S
C4132 C4131 1.396 . S
C4132 C4133 1.399 . S
C4133 H4119 0.929 . S
C4133 C4132 1.399 . S
C4133 C4134 1.385 . S
C4134 H4120 0.931 . S
C4134 C4133 1.385 . S
C4134 C4135 1.389 . S
C4135 C4134 1.389 . S
C4135 C4136 1.387 . S
C4136 H4121 0.930 . S
C4136 C4131 1.390 . S
C4136 C4135 1.387 . S
H4137 C4149 0.930 . S
H4138 C4151 0.930 . S
H4139 C4152 0.930 . S
H4140 C4156 0.959 . S
H4141 C4156 0.959 . S
H4142 C4156 0.961 . S
H4143 C4157 0.960 . S
H4144 C4157 0.961 . S
H4145 C4157 0.959 . S
H4146 C4160 0.929 . S
H4147 C4161 0.931 . S
H4148 C4163 0.930 . S
C4149 H4137 0.930 . S
C4149 C4150 1.399 . S
C4149 C4154 1.399 . S
C4150 C4149 1.399 . S
C4150 C4151 1.376 . S
C4151 H4138 0.930 . S
C4151 C4150 1.376 . S
C4151 C4152 1.388 . S
C4152 H4139 0.930 . S
C4152 C4151 1.388 . S
C4152 C4153 1.390 . S
C4153 C4152 1.390 . S
C4153 C4154 1.394 . S
C4153 C4159 1.465 . S
C4154 C4149 1.399 . S
C4154 C4153 1.394 . S
C4154 C4155 1.516 . S
C4155 C4154 1.516 . S
C4155 C4156 1.502 . S
C4155 C4157 1.561 1_554 S
C4155 C4158 1.526 . S
C4156 H4140 0.959 . S
C4156 H4141 0.959 . S
C4156 H4142 0.961 . S
C4156 C4155 1.502 . S
C4157 H4143 0.960 . S
C4157 H4144 0.961 . S
C4157 H4145 0.959 . S
C4157 C4155 1.561 1_556 S
C4158 C4155 1.526 . S
C4158 C4159 1.396 . S
C4158 C4163 1.390 . S
C4159 C4153 1.465 . S
C4159 C4158 1.396 . S
C4159 C4160 1.399 . S
C4160 H4146 0.929 . S
C4160 C4159 1.399 . S
C4160 C4161 1.385 . S
C4161 H4147 0.931 . S
C4161 C4160 1.385 . S
C4161 C4162 1.389 . S
C4162 C4161 1.389 . S
C4162 C4163 1.387 . S
C4163 H4148 0.930 . S
C4163 C4158 1.390 . S
C4163 C4162 1.387 . S
H4164 C4176 0.930 . S
H4165 C4178 0.930 . S
H4166 C4179 0.930 . S
H4167 C4183 0.959 . S
H4168 C4183 0.959 . S
H4169 C4183 0.961 . S
H4170 C4184 0.960 . S
H4171 C4184 0.961 . S
H4172 C4184 0.959 . S
H4173 C4187 0.929 . S
H4174 C4188 0.931 . S
H4175 C4190 0.930 . S
C4176 H4164 0.930 . S
C4176 C4177 1.399 . S
C4176 C4181 1.399 . S
C4177 C4176 1.399 . S
C4177 C4178 1.376 . S
C4178 H4165 0.930 . S
C4178 C4177 1.376 . S
C4178 C4179 1.388 . S
C4179 H4166 0.930 . S
C4179 C4178 1.388 . S
C4179 C4180 1.390 . S
C4180 C4179 1.390 . S
C4180 C4181 1.394 . S
C4180 C4186 1.465 . S
C4181 C4176 1.399 . S
C4181 C4180 1.394 . S
C4181 C4182 1.516 . S
C4182 C4181 1.516 . S
C4182 C4183 1.502 . S
C4182 C4184 1.561 . S
C4182 C4185 1.526 . S
C4183 H4167 0.959 . S
C4183 H4168 0.959 . S
C4183 H4169 0.961 . S
C4183 C4182 1.502 . S
C4184 H4170 0.960 . S
C4184 H4171 0.961 . S
C4184 H4172 0.959 . S
C4184 C4182 1.561 . S
C4185 C4182 1.526 . S
C4185 C4186 1.396 . S
C4185 C4190 1.390 . S
C4186 C4180 1.465 . S
C4186 C4185 1.396 . S
C4186 C4187 1.399 . S
C4187 H4173 0.929 . S
C4187 C4186 1.399 . S
C4187 C4188 1.385 . S
C4188 H4174 0.931 . S
C4188 C4187 1.385 . S
C4188 C4189 1.389 . S
C4189 C4188 1.389 . S
C4189 C4190 1.387 . S
C4190 H4175 0.930 . S
C4190 C4185 1.390 . S
C4190 C4189 1.387 . S
H4191 C4203 0.930 . S
H4192 C4205 0.930 . S
H4193 C4206 0.930 . S
H4194 C4210 0.959 . S
H4195 C4210 0.959 . S
H4196 C4210 0.961 . S
H4197 C4211 0.960 . S
H4198 C4211 0.961 . S
H4199 C4211 0.959 . S
H4200 C4214 0.929 . S
H4201 C4215 0.931 . S
H4202 C4217 0.930 . S
C4203 H4191 0.930 . S
C4203 C4204 1.399 . S
C4203 C4208 1.399 . S
C4204 C4203 1.399 . S
C4204 C4205 1.376 . S
C4205 H4192 0.930 . S
C4205 C4204 1.376 . S
C4205 C4206 1.388 . S
C4206 H4193 0.930 . S
C4206 C4205 1.388 . S
C4206 C4207 1.390 . S
C4207 C4206 1.390 . S
C4207 C4208 1.394 . S
C4207 C4213 1.465 . S
C4208 C4203 1.399 . S
C4208 C4207 1.394 . S
C4208 C4209 1.516 . S
C4209 C4208 1.516 . S
C4209 C4210 1.502 . S
C4209 C4211 1.561 . S
C4209 C4212 1.526 . S
C4210 H4194 0.959 . S
C4210 H4195 0.959 . S
C4210 H4196 0.961 . S
C4210 C4209 1.502 . S
C4211 H4197 0.960 . S
C4211 H4198 0.961 . S
C4211 H4199 0.959 . S
C4211 C4209 1.561 . S
C4212 C4209 1.526 . S
C4212 C4213 1.396 . S
C4212 C4217 1.390 . S
C4213 C4207 1.465 . S
C4213 C4212 1.396 . S
C4213 C4214 1.399 . S
C4214 H4200 0.929 . S
C4214 C4213 1.399 . S
C4214 C4215 1.385 . S
C4215 H4201 0.931 . S
C4215 C4214 1.385 . S
C4215 C4216 1.389 . S
C4216 C4215 1.389 . S
C4216 C4217 1.387 . S
C4217 H4202 0.930 . S
C4217 C4212 1.390 . S
C4217 C4216 1.387 . S
H4218 C4230 0.930 . S
H4219 C4232 0.930 . S
H4220 C4233 0.930 . S
H4221 C4237 0.959 . S
H4222 C4237 0.959 . S
H4223 C4237 0.961 . S
H4224 C4238 0.960 . S
H4225 C4238 0.961 . S
H4226 C4238 0.959 . S
H4227 C4241 0.929 . S
H4228 C4242 0.931 . S
H4229 C4244 0.930 . S
C4230 H4218 0.930 . S
C4230 C4231 1.399 . S
C4230 C4235 1.399 . S
C4231 C4230 1.399 . S
C4231 C4232 1.376 . S
C4232 H4219 0.930 . S
C4232 C4231 1.376 . S
C4232 C4233 1.388 . S
C4233 H4220 0.930 . S
C4233 C4232 1.388 . S
C4233 C4234 1.390 . S
C4234 C4233 1.390 . S
C4234 C4235 1.394 . S
C4234 C4240 1.465 . S
C4235 C4230 1.399 . S
C4235 C4234 1.394 . S
C4235 C4236 1.516 . S
C4236 C4235 1.516 . S
C4236 C4237 1.502 . S
C4236 C4238 1.561 . S
C4236 C4239 1.526 . S
C4237 H4221 0.959 . S
C4237 H4222 0.959 . S
C4237 H4223 0.961 . S
C4237 C4236 1.502 . S
C4238 H4224 0.960 . S
C4238 H4225 0.961 . S
C4238 H4226 0.959 . S
C4238 C4236 1.561 . S
C4239 C4236 1.526 . S
C4239 C4240 1.396 . S
C4239 C4244 1.390 . S
C4240 C4234 1.465 . S
C4240 C4239 1.396 . S
C4240 C4241 1.399 . S
C4241 H4227 0.929 . S
C4241 C4240 1.399 . S
C4241 C4242 1.385 . S
C4242 H4228 0.931 . S
C4242 C4241 1.385 . S
C4242 C4243 1.389 . S
C4243 C4242 1.389 . S
C4243 C4244 1.387 . S
C4244 H4229 0.930 . S
C4244 C4239 1.390 . S
C4244 C4243 1.387 . S
H4245 C4257 0.930 . S
H4246 C4259 0.930 . S
H4247 C4260 0.930 . S
H4248 C4264 0.959 . S
H4249 C4264 0.959 . S
H4250 C4264 0.961 . S
H4251 C4265 0.960 . S
H4252 C4265 0.961 . S
H4253 C4265 0.959 . S
H4254 C4268 0.929 . S
H4255 C4269 0.931 . S
H4256 C4271 0.930 . S
C4257 H4245 0.930 . S
C4257 C4258 1.399 . S
C4257 C4262 1.399 . S
C4258 C4257 1.399 . S
C4258 C4259 1.376 . S
C4259 H4246 0.930 . S
C4259 C4258 1.376 . S
C4259 C4260 1.388 . S
C4260 H4247 0.930 . S
C4260 C4259 1.388 . S
C4260 C4261 1.390 . S
C4261 C4260 1.390 . S
C4261 C4262 1.394 . S
C4261 C4267 1.465 . S
C4262 C4257 1.399 . S
C4262 C4261 1.394 . S
C4262 C4263 1.516 . S
C4263 C4262 1.516 . S
C4263 C4264 1.502 . S
C4263 C4265 1.561 . S
C4263 C4266 1.526 . S
C4264 H4248 0.959 . S
C4264 H4249 0.959 . S
C4264 H4250 0.961 . S
C4264 C4263 1.502 . S
C4265 H4251 0.960 . S
C4265 H4252 0.961 . S
C4265 H4253 0.959 . S
C4265 C4263 1.561 . S
C4266 C4263 1.526 . S
C4266 C4267 1.396 . S
C4266 C4271 1.390 . S
C4267 C4261 1.465 . S
C4267 C4266 1.396 . S
C4267 C4268 1.399 . S
C4268 H4254 0.929 . S
C4268 C4267 1.399 . S
C4268 C4269 1.385 . S
C4269 H4255 0.931 . S
C4269 C4268 1.385 . S
C4269 C4270 1.389 . S
C4270 C4269 1.389 . S
C4270 C4271 1.387 . S
C4271 H4256 0.930 . S
C4271 C4266 1.390 . S
C4271 C4270 1.387 . S
C1693 C106 2.091 . S
C1705 C403 2.014 . S
C1720 C65 2.218 . S
C1732 C486 2.123 . S
C1747 C79 1.843 . S
C1759 C571 1.759 . S
C1786 C651 1.278 . S
C1774 C90 1.298 . S
C1801 C21 1.279 . S
C1813 C735 1.335 . S
C1840 C828 0.892 . S
C1828 C35 0.928 . S
C1867 C906 0.915 . S
C1855 C50 0.917 . S
C1882 C6 1.514 . S
C1894 C991 1.455 . S
C1921 C402 2.214 . S
C1909 C232 2.288 . S
C1936 C245 0.654 . S
C1948 C483 0.744 . S
C1975 C570 1.260 . S
C1963 C274 1.298 . S
C2002 C655 1.574 . S
C1990 C175 1.594 . S
C2017 C231 1.811 . S
C2029 C739 1.759 . S
C2056 C831 1.001 . S
C2044 C246 1.188 . S
C2083 C903 0.665 . S
C2071 C273 0.761 . S
C2110 C990 1.611 . S
C2098 C176 1.771 . S
C2137 C399 1.462 . S
C2125 C160 1.454 . S
C2152 C289 1.931 . S
C2164 C1074 1.889 . S
C2191 C1148 2.255 . S
C2179 C328 2.387 . S
C2218 C1243 0.737 . S
C2206 C317 0.669 . S
C2233 C118 0.984 . S
C2245 C987 1.196 . S
C2260 C132 1.379 . S
C2272 C567 1.455 . S
C2287 C331 2.322 . S
C2299 C1326 2.203 . S
C2326 C1411 0.968 . S
C2314 C303 1.016 . S
C2353 C392 1.662 1_565 S
C2341 C63 1.745 . S
C2380 C1419 2.573 . S
C2368 C107 2.572 . S
C2395 C92 1.644 . S
C2407 C560 1.593 . S
C2422 C78 1.927 . S
C2434 C1332 1.715 . S
C2461 C744 1.728 . S
C2449 C8 1.824 . S
C2476 C51 1.209 . S
C2488 C1155 1.125 . S
C2515 C915 1.429 1_556 S
C2503 C37 1.378 . S
C2542 C1484 1.373 . S
C2530 C20 1.426 . S
C2569 C411 2.084 . S
C2557 C147 2.109 . S
C2596 C1416 0.862 . S
C2584 C316 0.874 . S
C2611 C119 1.156 . S
C2623 C579 1.220 . S
C2638 C288 1.754 . S
C2650 C1316 1.671 . S
C2665 C148 2.316 1_545 S
C2677 C728 2.158 . S
C2704 C1158 1.139 . S
C2692 C315 1.147 . S
C2719 C120 0.991 . S
C2731 C912 0.834 . S
C2746 C287 1.642 . S
C2758 C1503 1.585 . S
C2773 C188 1.383 . S
C2785 C408 1.350 . S
C2800 C177 2.228 . S
C2812 C1083 2.169 . S
C2827 C258 2.483 . S
C2839 C823 2.417 . S
C2854 C247 0.684 . S
C2866 C1232 0.646 . S
C2893 C1500 0.878 . S
C2881 C272 0.895 1_565 S
C2908 C216 1.365 . S
C2920 C576 1.370 . S
C2947 C663 2.424 . S
C2935 C261 2.505 . S
C2974 C476 0.804 . S
C2962 C205 0.904 . S
C2989 C76 1.751 . S
C3001 C1579 1.550 . S
C3028 C1410 2.208 . S
C3016 C93 2.302 . S
C3043 C105 1.481 . S
C3055 C1663 1.447 . S
C3070 C62 1.347 . S
C3082 C1323 1.334 . S
C3097 C49 1.331 . S
C3109 C1071 1.332 . S
C3136 C1164 1.192 . S
C3124 C9 1.319 . S
C3163 C1242 0.864 . S
C3151 C22 0.877 . S
C3190 C1495 1.715 . S
C3178 C36 1.993 . S
C3217 C1578 2.081 . S
C3205 C260 2.232 . S
C3232 C189 0.618 . S
C3244 C1407 0.571 . S
C3271 C1662 1.126 . S
C3259 C204 1.224 . S
C3298 C1327 1.343 . S
C3286 C217 1.490 . S
C3325 C1075 1.993 . S
C3313 C259 2.082 . S
C3340 C190 1.239 . S
C3352 C1167 1.211 . S
C3379 C1239 0.855 . S
C3367 C203 0.770 . S
C3394 C218 1.865 . S
C3406 C1494 1.692 . S
C3433 C1575 1.444 . S
C3421 C314 1.422 . S
C3448 C135 2.035 . S
C3460 C738 1.924 . S
C3487 C812 2.162 . S
C3475 C146 2.292 . S
C3514 C907 0.688 . S
C3502 C163 0.757 . S
C3541 C1491 1.159 . S
C3529 C300 0.976 . S
C3556 C286 1.366 . S
C3568 C1659 1.473 . S
C3595 C654 2.115 . S
C3583 C149 2.225 . S
C3622 C487 0.919 . S
C3610 C121 0.959 . S
C3637 C91 1.737 . S
C3649 C1568 1.597 . S
C3676 C495 2.191 . S
C3664 C77 2.084 . S
C3691 C64 1.658 . S
C3703 C1652 1.637 . S
C3718 C104 1.516 . S
C3730 C660 1.446 . S
C3745 C34 1.486 . S
C3757 C1080 1.465 1_556 S
C3784 C819 1.131 . S
C3772 C23 1.199 . S
C3799 C7 1.032 . S
C3811 C1251 1.104 . S
C3826 C48 1.386 . S
C3838 C980 1.374 . S
C3865 C1587 2.003 . S
C3853 C329 2.099 . S
C3880 C162 0.907 . S
C3892 C492 0.858 . S
C3919 C1671 1.205 1_556 S
C3907 C301 1.118 . S
C3934 C134 1.801 . S
C3946 C644 1.739 . S
C3961 C330 2.287 . S
C3973 C1064 2.060 . S
C4000 C822 1.107 . S
C3988 C161 1.222 . S
C4015 C302 0.973 . S
C4027 C1248 1.025 . S
C4054 C999 1.476 . S
C4042 C133 1.614 . S
C4081 C1584 1.421 . S
C4069 C244 1.532 . S
C4108 C747 2.160 1_665 S
C4096 C219 2.190 . S
C4123 C230 2.204 . S
C4135 C1159 2.034 . S
C4162 C896 0.779 . S
C4150 C191 0.706 . S
C4177 C202 0.956 . S
C4189 C996 0.985 . S
C4204 C174 1.536 . S
C4216 C1668 1.486 . S
C4243 C1335 2.439 . S
C4231 C233 2.487 1_565 S
C4270 C1400 0.966 . S
C4258 C275 0.957 . S
