# Generated by pormake.
# Topology gar, (4,6)-cn, num edge types: 1
# Building blocks:
#     Node 0, Type 0, BuildingBlock: GALJAG_clean_sbu_0, # of connection points: 4
#     Node 1, Type 0, BuildingBlock: GALJAG_clean_sbu_0, # of connection points: 4
#     Node 2, Type 0, BuildingBlock: GALJAG_clean_sbu_0, # of connection points: 4
#     Node 3, Type 0, BuildingBlock: GALJAG_clean_sbu_0, # of connection points: 4
#     Node 4, Type 0, BuildingBlock: GALJAG_clean_sbu_0, # of connection points: 4
#     Node 5, Type 0, BuildingBlock: GALJAG_clean_sbu_0, # of connection points: 4
#     Node 6, Type 0, BuildingBlock: GALJAG_clean_sbu_0, # of connection points: 4
#     Node 7, Type 0, BuildingBlock: GALJAG_clean_sbu_0, # of connection points: 4
#     Node 8, Type 0, BuildingBlock: GALJAG_clean_sbu_0, # of connection points: 4
#     Node 9, Type 0, BuildingBlock: GALJAG_clean_sbu_0, # of connection points: 4
#     Node 10, Type 0, BuildingBlock: GALJAG_clean_sbu_0, # of connection points: 4
#     Node 11, Type 0, BuildingBlock: GALJAG_clean_sbu_0, # of connection points: 4
#     Node 12, Type 0, BuildingBlock: GALJAG_clean_sbu_0, # of connection points: 4
#     Node 13, Type 0, BuildingBlock: GALJAG_clean_sbu_0, # of connection points: 4
#     Node 14, Type 0, BuildingBlock: GALJAG_clean_sbu_0, # of connection points: 4
#     Node 15, Type 0, BuildingBlock: GALJAG_clean_sbu_0, # of connection points: 4
#     Node 16, Type 0, BuildingBlock: GALJAG_clean_sbu_0, # of connection points: 4
#     Node 17, Type 0, BuildingBlock: GALJAG_clean_sbu_0, # of connection points: 4
#     Node 18, Type 0, BuildingBlock: GALJAG_clean_sbu_0, # of connection points: 4
#     Node 19, Type 0, BuildingBlock: GALJAG_clean_sbu_0, # of connection points: 4
#     Node 20, Type 0, BuildingBlock: GALJAG_clean_sbu_0, # of connection points: 4
#     Node 21, Type 0, BuildingBlock: GALJAG_clean_sbu_0, # of connection points: 4
#     Node 22, Type 0, BuildingBlock: GALJAG_clean_sbu_0, # of connection points: 4
#     Node 23, Type 0, BuildingBlock: GALJAG_clean_sbu_0, # of connection points: 4
#     Node 24, Type 1, BuildingBlock: BETDIP_clean_sbu_0, # of connection points: 6
#     Node 25, Type 1, BuildingBlock: BETDIP_clean_sbu_0, # of connection points: 6
#     Node 26, Type 1, BuildingBlock: BETDIP_clean_sbu_0, # of connection points: 6
#     Node 27, Type 1, BuildingBlock: BETDIP_clean_sbu_0, # of connection points: 6
#     Node 28, Type 1, BuildingBlock: BETDIP_clean_sbu_0, # of connection points: 6
#     Node 29, Type 1, BuildingBlock: BETDIP_clean_sbu_0, # of connection points: 6
#     Node 30, Type 1, BuildingBlock: BETDIP_clean_sbu_0, # of connection points: 6
#     Node 31, Type 1, BuildingBlock: BETDIP_clean_sbu_0, # of connection points: 6
#     Node 32, Type 1, BuildingBlock: BETDIP_clean_sbu_0, # of connection points: 6
#     Node 33, Type 1, BuildingBlock: BETDIP_clean_sbu_0, # of connection points: 6
#     Node 34, Type 1, BuildingBlock: BETDIP_clean_sbu_0, # of connection points: 6
#     Node 35, Type 1, BuildingBlock: BETDIP_clean_sbu_0, # of connection points: 6
#     Node 36, Type 1, BuildingBlock: BETDIP_clean_sbu_0, # of connection points: 6
#     Node 37, Type 1, BuildingBlock: BETDIP_clean_sbu_0, # of connection points: 6
#     Node 38, Type 1, BuildingBlock: BETDIP_clean_sbu_0, # of connection points: 6
#     Node 39, Type 1, BuildingBlock: BETDIP_clean_sbu_0, # of connection points: 6
#     Edge 40, Type (0, 1), BuildingBlock: UVAHIK_clean_linker_0, # of connection points: 2
#     Edge 41, Type (0, 1), BuildingBlock: UVAHIK_clean_linker_0, # of connection points: 2
#     Edge 42, Type (0, 1), BuildingBlock: UVAHIK_clean_linker_0, # of connection points: 2
#     Edge 43, Type (0, 1), BuildingBlock: UVAHIK_clean_linker_0, # of connection points: 2
#     Edge 44, Type (0, 1), BuildingBlock: UVAHIK_clean_linker_0, # of connection points: 2
#     Edge 45, Type (0, 1), BuildingBlock: UVAHIK_clean_linker_0, # of connection points: 2
#     Edge 46, Type (0, 1), BuildingBlock: UVAHIK_clean_linker_0, # of connection points: 2
#     Edge 47, Type (0, 1), BuildingBlock: UVAHIK_clean_linker_0, # of connection points: 2
#     Edge 48, Type (0, 1), BuildingBlock: UVAHIK_clean_linker_0, # of connection points: 2
#     Edge 49, Type (0, 1), BuildingBlock: UVAHIK_clean_linker_0, # of connection points: 2
#     Edge 50, Type (0, 1), BuildingBlock: UVAHIK_clean_linker_0, # of connection points: 2
#     Edge 51, Type (0, 1), BuildingBlock: UVAHIK_clean_linker_0, # of connection points: 2
#     Edge 52, Type (0, 1), BuildingBlock: UVAHIK_clean_linker_0, # of connection points: 2
#     Edge 53, Type (0, 1), BuildingBlock: UVAHIK_clean_linker_0, # of connection points: 2
#     Edge 54, Type (0, 1), BuildingBlock: UVAHIK_clean_linker_0, # of connection points: 2
#     Edge 55, Type (0, 1), BuildingBlock: UVAHIK_clean_linker_0, # of connection points: 2
#     Edge 56, Type (0, 1), BuildingBlock: UVAHIK_clean_linker_0, # of connection points: 2
#     Edge 57, Type (0, 1), BuildingBlock: UVAHIK_clean_linker_0, # of connection points: 2
#     Edge 58, Type (0, 1), BuildingBlock: UVAHIK_clean_linker_0, # of connection points: 2
#     Edge 59, Type (0, 1), BuildingBlock: UVAHIK_clean_linker_0, # of connection points: 2
#     Edge 60, Type (0, 1), BuildingBlock: UVAHIK_clean_linker_0, # of connection points: 2
#     Edge 61, Type (0, 1), BuildingBlock: UVAHIK_clean_linker_0, # of connection points: 2
#     Edge 62, Type (0, 1), BuildingBlock: UVAHIK_clean_linker_0, # of connection points: 2
#     Edge 63, Type (0, 1), BuildingBlock: UVAHIK_clean_linker_0, # of connection points: 2
#     Edge 64, Type (0, 1), BuildingBlock: UVAHIK_clean_linker_0, # of connection points: 2
#     Edge 65, Type (0, 1), BuildingBlock: UVAHIK_clean_linker_0, # of connection points: 2
#     Edge 66, Type (0, 1), BuildingBlock: UVAHIK_clean_linker_0, # of connection points: 2
#     Edge 67, Type (0, 1), BuildingBlock: UVAHIK_clean_linker_0, # of connection points: 2
#     Edge 68, Type (0, 1), BuildingBlock: UVAHIK_clean_linker_0, # of connection points: 2
#     Edge 69, Type (0, 1), BuildingBlock: UVAHIK_clean_linker_0, # of connection points: 2
#     Edge 70, Type (0, 1), BuildingBlock: UVAHIK_clean_linker_0, # of connection points: 2
#     Edge 71, Type (0, 1), BuildingBlock: UVAHIK_clean_linker_0, # of connection points: 2
#     Edge 72, Type (0, 1), BuildingBlock: UVAHIK_clean_linker_0, # of connection points: 2
#     Edge 73, Type (0, 1), BuildingBlock: UVAHIK_clean_linker_0, # of connection points: 2
#     Edge 74, Type (0, 1), BuildingBlock: UVAHIK_clean_linker_0, # of connection points: 2
#     Edge 75, Type (0, 1), BuildingBlock: UVAHIK_clean_linker_0, # of connection points: 2
#     Edge 76, Type (0, 1), BuildingBlock: UVAHIK_clean_linker_0, # of connection points: 2
#     Edge 77, Type (0, 1), BuildingBlock: UVAHIK_clean_linker_0, # of connection points: 2
#     Edge 78, Type (0, 1), BuildingBlock: UVAHIK_clean_linker_0, # of connection points: 2
#     Edge 79, Type (0, 1), BuildingBlock: UVAHIK_clean_linker_0, # of connection points: 2
#     Edge 80, Type (0, 1), BuildingBlock: UVAHIK_clean_linker_0, # of connection points: 2
#     Edge 81, Type (0, 1), BuildingBlock: UVAHIK_clean_linker_0, # of connection points: 2
#     Edge 82, Type (0, 1), BuildingBlock: UVAHIK_clean_linker_0, # of connection points: 2
#     Edge 83, Type (0, 1), BuildingBlock: UVAHIK_clean_linker_0, # of connection points: 2
#     Edge 84, Type (0, 1), BuildingBlock: UVAHIK_clean_linker_0, # of connection points: 2
#     Edge 85, Type (0, 1), BuildingBlock: UVAHIK_clean_linker_0, # of connection points: 2
#     Edge 86, Type (0, 1), BuildingBlock: UVAHIK_clean_linker_0, # of connection points: 2
#     Edge 87, Type (0, 1), BuildingBlock: UVAHIK_clean_linker_0, # of connection points: 2
#     Edge 88, Type (0, 1), BuildingBlock: UVAHIK_clean_linker_0, # of connection points: 2
#     Edge 89, Type (0, 1), BuildingBlock: UVAHIK_clean_linker_0, # of connection points: 2
#     Edge 90, Type (0, 1), BuildingBlock: UVAHIK_clean_linker_0, # of connection points: 2
#     Edge 91, Type (0, 1), BuildingBlock: UVAHIK_clean_linker_0, # of connection points: 2
#     Edge 92, Type (0, 1), BuildingBlock: UVAHIK_clean_linker_0, # of connection points: 2
#     Edge 93, Type (0, 1), BuildingBlock: UVAHIK_clean_linker_0, # of connection points: 2
#     Edge 94, Type (0, 1), BuildingBlock: UVAHIK_clean_linker_0, # of connection points: 2
#     Edge 95, Type (0, 1), BuildingBlock: UVAHIK_clean_linker_0, # of connection points: 2
#     Edge 96, Type (0, 1), BuildingBlock: UVAHIK_clean_linker_0, # of connection points: 2
#     Edge 97, Type (0, 1), BuildingBlock: UVAHIK_clean_linker_0, # of connection points: 2
#     Edge 98, Type (0, 1), BuildingBlock: UVAHIK_clean_linker_0, # of connection points: 2
#     Edge 99, Type (0, 1), BuildingBlock: UVAHIK_clean_linker_0, # of connection points: 2
#     Edge 100, Type (0, 1), BuildingBlock: UVAHIK_clean_linker_0, # of connection points: 2
#     Edge 101, Type (0, 1), BuildingBlock: UVAHIK_clean_linker_0, # of connection points: 2
#     Edge 102, Type (0, 1), BuildingBlock: UVAHIK_clean_linker_0, # of connection points: 2
#     Edge 103, Type (0, 1), BuildingBlock: UVAHIK_clean_linker_0, # of connection points: 2
#     Edge 104, Type (0, 1), BuildingBlock: UVAHIK_clean_linker_0, # of connection points: 2
#     Edge 105, Type (0, 1), BuildingBlock: UVAHIK_clean_linker_0, # of connection points: 2
#     Edge 106, Type (0, 1), BuildingBlock: UVAHIK_clean_linker_0, # of connection points: 2
#     Edge 107, Type (0, 1), BuildingBlock: UVAHIK_clean_linker_0, # of connection points: 2
#     Edge 108, Type (0, 1), BuildingBlock: UVAHIK_clean_linker_0, # of connection points: 2
#     Edge 109, Type (0, 1), BuildingBlock: UVAHIK_clean_linker_0, # of connection points: 2
#     Edge 110, Type (0, 1), BuildingBlock: UVAHIK_clean_linker_0, # of connection points: 2
#     Edge 111, Type (0, 1), BuildingBlock: UVAHIK_clean_linker_0, # of connection points: 2
#     Edge 112, Type (0, 1), BuildingBlock: UVAHIK_clean_linker_0, # of connection points: 2
#     Edge 113, Type (0, 1), BuildingBlock: UVAHIK_clean_linker_0, # of connection points: 2
#     Edge 114, Type (0, 1), BuildingBlock: UVAHIK_clean_linker_0, # of connection points: 2
#     Edge 115, Type (0, 1), BuildingBlock: UVAHIK_clean_linker_0, # of connection points: 2
#     Edge 116, Type (0, 1), BuildingBlock: UVAHIK_clean_linker_0, # of connection points: 2
#     Edge 117, Type (0, 1), BuildingBlock: UVAHIK_clean_linker_0, # of connection points: 2
#     Edge 118, Type (0, 1), BuildingBlock: UVAHIK_clean_linker_0, # of connection points: 2
#     Edge 119, Type (0, 1), BuildingBlock: UVAHIK_clean_linker_0, # of connection points: 2
#     Edge 120, Type (0, 1), BuildingBlock: UVAHIK_clean_linker_0, # of connection points: 2
#     Edge 121, Type (0, 1), BuildingBlock: UVAHIK_clean_linker_0, # of connection points: 2
#     Edge 122, Type (0, 1), BuildingBlock: UVAHIK_clean_linker_0, # of connection points: 2
#     Edge 123, Type (0, 1), BuildingBlock: UVAHIK_clean_linker_0, # of connection points: 2
#     Edge 124, Type (0, 1), BuildingBlock: UVAHIK_clean_linker_0, # of connection points: 2
#     Edge 125, Type (0, 1), BuildingBlock: UVAHIK_clean_linker_0, # of connection points: 2
#     Edge 126, Type (0, 1), BuildingBlock: UVAHIK_clean_linker_0, # of connection points: 2
#     Edge 127, Type (0, 1), BuildingBlock: UVAHIK_clean_linker_0, # of connection points: 2
#     Edge 128, Type (0, 1), BuildingBlock: UVAHIK_clean_linker_0, # of connection points: 2
#     Edge 129, Type (0, 1), BuildingBlock: UVAHIK_clean_linker_0, # of connection points: 2
#     Edge 130, Type (0, 1), BuildingBlock: UVAHIK_clean_linker_0, # of connection points: 2
#     Edge 131, Type (0, 1), BuildingBlock: UVAHIK_clean_linker_0, # of connection points: 2
#     Edge 132, Type (0, 1), BuildingBlock: UVAHIK_clean_linker_0, # of connection points: 2
#     Edge 133, Type (0, 1), BuildingBlock: UVAHIK_clean_linker_0, # of connection points: 2
#     Edge 134, Type (0, 1), BuildingBlock: UVAHIK_clean_linker_0, # of connection points: 2
#     Edge 135, Type (0, 1), BuildingBlock: UVAHIK_clean_linker_0, # of connection points: 2
# Relax obj value: 0.167
# Max RMSD: 0.269
# Mean RMSD: 0.157
data_MOF--net-gar--node1-GALJAG_clean_sbu_0--node2-BETDIP_clean_sbu_0--edge1-UVAHIK_clean_linker_0
_symmetry_space_group_name_H-M    P1
_symmetry_Int_Tables_number       1
_symmetry_cell_setting            triclinic
loop_
_symmetry_equiv_pos_as_xyz
'x, y, z'
_cell_length_a     79.93108
_cell_length_b     72.723246
_cell_length_c     70.085642
_cell_angle_alpha  96.479492
_cell_angle_beta   97.615637
_cell_angle_gamma 99.942163
loop_
_atom_site_label
_atom_site_type_symbol
_atom_site_fract_x
_atom_site_fract_y
_atom_site_fract_z
_atom_type_partial_charge
In0 In 0.02993 0.3039 0.38222 0.0
O1 O 0.04441 0.30576 0.35665 0.0
O2 O 0.05881 0.31525 0.3848 0.0
C3 C 1.00262 0.29761 0.35401 0.0
C4 C 0.02934 0.27052 0.39535 0.0
C5 C 0.02723 0.33151 0.41024 0.0
O6 O 0.01415 0.31226 0.35635 0.0
O7 O 1.00471 0.28633 0.36614 0.0
O8 O 0.03527 0.31851 0.41357 0.0
O9 O 0.02078 0.33082 0.39273 0.0
C10 C 0.05883 0.3127 0.36669 0.0
O11 O 0.01864 0.28088 0.39874 0.0
O12 O 0.04031 0.27693 0.38518 0.0
In13 In 0.0502 0.74926 0.70299 0.0
O14 O 0.04455 0.76509 0.67752 0.0
O15 O 0.04737 0.78023 0.70581 0.0
C16 C 0.05331 0.72351 0.67358 0.0
C17 C 0.08093 0.75554 0.72588 0.0
C18 C 0.02396 0.73822 0.72224 0.0
O19 O 0.06394 0.7388 0.67874 0.0
O20 O 0.04121 0.72104 0.68348 0.0
O21 O 0.03945 0.74063 0.73003 0.0
O22 O 0.02178 0.74115 0.70479 0.0
C23 C 0.04465 0.78052 0.68772 0.0
O24 O 0.07329 0.76869 0.72169 0.0
O25 O 0.07288 0.73917 0.71884 0.0
In26 In 0.53717 0.80638 0.87332 0.0
O27 O 0.54966 0.81541 0.84762 0.0
O28 O 0.566 0.81054 0.87216 0.0
C29 C 0.50717 0.80137 0.84912 0.0
C30 C 0.53295 0.77339 0.88773 0.0
C31 C 0.54041 0.83517 0.90219 0.0
O32 O 0.51736 0.79 0.84786 0.0
O33 O 0.51213 0.8151 0.8625 0.0
O34 O 0.54467 0.81969 0.90512 0.0
O35 O 0.53514 0.83629 0.88467 0.0
C36 C 0.56475 0.81509 0.85528 0.0
O37 O 0.52541 0.78657 0.89286 0.0
O38 O 0.54266 0.77681 0.87525 0.0
In39 In 0.55282 0.2512 0.1986 0.0
O40 O 0.55375 0.22111 0.18645 0.0
O41 O 0.5479 0.23969 0.16631 0.0
C42 C 0.55324 0.2838 0.18367 0.0
C43 C 0.52749 0.24288 0.21987 0.0
C44 C 0.58391 0.25581 0.22034 0.0
O45 O 0.56539 0.27482 0.1837 0.0
O46 O 0.54072 0.27634 0.19124 0.0
O47 O 0.57481 0.26836 0.22102 0.0
O48 O 0.57708 0.24083 0.20912 0.0
C49 C 0.55049 0.22348 0.16889 0.0
O50 O 0.54283 0.24952 0.22747 0.0
O51 O 0.52493 0.24041 0.20156 0.0
In52 In 0.06918 0.79665 0.1473 0.0
O53 O 0.07101 0.77613 0.12065 0.0
O54 O 0.05771 0.7651 0.14241 0.0
C55 C 0.07009 0.82825 0.12954 0.0
C56 C 0.04092 0.79554 0.1652 0.0
C57 C 0.10111 0.79785 0.16748 0.0
O58 O 0.06523 0.81182 0.12043 0.0
O59 O 0.07485 0.82878 0.14751 0.0
O60 O 0.08988 0.80541 0.17472 0.0
O61 O 0.09634 0.79004 0.15019 0.0
C62 C 0.06284 0.76181 0.12632 0.0
O63 O 0.05536 0.79384 0.17389 0.0
O64 O 0.04078 0.79778 0.14759 0.0
In65 In 0.51921 0.76546 0.4172 0.0
O66 O 0.53271 0.76369 0.39003 0.0
O67 O 0.5482 0.76807 0.41768 0.0
C68 C 0.48678 0.76331 0.39818 0.0
C69 C 0.51883 0.73469 0.43626 0.0
C70 C 0.52407 0.80114 0.43583 0.0
O71 O 0.4984 0.75748 0.38997 0.0
O72 O 0.4914 0.76976 0.41593 0.0
O73 O 0.52009 0.78681 0.44413 0.0
O74 O 0.52565 0.79746 0.41819 0.0
C75 C 0.54768 0.76613 0.39952 0.0
O76 O 0.5262 0.7511 0.4439 0.0
O77 O 0.51136 0.73374 0.41906 0.0
In78 In 0.5708 0.29962 0.64965 0.0
O79 O 0.57337 0.27863 0.62357 0.0
O80 O 0.56053 0.2678 0.64566 0.0
C81 C 0.5709 0.33137 0.63229 0.0
C82 C 0.54205 0.29962 0.66643 0.0
C83 C 0.60253 0.30059 0.67021 0.0
O84 O 0.56693 0.31496 0.62296 0.0
O85 O 0.57503 0.33184 0.65038 0.0
O86 O 0.58905 0.29922 0.67792 0.0
O87 O 0.60009 0.30196 0.65234 0.0
C88 C 0.56571 0.26432 0.62967 0.0
O89 O 0.557 0.30326 0.67618 0.0
O90 O 0.54164 0.29617 0.64828 0.0
In91 In 0.01911 0.26333 0.91831 0.0
O92 O 0.01841 0.24874 0.94589 0.0
O93 O 0.01846 0.23187 0.91922 0.0
C94 C 0.0237 0.29655 0.94217 0.0
C95 C 0.04697 0.26384 0.89965 0.0
C96 C 0.98865 0.26247 0.89505 0.0
O97 O 0.03468 0.29224 0.93198 0.0
O98 O 0.0105 0.28384 0.94088 0.0
O99 O 1.00062 0.27673 0.89865 0.0
O100 O 0.99221 0.24839 0.90257 0.0
C101 C 0.01838 0.23252 0.93725 0.0
O102 O 0.03198 0.26279 0.89063 0.0
O103 O 0.04776 0.26451 0.9178 0.0
In104 In 0.41667 0.0509 0.27344 0.0
O105 O 0.4409 0.05593 0.25672 0.0
O106 O 0.41743 0.04385 0.23941 0.0
C107 C 0.43524 0.05271 0.31118 0.0
C108 C 0.39999 0.08312 0.27408 0.0
C109 C 0.39875 0.01352 0.27178 0.0
O110 O 0.4422 0.0551 0.29622 0.0
O111 O 0.41903 0.05018 0.3074 0.0
O112 O 0.39135 0.02731 0.26929 0.0
O113 O 0.41492 0.01843 0.27465 0.0
C114 C 0.43338 0.04929 0.23969 0.0
O115 O 0.39234 0.06618 0.26904 0.0
O116 O 0.41599 0.08403 0.27872 0.0
In117 In 0.27286 0.15705 0.51158 0.0
O118 O 0.2696 0.18163 0.53321 0.0
O119 O 0.28594 0.16347 0.54339 0.0
C120 C 0.27164 0.17712 0.48085 0.0
C121 C 0.30029 0.13942 0.5107 0.0
C122 C 0.24108 0.136 0.51217 0.0
O123 O 0.27734 0.18452 0.49811 0.0
O124 O 0.26635 0.15955 0.47896 0.0
O125 O 0.25058 0.13156 0.50008 0.0
O126 O 0.24754 0.15084 0.52366 0.0
C127 C 0.27932 0.17774 0.54731 0.0
O128 O 0.28552 0.13089 0.51243 0.0
O129 O 0.30117 0.15668 0.50931 0.0
In130 In 0.15219 0.05065 0.81143 0.0
O131 O 0.13551 0.03005 0.7863 0.0
O132 O 0.13174 0.05836 0.78935 0.0
C133 C 0.13755 0.05247 0.84411 0.0
C134 C 0.17048 0.02277 0.80923 0.0
C135 C 0.17373 0.08388 0.81172 0.0
O136 O 0.12997 0.05521 0.828 0.0
O137 O 0.15242 0.04907 0.8437 0.0
O138 O 0.1716 0.07673 0.82699 0.0
O139 O 0.16508 0.07428 0.7964 0.0
C140 C 0.12766 0.04212 0.7796 0.0
O141 O 0.17481 0.03804 0.80263 0.0
O142 O 0.15692 0.02156 0.81675 0.0
In143 In 0.26696 0.88894 1.00039 0.0
O144 O 0.28526 0.8689 0.00742 0.0
O145 O 0.28374 0.89057 0.02971 0.0
C146 C 0.25704 0.86406 0.96784 0.0
C147 C 0.23682 0.8918 0.01266 0.0
C148 C 0.28573 0.92228 0.99576 0.0
O149 O 0.25803 0.85909 0.98458 0.0
O150 O 0.26054 0.88164 0.96758 0.0
O151 O 0.27563 0.92083 0.0081 0.0
O152 O 0.28617 0.90699 0.98558 0.0
C153 C 0.29041 0.87665 0.02469 0.0
O154 O 0.2406 0.897 0.99696 0.0
O155 O 0.24809 0.88472 0.02201 0.0
In156 In 0.31389 0.40308 0.05577 0.0
O157 O 0.31421 0.376 0.0697 0.0
O158 O 0.31649 0.40145 0.08861 0.0
C159 C 0.30718 0.38534 0.01859 0.0
C160 C 0.28638 0.42075 0.05589 0.0
C161 C 0.34715 0.42112 0.05889 0.0
O162 O 0.30278 0.37728 0.03267 0.0
O163 O 0.31465 0.40232 0.02321 0.0
O164 O 0.33575 0.42898 0.06541 0.0
O165 O 0.34187 0.40417 0.05134 0.0
C166 C 0.31567 0.38385 0.08698 0.0
O167 O 0.30123 0.42928 0.05455 0.0
O168 O 0.28546 0.40351 0.05729 0.0
In169 In 0.82375 0.16835 0.04183 0.0
O170 O 0.84937 0.15905 0.03915 0.0
O171 O 0.8312 0.15605 0.01354 0.0
C172 C 0.80273 0.13691 0.04727 0.0
C173 C 0.83892 0.1925 0.07384 0.0
C174 C 0.8042 0.19141 0.02668 0.0
O175 O 0.80182 0.14347 0.03134 0.0
O176 O 0.81435 0.14617 0.06052 0.0
O177 O 0.8192 0.19103 0.02312 0.0
O178 O 0.79887 0.17993 0.03773 0.0
C179 C 0.84571 0.15369 0.0211 0.0
O180 O 0.84028 0.19619 0.05689 0.0
O181 O 0.83051 0.17631 0.07463 0.0
In182 In 0.17089 0.51186 0.29691 0.0
O183 O 0.19533 0.49668 0.30101 0.0
O184 O 0.17172 0.47877 0.29146 0.0
C185 C 0.18879 0.54926 0.29858 0.0
C186 C 0.15233 0.50983 0.25911 0.0
C187 C 0.15419 0.51379 0.3307 0.0
O188 O 0.1962 0.53538 0.30055 0.0
O189 O 0.17262 0.54445 0.29633 0.0
O190 O 0.14648 0.50861 0.31349 0.0
O191 O 0.17028 0.51772 0.33113 0.0
C192 C 0.18773 0.47972 0.29599 0.0
O193 O 0.14558 0.50429 0.27332 0.0
O194 O 0.16836 0.51563 0.26364 0.0
In195 In 0.81552 0.90674 0.55851 0.0
O196 O 0.81122 0.87983 0.57282 0.0
O197 O 0.81911 0.90572 0.59156 0.0
C198 C 0.81124 0.88821 0.52183 0.0
C199 C 0.78685 0.92233 0.55932 0.0
C200 C 0.84811 0.92644 0.55981 0.0
O201 O 0.81305 0.88007 0.53674 0.0
O202 O 0.81156 0.90568 0.52539 0.0
O203 O 0.83502 0.93399 0.55811 0.0
O204 O 0.84484 0.90912 0.5613 0.0
C205 C 0.81499 0.88801 0.59009 0.0
O206 O 0.80171 0.93121 0.56675 0.0
O207 O 0.78647 0.90568 0.55171 0.0
In208 In 0.93761 0.02029 0.26809 0.0
O209 O 0.95959 0.03477 0.25392 0.0
O210 O 0.9444 1.00938 0.23862 0.0
C211 C 0.95418 0.02392 0.30489 0.0
C212 C 0.91937 0.04824 0.26535 0.0
C213 C 0.91822 0.98536 0.26393 0.0
O214 O 0.96075 0.01866 0.29028 0.0
O215 O 0.93926 0.02738 0.30093 0.0
O216 O 0.91402 0.99803 0.2544 0.0
O217 O 0.93232 0.99021 0.27533 0.0
C218 C 0.95664 0.0229 0.2388 0.0
O219 O 0.91233 0.03109 0.26316 0.0
O220 O 0.93552 0.05131 0.2693 0.0
In221 In 0.31754 0.6609 0.54334 0.0
O222 O 0.34423 0.65375 0.54393 0.0
O223 O 0.332 0.66004 0.51736 0.0
C224 C 0.30001 0.6258 0.5437 0.0
C225 C 0.32177 0.6809 0.57885 0.0
C226 C 0.29935 0.6839 0.52589 0.0
O227 O 0.31085 0.63458 0.55796 0.0
O228 O 0.2984 0.63456 0.52925 0.0
O229 O 0.31408 0.68975 0.53572 0.0
O230 O 0.29401 0.66636 0.52428 0.0
C231 C 0.34501 0.65543 0.52635 0.0
O232 O 0.33385 0.68127 0.56887 0.0
O233 O 0.30793 0.66987 0.57121 0.0
In234 In 0.43564 0.51509 0.76372 0.0
O235 O 0.41117 0.52731 0.76453 0.0
O236 O 0.43334 0.54493 0.75845 0.0
C237 C 0.41494 0.48104 0.76073 0.0
C238 C 0.45411 0.51563 0.73398 0.0
C239 C 0.45389 0.52068 0.79986 0.0
O240 O 0.41188 0.49313 0.74983 0.0
O241 O 0.42848 0.48607 0.77302 0.0
O242 O 0.45731 0.50998 0.78603 0.0
O243 O 0.44131 0.52856 0.79545 0.0
C244 C 0.41777 0.5432 0.76057 0.0
O245 O 0.45871 0.52674 0.74965 0.0
O246 O 0.44052 0.50379 0.73353 0.0
In247 In 0.67079 0.01156 0.79634 0.0
O248 O 0.695 0.99614 0.80084 0.0
O249 O 0.67132 0.97843 0.79082 0.0
C250 C 0.68882 0.0489 0.79802 0.0
C251 C 0.65236 1.00991 0.75858 0.0
C252 C 0.65408 0.01295 0.83009 0.0
O253 O 0.69617 0.03507 0.80056 0.0
O254 O 0.67265 0.04405 0.79515 0.0
O255 O 0.64656 1.00641 0.81303 0.0
O256 O 0.67001 0.01847 0.83037 0.0
C257 C 0.68729 0.97925 0.79562 0.0
O258 O 0.64532 1.00749 0.77348 0.0
O259 O 0.66857 0.01238 0.76243 0.0
In260 In 0.77355 0.65802 0.01525 0.0
O261 O 0.78655 0.63246 0.01932 0.0
O262 O 0.80133 0.6566 0.01124 0.0
C263 C 0.74142 0.63782 0.01582 0.0
C264 C 0.7804 0.68003 0.05032 0.0
C265 C 0.77238 0.67646 0.98335 0.0
O266 O 0.75132 0.6323 1.00472 0.0
O267 O 0.74769 0.65326 0.02639 0.0
O268 O 0.7784 0.68458 1.00033 0.0
O269 O 0.76681 0.65901 0.98237 0.0
C270 C 0.80088 0.64012 0.01541 0.0
O271 O 0.77096 0.68374 0.03588 0.0
O272 O 0.78658 0.66535 0.04704 0.0
In273 In 0.91577 0.55023 0.77348 0.0
O274 O 0.89186 0.56577 0.76688 0.0
O275 O 0.91483 0.58318 0.78038 0.0
C276 C 0.89726 0.51304 0.77134 0.0
C277 C 0.9327 0.54938 0.73994 0.0
C278 C 0.93451 0.55102 0.81096 0.0
O279 O 0.89073 0.52758 0.77421 0.0
O280 O 0.91279 0.51713 0.76899 0.0
O281 O 0.94143 0.5543 0.79616 0.0
O282 O 0.91831 0.54805 0.80715 0.0
C283 C 0.89917 0.58249 0.77381 0.0
O284 O 0.94021 0.55517 0.75717 0.0
O285 O 0.91664 0.54442 0.73938 0.0
In286 In 0.75912 0.38994 0.48599 0.0
O287 O 0.77173 0.36804 0.5002 0.0
O288 O 0.77777 0.39632 0.5144 0.0
C289 C 0.75159 0.36592 0.4525 0.0
C290 C 0.72888 0.39321 0.49805 0.0
C291 C 0.78036 0.42128 0.48053 0.0
O292 O 0.75581 0.36075 0.46874 0.0
O293 O 0.75078 0.38315 0.4532 0.0
O294 O 0.76864 0.42177 0.49087 0.0
O295 O 0.78116 0.40503 0.47267 0.0
C296 C 0.77997 0.37958 0.51455 0.0
O297 O 0.73342 0.39986 0.48331 0.0
O298 O 0.73935 0.38451 0.5064 0.0
In299 In 0.65244 0.55191 0.30868 0.0
O300 O 0.67544 0.53997 0.29996 0.0
O301 O 0.6572 0.52261 0.31289 0.0
C302 C 0.67318 0.58578 0.30927 0.0
C303 C 0.62832 0.54373 0.27655 0.0
C304 C 0.63784 0.55149 0.34138 0.0
O305 O 0.67193 0.578 0.32434 0.0
O306 O 0.664 0.57656 0.29408 0.0
O307 O 0.62973 0.55374 0.32536 0.0
O308 O 0.65323 0.54998 0.34092 0.0
C309 C 0.67099 0.52433 0.3058 0.0
O310 O 0.63727 0.53211 0.28218 0.0
O311 O 0.63107 0.5593 0.28754 0.0
Tb312 Tb 0.02484 0.02502 0.0307 0.0
Tb313 Tb 0.06177 0.04203 0.04735 0.0
C314 C 0.99338 0.01144 0.02324 0.0
C315 C 0.97958 0.01718 0.01075 0.0
C316 C 0.98294 0.03416 1.00305 0.0
C317 C 0.96961 0.04094 0.99299 0.0
C318 C 0.95262 0.03076 0.99023 0.0
C319 C 0.94949 0.01315 0.99702 0.0
C320 C 0.96289 1.00646 0.00732 0.0
C321 C 0.04517 0.03129 1.00465 0.0
C322 C 0.03849 0.06819 0.02993 0.0
C323 C 0.09383 0.0484 0.05605 0.0
C324 C 0.1057 0.03509 0.05622 0.0
C325 C 0.10125 0.01795 0.04369 0.0
C326 C 0.11102 1.004 0.04564 0.0
C327 C 0.12538 1.00681 0.06026 0.0
C328 C 0.13019 0.02421 0.07244 0.0
C329 C 0.12034 0.03824 0.07047 0.0
C330 C 0.03892 0.04677 0.07059 0.0
C331 C 0.04848 0.9981 0.0476 0.0
O332 O 1.00041 0.02379 0.03858 0.0
O333 O 1.00483 1.0047 0.01415 0.0
O334 O 0.04909 0.02551 0.02064 0.0
O335 O 0.02912 0.03254 1.0023 0.0
O336 O 0.0251 0.05541 0.0321 0.0
O337 O 0.05435 0.06489 0.03275 0.0
O338 O 0.08587 0.05018 0.03892 0.0
O339 O 0.08341 0.04659 0.06892 0.0
O340 O 0.0391 0.03238 0.05899 0.0
O341 O 0.05253 0.05924 0.07013 0.0
O342 O 0.06163 0.01243 0.05054 0.0
O343 O 0.03278 0.9999 0.04041 0.0
H344 H 0.99581 0.04257 1.0055 0.0
H345 H 0.97255 0.05468 0.98833 0.0
H346 H 0.93662 1.00481 0.9949 0.0
H347 H 0.96014 0.99323 0.01306 0.0
H348 H 0.08985 0.01503 0.03281 0.0
H349 H 0.10718 0.99087 0.03581 0.0
H350 H 0.14121 0.02673 0.08384 0.0
H351 H 0.12382 0.05128 0.08046 0.0
Tb352 Tb 0.29559 0.77435 0.26407 0.0
Tb353 Tb 0.29205 0.788 0.30326 0.0
C354 C 0.29557 0.76923 0.228 0.0
C355 C 0.3048 0.77871 0.21383 0.0
C356 C 0.30133 0.79585 0.20844 0.0
C357 C 0.30943 0.80402 0.19416 0.0
C358 C 0.32124 0.79529 0.18501 0.0
C359 C 0.32506 0.77841 0.19083 0.0
C360 C 0.31685 0.77016 0.20502 0.0
C361 C 0.32081 0.76966 0.29048 0.0
C362 C 0.31139 0.81806 0.281 0.0
C363 C 0.29184 0.79418 0.33921 0.0
C364 C 0.28066 0.78797 0.35328 0.0
C365 C 0.27861 0.76952 0.35791 0.0
C366 C 0.26931 0.76454 0.37266 0.0
C367 C 0.26181 0.77788 0.38302 0.0
C368 C 0.26314 0.79605 0.37764 0.0
C369 C 0.27256 0.80106 0.36299 0.0
C370 C 0.2666 0.79228 0.27678 0.0
C371 C 0.27657 0.74403 0.28654 0.0
O372 O 0.28477 0.77797 0.23616 0.0
O373 O 0.30475 0.76138 0.24038 0.0
O374 O 0.31393 0.784 0.29028 0.0
O375 O 0.31414 0.75783 0.27508 0.0
O376 O 0.30522 0.8054 0.26529 0.0
O377 O 0.30997 0.81301 0.29838 0.0
O378 O 0.30002 0.78195 0.33121 0.0
O379 O 0.2856 0.80427 0.32676 0.0
O380 O 0.27369 0.77814 0.27716 0.0
O381 O 0.27307 0.80409 0.29221 0.0
O382 O 0.28201 0.75704 0.30214 0.0
O383 O 0.27865 0.74862 0.2691 0.0
H384 H 0.29208 0.80279 0.21491 0.0
H385 H 0.30589 0.81682 0.1898 0.0
H386 H 0.33421 0.77142 0.18424 0.0
H387 H 0.31974 0.75692 0.2089 0.0
H388 H 0.28464 0.75908 0.35064 0.0
H389 H 0.26882 0.75051 0.3766 0.0
H390 H 0.25738 0.80658 0.38516 0.0
H391 H 0.27391 0.81537 0.35961 0.0
Tb392 Tb 0.56322 0.03573 0.52964 0.0
Tb393 Tb 0.52531 0.02846 0.54019 0.0
C394 C 0.59531 0.03943 0.53118 0.0
C395 C 0.60981 0.03002 0.53673 0.0
C396 C 0.60756 0.01282 0.54427 0.0
C397 C 0.62149 1.00354 0.54773 0.0
C398 C 0.6378 0.01123 0.54349 0.0
C399 C 0.63996 0.02869 0.5364 0.0
C400 C 0.62613 0.03795 0.53307 0.0
C401 C 0.53955 0.03981 0.49933 0.0
C402 C 0.5413 0.99405 0.52412 0.0
C403 C 0.49322 0.02458 0.5389 0.0
C404 C 0.47845 0.0335 0.53313 0.0
C405 C 0.47997 0.0495 0.52352 0.0
C406 C 0.46569 0.05805 0.51924 0.0
C407 C 0.44968 0.0508 0.52457 0.0
C408 C 0.44837 0.03472 0.53415 0.0
C409 C 0.46256 0.02618 0.53831 0.0
C410 C 0.54892 0.02408 0.57041 0.0
C411 C 0.54716 0.07024 0.5453 0.0
O412 O 0.58799 0.04674 0.54514 0.0
O413 O 0.58413 0.03085 0.51608 0.0
O414 O 0.53747 0.03587 0.51615 0.0
O415 O 0.55604 0.04203 0.49966 0.0
O416 O 0.55674 1.00505 0.52688 0.0
O417 O 0.52712 1.00048 0.52685 0.0
O418 O 0.5005 0.01702 0.52505 0.0
O419 O 0.50445 0.03367 0.55373 0.0
O420 O 0.55104 0.02824 0.55367 0.0
O421 O 0.53243 0.02175 0.57001 0.0
O422 O 0.53179 0.05917 0.54316 0.0
O423 O 0.56132 0.06393 0.5422 0.0
H424 H 0.59501 1.0064 0.54707 0.0
H425 H 0.61936 0.99008 0.55312 0.0
H426 H 0.65236 0.03518 0.53327 0.0
H427 H 0.62812 0.0512 0.52723 0.0
H428 H 0.49219 0.05544 0.51952 0.0
H429 H 0.46719 0.0703 0.51171 0.0
H430 H 0.43646 0.02891 0.5389 0.0
H431 H 0.46117 0.01397 0.54592 0.0
Tb432 Tb 0.27553 0.28227 0.77894 0.0
Tb433 Tb 0.31381 0.2805 0.78777 0.0
C434 C 0.24338 0.27785 0.77744 0.0
C435 C 0.22942 0.27554 0.7894 0.0
C436 C 0.21447 0.26209 0.78213 0.0
C437 C 0.20022 0.26067 0.79187 0.0
C438 C 0.20054 0.27272 0.80915 0.0
C439 C 0.21579 0.28577 0.81681 0.0
C440 C 0.2301 0.2872 0.80702 0.0
C441 C 0.29713 0.31117 0.7715 0.0
C442 C 0.29617 0.29467 0.82214 0.0
C443 C 0.34596 0.28467 0.78919 0.0
C444 C 0.35957 0.28366 0.77691 0.0
C445 C 0.35953 0.29173 0.75959 0.0
C446 C 0.37365 0.29235 0.74953 0.0
C447 C 0.38808 0.28498 0.75662 0.0
C448 C 0.38773 0.27636 0.77361 0.0
C449 C 0.37367 0.27575 0.78361 0.0
C450 C 0.29205 0.2518 0.79535 0.0
C451 C 0.29323 0.26844 0.74425 0.0
O452 O 0.25161 0.26387 0.77508 0.0
O453 O 0.25358 0.29436 0.77959 0.0
O454 O 0.29914 0.30208 0.78556 0.0
O455 O 0.2819 0.30507 0.76158 0.0
O456 O 0.28114 0.28761 0.81098 0.0
O457 O 0.31091 0.29557 0.81529 0.0
O458 O 0.33733 0.29832 0.78762 0.0
O459 O 0.33619 0.26881 0.79116 0.0
O460 O 0.29021 0.26073 0.78113 0.0
O461 O 0.30714 0.25812 0.80557 0.0
O462 O 0.30826 0.2735 0.7559 0.0
O463 O 0.27841 0.26911 0.75053 0.0
H464 H 0.21365 0.25292 0.7686 0.0
H465 H 0.18887 0.25019 0.78573 0.0
H466 H 0.21649 0.29533 0.83004 0.0
H467 H 0.2415 0.29768 0.81297 0.0
H468 H 0.34883 0.29797 0.75409 0.0
H469 H 0.37349 0.29918 0.73657 0.0
H470 H 0.39843 0.27021 0.77931 0.0
H471 H 0.374 0.26947 0.79693 0.0
Tb472 Tb 0.0486 0.04859 0.54492 0.0
Tb473 Tb 0.0475 1.00519 0.53588 0.0
C474 C 0.05965 0.08317 0.54676 0.0
C475 C 0.05461 0.09794 0.53602 0.0
C476 C 0.06696 0.11387 0.53518 0.0
C477 C 0.06329 0.12671 0.52262 0.0
C478 C 0.0472 0.12376 0.51075 0.0
C479 C 0.03458 0.10814 0.51218 0.0
C480 C 0.03832 0.09521 0.52465 0.0
C481 C 0.01741 0.02889 0.54595 0.0
C482 C 0.03379 0.02633 0.50239 0.0
C483 C 0.04413 0.97029 0.53559 0.0
C484 C 0.04252 0.95762 0.55036 0.0
C485 C 0.03491 0.96204 0.56683 0.0
C486 C 0.035 0.95059 0.58158 0.0
C487 C 0.04295 0.93482 0.58014 0.0
C488 C 0.05032 0.93035 0.56351 0.0
C489 C 0.05007 0.94165 0.54873 0.0
C490 C 0.07482 0.02807 0.52903 0.0
C491 C 0.05637 0.0263 0.57973 0.0
O492 O 0.06535 0.07022 0.53623 0.0
O493 O 0.04902 0.07608 0.558 0.0
O494 O 0.0309 0.02329 0.54277 0.0
O495 O 0.02124 0.04719 0.54851 0.0
O496 O 0.04085 0.04265 0.51335 0.0
O497 O 0.03321 1.00983 0.50889 0.0
O498 O 0.03117 0.97872 0.53114 0.0
O499 O 0.05906 0.98165 0.53769 0.0
O500 O 0.06673 0.0303 0.54311 0.0
O501 O 0.06796 0.01208 0.51845 0.0
O502 O 0.05109 1.01022 0.56776 0.0
O503 O 0.05816 0.043 0.57362 0.0
H504 H 0.07965 0.11603 0.54372 0.0
H505 H 0.07316 0.13875 0.5219 0.0
H506 H 0.02213 0.10551 0.50306 0.0
H507 H 0.02875 0.08275 0.52491 0.0
H508 H 0.02924 0.9745 0.56848 0.0
H509 H 0.02931 0.95434 0.59431 0.0
H510 H 0.05632 0.91811 0.56195 0.0
H511 H 0.0561 0.93814 0.53619 0.0
Tb512 Tb 0.2929 0.76402 0.75891 0.0
Tb513 Tb 0.30079 0.8037 0.78104 0.0
C514 C 0.29238 0.73472 0.73585 0.0
C515 C 0.30327 0.72047 0.73504 0.0
C516 C 0.29866 0.70463 0.72075 0.0
C517 C 0.30841 0.69041 0.7207 0.0
C518 C 0.32298 0.69197 0.73488 0.0
C519 C 0.32773 0.70808 0.74893 0.0
C520 C 0.31787 0.72215 0.74909 0.0
C521 C 0.29002 0.76636 0.79602 0.0
C522 C 0.33151 0.78361 0.77789 0.0
C523 C 0.301 0.83325 0.80347 0.0
C524 C 0.28998 0.84743 0.80378 0.0
C525 C 0.28823 0.85727 0.82155 0.0
C526 C 0.27792 0.87096 0.82197 0.0
C527 C 0.26931 0.87506 0.80459 0.0
C528 C 0.2709 0.86494 0.78683 0.0
C529 C 0.28106 0.85114 0.78644 0.0
C530 C 0.30292 0.8009 0.74361 0.0
C531 C 0.26207 0.78385 0.76302 0.0
O532 O 0.29953 0.75163 0.73316 0.0
O533 O 0.28385 0.73508 0.75052 0.0
O534 O 0.30116 0.77627 0.78852 0.0
O535 O 0.28084 0.75342 0.78275 0.0
O536 O 0.32121 0.7708 0.76451 0.0
O537 O 0.32549 0.79611 0.78893 0.0
O538 O 0.29385 0.81645 0.80646 0.0
O539 O 0.30997 0.83263 0.78916 0.0
O540 O 0.29203 0.79138 0.75167 0.0
O541 O 0.31284 0.81355 0.75663 0.0
O542 O 0.27256 0.79693 0.77595 0.0
O543 O 0.26789 0.77128 0.75181 0.0
H544 H 0.28737 0.70312 0.70985 0.0
H545 H 0.30454 0.67818 0.70965 0.0
H546 H 0.33874 0.70952 0.76018 0.0
H547 H 0.32141 0.73414 0.76044 0.0
H548 H 0.29493 0.85446 0.83508 0.0
H549 H 0.27695 0.87861 0.83585 0.0
H550 H 0.2642 0.86764 0.77325 0.0
H551 H 0.28203 0.84345 0.77258 0.0
Tb552 Tb 0.52792 0.02897 0.02099 0.0
Tb553 Tb 0.55969 0.03028 0.04904 0.0
C554 C 0.49876 0.01958 1.00058 0.0
C555 C 0.48095 0.02179 1.0015 0.0
C556 C 0.4733 0.01906 0.01813 0.0
C557 C 0.45592 0.01985 0.01792 0.0
C558 C 0.44597 0.02342 1.00111 0.0
C559 C 0.45394 0.02697 0.98483 0.0
C560 C 0.47125 0.02611 0.98503 0.0
C561 C 0.54518 0.06309 0.03483 0.0
C562 C 0.5253 0.03105 0.0675 0.0
C563 C 0.58907 0.03951 0.069 0.0
C564 C 0.60697 0.03882 0.06653 0.0
C565 C 0.6144 0.04688 0.05161 0.0
C566 C 0.63179 0.04737 0.05055 0.0
C567 C 0.64206 0.03968 0.06428 0.0
C568 C 0.63436 0.03095 0.0787 0.0
C569 C 0.61701 0.03061 0.07986 0.0
C570 C 0.54225 0.99619 0.03521 0.0
C571 C 0.56235 0.02838 1.00265 0.0
O572 O 0.5053 1.00883 0.01222 0.0
O573 O 0.50963 0.03494 0.99946 0.0
O574 O 0.54283 0.04915 0.04385 0.0
O575 O 0.53626 0.0586 0.0176 0.0
O576 O 0.51709 0.0275 0.04912 0.0
O577 O 0.54243 0.03439 0.07083 0.0
O578 O 0.58152 0.0511 0.05944 0.0
O579 O 0.57893 0.02328 0.06877 0.0
O580 O 0.54479 1.01009 0.02616 0.0
O581 O 0.55093 1.00077 0.05258 0.0
O582 O 0.57055 0.03233 0.021 0.0
O583 O 0.54524 0.02446 0.99937 0.0
H584 H 0.48058 0.0158 0.03107 0.0
H585 H 0.45013 0.01686 0.03063 0.0
H586 H 0.44668 0.03003 0.97177 0.0
H587 H 0.47699 0.02841 0.97212 0.0
H588 H 0.60693 0.05324 0.04106 0.0
H589 H 0.63729 0.05445 0.03941 0.0
H590 H 0.64181 0.02461 0.0893 0.0
H591 H 0.61149 0.02423 0.09141 0.0
Tb592 Tb 0.27773 0.26863 0.27622 0.0
Tb593 Tb 0.31019 0.29445 0.2932 0.0
C594 C 0.24718 0.25163 0.27228 0.0
C595 C 0.23229 0.25842 0.27862 0.0
C596 C 0.23466 0.27189 0.29523 0.0
C597 C 0.2209 0.27944 0.30069 0.0
C598 C 0.20438 0.27353 0.28982 0.0
C599 C 0.20198 0.25991 0.27324 0.0
C600 C 0.21588 0.25245 0.26765 0.0
C601 C 0.29553 0.28239 0.25035 0.0
C602 C 0.27758 0.31369 0.28945 0.0
C603 C 0.34084 0.31129 0.29747 0.0
C604 C 0.35634 0.30383 0.29426 0.0
C605 C 0.35533 0.28897 0.27927 0.0
C606 C 0.36945 0.28057 0.2772 0.0
C607 C 0.38509 0.28707 0.2898 0.0
C608 C 0.3862 0.30222 0.30462 0.0
C609 C 0.37187 0.31047 0.30689 0.0
C610 C 0.29224 0.28069 0.31901 0.0
C611 C 0.31033 0.24927 0.28018 0.0
O612 O 0.25909 0.24993 0.28634 0.0
O613 O 0.25362 0.25994 0.25855 0.0
O614 O 0.29358 0.29101 0.2663 0.0
O615 O 0.28652 0.26539 0.24798 0.0
O616 O 0.26885 0.29592 0.28485 0.0
O617 O 0.29467 0.31685 0.2924 0.0
O618 O 0.32971 0.31074 0.28183 0.0
O619 O 0.33348 0.30542 0.31185 0.0
O620 O 0.29433 0.27212 0.30311 0.0
O621 O 0.30124 0.2977 0.32138 0.0
O622 O 0.31907 0.26694 0.2857 0.0
O623 O 0.29327 0.24621 0.27624 0.0
H624 H 0.24724 0.27679 0.30392 0.0
H625 H 0.22328 0.29015 0.31331 0.0
H626 H 0.18936 0.25493 0.26469 0.0
H627 H 0.21385 0.24214 0.25473 0.0
H628 H 0.3435 0.28356 0.2693 0.0
H629 H 0.36795 0.2687 0.26588 0.0
H630 H 0.39812 0.30776 0.31441 0.0
H631 H 0.37286 0.32188 0.31859 0.0
Tb632 Tb 0.54268 0.55067 0.04238 0.0
Tb633 Tb 0.54492 0.51052 0.03273 0.0
C634 C 0.54511 0.5856 0.0428 0.0
C635 C 0.54198 0.59802 0.02793 0.0
C636 C 0.55377 0.60226 0.01512 0.0
C637 C 0.55062 0.614 1.00114 0.0
C638 C 0.53562 0.62174 0.99965 0.0
C639 C 0.52383 0.61742 0.01244 0.0
C640 C 0.52702 0.60578 0.02649 0.0
C641 C 0.51593 0.52655 0.0485 0.0
C642 C 0.53186 0.53019 0.99844 0.0
C643 C 0.54222 0.47551 0.0318 0.0
C644 C 0.54415 0.46265 0.04633 0.0
C645 C 0.53154 0.44641 0.04518 0.0
C646 C 0.53298 0.43402 0.05888 0.0
C647 C 0.54712 0.43764 0.07389 0.0
C648 C 0.55971 0.45399 0.0751 0.0
C649 C 0.55819 0.46646 0.06149 0.0
C650 C 0.57159 0.53474 0.02651 0.0
C651 C 0.55542 0.53104 0.07672 0.0
O652 O 0.55811 0.57695 0.0419 0.0
O653 O 0.53152 0.57457 0.0465 0.0
O654 O 0.52406 0.52499 0.03432 0.0
O655 O 0.52223 0.54254 0.05931 0.0
O656 O 0.53676 0.54619 0.01048 0.0
O657 O 0.53214 0.5137 1.00448 0.0
O658 O 0.52921 0.48416 0.03227 0.0
O659 O 0.55621 0.48668 0.0293 0.0
O660 O 0.56354 0.53619 0.04077 0.0
O661 O 0.56526 0.51876 0.01568 0.0
O662 O 0.55029 0.51501 0.06472 0.0
O663 O 0.55561 0.54753 0.07052 0.0
H664 H 0.56549 0.59662 0.0159 0.0
H665 H 0.56013 0.61731 0.99177 0.0
H666 H 0.51205 0.62297 0.01156 0.0
H667 H 0.51774 0.60281 0.03622 0.0
H668 H 0.52059 0.44328 0.03364 0.0
H669 H 0.52319 0.42143 0.0575 0.0
H670 H 0.57064 0.45718 0.08666 0.0
H671 H 0.56799 0.47905 0.06283 0.0
Tb672 Tb 0.79579 0.26877 0.24553 0.0
Tb673 Tb 0.80325 0.30769 0.26934 0.0
C674 C 0.7967 0.2397 0.22287 0.0
C675 C 0.80766 0.22549 0.22394 0.0
C676 C 0.80519 0.21025 0.20908 0.0
C677 C 0.81496 0.19613 0.21072 0.0
C678 C 0.82739 0.19713 0.22723 0.0
C679 C 0.83001 0.21268 0.24189 0.0
C680 C 0.82019 0.22669 0.24028 0.0
C681 C 0.79053 0.26983 0.28199 0.0
C682 C 0.83372 0.28709 0.26774 0.0
C683 C 0.80254 0.33623 0.29281 0.0
C684 C 0.79127 0.35012 0.29363 0.0
C685 C 0.78908 0.359 0.31168 0.0
C686 C 0.77848 0.37238 0.31262 0.0
C687 C 0.77002 0.3771 0.29548 0.0
C688 C 0.772 0.36789 0.27743 0.0
C689 C 0.78246 0.35441 0.27651 0.0
C690 C 0.80905 0.30653 0.2331 0.0
C691 C 0.76532 0.28939 0.24722 0.0
O692 O 0.80444 0.25662 0.22097 0.0
O693 O 0.78654 0.24002 0.23601 0.0
O694 O 0.80245 0.27971 0.27561 0.0
O695 O 0.78151 0.25778 0.26782 0.0
O696 O 0.82394 0.27506 0.25329 0.0
O697 O 0.82727 0.29925 0.27872 0.0
O698 O 0.79545 0.31911 0.29479 0.0
O699 O 0.81185 0.33654 0.27878 0.0
O700 O 0.79686 0.29677 0.23922 0.0
O701 O 0.81788 0.3186 0.24742 0.0
O702 O 0.77519 0.30159 0.26146 0.0
O703 O 0.77164 0.27712 0.23621 0.0
H704 H 0.79555 0.20914 0.19638 0.0
H705 H 0.81277 0.18441 0.19912 0.0
H706 H 0.83928 0.21373 0.25491 0.0
H707 H 0.82213 0.23825 0.25202 0.0
H708 H 0.79566 0.35569 0.32503 0.0
H709 H 0.77721 0.37932 0.32672 0.0
H710 H 0.7654 0.37105 0.26402 0.0
H711 H 0.78375 0.34741 0.26243 0.0
Tb712 Tb 0.02837 0.53209 0.52185 0.0
Tb713 Tb 0.0602 0.53327 0.54999 0.0
C714 C 0.9994 0.52249 0.50102 0.0
C715 C 0.98129 0.52402 0.50074 0.0
C716 C 0.97276 0.52093 0.51669 0.0
C717 C 0.95502 0.52034 0.51499 0.0
C718 C 0.94562 0.5228 0.49732 0.0
C719 C 0.95442 0.52688 0.48178 0.0
C720 C 0.97208 0.52743 0.48348 0.0
C721 C 0.04587 0.56616 0.53568 0.0
C722 C 0.0257 0.53432 0.56828 0.0
C723 C 0.08959 0.54253 0.56999 0.0
C724 C 0.10708 0.54026 0.56761 0.0
C725 C 0.11036 0.53021 0.55066 0.0
C726 C 0.12721 0.52868 0.54845 0.0
C727 C 0.14099 0.53709 0.56321 0.0
C728 C 0.13751 0.54688 0.58029 0.0
C729 C 0.12069 0.54845 0.58244 0.0
C730 C 0.04245 0.49935 0.53652 0.0
C731 C 0.06278 0.5309 0.5035 0.0
O732 O 1.00576 0.51195 0.51302 0.0
O733 O 0.01015 0.53803 0.50019 0.0
O734 O 0.04346 0.55223 0.54469 0.0
O735 O 0.03678 0.56175 0.51853 0.0
O736 O 0.01748 0.53059 0.54991 0.0
O737 O 0.04284 0.5379 0.57161 0.0
O738 O 0.08279 0.55348 0.55884 0.0
O739 O 0.07883 0.52703 0.57091 0.0
O740 O 0.04507 0.51308 0.52727 0.0
O741 O 0.05141 0.50385 0.55374 0.0
O742 O 0.071 0.53466 0.52185 0.0
O743 O 0.04567 0.52741 0.50023 0.0
H744 H 0.97965 0.51835 0.53021 0.0
H745 H 0.94857 0.51705 0.52717 0.0
H746 H 0.94757 0.52912 0.46809 0.0
H747 H 0.97848 0.52995 0.47105 0.0
H748 H 0.09993 0.52369 0.53911 0.0
H749 H 0.12947 0.52096 0.53519 0.0
H750 H 0.14785 0.55381 0.59177 0.0
H751 H 0.11833 0.55627 0.5956 0.0
Tb752 Tb 0.77759 0.78716 0.2812 0.0
Tb753 Tb 0.81518 0.78303 0.29014 0.0
C754 C 0.74554 0.78424 0.27973 0.0
C755 C 0.73159 0.78176 0.29172 0.0
C756 C 0.71741 0.76703 0.28537 0.0
C757 C 0.70313 0.76526 0.29504 0.0
C758 C 0.7026 0.77825 0.31132 0.0
C759 C 0.71707 0.79267 0.3181 0.0
C760 C 0.73142 0.79444 0.30837 0.0
C761 C 0.8004 0.8151 0.27402 0.0
C762 C 0.79811 0.7978 0.32472 0.0
C763 C 0.84712 0.78503 0.29144 0.0
C764 C 0.86046 0.78427 0.27872 0.0
C765 C 0.86265 0.79634 0.26454 0.0
C766 C 0.87656 0.79662 0.25422 0.0
C767 C 0.88859 0.78488 0.2579 0.0
C768 C 0.88598 0.77242 0.27167 0.0
C769 C 0.87212 0.77217 0.28196 0.0
C770 C 0.79211 0.75522 0.29721 0.0
C771 C 0.79482 0.77274 0.24642 0.0
O772 O 0.75309 0.76987 0.27631 0.0
O773 O 0.75636 0.80041 0.2827 0.0
O774 O 0.80191 0.80581 0.28802 0.0
O775 O 0.78504 0.80986 0.26417 0.0
O776 O 0.78304 0.79216 0.31322 0.0
O777 O 0.81286 0.79751 0.31814 0.0
O778 O 0.83962 0.79968 0.29192 0.0
O779 O 0.83636 0.76933 0.29173 0.0
O780 O 0.79089 0.76445 0.28315 0.0
O781 O 0.80728 0.76063 0.30747 0.0
O782 O 0.8098 0.77706 0.2582 0.0
O783 O 0.78008 0.77404 0.25263 0.0
H784 H 0.71722 0.75706 0.27258 0.0
H785 H 0.6924 0.75376 0.28963 0.0
H786 H 0.7171 0.80299 0.33052 0.0
H787 H 0.74216 0.80596 0.31363 0.0
H788 H 0.85389 0.80588 0.26173 0.0
H789 H 0.87821 0.80649 0.24384 0.0
H790 H 0.89475 0.76292 0.27463 0.0
H791 H 0.87074 0.76276 0.29283 0.0
Tb792 Tb 0.797 0.27339 0.76518 0.0
Tb793 Tb 0.7928 0.28747 0.8069 0.0
C794 C 0.79798 0.26715 0.72945 0.0
C795 C 0.80162 0.27816 0.71373 0.0
C796 C 0.79828 0.29648 0.71388 0.0
C797 C 0.80214 0.30671 0.69878 0.0
C798 C 0.80948 0.29878 0.6834 0.0
C799 C 0.81307 0.28054 0.6836 0.0
C800 C 0.80914 0.27032 0.69862 0.0
C801 C 0.82028 0.26773 0.79327 0.0
C802 C 0.81033 0.31765 0.78205 0.0
C803 C 0.79731 0.29492 0.84312 0.0
C804 C 0.78633 0.29108 0.8579 0.0
C805 C 0.79144 0.30044 0.87688 0.0
C806 C 0.78147 0.29622 0.89129 0.0
C807 C 0.76624 0.28253 0.8869 0.0
C808 C 0.76082 0.27373 0.86762 0.0
C809 C 0.77078 0.27801 0.8532 0.0
C810 C 0.76424 0.28795 0.78268 0.0
C811 C 0.77724 0.24394 0.78855 0.0
O812 O 0.78383 0.26849 0.73664 0.0
O813 O 0.81114 0.26769 0.7429 0.0
O814 O 0.81373 0.28225 0.79245 0.0
O815 O 0.81399 0.25584 0.77775 0.0
O816 O 0.80618 0.30436 0.76653 0.0
O817 O 0.80747 0.31362 0.79952 0.0
O818 O 0.80161 0.2801 0.83391 0.0
O819 O 0.79262 0.30661 0.83145 0.0
O820 O 0.77797 0.28322 0.779 0.0
O821 O 0.76624 0.2926 0.80132 0.0
O822 O 0.78301 0.25647 0.80456 0.0
O823 O 0.77958 0.24844 0.77108 0.0
H824 H 0.79263 0.30283 0.72558 0.0
H825 H 0.79905 0.32064 0.69895 0.0
H826 H 0.81898 0.27415 0.67217 0.0
H827 H 0.812 0.25628 0.69847 0.0
H828 H 0.80337 0.31065 0.88066 0.0
H829 H 0.78615 0.30302 0.90606 0.0
H830 H 0.74912 0.2632 0.86381 0.0
H831 H 0.76656 0.27084 0.83849 0.0
Tb832 Tb 0.77653 0.7676 0.77636 0.0
Tb833 Tb 0.80854 0.79298 0.79446 0.0
C834 C 0.74591 0.75039 0.76995 0.0
C835 C 0.72962 0.75703 0.76635 0.0
C836 C 0.71523 0.74803 0.77338 0.0
C837 C 0.70055 0.75603 0.77307 0.0
C838 C 0.70008 0.77321 0.76576 0.0
C839 C 0.71423 0.78168 0.7578 0.0
C840 C 0.72891 0.77367 0.75813 0.0
C841 C 0.79441 0.78317 0.75132 0.0
C842 C 0.77595 0.8125 0.7899 0.0
C843 C 0.83926 0.80978 0.79982 0.0
C844 C 0.85471 0.80226 0.79639 0.0
C845 C 0.85386 0.78852 0.78035 0.0
C846 C 0.86777 0.77981 0.77802 0.0
C847 C 0.88304 0.78485 0.79147 0.0
C848 C 0.88401 0.7989 0.80737 0.0
C849 C 0.8699 0.80748 0.80985 0.0
C850 C 0.79051 0.77778 0.81947 0.0
C851 C 0.80903 0.74817 0.78106 0.0
O852 O 0.75457 0.7561 0.78743 0.0
O853 O 0.7557 0.75191 0.75643 0.0
O854 O 0.79223 0.7909 0.76756 0.0
O855 O 0.78563 0.76608 0.7482 0.0
O856 O 0.76726 0.79492 0.78358 0.0
O857 O 0.79299 0.81545 0.79444 0.0
O858 O 0.82834 0.81001 0.78422 0.0
O859 O 0.8316 0.80331 0.81375 0.0
O860 O 0.7928 0.76975 0.80336 0.0
O861 O 0.79916 0.79498 0.82237 0.0
O862 O 0.8177 0.76594 0.78563 0.0
O863 O 0.79194 0.74509 0.7783 0.0
H864 H 0.71565 0.73528 0.77995 0.0
H865 H 0.68997 0.74928 0.77957 0.0
H866 H 0.71417 0.79482 0.75192 0.0
H867 H 0.73995 0.78092 0.75272 0.0
H868 H 0.84228 0.78413 0.76975 0.0
H869 H 0.86635 0.76878 0.76584 0.0
H870 H 0.89566 0.8033 0.81786 0.0
H871 H 0.87076 0.81798 0.82238 0.0
Tb872 Tb 0.52641 0.52377 0.52568 0.0
Tb873 Tb 0.56103 0.54375 0.54673 0.0
C874 C 0.49477 0.51604 0.51335 0.0
C875 C 0.48319 0.52798 0.50549 0.0
C876 C 0.48503 0.54682 0.51391 0.0
C877 C 0.4752 0.55869 0.50551 0.0
C878 C 0.46316 0.55194 0.48865 0.0
C879 C 0.46099 0.53298 0.48041 0.0
C880 C 0.47107 0.52111 0.48871 0.0
C881 C 0.55196 0.52243 0.50579 0.0
C882 C 0.53882 0.56876 0.52611 0.0
C883 C 0.59274 0.55058 0.55798 0.0
C884 C 0.6043 0.53689 0.55807 0.0
C885 C 0.60159 0.52205 0.54265 0.0
C886 C 0.61038 0.50722 0.54393 0.0
C887 C 0.62204 0.50685 0.56064 0.0
C888 C 0.62533 0.52205 0.57577 0.0
C889 C 0.6164 0.53695 0.57454 0.0
C890 C 0.53564 0.54523 0.56676 0.0
C891 C 0.54864 0.49894 0.54591 0.0
O892 O 0.50122 0.52054 0.53181 0.0
O893 O 0.50635 0.51244 0.50265 0.0
O894 O 0.54981 0.53618 0.51715 0.0
O895 O 0.53883 0.50878 0.50439 0.0
O896 O 0.52631 0.55365 0.52267 0.0
O897 O 0.55445 0.56819 0.53468 0.0
O898 O 0.5858 0.5533 0.54075 0.0
O899 O 0.58149 0.54839 0.56991 0.0
O900 O 0.53763 0.53141 0.55534 0.0
O901 O 0.54897 0.55868 0.56829 0.0
O902 O 0.56156 0.51337 0.54681 0.0
O903 O 0.53262 0.50039 0.53986 0.0
H904 H 0.49419 0.55252 0.52692 0.0
H905 H 0.47684 0.57312 0.51242 0.0
H906 H 0.45167 0.52744 0.46749 0.0
H907 H 0.46953 0.50664 0.48194 0.0
H908 H 0.5922 0.5215 0.52984 0.0
H909 H 0.60786 0.49586 0.5319 0.0
H910 H 0.63435 0.52208 0.58876 0.0
H911 H 0.61849 0.54814 0.58667 0.0
Tb912 Tb 0.06084 0.53258 0.03004 0.0
Tb913 Tb 0.02504 0.52537 0.04133 0.0
C914 C 0.09289 0.53532 0.03114 0.0
C915 C 0.10701 0.52534 0.03706 0.0
C916 C 0.12274 0.53582 0.04705 0.0
C917 C 0.13702 0.52723 0.05071 0.0
C918 C 0.13594 0.50792 0.04435 0.0
C919 C 0.11994 0.4973 0.03496 0.0
C920 C 0.10564 0.5059 0.03136 0.0
C921 C 0.03758 0.53526 0.99893 0.0
C922 C 0.03901 0.49119 0.0236 0.0
C923 C 0.99409 0.5246 0.04565 0.0
C924 C 0.98025 0.53564 0.04306 0.0
C925 C 0.97868 0.54681 0.02805 0.0
C926 C 0.9646 0.55593 0.02521 0.0
C927 C 0.95181 0.55404 0.03731 0.0
C928 C 0.95378 0.54323 0.05263 0.0
C929 C 0.9678 0.53414 0.05542 0.0
C930 C 0.05005 0.51846 0.06803 0.0
C931 C 0.04555 0.56776 0.04358 0.0
O932 O 0.08596 0.5435 0.04489 0.0
O933 O 0.08143 0.52702 0.01621 0.0
O934 O 0.035 0.5316 0.01571 0.0
O935 O 0.05412 0.53808 0.99978 0.0
O936 O 0.0545 0.5019 0.02834 0.0
O937 O 0.02496 0.49819 0.02496 0.0
O938 O 0.99887 0.51704 0.02989 0.0
O939 O 1.00713 0.53151 0.05942 0.0
O940 O 0.05106 0.53155 0.05738 0.0
O941 O 0.03429 0.50935 0.06412 0.0
O942 O 0.03091 0.55617 0.04405 0.0
O943 O 0.05938 0.56172 0.039 0.0
H944 H 0.12414 0.55082 0.05159 0.0
H945 H 0.14898 0.53582 0.05833 0.0
H946 H 0.11859 0.48246 0.0297 0.0
H947 H 0.09368 0.49743 0.0236 0.0
H948 H 0.98815 0.54822 0.01833 0.0
H949 H 0.96349 0.56403 0.01321 0.0
H950 H 0.94445 0.54175 0.0625 0.0
H951 H 0.96878 0.52566 0.06713 0.0
C952 C 0.02 0.19838 0.93696 0.0
C953 C 0.01886 0.21569 0.94739 0.0
C954 C 0.02127 0.18264 0.94646 0.0
C955 C 0.01389 0.16222 0.99147 0.0
H956 H 0.04689 0.13204 0.97683 0.0
C957 C 0.01902 0.08977 0.01799 0.0
C958 C 0.03568 0.08608 0.02272 0.0
C959 C 0.0165 0.10598 0.00971 0.0
C960 C 0.03768 0.14036 0.98121 0.0
H961 H 0.01782 0.22991 0.97597 0.0
H962 H 0.02004 0.20236 0.99261 0.0
H963 H 0.0433 0.15938 0.96073 0.0
H964 H 0.06277 0.09693 0.02285 0.0
H965 H 0.05837 0.12502 0.0086 0.0
H966 H 1.00842 0.14318 0.01211 0.0
C967 C 0.01987 0.20096 0.97704 0.0
C968 C 0.03548 0.15595 0.9718 0.0
C969 C 0.01867 0.21678 0.96752 0.0
C970 C 0.04974 0.09921 0.01937 0.0
C971 C 0.04722 0.11531 0.01105 0.0
C972 C 0.01601 0.14651 1.00082 0.0
C973 C 0.02139 0.18374 0.96665 0.0
C974 C 0.02358 0.16711 0.97679 0.0
C975 C 0.03057 0.1188 1.00584 0.0
C976 C 0.02801 0.13543 0.99586 0.0
H977 H 0.02011 0.19702 0.92143 0.0
H978 H 0.02216 0.16956 0.93794 0.0
H979 H 1.00452 0.17042 0.99558 0.0
H980 H 1.00787 0.07996 0.02029 0.0
H981 H 1.00349 0.10816 1.00577 0.0
C982 C 0.12438 0.80888 0.19642 0.0
C983 C 0.1183 0.79761 0.17838 0.0
C984 C 0.14058 0.8084 0.20666 0.0
C985 C 0.18205 0.79251 0.20056 0.0
H986 H 0.18868 0.79889 0.25687 0.0
C987 C 0.24303 0.77897 0.24858 0.0
C988 C 0.25013 0.79286 0.26455 0.0
C989 C 0.22714 0.77947 0.23757 0.0
C990 C 0.18706 0.79719 0.24114 0.0
H991 H 0.1244 0.77684 0.15703 0.0
H992 H 0.15224 0.77547 0.17505 0.0
H993 H 0.16067 0.79984 0.23889 0.0
H994 H 0.24626 0.81826 0.28138 0.0
H995 H 0.21854 0.81895 0.26243 0.0
H996 H 0.20844 0.78939 0.20299 0.0
C997 C 0.14483 0.78514 0.18116 0.0
C998 C 0.17099 0.79784 0.23078 0.0
C999 C 0.12876 0.78581 0.17084 0.0
C1000 C 0.24111 0.80731 0.26919 0.0
C1001 C 0.22518 0.80766 0.2584 0.0
C1002 C 0.19806 0.7916 0.21094 0.0
C1003 C 0.15104 0.79644 0.19924 0.0
C1004 C 0.16823 0.79562 0.21031 0.0
C1005 C 0.21795 0.79372 0.24251 0.0
C1006 C 0.20079 0.79406 0.23136 0.0
H1007 H 0.11666 0.81819 0.20257 0.0
H1008 H 0.14494 0.8176 0.22032 0.0
H1009 H 0.18063 0.79106 0.18486 0.0
H1010 H 0.24969 0.76766 0.24468 0.0
H1011 H 0.22187 0.76848 0.22545 0.0
C1012 C 0.53003 0.83608 0.43564 0.0
C1013 C 0.52636 0.82067 0.44583 0.0
C1014 C 0.53196 0.85454 0.44496 0.0
C1015 C 0.54488 0.89223 0.47051 0.0
H1016 H 0.51455 0.90393 0.50708 0.0
C1017 C 0.55464 0.96606 0.51514 0.0
C1018 C 0.53984 0.97368 0.51718 0.0
C1019 C 0.55326 0.94714 0.50752 0.0
C1020 C 0.52306 0.90094 0.49682 0.0
H1021 H 0.52195 0.81255 0.47383 0.0
H1022 H 0.52555 0.84478 0.49019 0.0
H1023 H 0.51148 0.87164 0.49125 0.0
H1024 H 0.51195 0.96713 0.51304 0.0
H1025 H 0.50957 0.93426 0.49955 0.0
H1026 H 0.55614 0.92159 0.47563 0.0
C1027 C 0.52669 0.84261 0.47491 0.0
C1028 C 0.52144 0.88236 0.48791 0.0
C1029 C 0.52473 0.82413 0.46557 0.0
C1030 C 0.52364 0.96177 0.51175 0.0
C1031 C 0.52227 0.94285 0.50408 0.0
C1032 C 0.54649 0.91079 0.4794 0.0
C1033 C 0.53031 0.85806 0.46472 0.0
C1034 C 0.53227 0.87777 0.47457 0.0
C1035 C 0.53705 0.93533 0.50168 0.0
C1036 C 0.53557 0.91542 0.49263 0.0
H1037 H 0.53129 0.83388 0.42039 0.0
H1038 H 0.53449 0.86606 0.43656 0.0
H1039 H 0.55359 0.8892 0.46051 0.0
H1040 H 0.56735 0.97473 0.51927 0.0
H1041 H 0.56494 0.94176 0.50621 0.0
C1042 C 0.52719 0.30207 0.69581 0.0
C1043 C 0.52621 0.29889 0.6755 0.0
C1044 C 0.5122 0.30084 0.70434 0.0
C1045 C 0.46549 0.30161 0.69374 0.0
H1046 H 0.46344 0.27753 0.7402 0.0
C1047 C 0.40237 0.28422 0.72649 0.0
C1048 C 0.40372 0.2868 0.74687 0.0
C1049 C 0.41715 0.28579 0.71753 0.0
C1050 C 0.46383 0.2845 0.72736 0.0
H1051 H 0.50869 0.29205 0.64822 0.0
H1052 H 0.48258 0.28979 0.66306 0.0
H1053 H 0.48944 0.28033 0.72528 0.0
H1054 H 0.42183 0.29369 0.77375 0.0
H1055 H 0.44744 0.29643 0.75822 0.0
H1056 H 0.43987 0.30578 0.69586 0.0
C1057 C 0.49492 0.29343 0.67243 0.0
C1058 C 0.47878 0.28612 0.71879 0.0
C1059 C 0.5099 0.29463 0.66392 0.0
C1060 C 0.42024 0.29119 0.75803 0.0
C1061 C 0.43498 0.29277 0.7491 0.0
C1062 C 0.45053 0.3 0.70233 0.0
C1063 C 0.49585 0.29642 0.69277 0.0
C1064 C 0.47985 0.29473 0.70188 0.0
C1065 C 0.43367 0.29 0.72872 0.0
C1066 C 0.4495 0.29148 0.71931 0.0
H1067 H 0.53954 0.30542 0.70515 0.0
H1068 H 0.51345 0.30349 0.72003 0.0
H1069 H 0.4659 0.30854 0.68088 0.0
H1070 H 0.38988 0.28065 0.71743 0.0
H1071 H 0.41561 0.28335 0.70181 0.0
C1072 C 0.04463 0.81518 0.69069 0.0
C1073 C 0.04279 0.79771 0.67901 0.0
C1074 C 0.04432 0.83163 0.68215 0.0
C1075 C 0.03473 0.86262 0.65846 0.0
H1076 H 0.06098 0.86699 0.61589 0.0
C1077 C 0.02886 0.91576 0.60329 0.0
C1078 C 0.04376 0.92293 0.59587 0.0
C1079 C 0.02933 0.90258 0.61632 0.0
C1080 C 0.05378 0.86615 0.62792 0.0
H1081 H 0.03843 0.78358 0.64933 0.0
H1082 H 0.03776 0.81216 0.6345 0.0
H1083 H 0.06015 0.83957 0.63277 0.0
H1084 H 0.07106 0.92332 0.59739 0.0
H1085 H 0.07198 0.90056 0.62032 0.0
H1086 H 0.02839 0.88935 0.65348 0.0
C1087 C 0.03973 0.81324 0.65022 0.0
C1088 C 0.05312 0.8503 0.63741 0.0
C1089 C 0.04002 0.79686 0.65871 0.0
C1090 C 0.05933 0.91768 0.60261 0.0
C1091 C 0.05984 0.90465 0.61571 0.0
C1092 C 0.03535 0.87854 0.64887 0.0
C1093 C 0.04222 0.83083 0.66183 0.0
C1094 C 0.04341 0.84823 0.65259 0.0
C1095 C 0.04474 0.89648 0.62219 0.0
C1096 C 0.0448 0.88039 0.63341 0.0
H1097 H 0.04676 0.8162 0.70639 0.0
H1098 H 0.04631 0.84502 0.69144 0.0
H1099 H 0.02713 0.86134 0.67011 0.0
H1100 H 0.01669 0.91961 0.59826 0.0
H1101 H 0.01747 0.89645 0.62096 0.0
C1102 C 0.4844 0.78228 0.82294 0.0
C1103 C 0.49053 0.79874 0.83633 0.0
C1104 C 0.46814 0.77954 0.81167 0.0
C1105 C 0.43355 0.80488 0.79542 0.0
H1106 H 0.4028 0.75761 0.79648 0.0
C1107 C 0.3614 0.79915 0.7926 0.0
C1108 C 0.35018 0.7839 0.78079 0.0
C1109 C 0.37908 0.79989 0.7951 0.0
C1110 C 0.41132 0.77073 0.79571 0.0
H1111 H 0.48477 0.82541 0.84809 0.0
H1112 H 0.45648 0.8206 0.82866 0.0
H1113 H 0.43349 0.761 0.80832 0.0
H1114 H 0.34873 0.75749 0.76222 0.0
H1115 H 0.37982 0.75864 0.76706 0.0
H1116 H 0.41124 0.81492 0.78378 0.0
C1117 C 0.46422 0.8099 0.82662 0.0
C1118 C 0.42887 0.77267 0.80244 0.0
C1119 C 0.48037 0.81259 0.83789 0.0
C1120 C 0.35704 0.76937 0.77152 0.0
C1121 C 0.3748 0.77001 0.77424 0.0
C1122 C 0.41603 0.80296 0.7888 0.0
C1123 C 0.45785 0.79328 0.81353 0.0
C1124 C 0.44004 0.79 0.80303 0.0
C1125 C 0.38595 0.78535 0.78597 0.0
C1126 C 0.40469 0.78611 0.78955 0.0
H1127 H 0.49202 0.7714 0.82144 0.0
H1128 H 0.46356 0.76664 0.80164 0.0
H1129 H 0.44192 0.81826 0.79532 0.0
H1130 H 0.35657 0.81062 0.79988 0.0
H1131 H 0.38739 0.81173 0.80449 0.0
C1132 C 0.54694 0.21195 0.13332 0.0
C1133 C 0.55102 0.20891 0.15269 0.0
C1134 C 0.54852 0.19858 0.11803 0.0
C1135 C 0.57072 0.15923 0.10714 0.0
H1136 H 0.53286 0.14127 0.06485 0.0
C1137 C 0.55805 0.08556 0.06454 0.0
C1138 C 0.55083 0.08251 0.04482 0.0
C1139 C 0.56113 0.10353 0.07506 0.0
C1140 C 0.54373 0.14643 0.07628 0.0
H1141 H 0.55974 0.18947 0.17131 0.0
H1142 H 0.56244 0.16613 0.14467 0.0
H1143 H 0.53163 0.16797 0.08872 0.0
H1144 H 0.54199 0.0959 0.0203 0.0
H1145 H 0.54731 0.12756 0.03885 0.0
H1146 H 0.58259 0.13735 0.09511 0.0
C1147 C 0.55821 0.17892 0.14128 0.0
C1148 C 0.54298 0.16167 0.08999 0.0
C1149 C 0.55651 0.1922 0.15652 0.0
C1150 C 0.54755 0.09792 0.03552 0.0
C1151 C 0.55051 0.11597 0.04613 0.0
C1152 C 0.5715 0.14407 0.09343 0.0
C1153 C 0.55438 0.18204 0.1219 0.0
C1154 C 0.55621 0.16778 0.1059 0.0
C1155 C 0.55697 0.11885 0.06612 0.0
C1156 C 0.55775 0.13711 0.07825 0.0
H1157 H 0.5427 0.22476 0.12997 0.0
H1158 H 0.54548 0.20131 0.10321 0.0
H1159 H 0.58126 0.16395 0.11905 0.0
H1160 H 0.5606 0.07391 0.0721 0.0
H1161 H 0.56588 0.10521 0.09049 0.0
C1162 C 0.07337 0.3158 0.33766 0.0
C1163 C 0.07457 0.316 0.35785 0.0
C1164 C 0.08801 0.31629 0.32877 0.0
C1165 C 0.13578 0.32301 0.33849 0.0
H1166 H 0.12867 0.28479 0.29333 0.0
C1167 C 0.18852 0.28493 0.31584 0.0
C1168 C 0.18981 0.28156 0.29599 0.0
C1169 C 0.17503 0.29274 0.32183 0.0
C1170 C 0.13084 0.29577 0.30569 0.0
H1171 H 0.092 0.31796 0.38475 0.0
H1172 H 0.11755 0.3182 0.36921 0.0
H1173 H 0.10401 0.29288 0.30685 0.0
H1174 H 0.17805 0.28395 0.26687 0.0
H1175 H 0.15411 0.29719 0.2774 0.0
H1176 H 0.16275 0.32507 0.33779 0.0
C1177 C 0.1054 0.31804 0.36023 0.0
C1178 C 0.1167 0.30047 0.31344 0.0
C1179 C 0.09076 0.31778 0.36915 0.0
C1180 C 0.17727 0.28613 0.28224 0.0
C1181 C 0.16366 0.29382 0.28825 0.0
C1182 C 0.14993 0.31818 0.3308 0.0
C1183 C 0.10409 0.31673 0.33987 0.0
C1184 C 0.11902 0.31383 0.33019 0.0
C1185 C 0.16245 0.29719 0.30811 0.0
C1186 C 0.14758 0.3042 0.31462 0.0
H1187 H 0.06103 0.31469 0.32865 0.0
H1188 H 0.08663 0.3157 0.31312 0.0
H1189 H 0.13798 0.33358 0.35119 0.0
H1190 H 0.19778 0.28123 0.32678 0.0
H1191 H 0.17419 0.2948 0.3372 0.0
C1192 C 0.97827 0.04168 0.22232 0.0
C1193 C 0.96597 0.0253 0.22213 0.0
C1194 C 0.98627 0.04456 0.20605 0.0
C1195 C 0.99583 0.01951 0.16119 0.0
H1196 H 1.00077 0.06866 0.14374 0.0
C1197 C 0.01647 0.03031 0.08743 0.0
C1198 C 0.0289 0.04633 0.0868 0.0
C1199 C 1.00835 0.02858 0.10373 0.0
C1200 C 0.99964 0.05491 0.14854 0.0
H1201 H 0.95256 0.99898 0.20491 0.0
H1202 H 0.96652 1.00398 0.1765 0.0
H1203 H 0.98808 0.06371 0.17305 0.0
H1204 H 0.04215 0.07346 0.10237 0.0
H1205 H 0.02804 0.07039 0.13111 0.0
H1206 H 1.00742 1.01069 0.13682 0.0
C1207 C 0.97008 0.01455 0.18926 0.0
C1208 C 0.99239 0.05208 0.16534 0.0
C1209 C 0.96204 0.0117 0.2055 0.0
C1210 C 0.03258 0.06097 0.10249 0.0
C1211 C 0.02447 0.05922 0.1189 0.0
C1212 C 1.00309 0.02235 0.14446 0.0
C1213 C 0.98218 0.03108 0.18928 0.0
C1214 C 0.99032 0.0343 0.17178 0.0
C1215 C 0.01254 0.0428 0.11986 0.0
C1216 C 1.00497 0.04003 0.13784 0.0
H1217 H 0.98155 0.05242 0.23494 0.0
H1218 H 0.99569 0.05733 0.20661 0.0
H1219 H 0.99469 1.00575 0.16596 0.0
H1220 H 0.01338 0.01879 0.07554 0.0
H1221 H 0.99896 0.01594 0.10382 0.0
C1222 C 0.27549 0.68948 0.50182 0.0
C1223 C 0.28918 0.69662 0.51698 0.0
C1224 C 0.26673 0.70173 0.49237 0.0
C1225 C 0.27527 0.7504 0.48204 0.0
H1226 H 0.22931 0.73546 0.4526 0.0
C1227 C 0.25913 0.78676 0.41787 0.0
C1228 C 0.25482 0.77349 0.40092 0.0
C1229 C 0.25681 0.78122 0.4359 0.0
C1230 C 0.24208 0.73996 0.46093 0.0
H1231 H 0.30357 0.72189 0.53531 0.0
H1232 H 0.28794 0.74328 0.51926 0.0
H1233 H 0.23835 0.7179 0.47865 0.0
H1234 H 0.24232 0.74479 0.38926 0.0
H1235 H 0.23895 0.73492 0.42075 0.0
H1236 H 0.27941 0.77176 0.46388 0.0
C1237 C 0.28431 0.72831 0.51416 0.0
C1238 C 0.2473 0.72986 0.47576 0.0
C1239 C 0.29328 0.71608 0.52336 0.0
C1240 C 0.24623 0.75519 0.40213 0.0
C1241 C 0.24405 0.74961 0.42019 0.0
C1242 C 0.27003 0.76053 0.46739 0.0
C1243 C 0.27132 0.72134 0.49812 0.0
C1244 C 0.26425 0.73442 0.48583 0.0
C1245 C 0.25034 0.76228 0.43734 0.0
C1246 C 0.25368 0.75489 0.45606 0.0
H1247 H 0.27203 0.6745 0.49672 0.0
H1248 H 0.25699 0.69583 0.47992 0.0
H1249 H 0.28848 0.75426 0.48924 0.0
H1250 H 0.26572 0.80101 0.41753 0.0
H1251 H 0.26144 0.79138 0.44887 0.0
C1252 C 0.62442 1.00791 0.73506 0.0
C1253 C 0.64254 1.01063 0.73853 0.0
C1254 C 0.61528 1.00908 0.71659 0.0
C1255 C 0.62051 0.02642 0.66779 0.0
H1256 H 0.57513 0.99574 0.65167 0.0
C1257 C 0.57949 0.02506 0.58951 0.0
C1258 C 0.56144 0.02248 0.58831 0.0
C1259 C 0.59016 0.02346 0.60707 0.0
C1260 C 0.58768 1.00472 0.65583 0.0
H1261 H 0.66502 0.01687 0.72451 0.0
H1262 H 0.64929 0.01875 0.69254 0.0
H1263 H 0.59144 0.9935 0.6828 0.0
H1264 H 0.54087 0.01631 0.60526 0.0
H1265 H 0.55891 0.01386 0.63502 0.0
H1266 H 0.61661 0.03762 0.64063 0.0
C1267 C 0.64199 0.01586 0.70416 0.0
C1268 C 0.59718 1.0034 0.674 0.0
C1269 C 0.65112 0.01461 0.72265 0.0
C1270 C 0.55462 0.0183 0.60525 0.0
C1271 C 0.56512 0.01671 0.62257 0.0
C1272 C 0.61095 0.02777 0.64954 0.0
C1273 C 0.62381 0.0131 0.70062 0.0
C1274 C 0.6138 0.01433 0.6806 0.0
C1275 C 0.58317 0.01913 0.62403 0.0
C1276 C 0.59417 0.0171 0.64318 0.0
H1277 H 0.61719 1.00496 0.74675 0.0
H1278 H 0.60142 1.00714 0.715 0.0
H1279 H 0.6331 0.0353 0.67201 0.0
H1280 H 0.58539 0.02826 0.57695 0.0
H1281 H 0.60391 0.02538 0.60722 0.0
C1282 C 0.31439 0.38302 0.98488 0.0
C1283 C 0.30466 0.3755 0.99845 0.0
C1284 C 0.31279 0.37336 0.96612 0.0
C1285 C 0.2841 0.3402 0.92832 0.0
H1286 H 0.32572 0.32953 0.91041 0.0
C1287 C 0.28256 0.29776 0.85246 0.0
C1288 C 0.29655 0.3027 0.84264 0.0
C1289 C 0.2831 0.3056 0.87181 0.0
C1290 C 0.31396 0.33263 0.91496 0.0
H1291 H 0.28532 0.35222 1.00288 0.0
H1292 H 0.28213 0.33557 0.96972 0.0
H1293 H 0.32722 0.34574 0.9431 0.0
H1294 H 0.32187 0.32013 0.84526 0.0
H1295 H 0.32254 0.33434 0.87839 0.0
H1296 H 0.27086 0.32791 0.89998 0.0
C1297 C 0.29113 0.34884 0.97378 0.0
C1298 C 0.31486 0.34182 0.93379 0.0
C1299 C 0.29299 0.35832 0.99272 0.0
C1300 C 0.31097 0.31579 0.85248 0.0
C1301 C 0.31138 0.32386 0.87163 0.0
C1302 C 0.28322 0.33133 0.90929 0.0
C1303 C 0.30119 0.35616 0.9604 0.0
C1304 C 0.29997 0.34579 0.94062 0.0
C1305 C 0.29752 0.31883 0.88169 0.0
C1306 C 0.29818 0.32754 0.90225 0.0
H1307 H 0.32352 0.3962 0.98888 0.0
H1308 H 0.32062 0.37935 0.95603 0.0
H1309 H 0.27243 0.3432 0.93324 0.0
H1310 H 0.27127 0.28766 0.84528 0.0
H1311 H 0.27225 0.30111 0.87905 0.0
C1312 C 0.97969 0.02152 0.32872 0.0
C1313 C 0.96302 0.02533 0.32506 0.0
C1314 C 0.98786 0.02233 0.34779 0.0
C1315 C 0.98647 0.04127 0.39881 0.0
H1316 H 0.01243 1.00255 0.41082 0.0
C1317 C 0.02669 0.04372 0.47432 0.0
C1318 C 0.02613 0.0266 0.48198 0.0
C1319 C 0.01939 0.04396 0.4551 0.0
C1320 C 1.00514 0.0134 0.40775 0.0
H1321 H 0.94185 0.03312 0.33847 0.0
H1322 H 0.95599 0.0343 0.37175 0.0
H1323 H 0.99876 1.00225 0.37757 0.0
H1324 H 0.01736 0.99629 0.47537 0.0
H1325 H 1.00449 0.99676 0.44201 0.0
H1326 H 0.99247 0.05212 0.4291 0.0
C1327 C 0.96289 0.03094 0.35992 0.0
C1328 C 0.99748 0.01337 0.38862 0.0
C1329 C 0.95473 0.03016 0.34084 0.0
C1330 C 0.01811 1.00974 0.46996 0.0
C1331 C 0.0108 1.00999 0.45076 0.0
C1332 C 0.99413 0.04129 0.41795 0.0
C1333 C 0.97952 0.02695 0.36363 0.0
C1334 C 0.98799 0.02726 0.38392 0.0
C1335 C 0.01136 0.02709 0.44308 0.0
C1336 C 1.00349 0.02731 0.42266 0.0
H1337 H 0.98643 0.01783 0.31684 0.0
H1338 H 1.00077 0.01943 0.35013 0.0
H1339 H 0.97941 0.0523 0.39567 0.0
H1340 H 0.03279 0.05699 0.48312 0.0
H1341 H 0.02023 0.05736 0.44959 0.0
C1342 C 0.33813 0.70703 0.60441 0.0
C1343 C 0.32285 0.69414 0.59671 0.0
C1344 C 0.3383 0.72122 0.61973 0.0
C1345 C 0.30944 0.74903 0.63983 0.0
H1346 H 0.34104 0.75787 0.68836 0.0
C1347 C 0.29363 0.78361 0.71043 0.0
C1348 C 0.30678 0.79469 0.72432 0.0
C1349 C 0.29744 0.77488 0.69325 0.0
C1350 C 0.33239 0.7559 0.67471 0.0
H1351 H 0.29601 0.68546 0.59946 0.0
H1352 H 0.29632 0.71022 0.62602 0.0
H1353 H 0.34468 0.73467 0.66183 0.0
H1354 H 0.33406 0.80629 0.73097 0.0
H1355 H 0.34082 0.79103 0.70065 0.0
H1356 H 0.29694 0.76991 0.65263 0.0
C1357 C 0.30809 0.70946 0.62014 0.0
C1358 C 0.33443 0.74257 0.65961 0.0
C1359 C 0.30796 0.69521 0.60505 0.0
C1360 C 0.32371 0.79783 0.72036 0.0
C1361 C 0.32758 0.78897 0.70315 0.0
C1362 C 0.30749 0.76243 0.65479 0.0
C1363 C 0.32314 0.72282 0.62732 0.0
C1364 C 0.32261 0.7386 0.64232 0.0
C1365 C 0.31451 0.77706 0.68963 0.0
C1366 C 0.31857 0.76555 0.67264 0.0
H1367 H 0.34979 0.70651 0.59822 0.0
H1368 H 0.35006 0.73135 0.62513 0.0
H1369 H 0.30037 0.74646 0.62644 0.0
H1370 H 0.28048 0.781 0.71325 0.0
H1371 H 0.28711 0.7656 0.6833 0.0
C1372 C 0.65405 0.02137 0.86691 0.0
C1373 C 0.64495 0.01436 0.84804 0.0
C1374 C 0.64554 0.02288 0.88349 0.0
C1375 C 0.60105 0.02268 0.89862 0.0
H1376 H 0.62413 0.0177 0.9494 0.0
C1377 C 0.56359 0.02128 0.96607 0.0
C1378 C 0.5723 0.02708 0.98532 0.0
C1379 C 0.57248 0.01984 0.94986 0.0
C1380 C 0.61736 0.01942 0.93549 0.0
H1381 H 0.61925 1.00343 0.83255 0.0
H1382 H 0.60458 1.00591 0.86097 0.0
H1383 H 0.63895 0.01507 0.92125 0.0
H1384 H 0.59789 0.03591 1.00183 0.0
H1385 H 0.61329 0.03378 0.97392 0.0
H1386 H 0.57955 0.02722 0.91276 0.0
C1387 C 0.61839 1.01052 0.86314 0.0
C1388 C 0.62602 0.01786 0.91903 0.0
C1389 C 0.62691 1.00893 0.8466 0.0
C1390 C 0.59046 0.03137 0.98748 0.0
C1391 C 0.59941 0.02999 0.9712 0.0
C1392 C 0.59243 0.02431 0.91506 0.0
C1393 C 0.62744 0.01756 0.8821 0.0
C1394 C 0.61811 0.01938 0.90007 0.0
C1395 C 0.59068 0.02419 0.95186 0.0
C1396 C 0.60026 0.02266 0.93402 0.0
H1397 H 0.66788 0.02581 0.86893 0.0
H1398 H 0.65328 0.02859 0.89744 0.0
H1399 H 0.59429 0.02438 0.8847 0.0
H1400 H 0.54968 0.01766 0.96342 0.0
H1401 H 0.56488 0.01495 0.93568 0.0
C1402 C 0.31758 0.38257 0.12289 0.0
C1403 C 0.31579 0.37318 0.10386 0.0
C1404 C 0.31702 0.37241 0.13872 0.0
C1405 C 0.30102 0.32499 0.15099 0.0
H1406 H 0.33116 0.34333 0.19996 0.0
C1407 C 0.30008 0.282 0.21556 0.0
C1408 C 0.30096 0.29213 0.23406 0.0
C1409 C 0.30347 0.29145 0.19972 0.0
C1410 C 0.32253 0.33807 0.18646 0.0
H1411 H 0.31227 0.34574 0.08657 0.0
H1412 H 0.31137 0.32804 0.11413 0.0
H1413 H 0.33387 0.36071 0.17236 0.0
H1414 H 0.30655 0.3201 0.2506 0.0
H1415 H 0.31227 0.33658 0.22306 0.0
H1416 H 0.28946 0.30256 0.16509 0.0
C1417 C 0.31303 0.34325 0.11685 0.0
C1418 C 0.3241 0.34806 0.1706 0.0
C1419 C 0.31365 0.35341 0.10104 0.0
C1420 C 0.30585 0.31187 0.23654 0.0
C1421 C 0.30919 0.32133 0.22071 0.0
C1422 C 0.29941 0.31505 0.16684 0.0
C1423 C 0.3146 0.35259 0.1359 0.0
C1424 C 0.31331 0.3417 0.15267 0.0
C1425 C 0.30778 0.31128 0.20199 0.0
C1426 C 0.31008 0.32148 0.18485 0.0
H1427 H 0.31921 0.39778 0.12556 0.0
H1428 H 0.31809 0.38007 0.15314 0.0
H1429 H 0.29231 0.31982 0.13752 0.0
H1430 H 0.29643 0.26677 0.21322 0.0
H1431 H 0.30257 0.28319 0.18564 0.0
C1432 C 0.22011 0.89501 0.04016 0.0
C1433 C 0.22141 0.89581 0.02046 0.0
C1434 C 0.20703 0.90201 0.0483 0.0
C1435 C 0.16613 0.91878 0.0364 0.0
H1436 H 0.18465 0.95745 0.08052 0.0
C1437 C 0.1532 0.99525 0.0648 0.0
C1438 C 0.13518 0.99148 0.06256 0.0
C1439 C 0.16226 0.98046 0.06444 0.0
C1440 C 0.17925 0.94659 0.06832 0.0
H1441 H 0.20943 0.90314 0.9935 0.0
H1442 H 0.18662 0.91526 0.00762 0.0
H1443 H 0.20232 0.93534 0.06969 0.0
H1444 H 0.11257 0.96948 0.05985 0.0
H1445 H 0.1284 0.94363 0.05919 0.0
H1446 H 0.14349 0.93076 0.0342 0.0
C1447 C 0.19563 0.90925 0.01682 0.0
C1448 C 0.18928 0.9338 0.06225 0.0
C1449 C 0.20876 0.90244 0.00874 0.0
C1450 C 0.12646 0.97274 0.06119 0.0
C1451 C 0.1355 0.95796 0.06086 0.0
C1452 C 0.15609 0.93153 0.0425 0.0
C1453 C 0.19496 0.90969 0.0368 0.0
C1454 C 0.18305 0.92025 0.04576 0.0
C1455 C 0.15345 0.96163 0.0619 0.0
C1456 C 0.16279 0.94602 0.05806 0.0
H1457 H 0.2297 0.88992 0.04951 0.0
H1458 H 0.20672 0.90205 0.06371 0.0
H1459 H 0.16096 0.90835 0.02377 0.0
H1460 H 0.16024 1.00954 0.0658 0.0
H1461 H 0.17607 0.98374 0.06504 0.0
C1462 C 0.71637 0.61106 1.00331 0.0
C1463 C 0.72388 0.62728 0.01658 0.0
C1464 C 0.69972 0.60143 1.00412 0.0
C1465 C 0.66741 0.59453 0.03737 0.0
H1466 H 0.63501 0.57678 0.98995 0.0
C1467 C 0.59606 0.56204 0.03906 0.0
C1468 C 0.5883 0.54659 0.02493 0.0
C1469 C 0.61228 0.5725 0.0378 0.0
C1470 C 0.64392 0.58142 1.00335 0.0
H1471 H 0.71979 0.64605 0.04113 0.0
H1472 H 0.69092 0.62928 0.04257 0.0
H1473 H 0.664 0.5931 0.98824 0.0
H1474 H 0.59137 0.53012 0.99831 0.0
H1475 H 0.61963 0.54796 0.99631 0.0
H1476 H 0.64751 0.58264 0.05251 0.0
C1477 C 0.69787 0.6239 0.03161 0.0
C1478 C 0.66058 0.59081 1.00235 0.0
C1479 C 0.71441 0.63358 0.0307 0.0
C1480 C 0.59698 0.54199 0.00941 0.0
C1481 C 0.61319 0.55234 0.0082 0.0
C1482 C 0.6508 0.58503 0.03838 0.0
C1483 C 0.69026 0.60771 0.01832 0.0
C1484 C 0.67255 0.5975 0.01934 0.0
C1485 C 0.62116 0.5677 0.02242 0.0
C1486 C 0.63878 0.5783 0.02138 0.0
H1487 H 0.72332 0.60585 0.99226 0.0
H1488 H 0.69433 0.58892 0.99377 0.0
H1489 H 0.67635 0.59927 0.05075 0.0
H1490 H 0.58971 0.56591 0.05121 0.0
H1491 H 0.61783 0.58438 0.04889 0.0
C1492 C 0.69474 0.51027 0.2938 0.0
C1493 C 0.68105 0.50917 0.30454 0.0
C1494 C 0.70417 0.49579 0.29261 0.0
C1495 C 0.71624 0.45779 0.3182 0.0
H1496 H 0.72549 0.43683 0.26817 0.0
C1497 C 0.74755 0.39218 0.30939 0.0
C1498 C 0.75946 0.39192 0.29637 0.0
C1499 C 0.73768 0.40627 0.31022 0.0
C1500 C 0.72324 0.44269 0.28229 0.0
H1501 H 0.66653 0.49222 0.32255 0.0
H1502 H 0.68315 0.46707 0.32066 0.0
H1503 H 0.70918 0.46222 0.27002 0.0
H1504 H 0.77065 0.40629 0.2743 0.0
H1505 H 0.75376 0.43111 0.27603 0.0
H1506 H 0.73055 0.43862 0.33059 0.0
C1507 C 0.68656 0.47909 0.31316 0.0
C1508 C 0.71386 0.45719 0.28332 0.0
C1509 C 0.67701 0.49343 0.31415 0.0
C1510 C 0.76138 0.40602 0.28427 0.0
C1511 C 0.75165 0.4202 0.28523 0.0
C1512 C 0.72577 0.44342 0.31721 0.0
C1513 C 0.7002 0.48011 0.30235 0.0
C1514 C 0.71025 0.46485 0.30127 0.0
C1515 C 0.73966 0.4205 0.2982 0.0
C1516 C 0.72938 0.43567 0.29924 0.0
H1517 H 0.69811 0.52225 0.28624 0.0
H1518 H 0.71471 0.49698 0.2843 0.0
H1519 H 0.71379 0.46361 0.33225 0.0
H1520 H 0.7457 0.38135 0.31873 0.0
H1521 H 0.72837 0.40588 0.32014 0.0
C1522 C 0.80477 0.43722 0.46593 0.0
C1523 C 0.79333 0.43803 0.47943 0.0
C1524 C 0.81859 0.45203 0.46665 0.0
C1525 C 0.84784 0.4862 0.50227 0.0
H1526 H 0.86572 0.50359 0.45734 0.0
C1527 C 0.91762 0.52596 0.5089 0.0
C1528 C 0.92656 0.51933 0.49442 0.0
C1529 C 0.89967 0.52114 0.50658 0.0
C1530 C 0.86091 0.49888 0.47005 0.0
H1531 H 0.7868 0.45529 0.50361 0.0
H1532 H 0.81125 0.4811 0.50509 0.0
H1533 H 0.83645 0.48553 0.45353 0.0
H1534 H 0.92372 0.50259 0.46613 0.0
H1535 H 0.8927 0.49398 0.46223 0.0
H1536 H 0.87255 0.49831 0.51859 0.0
C1537 C 0.80943 0.46904 0.49393 0.0
C1538 C 0.84414 0.48863 0.46786 0.0
C1539 C 0.79545 0.45432 0.49303 0.0
C1540 C 0.9172 0.50823 0.4774 0.0
C1541 C 0.89935 0.50334 0.47513 0.0
C1542 C 0.86467 0.49626 0.50443 0.0
C1543 C 0.82135 0.46782 0.48102 0.0
C1544 C 0.83766 0.48169 0.48384 0.0
C1545 C 0.89035 0.50948 0.4898 0.0
C1546 C 0.87161 0.50213 0.48821 0.0
H1547 H 0.8034 0.42484 0.45526 0.0
H1548 H 0.82768 0.45064 0.45664 0.0
H1549 H 0.84321 0.48085 0.51481 0.0
H1550 H 0.92451 0.53469 0.52209 0.0
H1551 H 0.89313 0.52629 0.51806 0.0
C1552 C 0.40014 0.11904 0.2803 0.0
C1553 C 0.39096 0.10032 0.27457 0.0
C1554 C 0.39177 0.13489 0.2808 0.0
C1555 C 0.34854 0.14993 0.26429 0.0
H1556 H 0.36904 0.19589 0.29891 0.0
C1557 C 0.31094 0.21361 0.2733 0.0
C1558 C 0.31985 0.23244 0.27906 0.0
C1559 C 0.31955 0.19797 0.27265 0.0
C1560 C 0.36301 0.18338 0.28887 0.0
H1561 H 0.36516 0.0844 0.26491 0.0
H1562 H 0.35073 0.11145 0.26593 0.0
H1563 H 0.38346 0.16899 0.29807 0.0
H1564 H 0.34553 0.2487 0.28879 0.0
H1565 H 0.36041 0.22198 0.28737 0.0
H1566 H 0.3281 0.1643 0.25507 0.0
C1567 C 0.36457 0.11418 0.26984 0.0
C1568 C 0.37147 0.1676 0.28837 0.0
C1569 C 0.37295 0.09835 0.26936 0.0
C1570 C 0.33792 0.2347 0.28414 0.0
C1571 C 0.34656 0.21906 0.2835 0.0
C1572 C 0.34008 0.1657 0.26479 0.0
C1573 C 0.37369 0.13301 0.27558 0.0
C1574 C 0.36451 0.15031 0.27609 0.0
C1575 C 0.33766 0.20014 0.27774 0.0
C1576 C 0.347 0.18297 0.27712 0.0
H1577 H 0.41396 0.12153 0.28442 0.0
H1578 H 0.39971 0.14875 0.28508 0.0
H1579 H 0.3425 0.13744 0.25422 0.0
H1580 H 0.29708 0.21082 0.26934 0.0
H1581 H 0.31175 0.18403 0.2684 0.0
C1582 C 0.33201 0.14095 0.51168 0.0
C1583 C 0.31548 0.13016 0.51082 0.0
C1584 C 0.34644 0.13237 0.51227 0.0
C1585 C 0.36109 0.08801 0.52289 0.0
H1586 H 0.39949 0.1076 0.49776 0.0
C1587 C 0.41771 0.04913 0.51596 0.0
C1588 C 0.43444 0.06005 0.52074 0.0
C1589 C 0.4033 0.05769 0.51387 0.0
C1590 C 0.38892 0.10205 0.50497 0.0
H1591 H 0.30111 0.10182 0.50957 0.0
H1592 H 0.32615 0.08674 0.51005 0.0
H1593 H 0.37412 0.12217 0.4956 0.0
H1594 H 0.44893 0.08874 0.52658 0.0
H1595 H 0.42377 0.10364 0.52254 0.0
H1596 H 0.37585 0.06773 0.53201 0.0
C1597 C 0.3281 0.10192 0.51076 0.0
C1598 C 0.37435 0.11044 0.5038 0.0
C1599 C 0.31369 0.11054 0.51034 0.0
C1600 C 0.43632 0.07982 0.52269 0.0
C1601 C 0.42187 0.08839 0.52043 0.0
C1602 C 0.37558 0.07953 0.5239 0.0
C1603 C 0.34474 0.11272 0.51185 0.0
C1604 C 0.36022 0.10358 0.51279 0.0
C1605 C 0.40517 0.07742 0.5163 0.0
C1606 C 0.3897 0.08645 0.515 0.0
H1607 H 0.33386 0.15612 0.51218 0.0
H1608 H 0.35899 0.14126 0.51344 0.0
H1609 H 0.3507 0.08252 0.53036 0.0
H1610 H 0.4157 0.03388 0.51386 0.0
H1611 H 0.39065 0.04881 0.51031 0.0
C1612 C 0.68418 0.6127 0.29232 0.0
C1613 C 0.68474 0.60396 0.30919 0.0
C1614 C 0.69546 0.62954 0.29184 0.0
C1615 C 0.72492 0.6699 0.32319 0.0
H1616 H 0.7443 0.67564 0.27584 0.0
C1617 C 0.78092 0.73042 0.31674 0.0
C1618 C 0.77933 0.7388 0.29967 0.0
C1619 C 0.76909 0.71439 0.31867 0.0
C1620 C 0.73887 0.67434 0.2891 0.0
H1621 H 0.6974 0.60605 0.33889 0.0
H1622 H 0.71739 0.63531 0.33796 0.0
H1623 H 0.72434 0.64688 0.27785 0.0
H1624 H 0.76426 0.73709 0.27123 0.0
H1625 H 0.74354 0.70928 0.27463 0.0
H1626 H 0.73973 0.69738 0.33447 0.0
C1627 C 0.70804 0.62933 0.32518 0.0
C1628 C 0.72739 0.65785 0.29025 0.0
C1629 C 0.69666 0.61251 0.32569 0.0
C1630 C 0.76568 0.73102 0.28463 0.0
C1631 C 0.75393 0.71499 0.28651 0.0
C1632 C 0.73651 0.68639 0.32207 0.0
C1633 C 0.70768 0.63796 0.30818 0.0
C1634 C 0.72015 0.65546 0.30725 0.0
C1635 C 0.75558 0.70639 0.30347 0.0
C1636 C 0.7435 0.68883 0.30495 0.0
H1637 H 0.67504 0.60652 0.27941 0.0
H1638 H 0.69456 0.63598 0.27863 0.0
H1639 H 0.71945 0.66862 0.33643 0.0
H1640 H 0.79136 0.73617 0.32854 0.0
H1641 H 0.77077 0.70799 0.33185 0.0
C1642 C 0.87083 0.48906 0.77546 0.0
C1643 C 0.88783 0.49296 0.77143 0.0
C1644 C 0.86231 0.47038 0.77611 0.0
C1645 C 0.86446 0.41873 0.76178 0.0
H1646 H 0.83189 0.40987 0.79753 0.0
C1647 C 0.82316 0.34292 0.76231 0.0
C1648 C 0.81889 0.33768 0.78014 0.0
C1649 C 0.83129 0.36157 0.76086 0.0
C1650 C 0.84101 0.41187 0.78749 0.0
H1651 H 0.90896 0.47956 0.76486 0.0
H1652 H 0.89435 0.44736 0.766 0.0
H1653 H 0.84636 0.4419 0.79602 0.0
H1654 H 0.82019 0.34877 0.81045 0.0
H1655 H 0.83421 0.38073 0.80799 0.0
H1656 H 0.8593 0.38864 0.75349 0.0
C1657 C 0.88737 0.45868 0.76849 0.0
C1658 C 0.84926 0.43053 0.78643 0.0
C1659 C 0.89589 0.47735 0.76793 0.0
C1660 C 0.82309 0.35195 0.79638 0.0
C1661 C 0.83113 0.37056 0.79492 0.0
C1662 C 0.85613 0.40006 0.76277 0.0
C1663 C 0.87037 0.45469 0.77267 0.0
C1664 C 0.86126 0.43447 0.7736 0.0
C1665 C 0.83546 0.3759 0.77714 0.0
C1666 C 0.84425 0.39612 0.77572 0.0
H1667 H 0.86406 0.50052 0.77825 0.0
H1668 H 0.84924 0.46828 0.77912 0.0
H1669 H 0.87334 0.42078 0.75148 0.0
H1670 H 0.82022 0.33257 0.74937 0.0
H1671 H 0.83408 0.36479 0.74677 0.0
C1672 C 0.0651 0.84418 0.09986 0.0
C1673 C 0.06943 0.84546 0.12013 0.0
C1674 C 0.0637 0.86035 0.09108 0.0
C1675 C 0.07501 0.91298 0.10038 0.0
H1676 H 0.03905 0.90941 0.05646 0.0
C1677 C 0.06807 0.97702 0.06004 0.0
C1678 C 0.05135 0.97978 0.05367 0.0
C1679 C 0.07075 0.96027 0.06695 0.0
C1680 C 0.04908 0.91075 0.06881 0.0
H1681 H 0.07573 0.86475 0.14707 0.0
H1682 H 0.07291 0.89283 0.13191 0.0
H1683 H 0.04274 0.88137 0.0712 0.0
H1684 H 0.02433 0.96684 0.04948 0.0
H1685 H 0.02894 0.93789 0.06192 0.0
H1686 H 0.08089 0.94249 0.09854 0.0
C1687 C 0.07095 0.87944 0.12265 0.0
C1688 C 0.05137 0.89454 0.07713 0.0
C1689 C 0.07248 0.86329 0.1314 0.0
C1690 C 0.0374 0.9652 0.05413 0.0
C1691 C 0.04007 0.94849 0.0612 0.0
C1692 C 0.07264 0.92921 0.09216 0.0
C1693 C 0.06645 0.87821 0.10236 0.0
C1694 C 0.06432 0.89542 0.0931 0.0
C1695 C 0.05678 0.94584 0.06789 0.0
C1696 C 0.0596 0.92837 0.07629 0.0
H1697 H 0.06273 0.83065 0.09075 0.0
H1698 H 0.06051 0.85881 0.07541 0.0
H1699 H 0.08528 0.91425 0.11247 0.0
H1700 H 0.07914 0.98789 0.05991 0.0
H1701 H 0.08382 0.95868 0.07161 0.0
C1702 C 0.96673 0.27984 0.88039 0.0
C1703 C 0.97148 0.26268 0.88405 0.0
C1704 C 0.95015 0.28021 0.87116 0.0
C1705 C 0.9128 0.25148 0.83848 0.0
H1706 H 0.88715 0.28679 0.8609 0.0
C1707 C 0.84208 0.24963 0.80633 0.0
C1708 C 0.83635 0.2668 0.80606 0.0
C1709 C 0.85807 0.24889 0.81681 0.0
C1710 C 0.89415 0.27701 0.85422 0.0
H1711 H 0.96265 0.23242 0.88056 0.0
H1712 H 0.93382 0.23305 0.86399 0.0
H1713 H 0.91619 0.28622 0.87644 0.0
H1714 H 0.84268 0.29663 0.81691 0.0
H1715 H 0.87082 0.29556 0.83465 0.0
H1716 H 0.89118 0.24262 0.81591 0.0
C1717 C 0.9429 0.24622 0.86839 0.0
C1718 C 0.91082 0.27666 0.86321 0.0
C1719 C 0.95939 0.24586 0.87791 0.0
C1720 C 0.84673 0.28316 0.81693 0.0
C1721 C 0.86288 0.28249 0.82718 0.0
C1722 C 0.89625 0.25201 0.82931 0.0
C1723 C 0.93802 0.26342 0.86509 0.0
C1724 C 0.92032 0.26385 0.85548 0.0
C1725 C 0.86893 0.26537 0.82707 0.0
C1726 C 0.8866 0.26474 0.83705 0.0
H1727 H 0.97571 0.29305 0.88501 0.0
H1728 H 0.94684 0.29367 0.86867 0.0
H1729 H 0.91986 0.2416 0.83202 0.0
H1730 H 0.83427 0.23676 0.7982 0.0
H1731 H 0.86194 0.23533 0.81673 0.0
C1732 C 0.57306 0.2408 0.60462 0.0
C1733 C 0.56326 0.24496 0.6192 0.0
C1734 C 0.57119 0.2223 0.59533 0.0
C1735 C 0.54109 0.17715 0.58306 0.0
H1736 H 0.58163 0.15479 0.58159 0.0
C1737 C 0.53576 0.09714 0.56116 0.0
C1738 C 0.54858 0.09067 0.55183 0.0
C1739 C 0.53743 0.11625 0.56824 0.0
C1740 C 0.57016 0.16084 0.58147 0.0
H1741 H 0.54356 0.23311 0.63522 0.0
H1742 H 0.54 0.20091 0.61865 0.0
H1743 H 0.58467 0.18767 0.59551 0.0
H1744 H 0.573 0.09933 0.54209 0.0
H1745 H 0.57561 0.13272 0.55368 0.0
H1746 H 0.52654 0.15063 0.56866 0.0
C1747 C 0.54922 0.21192 0.61452 0.0
C1748 C 0.57194 0.1797 0.58957 0.0
C1749 C 0.55131 0.23033 0.62405 0.0
C1750 C 0.56295 0.10383 0.54937 0.0
C1751 C 0.5645 0.123 0.55616 0.0
C1752 C 0.53932 0.15839 0.57466 0.0
C1753 C 0.55924 0.20768 0.60019 0.0
C1754 C 0.55741 0.18798 0.59066 0.0
C1755 C 0.55185 0.12949 0.5659 0.0
C1756 C 0.55381 0.14984 0.57396 0.0
H1757 H 0.5824 0.25178 0.60061 0.0
H1758 H 0.57902 0.21943 0.58427 0.0
H1759 H 0.52969 0.18326 0.58351 0.0
H1760 H 0.52459 0.08738 0.56348 0.0
H1761 H 0.52755 0.1205 0.57596 0.0
C1762 C 0.56247 0.76427 0.36998 0.0
C1763 C 0.56344 0.76702 0.3903 0.0
C1764 C 0.57747 0.76536 0.36146 0.0
C1765 C 0.62438 0.78466 0.3718 0.0
H1766 H 0.62618 0.74882 0.32714 0.0
C1767 C 0.68777 0.78044 0.34099 0.0
C1768 C 0.68675 0.77704 0.32067 0.0
C1769 C 0.67281 0.77917 0.34959 0.0
C1770 C 0.62586 0.7591 0.33946 0.0
H1771 H 0.58096 0.773 0.4176 0.0
H1772 H 0.60702 0.77481 0.40281 0.0
H1773 H 0.59994 0.74676 0.34164 0.0
H1774 H 0.66906 0.77019 0.29348 0.0
H1775 H 0.64311 0.76805 0.30839 0.0
H1776 H 0.65026 0.79706 0.36959 0.0
C1777 C 0.59471 0.77201 0.3934 0.0
C1778 C 0.61078 0.7579 0.34779 0.0
C1779 C 0.57974 0.77084 0.40189 0.0
C1780 C 0.67038 0.77251 0.30919 0.0
C1781 C 0.65545 0.77128 0.31776 0.0
C1782 C 0.63945 0.78588 0.36345 0.0
C1783 C 0.5938 0.76932 0.37307 0.0
C1784 C 0.60983 0.77066 0.36408 0.0
C1785 C 0.65643 0.77453 0.33808 0.0
C1786 C 0.64041 0.77312 0.34715 0.0
H1787 H 0.55011 0.76134 0.36064 0.0
H1788 H 0.57627 0.7634 0.34576 0.0
H1789 H 0.62405 0.79491 0.38415 0.0
H1790 H 0.70015 0.78377 0.3503 0.0
H1791 H 0.6741 0.78154 0.36529 0.0
C1792 C 0.04249 0.24243 0.40072 0.0
C1793 C 0.02941 0.25267 0.40337 0.0
C1794 C 0.04335 0.22637 0.40969 0.0
C1795 C 0.01881 0.19072 0.43409 0.0
H1796 H 0.06361 0.18999 0.4627 0.0
C1797 C 0.02891 0.14395 0.49446 0.0
C1798 C 0.04399 0.13646 0.49623 0.0
C1799 C 0.02636 0.15654 0.48117 0.0
C1800 C 0.05107 0.18975 0.45453 0.0
H1801 H 1.00656 0.25376 0.41673 0.0
H1802 H 1.00813 0.22574 0.4325 0.0
H1803 H 0.0604 0.2144 0.44228 0.0
H1804 H 0.06778 0.1353 0.48488 0.0
H1805 H 0.06325 0.15697 0.46147 0.0
H1806 H 0.00946 0.1661 0.44652 0.0
C1807 C 0.01764 0.23006 0.42341 0.0
C1808 C 0.04924 0.20376 0.44283 0.0
C1809 C 0.01682 0.24616 0.4145 0.0
C1810 C 0.05621 0.14122 0.48407 0.0
C1811 C 0.05361 0.15363 0.47069 0.0
C1812 C 0.02066 0.1766 0.44573 0.0
C1813 C 0.03111 0.22023 0.42141 0.0
C1814 C 0.03308 0.20449 0.43263 0.0
C1815 C 0.0388 0.16169 0.46931 0.0
C1816 C 0.0368 0.17606 0.4562 0.0
H1817 H 0.0523 0.24708 0.39211 0.0
H1818 H 0.05375 0.21891 0.40772 0.0
H1819 H 1.00623 0.19089 0.42624 0.0
H1820 H 0.01932 0.14049 0.50372 0.0
H1821 H 0.01491 0.16265 0.48061 0.0
C1822 C 0.60973 0.27684 0.24043 0.0
C1823 C 0.60191 0.25919 0.22987 0.0
C1824 C 0.62748 0.28102 0.24659 0.0
C1825 C 0.6667 0.25967 0.25118 0.0
H1826 H 0.68871 0.30759 0.23833 0.0
C1827 C 0.73544 0.27236 0.23446 0.0
C1828 C 0.74661 0.28848 0.2448 0.0
C1829 C 0.71781 0.27002 0.23478 0.0
C1830 C 0.68272 0.29427 0.24219 0.0
H1831 H 0.60621 0.23168 0.21854 0.0
H1832 H 0.63707 0.23903 0.22889 0.0
H1833 H 0.65758 0.30078 0.23718 0.0
H1834 H 0.74802 0.31526 0.26272 0.0
H1835 H 0.71704 0.31126 0.26285 0.0
H1836 H 0.69182 0.25288 0.25525 0.0
C1837 C 0.62962 0.24961 0.2327 0.0
C1838 C 0.66493 0.29039 0.24168 0.0
C1839 C 0.61191 0.24542 0.22664 0.0
C1840 C 0.73972 0.30266 0.25463 0.0
C1841 C 0.72203 0.30041 0.25474 0.0
C1842 C 0.68444 0.26347 0.25146 0.0
C1843 C 0.63767 0.26764 0.24223 0.0
C1844 C 0.65669 0.27286 0.24573 0.0
C1845 C 0.71102 0.28384 0.24524 0.0
C1846 C 0.69251 0.28061 0.24654 0.0
H1847 H 0.60227 0.28768 0.24322 0.0
H1848 H 0.63329 0.29493 0.2542 0.0
H1849 H 0.66078 0.24619 0.25475 0.0
H1850 H 0.74035 0.26115 0.22681 0.0
H1851 H 0.70949 0.25725 0.22709 0.0
C1852 C 0.53368 0.86628 0.9139 0.0
C1853 C 0.54013 0.85017 0.91808 0.0
C1854 C 0.53198 0.87982 0.9289 0.0
C1855 C 0.54794 0.89885 0.97986 0.0
H1856 H 0.50703 0.92102 0.97488 0.0
C1857 C 0.54114 0.96153 0.0344 0.0
C1858 C 0.53705 0.97672 0.02522 0.0
C1859 C 0.53885 0.94359 0.0237 0.0
C1860 C 0.51849 0.91492 0.9765 0.0
H1861 H 0.55017 0.83572 0.94119 0.0
H1862 H 0.54732 0.85958 0.96752 0.0
H1863 H 0.50908 0.8945 0.95124 0.0
H1864 H 0.52639 0.98499 0.99813 0.0
H1865 H 0.52231 0.95383 0.97955 0.0
H1866 H 0.55761 0.91972 1.00473 0.0
C1867 C 0.54358 0.86168 0.95261 0.0
C1868 C 0.5197 0.8998 0.96295 0.0
C1869 C 0.54521 0.84805 0.93756 0.0
C1870 C 0.52962 0.9735 1.00556 0.0
C1871 C 0.52722 0.95561 0.99494 0.0
C1872 C 0.54674 0.91402 0.99342 0.0
C1873 C 0.53672 0.87756 0.94841 0.0
C1874 C 0.53464 0.89199 0.96416 0.0
C1875 C 0.53227 0.94059 1.00374 0.0
C1876 C 0.53221 0.92255 0.99154 0.0
H1877 H 0.52968 0.86831 0.89903 0.0
H1878 H 0.52699 0.89211 0.9252 0.0
H1879 H 0.55963 0.89315 0.98111 0.0
H1880 H 0.54686 0.96367 0.04957 0.0
H1881 H 0.54269 0.93221 0.03088 0.0
C1882 C 0.01237 0.73463 0.75334 0.0
C1883 C 0.00948 0.73411 0.73306 0.0
C1884 C 0.99859 0.73368 0.76382 0.0
C1885 C 0.95067 0.72494 0.75801 0.0
H1886 H 0.95828 0.76777 0.7986 0.0
C1887 C 0.9011 0.77024 0.76983 0.0
C1888 C 0.89772 0.77532 0.7887 0.0
C1889 C 0.9143 0.76054 0.7669 0.0
C1890 C 0.95602 0.75547 0.78766 0.0
H1891 H 0.98996 0.73082 0.70766 0.0
H1892 H 0.96607 0.72942 0.72579 0.0
H1893 H 0.98282 0.75762 0.78626 0.0
H1894 H 0.90581 0.7743 0.81933 0.0
H1895 H 0.9296 0.75804 0.81411 0.0
H1896 H 0.92378 0.72387 0.75837 0.0
C1897 C 0.97884 0.73036 0.73372 0.0
C1898 C 0.97006 0.7496 0.7806 0.0
C1899 C 0.99257 0.73135 0.72331 0.0
C1900 C 0.90817 0.77079 0.80463 0.0
C1901 C 0.92165 0.76133 0.80168 0.0
C1902 C 0.93666 0.73093 0.76493 0.0
C1903 C 0.98173 0.73211 0.75414 0.0
C1904 C 0.96747 0.73486 0.76503 0.0
C1905 C 0.92466 0.75597 0.78275 0.0
C1906 C 0.93923 0.74678 0.77916 0.0
H1907 H 0.02531 0.73664 0.76121 0.0
H1908 H 1.00119 0.73488 0.77952 0.0
H1909 H 0.9483 0.71328 0.74632 0.0
H1910 H 0.89367 0.77393 0.75725 0.0
H1911 H 0.91668 0.75701 0.75219 0.0
C1912 C 0.11315 0.05697 0.86211 0.0
C1913 C 0.12956 0.05255 0.86195 0.0
C1914 C 0.10543 0.05629 0.87886 0.0
C1915 C 0.10594 0.0339 0.92329 0.0
H1916 H 0.08075 0.07219 0.94016 0.0
C1917 C 0.07313 0.03127 0.99202 0.0
C1918 C 0.05657 0.03548 0.99017 0.0
C1919 C 0.08344 0.03478 0.97768 0.0
C1920 C 0.08763 0.0613 0.93556 0.0
H1921 H 0.15086 0.04424 0.87925 0.0
H1922 H 0.13736 0.04305 0.90844 0.0
H1923 H 0.09588 0.07558 0.91235 0.0
H1924 H 0.03783 0.04688 0.9721 0.0
H1925 H 0.05555 0.05265 0.94698 0.0
H1926 H 0.09737 0.01936 0.94615 0.0
C1927 C 0.13042 0.0469 0.8956 0.0
C1928 C 0.09629 0.06326 0.91963 0.0
C1929 C 0.13818 0.04768 0.87892 0.0
C1930 C 0.05057 0.04348 0.97391 0.0
C1931 C 0.0608 0.04696 0.95959 0.0
C1932 C 0.09719 0.03188 0.93915 0.0
C1933 C 0.11392 0.05108 0.89573 0.0
C1934 C 0.10539 0.04949 0.9132 0.0
C1935 C 0.07733 0.04256 0.96121 0.0
C1936 C 0.08776 0.04544 0.94534 0.0
H1937 H 0.10621 0.06074 0.84924 0.0
H1938 H 0.09262 0.05941 0.87846 0.0
H1939 H 0.11269 0.02294 0.91854 0.0
H1940 H 0.07798 0.025 1.00436 0.0
H1941 H 0.09618 0.03138 0.97947 0.0
C1942 C 0.79864 0.38708 0.54698 0.0
C1943 C 0.79022 0.37373 0.53105 0.0
C1944 C 0.80649 0.38128 0.56368 0.0
C1945 C 0.81996 0.33998 0.58382 0.0
H1946 H 0.8052 0.3614 0.63053 0.0
C1947 C 0.80889 0.2995 0.64772 0.0
C1948 C 0.81272 0.30912 0.66679 0.0
C1949 C 0.81097 0.30924 0.63192 0.0
C1950 C 0.80979 0.35554 0.61776 0.0
H1951 H 0.78427 0.344 0.51956 0.0
H1952 H 0.79769 0.33383 0.54878 0.0
H1953 H 0.80056 0.37541 0.60087 0.0
H1954 H 0.82242 0.33641 0.68425 0.0
H1955 H 0.82581 0.35352 0.65648 0.0
H1956 H 0.82843 0.31954 0.6006 0.0
C1957 C 0.79844 0.34879 0.54836 0.0
C1958 C 0.80715 0.36358 0.60073 0.0
C1959 C 0.79063 0.35459 0.53166 0.0
C1960 C 0.81909 0.32865 0.66971 0.0
C1961 C 0.82111 0.33843 0.65386 0.0
C1962 C 0.82258 0.33191 0.60086 0.0
C1963 C 0.80604 0.36203 0.56475 0.0
C1964 C 0.8117 0.35553 0.58342 0.0
C1965 C 0.81687 0.32884 0.63479 0.0
C1966 C 0.817 0.33925 0.61782 0.0
H1967 H 0.79866 0.40196 0.54682 0.0
H1968 H 0.81246 0.39183 0.57597 0.0
H1969 H 0.82388 0.33367 0.57079 0.0
H1970 H 0.80368 0.28452 0.64493 0.0
H1971 H 0.80725 0.3015 0.6174 0.0
C1972 C 0.46327 0.05435 0.33441 0.0
C1973 C 0.44517 0.05199 0.33118 0.0
C1974 C 0.47249 0.05298 0.35277 0.0
C1975 C 0.4685 0.05199 0.40655 0.0
H1976 H 0.51114 0.0335 0.4077 0.0
C1977 C 0.50889 0.03796 0.48004 0.0
C1978 C 0.52698 0.04114 0.48137 0.0
C1979 C 0.49814 0.03907 0.46238 0.0
C1980 C 0.4994 0.03897 0.40793 0.0
H1981 H 0.42283 0.04633 0.34554 0.0
H1982 H 0.43869 0.04382 0.37723 0.0
H1983 H 0.49471 0.03607 0.37677 0.0
H1984 H 0.54753 0.04838 0.46467 0.0
H1985 H 0.52936 0.05046 0.43484 0.0
H1986 H 0.4733 0.05473 0.4379 0.0
C1987 C 0.44594 0.04699 0.36563 0.0
C1988 C 0.48982 0.04049 0.38987 0.0
C1989 C 0.43672 0.04835 0.34723 0.0
C1990 C 0.53375 0.04564 0.4645 0.0
C1991 C 0.52316 0.0467 0.44705 0.0
C1992 C 0.47812 0.05045 0.42471 0.0
C1993 C 0.4641 0.04914 0.36887 0.0
C1994 C 0.47419 0.0472 0.38863 0.0
C1995 C 0.50506 0.04328 0.44535 0.0
C1996 C 0.49395 0.0441 0.42587 0.0
H1997 H 0.47041 0.0572 0.32263 0.0
H1998 H 0.48637 0.05514 0.35429 0.0
H1999 H 0.45671 0.05738 0.40668 0.0
H2000 H 0.50302 0.03447 0.49254 0.0
H2001 H 0.48434 0.03627 0.46201 0.0
C2002 C 0.77264 0.70442 0.074 0.0
C2003 C 0.78319 0.69139 0.06978 0.0
C2004 C 0.77453 0.71432 0.09271 0.0
C2005 C 0.80471 0.73084 0.13796 0.0
H2006 H 0.76375 0.72957 0.16222 0.0
C2007 C 0.80813 0.7576 0.21975 0.0
C2008 C 0.79444 0.76539 0.22572 0.0
C2009 C 0.80722 0.7495 0.20045 0.0
C2010 C 0.77532 0.73044 0.15562 0.0
H2011 H 0.80429 0.67888 0.0817 0.0
H2012 H 0.80783 0.69652 0.11435 0.0
H2013 H 0.76148 0.71424 0.12903 0.0
H2014 H 0.76937 0.77151 0.2159 0.0
H2015 H 0.76806 0.75819 0.1822 0.0
H2016 H 0.81855 0.7474 0.16429 0.0
C2017 C 0.79804 0.69896 0.10318 0.0
C2018 C 0.77399 0.72153 0.13658 0.0
C2019 C 0.79596 0.68882 0.08453 0.0
C2020 C 0.78006 0.76542 0.21183 0.0
C2021 C 0.77927 0.75762 0.19248 0.0
C2022 C 0.80603 0.74003 0.15692 0.0
C2023 C 0.78718 0.71163 0.10752 0.0
C2024 C 0.78867 0.72154 0.12758 0.0
C2025 C 0.7927 0.74925 0.18654 0.0
C2026 C 0.79135 0.73989 0.16609 0.0
H2027 H 0.76267 0.70668 0.06294 0.0
H2028 H 0.76607 0.72409 0.09561 0.0
H2029 H 0.81623 0.73121 0.1313 0.0
H2030 H 0.81936 0.75724 0.23011 0.0
H2031 H 0.81773 0.74299 0.19661 0.0
C2032 C 0.11205 0.01976 0.75038 0.0
C2033 C 0.11595 0.03803 0.76082 0.0
C2034 C 0.10268 0.01634 0.73159 0.0
C2035 C 0.07554 0.03752 0.69594 0.0
H2036 H 0.09346 1.00642 0.65789 0.0
C2037 C 0.06395 0.04238 0.61408 0.0
C2038 C 0.06065 0.02566 0.60085 0.0
C2039 C 0.06837 0.04203 0.63396 0.0
C2040 C 0.08811 0.01489 0.66836 0.0
H2041 H 0.11259 0.06689 0.76009 0.0
H2042 H 0.09652 0.06105 0.72727 0.0
H2043 H 0.1051 1.00914 0.69223 0.0
H2044 H 0.05917 0.99537 0.59826 0.0
H2045 H 0.06706 0.99483 0.63309 0.0
H2046 H 0.05898 0.04378 0.6719 0.0
C2047 C 0.10043 0.04926 0.73362 0.0
C2048 C 0.09476 0.01644 0.68808 0.0
C2049 C 0.10973 0.05265 0.75242 0.0
C2050 C 0.06167 1.00852 0.60803 0.0
C2051 C 0.06624 1.00821 0.62796 0.0
C2052 C 0.06897 0.03606 0.67621 0.0
C2053 C 0.09708 0.03114 0.72281 0.0
C2054 C 0.08877 0.02803 0.70209 0.0
C2055 C 0.0697 0.02498 0.64113 0.0
C2056 C 0.0754 0.025 0.66218 0.0
H2057 H 0.11661 1.00818 0.75651 0.0
H2058 H 0.10007 1.00216 0.72384 0.0
H2059 H 0.07039 0.04628 0.70634 0.0
H2060 H 0.06323 0.05584 0.60911 0.0
H2061 H 0.07118 0.05523 0.64369 0.0
C2062 C 0.7522 0.33467 0.43403 0.0
C2063 C 0.74976 0.35334 0.43401 0.0
C2064 C 0.75323 0.32367 0.41671 0.0
C2065 C 0.76716 0.33034 0.37028 0.0
H2066 H 0.75055 0.27643 0.35695 0.0
C2067 C 0.79645 0.28644 0.31577 0.0
C2068 C 0.78476 0.27515 0.30051 0.0
C2069 C 0.79062 0.29425 0.33215 0.0
C2070 C 0.75518 0.2915 0.36048 0.0
H2071 H 0.74524 0.37471 0.41577 0.0
H2072 H 0.74698 0.35547 0.38549 0.0
H2073 H 0.74128 0.29367 0.38455 0.0
H2074 H 0.75808 0.26192 0.2908 0.0
H2075 H 0.74785 0.27545 0.3197 0.0
H2076 H 0.78119 0.32822 0.34645 0.0
C2077 C 0.74833 0.34944 0.39893 0.0
C2078 C 0.74994 0.30133 0.37627 0.0
C2079 C 0.74727 0.36041 0.41624 0.0
C2080 C 0.76732 0.27062 0.30243 0.0
C2081 C 0.76148 0.27837 0.31891 0.0
C2082 C 0.77248 0.32052 0.35467 0.0
C2083 C 0.75188 0.33118 0.39908 0.0
C2084 C 0.75601 0.32083 0.3814 0.0
C2085 C 0.77303 0.29073 0.3336 0.0
C2086 C 0.76674 0.30098 0.34979 0.0
H2087 H 0.75411 0.32883 0.44753 0.0
H2088 H 0.75607 0.30969 0.4173 0.0
H2089 H 0.77224 0.34532 0.37401 0.0
H2090 H 0.80999 0.28994 0.31464 0.0
H2091 H 0.79982 0.30348 0.34345 0.0
C2092 C 0.46059 0.05284 0.22325 0.0
C2093 C 0.44253 0.04766 0.22177 0.0
C2094 C 0.46914 0.05104 0.20675 0.0
C2095 C 0.46243 0.02895 0.15286 0.0
H2096 H 0.50662 0.06078 0.15327 0.0
C2097 C 0.49718 0.02888 0.0826 0.0
C2098 C 0.51536 0.03261 0.08482 0.0
C2099 C 0.48822 0.03059 0.09883 0.0
C2100 C 0.49438 0.05149 0.15274 0.0
H2101 H 0.41958 0.03647 0.20084 0.0
H2102 H 0.43414 0.03371 0.17237 0.0
H2103 H 0.49179 0.06399 0.18124 0.0
H2104 H 0.53799 0.04119 0.10683 0.0
H2105 H 0.52272 0.04406 0.13459 0.0
H2106 H 0.46502 0.01661 0.12419 0.0
C2107 C 0.44198 0.0389 0.18637 0.0
C2108 C 0.48571 0.05334 0.16912 0.0
C2109 C 0.43345 0.04064 0.20291 0.0
C2110 C 0.52408 0.03815 0.1041 0.0
C2111 C 0.51516 0.03996 0.12027 0.0
C2112 C 0.47108 0.02716 0.13642 0.0
C2113 C 0.46011 0.04403 0.18775 0.0
C2114 C 0.46947 0.04209 0.16976 0.0
C2115 C 0.49696 0.03626 0.11816 0.0
C2116 C 0.48736 0.03833 0.13589 0.0
H2117 H 0.46826 0.0582 0.23733 0.0
H2118 H 0.48301 0.05495 0.20911 0.0
H2119 H 0.45022 0.01961 0.15231 0.0
H2120 H 0.48975 0.02464 0.06822 0.0
H2121 H 0.47431 0.02772 0.09607 0.0
C2122 C 0.77778 0.70621 0.96825 0.0
C2123 C 0.77223 0.68655 0.96606 0.0
C2124 C 0.77803 0.71575 0.95199 0.0
C2125 C 0.77974 0.70841 0.89928 0.0
H2126 H 0.76585 0.75697 0.90014 0.0
C2127 C 0.77908 0.74785 0.83198 0.0
C2128 C 0.78524 0.76742 0.83542 0.0
C2129 C 0.77579 0.73775 0.8474 0.0
C2130 C 0.76994 0.74351 0.89969 0.0
H2131 H 0.76248 0.66152 0.94501 0.0
H2132 H 0.76293 0.67817 0.91659 0.0
H2133 H 0.7636 0.73986 0.92797 0.0
H2134 H 0.7923 0.79182 0.85764 0.0
H2135 H 0.78685 0.77427 0.88455 0.0
H2136 H 0.78642 0.71218 0.87121 0.0
C2137 C 0.76719 0.6862 0.9309 0.0
C2138 C 0.76863 0.73368 0.91567 0.0
C2139 C 0.76685 0.67667 0.9472 0.0
C2140 C 0.78752 0.77676 0.85452 0.0
C2141 C 0.78431 0.76666 0.86995 0.0
C2142 C 0.78113 0.71828 0.88333 0.0
C2143 C 0.77283 0.70588 0.93308 0.0
C2144 C 0.77361 0.71605 0.91574 0.0
C2145 C 0.77864 0.74696 0.86667 0.0
C2146 C 0.77636 0.73605 0.88334 0.0
H2147 H 0.78204 0.71424 0.98257 0.0
H2148 H 0.78264 0.73085 0.95422 0.0
H2149 H 0.78392 0.695 0.89891 0.0
H2150 H 0.77714 0.74027 0.8174 0.0
H2151 H 0.77114 0.72268 0.84422 0.0
C2152 C 0.87344 0.14295 0.01858 0.0
C2153 C 0.85675 0.14382 0.01005 0.0
C2154 C 0.8831 0.13169 0.00904 0.0
C2155 C 0.87671 0.08789 0.97716 0.0
H2156 H 0.92609 0.10081 0.979 0.0
C2157 C 0.94025 0.05197 0.9685 0.0
C2158 C 0.93822 0.03969 0.98254 0.0
C2159 C 0.92842 0.06367 0.96465 0.0
C2160 C 0.91225 0.09704 0.97793 0.0
H2161 H 0.83734 0.13435 0.98448 0.0
H2162 H 0.85417 0.11433 0.96796 0.0
H2163 H 0.90992 0.12566 0.98618 0.0
H2164 H 0.92127 0.02896 1.00222 0.0
H2165 H 0.90053 0.04889 0.99509 0.0
H2166 H 0.87921 0.05914 0.97013 0.0
C2167 C 0.85976 0.12244 0.98197 0.0
C2168 C 0.90304 0.11124 0.98221 0.0
C2169 C 0.85018 0.13391 0.99141 0.0
C2170 C 0.92323 0.03806 0.99119 0.0
C2171 C 0.9113 0.04955 0.98713 0.0
C2172 C 0.88594 0.07367 0.97309 0.0
C2173 C 0.87616 0.12093 0.99089 0.0
C2174 C 0.8853 0.1067 0.98253 0.0
C2175 C 0.91419 0.06303 0.97449 0.0
C2176 C 0.90388 0.07806 0.97412 0.0
H2177 H 0.87882 0.15049 0.03291 0.0
H2178 H 0.89565 0.13061 0.01634 0.0
H2179 H 0.86304 0.084 0.9774 0.0
H2180 H 0.95142 0.05325 0.96119 0.0
H2181 H 0.93081 0.07382 0.95467 0.0
C2182 C 0.3758 0.4231 0.04757 0.0
C2183 C 0.36503 0.43113 0.05903 0.0
C2184 C 0.39237 0.43281 0.0468 0.0
C2185 C 0.42755 0.46981 0.07347 0.0
H2186 H 0.4416 0.47395 0.02302 0.0
C2187 C 0.49026 0.51944 0.06519 0.0
C2188 C 0.49933 0.51451 0.05015 0.0
C2189 C 0.47423 0.50873 0.06651 0.0
C2190 C 0.4381 0.47269 0.03728 0.0
H2191 H 0.36337 0.45555 0.07896 0.0
H2192 H 0.39252 0.47238 0.07796 0.0
H2193 H 0.41325 0.45625 0.02512 0.0
H2194 H 0.49873 0.49438 0.02473 0.0
H2195 H 0.47118 0.47512 0.02748 0.0
H2196 H 0.45245 0.48577 0.08576 0.0
C2197 C 0.38806 0.45858 0.06948 0.0
C2198 C 0.42175 0.4626 0.03845 0.0
C2199 C 0.37135 0.44897 0.07001 0.0
C2200 C 0.49212 0.49846 0.03658 0.0
C2201 C 0.47617 0.48755 0.03805 0.0
C2202 C 0.44401 0.47967 0.07234 0.0
C2203 C 0.3987 0.45069 0.0577 0.0
C2204 C 0.41623 0.46115 0.05655 0.0
C2205 C 0.46688 0.4926 0.05296 0.0
C2206 C 0.44952 0.48142 0.05421 0.0
H2207 H 0.37132 0.40939 0.03889 0.0
H2208 H 0.4003 0.42629 0.03773 0.0
H2209 H 0.42377 0.46874 0.08765 0.0
H2210 H 0.49541 0.53181 0.07582 0.0
H2211 H 0.46746 0.51341 0.07798 0.0
C2212 C 0.39009 0.55506 0.75746 0.0
C2213 C 0.40802 0.55847 0.75818 0.0
C2214 C 0.38086 0.56942 0.75451 0.0
C2215 C 0.38541 0.62081 0.75976 0.0
H2216 H 0.34424 0.61075 0.72118 0.0
C2217 C 0.35083 0.6804 0.73861 0.0
C2218 C 0.33278 0.67648 0.73565 0.0
C2219 C 0.36006 0.66589 0.74052 0.0
C2220 C 0.35558 0.61375 0.73218 0.0
H2221 H 0.43038 0.57957 0.75662 0.0
H2222 H 0.41426 0.6047 0.75169 0.0
H2223 H 0.36006 0.58554 0.72688 0.0
H2224 H 0.31021 0.65437 0.73233 0.0
H2225 H 0.32628 0.62908 0.73604 0.0
H2226 H 0.38084 0.64885 0.7654 0.0
C2227 C 0.40736 0.59094 0.7534 0.0
C2228 C 0.36465 0.59931 0.73541 0.0
C2229 C 0.41657 0.57654 0.75614 0.0
C2230 C 0.32413 0.65775 0.73434 0.0
C2231 C 0.33336 0.64326 0.73644 0.0
C2232 C 0.37627 0.6352 0.75667 0.0
C2233 C 0.38941 0.58749 0.75245 0.0
C2234 C 0.37966 0.60272 0.7492 0.0
C2235 C 0.35144 0.64717 0.73973 0.0
C2236 C 0.36126 0.63187 0.74281 0.0
H2237 H 0.38318 0.54124 0.75897 0.0
H2238 H 0.36704 0.56644 0.75401 0.0
H2239 H 0.39684 0.62375 0.77064 0.0
H2240 H 0.35781 0.6947 0.73945 0.0
H2241 H 0.37397 0.66937 0.74264 0.0
C2242 C 0.27539 0.60002 0.52899 0.0
C2243 C 0.28842 0.60791 0.54468 0.0
C2244 C 0.26232 0.58533 0.53106 0.0
C2245 C 0.23969 0.56932 0.56973 0.0
H2246 H 0.21212 0.53345 0.52728 0.0
C2247 C 0.17123 0.53457 0.57601 0.0
C2248 C 0.15903 0.5368 0.56047 0.0
C2249 C 0.18866 0.53702 0.57428 0.0
C2250 C 0.21975 0.54331 0.53931 0.0
H2251 H 0.29894 0.60551 0.57423 0.0
H2252 H 0.27618 0.57958 0.57778 0.0
H2253 H 0.2411 0.54876 0.52392 0.0
H2254 H 0.15544 0.54232 0.53058 0.0
H2255 H 0.18579 0.54668 0.52757 0.0
H2256 H 0.21816 0.5646 0.58479 0.0
C2257 C 0.27587 0.58503 0.56401 0.0
C2258 C 0.23632 0.55208 0.5374 0.0
C2259 C 0.28894 0.59981 0.56196 0.0
C2260 C 0.16449 0.54035 0.54277 0.0
C2261 C 0.18191 0.5428 0.54103 0.0
C2262 C 0.22318 0.56052 0.57167 0.0
C2263 C 0.26203 0.57816 0.54885 0.0
C2264 C 0.24622 0.56573 0.55231 0.0
C2265 C 0.19424 0.54175 0.55696 0.0
C2266 C 0.21279 0.54795 0.55621 0.0
H2267 H 0.27471 0.60592 0.51545 0.0
H2268 H 0.25182 0.58054 0.51912 0.0
H2269 H 0.2468 0.57994 0.58142 0.0
H2270 H 0.16736 0.53146 0.58972 0.0
H2271 H 0.19783 0.53585 0.58671 0.0
C2272 C 0.68695 0.94332 0.78921 0.0
C2273 C 0.6962 0.96199 0.79513 0.0
C2274 C 0.69522 0.9274 0.78871 0.0
C2275 C 0.73984 0.91322 0.79097 0.0
H2276 H 0.71478 0.8642 0.79682 0.0
C2277 C 0.77551 0.84818 0.79666 0.0
C2278 C 0.76651 0.82938 0.79092 0.0
C2279 C 0.76699 0.86388 0.7972 0.0
C2280 C 0.72215 0.87762 0.7949 0.0
H2281 H 0.722 0.97773 0.80526 0.0
H2282 H 0.73622 0.95051 0.80464 0.0
H2283 H 0.7005 0.89123 0.79767 0.0
H2284 H 0.74079 0.81322 0.7813 0.0
H2285 H 0.72612 0.84012 0.78195 0.0
H2286 H 0.76147 0.89966 0.78814 0.0
C2287 C 0.72247 0.94794 0.80002 0.0
C2288 C 0.71378 0.89346 0.79539 0.0
C2289 C 0.71418 0.96383 0.80053 0.0
C2290 C 0.74845 0.8272 0.78584 0.0
C2291 C 0.7399 0.84292 0.78636 0.0
C2292 C 0.7482 0.8974 0.79047 0.0
C2293 C 0.71327 0.92917 0.79408 0.0
C2294 C 0.72235 0.91182 0.79348 0.0
C2295 C 0.7489 0.86181 0.79201 0.0
C2296 C 0.73967 0.87905 0.79246 0.0
H2297 H 0.67316 0.94094 0.78483 0.0
H2298 H 0.6873 0.91362 0.78376 0.0
H2299 H 0.74722 0.92663 0.78901 0.0
H2300 H 0.78934 0.85088 0.80077 0.0
H2301 H 0.77478 0.87775 0.802 0.0
C2302 C 0.77194 0.94918 0.56822 0.0
C2303 C 0.77116 0.93077 0.55903 0.0
C2304 C 0.75715 0.95721 0.5674 0.0
C2305 C 0.71436 0.95318 0.53791 0.0
H2306 H 0.70478 0.98398 0.58255 0.0
C2307 C 0.66309 1.00017 0.53131 0.0
C2308 C 0.65245 1.00097 0.54574 0.0
C2309 C 0.67709 0.991 0.53339 0.0
C2310 C 0.70719 0.9753 0.56998 0.0
H2311 H 0.75416 0.90628 0.54198 0.0
H2312 H 0.72845 0.92023 0.54055 0.0
H2313 H 0.73007 0.96914 0.58561 0.0
H2314 H 0.64826 0.99259 0.5737 0.0
H2315 H 0.67279 0.97648 0.57734 0.0
H2316 H 0.69153 0.95928 0.52227 0.0
C2317 C 0.74049 0.92856 0.54826 0.0
C2318 C 0.7218 0.96695 0.57168 0.0
C2319 C 0.75523 0.92052 0.54917 0.0
C2320 C 0.65614 0.99217 0.56227 0.0
C2321 C 0.67029 0.98309 0.56443 0.0
C2322 C 0.69986 0.96162 0.53617 0.0
C2323 C 0.74125 0.94705 0.55725 0.0
C2324 C 0.7256 0.9558 0.55565 0.0
C2325 C 0.68095 0.98239 0.55 0.0
C2326 C 0.6961 0.97286 0.55215 0.0
H2327 H 0.78401 0.95746 0.57592 0.0
H2328 H 0.75825 0.97154 0.57434 0.0
H2329 H 0.71693 0.94485 0.52519 0.0
H2330 H 0.66053 1.00659 0.51828 0.0
H2331 H 0.68508 0.99091 0.52206 0.0
C2332 C 0.38913 0.45698 0.74475 0.0
C2333 C 0.4034 0.46262 0.75955 0.0
C2334 C 0.37795 0.43977 0.74403 0.0
C2335 C 0.3745 0.39386 0.76329 0.0
H2336 H 0.32545 0.39217 0.75098 0.0
C2337 C 0.32379 0.33544 0.78249 0.0
C2338 C 0.30942 0.3277 0.76833 0.0
C2339 C 0.33549 0.35111 0.77964 0.0
C2340 C 0.33912 0.39236 0.7542 0.0
H2341 H 0.41721 0.45467 0.78514 0.0
H2342 H 0.39755 0.42491 0.78418 0.0
H2343 H 0.34556 0.42106 0.74932 0.0
H2344 H 0.29578 0.33038 0.74024 0.0
H2345 H 0.31618 0.35811 0.73535 0.0
H2346 H 0.36797 0.36531 0.76874 0.0
C2347 C 0.39514 0.43353 0.77286 0.0
C2348 C 0.35066 0.4089 0.75321 0.0
C2349 C 0.40636 0.45066 0.7735 0.0
C2350 C 0.3068 0.33607 0.75136 0.0
C2351 C 0.31844 0.35192 0.74858 0.0
C2352 C 0.36296 0.37739 0.76442 0.0
C2353 C 0.38075 0.42788 0.75816 0.0
C2354 C 0.3685 0.40993 0.75798 0.0
C2355 C 0.33293 0.35954 0.76268 0.0
C2356 C 0.34516 0.37655 0.76011 0.0
H2357 H 0.38658 0.46589 0.73374 0.0
H2358 H 0.36714 0.43576 0.73235 0.0
H2359 H 0.38815 0.394 0.76665 0.0
H2360 H 0.32587 0.32956 0.79593 0.0
H2361 H 0.34636 0.3569 0.79092 0.0
C2362 C 0.21615 0.57474 0.30238 0.0
C2363 C 0.19806 0.56937 0.29819 0.0
C2364 C 0.22462 0.59345 0.30166 0.0
C2365 C 0.21819 0.63832 0.28111 0.0
H2366 H 0.25923 0.66161 0.31743 0.0
C2367 C 0.25963 0.71118 0.27178 0.0
C2368 C 0.26753 0.72416 0.2884 0.0
C2369 C 0.25127 0.69267 0.27326 0.0
C2370 C 0.24774 0.65549 0.30716 0.0
H2371 H 0.17494 0.58014 0.28988 0.0
H2372 H 0.18948 0.61232 0.28848 0.0
H2373 H 0.24485 0.62949 0.3195 0.0
H2374 H 0.27258 0.72707 0.31984 0.0
H2375 H 0.25825 0.69498 0.32243 0.0
H2376 H 0.22103 0.66426 0.26877 0.0
C2377 C 0.19728 0.60211 0.29229 0.0
C2378 C 0.2395 0.63679 0.30823 0.0
C2379 C 0.18883 0.5835 0.29323 0.0
C2380 C 0.26674 0.71772 0.30661 0.0
C2381 C 0.25853 0.6991 0.30809 0.0
C2382 C 0.22654 0.65691 0.27989 0.0
C2383 C 0.21539 0.60759 0.29647 0.0
C2384 C 0.22447 0.62774 0.29527 0.0
C2385 C 0.25054 0.68612 0.29144 0.0
C2386 C 0.24151 0.666 0.2929 0.0
H2387 H 0.22384 0.56444 0.30622 0.0
H2388 H 0.23851 0.59672 0.30483 0.0
H2389 H 0.20684 0.63214 0.27064 0.0
H2390 H 0.25985 0.71531 0.25744 0.0
H2391 H 0.2456 0.68336 0.25997 0.0
C2392 C 0.50919 0.70035 0.43855 0.0
C2393 C 0.51951 0.71792 0.44639 0.0
C2394 C 0.51027 0.68443 0.44788 0.0
C2395 C 0.52731 0.66975 0.49517 0.0
H2396 H 0.52225 0.62128 0.46347 0.0
C2397 C 0.54688 0.6036 0.52476 0.0
C2398 C 0.53543 0.58632 0.51862 0.0
C2399 C 0.5441 0.61984 0.51674 0.0
C2400 C 0.52354 0.63469 0.47254 0.0
H2401 H 0.53909 0.73256 0.47018 0.0
H2402 H 0.54143 0.70484 0.48607 0.0
H2403 H 0.51914 0.64905 0.4479 0.0
H2404 H 0.51205 0.57266 0.4992 0.0
H2405 H 0.50729 0.6009 0.48526 0.0
H2406 H 0.53226 0.6553 0.51977 0.0
C2407 C 0.53212 0.70331 0.47302 0.0
C2408 C 0.52168 0.65066 0.46362 0.0
C2409 C 0.53087 0.71925 0.46382 0.0
C2410 C 0.52105 0.58573 0.50444 0.0
C2411 C 0.51839 0.60189 0.49629 0.0
C2412 C 0.52939 0.6538 0.50407 0.0
C2413 C 0.52188 0.68561 0.46517 0.0
C2414 C 0.52354 0.66847 0.47478 0.0
C2415 C 0.52995 0.61911 0.50222 0.0
C2416 C 0.52753 0.63608 0.49286 0.0
H2417 H 0.50024 0.69889 0.42519 0.0
H2418 H 0.50191 0.67121 0.44152 0.0
H2419 H 0.52853 0.68307 0.50435 0.0
H2420 H 0.55808 0.60455 0.53563 0.0
H2421 H 0.55331 0.63286 0.52153 0.0
C2422 C 0.63393 0.29966 0.67123 0.0
C2423 C 0.61963 0.29966 0.68096 0.0
C2424 C 0.64986 0.29779 0.68112 0.0
C2425 C 0.6692 0.28112 0.72573 0.0
H2426 H 0.71198 0.30936 0.71519 0.0
C2427 C 0.73301 0.28844 0.77714 0.0
C2428 C 0.74815 0.28748 0.76927 0.0
C2429 C 0.71766 0.28883 0.76522 0.0
C2430 C 0.70016 0.30117 0.71811 0.0
H2431 H 0.61097 0.29806 0.70883 0.0
H2432 H 0.63873 0.29516 0.72617 0.0
H2433 H 0.68466 0.31281 0.69701 0.0
H2434 H 0.75916 0.28651 0.74268 0.0
H2435 H 0.73215 0.28712 0.72158 0.0
H2436 H 0.68464 0.26971 0.74701 0.0
C2437 C 0.63762 0.29622 0.71079 0.0
C2438 C 0.68447 0.30316 0.70769 0.0
C2439 C 0.6217 0.29805 0.70088 0.0
C2440 C 0.74763 0.28693 0.74909 0.0
C2441 C 0.7322 0.28748 0.73708 0.0
C2442 C 0.68484 0.27919 0.73615 0.0
C2443 C 0.6519 0.29588 0.70102 0.0
C2444 C 0.66874 0.29334 0.71154 0.0
C2445 C 0.71701 0.28841 0.74504 0.0
C2446 C 0.70053 0.28937 0.73268 0.0
H2447 H 0.63277 0.30079 0.65585 0.0
H2448 H 0.66046 0.2974 0.67303 0.0
H2449 H 0.65743 0.27295 0.72879 0.0
H2450 H 0.73301 0.289 0.79266 0.0
H2451 H 0.70634 0.28986 0.77193 0.0
C2452 C 0.04141 0.3283 0.95576 0.0
C2453 C 0.02569 0.31555 0.95338 0.0
C2454 C 0.043 0.34682 0.96473 0.0
C2455 C 0.02168 0.37847 0.99511 0.0
H2456 H 0.04921 0.41745 0.97294 0.0
C2457 C 0.02145 0.45842 0.01381 0.0
C2458 C 0.03747 0.47078 0.01676 0.0
C2459 C 0.02003 0.43926 1.00701 0.0
C2460 C 0.04161 0.40674 0.97944 0.0
H2461 H 0.99939 0.31212 0.95894 0.0
H2462 H 1.002 0.34459 0.97425 0.0
H2463 H 0.0467 0.38455 0.95966 0.0
H2464 H 0.06459 0.47252 0.01498 0.0
H2465 H 0.06208 0.43921 1.00307 0.0
H2466 H 0.01635 0.40089 0.01465 0.0
C2467 C 0.01324 0.34022 0.9695 0.0
C2468 C 0.04021 0.38781 0.97187 0.0
C2469 C 0.0117 0.32159 0.96065 0.0
C2470 C 0.05204 0.46346 0.01286 0.0
C2471 C 0.05059 0.44436 1.00592 0.0
C2472 C 0.02299 0.39746 1.0026 0.0
C2473 C 0.02885 0.35318 0.97139 0.0
C2474 C 0.03029 0.37337 0.97964 0.0
C2475 C 0.03457 0.43203 1.00283 0.0
C2476 C 0.03303 0.41181 0.9949 0.0
H2477 H 0.05247 0.32404 0.95043 0.0
H2478 H 0.05534 0.3562 0.96632 0.0
H2479 H 0.0141 0.36779 1.00166 0.0
H2480 H 0.00996 0.46354 0.01668 0.0
H2481 H 1.00748 0.43017 1.00463 0.0
C2482 C 0.00955 0.79627 0.16412 0.0
C2483 C 0.02533 0.79468 0.17471 0.0
C2484 C 0.99475 0.79529 0.17295 0.0
C2485 C 0.97619 0.77861 0.21518 0.0
H2486 H 0.94397 0.81143 0.20319 0.0
C2487 C 0.92014 0.78482 0.25834 0.0
C2488 C 0.90411 0.78601 0.24799 0.0
C2489 C 0.93475 0.78586 0.24922 0.0
C2490 C 0.95272 0.802 0.20653 0.0
H2491 H 0.03796 0.79092 0.20293 0.0
H2492 H 0.01221 0.78941 0.21842 0.0
H2493 H 0.96979 0.81342 0.18787 0.0
H2494 H 0.89101 0.78918 0.21976 0.0
H2495 H 0.91653 0.791 0.20383 0.0
H2496 H 0.95916 0.76722 0.23387 0.0
C2497 C 0.01119 0.79116 0.2032 0.0
C2498 C 0.96755 0.80314 0.19774 0.0
C2499 C 0.02599 0.79214 0.19436 0.0
C2500 C 0.90315 0.78841 0.22825 0.0
C2501 C 0.9178 0.78947 0.21911 0.0
C2502 C 0.96138 0.77748 0.22398 0.0
C2503 C 0.99535 0.79269 0.1926 0.0
C2504 C 0.97952 0.79148 0.20197 0.0
C2505 C 0.9338 0.78815 0.22947 0.0
C2506 C 0.94945 0.78918 0.21982 0.0
H2507 H 1.00858 0.79818 0.14893 0.0
H2508 H 0.98277 0.79627 0.16424 0.0
H2509 H 0.98492 0.76916 0.21853 0.0
H2510 H 0.9215 0.78339 0.27366 0.0
H2511 H 0.94689 0.78516 0.25777 0.0
C2512 C 0.53922 0.31009 0.17346 0.0
C2513 C 0.55358 0.30132 0.17491 0.0
C2514 C 0.53937 0.32618 0.16424 0.0
C2515 C 0.56098 0.35061 0.12831 0.0
H2516 H 0.53982 0.39194 0.14687 0.0
C2517 C 0.56462 0.41813 0.0923 0.0
C2518 C 0.54892 0.42407 0.08789 0.0
C2519 C 0.566 0.40433 0.10444 0.0
C2520 C 0.54571 0.38044 0.1415 0.0
H2521 H 0.57952 0.30274 0.16842 0.0
H2522 H 0.5799 0.33092 0.15263 0.0
H2523 H 0.54076 0.36552 0.16543 0.0
H2524 H 0.52256 0.42087 0.09329 0.0
H2525 H 0.52496 0.3967 0.11452 0.0
H2526 H 0.56588 0.36547 0.10438 0.0
C2527 C 0.5684 0.32522 0.15825 0.0
C2528 C 0.54621 0.36531 0.15208 0.0
C2529 C 0.56822 0.30914 0.16739 0.0
C2530 C 0.53477 0.41639 0.09632 0.0
C2531 C 0.53619 0.40271 0.10859 0.0
C2532 C 0.56056 0.36575 0.11782 0.0
C2533 C 0.5539 0.33379 0.15634 0.0
C2534 C 0.55378 0.35018 0.14554 0.0
C2535 C 0.55174 0.39634 0.11252 0.0
C2536 C 0.55284 0.38076 0.12424 0.0
H2537 H 0.52776 0.30434 0.17912 0.0
H2538 H 0.52794 0.33233 0.16283 0.0
H2539 H 0.56661 0.33901 0.12266 0.0
H2540 H 0.5757 0.42373 0.08589 0.0
H2541 H 0.57819 0.39979 0.10737 0.0
C2542 C 0.98666 0.30608 0.32424 0.0
C2543 C 0.98764 0.29415 0.33858 0.0
C2544 C 0.97184 0.30363 0.31052 0.0
C2545 C 0.92974 0.27152 0.29177 0.0
H2546 H 0.91361 0.31853 0.28837 0.0
C2547 C 0.85975 0.2748 0.25989 0.0
C2548 C 0.85222 0.28689 0.27177 0.0
C2549 C 0.87744 0.27521 0.26347 0.0
C2550 C 0.91798 0.30529 0.28908 0.0
H2551 H 0.97439 0.26975 0.34933 0.0
H2552 H 0.94832 0.26588 0.32591 0.0
H2553 H 0.94317 0.31922 0.30243 0.0
H2554 H 0.85726 0.30877 0.29672 0.0
H2555 H 0.88788 0.30924 0.30309 0.0
H2556 H 0.90405 0.25764 0.27969 0.0
C2557 C 0.95906 0.27686 0.32488 0.0
C2558 C 0.93499 0.30567 0.2969 0.0
C2559 C 0.97392 0.27921 0.33846 0.0
C2560 C 0.86265 0.29931 0.28726 0.0
C2561 C 0.88025 0.29972 0.2908 0.0
C2562 C 0.91264 0.27115 0.28403 0.0
C2563 C 0.95769 0.28933 0.31105 0.0
C2564 C 0.94088 0.28879 0.29903 0.0
C2565 C 0.88784 0.28777 0.2789 0.0
C2566 C 0.90647 0.28804 0.28338 0.0
H2567 H 0.99719 0.31755 0.32386 0.0
H2568 H 0.97127 0.31328 0.29986 0.0
H2569 H 0.93401 0.25828 0.2929 0.0
H2570 H 0.85205 0.26513 0.24777 0.0
H2571 H 0.88299 0.26585 0.25409 0.0
C2572 C 0.04124 0.69448 0.64988 0.0
C2573 C 0.05467 0.70989 0.65688 0.0
C2574 C 0.04238 0.68178 0.63384 0.0
C2575 C 0.07341 0.66248 0.60797 0.0
H2576 H 0.03349 0.64256 0.56864 0.0
C2577 C 0.04806 0.601 0.53678 0.0
C2578 C 0.05188 0.58555 0.54567 0.0
C2579 C 0.05131 0.61899 0.54757 0.0
C2580 C 0.04487 0.64823 0.57927 0.0
H2581 H 0.07979 0.72417 0.65264 0.0
H2582 H 0.08186 0.70173 0.62471 0.0
H2583 H 0.03271 0.66897 0.59308 0.0
H2584 H 0.06296 0.57684 0.57233 0.0
H2585 H 0.06887 0.60812 0.59099 0.0
H2586 H 0.08532 0.64125 0.59458 0.0
C2587 C 0.07046 0.69955 0.63161 0.0
C2588 C 0.04434 0.66318 0.59338 0.0
C2589 C 0.06926 0.71237 0.64756 0.0
C2590 C 0.05999 0.58853 0.56508 0.0
C2591 C 0.06342 0.60647 0.57576 0.0
C2592 C 0.07389 0.64742 0.59394 0.0
C2593 C 0.05701 0.68416 0.62458 0.0
C2594 C 0.05842 0.67009 0.60818 0.0
C2595 C 0.05864 0.62177 0.5673 0.0
C2596 C 0.05945 0.63982 0.57978 0.0
H2597 H 0.02983 0.69225 0.65675 0.0
H2598 H 0.03193 0.66987 0.6289 0.0
H2599 H 0.08443 0.66751 0.61924 0.0
H2600 H 0.04181 0.59905 0.52181 0.0
H2601 H 0.04759 0.63059 0.54069 0.0
C2602 C 0.59566 0.81545 0.8529 0.0
C2603 C 0.5795 0.81832 0.84469 0.0
C2604 C 0.60911 0.81631 0.84201 0.0
C2605 C 0.63764 0.82432 0.81815 0.0
H2606 H 0.62457 0.79586 0.76649 0.0
C2607 C 0.68894 0.80247 0.77547 0.0
C2608 C 0.68564 0.78311 0.76839 0.0
C2609 C 0.67578 0.81118 0.78113 0.0
C2610 C 0.62843 0.80395 0.78084 0.0
H2611 H 0.56494 0.82546 0.8191 0.0
H2612 H 0.58852 0.82718 0.80012 0.0
H2613 H 0.60237 0.80364 0.78491 0.0
H2614 H 0.66574 0.75807 0.76021 0.0
H2615 H 0.64288 0.77309 0.77053 0.0
H2616 H 0.66363 0.82347 0.81464 0.0
C2617 C 0.59072 0.82394 0.81485 0.0
C2618 C 0.61572 0.8086 0.79133 0.0
C2619 C 0.57725 0.82303 0.82574 0.0
C2620 C 0.66871 0.77295 0.76587 0.0
C2621 C 0.65557 0.78164 0.77157 0.0
C2622 C 0.65035 0.8196 0.80769 0.0
C2623 C 0.60667 0.82013 0.8227 0.0
C2624 C 0.62017 0.81827 0.81037 0.0
C2625 C 0.65907 0.8007 0.77986 0.0
C2626 C 0.64585 0.80879 0.78919 0.0
H2627 H 0.59775 0.81181 0.86748 0.0
H2628 H 0.62114 0.81305 0.84843 0.0
H2629 H 0.64149 0.83206 0.83266 0.0
H2630 H 0.70188 0.81066 0.77771 0.0
H2631 H 0.67884 0.82595 0.78722 0.0
C2632 C 0.47583 0.53334 0.71689 0.0
C2633 C 0.46294 0.51755 0.7169 0.0
C2634 C 0.48299 0.53622 0.70009 0.0
C2635 C 0.4899 0.51228 0.65371 0.0
H2636 H 0.49364 0.56197 0.63763 0.0
C2637 C 0.51275 0.52647 0.58145 0.0
C2638 C 0.52449 0.54331 0.58185 0.0
C2639 C 0.50381 0.52361 0.59701 0.0
C2640 C 0.49285 0.54807 0.642 0.0
H2641 H 0.44779 0.49208 0.69957 0.0
H2642 H 0.46051 0.49697 0.67025 0.0
H2643 H 0.48181 0.55602 0.66719 0.0
H2644 H 0.53563 0.57067 0.59842 0.0
H2645 H 0.52037 0.56557 0.62581 0.0
H2646 H 0.50131 0.50437 0.62889 0.0
C2647 C 0.46502 0.50714 0.68322 0.0
C2648 C 0.48607 0.54467 0.65893 0.0
C2649 C 0.45773 0.50436 0.69998 0.0
C2650 C 0.52662 0.55756 0.59772 0.0
C2651 C 0.5178 0.55464 0.61338 0.0
C2652 C 0.49683 0.51571 0.63689 0.0
C2653 C 0.47752 0.52326 0.68303 0.0
C2654 C 0.48459 0.52677 0.66498 0.0
C2655 C 0.50655 0.53747 0.6134 0.0
C2656 C 0.49845 0.53367 0.63084 0.0
H2657 H 0.48009 0.54376 0.72971 0.0
H2658 H 0.49277 0.54864 0.70041 0.0
H2659 H 0.48905 0.4984 0.65815 0.0
H2660 H 0.51086 0.51523 0.56939 0.0
H2661 H 0.49497 0.51038 0.59634 0.0
C2662 C 0.8016 0.21895 0.0093 0.0
C2663 C 0.79379 0.20428 0.0184 0.0
C2664 C 0.79181 0.23058 1.0004 0.0
C2665 C 0.74944 0.22888 0.97451 0.0
H2666 H 0.77009 0.28041 0.97097 0.0
C2667 C 0.75337 0.25636 0.90367 0.0
C2668 C 0.75751 0.27579 0.90289 0.0
C2669 C 0.74941 0.24981 0.92077 0.0
C2670 C 0.76366 0.26626 0.972 0.0
H2671 H 0.76972 0.19059 0.02597 0.0
H2672 H 0.7524 0.21086 0.0099 0.0
H2673 H 0.78046 0.26548 0.99817 0.0
H2674 H 0.75844 0.30354 0.91843 0.0
H2675 H 0.7513 0.29208 0.94836 0.0
H2676 H 0.73315 0.22939 0.94784 0.0
C2677 C 0.76614 0.21337 0.00983 0.0
C2678 C 0.7698 0.25763 0.98755 0.0
C2679 C 0.77603 0.2018 0.01897 0.0
C2680 C 0.75568 0.28848 0.91881 0.0
C2681 C 0.75158 0.28191 0.93592 0.0
C2682 C 0.74317 0.23758 0.959 0.0
C2683 C 0.77394 0.22775 1.00027 0.0
C2684 C 0.76361 0.23846 0.98816 0.0
C2685 C 0.74945 0.26255 0.93747 0.0
C2686 C 0.75111 0.25591 0.95682 0.0
H2687 H 0.81527 0.22124 0.00872 0.0
H2688 H 0.79817 0.24128 0.99283 0.0
H2689 H 0.74429 0.21413 0.97471 0.0
H2690 H 0.75472 0.24621 0.89169 0.0
H2691 H 0.74801 0.23481 0.92135 0.0
C2692 C 0.15004 0.5198 0.22505 0.0
C2693 C 0.1423 0.51032 0.23911 0.0
C2694 C 0.14066 0.52086 0.20666 0.0
C2695 C 0.10033 0.49795 0.17142 0.0
H2696 H 0.10854 0.54347 0.1475 0.0
C2697 C 0.05604 0.50541 0.09987 0.0
C2698 C 0.06173 0.51778 0.08692 0.0
C2699 C 0.06609 0.50469 0.11787 0.0
C2700 C 0.1061 0.53043 0.1536 0.0
H2701 H 0.11817 0.49442 0.24416 0.0
H2702 H 0.10199 0.49592 0.21228 0.0
H2703 H 0.12508 0.54176 0.17891 0.0
H2704 H 0.08313 0.5391 0.08337 0.0
H2705 H 0.10094 0.53748 0.11425 0.0
H2706 H 0.08177 0.48631 0.14612 0.0
C2707 C 0.11543 0.50262 0.2154 0.0
C2708 C 0.1157 0.52948 0.17193 0.0
C2709 C 0.12476 0.5018 0.23389 0.0
C2710 C 0.07814 0.52935 0.09274 0.0
C2711 C 0.08837 0.52849 0.11078 0.0
C2712 C 0.0909 0.49879 0.15302 0.0
C2713 C 0.12311 0.51225 0.20133 0.0
C2714 C 0.11296 0.51326 0.18138 0.0
C2715 C 0.08258 0.51613 0.1239 0.0
C2716 C 0.09336 0.51512 0.14362 0.0
H2717 H 0.16344 0.52664 0.22831 0.0
H2718 H 0.14731 0.52826 0.19647 0.0
H2719 H 0.09787 0.48499 0.1777 0.0
H2720 H 0.04351 0.49629 0.09623 0.0
H2721 H 0.06056 0.49524 0.12721 0.0
C2722 C 0.80682 0.88776 0.48566 0.0
C2723 C 0.80896 0.87809 0.5018 0.0
C2724 C 0.80482 0.87824 0.46675 0.0
C2725 C 0.81332 0.8353 0.43911 0.0
H2726 H 0.78138 0.84734 0.39784 0.0
C2727 C 0.81433 0.81107 0.35796 0.0
C2728 C 0.79855 0.80534 0.34542 0.0
C2729 C 0.81493 0.81896 0.37723 0.0
C2730 C 0.79024 0.84366 0.40922 0.0
H2731 H 0.81055 0.85079 0.51076 0.0
H2732 H 0.80696 0.83415 0.47779 0.0
H2733 H 0.7834 0.86288 0.43101 0.0
H2734 H 0.77094 0.80321 0.34355 0.0
H2735 H 0.772 0.81687 0.37725 0.0
H2736 H 0.82007 0.81598 0.41736 0.0
C2737 C 0.80702 0.84914 0.47972 0.0
C2738 C 0.79155 0.85275 0.42821 0.0
C2739 C 0.80898 0.85866 0.49862 0.0
C2740 C 0.78334 0.80748 0.35276 0.0
C2741 C 0.78395 0.81543 0.37206 0.0
C2742 C 0.81205 0.82626 0.42011 0.0
C2743 C 0.80494 0.85882 0.46353 0.0
C2744 C 0.80318 0.84877 0.44339 0.0
C2745 C 0.79977 0.82137 0.38452 0.0
C2746 C 0.80057 0.83041 0.40489 0.0
H2747 H 0.80677 0.90274 0.48762 0.0
H2748 H 0.80348 0.8862 0.45465 0.0
H2749 H 0.82253 0.832 0.45038 0.0
H2750 H 0.82632 0.80968 0.35285 0.0
H2751 H 0.82735 0.82358 0.38631 0.0
C2752 C 0.46169 0.53818 0.83356 0.0
C2753 C 0.46346 0.52334 0.81979 0.0
C2754 C 0.47031 0.54038 0.8526 0.0
C2755 C 0.5054 0.52441 0.88344 0.0
H2756 H 0.48186 0.54109 0.92525 0.0
C2757 C 0.52428 0.51495 0.9638 0.0
C2758 C 0.52546 0.53077 0.97778 0.0
C2759 C 0.51786 0.51529 0.94434 0.0
C2760 C 0.48865 0.5366 0.9137 0.0
H2761 H 0.47562 0.49915 0.81507 0.0
H2762 H 0.49013 0.50246 0.84843 0.0
H2763 H 0.46834 0.53908 0.89164 0.0
H2764 H 0.52093 0.55941 0.98228 0.0
H2765 H 0.50932 0.55979 0.94826 0.0
H2766 H 0.52537 0.52119 0.90576 0.0
C2767 C 0.48252 0.5128 0.8445 0.0
C2768 C 0.48095 0.53551 0.8944 0.0
C2769 C 0.47411 0.5108 0.82537 0.0
C2770 C 0.52019 0.54699 0.97186 0.0
C2771 C 0.51349 0.54721 0.95243 0.0
C2772 C 0.51296 0.52521 0.90276 0.0
C2773 C 0.48069 0.52758 0.85842 0.0
C2774 C 0.48919 0.52933 0.87899 0.0
C2775 C 0.51224 0.53134 0.93851 0.0
C2776 C 0.50462 0.53125 0.91805 0.0
H2777 H 0.45366 0.54815 0.8296 0.0
H2778 H 0.46885 0.55216 0.86274 0.0
H2779 H 0.51232 0.51996 0.87202 0.0
H2780 H 0.52832 0.50228 0.96789 0.0
H2781 H 0.51692 0.50283 0.93391 0.0
C2782 C 0.84895 0.22604 0.0889 0.0
C2783 C 0.84423 0.20696 0.09111 0.0
C2784 C 0.8503 0.24011 0.10463 0.0
C2785 C 0.85168 0.24963 0.15787 0.0
H2786 H 0.82099 0.28387 0.14497 0.0
C2787 C 0.80475 0.29059 0.19909 0.0
C2788 C 0.81593 0.30036 0.21559 0.0
C2789 C 0.81132 0.28262 0.18333 0.0
C2790 C 0.82974 0.27454 0.14873 0.0
H2791 H 0.83874 0.18755 0.11177 0.0
H2792 H 0.84123 0.21211 0.13927 0.0
H2793 H 0.82874 0.26317 0.11903 0.0
H2794 H 0.84263 0.31 0.2286 0.0
H2795 H 0.85414 0.29572 0.20106 0.0
H2796 H 0.85206 0.26052 0.18767 0.0
C2797 C 0.84384 0.21622 0.12541 0.0
C2798 C 0.83431 0.26282 0.13391 0.0
C2799 C 0.84233 0.20215 0.10965 0.0
C2800 C 0.83378 0.30263 0.21591 0.0
C2801 C 0.84035 0.29438 0.20027 0.0
C2802 C 0.84727 0.26152 0.17269 0.0
C2803 C 0.84714 0.23532 0.12286 0.0
C2804 C 0.84493 0.24989 0.13837 0.0
C2805 C 0.82916 0.28409 0.18397 0.0
C2806 C 0.83587 0.27368 0.16825 0.0
H2807 H 0.85055 0.23015 0.07477 0.0
H2808 H 0.85304 0.25475 0.10234 0.0
H2809 H 0.85993 0.23981 0.16167 0.0
H2810 H 0.79095 0.28863 0.19866 0.0
H2811 H 0.80243 0.27456 0.171 0.0
C2812 C 0.12697 0.51145 0.34712 0.0
C2813 C 0.1451 0.51541 0.34868 0.0
C2814 C 0.1185 0.51319 0.36369 0.0
C2815 C 0.1259 0.51834 0.4196 0.0
H2816 H 0.08062 0.53103 0.41394 0.0
C2817 C 0.09088 0.5327 0.48836 0.0
C2818 C 0.0727 0.5294 0.48615 0.0
C2819 C 0.0998 0.53114 0.47208 0.0
C2820 C 0.09315 0.52719 0.41605 0.0
H2821 H 0.16823 0.52441 0.36984 0.0
H2822 H 0.15372 0.52749 0.39838 0.0
H2823 H 0.0953 0.52799 0.38585 0.0
H2824 H 0.05004 0.52158 0.46413 0.0
H2825 H 0.06519 0.51863 0.43636 0.0
H2826 H 0.12372 0.51751 0.44983 0.0
C2827 C 0.14585 0.5228 0.38431 0.0
C2828 C 0.10174 0.52543 0.3996 0.0
C2829 C 0.15432 0.52112 0.36771 0.0
C2830 C 0.06396 0.52441 0.46684 0.0
C2831 C 0.07283 0.52283 0.45061 0.0
C2832 C 0.11727 0.52006 0.43608 0.0
C2833 C 0.12766 0.51894 0.38281 0.0
C2834 C 0.11838 0.52092 0.40082 0.0
C2835 C 0.09103 0.52618 0.45267 0.0
C2836 C 0.10059 0.52449 0.43482 0.0
H2837 H 0.1192 0.50698 0.33295 0.0
H2838 H 0.1046 0.5097 0.36138 0.0
H2839 H 0.13848 0.51459 0.42165 0.0
H2840 H 0.09833 0.53658 0.50277 0.0
H2841 H 0.1137 0.53414 0.47484 0.0
C2842 C 0.81813 0.88725 0.62619 0.0
C2843 C 0.81446 0.8776 0.60714 0.0
C2844 C 0.81735 0.87734 0.64219 0.0
C2845 C 0.81761 0.82974 0.65681 0.0
H2846 H 0.79674 0.84886 0.69989 0.0
C2847 C 0.79804 0.78476 0.71648 0.0
C2848 C 0.79963 0.79388 0.73558 0.0
C2849 C 0.80128 0.79516 0.70125 0.0
C2850 C 0.80285 0.84343 0.68815 0.0
H2851 H 0.80717 0.84992 0.58998 0.0
H2852 H 0.80569 0.83268 0.61779 0.0
H2853 H 0.79956 0.86665 0.67268 0.0
H2854 H 0.80642 0.821 0.75381 0.0
H2855 H 0.81241 0.8391 0.72739 0.0
H2856 H 0.82081 0.80645 0.67224 0.0
C2857 C 0.80937 0.8479 0.62044 0.0
C2858 C 0.80446 0.85366 0.67249 0.0
C2859 C 0.81011 0.8578 0.60446 0.0
C2860 C 0.80507 0.81355 0.73924 0.0
C2861 C 0.80834 0.82395 0.72404 0.0
C2862 C 0.81603 0.81952 0.67249 0.0
C2863 C 0.81293 0.85752 0.63954 0.0
C2864 C 0.81176 0.8469 0.65654 0.0
C2865 C 0.80622 0.81494 0.70477 0.0
C2866 C 0.80854 0.82616 0.68835 0.0
H2867 H 0.82157 0.9025 0.62875 0.0
H2868 H 0.82037 0.88522 0.65667 0.0
H2869 H 0.82355 0.82424 0.64495 0.0
H2870 H 0.79382 0.76962 0.71319 0.0
H2871 H 0.79934 0.78771 0.68662 0.0
C2872 C 0.70226 0.40679 0.49611 0.0
C2873 C 0.71362 0.39722 0.50618 0.0
C2874 C 0.68933 0.41318 0.50499 0.0
C2875 C 0.65942 0.42064 0.52484 0.0
H2876 H 0.67695 0.4506 0.57517 0.0
C2877 C 0.621 0.47215 0.55647 0.0
C2878 C 0.63063 0.49051 0.56188 0.0
C2879 C 0.62922 0.45679 0.55437 0.0
C2880 C 0.67181 0.44217 0.56121 0.0
H2881 H 0.7198 0.3858 0.53298 0.0
H2882 H 0.69715 0.3971 0.54857 0.0
H2883 H 0.69417 0.42974 0.56079 0.0
H2884 H 0.65626 0.50717 0.57068 0.0
H2885 H 0.67075 0.48041 0.56654 0.0
H2886 H 0.63764 0.43396 0.52454 0.0
C2887 C 0.69834 0.39973 0.53386 0.0
C2888 C 0.68158 0.43008 0.55306 0.0
C2889 C 0.71122 0.39321 0.5249 0.0
C2890 C 0.64857 0.49313 0.56653 0.0
C2891 C 0.65683 0.47777 0.56424 0.0
C2892 C 0.64967 0.43271 0.53296 0.0
C2893 C 0.68755 0.41019 0.52416 0.0
C2894 C 0.67575 0.41975 0.53446 0.0
C2895 C 0.64725 0.45954 0.55742 0.0
C2896 C 0.65604 0.44413 0.55091 0.0
H2897 H 0.7038 0.41004 0.48166 0.0
H2898 H 0.68134 0.42138 0.49721 0.0
H2899 H 0.65453 0.41267 0.51059 0.0
H2900 H 0.60712 0.46976 0.55307 0.0
H2901 H 0.62147 0.44288 0.54949 0.0
C2902 C 0.21626 0.10903 0.49942 0.0
C2903 C 0.22386 0.12484 0.51319 0.0
C2904 C 0.2 0.09866 0.50068 0.0
C2905 C 0.16973 0.08881 0.5357 0.0
H2906 H 0.13553 0.07182 0.48962 0.0
C2907 C 0.09963 0.05505 0.54095 0.0
C2908 C 0.09127 0.03996 0.52668 0.0
C2909 C 0.11554 0.06569 0.53896 0.0
C2910 C 0.14497 0.07624 0.50264 0.0
H2911 H 0.22028 0.14218 0.53906 0.0
H2912 H 0.19209 0.12419 0.54125 0.0
H2913 H 0.16384 0.08924 0.48673 0.0
H2914 H 0.09306 0.02415 0.49917 0.0
H2915 H 0.12089 0.04235 0.49585 0.0
H2916 H 0.15104 0.07567 0.55162 0.0
C2917 C 0.19869 0.11965 0.52956 0.0
C2918 C 0.16124 0.08625 0.50095 0.0
C2919 C 0.21484 0.13004 0.52822 0.0
C2920 C 0.09913 0.03578 0.51036 0.0
C2921 C 0.11507 0.04633 0.5084 0.0
C2922 C 0.15352 0.07871 0.53738 0.0
C2923 C 0.19104 0.1038 0.51584 0.0
C2924 C 0.17381 0.09274 0.51748 0.0
C2925 C 0.12358 0.0614 0.52272 0.0
C2926 C 0.14086 0.07231 0.52089 0.0
H2927 H 0.22288 0.10465 0.48767 0.0
H2928 H 0.19456 0.08645 0.48995 0.0
H2929 H 0.17917 0.09332 0.54871 0.0
H2930 H 0.09395 0.05853 0.55377 0.0
H2931 H 0.1215 0.07733 0.55016 0.0
C2932 C 0.19406 1.00817 0.7975 0.0
C2933 C 0.18049 1.00754 0.8084 0.0
C2934 C 0.20353 0.99371 0.79683 0.0
C2935 C 0.21598 0.95689 0.82408 0.0
H2936 H 0.22515 0.9342 0.77472 0.0
C2937 C 0.24717 0.89106 0.81802 0.0
C2938 C 0.25893 0.89006 0.80491 0.0
C2939 C 0.23741 0.90526 0.81827 0.0
C2940 C 0.22293 0.94055 0.78867 0.0
H2941 H 0.1662 0.99137 0.82719 0.0
H2942 H 0.18288 0.96624 0.82618 0.0
H2943 H 0.20876 0.95954 0.77552 0.0
H2944 H 0.26998 0.90326 0.78206 0.0
H2945 H 0.2533 0.92831 0.78279 0.0
H2946 H 0.2304 0.93827 0.83735 0.0
C2947 C 0.18618 0.9779 0.81817 0.0
C2948 C 0.21349 0.95502 0.78909 0.0
C2949 C 0.17659 0.99223 0.81866 0.0
C2950 C 0.26083 0.90356 0.79214 0.0
C2951 C 0.25121 0.91787 0.79253 0.0
C2952 C 0.22557 0.94256 0.8237 0.0
C2953 C 0.19973 0.97849 0.80724 0.0
C2954 C 0.20989 0.96329 0.80679 0.0
C2955 C 0.23935 0.91889 0.80557 0.0
C2956 C 0.22913 0.93416 0.80598 0.0
H2957 H 0.19734 0.01981 0.78945 0.0
H2958 H 0.214 0.99457 0.78841 0.0
H2959 H 0.21355 0.96319 0.83796 0.0
H2960 H 0.24533 0.8807 0.82787 0.0
H2961 H 0.22819 0.9054 0.82828 0.0
C2962 C 0.29996 0.95532 0.00954 0.0
C2963 C 0.29735 0.94005 0.99458 0.0
C2964 C 0.31294 0.971 0.00995 0.0
C2965 C 0.34388 0.99459 0.98125 0.0
H2966 H 0.37625 1.00159 0.02903 0.0
C2967 C 0.41619 0.0118 0.98316 0.0
C2968 C 0.42709 0.02167 0.9999 0.0
C2969 C 0.39843 1.00806 0.98261 0.0
C2970 C 0.36724 1.00032 0.01576 0.0
H2971 H 0.30527 0.92974 0.96762 0.0
H2972 H 0.32782 0.95711 0.96826 0.0
H2973 H 0.34737 0.98371 0.02751 0.0
H2974 H 0.42783 0.03636 0.02877 0.0
H2975 H 0.39665 0.02982 0.02782 0.0
H2976 H 0.364 1.01054 0.96925 0.0
C2977 C 0.3199 0.95702 0.97966 0.0
C2978 C 0.35066 0.99003 0.01489 0.0
C2979 C 0.30708 0.94128 0.97937 0.0
C2980 C 0.41976 0.02849 0.01577 0.0
C2981 C 0.40192 0.02478 0.01521 0.0
C2982 C 0.36043 1.00503 0.98216 0.0
C2983 C 0.32332 0.97176 0.99528 0.0
C2984 C 0.33909 0.98635 0.99738 0.0
C2985 C 0.39109 0.01411 0.99878 0.0
C2986 C 0.37255 1.00723 0.99915 0.0
H2987 H 0.29259 0.95475 0.02143 0.0
H2988 H 0.31528 0.98222 0.0221 0.0
H2989 H 0.3351 0.99218 0.96766 0.0
H2990 H 0.42141 1.00606 0.97079 0.0
H2991 H 0.39057 0.99946 0.96987 0.0
C2992 C 0.89907 0.61823 0.78153 0.0
C2993 C 0.89012 0.59966 0.77434 0.0
C2994 C 0.89066 0.63405 0.78211 0.0
C2995 C 0.84588 0.64772 0.77831 0.0
H2996 H 0.87095 0.69732 0.77443 0.0
C2997 C 0.80971 0.71256 0.77411 0.0
C2998 C 0.81859 0.73139 0.77987 0.0
C2999 C 0.81836 0.69696 0.77334 0.0
C3000 C 0.86355 0.68375 0.77582 0.0
H3001 H 0.86471 0.58397 0.76208 0.0
H3002 H 0.85025 0.61103 0.76298 0.0
H3003 H 0.88549 0.67049 0.77343 0.0
H3004 H 0.84424 0.74772 0.78954 0.0
H3005 H 0.85915 0.72106 0.78846 0.0
H3006 H 0.82401 0.66089 0.78091 0.0
C3007 C 0.86387 0.61358 0.76845 0.0
C3008 C 0.87208 0.66802 0.77521 0.0
C3009 C 0.8723 0.59779 0.76779 0.0
C3010 C 0.83667 0.73372 0.78482 0.0
C3011 C 0.84536 0.71811 0.78411 0.0
C3012 C 0.83737 0.66345 0.77901 0.0
C3013 C 0.87276 0.63225 0.77563 0.0
C3014 C 0.86352 0.64947 0.77639 0.0
C3015 C 0.83649 0.69916 0.77839 0.0
C3016 C 0.84588 0.68201 0.77774 0.0
H3017 H 0.91272 0.62062 0.78683 0.0
H3018 H 0.89832 0.64777 0.78801 0.0
H3019 H 0.83851 0.63412 0.77967 0.0
H3020 H 0.79586 0.70975 0.77009 0.0
H3021 H 0.81063 0.68308 0.76848 0.0
C3022 C 0.81526 0.61266 0.02143 0.0
C3023 C 0.81615 0.63092 0.01635 0.0
C3024 C 0.82986 0.6043 0.02287 0.0
C3025 C 0.87759 0.61613 0.02965 0.0
H3026 H 0.87367 0.56298 0.01154 0.0
C3027 C 0.93754 0.58103 0.02831 0.0
C3028 C 0.9363 0.5629 0.03388 0.0
C3029 C 0.92297 0.58933 0.02549 0.0
C3030 C 0.875 0.5778 0.01688 0.0
H3031 H 0.83309 0.65463 0.0086 0.0
H3032 H 0.85844 0.64005 0.01095 0.0
H3033 H 0.84819 0.57726 0.00802 0.0
H3034 H 0.91846 0.53917 0.04031 0.0
H3035 H 0.89329 0.55374 0.03586 0.0
H3036 H 0.90438 0.61666 0.03864 0.0
C3037 C 0.84654 0.63223 0.01407 0.0
C3038 C 0.86035 0.58601 0.01485 0.0
C3039 C 0.83195 0.64056 0.01259 0.0
C3040 C 0.92003 0.55325 0.03632 0.0
C3041 C 0.90549 0.56153 0.03349 0.0
C3042 C 0.89225 0.60792 0.03171 0.0
C3043 C 0.84573 0.61401 0.01932 0.0
C3044 C 0.86141 0.60528 0.02126 0.0
C3045 C 0.90673 0.57972 0.02809 0.0
C3046 C 0.89117 0.58862 0.02542 0.0
H3047 H 0.80331 0.60487 0.02447 0.0
H3048 H 0.82876 0.59035 0.02715 0.0
H3049 H 0.8789 0.63095 0.03503 0.0
H3050 H 0.94984 0.58895 0.02641 0.0
H3051 H 0.92442 0.60327 0.02112 0.0
C3052 C 0.19645 0.11109 0.82865 0.0
C3053 C 0.18543 0.10197 0.81167 0.0
C3054 C 0.20767 0.12808 0.82841 0.0
C3055 C 0.21419 0.16858 0.80131 0.0
H3056 H 0.2622 0.17453 0.82358 0.0
C3057 C 0.26593 0.22692 0.78401 0.0
C3058 C 0.27951 0.23562 0.79878 0.0
C3059 C 0.25411 0.21141 0.78699 0.0
C3060 C 0.24879 0.17326 0.81758 0.0
H3061 H 0.17735 0.10352 0.78121 0.0
H3062 H 0.19683 0.13321 0.78083 0.0
H3063 H 0.24206 0.14601 0.82639 0.0
H3064 H 0.29146 0.23509 0.82824 0.0
H3065 H 0.27062 0.20803 0.83364 0.0
H3066 H 0.22081 0.19576 0.7925 0.0
C3067 C 0.19677 0.12728 0.79433 0.0
C3068 C 0.23726 0.15689 0.81916 0.0
C3069 C 0.1857 0.11023 0.79452 0.0
C3070 C 0.28109 0.22856 0.81662 0.0
C3071 C 0.26921 0.21305 0.81965 0.0
C3072 C 0.22566 0.18499 0.79985 0.0
C3073 C 0.20791 0.13637 0.81124 0.0
C3074 C 0.2199 0.15426 0.81077 0.0
C3075 C 0.25558 0.20425 0.80484 0.0
C3076 C 0.24316 0.1874 0.80769 0.0
H3077 H 0.19651 0.10503 0.84208 0.0
H3078 H 0.21603 0.13484 0.84169 0.0
H3079 H 0.20082 0.16707 0.79499 0.0
H3080 H 0.2646 0.23189 0.76999 0.0
H3081 H 0.24402 0.20477 0.77512 0.0
C3082 C 0.37143 0.98793 0.26744 0.0
C3083 C 0.3895 0.99338 0.27192 0.0
C3084 C 0.36299 0.96915 0.26788 0.0
C3085 C 0.36953 0.92399 0.2878 0.0
H3086 H 0.32848 0.90106 0.25133 0.0
C3087 C 0.32855 0.85066 0.29608 0.0
C3088 C 0.32043 0.83796 0.27934 0.0
C3089 C 0.33683 0.86924 0.29484 0.0
C3090 C 0.33999 0.90707 0.26162 0.0
H3091 H 0.41262 0.98266 0.28039 0.0
H3092 H 0.39814 0.95036 0.28121 0.0
H3093 H 0.3428 0.93331 0.24974 0.0
H3094 H 0.3149 0.8356 0.24797 0.0
H3095 H 0.32918 0.86782 0.24579 0.0
H3096 H 0.36682 0.89779 0.29963 0.0
C3097 C 0.39032 0.96056 0.27746 0.0
C3098 C 0.34818 0.92585 0.26084 0.0
C3099 C 0.39874 0.97925 0.27685 0.0
C3100 C 0.32093 0.84474 0.26127 0.0
C3101 C 0.3291 0.86344 0.26003 0.0
C3102 C 0.36125 0.90531 0.2887 0.0
C3103 C 0.37223 0.95502 0.27301 0.0
C3104 C 0.3632 0.93477 0.27388 0.0
C3105 C 0.33731 0.87615 0.2768 0.0
C3106 C 0.34628 0.89634 0.27563 0.0
H3107 H 0.36373 0.99823 0.26361 0.0
H3108 H 0.3491 0.96584 0.26452 0.0
H3109 H 0.38086 0.93006 0.29833 0.0
H3110 H 0.32853 0.84627 0.31033 0.0
H3111 H 0.34265 0.87834 0.30822 0.0
C3112 C 0.57229 0.36633 0.63404 0.0
C3113 C 0.57024 0.34857 0.62284 0.0
C3114 C 0.57096 0.38243 0.6251 0.0
C3115 C 0.55358 0.39697 0.57825 0.0
H3116 H 0.58092 0.44573 0.60103 0.0
C3117 C 0.53844 0.46611 0.55301 0.0
C3118 C 0.55208 0.48119 0.55298 0.0
C3119 C 0.5414 0.44985 0.56078 0.0
C3120 C 0.5733 0.43222 0.59429 0.0
H3121 H 0.5656 0.33389 0.59341 0.0
H3122 H 0.56374 0.36192 0.5778 0.0
H3123 H 0.58522 0.41781 0.61574 0.0
H3124 H 0.57963 0.49075 0.561 0.0
H3125 H 0.58482 0.46226 0.57421 0.0
H3126 H 0.54199 0.41125 0.55651 0.0
C3127 C 0.56595 0.36344 0.59353 0.0
C3128 C 0.5756 0.41617 0.60293 0.0
C3129 C 0.56714 0.34734 0.60248 0.0
C3130 C 0.56881 0.47943 0.56068 0.0
C3131 C 0.57177 0.46311 0.56843 0.0
C3132 C 0.55136 0.41298 0.56955 0.0
C3133 C 0.56768 0.38123 0.6047 0.0
C3134 C 0.56568 0.39831 0.59514 0.0
C3135 C 0.55809 0.4481 0.5687 0.0
C3136 C 0.56106 0.43089 0.57753 0.0
H3137 H 0.57461 0.36776 0.64977 0.0
H3138 H 0.57212 0.39576 0.63425 0.0
H3139 H 0.54553 0.38357 0.57189 0.0
H3140 H 0.52536 0.46696 0.54734 0.0
H3141 H 0.53045 0.43882 0.561 0.0
C3142 C 0.45845 0.77395 0.39637 0.0
C3143 C 0.46932 0.7633 0.38781 0.0
C3144 C 0.4422 0.77457 0.38644 0.0
C3145 C 0.40772 0.74842 0.34824 0.0
H3146 H 0.39414 0.79675 0.34474 0.0
C3147 C 0.3464 0.75466 0.29759 0.0
C3148 C 0.33717 0.76874 0.30276 0.0
C3149 C 0.36218 0.75397 0.30853 0.0
C3150 C 0.39751 0.78307 0.34583 0.0
H3151 H 0.47152 0.74476 0.36218 0.0
H3152 H 0.44291 0.74549 0.34499 0.0
H3153 H 0.4221 0.79544 0.36274 0.0
H3154 H 0.33706 0.79294 0.32373 0.0
H3155 H 0.36432 0.79138 0.34339 0.0
H3156 H 0.38309 0.73591 0.33189 0.0
C3157 C 0.44705 0.75345 0.35937 0.0
C3158 C 0.41364 0.78236 0.35608 0.0
C3159 C 0.46345 0.75308 0.36918 0.0
C3160 C 0.34393 0.78197 0.31935 0.0
C3161 C 0.35966 0.78114 0.33052 0.0
C3162 C 0.3915 0.74909 0.33826 0.0
C3163 C 0.43629 0.76431 0.36783 0.0
C3164 C 0.41899 0.76504 0.35726 0.0
C3165 C 0.36911 0.76717 0.3252 0.0
C3166 C 0.38618 0.76644 0.33669 0.0
H3167 H 0.4626 0.78203 0.41068 0.0
H3168 H 0.43416 0.78295 0.39341 0.0
H3169 H 0.41137 0.73484 0.34914 0.0
H3170 H 0.34158 0.74431 0.28481 0.0
H3171 H 0.36909 0.74325 0.3036 0.0
C3172 C 0.04826 0.72786 0.12026 0.0
C3173 C 0.06013 0.74259 0.11546 0.0
C3174 C 0.04614 0.70953 0.11053 0.0
C3175 C 0.069 0.67783 0.0848 0.0
H3176 H 0.02366 0.64785 0.06547 0.0
C3177 C 0.06035 0.60157 0.04562 0.0
C3178 C 0.04655 0.58827 0.04921 0.0
C3179 C 0.06163 0.62082 0.05189 0.0
C3180 C 0.03643 0.65589 0.071 0.0
H3181 H 0.07905 0.74967 0.09667 0.0
H3182 H 0.07559 0.71749 0.07993 0.0
H3183 H 0.02655 0.6805 0.08014 0.0
H3184 H 0.02321 0.58488 0.06219 0.0
H3185 H 0.02573 0.61812 0.07366 0.0
H3186 H 0.07894 0.65316 0.07649 0.0
C3187 C 0.06786 0.7202 0.09114 0.0
C3188 C 0.03806 0.67466 0.07932 0.0
C3189 C 0.06977 0.73862 0.10065 0.0
C3190 C 0.03396 0.59471 0.05902 0.0
C3191 C 0.03536 0.61389 0.06551 0.0
C3192 C 0.06737 0.65897 0.07676 0.0
C3193 C 0.05605 0.70546 0.09602 0.0
C3194 C 0.05435 0.68579 0.0864 0.0
C3195 C 0.04926 0.62725 0.06215 0.0
C3196 C 0.05105 0.64766 0.06985 0.0
H3197 H 0.04065 0.73049 0.1316 0.0
H3198 H 0.03704 0.69842 0.11469 0.0
H3199 H 0.08172 0.68603 0.09033 0.0
H3200 H 0.07021 0.59712 0.03798 0.0
H3201 H 0.07234 0.63064 0.04865 0.0
C3202 C 0.06132 0.26347 0.86973 0.0
C3203 C 0.0625 0.26455 0.89002 0.0
C3204 C 0.07615 0.26436 0.86089 0.0
C3205 C 0.12362 0.28012 0.87144 0.0
H3206 H 0.12312 0.24725 0.82375 0.0
C3207 C 0.18588 0.27376 0.83898 0.0
C3208 C 0.1848 0.272 0.81864 0.0
C3209 C 0.171 0.2729 0.84771 0.0
C3210 C 0.12346 0.2567 0.83694 0.0
H3211 H 0.08018 0.26731 0.91693 0.0
H3212 H 0.1059 0.26874 0.90158 0.0
H3213 H 0.09709 0.24577 0.8386 0.0
H3214 H 0.16713 0.26852 0.79161 0.0
H3215 H 0.14134 0.26709 0.80674 0.0
H3216 H 0.14995 0.29111 0.86977 0.0
C3217 C 0.0936 0.26744 0.89245 0.0
C3218 C 0.10849 0.25585 0.84547 0.0
C3219 C 0.07881 0.26649 0.90125 0.0
C3220 C 0.16847 0.26954 0.80729 0.0
C3221 C 0.15362 0.26871 0.81599 0.0
C3222 C 0.13857 0.28101 0.8629 0.0
C3223 C 0.0925 0.26643 0.87215 0.0
C3224 C 0.10837 0.26752 0.86286 0.0
C3225 C 0.15465 0.27031 0.83632 0.0
C3226 C 0.13872 0.2693 0.84553 0.0
H3227 H 0.04896 0.26201 0.86067 0.0
H3228 H 0.07482 0.26372 0.84523 0.0
H3229 H 0.12395 0.28954 0.88467 0.0
H3230 H 0.19821 0.27547 0.84818 0.0
H3231 H 0.1723 0.27394 0.86339 0.0
C3232 C 0.53787 0.74042 0.88855 0.0
C3233 C 0.53086 0.75558 0.89611 0.0
C3234 C 0.53637 0.72384 0.89704 0.0
C3235 C 0.5129 0.69813 0.93156 0.0
H3236 H 0.55344 0.67555 0.93874 0.0
C3237 C 0.52567 0.65082 0.99026 0.0
C3238 C 0.53259 0.63475 0.98523 0.0
C3239 C 0.52361 0.66358 0.97709 0.0
C3240 C 0.54193 0.68152 0.93658 0.0
H3241 H 0.51663 0.76528 0.91827 0.0
H3242 H 0.51446 0.73667 0.93341 0.0
H3243 H 0.55333 0.70165 0.91983 0.0
H3244 H 0.54217 0.61917 0.96209 0.0
H3245 H 0.53892 0.64179 0.93925 0.0
H3246 H 0.50183 0.67842 0.94906 0.0
C3247 C 0.52075 0.7373 0.92067 0.0
C3248 C 0.54183 0.69645 0.9257 0.0
C3249 C 0.52211 0.75378 0.91209 0.0
C3250 C 0.5371 0.63158 0.96657 0.0
C3251 C 0.53518 0.64446 0.95345 0.0
C3252 C 0.51307 0.68331 0.94259 0.0
C3253 C 0.52797 0.72217 0.91335 0.0
C3254 C 0.52743 0.70515 0.92334 0.0
C3255 C 0.52856 0.66066 0.95867 0.0
C3256 C 0.52768 0.67507 0.94545 0.0
H3257 H 0.54457 0.7414 0.87614 0.0
H3258 H 0.54186 0.71236 0.89085 0.0
H3259 H 0.50146 0.70424 0.92968 0.0
H3260 H 0.52232 0.65387 1.0046 0.0
H3261 H 0.51871 0.67611 0.98159 0.0
C3262 C 0.10669 0.77747 0.74496 0.0
C3263 C 0.09862 0.75915 0.73641 0.0
C3264 C 0.12418 0.78137 0.75255 0.0
C3265 C 0.16192 0.75867 0.76496 0.0
H3266 H 0.18723 0.80358 0.7494 0.0
C3267 C 0.23201 0.76633 0.75266 0.0
C3268 C 0.24339 0.78292 0.76155 0.0
C3269 C 0.21439 0.76467 0.75271 0.0
C3270 C 0.18031 0.79115 0.75408 0.0
H3271 H 0.1022 0.73037 0.72989 0.0
H3272 H 0.13272 0.7372 0.74252 0.0
H3273 H 0.15593 0.79822 0.74503 0.0
H3274 H 0.24526 0.81095 0.77708 0.0
H3275 H 0.21423 0.80816 0.77663 0.0
H3276 H 0.1864 0.75117 0.77295 0.0
C3277 C 0.1256 0.74854 0.74382 0.0
C3278 C 0.16238 0.78809 0.7517 0.0
C3279 C 0.10809 0.74462 0.73644 0.0
C3280 C 0.23678 0.798 0.7701 0.0
C3281 C 0.21908 0.79643 0.76987 0.0
C3282 C 0.17982 0.76162 0.76709 0.0
C3283 C 0.13395 0.76706 0.75151 0.0
C3284 C 0.15296 0.77158 0.75669 0.0
C3285 C 0.2078 0.77964 0.76141 0.0
C3286 C 0.18911 0.77766 0.76126 0.0
H3287 H 0.09961 0.78891 0.74527 0.0
H3288 H 0.13013 0.7957 0.75873 0.0
H3289 H 0.15509 0.74602 0.76935 0.0
H3290 H 0.23672 0.75442 0.74608 0.0
H3291 H 0.20588 0.75169 0.74586 0.0
C3292 C 0.03126 0.34526 0.4452 0.0
C3293 C 0.02543 0.34628 0.42562 0.0
C3294 C 0.02984 0.35944 0.45975 0.0
C3295 C 1.00861 0.40052 0.46924 0.0
H3296 H 0.049 0.41896 0.50825 0.0
C3297 C 0.02791 0.47655 0.50755 0.0
C3298 C 0.03556 0.47991 0.52713 0.0
C3299 C 0.02328 0.45821 0.49777 0.0
C3300 C 0.03746 0.41374 0.49773 0.0
H3301 H 0.01331 0.36269 0.40586 0.0
H3302 H 0.01128 0.38772 0.43114 0.0
H3303 H 0.04765 0.39046 0.48587 0.0
H3304 H 0.04362 0.46683 0.55221 0.0
H3305 H 0.03573 0.4346 0.53495 0.0
H3306 H 0.99888 0.42448 0.48057 0.0
C3307 C 0.0166 0.37579 0.43537 0.0
C3308 C 0.03668 0.3974 0.48488 0.0
C3309 C 0.01791 0.36155 0.42086 0.0
C3310 C 0.03778 0.46458 0.53707 0.0
C3311 C 0.03332 0.4462 0.52722 0.0
C3312 C 0.00946 0.41696 0.48201 0.0
C3313 C 0.02266 0.37498 0.45498 0.0
C3314 C 0.02244 0.39087 0.47016 0.0
C3315 C 0.02637 0.4429 0.50737 0.0
C3316 C 0.02408 0.42396 0.49605 0.0
H3317 H 0.03698 0.33353 0.4493 0.0
H3318 H 0.03443 0.35826 0.47473 0.0
H3319 H 0.99729 0.39563 0.45833 0.0
H3320 H 0.02612 0.48814 0.49953 0.0
H3321 H 0.01815 0.45611 0.48242 0.0
C3322 C 0.51686 0.24309 0.25184 0.0
C3323 C 0.51343 0.23973 0.23144 0.0
C3324 C 0.50336 0.24247 0.26269 0.0
C3325 C 0.45556 0.22996 0.25849 0.0
H3326 H 0.46151 0.27543 0.2954 0.0
C3327 C 0.40282 0.27157 0.26839 0.0
C3328 C 0.40009 0.27802 0.2872 0.0
C3329 C 0.41652 0.2626 0.26571 0.0
C3330 C 0.45975 0.26244 0.28551 0.0
H3331 H 0.49332 0.23193 0.20641 0.0
H3332 H 0.46985 0.23132 0.22515 0.0
H3333 H 0.48643 0.26638 0.28307 0.0
H3334 H 0.40977 0.28007 0.31797 0.0
H3335 H 0.4344 0.26512 0.3131 0.0
H3336 H 0.42863 0.22701 0.25982 0.0
C3337 C 0.48287 0.23412 0.23292 0.0
C3338 C 0.47402 0.25719 0.27846 0.0
C3339 C 0.49633 0.23465 0.22212 0.0
C3340 C 0.41161 0.27549 0.30328 0.0
C3341 C 0.42557 0.26678 0.30055 0.0
C3342 C 0.44129 0.23534 0.26538 0.0
C3343 C 0.48622 0.23855 0.2533 0.0
C3344 C 0.47196 0.24137 0.26419 0.0
C3345 C 0.42803 0.26016 0.28173 0.0
C3346 C 0.44322 0.25205 0.27829 0.0
H3347 H 0.52996 0.24686 0.25941 0.0
H3348 H 0.50636 0.24568 0.27837 0.0
H3349 H 0.45361 0.21745 0.24788 0.0
H3350 H 0.39454 0.2737 0.25563 0.0
H3351 H 0.41843 0.25805 0.25102 0.0
C3352 C 0.63906 0.54464 0.37559 0.0
C3353 C 0.62982 0.54957 0.35905 0.0
C3354 C 0.63132 0.54167 0.39198 0.0
C3355 C 0.59608 0.55266 0.41708 0.0
H3356 H 0.60179 0.50857 0.4419 0.0
C3357 C 0.57349 0.54213 0.49023 0.0
C3358 C 0.5634 0.52446 0.491 0.0
C3359 C 0.5826 0.5449 0.47481 0.0
C3360 C 0.60007 0.52091 0.43509 0.0
H3361 H 0.6053 0.55554 0.34681 0.0
H3362 H 0.59177 0.55051 0.37563 0.0
H3363 H 0.61526 0.51428 0.4132 0.0
H3364 H 0.55562 0.4956 0.47687 0.0
H3365 H 0.57174 0.5004 0.44987 0.0
H3366 H 0.58083 0.55925 0.43888 0.0
C3367 C 0.60503 0.54897 0.37586 0.0
C3368 C 0.60786 0.52425 0.41877 0.0
C3369 C 0.61275 0.5518 0.35937 0.0
C3370 C 0.56328 0.50936 0.47658 0.0
C3371 C 0.57252 0.5121 0.46118 0.0
C3372 C 0.58843 0.54942 0.4335 0.0
C3373 C 0.61419 0.54369 0.39226 0.0
C3374 C 0.60592 0.54015 0.40958 0.0
C3375 C 0.58193 0.53003 0.45991 0.0
C3376 C 0.59034 0.53351 0.44267 0.0
H3377 H 0.65225 0.54281 0.37579 0.0
H3378 H 0.63876 0.53785 0.40449 0.0
H3379 H 0.59446 0.56508 0.41039 0.0
H3380 H 0.57384 0.55403 0.50116 0.0
H3381 H 0.58996 0.55879 0.47436 0.0
C3382 C 0.30728 0.85197 0.03302 0.0
C3383 C 0.30231 0.8692 0.03838 0.0
C3384 C 0.31664 0.84368 0.0468 0.0
C3385 C 0.34062 0.8516 0.09716 0.0
H3386 H 0.31578 0.8014 0.09949 0.0
C3387 C 0.33218 0.82259 0.16817 0.0
C3388 C 0.32832 0.80302 0.16838 0.0
C3389 C 0.33562 0.8298 0.15118 0.0
C3390 C 0.3233 0.81516 0.09891 0.0
H3391 H 0.30426 0.89194 0.06187 0.0
H3392 H 0.32044 0.87744 0.08595 0.0
H3393 H 0.3099 0.81616 0.07073 0.0
H3394 H 0.32668 0.77572 0.15134 0.0
H3395 H 0.33336 0.78834 0.122 0.0
H3396 H 0.3535 0.85084 0.12578 0.0
C3397 C 0.31724 0.87036 0.07112 0.0
C3398 C 0.31987 0.82366 0.08235 0.0
C3399 C 0.30782 0.87859 0.05738 0.0
C3400 C 0.32957 0.79088 0.15174 0.0
C3401 C 0.33321 0.79811 0.13481 0.0
C3402 C 0.34417 0.84301 0.11372 0.0
C3403 C 0.32127 0.85254 0.06613 0.0
C3404 C 0.32795 0.84226 0.08164 0.0
C3405 C 0.33547 0.81761 0.13406 0.0
C3406 C 0.33498 0.82501 0.11512 0.0
H3407 H 0.30331 0.84449 0.01841 0.0
H3408 H 0.31969 0.83001 0.04253 0.0
H3409 H 0.34723 0.86586 0.09685 0.0
H3410 H 0.33176 0.83235 0.18089 0.0
H3411 H 0.33723 0.84489 0.1512 0.0
C3412 C 0.93593 0.54557 0.84667 0.0
C3413 C 0.94444 0.54994 0.83085 0.0
C3414 C 0.94511 0.54394 0.86499 0.0
C3415 C 0.98913 0.53803 0.88932 0.0
H3416 H 0.97181 0.55052 0.93728 0.0
C3417 C 0.0323 0.54185 0.96427 0.0
C3418 C 0.02528 0.53686 0.98086 0.0
C3419 C 0.02189 0.54318 0.94678 0.0
C3420 C 0.97687 0.54673 0.9241 0.0
H3421 H 0.96975 0.55614 0.82262 0.0
H3422 H 0.98565 0.55361 0.85419 0.0
H3423 H 0.95542 0.55362 0.90612 0.0
H3424 H 1.00114 0.52952 0.99148 0.0
H3425 H 0.9828 0.53179 0.96086 0.0
H3426 H 0.01048 0.53107 0.90712 0.0
C3427 C 0.97176 0.55109 0.85252 0.0
C3428 C 0.96735 0.54853 0.90598 0.0
C3429 C 0.96257 0.55273 0.83422 0.0
C3430 C 1.00717 0.53343 0.9792 0.0
C3431 C 0.99662 0.53481 0.9615 0.0
C3432 C 0.9986 0.53624 0.90736 0.0
C3433 C 0.96329 0.54655 0.8684 0.0
C3434 C 0.97332 0.54437 0.8881 0.0
C3435 C 1.00377 0.53955 0.94476 0.0
C3436 C 0.99285 0.54072 0.92527 0.0
H3437 H 0.92202 0.5432 0.84486 0.0
H3438 H 0.93782 0.54022 0.8764 0.0
H3439 H 0.99424 0.53412 0.87623 0.0
H3440 H 0.04611 0.54477 0.96473 0.0
H3441 H 0.02826 0.54734 0.93482 0.0
C3442 C 0.27108 0.20095 0.57182 0.0
C3443 C 0.28198 0.18848 0.56707 0.0
C3444 C 0.27293 0.21037 0.59074 0.0
C3445 C 0.30334 0.22699 0.6357 0.0
H3446 H 0.2626 0.22389 0.66055 0.0
C3447 C 0.30685 0.25372 0.7176 0.0
C3448 C 0.29289 0.26094 0.7236 0.0
C3449 C 0.306 0.24553 0.69833 0.0
C3450 C 0.27409 0.22527 0.65379 0.0
H3451 H 0.30364 0.17644 0.57827 0.0
H3452 H 0.30712 0.19328 0.6113 0.0
H3453 H 0.26037 0.20887 0.62725 0.0
H3454 H 0.2674 0.266 0.71389 0.0
H3455 H 0.26617 0.25255 0.68026 0.0
H3456 H 0.31704 0.24379 0.66198 0.0
C3457 C 0.29708 0.19563 0.60038 0.0
C3458 C 0.27279 0.21653 0.6347 0.0
C3459 C 0.29504 0.18596 0.58151 0.0
C3460 C 0.2783 0.26034 0.70979 0.0
C3461 C 0.27756 0.25246 0.69049 0.0
C3462 C 0.30462 0.23602 0.65473 0.0
C3463 C 0.2859 0.20775 0.60523 0.0
C3464 C 0.2874 0.21725 0.62546 0.0
C3465 C 0.29127 0.24464 0.6845 0.0
C3466 C 0.29 0.23526 0.66409 0.0
H3467 H 0.26088 0.20317 0.56102 0.0
H3468 H 0.26422 0.21974 0.59404 0.0
H3469 H 0.31479 0.2279 0.62887 0.0
H3470 H 0.31826 0.25388 0.7279 0.0
H3471 H 0.31675 0.23947 0.69445 0.0
C3472 C 0.61419 0.52238 0.24609 0.0
C3473 C 0.61694 0.54008 0.25757 0.0
C3474 C 0.60522 0.51955 0.22714 0.0
C3475 C 0.57716 0.5408 0.19256 0.0
H3476 H 0.59706 0.51304 0.15367 0.0
C3477 C 0.56392 0.54712 0.111 0.0
C3478 C 0.56102 0.53055 0.09763 0.0
C3479 C 0.56912 0.54679 0.13075 0.0
C3480 C 0.5912 0.5206 0.16438 0.0
H3481 H 0.61197 0.5685 0.25849 0.0
H3482 H 0.59662 0.56373 0.22536 0.0
H3483 H 0.60862 0.51505 0.18795 0.0
H3484 H 0.5613 0.50057 0.09458 0.0
H3485 H 0.57059 0.50008 0.12916 0.0
H3486 H 0.56011 0.54683 0.16882 0.0
C3487 C 0.60111 0.5519 0.23102 0.0
C3488 C 0.59779 0.52173 0.18406 0.0
C3489 C 0.60998 0.55468 0.25001 0.0
C3490 C 0.56345 0.5136 0.10449 0.0
C3491 C 0.56881 0.51332 0.12427 0.0
C3492 C 0.57066 0.53978 0.17287 0.0
C3493 C 0.59891 0.5344 0.21921 0.0
C3494 C 0.59099 0.53203 0.1984 0.0
C3495 C 0.57168 0.52992 0.13761 0.0
C3496 C 0.57775 0.52987 0.15856 0.0
H3497 H 0.61933 0.51082 0.25156 0.0
H3498 H 0.60348 0.5058 0.21861 0.0
H3499 H 0.57141 0.54857 0.2032 0.0
H3500 H 0.56213 0.56041 0.10625 0.0
H3501 H 0.57143 0.55986 0.14064 0.0
C3502 C 0.25481 0.83133 0.95125 0.0
C3503 C 0.2543 0.85038 0.95001 0.0
C3504 C 0.25534 0.81903 0.93463 0.0
C3505 C 0.24907 0.81275 0.88102 0.0
H3506 H 0.28828 0.78783 0.88703 0.0
C3507 C 0.29663 0.78373 0.82962 0.0
C3508 C 0.2848 0.77203 0.81476 0.0
C3509 C 0.29124 0.7905 0.84677 0.0
C3510 C 0.27723 0.79461 0.88519 0.0
H3511 H 0.25268 0.8712 0.93035 0.0
H3512 H 0.25345 0.84966 0.9013 0.0
H3513 H 0.28023 0.80461 0.91556 0.0
H3514 H 0.25825 0.7578 0.8061 0.0
H3515 H 0.24879 0.76984 0.83607 0.0
H3516 H 0.24642 0.80318 0.85053 0.0
C3517 C 0.25349 0.84425 0.91508 0.0
C3518 C 0.27252 0.80405 0.9015 0.0
C3519 C 0.25312 0.85659 0.93172 0.0
C3520 C 0.26762 0.76676 0.81744 0.0
C3521 C 0.26219 0.77373 0.83447 0.0
C3522 C 0.25367 0.80311 0.86472 0.0
C3523 C 0.25518 0.82552 0.9165 0.0
C3524 C 0.25861 0.81352 0.89952 0.0
C3525 C 0.27392 0.78581 0.8492 0.0
C3526 C 0.26801 0.7943 0.86664 0.0
H3527 H 0.25569 0.82614 0.96517 0.0
H3528 H 0.25646 0.80459 0.93605 0.0
H3529 H 0.23827 0.8199 0.87913 0.0
H3530 H 0.30993 0.78797 0.82779 0.0
H3531 H 0.3005 0.79995 0.85784 0.0
C3532 C 0.96008 0.55296 0.72379 0.0
C3533 C 0.94198 0.54811 0.72209 0.0
C3534 C 0.96874 0.5515 0.70735 0.0
C3535 C 0.96226 0.5308 0.6531 0.0
H3536 H 1.0067 0.5625 0.65448 0.0
C3537 C 0.99751 0.53187 0.58326 0.0
C3538 C 0.0157 0.5357 0.58557 0.0
C3539 C 0.98847 0.5333 0.59944 0.0
C3540 C 0.9944 0.55325 0.65366 0.0
H3541 H 0.91909 0.53786 0.70082 0.0
H3542 H 0.93386 0.53564 0.67246 0.0
H3543 H 0.99169 0.56513 0.68236 0.0
H3544 H 0.03825 0.54411 0.60771 0.0
H3545 H 0.02284 0.54647 0.6354 0.0
H3546 H 0.96498 0.51904 0.62427 0.0
C3547 C 0.94163 0.54033 0.68659 0.0
C3548 C 0.98562 0.55477 0.67 0.0
C3549 C 0.93298 0.54176 0.70306 0.0
C3550 C 0.02433 0.54103 0.60491 0.0
C3551 C 0.01533 0.54254 0.62104 0.0
C3552 C 0.97103 0.52932 0.63672 0.0
C3553 C 0.9598 0.54514 0.6882 0.0
C3554 C 0.96928 0.54356 0.67028 0.0
C3555 C 0.99712 0.53874 0.61884 0.0
C3556 C 0.98741 0.54046 0.63652 0.0
H3557 H 0.96769 0.55781 0.738 0.0
H3558 H 0.98263 0.55514 0.70987 0.0
H3559 H 0.94998 0.52152 0.65227 0.0
H3560 H 0.99014 0.52777 0.56882 0.0
H3561 H 0.97457 0.53038 0.59658 0.0
C3562 C 0.26703 0.17907 0.44497 0.0
C3563 C 0.27169 0.18812 0.46423 0.0
C3564 C 0.26778 0.18948 0.42933 0.0
C3565 C 0.28809 0.23582 0.41704 0.0
H3566 H 0.2547 0.22151 0.36995 0.0
C3567 C 0.28858 0.28082 0.35405 0.0
C3568 C 0.28681 0.2709 0.33527 0.0
C3569 C 0.28526 0.27121 0.3698 0.0
C3570 C 0.26419 0.22563 0.38296 0.0
H3571 H 0.28041 0.21527 0.48217 0.0
H3572 H 0.28137 0.23344 0.45504 0.0
H3573 H 0.2518 0.20383 0.39733 0.0
H3574 H 0.27972 0.24318 0.31821 0.0
H3575 H 0.27381 0.22646 0.34558 0.0
H3576 H 0.30048 0.2576 0.40267 0.0
C3577 C 0.27749 0.21826 0.4519 0.0
C3578 C 0.26256 0.21545 0.39867 0.0
C3579 C 0.27682 0.20784 0.4675 0.0
C3580 C 0.28106 0.25126 0.33247 0.0
C3581 C 0.27766 0.24167 0.34818 0.0
C3582 C 0.28966 0.24604 0.40139 0.0
C3583 C 0.27313 0.20923 0.43257 0.0
C3584 C 0.27455 0.22033 0.41592 0.0
C3585 C 0.28001 0.25147 0.36713 0.0
C3586 C 0.27779 0.24104 0.38409 0.0
H3587 H 0.26307 0.16388 0.44196 0.0
H3588 H 0.26453 0.18197 0.4147 0.0
H3589 H 0.29777 0.23984 0.42988 0.0
H3590 H 0.29295 0.29596 0.35666 0.0
H3591 H 0.28697 0.27925 0.38414 0.0
C3592 C 0.35838 0.64961 0.49646 0.0
C3593 C 0.35946 0.65104 0.51678 0.0
C3594 C 0.37127 0.64335 0.48728 0.0
C3595 C 0.41553 0.63374 0.49662 0.0
H3596 H 0.39825 0.5906 0.45682 0.0
C3597 C 0.43427 0.55904 0.4777 0.0
C3598 C 0.45221 0.5646 0.48076 0.0
C3599 C 0.42383 0.57231 0.47476 0.0
C3600 C 0.40331 0.60274 0.46776 0.0
H3601 H 0.3752 0.64806 0.54349 0.0
H3602 H 0.3976 0.63711 0.52756 0.0
H3603 H 0.37869 0.61058 0.46732 0.0
H3604 H 0.47336 0.58771 0.4809 0.0
H3605 H 0.45512 0.61089 0.47541 0.0
H3606 H 0.43978 0.62514 0.49829 0.0
C3607 C 0.38692 0.64092 0.51867 0.0
C3608 C 0.39215 0.61431 0.47365 0.0
C3609 C 0.37401 0.64704 0.52781 0.0
C3610 C 0.45952 0.58319 0.47891 0.0
C3611 C 0.44909 0.59643 0.47581 0.0
C3612 C 0.42666 0.62219 0.4908 0.0
C3613 C 0.38551 0.6386 0.49829 0.0
C3614 C 0.39799 0.62937 0.4888 0.0
C3615 C 0.43117 0.59135 0.47471 0.0
C3616 C 0.4205 0.60604 0.47695 0.0
H3617 H 0.34729 0.65268 0.48761 0.0
H3618 H 0.36991 0.64179 0.47157 0.0
H3619 H 0.42044 0.64546 0.5081 0.0
H3620 H 0.42833 0.5448 0.47913 0.0
H3621 H 0.41009 0.5679 0.47415 0.0
C3622 C 0.86871 0.95601 0.55708 0.0
C3623 C 0.86575 0.93678 0.5592 0.0
C3624 C 0.88521 0.96554 0.55563 0.0
C3625 C 0.93163 0.96258 0.5651 0.0
H3626 H 0.93605 0.99914 0.52901 0.0
C3627 C 0.99806 0.99813 0.54806 0.0
C3628 C 1.00027 0.01744 0.54649 0.0
C3629 C 0.98178 0.98776 0.54926 0.0
C3630 C 0.93508 0.98911 0.5393 0.0
H3631 H 0.8779 0.91253 0.56162 0.0
H3632 H 0.90661 0.92905 0.55892 0.0
H3633 H 0.90764 0.98239 0.53216 0.0
H3634 H 0.98722 0.04111 0.54514 0.0
H3635 H 0.95896 0.0232 0.54729 0.0
H3636 H 0.95912 0.96934 0.57221 0.0
C3637 C 0.89624 0.93688 0.55861 0.0
C3638 C 0.91873 0.9795 0.54115 0.0
C3639 C 0.87974 0.92736 0.56007 0.0
C3640 C 0.9859 0.02619 0.54618 0.0
C3641 C 0.96966 0.01587 0.5473 0.0
C3642 C 0.94801 0.97218 0.56324 0.0
C3643 C 0.89921 0.95609 0.55624 0.0
C3644 C 0.91674 0.96617 0.55416 0.0
C3645 C 0.96734 0.9965 0.54889 0.0
C3646 C 0.94996 0.98568 0.5504 0.0
H3647 H 0.85824 0.9637 0.55641 0.0
H3648 H 0.887 0.98038 0.55415 0.0
H3649 H 0.93064 0.9526 0.57545 0.0
H3650 H 1.00894 0.99113 0.54876 0.0
H3651 H 0.98051 0.97287 0.55039 0.0
C3652 C 0.89183 0.05918 0.2558 0.0
C3653 C 0.9096 0.06346 0.26253 0.0
C3654 C 0.8828 0.07354 0.25204 0.0
C3655 C 0.88486 0.12474 0.26316 0.0
H3656 H 0.85254 0.11781 0.21532 0.0
C3657 C 0.85472 0.18578 0.23727 0.0
C3658 C 0.83711 0.18169 0.22967 0.0
C3659 C 0.86361 0.17127 0.24081 0.0
C3660 C 0.86137 0.11989 0.22884 0.0
H3661 H 0.9318 0.08609 0.27094 0.0
H3662 H 0.91603 0.11117 0.26442 0.0
H3663 H 0.86765 0.09255 0.22312 0.0
H3664 H 0.81505 0.15916 0.21966 0.0
H3665 H 0.83054 0.13383 0.22589 0.0
H3666 H 0.87854 0.15201 0.26897 0.0
C3667 C 0.90906 0.09674 0.26213 0.0
C3668 C 0.87002 0.10541 0.23331 0.0
C3669 C 0.9181 0.08238 0.26579 0.0
C3670 C 0.82867 0.16275 0.22528 0.0
C3671 C 0.83755 0.14824 0.22887 0.0
C3672 C 0.87618 0.13918 0.25873 0.0
C3673 C 0.89134 0.09247 0.25505 0.0
C3674 C 0.88189 0.1077 0.2505 0.0
C3675 C 0.85509 0.15234 0.23687 0.0
C3676 C 0.86436 0.13696 0.24149 0.0
H3677 H 0.88494 0.04471 0.25316 0.0
H3678 H 0.86911 0.06984 0.24681 0.0
H3679 H 0.89375 0.12682 0.27664 0.0
H3680 H 0.86164 0.20023 0.24053 0.0
H3681 H 0.87719 0.1749 0.24662 0.0
C3682 C 0.77803 0.11042 0.03497 0.0
C3683 C 0.79023 0.12057 0.05051 0.0
C3684 C 0.76483 0.09647 0.03831 0.0
C3685 C 0.73919 0.08635 0.07603 0.0
H3686 H 0.71858 0.04099 0.04028 0.0
C3687 C 0.67234 0.04663 0.08202 0.0
C3688 C 0.66092 0.04209 0.06436 0.0
C3689 C 0.69003 0.05143 0.08213 0.0
C3690 C 0.72418 0.05361 0.0504 0.0
H3691 H 0.79885 0.1234 0.08155 0.0
H3692 H 0.77563 0.09905 0.08741 0.0
H3693 H 0.74692 0.05828 0.03709 0.0
H3694 H 0.6593 0.03761 0.03298 0.0
H3695 H 0.69003 0.04679 0.03315 0.0
H3696 H 0.71622 0.08248 0.08866 0.0
C3697 C 0.77626 0.10197 0.07267 0.0
C3698 C 0.74041 0.06345 0.04861 0.0
C3699 C 0.78954 0.11585 0.06931 0.0
C3700 C 0.6677 0.04142 0.04684 0.0
C3701 C 0.68538 0.0464 0.04695 0.0
C3702 C 0.72295 0.07662 0.07774 0.0
C3703 C 0.76352 0.09249 0.05727 0.0
C3704 C 0.74785 0.0802 0.06108 0.0
C3705 C 0.69672 0.05201 0.0646 0.0
C3706 C 0.71503 0.06042 0.06461 0.0
H3707 H 0.7783 0.1137 0.0203 0.0
H3708 H 0.75511 0.08956 0.02617 0.0
H3709 H 0.74447 0.09937 0.08569 0.0
H3710 H 0.66761 0.04742 0.09581 0.0
H3711 H 0.69842 0.05536 0.09598 0.0
C3712 C 0.18758 0.44379 0.29016 0.0
C3713 C 0.19679 0.46255 0.29544 0.0
C3714 C 0.19596 0.42794 0.28965 0.0
C3715 C 0.24054 0.41394 0.29023 0.0
H3716 H 0.21646 0.36532 0.29861 0.0
C3717 C 0.277 0.3494 0.29525 0.0
C3718 C 0.26803 0.33049 0.29069 0.0
C3719 C 0.26837 0.36502 0.29592 0.0
C3720 C 0.22355 0.37861 0.29595 0.0
H3721 H 0.22265 0.47853 0.30438 0.0
H3722 H 0.23708 0.45144 0.30364 0.0
H3723 H 0.202 0.39222 0.29949 0.0
H3724 H 0.24219 0.31403 0.28324 0.0
H3725 H 0.22733 0.34078 0.28417 0.0
H3726 H 0.26204 0.4004 0.28656 0.0
C3727 C 0.22325 0.44874 0.29959 0.0
C3728 C 0.21507 0.39438 0.29648 0.0
C3729 C 0.21486 0.46456 0.30016 0.0
C3730 C 0.24986 0.32811 0.28691 0.0
C3731 C 0.2412 0.34376 0.28756 0.0
C3732 C 0.249 0.39818 0.28966 0.0
C3733 C 0.21409 0.42988 0.29432 0.0
C3734 C 0.22329 0.4126 0.29368 0.0
C3735 C 0.25018 0.36278 0.29202 0.0
C3736 C 0.24083 0.37996 0.29254 0.0
H3737 H 0.17373 0.44126 0.28633 0.0
H3738 H 0.18806 0.41407 0.28523 0.0
H3739 H 0.24763 0.42724 0.28757 0.0
H3740 H 0.29091 0.35226 0.29834 0.0
H3741 H 0.2762 0.37898 0.29979 0.0
C3742 C 0.27245 0.44903 0.05283 0.0
C3743 C 0.27118 0.43002 0.05558 0.0
C3744 C 0.25796 0.45755 0.05217 0.0
C3745 C 0.21006 0.44601 0.04415 0.0
H3746 H 0.21426 0.49792 0.06725 0.0
C3747 C 0.15049 0.48052 0.05098 0.0
C3748 C 0.15157 0.49913 0.04677 0.0
C3749 C 0.16508 0.47217 0.05259 0.0
C3750 C 0.21287 0.48346 0.06056 0.0
H3751 H 0.25369 0.40512 0.06003 0.0
H3752 H 0.22856 0.41998 0.0592 0.0
H3753 H 0.23961 0.48335 0.069 0.0
H3754 H 0.16903 0.52338 0.04072 0.0
H3755 H 0.19437 0.50891 0.04369 0.0
H3756 H 0.18332 0.44611 0.03575 0.0
C3757 C 0.24065 0.42829 0.05719 0.0
C3758 C 0.22745 0.47509 0.06154 0.0
C3759 C 0.25511 0.41978 0.0578 0.0
C3760 C 0.1677 0.50917 0.04437 0.0
C3761 C 0.18228 0.50085 0.04603 0.0
C3762 C 0.19549 0.45436 0.04322 0.0
C3763 C 0.24183 0.44728 0.05428 0.0
C3764 C 0.22627 0.45624 0.05332 0.0
C3765 C 0.18117 0.4822 0.05007 0.0
C3766 C 0.19669 0.47321 0.05138 0.0
H3767 H 0.28463 0.4573 0.05101 0.0
H3768 H 0.25937 0.47212 0.04966 0.0
H3769 H 0.20865 0.43159 0.03734 0.0
H3770 H 0.13839 0.47242 0.05321 0.0
H3771 H 0.16378 0.45789 0.056 0.0
C3772 C 0.89237 0.96118 0.24837 0.0
C3773 C 0.90712 0.96661 0.26252 0.0
C3774 C 0.88139 0.94384 0.24771 0.0
C3775 C 0.87867 0.89742 0.26615 0.0
H3776 H 0.82958 0.8962 0.25575 0.0
C3777 C 0.82785 0.83834 0.28496 0.0
C3778 C 0.81316 0.83133 0.27103 0.0
C3779 C 0.83978 0.85396 0.28233 0.0
C3780 C 0.84326 0.89626 0.25844 0.0
H3781 H 0.92209 0.9581 0.28695 0.0
H3782 H 0.90277 0.92812 0.28617 0.0
H3783 H 0.8496 0.9251 0.25409 0.0
H3784 H 0.79929 0.83515 0.24348 0.0
H3785 H 0.82002 0.86271 0.239 0.0
H3786 H 0.87219 0.86869 0.27111 0.0
C3787 C 0.8998 0.93699 0.27527 0.0
C3788 C 0.85476 0.91281 0.25744 0.0
C3789 C 0.91085 0.95425 0.27581 0.0
C3790 C 0.81054 0.84027 0.25444 0.0
C3791 C 0.82236 0.85604 0.2519 0.0
C3792 C 0.86715 0.88093 0.26733 0.0
C3793 C 0.88484 0.93162 0.26131 0.0
C3794 C 0.87263 0.91367 0.26142 0.0
C3795 C 0.83709 0.86306 0.26585 0.0
C3796 C 0.84933 0.88022 0.26362 0.0
H3797 H 0.88922 0.97038 0.23786 0.0
H3798 H 0.87018 0.94005 0.23654 0.0
H3799 H 0.89232 0.89743 0.26894 0.0
H3800 H 0.82998 0.83202 0.29812 0.0
H3801 H 0.85086 0.85924 0.29348 0.0
C3802 C 0.71622 0.0744 0.80253 0.0
C3803 C 0.69816 0.06899 0.79782 0.0
C3804 C 0.72474 0.09313 0.80202 0.0
C3805 C 0.7187 0.13809 0.78142 0.0
H3806 H 0.75924 0.16124 0.81857 0.0
C3807 C 0.7603 0.21121 0.77333 0.0
C3808 C 0.76806 0.22405 0.79011 0.0
C3809 C 0.75189 0.19266 0.77454 0.0
C3810 C 0.74788 0.15517 0.80807 0.0
H3811 H 0.67515 0.07973 0.78884 0.0
H3812 H 0.68979 0.11194 0.78786 0.0
H3813 H 0.74475 0.12908 0.82023 0.0
H3814 H 0.77278 0.22664 0.82155 0.0
H3815 H 0.75832 0.19449 0.82367 0.0
H3816 H 0.72175 0.16414 0.7693 0.0
C3817 C 0.69753 0.10174 0.79188 0.0
C3818 C 0.73959 0.13643 0.8089 0.0
C3819 C 0.68902 0.08311 0.79257 0.0
C3820 C 0.76706 0.21741 0.8082 0.0
C3821 C 0.75878 0.19875 0.80941 0.0
C3822 C 0.72709 0.15672 0.78046 0.0
C3823 C 0.71561 0.10725 0.79656 0.0
C3824 C 0.72475 0.12744 0.79563 0.0
C3825 C 0.75095 0.18592 0.7926 0.0
C3826 C 0.74188 0.16576 0.79377 0.0
H3827 H 0.72384 0.06411 0.8066 0.0
H3828 H 0.73862 0.09642 0.80558 0.0
H3829 H 0.70751 0.13194 0.77071 0.0
H3830 H 0.76069 0.21548 0.75906 0.0
H3831 H 0.74636 0.18347 0.76114 0.0
loop_
_geom_bond_atom_site_label_1
_geom_bond_atom_site_label_2
_geom_bond_distance
_geom_bond_site_symmetry_2
_ccdc_geom_bond_type
In0 O1 2.294 . S
In0 O2 2.326 . S
In0 O6 2.266 1_455 S
In0 O7 2.326 1_455 S
In0 O8 2.266 . S
In0 O9 2.326 . S
In0 O11 2.294 . S
In0 O12 2.326 . S
O1 In0 2.294 . S
O1 C10 1.240 . S
O2 In0 2.326 . S
O2 C10 1.252 . S
C3 O6 1.252 . S
C3 O7 1.260 . S
C4 O11 1.240 . S
C4 O12 1.252 . S
C5 O8 1.252 . S
C5 O9 1.260 . S
O6 In0 2.266 1_655 S
O6 C3 1.252 . S
O7 In0 2.326 1_655 S
O7 C3 1.260 . S
O8 In0 2.266 . S
O8 C5 1.252 . S
O9 In0 2.326 . S
O9 C5 1.260 . S
C10 O1 1.240 . S
C10 O2 1.252 . S
O11 In0 2.294 . S
O11 C4 1.240 . S
O12 In0 2.326 . S
O12 C4 1.252 . S
In13 O14 2.294 . S
In13 O15 2.326 . S
In13 O19 2.266 . S
In13 O20 2.326 . S
In13 O21 2.266 . S
In13 O22 2.326 . S
In13 O24 2.294 . S
In13 O25 2.326 . S
O14 In13 2.294 . S
O14 C23 1.240 . S
O15 In13 2.326 . S
O15 C23 1.252 . S
C16 O19 1.252 . S
C16 O20 1.260 . S
C17 O24 1.240 . S
C17 O25 1.252 . S
C18 O21 1.252 . S
C18 O22 1.260 . S
O19 In13 2.266 . S
O19 C16 1.252 . S
O20 In13 2.326 . S
O20 C16 1.260 . S
O21 In13 2.266 . S
O21 C18 1.252 . S
O22 In13 2.326 . S
O22 C18 1.260 . S
C23 O14 1.240 . S
C23 O15 1.252 . S
O24 In13 2.294 . S
O24 C17 1.240 . S
O25 In13 2.326 . S
O25 C17 1.252 . S
In26 O27 2.294 . S
In26 O28 2.326 . S
In26 O32 2.266 . S
In26 O33 2.326 . S
In26 O34 2.266 . S
In26 O35 2.326 . S
In26 O37 2.294 . S
In26 O38 2.326 . S
O27 In26 2.294 . S
O27 C36 1.240 . S
O28 In26 2.326 . S
O28 C36 1.252 . S
C29 O32 1.252 . S
C29 O33 1.260 . S
C30 O37 1.240 . S
C30 O38 1.252 . S
C31 O34 1.252 . S
C31 O35 1.260 . S
O32 In26 2.266 . S
O32 C29 1.252 . S
O33 In26 2.326 . S
O33 C29 1.260 . S
O34 In26 2.266 . S
O34 C31 1.252 . S
O35 In26 2.326 . S
O35 C31 1.260 . S
C36 O27 1.240 . S
C36 O28 1.252 . S
O37 In26 2.294 . S
O37 C30 1.240 . S
O38 In26 2.326 . S
O38 C30 1.252 . S
In39 O40 2.294 . S
In39 O41 2.326 . S
In39 O45 2.266 . S
In39 O46 2.326 . S
In39 O47 2.266 . S
In39 O48 2.326 . S
In39 O50 2.294 . S
In39 O51 2.326 . S
O40 In39 2.294 . S
O40 C49 1.240 . S
O41 In39 2.326 . S
O41 C49 1.252 . S
C42 O45 1.252 . S
C42 O46 1.260 . S
C43 O50 1.240 . S
C43 O51 1.252 . S
C44 O47 1.252 . S
C44 O48 1.260 . S
O45 In39 2.266 . S
O45 C42 1.252 . S
O46 In39 2.326 . S
O46 C42 1.260 . S
O47 In39 2.266 . S
O47 C44 1.252 . S
O48 In39 2.326 . S
O48 C44 1.260 . S
C49 O40 1.240 . S
C49 O41 1.252 . S
O50 In39 2.294 . S
O50 C43 1.240 . S
O51 In39 2.326 . S
O51 C43 1.252 . S
In52 O53 2.294 . S
In52 O54 2.326 . S
In52 O58 2.266 . S
In52 O59 2.326 . S
In52 O60 2.266 . S
In52 O61 2.326 . S
In52 O63 2.294 . S
In52 O64 2.326 . S
O53 In52 2.294 . S
O53 C62 1.240 . S
O54 In52 2.326 . S
O54 C62 1.252 . S
C55 O58 1.252 . S
C55 O59 1.260 . S
C56 O63 1.240 . S
C56 O64 1.252 . S
C57 O60 1.252 . S
C57 O61 1.260 . S
O58 In52 2.266 . S
O58 C55 1.252 . S
O59 In52 2.326 . S
O59 C55 1.260 . S
O60 In52 2.266 . S
O60 C57 1.252 . S
O61 In52 2.326 . S
O61 C57 1.260 . S
C62 O53 1.240 . S
C62 O54 1.252 . S
O63 In52 2.294 . S
O63 C56 1.240 . S
O64 In52 2.326 . S
O64 C56 1.252 . S
In65 O66 2.294 . S
In65 O67 2.326 . S
In65 O71 2.266 . S
In65 O72 2.326 . S
In65 O73 2.266 . S
In65 O74 2.326 . S
In65 O76 2.294 . S
In65 O77 2.326 . S
O66 In65 2.294 . S
O66 C75 1.240 . S
O67 In65 2.326 . S
O67 C75 1.252 . S
C68 O71 1.252 . S
C68 O72 1.260 . S
C69 O76 1.240 . S
C69 O77 1.252 . S
C70 O73 1.252 . S
C70 O74 1.260 . S
O71 In65 2.266 . S
O71 C68 1.252 . S
O72 In65 2.326 . S
O72 C68 1.260 . S
O73 In65 2.266 . S
O73 C70 1.252 . S
O74 In65 2.326 . S
O74 C70 1.260 . S
C75 O66 1.240 . S
C75 O67 1.252 . S
O76 In65 2.294 . S
O76 C69 1.240 . S
O77 In65 2.326 . S
O77 C69 1.252 . S
In78 O79 2.294 . S
In78 O80 2.326 . S
In78 O84 2.266 . S
In78 O85 2.326 . S
In78 O86 2.266 . S
In78 O87 2.326 . S
In78 O89 2.294 . S
In78 O90 2.326 . S
O79 In78 2.294 . S
O79 C88 1.240 . S
O80 In78 2.326 . S
O80 C88 1.252 . S
C81 O84 1.252 . S
C81 O85 1.260 . S
C82 O89 1.240 . S
C82 O90 1.252 . S
C83 O86 1.252 . S
C83 O87 1.260 . S
O84 In78 2.266 . S
O84 C81 1.252 . S
O85 In78 2.326 . S
O85 C81 1.260 . S
O86 In78 2.266 . S
O86 C83 1.252 . S
O87 In78 2.326 . S
O87 C83 1.260 . S
C88 O79 1.240 . S
C88 O80 1.252 . S
O89 In78 2.294 . S
O89 C82 1.240 . S
O90 In78 2.326 . S
O90 C82 1.252 . S
In91 O92 2.294 . S
In91 O93 2.326 . S
In91 O97 2.266 . S
In91 O98 2.326 . S
In91 O99 2.266 1_455 S
In91 O100 2.326 1_455 S
In91 O102 2.294 . S
In91 O103 2.326 . S
O92 In91 2.294 . S
O92 C101 1.240 . S
O93 In91 2.326 . S
O93 C101 1.252 . S
C94 O97 1.252 . S
C94 O98 1.260 . S
C95 O102 1.240 . S
C95 O103 1.252 . S
C96 O99 1.252 . S
C96 O100 1.260 . S
O97 In91 2.266 . S
O97 C94 1.252 . S
O98 In91 2.326 . S
O98 C94 1.260 . S
O99 In91 2.266 1_655 S
O99 C96 1.252 . S
O100 In91 2.326 1_655 S
O100 C96 1.260 . S
C101 O92 1.240 . S
C101 O93 1.252 . S
O102 In91 2.294 . S
O102 C95 1.240 . S
O103 In91 2.326 . S
O103 C95 1.252 . S
In104 O105 2.294 . S
In104 O106 2.326 . S
In104 O110 2.266 . S
In104 O111 2.326 . S
In104 O112 2.253 1_545 S
In104 O113 2.326 1_545 S
In104 O115 2.294 . S
In104 O116 2.326 . S
O105 In104 2.294 . S
O105 C114 1.240 . S
O106 In104 2.326 . S
O106 C114 1.252 . S
C107 O110 1.252 . S
C107 O111 1.260 . S
C108 O115 1.240 . S
C108 O116 1.252 . S
C109 O112 1.271 . S
C109 O113 1.260 . S
O110 In104 2.266 . S
O110 C107 1.252 . S
O111 In104 2.326 . S
O111 C107 1.260 . S
O112 In104 2.253 1_565 S
O112 C109 1.271 . S
O113 In104 2.326 1_565 S
O113 C109 1.260 . S
C114 O105 1.240 . S
C114 O106 1.252 . S
O115 In104 2.294 . S
O115 C108 1.240 . S
O116 In104 2.326 . S
O116 C108 1.252 . S
In117 O118 2.294 . S
In117 O119 2.326 . S
In117 O123 2.266 . S
In117 O124 2.326 . S
In117 O125 2.266 . S
In117 O126 2.326 . S
In117 O128 2.294 . S
In117 O129 2.326 . S
O118 In117 2.294 . S
O118 C127 1.240 . S
O119 In117 2.326 . S
O119 C127 1.252 . S
C120 O123 1.252 . S
C120 O124 1.260 . S
C121 O128 1.240 . S
C121 O129 1.252 . S
C122 O125 1.252 . S
C122 O126 1.260 . S
O123 In117 2.266 . S
O123 C120 1.252 . S
O124 In117 2.326 . S
O124 C120 1.260 . S
O125 In117 2.266 . S
O125 C122 1.252 . S
O126 In117 2.326 . S
O126 C122 1.260 . S
C127 O118 1.240 . S
C127 O119 1.252 . S
O128 In117 2.294 . S
O128 C121 1.240 . S
O129 In117 2.326 . S
O129 C121 1.252 . S
In130 O131 2.294 . S
In130 O132 2.326 . S
In130 O136 2.266 . S
In130 O137 2.326 . S
In130 O138 2.266 . S
In130 O139 2.326 . S
In130 O141 2.294 . S
In130 O142 2.326 1_545 S
O131 In130 2.294 . S
O131 C140 1.240 . S
O132 In130 2.326 . S
O132 C140 1.252 . S
C133 O136 1.252 . S
C133 O137 1.260 . S
C134 O141 1.240 1_565 S
C134 O142 1.252 . S
C135 O138 1.252 . S
C135 O139 1.260 . S
O136 In130 2.266 . S
O136 C133 1.252 . S
O137 In130 2.326 . S
O137 C133 1.260 . S
O138 In130 2.266 . S
O138 C135 1.252 . S
O139 In130 2.326 . S
O139 C135 1.260 . S
C140 O131 1.240 . S
C140 O132 1.252 . S
O141 In130 2.294 . S
O141 C134 1.240 1_545 S
O142 In130 2.326 1_565 S
O142 C134 1.252 . S
In143 O144 2.296 . S
In143 O145 2.329 . S
In143 O149 2.264 1_554 S
In143 O150 2.322 1_554 S
In143 O151 2.261 1_554 S
In143 O152 2.325 1_554 S
In143 O154 2.294 . S
In143 O155 2.322 . S
O144 In143 2.296 . S
O144 C153 1.240 . S
O145 In143 2.329 . S
O145 C153 1.252 . S
C146 O149 1.252 . S
C146 O150 1.260 . S
C147 O154 1.240 . S
C147 O155 1.253 . S
C148 O151 1.252 . S
C148 O152 1.260 . S
O149 In143 2.264 1_556 S
O149 C146 1.252 . S
O150 In143 2.322 1_556 S
O150 C146 1.260 . S
O151 In143 2.261 1_556 S
O151 C148 1.252 . S
O152 In143 2.325 1_556 S
O152 C148 1.260 . S
C153 O144 1.240 . S
C153 O145 1.252 . S
O154 In143 2.294 . S
O154 C147 1.240 . S
O155 In143 2.322 . S
O155 C147 1.253 . S
In156 O157 2.294 . S
In156 O158 2.326 . S
In156 O162 2.266 . S
In156 O163 2.326 1_554 S
In156 O164 2.266 . S
In156 O165 2.326 . S
In156 O167 2.294 . S
In156 O168 2.326 . S
O157 In156 2.294 . S
O157 C166 1.240 . S
O158 In156 2.326 . S
O158 C166 1.252 . S
C159 O162 1.252 1_556 S
C159 O163 1.260 . S
C160 O167 1.240 . S
C160 O168 1.252 . S
C161 O164 1.252 . S
C161 O165 1.260 . S
O162 In156 2.266 . S
O162 C159 1.252 1_554 S
O163 In156 2.326 1_556 S
O163 C159 1.260 . S
O164 In156 2.266 . S
O164 C161 1.252 . S
O165 In156 2.326 . S
O165 C161 1.260 . S
C166 O157 1.240 . S
C166 O158 1.252 . S
O167 In156 2.294 . S
O167 C160 1.240 . S
O168 In156 2.326 . S
O168 C160 1.252 . S
In169 O170 2.294 . S
In169 O171 2.326 . S
In169 O175 2.266 . S
In169 O176 2.326 . S
In169 O177 2.266 . S
In169 O178 2.326 . S
In169 O180 2.294 . S
In169 O181 2.326 . S
O170 In169 2.294 . S
O170 C179 1.240 . S
O171 In169 2.326 . S
O171 C179 1.252 . S
C172 O175 1.252 . S
C172 O176 1.260 . S
C173 O180 1.240 . S
C173 O181 1.252 . S
C174 O177 1.252 . S
C174 O178 1.260 . S
O175 In169 2.266 . S
O175 C172 1.252 . S
O176 In169 2.326 . S
O176 C172 1.260 . S
O177 In169 2.266 . S
O177 C174 1.252 . S
O178 In169 2.326 . S
O178 C174 1.260 . S
C179 O170 1.240 . S
C179 O171 1.252 . S
O180 In169 2.294 . S
O180 C173 1.240 . S
O181 In169 2.326 . S
O181 C173 1.252 . S
In182 O183 2.294 . S
In182 O184 2.326 . S
In182 O188 2.266 . S
In182 O189 2.326 . S
In182 O190 2.266 . S
In182 O191 2.326 . S
In182 O193 2.294 . S
In182 O194 2.326 . S
O183 In182 2.294 . S
O183 C192 1.240 . S
O184 In182 2.326 . S
O184 C192 1.252 . S
C185 O188 1.252 . S
C185 O189 1.260 . S
C186 O193 1.240 . S
C186 O194 1.252 . S
C187 O190 1.252 . S
C187 O191 1.260 . S
O188 In182 2.266 . S
O188 C185 1.252 . S
O189 In182 2.326 . S
O189 C185 1.260 . S
O190 In182 2.266 . S
O190 C187 1.252 . S
O191 In182 2.326 . S
O191 C187 1.260 . S
C192 O183 1.240 . S
C192 O184 1.252 . S
O193 In182 2.294 . S
O193 C186 1.240 . S
O194 In182 2.326 . S
O194 C186 1.252 . S
In195 O196 2.294 . S
In195 O197 2.326 . S
In195 O201 2.266 . S
In195 O202 2.326 . S
In195 O203 2.266 . S
In195 O204 2.326 . S
In195 O206 2.294 . S
In195 O207 2.326 . S
O196 In195 2.294 . S
O196 C205 1.240 . S
O197 In195 2.326 . S
O197 C205 1.252 . S
C198 O201 1.252 . S
C198 O202 1.260 . S
C199 O206 1.240 . S
C199 O207 1.252 . S
C200 O203 1.252 . S
C200 O204 1.260 . S
O201 In195 2.266 . S
O201 C198 1.252 . S
O202 In195 2.326 . S
O202 C198 1.260 . S
O203 In195 2.266 . S
O203 C200 1.252 . S
O204 In195 2.326 . S
O204 C200 1.260 . S
C205 O196 1.240 . S
C205 O197 1.252 . S
O206 In195 2.294 . S
O206 C199 1.240 . S
O207 In195 2.326 . S
O207 C199 1.252 . S
In208 O209 2.294 . S
In208 O210 2.326 . S
In208 O214 2.266 . S
In208 O215 2.326 . S
In208 O216 2.266 1_545 S
In208 O217 2.326 1_545 S
In208 O219 2.294 . S
In208 O220 2.326 . S
O209 In208 2.294 . S
O209 C218 1.240 . S
O210 In208 2.326 . S
O210 C218 1.252 . S
C211 O214 1.252 . S
C211 O215 1.260 . S
C212 O219 1.240 . S
C212 O220 1.252 . S
C213 O216 1.252 . S
C213 O217 1.260 . S
O214 In208 2.266 . S
O214 C211 1.252 . S
O215 In208 2.326 . S
O215 C211 1.260 . S
O216 In208 2.266 1_565 S
O216 C213 1.252 . S
O217 In208 2.326 1_565 S
O217 C213 1.260 . S
C218 O209 1.240 . S
C218 O210 1.252 . S
O219 In208 2.294 . S
O219 C212 1.240 . S
O220 In208 2.326 . S
O220 C212 1.252 . S
In221 O222 2.294 . S
In221 O223 2.326 . S
In221 O227 2.266 . S
In221 O228 2.326 . S
In221 O229 2.266 . S
In221 O230 2.326 . S
In221 O232 2.294 . S
In221 O233 2.326 . S
O222 In221 2.294 . S
O222 C231 1.240 . S
O223 In221 2.326 . S
O223 C231 1.252 . S
C224 O227 1.252 . S
C224 O228 1.260 . S
C225 O232 1.240 . S
C225 O233 1.252 . S
C226 O229 1.252 . S
C226 O230 1.260 . S
O227 In221 2.266 . S
O227 C224 1.252 . S
O228 In221 2.326 . S
O228 C224 1.260 . S
O229 In221 2.266 . S
O229 C226 1.252 . S
O230 In221 2.326 . S
O230 C226 1.260 . S
C231 O222 1.240 . S
C231 O223 1.252 . S
O232 In221 2.294 . S
O232 C225 1.240 . S
O233 In221 2.326 . S
O233 C225 1.252 . S
In234 O235 2.294 . S
In234 O236 2.326 . S
In234 O240 2.266 . S
In234 O241 2.326 . S
In234 O242 2.266 . S
In234 O243 2.326 . S
In234 O245 2.294 . S
In234 O246 2.326 . S
O235 In234 2.294 . S
O235 C244 1.240 . S
O236 In234 2.326 . S
O236 C244 1.252 . S
C237 O240 1.252 . S
C237 O241 1.260 . S
C238 O245 1.240 . S
C238 O246 1.252 . S
C239 O242 1.252 . S
C239 O243 1.260 . S
O240 In234 2.266 . S
O240 C237 1.252 . S
O241 In234 2.326 . S
O241 C237 1.260 . S
O242 In234 2.266 . S
O242 C239 1.252 . S
O243 In234 2.326 . S
O243 C239 1.260 . S
C244 O235 1.240 . S
C244 O236 1.252 . S
O245 In234 2.294 . S
O245 C238 1.240 . S
O246 In234 2.326 . S
O246 C238 1.252 . S
In247 O248 2.294 1_545 S
In247 O249 2.326 1_545 S
In247 O253 2.266 . S
In247 O254 2.326 . S
In247 O255 2.266 . S
In247 O256 2.326 . S
In247 O258 2.294 . S
In247 O259 2.326 . S
O248 In247 2.294 1_565 S
O248 C257 1.240 . S
O249 In247 2.326 1_565 S
O249 C257 1.252 . S
C250 O253 1.252 . S
C250 O254 1.260 . S
C251 O258 1.240 . S
C251 O259 1.252 . S
C252 O255 1.252 . S
C252 O256 1.260 . S
O253 In247 2.266 . S
O253 C250 1.252 . S
O254 In247 2.326 . S
O254 C250 1.260 . S
O255 In247 2.266 . S
O255 C252 1.252 . S
O256 In247 2.326 . S
O256 C252 1.260 . S
C257 O248 1.240 . S
C257 O249 1.252 . S
O258 In247 2.294 . S
O258 C251 1.240 . S
O259 In247 2.326 . S
O259 C251 1.252 . S
In260 O261 2.294 . S
In260 O262 2.326 . S
In260 O266 2.266 . S
In260 O267 2.326 . S
In260 O268 2.266 . S
In260 O269 2.326 1_554 S
In260 O271 2.294 . S
In260 O272 2.326 . S
O261 In260 2.294 . S
O261 C270 1.240 . S
O262 In260 2.326 . S
O262 C270 1.252 . S
C263 O266 1.252 . S
C263 O267 1.260 . S
C264 O271 1.240 . S
C264 O272 1.252 . S
C265 O268 1.252 1_556 S
C265 O269 1.260 . S
O266 In260 2.266 . S
O266 C263 1.252 . S
O267 In260 2.326 . S
O267 C263 1.260 . S
O268 In260 2.266 . S
O268 C265 1.252 1_554 S
O269 In260 2.326 1_556 S
O269 C265 1.260 . S
C270 O261 1.240 . S
C270 O262 1.252 . S
O271 In260 2.294 . S
O271 C264 1.240 . S
O272 In260 2.326 . S
O272 C264 1.252 . S
In273 O274 2.294 . S
In273 O275 2.326 . S
In273 O279 2.266 . S
In273 O280 2.326 . S
In273 O281 2.266 . S
In273 O282 2.326 . S
In273 O284 2.294 . S
In273 O285 2.326 . S
O274 In273 2.294 . S
O274 C283 1.240 . S
O275 In273 2.326 . S
O275 C283 1.252 . S
C276 O279 1.252 . S
C276 O280 1.260 . S
C277 O284 1.240 . S
C277 O285 1.252 . S
C278 O281 1.252 . S
C278 O282 1.260 . S
O279 In273 2.266 . S
O279 C276 1.252 . S
O280 In273 2.326 . S
O280 C276 1.260 . S
O281 In273 2.266 . S
O281 C278 1.252 . S
O282 In273 2.326 . S
O282 C278 1.260 . S
C283 O274 1.240 . S
C283 O275 1.252 . S
O284 In273 2.294 . S
O284 C277 1.240 . S
O285 In273 2.326 . S
O285 C277 1.252 . S
In286 O287 2.294 . S
In286 O288 2.326 . S
In286 O292 2.266 . S
In286 O293 2.326 . S
In286 O294 2.266 . S
In286 O295 2.326 . S
In286 O297 2.294 . S
In286 O298 2.326 . S
O287 In286 2.294 . S
O287 C296 1.240 . S
O288 In286 2.326 . S
O288 C296 1.252 . S
C289 O292 1.252 . S
C289 O293 1.260 . S
C290 O297 1.240 . S
C290 O298 1.252 . S
C291 O294 1.252 . S
C291 O295 1.260 . S
O292 In286 2.266 . S
O292 C289 1.252 . S
O293 In286 2.326 . S
O293 C289 1.260 . S
O294 In286 2.266 . S
O294 C291 1.252 . S
O295 In286 2.326 . S
O295 C291 1.260 . S
C296 O287 1.240 . S
C296 O288 1.252 . S
O297 In286 2.294 . S
O297 C290 1.240 . S
O298 In286 2.326 . S
O298 C290 1.252 . S
In299 O300 2.294 . S
In299 O301 2.326 . S
In299 O305 2.266 . S
In299 O306 2.326 . S
In299 O307 2.266 . S
In299 O308 2.326 . S
In299 O310 2.294 . S
In299 O311 2.326 . S
O300 In299 2.294 . S
O300 C309 1.240 . S
O301 In299 2.326 . S
O301 C309 1.252 . S
C302 O305 1.252 . S
C302 O306 1.260 . S
C303 O310 1.240 . S
C303 O311 1.252 . S
C304 O307 1.252 . S
C304 O308 1.260 . S
O305 In299 2.266 . S
O305 C302 1.252 . S
O306 In299 2.326 . S
O306 C302 1.260 . S
O307 In299 2.266 . S
O307 C304 1.252 . S
O308 In299 2.326 . S
O308 C304 1.260 . S
C309 O300 1.240 . S
C309 O301 1.252 . S
O310 In299 2.294 . S
O310 C303 1.240 . S
O311 In299 2.326 . S
O311 C303 1.252 . S
Tb312 C314 2.809 1_455 S
Tb312 O332 2.484 . S
Tb312 O333 2.489 . S
Tb312 O334 2.658 . S
Tb312 O335 2.413 1_554 S
Tb312 O336 2.378 . S
Tb312 O340 2.325 . S
Tb312 O343 2.341 1_545 S
Tb313 C323 2.809 . S
Tb313 O334 2.325 . S
Tb313 O337 2.341 . S
Tb313 O338 2.484 . S
Tb313 O339 2.440 . S
Tb313 O340 2.658 . S
Tb313 O341 2.409 . S
Tb313 O342 2.378 . S
C314 Tb312 2.809 1_655 S
C314 C315 1.514 . S
C314 O332 1.248 1_655 S
C314 O333 1.239 1_655 S
C315 C314 1.514 . S
C315 C316 1.359 . S
C315 C320 1.348 . S
C316 C315 1.359 . S
C316 C317 1.380 . S
C316 H344 0.929 . S
C317 C316 1.380 . S
C317 C318 1.347 . S
C317 H345 0.931 . S
C318 C317 1.347 . S
C318 C319 1.377 . S
C319 C318 1.377 . S
C319 C320 1.410 . S
C319 H346 0.922 1_554 S
C320 C315 1.348 . S
C320 C319 1.410 . S
C320 H347 0.930 1_554 S
C321 O334 1.281 . S
C321 O335 1.254 1_554 S
C322 O336 1.236 . S
C322 O337 1.266 . S
C323 Tb313 2.809 . S
C323 C324 1.514 . S
C323 O338 1.248 . S
C323 O339 1.266 . S
C324 C323 1.514 . S
C324 C325 1.359 1_545 S
C324 C329 1.348 . S
C325 C324 1.359 1_565 S
C325 C326 1.380 . S
C325 H348 0.929 . S
C326 C325 1.380 . S
C326 C327 1.347 . S
C326 H349 0.931 . S
C327 C326 1.347 . S
C327 C328 1.369 . S
C328 C327 1.369 . S
C328 C329 1.408 1_565 S
C328 H350 0.930 . S
C329 C324 1.348 . S
C329 C328 1.408 1_545 S
C329 H351 0.930 . S
C330 O340 1.281 . S
C330 O341 1.254 . S
C331 O342 1.236 1_565 S
C331 O343 1.266 . S
O332 Tb312 2.484 . S
O332 C314 1.248 1_455 S
O333 Tb312 2.489 . S
O333 C314 1.239 1_455 S
O334 Tb312 2.658 . S
O334 Tb313 2.325 . S
O334 C321 1.281 . S
O335 Tb312 2.413 1_556 S
O335 C321 1.254 1_556 S
O336 Tb312 2.378 . S
O336 C322 1.236 . S
O337 Tb313 2.341 . S
O337 C322 1.266 . S
O338 Tb313 2.484 . S
O338 C323 1.248 . S
O339 Tb313 2.440 . S
O339 C323 1.266 . S
O340 Tb312 2.325 . S
O340 Tb313 2.658 . S
O340 C330 1.281 . S
O341 Tb313 2.409 . S
O341 C330 1.254 . S
O342 Tb313 2.378 . S
O342 C331 1.236 1_545 S
O343 Tb312 2.341 1_565 S
O343 C331 1.266 . S
H344 C316 0.929 . S
H345 C317 0.931 . S
H346 C319 0.922 1_556 S
H347 C320 0.930 1_556 S
H348 C325 0.929 . S
H349 C326 0.931 . S
H350 C328 0.930 . S
H351 C329 0.930 . S
Tb352 C354 2.809 . S
Tb352 O372 2.484 . S
Tb352 O373 2.440 . S
Tb352 O374 2.658 . S
Tb352 O375 2.409 . S
Tb352 O376 2.378 . S
Tb352 O380 2.325 . S
Tb352 O383 2.341 . S
Tb353 C363 2.809 . S
Tb353 O374 2.325 . S
Tb353 O377 2.341 . S
Tb353 O378 2.484 . S
Tb353 O379 2.440 . S
Tb353 O380 2.658 . S
Tb353 O381 2.409 . S
Tb353 O382 2.378 . S
C354 Tb352 2.809 . S
C354 C355 1.514 . S
C354 O372 1.248 . S
C354 O373 1.266 . S
C355 C354 1.514 . S
C355 C356 1.359 . S
C355 C360 1.348 . S
C356 C355 1.359 . S
C356 C357 1.380 . S
C356 H384 0.929 . S
C357 C356 1.380 . S
C357 C358 1.347 . S
C357 H385 0.931 . S
C358 C357 1.347 . S
C358 C359 1.369 . S
C359 C358 1.369 . S
C359 C360 1.408 . S
C359 H386 0.930 . S
C360 C355 1.348 . S
C360 C359 1.408 . S
C360 H387 0.930 . S
C361 O374 1.281 . S
C361 O375 1.254 . S
C362 O376 1.236 . S
C362 O377 1.266 . S
C363 Tb353 2.809 . S
C363 C364 1.514 . S
C363 O378 1.248 . S
C363 O379 1.266 . S
C364 C363 1.514 . S
C364 C365 1.359 . S
C364 C369 1.348 . S
C365 C364 1.359 . S
C365 C366 1.380 . S
C365 H388 0.929 . S
C366 C365 1.380 . S
C366 C367 1.347 . S
C366 H389 0.931 . S
C367 C366 1.347 . S
C367 C368 1.369 . S
C368 C367 1.369 . S
C368 C369 1.408 . S
C368 H390 0.930 . S
C369 C364 1.348 . S
C369 C368 1.408 . S
C369 H391 0.930 . S
C370 O380 1.281 . S
C370 O381 1.254 . S
C371 O382 1.236 . S
C371 O383 1.266 . S
O372 Tb352 2.484 . S
O372 C354 1.248 . S
O373 Tb352 2.440 . S
O373 C354 1.266 . S
O374 Tb352 2.658 . S
O374 Tb353 2.325 . S
O374 C361 1.281 . S
O375 Tb352 2.409 . S
O375 C361 1.254 . S
O376 Tb352 2.378 . S
O376 C362 1.236 . S
O377 Tb353 2.341 . S
O377 C362 1.266 . S
O378 Tb353 2.484 . S
O378 C363 1.248 . S
O379 Tb353 2.440 . S
O379 C363 1.266 . S
O380 Tb352 2.325 . S
O380 Tb353 2.658 . S
O380 C370 1.281 . S
O381 Tb353 2.409 . S
O381 C370 1.254 . S
O382 Tb353 2.378 . S
O382 C371 1.236 . S
O383 Tb352 2.341 . S
O383 C371 1.266 . S
H384 C356 0.929 . S
H385 C357 0.931 . S
H386 C359 0.930 . S
H387 C360 0.930 . S
H388 C365 0.929 . S
H389 C366 0.931 . S
H390 C368 0.930 . S
H391 C369 0.930 . S
Tb392 C394 2.809 1_545 S
Tb392 O412 2.484 1_545 S
Tb392 O413 2.440 . S
Tb392 O414 2.658 . S
Tb392 O415 2.409 . S
Tb392 O416 2.378 1_545 S
Tb392 O420 2.325 . S
Tb392 O423 2.341 . S
Tb393 C403 2.809 . S
Tb393 O414 2.325 . S
Tb393 O417 2.341 1_545 S
Tb393 O418 2.484 . S
Tb393 O419 2.440 . S
Tb393 O420 2.658 . S
Tb393 O421 2.409 . S
Tb393 O422 2.378 . S
C394 Tb392 2.809 1_565 S
C394 C395 1.514 . S
C394 O412 1.248 . S
C394 O413 1.266 1_565 S
C395 C394 1.514 . S
C395 C396 1.359 . S
C395 C400 1.348 . S
C396 C395 1.359 . S
C396 C397 1.380 . S
C396 H424 0.929 . S
C397 C396 1.380 . S
C397 C398 1.347 . S
C397 H425 0.931 . S
C398 C397 1.347 . S
C398 C399 1.369 . S
C399 C398 1.369 . S
C399 C400 1.408 . S
C399 H426 0.930 . S
C400 C395 1.348 . S
C400 C399 1.408 . S
C400 H427 0.930 . S
C401 O414 1.281 . S
C401 O415 1.254 . S
C402 O416 1.236 . S
C402 O417 1.266 . S
C403 Tb393 2.809 . S
C403 C404 1.514 . S
C403 O418 1.248 . S
C403 O419 1.266 . S
C404 C403 1.514 . S
C404 C405 1.359 . S
C404 C409 1.348 . S
C405 C404 1.359 . S
C405 C406 1.380 . S
C405 H428 0.929 . S
C406 C405 1.380 . S
C406 C407 1.347 . S
C406 H429 0.931 . S
C407 C406 1.347 . S
C407 C408 1.369 . S
C408 C407 1.369 . S
C408 C409 1.408 . S
C408 H430 0.930 . S
C409 C404 1.348 . S
C409 C408 1.408 . S
C409 H431 0.930 . S
C410 O420 1.281 . S
C410 O421 1.254 . S
C411 O422 1.236 . S
C411 O423 1.266 . S
O412 Tb392 2.484 1_565 S
O412 C394 1.248 . S
O413 Tb392 2.440 . S
O413 C394 1.266 1_545 S
O414 Tb392 2.658 . S
O414 Tb393 2.325 . S
O414 C401 1.281 . S
O415 Tb392 2.409 . S
O415 C401 1.254 . S
O416 Tb392 2.378 1_565 S
O416 C402 1.236 . S
O417 Tb393 2.341 1_565 S
O417 C402 1.266 . S
O418 Tb393 2.484 . S
O418 C403 1.248 . S
O419 Tb393 2.440 . S
O419 C403 1.266 . S
O420 Tb392 2.325 . S
O420 Tb393 2.658 . S
O420 C410 1.281 . S
O421 Tb393 2.409 . S
O421 C410 1.254 . S
O422 Tb393 2.378 . S
O422 C411 1.236 . S
O423 Tb392 2.341 . S
O423 C411 1.266 . S
H424 C396 0.929 . S
H425 C397 0.931 . S
H426 C399 0.930 . S
H427 C400 0.930 . S
H428 C405 0.929 . S
H429 C406 0.931 . S
H430 C408 0.930 . S
H431 C409 0.930 . S
Tb432 C434 2.809 . S
Tb432 O452 2.484 . S
Tb432 O453 2.440 . S
Tb432 O454 2.658 . S
Tb432 O455 2.409 . S
Tb432 O456 2.378 . S
Tb432 O460 2.325 . S
Tb432 O463 2.341 . S
Tb433 C443 2.809 . S
Tb433 O454 2.325 . S
Tb433 O457 2.341 . S
Tb433 O458 2.484 . S
Tb433 O459 2.440 . S
Tb433 O460 2.658 . S
Tb433 O461 2.409 . S
Tb433 O462 2.378 . S
C434 Tb432 2.809 . S
C434 C435 1.514 . S
C434 O452 1.248 . S
C434 O453 1.266 . S
C435 C434 1.514 . S
C435 C436 1.359 . S
C435 C440 1.348 . S
C436 C435 1.359 . S
C436 C437 1.380 . S
C436 H464 0.929 . S
C437 C436 1.380 . S
C437 C438 1.347 . S
C437 H465 0.931 . S
C438 C437 1.347 . S
C438 C439 1.369 . S
C439 C438 1.369 . S
C439 C440 1.408 . S
C439 H466 0.930 . S
C440 C435 1.348 . S
C440 C439 1.408 . S
C440 H467 0.930 . S
C441 O454 1.281 . S
C441 O455 1.254 . S
C442 O456 1.236 . S
C442 O457 1.266 . S
C443 Tb433 2.809 . S
C443 C444 1.514 . S
C443 O458 1.248 . S
C443 O459 1.266 . S
C444 C443 1.514 . S
C444 C445 1.359 . S
C444 C449 1.348 . S
C445 C444 1.359 . S
C445 C446 1.380 . S
C445 H468 0.929 . S
C446 C445 1.380 . S
C446 C447 1.347 . S
C446 H469 0.931 . S
C447 C446 1.347 . S
C447 C448 1.369 . S
C448 C447 1.369 . S
C448 C449 1.408 . S
C448 H470 0.930 . S
C449 C444 1.348 . S
C449 C448 1.408 . S
C449 H471 0.930 . S
C450 O460 1.281 . S
C450 O461 1.254 . S
C451 O462 1.236 . S
C451 O463 1.266 . S
O452 Tb432 2.484 . S
O452 C434 1.248 . S
O453 Tb432 2.440 . S
O453 C434 1.266 . S
O454 Tb432 2.658 . S
O454 Tb433 2.325 . S
O454 C441 1.281 . S
O455 Tb432 2.409 . S
O455 C441 1.254 . S
O456 Tb432 2.378 . S
O456 C442 1.236 . S
O457 Tb433 2.341 . S
O457 C442 1.266 . S
O458 Tb433 2.484 . S
O458 C443 1.248 . S
O459 Tb433 2.440 . S
O459 C443 1.266 . S
O460 Tb432 2.325 . S
O460 Tb433 2.658 . S
O460 C450 1.281 . S
O461 Tb433 2.409 . S
O461 C450 1.254 . S
O462 Tb433 2.378 . S
O462 C451 1.236 . S
O463 Tb432 2.341 . S
O463 C451 1.266 . S
H464 C436 0.929 . S
H465 C437 0.931 . S
H466 C439 0.930 . S
H467 C440 0.930 . S
H468 C445 0.929 . S
H469 C446 0.931 . S
H470 C448 0.930 . S
H471 C449 0.930 . S
Tb472 C474 2.809 . S
Tb472 O492 2.484 . S
Tb472 O493 2.440 . S
Tb472 O494 2.672 . S
Tb472 O495 2.409 . S
Tb472 O496 2.378 . S
Tb472 O500 2.325 . S
Tb472 O503 2.341 . S
Tb473 C483 2.809 . S
Tb473 O494 2.317 1_565 S
Tb473 O497 2.341 . S
Tb473 O498 2.484 . S
Tb473 O499 2.440 . S
Tb473 O500 2.658 1_565 S
Tb473 O501 2.409 1_565 S
Tb473 O502 2.378 1_565 S
C474 Tb472 2.809 . S
C474 C475 1.514 . S
C474 O492 1.248 . S
C474 O493 1.266 . S
C475 C474 1.514 . S
C475 C476 1.359 . S
C475 C480 1.348 . S
C476 C475 1.359 . S
C476 C477 1.380 . S
C476 H504 0.929 . S
C477 C476 1.380 . S
C477 C478 1.347 . S
C477 H505 0.931 . S
C478 C477 1.347 . S
C478 C479 1.369 . S
C479 C478 1.369 . S
C479 C480 1.408 . S
C479 H506 0.930 1_455 S
C480 C475 1.348 . S
C480 C479 1.408 . S
C480 H507 0.930 . S
C481 O494 1.285 . S
C481 O495 1.254 . S
C482 O496 1.236 . S
C482 O497 1.266 1_545 S
C483 Tb473 2.809 . S
C483 C484 1.514 . S
C483 O498 1.248 . S
C483 O499 1.266 . S
C484 C483 1.514 . S
C484 C485 1.359 . S
C484 C489 1.348 . S
C485 C484 1.359 . S
C485 C486 1.380 . S
C485 H508 0.929 . S
C486 C485 1.380 . S
C486 C487 1.347 . S
C486 H509 0.931 . S
C487 C486 1.347 . S
C487 C488 1.369 . S
C488 C487 1.369 . S
C488 C489 1.408 . S
C488 H510 0.930 . S
C489 C484 1.348 . S
C489 C488 1.408 . S
C489 H511 0.930 . S
C490 O500 1.281 . S
C490 O501 1.254 . S
C491 O502 1.236 . S
C491 O503 1.266 . S
O492 Tb472 2.484 . S
O492 C474 1.248 . S
O493 Tb472 2.440 . S
O493 C474 1.266 . S
O494 Tb472 2.672 . S
O494 Tb473 2.317 1_545 S
O494 C481 1.285 . S
O495 Tb472 2.409 . S
O495 C481 1.254 . S
O496 Tb472 2.378 . S
O496 C482 1.236 . S
O497 Tb473 2.341 . S
O497 C482 1.266 1_565 S
O498 Tb473 2.484 . S
O498 C483 1.248 . S
O499 Tb473 2.440 . S
O499 C483 1.266 . S
O500 Tb472 2.325 . S
O500 Tb473 2.658 1_545 S
O500 C490 1.281 . S
O501 Tb473 2.409 1_545 S
O501 C490 1.254 . S
O502 Tb473 2.378 1_545 S
O502 C491 1.236 . S
O503 Tb472 2.341 . S
O503 C491 1.266 . S
H504 C476 0.929 . S
H505 C477 0.931 . S
H506 C479 0.930 1_655 S
H507 C480 0.930 . S
H508 C485 0.929 . S
H509 C486 0.931 . S
H510 C488 0.930 . S
H511 C489 0.930 . S
Tb512 C514 2.809 . S
Tb512 O532 2.484 . S
Tb512 O533 2.440 . S
Tb512 O534 2.658 . S
Tb512 O535 2.409 . S
Tb512 O536 2.378 . S
Tb512 O540 2.325 . S
Tb512 O543 2.341 . S
Tb513 C523 2.809 . S
Tb513 O534 2.325 . S
Tb513 O537 2.341 . S
Tb513 O538 2.484 . S
Tb513 O539 2.440 . S
Tb513 O540 2.658 . S
Tb513 O541 2.409 . S
Tb513 O542 2.378 . S
C514 Tb512 2.809 . S
C514 C515 1.514 . S
C514 O532 1.248 . S
C514 O533 1.266 . S
C515 C514 1.514 . S
C515 C516 1.359 . S
C515 C520 1.348 . S
C516 C515 1.359 . S
C516 C517 1.380 . S
C516 H544 0.929 . S
C517 C516 1.380 . S
C517 C518 1.347 . S
C517 H545 0.931 . S
C518 C517 1.347 . S
C518 C519 1.369 . S
C519 C518 1.369 . S
C519 C520 1.408 . S
C519 H546 0.930 . S
C520 C515 1.348 . S
C520 C519 1.408 . S
C520 H547 0.930 . S
C521 O534 1.281 . S
C521 O535 1.254 . S
C522 O536 1.236 . S
C522 O537 1.266 . S
C523 Tb513 2.809 . S
C523 C524 1.514 . S
C523 O538 1.248 . S
C523 O539 1.266 . S
C524 C523 1.514 . S
C524 C525 1.359 . S
C524 C529 1.348 . S
C525 C524 1.359 . S
C525 C526 1.380 . S
C525 H548 0.929 . S
C526 C525 1.380 . S
C526 C527 1.347 . S
C526 H549 0.931 . S
C527 C526 1.347 . S
C527 C528 1.369 . S
C528 C527 1.369 . S
C528 C529 1.408 . S
C528 H550 0.930 . S
C529 C524 1.348 . S
C529 C528 1.408 . S
C529 H551 0.930 . S
C530 O540 1.281 . S
C530 O541 1.254 . S
C531 O542 1.236 . S
C531 O543 1.266 . S
O532 Tb512 2.484 . S
O532 C514 1.248 . S
O533 Tb512 2.440 . S
O533 C514 1.266 . S
O534 Tb512 2.658 . S
O534 Tb513 2.325 . S
O534 C521 1.281 . S
O535 Tb512 2.409 . S
O535 C521 1.254 . S
O536 Tb512 2.378 . S
O536 C522 1.236 . S
O537 Tb513 2.341 . S
O537 C522 1.266 . S
O538 Tb513 2.484 . S
O538 C523 1.248 . S
O539 Tb513 2.440 . S
O539 C523 1.266 . S
O540 Tb512 2.325 . S
O540 Tb513 2.658 . S
O540 C530 1.281 . S
O541 Tb513 2.409 . S
O541 C530 1.254 . S
O542 Tb513 2.378 . S
O542 C531 1.236 . S
O543 Tb512 2.341 . S
O543 C531 1.266 . S
H544 C516 0.929 . S
H545 C517 0.931 . S
H546 C519 0.930 . S
H547 C520 0.930 . S
H548 C525 0.929 . S
H549 C526 0.931 . S
H550 C528 0.930 . S
H551 C529 0.930 . S
Tb552 C554 2.809 . S
Tb552 O572 2.484 . S
Tb552 O573 2.440 . S
Tb552 O574 2.658 1_556 S
Tb552 O575 2.409 1_556 S
Tb552 O576 2.378 1_556 S
Tb552 O580 2.318 1_556 S
Tb552 O583 2.341 . S
Tb553 C563 2.809 . S
Tb553 O574 2.325 . S
Tb553 O577 2.341 . S
Tb553 O578 2.484 . S
Tb553 O579 2.440 . S
Tb553 O580 2.668 . S
Tb553 O581 2.409 1_545 S
Tb553 O582 2.378 1_554 S
C554 Tb552 2.809 . S
C554 C555 1.514 . S
C554 O572 1.248 . S
C554 O573 1.266 . S
C555 C554 1.514 . S
C555 C556 1.359 1_545 S
C555 C560 1.348 . S
C556 C555 1.359 1_565 S
C556 C557 1.380 . S
C556 H584 0.929 . S
C557 C556 1.380 . S
C557 C558 1.347 . S
C557 H585 0.931 . S
C558 C557 1.347 . S
C558 C559 1.366 1_565 S
C559 C558 1.366 1_545 S
C559 C560 1.414 . S
C559 H586 0.928 1_556 S
C560 C555 1.348 . S
C560 C559 1.414 . S
C560 H587 0.931 1_556 S
C561 O574 1.281 . S
C561 O575 1.254 . S
C562 O576 1.236 . S
C562 O577 1.266 . S
C563 Tb553 2.809 . S
C563 C564 1.514 . S
C563 O578 1.248 . S
C563 O579 1.266 . S
C564 C563 1.514 . S
C564 C565 1.359 . S
C564 C569 1.348 . S
C565 C564 1.359 . S
C565 C566 1.380 . S
C565 H588 0.929 . S
C566 C565 1.380 . S
C566 C567 1.347 . S
C566 H589 0.931 . S
C567 C566 1.347 . S
C567 C568 1.369 . S
C568 C567 1.369 . S
C568 C569 1.408 . S
C568 H590 0.930 . S
C569 C564 1.348 . S
C569 C568 1.408 . S
C569 H591 0.930 . S
C570 O580 1.278 1_566 S
C570 O581 1.254 1_556 S
C571 O582 1.236 . S
C571 O583 1.266 . S
O572 Tb552 2.484 . S
O572 C554 1.248 . S
O573 Tb552 2.440 . S
O573 C554 1.266 . S
O574 Tb552 2.658 1_554 S
O574 Tb553 2.325 . S
O574 C561 1.281 . S
O575 Tb552 2.409 1_554 S
O575 C561 1.254 . S
O576 Tb552 2.378 1_554 S
O576 C562 1.236 . S
O577 Tb553 2.341 . S
O577 C562 1.266 . S
O578 Tb553 2.484 . S
O578 C563 1.248 . S
O579 Tb553 2.440 . S
O579 C563 1.266 . S
O580 Tb552 2.318 1_554 S
O580 Tb553 2.668 . S
O580 C570 1.278 1_544 S
O581 Tb553 2.409 1_565 S
O581 C570 1.254 1_554 S
O582 Tb553 2.378 1_556 S
O582 C571 1.236 . S
O583 Tb552 2.341 . S
O583 C571 1.266 . S
H584 C556 0.929 . S
H585 C557 0.931 . S
H586 C559 0.928 1_554 S
H587 C560 0.931 1_554 S
H588 C565 0.929 . S
H589 C566 0.931 . S
H590 C568 0.930 . S
H591 C569 0.930 . S
Tb592 C594 2.809 . S
Tb592 O612 2.484 . S
Tb592 O613 2.440 . S
Tb592 O614 2.658 . S
Tb592 O615 2.409 . S
Tb592 O616 2.378 . S
Tb592 O620 2.325 . S
Tb592 O623 2.341 . S
Tb593 C603 2.809 . S
Tb593 O614 2.325 . S
Tb593 O617 2.341 . S
Tb593 O618 2.484 . S
Tb593 O619 2.440 . S
Tb593 O620 2.658 . S
Tb593 O621 2.409 . S
Tb593 O622 2.378 . S
C594 Tb592 2.809 . S
C594 C595 1.514 . S
C594 O612 1.248 . S
C594 O613 1.266 . S
C595 C594 1.514 . S
C595 C596 1.359 . S
C595 C600 1.348 . S
C596 C595 1.359 . S
C596 C597 1.380 . S
C596 H624 0.929 . S
C597 C596 1.380 . S
C597 C598 1.347 . S
C597 H625 0.931 . S
C598 C597 1.347 . S
C598 C599 1.369 . S
C599 C598 1.369 . S
C599 C600 1.408 . S
C599 H626 0.930 . S
C600 C595 1.348 . S
C600 C599 1.408 . S
C600 H627 0.930 . S
C601 O614 1.281 . S
C601 O615 1.254 . S
C602 O616 1.236 . S
C602 O617 1.266 . S
C603 Tb593 2.809 . S
C603 C604 1.514 . S
C603 O618 1.248 . S
C603 O619 1.266 . S
C604 C603 1.514 . S
C604 C605 1.359 . S
C604 C609 1.348 . S
C605 C604 1.359 . S
C605 C606 1.380 . S
C605 H628 0.929 . S
C606 C605 1.380 . S
C606 C607 1.347 . S
C606 H629 0.931 . S
C607 C606 1.347 . S
C607 C608 1.369 . S
C608 C607 1.369 . S
C608 C609 1.408 . S
C608 H630 0.930 . S
C609 C604 1.348 . S
C609 C608 1.408 . S
C609 H631 0.930 . S
C610 O620 1.281 . S
C610 O621 1.254 . S
C611 O622 1.236 . S
C611 O623 1.266 . S
O612 Tb592 2.484 . S
O612 C594 1.248 . S
O613 Tb592 2.440 . S
O613 C594 1.266 . S
O614 Tb592 2.658 . S
O614 Tb593 2.325 . S
O614 C601 1.281 . S
O615 Tb592 2.409 . S
O615 C601 1.254 . S
O616 Tb592 2.378 . S
O616 C602 1.236 . S
O617 Tb593 2.341 . S
O617 C602 1.266 . S
O618 Tb593 2.484 . S
O618 C603 1.248 . S
O619 Tb593 2.440 . S
O619 C603 1.266 . S
O620 Tb592 2.325 . S
O620 Tb593 2.658 . S
O620 C610 1.281 . S
O621 Tb593 2.409 . S
O621 C610 1.254 . S
O622 Tb593 2.378 . S
O622 C611 1.236 . S
O623 Tb592 2.341 . S
O623 C611 1.266 . S
H624 C596 0.929 . S
H625 C597 0.931 . S
H626 C599 0.930 . S
H627 C600 0.930 . S
H628 C605 0.929 . S
H629 C606 0.931 . S
H630 C608 0.930 . S
H631 C609 0.930 . S
Tb632 C634 2.809 1_554 S
Tb632 O652 2.457 1_554 S
Tb632 O653 2.440 . S
Tb632 O654 2.658 . S
Tb632 O655 2.409 . S
Tb632 O656 2.378 1_554 S
Tb632 O660 2.325 . S
Tb632 O663 2.341 . S
Tb633 C643 2.809 . S
Tb633 O654 2.325 . S
Tb633 O657 2.341 1_554 S
Tb633 O658 2.484 . S
Tb633 O659 2.440 . S
Tb633 O660 2.658 . S
Tb633 O661 2.409 . S
Tb633 O662 2.378 . S
C634 Tb632 2.809 1_556 S
C634 C635 1.514 . S
C634 O652 1.246 . S
C634 O653 1.266 1_556 S
C635 C634 1.514 . S
C635 C636 1.359 . S
C635 C640 1.348 . S
C636 C635 1.359 . S
C636 C637 1.380 . S
C636 H664 0.929 . S
C637 C636 1.380 . S
C637 C638 1.347 . S
C637 H665 0.931 . S
C638 C637 1.347 . S
C638 C639 1.369 . S
C639 C638 1.369 . S
C639 C640 1.408 . S
C639 H666 0.930 . S
C640 C635 1.348 . S
C640 C639 1.408 . S
C640 H667 0.930 . S
C641 O654 1.281 . S
C641 O655 1.254 . S
C642 O656 1.236 . S
C642 O657 1.266 . S
C643 Tb633 2.809 . S
C643 C644 1.514 . S
C643 O658 1.248 . S
C643 O659 1.266 . S
C644 C643 1.514 . S
C644 C645 1.359 . S
C644 C649 1.348 . S
C645 C644 1.359 . S
C645 C646 1.380 . S
C645 H668 0.929 . S
C646 C645 1.380 . S
C646 C647 1.347 . S
C646 H669 0.931 . S
C647 C646 1.347 . S
C647 C648 1.369 . S
C648 C647 1.369 . S
C648 C649 1.408 . S
C648 H670 0.930 . S
C649 C644 1.348 . S
C649 C648 1.408 . S
C649 H671 0.930 . S
C650 O660 1.281 . S
C650 O661 1.254 . S
C651 O662 1.236 . S
C651 O663 1.266 . S
O652 Tb632 2.457 1_556 S
O652 C634 1.246 . S
O653 Tb632 2.440 . S
O653 C634 1.266 1_554 S
O654 Tb632 2.658 . S
O654 Tb633 2.325 . S
O654 C641 1.281 . S
O655 Tb632 2.409 . S
O655 C641 1.254 . S
O656 Tb632 2.378 1_556 S
O656 C642 1.236 . S
O657 Tb633 2.341 1_556 S
O657 C642 1.266 . S
O658 Tb633 2.484 . S
O658 C643 1.248 . S
O659 Tb633 2.440 . S
O659 C643 1.266 . S
O660 Tb632 2.325 . S
O660 Tb633 2.658 . S
O660 C650 1.281 . S
O661 Tb633 2.409 . S
O661 C650 1.254 . S
O662 Tb633 2.378 . S
O662 C651 1.236 . S
O663 Tb632 2.341 . S
O663 C651 1.266 . S
H664 C636 0.929 . S
H665 C637 0.931 . S
H666 C639 0.930 . S
H667 C640 0.930 . S
H668 C645 0.929 . S
H669 C646 0.931 . S
H670 C648 0.930 . S
H671 C649 0.930 . S
Tb672 C674 2.809 . S
Tb672 O692 2.484 . S
Tb672 O693 2.440 . S
Tb672 O694 2.658 . S
Tb672 O695 2.409 . S
Tb672 O696 2.378 . S
Tb672 O700 2.325 . S
Tb672 O703 2.341 . S
Tb673 C683 2.809 . S
Tb673 O694 2.325 . S
Tb673 O697 2.341 . S
Tb673 O698 2.484 . S
Tb673 O699 2.440 . S
Tb673 O700 2.658 . S
Tb673 O701 2.409 . S
Tb673 O702 2.378 . S
C674 Tb672 2.809 . S
C674 C675 1.514 . S
C674 O692 1.248 . S
C674 O693 1.266 . S
C675 C674 1.514 . S
C675 C676 1.359 . S
C675 C680 1.348 . S
C676 C675 1.359 . S
C676 C677 1.380 . S
C676 H704 0.929 . S
C677 C676 1.380 . S
C677 C678 1.347 . S
C677 H705 0.931 . S
C678 C677 1.347 . S
C678 C679 1.369 . S
C679 C678 1.369 . S
C679 C680 1.408 . S
C679 H706 0.930 . S
C680 C675 1.348 . S
C680 C679 1.408 . S
C680 H707 0.930 . S
C681 O694 1.281 . S
C681 O695 1.254 . S
C682 O696 1.236 . S
C682 O697 1.266 . S
C683 Tb673 2.809 . S
C683 C684 1.514 . S
C683 O698 1.248 . S
C683 O699 1.266 . S
C684 C683 1.514 . S
C684 C685 1.359 . S
C684 C689 1.348 . S
C685 C684 1.359 . S
C685 C686 1.380 . S
C685 H708 0.929 . S
C686 C685 1.380 . S
C686 C687 1.347 . S
C686 H709 0.931 . S
C687 C686 1.347 . S
C687 C688 1.369 . S
C688 C687 1.369 . S
C688 C689 1.408 . S
C688 H710 0.930 . S
C689 C684 1.348 . S
C689 C688 1.408 . S
C689 H711 0.930 . S
C690 O700 1.281 . S
C690 O701 1.254 . S
C691 O702 1.236 . S
C691 O703 1.266 . S
O692 Tb672 2.484 . S
O692 C674 1.248 . S
O693 Tb672 2.440 . S
O693 C674 1.266 . S
O694 Tb672 2.658 . S
O694 Tb673 2.325 . S
O694 C681 1.281 . S
O695 Tb672 2.409 . S
O695 C681 1.254 . S
O696 Tb672 2.378 . S
O696 C682 1.236 . S
O697 Tb673 2.341 . S
O697 C682 1.266 . S
O698 Tb673 2.484 . S
O698 C683 1.248 . S
O699 Tb673 2.440 . S
O699 C683 1.266 . S
O700 Tb672 2.325 . S
O700 Tb673 2.658 . S
O700 C690 1.281 . S
O701 Tb673 2.409 . S
O701 C690 1.254 . S
O702 Tb673 2.378 . S
O702 C691 1.236 . S
O703 Tb672 2.341 . S
O703 C691 1.266 . S
H704 C676 0.929 . S
H705 C677 0.931 . S
H706 C679 0.930 . S
H707 C680 0.930 . S
H708 C685 0.929 . S
H709 C686 0.931 . S
H710 C688 0.930 . S
H711 C689 0.930 . S
Tb712 C714 2.809 . S
Tb712 O732 2.484 . S
Tb712 O733 2.440 . S
Tb712 O734 2.658 1_655 S
Tb712 O735 2.409 1_655 S
Tb712 O736 2.378 . S
Tb712 O740 2.325 1_655 S
Tb712 O743 2.341 1_655 S
Tb713 C723 2.809 . S
Tb713 O734 2.325 . S
Tb713 O737 2.341 . S
Tb713 O738 2.484 . S
Tb713 O739 2.440 . S
Tb713 O740 2.658 . S
Tb713 O741 2.409 . S
Tb713 O742 2.378 . S
C714 Tb712 2.809 . S
C714 C715 1.514 . S
C714 O732 1.248 . S
C714 O733 1.266 . S
C715 C714 1.514 . S
C715 C716 1.359 . S
C715 C720 1.348 . S
C716 C715 1.359 . S
C716 C717 1.380 . S
C716 H744 0.929 . S
C717 C716 1.380 . S
C717 C718 1.347 . S
C717 H745 0.931 . S
C718 C717 1.347 . S
C718 C719 1.369 . S
C719 C718 1.369 . S
C719 C720 1.408 . S
C719 H746 0.930 . S
C720 C715 1.348 . S
C720 C719 1.408 . S
C720 H747 0.930 . S
C721 O734 1.281 . S
C721 O735 1.254 . S
C722 O736 1.236 1_455 S
C722 O737 1.266 . S
C723 Tb713 2.809 . S
C723 C724 1.514 . S
C723 O738 1.248 . S
C723 O739 1.266 . S
C724 C723 1.514 . S
C724 C725 1.359 . S
C724 C729 1.348 . S
C725 C724 1.359 . S
C725 C726 1.380 . S
C725 H748 0.929 . S
C726 C725 1.380 . S
C726 C727 1.347 . S
C726 H749 0.931 . S
C727 C726 1.347 . S
C727 C728 1.369 . S
C728 C727 1.369 . S
C728 C729 1.408 . S
C728 H750 0.930 . S
C729 C724 1.348 . S
C729 C728 1.408 . S
C729 H751 0.930 . S
C730 O740 1.281 . S
C730 O741 1.254 . S
C731 O742 1.236 . S
C731 O743 1.266 . S
O732 Tb712 2.484 . S
O732 C714 1.248 . S
O733 Tb712 2.440 . S
O733 C714 1.266 . S
O734 Tb712 2.658 1_455 S
O734 Tb713 2.325 . S
O734 C721 1.281 . S
O735 Tb712 2.409 1_455 S
O735 C721 1.254 . S
O736 Tb712 2.378 . S
O736 C722 1.236 1_655 S
O737 Tb713 2.341 . S
O737 C722 1.266 . S
O738 Tb713 2.484 . S
O738 C723 1.248 . S
O739 Tb713 2.440 . S
O739 C723 1.266 . S
O740 Tb712 2.325 1_455 S
O740 Tb713 2.658 . S
O740 C730 1.281 . S
O741 Tb713 2.409 . S
O741 C730 1.254 . S
O742 Tb713 2.378 . S
O742 C731 1.236 . S
O743 Tb712 2.341 1_455 S
O743 C731 1.266 . S
H744 C716 0.929 . S
H745 C717 0.931 . S
H746 C719 0.930 . S
H747 C720 0.930 . S
H748 C725 0.929 . S
H749 C726 0.931 . S
H750 C728 0.930 . S
H751 C729 0.930 . S
Tb752 C754 2.809 . S
Tb752 O772 2.484 . S
Tb752 O773 2.440 . S
Tb752 O774 2.658 . S
Tb752 O775 2.409 . S
Tb752 O776 2.378 . S
Tb752 O780 2.325 . S
Tb752 O783 2.341 . S
Tb753 C763 2.809 . S
Tb753 O774 2.325 . S
Tb753 O777 2.341 . S
Tb753 O778 2.484 . S
Tb753 O779 2.440 . S
Tb753 O780 2.658 . S
Tb753 O781 2.409 . S
Tb753 O782 2.378 . S
C754 Tb752 2.809 . S
C754 C755 1.514 . S
C754 O772 1.248 . S
C754 O773 1.266 . S
C755 C754 1.514 . S
C755 C756 1.359 . S
C755 C760 1.348 . S
C756 C755 1.359 . S
C756 C757 1.380 . S
C756 H784 0.929 . S
C757 C756 1.380 . S
C757 C758 1.347 . S
C757 H785 0.931 . S
C758 C757 1.347 . S
C758 C759 1.369 . S
C759 C758 1.369 . S
C759 C760 1.408 . S
C759 H786 0.930 . S
C760 C755 1.348 . S
C760 C759 1.408 . S
C760 H787 0.930 . S
C761 O774 1.281 . S
C761 O775 1.254 . S
C762 O776 1.236 . S
C762 O777 1.266 . S
C763 Tb753 2.809 . S
C763 C764 1.514 . S
C763 O778 1.248 . S
C763 O779 1.266 . S
C764 C763 1.514 . S
C764 C765 1.359 . S
C764 C769 1.348 . S
C765 C764 1.359 . S
C765 C766 1.380 . S
C765 H788 0.929 . S
C766 C765 1.380 . S
C766 C767 1.347 . S
C766 H789 0.931 . S
C767 C766 1.347 . S
C767 C768 1.369 . S
C768 C767 1.369 . S
C768 C769 1.408 . S
C768 H790 0.930 . S
C769 C764 1.348 . S
C769 C768 1.408 . S
C769 H791 0.930 . S
C770 O780 1.281 . S
C770 O781 1.254 . S
C771 O782 1.236 . S
C771 O783 1.266 . S
O772 Tb752 2.484 . S
O772 C754 1.248 . S
O773 Tb752 2.440 . S
O773 C754 1.266 . S
O774 Tb752 2.658 . S
O774 Tb753 2.325 . S
O774 C761 1.281 . S
O775 Tb752 2.409 . S
O775 C761 1.254 . S
O776 Tb752 2.378 . S
O776 C762 1.236 . S
O777 Tb753 2.341 . S
O777 C762 1.266 . S
O778 Tb753 2.484 . S
O778 C763 1.248 . S
O779 Tb753 2.440 . S
O779 C763 1.266 . S
O780 Tb752 2.325 . S
O780 Tb753 2.658 . S
O780 C770 1.281 . S
O781 Tb753 2.409 . S
O781 C770 1.254 . S
O782 Tb753 2.378 . S
O782 C771 1.236 . S
O783 Tb752 2.341 . S
O783 C771 1.266 . S
H784 C756 0.929 . S
H785 C757 0.931 . S
H786 C759 0.930 . S
H787 C760 0.930 . S
H788 C765 0.929 . S
H789 C766 0.931 . S
H790 C768 0.930 . S
H791 C769 0.930 . S
Tb792 C794 2.809 . S
Tb792 O812 2.484 . S
Tb792 O813 2.440 . S
Tb792 O814 2.658 . S
Tb792 O815 2.409 . S
Tb792 O816 2.378 . S
Tb792 O820 2.325 . S
Tb792 O823 2.341 . S
Tb793 C803 2.809 . S
Tb793 O814 2.325 . S
Tb793 O817 2.341 . S
Tb793 O818 2.484 . S
Tb793 O819 2.440 . S
Tb793 O820 2.658 . S
Tb793 O821 2.409 . S
Tb793 O822 2.378 . S
C794 Tb792 2.809 . S
C794 C795 1.514 . S
C794 O812 1.248 . S
C794 O813 1.266 . S
C795 C794 1.514 . S
C795 C796 1.359 . S
C795 C800 1.348 . S
C796 C795 1.359 . S
C796 C797 1.380 . S
C796 H824 0.929 . S
C797 C796 1.380 . S
C797 C798 1.347 . S
C797 H825 0.931 . S
C798 C797 1.347 . S
C798 C799 1.369 . S
C799 C798 1.369 . S
C799 C800 1.408 . S
C799 H826 0.930 . S
C800 C795 1.348 . S
C800 C799 1.408 . S
C800 H827 0.930 . S
C801 O814 1.281 . S
C801 O815 1.254 . S
C802 O816 1.236 . S
C802 O817 1.266 . S
C803 Tb793 2.809 . S
C803 C804 1.514 . S
C803 O818 1.248 . S
C803 O819 1.266 . S
C804 C803 1.514 . S
C804 C805 1.359 . S
C804 C809 1.348 . S
C805 C804 1.359 . S
C805 C806 1.380 . S
C805 H828 0.929 . S
C806 C805 1.380 . S
C806 C807 1.347 . S
C806 H829 0.931 . S
C807 C806 1.347 . S
C807 C808 1.369 . S
C808 C807 1.369 . S
C808 C809 1.408 . S
C808 H830 0.930 . S
C809 C804 1.348 . S
C809 C808 1.408 . S
C809 H831 0.930 . S
C810 O820 1.281 . S
C810 O821 1.254 . S
C811 O822 1.236 . S
C811 O823 1.266 . S
O812 Tb792 2.484 . S
O812 C794 1.248 . S
O813 Tb792 2.440 . S
O813 C794 1.266 . S
O814 Tb792 2.658 . S
O814 Tb793 2.325 . S
O814 C801 1.281 . S
O815 Tb792 2.409 . S
O815 C801 1.254 . S
O816 Tb792 2.378 . S
O816 C802 1.236 . S
O817 Tb793 2.341 . S
O817 C802 1.266 . S
O818 Tb793 2.484 . S
O818 C803 1.248 . S
O819 Tb793 2.440 . S
O819 C803 1.266 . S
O820 Tb792 2.325 . S
O820 Tb793 2.658 . S
O820 C810 1.281 . S
O821 Tb793 2.409 . S
O821 C810 1.254 . S
O822 Tb793 2.378 . S
O822 C811 1.236 . S
O823 Tb792 2.341 . S
O823 C811 1.266 . S
H824 C796 0.929 . S
H825 C797 0.931 . S
H826 C799 0.930 . S
H827 C800 0.930 . S
H828 C805 0.929 . S
H829 C806 0.931 . S
H830 C808 0.930 . S
H831 C809 0.930 . S
Tb832 C834 2.809 . S
Tb832 O852 2.484 . S
Tb832 O853 2.440 . S
Tb832 O854 2.658 . S
Tb832 O855 2.409 . S
Tb832 O856 2.378 . S
Tb832 O860 2.325 . S
Tb832 O863 2.341 . S
Tb833 C843 2.809 . S
Tb833 O854 2.325 . S
Tb833 O857 2.341 . S
Tb833 O858 2.484 . S
Tb833 O859 2.440 . S
Tb833 O860 2.658 . S
Tb833 O861 2.409 . S
Tb833 O862 2.378 . S
C834 Tb832 2.809 . S
C834 C835 1.514 . S
C834 O852 1.248 . S
C834 O853 1.266 . S
C835 C834 1.514 . S
C835 C836 1.359 . S
C835 C840 1.348 . S
C836 C835 1.359 . S
C836 C837 1.380 . S
C836 H864 0.929 . S
C837 C836 1.380 . S
C837 C838 1.347 . S
C837 H865 0.931 . S
C838 C837 1.347 . S
C838 C839 1.369 . S
C839 C838 1.369 . S
C839 C840 1.408 . S
C839 H866 0.930 . S
C840 C835 1.348 . S
C840 C839 1.408 . S
C840 H867 0.930 . S
C841 O854 1.281 . S
C841 O855 1.254 . S
C842 O856 1.236 . S
C842 O857 1.266 . S
C843 Tb833 2.809 . S
C843 C844 1.514 . S
C843 O858 1.248 . S
C843 O859 1.266 . S
C844 C843 1.514 . S
C844 C845 1.359 . S
C844 C849 1.348 . S
C845 C844 1.359 . S
C845 C846 1.380 . S
C845 H868 0.929 . S
C846 C845 1.380 . S
C846 C847 1.347 . S
C846 H869 0.931 . S
C847 C846 1.347 . S
C847 C848 1.369 . S
C848 C847 1.369 . S
C848 C849 1.408 . S
C848 H870 0.930 . S
C849 C844 1.348 . S
C849 C848 1.408 . S
C849 H871 0.930 . S
C850 O860 1.281 . S
C850 O861 1.254 . S
C851 O862 1.236 . S
C851 O863 1.266 . S
O852 Tb832 2.484 . S
O852 C834 1.248 . S
O853 Tb832 2.440 . S
O853 C834 1.266 . S
O854 Tb832 2.658 . S
O854 Tb833 2.325 . S
O854 C841 1.281 . S
O855 Tb832 2.409 . S
O855 C841 1.254 . S
O856 Tb832 2.378 . S
O856 C842 1.236 . S
O857 Tb833 2.341 . S
O857 C842 1.266 . S
O858 Tb833 2.484 . S
O858 C843 1.248 . S
O859 Tb833 2.440 . S
O859 C843 1.266 . S
O860 Tb832 2.325 . S
O860 Tb833 2.658 . S
O860 C850 1.281 . S
O861 Tb833 2.409 . S
O861 C850 1.254 . S
O862 Tb833 2.378 . S
O862 C851 1.236 . S
O863 Tb832 2.341 . S
O863 C851 1.266 . S
H864 C836 0.929 . S
H865 C837 0.931 . S
H866 C839 0.930 . S
H867 C840 0.930 . S
H868 C845 0.929 . S
H869 C846 0.931 . S
H870 C848 0.930 . S
H871 C849 0.930 . S
Tb872 C874 2.809 . S
Tb872 O892 2.484 . S
Tb872 O893 2.440 . S
Tb872 O894 2.658 . S
Tb872 O895 2.409 . S
Tb872 O896 2.378 . S
Tb872 O900 2.325 . S
Tb872 O903 2.341 . S
Tb873 C883 2.809 . S
Tb873 O894 2.325 . S
Tb873 O897 2.341 . S
Tb873 O898 2.484 . S
Tb873 O899 2.440 . S
Tb873 O900 2.658 . S
Tb873 O901 2.409 . S
Tb873 O902 2.378 . S
C874 Tb872 2.809 . S
C874 C875 1.514 . S
C874 O892 1.248 . S
C874 O893 1.266 . S
C875 C874 1.514 . S
C875 C876 1.359 . S
C875 C880 1.348 . S
C876 C875 1.359 . S
C876 C877 1.380 . S
C876 H904 0.929 . S
C877 C876 1.380 . S
C877 C878 1.347 . S
C877 H905 0.931 . S
C878 C877 1.347 . S
C878 C879 1.369 . S
C879 C878 1.369 . S
C879 C880 1.408 . S
C879 H906 0.930 . S
C880 C875 1.348 . S
C880 C879 1.408 . S
C880 H907 0.930 . S
C881 O894 1.281 . S
C881 O895 1.254 . S
C882 O896 1.236 . S
C882 O897 1.266 . S
C883 Tb873 2.809 . S
C883 C884 1.514 . S
C883 O898 1.248 . S
C883 O899 1.266 . S
C884 C883 1.514 . S
C884 C885 1.359 . S
C884 C889 1.348 . S
C885 C884 1.359 . S
C885 C886 1.380 . S
C885 H908 0.929 . S
C886 C885 1.380 . S
C886 C887 1.347 . S
C886 H909 0.931 . S
C887 C886 1.347 . S
C887 C888 1.369 . S
C888 C887 1.369 . S
C888 C889 1.408 . S
C888 H910 0.930 . S
C889 C884 1.348 . S
C889 C888 1.408 . S
C889 H911 0.930 . S
C890 O900 1.281 . S
C890 O901 1.254 . S
C891 O902 1.236 . S
C891 O903 1.266 . S
O892 Tb872 2.484 . S
O892 C874 1.248 . S
O893 Tb872 2.440 . S
O893 C874 1.266 . S
O894 Tb872 2.658 . S
O894 Tb873 2.325 . S
O894 C881 1.281 . S
O895 Tb872 2.409 . S
O895 C881 1.254 . S
O896 Tb872 2.378 . S
O896 C882 1.236 . S
O897 Tb873 2.341 . S
O897 C882 1.266 . S
O898 Tb873 2.484 . S
O898 C883 1.248 . S
O899 Tb873 2.440 . S
O899 C883 1.266 . S
O900 Tb872 2.325 . S
O900 Tb873 2.658 . S
O900 C890 1.281 . S
O901 Tb873 2.409 . S
O901 C890 1.254 . S
O902 Tb873 2.378 . S
O902 C891 1.236 . S
O903 Tb872 2.341 . S
O903 C891 1.266 . S
H904 C876 0.929 . S
H905 C877 0.931 . S
H906 C879 0.930 . S
H907 C880 0.930 . S
H908 C885 0.929 . S
H909 C886 0.931 . S
H910 C888 0.930 . S
H911 C889 0.930 . S
Tb912 C914 2.809 . S
Tb912 O932 2.484 . S
Tb912 O933 2.440 . S
Tb912 O934 2.658 . S
Tb912 O935 2.409 1_554 S
Tb912 O936 2.378 . S
Tb912 O940 2.325 . S
Tb912 O943 2.341 . S
Tb913 C923 2.809 1_455 S
Tb913 O934 2.325 . S
Tb913 O937 2.341 . S
Tb913 O938 2.484 1_455 S
Tb913 O939 2.440 1_455 S
Tb913 O940 2.658 . S
Tb913 O941 2.409 . S
Tb913 O942 2.378 . S
C914 Tb912 2.809 . S
C914 C915 1.514 . S
C914 O932 1.248 . S
C914 O933 1.266 . S
C915 C914 1.514 . S
C915 C916 1.359 . S
C915 C920 1.348 1_554 S
C916 C915 1.359 . S
C916 C917 1.380 . S
C916 H944 0.929 . S
C917 C916 1.380 . S
C917 C918 1.347 . S
C917 H945 0.931 . S
C918 C917 1.347 . S
C918 C919 1.369 1_554 S
C919 C918 1.369 1_556 S
C919 C920 1.408 . S
C919 H946 0.930 . S
C920 C915 1.348 1_556 S
C920 C919 1.408 . S
C920 H947 0.930 . S
C921 O934 1.281 1_556 S
C921 O935 1.254 . S
C922 O936 1.236 . S
C922 O937 1.266 . S
C923 Tb913 2.809 1_655 S
C923 C924 1.514 . S
C923 O938 1.248 . S
C923 O939 1.266 . S
C924 C923 1.514 . S
C924 C925 1.359 . S
C924 C929 1.348 . S
C925 C924 1.359 . S
C925 C926 1.380 . S
C925 H948 0.929 . S
C926 C925 1.380 . S
C926 C927 1.347 . S
C926 H949 0.931 . S
C927 C926 1.347 . S
C927 C928 1.369 . S
C928 C927 1.369 . S
C928 C929 1.408 . S
C928 H950 0.930 . S
C929 C924 1.348 . S
C929 C928 1.408 . S
C929 H951 0.930 . S
C930 O940 1.281 . S
C930 O941 1.254 . S
C931 O942 1.236 . S
C931 O943 1.266 . S
O932 Tb912 2.484 . S
O932 C914 1.248 . S
O933 Tb912 2.440 . S
O933 C914 1.266 . S
O934 Tb912 2.658 . S
O934 Tb913 2.325 . S
O934 C921 1.281 1_554 S
O935 Tb912 2.409 1_556 S
O935 C921 1.254 . S
O936 Tb912 2.378 . S
O936 C922 1.236 . S
O937 Tb913 2.341 . S
O937 C922 1.266 . S
O938 Tb913 2.484 1_655 S
O938 C923 1.248 . S
O939 Tb913 2.440 1_655 S
O939 C923 1.266 . S
O940 Tb912 2.325 . S
O940 Tb913 2.658 . S
O940 C930 1.281 . S
O941 Tb913 2.409 . S
O941 C930 1.254 . S
O942 Tb913 2.378 . S
O942 C931 1.236 . S
O943 Tb912 2.341 . S
O943 C931 1.266 . S
H944 C916 0.929 . S
H945 C917 0.931 . S
H946 C919 0.930 . S
H947 C920 0.930 . S
H948 C925 0.929 . S
H949 C926 0.931 . S
H950 C928 0.930 . S
H951 C929 0.930 . S
C952 C953 1.349 . S
C952 C954 1.327 . S
C952 H977 0.950 . S
C953 C952 1.349 . S
C953 C969 1.349 . S
C954 C952 1.327 . S
C954 C973 1.429 . S
C954 H978 0.950 . S
C955 C972 1.570 1_556 S
C955 C974 1.375 . S
C955 H979 0.947 1_556 S
H956 C960 0.949 . S
C957 C958 1.349 . S
C957 C959 1.327 . S
C957 H980 0.950 . S
C958 C957 1.349 . S
C958 C970 1.349 . S
C959 C957 1.327 . S
C959 C975 1.429 . S
C959 H981 0.950 . S
C960 H956 0.949 . S
C960 C968 1.574 . S
C960 C976 1.362 1_556 S
H961 C969 0.950 . S
H962 C967 0.950 . S
H963 C968 0.949 . S
H964 C970 0.950 . S
H965 C971 0.950 1_556 S
H966 C972 0.949 . S
C967 H962 0.950 . S
C967 C969 1.327 . S
C967 C973 1.429 . S
C968 C960 1.574 . S
C968 H963 0.949 . S
C968 C974 1.368 . S
C969 C953 1.349 . S
C969 H961 0.950 . S
C969 C967 1.327 . S
C970 C958 1.349 . S
C970 H964 0.950 . S
C970 C971 1.327 . S
C971 H965 0.950 1_554 S
C971 C970 1.327 . S
C971 C975 1.429 . S
C972 C955 1.570 1_554 S
C972 H966 0.949 . S
C972 C976 1.372 . S
C973 C954 1.429 . S
C973 C967 1.429 . S
C973 C974 1.523 . S
C974 C955 1.375 . S
C974 C968 1.368 . S
C974 C973 1.523 . S
C975 C959 1.429 . S
C975 C971 1.429 . S
C975 C976 1.527 . S
C976 C960 1.362 1_554 S
C976 C972 1.372 . S
C976 C975 1.527 . S
H977 C952 0.950 . S
H978 C954 0.950 . S
H979 C955 0.947 1_554 S
H980 C957 0.950 . S
H981 C959 0.950 . S
C982 C983 1.349 . S
C982 C984 1.327 . S
C982 H1007 0.950 . S
C983 C982 1.349 . S
C983 C999 1.349 . S
C984 C982 1.327 . S
C984 C1003 1.429 . S
C984 H1008 0.950 . S
C985 C1002 1.574 . S
C985 C1004 1.368 . S
C985 H1009 0.949 . S
H986 C990 0.949 . S
C987 C988 1.349 . S
C987 C989 1.327 . S
C987 H1010 0.950 . S
C988 C987 1.349 . S
C988 C1000 1.349 . S
C989 C987 1.327 . S
C989 C1005 1.429 . S
C989 H1011 0.950 . S
C990 H986 0.949 . S
C990 C998 1.574 . S
C990 C1006 1.368 . S
H991 C999 0.950 . S
H992 C997 0.950 . S
H993 C998 0.949 . S
H994 C1000 0.950 . S
H995 C1001 0.950 . S
H996 C1002 0.949 . S
C997 H992 0.950 . S
C997 C999 1.327 . S
C997 C1003 1.429 . S
C998 C990 1.574 . S
C998 H993 0.949 . S
C998 C1004 1.368 . S
C999 C983 1.349 . S
C999 H991 0.950 . S
C999 C997 1.327 . S
C1000 C988 1.349 . S
C1000 H994 0.950 . S
C1000 C1001 1.327 . S
C1001 H995 0.950 . S
C1001 C1000 1.327 . S
C1001 C1005 1.429 . S
C1002 C985 1.574 . S
C1002 H996 0.949 . S
C1002 C1006 1.368 . S
C1003 C984 1.429 . S
C1003 C997 1.429 . S
C1003 C1004 1.523 . S
C1004 C985 1.368 . S
C1004 C998 1.368 . S
C1004 C1003 1.523 . S
C1005 C989 1.429 . S
C1005 C1001 1.429 . S
C1005 C1006 1.523 . S
C1006 C990 1.368 . S
C1006 C1002 1.368 . S
C1006 C1005 1.523 . S
H1007 C982 0.950 . S
H1008 C984 0.950 . S
H1009 C985 0.949 . S
H1010 C987 0.950 . S
H1011 C989 0.950 . S
C1012 C1013 1.349 . S
C1012 C1014 1.327 . S
C1012 H1037 0.950 . S
C1013 C1012 1.349 . S
C1013 C1029 1.349 . S
C1014 C1012 1.327 . S
C1014 C1033 1.429 . S
C1014 H1038 0.950 . S
C1015 C1032 1.574 . S
C1015 C1034 1.368 . S
C1015 H1039 0.949 . S
H1016 C1020 0.949 . S
C1017 C1018 1.349 . S
C1017 C1019 1.327 . S
C1017 H1040 0.950 . S
C1018 C1017 1.349 . S
C1018 C1030 1.349 . S
C1019 C1017 1.327 . S
C1019 C1035 1.429 . S
C1019 H1041 0.950 . S
C1020 H1016 0.949 . S
C1020 C1028 1.574 . S
C1020 C1036 1.368 . S
H1021 C1029 0.950 . S
H1022 C1027 0.950 . S
H1023 C1028 0.949 . S
H1024 C1030 0.950 . S
H1025 C1031 0.950 . S
H1026 C1032 0.949 . S
C1027 H1022 0.950 . S
C1027 C1029 1.327 . S
C1027 C1033 1.429 . S
C1028 C1020 1.574 . S
C1028 H1023 0.949 . S
C1028 C1034 1.368 . S
C1029 C1013 1.349 . S
C1029 H1021 0.950 . S
C1029 C1027 1.327 . S
C1030 C1018 1.349 . S
C1030 H1024 0.950 . S
C1030 C1031 1.327 . S
C1031 H1025 0.950 . S
C1031 C1030 1.327 . S
C1031 C1035 1.429 . S
C1032 C1015 1.574 . S
C1032 H1026 0.949 . S
C1032 C1036 1.368 . S
C1033 C1014 1.429 . S
C1033 C1027 1.429 . S
C1033 C1034 1.523 . S
C1034 C1015 1.368 . S
C1034 C1028 1.368 . S
C1034 C1033 1.523 . S
C1035 C1019 1.429 . S
C1035 C1031 1.429 . S
C1035 C1036 1.523 . S
C1036 C1020 1.368 . S
C1036 C1032 1.368 . S
C1036 C1035 1.523 . S
H1037 C1012 0.950 . S
H1038 C1014 0.950 . S
H1039 C1015 0.949 . S
H1040 C1017 0.950 . S
H1041 C1019 0.950 . S
C1042 C1043 1.349 . S
C1042 C1044 1.327 . S
C1042 H1067 0.950 . S
C1043 C1042 1.349 . S
C1043 C1059 1.349 . S
C1044 C1042 1.327 . S
C1044 C1063 1.429 . S
C1044 H1068 0.950 . S
C1045 C1062 1.574 . S
C1045 C1064 1.368 . S
C1045 H1069 0.949 . S
H1046 C1050 0.949 . S
C1047 C1048 1.349 . S
C1047 C1049 1.327 . S
C1047 H1070 0.950 . S
C1048 C1047 1.349 . S
C1048 C1060 1.349 . S
C1049 C1047 1.327 . S
C1049 C1065 1.429 . S
C1049 H1071 0.950 . S
C1050 H1046 0.949 . S
C1050 C1058 1.574 . S
C1050 C1066 1.368 . S
H1051 C1059 0.950 . S
H1052 C1057 0.950 . S
H1053 C1058 0.949 . S
H1054 C1060 0.950 . S
H1055 C1061 0.950 . S
H1056 C1062 0.949 . S
C1057 H1052 0.950 . S
C1057 C1059 1.327 . S
C1057 C1063 1.429 . S
C1058 C1050 1.574 . S
C1058 H1053 0.949 . S
C1058 C1064 1.368 . S
C1059 C1043 1.349 . S
C1059 H1051 0.950 . S
C1059 C1057 1.327 . S
C1060 C1048 1.349 . S
C1060 H1054 0.950 . S
C1060 C1061 1.327 . S
C1061 H1055 0.950 . S
C1061 C1060 1.327 . S
C1061 C1065 1.429 . S
C1062 C1045 1.574 . S
C1062 H1056 0.949 . S
C1062 C1066 1.368 . S
C1063 C1044 1.429 . S
C1063 C1057 1.429 . S
C1063 C1064 1.523 . S
C1064 C1045 1.368 . S
C1064 C1058 1.368 . S
C1064 C1063 1.523 . S
C1065 C1049 1.429 . S
C1065 C1061 1.429 . S
C1065 C1066 1.523 . S
C1066 C1050 1.368 . S
C1066 C1062 1.368 . S
C1066 C1065 1.523 . S
H1067 C1042 0.950 . S
H1068 C1044 0.950 . S
H1069 C1045 0.949 . S
H1070 C1047 0.950 . S
H1071 C1049 0.950 . S
C1072 C1073 1.349 . S
C1072 C1074 1.327 . S
C1072 H1097 0.950 . S
C1073 C1072 1.349 . S
C1073 C1089 1.349 . S
C1074 C1072 1.327 . S
C1074 C1093 1.429 . S
C1074 H1098 0.950 . S
C1075 C1092 1.574 . S
C1075 C1094 1.368 . S
C1075 H1099 0.949 . S
H1076 C1080 0.949 . S
C1077 C1078 1.349 . S
C1077 C1079 1.327 . S
C1077 H1100 0.950 . S
C1078 C1077 1.349 . S
C1078 C1090 1.349 . S
C1079 C1077 1.327 . S
C1079 C1095 1.429 . S
C1079 H1101 0.950 . S
C1080 H1076 0.949 . S
C1080 C1088 1.574 . S
C1080 C1096 1.368 . S
H1081 C1089 0.950 . S
H1082 C1087 0.950 . S
H1083 C1088 0.949 . S
H1084 C1090 0.950 . S
H1085 C1091 0.950 . S
H1086 C1092 0.949 . S
C1087 H1082 0.950 . S
C1087 C1089 1.327 . S
C1087 C1093 1.429 . S
C1088 C1080 1.574 . S
C1088 H1083 0.949 . S
C1088 C1094 1.368 . S
C1089 C1073 1.349 . S
C1089 H1081 0.950 . S
C1089 C1087 1.327 . S
C1090 C1078 1.349 . S
C1090 H1084 0.950 . S
C1090 C1091 1.327 . S
C1091 H1085 0.950 . S
C1091 C1090 1.327 . S
C1091 C1095 1.429 . S
C1092 C1075 1.574 . S
C1092 H1086 0.949 . S
C1092 C1096 1.368 . S
C1093 C1074 1.429 . S
C1093 C1087 1.429 . S
C1093 C1094 1.523 . S
C1094 C1075 1.368 . S
C1094 C1088 1.368 . S
C1094 C1093 1.523 . S
C1095 C1079 1.429 . S
C1095 C1091 1.429 . S
C1095 C1096 1.523 . S
C1096 C1080 1.368 . S
C1096 C1092 1.368 . S
C1096 C1095 1.523 . S
H1097 C1072 0.950 . S
H1098 C1074 0.950 . S
H1099 C1075 0.949 . S
H1100 C1077 0.950 . S
H1101 C1079 0.950 . S
C1102 C1103 1.349 . S
C1102 C1104 1.327 . S
C1102 H1127 0.950 . S
C1103 C1102 1.349 . S
C1103 C1119 1.349 . S
C1104 C1102 1.327 . S
C1104 C1123 1.429 . S
C1104 H1128 0.950 . S
C1105 C1122 1.574 . S
C1105 C1124 1.368 . S
C1105 H1129 0.949 . S
H1106 C1110 0.949 . S
C1107 C1108 1.349 . S
C1107 C1109 1.327 . S
C1107 H1130 0.950 . S
C1108 C1107 1.349 . S
C1108 C1120 1.349 . S
C1109 C1107 1.327 . S
C1109 C1125 1.429 . S
C1109 H1131 0.950 . S
C1110 H1106 0.949 . S
C1110 C1118 1.574 . S
C1110 C1126 1.368 . S
H1111 C1119 0.950 . S
H1112 C1117 0.950 . S
H1113 C1118 0.949 . S
H1114 C1120 0.950 . S
H1115 C1121 0.950 . S
H1116 C1122 0.949 . S
C1117 H1112 0.950 . S
C1117 C1119 1.327 . S
C1117 C1123 1.429 . S
C1118 C1110 1.574 . S
C1118 H1113 0.949 . S
C1118 C1124 1.368 . S
C1119 C1103 1.349 . S
C1119 H1111 0.950 . S
C1119 C1117 1.327 . S
C1120 C1108 1.349 . S
C1120 H1114 0.950 . S
C1120 C1121 1.327 . S
C1121 H1115 0.950 . S
C1121 C1120 1.327 . S
C1121 C1125 1.429 . S
C1122 C1105 1.574 . S
C1122 H1116 0.949 . S
C1122 C1126 1.368 . S
C1123 C1104 1.429 . S
C1123 C1117 1.429 . S
C1123 C1124 1.523 . S
C1124 C1105 1.368 . S
C1124 C1118 1.368 . S
C1124 C1123 1.523 . S
C1125 C1109 1.429 . S
C1125 C1121 1.429 . S
C1125 C1126 1.523 . S
C1126 C1110 1.368 . S
C1126 C1122 1.368 . S
C1126 C1125 1.523 . S
H1127 C1102 0.950 . S
H1128 C1104 0.950 . S
H1129 C1105 0.949 . S
H1130 C1107 0.950 . S
H1131 C1109 0.950 . S
C1132 C1133 1.349 . S
C1132 C1134 1.327 . S
C1132 H1157 0.950 . S
C1133 C1132 1.349 . S
C1133 C1149 1.349 . S
C1134 C1132 1.327 . S
C1134 C1153 1.429 . S
C1134 H1158 0.950 . S
C1135 C1152 1.574 . S
C1135 C1154 1.368 . S
C1135 H1159 0.949 . S
H1136 C1140 0.949 . S
C1137 C1138 1.349 . S
C1137 C1139 1.327 . S
C1137 H1160 0.950 . S
C1138 C1137 1.349 . S
C1138 C1150 1.349 . S
C1139 C1137 1.327 . S
C1139 C1155 1.429 . S
C1139 H1161 0.950 . S
C1140 H1136 0.949 . S
C1140 C1148 1.574 . S
C1140 C1156 1.368 . S
H1141 C1149 0.950 . S
H1142 C1147 0.950 . S
H1143 C1148 0.949 . S
H1144 C1150 0.950 . S
H1145 C1151 0.950 . S
H1146 C1152 0.949 . S
C1147 H1142 0.950 . S
C1147 C1149 1.327 . S
C1147 C1153 1.429 . S
C1148 C1140 1.574 . S
C1148 H1143 0.949 . S
C1148 C1154 1.368 . S
C1149 C1133 1.349 . S
C1149 H1141 0.950 . S
C1149 C1147 1.327 . S
C1150 C1138 1.349 . S
C1150 H1144 0.950 . S
C1150 C1151 1.327 . S
C1151 H1145 0.950 . S
C1151 C1150 1.327 . S
C1151 C1155 1.429 . S
C1152 C1135 1.574 . S
C1152 H1146 0.949 . S
C1152 C1156 1.368 . S
C1153 C1134 1.429 . S
C1153 C1147 1.429 . S
C1153 C1154 1.523 . S
C1154 C1135 1.368 . S
C1154 C1148 1.368 . S
C1154 C1153 1.523 . S
C1155 C1139 1.429 . S
C1155 C1151 1.429 . S
C1155 C1156 1.523 . S
C1156 C1140 1.368 . S
C1156 C1152 1.368 . S
C1156 C1155 1.523 . S
H1157 C1132 0.950 . S
H1158 C1134 0.950 . S
H1159 C1135 0.949 . S
H1160 C1137 0.950 . S
H1161 C1139 0.950 . S
C1162 C1163 1.349 . S
C1162 C1164 1.327 . S
C1162 H1187 0.950 . S
C1163 C1162 1.349 . S
C1163 C1179 1.349 . S
C1164 C1162 1.327 . S
C1164 C1183 1.429 . S
C1164 H1188 0.950 . S
C1165 C1182 1.574 . S
C1165 C1184 1.368 . S
C1165 H1189 0.949 . S
H1166 C1170 0.949 . S
C1167 C1168 1.349 . S
C1167 C1169 1.327 . S
C1167 H1190 0.950 . S
C1168 C1167 1.349 . S
C1168 C1180 1.349 . S
C1169 C1167 1.327 . S
C1169 C1185 1.429 . S
C1169 H1191 0.950 . S
C1170 H1166 0.949 . S
C1170 C1178 1.574 . S
C1170 C1186 1.368 . S
H1171 C1179 0.950 . S
H1172 C1177 0.950 . S
H1173 C1178 0.949 . S
H1174 C1180 0.950 . S
H1175 C1181 0.950 . S
H1176 C1182 0.949 . S
C1177 H1172 0.950 . S
C1177 C1179 1.327 . S
C1177 C1183 1.429 . S
C1178 C1170 1.574 . S
C1178 H1173 0.949 . S
C1178 C1184 1.368 . S
C1179 C1163 1.349 . S
C1179 H1171 0.950 . S
C1179 C1177 1.327 . S
C1180 C1168 1.349 . S
C1180 H1174 0.950 . S
C1180 C1181 1.327 . S
C1181 H1175 0.950 . S
C1181 C1180 1.327 . S
C1181 C1185 1.429 . S
C1182 C1165 1.574 . S
C1182 H1176 0.949 . S
C1182 C1186 1.368 . S
C1183 C1164 1.429 . S
C1183 C1177 1.429 . S
C1183 C1184 1.523 . S
C1184 C1165 1.368 . S
C1184 C1178 1.368 . S
C1184 C1183 1.523 . S
C1185 C1169 1.429 . S
C1185 C1181 1.429 . S
C1185 C1186 1.523 . S
C1186 C1170 1.368 . S
C1186 C1182 1.368 . S
C1186 C1185 1.523 . S
H1187 C1162 0.950 . S
H1188 C1164 0.950 . S
H1189 C1165 0.949 . S
H1190 C1167 0.950 . S
H1191 C1169 0.950 . S
C1192 C1193 1.349 . S
C1192 C1194 1.327 . S
C1192 H1217 0.950 . S
C1193 C1192 1.349 . S
C1193 C1209 1.349 . S
C1194 C1192 1.327 . S
C1194 C1213 1.429 . S
C1194 H1218 0.950 . S
C1195 C1212 1.574 . S
C1195 C1214 1.368 . S
C1195 H1219 0.962 . S
H1196 C1200 0.949 . S
C1197 C1198 1.349 . S
C1197 C1199 1.327 . S
C1197 H1220 0.950 . S
C1198 C1197 1.349 . S
C1198 C1210 1.349 . S
C1199 C1197 1.327 . S
C1199 C1215 1.429 . S
C1199 H1221 0.973 . S
C1200 H1196 0.949 . S
C1200 C1208 1.579 . S
C1200 C1216 1.368 . S
H1201 C1209 0.950 1_565 S
H1202 C1207 0.950 1_565 S
H1203 C1208 0.949 . S
H1204 C1210 0.950 . S
H1205 C1211 0.950 . S
H1206 C1212 0.949 . S
C1207 H1202 0.950 1_545 S
C1207 C1209 1.327 . S
C1207 C1213 1.429 . S
C1208 C1200 1.579 . S
C1208 H1203 0.949 . S
C1208 C1214 1.363 1_455 S
C1209 C1193 1.349 . S
C1209 H1201 0.950 1_545 S
C1209 C1207 1.327 . S
C1210 C1198 1.349 . S
C1210 H1204 0.950 . S
C1210 C1211 1.327 . S
C1211 H1205 0.950 . S
C1211 C1210 1.327 . S
C1211 C1215 1.429 . S
C1212 C1195 1.574 . S
C1212 H1206 0.949 . S
C1212 C1216 1.368 1_655 S
C1213 C1194 1.429 . S
C1213 C1207 1.429 . S
C1213 C1214 1.523 . S
C1214 C1195 1.368 . S
C1214 C1208 1.363 1_655 S
C1214 C1213 1.523 . S
C1215 C1199 1.429 . S
C1215 C1211 1.429 . S
C1215 C1216 1.523 . S
C1216 C1200 1.368 . S
C1216 C1212 1.368 1_455 S
C1216 C1215 1.523 . S
H1217 C1192 0.950 . S
H1218 C1194 0.950 . S
H1219 C1195 0.962 . S
H1220 C1197 0.950 . S
H1221 C1199 0.973 . S
C1222 C1223 1.349 . S
C1222 C1224 1.327 . S
C1222 H1247 0.950 . S
C1223 C1222 1.349 . S
C1223 C1239 1.349 . S
C1224 C1222 1.327 . S
C1224 C1243 1.429 . S
C1224 H1248 0.950 . S
C1225 C1242 1.574 . S
C1225 C1244 1.368 . S
C1225 H1249 0.949 . S
H1226 C1230 0.949 . S
C1227 C1228 1.349 . S
C1227 C1229 1.327 . S
C1227 H1250 0.950 . S
C1228 C1227 1.349 . S
C1228 C1240 1.349 . S
C1229 C1227 1.327 . S
C1229 C1245 1.429 . S
C1229 H1251 0.950 . S
C1230 H1226 0.949 . S
C1230 C1238 1.574 . S
C1230 C1246 1.368 . S
H1231 C1239 0.950 . S
H1232 C1237 0.950 . S
H1233 C1238 0.949 . S
H1234 C1240 0.950 . S
H1235 C1241 0.950 . S
H1236 C1242 0.949 . S
C1237 H1232 0.950 . S
C1237 C1239 1.327 . S
C1237 C1243 1.429 . S
C1238 C1230 1.574 . S
C1238 H1233 0.949 . S
C1238 C1244 1.368 . S
C1239 C1223 1.349 . S
C1239 H1231 0.950 . S
C1239 C1237 1.327 . S
C1240 C1228 1.349 . S
C1240 H1234 0.950 . S
C1240 C1241 1.327 . S
C1241 H1235 0.950 . S
C1241 C1240 1.327 . S
C1241 C1245 1.429 . S
C1242 C1225 1.574 . S
C1242 H1236 0.949 . S
C1242 C1246 1.368 . S
C1243 C1224 1.429 . S
C1243 C1237 1.429 . S
C1243 C1244 1.523 . S
C1244 C1225 1.368 . S
C1244 C1238 1.368 . S
C1244 C1243 1.523 . S
C1245 C1229 1.429 . S
C1245 C1241 1.429 . S
C1245 C1246 1.523 . S
C1246 C1230 1.368 . S
C1246 C1242 1.368 . S
C1246 C1245 1.523 . S
H1247 C1222 0.950 . S
H1248 C1224 0.950 . S
H1249 C1225 0.949 . S
H1250 C1227 0.950 . S
H1251 C1229 0.950 . S
C1252 C1253 1.349 1_565 S
C1252 C1254 1.327 . S
C1252 H1277 0.950 . S
C1253 C1252 1.349 1_545 S
C1253 C1269 1.349 . S
C1254 C1252 1.327 . S
C1254 C1273 1.429 1_565 S
C1254 H1278 0.950 . S
C1255 C1272 1.574 . S
C1255 C1274 1.368 . S
C1255 H1279 0.949 . S
H1256 C1260 0.949 . S
C1257 C1258 1.349 . S
C1257 C1259 1.327 . S
C1257 H1280 0.950 . S
C1258 C1257 1.349 . S
C1258 C1270 1.349 1_545 S
C1259 C1257 1.327 . S
C1259 C1275 1.429 . S
C1259 H1281 0.950 . S
C1260 H1256 0.949 . S
C1260 C1268 1.574 . S
C1260 C1276 1.368 1_565 S
H1261 C1269 0.950 . S
H1262 C1267 0.950 . S
H1263 C1268 0.949 . S
H1264 C1270 0.950 . S
H1265 C1271 0.950 . S
H1266 C1272 0.949 . S
C1267 H1262 0.950 . S
C1267 C1269 1.327 . S
C1267 C1273 1.429 . S
C1268 C1260 1.574 . S
C1268 H1263 0.949 . S
C1268 C1274 1.368 1_565 S
C1269 C1253 1.349 . S
C1269 H1261 0.950 . S
C1269 C1267 1.327 . S
C1270 C1258 1.349 1_565 S
C1270 H1264 0.950 . S
C1270 C1271 1.327 . S
C1271 H1265 0.950 . S
C1271 C1270 1.327 . S
C1271 C1275 1.429 1_565 S
C1272 C1255 1.574 . S
C1272 H1266 0.949 . S
C1272 C1276 1.368 . S
C1273 C1254 1.429 1_545 S
C1273 C1267 1.429 . S
C1273 C1274 1.523 . S
C1274 C1255 1.368 . S
C1274 C1268 1.368 1_545 S
C1274 C1273 1.523 . S
C1275 C1259 1.429 . S
C1275 C1271 1.429 1_545 S
C1275 C1276 1.523 . S
C1276 C1260 1.368 1_545 S
C1276 C1272 1.368 . S
C1276 C1275 1.523 . S
H1277 C1252 0.950 . S
H1278 C1254 0.950 . S
H1279 C1255 0.949 . S
H1280 C1257 0.950 . S
H1281 C1259 0.950 . S
C1282 C1283 1.349 . S
C1282 C1284 1.327 . S
C1282 H1307 0.950 . S
C1283 C1282 1.349 . S
C1283 C1299 1.349 . S
C1284 C1282 1.327 . S
C1284 C1303 1.429 . S
C1284 H1308 0.950 . S
C1285 C1302 1.574 . S
C1285 C1304 1.368 . S
C1285 H1309 0.949 . S
H1286 C1290 0.949 . S
C1287 C1288 1.349 . S
C1287 C1289 1.327 . S
C1287 H1310 0.950 . S
C1288 C1287 1.349 . S
C1288 C1300 1.349 . S
C1289 C1287 1.327 . S
C1289 C1305 1.429 . S
C1289 H1311 0.950 . S
C1290 H1286 0.949 . S
C1290 C1298 1.574 . S
C1290 C1306 1.368 . S
H1291 C1299 0.950 . S
H1292 C1297 0.950 . S
H1293 C1298 0.949 . S
H1294 C1300 0.950 . S
H1295 C1301 0.950 . S
H1296 C1302 0.949 . S
C1297 H1292 0.950 . S
C1297 C1299 1.327 . S
C1297 C1303 1.429 . S
C1298 C1290 1.574 . S
C1298 H1293 0.949 . S
C1298 C1304 1.368 . S
C1299 C1283 1.349 . S
C1299 H1291 0.950 . S
C1299 C1297 1.327 . S
C1300 C1288 1.349 . S
C1300 H1294 0.950 . S
C1300 C1301 1.327 . S
C1301 H1295 0.950 . S
C1301 C1300 1.327 . S
C1301 C1305 1.429 . S
C1302 C1285 1.574 . S
C1302 H1296 0.949 . S
C1302 C1306 1.368 . S
C1303 C1284 1.429 . S
C1303 C1297 1.429 . S
C1303 C1304 1.523 . S
C1304 C1285 1.368 . S
C1304 C1298 1.368 . S
C1304 C1303 1.523 . S
C1305 C1289 1.429 . S
C1305 C1301 1.429 . S
C1305 C1306 1.523 . S
C1306 C1290 1.368 . S
C1306 C1302 1.368 . S
C1306 C1305 1.523 . S
H1307 C1282 0.950 . S
H1308 C1284 0.950 . S
H1309 C1285 0.949 . S
H1310 C1287 0.950 . S
H1311 C1289 0.950 . S
C1312 C1313 1.349 1_565 S
C1312 C1314 1.327 . S
C1312 H1337 0.950 . S
C1313 C1312 1.349 1_545 S
C1313 C1329 1.349 . S
C1314 C1312 1.327 . S
C1314 C1333 1.429 1_565 S
C1314 H1338 0.950 . S
C1315 C1332 1.574 . S
C1315 C1334 1.368 . S
C1315 H1339 0.949 . S
H1316 C1320 0.949 . S
C1317 C1318 1.349 . S
C1317 C1319 1.327 . S
C1317 H1340 0.950 . S
C1318 C1317 1.349 . S
C1318 C1330 1.349 1_545 S
C1319 C1317 1.327 . S
C1319 C1335 1.429 . S
C1319 H1341 0.950 . S
C1320 H1316 0.949 . S
C1320 C1328 1.574 1_455 S
C1320 C1336 1.368 1_565 S
H1321 C1329 0.950 . S
H1322 C1327 0.950 . S
H1323 C1328 0.949 . S
H1324 C1330 0.950 . S
H1325 C1331 0.950 . S
H1326 C1332 0.949 . S
C1327 H1322 0.950 . S
C1327 C1329 1.327 . S
C1327 C1333 1.429 . S
C1328 C1320 1.574 1_655 S
C1328 H1323 0.949 . S
C1328 C1334 1.368 1_565 S
C1329 C1313 1.349 . S
C1329 H1321 0.950 . S
C1329 C1327 1.327 . S
C1330 C1318 1.349 1_565 S
C1330 H1324 0.950 . S
C1330 C1331 1.327 . S
C1331 H1325 0.950 . S
C1331 C1330 1.327 . S
C1331 C1335 1.429 1_565 S
C1332 C1315 1.574 . S
C1332 H1326 0.949 . S
C1332 C1336 1.368 1_655 S
C1333 C1314 1.429 1_545 S
C1333 C1327 1.429 . S
C1333 C1334 1.523 . S
C1334 C1315 1.368 . S
C1334 C1328 1.368 1_545 S
C1334 C1333 1.523 . S
C1335 C1319 1.429 . S
C1335 C1331 1.429 1_545 S
C1335 C1336 1.523 . S
C1336 C1320 1.368 1_545 S
C1336 C1332 1.368 1_455 S
C1336 C1335 1.523 . S
H1337 C1312 0.950 . S
H1338 C1314 0.950 . S
H1339 C1315 0.949 . S
H1340 C1317 0.950 . S
H1341 C1319 0.950 . S
C1342 C1343 1.349 . S
C1342 C1344 1.327 . S
C1342 H1367 0.950 . S
C1343 C1342 1.349 . S
C1343 C1359 1.349 . S
C1344 C1342 1.327 . S
C1344 C1363 1.429 . S
C1344 H1368 0.950 . S
C1345 C1362 1.574 . S
C1345 C1364 1.368 . S
C1345 H1369 0.949 . S
H1346 C1350 0.949 . S
C1347 C1348 1.349 . S
C1347 C1349 1.327 . S
C1347 H1370 0.950 . S
C1348 C1347 1.349 . S
C1348 C1360 1.349 . S
C1349 C1347 1.327 . S
C1349 C1365 1.429 . S
C1349 H1371 0.950 . S
C1350 H1346 0.949 . S
C1350 C1358 1.574 . S
C1350 C1366 1.368 . S
H1351 C1359 0.950 . S
H1352 C1357 0.950 . S
H1353 C1358 0.949 . S
H1354 C1360 0.950 . S
H1355 C1361 0.950 . S
H1356 C1362 0.949 . S
C1357 H1352 0.950 . S
C1357 C1359 1.327 . S
C1357 C1363 1.429 . S
C1358 C1350 1.574 . S
C1358 H1353 0.949 . S
C1358 C1364 1.368 . S
C1359 C1343 1.349 . S
C1359 H1351 0.950 . S
C1359 C1357 1.327 . S
C1360 C1348 1.349 . S
C1360 H1354 0.950 . S
C1360 C1361 1.327 . S
C1361 H1355 0.950 . S
C1361 C1360 1.327 . S
C1361 C1365 1.429 . S
C1362 C1345 1.574 . S
C1362 H1356 0.949 . S
C1362 C1366 1.368 . S
C1363 C1344 1.429 . S
C1363 C1357 1.429 . S
C1363 C1364 1.523 . S
C1364 C1345 1.368 . S
C1364 C1358 1.368 . S
C1364 C1363 1.523 . S
C1365 C1349 1.429 . S
C1365 C1361 1.429 . S
C1365 C1366 1.523 . S
C1366 C1350 1.368 . S
C1366 C1362 1.368 . S
C1366 C1365 1.523 . S
H1367 C1342 0.950 . S
H1368 C1344 0.950 . S
H1369 C1345 0.949 . S
H1370 C1347 0.950 . S
H1371 C1349 0.950 . S
C1372 C1373 1.349 . S
C1372 C1374 1.327 . S
C1372 H1397 0.950 . S
C1373 C1372 1.349 . S
C1373 C1389 1.349 . S
C1374 C1372 1.327 . S
C1374 C1393 1.429 . S
C1374 H1398 0.950 . S
C1375 C1392 1.574 . S
C1375 C1394 1.368 . S
C1375 H1399 0.949 . S
H1376 C1380 0.949 . S
C1377 C1378 1.349 . S
C1377 C1379 1.327 . S
C1377 H1400 0.950 . S
C1378 C1377 1.349 . S
C1378 C1390 1.349 . S
C1379 C1377 1.327 . S
C1379 C1395 1.429 . S
C1379 H1401 0.950 . S
C1380 H1376 0.949 . S
C1380 C1388 1.574 . S
C1380 C1396 1.368 . S
H1381 C1389 0.950 . S
H1382 C1387 0.950 . S
H1383 C1388 0.949 . S
H1384 C1390 0.950 . S
H1385 C1391 0.950 . S
H1386 C1392 0.949 . S
C1387 H1382 0.950 . S
C1387 C1389 1.327 . S
C1387 C1393 1.429 . S
C1388 C1380 1.574 . S
C1388 H1383 0.949 . S
C1388 C1394 1.368 . S
C1389 C1373 1.349 . S
C1389 H1381 0.950 . S
C1389 C1387 1.327 . S
C1390 C1378 1.349 . S
C1390 H1384 0.950 . S
C1390 C1391 1.327 . S
C1391 H1385 0.950 . S
C1391 C1390 1.327 . S
C1391 C1395 1.429 . S
C1392 C1375 1.574 . S
C1392 H1386 0.949 . S
C1392 C1396 1.368 . S
C1393 C1374 1.429 . S
C1393 C1387 1.429 . S
C1393 C1394 1.523 . S
C1394 C1375 1.368 . S
C1394 C1388 1.368 . S
C1394 C1393 1.523 . S
C1395 C1379 1.429 . S
C1395 C1391 1.429 . S
C1395 C1396 1.523 . S
C1396 C1380 1.368 . S
C1396 C1392 1.368 . S
C1396 C1395 1.523 . S
H1397 C1372 0.950 . S
H1398 C1374 0.950 . S
H1399 C1375 0.949 . S
H1400 C1377 0.950 . S
H1401 C1379 0.950 . S
C1402 C1403 1.349 . S
C1402 C1404 1.327 . S
C1402 H1427 0.950 . S
C1403 C1402 1.349 . S
C1403 C1419 1.349 . S
C1404 C1402 1.327 . S
C1404 C1423 1.429 . S
C1404 H1428 0.950 . S
C1405 C1422 1.574 . S
C1405 C1424 1.368 . S
C1405 H1429 0.949 . S
H1406 C1410 0.949 . S
C1407 C1408 1.349 . S
C1407 C1409 1.327 . S
C1407 H1430 0.950 . S
C1408 C1407 1.349 . S
C1408 C1420 1.349 . S
C1409 C1407 1.327 . S
C1409 C1425 1.429 . S
C1409 H1431 0.950 . S
C1410 H1406 0.949 . S
C1410 C1418 1.574 . S
C1410 C1426 1.368 . S
H1411 C1419 0.950 . S
H1412 C1417 0.950 . S
H1413 C1418 0.949 . S
H1414 C1420 0.950 . S
H1415 C1421 0.950 . S
H1416 C1422 0.949 . S
C1417 H1412 0.950 . S
C1417 C1419 1.327 . S
C1417 C1423 1.429 . S
C1418 C1410 1.574 . S
C1418 H1413 0.949 . S
C1418 C1424 1.368 . S
C1419 C1403 1.349 . S
C1419 H1411 0.950 . S
C1419 C1417 1.327 . S
C1420 C1408 1.349 . S
C1420 H1414 0.950 . S
C1420 C1421 1.327 . S
C1421 H1415 0.950 . S
C1421 C1420 1.327 . S
C1421 C1425 1.429 . S
C1422 C1405 1.574 . S
C1422 H1416 0.949 . S
C1422 C1426 1.368 . S
C1423 C1404 1.429 . S
C1423 C1417 1.429 . S
C1423 C1424 1.523 . S
C1424 C1405 1.368 . S
C1424 C1418 1.368 . S
C1424 C1423 1.523 . S
C1425 C1409 1.429 . S
C1425 C1421 1.429 . S
C1425 C1426 1.523 . S
C1426 C1410 1.368 . S
C1426 C1422 1.368 . S
C1426 C1425 1.523 . S
H1427 C1402 0.950 . S
H1428 C1404 0.950 . S
H1429 C1405 0.949 . S
H1430 C1407 0.950 . S
H1431 C1409 0.950 . S
C1432 C1433 1.349 . S
C1432 C1434 1.327 . S
C1432 H1457 0.950 . S
C1433 C1432 1.349 . S
C1433 C1449 1.349 1_554 S
C1434 C1432 1.327 . S
C1434 C1453 1.429 . S
C1434 H1458 0.950 . S
C1435 C1452 1.574 . S
C1435 C1454 1.368 . S
C1435 H1459 0.949 . S
H1436 C1440 0.949 . S
C1437 C1438 1.349 . S
C1437 C1439 1.327 . S
C1437 H1460 0.950 . S
C1438 C1437 1.349 . S
C1438 C1450 1.349 . S
C1439 C1437 1.327 . S
C1439 C1455 1.429 . S
C1439 H1461 0.950 . S
C1440 H1436 0.949 . S
C1440 C1448 1.574 . S
C1440 C1456 1.368 . S
H1441 C1449 0.950 . S
H1442 C1447 0.950 1_556 S
H1443 C1448 0.949 . S
H1444 C1450 0.950 . S
H1445 C1451 0.950 . S
H1446 C1452 0.949 . S
C1447 H1442 0.950 1_554 S
C1447 C1449 1.327 1_554 S
C1447 C1453 1.429 . S
C1448 C1440 1.574 . S
C1448 H1443 0.949 . S
C1448 C1454 1.368 . S
C1449 C1433 1.349 1_556 S
C1449 H1441 0.950 . S
C1449 C1447 1.327 1_556 S
C1450 C1438 1.349 . S
C1450 H1444 0.950 . S
C1450 C1451 1.327 . S
C1451 H1445 0.950 . S
C1451 C1450 1.327 . S
C1451 C1455 1.429 . S
C1452 C1435 1.574 . S
C1452 H1446 0.949 . S
C1452 C1456 1.368 . S
C1453 C1434 1.429 . S
C1453 C1447 1.429 . S
C1453 C1454 1.523 . S
C1454 C1435 1.368 . S
C1454 C1448 1.368 . S
C1454 C1453 1.523 . S
C1455 C1439 1.429 . S
C1455 C1451 1.429 . S
C1455 C1456 1.523 . S
C1456 C1440 1.368 . S
C1456 C1452 1.368 . S
C1456 C1455 1.523 . S
H1457 C1432 0.950 . S
H1458 C1434 0.950 . S
H1459 C1435 0.949 . S
H1460 C1437 0.950 . S
H1461 C1439 0.950 . S
C1462 C1463 1.349 . S
C1462 C1464 1.318 . S
C1462 H1487 0.950 1_554 S
C1463 C1462 1.349 . S
C1463 C1479 1.349 . S
C1464 C1462 1.318 . S
C1464 C1483 1.470 . S
C1464 H1488 0.920 1_554 S
C1465 C1482 1.574 . S
C1465 C1484 1.368 . S
C1465 H1489 0.949 . S
H1466 C1470 0.952 . S
C1467 C1468 1.349 . S
C1467 C1469 1.327 . S
C1467 H1490 0.950 . S
C1468 C1467 1.349 . S
C1468 C1480 1.364 . S
C1469 C1467 1.327 . S
C1469 C1485 1.429 . S
C1469 H1491 0.950 . S
C1470 H1466 0.952 . S
C1470 C1478 1.576 . S
C1470 C1486 1.365 1_556 S
H1471 C1479 0.950 . S
H1472 C1477 0.950 . S
H1473 C1478 0.945 . S
H1474 C1480 0.939 1_556 S
H1475 C1481 0.944 1_556 S
H1476 C1482 0.949 . S
C1477 H1472 0.950 . S
C1477 C1479 1.327 . S
C1477 C1483 1.429 . S
C1478 C1470 1.576 . S
C1478 H1473 0.945 . S
C1478 C1484 1.372 1_556 S
C1479 C1463 1.349 . S
C1479 H1471 0.950 . S
C1479 C1477 1.327 . S
C1480 C1468 1.364 . S
C1480 H1474 0.939 1_554 S
C1480 C1481 1.324 . S
C1481 H1475 0.944 1_554 S
C1481 C1480 1.324 . S
C1481 C1485 1.432 . S
C1482 C1465 1.574 . S
C1482 H1476 0.949 . S
C1482 C1486 1.368 . S
C1483 C1464 1.470 . S
C1483 C1477 1.429 . S
C1483 C1484 1.523 . S
C1484 C1465 1.368 . S
C1484 C1478 1.372 1_554 S
C1484 C1483 1.523 . S
C1485 C1469 1.429 . S
C1485 C1481 1.432 . S
C1485 C1486 1.523 . S
C1486 C1470 1.365 1_554 S
C1486 C1482 1.368 . S
C1486 C1485 1.523 . S
H1487 C1462 0.950 1_556 S
H1488 C1464 0.920 1_556 S
H1489 C1465 0.949 . S
H1490 C1467 0.950 . S
H1491 C1469 0.950 . S
C1492 C1493 1.349 . S
C1492 C1494 1.327 . S
C1492 H1517 0.950 . S
C1493 C1492 1.349 . S
C1493 C1509 1.349 . S
C1494 C1492 1.327 . S
C1494 C1513 1.429 . S
C1494 H1518 0.950 . S
C1495 C1512 1.574 . S
C1495 C1514 1.368 . S
C1495 H1519 0.949 . S
H1496 C1500 0.949 . S
C1497 C1498 1.349 . S
C1497 C1499 1.327 . S
C1497 H1520 0.950 . S
C1498 C1497 1.349 . S
C1498 C1510 1.349 . S
C1499 C1497 1.327 . S
C1499 C1515 1.429 . S
C1499 H1521 0.950 . S
C1500 H1496 0.949 . S
C1500 C1508 1.574 . S
C1500 C1516 1.368 . S
H1501 C1509 0.950 . S
H1502 C1507 0.950 . S
H1503 C1508 0.949 . S
H1504 C1510 0.950 . S
H1505 C1511 0.950 . S
H1506 C1512 0.949 . S
C1507 H1502 0.950 . S
C1507 C1509 1.327 . S
C1507 C1513 1.429 . S
C1508 C1500 1.574 . S
C1508 H1503 0.949 . S
C1508 C1514 1.368 . S
C1509 C1493 1.349 . S
C1509 H1501 0.950 . S
C1509 C1507 1.327 . S
C1510 C1498 1.349 . S
C1510 H1504 0.950 . S
C1510 C1511 1.327 . S
C1511 H1505 0.950 . S
C1511 C1510 1.327 . S
C1511 C1515 1.429 . S
C1512 C1495 1.574 . S
C1512 H1506 0.949 . S
C1512 C1516 1.368 . S
C1513 C1494 1.429 . S
C1513 C1507 1.429 . S
C1513 C1514 1.523 . S
C1514 C1495 1.368 . S
C1514 C1508 1.368 . S
C1514 C1513 1.523 . S
C1515 C1499 1.429 . S
C1515 C1511 1.429 . S
C1515 C1516 1.523 . S
C1516 C1500 1.368 . S
C1516 C1512 1.368 . S
C1516 C1515 1.523 . S
H1517 C1492 0.950 . S
H1518 C1494 0.950 . S
H1519 C1495 0.949 . S
H1520 C1497 0.950 . S
H1521 C1499 0.950 . S
C1522 C1523 1.349 . S
C1522 C1524 1.327 . S
C1522 H1547 0.950 . S
C1523 C1522 1.349 . S
C1523 C1539 1.349 . S
C1524 C1522 1.327 . S
C1524 C1543 1.429 . S
C1524 H1548 0.950 . S
C1525 C1542 1.574 . S
C1525 C1544 1.368 . S
C1525 H1549 0.949 . S
H1526 C1530 0.949 . S
C1527 C1528 1.349 . S
C1527 C1529 1.327 . S
C1527 H1550 0.950 . S
C1528 C1527 1.349 . S
C1528 C1540 1.349 . S
C1529 C1527 1.327 . S
C1529 C1545 1.429 . S
C1529 H1551 0.950 . S
C1530 H1526 0.949 . S
C1530 C1538 1.574 . S
C1530 C1546 1.368 . S
H1531 C1539 0.950 . S
H1532 C1537 0.950 . S
H1533 C1538 0.949 . S
H1534 C1540 0.950 . S
H1535 C1541 0.950 . S
H1536 C1542 0.949 . S
C1537 H1532 0.950 . S
C1537 C1539 1.327 . S
C1537 C1543 1.429 . S
C1538 C1530 1.574 . S
C1538 H1533 0.949 . S
C1538 C1544 1.368 . S
C1539 C1523 1.349 . S
C1539 H1531 0.950 . S
C1539 C1537 1.327 . S
C1540 C1528 1.349 . S
C1540 H1534 0.950 . S
C1540 C1541 1.327 . S
C1541 H1535 0.950 . S
C1541 C1540 1.327 . S
C1541 C1545 1.429 . S
C1542 C1525 1.574 . S
C1542 H1536 0.949 . S
C1542 C1546 1.368 . S
C1543 C1524 1.429 . S
C1543 C1537 1.429 . S
C1543 C1544 1.523 . S
C1544 C1525 1.368 . S
C1544 C1538 1.368 . S
C1544 C1543 1.523 . S
C1545 C1529 1.429 . S
C1545 C1541 1.429 . S
C1545 C1546 1.523 . S
C1546 C1530 1.368 . S
C1546 C1542 1.368 . S
C1546 C1545 1.523 . S
H1547 C1522 0.950 . S
H1548 C1524 0.950 . S
H1549 C1525 0.949 . S
H1550 C1527 0.950 . S
H1551 C1529 0.950 . S
C1552 C1553 1.349 . S
C1552 C1554 1.327 . S
C1552 H1577 0.950 . S
C1553 C1552 1.349 . S
C1553 C1569 1.349 . S
C1554 C1552 1.327 . S
C1554 C1573 1.429 . S
C1554 H1578 0.950 . S
C1555 C1572 1.574 . S
C1555 C1574 1.368 . S
C1555 H1579 0.949 . S
H1556 C1560 0.949 . S
C1557 C1558 1.349 . S
C1557 C1559 1.327 . S
C1557 H1580 0.950 . S
C1558 C1557 1.349 . S
C1558 C1570 1.349 . S
C1559 C1557 1.327 . S
C1559 C1575 1.429 . S
C1559 H1581 0.950 . S
C1560 H1556 0.949 . S
C1560 C1568 1.574 . S
C1560 C1576 1.368 . S
H1561 C1569 0.950 . S
H1562 C1567 0.950 . S
H1563 C1568 0.949 . S
H1564 C1570 0.950 . S
H1565 C1571 0.950 . S
H1566 C1572 0.949 . S
C1567 H1562 0.950 . S
C1567 C1569 1.327 . S
C1567 C1573 1.429 . S
C1568 C1560 1.574 . S
C1568 H1563 0.949 . S
C1568 C1574 1.368 . S
C1569 C1553 1.349 . S
C1569 H1561 0.950 . S
C1569 C1567 1.327 . S
C1570 C1558 1.349 . S
C1570 H1564 0.950 . S
C1570 C1571 1.327 . S
C1571 H1565 0.950 . S
C1571 C1570 1.327 . S
C1571 C1575 1.429 . S
C1572 C1555 1.574 . S
C1572 H1566 0.949 . S
C1572 C1576 1.368 . S
C1573 C1554 1.429 . S
C1573 C1567 1.429 . S
C1573 C1574 1.523 . S
C1574 C1555 1.368 . S
C1574 C1568 1.368 . S
C1574 C1573 1.523 . S
C1575 C1559 1.429 . S
C1575 C1571 1.429 . S
C1575 C1576 1.523 . S
C1576 C1560 1.368 . S
C1576 C1572 1.368 . S
C1576 C1575 1.523 . S
H1577 C1552 0.950 . S
H1578 C1554 0.950 . S
H1579 C1555 0.949 . S
H1580 C1557 0.950 . S
H1581 C1559 0.950 . S
C1582 C1583 1.349 . S
C1582 C1584 1.327 . S
C1582 H1607 0.950 . S
C1583 C1582 1.349 . S
C1583 C1599 1.349 . S
C1584 C1582 1.327 . S
C1584 C1603 1.429 . S
C1584 H1608 0.950 . S
C1585 C1602 1.574 . S
C1585 C1604 1.368 . S
C1585 H1609 0.949 . S
H1586 C1590 0.949 . S
C1587 C1588 1.349 . S
C1587 C1589 1.327 . S
C1587 H1610 0.950 . S
C1588 C1587 1.349 . S
C1588 C1600 1.349 . S
C1589 C1587 1.327 . S
C1589 C1605 1.429 . S
C1589 H1611 0.950 . S
C1590 H1586 0.949 . S
C1590 C1598 1.574 . S
C1590 C1606 1.368 . S
H1591 C1599 0.950 . S
H1592 C1597 0.950 . S
H1593 C1598 0.949 . S
H1594 C1600 0.950 . S
H1595 C1601 0.950 . S
H1596 C1602 0.949 . S
C1597 H1592 0.950 . S
C1597 C1599 1.327 . S
C1597 C1603 1.429 . S
C1598 C1590 1.574 . S
C1598 H1593 0.949 . S
C1598 C1604 1.368 . S
C1599 C1583 1.349 . S
C1599 H1591 0.950 . S
C1599 C1597 1.327 . S
C1600 C1588 1.349 . S
C1600 H1594 0.950 . S
C1600 C1601 1.327 . S
C1601 H1595 0.950 . S
C1601 C1600 1.327 . S
C1601 C1605 1.429 . S
C1602 C1585 1.574 . S
C1602 H1596 0.949 . S
C1602 C1606 1.368 . S
C1603 C1584 1.429 . S
C1603 C1597 1.429 . S
C1603 C1604 1.523 . S
C1604 C1585 1.368 . S
C1604 C1598 1.368 . S
C1604 C1603 1.523 . S
C1605 C1589 1.429 . S
C1605 C1601 1.429 . S
C1605 C1606 1.523 . S
C1606 C1590 1.368 . S
C1606 C1602 1.368 . S
C1606 C1605 1.523 . S
H1607 C1582 0.950 . S
H1608 C1584 0.950 . S
H1609 C1585 0.949 . S
H1610 C1587 0.950 . S
H1611 C1589 0.950 . S
C1612 C1613 1.349 . S
C1612 C1614 1.327 . S
C1612 H1637 0.950 . S
C1613 C1612 1.349 . S
C1613 C1629 1.349 . S
C1614 C1612 1.327 . S
C1614 C1633 1.429 . S
C1614 H1638 0.950 . S
C1615 C1632 1.574 . S
C1615 C1634 1.368 . S
C1615 H1639 0.949 . S
H1616 C1620 0.949 . S
C1617 C1618 1.349 . S
C1617 C1619 1.327 . S
C1617 H1640 0.950 . S
C1618 C1617 1.349 . S
C1618 C1630 1.349 . S
C1619 C1617 1.327 . S
C1619 C1635 1.429 . S
C1619 H1641 0.950 . S
C1620 H1616 0.949 . S
C1620 C1628 1.574 . S
C1620 C1636 1.368 . S
H1621 C1629 0.950 . S
H1622 C1627 0.950 . S
H1623 C1628 0.949 . S
H1624 C1630 0.950 . S
H1625 C1631 0.950 . S
H1626 C1632 0.949 . S
C1627 H1622 0.950 . S
C1627 C1629 1.327 . S
C1627 C1633 1.429 . S
C1628 C1620 1.574 . S
C1628 H1623 0.949 . S
C1628 C1634 1.368 . S
C1629 C1613 1.349 . S
C1629 H1621 0.950 . S
C1629 C1627 1.327 . S
C1630 C1618 1.349 . S
C1630 H1624 0.950 . S
C1630 C1631 1.327 . S
C1631 H1625 0.950 . S
C1631 C1630 1.327 . S
C1631 C1635 1.429 . S
C1632 C1615 1.574 . S
C1632 H1626 0.949 . S
C1632 C1636 1.368 . S
C1633 C1614 1.429 . S
C1633 C1627 1.429 . S
C1633 C1634 1.523 . S
C1634 C1615 1.368 . S
C1634 C1628 1.368 . S
C1634 C1633 1.523 . S
C1635 C1619 1.429 . S
C1635 C1631 1.429 . S
C1635 C1636 1.523 . S
C1636 C1620 1.368 . S
C1636 C1632 1.368 . S
C1636 C1635 1.523 . S
H1637 C1612 0.950 . S
H1638 C1614 0.950 . S
H1639 C1615 0.949 . S
H1640 C1617 0.950 . S
H1641 C1619 0.950 . S
C1642 C1643 1.349 . S
C1642 C1644 1.327 . S
C1642 H1667 0.950 . S
C1643 C1642 1.349 . S
C1643 C1659 1.349 . S
C1644 C1642 1.327 . S
C1644 C1663 1.429 . S
C1644 H1668 0.950 . S
C1645 C1662 1.574 . S
C1645 C1664 1.368 . S
C1645 H1669 0.949 . S
H1646 C1650 0.949 . S
C1647 C1648 1.349 . S
C1647 C1649 1.327 . S
C1647 H1670 0.950 . S
C1648 C1647 1.349 . S
C1648 C1660 1.349 . S
C1649 C1647 1.327 . S
C1649 C1665 1.429 . S
C1649 H1671 0.950 . S
C1650 H1646 0.949 . S
C1650 C1658 1.574 . S
C1650 C1666 1.368 . S
H1651 C1659 0.950 . S
H1652 C1657 0.950 . S
H1653 C1658 0.949 . S
H1654 C1660 0.950 . S
H1655 C1661 0.950 . S
H1656 C1662 0.949 . S
C1657 H1652 0.950 . S
C1657 C1659 1.327 . S
C1657 C1663 1.429 . S
C1658 C1650 1.574 . S
C1658 H1653 0.949 . S
C1658 C1664 1.368 . S
C1659 C1643 1.349 . S
C1659 H1651 0.950 . S
C1659 C1657 1.327 . S
C1660 C1648 1.349 . S
C1660 H1654 0.950 . S
C1660 C1661 1.327 . S
C1661 H1655 0.950 . S
C1661 C1660 1.327 . S
C1661 C1665 1.429 . S
C1662 C1645 1.574 . S
C1662 H1656 0.949 . S
C1662 C1666 1.368 . S
C1663 C1644 1.429 . S
C1663 C1657 1.429 . S
C1663 C1664 1.523 . S
C1664 C1645 1.368 . S
C1664 C1658 1.368 . S
C1664 C1663 1.523 . S
C1665 C1649 1.429 . S
C1665 C1661 1.429 . S
C1665 C1666 1.523 . S
C1666 C1650 1.368 . S
C1666 C1662 1.368 . S
C1666 C1665 1.523 . S
H1667 C1642 0.950 . S
H1668 C1644 0.950 . S
H1669 C1645 0.949 . S
H1670 C1647 0.950 . S
H1671 C1649 0.950 . S
C1672 C1673 1.349 . S
C1672 C1674 1.327 . S
C1672 H1697 0.950 . S
C1673 C1672 1.349 . S
C1673 C1689 1.349 . S
C1674 C1672 1.327 . S
C1674 C1693 1.429 . S
C1674 H1698 0.950 . S
C1675 C1692 1.574 . S
C1675 C1694 1.368 . S
C1675 H1699 0.949 . S
H1676 C1680 0.949 . S
C1677 C1678 1.349 . S
C1677 C1679 1.327 . S
C1677 H1700 0.950 . S
C1678 C1677 1.349 . S
C1678 C1690 1.349 . S
C1679 C1677 1.327 . S
C1679 C1695 1.429 . S
C1679 H1701 0.950 . S
C1680 H1676 0.949 . S
C1680 C1688 1.574 . S
C1680 C1696 1.368 . S
H1681 C1689 0.950 . S
H1682 C1687 0.950 . S
H1683 C1688 0.949 . S
H1684 C1690 0.950 . S
H1685 C1691 0.950 . S
H1686 C1692 0.949 . S
C1687 H1682 0.950 . S
C1687 C1689 1.327 . S
C1687 C1693 1.429 . S
C1688 C1680 1.574 . S
C1688 H1683 0.949 . S
C1688 C1694 1.368 . S
C1689 C1673 1.349 . S
C1689 H1681 0.950 . S
C1689 C1687 1.327 . S
C1690 C1678 1.349 . S
C1690 H1684 0.950 . S
C1690 C1691 1.327 . S
C1691 H1685 0.950 . S
C1691 C1690 1.327 . S
C1691 C1695 1.429 . S
C1692 C1675 1.574 . S
C1692 H1686 0.949 . S
C1692 C1696 1.368 . S
C1693 C1674 1.429 . S
C1693 C1687 1.429 . S
C1693 C1694 1.523 . S
C1694 C1675 1.368 . S
C1694 C1688 1.368 . S
C1694 C1693 1.523 . S
C1695 C1679 1.429 . S
C1695 C1691 1.429 . S
C1695 C1696 1.523 . S
C1696 C1680 1.368 . S
C1696 C1692 1.368 . S
C1696 C1695 1.523 . S
H1697 C1672 0.950 . S
H1698 C1674 0.950 . S
H1699 C1675 0.949 . S
H1700 C1677 0.950 . S
H1701 C1679 0.950 . S
C1702 C1703 1.349 . S
C1702 C1704 1.327 . S
C1702 H1727 0.950 . S
C1703 C1702 1.349 . S
C1703 C1719 1.349 . S
C1704 C1702 1.327 . S
C1704 C1723 1.429 . S
C1704 H1728 0.950 . S
C1705 C1722 1.574 . S
C1705 C1724 1.368 . S
C1705 H1729 0.949 . S
H1706 C1710 0.949 . S
C1707 C1708 1.349 . S
C1707 C1709 1.327 . S
C1707 H1730 0.950 . S
C1708 C1707 1.349 . S
C1708 C1720 1.349 . S
C1709 C1707 1.327 . S
C1709 C1725 1.429 . S
C1709 H1731 0.950 . S
C1710 H1706 0.949 . S
C1710 C1718 1.574 . S
C1710 C1726 1.368 . S
H1711 C1719 0.950 . S
H1712 C1717 0.950 . S
H1713 C1718 0.949 . S
H1714 C1720 0.950 . S
H1715 C1721 0.950 . S
H1716 C1722 0.949 . S
C1717 H1712 0.950 . S
C1717 C1719 1.327 . S
C1717 C1723 1.429 . S
C1718 C1710 1.574 . S
C1718 H1713 0.949 . S
C1718 C1724 1.368 . S
C1719 C1703 1.349 . S
C1719 H1711 0.950 . S
C1719 C1717 1.327 . S
C1720 C1708 1.349 . S
C1720 H1714 0.950 . S
C1720 C1721 1.327 . S
C1721 H1715 0.950 . S
C1721 C1720 1.327 . S
C1721 C1725 1.429 . S
C1722 C1705 1.574 . S
C1722 H1716 0.949 . S
C1722 C1726 1.368 . S
C1723 C1704 1.429 . S
C1723 C1717 1.429 . S
C1723 C1724 1.523 . S
C1724 C1705 1.368 . S
C1724 C1718 1.368 . S
C1724 C1723 1.523 . S
C1725 C1709 1.429 . S
C1725 C1721 1.429 . S
C1725 C1726 1.523 . S
C1726 C1710 1.368 . S
C1726 C1722 1.368 . S
C1726 C1725 1.523 . S
H1727 C1702 0.950 . S
H1728 C1704 0.950 . S
H1729 C1705 0.949 . S
H1730 C1707 0.950 . S
H1731 C1709 0.950 . S
C1732 C1733 1.349 . S
C1732 C1734 1.327 . S
C1732 H1757 0.950 . S
C1733 C1732 1.349 . S
C1733 C1749 1.349 . S
C1734 C1732 1.327 . S
C1734 C1753 1.429 . S
C1734 H1758 0.950 . S
C1735 C1752 1.574 . S
C1735 C1754 1.368 . S
C1735 H1759 0.949 . S
H1736 C1740 0.949 . S
C1737 C1738 1.349 . S
C1737 C1739 1.327 . S
C1737 H1760 0.950 . S
C1738 C1737 1.349 . S
C1738 C1750 1.349 . S
C1739 C1737 1.327 . S
C1739 C1755 1.429 . S
C1739 H1761 0.950 . S
C1740 H1736 0.949 . S
C1740 C1748 1.574 . S
C1740 C1756 1.368 . S
H1741 C1749 0.950 . S
H1742 C1747 0.950 . S
H1743 C1748 0.949 . S
H1744 C1750 0.950 . S
H1745 C1751 0.950 . S
H1746 C1752 0.949 . S
C1747 H1742 0.950 . S
C1747 C1749 1.327 . S
C1747 C1753 1.429 . S
C1748 C1740 1.574 . S
C1748 H1743 0.949 . S
C1748 C1754 1.368 . S
C1749 C1733 1.349 . S
C1749 H1741 0.950 . S
C1749 C1747 1.327 . S
C1750 C1738 1.349 . S
C1750 H1744 0.950 . S
C1750 C1751 1.327 . S
C1751 H1745 0.950 . S
C1751 C1750 1.327 . S
C1751 C1755 1.429 . S
C1752 C1735 1.574 . S
C1752 H1746 0.949 . S
C1752 C1756 1.368 . S
C1753 C1734 1.429 . S
C1753 C1747 1.429 . S
C1753 C1754 1.523 . S
C1754 C1735 1.368 . S
C1754 C1748 1.368 . S
C1754 C1753 1.523 . S
C1755 C1739 1.429 . S
C1755 C1751 1.429 . S
C1755 C1756 1.523 . S
C1756 C1740 1.368 . S
C1756 C1752 1.368 . S
C1756 C1755 1.523 . S
H1757 C1732 0.950 . S
H1758 C1734 0.950 . S
H1759 C1735 0.949 . S
H1760 C1737 0.950 . S
H1761 C1739 0.950 . S
C1762 C1763 1.349 . S
C1762 C1764 1.327 . S
C1762 H1787 0.950 . S
C1763 C1762 1.349 . S
C1763 C1779 1.349 . S
C1764 C1762 1.327 . S
C1764 C1783 1.429 . S
C1764 H1788 0.950 . S
C1765 C1782 1.574 . S
C1765 C1784 1.368 . S
C1765 H1789 0.949 . S
H1766 C1770 0.949 . S
C1767 C1768 1.349 . S
C1767 C1769 1.327 . S
C1767 H1790 0.950 . S
C1768 C1767 1.349 . S
C1768 C1780 1.349 . S
C1769 C1767 1.327 . S
C1769 C1785 1.429 . S
C1769 H1791 0.950 . S
C1770 H1766 0.949 . S
C1770 C1778 1.574 . S
C1770 C1786 1.368 . S
H1771 C1779 0.950 . S
H1772 C1777 0.950 . S
H1773 C1778 0.949 . S
H1774 C1780 0.950 . S
H1775 C1781 0.950 . S
H1776 C1782 0.949 . S
C1777 H1772 0.950 . S
C1777 C1779 1.327 . S
C1777 C1783 1.429 . S
C1778 C1770 1.574 . S
C1778 H1773 0.949 . S
C1778 C1784 1.368 . S
C1779 C1763 1.349 . S
C1779 H1771 0.950 . S
C1779 C1777 1.327 . S
C1780 C1768 1.349 . S
C1780 H1774 0.950 . S
C1780 C1781 1.327 . S
C1781 H1775 0.950 . S
C1781 C1780 1.327 . S
C1781 C1785 1.429 . S
C1782 C1765 1.574 . S
C1782 H1776 0.949 . S
C1782 C1786 1.368 . S
C1783 C1764 1.429 . S
C1783 C1777 1.429 . S
C1783 C1784 1.523 . S
C1784 C1765 1.368 . S
C1784 C1778 1.368 . S
C1784 C1783 1.523 . S
C1785 C1769 1.429 . S
C1785 C1781 1.429 . S
C1785 C1786 1.523 . S
C1786 C1770 1.368 . S
C1786 C1782 1.368 . S
C1786 C1785 1.523 . S
H1787 C1762 0.950 . S
H1788 C1764 0.950 . S
H1789 C1765 0.949 . S
H1790 C1767 0.950 . S
H1791 C1769 0.950 . S
C1792 C1793 1.349 . S
C1792 C1794 1.327 . S
C1792 H1817 0.950 . S
C1793 C1792 1.349 . S
C1793 C1809 1.349 1_455 S
C1794 C1792 1.327 . S
C1794 C1813 1.429 . S
C1794 H1818 0.950 . S
C1795 C1812 1.577 . S
C1795 C1814 1.368 1_655 S
C1795 H1819 0.949 . S
H1796 C1800 0.949 . S
C1797 C1798 1.349 . S
C1797 C1799 1.327 . S
C1797 H1820 0.950 1_455 S
C1798 C1797 1.349 . S
C1798 C1810 1.349 . S
C1799 C1797 1.327 . S
C1799 C1815 1.429 . S
C1799 H1821 0.950 1_455 S
C1800 H1796 0.949 . S
C1800 C1808 1.574 . S
C1800 C1816 1.368 . S
H1801 C1809 0.950 . S
H1802 C1807 0.950 . S
H1803 C1808 0.949 . S
H1804 C1810 0.950 . S
H1805 C1811 0.950 . S
H1806 C1812 0.963 . S
C1807 H1802 0.950 . S
C1807 C1809 1.327 . S
C1807 C1813 1.429 1_655 S
C1808 C1800 1.574 . S
C1808 H1803 0.949 . S
C1808 C1814 1.368 . S
C1809 C1793 1.349 1_655 S
C1809 H1801 0.950 . S
C1809 C1807 1.327 . S
C1810 C1798 1.349 . S
C1810 H1804 0.950 . S
C1810 C1811 1.327 . S
C1811 H1805 0.950 . S
C1811 C1810 1.327 . S
C1811 C1815 1.429 . S
C1812 C1795 1.577 . S
C1812 H1806 0.963 . S
C1812 C1816 1.350 1_655 S
C1813 C1794 1.429 . S
C1813 C1807 1.429 1_455 S
C1813 C1814 1.523 . S
C1814 C1795 1.368 1_455 S
C1814 C1808 1.368 . S
C1814 C1813 1.523 . S
C1815 C1799 1.429 . S
C1815 C1811 1.429 . S
C1815 C1816 1.523 . S
C1816 C1800 1.368 . S
C1816 C1812 1.350 1_455 S
C1816 C1815 1.523 . S
H1817 C1792 0.950 . S
H1818 C1794 0.950 . S
H1819 C1795 0.949 . S
H1820 C1797 0.950 1_655 S
H1821 C1799 0.950 1_655 S
C1822 C1823 1.349 . S
C1822 C1824 1.327 . S
C1822 H1847 0.950 . S
C1823 C1822 1.349 . S
C1823 C1839 1.349 . S
C1824 C1822 1.327 . S
C1824 C1843 1.429 . S
C1824 H1848 0.950 . S
C1825 C1842 1.574 . S
C1825 C1844 1.368 . S
C1825 H1849 0.949 . S
H1826 C1830 0.949 . S
C1827 C1828 1.349 . S
C1827 C1829 1.327 . S
C1827 H1850 0.950 . S
C1828 C1827 1.349 . S
C1828 C1840 1.349 . S
C1829 C1827 1.327 . S
C1829 C1845 1.429 . S
C1829 H1851 0.950 . S
C1830 H1826 0.949 . S
C1830 C1838 1.574 . S
C1830 C1846 1.368 . S
H1831 C1839 0.950 . S
H1832 C1837 0.950 . S
H1833 C1838 0.949 . S
H1834 C1840 0.950 . S
H1835 C1841 0.950 . S
H1836 C1842 0.949 . S
C1837 H1832 0.950 . S
C1837 C1839 1.327 . S
C1837 C1843 1.429 . S
C1838 C1830 1.574 . S
C1838 H1833 0.949 . S
C1838 C1844 1.368 . S
C1839 C1823 1.349 . S
C1839 H1831 0.950 . S
C1839 C1837 1.327 . S
C1840 C1828 1.349 . S
C1840 H1834 0.950 . S
C1840 C1841 1.327 . S
C1841 H1835 0.950 . S
C1841 C1840 1.327 . S
C1841 C1845 1.429 . S
C1842 C1825 1.574 . S
C1842 H1836 0.949 . S
C1842 C1846 1.368 . S
C1843 C1824 1.429 . S
C1843 C1837 1.429 . S
C1843 C1844 1.523 . S
C1844 C1825 1.368 . S
C1844 C1838 1.368 . S
C1844 C1843 1.523 . S
C1845 C1829 1.429 . S
C1845 C1841 1.429 . S
C1845 C1846 1.523 . S
C1846 C1830 1.368 . S
C1846 C1842 1.368 . S
C1846 C1845 1.523 . S
H1847 C1822 0.950 . S
H1848 C1824 0.950 . S
H1849 C1825 0.949 . S
H1850 C1827 0.950 . S
H1851 C1829 0.950 . S
C1852 C1853 1.349 . S
C1852 C1854 1.327 . S
C1852 H1877 0.950 . S
C1853 C1852 1.349 . S
C1853 C1869 1.349 . S
C1854 C1852 1.327 . S
C1854 C1873 1.429 . S
C1854 H1878 0.950 . S
C1855 C1872 1.574 . S
C1855 C1874 1.368 . S
C1855 H1879 0.949 . S
H1856 C1860 0.949 . S
C1857 C1858 1.349 . S
C1857 C1859 1.327 . S
C1857 H1880 0.950 1_556 S
C1858 C1857 1.349 . S
C1858 C1870 1.349 . S
C1859 C1857 1.327 . S
C1859 C1875 1.429 . S
C1859 H1881 0.950 . S
C1860 H1856 0.949 . S
C1860 C1868 1.574 . S
C1860 C1876 1.368 . S
H1861 C1869 0.950 . S
H1862 C1867 0.950 . S
H1863 C1868 0.949 . S
H1864 C1870 0.950 . S
H1865 C1871 0.950 . S
H1866 C1872 0.949 . S
C1867 H1862 0.950 . S
C1867 C1869 1.327 . S
C1867 C1873 1.429 . S
C1868 C1860 1.574 . S
C1868 H1863 0.949 . S
C1868 C1874 1.368 . S
C1869 C1853 1.349 . S
C1869 H1861 0.950 . S
C1869 C1867 1.327 . S
C1870 C1858 1.349 . S
C1870 H1864 0.950 . S
C1870 C1871 1.327 . S
C1871 H1865 0.950 . S
C1871 C1870 1.327 . S
C1871 C1875 1.429 . S
C1872 C1855 1.574 . S
C1872 H1866 0.949 . S
C1872 C1876 1.368 . S
C1873 C1854 1.429 . S
C1873 C1867 1.429 . S
C1873 C1874 1.523 . S
C1874 C1855 1.368 . S
C1874 C1868 1.368 . S
C1874 C1873 1.523 . S
C1875 C1859 1.429 . S
C1875 C1871 1.429 . S
C1875 C1876 1.523 . S
C1876 C1860 1.368 . S
C1876 C1872 1.368 . S
C1876 C1875 1.523 . S
H1877 C1852 0.950 . S
H1878 C1854 0.950 . S
H1879 C1855 0.949 . S
H1880 C1857 0.950 1_554 S
H1881 C1859 0.950 . S
C1882 C1883 1.349 . S
C1882 C1884 1.298 1_455 S
C1882 H1907 0.950 . S
C1883 C1882 1.349 . S
C1883 C1899 1.349 . S
C1884 C1882 1.298 1_655 S
C1884 C1903 1.453 . S
C1884 H1908 0.955 . S
C1885 C1902 1.574 . S
C1885 C1904 1.368 . S
C1885 H1909 0.949 . S
H1886 C1890 0.949 . S
C1887 C1888 1.349 . S
C1887 C1889 1.327 . S
C1887 H1910 0.950 . S
C1888 C1887 1.349 . S
C1888 C1900 1.349 . S
C1889 C1887 1.327 . S
C1889 C1905 1.429 . S
C1889 H1911 0.950 . S
C1890 H1886 0.949 . S
C1890 C1898 1.574 . S
C1890 C1906 1.368 . S
H1891 C1899 0.950 . S
H1892 C1897 0.950 . S
H1893 C1898 0.949 . S
H1894 C1900 0.950 . S
H1895 C1901 0.950 . S
H1896 C1902 0.949 . S
C1897 H1892 0.950 . S
C1897 C1899 1.327 1_655 S
C1897 C1903 1.429 . S
C1898 C1890 1.574 . S
C1898 H1893 0.949 . S
C1898 C1904 1.368 . S
C1899 C1883 1.349 . S
C1899 H1891 0.950 . S
C1899 C1897 1.327 1_455 S
C1900 C1888 1.349 . S
C1900 H1894 0.950 . S
C1900 C1901 1.327 . S
C1901 H1895 0.950 . S
C1901 C1900 1.327 . S
C1901 C1905 1.429 . S
C1902 C1885 1.574 . S
C1902 H1896 0.949 . S
C1902 C1906 1.368 . S
C1903 C1884 1.453 . S
C1903 C1897 1.429 . S
C1903 C1904 1.523 . S
C1904 C1885 1.368 . S
C1904 C1898 1.368 . S
C1904 C1903 1.523 . S
C1905 C1889 1.429 . S
C1905 C1901 1.429 . S
C1905 C1906 1.523 . S
C1906 C1890 1.368 . S
C1906 C1902 1.368 . S
C1906 C1905 1.523 . S
H1907 C1882 0.950 . S
H1908 C1884 0.955 . S
H1909 C1885 0.949 . S
H1910 C1887 0.950 . S
H1911 C1889 0.950 . S
C1912 C1913 1.349 . S
C1912 C1914 1.327 . S
C1912 H1937 0.950 . S
C1913 C1912 1.349 . S
C1913 C1929 1.349 . S
C1914 C1912 1.327 . S
C1914 C1933 1.429 . S
C1914 H1938 0.950 . S
C1915 C1932 1.574 . S
C1915 C1934 1.368 . S
C1915 H1939 0.949 . S
H1916 C1920 0.949 . S
C1917 C1918 1.349 . S
C1917 C1919 1.327 . S
C1917 H1940 0.950 . S
C1918 C1917 1.349 . S
C1918 C1930 1.349 . S
C1919 C1917 1.327 . S
C1919 C1935 1.429 . S
C1919 H1941 0.950 . S
C1920 H1916 0.949 . S
C1920 C1928 1.574 . S
C1920 C1936 1.368 . S
H1921 C1929 0.950 . S
H1922 C1927 0.950 . S
H1923 C1928 0.949 . S
H1924 C1930 0.950 . S
H1925 C1931 0.950 . S
H1926 C1932 0.949 . S
C1927 H1922 0.950 . S
C1927 C1929 1.327 . S
C1927 C1933 1.429 . S
C1928 C1920 1.574 . S
C1928 H1923 0.949 . S
C1928 C1934 1.368 . S
C1929 C1913 1.349 . S
C1929 H1921 0.950 . S
C1929 C1927 1.327 . S
C1930 C1918 1.349 . S
C1930 H1924 0.950 . S
C1930 C1931 1.327 . S
C1931 H1925 0.950 . S
C1931 C1930 1.327 . S
C1931 C1935 1.429 . S
C1932 C1915 1.574 . S
C1932 H1926 0.949 . S
C1932 C1936 1.368 . S
C1933 C1914 1.429 . S
C1933 C1927 1.429 . S
C1933 C1934 1.523 . S
C1934 C1915 1.368 . S
C1934 C1928 1.368 . S
C1934 C1933 1.523 . S
C1935 C1919 1.429 . S
C1935 C1931 1.429 . S
C1935 C1936 1.523 . S
C1936 C1920 1.368 . S
C1936 C1932 1.368 . S
C1936 C1935 1.523 . S
H1937 C1912 0.950 . S
H1938 C1914 0.950 . S
H1939 C1915 0.949 . S
H1940 C1917 0.950 . S
H1941 C1919 0.950 . S
C1942 C1943 1.349 . S
C1942 C1944 1.327 . S
C1942 H1967 0.950 . S
C1943 C1942 1.349 . S
C1943 C1959 1.349 . S
C1944 C1942 1.327 . S
C1944 C1963 1.429 . S
C1944 H1968 0.950 . S
C1945 C1962 1.574 . S
C1945 C1964 1.368 . S
C1945 H1969 0.949 . S
H1946 C1950 0.949 . S
C1947 C1948 1.349 . S
C1947 C1949 1.327 . S
C1947 H1970 0.950 . S
C1948 C1947 1.349 . S
C1948 C1960 1.349 . S
C1949 C1947 1.327 . S
C1949 C1965 1.429 . S
C1949 H1971 0.950 . S
C1950 H1946 0.949 . S
C1950 C1958 1.574 . S
C1950 C1966 1.368 . S
H1951 C1959 0.950 . S
H1952 C1957 0.950 . S
H1953 C1958 0.949 . S
H1954 C1960 0.950 . S
H1955 C1961 0.950 . S
H1956 C1962 0.949 . S
C1957 H1952 0.950 . S
C1957 C1959 1.327 . S
C1957 C1963 1.429 . S
C1958 C1950 1.574 . S
C1958 H1953 0.949 . S
C1958 C1964 1.368 . S
C1959 C1943 1.349 . S
C1959 H1951 0.950 . S
C1959 C1957 1.327 . S
C1960 C1948 1.349 . S
C1960 H1954 0.950 . S
C1960 C1961 1.327 . S
C1961 H1955 0.950 . S
C1961 C1960 1.327 . S
C1961 C1965 1.429 . S
C1962 C1945 1.574 . S
C1962 H1956 0.949 . S
C1962 C1966 1.368 . S
C1963 C1944 1.429 . S
C1963 C1957 1.429 . S
C1963 C1964 1.523 . S
C1964 C1945 1.368 . S
C1964 C1958 1.368 . S
C1964 C1963 1.523 . S
C1965 C1949 1.429 . S
C1965 C1961 1.429 . S
C1965 C1966 1.523 . S
C1966 C1950 1.368 . S
C1966 C1962 1.368 . S
C1966 C1965 1.523 . S
H1967 C1942 0.950 . S
H1968 C1944 0.950 . S
H1969 C1945 0.949 . S
H1970 C1947 0.950 . S
H1971 C1949 0.950 . S
C1972 C1973 1.349 . S
C1972 C1974 1.327 . S
C1972 H1997 0.925 1_545 S
C1973 C1972 1.349 . S
C1973 C1989 1.349 . S
C1974 C1972 1.327 . S
C1974 C1993 1.429 . S
C1974 H1998 0.950 1_545 S
C1975 C1992 1.574 . S
C1975 C1994 1.368 . S
C1975 H1999 0.949 . S
H1976 C1980 0.949 1_565 S
C1977 C1978 1.349 . S
C1977 C1979 1.327 . S
C1977 H2000 0.950 . S
C1978 C1977 1.349 . S
C1978 C1990 1.349 . S
C1979 C1977 1.327 . S
C1979 C1995 1.429 . S
C1979 H2001 0.950 . S
C1980 H1976 0.949 1_545 S
C1980 C1988 1.574 . S
C1980 C1996 1.368 . S
H1981 C1989 0.950 . S
H1982 C1987 0.950 . S
H1983 C1988 0.949 1_565 S
H1984 C1990 0.950 1_565 S
H1985 C1991 0.950 1_565 S
H1986 C1992 0.949 . S
C1987 H1982 0.950 . S
C1987 C1989 1.327 . S
C1987 C1993 1.429 . S
C1988 C1980 1.574 . S
C1988 H1983 0.949 1_545 S
C1988 C1994 1.368 . S
C1989 C1973 1.349 . S
C1989 H1981 0.950 . S
C1989 C1987 1.327 . S
C1990 C1978 1.349 . S
C1990 H1984 0.950 1_545 S
C1990 C1991 1.327 . S
C1991 H1985 0.950 1_545 S
C1991 C1990 1.327 . S
C1991 C1995 1.429 . S
C1992 C1975 1.574 . S
C1992 H1986 0.949 . S
C1992 C1996 1.368 . S
C1993 C1974 1.429 . S
C1993 C1987 1.429 . S
C1993 C1994 1.523 . S
C1994 C1975 1.368 . S
C1994 C1988 1.368 . S
C1994 C1993 1.523 . S
C1995 C1979 1.429 . S
C1995 C1991 1.429 . S
C1995 C1996 1.523 . S
C1996 C1980 1.368 . S
C1996 C1992 1.368 . S
C1996 C1995 1.523 . S
H1997 C1972 0.925 1_565 S
H1998 C1974 0.950 1_565 S
H1999 C1975 0.949 . S
H2000 C1977 0.950 . S
H2001 C1979 0.950 . S
C2002 C2003 1.349 . S
C2002 C2004 1.327 . S
C2002 H2027 0.950 . S
C2003 C2002 1.349 . S
C2003 C2019 1.349 . S
C2004 C2002 1.327 . S
C2004 C2023 1.429 . S
C2004 H2028 0.950 . S
C2005 C2022 1.574 . S
C2005 C2024 1.368 . S
C2005 H2029 0.949 . S
H2006 C2010 0.949 . S
C2007 C2008 1.349 . S
C2007 C2009 1.327 . S
C2007 H2030 0.950 . S
C2008 C2007 1.349 . S
C2008 C2020 1.349 . S
C2009 C2007 1.327 . S
C2009 C2025 1.429 . S
C2009 H2031 0.950 . S
C2010 H2006 0.949 . S
C2010 C2018 1.574 . S
C2010 C2026 1.368 . S
H2011 C2019 0.950 . S
H2012 C2017 0.950 . S
H2013 C2018 0.949 . S
H2014 C2020 0.950 . S
H2015 C2021 0.950 . S
H2016 C2022 0.949 . S
C2017 H2012 0.950 . S
C2017 C2019 1.327 . S
C2017 C2023 1.429 . S
C2018 C2010 1.574 . S
C2018 H2013 0.949 . S
C2018 C2024 1.368 . S
C2019 C2003 1.349 . S
C2019 H2011 0.950 . S
C2019 C2017 1.327 . S
C2020 C2008 1.349 . S
C2020 H2014 0.950 . S
C2020 C2021 1.327 . S
C2021 H2015 0.950 . S
C2021 C2020 1.327 . S
C2021 C2025 1.429 . S
C2022 C2005 1.574 . S
C2022 H2016 0.949 . S
C2022 C2026 1.368 . S
C2023 C2004 1.429 . S
C2023 C2017 1.429 . S
C2023 C2024 1.523 . S
C2024 C2005 1.368 . S
C2024 C2018 1.368 . S
C2024 C2023 1.523 . S
C2025 C2009 1.429 . S
C2025 C2021 1.429 . S
C2025 C2026 1.523 . S
C2026 C2010 1.368 . S
C2026 C2022 1.368 . S
C2026 C2025 1.523 . S
H2027 C2002 0.950 . S
H2028 C2004 0.950 . S
H2029 C2005 0.949 . S
H2030 C2007 0.950 . S
H2031 C2009 0.950 . S
C2032 C2033 1.349 . S
C2032 C2034 1.327 . S
C2032 H2057 0.950 1_545 S
C2033 C2032 1.349 . S
C2033 C2049 1.349 . S
C2034 C2032 1.327 . S
C2034 C2053 1.429 . S
C2034 H2058 0.950 1_545 S
C2035 C2052 1.574 . S
C2035 C2054 1.368 . S
C2035 H2059 0.949 . S
H2036 C2040 0.939 1_565 S
C2037 C2038 1.349 . S
C2037 C2039 1.327 . S
C2037 H2060 0.950 . S
C2038 C2037 1.349 . S
C2038 C2050 1.349 1_545 S
C2039 C2037 1.327 . S
C2039 C2055 1.429 . S
C2039 H2061 0.950 . S
C2040 H2036 0.939 1_545 S
C2040 C2048 1.571 . S
C2040 C2056 1.383 . S
H2041 C2049 0.950 . S
H2042 C2047 0.950 . S
H2043 C2048 0.949 1_565 S
H2044 C2050 0.950 . S
H2045 C2051 0.983 . S
H2046 C2052 0.949 . S
C2047 H2042 0.950 . S
C2047 C2049 1.327 . S
C2047 C2053 1.429 . S
C2048 C2040 1.571 . S
C2048 H2043 0.949 1_545 S
C2048 C2054 1.368 . S
C2049 C2033 1.349 . S
C2049 H2041 0.950 . S
C2049 C2047 1.327 . S
C2050 C2038 1.349 1_565 S
C2050 H2044 0.950 . S
C2050 C2051 1.321 . S
C2051 H2045 0.983 . S
C2051 C2050 1.321 . S
C2051 C2055 1.404 1_565 S
C2052 C2035 1.574 . S
C2052 H2046 0.949 . S
C2052 C2056 1.368 . S
C2053 C2034 1.429 . S
C2053 C2047 1.429 . S
C2053 C2054 1.523 . S
C2054 C2035 1.368 . S
C2054 C2048 1.368 . S
C2054 C2053 1.523 . S
C2055 C2039 1.429 . S
C2055 C2051 1.404 1_545 S
C2055 C2056 1.523 . S
C2056 C2040 1.383 . S
C2056 C2052 1.368 . S
C2056 C2055 1.523 . S
H2057 C2032 0.950 1_565 S
H2058 C2034 0.950 1_565 S
H2059 C2035 0.949 . S
H2060 C2037 0.950 . S
H2061 C2039 0.950 . S
C2062 C2063 1.349 . S
C2062 C2064 1.327 . S
C2062 H2087 0.950 . S
C2063 C2062 1.349 . S
C2063 C2079 1.349 . S
C2064 C2062 1.327 . S
C2064 C2083 1.429 . S
C2064 H2088 0.950 . S
C2065 C2082 1.574 . S
C2065 C2084 1.368 . S
C2065 H2089 0.949 . S
H2066 C2070 0.949 . S
C2067 C2068 1.349 . S
C2067 C2069 1.327 . S
C2067 H2090 0.950 . S
C2068 C2067 1.349 . S
C2068 C2080 1.349 . S
C2069 C2067 1.327 . S
C2069 C2085 1.429 . S
C2069 H2091 0.950 . S
C2070 H2066 0.949 . S
C2070 C2078 1.574 . S
C2070 C2086 1.368 . S
H2071 C2079 0.950 . S
H2072 C2077 0.950 . S
H2073 C2078 0.949 . S
H2074 C2080 0.950 . S
H2075 C2081 0.950 . S
H2076 C2082 0.949 . S
C2077 H2072 0.950 . S
C2077 C2079 1.327 . S
C2077 C2083 1.429 . S
C2078 C2070 1.574 . S
C2078 H2073 0.949 . S
C2078 C2084 1.368 . S
C2079 C2063 1.349 . S
C2079 H2071 0.950 . S
C2079 C2077 1.327 . S
C2080 C2068 1.349 . S
C2080 H2074 0.950 . S
C2080 C2081 1.327 . S
C2081 H2075 0.950 . S
C2081 C2080 1.327 . S
C2081 C2085 1.429 . S
C2082 C2065 1.574 . S
C2082 H2076 0.949 . S
C2082 C2086 1.368 . S
C2083 C2064 1.429 . S
C2083 C2077 1.429 . S
C2083 C2084 1.523 . S
C2084 C2065 1.368 . S
C2084 C2078 1.368 . S
C2084 C2083 1.523 . S
C2085 C2069 1.429 . S
C2085 C2081 1.429 . S
C2085 C2086 1.523 . S
C2086 C2070 1.368 . S
C2086 C2082 1.368 . S
C2086 C2085 1.523 . S
H2087 C2062 0.950 . S
H2088 C2064 0.950 . S
H2089 C2065 0.949 . S
H2090 C2067 0.950 . S
H2091 C2069 0.950 . S
C2092 C2093 1.349 . S
C2092 C2094 1.327 . S
C2092 H2117 0.950 . S
C2093 C2092 1.349 . S
C2093 C2109 1.349 . S
C2094 C2092 1.327 . S
C2094 C2113 1.429 . S
C2094 H2118 0.950 . S
C2095 C2112 1.574 . S
C2095 C2114 1.368 . S
C2095 H2119 0.949 1_545 S
H2096 C2100 0.949 . S
C2097 C2098 1.349 . S
C2097 C2099 1.327 . S
C2097 H2120 0.950 1_545 S
C2098 C2097 1.349 . S
C2098 C2110 1.349 . S
C2099 C2097 1.327 . S
C2099 C2115 1.429 . S
C2099 H2121 0.950 1_545 S
C2100 H2096 0.949 . S
C2100 C2108 1.574 . S
C2100 C2116 1.368 . S
H2101 C2109 0.950 1_565 S
H2102 C2107 0.950 1_565 S
H2103 C2108 0.949 . S
H2104 C2110 0.950 . S
H2105 C2111 0.950 . S
H2106 C2112 0.949 1_565 S
C2107 H2102 0.950 1_545 S
C2107 C2109 1.327 . S
C2107 C2113 1.429 . S
C2108 C2100 1.574 . S
C2108 H2103 0.949 . S
C2108 C2114 1.368 . S
C2109 C2093 1.349 . S
C2109 H2101 0.950 1_545 S
C2109 C2107 1.327 . S
C2110 C2098 1.349 . S
C2110 H2104 0.950 . S
C2110 C2111 1.327 . S
C2111 H2105 0.950 . S
C2111 C2110 1.327 . S
C2111 C2115 1.429 . S
C2112 C2095 1.574 . S
C2112 H2106 0.949 1_545 S
C2112 C2116 1.368 . S
C2113 C2094 1.429 . S
C2113 C2107 1.429 . S
C2113 C2114 1.523 . S
C2114 C2095 1.368 . S
C2114 C2108 1.368 . S
C2114 C2113 1.523 . S
C2115 C2099 1.429 . S
C2115 C2111 1.429 . S
C2115 C2116 1.523 . S
C2116 C2100 1.368 . S
C2116 C2112 1.368 . S
C2116 C2115 1.523 . S
H2117 C2092 0.950 . S
H2118 C2094 0.950 . S
H2119 C2095 0.949 1_565 S
H2120 C2097 0.950 1_565 S
H2121 C2099 0.950 1_565 S
C2122 C2123 1.349 . S
C2122 C2124 1.327 . S
C2122 H2147 0.950 . S
C2123 C2122 1.349 . S
C2123 C2139 1.349 . S
C2124 C2122 1.327 . S
C2124 C2143 1.429 . S
C2124 H2148 0.950 . S
C2125 C2142 1.574 . S
C2125 C2144 1.368 . S
C2125 H2149 0.949 . S
H2126 C2130 0.949 . S
C2127 C2128 1.349 . S
C2127 C2129 1.327 . S
C2127 H2150 0.950 . S
C2128 C2127 1.349 . S
C2128 C2140 1.349 . S
C2129 C2127 1.327 . S
C2129 C2145 1.429 . S
C2129 H2151 0.950 . S
C2130 H2126 0.949 . S
C2130 C2138 1.574 . S
C2130 C2146 1.368 . S
H2131 C2139 0.950 . S
H2132 C2137 0.950 . S
H2133 C2138 0.949 . S
H2134 C2140 0.950 . S
H2135 C2141 0.950 . S
H2136 C2142 0.949 . S
C2137 H2132 0.950 . S
C2137 C2139 1.327 . S
C2137 C2143 1.429 . S
C2138 C2130 1.574 . S
C2138 H2133 0.949 . S
C2138 C2144 1.368 . S
C2139 C2123 1.349 . S
C2139 H2131 0.950 . S
C2139 C2137 1.327 . S
C2140 C2128 1.349 . S
C2140 H2134 0.950 . S
C2140 C2141 1.327 . S
C2141 H2135 0.950 . S
C2141 C2140 1.327 . S
C2141 C2145 1.429 . S
C2142 C2125 1.574 . S
C2142 H2136 0.949 . S
C2142 C2146 1.368 . S
C2143 C2124 1.429 . S
C2143 C2137 1.429 . S
C2143 C2144 1.523 . S
C2144 C2125 1.368 . S
C2144 C2138 1.368 . S
C2144 C2143 1.523 . S
C2145 C2129 1.429 . S
C2145 C2141 1.429 . S
C2145 C2146 1.523 . S
C2146 C2130 1.368 . S
C2146 C2142 1.368 . S
C2146 C2145 1.523 . S
H2147 C2122 0.950 . S
H2148 C2124 0.950 . S
H2149 C2125 0.949 . S
H2150 C2127 0.950 . S
H2151 C2129 0.950 . S
C2152 C2153 1.349 . S
C2152 C2154 1.327 . S
C2152 H2177 0.950 . S
C2153 C2152 1.349 . S
C2153 C2169 1.349 . S
C2154 C2152 1.327 . S
C2154 C2173 1.429 . S
C2154 H2178 0.950 . S
C2155 C2172 1.574 . S
C2155 C2174 1.368 . S
C2155 H2179 0.949 . S
H2156 C2160 0.949 . S
C2157 C2158 1.349 . S
C2157 C2159 1.327 . S
C2157 H2180 0.950 1_554 S
C2158 C2157 1.349 . S
C2158 C2170 1.349 . S
C2159 C2157 1.327 . S
C2159 C2175 1.429 . S
C2159 H2181 0.963 . S
C2160 H2156 0.949 . S
C2160 C2168 1.574 . S
C2160 C2176 1.368 . S
H2161 C2169 0.950 . S
H2162 C2167 0.950 . S
H2163 C2168 0.949 . S
H2164 C2170 0.950 . S
H2165 C2171 0.950 . S
H2166 C2172 0.949 . S
C2167 H2162 0.950 . S
C2167 C2169 1.327 . S
C2167 C2173 1.429 . S
C2168 C2160 1.574 . S
C2168 H2163 0.949 . S
C2168 C2174 1.368 . S
C2169 C2153 1.349 . S
C2169 H2161 0.950 . S
C2169 C2167 1.327 . S
C2170 C2158 1.349 . S
C2170 H2164 0.950 . S
C2170 C2171 1.327 . S
C2171 H2165 0.950 . S
C2171 C2170 1.327 . S
C2171 C2175 1.429 . S
C2172 C2155 1.574 . S
C2172 H2166 0.949 . S
C2172 C2176 1.368 . S
C2173 C2154 1.429 . S
C2173 C2167 1.429 . S
C2173 C2174 1.523 . S
C2174 C2155 1.368 . S
C2174 C2168 1.368 . S
C2174 C2173 1.523 . S
C2175 C2159 1.429 . S
C2175 C2171 1.429 . S
C2175 C2176 1.523 . S
C2176 C2160 1.368 . S
C2176 C2172 1.368 . S
C2176 C2175 1.523 . S
H2177 C2152 0.950 . S
H2178 C2154 0.950 . S
H2179 C2155 0.949 . S
H2180 C2157 0.950 1_556 S
H2181 C2159 0.963 . S
C2182 C2183 1.349 . S
C2182 C2184 1.327 . S
C2182 H2207 0.950 1_554 S
C2183 C2182 1.349 . S
C2183 C2199 1.349 . S
C2184 C2182 1.327 . S
C2184 C2203 1.429 . S
C2184 H2208 0.950 1_554 S
C2185 C2202 1.574 . S
C2185 C2204 1.368 . S
C2185 H2209 0.949 . S
H2186 C2190 0.949 1_556 S
C2187 C2188 1.349 . S
C2187 C2189 1.327 . S
C2187 H2210 0.950 . S
C2188 C2187 1.349 . S
C2188 C2200 1.349 . S
C2189 C2187 1.327 . S
C2189 C2205 1.429 . S
C2189 H2211 0.950 . S
C2190 H2186 0.949 1_554 S
C2190 C2198 1.574 . S
C2190 C2206 1.368 . S
H2191 C2199 0.950 . S
H2192 C2197 0.950 . S
H2193 C2198 0.949 1_556 S
H2194 C2200 0.950 1_556 S
H2195 C2201 0.950 1_556 S
H2196 C2202 0.949 . S
C2197 H2192 0.950 . S
C2197 C2199 1.327 . S
C2197 C2203 1.429 . S
C2198 C2190 1.574 . S
C2198 H2193 0.949 1_554 S
C2198 C2204 1.368 . S
C2199 C2183 1.349 . S
C2199 H2191 0.950 . S
C2199 C2197 1.327 . S
C2200 C2188 1.349 . S
C2200 H2194 0.950 1_554 S
C2200 C2201 1.327 . S
C2201 H2195 0.950 1_554 S
C2201 C2200 1.327 . S
C2201 C2205 1.429 . S
C2202 C2185 1.574 . S
C2202 H2196 0.949 . S
C2202 C2206 1.368 . S
C2203 C2184 1.429 . S
C2203 C2197 1.429 . S
C2203 C2204 1.523 . S
C2204 C2185 1.368 . S
C2204 C2198 1.368 . S
C2204 C2203 1.523 . S
C2205 C2189 1.429 . S
C2205 C2201 1.429 . S
C2205 C2206 1.523 . S
C2206 C2190 1.368 . S
C2206 C2202 1.368 . S
C2206 C2205 1.523 . S
H2207 C2182 0.950 1_556 S
H2208 C2184 0.950 1_556 S
H2209 C2185 0.949 . S
H2210 C2187 0.950 . S
H2211 C2189 0.950 . S
C2212 C2213 1.349 . S
C2212 C2214 1.327 . S
C2212 H2237 0.950 . S
C2213 C2212 1.349 . S
C2213 C2229 1.349 . S
C2214 C2212 1.327 . S
C2214 C2233 1.429 . S
C2214 H2238 0.950 . S
C2215 C2232 1.574 . S
C2215 C2234 1.368 . S
C2215 H2239 0.949 . S
H2216 C2220 0.949 . S
C2217 C2218 1.349 . S
C2217 C2219 1.327 . S
C2217 H2240 0.950 . S
C2218 C2217 1.349 . S
C2218 C2230 1.349 . S
C2219 C2217 1.327 . S
C2219 C2235 1.429 . S
C2219 H2241 0.950 . S
C2220 H2216 0.949 . S
C2220 C2228 1.574 . S
C2220 C2236 1.368 . S
H2221 C2229 0.950 . S
H2222 C2227 0.950 . S
H2223 C2228 0.949 . S
H2224 C2230 0.950 . S
H2225 C2231 0.950 . S
H2226 C2232 0.949 . S
C2227 H2222 0.950 . S
C2227 C2229 1.327 . S
C2227 C2233 1.429 . S
C2228 C2220 1.574 . S
C2228 H2223 0.949 . S
C2228 C2234 1.368 . S
C2229 C2213 1.349 . S
C2229 H2221 0.950 . S
C2229 C2227 1.327 . S
C2230 C2218 1.349 . S
C2230 H2224 0.950 . S
C2230 C2231 1.327 . S
C2231 H2225 0.950 . S
C2231 C2230 1.327 . S
C2231 C2235 1.429 . S
C2232 C2215 1.574 . S
C2232 H2226 0.949 . S
C2232 C2236 1.368 . S
C2233 C2214 1.429 . S
C2233 C2227 1.429 . S
C2233 C2234 1.523 . S
C2234 C2215 1.368 . S
C2234 C2228 1.368 . S
C2234 C2233 1.523 . S
C2235 C2219 1.429 . S
C2235 C2231 1.429 . S
C2235 C2236 1.523 . S
C2236 C2220 1.368 . S
C2236 C2232 1.368 . S
C2236 C2235 1.523 . S
H2237 C2212 0.950 . S
H2238 C2214 0.950 . S
H2239 C2215 0.949 . S
H2240 C2217 0.950 . S
H2241 C2219 0.950 . S
C2242 C2243 1.349 . S
C2242 C2244 1.327 . S
C2242 H2267 0.950 . S
C2243 C2242 1.349 . S
C2243 C2259 1.349 . S
C2244 C2242 1.327 . S
C2244 C2263 1.429 . S
C2244 H2268 0.950 . S
C2245 C2262 1.574 . S
C2245 C2264 1.368 . S
C2245 H2269 0.949 . S
H2246 C2250 0.949 . S
C2247 C2248 1.349 . S
C2247 C2249 1.327 . S
C2247 H2270 0.950 . S
C2248 C2247 1.349 . S
C2248 C2260 1.349 . S
C2249 C2247 1.327 . S
C2249 C2265 1.429 . S
C2249 H2271 0.950 . S
C2250 H2246 0.949 . S
C2250 C2258 1.574 . S
C2250 C2266 1.368 . S
H2251 C2259 0.950 . S
H2252 C2257 0.950 . S
H2253 C2258 0.949 . S
H2254 C2260 0.950 . S
H2255 C2261 0.950 . S
H2256 C2262 0.949 . S
C2257 H2252 0.950 . S
C2257 C2259 1.327 . S
C2257 C2263 1.429 . S
C2258 C2250 1.574 . S
C2258 H2253 0.949 . S
C2258 C2264 1.368 . S
C2259 C2243 1.349 . S
C2259 H2251 0.950 . S
C2259 C2257 1.327 . S
C2260 C2248 1.349 . S
C2260 H2254 0.950 . S
C2260 C2261 1.327 . S
C2261 H2255 0.950 . S
C2261 C2260 1.327 . S
C2261 C2265 1.429 . S
C2262 C2245 1.574 . S
C2262 H2256 0.949 . S
C2262 C2266 1.368 . S
C2263 C2244 1.429 . S
C2263 C2257 1.429 . S
C2263 C2264 1.523 . S
C2264 C2245 1.368 . S
C2264 C2258 1.368 . S
C2264 C2263 1.523 . S
C2265 C2249 1.429 . S
C2265 C2261 1.429 . S
C2265 C2266 1.523 . S
C2266 C2250 1.368 . S
C2266 C2262 1.368 . S
C2266 C2265 1.523 . S
H2267 C2242 0.950 . S
H2268 C2244 0.950 . S
H2269 C2245 0.949 . S
H2270 C2247 0.950 . S
H2271 C2249 0.950 . S
C2272 C2273 1.349 . S
C2272 C2274 1.327 . S
C2272 H2297 0.950 . S
C2273 C2272 1.349 . S
C2273 C2289 1.349 . S
C2274 C2272 1.327 . S
C2274 C2293 1.429 . S
C2274 H2298 0.950 . S
C2275 C2292 1.574 . S
C2275 C2294 1.368 . S
C2275 H2299 0.949 . S
H2276 C2280 0.949 . S
C2277 C2278 1.349 . S
C2277 C2279 1.327 . S
C2277 H2300 0.950 . S
C2278 C2277 1.349 . S
C2278 C2290 1.349 . S
C2279 C2277 1.327 . S
C2279 C2295 1.429 . S
C2279 H2301 0.950 . S
C2280 H2276 0.949 . S
C2280 C2288 1.574 . S
C2280 C2296 1.368 . S
H2281 C2289 0.950 . S
H2282 C2287 0.950 . S
H2283 C2288 0.949 . S
H2284 C2290 0.950 . S
H2285 C2291 0.950 . S
H2286 C2292 0.949 . S
C2287 H2282 0.950 . S
C2287 C2289 1.327 . S
C2287 C2293 1.429 . S
C2288 C2280 1.574 . S
C2288 H2283 0.949 . S
C2288 C2294 1.368 . S
C2289 C2273 1.349 . S
C2289 H2281 0.950 . S
C2289 C2287 1.327 . S
C2290 C2278 1.349 . S
C2290 H2284 0.950 . S
C2290 C2291 1.327 . S
C2291 H2285 0.950 . S
C2291 C2290 1.327 . S
C2291 C2295 1.429 . S
C2292 C2275 1.574 . S
C2292 H2286 0.949 . S
C2292 C2296 1.368 . S
C2293 C2274 1.429 . S
C2293 C2287 1.429 . S
C2293 C2294 1.523 . S
C2294 C2275 1.368 . S
C2294 C2288 1.368 . S
C2294 C2293 1.523 . S
C2295 C2279 1.429 . S
C2295 C2291 1.429 . S
C2295 C2296 1.523 . S
C2296 C2280 1.368 . S
C2296 C2292 1.368 . S
C2296 C2295 1.523 . S
H2297 C2272 0.950 . S
H2298 C2274 0.950 . S
H2299 C2275 0.949 . S
H2300 C2277 0.950 . S
H2301 C2279 0.950 . S
C2302 C2303 1.349 . S
C2302 C2304 1.327 . S
C2302 H2327 0.950 . S
C2303 C2302 1.349 . S
C2303 C2319 1.349 . S
C2304 C2302 1.327 . S
C2304 C2323 1.429 . S
C2304 H2328 0.950 . S
C2305 C2322 1.574 . S
C2305 C2324 1.368 . S
C2305 H2329 0.949 . S
H2306 C2310 0.949 . S
C2307 C2308 1.349 . S
C2307 C2309 1.327 . S
C2307 H2330 0.950 . S
C2308 C2307 1.349 . S
C2308 C2320 1.349 . S
C2309 C2307 1.327 . S
C2309 C2325 1.429 . S
C2309 H2331 0.950 . S
C2310 H2306 0.949 . S
C2310 C2318 1.574 . S
C2310 C2326 1.368 . S
H2311 C2319 0.950 . S
H2312 C2317 0.950 . S
H2313 C2318 0.949 . S
H2314 C2320 0.950 . S
H2315 C2321 0.950 . S
H2316 C2322 0.949 . S
C2317 H2312 0.950 . S
C2317 C2319 1.327 . S
C2317 C2323 1.429 . S
C2318 C2310 1.574 . S
C2318 H2313 0.949 . S
C2318 C2324 1.368 . S
C2319 C2303 1.349 . S
C2319 H2311 0.950 . S
C2319 C2317 1.327 . S
C2320 C2308 1.349 . S
C2320 H2314 0.950 . S
C2320 C2321 1.327 . S
C2321 H2315 0.950 . S
C2321 C2320 1.327 . S
C2321 C2325 1.429 . S
C2322 C2305 1.574 . S
C2322 H2316 0.949 . S
C2322 C2326 1.368 . S
C2323 C2304 1.429 . S
C2323 C2317 1.429 . S
C2323 C2324 1.523 . S
C2324 C2305 1.368 . S
C2324 C2318 1.368 . S
C2324 C2323 1.523 . S
C2325 C2309 1.429 . S
C2325 C2321 1.429 . S
C2325 C2326 1.523 . S
C2326 C2310 1.368 . S
C2326 C2322 1.368 . S
C2326 C2325 1.523 . S
H2327 C2302 0.950 . S
H2328 C2304 0.950 . S
H2329 C2305 0.949 . S
H2330 C2307 0.950 . S
H2331 C2309 0.950 . S
C2332 C2333 1.349 . S
C2332 C2334 1.327 . S
C2332 H2357 0.950 . S
C2333 C2332 1.349 . S
C2333 C2349 1.349 . S
C2334 C2332 1.327 . S
C2334 C2353 1.429 . S
C2334 H2358 0.950 . S
C2335 C2352 1.574 . S
C2335 C2354 1.368 . S
C2335 H2359 0.949 . S
H2336 C2340 0.949 . S
C2337 C2338 1.349 . S
C2337 C2339 1.327 . S
C2337 H2360 0.950 . S
C2338 C2337 1.349 . S
C2338 C2350 1.349 . S
C2339 C2337 1.327 . S
C2339 C2355 1.429 . S
C2339 H2361 0.950 . S
C2340 H2336 0.949 . S
C2340 C2348 1.574 . S
C2340 C2356 1.368 . S
H2341 C2349 0.950 . S
H2342 C2347 0.950 . S
H2343 C2348 0.949 . S
H2344 C2350 0.950 . S
H2345 C2351 0.950 . S
H2346 C2352 0.949 . S
C2347 H2342 0.950 . S
C2347 C2349 1.327 . S
C2347 C2353 1.429 . S
C2348 C2340 1.574 . S
C2348 H2343 0.949 . S
C2348 C2354 1.368 . S
C2349 C2333 1.349 . S
C2349 H2341 0.950 . S
C2349 C2347 1.327 . S
C2350 C2338 1.349 . S
C2350 H2344 0.950 . S
C2350 C2351 1.327 . S
C2351 H2345 0.950 . S
C2351 C2350 1.327 . S
C2351 C2355 1.429 . S
C2352 C2335 1.574 . S
C2352 H2346 0.949 . S
C2352 C2356 1.368 . S
C2353 C2334 1.429 . S
C2353 C2347 1.429 . S
C2353 C2354 1.523 . S
C2354 C2335 1.368 . S
C2354 C2348 1.368 . S
C2354 C2353 1.523 . S
C2355 C2339 1.429 . S
C2355 C2351 1.429 . S
C2355 C2356 1.523 . S
C2356 C2340 1.368 . S
C2356 C2352 1.368 . S
C2356 C2355 1.523 . S
H2357 C2332 0.950 . S
H2358 C2334 0.950 . S
H2359 C2335 0.949 . S
H2360 C2337 0.950 . S
H2361 C2339 0.950 . S
C2362 C2363 1.349 . S
C2362 C2364 1.327 . S
C2362 H2387 0.950 . S
C2363 C2362 1.349 . S
C2363 C2379 1.349 . S
C2364 C2362 1.327 . S
C2364 C2383 1.429 . S
C2364 H2388 0.950 . S
C2365 C2382 1.574 . S
C2365 C2384 1.368 . S
C2365 H2389 0.949 . S
H2366 C2370 0.949 . S
C2367 C2368 1.349 . S
C2367 C2369 1.327 . S
C2367 H2390 0.950 . S
C2368 C2367 1.349 . S
C2368 C2380 1.349 . S
C2369 C2367 1.327 . S
C2369 C2385 1.429 . S
C2369 H2391 0.950 . S
C2370 H2366 0.949 . S
C2370 C2378 1.574 . S
C2370 C2386 1.368 . S
H2371 C2379 0.950 . S
H2372 C2377 0.950 . S
H2373 C2378 0.949 . S
H2374 C2380 0.950 . S
H2375 C2381 0.950 . S
H2376 C2382 0.949 . S
C2377 H2372 0.950 . S
C2377 C2379 1.327 . S
C2377 C2383 1.429 . S
C2378 C2370 1.574 . S
C2378 H2373 0.949 . S
C2378 C2384 1.368 . S
C2379 C2363 1.349 . S
C2379 H2371 0.950 . S
C2379 C2377 1.327 . S
C2380 C2368 1.349 . S
C2380 H2374 0.950 . S
C2380 C2381 1.327 . S
C2381 H2375 0.950 . S
C2381 C2380 1.327 . S
C2381 C2385 1.429 . S
C2382 C2365 1.574 . S
C2382 H2376 0.949 . S
C2382 C2386 1.368 . S
C2383 C2364 1.429 . S
C2383 C2377 1.429 . S
C2383 C2384 1.523 . S
C2384 C2365 1.368 . S
C2384 C2378 1.368 . S
C2384 C2383 1.523 . S
C2385 C2369 1.429 . S
C2385 C2381 1.429 . S
C2385 C2386 1.523 . S
C2386 C2370 1.368 . S
C2386 C2382 1.368 . S
C2386 C2385 1.523 . S
H2387 C2362 0.950 . S
H2388 C2364 0.950 . S
H2389 C2365 0.949 . S
H2390 C2367 0.950 . S
H2391 C2369 0.950 . S
C2392 C2393 1.349 . S
C2392 C2394 1.327 . S
C2392 H2417 0.950 . S
C2393 C2392 1.349 . S
C2393 C2409 1.349 . S
C2394 C2392 1.327 . S
C2394 C2413 1.429 . S
C2394 H2418 0.950 . S
C2395 C2412 1.574 . S
C2395 C2414 1.368 . S
C2395 H2419 0.949 . S
H2396 C2400 0.949 . S
C2397 C2398 1.349 . S
C2397 C2399 1.327 . S
C2397 H2420 0.950 . S
C2398 C2397 1.349 . S
C2398 C2410 1.349 . S
C2399 C2397 1.327 . S
C2399 C2415 1.429 . S
C2399 H2421 0.950 . S
C2400 H2396 0.949 . S
C2400 C2408 1.574 . S
C2400 C2416 1.368 . S
H2401 C2409 0.950 . S
H2402 C2407 0.950 . S
H2403 C2408 0.949 . S
H2404 C2410 0.950 . S
H2405 C2411 0.950 . S
H2406 C2412 0.949 . S
C2407 H2402 0.950 . S
C2407 C2409 1.327 . S
C2407 C2413 1.429 . S
C2408 C2400 1.574 . S
C2408 H2403 0.949 . S
C2408 C2414 1.368 . S
C2409 C2393 1.349 . S
C2409 H2401 0.950 . S
C2409 C2407 1.327 . S
C2410 C2398 1.349 . S
C2410 H2404 0.950 . S
C2410 C2411 1.327 . S
C2411 H2405 0.950 . S
C2411 C2410 1.327 . S
C2411 C2415 1.429 . S
C2412 C2395 1.574 . S
C2412 H2406 0.949 . S
C2412 C2416 1.368 . S
C2413 C2394 1.429 . S
C2413 C2407 1.429 . S
C2413 C2414 1.523 . S
C2414 C2395 1.368 . S
C2414 C2408 1.368 . S
C2414 C2413 1.523 . S
C2415 C2399 1.429 . S
C2415 C2411 1.429 . S
C2415 C2416 1.523 . S
C2416 C2400 1.368 . S
C2416 C2412 1.368 . S
C2416 C2415 1.523 . S
H2417 C2392 0.950 . S
H2418 C2394 0.950 . S
H2419 C2395 0.949 . S
H2420 C2397 0.950 . S
H2421 C2399 0.950 . S
C2422 C2423 1.349 . S
C2422 C2424 1.327 . S
C2422 H2447 0.950 . S
C2423 C2422 1.349 . S
C2423 C2439 1.349 . S
C2424 C2422 1.327 . S
C2424 C2443 1.429 . S
C2424 H2448 0.950 . S
C2425 C2442 1.574 . S
C2425 C2444 1.368 . S
C2425 H2449 0.949 . S
H2426 C2430 0.949 . S
C2427 C2428 1.349 . S
C2427 C2429 1.327 . S
C2427 H2450 0.950 . S
C2428 C2427 1.349 . S
C2428 C2440 1.349 . S
C2429 C2427 1.327 . S
C2429 C2445 1.429 . S
C2429 H2451 0.950 . S
C2430 H2426 0.949 . S
C2430 C2438 1.574 . S
C2430 C2446 1.368 . S
H2431 C2439 0.950 . S
H2432 C2437 0.950 . S
H2433 C2438 0.949 . S
H2434 C2440 0.950 . S
H2435 C2441 0.950 . S
H2436 C2442 0.949 . S
C2437 H2432 0.950 . S
C2437 C2439 1.327 . S
C2437 C2443 1.429 . S
C2438 C2430 1.574 . S
C2438 H2433 0.949 . S
C2438 C2444 1.368 . S
C2439 C2423 1.349 . S
C2439 H2431 0.950 . S
C2439 C2437 1.327 . S
C2440 C2428 1.349 . S
C2440 H2434 0.950 . S
C2440 C2441 1.327 . S
C2441 H2435 0.950 . S
C2441 C2440 1.327 . S
C2441 C2445 1.429 . S
C2442 C2425 1.574 . S
C2442 H2436 0.949 . S
C2442 C2446 1.368 . S
C2443 C2424 1.429 . S
C2443 C2437 1.429 . S
C2443 C2444 1.523 . S
C2444 C2425 1.368 . S
C2444 C2438 1.368 . S
C2444 C2443 1.523 . S
C2445 C2429 1.429 . S
C2445 C2441 1.429 . S
C2445 C2446 1.523 . S
C2446 C2430 1.368 . S
C2446 C2442 1.368 . S
C2446 C2445 1.523 . S
H2447 C2422 0.950 . S
H2448 C2424 0.950 . S
H2449 C2425 0.949 . S
H2450 C2427 0.950 . S
H2451 C2429 0.950 . S
C2452 C2453 1.349 . S
C2452 C2454 1.327 . S
C2452 H2477 0.950 . S
C2453 C2452 1.349 . S
C2453 C2469 1.349 . S
C2454 C2452 1.327 . S
C2454 C2473 1.429 . S
C2454 H2478 0.950 . S
C2455 C2472 1.574 . S
C2455 C2474 1.368 . S
C2455 H2479 0.949 . S
H2456 C2460 0.949 . S
C2457 C2458 1.349 . S
C2457 C2459 1.327 1_554 S
C2457 H2480 0.950 1_554 S
C2458 C2457 1.349 . S
C2458 C2470 1.349 . S
C2459 C2457 1.327 1_556 S
C2459 C2475 1.429 1_556 S
C2459 H2481 0.950 . S
C2460 H2456 0.949 . S
C2460 C2468 1.574 1_554 S
C2460 C2476 1.368 1_554 S
H2461 C2469 0.986 . S
H2462 C2467 0.950 . S
H2463 C2468 0.949 . S
H2464 C2470 0.950 . S
H2465 C2471 0.950 . S
H2466 C2472 0.949 . S
C2467 H2462 0.950 . S
C2467 C2469 1.327 . S
C2467 C2473 1.429 . S
C2468 C2460 1.574 1_556 S
C2468 H2463 0.949 . S
C2468 C2474 1.368 . S
C2469 C2453 1.349 . S
C2469 H2461 0.986 . S
C2469 C2467 1.327 . S
C2470 C2458 1.349 . S
C2470 H2464 0.950 . S
C2470 C2471 1.327 . S
C2471 H2465 0.950 . S
C2471 C2470 1.327 . S
C2471 C2475 1.429 . S
C2472 C2455 1.574 . S
C2472 H2466 0.949 . S
C2472 C2476 1.368 . S
C2473 C2454 1.429 . S
C2473 C2467 1.429 . S
C2473 C2474 1.523 . S
C2474 C2455 1.368 . S
C2474 C2468 1.368 . S
C2474 C2473 1.523 . S
C2475 C2459 1.429 1_554 S
C2475 C2471 1.429 . S
C2475 C2476 1.523 1_554 S
C2476 C2460 1.368 1_556 S
C2476 C2472 1.368 . S
C2476 C2475 1.523 1_556 S
H2477 C2452 0.950 . S
H2478 C2454 0.950 . S
H2479 C2455 0.949 . S
H2480 C2457 0.950 1_556 S
H2481 C2459 0.950 . S
C2482 C2483 1.349 1_655 S
C2482 C2484 1.327 . S
C2482 H2507 0.950 . S
C2483 C2482 1.349 1_455 S
C2483 C2499 1.349 . S
C2484 C2482 1.327 . S
C2484 C2503 1.429 . S
C2484 H2508 0.950 . S
C2485 C2502 1.574 . S
C2485 C2504 1.368 . S
C2485 H2509 0.949 . S
H2486 C2490 0.949 . S
C2487 C2488 1.349 . S
C2487 C2489 1.327 . S
C2487 H2510 0.950 . S
C2488 C2487 1.349 . S
C2488 C2500 1.349 . S
C2489 C2487 1.327 . S
C2489 C2505 1.429 . S
C2489 H2511 0.950 . S
C2490 H2486 0.949 . S
C2490 C2498 1.574 . S
C2490 C2506 1.368 . S
H2491 C2499 0.950 . S
H2492 C2497 0.950 . S
H2493 C2498 0.949 . S
H2494 C2500 0.950 . S
H2495 C2501 0.950 . S
H2496 C2502 0.949 . S
C2497 H2492 0.950 . S
C2497 C2499 1.327 1_655 S
C2497 C2503 1.429 . S
C2498 C2490 1.574 . S
C2498 H2493 0.949 . S
C2498 C2504 1.368 . S
C2499 C2483 1.349 . S
C2499 H2491 0.950 . S
C2499 C2497 1.327 1_455 S
C2500 C2488 1.349 . S
C2500 H2494 0.950 . S
C2500 C2501 1.327 . S
C2501 H2495 0.950 . S
C2501 C2500 1.327 . S
C2501 C2505 1.429 . S
C2502 C2485 1.574 . S
C2502 H2496 0.949 . S
C2502 C2506 1.368 . S
C2503 C2484 1.429 . S
C2503 C2497 1.429 . S
C2503 C2504 1.523 . S
C2504 C2485 1.368 . S
C2504 C2498 1.368 . S
C2504 C2503 1.523 . S
C2505 C2489 1.429 . S
C2505 C2501 1.429 . S
C2505 C2506 1.523 . S
C2506 C2490 1.368 . S
C2506 C2502 1.368 . S
C2506 C2505 1.523 . S
H2507 C2482 0.950 . S
H2508 C2484 0.950 . S
H2509 C2485 0.949 . S
H2510 C2487 0.950 . S
H2511 C2489 0.950 . S
C2512 C2513 1.349 . S
C2512 C2514 1.327 . S
C2512 H2537 0.950 . S
C2513 C2512 1.349 . S
C2513 C2529 1.349 . S
C2514 C2512 1.327 . S
C2514 C2533 1.429 . S
C2514 H2538 0.950 . S
C2515 C2532 1.574 . S
C2515 C2534 1.368 . S
C2515 H2539 0.949 . S
H2516 C2520 0.949 . S
C2517 C2518 1.349 . S
C2517 C2519 1.327 . S
C2517 H2540 0.950 . S
C2518 C2517 1.349 . S
C2518 C2530 1.349 . S
C2519 C2517 1.327 . S
C2519 C2535 1.429 . S
C2519 H2541 0.950 . S
C2520 H2516 0.949 . S
C2520 C2528 1.574 . S
C2520 C2536 1.368 . S
H2521 C2529 0.950 . S
H2522 C2527 0.950 . S
H2523 C2528 0.949 . S
H2524 C2530 0.950 . S
H2525 C2531 0.950 . S
H2526 C2532 0.949 . S
C2527 H2522 0.950 . S
C2527 C2529 1.327 . S
C2527 C2533 1.429 . S
C2528 C2520 1.574 . S
C2528 H2523 0.949 . S
C2528 C2534 1.368 . S
C2529 C2513 1.349 . S
C2529 H2521 0.950 . S
C2529 C2527 1.327 . S
C2530 C2518 1.349 . S
C2530 H2524 0.950 . S
C2530 C2531 1.327 . S
C2531 H2525 0.950 . S
C2531 C2530 1.327 . S
C2531 C2535 1.429 . S
C2532 C2515 1.574 . S
C2532 H2526 0.949 . S
C2532 C2536 1.368 . S
C2533 C2514 1.429 . S
C2533 C2527 1.429 . S
C2533 C2534 1.523 . S
C2534 C2515 1.368 . S
C2534 C2528 1.368 . S
C2534 C2533 1.523 . S
C2535 C2519 1.429 . S
C2535 C2531 1.429 . S
C2535 C2536 1.523 . S
C2536 C2520 1.368 . S
C2536 C2532 1.368 . S
C2536 C2535 1.523 . S
H2537 C2512 0.950 . S
H2538 C2514 0.950 . S
H2539 C2515 0.949 . S
H2540 C2517 0.950 . S
H2541 C2519 0.950 . S
C2542 C2543 1.349 . S
C2542 C2544 1.327 . S
C2542 H2567 0.950 . S
C2543 C2542 1.349 . S
C2543 C2559 1.349 . S
C2544 C2542 1.327 . S
C2544 C2563 1.429 . S
C2544 H2568 0.950 . S
C2545 C2562 1.574 . S
C2545 C2564 1.368 . S
C2545 H2569 0.949 . S
H2546 C2550 0.949 . S
C2547 C2548 1.349 . S
C2547 C2549 1.327 . S
C2547 H2570 0.950 . S
C2548 C2547 1.349 . S
C2548 C2560 1.349 . S
C2549 C2547 1.327 . S
C2549 C2565 1.429 . S
C2549 H2571 0.950 . S
C2550 H2546 0.949 . S
C2550 C2558 1.574 . S
C2550 C2566 1.368 . S
H2551 C2559 0.950 . S
H2552 C2557 0.950 . S
H2553 C2558 0.949 . S
H2554 C2560 0.950 . S
H2555 C2561 0.950 . S
H2556 C2562 0.949 . S
C2557 H2552 0.950 . S
C2557 C2559 1.327 . S
C2557 C2563 1.429 . S
C2558 C2550 1.574 . S
C2558 H2553 0.949 . S
C2558 C2564 1.368 . S
C2559 C2543 1.349 . S
C2559 H2551 0.950 . S
C2559 C2557 1.327 . S
C2560 C2548 1.349 . S
C2560 H2554 0.950 . S
C2560 C2561 1.327 . S
C2561 H2555 0.950 . S
C2561 C2560 1.327 . S
C2561 C2565 1.429 . S
C2562 C2545 1.574 . S
C2562 H2556 0.949 . S
C2562 C2566 1.368 . S
C2563 C2544 1.429 . S
C2563 C2557 1.429 . S
C2563 C2564 1.523 . S
C2564 C2545 1.368 . S
C2564 C2558 1.368 . S
C2564 C2563 1.523 . S
C2565 C2549 1.429 . S
C2565 C2561 1.429 . S
C2565 C2566 1.523 . S
C2566 C2550 1.368 . S
C2566 C2562 1.368 . S
C2566 C2565 1.523 . S
H2567 C2542 0.950 . S
H2568 C2544 0.950 . S
H2569 C2545 0.949 . S
H2570 C2547 0.950 . S
H2571 C2549 0.950 . S
C2572 C2573 1.349 . S
C2572 C2574 1.327 . S
C2572 H2597 0.950 . S
C2573 C2572 1.349 . S
C2573 C2589 1.349 . S
C2574 C2572 1.327 . S
C2574 C2593 1.429 . S
C2574 H2598 0.950 . S
C2575 C2592 1.574 . S
C2575 C2594 1.368 . S
C2575 H2599 0.949 . S
H2576 C2580 0.949 . S
C2577 C2578 1.349 . S
C2577 C2579 1.327 . S
C2577 H2600 0.950 . S
C2578 C2577 1.349 . S
C2578 C2590 1.349 . S
C2579 C2577 1.327 . S
C2579 C2595 1.429 . S
C2579 H2601 0.950 . S
C2580 H2576 0.949 . S
C2580 C2588 1.574 . S
C2580 C2596 1.368 . S
H2581 C2589 0.950 . S
H2582 C2587 0.950 . S
H2583 C2588 0.949 . S
H2584 C2590 0.896 1_655 S
H2585 C2591 0.950 . S
H2586 C2592 0.949 . S
C2587 H2582 0.950 . S
C2587 C2589 1.327 . S
C2587 C2593 1.429 . S
C2588 C2580 1.574 . S
C2588 H2583 0.949 . S
C2588 C2594 1.368 . S
C2589 C2573 1.349 . S
C2589 H2581 0.950 . S
C2589 C2587 1.327 . S
C2590 C2578 1.349 . S
C2590 H2584 0.896 1_455 S
C2590 C2591 1.327 . S
C2591 H2585 0.950 . S
C2591 C2590 1.327 . S
C2591 C2595 1.429 . S
C2592 C2575 1.574 . S
C2592 H2586 0.949 . S
C2592 C2596 1.368 . S
C2593 C2574 1.429 . S
C2593 C2587 1.429 . S
C2593 C2594 1.523 . S
C2594 C2575 1.368 . S
C2594 C2588 1.368 . S
C2594 C2593 1.523 . S
C2595 C2579 1.429 . S
C2595 C2591 1.429 . S
C2595 C2596 1.523 . S
C2596 C2580 1.368 . S
C2596 C2592 1.368 . S
C2596 C2595 1.523 . S
H2597 C2572 0.950 . S
H2598 C2574 0.950 . S
H2599 C2575 0.949 . S
H2600 C2577 0.950 . S
H2601 C2579 0.950 . S
C2602 C2603 1.349 . S
C2602 C2604 1.327 . S
C2602 H2627 0.950 . S
C2603 C2602 1.349 . S
C2603 C2619 1.349 . S
C2604 C2602 1.327 . S
C2604 C2623 1.429 . S
C2604 H2628 0.950 . S
C2605 C2622 1.574 . S
C2605 C2624 1.368 . S
C2605 H2629 0.949 . S
H2606 C2610 0.949 . S
C2607 C2608 1.349 . S
C2607 C2609 1.327 . S
C2607 H2630 0.950 . S
C2608 C2607 1.349 . S
C2608 C2620 1.349 . S
C2609 C2607 1.327 . S
C2609 C2625 1.429 . S
C2609 H2631 0.950 . S
C2610 H2606 0.949 . S
C2610 C2618 1.574 . S
C2610 C2626 1.368 . S
H2611 C2619 0.950 . S
H2612 C2617 0.950 . S
H2613 C2618 0.949 . S
H2614 C2620 0.950 . S
H2615 C2621 0.950 . S
H2616 C2622 0.949 . S
C2617 H2612 0.950 . S
C2617 C2619 1.327 . S
C2617 C2623 1.429 . S
C2618 C2610 1.574 . S
C2618 H2613 0.949 . S
C2618 C2624 1.368 . S
C2619 C2603 1.349 . S
C2619 H2611 0.950 . S
C2619 C2617 1.327 . S
C2620 C2608 1.349 . S
C2620 H2614 0.950 . S
C2620 C2621 1.327 . S
C2621 H2615 0.950 . S
C2621 C2620 1.327 . S
C2621 C2625 1.429 . S
C2622 C2605 1.574 . S
C2622 H2616 0.949 . S
C2622 C2626 1.368 . S
C2623 C2604 1.429 . S
C2623 C2617 1.429 . S
C2623 C2624 1.523 . S
C2624 C2605 1.368 . S
C2624 C2618 1.368 . S
C2624 C2623 1.523 . S
C2625 C2609 1.429 . S
C2625 C2621 1.429 . S
C2625 C2626 1.523 . S
C2626 C2610 1.368 . S
C2626 C2622 1.368 . S
C2626 C2625 1.523 . S
H2627 C2602 0.950 . S
H2628 C2604 0.950 . S
H2629 C2605 0.949 . S
H2630 C2607 0.950 . S
H2631 C2609 0.950 . S
C2632 C2633 1.349 . S
C2632 C2634 1.327 . S
C2632 H2657 0.950 . S
C2633 C2632 1.349 . S
C2633 C2649 1.349 . S
C2634 C2632 1.327 . S
C2634 C2653 1.429 . S
C2634 H2658 0.950 . S
C2635 C2652 1.574 . S
C2635 C2654 1.368 . S
C2635 H2659 0.949 . S
H2636 C2640 0.949 . S
C2637 C2638 1.349 . S
C2637 C2639 1.327 . S
C2637 H2660 0.950 . S
C2638 C2637 1.349 . S
C2638 C2650 1.349 . S
C2639 C2637 1.327 . S
C2639 C2655 1.429 . S
C2639 H2661 0.950 . S
C2640 H2636 0.949 . S
C2640 C2648 1.574 . S
C2640 C2656 1.368 . S
H2641 C2649 0.950 . S
H2642 C2647 0.950 . S
H2643 C2648 0.949 . S
H2644 C2650 0.950 . S
H2645 C2651 0.950 . S
H2646 C2652 0.949 . S
C2647 H2642 0.950 . S
C2647 C2649 1.327 . S
C2647 C2653 1.429 . S
C2648 C2640 1.574 . S
C2648 H2643 0.949 . S
C2648 C2654 1.368 . S
C2649 C2633 1.349 . S
C2649 H2641 0.950 . S
C2649 C2647 1.327 . S
C2650 C2638 1.349 . S
C2650 H2644 0.950 . S
C2650 C2651 1.327 . S
C2651 H2645 0.950 . S
C2651 C2650 1.327 . S
C2651 C2655 1.429 . S
C2652 C2635 1.574 . S
C2652 H2646 0.949 . S
C2652 C2656 1.368 . S
C2653 C2634 1.429 . S
C2653 C2647 1.429 . S
C2653 C2654 1.523 . S
C2654 C2635 1.368 . S
C2654 C2648 1.368 . S
C2654 C2653 1.523 . S
C2655 C2639 1.429 . S
C2655 C2651 1.429 . S
C2655 C2656 1.523 . S
C2656 C2640 1.368 . S
C2656 C2652 1.368 . S
C2656 C2655 1.523 . S
H2657 C2632 0.950 . S
H2658 C2634 0.950 . S
H2659 C2635 0.949 . S
H2660 C2637 0.950 . S
H2661 C2639 0.950 . S
C2662 C2663 1.349 . S
C2662 C2664 1.328 . S
C2662 H2687 0.950 . S
C2663 C2662 1.349 . S
C2663 C2679 1.351 . S
C2664 C2662 1.328 . S
C2664 C2683 1.428 1_554 S
C2664 H2688 0.953 . S
C2665 C2682 1.574 . S
C2665 C2684 1.368 . S
C2665 H2689 0.949 . S
H2666 C2670 0.949 . S
C2667 C2668 1.349 . S
C2667 C2669 1.327 . S
C2667 H2690 0.950 . S
C2668 C2667 1.349 . S
C2668 C2680 1.349 . S
C2669 C2667 1.327 . S
C2669 C2685 1.429 . S
C2669 H2691 0.950 . S
C2670 H2666 0.949 . S
C2670 C2678 1.574 . S
C2670 C2686 1.368 . S
H2671 C2679 0.946 . S
H2672 C2677 0.950 . S
H2673 C2678 0.949 . S
H2674 C2680 0.950 . S
H2675 C2681 0.950 . S
H2676 C2682 0.949 . S
C2677 H2672 0.950 . S
C2677 C2679 1.324 1_556 S
C2677 C2683 1.429 . S
C2678 C2670 1.574 . S
C2678 H2673 0.949 . S
C2678 C2684 1.368 . S
C2679 C2663 1.351 . S
C2679 H2671 0.946 . S
C2679 C2677 1.324 1_554 S
C2680 C2668 1.349 . S
C2680 H2674 0.950 . S
C2680 C2681 1.327 . S
C2681 H2675 0.950 . S
C2681 C2680 1.327 . S
C2681 C2685 1.429 . S
C2682 C2665 1.574 . S
C2682 H2676 0.949 . S
C2682 C2686 1.368 . S
C2683 C2664 1.428 1_556 S
C2683 C2677 1.429 . S
C2683 C2684 1.523 . S
C2684 C2665 1.368 . S
C2684 C2678 1.368 . S
C2684 C2683 1.523 . S
C2685 C2669 1.429 . S
C2685 C2681 1.429 . S
C2685 C2686 1.523 . S
C2686 C2670 1.368 . S
C2686 C2682 1.368 . S
C2686 C2685 1.523 . S
H2687 C2662 0.950 . S
H2688 C2664 0.953 . S
H2689 C2665 0.949 . S
H2690 C2667 0.950 . S
H2691 C2669 0.950 . S
C2692 C2693 1.349 . S
C2692 C2694 1.327 . S
C2692 H2717 0.950 . S
C2693 C2692 1.349 . S
C2693 C2709 1.349 . S
C2694 C2692 1.327 . S
C2694 C2713 1.429 . S
C2694 H2718 0.950 . S
C2695 C2712 1.574 . S
C2695 C2714 1.368 . S
C2695 H2719 0.949 . S
H2696 C2700 0.949 . S
C2697 C2698 1.349 . S
C2697 C2699 1.327 . S
C2697 H2720 0.950 . S
C2698 C2697 1.349 . S
C2698 C2710 1.349 . S
C2699 C2697 1.327 . S
C2699 C2715 1.429 . S
C2699 H2721 0.950 . S
C2700 H2696 0.949 . S
C2700 C2708 1.574 . S
C2700 C2716 1.368 . S
H2701 C2709 0.950 . S
H2702 C2707 0.950 . S
H2703 C2708 0.949 . S
H2704 C2710 0.950 . S
H2705 C2711 0.950 . S
H2706 C2712 0.949 . S
C2707 H2702 0.950 . S
C2707 C2709 1.327 . S
C2707 C2713 1.429 . S
C2708 C2700 1.574 . S
C2708 H2703 0.949 . S
C2708 C2714 1.368 . S
C2709 C2693 1.349 . S
C2709 H2701 0.950 . S
C2709 C2707 1.327 . S
C2710 C2698 1.349 . S
C2710 H2704 0.950 . S
C2710 C2711 1.327 . S
C2711 H2705 0.950 . S
C2711 C2710 1.327 . S
C2711 C2715 1.429 . S
C2712 C2695 1.574 . S
C2712 H2706 0.949 . S
C2712 C2716 1.368 . S
C2713 C2694 1.429 . S
C2713 C2707 1.429 . S
C2713 C2714 1.523 . S
C2714 C2695 1.368 . S
C2714 C2708 1.368 . S
C2714 C2713 1.523 . S
C2715 C2699 1.429 . S
C2715 C2711 1.429 . S
C2715 C2716 1.523 . S
C2716 C2700 1.368 . S
C2716 C2712 1.368 . S
C2716 C2715 1.523 . S
H2717 C2692 0.950 . S
H2718 C2694 0.950 . S
H2719 C2695 0.949 . S
H2720 C2697 0.950 . S
H2721 C2699 0.950 . S
C2722 C2723 1.349 . S
C2722 C2724 1.327 . S
C2722 H2747 0.950 . S
C2723 C2722 1.349 . S
C2723 C2739 1.349 . S
C2724 C2722 1.327 . S
C2724 C2743 1.429 . S
C2724 H2748 0.950 . S
C2725 C2742 1.574 . S
C2725 C2744 1.368 . S
C2725 H2749 0.949 . S
H2726 C2730 0.949 . S
C2727 C2728 1.349 . S
C2727 C2729 1.327 . S
C2727 H2750 0.950 . S
C2728 C2727 1.349 . S
C2728 C2740 1.349 . S
C2729 C2727 1.327 . S
C2729 C2745 1.429 . S
C2729 H2751 0.950 . S
C2730 H2726 0.949 . S
C2730 C2738 1.574 . S
C2730 C2746 1.368 . S
H2731 C2739 0.950 . S
H2732 C2737 0.950 . S
H2733 C2738 0.949 . S
H2734 C2740 0.950 . S
H2735 C2741 0.950 . S
H2736 C2742 0.949 . S
C2737 H2732 0.950 . S
C2737 C2739 1.327 . S
C2737 C2743 1.429 . S
C2738 C2730 1.574 . S
C2738 H2733 0.949 . S
C2738 C2744 1.368 . S
C2739 C2723 1.349 . S
C2739 H2731 0.950 . S
C2739 C2737 1.327 . S
C2740 C2728 1.349 . S
C2740 H2734 0.950 . S
C2740 C2741 1.327 . S
C2741 H2735 0.950 . S
C2741 C2740 1.327 . S
C2741 C2745 1.429 . S
C2742 C2725 1.574 . S
C2742 H2736 0.949 . S
C2742 C2746 1.368 . S
C2743 C2724 1.429 . S
C2743 C2737 1.429 . S
C2743 C2744 1.523 . S
C2744 C2725 1.368 . S
C2744 C2738 1.368 . S
C2744 C2743 1.523 . S
C2745 C2729 1.429 . S
C2745 C2741 1.429 . S
C2745 C2746 1.523 . S
C2746 C2730 1.368 . S
C2746 C2742 1.368 . S
C2746 C2745 1.523 . S
H2747 C2722 0.950 . S
H2748 C2724 0.950 . S
H2749 C2725 0.949 . S
H2750 C2727 0.950 . S
H2751 C2729 0.950 . S
C2752 C2753 1.349 . S
C2752 C2754 1.327 . S
C2752 H2777 0.950 . S
C2753 C2752 1.349 . S
C2753 C2769 1.349 . S
C2754 C2752 1.327 . S
C2754 C2773 1.429 . S
C2754 H2778 0.950 . S
C2755 C2772 1.574 . S
C2755 C2774 1.368 . S
C2755 H2779 0.949 . S
H2756 C2760 0.949 . S
C2757 C2758 1.349 . S
C2757 C2759 1.327 . S
C2757 H2780 0.950 . S
C2758 C2757 1.349 . S
C2758 C2770 1.349 . S
C2759 C2757 1.327 . S
C2759 C2775 1.429 . S
C2759 H2781 0.950 . S
C2760 H2756 0.949 . S
C2760 C2768 1.574 . S
C2760 C2776 1.368 . S
H2761 C2769 0.950 . S
H2762 C2767 0.950 . S
H2763 C2768 0.949 . S
H2764 C2770 0.950 . S
H2765 C2771 0.950 . S
H2766 C2772 0.949 . S
C2767 H2762 0.950 . S
C2767 C2769 1.327 . S
C2767 C2773 1.429 . S
C2768 C2760 1.574 . S
C2768 H2763 0.949 . S
C2768 C2774 1.368 . S
C2769 C2753 1.349 . S
C2769 H2761 0.950 . S
C2769 C2767 1.327 . S
C2770 C2758 1.349 . S
C2770 H2764 0.950 . S
C2770 C2771 1.327 . S
C2771 H2765 0.950 . S
C2771 C2770 1.327 . S
C2771 C2775 1.429 . S
C2772 C2755 1.574 . S
C2772 H2766 0.949 . S
C2772 C2776 1.368 . S
C2773 C2754 1.429 . S
C2773 C2767 1.429 . S
C2773 C2774 1.523 . S
C2774 C2755 1.368 . S
C2774 C2768 1.368 . S
C2774 C2773 1.523 . S
C2775 C2759 1.429 . S
C2775 C2771 1.429 . S
C2775 C2776 1.523 . S
C2776 C2760 1.368 . S
C2776 C2772 1.368 . S
C2776 C2775 1.523 . S
H2777 C2752 0.950 . S
H2778 C2754 0.950 . S
H2779 C2755 0.949 . S
H2780 C2757 0.950 . S
H2781 C2759 0.950 . S
C2782 C2783 1.349 . S
C2782 C2784 1.327 . S
C2782 H2807 0.950 . S
C2783 C2782 1.349 . S
C2783 C2799 1.349 . S
C2784 C2782 1.327 . S
C2784 C2803 1.429 . S
C2784 H2808 0.950 . S
C2785 C2802 1.574 . S
C2785 C2804 1.368 . S
C2785 H2809 0.949 . S
H2786 C2790 0.949 . S
C2787 C2788 1.349 . S
C2787 C2789 1.327 . S
C2787 H2810 0.950 . S
C2788 C2787 1.349 . S
C2788 C2800 1.349 . S
C2789 C2787 1.327 . S
C2789 C2805 1.429 . S
C2789 H2811 0.950 . S
C2790 H2786 0.949 . S
C2790 C2798 1.574 . S
C2790 C2806 1.368 . S
H2791 C2799 0.950 . S
H2792 C2797 0.950 . S
H2793 C2798 0.949 . S
H2794 C2800 0.950 . S
H2795 C2801 0.950 . S
H2796 C2802 0.949 . S
C2797 H2792 0.950 . S
C2797 C2799 1.327 . S
C2797 C2803 1.429 . S
C2798 C2790 1.574 . S
C2798 H2793 0.949 . S
C2798 C2804 1.368 . S
C2799 C2783 1.349 . S
C2799 H2791 0.950 . S
C2799 C2797 1.327 . S
C2800 C2788 1.349 . S
C2800 H2794 0.950 . S
C2800 C2801 1.327 . S
C2801 H2795 0.950 . S
C2801 C2800 1.327 . S
C2801 C2805 1.429 . S
C2802 C2785 1.574 . S
C2802 H2796 0.949 . S
C2802 C2806 1.368 . S
C2803 C2784 1.429 . S
C2803 C2797 1.429 . S
C2803 C2804 1.523 . S
C2804 C2785 1.368 . S
C2804 C2798 1.368 . S
C2804 C2803 1.523 . S
C2805 C2789 1.429 . S
C2805 C2801 1.429 . S
C2805 C2806 1.523 . S
C2806 C2790 1.368 . S
C2806 C2802 1.368 . S
C2806 C2805 1.523 . S
H2807 C2782 0.950 . S
H2808 C2784 0.950 . S
H2809 C2785 0.949 . S
H2810 C2787 0.950 . S
H2811 C2789 0.950 . S
C2812 C2813 1.349 . S
C2812 C2814 1.327 . S
C2812 H2837 0.950 . S
C2813 C2812 1.349 . S
C2813 C2829 1.349 . S
C2814 C2812 1.327 . S
C2814 C2833 1.429 . S
C2814 H2838 0.950 . S
C2815 C2832 1.574 . S
C2815 C2834 1.368 . S
C2815 H2839 0.949 . S
H2816 C2820 0.949 . S
C2817 C2818 1.349 . S
C2817 C2819 1.327 . S
C2817 H2840 0.950 . S
C2818 C2817 1.349 . S
C2818 C2830 1.349 . S
C2819 C2817 1.327 . S
C2819 C2835 1.429 . S
C2819 H2841 0.950 . S
C2820 H2816 0.949 . S
C2820 C2828 1.574 . S
C2820 C2836 1.368 . S
H2821 C2829 0.950 . S
H2822 C2827 0.950 . S
H2823 C2828 0.949 . S
H2824 C2830 0.950 . S
H2825 C2831 0.950 . S
H2826 C2832 0.949 . S
C2827 H2822 0.950 . S
C2827 C2829 1.327 . S
C2827 C2833 1.429 . S
C2828 C2820 1.574 . S
C2828 H2823 0.949 . S
C2828 C2834 1.368 . S
C2829 C2813 1.349 . S
C2829 H2821 0.950 . S
C2829 C2827 1.327 . S
C2830 C2818 1.349 . S
C2830 H2824 0.950 . S
C2830 C2831 1.327 . S
C2831 H2825 0.950 . S
C2831 C2830 1.327 . S
C2831 C2835 1.429 . S
C2832 C2815 1.574 . S
C2832 H2826 0.949 . S
C2832 C2836 1.368 . S
C2833 C2814 1.429 . S
C2833 C2827 1.429 . S
C2833 C2834 1.523 . S
C2834 C2815 1.368 . S
C2834 C2828 1.368 . S
C2834 C2833 1.523 . S
C2835 C2819 1.429 . S
C2835 C2831 1.429 . S
C2835 C2836 1.523 . S
C2836 C2820 1.368 . S
C2836 C2832 1.368 . S
C2836 C2835 1.523 . S
H2837 C2812 0.950 . S
H2838 C2814 0.950 . S
H2839 C2815 0.949 . S
H2840 C2817 0.950 . S
H2841 C2819 0.950 . S
C2842 C2843 1.349 . S
C2842 C2844 1.327 . S
C2842 H2867 0.950 . S
C2843 C2842 1.349 . S
C2843 C2859 1.349 . S
C2844 C2842 1.327 . S
C2844 C2863 1.429 . S
C2844 H2868 0.950 . S
C2845 C2862 1.574 . S
C2845 C2864 1.368 . S
C2845 H2869 0.949 . S
H2846 C2850 0.949 . S
C2847 C2848 1.349 . S
C2847 C2849 1.327 . S
C2847 H2870 0.950 . S
C2848 C2847 1.349 . S
C2848 C2860 1.349 . S
C2849 C2847 1.327 . S
C2849 C2865 1.429 . S
C2849 H2871 0.950 . S
C2850 H2846 0.949 . S
C2850 C2858 1.574 . S
C2850 C2866 1.368 . S
H2851 C2859 0.950 . S
H2852 C2857 0.950 . S
H2853 C2858 0.949 . S
H2854 C2860 0.950 . S
H2855 C2861 0.950 . S
H2856 C2862 0.949 . S
C2857 H2852 0.950 . S
C2857 C2859 1.327 . S
C2857 C2863 1.429 . S
C2858 C2850 1.574 . S
C2858 H2853 0.949 . S
C2858 C2864 1.368 . S
C2859 C2843 1.349 . S
C2859 H2851 0.950 . S
C2859 C2857 1.327 . S
C2860 C2848 1.349 . S
C2860 H2854 0.950 . S
C2860 C2861 1.327 . S
C2861 H2855 0.950 . S
C2861 C2860 1.327 . S
C2861 C2865 1.429 . S
C2862 C2845 1.574 . S
C2862 H2856 0.949 . S
C2862 C2866 1.368 . S
C2863 C2844 1.429 . S
C2863 C2857 1.429 . S
C2863 C2864 1.523 . S
C2864 C2845 1.368 . S
C2864 C2858 1.368 . S
C2864 C2863 1.523 . S
C2865 C2849 1.429 . S
C2865 C2861 1.429 . S
C2865 C2866 1.523 . S
C2866 C2850 1.368 . S
C2866 C2862 1.368 . S
C2866 C2865 1.523 . S
H2867 C2842 0.950 . S
H2868 C2844 0.950 . S
H2869 C2845 0.949 . S
H2870 C2847 0.950 . S
H2871 C2849 0.950 . S
C2872 C2873 1.349 . S
C2872 C2874 1.327 . S
C2872 H2897 0.950 . S
C2873 C2872 1.349 . S
C2873 C2889 1.349 . S
C2874 C2872 1.327 . S
C2874 C2893 1.429 . S
C2874 H2898 0.950 . S
C2875 C2892 1.574 . S
C2875 C2894 1.368 . S
C2875 H2899 0.949 . S
H2876 C2880 0.949 . S
C2877 C2878 1.349 . S
C2877 C2879 1.327 . S
C2877 H2900 0.950 . S
C2878 C2877 1.349 . S
C2878 C2890 1.349 . S
C2879 C2877 1.327 . S
C2879 C2895 1.429 . S
C2879 H2901 0.950 . S
C2880 H2876 0.949 . S
C2880 C2888 1.574 . S
C2880 C2896 1.368 . S
H2881 C2889 0.950 . S
H2882 C2887 0.950 . S
H2883 C2888 0.949 . S
H2884 C2890 0.950 . S
H2885 C2891 0.950 . S
H2886 C2892 0.949 . S
C2887 H2882 0.950 . S
C2887 C2889 1.327 . S
C2887 C2893 1.429 . S
C2888 C2880 1.574 . S
C2888 H2883 0.949 . S
C2888 C2894 1.368 . S
C2889 C2873 1.349 . S
C2889 H2881 0.950 . S
C2889 C2887 1.327 . S
C2890 C2878 1.349 . S
C2890 H2884 0.950 . S
C2890 C2891 1.327 . S
C2891 H2885 0.950 . S
C2891 C2890 1.327 . S
C2891 C2895 1.429 . S
C2892 C2875 1.574 . S
C2892 H2886 0.949 . S
C2892 C2896 1.368 . S
C2893 C2874 1.429 . S
C2893 C2887 1.429 . S
C2893 C2894 1.523 . S
C2894 C2875 1.368 . S
C2894 C2888 1.368 . S
C2894 C2893 1.523 . S
C2895 C2879 1.429 . S
C2895 C2891 1.429 . S
C2895 C2896 1.523 . S
C2896 C2880 1.368 . S
C2896 C2892 1.368 . S
C2896 C2895 1.523 . S
H2897 C2872 0.950 . S
H2898 C2874 0.950 . S
H2899 C2875 0.949 . S
H2900 C2877 0.950 . S
H2901 C2879 0.950 . S
C2902 C2903 1.349 . S
C2902 C2904 1.327 . S
C2902 H2927 0.950 . S
C2903 C2902 1.349 . S
C2903 C2919 1.349 . S
C2904 C2902 1.327 . S
C2904 C2923 1.429 . S
C2904 H2928 0.950 . S
C2905 C2922 1.574 . S
C2905 C2924 1.368 . S
C2905 H2929 0.949 . S
H2906 C2910 0.949 . S
C2907 C2908 1.349 . S
C2907 C2909 1.327 . S
C2907 H2930 0.950 . S
C2908 C2907 1.349 . S
C2908 C2920 1.349 . S
C2909 C2907 1.327 . S
C2909 C2925 1.429 . S
C2909 H2931 0.950 . S
C2910 H2906 0.949 . S
C2910 C2918 1.574 . S
C2910 C2926 1.368 . S
H2911 C2919 0.950 . S
H2912 C2917 0.950 . S
H2913 C2918 0.949 . S
H2914 C2920 0.950 . S
H2915 C2921 0.950 . S
H2916 C2922 0.949 . S
C2917 H2912 0.950 . S
C2917 C2919 1.327 . S
C2917 C2923 1.429 . S
C2918 C2910 1.574 . S
C2918 H2913 0.949 . S
C2918 C2924 1.368 . S
C2919 C2903 1.349 . S
C2919 H2911 0.950 . S
C2919 C2917 1.327 . S
C2920 C2908 1.349 . S
C2920 H2914 0.950 . S
C2920 C2921 1.327 . S
C2921 H2915 0.950 . S
C2921 C2920 1.327 . S
C2921 C2925 1.429 . S
C2922 C2905 1.574 . S
C2922 H2916 0.949 . S
C2922 C2926 1.368 . S
C2923 C2904 1.429 . S
C2923 C2917 1.429 . S
C2923 C2924 1.523 . S
C2924 C2905 1.368 . S
C2924 C2918 1.368 . S
C2924 C2923 1.523 . S
C2925 C2909 1.429 . S
C2925 C2921 1.429 . S
C2925 C2926 1.523 . S
C2926 C2910 1.368 . S
C2926 C2922 1.368 . S
C2926 C2925 1.523 . S
H2927 C2902 0.950 . S
H2928 C2904 0.950 . S
H2929 C2905 0.949 . S
H2930 C2907 0.950 . S
H2931 C2909 0.950 . S
C2932 C2933 1.349 . S
C2932 C2934 1.327 . S
C2932 H2957 0.950 . S
C2933 C2932 1.349 . S
C2933 C2949 1.349 . S
C2934 C2932 1.327 . S
C2934 C2953 1.429 . S
C2934 H2958 0.950 . S
C2935 C2952 1.574 . S
C2935 C2954 1.368 . S
C2935 H2959 0.949 . S
H2936 C2940 0.949 . S
C2937 C2938 1.349 . S
C2937 C2939 1.327 . S
C2937 H2960 0.950 . S
C2938 C2937 1.349 . S
C2938 C2950 1.349 . S
C2939 C2937 1.327 . S
C2939 C2955 1.429 . S
C2939 H2961 0.950 . S
C2940 H2936 0.949 . S
C2940 C2948 1.574 . S
C2940 C2956 1.368 . S
H2941 C2949 0.950 . S
H2942 C2947 0.950 . S
H2943 C2948 0.949 . S
H2944 C2950 0.950 . S
H2945 C2951 0.950 . S
H2946 C2952 0.949 . S
C2947 H2942 0.950 . S
C2947 C2949 1.327 . S
C2947 C2953 1.429 . S
C2948 C2940 1.574 . S
C2948 H2943 0.949 . S
C2948 C2954 1.368 . S
C2949 C2933 1.349 . S
C2949 H2941 0.950 . S
C2949 C2947 1.327 . S
C2950 C2938 1.349 . S
C2950 H2944 0.950 . S
C2950 C2951 1.327 . S
C2951 H2945 0.950 . S
C2951 C2950 1.327 . S
C2951 C2955 1.429 . S
C2952 C2935 1.574 . S
C2952 H2946 0.949 . S
C2952 C2956 1.368 . S
C2953 C2934 1.429 . S
C2953 C2947 1.429 . S
C2953 C2954 1.523 . S
C2954 C2935 1.368 . S
C2954 C2948 1.368 . S
C2954 C2953 1.523 . S
C2955 C2939 1.429 . S
C2955 C2951 1.429 . S
C2955 C2956 1.523 . S
C2956 C2940 1.368 . S
C2956 C2952 1.368 . S
C2956 C2955 1.523 . S
H2957 C2932 0.950 . S
H2958 C2934 0.950 . S
H2959 C2935 0.949 . S
H2960 C2937 0.950 . S
H2961 C2939 0.950 . S
C2962 C2963 1.348 . S
C2962 C2964 1.327 . S
C2962 H2987 0.950 . S
C2963 C2962 1.348 . S
C2963 C2979 1.350 1_554 S
C2964 C2962 1.327 . S
C2964 C2983 1.418 1_554 S
C2964 H2988 0.950 . S
C2965 C2982 1.574 . S
C2965 C2984 1.391 . S
C2965 H2989 0.949 . S
H2966 C2970 0.949 . S
C2967 C2968 1.349 . S
C2967 C2969 1.327 . S
C2967 H2990 0.937 1_565 S
C2968 C2967 1.349 . S
C2968 C2980 1.349 1_556 S
C2969 C2967 1.327 . S
C2969 C2985 1.429 . S
C2969 H2991 0.950 . S
C2970 H2966 0.949 . S
C2970 C2978 1.574 . S
C2970 C2986 1.325 1_554 S
H2971 C2979 0.950 . S
H2972 C2977 0.950 . S
H2973 C2978 0.949 . S
H2974 C2980 0.950 . S
H2975 C2981 0.950 . S
H2976 C2982 0.949 . S
C2977 H2972 0.950 . S
C2977 C2979 1.327 . S
C2977 C2983 1.436 . S
C2978 C2970 1.574 . S
C2978 H2973 0.949 . S
C2978 C2984 1.350 1_554 S
C2979 C2963 1.350 1_556 S
C2979 H2971 0.950 . S
C2979 C2977 1.327 . S
C2980 C2968 1.349 1_554 S
C2980 H2974 0.950 . S
C2980 C2981 1.327 . S
C2981 H2975 0.950 . S
C2981 C2980 1.327 . S
C2981 C2985 1.429 1_554 S
C2982 C2965 1.574 . S
C2982 H2976 0.949 . S
C2982 C2986 1.404 . S
C2983 C2964 1.418 1_556 S
C2983 C2977 1.436 . S
C2983 C2984 1.520 . S
C2984 C2965 1.391 . S
C2984 C2978 1.350 1_556 S
C2984 C2983 1.520 . S
C2985 C2969 1.429 . S
C2985 C2981 1.429 1_556 S
C2985 C2986 1.535 . S
C2986 C2970 1.325 1_556 S
C2986 C2982 1.404 . S
C2986 C2985 1.535 . S
H2987 C2962 0.950 . S
H2988 C2964 0.950 . S
H2989 C2965 0.949 . S
H2990 C2967 0.937 1_545 S
H2991 C2969 0.950 . S
C2992 C2993 1.349 . S
C2992 C2994 1.327 . S
C2992 H3017 0.950 . S
C2993 C2992 1.349 . S
C2993 C3009 1.349 . S
C2994 C2992 1.327 . S
C2994 C3013 1.429 . S
C2994 H3018 0.950 . S
C2995 C3012 1.574 . S
C2995 C3014 1.368 . S
C2995 H3019 0.949 . S
H2996 C3000 0.949 . S
C2997 C2998 1.349 . S
C2997 C2999 1.327 . S
C2997 H3020 0.950 . S
C2998 C2997 1.349 . S
C2998 C3010 1.349 . S
C2999 C2997 1.327 . S
C2999 C3015 1.429 . S
C2999 H3021 0.950 . S
C3000 H2996 0.949 . S
C3000 C3008 1.574 . S
C3000 C3016 1.368 . S
H3001 C3009 0.950 . S
H3002 C3007 0.950 . S
H3003 C3008 0.949 . S
H3004 C3010 0.950 . S
H3005 C3011 0.950 . S
H3006 C3012 0.949 . S
C3007 H3002 0.950 . S
C3007 C3009 1.327 . S
C3007 C3013 1.429 . S
C3008 C3000 1.574 . S
C3008 H3003 0.949 . S
C3008 C3014 1.368 . S
C3009 C2993 1.349 . S
C3009 H3001 0.950 . S
C3009 C3007 1.327 . S
C3010 C2998 1.349 . S
C3010 H3004 0.950 . S
C3010 C3011 1.327 . S
C3011 H3005 0.950 . S
C3011 C3010 1.327 . S
C3011 C3015 1.429 . S
C3012 C2995 1.574 . S
C3012 H3006 0.949 . S
C3012 C3016 1.368 . S
C3013 C2994 1.429 . S
C3013 C3007 1.429 . S
C3013 C3014 1.523 . S
C3014 C2995 1.368 . S
C3014 C3008 1.368 . S
C3014 C3013 1.523 . S
C3015 C2999 1.429 . S
C3015 C3011 1.429 . S
C3015 C3016 1.523 . S
C3016 C3000 1.368 . S
C3016 C3012 1.368 . S
C3016 C3015 1.523 . S
H3017 C2992 0.950 . S
H3018 C2994 0.950 . S
H3019 C2995 0.949 . S
H3020 C2997 0.950 . S
H3021 C2999 0.950 . S
C3022 C3023 1.349 . S
C3022 C3024 1.327 . S
C3022 H3047 0.950 . S
C3023 C3022 1.349 . S
C3023 C3039 1.349 . S
C3024 C3022 1.327 . S
C3024 C3043 1.429 . S
C3024 H3048 0.950 . S
C3025 C3042 1.574 . S
C3025 C3044 1.368 . S
C3025 H3049 0.949 . S
H3026 C3030 0.949 . S
C3027 C3028 1.349 . S
C3027 C3029 1.327 . S
C3027 H3050 0.950 . S
C3028 C3027 1.349 . S
C3028 C3040 1.349 . S
C3029 C3027 1.327 . S
C3029 C3045 1.429 . S
C3029 H3051 0.950 . S
C3030 H3026 0.949 . S
C3030 C3038 1.574 . S
C3030 C3046 1.368 . S
H3031 C3039 0.950 . S
H3032 C3037 0.950 . S
H3033 C3038 0.949 . S
H3034 C3040 0.950 . S
H3035 C3041 0.950 . S
H3036 C3042 0.949 . S
C3037 H3032 0.950 . S
C3037 C3039 1.327 . S
C3037 C3043 1.429 . S
C3038 C3030 1.574 . S
C3038 H3033 0.949 . S
C3038 C3044 1.368 . S
C3039 C3023 1.349 . S
C3039 H3031 0.950 . S
C3039 C3037 1.327 . S
C3040 C3028 1.349 . S
C3040 H3034 0.950 . S
C3040 C3041 1.327 . S
C3041 H3035 0.950 . S
C3041 C3040 1.327 . S
C3041 C3045 1.429 . S
C3042 C3025 1.574 . S
C3042 H3036 0.949 . S
C3042 C3046 1.368 . S
C3043 C3024 1.429 . S
C3043 C3037 1.429 . S
C3043 C3044 1.523 . S
C3044 C3025 1.368 . S
C3044 C3038 1.368 . S
C3044 C3043 1.523 . S
C3045 C3029 1.429 . S
C3045 C3041 1.429 . S
C3045 C3046 1.523 . S
C3046 C3030 1.368 . S
C3046 C3042 1.368 . S
C3046 C3045 1.523 . S
H3047 C3022 0.950 . S
H3048 C3024 0.950 . S
H3049 C3025 0.949 . S
H3050 C3027 0.950 . S
H3051 C3029 0.950 . S
C3052 C3053 1.349 . S
C3052 C3054 1.327 . S
C3052 H3077 0.950 . S
C3053 C3052 1.349 . S
C3053 C3069 1.349 . S
C3054 C3052 1.327 . S
C3054 C3073 1.429 . S
C3054 H3078 0.950 . S
C3055 C3072 1.574 . S
C3055 C3074 1.368 . S
C3055 H3079 0.949 . S
H3056 C3060 0.949 . S
C3057 C3058 1.349 . S
C3057 C3059 1.327 . S
C3057 H3080 0.950 . S
C3058 C3057 1.349 . S
C3058 C3070 1.349 . S
C3059 C3057 1.327 . S
C3059 C3075 1.429 . S
C3059 H3081 0.950 . S
C3060 H3056 0.949 . S
C3060 C3068 1.574 . S
C3060 C3076 1.368 . S
H3061 C3069 0.950 . S
H3062 C3067 0.950 . S
H3063 C3068 0.949 . S
H3064 C3070 0.950 . S
H3065 C3071 0.950 . S
H3066 C3072 0.949 . S
C3067 H3062 0.950 . S
C3067 C3069 1.327 . S
C3067 C3073 1.429 . S
C3068 C3060 1.574 . S
C3068 H3063 0.949 . S
C3068 C3074 1.368 . S
C3069 C3053 1.349 . S
C3069 H3061 0.950 . S
C3069 C3067 1.327 . S
C3070 C3058 1.349 . S
C3070 H3064 0.950 . S
C3070 C3071 1.327 . S
C3071 H3065 0.950 . S
C3071 C3070 1.327 . S
C3071 C3075 1.429 . S
C3072 C3055 1.574 . S
C3072 H3066 0.949 . S
C3072 C3076 1.368 . S
C3073 C3054 1.429 . S
C3073 C3067 1.429 . S
C3073 C3074 1.523 . S
C3074 C3055 1.368 . S
C3074 C3068 1.368 . S
C3074 C3073 1.523 . S
C3075 C3059 1.429 . S
C3075 C3071 1.429 . S
C3075 C3076 1.523 . S
C3076 C3060 1.368 . S
C3076 C3072 1.368 . S
C3076 C3075 1.523 . S
H3077 C3052 0.950 . S
H3078 C3054 0.950 . S
H3079 C3055 0.949 . S
H3080 C3057 0.950 . S
H3081 C3059 0.950 . S
C3082 C3083 1.349 . S
C3082 C3084 1.327 . S
C3082 H3107 0.950 . S
C3083 C3082 1.349 . S
C3083 C3099 1.349 . S
C3084 C3082 1.327 . S
C3084 C3103 1.429 . S
C3084 H3108 0.950 . S
C3085 C3102 1.574 . S
C3085 C3104 1.368 . S
C3085 H3109 0.949 . S
H3086 C3090 0.949 . S
C3087 C3088 1.349 . S
C3087 C3089 1.327 . S
C3087 H3110 0.950 . S
C3088 C3087 1.349 . S
C3088 C3100 1.349 . S
C3089 C3087 1.327 . S
C3089 C3105 1.429 . S
C3089 H3111 0.950 . S
C3090 H3086 0.949 . S
C3090 C3098 1.574 . S
C3090 C3106 1.368 . S
H3091 C3099 0.950 . S
H3092 C3097 0.950 . S
H3093 C3098 0.949 . S
H3094 C3100 0.950 . S
H3095 C3101 0.950 . S
H3096 C3102 0.949 . S
C3097 H3092 0.950 . S
C3097 C3099 1.327 . S
C3097 C3103 1.429 . S
C3098 C3090 1.574 . S
C3098 H3093 0.949 . S
C3098 C3104 1.368 . S
C3099 C3083 1.349 . S
C3099 H3091 0.950 . S
C3099 C3097 1.327 . S
C3100 C3088 1.349 . S
C3100 H3094 0.950 . S
C3100 C3101 1.327 . S
C3101 H3095 0.950 . S
C3101 C3100 1.327 . S
C3101 C3105 1.429 . S
C3102 C3085 1.574 . S
C3102 H3096 0.949 . S
C3102 C3106 1.368 . S
C3103 C3084 1.429 . S
C3103 C3097 1.429 . S
C3103 C3104 1.523 . S
C3104 C3085 1.368 . S
C3104 C3098 1.368 . S
C3104 C3103 1.523 . S
C3105 C3089 1.429 . S
C3105 C3101 1.429 . S
C3105 C3106 1.523 . S
C3106 C3090 1.368 . S
C3106 C3102 1.368 . S
C3106 C3105 1.523 . S
H3107 C3082 0.950 . S
H3108 C3084 0.950 . S
H3109 C3085 0.949 . S
H3110 C3087 0.950 . S
H3111 C3089 0.950 . S
C3112 C3113 1.349 . S
C3112 C3114 1.327 . S
C3112 H3137 0.950 . S
C3113 C3112 1.349 . S
C3113 C3129 1.349 . S
C3114 C3112 1.327 . S
C3114 C3133 1.429 . S
C3114 H3138 0.950 . S
C3115 C3132 1.574 . S
C3115 C3134 1.368 . S
C3115 H3139 0.949 . S
H3116 C3120 0.949 . S
C3117 C3118 1.349 . S
C3117 C3119 1.327 . S
C3117 H3140 0.950 . S
C3118 C3117 1.349 . S
C3118 C3130 1.349 . S
C3119 C3117 1.327 . S
C3119 C3135 1.429 . S
C3119 H3141 0.950 . S
C3120 H3116 0.949 . S
C3120 C3128 1.574 . S
C3120 C3136 1.368 . S
H3121 C3129 0.950 . S
H3122 C3127 0.950 . S
H3123 C3128 0.949 . S
H3124 C3130 0.950 . S
H3125 C3131 0.950 . S
H3126 C3132 0.949 . S
C3127 H3122 0.950 . S
C3127 C3129 1.327 . S
C3127 C3133 1.429 . S
C3128 C3120 1.574 . S
C3128 H3123 0.949 . S
C3128 C3134 1.368 . S
C3129 C3113 1.349 . S
C3129 H3121 0.950 . S
C3129 C3127 1.327 . S
C3130 C3118 1.349 . S
C3130 H3124 0.950 . S
C3130 C3131 1.327 . S
C3131 H3125 0.950 . S
C3131 C3130 1.327 . S
C3131 C3135 1.429 . S
C3132 C3115 1.574 . S
C3132 H3126 0.949 . S
C3132 C3136 1.368 . S
C3133 C3114 1.429 . S
C3133 C3127 1.429 . S
C3133 C3134 1.523 . S
C3134 C3115 1.368 . S
C3134 C3128 1.368 . S
C3134 C3133 1.523 . S
C3135 C3119 1.429 . S
C3135 C3131 1.429 . S
C3135 C3136 1.523 . S
C3136 C3120 1.368 . S
C3136 C3132 1.368 . S
C3136 C3135 1.523 . S
H3137 C3112 0.950 . S
H3138 C3114 0.950 . S
H3139 C3115 0.949 . S
H3140 C3117 0.950 . S
H3141 C3119 0.950 . S
C3142 C3143 1.349 . S
C3142 C3144 1.327 . S
C3142 H3167 0.950 . S
C3143 C3142 1.349 . S
C3143 C3159 1.349 . S
C3144 C3142 1.327 . S
C3144 C3163 1.429 . S
C3144 H3168 0.950 . S
C3145 C3162 1.574 . S
C3145 C3164 1.368 . S
C3145 H3169 0.949 . S
H3146 C3150 0.949 . S
C3147 C3148 1.349 . S
C3147 C3149 1.327 . S
C3147 H3170 0.950 . S
C3148 C3147 1.349 . S
C3148 C3160 1.349 . S
C3149 C3147 1.327 . S
C3149 C3165 1.429 . S
C3149 H3171 0.950 . S
C3150 H3146 0.949 . S
C3150 C3158 1.574 . S
C3150 C3166 1.368 . S
H3151 C3159 0.950 . S
H3152 C3157 0.950 . S
H3153 C3158 0.949 . S
H3154 C3160 0.950 . S
H3155 C3161 0.950 . S
H3156 C3162 0.949 . S
C3157 H3152 0.950 . S
C3157 C3159 1.327 . S
C3157 C3163 1.429 . S
C3158 C3150 1.574 . S
C3158 H3153 0.949 . S
C3158 C3164 1.368 . S
C3159 C3143 1.349 . S
C3159 H3151 0.950 . S
C3159 C3157 1.327 . S
C3160 C3148 1.349 . S
C3160 H3154 0.950 . S
C3160 C3161 1.327 . S
C3161 H3155 0.950 . S
C3161 C3160 1.327 . S
C3161 C3165 1.429 . S
C3162 C3145 1.574 . S
C3162 H3156 0.949 . S
C3162 C3166 1.368 . S
C3163 C3144 1.429 . S
C3163 C3157 1.429 . S
C3163 C3164 1.523 . S
C3164 C3145 1.368 . S
C3164 C3158 1.368 . S
C3164 C3163 1.523 . S
C3165 C3149 1.429 . S
C3165 C3161 1.429 . S
C3165 C3166 1.523 . S
C3166 C3150 1.368 . S
C3166 C3162 1.368 . S
C3166 C3165 1.523 . S
H3167 C3142 0.950 . S
H3168 C3144 0.950 . S
H3169 C3145 0.949 . S
H3170 C3147 0.950 . S
H3171 C3149 0.950 . S
C3172 C3173 1.349 . S
C3172 C3174 1.327 . S
C3172 H3197 0.950 . S
C3173 C3172 1.349 . S
C3173 C3189 1.349 . S
C3174 C3172 1.327 . S
C3174 C3193 1.429 . S
C3174 H3198 0.950 . S
C3175 C3192 1.574 . S
C3175 C3194 1.368 . S
C3175 H3199 0.949 . S
H3176 C3180 0.949 . S
C3177 C3178 1.349 . S
C3177 C3179 1.327 . S
C3177 H3200 0.950 . S
C3178 C3177 1.349 . S
C3178 C3190 1.349 . S
C3179 C3177 1.327 . S
C3179 C3195 1.429 . S
C3179 H3201 0.950 . S
C3180 H3176 0.949 . S
C3180 C3188 1.574 . S
C3180 C3196 1.368 . S
H3181 C3189 0.950 . S
H3182 C3187 0.950 . S
H3183 C3188 0.949 . S
H3184 C3190 0.950 . S
H3185 C3191 0.950 . S
H3186 C3192 0.949 . S
C3187 H3182 0.950 . S
C3187 C3189 1.327 . S
C3187 C3193 1.429 . S
C3188 C3180 1.574 . S
C3188 H3183 0.949 . S
C3188 C3194 1.368 . S
C3189 C3173 1.349 . S
C3189 H3181 0.950 . S
C3189 C3187 1.327 . S
C3190 C3178 1.349 . S
C3190 H3184 0.950 . S
C3190 C3191 1.327 . S
C3191 H3185 0.950 . S
C3191 C3190 1.327 . S
C3191 C3195 1.429 . S
C3192 C3175 1.574 . S
C3192 H3186 0.949 . S
C3192 C3196 1.368 . S
C3193 C3174 1.429 . S
C3193 C3187 1.429 . S
C3193 C3194 1.523 . S
C3194 C3175 1.368 . S
C3194 C3188 1.368 . S
C3194 C3193 1.523 . S
C3195 C3179 1.429 . S
C3195 C3191 1.429 . S
C3195 C3196 1.523 . S
C3196 C3180 1.368 . S
C3196 C3192 1.368 . S
C3196 C3195 1.523 . S
H3197 C3172 0.950 . S
H3198 C3174 0.950 . S
H3199 C3175 0.949 . S
H3200 C3177 0.950 . S
H3201 C3179 0.950 . S
C3202 C3203 1.349 . S
C3202 C3204 1.327 . S
C3202 H3227 0.950 . S
C3203 C3202 1.349 . S
C3203 C3219 1.349 . S
C3204 C3202 1.327 . S
C3204 C3223 1.429 . S
C3204 H3228 0.950 . S
C3205 C3222 1.574 . S
C3205 C3224 1.368 . S
C3205 H3229 0.949 . S
H3206 C3210 0.949 . S
C3207 C3208 1.349 . S
C3207 C3209 1.327 . S
C3207 H3230 0.950 . S
C3208 C3207 1.349 . S
C3208 C3220 1.349 . S
C3209 C3207 1.327 . S
C3209 C3225 1.429 . S
C3209 H3231 0.950 . S
C3210 H3206 0.949 . S
C3210 C3218 1.574 . S
C3210 C3226 1.368 . S
H3211 C3219 0.950 . S
H3212 C3217 0.950 . S
H3213 C3218 0.949 . S
H3214 C3220 0.950 . S
H3215 C3221 0.950 . S
H3216 C3222 0.949 . S
C3217 H3212 0.950 . S
C3217 C3219 1.327 . S
C3217 C3223 1.429 . S
C3218 C3210 1.574 . S
C3218 H3213 0.949 . S
C3218 C3224 1.368 . S
C3219 C3203 1.349 . S
C3219 H3211 0.950 . S
C3219 C3217 1.327 . S
C3220 C3208 1.349 . S
C3220 H3214 0.950 . S
C3220 C3221 1.327 . S
C3221 H3215 0.950 . S
C3221 C3220 1.327 . S
C3221 C3225 1.429 . S
C3222 C3205 1.574 . S
C3222 H3216 0.949 . S
C3222 C3226 1.368 . S
C3223 C3204 1.429 . S
C3223 C3217 1.429 . S
C3223 C3224 1.523 . S
C3224 C3205 1.368 . S
C3224 C3218 1.368 . S
C3224 C3223 1.523 . S
C3225 C3209 1.429 . S
C3225 C3221 1.429 . S
C3225 C3226 1.523 . S
C3226 C3210 1.368 . S
C3226 C3222 1.368 . S
C3226 C3225 1.523 . S
H3227 C3202 0.950 . S
H3228 C3204 0.950 . S
H3229 C3205 0.949 . S
H3230 C3207 0.950 . S
H3231 C3209 0.950 . S
C3232 C3233 1.349 . S
C3232 C3234 1.327 . S
C3232 H3257 0.950 . S
C3233 C3232 1.349 . S
C3233 C3249 1.349 . S
C3234 C3232 1.327 . S
C3234 C3253 1.429 . S
C3234 H3258 0.950 . S
C3235 C3252 1.574 . S
C3235 C3254 1.368 . S
C3235 H3259 0.949 . S
H3236 C3240 0.949 . S
C3237 C3238 1.349 . S
C3237 C3239 1.327 . S
C3237 H3260 0.950 . S
C3238 C3237 1.349 . S
C3238 C3250 1.349 . S
C3239 C3237 1.327 . S
C3239 C3255 1.429 . S
C3239 H3261 0.950 . S
C3240 H3236 0.949 . S
C3240 C3248 1.574 . S
C3240 C3256 1.368 . S
H3241 C3249 0.950 . S
H3242 C3247 0.950 . S
H3243 C3248 0.949 . S
H3244 C3250 0.950 . S
H3245 C3251 0.950 . S
H3246 C3252 0.949 . S
C3247 H3242 0.950 . S
C3247 C3249 1.327 . S
C3247 C3253 1.429 . S
C3248 C3240 1.574 . S
C3248 H3243 0.949 . S
C3248 C3254 1.368 . S
C3249 C3233 1.349 . S
C3249 H3241 0.950 . S
C3249 C3247 1.327 . S
C3250 C3238 1.349 . S
C3250 H3244 0.950 . S
C3250 C3251 1.327 . S
C3251 H3245 0.950 . S
C3251 C3250 1.327 . S
C3251 C3255 1.429 . S
C3252 C3235 1.574 . S
C3252 H3246 0.949 . S
C3252 C3256 1.368 . S
C3253 C3234 1.429 . S
C3253 C3247 1.429 . S
C3253 C3254 1.523 . S
C3254 C3235 1.368 . S
C3254 C3248 1.368 . S
C3254 C3253 1.523 . S
C3255 C3239 1.429 . S
C3255 C3251 1.429 . S
C3255 C3256 1.523 . S
C3256 C3240 1.368 . S
C3256 C3252 1.368 . S
C3256 C3255 1.523 . S
H3257 C3232 0.950 . S
H3258 C3234 0.950 . S
H3259 C3235 0.949 . S
H3260 C3237 0.950 . S
H3261 C3239 0.950 . S
C3262 C3263 1.349 . S
C3262 C3264 1.327 . S
C3262 H3287 0.950 . S
C3263 C3262 1.349 . S
C3263 C3279 1.349 . S
C3264 C3262 1.327 . S
C3264 C3283 1.429 . S
C3264 H3288 0.950 . S
C3265 C3282 1.574 . S
C3265 C3284 1.368 . S
C3265 H3289 0.949 . S
H3266 C3270 0.949 . S
C3267 C3268 1.349 . S
C3267 C3269 1.327 . S
C3267 H3290 0.950 . S
C3268 C3267 1.349 . S
C3268 C3280 1.349 . S
C3269 C3267 1.327 . S
C3269 C3285 1.429 . S
C3269 H3291 0.950 . S
C3270 H3266 0.949 . S
C3270 C3278 1.574 . S
C3270 C3286 1.368 . S
H3271 C3279 0.950 . S
H3272 C3277 0.950 . S
H3273 C3278 0.949 . S
H3274 C3280 0.950 . S
H3275 C3281 0.950 . S
H3276 C3282 0.949 . S
C3277 H3272 0.950 . S
C3277 C3279 1.327 . S
C3277 C3283 1.429 . S
C3278 C3270 1.574 . S
C3278 H3273 0.949 . S
C3278 C3284 1.368 . S
C3279 C3263 1.349 . S
C3279 H3271 0.950 . S
C3279 C3277 1.327 . S
C3280 C3268 1.349 . S
C3280 H3274 0.950 . S
C3280 C3281 1.327 . S
C3281 H3275 0.950 . S
C3281 C3280 1.327 . S
C3281 C3285 1.429 . S
C3282 C3265 1.574 . S
C3282 H3276 0.949 . S
C3282 C3286 1.368 . S
C3283 C3264 1.429 . S
C3283 C3277 1.429 . S
C3283 C3284 1.523 . S
C3284 C3265 1.368 . S
C3284 C3278 1.368 . S
C3284 C3283 1.523 . S
C3285 C3269 1.429 . S
C3285 C3281 1.429 . S
C3285 C3286 1.523 . S
C3286 C3270 1.368 . S
C3286 C3282 1.368 . S
C3286 C3285 1.523 . S
H3287 C3262 0.950 . S
H3288 C3264 0.950 . S
H3289 C3265 0.949 . S
H3290 C3267 0.950 . S
H3291 C3269 0.950 . S
C3292 C3293 1.349 . S
C3292 C3294 1.327 . S
C3292 H3317 0.950 . S
C3293 C3292 1.349 . S
C3293 C3309 1.349 1_455 S
C3294 C3292 1.327 . S
C3294 C3313 1.429 . S
C3294 H3318 0.950 . S
C3295 C3312 1.574 . S
C3295 C3314 1.368 . S
C3295 H3319 0.949 1_455 S
H3296 C3300 0.949 . S
C3297 C3298 1.349 . S
C3297 C3299 1.327 . S
C3297 H3320 0.950 . S
C3298 C3297 1.349 . S
C3298 C3310 1.349 . S
C3299 C3297 1.327 . S
C3299 C3315 1.429 . S
C3299 H3321 0.918 1_455 S
C3300 H3296 0.949 . S
C3300 C3308 1.574 . S
C3300 C3316 1.368 . S
H3301 C3309 0.950 . S
H3302 C3307 0.955 . S
H3303 C3308 0.949 . S
H3304 C3310 0.950 . S
H3305 C3311 0.950 . S
H3306 C3312 0.949 1_655 S
C3307 H3302 0.955 . S
C3307 C3309 1.326 . S
C3307 C3313 1.425 1_655 S
C3308 C3300 1.574 . S
C3308 H3303 0.949 . S
C3308 C3314 1.368 . S
C3309 C3293 1.349 1_655 S
C3309 H3301 0.950 . S
C3309 C3307 1.326 . S
C3310 C3298 1.349 . S
C3310 H3304 0.950 . S
C3310 C3311 1.327 . S
C3311 H3305 0.950 . S
C3311 C3310 1.327 . S
C3311 C3315 1.429 . S
C3312 C3295 1.574 . S
C3312 H3306 0.949 1_455 S
C3312 C3316 1.368 . S
C3313 C3294 1.429 . S
C3313 C3307 1.425 1_455 S
C3313 C3314 1.523 . S
C3314 C3295 1.368 . S
C3314 C3308 1.368 . S
C3314 C3313 1.523 . S
C3315 C3299 1.429 . S
C3315 C3311 1.429 . S
C3315 C3316 1.523 . S
C3316 C3300 1.368 . S
C3316 C3312 1.368 . S
C3316 C3315 1.523 . S
H3317 C3292 0.950 . S
H3318 C3294 0.950 . S
H3319 C3295 0.949 1_655 S
H3320 C3297 0.950 . S
H3321 C3299 0.918 1_655 S
C3322 C3323 1.349 . S
C3322 C3324 1.327 . S
C3322 H3347 0.950 . S
C3323 C3322 1.349 . S
C3323 C3339 1.349 . S
C3324 C3322 1.327 . S
C3324 C3343 1.429 . S
C3324 H3348 0.950 . S
C3325 C3342 1.574 . S
C3325 C3344 1.368 . S
C3325 H3349 0.949 . S
H3326 C3330 0.949 . S
C3327 C3328 1.349 . S
C3327 C3329 1.327 . S
C3327 H3350 0.950 . S
C3328 C3327 1.349 . S
C3328 C3340 1.349 . S
C3329 C3327 1.327 . S
C3329 C3345 1.429 . S
C3329 H3351 0.950 . S
C3330 H3326 0.949 . S
C3330 C3338 1.574 . S
C3330 C3346 1.368 . S
H3331 C3339 0.950 . S
H3332 C3337 0.950 . S
H3333 C3338 0.949 . S
H3334 C3340 0.950 . S
H3335 C3341 0.950 . S
H3336 C3342 0.949 . S
C3337 H3332 0.950 . S
C3337 C3339 1.327 . S
C3337 C3343 1.429 . S
C3338 C3330 1.574 . S
C3338 H3333 0.949 . S
C3338 C3344 1.368 . S
C3339 C3323 1.349 . S
C3339 H3331 0.950 . S
C3339 C3337 1.327 . S
C3340 C3328 1.349 . S
C3340 H3334 0.950 . S
C3340 C3341 1.327 . S
C3341 H3335 0.950 . S
C3341 C3340 1.327 . S
C3341 C3345 1.429 . S
C3342 C3325 1.574 . S
C3342 H3336 0.949 . S
C3342 C3346 1.368 . S
C3343 C3324 1.429 . S
C3343 C3337 1.429 . S
C3343 C3344 1.523 . S
C3344 C3325 1.368 . S
C3344 C3338 1.368 . S
C3344 C3343 1.523 . S
C3345 C3329 1.429 . S
C3345 C3341 1.429 . S
C3345 C3346 1.523 . S
C3346 C3330 1.368 . S
C3346 C3342 1.368 . S
C3346 C3345 1.523 . S
H3347 C3322 0.950 . S
H3348 C3324 0.950 . S
H3349 C3325 0.949 . S
H3350 C3327 0.950 . S
H3351 C3329 0.950 . S
C3352 C3353 1.349 . S
C3352 C3354 1.327 . S
C3352 H3377 0.950 . S
C3353 C3352 1.349 . S
C3353 C3369 1.349 . S
C3354 C3352 1.327 . S
C3354 C3373 1.429 . S
C3354 H3378 0.950 . S
C3355 C3372 1.574 . S
C3355 C3374 1.368 . S
C3355 H3379 0.949 . S
H3356 C3360 0.949 . S
C3357 C3358 1.349 . S
C3357 C3359 1.327 . S
C3357 H3380 0.950 . S
C3358 C3357 1.349 . S
C3358 C3370 1.349 . S
C3359 C3357 1.327 . S
C3359 C3375 1.429 . S
C3359 H3381 0.950 . S
C3360 H3356 0.949 . S
C3360 C3368 1.574 . S
C3360 C3376 1.368 . S
H3361 C3369 0.950 . S
H3362 C3367 0.950 . S
H3363 C3368 0.949 . S
H3364 C3370 0.950 . S
H3365 C3371 0.950 . S
H3366 C3372 0.949 . S
C3367 H3362 0.950 . S
C3367 C3369 1.327 . S
C3367 C3373 1.429 . S
C3368 C3360 1.574 . S
C3368 H3363 0.949 . S
C3368 C3374 1.368 . S
C3369 C3353 1.349 . S
C3369 H3361 0.950 . S
C3369 C3367 1.327 . S
C3370 C3358 1.349 . S
C3370 H3364 0.950 . S
C3370 C3371 1.327 . S
C3371 H3365 0.950 . S
C3371 C3370 1.327 . S
C3371 C3375 1.429 . S
C3372 C3355 1.574 . S
C3372 H3366 0.949 . S
C3372 C3376 1.368 . S
C3373 C3354 1.429 . S
C3373 C3367 1.429 . S
C3373 C3374 1.523 . S
C3374 C3355 1.368 . S
C3374 C3368 1.368 . S
C3374 C3373 1.523 . S
C3375 C3359 1.429 . S
C3375 C3371 1.429 . S
C3375 C3376 1.523 . S
C3376 C3360 1.368 . S
C3376 C3372 1.368 . S
C3376 C3375 1.523 . S
H3377 C3352 0.950 . S
H3378 C3354 0.950 . S
H3379 C3355 0.949 . S
H3380 C3357 0.950 . S
H3381 C3359 0.950 . S
C3382 C3383 1.349 . S
C3382 C3384 1.327 . S
C3382 H3407 0.950 . S
C3383 C3382 1.349 . S
C3383 C3399 1.349 . S
C3384 C3382 1.327 . S
C3384 C3403 1.429 . S
C3384 H3408 0.950 . S
C3385 C3402 1.574 . S
C3385 C3404 1.368 . S
C3385 H3409 0.949 . S
H3386 C3390 0.949 . S
C3387 C3388 1.349 . S
C3387 C3389 1.327 . S
C3387 H3410 0.950 . S
C3388 C3387 1.349 . S
C3388 C3400 1.349 . S
C3389 C3387 1.327 . S
C3389 C3405 1.429 . S
C3389 H3411 0.950 . S
C3390 H3386 0.949 . S
C3390 C3398 1.574 . S
C3390 C3406 1.368 . S
H3391 C3399 0.950 . S
H3392 C3397 0.950 . S
H3393 C3398 0.949 . S
H3394 C3400 0.950 . S
H3395 C3401 0.950 . S
H3396 C3402 0.949 . S
C3397 H3392 0.950 . S
C3397 C3399 1.327 . S
C3397 C3403 1.429 . S
C3398 C3390 1.574 . S
C3398 H3393 0.949 . S
C3398 C3404 1.368 . S
C3399 C3383 1.349 . S
C3399 H3391 0.950 . S
C3399 C3397 1.327 . S
C3400 C3388 1.349 . S
C3400 H3394 0.950 . S
C3400 C3401 1.327 . S
C3401 H3395 0.950 . S
C3401 C3400 1.327 . S
C3401 C3405 1.429 . S
C3402 C3385 1.574 . S
C3402 H3396 0.949 . S
C3402 C3406 1.368 . S
C3403 C3384 1.429 . S
C3403 C3397 1.429 . S
C3403 C3404 1.523 . S
C3404 C3385 1.368 . S
C3404 C3398 1.368 . S
C3404 C3403 1.523 . S
C3405 C3389 1.429 . S
C3405 C3401 1.429 . S
C3405 C3406 1.523 . S
C3406 C3390 1.368 . S
C3406 C3402 1.368 . S
C3406 C3405 1.523 . S
H3407 C3382 0.950 . S
H3408 C3384 0.950 . S
H3409 C3385 0.949 . S
H3410 C3387 0.950 . S
H3411 C3389 0.950 . S
C3412 C3413 1.349 . S
C3412 C3414 1.327 . S
C3412 H3437 0.950 . S
C3413 C3412 1.349 . S
C3413 C3429 1.349 . S
C3414 C3412 1.327 . S
C3414 C3433 1.429 . S
C3414 H3438 0.950 . S
C3415 C3432 1.574 . S
C3415 C3434 1.368 . S
C3415 H3439 0.949 . S
H3416 C3420 0.949 . S
C3417 C3418 1.349 . S
C3417 C3419 1.327 1_455 S
C3417 H3440 0.950 . S
C3418 C3417 1.349 . S
C3418 C3430 1.349 1_455 S
C3419 C3417 1.327 1_655 S
C3419 C3435 1.429 . S
C3419 H3441 0.950 . S
C3420 H3416 0.949 . S
C3420 C3428 1.574 . S
C3420 C3436 1.368 . S
H3421 C3429 0.950 . S
H3422 C3427 0.950 . S
H3423 C3428 0.949 . S
H3424 C3430 0.950 . S
H3425 C3431 0.950 . S
H3426 C3432 0.949 . S
C3427 H3422 0.950 . S
C3427 C3429 1.327 . S
C3427 C3433 1.429 . S
C3428 C3420 1.574 . S
C3428 H3423 0.949 . S
C3428 C3434 1.368 . S
C3429 C3413 1.349 . S
C3429 H3421 0.950 . S
C3429 C3427 1.327 . S
C3430 C3418 1.349 1_655 S
C3430 H3424 0.950 . S
C3430 C3431 1.327 . S
C3431 H3425 0.950 . S
C3431 C3430 1.327 . S
C3431 C3435 1.429 . S
C3432 C3415 1.574 . S
C3432 H3426 0.949 . S
C3432 C3436 1.368 . S
C3433 C3414 1.429 . S
C3433 C3427 1.429 . S
C3433 C3434 1.523 . S
C3434 C3415 1.368 . S
C3434 C3428 1.368 . S
C3434 C3433 1.523 . S
C3435 C3419 1.429 . S
C3435 C3431 1.429 . S
C3435 C3436 1.523 . S
C3436 C3420 1.368 . S
C3436 C3432 1.368 . S
C3436 C3435 1.523 . S
H3437 C3412 0.950 . S
H3438 C3414 0.950 . S
H3439 C3415 0.949 . S
H3440 C3417 0.950 . S
H3441 C3419 0.950 . S
C3442 C3443 1.349 . S
C3442 C3444 1.327 . S
C3442 H3467 0.950 . S
C3443 C3442 1.349 . S
C3443 C3459 1.349 . S
C3444 C3442 1.327 . S
C3444 C3463 1.429 . S
C3444 H3468 0.950 . S
C3445 C3462 1.574 . S
C3445 C3464 1.368 . S
C3445 H3469 0.949 . S
H3446 C3450 0.949 . S
C3447 C3448 1.349 . S
C3447 C3449 1.327 . S
C3447 H3470 0.950 . S
C3448 C3447 1.349 . S
C3448 C3460 1.349 . S
C3449 C3447 1.327 . S
C3449 C3465 1.429 . S
C3449 H3471 0.950 . S
C3450 H3446 0.949 . S
C3450 C3458 1.574 . S
C3450 C3466 1.368 . S
H3451 C3459 0.950 . S
H3452 C3457 0.950 . S
H3453 C3458 0.949 . S
H3454 C3460 0.950 . S
H3455 C3461 0.950 . S
H3456 C3462 0.949 . S
C3457 H3452 0.950 . S
C3457 C3459 1.327 . S
C3457 C3463 1.429 . S
C3458 C3450 1.574 . S
C3458 H3453 0.949 . S
C3458 C3464 1.368 . S
C3459 C3443 1.349 . S
C3459 H3451 0.950 . S
C3459 C3457 1.327 . S
C3460 C3448 1.349 . S
C3460 H3454 0.950 . S
C3460 C3461 1.327 . S
C3461 H3455 0.950 . S
C3461 C3460 1.327 . S
C3461 C3465 1.429 . S
C3462 C3445 1.574 . S
C3462 H3456 0.949 . S
C3462 C3466 1.368 . S
C3463 C3444 1.429 . S
C3463 C3457 1.429 . S
C3463 C3464 1.523 . S
C3464 C3445 1.368 . S
C3464 C3458 1.368 . S
C3464 C3463 1.523 . S
C3465 C3449 1.429 . S
C3465 C3461 1.429 . S
C3465 C3466 1.523 . S
C3466 C3450 1.368 . S
C3466 C3462 1.368 . S
C3466 C3465 1.523 . S
H3467 C3442 0.950 . S
H3468 C3444 0.950 . S
H3469 C3445 0.949 . S
H3470 C3447 0.950 . S
H3471 C3449 0.950 . S
C3472 C3473 1.349 . S
C3472 C3474 1.327 . S
C3472 H3497 0.950 . S
C3473 C3472 1.349 . S
C3473 C3489 1.349 . S
C3474 C3472 1.327 . S
C3474 C3493 1.429 . S
C3474 H3498 0.950 . S
C3475 C3492 1.574 . S
C3475 C3494 1.368 . S
C3475 H3499 0.949 . S
H3476 C3480 0.949 . S
C3477 C3478 1.349 . S
C3477 C3479 1.327 . S
C3477 H3500 0.950 . S
C3478 C3477 1.349 . S
C3478 C3490 1.349 . S
C3479 C3477 1.327 . S
C3479 C3495 1.429 . S
C3479 H3501 0.950 . S
C3480 H3476 0.949 . S
C3480 C3488 1.574 . S
C3480 C3496 1.368 . S
H3481 C3489 0.950 . S
H3482 C3487 0.950 . S
H3483 C3488 0.949 . S
H3484 C3490 0.950 . S
H3485 C3491 0.950 . S
H3486 C3492 0.949 . S
C3487 H3482 0.950 . S
C3487 C3489 1.327 . S
C3487 C3493 1.429 . S
C3488 C3480 1.574 . S
C3488 H3483 0.949 . S
C3488 C3494 1.368 . S
C3489 C3473 1.349 . S
C3489 H3481 0.950 . S
C3489 C3487 1.327 . S
C3490 C3478 1.349 . S
C3490 H3484 0.950 . S
C3490 C3491 1.327 . S
C3491 H3485 0.950 . S
C3491 C3490 1.327 . S
C3491 C3495 1.429 . S
C3492 C3475 1.574 . S
C3492 H3486 0.949 . S
C3492 C3496 1.368 . S
C3493 C3474 1.429 . S
C3493 C3487 1.429 . S
C3493 C3494 1.523 . S
C3494 C3475 1.368 . S
C3494 C3488 1.368 . S
C3494 C3493 1.523 . S
C3495 C3479 1.429 . S
C3495 C3491 1.429 . S
C3495 C3496 1.523 . S
C3496 C3480 1.368 . S
C3496 C3492 1.368 . S
C3496 C3495 1.523 . S
H3497 C3472 0.950 . S
H3498 C3474 0.950 . S
H3499 C3475 0.949 . S
H3500 C3477 0.950 . S
H3501 C3479 0.950 . S
C3502 C3503 1.349 . S
C3502 C3504 1.327 . S
C3502 H3527 0.950 . S
C3503 C3502 1.349 . S
C3503 C3519 1.349 . S
C3504 C3502 1.327 . S
C3504 C3523 1.429 . S
C3504 H3528 0.950 . S
C3505 C3522 1.574 . S
C3505 C3524 1.368 . S
C3505 H3529 0.949 . S
H3506 C3510 0.949 . S
C3507 C3508 1.349 . S
C3507 C3509 1.327 . S
C3507 H3530 0.950 . S
C3508 C3507 1.349 . S
C3508 C3520 1.349 . S
C3509 C3507 1.327 . S
C3509 C3525 1.429 . S
C3509 H3531 0.950 . S
C3510 H3506 0.949 . S
C3510 C3518 1.574 . S
C3510 C3526 1.368 . S
H3511 C3519 0.950 . S
H3512 C3517 0.950 . S
H3513 C3518 0.949 . S
H3514 C3520 0.950 . S
H3515 C3521 0.950 . S
H3516 C3522 0.949 . S
C3517 H3512 0.950 . S
C3517 C3519 1.327 . S
C3517 C3523 1.429 . S
C3518 C3510 1.574 . S
C3518 H3513 0.949 . S
C3518 C3524 1.368 . S
C3519 C3503 1.349 . S
C3519 H3511 0.950 . S
C3519 C3517 1.327 . S
C3520 C3508 1.349 . S
C3520 H3514 0.950 . S
C3520 C3521 1.327 . S
C3521 H3515 0.950 . S
C3521 C3520 1.327 . S
C3521 C3525 1.429 . S
C3522 C3505 1.574 . S
C3522 H3516 0.949 . S
C3522 C3526 1.368 . S
C3523 C3504 1.429 . S
C3523 C3517 1.429 . S
C3523 C3524 1.523 . S
C3524 C3505 1.368 . S
C3524 C3518 1.368 . S
C3524 C3523 1.523 . S
C3525 C3509 1.429 . S
C3525 C3521 1.429 . S
C3525 C3526 1.523 . S
C3526 C3510 1.368 . S
C3526 C3522 1.368 . S
C3526 C3525 1.523 . S
H3527 C3502 0.950 . S
H3528 C3504 0.950 . S
H3529 C3505 0.949 . S
H3530 C3507 0.950 . S
H3531 C3509 0.950 . S
C3532 C3533 1.349 . S
C3532 C3534 1.327 . S
C3532 H3557 0.950 . S
C3533 C3532 1.349 . S
C3533 C3549 1.349 . S
C3534 C3532 1.327 . S
C3534 C3553 1.429 . S
C3534 H3558 0.950 . S
C3535 C3552 1.574 . S
C3535 C3554 1.368 . S
C3535 H3559 0.949 . S
H3536 C3540 0.949 . S
C3537 C3538 1.349 . S
C3537 C3539 1.327 . S
C3537 H3560 0.950 . S
C3538 C3537 1.349 . S
C3538 C3550 1.349 . S
C3539 C3537 1.327 . S
C3539 C3555 1.429 . S
C3539 H3561 0.950 . S
C3540 H3536 0.949 . S
C3540 C3548 1.574 . S
C3540 C3556 1.368 . S
H3541 C3549 0.950 . S
H3542 C3547 0.950 . S
H3543 C3548 0.949 . S
H3544 C3550 0.950 1_455 S
H3545 C3551 0.950 . S
H3546 C3552 0.949 . S
C3547 H3542 0.950 . S
C3547 C3549 1.327 . S
C3547 C3553 1.429 . S
C3548 C3540 1.574 . S
C3548 H3543 0.949 . S
C3548 C3554 1.368 . S
C3549 C3533 1.349 . S
C3549 H3541 0.950 . S
C3549 C3547 1.327 . S
C3550 C3538 1.349 . S
C3550 H3544 0.950 1_655 S
C3550 C3551 1.327 . S
C3551 H3545 0.950 . S
C3551 C3550 1.327 . S
C3551 C3555 1.429 . S
C3552 C3535 1.574 . S
C3552 H3546 0.949 . S
C3552 C3556 1.368 . S
C3553 C3534 1.429 . S
C3553 C3547 1.429 . S
C3553 C3554 1.523 . S
C3554 C3535 1.368 . S
C3554 C3548 1.368 . S
C3554 C3553 1.523 . S
C3555 C3539 1.429 . S
C3555 C3551 1.429 . S
C3555 C3556 1.523 . S
C3556 C3540 1.368 . S
C3556 C3552 1.368 . S
C3556 C3555 1.523 . S
H3557 C3532 0.950 . S
H3558 C3534 0.950 . S
H3559 C3535 0.949 . S
H3560 C3537 0.950 . S
H3561 C3539 0.950 . S
C3562 C3563 1.349 . S
C3562 C3564 1.327 . S
C3562 H3587 0.950 . S
C3563 C3562 1.349 . S
C3563 C3579 1.349 . S
C3564 C3562 1.327 . S
C3564 C3583 1.429 . S
C3564 H3588 0.950 . S
C3565 C3582 1.574 . S
C3565 C3584 1.368 . S
C3565 H3589 0.949 . S
H3566 C3570 0.949 . S
C3567 C3568 1.349 . S
C3567 C3569 1.327 . S
C3567 H3590 0.950 . S
C3568 C3567 1.349 . S
C3568 C3580 1.349 . S
C3569 C3567 1.327 . S
C3569 C3585 1.429 . S
C3569 H3591 0.950 . S
C3570 H3566 0.949 . S
C3570 C3578 1.574 . S
C3570 C3586 1.368 . S
H3571 C3579 0.950 . S
H3572 C3577 0.950 . S
H3573 C3578 0.949 . S
H3574 C3580 0.950 . S
H3575 C3581 0.950 . S
H3576 C3582 0.949 . S
C3577 H3572 0.950 . S
C3577 C3579 1.327 . S
C3577 C3583 1.429 . S
C3578 C3570 1.574 . S
C3578 H3573 0.949 . S
C3578 C3584 1.368 . S
C3579 C3563 1.349 . S
C3579 H3571 0.950 . S
C3579 C3577 1.327 . S
C3580 C3568 1.349 . S
C3580 H3574 0.950 . S
C3580 C3581 1.327 . S
C3581 H3575 0.950 . S
C3581 C3580 1.327 . S
C3581 C3585 1.429 . S
C3582 C3565 1.574 . S
C3582 H3576 0.949 . S
C3582 C3586 1.368 . S
C3583 C3564 1.429 . S
C3583 C3577 1.429 . S
C3583 C3584 1.523 . S
C3584 C3565 1.368 . S
C3584 C3578 1.368 . S
C3584 C3583 1.523 . S
C3585 C3569 1.429 . S
C3585 C3581 1.429 . S
C3585 C3586 1.523 . S
C3586 C3570 1.368 . S
C3586 C3582 1.368 . S
C3586 C3585 1.523 . S
H3587 C3562 0.950 . S
H3588 C3564 0.950 . S
H3589 C3565 0.949 . S
H3590 C3567 0.950 . S
H3591 C3569 0.950 . S
C3592 C3593 1.349 . S
C3592 C3594 1.327 . S
C3592 H3617 0.950 . S
C3593 C3592 1.349 . S
C3593 C3609 1.349 . S
C3594 C3592 1.327 . S
C3594 C3613 1.429 . S
C3594 H3618 0.950 . S
C3595 C3612 1.574 . S
C3595 C3614 1.368 . S
C3595 H3619 0.949 . S
H3596 C3600 0.949 . S
C3597 C3598 1.349 . S
C3597 C3599 1.327 . S
C3597 H3620 0.950 . S
C3598 C3597 1.349 . S
C3598 C3610 1.349 . S
C3599 C3597 1.327 . S
C3599 C3615 1.429 . S
C3599 H3621 0.950 . S
C3600 H3596 0.949 . S
C3600 C3608 1.574 . S
C3600 C3616 1.368 . S
H3601 C3609 0.950 . S
H3602 C3607 0.950 . S
H3603 C3608 0.949 . S
H3604 C3610 0.950 . S
H3605 C3611 0.950 . S
H3606 C3612 0.949 . S
C3607 H3602 0.950 . S
C3607 C3609 1.327 . S
C3607 C3613 1.429 . S
C3608 C3600 1.574 . S
C3608 H3603 0.949 . S
C3608 C3614 1.368 . S
C3609 C3593 1.349 . S
C3609 H3601 0.950 . S
C3609 C3607 1.327 . S
C3610 C3598 1.349 . S
C3610 H3604 0.950 . S
C3610 C3611 1.327 . S
C3611 H3605 0.950 . S
C3611 C3610 1.327 . S
C3611 C3615 1.429 . S
C3612 C3595 1.574 . S
C3612 H3606 0.949 . S
C3612 C3616 1.368 . S
C3613 C3594 1.429 . S
C3613 C3607 1.429 . S
C3613 C3614 1.523 . S
C3614 C3595 1.368 . S
C3614 C3608 1.368 . S
C3614 C3613 1.523 . S
C3615 C3599 1.429 . S
C3615 C3611 1.429 . S
C3615 C3616 1.523 . S
C3616 C3600 1.368 . S
C3616 C3612 1.368 . S
C3616 C3615 1.523 . S
H3617 C3592 0.950 . S
H3618 C3594 0.950 . S
H3619 C3595 0.949 . S
H3620 C3597 0.950 . S
H3621 C3599 0.950 . S
C3622 C3623 1.349 . S
C3622 C3624 1.327 . S
C3622 H3647 0.950 . S
C3623 C3622 1.349 . S
C3623 C3639 1.349 . S
C3624 C3622 1.327 . S
C3624 C3643 1.429 . S
C3624 H3648 0.950 . S
C3625 C3642 1.574 . S
C3625 C3644 1.368 . S
C3625 H3649 0.949 . S
H3626 C3630 0.949 . S
C3627 C3628 1.349 . S
C3627 C3629 1.327 . S
C3627 H3650 0.950 . S
C3628 C3627 1.349 . S
C3628 C3640 1.349 . S
C3629 C3627 1.327 . S
C3629 C3645 1.429 . S
C3629 H3651 0.950 . S
C3630 H3626 0.949 . S
C3630 C3638 1.574 . S
C3630 C3646 1.368 . S
H3631 C3639 0.950 . S
H3632 C3637 0.950 . S
H3633 C3638 0.949 . S
H3634 C3640 0.950 . S
H3635 C3641 0.950 . S
H3636 C3642 0.949 . S
C3637 H3632 0.950 . S
C3637 C3639 1.327 . S
C3637 C3643 1.429 . S
C3638 C3630 1.574 . S
C3638 H3633 0.949 . S
C3638 C3644 1.368 . S
C3639 C3623 1.349 . S
C3639 H3631 0.950 . S
C3639 C3637 1.327 . S
C3640 C3628 1.349 . S
C3640 H3634 0.950 . S
C3640 C3641 1.327 . S
C3641 H3635 0.950 . S
C3641 C3640 1.327 . S
C3641 C3645 1.429 . S
C3642 C3625 1.574 . S
C3642 H3636 0.949 . S
C3642 C3646 1.368 . S
C3643 C3624 1.429 . S
C3643 C3637 1.429 . S
C3643 C3644 1.523 . S
C3644 C3625 1.368 . S
C3644 C3638 1.368 . S
C3644 C3643 1.523 . S
C3645 C3629 1.429 . S
C3645 C3641 1.429 . S
C3645 C3646 1.523 . S
C3646 C3630 1.368 . S
C3646 C3642 1.368 . S
C3646 C3645 1.523 . S
H3647 C3622 0.950 . S
H3648 C3624 0.950 . S
H3649 C3625 0.949 . S
H3650 C3627 0.950 . S
H3651 C3629 0.950 . S
C3652 C3653 1.349 . S
C3652 C3654 1.327 . S
C3652 H3677 0.950 . S
C3653 C3652 1.349 . S
C3653 C3669 1.349 . S
C3654 C3652 1.327 . S
C3654 C3673 1.429 . S
C3654 H3678 0.950 . S
C3655 C3672 1.574 . S
C3655 C3674 1.368 . S
C3655 H3679 0.949 . S
H3656 C3660 0.949 . S
C3657 C3658 1.349 . S
C3657 C3659 1.327 . S
C3657 H3680 0.950 . S
C3658 C3657 1.349 . S
C3658 C3670 1.349 . S
C3659 C3657 1.327 . S
C3659 C3675 1.429 . S
C3659 H3681 0.950 . S
C3660 H3656 0.949 . S
C3660 C3668 1.574 . S
C3660 C3676 1.368 . S
H3661 C3669 0.950 . S
H3662 C3667 0.950 . S
H3663 C3668 0.949 . S
H3664 C3670 0.950 . S
H3665 C3671 0.950 . S
H3666 C3672 0.949 . S
C3667 H3662 0.950 . S
C3667 C3669 1.327 . S
C3667 C3673 1.429 . S
C3668 C3660 1.574 . S
C3668 H3663 0.949 . S
C3668 C3674 1.368 . S
C3669 C3653 1.349 . S
C3669 H3661 0.950 . S
C3669 C3667 1.327 . S
C3670 C3658 1.349 . S
C3670 H3664 0.950 . S
C3670 C3671 1.327 . S
C3671 H3665 0.950 . S
C3671 C3670 1.327 . S
C3671 C3675 1.429 . S
C3672 C3655 1.574 . S
C3672 H3666 0.949 . S
C3672 C3676 1.368 . S
C3673 C3654 1.429 . S
C3673 C3667 1.429 . S
C3673 C3674 1.523 . S
C3674 C3655 1.368 . S
C3674 C3668 1.368 . S
C3674 C3673 1.523 . S
C3675 C3659 1.429 . S
C3675 C3671 1.429 . S
C3675 C3676 1.523 . S
C3676 C3660 1.368 . S
C3676 C3672 1.368 . S
C3676 C3675 1.523 . S
H3677 C3652 0.950 . S
H3678 C3654 0.950 . S
H3679 C3655 0.949 . S
H3680 C3657 0.950 . S
H3681 C3659 0.950 . S
C3682 C3683 1.349 . S
C3682 C3684 1.327 . S
C3682 H3707 0.950 . S
C3683 C3682 1.349 . S
C3683 C3699 1.349 . S
C3684 C3682 1.327 . S
C3684 C3703 1.429 . S
C3684 H3708 0.950 . S
C3685 C3702 1.574 . S
C3685 C3704 1.368 . S
C3685 H3709 0.949 . S
H3686 C3690 0.939 1_556 S
C3687 C3688 1.349 . S
C3687 C3689 1.327 . S
C3687 H3710 0.950 . S
C3688 C3687 1.349 . S
C3688 C3700 1.349 . S
C3689 C3687 1.327 . S
C3689 C3705 1.429 . S
C3689 H3711 0.950 . S
C3690 H3686 0.939 1_554 S
C3690 C3698 1.574 . S
C3690 C3706 1.368 . S
H3691 C3699 0.950 . S
H3692 C3697 0.950 . S
H3693 C3698 0.949 . S
H3694 C3700 0.950 1_556 S
H3695 C3701 0.950 1_556 S
H3696 C3702 0.949 . S
C3697 H3692 0.950 . S
C3697 C3699 1.327 . S
C3697 C3703 1.429 . S
C3698 C3690 1.574 . S
C3698 H3693 0.949 . S
C3698 C3704 1.368 . S
C3699 C3683 1.349 . S
C3699 H3691 0.950 . S
C3699 C3697 1.327 . S
C3700 C3688 1.349 . S
C3700 H3694 0.950 1_554 S
C3700 C3701 1.327 . S
C3701 H3695 0.950 1_554 S
C3701 C3700 1.327 . S
C3701 C3705 1.429 . S
C3702 C3685 1.574 . S
C3702 H3696 0.949 . S
C3702 C3706 1.368 . S
C3703 C3684 1.429 . S
C3703 C3697 1.429 . S
C3703 C3704 1.523 . S
C3704 C3685 1.368 . S
C3704 C3698 1.368 . S
C3704 C3703 1.523 . S
C3705 C3689 1.429 . S
C3705 C3701 1.429 . S
C3705 C3706 1.523 . S
C3706 C3690 1.368 . S
C3706 C3702 1.368 . S
C3706 C3705 1.523 . S
H3707 C3682 0.950 . S
H3708 C3684 0.950 . S
H3709 C3685 0.949 . S
H3710 C3687 0.950 . S
H3711 C3689 0.950 . S
C3712 C3713 1.349 . S
C3712 C3714 1.327 . S
C3712 H3737 0.950 . S
C3713 C3712 1.349 . S
C3713 C3729 1.349 . S
C3714 C3712 1.327 . S
C3714 C3733 1.429 . S
C3714 H3738 0.950 . S
C3715 C3732 1.574 . S
C3715 C3734 1.368 . S
C3715 H3739 0.949 . S
H3716 C3720 0.949 . S
C3717 C3718 1.349 . S
C3717 C3719 1.327 . S
C3717 H3740 0.950 . S
C3718 C3717 1.349 . S
C3718 C3730 1.349 . S
C3719 C3717 1.327 . S
C3719 C3735 1.429 . S
C3719 H3741 0.950 . S
C3720 H3716 0.949 . S
C3720 C3728 1.574 . S
C3720 C3736 1.368 . S
H3721 C3729 0.950 . S
H3722 C3727 0.950 . S
H3723 C3728 0.949 . S
H3724 C3730 0.950 . S
H3725 C3731 0.950 . S
H3726 C3732 0.949 . S
C3727 H3722 0.950 . S
C3727 C3729 1.327 . S
C3727 C3733 1.429 . S
C3728 C3720 1.574 . S
C3728 H3723 0.949 . S
C3728 C3734 1.368 . S
C3729 C3713 1.349 . S
C3729 H3721 0.950 . S
C3729 C3727 1.327 . S
C3730 C3718 1.349 . S
C3730 H3724 0.950 . S
C3730 C3731 1.327 . S
C3731 H3725 0.950 . S
C3731 C3730 1.327 . S
C3731 C3735 1.429 . S
C3732 C3715 1.574 . S
C3732 H3726 0.949 . S
C3732 C3736 1.368 . S
C3733 C3714 1.429 . S
C3733 C3727 1.429 . S
C3733 C3734 1.523 . S
C3734 C3715 1.368 . S
C3734 C3728 1.368 . S
C3734 C3733 1.523 . S
C3735 C3719 1.429 . S
C3735 C3731 1.429 . S
C3735 C3736 1.523 . S
C3736 C3720 1.368 . S
C3736 C3732 1.368 . S
C3736 C3735 1.523 . S
H3737 C3712 0.950 . S
H3738 C3714 0.950 . S
H3739 C3715 0.949 . S
H3740 C3717 0.950 . S
H3741 C3719 0.950 . S
C3742 C3743 1.349 . S
C3742 C3744 1.327 . S
C3742 H3767 0.950 . S
C3743 C3742 1.349 . S
C3743 C3759 1.349 . S
C3744 C3742 1.327 . S
C3744 C3763 1.429 . S
C3744 H3768 0.950 . S
C3745 C3762 1.574 . S
C3745 C3764 1.368 . S
C3745 H3769 0.949 1_554 S
H3746 C3750 0.949 . S
C3747 C3748 1.349 1_556 S
C3747 C3749 1.327 . S
C3747 H3770 0.950 . S
C3748 C3747 1.349 1_554 S
C3748 C3760 1.349 . S
C3749 C3747 1.327 . S
C3749 C3765 1.429 1_556 S
C3749 H3771 0.950 . S
C3750 H3746 0.949 . S
C3750 C3758 1.574 . S
C3750 C3766 1.368 . S
H3751 C3759 0.950 . S
H3752 C3757 0.950 . S
H3753 C3758 0.949 . S
H3754 C3760 0.950 . S
H3755 C3761 0.950 . S
H3756 C3762 0.949 1_556 S
C3757 H3752 0.950 . S
C3757 C3759 1.327 . S
C3757 C3763 1.429 . S
C3758 C3750 1.574 . S
C3758 H3753 0.949 . S
C3758 C3764 1.368 . S
C3759 C3743 1.349 . S
C3759 H3751 0.950 . S
C3759 C3757 1.327 . S
C3760 C3748 1.349 . S
C3760 H3754 0.950 . S
C3760 C3761 1.327 . S
C3761 H3755 0.950 . S
C3761 C3760 1.327 . S
C3761 C3765 1.429 . S
C3762 C3745 1.574 . S
C3762 H3756 0.949 1_554 S
C3762 C3766 1.368 . S
C3763 C3744 1.429 . S
C3763 C3757 1.429 . S
C3763 C3764 1.523 . S
C3764 C3745 1.368 . S
C3764 C3758 1.368 . S
C3764 C3763 1.523 . S
C3765 C3749 1.429 1_554 S
C3765 C3761 1.429 . S
C3765 C3766 1.523 . S
C3766 C3750 1.368 . S
C3766 C3762 1.368 . S
C3766 C3765 1.523 . S
H3767 C3742 0.950 . S
H3768 C3744 0.950 . S
H3769 C3745 0.949 1_556 S
H3770 C3747 0.950 . S
H3771 C3749 0.950 . S
C3772 C3773 1.349 . S
C3772 C3774 1.327 . S
C3772 H3797 0.950 . S
C3773 C3772 1.349 . S
C3773 C3789 1.349 . S
C3774 C3772 1.327 . S
C3774 C3793 1.429 . S
C3774 H3798 0.950 . S
C3775 C3792 1.574 . S
C3775 C3794 1.368 . S
C3775 H3799 0.949 . S
H3776 C3780 0.949 . S
C3777 C3778 1.349 . S
C3777 C3779 1.327 . S
C3777 H3800 0.950 . S
C3778 C3777 1.349 . S
C3778 C3790 1.349 . S
C3779 C3777 1.327 . S
C3779 C3795 1.429 . S
C3779 H3801 0.950 . S
C3780 H3776 0.949 . S
C3780 C3788 1.574 . S
C3780 C3796 1.368 . S
H3781 C3789 0.950 . S
H3782 C3787 0.950 . S
H3783 C3788 0.949 . S
H3784 C3790 0.950 . S
H3785 C3791 0.950 . S
H3786 C3792 0.949 . S
C3787 H3782 0.950 . S
C3787 C3789 1.327 . S
C3787 C3793 1.429 . S
C3788 C3780 1.574 . S
C3788 H3783 0.949 . S
C3788 C3794 1.368 . S
C3789 C3773 1.349 . S
C3789 H3781 0.950 . S
C3789 C3787 1.327 . S
C3790 C3778 1.349 . S
C3790 H3784 0.950 . S
C3790 C3791 1.327 . S
C3791 H3785 0.950 . S
C3791 C3790 1.327 . S
C3791 C3795 1.429 . S
C3792 C3775 1.574 . S
C3792 H3786 0.949 . S
C3792 C3796 1.368 . S
C3793 C3774 1.429 . S
C3793 C3787 1.429 . S
C3793 C3794 1.523 . S
C3794 C3775 1.368 . S
C3794 C3788 1.368 . S
C3794 C3793 1.523 . S
C3795 C3779 1.429 . S
C3795 C3791 1.429 . S
C3795 C3796 1.523 . S
C3796 C3780 1.368 . S
C3796 C3792 1.368 . S
C3796 C3795 1.523 . S
H3797 C3772 0.950 . S
H3798 C3774 0.950 . S
H3799 C3775 0.949 . S
H3800 C3777 0.950 . S
H3801 C3779 0.950 . S
C3802 C3803 1.349 . S
C3802 C3804 1.327 . S
C3802 H3827 0.950 . S
C3803 C3802 1.349 . S
C3803 C3819 1.349 . S
C3804 C3802 1.327 . S
C3804 C3823 1.429 . S
C3804 H3828 0.950 . S
C3805 C3822 1.574 . S
C3805 C3824 1.368 . S
C3805 H3829 0.949 . S
H3806 C3810 0.949 . S
C3807 C3808 1.349 . S
C3807 C3809 1.327 . S
C3807 H3830 0.950 . S
C3808 C3807 1.349 . S
C3808 C3820 1.349 . S
C3809 C3807 1.327 . S
C3809 C3825 1.429 . S
C3809 H3831 0.950 . S
C3810 H3806 0.949 . S
C3810 C3818 1.574 . S
C3810 C3826 1.368 . S
H3811 C3819 0.950 . S
H3812 C3817 0.950 . S
H3813 C3818 0.949 . S
H3814 C3820 0.950 . S
H3815 C3821 0.950 . S
H3816 C3822 0.949 . S
C3817 H3812 0.950 . S
C3817 C3819 1.327 . S
C3817 C3823 1.429 . S
C3818 C3810 1.574 . S
C3818 H3813 0.949 . S
C3818 C3824 1.368 . S
C3819 C3803 1.349 . S
C3819 H3811 0.950 . S
C3819 C3817 1.327 . S
C3820 C3808 1.349 . S
C3820 H3814 0.950 . S
C3820 C3821 1.327 . S
C3821 H3815 0.950 . S
C3821 C3820 1.327 . S
C3821 C3825 1.429 . S
C3822 C3805 1.574 . S
C3822 H3816 0.949 . S
C3822 C3826 1.368 . S
C3823 C3804 1.429 . S
C3823 C3817 1.429 . S
C3823 C3824 1.523 . S
C3824 C3805 1.368 . S
C3824 C3818 1.368 . S
C3824 C3823 1.523 . S
C3825 C3809 1.429 . S
C3825 C3821 1.429 . S
C3825 C3826 1.523 . S
C3826 C3810 1.368 . S
C3826 C3822 1.368 . S
C3826 C3825 1.523 . S
H3827 C3802 0.950 . S
H3828 C3804 0.950 . S
H3829 C3805 0.949 . S
H3830 C3807 0.950 . S
H3831 C3809 0.950 . S
C953 C101 2.219 . S
C958 C322 2.134 . S
C983 C57 1.901 . S
C988 C370 1.914 . S
C1013 C70 0.924 . S
C1018 C402 0.912 . S
C1048 C447 1.567 . S
C1043 C82 1.596 . S
C1073 C23 0.838 . S
C1078 C487 0.837 . S
C1108 C522 0.579 . S
C1103 C29 0.555 . S
C1138 C561 1.219 . S
C1133 C49 1.213 . S
C1163 C10 1.168 . S
C1168 C598 1.158 . S
C1198 C330 1.885 . S
C1193 C218 1.882 . S
C1223 C226 0.355 . S
C1228 C367 0.545 . S
C1258 C410 2.340 . S
C1253 C251 2.341 . S
C1288 C442 0.803 . S
C1283 C159 0.809 . S
C1313 C211 0.942 . S
C1318 C482 0.927 . S
C1348 C530 0.320 . S
C1343 C225 0.343 . S
C1378 C571 1.729 . S
C1373 C252 1.799 . S
C1408 C601 1.890 . S
C1403 C166 1.904 . S
C1438 C327 1.214 . S
C1433 C147 1.229 . S
C1463 C263 2.065 . S
C1468 C650 2.062 . S
C1498 C687 1.201 . S
C1493 C309 1.205 . S
C1528 C718 0.435 . S
C1523 C291 0.365 . S
C1553 C108 2.754 . S
C1558 C611 2.707 . S
C1583 C121 1.399 . S
C1588 C407 1.386 . S
C1613 C302 1.677 . S
C1618 C770 1.704 . S
C1648 C802 1.604 . S
C1643 C276 1.638 . S
C1678 C331 2.317 . S
C1673 C55 2.370 . S
C1708 C801 2.355 . S
C1703 C96 2.377 . S
C1733 C88 1.374 . S
C1738 C411 1.357 . S
C1763 C75 1.816 . S
C1768 C758 1.791 . S
C1798 C478 1.107 . S
C1793 C4 1.110 . S
C1823 C44 1.209 . S
C1828 C691 1.200 . S
C1858 C570 1.326 . S
C1853 C31 1.348 . S
C1888 C847 1.402 . S
C1883 C18 1.404 . S
C1918 C321 2.184 1_556 S
C1913 C133 2.203 . S
C1948 C798 0.338 . S
C1943 C296 0.217 . S
C1973 C107 2.703 . S
C1978 C401 2.671 . S
C2003 C264 1.270 . S
C2008 C771 1.256 . S
C2033 C140 1.413 . S
C2038 C491 1.395 . S
C2068 C681 0.773 . S
C2063 C289 0.775 . S
C2093 C114 2.224 . S
C2098 C562 2.160 . S
C2123 C265 2.087 . S
C2128 C850 2.057 . S
C2153 C179 1.135 . S
C2158 C318 1.125 . S
C2183 C161 2.488 . S
C2188 C641 2.447 . S
C2213 C244 1.356 . S
C2218 C518 1.352 . S
C2243 C224 0.359 . S
C2248 C727 0.389 . S
C2278 C842 2.977 . S
C2273 C257 3.026 . S
C2303 C199 1.639 . S
C2308 C398 1.624 . S
C2338 C441 2.007 . S
C2333 C237 2.020 . S
C2368 C371 1.983 . S
C2363 C185 1.993 . S
C2393 C69 2.220 . S
C2398 C882 2.135 . S
C2428 C810 1.914 . S
C2423 C83 1.901 . S
C2453 C94 0.926 . S
C2458 C922 0.913 . S
C2483 C56 1.595 . S
C2488 C767 1.567 . S
C2513 C42 0.847 . S
C2518 C647 0.846 . S
C2548 C682 0.580 . S
C2543 C3 0.556 . S
C2578 C721 1.231 . S
C2573 C16 1.226 . S
C2608 C838 1.158 . S
C2603 C36 1.168 . S
C2638 C890 1.885 . S
C2633 C238 1.882 . S
C2663 C174 0.356 . S
C2668 C807 0.546 . S
C2698 C930 2.341 . S
C2693 C186 2.341 . S
C2728 C762 0.802 . S
C2723 C198 0.807 . S
C2758 C642 0.928 . S
C2753 C239 0.943 . S
C2783 C173 0.343 . S
C2788 C690 0.319 . S
C2818 C731 1.731 . S
C2813 C187 1.802 . S
C2843 C205 1.903 . S
C2848 C841 1.889 . S
C2878 C887 1.212 . S
C2873 C290 1.229 . S
C2903 C122 2.066 . S
C2908 C490 2.063 . S
C2938 C527 1.205 . S
C2933 C134 1.208 . S
C2968 C558 0.434 . S
C2963 C148 0.364 1_554 S
C2998 C851 2.702 . S
C2993 C283 2.749 . S
C3023 C270 1.397 . S
C3028 C927 1.384 . S
C3058 C450 1.703 . S
C3053 C135 1.676 . S
C3088 C362 1.603 . S
C3083 C109 1.637 . S
C3113 C81 2.369 . S
C3118 C891 2.316 . S
C3148 C361 2.354 . S
C3143 C68 2.377 . S
C3173 C62 1.374 . S
C3178 C931 1.357 . S
C3203 C95 1.816 . S
C3208 C438 1.791 . S
C3233 C30 1.110 . S
C3238 C638 1.107 . S
C3268 C531 1.189 . S
C3263 C17 1.199 . S
C3293 C5 1.349 . S
C3298 C730 1.327 . S
C3323 C43 1.397 . S
C3328 C607 1.392 . S
C3358 C881 2.184 . S
C3353 C304 2.203 . S
C3383 C153 0.218 . S
C3388 C358 0.338 . S
C3418 C921 2.671 . S
C3413 C278 2.703 . S
C3443 C127 1.269 . S
C3448 C451 1.255 . S
C3473 C303 1.409 . S
C3478 C651 1.391 . S
C3508 C521 0.770 . S
C3503 C146 0.778 . S
C3533 C277 2.219 . S
C3538 C722 2.155 1_655 S
C3568 C610 2.054 . S
C3563 C120 2.084 . S
C3598 C878 1.125 . S
C3593 C231 1.135 . S
C3628 C481 2.446 1_665 S
C3623 C200 2.487 . S
C3653 C212 1.358 . S
C3658 C678 1.354 . S
C3688 C567 0.390 . S
C3683 C172 0.360 . S
C3713 C192 3.023 . S
C3718 C602 2.974 . S
C3743 C160 1.639 . S
C3748 C918 1.624 . S
C3778 C761 2.009 . S
C3773 C213 2.021 . S
C3808 C811 1.984 . S
C3803 C250 1.995 . S
