# Generated by pormake.
# Topology ftw, (4,12)-cn, num edge types: 1
# Building blocks:
#     Node 0, Type 0, BuildingBlock: ESEHIV_clean_sbu_0, # of connection points: 4
#     Node 1, Type 0, BuildingBlock: ESEHIV_clean_sbu_0, # of connection points: 4
#     Node 2, Type 0, BuildingBlock: ESEHIV_clean_sbu_0, # of connection points: 4
#     Node 3, Type 1, BuildingBlock: QEWDON_clean_sbu_0, # of connection points: 12
#     Edge 4, Type (0, 1), BuildingBlock: XIVTED_clean_linker_0, # of connection points: 2
#     Edge 5, Type (0, 1), BuildingBlock: XIVTED_clean_linker_0, # of connection points: 2
#     Edge 6, Type (0, 1), BuildingBlock: XIVTED_clean_linker_0, # of connection points: 2
#     Edge 7, Type (0, 1), BuildingBlock: XIVTED_clean_linker_0, # of connection points: 2
#     Edge 8, Type (0, 1), BuildingBlock: XIVTED_clean_linker_0, # of connection points: 2
#     Edge 9, Type (0, 1), BuildingBlock: XIVTED_clean_linker_0, # of connection points: 2
#     Edge 10, Type (0, 1), BuildingBlock: XIVTED_clean_linker_0, # of connection points: 2
#     Edge 11, Type (0, 1), BuildingBlock: XIVTED_clean_linker_0, # of connection points: 2
#     Edge 12, Type (0, 1), BuildingBlock: XIVTED_clean_linker_0, # of connection points: 2
#     Edge 13, Type (0, 1), BuildingBlock: XIVTED_clean_linker_0, # of connection points: 2
#     Edge 14, Type (0, 1), BuildingBlock: XIVTED_clean_linker_0, # of connection points: 2
#     Edge 15, Type (0, 1), BuildingBlock: XIVTED_clean_linker_0, # of connection points: 2
# Relax obj value: 0.058
# Max RMSD: 0.167
# Mean RMSD: 0.145
data_MOF--net-ftw--node1-ESEHIV_clean_sbu_0--node2-QEWDON_clean_sbu_0--edge1-XIVTED_clean_linker_0
_symmetry_space_group_name_H-M    P1
_symmetry_Int_Tables_number       1
_symmetry_cell_setting            triclinic
loop_
_symmetry_equiv_pos_as_xyz
'x, y, z'
_cell_length_a     25.955181
_cell_length_b     24.824769
_cell_length_c     24.359549
_cell_angle_alpha  87.612405
_cell_angle_beta   86.496256
_cell_angle_gamma 93.287523
loop_
_atom_site_label
_atom_site_type_symbol
_atom_site_fract_x
_atom_site_fract_y
_atom_site_fract_z
_atom_type_partial_charge
Cu0 Cu 0.02948 0.52549 0.50622 0.0
N1 N 0.05357 0.47971 0.45212 0.0
N2 N 0.06576 0.42052 0.38629 0.0
C3 C 0.03226 0.43773 0.42592 0.0
C4 C 0.10928 0.45255 0.38819 0.0
C5 C 0.10159 0.48874 0.42839 0.0
O6 O 0.07156 0.52189 0.56966 0.0
C7 C 0.99269 0.6004 0.43541 0.0
O8 O 0.96181 0.55769 0.42863 0.0
H9 H 0.99292 0.42131 0.43451 0.0
H10 H 0.12906 0.52024 0.43948 0.0
N11 N 0.96447 0.50963 0.54138 0.0
N12 N 0.92253 0.52935 0.62086 0.0
C13 C 0.94712 0.54879 0.57303 0.0
C14 C 0.94834 0.46306 0.56897 0.0
C15 C 0.92215 0.47505 0.61771 0.0
C16 C 0.08703 0.47598 0.58449 0.0
O17 O 0.0906 0.43889 0.5478 0.0
H18 H 0.9619 0.59034 0.56622 0.0
H19 H 0.96216 0.42404 0.55937 0.0
O20 O 0.02754 0.5966 0.46986 0.0
H21 H 0.14441 0.44995 0.36233 0.0
H22 H 0.90975 0.44604 0.65093 0.0
Cu23 Cu 0.50904 0.96995 0.46357 0.0
N24 N 0.54259 0.91875 0.50395 0.0
N25 N 0.59263 0.88807 0.56834 0.0
C26 C 0.568 0.93051 0.54881 0.0
C27 C 0.58226 0.84781 0.53436 0.0
C28 C 0.55116 0.86683 0.49467 0.0
O29 O 0.56403 0.01328 0.42194 0.0
C30 C 0.4422 0.04816 0.51288 0.0
O31 O 0.43793 0.07069 0.46375 0.0
H32 H 0.56988 0.97025 0.56554 0.0
H33 H 0.53675 0.84456 0.46108 0.0
N34 N 0.46475 0.93743 0.415 0.0
N35 N 0.40069 0.92905 0.35785 0.0
C36 C 0.41846 0.95418 0.40171 0.0
C37 C 0.47645 0.89997 0.37859 0.0
C38 C 0.43688 0.89443 0.34357 0.0
C39 C 0.56083 0.03259 0.37312 0.0
O40 O 0.51568 0.03099 0.35145 0.0
H41 H 0.3994 0.98611 0.422 0.0
H42 H 0.51287 0.88098 0.37504 0.0
O43 O 0.47063 0.00855 0.51876 0.0
H44 H 0.59626 0.80764 0.53779 0.0
H45 H 0.43676 0.86999 0.30778 0.0
Cu46 Cu 0.48669 0.48879 0.19864 0.0
N47 N 0.46152 0.54647 0.23617 0.0
N48 N 0.41328 0.61792 0.2278 0.0
C49 C 0.4151 0.56388 0.22489 0.0
C50 C 0.4597 0.63478 0.2451 0.0
C51 C 0.4895 0.59068 0.24984 0.0
O52 O 0.43184 0.46345 0.15462 0.0
C53 C 0.59089 0.51783 0.18051 0.0
O54 O 0.58932 0.50381 0.2332 0.0
H55 H 0.38589 0.53831 0.20735 0.0
H56 H 0.53072 0.59236 0.25444 0.0
N57 N 0.50176 0.42904 0.24168 0.0
N58 N 0.5361 0.34916 0.25243 0.0
C59 C 0.51714 0.38495 0.21706 0.0
C60 C 0.51032 0.42117 0.29525 0.0
C61 C 0.53188 0.37169 0.30199 0.0
C62 C 0.42125 0.47973 0.10674 0.0
O63 O 0.45239 0.51551 0.07814 0.0
H64 H 0.51903 0.38196 0.17278 0.0
H65 H 0.50498 0.45076 0.32615 0.0
O66 O 0.54929 0.51405 0.15542 0.0
H67 H 0.47368 0.67656 0.24681 0.0
H68 H 0.54609 0.35525 0.33964 0.0
Zn69 Zn 0.119 0.15269 0.90869 0.0
Zn70 Zn 0.09144 0.13344 0.04088 0.0
O71 O 0.09384 0.0959 0.96931 0.0
H72 H 0.08134 0.05916 0.9641 0.0
C73 C 0.94083 0.27896 0.92396 0.0
O74 O 0.90958 0.30133 0.95961 0.0
Zn75 Zn 0.91143 0.88604 0.07877 0.0
Zn76 Zn 0.90649 0.85956 0.94982 0.0
O77 O 0.91069 0.92083 1.00303 0.0
H78 H 0.91761 0.95874 0.99301 0.0
Zn79 Zn 0.90185 0.17233 0.98193 0.0
O80 O 0.93244 0.1005 1.00049 0.0
Zn81 Zn 0.90281 0.08464 0.07732 0.0
H82 H 0.96265 0.08582 0.983 0.0
Zn83 Zn 0.06062 0.84317 0.98773 0.0
O84 O 0.05014 0.92274 1.00089 0.0
H85 H 0.02369 0.94516 0.98809 0.0
Zn86 Zn 0.09608 0.93475 0.0633 0.0
C87 C 0.00242 0.75368 0.93639 0.0
O88 O 0.00366 0.73153 0.9862 0.0
O89 O 0.14321 0.22539 0.93915 0.0
O90 O 0.12131 0.21098 0.02854 0.0
O91 O 0.88293 0.78685 0.98947 0.0
O92 O 0.88362 0.80765 0.07738 0.0
O93 O 0.83344 0.18636 0.02723 0.0
O94 O 0.83461 0.11831 0.08972 0.0
C95 C 0.13926 0.04589 0.09979 0.0
O96 O 0.1286 0.81718 1.01813 0.0
O97 O 0.16033 0.89256 0.05341 0.0
O98 O 0.86948 0.87181 0.87749 0.0
C99 C 0.14094 0.24148 0.98816 0.0
O100 O 0.16135 0.13125 0.83802 0.0
C101 C 0.86475 0.97705 0.12742 0.0
O102 O 0.94301 0.22783 0.92571 0.0
C103 C 0.87458 0.77388 0.04049 0.0
O104 O 0.0233 0.80106 0.92633 0.0
C105 C 0.99486 0.1368 0.1206 0.0
O106 O 0.13698 0.09674 0.09294 0.0
O107 O 0.11134 0.01541 0.07105 0.0
C108 C 0.81289 0.15852 0.06908 0.0
O109 O 0.86499 0.92583 0.13045 0.0
O110 O 0.89578 0.0038 0.0926 0.0
C111 C 0.01365 0.88681 0.14045 0.0
O112 O 0.94775 0.12084 0.13049 0.0
O113 O 0.01759 0.12586 0.07483 0.0
C114 C 0.16475 0.8436 0.04064 0.0
O115 O 0.061 0.90255 0.13379 0.0
O116 O 0.9851 0.89485 0.10057 0.0
C117 C 0.82464 0.88991 0.88137 0.0
O118 O 0.8056 0.90324 0.92982 0.0
C119 C 0.20896 0.12311 0.84182 0.0
O120 O 0.22849 0.12583 0.89022 0.0
H121 H 0.10785 0.41815 0.28203 0.0
H122 H 0.98327 0.12331 0.23194 0.0
H123 H 0.00656 0.32633 0.40295 0.0
H124 H 0.05574 0.22997 0.10241 0.0
H125 H 0.00349 0.19108 0.29885 0.0
H126 H 0.09937 0.34466 0.21924 0.0
C127 C 0.08391 0.38235 0.2955 0.0
C128 C 0.05801 0.37833 0.34804 0.0
C129 C 0.01611 0.19921 0.25596 0.0
C130 C 0.04812 0.29365 0.27595 0.0
C131 C 0.00514 0.16032 0.21784 0.0
C132 C 0.0193 0.17044 0.16161 0.0
C133 C 0.0411 0.24893 0.23772 0.0
C134 C 0.04643 0.21948 0.14542 0.0
C135 C 0.07899 0.34042 0.25948 0.0
C136 C 0.02684 0.33128 0.36275 0.0
N137 N 0.05611 0.25709 0.18319 0.0
N138 N 0.0229 0.29066 0.32696 0.0
H139 H 0.57021 0.06319 0.26308 0.0
H140 H 0.86859 0.99796 0.23573 0.0
H141 H 0.66129 0.02916 0.40151 0.0
H142 H 0.77302 0.01263 0.09817 0.0
H143 H 0.79777 0.02783 0.29643 0.0
H144 H 0.64872 0.06477 0.20199 0.0
C145 C 0.60678 0.05695 0.28083 0.0
C146 C 0.60888 0.04496 0.33749 0.0
C147 C 0.7925 0.02546 0.25283 0.0
C148 C 0.69882 0.0459 0.26758 0.0
C149 C 0.83295 0.0087 0.21831 0.0
C150 C 0.82647 0.00365 0.16212 0.0
C151 C 0.74503 0.03628 0.23096 0.0
C152 C 0.77943 0.01679 0.14134 0.0
C153 C 0.65159 0.05759 0.24583 0.0
C154 C 0.65756 0.0378 0.35806 0.0
N155 N 0.74028 0.03211 0.17584 0.0
N156 N 0.7004 0.03758 0.32306 0.0
H157 H 0.05269 0.69584 0.43219 0.0
H158 H 0.93086 0.81234 0.1616 0.0
H159 H 0.922 0.61845 0.35919 0.0
H160 H 0.05804 0.89139 0.23828 0.0
H161 H 0.91795 0.7482 0.24107 0.0
H162 H 0.04782 0.774 0.36839 0.0
C163 C 0.02273 0.69544 0.40312 0.0
C164 C 0.98815 0.65021 0.40067 0.0
C165 C 0.94814 0.78019 0.24092 0.0
C166 C 0.98231 0.73947 0.32734 0.0
C167 C 0.95512 0.8171 0.1956 0.0
C168 C 0.99595 0.85673 0.19269 0.0
C169 C 0.9824 0.78307 0.28351 0.0
C170 C 0.02649 0.86089 0.23826 0.0
C171 C 0.01987 0.74011 0.36669 0.0
C172 C 0.94988 0.65215 0.36227 0.0
N173 N 0.01959 0.82413 0.28128 0.0
N174 N 0.94831 0.6957 0.32685 0.0
H175 H 0.36065 0.02743 0.34893 0.0
H176 H 0.14996 0.94058 0.13908 0.0
H177 H 0.34374 0.8649 0.29342 0.0
H178 H 0.20834 0.10456 0.15641 0.0
H179 H 0.21029 0.90977 0.20519 0.0
H180 H 0.29325 0.05368 0.28976 0.0
C181 C 0.34224 0.99696 0.32498 0.0
C182 C 0.35797 0.94377 0.32626 0.0
C183 C 0.20987 0.95246 0.19421 0.0
C184 C 0.28094 0.97399 0.25749 0.0
C185 C 0.17554 0.97003 0.15604 0.0
C186 C 0.17437 0.02504 0.14079 0.0
C187 C 0.24284 0.99042 0.21797 0.0
C188 C 0.20778 0.06159 0.16619 0.0
C189 C 0.30404 0.01217 0.2907 0.0
C190 C 0.33313 0.90641 0.2933 0.0
N191 N 0.24049 0.04366 0.20333 0.0
N192 N 0.29582 0.92222 0.26017 0.0
H193 H 0.92346 0.49253 0.72856 0.0
H194 H 0.9855 0.78865 0.83073 0.0
H195 H 0.91053 0.63723 0.62702 0.0
H196 H 0.96787 0.64698 0.94059 0.0
H197 H 0.95431 0.73426 0.75664 0.0
H198 H 0.93397 0.54802 0.80782 0.0
C199 C 0.9219 0.5358 0.72278 0.0
C200 C 0.91745 0.56003 0.67017 0.0
C201 C 0.95686 0.71512 0.79707 0.0
C202 C 0.93027 0.62424 0.76142 0.0
C203 C 0.97485 0.74619 0.8394 0.0
C204 C 0.97994 0.72232 0.89193 0.0
C205 C 0.94432 0.65954 0.807 0.0
C206 C 0.96502 0.66712 0.90072 0.0
C207 C 0.92825 0.56763 0.7683 0.0
C208 C 0.91544 0.61662 0.66618 0.0
N209 N 0.94847 0.63756 0.85863 0.0
N210 N 0.92268 0.64671 0.7108 0.0
H211 H 0.45699 0.02684 0.62132 0.0
H212 H 0.18685 0.1324 0.73295 0.0
H213 H 0.35471 0.10589 0.51497 0.0
H214 H 0.30833 0.09183 0.83793 0.0
H215 H 0.24485 0.11817 0.65223 0.0
H216 H 0.40068 0.04661 0.70084 0.0
C217 C 0.4228 0.04872 0.61469 0.0
C218 C 0.41054 0.0647 0.56132 0.0
C219 C 0.25876 0.11251 0.69296 0.0
C220 C 0.34533 0.08691 0.65249 0.0
C221 C 0.22561 0.12032 0.73907 0.0
C222 C 0.2427 0.11321 0.79237 0.0
C223 C 0.30918 0.09693 0.70021 0.0
C224 C 0.29343 0.09782 0.79773 0.0
C225 C 0.39064 0.06001 0.6602 0.0
C226 C 0.36577 0.09305 0.55537 0.0
N227 N 0.32472 0.09001 0.75232 0.0
N228 N 0.33449 0.10285 0.60039 0.0
H229 H 0.04021 0.52497 0.6725 0.0
H230 H 0.01791 0.2475 0.85266 0.0
H231 H 0.12095 0.38364 0.6305 0.0
H232 H 0.93568 0.3872 0.89703 0.0
H233 H 0.06534 0.30157 0.77814 0.0
H234 H 0.01364 0.4814 0.76275 0.0
C235 C 0.05349 0.48541 0.68266 0.0
C236 C 0.08241 0.45765 0.64346 0.0
C237 C 0.03721 0.32063 0.80435 0.0
C238 C 0.05036 0.4069 0.74586 0.0
C239 C 0.00991 0.28964 0.84689 0.0
C240 C 0.97217 0.31258 0.88082 0.0
C241 C 0.0266 0.37505 0.79511 0.0
C242 C 0.9641 0.36767 0.87168 0.0
C243 C 0.03766 0.46026 0.73396 0.0
C244 C 0.09815 0.40633 0.65906 0.0
N245 N 0.99066 0.39685 0.82936 0.0
N246 N 0.08126 0.38234 0.70854 0.0
H247 H 0.58312 0.94588 0.65984 0.0
H248 H 0.84373 0.84765 0.78028 0.0
H249 H 0.6768 0.82962 0.58131 0.0
H250 H 0.73198 0.93574 0.87303 0.0
H251 H 0.7871 0.84666 0.7035 0.0
H252 H 0.64089 0.94806 0.73527 0.0
C253 C 0.61595 0.92087 0.65844 0.0
C254 C 0.62522 0.88761 0.61415 0.0
C255 C 0.77506 0.86626 0.74065 0.0
C256 C 0.69164 0.88985 0.70045 0.0
C257 C 0.80748 0.86712 0.78438 0.0
C258 C 0.79254 0.89179 0.83322 0.0
C259 C 0.72756 0.89061 0.7456 0.0
C260 C 0.74503 0.91614 0.83626 0.0
C261 C 0.6488 0.92194 0.70164 0.0
C262 C 0.66796 0.85545 0.61488 0.0
N263 N 0.71429 0.91497 0.79308 0.0
N264 N 0.69978 0.85758 0.65721 0.0
H265 H 0.33357 0.4456 0.167 0.0
H266 H 0.20414 0.30833 0.91704 0.0
H267 H 0.39677 0.46816 0.99915 0.0
H268 H 0.143 0.29148 0.08621 0.0
H269 H 0.26533 0.38015 0.94238 0.0
H270 H 0.25537 0.40251 0.13466 0.0
C271 C 0.33082 0.44161 0.12313 0.0
C272 C 0.37209 0.45937 0.0857 0.0
C273 C 0.23787 0.36141 0.97371 0.0
C274 C 0.2825 0.40947 0.04822 0.0
C275 C 0.20271 0.32048 0.95927 0.0
C276 C 0.16906 0.2929 0.99983 0.0
C277 C 0.23937 0.37475 0.02904 0.0
C278 C 0.16878 0.31081 0.05371 0.0
C279 C 0.28598 0.41719 0.10463 0.0
C280 C 0.36596 0.45443 0.02931 0.0
N281 N 0.20395 0.34997 0.06684 0.0
N282 N 0.32225 0.42898 1.01224 0.0
H283 H 0.3545 0.59045 0.14301 0.0
H284 H 0.24139 0.88099 0.10481 0.0
H285 H 0.39265 0.72221 0.24664 0.0
H286 H 0.18853 0.73959 0.02201 0.0
H287 H 0.30405 0.82731 0.15002 0.0
H288 H 0.29917 0.64755 0.09359 0.0
C289 C 0.35069 0.6311 0.15634 0.0
C290 C 0.37789 0.65103 0.20018 0.0
C291 C 0.27901 0.80822 0.1216 0.0
C292 C 0.31494 0.71779 0.1416 0.0
C293 C 0.24336 0.83888 0.0955 0.0
C294 C 0.20904 0.81463 0.06003 0.0
C295 C 0.28069 0.75304 0.11174 0.0
C296 C 0.2138 0.76001 0.04929 0.0
C297 C 0.31933 0.66407 0.12731 0.0
C298 C 0.3724 0.70507 0.21335 0.0
N299 N 0.24865 0.73106 0.07529 0.0
N300 N 0.34147 0.73661 0.18422 0.0
H301 H 0.61735 0.30795 0.30268 0.0
H302 H 0.73327 0.20962 0.02484 0.0
H303 H 0.52377 0.28892 0.16351 0.0
H304 H 0.78466 0.14648 0.17854 0.0
H305 H 0.65733 0.24233 0.07511 0.0
H306 H 0.67944 0.24881 0.26056 0.0
C307 C 0.60913 0.29039 0.26402 0.0
C308 C 0.56594 0.30466 0.23588 0.0
C309 C 0.6849 0.22057 0.09766 0.0
C310 C 0.63742 0.23854 0.18693 0.0
C311 C 0.72829 0.20231 0.06905 0.0
C312 C 0.7651 0.17538 0.09762 0.0
C313 C 0.67917 0.21311 0.15529 0.0
C314 C 0.75687 0.16677 0.15496 0.0
C315 C 0.64476 0.25691 0.23983 0.0
C316 C 0.55743 0.28052 0.18577 0.0
N317 N 0.71516 0.18636 0.18212 0.0
N318 N 0.59346 0.24975 0.16223 0.0
H319 H 0.60936 0.55472 0.07272 0.0
H320 H 0.83442 0.69829 0.97325 0.0
H321 H 0.68287 0.53807 0.22631 0.0
H322 H 0.84907 0.7306 0.14468 0.0
H323 H 0.77157 0.62371 1.00077 0.0
H324 H 0.68702 0.6053 0.03249 0.0
C325 C 0.64218 0.56082 0.09765 0.0
C326 C 0.6394 0.54262 0.15309 0.0
C327 C 0.7885 0.64712 0.03232 0.0
C328 C 0.72879 0.59973 0.10722 0.0
C329 C 0.82494 0.68935 1.01673 0.0
C330 C 0.84604 0.72178 0.05671 0.0
C331 C 0.77312 0.63734 0.08827 0.0
C332 C 0.83302 0.70748 0.11238 0.0
C333 C 0.68681 0.58928 0.0745 0.0
C334 C 0.68308 0.55171 0.18351 0.0
N335 N 0.79694 0.66668 0.12646 0.0
N336 N 0.7256 0.58037 0.16044 0.0
loop_
_geom_bond_atom_site_label_1
_geom_bond_atom_site_label_2
_geom_bond_distance
_geom_bond_site_symmetry_2
_ccdc_geom_bond_type
Cu0 N1 1.999 . S
Cu0 O6 1.974 . S
Cu0 N11 1.985 . S
Cu0 O20 1.959 . S
N1 Cu0 1.999 . S
N1 C3 1.263 . S
N1 C5 1.389 . S
N2 C3 1.358 . S
N2 C4 1.400 . S
C3 N1 1.263 . S
C3 N2 1.358 . S
C3 H9 0.930 1_455 S
C4 N2 1.400 . S
C4 C5 1.351 . S
C4 H21 0.930 . S
C5 N1 1.389 . S
C5 C4 1.351 . S
C5 H10 0.930 . S
O6 Cu0 1.974 . S
O6 C16 1.282 1_455 S
C7 O8 1.261 . S
C7 O20 1.251 1_655 S
O8 C7 1.261 . S
H9 C3 0.930 1_655 S
H10 C5 0.930 . S
N11 Cu0 1.985 . S
N11 C13 1.335 . S
N11 C14 1.390 1_455 S
N12 C13 1.345 . S
N12 C15 1.336 1_455 S
C13 N11 1.335 . S
C13 N12 1.345 . S
C13 H18 0.930 . S
C14 N11 1.390 1_655 S
C14 C15 1.346 . S
C14 H19 0.930 . S
C15 N12 1.336 1_655 S
C15 C14 1.346 . S
C15 H22 0.929 . S
C16 O6 1.282 1_655 S
C16 O17 1.216 . S
O17 C16 1.216 . S
H18 C13 0.930 . S
H19 C14 0.930 . S
O20 Cu0 1.959 . S
O20 C7 1.251 1_455 S
H21 C4 0.930 . S
H22 C15 0.929 . S
Cu23 N24 1.999 . S
Cu23 O29 1.974 . S
Cu23 N34 1.985 . S
Cu23 O43 1.959 . S
N24 Cu23 1.999 . S
N24 C26 1.263 . S
N24 C28 1.389 . S
N25 C26 1.358 . S
N25 C27 1.400 . S
C26 N24 1.263 . S
C26 N25 1.358 . S
C26 H32 0.930 1_565 S
C27 N25 1.400 . S
C27 C28 1.351 . S
C27 H44 0.930 . S
C28 N24 1.389 . S
C28 C27 1.351 . S
C28 H33 0.930 . S
O29 Cu23 1.974 . S
O29 C39 1.282 1_565 S
C30 O31 1.261 . S
C30 O43 1.251 1_545 S
O31 C30 1.261 . S
H32 C26 0.930 1_545 S
H33 C28 0.930 . S
N34 Cu23 1.985 . S
N34 C36 1.335 . S
N34 C37 1.390 1_565 S
N35 C36 1.345 . S
N35 C38 1.336 1_565 S
C36 N34 1.335 . S
C36 N35 1.345 . S
C36 H41 0.930 . S
C37 N34 1.390 1_545 S
C37 C38 1.346 . S
C37 H42 0.930 . S
C38 N35 1.336 1_545 S
C38 C37 1.346 . S
C38 H45 0.929 . S
C39 O29 1.282 1_545 S
C39 O40 1.216 . S
O40 C39 1.216 . S
H41 C36 0.930 . S
H42 C37 0.930 . S
O43 Cu23 1.959 . S
O43 C30 1.251 1_565 S
H44 C27 0.930 . S
H45 C38 0.929 . S
Cu46 N47 1.999 . S
Cu46 O52 1.973 . S
Cu46 N57 1.985 1_556 S
Cu46 O66 1.959 . S
N47 Cu46 1.999 . S
N47 C49 1.263 1_556 S
N47 C51 1.389 . S
N48 C49 1.358 1_556 S
N48 C50 1.400 . S
C49 N47 1.263 1_554 S
C49 N48 1.358 1_554 S
C49 H55 0.930 . S
C50 N48 1.400 . S
C50 C51 1.351 . S
C50 H67 0.930 . S
C51 N47 1.389 . S
C51 C50 1.351 . S
C51 H56 0.930 . S
O52 Cu46 1.973 . S
O52 C62 1.270 1_556 S
C53 O54 1.261 . S
C53 O66 1.251 1_554 S
O54 C53 1.261 . S
H55 C49 0.930 . S
H56 C51 0.930 . S
N57 Cu46 1.985 1_554 S
N57 C59 1.335 1_554 S
N57 C60 1.390 . S
N58 C59 1.345 1_554 S
N58 C61 1.336 . S
C59 N57 1.335 1_556 S
C59 N58 1.345 1_556 S
C59 H64 0.930 . S
C60 N57 1.390 . S
C60 C61 1.346 . S
C60 H65 0.930 . S
C61 N58 1.336 . S
C61 C60 1.346 . S
C61 H68 0.929 . S
C62 O52 1.270 1_554 S
C62 O63 1.216 . S
O63 C62 1.216 . S
H64 C59 0.930 . S
H65 C60 0.930 . S
O66 Cu46 1.959 . S
O66 C53 1.251 1_556 S
H67 C50 0.930 . S
H68 C61 0.929 . S
Zn69 O71 1.933 1_556 S
Zn69 O89 1.985 . S
Zn69 O100 1.955 . S
Zn70 O71 1.911 . S
Zn70 O90 1.970 . S
Zn70 O106 1.945 . S
Zn70 O113 1.981 . S
O71 Zn69 1.933 1_554 S
O71 Zn70 1.911 . S
O71 H72 0.841 . S
H72 O71 0.841 . S
C73 O74 1.246 . S
C73 O102 1.276 1_455 S
O74 C73 1.246 . S
Zn75 O77 1.911 . S
Zn75 O92 1.970 . S
Zn75 O109 1.945 . S
Zn75 O116 1.981 . S
Zn76 O77 1.933 1_556 S
Zn76 O91 1.985 . S
Zn76 O98 1.955 . S
O77 Zn75 1.911 . S
O77 Zn76 1.933 1_554 S
O77 H78 0.841 . S
H78 O77 0.841 . S
Zn79 O80 1.933 1_556 S
Zn79 O93 1.985 . S
Zn79 O102 1.955 . S
O80 Zn79 1.933 1_554 S
O80 Zn81 1.911 . S
O80 H82 0.841 . S
Zn81 O80 1.911 . S
Zn81 O94 1.970 . S
Zn81 O110 1.981 . S
Zn81 O112 1.945 . S
H82 O80 0.841 . S
Zn83 O84 1.933 1_556 S
Zn83 O96 1.985 . S
Zn83 O104 1.955 . S
O84 Zn83 1.933 1_554 S
O84 H85 0.841 . S
O84 Zn86 1.911 . S
H85 O84 0.841 . S
Zn86 O84 1.911 . S
Zn86 O97 1.970 . S
Zn86 O107 1.981 . S
Zn86 O115 1.945 . S
C87 O88 1.246 . S
C87 O104 1.276 1_655 S
O88 C87 1.246 . S
O89 Zn69 1.985 . S
O89 C99 1.245 1_556 S
O90 Zn70 1.970 . S
O90 C99 1.263 . S
O91 Zn76 1.985 . S
O91 C103 1.245 1_556 S
O92 Zn75 1.970 . S
O92 C103 1.263 . S
O93 Zn79 1.985 . S
O93 C108 1.245 1_556 S
O94 Zn81 1.970 . S
O94 C108 1.263 . S
C95 O106 1.280 . S
C95 O107 1.235 1_545 S
O96 Zn83 1.985 . S
O96 C114 1.245 1_556 S
O97 Zn86 1.970 . S
O97 C114 1.263 . S
O98 Zn76 1.955 . S
O98 C117 1.276 1_565 S
C99 O89 1.245 1_554 S
C99 O90 1.263 . S
O100 Zn69 1.955 . S
O100 C119 1.276 . S
C101 O109 1.262 . S
C101 O110 1.245 1_565 S
O102 C73 1.276 1_655 S
O102 Zn79 1.955 . S
C103 O91 1.245 1_554 S
C103 O92 1.263 . S
O104 Zn83 1.955 . S
O104 C87 1.276 1_455 S
C105 O112 1.262 1_455 S
C105 O113 1.245 . S
O106 Zn70 1.945 . S
O106 C95 1.280 . S
O107 Zn86 1.981 . S
O107 C95 1.235 1_565 S
C108 O93 1.245 1_554 S
C108 O94 1.263 . S
O109 Zn75 1.945 . S
O109 C101 1.262 . S
O110 Zn81 1.981 . S
O110 C101 1.245 1_545 S
C111 O115 1.262 1_655 S
C111 O116 1.245 . S
O112 Zn81 1.945 . S
O112 C105 1.262 1_655 S
O113 Zn70 1.981 . S
O113 C105 1.245 . S
C114 O96 1.245 1_554 S
C114 O97 1.263 . S
O115 Zn86 1.945 . S
O115 C111 1.262 1_455 S
O116 Zn75 1.981 . S
O116 C111 1.245 . S
C117 O98 1.276 1_545 S
C117 O118 1.246 . S
O118 C117 1.246 . S
C119 O100 1.276 . S
C119 O120 1.246 1_545 S
O120 C119 1.246 1_565 S
H121 C127 0.930 . S
H122 C131 0.930 . S
H123 C136 0.929 . S
H124 C134 0.929 . S
H125 C129 0.929 . S
H126 C135 0.929 . S
C127 H121 0.930 . S
C127 C128 1.367 . S
C127 C135 1.378 . S
C128 C127 1.367 . S
C128 C136 1.433 1_455 S
C129 H125 0.929 . S
C129 C131 1.378 . S
C129 C133 1.350 1_655 S
C130 C133 1.463 . S
C130 C135 1.350 . S
C130 N138 1.427 1_455 S
C131 H122 0.930 . S
C131 C129 1.378 . S
C131 C132 1.367 1_655 S
C132 C131 1.367 1_455 S
C132 C134 1.433 . S
C133 C129 1.350 1_455 S
C133 C130 1.463 . S
C133 N137 1.427 . S
C134 H124 0.929 . S
C134 C132 1.433 . S
C134 N137 1.384 . S
C135 H126 0.929 . S
C135 C127 1.378 . S
C135 C130 1.350 . S
C136 H123 0.929 . S
C136 C128 1.433 1_655 S
C136 N138 1.384 . S
N137 C133 1.427 . S
N137 C134 1.384 . S
N138 C130 1.427 1_655 S
N138 C136 1.384 . S
H139 C145 0.930 . S
H140 C149 0.930 . S
H141 C154 0.929 . S
H142 C152 0.929 . S
H143 C147 0.929 . S
H144 C153 0.929 . S
C145 H139 0.930 . S
C145 C146 1.367 . S
C145 C153 1.378 . S
C146 C145 1.367 . S
C146 C154 1.433 1_545 S
C147 H143 0.929 . S
C147 C149 1.378 . S
C147 C151 1.350 1_565 S
C148 C151 1.463 . S
C148 C153 1.350 . S
C148 N156 1.427 1_545 S
C149 H140 0.930 . S
C149 C147 1.378 . S
C149 C150 1.367 1_565 S
C150 C149 1.367 1_545 S
C150 C152 1.433 . S
C151 C147 1.350 1_545 S
C151 C148 1.463 . S
C151 N155 1.427 . S
C152 H142 0.929 . S
C152 C150 1.433 . S
C152 N155 1.384 . S
C153 H144 0.929 . S
C153 C145 1.378 . S
C153 C148 1.350 . S
C154 H141 0.929 . S
C154 C146 1.433 1_565 S
C154 N156 1.384 . S
N155 C151 1.427 . S
N155 C152 1.384 . S
N156 C148 1.427 1_565 S
N156 C154 1.384 . S
H157 C163 0.930 . S
H158 C167 0.930 . S
H159 C172 0.929 . S
H160 C170 0.929 . S
H161 C165 0.929 . S
H162 C171 0.929 . S
C163 H157 0.930 . S
C163 C164 1.367 1_455 S
C163 C171 1.378 . S
C164 C163 1.367 1_655 S
C164 C172 1.433 . S
C165 H161 0.929 . S
C165 C167 1.378 . S
C165 C169 1.350 . S
C166 C169 1.463 . S
C166 C171 1.350 1_655 S
C166 N174 1.427 . S
C167 H158 0.930 . S
C167 C165 1.378 . S
C167 C168 1.367 . S
C168 C167 1.367 . S
C168 C170 1.433 1_655 S
C169 C165 1.350 . S
C169 C166 1.463 . S
C169 N173 1.427 1_655 S
C170 H160 0.929 . S
C170 C168 1.433 1_455 S
C170 N173 1.384 . S
C171 H162 0.929 . S
C171 C163 1.378 . S
C171 C166 1.350 1_455 S
C172 H159 0.929 . S
C172 C164 1.433 . S
C172 N174 1.384 . S
N173 C169 1.427 1_455 S
N173 C170 1.384 . S
N174 C166 1.427 . S
N174 C172 1.384 . S
H175 C181 0.930 . S
H176 C185 0.930 . S
H177 C190 0.929 . S
H178 C188 0.929 . S
H179 C183 0.929 . S
H180 C189 0.929 . S
C181 H175 0.930 . S
C181 C182 1.367 1_545 S
C181 C189 1.378 . S
C182 C181 1.367 1_565 S
C182 C190 1.433 . S
C183 H179 0.929 . S
C183 C185 1.378 . S
C183 C187 1.350 . S
C184 C187 1.463 . S
C184 C189 1.350 1_565 S
C184 N192 1.427 . S
C185 H176 0.930 . S
C185 C183 1.378 . S
C185 C186 1.367 . S
C186 C185 1.367 . S
C186 C188 1.433 1_565 S
C187 C183 1.350 . S
C187 C184 1.463 . S
C187 N191 1.427 1_565 S
C188 H178 0.929 . S
C188 C186 1.433 1_545 S
C188 N191 1.384 . S
C189 H180 0.929 . S
C189 C181 1.378 . S
C189 C184 1.350 1_545 S
C190 H177 0.929 . S
C190 C182 1.433 . S
C190 N192 1.384 . S
N191 C187 1.427 1_545 S
N191 C188 1.384 . S
N192 C184 1.427 . S
N192 C190 1.384 . S
H193 C199 0.930 . S
H194 C203 0.930 . S
H195 C208 0.929 . S
H196 C206 0.929 . S
H197 C201 0.929 1_455 S
H198 C207 0.928 1_655 S
C199 H193 0.930 . S
C199 C200 1.367 . S
C199 C207 1.378 . S
C200 C199 1.367 . S
C200 C208 1.433 . S
C201 H197 0.929 1_655 S
C201 C203 1.378 . S
C201 C205 1.350 . S
C202 C205 1.463 1_455 S
C202 C207 1.350 . S
C202 N210 1.427 . S
C203 H194 0.930 . S
C203 C201 1.378 . S
C203 C204 1.367 . S
C204 C203 1.367 . S
C204 C206 1.433 . S
C205 C201 1.350 . S
C205 C202 1.463 1_655 S
C205 N209 1.427 . S
C206 H196 0.929 . S
C206 C204 1.433 . S
C206 N209 1.384 . S
C207 H198 0.928 1_455 S
C207 C199 1.378 . S
C207 C202 1.350 . S
C208 H195 0.929 . S
C208 C200 1.433 . S
C208 N210 1.384 . S
N209 C205 1.427 . S
N209 C206 1.384 . S
N210 C202 1.427 . S
N210 C208 1.384 . S
H211 C217 0.930 . S
H212 C221 0.930 . S
H213 C226 0.929 . S
H214 C224 0.929 . S
H215 C219 0.929 . S
H216 C225 0.929 . S
C217 H211 0.930 . S
C217 C218 1.367 1_565 S
C217 C225 1.378 . S
C218 C217 1.367 1_545 S
C218 C226 1.433 . S
C219 H215 0.929 . S
C219 C221 1.378 . S
C219 C223 1.350 . S
C220 C223 1.463 . S
C220 C225 1.350 1_545 S
C220 N228 1.427 . S
C221 H212 0.930 . S
C221 C219 1.378 . S
C221 C222 1.367 1_545 S
C222 C221 1.367 1_565 S
C222 C224 1.433 . S
C223 C219 1.350 . S
C223 C220 1.463 . S
C223 N227 1.427 1_545 S
C224 H214 0.929 . S
C224 C222 1.433 . S
C224 N227 1.384 . S
C225 H216 0.929 . S
C225 C217 1.378 . S
C225 C220 1.350 1_565 S
C226 H213 0.929 . S
C226 C218 1.433 . S
C226 N228 1.384 . S
N227 C223 1.427 1_565 S
N227 C224 1.384 . S
N228 C220 1.427 . S
N228 C226 1.384 . S
H229 C235 0.930 . S
H230 C239 0.930 . S
H231 C244 0.929 . S
H232 C242 0.929 . S
H233 C237 0.929 . S
H234 C243 0.929 . S
C235 H229 0.930 . S
C235 C236 1.367 1_455 S
C235 C243 1.378 . S
C236 C235 1.367 1_655 S
C236 C244 1.433 . S
C237 H233 0.929 . S
C237 C239 1.378 . S
C237 C241 1.350 1_655 S
C238 C241 1.463 . S
C238 C243 1.350 . S
C238 N246 1.427 1_455 S
C239 H230 0.930 . S
C239 C237 1.378 . S
C239 C240 1.367 1_655 S
C240 C239 1.367 1_455 S
C240 C242 1.433 . S
C241 C237 1.350 1_455 S
C241 C238 1.463 . S
C241 N245 1.427 . S
C242 H232 0.929 . S
C242 C240 1.433 . S
C242 N245 1.384 . S
C243 H234 0.929 . S
C243 C235 1.378 . S
C243 C238 1.350 . S
C244 H231 0.929 . S
C244 C236 1.433 . S
C244 N246 1.384 . S
N245 C241 1.427 . S
N245 C242 1.384 . S
N246 C238 1.427 1_655 S
N246 C244 1.384 . S
H247 C253 0.930 . S
H248 C257 0.930 . S
H249 C262 0.929 . S
H250 C260 0.929 . S
H251 C255 0.929 . S
H252 C261 0.929 . S
C253 H247 0.930 . S
C253 C254 1.367 1_545 S
C253 C261 1.378 . S
C254 C253 1.367 1_565 S
C254 C262 1.433 . S
C255 H251 0.929 . S
C255 C257 1.378 . S
C255 C259 1.350 1_565 S
C256 C259 1.463 . S
C256 C261 1.350 . S
C256 N264 1.427 1_545 S
C257 H248 0.930 . S
C257 C255 1.378 . S
C257 C258 1.367 1_565 S
C258 C257 1.367 1_545 S
C258 C260 1.433 . S
C259 C255 1.350 1_545 S
C259 C256 1.463 . S
C259 N263 1.427 . S
C260 H250 0.929 . S
C260 C258 1.433 . S
C260 N263 1.384 . S
C261 H252 0.929 . S
C261 C253 1.378 . S
C261 C256 1.350 . S
C262 H249 0.929 . S
C262 C254 1.433 . S
C262 N264 1.384 . S
N263 C259 1.427 . S
N263 C260 1.384 . S
N264 C256 1.427 1_565 S
N264 C262 1.384 . S
H265 C271 0.930 . S
H266 C275 0.930 . S
H267 C280 0.929 1_556 S
H268 C278 0.929 . S
H269 C273 0.929 . S
H270 C279 0.929 . S
C271 H265 0.930 . S
C271 C272 1.367 . S
C271 C279 1.378 . S
C272 C271 1.367 . S
C272 C280 1.433 . S
C273 H269 0.929 . S
C273 C275 1.378 . S
C273 C277 1.350 1_556 S
C274 C277 1.463 . S
C274 C279 1.350 . S
C274 N282 1.420 1_554 S
C275 H266 0.930 . S
C275 C273 1.378 . S
C275 C276 1.367 1_556 S
C276 C275 1.367 1_554 S
C276 C278 1.433 . S
C277 C273 1.350 1_554 S
C277 C274 1.463 . S
C277 N281 1.427 . S
C278 H268 0.929 . S
C278 C276 1.433 . S
C278 N281 1.384 . S
C279 H270 0.929 . S
C279 C271 1.378 . S
C279 C274 1.350 . S
C280 H267 0.929 1_554 S
C280 C272 1.433 . S
C280 N282 1.381 1_554 S
N281 C277 1.427 . S
N281 C278 1.384 . S
N282 C274 1.420 1_556 S
N282 C280 1.381 1_556 S
H283 C289 0.930 . S
H284 C293 0.930 . S
H285 C298 0.929 . S
H286 C296 0.929 . S
H287 C291 0.929 . S
H288 C297 0.929 . S
C289 H283 0.930 . S
C289 C290 1.367 1_556 S
C289 C297 1.378 . S
C290 C289 1.367 1_554 S
C290 C298 1.433 . S
C291 H287 0.929 . S
C291 C293 1.378 . S
C291 C295 1.350 . S
C292 C295 1.463 . S
C292 C297 1.350 1_554 S
C292 N300 1.427 . S
C293 H284 0.930 . S
C293 C291 1.378 . S
C293 C294 1.367 . S
C294 C293 1.367 . S
C294 C296 1.433 1_554 S
C295 C291 1.350 . S
C295 C292 1.463 . S
C295 N299 1.427 1_554 S
C296 H286 0.929 . S
C296 C294 1.433 1_556 S
C296 N299 1.384 . S
C297 H288 0.929 . S
C297 C289 1.378 . S
C297 C292 1.350 1_556 S
C298 H285 0.929 . S
C298 C290 1.433 . S
C298 N300 1.384 . S
N299 C295 1.427 1_556 S
N299 C296 1.384 . S
N300 C292 1.427 . S
N300 C298 1.384 . S
H301 C307 0.930 . S
H302 C311 0.930 . S
H303 C316 0.929 . S
H304 C314 0.929 . S
H305 C309 0.929 . S
H306 C315 0.929 . S
C307 H301 0.930 . S
C307 C308 1.367 . S
C307 C315 1.378 . S
C308 C307 1.367 . S
C308 C316 1.433 1_554 S
C309 H305 0.929 . S
C309 C311 1.378 . S
C309 C313 1.350 1_556 S
C310 C313 1.463 . S
C310 C315 1.350 . S
C310 N318 1.427 1_554 S
C311 H302 0.930 . S
C311 C309 1.378 . S
C311 C312 1.367 1_556 S
C312 C311 1.367 1_554 S
C312 C314 1.433 . S
C313 C309 1.350 1_554 S
C313 C310 1.463 . S
C313 N317 1.427 . S
C314 H304 0.929 . S
C314 C312 1.433 . S
C314 N317 1.384 . S
C315 H306 0.929 . S
C315 C307 1.378 . S
C315 C310 1.350 . S
C316 H303 0.929 . S
C316 C308 1.433 1_556 S
C316 N318 1.384 . S
N317 C313 1.427 . S
N317 C314 1.384 . S
N318 C310 1.427 1_556 S
N318 C316 1.384 . S
H319 C325 0.930 . S
H320 C329 0.930 1_556 S
H321 C334 0.929 1_556 S
H322 C332 0.929 . S
H323 C327 0.929 1_556 S
H324 C333 0.929 . S
C325 H319 0.930 . S
C325 C326 1.367 . S
C325 C333 1.378 . S
C326 C325 1.367 . S
C326 C334 1.433 . S
C327 H323 0.929 1_554 S
C327 C329 1.378 . S
C327 C331 1.350 . S
C328 C331 1.463 . S
C328 C333 1.350 . S
C328 N336 1.427 . S
C329 H320 0.930 1_554 S
C329 C327 1.378 . S
C329 C330 1.367 . S
C330 C329 1.367 . S
C330 C332 1.433 . S
C331 C327 1.350 . S
C331 C328 1.463 . S
C331 N335 1.427 . S
C332 H322 0.929 . S
C332 C330 1.433 . S
C332 N335 1.384 . S
C333 H324 0.929 . S
C333 C325 1.378 . S
C333 C328 1.350 . S
C334 H321 0.929 1_554 S
C334 C326 1.433 . S
C334 N336 1.384 . S
N335 C331 1.427 . S
N335 C332 1.384 . S
N336 C328 1.427 . S
N336 C334 1.384 . S
C132 C105 1.350 . S
C128 N2 1.346 . S
C150 C101 1.719 1_545 S
C146 C39 1.784 . S
C168 C111 1.569 . S
C164 C7 1.648 . S
C186 C95 1.513 1_565 S
C182 N35 1.521 . S
C200 N12 1.432 . S
C204 C87 1.421 . S
C222 C119 1.840 1_565 S
C218 C30 1.953 . S
C236 C16 1.756 . S
C240 C73 1.631 . S
C254 N25 1.694 . S
C258 C117 1.613 . S
C272 C62 1.319 . S
C276 C99 1.283 . S
C290 N48 1.070 1_554 S
C294 C114 1.092 . S
C312 C108 1.062 . S
C308 N58 1.034 . S
C330 C103 1.323 . S
C326 C53 1.349 . S
