# Generated by pormake.
# Topology soc, (4,6)-cn, num edge types: 1
# Building blocks:
#     Node 0, Type 0, BuildingBlock: ESEHIV_clean_sbu_0, # of connection points: 4
#     Node 1, Type 0, BuildingBlock: ESEHIV_clean_sbu_0, # of connection points: 4
#     Node 2, Type 0, BuildingBlock: ESEHIV_clean_sbu_0, # of connection points: 4
#     Node 3, Type 0, BuildingBlock: ESEHIV_clean_sbu_0, # of connection points: 4
#     Node 4, Type 0, BuildingBlock: ESEHIV_clean_sbu_0, # of connection points: 4
#     Node 5, Type 0, BuildingBlock: ESEHIV_clean_sbu_0, # of connection points: 4
#     Node 6, Type 0, BuildingBlock: ESEHIV_clean_sbu_0, # of connection points: 4
#     Node 7, Type 0, BuildingBlock: ESEHIV_clean_sbu_0, # of connection points: 4
#     Node 8, Type 0, BuildingBlock: ESEHIV_clean_sbu_0, # of connection points: 4
#     Node 9, Type 0, BuildingBlock: ESEHIV_clean_sbu_0, # of connection points: 4
#     Node 10, Type 0, BuildingBlock: ESEHIV_clean_sbu_0, # of connection points: 4
#     Node 11, Type 0, BuildingBlock: ESEHIV_clean_sbu_0, # of connection points: 4
#     Node 12, Type 1, BuildingBlock: KUMBOL_clean_sbu_0, # of connection points: 6
#     Node 13, Type 1, BuildingBlock: KUMBOL_clean_sbu_0, # of connection points: 6
#     Node 14, Type 1, BuildingBlock: KUMBOL_clean_sbu_0, # of connection points: 6
#     Node 15, Type 1, BuildingBlock: KUMBOL_clean_sbu_0, # of connection points: 6
#     Node 16, Type 1, BuildingBlock: KUMBOL_clean_sbu_0, # of connection points: 6
#     Node 17, Type 1, BuildingBlock: KUMBOL_clean_sbu_0, # of connection points: 6
#     Node 18, Type 1, BuildingBlock: KUMBOL_clean_sbu_0, # of connection points: 6
#     Node 19, Type 1, BuildingBlock: KUMBOL_clean_sbu_0, # of connection points: 6
#     Edge 20, Type (0, 1), BuildingBlock: CIFDUS_clean_linker_0, # of connection points: 2
#     Edge 21, Type (0, 1), BuildingBlock: CIFDUS_clean_linker_0, # of connection points: 2
#     Edge 22, Type (0, 1), BuildingBlock: CIFDUS_clean_linker_0, # of connection points: 2
#     Edge 23, Type (0, 1), BuildingBlock: CIFDUS_clean_linker_0, # of connection points: 2
#     Edge 24, Type (0, 1), BuildingBlock: CIFDUS_clean_linker_0, # of connection points: 2
#     Edge 25, Type (0, 1), BuildingBlock: CIFDUS_clean_linker_0, # of connection points: 2
#     Edge 26, Type (0, 1), BuildingBlock: CIFDUS_clean_linker_0, # of connection points: 2
#     Edge 27, Type (0, 1), BuildingBlock: CIFDUS_clean_linker_0, # of connection points: 2
#     Edge 28, Type (0, 1), BuildingBlock: CIFDUS_clean_linker_0, # of connection points: 2
#     Edge 29, Type (0, 1), BuildingBlock: CIFDUS_clean_linker_0, # of connection points: 2
#     Edge 30, Type (0, 1), BuildingBlock: CIFDUS_clean_linker_0, # of connection points: 2
#     Edge 31, Type (0, 1), BuildingBlock: CIFDUS_clean_linker_0, # of connection points: 2
#     Edge 32, Type (0, 1), BuildingBlock: CIFDUS_clean_linker_0, # of connection points: 2
#     Edge 33, Type (0, 1), BuildingBlock: CIFDUS_clean_linker_0, # of connection points: 2
#     Edge 34, Type (0, 1), BuildingBlock: CIFDUS_clean_linker_0, # of connection points: 2
#     Edge 35, Type (0, 1), BuildingBlock: CIFDUS_clean_linker_0, # of connection points: 2
#     Edge 36, Type (0, 1), BuildingBlock: CIFDUS_clean_linker_0, # of connection points: 2
#     Edge 37, Type (0, 1), BuildingBlock: CIFDUS_clean_linker_0, # of connection points: 2
#     Edge 38, Type (0, 1), BuildingBlock: CIFDUS_clean_linker_0, # of connection points: 2
#     Edge 39, Type (0, 1), BuildingBlock: CIFDUS_clean_linker_0, # of connection points: 2
#     Edge 40, Type (0, 1), BuildingBlock: CIFDUS_clean_linker_0, # of connection points: 2
#     Edge 41, Type (0, 1), BuildingBlock: CIFDUS_clean_linker_0, # of connection points: 2
#     Edge 42, Type (0, 1), BuildingBlock: CIFDUS_clean_linker_0, # of connection points: 2
#     Edge 43, Type (0, 1), BuildingBlock: CIFDUS_clean_linker_0, # of connection points: 2
#     Edge 44, Type (0, 1), BuildingBlock: CIFDUS_clean_linker_0, # of connection points: 2
#     Edge 45, Type (0, 1), BuildingBlock: CIFDUS_clean_linker_0, # of connection points: 2
#     Edge 46, Type (0, 1), BuildingBlock: CIFDUS_clean_linker_0, # of connection points: 2
#     Edge 47, Type (0, 1), BuildingBlock: CIFDUS_clean_linker_0, # of connection points: 2
#     Edge 48, Type (0, 1), BuildingBlock: CIFDUS_clean_linker_0, # of connection points: 2
#     Edge 49, Type (0, 1), BuildingBlock: CIFDUS_clean_linker_0, # of connection points: 2
#     Edge 50, Type (0, 1), BuildingBlock: CIFDUS_clean_linker_0, # of connection points: 2
#     Edge 51, Type (0, 1), BuildingBlock: CIFDUS_clean_linker_0, # of connection points: 2
#     Edge 52, Type (0, 1), BuildingBlock: CIFDUS_clean_linker_0, # of connection points: 2
#     Edge 53, Type (0, 1), BuildingBlock: CIFDUS_clean_linker_0, # of connection points: 2
#     Edge 54, Type (0, 1), BuildingBlock: CIFDUS_clean_linker_0, # of connection points: 2
#     Edge 55, Type (0, 1), BuildingBlock: CIFDUS_clean_linker_0, # of connection points: 2
#     Edge 56, Type (0, 1), BuildingBlock: CIFDUS_clean_linker_0, # of connection points: 2
#     Edge 57, Type (0, 1), BuildingBlock: CIFDUS_clean_linker_0, # of connection points: 2
#     Edge 58, Type (0, 1), BuildingBlock: CIFDUS_clean_linker_0, # of connection points: 2
#     Edge 59, Type (0, 1), BuildingBlock: CIFDUS_clean_linker_0, # of connection points: 2
#     Edge 60, Type (0, 1), BuildingBlock: CIFDUS_clean_linker_0, # of connection points: 2
#     Edge 61, Type (0, 1), BuildingBlock: CIFDUS_clean_linker_0, # of connection points: 2
#     Edge 62, Type (0, 1), BuildingBlock: CIFDUS_clean_linker_0, # of connection points: 2
#     Edge 63, Type (0, 1), BuildingBlock: CIFDUS_clean_linker_0, # of connection points: 2
#     Edge 64, Type (0, 1), BuildingBlock: CIFDUS_clean_linker_0, # of connection points: 2
#     Edge 65, Type (0, 1), BuildingBlock: CIFDUS_clean_linker_0, # of connection points: 2
#     Edge 66, Type (0, 1), BuildingBlock: CIFDUS_clean_linker_0, # of connection points: 2
#     Edge 67, Type (0, 1), BuildingBlock: CIFDUS_clean_linker_0, # of connection points: 2
# Relax obj value: 0.078
# Max RMSD: 0.222
# Mean RMSD: 0.148
data_MOF--net-soc--node1-ESEHIV_clean_sbu_0--node2-KUMBOL_clean_sbu_0--edge1-CIFDUS_clean_linker_0
_symmetry_space_group_name_H-M    P1
_symmetry_Int_Tables_number       1
_symmetry_cell_setting            triclinic
loop_
_symmetry_equiv_pos_as_xyz
'x, y, z'
_cell_length_a     46.593942
_cell_length_b     44.547916
_cell_length_c     36.822345
_cell_angle_alpha  83.213425
_cell_angle_beta   82.015943
_cell_angle_gamma 71.860351
loop_
_atom_site_label
_atom_site_type_symbol
_atom_site_fract_x
_atom_site_fract_y
_atom_site_fract_z
_atom_type_partial_charge
Cu0 Cu 0.04521 0.05686 0.35784 0.0
N1 N 0.05913 0.07358 0.3935 0.0
N2 N 0.07954 0.10328 0.42012 0.0
C3 C 0.07619 0.09349 0.38809 0.0
C4 C 0.06402 0.08903 0.44657 0.0
C5 C 0.05143 0.07073 0.43005 0.0
O6 O 0.07984 0.0308 0.32643 0.0
C7 C 0.9933 0.09725 0.31833 0.0
O8 O 0.99019 0.07203 0.30611 0.0
H9 H 0.08506 0.10144 0.36119 0.0
H10 H 0.03703 0.05693 0.44363 0.0
N11 N 0.0264 0.02794 0.38259 0.0
N12 N 0.99476 0.99891 0.399 0.0
C13 C 0.99829 0.02607 0.38139 0.0
C14 C 0.04085 1.00138 0.4022 0.0
C15 C 0.02143 0.98339 0.41232 0.0
C16 C 0.10409 0.01634 0.34157 0.0
O17 O 0.10592 0.02266 0.37493 0.0
H18 H 0.98122 0.04338 0.36657 0.0
H19 H 0.06429 0.99499 0.40761 0.0
O20 O 1.01572 0.09448 0.33615 0.0
H21 H 0.06177 0.09182 0.47574 0.0
H22 H 0.02677 0.96033 0.42744 0.0
Cu23 Cu 0.05368 0.0493 0.75742 0.0
N24 N 0.03616 0.02895 0.72897 0.0
N25 N 1.00525 1.00302 0.71607 0.0
C26 C 1.00977 0.02216 0.73905 0.0
C27 C 0.02949 0.99771 0.6904 0.0
C28 C 0.04845 0.01384 0.6983 0.0
O29 O 1.01894 0.081 0.78328 0.0
C30 C 0.10597 0.99915 0.76481 0.0
O31 O 0.10752 0.00738 0.72937 0.0
H32 H 0.99499 0.02971 0.76381 0.0
H33 H 0.07018 0.01347 0.68334 0.0
N34 N 0.07784 0.0715 0.72868 0.0
N35 N 0.10954 0.10075 0.71638 0.0
C36 C 0.0938 0.08691 0.74285 0.0
C37 C 0.08367 0.07569 0.69189 0.0
C38 C 0.10348 0.09366 0.68421 0.0
C39 C 1.01097 0.11015 0.77035 0.0
O40 O 0.02753 0.11927 0.74205 0.0
H41 H 0.09374 0.08802 0.77208 0.0
H42 H 0.07406 0.06666 0.67208 0.0
O43 O 0.08297 0.01504 0.78536 0.0
H44 H 0.03342 0.98279 0.66793 0.0
H45 H 0.11214 0.10157 0.65718 0.0
Cu46 Cu 0.32663 0.07048 0.10348 0.0
N47 N 0.35956 0.04594 0.07463 0.0
N48 N 0.38104 0.00974 0.03414 0.0
C49 C 0.3549 0.0281 0.05053 0.0
C50 C 0.40333 0.01627 0.04856 0.0
C51 C 0.38994 0.03902 0.0734 0.0
O52 O 0.30804 0.03735 0.12722 0.0
C53 C 0.32212 0.11839 0.0479 0.0
O54 O 0.34951 0.11313 0.05747 0.0
H55 H 0.33251 0.02725 0.04688 0.0
H56 H 0.40157 0.04895 0.08998 0.0
N57 N 0.33941 0.09025 0.13793 0.0
N58 N 0.34217 0.12624 0.17425 0.0
C59 C 0.32621 0.11951 0.14978 0.0
C60 C 0.36445 0.07803 0.15542 0.0
C61 C 0.3663 0.1 0.17756 0.0
C62 C 0.31043 0.02522 0.16047 0.0
O63 O 0.31952 0.03969 0.18363 0.0
H64 H 0.30518 0.13527 0.1408 0.0
H65 H 0.38019 0.05458 0.15254 0.0
O66 O 0.30519 0.10297 0.06663 0.0
H67 H 0.42742 1.00482 0.04241 0.0
H68 H 0.38434 0.09663 0.19458 0.0
Cu69 Cu 0.07098 0.31038 0.11309 0.0
N70 N 0.0849 0.33433 0.07098 0.0
N71 N 0.11227 0.34682 0.01841 0.0
C72 C 0.11073 0.32504 0.04722 0.0
C73 C 0.08664 0.37109 0.02504 0.0
C74 C 0.07004 0.36335 0.05681 0.0
O75 O 0.10174 0.30249 0.15009 0.0
C76 C 0.06433 0.27048 0.05937 0.0
O77 O 0.0891 0.27354 0.03973 0.0
H78 H 0.12734 0.30201 0.04982 0.0
H79 H 0.0481 0.37774 0.06801 0.0
N80 N 0.0313 0.33046 0.13754 0.0
N81 N 0.98379 0.33451 0.16611 0.0
C82 C 1.01172 0.31478 0.15512 0.0
C83 C 1.01506 0.3613 0.13806 0.0
C84 C 0.98604 0.36382 0.15526 0.0
C85 C 0.13059 0.2905 0.14266 0.0
O86 O 0.14045 0.27712 0.11157 0.0
H87 H 1.01754 0.2892 0.15861 0.0
H88 H 0.02343 0.38079 0.12644 0.0
O89 O 0.05964 0.27653 0.09321 0.0
H90 H 0.07978 0.393 1.00792 0.0
H91 H 0.96796 0.38568 0.15955 0.0
Cu92 Cu 0.78153 0.02523 1.00404 0.0
N93 N 0.79931 0.05057 0.97001 0.0
N94 N 0.80493 0.09634 0.94229 0.0
C95 C 0.78644 0.08204 0.96419 0.0
C96 C 0.83041 0.07242 0.93355 0.0
C97 C 0.82686 0.04429 0.95065 0.0
O98 O 0.7564 0.05543 0.03929 0.0
C99 C 0.78326 0.97743 0.96232 0.0
O100 O 0.81214 0.97459 0.96259 0.0
H101 H 0.76411 0.09409 0.9769 0.0
H102 H 0.84357 0.02118 0.94992 0.0
N103 N 0.80923 0.99522 0.032 0.0
N104 N 0.82413 0.95911 0.0784 0.0
C105 C 0.80043 0.97772 0.06109 0.0
C106 C 0.83967 0.98744 0.03057 0.0
C107 C 0.84894 0.9651 0.05928 0.0
C108 C 0.7728 0.06575 0.05687 0.0
O109 O 0.80247 0.05492 0.05035 0.0
H110 H 0.77685 0.97964 0.07014 0.0
H111 H 0.85402 0.99775 1.01076 0.0
O112 O 0.76343 1.00028 0.97825 0.0
H113 H 0.85076 0.07486 0.91706 0.0
H114 H 0.87208 0.95436 0.06574 0.0
Cu115 Cu 0.03681 0.77175 0.01968 0.0
N116 N 1.01927 0.75855 0.98321 0.0
N117 N 0.98845 0.75817 0.94123 0.0
C118 C 0.99162 0.77201 0.9708 0.0
C119 C 1.01498 0.7351 0.93517 0.0
C120 C 0.03375 0.73542 0.9608 0.0
O121 O 1.00224 0.79067 0.06014 0.0
C122 C 0.09569 0.7724 0.97755 0.0
O123 O 0.09839 0.74206 0.98017 0.0
H124 H 0.97469 0.79232 0.98224 0.0
H125 H 0.05679 0.7203 0.96218 0.0
N126 N 0.06111 0.73777 0.04682 0.0
N127 N 0.10042 0.71838 0.0799 0.0
C128 C 0.07762 0.74396 0.07037 0.0
C129 C 0.07306 0.70663 0.04206 0.0
C130 C 0.09775 0.69466 0.0622 0.0
C131 C 0.99057 0.77129 0.08204 0.0
O132 O 1.001 0.74115 0.07595 0.0
H133 H 0.07543 0.76786 0.07634 0.0
H134 H 0.06654 0.69435 0.02252 0.0
O135 O 0.07021 0.79122 0.99208 0.0
H136 H 1.02061 0.71919 0.91344 0.0
H137 H 0.11398 0.67124 0.06126 0.0
Cu138 Cu 0.54945 0.54331 0.86488 0.0
N139 N 0.55725 0.56816 0.8973 0.0
N140 N 0.57458 0.60225 0.92087 0.0
C141 C 0.57705 0.58517 0.89197 0.0
C142 C 0.55274 0.59522 0.94537 0.0
C143 C 0.54208 0.57431 0.93072 0.0
O144 O 0.5892 0.5199 0.83908 0.0
C145 C 0.50645 0.60038 0.83737 0.0
O146 O 0.52572 0.61361 0.8464 0.0
H147 H 0.59186 0.5861 0.86674 0.0
H148 H 0.52404 0.56472 0.9432 0.0
N149 N 0.53606 0.51262 0.89442 0.0
N150 N 0.5124 0.47612 0.91351 0.0
C151 C 0.51418 0.50055 0.88862 0.0
C152 C 0.54852 0.49568 0.92398 0.0
C153 C 0.53397 0.47323 0.93591 0.0
C154 C 0.59528 0.4906 0.83351 0.0
O155 O 0.57275 0.4783 0.83675 0.0
H156 H 0.50057 0.50925 0.86595 0.0
H157 H 0.56743 0.49892 0.93538 0.0
O158 O 0.51423 0.57007 0.83854 0.0
H159 H 0.54479 0.60469 0.97193 0.0
H160 H 0.53964 0.45574 0.95882 0.0
Cu161 Cu 0.54939 0.55669 0.26404 0.0
N162 N 0.53553 0.53549 0.23286 0.0
N163 N 0.50704 0.50856 0.21617 0.0
C164 C 0.50777 0.53143 0.23662 0.0
C165 C 0.53531 0.49779 0.19887 0.0
C166 C 0.55286 0.51453 0.20918 0.0
O167 O 0.51392 0.58755 0.28856 0.0
C168 C 0.60493 0.51225 0.27943 0.0
O169 O 0.61406 0.52648 0.2488 0.0
H170 H 0.48919 0.54317 0.25612 0.0
H171 H 0.57703 0.51021 0.20198 0.0
N172 N 0.57167 0.5822 0.23846 0.0
N173 N 0.59688 0.61805 0.23167 0.0
C174 C 0.58341 0.59989 0.25558 0.0
C175 C 0.57789 0.5891 0.20224 0.0
C176 C 0.59358 0.61124 0.19794 0.0
C177 C 0.49867 0.60815 0.26556 0.0
O178 O 0.50692 0.60467 0.23032 0.0
H179 H 0.58186 0.59933 0.28521 0.0
H180 H 0.57092 0.57931 0.18064 0.0
O181 O 0.57716 0.5225 0.2932 0.0
H182 H 0.54296 0.47837 0.18127 0.0
H183 H 0.60107 0.62213 0.17204 0.0
Cu184 Cu 0.81766 0.5766 0.61873 0.0
N185 N 0.83876 0.59514 0.57989 0.0
N186 N 0.84739 0.62155 0.52563 0.0
C187 C 0.82796 0.60843 0.54775 0.0
C188 C 0.87131 0.61625 0.54517 0.0
C189 C 0.86588 0.60015 0.57844 0.0
O190 O 0.80157 0.60873 0.65552 0.0
C191 C 0.80636 0.53947 0.57304 0.0
O192 O 0.83561 0.53599 0.56638 0.0
H193 H 0.80597 0.60866 0.54126 0.0
H194 H 0.88045 0.59329 0.6003 0.0
N195 N 0.84258 0.53921 0.64121 0.0
N196 N 0.85491 0.48857 0.66457 0.0
C197 C 0.83217 0.51541 0.65797 0.0
C198 C 0.87305 0.52707 0.63734 0.0
C199 C 0.8807 0.49593 0.65181 0.0
C200 C 0.82165 0.61247 0.67359 0.0
O201 O 0.84969 0.59404 0.66784 0.0
H202 H 0.8083 0.51702 0.66245 0.0
H203 H 0.88858 0.53923 0.623 0.0
O204 O 0.79063 0.55968 0.59578 0.0
H205 H 0.89123 0.62391 0.53675 0.0
H206 H 0.90345 0.47962 0.6516 0.0
Cu207 Cu 0.57326 0.81262 0.5973 0.0
N208 N 0.60836 0.7905 0.56436 0.0
N209 N 0.64777 0.78417 0.51805 0.0
C210 C 0.61963 0.80257 0.5314 0.0
C211 C 0.6543 0.75955 0.54392 0.0
C212 C 0.63046 0.76351 0.572 0.0
O213 O 0.59188 0.83317 0.62775 0.0
C214 C 0.53945 0.82622 0.5417 0.0
O215 O 0.55289 0.79552 0.54196 0.0
H216 H 0.60792 0.82529 0.51823 0.0
H217 H 0.62994 0.7483 0.5971 0.0
N218 N 0.54651 0.79075 0.62809 0.0
N219 N 0.50599 0.78008 0.6649 0.0
C220 C 0.51829 0.80293 0.64725 0.0
C221 C 0.55168 0.75925 0.63361 0.0
C222 C 0.52743 0.75276 0.65581 0.0
C223 C 0.60294 0.81797 0.65676 0.0
O224 O 0.59742 0.79108 0.66846 0.0
H225 H 0.50719 0.82809 0.64867 0.0
H226 H 0.57182 0.74196 0.6221 0.0
O227 O 0.54589 0.84147 0.56496 0.0
H228 H 0.67507 0.73997 0.54298 0.0
H229 H 0.52577 0.72923 0.6645 0.0
Cu230 Cu 0.27823 0.53453 0.51557 0.0
N231 N 0.29862 0.55956 0.48296 0.0
N232 N 0.30414 0.60388 0.4498 0.0
C233 C 0.28541 0.59057 0.47303 0.0
C234 C 0.33026 0.57995 0.44467 0.0
C235 C 0.32681 0.55279 0.465 0.0
O236 O 0.25224 0.56622 0.54813 0.0
C237 C 0.27737 0.49282 0.46733 0.0
O238 O 0.30646 0.48819 0.46884 0.0
H239 H 0.26216 0.60301 0.48251 0.0
H240 H 0.34374 0.52983 0.46647 0.0
N241 N 0.30251 0.50096 0.54548 0.0
N242 N 0.31495 0.46373 0.59261 0.0
C243 C 0.29212 0.48504 0.57557 0.0
C244 C 0.33293 0.48897 0.54315 0.0
C245 C 0.34061 0.46615 0.5719 0.0
C246 C 0.26438 0.57098 0.57511 0.0
O247 O 0.29105 0.55187 0.5823 0.0
H248 H 0.26828 0.48998 0.58553 0.0
H249 H 0.34855 0.49658 0.5224 0.0
O250 O 0.25838 0.51437 0.48595 0.0
H251 H 0.35071 0.58192 0.42795 0.0
H252 H 0.36352 0.45251 0.57709 0.0
Cu253 Cu 0.51916 0.29935 0.52274 0.0
N254 N 0.55608 0.2782 0.4942 0.0
N255 N 0.60172 0.27482 0.46114 0.0
C256 C 0.57407 0.29409 0.47357 0.0
C257 C 0.60096 0.24543 0.47442 0.0
C258 C 0.57301 0.24755 0.49467 0.0
O259 O 0.5347 0.32689 0.54846 0.0
C260 C 0.47582 0.29523 0.47914 0.0
O261 O 0.48722 0.26572 0.49211 0.0
H262 H 0.56753 0.31969 0.46959 0.0
H263 H 0.56623 0.22819 0.50997 0.0
N264 N 0.50154 0.27635 0.5621 0.0
N265 N 0.46871 0.26858 0.61123 0.0
C266 C 0.47679 0.28984 0.58545 0.0
C267 C 0.50942 0.24532 0.57347 0.0
C268 C 0.48941 0.24051 0.60351 0.0
C269 C 0.55562 0.30964 0.56795 0.0
O270 O 0.56063 0.27881 0.57038 0.0
H271 H 0.46518 0.31502 0.58367 0.0
H272 H 0.52833 0.22735 0.56088 0.0
O273 O 0.48686 0.31607 0.4883 0.0
H274 H 0.61945 0.22385 0.47039 0.0
H275 H 0.49 0.21783 0.61816 0.0
Gd276 Gd 0.30794 0.3286 0.28284 0.0
Gd277 Gd 0.26974 0.29414 0.36338 0.0
C278 C 0.22602 0.35818 0.45678 0.0
C279 C 0.25497 0.33032 0.50716 0.0
C280 C 0.26567 0.30874 0.44741 0.0
C281 C 0.24353 0.33444 0.43371 0.0
C282 C 0.27108 0.30586 0.48457 0.0
C283 C 0.23247 0.35647 0.49326 0.0
C284 C 0.20173 0.38214 0.44297 0.0
C285 C 0.1948 0.3813 0.40748 0.0
N286 N 0.23758 0.33495 0.3986 0.0
C287 C 0.21295 0.3573 0.38562 0.0
H288 H 0.20754 0.35713 0.35811 0.0
C289 C 0.29878 0.2572 0.4388 0.0
N290 N 0.28027 0.28533 0.42504 0.0
C291 C 0.30518 0.25331 0.47536 0.0
C292 C 0.29162 0.27794 0.49824 0.0
H293 H 0.3093 0.23814 0.42111 0.0
H294 H 0.2195 0.37467 0.51129 0.0
H295 H 0.374 0.26975 0.28261 0.0
H296 H 0.18769 0.4008 0.4598 0.0
H297 H 0.17566 0.39932 0.39679 0.0
H298 H 0.25902 0.32873 0.53569 0.0
H299 H 0.25856 0.38174 0.23181 0.0
H300 H 0.39315 0.23111 0.17785 0.0
H301 H 0.40682 0.23086 0.24046 0.0
H302 H 0.31419 0.29993 0.10955 0.0
H303 H 0.3205 0.23131 0.48588 0.0
H304 H 0.2964 0.27479 0.52665 0.0
H305 H 0.35825 0.25682 0.12929 0.0
H306 H 0.24427 0.38913 0.16823 0.0
N307 N 0.34169 0.29153 0.24452 0.0
C308 C 0.3787 0.24836 0.19618 0.0
C309 C 0.38653 0.24819 0.23147 0.0
C310 C 0.35275 0.27132 0.18464 0.0
C311 C 0.33461 0.29309 0.20966 0.0
C312 C 0.36787 0.27034 0.25528 0.0
N313 N 0.29328 0.33832 0.22307 0.0
C314 C 0.30975 0.31728 0.19854 0.0
C315 C 0.2626 0.36873 0.17648 0.0
C316 C 0.27822 0.34635 0.15143 0.0
C317 C 0.27075 0.36459 0.2123 0.0
C318 C 0.30238 0.32045 0.16215 0.0
H319 H 0.27185 0.34962 0.1237 0.0
O320 O 0.31075 0.3762 0.2689 0.0
O321 O 0.28408 0.33526 0.33843 0.0
O322 O 0.2375 0.31546 0.31828 0.0
O323 O 0.26852 0.31673 0.26329 0.0
O324 O 0.27221 0.37354 0.30216 0.0
O325 O 0.35209 0.33699 0.27465 0.0
O326 O 0.26468 0.24709 0.37513 0.0
O327 O 0.2957 0.2862 0.30856 0.0
O328 O 0.34169 0.30688 0.32654 0.0
O329 O 0.31352 0.29612 0.38189 0.0
O330 O 0.30698 0.24958 0.34885 0.0
O331 O 0.22495 0.2878 0.36901 0.0
C332 C 0.2691 0.36421 0.33664 0.0
C333 C 0.31968 0.2981 0.13754 0.0
C334 C 0.34478 0.27355 0.14878 0.0
C335 C 0.34039 0.36731 0.26623 0.0
C336 C 0.35573 0.3818 0.23462 0.0
C337 C 0.3464 0.38513 0.19933 0.0
C338 C 0.37877 0.39437 0.24033 0.0
C339 C 0.39172 0.41101 0.21121 0.0
C340 C 0.35941 0.40146 0.17032 0.0
C341 C 0.38177 0.41462 0.17624 0.0
C342 C 0.2421 0.31596 0.28169 0.0
C343 C 0.3127 0.25829 0.31466 0.0
C344 C 0.23519 0.2573 0.37677 0.0
C345 C 0.21859 0.24374 0.40767 0.0
C346 C 0.21904 0.25005 0.44394 0.0
C347 C 0.20251 0.22361 0.4006 0.0
C348 C 0.18713 0.20925 0.42965 0.0
C349 C 0.20394 0.23586 0.47297 0.0
C350 C 0.1882 0.21547 0.466 0.0
C351 C 0.3391 0.29884 0.36275 0.0
H352 H 0.32877 0.37562 0.19428 0.0
H353 H 0.38605 0.39194 0.26753 0.0
H354 H 0.35196 0.40415 0.14323 0.0
H355 H 0.39154 0.42734 0.15347 0.0
H356 H 0.23108 0.26576 0.44983 0.0
H357 H 0.2018 0.21944 0.37237 0.0
H358 H 0.20456 0.24055 0.50099 0.0
H359 H 0.17715 0.20435 0.48911 0.0
Gd360 Gd 0.77653 0.28667 0.27891 0.0
Gd361 Gd 0.81101 0.31891 0.34213 0.0
C362 C 0.886 0.36259 0.29257 0.0
C363 C 0.92982 0.32706 0.32001 0.0
C364 C 0.8805 0.31758 0.33404 0.0
C365 C 0.86759 0.34429 0.31111 0.0
C366 C 0.91155 0.30947 0.33947 0.0
C367 C 0.91709 0.3535 0.29664 0.0
C368 C 0.87273 0.38968 0.2704 0.0
C369 C 0.8419 0.39807 0.26681 0.0
N370 N 0.83734 0.3526 0.30708 0.0
C371 C 0.82456 0.37922 0.28507 0.0
H372 H 0.8015 0.38567 0.27915 0.0
C373 C 0.87335 0.27833 0.38056 0.0
N374 N 0.86259 0.3006 0.35265 0.0
C375 C 0.90386 0.26955 0.38675 0.0
C376 C 0.92323 0.28467 0.36551 0.0
H377 H 0.85854 0.2665 0.39742 0.0
H378 H 0.93145 0.3671 0.2822 0.0
H379 H 0.79744 0.21983 0.33553 0.0
H380 H 0.88615 0.40416 0.25573 0.0
H381 H 0.83152 0.41871 0.24914 0.0
H382 H 0.95372 0.32086 0.32355 0.0
H383 H 0.72009 0.33812 0.23388 0.0
H384 H 0.71886 0.19074 0.3735 0.0
H385 H 0.77419 0.18157 0.37055 0.0
H386 H 0.63839 0.27209 0.32096 0.0
H387 H 0.9124 0.25112 0.40792 0.0
H388 H 0.94689 0.27787 0.37043 0.0
H389 H 0.66833 0.22519 0.35607 0.0
H390 H 0.66466 0.35052 0.23404 0.0
N391 N 0.75601 0.25084 0.31781 0.0
C392 C 0.72903 0.20764 0.35764 0.0
C393 C 0.76024 0.20241 0.3561 0.0
C394 C 0.71126 0.23472 0.3389 0.0
C395 C 0.72561 0.256 0.31848 0.0
C396 C 0.77341 0.22435 0.33605 0.0
N397 N 0.72317 0.302 0.27801 0.0
C398 C 0.70867 0.28259 0.29869 0.0
C399 C 0.67665 0.33164 0.25274 0.0
C400 C 0.661 0.31376 0.2763 0.0
C401 C 0.70799 0.3247 0.25302 0.0
C402 C 0.67708 0.2883 0.2988 0.0
H403 H 0.63673 0.31895 0.27578 0.0
O404 O 0.76846 0.28674 0.22229 0.0
O405 O 0.81584 0.30377 0.28535 0.0
O406 O 0.77425 0.36014 0.31918 0.0
O407 O 0.74653 0.33693 0.28906 0.0
O408 O 0.79786 0.31719 0.23608 0.0
O409 O 0.7857 0.24207 0.25405 0.0
O410 O 0.80846 0.31006 0.40179 0.0
O411 O 0.77898 0.29021 0.33847 0.0
O412 O 0.82151 0.24997 0.28827 0.0
O413 O 0.83888 0.26659 0.33673 0.0
O414 O 0.76356 0.3274 0.37188 0.0
O415 O 0.81435 0.35452 0.3753 0.0
C416 C 0.81942 0.31815 0.2541 0.0
C417 C 0.66266 0.26782 0.32024 0.0
C418 C 0.67972 0.24104 0.34009 0.0
C419 C 0.77633 0.25596 0.22285 0.0
C420 C 0.79207 0.24152 0.18883 0.0
C421 C 0.81795 0.24878 0.171 0.0
C422 C 0.77972 0.22173 0.17277 0.0
C423 C 0.79269 0.20989 0.13847 0.0
C424 C 0.83116 0.23677 0.13724 0.0
C425 C 0.81858 0.21767 0.12097 0.0
C426 C 0.75044 0.36158 0.30237 0.0
C427 C 0.75668 0.3047 0.36046 0.0
C428 C 0.80996 0.33826 0.4064 0.0
C429 C 0.78915 0.35647 0.43598 0.0
C430 C 0.76349 0.3482 0.45303 0.0
C431 C 0.79587 0.38213 0.44819 0.0
C432 C 0.77783 0.39902 0.47782 0.0
C433 C 0.74502 0.36522 0.4816 0.0
C434 C 0.75214 0.39024 0.49409 0.0
C435 C 0.841 0.24555 0.31284 0.0
H436 H 0.82764 0.26402 0.18294 0.0
H437 H 0.75951 0.21638 0.1864 0.0
H438 H 0.85108 0.24251 0.12345 0.0
H439 H 0.8293 0.20871 0.09475 0.0
H440 H 0.75777 0.32849 0.4446 0.0
H441 H 0.81548 0.38865 0.43459 0.0
H442 H 0.72535 0.35858 0.49467 0.0
H443 H 0.73795 0.402 0.51723 0.0
Gd444 Gd 0.83021 0.81103 0.32486 0.0
Gd445 Gd 0.80259 0.76576 0.26919 0.0
C446 C 0.87153 0.67545 0.22564 0.0
C447 C 0.89378 0.69573 0.16818 0.0
C448 C 0.85394 0.73139 0.20657 0.0
C449 C 0.85278 0.70646 0.2321 0.0
C450 C 0.87366 0.72609 0.17358 0.0
C451 C 0.89283 0.67045 0.1943 0.0
C452 C 0.86714 0.65016 0.24974 0.0
C453 C 0.84311 0.65585 0.2777 0.0
N454 N 0.83123 0.712 0.26134 0.0
C455 C 0.82467 0.68688 0.28231 0.0
H456 H 0.80554 0.69091 0.30342 0.0
C457 C 0.83147 0.78453 0.18545 0.0
N458 N 0.83436 0.76048 0.21279 0.0
C459 C 0.85038 0.78042 0.15229 0.0
C460 C 0.87202 0.75124 0.14659 0.0
H461 H 0.81449 0.80699 0.18845 0.0
H462 H 0.9077 0.64691 0.18919 0.0
H463 H 0.76167 0.86094 0.30919 0.0
H464 H 0.88112 0.62605 0.24581 0.0
H465 H 0.83851 0.63632 0.29543 0.0
H466 H 0.90949 0.69138 0.1434 0.0
H467 H 0.87854 0.77455 0.38813 0.0
H468 H 0.70898 0.88277 0.41248 0.0
H469 H 0.71425 0.88958 0.34451 0.0
H470 H 0.7759 0.82293 0.50049 0.0
H471 H 0.84824 0.79983 0.13116 0.0
H472 H 0.88676 0.74815 0.12095 0.0
H473 H 0.73197 0.85745 0.47042 0.0
H474 H 0.87732 0.76512 0.45552 0.0
N475 N 0.78328 0.83762 0.35637 0.0
C476 C 0.72998 0.87016 0.39706 0.0
C477 C 0.73285 0.87401 0.35871 0.0
C478 C 0.75427 0.85016 0.41507 0.0
C479 C 0.78112 0.83422 0.39371 0.0
C480 C 0.75984 0.85763 0.33871 0.0
N481 N 0.83146 0.80032 0.38922 0.0
C482 C 0.80582 0.81475 0.4106 0.0
C483 C 0.85693 0.77886 0.44329 0.0
C484 C 0.83019 0.79198 0.46558 0.0
C485 C 0.85738 0.78396 0.40507 0.0
C486 C 0.80438 0.81073 0.44937 0.0
H487 H 0.82994 0.78822 0.49522 0.0
O488 O 0.8668 0.82621 0.33992 0.0
O489 O 0.83883 0.78973 0.26987 0.0
O490 O 0.82254 0.73419 0.31875 0.0
O491 O 0.84965 0.76039 0.34519 0.0
O492 O 0.8763 0.78423 0.29693 0.0
O493 O 0.82915 0.86022 0.31504 0.0
O494 O 0.76348 0.78984 0.2399 0.0
O495 O 0.79209 0.79153 0.32029 0.0
O496 O 0.81468 0.84242 0.2748 0.0
O497 O 0.78775 0.81734 0.24669 0.0
O498 O 0.76688 0.7618 0.31719 0.0
O499 O 0.77636 0.73894 0.25033 0.0
C500 C 0.86786 0.77867 0.26703 0.0
C501 C 0.77748 0.82594 0.47071 0.0
C502 C 0.7525 0.84565 0.4536 0.0
C503 C 0.85331 0.856 0.33139 0.0
C504 C 0.85074 0.87796 0.35934 0.0
C505 C 0.82332 0.88991 0.38152 0.0
C506 C 0.87597 0.88748 0.36353 0.0
C507 C 0.87388 0.90895 0.38958 0.0
C508 C 0.82132 0.9106 0.40801 0.0
C509 C 0.84642 0.92015 0.41206 0.0
C510 C 0.84105 0.73538 0.34236 0.0
C511 C 0.77057 0.78137 0.33791 0.0
C512 C 0.75584 0.76426 0.23896 0.0
C513 C 0.72396 0.76597 0.25139 0.0
C514 C 0.70518 0.79015 0.27289 0.0
C515 C 0.71221 0.74288 0.24179 0.0
C516 C 0.68183 0.74391 0.25323 0.0
C517 C 0.67503 0.79143 0.28418 0.0
C518 C 0.66333 0.76863 0.27432 0.0
C519 C 0.7975 0.84176 0.24956 0.0
H520 H 0.80332 0.88368 0.37812 0.0
H521 H 0.89693 0.87885 0.34581 0.0
H522 H 0.80016 0.91953 0.42516 0.0
H523 H 0.84435 0.93638 0.43267 0.0
H524 H 0.71375 0.80807 0.281 0.0
H525 H 0.72697 0.72387 0.22591 0.0
H526 H 0.66063 0.81021 0.30057 0.0
H527 H 0.63969 0.77056 0.28299 0.0
Gd528 Gd 0.32071 0.82486 0.33814 0.0
Gd529 Gd 0.28703 0.80178 0.26683 0.0
C530 C 0.23675 0.73307 0.32561 0.0
C531 C 0.2664 0.68344 0.30037 0.0
C532 C 0.27983 0.73189 0.27988 0.0
C533 C 0.25565 0.74888 0.30313 0.0
C534 C 0.28486 0.69914 0.27762 0.0
C535 C 0.24249 0.70034 0.3244 0.0
C536 C 0.21275 0.75048 0.34906 0.0
C537 C 0.20779 0.78287 0.34962 0.0
N538 N 0.25093 0.78054 0.30443 0.0
C539 C 0.22701 0.79759 0.32706 0.0
H540 H 0.22233 0.82248 0.32877 0.0
C541 C 0.31888 0.73224 0.23173 0.0
N542 N 0.29814 0.74726 0.25905 0.0
C543 C 0.32471 0.69992 0.22854 0.0
C544 C 0.30804 0.68311 0.25212 0.0
H545 H 0.33132 0.7451 0.21237 0.0
H546 H 0.22839 0.68789 0.34175 0.0
H547 H 0.37754 0.81984 0.26749 0.0
H548 H 0.1979 0.73916 0.36681 0.0
H549 H 0.18919 0.7966 0.36764 0.0
H550 H 0.27024 0.65827 0.29933 0.0
H551 H 0.27689 0.86647 0.40584 0.0
H552 H 0.40369 0.90408 0.25933 0.0
H553 H 0.40978 0.85173 0.23793 0.0
H554 H 0.33883 0.9636 0.35513 0.0
H555 H 0.34188 0.68807 0.20767 0.0
H556 H 0.31257 0.65802 0.24961 0.0
H557 H 0.37708 0.9456 0.30291 0.0
H558 H 0.26945 0.91726 0.4322 0.0
N559 N 0.35302 0.8532 0.30634 0.0
C560 C 0.38949 0.88998 0.27285 0.0
C561 C 0.39302 0.86044 0.26073 0.0
C562 C 0.36768 0.901 0.30224 0.0
C563 C 0.34954 0.88185 0.31874 0.0
C564 C 0.37471 0.84219 0.27799 0.0
N565 N 0.30939 0.87421 0.36211 0.0
C566 C 0.3273 0.8925 0.34755 0.0
C567 C 0.28553 0.91078 0.40813 0.0
C568 C 0.30219 0.93096 0.39188 0.0
C569 C 0.28974 0.88214 0.39311 0.0
C570 C 0.32358 0.92184 0.36145 0.0
H571 H 0.2988 0.95323 0.40345 0.0
O572 O 0.32034 0.81083 0.3963 0.0
O573 O 0.30704 0.7859 0.31994 0.0
O574 O 0.25212 0.8473 0.28843 0.0
O575 O 0.27304 0.85955 0.33712 0.0
O576 O 0.29201 0.79717 0.37333 0.0
O577 O 0.36269 0.81227 0.36379 0.0
O578 O 0.29197 0.80117 0.20738 0.0
O579 O 0.3031 0.83938 0.28347 0.0
O580 O 0.35783 0.78449 0.31111 0.0
O581 O 0.33711 0.77347 0.26179 0.0
O582 O 0.31043 0.83304 0.22852 0.0
O583 O 0.24657 0.811 0.23892 0.0
C584 C 0.29429 0.77689 0.34997 0.0
C585 C 0.34156 0.94089 0.345 0.0
C586 C 0.36342 0.93059 0.31535 0.0
C587 C 0.34856 0.8098 0.39682 0.0
C588 C 0.35463 0.82689 0.42564 0.0
C589 C 0.33197 0.83867 0.4543 0.0
C590 C 0.38368 0.83001 0.42584 0.0
C591 C 0.39056 0.84364 0.45494 0.0
C592 C 0.33808 0.85372 0.48208 0.0
C593 C 0.36717 0.85594 0.48271 0.0
C594 C 0.25077 0.86517 0.31576 0.0
C595 C 0.31313 0.85044 0.25266 0.0
C596 C 0.26285 0.80672 0.20697 0.0
C597 C 0.24914 0.8096 0.17273 0.0
C598 C 0.26166 0.82244 0.14002 0.0
C599 C 0.22594 0.79592 0.17172 0.0
C600 C 0.21602 0.794 0.13799 0.0
C601 C 0.25123 0.82142 0.10657 0.0
C602 C 0.22874 0.80701 0.10544 0.0
C603 C 0.35986 0.76876 0.28192 0.0
H604 H 0.30949 0.83612 0.45554 0.0
H605 H 0.40113 0.82093 0.40379 0.0
H606 H 0.32044 0.86275 0.50393 0.0
H607 H 0.3715 0.86598 0.506 0.0
H608 H 0.27981 0.83279 0.14028 0.0
H609 H 0.21679 0.78522 0.19684 0.0
H610 H 0.26099 0.83131 0.08138 0.0
H611 H 0.22121 0.80607 0.07916 0.0
Gd612 Gd 0.28451 0.77193 0.78436 0.0
Gd613 Gd 0.30307 0.81086 0.85124 0.0
C614 C 0.38123 0.85172 0.81328 0.0
C615 C 0.41762 0.82403 0.85643 0.0
C616 C 0.36933 0.81292 0.86008 0.0
C617 C 0.36133 0.83462 0.83005 0.0
C618 C 0.39715 0.80823 0.87427 0.0
C619 C 0.40971 0.84565 0.82596 0.0
C620 C 0.37145 0.87533 0.78519 0.0
C621 C 0.34215 0.88205 0.77519 0.0
N622 N 0.3334 0.84048 0.81872 0.0
C623 C 0.32326 0.86437 0.79242 0.0
H624 H 0.30074 0.86974 0.78442 0.0
C625 C 0.35386 0.78068 0.91 0.0
N626 N 0.34915 0.79791 0.87686 0.0
C627 C 0.38112 0.77532 0.92506 0.0
C628 C 0.40309 0.78871 0.90679 0.0
H629 H 0.33671 0.77052 0.92421 0.0
H630 H 0.42539 0.85834 0.81315 0.0
H631 H 0.3197 0.69145 0.78862 0.0
H632 H 0.38603 0.88904 0.77172 0.0
H633 H 0.33416 0.90068 0.754 0.0
H634 H 0.43926 0.8204 0.86667 0.0
H635 H 0.21405 0.82203 0.77186 0.0
H636 H 0.26046 0.64585 0.85494 0.0
H637 H 0.31059 0.64339 0.82088 0.0
H638 H 0.16501 0.72675 0.86013 0.0
H639 H 0.38511 0.76099 0.95078 0.0
H640 H 0.42415 0.78463 0.91859 0.0
H641 H 0.20613 0.67717 0.86925 0.0
H642 H 0.16119 0.82645 0.79331 0.0
N643 N 0.27726 0.72268 0.81007 0.0
C644 C 0.26479 0.66743 0.84213 0.0
C645 C 0.29313 0.66596 0.82312 0.0
C646 C 0.24164 0.69625 0.8416 0.0
C647 C 0.2485 0.72376 0.82462 0.0
C648 C 0.29852 0.69364 0.80584 0.0
N649 N 0.23226 0.77745 0.80171 0.0
C650 C 0.22526 0.75168 0.81946 0.0
C651 C 0.17897 0.80553 0.80166 0.0
C652 C 0.17159 0.78039 0.82276 0.0
C653 C 0.20942 0.80331 0.79054 0.0
C654 C 0.19474 0.75274 0.83117 0.0
H655 H 0.14795 0.78213 0.83129 0.0
O656 O 0.27723 0.79118 0.72796 0.0
O657 O 0.31402 0.80244 0.79052 0.0
O658 O 0.26277 0.84642 0.82728 0.0
O659 O 0.26275 0.82512 0.77289 0.0
O660 O 0.33362 0.76304 0.7601 0.0
O661 O 0.27685 0.74341 0.74497 0.0
O662 O 0.28232 0.81927 0.90686 0.0
O663 O 0.26561 0.79261 0.83887 0.0
O664 O 0.3266 0.73593 0.8086 0.0
O665 O 0.33923 0.76347 0.85057 0.0
O666 O 0.28442 0.77493 0.88756 0.0
O667 O 0.29506 0.85678 0.8727 0.0
C668 C 0.33875 0.78717 0.77143 0.0
C669 C 0.18821 0.72608 0.85027 0.0
C670 C 0.21163 0.69791 0.85561 0.0
C671 C 0.27473 0.76518 0.71801 0.0
C672 C 0.28933 0.75443 0.68188 0.0
C673 C 0.31456 0.76295 0.66393 0.0
C674 C 0.2774 0.73483 0.66525 0.0
C675 C 0.29066 0.72313 0.63107 0.0
C676 C 0.32764 0.75188 0.62965 0.0
C677 C 0.31588 0.73206 0.61331 0.0
C678 C 0.25262 0.84838 0.79519 0.0
C679 C 0.26208 0.77647 0.86939 0.0
C680 C 0.28695 0.84663 0.90599 0.0
C681 C 0.30327 0.85062 0.936 0.0
C682 C 0.30633 0.8291 0.96752 0.0
C683 C 0.31637 0.87542 0.93329 0.0
C684 C 0.33248 0.87859 0.96157 0.0
C685 C 0.32285 0.83169 0.9951 0.0
C686 C 0.33584 0.85621 0.99225 0.0
C687 C 0.34453 0.73787 0.83285 0.0
H688 H 0.32418 0.77796 0.67636 0.0
H689 H 0.25765 0.72868 0.67914 0.0
H690 H 0.34718 0.75838 0.61586 0.0
H691 H 0.327 0.72316 0.58722 0.0
H692 H 0.29628 0.80992 0.97077 0.0
H693 H 0.31392 0.89229 0.90933 0.0
H694 H 0.32522 0.81487 0.01908 0.0
H695 H 0.34753 0.8583 0.01484 0.0
Gd696 Gd 0.31475 0.31373 0.84658 0.0
Gd697 Gd 0.27911 0.27692 0.79192 0.0
C698 C 0.35533 0.19654 0.73793 0.0
C699 C 0.36573 0.22108 0.67725 0.0
C700 C 0.32594 0.2506 0.7214 0.0
C701 C 0.33241 0.2248 0.74722 0.0
C702 C 0.34217 0.2486 0.68581 0.0
C703 C 0.37234 0.19514 0.70327 0.0
C704 C 0.36003 0.17008 0.76331 0.0
C705 C 0.34082 0.17141 0.79591 0.0
N706 N 0.31558 0.22672 0.78065 0.0
C707 C 0.31807 0.19957 0.80357 0.0
H708 H 0.30206 0.19856 0.82739 0.0
C709 C 0.29406 0.30119 0.70375 0.0
N710 N 0.30351 0.27736 0.73061 0.0
C711 C 0.3096 0.30041 0.66845 0.0
C712 C 0.33414 0.27423 0.6596 0.0
H713 H 0.27343 0.32028 0.70818 0.0
H714 H 0.39021 0.17379 0.69601 0.0
H715 H 0.26281 0.38346 0.82315 0.0
H716 H 0.37741 0.14808 0.75723 0.0
H717 H 0.34299 0.15047 0.81481 0.0
H718 H 0.37867 0.21945 0.65034 0.0
H719 H 0.34993 0.26899 0.91785 0.0
H720 H 0.20335 0.41552 0.91877 0.0
H721 H 0.21866 0.42224 0.85207 0.0
H722 H 0.24541 0.33955 0.01518 0.0
H723 H 0.3021 0.31972 0.64782 0.0
H724 H 0.34609 0.2736 0.63213 0.0
H725 H 0.2132 0.3843 0.97927 0.0
H726 H 0.3394 0.25995 0.9848 0.0
N727 N 0.27234 0.35332 0.87221 0.0
C728 C 0.22281 0.39806 0.90609 0.0
C729 C 0.23132 0.40187 0.86845 0.0
C730 C 0.2398 0.37205 0.92704 0.0
C731 C 0.26488 0.34987 0.90916 0.0
C732 C 0.25641 0.37941 0.85198 0.0
N733 N 0.3074 0.30436 0.91146 0.0
C734 C 0.28261 0.32429 0.92927 0.0
C735 C 0.32296 0.27783 0.96951 0.0
C736 C 0.2964 0.29655 0.98786 0.0
C737 C 0.32855 0.28272 0.93135 0.0
C738 C 0.27628 0.32075 0.96793 0.0
H739 H 0.29231 0.29303 0.01752 0.0
O740 O 0.3569 0.31437 0.86478 0.0
O741 O 0.32005 0.29341 0.79207 0.0
O742 O 0.28702 0.24792 0.84825 0.0
O743 O 0.32632 0.26201 0.86687 0.0
O744 O 0.35691 0.27805 0.82269 0.0
O745 O 0.3281 0.35689 0.83866 0.0
O746 O 0.23902 0.28768 0.76353 0.0
O747 O 0.2741 0.2972 0.84577 0.0
O748 O 0.30519 0.34469 0.79286 0.0
O749 O 0.26941 0.32847 0.76892 0.0
O750 O 0.23525 0.30766 0.82053 0.0
O751 O 0.25723 0.24053 0.78913 0.0
C752 C 0.34769 0.27641 0.79169 0.0
C753 C 0.2508 0.34214 0.98561 0.0
C754 C 0.23256 0.36771 0.9652 0.0
C755 C 0.35233 0.34445 0.85559 0.0
C756 C 0.35695 0.363 0.88351 0.0
C757 C 0.3388 0.36596 0.91737 0.0
C758 C 0.38028 0.37728 0.8767 0.0
C759 C 0.38575 0.39376 0.90399 0.0
C760 C 0.3441 0.3823 0.94447 0.0
C761 C 0.36755 0.39605 0.93795 0.0
C762 C 0.30963 0.24262 0.86907 0.0
C763 C 0.24573 0.31132 0.84972 0.0
C764 C 0.23784 0.25864 0.76751 0.0
C765 C 0.2346 0.24521 0.73399 0.0
C766 C 0.24212 0.25867 0.69888 0.0
C767 C 0.22292 0.21935 0.73691 0.0
C768 C 0.21905 0.20698 0.70501 0.0
C769 C 0.23892 0.24615 0.66733 0.0
C770 C 0.22745 0.22053 0.67027 0.0
C771 C 0.28533 0.34846 0.76885 0.0
H772 H 0.32061 0.35567 0.92305 0.0
H773 H 0.39446 0.37508 0.85059 0.0
H774 H 0.33 0.38428 0.97058 0.0
H775 H 0.37125 0.40883 0.95926 0.0
H776 H 0.2499 0.27928 0.6956 0.0
H777 H 0.21668 0.20909 0.76388 0.0
H778 H 0.24477 0.25678 0.64047 0.0
H779 H 0.22424 0.21198 0.64525 0.0
Gd780 Gd 0.82367 0.32158 0.84274 0.0
Gd781 Gd 0.79145 0.28431 0.77829 0.0
C782 C 0.77431 0.18986 0.81801 0.0
C783 C 0.81241 0.15356 0.77877 0.0
C784 C 0.80777 0.20979 0.77189 0.0
C785 C 0.78468 0.21511 0.80061 0.0
C786 C 0.82142 0.17907 0.76009 0.0
C787 C 0.78885 0.15896 0.80763 0.0
C788 C 0.74904 0.19657 0.84451 0.0
C789 C 0.73445 0.2279 0.85257 0.0
N790 N 0.77128 0.2452 0.81024 0.0
C791 C 0.74591 0.25206 0.83509 0.0
H792 H 0.73463 0.27608 0.84197 0.0
C793 C 0.83526 0.23162 0.72248 0.0
N794 N 0.81584 0.23496 0.75426 0.0
C795 C 0.84962 0.20157 0.70994 0.0
C796 C 0.84304 0.1751 0.72916 0.0
H797 H 0.84043 0.25212 0.70778 0.0
H798 H 0.78152 0.1392 0.82111 0.0
H799 H 0.88231 0.33222 0.7841 0.0
H800 H 0.74034 0.17786 0.85843 0.0
H801 H 0.71466 0.2334 0.87268 0.0
H802 H 0.82288 0.12972 0.77041 0.0
H803 H 0.77258 0.35036 0.91286 0.0
H804 H 0.87636 0.43049 0.77523 0.0
H805 H 0.90275 0.37585 0.75811 0.0
H806 H 0.79117 0.47466 0.86213 0.0
H807 H 0.86572 0.19883 0.68546 0.0
H808 H 0.85408 0.15186 0.71927 0.0
H809 H 0.83406 0.46737 0.81336 0.0
H810 H 0.74631 0.40224 0.93828 0.0
N811 N 0.8444 0.36174 0.8155 0.0
C812 C 0.86733 0.41137 0.78693 0.0
C813 C 0.88232 0.38056 0.77726 0.0
C814 C 0.84127 0.41701 0.81226 0.0
C815 C 0.83043 0.39129 0.8266 0.0
C816 C 0.87059 0.35585 0.79204 0.0
N817 N 0.79834 0.36954 0.86938 0.0
C818 C 0.80647 0.39538 0.85421 0.0
C819 C 0.76306 0.40066 0.9145 0.0
C820 C 0.77 0.42782 0.89799 0.0
C821 C 0.77798 0.37139 0.90021 0.0
C822 C 0.7924 0.4253 0.86795 0.0
H823 H 0.7586 0.45042 0.90931 0.0
O824 O 0.83523 0.3098 0.89922 0.0
O825 O 0.80774 0.28191 0.83265 0.0
O826 O 0.75442 0.31881 0.81333 0.0
O827 O 0.77587 0.35389 0.83375 0.0
O828 O 0.80025 0.29305 0.8858 0.0
O829 O 0.87093 0.3071 0.85454 0.0
O830 O 0.77962 0.29308 0.72202 0.0
O831 O 0.80774 0.32399 0.78794 0.0
O832 O 0.86107 0.28878 0.80511 0.0
O833 O 0.83943 0.25369 0.78482 0.0
O834 O 0.8146 0.31237 0.73449 0.0
O835 O 0.74447 0.29404 0.76746 0.0
C836 C 0.79789 0.27322 0.86439 0.0
C837 C 0.80191 0.45139 0.85222 0.0
C838 C 0.82634 0.44724 0.82447 0.0
C839 C 0.86436 0.30496 0.89021 0.0
C840 C 0.87972 0.32051 0.91185 0.0
C841 C 0.87154 0.35367 0.90944 0.0
C842 C 0.90215 0.30287 0.93521 0.0
C843 C 0.9155 0.31876 0.95622 0.0
C844 C 0.88484 0.36926 0.92964 0.0
C845 C 0.90647 0.35205 0.9529 0.0
C846 C 0.75211 0.34648 0.82554 0.0
C847 C 0.81813 0.33154 0.75596 0.0
C848 C 0.75071 0.297 0.73184 0.0
C849 C 0.72861 0.32194 0.71086 0.0
C850 C 0.7295 0.35328 0.70649 0.0
C851 C 0.70676 0.3139 0.69413 0.0
C852 C 0.68634 0.33669 0.67197 0.0
C853 C 0.70928 0.3761 0.68523 0.0
C854 C 0.68813 0.36795 0.66791 0.0
C855 C 0.86324 0.26142 0.79192 0.0
H856 H 0.85469 0.36764 0.89202 0.0
H857 H 0.9087 0.27722 0.93754 0.0
H858 H 0.8782 0.3949 0.92742 0.0
H859 H 0.91631 0.36485 0.96842 0.0
H860 H 0.74597 0.36 0.71922 0.0
H861 H 0.70589 0.28972 0.69852 0.0
H862 H 0.71032 0.40023 0.68166 0.0
H863 H 0.67369 0.38614 0.65066 0.0
Gd864 Gd 0.80186 0.82699 0.77124 0.0
Gd865 Gd 0.7643 0.79287 0.85205 0.0
C866 C 0.73106 0.84623 0.95556 0.0
C867 C 0.76452 0.81285 0.9992 0.0
C868 C 0.76867 0.79775 0.93693 0.0
C869 C 0.74552 0.82488 0.92852 0.0
C870 C 0.77798 0.79103 0.97258 0.0
C871 C 0.74114 0.84043 0.99068 0.0
C872 C 0.70645 0.87235 0.94674 0.0
C873 C 0.69617 0.87601 0.91215 0.0
N874 N 0.73625 0.82967 0.89439 0.0
C875 C 0.71115 0.85407 0.88634 0.0
H876 H 0.70311 0.85731 0.85963 0.0
C877 C 0.80171 0.74846 0.91864 0.0
N878 N 0.78127 0.77725 0.91053 0.0
C879 C 0.81172 0.74074 0.95361 0.0
C880 C 0.80009 0.76229 0.98058 0.0
H881 H 0.81091 0.73188 0.89774 0.0
H882 H 0.73054 0.85674 1.01169 0.0
H883 H 0.86103 0.76036 0.7696 0.0
H884 H 0.69481 0.88939 0.96667 0.0
H885 H 0.67681 0.89581 0.90527 0.0
H886 H 0.7716 0.8083 0.02665 0.0
H887 H 0.75766 0.88676 0.7218 0.0
H888 H 0.87597 0.72704 0.66228 0.0
H889 H 0.88935 0.72073 0.72603 0.0
H890 H 0.80472 0.80856 0.59503 0.0
H891 H 0.82843 0.71824 0.95971 0.0
H892 H 0.80788 0.75624 1.00765 0.0
H893 H 0.84415 0.7599 0.61359 0.0
H894 H 0.7442 0.8997 0.65792 0.0
N895 N 0.83118 0.78855 0.73136 0.0
C896 C 0.86339 0.74454 0.68133 0.0
C897 C 0.87105 0.74093 0.71727 0.0
C898 C 0.84006 0.77109 0.67017 0.0
C899 C 0.82427 0.79304 0.69613 0.0
C900 C 0.85491 0.76352 0.74191 0.0
N901 N 0.78775 0.84104 0.71133 0.0
C902 C 0.80186 0.82015 0.68578 0.0
C903 C 0.76031 0.87716 0.66544 0.0
C904 C 0.77353 0.85522 0.63919 0.0
C905 C 0.76796 0.86979 0.70153 0.0
C906 C 0.79488 0.82646 0.64907 0.0
H907 H 0.76758 0.86099 0.61124 0.0
O908 O 0.80906 0.8732 0.7621 0.0
O909 O 0.77938 0.83409 0.82794 0.0
O910 O 0.73038 0.82141 0.81225 0.0
O911 O 0.75744 0.82464 0.75437 0.0
O912 O 0.7674 0.87225 0.79 0.0
O913 O 0.84782 0.83088 0.76243 0.0
O914 O 0.75624 0.74705 0.86222 0.0
O915 O 0.78554 0.78634 0.79472 0.0
O916 O 0.83589 0.80027 0.81303 0.0
O917 O 0.80676 0.79784 0.86944 0.0
O918 O 0.79726 0.74743 0.83119 0.0
O919 O 0.71821 0.79018 0.8617 0.0
C920 C 0.76379 0.86289 0.82436 0.0
C921 C 0.80993 0.80428 0.62331 0.0
C922 C 0.83241 0.7766 0.63387 0.0
C923 C 0.83856 0.86176 0.75779 0.0
C924 C 0.85439 0.87688 0.72725 0.0
C925 C 0.84655 0.87987 0.69127 0.0
C926 C 0.87686 0.88971 0.73447 0.0
C927 C 0.89111 0.90564 0.70592 0.0
C928 C 0.86065 0.8958 0.66293 0.0
C929 C 0.8828 0.9087 0.67018 0.0
C930 C 0.73188 0.82509 0.77574 0.0
C931 C 0.79987 0.75715 0.79683 0.0
C932 C 0.72684 0.75935 0.86725 0.0
C933 C 0.71128 0.74575 0.89916 0.0
C934 C 0.71096 0.75425 0.93469 0.0
C935 C 0.69669 0.7237 0.89385 0.0
C936 C 0.68157 0.71018 0.92392 0.0
C937 C 0.69624 0.74072 0.96472 0.0
C938 C 0.68159 0.71883 0.95946 0.0
C939 C 0.83295 0.79674 0.84972 0.0
H940 H 0.82945 0.87015 0.68506 0.0
H941 H 0.88316 0.88741 0.76216 0.0
H942 H 0.85439 0.89814 0.63527 0.0
H943 H 0.89366 0.92084 0.64786 0.0
H944 H 0.72198 0.7713 0.93922 0.0
H945 H 0.69667 0.71754 0.86623 0.0
H946 H 0.69614 0.74725 0.99215 0.0
H947 H 0.67045 0.70851 0.98321 0.0
H948 H 0.13102 0.10953 0.38148 0.0
H949 H 0.06296 0.14682 0.47003 0.0
H950 H 0.08989 0.1837 0.48004 0.0
H951 H 0.13289 0.20486 0.46415 0.0
H952 H 0.20279 0.16568 0.37786 0.0
H953 H 0.17464 0.13065 0.36576 0.0
C954 C 0.12206 0.12593 0.40274 0.0
C955 C 0.09517 0.12543 0.4251 0.0
C956 C 0.13789 0.14678 0.40863 0.0
C957 C 0.08386 0.14652 0.45284 0.0
C958 C 0.09916 0.16768 0.45845 0.0
C959 C 0.14223 0.1884 0.443 0.0
C960 C 0.16999 0.18793 0.42209 0.0
C961 C 0.12632 0.16781 0.43674 0.0
C962 C 0.18129 0.16691 0.39414 0.0
C963 C 0.16531 0.14667 0.38734 0.0
H964 H 0.93648 0.10926 0.29695 0.0
H965 H 0.99398 0.15497 0.33646 0.0
H966 H 0.95229 0.20445 0.33881 0.0
H967 H 0.89913 0.23493 0.32989 0.0
H968 H 0.84151 0.18874 0.29191 0.0
H969 H 0.88351 0.13973 0.28821 0.0
C970 C 0.94006 0.13008 0.30573 0.0
C971 C 0.96857 0.12817 0.31634 0.0
C972 C 0.91577 0.1585 0.30756 0.0
C973 C 0.97246 0.15555 0.32797 0.0
C974 C 0.94852 0.18394 0.32948 0.0
C975 C 0.89549 0.21396 0.32188 0.0
C976 C 0.86678 0.21551 0.31233 0.0
C977 C 0.91994 0.18564 0.31972 0.0
C978 C 0.86315 0.18833 0.29992 0.0
C979 C 0.88724 0.16019 0.2977 0.0
H980 H 0.99673 0.9382 0.39734 0.0
H981 H 0.93574 0.03341 0.40006 0.0
H982 H 0.89259 0.01375 0.39765 0.0
H983 H 0.87252 0.9696 0.39387 0.0
H984 H 0.93358 0.87435 0.39086 0.0
H985 H 0.97662 0.89393 0.39424 0.0
C986 C 0.97394 0.95456 0.39799 0.0
C987 C 0.96932 0.98716 0.39917 0.0
C988 C 0.94939 0.94311 0.39635 0.0
C989 C 0.93979 0.00823 0.39901 0.0
C990 C 0.91517 0.997 0.39773 0.0
C991 C 0.89521 0.9531 0.39443 0.0
C992 C 0.8999 0.92059 0.39237 0.0
C993 C 0.91974 0.96451 0.39629 0.0
C994 C 0.92947 0.89952 0.39225 0.0
C995 C 0.95403 0.91067 0.39432 0.0
H996 H 0.16283 1.00038 0.3515 0.0
H997 H 0.10077 0.9716 0.29719 0.0
H998 H 0.14073 0.92183 0.28331 0.0
H999 H 0.19297 0.88437 0.2917 0.0
H1000 H 0.25295 0.9169 0.34578 0.0
H1001 H 0.21434 0.96644 0.35518 0.0
C1002 C 0.1581 0.98347 0.33606 0.0
C1003 C 0.12888 0.98975 0.32541 0.0
C1004 C 0.18079 0.95494 0.32898 0.0
C1005 C 0.12321 0.96759 0.30532 0.0
C1006 C 0.14599 0.93891 0.29782 0.0
C1007 C 0.1975 0.90231 0.30555 0.0
C1008 C 0.22582 0.89583 0.31951 0.0
C1009 C 0.17479 0.9319 0.31037 0.0
C1010 C 0.23124 0.91992 0.33656 0.0
C1011 C 0.20917 0.94884 0.3414 0.0
H1012 H 0.15074 0.95944 0.7232 0.0
H1013 H 0.11853 0.9769 0.83668 0.0
H1014 H 0.1619 0.93264 0.85612 0.0
H1015 H 0.20921 0.88867 0.84023 0.0
H1016 H 0.239 0.87201 0.72603 0.0
H1017 H 0.19641 0.91661 0.70757 0.0
C1018 C 0.15299 0.95382 0.75233 0.0
C1019 C 0.13121 0.9718 0.77842 0.0
C1020 C 0.17779 0.92852 0.76312 0.0
C1021 C 0.13476 0.96361 0.81595 0.0
C1022 C 0.15967 0.93833 0.82702 0.0
C1023 C 0.20656 0.89508 0.81129 0.0
C1024 C 0.22761 0.87708 0.78448 0.0
C1025 C 0.18144 0.92064 0.80079 0.0
C1026 C 0.22338 0.88538 0.74719 0.0
C1027 C 0.19893 0.91088 0.73662 0.0
H1028 H 0.16286 0.10085 0.67863 0.0
H1029 H 0.09706 0.14413 0.76608 0.0
H1030 H 0.12674 0.17948 0.77287 0.0
H1031 H 0.16953 0.20058 0.75046 0.0
H1032 H 0.23622 0.15579 0.66416 0.0
H1033 H 0.20823 0.1184 0.66046 0.0
C1034 C 0.15518 0.11803 0.69914 0.0
C1035 C 0.12781 0.12026 0.72152 0.0
C1036 C 0.17248 0.13797 0.70305 0.0
C1037 C 0.11817 0.14209 0.7486 0.0
C1038 C 0.13506 0.1623 0.7524 0.0
C1039 C 0.17829 0.18221 0.73142 0.0
C1040 C 0.20468 0.18129 0.70724 0.0
C1041 C 0.16207 0.16074 0.7294 0.0
C1042 C 0.21562 0.15741 0.68256 0.0
C1043 C 0.19966 0.136 0.68044 0.0
H1044 H 0.99993 0.17295 0.77509 0.0
H1045 H 0.95546 0.10012 0.79019 0.0
H1046 H 0.90571 0.14074 0.79621 0.0
H1047 H 0.87506 0.1971 0.7931 0.0
H1048 H 0.91978 0.2697 0.78307 0.0
H1049 H 0.96929 0.22903 0.77836 0.0
C1050 C 0.97935 0.16593 0.78049 0.0
C1051 C 0.98144 0.13348 0.78241 0.0
C1052 C 0.95091 0.18942 0.784 0.0
C1053 C 0.95456 0.12479 0.78926 0.0
C1054 C 0.92611 0.14808 0.79218 0.0
C1055 C 0.89557 0.20416 0.79002 0.0
C1056 C 0.89351 0.23669 0.78814 0.0
C1057 C 0.92401 0.18051 0.78885 0.0
C1058 C 0.92053 0.24504 0.78443 0.0
C1059 C 0.94889 0.22173 0.78188 0.0
H1060 H 1.01045 0.94242 0.70893 0.0
H1061 H 0.94549 0.03266 0.73135 0.0
H1062 H 0.90355 0.00998 0.73264 0.0
H1063 H 0.8856 0.96486 0.72312 0.0
H1064 H 0.95104 0.87439 0.7025 0.0
H1065 H 0.99274 0.89638 0.70522 0.0
C1066 C 0.98707 0.95697 0.71418 0.0
C1067 C 0.98085 0.98918 0.7195 0.0
C1068 C 0.96331 0.94364 0.7153 0.0
C1069 C 0.95062 0.00782 0.72711 0.0
C1070 C 0.92674 0.99487 0.72773 0.0
C1071 C 0.90904 0.95002 0.71981 0.0
C1072 C 0.91553 0.91818 0.71258 0.0
C1073 C 0.93281 0.9629 0.72132 0.0
C1074 C 0.94578 0.89896 0.70816 0.0
C1075 C 0.96952 0.91156 0.70954 0.0
H1076 H 0.36727 0.13381 0.23346 0.0
H1077 H 0.30031 0.18378 0.15973 0.0
H1078 H 0.28662 0.23038 0.19479 0.0
H1079 H 0.29157 0.25588 0.24911 0.0
H1080 H 0.35917 0.20511 0.32138 0.0
H1081 H 0.37504 0.16009 0.2836 0.0
C1082 C 0.34999 0.15483 0.22436 0.0
C1083 C 0.33483 0.15467 0.19381 0.0
C1084 C 0.34232 0.18164 0.24449 0.0
C1085 C 0.31219 0.18258 0.18333 0.0
C1086 C 0.30439 0.20946 0.20332 0.0
C1087 C 0.31023 0.23527 0.25601 0.0
C1088 C 0.32453 0.23397 0.28773 0.0
C1089 C 0.31903 0.20913 0.2343 0.0
C1090 C 0.34808 0.20672 0.29692 0.0
C1091 C 0.35707 0.18094 0.27541 0.0
H1092 H 0.92453 0.36425 0.15619 0.0
H1093 H 0.98198 0.28648 0.21877 0.0
H1094 H 0.93694 0.2743 0.25214 0.0
H1095 H 0.88026 0.28616 0.26419 0.0
H1096 H 0.82383 0.36236 0.19845 0.0
H1097 H 0.86885 0.37427 0.16578 0.0
C1098 C 0.92728 0.34463 0.17713 0.0
C1099 C 0.95696 0.32647 0.18486 0.0
C1100 C 0.90114 0.33734 0.1958 0.0
C1101 C 0.9597 0.30081 0.21187 0.0
C1102 C 0.93381 0.29386 0.23109 0.0
C1103 C 0.87783 0.30549 0.24288 0.0
C1104 C 0.84827 0.32406 0.23481 0.0
C1105 C 0.90426 0.312 0.22345 0.0
C1106 C 0.84598 0.34811 0.20594 0.0
C1107 C 0.87185 0.35498 0.18716 0.0
H1108 H 0.78181 0.92929 0.10174 0.0
H1109 H 0.86296 0.94378 0.13048 0.0
H1110 H 0.8599 0.91085 0.18781 0.0
H1111 H 0.83505 0.87741 0.22883 0.0
H1112 H 0.75513 0.86035 0.19991 0.0
H1113 H 0.75619 0.89593 0.14388 0.0
C1114 C 0.79864 0.9255 0.12073 0.0
C1115 C 0.8226 0.93902 0.1118 0.0
C1116 C 0.79669 0.90654 0.15371 0.0
C1117 C 0.84455 0.93336 0.13639 0.0
C1118 C 0.84264 0.91478 0.16934 0.0
C1119 C 0.81741 0.8819 0.21075 0.0
C1120 C 0.79476 0.86659 0.21877 0.0
C1121 C 0.81884 0.9013 0.17822 0.0
C1122 C 0.7726 0.87212 0.19449 0.0
C1123 C 0.77337 0.89223 0.16237 0.0
H1124 H 0.10052 0.74977 0.13716 0.0
H1125 H 0.15904 0.69391 0.05277 0.0
H1126 H 0.20155 0.71086 0.06551 0.0
H1127 H 0.2198 0.74742 0.09484 0.0
H1128 H 0.16077 0.80435 0.17828 0.0
H1129 H 0.12058 0.78131 0.17186 0.0
C1130 C 0.12288 0.74065 0.12243 0.0
C1131 C 0.12675 0.72066 0.09417 0.0
C1132 C 0.14681 0.75129 0.12917 0.0
C1133 C 0.15568 0.70893 0.07502 0.0
C1134 C 0.17982 0.71904 0.0819 0.0
C1135 C 0.19817 0.75455 0.11174 0.0
C1136 C 0.19291 0.77788 0.13652 0.0
C1137 C 0.17528 0.74117 0.10791 0.0
C1138 C 0.16514 0.78653 0.1589 0.0
C1139 C 0.14222 0.7734 0.15521 0.0
H1140 H 0.34345 0.01089 0.98503 0.0
H1141 H 0.42292 0.95172 0.03393 0.0
H1142 H 0.41796 0.90529 1.00887 0.0
H1143 H 0.3856 0.88065 0.98298 0.0
H1144 H 0.30303 0.94002 0.94012 0.0
H1145 H 0.31485 0.98718 0.95218 0.0
C1146 C 0.35996 0.98787 0.98962 0.0
C1147 C 0.3831 0.98454 1.0119 0.0
C1148 C 0.35615 0.96126 0.97653 0.0
C1149 C 0.40487 0.95485 0.01693 0.0
C1150 C 0.40182 0.92826 1.00295 0.0
C1151 C 0.37038 0.90394 0.9759 0.0
C1152 C 0.34317 0.90674 0.96133 0.0
C1153 C 0.37668 0.93101 0.9843 0.0
C1154 C 0.32414 0.93707 0.95129 0.0
C1155 C 0.33072 0.96412 0.95851 0.0
H1156 H 0.17015 0.30517 1.00807 0.0
H1157 H 0.10506 0.38207 0.95274 0.0
H1158 H 0.1406 0.37855 0.89777 0.0
H1159 H 0.18979 0.35327 0.86334 0.0
H1160 H 0.25505 0.27559 0.91615 0.0
H1161 H 0.2202 0.27953 0.97301 0.0
C1162 C 0.16358 0.32114 0.98407 0.0
C1163 C 0.13445 0.34412 0.98556 0.0
C1164 C 0.18438 0.31884 0.9515 0.0
C1165 C 0.12704 0.36451 0.95359 0.0
C1166 C 0.14746 0.3624 0.92159 0.0
C1167 C 0.19648 0.33734 0.8874 0.0
C1168 C 0.22545 0.31468 0.8855 0.0
C1169 C 0.17613 0.33968 0.92005 0.0
C1170 C 0.23331 0.29376 0.91683 0.0
C1171 C 0.2132 0.29594 0.94944 0.0
H1172 H 0.83966 0.1249 0.89388 0.0
H1173 H 0.75698 0.14537 0.96849 0.0
H1174 H 0.74824 0.20164 0.95289 0.0
H1175 H 0.76339 0.24604 0.91655 0.0
H1176 H 0.84733 0.22447 0.84595 0.0
H1177 H 0.85615 0.16822 0.8612 0.0
C1178 C 0.8198 0.14135 0.90716 0.0
C1179 C 0.79932 0.13011 0.93262 0.0
C1180 C 0.81481 0.17397 0.89826 0.0
C1181 C 0.77348 0.15258 0.94882 0.0
C1182 C 0.76836 0.18513 0.93999 0.0
C1183 C 0.78351 0.2289 0.90457 0.0
C1184 C 0.80349 0.23929 0.87751 0.0
C1185 C 0.78883 0.19618 0.91462 0.0
C1186 C 0.83017 0.21698 0.86368 0.0
C1187 C 0.8356 0.18472 0.87328 0.0
H1188 H 0.92829 0.78069 0.96415 0.0
H1189 H 0.99156 0.75433 0.86789 0.0
H1190 H 0.94961 0.76452 0.83058 0.0
H1191 H 0.89437 0.77926 0.82526 0.0
H1192 H 0.83138 0.80515 0.92215 0.0
H1193 H 0.8732 0.79686 0.95855 0.0
C1194 C 0.93286 0.7775 0.93496 0.0
C1195 C 0.96318 0.7665 0.91908 0.0
C1196 C 0.90845 0.78308 0.91353 0.0
C1197 C 0.96855 0.76228 0.88112 0.0
C1198 C 0.94449 0.76822 0.85963 0.0
C1199 C 0.8898 0.78319 0.85428 0.0
C1200 C 0.85951 0.79237 0.87074 0.0
C1201 C 0.91426 0.77828 0.87553 0.0
C1202 C 0.85427 0.79744 0.90853 0.0
C1203 C 0.87829 0.79289 0.92957 0.0
H1204 H 0.12365 0.30961 0.21477 0.0
H1205 H 0.19105 0.28 0.12256 0.0
H1206 H 0.23005 0.28642 0.15558 0.0
H1207 H 0.24641 0.29984 0.21067 0.0
H1208 H 0.18095 0.32694 0.30496 0.0
H1209 H 0.14077 0.32213 0.27158 0.0
C1210 C 0.14684 0.30446 0.2019 0.0
C1211 C 0.15384 0.29413 0.16576 0.0
C1212 C 0.16998 0.30784 0.22157 0.0
C1213 C 0.1844 0.2877 0.15012 0.0
C1214 C 0.20703 0.29149 0.16906 0.0
C1215 C 0.22334 0.30499 0.22399 0.0
C1216 C 0.21706 0.31412 0.26051 0.0
C1217 C 0.20024 0.30153 0.20479 0.0
C1218 C 0.18683 0.32003 0.27701 0.0
C1219 C 0.16366 0.31722 0.25781 0.0
H1220 H 0.15516 0.73615 0.97252 0.0
H1221 H 0.10006 0.82902 0.93608 0.0
H1222 H 0.14523 0.83861 0.89881 0.0
H1223 H 0.20167 0.81953 0.87472 0.0
H1224 H 0.25472 0.72664 0.91456 0.0
H1225 H 0.20973 0.71847 0.95159 0.0
C1226 C 0.15272 0.75878 0.95674 0.0
C1227 C 0.12345 0.78178 0.95782 0.0
C1228 C 0.17894 0.76408 0.9353 0.0
C1229 C 0.12175 0.81081 0.93679 0.0
C1230 C 0.14783 0.81619 0.91504 0.0
C1231 C 0.20336 0.7974 0.89128 0.0
C1232 C 0.23218 0.77327 0.89061 0.0
C1233 C 0.17673 0.79286 0.91366 0.0
C1234 C 0.23337 0.7454 0.91357 0.0
C1235 C 0.20742 0.74071 0.93503 0.0
H1236 H 0.35938 0.14162 0.99776 0.0
H1237 H 0.26541 0.14435 0.02166 0.0
H1238 H 0.25305 0.18138 0.9668 0.0
H1239 H 0.2693 0.215 0.91279 0.0
H1240 H 0.364 0.21038 0.89185 0.0
H1241 H 0.37562 0.17193 0.94438 0.0
C1242 C 0.33606 0.15019 0.99125 0.0
C1243 C 0.31334 0.14027 0.01432 0.0
C1244 C 0.32928 0.17118 0.95981 0.0
C1245 C 0.28341 0.15155 1.00468 0.0
C1246 C 0.27637 0.17276 0.97321 0.0
C1247 C 0.2925 0.20515 0.91947 0.0
C1248 C 0.31576 0.21581 0.89827 0.0
C1249 C 0.29914 0.18297 0.95057 0.0
C1250 C 0.34564 0.20289 0.90761 0.0
C1251 C 0.35233 0.18088 0.9378 0.0
H1252 H 1.00262 0.28847 0.08111 0.0
H1253 H 0.06878 0.2498 0.99135 0.0
H1254 H 0.02827 0.25705 0.95266 0.0
H1255 H 0.97427 0.28114 0.94124 0.0
H1256 H 0.9085 0.32152 0.03021 0.0
H1257 H 0.94809 0.30657 0.07193 0.0
C1258 C 1.00819 0.2808 0.05344 0.0
C1259 C 0.03899 0.26864 0.03937 0.0
C1260 C 0.98461 0.28569 0.03079 0.0
C1261 C 0.04546 0.2593 1.00312 0.0
C1262 C 0.02221 0.26357 0.98077 0.0
C1263 C 0.96851 0.28567 0.97005 0.0
C1264 C 0.93832 0.30217 0.9826 0.0
C1265 C 0.99172 0.27769 0.99384 0.0
C1266 C 0.93143 0.30856 0.0199 0.0
C1267 C 0.95417 0.30023 0.04375 0.0
H1268 H 0.74253 0.98298 0.91246 0.0
H1269 H 0.80856 0.91476 0.97541 0.0
H1270 H 0.80601 0.87217 0.94116 0.0
H1271 H 0.79056 0.8555 0.88785 0.0
H1272 H 0.72584 0.92309 0.82283 0.0
H1273 H 0.72241 0.96455 0.86285 0.0
C1274 C 0.75564 0.95866 0.91926 0.0
C1275 C 0.77567 0.95204 0.94648 0.0
C1276 C 0.75477 0.93419 0.89853 0.0
C1277 C 0.79298 0.92046 0.95456 0.0
C1278 C 0.79168 0.89608 0.93484 0.0
C1279 C 0.77506 0.87901 0.883 0.0
C1280 C 0.75827 0.88604 0.85253 0.0
C1281 C 0.77349 0.9028 0.90591 0.0
C1282 C 0.73889 0.917 0.84623 0.0
C1283 C 0.73697 0.94076 0.86909 0.0
H1284 H 0.97834 0.73274 0.1419 0.0
H1285 H 0.94606 0.8295 0.09691 0.0
H1286 H 0.90459 0.84011 0.1478 0.0
H1287 H 0.87676 0.82136 0.20636 0.0
H1288 H 0.91258 0.72496 0.25099 0.0
H1289 H 0.9528 0.71503 0.1997 0.0
C1290 C 0.96243 0.75636 0.14295 0.0
C1291 C 0.96596 0.7802 0.11474 0.0
C1292 C 0.93874 0.76232 0.17264 0.0
C1293 C 0.94467 0.81054 0.11772 0.0
C1294 C 0.92065 0.81656 0.147 0.0
C1295 C 0.89307 0.79802 0.20451 0.0
C1296 C 0.89037 0.7734 0.23227 0.0
C1297 C 0.91721 0.79257 0.17472 0.0
C1298 C 0.91305 0.744 0.22991 0.0
C1299 C 0.93635 0.73837 0.20048 0.0
H1300 H 0.29461 0.99942 0.22887 0.0
H1301 H 0.32474 0.97579 0.11686 0.0
H1302 H 0.33037 0.91986 0.13586 0.0
H1303 H 0.32835 0.877 0.18483 0.0
H1304 H 0.29095 0.90188 0.29441 0.0
H1305 H 0.28725 0.95726 0.2765 0.0
C1306 C 0.30203 0.9821 0.2085 0.0
C1307 C 0.30916 0.99207 0.17136 0.0
C1308 C 0.30468 0.94987 0.21954 0.0
C1309 C 0.31868 0.96911 0.14547 0.0
C1310 C 0.32222 0.93695 0.15644 0.0
C1311 C 0.31964 0.89449 0.20493 0.0
C1312 C 0.31166 0.88458 0.24189 0.0
C1313 C 0.31566 0.92693 0.1935 0.0
C1314 C 0.29904 0.9081 0.2667 0.0
C1315 C 0.2964 0.94009 0.25611 0.0
H1316 H 0.76121 0.12684 0.0323 0.0
H1317 H 0.76265 0.06488 0.13121 0.0
H1318 H 0.76523 0.10665 0.16727 0.0
H1319 H 0.77667 0.15727 0.16833 0.0
H1320 H 0.77941 0.21705 0.06768 0.0
H1321 H 0.76551 0.1801 0.03465 0.0
C1322 C 0.76045 0.12316 0.06199 0.0
C1323 C 0.76079 0.09321 0.07923 0.0
C1324 C 0.76374 0.14669 0.08205 0.0
C1325 C 0.76131 0.08811 0.11754 0.0
C1326 C 0.76341 0.11183 0.13802 0.0
C1327 C 0.77352 0.16251 0.13938 0.0
C1328 C 0.77956 0.18966 0.12037 0.0
C1329 C 0.76612 0.14069 0.12028 0.0
C1330 C 0.77548 0.19605 0.08279 0.0
C1331 C 0.76741 0.17497 0.0639 0.0
H1332 H 0.6298 0.60311 0.88731 0.0
H1333 H 0.5544 0.65305 0.96139 0.0
H1334 H 0.58095 0.69072 0.96861 0.0
H1335 H 0.62551 0.7095 0.95447 0.0
H1336 H 0.70103 0.66053 0.88007 0.0
H1337 H 0.67418 0.623 0.87162 0.0
C1338 C 0.61908 0.62237 0.90477 0.0
C1339 C 0.59026 0.62491 0.92412 0.0
C1340 C 0.63444 0.64424 0.90865 0.0
C1341 C 0.57681 0.64998 0.94683 0.0
C1342 C 0.59189 0.67175 0.95079 0.0
C1343 C 0.63621 0.69043 0.93666 0.0
C1344 C 0.66529 0.68761 0.91822 0.0
C1345 C 0.62076 0.66896 0.93209 0.0
C1346 C 0.67858 0.66326 0.8945 0.0
C1347 C 0.66331 0.64173 0.88979 0.0
H1348 H 0.48227 0.66231 0.84939 0.0
H1349 H 0.45834 0.58521 0.81412 0.0
H1350 H 0.40604 0.6201 0.80921 0.0
H1351 H 0.36647 0.67357 0.81614 0.0
H1352 H 0.39399 0.74759 0.85368 0.0
H1353 H 0.44459 0.71296 0.85704 0.0
C1354 C 0.46587 0.65287 0.84033 0.0
C1355 C 0.47469 0.62102 0.83182 0.0
C1356 C 0.43588 0.67268 0.83854 0.0
C1357 C 0.45253 0.60961 0.82064 0.0
C1358 C 0.42247 0.62962 0.81798 0.0
C1359 C 0.38343 0.68205 0.82526 0.0
C1360 C 0.37535 0.71361 0.83559 0.0
C1361 C 0.41369 0.66137 0.8271 0.0
C1362 C 0.39829 0.72359 0.84712 0.0
C1363 C 0.42786 0.70374 0.84843 0.0
H1364 H 0.47373 0.47724 0.86389 0.0
H1365 H 0.50569 0.42999 0.96683 0.0
H1366 H 0.47121 0.39861 0.9708 0.0
H1367 H 0.42961 0.38668 0.94761 0.0
H1368 H 0.39643 0.43443 0.84607 0.0
H1369 H 0.4339 0.46357 0.83911 0.0
C1370 C 0.47332 0.46031 0.88738 0.0
C1371 C 0.49243 0.45667 0.9152 0.0
C1372 C 0.45306 0.44237 0.88986 0.0
C1373 C 0.49149 0.43381 0.9449 0.0
C1374 C 0.47161 0.41571 0.94735 0.0
C1375 C 0.43075 0.40339 0.9239 0.0
C1376 C 0.41031 0.40873 0.89755 0.0
C1377 C 0.452 0.42016 0.92035 0.0
C1378 C 0.41214 0.42996 0.86659 0.0
C1379 C 0.43338 0.44671 0.86277 0.0
H1380 H 0.61351 0.42712 0.82674 0.0
H1381 H 0.64948 0.50439 0.83299 0.0
H1382 H 0.70098 0.46697 0.83254 0.0
H1383 H 0.736 0.41147 0.83113 0.0
H1384 H 0.69791 0.33546 0.82547 0.0
H1385 H 0.64744 0.37309 0.82537 0.0
C1386 C 0.63252 0.43605 0.82771 0.0
C1387 C 0.62731 0.46882 0.82966 0.0
C1388 C 0.66195 0.41438 0.82797 0.0
C1389 C 0.65257 0.47948 0.83114 0.0
C1390 C 0.6821 0.45797 0.83113 0.0
C1391 C 0.71663 0.40311 0.83023 0.0
C1392 C 0.72113 0.37034 0.82844 0.0
C1393 C 0.68711 0.42522 0.82984 0.0
C1394 C 0.69555 0.36028 0.82685 0.0
C1395 C 0.66647 0.38189 0.8267 0.0
H1396 H 0.66382 0.50244 0.28655 0.0
H1397 H 0.59505 0.45483 0.30108 0.0
H1398 H 0.63424 0.40338 0.30878 0.0
H1399 H 0.68884 0.37192 0.30642 0.0
H1400 H 0.75641 0.42107 0.29618 0.0
H1401 H 0.7171 0.47175 0.29145 0.0
C1402 C 0.65734 0.48083 0.29234 0.0
C1403 C 0.62659 0.48243 0.29353 0.0
C1404 C 0.67993 0.45154 0.29662 0.0
C1405 C 0.6185 0.45427 0.30077 0.0
C1406 C 0.64097 0.42484 0.30462 0.0
C1407 C 0.69497 0.3937 0.30298 0.0
C1408 C 0.72586 0.39242 0.30045 0.0
C1409 C 0.67189 0.42313 0.30165 0.0
C1410 C 0.73314 0.42103 0.29733 0.0
C1411 C 0.71054 0.45019 0.29487 0.0
H1412 H 0.6383 0.64166 0.18885 0.0
H1413 H 0.58572 0.64659 0.29549 0.0
H1414 H 0.60866 0.68432 0.31191 0.0
H1415 H 0.64295 0.71662 0.29623 0.0
H1416 H 0.69306 0.71533 0.18833 0.0
H1417 H 0.67202 0.67535 0.17248 0.0
C1418 C 0.63165 0.65116 0.21554 0.0
C1419 C 0.61039 0.6409 0.24086 0.0
C1420 C 0.64457 0.67351 0.22475 0.0
C1421 C 0.60241 0.65333 0.27556 0.0
C1422 C 0.61537 0.67521 0.28499 0.0
C1423 C 0.64901 0.70798 0.26903 0.0
C1424 C 0.66945 0.71921 0.24352 0.0
C1425 C 0.63636 0.68555 0.25979 0.0
C1426 C 0.67762 0.70695 0.20875 0.0
C1427 C 0.66542 0.68423 0.19952 0.0
H1428 H 0.46332 0.65188 0.22023 0.0
H1429 H 0.47697 0.62957 0.335 0.0
H1430 H 0.43652 0.67854 0.35016 0.0
H1431 H 0.39661 0.72774 0.33023 0.0
H1432 H 0.38418 0.74793 0.21496 0.0
H1433 H 0.42509 0.6999 0.2006 0.0
C1434 C 0.45762 0.65751 0.24871 0.0
C1435 C 0.47332 0.63683 0.27643 0.0
C1436 C 0.43462 0.68561 0.25705 0.0
C1437 C 0.46527 0.64483 0.31307 0.0
C1438 C 0.44221 0.67296 0.3217 0.0
C1439 C 0.4033 0.72187 0.30192 0.0
C1440 C 0.38742 0.74164 0.2736 0.0
C1441 C 0.42675 0.69364 0.29385 0.0
C1442 C 0.39592 0.73326 0.23721 0.0
C1443 C 0.4193 0.70571 0.22899 0.0
H1444 H 0.50987 0.44719 0.22583 0.0
H1445 H 0.44883 0.54126 0.20838 0.0
H1446 H 0.40682 0.51941 0.20632 0.0
H1447 H 0.38832 0.47304 0.20661 0.0
H1448 H 0.4486 0.37915 0.2285 0.0
H1449 H 0.4902 0.40115 0.23207 0.0
C1450 C 0.48733 0.46274 0.22152 0.0
C1451 C 0.48233 0.49565 0.21652 0.0
C1452 C 0.46333 0.44999 0.22126 0.0
C1453 C 0.453 0.51584 0.21195 0.0
C1454 C 0.42912 0.50335 0.21076 0.0
C1455 C 0.41056 0.45756 0.21243 0.0
C1456 C 0.41572 0.42462 0.21694 0.0
C1457 C 0.43411 0.47044 0.21495 0.0
C1458 C 0.44435 0.4046 0.2249 0.0
C1459 C 0.46807 0.41716 0.22678 0.0
H1460 H 0.79011 0.67667 0.6687 0.0
H1461 H 0.84076 0.60122 0.74068 0.0
H1462 H 0.83985 0.63913 0.78373 0.0
H1463 H 0.82679 0.69379 0.8003 0.0
H1464 H 0.77488 0.76996 0.73044 0.0
H1465 H 0.77495 0.73237 0.68713 0.0
C1466 C 0.80027 0.66856 0.69423 0.0
C1467 C 0.81512 0.63596 0.70166 0.0
C1468 C 0.80027 0.69085 0.71886 0.0
C1469 C 0.82891 0.62603 0.73444 0.0
C1470 C 0.82864 0.64777 0.75899 0.0
C1471 C 0.81563 0.70225 0.77548 0.0
C1472 C 0.80163 0.73497 0.76837 0.0
C1473 C 0.81488 0.68026 0.75126 0.0
C1474 C 0.78673 0.74522 0.73633 0.0
C1475 C 0.7864 0.72354 0.71165 0.0
H1476 H 0.44753 0.82403 0.66479 0.0
H1477 H 0.49958 0.7397 0.72407 0.0
H1478 H 0.45406 0.73646 0.76335 0.0
H1479 H 0.39841 0.75415 0.77877 0.0
H1480 H 0.34436 0.83725 0.72104 0.0
H1481 H 0.39051 0.84442 0.68453 0.0
C1482 C 0.4491 0.80522 0.68662 0.0
C1483 C 0.47791 0.78185 0.69045 0.0
C1484 C 0.42196 0.80326 0.71003 0.0
C1485 C 0.47842 0.75776 0.71928 0.0
C1486 C 0.45209 0.7559 0.74221 0.0
C1487 C 0.39666 0.77469 0.75946 0.0
C1488 C 0.36737 0.79626 0.75509 0.0
C1489 C 0.42359 0.77811 0.73767 0.0
C1490 C 0.36621 0.82125 0.72731 0.0
C1491 C 0.39288 0.825 0.70569 0.0
H1492 H 0.26721 0.44276 0.62398 0.0
H1493 H 0.35823 0.4398 0.63947 0.0
H1494 H 0.35634 0.4056 0.69571 0.0
H1495 H 0.32972 0.37522 0.74035 0.0
H1496 H 0.23903 0.37694 0.72561 0.0
H1497 H 0.23976 0.41314 0.67015 0.0
C1498 C 0.28654 0.43491 0.63977 0.0
C1499 C 0.31296 0.44394 0.6268 0.0
C1500 C 0.28534 0.41501 0.67264 0.0
C1501 C 0.33779 0.43304 0.64789 0.0
C1502 C 0.33667 0.41355 0.68046 0.0
C1503 C 0.30987 0.38387 0.7254 0.0
C1504 C 0.28428 0.37334 0.73746 0.0
C1505 C 0.31067 0.40425 0.69308 0.0
C1506 C 0.25903 0.38458 0.71716 0.0
C1507 C 0.2595 0.40524 0.68528 0.0
H1508 H 0.61093 0.27613 0.58728 0.0
H1509 H 0.54763 0.37026 0.58851 0.0
H1510 H 0.58206 0.38685 0.62142 0.0
H1511 H 0.62958 0.37354 0.65178 0.0
H1512 H 0.69327 0.27942 0.64536 0.0
H1513 H 0.65858 0.26385 0.61374 0.0
C1514 C 0.60441 0.30038 0.5947 0.0
C1515 C 0.57639 0.32183 0.58565 0.0
C1516 C 0.62428 0.30963 0.61329 0.0
C1517 C 0.56892 0.35322 0.59505 0.0
C1518 C 0.58861 0.36262 0.61404 0.0
C1519 C 0.63624 0.34969 0.64317 0.0
C1520 C 0.66433 0.32769 0.65197 0.0
C1521 C 0.61633 0.3409 0.62358 0.0
C1522 C 0.67178 0.29684 0.64052 0.0
C1523 C 0.652 0.2879 0.62182 0.0
H1524 H 0.83948 0.48827 0.53779 0.0
H1525 H 0.74648 0.54019 0.57153 0.0
H1526 H 0.72918 0.50199 0.54385 0.0
H1527 H 0.74115 0.4535 0.50994 0.0
H1528 H 0.83538 0.40116 0.48163 0.0
H1529 H 0.85127 0.44056 0.50654 0.0
C1530 C 0.8153 0.49161 0.53911 0.0
C1531 C 0.79431 0.51738 0.55661 0.0
C1532 C 0.80572 0.46952 0.52374 0.0
C1533 C 0.76316 0.52071 0.55821 0.0
C1534 C 0.75332 0.49883 0.54235 0.0
C1535 C 0.76519 0.45047 0.50942 0.0
C1536 C 0.78691 0.4242 0.49309 0.0
C1537 C 0.77447 0.47302 0.52507 0.0
C1538 C 0.81792 0.42128 0.49266 0.0
C1539 C 0.82716 0.44372 0.50742 0.0
H1540 H 0.71023 0.76156 0.50287 0.0
H1541 H 0.6296 0.81857 0.4544 0.0
H1542 H 0.66045 0.82502 0.39624 0.0
H1543 H 0.71023 0.81175 0.35688 0.0
H1544 H 0.79088 0.75561 0.40512 0.0
H1545 H 0.76063 0.75153 0.46455 0.0
C1546 C 0.69922 0.77547 0.47973 0.0
C1547 C 0.66699 0.78934 0.48381 0.0
C1548 C 0.71741 0.77936 0.44581 0.0
C1549 C 0.65393 0.80763 0.45294 0.0
C1550 C 0.67174 0.81126 0.41931 0.0
C1551 C 0.72139 0.7994 0.38067 0.0
C1552 C 0.75343 0.78509 0.37626 0.0
C1553 C 0.70349 0.79703 0.41514 0.0
C1554 C 0.76679 0.76783 0.40738 0.0
C1555 C 0.74924 0.76528 0.44156 0.0
H1556 H 0.33246 0.62766 0.38845 0.0
H1557 H 0.26113 0.65546 0.47708 0.0
H1558 H 0.25128 0.7108 0.45382 0.0
H1559 H 0.26365 0.75232 0.40896 0.0
H1560 H 0.33476 0.72426 0.32041 0.0
H1561 H 0.34383 0.6688 0.34277 0.0
C1562 C 0.31484 0.64572 0.40288 0.0
C1563 C 0.29783 0.63686 0.43491 0.0
C1564 C 0.30911 0.67788 0.38918 0.0
C1565 C 0.27469 0.66103 0.45249 0.0
C1566 C 0.26903 0.69296 0.43918 0.0
C1567 C 0.28101 0.73401 0.39448 0.0
C1568 C 0.29823 0.74273 0.36268 0.0
C1569 C 0.28618 0.70177 0.40765 0.0
C1570 C 0.32086 0.71856 0.34459 0.0
C1571 C 0.32615 0.68664 0.3575 0.0
H1572 H 0.43941 0.25911 0.47405 0.0
H1573 H 0.45492 0.34723 0.42909 0.0
H1574 H 0.41567 0.35537 0.38734 0.0
H1575 H 0.37657 0.33681 0.36319 0.0
H1576 H 0.36101 0.24955 0.41176 0.0
H1577 H 0.40058 0.24165 0.45195 0.0
C1578 C 0.43436 0.28022 0.45518 0.0
C1579 C 0.45051 0.30244 0.45486 0.0
C1580 C 0.41167 0.28476 0.43151 0.0
C1581 C 0.44301 0.32973 0.43028 0.0
C1582 C 0.42059 0.33427 0.40618 0.0
C1583 C 0.38211 0.31592 0.38231 0.0
C1584 C 0.3657 0.29364 0.38417 0.0
C1585 C 0.40481 0.31182 0.40632 0.0
C1586 C 0.37297 0.26708 0.40968 0.0
C1587 C 0.39571 0.26255 0.43275 0.0
H1588 H 0.61214 0.80939 0.72866 0.0
H1589 H 0.6459 0.84557 0.62322 0.0
H1590 H 0.68883 0.85172 0.65032 0.0
H1591 H 0.7188 0.84288 0.7037 0.0
H1592 H 0.68177 0.81015 0.80956 0.0
H1593 H 0.6385 0.80658 0.78267 0.0
C1594 C 0.62861 0.81916 0.71174 0.0
C1595 C 0.62578 0.82702 0.67401 0.0
C1596 C 0.65297 0.82295 0.72757 0.0
C1597 C 0.64732 0.83967 0.65245 0.0
C1598 C 0.67204 0.84292 0.66789 0.0
C1599 C 0.70108 0.83546 0.721 0.0
C1600 C 0.704 0.8267 0.75878 0.0
C1601 C 0.67544 0.83408 0.70539 0.0
C1602 C 0.68054 0.8171 0.78054 0.0
C1603 C 0.65559 0.81496 0.76514 0.0
H1604 H 0.66256 0.24373 0.46003 0.0
H1605 H 0.59861 0.32707 0.41371 0.0
H1606 H 0.64044 0.34337 0.37834 0.0
H1607 H 0.69572 0.33452 0.36063 0.0
H1608 H 0.75968 0.252 0.40754 0.0
H1609 H 0.71781 0.23516 0.44267 0.0
C1610 C 0.65765 0.26536 0.44205 0.0
C1611 C 0.62704 0.28404 0.43985 0.0
C1612 C 0.68206 0.27485 0.42178 0.0
C1613 C 0.62163 0.31225 0.41655 0.0
C1614 C 0.64567 0.32161 0.3961 0.0
C1615 C 0.70041 0.3126 0.3781 0.0
C1616 C 0.73085 0.29365 0.37986 0.0
C1617 C 0.67602 0.30318 0.39847 0.0
C1618 C 0.73652 0.26618 0.40418 0.0
C1619 C 0.7125 0.25674 0.42462 0.0
H1620 H 0.88712 0.64676 0.48079 0.0
H1621 H 0.79742 0.63579 0.48785 0.0
H1622 H 0.78939 0.66644 0.4292 0.0
H1623 H 0.80625 0.69961 0.37739 0.0
H1624 H 0.89409 0.71375 0.37324 0.0
H1625 H 0.9045 0.67814 0.4288 0.0
C1626 C 0.86575 0.6508 0.4699 0.0
C1627 C 0.84298 0.63875 0.48971 0.0
C1628 C 0.86095 0.66896 0.43614 0.0
C1629 C 0.81561 0.64448 0.47401 0.0
C1630 C 0.81088 0.66213 0.44013 0.0
C1631 C 0.82796 0.69421 0.38818 0.0
C1632 C 0.84947 0.7091 0.37115 0.0
C1633 C 0.83326 0.67476 0.42111 0.0
C1634 C 0.87723 0.70248 0.38584 0.0
C1635 C 0.88309 0.6823 0.41775 0.0
H1636 H 0.5263 0.79985 0.48689 0.0
H1637 H 0.49493 0.88375 0.54674 0.0
H1638 H 0.44695 0.89974 0.51902 0.0
H1639 H 0.41155 0.88527 0.48542 0.0
H1640 H 0.4422 0.79651 0.43416 0.0
H1641 H 0.49298 0.78772 0.44985 0.0
C1642 C 0.50918 0.82192 0.49355 0.0
C1643 C 0.51385 0.84027 0.51938 0.0
C1644 C 0.48137 0.83004 0.47905 0.0
C1645 C 0.49175 0.8691 0.52709 0.0
C1646 C 0.46425 0.87809 0.51146 0.0
C1647 C 0.42928 0.86399 0.47762 0.0
C1648 C 0.42257 0.84149 0.45893 0.0
C1649 C 0.45834 0.85795 0.48871 0.0
C1650 C 0.44632 0.81463 0.44803 0.0
C1651 C 0.4755 0.80926 0.45744 0.0
H1652 H 0.31264 0.43711 0.44376 0.0
H1653 H 0.22189 0.50118 0.44106 0.0
H1654 H 0.21037 0.46692 0.40078 0.0
H1655 H 0.22795 0.41943 0.36307 0.0
H1656 H 0.31953 0.35838 0.36756 0.0
H1657 H 0.3289 0.39053 0.40994 0.0
C1658 C 0.29021 0.44379 0.43453 0.0
C1659 C 0.26831 0.47196 0.44515 0.0
C1660 C 0.28387 0.42417 0.41167 0.0
C1661 C 0.23927 0.47969 0.43323 0.0
C1662 C 0.23274 0.46013 0.41007 0.0
C1663 C 0.24961 0.41286 0.37416 0.0
C1664 C 0.27247 0.38495 0.36381 0.0
C1665 C 0.25507 0.43236 0.39866 0.0
C1666 C 0.30087 0.37789 0.37701 0.0
C1667 C 0.30648 0.39688 0.40079 0.0
H1668 H 0.462 0.23088 0.67388 0.0
H1669 H 0.41765 0.31976 0.61603 0.0
H1670 H 0.37589 0.32991 0.66552 0.0
H1671 H 0.35177 0.31393 0.72656 0.0
H1672 H 0.39679 0.22518 0.78368 0.0
H1673 H 0.43788 0.21461 0.73336 0.0
C1674 C 0.44319 0.25239 0.67165 0.0
C1675 C 0.44353 0.27445 0.64071 0.0
C1676 C 0.41901 0.25815 0.70039 0.0
C1677 C 0.41868 0.30236 0.63932 0.0
C1678 C 0.39453 0.30818 0.66772 0.0
C1679 C 0.37038 0.29211 0.72769 0.0
C1680 C 0.37071 0.26992 0.75859 0.0
C1681 C 0.39441 0.28631 0.69855 0.0
C1682 C 0.39562 0.24232 0.76003 0.0
C1683 C 0.41923 0.23632 0.73125 0.0
H1684 H 0.8108 0.47534 0.71353 0.0
H1685 H 0.89233 0.43181 0.64427 0.0
H1686 H 0.88743 0.37939 0.66525 0.0
H1687 H 0.86034 0.34547 0.70417 0.0
H1688 H 0.77969 0.38894 0.77454 0.0
H1689 H 0.78339 0.4415 0.75194 0.0
C1690 C 0.82737 0.45438 0.7029 0.0
C1691 C 0.852 0.4576 0.6775 0.0
C1692 C 0.82448 0.42419 0.71524 0.0
C1693 C 0.87345 0.4301 0.66427 0.0
C1694 C 0.87051 0.40007 0.67602 0.0
C1695 C 0.84369 0.36654 0.71451 0.0
C1696 C 0.82052 0.36332 0.74208 0.0
C1697 C 0.84622 0.39677 0.70163 0.0
C1698 C 0.79853 0.39072 0.75459 0.0
C1699 C 0.80046 0.42085 0.74134 0.0
H1700 H 0.26088 0.62791 0.53891 0.0
H1701 H 0.25096 0.58136 0.64706 0.0
H1702 H 0.25544 0.62678 0.67468 0.0
H1703 H 0.27114 0.67487 0.66721 0.0
H1704 H 0.28426 0.72031 0.55863 0.0
H1705 H 0.27025 0.67993 0.53186 0.0
C1706 C 0.25823 0.62848 0.56852 0.0
C1707 C 0.25488 0.60176 0.59102 0.0
C1708 C 0.26265 0.6539 0.58398 0.0
C1709 C 0.25276 0.60207 0.62936 0.0
C1710 C 0.25588 0.62778 0.64506 0.0
C1711 C 0.27018 0.67651 0.63776 0.0
C1712 C 0.27909 0.70051 0.61499 0.0
C1713 C 0.26223 0.65313 0.62254 0.0
C1714 C 0.27817 0.70177 0.57679 0.0
C1715 C 0.2699 0.6788 0.56146 0.0
loop_
_geom_bond_atom_site_label_1
_geom_bond_atom_site_label_2
_geom_bond_distance
_geom_bond_site_symmetry_2
_ccdc_geom_bond_type
Cu0 N1 1.999 . S
Cu0 O6 1.974 . S
Cu0 N11 1.985 . S
Cu0 O20 1.959 1_455 S
N1 Cu0 1.999 . S
N1 C3 1.263 . S
N1 C5 1.389 . S
N2 C3 1.358 . S
N2 C4 1.400 . S
C3 N1 1.263 . S
C3 N2 1.358 . S
C3 H9 0.930 . S
C4 N2 1.400 . S
C4 C5 1.351 . S
C4 H21 0.930 . S
C5 N1 1.389 . S
C5 C4 1.351 . S
C5 H10 0.930 . S
O6 Cu0 1.974 . S
O6 C16 1.282 1_545 S
C7 O8 1.261 . S
C7 O20 1.251 . S
O8 C7 1.261 . S
H9 C3 0.930 . S
H10 C5 0.930 . S
N11 Cu0 1.985 . S
N11 C13 1.335 1_455 S
N11 C14 1.390 1_545 S
N12 C13 1.345 1_565 S
N12 C15 1.326 1_655 S
C13 N11 1.335 1_655 S
C13 N12 1.345 1_545 S
C13 H18 0.930 . S
C14 N11 1.390 1_565 S
C14 C15 1.361 . S
C14 H19 0.930 . S
C15 N12 1.326 1_455 S
C15 C14 1.361 . S
C15 H22 0.926 . S
C16 O6 1.282 1_565 S
C16 O17 1.216 1_565 S
O17 C16 1.216 1_545 S
H18 C13 0.930 . S
H19 C14 0.930 . S
O20 Cu0 1.959 1_655 S
O20 C7 1.251 . S
H21 C4 0.930 . S
H22 C15 0.926 . S
Cu23 N24 1.999 . S
Cu23 O29 1.974 1_455 S
Cu23 N34 1.985 . S
Cu23 O43 1.959 . S
N24 Cu23 1.999 . S
N24 C26 1.263 1_455 S
N24 C28 1.389 1_545 S
N25 C26 1.358 1_565 S
N25 C27 1.400 . S
C26 N24 1.263 1_655 S
C26 N25 1.358 1_545 S
C26 H32 0.930 . S
C27 N25 1.400 . S
C27 C28 1.351 1_655 S
C27 H44 0.930 . S
C28 N24 1.389 1_565 S
C28 C27 1.351 1_455 S
C28 H33 0.930 . S
O29 Cu23 1.974 1_655 S
O29 C39 1.282 . S
C30 O31 1.261 . S
C30 O43 1.251 . S
O31 C30 1.261 . S
H32 C26 0.930 . S
H33 C28 0.930 . S
N34 Cu23 1.985 . S
N34 C36 1.335 . S
N34 C37 1.390 . S
N35 C36 1.345 . S
N35 C38 1.336 . S
C36 N34 1.335 . S
C36 N35 1.345 . S
C36 H41 0.930 . S
C37 N34 1.390 . S
C37 C38 1.346 . S
C37 H42 0.930 . S
C38 N35 1.336 . S
C38 C37 1.346 . S
C38 H45 0.929 . S
C39 O29 1.282 . S
C39 O40 1.216 . S
O40 C39 1.216 . S
H41 C36 0.930 . S
H42 C37 0.930 . S
O43 Cu23 1.959 . S
O43 C30 1.251 . S
H44 C27 0.930 . S
H45 C38 0.929 . S
Cu46 N47 1.999 . S
Cu46 O52 1.974 . S
Cu46 N57 1.985 . S
Cu46 O66 1.959 . S
N47 Cu46 1.999 . S
N47 C49 1.263 . S
N47 C51 1.389 . S
N48 C49 1.358 . S
N48 C50 1.400 . S
C49 N47 1.263 . S
C49 N48 1.358 . S
C49 H55 0.930 . S
C50 N48 1.400 . S
C50 C51 1.351 . S
C50 H67 0.930 1_554 S
C51 N47 1.389 . S
C51 C50 1.351 . S
C51 H56 0.930 . S
O52 Cu46 1.974 . S
O52 C62 1.282 . S
C53 O54 1.261 . S
C53 O66 1.251 . S
O54 C53 1.261 . S
H55 C49 0.930 . S
H56 C51 0.930 . S
N57 Cu46 1.985 . S
N57 C59 1.335 . S
N57 C60 1.390 . S
N58 C59 1.345 . S
N58 C61 1.336 . S
C59 N57 1.335 . S
C59 N58 1.345 . S
C59 H64 0.930 . S
C60 N57 1.390 . S
C60 C61 1.346 . S
C60 H65 0.930 . S
C61 N58 1.336 . S
C61 C60 1.346 . S
C61 H68 0.929 . S
C62 O52 1.282 . S
C62 O63 1.216 . S
O63 C62 1.216 . S
H64 C59 0.930 . S
H65 C60 0.930 . S
O66 Cu46 1.959 . S
O66 C53 1.251 . S
H67 C50 0.930 1_556 S
H68 C61 0.929 . S
Cu69 N70 1.999 . S
Cu69 O75 1.974 . S
Cu69 N80 1.985 . S
Cu69 O89 1.959 . S
N70 Cu69 1.999 . S
N70 C72 1.263 . S
N70 C74 1.389 . S
N71 C72 1.358 . S
N71 C73 1.400 1_554 S
C72 N70 1.263 . S
C72 N71 1.358 . S
C72 H78 0.930 . S
C73 N71 1.400 1_556 S
C73 C74 1.351 1_556 S
C73 H90 0.930 . S
C74 N70 1.389 . S
C74 C73 1.351 1_554 S
C74 H79 0.940 . S
O75 Cu69 1.974 . S
O75 C85 1.282 . S
C76 O77 1.261 . S
C76 O89 1.251 . S
O77 C76 1.261 . S
H78 C72 0.930 . S
H79 C74 0.940 . S
N80 Cu69 1.985 . S
N80 C82 1.365 . S
N80 C83 1.390 . S
N81 C82 1.333 1_655 S
N81 C84 1.336 1_655 S
C82 N80 1.365 . S
C82 N81 1.333 1_455 S
C82 H87 0.915 1_455 S
C83 N80 1.390 . S
C83 C84 1.346 . S
C83 H88 0.930 . S
C84 N81 1.336 1_455 S
C84 C83 1.346 . S
C84 H91 0.929 . S
C85 O75 1.282 . S
C85 O86 1.216 . S
O86 C85 1.216 . S
H87 C82 0.915 1_655 S
H88 C83 0.930 . S
O89 Cu69 1.959 . S
O89 C76 1.251 . S
H90 C73 0.930 . S
H91 C84 0.929 . S
Cu92 N93 1.999 1_554 S
Cu92 O98 1.974 . S
Cu92 N103 1.985 1_545 S
Cu92 O112 1.959 1_544 S
N93 Cu92 1.999 1_556 S
N93 C95 1.263 . S
N93 C97 1.389 . S
N94 C95 1.358 . S
N94 C96 1.400 . S
C95 N93 1.263 . S
C95 N94 1.358 . S
C95 H101 0.930 . S
C96 N94 1.400 . S
C96 C97 1.351 . S
C96 H113 0.930 . S
C97 N93 1.389 . S
C97 C96 1.351 . S
C97 H102 0.930 . S
O98 Cu92 1.974 . S
O98 C108 1.282 . S
C99 O100 1.261 . S
C99 O112 1.251 . S
O100 C99 1.261 . S
H101 C95 0.930 . S
H102 C97 0.930 . S
N103 Cu92 1.985 1_565 S
N103 C105 1.335 . S
N103 C106 1.390 . S
N104 C105 1.345 . S
N104 C107 1.336 . S
C105 N103 1.335 . S
C105 N104 1.345 . S
C105 H110 0.930 . S
C106 N103 1.390 . S
C106 C107 1.346 . S
C106 H111 0.930 . S
C107 N104 1.336 . S
C107 C106 1.346 . S
C107 H114 0.929 . S
C108 O98 1.282 . S
C108 O109 1.216 . S
O109 C108 1.216 . S
H110 C105 0.930 . S
H111 C106 0.930 . S
O112 Cu92 1.959 1_566 S
O112 C99 1.251 . S
H113 C96 0.930 . S
H114 C107 0.929 . S
Cu115 N116 1.999 1_454 S
Cu115 O121 1.974 1_455 S
Cu115 N126 1.985 . S
Cu115 O135 1.959 1_554 S
N116 Cu115 1.999 1_656 S
N116 C118 1.263 . S
N116 C120 1.389 . S
N117 C118 1.358 . S
N117 C119 1.400 . S
C118 N116 1.263 . S
C118 N117 1.358 . S
C118 H124 0.930 . S
C119 N117 1.400 . S
C119 C120 1.351 . S
C119 H136 0.930 . S
C120 N116 1.389 . S
C120 C119 1.351 . S
C120 H125 0.930 1_655 S
O121 Cu115 1.974 1_655 S
O121 C131 1.282 . S
C122 O123 1.261 . S
C122 O135 1.251 . S
O123 C122 1.261 . S
H124 C118 0.930 . S
H125 C120 0.930 1_455 S
N126 Cu115 1.985 . S
N126 C128 1.335 . S
N126 C129 1.390 . S
N127 C128 1.345 . S
N127 C130 1.336 . S
C128 N126 1.335 . S
C128 N127 1.345 . S
C128 H133 0.930 . S
C129 N126 1.390 . S
C129 C130 1.346 . S
C129 H134 0.930 1_455 S
C130 N127 1.336 . S
C130 C129 1.346 . S
C130 H137 0.929 . S
C131 O121 1.282 . S
C131 O132 1.216 . S
O132 C131 1.216 . S
H133 C128 0.930 . S
H134 C129 0.930 1_655 S
O135 Cu115 1.959 1_556 S
O135 C122 1.251 . S
H136 C119 0.930 . S
H137 C130 0.929 . S
Cu138 N139 1.999 . S
Cu138 O144 1.974 . S
Cu138 N149 1.985 . S
Cu138 O158 1.959 . S
N139 Cu138 1.999 . S
N139 C141 1.263 . S
N139 C143 1.389 . S
N140 C141 1.358 . S
N140 C142 1.400 . S
C141 N139 1.263 . S
C141 N140 1.358 . S
C141 H147 0.930 . S
C142 N140 1.400 . S
C142 C143 1.351 . S
C142 H159 0.930 . S
C143 N139 1.389 . S
C143 C142 1.351 . S
C143 H148 0.930 . S
O144 Cu138 1.974 . S
O144 C154 1.282 . S
C145 O146 1.261 . S
C145 O158 1.251 . S
O146 C145 1.261 . S
H147 C141 0.930 . S
H148 C143 0.930 . S
N149 Cu138 1.985 . S
N149 C151 1.335 . S
N149 C152 1.390 . S
N150 C151 1.345 . S
N150 C153 1.336 . S
C151 N149 1.335 . S
C151 N150 1.345 . S
C151 H156 0.930 . S
C152 N149 1.390 . S
C152 C153 1.346 . S
C152 H157 0.930 . S
C153 N150 1.336 . S
C153 C152 1.346 . S
C153 H160 0.929 . S
C154 O144 1.282 . S
C154 O155 1.216 . S
O155 C154 1.216 . S
H156 C151 0.930 . S
H157 C152 0.930 . S
O158 Cu138 1.959 . S
O158 C145 1.251 . S
H159 C142 0.930 . S
H160 C153 0.929 . S
Cu161 N162 1.999 . S
Cu161 O167 1.974 . S
Cu161 N172 1.985 . S
Cu161 O181 1.959 . S
N162 Cu161 1.999 . S
N162 C164 1.263 . S
N162 C166 1.389 . S
N163 C164 1.358 . S
N163 C165 1.400 . S
C164 N162 1.263 . S
C164 N163 1.358 . S
C164 H170 0.930 . S
C165 N163 1.400 . S
C165 C166 1.351 . S
C165 H182 0.930 . S
C166 N162 1.389 . S
C166 C165 1.351 . S
C166 H171 0.930 . S
O167 Cu161 1.974 . S
O167 C177 1.282 . S
C168 O169 1.261 . S
C168 O181 1.251 . S
O169 C168 1.261 . S
H170 C164 0.930 . S
H171 C166 0.930 . S
N172 Cu161 1.985 . S
N172 C174 1.335 . S
N172 C175 1.390 . S
N173 C174 1.345 . S
N173 C176 1.336 . S
C174 N172 1.335 . S
C174 N173 1.345 . S
C174 H179 0.930 . S
C175 N172 1.390 . S
C175 C176 1.346 . S
C175 H180 0.930 . S
C176 N173 1.336 . S
C176 C175 1.346 . S
C176 H183 0.929 . S
C177 O167 1.282 . S
C177 O178 1.216 . S
O178 C177 1.216 . S
H179 C174 0.930 . S
H180 C175 0.930 . S
O181 Cu161 1.959 . S
O181 C168 1.251 . S
H182 C165 0.930 . S
H183 C176 0.929 . S
Cu184 N185 1.999 . S
Cu184 O190 1.974 . S
Cu184 N195 1.985 . S
Cu184 O204 1.959 . S
N185 Cu184 1.999 . S
N185 C187 1.263 . S
N185 C189 1.389 . S
N186 C187 1.358 . S
N186 C188 1.400 . S
C187 N185 1.263 . S
C187 N186 1.358 . S
C187 H193 0.930 . S
C188 N186 1.400 . S
C188 C189 1.351 . S
C188 H205 0.930 . S
C189 N185 1.389 . S
C189 C188 1.351 . S
C189 H194 0.930 . S
O190 Cu184 1.974 . S
O190 C200 1.282 . S
C191 O192 1.261 . S
C191 O204 1.251 . S
O192 C191 1.261 . S
H193 C187 0.930 . S
H194 C189 0.930 . S
N195 Cu184 1.985 . S
N195 C197 1.335 . S
N195 C198 1.390 . S
N196 C197 1.345 . S
N196 C199 1.336 . S
C197 N195 1.335 . S
C197 N196 1.345 . S
C197 H202 0.930 . S
C198 N195 1.390 . S
C198 C199 1.346 . S
C198 H203 0.930 . S
C199 N196 1.336 . S
C199 C198 1.346 . S
C199 H206 0.929 . S
C200 O190 1.282 . S
C200 O201 1.216 . S
O201 C200 1.216 . S
H202 C197 0.930 . S
H203 C198 0.930 . S
O204 Cu184 1.959 . S
O204 C191 1.251 . S
H205 C188 0.930 . S
H206 C199 0.929 . S
Cu207 N208 1.999 . S
Cu207 O213 1.974 . S
Cu207 N218 1.985 . S
Cu207 O227 1.959 . S
N208 Cu207 1.999 . S
N208 C210 1.263 . S
N208 C212 1.389 . S
N209 C210 1.358 . S
N209 C211 1.400 . S
C210 N208 1.263 . S
C210 N209 1.358 . S
C210 H216 0.930 . S
C211 N209 1.400 . S
C211 C212 1.351 . S
C211 H228 0.930 . S
C212 N208 1.389 . S
C212 C211 1.351 . S
C212 H217 0.930 . S
O213 Cu207 1.974 . S
O213 C223 1.282 . S
C214 O215 1.261 . S
C214 O227 1.251 . S
O215 C214 1.261 . S
H216 C210 0.930 . S
H217 C212 0.930 . S
N218 Cu207 1.985 . S
N218 C220 1.335 . S
N218 C221 1.390 . S
N219 C220 1.345 . S
N219 C222 1.336 . S
C220 N218 1.335 . S
C220 N219 1.345 . S
C220 H225 0.930 . S
C221 N218 1.390 . S
C221 C222 1.346 . S
C221 H226 0.930 . S
C222 N219 1.336 . S
C222 C221 1.346 . S
C222 H229 0.929 . S
C223 O213 1.282 . S
C223 O224 1.216 . S
O224 C223 1.216 . S
H225 C220 0.930 . S
H226 C221 0.930 . S
O227 Cu207 1.959 . S
O227 C214 1.251 . S
H228 C211 0.930 . S
H229 C222 0.929 . S
Cu230 N231 1.999 . S
Cu230 O236 1.974 . S
Cu230 N241 1.985 . S
Cu230 O250 1.959 . S
N231 Cu230 1.999 . S
N231 C233 1.263 . S
N231 C235 1.389 . S
N232 C233 1.358 . S
N232 C234 1.400 . S
C233 N231 1.263 . S
C233 N232 1.358 . S
C233 H239 0.930 . S
C234 N232 1.400 . S
C234 C235 1.351 . S
C234 H251 0.930 . S
C235 N231 1.389 . S
C235 C234 1.351 . S
C235 H240 0.930 . S
O236 Cu230 1.974 . S
O236 C246 1.282 . S
C237 O238 1.261 . S
C237 O250 1.251 . S
O238 C237 1.261 . S
H239 C233 0.930 . S
H240 C235 0.930 . S
N241 Cu230 1.985 . S
N241 C243 1.335 . S
N241 C244 1.390 . S
N242 C243 1.345 . S
N242 C245 1.336 . S
C243 N241 1.335 . S
C243 N242 1.345 . S
C243 H248 0.930 . S
C244 N241 1.390 . S
C244 C245 1.346 . S
C244 H249 0.930 . S
C245 N242 1.336 . S
C245 C244 1.346 . S
C245 H252 0.929 . S
C246 O236 1.282 . S
C246 O247 1.216 . S
O247 C246 1.216 . S
H248 C243 0.930 . S
H249 C244 0.930 . S
O250 Cu230 1.959 . S
O250 C237 1.251 . S
H251 C234 0.930 . S
H252 C245 0.929 . S
Cu253 N254 1.999 . S
Cu253 O259 1.974 . S
Cu253 N264 1.985 . S
Cu253 O273 1.959 . S
N254 Cu253 1.999 . S
N254 C256 1.263 . S
N254 C258 1.389 . S
N255 C256 1.358 . S
N255 C257 1.400 . S
C256 N254 1.263 . S
C256 N255 1.358 . S
C256 H262 0.930 . S
C257 N255 1.400 . S
C257 C258 1.351 . S
C257 H274 0.930 . S
C258 N254 1.389 . S
C258 C257 1.351 . S
C258 H263 0.930 . S
O259 Cu253 1.974 . S
O259 C269 1.282 . S
C260 O261 1.261 . S
C260 O273 1.251 . S
O261 C260 1.261 . S
H262 C256 0.930 . S
H263 C258 0.930 . S
N264 Cu253 1.985 . S
N264 C266 1.335 . S
N264 C267 1.390 . S
N265 C266 1.345 . S
N265 C268 1.336 . S
C266 N264 1.335 . S
C266 N265 1.345 . S
C266 H271 0.930 . S
C267 N264 1.390 . S
C267 C268 1.346 . S
C267 H272 0.930 . S
C268 N265 1.336 . S
C268 C267 1.346 . S
C268 H275 0.929 . S
C269 O259 1.282 . S
C269 O270 1.216 . S
O270 C269 1.216 . S
H271 C266 0.930 . S
H272 C267 0.930 . S
O273 Cu253 1.959 . S
O273 C260 1.251 . S
H274 C257 0.930 . S
H275 C268 0.929 . S
Gd276 N307 2.661 . S
Gd276 N313 2.601 . S
Gd276 O320 2.545 . S
Gd276 O321 2.606 . S
Gd276 O323 2.429 . S
Gd276 O324 2.545 . S
Gd276 O325 2.412 . S
Gd276 O327 2.362 . S
Gd276 O328 2.324 . S
Gd276 C335 2.828 . S
Gd277 N286 2.661 . S
Gd277 N290 2.601 . S
Gd277 O321 2.362 . S
Gd277 O322 2.324 . S
Gd277 O326 2.545 . S
Gd277 O327 2.606 . S
Gd277 O329 2.429 . S
Gd277 O330 2.545 . S
Gd277 O331 2.412 . S
Gd277 C344 2.828 . S
C278 C281 1.417 . S
C278 C283 1.431 . S
C278 C284 1.412 . S
C279 C282 1.437 . S
C279 C283 1.317 . S
C279 H298 0.929 . S
C280 C281 1.426 . S
C280 C282 1.413 . S
C280 N290 1.359 . S
C281 C278 1.417 . S
C281 C280 1.426 . S
C281 N286 1.350 . S
C282 C279 1.437 . S
C282 C280 1.413 . S
C282 C292 1.391 . S
C283 C278 1.431 . S
C283 C279 1.317 . S
C283 H294 0.930 . S
C284 C278 1.412 . S
C284 C285 1.355 . S
C284 H296 0.930 . S
C285 C284 1.355 . S
C285 C287 1.402 . S
C285 H297 0.930 . S
N286 Gd277 2.661 . S
N286 C281 1.350 . S
N286 C287 1.307 . S
C287 C285 1.402 . S
C287 N286 1.307 . S
C287 H288 0.930 . S
H288 C287 0.930 . S
C289 N290 1.334 . S
C289 C291 1.394 . S
C289 H293 0.930 . S
N290 Gd277 2.601 . S
N290 C280 1.359 . S
N290 C289 1.334 . S
C291 C289 1.394 . S
C291 C292 1.359 . S
C291 H303 0.930 . S
C292 C282 1.391 . S
C292 C291 1.359 . S
C292 H304 0.929 . S
H293 C289 0.930 . S
H294 C283 0.930 . S
H295 C312 0.930 . S
H296 C284 0.930 . S
H297 C285 0.930 . S
H298 C279 0.929 . S
H299 C317 0.930 . S
H300 C308 0.930 . S
H301 C309 0.930 . S
H302 C333 0.929 . S
H303 C291 0.930 . S
H304 C292 0.929 . S
H305 C334 0.930 . S
H306 C315 0.930 . S
N307 Gd276 2.661 . S
N307 C311 1.350 . S
N307 C312 1.307 . S
C308 H300 0.930 . S
C308 C309 1.355 . S
C308 C310 1.412 . S
C309 H301 0.930 . S
C309 C308 1.355 . S
C309 C312 1.402 . S
C310 C308 1.412 . S
C310 C311 1.417 . S
C310 C334 1.431 . S
C311 N307 1.350 . S
C311 C310 1.417 . S
C311 C314 1.426 . S
C312 H295 0.930 . S
C312 N307 1.307 . S
C312 C309 1.402 . S
N313 Gd276 2.601 . S
N313 C314 1.359 . S
N313 C317 1.334 . S
C314 C311 1.426 . S
C314 N313 1.359 . S
C314 C318 1.413 . S
C315 H306 0.930 . S
C315 C316 1.359 . S
C315 C317 1.394 . S
C316 C315 1.359 . S
C316 C318 1.391 . S
C316 H319 0.929 . S
C317 H299 0.930 . S
C317 N313 1.334 . S
C317 C315 1.394 . S
C318 C314 1.413 . S
C318 C316 1.391 . S
C318 C333 1.437 . S
H319 C316 0.929 . S
O320 Gd276 2.545 . S
O320 C335 1.258 . S
O321 Gd276 2.606 . S
O321 Gd277 2.362 . S
O321 C332 1.284 . S
O322 Gd277 2.324 . S
O322 C342 1.254 . S
O323 Gd276 2.429 . S
O323 C342 1.268 . S
O324 Gd276 2.545 . S
O324 C332 1.250 . S
O325 Gd276 2.412 . S
O325 C335 1.252 . S
O326 Gd277 2.545 . S
O326 C344 1.258 . S
O327 Gd276 2.362 . S
O327 Gd277 2.606 . S
O327 C343 1.284 . S
O328 Gd276 2.324 . S
O328 C351 1.254 . S
O329 Gd277 2.429 . S
O329 C351 1.268 . S
O330 Gd277 2.545 . S
O330 C343 1.250 . S
O331 Gd277 2.412 . S
O331 C344 1.252 . S
C332 O321 1.284 . S
C332 O324 1.250 . S
C333 H302 0.929 . S
C333 C318 1.437 . S
C333 C334 1.317 . S
C334 H305 0.930 . S
C334 C310 1.431 . S
C334 C333 1.317 . S
C335 Gd276 2.828 . S
C335 O320 1.258 . S
C335 O325 1.252 . S
C335 C336 1.497 . S
C336 C335 1.497 . S
C336 C337 1.395 . S
C336 C338 1.380 . S
C337 C336 1.395 . S
C337 C340 1.398 . S
C337 H352 0.930 . S
C338 C336 1.380 . S
C338 C339 1.391 . S
C338 H353 0.930 . S
C339 C338 1.391 . S
C339 C341 1.387 . S
C340 C337 1.398 . S
C340 C341 1.380 . S
C340 H354 0.930 . S
C341 C339 1.387 . S
C341 C340 1.380 . S
C341 H355 0.930 . S
C342 O322 1.254 . S
C342 O323 1.268 . S
C343 O327 1.284 . S
C343 O330 1.250 . S
C344 Gd277 2.828 . S
C344 O326 1.258 . S
C344 O331 1.252 . S
C344 C345 1.497 . S
C345 C344 1.497 . S
C345 C346 1.395 . S
C345 C347 1.380 . S
C346 C345 1.395 . S
C346 C349 1.398 . S
C346 H356 0.930 . S
C347 C345 1.380 . S
C347 C348 1.391 . S
C347 H357 0.930 . S
C348 C347 1.391 . S
C348 C350 1.387 . S
C349 C346 1.398 . S
C349 C350 1.380 . S
C349 H358 0.930 . S
C350 C348 1.387 . S
C350 C349 1.380 . S
C350 H359 0.930 . S
C351 O328 1.254 . S
C351 O329 1.268 . S
H352 C337 0.930 . S
H353 C338 0.930 . S
H354 C340 0.930 . S
H355 C341 0.930 . S
H356 C346 0.930 . S
H357 C347 0.930 . S
H358 C349 0.930 . S
H359 C350 0.930 . S
Gd360 N391 2.661 . S
Gd360 N397 2.601 . S
Gd360 O404 2.545 . S
Gd360 O405 2.606 . S
Gd360 O407 2.429 . S
Gd360 O408 2.545 . S
Gd360 O409 2.412 . S
Gd360 O411 2.362 . S
Gd360 O412 2.324 . S
Gd360 C419 2.828 . S
Gd361 N370 2.661 . S
Gd361 N374 2.601 . S
Gd361 O405 2.362 . S
Gd361 O406 2.324 . S
Gd361 O410 2.545 . S
Gd361 O411 2.606 . S
Gd361 O413 2.429 . S
Gd361 O414 2.545 . S
Gd361 O415 2.412 . S
Gd361 C428 2.828 . S
C362 C365 1.417 . S
C362 C367 1.431 . S
C362 C368 1.412 . S
C363 C366 1.437 . S
C363 C367 1.317 . S
C363 H382 0.929 . S
C364 C365 1.426 . S
C364 C366 1.413 . S
C364 N374 1.359 . S
C365 C362 1.417 . S
C365 C364 1.426 . S
C365 N370 1.350 . S
C366 C363 1.437 . S
C366 C364 1.413 . S
C366 C376 1.391 . S
C367 C362 1.431 . S
C367 C363 1.317 . S
C367 H378 0.930 . S
C368 C362 1.412 . S
C368 C369 1.355 . S
C368 H380 0.930 . S
C369 C368 1.355 . S
C369 C371 1.402 . S
C369 H381 0.930 . S
N370 Gd361 2.661 . S
N370 C365 1.350 . S
N370 C371 1.307 . S
C371 C369 1.402 . S
C371 N370 1.307 . S
C371 H372 0.930 . S
H372 C371 0.930 . S
C373 N374 1.334 . S
C373 C375 1.394 . S
C373 H377 0.930 . S
N374 Gd361 2.601 . S
N374 C364 1.359 . S
N374 C373 1.334 . S
C375 C373 1.394 . S
C375 C376 1.359 . S
C375 H387 0.930 . S
C376 C366 1.391 . S
C376 C375 1.359 . S
C376 H388 0.929 . S
H377 C373 0.930 . S
H378 C367 0.930 . S
H379 C396 0.930 . S
H380 C368 0.930 . S
H381 C369 0.930 . S
H382 C363 0.929 . S
H383 C401 0.930 . S
H384 C392 0.930 . S
H385 C393 0.930 . S
H386 C417 0.929 . S
H387 C375 0.930 . S
H388 C376 0.929 . S
H389 C418 0.930 . S
H390 C399 0.930 . S
N391 Gd360 2.661 . S
N391 C395 1.350 . S
N391 C396 1.307 . S
C392 H384 0.930 . S
C392 C393 1.355 . S
C392 C394 1.412 . S
C393 H385 0.930 . S
C393 C392 1.355 . S
C393 C396 1.402 . S
C394 C392 1.412 . S
C394 C395 1.417 . S
C394 C418 1.431 . S
C395 N391 1.350 . S
C395 C394 1.417 . S
C395 C398 1.426 . S
C396 H379 0.930 . S
C396 N391 1.307 . S
C396 C393 1.402 . S
N397 Gd360 2.601 . S
N397 C398 1.359 . S
N397 C401 1.334 . S
C398 C395 1.426 . S
C398 N397 1.359 . S
C398 C402 1.413 . S
C399 H390 0.930 . S
C399 C400 1.359 . S
C399 C401 1.394 . S
C400 C399 1.359 . S
C400 C402 1.391 . S
C400 H403 0.929 . S
C401 H383 0.930 . S
C401 N397 1.334 . S
C401 C399 1.394 . S
C402 C398 1.413 . S
C402 C400 1.391 . S
C402 C417 1.437 . S
H403 C400 0.929 . S
O404 Gd360 2.545 . S
O404 C419 1.258 . S
O405 Gd360 2.606 . S
O405 Gd361 2.362 . S
O405 C416 1.284 . S
O406 Gd361 2.324 . S
O406 C426 1.254 . S
O407 Gd360 2.429 . S
O407 C426 1.268 . S
O408 Gd360 2.545 . S
O408 C416 1.250 . S
O409 Gd360 2.412 . S
O409 C419 1.252 . S
O410 Gd361 2.545 . S
O410 C428 1.258 . S
O411 Gd360 2.362 . S
O411 Gd361 2.606 . S
O411 C427 1.284 . S
O412 Gd360 2.324 . S
O412 C435 1.254 . S
O413 Gd361 2.429 . S
O413 C435 1.268 . S
O414 Gd361 2.545 . S
O414 C427 1.250 . S
O415 Gd361 2.412 . S
O415 C428 1.252 . S
C416 O405 1.284 . S
C416 O408 1.250 . S
C417 H386 0.929 . S
C417 C402 1.437 . S
C417 C418 1.317 . S
C418 H389 0.930 . S
C418 C394 1.431 . S
C418 C417 1.317 . S
C419 Gd360 2.828 . S
C419 O404 1.258 . S
C419 O409 1.252 . S
C419 C420 1.497 . S
C420 C419 1.497 . S
C420 C421 1.395 . S
C420 C422 1.380 . S
C421 C420 1.395 . S
C421 C424 1.398 . S
C421 H436 0.930 . S
C422 C420 1.380 . S
C422 C423 1.391 . S
C422 H437 0.930 . S
C423 C422 1.391 . S
C423 C425 1.387 . S
C424 C421 1.398 . S
C424 C425 1.380 . S
C424 H438 0.930 . S
C425 C423 1.387 . S
C425 C424 1.380 . S
C425 H439 0.930 . S
C426 O406 1.254 . S
C426 O407 1.268 . S
C427 O411 1.284 . S
C427 O414 1.250 . S
C428 Gd361 2.828 . S
C428 O410 1.258 . S
C428 O415 1.252 . S
C428 C429 1.497 . S
C429 C428 1.497 . S
C429 C430 1.395 . S
C429 C431 1.380 . S
C430 C429 1.395 . S
C430 C433 1.398 . S
C430 H440 0.930 . S
C431 C429 1.380 . S
C431 C432 1.391 . S
C431 H441 0.930 . S
C432 C431 1.391 . S
C432 C434 1.387 . S
C433 C430 1.398 . S
C433 C434 1.380 . S
C433 H442 0.930 . S
C434 C432 1.387 . S
C434 C433 1.380 . S
C434 H443 0.930 . S
C435 O412 1.254 . S
C435 O413 1.268 . S
H436 C421 0.930 . S
H437 C422 0.930 . S
H438 C424 0.930 . S
H439 C425 0.930 . S
H440 C430 0.930 . S
H441 C431 0.930 . S
H442 C433 0.930 . S
H443 C434 0.930 . S
Gd444 N475 2.661 . S
Gd444 N481 2.601 . S
Gd444 O488 2.545 . S
Gd444 O489 2.606 . S
Gd444 O491 2.429 . S
Gd444 O492 2.545 . S
Gd444 O493 2.412 . S
Gd444 O495 2.362 . S
Gd444 O496 2.324 . S
Gd444 C503 2.828 . S
Gd445 N454 2.661 . S
Gd445 N458 2.601 . S
Gd445 O489 2.362 . S
Gd445 O490 2.324 . S
Gd445 O494 2.545 . S
Gd445 O495 2.606 . S
Gd445 O497 2.429 . S
Gd445 O498 2.545 . S
Gd445 O499 2.412 . S
Gd445 C512 2.828 . S
C446 C449 1.417 . S
C446 C451 1.431 . S
C446 C452 1.412 . S
C447 C450 1.437 . S
C447 C451 1.317 . S
C447 H466 0.929 . S
C448 C449 1.426 . S
C448 C450 1.413 . S
C448 N458 1.359 . S
C449 C446 1.417 . S
C449 C448 1.426 . S
C449 N454 1.350 . S
C450 C447 1.437 . S
C450 C448 1.413 . S
C450 C460 1.391 . S
C451 C446 1.431 . S
C451 C447 1.317 . S
C451 H462 0.930 . S
C452 C446 1.412 . S
C452 C453 1.355 . S
C452 H464 0.930 . S
C453 C452 1.355 . S
C453 C455 1.402 . S
C453 H465 0.930 . S
N454 Gd445 2.661 . S
N454 C449 1.350 . S
N454 C455 1.307 . S
C455 C453 1.402 . S
C455 N454 1.307 . S
C455 H456 0.930 . S
H456 C455 0.930 . S
C457 N458 1.334 . S
C457 C459 1.394 . S
C457 H461 0.930 . S
N458 Gd445 2.601 . S
N458 C448 1.359 . S
N458 C457 1.334 . S
C459 C457 1.394 . S
C459 C460 1.359 . S
C459 H471 0.930 . S
C460 C450 1.391 . S
C460 C459 1.359 . S
C460 H472 0.929 . S
H461 C457 0.930 . S
H462 C451 0.930 . S
H463 C480 0.930 . S
H464 C452 0.930 . S
H465 C453 0.930 . S
H466 C447 0.929 . S
H467 C485 0.930 . S
H468 C476 0.930 . S
H469 C477 0.930 . S
H470 C501 0.929 . S
H471 C459 0.930 . S
H472 C460 0.929 . S
H473 C502 0.930 . S
H474 C483 0.930 . S
N475 Gd444 2.661 . S
N475 C479 1.350 . S
N475 C480 1.307 . S
C476 H468 0.930 . S
C476 C477 1.355 . S
C476 C478 1.412 . S
C477 H469 0.930 . S
C477 C476 1.355 . S
C477 C480 1.402 . S
C478 C476 1.412 . S
C478 C479 1.417 . S
C478 C502 1.431 . S
C479 N475 1.350 . S
C479 C478 1.417 . S
C479 C482 1.426 . S
C480 H463 0.930 . S
C480 N475 1.307 . S
C480 C477 1.402 . S
N481 Gd444 2.601 . S
N481 C482 1.359 . S
N481 C485 1.334 . S
C482 C479 1.426 . S
C482 N481 1.359 . S
C482 C486 1.413 . S
C483 H474 0.930 . S
C483 C484 1.359 . S
C483 C485 1.394 . S
C484 C483 1.359 . S
C484 C486 1.391 . S
C484 H487 0.929 . S
C485 H467 0.930 . S
C485 N481 1.334 . S
C485 C483 1.394 . S
C486 C482 1.413 . S
C486 C484 1.391 . S
C486 C501 1.437 . S
H487 C484 0.929 . S
O488 Gd444 2.545 . S
O488 C503 1.258 . S
O489 Gd444 2.606 . S
O489 Gd445 2.362 . S
O489 C500 1.284 . S
O490 Gd445 2.324 . S
O490 C510 1.254 . S
O491 Gd444 2.429 . S
O491 C510 1.268 . S
O492 Gd444 2.545 . S
O492 C500 1.250 . S
O493 Gd444 2.412 . S
O493 C503 1.252 . S
O494 Gd445 2.545 . S
O494 C512 1.258 . S
O495 Gd444 2.362 . S
O495 Gd445 2.606 . S
O495 C511 1.284 . S
O496 Gd444 2.324 . S
O496 C519 1.254 . S
O497 Gd445 2.429 . S
O497 C519 1.268 . S
O498 Gd445 2.545 . S
O498 C511 1.250 . S
O499 Gd445 2.412 . S
O499 C512 1.252 . S
C500 O489 1.284 . S
C500 O492 1.250 . S
C501 H470 0.929 . S
C501 C486 1.437 . S
C501 C502 1.317 . S
C502 H473 0.930 . S
C502 C478 1.431 . S
C502 C501 1.317 . S
C503 Gd444 2.828 . S
C503 O488 1.258 . S
C503 O493 1.252 . S
C503 C504 1.497 . S
C504 C503 1.497 . S
C504 C505 1.395 . S
C504 C506 1.380 . S
C505 C504 1.395 . S
C505 C508 1.398 . S
C505 H520 0.930 . S
C506 C504 1.380 . S
C506 C507 1.391 . S
C506 H521 0.930 . S
C507 C506 1.391 . S
C507 C509 1.387 . S
C508 C505 1.398 . S
C508 C509 1.380 . S
C508 H522 0.930 . S
C509 C507 1.387 . S
C509 C508 1.380 . S
C509 H523 0.930 . S
C510 O490 1.254 . S
C510 O491 1.268 . S
C511 O495 1.284 . S
C511 O498 1.250 . S
C512 Gd445 2.828 . S
C512 O494 1.258 . S
C512 O499 1.252 . S
C512 C513 1.497 . S
C513 C512 1.497 . S
C513 C514 1.395 . S
C513 C515 1.380 . S
C514 C513 1.395 . S
C514 C517 1.398 . S
C514 H524 0.930 . S
C515 C513 1.380 . S
C515 C516 1.391 . S
C515 H525 0.930 . S
C516 C515 1.391 . S
C516 C518 1.387 . S
C517 C514 1.398 . S
C517 C518 1.380 . S
C517 H526 0.930 . S
C518 C516 1.387 . S
C518 C517 1.380 . S
C518 H527 0.930 . S
C519 O496 1.254 . S
C519 O497 1.268 . S
H520 C505 0.930 . S
H521 C506 0.930 . S
H522 C508 0.930 . S
H523 C509 0.930 . S
H524 C514 0.930 . S
H525 C515 0.930 . S
H526 C517 0.930 . S
H527 C518 0.930 . S
Gd528 N559 2.661 . S
Gd528 N565 2.601 . S
Gd528 O572 2.545 . S
Gd528 O573 2.606 . S
Gd528 O575 2.429 . S
Gd528 O576 2.545 . S
Gd528 O577 2.412 . S
Gd528 O579 2.362 . S
Gd528 O580 2.324 . S
Gd528 C587 2.828 . S
Gd529 N538 2.661 . S
Gd529 N542 2.601 . S
Gd529 O573 2.362 . S
Gd529 O574 2.324 . S
Gd529 O578 2.545 . S
Gd529 O579 2.606 . S
Gd529 O581 2.429 . S
Gd529 O582 2.545 . S
Gd529 O583 2.412 . S
Gd529 C596 2.828 . S
C530 C533 1.417 . S
C530 C535 1.431 . S
C530 C536 1.412 . S
C531 C534 1.437 . S
C531 C535 1.317 . S
C531 H550 0.929 . S
C532 C533 1.426 . S
C532 C534 1.413 . S
C532 N542 1.359 . S
C533 C530 1.417 . S
C533 C532 1.426 . S
C533 N538 1.350 . S
C534 C531 1.437 . S
C534 C532 1.413 . S
C534 C544 1.391 . S
C535 C530 1.431 . S
C535 C531 1.317 . S
C535 H546 0.930 . S
C536 C530 1.412 . S
C536 C537 1.355 . S
C536 H548 0.930 . S
C537 C536 1.355 . S
C537 C539 1.402 . S
C537 H549 0.930 . S
N538 Gd529 2.661 . S
N538 C533 1.350 . S
N538 C539 1.307 . S
C539 C537 1.402 . S
C539 N538 1.307 . S
C539 H540 0.930 . S
H540 C539 0.930 . S
C541 N542 1.334 . S
C541 C543 1.394 . S
C541 H545 0.930 . S
N542 Gd529 2.601 . S
N542 C532 1.359 . S
N542 C541 1.334 . S
C543 C541 1.394 . S
C543 C544 1.359 . S
C543 H555 0.930 . S
C544 C534 1.391 . S
C544 C543 1.359 . S
C544 H556 0.929 . S
H545 C541 0.930 . S
H546 C535 0.930 . S
H547 C564 0.930 . S
H548 C536 0.930 . S
H549 C537 0.930 . S
H550 C531 0.929 . S
H551 C569 0.930 . S
H552 C560 0.930 . S
H553 C561 0.930 . S
H554 C585 0.929 . S
H555 C543 0.930 . S
H556 C544 0.929 . S
H557 C586 0.930 . S
H558 C567 0.930 . S
N559 Gd528 2.661 . S
N559 C563 1.350 . S
N559 C564 1.307 . S
C560 H552 0.930 . S
C560 C561 1.355 . S
C560 C562 1.412 . S
C561 H553 0.930 . S
C561 C560 1.355 . S
C561 C564 1.402 . S
C562 C560 1.412 . S
C562 C563 1.417 . S
C562 C586 1.431 . S
C563 N559 1.350 . S
C563 C562 1.417 . S
C563 C566 1.426 . S
C564 H547 0.930 . S
C564 N559 1.307 . S
C564 C561 1.402 . S
N565 Gd528 2.601 . S
N565 C566 1.359 . S
N565 C569 1.334 . S
C566 C563 1.426 . S
C566 N565 1.359 . S
C566 C570 1.413 . S
C567 H558 0.930 . S
C567 C568 1.359 . S
C567 C569 1.394 . S
C568 C567 1.359 . S
C568 C570 1.391 . S
C568 H571 0.929 . S
C569 H551 0.930 . S
C569 N565 1.334 . S
C569 C567 1.394 . S
C570 C566 1.413 . S
C570 C568 1.391 . S
C570 C585 1.437 . S
H571 C568 0.929 . S
O572 Gd528 2.545 . S
O572 C587 1.258 . S
O573 Gd528 2.606 . S
O573 Gd529 2.362 . S
O573 C584 1.284 . S
O574 Gd529 2.324 . S
O574 C594 1.254 . S
O575 Gd528 2.429 . S
O575 C594 1.268 . S
O576 Gd528 2.545 . S
O576 C584 1.250 . S
O577 Gd528 2.412 . S
O577 C587 1.252 . S
O578 Gd529 2.545 . S
O578 C596 1.258 . S
O579 Gd528 2.362 . S
O579 Gd529 2.606 . S
O579 C595 1.284 . S
O580 Gd528 2.324 . S
O580 C603 1.254 . S
O581 Gd529 2.429 . S
O581 C603 1.268 . S
O582 Gd529 2.545 . S
O582 C595 1.250 . S
O583 Gd529 2.412 . S
O583 C596 1.252 . S
C584 O573 1.284 . S
C584 O576 1.250 . S
C585 H554 0.929 . S
C585 C570 1.437 . S
C585 C586 1.317 . S
C586 H557 0.930 . S
C586 C562 1.431 . S
C586 C585 1.317 . S
C587 Gd528 2.828 . S
C587 O572 1.258 . S
C587 O577 1.252 . S
C587 C588 1.497 . S
C588 C587 1.497 . S
C588 C589 1.395 . S
C588 C590 1.380 . S
C589 C588 1.395 . S
C589 C592 1.398 . S
C589 H604 0.930 . S
C590 C588 1.380 . S
C590 C591 1.391 . S
C590 H605 0.930 . S
C591 C590 1.391 . S
C591 C593 1.387 . S
C592 C589 1.398 . S
C592 C593 1.380 . S
C592 H606 0.930 . S
C593 C591 1.387 . S
C593 C592 1.380 . S
C593 H607 0.930 . S
C594 O574 1.254 . S
C594 O575 1.268 . S
C595 O579 1.284 . S
C595 O582 1.250 . S
C596 Gd529 2.828 . S
C596 O578 1.258 . S
C596 O583 1.252 . S
C596 C597 1.497 . S
C597 C596 1.497 . S
C597 C598 1.395 . S
C597 C599 1.380 . S
C598 C597 1.395 . S
C598 C601 1.398 . S
C598 H608 0.930 . S
C599 C597 1.380 . S
C599 C600 1.391 . S
C599 H609 0.930 . S
C600 C599 1.391 . S
C600 C602 1.387 . S
C601 C598 1.398 . S
C601 C602 1.380 . S
C601 H610 0.930 . S
C602 C600 1.387 . S
C602 C601 1.380 . S
C602 H611 0.930 . S
C603 O580 1.254 . S
C603 O581 1.268 . S
H604 C589 0.930 . S
H605 C590 0.930 . S
H606 C592 0.930 . S
H607 C593 0.930 . S
H608 C598 0.930 . S
H609 C599 0.930 . S
H610 C601 0.930 . S
H611 C602 0.930 . S
Gd612 N643 2.661 . S
Gd612 N649 2.601 . S
Gd612 O656 2.545 . S
Gd612 O657 2.606 . S
Gd612 O659 2.429 . S
Gd612 O660 2.545 . S
Gd612 O661 2.412 . S
Gd612 O663 2.362 . S
Gd612 O664 2.324 . S
Gd612 C671 2.828 . S
Gd613 N622 2.661 . S
Gd613 N626 2.601 . S
Gd613 O657 2.362 . S
Gd613 O658 2.324 . S
Gd613 O662 2.545 . S
Gd613 O663 2.606 . S
Gd613 O665 2.429 . S
Gd613 O666 2.545 . S
Gd613 O667 2.412 . S
Gd613 C680 2.828 . S
C614 C617 1.417 . S
C614 C619 1.431 . S
C614 C620 1.412 . S
C615 C618 1.437 . S
C615 C619 1.317 . S
C615 H634 0.929 . S
C616 C617 1.426 . S
C616 C618 1.413 . S
C616 N626 1.359 . S
C617 C614 1.417 . S
C617 C616 1.426 . S
C617 N622 1.350 . S
C618 C615 1.437 . S
C618 C616 1.413 . S
C618 C628 1.391 . S
C619 C614 1.431 . S
C619 C615 1.317 . S
C619 H630 0.930 . S
C620 C614 1.412 . S
C620 C621 1.355 . S
C620 H632 0.930 . S
C621 C620 1.355 . S
C621 C623 1.402 . S
C621 H633 0.930 . S
N622 Gd613 2.661 . S
N622 C617 1.350 . S
N622 C623 1.307 . S
C623 C621 1.402 . S
C623 N622 1.307 . S
C623 H624 0.930 . S
H624 C623 0.930 . S
C625 N626 1.334 . S
C625 C627 1.394 . S
C625 H629 0.930 . S
N626 Gd613 2.601 . S
N626 C616 1.359 . S
N626 C625 1.334 . S
C627 C625 1.394 . S
C627 C628 1.359 . S
C627 H639 0.930 . S
C628 C618 1.391 . S
C628 C627 1.359 . S
C628 H640 0.929 . S
H629 C625 0.930 . S
H630 C619 0.930 . S
H631 C648 0.930 . S
H632 C620 0.930 . S
H633 C621 0.930 . S
H634 C615 0.929 . S
H635 C653 0.930 . S
H636 C644 0.930 . S
H637 C645 0.930 . S
H638 C669 0.929 . S
H639 C627 0.930 . S
H640 C628 0.929 . S
H641 C670 0.930 . S
H642 C651 0.930 . S
N643 Gd612 2.661 . S
N643 C647 1.350 . S
N643 C648 1.307 . S
C644 H636 0.930 . S
C644 C645 1.355 . S
C644 C646 1.412 . S
C645 H637 0.930 . S
C645 C644 1.355 . S
C645 C648 1.402 . S
C646 C644 1.412 . S
C646 C647 1.417 . S
C646 C670 1.431 . S
C647 N643 1.350 . S
C647 C646 1.417 . S
C647 C650 1.426 . S
C648 H631 0.930 . S
C648 N643 1.307 . S
C648 C645 1.402 . S
N649 Gd612 2.601 . S
N649 C650 1.359 . S
N649 C653 1.334 . S
C650 C647 1.426 . S
C650 N649 1.359 . S
C650 C654 1.413 . S
C651 H642 0.930 . S
C651 C652 1.359 . S
C651 C653 1.394 . S
C652 C651 1.359 . S
C652 C654 1.391 . S
C652 H655 0.929 . S
C653 H635 0.930 . S
C653 N649 1.334 . S
C653 C651 1.394 . S
C654 C650 1.413 . S
C654 C652 1.391 . S
C654 C669 1.437 . S
H655 C652 0.929 . S
O656 Gd612 2.545 . S
O656 C671 1.258 . S
O657 Gd612 2.606 . S
O657 Gd613 2.362 . S
O657 C668 1.284 . S
O658 Gd613 2.324 . S
O658 C678 1.254 . S
O659 Gd612 2.429 . S
O659 C678 1.268 . S
O660 Gd612 2.545 . S
O660 C668 1.250 . S
O661 Gd612 2.412 . S
O661 C671 1.252 . S
O662 Gd613 2.545 . S
O662 C680 1.258 . S
O663 Gd612 2.362 . S
O663 Gd613 2.606 . S
O663 C679 1.284 . S
O664 Gd612 2.324 . S
O664 C687 1.254 . S
O665 Gd613 2.429 . S
O665 C687 1.268 . S
O666 Gd613 2.545 . S
O666 C679 1.250 . S
O667 Gd613 2.412 . S
O667 C680 1.252 . S
C668 O657 1.284 . S
C668 O660 1.250 . S
C669 H638 0.929 . S
C669 C654 1.437 . S
C669 C670 1.317 . S
C670 H641 0.930 . S
C670 C646 1.431 . S
C670 C669 1.317 . S
C671 Gd612 2.828 . S
C671 O656 1.258 . S
C671 O661 1.252 . S
C671 C672 1.497 . S
C672 C671 1.497 . S
C672 C673 1.395 . S
C672 C674 1.380 . S
C673 C672 1.395 . S
C673 C676 1.398 . S
C673 H688 0.930 . S
C674 C672 1.380 . S
C674 C675 1.391 . S
C674 H689 0.930 . S
C675 C674 1.391 . S
C675 C677 1.387 . S
C676 C673 1.398 . S
C676 C677 1.380 . S
C676 H690 0.930 . S
C677 C675 1.387 . S
C677 C676 1.380 . S
C677 H691 0.930 . S
C678 O658 1.254 . S
C678 O659 1.268 . S
C679 O663 1.284 . S
C679 O666 1.250 . S
C680 Gd613 2.828 . S
C680 O662 1.258 . S
C680 O667 1.252 . S
C680 C681 1.497 . S
C681 C680 1.497 . S
C681 C682 1.395 . S
C681 C683 1.380 . S
C682 C681 1.395 . S
C682 C685 1.398 . S
C682 H692 0.930 . S
C683 C681 1.380 . S
C683 C684 1.391 . S
C683 H693 0.930 . S
C684 C683 1.391 . S
C684 C686 1.387 . S
C685 C682 1.398 . S
C685 C686 1.380 . S
C685 H694 0.930 . S
C686 C684 1.387 . S
C686 C685 1.380 . S
C686 H695 0.930 . S
C687 O664 1.254 . S
C687 O665 1.268 . S
H688 C673 0.930 . S
H689 C674 0.930 . S
H690 C676 0.930 . S
H691 C677 0.930 . S
H692 C682 0.930 . S
H693 C683 0.930 . S
H694 C685 0.930 . S
H695 C686 0.930 . S
Gd696 N727 2.661 . S
Gd696 N733 2.601 . S
Gd696 O740 2.545 . S
Gd696 O741 2.606 . S
Gd696 O743 2.429 . S
Gd696 O744 2.545 . S
Gd696 O745 2.412 . S
Gd696 O747 2.362 . S
Gd696 O748 2.324 . S
Gd696 C755 2.828 . S
Gd697 N706 2.661 . S
Gd697 N710 2.601 . S
Gd697 O741 2.362 . S
Gd697 O742 2.324 . S
Gd697 O746 2.545 . S
Gd697 O747 2.606 . S
Gd697 O749 2.429 . S
Gd697 O750 2.545 . S
Gd697 O751 2.412 . S
Gd697 C764 2.828 . S
C698 C701 1.417 . S
C698 C703 1.431 . S
C698 C704 1.412 . S
C699 C702 1.437 . S
C699 C703 1.317 . S
C699 H718 0.929 . S
C700 C701 1.426 . S
C700 C702 1.413 . S
C700 N710 1.359 . S
C701 C698 1.417 . S
C701 C700 1.426 . S
C701 N706 1.350 . S
C702 C699 1.437 . S
C702 C700 1.413 . S
C702 C712 1.391 . S
C703 C698 1.431 . S
C703 C699 1.317 . S
C703 H714 0.930 . S
C704 C698 1.412 . S
C704 C705 1.355 . S
C704 H716 0.930 . S
C705 C704 1.355 . S
C705 C707 1.402 . S
C705 H717 0.930 . S
N706 Gd697 2.661 . S
N706 C701 1.350 . S
N706 C707 1.307 . S
C707 C705 1.402 . S
C707 N706 1.307 . S
C707 H708 0.930 . S
H708 C707 0.930 . S
C709 N710 1.334 . S
C709 C711 1.394 . S
C709 H713 0.930 . S
N710 Gd697 2.601 . S
N710 C700 1.359 . S
N710 C709 1.334 . S
C711 C709 1.394 . S
C711 C712 1.359 . S
C711 H723 0.930 . S
C712 C702 1.391 . S
C712 C711 1.359 . S
C712 H724 0.929 . S
H713 C709 0.930 . S
H714 C703 0.930 . S
H715 C732 0.930 . S
H716 C704 0.930 . S
H717 C705 0.930 . S
H718 C699 0.929 . S
H719 C737 0.930 . S
H720 C728 0.930 . S
H721 C729 0.930 . S
H722 C753 0.929 1_554 S
H723 C711 0.930 . S
H724 C712 0.929 . S
H725 C754 0.930 . S
H726 C735 0.930 . S
N727 Gd696 2.661 . S
N727 C731 1.350 . S
N727 C732 1.307 . S
C728 H720 0.930 . S
C728 C729 1.355 . S
C728 C730 1.412 . S
C729 H721 0.930 . S
C729 C728 1.355 . S
C729 C732 1.402 . S
C730 C728 1.412 . S
C730 C731 1.417 . S
C730 C754 1.431 . S
C731 N727 1.350 . S
C731 C730 1.417 . S
C731 C734 1.426 . S
C732 H715 0.930 . S
C732 N727 1.307 . S
C732 C729 1.402 . S
N733 Gd696 2.601 . S
N733 C734 1.359 . S
N733 C737 1.334 . S
C734 C731 1.426 . S
C734 N733 1.359 . S
C734 C738 1.413 . S
C735 H726 0.930 . S
C735 C736 1.359 . S
C735 C737 1.394 . S
C736 C735 1.359 . S
C736 C738 1.391 . S
C736 H739 0.929 1_556 S
C737 H719 0.930 . S
C737 N733 1.334 . S
C737 C735 1.394 . S
C738 C734 1.413 . S
C738 C736 1.391 . S
C738 C753 1.437 . S
H739 C736 0.929 1_554 S
O740 Gd696 2.545 . S
O740 C755 1.258 . S
O741 Gd696 2.606 . S
O741 Gd697 2.362 . S
O741 C752 1.284 . S
O742 Gd697 2.324 . S
O742 C762 1.254 . S
O743 Gd696 2.429 . S
O743 C762 1.268 . S
O744 Gd696 2.545 . S
O744 C752 1.250 . S
O745 Gd696 2.412 . S
O745 C755 1.252 . S
O746 Gd697 2.545 . S
O746 C764 1.258 . S
O747 Gd696 2.362 . S
O747 Gd697 2.606 . S
O747 C763 1.284 . S
O748 Gd696 2.324 . S
O748 C771 1.254 . S
O749 Gd697 2.429 . S
O749 C771 1.268 . S
O750 Gd697 2.545 . S
O750 C763 1.250 . S
O751 Gd697 2.412 . S
O751 C764 1.252 . S
C752 O741 1.284 . S
C752 O744 1.250 . S
C753 H722 0.929 1_556 S
C753 C738 1.437 . S
C753 C754 1.317 . S
C754 H725 0.930 . S
C754 C730 1.431 . S
C754 C753 1.317 . S
C755 Gd696 2.828 . S
C755 O740 1.258 . S
C755 O745 1.252 . S
C755 C756 1.497 . S
C756 C755 1.497 . S
C756 C757 1.395 . S
C756 C758 1.380 . S
C757 C756 1.395 . S
C757 C760 1.398 . S
C757 H772 0.930 . S
C758 C756 1.380 . S
C758 C759 1.391 . S
C758 H773 0.930 . S
C759 C758 1.391 . S
C759 C761 1.387 . S
C760 C757 1.398 . S
C760 C761 1.380 . S
C760 H774 0.930 . S
C761 C759 1.387 . S
C761 C760 1.380 . S
C761 H775 0.930 . S
C762 O742 1.254 . S
C762 O743 1.268 . S
C763 O747 1.284 . S
C763 O750 1.250 . S
C764 Gd697 2.828 . S
C764 O746 1.258 . S
C764 O751 1.252 . S
C764 C765 1.497 . S
C765 C764 1.497 . S
C765 C766 1.395 . S
C765 C767 1.380 . S
C766 C765 1.395 . S
C766 C769 1.398 . S
C766 H776 0.930 . S
C767 C765 1.380 . S
C767 C768 1.391 . S
C767 H777 0.930 . S
C768 C767 1.391 . S
C768 C770 1.387 . S
C769 C766 1.398 . S
C769 C770 1.380 . S
C769 H778 0.930 . S
C770 C768 1.387 . S
C770 C769 1.380 . S
C770 H779 0.930 . S
C771 O748 1.254 . S
C771 O749 1.268 . S
H772 C757 0.930 . S
H773 C758 0.930 . S
H774 C760 0.930 . S
H775 C761 0.930 . S
H776 C766 0.930 . S
H777 C767 0.930 . S
H778 C769 0.930 . S
H779 C770 0.930 . S
Gd780 N811 2.661 . S
Gd780 N817 2.601 . S
Gd780 O824 2.545 . S
Gd780 O825 2.606 . S
Gd780 O827 2.429 . S
Gd780 O828 2.545 . S
Gd780 O829 2.412 . S
Gd780 O831 2.362 . S
Gd780 O832 2.324 . S
Gd780 C839 2.828 . S
Gd781 N790 2.661 . S
Gd781 N794 2.601 . S
Gd781 O825 2.362 . S
Gd781 O826 2.324 . S
Gd781 O830 2.545 . S
Gd781 O831 2.606 . S
Gd781 O833 2.429 . S
Gd781 O834 2.545 . S
Gd781 O835 2.412 . S
Gd781 C848 2.828 . S
C782 C785 1.417 . S
C782 C787 1.431 . S
C782 C788 1.412 . S
C783 C786 1.437 . S
C783 C787 1.317 . S
C783 H802 0.929 . S
C784 C785 1.426 . S
C784 C786 1.413 . S
C784 N794 1.359 . S
C785 C782 1.417 . S
C785 C784 1.426 . S
C785 N790 1.350 . S
C786 C783 1.437 . S
C786 C784 1.413 . S
C786 C796 1.391 . S
C787 C782 1.431 . S
C787 C783 1.317 . S
C787 H798 0.930 . S
C788 C782 1.412 . S
C788 C789 1.355 . S
C788 H800 0.930 . S
C789 C788 1.355 . S
C789 C791 1.402 . S
C789 H801 0.930 . S
N790 Gd781 2.661 . S
N790 C785 1.350 . S
N790 C791 1.307 . S
C791 C789 1.402 . S
C791 N790 1.307 . S
C791 H792 0.930 . S
H792 C791 0.930 . S
C793 N794 1.334 . S
C793 C795 1.394 . S
C793 H797 0.930 . S
N794 Gd781 2.601 . S
N794 C784 1.359 . S
N794 C793 1.334 . S
C795 C793 1.394 . S
C795 C796 1.359 . S
C795 H807 0.930 . S
C796 C786 1.391 . S
C796 C795 1.359 . S
C796 H808 0.929 . S
H797 C793 0.930 . S
H798 C787 0.930 . S
H799 C816 0.930 . S
H800 C788 0.930 . S
H801 C789 0.930 . S
H802 C783 0.929 . S
H803 C821 0.930 . S
H804 C812 0.930 . S
H805 C813 0.930 . S
H806 C837 0.929 . S
H807 C795 0.930 . S
H808 C796 0.929 . S
H809 C838 0.930 . S
H810 C819 0.930 . S
N811 Gd780 2.661 . S
N811 C815 1.350 . S
N811 C816 1.307 . S
C812 H804 0.930 . S
C812 C813 1.355 . S
C812 C814 1.412 . S
C813 H805 0.930 . S
C813 C812 1.355 . S
C813 C816 1.402 . S
C814 C812 1.412 . S
C814 C815 1.417 . S
C814 C838 1.431 . S
C815 N811 1.350 . S
C815 C814 1.417 . S
C815 C818 1.426 . S
C816 H799 0.930 . S
C816 N811 1.307 . S
C816 C813 1.402 . S
N817 Gd780 2.601 . S
N817 C818 1.359 . S
N817 C821 1.334 . S
C818 C815 1.426 . S
C818 N817 1.359 . S
C818 C822 1.413 . S
C819 H810 0.930 . S
C819 C820 1.359 . S
C819 C821 1.394 . S
C820 C819 1.359 . S
C820 C822 1.391 . S
C820 H823 0.929 . S
C821 H803 0.930 . S
C821 N817 1.334 . S
C821 C819 1.394 . S
C822 C818 1.413 . S
C822 C820 1.391 . S
C822 C837 1.437 . S
H823 C820 0.929 . S
O824 Gd780 2.545 . S
O824 C839 1.258 . S
O825 Gd780 2.606 . S
O825 Gd781 2.362 . S
O825 C836 1.284 . S
O826 Gd781 2.324 . S
O826 C846 1.254 . S
O827 Gd780 2.429 . S
O827 C846 1.268 . S
O828 Gd780 2.545 . S
O828 C836 1.250 . S
O829 Gd780 2.412 . S
O829 C839 1.252 . S
O830 Gd781 2.545 . S
O830 C848 1.258 . S
O831 Gd780 2.362 . S
O831 Gd781 2.606 . S
O831 C847 1.284 . S
O832 Gd780 2.324 . S
O832 C855 1.254 . S
O833 Gd781 2.429 . S
O833 C855 1.268 . S
O834 Gd781 2.545 . S
O834 C847 1.250 . S
O835 Gd781 2.412 . S
O835 C848 1.252 . S
C836 O825 1.284 . S
C836 O828 1.250 . S
C837 H806 0.929 . S
C837 C822 1.437 . S
C837 C838 1.317 . S
C838 H809 0.930 . S
C838 C814 1.431 . S
C838 C837 1.317 . S
C839 Gd780 2.828 . S
C839 O824 1.258 . S
C839 O829 1.252 . S
C839 C840 1.497 . S
C840 C839 1.497 . S
C840 C841 1.395 . S
C840 C842 1.380 . S
C841 C840 1.395 . S
C841 C844 1.398 . S
C841 H856 0.930 . S
C842 C840 1.380 . S
C842 C843 1.391 . S
C842 H857 0.930 . S
C843 C842 1.391 . S
C843 C845 1.387 . S
C844 C841 1.398 . S
C844 C845 1.380 . S
C844 H858 0.930 . S
C845 C843 1.387 . S
C845 C844 1.380 . S
C845 H859 0.930 . S
C846 O826 1.254 . S
C846 O827 1.268 . S
C847 O831 1.284 . S
C847 O834 1.250 . S
C848 Gd781 2.828 . S
C848 O830 1.258 . S
C848 O835 1.252 . S
C848 C849 1.497 . S
C849 C848 1.497 . S
C849 C850 1.395 . S
C849 C851 1.380 . S
C850 C849 1.395 . S
C850 C853 1.398 . S
C850 H860 0.930 . S
C851 C849 1.380 . S
C851 C852 1.391 . S
C851 H861 0.930 . S
C852 C851 1.391 . S
C852 C854 1.387 . S
C853 C850 1.398 . S
C853 C854 1.380 . S
C853 H862 0.930 . S
C854 C852 1.387 . S
C854 C853 1.380 . S
C854 H863 0.930 . S
C855 O832 1.254 . S
C855 O833 1.268 . S
H856 C841 0.930 . S
H857 C842 0.930 . S
H858 C844 0.930 . S
H859 C845 0.930 . S
H860 C850 0.930 . S
H861 C851 0.930 . S
H862 C853 0.930 . S
H863 C854 0.930 . S
Gd864 N895 2.661 . S
Gd864 N901 2.601 . S
Gd864 O908 2.545 . S
Gd864 O909 2.606 . S
Gd864 O911 2.429 . S
Gd864 O912 2.545 . S
Gd864 O913 2.412 . S
Gd864 O915 2.362 . S
Gd864 O916 2.324 . S
Gd864 C923 2.828 . S
Gd865 N874 2.661 . S
Gd865 N878 2.601 . S
Gd865 O909 2.362 . S
Gd865 O910 2.324 . S
Gd865 O914 2.545 . S
Gd865 O915 2.606 . S
Gd865 O917 2.429 . S
Gd865 O918 2.545 . S
Gd865 O919 2.412 . S
Gd865 C932 2.828 . S
C866 C869 1.417 . S
C866 C871 1.431 . S
C866 C872 1.412 . S
C867 C870 1.437 . S
C867 C871 1.317 . S
C867 H886 0.929 . S
C868 C869 1.426 . S
C868 C870 1.413 . S
C868 N878 1.359 . S
C869 C866 1.417 . S
C869 C868 1.426 . S
C869 N874 1.350 . S
C870 C867 1.437 . S
C870 C868 1.413 . S
C870 C880 1.391 . S
C871 C866 1.431 . S
C871 C867 1.317 . S
C871 H882 0.930 . S
C872 C866 1.412 . S
C872 C873 1.355 . S
C872 H884 0.930 . S
C873 C872 1.355 . S
C873 C875 1.402 . S
C873 H885 0.930 . S
N874 Gd865 2.661 . S
N874 C869 1.350 . S
N874 C875 1.307 . S
C875 C873 1.402 . S
C875 N874 1.307 . S
C875 H876 0.930 . S
H876 C875 0.930 . S
C877 N878 1.334 . S
C877 C879 1.394 . S
C877 H881 0.930 . S
N878 Gd865 2.601 . S
N878 C868 1.359 . S
N878 C877 1.334 . S
C879 C877 1.394 . S
C879 C880 1.359 . S
C879 H891 0.930 . S
C880 C870 1.391 . S
C880 C879 1.359 . S
C880 H892 0.929 . S
H881 C877 0.930 . S
H882 C871 0.930 . S
H883 C900 0.930 . S
H884 C872 0.930 . S
H885 C873 0.930 . S
H886 C867 0.929 . S
H887 C905 0.930 . S
H888 C896 0.930 . S
H889 C897 0.930 . S
H890 C921 0.929 . S
H891 C879 0.930 . S
H892 C880 0.929 . S
H893 C922 0.930 . S
H894 C903 0.930 . S
N895 Gd864 2.661 . S
N895 C899 1.350 . S
N895 C900 1.307 . S
C896 H888 0.930 . S
C896 C897 1.355 . S
C896 C898 1.412 . S
C897 H889 0.930 . S
C897 C896 1.355 . S
C897 C900 1.402 . S
C898 C896 1.412 . S
C898 C899 1.417 . S
C898 C922 1.431 . S
C899 N895 1.350 . S
C899 C898 1.417 . S
C899 C902 1.426 . S
C900 H883 0.930 . S
C900 N895 1.307 . S
C900 C897 1.402 . S
N901 Gd864 2.601 . S
N901 C902 1.359 . S
N901 C905 1.334 . S
C902 C899 1.426 . S
C902 N901 1.359 . S
C902 C906 1.413 . S
C903 H894 0.930 . S
C903 C904 1.359 . S
C903 C905 1.394 . S
C904 C903 1.359 . S
C904 C906 1.391 . S
C904 H907 0.929 . S
C905 H887 0.930 . S
C905 N901 1.334 . S
C905 C903 1.394 . S
C906 C902 1.413 . S
C906 C904 1.391 . S
C906 C921 1.437 . S
H907 C904 0.929 . S
O908 Gd864 2.545 . S
O908 C923 1.258 . S
O909 Gd864 2.606 . S
O909 Gd865 2.362 . S
O909 C920 1.284 . S
O910 Gd865 2.324 . S
O910 C930 1.254 . S
O911 Gd864 2.429 . S
O911 C930 1.268 . S
O912 Gd864 2.545 . S
O912 C920 1.250 . S
O913 Gd864 2.412 . S
O913 C923 1.252 . S
O914 Gd865 2.545 . S
O914 C932 1.258 . S
O915 Gd864 2.362 . S
O915 Gd865 2.606 . S
O915 C931 1.284 . S
O916 Gd864 2.324 . S
O916 C939 1.254 . S
O917 Gd865 2.429 . S
O917 C939 1.268 . S
O918 Gd865 2.545 . S
O918 C931 1.250 . S
O919 Gd865 2.412 . S
O919 C932 1.252 . S
C920 O909 1.284 . S
C920 O912 1.250 . S
C921 H890 0.929 . S
C921 C906 1.437 . S
C921 C922 1.317 . S
C922 H893 0.930 . S
C922 C898 1.431 . S
C922 C921 1.317 . S
C923 Gd864 2.828 . S
C923 O908 1.258 . S
C923 O913 1.252 . S
C923 C924 1.497 . S
C924 C923 1.497 . S
C924 C925 1.395 . S
C924 C926 1.380 . S
C925 C924 1.395 . S
C925 C928 1.398 . S
C925 H940 0.930 . S
C926 C924 1.380 . S
C926 C927 1.391 . S
C926 H941 0.930 . S
C927 C926 1.391 . S
C927 C929 1.387 . S
C928 C925 1.398 . S
C928 C929 1.380 . S
C928 H942 0.930 . S
C929 C927 1.387 . S
C929 C928 1.380 . S
C929 H943 0.930 . S
C930 O910 1.254 . S
C930 O911 1.268 . S
C931 O915 1.284 . S
C931 O918 1.250 . S
C932 Gd865 2.828 . S
C932 O914 1.258 . S
C932 O919 1.252 . S
C932 C933 1.497 . S
C933 C932 1.497 . S
C933 C934 1.395 . S
C933 C935 1.380 . S
C934 C933 1.395 . S
C934 C937 1.398 . S
C934 H944 0.930 . S
C935 C933 1.380 . S
C935 C936 1.391 . S
C935 H945 0.930 . S
C936 C935 1.391 . S
C936 C938 1.387 . S
C937 C934 1.398 . S
C937 C938 1.380 . S
C937 H946 0.930 . S
C938 C936 1.387 . S
C938 C937 1.380 . S
C938 H947 0.930 . S
C939 O916 1.254 . S
C939 O917 1.268 . S
H940 C925 0.930 . S
H941 C926 0.930 . S
H942 C928 0.930 . S
H943 C929 0.930 . S
H944 C934 0.930 . S
H945 C935 0.930 . S
H946 C937 0.930 . S
H947 C938 0.930 . S
H948 C954 0.930 . S
H949 C957 0.930 . S
H950 C958 0.930 . S
H951 C959 0.930 . S
H952 C962 0.930 . S
H953 C963 0.930 . S
C954 H948 0.930 . S
C954 C955 1.355 . S
C954 C956 1.415 . S
C955 C954 1.355 . S
C955 C957 1.419 . S
C956 C954 1.415 . S
C956 C961 1.425 . S
C956 C963 1.409 . S
C957 H949 0.930 . S
C957 C955 1.419 . S
C957 C958 1.362 . S
C958 H950 0.930 . S
C958 C957 1.362 . S
C958 C961 1.409 . S
C959 H951 0.930 . S
C959 C960 1.355 . S
C959 C961 1.415 . S
C960 C959 1.355 . S
C960 C962 1.419 . S
C961 C956 1.425 . S
C961 C958 1.409 . S
C961 C959 1.415 . S
C962 H952 0.930 . S
C962 C960 1.419 . S
C962 C963 1.362 . S
C963 H953 0.930 . S
C963 C956 1.409 . S
C963 C962 1.362 . S
H964 C970 0.930 . S
H965 C973 0.930 . S
H966 C974 0.930 . S
H967 C975 0.930 . S
H968 C978 0.930 . S
H969 C979 0.930 . S
C970 H964 0.930 . S
C970 C971 1.355 . S
C970 C972 1.415 . S
C971 C970 1.355 . S
C971 C973 1.419 . S
C972 C970 1.415 . S
C972 C977 1.425 . S
C972 C979 1.409 . S
C973 H965 0.930 . S
C973 C971 1.419 . S
C973 C974 1.362 . S
C974 H966 0.930 . S
C974 C973 1.362 . S
C974 C977 1.409 . S
C975 H967 0.930 . S
C975 C976 1.355 . S
C975 C977 1.415 . S
C976 C975 1.355 . S
C976 C978 1.419 . S
C977 C972 1.425 . S
C977 C974 1.409 . S
C977 C975 1.415 . S
C978 H968 0.930 . S
C978 C976 1.419 . S
C978 C979 1.362 . S
C979 H969 0.930 . S
C979 C972 1.409 . S
C979 C978 1.362 . S
H980 C986 0.930 . S
H981 C989 0.930 1_545 S
H982 C990 0.930 . S
H983 C991 0.930 . S
H984 C994 0.930 . S
H985 C995 0.930 . S
C986 H980 0.930 . S
C986 C987 1.355 . S
C986 C988 1.415 . S
C987 C986 1.355 . S
C987 C989 1.419 . S
C988 C986 1.415 . S
C988 C993 1.425 . S
C988 C995 1.409 . S
C989 H981 0.930 1_565 S
C989 C987 1.419 . S
C989 C990 1.362 . S
C990 H982 0.930 . S
C990 C989 1.362 . S
C990 C993 1.409 . S
C991 H983 0.930 . S
C991 C992 1.355 . S
C991 C993 1.415 . S
C992 C991 1.355 . S
C992 C994 1.419 . S
C993 C988 1.425 . S
C993 C990 1.409 . S
C993 C991 1.415 . S
C994 H984 0.930 . S
C994 C992 1.419 . S
C994 C995 1.362 . S
C995 H985 0.930 . S
C995 C988 1.409 . S
C995 C994 1.362 . S
H996 C1002 0.930 . S
H997 C1005 0.930 . S
H998 C1006 0.930 . S
H999 C1007 0.930 . S
H1000 C1010 0.930 . S
H1001 C1011 0.930 . S
C1002 H996 0.930 . S
C1002 C1003 1.355 . S
C1002 C1004 1.415 . S
C1003 C1002 1.355 . S
C1003 C1005 1.419 . S
C1004 C1002 1.415 . S
C1004 C1009 1.425 . S
C1004 C1011 1.409 . S
C1005 H997 0.930 . S
C1005 C1003 1.419 . S
C1005 C1006 1.362 . S
C1006 H998 0.930 . S
C1006 C1005 1.362 . S
C1006 C1009 1.409 . S
C1007 H999 0.930 . S
C1007 C1008 1.355 . S
C1007 C1009 1.415 . S
C1008 C1007 1.355 . S
C1008 C1010 1.419 . S
C1009 C1004 1.425 . S
C1009 C1006 1.409 . S
C1009 C1007 1.415 . S
C1010 H1000 0.930 . S
C1010 C1008 1.419 . S
C1010 C1011 1.362 . S
C1011 H1001 0.930 . S
C1011 C1004 1.409 . S
C1011 C1010 1.362 . S
H1012 C1018 0.930 . S
H1013 C1021 0.930 . S
H1014 C1022 0.930 . S
H1015 C1023 0.930 . S
H1016 C1026 0.930 . S
H1017 C1027 0.930 . S
C1018 H1012 0.930 . S
C1018 C1019 1.355 . S
C1018 C1020 1.415 . S
C1019 C1018 1.355 . S
C1019 C1021 1.419 . S
C1020 C1018 1.415 . S
C1020 C1025 1.425 . S
C1020 C1027 1.409 . S
C1021 H1013 0.930 . S
C1021 C1019 1.419 . S
C1021 C1022 1.362 . S
C1022 H1014 0.930 . S
C1022 C1021 1.362 . S
C1022 C1025 1.409 . S
C1023 H1015 0.930 . S
C1023 C1024 1.355 . S
C1023 C1025 1.415 . S
C1024 C1023 1.355 . S
C1024 C1026 1.419 . S
C1025 C1020 1.425 . S
C1025 C1022 1.409 . S
C1025 C1023 1.415 . S
C1026 H1016 0.930 . S
C1026 C1024 1.419 . S
C1026 C1027 1.362 . S
C1027 H1017 0.930 . S
C1027 C1020 1.409 . S
C1027 C1026 1.362 . S
H1028 C1034 0.930 . S
H1029 C1037 0.930 . S
H1030 C1038 0.930 . S
H1031 C1039 0.930 . S
H1032 C1042 0.930 . S
H1033 C1043 0.930 . S
C1034 H1028 0.930 . S
C1034 C1035 1.355 . S
C1034 C1036 1.415 . S
C1035 C1034 1.355 . S
C1035 C1037 1.419 . S
C1036 C1034 1.415 . S
C1036 C1041 1.425 . S
C1036 C1043 1.409 . S
C1037 H1029 0.930 . S
C1037 C1035 1.419 . S
C1037 C1038 1.362 . S
C1038 H1030 0.930 . S
C1038 C1037 1.362 . S
C1038 C1041 1.409 . S
C1039 H1031 0.930 . S
C1039 C1040 1.355 . S
C1039 C1041 1.415 . S
C1040 C1039 1.355 . S
C1040 C1042 1.419 . S
C1041 C1036 1.425 . S
C1041 C1038 1.409 . S
C1041 C1039 1.415 . S
C1042 H1032 0.930 . S
C1042 C1040 1.419 . S
C1042 C1043 1.362 . S
C1043 H1033 0.930 . S
C1043 C1036 1.409 . S
C1043 C1042 1.362 . S
H1044 C1050 0.930 . S
H1045 C1053 0.930 . S
H1046 C1054 0.930 . S
H1047 C1055 0.930 . S
H1048 C1058 0.930 . S
H1049 C1059 0.930 . S
C1050 H1044 0.930 . S
C1050 C1051 1.355 . S
C1050 C1052 1.415 . S
C1051 C1050 1.355 . S
C1051 C1053 1.419 . S
C1052 C1050 1.415 . S
C1052 C1057 1.425 . S
C1052 C1059 1.409 . S
C1053 H1045 0.930 . S
C1053 C1051 1.419 . S
C1053 C1054 1.362 . S
C1054 H1046 0.930 . S
C1054 C1053 1.362 . S
C1054 C1057 1.409 . S
C1055 H1047 0.930 . S
C1055 C1056 1.355 . S
C1055 C1057 1.415 . S
C1056 C1055 1.355 . S
C1056 C1058 1.419 . S
C1057 C1052 1.425 . S
C1057 C1054 1.409 . S
C1057 C1055 1.415 . S
C1058 H1048 0.930 . S
C1058 C1056 1.419 . S
C1058 C1059 1.362 . S
C1059 H1049 0.930 . S
C1059 C1052 1.409 . S
C1059 C1058 1.362 . S
H1060 C1066 0.930 . S
H1061 C1069 0.930 . S
H1062 C1070 0.930 1_545 S
H1063 C1071 0.930 . S
H1064 C1074 0.930 . S
H1065 C1075 0.930 . S
C1066 H1060 0.930 . S
C1066 C1067 1.355 . S
C1066 C1068 1.415 . S
C1067 C1066 1.355 . S
C1067 C1069 1.419 1_565 S
C1068 C1066 1.415 . S
C1068 C1073 1.425 . S
C1068 C1075 1.409 . S
C1069 H1061 0.930 . S
C1069 C1067 1.419 1_545 S
C1069 C1070 1.362 1_545 S
C1070 H1062 0.930 1_565 S
C1070 C1069 1.362 1_565 S
C1070 C1073 1.409 . S
C1071 H1063 0.930 . S
C1071 C1072 1.355 . S
C1071 C1073 1.415 . S
C1072 C1071 1.355 . S
C1072 C1074 1.419 . S
C1073 C1068 1.425 . S
C1073 C1070 1.409 . S
C1073 C1071 1.415 . S
C1074 H1064 0.930 . S
C1074 C1072 1.419 . S
C1074 C1075 1.362 . S
C1075 H1065 0.930 . S
C1075 C1068 1.409 . S
C1075 C1074 1.362 . S
H1076 C1082 0.930 . S
H1077 C1085 0.930 . S
H1078 C1086 0.930 . S
H1079 C1087 0.930 . S
H1080 C1090 0.930 . S
H1081 C1091 0.930 . S
C1082 H1076 0.930 . S
C1082 C1083 1.355 . S
C1082 C1084 1.415 . S
C1083 C1082 1.355 . S
C1083 C1085 1.419 . S
C1084 C1082 1.415 . S
C1084 C1089 1.425 . S
C1084 C1091 1.409 . S
C1085 H1077 0.930 . S
C1085 C1083 1.419 . S
C1085 C1086 1.362 . S
C1086 H1078 0.930 . S
C1086 C1085 1.362 . S
C1086 C1089 1.409 . S
C1087 H1079 0.930 . S
C1087 C1088 1.355 . S
C1087 C1089 1.415 . S
C1088 C1087 1.355 . S
C1088 C1090 1.419 . S
C1089 C1084 1.425 . S
C1089 C1086 1.409 . S
C1089 C1087 1.415 . S
C1090 H1080 0.930 . S
C1090 C1088 1.419 . S
C1090 C1091 1.362 . S
C1091 H1081 0.930 . S
C1091 C1084 1.409 . S
C1091 C1090 1.362 . S
H1092 C1098 0.930 . S
H1093 C1101 0.930 . S
H1094 C1102 0.930 . S
H1095 C1103 0.930 . S
H1096 C1106 0.930 . S
H1097 C1107 0.930 . S
C1098 H1092 0.930 . S
C1098 C1099 1.355 . S
C1098 C1100 1.415 . S
C1099 C1098 1.355 . S
C1099 C1101 1.419 . S
C1100 C1098 1.415 . S
C1100 C1105 1.425 . S
C1100 C1107 1.409 . S
C1101 H1093 0.930 . S
C1101 C1099 1.419 . S
C1101 C1102 1.362 . S
C1102 H1094 0.930 . S
C1102 C1101 1.362 . S
C1102 C1105 1.409 . S
C1103 H1095 0.930 . S
C1103 C1104 1.355 . S
C1103 C1105 1.415 . S
C1104 C1103 1.355 . S
C1104 C1106 1.419 . S
C1105 C1100 1.425 . S
C1105 C1102 1.409 . S
C1105 C1103 1.415 . S
C1106 H1096 0.930 . S
C1106 C1104 1.419 . S
C1106 C1107 1.362 . S
C1107 H1097 0.930 . S
C1107 C1100 1.409 . S
C1107 C1106 1.362 . S
H1108 C1114 0.930 . S
H1109 C1117 0.930 . S
H1110 C1118 0.930 . S
H1111 C1119 0.930 . S
H1112 C1122 0.930 . S
H1113 C1123 0.930 . S
C1114 H1108 0.930 . S
C1114 C1115 1.355 . S
C1114 C1116 1.415 . S
C1115 C1114 1.355 . S
C1115 C1117 1.419 . S
C1116 C1114 1.415 . S
C1116 C1121 1.425 . S
C1116 C1123 1.409 . S
C1117 H1109 0.930 . S
C1117 C1115 1.419 . S
C1117 C1118 1.362 . S
C1118 H1110 0.930 . S
C1118 C1117 1.362 . S
C1118 C1121 1.409 . S
C1119 H1111 0.930 . S
C1119 C1120 1.355 . S
C1119 C1121 1.415 . S
C1120 C1119 1.355 . S
C1120 C1122 1.419 . S
C1121 C1116 1.425 . S
C1121 C1118 1.409 . S
C1121 C1119 1.415 . S
C1122 H1112 0.930 . S
C1122 C1120 1.419 . S
C1122 C1123 1.362 . S
C1123 H1113 0.930 . S
C1123 C1116 1.409 . S
C1123 C1122 1.362 . S
H1124 C1130 0.930 . S
H1125 C1133 0.930 . S
H1126 C1134 0.930 . S
H1127 C1135 0.930 . S
H1128 C1138 0.930 . S
H1129 C1139 0.930 . S
C1130 H1124 0.930 . S
C1130 C1131 1.355 . S
C1130 C1132 1.415 . S
C1131 C1130 1.355 . S
C1131 C1133 1.419 . S
C1132 C1130 1.415 . S
C1132 C1137 1.425 . S
C1132 C1139 1.409 . S
C1133 H1125 0.930 . S
C1133 C1131 1.419 . S
C1133 C1134 1.362 . S
C1134 H1126 0.930 . S
C1134 C1133 1.362 . S
C1134 C1137 1.409 . S
C1135 H1127 0.930 . S
C1135 C1136 1.355 . S
C1135 C1137 1.415 . S
C1136 C1135 1.355 . S
C1136 C1138 1.419 . S
C1137 C1132 1.425 . S
C1137 C1134 1.409 . S
C1137 C1135 1.415 . S
C1138 H1128 0.930 . S
C1138 C1136 1.419 . S
C1138 C1139 1.362 . S
C1139 H1129 0.930 . S
C1139 C1132 1.409 . S
C1139 C1138 1.362 . S
H1140 C1146 0.930 . S
H1141 C1149 0.930 . S
H1142 C1150 0.931 1_545 S
H1143 C1151 0.930 . S
H1144 C1154 0.930 . S
H1145 C1155 0.930 . S
C1146 H1140 0.930 . S
C1146 C1147 1.355 1_565 S
C1146 C1148 1.415 . S
C1147 C1146 1.355 1_545 S
C1147 C1149 1.419 1_554 S
C1148 C1146 1.415 . S
C1148 C1153 1.425 1_554 S
C1148 C1155 1.409 . S
C1149 H1141 0.930 . S
C1149 C1147 1.419 1_556 S
C1149 C1150 1.364 1_545 S
C1150 H1142 0.931 1_565 S
C1150 C1149 1.364 1_565 S
C1150 C1153 1.407 . S
C1151 H1143 0.930 . S
C1151 C1152 1.355 . S
C1151 C1153 1.415 . S
C1152 C1151 1.355 . S
C1152 C1154 1.419 . S
C1153 C1148 1.425 1_556 S
C1153 C1150 1.407 . S
C1153 C1151 1.415 . S
C1154 H1144 0.930 . S
C1154 C1152 1.419 . S
C1154 C1155 1.362 1_556 S
C1155 H1145 0.930 . S
C1155 C1148 1.409 . S
C1155 C1154 1.362 1_554 S
H1156 C1162 0.930 . S
H1157 C1165 0.930 . S
H1158 C1166 0.930 . S
H1159 C1167 0.930 . S
H1160 C1170 0.930 . S
H1161 C1171 0.930 . S
C1162 H1156 0.930 . S
C1162 C1163 1.355 . S
C1162 C1164 1.415 . S
C1163 C1162 1.355 . S
C1163 C1165 1.419 . S
C1164 C1162 1.415 . S
C1164 C1169 1.425 . S
C1164 C1171 1.409 . S
C1165 H1157 0.930 . S
C1165 C1163 1.419 . S
C1165 C1166 1.362 . S
C1166 H1158 0.930 . S
C1166 C1165 1.362 . S
C1166 C1169 1.409 . S
C1167 H1159 0.930 . S
C1167 C1168 1.355 . S
C1167 C1169 1.415 . S
C1168 C1167 1.355 . S
C1168 C1170 1.419 . S
C1169 C1164 1.425 . S
C1169 C1166 1.409 . S
C1169 C1167 1.415 . S
C1170 H1160 0.930 . S
C1170 C1168 1.419 . S
C1170 C1171 1.362 . S
C1171 H1161 0.930 . S
C1171 C1164 1.409 . S
C1171 C1170 1.362 . S
H1172 C1178 0.930 . S
H1173 C1181 0.930 . S
H1174 C1182 0.930 . S
H1175 C1183 0.930 . S
H1176 C1186 0.930 . S
H1177 C1187 0.930 . S
C1178 H1172 0.930 . S
C1178 C1179 1.355 . S
C1178 C1180 1.415 . S
C1179 C1178 1.355 . S
C1179 C1181 1.419 . S
C1180 C1178 1.415 . S
C1180 C1185 1.425 . S
C1180 C1187 1.409 . S
C1181 H1173 0.930 . S
C1181 C1179 1.419 . S
C1181 C1182 1.362 . S
C1182 H1174 0.930 . S
C1182 C1181 1.362 . S
C1182 C1185 1.409 . S
C1183 H1175 0.930 . S
C1183 C1184 1.355 . S
C1183 C1185 1.415 . S
C1184 C1183 1.355 . S
C1184 C1186 1.419 . S
C1185 C1180 1.425 . S
C1185 C1182 1.409 . S
C1185 C1183 1.415 . S
C1186 H1176 0.930 . S
C1186 C1184 1.419 . S
C1186 C1187 1.362 . S
C1187 H1177 0.930 . S
C1187 C1180 1.409 . S
C1187 C1186 1.362 . S
H1188 C1194 0.930 . S
H1189 C1197 0.930 . S
H1190 C1198 0.930 . S
H1191 C1199 0.930 . S
H1192 C1202 0.930 . S
H1193 C1203 0.930 . S
C1194 H1188 0.930 . S
C1194 C1195 1.355 . S
C1194 C1196 1.415 . S
C1195 C1194 1.355 . S
C1195 C1197 1.419 . S
C1196 C1194 1.415 . S
C1196 C1201 1.425 . S
C1196 C1203 1.409 . S
C1197 H1189 0.930 . S
C1197 C1195 1.419 . S
C1197 C1198 1.362 . S
C1198 H1190 0.930 . S
C1198 C1197 1.362 . S
C1198 C1201 1.409 . S
C1199 H1191 0.930 . S
C1199 C1200 1.355 . S
C1199 C1201 1.415 . S
C1200 C1199 1.355 . S
C1200 C1202 1.419 . S
C1201 C1196 1.425 . S
C1201 C1198 1.409 . S
C1201 C1199 1.415 . S
C1202 H1192 0.930 . S
C1202 C1200 1.419 . S
C1202 C1203 1.362 . S
C1203 H1193 0.930 . S
C1203 C1196 1.409 . S
C1203 C1202 1.362 . S
H1204 C1210 0.930 . S
H1205 C1213 0.930 . S
H1206 C1214 0.930 . S
H1207 C1215 0.930 . S
H1208 C1218 0.930 . S
H1209 C1219 0.930 . S
C1210 H1204 0.930 . S
C1210 C1211 1.355 . S
C1210 C1212 1.415 . S
C1211 C1210 1.355 . S
C1211 C1213 1.419 . S
C1212 C1210 1.415 . S
C1212 C1217 1.425 . S
C1212 C1219 1.409 . S
C1213 H1205 0.930 . S
C1213 C1211 1.419 . S
C1213 C1214 1.362 . S
C1214 H1206 0.930 . S
C1214 C1213 1.362 . S
C1214 C1217 1.409 . S
C1215 H1207 0.930 . S
C1215 C1216 1.355 . S
C1215 C1217 1.415 . S
C1216 C1215 1.355 . S
C1216 C1218 1.419 . S
C1217 C1212 1.425 . S
C1217 C1214 1.409 . S
C1217 C1215 1.415 . S
C1218 H1208 0.930 . S
C1218 C1216 1.419 . S
C1218 C1219 1.362 . S
C1219 H1209 0.930 . S
C1219 C1212 1.409 . S
C1219 C1218 1.362 . S
H1220 C1226 0.930 . S
H1221 C1229 0.930 . S
H1222 C1230 0.930 . S
H1223 C1231 0.930 . S
H1224 C1234 0.930 . S
H1225 C1235 0.930 . S
C1226 H1220 0.930 . S
C1226 C1227 1.355 . S
C1226 C1228 1.415 . S
C1227 C1226 1.355 . S
C1227 C1229 1.419 . S
C1228 C1226 1.415 . S
C1228 C1233 1.425 . S
C1228 C1235 1.409 . S
C1229 H1221 0.930 . S
C1229 C1227 1.419 . S
C1229 C1230 1.362 . S
C1230 H1222 0.930 . S
C1230 C1229 1.362 . S
C1230 C1233 1.409 . S
C1231 H1223 0.930 . S
C1231 C1232 1.355 . S
C1231 C1233 1.415 . S
C1232 C1231 1.355 . S
C1232 C1234 1.419 . S
C1233 C1228 1.425 . S
C1233 C1230 1.409 . S
C1233 C1231 1.415 . S
C1234 H1224 0.930 . S
C1234 C1232 1.419 . S
C1234 C1235 1.362 . S
C1235 H1225 0.930 . S
C1235 C1228 1.409 . S
C1235 C1234 1.362 . S
H1236 C1242 0.930 . S
H1237 C1245 0.930 . S
H1238 C1246 0.930 . S
H1239 C1247 0.930 . S
H1240 C1250 0.930 . S
H1241 C1251 0.930 . S
C1242 H1236 0.930 . S
C1242 C1243 1.355 . S
C1242 C1244 1.415 1_554 S
C1243 C1242 1.355 . S
C1243 C1245 1.419 1_554 S
C1244 C1242 1.415 1_556 S
C1244 C1249 1.425 . S
C1244 C1251 1.409 . S
C1245 H1237 0.930 . S
C1245 C1243 1.419 1_556 S
C1245 C1246 1.362 . S
C1246 H1238 0.930 . S
C1246 C1245 1.362 . S
C1246 C1249 1.409 . S
C1247 H1239 0.930 . S
C1247 C1248 1.355 . S
C1247 C1249 1.415 . S
C1248 C1247 1.355 . S
C1248 C1250 1.419 . S
C1249 C1244 1.425 . S
C1249 C1246 1.409 . S
C1249 C1247 1.415 . S
C1250 H1240 0.930 . S
C1250 C1248 1.419 . S
C1250 C1251 1.362 . S
C1251 H1241 0.930 . S
C1251 C1244 1.409 . S
C1251 C1250 1.362 . S
H1252 C1258 0.930 . S
H1253 C1261 0.930 . S
H1254 C1262 0.932 . S
H1255 C1263 0.930 . S
H1256 C1266 0.930 . S
H1257 C1267 0.930 . S
C1258 H1252 0.930 . S
C1258 C1259 1.355 1_655 S
C1258 C1260 1.415 . S
C1259 C1258 1.355 1_455 S
C1259 C1261 1.419 1_554 S
C1260 C1258 1.415 . S
C1260 C1265 1.425 1_554 S
C1260 C1267 1.409 . S
C1261 H1253 0.930 . S
C1261 C1259 1.419 1_556 S
C1261 C1262 1.368 . S
C1262 H1254 0.932 . S
C1262 C1261 1.368 . S
C1262 C1265 1.401 1_455 S
C1263 H1255 0.930 . S
C1263 C1264 1.355 . S
C1263 C1265 1.415 . S
C1264 C1263 1.355 . S
C1264 C1266 1.419 . S
C1265 C1260 1.425 1_556 S
C1265 C1262 1.401 1_655 S
C1265 C1263 1.415 . S
C1266 H1256 0.930 . S
C1266 C1264 1.419 . S
C1266 C1267 1.362 1_556 S
C1267 H1257 0.930 . S
C1267 C1260 1.409 . S
C1267 C1266 1.362 1_554 S
H1268 C1274 0.930 . S
H1269 C1277 0.930 . S
H1270 C1278 0.930 . S
H1271 C1279 0.930 . S
H1272 C1282 0.930 . S
H1273 C1283 0.930 . S
C1274 H1268 0.930 . S
C1274 C1275 1.355 . S
C1274 C1276 1.415 . S
C1275 C1274 1.355 . S
C1275 C1277 1.419 . S
C1276 C1274 1.415 . S
C1276 C1281 1.425 . S
C1276 C1283 1.409 . S
C1277 H1269 0.930 . S
C1277 C1275 1.419 . S
C1277 C1278 1.362 . S
C1278 H1270 0.930 . S
C1278 C1277 1.362 . S
C1278 C1281 1.409 . S
C1279 H1271 0.930 . S
C1279 C1280 1.355 . S
C1279 C1281 1.415 . S
C1280 C1279 1.355 . S
C1280 C1282 1.419 . S
C1281 C1276 1.425 . S
C1281 C1278 1.409 . S
C1281 C1279 1.415 . S
C1282 H1272 0.930 . S
C1282 C1280 1.419 . S
C1282 C1283 1.362 . S
C1283 H1273 0.930 . S
C1283 C1276 1.409 . S
C1283 C1282 1.362 . S
H1284 C1290 0.930 . S
H1285 C1293 0.930 . S
H1286 C1294 0.930 . S
H1287 C1295 0.930 . S
H1288 C1298 0.930 . S
H1289 C1299 0.930 . S
C1290 H1284 0.930 . S
C1290 C1291 1.355 . S
C1290 C1292 1.415 . S
C1291 C1290 1.355 . S
C1291 C1293 1.419 . S
C1292 C1290 1.415 . S
C1292 C1297 1.425 . S
C1292 C1299 1.409 . S
C1293 H1285 0.930 . S
C1293 C1291 1.419 . S
C1293 C1294 1.362 . S
C1294 H1286 0.930 . S
C1294 C1293 1.362 . S
C1294 C1297 1.409 . S
C1295 H1287 0.930 . S
C1295 C1296 1.355 . S
C1295 C1297 1.415 . S
C1296 C1295 1.355 . S
C1296 C1298 1.419 . S
C1297 C1292 1.425 . S
C1297 C1294 1.409 . S
C1297 C1295 1.415 . S
C1298 H1288 0.930 . S
C1298 C1296 1.419 . S
C1298 C1299 1.362 . S
C1299 H1289 0.930 . S
C1299 C1292 1.409 . S
C1299 C1298 1.362 . S
H1300 C1306 0.930 . S
H1301 C1309 0.930 1_545 S
H1302 C1310 0.930 . S
H1303 C1311 0.930 . S
H1304 C1314 0.930 . S
H1305 C1315 0.930 . S
C1306 H1300 0.930 . S
C1306 C1307 1.355 1_565 S
C1306 C1308 1.415 . S
C1307 C1306 1.355 1_545 S
C1307 C1309 1.419 1_545 S
C1308 C1306 1.415 . S
C1308 C1313 1.425 . S
C1308 C1315 1.409 . S
C1309 H1301 0.930 1_565 S
C1309 C1307 1.419 1_565 S
C1309 C1310 1.362 . S
C1310 H1302 0.930 . S
C1310 C1309 1.362 . S
C1310 C1313 1.409 . S
C1311 H1303 0.930 . S
C1311 C1312 1.355 . S
C1311 C1313 1.415 . S
C1312 C1311 1.355 . S
C1312 C1314 1.419 . S
C1313 C1308 1.425 . S
C1313 C1310 1.409 . S
C1313 C1311 1.415 . S
C1314 H1304 0.930 . S
C1314 C1312 1.419 . S
C1314 C1315 1.362 . S
C1315 H1305 0.930 . S
C1315 C1308 1.409 . S
C1315 C1314 1.362 . S
H1316 C1322 0.930 . S
H1317 C1325 0.930 . S
H1318 C1326 0.930 . S
H1319 C1327 0.930 . S
H1320 C1330 0.930 . S
H1321 C1331 0.930 . S
C1322 H1316 0.930 . S
C1322 C1323 1.355 . S
C1322 C1324 1.415 . S
C1323 C1322 1.355 . S
C1323 C1325 1.419 . S
C1324 C1322 1.415 . S
C1324 C1329 1.425 . S
C1324 C1331 1.409 . S
C1325 H1317 0.930 . S
C1325 C1323 1.419 . S
C1325 C1326 1.362 . S
C1326 H1318 0.930 . S
C1326 C1325 1.362 . S
C1326 C1329 1.409 . S
C1327 H1319 0.930 . S
C1327 C1328 1.355 . S
C1327 C1329 1.415 . S
C1328 C1327 1.355 . S
C1328 C1330 1.419 . S
C1329 C1324 1.425 . S
C1329 C1326 1.409 . S
C1329 C1327 1.415 . S
C1330 H1320 0.930 . S
C1330 C1328 1.419 . S
C1330 C1331 1.362 . S
C1331 H1321 0.930 . S
C1331 C1324 1.409 . S
C1331 C1330 1.362 . S
H1332 C1338 0.930 . S
H1333 C1341 0.930 . S
H1334 C1342 0.930 . S
H1335 C1343 0.930 . S
H1336 C1346 0.930 . S
H1337 C1347 0.930 . S
C1338 H1332 0.930 . S
C1338 C1339 1.355 . S
C1338 C1340 1.415 . S
C1339 C1338 1.355 . S
C1339 C1341 1.419 . S
C1340 C1338 1.415 . S
C1340 C1345 1.425 . S
C1340 C1347 1.409 . S
C1341 H1333 0.930 . S
C1341 C1339 1.419 . S
C1341 C1342 1.362 . S
C1342 H1334 0.930 . S
C1342 C1341 1.362 . S
C1342 C1345 1.409 . S
C1343 H1335 0.930 . S
C1343 C1344 1.355 . S
C1343 C1345 1.415 . S
C1344 C1343 1.355 . S
C1344 C1346 1.419 . S
C1345 C1340 1.425 . S
C1345 C1342 1.409 . S
C1345 C1343 1.415 . S
C1346 H1336 0.930 . S
C1346 C1344 1.419 . S
C1346 C1347 1.362 . S
C1347 H1337 0.930 . S
C1347 C1340 1.409 . S
C1347 C1346 1.362 . S
H1348 C1354 0.930 . S
H1349 C1357 0.930 . S
H1350 C1358 0.930 . S
H1351 C1359 0.930 . S
H1352 C1362 0.930 . S
H1353 C1363 0.930 . S
C1354 H1348 0.930 . S
C1354 C1355 1.355 . S
C1354 C1356 1.415 . S
C1355 C1354 1.355 . S
C1355 C1357 1.419 . S
C1356 C1354 1.415 . S
C1356 C1361 1.425 . S
C1356 C1363 1.409 . S
C1357 H1349 0.930 . S
C1357 C1355 1.419 . S
C1357 C1358 1.362 . S
C1358 H1350 0.930 . S
C1358 C1357 1.362 . S
C1358 C1361 1.409 . S
C1359 H1351 0.930 . S
C1359 C1360 1.355 . S
C1359 C1361 1.415 . S
C1360 C1359 1.355 . S
C1360 C1362 1.419 . S
C1361 C1356 1.425 . S
C1361 C1358 1.409 . S
C1361 C1359 1.415 . S
C1362 H1352 0.930 . S
C1362 C1360 1.419 . S
C1362 C1363 1.362 . S
C1363 H1353 0.930 . S
C1363 C1356 1.409 . S
C1363 C1362 1.362 . S
H1364 C1370 0.930 . S
H1365 C1373 0.930 . S
H1366 C1374 0.930 . S
H1367 C1375 0.930 . S
H1368 C1378 0.930 . S
H1369 C1379 0.930 . S
C1370 H1364 0.930 . S
C1370 C1371 1.355 . S
C1370 C1372 1.415 . S
C1371 C1370 1.355 . S
C1371 C1373 1.419 . S
C1372 C1370 1.415 . S
C1372 C1377 1.425 . S
C1372 C1379 1.409 . S
C1373 H1365 0.930 . S
C1373 C1371 1.419 . S
C1373 C1374 1.362 . S
C1374 H1366 0.930 . S
C1374 C1373 1.362 . S
C1374 C1377 1.409 . S
C1375 H1367 0.930 . S
C1375 C1376 1.355 . S
C1375 C1377 1.415 . S
C1376 C1375 1.355 . S
C1376 C1378 1.419 . S
C1377 C1372 1.425 . S
C1377 C1374 1.409 . S
C1377 C1375 1.415 . S
C1378 H1368 0.930 . S
C1378 C1376 1.419 . S
C1378 C1379 1.362 . S
C1379 H1369 0.930 . S
C1379 C1372 1.409 . S
C1379 C1378 1.362 . S
H1380 C1386 0.930 . S
H1381 C1389 0.930 . S
H1382 C1390 0.930 . S
H1383 C1391 0.930 . S
H1384 C1394 0.930 . S
H1385 C1395 0.930 . S
C1386 H1380 0.930 . S
C1386 C1387 1.355 . S
C1386 C1388 1.415 . S
C1387 C1386 1.355 . S
C1387 C1389 1.419 . S
C1388 C1386 1.415 . S
C1388 C1393 1.425 . S
C1388 C1395 1.409 . S
C1389 H1381 0.930 . S
C1389 C1387 1.419 . S
C1389 C1390 1.362 . S
C1390 H1382 0.930 . S
C1390 C1389 1.362 . S
C1390 C1393 1.409 . S
C1391 H1383 0.930 . S
C1391 C1392 1.355 . S
C1391 C1393 1.415 . S
C1392 C1391 1.355 . S
C1392 C1394 1.419 . S
C1393 C1388 1.425 . S
C1393 C1390 1.409 . S
C1393 C1391 1.415 . S
C1394 H1384 0.930 . S
C1394 C1392 1.419 . S
C1394 C1395 1.362 . S
C1395 H1385 0.930 . S
C1395 C1388 1.409 . S
C1395 C1394 1.362 . S
H1396 C1402 0.930 . S
H1397 C1405 0.930 . S
H1398 C1406 0.930 . S
H1399 C1407 0.930 . S
H1400 C1410 0.930 . S
H1401 C1411 0.930 . S
C1402 H1396 0.930 . S
C1402 C1403 1.355 . S
C1402 C1404 1.415 . S
C1403 C1402 1.355 . S
C1403 C1405 1.419 . S
C1404 C1402 1.415 . S
C1404 C1409 1.425 . S
C1404 C1411 1.409 . S
C1405 H1397 0.930 . S
C1405 C1403 1.419 . S
C1405 C1406 1.362 . S
C1406 H1398 0.930 . S
C1406 C1405 1.362 . S
C1406 C1409 1.409 . S
C1407 H1399 0.930 . S
C1407 C1408 1.355 . S
C1407 C1409 1.415 . S
C1408 C1407 1.355 . S
C1408 C1410 1.419 . S
C1409 C1404 1.425 . S
C1409 C1406 1.409 . S
C1409 C1407 1.415 . S
C1410 H1400 0.930 . S
C1410 C1408 1.419 . S
C1410 C1411 1.362 . S
C1411 H1401 0.930 . S
C1411 C1404 1.409 . S
C1411 C1410 1.362 . S
H1412 C1418 0.930 . S
H1413 C1421 0.930 . S
H1414 C1422 0.930 . S
H1415 C1423 0.930 . S
H1416 C1426 0.930 . S
H1417 C1427 0.930 . S
C1418 H1412 0.930 . S
C1418 C1419 1.355 . S
C1418 C1420 1.415 . S
C1419 C1418 1.355 . S
C1419 C1421 1.419 . S
C1420 C1418 1.415 . S
C1420 C1425 1.425 . S
C1420 C1427 1.409 . S
C1421 H1413 0.930 . S
C1421 C1419 1.419 . S
C1421 C1422 1.362 . S
C1422 H1414 0.930 . S
C1422 C1421 1.362 . S
C1422 C1425 1.409 . S
C1423 H1415 0.930 . S
C1423 C1424 1.355 . S
C1423 C1425 1.415 . S
C1424 C1423 1.355 . S
C1424 C1426 1.419 . S
C1425 C1420 1.425 . S
C1425 C1422 1.409 . S
C1425 C1423 1.415 . S
C1426 H1416 0.930 . S
C1426 C1424 1.419 . S
C1426 C1427 1.362 . S
C1427 H1417 0.930 . S
C1427 C1420 1.409 . S
C1427 C1426 1.362 . S
H1428 C1434 0.930 . S
H1429 C1437 0.930 . S
H1430 C1438 0.930 . S
H1431 C1439 0.930 . S
H1432 C1442 0.930 . S
H1433 C1443 0.930 . S
C1434 H1428 0.930 . S
C1434 C1435 1.355 . S
C1434 C1436 1.415 . S
C1435 C1434 1.355 . S
C1435 C1437 1.419 . S
C1436 C1434 1.415 . S
C1436 C1441 1.425 . S
C1436 C1443 1.409 . S
C1437 H1429 0.930 . S
C1437 C1435 1.419 . S
C1437 C1438 1.362 . S
C1438 H1430 0.930 . S
C1438 C1437 1.362 . S
C1438 C1441 1.409 . S
C1439 H1431 0.930 . S
C1439 C1440 1.355 . S
C1439 C1441 1.415 . S
C1440 C1439 1.355 . S
C1440 C1442 1.419 . S
C1441 C1436 1.425 . S
C1441 C1438 1.409 . S
C1441 C1439 1.415 . S
C1442 H1432 0.930 . S
C1442 C1440 1.419 . S
C1442 C1443 1.362 . S
C1443 H1433 0.930 . S
C1443 C1436 1.409 . S
C1443 C1442 1.362 . S
H1444 C1450 0.930 . S
H1445 C1453 0.930 . S
H1446 C1454 0.930 . S
H1447 C1455 0.930 . S
H1448 C1458 0.930 . S
H1449 C1459 0.930 . S
C1450 H1444 0.930 . S
C1450 C1451 1.355 . S
C1450 C1452 1.415 . S
C1451 C1450 1.355 . S
C1451 C1453 1.419 . S
C1452 C1450 1.415 . S
C1452 C1457 1.425 . S
C1452 C1459 1.409 . S
C1453 H1445 0.930 . S
C1453 C1451 1.419 . S
C1453 C1454 1.362 . S
C1454 H1446 0.930 . S
C1454 C1453 1.362 . S
C1454 C1457 1.409 . S
C1455 H1447 0.930 . S
C1455 C1456 1.355 . S
C1455 C1457 1.415 . S
C1456 C1455 1.355 . S
C1456 C1458 1.419 . S
C1457 C1452 1.425 . S
C1457 C1454 1.409 . S
C1457 C1455 1.415 . S
C1458 H1448 0.930 . S
C1458 C1456 1.419 . S
C1458 C1459 1.362 . S
C1459 H1449 0.930 . S
C1459 C1452 1.409 . S
C1459 C1458 1.362 . S
H1460 C1466 0.930 . S
H1461 C1469 0.930 . S
H1462 C1470 0.930 . S
H1463 C1471 0.930 . S
H1464 C1474 0.930 . S
H1465 C1475 0.930 . S
C1466 H1460 0.930 . S
C1466 C1467 1.355 . S
C1466 C1468 1.415 . S
C1467 C1466 1.355 . S
C1467 C1469 1.419 . S
C1468 C1466 1.415 . S
C1468 C1473 1.425 . S
C1468 C1475 1.409 . S
C1469 H1461 0.930 . S
C1469 C1467 1.419 . S
C1469 C1470 1.362 . S
C1470 H1462 0.930 . S
C1470 C1469 1.362 . S
C1470 C1473 1.409 . S
C1471 H1463 0.930 . S
C1471 C1472 1.355 . S
C1471 C1473 1.415 . S
C1472 C1471 1.355 . S
C1472 C1474 1.419 . S
C1473 C1468 1.425 . S
C1473 C1470 1.409 . S
C1473 C1471 1.415 . S
C1474 H1464 0.930 . S
C1474 C1472 1.419 . S
C1474 C1475 1.362 . S
C1475 H1465 0.930 . S
C1475 C1468 1.409 . S
C1475 C1474 1.362 . S
H1476 C1482 0.930 . S
H1477 C1485 0.930 . S
H1478 C1486 0.930 . S
H1479 C1487 0.930 . S
H1480 C1490 0.930 . S
H1481 C1491 0.930 . S
C1482 H1476 0.930 . S
C1482 C1483 1.355 . S
C1482 C1484 1.415 . S
C1483 C1482 1.355 . S
C1483 C1485 1.419 . S
C1484 C1482 1.415 . S
C1484 C1489 1.425 . S
C1484 C1491 1.409 . S
C1485 H1477 0.930 . S
C1485 C1483 1.419 . S
C1485 C1486 1.362 . S
C1486 H1478 0.930 . S
C1486 C1485 1.362 . S
C1486 C1489 1.409 . S
C1487 H1479 0.930 . S
C1487 C1488 1.355 . S
C1487 C1489 1.415 . S
C1488 C1487 1.355 . S
C1488 C1490 1.419 . S
C1489 C1484 1.425 . S
C1489 C1486 1.409 . S
C1489 C1487 1.415 . S
C1490 H1480 0.930 . S
C1490 C1488 1.419 . S
C1490 C1491 1.362 . S
C1491 H1481 0.930 . S
C1491 C1484 1.409 . S
C1491 C1490 1.362 . S
H1492 C1498 0.930 . S
H1493 C1501 0.930 . S
H1494 C1502 0.930 . S
H1495 C1503 0.930 . S
H1496 C1506 0.930 . S
H1497 C1507 0.930 . S
C1498 H1492 0.930 . S
C1498 C1499 1.355 . S
C1498 C1500 1.415 . S
C1499 C1498 1.355 . S
C1499 C1501 1.419 . S
C1500 C1498 1.415 . S
C1500 C1505 1.425 . S
C1500 C1507 1.409 . S
C1501 H1493 0.930 . S
C1501 C1499 1.419 . S
C1501 C1502 1.362 . S
C1502 H1494 0.930 . S
C1502 C1501 1.362 . S
C1502 C1505 1.409 . S
C1503 H1495 0.930 . S
C1503 C1504 1.355 . S
C1503 C1505 1.415 . S
C1504 C1503 1.355 . S
C1504 C1506 1.419 . S
C1505 C1500 1.425 . S
C1505 C1502 1.409 . S
C1505 C1503 1.415 . S
C1506 H1496 0.930 . S
C1506 C1504 1.419 . S
C1506 C1507 1.362 . S
C1507 H1497 0.930 . S
C1507 C1500 1.409 . S
C1507 C1506 1.362 . S
H1508 C1514 0.930 . S
H1509 C1517 0.930 . S
H1510 C1518 0.930 . S
H1511 C1519 0.930 . S
H1512 C1522 0.930 . S
H1513 C1523 0.930 . S
C1514 H1508 0.930 . S
C1514 C1515 1.355 . S
C1514 C1516 1.415 . S
C1515 C1514 1.355 . S
C1515 C1517 1.419 . S
C1516 C1514 1.415 . S
C1516 C1521 1.425 . S
C1516 C1523 1.409 . S
C1517 H1509 0.930 . S
C1517 C1515 1.419 . S
C1517 C1518 1.362 . S
C1518 H1510 0.930 . S
C1518 C1517 1.362 . S
C1518 C1521 1.409 . S
C1519 H1511 0.930 . S
C1519 C1520 1.355 . S
C1519 C1521 1.415 . S
C1520 C1519 1.355 . S
C1520 C1522 1.419 . S
C1521 C1516 1.425 . S
C1521 C1518 1.409 . S
C1521 C1519 1.415 . S
C1522 H1512 0.930 . S
C1522 C1520 1.419 . S
C1522 C1523 1.362 . S
C1523 H1513 0.930 . S
C1523 C1516 1.409 . S
C1523 C1522 1.362 . S
H1524 C1530 0.930 . S
H1525 C1533 0.930 . S
H1526 C1534 0.930 . S
H1527 C1535 0.930 . S
H1528 C1538 0.930 . S
H1529 C1539 0.930 . S
C1530 H1524 0.930 . S
C1530 C1531 1.355 . S
C1530 C1532 1.415 . S
C1531 C1530 1.355 . S
C1531 C1533 1.419 . S
C1532 C1530 1.415 . S
C1532 C1537 1.425 . S
C1532 C1539 1.409 . S
C1533 H1525 0.930 . S
C1533 C1531 1.419 . S
C1533 C1534 1.362 . S
C1534 H1526 0.930 . S
C1534 C1533 1.362 . S
C1534 C1537 1.409 . S
C1535 H1527 0.930 . S
C1535 C1536 1.355 . S
C1535 C1537 1.415 . S
C1536 C1535 1.355 . S
C1536 C1538 1.419 . S
C1537 C1532 1.425 . S
C1537 C1534 1.409 . S
C1537 C1535 1.415 . S
C1538 H1528 0.930 . S
C1538 C1536 1.419 . S
C1538 C1539 1.362 . S
C1539 H1529 0.930 . S
C1539 C1532 1.409 . S
C1539 C1538 1.362 . S
H1540 C1546 0.930 . S
H1541 C1549 0.930 . S
H1542 C1550 0.930 . S
H1543 C1551 0.930 . S
H1544 C1554 0.930 . S
H1545 C1555 0.930 . S
C1546 H1540 0.930 . S
C1546 C1547 1.355 . S
C1546 C1548 1.415 . S
C1547 C1546 1.355 . S
C1547 C1549 1.419 . S
C1548 C1546 1.415 . S
C1548 C1553 1.425 . S
C1548 C1555 1.409 . S
C1549 H1541 0.930 . S
C1549 C1547 1.419 . S
C1549 C1550 1.362 . S
C1550 H1542 0.930 . S
C1550 C1549 1.362 . S
C1550 C1553 1.409 . S
C1551 H1543 0.930 . S
C1551 C1552 1.355 . S
C1551 C1553 1.415 . S
C1552 C1551 1.355 . S
C1552 C1554 1.419 . S
C1553 C1548 1.425 . S
C1553 C1550 1.409 . S
C1553 C1551 1.415 . S
C1554 H1544 0.930 . S
C1554 C1552 1.419 . S
C1554 C1555 1.362 . S
C1555 H1545 0.930 . S
C1555 C1548 1.409 . S
C1555 C1554 1.362 . S
H1556 C1562 0.930 . S
H1557 C1565 0.930 . S
H1558 C1566 0.930 . S
H1559 C1567 0.930 . S
H1560 C1570 0.930 . S
H1561 C1571 0.930 . S
C1562 H1556 0.930 . S
C1562 C1563 1.355 . S
C1562 C1564 1.415 . S
C1563 C1562 1.355 . S
C1563 C1565 1.419 . S
C1564 C1562 1.415 . S
C1564 C1569 1.425 . S
C1564 C1571 1.409 . S
C1565 H1557 0.930 . S
C1565 C1563 1.419 . S
C1565 C1566 1.362 . S
C1566 H1558 0.930 . S
C1566 C1565 1.362 . S
C1566 C1569 1.409 . S
C1567 H1559 0.930 . S
C1567 C1568 1.355 . S
C1567 C1569 1.415 . S
C1568 C1567 1.355 . S
C1568 C1570 1.419 . S
C1569 C1564 1.425 . S
C1569 C1566 1.409 . S
C1569 C1567 1.415 . S
C1570 H1560 0.930 . S
C1570 C1568 1.419 . S
C1570 C1571 1.362 . S
C1571 H1561 0.930 . S
C1571 C1564 1.409 . S
C1571 C1570 1.362 . S
H1572 C1578 0.930 . S
H1573 C1581 0.930 . S
H1574 C1582 0.930 . S
H1575 C1583 0.930 . S
H1576 C1586 0.930 . S
H1577 C1587 0.930 . S
C1578 H1572 0.930 . S
C1578 C1579 1.355 . S
C1578 C1580 1.415 . S
C1579 C1578 1.355 . S
C1579 C1581 1.419 . S
C1580 C1578 1.415 . S
C1580 C1585 1.425 . S
C1580 C1587 1.409 . S
C1581 H1573 0.930 . S
C1581 C1579 1.419 . S
C1581 C1582 1.362 . S
C1582 H1574 0.930 . S
C1582 C1581 1.362 . S
C1582 C1585 1.409 . S
C1583 H1575 0.930 . S
C1583 C1584 1.355 . S
C1583 C1585 1.415 . S
C1584 C1583 1.355 . S
C1584 C1586 1.419 . S
C1585 C1580 1.425 . S
C1585 C1582 1.409 . S
C1585 C1583 1.415 . S
C1586 H1576 0.930 . S
C1586 C1584 1.419 . S
C1586 C1587 1.362 . S
C1587 H1577 0.930 . S
C1587 C1580 1.409 . S
C1587 C1586 1.362 . S
H1588 C1594 0.930 . S
H1589 C1597 0.930 . S
H1590 C1598 0.930 . S
H1591 C1599 0.930 . S
H1592 C1602 0.930 . S
H1593 C1603 0.930 . S
C1594 H1588 0.930 . S
C1594 C1595 1.355 . S
C1594 C1596 1.415 . S
C1595 C1594 1.355 . S
C1595 C1597 1.419 . S
C1596 C1594 1.415 . S
C1596 C1601 1.425 . S
C1596 C1603 1.409 . S
C1597 H1589 0.930 . S
C1597 C1595 1.419 . S
C1597 C1598 1.362 . S
C1598 H1590 0.930 . S
C1598 C1597 1.362 . S
C1598 C1601 1.409 . S
C1599 H1591 0.930 . S
C1599 C1600 1.355 . S
C1599 C1601 1.415 . S
C1600 C1599 1.355 . S
C1600 C1602 1.419 . S
C1601 C1596 1.425 . S
C1601 C1598 1.409 . S
C1601 C1599 1.415 . S
C1602 H1592 0.930 . S
C1602 C1600 1.419 . S
C1602 C1603 1.362 . S
C1603 H1593 0.930 . S
C1603 C1596 1.409 . S
C1603 C1602 1.362 . S
H1604 C1610 0.930 . S
H1605 C1613 0.930 . S
H1606 C1614 0.930 . S
H1607 C1615 0.930 . S
H1608 C1618 0.930 . S
H1609 C1619 0.930 . S
C1610 H1604 0.930 . S
C1610 C1611 1.355 . S
C1610 C1612 1.415 . S
C1611 C1610 1.355 . S
C1611 C1613 1.419 . S
C1612 C1610 1.415 . S
C1612 C1617 1.425 . S
C1612 C1619 1.409 . S
C1613 H1605 0.930 . S
C1613 C1611 1.419 . S
C1613 C1614 1.362 . S
C1614 H1606 0.930 . S
C1614 C1613 1.362 . S
C1614 C1617 1.409 . S
C1615 H1607 0.930 . S
C1615 C1616 1.355 . S
C1615 C1617 1.415 . S
C1616 C1615 1.355 . S
C1616 C1618 1.419 . S
C1617 C1612 1.425 . S
C1617 C1614 1.409 . S
C1617 C1615 1.415 . S
C1618 H1608 0.930 . S
C1618 C1616 1.419 . S
C1618 C1619 1.362 . S
C1619 H1609 0.930 . S
C1619 C1612 1.409 . S
C1619 C1618 1.362 . S
H1620 C1626 0.930 . S
H1621 C1629 0.930 . S
H1622 C1630 0.930 . S
H1623 C1631 0.930 . S
H1624 C1634 0.930 . S
H1625 C1635 0.930 . S
C1626 H1620 0.930 . S
C1626 C1627 1.355 . S
C1626 C1628 1.415 . S
C1627 C1626 1.355 . S
C1627 C1629 1.419 . S
C1628 C1626 1.415 . S
C1628 C1633 1.425 . S
C1628 C1635 1.409 . S
C1629 H1621 0.930 . S
C1629 C1627 1.419 . S
C1629 C1630 1.362 . S
C1630 H1622 0.930 . S
C1630 C1629 1.362 . S
C1630 C1633 1.409 . S
C1631 H1623 0.930 . S
C1631 C1632 1.355 . S
C1631 C1633 1.415 . S
C1632 C1631 1.355 . S
C1632 C1634 1.419 . S
C1633 C1628 1.425 . S
C1633 C1630 1.409 . S
C1633 C1631 1.415 . S
C1634 H1624 0.930 . S
C1634 C1632 1.419 . S
C1634 C1635 1.362 . S
C1635 H1625 0.930 . S
C1635 C1628 1.409 . S
C1635 C1634 1.362 . S
H1636 C1642 0.930 . S
H1637 C1645 0.930 . S
H1638 C1646 0.930 . S
H1639 C1647 0.930 . S
H1640 C1650 0.930 . S
H1641 C1651 0.930 . S
C1642 H1636 0.930 . S
C1642 C1643 1.355 . S
C1642 C1644 1.415 . S
C1643 C1642 1.355 . S
C1643 C1645 1.419 . S
C1644 C1642 1.415 . S
C1644 C1649 1.425 . S
C1644 C1651 1.409 . S
C1645 H1637 0.930 . S
C1645 C1643 1.419 . S
C1645 C1646 1.362 . S
C1646 H1638 0.930 . S
C1646 C1645 1.362 . S
C1646 C1649 1.409 . S
C1647 H1639 0.930 . S
C1647 C1648 1.355 . S
C1647 C1649 1.415 . S
C1648 C1647 1.355 . S
C1648 C1650 1.419 . S
C1649 C1644 1.425 . S
C1649 C1646 1.409 . S
C1649 C1647 1.415 . S
C1650 H1640 0.930 . S
C1650 C1648 1.419 . S
C1650 C1651 1.362 . S
C1651 H1641 0.930 . S
C1651 C1644 1.409 . S
C1651 C1650 1.362 . S
H1652 C1658 0.930 . S
H1653 C1661 0.930 . S
H1654 C1662 0.930 . S
H1655 C1663 0.930 . S
H1656 C1666 0.930 . S
H1657 C1667 0.930 . S
C1658 H1652 0.930 . S
C1658 C1659 1.355 . S
C1658 C1660 1.415 . S
C1659 C1658 1.355 . S
C1659 C1661 1.419 . S
C1660 C1658 1.415 . S
C1660 C1665 1.425 . S
C1660 C1667 1.409 . S
C1661 H1653 0.930 . S
C1661 C1659 1.419 . S
C1661 C1662 1.362 . S
C1662 H1654 0.930 . S
C1662 C1661 1.362 . S
C1662 C1665 1.409 . S
C1663 H1655 0.930 . S
C1663 C1664 1.355 . S
C1663 C1665 1.415 . S
C1664 C1663 1.355 . S
C1664 C1666 1.419 . S
C1665 C1660 1.425 . S
C1665 C1662 1.409 . S
C1665 C1663 1.415 . S
C1666 H1656 0.930 . S
C1666 C1664 1.419 . S
C1666 C1667 1.362 . S
C1667 H1657 0.930 . S
C1667 C1660 1.409 . S
C1667 C1666 1.362 . S
H1668 C1674 0.930 . S
H1669 C1677 0.930 . S
H1670 C1678 0.930 . S
H1671 C1679 0.930 . S
H1672 C1682 0.930 . S
H1673 C1683 0.930 . S
C1674 H1668 0.930 . S
C1674 C1675 1.355 . S
C1674 C1676 1.415 . S
C1675 C1674 1.355 . S
C1675 C1677 1.419 . S
C1676 C1674 1.415 . S
C1676 C1681 1.425 . S
C1676 C1683 1.409 . S
C1677 H1669 0.930 . S
C1677 C1675 1.419 . S
C1677 C1678 1.362 . S
C1678 H1670 0.930 . S
C1678 C1677 1.362 . S
C1678 C1681 1.409 . S
C1679 H1671 0.930 . S
C1679 C1680 1.355 . S
C1679 C1681 1.415 . S
C1680 C1679 1.355 . S
C1680 C1682 1.419 . S
C1681 C1676 1.425 . S
C1681 C1678 1.409 . S
C1681 C1679 1.415 . S
C1682 H1672 0.930 . S
C1682 C1680 1.419 . S
C1682 C1683 1.362 . S
C1683 H1673 0.930 . S
C1683 C1676 1.409 . S
C1683 C1682 1.362 . S
H1684 C1690 0.930 . S
H1685 C1693 0.930 . S
H1686 C1694 0.930 . S
H1687 C1695 0.930 . S
H1688 C1698 0.930 . S
H1689 C1699 0.930 . S
C1690 H1684 0.930 . S
C1690 C1691 1.355 . S
C1690 C1692 1.415 . S
C1691 C1690 1.355 . S
C1691 C1693 1.419 . S
C1692 C1690 1.415 . S
C1692 C1697 1.425 . S
C1692 C1699 1.409 . S
C1693 H1685 0.930 . S
C1693 C1691 1.419 . S
C1693 C1694 1.362 . S
C1694 H1686 0.930 . S
C1694 C1693 1.362 . S
C1694 C1697 1.409 . S
C1695 H1687 0.930 . S
C1695 C1696 1.355 . S
C1695 C1697 1.415 . S
C1696 C1695 1.355 . S
C1696 C1698 1.419 . S
C1697 C1692 1.425 . S
C1697 C1694 1.409 . S
C1697 C1695 1.415 . S
C1698 H1688 0.930 . S
C1698 C1696 1.419 . S
C1698 C1699 1.362 . S
C1699 H1689 0.930 . S
C1699 C1692 1.409 . S
C1699 C1698 1.362 . S
H1700 C1706 0.930 . S
H1701 C1709 0.930 . S
H1702 C1710 0.930 . S
H1703 C1711 0.930 . S
H1704 C1714 0.930 . S
H1705 C1715 0.930 . S
C1706 H1700 0.930 . S
C1706 C1707 1.355 . S
C1706 C1708 1.415 . S
C1707 C1706 1.355 . S
C1707 C1709 1.419 . S
C1708 C1706 1.415 . S
C1708 C1713 1.425 . S
C1708 C1715 1.409 . S
C1709 H1701 0.930 . S
C1709 C1707 1.419 . S
C1709 C1710 1.362 . S
C1710 H1702 0.930 . S
C1710 C1709 1.362 . S
C1710 C1713 1.409 . S
C1711 H1703 0.930 . S
C1711 C1712 1.355 . S
C1711 C1713 1.415 . S
C1712 C1711 1.355 . S
C1712 C1714 1.419 . S
C1713 C1708 1.425 . S
C1713 C1710 1.409 . S
C1713 C1711 1.415 . S
C1714 H1704 0.930 . S
C1714 C1712 1.419 . S
C1714 C1715 1.362 . S
C1715 H1705 0.930 . S
C1715 C1708 1.409 . S
C1715 C1714 1.362 . S
C960 C348 1.141 . S
C955 N2 1.265 . S
C976 C435 2.075 . S
C971 C7 2.081 . S
C992 C507 1.144 . S
C987 N12 1.421 . S
C1003 C16 1.878 . S
C1008 C594 1.923 . S
C1024 C678 2.110 . S
C1019 C30 2.122 1_565 S
C1040 C768 0.985 . S
C1035 N35 1.237 . S
C1051 C39 2.030 . S
C1056 C855 2.012 . S
C1072 C927 1.171 . S
C1067 N25 1.219 . S
C1088 C343 1.207 . S
C1083 N58 1.154 . S
C1099 N81 1.916 . S
C1104 C416 1.902 . S
C1120 C519 1.248 . S
C1115 N104 1.184 . S
C1131 N127 1.264 . S
C1136 C600 1.055 . S
C1152 C684 0.839 . S
C1147 N48 0.934 . S
C1168 C763 1.444 . S
C1163 N71 1.351 1_556 S
C1179 N94 1.500 . S
C1184 C836 1.536 . S
C1200 C939 1.540 . S
C1195 N117 1.468 . S
C1211 C85 2.166 . S
C1216 C342 2.165 . S
C1227 C122 2.425 . S
C1232 C679 2.388 . S
C1243 C53 1.836 . S
C1248 C762 1.898 . S
C1264 C843 1.167 . S
C1259 C76 1.502 . S
C1280 C920 1.842 . S
C1275 C99 1.947 . S
C1296 C500 1.927 . S
C1291 C131 1.996 . S
C1312 C595 2.008 . S
C1307 C62 2.061 . S
C1323 C108 1.226 . S
C1328 C423 0.949 . S
C1344 C936 1.183 . S
C1339 N140 1.310 . S
C1355 C145 2.096 . S
C1360 C687 2.085 . S
C1376 C759 1.202 . S
C1371 N150 1.289 . S
C1387 C154 1.888 . S
C1392 C846 1.911 . S
C1408 C426 2.150 . S
C1403 C168 2.159 . S
C1419 N173 1.149 . S
C1424 C516 0.899 . S
C1440 C603 1.983 . S
C1435 C177 2.011 . S
C1456 C339 1.159 . S
C1451 N163 1.231 . S
C1472 C931 1.560 . S
C1467 C200 1.598 . S
C1488 C668 2.191 . S
C1483 N219 2.204 . S
C1499 N242 1.396 . S
C1504 C771 1.521 . S
C1520 C852 1.114 . S
C1515 C269 1.506 . S
C1536 C432 0.896 . S
C1531 C191 1.217 . S
C1547 N209 1.631 . S
C1552 C511 1.738 . S
C1563 N232 1.846 . S
C1568 C584 1.864 . S
C1579 C260 2.012 . S
C1584 C351 2.017 . S
C1595 C223 1.839 . S
C1600 C930 1.836 . S
C1611 N255 2.001 . S
C1616 C427 2.010 . S
C1627 N186 1.480 . S
C1632 C510 1.553 . S
C1648 C591 0.949 . S
C1643 C214 1.187 . S
C1664 C332 1.476 . S
C1659 C237 1.574 . S
C1680 C752 1.511 . S
C1675 N265 1.487 . S
C1696 C847 1.623 . S
C1691 N196 1.613 . S
C1712 C675 0.731 . S
C1707 C246 0.912 . S
