# Generated by pormake.
# Topology iac, (4,6)-cn, num edge types: 1
# Building blocks:
#     Node 0, Type 0, BuildingBlock: TATPOV_clean_sbu_0, # of connection points: 4
#     Node 1, Type 0, BuildingBlock: TATPOV_clean_sbu_0, # of connection points: 4
#     Node 2, Type 0, BuildingBlock: TATPOV_clean_sbu_0, # of connection points: 4
#     Node 3, Type 0, BuildingBlock: TATPOV_clean_sbu_0, # of connection points: 4
#     Node 4, Type 0, BuildingBlock: TATPOV_clean_sbu_0, # of connection points: 4
#     Node 5, Type 0, BuildingBlock: TATPOV_clean_sbu_0, # of connection points: 4
#     Node 6, Type 0, BuildingBlock: TATPOV_clean_sbu_0, # of connection points: 4
#     Node 7, Type 0, BuildingBlock: TATPOV_clean_sbu_0, # of connection points: 4
#     Node 8, Type 0, BuildingBlock: TATPOV_clean_sbu_0, # of connection points: 4
#     Node 9, Type 0, BuildingBlock: TATPOV_clean_sbu_0, # of connection points: 4
#     Node 10, Type 0, BuildingBlock: TATPOV_clean_sbu_0, # of connection points: 4
#     Node 11, Type 0, BuildingBlock: TATPOV_clean_sbu_0, # of connection points: 4
#     Node 12, Type 0, BuildingBlock: TATPOV_clean_sbu_0, # of connection points: 4
#     Node 13, Type 0, BuildingBlock: TATPOV_clean_sbu_0, # of connection points: 4
#     Node 14, Type 0, BuildingBlock: TATPOV_clean_sbu_0, # of connection points: 4
#     Node 15, Type 0, BuildingBlock: TATPOV_clean_sbu_0, # of connection points: 4
#     Node 16, Type 0, BuildingBlock: TATPOV_clean_sbu_0, # of connection points: 4
#     Node 17, Type 0, BuildingBlock: TATPOV_clean_sbu_0, # of connection points: 4
#     Node 18, Type 0, BuildingBlock: TATPOV_clean_sbu_0, # of connection points: 4
#     Node 19, Type 0, BuildingBlock: TATPOV_clean_sbu_0, # of connection points: 4
#     Node 20, Type 0, BuildingBlock: TATPOV_clean_sbu_0, # of connection points: 4
#     Node 21, Type 0, BuildingBlock: TATPOV_clean_sbu_0, # of connection points: 4
#     Node 22, Type 0, BuildingBlock: TATPOV_clean_sbu_0, # of connection points: 4
#     Node 23, Type 0, BuildingBlock: TATPOV_clean_sbu_0, # of connection points: 4
#     Node 24, Type 1, BuildingBlock: VOLQOD_clean_sbu_1, # of connection points: 6
#     Node 25, Type 1, BuildingBlock: VOLQOD_clean_sbu_1, # of connection points: 6
#     Node 26, Type 1, BuildingBlock: VOLQOD_clean_sbu_1, # of connection points: 6
#     Node 27, Type 1, BuildingBlock: VOLQOD_clean_sbu_1, # of connection points: 6
#     Node 28, Type 1, BuildingBlock: VOLQOD_clean_sbu_1, # of connection points: 6
#     Node 29, Type 1, BuildingBlock: VOLQOD_clean_sbu_1, # of connection points: 6
#     Node 30, Type 1, BuildingBlock: VOLQOD_clean_sbu_1, # of connection points: 6
#     Node 31, Type 1, BuildingBlock: VOLQOD_clean_sbu_1, # of connection points: 6
#     Node 32, Type 1, BuildingBlock: VOLQOD_clean_sbu_1, # of connection points: 6
#     Node 33, Type 1, BuildingBlock: VOLQOD_clean_sbu_1, # of connection points: 6
#     Node 34, Type 1, BuildingBlock: VOLQOD_clean_sbu_1, # of connection points: 6
#     Node 35, Type 1, BuildingBlock: VOLQOD_clean_sbu_1, # of connection points: 6
#     Node 36, Type 1, BuildingBlock: VOLQOD_clean_sbu_1, # of connection points: 6
#     Node 37, Type 1, BuildingBlock: VOLQOD_clean_sbu_1, # of connection points: 6
#     Node 38, Type 1, BuildingBlock: VOLQOD_clean_sbu_1, # of connection points: 6
#     Node 39, Type 1, BuildingBlock: VOLQOD_clean_sbu_1, # of connection points: 6
#     Edge 40, Type (0, 1), BuildingBlock: OJICUG_clean_linker_0, # of connection points: 2
#     Edge 41, Type (0, 1), BuildingBlock: OJICUG_clean_linker_0, # of connection points: 2
#     Edge 42, Type (0, 1), BuildingBlock: OJICUG_clean_linker_0, # of connection points: 2
#     Edge 43, Type (0, 1), BuildingBlock: OJICUG_clean_linker_0, # of connection points: 2
#     Edge 44, Type (0, 1), BuildingBlock: OJICUG_clean_linker_0, # of connection points: 2
#     Edge 45, Type (0, 1), BuildingBlock: OJICUG_clean_linker_0, # of connection points: 2
#     Edge 46, Type (0, 1), BuildingBlock: OJICUG_clean_linker_0, # of connection points: 2
#     Edge 47, Type (0, 1), BuildingBlock: OJICUG_clean_linker_0, # of connection points: 2
#     Edge 48, Type (0, 1), BuildingBlock: OJICUG_clean_linker_0, # of connection points: 2
#     Edge 49, Type (0, 1), BuildingBlock: OJICUG_clean_linker_0, # of connection points: 2
#     Edge 50, Type (0, 1), BuildingBlock: OJICUG_clean_linker_0, # of connection points: 2
#     Edge 51, Type (0, 1), BuildingBlock: OJICUG_clean_linker_0, # of connection points: 2
#     Edge 52, Type (0, 1), BuildingBlock: OJICUG_clean_linker_0, # of connection points: 2
#     Edge 53, Type (0, 1), BuildingBlock: OJICUG_clean_linker_0, # of connection points: 2
#     Edge 54, Type (0, 1), BuildingBlock: OJICUG_clean_linker_0, # of connection points: 2
#     Edge 55, Type (0, 1), BuildingBlock: OJICUG_clean_linker_0, # of connection points: 2
#     Edge 56, Type (0, 1), BuildingBlock: OJICUG_clean_linker_0, # of connection points: 2
#     Edge 57, Type (0, 1), BuildingBlock: OJICUG_clean_linker_0, # of connection points: 2
#     Edge 58, Type (0, 1), BuildingBlock: OJICUG_clean_linker_0, # of connection points: 2
#     Edge 59, Type (0, 1), BuildingBlock: OJICUG_clean_linker_0, # of connection points: 2
#     Edge 60, Type (0, 1), BuildingBlock: OJICUG_clean_linker_0, # of connection points: 2
#     Edge 61, Type (0, 1), BuildingBlock: OJICUG_clean_linker_0, # of connection points: 2
#     Edge 62, Type (0, 1), BuildingBlock: OJICUG_clean_linker_0, # of connection points: 2
#     Edge 63, Type (0, 1), BuildingBlock: OJICUG_clean_linker_0, # of connection points: 2
#     Edge 64, Type (0, 1), BuildingBlock: OJICUG_clean_linker_0, # of connection points: 2
#     Edge 65, Type (0, 1), BuildingBlock: OJICUG_clean_linker_0, # of connection points: 2
#     Edge 66, Type (0, 1), BuildingBlock: OJICUG_clean_linker_0, # of connection points: 2
#     Edge 67, Type (0, 1), BuildingBlock: OJICUG_clean_linker_0, # of connection points: 2
#     Edge 68, Type (0, 1), BuildingBlock: OJICUG_clean_linker_0, # of connection points: 2
#     Edge 69, Type (0, 1), BuildingBlock: OJICUG_clean_linker_0, # of connection points: 2
#     Edge 70, Type (0, 1), BuildingBlock: OJICUG_clean_linker_0, # of connection points: 2
#     Edge 71, Type (0, 1), BuildingBlock: OJICUG_clean_linker_0, # of connection points: 2
#     Edge 72, Type (0, 1), BuildingBlock: OJICUG_clean_linker_0, # of connection points: 2
#     Edge 73, Type (0, 1), BuildingBlock: OJICUG_clean_linker_0, # of connection points: 2
#     Edge 74, Type (0, 1), BuildingBlock: OJICUG_clean_linker_0, # of connection points: 2
#     Edge 75, Type (0, 1), BuildingBlock: OJICUG_clean_linker_0, # of connection points: 2
#     Edge 76, Type (0, 1), BuildingBlock: OJICUG_clean_linker_0, # of connection points: 2
#     Edge 77, Type (0, 1), BuildingBlock: OJICUG_clean_linker_0, # of connection points: 2
#     Edge 78, Type (0, 1), BuildingBlock: OJICUG_clean_linker_0, # of connection points: 2
#     Edge 79, Type (0, 1), BuildingBlock: OJICUG_clean_linker_0, # of connection points: 2
#     Edge 80, Type (0, 1), BuildingBlock: OJICUG_clean_linker_0, # of connection points: 2
#     Edge 81, Type (0, 1), BuildingBlock: OJICUG_clean_linker_0, # of connection points: 2
#     Edge 82, Type (0, 1), BuildingBlock: OJICUG_clean_linker_0, # of connection points: 2
#     Edge 83, Type (0, 1), BuildingBlock: OJICUG_clean_linker_0, # of connection points: 2
#     Edge 84, Type (0, 1), BuildingBlock: OJICUG_clean_linker_0, # of connection points: 2
#     Edge 85, Type (0, 1), BuildingBlock: OJICUG_clean_linker_0, # of connection points: 2
#     Edge 86, Type (0, 1), BuildingBlock: OJICUG_clean_linker_0, # of connection points: 2
#     Edge 87, Type (0, 1), BuildingBlock: OJICUG_clean_linker_0, # of connection points: 2
#     Edge 88, Type (0, 1), BuildingBlock: OJICUG_clean_linker_0, # of connection points: 2
#     Edge 89, Type (0, 1), BuildingBlock: OJICUG_clean_linker_0, # of connection points: 2
#     Edge 90, Type (0, 1), BuildingBlock: OJICUG_clean_linker_0, # of connection points: 2
#     Edge 91, Type (0, 1), BuildingBlock: OJICUG_clean_linker_0, # of connection points: 2
#     Edge 92, Type (0, 1), BuildingBlock: OJICUG_clean_linker_0, # of connection points: 2
#     Edge 93, Type (0, 1), BuildingBlock: OJICUG_clean_linker_0, # of connection points: 2
#     Edge 94, Type (0, 1), BuildingBlock: OJICUG_clean_linker_0, # of connection points: 2
#     Edge 95, Type (0, 1), BuildingBlock: OJICUG_clean_linker_0, # of connection points: 2
#     Edge 96, Type (0, 1), BuildingBlock: OJICUG_clean_linker_0, # of connection points: 2
#     Edge 97, Type (0, 1), BuildingBlock: OJICUG_clean_linker_0, # of connection points: 2
#     Edge 98, Type (0, 1), BuildingBlock: OJICUG_clean_linker_0, # of connection points: 2
#     Edge 99, Type (0, 1), BuildingBlock: OJICUG_clean_linker_0, # of connection points: 2
#     Edge 100, Type (0, 1), BuildingBlock: OJICUG_clean_linker_0, # of connection points: 2
#     Edge 101, Type (0, 1), BuildingBlock: OJICUG_clean_linker_0, # of connection points: 2
#     Edge 102, Type (0, 1), BuildingBlock: OJICUG_clean_linker_0, # of connection points: 2
#     Edge 103, Type (0, 1), BuildingBlock: OJICUG_clean_linker_0, # of connection points: 2
#     Edge 104, Type (0, 1), BuildingBlock: OJICUG_clean_linker_0, # of connection points: 2
#     Edge 105, Type (0, 1), BuildingBlock: OJICUG_clean_linker_0, # of connection points: 2
#     Edge 106, Type (0, 1), BuildingBlock: OJICUG_clean_linker_0, # of connection points: 2
#     Edge 107, Type (0, 1), BuildingBlock: OJICUG_clean_linker_0, # of connection points: 2
#     Edge 108, Type (0, 1), BuildingBlock: OJICUG_clean_linker_0, # of connection points: 2
#     Edge 109, Type (0, 1), BuildingBlock: OJICUG_clean_linker_0, # of connection points: 2
#     Edge 110, Type (0, 1), BuildingBlock: OJICUG_clean_linker_0, # of connection points: 2
#     Edge 111, Type (0, 1), BuildingBlock: OJICUG_clean_linker_0, # of connection points: 2
#     Edge 112, Type (0, 1), BuildingBlock: OJICUG_clean_linker_0, # of connection points: 2
#     Edge 113, Type (0, 1), BuildingBlock: OJICUG_clean_linker_0, # of connection points: 2
#     Edge 114, Type (0, 1), BuildingBlock: OJICUG_clean_linker_0, # of connection points: 2
#     Edge 115, Type (0, 1), BuildingBlock: OJICUG_clean_linker_0, # of connection points: 2
#     Edge 116, Type (0, 1), BuildingBlock: OJICUG_clean_linker_0, # of connection points: 2
#     Edge 117, Type (0, 1), BuildingBlock: OJICUG_clean_linker_0, # of connection points: 2
#     Edge 118, Type (0, 1), BuildingBlock: OJICUG_clean_linker_0, # of connection points: 2
#     Edge 119, Type (0, 1), BuildingBlock: OJICUG_clean_linker_0, # of connection points: 2
#     Edge 120, Type (0, 1), BuildingBlock: OJICUG_clean_linker_0, # of connection points: 2
#     Edge 121, Type (0, 1), BuildingBlock: OJICUG_clean_linker_0, # of connection points: 2
#     Edge 122, Type (0, 1), BuildingBlock: OJICUG_clean_linker_0, # of connection points: 2
#     Edge 123, Type (0, 1), BuildingBlock: OJICUG_clean_linker_0, # of connection points: 2
#     Edge 124, Type (0, 1), BuildingBlock: OJICUG_clean_linker_0, # of connection points: 2
#     Edge 125, Type (0, 1), BuildingBlock: OJICUG_clean_linker_0, # of connection points: 2
#     Edge 126, Type (0, 1), BuildingBlock: OJICUG_clean_linker_0, # of connection points: 2
#     Edge 127, Type (0, 1), BuildingBlock: OJICUG_clean_linker_0, # of connection points: 2
#     Edge 128, Type (0, 1), BuildingBlock: OJICUG_clean_linker_0, # of connection points: 2
#     Edge 129, Type (0, 1), BuildingBlock: OJICUG_clean_linker_0, # of connection points: 2
#     Edge 130, Type (0, 1), BuildingBlock: OJICUG_clean_linker_0, # of connection points: 2
#     Edge 131, Type (0, 1), BuildingBlock: OJICUG_clean_linker_0, # of connection points: 2
#     Edge 132, Type (0, 1), BuildingBlock: OJICUG_clean_linker_0, # of connection points: 2
#     Edge 133, Type (0, 1), BuildingBlock: OJICUG_clean_linker_0, # of connection points: 2
#     Edge 134, Type (0, 1), BuildingBlock: OJICUG_clean_linker_0, # of connection points: 2
#     Edge 135, Type (0, 1), BuildingBlock: OJICUG_clean_linker_0, # of connection points: 2
# Relax obj value: 0.318
# Max RMSD: 0.295
# Mean RMSD: 0.179
data_MOF--net-iac--node1-TATPOV_clean_sbu_0--node2-VOLQOD_clean_sbu_1--edge1-OJICUG_clean_linker_0
_symmetry_space_group_name_H-M    P1
_symmetry_Int_Tables_number       1
_symmetry_cell_setting            triclinic
loop_
_symmetry_equiv_pos_as_xyz
'x, y, z'
_cell_length_a     40.237398
_cell_length_b     40.456397
_cell_length_c     41.139648
_cell_angle_alpha  90.581281
_cell_angle_beta   90.335791
_cell_angle_gamma 92.150278
loop_
_atom_site_label
_atom_site_type_symbol
_atom_site_fract_x
_atom_site_fract_y
_atom_site_fract_z
_atom_type_partial_charge
Zn0 Zn 0.04753 0.28691 0.08998 0.0
Zn1 Zn 0.02232 0.28154 0.1503 0.0
O2 O 0.01779 0.33113 0.14539 0.0
O3 O 0.04097 0.3351 0.09684 0.0
O4 O 0.00017 0.26857 0.1921 0.0
O5 O 0.0109 0.2585 0.06941 0.0
O6 O 0.99183 0.25509 0.11913 0.0
C7 C 0.02816 0.34832 0.12155 0.0
C8 C 0.09572 0.26795 0.1358 0.0
O9 O 0.07147 0.27092 0.15529 0.0
O10 O 0.09138 0.27077 0.10545 0.0
C11 C 0.99212 0.23803 0.19527 0.0
O12 O 0.00367 0.21658 0.17439 0.0
C13 C 0.98885 0.24826 0.08906 0.0
Zn14 Zn 0.96753 0.75266 0.45777 0.0
Zn15 Zn 0.00826 0.75349 0.40513 0.0
O16 O 0.01827 0.79935 0.42596 0.0
O17 O 0.98805 0.79729 0.47059 0.0
O18 O 0.03925 0.7486 0.36755 0.0
O19 O 0.98807 0.71058 0.47396 0.0
O20 O 0.01992 0.71259 0.43077 0.0
C21 C 0.00825 0.81277 0.45217 0.0
C22 C 0.93359 0.75146 0.39468 0.0
O23 O 0.96298 0.75118 0.38368 0.0
O24 O 0.92869 0.75178 0.42513 0.0
C25 C 0.03191 0.75445 0.33813 0.0
O26 O 0.00353 0.76777 0.33105 0.0
C27 C 0.01078 0.69847 0.45686 0.0
Zn28 Zn 0.50968 0.70029 0.71532 0.0
Zn29 Zn 0.51042 0.74904 0.67041 0.0
O30 O 0.46632 0.75715 0.6925 0.0
O31 O 0.46586 0.71796 0.72953 0.0
O32 O 0.51975 0.78551 0.639 0.0
O33 O 0.55364 0.71727 0.73495 0.0
O34 O 0.55175 0.75597 0.69814 0.0
C35 C 0.4518 0.74143 0.71541 0.0
C36 C 0.50241 0.67714 0.64876 0.0
O37 O 0.50492 0.70775 0.64218 0.0
O38 O 0.50546 0.66743 0.67781 0.0
C39 C 0.5418 0.78115 0.61748 0.0
O40 O 0.55486 0.75205 0.61418 0.0
C41 C 0.56621 0.74311 0.72212 0.0
Zn42 Zn 0.45912 0.2468 0.92993 0.0
Zn43 Zn 0.49848 0.25027 0.87699 0.0
O44 O 0.50548 0.29313 0.90453 0.0
O45 O 0.47738 0.28879 0.95012 0.0
O46 O 0.53751 0.25165 0.84563 0.0
O47 O 0.47707 0.20316 0.94326 0.0
O48 O 0.50533 0.20487 0.89766 0.0
C49 C 0.49668 0.30527 0.93176 0.0
C50 C 0.42553 0.2527 0.86507 0.0
O51 O 0.45422 0.25192 0.85207 0.0
O52 O 0.42245 0.25052 0.89571 0.0
C53 C 0.55419 0.27822 0.83972 0.0
O54 O 0.54315 0.30645 0.85037 0.0
C55 C 0.49664 0.18993 0.92349 0.0
Zn56 Zn 0.09776 0.09628 0.21596 0.0
Zn57 Zn 0.11954 0.03555 0.20937 0.0
O58 O 0.1122 0.03845 0.25843 0.0
O59 O 0.10267 0.0915 0.2647 0.0
O60 O 0.13789 0.99066 0.20105 0.0
O61 O 0.05414 0.08128 0.19545 0.0
O62 O 0.07494 0.03279 0.18506 0.0
C63 C 0.10692 0.06327 0.27676 0.0
C64 C 0.16025 0.09725 0.18608 0.0
O65 O 0.15747 0.06687 0.19373 0.0
O66 O 0.13592 0.11579 0.18998 0.0
C67 C 0.16755 0.98472 0.20925 0.0
O68 O 0.18578 0.00792 0.22416 0.0
C69 C 0.05092 0.05234 0.18359 0.0
Zn70 Zn 0.30217 0.78847 0.50528 0.0
Zn71 Zn 0.26516 0.84265 0.50822 0.0
O72 O 0.25723 0.8278 0.46117 0.0
O73 O 0.28869 0.78438 0.45842 0.0
O74 O 0.2378 0.8828 0.5144 0.0
O75 O 0.27436 0.76565 0.53922 0.0
O76 O 0.24523 0.81053 0.54196 0.0
C77 C 0.26921 0.80405 0.445 0.0
C78 C 0.34082 0.84799 0.51822 0.0
O79 O 0.31267 0.86105 0.51555 0.0
O80 O 0.34289 0.81686 0.51644 0.0
C81 C 0.24414 0.91084 0.50166 0.0
O82 O 0.26964 0.91457 0.48207 0.0
C83 C 0.25056 0.7812 0.55119 0.0
Zn84 Zn 0.39902 0.92236 0.70495 0.0
Zn85 Zn 0.3757 0.98405 0.71788 0.0
O86 O 0.38546 0.96516 0.76214 0.0
O87 O 0.40127 0.91417 0.75324 0.0
O88 O 0.35443 0.02744 0.7264 0.0
O89 O 0.4388 0.94616 0.68551 0.0
O90 O 0.41792 -0.00463 0.69249 0.0
C91 C 0.39473 0.93745 0.77271 0.0
C92 C 0.33286 0.93094 0.68159 0.0
O93 O 0.33784 0.95889 0.69539 0.0
O94 O 0.35627 0.91089 0.67993 0.0
C95 C 0.32592 0.02703 0.73966 0.0
O96 O 0.31275 -0.00125 0.74967 0.0
C97 C 0.4413 0.97733 0.683 0.0
Zn98 Zn 0.16922 0.15765 0.04778 0.0
Zn99 Zn 0.21278 0.11076 0.03506 0.0
O100 O 0.20477 0.13031 -0.01025 0.0
O101 O 0.16861 0.16863 0.00023 0.0
O102 O 0.24982 0.07766 0.03066 0.0
O103 O 0.20019 0.18419 0.07556 0.0
O104 O 0.23622 0.1461 0.06455 0.0
C105 C 0.18674 0.15368 0.98026 0.0
C106 C 0.14429 0.09326 0.06465 0.0
O107 O 0.17134 0.08399 0.05199 0.0
O108 O 0.13848 0.12369 0.06695 0.0
C109 C 0.26395 0.07164 0.00377 0.0
O110 O 0.2527 0.0852 0.97721 0.0
C111 C 0.22918 0.17352 0.07791 0.0
Zn112 Zn 0.85611 0.36023 0.04283 0.0
Zn113 Zn 0.79568 0.38829 0.03665 0.0
O114 O 0.80787 0.37404 -0.00938 0.0
O115 O 0.85748 0.35299 -0.00642 0.0
O116 O 0.75165 0.40963 0.0307 0.0
O117 O 0.83285 0.32452 0.0695 0.0
O118 O 0.78503 0.34919 0.06659 0.0
C119 C 0.83245 0.3608 0.97688 0.0
C120 C 0.85512 0.42839 0.06589 0.0
O121 O 0.82523 0.42605 0.05558 0.0
O122 O 0.87345 0.40361 0.06416 0.0
C123 C 0.75008 0.43537 0.01335 0.0
O124 O 0.7773 0.44726 -0.00047 0.0
C125 C 0.80225 0.32544 0.07646 0.0
Zn126 Zn 0.93856 0.43647 0.21264 0.0
Zn127 Zn 0.89919 0.49014 0.22202 0.0
O128 O 0.91317 0.47934 0.26779 0.0
O129 O 0.94345 0.43532 0.26214 0.0
O130 O 0.87201 0.53054 0.22596 0.0
O131 O 0.97097 0.46479 0.18637 0.0
O132 O 0.9372 0.50578 0.19348 0.0
C133 C 0.93014 0.45665 0.28019 0.0
C134 C 0.86937 0.42637 0.19328 0.0
O135 O 0.86669 0.45553 0.20433 0.0
O136 O 0.89763 0.41354 0.19206 0.0
C137 C 0.842 0.52985 0.23549 0.0
O138 O 0.82782 0.50162 0.2444 0.0
C139 C 0.96377 0.49459 0.18182 0.0
Zn140 Zn 0.66794 0.65843 0.53865 0.0
Zn141 Zn 0.72525 0.62868 0.53367 0.0
O142 O 0.72117 0.64831 0.48911 0.0
O143 O 0.66922 0.66415 0.48967 0.0
O144 O 0.76725 0.60307 0.53339 0.0
O145 O 0.68951 0.69469 0.56571 0.0
O146 O 0.73526 0.6665 0.56592 0.0
C147 C 0.69633 0.66034 0.47484 0.0
C148 C 0.65951 0.59155 0.55152 0.0
O149 O 0.68901 0.59247 0.54056 0.0
O150 O 0.6453 0.61817 0.55795 0.0
C151 C 0.7924 0.61247 0.51692 0.0
O152 O 0.79111 0.63971 0.49991 0.0
C153 C 0.71954 0.69198 0.57419 0.0
Zn154 Zn 0.60937 0.57959 0.69497 0.0
Zn155 Zn 0.64376 0.52537 0.69971 0.0
O156 O 0.6267 0.53163 0.74564 0.0
O157 O 0.60814 0.58224 0.74412 0.0
O158 O 0.67378 0.48729 0.702 0.0
O159 O 0.57341 0.55084 0.67348 0.0
O160 O 0.60609 0.50848 0.6702 0.0
C161 C 0.61457 0.5565 0.75987 0.0
C162 C 0.6742 0.59135 0.67422 0.0
O163 O 0.67588 0.56249 0.68586 0.0
O164 O 0.64618 0.60413 0.67088 0.0
C165 C 0.69879 0.48916 0.72097 0.0
O166 O 0.70376 0.51563 0.73938 0.0
C167 C 0.57821 0.52124 0.66497 0.0
Zn168 Zn 0.9094 0.78156 0.90076 0.0
Zn169 Zn 0.9748 0.79872 0.88812 0.0
O170 O 0.95477 0.84069 0.9037 0.0
O171 O 0.90101 0.83063 0.90966 0.0
O172 O 0.02114 0.81193 0.87583 0.0
O173 O 0.92686 0.75445 0.93789 0.0
O174 O 0.97891 0.76561 0.92386 0.0
C175 C 0.92616 0.85045 0.91131 0.0
C176 C 0.93336 0.7609 0.83738 0.0
O177 O 0.95935 0.77727 0.84612 0.0
O178 O 0.9083 0.75897 0.8559 0.0
C179 C 0.02537 0.82599 0.84857 0.0
O180 O -0.00075 0.83475 0.83188 0.0
C181 C 0.95775 0.75066 0.94189 0.0
Zn182 Zn 0.03381 0.27661 0.63415 0.0
Zn183 Zn 0.98632 0.22939 0.62338 0.0
O184 O 0.96338 0.27177 0.61157 0.0
O185 O 0.00164 0.31108 0.62088 0.0
O186 O 0.94934 0.19519 0.61893 0.0
O187 O 0.06247 0.2534 0.6001 0.0
O188 O 0.02055 0.21809 0.58909 0.0
C189 C 0.97257 0.30213 0.61174 0.0
C190 C 0.023 0.23563 0.68897 0.0
O191 O 0.00396 0.21976 0.66907 0.0
O192 O 0.03684 0.26287 0.68081 0.0
C193 C 0.92222 0.19566 0.63464 0.0
O194 O 0.89991 0.1715 0.63019 0.0
C195 C 0.04994 0.22943 0.58348 0.0
Zn196 Zn 0.44761 0.22457 0.40755 0.0
Zn197 Zn 0.51184 0.23527 0.3897 0.0
O198 O 0.49824 0.28002 0.4069 0.0
O199 O 0.44462 0.27385 0.41664 0.0
O200 O 0.55911 0.24375 0.37604 0.0
O201 O 0.46219 0.1926 0.44147 0.0
O202 O 0.51301 0.19754 0.42199 0.0
C203 C 0.47086 0.2921 0.41546 0.0
C204 C 0.46145 0.20746 0.34085 0.0
O205 O 0.48997 0.22043 0.34735 0.0
O206 O 0.43924 0.20556 0.36252 0.0
C207 C 0.56486 0.26145 0.35116 0.0
O208 O 0.53982 0.27448 0.33588 0.0
C209 C 0.49193 0.18346 0.44082 0.0
Zn210 Zn 0.47515 0.66855 0.16098 0.0
Zn211 Zn 0.49047 0.7324 0.13831 0.0
O212 O 0.44223 0.72964 0.14792 0.0
O213 O 0.42641 0.68096 0.16668 0.0
O214 O 0.49169 0.77734 0.11841 0.0
O215 O 0.50864 0.68048 0.19646 0.0
O216 O 0.52023 0.73081 0.17797 0.0
C217 C 0.41973 0.71005 0.15841 0.0
C218 C 0.50936 0.67288 0.09844 0.0
O219 O 0.50801 0.70381 0.10287 0.0
O220 O 0.49627 0.65271 0.11852 0.0
C221 C 0.47367 0.7769 0.09283 0.0
O222 O 0.46018 0.7486 0.08248 0.0
C223 C 0.52502 0.70785 0.19834 0.0
Zn224 Zn 0.96837 -0.00269 0.77576 0.0
Zn225 Zn 0.92487 0.04448 0.75697 0.0
O226 O 0.94686 0.05822 0.79957 0.0
O227 O 0.98466 0.0238 0.8148 0.0
O228 O 0.89118 0.07984 0.7538 0.0
O229 O 0.98949 0.00549 0.73208 0.0
O230 O 0.95648 0.04574 0.71862 0.0
C231 C 0.96922 0.05006 0.81951 0.0
C232 C 0.89925 0.97449 0.76807 0.0
O233 O 0.89504 0.00317 0.75701 0.0
O234 O 0.92732 0.9667 0.77918 0.0
C235 C 0.87429 0.08253 0.77977 0.0
O236 O 0.87939 0.06235 0.80395 0.0
C237 C 0.98092 0.02754 0.71237 0.0
Zn238 Zn 0.72795 0.17546 0.49709 0.0
Zn239 Zn 0.78588 0.14841 0.51277 0.0
O240 O 0.79646 0.18217 0.4769 0.0
O241 O 0.75003 0.20717 0.46652 0.0
O242 O 0.8298 0.12654 0.51645 0.0
O243 O 0.72556 0.19008 0.54368 0.0
O244 O 0.77439 0.17004 0.55625 0.0
C245 C 0.78087 0.20442 0.46216 0.0
C246 C 0.72608 0.10506 0.49097 0.0
O247 O 0.75477 0.10861 0.50373 0.0
O248 O 0.70995 0.13006 0.48306 0.0
C249 C 0.83919 0.11082 0.49129 0.0
O250 O 0.81988 0.10961 0.4654 0.0
C251 C 0.74852 0.18553 0.56414 0.0
Zn252 Zn 0.5724 0.03747 0.25489 0.0
Zn253 Zn 0.61387 0.98827 0.2382 0.0
O254 O 0.58683 0.97088 0.27649 0.0
O255 O 0.55092 0.00857 0.28881 0.0
O256 O 0.64517 0.95156 0.2331 0.0
O257 O 0.55455 0.03353 0.20912 0.0
O258 O 0.58759 0.99291 0.19641 0.0
C259 C 0.56261 0.98039 0.2934 0.0
C260 C 0.64271 0.0557 0.25759 0.0
O261 O 0.64601 0.02689 0.24604 0.0
O262 O 0.61424 0.06569 0.26508 0.0
C263 C 0.66214 0.9465 0.25869 0.0
O264 O 0.65847 0.9658 0.2842 0.0
C265 C 0.56478 0.01252 0.18884 0.0
Zn266 Zn 0.80928 0.84711 0.00551 0.0
Zn267 Zn 0.7418 0.84953 0.00101 0.0
O268 O 0.75391 0.82195 0.96054 0.0
O269 O 0.80837 0.81921 0.96526 0.0
O270 O 0.69262 0.85943 -0.00261 0.0
O271 O 0.80375 0.82446 0.04822 0.0
O272 O 0.74901 0.82365 0.04326 0.0
C273 C 0.78155 0.8114 0.9504 0.0
C274 C 0.78802 0.91251 0.00415 0.0
O275 O 0.7597 0.89758 0.00375 0.0
O276 O 0.8144 0.89652 0.00379 0.0
C277 C 0.67631 0.86064 0.9708 0.0
O278 O 0.6899 0.85043 0.94373 0.0
C279 C 0.77524 0.81609 0.05881 0.0
Zn280 Zn 0.22026 0.67017 0.95281 0.0
Zn281 Zn 0.27215 0.6456 0.97083 0.0
O282 O 0.28783 0.68455 0.9408 0.0
O283 O 0.24118 0.71031 0.93455 0.0
O284 O 0.31414 0.62018 0.97615 0.0
O285 O 0.20572 0.6748 -0.00126 0.0
O286 O 0.25604 0.66278 0.01547 0.0
C287 C 0.2723 0.70965 0.93133 0.0
C288 C 0.21288 0.60627 0.93842 0.0
O289 O 0.23846 0.60865 0.95675 0.0
O290 O 0.20242 0.63216 0.92552 0.0
C291 C 0.3245 0.60438 0.95142 0.0
O292 O 0.30752 0.60524 0.92408 0.0
C293 C 0.22673 0.67239 0.02149 0.0
Zn294 Zn 0.05387 0.54505 0.77906 0.0
Zn295 Zn 0.09299 0.49642 0.78101 0.0
O296 O 0.05972 0.49057 0.81958 0.0
O297 O 0.02257 0.52818 0.81193 0.0
O298 O 0.12095 0.45592 0.78636 0.0
O299 O 0.04231 0.53693 0.73302 0.0
O300 O 0.07259 0.49265 0.73428 0.0
C301 C 0.03264 0.50387 0.82769 0.0
C302 C 0.12074 0.56697 0.79099 0.0
O303 O 0.12639 0.53662 0.78543 0.0
O304 O 0.09121 0.5766 0.79172 0.0
C305 C 0.14102 0.44616 0.76486 0.0
O306 O 0.14438 0.46311 0.73792 0.0
C307 C 0.05316 0.51156 0.71914 0.0
Zn308 Zn 0.29079 0.302 0.50138 0.0
Zn309 Zn 0.23092 0.32195 0.48938 0.0
O310 O 0.2441 0.30045 0.44525 0.0
O311 O 0.29644 0.28946 0.45474 0.0
O312 O 0.18459 0.33951 0.48274 0.0
O313 O 0.27567 0.26902 0.53381 0.0
O314 O 0.22707 0.29194 0.53027 0.0
C315 C 0.27194 0.29007 0.43536 0.0
C316 C 0.28584 0.37069 0.51282 0.0
O317 O 0.25751 0.36506 0.49971 0.0
O318 O 0.305 0.34722 0.51801 0.0
C319 C 0.182 0.36742 0.46904 0.0
O320 O 0.20875 0.38222 0.45702 0.0
C321 C 0.24654 0.27224 0.54437 0.0
Zn322 Zn 0.46629 0.51461 0.24979 0.0
Zn323 Zn 0.41517 0.54756 0.23194 0.0
O324 O 0.42713 0.56169 0.27903 0.0
O325 O 0.47602 0.54175 0.28947 0.0
O326 O 0.37811 0.57819 0.22248 0.0
O327 O 0.49069 0.52416 0.20922 0.0
O328 O 0.44943 0.55528 0.19497 0.0
C329 C 0.45207 0.55912 0.29792 0.0
C330 C 0.40565 0.47436 0.23981 0.0
O331 O 0.39384 0.50102 0.22935 0.0
O332 O 0.43493 0.47439 0.25136 0.0
C333 C 0.35061 0.57578 0.2376 0.0
O334 O 0.34551 0.55133 0.25797 0.0
C335 C 0.4777 0.54324 0.18906 0.0
O336 O 0.94574 0.12449 0.03265 0.0
Zn337 Zn 0.96213 0.08123 0.0201 0.0
O338 O 0.92851 0.04941 0.02832 0.0
Zn339 Zn 0.94987 0.01017 0.04227 0.0
Zn340 Zn 0.89926 0.06508 0.06116 0.0
Zn341 Zn 0.90227 0.04346 -0.01001 0.0
O342 O 0.93912 0.97369 0.01018 0.0
O343 O 0.90406 -0.00413 0.97502 0.0
O344 O 0.00297 0.07198 0.04543 0.0
O345 O 3e-05 0.01709 0.04719 0.0
O346 O 0.93472 0.00018 0.08763 0.0
O347 O 0.92033 0.05042 0.10225 0.0
O348 O 0.85485 0.04224 0.05178 0.0
O349 O 0.97257 0.08194 0.97295 0.0
O350 O 0.85485 0.05322 -0.00064 0.0
O351 O 0.92139 0.07123 0.954 0.0
C352 C 0.92117 0.13509 0.04841 0.0
C353 C 0.92039 0.97154 0.98505 0.0
C354 C 0.93373 0.02323 0.10895 0.0
C355 C 0.01584 0.04457 0.05194 0.0
C356 C 0.84046 0.04062 0.02403 0.0
C357 C 0.95155 0.08094 0.94977 0.0
O358 O 0.89971 0.11545 0.06156 0.0
O359 O 0.19756 0.71001 0.17283 0.0
Zn360 Zn 0.20243 0.72061 0.22054 0.0
O361 O 0.22347 0.7645 0.22381 0.0
Zn362 Zn 0.26578 0.76066 0.24412 0.0
Zn363 Zn 0.2314 0.78458 0.18187 0.0
Zn364 Zn 0.19842 0.79328 0.24989 0.0
O365 O 0.26461 0.77261 0.29098 0.0
O366 O 0.21635 0.79693 0.29545 0.0
O367 O 0.23279 0.68436 0.23611 0.0
O368 O 0.27999 0.71445 0.23963 0.0
O369 O 0.29987 0.78809 0.22142 0.0
O370 O 0.27982 0.77835 0.17224 0.0
O371 O 0.21927 0.83322 0.1814 0.0
O372 O 0.15734 0.72066 0.24342 0.0
O373 O 0.19843 0.8383 0.2312 0.0
O374 O 0.15246 0.77473 0.25283 0.0
C375 C 0.19967 0.72682 0.14685 0.0
C376 C 0.24316 0.78712 0.308 0.0
C377 C 0.30451 0.78132 0.19164 0.0
C378 C 0.26444 0.68655 0.23841 0.0
C379 C 0.20683 0.8506 0.20403 0.0
C380 C 0.1403 0.74525 0.25224 0.0
O381 O 0.20802 0.75752 0.14711 0.0
O382 O 0.56003 0.89141 0.5129 0.0
Zn383 Zn 0.53463 0.92484 0.48846 0.0
O384 O 0.54398 0.96922 0.5052 0.0
Zn385 Zn 0.50322 0.99028 0.51731 0.0
Zn386 Zn 0.57661 0.9693 0.54023 0.0
Zn387 Zn 0.56189 0.9945 0.47101 0.0
O388 O 0.49695 0.03413 0.49588 0.0
O389 O 0.54588 0.0402 0.47197 0.0
O390 O 0.48737 0.91282 0.49834 0.0
O391 O 0.46302 0.9589 0.51335 0.0
O392 O 0.50712 0.00186 0.56365 0.0
O393 O 0.55828 0.99144 0.58039 0.0
O394 O 0.62067 0.99165 0.52622 0.0
O395 O 0.53937 0.92087 0.43949 0.0
O396 O 0.61057 -0.00093 0.47379 0.0
O397 O 0.54918 0.97418 0.4291 0.0
C398 C 0.57468 0.89395 0.54039 0.0
C399 C 0.51868 0.05199 0.48122 0.0
C400 C 0.52944 0.00231 0.58561 0.0
C401 C 0.46175 0.92791 0.50728 0.0
C402 C 0.63034 0.00048 0.49795 0.0
C403 C 0.54239 0.94474 0.41969 0.0
O404 O 0.58184 0.92204 0.55348 0.0
O405 O 0.20847 0.23285 0.84522 0.0
Zn406 Zn 0.22589 0.2567 0.80512 0.0
O407 O 0.21841 0.22847 0.76689 0.0
Zn408 Zn 0.25898 0.22203 0.74287 0.0
Zn409 Zn 0.19708 0.18564 0.77785 0.0
Zn410 Zn 0.18914 0.25111 0.73929 0.0
O411 O 0.25398 0.23493 0.69554 0.0
O412 O 0.20036 0.24578 0.69255 0.0
O413 O 0.27558 0.26202 0.81151 0.0
O414 O 0.29882 0.24342 0.76625 0.0
O415 O 0.26833 0.17402 0.74202 0.0
O416 O 0.22368 0.14717 0.76136 0.0
O417 O 0.14783 0.18262 0.76458 0.0
O418 O 0.20641 0.30301 0.80011 0.0
O419 O 0.14345 0.23397 0.7467 0.0
O420 O 0.18946 0.29926 0.74876 0.0
C421 C 0.20052 0.20235 0.84965 0.0
C422 C 0.2281 0.24125 0.67892 0.0
C423 C 0.25275 0.14715 0.74912 0.0
C424 C 0.30131 0.2564 0.7946 0.0
C425 C 0.13028 0.2065 0.7555 0.0
C426 C 0.19484 0.31622 0.77452 0.0
O427 O 0.19737 0.18186 0.82609 0.0
O428 O 0.05159 0.03542 0.42043 0.0
Zn429 Zn 0.03007 0.02257 0.4626 0.0
O430 O 0.05967 0.03789 0.49825 0.0
Zn431 Zn 0.06803 0.00149 0.52731 0.0
Zn432 Zn 0.10169 0.05928 0.4833 0.0
Zn433 Zn 0.03704 0.0701 0.5226 0.0
O434 O 0.05205 0.00936 0.57311 0.0
O435 O 0.03512 0.06057 0.56927 0.0
O436 O 0.02649 0.9726 0.46197 0.0
O437 O 0.04743 0.95885 0.50987 0.0
O438 O 0.1165 0.99357 0.52802 0.0
O439 O 0.14056 0.03063 0.4953 0.0
O440 O 0.10864 0.10745 0.50033 0.0
O441 O 0.98273 0.04086 0.46607 0.0
O442 O 0.05736 0.11414 0.51818 0.0
O443 O 0.99065 0.07271 0.50964 0.0
C444 C 0.07907 0.05002 0.41288 0.0
C445 C 0.04026 0.03512 0.58598 0.0
C446 C 0.14214 0.00547 0.51369 0.0
C447 C 0.03362 0.95088 0.48285 0.0
C448 C 0.08597 0.12584 0.51108 0.0
C449 C 0.97171 0.06058 0.48759 0.0
O450 O 0.09997 0.06075 0.43428 0.0
O451 O 0.30128 0.7854 0.7372 0.0
Zn452 Zn 0.26192 0.7999 0.76159 0.0
O453 O 0.22558 0.76811 0.75475 0.0
Zn454 Zn 0.19193 0.7878 0.72829 0.0
Zn455 Zn 0.24175 0.729 0.73455 0.0
Zn456 Zn 0.208 0.75637 0.79548 0.0
O457 O 0.15193 0.79929 0.75578 0.0
O458 O 0.1684 0.78235 0.80439 0.0
O459 O 0.25121 0.84428 0.74425 0.0
O460 O 0.21134 0.82951 0.70884 0.0
O461 O 0.18164 0.75974 0.6886 0.0
O462 O 0.22772 0.73102 0.68801 0.0
O463 O 0.22198 0.68706 0.7546 0.0
O464 O 0.27916 0.80089 0.80787 0.0
O465 O 0.19521 0.70821 0.79648 0.0
O466 O 0.24214 0.76536 0.82928 0.0
C467 C 0.31155 0.75631 0.73337 0.0
C468 C 0.14786 0.79705 0.78648 0.0
C469 C 0.20272 0.74263 0.67343 0.0
C470 C 0.23315 0.85037 0.71965 0.0
C471 C 0.2032 0.68343 0.77928 0.0
C472 C 0.26846 0.78362 0.83149 0.0
O473 O 0.29207 0.73083 0.73593 0.0
O474 O 0.52481 0.00067 0.03731 0.0
Zn475 Zn 0.51855 0.99339 -0.00989 0.0
O476 O 0.47447 0.97316 0.98251 0.0
Zn477 Zn 0.47961 0.92933 0.96247 0.0
Zn478 Zn 0.44887 0.97067 0.02316 0.0
Zn479 Zn 0.45053 0.00043 0.95345 0.0
O480 O 0.45492 0.92427 0.91942 0.0
O481 O 0.43778 0.97549 0.91408 0.0
O482 O 0.55503 0.96263 0.97805 0.0
O483 O 0.52822 0.91857 0.95669 0.0
O484 O 0.46307 0.89497 -0.0064 0.0
O485 O 0.44516 0.92299 0.03654 0.0
O486 O 0.40278 0.991 0.02017 0.0
O487 O 0.52402 0.03845 0.96913 0.0
O488 O 0.40735 0.01402 0.97174 0.0
O489 O 0.4766 0.04123 0.94146 0.0
C490 C 0.50592 0.00065 0.06191 0.0
C491 C 0.43953 0.946 0.90366 0.0
C492 C 0.45171 0.89586 0.02241 0.0
C493 C 0.55518 0.93373 0.96545 0.0
C494 C 0.3908 0.00823 -0.00261 0.0
C495 C 0.5049 0.0535 0.94995 0.0
O496 O 0.47511 0.99245 0.05979 0.0
O497 O 0.23445 0.25456 0.21185 0.0
Zn498 Zn 0.27506 0.23841 0.23289 0.0
O499 O 0.31315 0.25874 0.21196 0.0
Zn500 Zn 0.33383 0.22379 0.18767 0.0
Zn501 Zn 0.30152 0.29542 0.18336 0.0
Zn502 Zn 0.34352 0.27471 0.24426 0.0
O503 O 0.37092 0.2044 0.21319 0.0
O504 O 0.3846 0.24906 0.24306 0.0
O505 O 0.27218 0.1895 0.22365 0.0
O506 O 0.29826 0.18889 0.17624 0.0
O507 O 0.35319 0.24699 0.14926 0.0
O508 O 0.32369 0.28944 0.13949 0.0
O509 O 0.31835 0.33992 0.20178 0.0
O510 O 0.27321 0.24822 0.28104 0.0
O511 O 0.35436 0.32235 0.23831 0.0
O512 O 0.32372 0.27085 0.28889 0.0
C513 C 0.22837 0.2748 0.18935 0.0
C514 C 0.39094 0.22048 0.23205 0.0
C515 C 0.33253 0.26079 0.13094 0.0
C516 C 0.27748 0.17607 0.19612 0.0
C517 C 0.34154 0.34567 0.22262 0.0
C518 C 0.29557 0.26091 0.29982 0.0
O519 O 0.25141 0.29254 0.17615 0.0
O520 O 0.54201 0.52818 0.89613 0.0
Zn521 Zn 0.51658 0.5141 0.93594 0.0
O522 O 0.54271 0.52977 0.97267 0.0
Zn523 Zn 0.54992 0.49654 0.00454 0.0
Zn524 Zn 0.58534 0.55138 0.96217 0.0
Zn525 Zn 0.51963 0.56585 -0.00991 0.0
O526 O 0.53432 0.51278 0.04823 0.0
O527 O 0.51975 0.56437 0.03843 0.0
O528 O 0.5147 0.46444 0.93802 0.0
O529 O 0.52792 0.45338 -0.01054 0.0
O530 O 0.59871 0.48692 0.00788 0.0
O531 O 0.62324 0.52272 0.97438 0.0
O532 O 0.58995 0.59374 -0.01082 0.0
O533 O 0.46826 0.53104 0.93571 0.0
O534 O 0.54099 0.60689 0.97249 0.0
O535 O 0.47283 0.56503 0.97805 0.0
C536 C 0.56826 0.54608 0.89096 0.0
C537 C 0.52452 0.54084 0.058 0.0
C538 C 0.62468 0.49842 -0.00627 0.0
C539 C 0.51826 0.444 0.9611 0.0
C540 C 0.56715 0.61464 0.98832 0.0
C541 C 0.45533 0.55092 0.95598 0.0
O542 O 0.58633 0.55852 0.91393 0.0
O543 O 0.85365 0.25015 0.26256 0.0
Zn544 Zn 0.81094 0.26974 0.2749 0.0
O545 O 0.77574 0.24065 0.25947 0.0
Zn546 Zn 0.74148 0.26415 0.23703 0.0
Zn547 Zn 0.79128 0.20571 0.23192 0.0
Zn548 Zn 0.75845 0.22183 0.2971 0.0
O549 O 0.69968 0.26648 0.26448 0.0
O550 O 0.71722 0.24396 0.31027 0.0
O551 O 0.80839 0.31207 0.25092 0.0
O552 O 0.75908 0.30962 0.22582 0.0
O553 O 0.7338 0.24433 0.19242 0.0
O554 O 0.78287 0.22186 0.18699 0.0
O555 O 0.76447 0.1627 0.24034 0.0
O556 O 0.81211 0.27498 0.32416 0.0
O557 O 0.7444 0.17589 0.28866 0.0
O558 O 0.79128 0.22434 0.33267 0.0
C559 C 0.86283 0.22389 0.24849 0.0
C560 C 0.69518 0.25874 0.29421 0.0
C561 C 0.75813 0.23615 0.17467 0.0
C562 C 0.78677 0.32439 0.23235 0.0
C563 C 0.74695 0.15551 0.26528 0.0
C564 C 0.80784 0.24991 0.34235 0.0
O565 O 0.84163 0.20264 0.23661 0.0
O566 O 0.03412 0.49552 0.56313 0.0
Zn567 Zn 0.02959 0.49817 0.51449 0.0
O568 O 0.98469 0.48364 0.50115 0.0
Zn569 Zn 0.98522 0.43962 0.48101 0.0
Zn570 Zn 0.95537 0.48395 0.53867 0.0
Zn571 Zn 0.9684 0.51468 0.47047 0.0
O572 O 0.96641 0.43952 0.43483 0.0
O573 O 0.95826 0.49308 0.42834 0.0
O574 O 0.06372 0.4681 0.49526 0.0
O575 O 0.03259 0.4247 0.47805 0.0
O576 O 0.96054 0.40667 0.50958 0.0
O577 O 0.93911 0.438 0.54827 0.0
O578 O 0.91628 0.51378 0.5338 0.0
O579 O 0.03884 0.54636 0.50227 0.0
O580 O 0.92662 0.53508 0.48537 0.0
O581 O 0.00037 0.55245 0.46405 0.0
C582 C 0.01237 0.49725 0.58537 0.0
C583 C 0.95757 0.46361 0.41739 0.0
C584 C 0.94383 0.40976 0.53563 0.0
C585 C 0.06097 0.43886 0.48334 0.0
C586 C 0.90875 0.53286 0.51067 0.0
C587 C 0.02566 0.56329 0.48001 0.0
O588 O 0.98139 0.49672 0.57878 0.0
O589 O 0.72457 0.74065 0.34249 0.0
Zn590 Zn 0.74707 0.76263 0.30473 0.0
O591 O 0.74367 0.73375 0.26731 0.0
Zn592 Zn 0.7862 0.72797 0.24706 0.0
Zn593 Zn 0.71952 0.69247 0.27625 0.0
Zn594 Zn 0.71854 0.75566 0.23651 0.0
O595 O 0.78776 0.74989 0.20223 0.0
O596 O 0.73357 0.747 0.19219 0.0
O597 O 0.79445 0.76586 0.31831 0.0
O598 O 0.82321 0.74345 0.27828 0.0
O599 O 0.79152 0.67925 0.24084 0.0
O600 O 0.74579 0.6538 0.26009 0.0
O601 O 0.67185 0.69203 0.25943 0.0
O602 O 0.73063 0.80884 0.29597 0.0
O603 O 0.6715 0.74287 0.24005 0.0
O604 O 0.72112 0.8038 0.24305 0.0
C605 C 0.71519 0.7106 0.34695 0.0
C606 C 0.7632 0.75172 0.1825 0.0
C607 C 0.77446 0.65288 0.24698 0.0
C608 C 0.82187 0.75707 0.30638 0.0
C609 C 0.65623 0.71637 0.24835 0.0
C610 C 0.72344 0.82149 0.26863 0.0
O611 O 0.7144 0.68908 0.32417 0.0
O612 O 0.74185 0.23092 0.71564 0.0
Zn613 Zn 0.74834 0.2424 0.76252 0.0
O614 O 0.77797 0.28179 0.76643 0.0
Zn615 Zn 0.82037 0.2711 0.7869 0.0
Zn616 Zn 0.78589 0.30082 0.72354 0.0
Zn617 Zn 0.75658 0.314 0.79262 0.0
O618 O 0.8298 0.29841 0.82862 0.0
O619 O 0.78123 0.32227 0.83383 0.0
O620 O 0.77088 0.20254 0.77915 0.0
O621 O 0.81922 0.22301 0.79846 0.0
O622 O 0.8574 0.27244 0.75313 0.0
O623 O 0.83264 0.29237 0.70954 0.0
O624 O 0.7749 0.34913 0.72092 0.0
O625 O 0.70262 0.24892 0.78267 0.0
O626 O 0.7554 0.35735 0.77059 0.0
O627 O 0.70925 0.30027 0.80174 0.0
C628 C 0.746 0.24703 0.68957 0.0
C629 C 0.81007 0.31645 0.84463 0.0
C630 C 0.85776 0.27986 0.72301 0.0
C631 C 0.7991 0.19868 0.79242 0.0
C632 C 0.76289 0.36795 0.74253 0.0
C633 C 0.69102 0.27431 0.79665 0.0
O634 O 0.75925 0.27604 0.68948 0.0
O635 O 0.71723 0.75475 0.75454 0.0
Zn636 Zn 0.76357 0.74134 0.75829 0.0
O637 O 0.79045 0.77423 0.73645 0.0
Zn638 Zn 0.81147 0.75281 0.70015 0.0
Zn639 Zn 0.7654 0.81166 0.72065 0.0
Zn640 Zn 0.82404 0.78934 0.765 0.0
O641 O 0.85757 0.73749 0.71094 0.0
O642 O 0.86643 0.7703 0.75388 0.0
O643 O 0.76499 0.69707 0.73521 0.0
O644 O 0.78322 0.71331 0.68668 0.0
O645 O 0.81217 0.78536 0.66433 0.0
O646 O 0.76283 0.80522 0.6722 0.0
O647 O 0.78785 0.85644 0.73392 0.0
O648 O 0.77164 0.74043 0.80678 0.0
O649 O 0.82866 0.83719 0.76411 0.0
O650 O 0.81341 0.77765 0.81026 0.0
C651 C 0.70186 0.78034 0.74661 0.0
C652 C 0.87655 0.74948 0.73323 0.0
C653 C 0.78388 0.7926 0.65317 0.0
C654 C 0.76915 0.69182 0.70488 0.0
C655 C 0.81346 0.86114 0.75217 0.0
C656 C 0.79242 0.75799 0.82355 0.0
O657 O 0.71708 0.80593 0.73512 0.0
O658 O 0.47733 0.57863 0.52896 0.0
Zn659 Zn 0.48503 0.54224 0.49701 0.0
O660 O 0.45905 0.50323 0.50914 0.0
Zn661 Zn 0.48889 0.46823 0.52051 0.0
Zn662 Zn 0.43269 0.51258 0.5469 0.0
Zn663 Zn 0.4298 0.48934 0.47413 0.0
O664 O 0.48592 0.43163 0.48786 0.0
O665 O 0.44351 0.44503 0.45624 0.0
O666 O 0.53383 0.53514 0.50171 0.0
O667 O 0.5358 0.486 0.52506 0.0
O668 O 0.47992 0.44996 0.56469 0.0
O669 O 0.45589 0.49378 0.58449 0.0
O670 O 0.38654 0.49233 0.54315 0.0
O671 O 0.47387 0.55693 0.45195 0.0
O672 O 0.38335 0.48175 0.49009 0.0
O673 O 0.43114 0.52286 0.43853 0.0
C674 C 0.45658 0.5829 0.55167 0.0
C675 C 0.4662 0.42538 0.46411 0.0
C676 C 0.47342 0.4687 0.5886 0.0
C677 C 0.54997 0.51262 0.51535 0.0
C678 C 0.37023 0.48206 0.51817 0.0
C679 C 0.45061 0.54758 0.43244 0.0
O680 O 0.43449 0.56076 0.55866 0.0
O681 O -0.00102 0.48364 0.05838 0.0
Zn682 Zn 0.99037 0.51775 0.02557 0.0
O683 O 0.02019 0.55417 0.03288 0.0
Zn684 Zn 0.99624 0.58472 0.05964 0.0
Zn685 Zn 0.06114 0.53942 0.05256 0.0
Zn686 Zn 0.02677 0.57152 -0.0089 0.0
O687 O 0.98218 0.62351 0.03342 0.0
O688 O 0.01603 0.61893 -0.00894 0.0
O689 O 0.94455 0.53315 0.03234 0.0
O690 O 0.95628 0.55844 0.07905 0.0
O691 O 0.03162 0.60287 0.09047 0.0
O692 O 0.07237 0.56951 0.09122 0.0
O693 O 0.09815 0.54 0.01894 0.0
O694 O 0.99527 0.49835 0.98081 0.0
O695 O 0.07355 0.56524 0.97797 0.0
O696 O -0.00092 0.54724 0.9573 0.0
C697 C 0.02536 0.47664 0.07357 0.0
C698 C 0.99594 0.63535 0.00803 0.0
C699 C 0.04812 0.58207 0.10609 0.0
C700 C 0.9362 0.54116 0.061 0.0
C701 C 0.09869 0.55158 -0.00987 0.0
C702 C 0.99421 0.51604 0.95554 0.0
O703 O 0.0522 0.49417 0.07097 0.0
C704 C 0.94235 0.20728 0.10021 0.0
C705 C 0.96142 0.22578 0.07774 0.0
H706 H 0.91237 0.16323 0.1078 0.0
C707 C 0.95677 0.21955 0.04439 0.0
H708 H 0.94477 0.21207 0.12608 0.0
C709 C 0.93753 0.1921 0.03398 0.0
C710 C 0.92319 0.17037 0.05681 0.0
H711 H 0.9703 0.23404 0.02647 0.0
H712 H 0.93751 0.18551 0.00838 0.0
C713 C 0.92321 0.17963 0.08974 0.0
C714 C 0.07961 0.72302 0.31711 0.0
C715 C 0.05589 0.74721 0.31236 0.0
H716 H 0.12467 0.70224 0.30024 0.0
C717 C 0.05672 0.76578 0.28376 0.0
H718 H 0.07915 0.70801 0.33878 0.0
C719 C 0.08285 0.76261 0.26192 0.0
C720 C 0.10794 0.74019 0.26795 0.0
H721 H 0.03859 0.7844 0.27941 0.0
H722 H 0.08472 0.77924 0.24148 0.0
C723 C 0.10529 0.71928 0.29483 0.0
C724 C 0.56364 0.805 0.56569 0.0
C725 C 0.55462 0.80925 0.59833 0.0
H726 H 0.57747 0.82902 0.52125 0.0
C727 C 0.55775 0.84075 0.61275 0.0
H728 H 0.56176 0.78076 0.55424 0.0
C729 C 0.56804 0.86798 0.59439 0.0
C730 C 0.57438 0.86434 0.56099 0.0
H731 H 0.55159 0.84445 0.6381 0.0
H732 H 0.56852 0.89221 0.60588 0.0
C733 C 0.57295 0.83247 0.54697 0.0
C734 C 0.36664 0.26894 0.86024 0.0
C735 C 0.39518 0.25705 0.84523 0.0
H736 H 0.31522 0.27908 0.85594 0.0
C737 C 0.39368 0.24863 0.81201 0.0
H738 H 0.36708 0.27627 0.88565 0.0
C739 C 0.36354 0.25012 0.79478 0.0
C740 C 0.33455 0.26043 0.8104 0.0
H741 H 0.41534 0.23963 0.79974 0.0
H742 H 0.3627 0.24194 0.76963 0.0
C743 C 0.33684 0.2708 0.84306 0.0
C744 C 0.02312 0.87058 0.43511 0.0
C745 C 0.01743 0.84761 0.46003 0.0
H746 H 0.03177 0.92152 0.4228 0.0
C747 C 0.0174 0.8588 0.49247 0.0
H748 H 0.02289 0.86266 0.40988 0.0
C749 C 0.02285 0.89234 0.49989 0.0
C750 C 0.02756 0.91547 0.47495 0.0
H751 H 0.01295 0.84162 0.51214 0.0
H752 H 0.02275 0.90025 0.52513 0.0
C753 C 0.02775 0.90427 0.44249 0.0
C754 C 0.40125 0.77536 0.7116 0.0
C755 C 0.41647 0.7467 0.72213 0.0
H756 H 0.35582 0.80082 0.70689 0.0
C757 C 0.39685 0.72116 0.73616 0.0
H758 H 0.41572 0.79529 0.70049 0.0
C759 C 0.36258 0.7239 0.73899 0.0
C760 C 0.34736 0.7525 0.72843 0.0
H761 H 0.4078 0.69854 0.74414 0.0
H762 H 0.34809 0.70382 0.74983 0.0
C763 C 0.367 0.77838 0.71505 0.0
C764 C 0.50501 0.13267 0.9034 0.0
C765 C 0.50656 0.15583 0.92905 0.0
H766 H 0.50308 0.0812 0.89015 0.0
C767 C 0.51352 0.1452 0.96066 0.0
H768 H 0.49946 0.14033 0.87886 0.0
C769 C 0.51691 0.1116 0.96685 0.0
C770 C 0.51226 0.08819 0.94169 0.0
H771 H 0.51484 0.16272 0.98076 0.0
H772 H 0.52023 0.10374 -0.00827 0.0
C773 C 0.5072 0.09896 0.90979 0.0
C774 C 0.15668 0.27969 0.13022 0.0
C775 C 0.12989 0.26728 0.14886 0.0
H776 H 0.20858 0.29314 0.12883 0.0
C777 C 0.13562 0.25823 0.18118 0.0
H778 H 0.15295 0.2874 0.10536 0.0
C779 C 0.16756 0.26141 0.19454 0.0
C780 C 0.19424 0.27434 0.17606 0.0
H781 H 0.11539 0.24891 0.1962 0.0
H782 H 0.17133 0.25383 0.21944 0.0
C783 C 0.18846 0.28354 0.1438 0.0
C784 C 0.01616 0.01214 0.14986 0.0
C785 C 0.01888 0.04128 0.16869 0.0
H786 H 0.98622 0.98264 0.11681 0.0
C787 C 0.99067 0.06028 0.17284 0.0
H788 H 0.03733 -0.0033 0.14665 0.0
C789 C 0.96118 0.05192 0.1563 0.0
C790 C 0.95939 0.02463 0.13486 0.0
H791 H 0.99169 0.0824 0.18792 0.0
H792 H 0.9406 0.06831 0.15845 0.0
C793 C 0.98664 0.00385 0.13311 0.0
C794 C 0.23648 0.81728 0.39505 0.0
C795 C 0.26175 0.79979 0.4101 0.0
H796 H 0.21054 0.82683 0.3507 0.0
C797 C 0.28064 0.77829 0.39135 0.0
H798 H 0.22154 0.83402 0.40894 0.0
C799 C 0.27463 0.77446 0.35822 0.0
C800 C 0.24936 0.79179 0.34307 0.0
H801 H 0.30042 0.76457 0.40217 0.0
H802 H 0.28973 0.75768 0.34453 0.0
C803 C 0.23019 0.81314 0.36178 0.0
C804 C 0.49992 0.97438 0.66487 0.0
C805 C 0.47047 0.99194 0.6664 0.0
H806 H 0.54408 0.96572 0.63804 0.0
C807 C 0.46758 0.02057 0.64785 0.0
H808 H 0.5031 0.95272 0.67968 0.0
C809 C 0.49116 0.02807 0.62407 0.0
C810 C 0.51773 0.00707 0.61891 0.0
H811 H 0.44539 0.03488 0.64906 0.0
H812 H 0.48625 0.04757 0.60701 0.0
C813 C 0.52373 0.9822 0.64144 0.0
C814 C 0.18176 0.19848 0.93948 0.0
C815 C 0.18881 0.16549 0.94651 0.0
H816 H 0.18054 0.23624 0.90335 0.0
C817 C 0.19922 0.14467 0.92141 0.0
H818 H 0.17397 0.2152 0.95846 0.0
C819 C 0.20238 0.15661 0.8898 0.0
C820 C 0.19601 0.18979 0.88291 0.0
H821 H 0.20487 0.11919 0.92618 0.0
H822 H 0.21054 0.14002 0.87086 0.0
C823 C 0.18571 0.21063 0.90803 0.0
C824 C 0.0866 0.02996 0.32359 0.0
C825 C 0.10252 0.05887 0.31192 0.0
H826 H 0.06586 0.005 0.36486 0.0
C827 C 0.11157 0.08458 0.33379 0.0
H828 H 0.07911 0.00994 0.30712 0.0
C829 C 0.10463 0.08147 0.36688 0.0
C830 C 0.08755 0.05308 0.37832 0.0
H831 H 0.12381 0.10714 0.32526 0.0
H832 H 0.11174 0.10161 0.38336 0.0
C833 C 0.07873 0.02729 0.35647 0.0
C834 C 0.2397 0.73586 0.59097 0.0
C835 C 0.23096 0.76635 0.57795 0.0
H836 H 0.23627 0.70344 0.63161 0.0
C837 C 0.20568 0.78395 0.59293 0.0
H838 H 0.25851 0.72125 0.57959 0.0
C839 C 0.19247 0.77337 0.62253 0.0
C840 C 0.20471 0.74528 0.63776 0.0
H841 H 0.19784 0.80716 0.58309 0.0
H842 H 0.17541 0.78918 0.63498 0.0
C843 C 0.22669 0.72542 0.62064 0.0
C844 C 0.42418 0.91158 0.81917 0.0
C845 C 0.40105 0.93401 0.80767 0.0
H846 H 0.45488 0.89773 0.85932 0.0
C847 C 0.38698 0.95626 0.82943 0.0
H848 H 0.43526 0.89403 0.80281 0.0
C849 C 0.39804 0.95824 0.86141 0.0
C850 C 0.42351 0.93813 0.87222 0.0
H851 H 0.36862 0.97336 0.82136 0.0
H852 H 0.38778 0.9768 0.87725 0.0
C853 C 0.43542 0.91365 0.85141 0.0
C854 C 0.24894 0.22815 0.10011 0.0
C855 C 0.25559 0.19514 0.09247 0.0
H856 H 0.2681 0.2751 0.11673 0.0
C857 C 0.28806 0.1842 0.09629 0.0
H858 H 0.22433 0.23758 0.09678 0.0
C859 C 0.3133 0.20585 0.10802 0.0
C860 C 0.30642 0.2387 0.11628 0.0
H861 H 0.294 0.159 0.09016 0.0
H862 H 0.3381 0.19676 0.11108 0.0
C863 C 0.27412 0.24977 0.11149 0.0
C864 C 0.09193 0.07896 0.09313 0.0
C865 C 0.11622 0.06976 0.07073 0.0
H866 H 0.04009 0.07762 0.10446 0.0
C867 C 0.10844 0.04441 0.04801 0.0
H868 H 0.09742 0.09819 0.11112 0.0
C869 C 0.07547 0.0324 0.0444 0.0
C870 C 0.0504 0.04573 0.06353 0.0
H871 H 0.12671 0.03696 0.03041 0.0
H872 H 0.0691 0.0158 0.0243 0.0
C873 C 0.05913 0.06727 0.08932 0.0
C874 C 0.71629 0.47972 -0.0111 0.0
C875 C 0.71809 0.45173 0.0087 0.0
H876 H 0.68557 0.51644 0.96867 0.0
C877 C 0.68903 0.43952 0.02394 0.0
H878 H 0.73821 0.4898 0.97683 0.0
C879 C 0.65882 0.45484 0.01932 0.0
C880 C 0.65693 0.48272 -0.00068 0.0
H881 H 0.68956 0.41803 0.0394 0.0
H882 H 0.6369 0.44465 0.03131 0.0
C883 C 0.68607 0.49503 0.98424 0.0
C884 C 0.84157 0.37282 0.17741 0.0
C885 C 0.83945 0.40436 0.19153 0.0
H886 H 0.825 0.32204 0.17956 0.0
C887 C 0.81261 0.41081 0.21225 0.0
H888 H 0.86169 0.36731 0.16106 0.0
C889 C 0.79211 0.38476 0.22335 0.0
C890 C 0.79771 0.35253 0.21284 0.0
H891 H 0.81014 0.43499 0.22332 0.0
H892 H 0.77438 0.38932 0.24244 0.0
C893 C 0.8207 0.34696 0.18807 0.0
C894 C 0.84727 0.59906 0.493 0.0
C895 C 0.8224 0.59242 0.51605 0.0
H896 H 0.89377 0.58542 0.47313 0.0
C897 C 0.82628 0.5662 0.53781 0.0
H898 H 0.84505 0.61903 0.47587 0.0
C899 C 0.85448 0.54699 0.53643 0.0
C900 C 0.8791 0.55336 0.513 0.0
H901 H 0.80756 0.56053 0.55594 0.0
H902 H 0.85676 0.52691 0.55343 0.0
C903 C 0.87518 0.57966 0.49137 0.0
C904 C 0.22169 0.10001 0.19446 0.0
C905 C 0.19333 0.11259 0.17948 0.0
H906 H 0.2714 0.11094 0.2118 0.0
C907 C 0.19593 0.14344 0.16418 0.0
H908 H 0.22031 0.07641 0.20669 0.0
C909 C 0.22532 0.16274 0.16663 0.0
C910 C 0.2524 0.15155 0.1845 0.0
H911 H 0.17447 0.15373 0.15254 0.0
H912 H 0.22574 0.18769 0.15729 0.0
C913 C 0.25092 0.11966 0.19743 0.0
C914 C 0.40261 0.85432 0.51784 0.0
C915 C 0.37162 0.86907 0.51926 0.0
H916 H 0.45503 0.86125 0.51267 0.0
C917 C 0.37049 0.90379 0.51836 0.0
H918 H 0.40446 0.82769 0.51856 0.0
C919 C 0.39977 0.92323 0.51498 0.0
C920 C 0.43056 0.90821 0.51211 0.0
H921 H 0.34696 0.9159 0.51939 0.0
H922 H 0.39821 0.94986 0.51379 0.0
C923 C 0.43166 0.87362 0.51416 0.0
C924 C 0.83822 0.59026 0.22495 0.0
C925 C 0.82348 0.56073 0.23663 0.0
H926 H 0.83417 0.64218 0.21852 0.0
C927 C 0.79128 0.56124 0.24969 0.0
H928 H 0.86285 0.59071 0.21444 0.0
C929 C 0.77466 0.59095 0.25202 0.0
C930 C 0.78993 0.62069 0.24128 0.0
H931 H 0.77916 0.53884 0.25872 0.0
H932 H 0.75026 0.59073 0.26302 0.0
C933 C 0.82165 0.61983 0.22719 0.0
C934 C 0.72155 0.43678 0.6993 0.0
C935 C 0.72014 0.4606 0.72432 0.0
H936 H 0.73753 0.3888 0.68516 0.0
C937 C 0.73736 0.45567 0.75352 0.0
H938 H 0.70875 0.44021 0.67641 0.0
C939 C 0.75338 0.42616 0.75863 0.0
C940 C 0.75313 0.40151 0.73433 0.0
H941 H 0.73678 0.47369 0.77315 0.0
H942 H 0.76469 0.42198 0.78213 0.0
C943 C 0.73828 0.40757 0.70415 0.0
C944 C 0.95289 0.89787 0.94128 0.0
C945 C 0.92394 0.88309 0.92734 0.0
H946 H 0.97401 0.93681 0.97106 0.0
C947 C 0.89336 0.89822 0.93185 0.0
H948 H 0.97684 0.8868 0.93858 0.0
C949 C 0.89195 0.92754 0.95021 0.0
C950 C 0.92089 0.94129 0.96507 0.0
H951 H 0.87065 0.88725 0.92154 0.0
H952 H 0.86824 0.93892 0.95356 0.0
C953 C 0.95129 0.92634 0.96025 0.0
C954 C 0.91879 0.21906 0.69078 0.0
C955 C 0.9147 0.22295 0.65717 0.0
H956 H 0.90497 0.23505 0.73845 0.0
C957 C 0.89737 0.24996 0.64578 0.0
H958 H 0.93182 0.19815 0.70007 0.0
C959 C 0.8821 0.2713 0.66764 0.0
C960 C 0.88333 0.26563 0.70139 0.0
H961 H 0.89363 0.25323 0.61992 0.0
H962 H 0.86697 0.29049 0.6579 0.0
C963 C 0.90347 0.24036 0.71274 0.0
C964 C 0.47562 0.13294 0.47233 0.0
C965 C 0.50045 0.15253 0.45704 0.0
H966 H 0.46176 0.08554 0.49175 0.0
C967 C 0.53214 0.13983 0.45283 0.0
H968 H 0.45094 0.14205 0.47601 0.0
C969 C 0.53818 0.10743 0.46152 0.0
C970 C 0.51271 0.08706 0.47473 0.0
H971 H 0.55188 0.15431 0.44132 0.0
H972 H 0.56262 0.09809 0.45693 0.0
C973 C 0.48171 0.10046 0.48111 0.0
C974 C 0.5697 0.68184 0.23036 0.0
C975 C 0.55434 0.71059 0.21982 0.0
H976 H 0.61465 0.66097 0.24758 0.0
C977 C 0.57071 0.74143 0.22452 0.0
H978 H 0.55754 0.65767 0.22717 0.0
C979 C 0.60321 0.74324 0.23615 0.0
C980 C 0.62001 0.71422 0.2431 0.0
H981 H 0.55926 0.764 0.21711 0.0
H982 H 0.6158 0.76735 0.23783 0.0
C983 C 0.60246 0.68364 0.24187 0.0
C984 C 0.0569 0.20789 0.52755 0.0
C985 C 0.06982 0.21247 0.55901 0.0
H986 H 0.05508 0.17698 0.48516 0.0
C987 C 0.09733 0.19453 0.56872 0.0
H988 H 0.03574 0.22159 0.5196 0.0
C989 C 0.10829 0.16866 0.54902 0.0
C990 C 0.09184 0.16089 0.51956 0.0
H991 H 0.10756 0.1977 0.59302 0.0
H992 H 0.12604 0.15194 0.55898 0.0
C993 C 0.06836 0.18268 0.50766 0.0
C994 C 0.60433 0.27705 0.30644 0.0
C995 C 0.59884 0.26467 0.33786 0.0
H996 H 0.63919 0.28503 0.26785 0.0
C997 C 0.62589 0.25346 0.35576 0.0
H998 H 0.58396 0.28599 0.29207 0.0
C999 C 0.65747 0.25316 0.34203 0.0
C1000 C 0.66272 0.26381 0.30994 0.0
H1001 H 0.62256 0.2441 0.38015 0.0
H1002 H 0.67751 0.24343 0.35631 0.0
C1003 C 0.63598 0.27653 0.29255 0.0
C1004 C 0.45609 0.80567 0.04279 0.0
C1005 C 0.46634 0.80743 0.07549 0.0
H1006 H 0.44305 0.83252 0.00029 0.0
C1007 C 0.46842 0.83826 0.09144 0.0
H1008 H 0.45406 0.78215 0.02998 0.0
C1009 C 0.46112 0.86698 0.07467 0.0
C1010 C 0.45235 0.86535 0.04154 0.0
H1011 H 0.47579 0.84018 0.11677 0.0
H1012 H 0.464 0.8906 0.08722 0.0
C1013 C 0.44952 0.83441 0.02587 0.0
C1014 C 0.91177 0.71764 0.79832 0.0
C1015 C 0.93148 0.74638 0.80453 0.0
H1016 H 0.88252 0.69071 0.76294 0.0
C1017 C 0.94584 0.7635 0.77826 0.0
H1018 H 0.90181 0.70294 0.81814 0.0
C1019 C 0.93439 0.75638 0.74671 0.0
C1020 C 0.90729 0.73385 0.74235 0.0
H1021 H 0.96241 0.7849 0.78231 0.0
H1022 H 0.941 0.77365 0.72764 0.0
C1023 C 0.90163 0.71004 0.76648 0.0
C1024 C 0.94698 0.08914 0.86008 0.0
C1025 C 0.97206 0.06765 0.85092 0.0
H1026 H 0.92058 0.11024 0.8997 0.0
C1027 C 0.99559 0.05847 0.87415 0.0
H1028 H 0.92887 0.09727 0.84261 0.0
C1029 C 0.99133 0.06687 0.90678 0.0
C1030 C 0.96319 0.0839 0.91633 0.0
H1031 H 0.01549 0.0424 0.86764 0.0
H1032 H 0.00784 0.0568 0.92474 0.0
C1033 C 0.94224 0.09675 0.89272 0.0
C1034 C 0.73137 0.23099 0.60053 0.0
C1035 C 0.74553 0.19996 0.59674 0.0
H1036 H 0.72067 0.2706 0.6334 0.0
C1037 C 0.75691 0.18333 0.62408 0.0
H1038 H 0.72247 0.24424 0.57964 0.0
C1039 C 0.75464 0.19783 0.65485 0.0
C1040 C 0.74194 0.22955 0.65842 0.0
H1041 H 0.76769 0.15929 0.62163 0.0
H1042 H 0.76446 0.18503 0.67562 0.0
C1043 C 0.73014 0.24597 0.63113 0.0
C1044 C 0.52144 0.96857 0.33688 0.0
C1045 C 0.55107 0.9607 0.32129 0.0
H1046 H 0.49459 0.96764 0.3815 0.0
C1047 C 0.57215 0.93803 0.33579 0.0
H1048 H 0.50442 0.98542 0.32594 0.0
C1049 C 0.56628 0.92763 0.36759 0.0
C1050 C 0.53919 0.93961 0.38471 0.0
H1051 H 0.59501 0.93126 0.3241 0.0
H1052 H 0.58502 0.91379 0.37998 0.0
C1053 C 0.51553 0.95801 0.36846 0.0
C1054 C 0.80116 0.79359 0.10907 0.0
C1055 C 0.77281 0.79735 0.08934 0.0
H1056 H 0.82056 0.77586 0.15401 0.0
C1057 C 0.74229 0.7831 0.09912 0.0
H1058 H 0.82517 0.8041 0.10203 0.0
C1059 C 0.73982 0.76654 0.12857 0.0
C1060 C 0.76776 0.76416 0.14913 0.0
H1061 H 0.72015 0.7851 0.08427 0.0
H1062 H 0.71561 0.75657 0.13567 0.0
C1063 C 0.79863 0.77721 0.13875 0.0
C1064 C 0.99451 0.05871 0.66194 0.0
C1065 C -0.00125 0.03095 0.6814 0.0
H1066 H 0.00494 0.08211 0.61682 0.0
C1067 C 0.01929 0.00577 0.67047 0.0
H1068 H 0.97914 0.07864 0.66989 0.0
C1069 C 0.03397 0.00757 0.63988 0.0
C1070 C 0.02865 0.03476 0.61988 0.0
H1071 H 0.02313 0.98409 0.68506 0.0
H1072 H 0.0487 0.98729 0.63159 0.0
C1073 C 0.00948 0.0607 0.63158 0.0
C1074 C 0.82477 0.21261 0.4203 0.0
C1075 C 0.79757 0.22478 0.43725 0.0
H1076 H 0.85094 0.21306 0.37521 0.0
C1077 C 0.78303 0.25383 0.42656 0.0
H1078 H 0.83676 0.19054 0.42829 0.0
C1079 C 0.79199 0.26734 0.39667 0.0
C1080 C 0.81495 0.25141 0.3771 0.0
H1081 H 0.76252 0.26417 0.43968 0.0
H1082 H 0.77735 0.28692 0.38688 0.0
C1083 C 0.83331 0.22583 0.39016 0.0
C1084 C 0.56873 0.00027 0.12982 0.0
C1085 C 0.54995 0.01086 0.15623 0.0
H1086 H 0.56955 0.98961 0.07897 0.0
C1087 C 0.51687 0.01973 0.15131 0.0
H1088 H 0.59435 0.99355 0.13304 0.0
C1089 C 0.50244 0.01699 0.12044 0.0
C1090 C 0.52122 0.00622 0.09404 0.0
H1091 H 0.50193 0.02794 0.17145 0.0
H1092 H 0.47664 0.0231 0.11725 0.0
C1093 C 0.5546 -0.00166 0.09889 0.0
C1094 C 0.75441 0.78201 0.90248 0.0
C1095 C 0.7832 0.79106 0.92047 0.0
H1096 H 0.73483 0.76275 0.85724 0.0
C1097 C 0.81438 0.78216 0.9086 0.0
H1098 H 0.73003 0.7881 0.91122 0.0
C1099 C 0.81703 0.76766 0.87798 0.0
C1100 C 0.78859 0.76133 0.85882 0.0
H1101 H 0.83708 0.78817 0.92205 0.0
H1102 H 0.84154 0.76359 0.86831 0.0
C1103 C 0.7571 0.76702 0.87185 0.0
C1104 C 0.79944 0.96801 0.98132 0.0
C1105 C 0.79067 0.94842 0.00794 0.0
H1106 H 0.82036 0.01415 0.96542 0.0
C1107 C 0.79066 0.96242 0.03922 0.0
H1108 H 0.79956 0.95742 0.95702 0.0
C1109 C 0.80299 0.9948 0.04431 0.0
C1110 C 0.81554 0.01338 0.01809 0.0
H1111 H 0.78392 0.94742 0.06002 0.0
H1112 H 0.80566 0.00403 0.06904 0.0
C1113 C 0.81124 0.00053 0.98628 0.0
C1114 C 0.37002 0.5729 0.92454 0.0
C1115 C 0.35624 0.58692 0.95275 0.0
H1116 H 0.4123 0.54997 0.90325 0.0
C1117 C 0.37382 0.58535 0.98215 0.0
H1118 H 0.35694 0.5735 0.90149 0.0
C1119 C 0.40512 0.57179 0.98309 0.0
C1120 C 0.41985 0.55945 0.95467 0.0
H1121 H 0.36385 0.59543 0.00438 0.0
H1122 H 0.41832 0.57197 0.00614 0.0
C1123 C 0.40159 0.55921 0.9255 0.0
C1124 C 0.14444 0.61897 0.81501 0.0
C1125 C 0.1478 0.59232 0.79339 0.0
H1126 H 0.15985 0.66832 0.82802 0.0
C1127 C 0.17321 0.59374 0.77015 0.0
H1128 H 0.12506 0.61832 0.83321 0.0
C1129 C 0.19289 0.6228 0.76662 0.0
C1130 C 0.18757 0.65059 0.78656 0.0
H1131 H 0.17603 0.57351 0.75305 0.0
H1132 H 0.21085 0.62411 0.74713 0.0
C1133 C 0.1643 0.64768 0.81184 0.0
C1134 C 0.15098 0.4198 0.4676 0.0
C1135 C 0.15044 0.38513 0.47019 0.0
H1136 H 0.12327 0.46395 0.47011 0.0
C1137 C 0.11992 0.36814 0.47555 0.0
H1138 H 0.17413 0.43367 0.46363 0.0
C1139 C 0.09061 0.38553 0.47864 0.0
C1140 C 0.09141 0.4203 0.47721 0.0
H1141 H 0.11872 0.34145 0.47763 0.0
H1142 H 0.06751 0.3718 0.48322 0.0
C1143 C 0.12187 0.43721 0.47144 0.0
C1144 C 0.8699 0.92546 0.791 0.0
C1145 C 0.87188 0.94949 0.76685 0.0
H1146 H 0.84821 0.87939 0.80587 0.0
C1147 C 0.84957 0.94748 0.74036 0.0
H1148 H 0.88635 0.92688 0.81197 0.0
C1149 C 0.82782 0.9198 0.73647 0.0
C1150 C 0.82812 0.89431 0.75932 0.0
H1151 H 0.85062 0.96603 0.72154 0.0
H1152 H 0.81278 0.91723 0.71461 0.0
C1153 C 0.84797 0.89837 0.78747 0.0
C1154 C 0.69076 0.06256 0.46238 0.0
C1155 C 0.7092 0.07237 0.48992 0.0
H1156 H 0.65265 0.03037 0.44274 0.0
C1157 C 0.70669 0.05353 0.51837 0.0
H1158 H 0.69261 0.07668 0.44018 0.0
C1159 C 0.68293 0.02747 0.5204 0.0
C1160 C 0.66201 0.01969 0.49373 0.0
H1161 H 0.72082 0.06086 0.53993 0.0
H1162 H 0.67925 0.01528 0.54349 0.0
C1163 C 0.66787 0.03599 0.46404 0.0
C1164 C 0.15833 0.39802 0.79886 0.0
C1165 C 0.15824 0.41458 0.76887 0.0
H1166 H 0.17079 0.35403 0.82453 0.0
C1167 C 0.17341 0.39981 0.74202 0.0
H1168 H 0.14702 0.40885 0.82009 0.0
C1169 C 0.18664 0.36852 0.74454 0.0
C1170 C 0.18558 0.35134 0.77409 0.0
H1171 H 0.17396 0.41183 0.71862 0.0
H1172 H 0.19697 0.35733 0.72299 0.0
C1173 C 0.17214 0.36677 0.80152 0.0
C1174 C 0.33567 0.63194 0.21934 0.0
C1175 C 0.32661 0.60255 0.23539 0.0
H1176 H 0.32278 0.6811 0.2077 0.0
C1177 C 0.2955 0.60006 0.25095 0.0
H1178 H 0.35928 0.63474 0.20695 0.0
C1179 C 0.27439 0.62692 0.25126 0.0
C1180 C 0.28443 0.65675 0.23653 0.0
H1181 H 0.28774 0.57764 0.2634 0.0
H1182 H 0.25089 0.62476 0.2639 0.0
C1183 C 0.3149 0.65869 0.22005 0.0
C1184 C 0.47133 0.62543 0.63221 0.0
C1185 C 0.49065 0.65349 0.62339 0.0
H1186 H 0.44401 0.58201 0.61625 0.0
C1187 C 0.49583 0.66003 0.5903 0.0
H1188 H 0.4663 0.62014 0.65752 0.0
C1189 C 0.48308 0.63801 0.5665 0.0
C1190 C 0.46413 0.60967 0.57543 0.0
H1191 H 0.51025 0.68179 0.58287 0.0
H1192 H 0.48866 0.64272 0.5412 0.0
C1193 C 0.45789 0.60398 0.6085 0.0
C1194 C 0.60838 0.30602 0.82472 0.0
C1195 C 0.58815 0.27702 0.82587 0.0
H1196 H 0.65633 0.32783 0.815 0.0
C1197 C 0.60172 0.24688 0.81624 0.0
H1198 H 0.59889 0.32968 0.83196 0.0
C1199 C 0.63501 0.24578 0.80635 0.0
C1200 C 0.65546 0.27476 0.80621 0.0
H1201 H 0.58683 0.22403 0.81691 0.0
H1202 H 0.64486 0.2222 0.79941 0.0
C1203 C 0.64155 0.3049 0.81518 0.0
C1204 C 0.99532 0.39744 0.11288 0.0
C1205 C 0.02568 0.38402 0.12124 0.0
H1206 H 0.97144 0.43776 0.09071 0.0
C1207 C 0.05521 0.40331 0.11904 0.0
H1208 H 0.9724 0.38255 0.11398 0.0
C1209 C 0.05486 0.43468 0.10556 0.0
C1210 C 0.02497 0.44678 0.09365 0.0
H1211 H 0.07891 0.39295 0.12507 0.0
H1212 H 0.07828 0.44828 0.10229 0.0
C1213 C 0.99495 0.42874 0.09908 0.0
C1214 C 0.90947 0.74684 0.33835 0.0
C1215 C 0.90535 0.7534 0.37174 0.0
H1216 H 0.88638 0.74305 0.29127 0.0
C1217 C 0.87431 0.76313 0.38285 0.0
H1218 H 0.93322 0.73946 0.32902 0.0
C1219 C 0.8478 0.76584 0.36121 0.0
C1220 C 0.85151 0.75842 0.32793 0.0
H1221 H 0.87044 0.76878 0.40832 0.0
H1222 H 0.82408 0.77289 0.3709 0.0
C1223 C 0.88273 0.74912 0.31668 0.0
C1224 C 0.50257 0.35191 0.97208 0.0
C1225 C 0.50518 0.34015 0.93996 0.0
H1226 H 0.50481 0.39411 0.00407 0.0
C1227 C 0.51263 0.36271 0.91509 0.0
H1228 H 0.49672 0.33506 -0.00829 0.0
C1229 C 0.51641 0.39645 0.92202 0.0
C1230 C 0.51341 0.4083 0.95405 0.0
H1231 H 0.51439 0.35447 0.89005 0.0
H1232 H 0.52182 0.41324 0.90224 0.0
C1233 C 0.50702 0.38567 0.97912 0.0
C1234 C 0.94208 0.20149 0.20631 0.0
C1235 C 0.96311 0.22865 0.21543 0.0
H1236 H 0.89342 0.17844 0.20975 0.0
C1237 C 0.95309 0.2499 0.24031 0.0
H1238 H 0.94921 0.18456 0.18724 0.0
C1239 C 0.92135 0.24612 0.25349 0.0
C1240 C 0.89875 0.22136 0.24163 0.0
H1241 H 0.96896 0.27075 0.24811 0.0
H1242 H 0.91376 0.26425 0.27125 0.0
C1243 C 0.91004 0.19796 0.21919 0.0
C1244 C 0.0211 0.65338 0.49658 0.0
C1245 C 0.02366 0.6658 0.46488 0.0
H1246 H 0.02179 0.61038 0.52657 0.0
C1247 C 0.03476 0.64509 0.43986 0.0
H1248 H 0.01285 0.66889 0.51634 0.0
C1249 C 0.03939 0.61162 0.44565 0.0
C1250 C 0.0341 0.59865 0.47674 0.0
H1251 H 0.03701 0.65397 0.41518 0.0
H1252 H 0.0445 0.59537 0.42533 0.0
C1253 C 0.02669 0.62006 0.50253 0.0
C1254 C 0.61638 0.74231 0.75815 0.0
C1255 C 0.59877 0.75728 0.73312 0.0
H1256 H 0.6629 0.73887 0.78284 0.0
C1257 C 0.61372 0.78445 0.71688 0.0
H1258 H 0.6054 0.72174 0.77149 0.0
C1259 C 0.64671 0.79443 0.7235 0.0
C1260 C 0.66524 0.7773 0.74637 0.0
H1261 H 0.6006 0.79687 0.69775 0.0
H1262 H 0.65834 0.81374 0.70895 0.0
C1263 C 0.64928 0.75227 0.76474 0.0
C1264 C 0.51772 0.50916 0.65797 0.0
C1265 C 0.55052 0.50127 0.65063 0.0
H1266 H 0.46642 0.50247 0.64542 0.0
C1267 C 0.55622 0.47505 0.62907 0.0
H1268 H 0.51261 0.52845 0.6755 0.0
C1269 C 0.52963 0.45998 0.61182 0.0
C1270 C 0.49714 0.47107 0.61605 0.0
H1271 H 0.58132 0.468 0.62366 0.0
H1272 H 0.5351 0.44238 0.59274 0.0
C1273 C 0.4912 0.49379 0.64121 0.0
C1274 C 0.85156 0.32974 0.92733 0.0
C1275 C 0.83029 0.35248 0.94176 0.0
H1276 H 0.86199 0.30028 0.88506 0.0
C1277 C 0.80485 0.36545 0.92287 0.0
H1278 H 0.87147 0.31934 0.94129 0.0
C1279 C 0.79954 0.35469 0.89096 0.0
C1280 C 0.81944 0.33051 0.87698 0.0
H1281 H 0.78829 0.38332 0.93302 0.0
H1282 H 0.77905 0.36474 0.87756 0.0
C1283 C 0.84616 0.3188 0.89516 0.0
C1284 C 0.97664 0.54911 0.15657 0.0
C1285 C 0.98645 0.51707 0.16376 0.0
H1286 H 0.98873 0.59485 0.13354 0.0
C1287 C 0.01815 0.50734 0.15427 0.0
H1288 H 0.95263 0.55766 0.16402 0.0
C1289 C 0.03905 0.52888 0.13669 0.0
C1290 C 0.02826 0.56019 0.12773 0.0
H1291 H 0.02673 0.48307 0.16025 0.0
H1292 H 0.06327 0.52071 0.12952 0.0
C1293 C 0.9974 0.57049 0.13905 0.0
C1294 C 0.72841 0.69358 0.43517 0.0
C1295 C 0.70038 0.67331 0.44211 0.0
H1296 H 0.75426 0.72242 0.39934 0.0
C1297 C 0.67623 0.66654 0.41802 0.0
H1298 H 0.74709 0.69929 0.45367 0.0
C1299 C 0.68078 0.67902 0.38679 0.0
C1300 C 0.70876 0.69945 0.37998 0.0
H1301 H 0.6544 0.65102 0.42316 0.0
H1302 H 0.66253 0.67282 0.36802 0.0
C1303 C 0.7323 0.70703 0.40439 0.0
C1304 C 0.60601 0.58177 0.81464 0.0
C1305 C 0.60437 0.55396 0.79391 0.0
H1306 H 0.59625 0.60087 0.86239 0.0
C1307 C 0.59066 0.52388 0.80523 0.0
H1308 H 0.6164 0.60524 0.80624 0.0
C1309 C 0.5781 0.52177 0.83662 0.0
C1310 C 0.57998 0.54942 0.85747 0.0
H1311 H 0.5888 0.50223 0.78952 0.0
H1312 H 0.56744 0.49832 0.84479 0.0
C1313 C 0.59444 0.57934 0.84652 0.0
C1314 C 0.8041 0.27009 0.1026 0.0
C1315 C 0.78704 0.29916 0.09691 0.0
H1316 H 0.8073 0.22622 0.13065 0.0
C1317 C 0.75642 0.30349 0.11233 0.0
H1318 H 0.82737 0.26561 0.09051 0.0
C1319 C 0.74476 0.28072 0.13538 0.0
C1320 C 0.76353 0.25324 0.14336 0.0
H1321 H 0.74246 0.32543 0.1081 0.0
H1322 H 0.72243 0.28614 0.1487 0.0
C1323 C 0.79236 0.24727 0.12539 0.0
C1324 C 0.92123 0.48067 0.33522 0.0
C1325 C 0.9348 0.45591 0.31581 0.0
H1326 H 0.91743 0.50203 0.38253 0.0
C1327 C 0.9534 0.43139 0.33073 0.0
H1328 H 0.90645 0.49971 0.32467 0.0
C1329 C 0.95951 0.43259 0.36429 0.0
C1330 C 0.94733 0.45848 0.38323 0.0
H1331 H 0.96392 0.4118 0.31642 0.0
H1332 H 0.97493 0.41422 0.3751 0.0
C1333 C 0.92749 0.48198 0.36847 0.0
C1334 C 0.7714 0.71913 0.59729 0.0
C1335 C 0.73702 0.71971 0.59139 0.0
H1336 H 0.81379 0.74277 0.62016 0.0
C1337 C 0.71968 0.74764 0.60102 0.0
H1338 H 0.78564 0.69834 0.58944 0.0
C1339 C 0.73587 0.77336 0.6183 0.0
C1340 C 0.76973 0.7716 0.62651 0.0
H1341 H 0.6933 0.74921 0.59614 0.0
H1342 H 0.72134 0.79363 0.62696 0.0
C1343 C 0.78765 0.74494 0.61445 0.0
C1344 C 0.61299 0.55419 0.56942 0.0
C1345 C 0.63842 0.56147 0.54718 0.0
H1346 H 0.56491 0.53104 0.57649 0.0
C1347 C 0.63774 0.54577 0.5165 0.0
H1348 H 0.6129 0.56631 0.59304 0.0
C1349 C 0.60978 0.52666 0.50662 0.0
C1350 C 0.58307 0.52199 0.52787 0.0
H1351 H 0.65687 0.55148 0.49877 0.0
H1352 H 0.60791 0.51785 0.48169 0.0
C1353 C 0.58563 0.5341 0.55993 0.0
C1354 C 0.19842 0.93593 0.53297 0.0
C1355 C 0.22165 0.93832 0.50771 0.0
H1356 H 0.15588 0.95596 0.55539 0.0
C1357 C 0.22173 0.96613 0.48746 0.0
H1358 H 0.1981 0.91517 0.54942 0.0
C1359 C 0.1973 0.98972 0.49085 0.0
C1360 C 0.17254 0.98591 0.51466 0.0
H1361 H 0.23955 0.96879 0.46795 0.0
H1362 H 0.19666 0.00976 0.47362 0.0
C1363 C 0.17428 0.95949 0.5365 0.0
C1364 C 0.27418 0.93009 0.69918 0.0
C1365 C 0.2983 0.91796 0.6779 0.0
H1366 H 0.23352 0.91677 0.73041 0.0
C1367 C 0.29193 0.8875 0.66202 0.0
H1368 H 0.27795 0.9538 0.71133 0.0
C1369 C 0.26535 0.86695 0.67197 0.0
C1370 C 0.24571 0.87651 0.6983 0.0
H1371 H 0.30979 0.87778 0.64516 0.0
H1372 H 0.26347 0.84181 0.66257 0.0
C1373 C 0.2485 0.90901 0.7101 0.0
C1374 C 0.31107 0.04841 0.97277 0.0
C1375 C 0.29484 0.05258 0.00256 0.0
H1376 H 0.35352 0.03126 0.9479 0.0
C1377 C 0.30955 0.04016 0.0309 0.0
H1378 H 0.30052 0.05743 0.95041 0.0
C1379 C 0.34033 0.02482 0.02945 0.0
C1380 C 0.35705 0.02191 -0.00031 0.0
H1381 H 0.29769 0.04292 0.05428 0.0
H1382 H 0.35142 0.01615 0.05169 0.0
C1383 C 0.34168 0.03343 0.97137 0.0
C1384 C 0.70449 0.64324 0.65725 0.0
C1385 C 0.70451 0.61289 0.67349 0.0
H1386 H 0.726 0.69233 0.65457 0.0
C1387 C 0.73062 0.6067 0.69527 0.0
H1388 H 0.68469 0.64863 0.64036 0.0
C1389 C 0.75363 0.63192 0.70391 0.0
C1390 C 0.75162 0.66315 0.68992 0.0
H1391 H 0.7313 0.58355 0.70823 0.0
H1392 H 0.77162 0.62769 0.72299 0.0
C1393 C 0.72816 0.66816 0.66525 0.0
C1394 C 0.89942 0.46384 0.09361 0.0
C1395 C 0.87013 0.46122 0.07481 0.0
H1396 H 0.94306 0.49352 0.10567 0.0
C1397 C 0.85854 0.48971 0.05983 0.0
H1398 H 0.90867 0.44238 0.10579 0.0
C1399 C 0.87838 0.51881 0.05954 0.0
C1400 C 0.90958 0.52011 0.075 0.0
H1401 H 0.83597 0.48852 0.0453 0.0
H1402 H 0.87103 0.53898 0.04427 0.0
C1403 C 0.91883 0.49329 0.09403 0.0
C1404 C 0.32027 0.08744 0.72974 0.0
C1405 C 0.30686 0.05755 0.74186 0.0
H1406 H 0.31361 0.13882 0.72203 0.0
C1407 C 0.27474 0.05694 0.75526 0.0
H1408 H 0.34482 0.08874 0.71905 0.0
C1409 C 0.25662 0.08579 0.75688 0.0
C1410 C 0.27029 0.1158 0.74515 0.0
H1411 H 0.26359 0.03422 0.76463 0.0
H1412 H 0.23218 0.08465 0.7678 0.0
C1413 C 0.30223 0.11617 0.73133 0.0
C1414 C 0.16429 0.92851 0.18281 0.0
C1415 C 0.18061 0.95142 0.20401 0.0
H1416 H 0.16079 0.87823 0.16538 0.0
C1417 C 0.20857 0.94163 0.22155 0.0
H1418 H 0.14281 0.93543 0.16881 0.0
C1419 C 0.21859 0.90901 0.21968 0.0
C1420 C 0.20141 0.88588 0.1996 0.0
H1421 H 0.2217 0.95868 0.23804 0.0
H1422 H 0.23887 0.90144 0.23502 0.0
C1423 C 0.17476 0.89596 0.1805 0.0
C1424 C 0.43989 0.34381 0.42488 0.0
C1425 C 0.46999 0.32728 0.42496 0.0
H1426 H 0.41528 0.38846 0.43645 0.0
C1427 C 0.49929 0.34439 0.43517 0.0
H1428 H 0.41699 0.33127 0.41683 0.0
C1429 C 0.49822 0.37685 0.44673 0.0
C1430 C 0.46798 0.39305 0.44761 0.0
H1431 H 0.52286 0.33231 0.43541 0.0
H1432 H 0.52096 0.38905 0.45567 0.0
C1433 C 0.43896 0.37658 0.43579 0.0
C1434 C 0.3711 0.74176 0.14183 0.0
C1435 C 0.38783 0.72428 0.16584 0.0
H1436 H 0.33126 0.77384 0.13121 0.0
C1437 C 0.37821 0.72703 0.19832 0.0
H1438 H 0.37904 0.74074 0.11673 0.0
C1439 C 0.3523 0.74726 0.20682 0.0
C1440 C 0.33502 0.76443 0.18283 0.0
H1441 H 0.39158 0.71459 0.21728 0.0
H1442 H 0.34526 0.74867 0.23216 0.0
C1443 C 0.34441 0.7612 0.15018 0.0
C1444 C 0.94632 0.70845 0.98476 0.0
C1445 C 0.96904 0.72537 0.96443 0.0
H1446 H 0.93731 0.66636 0.01515 0.0
C1447 C 0.00191 0.71507 0.96267 0.0
H1448 H 0.92089 0.71608 0.98682 0.0
C1449 C 0.01104 0.68657 0.97843 0.0
C1450 C 0.98765 0.66822 -0.00335 0.0
H1451 H 0.02011 0.72776 0.94749 0.0
H1452 H 0.03607 0.67814 0.97526 0.0
C1453 C 0.95567 0.6801 0.001 0.0
C1454 C 0.05163 0.18815 0.71178 0.0
C1455 C 0.03712 0.21885 0.71707 0.0
H1456 H 0.09431 0.15937 0.72111 0.0
C1457 C 0.04713 0.23806 0.74416 0.0
H1458 H 0.04425 0.17287 0.69099 0.0
C1459 C 0.07539 0.23002 0.76165 0.0
C1460 C 0.09402 0.20301 0.75186 0.0
H1461 H 0.03614 0.26169 0.74883 0.0
H1462 H 0.08543 0.24769 0.77947 0.0
C1463 C 0.08034 0.18033 0.72905 0.0
C1464 C 0.52611 0.67631 0.04052 0.0
C1465 C 0.52834 0.66083 0.07076 0.0
H1466 H 0.53787 0.67374 -0.01012 0.0
C1467 C 0.54987 0.63469 0.07466 0.0
H1468 H 0.51017 0.69703 0.03725 0.0
C1469 C 0.56721 0.62265 0.04804 0.0
C1470 C 0.56203 0.63571 0.01696 0.0
H1471 H 0.55266 0.62308 0.09809 0.0
H1472 H 0.58183 0.60095 0.05123 0.0
C1473 C 0.54247 0.66351 0.01366 0.0
C1474 C 0.08618 0.81765 0.85149 0.0
C1475 C 0.05821 0.82532 0.83298 0.0
H1476 H 0.13649 0.80314 0.8513 0.0
C1477 C 0.06112 0.82783 0.79902 0.0
H1478 H 0.0848 0.81592 0.87772 0.0
C1479 C 0.09085 0.8202 0.78368 0.0
C1480 C 0.11804 0.81006 0.80213 0.0
H1481 H 0.03993 0.83377 0.78412 0.0
H1482 H 0.09195 0.82067 0.75739 0.0
C1483 C 0.11578 0.81017 0.83625 0.0
C1484 C 0.94827 0.35732 0.60934 0.0
C1485 C 0.95257 0.32628 0.59502 0.0
H1486 H 0.93995 0.40832 0.60149 0.0
C1487 C 0.94535 0.32142 0.56185 0.0
H1488 H 0.95383 0.36147 0.63489 0.0
C1489 C 0.93852 0.34845 0.54232 0.0
C1490 C 0.93799 0.38034 0.55605 0.0
H1491 H 0.94878 0.29758 0.55036 0.0
H1492 H 0.93667 0.34485 0.51623 0.0
C1493 C 0.94029 0.38408 0.59008 0.0
C1494 C 0.42494 0.17765 0.30055 0.0
C1495 C 0.45219 0.19945 0.30708 0.0
H1496 H 0.38434 0.16583 0.2683 0.0
C1497 C 0.46561 0.21886 0.28195 0.0
H1498 H 0.41467 0.16191 0.31944 0.0
C1499 C 0.44807 0.22127 0.25283 0.0
C1500 C 0.41751 0.20385 0.24872 0.0
H1501 H 0.48694 0.23551 0.28627 0.0
H1502 H 0.4558 0.2402 0.23571 0.0
C1503 C 0.4079 0.17948 0.27109 0.0
C1504 C 0.47929 0.5747 0.35042 0.0
C1505 C 0.44996 0.56903 0.33224 0.0
H1506 H 0.50225 0.57318 0.39734 0.0
C1507 C 0.41958 0.56435 0.34846 0.0
H1508 H 0.50297 0.57853 0.33836 0.0
C1509 C 0.41927 0.56038 0.38209 0.0
C1510 C 0.4492 0.562 0.39984 0.0
H1511 H 0.39661 0.5599 0.33496 0.0
H1512 H 0.39603 0.55344 0.39382 0.0
C1513 C 0.47885 0.57159 0.38415 0.0
C1514 C 0.19557 0.7101 0.05706 0.0
C1515 C 0.2173 0.68378 0.0541 0.0
H1516 H 0.17287 0.7446 0.08915 0.0
C1517 C 0.22985 0.66935 0.0822 0.0
H1518 H 0.18558 0.72171 0.03568 0.0
C1519 C 0.2214 0.68166 0.11282 0.0
C1520 C 0.20115 0.70916 0.11561 0.0
H1521 H 0.24643 0.64893 0.08048 0.0
H1522 H 0.23242 0.67102 0.13421 0.0
C1523 C 0.18803 0.72307 0.08754 0.0
C1524 C 0.03232 0.47844 0.88293 0.0
C1525 C 0.01581 0.4956 0.8585 0.0
H1526 H 0.03719 0.47084 0.9342 0.0
C1527 C 0.98604 0.51105 0.86611 0.0
H1528 H 0.05513 0.46606 0.87774 0.0
C1529 C 0.97611 0.51409 0.89831 0.0
C1530 C 0.99527 0.50091 0.92316 0.0
H1531 H 0.97229 0.52387 0.84769 0.0
H1532 H 0.95544 0.52951 0.90403 0.0
C1533 C 0.02194 0.48099 0.91522 0.0
C1534 C 0.26228 0.24073 0.5936 0.0
C1535 C 0.23822 0.25821 0.57652 0.0
H1536 H 0.27817 0.22204 0.63934 0.0
C1537 C 0.20898 0.26659 0.59259 0.0
H1538 H 0.28503 0.2336 0.58194 0.0
C1539 C 0.20504 0.25978 0.62564 0.0
C1540 C 0.2304 0.24473 0.64325 0.0
H1541 H 0.18995 0.27998 0.58017 0.0
H1542 H 0.18282 0.26778 0.63768 0.0
C1543 C 0.25852 0.23428 0.62663 0.0
C1544 C 0.48073 0.56885 0.13381 0.0
C1545 C 0.49342 0.54732 0.15696 0.0
H1546 H 0.48118 0.58405 0.0841 0.0
C1547 C 0.51921 0.52655 0.14802 0.0
H1548 H 0.46106 0.58529 0.14005 0.0
C1549 C 0.53023 0.52539 0.11605 0.0
C1550 C 0.51619 0.54543 0.09249 0.0
H1551 H 0.52975 0.50977 0.16529 0.0
H1552 H 0.54905 0.50806 0.10957 0.0
C1553 C 0.49226 0.56811 0.10184 0.0
C1554 C 0.27552 0.76839 0.91643 0.0
C1555 C 0.28856 0.73678 0.91327 0.0
H1556 H 0.26044 0.81105 0.89087 0.0
C1557 C 0.30827 0.72965 0.88633 0.0
H1558 H 0.26079 0.77463 0.93744 0.0
C1559 C 0.3087 0.7511 0.85987 0.0
C1560 C 0.28886 0.77899 0.86038 0.0
H1561 H 0.31881 0.70554 0.88354 0.0
H1562 H 0.31917 0.74262 0.83718 0.0
C1563 C 0.2757 0.78955 0.88993 0.0
C1564 C 0.01098 0.51465 0.67543 0.0
C1565 C 0.04249 0.50474 0.68542 0.0
H1566 H 0.97684 0.51994 0.63614 0.0
C1567 C 0.06396 0.4913 0.66248 0.0
H1568 H 0.9939 0.52499 0.69271 0.0
C1569 C 0.05439 0.48901 0.62971 0.0
C1570 C 0.02298 0.49949 0.61972 0.0
H1571 H 0.08846 0.48372 0.66965 0.0
H1572 H 0.0715 0.47906 0.61224 0.0
C1573 C 0.00123 0.51179 0.64302 0.0
C1574 C 0.2502 0.27585 0.37907 0.0
C1575 C 0.27698 0.28039 0.40096 0.0
H1576 H 0.235 0.26547 0.32976 0.0
C1577 C 0.30952 0.27663 0.3895 0.0
H1578 H 0.22486 0.27848 0.38717 0.0
C1579 C 0.3153 0.2696 0.35686 0.0
C1580 C 0.2887 0.26566 0.3348 0.0
H1581 H 0.33081 0.27993 0.40561 0.0
H1582 H 0.34075 0.26758 0.34884 0.0
C1583 C 0.256 0.26825 0.34628 0.0
C1584 C 0.29658 0.42833 0.49459 0.0
C1585 C 0.29828 0.40463 0.51911 0.0
H1586 H 0.31864 0.47288 0.47524 0.0
C1587 C 0.31725 0.41171 0.54718 0.0
H1588 H 0.28196 0.42328 0.47278 0.0
C1589 C 0.3373 0.44051 0.54911 0.0
C1590 C 0.33947 0.46184 0.52243 0.0
H1591 H 0.31854 0.39377 0.56648 0.0
H1592 H 0.35402 0.44381 0.56973 0.0
C1593 C 0.31743 0.4567 0.49606 0.0
C1594 C 0.88352 0.07988 0.4621 0.0
C1595 C 0.87202 0.0955 0.4905 0.0
H1596 H 0.92416 0.05621 0.4387 0.0
C1597 C 0.89267 0.09731 0.51801 0.0
H1598 H 0.86806 0.07796 0.44048 0.0
C1599 C 0.92444 0.08491 0.51694 0.0
C1600 C 0.93659 0.07034 0.48831 0.0
H1601 H 0.88458 0.10885 0.54033 0.0
H1602 H 0.93974 0.0873 0.53866 0.0
C1603 C 0.91556 0.06731 0.46103 0.0
C1604 C 0.67394 0.1 0.28782 0.0
C1605 C 0.67207 0.07796 0.26148 0.0
H1606 H 0.69996 0.14063 0.31047 0.0
C1607 C 0.69753 0.07854 0.2382 0.0
H1608 H 0.65484 0.0996 0.30629 0.0
C1609 C 0.72334 0.10269 0.24003 0.0
C1610 C 0.72429 0.12593 0.26563 0.0
H1611 H 0.69651 0.0615 0.2177 0.0
H1612 H 0.74164 0.10399 0.22083 0.0
C1613 C 0.70002 0.12337 0.29017 0.0
C1614 C 0.6393 0.9042 -0.00817 0.0
C1615 C 0.64478 0.87848 0.96954 0.0
H1616 H 0.60737 0.94238 0.00726 0.0
C1617 C 0.62095 0.87163 0.94498 0.0
H1618 H 0.65736 0.9104 0.01077 0.0
C1619 C 0.59189 0.88972 0.94325 0.0
C1620 C 0.58667 0.91573 0.96536 0.0
H1621 H 0.62463 0.85208 0.92733 0.0
H1622 H 0.5736 0.88348 0.92454 0.0
C1623 C 0.61084 0.92285 -0.01048 0.0
C1624 C 0.396 0.41596 0.25611 0.0
C1625 C 0.38628 0.44275 0.23741 0.0
H1626 H 0.38934 0.3648 0.26642 0.0
C1627 C 0.35975 0.43816 0.21521 0.0
H1628 H 0.41608 0.41878 0.2737 0.0
C1629 C 0.34434 0.40677 0.21072 0.0
C1630 C 0.35513 0.37968 0.22859 0.0
H1631 H 0.35176 0.45847 0.20048 0.0
H1632 H 0.32467 0.40358 0.19276 0.0
C1633 C 0.38058 0.38491 0.25187 0.0
C1634 C 0.15894 0.5774 0.92526 0.0
C1635 C 0.18873 0.57839 0.94322 0.0
H1636 H 0.10651 0.56763 0.92627 0.0
C1637 C 0.18999 0.56064 0.97247 0.0
H1638 H 0.15736 0.5901 0.90226 0.0
C1639 C 0.16063 0.54839 0.9867 0.0
C1640 C 0.12995 0.55316 0.97141 0.0
H1641 H 0.21275 0.56023 0.98664 0.0
H1642 H 0.16175 0.53848 0.01102 0.0
C1643 C 0.1297 0.5649 0.93931 0.0
C1644 C 0.69026 0.89916 0.23309 0.0
C1645 C 0.68261 0.9172 0.26111 0.0
H1646 H 0.71013 0.85525 0.21349 0.0
C1647 C 0.69259 0.90562 0.29167 0.0
H1648 H 0.68333 0.90772 0.20921 0.0
C1649 C 0.70782 0.87525 0.29427 0.0
C1650 C 0.71347 0.85616 0.26631 0.0
H1651 H 0.68716 0.91918 0.31373 0.0
H1652 H 0.71361 0.86605 0.3182 0.0
C1653 C 0.70571 0.86908 0.23564 0.0
C1654 C 0.85212 0.12749 0.81409 0.0
C1655 C 0.85182 0.10992 0.78442 0.0
H1656 H 0.83552 0.17013 0.83995 0.0
C1657 C 0.83074 0.11938 0.75926 0.0
H1658 H 0.8683 0.12054 0.83383 0.0
C1659 C 0.81088 0.14667 0.76337 0.0
C1660 C 0.81275 0.16554 0.79228 0.0
H1661 H 0.83003 0.10602 0.73629 0.0
H1662 H 0.79582 0.15438 0.74308 0.0
C1663 C 0.83325 0.15557 0.81775 0.0
loop_
_geom_bond_atom_site_label_1
_geom_bond_atom_site_label_2
_geom_bond_distance
_geom_bond_site_symmetry_2
_ccdc_geom_bond_type
Zn0 O3 2.031 . S
Zn0 O5 2.049 . S
Zn0 O10 2.067 . S
Zn1 O2 1.962 . S
Zn1 O4 1.986 . S
Zn1 O6 1.996 1_655 S
Zn1 O9 1.943 1_655 S
O2 Zn1 1.962 . S
O2 C7 1.254 1_655 S
O3 Zn0 2.031 . S
O3 C7 1.269 . S
O4 Zn1 1.986 . S
O4 C11 1.262 . S
O5 Zn0 2.049 . S
O5 C13 1.260 . S
O6 Zn1 1.996 1_455 S
O6 C13 1.257 . S
C7 O2 1.254 1_455 S
C7 O3 1.269 . S
C8 O9 1.249 . S
C8 O10 1.270 . S
O9 Zn1 1.943 1_455 S
O9 C8 1.249 . S
O10 Zn0 2.067 . S
O10 C8 1.270 . S
C11 O4 1.262 . S
C11 O12 1.232 . S
O12 C11 1.232 . S
C13 O5 1.260 . S
C13 O6 1.257 . S
Zn14 O17 2.031 . S
Zn14 O19 2.049 . S
Zn14 O24 2.067 . S
Zn15 O16 1.962 . S
Zn15 O18 1.986 . S
Zn15 O20 1.996 . S
Zn15 O23 1.943 1_455 S
O16 Zn15 1.962 . S
O16 C21 1.254 . S
O17 Zn14 2.031 . S
O17 C21 1.269 1_655 S
O18 Zn15 1.986 . S
O18 C25 1.262 . S
O19 Zn14 2.049 . S
O19 C27 1.260 . S
O20 Zn15 1.996 . S
O20 C27 1.257 1_455 S
C21 O16 1.254 . S
C21 O17 1.269 1_455 S
C22 O23 1.249 . S
C22 O24 1.270 . S
O23 Zn15 1.943 1_655 S
O23 C22 1.249 . S
O24 Zn14 2.067 . S
O24 C22 1.270 . S
C25 O18 1.262 . S
C25 O26 1.232 . S
O26 C25 1.232 . S
C27 O19 1.260 . S
C27 O20 1.257 1_655 S
Zn28 O31 2.031 . S
Zn28 O33 2.049 . S
Zn28 O38 2.067 . S
Zn29 O30 1.962 . S
Zn29 O32 1.986 . S
Zn29 O34 1.996 . S
Zn29 O37 1.943 . S
O30 Zn29 1.962 . S
O30 C35 1.254 . S
O31 Zn28 2.031 . S
O31 C35 1.269 . S
O32 Zn29 1.986 . S
O32 C39 1.262 . S
O33 Zn28 2.049 . S
O33 C41 1.260 . S
O34 Zn29 1.996 . S
O34 C41 1.257 . S
C35 O30 1.254 . S
C35 O31 1.269 . S
C36 O37 1.249 . S
C36 O38 1.270 . S
O37 Zn29 1.943 . S
O37 C36 1.249 . S
O38 Zn28 2.067 . S
O38 C36 1.270 . S
C39 O32 1.262 . S
C39 O40 1.232 . S
O40 C39 1.232 . S
C41 O33 1.260 . S
C41 O34 1.257 . S
Zn42 O45 2.031 . S
Zn42 O47 2.049 . S
Zn42 O52 2.067 . S
Zn43 O44 1.962 . S
Zn43 O46 1.986 . S
Zn43 O48 1.996 . S
Zn43 O51 1.943 . S
O44 Zn43 1.962 . S
O44 C49 1.254 . S
O45 Zn42 2.031 . S
O45 C49 1.269 . S
O46 Zn43 1.986 . S
O46 C53 1.262 . S
O47 Zn42 2.049 . S
O47 C55 1.260 . S
O48 Zn43 1.996 . S
O48 C55 1.257 . S
C49 O44 1.254 . S
C49 O45 1.269 . S
C50 O51 1.249 . S
C50 O52 1.270 . S
O51 Zn43 1.943 . S
O51 C50 1.249 . S
O52 Zn42 2.067 . S
O52 C50 1.270 . S
C53 O46 1.262 . S
C53 O54 1.232 . S
O54 C53 1.232 . S
C55 O47 1.260 . S
C55 O48 1.257 . S
Zn56 O59 2.031 . S
Zn56 O61 2.049 . S
Zn56 O66 2.067 . S
Zn57 O58 1.962 . S
Zn57 O60 1.986 1_545 S
Zn57 O62 1.996 . S
Zn57 O65 1.943 . S
O58 Zn57 1.962 . S
O58 C63 1.254 . S
O59 Zn56 2.031 . S
O59 C63 1.269 . S
O60 Zn57 1.986 1_565 S
O60 C67 1.262 . S
O61 Zn56 2.049 . S
O61 C69 1.260 . S
O62 Zn57 1.996 . S
O62 C69 1.257 . S
C63 O58 1.254 . S
C63 O59 1.269 . S
C64 O65 1.249 . S
C64 O66 1.270 . S
O65 Zn57 1.943 . S
O65 C64 1.249 . S
O66 Zn56 2.067 . S
O66 C64 1.270 . S
C67 O60 1.262 . S
C67 O68 1.232 . S
O68 C67 1.232 . S
C69 O61 1.260 . S
C69 O62 1.257 . S
Zn70 O73 2.031 . S
Zn70 O75 2.049 . S
Zn70 O80 2.067 . S
Zn71 O72 1.962 . S
Zn71 O74 1.986 . S
Zn71 O76 1.996 . S
Zn71 O79 1.943 . S
O72 Zn71 1.962 . S
O72 C77 1.254 . S
O73 Zn70 2.031 . S
O73 C77 1.269 . S
O74 Zn71 1.986 . S
O74 C81 1.262 . S
O75 Zn70 2.049 . S
O75 C83 1.260 . S
O76 Zn71 1.996 . S
O76 C83 1.257 . S
C77 O72 1.254 . S
C77 O73 1.269 . S
C78 O79 1.249 . S
C78 O80 1.270 . S
O79 Zn71 1.943 . S
O79 C78 1.249 . S
O80 Zn70 2.067 . S
O80 C78 1.270 . S
C81 O74 1.262 . S
C81 O82 1.232 . S
O82 C81 1.232 . S
C83 O75 1.260 . S
C83 O76 1.257 . S
Zn84 O87 2.031 . S
Zn84 O89 2.049 . S
Zn84 O94 2.067 . S
Zn85 O86 1.962 . S
Zn85 O88 1.986 . S
Zn85 O90 1.996 . S
Zn85 O93 1.943 1_545 S
O86 Zn85 1.962 . S
O86 C91 1.254 1_545 S
O87 Zn84 2.031 . S
O87 C91 1.269 . S
O88 Zn85 1.986 . S
O88 C95 1.262 . S
O89 Zn84 2.049 . S
O89 C97 1.260 . S
O90 Zn85 1.996 . S
O90 C97 1.257 1_545 S
C91 O86 1.254 1_565 S
C91 O87 1.269 . S
C92 O93 1.249 . S
C92 O94 1.270 . S
O93 Zn85 1.943 1_565 S
O93 C92 1.249 . S
O94 Zn84 2.067 . S
O94 C92 1.270 . S
C95 O88 1.262 . S
C95 O96 1.232 . S
O96 C95 1.232 . S
C97 O89 1.260 . S
C97 O90 1.257 1_565 S
Zn98 O101 2.031 1_554 S
Zn98 O103 2.049 . S
Zn98 O108 2.067 . S
Zn99 O100 1.962 1_554 S
Zn99 O102 1.986 . S
Zn99 O104 1.996 . S
Zn99 O107 1.943 . S
O100 Zn99 1.962 1_556 S
O100 C105 1.254 . S
O101 Zn98 2.031 1_556 S
O101 C105 1.269 . S
O102 Zn99 1.986 . S
O102 C109 1.262 . S
O103 Zn98 2.049 . S
O103 C111 1.260 . S
O104 Zn99 1.996 . S
O104 C111 1.257 . S
C105 O100 1.254 . S
C105 O101 1.269 . S
C106 O107 1.249 . S
C106 O108 1.270 . S
O107 Zn99 1.943 . S
O107 C106 1.249 . S
O108 Zn98 2.067 . S
O108 C106 1.270 . S
C109 O102 1.262 . S
C109 O110 1.232 1_554 S
O110 C109 1.232 1_556 S
C111 O103 1.260 . S
C111 O104 1.257 . S
Zn112 O115 2.031 1_554 S
Zn112 O117 2.049 . S
Zn112 O122 2.067 . S
Zn113 O114 1.962 1_554 S
Zn113 O116 1.986 . S
Zn113 O118 1.996 . S
Zn113 O121 1.943 . S
O114 Zn113 1.962 1_556 S
O114 C119 1.254 . S
O115 Zn112 2.031 1_556 S
O115 C119 1.269 . S
O116 Zn113 1.986 . S
O116 C123 1.262 . S
O117 Zn112 2.049 . S
O117 C125 1.260 . S
O118 Zn113 1.996 . S
O118 C125 1.257 . S
C119 O114 1.254 . S
C119 O115 1.269 . S
C120 O121 1.249 . S
C120 O122 1.270 . S
O121 Zn113 1.943 . S
O121 C120 1.249 . S
O122 Zn112 2.067 . S
O122 C120 1.270 . S
C123 O116 1.262 . S
C123 O124 1.232 1_554 S
O124 C123 1.232 1_556 S
C125 O117 1.260 . S
C125 O118 1.257 . S
Zn126 O129 2.031 . S
Zn126 O131 2.049 . S
Zn126 O136 2.067 . S
Zn127 O128 1.962 . S
Zn127 O130 1.986 . S
Zn127 O132 1.996 . S
Zn127 O135 1.943 . S
O128 Zn127 1.962 . S
O128 C133 1.254 . S
O129 Zn126 2.031 . S
O129 C133 1.269 . S
O130 Zn127 1.986 . S
O130 C137 1.262 . S
O131 Zn126 2.049 . S
O131 C139 1.260 . S
O132 Zn127 1.996 . S
O132 C139 1.257 . S
C133 O128 1.254 . S
C133 O129 1.269 . S
C134 O135 1.249 . S
C134 O136 1.270 . S
O135 Zn127 1.943 . S
O135 C134 1.249 . S
O136 Zn126 2.067 . S
O136 C134 1.270 . S
C137 O130 1.262 . S
C137 O138 1.232 . S
O138 C137 1.232 . S
C139 O131 1.260 . S
C139 O132 1.257 . S
Zn140 O143 2.031 . S
Zn140 O145 2.049 . S
Zn140 O150 2.067 . S
Zn141 O142 1.962 . S
Zn141 O144 1.986 . S
Zn141 O146 1.996 . S
Zn141 O149 1.943 . S
O142 Zn141 1.962 . S
O142 C147 1.254 . S
O143 Zn140 2.031 . S
O143 C147 1.269 . S
O144 Zn141 1.986 . S
O144 C151 1.262 . S
O145 Zn140 2.049 . S
O145 C153 1.260 . S
O146 Zn141 1.996 . S
O146 C153 1.257 . S
C147 O142 1.254 . S
C147 O143 1.269 . S
C148 O149 1.249 . S
C148 O150 1.270 . S
O149 Zn141 1.943 . S
O149 C148 1.249 . S
O150 Zn140 2.067 . S
O150 C148 1.270 . S
C151 O144 1.262 . S
C151 O152 1.232 . S
O152 C151 1.232 . S
C153 O145 1.260 . S
C153 O146 1.257 . S
Zn154 O157 2.031 . S
Zn154 O159 2.049 . S
Zn154 O164 2.067 . S
Zn155 O156 1.962 . S
Zn155 O158 1.986 . S
Zn155 O160 1.996 . S
Zn155 O163 1.943 . S
O156 Zn155 1.962 . S
O156 C161 1.254 . S
O157 Zn154 2.031 . S
O157 C161 1.269 . S
O158 Zn155 1.986 . S
O158 C165 1.262 . S
O159 Zn154 2.049 . S
O159 C167 1.260 . S
O160 Zn155 1.996 . S
O160 C167 1.257 . S
C161 O156 1.254 . S
C161 O157 1.269 . S
C162 O163 1.249 . S
C162 O164 1.270 . S
O163 Zn155 1.943 . S
O163 C162 1.249 . S
O164 Zn154 2.067 . S
O164 C162 1.270 . S
C165 O158 1.262 . S
C165 O166 1.232 . S
O166 C165 1.232 . S
C167 O159 1.260 . S
C167 O160 1.257 . S
Zn168 O171 2.031 . S
Zn168 O173 2.049 . S
Zn168 O178 2.067 . S
Zn169 O170 1.962 . S
Zn169 O172 1.986 . S
Zn169 O174 1.996 . S
Zn169 O177 1.943 1_455 S
O170 Zn169 1.962 . S
O170 C175 1.254 . S
O171 Zn168 2.031 . S
O171 C175 1.269 1_655 S
O172 Zn169 1.986 . S
O172 C179 1.262 . S
O173 Zn168 2.049 . S
O173 C181 1.260 . S
O174 Zn169 1.996 . S
O174 C181 1.257 1_455 S
C175 O170 1.254 . S
C175 O171 1.269 1_455 S
C176 O177 1.249 . S
C176 O178 1.270 . S
O177 Zn169 1.943 1_655 S
O177 C176 1.249 . S
O178 Zn168 2.067 . S
O178 C176 1.270 . S
C179 O172 1.262 . S
C179 O180 1.232 . S
O180 C179 1.232 . S
C181 O173 1.260 . S
C181 O174 1.257 1_655 S
Zn182 O185 2.031 . S
Zn182 O187 2.049 . S
Zn182 O192 2.067 . S
Zn183 O184 1.962 . S
Zn183 O186 1.986 . S
Zn183 O188 1.996 1_655 S
Zn183 O191 1.943 1_655 S
O184 Zn183 1.962 . S
O184 C189 1.254 1_655 S
O185 Zn182 2.031 . S
O185 C189 1.269 . S
O186 Zn183 1.986 . S
O186 C193 1.262 . S
O187 Zn182 2.049 . S
O187 C195 1.260 . S
O188 Zn183 1.996 1_455 S
O188 C195 1.257 . S
C189 O184 1.254 1_455 S
C189 O185 1.269 . S
C190 O191 1.249 . S
C190 O192 1.270 . S
O191 Zn183 1.943 1_455 S
O191 C190 1.249 . S
O192 Zn182 2.067 . S
O192 C190 1.270 . S
C193 O186 1.262 . S
C193 O194 1.232 . S
O194 C193 1.232 . S
C195 O187 1.260 . S
C195 O188 1.257 . S
Zn196 O199 2.031 . S
Zn196 O201 2.049 . S
Zn196 O206 2.067 . S
Zn197 O198 1.962 . S
Zn197 O200 1.986 . S
Zn197 O202 1.996 . S
Zn197 O205 1.943 . S
O198 Zn197 1.962 . S
O198 C203 1.254 . S
O199 Zn196 2.031 . S
O199 C203 1.269 . S
O200 Zn197 1.986 . S
O200 C207 1.262 . S
O201 Zn196 2.049 . S
O201 C209 1.260 . S
O202 Zn197 1.996 . S
O202 C209 1.257 . S
C203 O198 1.254 . S
C203 O199 1.269 . S
C204 O205 1.249 . S
C204 O206 1.270 . S
O205 Zn197 1.943 . S
O205 C204 1.249 . S
O206 Zn196 2.067 . S
O206 C204 1.270 . S
C207 O200 1.262 . S
C207 O208 1.232 . S
O208 C207 1.232 . S
C209 O201 1.260 . S
C209 O202 1.257 . S
Zn210 O213 2.031 . S
Zn210 O215 2.049 . S
Zn210 O220 2.067 . S
Zn211 O212 1.962 . S
Zn211 O214 1.986 . S
Zn211 O216 1.996 . S
Zn211 O219 1.943 . S
O212 Zn211 1.962 . S
O212 C217 1.254 . S
O213 Zn210 2.031 . S
O213 C217 1.269 . S
O214 Zn211 1.986 . S
O214 C221 1.262 . S
O215 Zn210 2.049 . S
O215 C223 1.260 . S
O216 Zn211 1.996 . S
O216 C223 1.257 . S
C217 O212 1.254 . S
C217 O213 1.269 . S
C218 O219 1.249 . S
C218 O220 1.270 . S
O219 Zn211 1.943 . S
O219 C218 1.249 . S
O220 Zn210 2.067 . S
O220 C218 1.270 . S
C221 O214 1.262 . S
C221 O222 1.232 . S
O222 C221 1.232 . S
C223 O215 1.260 . S
C223 O216 1.257 . S
Zn224 O227 2.031 . S
Zn224 O229 2.049 . S
Zn224 O234 2.067 . S
Zn225 O226 1.962 . S
Zn225 O228 1.986 . S
Zn225 O230 1.996 . S
Zn225 O233 1.943 1_545 S
O226 Zn225 1.962 . S
O226 C231 1.254 . S
O227 Zn224 2.031 . S
O227 C231 1.269 1_565 S
O228 Zn225 1.986 . S
O228 C235 1.262 . S
O229 Zn224 2.049 . S
O229 C237 1.260 1_565 S
O230 Zn225 1.996 . S
O230 C237 1.257 . S
C231 O226 1.254 . S
C231 O227 1.269 1_545 S
C232 O233 1.249 . S
C232 O234 1.270 . S
O233 Zn225 1.943 1_565 S
O233 C232 1.249 . S
O234 Zn224 2.067 . S
O234 C232 1.270 . S
C235 O228 1.262 . S
C235 O236 1.232 . S
O236 C235 1.232 . S
C237 O229 1.260 1_545 S
C237 O230 1.257 . S
Zn238 O241 2.031 . S
Zn238 O243 2.049 . S
Zn238 O248 2.067 . S
Zn239 O240 1.962 . S
Zn239 O242 1.986 . S
Zn239 O244 1.996 . S
Zn239 O247 1.943 . S
O240 Zn239 1.962 . S
O240 C245 1.254 . S
O241 Zn238 2.031 . S
O241 C245 1.269 . S
O242 Zn239 1.986 . S
O242 C249 1.262 . S
O243 Zn238 2.049 . S
O243 C251 1.260 . S
O244 Zn239 1.996 . S
O244 C251 1.257 . S
C245 O240 1.254 . S
C245 O241 1.269 . S
C246 O247 1.249 . S
C246 O248 1.270 . S
O247 Zn239 1.943 . S
O247 C246 1.249 . S
O248 Zn238 2.067 . S
O248 C246 1.270 . S
C249 O242 1.262 . S
C249 O250 1.232 . S
O250 C249 1.232 . S
C251 O243 1.260 . S
C251 O244 1.257 . S
Zn252 O255 2.031 . S
Zn252 O257 2.049 . S
Zn252 O262 2.067 . S
Zn253 O254 1.962 . S
Zn253 O256 1.986 . S
Zn253 O258 1.996 . S
Zn253 O261 1.943 1_565 S
O254 Zn253 1.962 . S
O254 C259 1.254 1_565 S
O255 Zn252 2.031 . S
O255 C259 1.269 . S
O256 Zn253 1.986 . S
O256 C263 1.262 . S
O257 Zn252 2.049 . S
O257 C265 1.260 . S
O258 Zn253 1.996 . S
O258 C265 1.257 1_565 S
C259 O254 1.254 1_545 S
C259 O255 1.269 . S
C260 O261 1.249 . S
C260 O262 1.270 . S
O261 Zn253 1.943 1_545 S
O261 C260 1.249 . S
O262 Zn252 2.067 . S
O262 C260 1.270 . S
C263 O256 1.262 . S
C263 O264 1.232 . S
O264 C263 1.232 . S
C265 O257 1.260 . S
C265 O258 1.257 1_545 S
Zn266 O269 2.031 1_554 S
Zn266 O271 2.049 . S
Zn266 O276 2.067 . S
Zn267 O268 1.962 1_554 S
Zn267 O270 1.986 . S
Zn267 O272 1.996 . S
Zn267 O275 1.943 . S
O268 Zn267 1.962 1_556 S
O268 C273 1.254 . S
O269 Zn266 2.031 1_556 S
O269 C273 1.269 . S
O270 Zn267 1.986 . S
O270 C277 1.262 . S
O271 Zn266 2.049 . S
O271 C279 1.260 . S
O272 Zn267 1.996 . S
O272 C279 1.257 . S
C273 O268 1.254 . S
C273 O269 1.269 . S
C274 O275 1.249 . S
C274 O276 1.270 . S
O275 Zn267 1.943 . S
O275 C274 1.249 . S
O276 Zn266 2.067 . S
O276 C274 1.270 . S
C277 O270 1.262 . S
C277 O278 1.232 1_554 S
O278 C277 1.232 1_556 S
C279 O271 1.260 . S
C279 O272 1.257 . S
Zn280 O283 2.031 1_554 S
Zn280 O285 2.049 . S
Zn280 O290 2.067 . S
Zn281 O282 1.962 . S
Zn281 O284 1.986 1_556 S
Zn281 O286 1.996 1_556 S
Zn281 O289 1.943 1_556 S
O282 Zn281 1.962 . S
O282 C287 1.254 . S
O283 Zn280 2.031 1_556 S
O283 C287 1.269 . S
O284 Zn281 1.986 1_554 S
O284 C291 1.258 1_554 S
O285 Zn280 2.049 . S
O285 C293 1.260 . S
O286 Zn281 1.996 1_554 S
O286 C293 1.257 . S
C287 O282 1.254 . S
C287 O283 1.269 . S
C288 O289 1.249 . S
C288 O290 1.270 . S
O289 Zn281 1.943 1_554 S
O289 C288 1.249 . S
O290 Zn280 2.067 . S
O290 C288 1.270 . S
C291 O284 1.258 1_556 S
C291 O292 1.237 . S
O292 C291 1.237 . S
C293 O285 1.260 . S
C293 O286 1.257 . S
Zn294 O297 2.031 . S
Zn294 O299 2.049 . S
Zn294 O304 2.067 . S
Zn295 O296 1.962 . S
Zn295 O298 1.986 . S
Zn295 O300 1.996 . S
Zn295 O303 1.943 . S
O296 Zn295 1.962 . S
O296 C301 1.254 . S
O297 Zn294 2.031 . S
O297 C301 1.269 . S
O298 Zn295 1.986 . S
O298 C305 1.262 . S
O299 Zn294 2.049 . S
O299 C307 1.260 . S
O300 Zn295 1.996 . S
O300 C307 1.257 . S
C301 O296 1.254 . S
C301 O297 1.269 . S
C302 O303 1.249 . S
C302 O304 1.270 . S
O303 Zn295 1.943 . S
O303 C302 1.249 . S
O304 Zn294 2.067 . S
O304 C302 1.270 . S
C305 O298 1.262 . S
C305 O306 1.232 . S
O306 C305 1.232 . S
C307 O299 1.260 . S
C307 O300 1.257 . S
Zn308 O311 2.031 . S
Zn308 O313 2.049 . S
Zn308 O318 2.067 . S
Zn309 O310 1.962 . S
Zn309 O312 1.986 . S
Zn309 O314 1.996 . S
Zn309 O317 1.943 . S
O310 Zn309 1.962 . S
O310 C315 1.254 . S
O311 Zn308 2.031 . S
O311 C315 1.269 . S
O312 Zn309 1.986 . S
O312 C319 1.262 . S
O313 Zn308 2.049 . S
O313 C321 1.260 . S
O314 Zn309 1.996 . S
O314 C321 1.257 . S
C315 O310 1.254 . S
C315 O311 1.269 . S
C316 O317 1.249 . S
C316 O318 1.270 . S
O317 Zn309 1.943 . S
O317 C316 1.249 . S
O318 Zn308 2.067 . S
O318 C316 1.270 . S
C319 O312 1.262 . S
C319 O320 1.232 . S
O320 C319 1.232 . S
C321 O313 1.260 . S
C321 O314 1.257 . S
Zn322 O325 2.031 . S
Zn322 O327 2.049 . S
Zn322 O332 2.067 . S
Zn323 O324 1.962 . S
Zn323 O326 1.986 . S
Zn323 O328 1.996 . S
Zn323 O331 1.943 . S
O324 Zn323 1.962 . S
O324 C329 1.254 . S
O325 Zn322 2.031 . S
O325 C329 1.269 . S
O326 Zn323 1.986 . S
O326 C333 1.262 . S
O327 Zn322 2.049 . S
O327 C335 1.260 . S
O328 Zn323 1.996 . S
O328 C335 1.257 . S
C329 O324 1.254 . S
C329 O325 1.269 . S
C330 O331 1.249 . S
C330 O332 1.270 . S
O331 Zn323 1.943 . S
O331 C330 1.249 . S
O332 Zn322 2.067 . S
O332 C330 1.270 . S
C333 O326 1.262 . S
C333 O334 1.232 . S
O334 C333 1.232 . S
C335 O327 1.260 . S
C335 O328 1.257 . S
O336 Zn337 1.953 1_554 S
O336 C352 1.225 1_455 S
Zn337 O336 1.953 1_556 S
Zn337 O338 1.949 1_556 S
Zn337 O344 1.919 . S
Zn337 O349 1.924 1_455 S
O338 Zn337 1.949 1_554 S
O338 Zn339 1.923 1_545 S
O338 Zn340 1.950 1_455 S
O338 Zn341 1.945 1_444 S
Zn339 O338 1.923 1_565 S
Zn339 O342 1.933 . S
Zn339 O345 1.941 1_565 S
Zn339 O346 1.965 . S
Zn340 O338 1.950 1_655 S
Zn340 O347 1.938 . S
Zn340 O348 1.906 1_545 S
Zn340 O358 1.953 . S
Zn341 O338 1.945 1_666 S
Zn341 O343 1.932 . S
Zn341 O350 1.982 . S
Zn341 O351 1.910 1_565 S
O342 Zn339 1.933 . S
O342 C353 1.226 1_554 S
O343 Zn341 1.932 . S
O343 C353 1.307 1_655 S
O344 Zn337 1.919 . S
O344 C355 1.253 . S
O345 Zn339 1.941 1_545 S
O345 C355 1.283 1_554 S
O346 Zn339 1.965 . S
O346 C354 1.303 . S
O347 Zn340 1.938 . S
O347 C354 1.247 1_645 S
O348 Zn340 1.906 1_565 S
O348 C356 1.304 . S
O349 Zn337 1.924 1_655 S
O349 C357 1.311 . S
O350 Zn341 1.982 . S
O350 C356 1.259 1_556 S
O351 Zn341 1.910 1_545 S
O351 C357 1.231 . S
C352 O336 1.225 1_655 S
C352 O358 1.298 . S
C353 O342 1.226 1_556 S
C353 O343 1.307 1_455 S
C354 O346 1.303 . S
C354 O347 1.247 1_465 S
C355 O344 1.253 . S
C355 O345 1.283 1_556 S
C356 O348 1.304 . S
C356 O350 1.259 1_554 S
C357 O349 1.311 . S
C357 O351 1.231 . S
O358 Zn340 1.953 . S
O358 C352 1.298 . S
O359 Zn360 1.953 . S
O359 C375 1.225 . S
Zn360 O359 1.953 . S
Zn360 O361 1.949 . S
Zn360 O367 1.919 . S
Zn360 O372 1.924 . S
O361 Zn360 1.949 . S
O361 Zn362 1.923 . S
O361 Zn363 1.950 . S
O361 Zn364 1.945 . S
Zn362 O361 1.923 . S
Zn362 O365 1.933 . S
Zn362 O368 1.941 . S
Zn362 O369 1.965 . S
Zn363 O361 1.950 . S
Zn363 O370 1.938 . S
Zn363 O371 1.906 . S
Zn363 O381 1.953 . S
Zn364 O361 1.945 . S
Zn364 O366 1.932 . S
Zn364 O373 1.977 . S
Zn364 O374 1.910 . S
O365 Zn362 1.933 . S
O365 C376 1.226 . S
O366 Zn364 1.932 . S
O366 C376 1.307 . S
O367 Zn360 1.919 . S
O367 C378 1.253 . S
O368 Zn362 1.941 . S
O368 C378 1.283 . S
O369 Zn362 1.965 . S
O369 C377 1.303 . S
O370 Zn363 1.938 . S
O370 C377 1.247 . S
O371 Zn363 1.906 . S
O371 C379 1.304 . S
O372 Zn360 1.924 . S
O372 C380 1.311 . S
O373 Zn364 1.977 . S
O373 C379 1.272 . S
O374 Zn364 1.910 . S
O374 C380 1.231 . S
C375 O359 1.225 . S
C375 O381 1.298 . S
C376 O365 1.226 . S
C376 O366 1.307 . S
C377 O369 1.303 . S
C377 O370 1.247 . S
C378 O367 1.253 . S
C378 O368 1.283 . S
C379 O371 1.304 . S
C379 O373 1.272 . S
C380 O372 1.311 . S
C380 O374 1.231 . S
O381 Zn363 1.953 . S
O381 C375 1.298 . S
O382 Zn383 1.953 . S
O382 C398 1.225 . S
Zn383 O382 1.953 . S
Zn383 O384 1.949 1_565 S
Zn383 O390 1.919 . S
Zn383 O395 1.924 . S
O384 Zn383 1.949 1_545 S
O384 Zn385 1.923 . S
O384 Zn386 1.950 . S
O384 Zn387 1.945 . S
Zn385 O384 1.923 . S
Zn385 O388 1.933 . S
Zn385 O391 1.941 . S
Zn385 O392 1.965 . S
Zn386 O384 1.950 . S
Zn386 O393 1.938 . S
Zn386 O394 1.906 . S
Zn386 O404 1.953 1_545 S
Zn387 O384 1.945 . S
Zn387 O389 1.932 . S
Zn387 O396 1.977 . S
Zn387 O397 1.910 . S
O388 Zn385 1.933 . S
O388 C399 1.226 . S
O389 Zn387 1.932 . S
O389 C399 1.307 . S
O390 Zn383 1.919 . S
O390 C401 1.253 . S
O391 Zn385 1.941 . S
O391 C401 1.283 1_545 S
O392 Zn385 1.965 . S
O392 C400 1.303 . S
O393 Zn386 1.938 . S
O393 C400 1.247 . S
O394 Zn386 1.906 . S
O394 C402 1.304 . S
O395 Zn383 1.924 . S
O395 C403 1.311 . S
O396 Zn387 1.977 . S
O396 C402 1.272 . S
O397 Zn387 1.910 . S
O397 C403 1.231 1_545 S
C398 O382 1.225 . S
C398 O404 1.298 . S
C399 O388 1.226 . S
C399 O389 1.307 . S
C400 O392 1.303 . S
C400 O393 1.247 . S
C401 O390 1.253 . S
C401 O391 1.283 1_565 S
C402 O394 1.304 . S
C402 O396 1.272 . S
C403 O395 1.311 . S
C403 O397 1.231 1_565 S
O404 Zn386 1.953 1_565 S
O404 C398 1.298 . S
O405 Zn406 1.953 . S
O405 C421 1.225 . S
Zn406 O405 1.953 . S
Zn406 O407 1.949 . S
Zn406 O413 1.919 . S
Zn406 O418 1.924 . S
O407 Zn406 1.949 . S
O407 Zn408 1.923 . S
O407 Zn409 1.950 . S
O407 Zn410 1.945 . S
Zn408 O407 1.923 . S
Zn408 O411 1.933 . S
Zn408 O414 1.941 . S
Zn408 O415 1.965 . S
Zn409 O407 1.950 . S
Zn409 O416 1.938 . S
Zn409 O417 1.906 . S
Zn409 O427 1.953 . S
Zn410 O407 1.945 . S
Zn410 O412 1.932 . S
Zn410 O419 1.977 . S
Zn410 O420 1.910 . S
O411 Zn408 1.933 . S
O411 C422 1.226 . S
O412 Zn410 1.932 . S
O412 C422 1.307 . S
O413 Zn406 1.919 . S
O413 C424 1.253 . S
O414 Zn408 1.941 . S
O414 C424 1.283 . S
O415 Zn408 1.965 . S
O415 C423 1.303 . S
O416 Zn409 1.938 . S
O416 C423 1.247 . S
O417 Zn409 1.906 . S
O417 C425 1.304 . S
O418 Zn406 1.924 . S
O418 C426 1.311 . S
O419 Zn410 1.977 . S
O419 C425 1.272 . S
O420 Zn410 1.910 . S
O420 C426 1.231 . S
C421 O405 1.225 . S
C421 O427 1.298 . S
C422 O411 1.226 . S
C422 O412 1.307 . S
C423 O415 1.303 . S
C423 O416 1.247 . S
C424 O413 1.253 . S
C424 O414 1.283 . S
C425 O417 1.304 . S
C425 O419 1.272 . S
C426 O418 1.311 . S
C426 O420 1.231 . S
O427 Zn409 1.953 . S
O427 C421 1.298 . S
O428 Zn429 1.953 1_445 S
O428 C444 1.225 . S
Zn429 O428 1.953 1_665 S
Zn429 O430 1.949 1_665 S
Zn429 O436 1.919 . S
Zn429 O441 1.924 1_565 S
O430 Zn429 1.949 1_445 S
O430 Zn431 1.923 1_545 S
O430 Zn432 1.950 . S
O430 Zn433 1.945 1_455 S
Zn431 O430 1.923 1_565 S
Zn431 O434 1.933 . S
Zn431 O437 1.941 . S
Zn431 O438 1.965 . S
Zn432 O430 1.950 . S
Zn432 O439 1.938 . S
Zn432 O440 1.906 . S
Zn432 O450 1.953 . S
Zn433 O430 1.945 1_655 S
Zn433 O435 1.932 . S
Zn433 O442 1.977 . S
Zn433 O443 1.910 . S
O434 Zn431 1.933 . S
O434 C445 1.226 1_455 S
O435 Zn433 1.932 . S
O435 C445 1.307 1_545 S
O436 Zn429 1.919 . S
O436 C447 1.253 . S
O437 Zn431 1.941 . S
O437 C447 1.283 1_455 S
O438 Zn431 1.965 . S
O438 C446 1.303 . S
O439 Zn432 1.938 . S
O439 C446 1.247 1_545 S
O440 Zn432 1.906 . S
O440 C448 1.304 . S
O441 Zn429 1.924 1_545 S
O441 C449 1.311 . S
O442 Zn433 1.977 . S
O442 C448 1.272 1_655 S
O443 Zn433 1.910 . S
O443 C449 1.231 . S
C444 O428 1.225 . S
C444 O450 1.298 . S
C445 O434 1.226 1_655 S
C445 O435 1.307 1_565 S
C446 O438 1.303 . S
C446 O439 1.247 1_565 S
C447 O436 1.253 . S
C447 O437 1.283 1_655 S
C448 O440 1.304 . S
C448 O442 1.272 1_455 S
C449 O441 1.311 . S
C449 O443 1.231 . S
O450 Zn432 1.953 . S
O450 C444 1.298 . S
O451 Zn452 1.953 . S
O451 C467 1.225 . S
Zn452 O451 1.953 . S
Zn452 O453 1.949 . S
Zn452 O459 1.919 . S
Zn452 O464 1.924 . S
O453 Zn452 1.949 . S
O453 Zn454 1.923 . S
O453 Zn455 1.950 . S
O453 Zn456 1.945 . S
Zn454 O453 1.923 . S
Zn454 O457 1.933 . S
Zn454 O460 1.941 . S
Zn454 O461 1.965 . S
Zn455 O453 1.950 . S
Zn455 O462 1.938 . S
Zn455 O463 1.906 . S
Zn455 O473 1.953 . S
Zn456 O453 1.945 . S
Zn456 O458 1.932 . S
Zn456 O465 1.977 . S
Zn456 O466 1.910 . S
O457 Zn454 1.933 . S
O457 C468 1.226 . S
O458 Zn456 1.932 . S
O458 C468 1.307 . S
O459 Zn452 1.919 . S
O459 C470 1.253 . S
O460 Zn454 1.941 . S
O460 C470 1.283 . S
O461 Zn454 1.965 . S
O461 C469 1.303 . S
O462 Zn455 1.938 . S
O462 C469 1.247 . S
O463 Zn455 1.906 . S
O463 C471 1.304 . S
O464 Zn452 1.924 . S
O464 C472 1.311 . S
O465 Zn456 1.977 . S
O465 C471 1.272 . S
O466 Zn456 1.910 . S
O466 C472 1.231 . S
C467 O451 1.225 . S
C467 O473 1.298 . S
C468 O457 1.226 . S
C468 O458 1.307 . S
C469 O461 1.303 . S
C469 O462 1.247 . S
C470 O459 1.253 . S
C470 O460 1.283 . S
C471 O463 1.304 . S
C471 O465 1.272 . S
C472 O464 1.311 . S
C472 O466 1.231 . S
O473 Zn455 1.953 . S
O473 C467 1.298 . S
O474 Zn475 1.953 . S
O474 C490 1.225 . S
Zn475 O474 1.953 . S
Zn475 O476 1.949 . S
Zn475 O482 1.919 1_545 S
Zn475 O487 1.924 . S
O476 Zn475 1.949 . S
O476 Zn477 1.923 1_544 S
O476 Zn478 1.950 . S
O476 Zn479 1.945 1_554 S
Zn477 O476 1.923 1_566 S
Zn477 O480 1.933 . S
Zn477 O483 1.941 . S
Zn477 O484 1.965 1_556 S
Zn478 O476 1.950 . S
Zn478 O485 1.938 1_545 S
Zn478 O486 1.906 . S
Zn478 O496 1.953 . S
Zn479 O476 1.945 1_556 S
Zn479 O481 1.932 . S
Zn479 O488 1.977 1_556 S
Zn479 O489 1.910 . S
O480 Zn477 1.933 . S
O480 C491 1.226 . S
O481 Zn479 1.932 . S
O481 C491 1.307 1_545 S
O482 Zn475 1.919 1_565 S
O482 C493 1.253 1_554 S
O483 Zn477 1.941 . S
O483 C493 1.283 . S
O484 Zn477 1.965 1_554 S
O484 C492 1.303 . S
O485 Zn478 1.938 1_565 S
O485 C492 1.247 . S
O486 Zn478 1.906 . S
O486 C494 1.304 . S
O487 Zn475 1.924 . S
O487 C495 1.311 1_554 S
O488 Zn479 1.977 1_554 S
O488 C494 1.272 . S
O489 Zn479 1.910 . S
O489 C495 1.231 . S
C490 O474 1.225 . S
C490 O496 1.298 . S
C491 O480 1.226 . S
C491 O481 1.307 1_565 S
C492 O484 1.303 . S
C492 O485 1.247 . S
C493 O482 1.253 1_556 S
C493 O483 1.283 . S
C494 O486 1.304 . S
C494 O488 1.272 . S
C495 O487 1.311 1_556 S
C495 O489 1.231 . S
O496 Zn478 1.953 . S
O496 C490 1.298 . S
O497 Zn498 1.953 . S
O497 C513 1.225 . S
Zn498 O497 1.953 . S
Zn498 O499 1.949 . S
Zn498 O505 1.919 . S
Zn498 O510 1.924 . S
O499 Zn498 1.949 . S
O499 Zn500 1.923 . S
O499 Zn501 1.950 . S
O499 Zn502 1.945 . S
Zn500 O499 1.923 . S
Zn500 O503 1.933 . S
Zn500 O506 1.941 . S
Zn500 O507 1.965 . S
Zn501 O499 1.950 . S
Zn501 O508 1.938 . S
Zn501 O509 1.906 . S
Zn501 O519 1.953 . S
Zn502 O499 1.945 . S
Zn502 O504 1.932 . S
Zn502 O511 1.977 . S
Zn502 O512 1.910 . S
O503 Zn500 1.933 . S
O503 C514 1.226 . S
O504 Zn502 1.932 . S
O504 C514 1.307 . S
O505 Zn498 1.919 . S
O505 C516 1.253 . S
O506 Zn500 1.941 . S
O506 C516 1.283 . S
O507 Zn500 1.965 . S
O507 C515 1.303 . S
O508 Zn501 1.938 . S
O508 C515 1.247 . S
O509 Zn501 1.906 . S
O509 C517 1.304 . S
O510 Zn498 1.924 . S
O510 C518 1.311 . S
O511 Zn502 1.977 . S
O511 C517 1.272 . S
O512 Zn502 1.910 . S
O512 C518 1.231 . S
C513 O497 1.225 . S
C513 O519 1.298 . S
C514 O503 1.226 . S
C514 O504 1.307 . S
C515 O507 1.303 . S
C515 O508 1.247 . S
C516 O505 1.253 . S
C516 O506 1.283 . S
C517 O509 1.304 . S
C517 O511 1.272 . S
C518 O510 1.311 . S
C518 O512 1.231 . S
O519 Zn501 1.953 . S
O519 C513 1.298 . S
O520 Zn521 1.953 . S
O520 C536 1.225 . S
Zn521 O520 1.953 . S
Zn521 O522 1.949 1_556 S
Zn521 O528 1.919 . S
Zn521 O533 1.924 . S
O522 Zn521 1.949 1_554 S
O522 Zn523 1.923 . S
O522 Zn524 1.950 . S
O522 Zn525 1.945 . S
Zn523 O522 1.923 . S
Zn523 O526 1.933 . S
Zn523 O529 1.941 . S
Zn523 O530 1.965 . S
Zn524 O522 1.950 . S
Zn524 O531 1.938 . S
Zn524 O532 1.906 . S
Zn524 O542 1.953 1_554 S
Zn525 O522 1.945 . S
Zn525 O527 1.932 . S
Zn525 O534 1.977 . S
Zn525 O535 1.910 . S
O526 Zn523 1.933 . S
O526 C537 1.226 . S
O527 Zn525 1.932 . S
O527 C537 1.307 . S
O528 Zn521 1.919 . S
O528 C539 1.253 . S
O529 Zn523 1.941 . S
O529 C539 1.283 1_554 S
O530 Zn523 1.965 . S
O530 C538 1.303 . S
O531 Zn524 1.938 . S
O531 C538 1.247 . S
O532 Zn524 1.906 . S
O532 C540 1.304 . S
O533 Zn521 1.924 . S
O533 C541 1.311 . S
O534 Zn525 1.977 . S
O534 C540 1.272 . S
O535 Zn525 1.910 . S
O535 C541 1.231 1_554 S
C536 O520 1.225 . S
C536 O542 1.298 . S
C537 O526 1.226 . S
C537 O527 1.307 . S
C538 O530 1.303 . S
C538 O531 1.247 . S
C539 O528 1.253 . S
C539 O529 1.283 1_556 S
C540 O532 1.304 . S
C540 O534 1.272 . S
C541 O533 1.311 . S
C541 O535 1.231 1_556 S
O542 Zn524 1.953 1_556 S
O542 C536 1.298 . S
O543 Zn544 1.953 . S
O543 C559 1.225 . S
Zn544 O543 1.953 . S
Zn544 O545 1.949 . S
Zn544 O551 1.919 . S
Zn544 O556 1.924 . S
O545 Zn544 1.949 . S
O545 Zn546 1.923 . S
O545 Zn547 1.950 . S
O545 Zn548 1.945 . S
Zn546 O545 1.923 . S
Zn546 O549 1.933 . S
Zn546 O552 1.941 . S
Zn546 O553 1.965 . S
Zn547 O545 1.950 . S
Zn547 O554 1.938 . S
Zn547 O555 1.906 . S
Zn547 O565 1.953 . S
Zn548 O545 1.945 . S
Zn548 O550 1.932 . S
Zn548 O557 1.977 . S
Zn548 O558 1.910 . S
O549 Zn546 1.933 . S
O549 C560 1.226 . S
O550 Zn548 1.932 . S
O550 C560 1.307 . S
O551 Zn544 1.919 . S
O551 C562 1.253 . S
O552 Zn546 1.941 . S
O552 C562 1.283 . S
O553 Zn546 1.965 . S
O553 C561 1.303 . S
O554 Zn547 1.938 . S
O554 C561 1.247 . S
O555 Zn547 1.906 . S
O555 C563 1.304 . S
O556 Zn544 1.924 . S
O556 C564 1.311 . S
O557 Zn548 1.977 . S
O557 C563 1.272 . S
O558 Zn548 1.910 . S
O558 C564 1.231 . S
C559 O543 1.225 . S
C559 O565 1.298 . S
C560 O549 1.226 . S
C560 O550 1.307 . S
C561 O553 1.303 . S
C561 O554 1.247 . S
C562 O551 1.253 . S
C562 O552 1.283 . S
C563 O555 1.304 . S
C563 O557 1.272 . S
C564 O556 1.311 . S
C564 O558 1.231 . S
O565 Zn547 1.953 . S
O565 C559 1.298 . S
O566 Zn567 1.953 . S
O566 C582 1.225 . S
Zn567 O566 1.953 . S
Zn567 O568 1.956 . S
Zn567 O574 1.919 . S
Zn567 O579 1.924 . S
O568 Zn567 1.956 . S
O568 Zn569 1.922 . S
O568 Zn570 1.946 1_455 S
O568 Zn571 1.941 1_455 S
Zn569 O568 1.922 . S
Zn569 O572 1.923 1_455 S
Zn569 O575 1.966 . S
Zn569 O576 1.957 1_455 S
Zn570 O568 1.946 1_655 S
Zn570 O577 1.938 . S
Zn570 O578 1.906 . S
Zn570 O588 1.953 1_655 S
Zn571 O568 1.941 1_655 S
Zn571 O573 1.932 . S
Zn571 O580 1.977 . S
Zn571 O581 1.910 1_655 S
O572 Zn569 1.923 1_655 S
O572 C583 1.226 . S
O573 Zn571 1.932 . S
O573 C583 1.307 . S
O574 Zn567 1.919 . S
O574 C585 1.253 . S
O575 Zn569 1.966 . S
O575 C585 1.283 . S
O576 Zn569 1.957 1_655 S
O576 C584 1.303 . S
O577 Zn570 1.938 . S
O577 C584 1.247 . S
O578 Zn570 1.906 . S
O578 C586 1.304 . S
O579 Zn567 1.924 . S
O579 C587 1.311 . S
O580 Zn571 1.977 . S
O580 C586 1.272 . S
O581 Zn571 1.910 1_455 S
O581 C587 1.231 . S
C582 O566 1.225 . S
C582 O588 1.298 . S
C583 O572 1.226 . S
C583 O573 1.307 . S
C584 O576 1.303 . S
C584 O577 1.247 . S
C585 O574 1.253 . S
C585 O575 1.283 . S
C586 O578 1.304 . S
C586 O580 1.272 . S
C587 O579 1.311 . S
C587 O581 1.231 . S
O588 Zn570 1.953 1_455 S
O588 C582 1.298 . S
O589 Zn590 1.953 . S
O589 C605 1.225 . S
Zn590 O589 1.953 . S
Zn590 O591 1.949 . S
Zn590 O597 1.919 . S
Zn590 O602 1.924 . S
O591 Zn590 1.949 . S
O591 Zn592 1.923 . S
O591 Zn593 1.950 . S
O591 Zn594 1.945 . S
Zn592 O591 1.923 . S
Zn592 O595 1.933 . S
Zn592 O598 1.941 . S
Zn592 O599 1.965 . S
Zn593 O591 1.950 . S
Zn593 O600 1.938 . S
Zn593 O601 1.906 . S
Zn593 O611 1.953 . S
Zn594 O591 1.945 . S
Zn594 O596 1.932 . S
Zn594 O603 1.977 . S
Zn594 O604 1.910 . S
O595 Zn592 1.933 . S
O595 C606 1.226 . S
O596 Zn594 1.932 . S
O596 C606 1.307 . S
O597 Zn590 1.919 . S
O597 C608 1.253 . S
O598 Zn592 1.941 . S
O598 C608 1.283 . S
O599 Zn592 1.965 . S
O599 C607 1.303 . S
O600 Zn593 1.938 . S
O600 C607 1.247 . S
O601 Zn593 1.906 . S
O601 C609 1.304 . S
O602 Zn590 1.924 . S
O602 C610 1.311 . S
O603 Zn594 1.977 . S
O603 C609 1.272 . S
O604 Zn594 1.910 . S
O604 C610 1.231 . S
C605 O589 1.225 . S
C605 O611 1.298 . S
C606 O595 1.226 . S
C606 O596 1.307 . S
C607 O599 1.303 . S
C607 O600 1.247 . S
C608 O597 1.253 . S
C608 O598 1.283 . S
C609 O601 1.304 . S
C609 O603 1.272 . S
C610 O602 1.311 . S
C610 O604 1.231 . S
O611 Zn593 1.953 . S
O611 C605 1.298 . S
O612 Zn613 1.953 . S
O612 C628 1.225 . S
Zn613 O612 1.953 . S
Zn613 O614 1.949 . S
Zn613 O620 1.919 . S
Zn613 O625 1.924 . S
O614 Zn613 1.949 . S
O614 Zn615 1.923 . S
O614 Zn616 1.950 . S
O614 Zn617 1.945 . S
Zn615 O614 1.923 . S
Zn615 O618 1.933 . S
Zn615 O621 1.941 . S
Zn615 O622 1.965 . S
Zn616 O614 1.950 . S
Zn616 O623 1.938 . S
Zn616 O624 1.906 . S
Zn616 O634 1.953 . S
Zn617 O614 1.945 . S
Zn617 O619 1.932 . S
Zn617 O626 1.977 . S
Zn617 O627 1.910 . S
O618 Zn615 1.933 . S
O618 C629 1.226 . S
O619 Zn617 1.932 . S
O619 C629 1.307 . S
O620 Zn613 1.919 . S
O620 C631 1.253 . S
O621 Zn615 1.941 . S
O621 C631 1.283 . S
O622 Zn615 1.965 . S
O622 C630 1.303 . S
O623 Zn616 1.938 . S
O623 C630 1.247 . S
O624 Zn616 1.906 . S
O624 C632 1.304 . S
O625 Zn613 1.924 . S
O625 C633 1.311 . S
O626 Zn617 1.977 . S
O626 C632 1.272 . S
O627 Zn617 1.910 . S
O627 C633 1.231 . S
C628 O612 1.225 . S
C628 O634 1.298 . S
C629 O618 1.226 . S
C629 O619 1.307 . S
C630 O622 1.303 . S
C630 O623 1.247 . S
C631 O620 1.253 . S
C631 O621 1.283 . S
C632 O624 1.304 . S
C632 O626 1.272 . S
C633 O625 1.311 . S
C633 O627 1.231 . S
O634 Zn616 1.953 . S
O634 C628 1.298 . S
O635 Zn636 1.953 . S
O635 C651 1.225 . S
Zn636 O635 1.953 . S
Zn636 O637 1.949 . S
Zn636 O643 1.919 . S
Zn636 O648 1.924 . S
O637 Zn636 1.949 . S
O637 Zn638 1.923 . S
O637 Zn639 1.950 . S
O637 Zn640 1.945 . S
Zn638 O637 1.923 . S
Zn638 O641 1.933 . S
Zn638 O644 1.941 . S
Zn638 O645 1.965 . S
Zn639 O637 1.950 . S
Zn639 O646 1.938 . S
Zn639 O647 1.906 . S
Zn639 O657 1.953 . S
Zn640 O637 1.945 . S
Zn640 O642 1.932 . S
Zn640 O649 1.977 . S
Zn640 O650 1.910 . S
O641 Zn638 1.933 . S
O641 C652 1.226 . S
O642 Zn640 1.932 . S
O642 C652 1.307 . S
O643 Zn636 1.919 . S
O643 C654 1.253 . S
O644 Zn638 1.941 . S
O644 C654 1.283 . S
O645 Zn638 1.965 . S
O645 C653 1.303 . S
O646 Zn639 1.938 . S
O646 C653 1.247 . S
O647 Zn639 1.906 . S
O647 C655 1.304 . S
O648 Zn636 1.924 . S
O648 C656 1.311 . S
O649 Zn640 1.977 . S
O649 C655 1.272 . S
O650 Zn640 1.910 . S
O650 C656 1.231 . S
C651 O635 1.225 . S
C651 O657 1.298 . S
C652 O641 1.226 . S
C652 O642 1.307 . S
C653 O645 1.303 . S
C653 O646 1.247 . S
C654 O643 1.253 . S
C654 O644 1.283 . S
C655 O647 1.304 . S
C655 O649 1.272 . S
C656 O648 1.311 . S
C656 O650 1.231 . S
O657 Zn639 1.953 . S
O657 C651 1.298 . S
O658 Zn659 1.953 . S
O658 C674 1.225 . S
Zn659 O658 1.953 . S
Zn659 O660 1.949 . S
Zn659 O666 1.919 . S
Zn659 O671 1.924 . S
O660 Zn659 1.949 . S
O660 Zn661 1.923 . S
O660 Zn662 1.950 . S
O660 Zn663 1.945 . S
Zn661 O660 1.923 . S
Zn661 O664 1.933 . S
Zn661 O667 1.941 . S
Zn661 O668 1.965 . S
Zn662 O660 1.950 . S
Zn662 O669 1.938 . S
Zn662 O670 1.906 . S
Zn662 O680 1.953 . S
Zn663 O660 1.945 . S
Zn663 O665 1.932 . S
Zn663 O672 1.977 . S
Zn663 O673 1.910 . S
O664 Zn661 1.933 . S
O664 C675 1.226 . S
O665 Zn663 1.932 . S
O665 C675 1.307 . S
O666 Zn659 1.919 . S
O666 C677 1.253 . S
O667 Zn661 1.941 . S
O667 C677 1.283 . S
O668 Zn661 1.965 . S
O668 C676 1.303 . S
O669 Zn662 1.938 . S
O669 C676 1.247 . S
O670 Zn662 1.906 . S
O670 C678 1.304 . S
O671 Zn659 1.924 . S
O671 C679 1.311 . S
O672 Zn663 1.977 . S
O672 C678 1.272 . S
O673 Zn663 1.910 . S
O673 C679 1.231 . S
C674 O658 1.225 . S
C674 O680 1.298 . S
C675 O664 1.226 . S
C675 O665 1.307 . S
C676 O668 1.303 . S
C676 O669 1.247 . S
C677 O666 1.253 . S
C677 O667 1.283 . S
C678 O670 1.304 . S
C678 O672 1.272 . S
C679 O671 1.311 . S
C679 O673 1.231 . S
O680 Zn662 1.953 . S
O680 C674 1.298 . S
O681 Zn682 1.953 1_454 S
O681 C697 1.225 . S
Zn682 O681 1.953 1_656 S
Zn682 O683 1.949 1_656 S
Zn682 O689 1.919 . S
Zn682 O694 1.924 1_655 S
O683 Zn682 1.949 1_454 S
O683 Zn684 1.923 1_455 S
O683 Zn685 1.950 . S
O683 Zn686 1.945 1_554 S
Zn684 O683 1.923 1_655 S
Zn684 O687 1.933 . S
Zn684 O690 1.941 . S
Zn684 O691 1.965 . S
Zn685 O683 1.950 . S
Zn685 O692 1.938 . S
Zn685 O693 1.906 . S
Zn685 O703 1.953 . S
Zn686 O683 1.945 1_556 S
Zn686 O688 1.932 . S
Zn686 O695 1.977 1_556 S
Zn686 O696 1.910 . S
O687 Zn684 1.933 . S
O687 C698 1.226 1_554 S
O688 Zn686 1.932 . S
O688 C698 1.307 1_455 S
O689 Zn682 1.919 . S
O689 C700 1.258 . S
O690 Zn684 1.941 . S
O690 C700 1.270 1_554 S
O691 Zn684 1.965 . S
O691 C699 1.303 . S
O692 Zn685 1.938 . S
O692 C699 1.247 1_455 S
O693 Zn685 1.906 . S
O693 C701 1.304 . S
O694 Zn682 1.924 1_455 S
O694 C702 1.311 . S
O695 Zn686 1.977 1_554 S
O695 C701 1.272 . S
O696 Zn686 1.910 . S
O696 C702 1.231 . S
C697 O681 1.225 . S
C697 O703 1.298 . S
C698 O687 1.226 1_556 S
C698 O688 1.307 1_655 S
C699 O691 1.303 . S
C699 O692 1.247 1_655 S
C700 O689 1.258 . S
C700 O690 1.270 1_556 S
C701 O693 1.304 . S
C701 O695 1.272 . S
C702 O694 1.311 . S
C702 O696 1.231 . S
O703 Zn685 1.953 . S
O703 C697 1.298 . S
C704 C705 1.387 . S
C704 H708 0.950 . S
C704 C713 1.390 1_455 S
C705 C704 1.387 . S
C705 C707 1.387 1_455 S
H706 C713 0.950 . S
C707 C705 1.387 1_655 S
C707 C709 1.390 . S
C707 H711 0.950 . S
H708 C704 0.950 . S
C709 C707 1.390 . S
C709 C710 1.387 . S
C709 H712 0.950 . S
C710 C709 1.387 . S
C710 C713 1.387 . S
H711 C707 0.950 . S
H712 C709 0.950 . S
C713 C704 1.390 1_655 S
C713 H706 0.950 . S
C713 C710 1.387 . S
C714 C715 1.387 . S
C714 H718 0.950 . S
C714 C723 1.390 . S
C715 C714 1.387 . S
C715 C717 1.387 . S
H716 C723 0.950 . S
C717 C715 1.387 . S
C717 C719 1.390 . S
C717 H721 0.950 . S
H718 C714 0.950 . S
C719 C717 1.390 . S
C719 C720 1.387 . S
C719 H722 0.950 . S
C720 C719 1.387 . S
C720 C723 1.387 . S
H721 C717 0.950 . S
H722 C719 0.950 . S
C723 C714 1.390 . S
C723 H716 0.950 . S
C723 C720 1.387 . S
C724 C725 1.387 . S
C724 H728 0.950 . S
C724 C733 1.390 . S
C725 C724 1.387 . S
C725 C727 1.387 . S
H726 C733 0.950 . S
C727 C725 1.387 . S
C727 C729 1.390 . S
C727 H731 0.950 . S
H728 C724 0.950 . S
C729 C727 1.390 . S
C729 C730 1.387 . S
C729 H732 0.950 . S
C730 C729 1.387 . S
C730 C733 1.387 . S
H731 C727 0.950 . S
H732 C729 0.950 . S
C733 C724 1.390 . S
C733 H726 0.950 . S
C733 C730 1.387 . S
C734 C735 1.387 . S
C734 H738 0.950 . S
C734 C743 1.390 . S
C735 C734 1.387 . S
C735 C737 1.387 . S
H736 C743 0.950 . S
C737 C735 1.387 . S
C737 C739 1.390 . S
C737 H741 0.950 . S
H738 C734 0.950 . S
C739 C737 1.390 . S
C739 C740 1.387 . S
C739 H742 0.950 . S
C740 C739 1.387 . S
C740 C743 1.387 . S
H741 C737 0.950 . S
H742 C739 0.950 . S
C743 C734 1.390 . S
C743 H736 0.950 . S
C743 C740 1.387 . S
C744 C745 1.387 . S
C744 H748 0.950 . S
C744 C753 1.390 . S
C745 C744 1.387 . S
C745 C747 1.387 1_655 S
H746 C753 0.950 . S
C747 C745 1.387 1_455 S
C747 C749 1.390 . S
C747 H751 0.950 . S
H748 C744 0.950 . S
C749 C747 1.390 . S
C749 C750 1.387 1_455 S
C749 H752 0.950 . S
C750 C749 1.387 1_655 S
C750 C753 1.387 . S
H751 C747 0.950 . S
H752 C749 0.950 . S
C753 C744 1.390 . S
C753 H746 0.950 . S
C753 C750 1.387 . S
C754 C755 1.387 . S
C754 H758 0.950 . S
C754 C763 1.390 . S
C755 C754 1.387 . S
C755 C757 1.387 . S
H756 C763 0.950 . S
C757 C755 1.387 . S
C757 C759 1.390 . S
C757 H761 0.950 . S
H758 C754 0.950 . S
C759 C757 1.390 . S
C759 C760 1.387 . S
C759 H762 0.950 . S
C760 C759 1.387 . S
C760 C763 1.387 . S
H761 C757 0.950 . S
H762 C759 0.950 . S
C763 C754 1.390 . S
C763 H756 0.950 . S
C763 C760 1.387 . S
C764 C765 1.387 . S
C764 H768 0.950 . S
C764 C773 1.390 . S
C765 C764 1.387 . S
C765 C767 1.387 . S
H766 C773 0.950 . S
C767 C765 1.387 . S
C767 C769 1.390 . S
C767 H771 0.950 . S
H768 C764 0.950 . S
C769 C767 1.390 . S
C769 C770 1.387 . S
C769 H772 0.950 1_556 S
C770 C769 1.387 . S
C770 C773 1.387 . S
H771 C767 0.950 . S
H772 C769 0.950 1_554 S
C773 C764 1.390 . S
C773 H766 0.950 . S
C773 C770 1.387 . S
C774 C775 1.387 . S
C774 H778 0.950 . S
C774 C783 1.390 . S
C775 C774 1.387 . S
C775 C777 1.387 . S
H776 C783 0.950 . S
C777 C775 1.387 . S
C777 C779 1.390 . S
C777 H781 0.950 . S
H778 C774 0.950 . S
C779 C777 1.390 . S
C779 C780 1.387 . S
C779 H782 0.950 . S
C780 C779 1.387 . S
C780 C783 1.387 . S
H781 C777 0.950 . S
H782 C779 0.950 . S
C783 C774 1.390 . S
C783 H776 0.950 . S
C783 C780 1.387 . S
C784 C785 1.387 1_565 S
C784 H788 0.950 . S
C784 C793 1.390 . S
C785 C784 1.387 1_545 S
C785 C787 1.387 . S
H786 C793 0.950 . S
C787 C785 1.387 . S
C787 C789 1.390 . S
C787 H791 0.950 . S
H788 C784 0.950 . S
C789 C787 1.390 . S
C789 C790 1.387 . S
C789 H792 0.950 . S
C790 C789 1.387 . S
C790 C793 1.387 1_545 S
H791 C787 0.950 . S
H792 C789 0.950 . S
C793 C784 1.390 . S
C793 H786 0.950 . S
C793 C790 1.387 1_565 S
C794 C795 1.387 . S
C794 H798 0.950 . S
C794 C803 1.390 . S
C795 C794 1.387 . S
C795 C797 1.387 . S
H796 C803 0.950 . S
C797 C795 1.387 . S
C797 C799 1.390 . S
C797 H801 0.950 . S
H798 C794 0.950 . S
C799 C797 1.390 . S
C799 C800 1.387 . S
C799 H802 0.950 . S
C800 C799 1.387 . S
C800 C803 1.387 . S
H801 C797 0.950 . S
H802 C799 0.950 . S
C803 C794 1.390 . S
C803 H796 0.950 . S
C803 C800 1.387 . S
C804 C805 1.387 1_565 S
C804 H808 0.950 . S
C804 C813 1.390 . S
C805 C804 1.387 1_545 S
C805 C807 1.387 . S
H806 C813 0.950 . S
C807 C805 1.387 . S
C807 C809 1.390 . S
C807 H811 0.950 . S
H808 C804 0.950 . S
C809 C807 1.390 . S
C809 C810 1.387 . S
C809 H812 0.950 . S
C810 C809 1.387 . S
C810 C813 1.387 1_545 S
H811 C807 0.950 . S
H812 C809 0.950 . S
C813 C804 1.390 . S
C813 H806 0.950 . S
C813 C810 1.387 1_565 S
C814 C815 1.387 . S
C814 H818 0.950 . S
C814 C823 1.390 . S
C815 C814 1.387 . S
C815 C817 1.387 . S
H816 C823 0.950 . S
C817 C815 1.387 . S
C817 C819 1.390 . S
C817 H821 0.950 . S
H818 C814 0.950 . S
C819 C817 1.390 . S
C819 C820 1.387 . S
C819 H822 0.950 . S
C820 C819 1.387 . S
C820 C823 1.387 . S
H821 C817 0.950 . S
H822 C819 0.950 . S
C823 C814 1.390 . S
C823 H816 0.950 . S
C823 C820 1.387 . S
C824 C825 1.387 . S
C824 H828 0.950 1_545 S
C824 C833 1.390 . S
C825 C824 1.387 . S
C825 C827 1.387 . S
H826 C833 0.950 1_565 S
C827 C825 1.387 . S
C827 C829 1.390 . S
C827 H831 0.950 . S
H828 C824 0.950 1_565 S
C829 C827 1.390 . S
C829 C830 1.387 . S
C829 H832 0.950 . S
C830 C829 1.387 . S
C830 C833 1.387 . S
H831 C827 0.950 . S
H832 C829 0.950 . S
C833 C824 1.390 . S
C833 H826 0.950 1_545 S
C833 C830 1.387 . S
C834 C835 1.387 . S
C834 H838 0.950 . S
C834 C843 1.390 . S
C835 C834 1.387 . S
C835 C837 1.387 . S
H836 C843 0.950 . S
C837 C835 1.387 . S
C837 C839 1.390 . S
C837 H841 0.950 . S
H838 C834 0.950 . S
C839 C837 1.390 . S
C839 C840 1.387 . S
C839 H842 0.950 . S
C840 C839 1.387 . S
C840 C843 1.387 . S
H841 C837 0.950 . S
H842 C839 0.950 . S
C843 C834 1.390 . S
C843 H836 0.950 . S
C843 C840 1.387 . S
C844 C845 1.387 . S
C844 H848 0.950 . S
C844 C853 1.390 . S
C845 C844 1.387 . S
C845 C847 1.387 1_565 S
H846 C853 0.950 . S
C847 C845 1.387 1_545 S
C847 C849 1.390 . S
C847 H851 0.950 . S
H848 C844 0.950 . S
C849 C847 1.390 . S
C849 C850 1.387 1_545 S
C849 H852 0.950 . S
C850 C849 1.387 1_565 S
C850 C853 1.387 . S
H851 C847 0.950 . S
H852 C849 0.950 . S
C853 C844 1.390 . S
C853 H846 0.950 . S
C853 C850 1.387 . S
C854 C855 1.387 . S
C854 H858 0.950 . S
C854 C863 1.390 . S
C855 C854 1.387 . S
C855 C857 1.387 . S
H856 C863 0.950 . S
C857 C855 1.387 . S
C857 C859 1.390 . S
C857 H861 0.950 . S
H858 C854 0.950 . S
C859 C857 1.390 . S
C859 C860 1.387 . S
C859 H862 0.950 . S
C860 C859 1.387 . S
C860 C863 1.387 . S
H861 C857 0.950 . S
H862 C859 0.950 . S
C863 C854 1.390 . S
C863 H856 0.950 . S
C863 C860 1.387 . S
C864 C865 1.387 . S
C864 H868 0.950 . S
C864 C873 1.390 . S
C865 C864 1.387 . S
C865 C867 1.387 1_554 S
H866 C873 0.950 . S
C867 C865 1.387 1_556 S
C867 C869 1.390 . S
C867 H871 0.950 . S
H868 C864 0.950 . S
C869 C867 1.390 . S
C869 C870 1.387 . S
C869 H872 0.950 . S
C870 C869 1.387 . S
C870 C873 1.387 1_556 S
H871 C867 0.950 . S
H872 C869 0.950 . S
C873 C864 1.390 . S
C873 H866 0.950 . S
C873 C870 1.387 1_554 S
C874 C875 1.387 1_556 S
C874 H878 0.950 . S
C874 C883 1.390 . S
C875 C874 1.387 1_554 S
C875 C877 1.387 . S
H876 C883 0.950 . S
C877 C875 1.387 . S
C877 C879 1.390 . S
C877 H881 0.950 . S
H878 C874 0.950 . S
C879 C877 1.390 . S
C879 C880 1.387 . S
C879 H882 0.950 . S
C880 C879 1.387 . S
C880 C883 1.387 1_554 S
H881 C877 0.950 . S
H882 C879 0.950 . S
C883 C874 1.390 . S
C883 H876 0.950 . S
C883 C880 1.387 1_556 S
C884 C885 1.387 . S
C884 H888 0.950 . S
C884 C893 1.390 . S
C885 C884 1.387 . S
C885 C887 1.387 . S
H886 C893 0.950 . S
C887 C885 1.387 . S
C887 C889 1.390 . S
C887 H891 0.950 . S
H888 C884 0.950 . S
C889 C887 1.390 . S
C889 C890 1.387 . S
C889 H892 0.950 . S
C890 C889 1.387 . S
C890 C893 1.387 . S
H891 C887 0.950 . S
H892 C889 0.950 . S
C893 C884 1.390 . S
C893 H886 0.950 . S
C893 C890 1.387 . S
C894 C895 1.387 . S
C894 H898 0.950 . S
C894 C903 1.390 . S
C895 C894 1.387 . S
C895 C897 1.387 . S
H896 C903 0.950 . S
C897 C895 1.387 . S
C897 C899 1.390 . S
C897 H901 0.950 . S
H898 C894 0.950 . S
C899 C897 1.390 . S
C899 C900 1.387 . S
C899 H902 0.950 . S
C900 C899 1.387 . S
C900 C903 1.387 . S
H901 C897 0.950 . S
H902 C899 0.950 . S
C903 C894 1.390 . S
C903 H896 0.950 . S
C903 C900 1.387 . S
C904 C905 1.387 . S
C904 H908 0.950 . S
C904 C913 1.390 . S
C905 C904 1.387 . S
C905 C907 1.387 . S
H906 C913 0.950 . S
C907 C905 1.387 . S
C907 C909 1.390 . S
C907 H911 0.950 . S
H908 C904 0.950 . S
C909 C907 1.390 . S
C909 C910 1.387 . S
C909 H912 0.950 . S
C910 C909 1.387 . S
C910 C913 1.387 . S
H911 C907 0.950 . S
H912 C909 0.950 . S
C913 C904 1.390 . S
C913 H906 0.950 . S
C913 C910 1.387 . S
C914 C915 1.387 . S
C914 H918 0.950 . S
C914 C923 1.390 . S
C915 C914 1.387 . S
C915 C917 1.387 . S
H916 C923 0.950 . S
C917 C915 1.387 . S
C917 C919 1.390 . S
C917 H921 0.950 . S
H918 C914 0.950 . S
C919 C917 1.390 . S
C919 C920 1.387 . S
C919 H922 0.950 . S
C920 C919 1.387 . S
C920 C923 1.387 . S
H921 C917 0.950 . S
H922 C919 0.950 . S
C923 C914 1.390 . S
C923 H916 0.950 . S
C923 C920 1.387 . S
C924 C925 1.387 . S
C924 H928 0.950 . S
C924 C933 1.390 . S
C925 C924 1.387 . S
C925 C927 1.387 . S
H926 C933 0.950 . S
C927 C925 1.387 . S
C927 C929 1.390 . S
C927 H931 0.950 . S
H928 C924 0.950 . S
C929 C927 1.390 . S
C929 C930 1.387 . S
C929 H932 0.950 . S
C930 C929 1.387 . S
C930 C933 1.387 . S
H931 C927 0.950 . S
H932 C929 0.950 . S
C933 C924 1.390 . S
C933 H926 0.950 . S
C933 C930 1.387 . S
C934 C935 1.387 . S
C934 H938 0.950 . S
C934 C943 1.390 . S
C935 C934 1.387 . S
C935 C937 1.387 . S
H936 C943 0.950 . S
C937 C935 1.387 . S
C937 C939 1.390 . S
C937 H941 0.950 . S
H938 C934 0.950 . S
C939 C937 1.390 . S
C939 C940 1.387 . S
C939 H942 0.950 . S
C940 C939 1.387 . S
C940 C943 1.387 . S
H941 C937 0.950 . S
H942 C939 0.950 . S
C943 C934 1.390 . S
C943 H936 0.950 . S
C943 C940 1.387 . S
C944 C945 1.387 . S
C944 H948 0.950 . S
C944 C953 1.390 . S
C945 C944 1.387 . S
C945 C947 1.387 1_455 S
H946 C953 0.950 . S
C947 C945 1.387 1_655 S
C947 C949 1.390 . S
C947 H951 0.950 . S
H948 C944 0.950 . S
C949 C947 1.390 . S
C949 C950 1.387 1_655 S
C949 H952 0.950 . S
C950 C949 1.387 1_455 S
C950 C953 1.387 . S
H951 C947 0.950 . S
H952 C949 0.950 . S
C953 C944 1.390 . S
C953 H946 0.950 . S
C953 C950 1.387 . S
C954 C955 1.387 . S
C954 H958 0.950 . S
C954 C963 1.390 . S
C955 C954 1.387 . S
C955 C957 1.387 . S
H956 C963 0.950 . S
C957 C955 1.387 . S
C957 C959 1.390 . S
C957 H961 0.950 . S
H958 C954 0.950 . S
C959 C957 1.390 . S
C959 C960 1.387 . S
C959 H962 0.950 . S
C960 C959 1.387 . S
C960 C963 1.387 . S
H961 C957 0.950 . S
H962 C959 0.950 . S
C963 C954 1.390 . S
C963 H956 0.950 . S
C963 C960 1.387 . S
C964 C965 1.387 . S
C964 H968 0.950 . S
C964 C973 1.390 . S
C965 C964 1.387 . S
C965 C967 1.387 . S
H966 C973 0.950 . S
C967 C965 1.387 . S
C967 C969 1.390 . S
C967 H971 0.950 . S
H968 C964 0.950 . S
C969 C967 1.390 . S
C969 C970 1.387 . S
C969 H972 0.950 . S
C970 C969 1.387 . S
C970 C973 1.387 . S
H971 C967 0.950 . S
H972 C969 0.950 . S
C973 C964 1.390 . S
C973 H966 0.950 . S
C973 C970 1.387 . S
C974 C975 1.387 . S
C974 H978 0.950 . S
C974 C983 1.390 . S
C975 C974 1.387 . S
C975 C977 1.387 . S
H976 C983 0.950 . S
C977 C975 1.387 . S
C977 C979 1.390 . S
C977 H981 0.950 . S
H978 C974 0.950 . S
C979 C977 1.390 . S
C979 C980 1.387 . S
C979 H982 0.950 . S
C980 C979 1.387 . S
C980 C983 1.387 . S
H981 C977 0.950 . S
H982 C979 0.950 . S
C983 C974 1.390 . S
C983 H976 0.950 . S
C983 C980 1.387 . S
C984 C985 1.387 . S
C984 H988 0.950 . S
C984 C993 1.390 . S
C985 C984 1.387 . S
C985 C987 1.387 . S
H986 C993 0.950 . S
C987 C985 1.387 . S
C987 C989 1.390 . S
C987 H991 0.950 . S
H988 C984 0.950 . S
C989 C987 1.390 . S
C989 C990 1.387 . S
C989 H992 0.950 . S
C990 C989 1.387 . S
C990 C993 1.387 . S
H991 C987 0.950 . S
H992 C989 0.950 . S
C993 C984 1.390 . S
C993 H986 0.950 . S
C993 C990 1.387 . S
C994 C995 1.387 . S
C994 H998 0.950 . S
C994 C1003 1.390 . S
C995 C994 1.387 . S
C995 C997 1.387 . S
H996 C1003 0.950 . S
C997 C995 1.387 . S
C997 C999 1.390 . S
C997 H1001 0.950 . S
H998 C994 0.950 . S
C999 C997 1.390 . S
C999 C1000 1.387 . S
C999 H1002 0.950 . S
C1000 C999 1.387 . S
C1000 C1003 1.387 . S
H1001 C997 0.950 . S
H1002 C999 0.950 . S
C1003 C994 1.390 . S
C1003 H996 0.950 . S
C1003 C1000 1.387 . S
C1004 C1005 1.387 . S
C1004 H1008 0.950 . S
C1004 C1013 1.390 . S
C1005 C1004 1.387 . S
C1005 C1007 1.387 . S
H1006 C1013 0.950 . S
C1007 C1005 1.387 . S
C1007 C1009 1.390 . S
C1007 H1011 0.950 . S
H1008 C1004 0.950 . S
C1009 C1007 1.390 . S
C1009 C1010 1.387 . S
C1009 H1012 0.950 . S
C1010 C1009 1.387 . S
C1010 C1013 1.387 . S
H1011 C1007 0.950 . S
H1012 C1009 0.950 . S
C1013 C1004 1.390 . S
C1013 H1006 0.950 . S
C1013 C1010 1.387 . S
C1014 C1015 1.387 . S
C1014 H1018 0.950 . S
C1014 C1023 1.390 . S
C1015 C1014 1.387 . S
C1015 C1017 1.387 . S
H1016 C1023 0.950 . S
C1017 C1015 1.387 . S
C1017 C1019 1.390 . S
C1017 H1021 0.950 . S
H1018 C1014 0.950 . S
C1019 C1017 1.390 . S
C1019 C1020 1.387 . S
C1019 H1022 0.950 . S
C1020 C1019 1.387 . S
C1020 C1023 1.387 . S
H1021 C1017 0.950 . S
H1022 C1019 0.950 . S
C1023 C1014 1.390 . S
C1023 H1016 0.950 . S
C1023 C1020 1.387 . S
C1024 C1025 1.387 . S
C1024 H1028 0.950 1_545 S
C1024 C1033 1.390 . S
C1025 C1024 1.387 . S
C1025 C1027 1.387 . S
H1026 C1033 0.950 . S
C1027 C1025 1.387 . S
C1027 C1029 1.390 . S
C1027 H1031 0.950 . S
H1028 C1024 0.950 1_565 S
C1029 C1027 1.390 . S
C1029 C1030 1.387 . S
C1029 H1032 0.950 . S
C1030 C1029 1.387 . S
C1030 C1033 1.387 . S
H1031 C1027 0.950 . S
H1032 C1029 0.950 . S
C1033 C1024 1.390 . S
C1033 H1026 0.950 . S
C1033 C1030 1.387 . S
C1034 C1035 1.387 . S
C1034 H1038 0.950 . S
C1034 C1043 1.390 . S
C1035 C1034 1.387 . S
C1035 C1037 1.387 . S
H1036 C1043 0.950 . S
C1037 C1035 1.387 . S
C1037 C1039 1.390 . S
C1037 H1041 0.950 . S
H1038 C1034 0.950 . S
C1039 C1037 1.390 . S
C1039 C1040 1.387 . S
C1039 H1042 0.950 . S
C1040 C1039 1.387 . S
C1040 C1043 1.387 . S
H1041 C1037 0.950 . S
H1042 C1039 0.950 . S
C1043 C1034 1.390 . S
C1043 H1036 0.950 . S
C1043 C1040 1.387 . S
C1044 C1045 1.387 1_565 S
C1044 H1048 0.950 . S
C1044 C1053 1.390 . S
C1045 C1044 1.387 1_545 S
C1045 C1047 1.387 . S
H1046 C1053 0.950 . S
C1047 C1045 1.387 . S
C1047 C1049 1.390 . S
C1047 H1051 0.950 . S
H1048 C1044 0.950 . S
C1049 C1047 1.390 . S
C1049 C1050 1.387 1_545 S
C1049 H1052 0.950 . S
C1050 C1049 1.387 1_565 S
C1050 C1053 1.387 . S
H1051 C1047 0.950 . S
H1052 C1049 0.950 . S
C1053 C1044 1.390 . S
C1053 H1046 0.950 . S
C1053 C1050 1.387 . S
C1054 C1055 1.387 . S
C1054 H1058 0.950 . S
C1054 C1063 1.390 . S
C1055 C1054 1.387 . S
C1055 C1057 1.387 . S
H1056 C1063 0.950 . S
C1057 C1055 1.387 . S
C1057 C1059 1.390 . S
C1057 H1061 0.950 . S
H1058 C1054 0.950 . S
C1059 C1057 1.390 . S
C1059 C1060 1.387 . S
C1059 H1062 0.950 . S
C1060 C1059 1.387 . S
C1060 C1063 1.387 . S
H1061 C1057 0.950 . S
H1062 C1059 0.950 . S
C1063 C1054 1.390 . S
C1063 H1056 0.950 . S
C1063 C1060 1.387 . S
C1064 C1065 1.387 . S
C1064 H1068 0.950 . S
C1064 C1073 1.390 . S
C1065 C1064 1.387 . S
C1065 C1067 1.387 1_545 S
H1066 C1073 0.950 . S
C1067 C1065 1.387 1_565 S
C1067 C1069 1.390 . S
C1067 H1071 0.950 . S
H1068 C1064 0.950 . S
C1069 C1067 1.390 . S
C1069 C1070 1.387 . S
C1069 H1072 0.950 . S
C1070 C1069 1.387 . S
C1070 C1073 1.387 1_565 S
H1071 C1067 0.950 . S
H1072 C1069 0.950 . S
C1073 C1064 1.390 . S
C1073 H1066 0.950 . S
C1073 C1070 1.387 1_545 S
C1074 C1075 1.387 . S
C1074 H1078 0.950 . S
C1074 C1083 1.390 . S
C1075 C1074 1.387 . S
C1075 C1077 1.387 . S
H1076 C1083 0.950 . S
C1077 C1075 1.387 . S
C1077 C1079 1.390 . S
C1077 H1081 0.950 . S
H1078 C1074 0.950 . S
C1079 C1077 1.390 . S
C1079 C1080 1.387 . S
C1079 H1082 0.950 . S
C1080 C1079 1.387 . S
C1080 C1083 1.387 . S
H1081 C1077 0.950 . S
H1082 C1079 0.950 . S
C1083 C1074 1.390 . S
C1083 H1076 0.950 . S
C1083 C1080 1.387 . S
C1084 C1085 1.387 . S
C1084 H1088 0.950 . S
C1084 C1093 1.390 . S
C1085 C1084 1.387 . S
C1085 C1087 1.387 . S
H1086 C1093 0.950 . S
C1087 C1085 1.387 . S
C1087 C1089 1.390 . S
C1087 H1091 0.956 . S
H1088 C1084 0.950 . S
C1089 C1087 1.390 . S
C1089 C1090 1.387 . S
C1089 H1092 0.950 . S
C1090 C1089 1.387 . S
C1090 C1093 1.387 . S
H1091 C1087 0.956 . S
H1092 C1089 0.950 . S
C1093 C1084 1.390 . S
C1093 H1086 0.950 . S
C1093 C1090 1.387 . S
C1094 C1095 1.387 . S
C1094 H1098 0.950 . S
C1094 C1103 1.390 . S
C1095 C1094 1.387 . S
C1095 C1097 1.387 . S
H1096 C1103 0.950 . S
C1097 C1095 1.387 . S
C1097 C1099 1.390 . S
C1097 H1101 0.950 . S
H1098 C1094 0.950 . S
C1099 C1097 1.390 . S
C1099 C1100 1.387 . S
C1099 H1102 0.950 . S
C1100 C1099 1.387 . S
C1100 C1103 1.387 . S
H1101 C1097 0.950 . S
H1102 C1099 0.950 . S
C1103 C1094 1.390 . S
C1103 H1096 0.950 . S
C1103 C1100 1.387 . S
C1104 C1105 1.387 . S
C1104 H1108 0.950 . S
C1104 C1113 1.390 . S
C1105 C1104 1.387 . S
C1105 C1107 1.387 1_554 S
H1106 C1113 0.950 . S
C1107 C1105 1.387 1_556 S
C1107 C1109 1.390 1_556 S
C1107 H1111 0.950 . S
H1108 C1104 0.950 . S
C1109 C1107 1.390 1_554 S
C1109 C1110 1.387 . S
C1109 H1112 0.950 1_554 S
C1110 C1109 1.387 . S
C1110 C1113 1.387 . S
H1111 C1107 0.950 . S
H1112 C1109 0.950 1_556 S
C1113 C1104 1.390 . S
C1113 H1106 0.950 . S
C1113 C1110 1.387 . S
C1114 C1115 1.411 . S
C1114 H1118 0.950 . S
C1114 C1123 1.390 . S
C1115 C1114 1.411 . S
C1115 C1117 1.372 1_556 S
H1116 C1123 0.950 . S
C1117 C1115 1.372 1_554 S
C1117 C1119 1.390 . S
C1117 H1121 0.950 . S
H1118 C1114 0.950 . S
C1119 C1117 1.390 . S
C1119 C1120 1.387 1_554 S
C1119 H1122 0.950 . S
C1120 C1119 1.387 1_556 S
C1120 C1123 1.387 . S
H1121 C1117 0.950 . S
H1122 C1119 0.950 . S
C1123 C1114 1.390 . S
C1123 H1116 0.950 . S
C1123 C1120 1.387 . S
C1124 C1125 1.387 . S
C1124 H1128 0.950 . S
C1124 C1133 1.390 . S
C1125 C1124 1.387 . S
C1125 C1127 1.387 . S
H1126 C1133 0.950 . S
C1127 C1125 1.387 . S
C1127 C1129 1.390 . S
C1127 H1131 0.950 . S
H1128 C1124 0.950 . S
C1129 C1127 1.390 . S
C1129 C1130 1.387 . S
C1129 H1132 0.950 . S
C1130 C1129 1.387 . S
C1130 C1133 1.387 . S
H1131 C1127 0.950 . S
H1132 C1129 0.950 . S
C1133 C1124 1.390 . S
C1133 H1126 0.950 . S
C1133 C1130 1.387 . S
C1134 C1135 1.387 . S
C1134 H1138 0.950 . S
C1134 C1143 1.390 . S
C1135 C1134 1.387 . S
C1135 C1137 1.387 . S
H1136 C1143 0.950 . S
C1137 C1135 1.387 . S
C1137 C1139 1.390 . S
C1137 H1141 0.950 . S
H1138 C1134 0.950 . S
C1139 C1137 1.390 . S
C1139 C1140 1.387 . S
C1139 H1142 0.950 . S
C1140 C1139 1.387 . S
C1140 C1143 1.387 . S
H1141 C1137 0.950 . S
H1142 C1139 0.950 . S
C1143 C1134 1.390 . S
C1143 H1136 0.950 . S
C1143 C1140 1.387 . S
C1144 C1145 1.387 . S
C1144 H1148 0.950 . S
C1144 C1153 1.390 . S
C1145 C1144 1.387 . S
C1145 C1147 1.387 . S
H1146 C1153 0.950 . S
C1147 C1145 1.387 . S
C1147 C1149 1.390 . S
C1147 H1151 0.950 . S
H1148 C1144 0.950 . S
C1149 C1147 1.390 . S
C1149 C1150 1.387 . S
C1149 H1152 0.950 . S
C1150 C1149 1.387 . S
C1150 C1153 1.387 . S
H1151 C1147 0.950 . S
H1152 C1149 0.950 . S
C1153 C1144 1.390 . S
C1153 H1146 0.950 . S
C1153 C1150 1.387 . S
C1154 C1155 1.387 . S
C1154 H1158 0.950 . S
C1154 C1163 1.390 . S
C1155 C1154 1.387 . S
C1155 C1157 1.387 . S
H1156 C1163 0.950 . S
C1157 C1155 1.387 . S
C1157 C1159 1.390 . S
C1157 H1161 0.950 . S
H1158 C1154 0.950 . S
C1159 C1157 1.390 . S
C1159 C1160 1.387 . S
C1159 H1162 0.950 . S
C1160 C1159 1.387 . S
C1160 C1163 1.387 . S
H1161 C1157 0.950 . S
H1162 C1159 0.950 . S
C1163 C1154 1.390 . S
C1163 H1156 0.950 . S
C1163 C1160 1.387 . S
C1164 C1165 1.387 . S
C1164 H1168 0.950 . S
C1164 C1173 1.390 . S
C1165 C1164 1.387 . S
C1165 C1167 1.387 . S
H1166 C1173 0.950 . S
C1167 C1165 1.387 . S
C1167 C1169 1.390 . S
C1167 H1171 0.950 . S
H1168 C1164 0.950 . S
C1169 C1167 1.390 . S
C1169 C1170 1.387 . S
C1169 H1172 0.950 . S
C1170 C1169 1.387 . S
C1170 C1173 1.387 . S
H1171 C1167 0.950 . S
H1172 C1169 0.950 . S
C1173 C1164 1.390 . S
C1173 H1166 0.950 . S
C1173 C1170 1.387 . S
C1174 C1175 1.387 . S
C1174 H1178 0.950 . S
C1174 C1183 1.390 . S
C1175 C1174 1.387 . S
C1175 C1177 1.387 . S
H1176 C1183 0.950 . S
C1177 C1175 1.387 . S
C1177 C1179 1.390 . S
C1177 H1181 0.950 . S
H1178 C1174 0.950 . S
C1179 C1177 1.390 . S
C1179 C1180 1.387 . S
C1179 H1182 0.950 . S
C1180 C1179 1.387 . S
C1180 C1183 1.387 . S
H1181 C1177 0.950 . S
H1182 C1179 0.950 . S
C1183 C1174 1.390 . S
C1183 H1176 0.950 . S
C1183 C1180 1.387 . S
C1184 C1185 1.387 . S
C1184 H1188 0.950 . S
C1184 C1193 1.390 . S
C1185 C1184 1.387 . S
C1185 C1187 1.387 . S
H1186 C1193 0.950 . S
C1187 C1185 1.387 . S
C1187 C1189 1.390 . S
C1187 H1191 0.950 . S
H1188 C1184 0.950 . S
C1189 C1187 1.390 . S
C1189 C1190 1.387 . S
C1189 H1192 0.950 . S
C1190 C1189 1.387 . S
C1190 C1193 1.387 . S
H1191 C1187 0.950 . S
H1192 C1189 0.950 . S
C1193 C1184 1.390 . S
C1193 H1186 0.950 . S
C1193 C1190 1.387 . S
C1194 C1195 1.387 . S
C1194 H1198 0.950 . S
C1194 C1203 1.390 . S
C1195 C1194 1.387 . S
C1195 C1197 1.387 . S
H1196 C1203 0.950 . S
C1197 C1195 1.387 . S
C1197 C1199 1.390 . S
C1197 H1201 0.950 . S
H1198 C1194 0.950 . S
C1199 C1197 1.390 . S
C1199 C1200 1.387 . S
C1199 H1202 0.950 . S
C1200 C1199 1.387 . S
C1200 C1203 1.387 . S
H1201 C1197 0.950 . S
H1202 C1199 0.950 . S
C1203 C1194 1.390 . S
C1203 H1196 0.950 . S
C1203 C1200 1.387 . S
C1204 C1205 1.387 . S
C1204 H1208 0.950 1_455 S
C1204 C1213 1.390 . S
C1205 C1204 1.387 . S
C1205 C1207 1.387 . S
H1206 C1213 0.950 1_655 S
C1207 C1205 1.387 . S
C1207 C1209 1.390 . S
C1207 H1211 0.950 . S
H1208 C1204 0.950 1_655 S
C1209 C1207 1.390 . S
C1209 C1210 1.387 . S
C1209 H1212 0.950 . S
C1210 C1209 1.387 . S
C1210 C1213 1.387 . S
H1211 C1207 0.950 . S
H1212 C1209 0.950 . S
C1213 C1204 1.390 . S
C1213 H1206 0.950 1_455 S
C1213 C1210 1.387 . S
C1214 C1215 1.387 . S
C1214 H1218 0.950 . S
C1214 C1223 1.390 . S
C1215 C1214 1.387 . S
C1215 C1217 1.387 . S
H1216 C1223 0.950 . S
C1217 C1215 1.387 . S
C1217 C1219 1.390 . S
C1217 H1221 0.950 . S
H1218 C1214 0.950 . S
C1219 C1217 1.390 . S
C1219 C1220 1.387 . S
C1219 H1222 0.950 . S
C1220 C1219 1.387 . S
C1220 C1223 1.387 . S
H1221 C1217 0.950 . S
H1222 C1219 0.950 . S
C1223 C1214 1.390 . S
C1223 H1216 0.950 . S
C1223 C1220 1.387 . S
C1224 C1225 1.387 . S
C1224 H1228 0.950 . S
C1224 C1233 1.390 . S
C1225 C1224 1.387 . S
C1225 C1227 1.387 . S
H1226 C1233 0.950 1_554 S
C1227 C1225 1.387 . S
C1227 C1229 1.390 . S
C1227 H1231 0.950 . S
H1228 C1224 0.950 . S
C1229 C1227 1.390 . S
C1229 C1230 1.387 . S
C1229 H1232 0.950 . S
C1230 C1229 1.387 . S
C1230 C1233 1.387 . S
H1231 C1227 0.950 . S
H1232 C1229 0.950 . S
C1233 C1224 1.390 . S
C1233 H1226 0.950 1_556 S
C1233 C1230 1.387 . S
C1234 C1235 1.387 . S
C1234 H1238 0.950 . S
C1234 C1243 1.390 . S
C1235 C1234 1.387 . S
C1235 C1237 1.387 . S
H1236 C1243 0.950 . S
C1237 C1235 1.387 . S
C1237 C1239 1.390 . S
C1237 H1241 0.950 . S
H1238 C1234 0.950 . S
C1239 C1237 1.390 . S
C1239 C1240 1.387 . S
C1239 H1242 0.950 . S
C1240 C1239 1.387 . S
C1240 C1243 1.387 . S
H1241 C1237 0.950 . S
H1242 C1239 0.950 . S
C1243 C1234 1.390 . S
C1243 H1236 0.950 . S
C1243 C1240 1.387 . S
C1244 C1245 1.387 . S
C1244 H1248 0.950 1_455 S
C1244 C1253 1.390 . S
C1245 C1244 1.387 . S
C1245 C1247 1.387 . S
H1246 C1253 0.950 . S
C1247 C1245 1.387 . S
C1247 C1249 1.390 . S
C1247 H1251 0.950 . S
H1248 C1244 0.950 1_655 S
C1249 C1247 1.390 . S
C1249 C1250 1.387 . S
C1249 H1252 0.950 . S
C1250 C1249 1.387 . S
C1250 C1253 1.387 . S
H1251 C1247 0.950 . S
H1252 C1249 0.950 . S
C1253 C1244 1.390 . S
C1253 H1246 0.950 . S
C1253 C1250 1.387 . S
C1254 C1255 1.387 . S
C1254 H1258 0.950 . S
C1254 C1263 1.390 . S
C1255 C1254 1.387 . S
C1255 C1257 1.387 . S
H1256 C1263 0.950 . S
C1257 C1255 1.387 . S
C1257 C1259 1.390 . S
C1257 H1261 0.950 . S
H1258 C1254 0.950 . S
C1259 C1257 1.390 . S
C1259 C1260 1.387 . S
C1259 H1262 0.950 . S
C1260 C1259 1.387 . S
C1260 C1263 1.387 . S
H1261 C1257 0.950 . S
H1262 C1259 0.950 . S
C1263 C1254 1.390 . S
C1263 H1256 0.950 . S
C1263 C1260 1.387 . S
C1264 C1265 1.387 . S
C1264 H1268 0.950 . S
C1264 C1273 1.390 . S
C1265 C1264 1.387 . S
C1265 C1267 1.387 . S
H1266 C1273 0.950 . S
C1267 C1265 1.387 . S
C1267 C1269 1.390 . S
C1267 H1271 0.950 . S
H1268 C1264 0.950 . S
C1269 C1267 1.390 . S
C1269 C1270 1.387 . S
C1269 H1272 0.950 . S
C1270 C1269 1.387 . S
C1270 C1273 1.387 . S
H1271 C1267 0.950 . S
H1272 C1269 0.950 . S
C1273 C1264 1.390 . S
C1273 H1266 0.950 . S
C1273 C1270 1.387 . S
C1274 C1275 1.387 . S
C1274 H1278 0.950 . S
C1274 C1283 1.390 . S
C1275 C1274 1.387 . S
C1275 C1277 1.387 . S
H1276 C1283 0.950 . S
C1277 C1275 1.387 . S
C1277 C1279 1.390 . S
C1277 H1281 0.950 . S
H1278 C1274 0.950 . S
C1279 C1277 1.390 . S
C1279 C1280 1.387 . S
C1279 H1282 0.950 . S
C1280 C1279 1.387 . S
C1280 C1283 1.387 . S
H1281 C1277 0.950 . S
H1282 C1279 0.950 . S
C1283 C1274 1.390 . S
C1283 H1276 0.950 . S
C1283 C1280 1.387 . S
C1284 C1285 1.387 . S
C1284 H1288 0.950 . S
C1284 C1293 1.390 . S
C1285 C1284 1.387 . S
C1285 C1287 1.387 . S
H1286 C1293 0.950 . S
C1287 C1285 1.387 . S
C1287 C1289 1.390 . S
C1287 H1291 0.950 . S
H1288 C1284 0.950 . S
C1289 C1287 1.390 . S
C1289 C1290 1.387 . S
C1289 H1292 0.950 . S
C1290 C1289 1.387 . S
C1290 C1293 1.387 . S
H1291 C1287 0.950 . S
H1292 C1289 0.950 . S
C1293 C1284 1.390 . S
C1293 H1286 0.950 . S
C1293 C1290 1.387 . S
C1294 C1295 1.387 . S
C1294 H1298 0.950 . S
C1294 C1303 1.390 . S
C1295 C1294 1.387 . S
C1295 C1297 1.387 . S
H1296 C1303 0.950 . S
C1297 C1295 1.387 . S
C1297 C1299 1.390 . S
C1297 H1301 0.950 . S
H1298 C1294 0.950 . S
C1299 C1297 1.390 . S
C1299 C1300 1.387 . S
C1299 H1302 0.950 . S
C1300 C1299 1.387 . S
C1300 C1303 1.387 . S
H1301 C1297 0.950 . S
H1302 C1299 0.950 . S
C1303 C1294 1.390 . S
C1303 H1296 0.950 . S
C1303 C1300 1.387 . S
C1304 C1305 1.387 . S
C1304 H1308 0.950 . S
C1304 C1313 1.390 . S
C1305 C1304 1.387 . S
C1305 C1307 1.387 . S
H1306 C1313 0.950 . S
C1307 C1305 1.387 . S
C1307 C1309 1.390 . S
C1307 H1311 0.950 . S
H1308 C1304 0.950 . S
C1309 C1307 1.390 . S
C1309 C1310 1.387 . S
C1309 H1312 0.950 . S
C1310 C1309 1.387 . S
C1310 C1313 1.387 . S
H1311 C1307 0.950 . S
H1312 C1309 0.950 . S
C1313 C1304 1.390 . S
C1313 H1306 0.950 . S
C1313 C1310 1.387 . S
C1314 C1315 1.387 . S
C1314 H1318 0.950 . S
C1314 C1323 1.390 . S
C1315 C1314 1.387 . S
C1315 C1317 1.387 . S
H1316 C1323 0.950 . S
C1317 C1315 1.387 . S
C1317 C1319 1.390 . S
C1317 H1321 0.950 . S
H1318 C1314 0.950 . S
C1319 C1317 1.390 . S
C1319 C1320 1.387 . S
C1319 H1322 0.950 . S
C1320 C1319 1.387 . S
C1320 C1323 1.387 . S
H1321 C1317 0.950 . S
H1322 C1319 0.950 . S
C1323 C1314 1.390 . S
C1323 H1316 0.950 . S
C1323 C1320 1.387 . S
C1324 C1325 1.387 . S
C1324 H1328 0.950 . S
C1324 C1333 1.390 . S
C1325 C1324 1.387 . S
C1325 C1327 1.387 . S
H1326 C1333 0.950 . S
C1327 C1325 1.387 . S
C1327 C1329 1.390 . S
C1327 H1331 0.950 . S
H1328 C1324 0.950 . S
C1329 C1327 1.390 . S
C1329 C1330 1.387 . S
C1329 H1332 0.950 . S
C1330 C1329 1.387 . S
C1330 C1333 1.387 . S
H1331 C1327 0.950 . S
H1332 C1329 0.950 . S
C1333 C1324 1.390 . S
C1333 H1326 0.950 . S
C1333 C1330 1.387 . S
C1334 C1335 1.387 . S
C1334 H1338 0.950 . S
C1334 C1343 1.390 . S
C1335 C1334 1.387 . S
C1335 C1337 1.387 . S
H1336 C1343 0.950 . S
C1337 C1335 1.387 . S
C1337 C1339 1.390 . S
C1337 H1341 0.950 . S
H1338 C1334 0.950 . S
C1339 C1337 1.390 . S
C1339 C1340 1.387 . S
C1339 H1342 0.950 . S
C1340 C1339 1.387 . S
C1340 C1343 1.387 . S
H1341 C1337 0.950 . S
H1342 C1339 0.950 . S
C1343 C1334 1.390 . S
C1343 H1336 0.950 . S
C1343 C1340 1.387 . S
C1344 C1345 1.387 . S
C1344 H1348 0.950 . S
C1344 C1353 1.390 . S
C1345 C1344 1.387 . S
C1345 C1347 1.387 . S
H1346 C1353 0.950 . S
C1347 C1345 1.387 . S
C1347 C1349 1.390 . S
C1347 H1351 0.950 . S
H1348 C1344 0.950 . S
C1349 C1347 1.390 . S
C1349 C1350 1.387 . S
C1349 H1352 0.950 . S
C1350 C1349 1.387 . S
C1350 C1353 1.387 . S
H1351 C1347 0.950 . S
H1352 C1349 0.950 . S
C1353 C1344 1.390 . S
C1353 H1346 0.950 . S
C1353 C1350 1.387 . S
C1354 C1355 1.387 . S
C1354 H1358 0.950 . S
C1354 C1363 1.390 . S
C1355 C1354 1.387 . S
C1355 C1357 1.387 . S
H1356 C1363 0.950 . S
C1357 C1355 1.387 . S
C1357 C1359 1.390 . S
C1357 H1361 0.950 . S
H1358 C1354 0.950 . S
C1359 C1357 1.390 . S
C1359 C1360 1.387 . S
C1359 H1362 0.950 . S
C1360 C1359 1.387 . S
C1360 C1363 1.387 . S
H1361 C1357 0.950 . S
H1362 C1359 0.950 . S
C1363 C1354 1.390 . S
C1363 H1356 0.950 . S
C1363 C1360 1.387 . S
C1364 C1365 1.387 . S
C1364 H1368 0.950 . S
C1364 C1373 1.390 . S
C1365 C1364 1.387 . S
C1365 C1367 1.387 . S
H1366 C1373 0.950 . S
C1367 C1365 1.387 . S
C1367 C1369 1.390 . S
C1367 H1371 0.950 . S
H1368 C1364 0.950 . S
C1369 C1367 1.390 . S
C1369 C1370 1.387 . S
C1369 H1372 0.950 . S
C1370 C1369 1.387 . S
C1370 C1373 1.387 . S
H1371 C1367 0.950 . S
H1372 C1369 0.950 . S
C1373 C1364 1.390 . S
C1373 H1366 0.950 . S
C1373 C1370 1.387 . S
C1374 C1375 1.387 1_556 S
C1374 H1378 0.950 . S
C1374 C1383 1.390 . S
C1375 C1374 1.387 1_554 S
C1375 C1377 1.387 . S
H1376 C1383 0.950 . S
C1377 C1375 1.387 . S
C1377 C1379 1.390 . S
C1377 H1381 0.950 . S
H1378 C1374 0.950 . S
C1379 C1377 1.390 . S
C1379 C1380 1.387 . S
C1379 H1382 0.950 . S
C1380 C1379 1.387 . S
C1380 C1383 1.387 1_554 S
H1381 C1377 0.950 . S
H1382 C1379 0.950 . S
C1383 C1374 1.390 . S
C1383 H1376 0.950 . S
C1383 C1380 1.387 1_556 S
C1384 C1385 1.387 . S
C1384 H1388 0.950 . S
C1384 C1393 1.390 . S
C1385 C1384 1.387 . S
C1385 C1387 1.387 . S
H1386 C1393 0.950 . S
C1387 C1385 1.387 . S
C1387 C1389 1.390 . S
C1387 H1391 0.950 . S
H1388 C1384 0.950 . S
C1389 C1387 1.390 . S
C1389 C1390 1.387 . S
C1389 H1392 0.950 . S
C1390 C1389 1.387 . S
C1390 C1393 1.387 . S
H1391 C1387 0.950 . S
H1392 C1389 0.950 . S
C1393 C1384 1.390 . S
C1393 H1386 0.950 . S
C1393 C1390 1.387 . S
C1394 C1395 1.387 . S
C1394 H1398 0.950 . S
C1394 C1403 1.390 . S
C1395 C1394 1.387 . S
C1395 C1397 1.387 1_554 S
H1396 C1403 0.950 . S
C1397 C1395 1.387 1_556 S
C1397 C1399 1.390 . S
C1397 H1401 0.950 . S
H1398 C1394 0.950 . S
C1399 C1397 1.390 . S
C1399 C1400 1.387 . S
C1399 H1402 0.950 . S
C1400 C1399 1.387 . S
C1400 C1403 1.387 1_556 S
H1401 C1397 0.950 . S
H1402 C1399 0.950 . S
C1403 C1394 1.390 . S
C1403 H1396 0.950 . S
C1403 C1400 1.387 1_554 S
C1404 C1405 1.387 . S
C1404 H1408 0.950 . S
C1404 C1413 1.390 . S
C1405 C1404 1.387 . S
C1405 C1407 1.387 . S
H1406 C1413 0.950 . S
C1407 C1405 1.387 . S
C1407 C1409 1.390 . S
C1407 H1411 0.950 . S
H1408 C1404 0.950 . S
C1409 C1407 1.390 . S
C1409 C1410 1.387 . S
C1409 H1412 0.950 . S
C1410 C1409 1.387 . S
C1410 C1413 1.387 . S
H1411 C1407 0.950 . S
H1412 C1409 0.950 . S
C1413 C1404 1.390 . S
C1413 H1406 0.950 . S
C1413 C1410 1.387 . S
C1414 C1415 1.387 . S
C1414 H1418 0.950 . S
C1414 C1423 1.390 . S
C1415 C1414 1.387 . S
C1415 C1417 1.387 . S
H1416 C1423 0.950 . S
C1417 C1415 1.387 . S
C1417 C1419 1.390 . S
C1417 H1421 0.950 . S
H1418 C1414 0.950 . S
C1419 C1417 1.390 . S
C1419 C1420 1.387 . S
C1419 H1422 0.950 . S
C1420 C1419 1.387 . S
C1420 C1423 1.387 . S
H1421 C1417 0.950 . S
H1422 C1419 0.950 . S
C1423 C1414 1.390 . S
C1423 H1416 0.950 . S
C1423 C1420 1.387 . S
C1424 C1425 1.387 . S
C1424 H1428 0.950 . S
C1424 C1433 1.390 . S
C1425 C1424 1.387 . S
C1425 C1427 1.387 . S
H1426 C1433 0.950 . S
C1427 C1425 1.387 . S
C1427 C1429 1.390 . S
C1427 H1431 0.950 . S
H1428 C1424 0.950 . S
C1429 C1427 1.390 . S
C1429 C1430 1.387 . S
C1429 H1432 0.950 . S
C1430 C1429 1.387 . S
C1430 C1433 1.387 . S
H1431 C1427 0.950 . S
H1432 C1429 0.950 . S
C1433 C1424 1.390 . S
C1433 H1426 0.950 . S
C1433 C1430 1.387 . S
C1434 C1435 1.387 . S
C1434 H1438 0.950 . S
C1434 C1443 1.390 . S
C1435 C1434 1.387 . S
C1435 C1437 1.387 . S
H1436 C1443 0.950 . S
C1437 C1435 1.387 . S
C1437 C1439 1.390 . S
C1437 H1441 0.950 . S
H1438 C1434 0.950 . S
C1439 C1437 1.390 . S
C1439 C1440 1.387 . S
C1439 H1442 0.950 . S
C1440 C1439 1.387 . S
C1440 C1443 1.387 . S
H1441 C1437 0.950 . S
H1442 C1439 0.950 . S
C1443 C1434 1.390 . S
C1443 H1436 0.950 . S
C1443 C1440 1.387 . S
C1444 C1445 1.387 . S
C1444 H1448 0.950 . S
C1444 C1453 1.390 . S
C1445 C1444 1.387 . S
C1445 C1447 1.387 1_455 S
H1446 C1453 0.950 . S
C1447 C1445 1.387 1_655 S
C1447 C1449 1.390 . S
C1447 H1451 0.950 . S
H1448 C1444 0.950 . S
C1449 C1447 1.390 . S
C1449 C1450 1.387 . S
C1449 H1452 0.950 1_556 S
C1450 C1449 1.387 . S
C1450 C1453 1.387 1_655 S
H1451 C1447 0.950 . S
H1452 C1449 0.950 1_554 S
C1453 C1444 1.390 . S
C1453 H1446 0.950 . S
C1453 C1450 1.387 1_455 S
C1454 C1455 1.387 . S
C1454 H1458 0.950 . S
C1454 C1463 1.390 . S
C1455 C1454 1.387 . S
C1455 C1457 1.387 . S
H1456 C1463 0.950 . S
C1457 C1455 1.387 . S
C1457 C1459 1.390 . S
C1457 H1461 0.950 . S
H1458 C1454 0.950 . S
C1459 C1457 1.390 . S
C1459 C1460 1.387 . S
C1459 H1462 0.950 . S
C1460 C1459 1.387 . S
C1460 C1463 1.387 . S
H1461 C1457 0.950 . S
H1462 C1459 0.950 . S
C1463 C1454 1.390 . S
C1463 H1456 0.950 . S
C1463 C1460 1.387 . S
C1464 C1465 1.387 . S
C1464 H1468 0.950 . S
C1464 C1473 1.390 . S
C1465 C1464 1.387 . S
C1465 C1467 1.387 . S
H1466 C1473 0.950 . S
C1467 C1465 1.387 . S
C1467 C1469 1.390 . S
C1467 H1471 0.950 . S
H1468 C1464 0.950 . S
C1469 C1467 1.390 . S
C1469 C1470 1.387 . S
C1469 H1472 0.950 . S
C1470 C1469 1.387 . S
C1470 C1473 1.387 . S
H1471 C1467 0.950 . S
H1472 C1469 0.950 . S
C1473 C1464 1.390 . S
C1473 H1466 0.950 . S
C1473 C1470 1.387 . S
C1474 C1475 1.387 . S
C1474 H1478 0.950 . S
C1474 C1483 1.390 . S
C1475 C1474 1.387 . S
C1475 C1477 1.387 . S
H1476 C1483 0.950 . S
C1477 C1475 1.387 . S
C1477 C1479 1.390 . S
C1477 H1481 0.950 . S
H1478 C1474 0.950 . S
C1479 C1477 1.390 . S
C1479 C1480 1.387 . S
C1479 H1482 0.950 . S
C1480 C1479 1.387 . S
C1480 C1483 1.387 . S
H1481 C1477 0.950 . S
H1482 C1479 0.950 . S
C1483 C1474 1.390 . S
C1483 H1476 0.950 . S
C1483 C1480 1.387 . S
C1484 C1485 1.387 . S
C1484 H1488 0.950 . S
C1484 C1493 1.390 . S
C1485 C1484 1.387 . S
C1485 C1487 1.387 1_455 S
H1486 C1493 0.950 . S
C1487 C1485 1.387 1_655 S
C1487 C1489 1.390 . S
C1487 H1491 0.950 . S
H1488 C1484 0.950 . S
C1489 C1487 1.390 . S
C1489 C1490 1.387 . S
C1489 H1492 0.950 . S
C1490 C1489 1.387 . S
C1490 C1493 1.387 1_655 S
H1491 C1487 0.950 . S
H1492 C1489 0.950 . S
C1493 C1484 1.390 . S
C1493 H1486 0.950 . S
C1493 C1490 1.387 1_455 S
C1494 C1495 1.387 . S
C1494 H1498 0.950 . S
C1494 C1503 1.390 . S
C1495 C1494 1.387 . S
C1495 C1497 1.387 . S
H1496 C1503 0.950 . S
C1497 C1495 1.387 . S
C1497 C1499 1.390 . S
C1497 H1501 0.950 . S
H1498 C1494 0.950 . S
C1499 C1497 1.390 . S
C1499 C1500 1.387 . S
C1499 H1502 0.950 . S
C1500 C1499 1.387 . S
C1500 C1503 1.387 . S
H1501 C1497 0.950 . S
H1502 C1499 0.950 . S
C1503 C1494 1.390 . S
C1503 H1496 0.950 . S
C1503 C1500 1.387 . S
C1504 C1505 1.387 . S
C1504 H1508 0.950 . S
C1504 C1513 1.390 . S
C1505 C1504 1.387 . S
C1505 C1507 1.387 . S
H1506 C1513 0.950 . S
C1507 C1505 1.387 . S
C1507 C1509 1.390 . S
C1507 H1511 0.950 . S
H1508 C1504 0.950 . S
C1509 C1507 1.390 . S
C1509 C1510 1.387 . S
C1509 H1512 0.950 . S
C1510 C1509 1.387 . S
C1510 C1513 1.387 . S
H1511 C1507 0.950 . S
H1512 C1509 0.950 . S
C1513 C1504 1.390 . S
C1513 H1506 0.950 . S
C1513 C1510 1.387 . S
C1514 C1515 1.387 . S
C1514 H1518 0.950 . S
C1514 C1523 1.390 . S
C1515 C1514 1.387 . S
C1515 C1517 1.387 . S
H1516 C1523 0.950 . S
C1517 C1515 1.387 . S
C1517 C1519 1.390 . S
C1517 H1521 0.950 . S
H1518 C1514 0.950 . S
C1519 C1517 1.390 . S
C1519 C1520 1.387 . S
C1519 H1522 0.950 . S
C1520 C1519 1.387 . S
C1520 C1523 1.387 . S
H1521 C1517 0.950 . S
H1522 C1519 0.950 . S
C1523 C1514 1.390 . S
C1523 H1516 0.950 . S
C1523 C1520 1.387 . S
C1524 C1525 1.387 . S
C1524 H1528 0.950 . S
C1524 C1533 1.390 . S
C1525 C1524 1.387 . S
C1525 C1527 1.387 . S
H1526 C1533 0.950 . S
C1527 C1525 1.387 . S
C1527 C1529 1.390 . S
C1527 H1531 0.950 . S
H1528 C1524 0.950 . S
C1529 C1527 1.390 . S
C1529 C1530 1.387 . S
C1529 H1532 0.950 . S
C1530 C1529 1.387 . S
C1530 C1533 1.387 . S
H1531 C1527 0.950 . S
H1532 C1529 0.950 . S
C1533 C1524 1.390 . S
C1533 H1526 0.950 . S
C1533 C1530 1.387 . S
C1534 C1535 1.387 . S
C1534 H1538 0.950 . S
C1534 C1543 1.390 . S
C1535 C1534 1.387 . S
C1535 C1537 1.387 . S
H1536 C1543 0.950 . S
C1537 C1535 1.387 . S
C1537 C1539 1.390 . S
C1537 H1541 0.950 . S
H1538 C1534 0.950 . S
C1539 C1537 1.390 . S
C1539 C1540 1.387 . S
C1539 H1542 0.950 . S
C1540 C1539 1.387 . S
C1540 C1543 1.387 . S
H1541 C1537 0.950 . S
H1542 C1539 0.950 . S
C1543 C1534 1.390 . S
C1543 H1536 0.950 . S
C1543 C1540 1.387 . S
C1544 C1545 1.387 . S
C1544 H1548 0.950 . S
C1544 C1553 1.390 . S
C1545 C1544 1.387 . S
C1545 C1547 1.387 . S
H1546 C1553 0.950 . S
C1547 C1545 1.387 . S
C1547 C1549 1.390 . S
C1547 H1551 0.950 . S
H1548 C1544 0.950 . S
C1549 C1547 1.390 . S
C1549 C1550 1.387 . S
C1549 H1552 0.950 . S
C1550 C1549 1.387 . S
C1550 C1553 1.387 . S
H1551 C1547 0.950 . S
H1552 C1549 0.950 . S
C1553 C1544 1.390 . S
C1553 H1546 0.950 . S
C1553 C1550 1.387 . S
C1554 C1555 1.387 . S
C1554 H1558 0.950 . S
C1554 C1563 1.390 . S
C1555 C1554 1.387 . S
C1555 C1557 1.387 . S
H1556 C1563 0.950 . S
C1557 C1555 1.387 . S
C1557 C1559 1.390 . S
C1557 H1561 0.950 . S
H1558 C1554 0.950 . S
C1559 C1557 1.390 . S
C1559 C1560 1.387 . S
C1559 H1562 0.950 . S
C1560 C1559 1.387 . S
C1560 C1563 1.387 . S
H1561 C1557 0.950 . S
H1562 C1559 0.950 . S
C1563 C1554 1.390 . S
C1563 H1556 0.950 . S
C1563 C1560 1.387 . S
C1564 C1565 1.387 . S
C1564 H1568 0.950 . S
C1564 C1573 1.390 . S
C1565 C1564 1.387 . S
C1565 C1567 1.387 . S
H1566 C1573 0.950 . S
C1567 C1565 1.387 . S
C1567 C1569 1.390 . S
C1567 H1571 0.950 . S
H1568 C1564 0.950 . S
C1569 C1567 1.390 . S
C1569 C1570 1.387 . S
C1569 H1572 0.950 . S
C1570 C1569 1.387 . S
C1570 C1573 1.387 . S
H1571 C1567 0.950 . S
H1572 C1569 0.950 . S
C1573 C1564 1.390 . S
C1573 H1566 0.950 . S
C1573 C1570 1.387 . S
C1574 C1575 1.387 . S
C1574 H1578 0.950 . S
C1574 C1583 1.390 . S
C1575 C1574 1.387 . S
C1575 C1577 1.387 . S
H1576 C1583 0.950 . S
C1577 C1575 1.387 . S
C1577 C1579 1.390 . S
C1577 H1581 0.950 . S
H1578 C1574 0.950 . S
C1579 C1577 1.390 . S
C1579 C1580 1.387 . S
C1579 H1582 0.950 . S
C1580 C1579 1.387 . S
C1580 C1583 1.387 . S
H1581 C1577 0.950 . S
H1582 C1579 0.950 . S
C1583 C1574 1.390 . S
C1583 H1576 0.950 . S
C1583 C1580 1.387 . S
C1584 C1585 1.387 . S
C1584 H1588 0.950 . S
C1584 C1593 1.390 . S
C1585 C1584 1.387 . S
C1585 C1587 1.387 . S
H1586 C1593 0.950 . S
C1587 C1585 1.387 . S
C1587 C1589 1.390 . S
C1587 H1591 0.950 . S
H1588 C1584 0.950 . S
C1589 C1587 1.390 . S
C1589 C1590 1.387 . S
C1589 H1592 0.950 . S
C1590 C1589 1.387 . S
C1590 C1593 1.387 . S
H1591 C1587 0.950 . S
H1592 C1589 0.950 . S
C1593 C1584 1.390 . S
C1593 H1586 0.950 . S
C1593 C1590 1.387 . S
C1594 C1595 1.387 . S
C1594 H1598 0.950 . S
C1594 C1603 1.390 . S
C1595 C1594 1.387 . S
C1595 C1597 1.387 . S
H1596 C1603 0.950 . S
C1597 C1595 1.387 . S
C1597 C1599 1.390 . S
C1597 H1601 0.950 . S
H1598 C1594 0.950 . S
C1599 C1597 1.390 . S
C1599 C1600 1.387 . S
C1599 H1602 0.950 . S
C1600 C1599 1.387 . S
C1600 C1603 1.387 . S
H1601 C1597 0.950 . S
H1602 C1599 0.950 . S
C1603 C1594 1.390 . S
C1603 H1596 0.950 . S
C1603 C1600 1.387 . S
C1604 C1605 1.387 . S
C1604 H1608 0.950 . S
C1604 C1613 1.390 . S
C1605 C1604 1.387 . S
C1605 C1607 1.387 . S
H1606 C1613 0.950 . S
C1607 C1605 1.387 . S
C1607 C1609 1.390 . S
C1607 H1611 0.950 . S
H1608 C1604 0.950 . S
C1609 C1607 1.390 . S
C1609 C1610 1.387 . S
C1609 H1612 0.950 . S
C1610 C1609 1.387 . S
C1610 C1613 1.387 . S
H1611 C1607 0.950 . S
H1612 C1609 0.950 . S
C1613 C1604 1.390 . S
C1613 H1606 0.950 . S
C1613 C1610 1.387 . S
C1614 C1615 1.398 . S
C1614 H1618 0.950 . S
C1614 C1623 1.390 . S
C1615 C1614 1.398 . S
C1615 C1617 1.372 1_554 S
H1616 C1623 0.950 . S
C1617 C1615 1.372 1_556 S
C1617 C1619 1.390 . S
C1617 H1621 0.950 . S
H1618 C1614 0.950 . S
C1619 C1617 1.390 . S
C1619 C1620 1.387 . S
C1619 H1622 0.950 . S
C1620 C1619 1.387 . S
C1620 C1623 1.387 1_556 S
H1621 C1617 0.950 . S
H1622 C1619 0.950 . S
C1623 C1614 1.390 . S
C1623 H1616 0.950 . S
C1623 C1620 1.387 1_554 S
C1624 C1625 1.387 . S
C1624 H1628 0.950 . S
C1624 C1633 1.390 . S
C1625 C1624 1.387 . S
C1625 C1627 1.387 . S
H1626 C1633 0.950 . S
C1627 C1625 1.387 . S
C1627 C1629 1.390 . S
C1627 H1631 0.950 . S
H1628 C1624 0.950 . S
C1629 C1627 1.390 . S
C1629 C1630 1.387 . S
C1629 H1632 0.950 . S
C1630 C1629 1.387 . S
C1630 C1633 1.387 . S
H1631 C1627 0.950 . S
H1632 C1629 0.950 . S
C1633 C1624 1.390 . S
C1633 H1626 0.950 . S
C1633 C1630 1.387 . S
C1634 C1635 1.387 1_556 S
C1634 H1638 0.950 . S
C1634 C1643 1.390 . S
C1635 C1634 1.387 1_554 S
C1635 C1637 1.387 . S
H1636 C1643 0.950 . S
C1637 C1635 1.387 . S
C1637 C1639 1.390 . S
C1637 H1641 0.950 . S
H1638 C1634 0.950 . S
C1639 C1637 1.390 . S
C1639 C1640 1.387 . S
C1639 H1642 0.950 . S
C1640 C1639 1.387 . S
C1640 C1643 1.387 1_554 S
H1641 C1637 0.950 . S
H1642 C1639 0.950 . S
C1643 C1634 1.390 . S
C1643 H1636 0.950 . S
C1643 C1640 1.387 1_556 S
C1644 C1645 1.387 . S
C1644 H1648 0.950 . S
C1644 C1653 1.390 . S
C1645 C1644 1.387 . S
C1645 C1647 1.387 . S
H1646 C1653 0.950 . S
C1647 C1645 1.387 . S
C1647 C1649 1.390 . S
C1647 H1651 0.950 . S
H1648 C1644 0.950 . S
C1649 C1647 1.390 . S
C1649 C1650 1.387 . S
C1649 H1652 0.950 . S
C1650 C1649 1.387 . S
C1650 C1653 1.387 . S
H1651 C1647 0.950 . S
H1652 C1649 0.950 . S
C1653 C1644 1.390 . S
C1653 H1646 0.950 . S
C1653 C1650 1.387 . S
C1654 C1655 1.387 . S
C1654 H1658 0.950 . S
C1654 C1663 1.390 . S
C1655 C1654 1.387 . S
C1655 C1657 1.387 . S
H1656 C1663 0.950 . S
C1657 C1655 1.387 . S
C1657 C1659 1.390 . S
C1657 H1661 0.950 . S
H1658 C1654 0.950 . S
C1659 C1657 1.390 . S
C1659 C1660 1.387 . S
C1659 H1662 0.950 . S
C1660 C1659 1.387 . S
C1660 C1663 1.387 . S
H1661 C1657 0.950 . S
H1662 C1659 0.950 . S
C1663 C1654 1.390 . S
C1663 H1656 0.950 . S
C1663 C1660 1.387 . S
C710 C352 1.207 . S
C705 C13 1.222 . S
C715 C25 1.482 . S
C720 C380 1.335 . S
C725 C39 1.202 . S
C730 C398 1.173 . S
C740 C424 1.435 . S
C735 C50 1.638 . S
C745 C21 1.507 1_655 S
C750 C447 1.345 . S
C760 C467 1.213 . S
C755 C35 1.239 . S
C770 C495 1.375 . S
C765 C55 1.470 . S
C775 C8 1.302 . S
C780 C513 1.287 . S
C785 C69 1.322 . S
C790 C354 1.390 1_545 S
C795 C77 1.227 . S
C800 C376 1.207 . S
C810 C400 1.431 . S
C805 C97 1.362 1_545 S
C820 C421 1.242 . S
C815 C105 1.260 . S
C825 C63 1.292 . S
C830 C444 1.275 . S
C840 C469 1.446 . S
C835 C83 1.372 . S
C850 C491 1.188 . S
C845 C91 1.206 . S
C860 C515 1.427 . S
C855 C111 1.351 . S
C870 C355 1.105 . S
C865 C106 1.240 . S
C880 C538 1.271 . S
C875 C123 1.267 . S
C885 C134 1.274 . S
C890 C562 1.127 . S
C900 C586 1.192 . S
C895 C151 1.218 . S
C905 C64 1.259 . S
C910 C516 1.134 . S
C920 C401 1.120 . S
C915 C78 1.277 . S
C925 C137 1.211 . S
C930 C607 1.215 . S
C940 C632 1.202 . S
C935 C165 1.228 . S
C945 C175 1.206 . S
C950 C353 1.179 . S
C960 C630 1.127 . S
C955 C193 1.091 . S
C965 C209 1.075 . S
C970 C399 1.131 . S
C975 C223 1.038 . S
C980 C609 1.063 . S
C990 C448 1.063 . S
C985 C195 1.042 . S
C1000 C560 1.100 . S
C995 C207 1.107 . S
C1010 C492 1.121 . S
C1005 C221 1.084 . S
C1020 C652 1.211 . S
C1015 C176 1.188 . S
C1030 C357 1.043 . S
C1025 C231 1.169 . S
C1035 C251 1.292 . S
C1040 C628 1.370 . S
C1050 C403 1.089 . S
C1045 C259 1.206 . S
C1055 C279 1.308 . S
C1060 C606 1.381 . S
C1065 C237 1.307 . S
C1070 C445 1.377 . S
C1075 C245 1.213 . S
C1080 C564 1.082 . S
C1090 C490 1.369 . S
C1085 C265 1.287 . S
C1095 C273 1.157 . S
C1100 C656 1.046 . S
C1105 C274 1.326 . S
C1110 C356 1.351 . S
C1115 C291 1.246 . S
C1120 C541 1.159 . S
C1125 C302 1.355 . S
C1130 C471 1.380 . S
C1135 C319 1.256 . S
C1140 C585 1.133 . S
C1150 C655 1.363 . S
C1145 C232 1.337 . S
C1160 C402 1.403 . S
C1155 C246 1.378 . S
C1170 C426 1.164 . S
C1165 C305 1.257 . S
C1180 C378 1.128 . S
C1175 C333 1.245 . S
C1185 C36 1.295 . S
C1190 C674 1.269 . S
C1200 C633 1.313 . S
C1195 C53 1.460 . S
C1210 C697 1.229 . S
C1205 C7 1.252 . S
C1215 C22 1.605 . S
C1220 C608 1.402 . S
C1225 C49 1.542 . S
C1230 C539 1.376 . S
C1240 C559 1.163 . S
C1235 C11 1.193 . S
C1250 C587 1.389 . S
C1245 C27 1.483 1_455 S
C1260 C651 1.219 . S
C1255 C41 1.225 . S
C1270 C676 1.418 . S
C1265 C167 1.339 . S
C1275 C119 1.232 . S
C1280 C629 1.212 . S
C1285 C139 1.383 . S
C1290 C699 1.455 . S
C1300 C605 1.251 . S
C1295 C147 1.267 . S
C1310 C536 1.268 . S
C1305 C161 1.287 . S
C1315 C125 1.352 . S
C1320 C561 1.420 . S
C1330 C583 1.182 . S
C1325 C133 1.200 . S
C1335 C153 1.334 . S
C1340 C653 1.400 . S
C1350 C677 1.135 . S
C1345 C148 1.255 . S
C1360 C446 1.242 . S
C1355 C81 1.238 . S
C1370 C470 1.161 . S
C1365 C92 1.288 . S
C1375 C109 1.194 . S
C1380 C494 1.166 . S
C1390 C654 1.103 . S
C1385 C162 1.249 . S
C1395 C120 1.288 . S
C1400 C700 1.151 . S
C1410 C423 1.244 . S
C1405 C95 1.235 . S
C1420 C379 1.228 . S
C1415 C67 1.252 . S
C1425 C203 1.221 . S
C1430 C675 1.192 . S
C1440 C377 1.245 . S
C1435 C217 1.240 . S
C1450 C698 1.131 . S
C1445 C181 1.073 1_455 S
C1455 C190 1.156 . S
C1460 C425 1.181 . S
C1465 C218 1.162 . S
C1470 C540 1.185 . S
C1475 C179 1.109 . S
C1480 C468 1.103 . S
C1485 C189 1.233 . S
C1490 C584 1.239 . S
C1495 C204 1.204 . S
C1500 C514 1.226 . S
C1510 C679 1.082 . S
C1505 C329 1.226 . S
C1515 C293 1.250 . S
C1520 C375 1.322 . S
C1530 C702 1.112 . S
C1525 C301 1.251 . S
C1535 C321 1.265 . S
C1540 C422 1.334 . S
C1545 C335 1.265 . S
C1550 C537 1.329 . S
C1560 C472 1.119 . S
C1555 C287 1.267 . S
C1565 C307 1.251 . S
C1570 C582 1.325 . S
C1580 C518 1.075 . S
C1575 C315 1.208 . S
C1590 C678 1.336 . S
C1585 C316 1.311 . S
C1600 C449 1.219 . S
C1595 C249 1.316 . S
C1605 C260 1.372 . S
C1610 C563 1.397 . S
C1620 C493 1.192 . S
C1615 C277 1.328 . S
C1630 C517 1.346 . S
C1625 C330 1.321 . S
C1635 C288 1.360 . S
C1640 C701 1.385 . S
C1650 C610 1.228 . S
C1645 C263 1.329 . S
C1660 C631 1.189 . S
C1655 C235 1.320 . S
