# Generated by pormake.
# Topology anh, (6,3)-cn, num edge types: 1
# Building blocks:
#     Node 0, Type 0, BuildingBlock: BETDEL_clean_sbu_0, # of connection points: 6
#     Node 1, Type 0, BuildingBlock: BETDEL_clean_sbu_0, # of connection points: 6
#     Node 2, Type 0, BuildingBlock: BETDEL_clean_sbu_0, # of connection points: 6
#     Node 3, Type 1, BuildingBlock: OLANEW_clean_sbu_2, # of connection points: 3
#     Node 4, Type 1, BuildingBlock: OLANEW_clean_sbu_2, # of connection points: 3
#     Node 5, Type 1, BuildingBlock: OLANEW_clean_sbu_2, # of connection points: 3
#     Node 6, Type 1, BuildingBlock: OLANEW_clean_sbu_2, # of connection points: 3
#     Node 7, Type 1, BuildingBlock: OLANEW_clean_sbu_2, # of connection points: 3
#     Node 8, Type 1, BuildingBlock: OLANEW_clean_sbu_2, # of connection points: 3
#     Edge 9, Type (0, 1), BuildingBlock: UVAHIK_clean_linker_0, # of connection points: 2
#     Edge 10, Type (0, 1), BuildingBlock: UVAHIK_clean_linker_0, # of connection points: 2
#     Edge 11, Type (0, 1), BuildingBlock: UVAHIK_clean_linker_0, # of connection points: 2
#     Edge 12, Type (0, 1), BuildingBlock: UVAHIK_clean_linker_0, # of connection points: 2
#     Edge 13, Type (0, 1), BuildingBlock: UVAHIK_clean_linker_0, # of connection points: 2
#     Edge 14, Type (0, 1), BuildingBlock: UVAHIK_clean_linker_0, # of connection points: 2
#     Edge 15, Type (0, 1), BuildingBlock: UVAHIK_clean_linker_0, # of connection points: 2
#     Edge 16, Type (0, 1), BuildingBlock: UVAHIK_clean_linker_0, # of connection points: 2
#     Edge 17, Type (0, 1), BuildingBlock: UVAHIK_clean_linker_0, # of connection points: 2
#     Edge 18, Type (0, 1), BuildingBlock: UVAHIK_clean_linker_0, # of connection points: 2
#     Edge 19, Type (0, 1), BuildingBlock: UVAHIK_clean_linker_0, # of connection points: 2
#     Edge 20, Type (0, 1), BuildingBlock: UVAHIK_clean_linker_0, # of connection points: 2
#     Edge 21, Type (0, 1), BuildingBlock: UVAHIK_clean_linker_0, # of connection points: 2
#     Edge 22, Type (0, 1), BuildingBlock: UVAHIK_clean_linker_0, # of connection points: 2
#     Edge 23, Type (0, 1), BuildingBlock: UVAHIK_clean_linker_0, # of connection points: 2
#     Edge 24, Type (0, 1), BuildingBlock: UVAHIK_clean_linker_0, # of connection points: 2
#     Edge 25, Type (0, 1), BuildingBlock: UVAHIK_clean_linker_0, # of connection points: 2
#     Edge 26, Type (0, 1), BuildingBlock: UVAHIK_clean_linker_0, # of connection points: 2
# Relax obj value: 0.076
# Max RMSD: 0.104
# Mean RMSD: 0.100
data_MOF--net-anh--node1-BETDEL_clean_sbu_0--node2-OLANEW_clean_sbu_2--edge1-UVAHIK_clean_linker_0
_symmetry_space_group_name_H-M    P1
_symmetry_Int_Tables_number       1
_symmetry_cell_setting            triclinic
loop_
_symmetry_equiv_pos_as_xyz
'x, y, z'
_cell_length_a     41.804259
_cell_length_b     41.801904
_cell_length_c     63.977712
_cell_angle_alpha  89.483519
_cell_angle_beta   89.872296
_cell_angle_gamma 120.02477
loop_
_atom_site_label
_atom_site_type_symbol
_atom_site_fract_x
_atom_site_fract_y
_atom_site_fract_z
_atom_type_partial_charge
Dy0 Dy 0.02588 0.46973 0.16695 0.0
C1 C 0.92662 0.52518 0.17809 0.0
C2 C 0.07917 0.45126 0.1602 0.0
Dy3 Dy 0.97925 0.50699 0.16856 0.0
O4 O 0.06886 0.45672 0.17829 0.0
O5 O 0.05984 0.45525 0.14559 0.0
O6 O 0.00381 0.44443 0.19839 0.0
O7 O 0.01187 0.49719 0.19132 0.0
C8 C 0.9997 0.47154 0.20484 0.0
C9 C 0.00573 0.50595 0.13072 0.0
O10 O 0.03356 0.55571 0.17667 0.0
O11 O 0.06746 0.53035 0.16333 0.0
O12 O 0.94511 0.53324 0.16066 0.0
O13 O 0.93747 0.50784 0.19054 0.0
O14 O 0.00039 0.5324 0.137 0.0
O15 O 0.99363 0.48014 0.14413 0.0
O16 O 0.97182 0.41938 0.1602 0.0
O17 O 0.93656 0.44645 0.16844 0.0
C18 C 0.06526 0.55904 0.17022 0.0
C19 C 0.93948 0.41716 0.16366 0.0
Dy20 Dy 0.47528 0.01935 0.49677 0.0
C21 C 0.62944 0.10728 0.52168 0.0
C22 C 0.40338 0.96915 0.48823 0.0
Dy23 Dy 0.56304 0.06329 0.50328 0.0
O24 O 0.41834 0.97583 0.50658 0.0
O25 O 0.42767 0.99048 0.47429 0.0
O26 O 0.47059 0.03883 0.52872 0.0
O27 O 0.51405 0.02896 0.52195 0.0
C28 C 0.50068 0.04056 0.53554 0.0
C29 C 0.54631 0.05733 0.46241 0.0
O30 O 0.55158 0.00511 0.50651 0.0
O31 O 0.49154 0.97588 0.49319 0.0
O32 O 0.62341 0.08263 0.50757 0.0
O33 O 0.59888 0.10688 0.52613 0.0
O34 O 0.58005 0.07336 0.46924 0.0
O35 O 0.52481 0.04611 0.47792 0.0
O36 O 0.48673 0.07646 0.48953 0.0
O37 O 0.5461 0.10665 0.50378 0.0
C38 C 0.52163 0.97539 0.49947 0.0
C39 C 0.5167 0.1068 0.49594 0.0
Dy40 Dy 0.5702 0.57116 0.83042 0.0
C41 C 0.5095 0.41812 0.84982 0.0
C42 C 0.59197 0.6427 0.81987 0.0
Dy43 Dy 0.5298 0.48781 0.83614 0.0
O44 O 0.59701 0.63148 0.83786 0.0
O45 O 0.57554 0.61483 0.80736 0.0
O46 O 0.59874 0.57722 0.86099 0.0
O47 O 0.54453 0.53344 0.857 0.0
C48 C 0.57173 0.54731 0.86915 0.0
C49 C 0.52773 0.51063 0.79726 0.0
O50 O 0.48463 0.49784 0.8465 0.0
O51 O 0.51038 0.55612 0.8313 0.0
O52 O 0.49347 0.42598 0.8349 0.0
O53 O 0.53635 0.44833 0.85737 0.0
O54 O 0.50136 0.48039 0.80554 0.0
O55 O 0.55511 0.5251 0.80931 0.0
O56 O 0.61699 0.56299 0.82097 0.0
O57 O 0.58914 0.50192 0.8325 0.0
C58 C 0.48192 0.5265 0.83987 0.0
C59 C 0.61834 0.53264 0.82538 0.0
O60 O 0.52079 0.02166 0.23 0.0
Cd61 Cd 0.52494 0.01777 0.19209 0.0
O62 O 0.46224 0.00648 0.23173 0.0
Cd63 Cd 0.44931 0.98736 0.19964 0.0
O64 O 0.40734 0.93679 0.18496 0.0
C65 C 0.39856 0.90781 0.19574 0.0
O66 O 0.41657 0.91101 0.21312 0.0
C67 C 0.49306 0.01715 0.24062 0.0
C68 C 0.59196 0.07813 0.17882 0.0
O69 O 0.5623 0.08001 0.17959 0.0
O70 O 0.58976 0.04731 0.18376 0.0
O71 O 0.5543 0.53605 0.56242 0.0
Cd72 Cd 0.55249 0.53158 0.52429 0.0
O73 O 0.50695 0.54526 0.56439 0.0
Cd74 Cd 0.51197 0.56469 0.53211 0.0
O75 O 0.52144 0.61533 0.51626 0.0
C76 C 0.49398 0.61875 0.51102 0.0
O77 O 0.46051 0.59029 0.51343 0.0
C78 C 0.53027 0.53873 0.57328 0.0
C79 C 0.54395 0.46295 0.51354 0.0
O80 O 0.57604 0.49143 0.51574 0.0
O81 O 0.51575 0.46702 0.51597 0.0
O82 O 0.06424 0.51162 0.89937 0.0
Cd83 Cd 0.06854 0.51675 0.86135 0.0
O84 O 0.00367 0.48516 0.90151 0.0
Cd85 Cd 0.99336 0.4918 0.86876 0.0
O86 O 0.95387 0.49627 0.84839 0.0
C87 C 0.95452 0.52694 0.84694 0.0
O88 O 0.98115 0.55598 0.85619 0.0
C89 C 0.03475 0.49665 0.91026 0.0
C90 C 0.13336 0.51728 0.8503 0.0
O91 O 0.13316 0.54754 0.85294 0.0
O92 O 0.10263 0.48686 0.85213 0.0
O93 O 0.01035 0.52371 0.43631 0.0
Cd94 Cd 0.02085 0.54137 0.473 0.0
O95 O 0.96549 0.53643 0.43348 0.0
Cd96 Cd 0.955 0.52693 0.46708 0.0
O97 O 0.92655 0.48154 0.48968 0.0
C98 C 0.93456 0.45595 0.48902 0.0
O99 O 0.96098 0.45986 0.47625 0.0
C100 C 0.98824 0.52867 0.42497 0.0
C101 C 0.07905 0.61436 0.47456 0.0
O102 O 0.085 0.58714 0.47539 0.0
O103 O 0.04545 0.60708 0.47352 0.0
O104 O 0.55579 0.04098 0.76535 0.0
Cd105 Cd 0.56101 0.03419 0.80288 0.0
O106 O 0.60482 0.09645 0.76337 0.0
Cd107 Cd 0.605 0.10291 0.79716 0.0
O108 O 0.58609 0.12565 0.8216 0.0
C109 C 0.55166 0.11436 0.82218 0.0
O110 O 0.52976 0.08768 0.8096 0.0
C111 C 0.5791 0.06835 0.75441 0.0
C112 C 0.57227 0.9744 0.80843 0.0
O113 O 0.5397 0.97012 0.80915 0.0
O114 O 0.59962 0.00721 0.80578 0.0
O115 O 0.50767 0.44821 0.09783 0.0
Cd116 Cd 0.49679 0.44118 0.13565 0.0
O117 O 0.53898 0.50882 0.09952 0.0
Cd118 Cd 0.51132 0.50584 0.12896 0.0
O119 O 0.45674 0.49273 0.14024 0.0
C120 C 0.43258 0.482 0.12594 0.0
O121 O 0.44244 0.47949 0.10678 0.0
C122 C 0.52834 0.47946 0.08912 0.0
C123 C 0.56332 0.45869 0.15505 0.0
O124 O 0.54071 0.42565 0.14925 0.0
O125 O 0.55402 0.48332 0.1522 0.0
C126 C 0.12344 0.44451 0.13673 0.0
C127 C 0.11137 0.44636 0.15694 0.0
C128 C 0.15635 0.44388 0.13386 0.0
C129 C 0.24493 0.4739 0.15971 0.0
H130 H 0.25672 0.41163 0.11954 0.0
C131 C 0.3828 0.47485 0.15084 0.0
C132 C 0.39442 0.47381 0.13036 0.0
C133 C 0.34703 0.46826 0.1547 0.0
C134 C 0.25398 0.42947 0.13069 0.0
H135 H 0.12323 0.4476 0.18999 0.0
H136 H 0.18046 0.44645 0.18499 0.0
H137 H 0.19604 0.40564 0.12475 0.0
H138 H 0.37743 0.46465 0.09791 0.0
H139 H 0.3156 0.454 0.10457 0.0
H140 H 0.30283 0.49843 0.16534 0.0
C141 C 0.16486 0.44587 0.17136 0.0
C142 C 0.2192 0.42596 0.13368 0.0
C143 C 0.13198 0.4463 0.17422 0.0
C144 C 0.36937 0.46558 0.11389 0.0
C145 C 0.33374 0.45919 0.11773 0.0
C146 C 0.2797 0.47759 0.15663 0.0
C147 C 0.17777 0.44535 0.15115 0.0
C148 C 0.21434 0.4482 0.1482 0.0
C149 C 0.32216 0.46067 0.13816 0.0
C150 C 0.28473 0.45553 0.14203 0.0
H151 H 0.10806 0.44462 0.12315 0.0
H152 H 0.16573 0.44368 0.11809 0.0
H153 H 0.24219 0.49187 0.17077 0.0
H154 H 0.40136 0.48091 0.16389 0.0
H155 H 0.33886 0.46908 0.17067 0.0
C156 C 0.66994 0.16855 0.53777 0.0
C157 C 0.66639 0.1374 0.52752 0.0
C158 C 0.70437 0.20071 0.53912 0.0
C159 C 0.79195 0.24685 0.50954 0.0
H160 H 0.81912 0.3224 0.55147 0.0
C161 C 0.91829 0.3909 0.49743 0.0
C162 C 0.91118 0.42016 0.49996 0.0
C163 C 0.89345 0.35556 0.50511 0.0
C164 C 0.8119 0.30151 0.53966 0.0
H165 H 0.69633 0.11406 0.51241 0.0
H166 H 0.75678 0.16972 0.51542 0.0
H167 H 0.76687 0.26034 0.55798 0.0
H168 H 0.87354 0.4357 0.51377 0.0
H169 H 0.83006 0.3739 0.5271 0.0
H170 H 0.83635 0.28804 0.49106 0.0
C171 C 0.73284 0.16987 0.5218 0.0
C172 C 0.78194 0.26597 0.54335 0.0
C173 C 0.69829 0.13783 0.52025 0.0
C174 C 0.87978 0.41375 0.51148 0.0
C175 C 0.85495 0.37836 0.51922 0.0
C176 C 0.82198 0.28218 0.50595 0.0
C177 C 0.73608 0.20226 0.53042 0.0
C178 C 0.77104 0.23839 0.52812 0.0
C179 C 0.86097 0.34865 0.51556 0.0
C180 C 0.83184 0.31015 0.52075 0.0
H181 H 0.64576 0.16898 0.54352 0.0
H182 H 0.70557 0.22503 0.54574 0.0
H183 H 0.78407 0.22675 0.49721 0.0
H184 H 0.94238 0.39491 0.48881 0.0
H185 H 0.89914 0.33335 0.50233 0.0
C186 C 0.61274 0.70673 0.83153 0.0
C187 C 0.59853 0.68025 0.8157 0.0
C188 C 0.61443 0.74072 0.82889 0.0
C189 C 0.56899 0.78269 0.79948 0.0
H190 H 0.64527 0.87301 0.82435 0.0
C191 C 0.5479 0.90661 0.81346 0.0
C192 C 0.57792 0.94221 0.80962 0.0
C193 C 0.55276 0.87589 0.81331 0.0
C194 C 0.62392 0.84816 0.81712 0.0
H195 H 0.57663 0.669 0.7843 0.0
H196 H 0.5802 0.72884 0.77945 0.0
H197 H 0.65201 0.81838 0.82406 0.0
H198 H 0.63671 0.97356 0.80285 0.0
H199 H 0.64509 0.9199 0.80232 0.0
H200 H 0.54113 0.81253 0.79228 0.0
C201 C 0.5894 0.72308 0.79408 0.0
C202 C 0.62762 0.81671 0.81714 0.0
C203 C 0.58762 0.68896 0.79677 0.0
C204 C 0.61303 0.9465 0.80596 0.0
C205 C 0.61787 0.91574 0.80572 0.0
C206 C 0.56537 0.81414 0.7994 0.0
C207 C 0.60203 0.74903 0.81031 0.0
C208 C 0.59995 0.78345 0.80858 0.0
C209 C 0.58771 0.88002 0.80921 0.0
C210 C 0.59252 0.84711 0.80848 0.0
H211 H 0.62127 0.70067 0.84632 0.0
H212 H 0.6239 0.75978 0.84182 0.0
H213 H 0.54693 0.75747 0.79297 0.0
H214 H 0.52052 0.90237 0.81643 0.0
H215 H 0.52908 0.84887 0.81649 0.0
C216 C 0.87259 0.51506 0.19991 0.0
C217 C 0.89371 0.52882 0.18152 0.0
C218 C 0.83833 0.51321 0.2017 0.0
C219 C 0.77718 0.54329 0.1762 0.0
H220 H 0.69871 0.44947 0.19763 0.0
C221 C 0.62425 0.50457 0.17047 0.0
C222 C 0.59991 0.46849 0.16368 0.0
C223 C 0.66002 0.5146 0.17686 0.0
C224 C 0.72027 0.47581 0.19156 0.0
H225 H 0.8967 0.55319 0.15104 0.0
H226 H 0.83691 0.54944 0.15393 0.0
H227 H 0.76263 0.46431 0.20076 0.0
H228 H 0.59366 0.41437 0.15888 0.0
H229 H 0.65603 0.43194 0.16955 0.0
H230 H 0.73469 0.55379 0.16584 0.0
C231 C 0.84674 0.54053 0.16715 0.0
C232 C 0.75704 0.48459 0.19363 0.0
C233 C 0.88099 0.54251 0.16542 0.0
C234 C 0.61168 0.44237 0.16406 0.0
C235 C 0.64745 0.45242 0.17034 0.0
C236 C 0.74039 0.53441 0.17401 0.0
C237 C 0.82451 0.52495 0.18509 0.0
C238 C 0.78594 0.51806 0.18552 0.0
C239 C 0.6723 0.48881 0.17652 0.0
C240 C 0.71142 0.50016 0.18121 0.0
H241 H 0.88187 0.50445 0.2126 0.0
H242 H 0.82224 0.50166 0.21588 0.0
H243 H 0.79875 0.56957 0.17007 0.0
H244 H 0.61594 0.5253 0.17048 0.0
H245 H 0.6782 0.54269 0.18183 0.0
C246 C 0.34201 0.91956 0.5009 0.0
C247 C 0.36579 0.93846 0.48404 0.0
C248 C 0.30813 0.88764 0.49761 0.0
C249 C 0.26347 0.81082 0.46127 0.0
H250 H 0.17628 0.78577 0.49465 0.0
C251 C 0.14684 0.66048 0.47436 0.0
C252 C 0.11012 0.65302 0.47431 0.0
C253 C 0.17623 0.69686 0.47362 0.0
C254 C 0.2002 0.79243 0.48502 0.0
H255 H 0.37239 0.93971 0.45042 0.0
H256 H 0.31281 0.88354 0.44456 0.0
H257 H 0.22964 0.84802 0.49608 0.0
H258 H 0.07549 0.67803 0.4734 0.0
H259 H 0.12686 0.74159 0.47213 0.0
H260 H 0.23417 0.75514 0.45036 0.0
C261 C 0.32056 0.89341 0.46036 0.0
C262 C 0.2309 0.82803 0.48597 0.0
C263 C 0.35448 0.92565 0.46367 0.0
C264 C 0.10346 0.68281 0.47355 0.0
C265 C 0.13289 0.71925 0.47287 0.0
C266 C 0.23282 0.77519 0.46038 0.0
C267 C 0.29729 0.87372 0.47736 0.0
C268 C 0.26314 0.83745 0.4744 0.0
C269 C 0.16963 0.7267 0.47285 0.0
C270 C 0.20107 0.76537 0.47253 0.0
H271 H 0.35007 0.92881 0.51679 0.0
H272 H 0.29116 0.87297 0.51107 0.0
H273 H 0.28795 0.81705 0.4523 0.0
H274 H 0.15297 0.63819 0.47495 0.0
H275 H 0.20418 0.70162 0.47397 0.0
C276 C 0.47158 0.34962 0.84673 0.0
C277 C 0.50239 0.38071 0.85495 0.0
C278 C 0.46785 0.31461 0.84893 0.0
C279 C 0.50952 0.26278 0.87436 0.0
H280 H 0.48072 0.20855 0.82249 0.0
C281 C 0.56158 0.16639 0.84551 0.0
C282 C 0.53756 0.13538 0.83371 0.0
C283 C 0.54991 0.19016 0.85311 0.0
C284 C 0.48812 0.22285 0.83727 0.0
H285 H 0.55243 0.39965 0.8729 0.0
H286 H 0.54686 0.33904 0.87608 0.0
H287 H 0.47322 0.26196 0.8265 0.0
H288 H 0.4815 0.10329 0.82221 0.0
H289 H 0.46131 0.14489 0.83541 0.0
H290 H 0.52658 0.22453 0.88445 0.0
C291 C 0.52498 0.34116 0.86835 0.0
C292 C 0.48372 0.25355 0.83963 0.0
C293 C 0.52836 0.37604 0.86642 0.0
C294 C 0.50084 0.12714 0.83104 0.0
C295 C 0.48926 0.151 0.83855 0.0
C296 C 0.51431 0.2322 0.87189 0.0
C297 C 0.49525 0.31014 0.85908 0.0
C298 C 0.4951 0.27447 0.85802 0.0
C299 C 0.51407 0.18344 0.849 0.0
C300 C 0.50433 0.2124 0.85313 0.0
H301 H 0.45097 0.3525 0.83799 0.0
H302 H 0.4441 0.29126 0.84205 0.0
H303 H 0.51797 0.27779 0.88889 0.0
H304 H 0.58997 0.17339 0.84795 0.0
H305 H 0.56972 0.21504 0.86103 0.0
C306 C 0.55204 0.93682 0.5043 0.0
C307 C 0.52089 0.93953 0.49886 0.0
C308 C 0.55062 0.90261 0.50395 0.0
C309 C 0.48412 0.80275 0.50699 0.0
H310 H 0.56395 0.79171 0.48406 0.0
C311 C 0.46893 0.65916 0.49921 0.0
C312 C 0.49923 0.65553 0.5053 0.0
C313 C 0.47276 0.6941 0.4964 0.0
C314 C 0.54156 0.79438 0.49069 0.0
H315 H 0.46395 0.90825 0.48846 0.0
H316 H 0.46167 0.8491 0.48785 0.0
H317 H 0.56884 0.85251 0.48381 0.0
H318 H 0.55778 0.68584 0.51232 0.0
H319 H 0.56431 0.74676 0.50776 0.0
H320 H 0.457 0.74504 0.51421 0.0
C321 C 0.48706 0.87327 0.4926 0.0
C322 C 0.54439 0.82922 0.49055 0.0
C323 C 0.48849 0.90734 0.49286 0.0
C324 C 0.53385 0.68764 0.5076 0.0
C325 C 0.53764 0.72263 0.50491 0.0
C326 C 0.48135 0.76806 0.50721 0.0
C327 C 0.51798 0.87042 0.49827 0.0
C328 C 0.51561 0.83373 0.49863 0.0
C329 C 0.50693 0.7263 0.49975 0.0
C330 C 0.50994 0.76334 0.499 0.0
H331 H 0.57746 0.96102 0.50896 0.0
H332 H 0.57484 0.90124 0.50854 0.0
H333 H 0.46175 0.80541 0.51368 0.0
H334 H 0.44195 0.635 0.49711 0.0
H335 H 0.44871 0.69587 0.49193 0.0
C336 C 0.68739 0.56571 0.82151 0.0
C337 C 0.65337 0.53252 0.82237 0.0
C338 C 0.72057 0.56516 0.82052 0.0
C339 C 0.75747 0.50302 0.83288 0.0
H340 H 0.84499 0.5778 0.8038 0.0
C341 C 0.89088 0.49599 0.83178 0.0
C342 C 0.92269 0.52853 0.83796 0.0
C343 C 0.85882 0.49657 0.82636 0.0
C344 C 0.82074 0.55677 0.812 0.0
H345 H 0.62736 0.47278 0.82168 0.0
H346 H 0.68485 0.4718 0.81927 0.0
H347 H 0.78697 0.57841 0.80085 0.0
H348 H 0.94647 0.58762 0.84194 0.0
H349 H 0.89045 0.58856 0.83241 0.0
H350 H 0.79113 0.48145 0.84405 0.0
C351 C 0.68618 0.4983 0.82007 0.0
C352 C 0.78754 0.55718 0.81039 0.0
C353 C 0.65313 0.49886 0.82134 0.0
C354 C 0.92239 0.56202 0.83735 0.0
C355 C 0.89035 0.56262 0.8318 0.0
C356 C 0.79046 0.50243 0.83431 0.0
C357 C 0.72038 0.53139 0.82014 0.0
C358 C 0.75551 0.53042 0.82094 0.0
C359 C 0.85791 0.52971 0.82686 0.0
C360 C 0.82252 0.5294 0.82401 0.0
H361 H 0.68846 0.5921 0.82235 0.0
H362 H 0.74634 0.59118 0.8208 0.0
H363 H 0.73374 0.48248 0.84164 0.0
H364 H 0.8902 0.46974 0.83195 0.0
H365 H 0.83438 0.47086 0.8223 0.0
C366 C 0.09986 0.62609 0.18002 0.0
C367 C 0.09947 0.59556 0.17073 0.0
C368 C 0.1326 0.66022 0.18081 0.0
C369 C 0.23394 0.70077 0.1785 0.0
H370 H 0.23432 0.79316 0.17129 0.0
C371 C 0.35711 0.84031 0.20259 0.0
C372 C 0.36659 0.87166 0.19008 0.0
C373 C 0.32542 0.80668 0.19845 0.0
C374 C 0.23477 0.76759 0.17309 0.0
H375 H 0.13306 0.5773 0.15447 0.0
H376 H 0.18973 0.63667 0.15561 0.0
H377 H 0.17677 0.7347 0.16718 0.0
H378 H 0.3507 0.892 0.16302 0.0
H379 H 0.29539 0.83293 0.15562 0.0
H380 H 0.29191 0.73352 0.18419 0.0
C381 C 0.16498 0.63415 0.16266 0.0
C382 C 0.20169 0.7341 0.17101 0.0
C383 C 0.13237 0.60009 0.16194 0.0
C384 C 0.34412 0.86837 0.17298 0.0
C385 C 0.3123 0.83462 0.16884 0.0
C386 C 0.26695 0.7342 0.18056 0.0
C387 C 0.16562 0.66456 0.17227 0.0
C388 C 0.20085 0.70029 0.17384 0.0
C389 C 0.30241 0.80349 0.18166 0.0
C390 C 0.26772 0.76801 0.17809 0.0
H391 H 0.07501 0.62355 0.18694 0.0
H392 H 0.13222 0.68298 0.18853 0.0
H393 H 0.23426 0.67528 0.18101 0.0
H394 H 0.37375 0.84185 0.21591 0.0
H395 H 0.3184 0.78342 0.20881 0.0
C396 C 0.55127 0.17567 0.49816 0.0
C397 C 0.51765 0.14275 0.49514 0.0
C398 C 0.55249 0.2096 0.49884 0.0
C399 C 0.50072 0.25767 0.48577 0.0
H400 H 0.56566 0.32674 0.52716 0.0
C401 C 0.50447 0.39509 0.50636 0.0
C402 C 0.53965 0.42621 0.50921 0.0
C403 C 0.50045 0.36007 0.50355 0.0
C404 C 0.54767 0.30794 0.51538 0.0
H405 H 0.45899 0.1199 0.48993 0.0
H406 H 0.46104 0.17938 0.49145 0.0
H407 H 0.56053 0.2664 0.52444 0.0
H408 H 0.59826 0.44501 0.51082 0.0
H409 H 0.59124 0.3841 0.50595 0.0
H410 H 0.48765 0.29947 0.47696 0.0
C411 C 0.48655 0.17885 0.49306 0.0
C412 C 0.54474 0.2733 0.51378 0.0
C413 C 0.48535 0.14474 0.49226 0.0
C414 C 0.57075 0.42165 0.50875 0.0
C415 C 0.56672 0.38669 0.50608 0.0
C416 C 0.50352 0.29239 0.48746 0.0
C417 C 0.5201 0.21164 0.49669 0.0
C418 C 0.52163 0.24786 0.49878 0.0
C419 C 0.53151 0.35542 0.50371 0.0
C420 C 0.52739 0.31806 0.50213 0.0
H421 H 0.57683 0.17535 0.50016 0.0
H422 H 0.57897 0.23432 0.50111 0.0
H423 H 0.48286 0.23888 0.47395 0.0
H424 H 0.47994 0.39765 0.50661 0.0
H425 H 0.47296 0.33648 0.50188 0.0
C426 C 0.41355 0.49224 0.84658 0.0
C427 C 0.44608 0.52542 0.84167 0.0
C428 C 0.37943 0.49086 0.847 0.0
C429 C 0.33318 0.54151 0.82779 0.0
H430 H 0.25881 0.48141 0.86923 0.0
C431 C 0.2016 0.55079 0.84336 0.0
C432 C 0.16835 0.51737 0.84656 0.0
C433 C 0.2351 0.55111 0.84159 0.0
C434 C 0.27917 0.498 0.85741 0.0
H435 H 0.46839 0.58343 0.8339 0.0
H436 H 0.40919 0.58125 0.83519 0.0
H437 H 0.31825 0.48373 0.86929 0.0
H438 H 0.14409 0.45797 0.8499 0.0
H439 H 0.20261 0.45861 0.84687 0.0
H440 H 0.29418 0.55628 0.81622 0.0
C441 C 0.4098 0.55603 0.83819 0.0
C442 C 0.31324 0.49931 0.85742 0.0
C443 C 0.44384 0.55734 0.83761 0.0
C444 C 0.16921 0.4842 0.84745 0.0
C445 C 0.20274 0.48456 0.84586 0.0
C446 C 0.29921 0.54041 0.82789 0.0
C447 C 0.37709 0.52269 0.84267 0.0
C448 C 0.34072 0.52113 0.84263 0.0
C449 C 0.23607 0.51805 0.84317 0.0
C450 C 0.27186 0.51865 0.84271 0.0
H451 H 0.41427 0.46708 0.84964 0.0
H452 H 0.35479 0.4646 0.85026 0.0
H453 H 0.35339 0.55805 0.81591 0.0
H454 H 0.20188 0.57683 0.84261 0.0
H455 H 0.26038 0.57737 0.83965 0.0
C456 C 0.90529 0.34761 0.16238 0.0
C457 C 0.90492 0.38106 0.1622 0.0
C458 C 0.87205 0.31372 0.16243 0.0
C459 C 0.77315 0.2746 0.17596 0.0
H460 H 0.75924 0.18901 0.14531 0.0
C461 C 0.63012 0.14533 0.16959 0.0
C462 C 0.62796 0.11118 0.17355 0.0
C463 C 0.66433 0.17729 0.16655 0.0
C464 C 0.76286 0.21264 0.15406 0.0
H465 H 0.8694 0.40511 0.16085 0.0
H466 H 0.81203 0.34655 0.16049 0.0
H467 H 0.81862 0.2467 0.14314 0.0
H468 H 0.66003 0.0836 0.17659 0.0
H469 H 0.71988 0.1396 0.17131 0.0
H470 H 0.71759 0.24085 0.18684 0.0
C471 C 0.83776 0.34624 0.16123 0.0
C472 C 0.79686 0.24564 0.15285 0.0
C473 C 0.87077 0.37991 0.16133 0.0
C474 C 0.66074 0.1095 0.17361 0.0
C475 C 0.69503 0.14153 0.1705 0.0
C476 C 0.73926 0.24182 0.17707 0.0
C477 C 0.83787 0.3127 0.16221 0.0
C478 C 0.80228 0.27711 0.16368 0.0
C479 C 0.69722 0.1759 0.16737 0.0
C480 C 0.73359 0.21053 0.16604 0.0
H481 H 0.93115 0.34757 0.16306 0.0
H482 H 0.87313 0.2884 0.16329 0.0
H483 H 0.77659 0.29794 0.18494 0.0
H484 H 0.60542 0.14759 0.1693 0.0
H485 H 0.66507 0.20327 0.16382 0.0
C486 C 0.02816 0.53341 0.09538 0.0
C487 C 0.01703 0.50346 0.10926 0.0
C488 C 0.03615 0.53055 0.07454 0.0
C489 C 0.013 0.46127 0.03401 0.0
H490 H 0.08761 0.54533 0.0024 0.0
C491 C 0.00386 0.47674 0.94532 0.0
C492 C 0.03646 0.49321 0.93324 0.0
C493 C 0.00534 0.47485 0.96706 0.0
C494 C 0.06701 0.52137 0.01101 0.0
H495 H 0.00693 0.44752 0.11258 0.0
H496 H 0.02115 0.44248 0.07602 0.0
H497 H 0.08561 0.5485 0.04036 0.0
H498 H 0.09624 0.51975 0.93457 0.0
H499 H 0.09878 0.51625 0.97259 0.0
H500 H 0.9942 0.43425 0.00464 0.0
C501 C 0.02326 0.46805 0.08122 0.0
C502 C 0.06562 0.52334 0.03275 0.0
C503 C 0.0153 0.47097 0.10214 0.0
C504 C 0.0706 0.50704 0.94341 0.0
C505 C 0.07208 0.50516 0.9652 0.0
C506 C 0.01441 0.45929 0.01227 0.0
C507 C 0.03323 0.49764 0.06711 0.0
C508 C 0.03802 0.49367 0.04445 0.0
C509 C 0.03947 0.48934 0.97728 0.0
C510 C 0.04084 0.48966 0.00048 0.0
H511 H 0.02983 0.55884 0.10049 0.0
H512 H 0.04324 0.55369 0.06407 0.0
H513 H 0.99124 0.438 0.04253 0.0
H514 H 0.97709 0.4658 0.93803 0.0
H515 H 0.97973 0.46299 0.97589 0.0
C516 C 0.49973 0.03561 0.4334 0.0
C517 C 0.53646 0.05165 0.44013 0.0
C518 C 0.4916 0.03022 0.41202 0.0
C519 C 0.53061 0.02044 0.36244 0.0
H520 H 0.46704 0.05097 0.33552 0.0
C521 C 0.53034 0.03571 0.27343 0.0
C522 C 0.49612 0.02255 0.26353 0.0
C523 C 0.53286 0.03848 0.29516 0.0
C524 C 0.48449 0.04188 0.34286 0.0
H525 H 0.59347 0.07522 0.42997 0.0
H526 H 0.5794 0.06591 0.39299 0.0
H527 H 0.47446 0.05555 0.37353 0.0
H528 H 0.43779 0.00278 0.26872 0.0
H529 H 0.44221 0.00727 0.3067 0.0
H530 H 0.5409 0.0069 0.33199 0.0
C531 C 0.55678 0.05702 0.40405 0.0
C532 C 0.48867 0.04446 0.36459 0.0
C533 C 0.56484 0.06254 0.42525 0.0
C534 C 0.46461 0.01308 0.27585 0.0
C535 C 0.46713 0.01577 0.29762 0.0
C536 C 0.52638 0.01778 0.34081 0.0
C537 C 0.52012 0.04055 0.39718 0.0
C538 C 0.51236 0.03443 0.37452 0.0
C539 C 0.50121 0.02801 0.30754 0.0
C540 C 0.50385 0.02912 0.3307 0.0
H541 H 0.47746 0.02728 0.4446 0.0
H542 H 0.46307 0.01746 0.40712 0.0
H543 H 0.5485 0.01183 0.36972 0.0
H544 H 0.55521 0.04352 0.26443 0.0
H545 H 0.55968 0.04876 0.30229 0.0
C546 C 0.56286 0.53892 0.76409 0.0
C547 C 0.52905 0.51943 0.77484 0.0
C548 C 0.56353 0.54301 0.74233 0.0
C549 C 0.50308 0.50035 0.69623 0.0
H550 H 0.58082 0.58514 0.66664 0.0
C551 C 0.49862 0.52834 0.60797 0.0
C552 C 0.53018 0.5357 0.59633 0.0
C553 C 0.49887 0.52674 0.62979 0.0
C554 C 0.55908 0.56124 0.67476 0.0
H555 H 0.46958 0.49111 0.77175 0.0
H556 H 0.47054 0.49983 0.73405 0.0
H557 H 0.58017 0.5838 0.70483 0.0
H558 H 0.5868 0.54735 0.59841 0.0
H559 H 0.58737 0.54528 0.63666 0.0
H560 H 0.4815 0.47846 0.66607 0.0
C561 C 0.49663 0.51055 0.74208 0.0
C562 C 0.55873 0.56035 0.69663 0.0
C563 C 0.49601 0.50585 0.76372 0.0
C564 C 0.562 0.54143 0.60695 0.0
C565 C 0.56245 0.54052 0.6288 0.0
C566 C 0.50311 0.50158 0.67443 0.0
C567 C 0.53037 0.52825 0.73098 0.0
C568 C 0.53071 0.52984 0.70768 0.0
C569 C 0.53087 0.53313 0.64039 0.0
C570 C 0.53113 0.53196 0.6635 0.0
H571 H 0.58875 0.54955 0.77237 0.0
H572 H 0.59005 0.55651 0.73439 0.0
H573 H 0.48158 0.47593 0.70407 0.0
H574 H 0.47368 0.52377 0.60023 0.0
H575 H 0.47422 0.52113 0.6384 0.0
C576 C 0.54406 0.04525 0.56358 0.0
C577 C 0.51444 0.04968 0.55707 0.0
C578 C 0.55521 0.05083 0.58442 0.0
C579 C 0.55001 0.09338 0.63359 0.0
H580 H 0.56175 0.01579 0.65972 0.0
C581 C 0.59687 0.09999 0.71934 0.0
C582 C 0.57564 0.06777 0.73138 0.0
C583 C 0.59237 0.09968 0.69768 0.0
C584 C 0.55856 0.03766 0.65263 0.0
H585 H 0.47416 0.06476 0.56688 0.0
H586 H 0.49367 0.07458 0.60339 0.0
H587 H 0.54884 0.01316 0.62241 0.0
H588 H 0.53351 0.00983 0.73009 0.0
H589 H 0.52589 0.00931 0.69232 0.0
H590 H 0.55905 0.11747 0.66397 0.0
C591 C 0.50832 0.0669 0.59239 0.0
C592 C 0.55153 0.03635 0.63125 0.0
C593 C 0.49703 0.0611 0.57155 0.0
C594 C 0.55029 0.03512 0.72127 0.0
C595 C 0.54605 0.03475 0.69962 0.0
C596 C 0.55736 0.09485 0.65497 0.0
C597 C 0.53709 0.06116 0.59911 0.0
C598 C 0.54679 0.06398 0.62155 0.0
C599 C 0.56685 0.06707 0.68762 0.0
C600 C 0.56127 0.06676 0.66474 0.0
H601 H 0.55808 0.03663 0.55268 0.0
H602 H 0.57777 0.04668 0.58911 0.0
H603 H 0.54671 0.11517 0.62649 0.0
H604 H 0.61661 0.1256 0.72665 0.0
H605 H 0.60897 0.12491 0.68877 0.0
C606 C 0.5404 0.50225 0.89844 0.0
C607 C 0.57033 0.53554 0.89106 0.0
C608 C 0.53818 0.49204 0.91949 0.0
C609 C 0.59285 0.51569 0.96887 0.0
H610 H 0.49566 0.46979 0.99473 0.0
C611 C 0.56527 0.51516 0.0577 0.0
C612 C 0.53766 0.48179 0.06664 0.0
C613 C 0.57168 0.51827 0.03613 0.0
C614 C 0.52292 0.48217 0.98766 0.0
H615 H 0.62165 0.58406 0.89968 0.0
H616 H 0.61711 0.56722 0.93652 0.0
H617 H 0.50191 0.48176 0.95725 0.0
H618 H 0.49591 0.4252 0.06004 0.0
H619 H 0.50675 0.43095 0.0223 0.0
H620 H 0.61376 0.51762 -0.00028 0.0
C621 C 0.59581 0.54829 0.92608 0.0
C622 C 0.52656 0.48892 0.96614 0.0
C623 C 0.5983 0.55816 0.90497 0.0
C624 C 0.51739 0.45128 0.05364 0.0
C625 C 0.52344 0.45458 0.03204 0.0
C626 C 0.58922 0.50943 0.99048 0.0
C627 C 0.56552 0.51526 0.93369 0.0
C628 C 0.5616 0.50604 0.95645 0.0
C629 C 0.55027 0.48824 0.02307 0.0
C630 C 0.55423 0.49283 7e-05 0.0
H631 H 0.51852 0.48422 0.888 0.0
H632 H 0.51484 0.46604 0.92462 0.0
H633 H 0.6202 0.52825 0.96195 0.0
H634 H 0.58143 0.53912 0.06731 0.0
H635 H 0.59239 0.54461 0.02956 0.0
C636 C 0.9922 0.45162 0.24218 0.0
C637 C 0.99309 0.47639 0.22691 0.0
C638 C 0.98984 0.45806 0.26333 0.0
C639 C 0.95952 0.50054 0.30118 0.0
H640 H 0.04117 0.51087 0.3348 0.0
C641 C 0.9733 0.53999 0.38865 0.0
C642 C 0.98838 0.52428 0.40208 0.0
C643 C 0.97358 0.53561 0.367 0.0
C644 C 0.01779 0.50745 0.3258 0.0
H645 H 0.99067 0.52643 0.22163 0.0
H646 H 0.98522 0.53698 0.25883 0.0
H647 H 0.03991 0.49867 0.29761 0.0
H648 H 0.01468 0.49091 0.40346 0.0
H649 H 0.01371 0.48183 0.36603 0.0
H650 H 0.93641 0.50767 0.32941 0.0
C651 C 0.98682 0.51291 0.25431 0.0
C652 C 0.01729 0.50075 0.30446 0.0
C653 C 0.98994 0.50687 0.23311 0.0
C654 C 0.0033 0.50377 0.39349 0.0
C655 C 0.00295 0.49879 0.37194 0.0
C656 C 0.95958 0.50652 0.32267 0.0
C657 C 0.98758 0.48896 0.26957 0.0
C658 C 0.98811 0.49705 0.29201 0.0
C659 C 0.98838 0.51488 0.35835 0.0
C660 C 0.98864 0.50981 0.33531 0.0
H661 H 0.99455 0.42788 0.23784 0.0
H662 H 0.99025 0.43914 0.27488 0.0
H663 H 0.93668 0.49765 0.29181 0.0
H664 H 0.96174 0.55609 0.39485 0.0
H665 H 0.96261 0.5489 0.35708 0.0
loop_
_geom_bond_atom_site_label_1
_geom_bond_atom_site_label_2
_geom_bond_distance
_geom_bond_site_symmetry_2
_ccdc_geom_bond_type
Dy0 O4 2.398 . S
Dy0 O5 2.491 . S
Dy0 O6 2.403 . S
Dy0 O7 2.664 . S
Dy0 O11 2.326 . S
Dy0 O15 2.310 . S
Dy0 O16 2.351 1_455 S
C1 O12 1.185 . S
C1 O13 1.355 . S
C2 O4 1.185 . S
C2 O5 1.355 . S
Dy3 O7 2.310 1_655 S
Dy3 O10 2.351 1_655 S
Dy3 O12 2.398 . S
Dy3 O13 2.491 . S
Dy3 O14 2.403 1_655 S
Dy3 O15 2.664 1_655 S
Dy3 O17 2.326 . S
O4 Dy0 2.398 . S
O4 C2 1.185 . S
O5 Dy0 2.491 . S
O5 C2 1.355 . S
O6 Dy0 2.403 . S
O6 C8 1.254 . S
O7 Dy0 2.664 . S
O7 Dy3 2.310 1_455 S
O7 C8 1.268 . S
C8 O6 1.254 . S
C8 O7 1.268 . S
C9 O14 1.254 . S
C9 O15 1.268 . S
O10 Dy3 2.351 1_455 S
O10 C18 1.249 . S
O11 Dy0 2.326 . S
O11 C18 1.267 . S
O12 C1 1.185 . S
O12 Dy3 2.398 . S
O13 C1 1.355 . S
O13 Dy3 2.491 . S
O14 Dy3 2.403 1_455 S
O14 C9 1.254 . S
O15 Dy0 2.310 . S
O15 Dy3 2.664 1_455 S
O15 C9 1.268 . S
O16 Dy0 2.351 1_655 S
O16 C19 1.249 . S
O17 Dy3 2.326 . S
O17 C19 1.267 . S
C18 O10 1.249 . S
C18 O11 1.267 . S
C19 O16 1.249 . S
C19 O17 1.267 . S
Dy20 O24 2.398 . S
Dy20 O25 2.491 . S
Dy20 O26 2.403 . S
Dy20 O27 2.664 1_565 S
Dy20 O31 2.326 . S
Dy20 O35 2.310 1_565 S
Dy20 O36 2.351 1_565 S
C21 O32 1.185 . S
C21 O33 1.355 . S
C22 O24 1.185 . S
C22 O25 1.355 . S
Dy23 O27 2.310 . S
Dy23 O30 2.351 1_545 S
Dy23 O32 2.398 . S
Dy23 O33 2.491 . S
Dy23 O34 2.403 . S
Dy23 O35 2.664 . S
Dy23 O37 2.326 . S
O24 Dy20 2.398 . S
O24 C22 1.185 . S
O25 Dy20 2.491 . S
O25 C22 1.355 . S
O26 Dy20 2.403 . S
O26 C28 1.254 1_565 S
O27 Dy20 2.664 1_545 S
O27 Dy23 2.310 . S
O27 C28 1.268 . S
C28 O26 1.254 1_545 S
C28 O27 1.268 . S
C29 O34 1.254 . S
C29 O35 1.268 . S
O30 Dy23 2.351 1_565 S
O30 C38 1.249 . S
O31 Dy20 2.326 . S
O31 C38 1.267 . S
O32 C21 1.185 . S
O32 Dy23 2.398 . S
O33 C21 1.355 . S
O33 Dy23 2.491 . S
O34 Dy23 2.403 . S
O34 C29 1.254 . S
O35 Dy20 2.310 1_545 S
O35 Dy23 2.664 . S
O35 C29 1.268 . S
O36 Dy20 2.351 1_545 S
O36 C39 1.249 . S
O37 Dy23 2.326 . S
O37 C39 1.267 . S
C38 O30 1.249 . S
C38 O31 1.267 . S
C39 O36 1.249 . S
C39 O37 1.267 . S
Dy40 O44 2.398 . S
Dy40 O45 2.491 . S
Dy40 O46 2.403 . S
Dy40 O47 2.664 . S
Dy40 O51 2.326 . S
Dy40 O55 2.310 . S
Dy40 O56 2.351 . S
C41 O52 1.185 . S
C41 O53 1.355 . S
C42 O44 1.185 . S
C42 O45 1.355 . S
Dy43 O47 2.310 . S
Dy43 O50 2.351 . S
Dy43 O52 2.398 . S
Dy43 O53 2.491 . S
Dy43 O54 2.403 . S
Dy43 O55 2.664 . S
Dy43 O57 2.326 . S
O44 Dy40 2.398 . S
O44 C42 1.185 . S
O45 Dy40 2.491 . S
O45 C42 1.355 . S
O46 Dy40 2.403 . S
O46 C48 1.254 . S
O47 Dy40 2.664 . S
O47 Dy43 2.310 . S
O47 C48 1.268 . S
C48 O46 1.254 . S
C48 O47 1.268 . S
C49 O54 1.254 . S
C49 O55 1.268 . S
O50 Dy43 2.351 . S
O50 C58 1.249 . S
O51 Dy40 2.326 . S
O51 C58 1.267 . S
O52 C41 1.185 . S
O52 Dy43 2.398 . S
O53 C41 1.355 . S
O53 Dy43 2.491 . S
O54 Dy43 2.403 . S
O54 C49 1.254 . S
O55 Dy40 2.310 . S
O55 Dy43 2.664 . S
O55 C49 1.268 . S
O56 Dy40 2.351 . S
O56 C59 1.249 . S
O57 Dy43 2.326 . S
O57 C59 1.267 . S
C58 O50 1.249 . S
C58 O51 1.267 . S
C59 O56 1.249 . S
C59 O57 1.267 . S
O60 Cd61 2.300 . S
O60 C67 1.275 . S
Cd61 O60 2.300 . S
Cd61 O69 2.381 . S
Cd61 O70 2.378 . S
O62 Cd63 2.385 . S
O62 C67 1.255 1_565 S
Cd63 O62 2.385 . S
Cd63 O64 2.317 . S
O64 Cd63 2.317 . S
O64 C65 1.232 . S
C65 O64 1.232 . S
C65 O66 1.218 . S
O66 C65 1.218 . S
C67 O60 1.275 . S
C67 O62 1.255 1_545 S
C68 O69 1.258 . S
C68 O70 1.256 . S
O69 Cd61 2.381 . S
O69 C68 1.258 . S
O70 Cd61 2.378 . S
O70 C68 1.256 . S
O71 Cd72 2.300 . S
O71 C78 1.275 . S
Cd72 O71 2.300 . S
Cd72 O80 2.381 . S
Cd72 O81 2.378 . S
O73 Cd74 2.385 . S
O73 C78 1.255 . S
Cd74 O73 2.385 . S
Cd74 O75 2.317 . S
O75 Cd74 2.317 . S
O75 C76 1.232 . S
C76 O75 1.232 . S
C76 O77 1.218 . S
O77 C76 1.218 . S
C78 O71 1.275 . S
C78 O73 1.255 . S
C79 O80 1.258 . S
C79 O81 1.256 . S
O80 Cd72 2.381 . S
O80 C79 1.258 . S
O81 Cd72 2.378 . S
O81 C79 1.256 . S
O82 Cd83 2.300 . S
O82 C89 1.275 . S
Cd83 O82 2.300 . S
Cd83 O91 2.381 . S
Cd83 O92 2.378 . S
O84 Cd85 2.385 1_455 S
O84 C89 1.255 . S
Cd85 O84 2.385 1_655 S
Cd85 O86 2.317 . S
O86 Cd85 2.317 . S
O86 C87 1.232 . S
C87 O86 1.232 . S
C87 O88 1.218 . S
O88 C87 1.218 . S
C89 O82 1.275 . S
C89 O84 1.255 . S
C90 O91 1.258 . S
C90 O92 1.256 . S
O91 Cd83 2.381 . S
O91 C90 1.258 . S
O92 Cd83 2.378 . S
O92 C90 1.256 . S
O93 Cd94 2.300 . S
O93 C100 1.275 . S
Cd94 O93 2.300 . S
Cd94 O102 2.381 . S
Cd94 O103 2.378 . S
O95 Cd96 2.385 . S
O95 C100 1.255 1_655 S
Cd96 O95 2.385 . S
Cd96 O97 2.317 . S
O97 Cd96 2.317 . S
O97 C98 1.232 . S
C98 O97 1.232 . S
C98 O99 1.218 . S
O99 C98 1.218 . S
C100 O93 1.275 . S
C100 O95 1.255 1_455 S
C101 O102 1.258 . S
C101 O103 1.256 . S
O102 Cd94 2.381 . S
O102 C101 1.258 . S
O103 Cd94 2.378 . S
O103 C101 1.256 . S
O104 Cd105 2.300 . S
O104 C111 1.275 . S
Cd105 O104 2.300 . S
Cd105 O113 2.381 1_545 S
Cd105 O114 2.378 1_545 S
O106 Cd107 2.385 . S
O106 C111 1.255 . S
Cd107 O106 2.385 . S
Cd107 O108 2.317 . S
O108 Cd107 2.317 . S
O108 C109 1.232 . S
C109 O108 1.232 . S
C109 O110 1.218 . S
O110 C109 1.218 . S
C111 O104 1.275 . S
C111 O106 1.255 . S
C112 O113 1.258 . S
C112 O114 1.256 . S
O113 Cd105 2.381 1_565 S
O113 C112 1.258 . S
O114 Cd105 2.378 1_565 S
O114 C112 1.256 . S
O115 Cd116 2.300 . S
O115 C122 1.275 . S
Cd116 O115 2.300 . S
Cd116 O124 2.381 . S
Cd116 O125 2.378 . S
O117 Cd118 2.385 . S
O117 C122 1.255 . S
Cd118 O117 2.385 . S
Cd118 O119 2.317 . S
O119 Cd118 2.317 . S
O119 C120 1.232 . S
C120 O119 1.232 . S
C120 O121 1.218 . S
O121 C120 1.218 . S
C122 O115 1.275 . S
C122 O117 1.255 . S
C123 O124 1.258 . S
C123 O125 1.256 . S
O124 Cd116 2.381 . S
O124 C123 1.258 . S
O125 Cd116 2.378 . S
O125 C123 1.256 . S
C126 C127 1.349 . S
C126 C128 1.327 . S
C126 H151 0.950 . S
C127 C126 1.349 . S
C127 C143 1.349 . S
C128 C126 1.327 . S
C128 C147 1.429 . S
C128 H152 0.950 . S
C129 C146 1.574 . S
C129 C148 1.368 . S
C129 H153 0.949 . S
H130 C134 0.949 . S
C131 C132 1.349 . S
C131 C133 1.327 . S
C131 H154 0.950 . S
C132 C131 1.349 . S
C132 C144 1.349 . S
C133 C131 1.327 . S
C133 C149 1.429 . S
C133 H155 0.950 . S
C134 H130 0.949 . S
C134 C142 1.574 . S
C134 C150 1.368 . S
H135 C143 0.950 . S
H136 C141 0.950 . S
H137 C142 0.949 . S
H138 C144 0.950 . S
H139 C145 0.950 . S
H140 C146 0.949 . S
C141 H136 0.950 . S
C141 C143 1.327 . S
C141 C147 1.429 . S
C142 C134 1.574 . S
C142 H137 0.949 . S
C142 C148 1.368 . S
C143 C127 1.349 . S
C143 H135 0.950 . S
C143 C141 1.327 . S
C144 C132 1.349 . S
C144 H138 0.950 . S
C144 C145 1.327 . S
C145 H139 0.950 . S
C145 C144 1.327 . S
C145 C149 1.429 . S
C146 C129 1.574 . S
C146 H140 0.949 . S
C146 C150 1.368 . S
C147 C128 1.429 . S
C147 C141 1.429 . S
C147 C148 1.523 . S
C148 C129 1.368 . S
C148 C142 1.368 . S
C148 C147 1.523 . S
C149 C133 1.429 . S
C149 C145 1.429 . S
C149 C150 1.523 . S
C150 C134 1.368 . S
C150 C146 1.368 . S
C150 C149 1.523 . S
H151 C126 0.950 . S
H152 C128 0.950 . S
H153 C129 0.949 . S
H154 C131 0.950 . S
H155 C133 0.950 . S
C156 C157 1.349 . S
C156 C158 1.327 . S
C156 H181 0.950 . S
C157 C156 1.349 . S
C157 C173 1.349 . S
C158 C156 1.327 . S
C158 C177 1.429 . S
C158 H182 0.950 . S
C159 C176 1.574 . S
C159 C178 1.368 . S
C159 H183 0.949 . S
H160 C164 0.949 . S
C161 C162 1.349 . S
C161 C163 1.327 . S
C161 H184 0.950 . S
C162 C161 1.349 . S
C162 C174 1.349 . S
C163 C161 1.327 . S
C163 C179 1.429 . S
C163 H185 0.950 . S
C164 H160 0.949 . S
C164 C172 1.574 . S
C164 C180 1.368 . S
H165 C173 0.950 . S
H166 C171 0.950 . S
H167 C172 0.949 . S
H168 C174 0.950 . S
H169 C175 0.950 . S
H170 C176 0.949 . S
C171 H166 0.950 . S
C171 C173 1.327 . S
C171 C177 1.429 . S
C172 C164 1.574 . S
C172 H167 0.949 . S
C172 C178 1.368 . S
C173 C157 1.349 . S
C173 H165 0.950 . S
C173 C171 1.327 . S
C174 C162 1.349 . S
C174 H168 0.950 . S
C174 C175 1.327 . S
C175 H169 0.950 . S
C175 C174 1.327 . S
C175 C179 1.429 . S
C176 C159 1.574 . S
C176 H170 0.949 . S
C176 C180 1.368 . S
C177 C158 1.429 . S
C177 C171 1.429 . S
C177 C178 1.523 . S
C178 C159 1.368 . S
C178 C172 1.368 . S
C178 C177 1.523 . S
C179 C163 1.429 . S
C179 C175 1.429 . S
C179 C180 1.523 . S
C180 C164 1.368 . S
C180 C176 1.368 . S
C180 C179 1.523 . S
H181 C156 0.950 . S
H182 C158 0.950 . S
H183 C159 0.949 . S
H184 C161 0.950 . S
H185 C163 0.950 . S
C186 C187 1.349 . S
C186 C188 1.327 . S
C186 H211 0.950 . S
C187 C186 1.349 . S
C187 C203 1.349 . S
C188 C186 1.327 . S
C188 C207 1.429 . S
C188 H212 0.950 . S
C189 C206 1.574 . S
C189 C208 1.368 . S
C189 H213 0.949 . S
H190 C194 0.949 . S
C191 C192 1.349 . S
C191 C193 1.327 . S
C191 H214 0.950 . S
C192 C191 1.349 . S
C192 C204 1.349 . S
C193 C191 1.327 . S
C193 C209 1.429 . S
C193 H215 0.950 . S
C194 H190 0.949 . S
C194 C202 1.574 . S
C194 C210 1.368 . S
H195 C203 0.950 . S
H196 C201 0.950 . S
H197 C202 0.949 . S
H198 C204 0.950 . S
H199 C205 0.950 . S
H200 C206 0.949 . S
C201 H196 0.950 . S
C201 C203 1.327 . S
C201 C207 1.429 . S
C202 C194 1.574 . S
C202 H197 0.949 . S
C202 C208 1.368 . S
C203 C187 1.349 . S
C203 H195 0.950 . S
C203 C201 1.327 . S
C204 C192 1.349 . S
C204 H198 0.950 . S
C204 C205 1.327 . S
C205 H199 0.950 . S
C205 C204 1.327 . S
C205 C209 1.429 . S
C206 C189 1.574 . S
C206 H200 0.949 . S
C206 C210 1.368 . S
C207 C188 1.429 . S
C207 C201 1.429 . S
C207 C208 1.523 . S
C208 C189 1.368 . S
C208 C202 1.368 . S
C208 C207 1.523 . S
C209 C193 1.429 . S
C209 C205 1.429 . S
C209 C210 1.523 . S
C210 C194 1.368 . S
C210 C206 1.368 . S
C210 C209 1.523 . S
H211 C186 0.950 . S
H212 C188 0.950 . S
H213 C189 0.949 . S
H214 C191 0.950 . S
H215 C193 0.950 . S
C216 C217 1.349 . S
C216 C218 1.327 . S
C216 H241 0.950 . S
C217 C216 1.349 . S
C217 C233 1.349 . S
C218 C216 1.327 . S
C218 C237 1.429 . S
C218 H242 0.950 . S
C219 C236 1.574 . S
C219 C238 1.368 . S
C219 H243 0.949 . S
H220 C224 0.949 . S
C221 C222 1.349 . S
C221 C223 1.327 . S
C221 H244 0.950 . S
C222 C221 1.349 . S
C222 C234 1.349 . S
C223 C221 1.327 . S
C223 C239 1.429 . S
C223 H245 0.950 . S
C224 H220 0.949 . S
C224 C232 1.574 . S
C224 C240 1.368 . S
H225 C233 0.950 . S
H226 C231 0.950 . S
H227 C232 0.949 . S
H228 C234 0.950 . S
H229 C235 0.950 . S
H230 C236 0.949 . S
C231 H226 0.950 . S
C231 C233 1.327 . S
C231 C237 1.429 . S
C232 C224 1.574 . S
C232 H227 0.949 . S
C232 C238 1.368 . S
C233 C217 1.349 . S
C233 H225 0.950 . S
C233 C231 1.327 . S
C234 C222 1.349 . S
C234 H228 0.950 . S
C234 C235 1.327 . S
C235 H229 0.950 . S
C235 C234 1.327 . S
C235 C239 1.429 . S
C236 C219 1.574 . S
C236 H230 0.949 . S
C236 C240 1.368 . S
C237 C218 1.429 . S
C237 C231 1.429 . S
C237 C238 1.523 . S
C238 C219 1.368 . S
C238 C232 1.368 . S
C238 C237 1.523 . S
C239 C223 1.429 . S
C239 C235 1.429 . S
C239 C240 1.523 . S
C240 C224 1.368 . S
C240 C236 1.368 . S
C240 C239 1.523 . S
H241 C216 0.950 . S
H242 C218 0.950 . S
H243 C219 0.949 . S
H244 C221 0.950 . S
H245 C223 0.950 . S
C246 C247 1.349 . S
C246 C248 1.327 . S
C246 H271 0.950 . S
C247 C246 1.349 . S
C247 C263 1.349 . S
C248 C246 1.327 . S
C248 C267 1.429 . S
C248 H272 0.950 . S
C249 C266 1.574 . S
C249 C268 1.368 . S
C249 H273 0.949 . S
H250 C254 0.949 . S
C251 C252 1.349 . S
C251 C253 1.327 . S
C251 H274 0.950 . S
C252 C251 1.349 . S
C252 C264 1.349 . S
C253 C251 1.327 . S
C253 C269 1.429 . S
C253 H275 0.950 . S
C254 H250 0.949 . S
C254 C262 1.574 . S
C254 C270 1.368 . S
H255 C263 0.950 . S
H256 C261 0.950 . S
H257 C262 0.949 . S
H258 C264 0.950 . S
H259 C265 0.950 . S
H260 C266 0.949 . S
C261 H256 0.950 . S
C261 C263 1.327 . S
C261 C267 1.429 . S
C262 C254 1.574 . S
C262 H257 0.949 . S
C262 C268 1.368 . S
C263 C247 1.349 . S
C263 H255 0.950 . S
C263 C261 1.327 . S
C264 C252 1.349 . S
C264 H258 0.950 . S
C264 C265 1.327 . S
C265 H259 0.950 . S
C265 C264 1.327 . S
C265 C269 1.429 . S
C266 C249 1.574 . S
C266 H260 0.949 . S
C266 C270 1.368 . S
C267 C248 1.429 . S
C267 C261 1.429 . S
C267 C268 1.523 . S
C268 C249 1.368 . S
C268 C262 1.368 . S
C268 C267 1.523 . S
C269 C253 1.429 . S
C269 C265 1.429 . S
C269 C270 1.523 . S
C270 C254 1.368 . S
C270 C266 1.368 . S
C270 C269 1.523 . S
H271 C246 0.950 . S
H272 C248 0.950 . S
H273 C249 0.949 . S
H274 C251 0.950 . S
H275 C253 0.950 . S
C276 C277 1.349 . S
C276 C278 1.327 . S
C276 H301 0.950 . S
C277 C276 1.349 . S
C277 C293 1.349 . S
C278 C276 1.327 . S
C278 C297 1.429 . S
C278 H302 0.950 . S
C279 C296 1.574 . S
C279 C298 1.368 . S
C279 H303 0.949 . S
H280 C284 0.949 . S
C281 C282 1.349 . S
C281 C283 1.327 . S
C281 H304 0.950 . S
C282 C281 1.349 . S
C282 C294 1.349 . S
C283 C281 1.327 . S
C283 C299 1.429 . S
C283 H305 0.950 . S
C284 H280 0.949 . S
C284 C292 1.574 . S
C284 C300 1.368 . S
H285 C293 0.950 . S
H286 C291 0.950 . S
H287 C292 0.949 . S
H288 C294 0.950 . S
H289 C295 0.950 . S
H290 C296 0.949 . S
C291 H286 0.950 . S
C291 C293 1.327 . S
C291 C297 1.429 . S
C292 C284 1.574 . S
C292 H287 0.949 . S
C292 C298 1.368 . S
C293 C277 1.349 . S
C293 H285 0.950 . S
C293 C291 1.327 . S
C294 C282 1.349 . S
C294 H288 0.950 . S
C294 C295 1.327 . S
C295 H289 0.950 . S
C295 C294 1.327 . S
C295 C299 1.429 . S
C296 C279 1.574 . S
C296 H290 0.949 . S
C296 C300 1.368 . S
C297 C278 1.429 . S
C297 C291 1.429 . S
C297 C298 1.523 . S
C298 C279 1.368 . S
C298 C292 1.368 . S
C298 C297 1.523 . S
C299 C283 1.429 . S
C299 C295 1.429 . S
C299 C300 1.523 . S
C300 C284 1.368 . S
C300 C296 1.368 . S
C300 C299 1.523 . S
H301 C276 0.950 . S
H302 C278 0.950 . S
H303 C279 0.949 . S
H304 C281 0.950 . S
H305 C283 0.950 . S
C306 C307 1.349 . S
C306 C308 1.327 . S
C306 H331 0.950 . S
C307 C306 1.349 . S
C307 C323 1.349 . S
C308 C306 1.327 . S
C308 C327 1.429 . S
C308 H332 0.950 . S
C309 C326 1.574 . S
C309 C328 1.368 . S
C309 H333 0.949 . S
H310 C314 0.949 . S
C311 C312 1.349 . S
C311 C313 1.327 . S
C311 H334 0.950 . S
C312 C311 1.349 . S
C312 C324 1.349 . S
C313 C311 1.327 . S
C313 C329 1.429 . S
C313 H335 0.950 . S
C314 H310 0.949 . S
C314 C322 1.574 . S
C314 C330 1.368 . S
H315 C323 0.950 . S
H316 C321 0.950 . S
H317 C322 0.949 . S
H318 C324 0.950 . S
H319 C325 0.950 . S
H320 C326 0.949 . S
C321 H316 0.950 . S
C321 C323 1.327 . S
C321 C327 1.429 . S
C322 C314 1.574 . S
C322 H317 0.949 . S
C322 C328 1.368 . S
C323 C307 1.349 . S
C323 H315 0.950 . S
C323 C321 1.327 . S
C324 C312 1.349 . S
C324 H318 0.950 . S
C324 C325 1.327 . S
C325 H319 0.950 . S
C325 C324 1.327 . S
C325 C329 1.429 . S
C326 C309 1.574 . S
C326 H320 0.949 . S
C326 C330 1.368 . S
C327 C308 1.429 . S
C327 C321 1.429 . S
C327 C328 1.523 . S
C328 C309 1.368 . S
C328 C322 1.368 . S
C328 C327 1.523 . S
C329 C313 1.429 . S
C329 C325 1.429 . S
C329 C330 1.523 . S
C330 C314 1.368 . S
C330 C326 1.368 . S
C330 C329 1.523 . S
H331 C306 0.950 . S
H332 C308 0.950 . S
H333 C309 0.949 . S
H334 C311 0.950 . S
H335 C313 0.950 . S
C336 C337 1.349 . S
C336 C338 1.327 . S
C336 H361 0.950 . S
C337 C336 1.349 . S
C337 C353 1.349 . S
C338 C336 1.327 . S
C338 C357 1.429 . S
C338 H362 0.950 . S
C339 C356 1.574 . S
C339 C358 1.368 . S
C339 H363 0.949 . S
H340 C344 0.949 . S
C341 C342 1.349 . S
C341 C343 1.327 . S
C341 H364 0.950 . S
C342 C341 1.349 . S
C342 C354 1.349 . S
C343 C341 1.327 . S
C343 C359 1.429 . S
C343 H365 0.950 . S
C344 H340 0.949 . S
C344 C352 1.574 . S
C344 C360 1.368 . S
H345 C353 0.950 . S
H346 C351 0.950 . S
H347 C352 0.949 . S
H348 C354 0.950 . S
H349 C355 0.950 . S
H350 C356 0.949 . S
C351 H346 0.950 . S
C351 C353 1.327 . S
C351 C357 1.429 . S
C352 C344 1.574 . S
C352 H347 0.949 . S
C352 C358 1.368 . S
C353 C337 1.349 . S
C353 H345 0.950 . S
C353 C351 1.327 . S
C354 C342 1.349 . S
C354 H348 0.950 . S
C354 C355 1.327 . S
C355 H349 0.950 . S
C355 C354 1.327 . S
C355 C359 1.429 . S
C356 C339 1.574 . S
C356 H350 0.949 . S
C356 C360 1.368 . S
C357 C338 1.429 . S
C357 C351 1.429 . S
C357 C358 1.523 . S
C358 C339 1.368 . S
C358 C352 1.368 . S
C358 C357 1.523 . S
C359 C343 1.429 . S
C359 C355 1.429 . S
C359 C360 1.523 . S
C360 C344 1.368 . S
C360 C356 1.368 . S
C360 C359 1.523 . S
H361 C336 0.950 . S
H362 C338 0.950 . S
H363 C339 0.949 . S
H364 C341 0.950 . S
H365 C343 0.950 . S
C366 C367 1.349 . S
C366 C368 1.327 . S
C366 H391 0.950 . S
C367 C366 1.349 . S
C367 C383 1.349 . S
C368 C366 1.327 . S
C368 C387 1.429 . S
C368 H392 0.950 . S
C369 C386 1.574 . S
C369 C388 1.368 . S
C369 H393 0.949 . S
H370 C374 0.949 . S
C371 C372 1.349 . S
C371 C373 1.327 . S
C371 H394 0.950 . S
C372 C371 1.349 . S
C372 C384 1.349 . S
C373 C371 1.327 . S
C373 C389 1.429 . S
C373 H395 0.950 . S
C374 H370 0.949 . S
C374 C382 1.574 . S
C374 C390 1.368 . S
H375 C383 0.950 . S
H376 C381 0.950 . S
H377 C382 0.949 . S
H378 C384 0.950 . S
H379 C385 0.950 . S
H380 C386 0.949 . S
C381 H376 0.950 . S
C381 C383 1.327 . S
C381 C387 1.429 . S
C382 C374 1.574 . S
C382 H377 0.949 . S
C382 C388 1.368 . S
C383 C367 1.349 . S
C383 H375 0.950 . S
C383 C381 1.327 . S
C384 C372 1.349 . S
C384 H378 0.950 . S
C384 C385 1.327 . S
C385 H379 0.950 . S
C385 C384 1.327 . S
C385 C389 1.429 . S
C386 C369 1.574 . S
C386 H380 0.949 . S
C386 C390 1.368 . S
C387 C368 1.429 . S
C387 C381 1.429 . S
C387 C388 1.523 . S
C388 C369 1.368 . S
C388 C382 1.368 . S
C388 C387 1.523 . S
C389 C373 1.429 . S
C389 C385 1.429 . S
C389 C390 1.523 . S
C390 C374 1.368 . S
C390 C386 1.368 . S
C390 C389 1.523 . S
H391 C366 0.950 . S
H392 C368 0.950 . S
H393 C369 0.949 . S
H394 C371 0.950 . S
H395 C373 0.950 . S
C396 C397 1.349 . S
C396 C398 1.327 . S
C396 H421 0.950 . S
C397 C396 1.349 . S
C397 C413 1.349 . S
C398 C396 1.327 . S
C398 C417 1.429 . S
C398 H422 0.950 . S
C399 C416 1.574 . S
C399 C418 1.368 . S
C399 H423 0.949 . S
H400 C404 0.949 . S
C401 C402 1.349 . S
C401 C403 1.327 . S
C401 H424 0.950 . S
C402 C401 1.349 . S
C402 C414 1.349 . S
C403 C401 1.327 . S
C403 C419 1.429 . S
C403 H425 0.950 . S
C404 H400 0.949 . S
C404 C412 1.574 . S
C404 C420 1.368 . S
H405 C413 0.950 . S
H406 C411 0.950 . S
H407 C412 0.949 . S
H408 C414 0.950 . S
H409 C415 0.950 . S
H410 C416 0.949 . S
C411 H406 0.950 . S
C411 C413 1.327 . S
C411 C417 1.429 . S
C412 C404 1.574 . S
C412 H407 0.949 . S
C412 C418 1.368 . S
C413 C397 1.349 . S
C413 H405 0.950 . S
C413 C411 1.327 . S
C414 C402 1.349 . S
C414 H408 0.950 . S
C414 C415 1.327 . S
C415 H409 0.950 . S
C415 C414 1.327 . S
C415 C419 1.429 . S
C416 C399 1.574 . S
C416 H410 0.949 . S
C416 C420 1.368 . S
C417 C398 1.429 . S
C417 C411 1.429 . S
C417 C418 1.523 . S
C418 C399 1.368 . S
C418 C412 1.368 . S
C418 C417 1.523 . S
C419 C403 1.429 . S
C419 C415 1.429 . S
C419 C420 1.523 . S
C420 C404 1.368 . S
C420 C416 1.368 . S
C420 C419 1.523 . S
H421 C396 0.950 . S
H422 C398 0.950 . S
H423 C399 0.949 . S
H424 C401 0.950 . S
H425 C403 0.950 . S
C426 C427 1.349 . S
C426 C428 1.327 . S
C426 H451 0.950 . S
C427 C426 1.349 . S
C427 C443 1.349 . S
C428 C426 1.327 . S
C428 C447 1.429 . S
C428 H452 0.950 . S
C429 C446 1.574 . S
C429 C448 1.368 . S
C429 H453 0.949 . S
H430 C434 0.949 . S
C431 C432 1.349 . S
C431 C433 1.327 . S
C431 H454 0.950 . S
C432 C431 1.349 . S
C432 C444 1.349 . S
C433 C431 1.327 . S
C433 C449 1.429 . S
C433 H455 0.950 . S
C434 H430 0.949 . S
C434 C442 1.574 . S
C434 C450 1.368 . S
H435 C443 0.950 . S
H436 C441 0.950 . S
H437 C442 0.949 . S
H438 C444 0.950 . S
H439 C445 0.950 . S
H440 C446 0.949 . S
C441 H436 0.950 . S
C441 C443 1.327 . S
C441 C447 1.429 . S
C442 C434 1.574 . S
C442 H437 0.949 . S
C442 C448 1.368 . S
C443 C427 1.349 . S
C443 H435 0.950 . S
C443 C441 1.327 . S
C444 C432 1.349 . S
C444 H438 0.950 . S
C444 C445 1.327 . S
C445 H439 0.950 . S
C445 C444 1.327 . S
C445 C449 1.429 . S
C446 C429 1.574 . S
C446 H440 0.949 . S
C446 C450 1.368 . S
C447 C428 1.429 . S
C447 C441 1.429 . S
C447 C448 1.523 . S
C448 C429 1.368 . S
C448 C442 1.368 . S
C448 C447 1.523 . S
C449 C433 1.429 . S
C449 C445 1.429 . S
C449 C450 1.523 . S
C450 C434 1.368 . S
C450 C446 1.368 . S
C450 C449 1.523 . S
H451 C426 0.950 . S
H452 C428 0.950 . S
H453 C429 0.949 . S
H454 C431 0.950 . S
H455 C433 0.950 . S
C456 C457 1.349 . S
C456 C458 1.327 . S
C456 H481 0.950 . S
C457 C456 1.349 . S
C457 C473 1.349 . S
C458 C456 1.327 . S
C458 C477 1.429 . S
C458 H482 0.950 . S
C459 C476 1.574 . S
C459 C478 1.368 . S
C459 H483 0.949 . S
H460 C464 0.949 . S
C461 C462 1.349 . S
C461 C463 1.327 . S
C461 H484 0.950 . S
C462 C461 1.349 . S
C462 C474 1.349 . S
C463 C461 1.327 . S
C463 C479 1.429 . S
C463 H485 0.950 . S
C464 H460 0.949 . S
C464 C472 1.574 . S
C464 C480 1.368 . S
H465 C473 0.950 . S
H466 C471 0.950 . S
H467 C472 0.949 . S
H468 C474 0.950 . S
H469 C475 0.950 . S
H470 C476 0.949 . S
C471 H466 0.950 . S
C471 C473 1.327 . S
C471 C477 1.429 . S
C472 C464 1.574 . S
C472 H467 0.949 . S
C472 C478 1.368 . S
C473 C457 1.349 . S
C473 H465 0.950 . S
C473 C471 1.327 . S
C474 C462 1.349 . S
C474 H468 0.950 . S
C474 C475 1.327 . S
C475 H469 0.950 . S
C475 C474 1.327 . S
C475 C479 1.429 . S
C476 C459 1.574 . S
C476 H470 0.949 . S
C476 C480 1.368 . S
C477 C458 1.429 . S
C477 C471 1.429 . S
C477 C478 1.523 . S
C478 C459 1.368 . S
C478 C472 1.368 . S
C478 C477 1.523 . S
C479 C463 1.429 . S
C479 C475 1.429 . S
C479 C480 1.523 . S
C480 C464 1.368 . S
C480 C476 1.368 . S
C480 C479 1.523 . S
H481 C456 0.950 . S
H482 C458 0.950 . S
H483 C459 0.949 . S
H484 C461 0.950 . S
H485 C463 0.950 . S
C486 C487 1.349 . S
C486 C488 1.327 . S
C486 H511 0.950 . S
C487 C486 1.349 . S
C487 C503 1.349 . S
C488 C486 1.327 . S
C488 C507 1.429 . S
C488 H512 0.950 . S
C489 C506 1.574 . S
C489 C508 1.368 . S
C489 H513 0.949 1_455 S
H490 C494 0.949 1_556 S
C491 C492 1.349 . S
C491 C493 1.327 . S
C491 H514 0.950 1_455 S
C492 C491 1.349 . S
C492 C504 1.349 . S
C493 C491 1.327 . S
C493 C509 1.429 . S
C493 H515 0.950 1_455 S
C494 H490 0.949 1_554 S
C494 C502 1.574 . S
C494 C510 1.368 1_554 S
H495 C503 0.950 1_655 S
H496 C501 0.950 1_655 S
H497 C502 0.949 . S
H498 C504 0.950 . S
H499 C505 0.950 . S
H500 C506 0.949 1_656 S
C501 H496 0.950 1_455 S
C501 C503 1.327 . S
C501 C507 1.429 . S
C502 C494 1.574 . S
C502 H497 0.949 . S
C502 C508 1.368 . S
C503 C487 1.349 . S
C503 H495 0.950 1_455 S
C503 C501 1.327 . S
C504 C492 1.349 . S
C504 H498 0.950 . S
C504 C505 1.327 . S
C505 H499 0.950 . S
C505 C504 1.327 . S
C505 C509 1.429 . S
C506 C489 1.574 . S
C506 H500 0.949 1_454 S
C506 C510 1.368 1_554 S
C507 C488 1.429 . S
C507 C501 1.429 . S
C507 C508 1.523 . S
C508 C489 1.368 . S
C508 C502 1.368 . S
C508 C507 1.523 . S
C509 C493 1.429 . S
C509 C505 1.429 . S
C509 C510 1.523 . S
C510 C494 1.368 1_556 S
C510 C506 1.368 1_556 S
C510 C509 1.523 . S
H511 C486 0.950 . S
H512 C488 0.950 . S
H513 C489 0.949 1_655 S
H514 C491 0.950 1_655 S
H515 C493 0.950 1_655 S
C516 C517 1.349 1_565 S
C516 C518 1.327 . S
C516 H541 0.950 . S
C517 C516 1.349 1_545 S
C517 C533 1.349 . S
C518 C516 1.327 . S
C518 C537 1.429 1_565 S
C518 H542 0.950 . S
C519 C536 1.574 . S
C519 C538 1.368 . S
C519 H543 0.949 . S
H520 C524 0.949 . S
C521 C522 1.347 . S
C521 C523 1.327 . S
C521 H544 0.950 . S
C522 C521 1.347 . S
C522 C534 1.350 1_545 S
C523 C521 1.327 . S
C523 C539 1.429 . S
C523 H545 0.950 . S
C524 H520 0.949 . S
C524 C532 1.574 . S
C524 C540 1.368 1_565 S
H525 C533 0.950 . S
H526 C531 0.950 . S
H527 C532 0.949 . S
H528 C534 0.950 . S
H529 C535 0.950 . S
H530 C536 0.949 . S
C531 H526 0.950 . S
C531 C533 1.327 . S
C531 C537 1.429 . S
C532 C524 1.574 . S
C532 H527 0.949 . S
C532 C538 1.368 1_565 S
C533 C517 1.349 . S
C533 H525 0.950 . S
C533 C531 1.327 . S
C534 C522 1.350 1_565 S
C534 H528 0.950 . S
C534 C535 1.327 . S
C535 H529 0.950 . S
C535 C534 1.327 . S
C535 C539 1.429 1_565 S
C536 C519 1.574 . S
C536 H530 0.949 . S
C536 C540 1.368 . S
C537 C518 1.429 1_545 S
C537 C531 1.429 . S
C537 C538 1.523 . S
C538 C519 1.368 . S
C538 C532 1.368 1_545 S
C538 C537 1.523 . S
C539 C523 1.429 . S
C539 C535 1.429 1_545 S
C539 C540 1.523 . S
C540 C524 1.368 1_545 S
C540 C536 1.368 . S
C540 C539 1.523 . S
H541 C516 0.950 . S
H542 C518 0.950 . S
H543 C519 0.949 . S
H544 C521 0.950 . S
H545 C523 0.950 . S
C546 C547 1.349 . S
C546 C548 1.327 . S
C546 H571 0.950 . S
C547 C546 1.349 . S
C547 C563 1.349 . S
C548 C546 1.327 . S
C548 C567 1.429 . S
C548 H572 0.950 . S
C549 C566 1.574 . S
C549 C568 1.368 . S
C549 H573 0.949 . S
H550 C554 0.949 . S
C551 C552 1.349 . S
C551 C553 1.327 . S
C551 H574 0.950 . S
C552 C551 1.349 . S
C552 C564 1.349 . S
C553 C551 1.327 . S
C553 C569 1.429 . S
C553 H575 0.950 . S
C554 H550 0.949 . S
C554 C562 1.574 . S
C554 C570 1.368 . S
H555 C563 0.950 . S
H556 C561 0.950 . S
H557 C562 0.949 . S
H558 C564 0.950 . S
H559 C565 0.950 . S
H560 C566 0.949 . S
C561 H556 0.950 . S
C561 C563 1.327 . S
C561 C567 1.429 . S
C562 C554 1.574 . S
C562 H557 0.949 . S
C562 C568 1.368 . S
C563 C547 1.349 . S
C563 H555 0.950 . S
C563 C561 1.327 . S
C564 C552 1.349 . S
C564 H558 0.950 . S
C564 C565 1.327 . S
C565 H559 0.950 . S
C565 C564 1.327 . S
C565 C569 1.429 . S
C566 C549 1.574 . S
C566 H560 0.949 . S
C566 C570 1.368 . S
C567 C548 1.429 . S
C567 C561 1.429 . S
C567 C568 1.523 . S
C568 C549 1.368 . S
C568 C562 1.368 . S
C568 C567 1.523 . S
C569 C553 1.429 . S
C569 C565 1.429 . S
C569 C570 1.523 . S
C570 C554 1.368 . S
C570 C566 1.368 . S
C570 C569 1.523 . S
H571 C546 0.950 . S
H572 C548 0.950 . S
H573 C549 0.949 . S
H574 C551 0.950 . S
H575 C553 0.950 . S
C576 C577 1.349 . S
C576 C578 1.327 . S
C576 H601 0.950 1_545 S
C577 C576 1.349 . S
C577 C593 1.349 . S
C578 C576 1.327 . S
C578 C597 1.429 . S
C578 H602 0.950 1_545 S
C579 C596 1.574 . S
C579 C598 1.368 . S
C579 H603 0.949 . S
H580 C584 0.949 1_565 S
C581 C582 1.349 . S
C581 C583 1.327 . S
C581 H604 0.950 . S
C582 C581 1.349 . S
C582 C594 1.349 . S
C583 C581 1.327 . S
C583 C599 1.429 . S
C583 H605 0.950 . S
C584 H580 0.949 1_545 S
C584 C592 1.574 . S
C584 C600 1.368 . S
H585 C593 0.950 . S
H586 C591 0.950 . S
H587 C592 0.949 1_565 S
H588 C594 0.950 1_565 S
H589 C595 0.950 1_565 S
H590 C596 0.949 . S
C591 H586 0.950 . S
C591 C593 1.327 . S
C591 C597 1.429 . S
C592 C584 1.574 . S
C592 H587 0.949 1_545 S
C592 C598 1.368 . S
C593 C577 1.349 . S
C593 H585 0.950 . S
C593 C591 1.327 . S
C594 C582 1.349 . S
C594 H588 0.950 1_545 S
C594 C595 1.327 . S
C595 H589 0.950 1_545 S
C595 C594 1.327 . S
C595 C599 1.429 . S
C596 C579 1.574 . S
C596 H590 0.949 . S
C596 C600 1.368 . S
C597 C578 1.429 . S
C597 C591 1.429 . S
C597 C598 1.523 . S
C598 C579 1.368 . S
C598 C592 1.368 . S
C598 C597 1.523 . S
C599 C583 1.429 . S
C599 C595 1.429 . S
C599 C600 1.523 . S
C600 C584 1.368 . S
C600 C596 1.368 . S
C600 C599 1.523 . S
H601 C576 0.950 1_565 S
H602 C578 0.950 1_565 S
H603 C579 0.949 . S
H604 C581 0.950 . S
H605 C583 0.950 . S
C606 C607 1.349 . S
C606 C608 1.327 . S
C606 H631 0.950 . S
C607 C606 1.349 . S
C607 C623 1.349 . S
C608 C606 1.327 . S
C608 C627 1.429 . S
C608 H632 0.950 . S
C609 C626 1.574 . S
C609 C628 1.368 . S
C609 H633 0.949 . S
H610 C614 0.949 1_554 S
C611 C612 1.349 . S
C611 C613 1.327 . S
C611 H634 0.950 . S
C612 C611 1.349 . S
C612 C624 1.349 . S
C613 C611 1.327 . S
C613 C629 1.429 . S
C613 H635 0.950 . S
C614 H610 0.949 1_556 S
C614 C622 1.574 . S
C614 C630 1.368 1_556 S
H615 C623 0.950 . S
H616 C621 0.950 . S
H617 C622 0.949 . S
H618 C624 0.950 . S
H619 C625 0.950 . S
H620 C626 0.949 1_554 S
C621 H616 0.950 . S
C621 C623 1.327 . S
C621 C627 1.429 . S
C622 C614 1.574 . S
C622 H617 0.949 . S
C622 C628 1.368 . S
C623 C607 1.349 . S
C623 H615 0.950 . S
C623 C621 1.327 . S
C624 C612 1.349 . S
C624 H618 0.950 . S
C624 C625 1.327 . S
C625 H619 0.950 . S
C625 C624 1.327 . S
C625 C629 1.429 . S
C626 C609 1.574 . S
C626 H620 0.949 1_556 S
C626 C630 1.368 1_556 S
C627 C608 1.429 . S
C627 C621 1.429 . S
C627 C628 1.523 . S
C628 C609 1.368 . S
C628 C622 1.368 . S
C628 C627 1.523 . S
C629 C613 1.429 . S
C629 C625 1.429 . S
C629 C630 1.523 . S
C630 C614 1.368 1_554 S
C630 C626 1.368 1_554 S
C630 C629 1.523 . S
H631 C606 0.950 . S
H632 C608 0.950 . S
H633 C609 0.949 . S
H634 C611 0.950 . S
H635 C613 0.950 . S
C636 C637 1.349 . S
C636 C638 1.327 . S
C636 H661 0.950 . S
C637 C636 1.349 . S
C637 C653 1.349 . S
C638 C636 1.327 . S
C638 C657 1.429 . S
C638 H662 0.950 . S
C639 C656 1.574 . S
C639 C658 1.368 . S
C639 H663 0.949 . S
H640 C644 0.949 . S
C641 C642 1.349 . S
C641 C643 1.327 . S
C641 H664 0.950 . S
C642 C641 1.349 . S
C642 C654 1.349 1_655 S
C643 C641 1.327 . S
C643 C659 1.429 1_655 S
C643 H665 0.950 . S
C644 H640 0.949 . S
C644 C652 1.574 . S
C644 C660 1.368 . S
H645 C653 0.950 . S
H646 C651 0.950 . S
H647 C652 0.949 . S
H648 C654 0.950 . S
H649 C655 0.950 . S
H650 C656 0.949 1_655 S
C651 H646 0.950 . S
C651 C653 1.327 . S
C651 C657 1.429 . S
C652 C644 1.574 . S
C652 H647 0.949 . S
C652 C658 1.368 . S
C653 C637 1.349 . S
C653 H645 0.950 . S
C653 C651 1.327 . S
C654 C642 1.349 1_455 S
C654 H648 0.950 . S
C654 C655 1.327 . S
C655 H649 0.950 . S
C655 C654 1.327 . S
C655 C659 1.429 . S
C656 C639 1.574 . S
C656 H650 0.949 1_455 S
C656 C660 1.368 . S
C657 C638 1.429 . S
C657 C651 1.429 . S
C657 C658 1.523 . S
C658 C639 1.368 . S
C658 C652 1.368 . S
C658 C657 1.523 . S
C659 C643 1.429 1_455 S
C659 C655 1.429 . S
C659 C660 1.523 . S
C660 C644 1.368 . S
C660 C656 1.368 . S
C660 C659 1.523 . S
H661 C636 0.950 . S
H662 C638 0.950 . S
H663 C639 0.949 . S
H664 C641 0.950 . S
H665 C643 0.950 . S
C127 C2 1.229 . S
C132 C120 1.057 . S
C157 C21 1.134 . S
C162 C98 1.000 . S
C187 C42 0.889 . S
C192 C112 0.881 . S
C217 C1 0.798 . S
C222 C123 0.795 . S
C252 C101 0.878 . S
C247 C22 0.886 . S
C282 C109 0.998 . S
C277 C41 1.131 . S
C307 C38 2.018 . S
C312 C76 1.750 . S
C337 C59 2.115 . S
C342 C87 1.818 . S
C367 C18 2.015 . S
C372 C65 1.748 . S
C402 C79 1.707 . S
C397 C39 1.755 . S
C432 C90 1.627 . S
C427 C58 1.665 . S
C457 C19 1.757 . S
C462 C68 1.709 . S
C492 C89 1.506 . S
C487 C9 1.512 . S
C517 C29 1.523 . S
C522 C67 1.513 . S
C547 C49 1.521 . S
C552 C78 1.507 . S
C582 C111 1.399 . S
C577 C28 1.427 . S
C612 C122 1.392 . S
C607 C48 1.428 . S
C637 C8 1.422 . S
C642 C100 1.395 1_655 S
