# Generated by pormake.
# Topology gar, (4,6)-cn, num edge types: 1
# Building blocks:
#     Node 0, Type 0, BuildingBlock: NAHDIM_clean_sbu_0, # of connection points: 4
#     Node 1, Type 0, BuildingBlock: NAHDIM_clean_sbu_0, # of connection points: 4
#     Node 2, Type 0, BuildingBlock: NAHDIM_clean_sbu_0, # of connection points: 4
#     Node 3, Type 0, BuildingBlock: NAHDIM_clean_sbu_0, # of connection points: 4
#     Node 4, Type 0, BuildingBlock: NAHDIM_clean_sbu_0, # of connection points: 4
#     Node 5, Type 0, BuildingBlock: NAHDIM_clean_sbu_0, # of connection points: 4
#     Node 6, Type 0, BuildingBlock: NAHDIM_clean_sbu_0, # of connection points: 4
#     Node 7, Type 0, BuildingBlock: NAHDIM_clean_sbu_0, # of connection points: 4
#     Node 8, Type 0, BuildingBlock: NAHDIM_clean_sbu_0, # of connection points: 4
#     Node 9, Type 0, BuildingBlock: NAHDIM_clean_sbu_0, # of connection points: 4
#     Node 10, Type 0, BuildingBlock: NAHDIM_clean_sbu_0, # of connection points: 4
#     Node 11, Type 0, BuildingBlock: NAHDIM_clean_sbu_0, # of connection points: 4
#     Node 12, Type 0, BuildingBlock: NAHDIM_clean_sbu_0, # of connection points: 4
#     Node 13, Type 0, BuildingBlock: NAHDIM_clean_sbu_0, # of connection points: 4
#     Node 14, Type 0, BuildingBlock: NAHDIM_clean_sbu_0, # of connection points: 4
#     Node 15, Type 0, BuildingBlock: NAHDIM_clean_sbu_0, # of connection points: 4
#     Node 16, Type 0, BuildingBlock: NAHDIM_clean_sbu_0, # of connection points: 4
#     Node 17, Type 0, BuildingBlock: NAHDIM_clean_sbu_0, # of connection points: 4
#     Node 18, Type 0, BuildingBlock: NAHDIM_clean_sbu_0, # of connection points: 4
#     Node 19, Type 0, BuildingBlock: NAHDIM_clean_sbu_0, # of connection points: 4
#     Node 20, Type 0, BuildingBlock: NAHDIM_clean_sbu_0, # of connection points: 4
#     Node 21, Type 0, BuildingBlock: NAHDIM_clean_sbu_0, # of connection points: 4
#     Node 22, Type 0, BuildingBlock: NAHDIM_clean_sbu_0, # of connection points: 4
#     Node 23, Type 0, BuildingBlock: NAHDIM_clean_sbu_0, # of connection points: 4
#     Node 24, Type 1, BuildingBlock: BETGAK_clean_sbu_0, # of connection points: 6
#     Node 25, Type 1, BuildingBlock: BETGAK_clean_sbu_0, # of connection points: 6
#     Node 26, Type 1, BuildingBlock: BETGAK_clean_sbu_0, # of connection points: 6
#     Node 27, Type 1, BuildingBlock: BETGAK_clean_sbu_0, # of connection points: 6
#     Node 28, Type 1, BuildingBlock: BETGAK_clean_sbu_0, # of connection points: 6
#     Node 29, Type 1, BuildingBlock: BETGAK_clean_sbu_0, # of connection points: 6
#     Node 30, Type 1, BuildingBlock: BETGAK_clean_sbu_0, # of connection points: 6
#     Node 31, Type 1, BuildingBlock: BETGAK_clean_sbu_0, # of connection points: 6
#     Node 32, Type 1, BuildingBlock: BETGAK_clean_sbu_0, # of connection points: 6
#     Node 33, Type 1, BuildingBlock: BETGAK_clean_sbu_0, # of connection points: 6
#     Node 34, Type 1, BuildingBlock: BETGAK_clean_sbu_0, # of connection points: 6
#     Node 35, Type 1, BuildingBlock: BETGAK_clean_sbu_0, # of connection points: 6
#     Node 36, Type 1, BuildingBlock: BETGAK_clean_sbu_0, # of connection points: 6
#     Node 37, Type 1, BuildingBlock: BETGAK_clean_sbu_0, # of connection points: 6
#     Node 38, Type 1, BuildingBlock: BETGAK_clean_sbu_0, # of connection points: 6
#     Node 39, Type 1, BuildingBlock: BETGAK_clean_sbu_0, # of connection points: 6
#     Edge 40, Type (0, 1), None
#     Edge 41, Type (0, 1), None
#     Edge 42, Type (0, 1), None
#     Edge 43, Type (0, 1), None
#     Edge 44, Type (0, 1), None
#     Edge 45, Type (0, 1), None
#     Edge 46, Type (0, 1), None
#     Edge 47, Type (0, 1), None
#     Edge 48, Type (0, 1), None
#     Edge 49, Type (0, 1), None
#     Edge 50, Type (0, 1), None
#     Edge 51, Type (0, 1), None
#     Edge 52, Type (0, 1), None
#     Edge 53, Type (0, 1), None
#     Edge 54, Type (0, 1), None
#     Edge 55, Type (0, 1), None
#     Edge 56, Type (0, 1), None
#     Edge 57, Type (0, 1), None
#     Edge 58, Type (0, 1), None
#     Edge 59, Type (0, 1), None
#     Edge 60, Type (0, 1), None
#     Edge 61, Type (0, 1), None
#     Edge 62, Type (0, 1), None
#     Edge 63, Type (0, 1), None
#     Edge 64, Type (0, 1), None
#     Edge 65, Type (0, 1), None
#     Edge 66, Type (0, 1), None
#     Edge 67, Type (0, 1), None
#     Edge 68, Type (0, 1), None
#     Edge 69, Type (0, 1), None
#     Edge 70, Type (0, 1), None
#     Edge 71, Type (0, 1), None
#     Edge 72, Type (0, 1), None
#     Edge 73, Type (0, 1), None
#     Edge 74, Type (0, 1), None
#     Edge 75, Type (0, 1), None
#     Edge 76, Type (0, 1), None
#     Edge 77, Type (0, 1), None
#     Edge 78, Type (0, 1), None
#     Edge 79, Type (0, 1), None
#     Edge 80, Type (0, 1), None
#     Edge 81, Type (0, 1), None
#     Edge 82, Type (0, 1), None
#     Edge 83, Type (0, 1), None
#     Edge 84, Type (0, 1), None
#     Edge 85, Type (0, 1), None
#     Edge 86, Type (0, 1), None
#     Edge 87, Type (0, 1), None
#     Edge 88, Type (0, 1), None
#     Edge 89, Type (0, 1), None
#     Edge 90, Type (0, 1), None
#     Edge 91, Type (0, 1), None
#     Edge 92, Type (0, 1), None
#     Edge 93, Type (0, 1), None
#     Edge 94, Type (0, 1), None
#     Edge 95, Type (0, 1), None
#     Edge 96, Type (0, 1), None
#     Edge 97, Type (0, 1), None
#     Edge 98, Type (0, 1), None
#     Edge 99, Type (0, 1), None
#     Edge 100, Type (0, 1), None
#     Edge 101, Type (0, 1), None
#     Edge 102, Type (0, 1), None
#     Edge 103, Type (0, 1), None
#     Edge 104, Type (0, 1), None
#     Edge 105, Type (0, 1), None
#     Edge 106, Type (0, 1), None
#     Edge 107, Type (0, 1), None
#     Edge 108, Type (0, 1), None
#     Edge 109, Type (0, 1), None
#     Edge 110, Type (0, 1), None
#     Edge 111, Type (0, 1), None
#     Edge 112, Type (0, 1), None
#     Edge 113, Type (0, 1), None
#     Edge 114, Type (0, 1), None
#     Edge 115, Type (0, 1), None
#     Edge 116, Type (0, 1), None
#     Edge 117, Type (0, 1), None
#     Edge 118, Type (0, 1), None
#     Edge 119, Type (0, 1), None
#     Edge 120, Type (0, 1), None
#     Edge 121, Type (0, 1), None
#     Edge 122, Type (0, 1), None
#     Edge 123, Type (0, 1), None
#     Edge 124, Type (0, 1), None
#     Edge 125, Type (0, 1), None
#     Edge 126, Type (0, 1), None
#     Edge 127, Type (0, 1), None
#     Edge 128, Type (0, 1), None
#     Edge 129, Type (0, 1), None
#     Edge 130, Type (0, 1), None
#     Edge 131, Type (0, 1), None
#     Edge 132, Type (0, 1), None
#     Edge 133, Type (0, 1), None
#     Edge 134, Type (0, 1), None
#     Edge 135, Type (0, 1), None
# Relax obj value: 0.446
# Max RMSD: 0.439
# Mean RMSD: 0.236
data_MOF--net-gar--node1-NAHDIM_clean_sbu_0--node2-BETGAK_clean_sbu_0--edge1-none
_symmetry_space_group_name_H-M    P1
_symmetry_Int_Tables_number       1
_symmetry_cell_setting            triclinic
loop_
_symmetry_equiv_pos_as_xyz
'x, y, z'
_cell_length_a     32.99493
_cell_length_b     26.718276
_cell_length_c     26.362181
_cell_angle_alpha  103.15793
_cell_angle_beta   97.176169
_cell_angle_gamma 104.94822
loop_
_atom_site_label
_atom_site_type_symbol
_atom_site_fract_x
_atom_site_fract_y
_atom_site_fract_z
_atom_type_partial_charge
C0 C 0.29558 0.40923 0.31735 0.0
O1 O 0.25748 0.37593 0.29454 0.0
O2 O 0.2315 0.39465 0.4357 0.0
Zn3 Zn 0.24458 0.44865 0.39182 0.0
O4 O 0.2411 0.5195 0.4422 0.0
C5 C 0.16059 0.394 0.32982 0.0
O6 O 0.1605 0.36104 0.35998 0.0
O7 O 0.29925 0.44558 0.36031 0.0
C8 C 0.20536 0.53018 0.44295 0.0
O9 O 0.17253 0.50262 0.4046 0.0
C10 C 0.23021 0.41058 0.48477 0.0
O11 O 0.24346 0.46213 0.50908 0.0
O12 O 0.19527 0.42913 0.33134 0.0
C13 C 1.02179 0.81983 0.77775 0.0
O14 O 0.05823 0.85568 0.80302 0.0
O15 O 0.10121 0.7258 0.6858 0.0
Zn16 Zn 0.07897 0.79199 0.7074 0.0
O17 O 0.08296 0.83104 0.64923 0.0
C18 C 0.13769 0.80779 0.79478 0.0
O19 O 0.10711 0.76807 0.80056 0.0
O20 O 1.02152 0.78551 0.73491 0.0
C21 C 0.11727 0.83771 0.63067 0.0
O22 O 0.14788 0.82019 0.64991 0.0
C23 C 0.10293 0.70566 0.63785 0.0
O24 O 0.08063 0.71773 0.6 0.0
O25 O 0.12755 0.83634 0.76582 0.0
C26 C 0.79564 0.90937 0.81738 0.0
O27 O 0.75753 0.87606 0.79459 0.0
O28 O 0.73191 0.8946 0.93627 0.0
Zn29 Zn 0.74473 0.94854 0.89207 0.0
O30 O 0.7412 1.01953 0.942 0.0
C31 C 0.66036 0.89427 0.83167 0.0
O32 O 0.66028 0.86218 0.86274 0.0
O33 O 0.79932 0.94566 0.86038 0.0
C34 C 0.70647 1.03289 0.94089 0.0
O35 O 0.67519 1.00965 0.89962 0.0
C36 C 0.72867 0.91041 0.98466 0.0
O37 O 0.73985 0.96201 1.00836 0.0
O38 O 0.69515 0.92856 0.83197 0.0
C39 C 0.5219 0.32002 0.27767 0.0
O40 O 0.55831 0.35603 0.30279 0.0
O41 O 0.6016 0.22583 0.18558 0.0
Zn42 Zn 0.57915 0.29191 0.2074 0.0
O43 O 0.58302 0.33084 0.14918 0.0
C44 C 0.63793 0.30823 0.29491 0.0
O45 O 0.6074 0.26856 0.30088 0.0
O46 O 0.52168 0.28548 0.23499 0.0
C47 C 0.61725 0.33725 0.13045 0.0
O48 O 0.6478 0.31959 0.14958 0.0
C49 C 0.60268 0.20528 0.13747 0.0
O50 O 0.57977 0.21698 0.09989 0.0
O51 O 0.62771 0.33654 0.26573 0.0
C52 C 0.14403 0.88328 0.16436 0.0
O53 O 0.13335 0.8771 0.11321 0.0
O54 O 0.20057 0.82443 0.08912 0.0
Zn55 Zn 0.22607 0.9039 0.13775 0.0
O56 O 0.2147 0.97158 0.10815 0.0
C57 C 0.32337 0.90508 0.19144 0.0
O58 O 0.33794 0.895 0.14728 0.0
O59 O 0.18334 0.89675 0.18605 0.0
C60 C 0.18587 0.97045 0.06932 0.0
O61 O 0.16282 0.92345 0.03769 0.0
C62 C 0.21811 0.78831 0.09597 0.0
O63 O 0.25665 0.80331 0.12497 0.0
O64 O 0.28535 0.91053 0.18992 0.0
C65 C 0.66673 0.84035 0.42411 0.0
O66 O 0.67707 0.84451 0.4749 0.0
O67 O 0.59648 0.7583 0.4829 0.0
Zn68 Zn 0.58636 0.82675 0.45356 0.0
O69 O 0.61524 0.90692 0.50158 0.0
C70 C 0.48784 0.82595 0.40116 0.0
O71 O 0.47323 0.83707 0.44514 0.0
O72 O 0.62762 0.83044 0.40316 0.0
C73 C 0.60038 0.9447 0.49289 0.0
O74 O 0.56294 0.93156 0.4616 0.0
C75 C 0.62449 0.75872 0.52225 0.0
O76 O 0.64724 0.80542 0.55475 0.0
O77 O 0.52609 0.82098 0.40326 0.0
C78 C 0.64461 0.38353 0.66649 0.0
O79 O 0.63423 0.37807 0.61544 0.0
O80 O 0.69848 0.32296 0.59001 0.0
Zn81 Zn 0.72571 0.40166 0.63915 0.0
O82 O 0.71626 0.47056 0.60994 0.0
C83 C 0.82579 0.41191 0.69727 0.0
O84 O 0.84903 0.44038 0.67091 0.0
O85 O 0.68381 0.39599 0.6883 0.0
C86 C 0.68762 0.46991 0.5711 0.0
O87 O 0.66421 0.42306 0.5395 0.0
C88 C 0.71738 0.28723 0.59345 0.0
O89 O 0.75757 0.3027 0.61745 0.0
O90 O 0.78459 0.40037 0.68631 0.0
C91 C 0.16599 0.33989 0.92147 0.0
O92 O 0.17603 0.34371 0.97222 0.0
O93 O 0.09595 0.25948 0.98141 0.0
Zn94 Zn 0.08698 0.32851 0.95198 0.0
O95 O 0.11752 0.40813 1.00027 0.0
C96 C 0.98527 0.31408 0.89342 0.0
O97 O 0.96253 0.27929 0.9146 0.0
O98 O 0.12701 0.33072 0.90038 0.0
C99 C 0.10145 0.44576 0.9942 0.0
O100 O 0.06259 0.43245 0.96637 0.0
C101 C 0.12386 0.25971 0.02081 0.0
O102 O 0.14678 0.30636 0.05326 0.0
O103 O 1.02659 0.32909 0.90668 0.0
C104 C 0.47325 0.11668 0.29233 0.0
O105 O 0.46989 0.06593 0.27141 0.0
O106 O 0.54598 0.05455 0.30036 0.0
Zn107 Zn 0.53104 0.09847 0.36219 0.0
O108 O 0.58551 0.13902 0.41145 0.0
C109 C 0.48355 1.00177 0.37761 0.0
O110 O 0.51716 0.98668 0.36834 0.0
O111 O 0.50152 0.1437 0.33361 0.0
C112 C 0.6005 0.10666 0.43023 0.0
O113 O 0.57556 0.06003 0.42978 0.0
C114 C 0.57031 1.02466 0.29588 0.0
O115 O 0.59216 1.01857 0.3379 0.0
O116 O 0.48589 0.05108 0.38785 0.0
C117 C 0.42853 0.24327 0.53677 0.0
O118 O 0.44082 0.29503 0.56056 0.0
O119 O 0.37267 0.30639 0.59623 0.0
Zn120 Zn 0.35398 0.26875 0.51406 0.0
O121 O 0.38169 0.31639 0.46327 0.0
C122 C 0.26936 0.20028 0.52966 0.0
O123 O 0.28838 0.22048 0.57971 0.0
O124 O 0.39059 0.22022 0.51061 0.0
C125 C 0.37539 0.30336 0.41216 0.0
O126 O 0.34403 0.26029 0.38569 0.0
C127 C 0.3559 0.32994 0.63181 0.0
O128 O 0.31891 0.33785 0.6179 0.0
O129 O 0.28919 0.21558 0.49412 0.0
C130 C 0.31596 0.96933 0.77679 0.0
O131 O 0.27664 0.93828 0.75707 0.0
O132 O 0.23498 0.07754 0.7187 0.0
Zn133 Zn 0.27691 0.08764 0.80174 0.0
O134 O 0.23256 0.08455 0.87346 0.0
C135 C 0.32781 0.22207 0.81032 0.0
O136 O 0.29355 0.23771 0.8149 0.0
O137 O 0.32051 1.022 0.79429 0.0
C138 C 0.22607 0.11459 0.91823 0.0
O139 O 0.25014 0.16489 0.93444 0.0
C140 C 0.21706 0.11191 0.70416 0.0
O141 O 0.22017 0.15553 0.74134 0.0
O142 O 0.32521 0.17146 0.80789 0.0
C143 C 0.38212 0.07688 0.02761 0.0
O144 O 0.3749 1.02709 0.03092 0.0
O145 O 0.45262 1.0116 0.04827 0.0
Zn146 Zn 0.44388 1.04214 0.98758 0.0
O147 O 0.41238 0.97482 0.93245 0.0
C148 C 0.52822 0.08681 1.01385 0.0
O149 O 0.51701 0.09632 0.06036 0.0
O150 O 0.4125 0.09604 1.00609 0.0
C151 C 0.43638 0.94771 0.91428 0.0
O152 O 0.47679 0.97206 0.91748 0.0
C153 C 0.47753 0.98251 0.04825 0.0
O154 O 0.50038 0.97691 1.0115 0.0
O155 O 0.5004 0.07266 0.97184 0.0
C156 C 0.38949 0.49113 0.06873 0.0
O157 O 0.37539 0.44013 0.06769 0.0
O158 O 0.44102 0.43847 0.14756 0.0
Zn159 Zn 0.46411 0.46536 0.08138 0.0
O160 O 0.43958 0.42054 1.00056 0.0
C161 C 0.54762 0.52915 0.05881 0.0
O162 O 0.52975 0.50319 1.00926 0.0
O163 O 0.42941 0.51424 0.07708 0.0
C164 C 0.45605 0.39689 0.9644 0.0
O165 O 0.49357 0.39016 0.9778 0.0
C166 C 0.43367 0.39464 0.1619 0.0
O167 O 0.44243 0.35326 0.13298 0.0
O168 O 0.52766 0.51838 0.09568 0.0
C169 C 0.93213 0.1438 0.07656 0.0
O170 O 0.94282 0.19625 0.08389 0.0
O171 O 0.88351 0.23729 0.14679 0.0
Zn172 Zn 0.85985 0.16948 0.08709 0.0
O173 O 0.85983 0.19498 0.02313 0.0
C174 C 0.78214 0.16053 0.12091 0.0
O175 O 0.80565 0.19732 0.16298 0.0
O176 O 0.89482 0.11937 0.08053 0.0
C177 C 0.82519 0.18976 0.99289 0.0
O178 O 0.78903 0.15807 0.99728 0.0
C179 C 0.87743 0.28154 0.14244 0.0
O180 O 0.8575 0.2848 0.09761 0.0
O181 O 0.79957 0.1358 0.08757 0.0
C182 C 0.34528 0.59297 0.28037 0.0
O183 O 0.33853 0.63665 0.30763 0.0
O184 O 0.2362 0.58754 0.16108 0.0
Zn185 Zn 0.28344 0.60983 0.22206 0.0
O186 O 0.2553 0.62393 0.28346 0.0
C187 C 0.34346 0.70788 0.20139 0.0
O188 O 0.34628 0.6888 0.15189 0.0
O189 O 0.32134 0.56659 0.23542 0.0
C190 C 0.26042 0.67215 0.30941 0.0
O191 O 0.28722 0.71263 0.29969 0.0
C192 C 0.21754 0.62405 0.16746 0.0
O193 O 0.23517 0.67003 0.2034 0.0
O194 O 0.32125 0.67913 0.22521 0.0
C195 C 0.88949 0.99098 0.569 0.0
O196 O 0.87552 0.93995 0.5679 0.0
O197 O 0.9415 0.93852 0.64808 0.0
Zn198 Zn 0.96427 0.96549 0.58164 0.0
O199 O 0.93972 0.92066 0.50075 0.0
C200 C 1.04764 1.02956 0.55886 0.0
O201 O 1.0298 1.00345 0.50934 0.0
O202 O 0.92939 1.01423 0.57742 0.0
C203 C 0.95618 0.89708 0.46452 0.0
O204 O 0.99373 0.89039 0.47786 0.0
C205 C 0.93313 0.89415 0.66149 0.0
O206 O 0.94036 0.85228 0.63125 0.0
O207 O 1.02774 1.01877 0.59578 0.0
C208 C 0.99423 0.25668 0.28933 0.0
O209 O 1.03286 0.28546 0.28873 0.0
O210 O 0.07773 0.144 0.21218 0.0
Zn211 Zn 1.03425 0.14015 0.28382 0.0
O212 O 0.07728 0.15092 0.36691 0.0
C213 C 0.98425 1.00622 0.28001 0.0
O214 O 1.01841 0.9905 0.27491 0.0
O215 O 0.98993 0.20511 0.28786 0.0
C216 C 0.09541 0.11662 0.38149 0.0
O217 O 0.09197 0.07277 0.34445 0.0
C218 C 0.08883 0.1132 0.17188 0.0
O219 O 0.07306 0.06098 0.16342 0.0
O220 O 0.98648 0.05645 0.28076 0.0
C221 C 0.43276 0.64289 0.57705 0.0
O222 O 0.44327 0.69528 0.58397 0.0
O223 O 0.38442 0.73683 0.64723 0.0
Zn224 Zn 0.36086 0.66877 0.58792 0.0
O225 O 0.36128 0.69374 0.52374 0.0
C226 C 0.28306 0.66095 0.62128 0.0
O227 O 0.30661 0.69732 0.66359 0.0
O228 O 0.39566 0.61847 0.5817 0.0
C229 C 0.32675 0.68635 0.49228 0.0
O230 O 0.29104 0.65309 0.49593 0.0
C231 C 0.37791 0.78075 0.64247 0.0
O232 O 0.35776 0.78342 0.59749 0.0
O233 O 0.30038 0.63579 0.58813 0.0
C234 C 0.49438 0.75674 0.78963 0.0
O235 O 0.53302 0.7857 0.78932 0.0
O236 O 0.57833 0.64366 0.71271 0.0
Zn237 Zn 0.53454 0.64006 0.78407 0.0
O238 O 0.57746 0.65076 0.86717 0.0
C239 C 0.48453 0.50609 0.78006 0.0
O240 O 0.51868 0.49036 0.77492 0.0
O241 O 0.49016 0.70513 0.78798 0.0
C242 C 0.59559 0.61644 0.88168 0.0
O243 O 0.59218 0.57264 0.84461 0.0
C244 C 0.58963 0.61274 0.67269 0.0
O245 O 0.57384 0.56053 0.66439 0.0
O246 O 0.48678 0.55635 0.7809 0.0
C247 C 0.84474 0.09189 0.78091 0.0
O248 O 0.83873 0.13632 0.80759 0.0
O249 O 0.73654 0.08697 0.66098 0.0
Zn250 Zn 0.78421 0.10986 0.72162 0.0
O251 O 0.75687 0.12694 0.78326 0.0
C252 C 0.8459 0.20795 0.70057 0.0
O253 O 0.84474 0.19325 0.64927 0.0
O254 O 0.82058 0.06526 0.73615 0.0
C255 C 0.76215 0.17548 0.80836 0.0
O256 O 0.7882 0.21544 0.79677 0.0
C257 C 0.71803 0.1236 0.66684 0.0
O258 O 0.73629 0.1703 0.70146 0.0
O259 O 0.82404 0.1774 0.72325 0.0
C260 C 0.92833 0.74335 0.03719 0.0
O261 O 0.94064 0.79505 0.06122 0.0
O262 O 0.87248 0.80659 0.09639 0.0
Zn263 Zn 0.85385 0.76893 1.01424 0.0
O264 O 0.88161 0.81663 0.96351 0.0
C265 C 0.76937 0.70021 0.02983 0.0
O266 O 0.78843 0.7204 0.07987 0.0
O267 O 0.89046 0.72043 1.01079 0.0
C268 C 0.87547 0.80351 0.91242 0.0
O269 O 0.84425 0.76029 0.88591 0.0
C270 C 0.85571 0.83011 0.13199 0.0
O271 O 0.81869 0.83795 0.11811 0.0
O272 O 0.78912 0.71563 0.99427 0.0
C273 C 0.97312 0.6163 0.79166 0.0
O274 O 0.96886 0.56507 0.77192 0.0
O275 O 1.04446 0.55222 0.79986 0.0
Zn276 Zn 1.03074 0.59825 0.86147 0.0
O277 O 0.0857 0.63845 0.91041 0.0
C278 C 0.98155 0.5042 0.8798 0.0
O279 O 1.01488 0.4882 0.87131 0.0
O280 O 1.00222 0.64383 0.83198 0.0
C281 C 0.10121 0.6065 0.9293 0.0
O282 O 0.07671 0.55963 0.92892 0.0
C283 C 0.06745 0.52066 0.79504 0.0
O284 O 0.08888 0.51378 0.8369 0.0
O285 O 0.98448 0.55351 0.88787 0.0
C286 C 0.88197 0.57573 0.52847 0.0
O287 O 0.87378 0.52586 0.53176 0.0
O288 O 0.95325 0.51021 0.55027 0.0
Zn289 Zn 0.9446 0.54081 0.48955 0.0
O290 O 0.91325 0.47394 0.4339 0.0
C291 C 1.02878 0.58587 0.51543 0.0
O292 O 1.01754 0.59539 0.56192 0.0
O293 O 0.9131 0.59448 0.50785 0.0
C294 C 0.93706 0.44669 0.41543 0.0
O295 O 0.97772 0.47048 0.41951 0.0
C296 C 0.97841 0.48142 0.55071 0.0
O297 O 1.00145 0.47586 0.51415 0.0
O298 O 1.00093 0.57146 0.47344 0.0
C299 C 0.81622 0.46958 0.27693 0.0
O300 O 0.77695 0.4386 0.25667 0.0
O301 O 0.73516 0.57746 0.219 0.0
Zn302 Zn 0.77718 0.58773 0.30207 0.0
O303 O 0.73302 0.58427 0.37393 0.0
C304 C 0.82804 0.72225 0.31049 0.0
O305 O 0.79377 0.73787 0.31502 0.0
O306 O 0.82076 0.52221 0.2947 0.0
C307 C 0.72647 0.61422 0.4187 0.0
O308 O 0.75021 0.66467 0.43472 0.0
C309 C 0.71723 0.6118 0.20438 0.0
O310 O 0.72037 0.65548 0.2415 0.0
O311 O 0.82545 0.67164 0.30813 0.0
La312 La 0.12388 0.08238 1.00633 0.0
La313 La 0.18783 0.14765 0.08163 0.0
C314 C 1.04476 1.04043 0.97626 0.0
C315 C 1.01503 0.06363 1.00423 0.0
C316 C 0.9733 1.03353 1.00385 0.0
C317 C 0.94595 0.05886 0.02889 0.0
C318 C 0.96095 0.11393 0.05639 0.0
C319 C 1.00388 0.14195 0.06153 0.0
C320 C 1.03055 0.11668 0.03663 0.0
C321 C 0.1924 0.09785 0.95536 0.0
C322 C 0.13426 0.20959 0.02984 0.0
C323 C 0.26746 0.18753 0.11382 0.0
C324 C 0.29872 0.1619 0.09213 0.0
C325 C 0.33865 0.19158 0.08551 0.0
C326 C 0.36666 0.16462 0.06397 0.0
C327 C 0.35388 0.10794 0.04698 0.0
C328 C 0.31304 0.07926 0.04995 0.0
C329 C 0.28621 0.10591 0.07185 0.0
C330 C 0.11939 0.13129 0.13213 0.0
C331 C 0.17557 1.0202 0.05929 0.0
O332 O 0.06778 0.07079 0.95141 0.0
O333 O 0.06844 1.02136 1.00531 0.0
O334 O 0.15981 0.05432 0.94335 0.0
O335 O 0.18351 0.13121 0.99385 0.0
O336 O 0.11599 0.16113 0.9968 0.0
O337 O 0.16401 0.21473 0.07067 0.0
O338 O 0.24246 0.16145 0.14006 0.0
O339 O 0.24551 0.20335 0.07955 0.0
O340 O 0.15087 0.17599 0.14301 0.0
O341 O 0.12886 0.09808 0.0941 0.0
O342 O 0.19193 0.06834 0.09334 0.0
O343 O 0.14775 1.01531 1.01675 0.0
H344 H 0.9619 0.99085 0.98452 0.0
H345 H 0.91305 1.03584 0.02567 0.0
H346 H 1.01693 0.1837 0.08447 0.0
H347 H 0.06357 0.13884 0.04401 0.0
H348 H 0.34829 0.23515 0.09741 0.0
H349 H 0.39815 0.18774 0.06134 0.0
H350 H 0.30154 1.03574 0.03542 0.0
H351 H 0.25559 0.08154 0.072 0.0
La352 La 0.43884 0.86179 0.26539 0.0
La353 La 0.3715 0.86424 0.32384 0.0
C354 C 0.4921 0.87787 0.20831 0.0
C355 C 0.49145 0.90704 0.16947 0.0
C356 C 0.51207 0.89647 0.1272 0.0
C357 C 0.50729 0.92116 0.08704 0.0
C358 C 0.48211 0.95651 0.08981 0.0
C359 C 0.46122 0.96649 0.13225 0.0
C360 C 0.46564 0.9414 0.17179 0.0
C361 C 0.46427 0.82992 0.35003 0.0
C362 C 0.44416 0.96408 0.34773 0.0
C363 C 0.32469 0.84875 0.38928 0.0
C364 C 0.32723 0.81255 0.42163 0.0
C365 C 0.29602 0.79842 0.4511 0.0
C366 C 0.29508 0.75561 0.47315 0.0
C367 C 0.32526 0.72735 0.4654 0.0
C368 C 0.35778 0.74366 0.43838 0.0
C369 C 0.35863 0.78602 0.41641 0.0
C370 C 0.34648 0.89865 0.24152 0.0
C371 C 0.36539 0.7628 0.23176 0.0
O372 O 0.49769 0.90767 0.25701 0.0
O373 O 0.45989 0.83382 0.19621 0.0
O374 O 0.48186 0.83016 0.3098 0.0
O375 O 0.42984 0.84265 0.34039 0.0
O376 O 0.44369 0.94538 0.29727 0.0
O377 O 0.42066 0.93408 0.37177 0.0
O378 O 0.31313 0.8237 0.33871 0.0
O379 O 0.35856 0.89052 0.3996 0.0
O380 O 0.32956 0.89925 0.28264 0.0
O381 O 0.38076 0.88495 0.24919 0.0
O382 O 0.35897 0.78002 0.28038 0.0
O383 O 0.39292 0.79304 0.21214 0.0
H384 H 0.53128 0.86897 0.12506 0.0
H385 H 0.52347 0.91279 0.0542 0.0
H386 H 0.44132 0.99317 0.1348 0.0
H387 H 0.44831 0.94819 0.20362 0.0
H388 H 0.27191 0.81913 0.45554 0.0
H389 H 0.27127 0.7449 0.49666 0.0
H390 H 0.38214 0.72332 0.43383 0.0
H391 H 0.38287 0.79673 0.3936 0.0
La392 La 0.69964 0.10702 0.52767 0.0
La393 La 0.62005 0.12496 0.56367 0.0
C394 C 0.77573 0.11004 0.52469 0.0
C395 C 0.80305 0.07695 0.53355 0.0
C396 C 0.84147 0.08539 0.51514 0.0
C397 C 0.86964 0.05696 0.52661 0.0
C398 C 0.8593 1.01963 0.55623 0.0
C399 C 0.82003 1.00973 0.57301 0.0
C400 C 0.79199 1.03857 0.5619 0.0
C401 C 0.64391 0.12141 0.45627 0.0
C402 C 0.62404 1.00323 0.51482 0.0
C403 C 0.54398 0.12184 0.56787 0.0
C404 C 0.5151 0.15383 0.55939 0.0
C405 C 0.50274 0.18255 0.60322 0.0
C406 C 0.4746 0.2122 0.5957 0.0
C407 C 0.45765 0.212 0.54421 0.0
C408 C 0.46934 0.18293 0.50028 0.0
C409 C 0.49835 0.15441 0.50782 0.0
C410 C 0.67719 0.11541 0.63518 0.0
C411 C 0.69485 0.22854 0.57548 0.0
O412 O 0.74479 0.0892 0.48286 0.0
O413 O 0.76327 0.13275 0.56696 0.0
O414 O 0.66734 0.08981 0.44529 0.0
O415 O 0.65381 0.14375 0.50449 0.0
O416 O 0.66637 1.02168 0.52093 0.0
O417 O 0.6009 1.03713 0.52435 0.0
O418 O 0.57535 0.14291 0.6093 0.0
O419 O 0.55605 0.0983 0.52573 0.0
O420 O 0.65343 0.14657 0.64584 0.0
O421 O 0.66665 0.08939 0.58773 0.0
O422 O 0.65245 0.20964 0.56789 0.0
O423 O 0.7185 0.19491 0.56778 0.0
H424 H 0.84996 0.11455 0.49269 0.0
H425 H 0.89944 0.06406 0.51229 0.0
H426 H 0.81157 0.9808 0.5957 0.0
H427 H 0.76207 1.03154 0.57592 0.0
H428 H 0.51485 0.1821 0.64323 0.0
H429 H 0.46555 0.23458 0.62991 0.0
H430 H 0.45667 0.18312 0.46037 0.0
H431 H 0.5075 0.13288 0.47331 0.0
La432 La 0.37527 0.39601 0.80986 0.0
La433 La 0.43833 0.33325 0.78525 0.0
C434 C 0.30608 0.41524 0.82291 0.0
C435 C 0.27003 0.39344 0.84652 0.0
C436 C 0.22968 0.39777 0.82824 0.0
C437 C 0.19499 0.37782 0.85081 0.0
C438 C 0.20051 0.35379 0.89227 0.0
C439 C 0.24075 0.34805 0.90935 0.0
C440 C 0.27524 0.36731 0.88625 0.0
C441 C 0.44481 0.46529 0.7891 0.0
C442 C 0.43674 0.38398 0.90656 0.0
C443 C 0.50706 0.31315 0.77072 0.0
C444 C 0.54222 0.33233 0.74468 0.0
C445 C 0.58014 0.31889 0.75514 0.0
C446 C 0.61431 0.33737 0.73117 0.0
C447 C 0.61057 0.36889 0.69596 0.0
C448 C 0.57255 0.38243 0.68561 0.0
C449 C 0.53868 0.36476 0.71037 0.0
C450 C 0.3682 0.26345 0.80377 0.0
C451 C 0.3753 0.34309 0.68927 0.0
O452 O 0.3427 0.4411 0.85569 0.0
O453 O 0.31031 0.38221 0.78038 0.0
O454 O 0.41126 0.47688 0.80254 0.0
O455 O 0.43787 0.41548 0.78899 0.0
O456 O 0.40104 0.39526 0.8912 0.0
O457 O 0.45806 0.36426 0.87174 0.0
O458 O 0.4699 0.28655 0.73951 0.0
O459 O 0.50386 0.34836 0.81237 0.0
O460 O 0.402 0.25202 0.79106 0.0
O461 O 0.37543 0.31354 0.80492 0.0
O462 O 0.41181 0.33352 0.70428 0.0
O463 O 0.35398 0.36238 0.72412 0.0
H464 H 0.22517 0.41729 0.79705 0.0
H465 H 0.16438 0.38314 0.83733 0.0
H466 H 0.24571 0.32939 0.94111 0.0
H467 H 0.30606 0.36263 0.89996 0.0
H468 H 0.58322 0.29387 0.78163 0.0
H469 H 0.64307 0.32562 0.73878 0.0
H470 H 0.56909 0.40661 0.65838 0.0
H471 H 0.50966 0.3759 0.70243 0.0
La472 La 0.14766 0.16274 0.56902 0.0
La473 La 0.16754 0.06732 0.51629 0.0
C474 C 0.15338 0.26089 0.59595 0.0
C475 C 0.17076 0.29942 0.56686 0.0
C476 C 0.17338 0.35376 0.58469 0.0
C477 C 0.1932 0.39012 0.55815 0.0
C478 C 0.21022 0.37231 0.51325 0.0
C479 C 0.20712 0.31773 0.4954 0.0
C480 C 0.18803 0.28179 0.52238 0.0
C481 C 0.08913 0.07322 0.56932 0.0
C482 C 0.11894 0.11969 0.43833 0.0
C483 C 0.16314 0.96944 0.49059 0.0
C484 C 0.14778 0.93152 0.52149 0.0
C485 C 0.16058 0.88504 0.51794 0.0
C486 C 0.14921 0.85318 0.55241 0.0
C487 C 0.12435 0.86702 0.59002 0.0
C488 C 0.10997 0.91213 0.59168 0.0
C489 C 0.1221 0.94441 0.5582 0.0
C490 C 0.22665 0.1579 0.51715 0.0
C491 C 0.1944 0.10927 0.64714 0.0
O492 O 0.11761 0.22363 0.57142 0.0
O493 O 0.18169 0.2406 0.61552 0.0
O494 O 0.0993 0.11813 0.60661 0.0
O495 O 0.10923 0.08203 0.53284 0.0
O496 O 0.12345 0.15898 0.48239 0.0
O497 O 0.13381 0.07865 0.44294 0.0
O498 O 0.19886 1.0075 0.51349 0.0
O499 O 0.13399 0.98864 0.47106 0.0
O500 O 0.21637 0.11314 0.47955 0.0
O501 O 0.2061 0.14799 0.55297 0.0
O502 O 0.1896 0.06977 0.60311 0.0
O503 O 0.18041 0.15086 0.64243 0.0
H504 H 0.1607 0.36805 0.6193 0.0
H505 H 0.19496 0.43209 0.57253 0.0
H506 H 0.22017 0.30297 0.46126 0.0
H507 H 0.18755 0.24029 0.50903 0.0
H508 H 0.18038 0.87441 0.48992 0.0
H509 H 0.16052 0.8183 0.55043 0.0
H510 H 0.09132 0.92408 0.62073 0.0
H511 H 0.11258 0.98059 0.56222 0.0
La512 La 0.43867 0.90468 0.76844 0.0
La513 La 0.37099 0.82001 0.7956 0.0
C514 C 0.51326 0.96414 0.78233 0.0
C515 C 0.55196 0.94802 0.79551 0.0
C516 C 0.58271 0.95099 0.76322 0.0
C517 C 0.6171 0.93065 0.77298 0.0
C518 C 0.62069 0.9062 0.81455 0.0
C519 C 0.58961 0.90258 0.84633 0.0
C520 C 0.55592 0.92373 0.83731 0.0
C521 C 0.39193 0.82752 0.68819 0.0
C522 C 0.45914 0.78932 0.78964 0.0
C523 C 0.29685 0.7599 0.78439 0.0
C524 C 0.25682 0.77376 0.78898 0.0
C525 C 0.23126 0.75495 0.82332 0.0
C526 C 0.19348 0.76869 0.82785 0.0
C527 C 0.18112 0.80207 0.79863 0.0
C528 C 0.20774 0.82255 0.76593 0.0
C529 C 0.24467 0.80779 0.7604 0.0
C530 C 0.41773 0.89843 0.87376 0.0
C531 C 0.35109 0.93707 0.77928 0.0
O532 O 0.48988 0.93953 0.73476 0.0
O533 O 0.48995 0.96678 0.81894 0.0
O534 O 0.40617 0.877 0.6854 0.0
O535 O 0.40526 0.82351 0.73333 0.0
O536 O 0.47159 0.84063 0.78486 0.0
O537 O 0.41786 0.76969 0.79253 0.0
O538 O 0.32516 0.7732 0.8286 0.0
O539 O 0.3143 0.77216 0.74516 0.0
O540 O 0.40078 0.85127 0.88045 0.0
O541 O 0.40429 0.89965 0.82836 0.0
O542 O 0.33844 0.88595 0.78451 0.0
O543 O 0.39172 0.95519 0.77276 0.0
H544 H 0.58007 0.96891 0.73047 0.0
H545 H 0.64127 0.93479 0.74868 0.0
H546 H 0.59217 0.88532 0.87961 0.0
H547 H 0.53266 0.92024 0.86289 0.0
H548 H 0.24016 0.72901 0.84599 0.0
H549 H 0.17336 0.75204 0.85307 0.0
H550 H 0.19922 0.84811 0.74261 0.0
H551 H 0.26335 0.82279 0.73313 0.0
La552 La 0.6565 0.07354 0.07288 0.0
La553 La 0.6611 0.15829 0.02871 0.0
C554 C 0.64246 0.99905 0.11717 0.0
C555 C 0.61309 0.98887 0.15231 0.0
C556 C 0.62164 0.96201 0.19021 0.0
C557 C 0.60462 0.96997 0.23607 0.0
C558 C 0.57943 1.00507 0.24378 0.0
C559 C 0.56757 1.02737 0.20314 0.0
C560 C 0.58466 1.01968 0.15792 0.0
C561 C 0.69665 0.06225 0.99039 0.0
C562 C 0.57096 0.08418 1.01152 0.0
C563 C 0.66633 0.21701 0.9667 0.0
C564 C 0.68703 0.20661 0.92212 0.0
C565 C 0.69572 0.24153 0.89016 0.0
C566 C 0.72057 0.23147 0.85213 0.0
C567 C 0.7361 0.18657 0.84668 0.0
C568 C 0.72589 0.15101 0.87745 0.0
C569 C 0.70157 0.16122 0.91487 0.0
C570 C 0.63828 0.18402 0.12361 0.0
C571 C 0.73844 0.15891 0.10402 0.0
O572 O 0.62524 0.99288 0.06781 0.0
O573 O 0.67226 1.045 0.13748 0.0
O574 O 0.70776 0.05295 0.03472 0.0
O575 O 0.66365 0.07767 0.99322 0.0
O576 O 0.58832 0.0624 0.04549 0.0
O577 O 0.59474 0.12065 0.99381 0.0
O578 O 0.69219 0.23023 1.01242 0.0
O579 O 0.63211 0.17818 0.96367 0.0
O580 O 0.66586 0.21488 0.10498 0.0
O581 O 0.62833 0.13849 0.09095 0.0
O582 O 0.72691 0.16338 0.05618 0.0
O583 O 0.70925 0.1354 0.12699 0.0
H584 H 0.64441 0.9392 0.18675 0.0
H585 H 0.61363 0.95192 0.2669 0.0
H586 H 0.54783 0.05422 0.20777 0.0
H587 H 0.57844 1.04166 0.12968 0.0
H588 H 0.68455 0.27675 0.89561 0.0
H589 H 0.72794 0.2587 0.8275 0.0
H590 H 0.73778 0.11634 0.87375 0.0
H591 H 0.69537 0.13476 0.93977 0.0
La592 La 0.43407 0.41049 0.33256 0.0
La593 La 0.38017 0.31249 0.25666 0.0
C594 C 0.46927 0.50931 0.36318 0.0
C595 C 0.44999 0.54595 0.34259 0.0
C596 C 0.43196 0.57838 0.37679 0.0
C597 C 0.398 0.59428 0.35616 0.0
C598 C 0.38198 0.57812 0.30119 0.0
C599 C 0.40232 0.54991 0.26665 0.0
C600 C 0.43659 0.53462 0.28717 0.0
C601 C 0.40124 0.33641 0.38114 0.0
C602 C 0.33355 0.39565 0.30009 0.0
C603 C 0.34978 0.213 0.22381 0.0
C604 C 0.37378 0.17941 0.24225 0.0
C605 C 0.38303 0.13868 0.20602 0.0
C606 C 0.41567 0.11782 0.22215 0.0
C607 C 0.43967 0.13848 0.27426 0.0
C608 C 0.42965 0.17813 0.3106 0.0
C609 C 0.39684 0.19791 0.29487 0.0
C610 C 0.41054 0.38659 0.20677 0.0
C611 C 0.48201 0.32994 0.29206 0.0
O612 O 0.44595 0.48286 0.39054 0.0
O613 O 0.48276 0.47735 0.3285 0.0
O614 O 0.43809 0.37327 0.39974 0.0
O615 O 0.38458 0.34512 0.33946 0.0
O616 O 0.37235 0.42892 0.32174 0.0
O617 O 0.32804 0.3464 0.27055 0.0
O618 O 0.36932 0.24223 0.19569 0.0
O619 O 0.33566 0.24169 0.26063 0.0
O620 O 0.37212 0.35252 0.19395 0.0
O621 O 0.42919 0.37765 0.24773 0.0
O622 O 0.44399 0.29805 0.26503 0.0
O623 O 0.48607 0.37644 0.3254 0.0
H624 H 0.44128 0.58687 0.41949 0.0
H625 H 0.38286 0.61677 0.38342 0.0
H626 H 0.3911 0.53851 0.22401 0.0
H627 H 0.44983 0.5097 0.25956 0.0
H628 H 0.36653 0.12495 0.16499 0.0
H629 H 0.42299 0.08685 0.19362 0.0
H630 H 0.44728 0.1942 0.35123 0.0
H631 H 0.39173 0.23057 0.32327 0.0
La632 La 0.64765 0.66231 0.06917 0.0
La633 La 0.66768 0.56709 1.01648 0.0
C634 C 0.65293 0.76028 0.09599 0.0
C635 C 0.67 0.79877 0.06675 0.0
C636 C 0.67148 0.85276 0.08387 0.0
C637 C 0.69097 0.88921 0.05724 0.0
C638 C 0.70881 0.87186 1.01296 0.0
C639 C 0.70675 0.81755 0.9957 0.0
C640 C 0.68793 0.78151 0.02276 0.0
C641 C 0.58917 0.57271 0.06935 0.0
C642 C 0.6191 0.61945 0.93851 0.0
C643 C 0.66338 0.46924 0.9907 0.0
C644 C 0.64796 0.43126 0.0215 0.0
C645 C 0.66067 0.38471 1.01785 0.0
C646 C 0.64922 0.35278 0.05222 0.0
C647 C 0.62437 0.36662 0.08985 0.0
C648 C 0.61007 0.4118 0.09161 0.0
C649 C 0.62228 0.44415 0.05822 0.0
C650 C 0.7267 0.65774 1.01736 0.0
C651 C 0.69452 0.60906 0.14735 0.0
O652 O 0.61722 0.72284 0.07162 0.0
O653 O 0.68145 0.74027 0.11555 0.0
O654 O 0.59937 0.61755 0.10674 0.0
O655 O 0.60927 0.58159 0.0329 0.0
O656 O 0.62362 0.65873 0.98257 0.0
O657 O 0.63393 0.57839 0.94312 0.0
O658 O 0.69905 0.50733 1.01372 0.0
O659 O 0.63424 0.48843 0.97111 0.0
O660 O 0.71645 0.613 0.97974 0.0
O661 O 0.70618 0.64779 0.05318 0.0
O662 O 0.68973 0.56955 0.10333 0.0
O663 O 0.68049 0.6506 0.14261 0.0
H664 H 0.65818 0.86675 0.11802 0.0
H665 H 0.6919 0.93093 0.07115 0.0
H666 H 0.72038 0.80311 0.962 0.0
H667 H 0.68817 0.74025 1.00986 0.0
H668 H 0.68046 0.37408 0.98982 0.0
H669 H 0.66048 0.31786 0.05018 0.0
H670 H 0.59144 0.42375 0.12067 0.0
H671 H 0.61281 0.48037 0.06231 0.0
La672 La 0.93876 0.40491 0.26892 0.0
La673 La 0.87112 0.32024 0.29565 0.0
C674 C 1.01336 0.46434 0.28272 0.0
C675 C 0.05207 0.44804 0.29526 0.0
C676 C 0.08285 0.45178 0.26302 0.0
C677 C 0.11726 0.43129 0.27216 0.0
C678 C 0.1208 0.40586 0.31297 0.0
C679 C 0.08967 0.40144 0.34464 0.0
C680 C 0.05602 0.42283 0.33634 0.0
C681 C 0.89188 0.32812 0.18837 0.0
C682 C 0.95909 0.28934 0.2895 0.0
C683 C 0.79701 0.26016 0.28467 0.0
C684 C 0.75701 0.2741 0.28919 0.0
C685 C 0.73154 0.25561 0.32377 0.0
C686 C 0.6938 0.26945 0.32829 0.0
C687 C 0.68137 0.30257 0.29881 0.0
C688 C 0.70793 0.32279 0.2659 0.0
C689 C 0.74484 0.30795 0.26041 0.0
C690 C 0.91819 0.39795 0.37424 0.0
C691 C 0.8513 0.43734 0.27964 0.0
O692 O 0.9898 0.44011 0.23519 0.0
O693 O 0.99024 0.46664 0.31958 0.0
O694 O 0.90614 0.37769 0.18589 0.0
O695 O 0.90528 0.3238 0.23333 0.0
O696 O 0.9716 0.34068 0.28485 0.0
O697 O 0.91781 0.26973 0.2923 0.0
O698 O 0.82534 0.2737 0.3289 0.0
O699 O 0.81443 0.27209 0.24531 0.0
O700 O 0.90129 0.35051 0.38031 0.0
O701 O 0.90457 0.39989 0.32912 0.0
O702 O 0.83859 0.38616 0.28467 0.0
O703 O 0.89197 0.45552 0.27333 0.0
H704 H 0.08024 0.47045 0.23083 0.0
H705 H 0.1415 0.43611 0.248 0.0
H706 H 0.09221 0.38349 0.37741 0.0
H707 H 1.03278 0.41883 0.36191 0.0
H708 H 0.7405 0.22986 0.34664 0.0
H709 H 0.67376 0.25303 0.35369 0.0
H710 H 0.69935 0.34818 0.2424 0.0
H711 H 0.76348 0.32275 0.23301 0.0
La712 La 0.15729 0.57385 0.5752 0.0
La713 La 0.16129 0.65773 0.52996 0.0
C714 C 0.14314 0.49942 0.61957 0.0
C715 C 0.11272 0.48783 0.65321 0.0
C716 C 0.12031 0.45983 0.69038 0.0
C717 C 0.10205 0.4663 0.73534 0.0
C718 C 0.07663 0.50115 0.74292 0.0
C719 C 0.06545 0.52416 0.70257 0.0
C720 C 0.08376 0.51791 0.65824 0.0
C721 C 0.19695 0.5616 0.49232 0.0
C722 C 0.07152 0.58315 0.51313 0.0
C723 C 0.16538 0.71571 0.46736 0.0
C724 C 0.18492 0.70406 0.422 0.0
C725 C 0.1935 0.73848 0.38957 0.0
C726 C 0.21809 0.72773 0.35146 0.0
C727 C 0.23347 0.68273 0.3465 0.0
C728 C 0.22304 0.64739 0.37735 0.0
C729 C 0.19893 0.65824 0.4148 0.0
C730 C 0.1386 0.68425 0.62473 0.0
C731 C 0.2393 0.65923 0.60466 0.0
O732 O 0.12693 0.49289 0.56978 0.0
O733 O 0.17204 0.54603 0.64067 0.0
O734 O 0.20849 0.55308 0.53694 0.0
O735 O 0.16392 0.57695 0.49527 0.0
O736 O 0.08908 0.56249 0.54798 0.0
O737 O 0.09517 0.61876 0.49437 0.0
O738 O 0.1921 0.72909 0.51244 0.0
O739 O 0.1311 0.67756 0.46567 0.0
O740 O 0.1663 0.71479 0.60598 0.0
O741 O 0.12872 0.63851 0.59249 0.0
O742 O 0.22738 0.66319 0.55668 0.0
O743 O 0.21041 0.6361 0.62825 0.0
H744 H 0.14335 0.43739 0.6873 0.0
H745 H 0.11055 0.44765 0.76588 0.0
H746 H 1.04554 0.55081 0.70703 0.0
H747 H 0.07817 0.5407 0.63058 0.0
H748 H 0.18272 0.77399 0.39495 0.0
H749 H 0.22568 0.75476 0.32668 0.0
H750 H 0.23487 0.6127 0.37397 0.0
H751 H 0.19269 0.63209 0.43995 0.0
La752 La 0.87509 0.89608 0.31007 0.0
La753 La 0.93849 0.83358 0.28529 0.0
C754 C 0.80576 0.91489 0.32335 0.0
C755 C 0.76995 0.89322 0.34745 0.0
C756 C 0.72949 0.89753 0.32962 0.0
C757 C 0.69508 0.87785 0.35279 0.0
C758 C 0.70099 0.85416 0.39444 0.0
C759 C 0.74133 0.84845 0.41107 0.0
C760 C 0.77552 0.86741 0.38736 0.0
C761 C 0.94454 0.96543 0.28912 0.0
C762 C 0.93683 0.88418 0.40668 0.0
C763 C 1.00738 0.81395 0.27055 0.0
C764 C 1.04239 0.83303 0.24417 0.0
C765 C 0.08034 0.81953 0.25429 0.0
C766 C 0.11427 0.8377 0.22979 0.0
C767 C 0.11026 0.86893 0.19435 0.0
C768 C 0.07225 0.88259 0.18441 0.0
C769 C 1.03863 0.86526 0.2097 0.0
C770 C 0.86844 0.76366 0.30391 0.0
C771 C 0.87517 0.8433 0.18943 0.0
O772 O 0.84247 0.94119 0.35581 0.0
O773 O 0.80995 0.8816 0.28096 0.0
O774 O 0.91097 0.97698 0.30261 0.0
O775 O 0.93761 0.91564 0.28908 0.0
O776 O 0.90109 0.89543 0.39138 0.0
O777 O 0.95815 0.86448 0.37182 0.0
O778 O 0.97018 0.787 0.23958 0.0
O779 O 1.00417 0.8493 0.31208 0.0
O780 O 0.90226 0.75228 0.29116 0.0
O781 O 0.87565 0.81374 0.30506 0.0
O782 O 0.91171 0.83375 0.20438 0.0
O783 O 0.85386 0.86259 0.22431 0.0
H784 H 0.72467 0.9168 0.29831 0.0
H785 H 0.66439 0.8831 0.33959 0.0
H786 H 0.74659 0.83 0.44291 0.0
H787 H 0.80642 0.86275 0.40075 0.0
H788 H 0.08361 0.79468 0.28089 0.0
H789 H 0.14304 0.82591 0.23716 0.0
H790 H 0.06859 0.90661 0.15709 0.0
H791 H 1.00961 0.87646 0.20201 0.0
La792 La 0.93541 0.36771 0.77038 0.0
La793 La 0.87531 0.35852 0.82107 0.0
C794 C 0.98585 0.37062 0.70734 0.0
C795 C 0.98718 0.40073 0.66896 0.0
C796 C 1.00856 0.39065 0.62733 0.0
C797 C 1.00587 0.41747 0.5884 0.0
C798 C 0.98195 0.45434 0.59173 0.0
C799 C 0.96078 0.46429 0.63389 0.0
C800 C 0.96322 0.43728 0.67221 0.0
C801 C 0.96305 0.33898 0.85658 0.0
C802 C 0.94183 0.46621 0.85095 0.0
C803 C 0.83049 0.3546 0.89086 0.0
C804 C 0.83059 0.31755 0.92299 0.0
C805 C 0.79841 0.30424 0.95145 0.0
C806 C 0.79576 0.26093 0.97333 0.0
C807 C 0.82491 0.23101 0.96591 0.0
C808 C 0.85794 0.24597 0.93927 0.0
C809 C 0.86075 0.28909 0.9181 0.0
C810 C 0.8469 0.38723 0.73517 0.0
C811 C 0.86873 0.26157 0.73357 0.0
O812 O 0.99618 0.40059 0.75615 0.0
O813 O 0.95007 0.3323 0.69844 0.0
O814 O 0.98408 0.37621 0.83875 0.0
O815 O 0.92559 0.31927 0.82759 0.0
O816 O 0.93865 0.45105 0.79964 0.0
O817 O 0.92373 0.42929 0.87227 0.0
O818 O 0.8156 0.33023 0.8408 0.0
O819 O 0.86703 0.3912 0.89813 0.0
O820 O 0.82516 0.35235 0.75528 0.0
O821 O 0.88473 0.40617 0.76292 0.0
O822 O 0.86711 0.27466 0.78415 0.0
O823 O 0.88953 0.29847 0.71416 0.0
H824 H 1.02666 0.3619 0.62466 0.0
H825 H 1.02239 0.40929 0.55588 0.0
H826 H 0.94208 0.49239 0.63711 0.0
H827 H 0.9458 0.44428 0.7039 0.0
H828 H 0.77502 0.32613 0.95546 0.0
H829 H 0.77149 0.25118 0.99649 0.0
H830 H 0.88142 0.22423 0.93477 0.0
H831 H 0.88581 0.29927 0.89642 0.0
La832 La 0.93412 0.91042 0.8325 0.0
La833 La 0.88011 0.81245 0.75707 0.0
C834 C 0.96956 1.00919 0.86287 0.0
C835 C 0.95014 1.0459 0.8426 0.0
C836 C 0.93183 0.07777 0.87697 0.0
C837 C 0.89752 0.09316 0.85652 0.0
C838 C 0.88149 0.07709 0.80157 0.0
C839 C 0.90215 0.04964 0.76688 0.0
C840 C 0.93677 1.03487 0.78722 0.0
C841 C 0.90127 0.83663 0.88141 0.0
C842 C 0.83361 0.89577 0.80015 0.0
C843 C 0.84947 0.71285 0.7248 0.0
C844 C 0.87334 0.67911 0.7431 0.0
C845 C 0.88193 0.63786 0.70675 0.0
C846 C 0.91468 0.61697 0.72239 0.0
C847 C 0.93944 0.63813 0.77408 0.0
C848 C 0.93 0.67818 0.81059 0.0
C849 C 0.89708 0.69801 0.79537 0.0
C850 C 0.91028 0.88617 0.70664 0.0
C851 C 0.98194 0.82977 0.79219 0.0
O852 O 0.94653 0.98284 0.89054 0.0
O853 O 0.98269 0.97712 0.82787 0.0
O854 O 0.93821 0.87335 0.89984 0.0
O855 O 0.88459 0.84533 0.83977 0.0
O856 O 0.87242 0.92896 0.82189 0.0
O857 O 0.82804 0.84651 0.7706 0.0
O858 O 0.86914 0.74191 0.69671 0.0
O859 O 0.83564 0.74185 0.76171 0.0
O860 O 0.87187 0.85208 0.6941 0.0
O861 O 0.92911 0.87742 0.74763 0.0
O862 O 0.94391 0.79799 0.7651 0.0
O863 O 0.98603 0.87623 0.8256 0.0
H864 H 0.94118 0.08613 0.91965 0.0
H865 H 0.88218 0.11524 0.88386 0.0
H866 H 0.89098 1.03851 0.72424 0.0
H867 H 0.95029 1.01049 0.75947 0.0
H868 H 0.86485 0.62378 0.66594 0.0
H869 H 0.9215 0.58558 0.6938 0.0
H870 H 0.94817 0.69455 0.85094 0.0
H871 H 0.89246 0.73104 0.82379 0.0
La872 La 0.62484 0.58144 0.50745 0.0
La873 La 0.68889 0.64695 0.58242 0.0
C874 C 0.54566 0.53966 0.47703 0.0
C875 C 0.5158 0.56288 0.50473 0.0
C876 C 0.47397 0.53281 0.50397 0.0
C877 C 0.44656 0.55809 0.52896 0.0
C878 C 0.46156 0.61308 0.55671 0.0
C879 C 0.5045 0.64114 0.56199 0.0
C880 C 0.53125 0.61589 0.53725 0.0
C881 C 0.69307 0.59721 0.45605 0.0
C882 C 0.63506 0.7087 0.53119 0.0
C883 C 0.76831 0.68812 0.61291 0.0
C884 C 0.79867 0.66251 0.58904 0.0
C885 C 0.84028 0.69144 0.58725 0.0
C886 C 0.86815 0.66382 0.56663 0.0
C887 C 0.85375 0.60742 0.54625 0.0
C888 C 0.8111 0.57997 0.54302 0.0
C889 C 0.78388 0.60763 0.5624 0.0
C890 C 0.62042 0.63065 0.6331 0.0
C891 C 0.67754 0.51988 0.56118 0.0
O892 O 0.56885 0.57001 0.45235 0.0
O893 O 0.5692 0.52055 0.50619 0.0
O894 O 0.66072 0.55344 0.44435 0.0
O895 O 0.68415 0.63046 0.49458 0.0
O896 O 0.61691 0.66025 0.4981 0.0
O897 O 0.66479 0.71389 0.57199 0.0
O898 O 0.74434 0.66129 0.63964 0.0
O899 O 0.74544 0.70434 0.57997 0.0
O900 O 0.65206 0.67518 0.64409 0.0
O901 O 0.62992 0.59742 0.59516 0.0
O902 O 0.69497 0.56832 0.59448 0.0
O903 O 0.64887 0.51473 0.51925 0.0
H904 H 0.46257 0.49018 0.48443 0.0
H905 H 0.41362 0.53508 0.52554 0.0
H906 H 0.51752 0.68284 0.58506 0.0
H907 H 0.56429 0.63802 0.54492 0.0
H908 H 0.8512 0.73488 0.60184 0.0
H909 H 0.90083 0.68614 0.56769 0.0
H910 H 0.7984 0.53702 0.52455 0.0
H911 H 0.75096 0.58581 0.55442 0.0
La912 La 0.20035 0.60831 0.0278 0.0
La913 La 0.12054 0.62601 0.06301 0.0
C914 C 0.27645 0.61127 0.0251 0.0
C915 C 0.30355 0.57786 0.03377 0.0
C916 C 0.34187 0.58594 1.01513 0.0
C917 C 0.36984 0.55722 0.0264 0.0
C918 C 0.35942 0.51995 0.05605 0.0
C919 C 0.32022 0.51034 0.07301 0.0
C920 C 0.29236 0.53948 0.0621 0.0
C921 C 0.14468 0.62207 0.95569 0.0
C922 C 0.12507 0.50433 1.01509 0.0
C923 C 1.04429 0.62227 0.06663 0.0
C924 C 1.01524 0.65414 0.05864 0.0
C925 C 1.00296 0.68256 0.10272 0.0
C926 C 0.97467 0.71211 0.09559 0.0
C927 C 0.95747 0.71206 0.04425 0.0
C928 C 0.96905 0.68322 1.00007 0.0
C929 C 0.99823 0.65487 1.00723 0.0
C930 C 0.17726 0.6166 0.135 0.0
C931 C 0.19552 0.72965 0.07608 0.0
O932 O 0.24565 0.59082 0.98312 0.0
O933 O 0.2639 0.6338 0.06737 0.0
O934 O 0.16833 0.59067 0.94527 0.0
O935 O 0.15445 0.64482 1.0039 0.0
O936 O 0.16738 0.52293 0.02124 0.0
O937 O 0.10181 0.53812 0.02436 0.0
O938 O 0.07543 0.64295 0.10834 0.0
O939 O 0.05673 0.59963 0.02439 0.0
O940 O 0.15348 0.6478 0.14536 0.0
O941 O 0.16705 0.59057 0.08756 0.0
O942 O 0.15309 0.71079 0.06782 0.0
O943 O 0.21916 0.69601 0.06862 0.0
H944 H 0.35043 0.61507 0.99266 0.0
H945 H 0.39958 0.56408 1.01193 0.0
H946 H 0.31169 0.48144 0.09572 0.0
H947 H 0.26252 0.5327 0.07628 0.0
H948 H 1.01525 0.68199 0.14262 0.0
H949 H 0.96572 0.73432 0.12999 0.0
H950 H 0.95619 0.68354 0.96028 0.0
H951 H 1.00738 0.63365 0.97258 0.0
loop_
_geom_bond_atom_site_label_1
_geom_bond_atom_site_label_2
_geom_bond_distance
_geom_bond_site_symmetry_2
_ccdc_geom_bond_type
C0 O1 1.160 . S
C0 O7 1.185 . S
O1 C0 1.160 . S
O2 Zn3 1.899 . S
O2 C10 1.284 . S
Zn3 O2 1.899 . S
Zn3 O4 2.032 . S
Zn3 O7 2.086 . S
Zn3 O12 1.977 . S
O4 Zn3 2.032 . S
O4 C8 1.278 . S
C5 O6 1.203 . S
C5 O12 1.267 . S
O6 C5 1.203 . S
O7 C0 1.185 . S
O7 Zn3 2.086 . S
C8 O4 1.278 . S
C8 O9 1.211 . S
O9 C8 1.211 . S
C10 O2 1.284 . S
C10 O11 1.273 . S
O11 C10 1.273 . S
O12 Zn3 1.977 . S
O12 C5 1.267 . S
C13 O14 1.160 . S
C13 O20 1.185 . S
O14 C13 1.160 . S
O15 Zn16 1.901 1_655 S
O15 C23 1.284 . S
Zn16 O15 1.901 1_455 S
Zn16 O17 2.027 1_455 S
Zn16 O20 2.077 1_455 S
Zn16 O25 1.986 . S
O17 Zn16 2.027 1_655 S
O17 C21 1.278 1_655 S
C18 O19 1.203 . S
C18 O25 1.267 . S
O19 C18 1.203 . S
O20 C13 1.185 . S
O20 Zn16 2.077 1_655 S
C21 O17 1.278 1_455 S
C21 O22 1.211 . S
O22 C21 1.211 . S
C23 O15 1.284 . S
C23 O24 1.273 1_655 S
O24 C23 1.273 1_455 S
O25 Zn16 1.986 . S
O25 C18 1.267 . S
C26 O27 1.160 . S
C26 O33 1.185 . S
O27 C26 1.160 . S
O28 Zn29 1.899 . S
O28 C36 1.284 . S
Zn29 O28 1.899 . S
Zn29 O30 2.032 . S
Zn29 O33 2.086 . S
Zn29 O38 1.977 . S
O30 Zn29 2.032 . S
O30 C34 1.278 1_565 S
C31 O32 1.203 . S
C31 O38 1.267 . S
O32 C31 1.203 . S
O33 C26 1.185 . S
O33 Zn29 2.086 . S
C34 O30 1.278 1_545 S
C34 O35 1.211 . S
O35 C34 1.211 . S
C36 O28 1.284 . S
C36 O37 1.273 1_556 S
O37 C36 1.273 1_554 S
O38 Zn29 1.977 . S
O38 C31 1.267 . S
C39 O40 1.160 . S
C39 O46 1.185 . S
O40 C39 1.160 . S
O41 Zn42 1.899 . S
O41 C49 1.284 . S
Zn42 O41 1.899 . S
Zn42 O43 2.032 . S
Zn42 O46 2.086 . S
Zn42 O51 1.977 . S
O43 Zn42 2.032 . S
O43 C47 1.278 . S
C44 O45 1.203 . S
C44 O51 1.267 . S
O45 C44 1.203 . S
O46 C39 1.185 . S
O46 Zn42 2.086 . S
C47 O43 1.278 . S
C47 O48 1.211 . S
O48 C47 1.211 . S
C49 O41 1.284 . S
C49 O50 1.273 . S
O50 C49 1.273 . S
O51 Zn42 1.977 . S
O51 C44 1.267 . S
C52 O53 1.160 . S
C52 O59 1.185 . S
O53 C52 1.160 . S
O54 Zn55 1.899 . S
O54 C62 1.284 . S
Zn55 O54 1.899 . S
Zn55 O56 2.032 . S
Zn55 O59 2.086 . S
Zn55 O64 1.977 . S
O56 Zn55 2.032 . S
O56 C60 1.278 . S
C57 O58 1.203 . S
C57 O64 1.267 . S
O58 C57 1.203 . S
O59 C52 1.185 . S
O59 Zn55 2.086 . S
C60 O56 1.278 . S
C60 O61 1.211 . S
O61 C60 1.211 . S
C62 O54 1.284 . S
C62 O63 1.273 . S
O63 C62 1.273 . S
O64 Zn55 1.977 . S
O64 C57 1.267 . S
C65 O66 1.160 . S
C65 O72 1.185 . S
O66 C65 1.160 . S
O67 Zn68 1.899 . S
O67 C75 1.284 . S
Zn68 O67 1.899 . S
Zn68 O69 2.032 . S
Zn68 O72 2.086 . S
Zn68 O77 1.977 . S
O69 Zn68 2.032 . S
O69 C73 1.278 . S
C70 O71 1.203 . S
C70 O77 1.267 . S
O71 C70 1.203 . S
O72 C65 1.185 . S
O72 Zn68 2.086 . S
C73 O69 1.278 . S
C73 O74 1.211 . S
O74 C73 1.211 . S
C75 O67 1.284 . S
C75 O76 1.273 . S
O76 C75 1.273 . S
O77 Zn68 1.977 . S
O77 C70 1.267 . S
C78 O79 1.160 . S
C78 O85 1.185 . S
O79 C78 1.160 . S
O80 Zn81 1.899 . S
O80 C88 1.284 . S
Zn81 O80 1.899 . S
Zn81 O82 2.032 . S
Zn81 O85 2.086 . S
Zn81 O90 1.977 . S
O82 Zn81 2.032 . S
O82 C86 1.278 . S
C83 O84 1.203 . S
C83 O90 1.267 . S
O84 C83 1.203 . S
O85 C78 1.185 . S
O85 Zn81 2.086 . S
C86 O82 1.278 . S
C86 O87 1.211 . S
O87 C86 1.211 . S
C88 O80 1.284 . S
C88 O89 1.273 . S
O89 C88 1.273 . S
O90 Zn81 1.977 . S
O90 C83 1.267 . S
C91 O92 1.160 . S
C91 O98 1.185 . S
O92 C91 1.160 . S
O93 Zn94 1.899 . S
O93 C101 1.284 1_556 S
Zn94 O93 1.899 . S
Zn94 O95 2.032 . S
Zn94 O98 2.086 . S
Zn94 O103 1.977 . S
O95 Zn94 2.032 . S
O95 C99 1.278 1_556 S
C96 O97 1.203 . S
C96 O103 1.267 1_655 S
O97 C96 1.203 . S
O98 C91 1.185 . S
O98 Zn94 2.086 . S
C99 O95 1.278 1_554 S
C99 O100 1.211 . S
O100 C99 1.211 . S
C101 O93 1.284 1_554 S
C101 O102 1.273 . S
O102 C101 1.273 . S
O103 Zn94 1.977 . S
O103 C96 1.267 1_455 S
C104 O105 1.160 . S
C104 O111 1.185 . S
O105 C104 1.160 . S
O106 Zn107 1.902 1_565 S
O106 C114 1.284 . S
Zn107 O106 1.902 1_545 S
Zn107 O108 2.033 . S
Zn107 O111 2.105 . S
Zn107 O116 1.961 1_545 S
O108 Zn107 2.033 . S
O108 C112 1.278 . S
C109 O110 1.203 . S
C109 O116 1.267 . S
O110 C109 1.203 . S
O111 C104 1.185 . S
O111 Zn107 2.105 . S
C112 O108 1.278 . S
C112 O113 1.211 1_545 S
O113 C112 1.211 1_565 S
C114 O106 1.284 . S
C114 O115 1.273 . S
O115 C114 1.273 . S
O116 Zn107 1.961 1_565 S
O116 C109 1.267 . S
C117 O118 1.160 . S
C117 O124 1.185 . S
O118 C117 1.160 . S
O119 Zn120 1.899 . S
O119 C127 1.284 . S
Zn120 O119 1.899 . S
Zn120 O121 2.032 . S
Zn120 O124 2.086 . S
Zn120 O129 1.977 . S
O121 Zn120 2.032 . S
O121 C125 1.278 . S
C122 O123 1.203 . S
C122 O129 1.267 . S
O123 C122 1.203 . S
O124 C117 1.185 . S
O124 Zn120 2.086 . S
C125 O121 1.278 . S
C125 O126 1.211 . S
O126 C125 1.211 . S
C127 O119 1.284 . S
C127 O128 1.273 . S
O128 C127 1.273 . S
O129 Zn120 1.977 . S
O129 C122 1.267 . S
C130 O131 1.160 . S
C130 O137 1.185 . S
O131 C130 1.160 . S
O132 Zn133 1.899 . S
O132 C140 1.284 . S
Zn133 O132 1.899 . S
Zn133 O134 2.032 . S
Zn133 O137 2.086 1_545 S
Zn133 O142 1.977 . S
O134 Zn133 2.032 . S
O134 C138 1.278 . S
C135 O136 1.203 . S
C135 O142 1.267 . S
O136 C135 1.203 . S
O137 C130 1.185 . S
O137 Zn133 2.086 1_565 S
C138 O134 1.278 . S
C138 O139 1.211 . S
O139 C138 1.211 . S
C140 O132 1.284 . S
C140 O141 1.273 . S
O141 C140 1.273 . S
O142 Zn133 1.977 . S
O142 C135 1.267 . S
C143 O144 1.160 . S
C143 O150 1.185 . S
O144 C143 1.160 . S
O145 Zn146 1.899 1_565 S
O145 C153 1.284 . S
Zn146 O145 1.899 1_545 S
Zn146 O147 2.032 1_544 S
Zn146 O150 2.086 . S
Zn146 O155 1.977 . S
O147 Zn146 2.032 1_566 S
O147 C151 1.278 . S
C148 O149 1.203 . S
C148 O155 1.267 . S
O149 C148 1.203 . S
O150 C143 1.185 . S
O150 Zn146 2.086 . S
C151 O147 1.278 . S
C151 O152 1.211 . S
O152 C151 1.211 . S
C153 O145 1.284 . S
C153 O154 1.273 . S
O154 C153 1.273 . S
O155 Zn146 1.977 . S
O155 C148 1.267 . S
C156 O157 1.160 . S
C156 O163 1.185 . S
O157 C156 1.160 . S
O158 Zn159 1.899 . S
O158 C166 1.284 . S
Zn159 O158 1.899 . S
Zn159 O160 2.032 1_554 S
Zn159 O163 2.086 . S
Zn159 O168 1.977 . S
O160 Zn159 2.032 1_556 S
O160 C164 1.278 . S
C161 O162 1.203 . S
C161 O168 1.267 . S
O162 C161 1.203 . S
O163 C156 1.185 . S
O163 Zn159 2.086 . S
C164 O160 1.278 . S
C164 O165 1.211 . S
O165 C164 1.211 . S
C166 O158 1.284 . S
C166 O167 1.273 . S
O167 C166 1.273 . S
O168 Zn159 1.977 . S
O168 C161 1.267 . S
C169 O170 1.160 . S
C169 O176 1.185 . S
O170 C169 1.160 . S
O171 Zn172 1.899 . S
O171 C179 1.284 . S
Zn172 O171 1.899 . S
Zn172 O173 2.032 . S
Zn172 O176 2.086 . S
Zn172 O181 1.977 . S
O173 Zn172 2.032 . S
O173 C177 1.278 1_554 S
C174 O175 1.203 . S
C174 O181 1.267 . S
O175 C174 1.203 . S
O176 C169 1.185 . S
O176 Zn172 2.086 . S
C177 O173 1.278 1_556 S
C177 O178 1.211 . S
O178 C177 1.211 . S
C179 O171 1.284 . S
C179 O180 1.273 . S
O180 C179 1.273 . S
O181 Zn172 1.977 . S
O181 C174 1.267 . S
C182 O183 1.160 . S
C182 O189 1.185 . S
O183 C182 1.160 . S
O184 Zn185 1.899 . S
O184 C192 1.284 . S
Zn185 O184 1.899 . S
Zn185 O186 2.032 . S
Zn185 O189 2.086 . S
Zn185 O194 1.977 . S
O186 Zn185 2.032 . S
O186 C190 1.278 . S
C187 O188 1.203 . S
C187 O194 1.267 . S
O188 C187 1.203 . S
O189 C182 1.185 . S
O189 Zn185 2.086 . S
C190 O186 1.278 . S
C190 O191 1.211 . S
O191 C190 1.211 . S
C192 O184 1.284 . S
C192 O193 1.273 . S
O193 C192 1.273 . S
O194 Zn185 1.977 . S
O194 C187 1.267 . S
C195 O196 1.160 . S
C195 O202 1.185 . S
O196 C195 1.160 . S
O197 Zn198 1.899 . S
O197 C205 1.284 . S
Zn198 O197 1.899 . S
Zn198 O199 2.032 . S
Zn198 O202 2.086 . S
Zn198 O207 1.977 . S
O199 Zn198 2.032 . S
O199 C203 1.278 . S
C200 O201 1.203 . S
C200 O207 1.267 . S
O201 C200 1.203 . S
O202 C195 1.185 . S
O202 Zn198 2.086 . S
C203 O199 1.278 . S
C203 O204 1.211 . S
O204 C203 1.211 . S
C205 O197 1.284 . S
C205 O206 1.273 . S
O206 C205 1.273 . S
O207 Zn198 1.977 . S
O207 C200 1.267 . S
C208 O209 1.160 . S
C208 O215 1.185 . S
O209 C208 1.160 . S
O210 Zn211 1.899 1_455 S
O210 C218 1.284 . S
Zn211 O210 1.899 1_655 S
Zn211 O212 2.032 1_655 S
Zn211 O215 2.086 . S
Zn211 O220 1.977 . S
O212 Zn211 2.032 1_455 S
O212 C216 1.278 . S
C213 O214 1.203 . S
C213 O220 1.267 1_565 S
O214 C213 1.203 . S
O215 C208 1.185 . S
O215 Zn211 2.086 . S
C216 O212 1.278 . S
C216 O217 1.211 . S
O217 C216 1.211 . S
C218 O210 1.284 . S
C218 O219 1.273 . S
O219 C218 1.273 . S
O220 Zn211 1.977 . S
O220 C213 1.267 1_545 S
C221 O222 1.160 . S
C221 O228 1.185 . S
O222 C221 1.160 . S
O223 Zn224 1.899 . S
O223 C231 1.284 . S
Zn224 O223 1.899 . S
Zn224 O225 2.032 . S
Zn224 O228 2.086 . S
Zn224 O233 1.977 . S
O225 Zn224 2.032 . S
O225 C229 1.278 . S
C226 O227 1.203 . S
C226 O233 1.267 . S
O227 C226 1.203 . S
O228 C221 1.185 . S
O228 Zn224 2.086 . S
C229 O225 1.278 . S
C229 O230 1.211 . S
O230 C229 1.211 . S
C231 O223 1.284 . S
C231 O232 1.273 . S
O232 C231 1.273 . S
O233 Zn224 1.977 . S
O233 C226 1.267 . S
C234 O235 1.160 . S
C234 O241 1.185 . S
O235 C234 1.160 . S
O236 Zn237 1.899 . S
O236 C244 1.284 . S
Zn237 O236 1.899 . S
Zn237 O238 2.032 . S
Zn237 O241 2.086 . S
Zn237 O246 1.977 . S
O238 Zn237 2.032 . S
O238 C242 1.278 . S
C239 O240 1.203 . S
C239 O246 1.267 . S
O240 C239 1.203 . S
O241 C234 1.185 . S
O241 Zn237 2.086 . S
C242 O238 1.278 . S
C242 O243 1.211 . S
O243 C242 1.211 . S
C244 O236 1.284 . S
C244 O245 1.273 . S
O245 C244 1.273 . S
O246 Zn237 1.977 . S
O246 C239 1.267 . S
C247 O248 1.160 . S
C247 O254 1.185 . S
O248 C247 1.160 . S
O249 Zn250 1.899 . S
O249 C257 1.284 . S
Zn250 O249 1.899 . S
Zn250 O251 2.032 . S
Zn250 O254 2.086 . S
Zn250 O259 1.977 . S
O251 Zn250 2.032 . S
O251 C255 1.278 . S
C252 O253 1.203 . S
C252 O259 1.267 . S
O253 C252 1.203 . S
O254 C247 1.185 . S
O254 Zn250 2.086 . S
C255 O251 1.278 . S
C255 O256 1.211 . S
O256 C255 1.211 . S
C257 O249 1.284 . S
C257 O258 1.273 . S
O258 C257 1.273 . S
O259 Zn250 1.977 . S
O259 C252 1.267 . S
C260 O261 1.160 . S
C260 O267 1.185 1_554 S
O261 C260 1.160 . S
O262 Zn263 1.899 . S
O262 C270 1.284 . S
Zn263 O262 1.899 . S
Zn263 O264 2.032 1_554 S
Zn263 O267 2.086 1_554 S
Zn263 O272 1.977 1_554 S
O264 Zn263 2.032 1_556 S
O264 C268 1.278 . S
C265 O266 1.203 1_556 S
C265 O272 1.267 . S
O266 C265 1.203 1_554 S
O267 C260 1.185 1_556 S
O267 Zn263 2.086 1_556 S
C268 O264 1.278 . S
C268 O269 1.211 . S
O269 C268 1.211 . S
C270 O262 1.284 . S
C270 O271 1.273 . S
O271 C270 1.273 . S
O272 Zn263 1.977 1_556 S
O272 C265 1.267 . S
C273 O274 1.160 . S
C273 O280 1.185 . S
O274 C273 1.160 . S
O275 Zn276 1.899 . S
O275 C283 1.284 1_655 S
Zn276 O275 1.899 . S
Zn276 O277 2.032 1_655 S
Zn276 O280 2.086 . S
Zn276 O285 1.977 . S
O277 Zn276 2.032 1_455 S
O277 C281 1.278 . S
C278 O279 1.203 . S
C278 O285 1.267 . S
O279 C278 1.203 . S
O280 C273 1.185 . S
O280 Zn276 2.086 . S
C281 O277 1.278 . S
C281 O282 1.211 . S
O282 C281 1.211 . S
C283 O275 1.284 1_455 S
C283 O284 1.273 . S
O284 C283 1.273 . S
O285 Zn276 1.977 . S
O285 C278 1.267 . S
C286 O287 1.160 . S
C286 O293 1.185 . S
O287 C286 1.160 . S
O288 Zn289 1.899 . S
O288 C296 1.284 . S
Zn289 O288 1.899 . S
Zn289 O290 2.032 . S
Zn289 O293 2.086 . S
Zn289 O298 1.977 . S
O290 Zn289 2.032 . S
O290 C294 1.278 . S
C291 O292 1.203 . S
C291 O298 1.267 1_455 S
O292 C291 1.203 . S
O293 C286 1.185 . S
O293 Zn289 2.086 . S
C294 O290 1.278 . S
C294 O295 1.211 . S
O295 C294 1.211 . S
C296 O288 1.284 . S
C296 O297 1.273 . S
O297 C296 1.273 . S
O298 Zn289 1.977 . S
O298 C291 1.267 1_655 S
C299 O300 1.160 . S
C299 O306 1.185 . S
O300 C299 1.160 . S
O301 Zn302 1.899 . S
O301 C309 1.284 . S
Zn302 O301 1.899 . S
Zn302 O303 2.032 . S
Zn302 O306 2.086 . S
Zn302 O311 1.977 . S
O303 Zn302 2.032 . S
O303 C307 1.278 . S
C304 O305 1.203 . S
C304 O311 1.267 . S
O305 C304 1.203 . S
O306 C299 1.185 . S
O306 Zn302 2.086 . S
C307 O303 1.278 . S
C307 O308 1.211 . S
O308 C307 1.211 . S
C309 O301 1.284 . S
C309 O310 1.273 . S
O310 C309 1.273 . S
O311 Zn302 1.977 . S
O311 C304 1.267 . S
La312 C314 2.928 1_455 S
La312 O332 2.521 1_455 S
La312 O333 2.628 1_456 S
La312 O334 2.554 . S
La312 O335 2.757 . S
La312 O336 2.470 . S
La312 O341 2.482 1_556 S
La312 O343 2.503 1_546 S
La313 C323 2.928 . S
La313 O335 2.482 1_554 S
La313 O337 2.503 . S
La313 O338 2.521 . S
La313 O339 2.628 . S
La313 O340 2.554 . S
La313 O341 2.757 . S
La313 O342 2.470 . S
C314 La312 2.928 1_655 S
C314 C315 1.503 . S
C314 O332 1.261 . S
C314 O333 1.243 1_556 S
C315 C314 1.503 . S
C315 C316 1.394 . S
C315 C320 1.373 . S
C316 C315 1.394 . S
C316 C317 1.380 . S
C316 H344 0.942 . S
C317 C316 1.380 . S
C317 C318 1.376 . S
C317 H345 0.930 . S
C318 C317 1.376 . S
C318 C319 1.370 . S
C319 C318 1.370 . S
C319 C320 1.396 . S
C319 H346 0.929 . S
C320 C315 1.373 . S
C320 C319 1.396 . S
C320 H347 0.929 1_556 S
C321 O334 1.240 . S
C321 O335 1.289 . S
C322 O336 1.258 1_554 S
C322 O337 1.256 . S
C323 La313 2.928 . S
C323 C324 1.503 . S
C323 O338 1.261 . S
C323 O339 1.243 . S
C324 C323 1.503 . S
C324 C325 1.394 . S
C324 C329 1.373 . S
C325 C324 1.394 . S
C325 C326 1.380 . S
C325 H348 0.930 . S
C326 C325 1.380 . S
C326 C327 1.376 . S
C326 H349 0.930 . S
C327 C326 1.376 . S
C327 C328 1.370 . S
C328 C327 1.370 . S
C328 C329 1.396 . S
C328 H350 0.929 . S
C329 C324 1.373 . S
C329 C328 1.396 . S
C329 H351 0.929 . S
C330 O340 1.240 . S
C330 O341 1.289 . S
C331 O342 1.258 1_565 S
C331 O343 1.256 . S
O332 La312 2.521 1_655 S
O332 C314 1.261 . S
O333 La312 2.628 1_654 S
O333 C314 1.243 1_554 S
O334 La312 2.554 . S
O334 C321 1.240 . S
O335 La312 2.757 . S
O335 La313 2.482 1_556 S
O335 C321 1.289 . S
O336 La312 2.470 . S
O336 C322 1.258 1_556 S
O337 La313 2.503 . S
O337 C322 1.256 . S
O338 La313 2.521 . S
O338 C323 1.261 . S
O339 La313 2.628 . S
O339 C323 1.243 . S
O340 La313 2.554 . S
O340 C330 1.240 . S
O341 La312 2.482 1_554 S
O341 La313 2.757 . S
O341 C330 1.289 . S
O342 La313 2.470 . S
O342 C331 1.258 1_545 S
O343 La312 2.503 1_564 S
O343 C331 1.256 . S
H344 C316 0.942 . S
H345 C317 0.930 . S
H346 C319 0.929 . S
H347 C320 0.929 1_554 S
H348 C325 0.930 . S
H349 C326 0.930 . S
H350 C328 0.929 . S
H351 C329 0.929 . S
La352 C354 2.928 . S
La352 O372 2.521 . S
La352 O373 2.628 . S
La352 O374 2.554 . S
La352 O375 2.757 . S
La352 O376 2.470 . S
La352 O381 2.482 . S
La352 O383 2.503 . S
La353 C363 2.928 . S
La353 O375 2.482 . S
La353 O377 2.503 . S
La353 O378 2.521 . S
La353 O379 2.628 . S
La353 O380 2.554 . S
La353 O381 2.757 . S
La353 O382 2.470 . S
C354 La352 2.928 . S
C354 C355 1.503 . S
C354 O372 1.261 . S
C354 O373 1.243 . S
C355 C354 1.503 . S
C355 C356 1.394 . S
C355 C360 1.373 . S
C356 C355 1.394 . S
C356 C357 1.380 . S
C356 H384 0.930 . S
C357 C356 1.380 . S
C357 C358 1.376 . S
C357 H385 0.930 . S
C358 C357 1.376 . S
C358 C359 1.370 . S
C359 C358 1.370 . S
C359 C360 1.396 . S
C359 H386 0.929 . S
C360 C355 1.373 . S
C360 C359 1.396 . S
C360 H387 0.929 . S
C361 O374 1.240 . S
C361 O375 1.289 . S
C362 O376 1.258 . S
C362 O377 1.256 . S
C363 La353 2.928 . S
C363 C364 1.503 . S
C363 O378 1.261 . S
C363 O379 1.243 . S
C364 C363 1.503 . S
C364 C365 1.394 . S
C364 C369 1.373 . S
C365 C364 1.394 . S
C365 C366 1.380 . S
C365 H388 0.930 . S
C366 C365 1.380 . S
C366 C367 1.376 . S
C366 H389 0.930 . S
C367 C366 1.376 . S
C367 C368 1.370 . S
C368 C367 1.370 . S
C368 C369 1.396 . S
C368 H390 0.929 . S
C369 C364 1.373 . S
C369 C368 1.396 . S
C369 H391 0.929 . S
C370 O380 1.240 . S
C370 O381 1.289 . S
C371 O382 1.258 . S
C371 O383 1.256 . S
O372 La352 2.521 . S
O372 C354 1.261 . S
O373 La352 2.628 . S
O373 C354 1.243 . S
O374 La352 2.554 . S
O374 C361 1.240 . S
O375 La352 2.757 . S
O375 La353 2.482 . S
O375 C361 1.289 . S
O376 La352 2.470 . S
O376 C362 1.258 . S
O377 La353 2.503 . S
O377 C362 1.256 . S
O378 La353 2.521 . S
O378 C363 1.261 . S
O379 La353 2.628 . S
O379 C363 1.243 . S
O380 La353 2.554 . S
O380 C370 1.240 . S
O381 La352 2.482 . S
O381 La353 2.757 . S
O381 C370 1.289 . S
O382 La353 2.470 . S
O382 C371 1.258 . S
O383 La352 2.503 . S
O383 C371 1.256 . S
H384 C356 0.930 . S
H385 C357 0.930 . S
H386 C359 0.929 . S
H387 C360 0.929 . S
H388 C365 0.930 . S
H389 C366 0.930 . S
H390 C368 0.929 . S
H391 C369 0.929 . S
La392 C394 2.928 . S
La392 O412 2.521 . S
La392 O413 2.628 . S
La392 O414 2.554 . S
La392 O415 2.757 . S
La392 O416 2.470 1_545 S
La392 O421 2.482 . S
La392 O423 2.503 . S
La393 C403 2.928 . S
La393 O415 2.482 . S
La393 O417 2.503 1_545 S
La393 O418 2.521 . S
La393 O419 2.628 . S
La393 O420 2.554 . S
La393 O421 2.757 . S
La393 O422 2.470 . S
C394 La392 2.928 . S
C394 C395 1.503 1_545 S
C394 O412 1.261 . S
C394 O413 1.243 . S
C395 C394 1.503 1_565 S
C395 C396 1.394 . S
C395 C400 1.373 . S
C396 C395 1.394 . S
C396 C397 1.380 . S
C396 H424 0.930 . S
C397 C396 1.380 . S
C397 C398 1.376 . S
C397 H425 0.930 . S
C398 C397 1.376 . S
C398 C399 1.370 . S
C399 C398 1.370 . S
C399 C400 1.396 . S
C399 H426 0.929 . S
C400 C395 1.373 . S
C400 C399 1.396 . S
C400 H427 0.929 . S
C401 O414 1.240 . S
C401 O415 1.289 . S
C402 O416 1.258 . S
C402 O417 1.256 . S
C403 La393 2.928 . S
C403 C404 1.503 . S
C403 O418 1.261 . S
C403 O419 1.243 . S
C404 C403 1.503 . S
C404 C405 1.394 . S
C404 C409 1.373 . S
C405 C404 1.394 . S
C405 C406 1.380 . S
C405 H428 0.930 . S
C406 C405 1.380 . S
C406 C407 1.376 . S
C406 H429 0.930 . S
C407 C406 1.376 . S
C407 C408 1.370 . S
C408 C407 1.370 . S
C408 C409 1.396 . S
C408 H430 0.929 . S
C409 C404 1.373 . S
C409 C408 1.396 . S
C409 H431 0.929 . S
C410 O420 1.240 . S
C410 O421 1.289 . S
C411 O422 1.258 . S
C411 O423 1.256 . S
O412 La392 2.521 . S
O412 C394 1.261 . S
O413 La392 2.628 . S
O413 C394 1.243 . S
O414 La392 2.554 . S
O414 C401 1.240 . S
O415 La392 2.757 . S
O415 La393 2.482 . S
O415 C401 1.289 . S
O416 La392 2.470 1_565 S
O416 C402 1.258 . S
O417 La393 2.503 1_565 S
O417 C402 1.256 . S
O418 La393 2.521 . S
O418 C403 1.261 . S
O419 La393 2.628 . S
O419 C403 1.243 . S
O420 La393 2.554 . S
O420 C410 1.240 . S
O421 La392 2.482 . S
O421 La393 2.757 . S
O421 C410 1.289 . S
O422 La393 2.470 . S
O422 C411 1.258 . S
O423 La392 2.503 . S
O423 C411 1.256 . S
H424 C396 0.930 . S
H425 C397 0.930 . S
H426 C399 0.929 . S
H427 C400 0.929 . S
H428 C405 0.930 . S
H429 C406 0.930 . S
H430 C408 0.929 . S
H431 C409 0.929 . S
La432 C434 2.928 . S
La432 O452 2.521 . S
La432 O453 2.628 . S
La432 O454 2.554 . S
La432 O455 2.757 . S
La432 O456 2.470 . S
La432 O461 2.482 . S
La432 O463 2.503 . S
La433 C443 2.928 . S
La433 O455 2.482 . S
La433 O457 2.503 . S
La433 O458 2.521 . S
La433 O459 2.628 . S
La433 O460 2.554 . S
La433 O461 2.757 . S
La433 O462 2.470 . S
C434 La432 2.928 . S
C434 C435 1.503 . S
C434 O452 1.261 . S
C434 O453 1.243 . S
C435 C434 1.503 . S
C435 C436 1.394 . S
C435 C440 1.373 . S
C436 C435 1.394 . S
C436 C437 1.380 . S
C436 H464 0.930 . S
C437 C436 1.380 . S
C437 C438 1.376 . S
C437 H465 0.930 . S
C438 C437 1.376 . S
C438 C439 1.370 . S
C439 C438 1.370 . S
C439 C440 1.396 . S
C439 H466 0.929 . S
C440 C435 1.373 . S
C440 C439 1.396 . S
C440 H467 0.929 . S
C441 O454 1.240 . S
C441 O455 1.289 . S
C442 O456 1.258 . S
C442 O457 1.256 . S
C443 La433 2.928 . S
C443 C444 1.503 . S
C443 O458 1.261 . S
C443 O459 1.243 . S
C444 C443 1.503 . S
C444 C445 1.394 . S
C444 C449 1.373 . S
C445 C444 1.394 . S
C445 C446 1.380 . S
C445 H468 0.930 . S
C446 C445 1.380 . S
C446 C447 1.376 . S
C446 H469 0.930 . S
C447 C446 1.376 . S
C447 C448 1.370 . S
C448 C447 1.370 . S
C448 C449 1.396 . S
C448 H470 0.929 . S
C449 C444 1.373 . S
C449 C448 1.396 . S
C449 H471 0.929 . S
C450 O460 1.240 . S
C450 O461 1.289 . S
C451 O462 1.258 . S
C451 O463 1.256 . S
O452 La432 2.521 . S
O452 C434 1.261 . S
O453 La432 2.628 . S
O453 C434 1.243 . S
O454 La432 2.554 . S
O454 C441 1.240 . S
O455 La432 2.757 . S
O455 La433 2.482 . S
O455 C441 1.289 . S
O456 La432 2.470 . S
O456 C442 1.258 . S
O457 La433 2.503 . S
O457 C442 1.256 . S
O458 La433 2.521 . S
O458 C443 1.261 . S
O459 La433 2.628 . S
O459 C443 1.243 . S
O460 La433 2.554 . S
O460 C450 1.240 . S
O461 La432 2.482 . S
O461 La433 2.757 . S
O461 C450 1.289 . S
O462 La433 2.470 . S
O462 C451 1.258 . S
O463 La432 2.503 . S
O463 C451 1.256 . S
H464 C436 0.930 . S
H465 C437 0.930 . S
H466 C439 0.929 . S
H467 C440 0.929 . S
H468 C445 0.930 . S
H469 C446 0.930 . S
H470 C448 0.929 . S
H471 C449 0.929 . S
La472 C474 2.928 . S
La472 O492 2.521 . S
La472 O493 2.628 . S
La472 O494 2.554 . S
La472 O495 2.757 . S
La472 O496 2.470 . S
La472 O501 2.482 . S
La472 O503 2.503 . S
La473 C483 2.928 . S
La473 O495 2.482 1_565 S
La473 O497 2.503 1_565 S
La473 O498 2.521 . S
La473 O499 2.628 . S
La473 O500 2.554 1_565 S
La473 O501 2.757 1_565 S
La473 O502 2.470 1_565 S
C474 La472 2.928 . S
C474 C475 1.503 . S
C474 O492 1.261 . S
C474 O493 1.243 . S
C475 C474 1.503 . S
C475 C476 1.394 . S
C475 C480 1.373 . S
C476 C475 1.394 . S
C476 C477 1.380 . S
C476 H504 0.930 . S
C477 C476 1.380 . S
C477 C478 1.376 . S
C477 H505 0.930 . S
C478 C477 1.376 . S
C478 C479 1.370 . S
C479 C478 1.370 . S
C479 C480 1.396 . S
C479 H506 0.929 . S
C480 C475 1.373 . S
C480 C479 1.396 . S
C480 H507 0.929 . S
C481 O494 1.240 . S
C481 O495 1.289 . S
C482 O496 1.258 . S
C482 O497 1.256 . S
C483 La473 2.928 . S
C483 C484 1.503 . S
C483 O498 1.261 . S
C483 O499 1.243 . S
C484 C483 1.503 . S
C484 C485 1.394 . S
C484 C489 1.373 . S
C485 C484 1.394 . S
C485 C486 1.380 . S
C485 H508 0.930 . S
C486 C485 1.380 . S
C486 C487 1.376 . S
C486 H509 0.930 . S
C487 C486 1.376 . S
C487 C488 1.370 . S
C488 C487 1.370 . S
C488 C489 1.396 . S
C488 H510 0.929 . S
C489 C484 1.373 . S
C489 C488 1.396 . S
C489 H511 0.929 . S
C490 O500 1.240 . S
C490 O501 1.289 . S
C491 O502 1.258 . S
C491 O503 1.256 . S
O492 La472 2.521 . S
O492 C474 1.261 . S
O493 La472 2.628 . S
O493 C474 1.243 . S
O494 La472 2.554 . S
O494 C481 1.240 . S
O495 La472 2.757 . S
O495 La473 2.482 1_545 S
O495 C481 1.289 . S
O496 La472 2.470 . S
O496 C482 1.258 . S
O497 La473 2.503 1_545 S
O497 C482 1.256 . S
O498 La473 2.521 . S
O498 C483 1.261 . S
O499 La473 2.628 . S
O499 C483 1.243 . S
O500 La473 2.554 1_545 S
O500 C490 1.240 . S
O501 La472 2.482 . S
O501 La473 2.757 1_545 S
O501 C490 1.289 . S
O502 La473 2.470 1_545 S
O502 C491 1.258 . S
O503 La472 2.503 . S
O503 C491 1.256 . S
H504 C476 0.930 . S
H505 C477 0.930 . S
H506 C479 0.929 . S
H507 C480 0.929 . S
H508 C485 0.930 . S
H509 C486 0.930 . S
H510 C488 0.929 . S
H511 C489 0.929 . S
La512 C514 2.928 . S
La512 O532 2.521 . S
La512 O533 2.628 . S
La512 O534 2.554 . S
La512 O535 2.757 . S
La512 O536 2.470 . S
La512 O541 2.482 . S
La512 O543 2.503 . S
La513 C523 2.928 . S
La513 O535 2.482 . S
La513 O537 2.503 . S
La513 O538 2.521 . S
La513 O539 2.628 . S
La513 O540 2.554 . S
La513 O541 2.757 . S
La513 O542 2.470 . S
C514 La512 2.928 . S
C514 C515 1.503 . S
C514 O532 1.261 . S
C514 O533 1.243 . S
C515 C514 1.503 . S
C515 C516 1.394 . S
C515 C520 1.373 . S
C516 C515 1.394 . S
C516 C517 1.380 . S
C516 H544 0.930 . S
C517 C516 1.380 . S
C517 C518 1.376 . S
C517 H545 0.930 . S
C518 C517 1.376 . S
C518 C519 1.370 . S
C519 C518 1.370 . S
C519 C520 1.396 . S
C519 H546 0.929 . S
C520 C515 1.373 . S
C520 C519 1.396 . S
C520 H547 0.929 . S
C521 O534 1.240 . S
C521 O535 1.289 . S
C522 O536 1.258 . S
C522 O537 1.256 . S
C523 La513 2.928 . S
C523 C524 1.503 . S
C523 O538 1.261 . S
C523 O539 1.243 . S
C524 C523 1.503 . S
C524 C525 1.394 . S
C524 C529 1.373 . S
C525 C524 1.394 . S
C525 C526 1.380 . S
C525 H548 0.930 . S
C526 C525 1.380 . S
C526 C527 1.376 . S
C526 H549 0.930 . S
C527 C526 1.376 . S
C527 C528 1.370 . S
C528 C527 1.370 . S
C528 C529 1.396 . S
C528 H550 0.929 . S
C529 C524 1.373 . S
C529 C528 1.396 . S
C529 H551 0.929 . S
C530 O540 1.240 . S
C530 O541 1.289 . S
C531 O542 1.258 . S
C531 O543 1.256 . S
O532 La512 2.521 . S
O532 C514 1.261 . S
O533 La512 2.628 . S
O533 C514 1.243 . S
O534 La512 2.554 . S
O534 C521 1.240 . S
O535 La512 2.757 . S
O535 La513 2.482 . S
O535 C521 1.289 . S
O536 La512 2.470 . S
O536 C522 1.258 . S
O537 La513 2.503 . S
O537 C522 1.256 . S
O538 La513 2.521 . S
O538 C523 1.261 . S
O539 La513 2.628 . S
O539 C523 1.243 . S
O540 La513 2.554 . S
O540 C530 1.240 . S
O541 La512 2.482 . S
O541 La513 2.757 . S
O541 C530 1.289 . S
O542 La513 2.470 . S
O542 C531 1.258 . S
O543 La512 2.503 . S
O543 C531 1.256 . S
H544 C516 0.930 . S
H545 C517 0.930 . S
H546 C519 0.929 . S
H547 C520 0.929 . S
H548 C525 0.930 . S
H549 C526 0.930 . S
H550 C528 0.929 . S
H551 C529 0.929 . S
La552 C554 2.928 . S
La552 O572 2.521 1_545 S
La552 O573 2.628 . S
La552 O574 2.554 1_545 S
La552 O575 2.757 1_554 S
La552 O576 2.470 1_545 S
La552 O581 2.482 . S
La552 O583 2.503 . S
La553 C563 2.928 . S
La553 O575 2.482 . S
La553 O577 2.503 . S
La553 O578 2.521 . S
La553 O579 2.628 . S
La553 O580 2.554 1_556 S
La553 O581 2.757 1_556 S
La553 O582 2.470 1_556 S
C554 La552 2.928 . S
C554 C555 1.503 1_545 S
C554 O572 1.261 1_545 S
C554 O573 1.243 . S
C555 C554 1.503 1_565 S
C555 C556 1.394 . S
C555 C560 1.373 1_565 S
C556 C555 1.394 . S
C556 C557 1.380 . S
C556 H584 0.930 . S
C557 C556 1.380 . S
C557 C558 1.376 . S
C557 H585 0.930 . S
C558 C557 1.376 . S
C558 C559 1.370 . S
C559 C558 1.370 . S
C559 C560 1.396 1_565 S
C559 H586 0.929 . S
C560 C555 1.373 1_545 S
C560 C559 1.396 1_545 S
C560 H587 0.929 . S
C561 O574 1.240 1_556 S
C561 O575 1.289 1_565 S
C562 O576 1.247 1_556 S
C562 O577 1.271 1_565 S
C563 La553 2.928 . S
C563 C564 1.503 . S
C563 O578 1.261 . S
C563 O579 1.243 . S
C564 C563 1.503 . S
C564 C565 1.394 . S
C564 C569 1.373 . S
C565 C564 1.394 . S
C565 C566 1.380 . S
C565 H588 0.930 . S
C566 C565 1.380 . S
C566 C567 1.376 . S
C566 H589 0.930 . S
C567 C566 1.376 . S
C567 C568 1.370 . S
C568 C567 1.370 . S
C568 C569 1.396 . S
C568 H590 0.929 . S
C569 C564 1.373 . S
C569 C568 1.396 . S
C569 H591 0.929 . S
C570 O580 1.240 . S
C570 O581 1.289 . S
C571 O582 1.258 . S
C571 O583 1.256 . S
O572 La552 2.521 1_565 S
O572 C554 1.261 1_565 S
O573 La552 2.628 . S
O573 C554 1.243 . S
O574 La552 2.554 1_565 S
O574 C561 1.240 1_554 S
O575 La552 2.757 1_556 S
O575 La553 2.482 . S
O575 C561 1.289 1_545 S
O576 La552 2.470 1_565 S
O576 C562 1.247 1_554 S
O577 La553 2.503 . S
O577 C562 1.271 1_545 S
O578 La553 2.521 . S
O578 C563 1.261 . S
O579 La553 2.628 . S
O579 C563 1.243 . S
O580 La553 2.554 1_554 S
O580 C570 1.240 . S
O581 La552 2.482 . S
O581 La553 2.757 1_554 S
O581 C570 1.289 . S
O582 La553 2.470 1_554 S
O582 C571 1.258 . S
O583 La552 2.503 . S
O583 C571 1.256 . S
H584 C556 0.930 . S
H585 C557 0.930 . S
H586 C559 0.929 . S
H587 C560 0.929 . S
H588 C565 0.930 . S
H589 C566 0.930 . S
H590 C568 0.929 . S
H591 C569 0.929 . S
La592 C594 2.928 . S
La592 O612 2.521 . S
La592 O613 2.628 . S
La592 O614 2.554 . S
La592 O615 2.757 . S
La592 O616 2.470 . S
La592 O621 2.482 . S
La592 O623 2.503 . S
La593 C603 2.928 . S
La593 O615 2.482 . S
La593 O617 2.503 . S
La593 O618 2.521 . S
La593 O619 2.628 . S
La593 O620 2.554 . S
La593 O621 2.757 . S
La593 O622 2.470 . S
C594 La592 2.928 . S
C594 C595 1.503 . S
C594 O612 1.261 . S
C594 O613 1.243 . S
C595 C594 1.503 . S
C595 C596 1.394 . S
C595 C600 1.373 . S
C596 C595 1.394 . S
C596 C597 1.380 . S
C596 H624 0.930 . S
C597 C596 1.380 . S
C597 C598 1.376 . S
C597 H625 0.930 . S
C598 C597 1.376 . S
C598 C599 1.370 . S
C599 C598 1.370 . S
C599 C600 1.396 . S
C599 H626 0.929 . S
C600 C595 1.373 . S
C600 C599 1.396 . S
C600 H627 0.929 . S
C601 O614 1.240 . S
C601 O615 1.289 . S
C602 O616 1.258 . S
C602 O617 1.256 . S
C603 La593 2.928 . S
C603 C604 1.503 . S
C603 O618 1.261 . S
C603 O619 1.243 . S
C604 C603 1.503 . S
C604 C605 1.394 . S
C604 C609 1.373 . S
C605 C604 1.394 . S
C605 C606 1.380 . S
C605 H628 0.930 . S
C606 C605 1.380 . S
C606 C607 1.376 . S
C606 H629 0.930 . S
C607 C606 1.376 . S
C607 C608 1.370 . S
C608 C607 1.370 . S
C608 C609 1.396 . S
C608 H630 0.929 . S
C609 C604 1.373 . S
C609 C608 1.396 . S
C609 H631 0.929 . S
C610 O620 1.240 . S
C610 O621 1.289 . S
C611 O622 1.258 . S
C611 O623 1.256 . S
O612 La592 2.521 . S
O612 C594 1.261 . S
O613 La592 2.628 . S
O613 C594 1.243 . S
O614 La592 2.554 . S
O614 C601 1.240 . S
O615 La592 2.757 . S
O615 La593 2.482 . S
O615 C601 1.289 . S
O616 La592 2.470 . S
O616 C602 1.258 . S
O617 La593 2.503 . S
O617 C602 1.256 . S
O618 La593 2.521 . S
O618 C603 1.261 . S
O619 La593 2.628 . S
O619 C603 1.243 . S
O620 La593 2.554 . S
O620 C610 1.240 . S
O621 La592 2.482 . S
O621 La593 2.757 . S
O621 C610 1.289 . S
O622 La593 2.470 . S
O622 C611 1.258 . S
O623 La592 2.503 . S
O623 C611 1.256 . S
H624 C596 0.930 . S
H625 C597 0.930 . S
H626 C599 0.929 . S
H627 C600 0.929 . S
H628 C605 0.930 . S
H629 C606 0.930 . S
H630 C608 0.929 . S
H631 C609 0.929 . S
La632 C634 2.928 . S
La632 O652 2.521 . S
La632 O653 2.628 . S
La632 O654 2.554 . S
La632 O655 2.757 . S
La632 O656 2.470 1_554 S
La632 O661 2.482 . S
La632 O663 2.503 . S
La633 C643 2.928 1_556 S
La633 O655 2.482 1_556 S
La633 O657 2.503 . S
La633 O658 2.521 . S
La633 O659 2.628 1_556 S
La633 O660 2.554 . S
La633 O661 2.757 1_556 S
La633 O662 2.470 1_556 S
C634 La632 2.928 . S
C634 C635 1.503 . S
C634 O652 1.261 . S
C634 O653 1.243 . S
C635 C634 1.503 . S
C635 C636 1.394 . S
C635 C640 1.373 1_554 S
C636 C635 1.394 . S
C636 C637 1.380 . S
C636 H664 0.930 . S
C637 C636 1.380 . S
C637 C638 1.376 1_554 S
C637 H665 0.930 . S
C638 C637 1.376 1_556 S
C638 C639 1.370 . S
C639 C638 1.370 . S
C639 C640 1.396 . S
C639 H666 0.929 . S
C640 C635 1.373 1_556 S
C640 C639 1.396 . S
C640 H667 0.929 . S
C641 O654 1.240 . S
C641 O655 1.289 . S
C642 O656 1.258 . S
C642 O657 1.256 . S
C643 La633 2.928 1_554 S
C643 C644 1.503 . S
C643 O658 1.261 1_554 S
C643 O659 1.243 . S
C644 C643 1.503 . S
C644 C645 1.394 . S
C644 C649 1.373 . S
C645 C644 1.394 . S
C645 C646 1.380 . S
C645 H668 0.918 1_554 S
C646 C645 1.380 . S
C646 C647 1.376 . S
C646 H669 0.930 . S
C647 C646 1.376 . S
C647 C648 1.370 . S
C648 C647 1.370 . S
C648 C649 1.396 . S
C648 H670 0.929 . S
C649 C644 1.373 . S
C649 C648 1.396 . S
C649 H671 0.929 . S
C650 O660 1.240 1_554 S
C650 O661 1.289 . S
C651 O662 1.258 . S
C651 O663 1.256 . S
O652 La632 2.521 . S
O652 C634 1.261 . S
O653 La632 2.628 . S
O653 C634 1.243 . S
O654 La632 2.554 . S
O654 C641 1.240 . S
O655 La632 2.757 . S
O655 La633 2.482 1_554 S
O655 C641 1.289 . S
O656 La632 2.470 1_556 S
O656 C642 1.258 . S
O657 La633 2.503 . S
O657 C642 1.256 . S
O658 La633 2.521 . S
O658 C643 1.261 1_556 S
O659 La633 2.628 1_554 S
O659 C643 1.243 . S
O660 La633 2.554 . S
O660 C650 1.240 1_556 S
O661 La632 2.482 . S
O661 La633 2.757 1_554 S
O661 C650 1.289 . S
O662 La633 2.470 1_554 S
O662 C651 1.258 . S
O663 La632 2.503 . S
O663 C651 1.256 . S
H664 C636 0.930 . S
H665 C637 0.930 . S
H666 C639 0.929 . S
H667 C640 0.929 . S
H668 C645 0.918 1_556 S
H669 C646 0.930 . S
H670 C648 0.929 . S
H671 C649 0.929 . S
La672 C674 2.928 . S
La672 O692 2.521 . S
La672 O693 2.628 . S
La672 O694 2.554 . S
La672 O695 2.757 . S
La672 O696 2.470 . S
La672 O701 2.482 . S
La672 O703 2.503 . S
La673 C683 2.928 . S
La673 O695 2.482 . S
La673 O697 2.503 . S
La673 O698 2.521 . S
La673 O699 2.628 . S
La673 O700 2.554 . S
La673 O701 2.757 . S
La673 O702 2.470 . S
C674 La672 2.928 . S
C674 C675 1.503 1_655 S
C674 O692 1.261 . S
C674 O693 1.243 . S
C675 C674 1.503 1_455 S
C675 C676 1.394 . S
C675 C680 1.373 . S
C676 C675 1.394 . S
C676 C677 1.380 . S
C676 H704 0.930 . S
C677 C676 1.380 . S
C677 C678 1.376 . S
C677 H705 0.930 . S
C678 C677 1.376 . S
C678 C679 1.370 . S
C679 C678 1.370 . S
C679 C680 1.396 . S
C679 H706 0.929 . S
C680 C675 1.373 . S
C680 C679 1.396 . S
C680 H707 0.929 . S
C681 O694 1.240 . S
C681 O695 1.289 . S
C682 O696 1.258 . S
C682 O697 1.256 . S
C683 La673 2.928 . S
C683 C684 1.503 . S
C683 O698 1.261 . S
C683 O699 1.243 . S
C684 C683 1.503 . S
C684 C685 1.394 . S
C684 C689 1.373 . S
C685 C684 1.394 . S
C685 C686 1.380 . S
C685 H708 0.930 . S
C686 C685 1.380 . S
C686 C687 1.376 . S
C686 H709 0.930 . S
C687 C686 1.376 . S
C687 C688 1.370 . S
C688 C687 1.370 . S
C688 C689 1.396 . S
C688 H710 0.929 . S
C689 C684 1.373 . S
C689 C688 1.396 . S
C689 H711 0.929 . S
C690 O700 1.240 . S
C690 O701 1.289 . S
C691 O702 1.258 . S
C691 O703 1.256 . S
O692 La672 2.521 . S
O692 C674 1.261 . S
O693 La672 2.628 . S
O693 C674 1.243 . S
O694 La672 2.554 . S
O694 C681 1.240 . S
O695 La672 2.757 . S
O695 La673 2.482 . S
O695 C681 1.289 . S
O696 La672 2.470 . S
O696 C682 1.258 . S
O697 La673 2.503 . S
O697 C682 1.256 . S
O698 La673 2.521 . S
O698 C683 1.261 . S
O699 La673 2.628 . S
O699 C683 1.243 . S
O700 La673 2.554 . S
O700 C690 1.240 . S
O701 La672 2.482 . S
O701 La673 2.757 . S
O701 C690 1.289 . S
O702 La673 2.470 . S
O702 C691 1.258 . S
O703 La672 2.503 . S
O703 C691 1.256 . S
H704 C676 0.930 . S
H705 C677 0.930 . S
H706 C679 0.929 . S
H707 C680 0.929 . S
H708 C685 0.930 . S
H709 C686 0.930 . S
H710 C688 0.929 . S
H711 C689 0.929 . S
La712 C714 2.928 . S
La712 O732 2.521 . S
La712 O733 2.628 . S
La712 O734 2.554 . S
La712 O735 2.757 . S
La712 O736 2.470 . S
La712 O741 2.482 . S
La712 O743 2.503 . S
La713 C723 2.928 . S
La713 O735 2.482 . S
La713 O737 2.503 . S
La713 O738 2.521 . S
La713 O739 2.628 . S
La713 O740 2.554 . S
La713 O741 2.757 . S
La713 O742 2.470 . S
C714 La712 2.928 . S
C714 C715 1.503 . S
C714 O732 1.261 . S
C714 O733 1.243 . S
C715 C714 1.503 . S
C715 C716 1.394 . S
C715 C720 1.373 . S
C716 C715 1.394 . S
C716 C717 1.380 . S
C716 H744 0.930 . S
C717 C716 1.380 . S
C717 C718 1.376 1_455 S
C717 H745 0.930 . S
C718 C717 1.376 1_655 S
C718 C719 1.370 . S
C719 C718 1.370 . S
C719 C720 1.396 1_655 S
C719 H746 0.929 . S
C720 C715 1.373 . S
C720 C719 1.396 1_455 S
C720 H747 0.929 . S
C721 O734 1.240 . S
C721 O735 1.289 . S
C722 O736 1.258 . S
C722 O737 1.256 . S
C723 La713 2.928 . S
C723 C724 1.503 . S
C723 O738 1.261 . S
C723 O739 1.243 . S
C724 C723 1.503 . S
C724 C725 1.394 . S
C724 C729 1.373 . S
C725 C724 1.394 . S
C725 C726 1.380 . S
C725 H748 0.930 . S
C726 C725 1.380 . S
C726 C727 1.376 . S
C726 H749 0.930 . S
C727 C726 1.376 . S
C727 C728 1.370 . S
C728 C727 1.370 . S
C728 C729 1.396 . S
C728 H750 0.929 . S
C729 C724 1.373 . S
C729 C728 1.396 . S
C729 H751 0.929 . S
C730 O740 1.240 . S
C730 O741 1.289 . S
C731 O742 1.258 . S
C731 O743 1.256 . S
O732 La712 2.521 . S
O732 C714 1.261 . S
O733 La712 2.628 . S
O733 C714 1.243 . S
O734 La712 2.554 . S
O734 C721 1.240 . S
O735 La712 2.757 . S
O735 La713 2.482 . S
O735 C721 1.289 . S
O736 La712 2.470 . S
O736 C722 1.258 . S
O737 La713 2.503 . S
O737 C722 1.256 . S
O738 La713 2.521 . S
O738 C723 1.261 . S
O739 La713 2.628 . S
O739 C723 1.243 . S
O740 La713 2.554 . S
O740 C730 1.240 . S
O741 La712 2.482 . S
O741 La713 2.757 . S
O741 C730 1.289 . S
O742 La713 2.470 . S
O742 C731 1.258 . S
O743 La712 2.503 . S
O743 C731 1.256 . S
H744 C716 0.930 . S
H745 C717 0.930 . S
H746 C719 0.929 . S
H747 C720 0.929 . S
H748 C725 0.930 . S
H749 C726 0.930 . S
H750 C728 0.929 . S
H751 C729 0.929 . S
La752 C754 2.928 . S
La752 O772 2.521 . S
La752 O773 2.628 . S
La752 O774 2.554 . S
La752 O775 2.757 . S
La752 O776 2.470 . S
La752 O781 2.482 . S
La752 O783 2.503 . S
La753 C763 2.928 . S
La753 O775 2.482 . S
La753 O777 2.503 . S
La753 O778 2.521 . S
La753 O779 2.628 . S
La753 O780 2.554 . S
La753 O781 2.757 . S
La753 O782 2.470 . S
C754 La752 2.928 . S
C754 C755 1.503 . S
C754 O772 1.261 . S
C754 O773 1.243 . S
C755 C754 1.503 . S
C755 C756 1.394 . S
C755 C760 1.373 . S
C756 C755 1.394 . S
C756 C757 1.380 . S
C756 H784 0.930 . S
C757 C756 1.380 . S
C757 C758 1.376 . S
C757 H785 0.930 . S
C758 C757 1.376 . S
C758 C759 1.370 . S
C759 C758 1.370 . S
C759 C760 1.396 . S
C759 H786 0.929 . S
C760 C755 1.373 . S
C760 C759 1.396 . S
C760 H787 0.929 . S
C761 O774 1.240 . S
C761 O775 1.289 . S
C762 O776 1.258 . S
C762 O777 1.256 . S
C763 La753 2.928 . S
C763 C764 1.503 . S
C763 O778 1.261 . S
C763 O779 1.243 . S
C764 C763 1.503 . S
C764 C765 1.394 1_655 S
C764 C769 1.373 1_655 S
C765 C764 1.394 1_455 S
C765 C766 1.380 . S
C765 H788 0.930 1_455 S
C766 C765 1.380 . S
C766 C767 1.376 . S
C766 H789 0.930 . S
C767 C766 1.376 . S
C767 C768 1.370 . S
C768 C767 1.370 . S
C768 C769 1.396 . S
C768 H790 0.929 . S
C769 C764 1.373 1_455 S
C769 C768 1.396 . S
C769 H791 0.936 . S
C770 O780 1.240 . S
C770 O781 1.289 . S
C771 O782 1.258 . S
C771 O783 1.256 . S
O772 La752 2.521 . S
O772 C754 1.261 . S
O773 La752 2.628 . S
O773 C754 1.243 . S
O774 La752 2.554 . S
O774 C761 1.240 . S
O775 La752 2.757 . S
O775 La753 2.482 . S
O775 C761 1.289 . S
O776 La752 2.470 . S
O776 C762 1.258 . S
O777 La753 2.503 . S
O777 C762 1.256 . S
O778 La753 2.521 . S
O778 C763 1.261 . S
O779 La753 2.628 . S
O779 C763 1.243 . S
O780 La753 2.554 . S
O780 C770 1.240 . S
O781 La752 2.482 . S
O781 La753 2.757 . S
O781 C770 1.289 . S
O782 La753 2.470 . S
O782 C771 1.258 . S
O783 La752 2.503 . S
O783 C771 1.256 . S
H784 C756 0.930 . S
H785 C757 0.930 . S
H786 C759 0.929 . S
H787 C760 0.929 . S
H788 C765 0.930 1_655 S
H789 C766 0.930 . S
H790 C768 0.929 . S
H791 C769 0.936 . S
La792 C794 2.928 . S
La792 O812 2.521 . S
La792 O813 2.628 . S
La792 O814 2.554 . S
La792 O815 2.757 . S
La792 O816 2.470 . S
La792 O821 2.482 . S
La792 O823 2.503 . S
La793 C803 2.928 . S
La793 O815 2.482 . S
La793 O817 2.503 . S
La793 O818 2.521 . S
La793 O819 2.628 . S
La793 O820 2.554 . S
La793 O821 2.757 . S
La793 O822 2.470 . S
C794 La792 2.928 . S
C794 C795 1.503 . S
C794 O812 1.261 . S
C794 O813 1.243 . S
C795 C794 1.503 . S
C795 C796 1.394 . S
C795 C800 1.373 . S
C796 C795 1.394 . S
C796 C797 1.380 . S
C796 H824 0.930 . S
C797 C796 1.380 . S
C797 C798 1.376 . S
C797 H825 0.930 1_655 S
C798 C797 1.376 . S
C798 C799 1.370 . S
C799 C798 1.370 . S
C799 C800 1.396 . S
C799 H826 0.929 . S
C800 C795 1.373 . S
C800 C799 1.396 . S
C800 H827 0.929 . S
C801 O814 1.240 . S
C801 O815 1.289 . S
C802 O816 1.258 . S
C802 O817 1.256 . S
C803 La793 2.928 . S
C803 C804 1.503 . S
C803 O818 1.261 . S
C803 O819 1.243 . S
C804 C803 1.503 . S
C804 C805 1.394 . S
C804 C809 1.373 . S
C805 C804 1.394 . S
C805 C806 1.380 . S
C805 H828 0.930 . S
C806 C805 1.380 . S
C806 C807 1.376 . S
C806 H829 0.930 . S
C807 C806 1.376 . S
C807 C808 1.370 . S
C808 C807 1.370 . S
C808 C809 1.396 . S
C808 H830 0.929 . S
C809 C804 1.373 . S
C809 C808 1.396 . S
C809 H831 0.929 . S
C810 O820 1.240 . S
C810 O821 1.289 . S
C811 O822 1.258 . S
C811 O823 1.256 . S
O812 La792 2.521 . S
O812 C794 1.261 . S
O813 La792 2.628 . S
O813 C794 1.243 . S
O814 La792 2.554 . S
O814 C801 1.240 . S
O815 La792 2.757 . S
O815 La793 2.482 . S
O815 C801 1.289 . S
O816 La792 2.470 . S
O816 C802 1.258 . S
O817 La793 2.503 . S
O817 C802 1.256 . S
O818 La793 2.521 . S
O818 C803 1.261 . S
O819 La793 2.628 . S
O819 C803 1.243 . S
O820 La793 2.554 . S
O820 C810 1.240 . S
O821 La792 2.482 . S
O821 La793 2.757 . S
O821 C810 1.289 . S
O822 La793 2.470 . S
O822 C811 1.258 . S
O823 La792 2.503 . S
O823 C811 1.256 . S
H824 C796 0.930 . S
H825 C797 0.930 1_455 S
H826 C799 0.929 . S
H827 C800 0.929 . S
H828 C805 0.930 . S
H829 C806 0.930 . S
H830 C808 0.929 . S
H831 C809 0.929 . S
La832 C834 2.928 . S
La832 O852 2.521 . S
La832 O853 2.628 . S
La832 O854 2.554 . S
La832 O855 2.757 . S
La832 O856 2.470 . S
La832 O861 2.482 . S
La832 O863 2.503 . S
La833 C843 2.928 . S
La833 O855 2.482 . S
La833 O857 2.503 . S
La833 O858 2.521 . S
La833 O859 2.628 . S
La833 O860 2.554 . S
La833 O861 2.757 . S
La833 O862 2.470 . S
C834 La832 2.928 . S
C834 C835 1.503 1_565 S
C834 O852 1.261 . S
C834 O853 1.243 . S
C835 C834 1.503 1_545 S
C835 C836 1.394 . S
C835 C840 1.373 . S
C836 C835 1.394 . S
C836 C837 1.380 . S
C836 H864 0.930 . S
C837 C836 1.380 . S
C837 C838 1.376 . S
C837 H865 0.930 . S
C838 C837 1.376 . S
C838 C839 1.370 . S
C839 C838 1.370 . S
C839 C840 1.396 . S
C839 H866 0.929 . S
C840 C835 1.373 . S
C840 C839 1.396 . S
C840 H867 0.929 . S
C841 O854 1.240 . S
C841 O855 1.289 . S
C842 O856 1.258 . S
C842 O857 1.256 . S
C843 La833 2.928 . S
C843 C844 1.503 . S
C843 O858 1.261 . S
C843 O859 1.243 . S
C844 C843 1.503 . S
C844 C845 1.394 . S
C844 C849 1.373 . S
C845 C844 1.394 . S
C845 C846 1.380 . S
C845 H868 0.930 . S
C846 C845 1.380 . S
C846 C847 1.376 . S
C846 H869 0.930 . S
C847 C846 1.376 . S
C847 C848 1.370 . S
C848 C847 1.370 . S
C848 C849 1.396 . S
C848 H870 0.929 . S
C849 C844 1.373 . S
C849 C848 1.396 . S
C849 H871 0.929 . S
C850 O860 1.240 . S
C850 O861 1.289 . S
C851 O862 1.258 . S
C851 O863 1.256 . S
O852 La832 2.521 . S
O852 C834 1.261 . S
O853 La832 2.628 . S
O853 C834 1.243 . S
O854 La832 2.554 . S
O854 C841 1.240 . S
O855 La832 2.757 . S
O855 La833 2.482 . S
O855 C841 1.289 . S
O856 La832 2.470 . S
O856 C842 1.258 . S
O857 La833 2.503 . S
O857 C842 1.256 . S
O858 La833 2.521 . S
O858 C843 1.261 . S
O859 La833 2.628 . S
O859 C843 1.243 . S
O860 La833 2.554 . S
O860 C850 1.240 . S
O861 La832 2.482 . S
O861 La833 2.757 . S
O861 C850 1.289 . S
O862 La833 2.470 . S
O862 C851 1.258 . S
O863 La832 2.503 . S
O863 C851 1.256 . S
H864 C836 0.930 . S
H865 C837 0.930 . S
H866 C839 0.929 . S
H867 C840 0.929 . S
H868 C845 0.930 . S
H869 C846 0.930 . S
H870 C848 0.929 . S
H871 C849 0.929 . S
La872 C874 2.928 . S
La872 O892 2.521 . S
La872 O893 2.628 . S
La872 O894 2.554 . S
La872 O895 2.757 . S
La872 O896 2.470 . S
La872 O901 2.482 . S
La872 O903 2.503 . S
La873 C883 2.928 . S
La873 O895 2.482 . S
La873 O897 2.503 . S
La873 O898 2.521 . S
La873 O899 2.628 . S
La873 O900 2.554 . S
La873 O901 2.757 . S
La873 O902 2.470 . S
C874 La872 2.928 . S
C874 C875 1.503 . S
C874 O892 1.261 . S
C874 O893 1.243 . S
C875 C874 1.503 . S
C875 C876 1.394 . S
C875 C880 1.373 . S
C876 C875 1.394 . S
C876 C877 1.380 . S
C876 H904 0.930 . S
C877 C876 1.380 . S
C877 C878 1.376 . S
C877 H905 0.930 . S
C878 C877 1.376 . S
C878 C879 1.370 . S
C879 C878 1.370 . S
C879 C880 1.396 . S
C879 H906 0.929 . S
C880 C875 1.373 . S
C880 C879 1.396 . S
C880 H907 0.929 . S
C881 O894 1.240 . S
C881 O895 1.289 . S
C882 O896 1.258 . S
C882 O897 1.256 . S
C883 La873 2.928 . S
C883 C884 1.503 . S
C883 O898 1.261 . S
C883 O899 1.243 . S
C884 C883 1.503 . S
C884 C885 1.394 . S
C884 C889 1.373 . S
C885 C884 1.394 . S
C885 C886 1.380 . S
C885 H908 0.930 . S
C886 C885 1.380 . S
C886 C887 1.376 . S
C886 H909 0.930 . S
C887 C886 1.376 . S
C887 C888 1.370 . S
C888 C887 1.370 . S
C888 C889 1.396 . S
C888 H910 0.929 . S
C889 C884 1.373 . S
C889 C888 1.396 . S
C889 H911 0.929 . S
C890 O900 1.240 . S
C890 O901 1.289 . S
C891 O902 1.258 . S
C891 O903 1.256 . S
O892 La872 2.521 . S
O892 C874 1.261 . S
O893 La872 2.628 . S
O893 C874 1.243 . S
O894 La872 2.554 . S
O894 C881 1.240 . S
O895 La872 2.757 . S
O895 La873 2.482 . S
O895 C881 1.289 . S
O896 La872 2.470 . S
O896 C882 1.258 . S
O897 La873 2.503 . S
O897 C882 1.256 . S
O898 La873 2.521 . S
O898 C883 1.261 . S
O899 La873 2.628 . S
O899 C883 1.243 . S
O900 La873 2.554 . S
O900 C890 1.240 . S
O901 La872 2.482 . S
O901 La873 2.757 . S
O901 C890 1.289 . S
O902 La873 2.470 . S
O902 C891 1.258 . S
O903 La872 2.503 . S
O903 C891 1.256 . S
H904 C876 0.930 . S
H905 C877 0.930 . S
H906 C879 0.929 . S
H907 C880 0.929 . S
H908 C885 0.930 . S
H909 C886 0.930 . S
H910 C888 0.929 . S
H911 C889 0.929 . S
La912 C914 2.928 . S
La912 O932 2.521 . S
La912 O933 2.628 1_556 S
La912 O934 2.554 . S
La912 O935 2.757 . S
La912 O936 2.470 . S
La912 O941 2.482 1_556 S
La912 O943 2.503 1_556 S
La913 C923 2.928 . S
La913 O935 2.482 1_554 S
La913 O937 2.503 . S
La913 O938 2.521 . S
La913 O939 2.628 . S
La913 O940 2.554 . S
La913 O941 2.757 . S
La913 O942 2.470 . S
C914 La912 2.928 . S
C914 C915 1.503 . S
C914 O932 1.261 . S
C914 O933 1.243 1_556 S
C915 C914 1.503 . S
C915 C916 1.394 . S
C915 C920 1.368 1_556 S
C916 C915 1.394 . S
C916 C917 1.380 . S
C916 H944 0.930 . S
C917 C916 1.380 . S
C917 C918 1.376 . S
C917 H945 0.930 . S
C918 C917 1.376 . S
C918 C919 1.370 . S
C919 C918 1.370 . S
C919 C920 1.395 1_556 S
C919 H946 0.929 1_556 S
C920 C915 1.368 1_554 S
C920 C919 1.395 1_554 S
C920 H947 0.936 . S
C921 O934 1.240 . S
C921 O935 1.289 . S
C922 O936 1.258 1_554 S
C922 O937 1.256 . S
C923 La913 2.928 . S
C923 C924 1.503 1_455 S
C923 O938 1.261 . S
C923 O939 1.243 . S
C924 C923 1.503 1_655 S
C924 C925 1.394 . S
C924 C929 1.373 . S
C925 C924 1.394 . S
C925 C926 1.380 . S
C925 H948 0.930 . S
C926 C925 1.380 . S
C926 C927 1.376 . S
C926 H949 0.930 . S
C927 C926 1.376 . S
C927 C928 1.370 . S
C928 C927 1.370 . S
C928 C929 1.396 . S
C928 H950 0.929 . S
C929 C924 1.373 . S
C929 C928 1.396 . S
C929 H951 0.929 . S
C930 O940 1.240 . S
C930 O941 1.289 . S
C931 O942 1.258 . S
C931 O943 1.256 . S
O932 La912 2.521 . S
O932 C914 1.261 . S
O933 La912 2.628 1_554 S
O933 C914 1.243 1_554 S
O934 La912 2.554 . S
O934 C921 1.240 . S
O935 La912 2.757 . S
O935 La913 2.482 1_556 S
O935 C921 1.289 . S
O936 La912 2.470 . S
O936 C922 1.258 1_556 S
O937 La913 2.503 . S
O937 C922 1.256 . S
O938 La913 2.521 . S
O938 C923 1.261 . S
O939 La913 2.628 . S
O939 C923 1.243 . S
O940 La913 2.554 . S
O940 C930 1.240 . S
O941 La912 2.482 1_554 S
O941 La913 2.757 . S
O941 C930 1.289 . S
O942 La913 2.470 . S
O942 C931 1.258 . S
O943 La912 2.503 1_554 S
O943 C931 1.256 . S
H944 C916 0.930 . S
H945 C917 0.930 . S
H946 C919 0.929 1_554 S
H947 C920 0.936 . S
H948 C925 0.930 . S
H949 C926 0.930 . S
H950 C928 0.929 . S
H951 C929 0.929 . S
C101 C322 3.753 . S
C57 C370 3.263 . S
C73 C402 2.074 . S
C447 C78 1.696 . S
C21 C487 3.229 . S
C518 C31 1.452 . S
C570 C49 3.428 . S
C0 C602 3.286 . S
C330 C218 3.757 . S
C229 C367 1.394 . S
C410 C257 0.961 . S
C442 C164 2.269 . S
C216 C482 2.732 . S
C521 C231 1.954 . S
C567 C255 0.751 . S
C610 C166 3.411 . S
C327 C143 3.240 . S
C265 C650 2.654 1_556 S
C691 C299 3.816 . S
C722 C291 2.090 . S
C104 C607 4.573 . S
C117 C407 2.626 . S
C304 C770 2.853 . S
C802 C278 1.279 . S
C331 C60 3.743 . S
C801 C96 3.340 . S
C88 C411 1.985 . S
C65 C758 2.038 . S
C478 C10 3.443 . S
C44 C687 1.733 . S
C561 C34 3.354 1_565 S
C851 C13 3.810 . S
C321 C138 3.776 . S
C798 C296 1.826 . S
C112 C401 1.408 . S
C270 C771 2.336 . S
C140 C491 2.862 . S
C690 C294 2.256 . S
C114 C558 1.446 . S
C268 C841 3.582 . S
C169 C318 3.708 1_554 S
C161 C641 2.749 . S
C234 C522 3.815 . S
C226 C731 1.515 . S
C838 C247 5.171 . S
C195 C398 3.228 . S
C441 C239 2.921 . S
C371 C187 1.752 . S
C75 C882 3.751 . S
C810 C83 3.255 . S
C99 C922 2.067 . S
C52 C767 1.692 . S
C47 C647 3.225 . S
C678 C5 1.461 . S
C730 C23 3.435 1_455 S
C842 C26 3.291 . S
C890 C244 3.755 . S
C177 C807 1.380 . S
C930 C192 0.971 . S
C762 C203 2.271 . S
C642 C242 2.732 . S
C179 C681 1.955 . S
C727 C190 0.756 . S
C205 C850 3.420 . S
C887 C286 3.216 . S
C122 C490 2.655 . S
C531 C130 3.822 . S
C562 C148 1.998 1_566 S
C847 C273 4.543 . S
C260 C927 2.609 . S
C450 C135 2.854 . S
C362 C109 1.287 . S
C86 C891 3.746 . S
C361 C70 3.328 . S
C62 C931 1.989 . S
C91 C438 2.031 . S
C36 C638 3.443 . S
C527 C18 1.736 . S
C8 C721 3.372 . S
C39 C611 3.819 . S
C881 C307 3.776 . S
C153 C358 1.805 . S
C921 C281 1.446 . S
C127 C451 2.340 . S
C309 C651 2.861 . S
C530 C151 2.202 . S
C283 C718 1.385 1_455 S
C601 C125 3.599 . S
C878 C221 3.704 . S
C481 C200 2.753 1_445 S
C208 C682 3.825 . S
C571 C174 1.510 . S
C182 C598 5.172 . S
C156 C918 3.225 1_554 S
C761 C213 2.922 . S
C811 C252 1.756 . S
