# Generated by pormake.
# Topology ocu, (6,8)-cn, num edge types: 1
# Building blocks:
#     Node 0, Type 0, BuildingBlock: KUMJIN_clean_sbu_1, # of connection points: 6
#     Node 1, Type 0, BuildingBlock: KUMJIN_clean_sbu_1, # of connection points: 6
#     Node 2, Type 0, BuildingBlock: KUMJIN_clean_sbu_1, # of connection points: 6
#     Node 3, Type 0, BuildingBlock: KUMJIN_clean_sbu_1, # of connection points: 6
#     Node 4, Type 0, BuildingBlock: KUMJIN_clean_sbu_1, # of connection points: 6
#     Node 5, Type 0, BuildingBlock: KUMJIN_clean_sbu_1, # of connection points: 6
#     Node 6, Type 0, BuildingBlock: KUMJIN_clean_sbu_1, # of connection points: 6
#     Node 7, Type 0, BuildingBlock: KUMJIN_clean_sbu_1, # of connection points: 6
#     Node 8, Type 1, BuildingBlock: GIZVER_clean_sbu_0, # of connection points: 8
#     Node 9, Type 1, BuildingBlock: GIZVER_clean_sbu_0, # of connection points: 8
#     Node 10, Type 1, BuildingBlock: GIZVER_clean_sbu_0, # of connection points: 8
#     Node 11, Type 1, BuildingBlock: GIZVER_clean_sbu_0, # of connection points: 8
#     Node 12, Type 1, BuildingBlock: GIZVER_clean_sbu_0, # of connection points: 8
#     Node 13, Type 1, BuildingBlock: GIZVER_clean_sbu_0, # of connection points: 8
#     Edge 14, Type (0, 1), BuildingBlock: MIFKUJ_clean_linker_0, # of connection points: 2
#     Edge 15, Type (0, 1), BuildingBlock: MIFKUJ_clean_linker_0, # of connection points: 2
#     Edge 16, Type (0, 1), BuildingBlock: MIFKUJ_clean_linker_0, # of connection points: 2
#     Edge 17, Type (0, 1), BuildingBlock: MIFKUJ_clean_linker_0, # of connection points: 2
#     Edge 18, Type (0, 1), BuildingBlock: MIFKUJ_clean_linker_0, # of connection points: 2
#     Edge 19, Type (0, 1), BuildingBlock: MIFKUJ_clean_linker_0, # of connection points: 2
#     Edge 20, Type (0, 1), BuildingBlock: MIFKUJ_clean_linker_0, # of connection points: 2
#     Edge 21, Type (0, 1), BuildingBlock: MIFKUJ_clean_linker_0, # of connection points: 2
#     Edge 22, Type (0, 1), BuildingBlock: MIFKUJ_clean_linker_0, # of connection points: 2
#     Edge 23, Type (0, 1), BuildingBlock: MIFKUJ_clean_linker_0, # of connection points: 2
#     Edge 24, Type (0, 1), BuildingBlock: MIFKUJ_clean_linker_0, # of connection points: 2
#     Edge 25, Type (0, 1), BuildingBlock: MIFKUJ_clean_linker_0, # of connection points: 2
#     Edge 26, Type (0, 1), BuildingBlock: MIFKUJ_clean_linker_0, # of connection points: 2
#     Edge 27, Type (0, 1), BuildingBlock: MIFKUJ_clean_linker_0, # of connection points: 2
#     Edge 28, Type (0, 1), BuildingBlock: MIFKUJ_clean_linker_0, # of connection points: 2
#     Edge 29, Type (0, 1), BuildingBlock: MIFKUJ_clean_linker_0, # of connection points: 2
#     Edge 30, Type (0, 1), BuildingBlock: MIFKUJ_clean_linker_0, # of connection points: 2
#     Edge 31, Type (0, 1), BuildingBlock: MIFKUJ_clean_linker_0, # of connection points: 2
#     Edge 32, Type (0, 1), BuildingBlock: MIFKUJ_clean_linker_0, # of connection points: 2
#     Edge 33, Type (0, 1), BuildingBlock: MIFKUJ_clean_linker_0, # of connection points: 2
#     Edge 34, Type (0, 1), BuildingBlock: MIFKUJ_clean_linker_0, # of connection points: 2
#     Edge 35, Type (0, 1), BuildingBlock: MIFKUJ_clean_linker_0, # of connection points: 2
#     Edge 36, Type (0, 1), BuildingBlock: MIFKUJ_clean_linker_0, # of connection points: 2
#     Edge 37, Type (0, 1), BuildingBlock: MIFKUJ_clean_linker_0, # of connection points: 2
#     Edge 38, Type (0, 1), BuildingBlock: MIFKUJ_clean_linker_0, # of connection points: 2
#     Edge 39, Type (0, 1), BuildingBlock: MIFKUJ_clean_linker_0, # of connection points: 2
#     Edge 40, Type (0, 1), BuildingBlock: MIFKUJ_clean_linker_0, # of connection points: 2
#     Edge 41, Type (0, 1), BuildingBlock: MIFKUJ_clean_linker_0, # of connection points: 2
#     Edge 42, Type (0, 1), BuildingBlock: MIFKUJ_clean_linker_0, # of connection points: 2
#     Edge 43, Type (0, 1), BuildingBlock: MIFKUJ_clean_linker_0, # of connection points: 2
#     Edge 44, Type (0, 1), BuildingBlock: MIFKUJ_clean_linker_0, # of connection points: 2
#     Edge 45, Type (0, 1), BuildingBlock: MIFKUJ_clean_linker_0, # of connection points: 2
#     Edge 46, Type (0, 1), BuildingBlock: MIFKUJ_clean_linker_0, # of connection points: 2
#     Edge 47, Type (0, 1), BuildingBlock: MIFKUJ_clean_linker_0, # of connection points: 2
#     Edge 48, Type (0, 1), BuildingBlock: MIFKUJ_clean_linker_0, # of connection points: 2
#     Edge 49, Type (0, 1), BuildingBlock: MIFKUJ_clean_linker_0, # of connection points: 2
#     Edge 50, Type (0, 1), BuildingBlock: MIFKUJ_clean_linker_0, # of connection points: 2
#     Edge 51, Type (0, 1), BuildingBlock: MIFKUJ_clean_linker_0, # of connection points: 2
#     Edge 52, Type (0, 1), BuildingBlock: MIFKUJ_clean_linker_0, # of connection points: 2
#     Edge 53, Type (0, 1), BuildingBlock: MIFKUJ_clean_linker_0, # of connection points: 2
#     Edge 54, Type (0, 1), BuildingBlock: MIFKUJ_clean_linker_0, # of connection points: 2
#     Edge 55, Type (0, 1), BuildingBlock: MIFKUJ_clean_linker_0, # of connection points: 2
#     Edge 56, Type (0, 1), BuildingBlock: MIFKUJ_clean_linker_0, # of connection points: 2
#     Edge 57, Type (0, 1), BuildingBlock: MIFKUJ_clean_linker_0, # of connection points: 2
#     Edge 58, Type (0, 1), BuildingBlock: MIFKUJ_clean_linker_0, # of connection points: 2
#     Edge 59, Type (0, 1), BuildingBlock: MIFKUJ_clean_linker_0, # of connection points: 2
#     Edge 60, Type (0, 1), BuildingBlock: MIFKUJ_clean_linker_0, # of connection points: 2
#     Edge 61, Type (0, 1), BuildingBlock: MIFKUJ_clean_linker_0, # of connection points: 2
# Relax obj value: 0.149
# Max RMSD: 0.214
# Mean RMSD: 0.171
data_MOF--net-ocu--node1-KUMJIN_clean_sbu_1--node2-GIZVER_clean_sbu_0--edge1-MIFKUJ_clean_linker_0
_symmetry_space_group_name_H-M    P1
_symmetry_Int_Tables_number       1
_symmetry_cell_setting            triclinic
loop_
_symmetry_equiv_pos_as_xyz
'x, y, z'
_cell_length_a     53.765434
_cell_length_b     56.30968
_cell_length_c     43.449655
_cell_angle_alpha  98.639537
_cell_angle_beta   81.621348
_cell_angle_gamma 107.70844
loop_
_atom_site_label
_atom_site_type_symbol
_atom_site_fract_x
_atom_site_fract_y
_atom_site_fract_z
_atom_type_partial_charge
Eu0 Eu 0.25074 0.25107 0.21767 0.0
C1 C 0.31678 0.32044 0.32542 0.0
N2 N 0.32526 0.30902 0.29781 0.0
C3 C 0.36249 0.34502 0.2911 0.0
C4 C 0.33093 0.34486 0.33689 0.0
C5 C 0.34802 0.32065 0.28091 0.0
C6 C 0.35387 0.35723 0.31916 0.0
C7 C 0.28533 0.31841 0.37188 0.0
C8 C 0.29412 0.30745 0.34264 0.0
C9 C 0.29927 0.34281 0.38326 0.0
C10 C 0.32195 0.35602 0.36577 0.0
Eu11 Eu 0.29943 0.26801 0.28281 0.0
N12 N 0.2808 0.28396 0.33085 0.0
C13 C 0.26294 0.30437 0.38895 0.0
C14 C 0.25964 0.26983 0.34789 0.0
C15 C 0.25018 0.2799 0.37701 0.0
H16 H 0.35534 0.31096 0.25987 0.0
H17 H 0.23322 0.2687 0.39036 0.0
H18 H 0.20215 0.2001 0.23835 0.0
H19 H 0.32282 0.26329 0.11446 0.0
H20 H 0.25025 0.25072 0.33924 0.0
H21 H 0.2556 0.31209 0.41158 0.0
H22 H 0.30056 0.27679 0.16458 0.0
H23 H 0.38045 0.35424 0.27752 0.0
H24 H 0.29278 0.35157 0.40565 0.0
H25 H 0.33258 0.37478 0.37496 0.0
H26 H 0.18434 0.15599 0.21713 0.0
H27 H 0.36527 0.37603 0.32715 0.0
H28 H 0.30753 0.21938 0.09044 0.0
N29 N 0.23251 0.20843 0.20087 0.0
C30 C 0.24335 0.20013 0.17256 0.0
C31 C 0.20112 0.1681 0.20457 0.0
C32 C 0.23357 0.17507 0.15945 0.0
C33 C 0.21149 0.19304 0.21676 0.0
C34 C 0.21227 0.15903 0.17589 0.0
N35 N 0.27449 0.24055 0.17041 0.0
C36 C 0.29445 0.25743 0.15514 0.0
C37 C 0.27654 0.2082 0.12783 0.0
C38 C 0.26475 0.21661 0.15687 0.0
C39 C 0.29793 0.22514 0.11276 0.0
C40 C 0.30676 0.2499 0.12635 0.0
H41 H 0.20417 0.13966 0.16654 0.0
H42 H 0.23805 0.14756 0.12011 0.0
H43 H 0.27556 0.17649 0.0925 0.0
O44 O 0.24242 0.27622 0.18911 0.0
O45 O 0.27817 0.22596 0.21713 0.0
O46 O 0.31572 0.25265 0.23532 0.0
O47 O 0.21385 0.24075 0.19725 0.0
O48 O 0.28037 0.28977 0.22058 0.0
O49 O 0.31599 0.28264 0.2364 0.0
O50 O 0.30247 0.23875 0.30879 0.0
O51 O 0.27121 0.29273 0.28791 0.0
O52 O 0.23458 0.27035 0.26276 0.0
O53 O 0.33671 0.26979 0.29858 0.0
O54 O 0.26701 0.23098 0.2801 0.0
O55 O 0.23132 0.23791 0.26422 0.0
C56 C 0.30369 0.23178 0.21895 0.0
C57 C 0.19744 0.27382 0.19161 0.0
C58 C 0.17153 0.29651 0.1732 0.0
C59 C 0.15393 0.29251 0.20045 0.0
C60 C 0.17995 0.27049 0.21903 0.0
C61 C 0.15842 0.27997 0.22348 0.0
C62 C 0.19349 0.28732 0.16898 0.0
C63 C 0.30566 0.29605 0.22278 0.0
C64 C 0.21869 0.26183 0.18557 0.0
C65 C 0.24533 0.16676 0.13052 0.0
C66 C 0.26671 0.18325 0.11478 0.0
C67 C 0.24672 0.28928 0.28225 0.0
C68 C 0.33517 0.25072 0.34378 0.0
C69 C 0.35811 0.23596 0.37791 0.0
C70 C 0.35346 0.25425 0.40199 0.0
C71 C 0.33059 0.26878 0.36812 0.0
C72 C 0.3487 0.23417 0.34886 0.0
C73 C 0.33964 0.27046 0.39711 0.0
C74 C 0.24155 0.22721 0.28194 0.0
C75 C 0.32716 0.24954 0.31256 0.0
H76 H 0.13683 0.29934 0.20404 0.0
H77 H 0.18258 0.26002 0.23666 0.0
H78 H 0.14492 0.27722 0.24458 0.0
H79 H 0.20689 0.28991 0.14772 0.0
H80 H 0.36028 0.25582 0.42468 0.0
H81 H 0.32032 0.28172 0.3647 0.0
H82 H 0.35245 0.22031 0.32999 0.0
H83 H 0.33607 0.28446 0.41579 0.0
Eu84 Eu 0.74885 0.28526 0.26178 0.0
C85 C 0.83927 0.23875 0.19548 0.0
N86 N 0.81497 0.22655 0.20836 0.0
C87 C 0.8108 0.1938 0.16563 0.0
C88 C 0.85022 0.22887 0.1668 0.0
C89 C 0.80092 0.20408 0.19435 0.0
C90 C 0.8355 0.20629 0.1517 0.0
C91 C 0.87911 0.27349 0.1992 0.0
C92 C 0.85345 0.26106 0.21124 0.0
C93 C 0.89008 0.26367 0.17066 0.0
C94 C 0.87559 0.24157 0.15436 0.0
Eu95 Eu 0.80028 0.24608 0.25635 0.0
N96 N 0.84216 0.27057 0.23841 0.0
C97 C 0.89312 0.29522 0.21653 0.0
C98 C 0.85583 0.29146 0.25563 0.0
C99 C 0.88144 0.3043 0.24481 0.0
H100 H 0.78227 0.19376 0.20544 0.0
H101 H 0.89231 0.3209 0.25852 0.0
H102 H 0.7683 0.33792 0.31162 0.0
H103 H 0.65473 0.21309 0.26164 0.0
H104 H 0.84719 0.29794 0.27792 0.0
H105 H 0.91316 0.3047 0.20876 0.0
H106 H 0.69946 0.2355 0.24049 0.0
H107 H 0.7995 0.17609 0.15445 0.0
H108 H 0.90982 0.27291 0.16107 0.0
H109 H 0.88436 0.23424 0.13237 0.0
H110 H 0.7528 0.35598 0.36336 0.0
H111 H 0.84321 0.19814 0.12957 0.0
H112 H 0.63603 0.2281 0.31368 0.0
N113 N 0.73506 0.30561 0.30981 0.0
C114 C 0.71084 0.29397 0.32343 0.0
C115 C 0.74089 0.33844 0.3525 0.0
C116 C 0.70091 0.30398 0.35265 0.0
C117 C 0.7498 0.32793 0.32337 0.0
C118 C 0.71643 0.32632 0.36734 0.0
N119 N 0.70619 0.26244 0.28023 0.0
C120 C 0.6916 0.24196 0.26324 0.0
C121 C 0.67036 0.25982 0.32109 0.0
C122 C 0.69575 0.27208 0.30792 0.0
C123 C 0.65564 0.23807 0.30441 0.0
C124 C 0.6662 0.22935 0.27516 0.0
H125 H 0.70954 0.33457 0.38987 0.0
H126 H 0.66791 0.2989 0.38869 0.0
H127 H 0.64116 0.26029 0.36102 0.0
O128 O 0.73205 0.28765 0.21995 0.0
O129 O 0.73967 0.25596 0.29661 0.0
O130 O 0.75934 0.2253 0.2744 0.0
O131 O 0.73654 0.31803 0.25751 0.0
O132 O 0.75254 0.25701 0.21913 0.0
O133 O 0.7627 0.22446 0.23524 0.0
O134 O 0.82193 0.24618 0.29503 0.0
O135 O 0.8068 0.27358 0.21984 0.0
O136 O 0.79094 0.30548 0.24569 0.0
O137 O 0.81156 0.21293 0.26178 0.0
O138 O 0.79452 0.27248 0.30029 0.0
O139 O 0.78636 0.30549 0.28315 0.0
C140 C 0.7417 0.23299 0.29412 0.0
C141 C 0.74277 0.3285 0.206 0.0
C142 C 0.73835 0.3502 0.16367 0.0
C143 C 0.76557 0.36191 0.16107 0.0
C144 C 0.76979 0.3408 0.20363 0.0
C145 C 0.78119 0.35719 0.18102 0.0
C146 C 0.72711 0.33323 0.186 0.0
C147 C 0.74956 0.23291 0.2183 0.0
C148 C 0.73086 0.31047 0.22889 0.0
C149 C 0.67581 0.29154 0.36616 0.0
C150 C 0.66055 0.26957 0.35039 0.0
C151 C 0.80685 0.29721 0.22385 0.0
C152 C 0.81339 0.20744 0.31414 0.0
C153 C 0.8255 0.189 0.35492 0.0
C154 C 0.79867 0.17873 0.36469 0.0
C155 C 0.78679 0.1972 0.32426 0.0
C156 C 0.83261 0.20363 0.32973 0.0
C157 C 0.77948 0.18295 0.34949 0.0
C158 C 0.79738 0.29657 0.30198 0.0
C159 C 0.82157 0.22277 0.28797 0.0
H160 H 0.77465 0.37527 0.14429 0.0
H161 H 0.78196 0.33792 0.21946 0.0
H162 H 0.80208 0.36655 0.17929 0.0
H163 H 0.7062 0.32377 0.1879 0.0
H164 H 0.79246 0.16697 0.38359 0.0
H165 H 0.77175 0.2002 0.31267 0.0
H166 H 0.85314 0.21216 0.32217 0.0
H167 H 0.7589 0.17494 0.35709 0.0
Eu168 Eu 0.77205 0.74244 0.29202 0.0
C169 C 0.84135 0.79858 0.17995 0.0
N170 N 0.83057 0.80873 0.20706 0.0
C171 C 0.86898 0.84414 0.20932 0.0
C172 C 0.86674 0.81082 0.1667 0.0
C173 C 0.84367 0.83145 0.22144 0.0
C174 C 0.88065 0.83372 0.18195 0.0
C175 C 0.8372 0.76538 0.13655 0.0
C176 C 0.82676 0.77605 0.16501 0.0
C177 C 0.8626 0.77741 0.12351 0.0
C178 C 0.87733 0.80003 0.13856 0.0
Eu179 Eu 0.78769 0.78579 0.22491 0.0
N180 N 0.80243 0.76445 0.17848 0.0
C181 C 0.8217 0.743 0.1219 0.0
C182 C 0.78677 0.74337 0.16362 0.0
C183 C 0.79627 0.73209 0.13536 0.0
H184 H 0.83437 0.84021 0.24172 0.0
H185 H 0.7839 0.71515 0.12382 0.0
H186 H 0.72848 0.68667 0.27226 0.0
H187 H 0.76942 0.81067 0.39466 0.0
H188 H 0.76692 0.7354 0.17333 0.0
H189 H 0.829 0.73424 0.09997 0.0
H190 H 0.78901 0.79245 0.34537 0.0
H191 H 0.87934 0.86211 0.22088 0.0
H192 H 0.87098 0.76945 0.10169 0.0
H193 H 0.89682 0.80916 0.12808 0.0
H194 H 0.68379 0.66235 0.29115 0.0
H195 H 0.9002 0.84369 0.17249 0.0
H196 H 0.72433 0.78905 0.41648 0.0
N197 N 0.72983 0.7171 0.30819 0.0
C198 C 0.71757 0.72626 0.33488 0.0
C199 C 0.69301 0.68035 0.30356 0.0
C200 C 0.69226 0.71268 0.34687 0.0
C201 C 0.71821 0.69433 0.29271 0.0
C202 C 0.67993 0.68959 0.33067 0.0
N203 N 0.75491 0.76188 0.33849 0.0
C204 C 0.7692 0.78327 0.35436 0.0
C205 C 0.71869 0.75863 0.37891 0.0
C206 C 0.73055 0.74908 0.35068 0.0
C207 C 0.73278 0.7812 0.39464 0.0
C208 C 0.75821 0.79347 0.38242 0.0
H209 H 0.66048 0.67862 0.33912 0.0
H210 H 0.66074 0.71222 0.38427 0.0
H211 H 0.68392 0.75235 0.41237 0.0
O212 O 0.80566 0.74149 0.31402 0.0
O213 O 0.74643 0.76958 0.2953 0.0
O214 O 0.77168 0.80386 0.27086 0.0
O215 O 0.77036 0.71026 0.31578 0.0
O216 O 0.81103 0.77345 0.28898 0.0
O217 O 0.80434 0.80647 0.26978 0.0
O218 O 0.75727 0.78683 0.19724 0.0
O219 O 0.81376 0.75919 0.22313 0.0
O220 O 0.78716 0.72456 0.24556 0.0
O221 O 0.79135 0.81897 0.20239 0.0
O222 O 0.74753 0.75638 0.23032 0.0
O223 O 0.75579 0.72304 0.24658 0.0
C224 C 0.75166 0.79334 0.29047 0.0
C225 C 0.79686 0.71863 0.35745 0.0
C226 C 0.81984 0.70706 0.39471 0.0
C227 C 0.80457 0.71692 0.41945 0.0
C228 C 0.78174 0.72822 0.38245 0.0
C229 C 0.78566 0.72742 0.41328 0.0
C230 C 0.81587 0.70807 0.36367 0.0
C231 C 0.81599 0.79768 0.28818 0.0
C232 C 0.79375 0.72006 0.32478 0.0
C233 C 0.68019 0.72239 0.37473 0.0
C234 C 0.69339 0.74526 0.39073 0.0
C235 C 0.80814 0.73524 0.22737 0.0
C236 C 0.75121 0.82661 0.19947 0.0
C237 C 0.71953 0.84424 0.18375 0.0
C238 C 0.71701 0.85649 0.21423 0.0
C239 C 0.74874 0.83928 0.2296 0.0
C240 C 0.73672 0.82924 0.17647 0.0
C241 C 0.73162 0.85405 0.23696 0.0
C242 C 0.74239 0.7321 0.23083 0.0
C243 C 0.76832 0.81015 0.19223 0.0
H244 H 0.80691 0.71613 0.44358 0.0
H245 H 0.76693 0.73629 0.37826 0.0
H246 H 0.77391 0.73485 0.43247 0.0
H247 H 0.82776 0.70093 0.34431 0.0
H248 H 0.70411 0.86836 0.2203 0.0
H249 H 0.76012 0.83782 0.24738 0.0
H250 H 0.73861 0.81946 0.15315 0.0
H251 H 0.72977 0.86373 0.26028 0.0
Eu252 Eu 0.24671 0.78365 0.25635 0.0
C253 C 0.3216 0.73183 0.31339 0.0
N254 N 0.32731 0.75332 0.29986 0.0
C255 C 0.35949 0.77401 0.33547 0.0
C256 C 0.33406 0.73083 0.33937 0.0
C257 C 0.34677 0.77399 0.30959 0.0
C258 C 0.35283 0.75245 0.35073 0.0
C259 C 0.29917 0.68733 0.31223 0.0
C260 C 0.30447 0.71038 0.29996 0.0
C261 C 0.31056 0.68646 0.339 0.0
C262 C 0.32799 0.70816 0.35253 0.0
Eu263 Eu 0.30323 0.75215 0.25797 0.0
N264 N 0.29379 0.71184 0.27412 0.0
C265 C 0.28288 0.66579 0.29692 0.0
C266 C 0.27902 0.69072 0.25814 0.0
C267 C 0.27301 0.66746 0.26955 0.0
H268 H 0.3524 0.79057 0.29748 0.0
H269 H 0.26075 0.65086 0.25726 0.0
H270 H 0.23568 0.75966 0.18261 0.0
H271 H 0.27473 0.88173 0.30769 0.0
H272 H 0.27133 0.6919 0.237 0.0
H273 H 0.27821 0.64775 0.3057 0.0
H274 H 0.25533 0.83628 0.30868 0.0
H275 H 0.37449 0.79061 0.3435 0.0
H276 H 0.30648 0.66899 0.34899 0.0
H277 H 0.33715 0.70708 0.3727 0.0
H278 H 0.24102 0.77473 0.13067 0.0
H279 H 0.36284 0.75245 0.37065 0.0
H280 H 0.28722 0.89966 0.25713 0.0
N281 N 0.2516 0.79602 0.20584 0.0
C282 C 0.26015 0.82113 0.20385 0.0
C283 C 0.24672 0.78792 0.151 0.0
C284 C 0.2637 0.83055 0.17472 0.0
C285 C 0.24384 0.77943 0.18032 0.0
C286 C 0.257 0.81355 0.1481 0.0
N287 N 0.2603 0.82794 0.25906 0.0
C288 C 0.26186 0.8436 0.28637 0.0
C289 C 0.2752 0.86355 0.22947 0.0
C290 C 0.26545 0.83745 0.23104 0.0
C291 C 0.27949 0.87952 0.25734 0.0
C292 C 0.27238 0.8695 0.28593 0.0
H293 H 0.25943 0.82005 0.1253 0.0
H294 H 0.27721 0.86403 0.15081 0.0
H295 H 0.28757 0.89289 0.19868 0.0
O296 O 0.2142 0.79987 0.26708 0.0
O297 O 0.28198 0.7853 0.22004 0.0
O298 O 0.31444 0.79278 0.25031 0.0
O299 O 0.20671 0.7608 0.24924 0.0
O300 O 0.26739 0.79847 0.30098 0.0
O301 O 0.30677 0.7879 0.29088 0.0
O302 O 0.31856 0.75103 0.2091 0.0
O303 O 0.26314 0.73302 0.28152 0.0
O304 O 0.24404 0.76473 0.30011 0.0
O305 O 0.34183 0.74596 0.24419 0.0
O306 O 0.27567 0.73423 0.21951 0.0
O307 O 0.23691 0.74284 0.23936 0.0
C308 C 0.30504 0.79902 0.22782 0.0
C309 C 0.17605 0.77137 0.28889 0.0
C310 C 0.15804 0.78234 0.34178 0.0
C311 C 0.14013 0.75833 0.34178 0.0
C312 C 0.15815 0.74723 0.28889 0.0
C313 C 0.14028 0.74079 0.31531 0.0
C314 C 0.17554 0.78871 0.31527 0.0
C315 C 0.29126 0.80029 0.30746 0.0
C316 C 0.19642 0.77833 0.26265 0.0
C317 C 0.27393 0.85648 0.17305 0.0
C318 C 0.27988 0.87291 0.20031 0.0
C319 C 0.24626 0.74213 0.30098 0.0
C320 C 0.36103 0.74579 0.19017 0.0
C321 C 0.37202 0.73 0.13658 0.0
C322 C 0.39841 0.73563 0.14268 0.0
C323 C 0.38714 0.75109 0.19625 0.0
C324 C 0.35394 0.73669 0.16009 0.0
C325 C 0.40592 0.74658 0.17222 0.0
C326 C 0.25012 0.73002 0.21977 0.0
C327 C 0.34054 0.74826 0.21511 0.0
H328 H 0.12598 0.75335 0.36192 0.0
H329 H 0.15827 0.73332 0.26877 0.0
H330 H 0.12657 0.72219 0.3153 0.0
H331 H 0.18857 0.80768 0.31508 0.0
H332 H 0.41303 0.73046 0.12537 0.0
H333 H 0.39292 0.75859 0.21943 0.0
H334 H 0.33376 0.73322 0.15561 0.0
H335 H 0.42613 0.75063 0.17683 0.0
Eu336 Eu 0.25439 0.77675 0.7507 0.0
C337 C 0.35359 0.75179 0.68769 0.0
N338 N 0.32855 0.73681 0.69238 0.0
C339 C 0.33014 0.71982 0.63843 0.0
C340 C 0.36758 0.75207 0.65761 0.0
C341 C 0.31698 0.72034 0.66863 0.0
C342 C 0.35547 0.7359 0.63282 0.0
C343 C 0.39063 0.78357 0.70876 0.0
C344 C 0.36492 0.76732 0.71299 0.0
C345 C 0.40436 0.78451 0.67865 0.0
C346 C 0.39292 0.76871 0.65318 0.0
Eu347 Eu 0.30766 0.73893 0.74387 0.0
N348 N 0.35114 0.76599 0.74184 0.0
C349 C 0.402 0.79796 0.73505 0.0
C350 C 0.36302 0.77822 0.76771 0.0
C351 C 0.3883 0.7949 0.76474 0.0
H352 H 0.29759 0.70761 0.67295 0.0
H353 H 0.39738 0.80499 0.78539 0.0
H354 H 0.27147 0.82234 0.81149 0.0
H355 H 0.15884 0.71012 0.73414 0.0
H356 H 0.35343 0.77448 0.79065 0.0
H357 H 0.42168 0.81072 0.7328 0.0
H358 H 0.20425 0.7352 0.71813 0.0
H359 H 0.32075 0.70702 0.61952 0.0
H360 H 0.42402 0.79707 0.67491 0.0
H361 H 0.40384 0.76947 0.63016 0.0
H362 H 0.25554 0.83112 0.86662 0.0
H363 H 0.36553 0.7356 0.60934 0.0
H364 H 0.14005 0.71491 0.78948 0.0
N365 N 0.24012 0.78897 0.80327 0.0
C366 C 0.2159 0.7751 0.81445 0.0
C367 C 0.24437 0.81506 0.85236 0.0
C368 C 0.20536 0.7803 0.84551 0.0
C369 C 0.2537 0.8096 0.82118 0.0
C370 C 0.22027 0.80012 0.86475 0.0
N371 N 0.21114 0.75264 0.76414 0.0
C372 C 0.19619 0.73698 0.74234 0.0
C373 C 0.175 0.74306 0.80434 0.0
C374 C 0.2008 0.75672 0.79417 0.0
C375 C 0.15997 0.72576 0.78256 0.0
C376 C 0.17049 0.72297 0.7513 0.0
H377 H 0.2129 0.80464 0.88879 0.0
H378 H 0.17143 0.77027 0.87966 0.0
H379 H 0.14506 0.73728 0.84387 0.0
O380 O 0.24425 0.78659 0.70832 0.0
O381 O 0.24196 0.73812 0.76774 0.0
O382 O 0.27866 0.73764 0.78779 0.0
O383 O 0.23647 0.80696 0.75309 0.0
O384 O 0.25724 0.74939 0.70696 0.0
O385 O 0.26968 0.71788 0.72343 0.0
O386 O 0.33367 0.7218 0.76101 0.0
O387 O 0.30804 0.76421 0.70691 0.0
O388 O 0.29647 0.79705 0.73591 0.0
O389 O 0.30015 0.69837 0.73804 0.0
O390 O 0.30599 0.76545 0.78876 0.0
O391 O 0.29166 0.79671 0.77456 0.0
C392 C 0.2531 0.72994 0.78725 0.0
C393 C 0.24655 0.82906 0.70908 0.0
C394 C 0.23861 0.86032 0.68151 0.0
C395 C 0.26418 0.87577 0.68599 0.0
C396 C 0.27213 0.84445 0.71266 0.0
C397 C 0.28092 0.86767 0.70097 0.0
C398 C 0.23009 0.83677 0.69305 0.0
C399 C 0.25682 0.72577 0.70557 0.0
C400 C 0.23635 0.80536 0.72294 0.0
C401 C 0.17993 0.76626 0.85602 0.0
C402 C 0.16483 0.74761 0.83556 0.0
C403 C 0.31088 0.7884 0.71271 0.0
C404 C 0.31161 0.68292 0.78011 0.0
C405 C 0.32523 0.66511 0.82041 0.0
C406 C 0.29875 0.65269 0.82921 0.0
C407 C 0.28527 0.67024 0.78918 0.0
C408 C 0.33146 0.68028 0.79584 0.0
C409 C 0.27896 0.65525 0.81364 0.0
C410 C 0.30483 0.78877 0.79227 0.0
C411 C 0.31878 0.69905 0.75453 0.0
H412 H 0.27118 0.89433 0.67841 0.0
H413 H 0.28505 0.8387 0.72497 0.0
H414 H 0.3006 0.87964 0.70403 0.0
H415 H 0.21061 0.82434 0.68975 0.0
H416 H 0.29334 0.64049 0.84764 0.0
H417 H 0.26951 0.67191 0.7775 0.0
H418 H 0.35177 0.69016 0.78899 0.0
H419 H 0.25865 0.64543 0.8204 0.0
Eu420 Eu 0.2791 0.24144 0.78439 0.0
C421 C 0.34472 0.28956 0.66581 0.0
N422 N 0.33904 0.29886 0.69595 0.0
C423 C 0.38356 0.32447 0.6977 0.0
C424 C 0.37043 0.29733 0.65064 0.0
C425 C 0.35779 0.3165 0.71174 0.0
C426 C 0.38993 0.31487 0.66706 0.0
C427 C 0.33055 0.26173 0.61908 0.0
C428 C 0.32489 0.27172 0.65019 0.0
C429 C 0.35609 0.26974 0.60393 0.0
C430 C 0.37595 0.28741 0.61967 0.0
Eu431 Eu 0.29443 0.28566 0.71521 0.0
N432 N 0.30038 0.26369 0.66555 0.0
C433 C 0.31038 0.24384 0.60409 0.0
C434 C 0.28049 0.24693 0.65068 0.0
C435 C 0.28523 0.2365 0.61992 0.0
H436 H 0.35298 0.32504 0.73482 0.0
H437 H 0.26935 0.22316 0.60825 0.0
H438 H 0.22572 0.19363 0.76364 0.0
H439 H 0.29422 0.29743 0.89692 0.0
H440 H 0.26075 0.24234 0.66187 0.0
H441 H 0.31395 0.23578 0.58019 0.0
H442 H 0.30683 0.28081 0.84276 0.0
H443 H 0.39842 0.33827 0.71037 0.0
H444 H 0.36073 0.26226 0.58004 0.0
H445 H 0.39558 0.29326 0.60766 0.0
H446 H 0.17918 0.17739 0.7826 0.0
H447 H 0.40991 0.32125 0.65621 0.0
H448 H 0.24791 0.28369 0.9199 0.0
N449 N 0.23395 0.22338 0.80069 0.0
C450 C 0.22502 0.23265 0.82953 0.0
C451 C 0.19173 0.19321 0.79581 0.0
C452 C 0.19877 0.22283 0.84226 0.0
C453 C 0.21808 0.20303 0.78461 0.0
C454 C 0.18192 0.20336 0.82459 0.0
N455 N 0.26793 0.25945 0.83488 0.0
C456 C 0.28654 0.27536 0.85247 0.0
C457 C 0.23456 0.25945 0.87825 0.0
C458 C 0.2426 0.25087 0.84735 0.0
C459 C 0.25332 0.27669 0.89605 0.0
C460 C 0.27948 0.28453 0.88315 0.0
H461 H 0.16162 0.19537 0.83351 0.0
H462 H 0.17036 0.22468 0.88276 0.0
H463 H 0.20185 0.25648 0.91439 0.0
O464 O 0.31022 0.23412 0.80573 0.0
O465 O 0.26578 0.27751 0.7972 0.0
O466 O 0.26061 0.29078 0.75126 0.0
O467 O 0.27301 0.20569 0.80204 0.0
O468 O 0.31845 0.271 0.77697 0.0
O469 O 0.31022 0.30459 0.76117 0.0
O470 O 0.27501 0.2967 0.68097 0.0
O471 O 0.31933 0.2578 0.71214 0.0
O472 O 0.29281 0.22416 0.73673 0.0
O473 O 0.30487 0.3251 0.70682 0.0
O474 O 0.2541 0.25766 0.71985 0.0
O475 O 0.26041 0.22443 0.7394 0.0
C476 C 0.25613 0.29074 0.78189 0.0
C477 C 0.29551 0.20648 0.84499 0.0
C478 C 0.31601 0.19259 0.88249 0.0
C479 C 0.29534 0.19464 0.90549 0.0
C480 C 0.27466 0.20799 0.86811 0.0
C481 C 0.27469 0.20221 0.89823 0.0
C482 C 0.31606 0.1985 0.85224 0.0
C483 C 0.32179 0.29527 0.77909 0.0
C484 C 0.29566 0.21216 0.81299 0.0
C485 C 0.19044 0.232 0.87264 0.0
C486 C 0.20834 0.25013 0.89066 0.0
C487 C 0.31354 0.23412 0.71771 0.0
C488 C 0.28513 0.33968 0.6691 0.0
C489 C 0.2573 0.35866 0.64744 0.0
C490 C 0.27967 0.37798 0.63859 0.0
C491 C 0.3072 0.35913 0.66005 0.0
C492 C 0.26013 0.33917 0.66218 0.0
C493 C 0.30447 0.37806 0.64463 0.0
C494 C 0.24767 0.23369 0.72291 0.0
C495 C 0.28846 0.32015 0.68576 0.0
H496 H 0.29495 0.18986 0.92884 0.0
H497 H 0.25819 0.21326 0.86285 0.0
H498 H 0.25854 0.20336 0.91589 0.0
H499 H 0.33198 0.19679 0.8344 0.0
H500 H 0.27791 0.39304 0.62697 0.0
H501 H 0.3266 0.35961 0.66477 0.0
H502 H 0.24294 0.32424 0.66918 0.0
H503 H 0.3216 0.39297 0.63759 0.0
Eu504 Eu 0.75592 0.26575 0.75025 0.0
C505 C 0.8022 0.18072 0.77306 0.0
N506 N 0.81311 0.20524 0.78242 0.0
C507 C 0.81682 0.19533 0.833 0.0
C508 C 0.79709 0.1624 0.79379 0.0
C509 C 0.82137 0.21276 0.8115 0.0
C510 C 0.80413 0.17006 0.8243 0.0
C511 C 0.78862 0.1484 0.73057 0.0
C512 C 0.79813 0.17393 0.74203 0.0
C513 C 0.78174 0.13006 0.75144 0.0
C514 C 0.78602 0.13706 0.78304 0.0
Eu515 Eu 0.81542 0.23436 0.74759 0.0
N516 N 0.80587 0.19215 0.72257 0.0
C517 C 0.78735 0.14203 0.69836 0.0
C518 C 0.80771 0.18563 0.69086 0.0
C519 C 0.79729 0.16073 0.67837 0.0
H520 H 0.83068 0.23237 0.81833 0.0
H521 H 0.79744 0.15594 0.65328 0.0
H522 H 0.72734 0.23242 0.68446 0.0
H523 H 0.76938 0.36439 0.78939 0.0
H524 H 0.81629 0.19967 0.67495 0.0
H525 H 0.77991 0.12267 0.68859 0.0
H526 H 0.76239 0.31966 0.79524 0.0
H527 H 0.82281 0.20141 0.85632 0.0
H528 H 0.77406 0.11038 0.74316 0.0
H529 H 0.78155 0.12268 0.79867 0.0
H530 H 0.7253 0.24068 0.63123 0.0
H531 H 0.80054 0.15658 0.84097 0.0
H532 H 0.76865 0.37697 0.73736 0.0
N533 N 0.7455 0.27069 0.70049 0.0
C534 C 0.75052 0.29481 0.69449 0.0
C535 C 0.73253 0.25612 0.64877 0.0
C536 C 0.74775 0.30053 0.66487 0.0
C537 C 0.73472 0.25144 0.67883 0.0
C538 C 0.73941 0.28076 0.64159 0.0
N539 N 0.75789 0.30749 0.74718 0.0
C540 C 0.76188 0.32511 0.77256 0.0
C541 C 0.76064 0.33899 0.71416 0.0
C542 C 0.75674 0.3138 0.71871 0.0
C543 C 0.76553 0.35739 0.73987 0.0
C544 C 0.76589 0.35037 0.76929 0.0
H545 H 0.73724 0.28431 0.61844 0.0
H546 H 0.75089 0.33043 0.63706 0.0
H547 H 0.76224 0.36415 0.68028 0.0
O548 O 0.73613 0.26533 0.79768 0.0
O549 O 0.79662 0.28907 0.73325 0.0
O550 O 0.8145 0.25787 0.70954 0.0
O551 O 0.7144 0.26195 0.75773 0.0
O552 O 0.78969 0.28844 0.77879 0.0
O553 O 0.80651 0.25888 0.79167 0.0
O554 O 0.85441 0.22893 0.74078 0.0
O555 O 0.78368 0.22848 0.78886 0.0
O556 O 0.75159 0.22637 0.76006 0.0
O557 O 0.85058 0.26631 0.75199 0.0
O558 O 0.79407 0.22797 0.70324 0.0
O559 O 0.75205 0.22781 0.72266 0.0
C560 C 0.81458 0.28152 0.71406 0.0
C561 C 0.69533 0.27502 0.80663 0.0
C562 C 0.68543 0.30379 0.85047 0.0
C563 C 0.65993 0.29852 0.84159 0.0
C564 C 0.66976 0.26952 0.79832 0.0
C565 C 0.65213 0.28127 0.81579 0.0
C566 C 0.70294 0.29174 0.83299 0.0
C567 C 0.80607 0.2822 0.79358 0.0
C568 C 0.7133 0.2624 0.78799 0.0
C569 C 0.75266 0.32568 0.65974 0.0
C570 C 0.75908 0.34488 0.68436 0.0
C571 C 0.75873 0.22128 0.78509 0.0
C572 C 0.88306 0.26059 0.71238 0.0
C573 C 0.88996 0.2546 0.65538 0.0
C574 C 0.91146 0.27634 0.65595 0.0
C575 C 0.90429 0.28243 0.71273 0.0
C576 C 0.87591 0.24708 0.68373 0.0
C577 C 0.91835 0.29032 0.68452 0.0
C578 C 0.76856 0.22003 0.70137 0.0
C579 C 0.86639 0.25286 0.74112 0.0
H580 H 0.64614 0.30807 0.8541 0.0
H581 H 0.66346 0.25615 0.77826 0.0
H582 H 0.6325 0.27719 0.80915 0.0
H583 H 0.72248 0.29542 0.83983 0.0
H584 H 0.92303 0.28234 0.63445 0.0
H585 H 0.90967 0.29349 0.73467 0.0
H586 H 0.85962 0.23008 0.68364 0.0
H587 H 0.93472 0.30722 0.6848 0.0
Eu588 Eu 0.75601 0.75021 0.71511 0.0
C589 C 0.81257 0.81601 0.82446 0.0
N590 N 0.8224 0.80597 0.79659 0.0
C591 C 0.85503 0.84532 0.78978 0.0
C592 C 0.82301 0.84157 0.83531 0.0
C593 C 0.84443 0.81979 0.78038 0.0
C594 C 0.84398 0.85638 0.81709 0.0
C595 C 0.78409 0.80985 0.8733 0.0
C596 C 0.79333 0.80033 0.8434 0.0
C597 C 0.7937 0.83549 0.88351 0.0
C598 C 0.81305 0.85131 0.86454 0.0
Eu599 Eu 0.80292 0.76258 0.78361 0.0
N600 N 0.78419 0.77558 0.833 0.0
C601 C 0.7658 0.7932 0.8923 0.0
C602 C 0.76714 0.75904 0.85176 0.0
C603 C 0.75744 0.76768 0.88155 0.0
H604 H 0.85441 0.81114 0.76059 0.0
H605 H 0.74354 0.75473 0.89618 0.0
H606 H 0.72487 0.6904 0.72681 0.0
H607 H 0.81398 0.79023 0.61082 0.0
H608 H 0.76088 0.73928 0.84345 0.0
H609 H 0.75825 0.7998 0.91544 0.0
H610 H 0.79339 0.79158 0.66523 0.0
H611 H 0.87211 0.8563 0.77637 0.0
H612 H 0.78667 0.84319 0.90631 0.0
H613 H 0.82074 0.87093 0.87311 0.0
H614 H 0.71579 0.64866 0.69621 0.0
H615 H 0.85254 0.87608 0.82463 0.0
H616 H 0.80658 0.74988 0.57696 0.0
N617 N 0.74808 0.70942 0.68905 0.0
C618 C 0.75695 0.70779 0.65803 0.0
C619 C 0.72758 0.6651 0.68529 0.0
C620 C 0.75206 0.68434 0.63963 0.0
C621 C 0.73301 0.68873 0.70268 0.0
C622 C 0.73722 0.66287 0.65367 0.0
N623 N 0.77701 0.75196 0.66353 0.0
C624 C 0.7912 0.77366 0.65138 0.0
C625 C 0.78258 0.72816 0.61336 0.0
C626 C 0.7721 0.72957 0.64507 0.0
C627 C 0.79804 0.75023 0.60115 0.0
C628 C 0.80234 0.77306 0.62023 0.0
H629 H 0.73301 0.64451 0.64028 0.0
H630 H 0.75871 0.66513 0.59349 0.0
H631 H 0.78541 0.7034 0.57054 0.0
O632 O 0.73632 0.76312 0.68318 0.0
O633 O 0.78547 0.7266 0.70675 0.0
O634 O 0.81786 0.74064 0.74075 0.0
O635 O 0.71331 0.73954 0.71824 0.0
O636 O 0.7858 0.78812 0.72177 0.0
O637 O 0.81997 0.7781 0.73734 0.0
O638 O 0.80995 0.73752 0.8134 0.0
O639 O 0.76426 0.77411 0.79493 0.0
O640 O 0.75905 0.78599 0.74877 0.0
O641 O 0.8419 0.7683 0.79675 0.0
O642 O 0.77346 0.72471 0.77468 0.0
O643 O 0.7379 0.73275 0.75996 0.0
C644 C 0.80775 0.72639 0.71612 0.0
C645 C 0.69677 0.771 0.70575 0.0
C646 C 0.67632 0.79985 0.69035 0.0
C647 C 0.6667 0.8048 0.72168 0.0
C648 C 0.68715 0.77629 0.7371 0.0
C649 C 0.67216 0.79308 0.74493 0.0
C650 C 0.69139 0.78297 0.68241 0.0
C651 C 0.81091 0.79229 0.72332 0.0
C652 C 0.71303 0.7537 0.69721 0.0
C653 C 0.7623 0.683 0.60801 0.0
C654 C 0.77752 0.70481 0.59494 0.0
C655 C 0.7548 0.78737 0.77948 0.0
C656 C 0.84591 0.75474 0.84382 0.0
C657 C 0.87074 0.7424 0.87794 0.0
C658 C 0.87326 0.76542 0.89676 0.0
C659 C 0.84834 0.77759 0.86291 0.0
C660 C 0.85683 0.73711 0.85162 0.0
C661 C 0.8619 0.78282 0.88937 0.0
C662 C 0.7481 0.72096 0.77636 0.0
C663 C 0.83471 0.74986 0.81393 0.0
H664 H 0.65511 0.81786 0.72813 0.0
H665 H 0.69136 0.76764 0.75562 0.0
H666 H 0.66489 0.79711 0.76911 0.0
H667 H 0.69891 0.77922 0.65819 0.0
H668 H 0.88387 0.76986 0.91723 0.0
H669 H 0.84037 0.79159 0.857 0.0
H670 H 0.85539 0.71967 0.83649 0.0
H671 H 0.86394 0.80054 0.90392 0.0
Co672 Co 0.067 0.98618 0.48238 0.0
Co673 Co 0.05469 0.98265 0.53515 0.0
Co674 Co 1.0262 0.01798 0.51334 0.0
O675 O 0.05742 1.00789 0.51504 0.0
H676 H 0.07196 0.02202 0.52119 0.0
O677 O 0.99556 0.02869 0.51203 0.0
Co678 Co 0.99315 0.06051 0.52876 0.0
Co679 Co 0.99617 0.03706 0.47244 0.0
H680 H 0.97952 0.01557 0.5165 0.0
O681 O 0.07766 0.98727 0.56166 0.0
O682 O 0.07565 0.96547 0.5122 0.0
O683 O 1.02056 0.96394 0.54714 0.0
O684 O 1.00214 0.99382 0.54329 0.0
O685 O 0.03762 0.04344 0.54924 0.0
O686 O 0.98639 0.08891 0.54432 0.0
O687 O 0.95859 0.05067 0.53111 0.0
O688 O 0.03041 0.07461 0.53005 0.0
O689 O 0.05023 0.04214 0.48367 0.0
O690 O 1.02728 0.03904 0.44406 0.0
O691 O 0.99556 0.06953 0.48545 0.0
O692 O 0.96654 0.03906 0.45793 0.0
C693 C 0.10025 0.98736 0.45502 0.0
C694 C 1.01372 0.97015 0.47275 0.0
C695 C 1.00101 0.97251 0.55146 0.0
C696 C 0.08415 0.97076 0.54019 0.0
C697 C 0.96267 0.07418 0.54167 0.0
C698 C 0.04309 0.06676 0.54696 0.0
C699 C 0.049 0.04573 0.45559 0.0
C700 C 0.97559 0.0624 0.46906 0.0
O701 O 0.07911 0.969 0.45037 0.0
O702 O 0.1004 1.00475 0.47836 0.0
O703 O 1.01395 0.993 0.47693 0.0
O704 O 0.03188 0.96368 0.48191 0.0
Co705 Co 0.5637 0.96348 0.96629 0.0
Co706 Co 0.55086 0.96783 0.02182 0.0
Co707 Co 0.52934 1.00962 0.00376 0.0
O708 O 0.55927 0.99293 0.99687 0.0
H709 H 0.57593 1.00489 1.0011 0.0
O710 O 0.49953 0.02563 0.0104 0.0
Co711 Co 0.49863 0.05815 0.0337 0.0
Co712 Co 0.4994 0.04043 0.97593 0.0
H713 H 0.4827 0.01325 0.01378 0.0
O714 O 0.57473 0.96809 0.04627 0.0
O715 O 0.56329 0.9434 1.0006 0.0
O716 O 0.51562 0.95318 0.0346 0.0
O717 O 0.50572 0.98888 0.03757 0.0
O718 O 0.54791 0.03526 0.0365 0.0
O719 O 0.49508 0.08721 0.05586 0.0
O720 O 0.4624 0.05273 0.04419 0.0
O721 O 0.53639 0.06865 0.02775 0.0
O722 O 0.55276 0.03152 0.97138 0.0
O723 O 0.52907 0.04635 0.94551 0.0
O724 O 0.49549 0.07078 0.99415 0.0
O725 O 0.46857 0.03933 0.96456 0.0
C726 C 0.59436 0.94865 0.94207 0.0
C727 C 0.50825 0.9612 0.96377 0.0
C728 C 0.49977 0.96595 0.0428 0.0
C729 C 0.57621 0.9493 0.02538 0.0
C730 C 0.46997 0.07593 0.05753 0.0
C731 C 0.55173 0.05908 0.03848 0.0
C732 C 0.55079 0.0437 0.94967 0.0
C733 C 0.47511 0.06229 0.97804 0.0
O734 O 0.56981 0.93779 0.93845 0.0
O735 O 0.60031 0.96996 0.96046 0.0
O736 O 0.51027 0.9846 0.97073 0.0
O737 O 0.52642 0.95166 0.96668 0.0
Co738 Co 0.06482 0.46639 0.96253 0.0
Co739 Co 0.05146 0.4691 0.01862 0.0
Co740 Co 0.03077 0.51221 1.00191 0.0
O741 O 0.05988 0.49457 0.99439 0.0
H742 H 0.07663 0.50627 0.99883 0.0
O743 O 1.00195 0.52966 0.01009 0.0
Co744 Co 1.00216 0.5624 0.03419 0.0
Co745 Co 1.00188 0.5452 0.97644 0.0
H746 H 0.98487 0.51769 0.01359 0.0
O747 O 0.07659 0.46735 0.04025 0.0
O748 O 0.06189 0.44408 0.99529 0.0
O749 O 1.01622 0.45551 0.03212 0.0
O750 O 1.00719 0.49178 0.03602 0.0
O751 O 0.051 0.53721 0.03389 0.0
O752 O 0.99952 0.59156 0.05696 0.0
O753 O 0.9659 0.55822 0.04465 0.0
O754 O 0.03999 0.5719 0.02909 0.0
O755 O 0.05433 0.53355 0.96888 0.0
O756 O 0.03092 0.55013 0.94505 0.0
O757 O 1.0004 0.57621 0.99479 0.0
O758 O 0.97127 0.5459 0.96621 0.0
C759 C 0.09574 0.45196 0.93933 0.0
C760 C 1.00887 0.46449 0.95988 0.0
C761 C 1.00067 0.46861 0.04038 0.0
C762 C 0.07633 0.44866 0.01856 0.0
C763 C 0.97425 0.58115 0.05865 0.0
C764 C 0.05572 0.56115 0.03673 0.0
C765 C 0.05245 0.54641 0.94785 0.0
C766 C 0.98049 0.56914 0.97789 0.0
O767 O 0.07152 0.44207 0.93341 0.0
O768 O 0.10121 0.47223 0.95955 0.0
O769 O 1.00995 0.48746 0.96949 0.0
O770 O 1.02792 0.45548 0.9603 0.0
Co771 Co 0.56853 0.47836 0.98478 0.0
Co772 Co 0.55759 0.48669 0.04318 0.0
Co773 Co 0.52883 0.51446 0.00784 0.0
O774 O 0.55952 0.50435 0.01139 0.0
H775 H 0.57449 0.51904 0.01354 0.0
O776 O 0.49872 0.5249 0.00402 0.0
Co777 Co 0.49568 0.55655 0.01883 0.0
Co778 Co 0.50202 0.53317 0.96436 0.0
H779 H 0.48254 0.51166 0.00731 0.0
O780 O 0.58653 0.48933 0.06122 0.0
O781 O 0.56882 0.46096 0.02149 0.0
O782 O 0.52449 0.47354 0.06383 0.0
O783 O 0.50319 0.48936 0.03553 0.0
O784 O 0.53817 0.53961 0.04504 0.0
O785 O 0.4879 0.58473 0.03318 0.0
O786 O 0.4618 0.54637 0.01713 0.0
O787 O 0.53275 0.57098 0.0242 0.0
O788 O 0.55402 0.53939 0.97991 0.0
O789 O 0.53341 0.53278 0.93769 0.0
O790 O 0.50097 0.56584 0.97465 0.0
O791 O 0.47447 0.53355 0.94568 0.0
C792 C 0.60296 0.47287 0.96708 0.0
C793 C 0.51664 0.46656 0.96855 0.0
C794 C 0.50345 0.47533 0.05608 0.0
C795 C 0.58556 0.46884 0.04242 0.0
C796 C 0.46477 0.56968 0.02792 0.0
C797 C 0.54381 0.56304 0.04301 0.0
C798 C 0.5543 0.54122 0.95085 0.0
C799 C 0.48355 0.55743 0.95445 0.0
O800 O 0.58121 0.45626 0.95976 0.0
O801 O 0.60252 0.49337 0.98507 0.0
O802 O 0.5189 0.48982 0.97048 0.0
O803 O 0.53257 0.45906 0.98085 0.0
Co804 Co 0.0757 0.47946 0.50717 0.0
Co805 Co 0.06832 0.4806 0.45334 0.0
Co806 Co 0.02995 0.5094 0.5021 0.0
O807 O 0.0453 0.48001 0.48887 0.0
H808 H 0.03177 0.46411 0.48874 0.0
O809 O 1.01469 0.53884 0.51577 0.0
Co810 Co 0.98621 0.54132 0.49539 0.0
Co811 Co 0.98965 0.53733 0.54964 0.0
H812 H 1.02842 0.55457 0.51762 0.0
O813 O 0.06888 0.45138 0.42803 0.0
O814 O 0.09602 0.47144 0.465 0.0
O815 O 0.08001 0.51245 0.43758 0.0
O816 O 0.05353 0.53169 0.46958 0.0
O817 O 1.00348 0.49327 0.47177 0.0
O818 O 0.96248 0.54572 0.47474 0.0
O819 O 0.99823 0.57473 0.49232 0.0
O820 O 0.97005 0.50661 0.49548 0.0
O821 O 1.00619 0.4872 0.53444 0.0
O822 O 0.97688 0.50483 0.5637 0.0
O823 O 0.96371 0.54789 0.53594 0.0
O824 O 0.98764 0.56563 0.57644 0.0
C825 C 0.08654 0.4539 0.52719 0.0
C826 C 0.08124 0.52954 0.52461 0.0
C827 C 0.07199 0.5316 0.4471 0.0
C828 C 0.0898 0.45387 0.4414 0.0
C829 C 0.97737 0.56875 0.47741 0.0
C830 C 0.97887 0.49003 0.47826 0.0
C831 C 0.98646 0.48654 0.55535 0.0
C832 C 0.96835 0.56441 0.56077 0.0
O833 O 0.10137 0.47688 0.52654 0.0
O834 O 0.06506 0.44645 0.51322 0.0
O835 O 0.05659 0.52526 0.53227 0.0
O836 O 0.09035 0.51436 0.50482 0.0
Co837 Co 0.57618 0.981 0.50847 0.0
Co838 Co 0.56348 0.97707 0.45481 0.0
Co839 Co 0.52971 1.01042 0.50454 0.0
O840 O 0.54422 0.98047 0.49305 0.0
H841 H 0.53058 0.96496 0.49606 0.0
O842 O 0.51533 0.04058 0.5163 0.0
Co843 Co 0.48473 0.04146 0.49879 0.0
Co844 Co 0.49363 0.04232 0.55314 0.0
H845 H 0.52925 0.05613 0.515 0.0
O846 O 0.56403 0.94556 0.43432 0.0
O847 O 0.59352 0.97113 0.46545 0.0
O848 O 0.57217 1.00642 0.43346 0.0
O849 O 0.55108 0.02924 0.46847 0.0
O850 O 0.50086 0.99224 0.47751 0.0
O851 O 0.45878 0.04446 0.48065 0.0
O852 O 0.49628 0.0741 0.49161 0.0
O853 O 0.46886 1.00701 0.50301 0.0
O854 O 0.50803 0.99114 0.54026 0.0
O855 O 0.48227 1.01156 0.57147 0.0
O856 O 0.46574 0.05093 0.54088 0.0
O857 O 0.49279 0.0723 0.57731 0.0
C858 C 0.58874 0.95636 0.52768 0.0
C859 C 0.58323 0.03152 0.52275 0.0
C860 C 0.56599 0.0266 0.44303 0.0
C861 C 0.58632 0.95074 0.44584 0.0
C862 C 0.47389 0.06732 0.47964 0.0
C863 C 0.47643 0.99008 0.48476 0.0
C864 C 0.49028 0.99227 0.56324 0.0
C865 C 0.47204 0.06935 0.56343 0.0
O866 O 0.60357 0.97916 0.52509 0.0
O867 O 0.56587 0.94884 0.51682 0.0
O868 O 0.5588 0.02861 0.53143 0.0
O869 O 0.5906 0.01532 0.50289 0.0
H870 H 0.2546 0.19334 0.31078 0.0
H871 H 0.22545 0.16177 0.34286 0.0
H872 H 0.15961 0.18671 0.33053 0.0
H873 H 0.18867 0.21849 0.29847 0.0
H874 H 0.15974 0.17826 0.3921 0.0
H875 H 0.16862 0.13542 0.28779 0.0
H876 H 0.19353 0.1217 0.23969 0.0
H877 H 0.22747 0.08354 0.29301 0.0
H878 H 0.20298 0.09725 0.34149 0.0
H879 H 0.04988 0.06916 0.40472 0.0
H880 H 0.08724 0.09841 0.37841 0.0
H881 H 0.13856 0.08725 0.43885 0.0
H882 H 0.10091 0.05823 0.46625 0.0
H883 H 0.14943 0.08799 0.35713 0.0
H884 H 0.14188 0.13257 0.4622 0.0
H885 H 0.11467 0.14427 0.50941 0.0
H886 H 0.07806 0.1785 0.45407 0.0
H887 H 0.10461 0.16635 0.40641 0.0
C888 C 0.23393 0.19218 0.3149 0.0
C889 C 0.22391 0.20827 0.30174 0.0
C890 C 0.21729 0.17408 0.33324 0.0
C891 C 0.19033 0.17175 0.33889 0.0
C892 C 0.18036 0.18818 0.32644 0.0
C893 C 0.19696 0.20621 0.30794 0.0
C894 C 0.17237 0.15173 0.35704 0.0
C895 C 0.15761 0.15856 0.38444 0.0
C896 C 0.16977 0.12598 0.34742 0.0
C897 C 0.1842 0.11755 0.31826 0.0
C898 C 0.18154 0.12425 0.28927 0.0
C899 C 0.19557 0.11648 0.26195 0.0
C900 C 0.21215 0.10187 0.26331 0.0
C901 C 0.21466 0.0949 0.29199 0.0
C902 C 0.2007 0.10264 0.31938 0.0
C903 C 0.06911 0.07258 0.4123 0.0
C904 C 0.07237 0.06134 0.43771 0.0
C905 C 0.09044 0.08935 0.39719 0.0
C906 C 0.11554 0.095 0.40678 0.0
C907 C 0.11925 0.08311 0.4312 0.0
C908 C 0.09775 0.06658 0.44681 0.0
C909 C 0.1372 0.11462 0.39218 0.0
C910 C 0.15224 0.10773 0.36517 0.0
C911 C 0.14027 0.14029 0.40222 0.0
C912 C 0.12494 0.14831 0.43081 0.0
C913 C 0.12783 0.14237 0.46011 0.0
C914 C 0.11257 0.1491 0.48693 0.0
C915 C 0.09461 0.16207 0.48473 0.0
C916 C 0.09195 0.16841 0.45572 0.0
C917 C 0.10708 0.1616 0.42881 0.0
H918 H 0.08279 0.16726 0.50552 0.0
H919 H 0.223 0.09588 0.24213 0.0
H920 H 0.8263 0.18495 0.4171 0.0
H921 H 0.85791 0.17126 0.43991 0.0
H922 H 0.90314 0.16799 0.34962 0.0
H923 H 0.87103 0.18007 0.32633 0.0
H924 H 0.89208 0.12611 0.37221 0.0
H925 H 0.92414 0.21096 0.41036 0.0
H926 H 0.92393 0.25255 0.43733 0.0
H927 H 0.90383 0.22252 0.52572 0.0
H928 H 0.90359 0.18067 0.49947 0.0
H929 H 0.99774 0.11207 0.46277 0.0
H930 H 0.97623 0.14083 0.44809 0.0
H931 H 0.90236 0.08251 0.4513 0.0
H932 H 0.92382 0.05362 0.46487 0.0
H933 H 0.93483 0.1598 0.46976 0.0
H934 H 0.87417 0.07963 0.38726 0.0
H935 H 0.87698 0.03929 0.35801 0.0
H936 H 0.96114 0.06531 0.35313 0.0
H937 H 0.95879 0.10586 0.38213 0.0
C938 C 0.84301 0.18136 0.40211 0.0
C939 C 0.84599 0.18347 0.36981 0.0
C940 C 0.86128 0.17396 0.41531 0.0
C941 C 0.88299 0.16886 0.3965 0.0
C942 C 0.8866 0.172 0.36458 0.0
C943 C 0.86825 0.17908 0.35134 0.0
C944 C 0.89987 0.15694 0.40889 0.0
C945 C 0.90156 0.13371 0.39342 0.0
C946 C 0.91251 0.16696 0.43643 0.0
C947 C 0.91298 0.19229 0.45263 0.0
C948 C 0.91919 0.21303 0.43549 0.0
C949 C 0.91932 0.23675 0.45073 0.0
C950 C 0.91364 0.24012 0.48321 0.0
C951 C 0.90804 0.21982 0.50055 0.0
C952 C 0.90785 0.19605 0.48545 0.0
C953 C 0.97686 0.10558 0.46061 0.0
C954 C 0.96246 0.08057 0.46405 0.0
C955 C 0.9646 0.12202 0.45251 0.0
C956 C 0.93787 0.11356 0.44805 0.0
C957 C 0.92312 0.08918 0.45407 0.0
C958 C 0.9354 0.07268 0.46157 0.0
C959 C 0.92597 0.12892 0.43357 0.0
C960 C 0.92538 0.15262 0.44849 0.0
C961 C 0.91464 0.11972 0.40519 0.0
C962 C 0.91627 0.0956 0.3872 0.0
C963 C 0.89325 0.07672 0.37992 0.0
C964 C 0.89477 0.05383 0.36339 0.0
C965 C 0.91922 0.0497 0.35383 0.0
C966 C 0.94221 0.06849 0.36066 0.0
C967 C 0.9408 0.09141 0.37719 0.0
H968 H 0.92036 0.03195 0.34105 0.0
H969 H 0.91374 0.25851 0.49498 0.0
H970 H 0.84709 0.78646 0.32529 0.0
H971 H 0.87951 0.8154 0.3576 0.0
H972 H 0.86263 0.87821 0.32839 0.0
H973 H 0.82962 0.84936 0.29657 0.0
H974 H 0.91578 0.88538 0.32605 0.0
H975 H 0.84072 0.86341 0.40098 0.0
H976 H 0.80288 0.83475 0.42877 0.0
H977 H 0.85447 0.80068 0.46057 0.0
H978 H 0.8927 0.82927 0.43304 0.0
H979 H 0.97953 0.9799 0.43905 0.0
H980 H 0.94593 0.9502 0.40912 0.0
H981 H 0.96613 0.88854 0.43662 0.0
H982 H 1.00022 0.91836 0.46671 0.0
H983 H 0.91139 0.88048 0.4399 0.0
H984 H 0.98707 0.90521 0.36591 0.0
H985 H 1.02396 0.93491 0.33819 0.0
H986 H 0.9699 0.96444 0.30358 0.0
H987 H 0.93266 0.93523 0.33164 0.0
C988 C 0.85019 0.80641 0.32564 0.0
C989 C 0.83593 0.81547 0.30774 0.0
C990 C 0.86875 0.82298 0.34429 0.0
C991 C 0.87357 0.84905 0.34554 0.0
C992 C 0.85942 0.8582 0.3277 0.0
C993 C 0.84062 0.84161 0.3093 0.0
C994 C 0.8935 0.86669 0.36531 0.0
C995 C 0.91461 0.88452 0.35101 0.0
C996 C 0.89235 0.86533 0.39781 0.0
C997 C 0.86953 0.84829 0.4147 0.0
C998 C 0.84398 0.8497 0.41374 0.0
C999 C 0.82246 0.83348 0.42945 0.0
C1000 C 0.82624 0.81575 0.4462 0.0
C1001 C 0.85158 0.81438 0.44751 0.0
C1002 C 0.87319 0.83065 0.43195 0.0
C1003 C 0.97691 0.96003 0.43888 0.0
C1004 C 0.99285 0.95158 0.45518 0.0
C1005 C 0.95764 0.94303 0.42162 0.0
C1006 C 0.95359 0.91708 0.42027 0.0
C1007 C 0.96892 0.90847 0.43719 0.0
C1008 C 0.98851 0.92554 0.45426 0.0
C1009 C 0.93373 0.89916 0.40062 0.0
C1010 C 0.91261 0.88131 0.41493 0.0
C1011 C 0.93475 0.90063 0.36812 0.0
C1012 C 0.95709 0.91822 0.35119 0.0
C1013 C 0.98304 0.91821 0.35266 0.0
C1014 C 1.00402 0.93493 0.33684 0.0
C1015 C 0.99928 0.9516 0.31921 0.0
C1016 C 0.97354 0.95155 0.31731 0.0
C1017 C 0.95249 0.93492 0.33317 0.0
H1018 H 1.01555 0.96451 0.30694 0.0
H1019 H 0.80954 0.80316 0.45828 0.0
H1020 H 0.11554 0.79769 0.36481 0.0
H1021 H 0.1174 0.84049 0.3869 0.0
H1022 H 0.20041 0.85701 0.39366 0.0
H1023 H 0.19848 0.81383 0.37202 0.0
H1024 H 0.13013 0.86999 0.43645 0.0
H1025 H 0.2282 0.91946 0.36061 0.0
H1026 H 0.25073 0.91478 0.30747 0.0
H1027 H 0.18206 0.85816 0.27798 0.0
H1028 H 0.15862 0.86348 0.33038 0.0
H1029 H 0.14554 0.99348 0.47863 0.0
H1030 H 0.17071 0.96374 0.45983 0.0
H1031 H 0.13546 0.94635 0.37308 0.0
H1032 H 0.10879 0.97453 0.39282 0.0
H1033 H 0.18773 0.93638 0.37343 0.0
H1034 H 0.0973 0.91514 0.40956 0.0
H1035 H 0.05493 0.91376 0.44092 0.0
H1036 H 0.08534 0.90257 0.52175 0.0
H1037 H 0.12845 0.90521 0.49114 0.0
C1038 C 0.13381 0.81 0.37268 0.0
C1039 C 0.15685 0.80268 0.36674 0.0
C1040 C 0.13501 0.83454 0.38476 0.0
C1041 C 0.15924 0.85187 0.39098 0.0
C1042 C 0.18172 0.84388 0.38835 0.0
C1043 C 0.18046 0.81922 0.3766 0.0
C1044 C 0.16085 0.87847 0.39869 0.0
C1045 C 0.14337 0.88463 0.42332 0.0
C1046 C 0.17695 0.89714 0.37999 0.0
C1047 C 0.19192 0.89131 0.34984 0.0
C1048 C 0.21804 0.90572 0.34293 0.0
C1049 C 0.23084 0.9032 0.31279 0.0
C1050 C 0.21787 0.88604 0.28942 0.0
C1051 C 0.19213 0.87129 0.29619 0.0
C1052 C 0.17906 0.87406 0.32614 0.0
C1053 C 0.14444 0.98447 0.45482 0.0
C1054 C 0.12467 0.98512 0.43753 0.0
C1055 C 0.15879 0.96753 0.44416 0.0
C1056 C 0.1541 0.95256 0.41565 0.0
C1057 C 0.13899 0.95777 0.39531 0.0
C1058 C 0.12389 0.97395 0.40649 0.0
C1059 C 0.15764 0.92761 0.41157 0.0
C1060 C 0.17592 0.92188 0.38773 0.0
C1061 C 0.14043 0.9086 0.42876 0.0
C1062 C 0.11643 0.91148 0.44847 0.0
C1063 C 0.09534 0.91352 0.43437 0.0
C1064 C 0.07111 0.91224 0.45192 0.0
C1065 C 0.06759 0.90845 0.48346 0.0
C1066 C 0.08827 0.90588 0.49745 0.0
C1067 C 0.11267 0.90754 0.48013 0.0
H1068 H 0.04879 0.9073 0.49702 0.0
H1069 H 0.22764 0.88431 0.26597 0.0
H1070 H 0.25157 0.88955 0.63291 0.0
H1071 H 0.22244 0.90443 0.60766 0.0
H1072 H 0.15603 0.86532 0.6673 0.0
H1073 H 0.18502 0.8511 0.69387 0.0
H1074 H 0.1621 0.86506 0.58504 0.0
H1075 H 0.15231 0.90862 0.69372 0.0
H1076 H 0.17313 0.93213 0.74053 0.0
H1077 H 0.22665 0.98604 0.68374 0.0
H1078 H 0.20628 0.9626 0.63657 0.0
H1079 H 0.06739 0.94294 0.58803 0.0
H1080 H 0.09127 0.91983 0.60994 0.0
H1081 H 0.1559 0.94068 0.53833 0.0
H1082 H 0.13195 0.96413 0.51638 0.0
H1083 H 0.14853 0.94771 0.62719 0.0
H1084 H 0.16851 0.87847 0.52342 0.0
H1085 H 0.14791 0.85202 0.47796 0.0
H1086 H 0.07142 0.84713 0.52688 0.0
H1087 H 0.09162 0.87342 0.57264 0.0
C1088 C 0.23084 0.88405 0.64086 0.0
C1089 C 0.22077 0.86888 0.6654 0.0
C1090 C 0.21421 0.89247 0.62617 0.0
C1091 C 0.18723 0.88579 0.6356 0.0
C1092 C 0.17688 0.87043 0.65964 0.0
C1093 C 0.19352 0.86221 0.67462 0.0
C1094 C 0.17016 0.89608 0.6213 0.0
C1095 C 0.15902 0.88308 0.59421 0.0
C1096 C 0.16618 0.91946 0.63346 0.0
C1097 C 0.17795 0.93384 0.66174 0.0
C1098 C 0.1686 0.92543 0.69127 0.0
C1099 C 0.1803 0.93873 0.71783 0.0
C1100 C 0.20123 0.96054 0.71511 0.0
C1101 C 0.21045 0.96913 0.68582 0.0
C1102 C 0.19883 0.95587 0.65918 0.0
C1103 C 0.0866 0.94234 0.57679 0.0
C1104 C 0.09792 0.95506 0.55045 0.0
C1105 C 0.10012 0.92914 0.58926 0.0
C1106 C 0.12513 0.92846 0.57553 0.0
C1107 C 0.13642 0.94086 0.54893 0.0
C1108 C 0.12285 0.9542 0.53645 0.0
C1109 C 0.14024 0.91664 0.59086 0.0
C1110 C 0.15137 0.92959 0.61803 0.0
C1111 C 0.14384 0.89303 0.57895 0.0
C1112 C 0.13156 0.87813 0.55119 0.0
C1113 C 0.1473 0.87177 0.52438 0.0
C1114 C 0.1357 0.85677 0.49862 0.0
C1115 C 0.10836 0.84793 0.4995 0.0
C1116 C 0.09258 0.85402 0.5262 0.0
C1117 C 0.10409 0.86908 0.55198 0.0
H1118 H 0.09942 0.83639 0.47949 0.0
H1119 H 0.21028 0.97081 0.73569 0.0
H1120 H 0.21039 0.24538 0.69664 0.0
H1121 H 0.17701 0.21734 0.66496 0.0
H1122 H 0.20382 0.15468 0.67642 0.0
H1123 H 0.23809 0.18288 0.70713 0.0
H1124 H 0.19359 0.15224 0.61724 0.0
H1125 H 0.14839 0.16417 0.7189 0.0
H1126 H 0.13547 0.18932 0.76658 0.0
H1127 H 0.09864 0.22406 0.71217 0.0
H1128 H 0.11177 0.19944 0.66406 0.0
H1129 H 0.07895 0.05547 0.57643 0.0
H1130 H 0.11424 0.08444 0.60463 0.0
H1131 H 0.0925 0.14719 0.58283 0.0
H1132 H 0.05702 0.11827 0.55433 0.0
H1133 H 0.10013 0.14965 0.6467 0.0
H1134 H 0.14524 0.13602 0.54479 0.0
H1135 H 0.15779 0.10959 0.49817 0.0
H1136 H 0.19434 0.07632 0.55474 0.0
H1137 H 0.1815 0.10218 0.60182 0.0
C1138 C 0.20917 0.22562 0.69252 0.0
C1139 C 0.22663 0.21631 0.7049 0.0
C1140 C 0.19002 0.20959 0.67443 0.0
C1141 C 0.1876 0.18381 0.66868 0.0
C1142 C 0.20522 0.17448 0.68065 0.0
C1143 C 0.22459 0.19058 0.69854 0.0
C1144 C 0.16641 0.16663 0.65058 0.0
C1145 C 0.17314 0.15148 0.62393 0.0
C1146 C 0.13973 0.16582 0.65893 0.0
C1147 C 0.1312 0.18011 0.68789 0.0
C1148 C 0.13762 0.17725 0.7171 0.0
C1149 C 0.13028 0.19142 0.7442 0.0
C1150 C 0.11627 0.2083 0.7424 0.0
C1151 C 0.1095 0.21099 0.71352 0.0
C1152 C 0.11687 0.19692 0.68634 0.0
C1153 C 0.08163 0.07543 0.57753 0.0
C1154 C 0.06503 0.08454 0.56321 0.0
C1155 C 0.1019 0.09196 0.59361 0.0
C1156 C 0.10602 0.11796 0.59579 0.0
C1157 C 0.08959 0.12718 0.58149 0.0
C1158 C 0.06939 0.11063 0.56513 0.0
C1159 C 0.12733 0.13539 0.61336 0.0
C1160 C 0.1206 0.15051 0.63999 0.0
C1161 C 0.15395 0.13596 0.60516 0.0
C1162 C 0.16223 0.12086 0.57682 0.0
C1163 C 0.1558 0.12294 0.54729 0.0
C1164 C 0.16297 0.10808 0.52079 0.0
C1165 C 0.17682 0.09126 0.52349 0.0
C1166 C 0.1836 0.08934 0.55269 0.0
C1167 C 0.17638 0.10409 0.57928 0.0
H1168 H 0.18235 0.07975 0.50295 0.0
H1169 H 0.11062 0.21928 0.7634 0.0
H1170 H 0.84154 0.2287 0.63645 0.0
H1171 H 0.83261 0.1878 0.60498 0.0
H1172 H 0.91535 0.20146 0.57566 0.0
H1173 H 0.9247 0.24107 0.60911 0.0
H1174 H 0.85627 0.16 0.53796 0.0
H1175 H 0.92697 0.17662 0.62375 0.0
H1176 H 0.93736 0.19867 0.67607 0.0
H1177 H 0.85521 0.18025 0.70854 0.0
H1178 H 0.84467 0.15825 0.65605 0.0
H1179 H 0.96302 0.11887 0.52682 0.0
H1180 H 0.92597 0.13619 0.53326 0.0
H1181 H 0.87638 0.07079 0.57535 0.0
H1182 H 0.91315 0.05231 0.56639 0.0
H1183 H 0.89121 0.1225 0.61233 0.0
H1184 H 0.85046 0.07673 0.5316 0.0
H1185 H 0.83948 0.05246 0.48123 0.0
H1186 H 0.85603 0.12041 0.43898 0.0
H1187 H 0.86895 0.14531 0.48836 0.0
C1188 C 0.85775 0.2233 0.62246 0.0
C1189 C 0.88392 0.23738 0.62644 0.0
C1190 C 0.85251 0.20017 0.60409 0.0
C1191 C 0.87339 0.19169 0.58858 0.0
C1192 C 0.89905 0.20791 0.58767 0.0
C1193 C 0.90438 0.23059 0.60685 0.0
C1194 C 0.87035 0.16473 0.58287 0.0
C1195 C 0.86366 0.15138 0.55389 0.0
C1196 C 0.87826 0.15331 0.60503 0.0
C1197 C 0.88489 0.16643 0.63619 0.0
C1198 C 0.91117 0.17748 0.64207 0.0
C1199 C 0.91711 0.18997 0.67163 0.0
C1200 C 0.8969 0.19117 0.69549 0.0
C1201 C 0.87077 0.1797 0.68988 0.0
C1202 C 0.86481 0.16739 0.6603 0.0
C1203 C 0.94406 0.10801 0.53682 0.0
C1204 C 0.94069 0.08458 0.54656 0.0
C1205 C 0.92287 0.1176 0.53987 0.0
C1206 C 0.89845 0.10432 0.55398 0.0
C1207 C 0.89495 0.08075 0.56349 0.0
C1208 C 0.91594 0.07058 0.55901 0.0
C1209 C 0.87981 0.1185 0.56588 0.0
C1210 C 0.88244 0.13002 0.59645 0.0
C1211 C 0.86813 0.12779 0.54503 0.0
C1212 C 0.86137 0.11317 0.51416 0.0
C1213 C 0.85266 0.08671 0.51149 0.0
C1214 C 0.84601 0.07275 0.48295 0.0
C1215 C 0.84733 0.0849 0.45682 0.0
C1216 C 0.85544 0.11105 0.45916 0.0
C1217 C 0.86259 0.12514 0.48751 0.0
H1218 H 0.84183 0.07405 0.43484 0.0
H1219 H 0.90149 0.20082 0.71836 0.0
H1220 H 0.80401 0.83789 0.72239 0.0
H1221 H 0.83407 0.87339 0.69711 0.0
H1222 H 0.88845 0.82975 0.66532 0.0
H1223 H 0.85897 0.79477 0.69202 0.0
H1224 H 0.91435 0.8746 0.68363 0.0
H1225 H 0.84372 0.83902 0.61786 0.0
H1226 H 0.79756 0.82558 0.60615 0.0
H1227 H 0.7926 0.90068 0.63271 0.0
H1228 H 0.8386 0.91454 0.64488 0.0
H1229 H 0.98636 0.92228 0.551 0.0
H1230 H 0.95079 0.89671 0.58369 0.0
H1231 H 0.92509 0.9617 0.62143 0.0
H1232 H 0.96121 0.98786 0.58837 0.0
H1233 H 0.8836 0.91292 0.6063 0.0
H1234 H 0.95859 0.94797 0.66486 0.0
H1235 H 1.00569 0.95904 0.67148 0.0
H1236 H 1.00309 0.88128 0.65339 0.0
H1237 H 0.95608 0.86978 0.64615 0.0
C1238 C 0.82246 0.83603 0.71005 0.0
C1239 C 0.82929 0.81373 0.70887 0.0
C1240 C 0.83953 0.85622 0.69552 0.0
C1241 C 0.86328 0.85408 0.67878 0.0
C1242 C 0.87022 0.83184 0.67808 0.0
C1243 C 0.85343 0.81188 0.69323 0.0
C1244 C 0.88096 0.87481 0.66172 0.0
C1245 C 0.90757 0.88288 0.66668 0.0
C1246 C 0.87205 0.88613 0.64013 0.0
C1247 C 0.84447 0.87775 0.63264 0.0
C1248 C 0.83271 0.85262 0.62141 0.0
C1249 C 0.80661 0.84492 0.61468 0.0
C1250 C 0.79215 0.86222 0.61884 0.0
C1251 C 0.8038 0.88728 0.62959 0.0
C1252 C 0.82988 0.89508 0.63639 0.0
C1253 C 0.97303 0.93119 0.56599 0.0
C1254 C 0.9768 0.95715 0.56762 0.0
C1255 C 0.95271 0.91652 0.58459 0.0
C1256 C 0.93578 0.92748 0.60532 0.0
C1257 C 0.93822 0.95306 0.60562 0.0
C1258 C 0.95872 0.96791 0.58678 0.0
C1259 C 0.91685 0.91202 0.62775 0.0
C1260 C 0.89011 0.90494 0.62379 0.0
C1261 C 0.92567 0.9012 0.64983 0.0
C1262 C 0.95383 0.90805 0.65481 0.0
C1263 C 0.9681 0.93325 0.66212 0.0
C1264 C 0.99478 0.9396 0.66599 0.0
C1265 C 1.00739 0.92088 0.66281 0.0
C1266 C 0.99331 0.89576 0.65585 0.0
C1267 C 0.96664 0.88932 0.6519 0.0
H1268 H 1.02805 0.92584 0.66578 0.0
H1269 H 0.77194 0.85621 0.61364 0.0
H1270 H 0.35733 0.24017 0.21262 0.0
H1271 H 0.38327 0.21311 0.18505 0.0
H1272 H 0.31259 0.15798 0.15713 0.0
H1273 H 0.28643 0.18451 0.18619 0.0
H1274 H 0.34253 0.13383 0.17065 0.0
H1275 H 0.35967 0.19935 0.10546 0.0
H1276 H 0.3725 0.2431 0.09324 0.0
H1277 H 0.44898 0.25539 0.12193 0.0
H1278 H 0.43646 0.2118 0.13478 0.0
H1279 H 0.41506 0.06201 0.06164 0.0
H1280 H 0.38546 0.08675 0.08672 0.0
H1281 H 0.45206 0.14718 0.11552 0.0
H1282 H 0.48144 0.12306 0.08982 0.0
H1283 H 0.42197 0.16797 0.09903 0.0
H1284 H 0.40313 0.10236 0.16691 0.0
H1285 H 0.38902 0.05878 0.18011 0.0
H1286 H 0.31467 0.04662 0.14575 0.0
H1287 H 0.32846 0.09005 0.13208 0.0
C1288 C 0.34717 0.2223 0.20065 0.0
C1289 C 0.31956 0.21493 0.20147 0.0
C1290 C 0.36219 0.20678 0.18449 0.0
C1291 C 0.35028 0.1834 0.16804 0.0
C1292 C 0.32264 0.17584 0.16923 0.0
C1293 C 0.30756 0.19128 0.1857 0.0
C1294 C 0.36656 0.16687 0.15012 0.0
C1295 C 0.35968 0.14132 0.15465 0.0
C1296 C 0.38936 0.17624 0.12936 0.0
C1297 C 0.39707 0.20236 0.12127 0.0
C1298 C 0.37918 0.21142 0.1093 0.0
C1299 C 0.3864 0.23619 0.10226 0.0
C1300 C 0.41153 0.25203 0.10683 0.0
C1301 C 0.42952 0.24311 0.1184 0.0
C1302 C 0.42238 0.21836 0.12554 0.0
C1303 C 0.42342 0.08052 0.07343 0.0
C1304 C 0.45091 0.09022 0.07363 0.0
C1305 C 0.40634 0.09475 0.08809 0.0
C1306 C 0.41609 0.11908 0.10385 0.0
C1307 C 0.44356 0.12867 0.1038 0.0
C1308 C 0.46053 0.11462 0.08904 0.0
C1309 C 0.39827 0.13489 0.11991 0.0
C1310 C 0.40483 0.16039 0.11498 0.0
C1311 C 0.37511 0.12542 0.14018 0.0
C1312 C 0.36695 0.0993 0.14812 0.0
C1313 C 0.38387 0.09031 0.16194 0.0
C1314 C 0.37591 0.06566 0.16956 0.0
C1315 C 0.35101 0.0499 0.16365 0.0
C1316 C 0.33398 0.05881 0.15023 0.0
C1317 C 0.34184 0.08343 0.14256 0.0
H1318 H 0.34489 0.03083 0.16956 0.0
H1319 H 0.41709 0.2712 0.10138 0.0
H1320 H 0.83462 0.28891 0.16702 0.0
H1321 H 0.86648 0.32031 0.13663 0.0
H1322 H 0.85739 0.37878 0.20998 0.0
H1323 H 0.82567 0.3476 0.24032 0.0
H1324 H 0.85448 0.39242 0.15524 0.0
H1325 H 0.92896 0.3724 0.19249 0.0
H1326 H 0.9558 0.34632 0.2026 0.0
H1327 H 0.94142 0.30215 0.1139 0.0
H1328 H 0.91533 0.32864 0.10289 0.0
H1329 H 0.97402 0.48517 0.09454 0.0
H1330 H 0.93708 0.45843 0.12605 0.0
H1331 H 0.93398 0.39649 0.05358 0.0
H1332 H 0.97003 0.42291 0.02225 0.0
H1333 H 0.94291 0.3868 0.11007 0.0
H1334 H 0.88388 0.42056 0.06958 0.0
H1335 H 0.86759 0.45464 0.05874 0.0
H1336 H 0.8556 0.47695 0.15743 0.0
H1337 H 0.87228 0.4432 0.16862 0.0
C1338 C 0.83963 0.30843 0.17678 0.0
C1339 C 0.8273 0.31577 0.20588 0.0
C1340 C 0.85798 0.32638 0.15948 0.0
C1341 C 0.8645 0.352 0.17104 0.0
C1342 C 0.85266 0.35921 0.20045 0.0
C1343 C 0.83443 0.34132 0.21774 0.0
C1344 C 0.8825 0.37138 0.15184 0.0
C1345 C 0.87394 0.39133 0.14566 0.0
C1346 C 0.90778 0.37011 0.13898 0.0
C1347 C 0.91981 0.35201 0.14725 0.0
C1348 C 0.93123 0.35685 0.17543 0.0
C1349 C 0.94671 0.34234 0.18103 0.0
C1350 C 0.95032 0.32259 0.1589 0.0
C1351 C 0.93858 0.31741 0.13104 0.0
C1352 C 0.92358 0.33224 0.12503 0.0
C1353 C 0.96466 0.46614 0.08499 0.0
C1354 C 0.9749 0.45595 0.05621 0.0
C1355 C 0.94368 0.45087 0.10296 0.0
C1356 C 0.93284 0.42542 0.09214 0.0
C1357 C 0.9419 0.41602 0.06233 0.0
C1358 C 0.96258 0.43113 0.04451 0.0
C1359 C 0.91479 0.4075 0.11297 0.0
C1360 C 0.9234 0.38789 0.11957 0.0
C1361 C 0.88982 0.40942 0.12639 0.0
C1362 C 0.87958 0.42956 0.11983 0.0
C1363 C 0.878 0.4329 0.08886 0.0
C1364 C 0.86865 0.45211 0.08268 0.0
C1365 C 0.86061 0.468 0.10739 0.0
C1366 C 0.86186 0.46465 0.1383 0.0
C1367 C 0.87125 0.44546 0.14456 0.0
H1368 H 0.85336 0.48287 0.1026 0.0
H1369 H 0.96211 0.31122 0.16341 0.0
H1370 H 0.73826 0.85705 0.12478 0.0
H1371 H 0.71469 0.86886 0.08802 0.0
H1372 H 0.64398 0.85186 0.15207 0.0
H1373 H 0.66736 0.83987 0.18865 0.0
H1374 H 0.6341 0.83758 0.09024 0.0
H1375 H 0.68424 0.90974 0.1539 0.0
H1376 H 0.72466 0.93826 0.17408 0.0
H1377 H 0.75738 0.95423 0.08063 0.0
H1378 H 0.71734 0.92538 0.05984 0.0
H1379 H 0.55877 0.91435 0.06549 0.0
H1380 H 0.58442 0.89119 0.084 0.0
H1381 H 0.65115 0.92459 0.0201 0.0
H1382 H 0.62585 0.94918 0.00346 0.0
H1383 H 0.66632 0.92755 0.0734 0.0
H1384 H 0.61167 0.8611 0.01087 0.0
H1385 H 0.56948 0.83515 0.99277 0.0
H1386 H 0.54454 0.80812 0.0827 0.0
H1387 H 0.58592 0.83504 0.1021 0.0
C1388 C 0.71754 0.85531 0.13062 0.0
C1389 C 0.70464 0.84786 0.15965 0.0
C1390 C 0.70416 0.86214 0.10971 0.0
C1391 C 0.67771 0.86151 0.11755 0.0
C1392 C 0.6644 0.85252 0.14563 0.0
C1393 C 0.67779 0.84587 0.16658 0.0
C1394 C 0.6644 0.87234 0.09817 0.0
C1395 C 0.64105 0.85723 0.08644 0.0
C1396 C 0.67392 0.89784 0.09271 0.0
C1397 C 0.69799 0.91508 0.10527 0.0
C1398 C 0.70018 0.9191 0.13763 0.0
C1399 C 0.723 0.93536 0.14918 0.0
C1400 C 0.74362 0.94797 0.12864 0.0
C1401 C 0.74144 0.94438 0.0965 0.0
C1402 C 0.71871 0.92805 0.08482 0.0
C1403 C 0.57877 0.91625 0.05507 0.0
C1404 C 0.59031 0.93274 0.03246 0.0
C1405 C 0.59337 0.90297 0.06547 0.0
C1406 C 0.61956 0.90561 0.05287 0.0
C1407 C 0.63093 0.92202 0.02992 0.0
C1408 C 0.61649 0.93583 0.02019 0.0
C1409 C 0.63564 0.89291 0.06559 0.0
C1410 C 0.65954 0.90771 0.07628 0.0
C1411 C 0.62656 0.86711 0.06998 0.0
C1412 C 0.60198 0.85021 0.05801 0.0
C1413 C 0.59717 0.84975 0.0269 0.0
C1414 C 0.57336 0.83487 0.01639 0.0
C1415 C 0.55446 0.8198 0.03643 0.0
C1416 C 0.55924 0.81974 0.06716 0.0
C1417 C 0.58283 0.83491 0.07799 0.0
H1418 H 0.53608 0.80824 0.02817 0.0
H1419 H 0.76126 0.96059 0.13763 0.0
H1420 H 0.26698 0.70075 0.16837 0.0
H1421 H 0.23909 0.66825 0.13326 0.0
H1422 H 0.16992 0.68095 0.18859 0.0
H1423 H 0.19695 0.71205 0.22366 0.0
H1424 H 0.16189 0.63355 0.1752 0.0
H1425 H 0.19602 0.70578 0.11645 0.0
H1426 H 0.23108 0.73824 0.09032 0.0
H1427 H 0.25831 0.68115 0.03077 0.0
H1428 H 0.22343 0.64833 0.05663 0.0
H1429 H 0.06276 0.6072 0.07063 0.0
H1430 H 0.10093 0.63214 0.09753 0.0
H1431 H 0.14115 0.57656 0.0618 0.0
H1432 H 0.10263 0.55099 0.03553 0.0
H1433 H 0.1683 0.63998 0.06152 0.0
H1434 H 0.13057 0.56757 0.12133 0.0
H1435 H 0.09319 0.53726 0.14758 0.0
H1436 H 0.07129 0.59781 0.20612 0.0
H1437 H 0.10832 0.62849 0.17977 0.0
C1438 C 0.24583 0.69636 0.17311 0.0
C1439 C 0.23437 0.70924 0.1988 0.0
C1440 C 0.22989 0.67792 0.15293 0.0
C1441 C 0.20229 0.67221 0.15808 0.0
C1442 C 0.19105 0.68481 0.18402 0.0
C1443 C 0.20675 0.70289 0.20406 0.0
C1444 C 0.18451 0.65347 0.13685 0.0
C1445 C 0.16351 0.63497 0.15031 0.0
C1446 C 0.18651 0.65494 0.10425 0.0
C1447 C 0.20736 0.67464 0.08869 0.0
C1448 C 0.2096 0.70017 0.09792 0.0
C1449 C 0.22941 0.71863 0.08315 0.0
C1450 C 0.247 0.71177 0.05903 0.0
C1451 C 0.24472 0.68644 0.04951 0.0
C1452 C 0.22491 0.6679 0.06417 0.0
C1453 C 0.0798 0.60036 0.06822 0.0
C1454 C 0.07962 0.57705 0.05106 0.0
C1455 C 0.10159 0.61465 0.0836 0.0
C1456 C 0.12382 0.60618 0.08161 0.0
C1457 C 0.12416 0.58339 0.06358 0.0
C1458 C 0.10211 0.56878 0.04874 0.0
C1459 C 0.14583 0.62055 0.10015 0.0
C1460 C 0.16728 0.63827 0.08624 0.0
C1461 C 0.14418 0.61864 0.13245 0.0
C1462 C 0.12196 0.60028 0.14831 0.0
C1463 C 0.11758 0.57441 0.13953 0.0
C1464 C 0.09651 0.55717 0.15448 0.0
C1465 C 0.07981 0.56561 0.17843 0.0
C1466 C 0.0842 0.59131 0.18752 0.0
C1467 C 0.10522 0.60862 0.17258 0.0
H1468 H 0.06352 0.55223 0.19001 0.0
H1469 H 0.26233 0.7261 0.04764 0.0
H1470 H 0.3274 0.78002 0.84043 0.0
H1471 H 0.36014 0.81008 0.87094 0.0
H1472 H 0.35076 0.8704 0.82722 0.0
H1473 H 0.32035 0.83996 0.79396 0.0
H1474 H 0.39799 0.87975 0.82966 0.0
H1475 H 0.32635 0.85557 0.90871 0.0
H1476 H 0.29127 0.82637 0.9394 0.0
H1477 H 0.34859 0.79915 0.97082 0.0
H1478 H 0.384 0.82788 0.93987 0.0
H1479 H 0.47104 0.97446 0.93853 0.0
H1480 H 0.43378 0.94646 0.91224 0.0
H1481 H 0.45468 0.88222 0.93063 0.0
H1482 H 0.49191 0.90993 0.95679 0.0
H1483 H 0.40069 0.87699 0.94263 0.0
H1484 H 0.47167 0.90191 0.8607 0.0
H1485 H 0.50552 0.93264 0.83066 0.0
H1486 H 0.44628 0.96134 0.80674 0.0
H1487 H 0.41211 0.93103 0.83707 0.0
C1488 C 0.33233 0.7997 0.83727 0.0
C1489 C 0.32147 0.80748 0.8144 0.0
C1490 C 0.35086 0.81702 0.85514 0.0
C1491 C 0.3578 0.8428 0.85203 0.0
C1492 C 0.34597 0.8507 0.83017 0.0
C1493 C 0.32823 0.83325 0.81138 0.0
C1494 C 0.37823 0.86135 0.87035 0.0
C1495 C 0.39811 0.87937 0.85452 0.0
C1496 C 0.37902 0.86081 0.90276 0.0
C1497 C 0.35781 0.84376 0.92177 0.0
C1498 C 0.33146 0.84327 0.92204 0.0
C1499 C 0.31152 0.82679 0.93947 0.0
C1500 C 0.3177 0.81088 0.95701 0.0
C1501 C 0.34384 0.81147 0.95721 0.0
C1502 C 0.36385 0.82786 0.93974 0.0
C1503 C 0.46762 0.95438 0.93717 0.0
C1504 C 0.48464 0.94447 0.94956 0.0
C1505 C 0.44637 0.93841 0.92204 0.0
C1506 C 0.44162 0.91227 0.91923 0.0
C1507 C 0.45802 0.90233 0.93247 0.0
C1508 C 0.47938 0.91824 0.9473 0.0
C1509 C 0.41996 0.89517 0.90188 0.0
C1510 C 0.40009 0.87742 0.91787 0.0
C1511 C 0.41884 0.89629 0.86983 0.0
C1512 C 0.43938 0.91441 0.85147 0.0
C1513 C 0.46589 0.91493 0.84927 0.0
C1514 C 0.48513 0.93225 0.83215 0.0
C1515 C 0.47807 0.94899 0.81689 0.0
C1516 C 0.45173 0.9484 0.81863 0.0
C1517 C 0.43242 0.93115 0.83578 0.0
H1518 H 0.49299 0.96238 0.80364 0.0
H1519 H 0.30222 0.79813 0.97048 0.0
H1520 H 0.2485 0.30425 0.84599 0.0
H1521 H 0.22351 0.33194 0.87424 0.0
H1522 H 0.20273 0.34375 0.78673 0.0
H1523 H 0.22829 0.31664 0.75852 0.0
H1524 H 0.21032 0.38493 0.81797 0.0
H1525 H 0.15771 0.30463 0.84721 0.0
H1526 H 0.14826 0.26401 0.86803 0.0
H1527 H 0.17323 0.30231 0.95633 0.0
H1528 H 0.1827 0.3431 0.93614 0.0
H1529 H 0.09813 0.42749 0.88043 0.0
H1530 H 0.12659 0.40156 0.8565 0.0
H1531 H 0.16544 0.41774 0.94039 0.0
H1532 H 0.13729 0.44454 0.96427 0.0
H1533 H 0.14962 0.36367 0.9138 0.0
H1534 H 0.19799 0.44483 0.88186 0.0
H1535 H 0.20322 0.48373 0.85881 0.0
H1536 H 0.182 0.44076 0.77128 0.0
H1537 H 0.17616 0.40155 0.794 0.0
C1538 C 0.23831 0.31235 0.83272 0.0
C1539 C 0.24022 0.30747 0.79979 0.0
C1540 C 0.2238 0.32835 0.84904 0.0
C1541 C 0.21032 0.3399 0.83307 0.0
C1542 C 0.21258 0.33528 0.80011 0.0
C1543 C 0.22725 0.31949 0.78383 0.0
C1544 C 0.19444 0.35711 0.85026 0.0
C1545 C 0.19686 0.3799 0.83868 0.0
C1546 C 0.17691 0.35137 0.87782 0.0
C1547 C 0.17104 0.32689 0.89012 0.0
C1548 C 0.1612 0.30436 0.87107 0.0
C1549 C 0.15574 0.2813 0.8828 0.0
C1550 C 0.1599 0.28057 0.91361 0.0
C1551 C 0.1697 0.30288 0.93264 0.0
C1552 C 0.17508 0.32597 0.92109 0.0
C1553 C 0.11304 0.42596 0.89369 0.0
C1554 C 0.11565 0.43867 0.92414 0.0
C1555 C 0.12927 0.41092 0.87996 0.0
C1556 C 0.14838 0.40751 0.89641 0.0
C1557 C 0.15098 0.41999 0.92701 0.0
C1558 C 0.13505 0.43561 0.94056 0.0
C1559 C 0.16554 0.39112 0.88125 0.0
C1560 C 0.16323 0.36854 0.89315 0.0
C1561 C 0.18269 0.39671 0.85354 0.0
C1562 C 0.18641 0.42025 0.83973 0.0
C1563 C 0.19422 0.44366 0.85778 0.0
C1564 C 0.19733 0.46577 0.84476 0.0
C1565 C 0.19289 0.46471 0.81363 0.0
C1566 C 0.1854 0.44155 0.79542 0.0
C1567 C 0.1822 0.41938 0.80835 0.0
H1568 H 0.19532 0.48185 0.80359 0.0
H1569 H 0.1556 0.26272 0.9227 0.0
H1570 H 0.70819 0.19616 0.77523 0.0
H1571 H 0.67641 0.1657 0.80615 0.0
H1572 H 0.73355 0.17408 0.87014 0.0
H1573 H 0.76582 0.20484 0.83895 0.0
H1574 H 0.70513 0.12427 0.8564 0.0
H1575 H 0.68664 0.20181 0.89131 0.0
H1576 H 0.67934 0.2418 0.88454 0.0
H1577 H 0.61043 0.20167 0.83909 0.0
H1578 H 0.61762 0.16141 0.84497 0.0
H1579 H 0.60161 0.05763 0.96424 0.0
H1580 H 0.63954 0.08786 0.93974 0.0
H1581 H 0.59219 0.09397 0.87087 0.0
H1582 H 0.55414 0.06437 0.89568 0.0
H1583 H 0.61874 0.139 0.89362 0.0
H1584 H 0.64049 0.06172 0.85434 0.0
H1585 H 0.6483 0.02193 0.86102 0.0
H1586 H 0.71136 0.06225 0.91619 0.0
H1587 H 0.70366 0.10226 0.91017 0.0
C1588 C 0.71415 0.1916 0.79585 0.0
C1589 C 0.73966 0.20293 0.80454 0.0
C1590 C 0.69588 0.17414 0.81355 0.0
C1591 C 0.70247 0.16776 0.84066 0.0
C1592 C 0.72803 0.17871 0.84928 0.0
C1593 C 0.74644 0.19628 0.83146 0.0
C1594 C 0.68217 0.15012 0.86008 0.0
C1595 C 0.6864 0.12766 0.86505 0.0
C1596 C 0.65765 0.15445 0.87119 0.0
C1597 C 0.65273 0.17858 0.86849 0.0
C1598 C 0.66998 0.2015 0.87976 0.0
C1599 C 0.66588 0.22422 0.87606 0.0
C1600 C 0.64443 0.22426 0.86143 0.0
C1601 C 0.62703 0.20159 0.85046 0.0
C1602 C 0.63108 0.17881 0.85399 0.0
C1603 C 0.59942 0.065 0.94348 0.0
C1604 C 0.57483 0.05845 0.93186 0.0
C1605 C 0.62113 0.08238 0.92953 0.0
C1606 C 0.61881 0.09325 0.90336 0.0
C1607 C 0.59449 0.08604 0.89114 0.0
C1608 C 0.57277 0.06891 0.90522 0.0
C1609 C 0.64131 0.11268 0.88908 0.0
C1610 C 0.63752 0.13563 0.88524 0.0
C1611 C 0.66624 0.10883 0.8792 0.0
C1612 C 0.67138 0.08491 0.882 0.0
C1613 C 0.65597 0.06207 0.86797 0.0
C1614 C 0.66036 0.03949 0.87165 0.0
C1615 C 0.68028 0.03956 0.88907 0.0
C1616 C 0.69593 0.06222 0.90272 0.0
C1617 C 0.69158 0.08486 0.89916 0.0
H1618 H 0.68362 0.02204 0.89194 0.0
H1619 H 0.64124 0.24185 0.85869 0.0
H1620 H 0.92112 0.75104 0.89052 0.0
H1621 H 0.94106 0.72076 0.90411 0.0
H1622 H 0.86799 0.66225 0.89521 0.0
H1623 H 0.84797 0.69249 0.88165 0.0
H1624 H 0.88788 0.66302 0.94926 0.0
H1625 H 0.9158 0.66021 0.84177 0.0
H1626 H 0.93457 0.67558 0.79082 0.0
H1627 H 1.00969 0.70887 0.82565 0.0
H1628 H 0.99123 0.69394 0.87709 0.0
H1629 H 0.93469 0.56009 0.95307 0.0
H1630 H 0.91893 0.5896 0.93149 0.0
H1631 H 0.9867 0.64975 0.95787 0.0
H1632 H 1.00301 0.62004 0.97942 0.0
H1633 H 0.97007 0.64774 0.89381 0.0
H1634 H 0.93633 0.63989 1.00174 0.0
H1635 H 0.91372 0.61538 0.04436 0.0
H1636 H 0.84179 0.59366 1.00179 0.0
H1637 H 0.86463 0.61694 0.95715 0.0
C1638 C 0.90936 0.73172 0.89155 0.0
C1639 C 0.88299 0.72407 0.88535 0.0
C1640 C 0.92078 0.71445 0.89903 0.0
C1641 C 0.90595 0.68933 0.9006 0.0
C1642 C 0.87969 0.68159 0.89414 0.0
C1643 C 0.86834 0.6988 0.88632 0.0
C1644 C 0.9176 0.6714 0.91027 0.0
C1645 C 0.90567 0.65944 0.93695 0.0
C1646 C 0.94079 0.66683 0.8941 0.0
C1647 C 0.95204 0.67625 0.86344 0.0
C1648 C 0.93625 0.67107 0.83871 0.0
C1649 C 0.94685 0.67964 0.8097 0.0
C1650 C 0.97329 0.69329 0.80502 0.0
C1651 C 0.98919 0.69835 0.82935 0.0
C1652 C 0.97867 0.68982 0.85844 0.0
C1653 C 0.94634 0.57958 0.95431 0.0
C1654 C 0.97003 0.58781 0.96809 0.0
C1655 C 0.93741 0.59632 0.94166 0.0
C1656 C 0.95182 0.62168 0.94286 0.0
C1657 C 0.97556 0.6301 0.95644 0.0
C1658 C 0.98455 0.61326 0.96923 0.0
C1659 C 0.94043 0.63962 0.93289 0.0
C1660 C 0.95239 0.65152 0.90618 0.0
C1661 C 0.91655 0.64324 0.94824 0.0
C1662 C 0.90243 0.62992 0.97564 0.0
C1663 C 0.91588 0.62938 1.00083 0.0
C1664 C 0.90294 0.61563 0.0255 0.0
C1665 C 0.87625 0.60282 0.02601 0.0
C1666 C 0.86249 0.6036 1.00146 0.0
C1667 C 0.87549 0.617 0.9763 0.0
H1668 H 0.86625 0.59241 0.04545 0.0
H1669 H 0.98147 0.69988 0.78252 0.0
H1670 H 0.12815 0.28392 0.14242 0.0
H1671 H 0.11722 0.3085 0.10712 0.0
H1672 H 0.19197 0.36447 0.11588 0.0
H1673 H 0.20315 0.33958 0.15085 0.0
H1674 H 0.14695 0.38251 0.13041 0.0
H1675 H 0.18306 0.33138 0.04837 0.0
H1676 H 0.18759 0.29131 0.02008 0.0
H1677 H 0.10662 0.26911 1.00276 0.0
H1678 H 0.10146 0.30884 0.03155 0.0
H1679 H 0.12514 0.46145 0.03603 0.0
H1680 H 0.14634 0.43404 0.05376 0.0
H1681 H 0.0808 0.36997 0.03072 0.0
H1682 H 0.06017 0.39743 0.01134 0.0
H1683 H 0.12377 0.35619 0.02148 0.0
H1684 H 0.08432 0.40153 0.10619 0.0
H1685 H 0.0751 0.43858 0.13812 0.0
H1686 H 0.15633 0.46843 0.15409 0.0
H1687 H 0.16607 0.43168 0.12188 0.0
C1688 C 0.14239 0.30126 0.13631 0.0
C1689 C 0.16644 0.30995 0.14921 0.0
C1690 C 0.1362 0.31519 0.11609 0.0
C1691 C 0.15386 0.33819 0.10878 0.0
C1692 C 0.17819 0.34665 0.1211 0.0
C1693 C 0.18459 0.33246 0.14091 0.0
C1694 C 0.14573 0.3544 0.0908 0.0
C1695 C 0.14244 0.37705 0.10635 0.0
C1696 C 0.1387 0.34666 0.05996 0.0
C1697 C 0.14181 0.32291 0.04244 0.0
C1698 C 0.16615 0.31782 0.03883 0.0
C1699 C 0.16882 0.29517 0.02273 0.0
C1700 C 0.14734 0.27758 0.00986 0.0
C1701 C 0.12319 0.28268 0.01289 0.0
C1702 C 0.12038 0.30526 0.0291 0.0
C1703 C 0.11563 0.44141 0.03402 0.0
C1704 C 0.09102 0.43145 0.02265 0.0
C1705 C 0.12762 0.4258 0.04437 0.0
C1706 C 0.11475 0.40008 0.04457 0.0
C1707 C 0.09099 0.38981 0.03104 0.0
C1708 C 0.07925 0.40543 0.01991 0.0
C1709 C 0.12514 0.38445 0.06103 0.0
C1710 C 0.12864 0.36186 0.04537 0.0
C1711 C 0.1317 0.39188 0.09218 0.0
C1712 C 0.12597 0.41405 0.11134 0.0
C1713 C 0.10024 0.41612 0.11629 0.0
C1714 C 0.09492 0.43703 0.13447 0.0
C1715 C 0.11514 0.4559 0.14803 0.0
C1716 C 0.14071 0.45384 0.14351 0.0
C1717 C 0.14614 0.43298 0.12531 0.0
H1718 H 0.11097 0.47207 0.16212 0.0
H1719 H 0.14949 0.26009 0.99728 0.0
H1720 H 0.20253 0.70194 0.78107 0.0
H1721 H 0.17454 0.66961 0.81242 0.0
H1722 H 0.23825 0.67775 0.86659 0.0
H1723 H 0.26631 0.71146 0.83607 0.0
H1724 H 0.1997 0.62174 0.83436 0.0
H1725 H 0.20747 0.69356 0.91093 0.0
H1726 H 0.20911 0.7372 0.93136 0.0
H1727 H 0.13165 0.72507 0.90575 0.0
H1728 H 0.12989 0.6815 0.8843 0.0
H1729 H 0.10424 0.54835 0.94982 0.0
H1730 H 0.14352 0.57716 0.92482 0.0
H1731 H 0.09438 0.6065 0.88026 0.0
H1732 H 0.05536 0.57784 0.9044 0.0
H1733 H 0.13216 0.64371 0.91464 0.0
H1734 H 0.12648 0.57063 0.83724 0.0
H1735 H 0.12526 0.52641 0.82121 0.0
H1736 H 0.20067 0.54047 0.85375 0.0
H1737 H 0.20214 0.58474 0.87036 0.0
C1738 C 0.2106 0.69733 0.79995 0.0
C1739 C 0.23659 0.70976 0.80632 0.0
C1740 C 0.1946 0.67853 0.81763 0.0
C1741 C 0.20429 0.67124 0.84179 0.0
C1742 C 0.23038 0.68312 0.84801 0.0
C1743 C 0.24636 0.7024 0.83059 0.0
C1744 C 0.18631 0.65186 0.86089 0.0
C1745 C 0.18531 0.62654 0.85247 0.0
C1746 C 0.16739 0.65803 0.88423 0.0
C1747 C 0.16869 0.68442 0.8957 0.0
C1748 C 0.19099 0.70035 0.90912 0.0
C1749 C 0.1919 0.72502 0.92102 0.0
C1750 C 0.17045 0.73386 0.91999 0.0
C1751 C 0.14819 0.71815 0.90666 0.0
C1752 C 0.14727 0.69349 0.89453 0.0
C1753 C 0.1018 0.56056 0.93418 0.0
C1754 C 0.0765 0.56069 0.92927 0.0
C1755 C 0.12429 0.5771 0.92001 0.0
C1756 C 0.12188 0.59416 0.90088 0.0
C1757 C 0.09674 0.59366 0.8951 0.0
C1758 C 0.07438 0.57707 0.90888 0.0
C1759 C 0.14517 0.61347 0.88786 0.0
C1760 C 0.14692 0.63884 0.89712 0.0
C1761 C 0.16499 0.60727 0.86581 0.0
C1762 C 0.1643 0.58087 0.85531 0.0
C1763 C 0.14271 0.56424 0.84116 0.0
C1764 C 0.14199 0.53918 0.83194 0.0
C1765 C 0.16285 0.53062 0.83654 0.0
C1766 C 0.18452 0.54712 0.85024 0.0
C1767 C 0.18532 0.57219 0.85954 0.0
H1768 H 0.16224 0.51121 0.82943 0.0
H1769 H 0.17109 0.7529 0.92951 0.0
H1770 H 0.32516 0.14805 0.86056 0.0
H1771 H 0.35573 0.12994 0.87904 0.0
H1772 H 0.38383 0.19805 0.94009 0.0
H1773 H 0.35287 0.21597 0.92207 0.0
H1774 H 0.42419 0.1752 0.90756 0.0
H1775 H 0.34096 0.15534 0.9721 0.0
H1776 H 0.2928 0.13901 0.98173 0.0
H1777 H 0.29606 0.06644 0.9371 0.0
H1778 H 0.34423 0.08249 0.92671 0.0
H1779 H 0.48331 0.1128 0.99778 0.0
H1780 H 0.45902 0.13994 0.9847 0.0
H1781 H 0.40938 0.07623 0.93247 0.0
H1782 H 0.43259 0.04931 0.9459 0.0
H1783 H 0.38099 0.10186 0.96652 0.0
H1784 H 0.4617 0.12025 0.897 0.0
H1785 H 0.50964 0.135 0.88347 0.0
H1786 H 0.5115 0.20749 0.93275 0.0
H1787 H 0.46358 0.19303 0.94693 0.0
C1788 C 0.33827 0.15923 0.87745 0.0
C1789 C 0.33685 0.18327 0.89007 0.0
C1790 C 0.3556 0.14893 0.888 0.0
C1791 C 0.37181 0.16269 0.91102 0.0
C1792 C 0.37144 0.18725 0.9223 0.0
C1793 C 0.35381 0.19739 0.91212 0.0
C1794 C 0.3874 0.15062 0.92526 0.0
C1795 C 0.41487 0.15936 0.92082 0.0
C1796 C 0.37507 0.12985 0.94221 0.0
C1797 C 0.34613 0.1202 0.94832 0.0
C1798 C 0.33137 0.13598 0.96405 0.0
C1799 C 0.30408 0.12676 0.9697 0.0
C1800 C 0.29136 0.10172 0.95995 0.0
C1801 C 0.30592 0.08584 0.94458 0.0
C1802 C 0.33322 0.09499 0.9388 0.0
C1803 C 0.46707 0.10466 0.98373 0.0
C1804 C 0.46002 0.07895 0.9727 0.0
C1805 C 0.45336 0.12017 0.97613 0.0
C1806 C 0.4326 0.1101 0.95732 0.0
C1807 C 0.42531 0.08441 0.94702 0.0
C1808 C 0.43873 0.06902 0.9547 0.0
C1809 C 0.41797 0.12577 0.94797 0.0
C1810 C 0.39051 0.11784 0.95354 0.0
C1811 C 0.43037 0.1469 0.93155 0.0
C1812 C 0.45917 0.15545 0.92343 0.0
C1813 C 0.47239 0.13924 0.90525 0.0
C1814 C 0.49954 0.14757 0.89739 0.0
C1815 C 0.51363 0.17213 0.90736 0.0
C1816 C 0.50058 0.18844 0.92514 0.0
C1817 C 0.47344 0.18019 0.9331 0.0
H1818 H 0.53465 0.17856 0.90121 0.0
H1819 H 0.27023 0.09461 0.96439 0.0
H1820 H 0.817 0.33335 0.79629 0.0
H1821 H 0.8491 0.36578 0.82586 0.0
H1822 H 0.86945 0.30866 0.86413 0.0
H1823 H 0.8372 0.27618 0.83499 0.0
H1824 H 0.866 0.34631 0.90881 0.0
H1825 H 0.90844 0.33962 0.80389 0.0
H1826 H 0.91404 0.34006 0.74662 0.0
H1827 H 0.91028 0.41601 0.75852 0.0
H1828 H 0.90441 0.41598 0.81589 0.0
H1829 H 0.99168 0.41349 0.95625 0.0
H1830 H 0.95495 0.38484 0.93007 0.0
H1831 H 0.93604 0.44775 0.90411 0.0
H1832 H 0.97281 0.47677 0.93081 0.0
H1833 H 0.93715 0.40957 0.85391 0.0
H1834 H 0.89779 0.41768 0.95791 0.0
H1835 H 0.89267 0.41839 0.01506 0.0
H1836 H 0.88969 0.34055 0.00552 0.0
H1837 H 0.89556 0.33958 0.94797 0.0
C1838 C 0.82806 0.32764 0.81126 0.0
C1839 C 0.82433 0.30202 0.81325 0.0
C1840 C 0.84663 0.34626 0.828 0.0
C1841 C 0.86202 0.33977 0.84707 0.0
C1842 C 0.85791 0.31424 0.84961 0.0
C1843 C 0.83943 0.29562 0.83281 0.0
C1844 C 0.88254 0.35945 0.86413 0.0
C1845 C 0.88172 0.35993 0.89669 0.0
C1846 C 0.9027 0.37782 0.84864 0.0
C1847 C 0.90574 0.37772 0.81417 0.0
C1848 C 0.90855 0.35633 0.79429 0.0
C1849 C 0.91183 0.35653 0.76182 0.0
C1850 C 0.91252 0.37805 0.74897 0.0
C1851 C 0.90978 0.39938 0.76853 0.0
C1852 C 0.9065 0.39929 0.80102 0.0
C1853 C 0.97966 0.42132 0.94513 0.0
C1854 C 0.98527 0.44748 0.94561 0.0
C1855 C 0.95858 0.40486 0.93021 0.0
C1856 C 0.94266 0.41407 0.91508 0.0
C1857 C 0.94807 0.44019 0.91558 0.0
C1858 C 0.96898 0.45676 0.93103 0.0
C1859 C 0.9207 0.39622 0.89845 0.0
C1860 C 0.92132 0.39603 0.86601 0.0
C1861 C 0.90033 0.37815 0.91404 0.0
C1862 C 0.89735 0.37862 0.9486 0.0
C1863 C 0.89639 0.40078 0.96795 0.0
C1864 C 0.89327 0.4012 1.00047 0.0
C1865 C 0.89072 0.37947 0.01401 0.0
C1866 C 0.89159 0.35735 0.99499 0.0
C1867 C 0.89485 0.35686 0.9624 0.0
H1868 H 0.88801 0.37974 0.03922 0.0
H1869 H 0.91536 0.37826 0.72388 0.0
H1870 H 0.73731 0.82154 0.75586 0.0
H1871 H 0.71101 0.84841 0.78294 0.0
H1872 H 0.71018 0.81958 0.86968 0.0
H1873 H 0.73486 0.79129 0.84199 0.0
H1874 H 0.66475 0.82448 0.86874 0.0
H1875 H 0.75084 0.8832 0.84651 0.0
H1876 H 0.78961 0.90285 0.81127 0.0
H1877 H 0.74042 0.92464 0.75804 0.0
H1878 H 0.70137 0.90491 0.7928 0.0
H1879 H 0.60644 0.91103 0.96431 0.0
H1880 H 0.63539 0.88613 0.93987 0.0
H1881 H 0.6504 0.92518 0.85775 0.0
H1882 H 0.62435 0.95261 0.88472 0.0
H1883 H 0.68993 0.91498 0.85617 0.0
H1884 H 0.60443 0.85582 0.87188 0.0
H1885 H 0.5631 0.83151 0.89923 0.0
H1886 H 0.60676 0.80725 0.95725 0.0
H1887 H 0.64833 0.83152 0.93034 0.0
C1888 C 0.73166 0.82088 0.78075 0.0
C1889 C 0.73898 0.80438 0.79669 0.0
C1890 C 0.71671 0.83664 0.79646 0.0
C1891 C 0.70897 0.83701 0.82896 0.0
C1892 C 0.71593 0.82023 0.84481 0.0
C1893 C 0.7305 0.80414 0.82894 0.0
C1894 C 0.6932 0.85428 0.84623 0.0
C1895 C 0.67055 0.84437 0.86631 0.0
C1896 C 0.6997 0.8802 0.84252 0.0
C1897 C 0.72323 0.89252 0.82214 0.0
C1898 C 0.74833 0.89216 0.82725 0.0
C1899 C 0.77034 0.9033 0.80736 0.0
C1900 C 0.76748 0.91498 0.78242 0.0
C1901 C 0.74262 0.91561 0.77738 0.0
C1902 C 0.72056 0.9045 0.79719 0.0
C1903 C 0.61709 0.91529 0.9418 0.0
C1904 C 0.61418 0.935 0.9275 0.0
C1905 C 0.63297 0.90011 0.92695 0.0
C1906 C 0.64506 0.90267 0.89599 0.0
C1907 C 0.64184 0.92236 0.88154 0.0
C1908 C 0.62684 0.93828 0.89706 0.0
C1909 C 0.66101 0.88526 0.87884 0.0
C1910 C 0.68387 0.89514 0.8588 0.0
C1911 C 0.65428 0.8591 0.88196 0.0
C1912 C 0.62942 0.84566 0.89931 0.0
C1913 C 0.60517 0.8455 0.89069 0.0
C1914 C 0.58173 0.83165 0.90601 0.0
C1915 C 0.58232 0.81776 0.92985 0.0
C1916 C 0.60634 0.81792 0.93868 0.0
C1917 C 0.62984 0.83172 0.92342 0.0
H1918 H 0.56414 0.80691 0.94151 0.0
H1919 H 0.78454 0.92355 0.76701 0.0
H1920 H 0.79741 0.6838 0.22082 0.0
H1921 H 0.82427 0.65779 0.19283 0.0
H1922 H 0.88466 0.72427 0.1671 0.0
H1923 H 0.85721 0.75027 0.194 0.0
H1924 H 0.88456 0.69351 0.12125 0.0
H1925 H 0.88622 0.68301 0.22763 0.0
H1926 H 0.8679 0.67313 0.28121 0.0
H1927 H 0.82795 0.59793 0.24529 0.0
H1928 H 0.84581 0.60745 0.19144 0.0
H1929 H 0.98736 0.63098 0.08129 0.0
H1930 H 0.95991 0.65593 0.10986 0.0
H1931 H 0.89187 0.59164 0.10446 0.0
H1932 H 0.91976 0.56583 0.07639 0.0
H1933 H 0.89571 0.62145 0.16488 0.0
H1934 H 0.87729 0.65934 0.06301 0.0
H1935 H 0.89481 0.67844 0.01389 0.0
H1936 H 0.97142 0.70687 0.0457 0.0
H1937 H 0.95374 0.68999 0.096 0.0
C1938 C 0.81644 0.69299 0.20927 0.0
C1939 C 0.82499 0.71936 0.20997 0.0
C1940 C 0.83208 0.67795 0.19338 0.0
C1941 C 0.85721 0.68868 0.17815 0.0
C1942 C 0.86559 0.71508 0.17856 0.0
C1943 C 0.84978 0.73012 0.1941 0.0
C1944 C 0.87431 0.67259 0.161 0.0
C1945 C 0.88716 0.67799 0.13122 0.0
C1946 C 0.87787 0.65187 0.17319 0.0
C1947 C 0.86718 0.64601 0.20549 0.0
C1948 C 0.87341 0.66441 0.23115 0.0
C1949 C 0.86312 0.65887 0.26156 0.0
C1950 C 0.84672 0.63494 0.26664 0.0
C1951 C 0.84063 0.61647 0.24131 0.0
C1952 C 0.85086 0.62192 0.21085 0.0
C1953 C 0.9665 0.62195 0.08564 0.0
C1954 C 0.95604 0.59615 0.0757 0.0
C1955 C 0.95054 0.63666 0.10159 0.0
C1956 C 0.92323 0.62651 0.1079 0.0
C1957 C 0.9127 0.60044 0.09929 0.0
C1958 C 0.92874 0.58559 0.08304 0.0
C1959 C 0.90625 0.64265 0.12528 0.0
C1960 C 0.89317 0.63706 0.15507 0.0
C1961 C 0.90307 0.66378 0.11352 0.0
C1962 C 0.91468 0.67155 0.0823 0.0
C1963 C 0.898 0.66925 0.05924 0.0
C1964 C 0.90779 0.68025 0.0315 0.0
C1965 C 0.93438 0.69328 0.0263 0.0
C1966 C 0.951 0.69611 0.04933 0.0
C1967 C 0.94108 0.68583 0.07753 0.0
H1968 H 0.942 0.70148 0.00461 0.0
H1969 H 0.83878 0.63069 0.2902 0.0
H1970 H 0.30538 0.80423 0.16626 0.0
H1971 H 0.33326 0.83866 0.13717 0.0
H1972 H 0.3703 0.87468 0.22029 0.0
H1973 H 0.34177 0.8408 0.24985 0.0
H1974 H 0.34732 0.89772 0.15121 0.0
H1975 H 0.43561 0.88092 0.19163 0.0
H1976 H 0.44742 0.84739 0.21158 0.0
H1977 H 0.39312 0.79162 0.1558 0.0
H1978 H 0.38122 0.82476 0.1355 0.0
H1979 H 0.47105 0.98607 0.0922 0.0
H1980 H 0.43365 0.96211 0.12593 0.0
H1981 H 0.4352 0.89399 0.06611 0.0
H1982 H 0.47214 0.91749 0.03292 0.0
H1983 H 0.43797 0.89022 0.12749 0.0
H1984 H 0.38699 0.91963 0.06595 0.0
H1985 H 0.37553 0.95322 0.04583 0.0
H1986 H 0.35538 0.98313 0.13983 0.0
H1987 H 0.36708 0.94988 0.16051 0.0
C1988 C 0.31894 0.81987 0.17852 0.0
C1989 C 0.3212 0.82003 0.21035 0.0
C1990 C 0.33477 0.83953 0.16192 0.0
C1991 C 0.35362 0.85929 0.17671 0.0
C1992 C 0.35569 0.85967 0.20861 0.0
C1993 C 0.3396 0.84021 0.22532 0.0
C1994 C 0.37375 0.87726 0.15784 0.0
C1995 C 0.36719 0.89624 0.14609 0.0
C1996 C 0.39958 0.87527 0.15119 0.0
C1997 C 0.40731 0.85527 0.16243 0.0
C1998 C 0.42632 0.86148 0.18357 0.0
C1999 C 0.43299 0.84254 0.19498 0.0
C2000 C 0.42094 0.81736 0.18513 0.0
C2001 C 0.40231 0.81107 0.16368 0.0
C2002 C 0.39556 0.82993 0.15226 0.0
C2003 C 0.46294 0.96608 0.08603 0.0
C2004 C 0.47463 0.95354 0.06026 0.0
C2005 C 0.44171 0.95242 0.1053 0.0
C2006 C 0.43192 0.92621 0.0987 0.0
C2007 C 0.44267 0.9141 0.07189 0.0
C2008 C 0.46374 0.92758 0.05291 0.0
C2009 C 0.41167 0.91068 0.12032 0.0
C2010 C 0.41824 0.89206 0.13279 0.0
C2011 C 0.38592 0.913 0.12728 0.0
C2012 C 0.37806 0.9324 0.11478 0.0
C2013 C 0.3802 0.93343 0.08233 0.0
C2014 C 0.37367 0.9524 0.07082 0.0
C2015 C 0.36477 0.97032 0.09154 0.0
C2016 C 0.36228 0.96924 0.12381 0.0
C2017 C 0.36882 0.95032 0.13543 0.0
H2018 H 0.35977 0.98503 0.0826 0.0
H2019 H 0.42614 0.80276 0.19403 0.0
H2020 H 0.73152 0.18202 0.21884 0.0
H2021 H 0.69842 0.15209 0.18832 0.0
H2022 H 0.69053 0.21225 0.14324 0.0
H2023 H 0.72368 0.24243 0.17376 0.0
H2024 H 0.64247 0.17958 0.16257 0.0
H2025 H 0.72484 0.17441 0.10493 0.0
H2026 H 0.76911 0.16918 0.10132 0.0
H2027 H 0.73585 0.09549 0.13061 0.0
H2028 H 0.69139 0.1005 0.13497 0.0
H2029 H 0.5708 0.11012 0.0396 0.0
H2030 H 0.60556 0.13863 0.0689 0.0
H2031 H 0.61777 0.07585 0.10414 0.0
H2032 H 0.58347 0.04703 0.07405 0.0
H2033 H 0.66352 0.10901 0.09147 0.0
H2034 H 0.58193 0.11301 0.14935 0.0
H2035 H 0.53728 0.1178 0.15645 0.0
H2036 H 0.56826 0.19263 0.13021 0.0
H2037 H 0.61306 0.18813 0.12252 0.0
C2038 C 0.72304 0.18891 0.20215 0.0
C2039 C 0.73056 0.21462 0.19843 0.0
C2040 C 0.704 0.17175 0.18483 0.0
C2041 C 0.69216 0.17991 0.16332 0.0
C2042 C 0.69944 0.20556 0.15971 0.0
C2043 C 0.71852 0.22275 0.17701 0.0
C2044 C 0.67244 0.16165 0.14423 0.0
C2045 C 0.64715 0.16436 0.14669 0.0
C2046 C 0.6783 0.14131 0.1243 0.0
C2047 C 0.70485 0.13787 0.12042 0.0
C2048 C 0.72699 0.15711 0.11066 0.0
C2049 C 0.75211 0.15421 0.10852 0.0
C2050 C 0.75529 0.13202 0.11575 0.0
C2051 C 0.73335 0.11266 0.12502 0.0
C2052 C 0.70819 0.11551 0.1273 0.0
C2053 C 0.58095 0.10229 0.05341 0.0
C2054 C 0.5741 0.07624 0.05467 0.0
C2055 C 0.60079 0.11867 0.0703 0.0
C2056 C 0.61395 0.10948 0.08934 0.0
C2057 C 0.60783 0.08343 0.08978 0.0
C2058 C 0.58815 0.06697 0.07258 0.0
C2059 C 0.63351 0.12712 0.10937 0.0
C2060 C 0.65877 0.12424 0.10725 0.0
C2061 C 0.62755 0.14719 0.12989 0.0
C2062 C 0.60077 0.15016 0.13513 0.0
C2063 C 0.57918 0.13044 0.14497 0.0
C2064 C 0.55386 0.1331 0.14909 0.0
C2065 C 0.54993 0.15549 0.14372 0.0
C2066 C 0.57133 0.1753 0.13434 0.0
C2067 C 0.59669 0.17271 0.13012 0.0
H2068 H 0.5303 0.1575 0.14687 0.0
H2069 H 0.77477 0.12983 0.11415 0.0
H2070 H 0.69766 0.71754 0.80144 0.0
H2071 H 0.66875 0.68599 0.83412 0.0
H2072 H 0.72977 0.64991 0.82766 0.0
H2073 H 0.75897 0.68162 0.79561 0.0
H2074 H 0.67825 0.61725 0.81313 0.0
H2075 H 0.72052 0.67586 0.895 0.0
H2076 H 0.73677 0.71704 0.9255 0.0
H2077 H 0.65872 0.72479 0.94134 0.0
H2078 H 0.642 0.68345 0.91117 0.0
H2079 H 0.60292 0.56545 0.97077 0.0
H2080 H 0.64007 0.59412 0.9425 0.0
H2081 H 0.59508 0.58212 0.86413 0.0
H2082 H 0.55861 0.55306 0.89139 0.0
H2083 H 0.64401 0.6374 0.92324 0.0
H2084 H 0.63273 0.58833 0.79671 0.0
H2085 H 0.61844 0.5454 0.7698 0.0
H2086 H 0.63922 0.51632 0.84516 0.0
H2087 H 0.65403 0.5591 0.87227 0.0
C2088 C 0.70489 0.70287 0.807 0.0
C2089 C 0.73051 0.70194 0.79587 0.0
C2090 C 0.68844 0.685 0.82578 0.0
C2091 C 0.69721 0.66571 0.83329 0.0
C2092 C 0.72271 0.66469 0.82211 0.0
C2093 C 0.73933 0.68282 0.80385 0.0
C2094 C 0.67939 0.6461 0.85188 0.0
C2095 C 0.67077 0.62156 0.83723 0.0
C2096 C 0.67013 0.65168 0.88342 0.0
C2097 C 0.6801 0.67678 0.90065 0.0
C2098 C 0.70689 0.68647 0.90479 0.0
C2099 C 0.71614 0.70975 0.92216 0.0
C2100 C 0.69881 0.72359 0.93525 0.0
C2101 C 0.67214 0.71408 0.93115 0.0
C2102 C 0.66274 0.69068 0.91405 0.0
C2103 C 0.60117 0.5686 0.94729 0.0
C2104 C 0.57782 0.55683 0.93333 0.0
C2105 C 0.62234 0.5851 0.93124 0.0
C2106 C 0.6205 0.59007 0.90102 0.0
C2107 C 0.59726 0.57819 0.88708 0.0
C2108 C 0.57631 0.56159 0.90286 0.0
C2109 C 0.64226 0.60845 0.88435 0.0
C2110 C 0.65156 0.63287 0.89924 0.0
C2111 C 0.65245 0.60261 0.85311 0.0
C2112 C 0.64434 0.57689 0.83658 0.0
C2113 C 0.63444 0.57279 0.80741 0.0
C2114 C 0.62621 0.54848 0.79215 0.0
C2115 C 0.62787 0.52814 0.80579 0.0
C2116 C 0.63789 0.53208 0.83465 0.0
C2117 C 0.6462 0.55635 0.84998 0.0
H2118 H 0.62142 0.50933 0.79398 0.0
H2119 H 0.70604 0.74166 0.9486 0.0
H2120 H 0.37198 0.65814 0.79294 0.0
H2121 H 0.40447 0.64727 0.81773 0.0
H2122 H 0.35783 0.6505 0.90674 0.0
H2123 H 0.32586 0.66277 0.88277 0.0
H2124 H 0.42724 0.67328 0.89219 0.0
H2125 H 0.34223 0.60128 0.89493 0.0
H2126 H 0.30574 0.57407 0.8659 0.0
H2127 H 0.36101 0.55598 0.79115 0.0
H2128 H 0.39776 0.58343 0.8196 0.0
H2129 H 0.47608 0.60265 0.98091 0.0
H2130 H 0.45253 0.62647 0.95977 0.0
H2131 H 0.45 0.57699 0.87324 0.0
H2132 H 0.47043 0.55161 0.89579 0.0
H2133 H 0.40569 0.58073 0.88743 0.0
H2134 H 0.48983 0.64171 0.88407 0.0
H2135 H 0.5303 0.66969 0.90471 0.0
H2136 H 0.48498 0.71025 0.96898 0.0
H2137 H 0.4443 0.68235 0.94898 0.0
C2138 C 0.3691 0.65752 0.81803 0.0
C2139 C 0.34631 0.6613 0.8359 0.0
C2140 C 0.38768 0.65132 0.8321 0.0
C2141 C 0.38374 0.64884 0.86416 0.0
C2142 C 0.36157 0.65338 0.88224 0.0
C2143 C 0.34307 0.65977 0.86832 0.0
C2144 C 0.40042 0.63765 0.87771 0.0
C2145 C 0.42259 0.65309 0.89161 0.0
C2146 C 0.39467 0.6114 0.87574 0.0
C2147 C 0.37261 0.59447 0.8592 0.0
C2148 C 0.34653 0.59159 0.87222 0.0
C2149 C 0.32583 0.57613 0.85589 0.0
C2150 C 0.33105 0.56334 0.82667 0.0
C2151 C 0.35699 0.56592 0.81376 0.0
C2152 C 0.37774 0.58141 0.82997 0.0
C2153 C 0.47022 0.59681 0.95755 0.0
C2154 C 0.47408 0.57479 0.94043 0.0
C2155 C 0.45717 0.61068 0.94522 0.0
C2156 C 0.44933 0.60351 0.91486 0.0
C2157 C 0.4553 0.58265 0.89694 0.0
C2158 C 0.4671 0.56821 0.90977 0.0
C2159 C 0.43317 0.61621 0.90224 0.0
C2160 C 0.41076 0.60099 0.88842 0.0
C2161 C 0.43941 0.64267 0.90347 0.0
C2162 C 0.46392 0.65971 0.91528 0.0
C2163 C 0.48847 0.65648 0.90276 0.0
C2164 C 0.51148 0.67235 0.91432 0.0
C2165 C 0.51021 0.69168 0.93822 0.0
C2166 C 0.48595 0.69524 0.95051 0.0
C2167 C 0.4629 0.6794 0.93906 0.0
H2168 H 0.52804 0.70395 0.94714 0.0
H2169 H 0.315 0.55139 0.81406 0.0
H2170 H 0.32862 0.34546 0.79666 0.0
H2171 H 0.36016 0.37415 0.83029 0.0
H2172 H 0.39055 0.31364 0.84131 0.0
H2173 H 0.35845 0.28467 0.80844 0.0
H2174 H 0.38749 0.34074 0.8953 0.0
H2175 H 0.42432 0.36192 0.79034 0.0
H2176 H 0.42394 0.37484 0.73863 0.0
H2177 H 0.40433 0.4412 0.7829 0.0
H2178 H 0.40502 0.4289 0.83488 0.0
H2179 H 0.5076 0.41547 0.95403 0.0
H2180 H 0.47377 0.3864 0.92337 0.0
H2181 H 0.44406 0.44741 0.91262 0.0
H2182 H 0.47803 0.47655 0.94252 0.0
H2183 H 0.44613 0.42038 0.85914 0.0
H2184 H 0.41206 0.40209 0.96325 0.0
H2185 H 0.41266 0.39096 0.01585 0.0
H2186 H 0.42447 0.32031 0.97533 0.0
H2187 H 0.42437 0.33119 0.92241 0.0
C2188 C 0.34207 0.33825 0.80614 0.0
C2189 C 0.34112 0.31276 0.79953 0.0
C2190 C 0.36024 0.35474 0.82532 0.0
C2191 C 0.37827 0.34631 0.83797 0.0
C2192 C 0.37703 0.32075 0.8318 0.0
C2193 C 0.35869 0.30419 0.81285 0.0
C2194 C 0.39835 0.36402 0.8576 0.0
C2195 C 0.40056 0.35798 0.88717 0.0
C2196 C 0.41494 0.387 0.84766 0.0
C2197 C 0.41451 0.39438 0.81645 0.0
C2198 C 0.4198 0.3792 0.78902 0.0
C2199 C 0.41954 0.38641 0.75968 0.0
C2200 C 0.41385 0.40868 0.75747 0.0
C2201 C 0.40866 0.42392 0.78463 0.0
C2202 C 0.40912 0.41691 0.81403 0.0
C2203 C 0.49382 0.42269 0.94523 0.0
C2204 C 0.49567 0.44842 0.95078 0.0
C2205 C 0.47435 0.406 0.92778 0.0
C2206 C 0.45607 0.41457 0.9158 0.0
C2207 C 0.45787 0.44023 0.92146 0.0
C2208 C 0.47735 0.45691 0.93871 0.0
C2209 C 0.43546 0.39703 0.89676 0.0
C2210 C 0.43311 0.40313 0.86732 0.0
C2211 C 0.41858 0.37428 0.90701 0.0
C2212 C 0.41847 0.36757 0.93882 0.0
C2213 C 0.41499 0.38426 0.96553 0.0
C2214 C 0.41521 0.37799 0.99541 0.0
C2215 C 0.41866 0.35497 0.99892 0.0
C2216 C 0.42184 0.33815 0.97256 0.0
C2217 C 0.42168 0.34435 0.94261 0.0
H2218 H 0.41883 0.35015 0.02207 0.0
H2219 H 0.4136 0.41418 0.73473 0.0
H2220 H 0.73399 0.33812 0.85448 0.0
H2221 H 0.7449 0.37527 0.89209 0.0
H2222 H 0.66626 0.35198 0.93927 0.0
H2223 H 0.65694 0.31334 0.90532 0.0
H2224 H 0.72458 0.40772 0.889 0.0
H2225 H 0.65087 0.37628 0.99806 0.0
H2226 H 0.64178 0.34252 0.03189 0.0
H2227 H 0.72224 0.34215 0.01431 0.0
H2228 H 0.73183 0.37563 0.97999 0.0
H2229 H 0.61478 0.44115 0.91818 0.0
H2230 H 0.65195 0.42409 0.91116 0.0
H2231 H 0.68294 0.47222 0.99234 0.0
H2232 H 0.64555 0.48949 0.99953 0.0
H2233 H 0.67665 0.42085 0.99357 0.0
H2234 H 0.7208 0.48304 0.92686 0.0
H2235 H 0.72285 0.51124 0.8877 0.0
H2236 H 0.69822 0.44774 0.81939 0.0
H2237 H 0.69565 0.41912 0.85818 0.0
C2238 C 0.71964 0.34015 0.87416 0.0
C2239 C 0.69426 0.32313 0.87655 0.0
C2240 C 0.72591 0.36153 0.89557 0.0
C2241 C 0.7066 0.36662 0.91877 0.0
C2242 C 0.68209 0.34843 0.92262 0.0
C2243 C 0.67632 0.32655 0.90231 0.0
C2244 C 0.70895 0.39259 0.93307 0.0
C2245 C 0.7152 0.41104 0.91241 0.0
C2246 C 0.69749 0.3974 0.96391 0.0
C2247 C 0.69221 0.37885 0.98684 0.0
C2248 C 0.66678 0.36941 1.00191 0.0
C2249 C 0.66145 0.35009 0.02085 0.0
C2250 C 0.68145 0.34039 0.02548 0.0
C2251 C 0.70677 0.34974 0.0108 0.0
C2252 C 0.71215 0.36881 0.9915 0.0
C2253 C 0.6299 0.44858 0.93395 0.0
C2254 C 0.62759 0.46664 0.95915 0.0
C2255 C 0.6511 0.43894 0.92995 0.0
C2256 C 0.67024 0.44732 0.95105 0.0
C2257 C 0.66848 0.46597 0.97568 0.0
C2258 C 0.64732 0.47587 0.97951 0.0
C2259 C 0.69028 0.43427 0.94845 0.0
C2260 C 0.68818 0.41844 0.97131 0.0
C2261 C 0.70563 0.43185 0.91963 0.0
C2262 C 0.70847 0.44892 0.89542 0.0
C2263 C 0.71599 0.47508 0.90343 0.0
C2264 C 0.71714 0.49114 0.88132 0.0
C2265 C 0.7108 0.48129 0.85103 0.0
C2266 C 0.70331 0.45535 0.8428 0.0
C2267 C 0.70213 0.43919 0.86482 0.0
H2268 H 0.71162 0.49376 0.83398 0.0
H2269 H 0.67732 0.3256 0.04042 0.0
H2270 H 0.7469 0.3548 0.101 0.0
H2271 H 0.72107 0.36969 0.07054 0.0
H2272 H 0.66643 0.37578 0.15254 0.0
H2273 H 0.69214 0.36091 0.18302 0.0
H2274 H 0.64023 0.35879 0.10514 0.0
H2275 H 0.71913 0.42498 0.12591 0.0
H2276 H 0.76675 0.44573 0.12414 0.0
H2277 H 0.7729 0.4394 0.02377 0.0
H2278 H 0.72542 0.41849 0.02497 0.0
H2279 H 0.61879 0.47777 0.08691 0.0
H2280 H 0.64488 0.45157 0.09596 0.0
H2281 H 0.61809 0.40009 0.01542 0.0
H2282 H 0.59096 0.42588 0.00658 0.0
H2283 H 0.68465 0.43463 0.05119 0.0
H2284 H 0.60334 0.35863 0.03554 0.0
H2285 H 0.55506 0.3417 0.04253 0.0
H2286 H 0.55395 0.37383 0.13868 0.0
H2287 H 0.60228 0.39104 0.13207 0.0
C2288 C 0.72925 0.35913 0.11239 0.0
C2289 C 0.72155 0.35682 0.14436 0.0
C2290 C 0.71444 0.36751 0.09494 0.0
C2291 C 0.69189 0.37395 0.10926 0.0
C2292 C 0.68368 0.37077 0.14092 0.0
C2293 C 0.69837 0.36226 0.15833 0.0
C2294 C 0.67747 0.38529 0.09202 0.0
C2295 C 0.65008 0.37521 0.09307 0.0
C2296 C 0.69024 0.40667 0.07604 0.0
C2297 C 0.71882 0.41938 0.07546 0.0
C2298 C 0.7307 0.42767 0.10344 0.0
C2299 C 0.75767 0.43959 0.10256 0.0
C2300 C 0.7729 0.44366 0.07385 0.0
C2301 C 0.76115 0.43603 0.04598 0.0
C2302 C 0.73421 0.42408 0.04675 0.0
C2303 C 0.61838 0.46091 0.07102 0.0
C2304 C 0.60259 0.45371 0.04624 0.0
C2305 C 0.63335 0.44602 0.07622 0.0
C2306 C 0.63297 0.42382 0.05664 0.0
C2307 C 0.61809 0.41694 0.03112 0.0
C2308 C 0.60276 0.43174 0.02606 0.0
C2309 C 0.64784 0.40797 0.06423 0.0
C2310 C 0.67518 0.41753 0.06207 0.0
C2311 C 0.63515 0.38636 0.07936 0.0
C2312 C 0.60625 0.37623 0.08326 0.0
C2313 C 0.59276 0.36215 0.0581 0.0
C2314 C 0.56541 0.3525 0.062 0.0
C2315 C 0.55144 0.35673 0.09102 0.0
C2316 C 0.56479 0.3706 0.1162 0.0
C2317 C 0.59214 0.3803 0.1124 0.0
H2318 H 0.53027 0.34923 0.094 0.0
H2319 H 0.79378 0.45289 0.07322 0.0
H2320 H 0.74401 0.68777 0.19672 0.0
H2321 H 0.71188 0.66011 0.16299 0.0
H2322 H 0.66115 0.70781 0.19175 0.0
H2323 H 0.69461 0.73672 0.2229 0.0
H2324 H 0.66895 0.63124 0.16662 0.0
H2325 H 0.61839 0.70356 0.14197 0.0
H2326 H 0.63018 0.74859 0.13568 0.0
H2327 H 0.71073 0.74998 0.10951 0.0
H2328 H 0.69936 0.70488 0.11517 0.0
H2329 H 0.55311 0.56021 0.10211 0.0
H2330 H 0.58632 0.58918 0.13326 0.0
H2331 H 0.61577 0.63389 0.05608 0.0
H2332 H 0.58086 0.60596 0.02599 0.0
H2333 H 0.62117 0.66429 0.10188 0.0
H2334 H 0.64665 0.58995 0.08072 0.0
H2335 H 0.64248 0.54482 0.07734 0.0
H2336 H 0.62633 0.54748 0.17735 0.0
H2337 H 0.62994 0.59255 0.18128 0.0
C2338 C 0.72601 0.69236 0.19563 0.0
C2339 C 0.72191 0.71452 0.21216 0.0
C2340 C 0.70751 0.67646 0.17637 0.0
C2341 C 0.68396 0.68185 0.17392 0.0
C2342 C 0.67941 0.70348 0.19184 0.0
C2343 C 0.69844 0.71994 0.21004 0.0
C2344 C 0.66427 0.66475 0.15296 0.0
C2345 C 0.65865 0.63861 0.15242 0.0
C2346 C 0.6511 0.67389 0.13336 0.0
C2347 C 0.65805 0.70091 0.12933 0.0
C2348 C 0.63859 0.71345 0.13472 0.0
C2349 C 0.6452 0.73899 0.13129 0.0
C2350 C 0.6712 0.75216 0.12232 0.0
C2351 C 0.69062 0.73978 0.11656 0.0
C2352 C 0.6841 0.71423 0.11988 0.0
C2353 C 0.56661 0.57631 0.09187 0.0
C2354 C 0.56432 0.5808 0.06161 0.0
C2355 C 0.58591 0.59281 0.10961 0.0
C2356 C 0.60437 0.61365 0.09705 0.0
C2357 C 0.60198 0.61813 0.06667 0.0
C2358 C 0.58202 0.60209 0.04933 0.0
C2359 C 0.62581 0.6308 0.11565 0.0
C2360 C 0.63165 0.65694 0.11587 0.0
C2361 C 0.64041 0.62164 0.1334 0.0
C2362 C 0.63829 0.59457 0.13125 0.0
C2363 C 0.64202 0.58087 0.10197 0.0
C2364 C 0.63977 0.5553 0.09996 0.0
C2365 C 0.63407 0.54328 0.1271 0.0
C2366 C 0.63069 0.55681 0.15633 0.0
C2367 C 0.63284 0.58237 0.15847 0.0
H2368 H 0.63233 0.52348 0.12549 0.0
H2369 H 0.67629 0.77195 0.11977 0.0
H2370 H 0.39782 0.7267 0.07748 0.0
H2371 H 0.38956 0.68928 0.04075 0.0
H2372 H 0.31438 0.65885 0.09268 0.0
H2373 H 0.32399 0.69446 0.13176 0.0
H2374 H 0.34292 0.63275 0.0977 0.0
H2375 H 0.32142 0.65448 0.00729 0.0
H2376 H 0.32226 0.68378 0.9701 0.0
H2377 H 0.404 0.69177 0.94204 0.0
H2378 H 0.4037 0.66237 0.97899 0.0
H2379 H 0.41953 0.54777 1.00132 0.0
H2380 H 0.38243 0.56482 0.00401 0.0
H2381 H 0.42282 0.63034 0.06212 0.0
H2382 H 0.46004 0.61358 0.05959 0.0
H2383 H 0.38551 0.61883 0.9901 0.0
H2384 H 0.38066 0.62994 0.12472 0.0
H2385 H 0.38678 0.60658 0.16533 0.0
H2386 H 0.36092 0.53725 0.1066 0.0
H2387 H 0.35428 0.56013 0.06579 0.0
C2388 C 0.37928 0.71231 0.08081 0.0
C2389 C 0.36236 0.71321 0.10844 0.0
C2390 C 0.37411 0.69107 0.05912 0.0
C2391 C 0.35137 0.67094 0.06417 0.0
C2392 C 0.33213 0.67404 0.08852 0.0
C2393 C 0.33779 0.69473 0.11095 0.0
C2394 C 0.35231 0.64538 0.05153 0.0
C2395 C 0.35107 0.62911 0.07374 0.0
C2396 C 0.36245 0.64016 0.02019 0.0
C2397 C 0.36247 0.65609 0.99586 0.0
C2398 C 0.33955 0.66233 0.99303 0.0
C2399 C 0.33996 0.67902 0.97207 0.0
C2400 C 0.36324 0.68976 0.95391 0.0
C2401 C 0.38604 0.68344 0.95622 0.0
C2402 C 0.38569 0.66656 0.97693 0.0
C2403 C 0.42036 0.56573 0.01492 0.0
C2404 C 0.44231 0.57934 0.03074 0.0
C2405 C 0.39938 0.57543 0.01601 0.0
C2406 C 0.4002 0.59855 0.03325 0.0
C2407 C 0.42217 0.61232 0.04875 0.0
C2408 C 0.44321 0.60275 0.04747 0.0
C2409 C 0.37779 0.60839 0.03695 0.0
C2410 C 0.37523 0.62145 0.01319 0.0
C2411 C 0.36413 0.61076 0.06689 0.0
C2412 C 0.36669 0.59677 0.09224 0.0
C2413 C 0.37586 0.60968 0.12063 0.0
C2414 C 0.37957 0.59653 0.14364 0.0
C2415 C 0.37418 0.57045 0.13858 0.0
C2416 C 0.36504 0.55745 0.11052 0.0
C2417 C 0.3613 0.57051 0.08744 0.0
H2418 H 0.37712 0.56031 0.15638 0.0
H2419 H 0.36355 0.70277 0.93779 0.0
H2420 H 0.2936 0.33593 0.2063 0.0
H2421 H 0.323 0.37036 0.17833 0.0
H2422 H 0.38614 0.33694 0.1728 0.0
H2423 H 0.35713 0.30295 0.20106 0.0
H2424 H 0.40282 0.38517 0.19007 0.0
H2425 H 0.35016 0.33262 0.11038 0.0
H2426 H 0.30865 0.31081 0.08759 0.0
H2427 H 0.29248 0.38121 0.08962 0.0
H2428 H 0.3337 0.40339 0.11296 0.0
H2429 H 0.4963 0.42895 0.07121 0.0
H2430 H 0.45785 0.40239 0.09895 0.0
H2431 H 0.41623 0.45712 0.10031 0.0
H2432 H 0.45505 0.48395 0.07142 0.0
H2433 H 0.38491 0.40539 0.08966 0.0
H2434 H 0.44244 0.45781 0.16343 0.0
H2435 H 0.48526 0.47775 0.18395 0.0
H2436 H 0.49334 0.40527 0.19107 0.0
H2437 H 0.45079 0.38488 0.1701 0.0
C2438 C 0.31379 0.33602 0.19911 0.0
C2439 C 0.32319 0.31694 0.20614 0.0
C2440 C 0.3305 0.35561 0.18305 0.0
C2441 C 0.35673 0.35616 0.17332 0.0
C2442 C 0.36603 0.33701 0.18025 0.0
C2443 C 0.34945 0.31762 0.19649 0.0
C2444 C 0.37491 0.37667 0.15623 0.0
C2445 C 0.39888 0.38952 0.16809 0.0
C2446 C 0.36944 0.38295 0.12805 0.0
C2447 C 0.34481 0.36962 0.1138 0.0
C2448 C 0.33764 0.34342 0.10621 0.0
C2449 C 0.31418 0.331 0.09316 0.0
C2450 C 0.29789 0.34461 0.08726 0.0
C2451 C 0.30508 0.37069 0.09429 0.0
C2452 C 0.32848 0.38319 0.10744 0.0
C2453 C 0.47894 0.43535 0.0772 0.0
C2454 C 0.47879 0.45876 0.06985 0.0
C2455 C 0.45697 0.42011 0.09299 0.0
C2456 C 0.4345 0.4281 0.10236 0.0
C2457 C 0.43356 0.45079 0.09348 0.0
C2458 C 0.45565 0.46607 0.07711 0.0
C2459 C 0.41304 0.41309 0.12305 0.0
C2460 C 0.38852 0.40138 0.11199 0.0
C2461 C 0.41803 0.40757 0.15188 0.0
C2462 C 0.44344 0.41983 0.16508 0.0
C2463 C 0.4534 0.44612 0.16923 0.0
C2464 C 0.47764 0.4575 0.18094 0.0
C2465 C 0.49202 0.44279 0.18879 0.0
C2466 C 0.48217 0.41665 0.185 0.0
C2467 C 0.45798 0.40517 0.17324 0.0
H2468 H 0.51078 0.45163 0.19783 0.0
H2469 H 0.27974 0.33496 0.07715 0.0
H2470 H 0.83825 0.70362 0.73929 0.0
H2471 H 0.86335 0.67597 0.71144 0.0
H2472 H 0.83789 0.68284 0.62435 0.0
H2473 H 0.81165 0.70953 0.65267 0.0
H2474 H 0.83983 0.63881 0.61992 0.0
H2475 H 0.90477 0.71506 0.65225 0.0
H2476 H 0.92736 0.74982 0.68942 0.0
H2477 H 0.94251 0.69718 0.74087 0.0
H2478 H 0.91968 0.66209 0.70429 0.0
H2479 H 0.93437 0.57978 0.53063 0.0
H2480 H 0.90701 0.60731 0.55301 0.0
H2481 H 0.93183 0.61013 0.64392 0.0
H2482 H 0.96054 0.58471 0.62119 0.0
H2483 H 0.93094 0.65186 0.6426 0.0
H2484 H 0.86267 0.57507 0.61197 0.0
H2485 H 0.83759 0.54075 0.57614 0.0
H2486 H 0.82871 0.59452 0.52132 0.0
H2487 H 0.85387 0.62909 0.55668 0.0
C2488 C 0.83792 0.69925 0.71418 0.0
C2489 C 0.8227 0.70897 0.69839 0.0
C2490 C 0.85263 0.68351 0.69805 0.0
C2491 C 0.85354 0.67757 0.66525 0.0
C2492 C 0.83795 0.68695 0.64951 0.0
C2493 C 0.82272 0.70228 0.66582 0.0
C2494 C 0.87044 0.66155 0.64762 0.0
C2495 C 0.85989 0.64193 0.62473 0.0
C2496 C 0.89665 0.66493 0.65368 0.0
C2497 C 0.91034 0.68598 0.67569 0.0
C2498 C 0.91278 0.71091 0.67162 0.0
C2499 C 0.92562 0.73066 0.69258 0.0
C2500 C 0.93628 0.7257 0.71755 0.0
C2501 C 0.93418 0.70098 0.72158 0.0
C2502 C 0.92132 0.68117 0.70073 0.0
C2503 C 0.934 0.58634 0.55538 0.0
C2504 C 0.95001 0.58001 0.57391 0.0
C2505 C 0.91795 0.60196 0.56842 0.0
C2506 C 0.91659 0.61097 0.60067 0.0
C2507 C 0.93226 0.60404 0.61905 0.0
C2508 C 0.94879 0.5892 0.60592 0.0
C2509 C 0.90008 0.6283 0.61561 0.0
C2510 C 0.91084 0.64847 0.63785 0.0
C2511 C 0.87409 0.62537 0.60891 0.0
C2512 C 0.86029 0.60458 0.58679 0.0
C2513 C 0.85556 0.57952 0.5921 0.0
C2514 C 0.84122 0.56005 0.57197 0.0
C2515 C 0.8314 0.56546 0.54662 0.0
C2516 C 0.83613 0.59035 0.54112 0.0
C2517 C 0.85047 0.60987 0.56114 0.0
H2518 H 0.82029 0.55036 0.53109 0.0
H2519 H 0.94622 0.74101 0.73375 0.0
H2520 H 0.33235 0.83828 0.72902 0.0
H2521 H 0.36435 0.86863 0.69764 0.0
H2522 H 0.36703 0.80997 0.6222 0.0
H2523 H 0.33307 0.77979 0.65255 0.0
H2524 H 0.42036 0.85063 0.65104 0.0
H2525 H 0.3451 0.83626 0.59711 0.0
H2526 H 0.2991 0.83106 0.58984 0.0
H2527 H 0.30574 0.90583 0.63433 0.0
H2528 H 0.35138 0.91098 0.64341 0.0
H2529 H 0.49434 0.94428 0.54669 0.0
H2530 H 0.46627 0.9059 0.56798 0.0
H2531 H 0.42614 0.94984 0.63542 0.0
H2532 H 0.45384 0.98807 0.6145 0.0
H2533 H 0.39229 0.91116 0.60227 0.0
H2534 H 0.46844 0.92341 0.65775 0.0
H2535 H 0.51536 0.92839 0.65998 0.0
H2536 H 0.50799 0.85678 0.60554 0.0
H2537 H 0.46107 0.85153 0.60272 0.0
C2538 C 0.3395 0.83181 0.70563 0.0
C2539 C 0.33054 0.80646 0.69347 0.0
C2540 C 0.35792 0.84916 0.68784 0.0
C2541 C 0.3681 0.84149 0.65773 0.0
C2542 C 0.35947 0.8162 0.6455 0.0
C2543 C 0.34038 0.79893 0.663 0.0
C2544 C 0.38743 0.86036 0.63931 0.0
C2545 C 0.41429 0.86359 0.63979 0.0
C2546 C 0.37945 0.87733 0.62492 0.0
C2547 C 0.35149 0.87378 0.62156 0.0
C2548 C 0.33652 0.85131 0.60621 0.0
C2549 C 0.31053 0.8484 0.60167 0.0
C2550 C 0.29944 0.86801 0.61183 0.0
C2551 C 0.31426 0.89054 0.62676 0.0
C2552 C 0.34014 0.89341 0.6318 0.0
C2553 C 0.47988 0.94584 0.56645 0.0
C2554 C 0.47634 0.96935 0.57878 0.0
C2555 C 0.46382 0.92385 0.57853 0.0
C2556 C 0.44404 0.92501 0.6032 0.0
C2557 C 0.44116 0.94849 0.61625 0.0
C2558 C 0.45714 0.97038 0.60429 0.0
C2559 C 0.42528 0.90192 0.61466 0.0
C2560 C 0.39844 0.89799 0.61306 0.0
C2561 C 0.43335 0.88419 0.62756 0.0
C2562 C 0.46138 0.88721 0.62974 0.0
C2563 C 0.47689 0.90882 0.64609 0.0
C2564 C 0.50346 0.91167 0.64749 0.0
C2565 C 0.51468 0.89295 0.63282 0.0
C2566 C 0.4993 0.87128 0.61685 0.0
C2567 C 0.47271 0.86835 0.61537 0.0
H2568 H 0.53527 0.89521 0.63387 0.0
H2569 H 0.27942 0.86574 0.60788 0.0
H2570 H 0.22222 0.32563 0.61015 0.0
H2571 H 0.18325 0.3325 0.59372 0.0
H2572 H 0.19557 0.40171 0.6554 0.0
H2573 H 0.23437 0.39493 0.67156 0.0
H2574 H 0.14354 0.37791 0.65423 0.0
H2575 H 0.22003 0.40191 0.58175 0.0
H2576 H 0.25761 0.39865 0.54322 0.0
H2577 H 0.20552 0.34471 0.4832 0.0
H2578 H 0.16767 0.34712 0.52184 0.0
H2579 H 0.1127 0.46665 0.57866 0.0
H2580 H 0.13023 0.44033 0.60411 0.0
H2581 H 0.09728 0.37666 0.53879 0.0
H2582 H 0.07906 0.40304 0.51341 0.0
H2583 H 0.15135 0.38738 0.54168 0.0
H2584 H 0.07454 0.37304 0.61179 0.0
H2585 H 0.03871 0.3826 0.6489 0.0
H2586 H 0.09441 0.4267 0.71187 0.0
H2587 H 0.13066 0.41782 0.67485 0.0
C2588 C 0.21612 0.34194 0.62068 0.0
C2589 C 0.23125 0.35988 0.6419 0.0
C2590 C 0.19399 0.34591 0.61123 0.0
C2591 C 0.1867 0.36778 0.62307 0.0
C2592 C 0.2008 0.38473 0.64595 0.0
C2593 C 0.22299 0.38091 0.65509 0.0
C2594 C 0.16623 0.37449 0.60956 0.0
C2595 C 0.14531 0.38015 0.62958 0.0
C2596 C 0.16819 0.37694 0.5773 0.0
C2597 C 0.19109 0.37415 0.5551 0.0
C2598 C 0.21664 0.38888 0.56071 0.0
C2599 C 0.23799 0.38729 0.53876 0.0
C2600 C 0.23399 0.37132 0.51089 0.0
C2601 C 0.20863 0.35688 0.50493 0.0
C2602 C 0.18724 0.35827 0.52691 0.0
C2603 C 0.10877 0.44692 0.57002 0.0
C2604 C 0.09457 0.43688 0.54399 0.0
C2605 C 0.1186 0.43185 0.5848 0.0
C2606 C 0.1148 0.40644 0.57365 0.0
C2607 C 0.10009 0.39614 0.54807 0.0
C2608 C 0.08974 0.41119 0.53357 0.0
C2609 C 0.12937 0.392 0.58614 0.0
C2610 C 0.14926 0.38484 0.56605 0.0
C2611 C 0.12694 0.38905 0.61829 0.0
C2612 C 0.10534 0.39491 0.6404 0.0
C2613 C 0.07919 0.38503 0.63338 0.0
C2614 C 0.05879 0.39028 0.65444 0.0
C2615 C 0.06428 0.40529 0.6827 0.0
C2616 C 0.09019 0.4151 0.68995 0.0
C2617 C 0.11067 0.40995 0.66894 0.0
H2618 H 0.04844 0.40929 0.69902 0.0
H2619 H 0.25052 0.37026 0.49381 0.0
H2620 H 0.76969 0.21815 0.63792 0.0
H2621 H 0.73954 0.18627 0.60459 0.0
H2622 H 0.70911 0.14258 0.68243 0.0
H2623 H 0.73847 0.17462 0.71571 0.0
H2624 H 0.71591 0.11296 0.62719 0.0
H2625 H 0.67544 0.17688 0.66811 0.0
H2626 H 0.66803 0.21856 0.67957 0.0
H2627 H 0.6739 0.22417 0.58112 0.0
H2628 H 0.68165 0.18259 0.56909 0.0
H2629 H 0.57604 0.06716 0.5711 0.0
H2630 H 0.60985 0.09908 0.5989 0.0
H2631 H 0.67016 0.07544 0.53661 0.0
H2632 H 0.63663 0.04326 0.50915 0.0
H2633 H 0.64853 0.13864 0.58446 0.0
H2634 H 0.72187 0.08041 0.5768 0.0
H2635 H 0.72131 0.03607 0.57254 0.0
H2636 H 0.64175 0.01649 0.61569 0.0
H2637 H 0.64201 0.06079 0.62072 0.0
C2638 C 0.75718 0.20129 0.64743 0.0
C2639 C 0.75668 0.1985 0.67908 0.0
C2640 C 0.73972 0.1833 0.6286 0.0
C2641 C 0.72193 0.16211 0.64109 0.0
C2642 C 0.72264 0.1587 0.67225 0.0
C2643 C 0.73956 0.17689 0.69116 0.0
C2644 C 0.70176 0.14393 0.62238 0.0
C2645 C 0.70139 0.11864 0.61751 0.0
C2646 C 0.68221 0.15111 0.61063 0.0
C2647 C 0.67954 0.17683 0.61771 0.0
C2648 C 0.67559 0.18719 0.64891 0.0
C2649 C 0.67108 0.21068 0.65551 0.0
C2650 C 0.67036 0.22395 0.63109 0.0
C2651 C 0.67439 0.21384 0.60001 0.0
C2652 C 0.67887 0.19033 0.59329 0.0
C2653 C 0.5965 0.06882 0.56321 0.0
C2654 C 0.60354 0.05239 0.53809 0.0
C2655 C 0.61584 0.08714 0.5791 0.0
C2656 C 0.64261 0.08941 0.57026 0.0
C2657 C 0.64967 0.07372 0.54438 0.0
C2658 C 0.6304 0.05537 0.52858 0.0
C2659 C 0.66309 0.10775 0.5885 0.0
C2660 C 0.66342 0.13304 0.59349 0.0
C2661 C 0.68215 0.10044 0.60114 0.0
C2662 C 0.68188 0.07384 0.59874 0.0
C2663 C 0.7043 0.06664 0.58548 0.0
C2664 C 0.70403 0.04153 0.58294 0.0
C2665 C 0.68146 0.02346 0.59371 0.0
C2666 C 0.65917 0.03049 0.60724 0.0
C2667 C 0.65937 0.0556 0.60992 0.0
H2668 H 0.68127 1.00401 0.59164 0.0
H2669 H 0.66688 0.24215 0.63625 0.0
H2670 H 0.81886 0.28696 0.35078 0.0
H2671 H 0.85033 0.31734 0.38361 0.0
H2672 H 0.84814 0.37679 0.33288 0.0
H2673 H 0.81722 0.34687 0.30009 0.0
H2674 H 0.89761 0.37915 0.33975 0.0
H2675 H 0.81491 0.36894 0.40315 0.0
H2676 H 0.77377 0.34496 0.43098 0.0
H2677 H 0.81781 0.3219 0.48978 0.0
H2678 H 0.85925 0.34529 0.46176 0.0
H2679 H 0.92574 0.4804 0.47994 0.0
H2680 H 0.89526 0.44459 0.45312 0.0
H2681 H 0.95866 0.41245 0.41822 0.0
H2682 H 0.98948 0.4485 0.4445 0.0
H2683 H 0.87937 0.3947 0.45513 0.0
H2684 H 0.95016 0.38591 0.34415 0.0
H2685 H 0.9894 0.41207 0.31522 0.0
H2686 H 0.96514 0.47788 0.3506 0.0
H2687 H 0.92563 0.45207 0.37943 0.0
C2688 C 0.825 0.30654 0.34682 0.0
C2689 C 0.81529 0.31455 0.32312 0.0
C2690 C 0.84295 0.32383 0.36554 0.0
C2691 C 0.85145 0.3493 0.36069 0.0
C2692 C 0.84184 0.35723 0.33698 0.0
C2693 C 0.82393 0.34008 0.31845 0.0
C2694 C 0.87037 0.36798 0.38014 0.0
C2695 C 0.89372 0.38239 0.36501 0.0
C2696 C 0.86507 0.37243 0.41301 0.0
C2697 C 0.84018 0.35858 0.43007 0.0
C2698 C 0.81583 0.35855 0.4218 0.0
C2699 C 0.79245 0.34509 0.43763 0.0
C2700 C 0.79317 0.33185 0.46207 0.0
C2701 C 0.81728 0.3321 0.47078 0.0
C2702 C 0.84072 0.34544 0.45491 0.0
C2703 C 0.93323 0.46565 0.46673 0.0
C2704 C 0.96013 0.46746 0.46396 0.0
C2705 C 0.91572 0.44513 0.45157 0.0
C2706 C 0.92476 0.42603 0.43341 0.0
C2707 C 0.95138 0.42721 0.43175 0.0
C2708 C 0.96895 0.44781 0.44676 0.0
C2709 C 0.90661 0.40577 0.4147 0.0
C2710 C 0.88342 0.39113 0.42993 0.0
C2711 C 0.91173 0.40143 0.3818 0.0
C2712 C 0.93514 0.4171 0.36416 0.0
C2713 C 0.95318 0.40595 0.34564 0.0
C2714 C 0.97547 0.42072 0.32929 0.0
C2715 C 0.97981 0.44663 0.33116 0.0
C2716 C 0.96181 0.45782 0.34927 0.0
C2717 C 0.93949 0.44314 0.36564 0.0
H2718 H 0.99709 0.45803 0.31852 0.0
H2719 H 0.77505 0.32145 0.47433 0.0
H2720 H 0.76562 0.84465 0.30514 0.0
H2721 H 0.73873 0.87088 0.33336 0.0
H2722 H 0.67347 0.80485 0.34589 0.0
H2723 H 0.70047 0.7784 0.31797 0.0
H2724 H 0.66107 0.84602 0.32269 0.0
H2725 H 0.70319 0.83254 0.40746 0.0
H2726 H 0.74154 0.83369 0.43338 0.0
H2727 H 0.77255 0.91286 0.42774 0.0
H2728 H 0.73434 0.9123 0.40202 0.0
H2729 H 0.57274 0.90191 0.41943 0.0
H2730 H 0.60079 0.87571 0.39648 0.0
H2731 H 0.66923 0.93644 0.41925 0.0
H2732 H 0.64071 0.96223 0.44447 0.0
H2733 H 0.68194 0.89876 0.42299 0.0
H2734 H 0.6452 0.91521 0.33853 0.0
H2735 H 0.61145 0.91799 0.30748 0.0
H2736 H 0.57565 0.83847 0.30507 0.0
H2737 H 0.60907 0.83526 0.33633 0.0
C2738 C 0.74554 0.83561 0.31386 0.0
C2739 C 0.73528 0.80927 0.30886 0.0
C2740 C 0.73016 0.85072 0.33022 0.0
C2741 C 0.70388 0.84004 0.34195 0.0
C2742 C 0.69359 0.81372 0.33713 0.0
C2743 C 0.70913 0.79855 0.32118 0.0
C2744 C 0.68712 0.85632 0.35861 0.0
C2745 C 0.66533 0.85718 0.34495 0.0
C2746 C 0.69323 0.872 0.38689 0.0
C2747 C 0.71604 0.87234 0.40257 0.0
C2748 C 0.71828 0.85017 0.41156 0.0
C2749 C 0.73996 0.8507 0.42623 0.0
C2750 C 0.75956 0.87324 0.4319 0.0
C2751 C 0.7574 0.89538 0.42322 0.0
C2752 C 0.73569 0.895 0.40873 0.0
C2753 C 0.59377 0.90977 0.41978 0.0
C2754 C 0.60425 0.93448 0.43367 0.0
C2755 C 0.61003 0.89474 0.40609 0.0
C2756 C 0.63763 0.90403 0.40451 0.0
C2757 C 0.64817 0.9285 0.41943 0.0
C2758 C 0.63176 0.9434 0.43396 0.0
C2759 C 0.65512 0.88819 0.38754 0.0
C2760 C 0.67726 0.8875 0.40094 0.0
C2761 C 0.64981 0.87318 0.35841 0.0
C2762 C 0.62945 0.87505 0.34004 0.0
C2763 C 0.63 0.89836 0.33158 0.0
C2764 C 0.61097 0.9 0.3139 0.0
C2765 C 0.59138 0.87843 0.30439 0.0
C2766 C 0.59081 0.85517 0.31249 0.0
C2767 C 0.60981 0.85342 0.33015 0.0
H2768 H 0.57667 0.87974 0.29068 0.0
H2769 H 0.77637 0.87357 0.44315 0.0
H2770 H 0.19607 0.7427 0.32444 0.0
H2771 H 0.16167 0.70903 0.3488 0.0
H2772 H 0.21823 0.66848 0.34784 0.0
H2773 H 0.25183 0.7014 0.32262 0.0
H2774 H 0.17588 0.63811 0.3255 0.0
H2775 H 0.19143 0.70067 0.41825 0.0
H2776 H 0.19357 0.74327 0.4442 0.0
H2777 H 0.11361 0.73234 0.42842 0.0
H2778 H 0.11109 0.68972 0.40231 0.0
H2779 H 0.12315 0.5454 0.42375 0.0
H2780 H 0.14812 0.58337 0.40059 0.0
H2781 H 0.0793 0.60953 0.41495 0.0
H2782 H 0.05422 0.57155 0.43989 0.0
H2783 H 0.12064 0.64802 0.42574 0.0
H2784 H 0.10192 0.58447 0.3403 0.0
H2785 H 0.0984 0.54306 0.31005 0.0
H2786 H 0.18177 0.55657 0.30631 0.0
H2787 H 0.18573 0.59791 0.33688 0.0
C2788 C 0.20106 0.72665 0.32962 0.0
C2789 C 0.22654 0.72445 0.32084 0.0
C2790 C 0.18144 0.70743 0.34371 0.0
C2791 C 0.18719 0.68598 0.35012 0.0
C2792 C 0.21304 0.68454 0.34281 0.0
C2793 C 0.23236 0.70346 0.32835 0.0
C2794 C 0.16655 0.66444 0.36329 0.0
C2795 C 0.16402 0.6403 0.34759 0.0
C2796 C 0.14995 0.6672 0.39122 0.0
C2797 C 0.15108 0.69215 0.40839 0.0
C2798 C 0.1743 0.70737 0.42047 0.0
C2799 C 0.17559 0.73151 0.43514 0.0
C2800 C 0.15374 0.74052 0.43794 0.0
C2801 C 0.1305 0.72533 0.42629 0.0
C2802 C 0.1291 0.70117 0.41166 0.0
C2803 C 0.11317 0.55911 0.42188 0.0
C2804 C 0.08651 0.55518 0.43314 0.0
C2805 C 0.12752 0.58088 0.40848 0.0
C2806 C 0.11552 0.59913 0.40501 0.0
C2807 C 0.08901 0.59566 0.41701 0.0
C2808 C 0.07466 0.57393 0.43116 0.0
C2809 C 0.13102 0.62152 0.38871 0.0
C2810 C 0.13239 0.64578 0.40359 0.0
C2811 C 0.14635 0.61895 0.35962 0.0
C2812 C 0.14409 0.59421 0.341 0.0
C2813 C 0.11948 0.57854 0.33315 0.0
C2814 C 0.11741 0.55509 0.31594 0.0
C2815 C 0.13984 0.54718 0.3063 0.0
C2816 C 0.16441 0.56272 0.31378 0.0
C2817 C 0.16658 0.58618 0.331 0.0
H2818 H 0.1382 0.529 0.293 0.0
H2819 H 0.15482 0.75926 0.44916 0.0
H2820 H 0.34439 0.18496 0.36534 0.0
H2821 H 0.3668 0.15647 0.3786 0.0
H2822 H 0.42701 0.21985 0.41589 0.0
H2823 H 0.4047 0.24841 0.40269 0.0
H2824 H 0.44635 0.18112 0.37981 0.0
H2825 H 0.38094 0.1918 0.46552 0.0
H2826 H 0.33648 0.19116 0.49022 0.0
H2827 H 0.30778 0.11293 0.45726 0.0
H2828 H 0.35204 0.11324 0.43194 0.0
H2829 H 0.49788 0.11771 0.47564 0.0
H2830 H 0.4807 0.14698 0.4546 0.0
H2831 H 0.41207 0.08645 0.43169 0.0
H2832 H 0.42868 0.0575 0.45293 0.0
H2833 H 0.39764 0.12443 0.45942 0.0
H2834 H 0.46082 0.11165 0.37499 0.0
H2835 H 0.50406 0.11028 0.34797 0.0
H2836 H 0.53568 0.18933 0.37428 0.0
H2837 H 0.49268 0.19108 0.40192 0.0
C2838 C 0.3626 0.19278 0.37594 0.0
C2839 C 0.37272 0.21882 0.38331 0.0
C2840 C 0.37531 0.17653 0.38357 0.0
C2841 C 0.3984 0.18613 0.39844 0.0
C2842 C 0.40919 0.21215 0.40446 0.0
C2843 C 0.39635 0.22838 0.39715 0.0
C2844 C 0.41033 0.16904 0.40965 0.0
C2845 C 0.43591 0.16891 0.39751 0.0
C2846 C 0.39637 0.15272 0.43206 0.0
C2847 C 0.36966 0.15265 0.44649 0.0
C2848 C 0.36506 0.17457 0.46318 0.0
C2849 C 0.33993 0.17423 0.47738 0.0
C2850 C 0.31929 0.15204 0.4752 0.0
C2851 C 0.32375 0.13013 0.45882 0.0
C2852 C 0.34884 0.13038 0.44451 0.0
C2853 C 0.47923 0.11068 0.46593 0.0
C2854 C 0.46469 0.08528 0.46595 0.0
C2855 C 0.46948 0.12737 0.45379 0.0
C2856 C 0.44517 0.11885 0.44133 0.0
C2857 C 0.43084 0.09348 0.44117 0.0
C2858 C 0.44046 0.07691 0.45331 0.0
C2859 C 0.43382 0.13632 0.42964 0.0
C2860 C 0.40826 0.13661 0.44178 0.0
C2861 C 0.44769 0.15244 0.40685 0.0
C2862 C 0.47368 0.15141 0.39092 0.0
C2863 C 0.4771 0.12867 0.37536 0.0
C2864 C 0.50153 0.12784 0.35986 0.0
C2865 C 0.52264 0.14968 0.35953 0.0
C2866 C 0.51934 0.17241 0.37466 0.0
C2867 C 0.49494 0.17333 0.39025 0.0
H2868 H 0.54154 0.14901 0.34746 0.0
H2869 H 0.29986 0.15181 0.4863 0.0
H2870 H 0.70765 0.84179 0.66592 0.0
H2871 H 0.69518 0.86679 0.6323 0.0
H2872 H 0.61937 0.81175 0.62799 0.0
H2873 H 0.63183 0.78686 0.66176 0.0
H2874 H 0.64254 0.83426 0.56943 0.0
H2875 H 0.6236 0.85714 0.68159 0.0
H2876 H 0.63763 0.86952 0.73469 0.0
H2877 H 0.69461 0.93576 0.70394 0.0
H2878 H 0.68129 0.92347 0.65045 0.0
H2879 H 0.565 0.90655 0.5345 0.0
H2880 H 0.5816 0.87879 0.55902 0.0
H2881 H 0.65066 0.93985 0.57872 0.0
H2882 H 0.63414 0.9677 0.55483 0.0
H2883 H 0.63289 0.91439 0.62781 0.0
H2884 H 0.65373 0.89607 0.51921 0.0
H2885 H 0.64492 0.8859 0.46405 0.0
H2886 H 0.59175 0.81448 0.48401 0.0
H2887 H 0.59961 0.82457 0.5397 0.0
C2888 C 0.68861 0.83484 0.65709 0.0
C2889 C 0.67058 0.8126 0.66625 0.0
C2890 C 0.68152 0.84904 0.63794 0.0
C2891 C 0.65632 0.84112 0.62782 0.0
C2892 C 0.63893 0.81807 0.63542 0.0
C2893 C 0.64596 0.80397 0.65475 0.0
C2894 C 0.64686 0.8583 0.613 0.0
C2895 C 0.64014 0.85165 0.58221 0.0
C2896 C 0.64452 0.88131 0.62947 0.0
C2897 C 0.65159 0.8893 0.66198 0.0
C2898 C 0.63918 0.8743 0.68613 0.0
C2899 C 0.64703 0.88128 0.71629 0.0
C2900 C 0.66703 0.9034 0.72268 0.0
C2901 C 0.67913 0.91863 0.69895 0.0
C2902 C 0.67144 0.91167 0.66871 0.0
C2903 C 0.58369 0.91405 0.54409 0.0
C2904 C 0.59831 0.93928 0.54251 0.0
C2905 C 0.59318 0.89817 0.55803 0.0
C2906 C 0.61749 0.90722 0.57045 0.0
C2907 C 0.63187 0.93248 0.56933 0.0
C2908 C 0.62242 0.94833 0.55545 0.0
C2909 C 0.62822 0.89032 0.58421 0.0
C2910 C 0.63521 0.89701 0.6149 0.0
C2911 C 0.63142 0.8677 0.56732 0.0
C2912 C 0.62709 0.86116 0.53372 0.0
C2913 C 0.64002 0.87824 0.51191 0.0
C2914 C 0.63521 0.8725 0.48052 0.0
C2915 C 0.61783 0.84954 0.47046 0.0
C2916 C 0.60522 0.83227 0.49183 0.0
C2917 C 0.60981 0.838 0.52335 0.0
H2918 H 0.61416 0.84514 0.44611 0.0
H2919 H 0.67312 0.90874 0.74602 0.0
H2920 H 0.731 0.18233 0.2812 0.0
H2921 H 0.6972 0.1501 0.30696 0.0
H2922 H 0.67089 0.20684 0.36953 0.0
H2923 H 0.70649 0.23958 0.34521 0.0
H2924 H 0.67118 0.16981 0.40043 0.0
H2925 H 0.63528 0.17178 0.30464 0.0
H2926 H 0.63621 0.17086 0.24737 0.0
H2927 H 0.65288 0.10002 0.23278 0.0
H2928 H 0.65145 0.10008 0.2898 0.0
H2929 H 0.56108 0.07431 0.45728 0.0
H2930 H 0.58584 0.11148 0.43151 0.0
H2931 H 0.62437 0.06626 0.36384 0.0
H2932 H 0.59954 0.02903 0.389 0.0
H2933 H 0.6129 0.10058 0.33629 0.0
H2934 H 0.65342 0.09885 0.42724 0.0
H2935 H 0.65423 0.09687 0.48337 0.0
H2936 H 0.63324 0.16565 0.50621 0.0
H2937 H 0.63192 0.16783 0.45014 0.0
C2938 C 0.71821 0.18813 0.30057 0.0
C2939 C 0.72119 0.21367 0.31077 0.0
C2940 C 0.69857 0.16956 0.31504 0.0
C2941 C 0.68084 0.17597 0.33948 0.0
C2942 C 0.68406 0.20143 0.35033 0.0
C2943 C 0.70421 0.22014 0.33621 0.0
C2944 C 0.65962 0.15585 0.35411 0.0
C2945 C 0.65798 0.15502 0.38652 0.0
C2946 C 0.64287 0.13611 0.33584 0.0
C2947 C 0.6433 0.13597 0.30153 0.0
C2948 C 0.63916 0.15602 0.28922 0.0
C2949 C 0.6398 0.15567 0.25683 0.0
C2950 C 0.64485 0.13557 0.23652 0.0
C2951 C 0.64899 0.11559 0.24854 0.0
C2952 C 0.64807 0.11567 0.28088 0.0
C2953 C 0.57453 0.07217 0.43664 0.0
C2954 C 0.57846 0.04864 0.42542 0.0
C2955 C 0.58874 0.09348 0.42201 0.0
C2956 C 0.60723 0.09171 0.39602 0.0
C2957 C 0.61023 0.06809 0.38388 0.0
C2958 C 0.59604 0.0468 0.39842 0.0
C2959 C 0.62465 0.11449 0.38247 0.0
C2960 C 0.62564 0.11574 0.3503 0.0
C2961 C 0.64106 0.13439 0.40084 0.0
C2962 C 0.64226 0.13335 0.43452 0.0
C2963 C 0.64879 0.11346 0.44424 0.0
C2964 C 0.64935 0.1123 0.47605 0.0
C2965 C 0.64368 0.13107 0.49837 0.0
C2966 C 0.63756 0.15109 0.4889 0.0
C2967 C 0.63691 0.15231 0.4571 0.0
H2968 H 0.64411 0.13012 0.52298 0.0
H2969 H 0.64545 0.13544 0.21148 0.0
H2970 H 0.85443 0.72395 0.43903 0.0
H2971 H 0.88486 0.70332 0.45216 0.0
H2972 H 0.86053 0.6435 0.37846 0.0
H2973 H 0.82951 0.66366 0.36573 0.0
H2974 H 0.86105 0.62612 0.4338 0.0
H2975 H 0.91898 0.68764 0.36962 0.0
H2976 H 0.93952 0.73039 0.35466 0.0
H2977 H 0.97088 0.75385 0.44333 0.0
H2978 H 0.95017 0.71132 0.45902 0.0
H2979 H 0.95289 0.56217 0.42555 0.0
H2980 H 0.93086 0.58984 0.41022 0.0
H2981 H 0.95916 0.64509 0.48705 0.0
H2982 H 0.98209 0.6175 0.50204 0.0
H2983 H 0.95703 0.66651 0.43365 0.0
H2984 H 0.9021 0.60473 0.49665 0.0
H2985 H 0.88326 0.56183 0.51141 0.0
H2986 H 0.84474 0.53929 0.4274 0.0
H2987 H 0.86452 0.58177 0.4113 0.0
C2988 C 0.85551 0.70636 0.42567 0.0
C2989 C 0.8395 0.69539 0.40141 0.0
C2990 C 0.87306 0.69473 0.43302 0.0
C2991 C 0.87504 0.67198 0.41615 0.0
C2992 C 0.8593 0.66108 0.39172 0.0
C2993 C 0.84176 0.67273 0.38432 0.0
C2994 C 0.89293 0.65911 0.42461 0.0
C2995 C 0.88208 0.63481 0.43338 0.0
C2996 C 0.92021 0.67088 0.42515 0.0
C2997 C 0.93283 0.69637 0.4156 0.0
C2998 C 0.93009 0.70197 0.38602 0.0
C2999 C 0.94179 0.72615 0.37739 0.0
C3000 C 0.95645 0.74484 0.39806 0.0
C3001 C 0.95949 0.73937 0.42736 0.0
C3002 C 0.9478 0.71523 0.43612 0.0
C3003 C 0.95499 0.58049 0.43871 0.0
C3004 C 0.96901 0.58771 0.46506 0.0
C3005 C 0.94235 0.59624 0.42997 0.0
C3006 C 0.94294 0.61924 0.4479 0.0
C3007 C 0.95847 0.62735 0.47297 0.0
C3008 C 0.97157 0.61166 0.48146 0.0
C3009 C 0.92522 0.63332 0.44209 0.0
C3010 C 0.93601 0.65785 0.4341 0.0
C3011 C 0.89778 0.62184 0.44248 0.0
C3012 C 0.88507 0.59644 0.4526 0.0
C3013 C 0.88987 0.59058 0.48113 0.0
C3014 C 0.87912 0.56629 0.48966 0.0
C3015 C 0.8628 0.54784 0.47036 0.0
C3016 C 0.85738 0.55361 0.44234 0.0
C3017 C 0.8685 0.57777 0.43341 0.0
H3018 H 0.8543 0.52909 0.47715 0.0
H3019 H 0.96549 0.76355 0.39134 0.0
H3020 H 0.30892 0.85043 0.30525 0.0
H3021 H 0.33746 0.88154 0.3399 0.0
H3022 H 0.33628 0.82346 0.39502 0.0
H3023 H 0.3058 0.79264 0.36145 0.0
H3024 H 0.33822 0.86561 0.43248 0.0
H3025 H 0.38571 0.8423 0.33753 0.0
H3026 H 0.39525 0.83473 0.28025 0.0
H3027 H 0.40751 0.91269 0.27254 0.0
H3028 H 0.39762 0.92068 0.32978 0.0
H3029 H 0.48429 0.94956 0.44519 0.0
H3030 H 0.45139 0.91535 0.41903 0.0
H3031 H 0.39057 0.94813 0.46365 0.0
H3032 H 0.42315 0.98205 0.49028 0.0
H3033 H 0.42089 0.9154 0.3777 0.0
H3034 H 0.33208 0.90206 0.47459 0.0
H3035 H 0.32367 0.90489 0.53216 0.0
H3036 H 0.39823 0.89341 0.53746 0.0
H3037 H 0.40687 0.88998 0.47988 0.0
C3038 C 0.31311 0.84468 0.32604 0.0
C3039 C 0.30369 0.81951 0.3319 0.0
C3040 C 0.3302 0.86231 0.34533 0.0
C3041 C 0.33923 0.85489 0.37006 0.0
C3042 C 0.32939 0.82976 0.37637 0.0
C3043 C 0.31188 0.81219 0.35733 0.0
C3044 C 0.36029 0.87291 0.38774 0.0
C3045 C 0.35627 0.87655 0.42054 0.0
C3046 C 0.38427 0.88663 0.37225 0.0
C3047 C 0.39077 0.88206 0.33791 0.0
C3048 C 0.39033 0.85782 0.32361 0.0
C3049 C 0.3958 0.85345 0.29117 0.0
C3050 C 0.40199 0.87323 0.27283 0.0
C3051 C 0.40274 0.89741 0.28684 0.0
C3052 C 0.39723 0.90188 0.31928 0.0
C3053 C 0.46388 0.94939 0.44966 0.0
C3054 C 0.45643 0.96859 0.46993 0.0
C3055 C 0.44508 0.92983 0.4346 0.0
C3056 C 0.41841 0.92896 0.43953 0.0
C3057 C 0.41091 0.94805 0.45986 0.0
C3058 C 0.42966 0.96755 0.475 0.0
C3059 C 0.39857 0.90867 0.42254 0.0
C3060 C 0.40285 0.90454 0.38977 0.0
C3061 C 0.37518 0.89402 0.43819 0.0
C3062 C 0.37023 0.89604 0.47288 0.0
C3063 C 0.34664 0.90005 0.48801 0.0
C3064 C 0.34183 0.90174 0.52065 0.0
C3065 C 0.36044 0.89941 0.53844 0.0
C3066 C 0.38388 0.89529 0.52364 0.0
C3067 C 0.38875 0.8935 0.49099 0.0
H3068 H 0.35667 0.90078 0.56368 0.0
H3069 H 0.40621 0.86981 0.24776 0.0
H3070 H 0.19399 0.28493 0.28425 0.0
H3071 H 0.16971 0.31382 0.31044 0.0
H3072 H 0.24046 0.36293 0.34633 0.0
H3073 H 0.26496 0.33421 0.31951 0.0
H3074 H 0.20297 0.36224 0.39047 0.0
H3075 H 0.21108 0.37583 0.28374 0.0
H3076 H 0.20773 0.3674 0.2269 0.0
H3077 H 0.12404 0.33751 0.24403 0.0
H3078 H 0.12691 0.34535 0.301 0.0
H3079 H 0.14298 0.46189 0.44621 0.0
H3080 H 0.17169 0.43701 0.4188 0.0
H3081 H 0.10551 0.38446 0.37687 0.0
H3082 H 0.07741 0.40994 0.40254 0.0
H3083 H 0.14344 0.38896 0.33512 0.0
H3084 H 0.13745 0.37976 0.44437 0.0
H3085 H 0.1428 0.39872 0.49831 0.0
H3086 H 0.22658 0.42289 0.47624 0.0
H3087 H 0.22142 0.4065 0.42089 0.0
C3088 C 0.20458 0.30196 0.29737 0.0
C3089 C 0.2317 0.30699 0.29936 0.0
C3090 C 0.19055 0.31866 0.31248 0.0
C3091 C 0.20305 0.34112 0.33024 0.0
C3092 C 0.23005 0.34595 0.33284 0.0
C3093 C 0.24415 0.32931 0.31749 0.0
C3094 C 0.18798 0.35923 0.34632 0.0
C3095 C 0.19021 0.36827 0.37814 0.0
C3096 C 0.17092 0.36723 0.33082 0.0
C3097 C 0.16925 0.36101 0.29664 0.0
C3098 C 0.192 0.36713 0.2754 0.0
C3099 C 0.19018 0.36255 0.24316 0.0
C3100 C 0.16569 0.35208 0.2319 0.0
C3101 C 0.14299 0.34574 0.25282 0.0
C3102 C 0.1447 0.35021 0.28507 0.0
C3103 C 0.13452 0.44497 0.43127 0.0
C3104 C 0.10764 0.43801 0.42696 0.0
C3105 C 0.15103 0.43057 0.41552 0.0
C3106 C 0.14103 0.40821 0.39583 0.0
C3107 C 0.11415 0.4014 0.3917 0.0
C3108 C 0.09789 0.41603 0.40674 0.0
C3109 C 0.15797 0.39169 0.3795 0.0
C3110 C 0.15609 0.38288 0.34755 0.0
C3111 C 0.17562 0.38419 0.3948 0.0
C3112 C 0.17897 0.39229 0.42836 0.0
C3113 C 0.15702 0.3893 0.4509 0.0
C3114 C 0.16004 0.39975 0.48177 0.0
C3115 C 0.18509 0.41181 0.49098 0.0
C3116 C 0.20718 0.41364 0.4691 0.0
C3117 C 0.20417 0.4041 0.43782 0.0
H3118 H 0.18741 0.41979 0.51502 0.0
H3119 H 0.16428 0.34889 0.20695 0.0
H3120 H 0.31656 0.18989 0.73457 0.0
H3121 H 0.34269 0.16237 0.70812 0.0
H3122 H 0.37377 0.21208 0.63662 0.0
H3123 H 0.34886 0.24024 0.66384 0.0
H3124 H 0.35642 0.15953 0.61238 0.0
H3125 H 0.4119 0.21247 0.6892 0.0
H3126 H 0.4216 0.23131 0.74272 0.0
H3127 H 0.40447 0.15792 0.77183 0.0
H3128 H 0.39432 0.13864 0.71855 0.0
H3129 H 0.4517 0.09869 0.53414 0.0
H3130 H 0.42593 0.12701 0.55835 0.0
H3131 H 0.42325 0.10149 0.64807 0.0
H3132 H 0.45148 0.07559 0.6242 0.0
H3133 H 0.42549 0.14334 0.66309 0.0
H3134 H 0.36706 0.08839 0.59104 0.0
H3135 H 0.35235 0.0669 0.54018 0.0
H3136 H 0.36798 0.13812 0.50569 0.0
H3137 H 0.38325 0.15993 0.55581 0.0
C3138 C 0.32894 0.1951 0.71321 0.0
C3139 C 0.33006 0.21746 0.70131 0.0
C3140 C 0.34399 0.17923 0.69806 0.0
C3141 C 0.36033 0.18487 0.67009 0.0
C3142 C 0.36135 0.20703 0.658 0.0
C3143 C 0.34687 0.22325 0.67366 0.0
C3144 C 0.37645 0.16787 0.65367 0.0
C3145 C 0.3717 0.1561 0.62334 0.0
C3146 C 0.39587 0.16255 0.66806 0.0
C3147 C 0.4021 0.17413 0.69999 0.0
C3148 C 0.40999 0.20036 0.70708 0.0
C3149 C 0.41561 0.21111 0.73736 0.0
C3150 C 0.41358 0.19582 0.76069 0.0
C3151 C 0.40599 0.16974 0.75376 0.0
C3152 C 0.40033 0.1589 0.72352 0.0
C3153 C 0.44544 0.09906 0.55898 0.0
C3154 C 0.45363 0.08465 0.57709 0.0
C3155 C 0.43024 0.11519 0.57303 0.0
C3156 C 0.42151 0.11653 0.60549 0.0
C3157 C 0.42942 0.10151 0.62322 0.0
C3158 C 0.4455 0.0863 0.60943 0.0
C3159 C 0.40527 0.13397 0.62144 0.0
C3160 C 0.41006 0.14616 0.65184 0.0
C3161 C 0.38521 0.13896 0.60745 0.0
C3162 C 0.37659 0.12576 0.57703 0.0
C3163 C 0.3676 0.09942 0.57242 0.0
C3164 C 0.35916 0.08718 0.54369 0.0
C3165 C 0.35936 0.10111 0.51955 0.0
C3166 C 0.36796 0.12729 0.52416 0.0
C3167 C 0.37654 0.13961 0.55272 0.0
H3168 H 0.35278 0.09165 0.49733 0.0
H3169 H 0.41793 0.20419 0.78412 0.0
H3170 H 0.80662 0.29661 0.6605 0.0
H3171 H 0.83713 0.32933 0.63036 0.0
H3172 H 0.89518 0.3399 0.69385 0.0
H3173 H 0.86422 0.30839 0.72484 0.0
H3174 H 0.88874 0.3844 0.68464 0.0
H3175 H 0.90265 0.31124 0.61853 0.0
H3176 H 0.89057 0.27107 0.58452 0.0
H3177 H 0.85721 0.3044 0.52463 0.0
H3178 H 0.86942 0.34483 0.55799 0.0
H3179 H 0.99682 0.46719 0.6045 0.0
H3180 H 0.96874 0.43019 0.62915 0.0
H3181 H 0.91446 0.4164 0.55994 0.0
H3182 H 0.94274 0.45307 0.53521 0.0
H3183 H 0.91832 0.37339 0.57122 0.0
H3184 H 0.90121 0.44445 0.63406 0.0
H3185 H 0.91166 0.48597 0.66516 0.0
H3186 H 0.94636 0.45812 0.72978 0.0
H3187 H 0.93663 0.4166 0.69858 0.0
C3188 C 0.826 0.30589 0.66777 0.0
C3189 C 0.83338 0.29974 0.69456 0.0
C3190 C 0.84346 0.32448 0.65051 0.0
C3191 C 0.86858 0.33714 0.65978 0.0
C3192 C 0.8759 0.33066 0.68641 0.0
C3193 C 0.85838 0.31233 0.7038 0.0
C3194 C 0.88676 0.35811 0.64296 0.0
C3195 C 0.89561 0.3818 0.65997 0.0
C3196 C 0.89476 0.35526 0.61042 0.0
C3197 C 0.88662 0.33085 0.59097 0.0
C3198 C 0.89246 0.30983 0.59832 0.0
C3199 C 0.88565 0.28708 0.57915 0.0
C3200 C 0.87286 0.28507 0.55271 0.0
C3201 C 0.86701 0.30592 0.54522 0.0
C3202 C 0.87396 0.32878 0.56417 0.0
C3203 C 0.97914 0.45589 0.59434 0.0
C3204 C 0.97195 0.46268 0.56791 0.0
C3205 C 0.96296 0.43493 0.60854 0.0
C3206 C 0.9392 0.42061 0.59671 0.0
C3207 C 0.93261 0.42703 0.56957 0.0
C3208 C 0.94876 0.44795 0.55543 0.0
C3209 C 0.9208 0.39948 0.61308 0.0
C3210 C 0.91171 0.37589 0.59598 0.0
C3211 C 0.91206 0.40253 0.64539 0.0
C3212 C 0.91827 0.42749 0.66399 0.0
C3213 C 0.91124 0.44726 0.65478 0.0
C3214 C 0.91704 0.47079 0.67241 0.0
C3215 C 0.92968 0.47469 0.69943 0.0
C3216 C 0.93658 0.45508 0.70884 0.0
C3217 C 0.93091 0.43154 0.69122 0.0
H3218 H 0.93412 0.49291 0.71308 0.0
H3219 H 0.86766 0.26741 0.53791 0.0
H3220 H 0.25758 0.72264 0.64246 0.0
H3221 H 0.22915 0.68975 0.6089 0.0
H3222 H 0.1868 0.65511 0.69091 0.0
H3223 H 0.21693 0.68657 0.72374 0.0
H3224 H 0.19099 0.62067 0.65163 0.0
H3225 H 0.16424 0.69317 0.64441 0.0
H3226 H 0.1693 0.73642 0.6343 0.0
H3227 H 0.19766 0.71938 0.5384 0.0
H3228 H 0.19316 0.67613 0.54807 0.0
H3229 H 0.07213 0.55435 0.58194 0.0
H3230 H 0.10343 0.58877 0.61016 0.0
H3231 H 0.16277 0.58863 0.53192 0.0
H3232 H 0.13177 0.55366 0.50372 0.0
H3233 H 0.15063 0.6397 0.56614 0.0
H3234 H 0.17517 0.5649 0.57848 0.0
H3235 H 0.16415 0.52162 0.59201 0.0
H3236 H 0.13229 0.54452 0.68423 0.0
H3237 H 0.14272 0.58786 0.67101 0.0
C3238 C 0.24215 0.70789 0.65305 0.0
C3239 C 0.23921 0.70692 0.68542 0.0
C3240 C 0.22574 0.68924 0.634 0.0
C3241 C 0.20533 0.67007 0.64728 0.0
C3242 C 0.20237 0.66951 0.6799 0.0
C3243 C 0.21945 0.68751 0.69871 0.0
C3244 C 0.1875 0.65016 0.6274 0.0
C3245 C 0.18204 0.62508 0.63324 0.0
C3246 C 0.17587 0.65552 0.60293 0.0
C3247 C 0.17865 0.68151 0.59707 0.0
C3248 C 0.17175 0.69871 0.62123 0.0
C3249 C 0.1745 0.72322 0.61557 0.0
C3250 C 0.18387 0.73067 0.58575 0.0
C3251 C 0.19046 0.71361 0.56151 0.0
C3252 C 0.18781 0.68909 0.56706 0.0
C3253 C 0.09179 0.56174 0.57065 0.0
C3254 C 0.09961 0.55128 0.54073 0.0
C3255 C 0.10959 0.58134 0.58679 0.0
C3256 C 0.13528 0.59104 0.57304 0.0
C3257 C 0.14296 0.58126 0.54279 0.0
C3258 C 0.12531 0.56129 0.52685 0.0
C3259 C 0.15431 0.61085 0.59088 0.0
C3260 C 0.15986 0.63569 0.58459 0.0
C3261 C 0.16536 0.60545 0.61555 0.0
C3262 C 0.15943 0.57951 0.62363 0.0
C3263 C 0.16557 0.56064 0.60152 0.0
C3264 C 0.15949 0.53612 0.60916 0.0
C3265 C 0.14745 0.53031 0.63892 0.0
C3266 C 0.14157 0.54904 0.66116 0.0
C3267 C 0.14757 0.57358 0.65361 0.0
H3268 H 0.14274 0.51131 0.64478 0.0
H3269 H 0.18597 0.74965 0.58142 0.0
loop_
_geom_bond_atom_site_label_1
_geom_bond_atom_site_label_2
_geom_bond_distance
_geom_bond_site_symmetry_2
_ccdc_geom_bond_type
Eu0 N29 2.600 . S
Eu0 N35 2.562 . S
Eu0 O44 2.462 . S
Eu0 O45 2.373 . S
Eu0 O47 2.432 . S
Eu0 O48 2.291 . S
Eu0 O52 2.335 . S
Eu0 O55 2.372 . S
Eu0 C64 2.787 . S
C1 N2 1.365 . S
C1 C4 1.405 . S
C1 C8 1.448 . S
N2 C1 1.365 . S
N2 C5 1.319 . S
N2 Eu11 2.600 . S
C3 C5 1.397 . S
C3 C6 1.367 . S
C3 H23 0.931 . S
C4 C1 1.405 . S
C4 C6 1.403 . S
C4 C10 1.439 . S
C5 N2 1.319 . S
C5 C3 1.397 . S
C5 H16 0.930 . S
C6 C3 1.367 . S
C6 C4 1.403 . S
C6 H27 0.929 . S
C7 C8 1.430 . S
C7 C9 1.387 . S
C7 C13 1.404 . S
C8 C1 1.448 . S
C8 C7 1.430 . S
C8 N12 1.351 . S
C9 C7 1.387 . S
C9 C10 1.374 . S
C9 H24 0.931 . S
C10 C4 1.439 . S
C10 C9 1.374 . S
C10 H25 0.931 . S
Eu11 N2 2.600 . S
Eu11 N12 2.562 . S
Eu11 O46 2.335 . S
Eu11 O49 2.372 . S
Eu11 O50 2.462 . S
Eu11 O51 2.373 . S
Eu11 O53 2.432 . S
Eu11 O54 2.291 . S
Eu11 C75 2.787 . S
N12 C8 1.351 . S
N12 Eu11 2.562 . S
N12 C14 1.325 . S
C13 C7 1.404 . S
C13 C15 1.366 . S
C13 H21 0.930 . S
C14 N12 1.325 . S
C14 C15 1.416 . S
C14 H20 0.929 . S
C15 C13 1.366 . S
C15 C14 1.416 . S
C15 H17 0.930 . S
H16 C5 0.930 . S
H17 C15 0.930 . S
H18 C33 0.930 . S
H19 C40 0.930 . S
H20 C14 0.929 . S
H21 C13 0.930 . S
H22 C36 0.929 . S
H23 C3 0.931 . S
H24 C9 0.931 . S
H25 C10 0.931 . S
H26 C31 0.931 . S
H27 C6 0.929 . S
H28 C39 0.930 . S
N29 Eu0 2.600 . S
N29 C30 1.365 . S
N29 C33 1.319 . S
C30 N29 1.365 . S
C30 C32 1.405 . S
C30 C38 1.448 . S
C31 H26 0.931 . S
C31 C33 1.397 . S
C31 C34 1.367 . S
C32 C30 1.405 . S
C32 C34 1.403 . S
C32 C65 1.439 . S
C33 H18 0.930 . S
C33 N29 1.319 . S
C33 C31 1.397 . S
C34 C31 1.367 . S
C34 C32 1.403 . S
C34 H41 0.929 . S
N35 Eu0 2.562 . S
N35 C36 1.325 . S
N35 C38 1.351 . S
C36 H22 0.929 . S
C36 N35 1.325 . S
C36 C40 1.416 . S
C37 C38 1.430 . S
C37 C39 1.404 . S
C37 C66 1.387 . S
C38 C30 1.448 . S
C38 N35 1.351 . S
C38 C37 1.430 . S
C39 H28 0.930 . S
C39 C37 1.404 . S
C39 C40 1.366 . S
C40 H19 0.930 . S
C40 C36 1.416 . S
C40 C39 1.366 . S
H41 C34 0.929 . S
H42 C65 0.931 . S
H43 C66 0.931 . S
O44 Eu0 2.462 . S
O44 C64 1.252 . S
O45 Eu0 2.373 . S
O45 C56 1.249 . S
O46 Eu11 2.335 . S
O46 C56 1.264 . S
O47 Eu0 2.432 . S
O47 C64 1.268 . S
O48 Eu0 2.291 . S
O48 C63 1.255 . S
O49 Eu11 2.372 . S
O49 C63 1.257 . S
O50 Eu11 2.462 . S
O50 C75 1.252 . S
O51 Eu11 2.373 . S
O51 C67 1.249 . S
O52 Eu0 2.335 . S
O52 C67 1.264 . S
O53 Eu11 2.432 . S
O53 C75 1.268 . S
O54 Eu11 2.291 . S
O54 C74 1.255 . S
O55 Eu0 2.372 . S
O55 C74 1.257 . S
C56 O45 1.249 . S
C56 O46 1.264 . S
C57 C60 1.382 . S
C57 C62 1.390 . S
C57 C64 1.506 . S
C58 C59 1.398 . S
C58 C62 1.392 . S
C59 C58 1.398 . S
C59 C61 1.372 . S
C59 H76 0.931 . S
C60 C57 1.382 . S
C60 C61 1.390 . S
C60 H77 0.931 . S
C61 C59 1.372 . S
C61 C60 1.390 . S
C61 H78 0.929 . S
C62 C57 1.390 . S
C62 C58 1.392 . S
C62 H79 0.930 . S
C63 O48 1.255 . S
C63 O49 1.257 . S
C64 Eu0 2.787 . S
C64 O44 1.252 . S
C64 O47 1.268 . S
C64 C57 1.506 . S
C65 C32 1.439 . S
C65 H42 0.931 . S
C65 C66 1.374 . S
C66 C37 1.387 . S
C66 H43 0.931 . S
C66 C65 1.374 . S
C67 O51 1.249 . S
C67 O52 1.264 . S
C68 C71 1.382 . S
C68 C72 1.390 . S
C68 C75 1.506 . S
C69 C70 1.398 . S
C69 C72 1.392 . S
C70 C69 1.398 . S
C70 C73 1.372 . S
C70 H80 0.931 . S
C71 C68 1.382 . S
C71 C73 1.390 . S
C71 H81 0.931 . S
C72 C68 1.390 . S
C72 C69 1.392 . S
C72 H82 0.930 . S
C73 C70 1.372 . S
C73 C71 1.390 . S
C73 H83 0.929 . S
C74 O54 1.255 . S
C74 O55 1.257 . S
C75 Eu11 2.787 . S
C75 O50 1.252 . S
C75 O53 1.268 . S
C75 C68 1.506 . S
H76 C59 0.931 . S
H77 C60 0.931 . S
H78 C61 0.929 . S
H79 C62 0.930 . S
H80 C70 0.931 . S
H81 C71 0.931 . S
H82 C72 0.930 . S
H83 C73 0.929 . S
Eu84 N113 2.600 . S
Eu84 N119 2.562 . S
Eu84 O128 2.462 . S
Eu84 O129 2.373 . S
Eu84 O131 2.432 . S
Eu84 O132 2.291 . S
Eu84 O136 2.335 . S
Eu84 O139 2.372 . S
Eu84 C148 2.787 . S
C85 N86 1.365 . S
C85 C88 1.405 . S
C85 C92 1.448 . S
N86 C85 1.365 . S
N86 C89 1.319 . S
N86 Eu95 2.600 . S
C87 C89 1.397 . S
C87 C90 1.367 . S
C87 H107 0.931 . S
C88 C85 1.405 . S
C88 C90 1.403 . S
C88 C94 1.439 . S
C89 N86 1.319 . S
C89 C87 1.397 . S
C89 H100 0.930 . S
C90 C87 1.367 . S
C90 C88 1.403 . S
C90 H111 0.929 . S
C91 C92 1.430 . S
C91 C93 1.387 . S
C91 C97 1.404 . S
C92 C85 1.448 . S
C92 C91 1.430 . S
C92 N96 1.351 . S
C93 C91 1.387 . S
C93 C94 1.374 . S
C93 H108 0.931 . S
C94 C88 1.439 . S
C94 C93 1.374 . S
C94 H109 0.931 . S
Eu95 N86 2.600 . S
Eu95 N96 2.562 . S
Eu95 O130 2.335 . S
Eu95 O133 2.372 . S
Eu95 O134 2.462 . S
Eu95 O135 2.373 . S
Eu95 O137 2.432 . S
Eu95 O138 2.291 . S
Eu95 C159 2.787 . S
N96 C92 1.351 . S
N96 Eu95 2.562 . S
N96 C98 1.325 . S
C97 C91 1.404 . S
C97 C99 1.366 . S
C97 H105 0.930 . S
C98 N96 1.325 . S
C98 C99 1.416 . S
C98 H104 0.929 . S
C99 C97 1.366 . S
C99 C98 1.416 . S
C99 H101 0.930 . S
H100 C89 0.930 . S
H101 C99 0.930 . S
H102 C117 0.930 . S
H103 C124 0.930 . S
H104 C98 0.929 . S
H105 C97 0.930 . S
H106 C120 0.929 . S
H107 C87 0.931 . S
H108 C93 0.931 . S
H109 C94 0.931 . S
H110 C115 0.931 . S
H111 C90 0.929 . S
H112 C123 0.930 . S
N113 Eu84 2.600 . S
N113 C114 1.365 . S
N113 C117 1.319 . S
C114 N113 1.365 . S
C114 C116 1.405 . S
C114 C122 1.448 . S
C115 H110 0.931 . S
C115 C117 1.397 . S
C115 C118 1.367 . S
C116 C114 1.405 . S
C116 C118 1.403 . S
C116 C149 1.439 . S
C117 H102 0.930 . S
C117 N113 1.319 . S
C117 C115 1.397 . S
C118 C115 1.367 . S
C118 C116 1.403 . S
C118 H125 0.929 . S
N119 Eu84 2.562 . S
N119 C120 1.325 . S
N119 C122 1.351 . S
C120 H106 0.929 . S
C120 N119 1.325 . S
C120 C124 1.416 . S
C121 C122 1.430 . S
C121 C123 1.404 . S
C121 C150 1.387 . S
C122 C114 1.448 . S
C122 N119 1.351 . S
C122 C121 1.430 . S
C123 H112 0.930 . S
C123 C121 1.404 . S
C123 C124 1.366 . S
C124 H103 0.930 . S
C124 C120 1.416 . S
C124 C123 1.366 . S
H125 C118 0.929 . S
H126 C149 0.931 . S
H127 C150 0.931 . S
O128 Eu84 2.462 . S
O128 C148 1.252 . S
O129 Eu84 2.373 . S
O129 C140 1.249 . S
O130 Eu95 2.335 . S
O130 C140 1.264 . S
O131 Eu84 2.432 . S
O131 C148 1.268 . S
O132 Eu84 2.291 . S
O132 C147 1.255 . S
O133 Eu95 2.372 . S
O133 C147 1.257 . S
O134 Eu95 2.462 . S
O134 C159 1.252 . S
O135 Eu95 2.373 . S
O135 C151 1.249 . S
O136 Eu84 2.335 . S
O136 C151 1.264 . S
O137 Eu95 2.432 . S
O137 C159 1.268 . S
O138 Eu95 2.291 . S
O138 C158 1.255 . S
O139 Eu84 2.372 . S
O139 C158 1.257 . S
C140 O129 1.249 . S
C140 O130 1.264 . S
C141 C144 1.382 . S
C141 C146 1.390 . S
C141 C148 1.506 . S
C142 C143 1.398 . S
C142 C146 1.392 . S
C143 C142 1.398 . S
C143 C145 1.372 . S
C143 H160 0.931 . S
C144 C141 1.382 . S
C144 C145 1.390 . S
C144 H161 0.931 . S
C145 C143 1.372 . S
C145 C144 1.390 . S
C145 H162 0.929 . S
C146 C141 1.390 . S
C146 C142 1.392 . S
C146 H163 0.930 . S
C147 O132 1.255 . S
C147 O133 1.257 . S
C148 Eu84 2.787 . S
C148 O128 1.252 . S
C148 O131 1.268 . S
C148 C141 1.506 . S
C149 C116 1.439 . S
C149 H126 0.931 . S
C149 C150 1.374 . S
C150 C121 1.387 . S
C150 H127 0.931 . S
C150 C149 1.374 . S
C151 O135 1.249 . S
C151 O136 1.264 . S
C152 C155 1.382 . S
C152 C156 1.390 . S
C152 C159 1.506 . S
C153 C154 1.398 . S
C153 C156 1.392 . S
C154 C153 1.398 . S
C154 C157 1.372 . S
C154 H164 0.931 . S
C155 C152 1.382 . S
C155 C157 1.390 . S
C155 H165 0.931 . S
C156 C152 1.390 . S
C156 C153 1.392 . S
C156 H166 0.930 . S
C157 C154 1.372 . S
C157 C155 1.390 . S
C157 H167 0.929 . S
C158 O138 1.255 . S
C158 O139 1.257 . S
C159 Eu95 2.787 . S
C159 O134 1.252 . S
C159 O137 1.268 . S
C159 C152 1.506 . S
H160 C143 0.931 . S
H161 C144 0.931 . S
H162 C145 0.929 . S
H163 C146 0.930 . S
H164 C154 0.931 . S
H165 C155 0.931 . S
H166 C156 0.930 . S
H167 C157 0.929 . S
Eu168 N197 2.600 . S
Eu168 N203 2.562 . S
Eu168 O212 2.462 . S
Eu168 O213 2.373 . S
Eu168 O215 2.432 . S
Eu168 O216 2.291 . S
Eu168 O220 2.335 . S
Eu168 O223 2.372 . S
Eu168 C232 2.787 . S
C169 N170 1.365 . S
C169 C172 1.405 . S
C169 C176 1.448 . S
N170 C169 1.365 . S
N170 C173 1.319 . S
N170 Eu179 2.600 . S
C171 C173 1.397 . S
C171 C174 1.367 . S
C171 H191 0.931 . S
C172 C169 1.405 . S
C172 C174 1.403 . S
C172 C178 1.439 . S
C173 N170 1.319 . S
C173 C171 1.397 . S
C173 H184 0.930 . S
C174 C171 1.367 . S
C174 C172 1.403 . S
C174 H195 0.929 . S
C175 C176 1.430 . S
C175 C177 1.387 . S
C175 C181 1.404 . S
C176 C169 1.448 . S
C176 C175 1.430 . S
C176 N180 1.351 . S
C177 C175 1.387 . S
C177 C178 1.374 . S
C177 H192 0.931 . S
C178 C172 1.439 . S
C178 C177 1.374 . S
C178 H193 0.931 . S
Eu179 N170 2.600 . S
Eu179 N180 2.562 . S
Eu179 O214 2.335 . S
Eu179 O217 2.372 . S
Eu179 O218 2.462 . S
Eu179 O219 2.373 . S
Eu179 O221 2.432 . S
Eu179 O222 2.291 . S
Eu179 C243 2.787 . S
N180 C176 1.351 . S
N180 Eu179 2.562 . S
N180 C182 1.325 . S
C181 C175 1.404 . S
C181 C183 1.366 . S
C181 H189 0.930 . S
C182 N180 1.325 . S
C182 C183 1.416 . S
C182 H188 0.929 . S
C183 C181 1.366 . S
C183 C182 1.416 . S
C183 H185 0.930 . S
H184 C173 0.930 . S
H185 C183 0.930 . S
H186 C201 0.930 . S
H187 C208 0.930 . S
H188 C182 0.929 . S
H189 C181 0.930 . S
H190 C204 0.929 . S
H191 C171 0.931 . S
H192 C177 0.931 . S
H193 C178 0.931 . S
H194 C199 0.931 . S
H195 C174 0.929 . S
H196 C207 0.930 . S
N197 Eu168 2.600 . S
N197 C198 1.365 . S
N197 C201 1.319 . S
C198 N197 1.365 . S
C198 C200 1.405 . S
C198 C206 1.448 . S
C199 H194 0.931 . S
C199 C201 1.397 . S
C199 C202 1.367 . S
C200 C198 1.405 . S
C200 C202 1.403 . S
C200 C233 1.439 . S
C201 H186 0.930 . S
C201 N197 1.319 . S
C201 C199 1.397 . S
C202 C199 1.367 . S
C202 C200 1.403 . S
C202 H209 0.929 . S
N203 Eu168 2.562 . S
N203 C204 1.325 . S
N203 C206 1.351 . S
C204 H190 0.929 . S
C204 N203 1.325 . S
C204 C208 1.416 . S
C205 C206 1.430 . S
C205 C207 1.404 . S
C205 C234 1.387 . S
C206 C198 1.448 . S
C206 N203 1.351 . S
C206 C205 1.430 . S
C207 H196 0.930 . S
C207 C205 1.404 . S
C207 C208 1.366 . S
C208 H187 0.930 . S
C208 C204 1.416 . S
C208 C207 1.366 . S
H209 C202 0.929 . S
H210 C233 0.931 . S
H211 C234 0.931 . S
O212 Eu168 2.462 . S
O212 C232 1.252 . S
O213 Eu168 2.373 . S
O213 C224 1.249 . S
O214 Eu179 2.335 . S
O214 C224 1.264 . S
O215 Eu168 2.432 . S
O215 C232 1.268 . S
O216 Eu168 2.291 . S
O216 C231 1.255 . S
O217 Eu179 2.372 . S
O217 C231 1.257 . S
O218 Eu179 2.462 . S
O218 C243 1.252 . S
O219 Eu179 2.373 . S
O219 C235 1.249 . S
O220 Eu168 2.335 . S
O220 C235 1.264 . S
O221 Eu179 2.432 . S
O221 C243 1.268 . S
O222 Eu179 2.291 . S
O222 C242 1.255 . S
O223 Eu168 2.372 . S
O223 C242 1.257 . S
C224 O213 1.249 . S
C224 O214 1.264 . S
C225 C228 1.382 . S
C225 C230 1.390 . S
C225 C232 1.506 . S
C226 C227 1.398 . S
C226 C230 1.392 . S
C227 C226 1.398 . S
C227 C229 1.372 . S
C227 H244 0.931 . S
C228 C225 1.382 . S
C228 C229 1.390 . S
C228 H245 0.931 . S
C229 C227 1.372 . S
C229 C228 1.390 . S
C229 H246 0.929 . S
C230 C225 1.390 . S
C230 C226 1.392 . S
C230 H247 0.930 . S
C231 O216 1.255 . S
C231 O217 1.257 . S
C232 Eu168 2.787 . S
C232 O212 1.252 . S
C232 O215 1.268 . S
C232 C225 1.506 . S
C233 C200 1.439 . S
C233 H210 0.931 . S
C233 C234 1.374 . S
C234 C205 1.387 . S
C234 H211 0.931 . S
C234 C233 1.374 . S
C235 O219 1.249 . S
C235 O220 1.264 . S
C236 C239 1.382 . S
C236 C240 1.390 . S
C236 C243 1.506 . S
C237 C238 1.398 . S
C237 C240 1.392 . S
C238 C237 1.398 . S
C238 C241 1.372 . S
C238 H248 0.931 . S
C239 C236 1.382 . S
C239 C241 1.390 . S
C239 H249 0.931 . S
C240 C236 1.390 . S
C240 C237 1.392 . S
C240 H250 0.930 . S
C241 C238 1.372 . S
C241 C239 1.390 . S
C241 H251 0.929 . S
C242 O222 1.255 . S
C242 O223 1.257 . S
C243 Eu179 2.787 . S
C243 O218 1.252 . S
C243 O221 1.268 . S
C243 C236 1.506 . S
H244 C227 0.931 . S
H245 C228 0.931 . S
H246 C229 0.929 . S
H247 C230 0.930 . S
H248 C238 0.931 . S
H249 C239 0.931 . S
H250 C240 0.930 . S
H251 C241 0.929 . S
Eu252 N281 2.600 . S
Eu252 N287 2.562 . S
Eu252 O296 2.462 . S
Eu252 O297 2.373 . S
Eu252 O299 2.432 . S
Eu252 O300 2.291 . S
Eu252 O304 2.335 . S
Eu252 O307 2.372 . S
Eu252 C316 2.787 . S
C253 N254 1.365 . S
C253 C256 1.405 . S
C253 C260 1.448 . S
N254 C253 1.365 . S
N254 C257 1.319 . S
N254 Eu263 2.600 . S
C255 C257 1.397 . S
C255 C258 1.367 . S
C255 H275 0.931 . S
C256 C253 1.405 . S
C256 C258 1.403 . S
C256 C262 1.439 . S
C257 N254 1.319 . S
C257 C255 1.397 . S
C257 H268 0.930 . S
C258 C255 1.367 . S
C258 C256 1.403 . S
C258 H279 0.929 . S
C259 C260 1.430 . S
C259 C261 1.387 . S
C259 C265 1.404 . S
C260 C253 1.448 . S
C260 C259 1.430 . S
C260 N264 1.351 . S
C261 C259 1.387 . S
C261 C262 1.374 . S
C261 H276 0.931 . S
C262 C256 1.439 . S
C262 C261 1.374 . S
C262 H277 0.931 . S
Eu263 N254 2.600 . S
Eu263 N264 2.562 . S
Eu263 O298 2.335 . S
Eu263 O301 2.372 . S
Eu263 O302 2.462 . S
Eu263 O303 2.373 . S
Eu263 O305 2.432 . S
Eu263 O306 2.291 . S
Eu263 C327 2.787 . S
N264 C260 1.351 . S
N264 Eu263 2.562 . S
N264 C266 1.325 . S
C265 C259 1.404 . S
C265 C267 1.366 . S
C265 H273 0.930 . S
C266 N264 1.325 . S
C266 C267 1.416 . S
C266 H272 0.929 . S
C267 C265 1.366 . S
C267 C266 1.416 . S
C267 H269 0.930 . S
H268 C257 0.930 . S
H269 C267 0.930 . S
H270 C285 0.930 . S
H271 C292 0.930 . S
H272 C266 0.929 . S
H273 C265 0.930 . S
H274 C288 0.929 . S
H275 C255 0.931 . S
H276 C261 0.931 . S
H277 C262 0.931 . S
H278 C283 0.931 . S
H279 C258 0.929 . S
H280 C291 0.930 . S
N281 Eu252 2.600 . S
N281 C282 1.365 . S
N281 C285 1.319 . S
C282 N281 1.365 . S
C282 C284 1.405 . S
C282 C290 1.448 . S
C283 H278 0.931 . S
C283 C285 1.397 . S
C283 C286 1.367 . S
C284 C282 1.405 . S
C284 C286 1.403 . S
C284 C317 1.439 . S
C285 H270 0.930 . S
C285 N281 1.319 . S
C285 C283 1.397 . S
C286 C283 1.367 . S
C286 C284 1.403 . S
C286 H293 0.929 . S
N287 Eu252 2.562 . S
N287 C288 1.325 . S
N287 C290 1.351 . S
C288 H274 0.929 . S
C288 N287 1.325 . S
C288 C292 1.416 . S
C289 C290 1.430 . S
C289 C291 1.404 . S
C289 C318 1.387 . S
C290 C282 1.448 . S
C290 N287 1.351 . S
C290 C289 1.430 . S
C291 H280 0.930 . S
C291 C289 1.404 . S
C291 C292 1.366 . S
C292 H271 0.930 . S
C292 C288 1.416 . S
C292 C291 1.366 . S
H293 C286 0.929 . S
H294 C317 0.931 . S
H295 C318 0.931 . S
O296 Eu252 2.462 . S
O296 C316 1.252 . S
O297 Eu252 2.373 . S
O297 C308 1.249 . S
O298 Eu263 2.335 . S
O298 C308 1.264 . S
O299 Eu252 2.432 . S
O299 C316 1.268 . S
O300 Eu252 2.291 . S
O300 C315 1.255 . S
O301 Eu263 2.372 . S
O301 C315 1.257 . S
O302 Eu263 2.462 . S
O302 C327 1.252 . S
O303 Eu263 2.373 . S
O303 C319 1.249 . S
O304 Eu252 2.335 . S
O304 C319 1.264 . S
O305 Eu263 2.432 . S
O305 C327 1.268 . S
O306 Eu263 2.291 . S
O306 C326 1.255 . S
O307 Eu252 2.372 . S
O307 C326 1.257 . S
C308 O297 1.249 . S
C308 O298 1.264 . S
C309 C312 1.382 . S
C309 C314 1.390 . S
C309 C316 1.506 . S
C310 C311 1.398 . S
C310 C314 1.392 . S
C311 C310 1.398 . S
C311 C313 1.372 . S
C311 H328 0.931 . S
C312 C309 1.382 . S
C312 C313 1.390 . S
C312 H329 0.931 . S
C313 C311 1.372 . S
C313 C312 1.390 . S
C313 H330 0.929 . S
C314 C309 1.390 . S
C314 C310 1.392 . S
C314 H331 0.930 . S
C315 O300 1.255 . S
C315 O301 1.257 . S
C316 Eu252 2.787 . S
C316 O296 1.252 . S
C316 O299 1.268 . S
C316 C309 1.506 . S
C317 C284 1.439 . S
C317 H294 0.931 . S
C317 C318 1.374 . S
C318 C289 1.387 . S
C318 H295 0.931 . S
C318 C317 1.374 . S
C319 O303 1.249 . S
C319 O304 1.264 . S
C320 C323 1.382 . S
C320 C324 1.390 . S
C320 C327 1.506 . S
C321 C322 1.398 . S
C321 C324 1.392 . S
C322 C321 1.398 . S
C322 C325 1.372 . S
C322 H332 0.931 . S
C323 C320 1.382 . S
C323 C325 1.390 . S
C323 H333 0.931 . S
C324 C320 1.390 . S
C324 C321 1.392 . S
C324 H334 0.930 . S
C325 C322 1.372 . S
C325 C323 1.390 . S
C325 H335 0.929 . S
C326 O306 1.255 . S
C326 O307 1.257 . S
C327 Eu263 2.787 . S
C327 O302 1.252 . S
C327 O305 1.268 . S
C327 C320 1.506 . S
H328 C311 0.931 . S
H329 C312 0.931 . S
H330 C313 0.929 . S
H331 C314 0.930 . S
H332 C322 0.931 . S
H333 C323 0.931 . S
H334 C324 0.930 . S
H335 C325 0.929 . S
Eu336 N365 2.600 . S
Eu336 N371 2.562 . S
Eu336 O380 2.462 . S
Eu336 O381 2.373 . S
Eu336 O383 2.432 . S
Eu336 O384 2.291 . S
Eu336 O388 2.335 . S
Eu336 O391 2.372 . S
Eu336 C400 2.787 . S
C337 N338 1.365 . S
C337 C340 1.405 . S
C337 C344 1.448 . S
N338 C337 1.365 . S
N338 C341 1.319 . S
N338 Eu347 2.600 . S
C339 C341 1.397 . S
C339 C342 1.367 . S
C339 H359 0.931 . S
C340 C337 1.405 . S
C340 C342 1.403 . S
C340 C346 1.439 . S
C341 N338 1.319 . S
C341 C339 1.397 . S
C341 H352 0.930 . S
C342 C339 1.367 . S
C342 C340 1.403 . S
C342 H363 0.929 . S
C343 C344 1.430 . S
C343 C345 1.387 . S
C343 C349 1.404 . S
C344 C337 1.448 . S
C344 C343 1.430 . S
C344 N348 1.351 . S
C345 C343 1.387 . S
C345 C346 1.374 . S
C345 H360 0.931 . S
C346 C340 1.439 . S
C346 C345 1.374 . S
C346 H361 0.931 . S
Eu347 N338 2.600 . S
Eu347 N348 2.562 . S
Eu347 O382 2.335 . S
Eu347 O385 2.372 . S
Eu347 O386 2.462 . S
Eu347 O387 2.373 . S
Eu347 O389 2.432 . S
Eu347 O390 2.291 . S
Eu347 C411 2.787 . S
N348 C344 1.351 . S
N348 Eu347 2.562 . S
N348 C350 1.325 . S
C349 C343 1.404 . S
C349 C351 1.366 . S
C349 H357 0.930 . S
C350 N348 1.325 . S
C350 C351 1.416 . S
C350 H356 0.929 . S
C351 C349 1.366 . S
C351 C350 1.416 . S
C351 H353 0.930 . S
H352 C341 0.930 . S
H353 C351 0.930 . S
H354 C369 0.930 . S
H355 C376 0.930 . S
H356 C350 0.929 . S
H357 C349 0.930 . S
H358 C372 0.929 . S
H359 C339 0.931 . S
H360 C345 0.931 . S
H361 C346 0.931 . S
H362 C367 0.931 . S
H363 C342 0.929 . S
H364 C375 0.930 . S
N365 Eu336 2.600 . S
N365 C366 1.365 . S
N365 C369 1.319 . S
C366 N365 1.365 . S
C366 C368 1.405 . S
C366 C374 1.448 . S
C367 H362 0.931 . S
C367 C369 1.397 . S
C367 C370 1.367 . S
C368 C366 1.405 . S
C368 C370 1.403 . S
C368 C401 1.439 . S
C369 H354 0.930 . S
C369 N365 1.319 . S
C369 C367 1.397 . S
C370 C367 1.367 . S
C370 C368 1.403 . S
C370 H377 0.929 . S
N371 Eu336 2.562 . S
N371 C372 1.325 . S
N371 C374 1.351 . S
C372 H358 0.929 . S
C372 N371 1.325 . S
C372 C376 1.416 . S
C373 C374 1.430 . S
C373 C375 1.404 . S
C373 C402 1.387 . S
C374 C366 1.448 . S
C374 N371 1.351 . S
C374 C373 1.430 . S
C375 H364 0.930 . S
C375 C373 1.404 . S
C375 C376 1.366 . S
C376 H355 0.930 . S
C376 C372 1.416 . S
C376 C375 1.366 . S
H377 C370 0.929 . S
H378 C401 0.931 . S
H379 C402 0.931 . S
O380 Eu336 2.462 . S
O380 C400 1.252 . S
O381 Eu336 2.373 . S
O381 C392 1.249 . S
O382 Eu347 2.335 . S
O382 C392 1.264 . S
O383 Eu336 2.432 . S
O383 C400 1.268 . S
O384 Eu336 2.291 . S
O384 C399 1.255 . S
O385 Eu347 2.372 . S
O385 C399 1.257 . S
O386 Eu347 2.462 . S
O386 C411 1.252 . S
O387 Eu347 2.373 . S
O387 C403 1.249 . S
O388 Eu336 2.335 . S
O388 C403 1.264 . S
O389 Eu347 2.432 . S
O389 C411 1.268 . S
O390 Eu347 2.291 . S
O390 C410 1.255 . S
O391 Eu336 2.372 . S
O391 C410 1.257 . S
C392 O381 1.249 . S
C392 O382 1.264 . S
C393 C396 1.382 . S
C393 C398 1.390 . S
C393 C400 1.506 . S
C394 C395 1.398 . S
C394 C398 1.392 . S
C395 C394 1.398 . S
C395 C397 1.372 . S
C395 H412 0.931 . S
C396 C393 1.382 . S
C396 C397 1.390 . S
C396 H413 0.931 . S
C397 C395 1.372 . S
C397 C396 1.390 . S
C397 H414 0.929 . S
C398 C393 1.390 . S
C398 C394 1.392 . S
C398 H415 0.930 . S
C399 O384 1.255 . S
C399 O385 1.257 . S
C400 Eu336 2.787 . S
C400 O380 1.252 . S
C400 O383 1.268 . S
C400 C393 1.506 . S
C401 C368 1.439 . S
C401 H378 0.931 . S
C401 C402 1.374 . S
C402 C373 1.387 . S
C402 H379 0.931 . S
C402 C401 1.374 . S
C403 O387 1.249 . S
C403 O388 1.264 . S
C404 C407 1.382 . S
C404 C408 1.390 . S
C404 C411 1.506 . S
C405 C406 1.398 . S
C405 C408 1.392 . S
C406 C405 1.398 . S
C406 C409 1.372 . S
C406 H416 0.931 . S
C407 C404 1.382 . S
C407 C409 1.390 . S
C407 H417 0.931 . S
C408 C404 1.390 . S
C408 C405 1.392 . S
C408 H418 0.930 . S
C409 C406 1.372 . S
C409 C407 1.390 . S
C409 H419 0.929 . S
C410 O390 1.255 . S
C410 O391 1.257 . S
C411 Eu347 2.787 . S
C411 O386 1.252 . S
C411 O389 1.268 . S
C411 C404 1.506 . S
H412 C395 0.931 . S
H413 C396 0.931 . S
H414 C397 0.929 . S
H415 C398 0.930 . S
H416 C406 0.931 . S
H417 C407 0.931 . S
H418 C408 0.930 . S
H419 C409 0.929 . S
Eu420 N449 2.600 . S
Eu420 N455 2.562 . S
Eu420 O464 2.462 . S
Eu420 O465 2.373 . S
Eu420 O467 2.432 . S
Eu420 O468 2.291 . S
Eu420 O472 2.335 . S
Eu420 O475 2.372 . S
Eu420 C484 2.787 . S
C421 N422 1.365 . S
C421 C424 1.405 . S
C421 C428 1.448 . S
N422 C421 1.365 . S
N422 C425 1.319 . S
N422 Eu431 2.600 . S
C423 C425 1.397 . S
C423 C426 1.367 . S
C423 H443 0.931 . S
C424 C421 1.405 . S
C424 C426 1.403 . S
C424 C430 1.439 . S
C425 N422 1.319 . S
C425 C423 1.397 . S
C425 H436 0.930 . S
C426 C423 1.367 . S
C426 C424 1.403 . S
C426 H447 0.929 . S
C427 C428 1.430 . S
C427 C429 1.387 . S
C427 C433 1.404 . S
C428 C421 1.448 . S
C428 C427 1.430 . S
C428 N432 1.351 . S
C429 C427 1.387 . S
C429 C430 1.374 . S
C429 H444 0.931 . S
C430 C424 1.439 . S
C430 C429 1.374 . S
C430 H445 0.931 . S
Eu431 N422 2.600 . S
Eu431 N432 2.562 . S
Eu431 O466 2.335 . S
Eu431 O469 2.372 . S
Eu431 O470 2.462 . S
Eu431 O471 2.373 . S
Eu431 O473 2.432 . S
Eu431 O474 2.291 . S
Eu431 C495 2.787 . S
N432 C428 1.351 . S
N432 Eu431 2.562 . S
N432 C434 1.325 . S
C433 C427 1.404 . S
C433 C435 1.366 . S
C433 H441 0.930 . S
C434 N432 1.325 . S
C434 C435 1.416 . S
C434 H440 0.929 . S
C435 C433 1.366 . S
C435 C434 1.416 . S
C435 H437 0.930 . S
H436 C425 0.930 . S
H437 C435 0.930 . S
H438 C453 0.930 . S
H439 C460 0.930 . S
H440 C434 0.929 . S
H441 C433 0.930 . S
H442 C456 0.929 . S
H443 C423 0.931 . S
H444 C429 0.931 . S
H445 C430 0.931 . S
H446 C451 0.931 . S
H447 C426 0.929 . S
H448 C459 0.930 . S
N449 Eu420 2.600 . S
N449 C450 1.365 . S
N449 C453 1.319 . S
C450 N449 1.365 . S
C450 C452 1.405 . S
C450 C458 1.448 . S
C451 H446 0.931 . S
C451 C453 1.397 . S
C451 C454 1.367 . S
C452 C450 1.405 . S
C452 C454 1.403 . S
C452 C485 1.439 . S
C453 H438 0.930 . S
C453 N449 1.319 . S
C453 C451 1.397 . S
C454 C451 1.367 . S
C454 C452 1.403 . S
C454 H461 0.929 . S
N455 Eu420 2.562 . S
N455 C456 1.325 . S
N455 C458 1.351 . S
C456 H442 0.929 . S
C456 N455 1.325 . S
C456 C460 1.416 . S
C457 C458 1.430 . S
C457 C459 1.404 . S
C457 C486 1.387 . S
C458 C450 1.448 . S
C458 N455 1.351 . S
C458 C457 1.430 . S
C459 H448 0.930 . S
C459 C457 1.404 . S
C459 C460 1.366 . S
C460 H439 0.930 . S
C460 C456 1.416 . S
C460 C459 1.366 . S
H461 C454 0.929 . S
H462 C485 0.931 . S
H463 C486 0.931 . S
O464 Eu420 2.462 . S
O464 C484 1.252 . S
O465 Eu420 2.373 . S
O465 C476 1.249 . S
O466 Eu431 2.335 . S
O466 C476 1.264 . S
O467 Eu420 2.432 . S
O467 C484 1.268 . S
O468 Eu420 2.291 . S
O468 C483 1.255 . S
O469 Eu431 2.372 . S
O469 C483 1.257 . S
O470 Eu431 2.462 . S
O470 C495 1.252 . S
O471 Eu431 2.373 . S
O471 C487 1.249 . S
O472 Eu420 2.335 . S
O472 C487 1.264 . S
O473 Eu431 2.432 . S
O473 C495 1.268 . S
O474 Eu431 2.291 . S
O474 C494 1.255 . S
O475 Eu420 2.372 . S
O475 C494 1.257 . S
C476 O465 1.249 . S
C476 O466 1.264 . S
C477 C480 1.382 . S
C477 C482 1.390 . S
C477 C484 1.506 . S
C478 C479 1.398 . S
C478 C482 1.392 . S
C479 C478 1.398 . S
C479 C481 1.372 . S
C479 H496 0.931 . S
C480 C477 1.382 . S
C480 C481 1.390 . S
C480 H497 0.931 . S
C481 C479 1.372 . S
C481 C480 1.390 . S
C481 H498 0.929 . S
C482 C477 1.390 . S
C482 C478 1.392 . S
C482 H499 0.930 . S
C483 O468 1.255 . S
C483 O469 1.257 . S
C484 Eu420 2.787 . S
C484 O464 1.252 . S
C484 O467 1.268 . S
C484 C477 1.506 . S
C485 C452 1.439 . S
C485 H462 0.931 . S
C485 C486 1.374 . S
C486 C457 1.387 . S
C486 H463 0.931 . S
C486 C485 1.374 . S
C487 O471 1.249 . S
C487 O472 1.264 . S
C488 C491 1.382 . S
C488 C492 1.390 . S
C488 C495 1.506 . S
C489 C490 1.398 . S
C489 C492 1.392 . S
C490 C489 1.398 . S
C490 C493 1.372 . S
C490 H500 0.931 . S
C491 C488 1.382 . S
C491 C493 1.390 . S
C491 H501 0.931 . S
C492 C488 1.390 . S
C492 C489 1.392 . S
C492 H502 0.930 . S
C493 C490 1.372 . S
C493 C491 1.390 . S
C493 H503 0.929 . S
C494 O474 1.255 . S
C494 O475 1.257 . S
C495 Eu431 2.787 . S
C495 O470 1.252 . S
C495 O473 1.268 . S
C495 C488 1.506 . S
H496 C479 0.931 . S
H497 C480 0.931 . S
H498 C481 0.929 . S
H499 C482 0.930 . S
H500 C490 0.931 . S
H501 C491 0.931 . S
H502 C492 0.930 . S
H503 C493 0.929 . S
Eu504 N533 2.600 . S
Eu504 N539 2.562 . S
Eu504 O548 2.462 . S
Eu504 O549 2.373 . S
Eu504 O551 2.432 . S
Eu504 O552 2.291 . S
Eu504 O556 2.335 . S
Eu504 O559 2.372 . S
Eu504 C568 2.787 . S
C505 N506 1.365 . S
C505 C508 1.405 . S
C505 C512 1.448 . S
N506 C505 1.365 . S
N506 C509 1.319 . S
N506 Eu515 2.600 . S
C507 C509 1.397 . S
C507 C510 1.367 . S
C507 H527 0.931 . S
C508 C505 1.405 . S
C508 C510 1.403 . S
C508 C514 1.439 . S
C509 N506 1.319 . S
C509 C507 1.397 . S
C509 H520 0.930 . S
C510 C507 1.367 . S
C510 C508 1.403 . S
C510 H531 0.929 . S
C511 C512 1.430 . S
C511 C513 1.387 . S
C511 C517 1.404 . S
C512 C505 1.448 . S
C512 C511 1.430 . S
C512 N516 1.351 . S
C513 C511 1.387 . S
C513 C514 1.374 . S
C513 H528 0.931 . S
C514 C508 1.439 . S
C514 C513 1.374 . S
C514 H529 0.931 . S
Eu515 N506 2.600 . S
Eu515 N516 2.562 . S
Eu515 O550 2.335 . S
Eu515 O553 2.372 . S
Eu515 O554 2.462 . S
Eu515 O555 2.373 . S
Eu515 O557 2.432 . S
Eu515 O558 2.291 . S
Eu515 C579 2.787 . S
N516 C512 1.351 . S
N516 Eu515 2.562 . S
N516 C518 1.325 . S
C517 C511 1.404 . S
C517 C519 1.366 . S
C517 H525 0.930 . S
C518 N516 1.325 . S
C518 C519 1.416 . S
C518 H524 0.929 . S
C519 C517 1.366 . S
C519 C518 1.416 . S
C519 H521 0.930 . S
H520 C509 0.930 . S
H521 C519 0.930 . S
H522 C537 0.930 . S
H523 C544 0.930 . S
H524 C518 0.929 . S
H525 C517 0.930 . S
H526 C540 0.929 . S
H527 C507 0.931 . S
H528 C513 0.931 . S
H529 C514 0.931 . S
H530 C535 0.931 . S
H531 C510 0.929 . S
H532 C543 0.930 . S
N533 Eu504 2.600 . S
N533 C534 1.365 . S
N533 C537 1.319 . S
C534 N533 1.365 . S
C534 C536 1.405 . S
C534 C542 1.448 . S
C535 H530 0.931 . S
C535 C537 1.397 . S
C535 C538 1.367 . S
C536 C534 1.405 . S
C536 C538 1.403 . S
C536 C569 1.439 . S
C537 H522 0.930 . S
C537 N533 1.319 . S
C537 C535 1.397 . S
C538 C535 1.367 . S
C538 C536 1.403 . S
C538 H545 0.929 . S
N539 Eu504 2.562 . S
N539 C540 1.325 . S
N539 C542 1.351 . S
C540 H526 0.929 . S
C540 N539 1.325 . S
C540 C544 1.416 . S
C541 C542 1.430 . S
C541 C543 1.404 . S
C541 C570 1.387 . S
C542 C534 1.448 . S
C542 N539 1.351 . S
C542 C541 1.430 . S
C543 H532 0.930 . S
C543 C541 1.404 . S
C543 C544 1.366 . S
C544 H523 0.930 . S
C544 C540 1.416 . S
C544 C543 1.366 . S
H545 C538 0.929 . S
H546 C569 0.931 . S
H547 C570 0.931 . S
O548 Eu504 2.462 . S
O548 C568 1.252 . S
O549 Eu504 2.373 . S
O549 C560 1.249 . S
O550 Eu515 2.335 . S
O550 C560 1.264 . S
O551 Eu504 2.432 . S
O551 C568 1.268 . S
O552 Eu504 2.291 . S
O552 C567 1.255 . S
O553 Eu515 2.372 . S
O553 C567 1.257 . S
O554 Eu515 2.462 . S
O554 C579 1.252 . S
O555 Eu515 2.373 . S
O555 C571 1.249 . S
O556 Eu504 2.335 . S
O556 C571 1.264 . S
O557 Eu515 2.432 . S
O557 C579 1.268 . S
O558 Eu515 2.291 . S
O558 C578 1.255 . S
O559 Eu504 2.372 . S
O559 C578 1.257 . S
C560 O549 1.249 . S
C560 O550 1.264 . S
C561 C564 1.382 . S
C561 C566 1.390 . S
C561 C568 1.506 . S
C562 C563 1.398 . S
C562 C566 1.392 . S
C563 C562 1.398 . S
C563 C565 1.372 . S
C563 H580 0.931 . S
C564 C561 1.382 . S
C564 C565 1.390 . S
C564 H581 0.931 . S
C565 C563 1.372 . S
C565 C564 1.390 . S
C565 H582 0.929 . S
C566 C561 1.390 . S
C566 C562 1.392 . S
C566 H583 0.930 . S
C567 O552 1.255 . S
C567 O553 1.257 . S
C568 Eu504 2.787 . S
C568 O548 1.252 . S
C568 O551 1.268 . S
C568 C561 1.506 . S
C569 C536 1.439 . S
C569 H546 0.931 . S
C569 C570 1.374 . S
C570 C541 1.387 . S
C570 H547 0.931 . S
C570 C569 1.374 . S
C571 O555 1.249 . S
C571 O556 1.264 . S
C572 C575 1.382 . S
C572 C576 1.390 . S
C572 C579 1.506 . S
C573 C574 1.398 . S
C573 C576 1.392 . S
C574 C573 1.398 . S
C574 C577 1.372 . S
C574 H584 0.931 . S
C575 C572 1.382 . S
C575 C577 1.390 . S
C575 H585 0.931 . S
C576 C572 1.390 . S
C576 C573 1.392 . S
C576 H586 0.930 . S
C577 C574 1.372 . S
C577 C575 1.390 . S
C577 H587 0.929 . S
C578 O558 1.255 . S
C578 O559 1.257 . S
C579 Eu515 2.787 . S
C579 O554 1.252 . S
C579 O557 1.268 . S
C579 C572 1.506 . S
H580 C563 0.931 . S
H581 C564 0.931 . S
H582 C565 0.929 . S
H583 C566 0.930 . S
H584 C574 0.931 . S
H585 C575 0.931 . S
H586 C576 0.930 . S
H587 C577 0.929 . S
Eu588 N617 2.600 . S
Eu588 N623 2.562 . S
Eu588 O632 2.462 . S
Eu588 O633 2.373 . S
Eu588 O635 2.432 . S
Eu588 O636 2.291 . S
Eu588 O640 2.335 . S
Eu588 O643 2.372 . S
Eu588 C652 2.787 . S
C589 N590 1.365 . S
C589 C592 1.405 . S
C589 C596 1.448 . S
N590 C589 1.365 . S
N590 C593 1.319 . S
N590 Eu599 2.600 . S
C591 C593 1.397 . S
C591 C594 1.367 . S
C591 H611 0.931 . S
C592 C589 1.405 . S
C592 C594 1.403 . S
C592 C598 1.439 . S
C593 N590 1.319 . S
C593 C591 1.397 . S
C593 H604 0.930 . S
C594 C591 1.367 . S
C594 C592 1.403 . S
C594 H615 0.929 . S
C595 C596 1.430 . S
C595 C597 1.387 . S
C595 C601 1.404 . S
C596 C589 1.448 . S
C596 C595 1.430 . S
C596 N600 1.351 . S
C597 C595 1.387 . S
C597 C598 1.374 . S
C597 H612 0.931 . S
C598 C592 1.439 . S
C598 C597 1.374 . S
C598 H613 0.931 . S
Eu599 N590 2.600 . S
Eu599 N600 2.562 . S
Eu599 O634 2.335 . S
Eu599 O637 2.372 . S
Eu599 O638 2.462 . S
Eu599 O639 2.373 . S
Eu599 O641 2.432 . S
Eu599 O642 2.291 . S
Eu599 C663 2.787 . S
N600 C596 1.351 . S
N600 Eu599 2.562 . S
N600 C602 1.325 . S
C601 C595 1.404 . S
C601 C603 1.366 . S
C601 H609 0.930 . S
C602 N600 1.325 . S
C602 C603 1.416 . S
C602 H608 0.929 . S
C603 C601 1.366 . S
C603 C602 1.416 . S
C603 H605 0.930 . S
H604 C593 0.930 . S
H605 C603 0.930 . S
H606 C621 0.930 . S
H607 C628 0.930 . S
H608 C602 0.929 . S
H609 C601 0.930 . S
H610 C624 0.929 . S
H611 C591 0.931 . S
H612 C597 0.931 . S
H613 C598 0.931 . S
H614 C619 0.931 . S
H615 C594 0.929 . S
H616 C627 0.930 . S
N617 Eu588 2.600 . S
N617 C618 1.365 . S
N617 C621 1.319 . S
C618 N617 1.365 . S
C618 C620 1.405 . S
C618 C626 1.448 . S
C619 H614 0.931 . S
C619 C621 1.397 . S
C619 C622 1.367 . S
C620 C618 1.405 . S
C620 C622 1.403 . S
C620 C653 1.439 . S
C621 H606 0.930 . S
C621 N617 1.319 . S
C621 C619 1.397 . S
C622 C619 1.367 . S
C622 C620 1.403 . S
C622 H629 0.929 . S
N623 Eu588 2.562 . S
N623 C624 1.325 . S
N623 C626 1.351 . S
C624 H610 0.929 . S
C624 N623 1.325 . S
C624 C628 1.416 . S
C625 C626 1.430 . S
C625 C627 1.404 . S
C625 C654 1.387 . S
C626 C618 1.448 . S
C626 N623 1.351 . S
C626 C625 1.430 . S
C627 H616 0.930 . S
C627 C625 1.404 . S
C627 C628 1.366 . S
C628 H607 0.930 . S
C628 C624 1.416 . S
C628 C627 1.366 . S
H629 C622 0.929 . S
H630 C653 0.931 . S
H631 C654 0.931 . S
O632 Eu588 2.462 . S
O632 C652 1.252 . S
O633 Eu588 2.373 . S
O633 C644 1.249 . S
O634 Eu599 2.335 . S
O634 C644 1.264 . S
O635 Eu588 2.432 . S
O635 C652 1.268 . S
O636 Eu588 2.291 . S
O636 C651 1.255 . S
O637 Eu599 2.372 . S
O637 C651 1.257 . S
O638 Eu599 2.462 . S
O638 C663 1.252 . S
O639 Eu599 2.373 . S
O639 C655 1.249 . S
O640 Eu588 2.335 . S
O640 C655 1.264 . S
O641 Eu599 2.432 . S
O641 C663 1.268 . S
O642 Eu599 2.291 . S
O642 C662 1.255 . S
O643 Eu588 2.372 . S
O643 C662 1.257 . S
C644 O633 1.249 . S
C644 O634 1.264 . S
C645 C648 1.382 . S
C645 C650 1.390 . S
C645 C652 1.506 . S
C646 C647 1.398 . S
C646 C650 1.392 . S
C647 C646 1.398 . S
C647 C649 1.372 . S
C647 H664 0.931 . S
C648 C645 1.382 . S
C648 C649 1.390 . S
C648 H665 0.931 . S
C649 C647 1.372 . S
C649 C648 1.390 . S
C649 H666 0.929 . S
C650 C645 1.390 . S
C650 C646 1.392 . S
C650 H667 0.930 . S
C651 O636 1.255 . S
C651 O637 1.257 . S
C652 Eu588 2.787 . S
C652 O632 1.252 . S
C652 O635 1.268 . S
C652 C645 1.506 . S
C653 C620 1.439 . S
C653 H630 0.931 . S
C653 C654 1.374 . S
C654 C625 1.387 . S
C654 H631 0.931 . S
C654 C653 1.374 . S
C655 O639 1.249 . S
C655 O640 1.264 . S
C656 C659 1.382 . S
C656 C660 1.390 . S
C656 C663 1.506 . S
C657 C658 1.398 . S
C657 C660 1.392 . S
C658 C657 1.398 . S
C658 C661 1.372 . S
C658 H668 0.931 . S
C659 C656 1.382 . S
C659 C661 1.390 . S
C659 H669 0.931 . S
C660 C656 1.390 . S
C660 C657 1.392 . S
C660 H670 0.930 . S
C661 C658 1.372 . S
C661 C659 1.390 . S
C661 H671 0.929 . S
C662 O642 1.255 . S
C662 O643 1.257 . S
C663 Eu599 2.787 . S
C663 O638 1.252 . S
C663 O641 1.268 . S
C663 C656 1.506 . S
H664 C647 0.931 . S
H665 C648 0.931 . S
H666 C649 0.929 . S
H667 C650 0.930 . S
H668 C658 0.931 . S
H669 C659 0.931 . S
H670 C660 0.930 . S
H671 C661 0.929 . S
Co672 O675 2.042 . S
Co672 O682 2.264 . S
Co672 O701 2.286 . S
Co672 O702 2.069 . S
Co672 O704 2.015 1_455 S
Co673 O675 2.122 . S
Co673 O681 2.073 . S
Co673 O682 2.327 . S
Co673 O683 1.976 1_455 S
Co674 O675 2.084 1_545 S
Co674 O677 2.090 1_455 S
Co674 O684 2.106 1_445 S
Co674 O685 2.150 . S
Co674 O689 2.117 . S
Co674 O703 2.137 1_445 S
O675 Co672 2.042 . S
O675 Co673 2.122 . S
O675 Co674 2.084 1_565 S
O675 H676 0.980 . S
H676 O675 0.980 . S
O677 Co674 2.090 1_655 S
O677 Co678 2.042 . S
O677 Co679 2.122 . S
O677 H680 0.980 . S
Co678 O677 2.042 . S
Co678 O686 2.286 . S
Co678 O687 2.069 . S
Co678 O688 2.015 1_655 S
Co678 O691 2.264 . S
Co679 O677 2.122 . S
Co679 O690 1.976 1_655 S
Co679 O691 2.327 . S
Co679 O692 2.073 . S
H680 O677 0.980 . S
O681 Co673 2.073 . S
O681 C696 1.245 . S
O682 Co672 2.264 . S
O682 Co673 2.327 . S
O682 C696 1.257 . S
O683 Co673 1.976 1_655 S
O683 C695 1.251 . S
O684 Co674 2.106 1_665 S
O684 C695 1.274 . S
O685 Co674 2.150 . S
O685 C698 1.246 . S
O686 Co678 2.286 . S
O686 C697 1.259 . S
O687 Co678 2.069 . S
O687 C697 1.289 . S
O688 Co678 2.015 1_455 S
O688 C698 1.257 . S
O689 Co674 2.117 . S
O689 C699 1.274 . S
O690 Co679 1.976 1_455 S
O690 C699 1.251 . S
O691 Co678 2.264 . S
O691 Co679 2.327 . S
O691 C700 1.257 . S
O692 Co679 2.073 . S
O692 C700 1.245 . S
C693 O701 1.259 . S
C693 O702 1.289 . S
C694 O703 1.246 . S
C694 O704 1.257 . S
C695 O683 1.251 . S
C695 O684 1.274 . S
C696 O681 1.245 . S
C696 O682 1.257 . S
C697 O686 1.259 . S
C697 O687 1.289 . S
C698 O685 1.246 . S
C698 O688 1.257 . S
C699 O689 1.274 . S
C699 O690 1.251 . S
C700 O691 1.257 . S
C700 O692 1.245 . S
O701 Co672 2.286 . S
O701 C693 1.259 . S
O702 Co672 2.069 . S
O702 C693 1.289 . S
O703 Co674 2.137 1_665 S
O703 C694 1.246 . S
O704 Co672 2.015 1_655 S
O704 C694 1.257 . S
Co705 O708 2.042 1_556 S
Co705 O715 2.264 1_556 S
Co705 O734 2.286 . S
Co705 O735 2.069 . S
Co705 O737 2.015 . S
Co706 O708 2.122 . S
Co706 O714 2.073 . S
Co706 O715 2.327 . S
Co706 O716 1.976 . S
Co707 O708 2.079 1_545 S
Co707 O710 2.095 1_554 S
Co707 O717 2.109 1_545 S
Co707 O718 2.148 . S
Co707 O722 2.114 1_554 S
Co707 O736 2.139 1_544 S
O708 Co705 2.042 1_554 S
O708 Co706 2.122 . S
O708 Co707 2.079 1_565 S
O708 H709 0.980 . S
H709 O708 0.980 . S
O710 Co707 2.095 1_556 S
O710 Co711 2.042 1_556 S
O710 Co712 2.122 . S
O710 H713 0.980 . S
Co711 O710 2.042 1_554 S
Co711 O719 2.286 . S
Co711 O720 2.069 . S
Co711 O721 2.015 . S
Co711 O724 2.264 1_554 S
Co712 O710 2.122 . S
Co712 O723 1.976 . S
Co712 O724 2.327 . S
Co712 O725 2.073 . S
H713 O710 0.980 . S
O714 Co706 2.073 . S
O714 C729 1.245 . S
O715 Co705 2.264 1_554 S
O715 Co706 2.327 . S
O715 C729 1.257 . S
O716 Co706 1.976 . S
O716 C728 1.251 . S
O717 Co707 2.109 1_565 S
O717 C728 1.274 . S
O718 Co707 2.148 . S
O718 C731 1.246 . S
O719 Co711 2.286 . S
O719 C730 1.259 . S
O720 Co711 2.069 . S
O720 C730 1.289 . S
O721 Co711 2.015 . S
O721 C731 1.257 . S
O722 Co707 2.114 1_556 S
O722 C732 1.274 . S
O723 Co712 1.976 . S
O723 C732 1.251 . S
O724 Co711 2.264 1_556 S
O724 Co712 2.327 . S
O724 C733 1.257 . S
O725 Co712 2.073 . S
O725 C733 1.245 . S
C726 O734 1.259 . S
C726 O735 1.289 . S
C727 O736 1.246 . S
C727 O737 1.257 . S
C728 O716 1.251 . S
C728 O717 1.274 . S
C729 O714 1.245 . S
C729 O715 1.257 . S
C730 O719 1.259 . S
C730 O720 1.289 . S
C731 O718 1.246 . S
C731 O721 1.257 . S
C732 O722 1.274 . S
C732 O723 1.251 . S
C733 O724 1.257 . S
C733 O725 1.245 . S
O734 Co705 2.286 . S
O734 C726 1.259 . S
O735 Co705 2.069 . S
O735 C726 1.289 . S
O736 Co707 2.139 1_566 S
O736 C727 1.246 . S
O737 Co705 2.015 . S
O737 C727 1.257 . S
Co738 O741 2.042 1_556 S
Co738 O748 2.264 1_556 S
Co738 O767 2.286 . S
Co738 O768 2.069 . S
Co738 O770 2.015 1_455 S
Co739 O741 2.122 . S
Co739 O747 2.073 . S
Co739 O748 2.327 . S
Co739 O749 1.976 1_455 S
Co740 O741 2.092 . S
Co740 O743 2.082 1_454 S
Co740 O750 2.108 1_455 S
Co740 O751 2.146 . S
Co740 O755 2.114 1_554 S
Co740 O769 2.141 1_454 S
O741 Co738 2.042 1_554 S
O741 Co739 2.122 . S
O741 Co740 2.092 . S
O741 H742 0.980 . S
H742 O741 0.980 . S
O743 Co740 2.082 1_656 S
O743 Co744 2.042 1_556 S
O743 Co745 2.122 . S
O743 H746 0.980 . S
Co744 O743 2.042 1_554 S
Co744 O752 2.286 . S
Co744 O753 2.069 . S
Co744 O754 2.015 1_655 S
Co744 O757 2.264 1_554 S
Co745 O743 2.122 . S
Co745 O756 1.976 1_655 S
Co745 O757 2.327 . S
Co745 O758 2.073 . S
H746 O743 0.980 . S
O747 Co739 2.073 . S
O747 C762 1.245 . S
O748 Co738 2.264 1_554 S
O748 Co739 2.327 . S
O748 C762 1.257 . S
O749 Co739 1.976 1_655 S
O749 C761 1.251 . S
O750 Co740 2.108 1_655 S
O750 C761 1.274 . S
O751 Co740 2.146 . S
O751 C764 1.246 . S
O752 Co744 2.286 . S
O752 C763 1.259 . S
O753 Co744 2.069 . S
O753 C763 1.289 . S
O754 Co744 2.015 1_455 S
O754 C764 1.257 . S
O755 Co740 2.114 1_556 S
O755 C765 1.274 . S
O756 Co745 1.976 1_455 S
O756 C765 1.251 . S
O757 Co744 2.264 1_556 S
O757 Co745 2.327 . S
O757 C766 1.257 . S
O758 Co745 2.073 . S
O758 C766 1.245 . S
C759 O767 1.259 . S
C759 O768 1.289 . S
C760 O769 1.246 . S
C760 O770 1.257 . S
C761 O749 1.251 . S
C761 O750 1.274 . S
C762 O747 1.245 . S
C762 O748 1.257 . S
C763 O752 1.259 . S
C763 O753 1.289 . S
C764 O751 1.246 . S
C764 O754 1.257 . S
C765 O755 1.274 . S
C765 O756 1.251 . S
C766 O757 1.257 . S
C766 O758 1.245 . S
O767 Co738 2.286 . S
O767 C759 1.259 . S
O768 Co738 2.069 . S
O768 C759 1.289 . S
O769 Co740 2.141 1_656 S
O769 C760 1.246 . S
O770 Co738 2.015 1_655 S
O770 C760 1.257 . S
Co771 O774 2.042 1_556 S
Co771 O781 2.264 1_556 S
Co771 O800 2.286 . S
Co771 O801 2.069 . S
Co771 O803 2.015 . S
Co772 O774 2.122 . S
Co772 O780 2.073 . S
Co772 O781 2.327 . S
Co772 O782 1.976 . S
Co773 O774 2.087 . S
Co773 O776 2.087 1_554 S
Co773 O783 2.111 . S
Co773 O784 2.143 . S
Co773 O788 2.111 1_554 S
Co773 O802 2.143 1_554 S
O774 Co771 2.042 1_554 S
O774 Co772 2.122 . S
O774 Co773 2.087 . S
O774 H775 0.980 . S
H775 O774 0.980 . S
O776 Co773 2.087 1_556 S
O776 Co777 2.042 1_556 S
O776 Co778 2.122 . S
O776 H779 0.980 . S
Co777 O776 2.042 1_554 S
Co777 O785 2.286 . S
Co777 O786 2.069 . S
Co777 O787 2.015 . S
Co777 O790 2.264 1_554 S
Co778 O776 2.122 . S
Co778 O789 1.976 . S
Co778 O790 2.327 . S
Co778 O791 2.073 . S
H779 O776 0.980 . S
O780 Co772 2.073 . S
O780 C795 1.245 . S
O781 Co771 2.264 1_554 S
O781 Co772 2.327 . S
O781 C795 1.257 . S
O782 Co772 1.976 . S
O782 C794 1.251 . S
O783 Co773 2.111 . S
O783 C794 1.274 . S
O784 Co773 2.143 . S
O784 C797 1.246 . S
O785 Co777 2.286 . S
O785 C796 1.259 . S
O786 Co777 2.069 . S
O786 C796 1.289 . S
O787 Co777 2.015 . S
O787 C797 1.257 . S
O788 Co773 2.111 1_556 S
O788 C798 1.274 . S
O789 Co778 1.976 . S
O789 C798 1.251 . S
O790 Co777 2.264 1_556 S
O790 Co778 2.327 . S
O790 C799 1.257 . S
O791 Co778 2.073 . S
O791 C799 1.245 . S
C792 O800 1.259 . S
C792 O801 1.289 . S
C793 O802 1.246 . S
C793 O803 1.257 . S
C794 O782 1.251 . S
C794 O783 1.274 . S
C795 O780 1.245 . S
C795 O781 1.257 . S
C796 O785 1.259 . S
C796 O786 1.289 . S
C797 O784 1.246 . S
C797 O787 1.257 . S
C798 O788 1.274 . S
C798 O789 1.251 . S
C799 O790 1.257 . S
C799 O791 1.245 . S
O800 Co771 2.286 . S
O800 C792 1.259 . S
O801 Co771 2.069 . S
O801 C792 1.289 . S
O802 Co773 2.143 1_556 S
O802 C793 1.246 . S
O803 Co771 2.015 . S
O803 C793 1.257 . S
Co804 O807 2.042 . S
Co804 O814 2.264 . S
Co804 O833 2.286 . S
Co804 O834 2.069 . S
Co804 O836 2.015 . S
Co805 O807 2.122 . S
Co805 O813 2.073 . S
Co805 O814 2.327 . S
Co805 O815 1.976 . S
Co806 O807 2.092 . S
Co806 O809 2.082 1_455 S
Co806 O816 2.113 . S
Co806 O817 2.140 1_455 S
Co806 O821 2.110 1_455 S
Co806 O835 2.147 . S
O807 Co804 2.042 . S
O807 Co805 2.122 . S
O807 Co806 2.092 . S
O807 H808 0.980 . S
H808 O807 0.980 . S
O809 Co806 2.082 1_655 S
O809 Co810 2.042 . S
O809 Co811 2.122 . S
O809 H812 0.980 . S
Co810 O809 2.042 . S
Co810 O818 2.286 . S
Co810 O819 2.069 . S
Co810 O820 2.015 . S
Co810 O823 2.264 . S
Co811 O809 2.122 . S
Co811 O822 1.976 . S
Co811 O823 2.327 . S
Co811 O824 2.073 . S
H812 O809 0.980 . S
O813 Co805 2.073 . S
O813 C828 1.245 . S
O814 Co804 2.264 . S
O814 Co805 2.327 . S
O814 C828 1.257 . S
O815 Co805 1.976 . S
O815 C827 1.251 . S
O816 Co806 2.113 . S
O816 C827 1.274 . S
O817 Co806 2.140 1_655 S
O817 C830 1.246 . S
O818 Co810 2.286 . S
O818 C829 1.259 . S
O819 Co810 2.069 . S
O819 C829 1.289 . S
O820 Co810 2.015 . S
O820 C830 1.257 . S
O821 Co806 2.110 1_655 S
O821 C831 1.274 . S
O822 Co811 1.976 . S
O822 C831 1.251 . S
O823 Co810 2.264 . S
O823 Co811 2.327 . S
O823 C832 1.257 . S
O824 Co811 2.073 . S
O824 C832 1.245 . S
C825 O833 1.259 . S
C825 O834 1.289 . S
C826 O835 1.246 . S
C826 O836 1.257 . S
C827 O815 1.251 . S
C827 O816 1.274 . S
C828 O813 1.245 . S
C828 O814 1.257 . S
C829 O818 1.259 . S
C829 O819 1.289 . S
C830 O817 1.246 . S
C830 O820 1.257 . S
C831 O821 1.274 . S
C831 O822 1.251 . S
C832 O823 1.257 . S
C832 O824 1.245 . S
O833 Co804 2.286 . S
O833 C825 1.259 . S
O834 Co804 2.069 . S
O834 C825 1.289 . S
O835 Co806 2.147 . S
O835 C826 1.246 . S
O836 Co804 2.015 . S
O836 C826 1.257 . S
Co837 O840 2.042 . S
Co837 O847 2.264 . S
Co837 O866 2.286 . S
Co837 O867 2.069 . S
Co837 O869 2.015 1_565 S
Co838 O840 2.122 . S
Co838 O846 2.073 . S
Co838 O847 2.327 . S
Co838 O848 1.976 1_565 S
Co839 O840 2.079 1_545 S
Co839 O842 2.095 . S
Co839 O849 2.117 . S
Co839 O850 2.140 1_545 S
Co839 O854 2.106 1_545 S
Co839 O868 2.147 . S
O840 Co837 2.042 . S
O840 Co838 2.122 . S
O840 Co839 2.079 1_565 S
O840 H841 0.980 . S
H841 O840 0.980 . S
O842 Co839 2.095 . S
O842 Co843 2.042 . S
O842 Co844 2.122 . S
O842 H845 0.980 . S
Co843 O842 2.042 . S
Co843 O851 2.286 . S
Co843 O852 2.069 . S
Co843 O853 2.015 1_545 S
Co843 O856 2.264 . S
Co844 O842 2.122 . S
Co844 O855 1.976 1_545 S
Co844 O856 2.327 . S
Co844 O857 2.073 . S
H845 O842 0.980 . S
O846 Co838 2.073 . S
O846 C861 1.245 . S
O847 Co837 2.264 . S
O847 Co838 2.327 . S
O847 C861 1.257 . S
O848 Co838 1.976 1_545 S
O848 C860 1.251 . S
O849 Co839 2.117 . S
O849 C860 1.274 . S
O850 Co839 2.140 1_565 S
O850 C863 1.246 . S
O851 Co843 2.286 . S
O851 C862 1.259 . S
O852 Co843 2.069 . S
O852 C862 1.289 . S
O853 Co843 2.015 1_565 S
O853 C863 1.257 . S
O854 Co839 2.106 1_565 S
O854 C864 1.274 . S
O855 Co844 1.976 1_565 S
O855 C864 1.251 . S
O856 Co843 2.264 . S
O856 Co844 2.327 . S
O856 C865 1.257 . S
O857 Co844 2.073 . S
O857 C865 1.245 . S
C858 O866 1.259 . S
C858 O867 1.289 . S
C859 O868 1.246 . S
C859 O869 1.257 . S
C860 O848 1.251 . S
C860 O849 1.274 . S
C861 O846 1.245 . S
C861 O847 1.257 . S
C862 O851 1.259 . S
C862 O852 1.289 . S
C863 O850 1.246 . S
C863 O853 1.257 . S
C864 O854 1.274 . S
C864 O855 1.251 . S
C865 O856 1.257 . S
C865 O857 1.245 . S
O866 Co837 2.286 . S
O866 C858 1.259 . S
O867 Co837 2.069 . S
O867 C858 1.289 . S
O868 Co839 2.147 . S
O868 C859 1.246 . S
O869 Co837 2.015 1_545 S
O869 C859 1.257 . S
H870 C888 0.951 . S
H871 C890 0.951 . S
H872 C892 0.950 . S
H873 C893 0.950 . S
H874 C895 0.950 . S
H875 C898 0.950 . S
H876 C899 0.950 . S
H877 C901 0.950 . S
H878 C902 0.950 . S
H879 C903 0.951 . S
H880 C905 0.951 . S
H881 C907 0.950 . S
H882 C908 0.950 . S
H883 C910 0.950 . S
H884 C913 0.950 . S
H885 C914 0.950 . S
H886 C916 0.950 . S
H887 C917 0.950 . S
C888 H870 0.951 . S
C888 C889 1.366 . S
C888 C890 1.388 . S
C889 C888 1.366 . S
C889 C893 1.385 . S
C890 H871 0.951 . S
C890 C888 1.388 . S
C890 C891 1.366 . S
C891 C890 1.366 . S
C891 C892 1.414 . S
C891 C894 1.499 . S
C892 H872 0.950 . S
C892 C891 1.414 . S
C892 C893 1.374 . S
C893 H873 0.950 . S
C893 C889 1.385 . S
C893 C892 1.374 . S
C894 C891 1.499 . S
C894 C895 1.373 . S
C894 C896 1.389 . S
C895 H874 0.950 . S
C895 C894 1.373 . S
C895 C911 1.377 . S
C896 C894 1.389 . S
C896 C897 1.524 . S
C896 C910 1.377 . S
C897 C896 1.524 . S
C897 C898 1.397 . S
C897 C902 1.363 . S
C898 H875 0.950 . S
C898 C897 1.397 . S
C898 C899 1.334 . S
C899 H876 0.950 . S
C899 C898 1.334 . S
C899 C900 1.287 . S
C900 C899 1.287 . S
C900 C901 1.524 . S
C900 H919 0.913 . S
C901 H877 0.950 . S
C901 C900 1.524 . S
C901 C902 1.415 . S
C902 H878 0.950 . S
C902 C897 1.363 . S
C902 C901 1.415 . S
C903 H879 0.951 . S
C903 C904 1.366 . S
C903 C905 1.388 . S
C904 C903 1.366 . S
C904 C908 1.385 . S
C905 H880 0.951 . S
C905 C903 1.388 . S
C905 C906 1.366 . S
C906 C905 1.366 . S
C906 C907 1.414 . S
C906 C909 1.499 . S
C907 H881 0.950 . S
C907 C906 1.414 . S
C907 C908 1.374 . S
C908 H882 0.950 . S
C908 C904 1.385 . S
C908 C907 1.374 . S
C909 C906 1.499 . S
C909 C910 1.373 . S
C909 C911 1.389 . S
C910 H883 0.950 . S
C910 C896 1.377 . S
C910 C909 1.373 . S
C911 C895 1.377 . S
C911 C909 1.389 . S
C911 C912 1.524 . S
C912 C911 1.524 . S
C912 C913 1.397 . S
C912 C917 1.363 . S
C913 H884 0.950 . S
C913 C912 1.397 . S
C913 C914 1.334 . S
C914 H885 0.950 . S
C914 C913 1.334 . S
C914 C915 1.287 . S
C915 C914 1.287 . S
C915 C916 1.524 . S
C915 H918 0.999 . S
C916 H886 0.950 . S
C916 C915 1.524 . S
C916 C917 1.415 . S
C917 H887 0.950 . S
C917 C912 1.363 . S
C917 C916 1.415 . S
H918 C915 0.999 . S
H919 C900 0.913 . S
H920 C938 0.951 . S
H921 C940 0.951 . S
H922 C942 0.950 . S
H923 C943 0.950 . S
H924 C945 0.950 . S
H925 C948 0.950 . S
H926 C949 0.950 . S
H927 C951 0.950 . S
H928 C952 0.950 . S
H929 C953 0.951 . S
H930 C955 0.951 . S
H931 C957 0.950 . S
H932 C958 0.950 . S
H933 C960 0.950 . S
H934 C963 0.950 . S
H935 C964 0.950 . S
H936 C966 0.950 . S
H937 C967 0.950 . S
C938 H920 0.951 . S
C938 C939 1.366 . S
C938 C940 1.388 . S
C939 C938 1.366 . S
C939 C943 1.385 . S
C940 H921 0.951 . S
C940 C938 1.388 . S
C940 C941 1.366 . S
C941 C940 1.366 . S
C941 C942 1.414 . S
C941 C944 1.499 . S
C942 H922 0.950 . S
C942 C941 1.414 . S
C942 C943 1.374 . S
C943 H923 0.950 . S
C943 C939 1.385 . S
C943 C942 1.374 . S
C944 C941 1.499 . S
C944 C945 1.373 . S
C944 C946 1.389 . S
C945 H924 0.950 . S
C945 C944 1.373 . S
C945 C961 1.377 . S
C946 C944 1.389 . S
C946 C947 1.524 . S
C946 C960 1.377 . S
C947 C946 1.524 . S
C947 C948 1.397 . S
C947 C952 1.363 . S
C948 H925 0.950 . S
C948 C947 1.397 . S
C948 C949 1.334 . S
C949 H926 0.950 . S
C949 C948 1.334 . S
C949 C950 1.287 . S
C950 C949 1.287 . S
C950 C951 1.524 . S
C950 H969 0.913 . S
C951 H927 0.950 . S
C951 C950 1.524 . S
C951 C952 1.415 . S
C952 H928 0.950 . S
C952 C947 1.363 . S
C952 C951 1.415 . S
C953 H929 0.951 . S
C953 C954 1.366 . S
C953 C955 1.388 . S
C954 C953 1.366 . S
C954 C958 1.385 . S
C955 H930 0.951 . S
C955 C953 1.388 . S
C955 C956 1.366 . S
C956 C955 1.366 . S
C956 C957 1.414 . S
C956 C959 1.499 . S
C957 H931 0.950 . S
C957 C956 1.414 . S
C957 C958 1.374 . S
C958 H932 0.950 . S
C958 C954 1.385 . S
C958 C957 1.374 . S
C959 C956 1.499 . S
C959 C960 1.373 . S
C959 C961 1.389 . S
C960 H933 0.950 . S
C960 C946 1.377 . S
C960 C959 1.373 . S
C961 C945 1.377 . S
C961 C959 1.389 . S
C961 C962 1.524 . S
C962 C961 1.524 . S
C962 C963 1.397 . S
C962 C967 1.363 . S
C963 H934 0.950 . S
C963 C962 1.397 . S
C963 C964 1.334 . S
C964 H935 0.950 . S
C964 C963 1.334 . S
C964 C965 1.287 . S
C965 C964 1.287 . S
C965 C966 1.524 . S
C965 H968 0.999 . S
C966 H936 0.950 . S
C966 C965 1.524 . S
C966 C967 1.415 . S
C967 H937 0.950 . S
C967 C962 1.363 . S
C967 C966 1.415 . S
H968 C965 0.999 . S
H969 C950 0.913 . S
H970 C988 0.951 . S
H971 C990 0.951 . S
H972 C992 0.950 . S
H973 C993 0.950 . S
H974 C995 0.950 . S
H975 C998 0.950 . S
H976 C999 0.950 . S
H977 C1001 0.950 . S
H978 C1002 0.950 . S
H979 C1003 0.951 . S
H980 C1005 0.951 . S
H981 C1007 0.950 . S
H982 C1008 0.950 . S
H983 C1010 0.950 . S
H984 C1013 0.950 . S
H985 C1014 0.950 . S
H986 C1016 0.950 . S
H987 C1017 0.950 . S
C988 H970 0.951 . S
C988 C989 1.366 . S
C988 C990 1.388 . S
C989 C988 1.366 . S
C989 C993 1.385 . S
C990 H971 0.951 . S
C990 C988 1.388 . S
C990 C991 1.366 . S
C991 C990 1.366 . S
C991 C992 1.414 . S
C991 C994 1.499 . S
C992 H972 0.950 . S
C992 C991 1.414 . S
C992 C993 1.374 . S
C993 H973 0.950 . S
C993 C989 1.385 . S
C993 C992 1.374 . S
C994 C991 1.499 . S
C994 C995 1.373 . S
C994 C996 1.389 . S
C995 H974 0.950 . S
C995 C994 1.373 . S
C995 C1011 1.377 . S
C996 C994 1.389 . S
C996 C997 1.524 . S
C996 C1010 1.377 . S
C997 C996 1.524 . S
C997 C998 1.397 . S
C997 C1002 1.363 . S
C998 H975 0.950 . S
C998 C997 1.397 . S
C998 C999 1.334 . S
C999 H976 0.950 . S
C999 C998 1.334 . S
C999 C1000 1.287 . S
C1000 C999 1.287 . S
C1000 C1001 1.524 . S
C1000 H1019 0.913 . S
C1001 H977 0.950 . S
C1001 C1000 1.524 . S
C1001 C1002 1.415 . S
C1002 H978 0.950 . S
C1002 C997 1.363 . S
C1002 C1001 1.415 . S
C1003 H979 0.951 . S
C1003 C1004 1.366 . S
C1003 C1005 1.388 . S
C1004 C1003 1.366 . S
C1004 C1008 1.385 . S
C1005 H980 0.951 . S
C1005 C1003 1.388 . S
C1005 C1006 1.366 . S
C1006 C1005 1.366 . S
C1006 C1007 1.414 . S
C1006 C1009 1.499 . S
C1007 H981 0.950 . S
C1007 C1006 1.414 . S
C1007 C1008 1.374 . S
C1008 H982 0.950 . S
C1008 C1004 1.385 . S
C1008 C1007 1.374 . S
C1009 C1006 1.499 . S
C1009 C1010 1.373 . S
C1009 C1011 1.389 . S
C1010 H983 0.950 . S
C1010 C996 1.377 . S
C1010 C1009 1.373 . S
C1011 C995 1.377 . S
C1011 C1009 1.389 . S
C1011 C1012 1.524 . S
C1012 C1011 1.524 . S
C1012 C1013 1.397 . S
C1012 C1017 1.363 . S
C1013 H984 0.950 . S
C1013 C1012 1.397 . S
C1013 C1014 1.334 . S
C1014 H985 0.950 . S
C1014 C1013 1.334 . S
C1014 C1015 1.287 . S
C1015 C1014 1.287 . S
C1015 C1016 1.524 . S
C1015 H1018 0.999 . S
C1016 H986 0.950 . S
C1016 C1015 1.524 . S
C1016 C1017 1.415 . S
C1017 H987 0.950 . S
C1017 C1012 1.363 . S
C1017 C1016 1.415 . S
H1018 C1015 0.999 . S
H1019 C1000 0.913 . S
H1020 C1038 0.951 . S
H1021 C1040 0.951 . S
H1022 C1042 0.950 . S
H1023 C1043 0.950 . S
H1024 C1045 0.950 . S
H1025 C1048 0.950 . S
H1026 C1049 0.950 . S
H1027 C1051 0.950 . S
H1028 C1052 0.950 . S
H1029 C1053 0.951 . S
H1030 C1055 0.951 . S
H1031 C1057 0.950 . S
H1032 C1058 0.950 . S
H1033 C1060 0.950 . S
H1034 C1063 0.950 . S
H1035 C1064 0.950 . S
H1036 C1066 0.950 . S
H1037 C1067 0.950 . S
C1038 H1020 0.951 . S
C1038 C1039 1.366 . S
C1038 C1040 1.388 . S
C1039 C1038 1.366 . S
C1039 C1043 1.385 . S
C1040 H1021 0.951 . S
C1040 C1038 1.388 . S
C1040 C1041 1.366 . S
C1041 C1040 1.366 . S
C1041 C1042 1.414 . S
C1041 C1044 1.499 . S
C1042 H1022 0.950 . S
C1042 C1041 1.414 . S
C1042 C1043 1.374 . S
C1043 H1023 0.950 . S
C1043 C1039 1.385 . S
C1043 C1042 1.374 . S
C1044 C1041 1.499 . S
C1044 C1045 1.373 . S
C1044 C1046 1.389 . S
C1045 H1024 0.950 . S
C1045 C1044 1.373 . S
C1045 C1061 1.377 . S
C1046 C1044 1.389 . S
C1046 C1047 1.524 . S
C1046 C1060 1.377 . S
C1047 C1046 1.524 . S
C1047 C1048 1.397 . S
C1047 C1052 1.363 . S
C1048 H1025 0.950 . S
C1048 C1047 1.397 . S
C1048 C1049 1.334 . S
C1049 H1026 0.950 . S
C1049 C1048 1.334 . S
C1049 C1050 1.287 . S
C1050 C1049 1.287 . S
C1050 C1051 1.524 . S
C1050 H1069 0.913 . S
C1051 H1027 0.950 . S
C1051 C1050 1.524 . S
C1051 C1052 1.415 . S
C1052 H1028 0.950 . S
C1052 C1047 1.363 . S
C1052 C1051 1.415 . S
C1053 H1029 0.951 . S
C1053 C1054 1.366 . S
C1053 C1055 1.388 . S
C1054 C1053 1.366 . S
C1054 C1058 1.385 . S
C1055 H1030 0.951 . S
C1055 C1053 1.388 . S
C1055 C1056 1.366 . S
C1056 C1055 1.366 . S
C1056 C1057 1.414 . S
C1056 C1059 1.499 . S
C1057 H1031 0.950 . S
C1057 C1056 1.414 . S
C1057 C1058 1.374 . S
C1058 H1032 0.950 . S
C1058 C1054 1.385 . S
C1058 C1057 1.374 . S
C1059 C1056 1.499 . S
C1059 C1060 1.373 . S
C1059 C1061 1.389 . S
C1060 H1033 0.950 . S
C1060 C1046 1.377 . S
C1060 C1059 1.373 . S
C1061 C1045 1.377 . S
C1061 C1059 1.389 . S
C1061 C1062 1.524 . S
C1062 C1061 1.524 . S
C1062 C1063 1.397 . S
C1062 C1067 1.363 . S
C1063 H1034 0.950 . S
C1063 C1062 1.397 . S
C1063 C1064 1.334 . S
C1064 H1035 0.950 . S
C1064 C1063 1.334 . S
C1064 C1065 1.287 . S
C1065 C1064 1.287 . S
C1065 C1066 1.524 . S
C1065 H1068 0.999 . S
C1066 H1036 0.950 . S
C1066 C1065 1.524 . S
C1066 C1067 1.415 . S
C1067 H1037 0.950 . S
C1067 C1062 1.363 . S
C1067 C1066 1.415 . S
H1068 C1065 0.999 . S
H1069 C1050 0.913 . S
H1070 C1088 0.951 . S
H1071 C1090 0.951 . S
H1072 C1092 0.950 . S
H1073 C1093 0.950 . S
H1074 C1095 0.950 . S
H1075 C1098 0.950 . S
H1076 C1099 0.950 . S
H1077 C1101 0.950 . S
H1078 C1102 0.950 . S
H1079 C1103 0.951 . S
H1080 C1105 0.951 . S
H1081 C1107 0.950 . S
H1082 C1108 0.950 . S
H1083 C1110 0.950 . S
H1084 C1113 0.950 . S
H1085 C1114 0.950 . S
H1086 C1116 0.950 . S
H1087 C1117 0.950 . S
C1088 H1070 0.951 . S
C1088 C1089 1.366 . S
C1088 C1090 1.388 . S
C1089 C1088 1.366 . S
C1089 C1093 1.385 . S
C1090 H1071 0.951 . S
C1090 C1088 1.388 . S
C1090 C1091 1.366 . S
C1091 C1090 1.366 . S
C1091 C1092 1.414 . S
C1091 C1094 1.499 . S
C1092 H1072 0.950 . S
C1092 C1091 1.414 . S
C1092 C1093 1.374 . S
C1093 H1073 0.950 . S
C1093 C1089 1.385 . S
C1093 C1092 1.374 . S
C1094 C1091 1.499 . S
C1094 C1095 1.373 . S
C1094 C1096 1.389 . S
C1095 H1074 0.950 . S
C1095 C1094 1.373 . S
C1095 C1111 1.377 . S
C1096 C1094 1.389 . S
C1096 C1097 1.524 . S
C1096 C1110 1.377 . S
C1097 C1096 1.524 . S
C1097 C1098 1.397 . S
C1097 C1102 1.363 . S
C1098 H1075 0.950 . S
C1098 C1097 1.397 . S
C1098 C1099 1.334 . S
C1099 H1076 0.950 . S
C1099 C1098 1.334 . S
C1099 C1100 1.287 . S
C1100 C1099 1.287 . S
C1100 C1101 1.524 . S
C1100 H1119 0.913 . S
C1101 H1077 0.950 . S
C1101 C1100 1.524 . S
C1101 C1102 1.415 . S
C1102 H1078 0.950 . S
C1102 C1097 1.363 . S
C1102 C1101 1.415 . S
C1103 H1079 0.951 . S
C1103 C1104 1.366 . S
C1103 C1105 1.388 . S
C1104 C1103 1.366 . S
C1104 C1108 1.385 . S
C1105 H1080 0.951 . S
C1105 C1103 1.388 . S
C1105 C1106 1.366 . S
C1106 C1105 1.366 . S
C1106 C1107 1.414 . S
C1106 C1109 1.499 . S
C1107 H1081 0.950 . S
C1107 C1106 1.414 . S
C1107 C1108 1.374 . S
C1108 H1082 0.950 . S
C1108 C1104 1.385 . S
C1108 C1107 1.374 . S
C1109 C1106 1.499 . S
C1109 C1110 1.373 . S
C1109 C1111 1.389 . S
C1110 H1083 0.950 . S
C1110 C1096 1.377 . S
C1110 C1109 1.373 . S
C1111 C1095 1.377 . S
C1111 C1109 1.389 . S
C1111 C1112 1.524 . S
C1112 C1111 1.524 . S
C1112 C1113 1.397 . S
C1112 C1117 1.363 . S
C1113 H1084 0.950 . S
C1113 C1112 1.397 . S
C1113 C1114 1.334 . S
C1114 H1085 0.950 . S
C1114 C1113 1.334 . S
C1114 C1115 1.287 . S
C1115 C1114 1.287 . S
C1115 C1116 1.524 . S
C1115 H1118 0.999 . S
C1116 H1086 0.950 . S
C1116 C1115 1.524 . S
C1116 C1117 1.415 . S
C1117 H1087 0.950 . S
C1117 C1112 1.363 . S
C1117 C1116 1.415 . S
H1118 C1115 0.999 . S
H1119 C1100 0.913 . S
H1120 C1138 0.951 . S
H1121 C1140 0.951 . S
H1122 C1142 0.950 . S
H1123 C1143 0.950 . S
H1124 C1145 0.950 . S
H1125 C1148 0.950 . S
H1126 C1149 0.950 . S
H1127 C1151 0.950 . S
H1128 C1152 0.950 . S
H1129 C1153 0.951 . S
H1130 C1155 0.951 . S
H1131 C1157 0.950 . S
H1132 C1158 0.950 . S
H1133 C1160 0.950 . S
H1134 C1163 0.950 . S
H1135 C1164 0.950 . S
H1136 C1166 0.950 . S
H1137 C1167 0.950 . S
C1138 H1120 0.951 . S
C1138 C1139 1.366 . S
C1138 C1140 1.388 . S
C1139 C1138 1.366 . S
C1139 C1143 1.385 . S
C1140 H1121 0.951 . S
C1140 C1138 1.388 . S
C1140 C1141 1.366 . S
C1141 C1140 1.366 . S
C1141 C1142 1.414 . S
C1141 C1144 1.499 . S
C1142 H1122 0.950 . S
C1142 C1141 1.414 . S
C1142 C1143 1.374 . S
C1143 H1123 0.950 . S
C1143 C1139 1.385 . S
C1143 C1142 1.374 . S
C1144 C1141 1.499 . S
C1144 C1145 1.373 . S
C1144 C1146 1.389 . S
C1145 H1124 0.950 . S
C1145 C1144 1.373 . S
C1145 C1161 1.377 . S
C1146 C1144 1.389 . S
C1146 C1147 1.524 . S
C1146 C1160 1.377 . S
C1147 C1146 1.524 . S
C1147 C1148 1.397 . S
C1147 C1152 1.363 . S
C1148 H1125 0.950 . S
C1148 C1147 1.397 . S
C1148 C1149 1.334 . S
C1149 H1126 0.950 . S
C1149 C1148 1.334 . S
C1149 C1150 1.287 . S
C1150 C1149 1.287 . S
C1150 C1151 1.524 . S
C1150 H1169 0.913 . S
C1151 H1127 0.950 . S
C1151 C1150 1.524 . S
C1151 C1152 1.415 . S
C1152 H1128 0.950 . S
C1152 C1147 1.363 . S
C1152 C1151 1.415 . S
C1153 H1129 0.951 . S
C1153 C1154 1.366 . S
C1153 C1155 1.388 . S
C1154 C1153 1.366 . S
C1154 C1158 1.385 . S
C1155 H1130 0.951 . S
C1155 C1153 1.388 . S
C1155 C1156 1.366 . S
C1156 C1155 1.366 . S
C1156 C1157 1.414 . S
C1156 C1159 1.499 . S
C1157 H1131 0.950 . S
C1157 C1156 1.414 . S
C1157 C1158 1.374 . S
C1158 H1132 0.950 . S
C1158 C1154 1.385 . S
C1158 C1157 1.374 . S
C1159 C1156 1.499 . S
C1159 C1160 1.373 . S
C1159 C1161 1.389 . S
C1160 H1133 0.950 . S
C1160 C1146 1.377 . S
C1160 C1159 1.373 . S
C1161 C1145 1.377 . S
C1161 C1159 1.389 . S
C1161 C1162 1.524 . S
C1162 C1161 1.524 . S
C1162 C1163 1.397 . S
C1162 C1167 1.363 . S
C1163 H1134 0.950 . S
C1163 C1162 1.397 . S
C1163 C1164 1.334 . S
C1164 H1135 0.950 . S
C1164 C1163 1.334 . S
C1164 C1165 1.287 . S
C1165 C1164 1.287 . S
C1165 C1166 1.524 . S
C1165 H1168 0.999 . S
C1166 H1136 0.950 . S
C1166 C1165 1.524 . S
C1166 C1167 1.415 . S
C1167 H1137 0.950 . S
C1167 C1162 1.363 . S
C1167 C1166 1.415 . S
H1168 C1165 0.999 . S
H1169 C1150 0.913 . S
H1170 C1188 0.951 . S
H1171 C1190 0.951 . S
H1172 C1192 0.950 . S
H1173 C1193 0.950 . S
H1174 C1195 0.950 . S
H1175 C1198 0.950 . S
H1176 C1199 0.950 . S
H1177 C1201 0.950 . S
H1178 C1202 0.950 . S
H1179 C1203 0.951 . S
H1180 C1205 0.951 . S
H1181 C1207 0.950 . S
H1182 C1208 0.950 . S
H1183 C1210 0.950 . S
H1184 C1213 0.950 . S
H1185 C1214 0.950 . S
H1186 C1216 0.950 . S
H1187 C1217 0.950 . S
C1188 H1170 0.951 . S
C1188 C1189 1.366 . S
C1188 C1190 1.388 . S
C1189 C1188 1.366 . S
C1189 C1193 1.385 . S
C1190 H1171 0.951 . S
C1190 C1188 1.388 . S
C1190 C1191 1.366 . S
C1191 C1190 1.366 . S
C1191 C1192 1.414 . S
C1191 C1194 1.499 . S
C1192 H1172 0.950 . S
C1192 C1191 1.414 . S
C1192 C1193 1.374 . S
C1193 H1173 0.950 . S
C1193 C1189 1.385 . S
C1193 C1192 1.374 . S
C1194 C1191 1.499 . S
C1194 C1195 1.373 . S
C1194 C1196 1.389 . S
C1195 H1174 0.950 . S
C1195 C1194 1.373 . S
C1195 C1211 1.377 . S
C1196 C1194 1.389 . S
C1196 C1197 1.524 . S
C1196 C1210 1.377 . S
C1197 C1196 1.524 . S
C1197 C1198 1.397 . S
C1197 C1202 1.363 . S
C1198 H1175 0.950 . S
C1198 C1197 1.397 . S
C1198 C1199 1.334 . S
C1199 H1176 0.950 . S
C1199 C1198 1.334 . S
C1199 C1200 1.287 . S
C1200 C1199 1.287 . S
C1200 C1201 1.524 . S
C1200 H1219 0.913 . S
C1201 H1177 0.950 . S
C1201 C1200 1.524 . S
C1201 C1202 1.415 . S
C1202 H1178 0.950 . S
C1202 C1197 1.363 . S
C1202 C1201 1.415 . S
C1203 H1179 0.951 . S
C1203 C1204 1.366 . S
C1203 C1205 1.388 . S
C1204 C1203 1.366 . S
C1204 C1208 1.385 . S
C1205 H1180 0.951 . S
C1205 C1203 1.388 . S
C1205 C1206 1.366 . S
C1206 C1205 1.366 . S
C1206 C1207 1.414 . S
C1206 C1209 1.499 . S
C1207 H1181 0.950 . S
C1207 C1206 1.414 . S
C1207 C1208 1.374 . S
C1208 H1182 0.950 . S
C1208 C1204 1.385 . S
C1208 C1207 1.374 . S
C1209 C1206 1.499 . S
C1209 C1210 1.373 . S
C1209 C1211 1.389 . S
C1210 H1183 0.950 . S
C1210 C1196 1.377 . S
C1210 C1209 1.373 . S
C1211 C1195 1.377 . S
C1211 C1209 1.389 . S
C1211 C1212 1.524 . S
C1212 C1211 1.524 . S
C1212 C1213 1.397 . S
C1212 C1217 1.363 . S
C1213 H1184 0.950 . S
C1213 C1212 1.397 . S
C1213 C1214 1.334 . S
C1214 H1185 0.950 . S
C1214 C1213 1.334 . S
C1214 C1215 1.287 . S
C1215 C1214 1.287 . S
C1215 C1216 1.524 . S
C1215 H1218 0.999 . S
C1216 H1186 0.950 . S
C1216 C1215 1.524 . S
C1216 C1217 1.415 . S
C1217 H1187 0.950 . S
C1217 C1212 1.363 . S
C1217 C1216 1.415 . S
H1218 C1215 0.999 . S
H1219 C1200 0.913 . S
H1220 C1238 0.951 . S
H1221 C1240 0.951 . S
H1222 C1242 0.950 . S
H1223 C1243 0.950 . S
H1224 C1245 0.950 . S
H1225 C1248 0.950 . S
H1226 C1249 0.950 . S
H1227 C1251 0.950 . S
H1228 C1252 0.950 . S
H1229 C1253 0.951 . S
H1230 C1255 0.951 . S
H1231 C1257 0.950 . S
H1232 C1258 0.950 . S
H1233 C1260 0.950 . S
H1234 C1263 0.950 . S
H1235 C1264 0.950 . S
H1236 C1266 0.950 . S
H1237 C1267 0.950 . S
C1238 H1220 0.951 . S
C1238 C1239 1.366 . S
C1238 C1240 1.388 . S
C1239 C1238 1.366 . S
C1239 C1243 1.385 . S
C1240 H1221 0.951 . S
C1240 C1238 1.388 . S
C1240 C1241 1.366 . S
C1241 C1240 1.366 . S
C1241 C1242 1.414 . S
C1241 C1244 1.499 . S
C1242 H1222 0.950 . S
C1242 C1241 1.414 . S
C1242 C1243 1.374 . S
C1243 H1223 0.950 . S
C1243 C1239 1.385 . S
C1243 C1242 1.374 . S
C1244 C1241 1.499 . S
C1244 C1245 1.373 . S
C1244 C1246 1.389 . S
C1245 H1224 0.950 . S
C1245 C1244 1.373 . S
C1245 C1261 1.377 . S
C1246 C1244 1.389 . S
C1246 C1247 1.524 . S
C1246 C1260 1.377 . S
C1247 C1246 1.524 . S
C1247 C1248 1.397 . S
C1247 C1252 1.363 . S
C1248 H1225 0.950 . S
C1248 C1247 1.397 . S
C1248 C1249 1.334 . S
C1249 H1226 0.950 . S
C1249 C1248 1.334 . S
C1249 C1250 1.287 . S
C1250 C1249 1.287 . S
C1250 C1251 1.524 . S
C1250 H1269 0.913 . S
C1251 H1227 0.950 . S
C1251 C1250 1.524 . S
C1251 C1252 1.415 . S
C1252 H1228 0.950 . S
C1252 C1247 1.363 . S
C1252 C1251 1.415 . S
C1253 H1229 0.951 . S
C1253 C1254 1.366 . S
C1253 C1255 1.388 . S
C1254 C1253 1.366 . S
C1254 C1258 1.385 . S
C1255 H1230 0.951 . S
C1255 C1253 1.388 . S
C1255 C1256 1.366 . S
C1256 C1255 1.366 . S
C1256 C1257 1.414 . S
C1256 C1259 1.499 . S
C1257 H1231 0.950 . S
C1257 C1256 1.414 . S
C1257 C1258 1.374 . S
C1258 H1232 0.950 . S
C1258 C1254 1.385 . S
C1258 C1257 1.374 . S
C1259 C1256 1.499 . S
C1259 C1260 1.373 . S
C1259 C1261 1.389 . S
C1260 H1233 0.950 . S
C1260 C1246 1.377 . S
C1260 C1259 1.373 . S
C1261 C1245 1.377 . S
C1261 C1259 1.389 . S
C1261 C1262 1.524 . S
C1262 C1261 1.524 . S
C1262 C1263 1.397 . S
C1262 C1267 1.363 . S
C1263 H1234 0.950 . S
C1263 C1262 1.397 . S
C1263 C1264 1.334 . S
C1264 H1235 0.950 . S
C1264 C1263 1.334 . S
C1264 C1265 1.287 . S
C1265 C1264 1.287 . S
C1265 C1266 1.524 . S
C1265 H1268 0.999 . S
C1266 H1236 0.950 . S
C1266 C1265 1.524 . S
C1266 C1267 1.415 . S
C1267 H1237 0.950 . S
C1267 C1262 1.363 . S
C1267 C1266 1.415 . S
H1268 C1265 0.999 . S
H1269 C1250 0.913 . S
H1270 C1288 0.951 . S
H1271 C1290 0.951 . S
H1272 C1292 0.950 . S
H1273 C1293 0.950 . S
H1274 C1295 0.950 . S
H1275 C1298 0.950 . S
H1276 C1299 0.950 . S
H1277 C1301 0.950 . S
H1278 C1302 0.950 . S
H1279 C1303 0.951 . S
H1280 C1305 0.951 . S
H1281 C1307 0.950 . S
H1282 C1308 0.950 . S
H1283 C1310 0.950 . S
H1284 C1313 0.950 . S
H1285 C1314 0.950 . S
H1286 C1316 0.950 . S
H1287 C1317 0.950 . S
C1288 H1270 0.951 . S
C1288 C1289 1.366 . S
C1288 C1290 1.388 . S
C1289 C1288 1.366 . S
C1289 C1293 1.385 . S
C1290 H1271 0.951 . S
C1290 C1288 1.388 . S
C1290 C1291 1.366 . S
C1291 C1290 1.366 . S
C1291 C1292 1.414 . S
C1291 C1294 1.499 . S
C1292 H1272 0.950 . S
C1292 C1291 1.414 . S
C1292 C1293 1.374 . S
C1293 H1273 0.950 . S
C1293 C1289 1.385 . S
C1293 C1292 1.374 . S
C1294 C1291 1.499 . S
C1294 C1295 1.373 . S
C1294 C1296 1.389 . S
C1295 H1274 0.950 . S
C1295 C1294 1.373 . S
C1295 C1311 1.377 . S
C1296 C1294 1.389 . S
C1296 C1297 1.524 . S
C1296 C1310 1.377 . S
C1297 C1296 1.524 . S
C1297 C1298 1.397 . S
C1297 C1302 1.363 . S
C1298 H1275 0.950 . S
C1298 C1297 1.397 . S
C1298 C1299 1.334 . S
C1299 H1276 0.950 . S
C1299 C1298 1.334 . S
C1299 C1300 1.287 . S
C1300 C1299 1.287 . S
C1300 C1301 1.524 . S
C1300 H1319 0.913 . S
C1301 H1277 0.950 . S
C1301 C1300 1.524 . S
C1301 C1302 1.415 . S
C1302 H1278 0.950 . S
C1302 C1297 1.363 . S
C1302 C1301 1.415 . S
C1303 H1279 0.951 . S
C1303 C1304 1.366 . S
C1303 C1305 1.388 . S
C1304 C1303 1.366 . S
C1304 C1308 1.385 . S
C1305 H1280 0.951 . S
C1305 C1303 1.388 . S
C1305 C1306 1.366 . S
C1306 C1305 1.366 . S
C1306 C1307 1.414 . S
C1306 C1309 1.499 . S
C1307 H1281 0.950 . S
C1307 C1306 1.414 . S
C1307 C1308 1.374 . S
C1308 H1282 0.950 . S
C1308 C1304 1.385 . S
C1308 C1307 1.374 . S
C1309 C1306 1.499 . S
C1309 C1310 1.373 . S
C1309 C1311 1.389 . S
C1310 H1283 0.950 . S
C1310 C1296 1.377 . S
C1310 C1309 1.373 . S
C1311 C1295 1.377 . S
C1311 C1309 1.389 . S
C1311 C1312 1.524 . S
C1312 C1311 1.524 . S
C1312 C1313 1.397 . S
C1312 C1317 1.363 . S
C1313 H1284 0.950 . S
C1313 C1312 1.397 . S
C1313 C1314 1.334 . S
C1314 H1285 0.950 . S
C1314 C1313 1.334 . S
C1314 C1315 1.287 . S
C1315 C1314 1.287 . S
C1315 C1316 1.524 . S
C1315 H1318 0.999 . S
C1316 H1286 0.950 . S
C1316 C1315 1.524 . S
C1316 C1317 1.415 . S
C1317 H1287 0.950 . S
C1317 C1312 1.363 . S
C1317 C1316 1.415 . S
H1318 C1315 0.999 . S
H1319 C1300 0.913 . S
H1320 C1338 0.951 . S
H1321 C1340 0.951 . S
H1322 C1342 0.950 . S
H1323 C1343 0.950 . S
H1324 C1345 0.950 . S
H1325 C1348 0.950 . S
H1326 C1349 0.950 . S
H1327 C1351 0.950 . S
H1328 C1352 0.950 . S
H1329 C1353 0.951 . S
H1330 C1355 0.951 . S
H1331 C1357 0.950 . S
H1332 C1358 0.950 . S
H1333 C1360 0.950 . S
H1334 C1363 0.950 . S
H1335 C1364 0.950 . S
H1336 C1366 0.950 . S
H1337 C1367 0.950 . S
C1338 H1320 0.951 . S
C1338 C1339 1.366 . S
C1338 C1340 1.388 . S
C1339 C1338 1.366 . S
C1339 C1343 1.385 . S
C1340 H1321 0.951 . S
C1340 C1338 1.388 . S
C1340 C1341 1.366 . S
C1341 C1340 1.366 . S
C1341 C1342 1.414 . S
C1341 C1344 1.499 . S
C1342 H1322 0.950 . S
C1342 C1341 1.414 . S
C1342 C1343 1.374 . S
C1343 H1323 0.950 . S
C1343 C1339 1.385 . S
C1343 C1342 1.374 . S
C1344 C1341 1.499 . S
C1344 C1345 1.373 . S
C1344 C1346 1.389 . S
C1345 H1324 0.950 . S
C1345 C1344 1.373 . S
C1345 C1361 1.377 . S
C1346 C1344 1.389 . S
C1346 C1347 1.524 . S
C1346 C1360 1.377 . S
C1347 C1346 1.524 . S
C1347 C1348 1.397 . S
C1347 C1352 1.363 . S
C1348 H1325 0.950 . S
C1348 C1347 1.397 . S
C1348 C1349 1.334 . S
C1349 H1326 0.950 . S
C1349 C1348 1.334 . S
C1349 C1350 1.287 . S
C1350 C1349 1.287 . S
C1350 C1351 1.524 . S
C1350 H1369 0.913 . S
C1351 H1327 0.950 . S
C1351 C1350 1.524 . S
C1351 C1352 1.415 . S
C1352 H1328 0.950 . S
C1352 C1347 1.363 . S
C1352 C1351 1.415 . S
C1353 H1329 0.951 . S
C1353 C1354 1.366 . S
C1353 C1355 1.388 . S
C1354 C1353 1.366 . S
C1354 C1358 1.385 . S
C1355 H1330 0.951 . S
C1355 C1353 1.388 . S
C1355 C1356 1.366 . S
C1356 C1355 1.366 . S
C1356 C1357 1.414 . S
C1356 C1359 1.499 . S
C1357 H1331 0.950 . S
C1357 C1356 1.414 . S
C1357 C1358 1.374 . S
C1358 H1332 0.950 . S
C1358 C1354 1.385 . S
C1358 C1357 1.374 . S
C1359 C1356 1.499 . S
C1359 C1360 1.373 . S
C1359 C1361 1.389 . S
C1360 H1333 0.950 . S
C1360 C1346 1.377 . S
C1360 C1359 1.373 . S
C1361 C1345 1.377 . S
C1361 C1359 1.389 . S
C1361 C1362 1.524 . S
C1362 C1361 1.524 . S
C1362 C1363 1.397 . S
C1362 C1367 1.363 . S
C1363 H1334 0.950 . S
C1363 C1362 1.397 . S
C1363 C1364 1.334 . S
C1364 H1335 0.950 . S
C1364 C1363 1.334 . S
C1364 C1365 1.287 . S
C1365 C1364 1.287 . S
C1365 C1366 1.524 . S
C1365 H1368 0.999 . S
C1366 H1336 0.950 . S
C1366 C1365 1.524 . S
C1366 C1367 1.415 . S
C1367 H1337 0.950 . S
C1367 C1362 1.363 . S
C1367 C1366 1.415 . S
H1368 C1365 0.999 . S
H1369 C1350 0.913 . S
H1370 C1388 0.951 . S
H1371 C1390 0.951 . S
H1372 C1392 0.950 . S
H1373 C1393 0.950 . S
H1374 C1395 0.950 . S
H1375 C1398 0.950 . S
H1376 C1399 0.950 . S
H1377 C1401 0.950 . S
H1378 C1402 0.950 . S
H1379 C1403 0.951 . S
H1380 C1405 0.951 . S
H1381 C1407 0.950 . S
H1382 C1408 0.950 . S
H1383 C1410 0.950 . S
H1384 C1413 0.950 . S
H1385 C1414 0.950 . S
H1386 C1416 0.950 . S
H1387 C1417 0.950 . S
C1388 H1370 0.951 . S
C1388 C1389 1.366 . S
C1388 C1390 1.388 . S
C1389 C1388 1.366 . S
C1389 C1393 1.385 . S
C1390 H1371 0.951 . S
C1390 C1388 1.388 . S
C1390 C1391 1.366 . S
C1391 C1390 1.366 . S
C1391 C1392 1.414 . S
C1391 C1394 1.499 . S
C1392 H1372 0.950 . S
C1392 C1391 1.414 . S
C1392 C1393 1.374 . S
C1393 H1373 0.950 . S
C1393 C1389 1.385 . S
C1393 C1392 1.374 . S
C1394 C1391 1.499 . S
C1394 C1395 1.373 . S
C1394 C1396 1.389 . S
C1395 H1374 0.950 . S
C1395 C1394 1.373 . S
C1395 C1411 1.377 . S
C1396 C1394 1.389 . S
C1396 C1397 1.524 . S
C1396 C1410 1.377 . S
C1397 C1396 1.524 . S
C1397 C1398 1.397 . S
C1397 C1402 1.363 . S
C1398 H1375 0.950 . S
C1398 C1397 1.397 . S
C1398 C1399 1.334 . S
C1399 H1376 0.950 . S
C1399 C1398 1.334 . S
C1399 C1400 1.287 . S
C1400 C1399 1.287 . S
C1400 C1401 1.524 . S
C1400 H1419 0.913 . S
C1401 H1377 0.950 . S
C1401 C1400 1.524 . S
C1401 C1402 1.415 . S
C1402 H1378 0.950 . S
C1402 C1397 1.363 . S
C1402 C1401 1.415 . S
C1403 H1379 0.951 . S
C1403 C1404 1.366 . S
C1403 C1405 1.388 . S
C1404 C1403 1.366 . S
C1404 C1408 1.385 . S
C1405 H1380 0.951 . S
C1405 C1403 1.388 . S
C1405 C1406 1.366 . S
C1406 C1405 1.366 . S
C1406 C1407 1.414 . S
C1406 C1409 1.499 . S
C1407 H1381 0.950 . S
C1407 C1406 1.414 . S
C1407 C1408 1.374 . S
C1408 H1382 0.950 . S
C1408 C1404 1.385 . S
C1408 C1407 1.374 . S
C1409 C1406 1.499 . S
C1409 C1410 1.373 . S
C1409 C1411 1.389 . S
C1410 H1383 0.950 . S
C1410 C1396 1.377 . S
C1410 C1409 1.373 . S
C1411 C1395 1.377 . S
C1411 C1409 1.389 . S
C1411 C1412 1.524 . S
C1412 C1411 1.524 . S
C1412 C1413 1.397 . S
C1412 C1417 1.363 . S
C1413 H1384 0.950 . S
C1413 C1412 1.397 . S
C1413 C1414 1.334 . S
C1414 H1385 0.950 . S
C1414 C1413 1.334 . S
C1414 C1415 1.287 . S
C1415 C1414 1.287 . S
C1415 C1416 1.524 . S
C1415 H1418 0.999 . S
C1416 H1386 0.950 . S
C1416 C1415 1.524 . S
C1416 C1417 1.415 . S
C1417 H1387 0.950 . S
C1417 C1412 1.363 . S
C1417 C1416 1.415 . S
H1418 C1415 0.999 . S
H1419 C1400 0.913 . S
H1420 C1438 0.951 . S
H1421 C1440 0.951 . S
H1422 C1442 0.950 . S
H1423 C1443 0.950 . S
H1424 C1445 0.950 . S
H1425 C1448 0.950 . S
H1426 C1449 0.950 . S
H1427 C1451 0.950 . S
H1428 C1452 0.950 . S
H1429 C1453 0.951 . S
H1430 C1455 0.951 . S
H1431 C1457 0.950 . S
H1432 C1458 0.950 . S
H1433 C1460 0.950 . S
H1434 C1463 0.950 . S
H1435 C1464 0.950 . S
H1436 C1466 0.950 . S
H1437 C1467 0.950 . S
C1438 H1420 0.951 . S
C1438 C1439 1.366 . S
C1438 C1440 1.388 . S
C1439 C1438 1.366 . S
C1439 C1443 1.385 . S
C1440 H1421 0.951 . S
C1440 C1438 1.388 . S
C1440 C1441 1.366 . S
C1441 C1440 1.366 . S
C1441 C1442 1.414 . S
C1441 C1444 1.499 . S
C1442 H1422 0.950 . S
C1442 C1441 1.414 . S
C1442 C1443 1.374 . S
C1443 H1423 0.950 . S
C1443 C1439 1.385 . S
C1443 C1442 1.374 . S
C1444 C1441 1.499 . S
C1444 C1445 1.373 . S
C1444 C1446 1.389 . S
C1445 H1424 0.950 . S
C1445 C1444 1.373 . S
C1445 C1461 1.377 . S
C1446 C1444 1.389 . S
C1446 C1447 1.524 . S
C1446 C1460 1.377 . S
C1447 C1446 1.524 . S
C1447 C1448 1.397 . S
C1447 C1452 1.363 . S
C1448 H1425 0.950 . S
C1448 C1447 1.397 . S
C1448 C1449 1.334 . S
C1449 H1426 0.950 . S
C1449 C1448 1.334 . S
C1449 C1450 1.287 . S
C1450 C1449 1.287 . S
C1450 C1451 1.524 . S
C1450 H1469 0.913 . S
C1451 H1427 0.950 . S
C1451 C1450 1.524 . S
C1451 C1452 1.415 . S
C1452 H1428 0.950 . S
C1452 C1447 1.363 . S
C1452 C1451 1.415 . S
C1453 H1429 0.951 . S
C1453 C1454 1.366 . S
C1453 C1455 1.388 . S
C1454 C1453 1.366 . S
C1454 C1458 1.385 . S
C1455 H1430 0.951 . S
C1455 C1453 1.388 . S
C1455 C1456 1.366 . S
C1456 C1455 1.366 . S
C1456 C1457 1.414 . S
C1456 C1459 1.499 . S
C1457 H1431 0.950 . S
C1457 C1456 1.414 . S
C1457 C1458 1.374 . S
C1458 H1432 0.950 . S
C1458 C1454 1.385 . S
C1458 C1457 1.374 . S
C1459 C1456 1.499 . S
C1459 C1460 1.373 . S
C1459 C1461 1.389 . S
C1460 H1433 0.950 . S
C1460 C1446 1.377 . S
C1460 C1459 1.373 . S
C1461 C1445 1.377 . S
C1461 C1459 1.389 . S
C1461 C1462 1.524 . S
C1462 C1461 1.524 . S
C1462 C1463 1.397 . S
C1462 C1467 1.363 . S
C1463 H1434 0.950 . S
C1463 C1462 1.397 . S
C1463 C1464 1.334 . S
C1464 H1435 0.950 . S
C1464 C1463 1.334 . S
C1464 C1465 1.287 . S
C1465 C1464 1.287 . S
C1465 C1466 1.524 . S
C1465 H1468 0.999 . S
C1466 H1436 0.950 . S
C1466 C1465 1.524 . S
C1466 C1467 1.415 . S
C1467 H1437 0.950 . S
C1467 C1462 1.363 . S
C1467 C1466 1.415 . S
H1468 C1465 0.999 . S
H1469 C1450 0.913 . S
H1470 C1488 0.951 . S
H1471 C1490 0.951 . S
H1472 C1492 0.950 . S
H1473 C1493 0.950 . S
H1474 C1495 0.950 . S
H1475 C1498 0.950 . S
H1476 C1499 0.950 . S
H1477 C1501 0.950 . S
H1478 C1502 0.950 . S
H1479 C1503 0.951 . S
H1480 C1505 0.951 . S
H1481 C1507 0.950 . S
H1482 C1508 0.950 . S
H1483 C1510 0.950 . S
H1484 C1513 0.950 . S
H1485 C1514 0.950 . S
H1486 C1516 0.950 . S
H1487 C1517 0.950 . S
C1488 H1470 0.951 . S
C1488 C1489 1.366 . S
C1488 C1490 1.388 . S
C1489 C1488 1.366 . S
C1489 C1493 1.385 . S
C1490 H1471 0.951 . S
C1490 C1488 1.388 . S
C1490 C1491 1.366 . S
C1491 C1490 1.366 . S
C1491 C1492 1.414 . S
C1491 C1494 1.499 . S
C1492 H1472 0.950 . S
C1492 C1491 1.414 . S
C1492 C1493 1.374 . S
C1493 H1473 0.950 . S
C1493 C1489 1.385 . S
C1493 C1492 1.374 . S
C1494 C1491 1.499 . S
C1494 C1495 1.373 . S
C1494 C1496 1.389 . S
C1495 H1474 0.950 . S
C1495 C1494 1.373 . S
C1495 C1511 1.377 . S
C1496 C1494 1.389 . S
C1496 C1497 1.524 . S
C1496 C1510 1.377 . S
C1497 C1496 1.524 . S
C1497 C1498 1.397 . S
C1497 C1502 1.363 . S
C1498 H1475 0.950 . S
C1498 C1497 1.397 . S
C1498 C1499 1.334 . S
C1499 H1476 0.950 . S
C1499 C1498 1.334 . S
C1499 C1500 1.287 . S
C1500 C1499 1.287 . S
C1500 C1501 1.524 . S
C1500 H1519 0.913 . S
C1501 H1477 0.950 . S
C1501 C1500 1.524 . S
C1501 C1502 1.415 . S
C1502 H1478 0.950 . S
C1502 C1497 1.363 . S
C1502 C1501 1.415 . S
C1503 H1479 0.951 . S
C1503 C1504 1.366 . S
C1503 C1505 1.388 . S
C1504 C1503 1.366 . S
C1504 C1508 1.385 . S
C1505 H1480 0.951 . S
C1505 C1503 1.388 . S
C1505 C1506 1.366 . S
C1506 C1505 1.366 . S
C1506 C1507 1.414 . S
C1506 C1509 1.499 . S
C1507 H1481 0.950 . S
C1507 C1506 1.414 . S
C1507 C1508 1.374 . S
C1508 H1482 0.950 . S
C1508 C1504 1.385 . S
C1508 C1507 1.374 . S
C1509 C1506 1.499 . S
C1509 C1510 1.373 . S
C1509 C1511 1.389 . S
C1510 H1483 0.950 . S
C1510 C1496 1.377 . S
C1510 C1509 1.373 . S
C1511 C1495 1.377 . S
C1511 C1509 1.389 . S
C1511 C1512 1.524 . S
C1512 C1511 1.524 . S
C1512 C1513 1.397 . S
C1512 C1517 1.363 . S
C1513 H1484 0.950 . S
C1513 C1512 1.397 . S
C1513 C1514 1.334 . S
C1514 H1485 0.950 . S
C1514 C1513 1.334 . S
C1514 C1515 1.287 . S
C1515 C1514 1.287 . S
C1515 C1516 1.524 . S
C1515 H1518 0.999 . S
C1516 H1486 0.950 . S
C1516 C1515 1.524 . S
C1516 C1517 1.415 . S
C1517 H1487 0.950 . S
C1517 C1512 1.363 . S
C1517 C1516 1.415 . S
H1518 C1515 0.999 . S
H1519 C1500 0.913 . S
H1520 C1538 0.951 . S
H1521 C1540 0.951 . S
H1522 C1542 0.950 . S
H1523 C1543 0.950 . S
H1524 C1545 0.950 . S
H1525 C1548 0.950 . S
H1526 C1549 0.950 . S
H1527 C1551 0.950 . S
H1528 C1552 0.950 . S
H1529 C1553 0.951 . S
H1530 C1555 0.951 . S
H1531 C1557 0.950 . S
H1532 C1558 0.950 . S
H1533 C1560 0.950 . S
H1534 C1563 0.950 . S
H1535 C1564 0.950 . S
H1536 C1566 0.950 . S
H1537 C1567 0.950 . S
C1538 H1520 0.951 . S
C1538 C1539 1.366 . S
C1538 C1540 1.388 . S
C1539 C1538 1.366 . S
C1539 C1543 1.385 . S
C1540 H1521 0.951 . S
C1540 C1538 1.388 . S
C1540 C1541 1.366 . S
C1541 C1540 1.366 . S
C1541 C1542 1.414 . S
C1541 C1544 1.499 . S
C1542 H1522 0.950 . S
C1542 C1541 1.414 . S
C1542 C1543 1.374 . S
C1543 H1523 0.950 . S
C1543 C1539 1.385 . S
C1543 C1542 1.374 . S
C1544 C1541 1.499 . S
C1544 C1545 1.373 . S
C1544 C1546 1.389 . S
C1545 H1524 0.950 . S
C1545 C1544 1.373 . S
C1545 C1561 1.377 . S
C1546 C1544 1.389 . S
C1546 C1547 1.524 . S
C1546 C1560 1.377 . S
C1547 C1546 1.524 . S
C1547 C1548 1.397 . S
C1547 C1552 1.363 . S
C1548 H1525 0.950 . S
C1548 C1547 1.397 . S
C1548 C1549 1.334 . S
C1549 H1526 0.950 . S
C1549 C1548 1.334 . S
C1549 C1550 1.287 . S
C1550 C1549 1.287 . S
C1550 C1551 1.524 . S
C1550 H1569 0.913 . S
C1551 H1527 0.950 . S
C1551 C1550 1.524 . S
C1551 C1552 1.415 . S
C1552 H1528 0.950 . S
C1552 C1547 1.363 . S
C1552 C1551 1.415 . S
C1553 H1529 0.951 . S
C1553 C1554 1.366 . S
C1553 C1555 1.388 . S
C1554 C1553 1.366 . S
C1554 C1558 1.385 . S
C1555 H1530 0.951 . S
C1555 C1553 1.388 . S
C1555 C1556 1.366 . S
C1556 C1555 1.366 . S
C1556 C1557 1.414 . S
C1556 C1559 1.499 . S
C1557 H1531 0.950 . S
C1557 C1556 1.414 . S
C1557 C1558 1.374 . S
C1558 H1532 0.950 . S
C1558 C1554 1.385 . S
C1558 C1557 1.374 . S
C1559 C1556 1.499 . S
C1559 C1560 1.373 . S
C1559 C1561 1.389 . S
C1560 H1533 0.950 . S
C1560 C1546 1.377 . S
C1560 C1559 1.373 . S
C1561 C1545 1.377 . S
C1561 C1559 1.389 . S
C1561 C1562 1.524 . S
C1562 C1561 1.524 . S
C1562 C1563 1.397 . S
C1562 C1567 1.363 . S
C1563 H1534 0.950 . S
C1563 C1562 1.397 . S
C1563 C1564 1.334 . S
C1564 H1535 0.950 . S
C1564 C1563 1.334 . S
C1564 C1565 1.287 . S
C1565 C1564 1.287 . S
C1565 C1566 1.524 . S
C1565 H1568 0.999 . S
C1566 H1536 0.950 . S
C1566 C1565 1.524 . S
C1566 C1567 1.415 . S
C1567 H1537 0.950 . S
C1567 C1562 1.363 . S
C1567 C1566 1.415 . S
H1568 C1565 0.999 . S
H1569 C1550 0.913 . S
H1570 C1588 0.951 . S
H1571 C1590 0.951 . S
H1572 C1592 0.950 . S
H1573 C1593 0.950 . S
H1574 C1595 0.950 . S
H1575 C1598 0.950 . S
H1576 C1599 0.950 . S
H1577 C1601 0.950 . S
H1578 C1602 0.950 . S
H1579 C1603 0.951 . S
H1580 C1605 0.951 . S
H1581 C1607 0.950 . S
H1582 C1608 0.950 . S
H1583 C1610 0.950 . S
H1584 C1613 0.950 . S
H1585 C1614 0.950 . S
H1586 C1616 0.950 . S
H1587 C1617 0.950 . S
C1588 H1570 0.951 . S
C1588 C1589 1.366 . S
C1588 C1590 1.388 . S
C1589 C1588 1.366 . S
C1589 C1593 1.385 . S
C1590 H1571 0.951 . S
C1590 C1588 1.388 . S
C1590 C1591 1.366 . S
C1591 C1590 1.366 . S
C1591 C1592 1.414 . S
C1591 C1594 1.499 . S
C1592 H1572 0.950 . S
C1592 C1591 1.414 . S
C1592 C1593 1.374 . S
C1593 H1573 0.950 . S
C1593 C1589 1.385 . S
C1593 C1592 1.374 . S
C1594 C1591 1.499 . S
C1594 C1595 1.373 . S
C1594 C1596 1.389 . S
C1595 H1574 0.950 . S
C1595 C1594 1.373 . S
C1595 C1611 1.377 . S
C1596 C1594 1.389 . S
C1596 C1597 1.524 . S
C1596 C1610 1.377 . S
C1597 C1596 1.524 . S
C1597 C1598 1.397 . S
C1597 C1602 1.363 . S
C1598 H1575 0.950 . S
C1598 C1597 1.397 . S
C1598 C1599 1.334 . S
C1599 H1576 0.950 . S
C1599 C1598 1.334 . S
C1599 C1600 1.287 . S
C1600 C1599 1.287 . S
C1600 C1601 1.524 . S
C1600 H1619 0.913 . S
C1601 H1577 0.950 . S
C1601 C1600 1.524 . S
C1601 C1602 1.415 . S
C1602 H1578 0.950 . S
C1602 C1597 1.363 . S
C1602 C1601 1.415 . S
C1603 H1579 0.951 . S
C1603 C1604 1.366 . S
C1603 C1605 1.388 . S
C1604 C1603 1.366 . S
C1604 C1608 1.385 . S
C1605 H1580 0.951 . S
C1605 C1603 1.388 . S
C1605 C1606 1.366 . S
C1606 C1605 1.366 . S
C1606 C1607 1.414 . S
C1606 C1609 1.499 . S
C1607 H1581 0.950 . S
C1607 C1606 1.414 . S
C1607 C1608 1.374 . S
C1608 H1582 0.950 . S
C1608 C1604 1.385 . S
C1608 C1607 1.374 . S
C1609 C1606 1.499 . S
C1609 C1610 1.373 . S
C1609 C1611 1.389 . S
C1610 H1583 0.950 . S
C1610 C1596 1.377 . S
C1610 C1609 1.373 . S
C1611 C1595 1.377 . S
C1611 C1609 1.389 . S
C1611 C1612 1.524 . S
C1612 C1611 1.524 . S
C1612 C1613 1.397 . S
C1612 C1617 1.363 . S
C1613 H1584 0.950 . S
C1613 C1612 1.397 . S
C1613 C1614 1.334 . S
C1614 H1585 0.950 . S
C1614 C1613 1.334 . S
C1614 C1615 1.287 . S
C1615 C1614 1.287 . S
C1615 C1616 1.524 . S
C1615 H1618 0.999 . S
C1616 H1586 0.950 . S
C1616 C1615 1.524 . S
C1616 C1617 1.415 . S
C1617 H1587 0.950 . S
C1617 C1612 1.363 . S
C1617 C1616 1.415 . S
H1618 C1615 0.999 . S
H1619 C1600 0.913 . S
H1620 C1638 0.951 . S
H1621 C1640 0.951 . S
H1622 C1642 0.950 . S
H1623 C1643 0.950 . S
H1624 C1645 0.950 . S
H1625 C1648 0.950 . S
H1626 C1649 0.950 . S
H1627 C1651 0.950 . S
H1628 C1652 0.950 . S
H1629 C1653 0.951 . S
H1630 C1655 0.951 . S
H1631 C1657 0.950 . S
H1632 C1658 0.950 . S
H1633 C1660 0.950 . S
H1634 C1663 0.950 . S
H1635 C1664 0.950 . S
H1636 C1666 0.950 . S
H1637 C1667 0.950 . S
C1638 H1620 0.951 . S
C1638 C1639 1.366 . S
C1638 C1640 1.388 . S
C1639 C1638 1.366 . S
C1639 C1643 1.385 . S
C1640 H1621 0.951 . S
C1640 C1638 1.388 . S
C1640 C1641 1.366 . S
C1641 C1640 1.366 . S
C1641 C1642 1.414 . S
C1641 C1644 1.499 . S
C1642 H1622 0.950 . S
C1642 C1641 1.414 . S
C1642 C1643 1.374 . S
C1643 H1623 0.950 . S
C1643 C1639 1.385 . S
C1643 C1642 1.374 . S
C1644 C1641 1.499 . S
C1644 C1645 1.373 . S
C1644 C1646 1.389 . S
C1645 H1624 0.950 . S
C1645 C1644 1.373 . S
C1645 C1661 1.377 . S
C1646 C1644 1.389 . S
C1646 C1647 1.524 . S
C1646 C1660 1.377 . S
C1647 C1646 1.524 . S
C1647 C1648 1.397 . S
C1647 C1652 1.363 . S
C1648 H1625 0.950 . S
C1648 C1647 1.397 . S
C1648 C1649 1.334 . S
C1649 H1626 0.950 . S
C1649 C1648 1.334 . S
C1649 C1650 1.287 . S
C1650 C1649 1.287 . S
C1650 C1651 1.524 . S
C1650 H1669 0.913 . S
C1651 H1627 0.950 . S
C1651 C1650 1.524 . S
C1651 C1652 1.415 . S
C1652 H1628 0.950 . S
C1652 C1647 1.363 . S
C1652 C1651 1.415 . S
C1653 H1629 0.951 . S
C1653 C1654 1.366 . S
C1653 C1655 1.388 . S
C1654 C1653 1.366 . S
C1654 C1658 1.385 . S
C1655 H1630 0.951 . S
C1655 C1653 1.388 . S
C1655 C1656 1.366 . S
C1656 C1655 1.366 . S
C1656 C1657 1.414 . S
C1656 C1659 1.499 . S
C1657 H1631 0.950 . S
C1657 C1656 1.414 . S
C1657 C1658 1.374 . S
C1658 H1632 0.950 . S
C1658 C1654 1.385 . S
C1658 C1657 1.374 . S
C1659 C1656 1.499 . S
C1659 C1660 1.373 . S
C1659 C1661 1.389 . S
C1660 H1633 0.950 . S
C1660 C1646 1.377 . S
C1660 C1659 1.373 . S
C1661 C1645 1.377 . S
C1661 C1659 1.389 . S
C1661 C1662 1.524 . S
C1662 C1661 1.524 . S
C1662 C1663 1.397 . S
C1662 C1667 1.363 . S
C1663 H1634 0.950 . S
C1663 C1662 1.397 . S
C1663 C1664 1.334 1_556 S
C1664 H1635 0.950 . S
C1664 C1663 1.334 1_554 S
C1664 C1665 1.287 . S
C1665 C1664 1.287 . S
C1665 C1666 1.524 . S
C1665 H1668 0.999 . S
C1666 H1636 0.950 . S
C1666 C1665 1.524 . S
C1666 C1667 1.415 1_554 S
C1667 H1637 0.950 . S
C1667 C1662 1.363 . S
C1667 C1666 1.415 1_556 S
H1668 C1665 0.999 . S
H1669 C1650 0.913 . S
H1670 C1688 0.951 . S
H1671 C1690 0.951 . S
H1672 C1692 0.950 . S
H1673 C1693 0.950 . S
H1674 C1695 0.950 . S
H1675 C1698 0.950 . S
H1676 C1699 0.950 . S
H1677 C1701 0.950 . S
H1678 C1702 0.950 . S
H1679 C1703 0.951 . S
H1680 C1705 0.951 . S
H1681 C1707 0.950 . S
H1682 C1708 0.950 . S
H1683 C1710 0.950 . S
H1684 C1713 0.950 . S
H1685 C1714 0.950 . S
H1686 C1716 0.950 . S
H1687 C1717 0.950 . S
C1688 H1670 0.951 . S
C1688 C1689 1.366 . S
C1688 C1690 1.388 . S
C1689 C1688 1.366 . S
C1689 C1693 1.385 . S
C1690 H1671 0.951 . S
C1690 C1688 1.388 . S
C1690 C1691 1.366 . S
C1691 C1690 1.366 . S
C1691 C1692 1.414 . S
C1691 C1694 1.499 . S
C1692 H1672 0.950 . S
C1692 C1691 1.414 . S
C1692 C1693 1.374 . S
C1693 H1673 0.950 . S
C1693 C1689 1.385 . S
C1693 C1692 1.374 . S
C1694 C1691 1.499 . S
C1694 C1695 1.373 . S
C1694 C1696 1.389 . S
C1695 H1674 0.950 . S
C1695 C1694 1.373 . S
C1695 C1711 1.377 . S
C1696 C1694 1.389 . S
C1696 C1697 1.524 . S
C1696 C1710 1.377 . S
C1697 C1696 1.524 . S
C1697 C1698 1.397 . S
C1697 C1702 1.363 . S
C1698 H1675 0.950 . S
C1698 C1697 1.397 . S
C1698 C1699 1.334 . S
C1699 H1676 0.950 . S
C1699 C1698 1.334 . S
C1699 C1700 1.287 . S
C1700 C1699 1.287 . S
C1700 C1701 1.524 . S
C1700 H1719 0.913 1_554 S
C1701 H1677 0.950 . S
C1701 C1700 1.524 . S
C1701 C1702 1.415 . S
C1702 H1678 0.950 . S
C1702 C1697 1.363 . S
C1702 C1701 1.415 . S
C1703 H1679 0.951 . S
C1703 C1704 1.366 . S
C1703 C1705 1.388 . S
C1704 C1703 1.366 . S
C1704 C1708 1.385 . S
C1705 H1680 0.951 . S
C1705 C1703 1.388 . S
C1705 C1706 1.366 . S
C1706 C1705 1.366 . S
C1706 C1707 1.414 . S
C1706 C1709 1.499 . S
C1707 H1681 0.950 . S
C1707 C1706 1.414 . S
C1707 C1708 1.374 . S
C1708 H1682 0.950 . S
C1708 C1704 1.385 . S
C1708 C1707 1.374 . S
C1709 C1706 1.499 . S
C1709 C1710 1.373 . S
C1709 C1711 1.389 . S
C1710 H1683 0.950 . S
C1710 C1696 1.377 . S
C1710 C1709 1.373 . S
C1711 C1695 1.377 . S
C1711 C1709 1.389 . S
C1711 C1712 1.524 . S
C1712 C1711 1.524 . S
C1712 C1713 1.397 . S
C1712 C1717 1.363 . S
C1713 H1684 0.950 . S
C1713 C1712 1.397 . S
C1713 C1714 1.334 . S
C1714 H1685 0.950 . S
C1714 C1713 1.334 . S
C1714 C1715 1.287 . S
C1715 C1714 1.287 . S
C1715 C1716 1.524 . S
C1715 H1718 0.999 . S
C1716 H1686 0.950 . S
C1716 C1715 1.524 . S
C1716 C1717 1.415 . S
C1717 H1687 0.950 . S
C1717 C1712 1.363 . S
C1717 C1716 1.415 . S
H1718 C1715 0.999 . S
H1719 C1700 0.913 1_556 S
H1720 C1738 0.951 . S
H1721 C1740 0.951 . S
H1722 C1742 0.950 . S
H1723 C1743 0.950 . S
H1724 C1745 0.950 . S
H1725 C1748 0.950 . S
H1726 C1749 0.950 . S
H1727 C1751 0.950 . S
H1728 C1752 0.950 . S
H1729 C1753 0.951 . S
H1730 C1755 0.951 . S
H1731 C1757 0.950 . S
H1732 C1758 0.950 . S
H1733 C1760 0.950 . S
H1734 C1763 0.950 . S
H1735 C1764 0.950 . S
H1736 C1766 0.950 . S
H1737 C1767 0.950 . S
C1738 H1720 0.951 . S
C1738 C1739 1.366 . S
C1738 C1740 1.388 . S
C1739 C1738 1.366 . S
C1739 C1743 1.385 . S
C1740 H1721 0.951 . S
C1740 C1738 1.388 . S
C1740 C1741 1.366 . S
C1741 C1740 1.366 . S
C1741 C1742 1.414 . S
C1741 C1744 1.499 . S
C1742 H1722 0.950 . S
C1742 C1741 1.414 . S
C1742 C1743 1.374 . S
C1743 H1723 0.950 . S
C1743 C1739 1.385 . S
C1743 C1742 1.374 . S
C1744 C1741 1.499 . S
C1744 C1745 1.373 . S
C1744 C1746 1.389 . S
C1745 H1724 0.950 . S
C1745 C1744 1.373 . S
C1745 C1761 1.377 . S
C1746 C1744 1.389 . S
C1746 C1747 1.524 . S
C1746 C1760 1.377 . S
C1747 C1746 1.524 . S
C1747 C1748 1.397 . S
C1747 C1752 1.363 . S
C1748 H1725 0.950 . S
C1748 C1747 1.397 . S
C1748 C1749 1.334 . S
C1749 H1726 0.950 . S
C1749 C1748 1.334 . S
C1749 C1750 1.287 . S
C1750 C1749 1.287 . S
C1750 C1751 1.524 . S
C1750 H1769 0.913 . S
C1751 H1727 0.950 . S
C1751 C1750 1.524 . S
C1751 C1752 1.415 . S
C1752 H1728 0.950 . S
C1752 C1747 1.363 . S
C1752 C1751 1.415 . S
C1753 H1729 0.951 . S
C1753 C1754 1.366 . S
C1753 C1755 1.388 . S
C1754 C1753 1.366 . S
C1754 C1758 1.385 . S
C1755 H1730 0.951 . S
C1755 C1753 1.388 . S
C1755 C1756 1.366 . S
C1756 C1755 1.366 . S
C1756 C1757 1.414 . S
C1756 C1759 1.499 . S
C1757 H1731 0.950 . S
C1757 C1756 1.414 . S
C1757 C1758 1.374 . S
C1758 H1732 0.950 . S
C1758 C1754 1.385 . S
C1758 C1757 1.374 . S
C1759 C1756 1.499 . S
C1759 C1760 1.373 . S
C1759 C1761 1.389 . S
C1760 H1733 0.950 . S
C1760 C1746 1.377 . S
C1760 C1759 1.373 . S
C1761 C1745 1.377 . S
C1761 C1759 1.389 . S
C1761 C1762 1.524 . S
C1762 C1761 1.524 . S
C1762 C1763 1.397 . S
C1762 C1767 1.363 . S
C1763 H1734 0.950 . S
C1763 C1762 1.397 . S
C1763 C1764 1.334 . S
C1764 H1735 0.950 . S
C1764 C1763 1.334 . S
C1764 C1765 1.287 . S
C1765 C1764 1.287 . S
C1765 C1766 1.524 . S
C1765 H1768 0.999 . S
C1766 H1736 0.950 . S
C1766 C1765 1.524 . S
C1766 C1767 1.415 . S
C1767 H1737 0.950 . S
C1767 C1762 1.363 . S
C1767 C1766 1.415 . S
H1768 C1765 0.999 . S
H1769 C1750 0.913 . S
H1770 C1788 0.951 . S
H1771 C1790 0.951 . S
H1772 C1792 0.950 . S
H1773 C1793 0.950 . S
H1774 C1795 0.950 . S
H1775 C1798 0.950 . S
H1776 C1799 0.950 . S
H1777 C1801 0.950 . S
H1778 C1802 0.950 . S
H1779 C1803 0.951 . S
H1780 C1805 0.951 . S
H1781 C1807 0.950 . S
H1782 C1808 0.950 . S
H1783 C1810 0.950 . S
H1784 C1813 0.950 . S
H1785 C1814 0.950 . S
H1786 C1816 0.950 . S
H1787 C1817 0.950 . S
C1788 H1770 0.951 . S
C1788 C1789 1.366 . S
C1788 C1790 1.388 . S
C1789 C1788 1.366 . S
C1789 C1793 1.385 . S
C1790 H1771 0.951 . S
C1790 C1788 1.388 . S
C1790 C1791 1.366 . S
C1791 C1790 1.366 . S
C1791 C1792 1.414 . S
C1791 C1794 1.499 . S
C1792 H1772 0.950 . S
C1792 C1791 1.414 . S
C1792 C1793 1.374 . S
C1793 H1773 0.950 . S
C1793 C1789 1.385 . S
C1793 C1792 1.374 . S
C1794 C1791 1.499 . S
C1794 C1795 1.373 . S
C1794 C1796 1.389 . S
C1795 H1774 0.950 . S
C1795 C1794 1.373 . S
C1795 C1811 1.377 . S
C1796 C1794 1.389 . S
C1796 C1797 1.524 . S
C1796 C1810 1.377 . S
C1797 C1796 1.524 . S
C1797 C1798 1.397 . S
C1797 C1802 1.363 . S
C1798 H1775 0.950 . S
C1798 C1797 1.397 . S
C1798 C1799 1.334 . S
C1799 H1776 0.950 . S
C1799 C1798 1.334 . S
C1799 C1800 1.287 . S
C1800 C1799 1.287 . S
C1800 C1801 1.524 . S
C1800 H1819 0.913 . S
C1801 H1777 0.950 . S
C1801 C1800 1.524 . S
C1801 C1802 1.415 . S
C1802 H1778 0.950 . S
C1802 C1797 1.363 . S
C1802 C1801 1.415 . S
C1803 H1779 0.951 . S
C1803 C1804 1.366 . S
C1803 C1805 1.388 . S
C1804 C1803 1.366 . S
C1804 C1808 1.385 . S
C1805 H1780 0.951 . S
C1805 C1803 1.388 . S
C1805 C1806 1.366 . S
C1806 C1805 1.366 . S
C1806 C1807 1.414 . S
C1806 C1809 1.499 . S
C1807 H1781 0.950 . S
C1807 C1806 1.414 . S
C1807 C1808 1.374 . S
C1808 H1782 0.950 . S
C1808 C1804 1.385 . S
C1808 C1807 1.374 . S
C1809 C1806 1.499 . S
C1809 C1810 1.373 . S
C1809 C1811 1.389 . S
C1810 H1783 0.950 . S
C1810 C1796 1.377 . S
C1810 C1809 1.373 . S
C1811 C1795 1.377 . S
C1811 C1809 1.389 . S
C1811 C1812 1.524 . S
C1812 C1811 1.524 . S
C1812 C1813 1.397 . S
C1812 C1817 1.363 . S
C1813 H1784 0.950 . S
C1813 C1812 1.397 . S
C1813 C1814 1.334 . S
C1814 H1785 0.950 . S
C1814 C1813 1.334 . S
C1814 C1815 1.287 . S
C1815 C1814 1.287 . S
C1815 C1816 1.524 . S
C1815 H1818 0.999 . S
C1816 H1786 0.950 . S
C1816 C1815 1.524 . S
C1816 C1817 1.415 . S
C1817 H1787 0.950 . S
C1817 C1812 1.363 . S
C1817 C1816 1.415 . S
H1818 C1815 0.999 . S
H1819 C1800 0.913 . S
H1820 C1838 0.951 . S
H1821 C1840 0.951 . S
H1822 C1842 0.950 . S
H1823 C1843 0.950 . S
H1824 C1845 0.950 . S
H1825 C1848 0.950 . S
H1826 C1849 0.950 . S
H1827 C1851 0.950 . S
H1828 C1852 0.950 . S
H1829 C1853 0.951 . S
H1830 C1855 0.951 . S
H1831 C1857 0.950 . S
H1832 C1858 0.950 . S
H1833 C1860 0.950 . S
H1834 C1863 0.950 . S
H1835 C1864 0.950 . S
H1836 C1866 0.950 . S
H1837 C1867 0.950 . S
C1838 H1820 0.951 . S
C1838 C1839 1.366 . S
C1838 C1840 1.388 . S
C1839 C1838 1.366 . S
C1839 C1843 1.385 . S
C1840 H1821 0.951 . S
C1840 C1838 1.388 . S
C1840 C1841 1.366 . S
C1841 C1840 1.366 . S
C1841 C1842 1.414 . S
C1841 C1844 1.499 . S
C1842 H1822 0.950 . S
C1842 C1841 1.414 . S
C1842 C1843 1.374 . S
C1843 H1823 0.950 . S
C1843 C1839 1.385 . S
C1843 C1842 1.374 . S
C1844 C1841 1.499 . S
C1844 C1845 1.373 . S
C1844 C1846 1.389 . S
C1845 H1824 0.950 . S
C1845 C1844 1.373 . S
C1845 C1861 1.377 . S
C1846 C1844 1.389 . S
C1846 C1847 1.524 . S
C1846 C1860 1.377 . S
C1847 C1846 1.524 . S
C1847 C1848 1.397 . S
C1847 C1852 1.363 . S
C1848 H1825 0.950 . S
C1848 C1847 1.397 . S
C1848 C1849 1.334 . S
C1849 H1826 0.950 . S
C1849 C1848 1.334 . S
C1849 C1850 1.287 . S
C1850 C1849 1.287 . S
C1850 C1851 1.524 . S
C1850 H1869 0.913 . S
C1851 H1827 0.950 . S
C1851 C1850 1.524 . S
C1851 C1852 1.415 . S
C1852 H1828 0.950 . S
C1852 C1847 1.363 . S
C1852 C1851 1.415 . S
C1853 H1829 0.951 . S
C1853 C1854 1.366 . S
C1853 C1855 1.388 . S
C1854 C1853 1.366 . S
C1854 C1858 1.385 . S
C1855 H1830 0.951 . S
C1855 C1853 1.388 . S
C1855 C1856 1.366 . S
C1856 C1855 1.366 . S
C1856 C1857 1.414 . S
C1856 C1859 1.499 . S
C1857 H1831 0.950 . S
C1857 C1856 1.414 . S
C1857 C1858 1.374 . S
C1858 H1832 0.950 . S
C1858 C1854 1.385 . S
C1858 C1857 1.374 . S
C1859 C1856 1.499 . S
C1859 C1860 1.373 . S
C1859 C1861 1.389 . S
C1860 H1833 0.950 . S
C1860 C1846 1.377 . S
C1860 C1859 1.373 . S
C1861 C1845 1.377 . S
C1861 C1859 1.389 . S
C1861 C1862 1.524 . S
C1862 C1861 1.524 . S
C1862 C1863 1.397 . S
C1862 C1867 1.363 . S
C1863 H1834 0.950 . S
C1863 C1862 1.397 . S
C1863 C1864 1.334 1_556 S
C1864 H1835 0.950 . S
C1864 C1863 1.334 1_554 S
C1864 C1865 1.287 . S
C1865 C1864 1.287 . S
C1865 C1866 1.524 . S
C1865 H1868 0.999 . S
C1866 H1836 0.950 . S
C1866 C1865 1.524 . S
C1866 C1867 1.415 1_554 S
C1867 H1837 0.950 . S
C1867 C1862 1.363 . S
C1867 C1866 1.415 1_556 S
H1868 C1865 0.999 . S
H1869 C1850 0.913 . S
H1870 C1888 0.951 . S
H1871 C1890 0.951 . S
H1872 C1892 0.950 . S
H1873 C1893 0.950 . S
H1874 C1895 0.950 . S
H1875 C1898 0.950 . S
H1876 C1899 0.950 . S
H1877 C1901 0.950 . S
H1878 C1902 0.950 . S
H1879 C1903 0.951 . S
H1880 C1905 0.951 . S
H1881 C1907 0.950 . S
H1882 C1908 0.950 . S
H1883 C1910 0.950 . S
H1884 C1913 0.950 . S
H1885 C1914 0.950 . S
H1886 C1916 0.950 . S
H1887 C1917 0.950 . S
C1888 H1870 0.951 . S
C1888 C1889 1.366 . S
C1888 C1890 1.388 . S
C1889 C1888 1.366 . S
C1889 C1893 1.385 . S
C1890 H1871 0.951 . S
C1890 C1888 1.388 . S
C1890 C1891 1.366 . S
C1891 C1890 1.366 . S
C1891 C1892 1.414 . S
C1891 C1894 1.499 . S
C1892 H1872 0.950 . S
C1892 C1891 1.414 . S
C1892 C1893 1.374 . S
C1893 H1873 0.950 . S
C1893 C1889 1.385 . S
C1893 C1892 1.374 . S
C1894 C1891 1.499 . S
C1894 C1895 1.373 . S
C1894 C1896 1.389 . S
C1895 H1874 0.950 . S
C1895 C1894 1.373 . S
C1895 C1911 1.377 . S
C1896 C1894 1.389 . S
C1896 C1897 1.524 . S
C1896 C1910 1.377 . S
C1897 C1896 1.524 . S
C1897 C1898 1.397 . S
C1897 C1902 1.363 . S
C1898 H1875 0.950 . S
C1898 C1897 1.397 . S
C1898 C1899 1.334 . S
C1899 H1876 0.950 . S
C1899 C1898 1.334 . S
C1899 C1900 1.287 . S
C1900 C1899 1.287 . S
C1900 C1901 1.524 . S
C1900 H1919 0.913 . S
C1901 H1877 0.950 . S
C1901 C1900 1.524 . S
C1901 C1902 1.415 . S
C1902 H1878 0.950 . S
C1902 C1897 1.363 . S
C1902 C1901 1.415 . S
C1903 H1879 0.951 . S
C1903 C1904 1.366 . S
C1903 C1905 1.388 . S
C1904 C1903 1.366 . S
C1904 C1908 1.385 . S
C1905 H1880 0.951 . S
C1905 C1903 1.388 . S
C1905 C1906 1.366 . S
C1906 C1905 1.366 . S
C1906 C1907 1.414 . S
C1906 C1909 1.499 . S
C1907 H1881 0.950 . S
C1907 C1906 1.414 . S
C1907 C1908 1.374 . S
C1908 H1882 0.950 . S
C1908 C1904 1.385 . S
C1908 C1907 1.374 . S
C1909 C1906 1.499 . S
C1909 C1910 1.373 . S
C1909 C1911 1.389 . S
C1910 H1883 0.950 . S
C1910 C1896 1.377 . S
C1910 C1909 1.373 . S
C1911 C1895 1.377 . S
C1911 C1909 1.389 . S
C1911 C1912 1.524 . S
C1912 C1911 1.524 . S
C1912 C1913 1.397 . S
C1912 C1917 1.363 . S
C1913 H1884 0.950 . S
C1913 C1912 1.397 . S
C1913 C1914 1.334 . S
C1914 H1885 0.950 . S
C1914 C1913 1.334 . S
C1914 C1915 1.287 . S
C1915 C1914 1.287 . S
C1915 C1916 1.524 . S
C1915 H1918 0.999 . S
C1916 H1886 0.950 . S
C1916 C1915 1.524 . S
C1916 C1917 1.415 . S
C1917 H1887 0.950 . S
C1917 C1912 1.363 . S
C1917 C1916 1.415 . S
H1918 C1915 0.999 . S
H1919 C1900 0.913 . S
H1920 C1938 0.951 . S
H1921 C1940 0.951 . S
H1922 C1942 0.950 . S
H1923 C1943 0.950 . S
H1924 C1945 0.950 . S
H1925 C1948 0.950 . S
H1926 C1949 0.950 . S
H1927 C1951 0.950 . S
H1928 C1952 0.950 . S
H1929 C1953 0.951 . S
H1930 C1955 0.951 . S
H1931 C1957 0.950 . S
H1932 C1958 0.950 . S
H1933 C1960 0.950 . S
H1934 C1963 0.950 . S
H1935 C1964 0.949 . S
H1936 C1966 0.950 . S
H1937 C1967 0.950 . S
C1938 H1920 0.951 . S
C1938 C1939 1.366 . S
C1938 C1940 1.388 . S
C1939 C1938 1.366 . S
C1939 C1943 1.385 . S
C1940 H1921 0.951 . S
C1940 C1938 1.388 . S
C1940 C1941 1.366 . S
C1941 C1940 1.366 . S
C1941 C1942 1.414 . S
C1941 C1944 1.499 . S
C1942 H1922 0.950 . S
C1942 C1941 1.414 . S
C1942 C1943 1.374 . S
C1943 H1923 0.950 . S
C1943 C1939 1.385 . S
C1943 C1942 1.374 . S
C1944 C1941 1.499 . S
C1944 C1945 1.373 . S
C1944 C1946 1.389 . S
C1945 H1924 0.950 . S
C1945 C1944 1.373 . S
C1945 C1961 1.377 . S
C1946 C1944 1.389 . S
C1946 C1947 1.524 . S
C1946 C1960 1.377 . S
C1947 C1946 1.524 . S
C1947 C1948 1.397 . S
C1947 C1952 1.363 . S
C1948 H1925 0.950 . S
C1948 C1947 1.397 . S
C1948 C1949 1.334 . S
C1949 H1926 0.950 . S
C1949 C1948 1.334 . S
C1949 C1950 1.287 . S
C1950 C1949 1.287 . S
C1950 C1951 1.524 . S
C1950 H1969 0.913 . S
C1951 H1927 0.950 . S
C1951 C1950 1.524 . S
C1951 C1952 1.415 . S
C1952 H1928 0.950 . S
C1952 C1947 1.363 . S
C1952 C1951 1.415 . S
C1953 H1929 0.951 . S
C1953 C1954 1.366 . S
C1953 C1955 1.388 . S
C1954 C1953 1.366 . S
C1954 C1958 1.385 . S
C1955 H1930 0.951 . S
C1955 C1953 1.388 . S
C1955 C1956 1.366 . S
C1956 C1955 1.366 . S
C1956 C1957 1.414 . S
C1956 C1959 1.499 . S
C1957 H1931 0.950 . S
C1957 C1956 1.414 . S
C1957 C1958 1.374 . S
C1958 H1932 0.950 . S
C1958 C1954 1.385 . S
C1958 C1957 1.374 . S
C1959 C1956 1.499 . S
C1959 C1960 1.373 . S
C1959 C1961 1.389 . S
C1960 H1933 0.950 . S
C1960 C1946 1.377 . S
C1960 C1959 1.373 . S
C1961 C1945 1.377 . S
C1961 C1959 1.389 . S
C1961 C1962 1.524 . S
C1962 C1961 1.524 . S
C1962 C1963 1.397 . S
C1962 C1967 1.363 . S
C1963 H1934 0.950 . S
C1963 C1962 1.397 . S
C1963 C1964 1.334 . S
C1964 H1935 0.949 . S
C1964 C1963 1.334 . S
C1964 C1965 1.287 . S
C1965 C1964 1.287 . S
C1965 C1966 1.524 . S
C1965 H1968 0.999 1_554 S
C1966 H1936 0.950 . S
C1966 C1965 1.524 . S
C1966 C1967 1.415 . S
C1967 H1937 0.950 . S
C1967 C1962 1.363 . S
C1967 C1966 1.415 . S
H1968 C1965 0.999 1_556 S
H1969 C1950 0.913 . S
H1970 C1988 0.951 . S
H1971 C1990 0.951 . S
H1972 C1992 0.950 . S
H1973 C1993 0.950 . S
H1974 C1995 0.950 . S
H1975 C1998 0.950 . S
H1976 C1999 0.950 . S
H1977 C2001 0.950 . S
H1978 C2002 0.950 . S
H1979 C2003 0.951 . S
H1980 C2005 0.951 . S
H1981 C2007 0.950 . S
H1982 C2008 0.950 . S
H1983 C2010 0.950 . S
H1984 C2013 0.950 . S
H1985 C2014 0.950 . S
H1986 C2016 0.950 . S
H1987 C2017 0.950 . S
C1988 H1970 0.951 . S
C1988 C1989 1.366 . S
C1988 C1990 1.388 . S
C1989 C1988 1.366 . S
C1989 C1993 1.385 . S
C1990 H1971 0.951 . S
C1990 C1988 1.388 . S
C1990 C1991 1.366 . S
C1991 C1990 1.366 . S
C1991 C1992 1.414 . S
C1991 C1994 1.499 . S
C1992 H1972 0.950 . S
C1992 C1991 1.414 . S
C1992 C1993 1.374 . S
C1993 H1973 0.950 . S
C1993 C1989 1.385 . S
C1993 C1992 1.374 . S
C1994 C1991 1.499 . S
C1994 C1995 1.373 . S
C1994 C1996 1.389 . S
C1995 H1974 0.950 . S
C1995 C1994 1.373 . S
C1995 C2011 1.377 . S
C1996 C1994 1.389 . S
C1996 C1997 1.524 . S
C1996 C2010 1.377 . S
C1997 C1996 1.524 . S
C1997 C1998 1.397 . S
C1997 C2002 1.363 . S
C1998 H1975 0.950 . S
C1998 C1997 1.397 . S
C1998 C1999 1.334 . S
C1999 H1976 0.950 . S
C1999 C1998 1.334 . S
C1999 C2000 1.287 . S
C2000 C1999 1.287 . S
C2000 C2001 1.524 . S
C2000 H2019 0.913 . S
C2001 H1977 0.950 . S
C2001 C2000 1.524 . S
C2001 C2002 1.415 . S
C2002 H1978 0.950 . S
C2002 C1997 1.363 . S
C2002 C2001 1.415 . S
C2003 H1979 0.951 . S
C2003 C2004 1.366 . S
C2003 C2005 1.388 . S
C2004 C2003 1.366 . S
C2004 C2008 1.385 . S
C2005 H1980 0.951 . S
C2005 C2003 1.388 . S
C2005 C2006 1.366 . S
C2006 C2005 1.366 . S
C2006 C2007 1.414 . S
C2006 C2009 1.499 . S
C2007 H1981 0.950 . S
C2007 C2006 1.414 . S
C2007 C2008 1.374 . S
C2008 H1982 0.950 . S
C2008 C2004 1.385 . S
C2008 C2007 1.374 . S
C2009 C2006 1.499 . S
C2009 C2010 1.373 . S
C2009 C2011 1.389 . S
C2010 H1983 0.950 . S
C2010 C1996 1.377 . S
C2010 C2009 1.373 . S
C2011 C1995 1.377 . S
C2011 C2009 1.389 . S
C2011 C2012 1.524 . S
C2012 C2011 1.524 . S
C2012 C2013 1.397 . S
C2012 C2017 1.363 . S
C2013 H1984 0.950 . S
C2013 C2012 1.397 . S
C2013 C2014 1.334 . S
C2014 H1985 0.950 . S
C2014 C2013 1.334 . S
C2014 C2015 1.287 . S
C2015 C2014 1.287 . S
C2015 C2016 1.524 . S
C2015 H2018 0.999 . S
C2016 H1986 0.950 . S
C2016 C2015 1.524 . S
C2016 C2017 1.415 . S
C2017 H1987 0.950 . S
C2017 C2012 1.363 . S
C2017 C2016 1.415 . S
H2018 C2015 0.999 . S
H2019 C2000 0.913 . S
H2020 C2038 0.951 . S
H2021 C2040 0.951 . S
H2022 C2042 0.950 . S
H2023 C2043 0.950 . S
H2024 C2045 0.950 . S
H2025 C2048 0.950 . S
H2026 C2049 0.950 . S
H2027 C2051 0.950 . S
H2028 C2052 0.950 . S
H2029 C2053 0.951 . S
H2030 C2055 0.951 . S
H2031 C2057 0.950 . S
H2032 C2058 0.950 . S
H2033 C2060 0.950 . S
H2034 C2063 0.950 . S
H2035 C2064 0.950 . S
H2036 C2066 0.950 . S
H2037 C2067 0.950 . S
C2038 H2020 0.951 . S
C2038 C2039 1.366 . S
C2038 C2040 1.388 . S
C2039 C2038 1.366 . S
C2039 C2043 1.385 . S
C2040 H2021 0.951 . S
C2040 C2038 1.388 . S
C2040 C2041 1.366 . S
C2041 C2040 1.366 . S
C2041 C2042 1.414 . S
C2041 C2044 1.499 . S
C2042 H2022 0.950 . S
C2042 C2041 1.414 . S
C2042 C2043 1.374 . S
C2043 H2023 0.950 . S
C2043 C2039 1.385 . S
C2043 C2042 1.374 . S
C2044 C2041 1.499 . S
C2044 C2045 1.373 . S
C2044 C2046 1.389 . S
C2045 H2024 0.950 . S
C2045 C2044 1.373 . S
C2045 C2061 1.377 . S
C2046 C2044 1.389 . S
C2046 C2047 1.524 . S
C2046 C2060 1.377 . S
C2047 C2046 1.524 . S
C2047 C2048 1.397 . S
C2047 C2052 1.363 . S
C2048 H2025 0.950 . S
C2048 C2047 1.397 . S
C2048 C2049 1.334 . S
C2049 H2026 0.950 . S
C2049 C2048 1.334 . S
C2049 C2050 1.287 . S
C2050 C2049 1.287 . S
C2050 C2051 1.524 . S
C2050 H2069 0.913 . S
C2051 H2027 0.950 . S
C2051 C2050 1.524 . S
C2051 C2052 1.415 . S
C2052 H2028 0.950 . S
C2052 C2047 1.363 . S
C2052 C2051 1.415 . S
C2053 H2029 0.951 . S
C2053 C2054 1.366 . S
C2053 C2055 1.388 . S
C2054 C2053 1.366 . S
C2054 C2058 1.385 . S
C2055 H2030 0.951 . S
C2055 C2053 1.388 . S
C2055 C2056 1.366 . S
C2056 C2055 1.366 . S
C2056 C2057 1.414 . S
C2056 C2059 1.499 . S
C2057 H2031 0.950 . S
C2057 C2056 1.414 . S
C2057 C2058 1.374 . S
C2058 H2032 0.950 . S
C2058 C2054 1.385 . S
C2058 C2057 1.374 . S
C2059 C2056 1.499 . S
C2059 C2060 1.373 . S
C2059 C2061 1.389 . S
C2060 H2033 0.950 . S
C2060 C2046 1.377 . S
C2060 C2059 1.373 . S
C2061 C2045 1.377 . S
C2061 C2059 1.389 . S
C2061 C2062 1.524 . S
C2062 C2061 1.524 . S
C2062 C2063 1.397 . S
C2062 C2067 1.363 . S
C2063 H2034 0.950 . S
C2063 C2062 1.397 . S
C2063 C2064 1.334 . S
C2064 H2035 0.950 . S
C2064 C2063 1.334 . S
C2064 C2065 1.287 . S
C2065 C2064 1.287 . S
C2065 C2066 1.524 . S
C2065 H2068 0.999 . S
C2066 H2036 0.950 . S
C2066 C2065 1.524 . S
C2066 C2067 1.415 . S
C2067 H2037 0.950 . S
C2067 C2062 1.363 . S
C2067 C2066 1.415 . S
H2068 C2065 0.999 . S
H2069 C2050 0.913 . S
H2070 C2088 0.951 . S
H2071 C2090 0.951 . S
H2072 C2092 0.950 . S
H2073 C2093 0.950 . S
H2074 C2095 0.950 . S
H2075 C2098 0.950 . S
H2076 C2099 0.950 . S
H2077 C2101 0.950 . S
H2078 C2102 0.950 . S
H2079 C2103 0.951 . S
H2080 C2105 0.951 . S
H2081 C2107 0.950 . S
H2082 C2108 0.950 . S
H2083 C2110 0.950 . S
H2084 C2113 0.950 . S
H2085 C2114 0.950 . S
H2086 C2116 0.950 . S
H2087 C2117 0.950 . S
C2088 H2070 0.951 . S
C2088 C2089 1.366 . S
C2088 C2090 1.388 . S
C2089 C2088 1.366 . S
C2089 C2093 1.385 . S
C2090 H2071 0.951 . S
C2090 C2088 1.388 . S
C2090 C2091 1.366 . S
C2091 C2090 1.366 . S
C2091 C2092 1.414 . S
C2091 C2094 1.499 . S
C2092 H2072 0.950 . S
C2092 C2091 1.414 . S
C2092 C2093 1.374 . S
C2093 H2073 0.950 . S
C2093 C2089 1.385 . S
C2093 C2092 1.374 . S
C2094 C2091 1.499 . S
C2094 C2095 1.373 . S
C2094 C2096 1.389 . S
C2095 H2074 0.950 . S
C2095 C2094 1.373 . S
C2095 C2111 1.377 . S
C2096 C2094 1.389 . S
C2096 C2097 1.524 . S
C2096 C2110 1.377 . S
C2097 C2096 1.524 . S
C2097 C2098 1.397 . S
C2097 C2102 1.363 . S
C2098 H2075 0.950 . S
C2098 C2097 1.397 . S
C2098 C2099 1.334 . S
C2099 H2076 0.950 . S
C2099 C2098 1.334 . S
C2099 C2100 1.287 . S
C2100 C2099 1.287 . S
C2100 C2101 1.524 . S
C2100 H2119 0.913 . S
C2101 H2077 0.950 . S
C2101 C2100 1.524 . S
C2101 C2102 1.415 . S
C2102 H2078 0.950 . S
C2102 C2097 1.363 . S
C2102 C2101 1.415 . S
C2103 H2079 0.951 . S
C2103 C2104 1.366 . S
C2103 C2105 1.388 . S
C2104 C2103 1.366 . S
C2104 C2108 1.385 . S
C2105 H2080 0.951 . S
C2105 C2103 1.388 . S
C2105 C2106 1.366 . S
C2106 C2105 1.366 . S
C2106 C2107 1.414 . S
C2106 C2109 1.499 . S
C2107 H2081 0.950 . S
C2107 C2106 1.414 . S
C2107 C2108 1.374 . S
C2108 H2082 0.950 . S
C2108 C2104 1.385 . S
C2108 C2107 1.374 . S
C2109 C2106 1.499 . S
C2109 C2110 1.373 . S
C2109 C2111 1.389 . S
C2110 H2083 0.950 . S
C2110 C2096 1.377 . S
C2110 C2109 1.373 . S
C2111 C2095 1.377 . S
C2111 C2109 1.389 . S
C2111 C2112 1.524 . S
C2112 C2111 1.524 . S
C2112 C2113 1.397 . S
C2112 C2117 1.363 . S
C2113 H2084 0.950 . S
C2113 C2112 1.397 . S
C2113 C2114 1.334 . S
C2114 H2085 0.950 . S
C2114 C2113 1.334 . S
C2114 C2115 1.287 . S
C2115 C2114 1.287 . S
C2115 C2116 1.524 . S
C2115 H2118 0.999 . S
C2116 H2086 0.950 . S
C2116 C2115 1.524 . S
C2116 C2117 1.415 . S
C2117 H2087 0.950 . S
C2117 C2112 1.363 . S
C2117 C2116 1.415 . S
H2118 C2115 0.999 . S
H2119 C2100 0.913 . S
H2120 C2138 0.951 . S
H2121 C2140 0.951 . S
H2122 C2142 0.950 . S
H2123 C2143 0.950 . S
H2124 C2145 0.950 . S
H2125 C2148 0.950 . S
H2126 C2149 0.950 . S
H2127 C2151 0.950 . S
H2128 C2152 0.950 . S
H2129 C2153 0.951 . S
H2130 C2155 0.951 . S
H2131 C2157 0.950 . S
H2132 C2158 0.950 . S
H2133 C2160 0.950 . S
H2134 C2163 0.950 . S
H2135 C2164 0.950 . S
H2136 C2166 0.950 1_554 S
H2137 C2167 0.950 . S
C2138 H2120 0.951 . S
C2138 C2139 1.366 . S
C2138 C2140 1.388 . S
C2139 C2138 1.366 . S
C2139 C2143 1.385 . S
C2140 H2121 0.951 . S
C2140 C2138 1.388 . S
C2140 C2141 1.366 . S
C2141 C2140 1.366 . S
C2141 C2142 1.414 . S
C2141 C2144 1.499 . S
C2142 H2122 0.950 . S
C2142 C2141 1.414 . S
C2142 C2143 1.374 . S
C2143 H2123 0.950 . S
C2143 C2139 1.385 . S
C2143 C2142 1.374 . S
C2144 C2141 1.499 . S
C2144 C2145 1.373 . S
C2144 C2146 1.389 . S
C2145 H2124 0.950 . S
C2145 C2144 1.373 . S
C2145 C2161 1.377 . S
C2146 C2144 1.389 . S
C2146 C2147 1.524 . S
C2146 C2160 1.377 . S
C2147 C2146 1.524 . S
C2147 C2148 1.397 . S
C2147 C2152 1.363 . S
C2148 H2125 0.950 . S
C2148 C2147 1.397 . S
C2148 C2149 1.334 . S
C2149 H2126 0.950 . S
C2149 C2148 1.334 . S
C2149 C2150 1.287 . S
C2150 C2149 1.287 . S
C2150 C2151 1.524 . S
C2150 H2169 0.913 . S
C2151 H2127 0.950 . S
C2151 C2150 1.524 . S
C2151 C2152 1.415 . S
C2152 H2128 0.950 . S
C2152 C2147 1.363 . S
C2152 C2151 1.415 . S
C2153 H2129 0.951 . S
C2153 C2154 1.366 . S
C2153 C2155 1.388 . S
C2154 C2153 1.366 . S
C2154 C2158 1.385 . S
C2155 H2130 0.951 . S
C2155 C2153 1.388 . S
C2155 C2156 1.366 . S
C2156 C2155 1.366 . S
C2156 C2157 1.414 . S
C2156 C2159 1.499 . S
C2157 H2131 0.950 . S
C2157 C2156 1.414 . S
C2157 C2158 1.374 . S
C2158 H2132 0.950 . S
C2158 C2154 1.385 . S
C2158 C2157 1.374 . S
C2159 C2156 1.499 . S
C2159 C2160 1.373 . S
C2159 C2161 1.389 . S
C2160 H2133 0.950 . S
C2160 C2146 1.377 . S
C2160 C2159 1.373 . S
C2161 C2145 1.377 . S
C2161 C2159 1.389 . S
C2161 C2162 1.524 . S
C2162 C2161 1.524 . S
C2162 C2163 1.397 . S
C2162 C2167 1.363 . S
C2163 H2134 0.950 . S
C2163 C2162 1.397 . S
C2163 C2164 1.334 . S
C2164 H2135 0.950 . S
C2164 C2163 1.334 . S
C2164 C2165 1.287 . S
C2165 C2164 1.287 . S
C2165 C2166 1.524 . S
C2165 H2168 0.977 1_556 S
C2166 H2136 0.950 1_556 S
C2166 C2165 1.524 . S
C2166 C2167 1.415 . S
C2167 H2137 0.950 . S
C2167 C2162 1.363 . S
C2167 C2166 1.415 . S
H2168 C2165 0.977 1_554 S
H2169 C2150 0.913 . S
H2170 C2188 0.951 . S
H2171 C2190 0.951 . S
H2172 C2192 0.950 . S
H2173 C2193 0.950 . S
H2174 C2195 0.950 . S
H2175 C2198 0.950 . S
H2176 C2199 0.950 . S
H2177 C2201 0.950 . S
H2178 C2202 0.950 . S
H2179 C2203 0.951 . S
H2180 C2205 0.951 . S
H2181 C2207 0.950 . S
H2182 C2208 0.950 . S
H2183 C2210 0.950 . S
H2184 C2213 0.950 . S
H2185 C2214 0.950 1_554 S
H2186 C2216 0.950 . S
H2187 C2217 0.950 . S
C2188 H2170 0.951 . S
C2188 C2189 1.366 . S
C2188 C2190 1.388 . S
C2189 C2188 1.366 . S
C2189 C2193 1.385 . S
C2190 H2171 0.951 . S
C2190 C2188 1.388 . S
C2190 C2191 1.366 . S
C2191 C2190 1.366 . S
C2191 C2192 1.414 . S
C2191 C2194 1.499 . S
C2192 H2172 0.950 . S
C2192 C2191 1.414 . S
C2192 C2193 1.374 . S
C2193 H2173 0.950 . S
C2193 C2189 1.385 . S
C2193 C2192 1.374 . S
C2194 C2191 1.499 . S
C2194 C2195 1.373 . S
C2194 C2196 1.389 . S
C2195 H2174 0.950 . S
C2195 C2194 1.373 . S
C2195 C2211 1.377 . S
C2196 C2194 1.389 . S
C2196 C2197 1.524 . S
C2196 C2210 1.377 . S
C2197 C2196 1.524 . S
C2197 C2198 1.397 . S
C2197 C2202 1.363 . S
C2198 H2175 0.950 . S
C2198 C2197 1.397 . S
C2198 C2199 1.334 . S
C2199 H2176 0.950 . S
C2199 C2198 1.334 . S
C2199 C2200 1.287 . S
C2200 C2199 1.287 . S
C2200 C2201 1.524 . S
C2200 H2219 0.913 . S
C2201 H2177 0.950 . S
C2201 C2200 1.524 . S
C2201 C2202 1.415 . S
C2202 H2178 0.950 . S
C2202 C2197 1.363 . S
C2202 C2201 1.415 . S
C2203 H2179 0.951 . S
C2203 C2204 1.366 . S
C2203 C2205 1.388 . S
C2204 C2203 1.366 . S
C2204 C2208 1.385 . S
C2205 H2180 0.951 . S
C2205 C2203 1.388 . S
C2205 C2206 1.366 . S
C2206 C2205 1.366 . S
C2206 C2207 1.414 . S
C2206 C2209 1.499 . S
C2207 H2181 0.950 . S
C2207 C2206 1.414 . S
C2207 C2208 1.374 . S
C2208 H2182 0.950 . S
C2208 C2204 1.385 . S
C2208 C2207 1.374 . S
C2209 C2206 1.499 . S
C2209 C2210 1.373 . S
C2209 C2211 1.389 . S
C2210 H2183 0.950 . S
C2210 C2196 1.377 . S
C2210 C2209 1.373 . S
C2211 C2195 1.377 . S
C2211 C2209 1.389 . S
C2211 C2212 1.524 . S
C2212 C2211 1.524 . S
C2212 C2213 1.397 . S
C2212 C2217 1.363 . S
C2213 H2184 0.950 . S
C2213 C2212 1.397 . S
C2213 C2214 1.334 . S
C2214 H2185 0.950 1_556 S
C2214 C2213 1.334 . S
C2214 C2215 1.287 . S
C2215 C2214 1.287 . S
C2215 C2216 1.524 . S
C2215 H2218 1.032 . S
C2216 H2186 0.950 . S
C2216 C2215 1.524 . S
C2216 C2217 1.415 . S
C2217 H2187 0.950 . S
C2217 C2212 1.363 . S
C2217 C2216 1.415 . S
H2218 C2215 1.032 . S
H2219 C2200 0.913 . S
H2220 C2238 0.951 . S
H2221 C2240 0.951 . S
H2222 C2242 0.950 . S
H2223 C2243 0.950 . S
H2224 C2245 0.950 . S
H2225 C2248 0.950 . S
H2226 C2249 0.950 . S
H2227 C2251 0.950 . S
H2228 C2252 0.950 . S
H2229 C2253 0.951 . S
H2230 C2255 0.951 . S
H2231 C2257 0.950 . S
H2232 C2258 0.950 . S
H2233 C2260 0.950 . S
H2234 C2263 0.950 . S
H2235 C2264 0.950 . S
H2236 C2266 0.950 . S
H2237 C2267 0.950 . S
C2238 H2220 0.951 . S
C2238 C2239 1.366 . S
C2238 C2240 1.388 . S
C2239 C2238 1.366 . S
C2239 C2243 1.385 . S
C2240 H2221 0.951 . S
C2240 C2238 1.388 . S
C2240 C2241 1.366 . S
C2241 C2240 1.366 . S
C2241 C2242 1.414 . S
C2241 C2244 1.499 . S
C2242 H2222 0.950 . S
C2242 C2241 1.414 . S
C2242 C2243 1.374 . S
C2243 H2223 0.950 . S
C2243 C2239 1.385 . S
C2243 C2242 1.374 . S
C2244 C2241 1.499 . S
C2244 C2245 1.373 . S
C2244 C2246 1.389 . S
C2245 H2224 0.950 . S
C2245 C2244 1.373 . S
C2245 C2261 1.377 . S
C2246 C2244 1.389 . S
C2246 C2247 1.524 . S
C2246 C2260 1.377 . S
C2247 C2246 1.524 . S
C2247 C2248 1.397 . S
C2247 C2252 1.363 . S
C2248 H2225 0.950 . S
C2248 C2247 1.397 . S
C2248 C2249 1.334 . S
C2249 H2226 0.950 . S
C2249 C2248 1.334 . S
C2249 C2250 1.287 1_556 S
C2250 C2249 1.287 1_554 S
C2250 C2251 1.524 . S
C2250 H2269 0.913 . S
C2251 H2227 0.950 . S
C2251 C2250 1.524 . S
C2251 C2252 1.415 1_554 S
C2252 H2228 0.950 . S
C2252 C2247 1.363 . S
C2252 C2251 1.415 1_556 S
C2253 H2229 0.951 . S
C2253 C2254 1.366 . S
C2253 C2255 1.388 . S
C2254 C2253 1.366 . S
C2254 C2258 1.385 . S
C2255 H2230 0.951 . S
C2255 C2253 1.388 . S
C2255 C2256 1.366 . S
C2256 C2255 1.366 . S
C2256 C2257 1.414 . S
C2256 C2259 1.499 . S
C2257 H2231 0.950 . S
C2257 C2256 1.414 . S
C2257 C2258 1.374 . S
C2258 H2232 0.950 . S
C2258 C2254 1.385 . S
C2258 C2257 1.374 . S
C2259 C2256 1.499 . S
C2259 C2260 1.373 . S
C2259 C2261 1.389 . S
C2260 H2233 0.950 . S
C2260 C2246 1.377 . S
C2260 C2259 1.373 . S
C2261 C2245 1.377 . S
C2261 C2259 1.389 . S
C2261 C2262 1.524 . S
C2262 C2261 1.524 . S
C2262 C2263 1.397 . S
C2262 C2267 1.363 . S
C2263 H2234 0.950 . S
C2263 C2262 1.397 . S
C2263 C2264 1.334 . S
C2264 H2235 0.950 . S
C2264 C2263 1.334 . S
C2264 C2265 1.287 . S
C2265 C2264 1.287 . S
C2265 C2266 1.524 . S
C2265 H2268 0.999 . S
C2266 H2236 0.950 . S
C2266 C2265 1.524 . S
C2266 C2267 1.415 . S
C2267 H2237 0.950 . S
C2267 C2262 1.363 . S
C2267 C2266 1.415 . S
H2268 C2265 0.999 . S
H2269 C2250 0.913 . S
H2270 C2288 0.951 . S
H2271 C2290 0.951 . S
H2272 C2292 0.950 . S
H2273 C2293 0.950 . S
H2274 C2295 0.950 . S
H2275 C2298 0.950 . S
H2276 C2299 0.950 . S
H2277 C2301 0.950 . S
H2278 C2302 0.950 . S
H2279 C2303 0.951 . S
H2280 C2305 0.951 . S
H2281 C2307 0.950 . S
H2282 C2308 0.950 . S
H2283 C2310 0.950 . S
H2284 C2313 0.950 . S
H2285 C2314 0.950 . S
H2286 C2316 0.950 . S
H2287 C2317 0.950 . S
C2288 H2270 0.951 . S
C2288 C2289 1.366 . S
C2288 C2290 1.388 . S
C2289 C2288 1.366 . S
C2289 C2293 1.385 . S
C2290 H2271 0.951 . S
C2290 C2288 1.388 . S
C2290 C2291 1.366 . S
C2291 C2290 1.366 . S
C2291 C2292 1.414 . S
C2291 C2294 1.499 . S
C2292 H2272 0.950 . S
C2292 C2291 1.414 . S
C2292 C2293 1.374 . S
C2293 H2273 0.950 . S
C2293 C2289 1.385 . S
C2293 C2292 1.374 . S
C2294 C2291 1.499 . S
C2294 C2295 1.373 . S
C2294 C2296 1.389 . S
C2295 H2274 0.950 . S
C2295 C2294 1.373 . S
C2295 C2311 1.377 . S
C2296 C2294 1.389 . S
C2296 C2297 1.524 . S
C2296 C2310 1.377 . S
C2297 C2296 1.524 . S
C2297 C2298 1.397 . S
C2297 C2302 1.363 . S
C2298 H2275 0.950 . S
C2298 C2297 1.397 . S
C2298 C2299 1.334 . S
C2299 H2276 0.950 . S
C2299 C2298 1.334 . S
C2299 C2300 1.287 . S
C2300 C2299 1.287 . S
C2300 C2301 1.524 . S
C2300 H2319 0.913 . S
C2301 H2277 0.950 . S
C2301 C2300 1.524 . S
C2301 C2302 1.415 . S
C2302 H2278 0.950 . S
C2302 C2297 1.363 . S
C2302 C2301 1.415 . S
C2303 H2279 0.951 . S
C2303 C2304 1.366 . S
C2303 C2305 1.388 . S
C2304 C2303 1.366 . S
C2304 C2308 1.385 . S
C2305 H2280 0.951 . S
C2305 C2303 1.388 . S
C2305 C2306 1.366 . S
C2306 C2305 1.366 . S
C2306 C2307 1.414 . S
C2306 C2309 1.499 . S
C2307 H2281 0.950 . S
C2307 C2306 1.414 . S
C2307 C2308 1.374 . S
C2308 H2282 0.950 . S
C2308 C2304 1.385 . S
C2308 C2307 1.374 . S
C2309 C2306 1.499 . S
C2309 C2310 1.373 . S
C2309 C2311 1.389 . S
C2310 H2283 0.950 . S
C2310 C2296 1.377 . S
C2310 C2309 1.373 . S
C2311 C2295 1.377 . S
C2311 C2309 1.389 . S
C2311 C2312 1.524 . S
C2312 C2311 1.524 . S
C2312 C2313 1.397 . S
C2312 C2317 1.363 . S
C2313 H2284 0.950 . S
C2313 C2312 1.397 . S
C2313 C2314 1.334 . S
C2314 H2285 0.950 . S
C2314 C2313 1.334 . S
C2314 C2315 1.287 . S
C2315 C2314 1.287 . S
C2315 C2316 1.524 . S
C2315 H2318 0.999 . S
C2316 H2286 0.950 . S
C2316 C2315 1.524 . S
C2316 C2317 1.415 . S
C2317 H2287 0.950 . S
C2317 C2312 1.363 . S
C2317 C2316 1.415 . S
H2318 C2315 0.999 . S
H2319 C2300 0.913 . S
H2320 C2338 0.951 . S
H2321 C2340 0.951 . S
H2322 C2342 0.950 . S
H2323 C2343 0.950 . S
H2324 C2345 0.950 . S
H2325 C2348 0.950 . S
H2326 C2349 0.950 . S
H2327 C2351 0.950 . S
H2328 C2352 0.950 . S
H2329 C2353 0.951 . S
H2330 C2355 0.951 . S
H2331 C2357 0.950 . S
H2332 C2358 0.950 . S
H2333 C2360 0.950 . S
H2334 C2363 0.950 . S
H2335 C2364 0.950 . S
H2336 C2366 0.950 . S
H2337 C2367 0.950 . S
C2338 H2320 0.951 . S
C2338 C2339 1.366 . S
C2338 C2340 1.388 . S
C2339 C2338 1.366 . S
C2339 C2343 1.385 . S
C2340 H2321 0.951 . S
C2340 C2338 1.388 . S
C2340 C2341 1.366 . S
C2341 C2340 1.366 . S
C2341 C2342 1.414 . S
C2341 C2344 1.499 . S
C2342 H2322 0.950 . S
C2342 C2341 1.414 . S
C2342 C2343 1.374 . S
C2343 H2323 0.950 . S
C2343 C2339 1.385 . S
C2343 C2342 1.374 . S
C2344 C2341 1.499 . S
C2344 C2345 1.373 . S
C2344 C2346 1.389 . S
C2345 H2324 0.950 . S
C2345 C2344 1.373 . S
C2345 C2361 1.377 . S
C2346 C2344 1.389 . S
C2346 C2347 1.524 . S
C2346 C2360 1.377 . S
C2347 C2346 1.524 . S
C2347 C2348 1.397 . S
C2347 C2352 1.363 . S
C2348 H2325 0.950 . S
C2348 C2347 1.397 . S
C2348 C2349 1.334 . S
C2349 H2326 0.950 . S
C2349 C2348 1.334 . S
C2349 C2350 1.287 . S
C2350 C2349 1.287 . S
C2350 C2351 1.524 . S
C2350 H2369 0.913 . S
C2351 H2327 0.950 . S
C2351 C2350 1.524 . S
C2351 C2352 1.415 . S
C2352 H2328 0.950 . S
C2352 C2347 1.363 . S
C2352 C2351 1.415 . S
C2353 H2329 0.951 . S
C2353 C2354 1.366 . S
C2353 C2355 1.388 . S
C2354 C2353 1.366 . S
C2354 C2358 1.385 . S
C2355 H2330 0.951 . S
C2355 C2353 1.388 . S
C2355 C2356 1.366 . S
C2356 C2355 1.366 . S
C2356 C2357 1.414 . S
C2356 C2359 1.499 . S
C2357 H2331 0.950 . S
C2357 C2356 1.414 . S
C2357 C2358 1.374 . S
C2358 H2332 0.950 . S
C2358 C2354 1.385 . S
C2358 C2357 1.374 . S
C2359 C2356 1.499 . S
C2359 C2360 1.373 . S
C2359 C2361 1.389 . S
C2360 H2333 0.950 . S
C2360 C2346 1.377 . S
C2360 C2359 1.373 . S
C2361 C2345 1.377 . S
C2361 C2359 1.389 . S
C2361 C2362 1.524 . S
C2362 C2361 1.524 . S
C2362 C2363 1.397 . S
C2362 C2367 1.363 . S
C2363 H2334 0.950 . S
C2363 C2362 1.397 . S
C2363 C2364 1.334 . S
C2364 H2335 0.950 . S
C2364 C2363 1.334 . S
C2364 C2365 1.287 . S
C2365 C2364 1.287 . S
C2365 C2366 1.524 . S
C2365 H2368 0.999 . S
C2366 H2336 0.950 . S
C2366 C2365 1.524 . S
C2366 C2367 1.415 . S
C2367 H2337 0.950 . S
C2367 C2362 1.363 . S
C2367 C2366 1.415 . S
H2368 C2365 0.999 . S
H2369 C2350 0.913 . S
H2370 C2388 0.951 . S
H2371 C2390 0.951 . S
H2372 C2392 0.950 . S
H2373 C2393 0.950 . S
H2374 C2395 0.950 . S
H2375 C2398 0.950 . S
H2376 C2399 0.950 . S
H2377 C2401 0.950 . S
H2378 C2402 0.950 . S
H2379 C2403 0.951 . S
H2380 C2405 0.951 . S
H2381 C2407 0.950 . S
H2382 C2408 0.950 . S
H2383 C2410 0.950 . S
H2384 C2413 0.950 . S
H2385 C2414 0.950 . S
H2386 C2416 0.950 . S
H2387 C2417 0.950 . S
C2388 H2370 0.951 . S
C2388 C2389 1.366 . S
C2388 C2390 1.388 . S
C2389 C2388 1.366 . S
C2389 C2393 1.385 . S
C2390 H2371 0.951 . S
C2390 C2388 1.388 . S
C2390 C2391 1.366 . S
C2391 C2390 1.366 . S
C2391 C2392 1.414 . S
C2391 C2394 1.499 . S
C2392 H2372 0.950 . S
C2392 C2391 1.414 . S
C2392 C2393 1.374 . S
C2393 H2373 0.950 . S
C2393 C2389 1.385 . S
C2393 C2392 1.374 . S
C2394 C2391 1.499 . S
C2394 C2395 1.373 . S
C2394 C2396 1.389 . S
C2395 H2374 0.950 . S
C2395 C2394 1.373 . S
C2395 C2411 1.377 . S
C2396 C2394 1.389 . S
C2396 C2397 1.524 . S
C2396 C2410 1.377 . S
C2397 C2396 1.524 . S
C2397 C2398 1.397 . S
C2397 C2402 1.363 . S
C2398 H2375 0.950 . S
C2398 C2397 1.397 . S
C2398 C2399 1.334 . S
C2399 H2376 0.950 . S
C2399 C2398 1.334 . S
C2399 C2400 1.287 1_554 S
C2400 C2399 1.287 1_556 S
C2400 C2401 1.524 . S
C2400 H2419 0.913 . S
C2401 H2377 0.950 . S
C2401 C2400 1.524 . S
C2401 C2402 1.415 1_556 S
C2402 H2378 0.950 . S
C2402 C2397 1.363 . S
C2402 C2401 1.415 1_554 S
C2403 H2379 0.951 . S
C2403 C2404 1.366 . S
C2403 C2405 1.388 . S
C2404 C2403 1.366 . S
C2404 C2408 1.385 . S
C2405 H2380 0.951 . S
C2405 C2403 1.388 . S
C2405 C2406 1.366 . S
C2406 C2405 1.366 . S
C2406 C2407 1.414 . S
C2406 C2409 1.499 . S
C2407 H2381 0.950 . S
C2407 C2406 1.414 . S
C2407 C2408 1.374 . S
C2408 H2382 0.950 . S
C2408 C2404 1.385 . S
C2408 C2407 1.374 . S
C2409 C2406 1.499 . S
C2409 C2410 1.373 . S
C2409 C2411 1.389 . S
C2410 H2383 0.950 . S
C2410 C2396 1.377 . S
C2410 C2409 1.373 . S
C2411 C2395 1.377 . S
C2411 C2409 1.389 . S
C2411 C2412 1.524 . S
C2412 C2411 1.524 . S
C2412 C2413 1.397 . S
C2412 C2417 1.363 . S
C2413 H2384 0.950 . S
C2413 C2412 1.397 . S
C2413 C2414 1.334 . S
C2414 H2385 0.950 . S
C2414 C2413 1.334 . S
C2414 C2415 1.287 . S
C2415 C2414 1.287 . S
C2415 C2416 1.524 . S
C2415 H2418 0.999 . S
C2416 H2386 0.950 . S
C2416 C2415 1.524 . S
C2416 C2417 1.415 . S
C2417 H2387 0.950 . S
C2417 C2412 1.363 . S
C2417 C2416 1.415 . S
H2418 C2415 0.999 . S
H2419 C2400 0.913 . S
H2420 C2438 0.951 . S
H2421 C2440 0.951 . S
H2422 C2442 0.950 . S
H2423 C2443 0.950 . S
H2424 C2445 0.950 . S
H2425 C2448 0.950 . S
H2426 C2449 0.950 . S
H2427 C2451 0.950 . S
H2428 C2452 0.950 . S
H2429 C2453 0.951 . S
H2430 C2455 0.951 . S
H2431 C2457 0.950 . S
H2432 C2458 0.950 . S
H2433 C2460 0.950 . S
H2434 C2463 0.950 . S
H2435 C2464 0.950 . S
H2436 C2466 0.950 . S
H2437 C2467 0.950 . S
C2438 H2420 0.951 . S
C2438 C2439 1.366 . S
C2438 C2440 1.388 . S
C2439 C2438 1.366 . S
C2439 C2443 1.385 . S
C2440 H2421 0.951 . S
C2440 C2438 1.388 . S
C2440 C2441 1.366 . S
C2441 C2440 1.366 . S
C2441 C2442 1.414 . S
C2441 C2444 1.499 . S
C2442 H2422 0.950 . S
C2442 C2441 1.414 . S
C2442 C2443 1.374 . S
C2443 H2423 0.950 . S
C2443 C2439 1.385 . S
C2443 C2442 1.374 . S
C2444 C2441 1.499 . S
C2444 C2445 1.373 . S
C2444 C2446 1.389 . S
C2445 H2424 0.950 . S
C2445 C2444 1.373 . S
C2445 C2461 1.377 . S
C2446 C2444 1.389 . S
C2446 C2447 1.524 . S
C2446 C2460 1.377 . S
C2447 C2446 1.524 . S
C2447 C2448 1.397 . S
C2447 C2452 1.363 . S
C2448 H2425 0.950 . S
C2448 C2447 1.397 . S
C2448 C2449 1.334 . S
C2449 H2426 0.950 . S
C2449 C2448 1.334 . S
C2449 C2450 1.287 . S
C2450 C2449 1.287 . S
C2450 C2451 1.524 . S
C2450 H2469 0.913 . S
C2451 H2427 0.950 . S
C2451 C2450 1.524 . S
C2451 C2452 1.415 . S
C2452 H2428 0.950 . S
C2452 C2447 1.363 . S
C2452 C2451 1.415 . S
C2453 H2429 0.951 . S
C2453 C2454 1.366 . S
C2453 C2455 1.388 . S
C2454 C2453 1.366 . S
C2454 C2458 1.385 . S
C2455 H2430 0.951 . S
C2455 C2453 1.388 . S
C2455 C2456 1.366 . S
C2456 C2455 1.366 . S
C2456 C2457 1.414 . S
C2456 C2459 1.499 . S
C2457 H2431 0.950 . S
C2457 C2456 1.414 . S
C2457 C2458 1.374 . S
C2458 H2432 0.950 . S
C2458 C2454 1.385 . S
C2458 C2457 1.374 . S
C2459 C2456 1.499 . S
C2459 C2460 1.373 . S
C2459 C2461 1.389 . S
C2460 H2433 0.950 . S
C2460 C2446 1.377 . S
C2460 C2459 1.373 . S
C2461 C2445 1.377 . S
C2461 C2459 1.389 . S
C2461 C2462 1.524 . S
C2462 C2461 1.524 . S
C2462 C2463 1.397 . S
C2462 C2467 1.363 . S
C2463 H2434 0.950 . S
C2463 C2462 1.397 . S
C2463 C2464 1.334 . S
C2464 H2435 0.950 . S
C2464 C2463 1.334 . S
C2464 C2465 1.287 . S
C2465 C2464 1.287 . S
C2465 C2466 1.524 . S
C2465 H2468 0.999 . S
C2466 H2436 0.950 . S
C2466 C2465 1.524 . S
C2466 C2467 1.415 . S
C2467 H2437 0.950 . S
C2467 C2462 1.363 . S
C2467 C2466 1.415 . S
H2468 C2465 0.999 . S
H2469 C2450 0.913 . S
H2470 C2488 0.951 . S
H2471 C2490 0.951 . S
H2472 C2492 0.950 . S
H2473 C2493 0.950 . S
H2474 C2495 0.950 . S
H2475 C2498 0.950 . S
H2476 C2499 0.950 . S
H2477 C2501 0.950 . S
H2478 C2502 0.950 . S
H2479 C2503 0.951 . S
H2480 C2505 0.951 . S
H2481 C2507 0.950 . S
H2482 C2508 0.950 . S
H2483 C2510 0.950 . S
H2484 C2513 0.950 . S
H2485 C2514 0.950 . S
H2486 C2516 0.950 . S
H2487 C2517 0.950 . S
C2488 H2470 0.951 . S
C2488 C2489 1.366 . S
C2488 C2490 1.388 . S
C2489 C2488 1.366 . S
C2489 C2493 1.385 . S
C2490 H2471 0.951 . S
C2490 C2488 1.388 . S
C2490 C2491 1.366 . S
C2491 C2490 1.366 . S
C2491 C2492 1.414 . S
C2491 C2494 1.499 . S
C2492 H2472 0.950 . S
C2492 C2491 1.414 . S
C2492 C2493 1.374 . S
C2493 H2473 0.950 . S
C2493 C2489 1.385 . S
C2493 C2492 1.374 . S
C2494 C2491 1.499 . S
C2494 C2495 1.373 . S
C2494 C2496 1.389 . S
C2495 H2474 0.950 . S
C2495 C2494 1.373 . S
C2495 C2511 1.377 . S
C2496 C2494 1.389 . S
C2496 C2497 1.524 . S
C2496 C2510 1.377 . S
C2497 C2496 1.524 . S
C2497 C2498 1.397 . S
C2497 C2502 1.363 . S
C2498 H2475 0.950 . S
C2498 C2497 1.397 . S
C2498 C2499 1.334 . S
C2499 H2476 0.950 . S
C2499 C2498 1.334 . S
C2499 C2500 1.287 . S
C2500 C2499 1.287 . S
C2500 C2501 1.524 . S
C2500 H2519 0.913 . S
C2501 H2477 0.950 . S
C2501 C2500 1.524 . S
C2501 C2502 1.415 . S
C2502 H2478 0.950 . S
C2502 C2497 1.363 . S
C2502 C2501 1.415 . S
C2503 H2479 0.951 . S
C2503 C2504 1.366 . S
C2503 C2505 1.388 . S
C2504 C2503 1.366 . S
C2504 C2508 1.385 . S
C2505 H2480 0.951 . S
C2505 C2503 1.388 . S
C2505 C2506 1.366 . S
C2506 C2505 1.366 . S
C2506 C2507 1.414 . S
C2506 C2509 1.499 . S
C2507 H2481 0.950 . S
C2507 C2506 1.414 . S
C2507 C2508 1.374 . S
C2508 H2482 0.950 . S
C2508 C2504 1.385 . S
C2508 C2507 1.374 . S
C2509 C2506 1.499 . S
C2509 C2510 1.373 . S
C2509 C2511 1.389 . S
C2510 H2483 0.950 . S
C2510 C2496 1.377 . S
C2510 C2509 1.373 . S
C2511 C2495 1.377 . S
C2511 C2509 1.389 . S
C2511 C2512 1.524 . S
C2512 C2511 1.524 . S
C2512 C2513 1.397 . S
C2512 C2517 1.363 . S
C2513 H2484 0.950 . S
C2513 C2512 1.397 . S
C2513 C2514 1.334 . S
C2514 H2485 0.950 . S
C2514 C2513 1.334 . S
C2514 C2515 1.287 . S
C2515 C2514 1.287 . S
C2515 C2516 1.524 . S
C2515 H2518 0.999 . S
C2516 H2486 0.950 . S
C2516 C2515 1.524 . S
C2516 C2517 1.415 . S
C2517 H2487 0.950 . S
C2517 C2512 1.363 . S
C2517 C2516 1.415 . S
H2518 C2515 0.999 . S
H2519 C2500 0.913 . S
H2520 C2538 0.951 . S
H2521 C2540 0.951 . S
H2522 C2542 0.950 . S
H2523 C2543 0.950 . S
H2524 C2545 0.950 . S
H2525 C2548 0.950 . S
H2526 C2549 0.950 . S
H2527 C2551 0.950 . S
H2528 C2552 0.950 . S
H2529 C2553 0.951 . S
H2530 C2555 0.951 . S
H2531 C2557 0.950 . S
H2532 C2558 0.950 . S
H2533 C2560 0.950 . S
H2534 C2563 0.950 . S
H2535 C2564 0.950 . S
H2536 C2566 0.950 . S
H2537 C2567 0.950 . S
C2538 H2520 0.951 . S
C2538 C2539 1.366 . S
C2538 C2540 1.388 . S
C2539 C2538 1.366 . S
C2539 C2543 1.385 . S
C2540 H2521 0.951 . S
C2540 C2538 1.388 . S
C2540 C2541 1.366 . S
C2541 C2540 1.366 . S
C2541 C2542 1.414 . S
C2541 C2544 1.499 . S
C2542 H2522 0.950 . S
C2542 C2541 1.414 . S
C2542 C2543 1.374 . S
C2543 H2523 0.950 . S
C2543 C2539 1.385 . S
C2543 C2542 1.374 . S
C2544 C2541 1.499 . S
C2544 C2545 1.373 . S
C2544 C2546 1.389 . S
C2545 H2524 0.950 . S
C2545 C2544 1.373 . S
C2545 C2561 1.377 . S
C2546 C2544 1.389 . S
C2546 C2547 1.524 . S
C2546 C2560 1.377 . S
C2547 C2546 1.524 . S
C2547 C2548 1.397 . S
C2547 C2552 1.363 . S
C2548 H2525 0.950 . S
C2548 C2547 1.397 . S
C2548 C2549 1.334 . S
C2549 H2526 0.950 . S
C2549 C2548 1.334 . S
C2549 C2550 1.287 . S
C2550 C2549 1.287 . S
C2550 C2551 1.524 . S
C2550 H2569 0.913 . S
C2551 H2527 0.950 . S
C2551 C2550 1.524 . S
C2551 C2552 1.415 . S
C2552 H2528 0.950 . S
C2552 C2547 1.363 . S
C2552 C2551 1.415 . S
C2553 H2529 0.951 . S
C2553 C2554 1.366 . S
C2553 C2555 1.388 . S
C2554 C2553 1.366 . S
C2554 C2558 1.385 . S
C2555 H2530 0.951 . S
C2555 C2553 1.388 . S
C2555 C2556 1.366 . S
C2556 C2555 1.366 . S
C2556 C2557 1.414 . S
C2556 C2559 1.499 . S
C2557 H2531 0.950 . S
C2557 C2556 1.414 . S
C2557 C2558 1.374 . S
C2558 H2532 0.950 . S
C2558 C2554 1.385 . S
C2558 C2557 1.374 . S
C2559 C2556 1.499 . S
C2559 C2560 1.373 . S
C2559 C2561 1.389 . S
C2560 H2533 0.950 . S
C2560 C2546 1.377 . S
C2560 C2559 1.373 . S
C2561 C2545 1.377 . S
C2561 C2559 1.389 . S
C2561 C2562 1.524 . S
C2562 C2561 1.524 . S
C2562 C2563 1.397 . S
C2562 C2567 1.363 . S
C2563 H2534 0.950 . S
C2563 C2562 1.397 . S
C2563 C2564 1.334 . S
C2564 H2535 0.950 . S
C2564 C2563 1.334 . S
C2564 C2565 1.287 . S
C2565 C2564 1.287 . S
C2565 C2566 1.524 . S
C2565 H2568 0.999 . S
C2566 H2536 0.950 . S
C2566 C2565 1.524 . S
C2566 C2567 1.415 . S
C2567 H2537 0.950 . S
C2567 C2562 1.363 . S
C2567 C2566 1.415 . S
H2568 C2565 0.999 . S
H2569 C2550 0.913 . S
H2570 C2588 0.951 . S
H2571 C2590 0.951 . S
H2572 C2592 0.950 . S
H2573 C2593 0.950 . S
H2574 C2595 0.950 . S
H2575 C2598 0.950 . S
H2576 C2599 0.950 . S
H2577 C2601 0.950 . S
H2578 C2602 0.950 . S
H2579 C2603 0.951 . S
H2580 C2605 0.951 . S
H2581 C2607 0.950 . S
H2582 C2608 0.950 . S
H2583 C2610 0.950 . S
H2584 C2613 0.950 . S
H2585 C2614 0.950 . S
H2586 C2616 0.950 . S
H2587 C2617 0.950 . S
C2588 H2570 0.951 . S
C2588 C2589 1.366 . S
C2588 C2590 1.388 . S
C2589 C2588 1.366 . S
C2589 C2593 1.385 . S
C2590 H2571 0.951 . S
C2590 C2588 1.388 . S
C2590 C2591 1.366 . S
C2591 C2590 1.366 . S
C2591 C2592 1.414 . S
C2591 C2594 1.499 . S
C2592 H2572 0.950 . S
C2592 C2591 1.414 . S
C2592 C2593 1.374 . S
C2593 H2573 0.950 . S
C2593 C2589 1.385 . S
C2593 C2592 1.374 . S
C2594 C2591 1.499 . S
C2594 C2595 1.373 . S
C2594 C2596 1.389 . S
C2595 H2574 0.950 . S
C2595 C2594 1.373 . S
C2595 C2611 1.377 . S
C2596 C2594 1.389 . S
C2596 C2597 1.524 . S
C2596 C2610 1.377 . S
C2597 C2596 1.524 . S
C2597 C2598 1.397 . S
C2597 C2602 1.363 . S
C2598 H2575 0.950 . S
C2598 C2597 1.397 . S
C2598 C2599 1.334 . S
C2599 H2576 0.950 . S
C2599 C2598 1.334 . S
C2599 C2600 1.287 . S
C2600 C2599 1.287 . S
C2600 C2601 1.524 . S
C2600 H2619 0.913 . S
C2601 H2577 0.950 . S
C2601 C2600 1.524 . S
C2601 C2602 1.415 . S
C2602 H2578 0.950 . S
C2602 C2597 1.363 . S
C2602 C2601 1.415 . S
C2603 H2579 0.951 . S
C2603 C2604 1.366 . S
C2603 C2605 1.388 . S
C2604 C2603 1.366 . S
C2604 C2608 1.385 . S
C2605 H2580 0.951 . S
C2605 C2603 1.388 . S
C2605 C2606 1.366 . S
C2606 C2605 1.366 . S
C2606 C2607 1.414 . S
C2606 C2609 1.499 . S
C2607 H2581 0.950 . S
C2607 C2606 1.414 . S
C2607 C2608 1.374 . S
C2608 H2582 0.950 . S
C2608 C2604 1.385 . S
C2608 C2607 1.374 . S
C2609 C2606 1.499 . S
C2609 C2610 1.373 . S
C2609 C2611 1.389 . S
C2610 H2583 0.950 . S
C2610 C2596 1.377 . S
C2610 C2609 1.373 . S
C2611 C2595 1.377 . S
C2611 C2609 1.389 . S
C2611 C2612 1.524 . S
C2612 C2611 1.524 . S
C2612 C2613 1.397 . S
C2612 C2617 1.363 . S
C2613 H2584 0.950 . S
C2613 C2612 1.397 . S
C2613 C2614 1.334 . S
C2614 H2585 0.950 . S
C2614 C2613 1.334 . S
C2614 C2615 1.287 . S
C2615 C2614 1.287 . S
C2615 C2616 1.524 . S
C2615 H2618 0.999 . S
C2616 H2586 0.950 . S
C2616 C2615 1.524 . S
C2616 C2617 1.415 . S
C2617 H2587 0.950 . S
C2617 C2612 1.363 . S
C2617 C2616 1.415 . S
H2618 C2615 0.999 . S
H2619 C2600 0.913 . S
H2620 C2638 0.951 . S
H2621 C2640 0.951 . S
H2622 C2642 0.950 . S
H2623 C2643 0.950 . S
H2624 C2645 0.950 . S
H2625 C2648 0.950 . S
H2626 C2649 0.950 . S
H2627 C2651 0.950 . S
H2628 C2652 0.950 . S
H2629 C2653 0.951 . S
H2630 C2655 0.951 . S
H2631 C2657 0.950 . S
H2632 C2658 0.950 . S
H2633 C2660 0.950 . S
H2634 C2663 0.950 . S
H2635 C2664 0.950 . S
H2636 C2666 0.950 . S
H2637 C2667 0.950 . S
C2638 H2620 0.951 . S
C2638 C2639 1.366 . S
C2638 C2640 1.388 . S
C2639 C2638 1.366 . S
C2639 C2643 1.385 . S
C2640 H2621 0.951 . S
C2640 C2638 1.388 . S
C2640 C2641 1.366 . S
C2641 C2640 1.366 . S
C2641 C2642 1.414 . S
C2641 C2644 1.499 . S
C2642 H2622 0.950 . S
C2642 C2641 1.414 . S
C2642 C2643 1.374 . S
C2643 H2623 0.950 . S
C2643 C2639 1.385 . S
C2643 C2642 1.374 . S
C2644 C2641 1.499 . S
C2644 C2645 1.373 . S
C2644 C2646 1.389 . S
C2645 H2624 0.950 . S
C2645 C2644 1.373 . S
C2645 C2661 1.377 . S
C2646 C2644 1.389 . S
C2646 C2647 1.524 . S
C2646 C2660 1.377 . S
C2647 C2646 1.524 . S
C2647 C2648 1.397 . S
C2647 C2652 1.363 . S
C2648 H2625 0.950 . S
C2648 C2647 1.397 . S
C2648 C2649 1.334 . S
C2649 H2626 0.950 . S
C2649 C2648 1.334 . S
C2649 C2650 1.287 . S
C2650 C2649 1.287 . S
C2650 C2651 1.524 . S
C2650 H2669 0.913 . S
C2651 H2627 0.950 . S
C2651 C2650 1.524 . S
C2651 C2652 1.415 . S
C2652 H2628 0.950 . S
C2652 C2647 1.363 . S
C2652 C2651 1.415 . S
C2653 H2629 0.951 . S
C2653 C2654 1.366 . S
C2653 C2655 1.388 . S
C2654 C2653 1.366 . S
C2654 C2658 1.385 . S
C2655 H2630 0.951 . S
C2655 C2653 1.388 . S
C2655 C2656 1.366 . S
C2656 C2655 1.366 . S
C2656 C2657 1.414 . S
C2656 C2659 1.499 . S
C2657 H2631 0.950 . S
C2657 C2656 1.414 . S
C2657 C2658 1.374 . S
C2658 H2632 0.950 . S
C2658 C2654 1.385 . S
C2658 C2657 1.374 . S
C2659 C2656 1.499 . S
C2659 C2660 1.373 . S
C2659 C2661 1.389 . S
C2660 H2633 0.950 . S
C2660 C2646 1.377 . S
C2660 C2659 1.373 . S
C2661 C2645 1.377 . S
C2661 C2659 1.389 . S
C2661 C2662 1.524 . S
C2662 C2661 1.524 . S
C2662 C2663 1.397 . S
C2662 C2667 1.363 . S
C2663 H2634 0.950 . S
C2663 C2662 1.397 . S
C2663 C2664 1.334 . S
C2664 H2635 0.950 . S
C2664 C2663 1.334 . S
C2664 C2665 1.287 . S
C2665 C2664 1.287 . S
C2665 C2666 1.524 . S
C2665 H2668 0.999 . S
C2666 H2636 0.950 . S
C2666 C2665 1.524 . S
C2666 C2667 1.415 . S
C2667 H2637 0.950 . S
C2667 C2662 1.363 . S
C2667 C2666 1.415 . S
H2668 C2665 0.999 . S
H2669 C2650 0.913 . S
H2670 C2688 0.951 . S
H2671 C2690 0.951 . S
H2672 C2692 0.950 . S
H2673 C2693 0.950 . S
H2674 C2695 0.950 . S
H2675 C2698 0.950 . S
H2676 C2699 0.950 . S
H2677 C2701 0.950 . S
H2678 C2702 0.950 . S
H2679 C2703 0.951 . S
H2680 C2705 0.951 . S
H2681 C2707 0.950 . S
H2682 C2708 0.950 . S
H2683 C2710 0.950 . S
H2684 C2713 0.950 . S
H2685 C2714 0.950 . S
H2686 C2716 0.950 . S
H2687 C2717 0.950 . S
C2688 H2670 0.951 . S
C2688 C2689 1.366 . S
C2688 C2690 1.388 . S
C2689 C2688 1.366 . S
C2689 C2693 1.385 . S
C2690 H2671 0.951 . S
C2690 C2688 1.388 . S
C2690 C2691 1.366 . S
C2691 C2690 1.366 . S
C2691 C2692 1.414 . S
C2691 C2694 1.499 . S
C2692 H2672 0.950 . S
C2692 C2691 1.414 . S
C2692 C2693 1.374 . S
C2693 H2673 0.950 . S
C2693 C2689 1.385 . S
C2693 C2692 1.374 . S
C2694 C2691 1.499 . S
C2694 C2695 1.373 . S
C2694 C2696 1.389 . S
C2695 H2674 0.950 . S
C2695 C2694 1.373 . S
C2695 C2711 1.377 . S
C2696 C2694 1.389 . S
C2696 C2697 1.524 . S
C2696 C2710 1.377 . S
C2697 C2696 1.524 . S
C2697 C2698 1.397 . S
C2697 C2702 1.363 . S
C2698 H2675 0.950 . S
C2698 C2697 1.397 . S
C2698 C2699 1.334 . S
C2699 H2676 0.950 . S
C2699 C2698 1.334 . S
C2699 C2700 1.287 . S
C2700 C2699 1.287 . S
C2700 C2701 1.524 . S
C2700 H2719 0.913 . S
C2701 H2677 0.950 . S
C2701 C2700 1.524 . S
C2701 C2702 1.415 . S
C2702 H2678 0.950 . S
C2702 C2697 1.363 . S
C2702 C2701 1.415 . S
C2703 H2679 0.951 . S
C2703 C2704 1.366 . S
C2703 C2705 1.388 . S
C2704 C2703 1.366 . S
C2704 C2708 1.385 . S
C2705 H2680 0.951 . S
C2705 C2703 1.388 . S
C2705 C2706 1.366 . S
C2706 C2705 1.366 . S
C2706 C2707 1.414 . S
C2706 C2709 1.499 . S
C2707 H2681 0.950 . S
C2707 C2706 1.414 . S
C2707 C2708 1.374 . S
C2708 H2682 0.950 . S
C2708 C2704 1.385 . S
C2708 C2707 1.374 . S
C2709 C2706 1.499 . S
C2709 C2710 1.373 . S
C2709 C2711 1.389 . S
C2710 H2683 0.950 . S
C2710 C2696 1.377 . S
C2710 C2709 1.373 . S
C2711 C2695 1.377 . S
C2711 C2709 1.389 . S
C2711 C2712 1.524 . S
C2712 C2711 1.524 . S
C2712 C2713 1.397 . S
C2712 C2717 1.363 . S
C2713 H2684 0.950 . S
C2713 C2712 1.397 . S
C2713 C2714 1.334 . S
C2714 H2685 0.950 . S
C2714 C2713 1.334 . S
C2714 C2715 1.287 . S
C2715 C2714 1.287 . S
C2715 C2716 1.524 . S
C2715 H2718 0.999 . S
C2716 H2686 0.950 . S
C2716 C2715 1.524 . S
C2716 C2717 1.415 . S
C2717 H2687 0.950 . S
C2717 C2712 1.363 . S
C2717 C2716 1.415 . S
H2718 C2715 0.999 . S
H2719 C2700 0.913 . S
H2720 C2738 0.951 . S
H2721 C2740 0.951 . S
H2722 C2742 0.950 . S
H2723 C2743 0.950 . S
H2724 C2745 0.950 . S
H2725 C2748 0.950 . S
H2726 C2749 0.950 . S
H2727 C2751 0.950 . S
H2728 C2752 0.950 . S
H2729 C2753 0.951 . S
H2730 C2755 0.951 . S
H2731 C2757 0.950 . S
H2732 C2758 0.950 . S
H2733 C2760 0.950 . S
H2734 C2763 0.950 . S
H2735 C2764 0.950 . S
H2736 C2766 0.950 . S
H2737 C2767 0.950 . S
C2738 H2720 0.951 . S
C2738 C2739 1.366 . S
C2738 C2740 1.388 . S
C2739 C2738 1.366 . S
C2739 C2743 1.385 . S
C2740 H2721 0.951 . S
C2740 C2738 1.388 . S
C2740 C2741 1.366 . S
C2741 C2740 1.366 . S
C2741 C2742 1.414 . S
C2741 C2744 1.499 . S
C2742 H2722 0.950 . S
C2742 C2741 1.414 . S
C2742 C2743 1.374 . S
C2743 H2723 0.950 . S
C2743 C2739 1.385 . S
C2743 C2742 1.374 . S
C2744 C2741 1.499 . S
C2744 C2745 1.373 . S
C2744 C2746 1.389 . S
C2745 H2724 0.950 . S
C2745 C2744 1.373 . S
C2745 C2761 1.377 . S
C2746 C2744 1.389 . S
C2746 C2747 1.524 . S
C2746 C2760 1.377 . S
C2747 C2746 1.524 . S
C2747 C2748 1.397 . S
C2747 C2752 1.363 . S
C2748 H2725 0.950 . S
C2748 C2747 1.397 . S
C2748 C2749 1.334 . S
C2749 H2726 0.950 . S
C2749 C2748 1.334 . S
C2749 C2750 1.287 . S
C2750 C2749 1.287 . S
C2750 C2751 1.524 . S
C2750 H2769 0.913 . S
C2751 H2727 0.950 . S
C2751 C2750 1.524 . S
C2751 C2752 1.415 . S
C2752 H2728 0.950 . S
C2752 C2747 1.363 . S
C2752 C2751 1.415 . S
C2753 H2729 0.951 . S
C2753 C2754 1.366 . S
C2753 C2755 1.388 . S
C2754 C2753 1.366 . S
C2754 C2758 1.385 . S
C2755 H2730 0.951 . S
C2755 C2753 1.388 . S
C2755 C2756 1.366 . S
C2756 C2755 1.366 . S
C2756 C2757 1.414 . S
C2756 C2759 1.499 . S
C2757 H2731 0.950 . S
C2757 C2756 1.414 . S
C2757 C2758 1.374 . S
C2758 H2732 0.950 . S
C2758 C2754 1.385 . S
C2758 C2757 1.374 . S
C2759 C2756 1.499 . S
C2759 C2760 1.373 . S
C2759 C2761 1.389 . S
C2760 H2733 0.950 . S
C2760 C2746 1.377 . S
C2760 C2759 1.373 . S
C2761 C2745 1.377 . S
C2761 C2759 1.389 . S
C2761 C2762 1.524 . S
C2762 C2761 1.524 . S
C2762 C2763 1.397 . S
C2762 C2767 1.363 . S
C2763 H2734 0.950 . S
C2763 C2762 1.397 . S
C2763 C2764 1.334 . S
C2764 H2735 0.950 . S
C2764 C2763 1.334 . S
C2764 C2765 1.287 . S
C2765 C2764 1.287 . S
C2765 C2766 1.524 . S
C2765 H2768 0.999 . S
C2766 H2736 0.950 . S
C2766 C2765 1.524 . S
C2766 C2767 1.415 . S
C2767 H2737 0.950 . S
C2767 C2762 1.363 . S
C2767 C2766 1.415 . S
H2768 C2765 0.999 . S
H2769 C2750 0.913 . S
H2770 C2788 0.951 . S
H2771 C2790 0.951 . S
H2772 C2792 0.950 . S
H2773 C2793 0.950 . S
H2774 C2795 0.950 . S
H2775 C2798 0.950 . S
H2776 C2799 0.950 . S
H2777 C2801 0.950 . S
H2778 C2802 0.950 . S
H2779 C2803 0.951 . S
H2780 C2805 0.951 . S
H2781 C2807 0.950 . S
H2782 C2808 0.950 . S
H2783 C2810 0.950 . S
H2784 C2813 0.950 . S
H2785 C2814 0.950 . S
H2786 C2816 0.950 . S
H2787 C2817 0.950 . S
C2788 H2770 0.951 . S
C2788 C2789 1.366 . S
C2788 C2790 1.388 . S
C2789 C2788 1.366 . S
C2789 C2793 1.385 . S
C2790 H2771 0.951 . S
C2790 C2788 1.388 . S
C2790 C2791 1.366 . S
C2791 C2790 1.366 . S
C2791 C2792 1.414 . S
C2791 C2794 1.499 . S
C2792 H2772 0.950 . S
C2792 C2791 1.414 . S
C2792 C2793 1.374 . S
C2793 H2773 0.950 . S
C2793 C2789 1.385 . S
C2793 C2792 1.374 . S
C2794 C2791 1.499 . S
C2794 C2795 1.373 . S
C2794 C2796 1.389 . S
C2795 H2774 0.950 . S
C2795 C2794 1.373 . S
C2795 C2811 1.377 . S
C2796 C2794 1.389 . S
C2796 C2797 1.524 . S
C2796 C2810 1.377 . S
C2797 C2796 1.524 . S
C2797 C2798 1.397 . S
C2797 C2802 1.363 . S
C2798 H2775 0.950 . S
C2798 C2797 1.397 . S
C2798 C2799 1.334 . S
C2799 H2776 0.950 . S
C2799 C2798 1.334 . S
C2799 C2800 1.287 . S
C2800 C2799 1.287 . S
C2800 C2801 1.524 . S
C2800 H2819 0.913 . S
C2801 H2777 0.950 . S
C2801 C2800 1.524 . S
C2801 C2802 1.415 . S
C2802 H2778 0.950 . S
C2802 C2797 1.363 . S
C2802 C2801 1.415 . S
C2803 H2779 0.951 . S
C2803 C2804 1.366 . S
C2803 C2805 1.388 . S
C2804 C2803 1.366 . S
C2804 C2808 1.385 . S
C2805 H2780 0.951 . S
C2805 C2803 1.388 . S
C2805 C2806 1.366 . S
C2806 C2805 1.366 . S
C2806 C2807 1.414 . S
C2806 C2809 1.499 . S
C2807 H2781 0.950 . S
C2807 C2806 1.414 . S
C2807 C2808 1.374 . S
C2808 H2782 0.950 . S
C2808 C2804 1.385 . S
C2808 C2807 1.374 . S
C2809 C2806 1.499 . S
C2809 C2810 1.373 . S
C2809 C2811 1.389 . S
C2810 H2783 0.950 . S
C2810 C2796 1.377 . S
C2810 C2809 1.373 . S
C2811 C2795 1.377 . S
C2811 C2809 1.389 . S
C2811 C2812 1.524 . S
C2812 C2811 1.524 . S
C2812 C2813 1.397 . S
C2812 C2817 1.363 . S
C2813 H2784 0.950 . S
C2813 C2812 1.397 . S
C2813 C2814 1.334 . S
C2814 H2785 0.950 . S
C2814 C2813 1.334 . S
C2814 C2815 1.287 . S
C2815 C2814 1.287 . S
C2815 C2816 1.524 . S
C2815 H2818 0.999 . S
C2816 H2786 0.950 . S
C2816 C2815 1.524 . S
C2816 C2817 1.415 . S
C2817 H2787 0.950 . S
C2817 C2812 1.363 . S
C2817 C2816 1.415 . S
H2818 C2815 0.999 . S
H2819 C2800 0.913 . S
H2820 C2838 0.951 . S
H2821 C2840 0.951 . S
H2822 C2842 0.950 . S
H2823 C2843 0.950 . S
H2824 C2845 0.950 . S
H2825 C2848 0.950 . S
H2826 C2849 0.950 . S
H2827 C2851 0.950 . S
H2828 C2852 0.950 . S
H2829 C2853 0.951 . S
H2830 C2855 0.951 . S
H2831 C2857 0.950 . S
H2832 C2858 0.950 . S
H2833 C2860 0.950 . S
H2834 C2863 0.950 . S
H2835 C2864 0.950 . S
H2836 C2866 0.950 . S
H2837 C2867 0.950 . S
C2838 H2820 0.951 . S
C2838 C2839 1.366 . S
C2838 C2840 1.388 . S
C2839 C2838 1.366 . S
C2839 C2843 1.385 . S
C2840 H2821 0.951 . S
C2840 C2838 1.388 . S
C2840 C2841 1.366 . S
C2841 C2840 1.366 . S
C2841 C2842 1.414 . S
C2841 C2844 1.499 . S
C2842 H2822 0.950 . S
C2842 C2841 1.414 . S
C2842 C2843 1.374 . S
C2843 H2823 0.950 . S
C2843 C2839 1.385 . S
C2843 C2842 1.374 . S
C2844 C2841 1.499 . S
C2844 C2845 1.373 . S
C2844 C2846 1.389 . S
C2845 H2824 0.950 . S
C2845 C2844 1.373 . S
C2845 C2861 1.377 . S
C2846 C2844 1.389 . S
C2846 C2847 1.524 . S
C2846 C2860 1.377 . S
C2847 C2846 1.524 . S
C2847 C2848 1.397 . S
C2847 C2852 1.363 . S
C2848 H2825 0.950 . S
C2848 C2847 1.397 . S
C2848 C2849 1.334 . S
C2849 H2826 0.950 . S
C2849 C2848 1.334 . S
C2849 C2850 1.287 . S
C2850 C2849 1.287 . S
C2850 C2851 1.524 . S
C2850 H2869 0.913 . S
C2851 H2827 0.950 . S
C2851 C2850 1.524 . S
C2851 C2852 1.415 . S
C2852 H2828 0.950 . S
C2852 C2847 1.363 . S
C2852 C2851 1.415 . S
C2853 H2829 0.951 . S
C2853 C2854 1.366 . S
C2853 C2855 1.388 . S
C2854 C2853 1.366 . S
C2854 C2858 1.385 . S
C2855 H2830 0.951 . S
C2855 C2853 1.388 . S
C2855 C2856 1.366 . S
C2856 C2855 1.366 . S
C2856 C2857 1.414 . S
C2856 C2859 1.499 . S
C2857 H2831 0.950 . S
C2857 C2856 1.414 . S
C2857 C2858 1.374 . S
C2858 H2832 0.950 . S
C2858 C2854 1.385 . S
C2858 C2857 1.374 . S
C2859 C2856 1.499 . S
C2859 C2860 1.373 . S
C2859 C2861 1.389 . S
C2860 H2833 0.950 . S
C2860 C2846 1.377 . S
C2860 C2859 1.373 . S
C2861 C2845 1.377 . S
C2861 C2859 1.389 . S
C2861 C2862 1.524 . S
C2862 C2861 1.524 . S
C2862 C2863 1.397 . S
C2862 C2867 1.363 . S
C2863 H2834 0.950 . S
C2863 C2862 1.397 . S
C2863 C2864 1.334 . S
C2864 H2835 0.950 . S
C2864 C2863 1.334 . S
C2864 C2865 1.287 . S
C2865 C2864 1.287 . S
C2865 C2866 1.524 . S
C2865 H2868 0.999 . S
C2866 H2836 0.950 . S
C2866 C2865 1.524 . S
C2866 C2867 1.415 . S
C2867 H2837 0.950 . S
C2867 C2862 1.363 . S
C2867 C2866 1.415 . S
H2868 C2865 0.999 . S
H2869 C2850 0.913 . S
H2870 C2888 0.951 . S
H2871 C2890 0.951 . S
H2872 C2892 0.950 . S
H2873 C2893 0.950 . S
H2874 C2895 0.950 . S
H2875 C2898 0.950 . S
H2876 C2899 0.950 . S
H2877 C2901 0.950 . S
H2878 C2902 0.950 . S
H2879 C2903 0.951 . S
H2880 C2905 0.951 . S
H2881 C2907 0.950 . S
H2882 C2908 0.950 . S
H2883 C2910 0.950 . S
H2884 C2913 0.950 . S
H2885 C2914 0.950 . S
H2886 C2916 0.950 . S
H2887 C2917 0.950 . S
C2888 H2870 0.951 . S
C2888 C2889 1.366 . S
C2888 C2890 1.388 . S
C2889 C2888 1.366 . S
C2889 C2893 1.385 . S
C2890 H2871 0.951 . S
C2890 C2888 1.388 . S
C2890 C2891 1.366 . S
C2891 C2890 1.366 . S
C2891 C2892 1.414 . S
C2891 C2894 1.499 . S
C2892 H2872 0.950 . S
C2892 C2891 1.414 . S
C2892 C2893 1.374 . S
C2893 H2873 0.950 . S
C2893 C2889 1.385 . S
C2893 C2892 1.374 . S
C2894 C2891 1.499 . S
C2894 C2895 1.373 . S
C2894 C2896 1.389 . S
C2895 H2874 0.950 . S
C2895 C2894 1.373 . S
C2895 C2911 1.377 . S
C2896 C2894 1.389 . S
C2896 C2897 1.524 . S
C2896 C2910 1.377 . S
C2897 C2896 1.524 . S
C2897 C2898 1.397 . S
C2897 C2902 1.363 . S
C2898 H2875 0.950 . S
C2898 C2897 1.397 . S
C2898 C2899 1.334 . S
C2899 H2876 0.950 . S
C2899 C2898 1.334 . S
C2899 C2900 1.287 . S
C2900 C2899 1.287 . S
C2900 C2901 1.524 . S
C2900 H2919 0.913 . S
C2901 H2877 0.950 . S
C2901 C2900 1.524 . S
C2901 C2902 1.415 . S
C2902 H2878 0.950 . S
C2902 C2897 1.363 . S
C2902 C2901 1.415 . S
C2903 H2879 0.951 . S
C2903 C2904 1.366 . S
C2903 C2905 1.388 . S
C2904 C2903 1.366 . S
C2904 C2908 1.385 . S
C2905 H2880 0.951 . S
C2905 C2903 1.388 . S
C2905 C2906 1.366 . S
C2906 C2905 1.366 . S
C2906 C2907 1.414 . S
C2906 C2909 1.499 . S
C2907 H2881 0.950 . S
C2907 C2906 1.414 . S
C2907 C2908 1.374 . S
C2908 H2882 0.950 . S
C2908 C2904 1.385 . S
C2908 C2907 1.374 . S
C2909 C2906 1.499 . S
C2909 C2910 1.373 . S
C2909 C2911 1.389 . S
C2910 H2883 0.950 . S
C2910 C2896 1.377 . S
C2910 C2909 1.373 . S
C2911 C2895 1.377 . S
C2911 C2909 1.389 . S
C2911 C2912 1.524 . S
C2912 C2911 1.524 . S
C2912 C2913 1.397 . S
C2912 C2917 1.363 . S
C2913 H2884 0.950 . S
C2913 C2912 1.397 . S
C2913 C2914 1.334 . S
C2914 H2885 0.950 . S
C2914 C2913 1.334 . S
C2914 C2915 1.287 . S
C2915 C2914 1.287 . S
C2915 C2916 1.524 . S
C2915 H2918 0.999 . S
C2916 H2886 0.950 . S
C2916 C2915 1.524 . S
C2916 C2917 1.415 . S
C2917 H2887 0.950 . S
C2917 C2912 1.363 . S
C2917 C2916 1.415 . S
H2918 C2915 0.999 . S
H2919 C2900 0.913 . S
H2920 C2938 0.951 . S
H2921 C2940 0.951 . S
H2922 C2942 0.950 . S
H2923 C2943 0.950 . S
H2924 C2945 0.950 . S
H2925 C2948 0.950 . S
H2926 C2949 0.950 . S
H2927 C2951 0.950 . S
H2928 C2952 0.950 . S
H2929 C2953 0.951 . S
H2930 C2955 0.951 . S
H2931 C2957 0.950 . S
H2932 C2958 0.950 . S
H2933 C2960 0.950 . S
H2934 C2963 0.950 . S
H2935 C2964 0.950 . S
H2936 C2966 0.950 . S
H2937 C2967 0.950 . S
C2938 H2920 0.951 . S
C2938 C2939 1.366 . S
C2938 C2940 1.388 . S
C2939 C2938 1.366 . S
C2939 C2943 1.385 . S
C2940 H2921 0.951 . S
C2940 C2938 1.388 . S
C2940 C2941 1.366 . S
C2941 C2940 1.366 . S
C2941 C2942 1.414 . S
C2941 C2944 1.499 . S
C2942 H2922 0.950 . S
C2942 C2941 1.414 . S
C2942 C2943 1.374 . S
C2943 H2923 0.950 . S
C2943 C2939 1.385 . S
C2943 C2942 1.374 . S
C2944 C2941 1.499 . S
C2944 C2945 1.373 . S
C2944 C2946 1.389 . S
C2945 H2924 0.950 . S
C2945 C2944 1.373 . S
C2945 C2961 1.377 . S
C2946 C2944 1.389 . S
C2946 C2947 1.524 . S
C2946 C2960 1.377 . S
C2947 C2946 1.524 . S
C2947 C2948 1.397 . S
C2947 C2952 1.363 . S
C2948 H2925 0.950 . S
C2948 C2947 1.397 . S
C2948 C2949 1.334 . S
C2949 H2926 0.950 . S
C2949 C2948 1.334 . S
C2949 C2950 1.287 . S
C2950 C2949 1.287 . S
C2950 C2951 1.524 . S
C2950 H2969 0.913 . S
C2951 H2927 0.950 . S
C2951 C2950 1.524 . S
C2951 C2952 1.415 . S
C2952 H2928 0.950 . S
C2952 C2947 1.363 . S
C2952 C2951 1.415 . S
C2953 H2929 0.951 . S
C2953 C2954 1.366 . S
C2953 C2955 1.388 . S
C2954 C2953 1.366 . S
C2954 C2958 1.385 . S
C2955 H2930 0.951 . S
C2955 C2953 1.388 . S
C2955 C2956 1.366 . S
C2956 C2955 1.366 . S
C2956 C2957 1.414 . S
C2956 C2959 1.499 . S
C2957 H2931 0.950 . S
C2957 C2956 1.414 . S
C2957 C2958 1.374 . S
C2958 H2932 0.950 . S
C2958 C2954 1.385 . S
C2958 C2957 1.374 . S
C2959 C2956 1.499 . S
C2959 C2960 1.373 . S
C2959 C2961 1.389 . S
C2960 H2933 0.950 . S
C2960 C2946 1.377 . S
C2960 C2959 1.373 . S
C2961 C2945 1.377 . S
C2961 C2959 1.389 . S
C2961 C2962 1.524 . S
C2962 C2961 1.524 . S
C2962 C2963 1.397 . S
C2962 C2967 1.363 . S
C2963 H2934 0.950 . S
C2963 C2962 1.397 . S
C2963 C2964 1.334 . S
C2964 H2935 0.950 . S
C2964 C2963 1.334 . S
C2964 C2965 1.287 . S
C2965 C2964 1.287 . S
C2965 C2966 1.524 . S
C2965 H2968 0.999 . S
C2966 H2936 0.950 . S
C2966 C2965 1.524 . S
C2966 C2967 1.415 . S
C2967 H2937 0.950 . S
C2967 C2962 1.363 . S
C2967 C2966 1.415 . S
H2968 C2965 0.999 . S
H2969 C2950 0.913 . S
H2970 C2988 0.951 . S
H2971 C2990 0.951 . S
H2972 C2992 0.950 . S
H2973 C2993 0.950 . S
H2974 C2995 0.950 . S
H2975 C2998 0.950 . S
H2976 C2999 0.950 . S
H2977 C3001 0.950 . S
H2978 C3002 0.950 . S
H2979 C3003 0.951 . S
H2980 C3005 0.951 . S
H2981 C3007 0.950 . S
H2982 C3008 0.950 . S
H2983 C3010 0.950 . S
H2984 C3013 0.950 . S
H2985 C3014 0.950 . S
H2986 C3016 0.950 . S
H2987 C3017 0.950 . S
C2988 H2970 0.951 . S
C2988 C2989 1.366 . S
C2988 C2990 1.388 . S
C2989 C2988 1.366 . S
C2989 C2993 1.385 . S
C2990 H2971 0.951 . S
C2990 C2988 1.388 . S
C2990 C2991 1.366 . S
C2991 C2990 1.366 . S
C2991 C2992 1.414 . S
C2991 C2994 1.499 . S
C2992 H2972 0.950 . S
C2992 C2991 1.414 . S
C2992 C2993 1.374 . S
C2993 H2973 0.950 . S
C2993 C2989 1.385 . S
C2993 C2992 1.374 . S
C2994 C2991 1.499 . S
C2994 C2995 1.373 . S
C2994 C2996 1.389 . S
C2995 H2974 0.950 . S
C2995 C2994 1.373 . S
C2995 C3011 1.377 . S
C2996 C2994 1.389 . S
C2996 C2997 1.524 . S
C2996 C3010 1.377 . S
C2997 C2996 1.524 . S
C2997 C2998 1.397 . S
C2997 C3002 1.363 . S
C2998 H2975 0.950 . S
C2998 C2997 1.397 . S
C2998 C2999 1.334 . S
C2999 H2976 0.950 . S
C2999 C2998 1.334 . S
C2999 C3000 1.287 . S
C3000 C2999 1.287 . S
C3000 C3001 1.524 . S
C3000 H3019 0.913 . S
C3001 H2977 0.950 . S
C3001 C3000 1.524 . S
C3001 C3002 1.415 . S
C3002 H2978 0.950 . S
C3002 C2997 1.363 . S
C3002 C3001 1.415 . S
C3003 H2979 0.951 . S
C3003 C3004 1.366 . S
C3003 C3005 1.388 . S
C3004 C3003 1.366 . S
C3004 C3008 1.385 . S
C3005 H2980 0.951 . S
C3005 C3003 1.388 . S
C3005 C3006 1.366 . S
C3006 C3005 1.366 . S
C3006 C3007 1.414 . S
C3006 C3009 1.499 . S
C3007 H2981 0.950 . S
C3007 C3006 1.414 . S
C3007 C3008 1.374 . S
C3008 H2982 0.950 . S
C3008 C3004 1.385 . S
C3008 C3007 1.374 . S
C3009 C3006 1.499 . S
C3009 C3010 1.373 . S
C3009 C3011 1.389 . S
C3010 H2983 0.950 . S
C3010 C2996 1.377 . S
C3010 C3009 1.373 . S
C3011 C2995 1.377 . S
C3011 C3009 1.389 . S
C3011 C3012 1.524 . S
C3012 C3011 1.524 . S
C3012 C3013 1.397 . S
C3012 C3017 1.363 . S
C3013 H2984 0.950 . S
C3013 C3012 1.397 . S
C3013 C3014 1.334 . S
C3014 H2985 0.950 . S
C3014 C3013 1.334 . S
C3014 C3015 1.287 . S
C3015 C3014 1.287 . S
C3015 C3016 1.524 . S
C3015 H3018 0.999 . S
C3016 H2986 0.950 . S
C3016 C3015 1.524 . S
C3016 C3017 1.415 . S
C3017 H2987 0.950 . S
C3017 C3012 1.363 . S
C3017 C3016 1.415 . S
H3018 C3015 0.999 . S
H3019 C3000 0.913 . S
H3020 C3038 0.951 . S
H3021 C3040 0.951 . S
H3022 C3042 0.950 . S
H3023 C3043 0.950 . S
H3024 C3045 0.950 . S
H3025 C3048 0.950 . S
H3026 C3049 0.950 . S
H3027 C3051 0.950 . S
H3028 C3052 0.950 . S
H3029 C3053 0.951 . S
H3030 C3055 0.951 . S
H3031 C3057 0.950 . S
H3032 C3058 0.950 . S
H3033 C3060 0.950 . S
H3034 C3063 0.950 . S
H3035 C3064 0.950 . S
H3036 C3066 0.950 . S
H3037 C3067 0.950 . S
C3038 H3020 0.951 . S
C3038 C3039 1.366 . S
C3038 C3040 1.388 . S
C3039 C3038 1.366 . S
C3039 C3043 1.385 . S
C3040 H3021 0.951 . S
C3040 C3038 1.388 . S
C3040 C3041 1.366 . S
C3041 C3040 1.366 . S
C3041 C3042 1.414 . S
C3041 C3044 1.499 . S
C3042 H3022 0.950 . S
C3042 C3041 1.414 . S
C3042 C3043 1.374 . S
C3043 H3023 0.950 . S
C3043 C3039 1.385 . S
C3043 C3042 1.374 . S
C3044 C3041 1.499 . S
C3044 C3045 1.373 . S
C3044 C3046 1.389 . S
C3045 H3024 0.950 . S
C3045 C3044 1.373 . S
C3045 C3061 1.377 . S
C3046 C3044 1.389 . S
C3046 C3047 1.524 . S
C3046 C3060 1.377 . S
C3047 C3046 1.524 . S
C3047 C3048 1.397 . S
C3047 C3052 1.363 . S
C3048 H3025 0.950 . S
C3048 C3047 1.397 . S
C3048 C3049 1.334 . S
C3049 H3026 0.950 . S
C3049 C3048 1.334 . S
C3049 C3050 1.287 . S
C3050 C3049 1.287 . S
C3050 C3051 1.524 . S
C3050 H3069 0.913 . S
C3051 H3027 0.950 . S
C3051 C3050 1.524 . S
C3051 C3052 1.415 . S
C3052 H3028 0.950 . S
C3052 C3047 1.363 . S
C3052 C3051 1.415 . S
C3053 H3029 0.951 . S
C3053 C3054 1.366 . S
C3053 C3055 1.388 . S
C3054 C3053 1.366 . S
C3054 C3058 1.385 . S
C3055 H3030 0.951 . S
C3055 C3053 1.388 . S
C3055 C3056 1.366 . S
C3056 C3055 1.366 . S
C3056 C3057 1.414 . S
C3056 C3059 1.499 . S
C3057 H3031 0.950 . S
C3057 C3056 1.414 . S
C3057 C3058 1.374 . S
C3058 H3032 0.950 . S
C3058 C3054 1.385 . S
C3058 C3057 1.374 . S
C3059 C3056 1.499 . S
C3059 C3060 1.373 . S
C3059 C3061 1.389 . S
C3060 H3033 0.950 . S
C3060 C3046 1.377 . S
C3060 C3059 1.373 . S
C3061 C3045 1.377 . S
C3061 C3059 1.389 . S
C3061 C3062 1.524 . S
C3062 C3061 1.524 . S
C3062 C3063 1.397 . S
C3062 C3067 1.363 . S
C3063 H3034 0.950 . S
C3063 C3062 1.397 . S
C3063 C3064 1.334 . S
C3064 H3035 0.950 . S
C3064 C3063 1.334 . S
C3064 C3065 1.287 . S
C3065 C3064 1.287 . S
C3065 C3066 1.524 . S
C3065 H3068 0.999 . S
C3066 H3036 0.950 . S
C3066 C3065 1.524 . S
C3066 C3067 1.415 . S
C3067 H3037 0.950 . S
C3067 C3062 1.363 . S
C3067 C3066 1.415 . S
H3068 C3065 0.999 . S
H3069 C3050 0.913 . S
H3070 C3088 0.951 . S
H3071 C3090 0.951 . S
H3072 C3092 0.950 . S
H3073 C3093 0.950 . S
H3074 C3095 0.950 . S
H3075 C3098 0.950 . S
H3076 C3099 0.950 . S
H3077 C3101 0.950 . S
H3078 C3102 0.950 . S
H3079 C3103 0.951 . S
H3080 C3105 0.951 . S
H3081 C3107 0.950 . S
H3082 C3108 0.950 . S
H3083 C3110 0.950 . S
H3084 C3113 0.950 . S
H3085 C3114 0.950 . S
H3086 C3116 0.950 . S
H3087 C3117 0.950 . S
C3088 H3070 0.951 . S
C3088 C3089 1.366 . S
C3088 C3090 1.388 . S
C3089 C3088 1.366 . S
C3089 C3093 1.385 . S
C3090 H3071 0.951 . S
C3090 C3088 1.388 . S
C3090 C3091 1.366 . S
C3091 C3090 1.366 . S
C3091 C3092 1.414 . S
C3091 C3094 1.499 . S
C3092 H3072 0.950 . S
C3092 C3091 1.414 . S
C3092 C3093 1.374 . S
C3093 H3073 0.950 . S
C3093 C3089 1.385 . S
C3093 C3092 1.374 . S
C3094 C3091 1.499 . S
C3094 C3095 1.373 . S
C3094 C3096 1.389 . S
C3095 H3074 0.950 . S
C3095 C3094 1.373 . S
C3095 C3111 1.377 . S
C3096 C3094 1.389 . S
C3096 C3097 1.524 . S
C3096 C3110 1.377 . S
C3097 C3096 1.524 . S
C3097 C3098 1.397 . S
C3097 C3102 1.363 . S
C3098 H3075 0.950 . S
C3098 C3097 1.397 . S
C3098 C3099 1.334 . S
C3099 H3076 0.950 . S
C3099 C3098 1.334 . S
C3099 C3100 1.287 . S
C3100 C3099 1.287 . S
C3100 C3101 1.524 . S
C3100 H3119 0.913 . S
C3101 H3077 0.950 . S
C3101 C3100 1.524 . S
C3101 C3102 1.415 . S
C3102 H3078 0.950 . S
C3102 C3097 1.363 . S
C3102 C3101 1.415 . S
C3103 H3079 0.951 . S
C3103 C3104 1.366 . S
C3103 C3105 1.388 . S
C3104 C3103 1.366 . S
C3104 C3108 1.385 . S
C3105 H3080 0.951 . S
C3105 C3103 1.388 . S
C3105 C3106 1.366 . S
C3106 C3105 1.366 . S
C3106 C3107 1.414 . S
C3106 C3109 1.499 . S
C3107 H3081 0.950 . S
C3107 C3106 1.414 . S
C3107 C3108 1.374 . S
C3108 H3082 0.950 . S
C3108 C3104 1.385 . S
C3108 C3107 1.374 . S
C3109 C3106 1.499 . S
C3109 C3110 1.373 . S
C3109 C3111 1.389 . S
C3110 H3083 0.950 . S
C3110 C3096 1.377 . S
C3110 C3109 1.373 . S
C3111 C3095 1.377 . S
C3111 C3109 1.389 . S
C3111 C3112 1.524 . S
C3112 C3111 1.524 . S
C3112 C3113 1.397 . S
C3112 C3117 1.363 . S
C3113 H3084 0.950 . S
C3113 C3112 1.397 . S
C3113 C3114 1.334 . S
C3114 H3085 0.950 . S
C3114 C3113 1.334 . S
C3114 C3115 1.287 . S
C3115 C3114 1.287 . S
C3115 C3116 1.524 . S
C3115 H3118 0.999 . S
C3116 H3086 0.950 . S
C3116 C3115 1.524 . S
C3116 C3117 1.415 . S
C3117 H3087 0.950 . S
C3117 C3112 1.363 . S
C3117 C3116 1.415 . S
H3118 C3115 0.999 . S
H3119 C3100 0.913 . S
H3120 C3138 0.951 . S
H3121 C3140 0.951 . S
H3122 C3142 0.950 . S
H3123 C3143 0.950 . S
H3124 C3145 0.950 . S
H3125 C3148 0.950 . S
H3126 C3149 0.950 . S
H3127 C3151 0.950 . S
H3128 C3152 0.950 . S
H3129 C3153 0.951 . S
H3130 C3155 0.951 . S
H3131 C3157 0.950 . S
H3132 C3158 0.950 . S
H3133 C3160 0.950 . S
H3134 C3163 0.950 . S
H3135 C3164 0.950 . S
H3136 C3166 0.950 . S
H3137 C3167 0.950 . S
C3138 H3120 0.951 . S
C3138 C3139 1.366 . S
C3138 C3140 1.388 . S
C3139 C3138 1.366 . S
C3139 C3143 1.385 . S
C3140 H3121 0.951 . S
C3140 C3138 1.388 . S
C3140 C3141 1.366 . S
C3141 C3140 1.366 . S
C3141 C3142 1.414 . S
C3141 C3144 1.499 . S
C3142 H3122 0.950 . S
C3142 C3141 1.414 . S
C3142 C3143 1.374 . S
C3143 H3123 0.950 . S
C3143 C3139 1.385 . S
C3143 C3142 1.374 . S
C3144 C3141 1.499 . S
C3144 C3145 1.373 . S
C3144 C3146 1.389 . S
C3145 H3124 0.950 . S
C3145 C3144 1.373 . S
C3145 C3161 1.377 . S
C3146 C3144 1.389 . S
C3146 C3147 1.524 . S
C3146 C3160 1.377 . S
C3147 C3146 1.524 . S
C3147 C3148 1.397 . S
C3147 C3152 1.363 . S
C3148 H3125 0.950 . S
C3148 C3147 1.397 . S
C3148 C3149 1.334 . S
C3149 H3126 0.950 . S
C3149 C3148 1.334 . S
C3149 C3150 1.287 . S
C3150 C3149 1.287 . S
C3150 C3151 1.524 . S
C3150 H3169 0.913 . S
C3151 H3127 0.950 . S
C3151 C3150 1.524 . S
C3151 C3152 1.415 . S
C3152 H3128 0.950 . S
C3152 C3147 1.363 . S
C3152 C3151 1.415 . S
C3153 H3129 0.951 . S
C3153 C3154 1.366 . S
C3153 C3155 1.388 . S
C3154 C3153 1.366 . S
C3154 C3158 1.385 . S
C3155 H3130 0.951 . S
C3155 C3153 1.388 . S
C3155 C3156 1.366 . S
C3156 C3155 1.366 . S
C3156 C3157 1.414 . S
C3156 C3159 1.499 . S
C3157 H3131 0.950 . S
C3157 C3156 1.414 . S
C3157 C3158 1.374 . S
C3158 H3132 0.950 . S
C3158 C3154 1.385 . S
C3158 C3157 1.374 . S
C3159 C3156 1.499 . S
C3159 C3160 1.373 . S
C3159 C3161 1.389 . S
C3160 H3133 0.950 . S
C3160 C3146 1.377 . S
C3160 C3159 1.373 . S
C3161 C3145 1.377 . S
C3161 C3159 1.389 . S
C3161 C3162 1.524 . S
C3162 C3161 1.524 . S
C3162 C3163 1.397 . S
C3162 C3167 1.363 . S
C3163 H3134 0.950 . S
C3163 C3162 1.397 . S
C3163 C3164 1.334 . S
C3164 H3135 0.950 . S
C3164 C3163 1.334 . S
C3164 C3165 1.287 . S
C3165 C3164 1.287 . S
C3165 C3166 1.524 . S
C3165 H3168 0.999 . S
C3166 H3136 0.950 . S
C3166 C3165 1.524 . S
C3166 C3167 1.415 . S
C3167 H3137 0.950 . S
C3167 C3162 1.363 . S
C3167 C3166 1.415 . S
H3168 C3165 0.999 . S
H3169 C3150 0.913 . S
H3170 C3188 0.951 . S
H3171 C3190 0.951 . S
H3172 C3192 0.950 . S
H3173 C3193 0.950 . S
H3174 C3195 0.950 . S
H3175 C3198 0.950 . S
H3176 C3199 0.950 . S
H3177 C3201 0.950 . S
H3178 C3202 0.950 . S
H3179 C3203 0.951 . S
H3180 C3205 0.951 . S
H3181 C3207 0.950 . S
H3182 C3208 0.950 . S
H3183 C3210 0.950 . S
H3184 C3213 0.950 . S
H3185 C3214 0.950 . S
H3186 C3216 0.950 . S
H3187 C3217 0.950 . S
C3188 H3170 0.951 . S
C3188 C3189 1.366 . S
C3188 C3190 1.388 . S
C3189 C3188 1.366 . S
C3189 C3193 1.385 . S
C3190 H3171 0.951 . S
C3190 C3188 1.388 . S
C3190 C3191 1.366 . S
C3191 C3190 1.366 . S
C3191 C3192 1.414 . S
C3191 C3194 1.499 . S
C3192 H3172 0.950 . S
C3192 C3191 1.414 . S
C3192 C3193 1.374 . S
C3193 H3173 0.950 . S
C3193 C3189 1.385 . S
C3193 C3192 1.374 . S
C3194 C3191 1.499 . S
C3194 C3195 1.373 . S
C3194 C3196 1.389 . S
C3195 H3174 0.950 . S
C3195 C3194 1.373 . S
C3195 C3211 1.377 . S
C3196 C3194 1.389 . S
C3196 C3197 1.524 . S
C3196 C3210 1.377 . S
C3197 C3196 1.524 . S
C3197 C3198 1.397 . S
C3197 C3202 1.363 . S
C3198 H3175 0.950 . S
C3198 C3197 1.397 . S
C3198 C3199 1.334 . S
C3199 H3176 0.950 . S
C3199 C3198 1.334 . S
C3199 C3200 1.287 . S
C3200 C3199 1.287 . S
C3200 C3201 1.524 . S
C3200 H3219 0.913 . S
C3201 H3177 0.950 . S
C3201 C3200 1.524 . S
C3201 C3202 1.415 . S
C3202 H3178 0.950 . S
C3202 C3197 1.363 . S
C3202 C3201 1.415 . S
C3203 H3179 0.951 . S
C3203 C3204 1.366 . S
C3203 C3205 1.388 . S
C3204 C3203 1.366 . S
C3204 C3208 1.385 . S
C3205 H3180 0.951 . S
C3205 C3203 1.388 . S
C3205 C3206 1.366 . S
C3206 C3205 1.366 . S
C3206 C3207 1.414 . S
C3206 C3209 1.499 . S
C3207 H3181 0.950 . S
C3207 C3206 1.414 . S
C3207 C3208 1.374 . S
C3208 H3182 0.950 . S
C3208 C3204 1.385 . S
C3208 C3207 1.374 . S
C3209 C3206 1.499 . S
C3209 C3210 1.373 . S
C3209 C3211 1.389 . S
C3210 H3183 0.950 . S
C3210 C3196 1.377 . S
C3210 C3209 1.373 . S
C3211 C3195 1.377 . S
C3211 C3209 1.389 . S
C3211 C3212 1.524 . S
C3212 C3211 1.524 . S
C3212 C3213 1.397 . S
C3212 C3217 1.363 . S
C3213 H3184 0.950 . S
C3213 C3212 1.397 . S
C3213 C3214 1.334 . S
C3214 H3185 0.950 . S
C3214 C3213 1.334 . S
C3214 C3215 1.287 . S
C3215 C3214 1.287 . S
C3215 C3216 1.524 . S
C3215 H3218 0.999 . S
C3216 H3186 0.950 . S
C3216 C3215 1.524 . S
C3216 C3217 1.415 . S
C3217 H3187 0.950 . S
C3217 C3212 1.363 . S
C3217 C3216 1.415 . S
H3218 C3215 0.999 . S
H3219 C3200 0.913 . S
H3220 C3238 0.951 . S
H3221 C3240 0.951 . S
H3222 C3242 0.950 . S
H3223 C3243 0.950 . S
H3224 C3245 0.950 . S
H3225 C3248 0.950 . S
H3226 C3249 0.950 . S
H3227 C3251 0.950 . S
H3228 C3252 0.950 . S
H3229 C3253 0.951 . S
H3230 C3255 0.951 . S
H3231 C3257 0.950 . S
H3232 C3258 0.950 . S
H3233 C3260 0.950 . S
H3234 C3263 0.950 . S
H3235 C3264 0.950 . S
H3236 C3266 0.950 . S
H3237 C3267 0.950 . S
C3238 H3220 0.951 . S
C3238 C3239 1.366 . S
C3238 C3240 1.388 . S
C3239 C3238 1.366 . S
C3239 C3243 1.385 . S
C3240 H3221 0.951 . S
C3240 C3238 1.388 . S
C3240 C3241 1.366 . S
C3241 C3240 1.366 . S
C3241 C3242 1.414 . S
C3241 C3244 1.499 . S
C3242 H3222 0.950 . S
C3242 C3241 1.414 . S
C3242 C3243 1.374 . S
C3243 H3223 0.950 . S
C3243 C3239 1.385 . S
C3243 C3242 1.374 . S
C3244 C3241 1.499 . S
C3244 C3245 1.373 . S
C3244 C3246 1.389 . S
C3245 H3224 0.950 . S
C3245 C3244 1.373 . S
C3245 C3261 1.377 . S
C3246 C3244 1.389 . S
C3246 C3247 1.524 . S
C3246 C3260 1.377 . S
C3247 C3246 1.524 . S
C3247 C3248 1.397 . S
C3247 C3252 1.363 . S
C3248 H3225 0.950 . S
C3248 C3247 1.397 . S
C3248 C3249 1.334 . S
C3249 H3226 0.950 . S
C3249 C3248 1.334 . S
C3249 C3250 1.287 . S
C3250 C3249 1.287 . S
C3250 C3251 1.524 . S
C3250 H3269 0.913 . S
C3251 H3227 0.950 . S
C3251 C3250 1.524 . S
C3251 C3252 1.415 . S
C3252 H3228 0.950 . S
C3252 C3247 1.363 . S
C3252 C3251 1.415 . S
C3253 H3229 0.951 . S
C3253 C3254 1.366 . S
C3253 C3255 1.388 . S
C3254 C3253 1.366 . S
C3254 C3258 1.385 . S
C3255 H3230 0.951 . S
C3255 C3253 1.388 . S
C3255 C3256 1.366 . S
C3256 C3255 1.366 . S
C3256 C3257 1.414 . S
C3256 C3259 1.499 . S
C3257 H3231 0.950 . S
C3257 C3256 1.414 . S
C3257 C3258 1.374 . S
C3258 H3232 0.950 . S
C3258 C3254 1.385 . S
C3258 C3257 1.374 . S
C3259 C3256 1.499 . S
C3259 C3260 1.373 . S
C3259 C3261 1.389 . S
C3260 H3233 0.950 . S
C3260 C3246 1.377 . S
C3260 C3259 1.373 . S
C3261 C3245 1.377 . S
C3261 C3259 1.389 . S
C3261 C3262 1.524 . S
C3262 C3261 1.524 . S
C3262 C3263 1.397 . S
C3262 C3267 1.363 . S
C3263 H3234 0.950 . S
C3263 C3262 1.397 . S
C3263 C3264 1.334 . S
C3264 H3235 0.950 . S
C3264 C3263 1.334 . S
C3264 C3265 1.287 . S
C3265 C3264 1.287 . S
C3265 C3266 1.524 . S
C3265 H3268 0.999 . S
C3266 H3236 0.950 . S
C3266 C3265 1.524 . S
C3266 C3267 1.415 . S
C3267 H3237 0.950 . S
C3267 C3262 1.363 . S
C3267 C3266 1.415 . S
H3268 C3265 0.999 . S
H3269 C3250 0.913 . S
C904 C699 1.280 . S
C889 C74 1.371 . S
C954 C700 1.730 . S
C939 C153 1.640 . S
C1004 C694 1.481 . S
C989 C231 1.492 . S
C1039 C310 0.885 . S
C1054 C693 0.351 . S
C1089 C394 1.641 . S
C1104 C696 1.729 . S
C1154 C698 1.480 . S
C1139 C494 1.492 . S
C1189 C573 0.886 . S
C1204 C697 0.350 . S
C1239 C651 1.370 . S
C1254 C695 1.281 . S
C1304 C730 2.628 . S
C1289 C56 2.631 . S
C1339 C151 1.554 . S
C1354 C761 1.442 . S
C1404 C729 1.422 . S
C1389 C237 1.330 . S
C1454 C764 1.248 . S
C1439 C326 1.222 . S
C1489 C410 1.560 . S
C1504 C727 1.571 . S
C1554 C759 2.644 . S
C1539 C476 2.654 . S
C1589 C571 1.235 . S
C1604 C732 1.151 . S
C1639 C657 1.304 . S
C1654 C766 1.388 . S
C1689 C58 1.303 . S
C1704 C762 1.387 . S
C1739 C392 1.554 . S
C1754 C765 1.445 . S
C1804 C733 1.422 . S
C1789 C478 1.333 . S
C1854 C760 1.247 . S
C1839 C567 1.227 . S
C1889 C655 2.632 . S
C1904 C726 2.629 . S
C1939 C235 2.654 . S
C1954 C763 2.643 . S
C2004 C728 1.150 . S
C1989 C308 1.233 . S
C2039 C147 1.560 . S
C2054 C731 1.568 . S
C2089 C662 1.423 . S
C2104 C798 1.338 . S
C2139 C405 1.238 . S
C2154 C799 1.269 . S
C2204 C793 1.313 . S
C2189 C483 1.319 . S
C2254 C792 0.318 . S
C2239 C562 0.673 . S
C2289 C142 1.238 . S
C2304 C795 1.268 . S
C2354 C797 1.313 . S
C2339 C242 1.314 . S
C2389 C321 0.669 . S
C2404 C796 0.318 . S
C2439 C63 1.423 . S
C2454 C794 1.337 . S
C2489 C644 2.845 . S
C2504 C832 2.755 . S
C2554 C864 1.214 . S
C2539 C403 1.281 . S
C2589 C489 1.210 . S
C2604 C825 1.363 . S
C2639 C578 1.571 . S
C2654 C859 1.572 . S
C2704 C830 1.251 . S
C2689 C158 1.239 . S
C2739 C224 2.857 . S
C2754 C861 2.770 . S
C2804 C827 1.567 . S
C2789 C319 1.643 . S
C2854 C862 1.365 . S
C2839 C69 1.247 . S
C2904 C858 1.365 . S
C2889 C646 1.248 . S
C2939 C140 1.281 . S
C2954 C860 1.213 . S
C2989 C226 1.208 . S
C3004 C829 1.363 . S
C3054 C863 1.572 . S
C3039 C315 1.571 . S
C3089 C67 2.845 . S
C3104 C828 2.755 . S
C3139 C487 2.857 . S
C3154 C865 2.769 . S
C3204 C831 1.567 . S
C3189 C560 1.643 . S
C3254 C826 1.252 . S
C3239 C399 1.239 . S
