# Generated by pormake.
# Topology the, (3,8)-cn, num edge types: 1
# Building blocks:
#     Node 0, Type 0, BuildingBlock: WUSLED_clean_sbu_0, # of connection points: 3
#     Node 1, Type 0, BuildingBlock: WUSLED_clean_sbu_0, # of connection points: 3
#     Node 2, Type 0, BuildingBlock: WUSLED_clean_sbu_0, # of connection points: 3
#     Node 3, Type 0, BuildingBlock: WUSLED_clean_sbu_0, # of connection points: 3
#     Node 4, Type 0, BuildingBlock: WUSLED_clean_sbu_0, # of connection points: 3
#     Node 5, Type 0, BuildingBlock: WUSLED_clean_sbu_0, # of connection points: 3
#     Node 6, Type 0, BuildingBlock: WUSLED_clean_sbu_0, # of connection points: 3
#     Node 7, Type 0, BuildingBlock: WUSLED_clean_sbu_0, # of connection points: 3
#     Node 8, Type 1, BuildingBlock: GIZVER_clean_sbu_0, # of connection points: 8
#     Node 9, Type 1, BuildingBlock: GIZVER_clean_sbu_0, # of connection points: 8
#     Node 10, Type 1, BuildingBlock: GIZVER_clean_sbu_0, # of connection points: 8
#     Edge 11, Type (0, 1), BuildingBlock: XIVTED_clean_linker_0, # of connection points: 2
#     Edge 12, Type (0, 1), BuildingBlock: XIVTED_clean_linker_0, # of connection points: 2
#     Edge 13, Type (0, 1), BuildingBlock: XIVTED_clean_linker_0, # of connection points: 2
#     Edge 14, Type (0, 1), BuildingBlock: XIVTED_clean_linker_0, # of connection points: 2
#     Edge 15, Type (0, 1), BuildingBlock: XIVTED_clean_linker_0, # of connection points: 2
#     Edge 16, Type (0, 1), BuildingBlock: XIVTED_clean_linker_0, # of connection points: 2
#     Edge 17, Type (0, 1), BuildingBlock: XIVTED_clean_linker_0, # of connection points: 2
#     Edge 18, Type (0, 1), BuildingBlock: XIVTED_clean_linker_0, # of connection points: 2
#     Edge 19, Type (0, 1), BuildingBlock: XIVTED_clean_linker_0, # of connection points: 2
#     Edge 20, Type (0, 1), BuildingBlock: XIVTED_clean_linker_0, # of connection points: 2
#     Edge 21, Type (0, 1), BuildingBlock: XIVTED_clean_linker_0, # of connection points: 2
#     Edge 22, Type (0, 1), BuildingBlock: XIVTED_clean_linker_0, # of connection points: 2
#     Edge 23, Type (0, 1), BuildingBlock: XIVTED_clean_linker_0, # of connection points: 2
#     Edge 24, Type (0, 1), BuildingBlock: XIVTED_clean_linker_0, # of connection points: 2
#     Edge 25, Type (0, 1), BuildingBlock: XIVTED_clean_linker_0, # of connection points: 2
#     Edge 26, Type (0, 1), BuildingBlock: XIVTED_clean_linker_0, # of connection points: 2
#     Edge 27, Type (0, 1), BuildingBlock: XIVTED_clean_linker_0, # of connection points: 2
#     Edge 28, Type (0, 1), BuildingBlock: XIVTED_clean_linker_0, # of connection points: 2
#     Edge 29, Type (0, 1), BuildingBlock: XIVTED_clean_linker_0, # of connection points: 2
#     Edge 30, Type (0, 1), BuildingBlock: XIVTED_clean_linker_0, # of connection points: 2
#     Edge 31, Type (0, 1), BuildingBlock: XIVTED_clean_linker_0, # of connection points: 2
#     Edge 32, Type (0, 1), BuildingBlock: XIVTED_clean_linker_0, # of connection points: 2
#     Edge 33, Type (0, 1), BuildingBlock: XIVTED_clean_linker_0, # of connection points: 2
#     Edge 34, Type (0, 1), BuildingBlock: XIVTED_clean_linker_0, # of connection points: 2
# Relax obj value: 0.043
# Max RMSD: 0.139
# Mean RMSD: 0.062
data_MOF--net-the--node1-WUSLED_clean_sbu_0--node2-GIZVER_clean_sbu_0--edge1-XIVTED_clean_linker_0
_symmetry_space_group_name_H-M    P1
_symmetry_Int_Tables_number       1
_symmetry_cell_setting            triclinic
loop_
_symmetry_equiv_pos_as_xyz
'x, y, z'
_cell_length_a     52.738513
_cell_length_b     49.822974
_cell_length_c     46.311193
_cell_angle_alpha  86.41373
_cell_angle_beta   94.099235
_cell_angle_gamma 101.30636
loop_
_atom_site_label
_atom_site_type_symbol
_atom_site_fract_x
_atom_site_fract_y
_atom_site_fract_z
_atom_type_partial_charge
C0 C 0.34234 0.28479 0.45419 0.0
C1 C 0.35039 0.27044 0.43249 0.0
C2 C 0.36629 0.23964 0.46908 0.0
C3 C 0.36209 0.24796 0.43987 0.0
C4 C 0.35865 0.25432 0.49081 0.0
C5 C 0.34663 0.27667 0.48338 0.0
U6 U 0.33573 0.34652 0.40457 0.0
O7 O 0.30142 0.36115 0.38525 0.0
O8 O 0.32938 0.3874 0.41391 0.0
C9 C 0.30667 0.38377 0.39952 0.0
C10 C 0.32995 0.30847 0.44652 0.0
C11 C 0.28529 0.38941 0.41524 0.0
C12 C 0.24945 0.37422 0.44624 0.0
C13 C 0.27048 0.36879 0.43242 0.0
C14 C 0.25839 0.42112 0.42651 0.0
C15 C 0.24312 0.40042 0.44329 0.0
C16 C 0.27928 0.41562 0.41256 0.0
C17 C 0.37824 0.36468 0.34095 0.0
C18 C 0.36823 0.3952 0.30059 0.0
C19 C 0.411 0.38391 0.30729 0.0
C20 C 0.40343 0.36741 0.33189 0.0
C21 C 0.39343 0.39783 0.29128 0.0
C22 C 0.36074 0.37888 0.32534 0.0
C23 C 0.37053 0.34717 0.36678 0.0
O24 O 0.34511 0.33257 0.44946 0.0
O25 O 0.31529 0.30693 0.42225 0.0
O26 O 0.34723 0.33182 0.36468 0.0
O27 O 0.37584 0.35921 0.39154 0.0
H28 H 0.34766 0.27661 0.4098 0.0
H29 H 0.36818 0.23728 0.42271 0.0
H30 H 0.36163 0.24827 0.51348 0.0
H31 H 0.34069 0.28763 0.5004 0.0
H32 H 0.23817 0.35797 0.45924 0.0
H33 H 0.27502 0.34845 0.43487 0.0
H34 H 0.25378 0.4414 0.42352 0.0
H35 H 0.29053 0.43174 0.39937 0.0
H36 H 0.35438 0.40591 0.28885 0.0
H37 H 0.43045 0.38531 0.30046 0.0
H38 H 0.41719 0.35666 0.34376 0.0
H39 H 0.34127 0.37727 0.33224 0.0
C40 C 0.65812 0.35546 0.26905 0.0
C41 C 0.67167 0.36573 0.24434 0.0
C42 C 0.63323 0.38081 0.22148 0.0
C43 C 0.65936 0.37839 0.22084 0.0
C44 C 0.62015 0.37141 0.24671 0.0
C45 C 0.63243 0.35889 0.27011 0.0
U46 U 0.70895 0.33717 0.32965 0.0
O47 O 0.70065 0.3168 0.37239 0.0
O48 O 0.71836 0.29637 0.34076 0.0
C49 C 0.70808 0.29428 0.36602 0.0
C50 C 0.66889 0.33863 0.29263 0.0
C51 C 0.69037 0.26814 0.37307 0.0
C52 C 0.64708 0.24098 0.37864 0.0
C53 C 0.66332 0.26566 0.3703 0.0
C54 C 0.68468 0.22076 0.39191 0.0
C55 C 0.65754 0.21823 0.38983 0.0
C56 C 0.70085 0.24542 0.38368 0.0
C57 C 0.77434 0.38495 0.34808 0.0
C58 C 0.80242 0.3799 0.39139 0.0
C59 C 0.81699 0.41425 0.35377 0.0
C60 C 0.7936 0.40607 0.3375 0.0
C61 C 0.82167 0.40149 0.3811 0.0
C62 C 0.77903 0.37169 0.37503 0.0
C63 C 0.74932 0.37778 0.3311 0.0
O64 O 0.68871 0.32771 0.28719 0.0
O65 O 0.67037 0.34737 0.31902 0.0
O66 O 0.72844 0.37733 0.34515 0.0
O67 O 0.74699 0.35719 0.31407 0.0
H68 H 0.69148 0.36329 0.24282 0.0
H69 H 0.67 0.38532 0.20175 0.0
H70 H 0.60021 0.37337 0.24825 0.0
H71 H 0.62151 0.35111 0.28882 0.0
H72 H 0.62634 0.24 0.37697 0.0
H73 H 0.65474 0.28291 0.36211 0.0
H74 H 0.6935 0.20363 0.39988 0.0
H75 H 0.72166 0.24683 0.38588 0.0
H76 H 0.80542 0.36934 0.41213 0.0
H77 H 0.83109 0.43115 0.34525 0.0
H78 H 0.79036 0.41662 0.31679 0.0
H79 H 0.76448 0.35523 0.38357 0.0
C80 C 0.66334 0.69774 0.27882 0.0
C81 C 0.67119 0.70537 0.25055 0.0
C82 C 0.64407 0.6638 0.23197 0.0
C83 C 0.66171 0.68859 0.22743 0.0
C84 C 0.6361 0.65633 0.26021 0.0
C85 C 0.64553 0.67309 0.28326 0.0
U86 U 0.712 0.723 0.342 0.0
O87 O 0.72667 0.76484 0.35661 0.0
O88 O 0.70546 0.73338 0.38594 0.0
C89 C 0.71584 0.75944 0.38156 0.0
C90 C 0.67257 0.71589 0.30331 0.0
C91 C 0.70103 0.77968 0.39041 0.0
C92 C 0.66217 0.79108 0.40799 0.0
C93 C 0.67518 0.77185 0.39802 0.0
C94 C 0.70036 0.82645 0.40251 0.0
C95 C 0.67459 0.81865 0.41049 0.0
C96 C 0.71341 0.80718 0.39268 0.0
C97 C 0.77131 0.68703 0.35554 0.0
C98 C 0.79775 0.67998 0.39968 0.0
C99 C 0.81094 0.6695 0.35331 0.0
C100 C 0.78929 0.67806 0.33946 0.0
C101 C 0.81511 0.66969 0.38364 0.0
C102 C 0.77593 0.68852 0.38574 0.0
C103 C 0.7471 0.69234 0.34034 0.0
O104 O 0.67174 0.70403 0.32951 0.0
O105 O 0.69376 0.73446 0.29992 0.0
O106 O 0.74834 0.71597 0.32567 0.0
O107 O 0.72582 0.68482 0.35435 0.0
H108 H 0.68462 0.72439 0.2462 0.0
H109 H 0.66838 0.69495 0.20604 0.0
H110 H 0.62213 0.63771 0.26447 0.0
H111 H 0.63862 0.66679 0.30457 0.0
H112 H 0.64249 0.78413 0.41432 0.0
H113 H 0.66507 0.7508 0.39667 0.0
H114 H 0.71047 0.84752 0.4037 0.0
H115 H 0.73335 0.81374 0.38706 0.0
H116 H 0.80037 0.68027 0.42307 0.0
H117 H 0.82415 0.66209 0.34029 0.0
H118 H 0.78613 0.67681 0.31616 0.0
H119 H 0.7623 0.69542 0.39859 0.0
C120 C 0.25731 0.6566 0.34921 0.0
C121 C 0.25487 0.65466 0.37936 0.0
C122 C 0.20848 0.63619 0.37244 0.0
C123 C 0.23073 0.64456 0.39083 0.0
C124 C 0.21093 0.63907 0.34226 0.0
C125 C 0.23504 0.64906 0.33085 0.0
U126 U 0.32451 0.70331 0.33883 0.0
O127 O 0.36224 0.69138 0.33548 0.0
O128 O 0.34546 0.7136 0.29892 0.0
C129 C 0.36434 0.70103 0.30852 0.0
C130 C 0.28289 0.66435 0.3364 0.0
C131 C 0.3727 0.68314 0.2883 0.0
C132 C 0.36405 0.64597 0.25497 0.0
C133 C 0.35515 0.66253 0.27398 0.0
C134 C 0.40796 0.67048 0.26452 0.0
C135 C 0.39064 0.64962 0.2502 0.0
C136 C 0.39907 0.687 0.28331 0.0
C137 C 0.34559 0.76941 0.38126 0.0
C138 C 0.38853 0.79173 0.39946 0.0
C139 C 0.35329 0.81663 0.39595 0.0
C140 C 0.33659 0.79365 0.38481 0.0
C141 C 0.37936 0.81577 0.40401 0.0
C142 C 0.37187 0.76884 0.38815 0.0
C143 C 0.32691 0.74459 0.37238 0.0
O144 O 0.28618 0.68599 0.31831 0.0
O145 O 0.30345 0.66288 0.3538 0.0
O146 O 0.33264 0.72088 0.38163 0.0
O147 O 0.31737 0.7447 0.34536 0.0
H148 H 0.27168 0.66028 0.39414 0.0
H149 H 0.22971 0.64243 0.41415 0.0
H150 H 0.19422 0.63334 0.32738 0.0
H151 H 0.23639 0.65035 0.30754 0.0
H152 H 0.35022 0.63 0.24446 0.0
H153 H 0.33468 0.6592 0.27758 0.0
H154 H 0.42847 0.67423 0.26104 0.0
H155 H 0.41291 0.70288 0.29401 0.0
H156 H 0.40859 0.79049 0.40499 0.0
H157 H 0.34552 0.83468 0.39933 0.0
H158 H 0.31639 0.79457 0.37971 0.0
H159 H 0.37942 0.7505 0.38544 0.0
C160 C 0.27354 0.65605 0.70843 0.0
C161 C 0.26951 0.66951 0.68144 0.0
C162 C 0.22716 0.63955 0.67387 0.0
C163 C 0.24657 0.66132 0.66432 0.0
C164 C 0.23121 0.62651 0.70121 0.0
C165 C 0.25415 0.63468 0.71825 0.0
U166 U 0.3388 0.70356 0.72713 0.0
O167 O 0.35724 0.71595 0.7698 0.0
O168 O 0.37651 0.69329 0.74173 0.0
C169 C 0.37693 0.70387 0.76711 0.0
C170 C 0.29792 0.66356 0.72641 0.0
C171 C 0.38556 0.68812 0.79296 0.0
C172 C 0.39845 0.64707 0.81605 0.0
C173 C 0.38704 0.66027 0.79232 0.0
C174 C 0.4063 0.68903 0.8417 0.0
C175 C 0.40873 0.66147 0.84083 0.0
C176 C 0.39492 0.70215 0.81806 0.0
C177 C 0.36003 0.76964 0.67994 0.0
C178 C 0.39377 0.80849 0.69322 0.0
C179 C 0.37616 0.80506 0.64357 0.0
C180 C 0.35971 0.78042 0.65126 0.0
C181 C 0.39331 0.81959 0.66447 0.0
C182 C 0.37732 0.78375 0.70087 0.0
C183 C 0.34179 0.74407 0.68748 0.0
O184 O 0.31931 0.66257 0.71392 0.0
O185 O 0.29995 0.68536 0.74163 0.0
O186 O 0.3301 0.74362 0.7117 0.0
O187 O 0.34961 0.72112 0.68379 0.0
H188 H 0.28419 0.68618 0.67353 0.0
H189 H 0.24404 0.67208 0.64358 0.0
H190 H 0.21696 0.60945 0.70915 0.0
H191 H 0.2569 0.624 0.739 0.0
H192 H 0.40012 0.6259 0.81451 0.0
H193 H 0.38008 0.6489 0.77322 0.0
H194 H 0.41356 0.70065 0.86056 0.0
H195 H 0.3941 0.72364 0.8191 0.0
H196 H 0.40652 0.81915 0.70996 0.0
H197 H 0.37557 0.81258 0.62113 0.0
H198 H 0.34661 0.76979 0.63474 0.0
H199 H 0.37792 0.77577 0.72316 0.0
C200 C 0.27483 0.32796 0.66059 0.0
C201 C 0.27192 0.35107 0.6749 0.0
C202 C 0.23486 0.35666 0.64191 0.0
C203 C 0.25214 0.36528 0.66566 0.0
C204 C 0.23768 0.33319 0.62797 0.0
C205 C 0.25751 0.31902 0.63721 0.0
U206 U 0.33307 0.31836 0.71117 0.0
O207 O 0.34579 0.28065 0.72873 0.0
O208 O 0.37103 0.31047 0.70132 0.0
C209 C 0.36737 0.28626 0.71509 0.0
C210 C 0.29617 0.31347 0.66944 0.0
C211 C 0.37387 0.26367 0.69966 0.0
C212 C 0.37391 0.23877 0.656 0.0
C213 C 0.36567 0.25917 0.67052 0.0
C214 C 0.39793 0.22676 0.69983 0.0
C215 C 0.39057 0.22266 0.67037 0.0
C216 C 0.38968 0.24703 0.71426 0.0
C217 C 0.35077 0.36847 0.77397 0.0
C218 C 0.38567 0.36938 0.81154 0.0
C219 C 0.36019 0.40507 0.8077 0.0
C220 C 0.34545 0.3925 0.78424 0.0
C221 C 0.38069 0.3939 0.8215 0.0
C222 C 0.37087 0.3568 0.78786 0.0
C223 C 0.33519 0.35659 0.7485 0.0
O224 O 0.31958 0.32793 0.66636 0.0
O225 O 0.29403 0.29918 0.69428 0.0
O226 O 0.32176 0.33158 0.75211 0.0
O227 O 0.34632 0.36098 0.7237 0.0
H228 H 0.28507 0.35822 0.69309 0.0
H229 H 0.25035 0.38301 0.67718 0.0
H230 H 0.22496 0.32614 0.60944 0.0
H231 H 0.25951 0.30125 0.62586 0.0
H232 H 0.36799 0.23627 0.63329 0.0
H233 H 0.35339 0.2718 0.65885 0.0
H234 H 0.41035 0.21444 0.71173 0.0
H235 H 0.39612 0.25006 0.73678 0.0
H236 H 0.40143 0.36034 0.82154 0.0
H237 H 0.35551 0.42364 0.81503 0.0
H238 H 0.32994 0.40174 0.7739 0.0
H239 H 0.37528 0.33822 0.78019 0.0
C240 C 0.67345 0.27496 0.69141 0.0
C241 C 0.65656 0.27627 0.66668 0.0
C242 C 0.65282 0.22734 0.66029 0.0
C243 C 0.64647 0.25285 0.6513 0.0
C244 C 0.6697 0.22598 0.68506 0.0
C245 C 0.67985 0.24947 0.70045 0.0
U246 U 0.72378 0.33916 0.71324 0.0
O247 O 0.71794 0.38039 0.72179 0.0
O248 O 0.7349 0.35595 0.75627 0.0
C249 C 0.72625 0.37863 0.74916 0.0
C250 C 0.68269 0.29969 0.70858 0.0
C251 C 0.71035 0.38757 0.7703 0.0
C252 C 0.66887 0.38755 0.79022 0.0
C253 C 0.68357 0.3776 0.7707 0.0
C254 C 0.70764 0.41712 0.80939 0.0
C255 C 0.6807 0.4076 0.80971 0.0
C256 C 0.72225 0.40721 0.7899 0.0
C257 C 0.78872 0.3563 0.676 0.0
C258 C 0.83306 0.3589 0.66297 0.0
C259 C 0.81755 0.40058 0.66965 0.0
C260 C 0.79333 0.38502 0.67634 0.0
C261 C 0.83768 0.38772 0.66257 0.0
C262 C 0.80885 0.34341 0.66955 0.0
C263 C 0.76297 0.33932 0.68111 0.0
O264 O 0.70201 0.29885 0.72802 0.0
O265 O 0.68457 0.32358 0.69428 0.0
O266 O 0.74277 0.35014 0.67224 0.0
O267 O 0.7605 0.32614 0.70654 0.0
H268 H 0.65075 0.29539 0.6594 0.0
H269 H 0.63313 0.25466 0.63271 0.0
H270 H 0.67517 0.20676 0.69254 0.0
H271 H 0.69253 0.24755 0.71961 0.0
H272 H 0.64825 0.37946 0.79007 0.0
H273 H 0.67402 0.36235 0.75579 0.0
H274 H 0.7174 0.4328 0.8237 0.0
H275 H 0.74289 0.41524 0.78984 0.0
H276 H 0.84816 0.34822 0.65817 0.0
H277 H 0.82025 0.4227 0.6693 0.0
H278 H 0.7781 0.39547 0.6813 0.0
H279 H 0.80576 0.32127 0.66927 0.0
C280 C 0.70418 0.75421 0.59892 0.0
C281 C 0.6795 0.7539 0.60855 0.0
C282 C 0.67845 0.79785 0.5829 0.0
C283 C 0.66669 0.77548 0.60049 0.0
C284 C 0.70314 0.79797 0.57317 0.0
C285 C 0.71588 0.77626 0.5811 0.0
U286 U 0.71412 0.69556 0.65184 0.0
O287 O 0.72374 0.65552 0.64521 0.0
O288 O 0.75004 0.68496 0.67228 0.0
C289 C 0.74654 0.66172 0.65924 0.0
C290 C 0.71832 0.73231 0.60851 0.0
C291 C 0.76898 0.6571 0.64439 0.0
C292 C 0.7897 0.65072 0.60074 0.0
C293 C 0.7681 0.65529 0.61414 0.0
C294 C 0.81346 0.65039 0.64748 0.0
C295 C 0.81259 0.64824 0.61729 0.0
C296 C 0.79182 0.65468 0.66088 0.0
C297 C 0.67103 0.67649 0.7153 0.0
C298 C 0.66396 0.63264 0.74265 0.0
C299 C 0.65865 0.6737 0.76506 0.0
C300 C 0.66501 0.68911 0.73945 0.0
C301 C 0.65803 0.6453 0.76692 0.0
C302 C 0.67059 0.64814 0.7171 0.0
C303 C 0.67836 0.69339 0.68885 0.0
O304 O 0.73184 0.73606 0.63337 0.0
O305 O 0.70509 0.70717 0.60624 0.0
O306 O 0.67416 0.68077 0.66434 0.0
O307 O 0.70094 0.71012 0.69102 0.0
H308 H 0.67032 0.73716 0.62264 0.0
H309 H 0.64787 0.775 0.60869 0.0
H310 H 0.71259 0.81484 0.55945 0.0
H311 H 0.73498 0.77685 0.5736 0.0
H312 H 0.78858 0.64934 0.57741 0.0
H313 H 0.75077 0.65736 0.60086 0.0
H314 H 0.83073 0.64819 0.66083 0.0
H315 H 0.79289 0.65602 0.68422 0.0
H316 H 0.66385 0.61084 0.74356 0.0
H317 H 0.65387 0.68395 0.7833 0.0
H318 H 0.66531 0.71096 0.73851 0.0
H319 H 0.67548 0.63796 0.69886 0.0
Co320 Co 0.07746 0.49171 0.54522 0.0
Co321 Co 0.05099 0.47966 0.49547 0.0
Co322 Co 0.02467 0.52054 0.52706 0.0
O323 O 0.04148 0.48764 0.53185 0.0
H324 H 0.03061 0.47188 0.54081 0.0
O325 O 1.00794 0.5535 0.52229 0.0
Co326 Co 0.97234 0.54957 0.50774 0.0
Co327 Co 0.9971 0.56108 0.55793 0.0
H328 H 0.01906 0.56937 0.51382 0.0
O329 O 0.06147 0.44674 0.4882 0.0
O330 O 0.08617 0.48452 0.50621 0.0
O331 O 0.04862 0.50679 0.46421 0.0
O332 O 0.0476 0.53888 0.49505 0.0
O333 O 0.99834 0.50046 0.49796 0.0
O334 O 0.94042 0.54857 0.49289 0.0
O335 O 0.97344 0.58491 0.4941 0.0
O336 O 0.96635 0.51212 0.51903 0.0
O337 O 1.00183 0.502 0.55899 0.0
O338 O 0.99713 0.53349 0.58905 0.0
O339 O 0.96236 0.55842 0.54579 0.0
O340 O 0.98892 0.59481 0.56475 0.0
C341 C 0.10116 0.46645 0.56425 0.0
C342 C 0.07502 0.54433 0.55238 0.0
C343 C 0.0534 0.53175 0.47063 0.0
C344 C 0.08414 0.46033 0.4964 0.0
C345 C 0.94945 0.57422 0.48625 0.0
C346 C 0.97417 0.4968 0.50214 0.0
C347 C 0.99419 0.50862 0.58273 0.0
C348 C 0.96587 0.58278 0.55576 0.0
O349 O 0.10987 0.49239 0.55865 0.0
O350 O 0.07686 0.45611 0.55738 0.0
O351 O 0.05082 0.54055 0.55629 0.0
O352 O 0.08303 0.52943 0.53522 0.0
Co353 Co 0.55133 0.96714 0.51217 0.0
Co354 Co 0.56449 0.98791 0.56308 0.0
Co355 Co 0.52393 0.02027 0.52844 0.0
O356 O 0.5551 1.00303 0.5268 0.0
H357 H 0.5697 0.01572 0.51926 0.0
O358 O 0.49288 0.0377 0.53022 0.0
Co359 Co 0.49735 0.07375 0.545 0.0
Co360 Co 0.48395 0.05342 0.49429 0.0
H361 H 0.47819 0.02513 0.53772 0.0
O362 O 0.59758 0.97983 0.57158 0.0
O363 O 0.56294 0.95298 0.55049 0.0
O364 O 0.53924 0.98287 0.59193 0.0
O365 O 0.50829 0.99451 0.56119 0.0
O366 O 0.54473 0.04667 0.5566 0.0
O367 O 0.49934 0.10584 0.55995 0.0
O368 O 0.46525 0.07067 0.55905 0.0
O369 O 0.53156 0.08182 0.53346 0.0
O370 O 0.5397 0.04596 0.49564 0.0
O371 O 0.50904 0.05866 0.46528 0.0
O372 O 0.48467 0.08815 0.5071 0.0
O373 O 0.4508 0.06017 0.48568 0.0
C374 C 0.57398 0.9458 0.49176 0.0
C375 C 0.5004 0.9679 0.5056 0.0
C376 C 0.51551 0.98277 0.58494 0.0
C377 C 0.58679 0.95654 0.56099 0.0
C378 C 0.47591 0.09535 0.56689 0.0
C379 C 0.54787 0.07247 0.55074 0.0
C380 C 0.53267 0.05815 0.47208 0.0
C381 C 0.4608 0.08364 0.49642 0.0
O382 O 0.55027 0.93496 0.49747 0.0
O383 O 0.58381 0.97069 0.49949 0.0
O384 O 0.503 0.99377 0.50025 0.0
O385 O 0.51693 0.95876 0.52272 0.0
Co386 Co 0.49552 0.53071 0.08769 0.0
Co387 Co 0.4809 0.48262 0.06544 0.0
Co388 Co 0.5237 0.51919 0.02689 0.0
O389 O 0.49197 0.51772 0.04893 0.0
H390 H 0.47804 0.52376 0.03716 0.0
O391 O 0.55557 0.52085 1.00527 0.0
Co392 Co 0.55337 0.50754 0.96705 0.0
Co393 Co 0.56637 0.55574 0.98855 0.0
H394 H 0.56953 0.51537 0.01744 0.0
O395 O 0.44776 0.4708 0.07917 0.0
O396 O 0.48316 0.49314 0.10349 0.0
O397 O 0.50449 0.4575 0.06551 0.0
O398 O 0.5376 0.49029 0.05322 0.0
O399 O 0.50315 0.49048 1.00097 0.0
O400 O 0.55396 0.49423 0.93245 0.0
O401 O 0.58579 0.49997 0.96785 0.0
O402 O 0.5189 0.51262 0.96139 0.0
O403 O 0.5097 0.54794 1.00055 0.0
O404 O 0.54257 0.58069 0.98756 0.0
O405 O 0.5659 0.54514 0.95073 0.0
O406 O 0.59988 0.56813 0.97699 0.0
C407 C 0.47294 0.54674 0.11417 0.0
C408 C 0.54638 0.54349 0.07988 0.0
C409 C 0.52868 0.46655 0.06474 0.0
C410 C 0.45929 0.4801 0.10324 0.0
C411 C 0.57718 0.49165 0.9421 0.0
C412 C 0.50153 0.49509 0.97347 0.0
C413 C 0.51844 0.5716 0.98881 0.0
C414 C 0.58958 0.55891 0.95236 0.0
O415 O 0.49624 0.54351 0.12265 0.0
O416 O 0.46331 0.53891 0.08854 0.0
O417 O 0.54422 0.5481 0.05248 0.0
O418 O 0.52981 0.52505 0.0919 0.0
H419 H 0.19461 0.36833 0.4444 0.0
H420 H 0.13428 0.48489 0.50949 0.0
H421 H 0.23927 0.44544 0.47234 0.0
H422 H 0.08792 0.41028 0.47714 0.0
H423 H 0.17325 0.46767 0.50211 0.0
H424 H 0.1559 0.38027 0.4623 0.0
C425 C 0.19634 0.38759 0.45469 0.0
C426 C 0.22012 0.40607 0.45662 0.0
C427 C 0.15458 0.45495 0.49675 0.0
C428 C 0.17593 0.41996 0.47683 0.0
C429 C 0.13225 0.46476 0.50101 0.0
C430 C 0.10774 0.44909 0.49369 0.0
C431 C 0.15251 0.42938 0.48475 0.0
C432 C 0.10642 0.42315 0.48284 0.0
C433 C 0.17421 0.39446 0.46474 0.0
C434 C 0.22122 0.43083 0.46993 0.0
N435 N 0.12852 0.41419 0.47844 0.0
N436 N 0.19941 0.43712 0.47934 0.0
H437 H 0.66581 0.18384 0.43696 0.0
H438 H 0.52625 0.08639 0.41995 0.0
H439 H 0.60988 0.19316 0.36613 0.0
H440 H 0.58467 0.07375 0.48684 0.0
H441 H 0.55752 0.12342 0.39798 0.0
H442 H 0.63727 0.14203 0.45383 0.0
C443 C 0.64766 0.17701 0.42471 0.0
C444 C 0.64037 0.19225 0.39999 0.0
C445 C 0.56361 0.11233 0.41726 0.0
C446 C 0.60721 0.14424 0.41962 0.0
C447 C 0.54577 0.09102 0.42977 0.0
C448 C 0.5527 0.07685 0.45542 0.0
C449 C 0.58861 0.11978 0.43052 0.0
C450 C 0.57835 0.08395 0.46707 0.0
C451 C 0.63127 0.15311 0.43449 0.0
C452 C 0.61627 0.18244 0.3855 0.0
N453 N 0.59523 0.10505 0.45474 0.0
N454 N 0.60058 0.15919 0.39557 0.0
H455 H 0.82829 0.62148 0.3721 0.0
H456 H 0.95008 0.62986 0.48691 0.0
H457 H 0.84988 0.68876 0.42883 0.0
H458 H 0.90822 0.55538 0.44999 0.0
H459 H 0.91806 0.65478 0.46183 0.0
H460 H 0.86234 0.60006 0.39611 0.0
C461 C 0.84038 0.63191 0.38948 0.0
C462 C 0.83628 0.65705 0.39833 0.0
C463 C 0.91605 0.63301 0.45924 0.0
C464 C 0.8754 0.63236 0.42629 0.0
C465 C 0.93438 0.61887 0.47331 0.0
C466 C 0.93182 0.59056 0.47041 0.0
C467 C 0.89545 0.61872 0.44183 0.0
C468 C 0.91093 0.57718 0.45291 0.0
C469 C 0.85974 0.61954 0.40335 0.0
C470 C 0.85231 0.6693 0.42141 0.0
N471 N 0.8937 0.59135 0.43925 0.0
N472 N 0.87128 0.65688 0.43457 0.0
H473 H 0.41343 0.81321 0.45091 0.0
H474 H 0.46772 0.97509 0.45704 0.0
H475 H 0.3841 0.87149 0.39123 0.0
H476 H 0.48587 0.914 0.52127 0.0
H477 H 0.43704 0.93875 0.43191 0.0
H478 H 0.44094 0.85093 0.47566 0.0
C479 C 0.41293 0.83398 0.44281 0.0
C480 C 0.39651 0.83907 0.41875 0.0
C481 C 0.44768 0.93347 0.45162 0.0
C482 C 0.42798 0.88283 0.44746 0.0
C483 C 0.46509 0.9542 0.46602 0.0
C484 C 0.47961 0.94762 0.49118 0.0
C485 C 0.44488 0.90607 0.46252 0.0
C486 C 0.47542 0.92015 0.50179 0.0
C487 C 0.42853 0.85562 0.45715 0.0
C488 C 0.39637 0.86658 0.40975 0.0
N489 N 0.45867 0.90054 0.48739 0.0
N490 N 0.41195 0.88744 0.42401 0.0
H491 H 0.22309 0.63437 0.61495 0.0
H492 H 0.07212 0.56413 0.60637 0.0
H493 H 0.17678 0.62177 0.68954 0.0
H494 H 0.12319 0.56819 0.53686 0.0
H495 H 0.10813 0.5907 0.63573 0.0
H496 H 0.18472 0.61569 0.58473 0.0
C497 C 0.20481 0.62801 0.62499 0.0
C498 C 0.20334 0.62963 0.65497 0.0
C499 C 0.11131 0.58598 0.61393 0.0
C500 C 0.15904 0.60767 0.62029 0.0
C501 C 0.09072 0.57101 0.59712 0.0
C502 C 0.0947 0.56376 0.56922 0.0
C503 C 0.13591 0.59391 0.60259 0.0
C504 C 0.11928 0.57305 0.55837 0.0
C505 C 0.18285 0.61712 0.60769 0.0
C506 C 0.17901 0.62057 0.66664 0.0
N507 N 0.13886 0.58746 0.57506 0.0
N508 N 0.15787 0.6099 0.64933 0.0
H509 H 0.36612 0.18572 0.63014 0.0
H510 H 0.49746 0.13758 0.60013 0.0
H511 H 0.4404 0.21449 0.67438 0.0
H512 H 0.42298 0.0924 0.56978 0.0
H513 H 0.47599 0.16767 0.62463 0.0
H514 H 0.38562 0.15337 0.60496 0.0
C515 C 0.38648 0.18527 0.63455 0.0
C516 C 0.40158 0.20276 0.65462 0.0
C517 C 0.46418 0.15114 0.61279 0.0
C518 C 0.42393 0.16589 0.62593 0.0
C519 C 0.47648 0.1339 0.59869 0.0
C520 C 0.46201 0.1123 0.58296 0.0
C521 C 0.43704 0.14717 0.61108 0.0
C522 C 0.43485 0.10862 0.58196 0.0
C523 C 0.39753 0.1667 0.62031 0.0
C524 C 0.42783 0.20116 0.65954 0.0
N525 N 0.42319 0.12602 0.59572 0.0
N526 N 0.43809 0.18321 0.6453 0.0
H527 H 0.86522 0.4356 0.68498 0.0
H528 H 0.97542 0.45476 0.57082 0.0
H529 H 0.86831 0.37767 0.6204 0.0
H530 H 0.97069 0.51496 0.63237 0.0
H531 H 0.93931 0.42388 0.59273 0.0
H532 H 0.90603 0.463 0.66912 0.0
C533 C 0.87441 0.4286 0.66746 0.0
C534 C 0.86311 0.40423 0.654 0.0
C535 C 0.94637 0.44371 0.6017 0.0
C536 C 0.9102 0.43546 0.63593 0.0
C537 C 0.9672 0.46134 0.58932 0.0
C538 C 0.97615 0.4877 0.59958 0.0
C539 C 0.93427 0.4524 0.62453 0.0
C540 C 0.96447 0.49495 0.62358 0.0
C541 C 0.89785 0.4442 0.65855 0.0
C542 C 0.87631 0.39606 0.63173 0.0
N543 N 0.94402 0.47755 0.63501 0.0
N544 N 0.899 0.41166 0.62336 0.0
H545 H 0.62746 0.79668 0.56582 0.0
H546 H 0.63851 0.95833 0.5746 0.0
H547 H 0.6996 0.85259 0.58389 0.0
H548 H 0.56804 0.9032 0.54803 0.0
H549 H 0.6616 0.92017 0.57651 0.0
H550 H 0.60564 0.8357 0.55755 0.0
C551 C 0.6387 0.81719 0.56798 0.0
C552 C 0.66535 0.82139 0.57573 0.0
C553 C 0.64111 0.91646 0.57013 0.0
C554 C 0.64053 0.86618 0.56631 0.0
C555 C 0.62789 0.93822 0.56914 0.0
C556 C 0.60126 0.93391 0.56139 0.0
C557 C 0.62755 0.89015 0.56352 0.0
C558 C 0.58855 0.90746 0.55426 0.0
C559 C 0.62627 0.83948 0.56313 0.0
C560 C 0.67906 0.84843 0.57778 0.0
N561 N 0.60178 0.88657 0.55566 0.0
N562 N 0.66646 0.86979 0.57334 0.0
H563 H 0.40608 0.23553 0.50952 0.0
H564 H 0.41105 0.08162 0.47418 0.0
H565 H 0.35477 0.18952 0.44561 0.0
H566 H 0.47552 0.13575 0.51573 0.0
H567 H 0.38657 0.11861 0.47049 0.0
H568 H 0.42804 0.19648 0.51917 0.0
C569 C 0.3993 0.2171 0.49775 0.0
C570 C 0.37874 0.21575 0.47659 0.0
C571 C 0.40604 0.12233 0.48053 0.0
C572 C 0.40365 0.17125 0.48744 0.0
C573 C 0.42004 0.10122 0.48267 0.0
C574 C 0.44545 0.10559 0.49518 0.0
C575 C 0.41741 0.14797 0.49115 0.0
C576 C 0.456 0.13143 0.50592 0.0
C577 C 0.41191 0.19495 0.50312 0.0
C578 C 0.37078 0.1915 0.46181 0.0
N579 N 0.44194 0.15167 0.50365 0.0
N580 N 0.38326 0.17021 0.4675 0.0
H581 H 0.87156 0.41902 0.36375 0.0
H582 H 0.92715 0.47153 0.51975 0.0
H583 H 0.82736 0.40725 0.43998 0.0
H584 H 0.97535 0.47801 0.44729 0.0
H585 H 0.89144 0.44517 0.49109 0.0
H586 H 0.91028 0.4384 0.39368 0.0
C587 C 0.86994 0.42042 0.38676 0.0
C588 C 0.84596 0.41153 0.39924 0.0
C589 C 0.90982 0.45204 0.4814 0.0
C590 C 0.89044 0.43362 0.43372 0.0
C591 C 0.9303 0.46711 0.49781 0.0
C592 C 0.95427 0.47713 0.48586 0.0
C593 C 0.91301 0.44712 0.45248 0.0
C594 C 0.95723 0.47059 0.45738 0.0
C595 C 0.89215 0.43135 0.40387 0.0
C596 C 0.84532 0.41351 0.42931 0.0
N597 N 0.93672 0.45628 0.44151 0.0
N598 N 0.86709 0.42447 0.44537 0.0
H599 H 0.69407 0.86152 0.44583 0.0
H600 H 0.55592 0.90041 0.4613 0.0
H601 H 0.62336 0.8225 0.40048 0.0
H602 H 0.62722 0.95211 0.49135 0.0
H603 H 0.58074 0.87065 0.44093 0.0
H604 H 0.67053 0.89397 0.46429 0.0
C605 C 0.67368 0.85985 0.43951 0.0
C606 C 0.66074 0.83904 0.42155 0.0
C607 C 0.59107 0.88857 0.45178 0.0
C608 C 0.6336 0.87601 0.44307 0.0
C609 C 0.57687 0.90561 0.46349 0.0
C610 C 0.5895 0.92892 0.47794 0.0
C611 C 0.61823 0.89454 0.45473 0.0
C612 C 0.61671 0.93453 0.4801 0.0
C613 C 0.66024 0.87836 0.45021 0.0
C614 C 0.63416 0.83776 0.41463 0.0
N615 N 0.6302 0.91734 0.46877 0.0
N616 N 0.62154 0.85586 0.42545 0.0
H617 H 0.17235 0.59298 0.35198 0.0
H618 H 0.08066 0.58276 0.48444 0.0
H619 H 0.18669 0.64959 0.42082 0.0
H620 H 0.06861 0.52536 0.41641 0.0
H621 H 0.11653 0.61051 0.45884 0.0
H622 H 0.13189 0.57095 0.37285 0.0
C623 C 0.1669 0.60106 0.3713 0.0
C624 C 0.18314 0.6233 0.38457 0.0
C625 C 0.10581 0.59204 0.44933 0.0
C626 C 0.13664 0.59763 0.40901 0.0
C627 C 0.08513 0.57625 0.46382 0.0
C628 C 0.07154 0.55152 0.45268 0.0
C629 C 0.11303 0.58311 0.42346 0.0
C630 C 0.07852 0.54414 0.42596 0.0
C631 C 0.14377 0.58829 0.38334 0.0
C632 C 0.17507 0.63233 0.40998 0.0
N633 N 0.09885 0.5597 0.41246 0.0
N634 N 0.15249 0.61943 0.42139 0.0
H635 H 0.44386 0.83902 0.68382 0.0
H636 H 0.4628 0.97018 0.5729 0.0
H637 H 0.38237 0.86087 0.62606 0.0
H638 H 0.52298 0.95099 0.63438 0.0
H639 H 0.43216 0.93257 0.59486 0.0
H640 H 0.47217 0.88167 0.66847 0.0
C641 C 0.43617 0.85285 0.66813 0.0
C642 C 0.41062 0.84608 0.65613 0.0
C643 C 0.45198 0.9368 0.6038 0.0
C644 C 0.44323 0.89507 0.63813 0.0
C645 C 0.46952 0.95846 0.59138 0.0
C646 C 0.49568 0.96381 0.60162 0.0
C647 C 0.46059 0.92019 0.62662 0.0
C648 C 0.50311 0.94768 0.62559 0.0
C649 C 0.45244 0.87722 0.65926 0.0
C650 C 0.40201 0.86483 0.63554 0.0
N651 N 0.48576 0.92649 0.63702 0.0
N652 N 0.41827 0.88831 0.62713 0.0
H653 H 0.23915 0.41244 0.63688 0.0
H654 H 0.0934 0.41 0.57202 0.0
H655 H 0.18432 0.33733 0.62221 0.0
H656 H 0.15113 0.48341 0.58451 0.0
H657 H 0.12542 0.3826 0.59131 0.0
H658 H 0.20615 0.43838 0.61899 0.0
C659 C 0.22009 0.40135 0.63013 0.0
C660 C 0.21457 0.37258 0.63122 0.0
C661 C 0.13098 0.40471 0.58988 0.0
C662 C 0.17649 0.40236 0.61018 0.0
C663 C 0.11269 0.42036 0.57897 0.0
C664 C 0.11951 0.44908 0.57674 0.0
C665 C 0.15621 0.41792 0.59866 0.0
C666 C 0.14489 0.46137 0.58582 0.0
C667 C 0.20124 0.41622 0.61968 0.0
C668 C 0.18957 0.35945 0.62153 0.0
N669 N 0.1622 0.44577 0.59634 0.0
N670 N 0.17146 0.37443 0.61147 0.0
H671 H 0.63508 0.17466 0.68214 0.0
H672 H 0.57098 0.12244 0.52942 0.0
H673 H 0.64424 0.22275 0.60144 0.0
H674 H 0.57106 0.0684 0.60586 0.0
H675 H 0.59981 0.15846 0.5555 0.0
H676 H 0.61364 0.13487 0.65508 0.0
C677 C 0.6329 0.17683 0.65874 0.0
C678 C 0.64132 0.20231 0.64414 0.0
C679 C 0.59383 0.1387 0.56662 0.0
C680 C 0.61647 0.15678 0.61304 0.0
C681 C 0.57735 0.11807 0.55169 0.0
C682 C 0.56849 0.09242 0.56555 0.0
C683 C 0.60132 0.13395 0.59591 0.0
C684 C 0.57751 0.08786 0.59436 0.0
C685 C 0.62054 0.15408 0.64331 0.0
C686 C 0.63763 0.2038 0.61378 0.0
N687 N 0.59316 0.10858 0.60876 0.0
N688 N 0.62539 0.1815 0.59935 0.0
H689 H 0.86352 0.67231 0.62689 0.0
H690 H 0.91499 0.56355 0.53903 0.0
H691 H 0.81335 0.61115 0.57635 0.0
H692 H 0.96526 0.63115 0.58051 0.0
H693 H 0.87764 0.58276 0.54918 0.0
H694 H 0.90108 0.65955 0.60731 0.0
C695 C 0.86044 0.65627 0.61154 0.0
C696 C 0.83533 0.64256 0.60344 0.0
C697 C 0.89685 0.59354 0.55582 0.0
C698 C 0.87817 0.62782 0.58095 0.0
C699 C 0.91823 0.58258 0.55002 0.0
C700 C 0.94332 0.5956 0.5592 0.0
C701 C 0.90054 0.61753 0.57124 0.0
C702 C 0.94628 0.62028 0.57326 0.0
C703 C 0.88186 0.64909 0.60025 0.0
C704 C 0.83239 0.62227 0.58311 0.0
N705 N 0.92512 0.63027 0.57913 0.0
N706 N 0.85357 0.61529 0.57281 0.0
H707 H 0.43861 0.43438 0.28289 0.0
H708 H 0.41046 0.45065 0.11185 0.0
H709 H 0.36608 0.39887 0.23882 0.0
H710 H 0.4793 0.49323 0.15779 0.0
H711 H 0.39229 0.43445 0.15833 0.0
H712 H 0.45256 0.45869 0.23756 0.0
C713 C 0.4256 0.43179 0.26366 0.0
C714 C 0.40126 0.4144 0.26453 0.0
C715 C 0.41126 0.44757 0.15822 0.0
C716 C 0.41705 0.44215 0.21255 0.0
C717 C 0.42165 0.45685 0.13168 0.0
C718 C 0.4466 0.47299 0.1309 0.0
C719 C 0.426 0.45437 0.18414 0.0
C720 C 0.46011 0.48057 0.1573 0.0
C721 C 0.4335 0.44578 0.23782 0.0
C722 C 0.38497 0.41214 0.23911 0.0
N723 N 0.44976 0.47094 0.18281 0.0
N724 N 0.39327 0.42563 0.21407 0.0
H725 H 0.39721 0.60879 0.86521 0.0
H726 H 0.52788 0.62499 0.96739 0.0
H727 H 0.45337 0.6842 0.87157 0.0
H728 H 0.46779 0.55245 0.97015 0.0
H729 H 0.50002 0.64732 0.93343 0.0
H730 H 0.42221 0.58779 0.90393 0.0
C731 C 0.41476 0.62096 0.87471 0.0
C732 C 0.4231 0.64838 0.86504 0.0
C733 C 0.49277 0.62661 0.94167 0.0
C734 C 0.4518 0.62445 0.90956 0.0
C735 C 0.50869 0.61385 0.96118 0.0
C736 C 0.50025 0.58675 0.97175 0.0
C737 C 0.46824 0.61215 0.93225 0.0
C738 C 0.47512 0.57341 0.96279 0.0
C739 C 0.42894 0.609 0.89697 0.0
C740 C 0.4459 0.66315 0.87849 0.0
N741 N 0.46014 0.58612 0.94336 0.0
N742 N 0.45944 0.651 0.89986 0.0
H743 H 0.39927 0.44892 0.82405 0.0
H744 H 0.47294 0.44259 0.98147 0.0
H745 H 0.4 0.37258 0.87323 0.0
H746 H 0.4821 0.51344 0.92193 0.0
H747 H 0.44201 0.41716 0.94559 0.0
H748 H 0.42569 0.4733 0.86296 0.0
C749 C 0.40483 0.43725 0.84316 0.0
C750 C 0.39724 0.40861 0.84533 0.0
C751 C 0.45069 0.43833 0.94057 0.0
C752 C 0.42796 0.4366 0.89025 0.0
C753 C 0.46813 0.45289 0.96111 0.0
C754 C 0.4802 0.4801 0.95459 0.0
C755 C 0.44514 0.45128 0.9136 0.0
C756 C 0.47346 0.49242 0.92779 0.0
C757 C 0.42009 0.45122 0.86539 0.0
C758 C 0.40555 0.39464 0.87052 0.0
N759 N 0.45651 0.47796 0.90838 0.0
N760 N 0.42043 0.40877 0.89204 0.0
H761 H 0.63241 0.42031 0.7987 0.0
H762 H 0.62613 0.48029 0.95456 0.0
H763 H 0.69329 0.42172 0.86635 0.0
H764 H 0.56522 0.47578 0.88662 0.0
H765 H 0.65149 0.45948 0.92284 0.0
H766 H 0.60769 0.4406 0.83105 0.0
C767 C 0.64052 0.42463 0.82044 0.0
C768 C 0.66504 0.4192 0.8297 0.0
C769 C 0.63256 0.46307 0.91493 0.0
C770 C 0.63684 0.44298 0.86696 0.0
C771 C 0.61809 0.47499 0.93302 0.0
C772 C 0.59343 0.47973 0.92335 0.0
C773 C 0.62232 0.45589 0.88695 0.0
C774 C 0.58406 0.47245 0.89516 0.0
C775 C 0.62644 0.43645 0.83889 0.0
C776 C 0.67465 0.42582 0.85805 0.0
N777 N 0.59845 0.46093 0.87806 0.0
N778 N 0.66056 0.43735 0.87562 0.0
H779 H 0.62471 0.59591 0.77301 0.0
H780 H 0.63609 0.59397 0.94639 0.0
H781 H 0.67514 0.65768 0.82255 0.0
H782 H 0.57451 0.54292 0.89715 0.0
H783 H 0.65569 0.61192 0.9012 0.0
H784 H 0.61107 0.57102 0.81834 0.0
C785 C 0.63312 0.60406 0.79343 0.0
C786 C 0.65089 0.62902 0.79406 0.0
C787 C 0.638 0.59663 0.90031 0.0
C788 C 0.63536 0.60075 0.8459 0.0
C789 C 0.62683 0.58628 0.92612 0.0
C790 C 0.6034 0.56719 0.92556 0.0
C791 C 0.62573 0.58776 0.87373 0.0
C792 C 0.59241 0.55785 0.89862 0.0
C793 C 0.62524 0.58993 0.81926 0.0
C794 C 0.66107 0.63874 0.82111 0.0
N795 N 0.60357 0.56839 0.87375 0.0
N796 N 0.6531 0.62464 0.84594 0.0
H797 H 0.63513 0.60768 0.23217 0.0
H798 H 0.57131 0.59709 0.0696 0.0
H799 H 0.62937 0.67883 0.17579 0.0
H800 H 0.5652 0.52984 0.13368 0.0
H801 H 0.59856 0.62675 0.105 0.0
H802 H 0.61523 0.5784 0.19323 0.0
C803 C 0.62965 0.6172 0.21161 0.0
C804 C 0.63366 0.64585 0.2075 0.0
C805 C 0.59143 0.60542 0.11113 0.0
C806 C 0.61098 0.61222 0.16242 0.0
C807 C 0.57606 0.58847 0.09089 0.0
C808 C 0.56582 0.56103 0.0988 0.0
C809 C 0.59677 0.59469 0.13927 0.0
C810 C 0.57245 0.55094 0.12673 0.0
C811 C 0.61839 0.60042 0.18927 0.0
C812 C 0.62675 0.65688 0.17999 0.0
N813 N 0.58735 0.56774 0.1459 0.0
N814 N 0.61558 0.64007 0.15858 0.0
H815 H 0.43396 0.62708 0.25968 0.0
H816 H 0.42547 0.56274 0.10377 0.0
H817 H 0.3703 0.63111 0.1967 0.0
H818 H 0.48644 0.55896 0.17035 0.0
H819 H 0.40343 0.58574 0.13725 0.0
H820 H 0.45203 0.60032 0.22711 0.0
C821 C 0.42377 0.62239 0.23892 0.0
C822 C 0.40069 0.6317 0.23087 0.0
C823 C 0.42158 0.57972 0.14447 0.0
C824 C 0.42134 0.60061 0.19315 0.0
C825 C 0.43415 0.56656 0.1254 0.0
C826 C 0.45799 0.55908 0.1341 0.0
C827 C 0.43295 0.58537 0.17242 0.0
C828 C 0.46826 0.56452 0.16244 0.0
C829 C 0.43406 0.60693 0.2203 0.0
C830 C 0.3881 0.62433 0.20387 0.0
N831 N 0.45579 0.57736 0.18039 0.0
N832 N 0.39868 0.6094 0.18588 0.0
H833 H 0.58397 0.36126 0.1994 0.0
H834 H 0.58077 0.48359 0.07924 0.0
H835 H 0.65024 0.42545 0.18445 0.0
H836 H 0.51732 0.41551 0.09208 0.0
H837 H 0.6076 0.46164 0.11514 0.0
H838 H 0.56025 0.38018 0.15854 0.0
C839 C 0.59354 0.37945 0.1876 0.0
C840 C 0.61911 0.39193 0.19572 0.0
C841 C 0.58791 0.45137 0.10982 0.0
C842 C 0.59193 0.41371 0.1483 0.0
C843 C 0.57257 0.46381 0.08915 0.0
C844 C 0.54659 0.45149 0.08256 0.0
C845 C 0.57723 0.42643 0.12416 0.0
C846 C 0.53712 0.42592 0.09641 0.0
C847 C 0.58 0.39016 0.16405 0.0
C848 C 0.63061 0.4151 0.17901 0.0
N849 N 0.55231 0.41444 0.11662 0.0
N850 N 0.61689 0.42535 0.15627 0.0
loop_
_geom_bond_atom_site_label_1
_geom_bond_atom_site_label_2
_geom_bond_distance
_geom_bond_site_symmetry_2
_ccdc_geom_bond_type
C0 C1 1.264 . S
C0 C5 1.479 . S
C0 C10 1.465 . S
C1 C0 1.264 . S
C1 C3 1.339 . S
C1 H28 0.931 . S
C2 C3 1.395 . S
C2 C4 1.320 . S
C3 C1 1.339 . S
C3 C2 1.395 . S
C3 H29 0.929 . S
C4 C2 1.320 . S
C4 C5 1.405 . S
C4 H30 0.930 . S
C5 C0 1.479 . S
C5 C4 1.405 . S
C5 H31 0.931 . S
U6 O7 2.454 . S
U6 O8 2.458 . S
U6 C9 2.984 . S
U6 C10 2.847 . S
U6 C23 2.882 . S
U6 O24 2.441 . S
U6 O25 2.420 . S
U6 O26 2.455 . S
U6 O27 2.449 . S
O7 U6 2.454 . S
O7 C9 1.353 . S
O8 U6 2.458 . S
O8 C9 1.286 . S
C9 U6 2.984 . S
C9 O7 1.353 . S
C9 O8 1.286 . S
C9 C11 1.363 . S
C10 C0 1.465 . S
C10 U6 2.847 . S
C10 O24 1.249 . S
C10 O25 1.202 . S
C11 C9 1.363 . S
C11 C13 1.408 . S
C11 C16 1.342 . S
C12 C13 1.310 . S
C12 C15 1.461 . S
C12 H32 0.932 . S
C13 C11 1.408 . S
C13 C12 1.310 . S
C13 H33 0.930 . S
C14 C15 1.474 . S
C14 C16 1.285 . S
C14 H34 0.929 . S
C15 C12 1.461 . S
C15 C14 1.474 . S
C16 C11 1.342 . S
C16 C14 1.285 . S
C16 H35 0.930 . S
C17 C20 1.424 . S
C17 C22 1.245 . S
C17 C23 1.428 . S
C18 C21 1.260 . S
C18 C22 1.477 . S
C18 H36 0.932 . S
C19 C20 1.384 . S
C19 C21 1.479 . S
C19 H37 0.929 . S
C20 C17 1.424 . S
C20 C19 1.384 . S
C20 H38 0.928 . S
C21 C18 1.260 . S
C21 C19 1.479 . S
C22 C17 1.245 . S
C22 C18 1.477 . S
C22 H39 0.932 . S
C23 U6 2.882 . S
C23 C17 1.428 . S
C23 O26 1.301 . S
C23 O27 1.282 . S
O24 U6 2.441 . S
O24 C10 1.249 . S
O25 U6 2.420 . S
O25 C10 1.202 . S
O26 U6 2.455 . S
O26 C23 1.301 . S
O27 U6 2.449 . S
O27 C23 1.282 . S
H28 C1 0.931 . S
H29 C3 0.929 . S
H30 C4 0.930 . S
H31 C5 0.931 . S
H32 C12 0.932 . S
H33 C13 0.930 . S
H34 C14 0.929 . S
H35 C16 0.930 . S
H36 C18 0.932 . S
H37 C19 0.929 . S
H38 C20 0.928 . S
H39 C22 0.932 . S
C40 C41 1.264 . S
C40 C45 1.479 . S
C40 C50 1.465 . S
C41 C40 1.264 . S
C41 C43 1.339 . S
C41 H68 0.931 . S
C42 C43 1.395 . S
C42 C44 1.320 . S
C43 C41 1.339 . S
C43 C42 1.395 . S
C43 H69 0.929 . S
C44 C42 1.320 . S
C44 C45 1.405 . S
C44 H70 0.930 . S
C45 C40 1.479 . S
C45 C44 1.405 . S
C45 H71 0.931 . S
U46 O47 2.454 . S
U46 O48 2.458 . S
U46 C49 2.984 . S
U46 C50 2.847 . S
U46 C63 2.882 . S
U46 O64 2.441 . S
U46 O65 2.420 . S
U46 O66 2.455 . S
U46 O67 2.449 . S
O47 U46 2.454 . S
O47 C49 1.353 . S
O48 U46 2.458 . S
O48 C49 1.286 . S
C49 U46 2.984 . S
C49 O47 1.353 . S
C49 O48 1.286 . S
C49 C51 1.363 . S
C50 C40 1.465 . S
C50 U46 2.847 . S
C50 O64 1.249 . S
C50 O65 1.202 . S
C51 C49 1.363 . S
C51 C53 1.408 . S
C51 C56 1.342 . S
C52 C53 1.310 . S
C52 C55 1.461 . S
C52 H72 0.932 . S
C53 C51 1.408 . S
C53 C52 1.310 . S
C53 H73 0.930 . S
C54 C55 1.474 . S
C54 C56 1.285 . S
C54 H74 0.929 . S
C55 C52 1.461 . S
C55 C54 1.474 . S
C56 C51 1.342 . S
C56 C54 1.285 . S
C56 H75 0.930 . S
C57 C60 1.424 . S
C57 C62 1.245 . S
C57 C63 1.428 . S
C58 C61 1.260 . S
C58 C62 1.477 . S
C58 H76 0.932 . S
C59 C60 1.384 . S
C59 C61 1.479 . S
C59 H77 0.929 . S
C60 C57 1.424 . S
C60 C59 1.384 . S
C60 H78 0.928 . S
C61 C58 1.260 . S
C61 C59 1.479 . S
C62 C57 1.245 . S
C62 C58 1.477 . S
C62 H79 0.932 . S
C63 U46 2.882 . S
C63 C57 1.428 . S
C63 O66 1.301 . S
C63 O67 1.282 . S
O64 U46 2.441 . S
O64 C50 1.249 . S
O65 U46 2.420 . S
O65 C50 1.202 . S
O66 U46 2.455 . S
O66 C63 1.301 . S
O67 U46 2.449 . S
O67 C63 1.282 . S
H68 C41 0.931 . S
H69 C43 0.929 . S
H70 C44 0.930 . S
H71 C45 0.931 . S
H72 C52 0.932 . S
H73 C53 0.930 . S
H74 C54 0.929 . S
H75 C56 0.930 . S
H76 C58 0.932 . S
H77 C59 0.929 . S
H78 C60 0.928 . S
H79 C62 0.932 . S
C80 C81 1.264 . S
C80 C85 1.479 . S
C80 C90 1.465 . S
C81 C80 1.264 . S
C81 C83 1.339 . S
C81 H108 0.931 . S
C82 C83 1.395 . S
C82 C84 1.320 . S
C83 C81 1.339 . S
C83 C82 1.395 . S
C83 H109 0.929 . S
C84 C82 1.320 . S
C84 C85 1.405 . S
C84 H110 0.930 . S
C85 C80 1.479 . S
C85 C84 1.405 . S
C85 H111 0.931 . S
U86 O87 2.454 . S
U86 O88 2.458 . S
U86 C89 2.984 . S
U86 C90 2.847 . S
U86 C103 2.882 . S
U86 O104 2.441 . S
U86 O105 2.420 . S
U86 O106 2.455 . S
U86 O107 2.449 . S
O87 U86 2.454 . S
O87 C89 1.353 . S
O88 U86 2.458 . S
O88 C89 1.286 . S
C89 U86 2.984 . S
C89 O87 1.353 . S
C89 O88 1.286 . S
C89 C91 1.363 . S
C90 C80 1.465 . S
C90 U86 2.847 . S
C90 O104 1.249 . S
C90 O105 1.202 . S
C91 C89 1.363 . S
C91 C93 1.408 . S
C91 C96 1.342 . S
C92 C93 1.310 . S
C92 C95 1.461 . S
C92 H112 0.932 . S
C93 C91 1.408 . S
C93 C92 1.310 . S
C93 H113 0.930 . S
C94 C95 1.474 . S
C94 C96 1.285 . S
C94 H114 0.929 . S
C95 C92 1.461 . S
C95 C94 1.474 . S
C96 C91 1.342 . S
C96 C94 1.285 . S
C96 H115 0.930 . S
C97 C100 1.424 . S
C97 C102 1.245 . S
C97 C103 1.428 . S
C98 C101 1.260 . S
C98 C102 1.477 . S
C98 H116 0.932 . S
C99 C100 1.384 . S
C99 C101 1.479 . S
C99 H117 0.929 . S
C100 C97 1.424 . S
C100 C99 1.384 . S
C100 H118 0.928 . S
C101 C98 1.260 . S
C101 C99 1.479 . S
C102 C97 1.245 . S
C102 C98 1.477 . S
C102 H119 0.932 . S
C103 U86 2.882 . S
C103 C97 1.428 . S
C103 O106 1.301 . S
C103 O107 1.282 . S
O104 U86 2.441 . S
O104 C90 1.249 . S
O105 U86 2.420 . S
O105 C90 1.202 . S
O106 U86 2.455 . S
O106 C103 1.301 . S
O107 U86 2.449 . S
O107 C103 1.282 . S
H108 C81 0.931 . S
H109 C83 0.929 . S
H110 C84 0.930 . S
H111 C85 0.931 . S
H112 C92 0.932 . S
H113 C93 0.930 . S
H114 C94 0.929 . S
H115 C96 0.930 . S
H116 C98 0.932 . S
H117 C99 0.929 . S
H118 C100 0.928 . S
H119 C102 0.932 . S
C120 C121 1.264 . S
C120 C125 1.479 . S
C120 C130 1.465 . S
C121 C120 1.264 . S
C121 C123 1.339 . S
C121 H148 0.931 . S
C122 C123 1.395 . S
C122 C124 1.320 . S
C123 C121 1.339 . S
C123 C122 1.395 . S
C123 H149 0.929 . S
C124 C122 1.320 . S
C124 C125 1.405 . S
C124 H150 0.930 . S
C125 C120 1.479 . S
C125 C124 1.405 . S
C125 H151 0.931 . S
U126 O127 2.454 . S
U126 O128 2.458 . S
U126 C129 2.984 . S
U126 C130 2.847 . S
U126 C143 2.882 . S
U126 O144 2.441 . S
U126 O145 2.420 . S
U126 O146 2.455 . S
U126 O147 2.449 . S
O127 U126 2.454 . S
O127 C129 1.353 . S
O128 U126 2.458 . S
O128 C129 1.286 . S
C129 U126 2.984 . S
C129 O127 1.353 . S
C129 O128 1.286 . S
C129 C131 1.363 . S
C130 C120 1.465 . S
C130 U126 2.847 . S
C130 O144 1.249 . S
C130 O145 1.202 . S
C131 C129 1.363 . S
C131 C133 1.408 . S
C131 C136 1.342 . S
C132 C133 1.310 . S
C132 C135 1.461 . S
C132 H152 0.932 . S
C133 C131 1.408 . S
C133 C132 1.310 . S
C133 H153 0.930 . S
C134 C135 1.474 . S
C134 C136 1.285 . S
C134 H154 0.929 . S
C135 C132 1.461 . S
C135 C134 1.474 . S
C136 C131 1.342 . S
C136 C134 1.285 . S
C136 H155 0.930 . S
C137 C140 1.424 . S
C137 C142 1.245 . S
C137 C143 1.428 . S
C138 C141 1.260 . S
C138 C142 1.477 . S
C138 H156 0.932 . S
C139 C140 1.384 . S
C139 C141 1.479 . S
C139 H157 0.929 . S
C140 C137 1.424 . S
C140 C139 1.384 . S
C140 H158 0.928 . S
C141 C138 1.260 . S
C141 C139 1.479 . S
C142 C137 1.245 . S
C142 C138 1.477 . S
C142 H159 0.932 . S
C143 U126 2.882 . S
C143 C137 1.428 . S
C143 O146 1.301 . S
C143 O147 1.282 . S
O144 U126 2.441 . S
O144 C130 1.249 . S
O145 U126 2.420 . S
O145 C130 1.202 . S
O146 U126 2.455 . S
O146 C143 1.301 . S
O147 U126 2.449 . S
O147 C143 1.282 . S
H148 C121 0.931 . S
H149 C123 0.929 . S
H150 C124 0.930 . S
H151 C125 0.931 . S
H152 C132 0.932 . S
H153 C133 0.930 . S
H154 C134 0.929 . S
H155 C136 0.930 . S
H156 C138 0.932 . S
H157 C139 0.929 . S
H158 C140 0.928 . S
H159 C142 0.932 . S
C160 C161 1.264 . S
C160 C165 1.479 . S
C160 C170 1.465 . S
C161 C160 1.264 . S
C161 C163 1.339 . S
C161 H188 0.931 . S
C162 C163 1.395 . S
C162 C164 1.320 . S
C163 C161 1.339 . S
C163 C162 1.395 . S
C163 H189 0.929 . S
C164 C162 1.320 . S
C164 C165 1.405 . S
C164 H190 0.930 . S
C165 C160 1.479 . S
C165 C164 1.405 . S
C165 H191 0.931 . S
U166 O167 2.454 . S
U166 O168 2.458 . S
U166 C169 2.984 . S
U166 C170 2.847 . S
U166 C183 2.882 . S
U166 O184 2.441 . S
U166 O185 2.420 . S
U166 O186 2.455 . S
U166 O187 2.449 . S
O167 U166 2.454 . S
O167 C169 1.353 . S
O168 U166 2.458 . S
O168 C169 1.286 . S
C169 U166 2.984 . S
C169 O167 1.353 . S
C169 O168 1.286 . S
C169 C171 1.363 . S
C170 C160 1.465 . S
C170 U166 2.847 . S
C170 O184 1.249 . S
C170 O185 1.202 . S
C171 C169 1.363 . S
C171 C173 1.408 . S
C171 C176 1.342 . S
C172 C173 1.310 . S
C172 C175 1.461 . S
C172 H192 0.932 . S
C173 C171 1.408 . S
C173 C172 1.310 . S
C173 H193 0.930 . S
C174 C175 1.474 . S
C174 C176 1.285 . S
C174 H194 0.929 . S
C175 C172 1.461 . S
C175 C174 1.474 . S
C176 C171 1.342 . S
C176 C174 1.285 . S
C176 H195 0.930 . S
C177 C180 1.424 . S
C177 C182 1.245 . S
C177 C183 1.428 . S
C178 C181 1.260 . S
C178 C182 1.477 . S
C178 H196 0.932 . S
C179 C180 1.384 . S
C179 C181 1.479 . S
C179 H197 0.929 . S
C180 C177 1.424 . S
C180 C179 1.384 . S
C180 H198 0.928 . S
C181 C178 1.260 . S
C181 C179 1.479 . S
C182 C177 1.245 . S
C182 C178 1.477 . S
C182 H199 0.932 . S
C183 U166 2.882 . S
C183 C177 1.428 . S
C183 O186 1.301 . S
C183 O187 1.282 . S
O184 U166 2.441 . S
O184 C170 1.249 . S
O185 U166 2.420 . S
O185 C170 1.202 . S
O186 U166 2.455 . S
O186 C183 1.301 . S
O187 U166 2.449 . S
O187 C183 1.282 . S
H188 C161 0.931 . S
H189 C163 0.929 . S
H190 C164 0.930 . S
H191 C165 0.931 . S
H192 C172 0.932 . S
H193 C173 0.930 . S
H194 C174 0.929 . S
H195 C176 0.930 . S
H196 C178 0.932 . S
H197 C179 0.929 . S
H198 C180 0.928 . S
H199 C182 0.932 . S
C200 C201 1.264 . S
C200 C205 1.479 . S
C200 C210 1.465 . S
C201 C200 1.264 . S
C201 C203 1.339 . S
C201 H228 0.931 . S
C202 C203 1.395 . S
C202 C204 1.320 . S
C203 C201 1.339 . S
C203 C202 1.395 . S
C203 H229 0.929 . S
C204 C202 1.320 . S
C204 C205 1.405 . S
C204 H230 0.930 . S
C205 C200 1.479 . S
C205 C204 1.405 . S
C205 H231 0.931 . S
U206 O207 2.454 . S
U206 O208 2.458 . S
U206 C209 2.984 . S
U206 C210 2.847 . S
U206 C223 2.882 . S
U206 O224 2.441 . S
U206 O225 2.420 . S
U206 O226 2.455 . S
U206 O227 2.449 . S
O207 U206 2.454 . S
O207 C209 1.353 . S
O208 U206 2.458 . S
O208 C209 1.286 . S
C209 U206 2.984 . S
C209 O207 1.353 . S
C209 O208 1.286 . S
C209 C211 1.363 . S
C210 C200 1.465 . S
C210 U206 2.847 . S
C210 O224 1.249 . S
C210 O225 1.202 . S
C211 C209 1.363 . S
C211 C213 1.408 . S
C211 C216 1.342 . S
C212 C213 1.310 . S
C212 C215 1.461 . S
C212 H232 0.932 . S
C213 C211 1.408 . S
C213 C212 1.310 . S
C213 H233 0.930 . S
C214 C215 1.474 . S
C214 C216 1.285 . S
C214 H234 0.929 . S
C215 C212 1.461 . S
C215 C214 1.474 . S
C216 C211 1.342 . S
C216 C214 1.285 . S
C216 H235 0.930 . S
C217 C220 1.424 . S
C217 C222 1.245 . S
C217 C223 1.428 . S
C218 C221 1.260 . S
C218 C222 1.477 . S
C218 H236 0.932 . S
C219 C220 1.384 . S
C219 C221 1.479 . S
C219 H237 0.929 . S
C220 C217 1.424 . S
C220 C219 1.384 . S
C220 H238 0.928 . S
C221 C218 1.260 . S
C221 C219 1.479 . S
C222 C217 1.245 . S
C222 C218 1.477 . S
C222 H239 0.932 . S
C223 U206 2.882 . S
C223 C217 1.428 . S
C223 O226 1.301 . S
C223 O227 1.282 . S
O224 U206 2.441 . S
O224 C210 1.249 . S
O225 U206 2.420 . S
O225 C210 1.202 . S
O226 U206 2.455 . S
O226 C223 1.301 . S
O227 U206 2.449 . S
O227 C223 1.282 . S
H228 C201 0.931 . S
H229 C203 0.929 . S
H230 C204 0.930 . S
H231 C205 0.931 . S
H232 C212 0.932 . S
H233 C213 0.930 . S
H234 C214 0.929 . S
H235 C216 0.930 . S
H236 C218 0.932 . S
H237 C219 0.929 . S
H238 C220 0.928 . S
H239 C222 0.932 . S
C240 C241 1.264 . S
C240 C245 1.479 . S
C240 C250 1.465 . S
C241 C240 1.264 . S
C241 C243 1.339 . S
C241 H268 0.931 . S
C242 C243 1.395 . S
C242 C244 1.320 . S
C243 C241 1.339 . S
C243 C242 1.395 . S
C243 H269 0.929 . S
C244 C242 1.320 . S
C244 C245 1.405 . S
C244 H270 0.930 . S
C245 C240 1.479 . S
C245 C244 1.405 . S
C245 H271 0.931 . S
U246 O247 2.454 . S
U246 O248 2.458 . S
U246 C249 2.984 . S
U246 C250 2.847 . S
U246 C263 2.882 . S
U246 O264 2.441 . S
U246 O265 2.420 . S
U246 O266 2.455 . S
U246 O267 2.449 . S
O247 U246 2.454 . S
O247 C249 1.353 . S
O248 U246 2.458 . S
O248 C249 1.286 . S
C249 U246 2.984 . S
C249 O247 1.353 . S
C249 O248 1.286 . S
C249 C251 1.363 . S
C250 C240 1.465 . S
C250 U246 2.847 . S
C250 O264 1.249 . S
C250 O265 1.202 . S
C251 C249 1.363 . S
C251 C253 1.408 . S
C251 C256 1.342 . S
C252 C253 1.310 . S
C252 C255 1.461 . S
C252 H272 0.932 . S
C253 C251 1.408 . S
C253 C252 1.310 . S
C253 H273 0.930 . S
C254 C255 1.474 . S
C254 C256 1.285 . S
C254 H274 0.929 . S
C255 C252 1.461 . S
C255 C254 1.474 . S
C256 C251 1.342 . S
C256 C254 1.285 . S
C256 H275 0.930 . S
C257 C260 1.424 . S
C257 C262 1.245 . S
C257 C263 1.428 . S
C258 C261 1.260 . S
C258 C262 1.477 . S
C258 H276 0.932 . S
C259 C260 1.384 . S
C259 C261 1.479 . S
C259 H277 0.929 . S
C260 C257 1.424 . S
C260 C259 1.384 . S
C260 H278 0.928 . S
C261 C258 1.260 . S
C261 C259 1.479 . S
C262 C257 1.245 . S
C262 C258 1.477 . S
C262 H279 0.932 . S
C263 U246 2.882 . S
C263 C257 1.428 . S
C263 O266 1.301 . S
C263 O267 1.282 . S
O264 U246 2.441 . S
O264 C250 1.249 . S
O265 U246 2.420 . S
O265 C250 1.202 . S
O266 U246 2.455 . S
O266 C263 1.301 . S
O267 U246 2.449 . S
O267 C263 1.282 . S
H268 C241 0.931 . S
H269 C243 0.929 . S
H270 C244 0.930 . S
H271 C245 0.931 . S
H272 C252 0.932 . S
H273 C253 0.930 . S
H274 C254 0.929 . S
H275 C256 0.930 . S
H276 C258 0.932 . S
H277 C259 0.929 . S
H278 C260 0.928 . S
H279 C262 0.932 . S
C280 C281 1.264 . S
C280 C285 1.479 . S
C280 C290 1.465 . S
C281 C280 1.264 . S
C281 C283 1.339 . S
C281 H308 0.931 . S
C282 C283 1.395 . S
C282 C284 1.320 . S
C283 C281 1.339 . S
C283 C282 1.395 . S
C283 H309 0.929 . S
C284 C282 1.320 . S
C284 C285 1.405 . S
C284 H310 0.930 . S
C285 C280 1.479 . S
C285 C284 1.405 . S
C285 H311 0.931 . S
U286 O287 2.454 . S
U286 O288 2.458 . S
U286 C289 2.984 . S
U286 C290 2.847 . S
U286 C303 2.882 . S
U286 O304 2.441 . S
U286 O305 2.420 . S
U286 O306 2.455 . S
U286 O307 2.449 . S
O287 U286 2.454 . S
O287 C289 1.353 . S
O288 U286 2.458 . S
O288 C289 1.286 . S
C289 U286 2.984 . S
C289 O287 1.353 . S
C289 O288 1.286 . S
C289 C291 1.363 . S
C290 C280 1.465 . S
C290 U286 2.847 . S
C290 O304 1.249 . S
C290 O305 1.202 . S
C291 C289 1.363 . S
C291 C293 1.408 . S
C291 C296 1.342 . S
C292 C293 1.310 . S
C292 C295 1.461 . S
C292 H312 0.932 . S
C293 C291 1.408 . S
C293 C292 1.310 . S
C293 H313 0.930 . S
C294 C295 1.474 . S
C294 C296 1.285 . S
C294 H314 0.929 . S
C295 C292 1.461 . S
C295 C294 1.474 . S
C296 C291 1.342 . S
C296 C294 1.285 . S
C296 H315 0.930 . S
C297 C300 1.424 . S
C297 C302 1.245 . S
C297 C303 1.428 . S
C298 C301 1.260 . S
C298 C302 1.477 . S
C298 H316 0.932 . S
C299 C300 1.384 . S
C299 C301 1.479 . S
C299 H317 0.929 . S
C300 C297 1.424 . S
C300 C299 1.384 . S
C300 H318 0.928 . S
C301 C298 1.260 . S
C301 C299 1.479 . S
C302 C297 1.245 . S
C302 C298 1.477 . S
C302 H319 0.932 . S
C303 U286 2.882 . S
C303 C297 1.428 . S
C303 O306 1.301 . S
C303 O307 1.282 . S
O304 U286 2.441 . S
O304 C290 1.249 . S
O305 U286 2.420 . S
O305 C290 1.202 . S
O306 U286 2.455 . S
O306 C303 1.301 . S
O307 U286 2.449 . S
O307 C303 1.282 . S
H308 C281 0.931 . S
H309 C283 0.929 . S
H310 C284 0.930 . S
H311 C285 0.931 . S
H312 C292 0.932 . S
H313 C293 0.930 . S
H314 C294 0.929 . S
H315 C296 0.930 . S
H316 C298 0.932 . S
H317 C299 0.929 . S
H318 C300 0.928 . S
H319 C302 0.932 . S
Co320 O323 2.042 . S
Co320 O330 2.264 . S
Co320 O349 2.286 . S
Co320 O350 2.069 . S
Co320 O352 2.015 . S
Co321 O323 2.122 . S
Co321 O329 2.073 . S
Co321 O330 2.327 . S
Co321 O331 1.976 . S
Co322 O323 2.087 . S
Co322 O325 2.087 1_455 S
Co322 O332 2.111 . S
Co322 O333 2.143 1_455 S
Co322 O337 2.111 1_455 S
Co322 O351 2.143 . S
O323 Co320 2.042 . S
O323 Co321 2.122 . S
O323 Co322 2.087 . S
O323 H324 0.980 . S
H324 O323 0.980 . S
O325 Co322 2.087 1_655 S
O325 Co326 2.042 . S
O325 Co327 2.122 . S
O325 H328 0.980 . S
Co326 O325 2.042 . S
Co326 O334 2.286 . S
Co326 O335 2.069 . S
Co326 O336 2.015 . S
Co326 O339 2.264 . S
Co327 O325 2.122 . S
Co327 O338 1.976 . S
Co327 O339 2.327 . S
Co327 O340 2.073 . S
H328 O325 0.980 . S
O329 Co321 2.073 . S
O329 C344 1.245 . S
O330 Co320 2.264 . S
O330 Co321 2.327 . S
O330 C344 1.257 . S
O331 Co321 1.976 . S
O331 C343 1.251 . S
O332 Co322 2.111 . S
O332 C343 1.274 . S
O333 Co322 2.143 1_655 S
O333 C346 1.246 . S
O334 Co326 2.286 . S
O334 C345 1.259 . S
O335 Co326 2.069 . S
O335 C345 1.289 . S
O336 Co326 2.015 . S
O336 C346 1.257 . S
O337 Co322 2.111 1_655 S
O337 C347 1.274 . S
O338 Co327 1.976 . S
O338 C347 1.251 . S
O339 Co326 2.264 . S
O339 Co327 2.327 . S
O339 C348 1.257 . S
O340 Co327 2.073 . S
O340 C348 1.245 . S
C341 O349 1.259 . S
C341 O350 1.289 . S
C342 O351 1.246 . S
C342 O352 1.257 . S
C343 O331 1.251 . S
C343 O332 1.274 . S
C344 O329 1.245 . S
C344 O330 1.257 . S
C345 O334 1.259 . S
C345 O335 1.289 . S
C346 O333 1.246 . S
C346 O336 1.257 . S
C347 O337 1.274 . S
C347 O338 1.251 . S
C348 O339 1.257 . S
C348 O340 1.245 . S
O349 Co320 2.286 . S
O349 C341 1.259 . S
O350 Co320 2.069 . S
O350 C341 1.289 . S
O351 Co322 2.143 . S
O351 C342 1.246 . S
O352 Co320 2.015 . S
O352 C342 1.257 . S
Co353 O356 2.042 . S
Co353 O363 2.264 . S
Co353 O382 2.286 . S
Co353 O383 2.069 . S
Co353 O385 2.015 . S
Co354 O356 2.122 . S
Co354 O362 2.073 . S
Co354 O363 2.327 . S
Co354 O364 1.976 . S
Co355 O356 2.087 1_545 S
Co355 O358 2.087 . S
Co355 O365 2.111 1_545 S
Co355 O366 2.143 . S
Co355 O370 2.111 . S
Co355 O384 2.143 1_545 S
O356 Co353 2.042 . S
O356 Co354 2.122 . S
O356 Co355 2.087 1_565 S
O356 H357 0.980 . S
H357 O356 0.980 . S
O358 Co355 2.087 . S
O358 Co359 2.042 . S
O358 Co360 2.122 . S
O358 H361 0.980 . S
Co359 O358 2.042 . S
Co359 O367 2.286 . S
Co359 O368 2.069 . S
Co359 O369 2.015 . S
Co359 O372 2.264 . S
Co360 O358 2.122 . S
Co360 O371 1.976 . S
Co360 O372 2.327 . S
Co360 O373 2.073 . S
H361 O358 0.980 . S
O362 Co354 2.073 . S
O362 C377 1.245 . S
O363 Co353 2.264 . S
O363 Co354 2.327 . S
O363 C377 1.257 . S
O364 Co354 1.976 . S
O364 C376 1.251 . S
O365 Co355 2.111 1_565 S
O365 C376 1.274 . S
O366 Co355 2.143 . S
O366 C379 1.246 . S
O367 Co359 2.286 . S
O367 C378 1.259 . S
O368 Co359 2.069 . S
O368 C378 1.289 . S
O369 Co359 2.015 . S
O369 C379 1.257 . S
O370 Co355 2.111 . S
O370 C380 1.274 . S
O371 Co360 1.976 . S
O371 C380 1.251 . S
O372 Co359 2.264 . S
O372 Co360 2.327 . S
O372 C381 1.257 . S
O373 Co360 2.073 . S
O373 C381 1.245 . S
C374 O382 1.259 . S
C374 O383 1.289 . S
C375 O384 1.246 . S
C375 O385 1.257 . S
C376 O364 1.251 . S
C376 O365 1.274 . S
C377 O362 1.245 . S
C377 O363 1.257 . S
C378 O367 1.259 . S
C378 O368 1.289 . S
C379 O366 1.246 . S
C379 O369 1.257 . S
C380 O370 1.274 . S
C380 O371 1.251 . S
C381 O372 1.257 . S
C381 O373 1.245 . S
O382 Co353 2.286 . S
O382 C374 1.259 . S
O383 Co353 2.069 . S
O383 C374 1.289 . S
O384 Co355 2.143 1_565 S
O384 C375 1.246 . S
O385 Co353 2.015 . S
O385 C375 1.257 . S
Co386 O389 2.042 . S
Co386 O396 2.264 . S
Co386 O415 2.286 . S
Co386 O416 2.069 . S
Co386 O418 2.015 . S
Co387 O389 2.122 . S
Co387 O395 2.073 . S
Co387 O396 2.327 . S
Co387 O397 1.976 . S
Co388 O389 2.087 . S
Co388 O391 2.087 1_554 S
Co388 O398 2.111 . S
Co388 O399 2.143 1_554 S
Co388 O403 2.111 1_554 S
Co388 O417 2.143 . S
O389 Co386 2.042 . S
O389 Co387 2.122 . S
O389 Co388 2.087 . S
O389 H390 0.980 . S
H390 O389 0.980 . S
O391 Co388 2.087 1_556 S
O391 Co392 2.042 . S
O391 Co393 2.122 . S
O391 H394 0.980 . S
Co392 O391 2.042 . S
Co392 O400 2.286 . S
Co392 O401 2.069 . S
Co392 O402 2.015 . S
Co392 O405 2.264 . S
Co393 O391 2.122 . S
Co393 O404 1.976 . S
Co393 O405 2.327 . S
Co393 O406 2.073 . S
H394 O391 0.980 . S
O395 Co387 2.073 . S
O395 C410 1.245 . S
O396 Co386 2.264 . S
O396 Co387 2.327 . S
O396 C410 1.257 . S
O397 Co387 1.976 . S
O397 C409 1.251 . S
O398 Co388 2.111 . S
O398 C409 1.274 . S
O399 Co388 2.143 1_556 S
O399 C412 1.246 . S
O400 Co392 2.286 . S
O400 C411 1.259 . S
O401 Co392 2.069 . S
O401 C411 1.289 . S
O402 Co392 2.015 . S
O402 C412 1.257 . S
O403 Co388 2.111 1_556 S
O403 C413 1.274 . S
O404 Co393 1.976 . S
O404 C413 1.251 . S
O405 Co392 2.264 . S
O405 Co393 2.327 . S
O405 C414 1.257 . S
O406 Co393 2.073 . S
O406 C414 1.245 . S
C407 O415 1.259 . S
C407 O416 1.289 . S
C408 O417 1.246 . S
C408 O418 1.257 . S
C409 O397 1.251 . S
C409 O398 1.274 . S
C410 O395 1.245 . S
C410 O396 1.257 . S
C411 O400 1.259 . S
C411 O401 1.289 . S
C412 O399 1.246 . S
C412 O402 1.257 . S
C413 O403 1.274 . S
C413 O404 1.251 . S
C414 O405 1.257 . S
C414 O406 1.245 . S
O415 Co386 2.286 . S
O415 C407 1.259 . S
O416 Co386 2.069 . S
O416 C407 1.289 . S
O417 Co388 2.143 . S
O417 C408 1.246 . S
O418 Co386 2.015 . S
O418 C408 1.257 . S
H419 C425 0.930 . S
H420 C429 0.930 . S
H421 C434 0.929 . S
H422 C432 0.929 . S
H423 C427 0.929 . S
H424 C433 0.929 . S
C425 H419 0.930 . S
C425 C426 1.367 . S
C425 C433 1.378 . S
C426 C425 1.367 . S
C426 C434 1.433 . S
C427 H423 0.929 . S
C427 C429 1.378 . S
C427 C431 1.350 . S
C428 C431 1.463 . S
C428 C433 1.350 . S
C428 N436 1.427 . S
C429 H420 0.930 . S
C429 C427 1.378 . S
C429 C430 1.367 . S
C430 C429 1.367 . S
C430 C432 1.433 . S
C431 C427 1.350 . S
C431 C428 1.463 . S
C431 N435 1.427 . S
C432 H422 0.929 . S
C432 C430 1.433 . S
C432 N435 1.384 . S
C433 H424 0.929 . S
C433 C425 1.378 . S
C433 C428 1.350 . S
C434 H421 0.929 . S
C434 C426 1.433 . S
C434 N436 1.384 . S
N435 C431 1.427 . S
N435 C432 1.384 . S
N436 C428 1.427 . S
N436 C434 1.384 . S
H437 C443 0.930 . S
H438 C447 0.930 . S
H439 C452 0.929 . S
H440 C450 0.929 . S
H441 C445 0.929 . S
H442 C451 0.929 . S
C443 H437 0.930 . S
C443 C444 1.367 . S
C443 C451 1.378 . S
C444 C443 1.367 . S
C444 C452 1.433 . S
C445 H441 0.929 . S
C445 C447 1.378 . S
C445 C449 1.350 . S
C446 C449 1.463 . S
C446 C451 1.350 . S
C446 N454 1.427 . S
C447 H438 0.930 . S
C447 C445 1.378 . S
C447 C448 1.367 . S
C448 C447 1.367 . S
C448 C450 1.433 . S
C449 C445 1.350 . S
C449 C446 1.463 . S
C449 N453 1.427 . S
C450 H440 0.929 . S
C450 C448 1.433 . S
C450 N453 1.384 . S
C451 H442 0.929 . S
C451 C443 1.378 . S
C451 C446 1.350 . S
C452 H439 0.929 . S
C452 C444 1.433 . S
C452 N454 1.384 . S
N453 C449 1.427 . S
N453 C450 1.384 . S
N454 C446 1.427 . S
N454 C452 1.384 . S
H455 C461 0.930 . S
H456 C465 0.930 . S
H457 C470 0.929 . S
H458 C468 0.929 . S
H459 C463 0.929 . S
H460 C469 0.929 . S
C461 H455 0.930 . S
C461 C462 1.367 . S
C461 C469 1.378 . S
C462 C461 1.367 . S
C462 C470 1.433 . S
C463 H459 0.929 . S
C463 C465 1.378 . S
C463 C467 1.350 . S
C464 C467 1.463 . S
C464 C469 1.350 . S
C464 N472 1.427 . S
C465 H456 0.930 . S
C465 C463 1.378 . S
C465 C466 1.367 . S
C466 C465 1.367 . S
C466 C468 1.433 . S
C467 C463 1.350 . S
C467 C464 1.463 . S
C467 N471 1.427 . S
C468 H458 0.929 . S
C468 C466 1.433 . S
C468 N471 1.384 . S
C469 H460 0.929 . S
C469 C461 1.378 . S
C469 C464 1.350 . S
C470 H457 0.929 . S
C470 C462 1.433 . S
C470 N472 1.384 . S
N471 C467 1.427 . S
N471 C468 1.384 . S
N472 C464 1.427 . S
N472 C470 1.384 . S
H473 C479 0.930 . S
H474 C483 0.930 . S
H475 C488 0.929 . S
H476 C486 0.929 . S
H477 C481 0.929 . S
H478 C487 0.929 . S
C479 H473 0.930 . S
C479 C480 1.367 . S
C479 C487 1.378 . S
C480 C479 1.367 . S
C480 C488 1.433 . S
C481 H477 0.929 . S
C481 C483 1.378 . S
C481 C485 1.350 . S
C482 C485 1.463 . S
C482 C487 1.350 . S
C482 N490 1.427 . S
C483 H474 0.930 . S
C483 C481 1.378 . S
C483 C484 1.367 . S
C484 C483 1.367 . S
C484 C486 1.433 . S
C485 C481 1.350 . S
C485 C482 1.463 . S
C485 N489 1.427 . S
C486 H476 0.929 . S
C486 C484 1.433 . S
C486 N489 1.384 . S
C487 H478 0.929 . S
C487 C479 1.378 . S
C487 C482 1.350 . S
C488 H475 0.929 . S
C488 C480 1.433 . S
C488 N490 1.384 . S
N489 C485 1.427 . S
N489 C486 1.384 . S
N490 C482 1.427 . S
N490 C488 1.384 . S
H491 C497 0.930 . S
H492 C501 0.930 . S
H493 C506 0.929 . S
H494 C504 0.929 . S
H495 C499 0.929 . S
H496 C505 0.929 . S
C497 H491 0.930 . S
C497 C498 1.367 . S
C497 C505 1.378 . S
C498 C497 1.367 . S
C498 C506 1.433 . S
C499 H495 0.929 . S
C499 C501 1.378 . S
C499 C503 1.350 . S
C500 C503 1.463 . S
C500 C505 1.350 . S
C500 N508 1.427 . S
C501 H492 0.930 . S
C501 C499 1.378 . S
C501 C502 1.367 . S
C502 C501 1.367 . S
C502 C504 1.433 . S
C503 C499 1.350 . S
C503 C500 1.463 . S
C503 N507 1.427 . S
C504 H494 0.929 . S
C504 C502 1.433 . S
C504 N507 1.384 . S
C505 H496 0.929 . S
C505 C497 1.378 . S
C505 C500 1.350 . S
C506 H493 0.929 . S
C506 C498 1.433 . S
C506 N508 1.384 . S
N507 C503 1.427 . S
N507 C504 1.384 . S
N508 C500 1.427 . S
N508 C506 1.384 . S
H509 C515 0.930 . S
H510 C519 0.930 . S
H511 C524 0.929 . S
H512 C522 0.929 . S
H513 C517 0.929 . S
H514 C523 0.929 . S
C515 H509 0.930 . S
C515 C516 1.367 . S
C515 C523 1.378 . S
C516 C515 1.367 . S
C516 C524 1.433 . S
C517 H513 0.929 . S
C517 C519 1.378 . S
C517 C521 1.350 . S
C518 C521 1.463 . S
C518 C523 1.350 . S
C518 N526 1.427 . S
C519 H510 0.930 . S
C519 C517 1.378 . S
C519 C520 1.367 . S
C520 C519 1.367 . S
C520 C522 1.433 . S
C521 C517 1.350 . S
C521 C518 1.463 . S
C521 N525 1.427 . S
C522 H512 0.929 . S
C522 C520 1.433 . S
C522 N525 1.384 . S
C523 H514 0.929 . S
C523 C515 1.378 . S
C523 C518 1.350 . S
C524 H511 0.929 . S
C524 C516 1.433 . S
C524 N526 1.384 . S
N525 C521 1.427 . S
N525 C522 1.384 . S
N526 C518 1.427 . S
N526 C524 1.384 . S
H527 C533 0.930 . S
H528 C537 0.930 . S
H529 C542 0.929 . S
H530 C540 0.929 . S
H531 C535 0.929 . S
H532 C541 0.929 . S
C533 H527 0.930 . S
C533 C534 1.367 . S
C533 C541 1.378 . S
C534 C533 1.367 . S
C534 C542 1.433 . S
C535 H531 0.929 . S
C535 C537 1.378 . S
C535 C539 1.350 . S
C536 C539 1.463 . S
C536 C541 1.350 . S
C536 N544 1.427 . S
C537 H528 0.930 . S
C537 C535 1.378 . S
C537 C538 1.367 . S
C538 C537 1.367 . S
C538 C540 1.433 . S
C539 C535 1.350 . S
C539 C536 1.463 . S
C539 N543 1.427 . S
C540 H530 0.929 . S
C540 C538 1.433 . S
C540 N543 1.384 . S
C541 H532 0.929 . S
C541 C533 1.378 . S
C541 C536 1.350 . S
C542 H529 0.929 . S
C542 C534 1.433 . S
C542 N544 1.384 . S
N543 C539 1.427 . S
N543 C540 1.384 . S
N544 C536 1.427 . S
N544 C542 1.384 . S
H545 C551 0.930 . S
H546 C555 0.930 . S
H547 C560 0.929 . S
H548 C558 0.929 . S
H549 C553 0.929 . S
H550 C559 0.929 . S
C551 H545 0.930 . S
C551 C552 1.367 . S
C551 C559 1.378 . S
C552 C551 1.367 . S
C552 C560 1.433 . S
C553 H549 0.929 . S
C553 C555 1.378 . S
C553 C557 1.350 . S
C554 C557 1.463 . S
C554 C559 1.350 . S
C554 N562 1.427 . S
C555 H546 0.930 . S
C555 C553 1.378 . S
C555 C556 1.367 . S
C556 C555 1.367 . S
C556 C558 1.433 . S
C557 C553 1.350 . S
C557 C554 1.463 . S
C557 N561 1.427 . S
C558 H548 0.929 . S
C558 C556 1.433 . S
C558 N561 1.384 . S
C559 H550 0.929 . S
C559 C551 1.378 . S
C559 C554 1.350 . S
C560 H547 0.929 . S
C560 C552 1.433 . S
C560 N562 1.384 . S
N561 C557 1.427 . S
N561 C558 1.384 . S
N562 C554 1.427 . S
N562 C560 1.384 . S
H563 C569 0.930 . S
H564 C573 0.930 . S
H565 C578 0.929 . S
H566 C576 0.929 . S
H567 C571 0.929 . S
H568 C577 0.929 . S
C569 H563 0.930 . S
C569 C570 1.367 . S
C569 C577 1.378 . S
C570 C569 1.367 . S
C570 C578 1.433 . S
C571 H567 0.929 . S
C571 C573 1.378 . S
C571 C575 1.350 . S
C572 C575 1.463 . S
C572 C577 1.350 . S
C572 N580 1.427 . S
C573 H564 0.930 . S
C573 C571 1.378 . S
C573 C574 1.367 . S
C574 C573 1.367 . S
C574 C576 1.433 . S
C575 C571 1.350 . S
C575 C572 1.463 . S
C575 N579 1.427 . S
C576 H566 0.929 . S
C576 C574 1.433 . S
C576 N579 1.384 . S
C577 H568 0.929 . S
C577 C569 1.378 . S
C577 C572 1.350 . S
C578 H565 0.929 . S
C578 C570 1.433 . S
C578 N580 1.384 . S
N579 C575 1.427 . S
N579 C576 1.384 . S
N580 C572 1.427 . S
N580 C578 1.384 . S
H581 C587 0.930 . S
H582 C591 0.930 . S
H583 C596 0.929 . S
H584 C594 0.929 . S
H585 C589 0.929 . S
H586 C595 0.929 . S
C587 H581 0.930 . S
C587 C588 1.367 . S
C587 C595 1.378 . S
C588 C587 1.367 . S
C588 C596 1.433 . S
C589 H585 0.929 . S
C589 C591 1.378 . S
C589 C593 1.350 . S
C590 C593 1.463 . S
C590 C595 1.350 . S
C590 N598 1.427 . S
C591 H582 0.930 . S
C591 C589 1.378 . S
C591 C592 1.367 . S
C592 C591 1.367 . S
C592 C594 1.433 . S
C593 C589 1.350 . S
C593 C590 1.463 . S
C593 N597 1.427 . S
C594 H584 0.929 . S
C594 C592 1.433 . S
C594 N597 1.384 . S
C595 H586 0.929 . S
C595 C587 1.378 . S
C595 C590 1.350 . S
C596 H583 0.929 . S
C596 C588 1.433 . S
C596 N598 1.384 . S
N597 C593 1.427 . S
N597 C594 1.384 . S
N598 C590 1.427 . S
N598 C596 1.384 . S
H599 C605 0.930 . S
H600 C609 0.930 . S
H601 C614 0.929 . S
H602 C612 0.929 . S
H603 C607 0.929 . S
H604 C613 0.929 . S
C605 H599 0.930 . S
C605 C606 1.367 . S
C605 C613 1.378 . S
C606 C605 1.367 . S
C606 C614 1.433 . S
C607 H603 0.929 . S
C607 C609 1.378 . S
C607 C611 1.350 . S
C608 C611 1.463 . S
C608 C613 1.350 . S
C608 N616 1.427 . S
C609 H600 0.930 . S
C609 C607 1.378 . S
C609 C610 1.367 . S
C610 C609 1.367 . S
C610 C612 1.433 . S
C611 C607 1.350 . S
C611 C608 1.463 . S
C611 N615 1.427 . S
C612 H602 0.929 . S
C612 C610 1.433 . S
C612 N615 1.384 . S
C613 H604 0.929 . S
C613 C605 1.378 . S
C613 C608 1.350 . S
C614 H601 0.929 . S
C614 C606 1.433 . S
C614 N616 1.384 . S
N615 C611 1.427 . S
N615 C612 1.384 . S
N616 C608 1.427 . S
N616 C614 1.384 . S
H617 C623 0.930 . S
H618 C627 0.930 . S
H619 C632 0.929 . S
H620 C630 0.929 . S
H621 C625 0.929 . S
H622 C631 0.929 . S
C623 H617 0.930 . S
C623 C624 1.367 . S
C623 C631 1.378 . S
C624 C623 1.367 . S
C624 C632 1.433 . S
C625 H621 0.929 . S
C625 C627 1.378 . S
C625 C629 1.350 . S
C626 C629 1.463 . S
C626 C631 1.350 . S
C626 N634 1.427 . S
C627 H618 0.930 . S
C627 C625 1.378 . S
C627 C628 1.367 . S
C628 C627 1.367 . S
C628 C630 1.433 . S
C629 C625 1.350 . S
C629 C626 1.463 . S
C629 N633 1.427 . S
C630 H620 0.929 . S
C630 C628 1.433 . S
C630 N633 1.384 . S
C631 H622 0.929 . S
C631 C623 1.378 . S
C631 C626 1.350 . S
C632 H619 0.929 . S
C632 C624 1.433 . S
C632 N634 1.384 . S
N633 C629 1.427 . S
N633 C630 1.384 . S
N634 C626 1.427 . S
N634 C632 1.384 . S
H635 C641 0.930 . S
H636 C645 0.930 . S
H637 C650 0.929 . S
H638 C648 0.929 . S
H639 C643 0.929 . S
H640 C649 0.929 . S
C641 H635 0.930 . S
C641 C642 1.367 . S
C641 C649 1.378 . S
C642 C641 1.367 . S
C642 C650 1.433 . S
C643 H639 0.929 . S
C643 C645 1.378 . S
C643 C647 1.350 . S
C644 C647 1.463 . S
C644 C649 1.350 . S
C644 N652 1.427 . S
C645 H636 0.930 . S
C645 C643 1.378 . S
C645 C646 1.367 . S
C646 C645 1.367 . S
C646 C648 1.433 . S
C647 C643 1.350 . S
C647 C644 1.463 . S
C647 N651 1.427 . S
C648 H638 0.929 . S
C648 C646 1.433 . S
C648 N651 1.384 . S
C649 H640 0.929 . S
C649 C641 1.378 . S
C649 C644 1.350 . S
C650 H637 0.929 . S
C650 C642 1.433 . S
C650 N652 1.384 . S
N651 C647 1.427 . S
N651 C648 1.384 . S
N652 C644 1.427 . S
N652 C650 1.384 . S
H653 C659 0.930 . S
H654 C663 0.930 . S
H655 C668 0.929 . S
H656 C666 0.929 . S
H657 C661 0.929 . S
H658 C667 0.929 . S
C659 H653 0.930 . S
C659 C660 1.367 . S
C659 C667 1.378 . S
C660 C659 1.367 . S
C660 C668 1.433 . S
C661 H657 0.929 . S
C661 C663 1.378 . S
C661 C665 1.350 . S
C662 C665 1.463 . S
C662 C667 1.350 . S
C662 N670 1.427 . S
C663 H654 0.930 . S
C663 C661 1.378 . S
C663 C664 1.367 . S
C664 C663 1.367 . S
C664 C666 1.433 . S
C665 C661 1.350 . S
C665 C662 1.463 . S
C665 N669 1.427 . S
C666 H656 0.929 . S
C666 C664 1.433 . S
C666 N669 1.384 . S
C667 H658 0.929 . S
C667 C659 1.378 . S
C667 C662 1.350 . S
C668 H655 0.929 . S
C668 C660 1.433 . S
C668 N670 1.384 . S
N669 C665 1.427 . S
N669 C666 1.384 . S
N670 C662 1.427 . S
N670 C668 1.384 . S
H671 C677 0.930 . S
H672 C681 0.930 . S
H673 C686 0.929 . S
H674 C684 0.929 . S
H675 C679 0.929 . S
H676 C685 0.929 . S
C677 H671 0.930 . S
C677 C678 1.367 . S
C677 C685 1.378 . S
C678 C677 1.367 . S
C678 C686 1.433 . S
C679 H675 0.929 . S
C679 C681 1.378 . S
C679 C683 1.350 . S
C680 C683 1.463 . S
C680 C685 1.350 . S
C680 N688 1.427 . S
C681 H672 0.930 . S
C681 C679 1.378 . S
C681 C682 1.367 . S
C682 C681 1.367 . S
C682 C684 1.433 . S
C683 C679 1.350 . S
C683 C680 1.463 . S
C683 N687 1.427 . S
C684 H674 0.929 . S
C684 C682 1.433 . S
C684 N687 1.384 . S
C685 H676 0.929 . S
C685 C677 1.378 . S
C685 C680 1.350 . S
C686 H673 0.929 . S
C686 C678 1.433 . S
C686 N688 1.384 . S
N687 C683 1.427 . S
N687 C684 1.384 . S
N688 C680 1.427 . S
N688 C686 1.384 . S
H689 C695 0.930 . S
H690 C699 0.930 . S
H691 C704 0.929 . S
H692 C702 0.929 . S
H693 C697 0.929 . S
H694 C703 0.929 . S
C695 H689 0.930 . S
C695 C696 1.367 . S
C695 C703 1.378 . S
C696 C695 1.367 . S
C696 C704 1.433 . S
C697 H693 0.929 . S
C697 C699 1.378 . S
C697 C701 1.350 . S
C698 C701 1.463 . S
C698 C703 1.350 . S
C698 N706 1.427 . S
C699 H690 0.930 . S
C699 C697 1.378 . S
C699 C700 1.367 . S
C700 C699 1.367 . S
C700 C702 1.433 . S
C701 C697 1.350 . S
C701 C698 1.463 . S
C701 N705 1.427 . S
C702 H692 0.929 . S
C702 C700 1.433 . S
C702 N705 1.384 . S
C703 H694 0.929 . S
C703 C695 1.378 . S
C703 C698 1.350 . S
C704 H691 0.929 . S
C704 C696 1.433 . S
C704 N706 1.384 . S
N705 C701 1.427 . S
N705 C702 1.384 . S
N706 C698 1.427 . S
N706 C704 1.384 . S
H707 C713 0.930 . S
H708 C717 0.930 . S
H709 C722 0.929 . S
H710 C720 0.929 . S
H711 C715 0.929 . S
H712 C721 0.929 . S
C713 H707 0.930 . S
C713 C714 1.367 . S
C713 C721 1.378 . S
C714 C713 1.367 . S
C714 C722 1.433 . S
C715 H711 0.929 . S
C715 C717 1.378 . S
C715 C719 1.350 . S
C716 C719 1.463 . S
C716 C721 1.350 . S
C716 N724 1.427 . S
C717 H708 0.930 . S
C717 C715 1.378 . S
C717 C718 1.367 . S
C718 C717 1.367 . S
C718 C720 1.433 . S
C719 C715 1.350 . S
C719 C716 1.463 . S
C719 N723 1.427 . S
C720 H710 0.929 . S
C720 C718 1.433 . S
C720 N723 1.384 . S
C721 H712 0.929 . S
C721 C713 1.378 . S
C721 C716 1.350 . S
C722 H709 0.929 . S
C722 C714 1.433 . S
C722 N724 1.384 . S
N723 C719 1.427 . S
N723 C720 1.384 . S
N724 C716 1.427 . S
N724 C722 1.384 . S
H725 C731 0.930 . S
H726 C735 0.930 . S
H727 C740 0.929 . S
H728 C738 0.929 . S
H729 C733 0.929 . S
H730 C739 0.929 . S
C731 H725 0.930 . S
C731 C732 1.367 . S
C731 C739 1.378 . S
C732 C731 1.367 . S
C732 C740 1.433 . S
C733 H729 0.929 . S
C733 C735 1.378 . S
C733 C737 1.350 . S
C734 C737 1.463 . S
C734 C739 1.350 . S
C734 N742 1.427 . S
C735 H726 0.930 . S
C735 C733 1.378 . S
C735 C736 1.367 . S
C736 C735 1.367 . S
C736 C738 1.433 . S
C737 C733 1.350 . S
C737 C734 1.463 . S
C737 N741 1.427 . S
C738 H728 0.929 . S
C738 C736 1.433 . S
C738 N741 1.384 . S
C739 H730 0.929 . S
C739 C731 1.378 . S
C739 C734 1.350 . S
C740 H727 0.929 . S
C740 C732 1.433 . S
C740 N742 1.384 . S
N741 C737 1.427 . S
N741 C738 1.384 . S
N742 C734 1.427 . S
N742 C740 1.384 . S
H743 C749 0.930 . S
H744 C753 0.930 . S
H745 C758 0.929 . S
H746 C756 0.929 . S
H747 C751 0.929 . S
H748 C757 0.929 . S
C749 H743 0.930 . S
C749 C750 1.367 . S
C749 C757 1.378 . S
C750 C749 1.367 . S
C750 C758 1.433 . S
C751 H747 0.929 . S
C751 C753 1.378 . S
C751 C755 1.350 . S
C752 C755 1.463 . S
C752 C757 1.350 . S
C752 N760 1.427 . S
C753 H744 0.930 . S
C753 C751 1.378 . S
C753 C754 1.367 . S
C754 C753 1.367 . S
C754 C756 1.433 . S
C755 C751 1.350 . S
C755 C752 1.463 . S
C755 N759 1.427 . S
C756 H746 0.929 . S
C756 C754 1.433 . S
C756 N759 1.384 . S
C757 H748 0.929 . S
C757 C749 1.378 . S
C757 C752 1.350 . S
C758 H745 0.929 . S
C758 C750 1.433 . S
C758 N760 1.384 . S
N759 C755 1.427 . S
N759 C756 1.384 . S
N760 C752 1.427 . S
N760 C758 1.384 . S
H761 C767 0.930 . S
H762 C771 0.930 . S
H763 C776 0.929 . S
H764 C774 0.929 . S
H765 C769 0.929 . S
H766 C775 0.929 . S
C767 H761 0.930 . S
C767 C768 1.367 . S
C767 C775 1.378 . S
C768 C767 1.367 . S
C768 C776 1.433 . S
C769 H765 0.929 . S
C769 C771 1.378 . S
C769 C773 1.350 . S
C770 C773 1.463 . S
C770 C775 1.350 . S
C770 N778 1.427 . S
C771 H762 0.930 . S
C771 C769 1.378 . S
C771 C772 1.367 . S
C772 C771 1.367 . S
C772 C774 1.433 . S
C773 C769 1.350 . S
C773 C770 1.463 . S
C773 N777 1.427 . S
C774 H764 0.929 . S
C774 C772 1.433 . S
C774 N777 1.384 . S
C775 H766 0.929 . S
C775 C767 1.378 . S
C775 C770 1.350 . S
C776 H763 0.929 . S
C776 C768 1.433 . S
C776 N778 1.384 . S
N777 C773 1.427 . S
N777 C774 1.384 . S
N778 C770 1.427 . S
N778 C776 1.384 . S
H779 C785 0.930 . S
H780 C789 0.930 . S
H781 C794 0.929 . S
H782 C792 0.929 . S
H783 C787 0.929 . S
H784 C793 0.929 . S
C785 H779 0.930 . S
C785 C786 1.367 . S
C785 C793 1.378 . S
C786 C785 1.367 . S
C786 C794 1.433 . S
C787 H783 0.929 . S
C787 C789 1.378 . S
C787 C791 1.350 . S
C788 C791 1.463 . S
C788 C793 1.350 . S
C788 N796 1.427 . S
C789 H780 0.930 . S
C789 C787 1.378 . S
C789 C790 1.367 . S
C790 C789 1.367 . S
C790 C792 1.433 . S
C791 C787 1.350 . S
C791 C788 1.463 . S
C791 N795 1.427 . S
C792 H782 0.929 . S
C792 C790 1.433 . S
C792 N795 1.384 . S
C793 H784 0.929 . S
C793 C785 1.378 . S
C793 C788 1.350 . S
C794 H781 0.929 . S
C794 C786 1.433 . S
C794 N796 1.384 . S
N795 C791 1.427 . S
N795 C792 1.384 . S
N796 C788 1.427 . S
N796 C794 1.384 . S
H797 C803 0.930 . S
H798 C807 0.930 . S
H799 C812 0.929 . S
H800 C810 0.929 . S
H801 C805 0.929 . S
H802 C811 0.929 . S
C803 H797 0.930 . S
C803 C804 1.367 . S
C803 C811 1.378 . S
C804 C803 1.367 . S
C804 C812 1.433 . S
C805 H801 0.929 . S
C805 C807 1.378 . S
C805 C809 1.350 . S
C806 C809 1.463 . S
C806 C811 1.350 . S
C806 N814 1.427 . S
C807 H798 0.930 . S
C807 C805 1.378 . S
C807 C808 1.367 . S
C808 C807 1.367 . S
C808 C810 1.433 . S
C809 C805 1.350 . S
C809 C806 1.463 . S
C809 N813 1.427 . S
C810 H800 0.929 . S
C810 C808 1.433 . S
C810 N813 1.384 . S
C811 H802 0.929 . S
C811 C803 1.378 . S
C811 C806 1.350 . S
C812 H799 0.929 . S
C812 C804 1.433 . S
C812 N814 1.384 . S
N813 C809 1.427 . S
N813 C810 1.384 . S
N814 C806 1.427 . S
N814 C812 1.384 . S
H815 C821 0.930 . S
H816 C825 0.930 . S
H817 C830 0.929 . S
H818 C828 0.929 . S
H819 C823 0.929 . S
H820 C829 0.929 . S
C821 H815 0.930 . S
C821 C822 1.367 . S
C821 C829 1.378 . S
C822 C821 1.367 . S
C822 C830 1.433 . S
C823 H819 0.929 . S
C823 C825 1.378 . S
C823 C827 1.350 . S
C824 C827 1.463 . S
C824 C829 1.350 . S
C824 N832 1.427 . S
C825 H816 0.930 . S
C825 C823 1.378 . S
C825 C826 1.367 . S
C826 C825 1.367 . S
C826 C828 1.433 . S
C827 C823 1.350 . S
C827 C824 1.463 . S
C827 N831 1.427 . S
C828 H818 0.929 . S
C828 C826 1.433 . S
C828 N831 1.384 . S
C829 H820 0.929 . S
C829 C821 1.378 . S
C829 C824 1.350 . S
C830 H817 0.929 . S
C830 C822 1.433 . S
C830 N832 1.384 . S
N831 C827 1.427 . S
N831 C828 1.384 . S
N832 C824 1.427 . S
N832 C830 1.384 . S
H833 C839 0.930 . S
H834 C843 0.930 . S
H835 C848 0.929 . S
H836 C846 0.929 . S
H837 C841 0.929 . S
H838 C847 0.929 . S
C839 H833 0.930 . S
C839 C840 1.367 . S
C839 C847 1.378 . S
C840 C839 1.367 . S
C840 C848 1.433 . S
C841 H837 0.929 . S
C841 C843 1.378 . S
C841 C845 1.350 . S
C842 C845 1.463 . S
C842 C847 1.350 . S
C842 N850 1.427 . S
C843 H834 0.930 . S
C843 C841 1.378 . S
C843 C844 1.367 . S
C844 C843 1.367 . S
C844 C846 1.433 . S
C845 C841 1.350 . S
C845 C842 1.463 . S
C845 N849 1.427 . S
C846 H836 0.929 . S
C846 C844 1.433 . S
C846 N849 1.384 . S
C847 H838 0.929 . S
C847 C839 1.378 . S
C847 C842 1.350 . S
C848 H835 0.929 . S
C848 C840 1.433 . S
C848 N850 1.384 . S
N849 C845 1.427 . S
N849 C846 1.384 . S
N850 C842 1.427 . S
N850 C848 1.384 . S
C430 C344 1.089 . S
C426 C15 1.133 . S
C448 C380 1.619 . S
C444 C55 1.704 . S
C466 C345 1.475 . S
C462 C101 1.479 . S
C484 C375 1.605 . S
C480 C141 1.580 . S
C502 C342 1.460 . S
C498 C162 1.524 . S
C516 C215 1.752 . S
C520 C378 1.763 . S
C534 C261 1.185 . S
C538 C347 1.128 . S
C556 C377 1.460 . S
C552 C282 1.460 . S
C574 C381 1.498 . S
C570 C2 1.538 . S
C592 C346 1.502 . S
C588 C61 1.502 . S
C610 C374 1.763 . S
C606 C95 1.742 . S
C628 C343 1.109 . S
C624 C122 1.149 . S
C646 C376 1.679 . S
C642 C181 1.781 . S
C660 C202 1.487 . S
C664 C341 1.478 . S
C678 C242 1.540 . S
C682 C379 1.578 . S
C700 C348 1.043 . S
C696 C295 1.069 . S
C718 C410 1.751 . S
C714 C21 1.859 . S
C732 C175 1.980 . S
C736 C413 1.861 . S
C754 C412 1.814 . S
C750 C221 1.884 . S
C768 C255 2.103 . S
C772 C411 2.108 . S
C790 C414 1.708 . S
C786 C301 1.780 . S
C804 C82 1.779 . S
C808 C408 1.725 . S
C826 C407 2.132 . S
C822 C135 2.128 . S
C840 C42 1.954 . S
C844 C409 1.913 . S
