# Generated by pormake.
# Topology rtl, (3,6)-cn, num edge types: 1
# Building blocks:
#     Node 0, Type 0, BuildingBlock: OLANEW_clean_sbu_2, # of connection points: 3
#     Node 1, Type 0, BuildingBlock: OLANEW_clean_sbu_2, # of connection points: 3
#     Node 2, Type 0, BuildingBlock: OLANEW_clean_sbu_2, # of connection points: 3
#     Node 3, Type 0, BuildingBlock: OLANEW_clean_sbu_2, # of connection points: 3
#     Node 4, Type 1, BuildingBlock: KUMBUR_clean_sbu_1, # of connection points: 6
#     Node 5, Type 1, BuildingBlock: KUMBUR_clean_sbu_1, # of connection points: 6
#     Edge 6, Type (0, 1), BuildingBlock: KIFKEQ_clean_linker_1, # of connection points: 2
#     Edge 7, Type (0, 1), BuildingBlock: KIFKEQ_clean_linker_1, # of connection points: 2
#     Edge 8, Type (0, 1), BuildingBlock: KIFKEQ_clean_linker_1, # of connection points: 2
#     Edge 9, Type (0, 1), BuildingBlock: KIFKEQ_clean_linker_1, # of connection points: 2
#     Edge 10, Type (0, 1), BuildingBlock: KIFKEQ_clean_linker_1, # of connection points: 2
#     Edge 11, Type (0, 1), BuildingBlock: KIFKEQ_clean_linker_1, # of connection points: 2
#     Edge 12, Type (0, 1), BuildingBlock: KIFKEQ_clean_linker_1, # of connection points: 2
#     Edge 13, Type (0, 1), BuildingBlock: KIFKEQ_clean_linker_1, # of connection points: 2
#     Edge 14, Type (0, 1), BuildingBlock: KIFKEQ_clean_linker_1, # of connection points: 2
#     Edge 15, Type (0, 1), BuildingBlock: KIFKEQ_clean_linker_1, # of connection points: 2
#     Edge 16, Type (0, 1), BuildingBlock: KIFKEQ_clean_linker_1, # of connection points: 2
#     Edge 17, Type (0, 1), BuildingBlock: KIFKEQ_clean_linker_1, # of connection points: 2
# Relax obj value: 0.043
# Max RMSD: 0.165
# Mean RMSD: 0.131
data_MOF--net-rtl--node1-OLANEW_clean_sbu_2--node2-KUMBUR_clean_sbu_1--edge1-KIFKEQ_clean_linker_1
_symmetry_space_group_name_H-M    P1
_symmetry_Int_Tables_number       1
_symmetry_cell_setting            triclinic
loop_
_symmetry_equiv_pos_as_xyz
'x, y, z'
_cell_length_a     38.337612
_cell_length_b     38.156004
_cell_length_c     29.612415
_cell_angle_alpha  75.903496
_cell_angle_beta   102.57014
_cell_angle_gamma 91.288514
loop_
_atom_site_label
_atom_site_type_symbol
_atom_site_fract_x
_atom_site_fract_y
_atom_site_fract_z
_atom_type_partial_charge
O0 O 0.20805 0.82878 0.97082 0.0
Cd1 Cd 0.23903 0.78824 0.04541 0.0
O2 O 0.17279 0.85337 0.00509 0.0
Cd3 Cd 0.19293 0.82694 0.08005 0.0
O4 O 0.17524 0.83507 0.14212 0.0
C5 C 0.16593 0.86762 0.1383 0.0
O6 O 0.17005 0.8924 0.10048 0.0
C7 C 0.18262 0.85065 0.96776 0.0
C8 C 0.29141 0.7453 0.03036 0.0
O9 O 0.25856 0.73654 0.02374 0.0
O10 O 0.29957 0.77437 0.04412 0.0
O11 O 0.65246 0.74396 0.70667 0.0
Cd12 Cd 0.66718 0.7894 0.63894 0.0
O13 O 0.64213 0.70821 0.65827 0.0
Cd14 Cd 0.62534 0.6635 0.62464 0.0
O15 O 0.62367 0.63284 0.57045 0.0
C16 C 0.604 0.64409 0.52892 0.0
O17 O 0.58333 0.67307 0.52001 0.0
C18 C 0.64149 0.71383 0.69877 0.0
C19 C 0.73539 0.81827 0.64289 0.0
O20 O 0.71196 0.83137 0.65979 0.0
O21 O 0.72726 0.79035 0.62635 0.0
O22 O 0.75999 0.13404 0.17292 0.0
Cd23 Cd 0.72153 0.15616 0.09366 0.0
O24 O 0.80073 0.12792 0.13393 0.0
Cd25 Cd 0.85079 0.11219 0.11914 0.0
O26 O 0.88749 0.10194 0.07646 0.0
C27 C 0.88349 0.07408 0.05972 0.0
O28 O 0.85857 0.05142 0.07066 0.0
C29 C 0.79181 0.12488 0.17362 0.0
C30 C 0.68543 0.22141 0.08218 0.0
O31 O 0.67054 0.19114 0.09405 0.0
O32 O 0.71753 0.22079 0.07625 0.0
O33 O 0.30618 0.31804 0.52067 0.0
Cd34 Cd 0.28672 0.28505 0.45822 0.0
O35 O 0.35721 0.33136 0.49865 0.0
Cd36 Cd 0.34608 0.31584 0.4308 0.0
O37 O 0.3617 0.33673 0.36258 0.0
C38 C 0.37698 0.36688 0.35991 0.0
O39 O 0.3808 0.38171 0.39631 0.0
C40 C 0.33693 0.33171 0.5273 0.0
C41 C 0.23401 0.23451 0.47603 0.0
O42 O 0.2672 0.2266 0.49443 0.0
O43 O 0.22559 0.26644 0.44962 0.0
Tb44 Tb 0.02163 0.97368 0.54485 0.0
C45 C 0.91961 0.10203 0.54267 0.0
N46 N 0.95552 0.09685 0.55077 0.0
C47 C 0.96024 0.15559 0.50034 0.0
C48 C 0.90222 0.13359 0.51115 0.0
C49 C 0.97621 0.12373 0.53197 0.0
C50 C 0.92302 0.16034 0.48935 0.0
C51 C 0.86318 0.08001 0.56025 0.0
C52 C 0.90049 0.07567 0.56677 0.0
C53 C 0.84536 0.11077 0.52754 0.0
C54 C 0.86486 0.13755 0.50307 0.0
Tb55 Tb 0.97898 0.04386 0.60226 0.0
N56 N 0.91879 0.0466 0.5983 0.0
C57 C 0.84514 0.05379 0.58772 0.0
C58 C 0.9017 0.02244 0.62768 0.0
C59 C 0.8646 0.02517 0.62214 0.0
H60 H 0.00497 0.12031 0.54073 0.0
H61 H 0.85113 0.00551 0.64491 0.0
H62 H 0.97148 0.9008 0.57386 0.0
H63 H 0.16407 0.98856 0.58661 0.0
H64 H 0.91671 0.00148 0.65615 0.0
H65 H 0.81645 0.05607 0.5838 0.0
H66 H 0.10164 0.00626 0.54363 0.0
H67 H 0.97662 0.17647 0.48458 0.0
H68 H 0.81665 0.11447 0.52171 0.0
H69 H 0.85089 0.16145 0.47863 0.0
H70 H 0.9786 0.84364 0.63499 0.0
H71 H 0.91071 0.18502 0.46486 0.0
H72 H 0.17691 0.93153 0.64968 0.0
N73 N 0.0244 0.91779 0.59719 0.0
C74 C 0.05764 0.90647 0.62392 0.0
C75 C 1.00091 0.86142 0.63297 0.0
C76 C 0.06339 0.87298 0.65802 0.0
C77 C 0.99669 0.89463 0.59914 0.0
C78 C 0.03425 0.85084 0.66321 0.0
N79 N 0.0797 0.96033 0.5832 0.0
C80 C 0.1071 0.98151 0.57137 0.0
C81 C 0.12139 0.91682 0.64124 0.0
C82 C 0.08634 0.92797 0.61574 0.0
C83 C 0.14957 0.93913 0.63086 0.0
C84 C 0.14241 0.97143 0.59541 0.0
H85 H 0.0375 0.82491 0.68902 0.0
H86 H 0.10296 0.83676 0.71151 0.0
H87 H 0.15374 0.87518 0.69683 0.0
O88 O 0.04014 0.985 0.48104 0.0
O89 O 0.04835 0.98849 0.61085 0.0
O90 O 0.00222 0.99201 0.64627 0.0
O91 O 0.02471 0.93158 0.5114 0.0
O92 O 0.03458 0.03063 0.52083 0.0
O93 O 0.03113 0.05567 0.58397 0.0
O94 O 0.96591 0.06191 0.6587 0.0
O95 O 0.96672 0.05416 0.52379 0.0
O96 O 0.96992 0.99882 0.50475 0.0
O97 O 0.01751 0.07105 0.64174 0.0
O98 O 0.96257 0.98718 0.61733 0.0
O99 O 0.96586 0.9644 0.55255 0.0
C100 C 0.03529 0.98246 0.64921 0.0
C101 C 0.01711 0.9488 0.42815 0.0
C102 C 0.02079 0.93515 0.35299 0.0
C103 C 0.98349 0.94071 0.33746 0.0
C104 C 0.97992 0.95375 0.41248 0.0
C105 C 0.96326 0.94998 0.3671 0.0
C106 C 0.03736 0.93958 0.39845 0.0
C107 C 0.04347 0.05492 0.54597 0.0
C108 C 0.03542 0.95232 0.47566 0.0
C109 C 0.09811 0.86223 0.68482 0.0
C110 C 0.12706 0.88403 0.67633 0.0
C111 C 0.95859 0.03274 0.49445 0.0
C112 C 0.01555 0.05736 0.72349 0.0
C113 C 0.01321 0.04566 0.8077 0.0
C114 C 0.04687 0.02777 0.82013 0.0
C115 C 0.04954 0.03999 0.73691 0.0
C116 C 0.9977 0.06037 0.75916 0.0
C117 C 0.06489 0.02511 0.78489 0.0
C118 C 0.95035 0.96683 0.58749 0.0
C119 C 0.99828 0.07192 0.67264 0.0
H120 H 0.96987 0.93728 0.30279 0.0
H121 H 0.96386 0.96044 0.4353 0.0
H122 H 0.93456 0.95394 0.35501 0.0
H123 H 0.06614 0.93604 0.41078 0.0
H124 H 0.05957 0.01641 0.85716 0.0
H125 H 0.06426 0.0377 0.71039 0.0
H126 H 0.97149 0.0737 0.74905 0.0
H127 H 0.09093 0.01155 0.79481 0.0
Tb128 Tb 0.46992 0.49433 0.97438 0.0
C129 C 0.60378 0.58126 0.99834 0.0
N130 N 0.60019 0.54626 0.02039 0.0
C131 C 0.65334 0.52943 0.99952 0.0
C132 C 0.63147 0.59166 0.97392 0.0
C133 C 0.62518 0.52049 0.02298 0.0
C134 C 0.65625 0.56511 0.97432 0.0
C135 C 0.5829 0.6435 0.97979 0.0
C136 C 0.57987 0.60662 0.00127 0.0
C137 C 0.60923 0.65398 0.95312 0.0
C138 C 0.63357 0.6281 0.95031 0.0
Tb139 Tb 0.55292 0.53377 0.05631 0.0
N140 N 0.55512 0.59531 0.02778 0.0
C141 C 0.56029 0.66876 0.98728 0.0
C142 C 0.53556 0.62023 0.03898 0.0
C143 C 0.53706 0.65712 0.0179 0.0
H144 H 0.62294 0.49295 0.04242 0.0
H145 H 0.52073 0.67658 0.02592 0.0
H146 H 0.40523 0.55845 0.92958 0.0
H147 H 0.45666 0.35433 0.06032 0.0
H148 H 0.51907 0.61197 0.06472 0.0
H149 H 0.5617 0.69737 0.97141 0.0
H150 H 0.48306 0.40588 0.01145 0.0
H151 H 0.67271 0.50882 0.00076 0.0
H152 H 0.61165 0.68212 0.93572 0.0
H153 H 0.65424 0.63661 0.93054 0.0
H154 H 0.34926 0.57437 0.94962 0.0
H155 H 0.67793 0.57194 0.95594 0.0
H156 H 0.40435 0.36493 0.09242 0.0
N157 N 0.41527 0.50998 0.9847 0.0
C158 C 0.40067 0.48484 0.01556 0.0
C159 C 0.36379 0.54934 0.96917 0.0
C160 C 0.36804 0.4918 0.0268 0.0
C161 C 0.39589 0.54064 0.9586 0.0
C162 C 0.35027 0.5252 0.00441 0.0
N163 N 0.44675 0.44487 0.01742 0.0
C164 C 0.46022 0.41051 0.02533 0.0
C165 C 0.40064 0.42243 0.05973 0.0
C166 C 0.41658 0.45073 0.03173 0.0
C167 C 0.41579 0.38747 0.07098 0.0
C168 C 0.44531 0.38139 0.0529 0.0
H169 H 0.32514 0.53171 0.01204 0.0
H170 H 0.32857 0.4695 0.06751 0.0
H171 H 0.35726 0.40862 0.09654 0.0
O172 O 0.48139 0.47354 0.91936 0.0
O173 O 0.48921 0.46979 0.05103 0.0
O174 O 0.50619 0.51634 0.08638 0.0
O175 O 0.42737 0.48534 0.92064 0.0
O176 O 0.52151 0.46482 0.98917 0.0
O177 O 0.55879 0.47641 0.05766 0.0
O178 O 0.58076 0.55767 0.11117 0.0
O179 O 0.55229 0.52816 0.98393 0.0
O180 O 0.49538 0.54271 0.94064 0.0
O181 O 0.58437 0.49965 0.11758 0.0
O182 O 0.49881 0.55575 0.04825 0.0
O183 O 0.46799 0.55247 0.97303 0.0
C184 C 0.48987 0.4858 0.08561 0.0
C185 C 0.44039 0.491 0.84549 0.0
C186 C 0.4197 0.48373 0.76434 0.0
C187 C 0.42391 0.521 0.74684 0.0
C188 C 0.44445 0.52802 0.82745 0.0
C189 C 0.43626 0.54289 0.77825 0.0
C190 C 0.42813 0.46899 0.81401 0.0
C191 C 0.54932 0.45694 0.02582 0.0
C192 C 0.44814 0.47482 0.89702 0.0
C193 C 0.35332 0.46452 0.05778 0.0
C194 C 0.36959 0.42982 0.07417 0.0
C195 C 0.53008 0.54578 0.94522 0.0
C196 C 0.6188 0.5208 0.18395 0.0
C197 C 0.63657 0.53295 0.26305 0.0
C198 C 0.66445 0.50671 0.27466 0.0
C199 C 0.64665 0.49468 0.19651 0.0
C200 C 0.61398 0.54012 0.21711 0.0
C201 C 0.66948 0.48791 0.24151 0.0
C202 C 0.47333 0.5673 0.00974 0.0
C203 C 0.59393 0.52633 0.13716 0.0
H204 H 0.41725 0.53337 0.7089 0.0
H205 H 0.45375 0.54536 0.85134 0.0
H206 H 0.4393 0.57151 0.76439 0.0
H207 H 0.42556 0.4403 0.82833 0.0
H208 H 0.68195 0.50005 0.3098 0.0
H209 H 0.65071 0.47944 0.17151 0.0
H210 H 0.59238 0.56024 0.20736 0.0
H211 H 0.69086 0.46763 0.25101 0.0
H212 H 0.24059 0.17188 0.54608 0.0
H213 H 0.16482 0.23602 0.42595 0.0
H214 H 0.19468 0.12778 0.56153 0.0
H215 H 0.1191 0.19148 0.4411 0.0
H216 H 0.06236 0.07957 0.45972 0.0
H217 H 0.10874 0.12279 0.4413 0.0
H218 H 0.13461 0.13084 0.58765 0.0
H219 H 0.08826 0.08835 0.60595 0.0
C220 C 0.21421 0.17648 0.52284 0.0
C221 C 0.20629 0.20753 0.48493 0.0
C222 C 0.18794 0.15128 0.53177 0.0
C223 C 0.15338 0.15624 0.50247 0.0
C224 C 0.1456 0.1869 0.46402 0.0
C225 C 0.1717 0.21247 0.45559 0.0
C226 C 0.07799 0.0906 0.48788 0.0
C227 C 0.07155 0.08067 0.5342 0.0
C228 C 0.10437 0.11539 0.4773 0.0
C229 C 0.12526 0.13006 0.51311 0.0
C230 C 0.11907 0.11977 0.55946 0.0
C231 C 0.09235 0.09561 0.5698 0.0
H232 H 0.36342 0.74424 0.06584 0.0
H233 H 0.28205 0.69388 0.97908 0.0
H234 H 0.40888 0.70341 0.05803 0.0
H235 H 0.32779 0.65362 0.97054 0.0
H236 H 0.43232 0.61547 0.93301 0.0
H237 H 0.38824 0.66051 0.93482 0.0
H238 H 0.41595 0.63116 0.08871 0.0
H239 H 0.45847 0.58517 0.08715 0.0
C240 C 0.35531 0.72476 0.04467 0.0
C241 C 0.31916 0.72211 0.02329 0.0
C242 C 0.38129 0.70142 0.0403 0.0
C243 C 0.37172 0.67553 0.01363 0.0
C244 C 0.3358 0.67359 0.99098 0.0
C245 C 0.30968 0.69644 0.99614 0.0
C246 C 0.42864 0.61838 0.96716 0.0
C247 C 0.44834 0.59628 0.0099 0.0
C248 C 0.40364 0.64423 0.96816 0.0
C249 C 0.3988 0.64915 0.01191 0.0
C250 C 0.41937 0.62799 0.05454 0.0
C251 C 0.44368 0.60167 0.05356 0.0
H252 H 0.78534 0.8043 0.59549 0.0
H253 H 0.76279 0.87396 0.68151 0.0
H254 H 0.83891 0.83801 0.58353 0.0
H255 H 0.81623 0.90764 0.66941 0.0
H256 H 0.93279 0.93854 0.67338 0.0
H257 H 0.8826 0.90062 0.68919 0.0
H258 H 0.85214 0.90003 0.54015 0.0
H259 H 0.90211 0.93866 0.52417 0.0
C260 C 0.79199 0.82654 0.61228 0.0
C261 C 0.76972 0.83644 0.63944 0.0
C262 C 0.82254 0.84603 0.60508 0.0
C263 C 0.83174 0.87562 0.6253 0.0
C264 C 0.81006 0.88481 0.65365 0.0
C265 C 0.77935 0.86556 0.66047 0.0
C266 C 0.9151 0.93073 0.64385 0.0
C267 C 0.92088 0.9423 0.59731 0.0
C268 C 0.88645 0.90885 0.65298 0.0
C269 C 0.8632 0.89752 0.6159 0.0
C270 C 0.86969 0.90811 0.56957 0.0
C271 C 0.89821 0.93031 0.56036 0.0
H272 H 0.71309 0.28864 0.07545 0.0
H273 H 0.61371 0.23253 0.07174 0.0
H274 H 0.6806 0.34607 0.06149 0.0
H275 H 0.58131 0.29003 0.05732 0.0
H276 H 0.53591 0.40506 0.97489 0.0
H277 H 0.56899 0.34816 0.98926 0.0
H278 H 0.6436 0.37509 0.10676 0.0
H279 H 0.61032 0.43172 0.09335 0.0
C280 C 0.68434 0.28857 0.07167 0.0
C281 C 0.66594 0.25608 0.07469 0.0
C282 C 0.66581 0.32139 0.06387 0.0
C283 C 0.62848 0.32242 0.05819 0.0
C284 C 0.61007 0.28998 0.06115 0.0
C285 C 0.62864 0.2571 0.06968 0.0
C286 C 0.55929 0.39895 0.0039 0.0
C287 C 0.57026 0.42303 0.03309 0.0
C288 C 0.57816 0.36628 0.01214 0.0
C289 C 0.60874 0.35724 0.04918 0.0
C290 C 0.6202 0.38152 0.07777 0.0
C291 C 0.60103 0.41394 0.07006 0.0
H292 H 0.14505 0.82223 0.21426 0.0
H293 H 0.14487 0.93487 0.14031 0.0
H294 H 0.11014 0.83816 0.2666 0.0
H295 H 0.11073 0.9508 0.19311 0.0
H296 H 0.01454 0.96118 0.25676 0.0
H297 H 0.05057 0.94415 0.20657 0.0
H298 H 0.11312 0.86918 0.32984 0.0
H299 H 0.07615 0.88512 0.37964 0.0
C300 C 0.13796 0.85041 0.20954 0.0
C301 C 0.14758 0.87724 0.17296 0.0
C302 C 0.11803 0.85956 0.23961 0.0
C303 C 0.10736 0.89573 0.23376 0.0
C304 C 0.11788 0.92261 0.19799 0.0
C305 C 0.13771 0.91348 0.16794 0.0
C306 C 0.03571 0.94078 0.27304 0.0
C307 C 0.0425 0.92458 0.32222 0.0
C308 C 0.05667 0.93133 0.2444 0.0
C309 C 0.08489 0.90545 0.26425 0.0
C310 C 0.09146 0.88901 0.31335 0.0
C311 C 0.07051 0.89846 0.34198 0.0
H312 H 0.61557 0.72775 0.77143 0.0
H313 H 0.6333 0.64045 0.70887 0.0
H314 H 0.58789 0.68621 0.82904 0.0
H315 H 0.60479 0.59902 0.76592 0.0
H316 H 0.58812 0.53094 0.91335 0.0
H317 H 0.61548 0.5707 0.8533 0.0
H318 H 0.53192 0.65161 0.82871 0.0
H319 H 0.50473 0.61169 0.88899 0.0
C320 C 0.61354 0.69969 0.76986 0.0
C321 C 0.6262 0.68762 0.73489 0.0
C322 C 0.59735 0.67596 0.80265 0.0
C323 C 0.59365 0.63942 0.80166 0.0
C324 C 0.60712 0.62705 0.76753 0.0
C325 C 0.62312 0.65091 0.73443 0.0
C326 C 0.5755 0.55712 0.89469 0.0
C327 C 0.54447 0.56842 0.90581 0.0
C328 C 0.59103 0.5798 0.86019 0.0
C329 C 0.576 0.61441 0.83638 0.0
C330 C 0.5444 0.62528 0.84682 0.0
C331 C 0.52861 0.60237 0.8809 0.0
H332 H 0.86499 0.1282 0.19425 0.0
H333 H 0.7756 0.09028 0.25779 0.0
H334 H 0.90597 0.10589 0.27129 0.0
H335 H 0.81643 0.06779 0.3347 0.0
H336 H 0.89347 0.06676 0.47421 0.0
H337 H 0.85447 0.09023 0.39624 0.0
H338 H 0.93049 0.05095 0.33 0.0
H339 H 0.97053 0.0298 0.40845 0.0
C340 C 0.85415 0.11437 0.22437 0.0
C341 C 0.81711 0.11049 0.21974 0.0
C342 C 0.87763 0.10175 0.26865 0.0
C343 C 0.86452 0.08507 0.30927 0.0
C344 C 0.82744 0.08102 0.3044 0.0
C345 C 0.80403 0.09374 0.26025 0.0
C346 C 0.90228 0.06424 0.44294 0.0
C347 C 0.93521 0.0472 0.44718 0.0
C348 C 0.87961 0.07692 0.39822 0.0
C349 C 0.88924 0.07239 0.35671 0.0
C350 C 0.92237 0.05527 0.3611 0.0
C351 C 0.94511 0.04278 0.40596 0.0
H352 H 0.40422 0.35278 0.55927 0.0
H353 H 0.29721 0.35233 0.58404 0.0
H354 H 0.42383 0.3875 0.61832 0.0
H355 H 0.31676 0.38816 0.64263 0.0
H356 H 0.3731 0.42798 0.77413 0.0
H357 H 0.35358 0.3886 0.72029 0.0
H358 H 0.41644 0.44814 0.62411 0.0
H359 H 0.43727 0.48621 0.67885 0.0
C360 C 0.38482 0.36006 0.57739 0.0
C361 C 0.34903 0.34999 0.56659 0.0
C362 C 0.39606 0.38024 0.61108 0.0
C363 C 0.37179 0.39119 0.63473 0.0
C364 C 0.33622 0.38006 0.62525 0.0
C365 C 0.32497 0.35959 0.59158 0.0
C366 C 0.38307 0.4324 0.74174 0.0
C367 C 0.40689 0.46024 0.73096 0.0
C368 C 0.37153 0.41007 0.71059 0.0
C369 C 0.38353 0.41504 0.66792 0.0
C370 C 0.40707 0.4431 0.65701 0.0
C371 C 0.41866 0.46532 0.68813 0.0
H372 H 0.56375 0.65947 0.43756 0.0
H373 H 0.65016 0.5894 0.53212 0.0
H374 H 0.57069 0.63362 0.37214 0.0
H375 H 0.65684 0.56346 0.46681 0.0
H376 H 0.68691 0.55816 0.32749 0.0
H377 H 0.67761 0.58417 0.39151 0.0
H378 H 0.56345 0.57627 0.34567 0.0
H379 H 0.57271 0.54968 0.28185 0.0
C380 C 0.58404 0.63837 0.44452 0.0
C381 C 0.6065 0.62662 0.49007 0.0
C382 C 0.58791 0.62348 0.40703 0.0
C383 C 0.61449 0.5967 0.41418 0.0
C384 C 0.63647 0.58446 0.45996 0.0
C385 C 0.63245 0.59916 0.49749 0.0
C386 C 0.6598 0.56177 0.33114 0.0
C387 C 0.63059 0.55156 0.29964 0.0
C388 C 0.65449 0.57666 0.36789 0.0
C389 C 0.61982 0.58195 0.37398 0.0
C390 C 0.59049 0.57274 0.34173 0.0
C391 C 0.59582 0.55763 0.30504 0.0
H392 H 0.88315 0.01637 0.02017 0.0
H393 H 0.93143 0.11968 0.02148 0.0
H394 H 0.915 0.00917 0.95996 0.0
H395 H 0.96352 0.11224 0.96158 0.0
H396 H 0.97859 0.10557 0.81388 0.0
H397 H 0.94829 0.11164 0.87617 0.0
H398 H 0.9762 1.00016 0.94968 0.0
H399 H 0.00577 0.99384 0.88675 0.0
C400 C 0.90077 0.03741 0.00792 0.0
C401 C 0.90465 0.06865 0.02554 0.0
C402 C 0.91913 0.0332 0.97355 0.0
C403 C 0.94164 0.06021 0.95586 0.0
C404 C 0.94599 0.09118 0.97405 0.0
C405 C 0.92778 0.09531 0.00862 0.0
C406 C 0.97798 0.08229 0.84313 0.0
C407 C 0.99452 0.04923 0.84539 0.0
C408 C 0.96099 0.08587 0.87908 0.0
C409 C 0.95998 0.05641 0.91794 0.0
C410 C 0.97633 0.02328 0.92004 0.0
C411 C 0.99351 0.01975 0.88423 0.0
H412 H 0.41226 0.43003 0.34659 0.0
H413 H 0.37472 0.34416 0.27808 0.0
H414 H 0.43846 0.45864 0.27964 0.0
H415 H 0.40041 0.37347 0.21013 0.0
H416 H 0.48892 0.41411 0.12764 0.0
H417 H 0.45929 0.38543 0.19183 0.0
H418 H 0.42273 0.49056 0.19654 0.0
H419 H 0.45271 0.51901 0.13259 0.0
C420 C 0.40931 0.41736 0.31703 0.0
C421 C 0.39146 0.3847 0.3178 0.0
C422 C 0.42418 0.43396 0.27842 0.0
C423 C 0.42154 0.41839 0.23947 0.0
C424 C 0.4033 0.38592 0.23988 0.0
C425 C 0.38841 0.36923 0.27866 0.0
C426 C 0.47433 0.43094 0.14233 0.0
C427 C 0.47289 0.46866 0.12523 0.0
C428 C 0.45726 0.41457 0.17892 0.0
C429 C 0.43856 0.43568 0.19929 0.0
C430 C 0.43727 0.47353 0.18206 0.0
C431 C 0.45443 0.48985 0.14554 0.0
H432 H 0.12572 0.8974 0.94981 0.0
H433 H 0.19516 0.85278 0.87923 0.0
H434 H 0.09126 0.93062 0.87277 0.0
H435 H 0.16018 0.8861 0.80179 0.0
H436 H 0.10785 0.9826 0.67709 0.0
H437 H 0.14515 0.9512 0.75384 0.0
H438 H 0.05025 0.91277 0.8041 0.0
H439 H 0.01311 0.94336 0.72703 0.0
C440 C 0.13375 0.89472 0.9179 0.0
C441 C 0.16313 0.87223 0.92072 0.0
C442 C 0.11384 0.91365 0.87377 0.0
C443 C 0.1229 0.91067 0.83143 0.0
C444 C 0.15278 0.88898 0.83403 0.0
C445 C 0.17268 0.86983 0.8783 0.0
C446 C 0.09509 0.96697 0.70437 0.0
C447 C 0.05773 0.96473 0.69595 0.0
C448 C 0.11638 0.94916 0.74824 0.0
C449 C 0.10057 0.92947 0.78475 0.0
C450 C 0.06312 0.92795 0.77662 0.0
C451 C 0.04189 0.94541 0.73259 0.0
loop_
_geom_bond_atom_site_label_1
_geom_bond_atom_site_label_2
_geom_bond_distance
_geom_bond_site_symmetry_2
_ccdc_geom_bond_type
O0 Cd1 2.300 1_556 S
O0 C7 1.275 . S
Cd1 O0 2.300 1_554 S
Cd1 O9 2.381 . S
Cd1 O10 2.378 . S
O2 Cd3 2.385 1_556 S
O2 C7 1.255 . S
Cd3 O2 2.385 1_554 S
Cd3 O4 2.317 . S
O4 Cd3 2.317 . S
O4 C5 1.232 . S
C5 O4 1.232 . S
C5 O6 1.218 . S
O6 C5 1.218 . S
C7 O0 1.275 . S
C7 O2 1.255 . S
C8 O9 1.258 . S
C8 O10 1.256 . S
O9 Cd1 2.381 . S
O9 C8 1.258 . S
O10 Cd1 2.378 . S
O10 C8 1.256 . S
O11 Cd12 2.300 . S
O11 C18 1.275 . S
Cd12 O11 2.300 . S
Cd12 O20 2.381 . S
Cd12 O21 2.378 . S
O13 Cd14 2.385 . S
O13 C18 1.255 . S
Cd14 O13 2.385 . S
Cd14 O15 2.317 . S
O15 Cd14 2.317 . S
O15 C16 1.232 . S
C16 O15 1.232 . S
C16 O17 1.218 . S
O17 C16 1.218 . S
C18 O11 1.275 . S
C18 O13 1.255 . S
C19 O20 1.258 . S
C19 O21 1.256 . S
O20 Cd12 2.381 . S
O20 C19 1.258 . S
O21 Cd12 2.378 . S
O21 C19 1.256 . S
O22 Cd23 2.300 . S
O22 C29 1.275 . S
Cd23 O22 2.300 . S
Cd23 O31 2.381 . S
Cd23 O32 2.378 . S
O24 Cd25 2.385 . S
O24 C29 1.255 . S
Cd25 O24 2.385 . S
Cd25 O26 2.317 . S
O26 Cd25 2.317 . S
O26 C27 1.232 . S
C27 O26 1.232 . S
C27 O28 1.218 . S
O28 C27 1.218 . S
C29 O22 1.275 . S
C29 O24 1.255 . S
C30 O31 1.258 . S
C30 O32 1.256 . S
O31 Cd23 2.381 . S
O31 C30 1.258 . S
O32 Cd23 2.378 . S
O32 C30 1.256 . S
O33 Cd34 2.300 . S
O33 C40 1.275 . S
Cd34 O33 2.300 . S
Cd34 O42 2.381 . S
Cd34 O43 2.378 . S
O35 Cd36 2.385 . S
O35 C40 1.255 . S
Cd36 O35 2.385 . S
Cd36 O37 2.317 . S
O37 Cd36 2.317 . S
O37 C38 1.232 . S
C38 O37 1.232 . S
C38 O39 1.218 . S
O39 C38 1.218 . S
C40 O33 1.275 . S
C40 O35 1.255 . S
C41 O42 1.258 . S
C41 O43 1.256 . S
O42 Cd34 2.381 . S
O42 C41 1.258 . S
O43 Cd34 2.378 . S
O43 C41 1.256 . S
Tb44 N73 2.617 . S
Tb44 N79 2.572 . S
Tb44 O88 2.465 . S
Tb44 O89 2.387 . S
Tb44 O91 2.428 . S
Tb44 O92 2.308 1_565 S
Tb44 O96 2.349 1_465 S
Tb44 O99 2.393 1_455 S
Tb44 C108 2.802 . S
C45 N46 1.379 . S
C45 C48 1.416 . S
C45 C52 1.424 . S
N46 C45 1.379 . S
N46 C49 1.334 1_655 S
N46 Tb55 2.617 . S
C47 C49 1.390 . S
C47 C50 1.339 1_455 S
C47 H67 0.930 . S
C48 C45 1.416 . S
C48 C50 1.416 . S
C48 C54 1.448 . S
C49 N46 1.334 1_455 S
C49 C47 1.390 . S
C49 H60 0.930 . S
C50 C47 1.339 1_655 S
C50 C48 1.416 . S
C50 H71 0.930 . S
C51 C52 1.413 . S
C51 C53 1.427 . S
C51 C57 1.416 . S
C52 C45 1.424 . S
C52 C51 1.413 . S
C52 N56 1.361 . S
C53 C51 1.427 . S
C53 C54 1.328 . S
C53 H68 0.929 . S
C54 C48 1.448 . S
C54 C53 1.328 . S
C54 H69 0.930 . S
Tb55 N46 2.617 . S
Tb55 N56 2.572 . S
Tb55 O90 2.349 1_655 S
Tb55 O93 2.393 1_655 S
Tb55 O94 2.465 . S
Tb55 O95 2.387 . S
Tb55 O97 2.428 . S
Tb55 O98 2.308 1_545 S
Tb55 C119 2.802 . S
N56 C52 1.361 . S
N56 Tb55 2.572 . S
N56 C58 1.340 . S
C57 C51 1.416 . S
C57 C59 1.332 . S
C57 H65 0.931 . S
C58 N56 1.340 . S
C58 C59 1.407 . S
C58 H64 0.930 . S
C59 C57 1.332 . S
C59 C58 1.407 . S
C59 H61 0.929 . S
H60 C49 0.930 . S
H61 C59 0.929 . S
H62 C77 0.930 1_655 S
H63 C84 0.929 . S
H64 C58 0.930 . S
H65 C57 0.931 . S
H66 C80 0.930 . S
H67 C47 0.930 . S
H68 C53 0.929 . S
H69 C54 0.930 . S
H70 C75 0.930 1_655 S
H71 C50 0.930 . S
H72 C83 0.931 . S
N73 Tb44 2.617 . S
N73 C74 1.379 . S
N73 C77 1.334 . S
C74 N73 1.379 . S
C74 C76 1.416 . S
C74 C82 1.424 . S
C75 H70 0.930 1_455 S
C75 C77 1.390 . S
C75 C78 1.339 . S
C76 C74 1.416 . S
C76 C78 1.416 . S
C76 C109 1.448 . S
C77 H62 0.930 1_455 S
C77 N73 1.334 . S
C77 C75 1.390 . S
C78 C75 1.339 . S
C78 C76 1.416 . S
C78 H85 0.930 . S
N79 Tb44 2.572 . S
N79 C80 1.340 . S
N79 C82 1.361 . S
C80 H66 0.930 . S
C80 N79 1.340 . S
C80 C84 1.407 . S
C81 C82 1.413 . S
C81 C83 1.416 . S
C81 C110 1.427 . S
C82 C74 1.424 . S
C82 N79 1.361 . S
C82 C81 1.413 . S
C83 H72 0.931 . S
C83 C81 1.416 . S
C83 C84 1.332 . S
C84 H63 0.929 . S
C84 C80 1.407 . S
C84 C83 1.332 . S
H85 C78 0.930 . S
H86 C109 0.930 . S
H87 C110 0.929 . S
O88 Tb44 2.465 . S
O88 C108 1.264 . S
O89 Tb44 2.387 . S
O89 C100 1.264 . S
O90 Tb55 2.349 1_455 S
O90 C100 1.243 1_545 S
O91 Tb44 2.428 . S
O91 C108 1.256 . S
O92 Tb44 2.308 1_545 S
O92 C107 1.266 . S
O93 Tb55 2.393 1_455 S
O93 C107 1.248 . S
O94 Tb55 2.465 . S
O94 C119 1.264 . S
O95 Tb55 2.387 . S
O95 C111 1.264 . S
O96 Tb44 2.349 1_645 S
O96 C111 1.243 . S
O97 Tb55 2.428 . S
O97 C119 1.256 . S
O98 Tb55 2.308 1_565 S
O98 C118 1.266 . S
O99 Tb44 2.393 1_655 S
O99 C118 1.248 . S
C100 O89 1.264 . S
C100 O90 1.243 1_565 S
C101 C104 1.399 . S
C101 C106 1.383 . S
C101 C108 1.496 . S
C102 C103 1.399 . S
C102 C106 1.389 . S
C103 C102 1.399 . S
C103 C105 1.380 . S
C103 H120 0.929 . S
C104 C101 1.399 . S
C104 C105 1.392 . S
C104 H121 0.929 . S
C105 C103 1.380 . S
C105 C104 1.392 . S
C105 H122 0.929 . S
C106 C101 1.383 . S
C106 C102 1.389 . S
C106 H123 0.931 . S
C107 O92 1.266 . S
C107 O93 1.248 . S
C108 Tb44 2.802 . S
C108 O88 1.264 . S
C108 O91 1.256 . S
C108 C101 1.496 . S
C109 C76 1.448 . S
C109 H86 0.930 . S
C109 C110 1.328 . S
C110 C81 1.427 . S
C110 H87 0.929 . S
C110 C109 1.328 . S
C111 O95 1.264 . S
C111 O96 1.243 . S
C112 C115 1.399 . S
C112 C116 1.383 . S
C112 C119 1.496 . S
C113 C114 1.399 . S
C113 C116 1.389 . S
C114 C113 1.399 . S
C114 C117 1.380 . S
C114 H124 0.929 . S
C115 C112 1.399 . S
C115 C117 1.392 . S
C115 H125 0.929 . S
C116 C112 1.383 . S
C116 C113 1.389 . S
C116 H126 0.931 . S
C117 C114 1.380 . S
C117 C115 1.392 . S
C117 H127 0.929 . S
C118 O98 1.266 . S
C118 O99 1.248 . S
C119 Tb55 2.802 . S
C119 O94 1.264 . S
C119 O97 1.256 . S
C119 C112 1.496 . S
H120 C103 0.929 . S
H121 C104 0.929 . S
H122 C105 0.929 . S
H123 C106 0.931 . S
H124 C114 0.929 . S
H125 C115 0.929 . S
H126 C116 0.931 . S
H127 C117 0.929 . S
Tb128 N157 2.617 . S
Tb128 N163 2.572 1_556 S
Tb128 O172 2.465 . S
Tb128 O173 2.387 1_556 S
Tb128 O175 2.428 . S
Tb128 O176 2.308 1_556 S
Tb128 O180 2.349 . S
Tb128 O183 2.393 . S
Tb128 C192 2.802 . S
C129 N130 1.379 . S
C129 C132 1.416 . S
C129 C136 1.424 . S
N130 C129 1.379 . S
N130 C133 1.334 . S
N130 Tb139 2.617 . S
C131 C133 1.390 . S
C131 C134 1.339 . S
C131 H151 0.930 . S
C132 C129 1.416 . S
C132 C134 1.416 . S
C132 C138 1.448 . S
C133 N130 1.334 . S
C133 C131 1.390 . S
C133 H144 0.930 . S
C134 C131 1.339 . S
C134 C132 1.416 . S
C134 H155 0.930 . S
C135 C136 1.413 . S
C135 C137 1.427 . S
C135 C141 1.416 . S
C136 C129 1.424 . S
C136 C135 1.413 . S
C136 N140 1.361 . S
C137 C135 1.427 . S
C137 C138 1.328 . S
C137 H152 0.929 . S
C138 C132 1.448 . S
C138 C137 1.328 . S
C138 H153 0.930 . S
Tb139 N130 2.617 . S
Tb139 N140 2.572 . S
Tb139 O174 2.349 . S
Tb139 O177 2.393 . S
Tb139 O178 2.465 . S
Tb139 O179 2.387 1_554 S
Tb139 O181 2.428 . S
Tb139 O182 2.308 . S
Tb139 C203 2.802 . S
N140 C136 1.361 . S
N140 Tb139 2.572 . S
N140 C142 1.340 . S
C141 C135 1.416 . S
C141 C143 1.332 . S
C141 H149 0.931 . S
C142 N140 1.340 . S
C142 C143 1.407 . S
C142 H148 0.930 . S
C143 C141 1.332 . S
C143 C142 1.407 . S
C143 H145 0.929 . S
H144 C133 0.930 . S
H145 C143 0.929 . S
H146 C161 0.930 . S
H147 C168 0.929 . S
H148 C142 0.930 . S
H149 C141 0.931 . S
H150 C164 0.930 . S
H151 C131 0.930 . S
H152 C137 0.929 . S
H153 C138 0.930 . S
H154 C159 0.930 . S
H155 C134 0.930 . S
H156 C167 0.931 . S
N157 Tb128 2.617 . S
N157 C158 1.379 1_556 S
N157 C161 1.334 . S
C158 N157 1.379 1_554 S
C158 C160 1.416 . S
C158 C166 1.424 . S
C159 H154 0.930 . S
C159 C161 1.390 . S
C159 C162 1.339 1_556 S
C160 C158 1.416 . S
C160 C162 1.416 . S
C160 C193 1.448 . S
C161 H146 0.930 . S
C161 N157 1.334 . S
C161 C159 1.390 . S
C162 C159 1.339 1_554 S
C162 C160 1.416 . S
C162 H169 0.930 . S
N163 Tb128 2.572 1_554 S
N163 C164 1.340 . S
N163 C166 1.361 . S
C164 H150 0.930 . S
C164 N163 1.340 . S
C164 C168 1.407 . S
C165 C166 1.413 . S
C165 C167 1.416 . S
C165 C194 1.427 . S
C166 C158 1.424 . S
C166 N163 1.361 . S
C166 C165 1.413 . S
C167 H156 0.931 . S
C167 C165 1.416 . S
C167 C168 1.332 . S
C168 H147 0.929 . S
C168 C164 1.407 . S
C168 C167 1.332 . S
H169 C162 0.930 . S
H170 C193 0.930 . S
H171 C194 0.929 . S
O172 Tb128 2.465 . S
O172 C192 1.264 . S
O173 Tb128 2.387 1_554 S
O173 C184 1.264 . S
O174 Tb139 2.349 . S
O174 C184 1.243 . S
O175 Tb128 2.428 . S
O175 C192 1.256 . S
O176 Tb128 2.308 1_554 S
O176 C191 1.266 . S
O177 Tb139 2.393 . S
O177 C191 1.248 . S
O178 Tb139 2.465 . S
O178 C203 1.264 . S
O179 Tb139 2.387 1_556 S
O179 C195 1.264 . S
O180 Tb128 2.349 . S
O180 C195 1.243 . S
O181 Tb139 2.428 . S
O181 C203 1.256 . S
O182 Tb139 2.308 . S
O182 C202 1.266 . S
O183 Tb128 2.393 . S
O183 C202 1.248 1_556 S
C184 O173 1.264 . S
C184 O174 1.243 . S
C185 C188 1.399 . S
C185 C190 1.383 . S
C185 C192 1.496 . S
C186 C187 1.399 . S
C186 C190 1.389 . S
C187 C186 1.399 . S
C187 C189 1.380 . S
C187 H204 0.929 . S
C188 C185 1.399 . S
C188 C189 1.392 . S
C188 H205 0.929 . S
C189 C187 1.380 . S
C189 C188 1.392 . S
C189 H206 0.929 . S
C190 C185 1.383 . S
C190 C186 1.389 . S
C190 H207 0.931 . S
C191 O176 1.266 . S
C191 O177 1.248 . S
C192 Tb128 2.802 . S
C192 O172 1.264 . S
C192 O175 1.256 . S
C192 C185 1.496 . S
C193 C160 1.448 . S
C193 H170 0.930 . S
C193 C194 1.328 . S
C194 C165 1.427 . S
C194 H171 0.929 . S
C194 C193 1.328 . S
C195 O179 1.264 . S
C195 O180 1.243 . S
C196 C199 1.399 . S
C196 C200 1.383 . S
C196 C203 1.496 . S
C197 C198 1.399 . S
C197 C200 1.389 . S
C198 C197 1.399 . S
C198 C201 1.380 . S
C198 H208 0.929 . S
C199 C196 1.399 . S
C199 C201 1.392 . S
C199 H209 0.929 . S
C200 C196 1.383 . S
C200 C197 1.389 . S
C200 H210 0.931 . S
C201 C198 1.380 . S
C201 C199 1.392 . S
C201 H211 0.929 . S
C202 O182 1.266 . S
C202 O183 1.248 1_554 S
C203 Tb139 2.802 . S
C203 O178 1.264 . S
C203 O181 1.256 . S
C203 C196 1.496 . S
H204 C187 0.929 . S
H205 C188 0.929 . S
H206 C189 0.929 . S
H207 C190 0.931 . S
H208 C198 0.929 . S
H209 C199 0.929 . S
H210 C200 0.931 . S
H211 C201 0.929 . S
H212 C220 0.950 . S
H213 C225 0.950 . S
H214 C222 0.950 . S
H215 C224 0.950 . S
H216 C226 0.950 . S
H217 C228 0.950 . S
H218 C230 0.950 . S
H219 C231 0.950 . S
C220 H212 0.950 . S
C220 C221 1.386 . S
C220 C222 1.391 . S
C221 C220 1.386 . S
C221 C225 1.393 . S
C222 H214 0.950 . S
C222 C220 1.391 . S
C222 C223 1.400 . S
C223 C222 1.400 . S
C223 C224 1.398 . S
C223 C229 1.491 . S
C224 H215 0.950 . S
C224 C223 1.398 . S
C224 C225 1.391 . S
C225 H213 0.950 . S
C225 C221 1.393 . S
C225 C224 1.391 . S
C226 H216 0.950 . S
C226 C227 1.386 . S
C226 C228 1.391 . S
C227 C226 1.386 . S
C227 C231 1.393 . S
C228 H217 0.950 . S
C228 C226 1.391 . S
C228 C229 1.400 . S
C229 C223 1.491 . S
C229 C228 1.400 . S
C229 C230 1.398 . S
C230 H218 0.950 . S
C230 C229 1.398 . S
C230 C231 1.391 . S
C231 H219 0.950 . S
C231 C227 1.393 . S
C231 C230 1.391 . S
H232 C240 0.950 . S
H233 C245 0.950 . S
H234 C242 0.950 . S
H235 C244 0.950 . S
H236 C246 0.950 . S
H237 C248 0.950 . S
H238 C250 0.950 . S
H239 C251 0.950 . S
C240 H232 0.950 . S
C240 C241 1.386 . S
C240 C242 1.391 . S
C241 C240 1.386 . S
C241 C245 1.393 . S
C242 H234 0.950 . S
C242 C240 1.391 . S
C242 C243 1.400 . S
C243 C242 1.400 . S
C243 C244 1.398 . S
C243 C249 1.491 . S
C244 H235 0.950 . S
C244 C243 1.398 . S
C244 C245 1.391 . S
C245 H233 0.950 . S
C245 C241 1.393 . S
C245 C244 1.391 . S
C246 H236 0.950 . S
C246 C247 1.386 . S
C246 C248 1.391 . S
C247 C246 1.386 . S
C247 C251 1.393 . S
C248 H237 0.950 . S
C248 C246 1.391 . S
C248 C249 1.400 . S
C249 C243 1.491 . S
C249 C248 1.400 . S
C249 C250 1.398 . S
C250 H238 0.950 . S
C250 C249 1.398 . S
C250 C251 1.391 . S
C251 H239 0.950 . S
C251 C247 1.393 . S
C251 C250 1.391 . S
H252 C260 0.950 . S
H253 C265 0.950 . S
H254 C262 0.950 . S
H255 C264 0.950 . S
H256 C266 0.950 . S
H257 C268 0.950 . S
H258 C270 0.950 . S
H259 C271 0.950 . S
C260 H252 0.950 . S
C260 C261 1.386 . S
C260 C262 1.391 . S
C261 C260 1.386 . S
C261 C265 1.393 . S
C262 H254 0.950 . S
C262 C260 1.391 . S
C262 C263 1.400 . S
C263 C262 1.400 . S
C263 C264 1.398 . S
C263 C269 1.491 . S
C264 H255 0.950 . S
C264 C263 1.398 . S
C264 C265 1.391 . S
C265 H253 0.950 . S
C265 C261 1.393 . S
C265 C264 1.391 . S
C266 H256 0.950 . S
C266 C267 1.386 . S
C266 C268 1.391 . S
C267 C266 1.386 . S
C267 C271 1.393 . S
C268 H257 0.950 . S
C268 C266 1.391 . S
C268 C269 1.400 . S
C269 C263 1.491 . S
C269 C268 1.400 . S
C269 C270 1.398 . S
C270 H258 0.950 . S
C270 C269 1.398 . S
C270 C271 1.391 . S
C271 H259 0.950 . S
C271 C267 1.393 . S
C271 C270 1.391 . S
H272 C280 0.950 . S
H273 C285 0.950 1_556 S
H274 C282 0.950 . S
H275 C284 0.950 1_556 S
H276 C286 0.950 1_556 S
H277 C288 0.950 1_556 S
H278 C290 0.950 . S
H279 C291 0.950 . S
C280 H272 0.950 . S
C280 C281 1.386 . S
C280 C282 1.391 . S
C281 C280 1.386 . S
C281 C285 1.393 . S
C282 H274 0.950 . S
C282 C280 1.391 . S
C282 C283 1.400 . S
C283 C282 1.400 . S
C283 C284 1.398 . S
C283 C289 1.491 . S
C284 H275 0.950 1_554 S
C284 C283 1.398 . S
C284 C285 1.391 . S
C285 H273 0.950 1_554 S
C285 C281 1.393 . S
C285 C284 1.391 . S
C286 H276 0.950 1_554 S
C286 C287 1.386 . S
C286 C288 1.391 . S
C287 C286 1.386 . S
C287 C291 1.393 . S
C288 H277 0.950 1_554 S
C288 C286 1.391 . S
C288 C289 1.400 . S
C289 C283 1.491 . S
C289 C288 1.400 . S
C289 C290 1.398 . S
C290 H278 0.950 . S
C290 C289 1.398 . S
C290 C291 1.391 . S
C291 H279 0.950 . S
C291 C287 1.393 . S
C291 C290 1.391 . S
H292 C300 0.950 . S
H293 C305 0.950 . S
H294 C302 0.950 . S
H295 C304 0.950 . S
H296 C306 0.950 1_545 S
H297 C308 0.950 . S
H298 C310 0.950 . S
H299 C311 0.950 . S
C300 H292 0.950 . S
C300 C301 1.386 . S
C300 C302 1.391 . S
C301 C300 1.386 . S
C301 C305 1.393 . S
C302 H294 0.950 . S
C302 C300 1.391 . S
C302 C303 1.400 . S
C303 C302 1.400 . S
C303 C304 1.398 . S
C303 C309 1.491 . S
C304 H295 0.950 . S
C304 C303 1.398 . S
C304 C305 1.391 . S
C305 H293 0.950 . S
C305 C301 1.393 . S
C305 C304 1.391 . S
C306 H296 0.950 1_565 S
C306 C307 1.386 . S
C306 C308 1.391 . S
C307 C306 1.386 . S
C307 C311 1.393 . S
C308 H297 0.950 . S
C308 C306 1.391 . S
C308 C309 1.400 . S
C309 C303 1.491 . S
C309 C308 1.400 . S
C309 C310 1.398 . S
C310 H298 0.950 . S
C310 C309 1.398 . S
C310 C311 1.391 . S
C311 H299 0.950 . S
C311 C307 1.393 . S
C311 C310 1.391 . S
H312 C320 0.950 . S
H313 C325 0.950 . S
H314 C322 0.950 . S
H315 C324 0.950 . S
H316 C326 0.950 . S
H317 C328 0.950 . S
H318 C330 0.950 . S
H319 C331 0.950 . S
C320 H312 0.950 . S
C320 C321 1.386 . S
C320 C322 1.391 . S
C321 C320 1.386 . S
C321 C325 1.393 . S
C322 H314 0.950 . S
C322 C320 1.391 . S
C322 C323 1.400 . S
C323 C322 1.400 . S
C323 C324 1.398 . S
C323 C329 1.491 . S
C324 H315 0.950 . S
C324 C323 1.398 . S
C324 C325 1.391 . S
C325 H313 0.950 . S
C325 C321 1.393 . S
C325 C324 1.391 . S
C326 H316 0.950 . S
C326 C327 1.386 . S
C326 C328 1.391 . S
C327 C326 1.386 . S
C327 C331 1.393 . S
C328 H317 0.950 . S
C328 C326 1.391 . S
C328 C329 1.400 . S
C329 C323 1.491 . S
C329 C328 1.400 . S
C329 C330 1.398 . S
C330 H318 0.950 . S
C330 C329 1.398 . S
C330 C331 1.391 . S
C331 H319 0.950 . S
C331 C327 1.393 . S
C331 C330 1.391 . S
H332 C340 0.950 . S
H333 C345 0.950 . S
H334 C342 0.950 . S
H335 C344 0.950 . S
H336 C346 0.950 . S
H337 C348 0.950 . S
H338 C350 0.950 . S
H339 C351 0.950 . S
C340 H332 0.950 . S
C340 C341 1.386 . S
C340 C342 1.391 . S
C341 C340 1.386 . S
C341 C345 1.393 . S
C342 H334 0.950 . S
C342 C340 1.391 . S
C342 C343 1.400 . S
C343 C342 1.400 . S
C343 C344 1.398 . S
C343 C349 1.491 . S
C344 H335 0.950 . S
C344 C343 1.398 . S
C344 C345 1.391 . S
C345 H333 0.950 . S
C345 C341 1.393 . S
C345 C344 1.391 . S
C346 H336 0.950 . S
C346 C347 1.386 . S
C346 C348 1.391 . S
C347 C346 1.386 . S
C347 C351 1.393 . S
C348 H337 0.950 . S
C348 C346 1.391 . S
C348 C349 1.400 . S
C349 C343 1.491 . S
C349 C348 1.400 . S
C349 C350 1.398 . S
C350 H338 0.950 . S
C350 C349 1.398 . S
C350 C351 1.391 . S
C351 H339 0.950 . S
C351 C347 1.393 . S
C351 C350 1.391 . S
H352 C360 0.950 . S
H353 C365 0.950 . S
H354 C362 0.950 . S
H355 C364 0.950 . S
H356 C366 0.950 . S
H357 C368 0.950 . S
H358 C370 0.950 . S
H359 C371 0.950 . S
C360 H352 0.950 . S
C360 C361 1.386 . S
C360 C362 1.391 . S
C361 C360 1.386 . S
C361 C365 1.393 . S
C362 H354 0.950 . S
C362 C360 1.391 . S
C362 C363 1.400 . S
C363 C362 1.400 . S
C363 C364 1.398 . S
C363 C369 1.491 . S
C364 H355 0.950 . S
C364 C363 1.398 . S
C364 C365 1.391 . S
C365 H353 0.950 . S
C365 C361 1.393 . S
C365 C364 1.391 . S
C366 H356 0.950 . S
C366 C367 1.386 . S
C366 C368 1.391 . S
C367 C366 1.386 . S
C367 C371 1.393 . S
C368 H357 0.950 . S
C368 C366 1.391 . S
C368 C369 1.400 . S
C369 C363 1.491 . S
C369 C368 1.400 . S
C369 C370 1.398 . S
C370 H358 0.950 . S
C370 C369 1.398 . S
C370 C371 1.391 . S
C371 H359 0.950 . S
C371 C367 1.393 . S
C371 C370 1.391 . S
H372 C380 0.950 . S
H373 C385 0.950 . S
H374 C382 0.950 . S
H375 C384 0.950 . S
H376 C386 0.950 . S
H377 C388 0.950 . S
H378 C390 0.950 . S
H379 C391 0.950 . S
C380 H372 0.950 . S
C380 C381 1.386 . S
C380 C382 1.391 . S
C381 C380 1.386 . S
C381 C385 1.393 . S
C382 H374 0.950 . S
C382 C380 1.391 . S
C382 C383 1.400 . S
C383 C382 1.400 . S
C383 C384 1.398 . S
C383 C389 1.491 . S
C384 H375 0.950 . S
C384 C383 1.398 . S
C384 C385 1.391 . S
C385 H373 0.950 . S
C385 C381 1.393 . S
C385 C384 1.391 . S
C386 H376 0.950 . S
C386 C387 1.386 . S
C386 C388 1.391 . S
C387 C386 1.386 . S
C387 C391 1.393 . S
C388 H377 0.950 . S
C388 C386 1.391 . S
C388 C389 1.400 . S
C389 C383 1.491 . S
C389 C388 1.400 . S
C389 C390 1.398 . S
C390 H378 0.950 . S
C390 C389 1.398 . S
C390 C391 1.391 . S
C391 H379 0.950 . S
C391 C387 1.393 . S
C391 C390 1.391 . S
H392 C400 0.950 1_554 S
H393 C405 0.950 . S
H394 C402 0.950 . S
H395 C404 0.950 . S
H396 C406 0.950 . S
H397 C408 0.950 . S
H398 C410 0.950 . S
H399 C411 0.978 . S
C400 H392 0.950 1_556 S
C400 C401 1.386 . S
C400 C402 1.391 . S
C401 C400 1.386 . S
C401 C405 1.393 . S
C402 H394 0.950 . S
C402 C400 1.391 . S
C402 C403 1.400 . S
C403 C402 1.400 . S
C403 C404 1.398 . S
C403 C409 1.491 . S
C404 H395 0.950 . S
C404 C403 1.398 . S
C404 C405 1.391 . S
C405 H393 0.950 . S
C405 C401 1.393 . S
C405 C404 1.391 . S
C406 H396 0.950 . S
C406 C407 1.386 . S
C406 C408 1.391 . S
C407 C406 1.386 . S
C407 C411 1.393 . S
C408 H397 0.950 . S
C408 C406 1.391 . S
C408 C409 1.400 . S
C409 C403 1.491 . S
C409 C408 1.400 . S
C409 C410 1.398 . S
C410 H398 0.950 . S
C410 C409 1.398 . S
C410 C411 1.391 . S
C411 H399 0.978 . S
C411 C407 1.393 . S
C411 C410 1.391 . S
H412 C420 0.950 . S
H413 C425 0.950 . S
H414 C422 0.950 . S
H415 C424 0.950 . S
H416 C426 0.950 . S
H417 C428 0.950 . S
H418 C430 0.950 . S
H419 C431 0.950 . S
C420 H412 0.950 . S
C420 C421 1.386 . S
C420 C422 1.391 . S
C421 C420 1.386 . S
C421 C425 1.393 . S
C422 H414 0.950 . S
C422 C420 1.391 . S
C422 C423 1.400 . S
C423 C422 1.400 . S
C423 C424 1.398 . S
C423 C429 1.491 . S
C424 H415 0.950 . S
C424 C423 1.398 . S
C424 C425 1.391 . S
C425 H413 0.950 . S
C425 C421 1.393 . S
C425 C424 1.391 . S
C426 H416 0.950 . S
C426 C427 1.386 . S
C426 C428 1.391 . S
C427 C426 1.386 . S
C427 C431 1.393 . S
C428 H417 0.950 . S
C428 C426 1.391 . S
C428 C429 1.400 . S
C429 C423 1.491 . S
C429 C428 1.400 . S
C429 C430 1.398 . S
C430 H418 0.950 . S
C430 C429 1.398 . S
C430 C431 1.391 . S
C431 H419 0.950 . S
C431 C427 1.393 . S
C431 C430 1.391 . S
H432 C440 0.950 . S
H433 C445 0.950 . S
H434 C442 0.950 . S
H435 C444 0.950 . S
H436 C446 0.950 . S
H437 C448 0.950 . S
H438 C450 0.950 . S
H439 C451 0.950 . S
C440 H432 0.950 . S
C440 C441 1.386 . S
C440 C442 1.391 . S
C441 C440 1.386 . S
C441 C445 1.393 . S
C442 H434 0.950 . S
C442 C440 1.391 . S
C442 C443 1.400 . S
C443 C442 1.400 . S
C443 C444 1.398 . S
C443 C449 1.491 . S
C444 H435 0.950 . S
C444 C443 1.398 . S
C444 C445 1.391 . S
C445 H433 0.950 . S
C445 C441 1.393 . S
C445 C444 1.391 . S
C446 H436 0.950 . S
C446 C447 1.386 . S
C446 C448 1.391 . S
C447 C446 1.386 . S
C447 C451 1.393 . S
C448 H437 0.950 . S
C448 C446 1.391 . S
C448 C449 1.400 . S
C449 C443 1.491 . S
C449 C448 1.400 . S
C449 C450 1.398 . S
C450 H438 0.950 . S
C450 C449 1.398 . S
C450 C451 1.391 . S
C451 H439 0.950 . S
C451 C447 1.393 . S
C451 C450 1.391 . S
C227 C107 1.627 . S
C221 C41 1.619 . S
C241 C8 1.646 . S
C247 C202 1.631 . S
C261 C19 1.734 . S
C267 C118 1.757 . S
C281 C30 1.602 . S
C287 C191 1.611 . S
C307 C102 1.455 . S
C301 C5 1.467 . S
C327 C195 1.800 . S
C321 C18 1.742 . S
C341 C29 1.597 . S
C347 C111 1.710 . S
C361 C40 1.600 . S
C367 C186 1.524 . S
C387 C197 1.374 . S
C381 C16 1.336 . S
C407 C113 1.345 . S
C401 C27 1.314 1_556 S
C427 C184 1.543 . S
C421 C38 1.304 . S
C441 C7 1.474 . S
C447 C100 1.510 . S
