# Generated by pormake.
# Topology scu, (8,4)-cn, num edge types: 1
# Building blocks:
#     Node 0, Type 0, BuildingBlock: GIZVER_clean_sbu_0, # of connection points: 8
#     Node 1, Type 1, BuildingBlock: KOZSID_clean_sbu_0, # of connection points: 4
#     Node 2, Type 1, BuildingBlock: KOZSID_clean_sbu_0, # of connection points: 4
#     Edge 3, Type (0, 1), BuildingBlock: TEMPAE_clean_linker_10, # of connection points: 2
#     Edge 4, Type (0, 1), BuildingBlock: TEMPAE_clean_linker_10, # of connection points: 2
#     Edge 5, Type (0, 1), BuildingBlock: TEMPAE_clean_linker_10, # of connection points: 2
#     Edge 6, Type (0, 1), BuildingBlock: TEMPAE_clean_linker_10, # of connection points: 2
#     Edge 7, Type (0, 1), BuildingBlock: TEMPAE_clean_linker_10, # of connection points: 2
#     Edge 8, Type (0, 1), BuildingBlock: TEMPAE_clean_linker_10, # of connection points: 2
#     Edge 9, Type (0, 1), BuildingBlock: TEMPAE_clean_linker_10, # of connection points: 2
#     Edge 10, Type (0, 1), BuildingBlock: TEMPAE_clean_linker_10, # of connection points: 2
# Relax obj value: 0.045
# Max RMSD: 0.113
# Mean RMSD: 0.103
data_MOF--net-scu--node1-GIZVER_clean_sbu_0--node2-KOZSID_clean_sbu_0--edge1-TEMPAE_clean_linker_10
_symmetry_space_group_name_H-M    P1
_symmetry_Int_Tables_number       1
_symmetry_cell_setting            triclinic
loop_
_symmetry_equiv_pos_as_xyz
'x, y, z'
_cell_length_a     26.843853
_cell_length_b     27.483866
_cell_length_c     24.248807
_cell_angle_alpha  95.305824
_cell_angle_beta   78.562982
_cell_angle_gamma 112.04394
loop_
_atom_site_label
_atom_site_type_symbol
_atom_site_fract_x
_atom_site_fract_y
_atom_site_fract_z
_atom_type_partial_charge
Co0 Co 0.0164 0.94316 0.12808 0.0
Co1 Co 0.1012 0.01797 0.07932 0.0
Co2 Co 1.00604 1.00663 0.0161 0.0
O3 O 0.04205 0.96954 0.0523 0.0
H4 H 0.05379 0.94539 0.02648 0.0
O5 O 0.96988 0.0444 0.98078 0.0
Co6 Co 0.99725 0.07348 0.90655 0.0
Co7 Co 0.9117 0.99783 0.95167 0.0
H8 H 0.95762 0.06785 1.00723 0.0
O9 O 0.15879 1.00089 0.08532 0.0
O10 O 0.08465 0.99484 0.15227 0.0
O11 O 0.10977 0.09073 0.08391 0.0
O12 O 0.02697 0.07227 0.06532 0.0
O13 O 0.07475 0.03569 0.95897 0.0
O14 O 0.0208 0.10514 0.84014 0.0
O15 O 0.96911 0.12562 0.91665 0.0
O16 O 0.03285 0.0242 0.8857 0.0
O17 O 0.98461 0.94056 0.96687 0.0
O18 O 0.90424 0.92595 0.94327 0.0
O19 O 0.92921 0.02493 0.88056 0.0
O20 O 0.85451 0.0162 0.94765 0.0
C21 C 0.0211 0.8834 0.17132 0.0
C22 C 0.93684 0.98613 0.12569 0.0
C23 C 0.06886 0.10331 0.08477 0.0
C24 C 0.13426 0.99468 0.13754 0.0
C25 C 0.99475 0.13501 0.86462 0.0
C26 C 0.07486 0.02903 0.90601 0.0
C27 C 0.94346 0.91145 0.94481 0.0
C28 C 0.88054 0.02711 0.89638 0.0
O29 O 0.99556 0.91361 0.1962 0.0
O30 O 0.04542 0.89183 0.11885 0.0
O31 O 0.93764 0.97754 0.07286 0.0
O32 O 0.97815 0.99119 0.14768 0.0
C33 C 0.05631 0.60129 0.44128 0.0
C34 C 0.10689 0.64106 0.42633 0.0
C35 C 0.14349 0.62921 0.44895 0.0
C36 C 0.11337 0.58374 0.47743 0.0
N37 N 0.05962 0.56565 0.47452 0.0
Co38 Co 1.00089 0.50465 0.51704 0.0
N39 N 0.05491 0.48788 0.55099 0.0
C40 C 0.10985 0.5113 0.53874 0.0
C41 C 0.13705 0.48949 0.56488 0.0
C42 C 0.09714 0.44949 0.59556 0.0
C43 C 0.04751 0.44952 0.58695 0.0
N44 N 0.94177 0.44566 0.56211 0.0
C45 C 0.94438 0.41366 0.60017 0.0
C46 C 0.8926 0.38084 0.62474 0.0
C47 C 0.85618 0.39154 0.60059 0.0
C48 C 0.88748 0.43064 0.56339 0.0
N49 N 0.94716 0.51967 0.48088 0.0
C50 C 0.8931 0.49109 0.48659 0.0
C51 C 0.86696 0.50656 0.45255 0.0
C52 C 0.90663 0.54758 0.42321 0.0
C53 C 0.95491 0.55565 0.44187 0.0
N54 N 0.00916 0.45541 0.4533 0.0
C55 C 0.02185 0.38381 0.3655 0.0
C56 C 0.97152 0.37474 0.40071 0.0
C57 C 0.96593 0.41101 0.44355 0.0
C58 C 0.06552 0.4296 0.37422 0.0
C59 C 0.0585 0.46434 0.41828 0.0
N60 N 0.99286 0.55371 0.58065 0.0
C61 C 0.93683 0.59151 0.64743 0.0
C62 C 0.98234 0.62468 0.66972 0.0
C63 C 0.03301 0.62138 0.64719 0.0
C64 C 0.03723 0.58555 0.60346 0.0
C65 C 0.94302 0.55689 0.60284 0.0
H66 H 0.0769 0.58445 0.58869 0.0
H67 H 0.90706 0.53335 0.58669 0.0
H68 H 0.92619 0.40196 0.46826 0.0
H69 H 0.0939 0.49785 0.42329 0.0
C70 C 0.13447 0.55598 0.50575 0.0
C71 C 1.00673 0.59846 0.42183 0.0
C72 C 0.99462 0.41216 0.61371 0.0
C73 C 0.86759 0.45159 0.52624 0.0
H74 H 0.11673 0.67525 0.40157 0.0
H75 H 0.18692 0.6512 0.44511 0.0
H76 H 0.18072 0.50157 0.56237 0.0
H77 H 0.10399 0.42333 0.62135 0.0
H78 H 0.88206 0.35179 0.65654 0.0
H79 H 0.81215 0.3726 0.60867 0.0
H80 H 0.82406 0.49007 0.44956 0.0
H81 H 0.90036 0.56901 0.39165 0.0
H82 H 0.93642 0.3399 0.39497 0.0
H83 H 0.10538 0.43796 0.34802 0.0
H84 H 0.89682 0.59316 0.66341 0.0
H85 H 0.06927 0.64612 0.66357 0.0
C86 C 0.41182 0.96777 0.60771 0.0
C87 C 0.37794 0.92021 0.63248 0.0
C88 C 0.40081 0.88405 0.6112 0.0
C89 C 0.44661 0.91091 0.57386 0.0
N90 N 0.45402 0.96185 0.56998 0.0
Co91 Co 0.51223 0.01307 0.51653 0.0
N92 N 0.5301 0.95623 0.46962 0.0
C93 C 0.51217 0.90543 0.48364 0.0
C94 C 0.52904 0.87455 0.44239 0.0
C95 C 0.56064 0.90806 0.39998 0.0
C96 C 0.56199 0.95791 0.41819 0.0
N97 N 0.57148 0.06471 0.46412 0.0
C98 C 0.60246 0.05743 0.41473 0.0
C99 C 0.64244 0.10486 0.39532 0.0
C100 C 0.63685 0.14273 0.43398 0.0
C101 C 0.59415 0.11667 0.47488 0.0
N102 N 0.49348 0.06959 0.56291 0.0
C103 C 0.52513 0.12088 0.56258 0.0
C104 C 0.50259 0.15071 0.60007 0.0
C105 C 0.45358 0.11601 0.62589 0.0
C106 C 0.44882 0.06677 0.60233 0.0
N107 N 0.56577 0.01807 0.56307 0.0
C108 C 0.64517 0.03195 0.62803 0.0
C109 C 0.59449 0.03425 0.65309 0.0
C110 C 0.55501 0.02645 0.61995 0.0
C111 C 0.65516 0.02165 0.57034 0.0
C112 C 0.61518 0.01527 0.53861 0.0
N113 N 0.45876 1.00839 0.47012 0.0
C114 C 0.42172 0.05022 0.41478 0.0
C115 C 0.37906 1.00245 0.40738 0.0
C116 C 0.37793 0.95772 0.43208 0.0
C117 C 0.41859 0.96132 0.46194 0.0
C118 C 0.46025 0.05249 0.44704 0.0
H119 H 0.41687 0.92587 0.47898 0.0
H120 H 0.49119 0.09011 0.45332 0.0
H121 H 0.51598 0.02763 0.64036 0.0
H122 H 0.62486 1.00864 0.49418 0.0
C123 C 0.47537 0.8873 0.53327 0.0
C124 C 0.40385 0.01794 0.6222 0.0
C125 C 0.60068 1.0061 0.38943 0.0
C126 C 0.57192 0.14017 0.52174 0.0
H127 H 0.33993 0.91174 0.66189 0.0
H128 H 0.38389 0.84235 0.61912 0.0
H129 H 0.51916 0.83259 0.44282 0.0
H130 H 0.58207 0.89736 0.36098 0.0
H131 H 0.67397 0.11153 0.35832 0.0
H132 H 0.66126 0.18429 0.43257 0.0
H133 H 0.51916 0.19281 0.60693 0.0
H134 H 0.42512 0.12582 0.65894 0.0
H135 H 0.58525 0.04126 0.69798 0.0
H136 H 0.69394 0.01932 0.54978 0.0
H137 H 0.42605 0.08594 0.39564 0.0
H138 H 0.3457 0.9199 0.42917 0.0
C139 C 0.10839 0.18251 0.14518 0.0
C140 C 0.06575 0.151 0.11729 0.0
C141 C 0.10267 0.22289 0.18282 0.0
C142 C 0.05325 0.23229 0.19267 0.0
C143 C 0.01091 0.20213 0.16296 0.0
C144 C 0.01767 0.16195 0.12561 0.0
C145 C 0.14863 0.25389 0.21399 0.0
C146 C 0.95752 0.21082 0.17248 0.0
C147 C 0.01321 0.29226 0.33412 0.0
C148 C 0.02908 0.34511 0.32086 0.0
C149 C 0.02099 0.25523 0.29284 0.0
C150 C 0.0445 0.27132 0.23668 0.0
C151 C 0.05997 0.3246 0.22293 0.0
C152 C 0.05257 0.361 0.26536 0.0
C153 C 1.00553 0.19924 0.30989 0.0
C154 C 0.0844 0.34311 0.16347 0.0
H155 H 0.14567 0.17445 0.13924 0.0
H156 H 0.98434 0.13787 0.1045 0.0
H157 H 0.15951 0.29661 0.20938 0.0
H158 H 0.13517 0.24549 0.25956 0.0
H159 H 0.18577 0.24426 0.19879 0.0
H160 H 0.92921 0.18505 0.14495 0.0
H161 H 0.93709 0.20302 0.21699 0.0
H162 H 0.96518 0.25236 0.16458 0.0
H163 H 0.99578 0.28012 0.37723 0.0
H164 H 0.06458 0.40186 0.25506 0.0
H165 H 0.0432 0.19177 0.3108 0.0
H166 H 0.98375 0.17112 0.279 0.0
H167 H 0.97939 0.19114 0.3522 0.0
H168 H 0.12291 0.33575 0.14934 0.0
H169 H 0.09323 0.38562 0.15949 0.0
H170 H 0.05602 0.32059 0.1346 0.0
C171 C 0.83567 0.95402 0.15673 0.0
C172 C 0.88744 0.99107 0.16165 0.0
C173 C 0.78835 0.95662 0.19214 0.0
C174 C 0.79266 0.99857 0.23189 0.0
C175 C 0.84483 0.03732 0.23531 0.0
C176 C 0.89173 0.03248 0.201 0.0
C177 C 0.73396 0.91353 0.18823 0.0
C178 C 0.85117 0.08375 0.27543 0.0
C179 C 0.66194 0.02412 0.29399 0.0
C180 C 0.64911 1.00331 0.34788 0.0
C181 C 0.70909 0.0239 0.25615 0.0
C182 C 0.74301 1.00039 0.27176 0.0
C183 C 0.72946 0.97838 0.32579 0.0
C184 C 0.68354 0.98121 0.36351 0.0
C185 C 0.72314 0.04964 0.19991 0.0
C186 C 0.76332 0.95155 0.34378 0.0
H187 H 0.83241 0.92191 0.12636 0.0
H188 H 0.93174 0.06158 0.20427 0.0
H189 H 0.7162 0.89361 0.22923 0.0
H190 H 0.70488 0.93032 0.17912 0.0
H191 H 0.7375 0.88371 0.15505 0.0
H192 H 0.8932 0.11358 0.26792 0.0
H193 H 0.82212 0.10261 0.27126 0.0
H194 H 0.8416 0.07042 0.31939 0.0
H195 H 0.63562 0.04156 0.28198 0.0
H196 H 0.6743 0.96582 0.40545 0.0
H197 H 0.72319 0.02022 0.1654 0.0
H198 H 0.76487 0.08013 0.19485 0.0
H199 H 0.69397 0.06821 0.19511 0.0
H200 H 0.76731 0.92048 0.31253 0.0
H201 H 0.74529 0.93349 0.38575 0.0
H202 H 0.80508 0.98028 0.34547 0.0
C203 C 0.04147 0.85223 0.25501 0.0
C204 C 0.02296 0.84075 0.20353 0.0
C205 C 0.0416 0.81254 0.28768 0.0
C206 C 0.0186 0.75903 0.27081 0.0
C207 C 0.99865 0.74715 0.21907 0.0
C208 C 1.0027 0.78822 0.18533 0.0
C209 C 0.0664 0.82912 0.3403 0.0
C210 C 0.97195 0.69133 0.19908 0.0
C211 C 0.04574 0.64867 0.33076 0.0
C212 C 0.00892 0.63871 0.38208 0.0
C213 C 0.0503 0.68823 0.2948 0.0
C214 C 0.01417 0.71608 0.30804 0.0
C215 C 0.97493 0.70413 0.35852 0.0
C216 C 0.97423 0.66724 0.39566 0.0
C217 C 0.09446 0.70008 0.24313 0.0
C218 C 0.93361 0.73039 0.37397 0.0
H219 H 0.05638 0.89254 0.26982 0.0
H220 H 0.98759 0.779 0.14588 0.0
H221 H 0.0386 0.84238 0.37287 0.0
H222 H 0.07479 0.79763 0.35769 0.0
H223 H 0.10537 0.86314 0.33134 0.0
H224 H 0.94001 0.68818 0.17451 0.0
H225 H 1.00316 0.67907 0.17069 0.0
H226 H 0.95299 0.66353 0.23436 0.0
H227 H 0.07217 0.62632 0.3193 0.0
H228 H 0.94583 0.6602 0.4353 0.0
H229 H 0.10957 0.74187 0.23124 0.0
H230 H 0.07791 0.67521 0.20743 0.0
H231 H 0.12967 0.69075 0.24972 0.0
H232 H 0.95246 0.76897 0.39454 0.0
H233 H 0.89732 0.70659 0.40397 0.0
H234 H 0.91974 0.73709 0.33613 0.0
C235 C 0.1418 0.9874 0.23784 0.0
C236 C 0.16563 0.99304 0.18072 0.0
C237 C 0.17204 0.98669 0.27872 0.0
C238 C 0.22809 0.9943 0.2622 0.0
C239 C 0.25268 1.00151 0.2048 0.0
C240 C 0.22097 0.99981 0.16476 0.0
C241 C 0.14395 0.97859 0.33943 0.0
C242 C 0.31288 0.01219 0.18566 0.0
C243 C 0.32345 0.04327 0.36852 0.0
C244 C 0.33682 0.99922 0.37356 0.0
C245 C 0.28755 0.04211 0.33307 0.0
C246 C 0.26173 0.9949 0.30431 0.0
C247 C 0.27193 0.94932 0.31201 0.0
C248 C 0.3104 0.9524 0.34507 0.0
C249 C 0.27891 0.09199 0.32484 0.0
C250 C 0.24381 0.89756 0.28373 0.0
H251 H 0.09947 0.98351 0.25071 0.0
H252 H 0.24016 1.00503 0.12086 0.0
H253 H 0.15179 0.01726 0.36136 0.0
H254 H 0.09902 0.95858 0.34306 0.0
H255 H 0.15952 0.95522 0.36164 0.0
H256 H 0.32649 0.02104 0.14013 0.0
H257 H 0.33727 0.04592 0.20999 0.0
H258 H 0.32207 0.97764 0.19362 0.0
H259 H 0.34153 0.07922 0.39161 0.0
H260 H 0.32044 0.91807 0.34714 0.0
H261 H 0.23564 0.08701 0.34053 0.0
H262 H 0.28798 0.10076 0.27935 0.0
H263 H 0.30504 0.12628 0.34719 0.0
H264 H 0.20069 0.89147 0.283 0.0
H265 H 0.24468 0.86395 0.3052 0.0
H266 H 0.26492 0.89736 0.23954 0.0
C267 C 0.98262 0.84066 0.91893 0.0
C268 C 0.94521 0.86331 0.91251 0.0
C269 C 0.98829 0.79857 0.88392 0.0
C270 C 0.95682 0.77962 0.84059 0.0
C271 C 0.91823 0.80162 0.83476 0.0
C272 C 0.91246 0.84265 0.87112 0.0
C273 C 0.02901 0.77538 0.89229 0.0
C274 C 0.8847 0.78347 0.7884 0.0
C275 C 0.01145 0.71658 0.70841 0.0
C276 C 0.97743 0.66366 0.71498 0.0
C277 C 1.00592 0.75453 0.74956 0.0
C278 C 0.96613 0.73902 0.79906 0.0
C279 C 0.93289 0.68528 0.80673 0.0
C280 C 0.93846 0.6483 0.76423 0.0
C281 C 0.0415 0.81145 0.73921 0.0
C282 C 0.89096 0.66702 0.85947 0.0
H283 H 0.00805 0.85631 0.9508 0.0
H284 H 0.88379 0.86012 0.86532 0.0
H285 H 0.0099 0.73191 0.89337 0.0
H286 H 0.0637 0.78557 0.85642 0.0
H287 H 0.04537 0.79004 0.93178 0.0
H288 H 0.85544 0.80367 0.79049 0.0
H289 H 0.91219 0.79109 0.74684 0.0
H290 H 0.86146 0.74055 0.79071 0.0
H291 H 0.04137 0.72852 0.67017 0.0
H292 H 0.91255 0.60725 0.76957 0.0
H293 H 0.06425 0.82793 0.7743 0.0
H294 H 0.0156 0.83453 0.73772 0.0
H295 H 0.07134 0.8169 0.69919 0.0
H296 H 0.91015 0.68194 0.89724 0.0
H297 H 0.87177 0.62353 0.86116 0.0
H298 H 0.85841 0.68312 0.86158 0.0
C299 C 0.17582 0.06403 0.8711 0.0
C300 C 0.124 0.02662 0.86714 0.0
C301 C 0.22212 0.06461 0.83141 0.0
C302 C 0.21678 0.02557 0.78803 0.0
C303 C 0.1645 0.98696 0.78484 0.0
C304 C 0.1187 0.98843 0.82393 0.0
C305 C 0.27646 0.10792 0.83491 0.0
C306 C 0.1568 0.94327 0.74101 0.0
C307 C 0.32276 0.0453 0.65289 0.0
C308 C 0.3563 0.02059 0.66526 0.0
C309 C 0.27834 0.04871 0.69302 0.0
C310 C 0.26576 0.02501 0.74611 0.0
C311 C 0.29964 1.00011 0.75876 0.0
C312 C 0.34551 0.99991 0.71902 0.0
C313 C 0.24461 0.07737 0.67847 0.0
C314 C 0.28678 0.97257 0.81377 0.0
H315 H 0.17979 0.094 0.90409 0.0
H316 H 0.07863 0.9592 0.82115 0.0
H317 H 0.3065 0.09113 0.84125 0.0
H318 H 0.29276 0.12934 0.7947 0.0
H319 H 0.2734 0.13644 0.86978 0.0
H320 H 0.11316 0.92281 0.73748 0.0
H321 H 0.18012 0.95818 0.69901 0.0
H322 H 0.17231 0.91423 0.75285 0.0
H323 H 0.33156 0.06224 0.61179 0.0
H324 H 0.37254 0.98263 0.7297 0.0
H325 H 0.24131 0.10714 0.71174 0.0
H326 H 0.2026 0.04929 0.67653 0.0
H327 H 0.26229 0.09728 0.63742 0.0
H328 H 0.28839 1.00107 0.84946 0.0
H329 H 0.3156 0.95279 0.81597 0.0
H330 H 0.24467 0.94273 0.81936 0.0
C331 C 0.03519 0.19908 0.78612 0.0
C332 C 0.99319 0.17757 0.83176 0.0
C333 C 0.03419 0.23765 0.75249 0.0
C334 C 0.98941 0.25468 0.76365 0.0
C335 C 0.94644 0.2327 0.80938 0.0
C336 C 0.94919 0.19497 0.84333 0.0
C337 C 0.08115 0.26005 0.7047 0.0
C338 C 0.89739 0.24879 0.82226 0.0
C339 C 0.01198 0.38694 0.70371 0.0
C340 C 0.9919 0.37172 0.65313 0.0
C341 C 0.01071 0.3494 0.74042 0.0
C342 C 0.98782 0.2951 0.72691 0.0
C343 C 0.96624 0.2796 0.67646 0.0
C344 C 0.96911 0.318 0.63999 0.0
C345 C 0.03492 0.36791 0.79314 0.0
C346 C 0.94035 0.22235 0.66084 0.0
H347 H 0.06936 0.1859 0.77677 0.0
H348 H 0.91617 0.17802 0.87796 0.0
H349 H 0.0662 0.25116 0.66407 0.0
H350 H 0.09914 0.30342 0.70942 0.0
H351 H 0.11383 0.24405 0.7027 0.0
H352 H 0.86463 0.22371 0.85459 0.0
H353 H 0.90988 0.29013 0.83781 0.0
H354 H 0.88044 0.24671 0.78355 0.0
H355 H 0.02931 0.42841 0.71418 0.0
H356 H 0.95351 0.30606 0.60096 0.0
H357 H 0.06923 0.3544 0.79202 0.0
H358 H 1.00388 0.35055 0.83064 0.0
H359 H 0.05031 0.41136 0.7982 0.0
H360 H 0.97118 0.20355 0.65437 0.0
H361 H 0.92264 0.21659 0.62195 0.0
H362 H 0.90756 0.20179 0.69573 0.0
C363 C 0.79609 0.02754 0.86937 0.0
C364 C 0.85225 0.03767 0.85513 0.0
C365 C 0.7669 0.03244 0.82982 0.0
C366 C 0.79475 0.04911 0.77496 0.0
C367 C 0.85202 0.06242 0.76116 0.0
C368 C 0.88001 0.05563 0.80121 0.0
C369 C 0.70571 0.01721 0.84606 0.0
C370 C 0.88374 0.08159 0.70364 0.0
C371 C 0.70511 0.9973 0.66453 0.0
C372 C 0.68696 0.03842 0.66212 0.0
C373 C 0.74232 1.00125 0.69937 0.0
C374 C 0.76252 0.0479 0.73147 0.0
C375 C 0.74675 0.09078 0.72647 0.0
C376 C 0.70822 0.08518 0.69247 0.0
C377 C 0.75808 0.95466 0.70377 0.0
C378 C 0.76941 0.14187 0.7582 0.0
H379 H 0.77423 0.01373 0.91096 0.0
H380 H 0.92344 0.06373 0.78987 0.0
H381 H 0.69367 0.05006 0.83829 0.0
H382 H 0.68497 0.98324 0.81966 0.0
H383 H 0.69056 1.00642 0.89099 0.0
H384 H 0.92645 0.10779 0.70607 0.0
H385 H 0.88529 0.04739 0.67622 0.0
H386 H 0.86455 0.10299 0.68349 0.0
H387 H 0.68861 0.96133 0.64065 0.0
H388 H 0.69462 0.11721 0.68961 0.0
H389 H 0.74405 0.93995 0.74742 0.0
H390 H 0.80315 0.96657 0.69437 0.0
H391 H 0.74015 0.92197 0.67454 0.0
H392 H 0.75095 0.13669 0.80345 0.0
H393 H 0.76077 0.17399 0.74228 0.0
H394 H 0.81422 0.15381 0.75496 0.0
loop_
_geom_bond_atom_site_label_1
_geom_bond_atom_site_label_2
_geom_bond_distance
_geom_bond_site_symmetry_2
_ccdc_geom_bond_type
Co0 O3 2.042 1_655 S
Co0 O10 2.264 1_655 S
Co0 O29 2.286 . S
Co0 O30 2.069 1_655 S
Co0 O32 2.015 . S
Co1 O3 2.122 1_545 S
Co1 O9 2.073 . S
Co1 O10 2.327 1_545 S
Co1 O11 1.976 . S
Co2 O3 2.099 1_545 S
Co2 O5 2.075 1_454 S
Co2 O12 2.127 . S
Co2 O13 2.148 1_554 S
Co2 O17 2.096 1_444 S
Co2 O31 2.140 1_445 S
O3 Co0 2.042 1_455 S
O3 Co1 2.122 1_565 S
O3 Co2 2.099 1_565 S
O3 H4 0.980 . S
H4 O3 0.980 . S
O5 Co2 2.075 1_656 S
O5 Co6 2.042 1_655 S
O5 Co7 2.122 1_545 S
O5 H8 0.980 . S
Co6 O5 2.042 1_455 S
Co6 O14 2.286 . S
Co6 O15 2.069 1_455 S
Co6 O16 2.015 . S
Co6 O19 2.264 1_455 S
Co7 O5 2.122 1_565 S
Co7 O18 1.976 . S
Co7 O19 2.327 1_565 S
Co7 O20 2.073 . S
H8 O5 0.980 . S
O9 Co1 2.073 . S
O9 C24 1.245 1_545 S
O10 Co0 2.264 1_455 S
O10 Co1 2.327 1_565 S
O10 C24 1.257 . S
O11 Co1 1.976 . S
O11 C23 1.251 . S
O12 Co2 2.127 . S
O12 C23 1.274 . S
O13 Co2 2.148 1_556 S
O13 C26 1.246 . S
O14 Co6 2.286 . S
O14 C25 1.259 1_455 S
O15 Co6 2.069 1_655 S
O15 C25 1.289 . S
O16 Co6 2.015 . S
O16 C26 1.257 . S
O17 Co2 2.096 1_666 S
O17 C27 1.274 . S
O18 Co7 1.976 . S
O18 C27 1.251 . S
O19 Co6 2.264 1_655 S
O19 Co7 2.327 1_545 S
O19 C28 1.257 . S
O20 Co7 2.073 . S
O20 C28 1.245 1_565 S
C21 O29 1.259 1_455 S
C21 O30 1.289 . S
C22 O31 1.246 . S
C22 O32 1.257 . S
C23 O11 1.251 . S
C23 O12 1.274 . S
C24 O9 1.245 1_565 S
C24 O10 1.257 . S
C25 O14 1.259 1_655 S
C25 O15 1.289 . S
C26 O13 1.246 . S
C26 O16 1.257 . S
C27 O17 1.274 . S
C27 O18 1.251 . S
C28 O19 1.257 . S
C28 O20 1.245 1_545 S
O29 Co0 2.286 . S
O29 C21 1.259 1_655 S
O30 Co0 2.069 1_455 S
O30 C21 1.289 . S
O31 Co2 2.140 1_665 S
O31 C22 1.246 . S
O32 Co0 2.015 . S
O32 C22 1.257 . S
C33 C34 1.443 . S
C33 N37 1.376 . S
C33 C71 1.389 . S
C34 C33 1.443 . S
C34 C35 1.340 . S
C34 H74 0.951 . S
C35 C34 1.340 . S
C35 C36 1.439 . S
C35 H75 0.950 . S
C36 C35 1.439 . S
C36 N37 1.374 . S
C36 C70 1.395 . S
N37 C33 1.376 . S
N37 C36 1.374 . S
N37 Co38 2.014 . S
Co38 N37 2.014 . S
Co38 N39 2.008 . S
Co38 N44 2.003 1_455 S
Co38 N49 1.981 1_455 S
Co38 N54 2.286 . S
Co38 N60 2.279 1_455 S
N39 Co38 2.008 . S
N39 C40 1.376 . S
N39 C43 1.383 . S
C40 N39 1.376 . S
C40 C41 1.446 . S
C40 C70 1.391 . S
C41 C40 1.446 . S
C41 C42 1.339 . S
C41 H76 0.949 . S
C42 C41 1.339 . S
C42 C43 1.439 . S
C42 H77 0.950 . S
C43 N39 1.383 . S
C43 C42 1.439 . S
C43 C72 1.393 1_455 S
N44 Co38 2.003 1_655 S
N44 C45 1.376 . S
N44 C48 1.374 . S
C45 N44 1.376 . S
C45 C46 1.443 . S
C45 C72 1.386 . S
C46 C45 1.443 . S
C46 C47 1.340 . S
C46 H78 0.951 . S
C47 C46 1.340 . S
C47 C48 1.439 . S
C47 H79 0.950 . S
C48 N44 1.374 . S
C48 C47 1.439 . S
C48 C73 1.395 . S
N49 Co38 1.981 1_655 S
N49 C50 1.376 . S
N49 C53 1.383 . S
C50 N49 1.376 . S
C50 C51 1.446 . S
C50 C73 1.391 . S
C51 C50 1.446 . S
C51 C52 1.339 . S
C51 H80 0.949 . S
C52 C51 1.339 . S
C52 C53 1.439 . S
C52 H81 0.950 . S
C53 N49 1.383 . S
C53 C52 1.439 . S
C53 C71 1.392 1_655 S
N54 Co38 2.286 . S
N54 C57 1.332 1_455 S
N54 C59 1.332 . S
C55 C56 1.386 1_455 S
C55 C58 1.388 . S
C56 C55 1.386 1_655 S
C56 C57 1.382 . S
C56 H82 0.950 . S
C57 N54 1.332 1_655 S
C57 C56 1.382 . S
C57 H68 0.952 . S
C58 C55 1.388 . S
C58 C59 1.382 . S
C58 H83 0.950 . S
C59 N54 1.332 . S
C59 C58 1.382 . S
C59 H69 0.948 . S
N60 Co38 2.279 1_655 S
N60 C64 1.332 1_655 S
N60 C65 1.332 . S
C61 C62 1.388 1_655 S
C61 C65 1.382 . S
C61 H84 0.950 . S
C62 C61 1.388 1_455 S
C62 C63 1.386 . S
C63 C62 1.386 . S
C63 C64 1.382 . S
C63 H85 0.950 . S
C64 N60 1.332 1_455 S
C64 C63 1.382 . S
C64 H66 0.952 . S
C65 N60 1.332 . S
C65 C61 1.382 . S
C65 H67 0.948 . S
H66 C64 0.952 . S
H67 C65 0.948 . S
H68 C57 0.952 . S
H69 C59 0.948 . S
C70 C36 1.395 . S
C70 C40 1.391 . S
C71 C33 1.389 . S
C71 C53 1.392 1_455 S
C72 C43 1.393 1_655 S
C72 C45 1.386 . S
C73 C48 1.395 . S
C73 C50 1.391 . S
H74 C34 0.951 . S
H75 C35 0.950 . S
H76 C41 0.949 . S
H77 C42 0.950 . S
H78 C46 0.951 . S
H79 C47 0.950 . S
H80 C51 0.949 . S
H81 C52 0.950 . S
H82 C56 0.950 . S
H83 C58 0.950 . S
H84 C61 0.950 . S
H85 C63 0.950 . S
C86 C87 1.443 . S
C86 N90 1.376 . S
C86 C124 1.387 . S
C87 C86 1.443 . S
C87 C88 1.340 . S
C87 H127 0.951 . S
C88 C87 1.340 . S
C88 C89 1.439 . S
C88 H128 0.950 . S
C89 C88 1.439 . S
C89 N90 1.374 . S
C89 C123 1.395 . S
N90 C86 1.376 . S
N90 C89 1.374 . S
N90 Co91 2.001 1_565 S
Co91 N90 2.001 1_545 S
Co91 N92 1.983 1_545 S
Co91 N97 2.015 . S
Co91 N102 2.006 . S
Co91 N107 2.277 1_545 S
Co91 N113 2.288 . S
N92 Co91 1.983 1_565 S
N92 C93 1.376 . S
N92 C96 1.383 . S
C93 N92 1.376 . S
C93 C94 1.446 . S
C93 C123 1.391 . S
C94 C93 1.446 . S
C94 C95 1.339 . S
C94 H129 0.949 . S
C95 C94 1.339 . S
C95 C96 1.439 . S
C95 H130 0.950 . S
C96 N92 1.383 . S
C96 C95 1.439 . S
C96 C125 1.392 1_565 S
N97 Co91 2.015 . S
N97 C98 1.376 . S
N97 C101 1.374 . S
C98 N97 1.376 . S
C98 C99 1.443 . S
C98 C125 1.389 . S
C99 C98 1.443 . S
C99 C100 1.340 . S
C99 H131 0.951 . S
C100 C99 1.340 . S
C100 C101 1.439 . S
C100 H132 0.950 . S
C101 N97 1.374 . S
C101 C100 1.439 . S
C101 C126 1.395 . S
N102 Co91 2.006 . S
N102 C103 1.376 . S
N102 C106 1.383 . S
C103 N102 1.376 . S
C103 C104 1.446 . S
C103 C126 1.391 . S
C104 C103 1.446 . S
C104 C105 1.339 . S
C104 H133 0.949 . S
C105 C104 1.339 . S
C105 C106 1.439 . S
C105 H134 0.950 . S
C106 N102 1.383 . S
C106 C105 1.439 . S
C106 C124 1.393 1_545 S
N107 Co91 2.277 1_565 S
N107 C110 1.332 1_565 S
N107 C112 1.332 . S
C108 C109 1.385 . S
C108 C111 1.388 1_545 S
C109 C108 1.385 . S
C109 C110 1.382 . S
C109 H135 0.950 . S
C110 N107 1.332 1_545 S
C110 C109 1.382 . S
C110 H121 0.952 . S
C111 C108 1.388 1_565 S
C111 C112 1.382 . S
C111 H136 0.950 . S
C112 N107 1.332 . S
C112 C111 1.382 . S
C112 H122 0.948 . S
N113 Co91 2.288 . S
N113 C117 1.332 1_545 S
N113 C118 1.332 . S
C114 C115 1.388 . S
C114 C118 1.382 . S
C114 H137 0.950 . S
C115 C114 1.388 . S
C115 C116 1.386 1_545 S
C116 C115 1.386 1_565 S
C116 C117 1.382 . S
C116 H138 0.950 . S
C117 N113 1.332 1_565 S
C117 C116 1.382 . S
C117 H119 0.952 . S
C118 N113 1.332 . S
C118 C114 1.382 . S
C118 H120 0.948 . S
H119 C117 0.952 . S
H120 C118 0.948 . S
H121 C110 0.952 . S
H122 C112 0.948 . S
C123 C89 1.395 . S
C123 C93 1.391 . S
C124 C86 1.387 . S
C124 C106 1.393 1_565 S
C125 C96 1.392 1_545 S
C125 C98 1.389 . S
C126 C101 1.395 . S
C126 C103 1.391 . S
H127 C87 0.951 . S
H128 C88 0.950 . S
H129 C94 0.949 . S
H130 C95 0.950 . S
H131 C99 0.951 . S
H132 C100 0.950 . S
H133 C104 0.949 . S
H134 C105 0.950 . S
H135 C109 0.950 . S
H136 C111 0.950 . S
H137 C114 0.950 . S
H138 C116 0.950 . S
C139 C140 1.381 1_455 S
C139 C141 1.394 . S
C139 H155 0.931 . S
C140 C139 1.381 1_655 S
C140 C144 1.391 . S
C141 C139 1.394 . S
C141 C142 1.369 1_455 S
C141 C145 1.531 . S
C142 C141 1.369 1_655 S
C142 C143 1.410 . S
C142 C150 1.503 . S
C143 C142 1.410 . S
C143 C144 1.392 . S
C143 C146 1.511 . S
C144 C140 1.391 . S
C144 C143 1.392 . S
C144 H156 0.929 . S
C145 C141 1.531 . S
C145 H157 0.960 . S
C145 H158 0.962 . S
C145 H159 0.960 . S
C146 C143 1.511 . S
C146 H160 0.961 . S
C146 H161 0.961 . S
C146 H162 0.961 . S
C147 C148 1.365 1_455 S
C147 C149 1.363 . S
C147 H163 0.931 . S
C148 C147 1.365 1_655 S
C148 C152 1.412 . S
C149 C147 1.363 . S
C149 C150 1.370 1_455 S
C149 C153 1.524 . S
C150 C142 1.503 . S
C150 C149 1.370 1_655 S
C150 C151 1.403 . S
C151 C150 1.403 . S
C151 C152 1.404 . S
C151 C154 1.539 . S
C152 C148 1.412 . S
C152 C151 1.404 . S
C152 H164 0.930 . S
C153 C149 1.524 . S
C153 H165 0.956 . S
C153 H166 0.961 . S
C153 H167 0.961 . S
C154 C151 1.539 . S
C154 H168 0.958 . S
C154 H169 0.961 . S
C154 H170 0.960 . S
H155 C139 0.931 . S
H156 C144 0.929 . S
H157 C145 0.960 . S
H158 C145 0.962 . S
H159 C145 0.960 . S
H160 C146 0.961 . S
H161 C146 0.961 . S
H162 C146 0.961 . S
H163 C147 0.931 . S
H164 C152 0.930 . S
H165 C153 0.956 . S
H166 C153 0.961 . S
H167 C153 0.961 . S
H168 C154 0.958 . S
H169 C154 0.961 . S
H170 C154 0.960 . S
C171 C172 1.391 . S
C171 C173 1.394 . S
C171 H187 0.931 . S
C172 C171 1.391 . S
C172 C176 1.376 1_565 S
C173 C171 1.394 . S
C173 C174 1.369 . S
C173 C177 1.531 . S
C174 C173 1.369 . S
C174 C175 1.410 1_565 S
C174 C182 1.503 . S
C175 C174 1.410 1_545 S
C175 C176 1.392 . S
C175 C178 1.511 . S
C176 C172 1.376 1_545 S
C176 C175 1.392 . S
C176 H188 0.929 . S
C177 C173 1.531 . S
C177 H189 0.960 . S
C177 H190 0.962 . S
C177 H191 0.960 . S
C178 C175 1.511 . S
C178 H192 0.961 . S
C178 H193 0.961 . S
C178 H194 0.961 . S
C179 C180 1.370 1_545 S
C179 C181 1.363 . S
C179 H195 0.931 . S
C180 C179 1.370 1_565 S
C180 C184 1.408 . S
C181 C179 1.363 . S
C181 C182 1.370 1_545 S
C181 C185 1.524 . S
C182 C174 1.503 . S
C182 C181 1.370 1_565 S
C182 C183 1.403 . S
C183 C182 1.403 . S
C183 C184 1.404 . S
C183 C186 1.539 . S
C184 C180 1.408 . S
C184 C183 1.404 . S
C184 H196 0.930 . S
C185 C181 1.524 . S
C185 H197 0.956 . S
C185 H198 0.961 . S
C185 H199 0.961 . S
C186 C183 1.539 . S
C186 H200 0.958 . S
C186 H201 0.961 . S
C186 H202 0.960 . S
H187 C171 0.931 . S
H188 C176 0.929 . S
H189 C177 0.960 . S
H190 C177 0.962 . S
H191 C177 0.960 . S
H192 C178 0.961 . S
H193 C178 0.961 . S
H194 C178 0.961 . S
H195 C179 0.931 . S
H196 C184 0.930 . S
H197 C185 0.956 . S
H198 C185 0.961 . S
H199 C185 0.961 . S
H200 C186 0.958 . S
H201 C186 0.961 . S
H202 C186 0.960 . S
C203 C204 1.391 . S
C203 C205 1.394 . S
C203 H219 0.931 . S
C204 C203 1.391 . S
C204 C208 1.376 1_455 S
C205 C203 1.394 . S
C205 C206 1.369 1_455 S
C205 C209 1.531 . S
C206 C205 1.369 1_655 S
C206 C207 1.410 . S
C206 C214 1.503 . S
C207 C206 1.410 . S
C207 C208 1.392 . S
C207 C210 1.511 . S
C208 C204 1.376 1_655 S
C208 C207 1.392 . S
C208 H220 0.929 . S
C209 C205 1.531 . S
C209 H221 0.960 . S
C209 H222 0.962 . S
C209 H223 0.960 . S
C210 C207 1.511 . S
C210 H224 0.961 . S
C210 H225 0.961 . S
C210 H226 0.961 . S
C211 C212 1.368 1_455 S
C211 C213 1.363 . S
C211 H227 0.931 . S
C212 C211 1.368 1_655 S
C212 C216 1.413 . S
C213 C211 1.363 . S
C213 C214 1.370 1_455 S
C213 C217 1.524 . S
C214 C206 1.503 . S
C214 C213 1.370 1_655 S
C214 C215 1.403 . S
C215 C214 1.403 . S
C215 C216 1.404 . S
C215 C218 1.539 . S
C216 C212 1.413 . S
C216 C215 1.404 . S
C216 H228 0.930 . S
C217 C213 1.524 . S
C217 H229 0.956 . S
C217 H230 0.961 . S
C217 H231 0.961 . S
C218 C215 1.539 . S
C218 H232 0.958 . S
C218 H233 0.961 . S
C218 H234 0.960 . S
H219 C203 0.931 . S
H220 C208 0.929 . S
H221 C209 0.960 . S
H222 C209 0.962 . S
H223 C209 0.960 . S
H224 C210 0.961 . S
H225 C210 0.961 . S
H226 C210 0.961 . S
H227 C211 0.931 . S
H228 C216 0.930 . S
H229 C217 0.956 . S
H230 C217 0.961 . S
H231 C217 0.961 . S
H232 C218 0.958 . S
H233 C218 0.961 . S
H234 C218 0.960 . S
C235 C236 1.391 . S
C235 C237 1.394 . S
C235 H251 0.931 . S
C236 C235 1.391 . S
C236 C240 1.376 1_565 S
C237 C235 1.394 . S
C237 C238 1.369 . S
C237 C241 1.531 . S
C238 C237 1.369 . S
C238 C239 1.410 1_565 S
C238 C246 1.503 . S
C239 C238 1.410 1_545 S
C239 C240 1.392 . S
C239 C242 1.511 . S
C240 C236 1.376 1_545 S
C240 C239 1.392 . S
C240 H252 0.929 . S
C241 C237 1.531 . S
C241 H253 0.960 . S
C241 H254 0.962 . S
C241 H255 0.960 . S
C242 C239 1.511 . S
C242 H256 0.961 . S
C242 H257 0.961 . S
C242 H258 0.961 . S
C243 C244 1.370 1_545 S
C243 C245 1.363 . S
C243 H259 0.931 . S
C244 C243 1.370 1_565 S
C244 C248 1.408 . S
C245 C243 1.363 . S
C245 C246 1.370 1_545 S
C245 C249 1.524 . S
C246 C238 1.503 . S
C246 C245 1.370 1_565 S
C246 C247 1.403 . S
C247 C246 1.403 . S
C247 C248 1.404 . S
C247 C250 1.539 . S
C248 C244 1.408 . S
C248 C247 1.404 . S
C248 H260 0.930 . S
C249 C245 1.524 . S
C249 H261 0.956 . S
C249 H262 0.961 . S
C249 H263 0.961 . S
C250 C247 1.539 . S
C250 H264 0.958 . S
C250 H265 0.961 . S
C250 H266 0.960 . S
H251 C235 0.931 . S
H252 C240 0.929 . S
H253 C241 0.960 . S
H254 C241 0.962 . S
H255 C241 0.960 . S
H256 C242 0.961 . S
H257 C242 0.961 . S
H258 C242 0.961 . S
H259 C243 0.931 . S
H260 C248 0.930 . S
H261 C249 0.956 . S
H262 C249 0.961 . S
H263 C249 0.961 . S
H264 C250 0.958 . S
H265 C250 0.961 . S
H266 C250 0.960 . S
C267 C268 1.391 1_455 S
C267 C269 1.394 . S
C267 H283 0.931 . S
C268 C267 1.391 1_655 S
C268 C272 1.376 . S
C269 C267 1.394 . S
C269 C270 1.369 1_455 S
C269 C273 1.531 . S
C270 C269 1.369 1_655 S
C270 C271 1.410 . S
C270 C278 1.503 . S
C271 C270 1.410 . S
C271 C272 1.392 . S
C271 C274 1.511 . S
C272 C268 1.376 . S
C272 C271 1.392 . S
C272 H284 0.929 . S
C273 C269 1.531 . S
C273 H285 0.960 . S
C273 H286 0.962 . S
C273 H287 0.960 . S
C274 C271 1.511 . S
C274 H288 0.961 . S
C274 H289 0.961 . S
C274 H290 0.961 . S
C275 C276 1.369 1_455 S
C275 C277 1.363 . S
C275 H291 0.931 . S
C276 C275 1.369 1_655 S
C276 C280 1.411 . S
C277 C275 1.363 . S
C277 C278 1.370 1_455 S
C277 C281 1.524 . S
C278 C270 1.503 . S
C278 C277 1.370 1_655 S
C278 C279 1.403 . S
C279 C278 1.403 . S
C279 C280 1.404 . S
C279 C282 1.539 . S
C280 C276 1.411 . S
C280 C279 1.404 . S
C280 H292 0.930 . S
C281 C277 1.524 . S
C281 H293 0.956 . S
C281 H294 0.961 . S
C281 H295 0.961 . S
C282 C279 1.539 . S
C282 H296 0.958 . S
C282 H297 0.961 . S
C282 H298 0.960 . S
H283 C267 0.931 . S
H284 C272 0.929 . S
H285 C273 0.960 . S
H286 C273 0.962 . S
H287 C273 0.960 . S
H288 C274 0.961 . S
H289 C274 0.961 . S
H290 C274 0.961 . S
H291 C275 0.931 . S
H292 C280 0.930 . S
H293 C281 0.956 . S
H294 C281 0.961 . S
H295 C281 0.961 . S
H296 C282 0.958 . S
H297 C282 0.961 . S
H298 C282 0.960 . S
C299 C300 1.391 . S
C299 C301 1.394 . S
C299 H315 0.931 . S
C300 C299 1.391 . S
C300 C304 1.376 1_545 S
C301 C299 1.394 . S
C301 C302 1.369 1_545 S
C301 C305 1.531 . S
C302 C301 1.369 1_565 S
C302 C303 1.410 . S
C302 C310 1.503 . S
C303 C302 1.410 . S
C303 C304 1.392 . S
C303 C306 1.511 . S
C304 C300 1.376 1_565 S
C304 C303 1.392 . S
C304 H316 0.929 . S
C305 C301 1.531 . S
C305 H317 0.960 . S
C305 H318 0.962 . S
C305 H319 0.960 . S
C306 C303 1.511 . S
C306 H320 0.961 . S
C306 H321 0.961 . S
C306 H322 0.961 . S
C307 C308 1.369 . S
C307 C309 1.363 . S
C307 H323 0.931 . S
C308 C307 1.369 . S
C308 C312 1.409 1_545 S
C309 C307 1.363 . S
C309 C310 1.370 1_545 S
C309 C313 1.524 . S
C310 C302 1.503 . S
C310 C309 1.370 1_565 S
C310 C311 1.403 . S
C311 C310 1.403 . S
C311 C312 1.404 . S
C311 C314 1.539 . S
C312 C308 1.409 1_565 S
C312 C311 1.404 . S
C312 H324 0.930 . S
C313 C309 1.524 . S
C313 H325 0.956 . S
C313 H326 0.961 . S
C313 H327 0.961 . S
C314 C311 1.539 . S
C314 H328 0.958 . S
C314 H329 0.961 . S
C314 H330 0.960 . S
H315 C299 0.931 . S
H316 C304 0.929 . S
H317 C305 0.960 . S
H318 C305 0.962 . S
H319 C305 0.960 . S
H320 C306 0.961 . S
H321 C306 0.961 . S
H322 C306 0.961 . S
H323 C307 0.931 . S
H324 C312 0.930 . S
H325 C313 0.956 . S
H326 C313 0.961 . S
H327 C313 0.961 . S
H328 C314 0.958 . S
H329 C314 0.961 . S
H330 C314 0.960 . S
C331 C332 1.391 1_455 S
C331 C333 1.394 . S
C331 H347 0.931 . S
C332 C331 1.391 1_655 S
C332 C336 1.376 . S
C333 C331 1.394 . S
C333 C334 1.369 1_455 S
C333 C337 1.531 . S
C334 C333 1.369 1_655 S
C334 C335 1.410 . S
C334 C342 1.503 . S
C335 C334 1.410 . S
C335 C336 1.392 . S
C335 C338 1.511 . S
C336 C332 1.376 . S
C336 C335 1.392 . S
C336 H348 0.929 . S
C337 C333 1.531 . S
C337 H349 0.960 . S
C337 H350 0.962 . S
C337 H351 0.960 . S
C338 C335 1.511 . S
C338 H352 0.961 . S
C338 H353 0.961 . S
C338 H354 0.961 . S
C339 C340 1.370 1_455 S
C339 C341 1.363 . S
C339 H355 0.931 . S
C340 C339 1.370 1_655 S
C340 C344 1.408 . S
C341 C339 1.363 . S
C341 C342 1.370 1_455 S
C341 C345 1.524 . S
C342 C334 1.503 . S
C342 C341 1.370 1_655 S
C342 C343 1.403 . S
C343 C342 1.403 . S
C343 C344 1.404 . S
C343 C346 1.539 . S
C344 C340 1.408 . S
C344 C343 1.404 . S
C344 H356 0.930 . S
C345 C341 1.524 . S
C345 H357 0.956 . S
C345 H358 0.961 . S
C345 H359 0.961 . S
C346 C343 1.539 . S
C346 H360 0.958 . S
C346 H361 0.961 . S
C346 H362 0.960 . S
H347 C331 0.931 . S
H348 C336 0.929 . S
H349 C337 0.960 . S
H350 C337 0.962 . S
H351 C337 0.960 . S
H352 C338 0.961 . S
H353 C338 0.961 . S
H354 C338 0.961 . S
H355 C339 0.931 . S
H356 C344 0.930 . S
H357 C345 0.956 . S
H358 C345 0.961 . S
H359 C345 0.961 . S
H360 C346 0.958 . S
H361 C346 0.961 . S
H362 C346 0.960 . S
C363 C364 1.391 . S
C363 C365 1.394 . S
C363 H379 0.931 . S
C364 C363 1.391 . S
C364 C368 1.376 . S
C365 C363 1.394 . S
C365 C366 1.369 . S
C365 C369 1.531 . S
C366 C365 1.369 . S
C366 C367 1.410 . S
C366 C374 1.503 . S
C367 C366 1.410 . S
C367 C368 1.392 . S
C367 C370 1.511 . S
C368 C364 1.376 . S
C368 C367 1.392 . S
C368 H380 0.929 . S
C369 C365 1.531 . S
C369 H381 0.960 . S
C369 H382 0.962 1_545 S
C369 H383 0.960 . S
C370 C367 1.511 . S
C370 H384 0.961 . S
C370 H385 0.961 . S
C370 H386 0.961 . S
C371 C372 1.370 1_565 S
C371 C373 1.363 . S
C371 H387 0.931 . S
C372 C371 1.370 1_545 S
C372 C376 1.408 . S
C373 C371 1.363 . S
C373 C374 1.370 1_565 S
C373 C377 1.524 . S
C374 C366 1.503 . S
C374 C373 1.370 1_545 S
C374 C375 1.403 . S
C375 C374 1.403 . S
C375 C376 1.404 . S
C375 C378 1.539 . S
C376 C372 1.408 . S
C376 C375 1.404 . S
C376 H388 0.930 . S
C377 C373 1.524 . S
C377 H389 0.956 . S
C377 H390 0.961 . S
C377 H391 0.961 . S
C378 C375 1.539 . S
C378 H392 0.958 . S
C378 H393 0.961 . S
C378 H394 0.960 . S
H379 C363 0.931 . S
H380 C368 0.929 . S
H381 C369 0.960 . S
H382 C369 0.962 1_565 S
H383 C369 0.960 . S
H384 C370 0.961 . S
H385 C370 0.961 . S
H386 C370 0.961 . S
H387 C371 0.931 . S
H388 C376 0.930 . S
H389 C377 0.956 . S
H390 C377 0.961 . S
H391 C377 0.961 . S
H392 C378 0.958 . S
H393 C378 0.961 . S
H394 C378 0.960 . S
C140 C23 1.308 1_655 S
C148 C55 1.370 1_655 S
C172 C22 1.518 . S
C180 C125 1.589 1_565 S
C204 C21 1.885 . S
C212 C71 1.908 1_655 S
C236 C24 1.477 . S
C244 C115 1.522 1_565 S
C268 C27 1.281 . S
C276 C62 1.366 1_655 S
C300 C26 1.569 . S
C308 C124 1.585 1_545 S
C340 C72 1.911 . S
C332 C25 1.896 . S
C364 C28 1.486 . S
C372 C108 1.525 . S
