# Generated by pormake.
# Topology pts, (4,4)-cn, num edge types: 1
# Building blocks:
#     Node 0, Type 0, BuildingBlock: KOZSID_clean_sbu_0, # of connection points: 4
#     Node 1, Type 0, BuildingBlock: KOZSID_clean_sbu_0, # of connection points: 4
#     Node 2, Type 1, BuildingBlock: QUQFOY_clean_sbu_1, # of connection points: 4
#     Node 3, Type 1, BuildingBlock: QUQFOY_clean_sbu_1, # of connection points: 4
#     Edge 4, Type (0, 1), BuildingBlock: KIFKEQ_clean_linker_1, # of connection points: 2
#     Edge 5, Type (0, 1), BuildingBlock: KIFKEQ_clean_linker_1, # of connection points: 2
#     Edge 6, Type (0, 1), BuildingBlock: KIFKEQ_clean_linker_1, # of connection points: 2
#     Edge 7, Type (0, 1), BuildingBlock: KIFKEQ_clean_linker_1, # of connection points: 2
#     Edge 8, Type (0, 1), BuildingBlock: KIFKEQ_clean_linker_1, # of connection points: 2
#     Edge 9, Type (0, 1), BuildingBlock: KIFKEQ_clean_linker_1, # of connection points: 2
#     Edge 10, Type (0, 1), BuildingBlock: KIFKEQ_clean_linker_1, # of connection points: 2
#     Edge 11, Type (0, 1), BuildingBlock: KIFKEQ_clean_linker_1, # of connection points: 2
# Relax obj value: 0.094
# Max RMSD: 0.254
# Mean RMSD: 0.145
data_MOF--net-pts--node1-KOZSID_clean_sbu_0--node2-QUQFOY_clean_sbu_1--edge1-KIFKEQ_clean_linker_1
_symmetry_space_group_name_H-M    P1
_symmetry_Int_Tables_number       1
_symmetry_cell_setting            triclinic
loop_
_symmetry_equiv_pos_as_xyz
'x, y, z'
_cell_length_a     25.7506
_cell_length_b     28.84568
_cell_length_c     42.592062
_cell_angle_alpha  86.149477
_cell_angle_beta   94.222784
_cell_angle_gamma 90.086015
loop_
_atom_site_label
_atom_site_type_symbol
_atom_site_fract_x
_atom_site_fract_y
_atom_site_fract_z
_atom_type_partial_charge
C0 C 0.63544 0.10787 0.05345 0.0
C1 C 0.65484 0.15065 0.06183 0.0
C2 C 0.62726 0.18372 0.04329 0.0
C3 C 0.59302 0.15945 0.02455 0.0
N4 N 0.59699 0.11276 0.02991 0.0
Co5 Co 0.55568 0.06449 0.00711 0.0
N6 N 0.51509 0.11343 0.97989 0.0
C7 C 0.52041 0.16005 0.98057 0.0
C8 C 0.48797 0.18486 0.95871 0.0
C9 C 0.46 0.15223 0.94315 0.0
C10 C 0.47683 0.10916 0.95663 0.0
N11 N 0.51455 0.01622 0.98422 0.0
C12 C 0.476 0.02112 0.96074 0.0
C13 C 0.45704 0.97832 0.9521 0.0
C14 C 0.48496 0.94524 0.97042 0.0
C15 C 0.51899 0.96952 0.98929 0.0
N16 N 0.59606 0.01556 0.03446 0.0
C17 C 0.5905 0.96894 0.03393 0.0
C18 C 0.6224 0.94415 0.0561 0.0
C19 C 0.6502 0.97679 0.07176 0.0
C20 C 0.63386 0.01985 0.05799 0.0
N21 N 0.50263 0.06512 0.03869 0.0
C22 C 0.42685 0.06572 0.08326 0.0
C23 C 0.44556 0.024 0.07353 0.0
C24 C 0.483 0.0245 0.05144 0.0
C25 C 0.44701 0.10719 0.07042 0.0
C26 C 0.48452 0.1061 0.04835 0.0
N27 N 0.6087 0.06383 0.9755 0.0
C28 C 0.66473 0.02148 0.94418 0.0
C29 C 0.68325 0.06283 0.93015 0.0
C30 C 0.66377 0.10467 0.93926 0.0
C31 C 0.62699 0.10437 0.96178 0.0
C32 C 0.62783 0.02277 0.96658 0.0
H33 H 0.61389 0.13743 0.9676 0.0
H34 H 0.61552 0.99007 0.97639 0.0
H35 H 0.49541 0.99151 0.04511 0.0
H36 H 0.49809 0.13887 0.03935 0.0
C37 C 0.55695 0.17954 0.0016 0.0
C38 C 0.65536 0.06368 0.06825 0.0
C39 C 0.45543 0.06532 0.94634 0.0
C40 C 0.55457 0.94942 0.01254 0.0
H41 H 0.68593 0.1574 0.07941 0.0
H42 H 0.63184 0.22102 0.04333 0.0
H43 H 0.48527 0.22223 0.95445 0.0
H44 H 0.43069 0.15942 0.92391 0.0
H45 H 0.4259 0.97155 0.93456 0.0
H46 H 0.48057 0.90793 0.97027 0.0
H47 H 0.62489 0.90679 0.06048 0.0
H48 H 0.67909 0.9696 0.09123 0.0
H49 H 0.43181 0.99087 0.08313 0.0
H50 H 0.43337 0.14048 0.07693 0.0
H51 H 0.67913 0.98812 0.9383 0.0
H52 H 0.67634 0.13769 0.92883 0.0
C53 C 0.11007 0.49068 0.55793 0.0
C54 C 0.15813 0.47408 0.57087 0.0
C55 C 0.19505 0.49992 0.55649 0.0
C56 C 0.16769 0.53051 0.53554 0.0
N57 N 0.11539 0.52623 0.53587 0.0
Co58 Co 0.06117 0.56173 0.50763 0.0
N59 N 0.11578 0.59654 0.48434 0.0
C60 C 0.16803 0.59166 0.48948 0.0
C61 C 0.19572 0.62181 0.47099 0.0
C62 C 0.15908 0.64798 0.45315 0.0
C63 C 0.11084 0.63199 0.46169 0.0
N64 N 0.00693 0.59734 0.47953 0.0
C65 C 0.01229 0.63242 0.45716 0.0
C66 C 0.96435 0.64794 0.44337 0.0
C67 C 0.92734 0.62263 0.45808 0.0
C68 C 0.95461 0.59304 0.47978 0.0
N69 N 0.00654 0.52679 0.53078 0.0
C70 C 0.95427 0.53181 0.52581 0.0
C71 C 0.9267 0.50243 0.54493 0.0
C72 C 0.96346 0.47651 0.56289 0.0
C73 C 0.01154 0.49147 0.55348 0.0
N74 N 0.06127 0.61143 0.53788 0.0
C75 C 0.06098 0.68607 0.57754 0.0
C76 C 0.01448 0.6662 0.56606 0.0
C77 C 0.01551 0.62933 0.54646 0.0
C78 C 0.10769 0.66731 0.5693 0.0
C79 C 0.10695 0.63016 0.54979 0.0
N80 N 0.061 0.51203 0.4774 0.0
C81 C 0.01391 0.45744 0.44529 0.0
C82 C 0.06031 0.43715 0.43791 0.0
C83 C 0.10713 0.45564 0.45015 0.0
C84 C 0.10659 0.49288 0.46953 0.0
C85 C 0.01514 0.49448 0.46485 0.0
H86 H 0.14356 0.50531 0.47806 0.0
H87 H 0.9784 0.50785 0.46979 0.0
H88 H 0.97869 0.61635 0.53823 0.0
H89 H 0.14386 0.61746 0.54449 0.0
C90 C 0.18996 0.56096 0.51353 0.0
C91 C 0.06064 0.46997 0.56612 0.0
C92 C 0.06161 0.65315 0.44884 0.0
C93 C 0.93222 0.56258 0.50179 0.0
H94 H 0.16594 0.44539 0.58825 0.0
H95 H 0.23689 0.49576 0.56004 0.0
H96 H 0.2376 0.62545 0.47125 0.0
H97 H 0.16721 0.67646 0.43642 0.0
H98 H 0.95688 0.67531 0.42494 0.0
H99 H 0.8855 0.62612 0.45396 0.0
H100 H 0.88483 0.49944 0.54524 0.0
H101 H 0.95571 0.44906 0.5805 0.0
H102 H 0.97722 0.67967 0.57159 0.0
H103 H 0.1448 0.68097 0.57806 0.0
H104 H 0.97656 0.44422 0.43659 0.0
H105 H 0.14417 0.4417 0.44464 0.0
O106 O 0.98471 0.02051 0.23841 0.0
Cd107 Cd 0.05443 0.00807 0.26464 0.0
Cd108 Cd 0.05221 0.10838 0.26199 0.0
O109 O 0.98139 0.0971 0.23763 0.0
O110 O 0.05446 0.93894 0.27133 0.0
O111 O 0.05715 0.98499 0.31073 0.0
C112 C 0.05606 0.94338 0.30125 0.0
C113 C 0.05477 0.16797 0.29698 0.0
C114 C 0.9616 0.0587 0.22995 0.0
C115 C 0.14074 0.06066 0.23336 0.0
O116 O 0.11894 0.09844 0.239 0.0
O117 O 0.12165 0.0217 0.24224 0.0
O118 O 0.05171 0.17668 0.26686 0.0
O119 O 0.05645 0.12492 0.30755 0.0
O120 O 0.98702 0.10066 0.77022 0.0
Cd121 Cd 0.0554 0.11476 0.74924 0.0
Cd122 Cd 0.05884 0.01447 0.7533 0.0
O123 O 0.99092 0.02402 0.77523 0.0
O124 O 0.05235 0.1838 0.74218 0.0
O125 O 0.05637 0.13757 0.70322 0.0
C126 C 0.05393 0.17921 0.71243 0.0
C127 C 0.05893 0.95484 0.71844 0.0
C128 C 0.96816 0.06189 0.77964 0.0
C129 C 0.14745 0.06606 0.78598 0.0
O130 O 0.1286 0.02728 0.77835 0.0
O131 O 0.12401 0.10391 0.77693 0.0
O132 O 0.06042 0.94614 0.74855 0.0
O133 O 0.05734 0.99788 0.70783 0.0
H134 H 0.42037 0.12185 0.13238 0.0
H135 H 0.34138 0.00975 0.08642 0.0
H136 H 0.35402 0.12095 0.17057 0.0
H137 H 0.27547 0.00873 0.12456 0.0
H138 H 0.19534 0.98695 0.21524 0.0
H139 H 0.2664 0.98868 0.18053 0.0
H140 H 0.26107 0.13869 0.17311 0.0
H141 H 0.19042 0.13713 0.20829 0.0
C142 C 0.38869 0.09725 0.13028 0.0
C143 C 0.38633 0.06573 0.10641 0.0
C144 C 0.35075 0.09669 0.15219 0.0
C145 C 0.30968 0.06456 0.15074 0.0
C146 C 0.30718 0.03328 0.12675 0.0
C147 C 0.34499 0.03389 0.10486 0.0
C148 C 0.20956 0.02036 0.20648 0.0
C149 C 0.18689 0.0619 0.21445 0.0
C150 C 0.25009 0.02132 0.18639 0.0
C151 C 0.26904 0.0638 0.1738 0.0
C152 C 0.24759 0.10539 0.18257 0.0
C153 C 0.20693 0.10446 0.20265 0.0
H154 H 0.02792 0.38419 0.55052 0.0
H155 H 0.09137 0.45895 0.62872 0.0
H156 H 0.02469 0.31315 0.58518 0.0
H157 H 0.09067 0.38788 0.66326 0.0
H158 H 0.03207 0.26825 0.72438 0.0
H159 H 0.03257 0.33738 0.68864 0.0
H160 H 0.07679 0.25415 0.61415 0.0
H161 H 0.07431 0.18435 0.64989 0.0
C162 C 0.04156 0.38508 0.57516 0.0
C163 C 0.06006 0.42666 0.58709 0.0
C164 C 0.04013 0.34445 0.59496 0.0
C165 C 0.05739 0.3446 0.6271 0.0
C166 C 0.07622 0.38647 0.63882 0.0
C167 C 0.07714 0.42711 0.61907 0.0
C168 C 0.0418 0.2646 0.70035 0.0
C169 C 0.05333 0.22078 0.69001 0.0
C170 C 0.04246 0.3044 0.67986 0.0
C171 C 0.05525 0.30163 0.6485 0.0
C172 C 0.06625 0.25763 0.63802 0.0
C173 C 0.06509 0.21761 0.65853 0.0
H174 H 0.75389 0.03202 0.06467 0.0
H175 H 0.65443 0.09414 0.12747 0.0
H176 H 0.82583 0.02985 0.10573 0.0
H177 H 0.72668 0.09286 0.16855 0.0
H178 H 0.89308 0.1306 0.214 0.0
H179 H 0.81706 0.13149 0.17595 0.0
H180 H 0.84488 0.98768 0.16017 0.0
H181 H 0.92047 0.98645 0.19821 0.0
C182 C 0.74766 0.04517 0.08734 0.0
C183 C 0.69898 0.06316 0.09312 0.0
C184 C 0.78856 0.04383 0.1108 0.0
C185 C 0.78168 0.06105 0.14032 0.0
C186 C 0.73304 0.07959 0.14595 0.0
C187 C 0.69186 0.08028 0.12259 0.0
C188 C 0.88269 0.09905 0.20264 0.0
C189 C 0.91298 0.05851 0.20906 0.0
C190 C 0.8391 0.09955 0.18097 0.0
C191 C 0.82542 0.05975 0.16499 0.0
C192 C 0.85495 0.01898 0.17192 0.0
C193 C 0.89804 0.01826 0.19386 0.0
H194 H 0.12124 0.76442 0.57473 0.0
H195 H 0.99971 0.69834 0.62615 0.0
H196 H 0.12064 0.82997 0.60823 0.0
H197 H 0.99824 0.76424 0.65906 0.0
H198 H 0.05447 0.86201 0.73463 0.0
H199 H 0.05513 0.79803 0.70026 0.0
H200 H 0.06401 0.89578 0.61948 0.0
H201 H 0.06382 0.96022 0.65408 0.0
C202 C 0.0945 0.76384 0.59323 0.0
C203 C 0.06062 0.72608 0.59783 0.0
C204 C 0.09375 0.80162 0.61217 0.0
C205 C 0.0594 0.80233 0.63631 0.0
C206 C 0.02551 0.76459 0.64087 0.0
C207 C 0.02603 0.727 0.62182 0.0
C208 C 0.05654 0.87 0.70954 0.0
C209 C 0.05904 0.91629 0.6971 0.0
C210 C 0.05662 0.83325 0.68981 0.0
C211 C 0.05943 0.84178 0.65711 0.0
C212 C 0.06223 0.88806 0.64461 0.0
C213 C 0.06184 0.92496 0.6644 0.0
H214 H 0.35667 0.09591 0.95076 0.0
H215 H 0.45581 0.03593 0.88684 0.0
H216 H 0.28391 0.09735 0.91023 0.0
H217 H 0.38282 0.0365 0.84631 0.0
H218 H 0.21752 0.9955 0.802 0.0
H219 H 0.29373 0.99606 0.83978 0.0
H220 H 0.26214 0.13909 0.85594 0.0
H221 H 0.18625 0.13886 0.81813 0.0
C222 C 0.36266 0.0831 0.92795 0.0
C223 C 0.41144 0.06581 0.92172 0.0
C224 C 0.32129 0.08404 0.9048 0.0
C225 C 0.32785 0.06711 0.87515 0.0
C226 C 0.37669 0.04949 0.86903 0.0
C227 C 0.4183 0.0492 0.89208 0.0
C228 C 0.22705 0.02718 0.81342 0.0
C229 C 0.1957 0.06709 0.80712 0.0
C230 C 0.27077 0.02752 0.83493 0.0
C231 C 0.28356 0.06754 0.85087 0.0
C232 C 0.25281 0.10764 0.84419 0.0
C233 C 0.20955 0.10753 0.8224 0.0
H234 H 0.99758 0.42447 0.38449 0.0
H235 H 0.12149 0.35887 0.44555 0.0
H236 H 0.99558 0.35842 0.35166 0.0
H237 H 0.12058 0.2933 0.41205 0.0
H238 H 0.06439 0.16271 0.36182 0.0
H239 H 0.06561 0.22717 0.39644 0.0
H240 H 0.05021 0.32472 0.31479 0.0
H241 H 0.04828 0.26073 0.2804 0.0
C242 C 0.02434 0.3959 0.39095 0.0
C243 C 0.05972 0.39702 0.41765 0.0
C244 C 0.02355 0.35822 0.37195 0.0
C245 C 0.05805 0.32061 0.37916 0.0
C246 C 0.09321 0.32152 0.40598 0.0
C247 C 0.09414 0.35935 0.42496 0.0
C248 C 0.06124 0.19793 0.35132 0.0
C249 C 0.05609 0.20653 0.31836 0.0
C250 C 0.06221 0.23486 0.37113 0.0
C251 C 0.05779 0.28111 0.35838 0.0
C252 C 0.05288 0.28955 0.32542 0.0
C253 C 0.05209 0.25278 0.30568 0.0
H254 H 0.76662 0.12079 0.92405 0.0
H255 H 0.68982 0.00379 0.88266 0.0
H256 H 0.83165 0.12029 0.88541 0.0
H257 H 0.75534 0.00313 0.84406 0.0
H258 H 0.91975 0.98633 0.80701 0.0
H259 H 0.84879 0.98645 0.84194 0.0
H260 H 0.83972 0.13607 0.82883 0.0
H261 H 0.91099 0.13616 0.79435 0.0
C262 C 0.76325 0.09526 0.9065 0.0
C263 C 0.72287 0.06241 0.90644 0.0
C264 C 0.80056 0.09499 0.88432 0.0
C265 C 0.79854 0.0618 0.86156 0.0
C266 C 0.75827 0.02884 0.8615 0.0
C267 C 0.72081 0.02919 0.88366 0.0
C268 C 0.90228 0.01923 0.8113 0.0
C269 C 0.92141 0.06126 0.79804 0.0
C270 C 0.86147 0.01926 0.83125 0.0
C271 C 0.83898 0.06131 0.83841 0.0
C272 C 0.85686 0.10315 0.82424 0.0
C273 C 0.89753 0.10314 0.80429 0.0
H274 H 0.09333 0.66331 0.38916 0.0
H275 H 0.02893 0.73941 0.46091 0.0
H276 H 0.09364 0.73412 0.35435 0.0
H277 H 0.02656 0.81017 0.42573 0.0
H278 H 0.07614 0.93827 0.36562 0.0
H279 H 0.07875 0.86857 0.40166 0.0
H280 H 0.03692 0.78505 0.32314 0.0
H281 H 0.03643 0.85411 0.28728 0.0
C282 C 0.07908 0.69538 0.39732 0.0
C283 C 0.06147 0.69628 0.42762 0.0
C284 C 0.07874 0.73589 0.37736 0.0
C285 C 0.05993 0.77807 0.3871 0.0
C286 C 0.04207 0.77865 0.41754 0.0
C287 C 0.04297 0.73816 0.43761 0.0
C288 C 0.06758 0.90496 0.35614 0.0
C289 C 0.05638 0.90171 0.32359 0.0
C290 C 0.06877 0.86498 0.37681 0.0
C291 C 0.05832 0.82094 0.36537 0.0
C292 C 0.04636 0.81806 0.33281 0.0
C293 C 0.04571 0.85782 0.31221 0.0
loop_
_geom_bond_atom_site_label_1
_geom_bond_atom_site_label_2
_geom_bond_distance
_geom_bond_site_symmetry_2
_ccdc_geom_bond_type
C0 C1 1.443 . S
C0 N4 1.376 . S
C0 C38 1.389 . S
C1 C0 1.443 . S
C1 C2 1.340 . S
C1 H41 0.951 . S
C2 C1 1.340 . S
C2 C3 1.439 . S
C2 H42 0.950 . S
C3 C2 1.439 . S
C3 N4 1.374 . S
C3 C37 1.395 1_554 S
N4 C0 1.376 . S
N4 C3 1.374 . S
N4 Co5 2.008 . S
Co5 N4 2.008 . S
Co5 N6 1.995 1_554 S
Co5 N11 2.008 1_554 S
Co5 N16 1.995 . S
Co5 N21 2.282 . S
Co5 N27 2.282 1_554 S
N6 Co5 1.995 1_556 S
N6 C7 1.376 . S
N6 C10 1.383 . S
C7 N6 1.376 . S
C7 C8 1.446 . S
C7 C37 1.391 . S
C8 C7 1.446 . S
C8 C9 1.339 . S
C8 H43 0.949 . S
C9 C8 1.339 . S
C9 C10 1.439 . S
C9 H44 0.950 . S
C10 N6 1.383 . S
C10 C9 1.439 . S
C10 C39 1.392 . S
N11 Co5 2.008 1_556 S
N11 C12 1.376 . S
N11 C15 1.374 1_545 S
C12 N11 1.376 . S
C12 C13 1.443 1_545 S
C12 C39 1.389 . S
C13 C12 1.443 1_565 S
C13 C14 1.340 . S
C13 H45 0.951 . S
C14 C13 1.340 . S
C14 C15 1.439 . S
C14 H46 0.950 . S
C15 N11 1.374 1_565 S
C15 C14 1.439 . S
C15 C40 1.395 1_556 S
N16 Co5 1.995 . S
N16 C17 1.376 1_545 S
N16 C20 1.383 . S
C17 N16 1.376 1_565 S
C17 C18 1.446 . S
C17 C40 1.391 . S
C18 C17 1.446 . S
C18 C19 1.339 . S
C18 H47 0.949 . S
C19 C18 1.339 . S
C19 C20 1.439 1_565 S
C19 H48 0.950 . S
C20 N16 1.383 . S
C20 C19 1.439 1_545 S
C20 C38 1.392 . S
N21 Co5 2.282 . S
N21 C24 1.332 . S
N21 C26 1.332 . S
C22 C23 1.386 . S
C22 C25 1.388 . S
C23 C22 1.386 . S
C23 C24 1.382 . S
C23 H49 0.955 . S
C24 N21 1.332 . S
C24 C23 1.382 . S
C24 H35 0.952 . S
C25 C22 1.388 . S
C25 C26 1.382 . S
C25 H50 0.950 . S
C26 N21 1.332 . S
C26 C25 1.382 . S
C26 H36 0.948 . S
N27 Co5 2.282 1_556 S
N27 C31 1.332 . S
N27 C32 1.332 . S
C28 C29 1.388 . S
C28 C32 1.382 . S
C28 H51 0.950 . S
C29 C28 1.388 . S
C29 C30 1.386 . S
C30 C29 1.386 . S
C30 C31 1.382 . S
C30 H52 0.950 . S
C31 N27 1.332 . S
C31 C30 1.382 . S
C31 H33 0.952 . S
C32 N27 1.332 . S
C32 C28 1.382 . S
C32 H34 0.948 . S
H33 C31 0.952 . S
H34 C32 0.948 . S
H35 C24 0.952 . S
H36 C26 0.948 . S
C37 C3 1.395 1_556 S
C37 C7 1.391 . S
C38 C0 1.389 . S
C38 C20 1.392 . S
C39 C10 1.392 . S
C39 C12 1.389 . S
C40 C15 1.395 1_554 S
C40 C17 1.391 . S
H41 C1 0.951 . S
H42 C2 0.950 . S
H43 C8 0.949 . S
H44 C9 0.950 . S
H45 C13 0.951 . S
H46 C14 0.950 . S
H47 C18 0.949 . S
H48 C19 0.950 . S
H49 C23 0.955 . S
H50 C25 0.950 . S
H51 C28 0.950 . S
H52 C30 0.950 . S
C53 C54 1.443 . S
C53 N57 1.376 . S
C53 C91 1.389 . S
C54 C53 1.443 . S
C54 C55 1.340 . S
C54 H94 0.951 . S
C55 C54 1.340 . S
C55 C56 1.439 . S
C55 H95 0.950 . S
C56 C55 1.439 . S
C56 N57 1.374 . S
C56 C90 1.395 . S
N57 C53 1.376 . S
N57 C56 1.374 . S
N57 Co58 2.008 . S
Co58 N57 2.008 . S
Co58 N59 1.995 . S
Co58 N64 2.008 . S
Co58 N69 1.995 . S
Co58 N74 2.282 . S
Co58 N80 2.282 . S
N59 Co58 1.995 . S
N59 C60 1.376 . S
N59 C63 1.383 . S
C60 N59 1.376 . S
C60 C61 1.446 . S
C60 C90 1.391 . S
C61 C60 1.446 . S
C61 C62 1.339 . S
C61 H96 0.949 . S
C62 C61 1.339 . S
C62 C63 1.439 . S
C62 H97 0.950 . S
C63 N59 1.383 . S
C63 C62 1.439 . S
C63 C92 1.392 . S
N64 Co58 2.008 . S
N64 C65 1.376 . S
N64 C68 1.374 1_455 S
C65 N64 1.376 . S
C65 C66 1.443 1_455 S
C65 C92 1.389 . S
C66 C65 1.443 1_655 S
C66 C67 1.340 . S
C66 H98 0.951 . S
C67 C66 1.340 . S
C67 C68 1.439 . S
C67 H99 0.950 . S
C68 N64 1.374 1_655 S
C68 C67 1.439 . S
C68 C93 1.395 . S
N69 Co58 1.995 . S
N69 C70 1.376 1_455 S
N69 C73 1.383 . S
C70 N69 1.376 1_655 S
C70 C71 1.446 . S
C70 C93 1.391 . S
C71 C70 1.446 . S
C71 C72 1.339 . S
C71 H100 0.949 . S
C72 C71 1.339 . S
C72 C73 1.439 1_655 S
C72 H101 0.950 . S
C73 N69 1.383 . S
C73 C72 1.439 1_455 S
C73 C91 1.392 . S
N74 Co58 2.282 . S
N74 C77 1.332 . S
N74 C79 1.332 . S
C75 C76 1.386 . S
C75 C78 1.388 . S
C76 C75 1.386 . S
C76 C77 1.382 . S
C76 H102 0.950 1_455 S
C77 N74 1.332 . S
C77 C76 1.382 . S
C77 H88 0.952 1_455 S
C78 C75 1.388 . S
C78 C79 1.382 . S
C78 H103 0.950 . S
C79 N74 1.332 . S
C79 C78 1.382 . S
C79 H89 0.948 . S
N80 Co58 2.282 . S
N80 C84 1.332 . S
N80 C85 1.332 . S
C81 C82 1.388 . S
C81 C85 1.382 . S
C81 H104 0.950 1_455 S
C82 C81 1.388 . S
C82 C83 1.386 . S
C83 C82 1.386 . S
C83 C84 1.382 . S
C83 H105 0.950 . S
C84 N80 1.332 . S
C84 C83 1.382 . S
C84 H86 0.952 . S
C85 N80 1.332 . S
C85 C81 1.382 . S
C85 H87 0.948 1_455 S
H86 C84 0.952 . S
H87 C85 0.948 1_655 S
H88 C77 0.952 1_655 S
H89 C79 0.948 . S
C90 C56 1.395 . S
C90 C60 1.391 . S
C91 C53 1.389 . S
C91 C73 1.392 . S
C92 C63 1.392 . S
C92 C65 1.389 . S
C93 C68 1.395 . S
C93 C70 1.391 . S
H94 C54 0.951 . S
H95 C55 0.950 . S
H96 C61 0.949 . S
H97 C62 0.950 . S
H98 C66 0.951 . S
H99 C67 0.950 . S
H100 C71 0.949 . S
H101 C72 0.950 . S
H102 C76 0.950 1_655 S
H103 C78 0.950 . S
H104 C81 0.950 1_655 S
H105 C83 0.950 . S
O106 Cd107 2.223 . S
O106 C114 1.315 1_465 S
Cd107 O106 2.223 . S
Cd107 O110 2.297 . S
Cd107 O111 2.439 . S
Cd107 O117 2.240 1_565 S
Cd108 O109 2.240 1_455 S
Cd108 O116 2.223 . S
Cd108 O118 2.297 . S
Cd108 O119 2.439 . S
O109 Cd108 2.240 1_655 S
O109 C114 1.279 . S
O110 Cd107 2.297 . S
O110 C112 1.247 . S
O111 Cd107 2.439 . S
O111 C112 1.208 . S
C112 O110 1.247 . S
C112 O111 1.208 . S
C113 O118 1.247 . S
C113 O119 1.208 . S
C114 O106 1.315 1_645 S
C114 O109 1.279 . S
C115 O116 1.315 . S
C115 O117 1.279 . S
O116 Cd108 2.223 . S
O116 C115 1.315 . S
O117 Cd107 2.240 1_545 S
O117 C115 1.279 . S
O118 Cd108 2.297 . S
O118 C113 1.247 . S
O119 Cd108 2.439 . S
O119 C113 1.208 . S
O120 Cd121 2.223 . S
O120 C128 1.315 . S
Cd121 O120 2.223 . S
Cd121 O124 2.297 . S
Cd121 O125 2.439 . S
Cd121 O131 2.240 . S
Cd122 O123 2.240 . S
Cd122 O130 2.223 . S
Cd122 O132 2.297 1_545 S
Cd122 O133 2.439 . S
O123 Cd122 2.240 . S
O123 C128 1.279 . S
O124 Cd121 2.297 . S
O124 C126 1.247 . S
O125 Cd121 2.439 . S
O125 C126 1.208 . S
C126 O124 1.247 . S
C126 O125 1.208 . S
C127 O132 1.247 . S
C127 O133 1.208 1_565 S
C128 O120 1.315 . S
C128 O123 1.279 . S
C129 O130 1.315 . S
C129 O131 1.279 . S
O130 Cd122 2.223 . S
O130 C129 1.315 . S
O131 Cd121 2.240 . S
O131 C129 1.279 . S
O132 Cd122 2.297 1_565 S
O132 C127 1.247 . S
O133 Cd122 2.439 . S
O133 C127 1.208 1_545 S
H134 C142 0.950 . S
H135 C147 0.950 . S
H136 C144 0.950 . S
H137 C146 0.950 . S
H138 C148 0.950 . S
H139 C150 0.950 . S
H140 C152 0.950 . S
H141 C153 0.950 . S
C142 H134 0.950 . S
C142 C143 1.386 . S
C142 C144 1.391 . S
C143 C142 1.386 . S
C143 C147 1.393 . S
C144 H136 0.950 . S
C144 C142 1.391 . S
C144 C145 1.400 . S
C145 C144 1.400 . S
C145 C146 1.398 . S
C145 C151 1.491 . S
C146 H137 0.950 . S
C146 C145 1.398 . S
C146 C147 1.391 . S
C147 H135 0.950 . S
C147 C143 1.393 . S
C147 C146 1.391 . S
C148 H138 0.950 . S
C148 C149 1.386 . S
C148 C150 1.391 . S
C149 C148 1.386 . S
C149 C153 1.393 . S
C150 H139 0.950 . S
C150 C148 1.391 . S
C150 C151 1.400 . S
C151 C145 1.491 . S
C151 C150 1.400 . S
C151 C152 1.398 . S
C152 H140 0.950 . S
C152 C151 1.398 . S
C152 C153 1.391 . S
C153 H141 0.950 . S
C153 C149 1.393 . S
C153 C152 1.391 . S
H154 C162 0.950 . S
H155 C167 0.950 . S
H156 C164 0.950 . S
H157 C166 0.950 . S
H158 C168 0.950 . S
H159 C170 0.950 . S
H160 C172 0.950 . S
H161 C173 0.950 . S
C162 H154 0.950 . S
C162 C163 1.386 . S
C162 C164 1.391 . S
C163 C162 1.386 . S
C163 C167 1.393 . S
C164 H156 0.950 . S
C164 C162 1.391 . S
C164 C165 1.400 . S
C165 C164 1.400 . S
C165 C166 1.398 . S
C165 C171 1.491 . S
C166 H157 0.950 . S
C166 C165 1.398 . S
C166 C167 1.391 . S
C167 H155 0.950 . S
C167 C163 1.393 . S
C167 C166 1.391 . S
C168 H158 0.950 . S
C168 C169 1.386 . S
C168 C170 1.391 . S
C169 C168 1.386 . S
C169 C173 1.393 . S
C170 H159 0.950 . S
C170 C168 1.391 . S
C170 C171 1.400 . S
C171 C165 1.491 . S
C171 C170 1.400 . S
C171 C172 1.398 . S
C172 H160 0.950 . S
C172 C171 1.398 . S
C172 C173 1.391 . S
C173 H161 0.950 . S
C173 C169 1.393 . S
C173 C172 1.391 . S
H174 C182 0.950 . S
H175 C187 0.950 . S
H176 C184 0.950 . S
H177 C186 0.950 . S
H178 C188 0.950 . S
H179 C190 0.950 . S
H180 C192 0.950 1_565 S
H181 C193 0.943 1_565 S
C182 H174 0.950 . S
C182 C183 1.386 . S
C182 C184 1.391 . S
C183 C182 1.386 . S
C183 C187 1.393 . S
C184 H176 0.950 . S
C184 C182 1.391 . S
C184 C185 1.400 . S
C185 C184 1.400 . S
C185 C186 1.398 . S
C185 C191 1.491 . S
C186 H177 0.950 . S
C186 C185 1.398 . S
C186 C187 1.391 . S
C187 H175 0.950 . S
C187 C183 1.393 . S
C187 C186 1.391 . S
C188 H178 0.950 . S
C188 C189 1.386 . S
C188 C190 1.391 . S
C189 C188 1.386 . S
C189 C193 1.399 . S
C190 H179 0.950 . S
C190 C188 1.391 . S
C190 C191 1.400 . S
C191 C185 1.491 . S
C191 C190 1.400 . S
C191 C192 1.398 . S
C192 H180 0.950 1_545 S
C192 C191 1.398 . S
C192 C193 1.392 . S
C193 H181 0.943 1_545 S
C193 C189 1.399 . S
C193 C192 1.392 . S
H194 C202 0.950 . S
H195 C207 0.950 . S
H196 C204 0.950 . S
H197 C206 0.950 . S
H198 C208 0.950 . S
H199 C210 0.950 . S
H200 C212 0.950 . S
H201 C213 0.950 . S
C202 H194 0.950 . S
C202 C203 1.386 . S
C202 C204 1.391 . S
C203 C202 1.386 . S
C203 C207 1.393 . S
C204 H196 0.950 . S
C204 C202 1.391 . S
C204 C205 1.400 . S
C205 C204 1.400 . S
C205 C206 1.398 . S
C205 C211 1.491 . S
C206 H197 0.950 . S
C206 C205 1.398 . S
C206 C207 1.391 . S
C207 H195 0.950 . S
C207 C203 1.393 . S
C207 C206 1.391 . S
C208 H198 0.950 . S
C208 C209 1.386 . S
C208 C210 1.391 . S
C209 C208 1.386 . S
C209 C213 1.393 . S
C210 H199 0.950 . S
C210 C208 1.391 . S
C210 C211 1.400 . S
C211 C205 1.491 . S
C211 C210 1.400 . S
C211 C212 1.398 . S
C212 H200 0.950 . S
C212 C211 1.398 . S
C212 C213 1.391 . S
C213 H201 0.950 . S
C213 C209 1.393 . S
C213 C212 1.391 . S
H214 C222 0.950 . S
H215 C227 0.950 . S
H216 C224 0.950 . S
H217 C226 0.950 1_565 S
H218 C228 0.950 1_565 S
H219 C230 0.950 1_565 S
H220 C232 0.950 . S
H221 C233 0.950 . S
C222 H214 0.950 . S
C222 C223 1.386 . S
C222 C224 1.391 . S
C223 C222 1.386 . S
C223 C227 1.393 . S
C224 H216 0.950 . S
C224 C222 1.391 . S
C224 C225 1.400 . S
C225 C224 1.400 . S
C225 C226 1.398 . S
C225 C231 1.491 . S
C226 H217 0.950 1_545 S
C226 C225 1.398 . S
C226 C227 1.391 . S
C227 H215 0.950 . S
C227 C223 1.393 . S
C227 C226 1.391 . S
C228 H218 0.950 1_545 S
C228 C229 1.386 . S
C228 C230 1.391 . S
C229 C228 1.386 . S
C229 C233 1.393 . S
C230 H219 0.950 1_545 S
C230 C228 1.391 . S
C230 C231 1.400 . S
C231 C225 1.491 . S
C231 C230 1.400 . S
C231 C232 1.398 . S
C232 H220 0.950 . S
C232 C231 1.398 . S
C232 C233 1.391 . S
C233 H221 0.950 . S
C233 C229 1.393 . S
C233 C232 1.391 . S
H234 C242 0.950 . S
H235 C247 0.950 . S
H236 C244 0.950 . S
H237 C246 0.950 . S
H238 C248 0.950 . S
H239 C250 0.950 . S
H240 C252 0.950 . S
H241 C253 0.950 . S
C242 H234 0.950 . S
C242 C243 1.386 . S
C242 C244 1.391 . S
C243 C242 1.386 . S
C243 C247 1.393 . S
C244 H236 0.950 . S
C244 C242 1.391 . S
C244 C245 1.400 . S
C245 C244 1.400 . S
C245 C246 1.398 . S
C245 C251 1.491 . S
C246 H237 0.950 . S
C246 C245 1.398 . S
C246 C247 1.391 . S
C247 H235 0.950 . S
C247 C243 1.393 . S
C247 C246 1.391 . S
C248 H238 0.950 . S
C248 C249 1.386 . S
C248 C250 1.391 . S
C249 C248 1.386 . S
C249 C253 1.393 . S
C250 H239 0.950 . S
C250 C248 1.391 . S
C250 C251 1.400 . S
C251 C245 1.491 . S
C251 C250 1.400 . S
C251 C252 1.398 . S
C252 H240 0.950 . S
C252 C251 1.398 . S
C252 C253 1.391 . S
C253 H241 0.950 . S
C253 C249 1.393 . S
C253 C252 1.391 . S
H254 C262 0.950 . S
H255 C267 0.950 . S
H256 C264 0.950 . S
H257 C266 0.950 . S
H258 C268 0.950 . S
H259 C270 0.950 . S
H260 C272 0.950 . S
H261 C273 0.950 . S
C262 H254 0.950 . S
C262 C263 1.386 . S
C262 C264 1.391 . S
C263 C262 1.386 . S
C263 C267 1.393 . S
C264 H256 0.950 . S
C264 C262 1.391 . S
C264 C265 1.400 . S
C265 C264 1.400 . S
C265 C266 1.398 . S
C265 C271 1.491 . S
C266 H257 0.950 . S
C266 C265 1.398 . S
C266 C267 1.391 . S
C267 H255 0.950 . S
C267 C263 1.393 . S
C267 C266 1.391 . S
C268 H258 0.950 . S
C268 C269 1.386 . S
C268 C270 1.391 . S
C269 C268 1.386 . S
C269 C273 1.393 . S
C270 H259 0.950 . S
C270 C268 1.391 . S
C270 C271 1.400 . S
C271 C265 1.491 . S
C271 C270 1.400 . S
C271 C272 1.398 . S
C272 H260 0.950 . S
C272 C271 1.398 . S
C272 C273 1.391 . S
C273 H261 0.950 . S
C273 C269 1.393 . S
C273 C272 1.391 . S
H274 C282 0.950 . S
H275 C287 0.950 . S
H276 C284 0.950 . S
H277 C286 0.950 . S
H278 C288 0.950 1_655 S
H279 C290 0.953 . S
H280 C292 0.950 . S
H281 C293 0.950 . S
C282 H274 0.950 . S
C282 C283 1.386 . S
C282 C284 1.391 . S
C283 C282 1.386 . S
C283 C287 1.393 . S
C284 H276 0.950 . S
C284 C282 1.391 . S
C284 C285 1.400 . S
C285 C284 1.400 . S
C285 C286 1.398 . S
C285 C291 1.491 . S
C286 H277 0.950 . S
C286 C285 1.398 . S
C286 C287 1.391 . S
C287 H275 0.950 . S
C287 C283 1.393 . S
C287 C286 1.391 . S
C288 H278 0.950 1_455 S
C288 C289 1.386 . S
C288 C290 1.391 . S
C289 C288 1.386 . S
C289 C293 1.393 . S
C290 H279 0.953 . S
C290 C288 1.391 . S
C290 C291 1.400 . S
C291 C285 1.491 . S
C291 C290 1.400 . S
C291 C292 1.398 . S
C292 H280 0.950 . S
C292 C291 1.398 . S
C292 C293 1.391 . S
C293 H281 0.950 . S
C293 C289 1.393 . S
C293 C292 1.391 . S
C149 C115 1.587 . S
C143 C22 1.588 . S
C169 C126 1.551 . S
C163 C91 1.616 . S
C189 C114 1.617 . S
C183 C38 1.619 . S
C209 C127 1.525 . S
C203 C75 1.581 . S
C229 C129 1.619 . S
C223 C39 1.611 . S
C249 C113 1.511 . S
C243 C82 1.581 . S
C269 C128 1.583 1_655 S
C263 C29 1.587 . S
C283 C92 1.606 . S
C289 C112 1.532 . S
