# Generated by pormake.
# Topology soc, (4,6)-cn, num edge types: 1
# Building blocks:
#     Node 0, Type 0, BuildingBlock: ESEHIV_clean_sbu_0, # of connection points: 4
#     Node 1, Type 0, BuildingBlock: ESEHIV_clean_sbu_0, # of connection points: 4
#     Node 2, Type 0, BuildingBlock: ESEHIV_clean_sbu_0, # of connection points: 4
#     Node 3, Type 0, BuildingBlock: ESEHIV_clean_sbu_0, # of connection points: 4
#     Node 4, Type 0, BuildingBlock: ESEHIV_clean_sbu_0, # of connection points: 4
#     Node 5, Type 0, BuildingBlock: ESEHIV_clean_sbu_0, # of connection points: 4
#     Node 6, Type 0, BuildingBlock: ESEHIV_clean_sbu_0, # of connection points: 4
#     Node 7, Type 0, BuildingBlock: ESEHIV_clean_sbu_0, # of connection points: 4
#     Node 8, Type 0, BuildingBlock: ESEHIV_clean_sbu_0, # of connection points: 4
#     Node 9, Type 0, BuildingBlock: ESEHIV_clean_sbu_0, # of connection points: 4
#     Node 10, Type 0, BuildingBlock: ESEHIV_clean_sbu_0, # of connection points: 4
#     Node 11, Type 0, BuildingBlock: ESEHIV_clean_sbu_0, # of connection points: 4
#     Node 12, Type 1, BuildingBlock: MIFKUJ_clean_sbu_0, # of connection points: 6
#     Node 13, Type 1, BuildingBlock: MIFKUJ_clean_sbu_0, # of connection points: 6
#     Node 14, Type 1, BuildingBlock: MIFKUJ_clean_sbu_0, # of connection points: 6
#     Node 15, Type 1, BuildingBlock: MIFKUJ_clean_sbu_0, # of connection points: 6
#     Node 16, Type 1, BuildingBlock: MIFKUJ_clean_sbu_0, # of connection points: 6
#     Node 17, Type 1, BuildingBlock: MIFKUJ_clean_sbu_0, # of connection points: 6
#     Node 18, Type 1, BuildingBlock: MIFKUJ_clean_sbu_0, # of connection points: 6
#     Node 19, Type 1, BuildingBlock: MIFKUJ_clean_sbu_0, # of connection points: 6
#     Edge 20, Type (0, 1), BuildingBlock: CIFDUS_clean_linker_0, # of connection points: 2
#     Edge 21, Type (0, 1), BuildingBlock: CIFDUS_clean_linker_0, # of connection points: 2
#     Edge 22, Type (0, 1), BuildingBlock: CIFDUS_clean_linker_0, # of connection points: 2
#     Edge 23, Type (0, 1), BuildingBlock: CIFDUS_clean_linker_0, # of connection points: 2
#     Edge 24, Type (0, 1), BuildingBlock: CIFDUS_clean_linker_0, # of connection points: 2
#     Edge 25, Type (0, 1), BuildingBlock: CIFDUS_clean_linker_0, # of connection points: 2
#     Edge 26, Type (0, 1), BuildingBlock: CIFDUS_clean_linker_0, # of connection points: 2
#     Edge 27, Type (0, 1), BuildingBlock: CIFDUS_clean_linker_0, # of connection points: 2
#     Edge 28, Type (0, 1), BuildingBlock: CIFDUS_clean_linker_0, # of connection points: 2
#     Edge 29, Type (0, 1), BuildingBlock: CIFDUS_clean_linker_0, # of connection points: 2
#     Edge 30, Type (0, 1), BuildingBlock: CIFDUS_clean_linker_0, # of connection points: 2
#     Edge 31, Type (0, 1), BuildingBlock: CIFDUS_clean_linker_0, # of connection points: 2
#     Edge 32, Type (0, 1), BuildingBlock: CIFDUS_clean_linker_0, # of connection points: 2
#     Edge 33, Type (0, 1), BuildingBlock: CIFDUS_clean_linker_0, # of connection points: 2
#     Edge 34, Type (0, 1), BuildingBlock: CIFDUS_clean_linker_0, # of connection points: 2
#     Edge 35, Type (0, 1), BuildingBlock: CIFDUS_clean_linker_0, # of connection points: 2
#     Edge 36, Type (0, 1), BuildingBlock: CIFDUS_clean_linker_0, # of connection points: 2
#     Edge 37, Type (0, 1), BuildingBlock: CIFDUS_clean_linker_0, # of connection points: 2
#     Edge 38, Type (0, 1), BuildingBlock: CIFDUS_clean_linker_0, # of connection points: 2
#     Edge 39, Type (0, 1), BuildingBlock: CIFDUS_clean_linker_0, # of connection points: 2
#     Edge 40, Type (0, 1), BuildingBlock: CIFDUS_clean_linker_0, # of connection points: 2
#     Edge 41, Type (0, 1), BuildingBlock: CIFDUS_clean_linker_0, # of connection points: 2
#     Edge 42, Type (0, 1), BuildingBlock: CIFDUS_clean_linker_0, # of connection points: 2
#     Edge 43, Type (0, 1), BuildingBlock: CIFDUS_clean_linker_0, # of connection points: 2
#     Edge 44, Type (0, 1), BuildingBlock: CIFDUS_clean_linker_0, # of connection points: 2
#     Edge 45, Type (0, 1), BuildingBlock: CIFDUS_clean_linker_0, # of connection points: 2
#     Edge 46, Type (0, 1), BuildingBlock: CIFDUS_clean_linker_0, # of connection points: 2
#     Edge 47, Type (0, 1), BuildingBlock: CIFDUS_clean_linker_0, # of connection points: 2
#     Edge 48, Type (0, 1), BuildingBlock: CIFDUS_clean_linker_0, # of connection points: 2
#     Edge 49, Type (0, 1), BuildingBlock: CIFDUS_clean_linker_0, # of connection points: 2
#     Edge 50, Type (0, 1), BuildingBlock: CIFDUS_clean_linker_0, # of connection points: 2
#     Edge 51, Type (0, 1), BuildingBlock: CIFDUS_clean_linker_0, # of connection points: 2
#     Edge 52, Type (0, 1), BuildingBlock: CIFDUS_clean_linker_0, # of connection points: 2
#     Edge 53, Type (0, 1), BuildingBlock: CIFDUS_clean_linker_0, # of connection points: 2
#     Edge 54, Type (0, 1), BuildingBlock: CIFDUS_clean_linker_0, # of connection points: 2
#     Edge 55, Type (0, 1), BuildingBlock: CIFDUS_clean_linker_0, # of connection points: 2
#     Edge 56, Type (0, 1), BuildingBlock: CIFDUS_clean_linker_0, # of connection points: 2
#     Edge 57, Type (0, 1), BuildingBlock: CIFDUS_clean_linker_0, # of connection points: 2
#     Edge 58, Type (0, 1), BuildingBlock: CIFDUS_clean_linker_0, # of connection points: 2
#     Edge 59, Type (0, 1), BuildingBlock: CIFDUS_clean_linker_0, # of connection points: 2
#     Edge 60, Type (0, 1), BuildingBlock: CIFDUS_clean_linker_0, # of connection points: 2
#     Edge 61, Type (0, 1), BuildingBlock: CIFDUS_clean_linker_0, # of connection points: 2
#     Edge 62, Type (0, 1), BuildingBlock: CIFDUS_clean_linker_0, # of connection points: 2
#     Edge 63, Type (0, 1), BuildingBlock: CIFDUS_clean_linker_0, # of connection points: 2
#     Edge 64, Type (0, 1), BuildingBlock: CIFDUS_clean_linker_0, # of connection points: 2
#     Edge 65, Type (0, 1), BuildingBlock: CIFDUS_clean_linker_0, # of connection points: 2
#     Edge 66, Type (0, 1), BuildingBlock: CIFDUS_clean_linker_0, # of connection points: 2
#     Edge 67, Type (0, 1), BuildingBlock: CIFDUS_clean_linker_0, # of connection points: 2
# Relax obj value: 0.109
# Max RMSD: 0.177
# Mean RMSD: 0.140
data_MOF--net-soc--node1-ESEHIV_clean_sbu_0--node2-MIFKUJ_clean_sbu_0--edge1-CIFDUS_clean_linker_0
_symmetry_space_group_name_H-M    P1
_symmetry_Int_Tables_number       1
_symmetry_cell_setting            triclinic
loop_
_symmetry_equiv_pos_as_xyz
'x, y, z'
_cell_length_a     42.822338
_cell_length_b     39.729262
_cell_length_c     39.056259
_cell_angle_alpha  92.084215
_cell_angle_beta   92.249006
_cell_angle_gamma 78.583163
loop_
_atom_site_label
_atom_site_type_symbol
_atom_site_fract_x
_atom_site_fract_y
_atom_site_fract_z
_atom_type_partial_charge
Cu0 Cu 0.02496 0.05314 0.30288 0.0
N1 N 0.0486 0.0801 0.32967 0.0
N2 N 0.0839 0.11452 0.34038 0.0
C3 C 0.07029 0.09598 0.31645 0.0
C4 C 0.06996 0.11006 0.36992 0.0
C5 C 0.04825 0.08888 0.36325 0.0
O6 O 0.05885 0.02146 0.27716 0.0
C7 C 0.97158 0.10498 0.30031 0.0
O8 O 0.9773 0.10034 0.33328 0.0
H9 H 0.07539 0.09439 0.28947 0.0
H10 H 0.03309 0.0809 0.38155 0.0
N11 N 1.00243 0.02649 0.32775 0.0
N12 N 0.96874 0.99088 0.33576 0.0
C13 C 0.97952 0.01099 0.31354 0.0
C14 C 1.00627 0.01613 0.36031 0.0
C15 C 0.98555 0.99425 0.36533 0.0
C16 C 0.06629 0.98928 0.28332 0.0
O17 O 0.04724 0.97568 0.30167 0.0
H18 H 0.97215 0.01323 0.28677 0.0
H19 H 0.02361 0.02296 0.37876 0.0
O20 O 0.99073 0.08645 0.2794 0.0
H21 H 0.07509 0.1211 0.39473 0.0
H22 H 0.98349 0.98148 0.38888 0.0
Cu23 Cu 0.01581 0.04151 0.72391 0.0
N24 N 0.99146 0.01472 0.69845 0.0
N25 N 0.95338 0.98359 0.69105 0.0
C26 C 0.96586 1.00582 0.7117 0.0
C27 C 0.97208 0.97811 0.66353 0.0
C28 C 0.99561 0.99745 0.66816 0.0
O29 O 0.98344 0.07653 0.7475 0.0
C30 C 0.06948 0.99006 0.72956 0.0
O31 O 0.06686 0.99593 0.6966 0.0
H32 H 0.95751 0.0144 0.73695 0.0
H33 H 0.01486 0.99792 0.65119 0.0
N34 N 0.03862 0.06669 0.69819 0.0
N35 N 0.07325 0.10076 0.6896 0.0
C36 C 0.05786 0.08642 0.71291 0.0
C37 C 0.04172 0.06858 0.66419 0.0
C38 C 0.06324 0.08952 0.65881 0.0
C39 C 0.96386 0.09477 0.72647 0.0
O40 O 0.96814 0.08868 0.69351 0.0
H41 H 0.06121 0.08922 0.7404 0.0
H42 H 0.02963 0.05534 0.64476 0.0
O43 O 0.04866 1.00807 0.7491 0.0
H44 H 0.96928 0.96107 0.64188 0.0
H45 H 0.07089 0.09592 0.63421 0.0
Cu46 Cu 0.32546 0.02175 0.02941 0.0
N47 N 0.3539 0.98967 0.00392 0.0
N48 N 0.36808 0.94231 0.97105 0.0
C49 C 0.35245 0.95632 0.99902 0.0
C50 C 0.38083 0.96759 0.95847 0.0
C51 C 0.3722 0.99673 0.97895 0.0
O52 O 0.30189 0.9978 0.05899 0.0
C53 C 0.29437 0.04607 0.96669 0.0
O54 O 0.3004 0.01351 0.95692 0.0
H55 H 0.33736 0.94354 0.01328 0.0
H56 H 0.376 0.02216 0.9738 0.0
N57 N 0.34758 0.04704 0.05885 0.0
N58 N 0.35442 0.0869 0.09859 0.0
C59 C 0.3343 0.07658 0.07488 0.0
C60 C 0.37722 0.03824 0.07268 0.0
C61 C 0.3815 0.06285 0.09738 0.0
C62 C 0.28528 0.97569 0.04945 0.0
O63 O 0.27908 0.97094 0.01662 0.0
H64 H 0.30963 0.08905 0.07073 0.0
H65 H 0.39391 0.01485 0.06637 0.0
O66 O 0.3003 0.05424 0.99778 0.0
H67 H 0.39312 0.96599 0.93459 0.0
H68 H 0.4025 0.06255 0.11382 0.0
Cu69 Cu 0.04219 0.31956 0.02382 0.0
N70 N 0.06391 0.33826 0.99047 0.0
N71 N 0.09852 0.3393 0.94883 0.0
C72 C 0.08715 0.31978 0.97122 0.0
C73 C 0.08155 0.37145 0.95446 0.0
C74 C 0.06031 0.37072 0.98007 0.0
O75 O 0.07515 0.29872 0.05854 0.0
C76 C 0.9924 0.31361 0.97896 0.0
O77 O 0.99428 0.34611 0.97764 0.0
H78 H 0.09564 0.29248 0.97398 0.0
H79 H 0.04329 0.39225 0.99017 0.0
N80 N 1.01339 0.35095 0.04989 0.0
N81 N 0.97389 0.36529 0.0869 0.0
C82 C 0.98792 0.34188 0.06356 0.0
C83 C 0.01556 0.38142 0.06499 0.0
C84 C 0.99122 0.3903 0.08792 0.0
C85 C 0.09383 0.31867 0.06963 0.0
O86 O 0.09052 0.34889 0.05586 0.0
H87 H 0.98131 0.31722 0.05837 0.0
H88 H 0.03448 0.3952 0.06118 0.0
O89 O 1.01299 0.29394 0.9979 0.0
H90 H 0.08379 0.39397 0.94074 0.0
H91 H 0.98733 0.41274 0.10495 0.0
Cu92 Cu 0.72915 0.02222 0.99945 0.0
N93 N 0.70446 0.05674 0.97357 0.0
N94 N 0.69574 0.10433 0.943 0.0
C95 C 0.71481 0.08539 0.96635 0.0
C96 C 0.67233 0.08676 0.93504 0.0
C97 C 0.6778 0.05728 0.95402 0.0
O98 O 0.7562 0.0462 0.02872 0.0
C99 C 0.73365 0.96632 0.95426 0.0
O100 O 0.705 0.96779 0.96576 0.0
H101 H 0.73724 0.09095 0.97631 0.0
H102 H 0.66429 0.03695 0.95235 0.0
N103 N 0.70543 1.00151 0.02856 0.0
N104 N 0.69567 0.96679 0.06884 0.0
C105 C 0.71821 0.97785 0.05155 0.0
C106 C 0.67366 1.0058 0.03135 0.0
C107 C 0.66755 0.98427 0.05615 0.0
C108 C 0.7401 0.06802 0.04934 0.0
O109 O 0.70913 0.0699 0.04975 0.0
H110 H 0.74361 0.96852 0.05497 0.0
H111 H 0.65623 0.02323 0.01638 0.0
O112 O 0.75021 0.98763 0.96651 0.0
H113 H 0.6533 0.09403 0.91609 0.0
H114 H 0.64426 0.98195 0.0644 0.0
Cu115 Cu 0.02211 0.71974 0.99721 0.0
N116 N 0.99933 0.69354 0.97005 0.0
N117 N 0.9629 0.68636 0.92968 0.0
C118 C 0.97072 0.70655 0.95573 0.0
C119 C 0.98756 0.65937 0.92767 0.0
C120 C 1.0101 0.66387 0.95278 0.0
O121 O 0.99117 0.74983 0.0255 0.0
C122 C 0.0607 0.76505 0.97062 0.0
O123 O 0.06398 0.77784 0.00174 0.0
H124 H 0.95761 0.73217 0.96175 0.0
H125 H 0.03373 0.64836 0.95614 0.0
N126 N 0.05273 0.6919 0.0243 0.0
N127 N 0.09363 0.68355 0.06217 0.0
C128 C 0.08041 0.7006 0.03441 0.0
C129 C 0.0489 0.66707 0.04541 0.0
C130 C 0.07425 0.66186 0.06896 0.0
C131 C 0.99409 0.7525 0.05801 0.0
O132 O 0.02118 0.73874 0.07338 0.0
H133 H 0.08911 0.72161 0.02399 0.0
H134 H 0.02754 0.65647 0.04613 0.0
O135 O 0.04311 0.74303 0.96492 0.0
H136 H 0.99008 0.63919 0.90801 0.0
H137 H 0.07631 0.64639 0.09149 0.0
Cu138 Cu 0.51328 0.5382 0.80617 0.0
N139 N 0.53588 0.56819 0.82921 0.0
N140 N 0.56488 0.60921 0.83073 0.0
C141 C 0.54816 0.59013 0.81101 0.0
C142 C 0.56327 0.59871 0.86302 0.0
C143 C 0.54499 0.57343 0.86206 0.0
O144 O 0.54715 0.50404 0.78241 0.0
C145 C 0.45274 0.57384 0.76875 0.0
O146 O 0.44327 0.54486 0.76144 0.0
H147 H 0.54544 0.59137 0.78338 0.0
H148 H 0.53934 0.55949 0.88351 0.0
N149 N 0.49313 0.5127 0.83524 0.0
N150 N 0.45679 0.48141 0.84711 0.0
C151 C 0.46209 0.51034 0.8332 0.0
C152 C 0.50767 0.48481 0.8525 0.0
C153 C 0.48543 0.46552 0.85974 0.0
C154 C 0.57227 0.49261 0.80102 0.0
O155 O 0.5739 0.50534 0.83235 0.0
H156 H 0.44406 0.52785 0.81931 0.0
H157 H 0.53307 0.47704 0.85678 0.0
O158 O 0.4807 0.57326 0.78191 0.0
H159 H 0.57428 0.60867 0.88558 0.0
H160 H 0.49041 0.44057 0.87126 0.0
Cu161 Cu 0.51874 0.545 0.21898 0.0
N162 N 0.49476 0.5178 0.19283 0.0
N163 N 0.45935 0.48317 0.18419 0.0
C164 C 0.47328 0.50243 0.20711 0.0
C165 C 0.4729 0.48661 0.15413 0.0
C166 C 0.49471 0.50792 0.15953 0.0
O167 O 0.48576 0.57903 0.24268 0.0
C168 C 0.57061 0.49236 0.22318 0.0
O169 O 0.56633 0.49801 0.19023 0.0
H170 H 0.46868 0.50484 0.2342 0.0
H171 H 0.50969 0.51515 0.14059 0.0
N172 N 0.54222 0.57114 0.19477 0.0
N173 N 0.57673 0.60613 0.18809 0.0
C174 C 0.56294 0.58873 0.21039 0.0
C175 C 0.54279 0.57753 0.16124 0.0
C176 C 0.56409 0.599 0.15703 0.0
C177 C 0.46632 0.59698 0.22139 0.0
O178 O 0.47113 0.59144 0.18848 0.0
H179 H 0.56787 0.58842 0.23777 0.0
H180 H 0.5285 0.56776 0.14129 0.0
O181 O 0.55136 0.51123 0.24372 0.0
H182 H 0.46753 0.47469 0.12985 0.0
H183 H 0.56925 0.60911 0.133 0.0
Cu184 Cu 0.7981 0.56106 0.49979 0.0
N185 N 0.82275 0.58051 0.47042 0.0
N186 N 0.8342 0.61706 0.43277 0.0
C187 C 0.8111 0.60725 0.45024 0.0
C188 C 0.86143 0.5955 0.44222 0.0
C189 C 0.85427 0.57286 0.46528 0.0
O190 O 0.77593 0.59776 0.52943 0.0
C191 C 0.7898 0.5084 0.45758 0.0
O192 O 0.82093 0.50388 0.46166 0.0
H193 H 0.78625 0.61987 0.44915 0.0
H194 H 0.87094 0.55245 0.47746 0.0
N195 N 0.82043 0.52863 0.53 0.0
N196 N 0.82457 0.48589 0.56666 0.0
C197 C 0.80494 0.50803 0.54637 0.0
C198 C 0.85122 0.51941 0.54034 0.0
C199 C 0.85387 0.49278 0.56289 0.0
C200 C 0.79497 0.61364 0.54627 0.0
O201 O 0.8256 0.6048 0.54061 0.0
H202 H 0.77959 0.50897 0.54284 0.0
H203 H 0.87033 0.53117 0.53237 0.0
O204 O 0.77251 0.53478 0.47154 0.0
H205 H 0.88485 0.596 0.43303 0.0
H206 H 0.87552 0.47992 0.57586 0.0
Cu207 Cu 0.50844 0.8528 0.51277 0.0
N208 N 0.52881 0.87312 0.48055 0.0
N209 N 0.5653 0.87442 0.44154 0.0
C210 C 0.55786 0.8589 0.4694 0.0
C211 C 0.5399 0.89993 0.43536 0.0
C212 C 0.51731 0.89895 0.45944 0.0
O213 O 0.54142 0.82856 0.54313 0.0
C214 C 0.48732 0.80804 0.46122 0.0
O215 O 0.51591 0.80347 0.44867 0.0
H216 H 0.57247 0.83639 0.48066 0.0
H217 H 0.49355 0.91449 0.46021 0.0
N218 N 0.48096 0.88379 0.53973 0.0
N219 N 0.44367 0.89217 0.57917 0.0
C220 C 0.45406 0.87535 0.54998 0.0
C221 C 0.48752 0.90775 0.56266 0.0
C222 C 0.46427 0.91317 0.58703 0.0
C223 C 0.53601 0.81882 0.57259 0.0
O224 O 0.5065 0.81964 0.58109 0.0
H225 H 0.44481 0.85376 0.53896 0.0
H226 H 0.50958 0.91718 0.56413 0.0
O227 O 0.48141 0.82521 0.48907 0.0
H228 H 0.53688 0.91667 0.41373 0.0
H229 H 0.46477 0.92801 0.61078 0.0
Cu230 Cu 0.21413 0.57059 0.50415 0.0
N231 N 0.18485 0.60166 0.47865 0.0
N232 N 0.17323 0.64737 0.44549 0.0
C233 C 0.18913 0.63375 0.47374 0.0
C234 C 0.15784 0.62309 0.43226 0.0
C235 C 0.16487 0.5949 0.45298 0.0
O236 O 0.24049 0.59838 0.52922 0.0
C237 C 0.2401 0.54101 0.44157 0.0
O238 O 0.2334 0.57266 0.43083 0.0
H239 H 0.20694 0.64507 0.48785 0.0
H240 H 0.15907 0.56995 0.44736 0.0
N241 N 0.19496 0.54785 0.53567 0.0
N242 N 0.19416 0.51002 0.57638 0.0
C243 C 0.2095 0.51798 0.54923 0.0
C244 C 0.16895 0.55902 0.55428 0.0
C245 C 0.16831 0.53554 0.57941 0.0
C246 C 0.25406 0.5915 0.55839 0.0
O247 O 0.25571 0.56091 0.57079 0.0
H248 H 0.23214 0.50358 0.54065 0.0
H249 H 0.15289 0.5835 0.55126 0.0
O250 O 0.23651 0.53551 0.47294 0.0
H251 H 0.14481 0.62445 0.40787 0.0
H252 H 0.15151 0.53835 0.59982 0.0
Cu253 Cu 0.48641 0.25995 0.51725 0.0
N254 N 0.51669 0.23489 0.48727 0.0
N255 N 0.55809 0.22635 0.45191 0.0
C256 C 0.53866 0.24906 0.47221 0.0
C257 C 0.54753 0.1966 0.45432 0.0
C258 C 0.52207 0.20195 0.47599 0.0
O259 O 0.51258 0.28704 0.54556 0.0
C260 C 0.43351 0.2613 0.47359 0.0
O261 O 0.441 0.22885 0.48178 0.0
H262 H 0.53993 0.27585 0.47603 0.0
H263 H 0.50848 0.18314 0.48288 0.0
N264 N 0.46902 0.23363 0.54848 0.0
N265 N 0.4375 0.21989 0.58857 0.0
C266 C 0.444 0.24503 0.56898 0.0
C267 C 0.47879 0.20027 0.55558 0.0
C268 C 0.45954 0.19177 0.58006 0.0
C269 C 0.53619 0.26794 0.56113 0.0
O270 O 0.53875 0.23449 0.55785 0.0
H271 H 0.43059 0.27115 0.56913 0.0
H272 H 0.49876 0.18331 0.54407 0.0
O273 O 0.45041 0.28207 0.4868 0.0
H274 H 0.55751 0.17243 0.44164 0.0
H275 H 0.462 0.16675 0.59109 0.0
Zn276 Zn 0.28625 0.3398 0.25756 0.0
Zn277 Zn 0.25335 0.2669 0.28074 0.0
C278 C 0.25478 0.40508 0.28399 0.0
O279 O 0.25448 0.41179 0.25126 0.0
C280 C 0.30537 0.21157 0.25839 0.0
O281 O 0.31087 0.20546 0.29114 0.0
O282 O 0.31747 0.36561 0.2352 0.0
O283 O 0.31418 0.30105 0.28377 0.0
O284 O 0.28076 0.28603 0.31913 0.0
C285 C 0.33287 0.38205 0.25632 0.0
O286 O 0.32875 0.37983 0.28926 0.0
O287 O 0.26494 0.37434 0.29317 0.0
C288 C 0.21462 0.21606 0.27842 0.0
O289 O 0.22271 0.21672 0.24638 0.0
O290 O 0.2253 0.23586 0.30044 0.0
O291 O 0.22324 0.29682 0.24691 0.0
O292 O 0.25244 0.32883 0.22185 0.0
O293 O 0.28347 0.23642 0.24938 0.0
C294 C 0.30768 0.29396 0.31391 0.0
C295 C 0.22794 0.31485 0.22195 0.0
Zn296 Zn 0.74744 0.2944 0.31261 0.0
Zn297 Zn 0.77922 0.28422 0.21033 0.0
C298 C 0.76509 0.32927 0.37643 0.0
O299 O 0.76662 0.2996 0.39086 0.0
C300 C 0.78215 0.22434 0.16512 0.0
O301 O 0.8127 0.22512 0.16612 0.0
O302 O 0.71472 0.27317 0.33839 0.0
O303 O 0.72385 0.32386 0.27469 0.0
O304 O 0.74033 0.32215 0.22124 0.0
C305 C 0.69339 0.2949 0.35373 0.0
O306 O 0.69337 0.32775 0.35076 0.0
O307 O 0.75889 0.33173 0.34445 0.0
C308 C 0.83336 0.31557 0.19071 0.0
O309 O 0.83834 0.31937 0.2239 0.0
O310 O 0.80977 0.30252 0.17989 0.0
O311 O 0.80523 0.25793 0.24876 0.0
O312 O 0.7897 0.25978 0.30271 0.0
O313 O 0.7631 0.24742 0.18163 0.0
C314 C 0.72062 0.33482 0.24429 0.0
C315 C 0.80983 0.24825 0.27957 0.0
Zn316 Zn 0.82228 0.81344 0.25714 0.0
Zn317 Zn 0.73291 0.7791 0.2581 0.0
C318 C 0.85457 0.79724 0.19206 0.0
O319 O 0.82844 0.81565 0.1785 0.0
C320 C 0.69716 0.8343 0.30053 0.0
O321 O 0.69835 0.85269 0.27354 0.0
O322 O 0.83871 0.85525 0.27854 0.0
O323 O 0.7787 0.82496 0.23162 0.0
O324 O 0.72994 0.81518 0.22177 0.0
C325 C 0.84846 0.87563 0.25881 0.0
O326 O 0.84546 0.87078 0.22554 0.0
O327 O 0.85614 0.79181 0.22404 0.0
C328 C 0.68971 0.7317 0.26323 0.0
O329 O 0.68956 0.74456 0.29468 0.0
O330 O 0.70779 0.74132 0.24187 0.0
O331 O 0.78045 0.76279 0.26548 0.0
O332 O 0.81995 0.77911 0.29393 0.0
O333 O 0.71187 0.80313 0.30056 0.0
C334 C 0.7516 0.83202 0.21583 0.0
C335 C 0.79804 0.76155 0.29261 0.0
Zn336 Zn 0.28447 0.80822 0.29578 0.0
Zn337 Zn 0.25582 0.78571 0.22394 0.0
C338 C 0.24498 0.77832 0.33901 0.0
O339 O 0.24425 0.80769 0.35584 0.0
C340 C 0.27262 0.81436 0.16178 0.0
O341 O 0.27231 0.78285 0.15054 0.0
O342 O 0.30952 0.82148 0.33749 0.0
O343 O 0.3205 0.78465 0.2651 0.0
O344 O 0.29418 0.74889 0.23845 0.0
C345 C 0.33049 0.79653 0.34854 0.0
O346 O 0.33168 0.76581 0.3344 0.0
O347 O 0.26078 0.77233 0.31177 0.0
C348 C 0.20378 0.78084 0.18076 0.0
O349 O 0.19956 0.81402 0.18775 0.0
O350 O 0.22799 0.76118 0.19381 0.0
O351 O 0.22441 0.81097 0.25853 0.0
O352 O 0.25082 0.84962 0.27903 0.0
O353 O 0.26829 0.82167 0.1935 0.0
C354 C 0.32028 0.75531 0.25104 0.0
C355 C 0.22446 0.84162 0.26916 0.0
Zn356 Zn 0.25266 0.78389 0.80702 0.0
Zn357 Zn 0.28704 0.79313 0.73049 0.0
C358 C 0.29765 0.80697 0.85497 0.0
O359 O 0.29284 0.78103 0.87262 0.0
C360 C 0.26632 0.76327 0.66651 0.0
O361 O 0.26197 0.79503 0.6562 0.0
O362 O 0.22787 0.77373 0.84727 0.0
O363 O 0.21915 0.8166 0.77967 0.0
O364 O 0.24688 0.83032 0.73767 0.0
C365 C 0.19903 0.77093 0.84151 0.0
O366 O 0.18798 0.77089 0.80965 0.0
O367 O 0.2837 0.81241 0.8258 0.0
C368 C 0.34054 0.79596 0.6922 0.0
O369 O 0.34412 0.76275 0.69653 0.0
O370 O 0.31695 0.81592 0.70544 0.0
O371 O 0.31421 0.76544 0.7682 0.0
O372 O 0.27792 0.73877 0.78597 0.0
O373 O 0.27557 0.75689 0.69733 0.0
C374 C 0.22171 0.83578 0.75508 0.0
C375 C 0.30635 0.73768 0.77664 0.0
Zn376 Zn 0.25621 0.23127 0.77207 0.0
Zn377 Zn 0.28318 0.33029 0.76442 0.0
C378 C 0.26986 0.16484 0.8024 0.0
O379 O 0.26409 0.15565 0.77048 0.0
C380 C 0.23489 0.3688 0.71918 0.0
O381 O 0.21557 0.35483 0.73688 0.0
O382 O 0.21767 0.21629 0.74796 0.0
O383 O 0.24162 0.27921 0.79688 0.0
O384 O 0.25008 0.33273 0.80036 0.0
C385 C 0.19545 0.21266 0.76738 0.0
O386 O 0.19811 0.22067 0.80012 0.0
O387 O 0.26965 0.1964 0.80958 0.0
C388 C 0.32046 0.37766 0.79321 0.0
O389 O 0.29271 0.39856 0.78949 0.0
O390 O 0.32264 0.34605 0.78459 0.0
O391 O 0.29145 0.28166 0.74789 0.0
O392 O 0.29248 0.22786 0.737 0.0
O393 O 0.2647 0.36147 0.72603 0.0
C394 C 0.23529 0.30986 0.80986 0.0
C395 C 0.3033 0.25461 0.73107 0.0
Zn396 Zn 0.78719 0.29013 0.81675 0.0
Zn397 Zn 0.75059 0.29909 0.71215 0.0
C398 C 0.76719 0.25869 0.87644 0.0
O399 O 0.781 0.28098 0.89381 0.0
C400 C 0.79547 0.32678 0.67089 0.0
O401 O 0.81561 0.29841 0.6786 0.0
O402 O 0.82504 0.3024 0.84766 0.0
O403 O 0.80687 0.2592 0.77699 0.0
O404 O 0.78873 0.25926 0.72274 0.0
C405 C 0.84818 0.27748 0.85433 0.0
O406 O 0.84641 0.24678 0.84191 0.0
O407 O 0.76693 0.25828 0.84388 0.0
C408 C 0.68995 0.30403 0.6717 0.0
O409 O 0.68949 0.33707 0.67603 0.0
O410 O 0.71346 0.28271 0.68466 0.0
O411 O 0.73157 0.32983 0.7519 0.0
O412 O 0.74967 0.33116 0.80615 0.0
O413 O 0.76721 0.33169 0.68172 0.0
C414 C 0.80891 0.24692 0.74636 0.0
C415 C 0.72933 0.34271 0.78226 0.0
Zn416 Zn 0.72095 0.77356 0.75634 0.0
Zn417 Zn 0.80041 0.80747 0.74565 0.0
C418 C 0.68802 0.81096 0.69916 0.0
O419 O 0.71705 0.81269 0.69076 0.0
C420 C 0.85381 0.75966 0.77091 0.0
O421 O 0.86041 0.75765 0.73824 0.0
O422 O 0.70235 0.73893 0.78233 0.0
O423 O 0.74991 0.74767 0.72073 0.0
O424 O 0.78995 0.77336 0.70966 0.0
C425 C 0.68023 0.7263 0.7672 0.0
O426 O 0.67221 0.7343 0.73528 0.0
O427 O 0.68384 0.7986 0.7278 0.0
C428 C 0.8311 0.86562 0.73478 0.0
O429 O 0.81396 0.87932 0.76075 0.0
O430 O 0.82869 0.83573 0.72357 0.0
O431 O 0.76687 0.8395 0.77256 0.0
O432 O 0.73518 0.80671 0.79162 0.0
O433 O 0.82854 0.7796 0.78059 0.0
C434 C 0.77321 0.75072 0.70271 0.0
C435 C 0.74963 0.83176 0.7957 0.0
H436 H 0.12402 0.10918 0.28756 0.0
H437 H 0.09808 0.16689 0.38139 0.0
H438 H 0.13741 0.20218 0.37201 0.0
H439 H 0.17828 0.21837 0.33576 0.0
H440 H 0.20179 0.16137 0.24095 0.0
H441 H 0.16433 0.12468 0.25204 0.0
C442 C 0.1266 0.12961 0.30592 0.0
C443 C 0.10771 0.13516 0.33513 0.0
C444 C 0.14903 0.15021 0.30015 0.0
C445 C 0.11226 0.16153 0.35881 0.0
C446 C 0.13475 0.18197 0.35337 0.0
C447 C 0.17537 0.19774 0.31771 0.0
C448 C 0.19294 0.19283 0.2875 0.0
C449 C 0.15321 0.17672 0.324 0.0
C450 C 0.1886 0.16603 0.26432 0.0
C451 C 0.16711 0.14491 0.27062 0.0
H452 H 0.92999 0.14649 0.34166 0.0
H453 H 0.94753 0.1221 0.23471 0.0
H454 H 0.89932 0.16422 0.21888 0.0
H455 H 0.85185 0.20797 0.2358 0.0
H456 H 0.83501 0.23031 0.34333 0.0
H457 H 0.88332 0.189 0.35838 0.0
C458 C 0.9235 0.15022 0.31476 0.0
C459 C 0.94272 0.13092 0.28942 0.0
C460 C 0.89572 0.17424 0.30596 0.0
C461 C 0.93348 0.13648 0.25481 0.0
C462 C 0.90582 0.16059 0.24578 0.0
C463 C 0.85872 0.20387 0.26257 0.0
C464 C 0.83947 0.22251 0.2884 0.0
C465 C 0.88669 0.17964 0.27117 0.0
C466 C 0.84895 0.21647 0.32287 0.0
C467 C 0.87673 0.19281 0.33152 0.0
H468 H 0.92459 0.9954 0.28352 0.0
H469 H 0.96137 0.93527 0.37134 0.0
H470 H 0.92509 0.89621 0.3575 0.0
H471 H 0.88501 0.8766 0.31811 0.0
H472 H 0.85119 0.93518 0.22859 0.0
H473 H 0.8841 0.97698 0.24537 0.0
C474 C 0.92494 0.97372 0.29964 0.0
C475 C 0.9461 0.96852 0.32842 0.0
C476 C 0.90436 0.95084 0.29117 0.0
C477 C 0.94538 0.94042 0.34921 0.0
C478 C 0.92465 0.9178 0.34119 0.0
C479 C 0.88448 0.89884 0.30265 0.0
C480 C 0.86555 0.90277 0.27216 0.0
C481 C 0.90425 0.92249 0.312 0.0
C482 C 0.86554 0.93147 0.25213 0.0
C483 C 0.88444 0.95539 0.26166 0.0
H484 H 0.08111 0.92001 0.2782 0.0
H485 H 0.12337 0.00928 0.27175 0.0
H486 H 0.17646 0.97206 0.268 0.0
H487 H 0.21137 0.91319 0.269 0.0
H488 H 0.16658 0.82531 0.27445 0.0
H489 H 0.11449 0.86279 0.27657 0.0
C490 C 0.10184 0.93147 0.27555 0.0
C491 C 0.09802 0.96753 0.27511 0.0
C492 C 0.13215 0.90998 0.27376 0.0
C493 C 0.12536 0.98168 0.27166 0.0
C494 C 0.15583 0.96033 0.26991 0.0
C495 C 0.1902 0.90234 0.27086 0.0
C496 C 0.1932 0.86624 0.27185 0.0
C497 C 0.15965 0.92432 0.27146 0.0
C498 C 0.1653 0.85278 0.2737 0.0
C499 C 0.13531 0.87426 0.27485 0.0
H500 H 0.12142 0.96012 0.69452 0.0
H501 H 0.07801 0.95698 0.79183 0.0
H502 H 0.12082 0.90865 0.80826 0.0
H503 H 0.17042 0.86623 0.794 0.0
H504 H 0.21292 0.87201 0.69643 0.0
H505 H 0.17051 0.92006 0.68115 0.0
C506 C 0.12114 0.94905 0.71946 0.0
C507 C 0.09621 0.96232 0.74183 0.0
C508 C 0.14573 0.92143 0.72861 0.0
C509 C 0.09679 0.94756 0.77409 0.0
C510 C 0.12125 0.91975 0.78339 0.0
C511 C 0.17035 0.87795 0.76935 0.0
C512 C 0.19504 0.86511 0.74635 0.0
C513 C 0.14579 0.90624 0.76072 0.0
C514 C 0.19451 0.88106 0.7147 0.0
C515 C 0.17017 0.90866 0.70589 0.0
H516 H 0.07568 0.14345 0.74426 0.0
H517 H 0.12336 0.1064 0.65111 0.0
H518 H 0.16466 0.13977 0.66549 0.0
H519 H 0.18902 0.17696 0.70666 0.0
H520 H 0.14092 0.21237 0.80023 0.0
H521 H 0.09827 0.18213 0.78364 0.0
C522 C 0.09515 0.14255 0.72713 0.0
C523 C 0.09651 0.12216 0.6968 0.0
C524 C 0.11889 0.16151 0.73572 0.0
C525 C 0.12158 0.12199 0.67453 0.0
C526 C 0.14533 0.14094 0.68285 0.0
C527 C 0.169 0.17839 0.72318 0.0
C528 C 0.16834 0.19684 0.75476 0.0
C529 C 0.14447 0.1605 0.71363 0.0
C530 C 0.14225 0.19824 0.77591 0.0
C531 C 0.11778 0.1809 0.76647 0.0
H532 H 0.91924 0.13287 0.68489 0.0
H533 H 0.94542 0.11832 0.79192 0.0
H534 H 0.89962 0.16342 0.8075 0.0
H535 H 0.85202 0.20705 0.79027 0.0
H536 H 0.82728 0.22082 0.68282 0.0
H537 H 0.87238 0.17553 0.66799 0.0
C538 C 0.91515 0.13938 0.71175 0.0
C539 C 0.93611 0.12201 0.73719 0.0
C540 C 0.88881 0.1652 0.72043 0.0
C541 C 0.92993 0.13109 0.77175 0.0
C542 C 0.90366 0.15692 0.78064 0.0
C543 C 0.85657 0.20045 0.76362 0.0
C544 C 0.83608 0.21797 0.7378 0.0
C545 C 0.88293 0.17424 0.75515 0.0
C546 C 0.8423 0.20813 0.70338 0.0
C547 C 0.86827 0.18218 0.69482 0.0
H548 H 0.94326 0.92102 0.6689 0.0
H549 H 0.90389 0.01027 0.73097 0.0
H550 H 0.86216 0.98192 0.74916 0.0
H551 H 0.8381 0.93105 0.74967 0.0
H552 H 0.87639 0.84165 0.68728 0.0
H553 H 0.91683 0.87097 0.6666 0.0
C554 C 0.92528 0.93445 0.68596 0.0
C555 C 0.92706 0.96763 0.69885 0.0
C556 C 0.90113 0.91793 0.69638 0.0
C557 C 0.90359 0.9845 0.72118 0.0
C558 C 0.87956 0.96836 0.73151 0.0
C559 C 0.85516 0.91796 0.73141 0.0
C560 C 0.85428 0.88408 0.72027 0.0
C561 C 0.87837 0.93491 0.7197 0.0
C562 C 0.8765 0.8677 0.69638 0.0
C563 C 0.89971 0.88445 0.68457 0.0
H564 H 0.37515 0.08927 0.16454 0.0
H565 H 0.31521 0.14767 0.08743 0.0
H566 H 0.29649 0.19303 0.12997 0.0
H567 H 0.29422 0.21391 0.18959 0.0
H568 H 0.35278 0.15491 0.26754 0.0
H569 H 0.37541 0.11218 0.22402 0.0
C570 C 0.35849 0.11224 0.15697 0.0
C571 C 0.34644 0.11508 0.12294 0.0
C572 C 0.34746 0.13796 0.18172 0.0
C573 C 0.3245 0.14477 0.11357 0.0
C574 C 0.31385 0.1707 0.13785 0.0
C575 C 0.3122 0.19192 0.19711 0.0
C576 C 0.32162 0.18752 0.23186 0.0
C577 C 0.32467 0.16722 0.17212 0.0
C578 C 0.34497 0.15886 0.24102 0.0
C579 C 0.35789 0.13438 0.21615 0.0
H580 H 0.92377 0.33514 0.07116 0.0
H581 H 0.96812 0.38578 0.15356 0.0
H582 H 0.92818 0.37547 0.19286 0.0
H583 H 0.88167 0.35032 0.20441 0.0
H584 H 0.83644 0.30068 0.12171 0.0
H585 H 0.87552 0.31235 0.08209 0.0
C586 C 0.92458 0.34399 0.09771 0.0
C587 C 0.94892 0.36125 0.10938 0.0
C588 C 0.90139 0.33806 0.12018 0.0
C589 C 0.94947 0.37285 0.14379 0.0
C590 C 0.92674 0.36674 0.16634 0.0
C591 C 0.88023 0.34215 0.17769 0.0
C592 C 0.85613 0.32446 0.16622 0.0
C593 C 0.90271 0.34915 0.15491 0.0
C594 C 0.85464 0.31433 0.13138 0.0
C595 C 0.87707 0.32093 0.10865 0.0
H596 H 0.7465 0.95178 0.11241 0.0
H597 H 0.65629 0.92422 0.08409 0.0
H598 H 0.66539 0.88021 0.12746 0.0
H599 H 0.69951 0.84881 0.17271 0.0
H600 H 0.78941 0.87702 0.20113 0.0
H601 H 0.78021 0.92105 0.15805 0.0
C602 C 0.72895 0.93597 0.1155 0.0
C603 C 0.7008 0.94126 0.09489 0.0
C604 C 0.73439 0.91065 0.14038 0.0
C605 C 0.678 0.92096 0.09979 0.0
C606 C 0.68329 0.89564 0.12446 0.0
C607 C 0.71711 0.86457 0.16952 0.0
C608 C 0.74544 0.85918 0.18991 0.0
C609 C 0.71145 0.89017 0.14484 0.0
C610 C 0.76777 0.88011 0.18547 0.0
C611 C 0.76241 0.90548 0.16092 0.0
H612 H 0.09628 0.7488 0.07815 0.0
H613 H 0.14096 0.64437 0.09937 0.0
H614 H 0.18 0.66512 0.13851 0.0
H615 H 0.20134 0.71358 0.1658 0.0
H616 H 0.15474 0.81766 0.14375 0.0
H617 H 0.11661 0.79635 0.10526 0.0
C618 C 0.11485 0.73053 0.09094 0.0
C619 C 0.11633 0.69512 0.08548 0.0
C620 C 0.13675 0.74263 0.11316 0.0
C621 C 0.13969 0.67174 0.10317 0.0
C622 C 0.16192 0.68362 0.12537 0.0
C623 C 0.18286 0.73153 0.15251 0.0
C624 C 0.18094 0.76717 0.15759 0.0
C625 C 0.16072 0.71908 0.13044 0.0
C626 C 0.15677 0.79014 0.14036 0.0
C627 C 0.13493 0.778 0.11831 0.0
H628 H 0.35846 0.93327 0.90311 0.0
H629 H 0.36394 0.88271 0.99953 0.0
H630 H 0.34502 0.83416 0.97125 0.0
H631 H 0.32204 0.80904 0.92023 0.0
H632 H 0.31439 0.86118 0.82427 0.0
H633 H 0.33947 0.90596 0.85114 0.0
C634 C 0.35643 0.91118 0.91772 0.0
C635 C 0.36273 0.91144 0.95333 0.0
C636 C 0.34478 0.88386 0.90143 0.0
C637 C 0.35921 0.88298 0.97209 0.0
C638 C 0.34829 0.85535 0.95595 0.0
C639 C 0.32625 0.82993 0.90505 0.0
C640 C 0.31611 0.83185 0.87035 0.0
C641 C 0.3402 0.85594 0.9208 0.0
C642 C 0.32176 0.85915 0.8511 0.0
C643 C 0.3361 0.88481 0.86644 0.0
H644 H 0.13259 0.37893 0.91677 0.0
H645 H 0.12092 0.27402 0.92436 0.0
H646 H 0.16246 0.25533 0.88299 0.0
H647 H 0.20244 0.26875 0.84407 0.0
H648 H 0.21186 0.37424 0.83541 0.0
H649 H 0.17115 0.39236 0.87749 0.0
C650 C 0.13874 0.352 0.90929 0.0
C651 C 0.12326 0.32814 0.92407 0.0
C652 C 0.16253 0.34133 0.88507 0.0
C653 C 0.13239 0.29319 0.91406 0.0
C654 C 0.15617 0.28239 0.89011 0.0
C655 C 0.19534 0.2957 0.85104 0.0
C656 C 0.21027 0.31994 0.83606 0.0
C657 C 0.17143 0.30623 0.87534 0.0
C658 C 0.20104 0.35478 0.84625 0.0
C659 C 0.17759 0.36531 0.8704 0.0
H660 H 0.72617 0.15162 0.97206 0.0
H661 H 0.68067 0.12399 0.87763 0.0
H662 H 0.69771 0.1706 0.84878 0.0
H663 H 0.72878 0.21661 0.84954 0.0
H664 H 0.77466 0.24357 0.94418 0.0
H665 H 0.7546 0.19948 0.97367 0.0
C666 C 0.71995 0.15582 0.94517 0.0
C667 C 0.70243 0.13414 0.92696 0.0
C668 C 0.7302 0.18231 0.92871 0.0
C669 C 0.69395 0.1404 0.89231 0.0
C670 C 0.70394 0.16687 0.87573 0.0
C671 C 0.73428 0.21294 0.87665 0.0
C672 C 0.75341 0.23322 0.89455 0.0
C673 C 0.72258 0.18757 0.89353 0.0
C674 C 0.76004 0.22834 0.92975 0.0
C675 C 0.74861 0.20309 0.94666 0.0
H676 H 0.96656 0.67753 0.86136 0.0
H677 H 0.90338 0.72007 0.94195 0.0
H678 H 0.86282 0.74546 0.89946 0.0
H679 H 0.84704 0.75862 0.83971 0.0
H680 H 0.9111 0.71745 0.75906 0.0
H681 H 0.94962 0.68823 0.80128 0.0
C682 C 0.94361 0.69162 0.8695 0.0
C683 C 0.93775 0.69679 0.90461 0.0
C684 C 0.92079 0.7067 0.84498 0.0
C685 C 0.90824 0.71584 0.91496 0.0
C686 C 0.88518 0.7304 0.89074 0.0
C687 C 0.86932 0.74306 0.83131 0.0
C688 C 0.87623 0.74036 0.7963 0.0
C689 C 0.89146 0.72655 0.8557 0.0
C690 C 0.9052 0.72003 0.78587 0.0
C691 C 0.92726 0.7033 0.80998 0.0
H692 H 0.14218 0.35151 0.08703 0.0
H693 H 0.09981 0.26819 0.11834 0.0
H694 H 0.13696 0.25996 0.16842 0.0
H695 H 0.18096 0.27778 0.20425 0.0
H696 H 0.22271 0.36096 0.17082 0.0
H697 H 0.18621 0.36792 0.12099 0.0
C698 C 0.14099 0.33135 0.10463 0.0
C699 C 0.11796 0.31052 0.09867 0.0
C700 C 0.16229 0.32693 0.13333 0.0
C701 C 0.11725 0.28448 0.12192 0.0
C702 C 0.13843 0.27995 0.15075 0.0
C703 C 0.182 0.29757 0.18617 0.0
C704 C 0.20467 0.31904 0.19179 0.0
C705 C 0.16092 0.30126 0.15694 0.0
C706 C 0.2057 0.34412 0.16757 0.0
C707 C 0.18477 0.34811 0.13889 0.0
H708 H 0.12149 0.7759 0.97705 0.0
H709 H 0.04693 0.76515 0.90235 0.0
H710 H 0.08322 0.76616 0.85589 0.0
H711 H 0.13651 0.76722 0.83656 0.0
H712 H 0.21225 0.77558 0.91069 0.0
H713 H 0.17525 0.77797 0.95732 0.0
C714 C 0.1131 0.7745 0.95057 0.0
C715 C 0.0815 0.77086 0.94306 0.0
C716 C 0.13443 0.774 0.92394 0.0
C717 C 0.07109 0.76821 0.90869 0.0
C718 C 0.09187 0.76857 0.88215 0.0
C719 C 0.14504 0.7695 0.8629 0.0
C720 C 0.17719 0.77101 0.87007 0.0
C721 C 0.1237 0.77085 0.88949 0.0
C722 C 0.18768 0.77411 0.90441 0.0
C723 C 0.16649 0.77565 0.93109 0.0
H724 H 0.28756 0.03682 0.89767 0.0
H725 H 0.28387 0.11612 0.97677 0.0
H726 H 0.27632 0.15991 0.93316 0.0
H727 H 0.27249 0.17559 0.87218 0.0
H728 H 0.27667 0.09554 0.79372 0.0
H729 H 0.2825 0.05237 0.83742 0.0
C730 C 0.28478 0.0637 0.9055 0.0
C731 C 0.28623 0.07304 0.94056 0.0
C732 C 0.28088 0.08871 0.8803 0.0
C733 C 0.28273 0.10808 0.95002 0.0
C734 C 0.27857 0.13318 0.92506 0.0
C735 C 0.27482 0.14869 0.86465 0.0
C736 C 0.27437 0.13891 0.82959 0.0
C737 C 0.27801 0.12378 0.89006 0.0
C738 C 0.27707 0.10392 0.82041 0.0
C739 C 0.28033 0.07912 0.84542 0.0
H740 H 0.98658 0.27208 0.92218 0.0
H741 H 0.93227 0.33637 0.99879 0.0
H742 H 0.88267 0.33327 0.96662 0.0
H743 H 0.85437 0.31445 0.91474 0.0
H744 H 0.90873 0.24855 0.83912 0.0
H745 H 0.95806 0.25047 0.87209 0.0
C746 C 0.96379 0.28443 0.9323 0.0
C747 C 0.96312 0.30365 0.96337 0.0
C748 C 0.93518 0.28305 0.9132 0.0
C749 C 0.9334 0.32067 0.97541 0.0
C750 C 0.90499 0.3193 0.95675 0.0
C751 C 0.87706 0.30084 0.90539 0.0
C752 C 0.8778 0.28186 0.87412 0.0
C753 C 0.90553 0.30113 0.92519 0.0
C754 C 0.90743 0.26365 0.86288 0.0
C755 C 0.93572 0.26455 0.88187 0.0
H756 H 0.71355 0.90757 0.93779 0.0
H757 H 0.77669 0.9714 0.90515 0.0
H758 H 0.78748 0.93523 0.85298 0.0
H759 H 0.77636 0.88721 0.81533 0.0
H760 H 0.71302 0.82391 0.84935 0.0
H761 H 0.70494 0.85822 0.90224 0.0
C762 C 0.72992 0.91343 0.91942 0.0
C763 C 0.74421 0.94219 0.92526 0.0
C764 C 0.73571 0.8928 0.88955 0.0
C765 C 0.76558 0.94924 0.90138 0.0
C766 C 0.77152 0.92873 0.87142 0.0
C767 C 0.76075 0.88092 0.83424 0.0
C768 C 0.74498 0.85317 0.82788 0.0
C769 C 0.75626 0.90076 0.86496 0.0
C770 C 0.72519 0.84526 0.8531 0.0
C771 C 0.7206 0.86483 0.88352 0.0
H772 H 0.98857 0.74642 0.12636 0.0
H773 H 0.93551 0.78734 0.03583 0.0
H774 H 0.88748 0.80437 0.06918 0.0
H775 H 0.86031 0.80645 0.12386 0.0
H776 H 0.91355 0.76385 0.21372 0.0
H777 H 0.96163 0.7484 0.18065 0.0
C778 C 0.96662 0.75941 0.11392 0.0
C779 C 0.96574 0.7658 0.07866 0.0
C780 C 0.93899 0.76848 0.13306 0.0
C781 C 0.93692 0.78227 0.06297 0.0
C782 C 0.9094 0.79187 0.08199 0.0
C783 C 0.88239 0.79366 0.13619 0.0
C784 C 0.88321 0.78625 0.17124 0.0
C785 C 0.91008 0.78481 0.117 0.0
C786 C 0.9121 0.76974 0.18678 0.0
C787 C 0.9397 0.761 0.16791 0.0
H788 H 0.27936 0.90959 0.03698 0.0
H789 H 0.27939 0.98546 0.11875 0.0
H790 H 0.27529 0.94256 0.16097 0.0
H791 H 0.27348 0.88267 0.17479 0.0
H792 H 0.27626 0.80672 0.09241 0.0
H793 H 0.27775 0.85026 0.05061 0.0
C794 C 0.27792 0.9169 0.06399 0.0
C795 C 0.27924 0.95081 0.07464 0.0
C796 C 0.27654 0.89188 0.08817 0.0
C797 C 0.27817 0.95959 0.10985 0.0
C798 C 0.27598 0.93502 0.13402 0.0
C799 C 0.27451 0.87563 0.14771 0.0
C800 C 0.27486 0.84129 0.13694 0.0
C801 C 0.27554 0.90092 0.12353 0.0
C802 C 0.27611 0.83279 0.10164 0.0
C803 C 0.27683 0.85775 0.07757 0.0
H804 H 0.70994 0.11545 0.09433 0.0
H805 H 0.80196 0.07849 0.0508 0.0
H806 H 0.82327 0.1236 0.08304 0.0
H807 H 0.81507 0.17446 0.12271 0.0
H808 H 0.72208 0.21116 0.16433 0.0
H809 H 0.70184 0.16518 0.13344 0.0
C810 C 0.73475 0.11701 0.09188 0.0
C811 C 0.75434 0.0935 0.07016 0.0
C812 C 0.7466 0.14314 0.11002 0.0
C813 C 0.78639 0.0961 0.06744 0.0
C814 C 0.79852 0.12199 0.08577 0.0
C815 C 0.79038 0.17239 0.12503 0.0
C816 C 0.77012 0.19637 0.14583 0.0
C817 C 0.77875 0.14582 0.10699 0.0
C818 C 0.73819 0.19326 0.14846 0.0
C819 C 0.72658 0.16689 0.13085 0.0
H820 H 0.62035 0.62541 0.85541 0.0
H821 H 0.54551 0.65066 0.77799 0.0
H822 H 0.57478 0.68902 0.75179 0.0
H823 H 0.62231 0.71346 0.74899 0.0
H824 H 0.6974 0.69074 0.82645 0.0
H825 H 0.66737 0.65357 0.85466 0.0
C826 C 0.61034 0.63975 0.83316 0.0
C827 C 0.58099 0.63478 0.81839 0.0
C828 C 0.62744 0.66198 0.81804 0.0
C829 C 0.56833 0.65345 0.78943 0.0
C830 C 0.585 0.6755 0.77446 0.0
C831 C 0.63222 0.70036 0.77203 0.0
C832 C 0.66223 0.70449 0.78533 0.0
C833 C 0.61478 0.67947 0.78815 0.0
C834 C 0.67439 0.68783 0.81558 0.0
C835 C 0.65722 0.66659 0.8317 0.0
H836 H 0.38751 0.58473 0.77018 0.0
H837 H 0.46496 0.63899 0.76541 0.0
H838 H 0.42701 0.69394 0.76666 0.0
H839 H 0.37154 0.72706 0.77027 0.0
H840 H 0.29469 0.67246 0.77884 0.0
H841 H 0.33243 0.61771 0.77505 0.0
C842 C 0.39613 0.60853 0.76892 0.0
C843 C 0.42925 0.6074 0.76705 0.0
C844 C 0.37413 0.64025 0.77066 0.0
C845 C 0.43975 0.6388 0.76644 0.0
C846 C 0.41798 0.67035 0.76729 0.0
C847 C 0.36299 0.7032 0.77129 0.0
C848 C 0.33002 0.70423 0.77484 0.0
C849 C 0.38507 0.67148 0.7696 0.0
C850 C 0.31972 0.6728 0.77628 0.0
C851 C 0.34138 0.64131 0.774 0.0
H852 H 0.45384 0.41435 0.83727 0.0
H853 H 0.39586 0.51619 0.84344 0.0
H854 H 0.34823 0.49288 0.82834 0.0
H855 H 0.32345 0.44394 0.81097 0.0
H856 H 0.3816 0.3421 0.80371 0.0
H857 H 0.42871 0.365 0.82201 0.0
C858 C 0.43073 0.43138 0.83601 0.0
C859 C 0.42845 0.46704 0.84167 0.0
C860 C 0.40349 0.41781 0.82687 0.0
C861 C 0.39831 0.48874 0.8391 0.0
C862 C 0.37107 0.4754 0.83046 0.0
C863 C 0.34637 0.42665 0.81355 0.0
C864 C 0.34889 0.39129 0.80583 0.0
C865 C 0.37343 0.44004 0.82384 0.0
C866 C 0.37888 0.36939 0.80938 0.0
C867 C 0.40587 0.38249 0.81985 0.0
H868 H 0.62548 0.46654 0.83865 0.0
H869 H 0.58057 0.45464 0.73929 0.0
H870 H 0.6253 0.40773 0.72452 0.0
H871 H 0.6771 0.36949 0.74065 0.0
H872 H 0.71987 0.38239 0.84109 0.0
H873 H 0.67588 0.42949 0.85447 0.0
C874 C 0.6252 0.45395 0.81358 0.0
C875 C 0.59934 0.4645 0.7901 0.0
C876 C 0.65075 0.42698 0.8055 0.0
C877 C 0.59994 0.44739 0.7579 0.0
C878 C 0.62559 0.42047 0.74951 0.0
C879 C 0.67694 0.38266 0.76544 0.0
C880 C 0.70221 0.37209 0.78979 0.0
C881 C 0.65114 0.40994 0.77319 0.0
C882 C 0.7011 0.38959 0.8218 0.0
C883 C 0.67584 0.41667 0.8295 0.0
H884 H 0.61535 0.45428 0.1831 0.0
H885 H 0.58649 0.46639 0.28815 0.0
H886 H 0.63012 0.4187 0.30403 0.0
H887 H 0.67643 0.37305 0.2875 0.0
H888 H 0.70395 0.3628 0.18176 0.0
H889 H 0.66077 0.41022 0.16691 0.0
C890 C 0.61839 0.4467 0.2096 0.0
C891 C 0.59737 0.46413 0.23437 0.0
C892 C 0.64338 0.41939 0.21841 0.0
C893 C 0.60216 0.45366 0.2685 0.0
C894 C 0.62713 0.42628 0.27755 0.0
C895 C 0.67299 0.38111 0.26117 0.0
C896 C 0.69369 0.36396 0.23579 0.0
C897 C 0.64788 0.40883 0.25265 0.0
C898 C 0.68867 0.37517 0.2019 0.0
C899 C 0.66389 0.40241 0.19334 0.0
H900 H 0.58628 0.63803 0.2489 0.0
H901 H 0.61881 0.62464 0.14526 0.0
H902 H 0.65678 0.66216 0.15874 0.0
H903 H 0.68111 0.69917 0.20051 0.0
H904 H 0.64818 0.71045 0.30423 0.0
H905 H 0.6107 0.67321 0.29018 0.0
C906 C 0.60185 0.64283 0.22924 0.0
C907 C 0.59947 0.62822 0.19606 0.0
C908 C 0.62384 0.66423 0.23723 0.0
C909 C 0.61966 0.63565 0.17093 0.0
C910 C 0.6416 0.65705 0.1787 0.0
C911 C 0.66583 0.69335 0.22004 0.0
C912 C 0.66775 0.70776 0.25346 0.0
C913 C 0.64395 0.67157 0.21182 0.0
C914 C 0.64754 0.69987 0.27832 0.0
C915 C 0.62591 0.6785 0.27033 0.0
H916 H 0.45744 0.65676 0.26136 0.0
H917 H 0.40746 0.59066 0.20019 0.0
H918 H 0.35798 0.63321 0.20379 0.0
H919 H 0.32925 0.69074 0.2211 0.0
H920 H 0.37886 0.75832 0.28102 0.0
H921 H 0.42751 0.71413 0.28126 0.0
C922 C 0.43547 0.65136 0.24979 0.0
C923 C 0.43603 0.62016 0.23117 0.0
C924 C 0.40696 0.67661 0.25118 0.0
C925 C 0.40755 0.61412 0.21523 0.0
C926 C 0.37925 0.63863 0.21698 0.0
C927 C 0.35065 0.6959 0.23427 0.0
C928 C 0.35016 0.72818 0.25075 0.0
C929 C 0.37874 0.67027 0.23429 0.0
C930 C 0.37834 0.734 0.26777 0.0
C931 C 0.40629 0.70858 0.26806 0.0
H932 H 0.42108 0.48954 0.23867 0.0
H933 H 0.44376 0.43013 0.14506 0.0
H934 H 0.40516 0.39484 0.15749 0.0
H935 H 0.36611 0.37898 0.1966 0.0
H936 H 0.3467 0.43734 0.29139 0.0
H937 H 0.38289 0.47434 0.27694 0.0
C938 C 0.418 0.46874 0.221 0.0
C939 C 0.43578 0.46268 0.19099 0.0
C940 C 0.39617 0.44806 0.22859 0.0
C941 C 0.43047 0.43586 0.16823 0.0
C942 C 0.40841 0.41542 0.17543 0.0
C943 C 0.36968 0.39996 0.21389 0.0
C944 C 0.35375 0.40516 0.24515 0.0
C945 C 0.39123 0.42107 0.20571 0.0
C946 C 0.35881 0.43242 0.26734 0.0
C947 C 0.37952 0.45372 0.25909 0.0
H948 H 0.82942 0.65644 0.57771 0.0
H949 H 0.7366 0.62947 0.57644 0.0
H950 H 0.7215 0.66971 0.62489 0.0
H951 H 0.73565 0.71116 0.66882 0.0
H952 H 0.82875 0.73765 0.66861 0.0
H953 H 0.84277 0.69874 0.61954 0.0
C954 C 0.80578 0.65937 0.58786 0.0
C955 C 0.7842 0.63984 0.57354 0.0
C956 C 0.79742 0.68231 0.61562 0.0
C957 C 0.75362 0.64426 0.58691 0.0
C958 C 0.74507 0.66713 0.61472 0.0
C959 C 0.75903 0.70835 0.65807 0.0
C960 C 0.78119 0.7272 0.67259 0.0
C961 C 0.76693 0.68603 0.62952 0.0
C962 C 0.81122 0.72355 0.65803 0.0
C963 C 0.81929 0.70126 0.62995 0.0
H964 H 0.44245 0.82699 0.59262 0.0
H965 H 0.399 0.93163 0.61825 0.0
H966 H 0.36264 0.9113 0.65643 0.0
H967 H 0.34283 0.86314 0.68115 0.0
H968 H 0.38848 0.75878 0.65525 0.0
H969 H 0.42444 0.77967 0.6183 0.0
C970 C 0.42486 0.84537 0.60634 0.0
C971 C 0.42288 0.88074 0.60229 0.0
C972 C 0.40455 0.83349 0.62814 0.0
C973 C 0.40066 0.9043 0.62097 0.0
C974 C 0.37995 0.89265 0.64264 0.0
C975 C 0.3607 0.84501 0.66747 0.0
C976 C 0.36284 0.8094 0.67088 0.0
C977 C 0.38158 0.85723 0.64625 0.0
C978 C 0.38624 0.78627 0.65313 0.0
C979 C 0.40683 0.79817 0.63192 0.0
H980 H 0.15985 0.47675 0.61504 0.0
H981 H 0.25604 0.48433 0.59274 0.0
H982 H 0.27703 0.44066 0.63421 0.0
H983 H 0.26835 0.40109 0.67772 0.0
H984 H 0.17239 0.39315 0.70091 0.0
H985 H 0.15113 0.43611 0.65841 0.0
C986 C 0.18536 0.4688 0.61935 0.0
C987 C 0.20625 0.48361 0.60055 0.0
C988 C 0.19738 0.44363 0.64347 0.0
C989 C 0.23934 0.47293 0.60626 0.0
C990 C 0.25143 0.4481 0.63022 0.0
C991 C 0.24277 0.40864 0.67345 0.0
C992 C 0.22203 0.39393 0.69255 0.0
C993 C 0.2307 0.43332 0.64901 0.0
C994 C 0.18895 0.40403 0.68658 0.0
C995 C 0.17673 0.42866 0.6623 0.0
H996 H 0.58934 0.23054 0.59143 0.0
H997 H 0.54131 0.33542 0.57648 0.0
H998 H 0.58448 0.35569 0.60938 0.0
H999 H 0.63615 0.34333 0.64226 0.0
H1000 H 0.68343 0.23792 0.65607 0.0
H1001 H 0.64018 0.21826 0.62363 0.0
C1002 C 0.58805 0.25794 0.5953 0.0
C1003 C 0.56178 0.28141 0.58139 0.0
C1004 C 0.61296 0.2693 0.61405 0.0
C1005 C 0.56101 0.31673 0.5868 0.0
C1006 C 0.58577 0.3283 0.60563 0.0
C1007 C 0.63706 0.31602 0.63822 0.0
C1008 C 0.66328 0.29216 0.65181 0.0
C1009 C 0.61193 0.3048 0.61936 0.0
C1010 C 0.66378 0.25692 0.64614 0.0
C1011 C 0.63897 0.24564 0.62752 0.0
H1012 H 0.80084 0.4437 0.47816 0.0
H1013 H 0.75047 0.50977 0.40062 0.0
H1014 H 0.73787 0.45956 0.36834 0.0
H1015 H 0.74502 0.39648 0.3605 0.0
H1016 H 0.79421 0.33103 0.43956 0.0
H1017 H 0.80339 0.38144 0.47318 0.0
C1018 C 0.78653 0.44703 0.45451 0.0
C1019 C 0.77639 0.4801 0.44166 0.0
C1020 C 0.77961 0.41819 0.43629 0.0
C1021 C 0.75803 0.48445 0.41106 0.0
C1022 C 0.75118 0.45576 0.39253 0.0
C1023 C 0.75773 0.39327 0.38511 0.0
C1024 C 0.76942 0.36 0.39727 0.0
C1025 C 0.7625 0.42244 0.40455 0.0
C1026 C 0.78522 0.35629 0.42951 0.0
C1027 C 0.79045 0.3851 0.44875 0.0
H1028 H 0.58992 0.91195 0.39714 0.0
H1029 H 0.60187 0.81016 0.43727 0.0
H1030 H 0.64578 0.78977 0.39959 0.0
H1031 H 0.67869 0.79951 0.35246 0.0
H1032 H 0.66531 0.9004 0.31006 0.0
H1033 H 0.62415 0.92222 0.35118 0.0
C1034 C 0.60205 0.88531 0.39762 0.0
C1035 C 0.59237 0.86283 0.4202 0.0
C1036 C 0.62709 0.87342 0.37531 0.0
C1037 C 0.60884 0.82841 0.42071 0.0
C1038 C 0.63394 0.81653 0.39889 0.0
C1039 C 0.6671 0.82639 0.35249 0.0
C1040 C 0.67508 0.84823 0.32814 0.0
C1041 C 0.64303 0.83868 0.3758 0.0
C1042 C 0.65963 0.88296 0.32847 0.0
C1043 C 0.63599 0.89547 0.35192 0.0
H1044 H 0.18832 0.65035 0.37964 0.0
H1045 H 0.17494 0.70921 0.47449 0.0
H1046 H 0.19416 0.75647 0.44901 0.0
H1047 H 0.21849 0.77896 0.4012 0.0
H1048 H 0.23512 0.71857 0.30721 0.0
H1049 H 0.21084 0.67402 0.33073 0.0
C1050 C 0.18889 0.67392 0.39432 0.0
C1051 C 0.17985 0.67669 0.4287 0.0
C1052 C 0.20097 0.70041 0.37979 0.0
C1053 C 0.18155 0.70686 0.4479 0.0
C1054 C 0.19268 0.73369 0.43339 0.0
C1055 C 0.21658 0.75621 0.3857 0.0
C1056 C 0.22876 0.75209 0.35252 0.0
C1057 C 0.20308 0.73045 0.39959 0.0
C1058 C 0.22614 0.72233 0.3329 0.0
C1059 C 0.2122 0.69685 0.34631 0.0
H1060 H 0.42816 0.2984 0.41444 0.0
H1061 H 0.37582 0.24496 0.47871 0.0
H1062 H 0.33171 0.2513 0.43636 0.0
H1063 H 0.30911 0.26841 0.37896 0.0
H1064 H 0.36288 0.31868 0.31291 0.0
H1065 H 0.40455 0.31736 0.35745 0.0
C1066 C 0.40672 0.28902 0.4195 0.0
C1067 C 0.40512 0.27179 0.45012 0.0
C1068 C 0.38162 0.29172 0.39425 0.0
C1069 C 0.37753 0.25876 0.45565 0.0
C1070 C 0.35232 0.26214 0.43125 0.0
C1071 C 0.32981 0.27931 0.37434 0.0
C1072 C 0.33252 0.29363 0.3423 0.0
C1073 C 0.35427 0.27796 0.40009 0.0
C1074 C 0.35984 0.30741 0.33708 0.0
C1075 C 0.38387 0.3067 0.36268 0.0
H1076 H 0.59417 0.83589 0.57013 0.0
H1077 H 0.53591 0.78972 0.6349 0.0
H1078 H 0.57721 0.78479 0.68052 0.0
H1079 H 0.62959 0.79408 0.70205 0.0
H1080 H 0.68747 0.8408 0.63726 0.0
H1081 H 0.64619 0.84564 0.59178 0.0
C1082 C 0.59061 0.82438 0.59407 0.0
C1083 C 0.56209 0.81289 0.59899 0.0
C1084 C 0.61414 0.82226 0.62037 0.0
C1085 C 0.5577 0.79857 0.63039 0.0
C1086 C 0.58123 0.79592 0.65654 0.0
C1087 C 0.63307 0.80567 0.67814 0.0
C1088 C 0.66158 0.81719 0.67315 0.0
C1089 C 0.60943 0.80794 0.6519 0.0
C1090 C 0.66575 0.83182 0.64184 0.0
C1091 C 0.64223 0.83443 0.61574 0.0
H1092 H 0.58713 0.28149 0.45728 0.0
H1093 H 0.5891 0.18573 0.40067 0.0
H1094 H 0.63236 0.19688 0.36677 0.0
H1095 H 0.66898 0.23517 0.35134 0.0
H1096 H 0.66388 0.33201 0.40669 0.0
H1097 H 0.62271 0.31908 0.44233 0.0
C1098 C 0.59658 0.26301 0.43743 0.0
C1099 C 0.58425 0.23276 0.43188 0.0
C1100 C 0.62123 0.26982 0.41746 0.0
C1101 C 0.59784 0.20914 0.40612 0.0
C1102 C 0.62269 0.21557 0.38643 0.0
C1103 C 0.65899 0.25326 0.37137 0.0
C1104 C 0.66959 0.28462 0.37611 0.0
C1105 C 0.63454 0.24596 0.39168 0.0
C1106 C 0.65613 0.30782 0.40212 0.0
C1107 C 0.63251 0.30046 0.42265 0.0
H1108 H 0.78475 0.64009 0.38882 0.0
H1109 H 0.87628 0.65832 0.42592 0.0
H1110 H 0.87185 0.70616 0.38741 0.0
H1111 H 0.84302 0.74169 0.34234 0.0
H1112 H 0.75306 0.72212 0.30168 0.0
H1113 H 0.7554 0.6764 0.34281 0.0
C1114 C 0.80355 0.65477 0.38859 0.0
C1115 C 0.83089 0.6456 0.41017 0.0
C1116 C 0.80102 0.68208 0.36589 0.0
C1117 C 0.85524 0.66456 0.4093 0.0
C1118 C 0.85263 0.69205 0.38742 0.0
C1119 C 0.82368 0.72774 0.34261 0.0
C1120 C 0.79768 0.73564 0.31909 0.0
C1121 C 0.82575 0.70089 0.36549 0.0
C1122 C 0.77315 0.71684 0.31966 0.0
C1123 C 0.77461 0.69056 0.34307 0.0
H1124 H 0.42564 0.84106 0.46079 0.0
H1125 H 0.48925 0.75544 0.41392 0.0
H1126 H 0.44542 0.74318 0.37638 0.0
H1127 H 0.3899 0.7585 0.35524 0.0
H1128 H 0.32755 0.8474 0.39823 0.0
H1129 H 0.37014 0.85686 0.43909 0.0
C1130 C 0.42981 0.81942 0.44266 0.0
C1131 C 0.46054 0.79888 0.44032 0.0
C1132 C 0.40483 0.81338 0.4204 0.0
C1133 C 0.46577 0.77145 0.41624 0.0
C1134 C 0.44076 0.76452 0.39478 0.0
C1135 C 0.38552 0.77977 0.37379 0.0
C1136 C 0.35557 0.8021 0.37397 0.0
C1137 C 0.41032 0.78555 0.39639 0.0
C1138 C 0.35042 0.8299 0.39766 0.0
C1139 C 0.37473 0.83526 0.42099 0.0
H1140 H 0.23171 0.54331 0.37241 0.0
H1141 H 0.2612 0.4728 0.45438 0.0
H1142 H 0.26715 0.4243 0.41313 0.0
H1143 H 0.26368 0.40193 0.35364 0.0
H1144 H 0.23297 0.47297 0.27227 0.0
H1145 H 0.22745 0.52111 0.31353 0.0
C1146 C 0.23978 0.51738 0.38128 0.0
C1147 C 0.24632 0.51177 0.41643 0.0
C1148 C 0.24255 0.48961 0.35755 0.0
C1149 C 0.25623 0.4779 0.42745 0.0
C1150 C 0.25948 0.45012 0.40389 0.0
C1151 C 0.25547 0.42791 0.34497 0.0
C1152 C 0.24865 0.43372 0.30984 0.0
C1153 C 0.25252 0.45565 0.36887 0.0
C1154 C 0.2383 0.46764 0.2991 0.0
C1155 C 0.23527 0.49526 0.32268 0.0
H1156 H 0.40748 0.27592 0.62564 0.0
H1157 H 0.41 0.16772 0.60689 0.0
H1158 H 0.36949 0.16889 0.64907 0.0
H1159 H 0.33314 0.20008 0.69184 0.0
H1160 H 0.32968 0.30829 0.71121 0.0
H1161 H 0.37017 0.30763 0.66848 0.0
C1162 C 0.39901 0.25266 0.63056 0.0
C1163 C 0.4123 0.22167 0.61298 0.0
C1164 C 0.37536 0.25344 0.65519 0.0
C1165 C 0.40093 0.19182 0.62018 0.0
C1166 C 0.37749 0.19248 0.64431 0.0
C1167 C 0.34119 0.22358 0.68679 0.0
C1168 C 0.32822 0.25417 0.70499 0.0
C1169 C 0.3646 0.22304 0.66213 0.0
C1170 C 0.33913 0.2843 0.69782 0.0
C1171 C 0.36235 0.28395 0.67327 0.0
H1172 H 0.86 0.4243 0.58388 0.0
H1173 H 0.7681 0.49039 0.59667 0.0
H1174 H 0.75078 0.44682 0.62948 0.0
H1175 H 0.76135 0.38978 0.65426 0.0
H1176 H 0.85332 0.32338 0.64223 0.0
H1177 H 0.87094 0.36715 0.60967 0.0
C1178 C 0.83634 0.42925 0.59417 0.0
C1179 C 0.81536 0.46052 0.5876 0.0
C1180 C 0.82643 0.40394 0.61309 0.0
C1181 C 0.78459 0.46638 0.60083 0.0
C1182 C 0.77467 0.44151 0.61975 0.0
C1183 C 0.78525 0.38481 0.6445 0.0
C1184 C 0.80591 0.35325 0.65068 0.0
C1185 C 0.7953 0.41011 0.62586 0.0
C1186 C 0.83684 0.3474 0.63787 0.0
C1187 C 0.84699 0.37245 0.61925 0.0
H1188 H 0.24014 0.66014 0.5469 0.0
H1189 H 0.2856 0.58625 0.62077 0.0
H1190 H 0.2933 0.63287 0.66074 0.0
H1191 H 0.2851 0.69453 0.67569 0.0
H1192 H 0.23919 0.76832 0.60196 0.0
H1193 H 0.23343 0.72173 0.56112 0.0
C1194 C 0.25213 0.65415 0.57155 0.0
C1195 C 0.26232 0.61965 0.58075 0.0
C1196 C 0.256 0.68108 0.59465 0.0
C1197 C 0.27756 0.61251 0.61296 0.0
C1198 C 0.28183 0.63918 0.63592 0.0
C1199 C 0.27375 0.70045 0.65072 0.0
C1200 C 0.26241 0.73491 0.64201 0.0
C1201 C 0.27071 0.67354 0.62725 0.0
C1202 C 0.24807 0.74207 0.6094 0.0
C1203 C 0.24482 0.71543 0.58598 0.0
loop_
_geom_bond_atom_site_label_1
_geom_bond_atom_site_label_2
_geom_bond_distance
_geom_bond_site_symmetry_2
_ccdc_geom_bond_type
Cu0 N1 1.999 . S
Cu0 O6 1.959 1_545 S
Cu0 N11 1.985 1_445 S
Cu0 O20 1.959 1_455 S
N1 Cu0 1.999 . S
N1 C3 1.263 . S
N1 C5 1.389 . S
N2 C3 1.358 . S
N2 C4 1.400 . S
C3 N1 1.263 . S
C3 N2 1.358 . S
C3 H9 0.930 . S
C4 N2 1.400 . S
C4 C5 1.351 . S
C4 H21 0.930 . S
C5 N1 1.389 . S
C5 C4 1.351 . S
C5 H10 0.930 . S
O6 Cu0 1.959 1_565 S
O6 C16 1.289 . S
C7 O8 1.261 . S
C7 O20 1.251 . S
O8 C7 1.261 . S
H9 C3 0.930 . S
H10 C5 0.930 . S
N11 Cu0 1.985 1_665 S
N11 C13 1.335 . S
N11 C14 1.390 . S
N12 C13 1.345 . S
N12 C15 1.336 . S
C13 N11 1.335 . S
C13 N12 1.345 . S
C13 H18 0.930 1_565 S
C14 N11 1.390 . S
C14 C15 1.346 . S
C14 H19 0.930 1_655 S
C15 N12 1.336 . S
C15 C14 1.346 . S
C15 H22 0.929 . S
C16 O6 1.289 . S
C16 O17 1.216 . S
O17 C16 1.216 . S
H18 C13 0.930 1_545 S
H19 C14 0.930 1_455 S
O20 Cu0 1.959 1_655 S
O20 C7 1.251 . S
H21 C4 0.930 . S
H22 C15 0.929 . S
Cu23 N24 1.999 1_445 S
Cu23 O29 1.974 1_455 S
Cu23 N34 1.985 . S
Cu23 O43 1.959 1_545 S
N24 Cu23 1.999 1_665 S
N24 C26 1.263 . S
N24 C28 1.389 . S
N25 C26 1.358 . S
N25 C27 1.400 . S
C26 N24 1.263 . S
C26 N25 1.358 . S
C26 H32 0.930 1_565 S
C27 N25 1.400 . S
C27 C28 1.351 . S
C27 H44 0.930 . S
C28 N24 1.389 . S
C28 C27 1.351 . S
C28 H33 0.930 1_655 S
O29 Cu23 1.974 1_655 S
O29 C39 1.282 . S
C30 O31 1.261 . S
C30 O43 1.251 . S
O31 C30 1.261 . S
H32 C26 0.930 1_545 S
H33 C28 0.930 1_455 S
N34 Cu23 1.985 . S
N34 C36 1.335 . S
N34 C37 1.390 . S
N35 C36 1.345 . S
N35 C38 1.336 . S
C36 N34 1.335 . S
C36 N35 1.345 . S
C36 H41 0.930 . S
C37 N34 1.390 . S
C37 C38 1.346 . S
C37 H42 0.930 . S
C38 N35 1.336 . S
C38 C37 1.346 . S
C38 H45 0.929 . S
C39 O29 1.282 . S
C39 O40 1.216 . S
O40 C39 1.216 . S
H41 C36 0.930 . S
H42 C37 0.930 . S
O43 Cu23 1.959 1_565 S
O43 C30 1.251 . S
H44 C27 0.930 . S
H45 C38 0.929 . S
Cu46 N47 1.999 1_544 S
Cu46 O52 1.974 1_545 S
Cu46 N57 1.985 . S
Cu46 O66 1.959 1_554 S
N47 Cu46 1.999 1_566 S
N47 C49 1.263 . S
N47 C51 1.389 . S
N48 C49 1.358 . S
N48 C50 1.400 . S
C49 N47 1.263 . S
C49 N48 1.358 . S
C49 H55 0.930 . S
C50 N48 1.400 . S
C50 C51 1.351 . S
C50 H67 0.930 . S
C51 N47 1.389 . S
C51 C50 1.351 . S
C51 H56 0.930 . S
O52 Cu46 1.974 1_565 S
O52 C62 1.282 . S
C53 O54 1.261 . S
C53 O66 1.251 . S
O54 C53 1.261 . S
H55 C49 0.930 . S
H56 C51 0.930 . S
N57 Cu46 1.985 . S
N57 C59 1.335 . S
N57 C60 1.390 . S
N58 C59 1.345 . S
N58 C61 1.336 . S
C59 N57 1.335 . S
C59 N58 1.345 . S
C59 H64 0.930 . S
C60 N57 1.390 . S
C60 C61 1.346 . S
C60 H65 0.930 . S
C61 N58 1.336 . S
C61 C60 1.346 . S
C61 H68 0.929 . S
C62 O52 1.282 . S
C62 O63 1.216 . S
O63 C62 1.216 . S
H64 C59 0.930 . S
H65 C60 0.930 . S
O66 Cu46 1.959 1_556 S
O66 C53 1.251 . S
H67 C50 0.930 . S
H68 C61 0.929 . S
Cu69 N70 1.999 1_554 S
Cu69 O75 1.974 . S
Cu69 N80 1.985 1_455 S
Cu69 O89 1.959 1_454 S
N70 Cu69 1.999 1_556 S
N70 C72 1.263 . S
N70 C74 1.389 . S
N71 C72 1.358 . S
N71 C73 1.400 . S
C72 N70 1.263 . S
C72 N71 1.358 . S
C72 H78 0.930 . S
C73 N71 1.400 . S
C73 C74 1.351 . S
C73 H90 0.930 . S
C74 N70 1.389 . S
C74 C73 1.351 . S
C74 H79 0.930 . S
O75 Cu69 1.974 . S
O75 C85 1.282 . S
C76 O77 1.261 . S
C76 O89 1.251 . S
O77 C76 1.261 . S
H78 C72 0.930 . S
H79 C74 0.930 . S
N80 Cu69 1.985 1_655 S
N80 C82 1.335 . S
N80 C83 1.390 . S
N81 C82 1.345 . S
N81 C84 1.336 . S
C82 N80 1.335 . S
C82 N81 1.345 . S
C82 H87 0.930 . S
C83 N80 1.390 . S
C83 C84 1.346 . S
C83 H88 0.930 1_655 S
C84 N81 1.336 . S
C84 C83 1.346 . S
C84 H91 0.929 . S
C85 O75 1.282 . S
C85 O86 1.216 . S
O86 C85 1.216 . S
H87 C82 0.930 . S
H88 C83 0.930 1_455 S
O89 Cu69 1.959 1_656 S
O89 C76 1.251 . S
H90 C73 0.930 . S
H91 C84 0.929 . S
Cu92 N93 1.999 1_554 S
Cu92 O98 1.974 . S
Cu92 N103 1.985 1_545 S
Cu92 O112 1.959 1_544 S
N93 Cu92 1.999 1_556 S
N93 C95 1.263 . S
N93 C97 1.389 . S
N94 C95 1.358 . S
N94 C96 1.400 . S
C95 N93 1.263 . S
C95 N94 1.358 . S
C95 H101 0.930 . S
C96 N94 1.400 . S
C96 C97 1.351 . S
C96 H113 0.930 . S
C97 N93 1.389 . S
C97 C96 1.351 . S
C97 H102 0.930 . S
O98 Cu92 1.974 . S
O98 C108 1.282 . S
C99 O100 1.261 . S
C99 O112 1.251 . S
O100 C99 1.261 . S
H101 C95 0.930 . S
H102 C97 0.930 . S
N103 Cu92 1.985 1_565 S
N103 C105 1.335 . S
N103 C106 1.390 1_565 S
N104 C105 1.345 . S
N104 C107 1.336 . S
C105 N103 1.335 . S
C105 N104 1.345 . S
C105 H110 0.930 . S
C106 N103 1.390 1_545 S
C106 C107 1.346 1_545 S
C106 H111 0.930 . S
C107 N104 1.336 . S
C107 C106 1.346 1_565 S
C107 H114 0.929 . S
C108 O98 1.282 . S
C108 O109 1.216 . S
O109 C108 1.216 . S
H110 C105 0.930 . S
H111 C106 0.930 . S
O112 Cu92 1.959 1_566 S
O112 C99 1.251 . S
H113 C96 0.930 . S
H114 C107 0.929 . S
Cu115 N116 1.999 1_454 S
Cu115 O121 1.974 1_455 S
Cu115 N126 1.985 . S
Cu115 O135 1.959 1_554 S
N116 Cu115 1.999 1_656 S
N116 C118 1.263 . S
N116 C120 1.389 . S
N117 C118 1.358 . S
N117 C119 1.400 . S
C118 N116 1.263 . S
C118 N117 1.358 . S
C118 H124 0.930 . S
C119 N117 1.400 . S
C119 C120 1.351 . S
C119 H136 0.930 . S
C120 N116 1.389 . S
C120 C119 1.351 . S
C120 H125 0.930 1_655 S
O121 Cu115 1.974 1_655 S
O121 C131 1.282 . S
C122 O123 1.261 . S
C122 O135 1.251 . S
O123 C122 1.261 . S
H124 C118 0.930 . S
H125 C120 0.930 1_455 S
N126 Cu115 1.985 . S
N126 C128 1.335 . S
N126 C129 1.390 . S
N127 C128 1.345 . S
N127 C130 1.336 . S
C128 N126 1.335 . S
C128 N127 1.345 . S
C128 H133 0.930 . S
C129 N126 1.390 . S
C129 C130 1.346 . S
C129 H134 0.930 . S
C130 N127 1.336 . S
C130 C129 1.346 . S
C130 H137 0.929 . S
C131 O121 1.282 . S
C131 O132 1.216 . S
O132 C131 1.216 . S
H133 C128 0.930 . S
H134 C129 0.930 . S
O135 Cu115 1.959 1_556 S
O135 C122 1.251 . S
H136 C119 0.930 . S
H137 C130 0.929 . S
Cu138 N139 1.999 . S
Cu138 O144 1.974 . S
Cu138 N149 1.985 . S
Cu138 O158 1.959 . S
N139 Cu138 1.999 . S
N139 C141 1.263 . S
N139 C143 1.389 . S
N140 C141 1.358 . S
N140 C142 1.400 . S
C141 N139 1.263 . S
C141 N140 1.358 . S
C141 H147 0.930 . S
C142 N140 1.400 . S
C142 C143 1.351 . S
C142 H159 0.930 . S
C143 N139 1.389 . S
C143 C142 1.351 . S
C143 H148 0.930 . S
O144 Cu138 1.974 . S
O144 C154 1.282 . S
C145 O146 1.261 . S
C145 O158 1.251 . S
O146 C145 1.261 . S
H147 C141 0.930 . S
H148 C143 0.930 . S
N149 Cu138 1.985 . S
N149 C151 1.335 . S
N149 C152 1.390 . S
N150 C151 1.345 . S
N150 C153 1.336 . S
C151 N149 1.335 . S
C151 N150 1.345 . S
C151 H156 0.930 . S
C152 N149 1.390 . S
C152 C153 1.346 . S
C152 H157 0.930 . S
C153 N150 1.336 . S
C153 C152 1.346 . S
C153 H160 0.929 . S
C154 O144 1.282 . S
C154 O155 1.216 . S
O155 C154 1.216 . S
H156 C151 0.930 . S
H157 C152 0.930 . S
O158 Cu138 1.959 . S
O158 C145 1.251 . S
H159 C142 0.930 . S
H160 C153 0.929 . S
Cu161 N162 1.999 . S
Cu161 O167 1.974 . S
Cu161 N172 1.985 . S
Cu161 O181 1.959 . S
N162 Cu161 1.999 . S
N162 C164 1.263 . S
N162 C166 1.389 . S
N163 C164 1.358 . S
N163 C165 1.400 . S
C164 N162 1.263 . S
C164 N163 1.358 . S
C164 H170 0.930 . S
C165 N163 1.400 . S
C165 C166 1.351 . S
C165 H182 0.930 . S
C166 N162 1.389 . S
C166 C165 1.351 . S
C166 H171 0.930 . S
O167 Cu161 1.974 . S
O167 C177 1.282 . S
C168 O169 1.261 . S
C168 O181 1.251 . S
O169 C168 1.261 . S
H170 C164 0.930 . S
H171 C166 0.930 . S
N172 Cu161 1.985 . S
N172 C174 1.335 . S
N172 C175 1.390 . S
N173 C174 1.345 . S
N173 C176 1.336 . S
C174 N172 1.335 . S
C174 N173 1.345 . S
C174 H179 0.930 . S
C175 N172 1.390 . S
C175 C176 1.346 . S
C175 H180 0.930 . S
C176 N173 1.336 . S
C176 C175 1.346 . S
C176 H183 0.929 . S
C177 O167 1.282 . S
C177 O178 1.216 . S
O178 C177 1.216 . S
H179 C174 0.930 . S
H180 C175 0.930 . S
O181 Cu161 1.959 . S
O181 C168 1.251 . S
H182 C165 0.930 . S
H183 C176 0.929 . S
Cu184 N185 1.999 . S
Cu184 O190 1.974 . S
Cu184 N195 1.985 . S
Cu184 O204 1.959 . S
N185 Cu184 1.999 . S
N185 C187 1.263 . S
N185 C189 1.389 . S
N186 C187 1.358 . S
N186 C188 1.400 . S
C187 N185 1.263 . S
C187 N186 1.358 . S
C187 H193 0.930 . S
C188 N186 1.400 . S
C188 C189 1.351 . S
C188 H205 0.930 . S
C189 N185 1.389 . S
C189 C188 1.351 . S
C189 H194 0.930 . S
O190 Cu184 1.974 . S
O190 C200 1.282 . S
C191 O192 1.261 . S
C191 O204 1.251 . S
O192 C191 1.261 . S
H193 C187 0.930 . S
H194 C189 0.930 . S
N195 Cu184 1.985 . S
N195 C197 1.335 . S
N195 C198 1.390 . S
N196 C197 1.345 . S
N196 C199 1.336 . S
C197 N195 1.335 . S
C197 N196 1.345 . S
C197 H202 0.930 . S
C198 N195 1.390 . S
C198 C199 1.346 . S
C198 H203 0.930 . S
C199 N196 1.336 . S
C199 C198 1.346 . S
C199 H206 0.929 . S
C200 O190 1.282 . S
C200 O201 1.216 . S
O201 C200 1.216 . S
H202 C197 0.930 . S
H203 C198 0.930 . S
O204 Cu184 1.959 . S
O204 C191 1.251 . S
H205 C188 0.930 . S
H206 C199 0.929 . S
Cu207 N208 1.999 . S
Cu207 O213 1.974 . S
Cu207 N218 1.985 . S
Cu207 O227 1.959 . S
N208 Cu207 1.999 . S
N208 C210 1.263 . S
N208 C212 1.389 . S
N209 C210 1.358 . S
N209 C211 1.400 . S
C210 N208 1.263 . S
C210 N209 1.358 . S
C210 H216 0.930 . S
C211 N209 1.400 . S
C211 C212 1.351 . S
C211 H228 0.930 . S
C212 N208 1.389 . S
C212 C211 1.351 . S
C212 H217 0.930 . S
O213 Cu207 1.974 . S
O213 C223 1.282 . S
C214 O215 1.261 . S
C214 O227 1.251 . S
O215 C214 1.261 . S
H216 C210 0.930 . S
H217 C212 0.930 . S
N218 Cu207 1.985 . S
N218 C220 1.335 . S
N218 C221 1.390 . S
N219 C220 1.345 . S
N219 C222 1.336 . S
C220 N218 1.335 . S
C220 N219 1.345 . S
C220 H225 0.930 . S
C221 N218 1.390 . S
C221 C222 1.346 . S
C221 H226 0.930 . S
C222 N219 1.336 . S
C222 C221 1.346 . S
C222 H229 0.929 . S
C223 O213 1.282 . S
C223 O224 1.216 . S
O224 C223 1.216 . S
H225 C220 0.930 . S
H226 C221 0.930 . S
O227 Cu207 1.959 . S
O227 C214 1.251 . S
H228 C211 0.930 . S
H229 C222 0.929 . S
Cu230 N231 1.999 . S
Cu230 O236 1.974 . S
Cu230 N241 1.985 . S
Cu230 O250 1.959 . S
N231 Cu230 1.999 . S
N231 C233 1.263 . S
N231 C235 1.389 . S
N232 C233 1.358 . S
N232 C234 1.400 . S
C233 N231 1.263 . S
C233 N232 1.358 . S
C233 H239 0.930 . S
C234 N232 1.400 . S
C234 C235 1.351 . S
C234 H251 0.930 . S
C235 N231 1.389 . S
C235 C234 1.351 . S
C235 H240 0.930 . S
O236 Cu230 1.974 . S
O236 C246 1.282 . S
C237 O238 1.261 . S
C237 O250 1.251 . S
O238 C237 1.261 . S
H239 C233 0.930 . S
H240 C235 0.930 . S
N241 Cu230 1.985 . S
N241 C243 1.335 . S
N241 C244 1.390 . S
N242 C243 1.345 . S
N242 C245 1.336 . S
C243 N241 1.335 . S
C243 N242 1.345 . S
C243 H248 0.930 . S
C244 N241 1.390 . S
C244 C245 1.346 . S
C244 H249 0.930 . S
C245 N242 1.336 . S
C245 C244 1.346 . S
C245 H252 0.929 . S
C246 O236 1.282 . S
C246 O247 1.216 . S
O247 C246 1.216 . S
H248 C243 0.930 . S
H249 C244 0.930 . S
O250 Cu230 1.959 . S
O250 C237 1.251 . S
H251 C234 0.930 . S
H252 C245 0.929 . S
Cu253 N254 1.999 . S
Cu253 O259 1.974 . S
Cu253 N264 1.985 . S
Cu253 O273 1.959 . S
N254 Cu253 1.999 . S
N254 C256 1.263 . S
N254 C258 1.389 . S
N255 C256 1.358 . S
N255 C257 1.400 . S
C256 N254 1.263 . S
C256 N255 1.358 . S
C256 H262 0.930 . S
C257 N255 1.400 . S
C257 C258 1.351 . S
C257 H274 0.930 . S
C258 N254 1.389 . S
C258 C257 1.351 . S
C258 H263 0.930 . S
O259 Cu253 1.974 . S
O259 C269 1.282 . S
C260 O261 1.261 . S
C260 O273 1.251 . S
O261 C260 1.261 . S
H262 C256 0.930 . S
H263 C258 0.930 . S
N264 Cu253 1.985 . S
N264 C266 1.335 . S
N264 C267 1.390 . S
N265 C266 1.345 . S
N265 C268 1.336 . S
C266 N264 1.335 . S
C266 N265 1.345 . S
C266 H271 0.930 . S
C267 N264 1.390 . S
C267 C268 1.346 . S
C267 H272 0.930 . S
C268 N265 1.336 . S
C268 C267 1.346 . S
C268 H275 0.929 . S
C269 O259 1.282 . S
C269 O270 1.216 . S
O270 C269 1.216 . S
H271 C266 0.930 . S
H272 C267 0.930 . S
O273 Cu253 1.959 . S
O273 C260 1.251 . S
H274 C257 0.930 . S
H275 C268 0.929 . S
Zn276 O282 1.969 . S
Zn276 O283 1.965 . S
Zn276 O287 2.024 . S
Zn276 O292 1.969 . S
Zn277 O284 1.969 . S
Zn277 O290 1.969 . S
Zn277 O291 1.965 . S
Zn277 O293 2.024 . S
C278 O279 1.229 . S
C278 O287 1.058 . S
O279 C278 1.229 . S
C280 O281 1.229 . S
C280 O293 1.058 . S
O281 C280 1.229 . S
O282 Zn276 1.969 . S
O282 C285 1.267 . S
O283 Zn276 1.965 . S
O283 C294 1.260 . S
O284 Zn277 1.969 . S
O284 C294 1.258 . S
C285 O282 1.267 . S
C285 O286 1.228 . S
O286 C285 1.228 . S
O287 Zn276 2.024 . S
O287 C278 1.058 . S
C288 O289 1.228 . S
C288 O290 1.267 . S
O289 C288 1.228 . S
O290 Zn277 1.969 . S
O290 C288 1.267 . S
O291 Zn277 1.965 . S
O291 C295 1.260 . S
O292 Zn276 1.969 . S
O292 C295 1.258 . S
O293 Zn277 2.024 . S
O293 C280 1.058 . S
C294 O283 1.260 . S
C294 O284 1.258 . S
C295 O291 1.260 . S
C295 O292 1.258 . S
Zn296 O302 1.969 . S
Zn296 O303 1.965 . S
Zn296 O307 2.024 . S
Zn296 O312 1.969 . S
Zn297 O304 1.969 . S
Zn297 O310 1.969 . S
Zn297 O311 1.965 . S
Zn297 O313 2.024 . S
C298 O299 1.229 . S
C298 O307 1.058 . S
O299 C298 1.229 . S
C300 O301 1.229 . S
C300 O313 1.058 . S
O301 C300 1.229 . S
O302 Zn296 1.969 . S
O302 C305 1.267 . S
O303 Zn296 1.965 . S
O303 C314 1.260 . S
O304 Zn297 1.969 . S
O304 C314 1.258 . S
C305 O302 1.267 . S
C305 O306 1.228 . S
O306 C305 1.228 . S
O307 Zn296 2.024 . S
O307 C298 1.058 . S
C308 O309 1.228 . S
C308 O310 1.267 . S
O309 C308 1.228 . S
O310 Zn297 1.969 . S
O310 C308 1.267 . S
O311 Zn297 1.965 . S
O311 C315 1.260 . S
O312 Zn296 1.969 . S
O312 C315 1.258 . S
O313 Zn297 2.024 . S
O313 C300 1.058 . S
C314 O303 1.260 . S
C314 O304 1.258 . S
C315 O311 1.260 . S
C315 O312 1.258 . S
Zn316 O322 1.969 . S
Zn316 O323 1.965 . S
Zn316 O327 2.024 . S
Zn316 O332 1.969 . S
Zn317 O324 1.969 . S
Zn317 O330 1.969 . S
Zn317 O331 1.965 . S
Zn317 O333 2.024 . S
C318 O319 1.229 . S
C318 O327 1.058 . S
O319 C318 1.229 . S
C320 O321 1.229 . S
C320 O333 1.058 . S
O321 C320 1.229 . S
O322 Zn316 1.969 . S
O322 C325 1.267 . S
O323 Zn316 1.965 . S
O323 C334 1.260 . S
O324 Zn317 1.969 . S
O324 C334 1.258 . S
C325 O322 1.267 . S
C325 O326 1.228 . S
O326 C325 1.228 . S
O327 Zn316 2.024 . S
O327 C318 1.058 . S
C328 O329 1.228 . S
C328 O330 1.267 . S
O329 C328 1.228 . S
O330 Zn317 1.969 . S
O330 C328 1.267 . S
O331 Zn317 1.965 . S
O331 C335 1.260 . S
O332 Zn316 1.969 . S
O332 C335 1.258 . S
O333 Zn317 2.024 . S
O333 C320 1.058 . S
C334 O323 1.260 . S
C334 O324 1.258 . S
C335 O331 1.260 . S
C335 O332 1.258 . S
Zn336 O342 1.969 . S
Zn336 O343 1.965 . S
Zn336 O347 2.024 . S
Zn336 O352 1.969 . S
Zn337 O344 1.969 . S
Zn337 O350 1.969 . S
Zn337 O351 1.965 . S
Zn337 O353 2.024 . S
C338 O339 1.229 . S
C338 O347 1.058 . S
O339 C338 1.229 . S
C340 O341 1.229 . S
C340 O353 1.058 . S
O341 C340 1.229 . S
O342 Zn336 1.969 . S
O342 C345 1.267 . S
O343 Zn336 1.965 . S
O343 C354 1.260 . S
O344 Zn337 1.969 . S
O344 C354 1.258 . S
C345 O342 1.267 . S
C345 O346 1.228 . S
O346 C345 1.228 . S
O347 Zn336 2.024 . S
O347 C338 1.058 . S
C348 O349 1.228 . S
C348 O350 1.267 . S
O349 C348 1.228 . S
O350 Zn337 1.969 . S
O350 C348 1.267 . S
O351 Zn337 1.965 . S
O351 C355 1.260 . S
O352 Zn336 1.969 . S
O352 C355 1.258 . S
O353 Zn337 2.024 . S
O353 C340 1.058 . S
C354 O343 1.260 . S
C354 O344 1.258 . S
C355 O351 1.260 . S
C355 O352 1.258 . S
Zn356 O362 1.969 . S
Zn356 O363 1.965 . S
Zn356 O367 2.024 . S
Zn356 O372 1.969 . S
Zn357 O364 1.969 . S
Zn357 O370 1.969 . S
Zn357 O371 1.965 . S
Zn357 O373 2.024 . S
C358 O359 1.229 . S
C358 O367 1.058 . S
O359 C358 1.229 . S
C360 O361 1.229 . S
C360 O373 1.058 . S
O361 C360 1.229 . S
O362 Zn356 1.969 . S
O362 C365 1.267 . S
O363 Zn356 1.965 . S
O363 C374 1.260 . S
O364 Zn357 1.969 . S
O364 C374 1.258 . S
C365 O362 1.267 . S
C365 O366 1.228 . S
O366 C365 1.228 . S
O367 Zn356 2.024 . S
O367 C358 1.058 . S
C368 O369 1.228 . S
C368 O370 1.267 . S
O369 C368 1.228 . S
O370 Zn357 1.969 . S
O370 C368 1.267 . S
O371 Zn357 1.965 . S
O371 C375 1.260 . S
O372 Zn356 1.969 . S
O372 C375 1.258 . S
O373 Zn357 2.024 . S
O373 C360 1.058 . S
C374 O363 1.260 . S
C374 O364 1.258 . S
C375 O371 1.260 . S
C375 O372 1.258 . S
Zn376 O382 1.969 . S
Zn376 O383 1.965 . S
Zn376 O387 2.024 . S
Zn376 O392 1.969 . S
Zn377 O384 1.969 . S
Zn377 O390 1.969 . S
Zn377 O391 1.965 . S
Zn377 O393 2.024 . S
C378 O379 1.229 . S
C378 O387 1.058 . S
O379 C378 1.229 . S
C380 O381 1.229 . S
C380 O393 1.058 . S
O381 C380 1.229 . S
O382 Zn376 1.969 . S
O382 C385 1.267 . S
O383 Zn376 1.965 . S
O383 C394 1.260 . S
O384 Zn377 1.969 . S
O384 C394 1.258 . S
C385 O382 1.267 . S
C385 O386 1.228 . S
O386 C385 1.228 . S
O387 Zn376 2.024 . S
O387 C378 1.058 . S
C388 O389 1.228 . S
C388 O390 1.267 . S
O389 C388 1.228 . S
O390 Zn377 1.969 . S
O390 C388 1.267 . S
O391 Zn377 1.965 . S
O391 C395 1.260 . S
O392 Zn376 1.969 . S
O392 C395 1.258 . S
O393 Zn377 2.024 . S
O393 C380 1.058 . S
C394 O383 1.260 . S
C394 O384 1.258 . S
C395 O391 1.260 . S
C395 O392 1.258 . S
Zn396 O402 1.969 . S
Zn396 O403 1.965 . S
Zn396 O407 2.024 . S
Zn396 O412 1.969 . S
Zn397 O404 1.969 . S
Zn397 O410 1.969 . S
Zn397 O411 1.965 . S
Zn397 O413 2.024 . S
C398 O399 1.229 . S
C398 O407 1.058 . S
O399 C398 1.229 . S
C400 O401 1.229 . S
C400 O413 1.058 . S
O401 C400 1.229 . S
O402 Zn396 1.969 . S
O402 C405 1.267 . S
O403 Zn396 1.965 . S
O403 C414 1.260 . S
O404 Zn397 1.969 . S
O404 C414 1.258 . S
C405 O402 1.267 . S
C405 O406 1.228 . S
O406 C405 1.228 . S
O407 Zn396 2.024 . S
O407 C398 1.058 . S
C408 O409 1.228 . S
C408 O410 1.267 . S
O409 C408 1.228 . S
O410 Zn397 1.969 . S
O410 C408 1.267 . S
O411 Zn397 1.965 . S
O411 C415 1.260 . S
O412 Zn396 1.969 . S
O412 C415 1.258 . S
O413 Zn397 2.024 . S
O413 C400 1.058 . S
C414 O403 1.260 . S
C414 O404 1.258 . S
C415 O411 1.260 . S
C415 O412 1.258 . S
Zn416 O422 1.969 . S
Zn416 O423 1.965 . S
Zn416 O427 2.024 . S
Zn416 O432 1.969 . S
Zn417 O424 1.969 . S
Zn417 O430 1.969 . S
Zn417 O431 1.965 . S
Zn417 O433 2.024 . S
C418 O419 1.229 . S
C418 O427 1.058 . S
O419 C418 1.229 . S
C420 O421 1.229 . S
C420 O433 1.058 . S
O421 C420 1.229 . S
O422 Zn416 1.969 . S
O422 C425 1.267 . S
O423 Zn416 1.965 . S
O423 C434 1.260 . S
O424 Zn417 1.969 . S
O424 C434 1.258 . S
C425 O422 1.267 . S
C425 O426 1.228 . S
O426 C425 1.228 . S
O427 Zn416 2.024 . S
O427 C418 1.058 . S
C428 O429 1.228 . S
C428 O430 1.267 . S
O429 C428 1.228 . S
O430 Zn417 1.969 . S
O430 C428 1.267 . S
O431 Zn417 1.965 . S
O431 C435 1.260 . S
O432 Zn416 1.969 . S
O432 C435 1.258 . S
O433 Zn417 2.024 . S
O433 C420 1.058 . S
C434 O423 1.260 . S
C434 O424 1.258 . S
C435 O431 1.260 . S
C435 O432 1.258 . S
H436 C442 0.930 . S
H437 C445 0.930 . S
H438 C446 0.930 . S
H439 C447 0.930 . S
H440 C450 0.930 . S
H441 C451 0.930 . S
C442 H436 0.930 . S
C442 C443 1.355 . S
C442 C444 1.415 . S
C443 C442 1.355 . S
C443 C445 1.419 . S
C444 C442 1.415 . S
C444 C449 1.425 . S
C444 C451 1.409 . S
C445 H437 0.930 . S
C445 C443 1.419 . S
C445 C446 1.362 . S
C446 H438 0.930 . S
C446 C445 1.362 . S
C446 C449 1.409 . S
C447 H439 0.930 . S
C447 C448 1.355 . S
C447 C449 1.415 . S
C448 C447 1.355 . S
C448 C450 1.419 . S
C449 C444 1.425 . S
C449 C446 1.409 . S
C449 C447 1.415 . S
C450 H440 0.930 . S
C450 C448 1.419 . S
C450 C451 1.362 . S
C451 H441 0.930 . S
C451 C444 1.409 . S
C451 C450 1.362 . S
H452 C458 0.930 . S
H453 C461 0.930 . S
H454 C462 0.930 . S
H455 C463 0.930 . S
H456 C466 0.930 . S
H457 C467 0.930 . S
C458 H452 0.930 . S
C458 C459 1.355 . S
C458 C460 1.415 . S
C459 C458 1.355 . S
C459 C461 1.419 . S
C460 C458 1.415 . S
C460 C465 1.425 . S
C460 C467 1.409 . S
C461 H453 0.930 . S
C461 C459 1.419 . S
C461 C462 1.362 . S
C462 H454 0.930 . S
C462 C461 1.362 . S
C462 C465 1.409 . S
C463 H455 0.930 . S
C463 C464 1.355 . S
C463 C465 1.415 . S
C464 C463 1.355 . S
C464 C466 1.419 . S
C465 C460 1.425 . S
C465 C462 1.409 . S
C465 C463 1.415 . S
C466 H456 0.930 . S
C466 C464 1.419 . S
C466 C467 1.362 . S
C467 H457 0.930 . S
C467 C460 1.409 . S
C467 C466 1.362 . S
H468 C474 0.930 . S
H469 C477 0.930 . S
H470 C478 0.930 . S
H471 C479 0.930 . S
H472 C482 0.930 . S
H473 C483 0.930 . S
C474 H468 0.930 . S
C474 C475 1.355 . S
C474 C476 1.415 . S
C475 C474 1.355 . S
C475 C477 1.419 . S
C476 C474 1.415 . S
C476 C481 1.425 . S
C476 C483 1.409 . S
C477 H469 0.930 . S
C477 C475 1.419 . S
C477 C478 1.362 . S
C478 H470 0.930 . S
C478 C477 1.362 . S
C478 C481 1.409 . S
C479 H471 0.930 . S
C479 C480 1.355 . S
C479 C481 1.415 . S
C480 C479 1.355 . S
C480 C482 1.419 . S
C481 C476 1.425 . S
C481 C478 1.409 . S
C481 C479 1.415 . S
C482 H472 0.930 . S
C482 C480 1.419 . S
C482 C483 1.362 . S
C483 H473 0.930 . S
C483 C476 1.409 . S
C483 C482 1.362 . S
H484 C490 0.930 . S
H485 C493 0.930 . S
H486 C494 0.930 . S
H487 C495 0.930 . S
H488 C498 0.930 . S
H489 C499 0.930 . S
C490 H484 0.930 . S
C490 C491 1.355 . S
C490 C492 1.415 . S
C491 C490 1.355 . S
C491 C493 1.419 . S
C492 C490 1.415 . S
C492 C497 1.425 . S
C492 C499 1.409 . S
C493 H485 0.930 . S
C493 C491 1.419 . S
C493 C494 1.362 . S
C494 H486 0.930 . S
C494 C493 1.362 . S
C494 C497 1.409 . S
C495 H487 0.930 . S
C495 C496 1.355 . S
C495 C497 1.415 . S
C496 C495 1.355 . S
C496 C498 1.419 . S
C497 C492 1.425 . S
C497 C494 1.409 . S
C497 C495 1.415 . S
C498 H488 0.930 . S
C498 C496 1.419 . S
C498 C499 1.362 . S
C499 H489 0.930 . S
C499 C492 1.409 . S
C499 C498 1.362 . S
H500 C506 0.930 . S
H501 C509 0.930 . S
H502 C510 0.930 . S
H503 C511 0.930 . S
H504 C514 0.930 . S
H505 C515 0.930 . S
C506 H500 0.930 . S
C506 C507 1.355 . S
C506 C508 1.415 . S
C507 C506 1.355 . S
C507 C509 1.419 . S
C508 C506 1.415 . S
C508 C513 1.425 . S
C508 C515 1.409 . S
C509 H501 0.930 . S
C509 C507 1.419 . S
C509 C510 1.362 . S
C510 H502 0.930 . S
C510 C509 1.362 . S
C510 C513 1.409 . S
C511 H503 0.930 . S
C511 C512 1.355 . S
C511 C513 1.415 . S
C512 C511 1.355 . S
C512 C514 1.419 . S
C513 C508 1.425 . S
C513 C510 1.409 . S
C513 C511 1.415 . S
C514 H504 0.930 . S
C514 C512 1.419 . S
C514 C515 1.362 . S
C515 H505 0.930 . S
C515 C508 1.409 . S
C515 C514 1.362 . S
H516 C522 0.930 . S
H517 C525 0.930 . S
H518 C526 0.930 . S
H519 C527 0.930 . S
H520 C530 0.930 . S
H521 C531 0.930 . S
C522 H516 0.930 . S
C522 C523 1.355 . S
C522 C524 1.415 . S
C523 C522 1.355 . S
C523 C525 1.419 . S
C524 C522 1.415 . S
C524 C529 1.425 . S
C524 C531 1.409 . S
C525 H517 0.930 . S
C525 C523 1.419 . S
C525 C526 1.362 . S
C526 H518 0.930 . S
C526 C525 1.362 . S
C526 C529 1.409 . S
C527 H519 0.930 . S
C527 C528 1.355 . S
C527 C529 1.415 . S
C528 C527 1.355 . S
C528 C530 1.419 . S
C529 C524 1.425 . S
C529 C526 1.409 . S
C529 C527 1.415 . S
C530 H520 0.930 . S
C530 C528 1.419 . S
C530 C531 1.362 . S
C531 H521 0.930 . S
C531 C524 1.409 . S
C531 C530 1.362 . S
H532 C538 0.930 . S
H533 C541 0.930 . S
H534 C542 0.930 . S
H535 C543 0.930 . S
H536 C546 0.930 . S
H537 C547 0.930 . S
C538 H532 0.930 . S
C538 C539 1.355 . S
C538 C540 1.415 . S
C539 C538 1.355 . S
C539 C541 1.419 . S
C540 C538 1.415 . S
C540 C545 1.425 . S
C540 C547 1.409 . S
C541 H533 0.930 . S
C541 C539 1.419 . S
C541 C542 1.362 . S
C542 H534 0.930 . S
C542 C541 1.362 . S
C542 C545 1.409 . S
C543 H535 0.930 . S
C543 C544 1.355 . S
C543 C545 1.415 . S
C544 C543 1.355 . S
C544 C546 1.419 . S
C545 C540 1.425 . S
C545 C542 1.409 . S
C545 C543 1.415 . S
C546 H536 0.930 . S
C546 C544 1.419 . S
C546 C547 1.362 . S
C547 H537 0.930 . S
C547 C540 1.409 . S
C547 C546 1.362 . S
H548 C554 0.930 . S
H549 C557 0.930 . S
H550 C558 0.930 . S
H551 C559 0.930 . S
H552 C562 0.930 . S
H553 C563 0.930 . S
C554 H548 0.930 . S
C554 C555 1.355 . S
C554 C556 1.415 . S
C555 C554 1.355 . S
C555 C557 1.419 . S
C556 C554 1.415 . S
C556 C561 1.425 . S
C556 C563 1.409 . S
C557 H549 0.930 . S
C557 C555 1.419 . S
C557 C558 1.362 . S
C558 H550 0.930 . S
C558 C557 1.362 . S
C558 C561 1.409 . S
C559 H551 0.930 . S
C559 C560 1.355 . S
C559 C561 1.415 . S
C560 C559 1.355 . S
C560 C562 1.419 . S
C561 C556 1.425 . S
C561 C558 1.409 . S
C561 C559 1.415 . S
C562 H552 0.930 . S
C562 C560 1.419 . S
C562 C563 1.362 . S
C563 H553 0.930 . S
C563 C556 1.409 . S
C563 C562 1.362 . S
H564 C570 0.930 . S
H565 C573 0.930 . S
H566 C574 0.930 . S
H567 C575 0.930 . S
H568 C578 0.930 . S
H569 C579 0.930 . S
C570 H564 0.930 . S
C570 C571 1.355 . S
C570 C572 1.415 . S
C571 C570 1.355 . S
C571 C573 1.419 . S
C572 C570 1.415 . S
C572 C577 1.425 . S
C572 C579 1.409 . S
C573 H565 0.930 . S
C573 C571 1.419 . S
C573 C574 1.362 . S
C574 H566 0.930 . S
C574 C573 1.362 . S
C574 C577 1.409 . S
C575 H567 0.930 . S
C575 C576 1.355 . S
C575 C577 1.415 . S
C576 C575 1.355 . S
C576 C578 1.419 . S
C577 C572 1.425 . S
C577 C574 1.409 . S
C577 C575 1.415 . S
C578 H568 0.930 . S
C578 C576 1.419 . S
C578 C579 1.362 . S
C579 H569 0.930 . S
C579 C572 1.409 . S
C579 C578 1.362 . S
H580 C586 0.930 . S
H581 C589 0.930 . S
H582 C590 0.930 . S
H583 C591 0.930 . S
H584 C594 0.930 . S
H585 C595 0.930 . S
C586 H580 0.930 . S
C586 C587 1.355 . S
C586 C588 1.415 . S
C587 C586 1.355 . S
C587 C589 1.419 . S
C588 C586 1.415 . S
C588 C593 1.425 . S
C588 C595 1.409 . S
C589 H581 0.930 . S
C589 C587 1.419 . S
C589 C590 1.362 . S
C590 H582 0.930 . S
C590 C589 1.362 . S
C590 C593 1.409 . S
C591 H583 0.930 . S
C591 C592 1.355 . S
C591 C593 1.415 . S
C592 C591 1.355 . S
C592 C594 1.419 . S
C593 C588 1.425 . S
C593 C590 1.409 . S
C593 C591 1.415 . S
C594 H584 0.930 . S
C594 C592 1.419 . S
C594 C595 1.362 . S
C595 H585 0.930 . S
C595 C588 1.409 . S
C595 C594 1.362 . S
H596 C602 0.930 . S
H597 C605 0.930 . S
H598 C606 0.930 . S
H599 C607 0.930 . S
H600 C610 0.930 . S
H601 C611 0.930 . S
C602 H596 0.930 . S
C602 C603 1.355 . S
C602 C604 1.415 . S
C603 C602 1.355 . S
C603 C605 1.419 . S
C604 C602 1.415 . S
C604 C609 1.425 . S
C604 C611 1.409 . S
C605 H597 0.930 . S
C605 C603 1.419 . S
C605 C606 1.362 . S
C606 H598 0.930 . S
C606 C605 1.362 . S
C606 C609 1.409 . S
C607 H599 0.930 . S
C607 C608 1.355 . S
C607 C609 1.415 . S
C608 C607 1.355 . S
C608 C610 1.419 . S
C609 C604 1.425 . S
C609 C606 1.409 . S
C609 C607 1.415 . S
C610 H600 0.930 . S
C610 C608 1.419 . S
C610 C611 1.362 . S
C611 H601 0.930 . S
C611 C604 1.409 . S
C611 C610 1.362 . S
H612 C618 0.930 . S
H613 C621 0.930 . S
H614 C622 0.930 . S
H615 C623 0.930 . S
H616 C626 0.930 . S
H617 C627 0.930 . S
C618 H612 0.930 . S
C618 C619 1.355 . S
C618 C620 1.415 . S
C619 C618 1.355 . S
C619 C621 1.419 . S
C620 C618 1.415 . S
C620 C625 1.425 . S
C620 C627 1.409 . S
C621 H613 0.930 . S
C621 C619 1.419 . S
C621 C622 1.362 . S
C622 H614 0.930 . S
C622 C621 1.362 . S
C622 C625 1.409 . S
C623 H615 0.930 . S
C623 C624 1.355 . S
C623 C625 1.415 . S
C624 C623 1.355 . S
C624 C626 1.419 . S
C625 C620 1.425 . S
C625 C622 1.409 . S
C625 C623 1.415 . S
C626 H616 0.930 . S
C626 C624 1.419 . S
C626 C627 1.362 . S
C627 H617 0.930 . S
C627 C620 1.409 . S
C627 C626 1.362 . S
H628 C634 0.930 . S
H629 C637 0.930 . S
H630 C638 0.930 . S
H631 C639 0.930 . S
H632 C642 0.930 . S
H633 C643 0.930 . S
C634 H628 0.930 . S
C634 C635 1.355 . S
C634 C636 1.415 . S
C635 C634 1.355 . S
C635 C637 1.419 . S
C636 C634 1.415 . S
C636 C641 1.425 . S
C636 C643 1.409 . S
C637 H629 0.930 . S
C637 C635 1.419 . S
C637 C638 1.362 . S
C638 H630 0.930 . S
C638 C637 1.362 . S
C638 C641 1.409 . S
C639 H631 0.930 . S
C639 C640 1.355 . S
C639 C641 1.415 . S
C640 C639 1.355 . S
C640 C642 1.419 . S
C641 C636 1.425 . S
C641 C638 1.409 . S
C641 C639 1.415 . S
C642 H632 0.930 . S
C642 C640 1.419 . S
C642 C643 1.362 . S
C643 H633 0.930 . S
C643 C636 1.409 . S
C643 C642 1.362 . S
H644 C650 0.930 . S
H645 C653 0.930 . S
H646 C654 0.930 . S
H647 C655 0.930 . S
H648 C658 0.930 . S
H649 C659 0.930 . S
C650 H644 0.930 . S
C650 C651 1.355 . S
C650 C652 1.415 . S
C651 C650 1.355 . S
C651 C653 1.419 . S
C652 C650 1.415 . S
C652 C657 1.425 . S
C652 C659 1.409 . S
C653 H645 0.930 . S
C653 C651 1.419 . S
C653 C654 1.362 . S
C654 H646 0.930 . S
C654 C653 1.362 . S
C654 C657 1.409 . S
C655 H647 0.930 . S
C655 C656 1.355 . S
C655 C657 1.415 . S
C656 C655 1.355 . S
C656 C658 1.419 . S
C657 C652 1.425 . S
C657 C654 1.409 . S
C657 C655 1.415 . S
C658 H648 0.930 . S
C658 C656 1.419 . S
C658 C659 1.362 . S
C659 H649 0.930 . S
C659 C652 1.409 . S
C659 C658 1.362 . S
H660 C666 0.930 . S
H661 C669 0.930 . S
H662 C670 0.930 . S
H663 C671 0.930 . S
H664 C674 0.930 . S
H665 C675 0.930 . S
C666 H660 0.930 . S
C666 C667 1.355 . S
C666 C668 1.415 . S
C667 C666 1.355 . S
C667 C669 1.419 . S
C668 C666 1.415 . S
C668 C673 1.425 . S
C668 C675 1.409 . S
C669 H661 0.930 . S
C669 C667 1.419 . S
C669 C670 1.362 . S
C670 H662 0.930 . S
C670 C669 1.362 . S
C670 C673 1.409 . S
C671 H663 0.930 . S
C671 C672 1.355 . S
C671 C673 1.415 . S
C672 C671 1.355 . S
C672 C674 1.419 . S
C673 C668 1.425 . S
C673 C670 1.409 . S
C673 C671 1.415 . S
C674 H664 0.930 . S
C674 C672 1.419 . S
C674 C675 1.362 . S
C675 H665 0.930 . S
C675 C668 1.409 . S
C675 C674 1.362 . S
H676 C682 0.930 . S
H677 C685 0.930 . S
H678 C686 0.930 . S
H679 C687 0.930 . S
H680 C690 0.930 . S
H681 C691 0.930 . S
C682 H676 0.930 . S
C682 C683 1.355 . S
C682 C684 1.415 . S
C683 C682 1.355 . S
C683 C685 1.419 . S
C684 C682 1.415 . S
C684 C689 1.425 . S
C684 C691 1.409 . S
C685 H677 0.930 . S
C685 C683 1.419 . S
C685 C686 1.362 . S
C686 H678 0.930 . S
C686 C685 1.362 . S
C686 C689 1.409 . S
C687 H679 0.930 . S
C687 C688 1.355 . S
C687 C689 1.415 . S
C688 C687 1.355 . S
C688 C690 1.419 . S
C689 C684 1.425 . S
C689 C686 1.409 . S
C689 C687 1.415 . S
C690 H680 0.930 . S
C690 C688 1.419 . S
C690 C691 1.362 . S
C691 H681 0.930 . S
C691 C684 1.409 . S
C691 C690 1.362 . S
H692 C698 0.930 . S
H693 C701 0.930 . S
H694 C702 0.930 . S
H695 C703 0.930 . S
H696 C706 0.930 . S
H697 C707 0.930 . S
C698 H692 0.930 . S
C698 C699 1.355 . S
C698 C700 1.415 . S
C699 C698 1.355 . S
C699 C701 1.419 . S
C700 C698 1.415 . S
C700 C705 1.425 . S
C700 C707 1.409 . S
C701 H693 0.930 . S
C701 C699 1.419 . S
C701 C702 1.362 . S
C702 H694 0.930 . S
C702 C701 1.362 . S
C702 C705 1.409 . S
C703 H695 0.930 . S
C703 C704 1.355 . S
C703 C705 1.415 . S
C704 C703 1.355 . S
C704 C706 1.419 . S
C705 C700 1.425 . S
C705 C702 1.409 . S
C705 C703 1.415 . S
C706 H696 0.930 . S
C706 C704 1.419 . S
C706 C707 1.362 . S
C707 H697 0.930 . S
C707 C700 1.409 . S
C707 C706 1.362 . S
H708 C714 0.930 . S
H709 C717 0.930 . S
H710 C718 0.930 . S
H711 C719 0.930 . S
H712 C722 0.930 . S
H713 C723 0.930 . S
C714 H708 0.930 . S
C714 C715 1.355 . S
C714 C716 1.415 . S
C715 C714 1.355 . S
C715 C717 1.419 . S
C716 C714 1.415 . S
C716 C721 1.425 . S
C716 C723 1.409 . S
C717 H709 0.930 . S
C717 C715 1.419 . S
C717 C718 1.362 . S
C718 H710 0.930 . S
C718 C717 1.362 . S
C718 C721 1.409 . S
C719 H711 0.930 . S
C719 C720 1.355 . S
C719 C721 1.415 . S
C720 C719 1.355 . S
C720 C722 1.419 . S
C721 C716 1.425 . S
C721 C718 1.409 . S
C721 C719 1.415 . S
C722 H712 0.930 . S
C722 C720 1.419 . S
C722 C723 1.362 . S
C723 H713 0.930 . S
C723 C716 1.409 . S
C723 C722 1.362 . S
H724 C730 0.930 . S
H725 C733 0.930 . S
H726 C734 0.930 . S
H727 C735 0.930 . S
H728 C738 0.930 . S
H729 C739 0.930 . S
C730 H724 0.930 . S
C730 C731 1.355 . S
C730 C732 1.415 . S
C731 C730 1.355 . S
C731 C733 1.419 . S
C732 C730 1.415 . S
C732 C737 1.425 . S
C732 C739 1.409 . S
C733 H725 0.930 . S
C733 C731 1.419 . S
C733 C734 1.362 . S
C734 H726 0.930 . S
C734 C733 1.362 . S
C734 C737 1.409 . S
C735 H727 0.930 . S
C735 C736 1.355 . S
C735 C737 1.415 . S
C736 C735 1.355 . S
C736 C738 1.419 . S
C737 C732 1.425 . S
C737 C734 1.409 . S
C737 C735 1.415 . S
C738 H728 0.930 . S
C738 C736 1.419 . S
C738 C739 1.362 . S
C739 H729 0.930 . S
C739 C732 1.409 . S
C739 C738 1.362 . S
H740 C746 0.930 . S
H741 C749 0.930 . S
H742 C750 0.930 . S
H743 C751 0.930 . S
H744 C754 0.930 . S
H745 C755 0.930 . S
C746 H740 0.930 . S
C746 C747 1.355 . S
C746 C748 1.415 . S
C747 C746 1.355 . S
C747 C749 1.419 . S
C748 C746 1.415 . S
C748 C753 1.425 . S
C748 C755 1.409 . S
C749 H741 0.930 . S
C749 C747 1.419 . S
C749 C750 1.362 . S
C750 H742 0.930 . S
C750 C749 1.362 . S
C750 C753 1.409 . S
C751 H743 0.930 . S
C751 C752 1.355 . S
C751 C753 1.415 . S
C752 C751 1.355 . S
C752 C754 1.419 . S
C753 C748 1.425 . S
C753 C750 1.409 . S
C753 C751 1.415 . S
C754 H744 0.930 . S
C754 C752 1.419 . S
C754 C755 1.362 . S
C755 H745 0.930 . S
C755 C748 1.409 . S
C755 C754 1.362 . S
H756 C762 0.930 . S
H757 C765 0.930 . S
H758 C766 0.930 . S
H759 C767 0.930 . S
H760 C770 0.930 . S
H761 C771 0.930 . S
C762 H756 0.930 . S
C762 C763 1.355 . S
C762 C764 1.415 . S
C763 C762 1.355 . S
C763 C765 1.419 . S
C764 C762 1.415 . S
C764 C769 1.425 . S
C764 C771 1.409 . S
C765 H757 0.930 . S
C765 C763 1.419 . S
C765 C766 1.362 . S
C766 H758 0.930 . S
C766 C765 1.362 . S
C766 C769 1.409 . S
C767 H759 0.930 . S
C767 C768 1.355 . S
C767 C769 1.415 . S
C768 C767 1.355 . S
C768 C770 1.419 . S
C769 C764 1.425 . S
C769 C766 1.409 . S
C769 C767 1.415 . S
C770 H760 0.930 . S
C770 C768 1.419 . S
C770 C771 1.362 . S
C771 H761 0.930 . S
C771 C764 1.409 . S
C771 C770 1.362 . S
H772 C778 0.930 . S
H773 C781 0.930 . S
H774 C782 0.930 . S
H775 C783 0.930 . S
H776 C786 0.930 . S
H777 C787 0.930 . S
C778 H772 0.930 . S
C778 C779 1.355 . S
C778 C780 1.415 . S
C779 C778 1.355 . S
C779 C781 1.419 . S
C780 C778 1.415 . S
C780 C785 1.425 . S
C780 C787 1.409 . S
C781 H773 0.930 . S
C781 C779 1.419 . S
C781 C782 1.362 . S
C782 H774 0.930 . S
C782 C781 1.362 . S
C782 C785 1.409 . S
C783 H775 0.930 . S
C783 C784 1.355 . S
C783 C785 1.415 . S
C784 C783 1.355 . S
C784 C786 1.419 . S
C785 C780 1.425 . S
C785 C782 1.409 . S
C785 C783 1.415 . S
C786 H776 0.930 . S
C786 C784 1.419 . S
C786 C787 1.362 . S
C787 H777 0.930 . S
C787 C780 1.409 . S
C787 C786 1.362 . S
H788 C794 0.930 . S
H789 C797 0.930 . S
H790 C798 0.930 . S
H791 C799 0.930 . S
H792 C802 0.930 . S
H793 C803 0.930 . S
C794 H788 0.930 . S
C794 C795 1.355 . S
C794 C796 1.415 . S
C795 C794 1.355 . S
C795 C797 1.419 . S
C796 C794 1.415 . S
C796 C801 1.425 . S
C796 C803 1.409 . S
C797 H789 0.930 . S
C797 C795 1.419 . S
C797 C798 1.362 . S
C798 H790 0.930 . S
C798 C797 1.362 . S
C798 C801 1.409 . S
C799 H791 0.930 . S
C799 C800 1.355 . S
C799 C801 1.415 . S
C800 C799 1.355 . S
C800 C802 1.419 . S
C801 C796 1.425 . S
C801 C798 1.409 . S
C801 C799 1.415 . S
C802 H792 0.930 . S
C802 C800 1.419 . S
C802 C803 1.362 . S
C803 H793 0.930 . S
C803 C796 1.409 . S
C803 C802 1.362 . S
H804 C810 0.930 . S
H805 C813 0.930 . S
H806 C814 0.930 . S
H807 C815 0.930 . S
H808 C818 0.930 . S
H809 C819 0.930 . S
C810 H804 0.930 . S
C810 C811 1.355 . S
C810 C812 1.415 . S
C811 C810 1.355 . S
C811 C813 1.419 . S
C812 C810 1.415 . S
C812 C817 1.425 . S
C812 C819 1.409 . S
C813 H805 0.930 . S
C813 C811 1.419 . S
C813 C814 1.362 . S
C814 H806 0.930 . S
C814 C813 1.362 . S
C814 C817 1.409 . S
C815 H807 0.930 . S
C815 C816 1.355 . S
C815 C817 1.415 . S
C816 C815 1.355 . S
C816 C818 1.419 . S
C817 C812 1.425 . S
C817 C814 1.409 . S
C817 C815 1.415 . S
C818 H808 0.930 . S
C818 C816 1.419 . S
C818 C819 1.362 . S
C819 H809 0.930 . S
C819 C812 1.409 . S
C819 C818 1.362 . S
H820 C826 0.930 . S
H821 C829 0.930 . S
H822 C830 0.930 . S
H823 C831 0.930 . S
H824 C834 0.930 . S
H825 C835 0.930 . S
C826 H820 0.930 . S
C826 C827 1.355 . S
C826 C828 1.415 . S
C827 C826 1.355 . S
C827 C829 1.419 . S
C828 C826 1.415 . S
C828 C833 1.425 . S
C828 C835 1.409 . S
C829 H821 0.930 . S
C829 C827 1.419 . S
C829 C830 1.362 . S
C830 H822 0.930 . S
C830 C829 1.362 . S
C830 C833 1.409 . S
C831 H823 0.930 . S
C831 C832 1.355 . S
C831 C833 1.415 . S
C832 C831 1.355 . S
C832 C834 1.419 . S
C833 C828 1.425 . S
C833 C830 1.409 . S
C833 C831 1.415 . S
C834 H824 0.930 . S
C834 C832 1.419 . S
C834 C835 1.362 . S
C835 H825 0.930 . S
C835 C828 1.409 . S
C835 C834 1.362 . S
H836 C842 0.930 . S
H837 C845 0.930 . S
H838 C846 0.930 . S
H839 C847 0.930 . S
H840 C850 0.930 . S
H841 C851 0.930 . S
C842 H836 0.930 . S
C842 C843 1.355 . S
C842 C844 1.415 . S
C843 C842 1.355 . S
C843 C845 1.419 . S
C844 C842 1.415 . S
C844 C849 1.425 . S
C844 C851 1.409 . S
C845 H837 0.930 . S
C845 C843 1.419 . S
C845 C846 1.362 . S
C846 H838 0.930 . S
C846 C845 1.362 . S
C846 C849 1.409 . S
C847 H839 0.930 . S
C847 C848 1.355 . S
C847 C849 1.415 . S
C848 C847 1.355 . S
C848 C850 1.419 . S
C849 C844 1.425 . S
C849 C846 1.409 . S
C849 C847 1.415 . S
C850 H840 0.930 . S
C850 C848 1.419 . S
C850 C851 1.362 . S
C851 H841 0.930 . S
C851 C844 1.409 . S
C851 C850 1.362 . S
H852 C858 0.930 . S
H853 C861 0.930 . S
H854 C862 0.930 . S
H855 C863 0.930 . S
H856 C866 0.930 . S
H857 C867 0.930 . S
C858 H852 0.930 . S
C858 C859 1.355 . S
C858 C860 1.415 . S
C859 C858 1.355 . S
C859 C861 1.419 . S
C860 C858 1.415 . S
C860 C865 1.425 . S
C860 C867 1.409 . S
C861 H853 0.930 . S
C861 C859 1.419 . S
C861 C862 1.362 . S
C862 H854 0.930 . S
C862 C861 1.362 . S
C862 C865 1.409 . S
C863 H855 0.930 . S
C863 C864 1.355 . S
C863 C865 1.415 . S
C864 C863 1.355 . S
C864 C866 1.419 . S
C865 C860 1.425 . S
C865 C862 1.409 . S
C865 C863 1.415 . S
C866 H856 0.930 . S
C866 C864 1.419 . S
C866 C867 1.362 . S
C867 H857 0.930 . S
C867 C860 1.409 . S
C867 C866 1.362 . S
H868 C874 0.930 . S
H869 C877 0.930 . S
H870 C878 0.930 . S
H871 C879 0.930 . S
H872 C882 0.930 . S
H873 C883 0.930 . S
C874 H868 0.930 . S
C874 C875 1.355 . S
C874 C876 1.415 . S
C875 C874 1.355 . S
C875 C877 1.419 . S
C876 C874 1.415 . S
C876 C881 1.425 . S
C876 C883 1.409 . S
C877 H869 0.930 . S
C877 C875 1.419 . S
C877 C878 1.362 . S
C878 H870 0.930 . S
C878 C877 1.362 . S
C878 C881 1.409 . S
C879 H871 0.930 . S
C879 C880 1.355 . S
C879 C881 1.415 . S
C880 C879 1.355 . S
C880 C882 1.419 . S
C881 C876 1.425 . S
C881 C878 1.409 . S
C881 C879 1.415 . S
C882 H872 0.930 . S
C882 C880 1.419 . S
C882 C883 1.362 . S
C883 H873 0.930 . S
C883 C876 1.409 . S
C883 C882 1.362 . S
H884 C890 0.930 . S
H885 C893 0.930 . S
H886 C894 0.930 . S
H887 C895 0.930 . S
H888 C898 0.930 . S
H889 C899 0.930 . S
C890 H884 0.930 . S
C890 C891 1.355 . S
C890 C892 1.415 . S
C891 C890 1.355 . S
C891 C893 1.419 . S
C892 C890 1.415 . S
C892 C897 1.425 . S
C892 C899 1.409 . S
C893 H885 0.930 . S
C893 C891 1.419 . S
C893 C894 1.362 . S
C894 H886 0.930 . S
C894 C893 1.362 . S
C894 C897 1.409 . S
C895 H887 0.930 . S
C895 C896 1.355 . S
C895 C897 1.415 . S
C896 C895 1.355 . S
C896 C898 1.419 . S
C897 C892 1.425 . S
C897 C894 1.409 . S
C897 C895 1.415 . S
C898 H888 0.930 . S
C898 C896 1.419 . S
C898 C899 1.362 . S
C899 H889 0.930 . S
C899 C892 1.409 . S
C899 C898 1.362 . S
H900 C906 0.930 . S
H901 C909 0.930 . S
H902 C910 0.930 . S
H903 C911 0.930 . S
H904 C914 0.930 . S
H905 C915 0.930 . S
C906 H900 0.930 . S
C906 C907 1.355 . S
C906 C908 1.415 . S
C907 C906 1.355 . S
C907 C909 1.419 . S
C908 C906 1.415 . S
C908 C913 1.425 . S
C908 C915 1.409 . S
C909 H901 0.930 . S
C909 C907 1.419 . S
C909 C910 1.362 . S
C910 H902 0.930 . S
C910 C909 1.362 . S
C910 C913 1.409 . S
C911 H903 0.930 . S
C911 C912 1.355 . S
C911 C913 1.415 . S
C912 C911 1.355 . S
C912 C914 1.419 . S
C913 C908 1.425 . S
C913 C910 1.409 . S
C913 C911 1.415 . S
C914 H904 0.930 . S
C914 C912 1.419 . S
C914 C915 1.362 . S
C915 H905 0.930 . S
C915 C908 1.409 . S
C915 C914 1.362 . S
H916 C922 0.930 . S
H917 C925 0.930 . S
H918 C926 0.930 . S
H919 C927 0.930 . S
H920 C930 0.930 . S
H921 C931 0.930 . S
C922 H916 0.930 . S
C922 C923 1.355 . S
C922 C924 1.415 . S
C923 C922 1.355 . S
C923 C925 1.419 . S
C924 C922 1.415 . S
C924 C929 1.425 . S
C924 C931 1.409 . S
C925 H917 0.930 . S
C925 C923 1.419 . S
C925 C926 1.362 . S
C926 H918 0.930 . S
C926 C925 1.362 . S
C926 C929 1.409 . S
C927 H919 0.930 . S
C927 C928 1.355 . S
C927 C929 1.415 . S
C928 C927 1.355 . S
C928 C930 1.419 . S
C929 C924 1.425 . S
C929 C926 1.409 . S
C929 C927 1.415 . S
C930 H920 0.930 . S
C930 C928 1.419 . S
C930 C931 1.362 . S
C931 H921 0.930 . S
C931 C924 1.409 . S
C931 C930 1.362 . S
H932 C938 0.930 . S
H933 C941 0.930 . S
H934 C942 0.930 . S
H935 C943 0.930 . S
H936 C946 0.930 . S
H937 C947 0.930 . S
C938 H932 0.930 . S
C938 C939 1.355 . S
C938 C940 1.415 . S
C939 C938 1.355 . S
C939 C941 1.419 . S
C940 C938 1.415 . S
C940 C945 1.425 . S
C940 C947 1.409 . S
C941 H933 0.930 . S
C941 C939 1.419 . S
C941 C942 1.362 . S
C942 H934 0.930 . S
C942 C941 1.362 . S
C942 C945 1.409 . S
C943 H935 0.930 . S
C943 C944 1.355 . S
C943 C945 1.415 . S
C944 C943 1.355 . S
C944 C946 1.419 . S
C945 C940 1.425 . S
C945 C942 1.409 . S
C945 C943 1.415 . S
C946 H936 0.930 . S
C946 C944 1.419 . S
C946 C947 1.362 . S
C947 H937 0.930 . S
C947 C940 1.409 . S
C947 C946 1.362 . S
H948 C954 0.930 . S
H949 C957 0.930 . S
H950 C958 0.930 . S
H951 C959 0.930 . S
H952 C962 0.930 . S
H953 C963 0.930 . S
C954 H948 0.930 . S
C954 C955 1.355 . S
C954 C956 1.415 . S
C955 C954 1.355 . S
C955 C957 1.419 . S
C956 C954 1.415 . S
C956 C961 1.425 . S
C956 C963 1.409 . S
C957 H949 0.930 . S
C957 C955 1.419 . S
C957 C958 1.362 . S
C958 H950 0.930 . S
C958 C957 1.362 . S
C958 C961 1.409 . S
C959 H951 0.930 . S
C959 C960 1.355 . S
C959 C961 1.415 . S
C960 C959 1.355 . S
C960 C962 1.419 . S
C961 C956 1.425 . S
C961 C958 1.409 . S
C961 C959 1.415 . S
C962 H952 0.930 . S
C962 C960 1.419 . S
C962 C963 1.362 . S
C963 H953 0.930 . S
C963 C956 1.409 . S
C963 C962 1.362 . S
H964 C970 0.930 . S
H965 C973 0.930 . S
H966 C974 0.930 . S
H967 C975 0.930 . S
H968 C978 0.930 . S
H969 C979 0.930 . S
C970 H964 0.930 . S
C970 C971 1.355 . S
C970 C972 1.415 . S
C971 C970 1.355 . S
C971 C973 1.419 . S
C972 C970 1.415 . S
C972 C977 1.425 . S
C972 C979 1.409 . S
C973 H965 0.930 . S
C973 C971 1.419 . S
C973 C974 1.362 . S
C974 H966 0.930 . S
C974 C973 1.362 . S
C974 C977 1.409 . S
C975 H967 0.930 . S
C975 C976 1.355 . S
C975 C977 1.415 . S
C976 C975 1.355 . S
C976 C978 1.419 . S
C977 C972 1.425 . S
C977 C974 1.409 . S
C977 C975 1.415 . S
C978 H968 0.930 . S
C978 C976 1.419 . S
C978 C979 1.362 . S
C979 H969 0.930 . S
C979 C972 1.409 . S
C979 C978 1.362 . S
H980 C986 0.930 . S
H981 C989 0.930 . S
H982 C990 0.930 . S
H983 C991 0.930 . S
H984 C994 0.930 . S
H985 C995 0.930 . S
C986 H980 0.930 . S
C986 C987 1.355 . S
C986 C988 1.415 . S
C987 C986 1.355 . S
C987 C989 1.419 . S
C988 C986 1.415 . S
C988 C993 1.425 . S
C988 C995 1.409 . S
C989 H981 0.930 . S
C989 C987 1.419 . S
C989 C990 1.362 . S
C990 H982 0.930 . S
C990 C989 1.362 . S
C990 C993 1.409 . S
C991 H983 0.930 . S
C991 C992 1.355 . S
C991 C993 1.415 . S
C992 C991 1.355 . S
C992 C994 1.419 . S
C993 C988 1.425 . S
C993 C990 1.409 . S
C993 C991 1.415 . S
C994 H984 0.930 . S
C994 C992 1.419 . S
C994 C995 1.362 . S
C995 H985 0.930 . S
C995 C988 1.409 . S
C995 C994 1.362 . S
H996 C1002 0.930 . S
H997 C1005 0.930 . S
H998 C1006 0.930 . S
H999 C1007 0.930 . S
H1000 C1010 0.930 . S
H1001 C1011 0.930 . S
C1002 H996 0.930 . S
C1002 C1003 1.355 . S
C1002 C1004 1.415 . S
C1003 C1002 1.355 . S
C1003 C1005 1.419 . S
C1004 C1002 1.415 . S
C1004 C1009 1.425 . S
C1004 C1011 1.409 . S
C1005 H997 0.930 . S
C1005 C1003 1.419 . S
C1005 C1006 1.362 . S
C1006 H998 0.930 . S
C1006 C1005 1.362 . S
C1006 C1009 1.409 . S
C1007 H999 0.930 . S
C1007 C1008 1.355 . S
C1007 C1009 1.415 . S
C1008 C1007 1.355 . S
C1008 C1010 1.419 . S
C1009 C1004 1.425 . S
C1009 C1006 1.409 . S
C1009 C1007 1.415 . S
C1010 H1000 0.930 . S
C1010 C1008 1.419 . S
C1010 C1011 1.362 . S
C1011 H1001 0.930 . S
C1011 C1004 1.409 . S
C1011 C1010 1.362 . S
H1012 C1018 0.930 . S
H1013 C1021 0.930 . S
H1014 C1022 0.930 . S
H1015 C1023 0.930 . S
H1016 C1026 0.930 . S
H1017 C1027 0.930 . S
C1018 H1012 0.930 . S
C1018 C1019 1.355 . S
C1018 C1020 1.415 . S
C1019 C1018 1.355 . S
C1019 C1021 1.419 . S
C1020 C1018 1.415 . S
C1020 C1025 1.425 . S
C1020 C1027 1.409 . S
C1021 H1013 0.930 . S
C1021 C1019 1.419 . S
C1021 C1022 1.362 . S
C1022 H1014 0.930 . S
C1022 C1021 1.362 . S
C1022 C1025 1.409 . S
C1023 H1015 0.930 . S
C1023 C1024 1.355 . S
C1023 C1025 1.415 . S
C1024 C1023 1.355 . S
C1024 C1026 1.419 . S
C1025 C1020 1.425 . S
C1025 C1022 1.409 . S
C1025 C1023 1.415 . S
C1026 H1016 0.930 . S
C1026 C1024 1.419 . S
C1026 C1027 1.362 . S
C1027 H1017 0.930 . S
C1027 C1020 1.409 . S
C1027 C1026 1.362 . S
H1028 C1034 0.930 . S
H1029 C1037 0.930 . S
H1030 C1038 0.930 . S
H1031 C1039 0.930 . S
H1032 C1042 0.930 . S
H1033 C1043 0.930 . S
C1034 H1028 0.930 . S
C1034 C1035 1.355 . S
C1034 C1036 1.415 . S
C1035 C1034 1.355 . S
C1035 C1037 1.419 . S
C1036 C1034 1.415 . S
C1036 C1041 1.425 . S
C1036 C1043 1.409 . S
C1037 H1029 0.930 . S
C1037 C1035 1.419 . S
C1037 C1038 1.362 . S
C1038 H1030 0.930 . S
C1038 C1037 1.362 . S
C1038 C1041 1.409 . S
C1039 H1031 0.930 . S
C1039 C1040 1.355 . S
C1039 C1041 1.415 . S
C1040 C1039 1.355 . S
C1040 C1042 1.419 . S
C1041 C1036 1.425 . S
C1041 C1038 1.409 . S
C1041 C1039 1.415 . S
C1042 H1032 0.930 . S
C1042 C1040 1.419 . S
C1042 C1043 1.362 . S
C1043 H1033 0.930 . S
C1043 C1036 1.409 . S
C1043 C1042 1.362 . S
H1044 C1050 0.930 . S
H1045 C1053 0.930 . S
H1046 C1054 0.930 . S
H1047 C1055 0.930 . S
H1048 C1058 0.930 . S
H1049 C1059 0.930 . S
C1050 H1044 0.930 . S
C1050 C1051 1.355 . S
C1050 C1052 1.415 . S
C1051 C1050 1.355 . S
C1051 C1053 1.419 . S
C1052 C1050 1.415 . S
C1052 C1057 1.425 . S
C1052 C1059 1.409 . S
C1053 H1045 0.930 . S
C1053 C1051 1.419 . S
C1053 C1054 1.362 . S
C1054 H1046 0.930 . S
C1054 C1053 1.362 . S
C1054 C1057 1.409 . S
C1055 H1047 0.930 . S
C1055 C1056 1.355 . S
C1055 C1057 1.415 . S
C1056 C1055 1.355 . S
C1056 C1058 1.419 . S
C1057 C1052 1.425 . S
C1057 C1054 1.409 . S
C1057 C1055 1.415 . S
C1058 H1048 0.930 . S
C1058 C1056 1.419 . S
C1058 C1059 1.362 . S
C1059 H1049 0.930 . S
C1059 C1052 1.409 . S
C1059 C1058 1.362 . S
H1060 C1066 0.930 . S
H1061 C1069 0.930 . S
H1062 C1070 0.930 . S
H1063 C1071 0.930 . S
H1064 C1074 0.930 . S
H1065 C1075 0.930 . S
C1066 H1060 0.930 . S
C1066 C1067 1.355 . S
C1066 C1068 1.415 . S
C1067 C1066 1.355 . S
C1067 C1069 1.419 . S
C1068 C1066 1.415 . S
C1068 C1073 1.425 . S
C1068 C1075 1.409 . S
C1069 H1061 0.930 . S
C1069 C1067 1.419 . S
C1069 C1070 1.362 . S
C1070 H1062 0.930 . S
C1070 C1069 1.362 . S
C1070 C1073 1.409 . S
C1071 H1063 0.930 . S
C1071 C1072 1.355 . S
C1071 C1073 1.415 . S
C1072 C1071 1.355 . S
C1072 C1074 1.419 . S
C1073 C1068 1.425 . S
C1073 C1070 1.409 . S
C1073 C1071 1.415 . S
C1074 H1064 0.930 . S
C1074 C1072 1.419 . S
C1074 C1075 1.362 . S
C1075 H1065 0.930 . S
C1075 C1068 1.409 . S
C1075 C1074 1.362 . S
H1076 C1082 0.930 . S
H1077 C1085 0.930 . S
H1078 C1086 0.930 . S
H1079 C1087 0.930 . S
H1080 C1090 0.930 . S
H1081 C1091 0.930 . S
C1082 H1076 0.930 . S
C1082 C1083 1.355 . S
C1082 C1084 1.415 . S
C1083 C1082 1.355 . S
C1083 C1085 1.419 . S
C1084 C1082 1.415 . S
C1084 C1089 1.425 . S
C1084 C1091 1.409 . S
C1085 H1077 0.930 . S
C1085 C1083 1.419 . S
C1085 C1086 1.362 . S
C1086 H1078 0.930 . S
C1086 C1085 1.362 . S
C1086 C1089 1.409 . S
C1087 H1079 0.930 . S
C1087 C1088 1.355 . S
C1087 C1089 1.415 . S
C1088 C1087 1.355 . S
C1088 C1090 1.419 . S
C1089 C1084 1.425 . S
C1089 C1086 1.409 . S
C1089 C1087 1.415 . S
C1090 H1080 0.930 . S
C1090 C1088 1.419 . S
C1090 C1091 1.362 . S
C1091 H1081 0.930 . S
C1091 C1084 1.409 . S
C1091 C1090 1.362 . S
H1092 C1098 0.930 . S
H1093 C1101 0.930 . S
H1094 C1102 0.930 . S
H1095 C1103 0.930 . S
H1096 C1106 0.930 . S
H1097 C1107 0.930 . S
C1098 H1092 0.930 . S
C1098 C1099 1.355 . S
C1098 C1100 1.415 . S
C1099 C1098 1.355 . S
C1099 C1101 1.419 . S
C1100 C1098 1.415 . S
C1100 C1105 1.425 . S
C1100 C1107 1.409 . S
C1101 H1093 0.930 . S
C1101 C1099 1.419 . S
C1101 C1102 1.362 . S
C1102 H1094 0.930 . S
C1102 C1101 1.362 . S
C1102 C1105 1.409 . S
C1103 H1095 0.930 . S
C1103 C1104 1.355 . S
C1103 C1105 1.415 . S
C1104 C1103 1.355 . S
C1104 C1106 1.419 . S
C1105 C1100 1.425 . S
C1105 C1102 1.409 . S
C1105 C1103 1.415 . S
C1106 H1096 0.930 . S
C1106 C1104 1.419 . S
C1106 C1107 1.362 . S
C1107 H1097 0.930 . S
C1107 C1100 1.409 . S
C1107 C1106 1.362 . S
H1108 C1114 0.930 . S
H1109 C1117 0.930 . S
H1110 C1118 0.930 . S
H1111 C1119 0.930 . S
H1112 C1122 0.930 . S
H1113 C1123 0.930 . S
C1114 H1108 0.930 . S
C1114 C1115 1.355 . S
C1114 C1116 1.415 . S
C1115 C1114 1.355 . S
C1115 C1117 1.419 . S
C1116 C1114 1.415 . S
C1116 C1121 1.425 . S
C1116 C1123 1.409 . S
C1117 H1109 0.930 . S
C1117 C1115 1.419 . S
C1117 C1118 1.362 . S
C1118 H1110 0.930 . S
C1118 C1117 1.362 . S
C1118 C1121 1.409 . S
C1119 H1111 0.930 . S
C1119 C1120 1.355 . S
C1119 C1121 1.415 . S
C1120 C1119 1.355 . S
C1120 C1122 1.419 . S
C1121 C1116 1.425 . S
C1121 C1118 1.409 . S
C1121 C1119 1.415 . S
C1122 H1112 0.930 . S
C1122 C1120 1.419 . S
C1122 C1123 1.362 . S
C1123 H1113 0.930 . S
C1123 C1116 1.409 . S
C1123 C1122 1.362 . S
H1124 C1130 0.930 . S
H1125 C1133 0.930 . S
H1126 C1134 0.930 . S
H1127 C1135 0.930 . S
H1128 C1138 0.930 . S
H1129 C1139 0.930 . S
C1130 H1124 0.930 . S
C1130 C1131 1.355 . S
C1130 C1132 1.415 . S
C1131 C1130 1.355 . S
C1131 C1133 1.419 . S
C1132 C1130 1.415 . S
C1132 C1137 1.425 . S
C1132 C1139 1.409 . S
C1133 H1125 0.930 . S
C1133 C1131 1.419 . S
C1133 C1134 1.362 . S
C1134 H1126 0.930 . S
C1134 C1133 1.362 . S
C1134 C1137 1.409 . S
C1135 H1127 0.930 . S
C1135 C1136 1.355 . S
C1135 C1137 1.415 . S
C1136 C1135 1.355 . S
C1136 C1138 1.419 . S
C1137 C1132 1.425 . S
C1137 C1134 1.409 . S
C1137 C1135 1.415 . S
C1138 H1128 0.930 . S
C1138 C1136 1.419 . S
C1138 C1139 1.362 . S
C1139 H1129 0.930 . S
C1139 C1132 1.409 . S
C1139 C1138 1.362 . S
H1140 C1146 0.930 . S
H1141 C1149 0.930 . S
H1142 C1150 0.930 . S
H1143 C1151 0.930 . S
H1144 C1154 0.930 . S
H1145 C1155 0.930 . S
C1146 H1140 0.930 . S
C1146 C1147 1.355 . S
C1146 C1148 1.415 . S
C1147 C1146 1.355 . S
C1147 C1149 1.419 . S
C1148 C1146 1.415 . S
C1148 C1153 1.425 . S
C1148 C1155 1.409 . S
C1149 H1141 0.930 . S
C1149 C1147 1.419 . S
C1149 C1150 1.362 . S
C1150 H1142 0.930 . S
C1150 C1149 1.362 . S
C1150 C1153 1.409 . S
C1151 H1143 0.930 . S
C1151 C1152 1.355 . S
C1151 C1153 1.415 . S
C1152 C1151 1.355 . S
C1152 C1154 1.419 . S
C1153 C1148 1.425 . S
C1153 C1150 1.409 . S
C1153 C1151 1.415 . S
C1154 H1144 0.930 . S
C1154 C1152 1.419 . S
C1154 C1155 1.362 . S
C1155 H1145 0.930 . S
C1155 C1148 1.409 . S
C1155 C1154 1.362 . S
H1156 C1162 0.930 . S
H1157 C1165 0.930 . S
H1158 C1166 0.930 . S
H1159 C1167 0.930 . S
H1160 C1170 0.930 . S
H1161 C1171 0.930 . S
C1162 H1156 0.930 . S
C1162 C1163 1.355 . S
C1162 C1164 1.415 . S
C1163 C1162 1.355 . S
C1163 C1165 1.419 . S
C1164 C1162 1.415 . S
C1164 C1169 1.425 . S
C1164 C1171 1.409 . S
C1165 H1157 0.930 . S
C1165 C1163 1.419 . S
C1165 C1166 1.362 . S
C1166 H1158 0.930 . S
C1166 C1165 1.362 . S
C1166 C1169 1.409 . S
C1167 H1159 0.930 . S
C1167 C1168 1.355 . S
C1167 C1169 1.415 . S
C1168 C1167 1.355 . S
C1168 C1170 1.419 . S
C1169 C1164 1.425 . S
C1169 C1166 1.409 . S
C1169 C1167 1.415 . S
C1170 H1160 0.930 . S
C1170 C1168 1.419 . S
C1170 C1171 1.362 . S
C1171 H1161 0.930 . S
C1171 C1164 1.409 . S
C1171 C1170 1.362 . S
H1172 C1178 0.930 . S
H1173 C1181 0.930 . S
H1174 C1182 0.930 . S
H1175 C1183 0.930 . S
H1176 C1186 0.930 . S
H1177 C1187 0.930 . S
C1178 H1172 0.930 . S
C1178 C1179 1.355 . S
C1178 C1180 1.415 . S
C1179 C1178 1.355 . S
C1179 C1181 1.419 . S
C1180 C1178 1.415 . S
C1180 C1185 1.425 . S
C1180 C1187 1.409 . S
C1181 H1173 0.930 . S
C1181 C1179 1.419 . S
C1181 C1182 1.362 . S
C1182 H1174 0.930 . S
C1182 C1181 1.362 . S
C1182 C1185 1.409 . S
C1183 H1175 0.930 . S
C1183 C1184 1.355 . S
C1183 C1185 1.415 . S
C1184 C1183 1.355 . S
C1184 C1186 1.419 . S
C1185 C1180 1.425 . S
C1185 C1182 1.409 . S
C1185 C1183 1.415 . S
C1186 H1176 0.930 . S
C1186 C1184 1.419 . S
C1186 C1187 1.362 . S
C1187 H1177 0.930 . S
C1187 C1180 1.409 . S
C1187 C1186 1.362 . S
H1188 C1194 0.930 . S
H1189 C1197 0.930 . S
H1190 C1198 0.930 . S
H1191 C1199 0.930 . S
H1192 C1202 0.930 . S
H1193 C1203 0.930 . S
C1194 H1188 0.930 . S
C1194 C1195 1.355 . S
C1194 C1196 1.415 . S
C1195 C1194 1.355 . S
C1195 C1197 1.419 . S
C1196 C1194 1.415 . S
C1196 C1201 1.425 . S
C1196 C1203 1.409 . S
C1197 H1189 0.930 . S
C1197 C1195 1.419 . S
C1197 C1198 1.362 . S
C1198 H1190 0.930 . S
C1198 C1197 1.362 . S
C1198 C1201 1.409 . S
C1199 H1191 0.930 . S
C1199 C1200 1.355 . S
C1199 C1201 1.415 . S
C1200 C1199 1.355 . S
C1200 C1202 1.419 . S
C1201 C1196 1.425 . S
C1201 C1198 1.409 . S
C1201 C1199 1.415 . S
C1202 H1192 0.930 . S
C1202 C1200 1.419 . S
C1202 C1203 1.362 . S
C1203 H1193 0.930 . S
C1203 C1196 1.409 . S
C1203 C1202 1.362 . S
C448 C288 1.703 . S
C443 N2 1.685 . S
C464 C315 2.292 . S
C459 C7 2.296 . S
C480 C325 1.745 . S
C475 N12 1.607 . S
C491 C16 1.989 . S
C496 C355 2.006 . S
C512 C374 2.101 . S
C507 C30 2.087 . S
C528 C385 1.573 . S
C523 N35 1.572 . S
C539 C39 2.331 . S
C544 C414 2.315 . S
C560 C428 1.541 . S
C555 N25 1.502 . S
C576 C280 1.240 . S
C571 N58 1.124 . S
C587 N81 1.499 . S
C592 C308 1.623 . S
C608 C334 1.663 . S
C603 N104 1.581 . S
C619 N127 1.149 . S
C624 C348 1.172 . S
C640 C358 0.901 . S
C635 N48 0.895 . S
C656 C394 1.823 . S
C651 N71 1.806 . S
C667 N94 1.344 . S
C672 C398 1.339 . S
C688 C420 1.316 . S
C683 N117 1.371 . S
C699 C85 2.179 . S
C704 C295 2.244 . S
C715 C122 1.300 . S
C720 C365 1.304 . S
C731 C53 1.598 . S
C736 C378 1.510 . S
C752 C405 1.896 . S
C747 C76 1.915 . S
C768 C435 2.091 . S
C763 C99 2.050 . S
C784 C318 1.585 . S
C779 C131 1.687 . S
C800 C340 0.906 . S
C795 C62 0.898 . S
C811 C108 1.547 . S
C816 C300 1.584 . S
C832 C425 1.836 . S
C827 N140 1.766 . S
C843 C145 2.026 . S
C848 C375 2.037 . S
C864 C388 1.655 . S
C859 N150 1.576 . S
C875 C154 2.191 . S
C880 C415 2.253 . S
C896 C314 2.359 . S
C891 C168 2.332 . S
C907 N173 1.465 . S
C912 C328 1.440 . S
C928 C354 2.091 . S
C923 C177 2.088 . S
C944 C285 1.653 . S
C939 N163 1.545 . S
C960 C434 2.101 . S
C955 C200 2.108 . S
C976 C368 1.404 . S
C971 N219 1.357 . S
C987 N242 1.279 . S
C992 C380 1.432 . S
C1008 C408 1.963 . S
C1003 C269 1.952 . S
C1024 C298 1.657 . S
C1019 C191 1.664 . S
C1035 N209 1.529 . S
C1040 C320 1.564 . S
C1051 N232 1.133 . S
C1056 C338 1.133 . S
C1067 C260 2.306 . S
C1072 C294 2.326 . S
C1083 C223 1.407 . S
C1088 C418 1.442 . S
C1099 N255 1.434 . S
C1104 C305 1.524 . S
C1115 N186 1.513 . S
C1120 C335 1.603 . S
C1136 C345 1.041 . S
C1131 C214 1.006 . S
C1152 C278 1.303 . S
C1147 C237 1.385 . S
C1168 C395 1.755 . S
C1163 N265 1.636 . S
C1184 C400 1.208 . S
C1179 N196 1.174 . S
C1200 C360 0.699 . S
C1195 C246 0.603 . S
