# Generated by pormake.
# Topology ocu, (6,8)-cn, num edge types: 1
# Building blocks:
#     Node 0, Type 0, BuildingBlock: KUMJIN_clean_sbu_1, # of connection points: 6
#     Node 1, Type 0, BuildingBlock: KUMJIN_clean_sbu_1, # of connection points: 6
#     Node 2, Type 0, BuildingBlock: KUMJIN_clean_sbu_1, # of connection points: 6
#     Node 3, Type 0, BuildingBlock: KUMJIN_clean_sbu_1, # of connection points: 6
#     Node 4, Type 0, BuildingBlock: KUMJIN_clean_sbu_1, # of connection points: 6
#     Node 5, Type 0, BuildingBlock: KUMJIN_clean_sbu_1, # of connection points: 6
#     Node 6, Type 0, BuildingBlock: KUMJIN_clean_sbu_1, # of connection points: 6
#     Node 7, Type 0, BuildingBlock: KUMJIN_clean_sbu_1, # of connection points: 6
#     Node 8, Type 1, BuildingBlock: GIZVER_clean_sbu_0, # of connection points: 8
#     Node 9, Type 1, BuildingBlock: GIZVER_clean_sbu_0, # of connection points: 8
#     Node 10, Type 1, BuildingBlock: GIZVER_clean_sbu_0, # of connection points: 8
#     Node 11, Type 1, BuildingBlock: GIZVER_clean_sbu_0, # of connection points: 8
#     Node 12, Type 1, BuildingBlock: GIZVER_clean_sbu_0, # of connection points: 8
#     Node 13, Type 1, BuildingBlock: GIZVER_clean_sbu_0, # of connection points: 8
#     Edge 14, Type (0, 1), BuildingBlock: XUDNAN_clean_linker_2, # of connection points: 2
#     Edge 15, Type (0, 1), BuildingBlock: XUDNAN_clean_linker_2, # of connection points: 2
#     Edge 16, Type (0, 1), BuildingBlock: XUDNAN_clean_linker_2, # of connection points: 2
#     Edge 17, Type (0, 1), BuildingBlock: XUDNAN_clean_linker_2, # of connection points: 2
#     Edge 18, Type (0, 1), BuildingBlock: XUDNAN_clean_linker_2, # of connection points: 2
#     Edge 19, Type (0, 1), BuildingBlock: XUDNAN_clean_linker_2, # of connection points: 2
#     Edge 20, Type (0, 1), BuildingBlock: XUDNAN_clean_linker_2, # of connection points: 2
#     Edge 21, Type (0, 1), BuildingBlock: XUDNAN_clean_linker_2, # of connection points: 2
#     Edge 22, Type (0, 1), BuildingBlock: XUDNAN_clean_linker_2, # of connection points: 2
#     Edge 23, Type (0, 1), BuildingBlock: XUDNAN_clean_linker_2, # of connection points: 2
#     Edge 24, Type (0, 1), BuildingBlock: XUDNAN_clean_linker_2, # of connection points: 2
#     Edge 25, Type (0, 1), BuildingBlock: XUDNAN_clean_linker_2, # of connection points: 2
#     Edge 26, Type (0, 1), BuildingBlock: XUDNAN_clean_linker_2, # of connection points: 2
#     Edge 27, Type (0, 1), BuildingBlock: XUDNAN_clean_linker_2, # of connection points: 2
#     Edge 28, Type (0, 1), BuildingBlock: XUDNAN_clean_linker_2, # of connection points: 2
#     Edge 29, Type (0, 1), BuildingBlock: XUDNAN_clean_linker_2, # of connection points: 2
#     Edge 30, Type (0, 1), BuildingBlock: XUDNAN_clean_linker_2, # of connection points: 2
#     Edge 31, Type (0, 1), BuildingBlock: XUDNAN_clean_linker_2, # of connection points: 2
#     Edge 32, Type (0, 1), BuildingBlock: XUDNAN_clean_linker_2, # of connection points: 2
#     Edge 33, Type (0, 1), BuildingBlock: XUDNAN_clean_linker_2, # of connection points: 2
#     Edge 34, Type (0, 1), BuildingBlock: XUDNAN_clean_linker_2, # of connection points: 2
#     Edge 35, Type (0, 1), BuildingBlock: XUDNAN_clean_linker_2, # of connection points: 2
#     Edge 36, Type (0, 1), BuildingBlock: XUDNAN_clean_linker_2, # of connection points: 2
#     Edge 37, Type (0, 1), BuildingBlock: XUDNAN_clean_linker_2, # of connection points: 2
#     Edge 38, Type (0, 1), BuildingBlock: XUDNAN_clean_linker_2, # of connection points: 2
#     Edge 39, Type (0, 1), BuildingBlock: XUDNAN_clean_linker_2, # of connection points: 2
#     Edge 40, Type (0, 1), BuildingBlock: XUDNAN_clean_linker_2, # of connection points: 2
#     Edge 41, Type (0, 1), BuildingBlock: XUDNAN_clean_linker_2, # of connection points: 2
#     Edge 42, Type (0, 1), BuildingBlock: XUDNAN_clean_linker_2, # of connection points: 2
#     Edge 43, Type (0, 1), BuildingBlock: XUDNAN_clean_linker_2, # of connection points: 2
#     Edge 44, Type (0, 1), BuildingBlock: XUDNAN_clean_linker_2, # of connection points: 2
#     Edge 45, Type (0, 1), BuildingBlock: XUDNAN_clean_linker_2, # of connection points: 2
#     Edge 46, Type (0, 1), BuildingBlock: XUDNAN_clean_linker_2, # of connection points: 2
#     Edge 47, Type (0, 1), BuildingBlock: XUDNAN_clean_linker_2, # of connection points: 2
#     Edge 48, Type (0, 1), BuildingBlock: XUDNAN_clean_linker_2, # of connection points: 2
#     Edge 49, Type (0, 1), BuildingBlock: XUDNAN_clean_linker_2, # of connection points: 2
#     Edge 50, Type (0, 1), BuildingBlock: XUDNAN_clean_linker_2, # of connection points: 2
#     Edge 51, Type (0, 1), BuildingBlock: XUDNAN_clean_linker_2, # of connection points: 2
#     Edge 52, Type (0, 1), BuildingBlock: XUDNAN_clean_linker_2, # of connection points: 2
#     Edge 53, Type (0, 1), BuildingBlock: XUDNAN_clean_linker_2, # of connection points: 2
#     Edge 54, Type (0, 1), BuildingBlock: XUDNAN_clean_linker_2, # of connection points: 2
#     Edge 55, Type (0, 1), BuildingBlock: XUDNAN_clean_linker_2, # of connection points: 2
#     Edge 56, Type (0, 1), BuildingBlock: XUDNAN_clean_linker_2, # of connection points: 2
#     Edge 57, Type (0, 1), BuildingBlock: XUDNAN_clean_linker_2, # of connection points: 2
#     Edge 58, Type (0, 1), BuildingBlock: XUDNAN_clean_linker_2, # of connection points: 2
#     Edge 59, Type (0, 1), BuildingBlock: XUDNAN_clean_linker_2, # of connection points: 2
#     Edge 60, Type (0, 1), BuildingBlock: XUDNAN_clean_linker_2, # of connection points: 2
#     Edge 61, Type (0, 1), BuildingBlock: XUDNAN_clean_linker_2, # of connection points: 2
# Relax obj value: 0.165
# Max RMSD: 0.210
# Mean RMSD: 0.171
data_MOF--net-ocu--node1-KUMJIN_clean_sbu_1--node2-GIZVER_clean_sbu_0--edge1-XUDNAN_clean_linker_2
_symmetry_space_group_name_H-M    P1
_symmetry_Int_Tables_number       1
_symmetry_cell_setting            triclinic
loop_
_symmetry_equiv_pos_as_xyz
'x, y, z'
_cell_length_a     42.588898
_cell_length_b     45.071613
_cell_length_c     34.872505
_cell_angle_alpha  100.65101
_cell_angle_beta   79.490275
_cell_angle_gamma 111.67773
loop_
_atom_site_label
_atom_site_type_symbol
_atom_site_fract_x
_atom_site_fract_y
_atom_site_fract_z
_atom_type_partial_charge
Eu0 Eu 0.25893 0.25902 0.21507 0.0
C1 C 0.33948 0.34805 0.35835 0.0
N2 N 0.35292 0.33822 0.32198 0.0
C3 C 0.39776 0.38957 0.32086 0.0
C4 C 0.35453 0.37952 0.37716 0.0
C5 C 0.38197 0.35815 0.30343 0.0
C6 C 0.38387 0.40037 0.3578 0.0
C7 C 0.2958 0.33625 0.41447 0.0
C8 C 0.31046 0.3266 0.37683 0.0
C9 C 0.3106 0.36762 0.43313 0.0
C10 C 0.33988 0.38918 0.41455 0.0
Eu11 Eu 0.3244 0.28498 0.29467 0.0
N12 N 0.29607 0.29664 0.35756 0.0
C13 C 0.26656 0.31411 0.43217 0.0
C14 C 0.26858 0.27454 0.37556 0.0
C15 C 0.25314 0.28301 0.4128 0.0
H16 H 0.39348 0.34952 0.27565 0.0
H17 H 0.23102 0.26546 0.42667 0.0
H18 H 0.1935 0.19192 0.23623 0.0
H19 H 0.35389 0.28024 0.08473 0.0
H20 H 0.2587 0.25024 0.36179 0.0
H21 H 0.2544 0.32067 0.46089 0.0
H22 H 0.32508 0.29496 0.14917 0.0
H23 H 0.42076 0.40532 0.30594 0.0
H24 H 0.29959 0.37544 0.46197 0.0
H25 H 0.35104 0.41328 0.42937 0.0
H26 H 0.16959 0.13528 0.20703 0.0
H27 H 0.39618 0.42472 0.37128 0.0
H28 H 0.33287 0.22451 0.05118 0.0
N29 N 0.23391 0.20453 0.18986 0.0
C30 C 0.24822 0.19503 0.15376 0.0
C31 C 0.19186 0.15175 0.1919 0.0
C32 C 0.23503 0.16302 0.13563 0.0
C33 C 0.20577 0.18371 0.2087 0.0
C34 C 0.20664 0.14131 0.15529 0.0
N35 N 0.28939 0.24781 0.15367 0.0
C36 C 0.31626 0.27044 0.13565 0.0
C37 C 0.29184 0.20793 0.09767 0.0
C38 C 0.27642 0.2173 0.13496 0.0
C39 C 0.32026 0.2308 0.07975 0.0
C40 C 0.33234 0.26223 0.09871 0.0
H41 H 0.19576 0.11653 0.14232 0.0
H42 H 0.24075 0.12917 0.08431 0.0
H43 H 0.29045 0.16841 0.05116 0.0
O44 O 0.24895 0.28867 0.17875 0.0
O45 O 0.29459 0.22907 0.20941 0.0
O46 O 0.34164 0.2679 0.23175 0.0
O47 O 0.20774 0.24789 0.20027 0.0
O48 O 0.29769 0.31026 0.2193 0.0
O49 O 0.34586 0.30875 0.23906 0.0
O50 O 0.33381 0.2503 0.32359 0.0
O51 O 0.28837 0.3141 0.30339 0.0
O52 O 0.23983 0.28362 0.27392 0.0
O53 O 0.37548 0.29263 0.30683 0.0
O54 O 0.28447 0.23463 0.28958 0.0
O55 O 0.23629 0.23776 0.27231 0.0
C56 C 0.32727 0.239 0.21353 0.0
C57 C 0.20305 0.26336 0.14032 0.0
C58 C 0.18327 0.28114 0.08981 0.0
C59 C 0.17256 0.24937 0.07092 0.0
C60 C 0.19244 0.23182 0.12065 0.0
C61 C 0.1774 0.22498 0.08612 0.0
C62 C 0.19875 0.28799 0.12445 0.0
C63 C 0.33071 0.32219 0.22139 0.0
C64 C 0.21694 0.27087 0.17831 0.0
C65 C 0.25049 0.15368 0.09859 0.0
C66 C 0.27877 0.17605 0.07968 0.0
C67 C 0.25654 0.30854 0.29803 0.0
C68 C 0.3809 0.27012 0.36027 0.0
C69 C 0.41207 0.25154 0.39757 0.0
C70 C 0.41246 0.27766 0.42705 0.0
C71 C 0.38129 0.29561 0.39027 0.0
C72 C 0.39612 0.24806 0.36408 0.0
C73 C 0.39701 0.29932 0.42345 0.0
C74 C 0.25117 0.22442 0.29044 0.0
C75 C 0.36615 0.26692 0.32405 0.0
H76 H 0.16078 0.2435 0.04416 0.0
H77 H 0.19532 0.21239 0.13217 0.0
H78 H 0.1692 0.20059 0.07123 0.0
H79 H 0.20665 0.31234 0.13963 0.0
H80 H 0.42504 0.28168 0.45283 0.0
H81 H 0.36986 0.31286 0.38785 0.0
H82 H 0.39527 0.22814 0.341 0.0
H83 H 0.39751 0.31924 0.44636 0.0
Eu84 Eu 0.75607 0.29181 0.27326 0.0
C85 C 0.87605 0.25539 0.17566 0.0
N86 N 0.84373 0.23672 0.18823 0.0
C87 C 0.83841 0.20694 0.12363 0.0
C88 C 0.89039 0.25101 0.13613 0.0
C89 C 0.82569 0.21152 0.1633 0.0
C90 C 0.87069 0.22709 0.10981 0.0
C91 C 0.93051 0.29451 0.19196 0.0
C92 C 0.89583 0.27736 0.20298 0.0
C93 C 0.94447 0.29103 0.15242 0.0
C94 C 0.92436 0.26957 0.12449 0.0
Eu95 Eu 0.82488 0.24758 0.25615 0.0
N96 N 0.88164 0.28065 0.24092 0.0
C97 C 0.95037 0.31383 0.22129 0.0
C98 C 0.90085 0.29913 0.26974 0.0
C99 C 0.93545 0.31624 0.26033 0.0
H100 H 0.80182 0.19417 0.17377 0.0
H101 H 0.95066 0.33093 0.28322 0.0
H102 H 0.76177 0.32592 0.3661 0.0
H103 H 0.64533 0.20455 0.20656 0.0
H104 H 0.88949 0.30017 0.30007 0.0
H105 H 0.9773 0.32684 0.21411 0.0
H106 H 0.70186 0.24691 0.20705 0.0
H107 H 0.82362 0.18733 0.10393 0.0
H108 H 0.97097 0.30434 0.14327 0.0
H109 H 0.93568 0.26663 0.09422 0.0
H110 H 0.72658 0.32056 0.43113 0.0
H111 H 0.88074 0.22304 0.07921 0.0
H112 H 0.60982 0.18973 0.26942 0.0
N113 N 0.72461 0.28747 0.33618 0.0
C114 C 0.69246 0.26556 0.33829 0.0
C115 C 0.71678 0.30481 0.4053 0.0
C116 C 0.67155 0.26157 0.37465 0.0
C117 C 0.73669 0.30771 0.36861 0.0
C118 C 0.68418 0.28146 0.40841 0.0
N119 N 0.70081 0.25274 0.2691 0.0
C120 C 0.68775 0.23911 0.23449 0.0
C121 C 0.64735 0.22406 0.30518 0.0
C122 C 0.68059 0.24707 0.30391 0.0
C123 C 0.63518 0.20761 0.26972 0.0
C124 C 0.65521 0.21572 0.23419 0.0
H125 H 0.6689 0.27914 0.4369 0.0
H126 H 0.62265 0.23411 0.40391 0.0
H127 H 0.60145 0.20127 0.34311 0.0
O128 O 0.7218 0.3111 0.25522 0.0
O129 O 0.75595 0.25919 0.31635 0.0
O130 O 0.77013 0.21883 0.27645 0.0
O131 O 0.76499 0.34372 0.28548 0.0
O132 O 0.76234 0.26261 0.21359 0.0
O133 O 0.776 0.22102 0.22717 0.0
O134 O 0.84032 0.23422 0.3052 0.0
O135 O 0.84242 0.2987 0.24011 0.0
O136 O 0.7948 0.29841 0.21848 0.0
O137 O 0.84335 0.20741 0.24739 0.0
O138 O 0.82186 0.28035 0.31413 0.0
O139 O 0.80438 0.32027 0.30134 0.0
C140 C 0.75203 0.22853 0.30728 0.0
C141 C 0.72789 0.36756 0.26658 0.0
C142 C 0.69546 0.38995 0.23685 0.0
C143 C 0.71001 0.41993 0.25895 0.0
C144 C 0.74208 0.39764 0.28856 0.0
C145 C 0.73296 0.42362 0.28489 0.0
C146 C 0.70412 0.3637 0.24116 0.0
C147 C 0.7614 0.23261 0.20623 0.0
C148 C 0.73838 0.34045 0.26938 0.0
C149 C 0.63892 0.23786 0.37617 0.0
C150 C 0.62692 0.21906 0.34155 0.0
C151 C 0.82795 0.30977 0.21861 0.0
C152 C 0.88607 0.21454 0.28681 0.0
C153 C 0.92446 0.2064 0.32522 0.0
C154 C 0.95046 0.21373 0.2933 0.0
C155 C 0.9125 0.22179 0.25562 0.0
C156 C 0.89248 0.20787 0.32181 0.0
C157 C 0.94457 0.22179 0.25916 0.0
C158 C 0.8219 0.31014 0.32015 0.0
C159 C 0.8514 0.21269 0.28292 0.0
H160 H 0.70371 0.44052 0.25593 0.0
H161 H 0.76028 0.40112 0.30846 0.0
H162 H 0.74404 0.44679 0.30182 0.0
H163 H 0.69333 0.34071 0.22361 0.0
H164 H 0.97511 0.21217 0.29376 0.0
H165 H 0.90833 0.22697 0.22829 0.0
H166 H 0.87209 0.20325 0.34596 0.0
H167 H 0.96472 0.22713 0.23482 0.0
Eu168 Eu 0.78712 0.74741 0.28962 0.0
C169 C 0.86193 0.78685 0.13408 0.0
N170 N 0.85986 0.80554 0.16919 0.0
C171 C 0.92063 0.83046 0.16259 0.0
C172 C 0.89379 0.78817 0.1127 0.0
C173 C 0.88846 0.82805 0.18297 0.0
C174 C 0.92334 0.81015 0.12758 0.0
C175 C 0.83322 0.74673 0.08332 0.0
C176 C 0.83198 0.7662 0.11985 0.0
C177 C 0.86488 0.74706 0.06254 0.0
C178 C 0.8951 0.76775 0.0772 0.0
Eu179 Eu 0.8046 0.79905 0.20271 0.0
N180 N 0.80172 0.76643 0.14065 0.0
C181 C 0.80262 0.7283 0.06815 0.0
C182 C 0.77232 0.75108 0.12404 0.0
C183 C 0.77211 0.73106 0.08821 0.0
H184 H 0.8864 0.84371 0.21005 0.0
H185 H 0.74853 0.71823 0.07574 0.0
H186 H 0.7184 0.68124 0.26542 0.0
H187 H 0.80249 0.82418 0.4299 0.0
H188 H 0.74914 0.75491 0.13793 0.0
H189 H 0.80244 0.71303 0.04021 0.0
H190 H 0.82132 0.7996 0.36435 0.0
H191 H 0.94331 0.84786 0.17397 0.0
H192 H 0.86629 0.73199 0.03466 0.0
H193 H 0.91933 0.76813 0.06053 0.0
H194 H 0.6569 0.66012 0.28691 0.0
H195 H 0.9483 0.81191 0.11203 0.0
H196 H 0.74098 0.80851 0.45451 0.0
N197 N 0.72803 0.7222 0.30935 0.0
C198 C 0.71519 0.73601 0.34365 0.0
C199 C 0.67291 0.6818 0.30278 0.0
C200 C 0.68024 0.72392 0.35792 0.0
C201 C 0.7078 0.69435 0.29014 0.0
C202 C 0.65893 0.69699 0.33641 0.0
N203 N 0.77107 0.77147 0.35215 0.0
C204 C 0.79452 0.79298 0.37499 0.0
C205 C 0.72545 0.77434 0.403 0.0
C206 C 0.73742 0.76097 0.36601 0.0
C207 C 0.74916 0.79776 0.42585 0.0
C208 C 0.78391 0.8067 0.41207 0.0
H209 H 0.63195 0.68698 0.34637 0.0
H210 H 0.64107 0.72947 0.40503 0.0
H211 H 0.68068 0.77359 0.44452 0.0
O212 O 0.83016 0.7395 0.30575 0.0
O213 O 0.77468 0.79443 0.30347 0.0
O214 O 0.75748 0.79963 0.24741 0.0
O215 O 0.77891 0.70801 0.32293 0.0
O216 O 0.83806 0.78803 0.28402 0.0
O217 O 0.82883 0.82693 0.25764 0.0
O218 O 0.79111 0.81996 0.15897 0.0
O219 O 0.84007 0.77153 0.20777 0.0
O220 O 0.80511 0.72439 0.22931 0.0
O221 O 0.82097 0.85107 0.20387 0.0
O222 O 0.75223 0.75984 0.20913 0.0
O223 O 0.76406 0.72192 0.23394 0.0
C224 C 0.75682 0.80538 0.28601 0.0
C225 C 0.82163 0.7155 0.36277 0.0
C226 C 0.8595 0.70318 0.39698 0.0
C227 C 0.84293 0.71301 0.43314 0.0
C228 C 0.80503 0.72484 0.39894 0.0
C229 C 0.81601 0.72396 0.43398 0.0
C230 C 0.84907 0.70536 0.36199 0.0
C231 C 0.84415 0.81832 0.28103 0.0
C232 C 0.81122 0.71563 0.32504 0.0
C233 C 0.66789 0.73826 0.39384 0.0
C234 C 0.69045 0.76336 0.41637 0.0
C235 C 0.83222 0.74015 0.20668 0.0
C236 C 0.78098 0.86874 0.18401 0.0
C237 C 0.73591 0.88302 0.1656 0.0
C238 C 0.73922 0.90642 0.19902 0.0
C239 C 0.78328 0.89205 0.21733 0.0
C240 C 0.75716 0.86434 0.15826 0.0
C241 C 0.76251 0.91066 0.22468 0.0
C242 C 0.74654 0.72971 0.21266 0.0
C243 C 0.80352 0.84931 0.17599 0.0
H244 H 0.84988 0.71121 0.46076 0.0
H245 H 0.78356 0.73249 0.40015 0.0
H246 H 0.80314 0.73108 0.46191 0.0
H247 H 0.86196 0.69859 0.3338 0.0
H248 H 0.72418 0.92195 0.20521 0.0
H249 H 0.80125 0.89609 0.23774 0.0
H250 H 0.75501 0.84618 0.13277 0.0
H251 H 0.76465 0.92869 0.25027 0.0
Eu252 Eu 0.2427 0.78597 0.27189 0.0
C253 C 0.38457 0.75375 0.27981 0.0
N254 N 0.37697 0.77541 0.26458 0.0
C255 C 0.43213 0.81461 0.27392 0.0
C256 C 0.41594 0.76199 0.29426 0.0
C257 C 0.40053 0.80521 0.26023 0.0
C258 C 0.43964 0.79311 0.29177 0.0
C259 C 0.36938 0.69865 0.29145 0.0
C260 C 0.36184 0.72269 0.27817 0.0
C261 C 0.39975 0.70694 0.30789 0.0
C262 C 0.42306 0.73859 0.30922 0.0
Eu263 Eu 0.32281 0.75914 0.24332 0.0
N264 N 0.33335 0.71558 0.26111 0.0
C265 C 0.34667 0.66691 0.28664 0.0
C266 C 0.31207 0.6844 0.25443 0.0
C267 C 0.31807 0.6597 0.26762 0.0
H268 H 0.39482 0.82174 0.24635 0.0
H269 H 0.30072 0.63514 0.26296 0.0
H270 H 0.22516 0.79118 0.184 0.0
H271 H 0.22456 0.8569 0.41314 0.0
H272 H 0.29011 0.67854 0.23939 0.0
H273 H 0.35145 0.64772 0.29651 0.0
H274 H 0.23225 0.80982 0.3686 0.0
H275 H 0.45067 0.83836 0.27056 0.0
H276 H 0.4059 0.6889 0.31857 0.0
H277 H 0.44687 0.74448 0.32083 0.0
H278 H 0.2119 0.82899 0.15214 0.0
H279 H 0.46413 0.80041 0.30233 0.0
H280 H 0.21508 0.89959 0.38648 0.0
N281 N 0.22769 0.81984 0.23986 0.0
C282 C 0.22331 0.84643 0.2619 0.0
C283 C 0.21521 0.83429 0.18301 0.0
C284 C 0.21553 0.86864 0.24508 0.0
C285 C 0.22272 0.81292 0.20115 0.0
C286 C 0.21199 0.86249 0.20496 0.0
N287 N 0.23041 0.82752 0.31699 0.0
C288 C 0.22851 0.82862 0.35667 0.0
C289 C 0.21881 0.87696 0.32622 0.0
C290 C 0.22479 0.85044 0.30179 0.0
C291 C 0.21899 0.87932 0.36674 0.0
C292 C 0.22376 0.85498 0.38201 0.0
H293 H 0.20603 0.87894 0.1909 0.0
H294 H 0.20492 0.91318 0.25659 0.0
H295 H 0.20794 0.92055 0.32776 0.0
O296 O 0.18729 0.77227 0.28423 0.0
O297 O 0.2818 0.80928 0.22211 0.0
O298 O 0.3311 0.81176 0.24204 0.0
O299 O 0.20969 0.73533 0.27121 0.0
O300 O 0.28376 0.81437 0.31312 0.0
O301 O 0.33205 0.79928 0.29566 0.0
O302 O 0.31921 0.76597 0.18415 0.0
O303 O 0.27681 0.72729 0.27991 0.0
O304 O 0.25771 0.76548 0.31786 0.0
O305 O 0.35592 0.74594 0.1928 0.0
O306 O 0.27124 0.72407 0.22861 0.0
O307 O 0.25234 0.75978 0.21118 0.0
C308 C 0.31467 0.8237 0.22421 0.0
C309 C 0.16124 0.72611 0.31755 0.0
C310 C 0.14159 0.72994 0.3878 0.0
C311 C 0.12251 0.69691 0.38374 0.0
C312 C 0.14296 0.69288 0.31385 0.0
C313 C 0.12363 0.67839 0.34688 0.0
C314 C 0.16069 0.74423 0.35456 0.0
C315 C 0.31507 0.81706 0.31795 0.0
C316 C 0.18203 0.74173 0.28336 0.0
C317 C 0.21067 0.89571 0.269 0.0
C318 C 0.21235 0.89989 0.30951 0.0
C319 C 0.25976 0.73658 0.31228 0.0
C320 C 0.37108 0.77935 0.14193 0.0
C321 C 0.42669 0.79363 0.10281 0.0
C322 C 0.4193 0.81595 0.08627 0.0
C323 C 0.36383 0.80204 0.12546 0.0
C324 C 0.40277 0.77576 0.13075 0.0
C325 C 0.38806 0.82055 0.09824 0.0
C326 C 0.2531 0.73049 0.20678 0.0
C327 C 0.34518 0.75761 0.16822 0.0
H328 H 0.10686 0.68561 0.40887 0.0
H329 H 0.14357 0.67825 0.28553 0.0
H330 H 0.10927 0.65283 0.34386 0.0
H331 H 0.17437 0.76992 0.35737 0.0
H332 H 0.43734 0.82931 0.06392 0.0
H333 H 0.33927 0.805 0.1329 0.0
H334 H 0.4083 0.75761 0.14214 0.0
H335 H 0.38224 0.83784 0.08563 0.0
Eu336 Eu 0.26186 0.78596 0.75645 0.0
C337 C 0.39011 0.76804 0.66491 0.0
N338 N 0.35672 0.74938 0.6712 0.0
C339 C 0.35322 0.74038 0.60186 0.0
C340 C 0.40611 0.77434 0.62665 0.0
C341 C 0.33852 0.73459 0.64025 0.0
C342 C 0.38704 0.76063 0.59507 0.0
C343 C 0.44391 0.79747 0.69071 0.0
C344 C 0.40867 0.77994 0.6967 0.0
C345 C 0.45957 0.80499 0.65295 0.0
C346 C 0.4407 0.79348 0.62101 0.0
Eu347 Eu 0.33405 0.74279 0.7377 0.0
N348 N 0.3929 0.77247 0.73297 0.0
C349 C 0.46268 0.80552 0.72247 0.0
C350 C 0.41153 0.77762 0.76299 0.0
C351 C 0.44658 0.79471 0.75846 0.0
H352 H 0.31242 0.71898 0.64518 0.0
H353 H 0.4612 0.79938 0.7826 0.0
H354 H 0.29916 0.86288 0.79251 0.0
H355 H 0.12829 0.71093 0.78212 0.0
H356 H 0.39924 0.76878 0.79068 0.0
H357 H 0.48984 0.81874 0.71903 0.0
H358 H 0.18685 0.72776 0.74685 0.0
H359 H 0.33846 0.72918 0.57754 0.0
H360 H 0.48652 0.8188 0.64791 0.0
H361 H 0.45335 0.79873 0.59186 0.0
H362 H 0.28859 0.90223 0.84829 0.0
H363 H 0.3984 0.76498 0.56527 0.0
H364 H 0.11433 0.74348 0.8437 0.0
N365 N 0.25269 0.82549 0.80747 0.0
C366 C 0.22254 0.81708 0.83099 0.0
C367 C 0.26986 0.8783 0.8439 0.0
C368 C 0.2151 0.83881 0.86276 0.0
C369 C 0.2758 0.85599 0.81243 0.0
C370 C 0.23956 0.86952 0.86954 0.0
N371 N 0.20565 0.76857 0.7887 0.0
C372 C 0.18085 0.74195 0.77374 0.0
C373 C 0.16517 0.77914 0.84226 0.0
C374 C 0.19809 0.78764 0.82113 0.0
C375 C 0.14 0.75083 0.82842 0.0
C376 C 0.14776 0.73242 0.79362 0.0
H377 H 0.23487 0.88692 0.89367 0.0
H378 H 0.17693 0.84587 0.91037 0.0
H379 H 0.13306 0.7936 0.89223 0.0
O380 O 0.26858 0.79286 0.69467 0.0
O381 O 0.24488 0.73814 0.77978 0.0
O382 O 0.29451 0.73411 0.79273 0.0
O383 O 0.23275 0.80993 0.7366 0.0
O384 O 0.25092 0.73891 0.71364 0.0
O385 O 0.28501 0.70937 0.71735 0.0
O386 O 0.34838 0.7157 0.77269 0.0
O387 O 0.32754 0.77748 0.70302 0.0
O388 O 0.31607 0.81789 0.74352 0.0
O389 O 0.34622 0.69977 0.71061 0.0
O390 O 0.34518 0.78362 0.7874 0.0
O391 O 0.3018 0.80604 0.80063 0.0
C392 C 0.26095 0.72528 0.79696 0.0
C393 C 0.25892 0.83841 0.68241 0.0
C394 C 0.24977 0.87089 0.63948 0.0
C395 C 0.28024 0.89564 0.64904 0.0
C396 C 0.28918 0.8633 0.69125 0.0
C397 C 0.29974 0.89176 0.67458 0.0
C398 C 0.2392 0.84223 0.65663 0.0
C399 C 0.25985 0.71301 0.70421 0.0
C400 C 0.24743 0.80858 0.70041 0.0
C401 C 0.18306 0.82965 0.88559 0.0
C402 C 0.15808 0.79987 0.87529 0.0
C403 C 0.33681 0.80805 0.71671 0.0
C404 C 0.38884 0.69245 0.7403 0.0
C405 C 0.42817 0.68084 0.77364 0.0
C406 C 0.45015 0.68183 0.73803 0.0
C407 C 0.41125 0.69359 0.70525 0.0
C408 C 0.39795 0.68701 0.77435 0.0
C409 C 0.44185 0.68854 0.70434 0.0
C410 C 0.33043 0.80374 0.808 0.0
C411 C 0.35564 0.69649 0.74262 0.0
H412 H 0.28887 0.91833 0.63725 0.0
H413 H 0.3045 0.86085 0.71122 0.0
H414 H 0.32304 0.911 0.68165 0.0
H415 H 0.21594 0.82282 0.64968 0.0
H416 H 0.47334 0.67666 0.7357 0.0
H417 H 0.40514 0.69825 0.67864 0.0
H418 H 0.38102 0.6875 0.80151 0.0
H419 H 0.45895 0.68921 0.67716 0.0
Eu420 Eu 0.27752 0.23616 0.81323 0.0
C421 C 0.37019 0.28893 0.65758 0.0
N422 N 0.35743 0.30434 0.69047 0.0
C423 C 0.4107 0.34841 0.69046 0.0
C424 C 0.40418 0.30245 0.64041 0.0
C425 C 0.37666 0.3344 0.70589 0.0
C426 C 0.42468 0.33218 0.6579 0.0
C427 C 0.36015 0.24534 0.60353 0.0
C428 C 0.34858 0.26059 0.63943 0.0
C429 C 0.39419 0.25826 0.58702 0.0
C430 C 0.41624 0.28659 0.60556 0.0
Eu431 Eu 0.29974 0.27789 0.71476 0.0
N432 N 0.31571 0.24872 0.6559 0.0
C433 C 0.33688 0.21808 0.58471 0.0
C434 C 0.29246 0.22344 0.63652 0.0
C435 C 0.30277 0.20732 0.60108 0.0
H436 H 0.36576 0.34808 0.72958 0.0
H437 H 0.28434 0.18688 0.5862 0.0
H438 H 0.19649 0.19277 0.79916 0.0
H439 H 0.32809 0.32738 0.93529 0.0
H440 H 0.26602 0.21591 0.64843 0.0
H441 H 0.34479 0.2057 0.55711 0.0
H442 H 0.33068 0.2889 0.87567 0.0
H443 H 0.42594 0.37201 0.70324 0.0
H444 H 0.40347 0.24688 0.55947 0.0
H445 H 0.44229 0.29659 0.59203 0.0
H446 H 0.13854 0.18867 0.83123 0.0
H447 H 0.45091 0.34334 0.64564 0.0
H448 H 0.27229 0.32938 0.96858 0.0
N449 N 0.22116 0.23121 0.84098 0.0
C450 C 0.21756 0.25022 0.87552 0.0
C451 C 0.16056 0.20623 0.84381 0.0
C452 C 0.18499 0.24856 0.89492 0.0
C453 C 0.19337 0.20876 0.82553 0.0
C454 C 0.15633 0.22632 0.87851 0.0
N455 N 0.2778 0.27273 0.87166 0.0
C456 C 0.30662 0.29127 0.88817 0.0
C457 C 0.24373 0.29248 0.92612 0.0
C458 C 0.24668 0.27201 0.8908 0.0
C459 C 0.27348 0.31328 0.94154 0.0
C460 C 0.30503 0.31236 0.92273 0.0
H461 H 0.13087 0.22432 0.89253 0.0
H462 H 0.15722 0.26811 0.9453 0.0
H463 H 0.20857 0.30665 0.97249 0.0
O464 O 0.29193 0.22115 0.86176 0.0
O465 O 0.24673 0.26728 0.80441 0.0
O466 O 0.28573 0.30768 0.77168 0.0
O467 O 0.2583 0.18578 0.82301 0.0
O468 O 0.33132 0.27245 0.80427 0.0
O469 O 0.32622 0.30781 0.76751 0.0
O470 O 0.25551 0.27786 0.69099 0.0
O471 O 0.31537 0.23264 0.70903 0.0
O472 O 0.32536 0.2331 0.77181 0.0
O473 O 0.30435 0.3151 0.6797 0.0
O474 O 0.24839 0.24107 0.73145 0.0
O475 O 0.25669 0.20327 0.75929 0.0
C476 C 0.25869 0.29764 0.79777 0.0
C477 C 0.29805 0.17003 0.84645 0.0
C478 C 0.33645 0.15196 0.87287 0.0
C479 C 0.33789 0.13101 0.8378 0.0
C480 C 0.3 0.1488 0.81175 0.0
C481 C 0.31985 0.12954 0.80754 0.0
C482 C 0.31661 0.17166 0.87693 0.0
C483 C 0.34117 0.30121 0.79316 0.0
C484 C 0.27709 0.19063 0.85076 0.0
C485 C 0.18204 0.26908 0.92992 0.0
C486 C 0.2113 0.29109 0.94536 0.0
C487 C 0.3292 0.22332 0.73358 0.0
C488 C 0.26493 0.30346 0.63403 0.0
C489 C 0.23535 0.32155 0.59386 0.0
C490 C 0.25363 0.31051 0.55992 0.0
C491 C 0.28278 0.29272 0.59986 0.0
C492 C 0.24064 0.3168 0.63082 0.0
C493 C 0.27675 0.29587 0.56299 0.0
C494 C 0.24333 0.21096 0.73326 0.0
C495 C 0.27256 0.3033 0.67355 0.0
H496 H 0.35337 0.11597 0.8336 0.0
H497 H 0.28644 0.14721 0.78758 0.0
H498 H 0.32139 0.11349 0.7806 0.0
H499 H 0.31529 0.18788 0.90383 0.0
H500 H 0.25104 0.31397 0.53096 0.0
H501 H 0.30171 0.28248 0.60166 0.0
H502 H 0.22644 0.32407 0.6576 0.0
H503 H 0.29081 0.28778 0.53665 0.0
Eu504 Eu 0.75579 0.27874 0.76283 0.0
C505 C 0.84571 0.18368 0.76027 0.0
N506 N 0.84141 0.21049 0.78174 0.0
C507 C 0.84465 0.19243 0.84098 0.0
C508 C 0.84893 0.15964 0.77842 0.0
C509 C 0.84194 0.21571 0.8215 0.0
C510 C 0.8478 0.16408 0.81938 0.0
C511 C 0.85516 0.15462 0.69613 0.0
C512 C 0.84874 0.1812 0.71987 0.0
C513 C 0.85716 0.12995 0.71397 0.0
C514 C 0.85402 0.13245 0.75507 0.0
Eu515 Eu 0.83377 0.24749 0.74739 0.0
N516 N 0.84718 0.20567 0.70375 0.0
C517 C 0.86009 0.154 0.65524 0.0
C518 C 0.85369 0.20603 0.66399 0.0
C519 C 0.85952 0.17993 0.63914 0.0
H520 H 0.83975 0.23766 0.83837 0.0
H521 H 0.86335 0.17969 0.60761 0.0
H522 H 0.68331 0.2234 0.73564 0.0
H523 H 0.79813 0.40836 0.75784 0.0
H524 H 0.85347 0.22616 0.65146 0.0
H525 H 0.86491 0.13395 0.63593 0.0
H526 H 0.79295 0.35904 0.78331 0.0
H527 H 0.84442 0.19642 0.87258 0.0
H528 H 0.86181 0.1092 0.69626 0.0
H529 H 0.85631 0.1136 0.76846 0.0
H530 H 0.64076 0.21621 0.69148 0.0
H531 H 0.85011 0.14617 0.83449 0.0
H532 H 0.76505 0.40491 0.7047 0.0
N533 N 0.71298 0.27083 0.72325 0.0
C534 C 0.71518 0.29602 0.70564 0.0
C535 C 0.66209 0.23847 0.69447 0.0
C536 C 0.69185 0.293 0.67996 0.0
C537 C 0.68609 0.24265 0.71944 0.0
C538 C 0.66547 0.26348 0.67385 0.0
N539 N 0.75832 0.32772 0.74409 0.0
C540 C 0.77848 0.35715 0.76007 0.0
C541 C 0.74058 0.35313 0.70119 0.0
C542 C 0.73887 0.32556 0.71633 0.0
C543 C 0.76287 0.38314 0.71562 0.0
C544 C 0.78147 0.3852 0.7457 0.0
H545 H 0.64677 0.26021 0.65467 0.0
H546 H 0.67722 0.318 0.64268 0.0
H547 H 0.72022 0.37077 0.66109 0.0
O548 O 0.7485 0.27481 0.82542 0.0
O549 O 0.80654 0.30868 0.73246 0.0
O550 O 0.82486 0.26892 0.69789 0.0
O551 O 0.71256 0.28747 0.80107 0.0
O552 O 0.80476 0.31035 0.78811 0.0
O553 O 0.8185 0.27183 0.80705 0.0
O554 O 0.88894 0.2604 0.74408 0.0
O555 O 0.79006 0.2284 0.79539 0.0
O556 O 0.74455 0.22613 0.76731 0.0
O557 O 0.86775 0.29785 0.75046 0.0
O558 O 0.79765 0.2206 0.70045 0.0
O559 O 0.74943 0.23591 0.71411 0.0
C560 C 0.82425 0.29824 0.70171 0.0
C561 C 0.69151 0.25502 0.85253 0.0
C562 C 0.65344 0.24224 0.91294 0.0
C563 C 0.63721 0.21109 0.89456 0.0
C564 C 0.67555 0.2237 0.83447 0.0
C565 C 0.64875 0.2017 0.85565 0.0
C566 C 0.68082 0.26386 0.89163 0.0
C567 C 0.81983 0.30176 0.81156 0.0
C568 C 0.71938 0.2791 0.83157 0.0
C569 C 0.69462 0.31991 0.6629 0.0
C570 C 0.71905 0.34996 0.67343 0.0
C571 C 0.75805 0.21442 0.78915 0.0
C572 C 0.91965 0.30597 0.71065 0.0
C573 C 0.94621 0.30103 0.64294 0.0
C574 C 0.96357 0.33438 0.64649 0.0
C575 C 0.93636 0.33946 0.71377 0.0
C576 C 0.92452 0.28709 0.6751 0.0
C577 C 0.95827 0.35357 0.68177 0.0
C578 C 0.76709 0.21813 0.6935 0.0
C579 C 0.89534 0.29095 0.74329 0.0
H580 H 0.6155 0.19429 0.9101 0.0
H581 H 0.68344 0.21637 0.80408 0.0
H582 H 0.63639 0.1776 0.84161 0.0
H583 H 0.69276 0.28845 0.90476 0.0
H584 H 0.98095 0.34545 0.62212 0.0
H585 H 0.93234 0.35462 0.7408 0.0
H586 H 0.91193 0.26123 0.67255 0.0
H587 H 0.9712 0.37938 0.68433 0.0
Eu588 Eu 0.76661 0.75206 0.72004 0.0
C589 C 0.85435 0.84827 0.85439 0.0
N590 N 0.86471 0.83492 0.81835 0.0
C591 C 0.91155 0.88399 0.80912 0.0
C592 C 0.87205 0.88046 0.86889 0.0
C593 C 0.89343 0.85187 0.79622 0.0
C594 C 0.90068 0.89844 0.84549 0.0
C595 C 0.8154 0.8424 0.91513 0.0
C596 C 0.82635 0.82946 0.87733 0.0
C597 C 0.83278 0.87455 0.92944 0.0
C598 C 0.86098 0.89353 0.90638 0.0
Eu599 Eu 0.83265 0.78047 0.79975 0.0
N600 N 0.80927 0.79872 0.8622 0.0
C601 C 0.78718 0.82267 0.93733 0.0
C602 C 0.78258 0.77899 0.88424 0.0
C603 C 0.77087 0.79076 0.92192 0.0
H604 H 0.90299 0.84034 0.76919 0.0
H605 H 0.74941 0.77517 0.93914 0.0
H606 H 0.72043 0.67653 0.73722 0.0
H607 H 0.85237 0.79632 0.58889 0.0
H608 H 0.77039 0.75418 0.8729 0.0
H609 H 0.77798 0.83172 0.9665 0.0
H610 H 0.81751 0.80084 0.6525 0.0
H611 H 0.93419 0.89742 0.79128 0.0
H612 H 0.82465 0.88496 0.95835 0.0
H613 H 0.87423 0.91824 0.91794 0.0
H614 H 0.71264 0.62101 0.70501 0.0
H615 H 0.91494 0.92325 0.85557 0.0
H616 H 0.85082 0.74266 0.55484 0.0
N617 N 0.75788 0.69835 0.69198 0.0
C618 C 0.77525 0.69411 0.65574 0.0
C619 C 0.73048 0.64134 0.69099 0.0
C620 C 0.77138 0.66289 0.63615 0.0
C621 C 0.73508 0.67271 0.70932 0.0
C622 C 0.74885 0.63639 0.65436 0.0
N623 N 0.80092 0.7511 0.65832 0.0
C624 C 0.81886 0.77768 0.63988 0.0
C625 C 0.81567 0.71722 0.60107 0.0
C626 C 0.79762 0.72114 0.63874 0.0
C627 C 0.83654 0.74468 0.5837 0.0
C628 C 0.8377 0.77501 0.60295 0.0
H629 H 0.74519 0.61203 0.64022 0.0
H630 H 0.78723 0.63528 0.58354 0.0
H631 H 0.82538 0.68277 0.55251 0.0
O632 O 0.74586 0.76778 0.67743 0.0
O633 O 0.79946 0.7215 0.72432 0.0
O634 O 0.85063 0.7582 0.73907 0.0
O635 O 0.71287 0.73018 0.71143 0.0
O636 O 0.80407 0.8037 0.72434 0.0
O637 O 0.85199 0.79965 0.74092 0.0
O638 O 0.83962 0.7457 0.83099 0.0
O639 O 0.79297 0.80635 0.8123 0.0
O640 O 0.75143 0.78737 0.76984 0.0
O641 O 0.88214 0.78831 0.81718 0.0
O642 O 0.79021 0.73185 0.80122 0.0
O643 O 0.74332 0.73398 0.77892 0.0
C644 C 0.83298 0.73006 0.72129 0.0
C645 C 0.68835 0.76485 0.69417 0.0
C646 C 0.65885 0.7948 0.67164 0.0
C647 C 0.63913 0.79473 0.7086 0.0
C648 C 0.66809 0.76507 0.73082 0.0
C649 C 0.64348 0.77963 0.73772 0.0
C650 C 0.68327 0.77946 0.66438 0.0
C651 C 0.83724 0.81456 0.72505 0.0
C652 C 0.71461 0.74944 0.68687 0.0
C653 C 0.78989 0.65908 0.59906 0.0
C654 C 0.81176 0.68614 0.58148 0.0
C655 C 0.76494 0.8065 0.80077 0.0
C656 C 0.88084 0.76787 0.87592 0.0
C657 C 0.89451 0.74638 0.928 0.0
C658 C 0.90167 0.77678 0.95064 0.0
C659 C 0.88828 0.79802 0.89919 0.0
C660 C 0.88383 0.74207 0.89064 0.0
C661 C 0.89841 0.80232 0.93633 0.0
C662 C 0.75711 0.72219 0.80051 0.0
C663 C 0.87107 0.76321 0.83592 0.0
H664 H 0.62003 0.8061 0.71481 0.0
H665 H 0.67124 0.75404 0.75427 0.0
H666 H 0.62787 0.77947 0.76594 0.0
H667 H 0.69859 0.77934 0.63592 0.0
H668 H 0.90955 0.78072 0.97955 0.0
H669 H 0.88668 0.81841 0.88861 0.0
H670 H 0.87861 0.71886 0.8726 0.0
H671 H 0.904 0.82566 0.95401 0.0
Co672 Co 0.0679 0.94688 0.47619 0.0
Co673 Co 0.07591 0.98016 0.54614 0.0
Co674 Co 0.04729 1.01501 0.50364 0.0
O675 O 0.07955 0.9917 0.49682 0.0
H676 H 0.10274 1.00461 0.48835 0.0
O677 O 1.01541 0.03869 0.51037 0.0
Co678 Co 1.02809 0.08385 0.53024 0.0
Co679 Co 1.01885 0.04992 0.46107 0.0
H680 H 0.99219 0.02611 0.51924 0.0
O681 O 0.11244 0.97847 0.56105 0.0
O682 O 0.07048 0.93756 0.53083 0.0
O683 O 1.04063 0.98386 0.58669 0.0
O684 O 1.01149 0.98626 0.54187 0.0
O685 O 0.07043 0.04404 0.54734 0.0
O686 O 1.03626 0.12435 0.54863 0.0
O687 O 0.98533 0.0855 0.54118 0.0
O688 O 0.07574 0.0888 0.52493 0.0
O689 O 0.08268 0.04396 0.46543 0.0
O690 O 0.05283 0.04352 0.41978 0.0
O691 O 1.02885 0.09356 0.47537 0.0
O692 O 0.98356 0.05581 0.44763 0.0
C693 C 0.09284 0.9154 0.4548 0.0
C694 C 1.00956 0.95545 0.46169 0.0
C695 C 1.01249 0.97913 0.5754 0.0
C696 C 0.09896 0.94829 0.54734 0.0
C697 C 1.00346 0.11575 0.55062 0.0
C698 C 0.0853 0.0741 0.54614 0.0
C699 C 0.08128 0.05014 0.43149 0.0
C700 C 1.00074 0.0857 0.45923 0.0
O701 O 0.06004 0.90669 0.45733 0.0
O702 O 0.11094 0.94583 0.46331 0.0
O703 O 1.0241 0.98557 0.46014 0.0
O704 O 1.01972 0.94118 0.48298 0.0
Co705 Co 0.58202 0.95932 0.96397 0.0
Co706 Co 0.55608 0.96031 0.03134 0.0
Co707 Co 0.54303 0.02024 0.01302 0.0
O708 O 0.5761 0.99531 1.00526 0.0
H709 H 0.59754 1.00867 0.01466 0.0
O710 O 0.50966 0.04491 0.0208 0.0
Co711 Co 0.50682 0.08273 0.06009 0.0
Co712 Co 0.52648 0.07755 0.99025 0.0
H713 H 0.48727 0.03075 0.01483 0.0
O714 O 0.58108 0.95717 0.06492 0.0
O715 O 0.57134 0.92872 1.00428 0.0
O716 O 0.50889 0.94857 0.04977 0.0
O717 O 0.51321 1.00007 0.06154 0.0
O718 O 0.57504 0.05532 0.04713 0.0
O719 O 0.50159 0.11521 0.09584 0.0
O720 O 0.45953 0.07588 0.0672 0.0
O721 O 0.55493 0.09638 0.05986 0.0
O722 O 0.57242 0.04016 0.96401 0.0
O723 O 0.57367 0.09066 0.97084 0.0
O724 O 0.51254 0.10956 0.01808 0.0
O725 O 0.4962 0.07856 0.96092 0.0
C726 C 0.62234 0.94134 0.93596 0.0
C727 C 0.50978 0.95718 0.96184 0.0
C728 C 0.49711 0.97033 0.06638 0.0
C729 C 0.58361 0.93375 0.03789 0.0
C730 C 0.46943 0.10258 0.09168 0.0
C731 C 0.57854 0.08496 0.05835 0.0
C732 C 0.58711 0.06956 0.95696 0.0
C733 C 0.49395 0.10132 0.98915 0.0
O734 O 0.59159 0.92827 0.9262 0.0
O735 O 0.62819 0.96651 0.9632 0.0
O736 O 0.51138 0.98524 0.97927 0.0
O737 O 0.53445 0.94647 0.95736 0.0
Co738 Co 0.07861 0.45306 0.95984 0.0
Co739 Co 0.07452 0.47199 0.0353 0.0
Co740 Co 1.04167 0.51501 1.00347 0.0
O741 O 0.07779 0.49375 0.99362 0.0
H742 H 0.10029 0.50991 0.99109 0.0
O743 O 1.00545 0.53671 0.01406 0.0
Co744 Co 1.00933 0.57988 0.04547 0.0
Co745 Co 1.0088 0.55721 0.97121 0.0
H746 H 0.98271 0.52128 0.01853 0.0
O747 O 0.11259 0.46848 0.04806 0.0
O748 O 0.07556 0.43292 0.00787 0.0
O749 O 1.03478 0.46489 0.07329 0.0
O750 O 1.00799 0.48433 0.04056 0.0
O751 O 0.06467 0.54537 0.04771 0.0
O752 O 1.01032 0.61787 0.07369 0.0
O753 O 0.96288 0.57692 0.06057 0.0
O754 O 0.05841 0.59055 0.03765 0.0
O755 O 0.07568 0.54576 0.96629 0.0
O756 O 0.04866 0.56497 0.9338 0.0
O757 O 1.00777 0.59666 0.99676 0.0
O758 O 0.97038 0.55902 0.95848 0.0
C759 C 0.1166 0.4323 0.9315 0.0
C760 C 1.01036 0.45349 0.95328 0.0
C761 C 1.00798 0.46856 0.06761 0.0
C762 C 0.10163 0.44041 0.02732 0.0
C763 C 0.97728 0.60677 0.07654 0.0
C764 C 0.07411 0.5762 0.0515 0.0
C765 C 0.07573 0.562 0.9397 0.0
C766 C 0.98029 0.58725 0.97914 0.0
O767 O 0.08429 0.41699 0.92866 0.0
O768 O 0.12523 0.46115 0.95166 0.0
O769 O 1.01852 0.48433 0.95915 0.0
O770 O 1.02919 0.43908 0.96091 0.0
Co771 Co 0.55764 0.44419 0.99308 0.0
Co772 Co 0.56791 0.48623 0.05582 0.0
Co773 Co 0.54407 0.516 1.00333 0.0
O774 O 0.57275 0.49026 1.003 0.0
H775 H 0.59637 0.50075 0.99328 0.0
O776 O 0.51543 0.54236 1.00476 0.0
Co777 Co 0.5333 0.58847 0.0189 0.0
Co778 Co 0.5197 0.55036 0.95426 0.0
H779 H 0.49188 0.53227 0.01504 0.0
O780 O 0.60139 0.48125 0.07407 0.0
O781 O 0.55414 0.44218 0.05171 0.0
O782 O 0.53529 0.49919 0.09415 0.0
O783 O 0.50717 0.49286 0.04465 0.0
O784 O 0.56989 0.54833 0.04338 0.0
O785 O 0.54705 0.62981 0.03307 0.0
O786 O 0.4929 0.59517 0.03301 0.0
O787 O 0.57857 0.58863 0.01025 0.0
O788 O 0.58064 0.53878 0.96131 0.0
O789 O 0.55237 0.53928 0.91449 0.0
O790 O 0.53178 0.59455 0.96305 0.0
O791 O 0.48477 0.5555 0.93961 0.0
C792 C 0.5798 0.4102 0.98447 0.0
C793 C 0.50334 0.45402 0.96782 0.0
C794 C 0.50733 0.49136 0.08079 0.0
C795 C 0.58143 0.45127 0.06983 0.0
C796 C 0.51471 0.62423 0.04092 0.0
C797 C 0.58647 0.57715 0.03645 0.0
C798 C 0.58025 0.54409 0.92662 0.0
C799 C 0.50335 0.58567 0.94719 0.0
O800 O 0.54731 0.40223 0.9838 0.0
O801 O 0.59903 0.44058 0.98844 0.0
O802 O 0.51883 0.48357 0.96314 0.0
O803 O 0.51117 0.44141 0.99314 0.0
Co804 Co 0.09793 0.47873 0.50509 0.0
Co805 Co 0.0873 0.48026 0.43645 0.0
Co806 Co 1.04119 0.51668 0.50592 0.0
O807 O 0.05892 0.47929 0.48468 0.0
H808 H 1.04055 0.45877 0.48502 0.0
O809 O 1.02318 0.5537 0.52731 0.0
Co810 Co 0.98492 0.5536 0.50529 0.0
Co811 Co 0.99154 0.55097 0.57188 0.0
H812 H 1.04134 0.57439 0.52838 0.0
O813 O 0.09176 0.44181 0.40482 0.0
O814 O 0.12362 0.47236 0.45148 0.0
O815 O 0.10406 0.52286 0.41923 0.0
O816 O 0.07379 0.54639 0.46636 0.0
O817 O 1.00581 0.49665 0.46866 0.0
O818 O 0.95336 0.55585 0.48122 0.0
O819 O 1.00159 0.59569 0.49773 0.0
O820 O 0.96349 0.50856 0.50737 0.0
O821 O 1.00912 0.48691 0.54547 0.0
O822 O 0.97457 0.50852 0.5883 0.0
O823 O 0.95788 0.5644 0.5588 0.0
O824 O 0.99057 0.58671 0.60809 0.0
C825 C 0.11176 0.44565 0.52448 0.0
C826 C 0.10784 0.54136 0.53374 0.0
C827 C 0.09643 0.54747 0.4359 0.0
C828 C 0.11736 0.44772 0.42384 0.0
C829 C 0.9746 0.58506 0.47942 0.0
C830 C 0.97404 0.48981 0.48056 0.0
C831 C 0.9848 0.48502 0.57407 0.0
C832 C 0.9651 0.58497 0.59106 0.0
O833 O 0.13106 0.47575 0.52615 0.0
O834 O 0.08351 0.43564 0.50856 0.0
O835 O 0.07621 0.53689 0.54355 0.0
O836 O 0.11749 0.52343 0.50522 0.0
Co837 Co 0.59597 0.9706 0.50854 0.0
Co838 Co 0.58882 0.9762 0.44014 0.0
Co839 Co 0.54242 1.01399 0.50884 0.0
O840 O 0.55915 0.97578 0.48747 0.0
H841 H 0.53993 0.95585 0.48631 0.0
O842 O 0.5265 0.05268 0.52977 0.0
Co843 Co 0.49084 0.05857 0.508 0.0
Co844 Co 0.49469 0.05158 0.57329 0.0
H845 H 0.54579 0.07247 0.53228 0.0
O846 O 0.59214 0.93857 0.40584 0.0
O847 O 0.62318 0.96486 0.45498 0.0
O848 O 0.60558 0.01843 0.42261 0.0
O849 O 0.5719 0.04093 0.46599 0.0
O850 O 0.50351 0.99213 0.47544 0.0
O851 O 0.46192 0.06695 0.48409 0.0
O852 O 0.51185 0.10112 0.50381 0.0
O853 O 0.46533 1.01406 0.50738 0.0
O854 O 0.51345 0.98728 0.55232 0.0
O855 O 0.47834 1.01032 0.59222 0.0
O856 O 0.46331 0.06879 0.5621 0.0
O857 O 0.49738 0.08748 0.61022 0.0
C858 C 0.60438 0.9331 0.52583 0.0
C859 C 0.61188 0.03815 0.53353 0.0
C860 C 0.59538 0.04202 0.43662 0.0
C861 C 0.61713 0.94217 0.42482 0.0
C862 C 0.48556 0.09527 0.4856 0.0
C863 C 0.47265 0.99156 0.48391 0.0
C864 C 0.4896 0.98715 0.58096 0.0
C865 C 0.47151 0.0876 0.59539 0.0
O866 O 0.62608 0.96232 0.53042 0.0
O867 O 0.57747 0.92723 0.50868 0.0
O868 O 0.58068 0.03594 0.54267 0.0
O869 O 0.62023 1.01559 0.51185 0.0
H870 H 0.18067 0.19611 0.30509 0.0
H871 H 0.27503 0.18861 0.32517 0.0
H872 H 0.24239 0.14273 0.36175 0.0
H873 H 0.13313 0.17541 0.39755 0.0
H874 H 0.09378 0.15174 0.37785 0.0
H875 H 0.12436 0.18435 0.35315 0.0
H876 H 0.12587 0.14541 0.28873 0.0
H877 H 0.09501 0.11267 0.31306 0.0
H878 H 0.13513 0.10955 0.28911 0.0
H879 H 0.19928 0.09893 0.39971 0.0
H880 H 0.14875 0.05919 0.43251 0.0
H881 H 0.08292 0.09206 0.38294 0.0
C882 C 0.19454 0.18454 0.31653 0.0
C883 C 0.23059 0.19604 0.31162 0.0
C884 C 0.24749 0.18044 0.32816 0.0
C885 C 0.22916 0.15422 0.3491 0.0
C886 C 0.19375 0.14337 0.3531 0.0
C887 C 0.17659 0.15786 0.337 0.0
C888 C 0.13837 0.14122 0.34527 0.0
C889 C 0.12143 0.16458 0.36992 0.0
C890 C 0.12267 0.12632 0.30675 0.0
C891 C 0.13683 0.1154 0.36878 0.0
C892 C 0.16903 0.11719 0.37331 0.0
C893 C 0.17391 0.09698 0.39584 0.0
C894 C 0.14513 0.07446 0.41435 0.0
C895 C 0.11189 0.07195 0.40967 0.0
C896 C 0.10794 0.09267 0.38628 0.0
H897 H 0.98485 0.21902 0.35612 0.0
H898 H 0.87616 0.16436 0.37275 0.0
H899 H 0.88496 0.1387 0.4233 0.0
H900 H 1.00935 0.15591 0.35292 0.0
H901 H 0.04636 0.17623 0.37832 0.0
H902 H 1.03142 0.19863 0.35291 0.0
H903 H 1.0271 0.23714 0.41718 0.0
H904 H 1.04178 0.21452 0.443 0.0
H905 H 1.002 0.22087 0.46096 0.0
H906 H 0.90457 0.10949 0.45882 0.0
H907 H 0.93429 0.07714 0.47531 0.0
H908 H 1.03159 0.14626 0.43526 0.0
C909 C 0.9627 0.20209 0.37072 0.0
C910 C 0.92963 0.19436 0.36009 0.0
C911 C 0.90163 0.17204 0.38061 0.0
C912 C 0.90637 0.157 0.4096 0.0
C913 C 0.93929 0.16409 0.41791 0.0
C914 C 0.9671 0.18612 0.3992 0.0
C915 C 1.00015 0.18506 0.40867 0.0
C916 C 1.02313 0.17854 0.37096 0.0
C917 C 1.01887 0.21626 0.43396 0.0
C918 C 0.98643 0.15687 0.43243 0.0
C919 C 0.95119 0.14617 0.43864 0.0
C920 C 0.93212 0.11811 0.45513 0.0
C921 C 0.94926 0.09977 0.46413 0.0
C922 C 0.98519 0.10952 0.45704 0.0
C923 C 1.00418 0.13899 0.44222 0.0
H924 H 0.88751 0.811 0.32557 0.0
H925 H 0.85297 0.88249 0.29611 0.0
H926 H 0.88871 0.92375 0.34244 0.0
H927 H 0.89016 0.84092 0.42912 0.0
H928 H 0.92805 0.83277 0.43171 0.0
H929 H 0.8995 0.8084 0.39653 0.0
H930 H 0.94913 0.82132 0.33989 0.0
H931 H 0.97793 0.84548 0.37484 0.0
H932 H 0.97408 0.86273 0.33398 0.0
H933 H 0.92765 0.95714 0.39118 0.0
H934 H 0.97117 0.98236 0.43601 0.0
H935 H 0.98193 0.89002 0.4349 0.0
C936 C 0.88753 0.83537 0.32875 0.0
C937 C 0.86737 0.84348 0.30706 0.0
C938 C 0.86824 0.87565 0.31212 0.0
C939 C 0.88829 0.89923 0.33861 0.0
C940 C 0.90742 0.89033 0.35985 0.0
C941 C 0.90748 0.85928 0.35508 0.0
C942 C 0.9311 0.85642 0.38097 0.0
C943 C 0.911 0.83326 0.41139 0.0
C944 C 0.95976 0.84587 0.35592 0.0
C945 C 0.94477 0.89094 0.40059 0.0
C946 C 0.93034 0.90986 0.38814 0.0
C947 C 0.93914 0.9426 0.40112 0.0
C948 C 0.96399 0.9567 0.42664 0.0
C949 C 0.98015 0.93825 0.43903 0.0
C950 C 0.96984 0.90471 0.42636 0.0
H951 H 0.08367 0.73717 0.42617 0.0
H952 H 0.19249 0.77294 0.42861 0.0
H953 H 0.19038 0.82597 0.4596 0.0
H954 H 0.07685 0.79141 0.39039 0.0
H955 H 1.03893 0.79677 0.41853 0.0
H956 H 0.04537 0.7593 0.41514 0.0
H957 H 1.04083 0.76407 0.49231 0.0
H958 H 1.03152 0.80028 0.49421 0.0
H959 H 0.0657 0.80108 0.51866 0.0
H960 H 0.18132 0.87722 0.45395 0.0
H961 H 0.16064 0.92018 0.44593 0.0
H962 H 0.05739 0.85151 0.45243 0.0
C963 C 0.10655 0.75559 0.4359 0.0
C964 C 0.13823 0.75152 0.42433 0.0
C965 C 0.16798 0.77592 0.43693 0.0
C966 C 0.16712 0.80633 0.45375 0.0
C967 C 0.13629 0.8114 0.45819 0.0
C968 C 0.10601 0.78616 0.45233 0.0
C969 C 0.0771 0.79843 0.4544 0.0
C970 C 0.05853 0.78573 0.41743 0.0
C971 C 0.0523 0.79051 0.49212 0.0
C972 C 0.0967 0.83406 0.45648 0.0
C973 C 0.13071 0.84136 0.4591 0.0
C974 C 0.1544 0.87205 0.45421 0.0
C975 C 0.14254 0.89623 0.44927 0.0
C976 C 0.10731 0.88965 0.45046 0.0
C977 C 0.08447 0.85785 0.45281 0.0
H978 H 0.17948 0.8529 0.64396 0.0
H979 H 0.27399 0.89991 0.57269 0.0
H980 H 0.24247 0.91669 0.53368 0.0
H981 H 0.1253 0.82742 0.55729 0.0
H982 H 0.08931 0.83326 0.58961 0.0
H983 H 0.11806 0.81959 0.60763 0.0
H984 H 0.12759 0.86737 0.66384 0.0
H985 H 0.09924 0.88123 0.64573 0.0
H986 H 0.14214 0.90789 0.65171 0.0
H987 H 0.20547 0.94049 0.51578 0.0
H988 H 0.16198 0.96247 0.51023 0.0
H989 H 0.08773 0.89522 0.58456 0.0
C990 C 0.19334 0.86569 0.61922 0.0
C991 C 0.22942 0.87563 0.61199 0.0
C992 C 0.24658 0.89273 0.57962 0.0
C993 C 0.22882 0.90206 0.55691 0.0
C994 C 0.19365 0.89334 0.566 0.0
C995 C 0.17577 0.87471 0.59552 0.0
C996 C 0.13819 0.87078 0.60052 0.0
C997 C 0.11643 0.83567 0.58802 0.0
C998 C 0.12611 0.88253 0.64296 0.0
C999 C 0.1385 0.89249 0.57173 0.0
C1000 C 0.17091 0.90491 0.55201 0.0
C1001 C 0.17961 0.9297 0.52928 0.0
C1002 C 0.15466 0.942 0.52625 0.0
C1003 C 0.12093 0.92903 0.5447 0.0
C1004 C 0.11262 0.90379 0.5677 0.0
H1005 H 0.19978 0.21725 0.68872 0.0
H1006 H 0.23709 0.14743 0.71733 0.0
H1007 H 0.20333 0.10601 0.66923 0.0
H1008 H 0.11482 0.16372 0.67611 0.0
H1009 H 0.11171 0.18166 0.63547 0.0
H1010 H 0.13882 0.20563 0.67214 0.0
H1011 H 0.19002 0.22109 0.61761 0.0
H1012 H 0.16319 0.19683 0.58073 0.0
H1013 H 0.20142 0.18979 0.58469 0.0
H1014 H 0.16581 0.07246 0.61877 0.0
H1015 H 0.12366 0.04725 0.57209 0.0
H1016 H 0.11089 0.13887 0.5747 0.0
C1017 C 0.20074 0.19321 0.68503 0.0
C1018 C 0.22109 0.18553 0.7068 0.0
C1019 C 0.22157 0.15379 0.70115 0.0
C1020 C 0.2027 0.13021 0.67368 0.0
C1021 C 0.18354 0.13878 0.65212 0.0
C1022 C 0.18222 0.16944 0.6576 0.0
C1023 C 0.15926 0.17222 0.63092 0.0
C1024 C 0.12938 0.18134 0.65511 0.0
C1025 C 0.17969 0.19642 0.60176 0.0
C1026 C 0.14725 0.13806 0.61008 0.0
C1027 C 0.16193 0.11936 0.62258 0.0
C1028 C 0.15421 0.08684 0.6087 0.0
C1029 C 0.13018 0.07276 0.58217 0.0
C1030 C 0.11393 0.09108 0.56973 0.0
C1031 C 0.12318 0.12437 0.58327 0.0
H1032 H 1.00605 0.29288 0.61499 0.0
H1033 H 0.90015 0.25822 0.59631 0.0
H1034 H 0.90559 0.20749 0.56024 0.0
H1035 H 1.03651 0.24416 0.51944 0.0
H1036 H 0.06575 0.23835 0.54623 0.0
H1037 H 0.0565 0.2752 0.55694 0.0
H1038 H 1.04014 0.26587 0.62999 0.0
H1039 H 0.04723 0.22822 0.61954 0.0
H1040 H 1.00632 0.22956 0.64303 0.0
H1041 H 0.91607 0.15534 0.551 0.0
H1042 H 0.93706 0.11036 0.54792 0.0
H1043 H 1.03651 0.17952 0.57049 0.0
C1044 C 0.98475 0.2754 0.60098 0.0
C1045 C 0.95282 0.27923 0.60809 0.0
C1046 C 0.9249 0.25561 0.59075 0.0
C1047 C 0.92765 0.22659 0.57073 0.0
C1048 C 0.95848 0.22186 0.56829 0.0
C1049 C 0.98707 0.24619 0.58131 0.0
C1050 C 1.01583 0.23384 0.57987 0.0
C1051 C 0.0454 0.24874 0.54874 0.0
C1052 C 1.02804 0.23972 0.62052 0.0
C1053 C 0.99799 0.19845 0.56745 0.0
C1054 C 0.96504 0.19188 0.56057 0.0
C1055 C 0.94237 0.1603 0.55433 0.0
C1056 C 0.95432 0.13491 0.55318 0.0
C1057 C 0.98862 0.14141 0.55784 0.0
C1058 C 1.01033 0.17363 0.56575 0.0
H1059 H 0.90652 0.83527 0.70145 0.0
H1060 H 0.81597 0.85752 0.70004 0.0
H1061 H 0.85032 0.90236 0.66176 0.0
H1062 H 0.96294 0.91922 0.71569 0.0
H1063 H 0.99871 0.9107 0.686 0.0
H1064 H 0.96657 0.88024 0.71273 0.0
H1065 H 0.95735 0.84105 0.6479 0.0
H1066 H 0.98919 0.87144 0.62091 0.0
H1067 H 0.94687 0.85305 0.60675 0.0
H1068 H 0.895 0.94298 0.61885 0.0
H1069 H 0.94658 0.97852 0.58182 0.0
H1070 H 1.0077 0.93279 0.61844 0.0
C1071 C 0.89395 0.85001 0.6941 0.0
C1072 C 0.85849 0.8429 0.70425 0.0
C1073 C 0.84309 0.86239 0.69272 0.0
C1074 C 0.8624 0.88796 0.67091 0.0
C1075 C 0.8973 0.89426 0.66139 0.0
C1076 C 0.91296 0.87611 0.67325 0.0
C1077 C 0.9509 0.88811 0.66009 0.0
C1078 C 0.97097 0.9003 0.69575 0.0
C1079 C 0.96169 0.86185 0.63226 0.0
C1080 C 0.95414 0.91556 0.63852 0.0
C1081 C 0.92296 0.9186 0.63906 0.0
C1082 C 0.91963 0.94116 0.61887 0.0
C1083 C 0.94897 0.96121 0.59788 0.0
C1084 C 0.98123 0.95896 0.59796 0.0
C1085 C 0.98357 0.93578 0.61866 0.0
H1086 H 0.32532 0.19024 0.1476 0.0
H1087 H 0.379 0.23932 0.24843 0.0
H1088 H 0.41602 0.20705 0.2301 0.0
H1089 H 0.33178 0.11095 0.14549 0.0
H1090 H 0.34091 0.1037 0.09275 0.0
H1091 H 0.31605 0.12882 0.11448 0.0
H1092 H 0.35815 0.17505 0.07689 0.0
H1093 H 0.38292 0.14992 0.05491 0.0
H1094 H 0.40289 0.18874 0.08176 0.0
H1095 H 0.44786 0.17075 0.2026 0.0
H1096 H 0.47749 0.13571 0.16366 0.0
H1097 H 0.4094 0.11002 0.07459 0.0
C1098 C 0.34471 0.19405 0.16588 0.0
C1099 C 0.34856 0.21749 0.2002 0.0
C1100 C 0.37488 0.22167 0.22256 0.0
C1101 C 0.39625 0.2033 0.21227 0.0
C1102 C 0.39204 0.1808 0.1786 0.0
C1103 C 0.36741 0.17629 0.15512 0.0
C1104 C 0.37064 0.15171 0.11891 0.0
C1105 C 0.33789 0.12202 0.11785 0.0
C1106 C 0.37915 0.16729 0.08087 0.0
C1107 C 0.40061 0.14308 0.12626 0.0
C1108 C 0.412 0.16021 0.16126 0.0
C1109 C 0.43924 0.1573 0.17511 0.0
C1110 C 0.45598 0.13711 0.15255 0.0
C1111 C 0.4461 0.1196 0.11587 0.0
C1112 C 0.41746 0.12241 0.10274 0.0
H1113 H 0.89446 0.35024 0.22369 0.0
H1114 H 0.80972 0.32751 0.15747 0.0
H1115 H 0.84489 0.36944 0.11543 0.0
H1116 H 0.92548 0.438 0.21889 0.0
H1117 H 0.96954 0.44176 0.2151 0.0
H1118 H 0.93706 0.41131 0.24157 0.0
H1119 H 0.9592 0.36961 0.19912 0.0
H1120 H 0.99041 0.39766 0.16914 0.0
H1121 H 0.95907 0.36275 0.14643 0.0
H1122 H 0.89063 0.4119 0.07779 0.0
H1123 H 0.94366 0.44951 0.04655 0.0
H1124 H 0.99823 0.44512 0.13774 0.0
C1125 C 0.88326 0.35411 0.2004 0.0
C1126 C 0.84928 0.3354 0.19383 0.0
C1127 C 0.83559 0.34152 0.16322 0.0
C1128 C 0.85537 0.36537 0.13919 0.0
C1129 C 0.88874 0.38336 0.1464 0.0
C1130 C 0.90253 0.37814 0.17642 0.0
C1131 C 0.93925 0.40044 0.17744 0.0
C1132 C 0.94305 0.4243 0.2155 0.0
C1133 C 0.9634 0.38141 0.17259 0.0
C1134 C 0.94455 0.41751 0.14196 0.0
C1135 C 0.9149 0.40793 0.12497 0.0
C1136 C 0.9139 0.41976 0.0911 0.0
C1137 C 0.94416 0.44125 0.07363 0.0
C1138 C 0.97516 0.45034 0.08967 0.0
C1139 C 0.97498 0.43871 0.12476 0.0
H1140 H 0.67268 0.88862 0.18474 0.0
H1141 H 0.74267 0.86942 0.08447 0.0
H1142 H 0.704 0.86956 0.03974 0.0
H1143 H 0.59173 0.84615 0.14007 0.0
H1144 H 0.57485 0.87724 0.1633 0.0
H1145 H 0.60365 0.86791 0.1871 0.0
H1146 H 0.64354 0.92769 0.19145 0.0
H1147 H 0.61488 0.93713 0.16792 0.0
H1148 H 0.65894 0.94674 0.14721 0.0
H1149 H 0.6604 0.87838 1.00564 0.0
H1150 H 0.62096 0.90064 0.98703 0.0
H1151 H 0.58447 0.91986 0.10994 0.0
C1152 C 0.67986 0.88405 0.1534 0.0
C1153 C 0.7109 0.87903 0.13834 0.0
C1154 C 0.71884 0.87278 0.097 0.0
C1155 C 0.69698 0.87285 0.07125 0.0
C1156 C 0.66721 0.87914 0.0872 0.0
C1157 C 0.65876 0.88467 0.12744 0.0
C1158 C 0.62817 0.89537 0.13747 0.0
C1159 C 0.59781 0.87015 0.15821 0.0
C1160 C 0.63693 0.9287 0.16245 0.0
C1161 C 0.62177 0.89668 0.09668 0.0
C1162 C 0.64363 0.88613 0.0679 0.0
C1163 C 0.64317 0.88662 0.02805 0.0
C1164 C 0.62084 0.89948 0.01764 0.0
C1165 C 0.60045 0.91284 0.047 0.0
C1166 C 0.60006 0.91012 0.0868 0.0
H1167 H 0.20119 0.73152 0.16982 0.0
H1168 H 0.25248 0.66881 0.18761 0.0
H1169 H 0.21359 0.6236 0.14843 0.0
H1170 H 0.11696 0.67307 0.17742 0.0
H1171 H 0.10306 0.68645 0.14002 0.0
H1172 H 0.13576 0.71448 0.16826 0.0
H1173 H 0.17622 0.72866 0.10403 0.0
H1174 H 0.14365 0.70069 0.07553 0.0
H1175 H 0.18505 0.69695 0.06915 0.0
H1176 H 0.16859 0.58475 0.1089 0.0
H1177 H 0.11993 0.55438 0.07198 0.0
H1178 H 0.09686 0.64155 0.07884 0.0
C1179 C 0.20449 0.70839 0.16512 0.0
C1180 C 0.23012 0.70386 0.18177 0.0
C1181 C 0.23315 0.673 0.17529 0.0
C1182 C 0.21118 0.64711 0.15295 0.0
C1183 C 0.18616 0.65231 0.13715 0.0
C1184 C 0.18263 0.68214 0.14288 0.0
C1185 C 0.1529 0.68084 0.12339 0.0
C1186 C 0.12555 0.6892 0.15411 0.0
C1187 C 0.1652 0.70311 0.0911 0.0
C1188 C 0.14027 0.64561 0.10594 0.0
C1189 C 0.15994 0.62971 0.11425 0.0
C1190 C 0.15306 0.59696 0.1021 0.0
C1191 C 0.12523 0.57989 0.08113 0.0
C1192 C 0.10439 0.59544 0.07231 0.0
C1193 C 0.11233 0.62891 0.08475 0.0
H1194 H 0.39786 0.82074 0.81389 0.0
H1195 H 0.30883 0.84366 0.86975 0.0
H1196 H 0.34458 0.88591 0.91619 0.0
H1197 H 0.4347 0.82912 0.90281 0.0
H1198 H 0.4773 0.84439 0.87779 0.0
H1199 H 0.44335 0.81669 0.85111 0.0
H1200 H 0.45811 0.8587 0.80162 0.0
H1201 H 0.49138 0.88603 0.82944 0.0
H1202 H 0.45817 0.89868 0.82039 0.0
H1203 H 0.39285 0.92749 0.95501 0.0
H1204 H 0.44603 0.96147 0.98308 0.0
H1205 H 0.50091 0.90634 0.90277 0.0
C1206 C 0.3853 0.83364 0.83629 0.0
C1207 C 0.35026 0.82824 0.83803 0.0
C1208 C 0.33564 0.84731 0.86737 0.0
C1209 C 0.35578 0.87126 0.89403 0.0
C1210 C 0.3904 0.8756 0.89113 0.0
C1211 C 0.40476 0.85694 0.86303 0.0
C1212 C 0.44235 0.86581 0.86515 0.0
C1213 C 0.44987 0.83732 0.87478 0.0
C1214 C 0.46375 0.87802 0.82689 0.0
C1215 C 0.44735 0.89263 0.89901 0.0
C1216 C 0.41727 0.89825 0.91357 0.0
C1217 C 0.41632 0.92293 0.94396 0.0
C1218 C 0.44672 0.94215 0.9597 0.0
C1219 C 0.47768 0.9364 0.94544 0.0
C1220 C 0.47769 0.91113 0.91479 0.0
H1221 H 0.18959 0.28859 0.82598 0.0
H1222 H 0.29026 0.36173 0.82014 0.0
H1223 H 0.26568 0.4026 0.85472 0.0
H1224 H 0.14705 0.33979 0.80674 0.0
H1225 H 0.10867 0.32308 0.83919 0.0
H1226 H 0.13409 0.29874 0.81643 0.0
H1227 H 0.13831 0.2874 0.8847 0.0
H1228 H 0.11334 0.312 0.90803 0.0
H1229 H 0.15492 0.32063 0.92185 0.0
H1230 H 0.23002 0.43658 0.89099 0.0
H1231 H 0.18643 0.46083 0.92118 0.0
H1232 H 0.1072 0.36779 0.90057 0.0
C1233 C 0.2065 0.31315 0.83233 0.0
C1234 C 0.24228 0.3216 0.82023 0.0
C1235 C 0.26303 0.3543 0.82877 0.0
C1236 C 0.2492 0.37785 0.84865 0.0
C1237 C 0.21405 0.36894 0.85972 0.0
C1238 C 0.19285 0.33739 0.85156 0.0
C1239 C 0.15571 0.33484 0.86492 0.0
C1240 C 0.13517 0.32343 0.82972 0.0
C1241 C 0.13961 0.31236 0.89678 0.0
C1242 C 0.15937 0.36969 0.88185 0.0
C1243 C 0.19337 0.38884 0.87892 0.0
C1244 C 0.20334 0.4217 0.89311 0.0
C1245 C 0.17823 0.43539 0.91035 0.0
C1246 C 0.14299 0.41669 0.91318 0.0
C1247 C 0.13372 0.38316 0.89866 0.0
H1248 H 0.75103 0.20232 0.86559 0.0
H1249 H 0.71366 0.1611 0.75315 0.0
H1250 H 0.67172 0.11409 0.78288 0.0
H1251 H 0.73581 0.12359 0.90135 0.0
H1252 H 0.72232 0.13767 0.95117 0.0
H1253 H 0.75335 0.16561 0.92015 0.0
H1254 H 0.71512 0.20127 0.93126 0.0
H1255 H 0.68623 0.17389 0.96413 0.0
H1256 H 0.67097 0.18188 0.92383 0.0
H1257 H 0.63073 0.07361 0.82545 0.0
H1258 H 0.58906 0.0469 0.87903 0.0
H1259 H 0.64946 0.11581 0.9651 0.0
C1260 C 0.73463 0.18287 0.84717 0.0
C1261 C 0.73596 0.18497 0.80688 0.0
C1262 C 0.71328 0.15972 0.78391 0.0
C1263 C 0.68948 0.13286 0.80054 0.0
C1264 C 0.68834 0.13158 0.84043 0.0
C1265 C 0.71008 0.15606 0.86363 0.0
C1266 C 0.70105 0.15029 0.90653 0.0
C1267 C 0.72985 0.14391 0.92063 0.0
C1268 C 0.6929 0.17855 0.93294 0.0
C1269 C 0.66959 0.11999 0.90404 0.0
C1270 C 0.66359 0.10886 0.86544 0.0
C1271 C 0.63539 0.08188 0.85575 0.0
C1272 C 0.61196 0.06665 0.88631 0.0
C1273 C 0.61643 0.0789 0.92603 0.0
C1274 C 0.64597 0.1055 0.93489 0.0
H1275 H 0.94815 0.74732 0.96266 0.0
H1276 H 0.85031 0.68435 0.92699 0.0
H1277 H 0.85851 0.63843 0.9475 0.0
H1278 H 0.99209 0.69631 0.9269 0.0
H1279 H 1.01763 0.70608 0.96648 0.0
H1280 H 1.00162 0.73519 0.95637 0.0
H1281 H 0.97274 0.73939 0.02841 0.0
H1282 H 0.98868 0.71015 0.0388 0.0
H1283 H 0.94372 0.70348 0.04819 0.0
H1284 H 0.87963 0.59876 0.9635 0.0
H1285 H 0.9136 0.56662 0.96967 0.0
H1286 H 0.99922 0.654 0.99451 0.0
C1287 C 0.92809 0.724 0.96017 0.0
C1288 C 0.89854 0.71937 0.94318 0.0
C1289 C 0.87321 0.68839 0.93959 0.0
C1290 C 0.87749 0.66226 0.95161 0.0
C1291 C 0.90719 0.66744 0.96739 0.0
C1292 C 0.93208 0.69753 0.97188 0.0
C1293 C 0.96311 0.69571 0.98578 0.0
C1294 C 0.99551 0.7091 0.95716 0.0
C1295 C 0.96732 0.71323 0.02778 0.0
C1296 C 0.95285 0.65959 0.98528 0.0
C1297 C 0.91995 0.64404 0.976 0.0
C1298 C 0.90525 0.61068 0.97118 0.0
C1299 C 0.92494 0.59262 0.9745 0.0
C1300 C 0.95926 0.60775 0.98215 0.0
C1301 C 0.97303 0.64177 0.98892 0.0
H1302 H 0.12398 0.28195 0.07003 0.0
H1303 H 0.2309 0.33891 0.07355 0.0
H1304 H 0.22243 0.38306 0.04876 0.0
H1305 H 0.11305 0.31044 0.98228 0.0
H1306 H 0.07131 0.31173 1.00179 0.0
H1307 H 0.08574 0.28275 0.0157 0.0
H1308 H 0.0748 0.3035 0.08924 0.0
H1309 H 0.05949 0.33204 0.07613 0.0
H1310 H 0.09369 0.34578 0.10612 0.0
H1311 H 0.20176 0.42256 0.0299 0.0
H1312 H 0.16982 0.45636 0.02189 0.0
H1313 H 0.07559 0.37474 0.03031 0.0
C1314 C 0.14568 0.30353 0.06484 0.0
C1315 C 0.17818 0.30705 0.0735 0.0
C1316 C 0.20583 0.33584 0.0672 0.0
C1317 C 0.20128 0.36089 0.05284 0.0
C1318 C 0.16887 0.35687 0.04503 0.0
C1319 C 0.14145 0.329 0.05097 0.0
C1320 C 0.10872 0.33208 0.04371 0.0
C1321 C 0.09381 0.30781 0.00879 0.0
C1322 C 0.08265 0.32813 0.08102 0.0
C1323 C 0.12186 0.36638 0.03384 0.0
C1324 C 0.15675 0.37996 0.03422 0.0
C1325 C 0.17454 0.41207 0.02902 0.0
C1326 C 0.15616 0.4311 0.0246 0.0
C1327 C 0.12033 0.4181 0.02526 0.0
C1328 C 0.10306 0.38506 0.02882 0.0
H1329 H 0.19164 0.70349 0.81527 0.0
H1330 H 0.28144 0.68718 0.83412 0.0
H1331 H 0.24445 0.6423 0.87177 0.0
H1332 H 0.14378 0.68686 0.91 0.0
H1333 H 0.10396 0.66863 0.88964 0.0
H1334 H 0.13853 0.69952 0.86631 0.0
H1335 H 0.13465 0.66042 0.80066 0.0
H1336 H 0.10059 0.62952 0.82465 0.0
H1337 H 0.13835 0.62177 0.79994 0.0
H1338 H 0.1952 0.59838 0.90869 0.0
H1339 H 0.14088 0.56193 0.93986 0.0
H1340 H 0.08536 0.60764 0.89257 0.0
C1341 C 0.20384 0.69077 0.82718 0.0
C1342 C 0.23965 0.69918 0.82149 0.0
C1343 C 0.25412 0.68147 0.83807 0.0
C1344 C 0.23324 0.65583 0.85944 0.0
C1345 C 0.1979 0.64808 0.86395 0.0
C1346 C 0.18352 0.66528 0.84821 0.0
C1347 C 0.1451 0.65263 0.85657 0.0
C1348 C 0.13207 0.67843 0.88215 0.0
C1349 C 0.12872 0.64035 0.81818 0.0
C1350 C 0.13973 0.62528 0.87924 0.0
C1351 C 0.17032 0.62298 0.88366 0.0
C1352 C 0.1712 0.59999 0.90505 0.0
C1353 C 0.14017 0.57928 0.92259 0.0
C1354 C 0.10859 0.58148 0.91843 0.0
C1355 C 0.10877 0.60473 0.89601 0.0
H1356 H 0.3369 0.10083 0.90315 0.0
H1357 H 0.3813 0.20473 0.91225 0.0
H1358 H 0.4216 0.20423 0.95514 0.0
H1359 H 0.35097 0.09331 1.00525 0.0
H1360 H 0.36003 0.05692 0.98647 0.0
H1361 H 0.33003 0.06652 0.96507 0.0
H1362 H 0.36478 0.06173 0.89629 0.0
H1363 H 0.39483 0.05239 0.91743 0.0
H1364 H 0.40937 0.08588 0.8894 0.0
H1365 H 0.46355 0.19082 0.98756 0.0
H1366 H 0.5023 0.16602 1.00328 0.0
H1367 H 0.43035 0.07134 0.97038 0.0
C1368 C 0.35445 0.12354 0.91518 0.0
C1369 C 0.35604 0.15279 0.90449 0.0
C1370 C 0.37943 0.18207 0.92052 0.0
C1371 C 0.4024 0.18197 0.94489 0.0
C1372 C 0.40117 0.15243 0.95346 0.0
C1373 C 0.37731 0.12379 0.93943 0.0
C1374 C 0.38344 0.095 0.94847 0.0
C1375 C 0.35439 0.07687 0.97808 0.0
C1376 C 0.38843 0.07247 0.91066 0.0
C1377 C 0.41596 0.11165 0.96702 0.0
C1378 C 0.42537 0.14479 0.97106 0.0
C1379 C 0.45602 0.1649 0.9851 0.0
C1380 C 0.47788 0.1507 0.99399 0.0
C1381 C 0.46921 0.11686 0.98777 0.0
C1382 C 0.43748 0.09731 0.97534 0.0
H1383 H 0.87645 0.30008 0.83878 0.0
H1384 H 0.81772 0.36134 0.84125 0.0
H1385 H 0.85883 0.40554 0.87917 0.0
H1386 H 0.90262 0.33009 0.93721 0.0
H1387 H 0.94477 0.32831 0.92241 0.0
H1388 H 0.90975 0.30074 0.89717 0.0
H1389 H 0.94281 0.31952 0.83085 0.0
H1390 H 0.97789 0.34724 0.85583 0.0
H1391 H 0.95809 0.36169 0.82539 0.0
H1392 H 0.90696 0.44381 0.91483 0.0
H1393 H 0.95918 0.47403 0.94564 0.0
H1394 H 0.98839 0.38902 0.92048 0.0
C1395 C 0.87197 0.32263 0.84786 0.0
C1396 C 0.84366 0.32716 0.83702 0.0
C1397 C 0.83918 0.35728 0.8489 0.0
C1398 C 0.86239 0.38255 0.87062 0.0
C1399 C 0.89022 0.37753 0.8803 0.0
C1400 C 0.89518 0.34836 0.86937 0.0
C1401 C 0.92811 0.34996 0.88229 0.0
C1402 C 0.92087 0.32584 0.91151 0.0
C1403 C 0.95321 0.34427 0.84646 0.0
C1404 C 0.94077 0.38454 0.90224 0.0
C1405 C 0.91838 0.39988 0.90072 0.0
C1406 C 0.92462 0.43201 0.9163 0.0
C1407 C 0.95454 0.44904 0.93372 0.0
C1408 C 0.9782 0.43411 0.93564 0.0
C1409 C 0.97089 0.40122 0.91981 0.0
H1410 H 0.69927 0.80893 0.8009 0.0
H1411 H 0.79325 0.86091 0.85158 0.0
H1412 H 0.76781 0.89929 0.89126 0.0
H1413 H 0.68142 0.88293 0.79516 0.0
H1414 H 0.63608 0.86262 0.8047 0.0
H1415 H 0.66331 0.84033 0.78087 0.0
H1416 H 0.63736 0.80226 0.8361 0.0
H1417 H 0.61182 0.82631 0.85962 0.0
H1418 H 0.64042 0.81978 0.88669 0.0
H1419 H 0.73137 0.93347 0.92677 0.0
H1420 H 0.68839 0.9594 0.953 0.0
H1421 H 0.61772 0.88775 0.87853 0.0
C1422 C 0.71456 0.8283 0.82038 0.0
C1423 C 0.7484 0.83057 0.82372 0.0
C1424 C 0.76709 0.85705 0.84939 0.0
C1425 C 0.75283 0.87956 0.87185 0.0
C1426 C 0.71952 0.87631 0.86838 0.0
C1427 C 0.70068 0.85149 0.84293 0.0
C1428 C 0.66565 0.85415 0.8441 0.0
C1429 C 0.66131 0.86035 0.80383 0.0
C1430 C 0.63712 0.82382 0.8574 0.0
C1431 C 0.66742 0.88367 0.87475 0.0
C1432 C 0.69891 0.89628 0.88813 0.0
C1433 C 0.70673 0.92369 0.91621 0.0
C1434 C 0.68201 0.93848 0.93098 0.0
C1435 C 0.64931 0.92618 0.91804 0.0
C1436 C 0.6423 0.89822 0.88927 0.0
H1437 H 0.82155 0.67635 0.1698 0.0
H1438 H 0.9014 0.76751 0.19777 0.0
H1439 H 0.94472 0.74338 0.16695 0.0
H1440 H 0.86267 0.62357 0.18508 0.0
H1441 H 0.84947 0.59406 0.14316 0.0
H1442 H 0.82389 0.61816 0.16634 0.0
H1443 H 0.8273 0.63744 0.09975 0.0
H1444 H 0.85279 0.61325 0.07633 0.0
H1445 H 0.86841 0.65577 0.07276 0.0
H1446 H 0.98005 0.70955 0.13653 0.0
H1447 H 1.00596 0.66957 0.10542 0.0
H1448 H 0.90567 0.59778 0.09198 0.0
C1449 C 0.84819 0.69117 0.16943 0.0
C1450 C 0.8578 0.72418 0.18666 0.0
C1451 C 0.89304 0.74253 0.18485 0.0
C1452 C 0.91799 0.72888 0.16739 0.0
C1453 C 0.90784 0.69656 0.15097 0.0
C1454 C 0.87382 0.6779 0.15119 0.0
C1455 C 0.87047 0.64388 0.13024 0.0
C1456 C 0.85043 0.6184 0.15786 0.0
C1457 C 0.85373 0.63718 0.09255 0.0
C1458 C 0.90782 0.64593 0.12015 0.0
C1459 C 0.92865 0.67685 0.13222 0.0
C1460 C 0.9639 0.68533 0.1269 0.0
C1461 C 0.97845 0.66202 0.10904 0.0
C1462 C 0.95837 0.62978 0.096 0.0
C1463 C 0.92216 0.62184 0.10158 0.0
H1464 H 0.3819 0.86089 0.22698 0.0
H1465 H 0.29448 0.85002 0.17141 0.0
H1466 H 0.33089 0.89303 0.13098 0.0
H1467 H 0.42395 0.94822 0.22611 0.0
H1468 H 0.46587 0.94542 0.21588 0.0
H1469 H 0.43208 0.91687 0.24369 0.0
H1470 H 0.44104 0.86906 0.19379 0.0
H1471 H 0.47578 0.89798 0.16777 0.0
H1472 H 0.44157 0.86966 0.14216 0.0
H1473 H 0.37903 0.93466 0.09231 0.0
H1474 H 0.43359 0.96666 0.05662 0.0
H1475 H 0.48909 0.94728 0.13555 0.0
C1476 C 0.37018 0.86749 0.20651 0.0
C1477 C 0.33518 0.8517 0.20238 0.0
C1478 C 0.32108 0.86173 0.17545 0.0
C1479 C 0.34165 0.88619 0.1523 0.0
C1480 C 0.37629 0.90063 0.15655 0.0
C1481 C 0.39035 0.8915 0.18308 0.0
C1482 C 0.42855 0.90889 0.18048 0.0
C1483 C 0.43817 0.93118 0.21882 0.0
C1484 C 0.44783 0.88496 0.17047 0.0
C1485 C 0.43423 0.92818 0.14695 0.0
C1486 C 0.40373 0.9239 0.13421 0.0
C1487 C 0.40292 0.93845 0.10247 0.0
C1488 C 0.434 0.95683 0.08253 0.0
C1489 C 0.46542 0.96008 0.09398 0.0
C1490 C 0.46536 0.94599 0.127 0.0
H1491 H 0.72076 0.16856 0.20391 0.0
H1492 H 0.75685 0.24974 0.13748 0.0
H1493 H 0.71761 0.21832 0.08873 0.0
H1494 H 0.70605 0.10413 0.11759 0.0
H1495 H 0.66787 0.07817 0.14298 0.0
H1496 H 0.70175 0.10539 0.17023 0.0
H1497 H 0.65975 0.13101 0.21478 0.0
H1498 H 0.62608 0.10269 0.1882 0.0
H1499 H 0.63421 0.14519 0.19194 0.0
H1500 H 0.66954 0.1817 0.05264 0.0
H1501 H 0.61731 0.14056 0.02923 0.0
H1502 H 0.61259 0.0813 0.11632 0.0
C1503 C 0.72114 0.17922 0.17834 0.0
C1504 C 0.74205 0.21148 0.17418 0.0
C1505 C 0.74116 0.22503 0.14105 0.0
C1506 C 0.71894 0.20736 0.11322 0.0
C1507 C 0.6978 0.17603 0.11876 0.0
C1508 C 0.69885 0.16187 0.15024 0.0
C1509 C 0.67158 0.1286 0.15061 0.0
C1510 C 0.68779 0.10253 0.14501 0.0
C1511 C 0.64644 0.12679 0.18864 0.0
C1512 C 0.6546 0.12667 0.11501 0.0
C1513 C 0.67026 0.15434 0.0971 0.0
C1514 C 0.65751 0.15963 0.06587 0.0
C1515 C 0.62783 0.13622 0.05281 0.0
C1516 C 0.61144 0.10763 0.07048 0.0
C1517 C 0.62527 0.10259 0.10163 0.0
H1518 H 0.68734 0.68998 0.80352 0.0
H1519 H 0.77762 0.69055 0.84544 0.0
H1520 H 0.74309 0.64295 0.87827 0.0
H1521 H 0.62948 0.66585 0.8901 0.0
H1522 H 0.59453 0.6404 0.86345 0.0
H1523 H 0.62628 0.67464 0.84286 0.0
H1524 H 0.63769 0.63758 0.77991 0.0
H1525 H 0.60594 0.60316 0.80026 0.0
H1526 H 0.64871 0.60342 0.78394 0.0
H1527 H 0.69838 0.59608 0.90891 0.0
H1528 H 0.64636 0.55455 0.93596 0.0
H1529 H 0.58589 0.58253 0.87145 0.0
C1530 C 0.6999 0.68012 0.81955 0.0
C1531 C 0.73538 0.69414 0.82153 0.0
C1532 C 0.75059 0.6804 0.84314 0.0
C1533 C 0.73118 0.65319 0.86191 0.0
C1534 C 0.69648 0.63967 0.8588 0.0
C1535 C 0.68093 0.65269 0.83824 0.0
C1536 C 0.64309 0.63367 0.83989 0.0
C1537 C 0.62213 0.65492 0.86029 0.0
C1538 C 0.63329 0.61856 0.79854 0.0
C1539 C 0.63984 0.60814 0.86478 0.0
C1540 C 0.67092 0.61204 0.87546 0.0
C1541 C 0.67394 0.59252 0.90034 0.0
C1542 C 0.6443 0.56888 0.91544 0.0
C1543 C 0.61207 0.56473 0.90534 0.0
C1544 C 0.61016 0.58434 0.879 0.0
H1545 H 0.4909 0.68975 0.79658 0.0
H1546 H 0.38161 0.64866 0.83124 0.0
H1547 H 0.39209 0.63198 0.8887 0.0
H1548 H 0.50701 0.62411 0.81481 0.0
H1549 H 0.54762 0.64652 0.83227 0.0
H1550 H 0.53265 0.66257 0.79869 0.0
H1551 H 0.53949 0.71452 0.84799 0.0
H1552 H 0.55405 0.6983 0.88205 0.0
H1553 H 0.51818 0.71169 0.89753 0.0
H1554 H 0.4118 0.61257 0.93626 0.0
H1555 H 0.43984 0.58591 0.96705 0.0
H1556 H 0.53675 0.63487 0.90187 0.0
C1557 C 0.46909 0.67761 0.81639 0.0
C1558 C 0.43533 0.67167 0.8094 0.0
C1559 C 0.40778 0.65523 0.83627 0.0
C1560 C 0.41342 0.64534 0.86922 0.0
C1561 C 0.44676 0.65137 0.87495 0.0
C1562 C 0.47423 0.66674 0.84917 0.0
C1563 C 0.50705 0.6656 0.85913 0.0
C1564 C 0.52459 0.64868 0.82416 0.0
C1565 C 0.53111 0.69956 0.87247 0.0
C1566 C 0.49327 0.64571 0.89317 0.0
C1567 C 0.45849 0.63868 0.9023 0.0
C1568 C 0.43907 0.61829 0.92991 0.0
C1569 C 0.45521 0.60332 0.94729 0.0
C1570 C 0.49048 0.60902 0.93743 0.0
C1571 C 0.51005 0.63128 0.91102 0.0
H1572 H 0.38856 0.29959 0.83686 0.0
H1573 H 0.3497 0.36487 0.79966 0.0
H1574 H 0.38588 0.40997 0.84131 0.0
H1575 H 0.39036 0.33573 0.93776 0.0
H1576 H 0.42889 0.32984 0.94299 0.0
H1577 H 0.40118 0.30268 0.90845 0.0
H1578 H 0.45179 0.31447 0.85251 0.0
H1579 H 0.4794 0.34168 0.88709 0.0
H1580 H 0.47526 0.35551 0.84358 0.0
H1581 H 0.42426 0.44774 0.88789 0.0
H1582 H 0.46577 0.47717 0.93451 0.0
H1583 H 0.47915 0.38815 0.94501 0.0
C1584 C 0.38792 0.32344 0.83725 0.0
C1585 C 0.36607 0.32855 0.81501 0.0
C1586 C 0.36616 0.36018 0.81621 0.0
C1587 C 0.38648 0.38602 0.84005 0.0
C1588 C 0.40668 0.37996 0.86266 0.0
C1589 C 0.40782 0.34958 0.8614 0.0
C1590 C 0.43144 0.34982 0.88937 0.0
C1591 C 0.41178 0.32823 0.92154 0.0
C1592 C 0.46125 0.33978 0.86678 0.0
C1593 C 0.44344 0.38515 0.90635 0.0
C1594 C 0.42869 0.40195 0.89041 0.0
C1595 C 0.436 0.4349 0.90061 0.0
C1596 C 0.45961 0.45139 0.92718 0.0
C1597 C 0.47564 0.43497 0.94353 0.0
C1598 C 0.46697 0.40126 0.93341 0.0
H1599 H 0.58813 0.23863 0.93311 0.0
H1600 H 0.68644 0.27773 0.97555 0.0
H1601 H 0.67207 0.32387 0.01269 0.0
H1602 H 0.58632 0.29768 0.90641 0.0
H1603 H 0.54337 0.29708 0.92205 0.0
H1604 H 0.55205 0.26043 0.9152 0.0
H1605 H 0.52689 0.24968 0.98651 0.0
H1606 H 0.51586 0.28546 0.99342 0.0
H1607 H 0.5409 0.28073 0.02679 0.0
H1608 H 0.66015 0.37343 0.015 0.0
H1609 H 0.64137 0.41701 1.00573 0.0
H1610 H 0.54837 0.34578 0.96677 0.0
C1611 C 0.60532 0.25549 0.95295 0.0
C1612 C 0.6386 0.25538 0.95081 0.0
C1613 C 0.66089 0.27783 0.97662 0.0
C1614 C 0.65298 0.30426 0.99762 0.0
C1615 C 0.62203 0.30669 0.99389 0.0
C1616 C 0.59747 0.28189 0.97426 0.0
C1617 C 0.56886 0.29255 0.96898 0.0
C1618 C 0.56236 0.2866 0.9256 0.0
C1619 C 0.5362 0.27614 0.99553 0.0
C1620 C 0.58367 0.32806 0.98324 0.0
C1621 C 0.614 0.33573 0.99818 0.0
C1622 C 0.6354 0.36764 1.00589 0.0
C1623 C 0.62487 0.39224 0.99977 0.0
C1624 C 0.59309 0.38473 0.98643 0.0
C1625 C 0.57242 0.35224 0.97804 0.0
H1626 H 0.71204 0.42417 0.17587 0.0
H1627 H 0.62922 0.34959 0.23195 0.0
H1628 H 0.59115 0.34972 0.18574 0.0
H1629 H 0.66722 0.46976 0.16514 0.0
H1630 H 0.68958 0.4811 0.11799 0.0
H1631 H 0.71037 0.47054 0.15093 0.0
H1632 H 0.72255 0.42773 0.09621 0.0
H1633 H 0.70024 0.43645 0.06291 0.0
H1634 H 0.68788 0.39602 0.07461 0.0
H1635 H 0.56043 0.3648 0.13892 0.0
H1636 H 0.54119 0.39429 0.09964 0.0
H1637 H 0.64557 0.4573 0.07511 0.0
C1638 C 0.68605 0.40742 0.17781 0.0
C1639 C 0.67333 0.387 0.20727 0.0
C1640 C 0.63929 0.36533 0.20924 0.0
C1641 C 0.61762 0.36519 0.18307 0.0
C1642 C 0.63079 0.38634 0.15471 0.0
C1643 C 0.66446 0.40675 0.15181 0.0
C1644 C 0.67211 0.42923 0.1216 0.0
C1645 C 0.68557 0.46472 0.14004 0.0
C1646 C 0.69717 0.42192 0.08675 0.0
C1647 C 0.63706 0.41995 0.10974 0.0
C1648 C 0.6135 0.39464 0.12813 0.0
C1649 C 0.57884 0.38426 0.1239 0.0
C1650 C 0.56806 0.40107 0.10163 0.0
C1651 C 0.59186 0.42823 0.08491 0.0
C1652 C 0.62675 0.4367 0.08782 0.0
H1653 H 0.69344 0.72912 0.17609 0.0
H1654 H 0.75003 0.6699 0.19064 0.0
H1655 H 0.71644 0.62574 0.14592 0.0
H1656 H 0.61214 0.66524 0.16946 0.0
H1657 H 0.6006 0.68053 0.13192 0.0
H1658 H 0.62848 0.70785 0.16615 0.0
H1659 H 0.67466 0.72979 0.10805 0.0
H1660 H 0.64579 0.70299 0.07444 0.0
H1661 H 0.68792 0.70164 0.07103 0.0
H1662 H 0.67654 0.58735 0.10151 0.0
H1663 H 0.63206 0.55677 0.05838 0.0
H1664 H 0.60364 0.64104 0.06702 0.0
C1665 C 0.69872 0.70686 0.16977 0.0
C1666 C 0.72447 0.70312 0.18694 0.0
C1667 C 0.73038 0.67347 0.17818 0.0
C1668 C 0.71158 0.6482 0.15253 0.0
C1669 C 0.687 0.65285 0.13548 0.0
C1670 C 0.68049 0.68138 0.14348 0.0
C1671 C 0.65265 0.6798 0.12063 0.0
C1672 C 0.62163 0.68357 0.14872 0.0
C1673 C 0.66608 0.70507 0.09185 0.0
C1674 C 0.6446 0.64592 0.09885 0.0
C1675 C 0.66465 0.63084 0.10816 0.0
C1676 C 0.66092 0.59896 0.09357 0.0
C1677 C 0.63567 0.58181 0.06913 0.0
C1678 C 0.6149 0.59674 0.05902 0.0
C1679 C 0.61974 0.62933 0.07362 0.0
H1680 H 0.43226 0.754 0.03701 0.0
H1681 H 0.48312 0.80748 0.13799 0.0
H1682 H 0.51551 0.77067 0.12948 0.0
H1683 H 0.41364 0.6829 0.06079 0.0
H1684 H 0.42045 0.66093 0.01316 0.0
H1685 H 0.41031 0.69672 0.01685 0.0
H1686 H 0.46464 0.72232 0.97064 0.0
H1687 H 0.47545 0.68664 0.96575 0.0
H1688 H 0.50552 0.72521 0.98164 0.0
H1689 H 0.53185 0.72196 0.11941 0.0
H1690 H 0.53792 0.66844 0.10214 0.0
H1691 H 0.47119 0.644 0.01248 0.0
C1692 C 0.45211 0.75922 0.05534 0.0
C1693 C 0.45617 0.78384 0.08736 0.0
C1694 C 0.48077 0.78926 0.11254 0.0
C1695 C 0.49885 0.76822 0.10818 0.0
C1696 C 0.49183 0.74213 0.07854 0.0
C1697 C 0.46971 0.738 0.05183 0.0
C1698 C 0.46277 0.70569 0.02647 0.0
C1699 C 0.42453 0.6854 0.02956 0.0
C1700 C 0.478 0.71027 0.98358 0.0
C1701 C 0.48215 0.69128 0.04517 0.0
C1702 C 0.49951 0.71299 0.07435 0.0
C1703 C 0.51873 0.70494 0.09627 0.0
C1704 C 0.52153 0.6744 0.08677 0.0
C1705 C 0.50441 0.65211 0.05649 0.0
C1706 C 0.48392 0.66039 0.0361 0.0
H1707 H 0.40079 0.3505 0.2102 0.0
H1708 H 0.30839 0.35768 0.18357 0.0
H1709 H 0.34303 0.40357 0.14722 0.0
H1710 H 0.44574 0.43757 0.22748 0.0
H1711 H 0.48646 0.43418 0.20679 0.0
H1712 H 0.45427 0.40183 0.23055 0.0
H1713 H 0.45778 0.36171 0.16755 0.0
H1714 H 0.49029 0.39396 0.14422 0.0
H1715 H 0.45248 0.37055 0.12125 0.0
H1716 H 0.38871 0.44648 0.1091 0.0
H1717 H 0.44109 0.48418 0.07629 0.0
H1718 H 0.50252 0.45246 0.13461 0.0
C1719 C 0.38762 0.3622 0.19788 0.0
C1720 C 0.35167 0.35064 0.20064 0.0
C1721 C 0.33584 0.36606 0.18228 0.0
C1722 C 0.35532 0.39225 0.16155 0.0
C1723 C 0.39067 0.40322 0.15989 0.0
C1724 C 0.40661 0.38887 0.17801 0.0
C1725 C 0.44492 0.40518 0.17203 0.0
C1726 C 0.45865 0.42061 0.21156 0.0
C1727 C 0.46236 0.38142 0.14992 0.0
C1728 C 0.44818 0.43054 0.14697 0.0
C1729 C 0.41665 0.42895 0.14 0.0
C1730 C 0.4135 0.44839 0.11506 0.0
C1731 C 0.44332 0.46976 0.09659 0.0
C1732 C 0.47583 0.47193 0.10369 0.0
C1733 C 0.47806 0.45223 0.12961 0.0
H1734 H 0.8698 0.71838 0.64796 0.0
H1735 H 0.83473 0.68444 0.76187 0.0
H1736 H 0.86277 0.64362 0.74084 0.0
H1737 H 0.85597 0.64171 0.59397 0.0
H1738 H 0.89306 0.64758 0.55847 0.0
H1739 H 0.87701 0.68022 0.57599 0.0
H1740 H 0.92866 0.72001 0.60242 0.0
H1741 H 0.9529 0.69383 0.58347 0.0
H1742 H 0.95037 0.70942 0.63462 0.0
H1743 H 0.89746 0.60705 0.70749 0.0
H1744 H 0.93275 0.5777 0.66531 0.0
H1745 H 0.94389 0.6322 0.57053 0.0
C1746 C 0.86792 0.70227 0.66844 0.0
C1747 C 0.84984 0.70491 0.70692 0.0
C1748 C 0.84822 0.68314 0.73245 0.0
C1749 C 0.8642 0.65977 0.72064 0.0
C1750 C 0.88183 0.65779 0.68271 0.0
C1751 C 0.88357 0.67838 0.65689 0.0
C1752 C 0.90387 0.67083 0.61767 0.0
C1753 C 0.88115 0.65954 0.58455 0.0
C1754 C 0.93578 0.70026 0.60893 0.0
C1755 C 0.91365 0.64317 0.62529 0.0
C1756 C 0.9007 0.63614 0.6632 0.0
C1757 C 0.90723 0.61232 0.67767 0.0
C1758 C 0.92736 0.59556 0.65326 0.0
C1759 C 0.94082 0.60174 0.61397 0.0
C1760 C 0.93351 0.62603 0.59992 0.0
H1761 H 0.35451 0.8202 0.64023 0.0
H1762 H 0.38722 0.85124 0.75608 0.0
H1763 H 0.43518 0.89704 0.73092 0.0
H1764 H 0.44142 0.848 0.58097 0.0
H1765 H 0.42516 0.86087 0.54529 0.0
H1766 H 0.39798 0.82737 0.57096 0.0
H1767 H 0.354 0.85671 0.59377 0.0
H1768 H 0.38174 0.89018 0.56862 0.0
H1769 H 0.36753 0.89669 0.62037 0.0
H1770 H 0.47392 0.94316 0.69632 0.0
H1771 H 0.50178 0.98659 0.65405 0.0
H1772 H 0.44439 0.92704 0.56001 0.0
C1773 C 0.37258 0.83612 0.65975 0.0
C1774 C 0.36786 0.83207 0.69983 0.0
C1775 C 0.39091 0.85388 0.72517 0.0
C1776 C 0.41821 0.87986 0.71109 0.0
C1777 C 0.4218 0.88386 0.67163 0.0
C1778 C 0.39973 0.86256 0.64619 0.0
C1779 C 0.40695 0.87451 0.60641 0.0
C1780 C 0.41856 0.85128 0.57399 0.0
C1781 C 0.3757 0.87983 0.59675 0.0
C1782 C 0.43589 0.9062 0.6138 0.0
C1783 C 0.44424 0.91089 0.65153 0.0
C1784 C 0.46818 0.93946 0.66645 0.0
C1785 C 0.48382 0.96398 0.64236 0.0
C1786 C 0.47562 0.95971 0.60379 0.0
C1787 C 0.45167 0.93037 0.58912 0.0
H1788 H 0.19891 0.31751 0.53246 0.0
H1789 H 0.22168 0.3693 0.6483 0.0
H1790 H 0.1857 0.39985 0.64514 0.0
H1791 H 0.20606 0.38751 0.49194 0.0
H1792 H 0.17266 0.36649 0.46128 0.0
H1793 H 0.1969 0.34534 0.47427 0.0
H1794 H 0.14055 0.30359 0.50222 0.0
H1795 H 0.11648 0.3253 0.48989 0.0
H1796 H 0.11195 0.31724 0.53973 0.0
H1797 H 0.15135 0.42783 0.62949 0.0
H1798 H 0.12398 0.45545 0.59897 0.0
H1799 H 0.12517 0.38997 0.49109 0.0
C1800 C 0.19641 0.33517 0.55731 0.0
C1801 C 0.21274 0.33986 0.59126 0.0
C1802 C 0.20852 0.36364 0.62269 0.0
C1803 C 0.18826 0.38158 0.62109 0.0
C1804 C 0.17263 0.37623 0.58755 0.0
C1805 C 0.17677 0.35403 0.55588 0.0
C1806 C 0.1594 0.35541 0.52202 0.0
C1807 C 0.18531 0.36423 0.48523 0.0
C1808 C 0.13037 0.32347 0.51292 0.0
C1809 C 0.14556 0.38234 0.53961 0.0
C1810 C 0.15315 0.39345 0.57773 0.0
C1811 C 0.14488 0.41915 0.59987 0.0
C1812 C 0.12926 0.43462 0.58236 0.0
C1813 C 0.1219 0.42439 0.54316 0.0
C1814 C 0.12959 0.39754 0.52157 0.0
H1815 H 0.69942 0.18101 0.69714 0.0
H1816 H 0.79562 0.19535 0.62234 0.0
H1817 H 0.76622 0.15182 0.57258 0.0
H1818 H 0.66788 0.09394 0.6738 0.0
H1819 H 0.62429 0.09145 0.67688 0.0
H1820 H 0.65327 0.12368 0.70592 0.0
H1821 H 0.63803 0.16354 0.67673 0.0
H1822 H 0.61099 0.1329 0.64443 0.0
H1823 H 0.64619 0.1654 0.62438 0.0
H1824 H 0.72566 0.10649 0.53089 0.0
H1825 H 0.67837 0.0621 0.50184 0.0
H1826 H 0.60829 0.07756 0.60394 0.0
C1827 C 0.71426 0.17537 0.67006 0.0
C1828 C 0.74984 0.19197 0.6634 0.0
C1829 C 0.76845 0.18299 0.62813 0.0
C1830 C 0.75188 0.15838 0.59964 0.0
C1831 C 0.71671 0.14267 0.60707 0.0
C1832 C 0.6982 0.15062 0.64166 0.0
C1833 C 0.66095 0.12914 0.64333 0.0
C1834 C 0.65102 0.10832 0.67697 0.0
C1835 C 0.63769 0.14898 0.64736 0.0
C1836 C 0.66099 0.10872 0.60355 0.0
C1837 C 0.6935 0.11661 0.58331 0.0
C1838 C 0.70015 0.10024 0.54651 0.0
C1839 C 0.67307 0.07503 0.53024 0.0
C1840 C 0.6395 0.06643 0.55041 0.0
C1841 C 0.63348 0.08384 0.58745 0.0
H1842 H 0.87866 0.36303 0.30871 0.0
H1843 H 0.80951 0.30869 0.39915 0.0
H1844 H 0.84151 0.34844 0.45041 0.0
H1845 H 0.95489 0.38359 0.35576 0.0
H1846 H 0.97418 0.42299 0.33998 0.0
H1847 H 0.94546 0.39074 0.31067 0.0
H1848 H 0.90792 0.42518 0.31357 0.0
H1849 H 0.93662 0.45768 0.34255 0.0
H1850 H 0.89196 0.44204 0.36066 0.0
H1851 H 0.8786 0.39644 0.49168 0.0
H1852 H 0.92137 0.44619 0.51992 0.0
H1853 H 0.9701 0.46646 0.40252 0.0
C1854 C 0.87043 0.35963 0.33938 0.0
C1855 C 0.84164 0.33314 0.35037 0.0
C1856 C 0.83159 0.32896 0.39048 0.0
C1857 C 0.84955 0.35141 0.41965 0.0
C1858 C 0.87788 0.37744 0.40801 0.0
C1859 C 0.88861 0.38138 0.36878 0.0
C1860 C 0.92039 0.41094 0.36407 0.0
C1861 C 0.95052 0.40149 0.34128 0.0
C1862 C 0.91382 0.4354 0.34404 0.0
C1863 C 0.92558 0.42338 0.40682 0.0
C1864 C 0.90052 0.4039 0.4317 0.0
C1865 C 0.89862 0.41158 0.47249 0.0
C1866 C 0.9229 0.43988 0.48828 0.0
C1867 C 0.94915 0.45979 0.46338 0.0
C1868 C 0.95063 0.45125 0.42216 0.0
H1869 H 0.70289 0.82318 0.27113 0.0
H1870 H 0.77081 0.83992 0.35773 0.0
H1871 H 0.74258 0.87445 0.4015 0.0
H1872 H 0.69939 0.90494 0.28814 0.0
H1873 H 0.65503 0.89183 0.28185 0.0
H1874 H 0.68051 0.86809 0.25695 0.0
H1875 H 0.63753 0.81861 0.28846 0.0
H1876 H 0.6122 0.84239 0.31376 0.0
H1877 H 0.62743 0.82139 0.34122 0.0
H1878 H 0.70706 0.90841 0.43728 0.0
H1879 H 0.6677 0.93853 0.46112 0.0
H1880 H 0.62104 0.90158 0.35333 0.0
C1881 C 0.71188 0.83414 0.29927 0.0
C1882 C 0.73907 0.82774 0.31089 0.0
C1883 C 0.74969 0.84312 0.3481 0.0
C1884 C 0.73386 0.86327 0.37329 0.0
C1885 C 0.70704 0.86864 0.36142 0.0
C1886 C 0.69609 0.85462 0.32519 0.0
C1887 C 0.6665 0.86463 0.32004 0.0
C1888 C 0.67592 0.88349 0.28463 0.0
C1889 C 0.63398 0.83499 0.3156 0.0
C1890 C 0.66268 0.88636 0.35882 0.0
C1891 C 0.68649 0.8883 0.38215 0.0
C1892 C 0.68836 0.90697 0.4191 0.0
C1893 C 0.66572 0.92416 0.43254 0.0
C1894 C 0.64081 0.92286 0.4096 0.0
C1895 C 0.63946 0.90332 0.37207 0.0
H1896 H 0.2359 0.67015 0.29532 0.0
H1897 H 0.23055 0.74774 0.38755 0.0
H1898 H 0.18789 0.70817 0.42855 0.0
H1899 H 0.1481 0.62212 0.30572 0.0
H1900 H 0.15495 0.5842 0.29718 0.0
H1901 H 0.18608 0.61846 0.2759 0.0
H1902 H 0.23292 0.61273 0.30899 0.0
H1903 H 0.20193 0.57826 0.33004 0.0
H1904 H 0.22676 0.61204 0.36139 0.0
H1905 H 0.14163 0.66033 0.45706 0.0
H1906 H 0.1024 0.60759 0.47548 0.0
H1907 H 0.1391 0.56036 0.36587 0.0
C1908 C 0.22606 0.67883 0.32433 0.0
C1909 C 0.23648 0.71225 0.33812 0.0
C1910 C 0.22279 0.7224 0.37622 0.0
C1911 C 0.19855 0.70005 0.39972 0.0
C1912 C 0.18788 0.66745 0.38471 0.0
C1913 C 0.20165 0.6568 0.34815 0.0
C1914 C 0.18616 0.62038 0.33916 0.0
C1915 C 0.16773 0.61074 0.30231 0.0
C1916 C 0.21357 0.60494 0.33464 0.0
C1917 C 0.16106 0.61224 0.37607 0.0
C1918 C 0.16225 0.63981 0.40178 0.0
C1919 C 0.14083 0.63856 0.43732 0.0
C1920 C 0.11833 0.60838 0.4474 0.0
C1921 C 0.11741 0.57951 0.42229 0.0
C1922 C 0.13903 0.58178 0.38591 0.0
H1923 H 0.41267 0.22933 0.46558 0.0
H1924 H 0.44727 0.21995 0.34034 0.0
H1925 H 0.47259 0.18065 0.34914 0.0
H1926 H 0.48676 0.2272 0.49483 0.0
H1927 H 0.46728 0.20379 0.53445 0.0
H1928 H 0.44777 0.22982 0.52272 0.0
H1929 H 0.39213 0.18587 0.51389 0.0
H1930 H 0.4038 0.15275 0.52078 0.0
H1931 H 0.38909 0.1522 0.47597 0.0
H1932 H 0.49264 0.1403 0.37276 0.0
H1933 H 0.50399 0.10306 0.4083 0.0
H1934 H 0.45832 0.14176 0.51765 0.0
C1935 C 0.42612 0.21966 0.43991 0.0
C1936 C 0.42794 0.22803 0.40225 0.0
C1937 C 0.44504 0.21376 0.36951 0.0
C1938 C 0.45983 0.1916 0.37427 0.0
C1939 C 0.4576 0.1841 0.41198 0.0
C1940 C 0.44129 0.19794 0.44411 0.0
C1941 C 0.44135 0.18551 0.4814 0.0
C1942 C 0.4618 0.21313 0.51015 0.0
C1943 C 0.40451 0.16822 0.49921 0.0
C1944 C 0.4598 0.16204 0.46557 0.0
C1945 C 0.46923 0.16158 0.42541 0.0
C1946 C 0.48565 0.14083 0.40424 0.0
C1947 C 0.49212 0.11989 0.42462 0.0
C1948 C 0.48245 0.12005 0.46569 0.0
C1949 C 0.4664 0.14158 0.48637 0.0
H1950 H 0.6643 0.85766 0.67678 0.0
H1951 H 0.6395 0.76778 0.59869 0.0
H1952 H 0.62298 0.79306 0.55175 0.0
H1953 H 0.59764 0.88126 0.66238 0.0
H1954 H 0.62272 0.92346 0.66337 0.0
H1955 H 0.63377 0.8986 0.68961 0.0
H1956 H 0.69473 0.9154 0.65186 0.0
H1957 H 0.68399 0.94061 0.62579 0.0
H1958 H 0.70029 0.91007 0.59884 0.0
H1959 H 0.60374 0.82767 0.51658 0.0
H1960 H 0.59073 0.86999 0.49268 0.0
H1961 H 0.63247 0.93781 0.59181 0.0
C1962 C 0.65587 0.84349 0.64948 0.0
C1963 C 0.65319 0.81081 0.64119 0.0
C1964 C 0.642 0.79294 0.60531 0.0
C1965 C 0.63238 0.80706 0.57867 0.0
C1966 C 0.63467 0.83924 0.5881 0.0
C1967 C 0.64684 0.85737 0.62233 0.0
C1968 C 0.64716 0.89147 0.62566 0.0
C1969 C 0.62394 0.89913 0.66243 0.0
C1970 C 0.68372 0.91582 0.62552 0.0
C1971 C 0.63274 0.88968 0.58833 0.0
C1972 C 0.6253 0.8593 0.56715 0.0
C1973 C 0.60995 0.85163 0.53271 0.0
C1974 C 0.60244 0.8757 0.51946 0.0
C1975 C 0.61081 0.90715 0.54025 0.0
C1976 C 0.62621 0.91407 0.57502 0.0
H1977 H 0.7239 0.1628 0.28828 0.0
H1978 H 0.72627 0.23984 0.38403 0.0
H1979 H 0.68242 0.20118 0.42476 0.0
H1980 H 0.63493 0.11542 0.30435 0.0
H1981 H 0.64116 0.07713 0.29458 0.0
H1982 H 0.67116 0.11085 0.27128 0.0
H1983 H 0.72081 0.10559 0.29891 0.0
H1984 H 0.69146 0.07131 0.32162 0.0
H1985 H 0.71826 0.10524 0.35101 0.0
H1986 H 0.63779 0.15433 0.45477 0.0
H1987 H 0.60161 0.10173 0.47593 0.0
H1988 H 0.63231 0.05361 0.36354 0.0
C1989 C 0.71516 0.17153 0.31782 0.0
C1990 C 0.72748 0.20468 0.33246 0.0
C1991 C 0.716 0.21491 0.37156 0.0
C1992 C 0.69129 0.19304 0.39503 0.0
C1993 C 0.679 0.16071 0.37941 0.0
C1994 C 0.69107 0.14982 0.34204 0.0
C1995 C 0.67549 0.11344 0.33351 0.0
C1996 C 0.65442 0.10364 0.29888 0.0
C1997 C 0.70315 0.09799 0.32582 0.0
C1998 C 0.65286 0.10559 0.37198 0.0
C1999 C 0.65483 0.13333 0.39771 0.0
C2000 C 0.63613 0.13243 0.43494 0.0
C2001 C 0.61545 0.10238 0.44659 0.0
C2002 C 0.61401 0.07345 0.42143 0.0
C2003 C 0.63283 0.07524 0.38346 0.0
H2004 H 0.90908 0.71874 0.44578 0.0
H2005 H 0.86701 0.65169 0.34592 0.0
H2006 H 0.90403 0.62165 0.34805 0.0
H2007 H 0.99822 0.71032 0.42452 0.0
H2008 H 0.99921 0.71194 0.47631 0.0
H2009 H 0.97832 0.73476 0.45981 0.0
H2010 H 0.9244 0.70776 0.50479 0.0
H2011 H 0.94286 0.68246 0.51974 0.0
H2012 H 0.90401 0.66463 0.49718 0.0
H2013 H 0.93448 0.59237 0.36853 0.0
H2014 H 0.95545 0.56486 0.40732 0.0
H2015 H 0.97723 0.64821 0.49639 0.0
C2016 C 0.90845 0.69832 0.42362 0.0
C2017 C 0.88536 0.68795 0.3954 0.0
C2018 C 0.88503 0.66081 0.36723 0.0
C2019 C 0.90608 0.64349 0.36813 0.0
C2020 C 0.92759 0.6536 0.39721 0.0
C2021 C 0.92934 0.68062 0.42419 0.0
C2022 C 0.94999 0.68294 0.45642 0.0
C2023 C 0.98342 0.71177 0.45413 0.0
C2024 C 0.92903 0.68455 0.49699 0.0
C2025 C 0.95684 0.65154 0.44539 0.0
C2026 C 0.94482 0.63572 0.41017 0.0
C2027 C 0.94481 0.60485 0.39556 0.0
C2028 C 0.95655 0.58936 0.41792 0.0
C2029 C 0.96809 0.60463 0.45453 0.0
C2030 C 0.96926 0.63647 0.46798 0.0
H2031 H 0.37966 0.83174 0.33978 0.0
H2032 H 0.29346 0.86456 0.36173 0.0
H2033 H 0.32285 0.9093 0.40876 0.0
H2034 H 0.40457 0.85514 0.4392 0.0
H2035 H 0.4496 0.8692 0.42255 0.0
H2036 H 0.42076 0.83751 0.39275 0.0
H2037 H 0.4436 0.8707 0.33441 0.0
H2038 H 0.47236 0.90271 0.36377 0.0
H2039 H 0.44262 0.91091 0.34022 0.0
H2040 H 0.36132 0.95139 0.45213 0.0
H2041 H 0.40789 0.99055 0.48667 0.0
H2042 H 0.47289 0.93469 0.43502 0.0
C2043 C 0.36677 0.8481 0.35475 0.0
C2044 C 0.33333 0.8436 0.34761 0.0
C2045 C 0.31807 0.86622 0.36751 0.0
C2046 C 0.33487 0.89214 0.39416 0.0
C2047 C 0.3675 0.89579 0.4005 0.0
C2048 C 0.38357 0.87466 0.3812 0.0
C2049 C 0.41966 0.88559 0.39197 0.0
C2050 C 0.42389 0.86035 0.41286 0.0
C2051 C 0.44613 0.89293 0.35541 0.0
C2052 C 0.42129 0.91624 0.42003 0.0
C2053 C 0.39064 0.92125 0.42467 0.0
C2054 C 0.38545 0.94772 0.44874 0.0
C2055 C 0.41227 0.96991 0.46836 0.0
C2056 C 0.44442 0.96603 0.46379 0.0
C2057 C 0.44879 0.93854 0.43927 0.0
H2058 H 0.18937 0.30817 0.30033 0.0
H2059 H 0.28465 0.36389 0.34712 0.0
H2060 H 0.25865 0.40158 0.38678 0.0
H2061 H 0.16982 0.37771 0.29012 0.0
H2062 H 0.12453 0.35968 0.3033 0.0
H2063 H 0.14931 0.33466 0.28103 0.0
H2064 H 0.12687 0.30157 0.3398 0.0
H2065 H 0.10202 0.32654 0.3622 0.0
H2066 H 0.13198 0.32199 0.38908 0.0
H2067 H 0.22229 0.43446 0.42264 0.0
H2068 H 0.18077 0.46231 0.44581 0.0
H2069 H 0.10943 0.39017 0.37239 0.0
C2070 C 0.20473 0.32811 0.31916 0.0
C2071 C 0.2392 0.33174 0.32128 0.0
C2072 C 0.25809 0.35904 0.3458 0.0
C2073 C 0.24349 0.38111 0.3684 0.0
C2074 C 0.2097 0.37668 0.36598 0.0
C2075 C 0.1906 0.35112 0.34156 0.0
C2076 C 0.15537 0.35338 0.34288 0.0
C2077 C 0.14941 0.35654 0.30189 0.0
C2078 C 0.1274 0.32412 0.35947 0.0
C2079 C 0.15796 0.38429 0.37128 0.0
C2080 C 0.18941 0.39694 0.38475 0.0
C2081 C 0.19774 0.42487 0.41186 0.0
C2082 C 0.1738 0.44061 0.42502 0.0
C2083 C 0.14163 0.42903 0.4109 0.0
C2084 C 0.13375 0.40012 0.38373 0.0
H2085 H 0.34655 0.19622 0.65575 0.0
H2086 H 0.36172 0.20079 0.77666 0.0
H2087 H 0.39633 0.16605 0.75489 0.0
H2088 H 0.34224 0.11432 0.62082 0.0
H2089 H 0.36774 0.12272 0.57422 0.0
H2090 H 0.34327 0.14766 0.59829 0.0
H2091 H 0.39679 0.19558 0.5916 0.0
H2092 H 0.42671 0.17459 0.57593 0.0
H2093 H 0.43084 0.20241 0.61992 0.0
H2094 H 0.43214 0.13188 0.71962 0.0
H2095 H 0.46466 0.10146 0.6752 0.0
H2096 H 0.42748 0.11628 0.57505 0.0
C2097 C 0.35698 0.18991 0.67777 0.0
C2098 C 0.35072 0.20175 0.71839 0.0
C2099 C 0.3655 0.19249 0.74557 0.0
C2100 C 0.38541 0.17251 0.73338 0.0
C2101 C 0.39105 0.16143 0.69344 0.0
C2102 C 0.37725 0.1698 0.666 0.0
C2103 C 0.38923 0.1561 0.62468 0.0
C2104 C 0.35881 0.1339 0.60321 0.0
C2105 C 0.4121 0.18389 0.60164 0.0
C2106 C 0.41029 0.13727 0.63304 0.0
C2107 C 0.41151 0.14144 0.67308 0.0
C2108 C 0.43098 0.12842 0.68829 0.0
C2109 C 0.44966 0.11104 0.66241 0.0
C2110 C 0.44916 0.10582 0.62092 0.0
C2111 C 0.42859 0.11915 0.60631 0.0
H2112 H 0.84486 0.36443 0.71402 0.0
H2113 H 0.86095 0.28512 0.63161 0.0
H2114 H 0.90517 0.32398 0.59098 0.0
H2115 H 0.85488 0.41607 0.64145 0.0
H2116 H 0.87607 0.45243 0.67205 0.0
H2117 H 0.84587 0.41825 0.69423 0.0
H2118 H 0.89144 0.41878 0.73457 0.0
H2119 H 0.92204 0.45283 0.7124 0.0
H2120 H 0.93162 0.41665 0.70942 0.0
H2121 H 0.94956 0.37231 0.56059 0.0
H2122 H 0.98578 0.42521 0.53966 0.0
H2123 H 0.9393 0.47267 0.64144 0.0
C2124 C 0.85738 0.35513 0.68725 0.0
C2125 C 0.84941 0.32159 0.67609 0.0
C2126 C 0.86672 0.31065 0.64091 0.0
C2127 C 0.89187 0.33258 0.61763 0.0
C2128 C 0.8996 0.36548 0.62995 0.0
C2129 C 0.88254 0.37667 0.66374 0.0
C2130 C 0.89515 0.41316 0.67029 0.0
C2131 C 0.86628 0.42571 0.66944 0.0
C2132 C 0.91101 0.42611 0.70896 0.0
C2133 C 0.92198 0.42086 0.6349 0.0
C2134 C 0.92445 0.39306 0.61217 0.0
C2135 C 0.94769 0.3942 0.57813 0.0
C2136 C 0.96836 0.42445 0.5666 0.0
C2137 C 0.96558 0.4533 0.58883 0.0
C2138 C 0.94219 0.45121 0.62367 0.0
H2139 H 0.19579 0.69918 0.68142 0.0
H2140 H 0.27968 0.66329 0.66675 0.0
H2141 H 0.24963 0.61698 0.62235 0.0
H2142 H 0.12925 0.62019 0.68217 0.0
H2143 H 0.10227 0.62936 0.65537 0.0
H2144 H 0.13045 0.66102 0.68589 0.0
H2145 H 0.1575 0.69277 0.62626 0.0
H2146 H 0.12946 0.66118 0.59553 0.0
H2147 H 0.17491 0.67371 0.5818 0.0
H2148 H 0.21348 0.5761 0.57812 0.0
H2149 H 0.16953 0.53893 0.53856 0.0
H2150 H 0.1052 0.59665 0.58301 0.0
C2151 C 0.20774 0.68155 0.66893 0.0
C2152 C 0.24023 0.68513 0.67782 0.0
C2153 C 0.25486 0.66133 0.66079 0.0
C2154 C 0.23804 0.63482 0.6353 0.0
C2155 C 0.20627 0.63195 0.62724 0.0
C2156 C 0.19089 0.65428 0.64365 0.0
C2157 C 0.15594 0.64431 0.6303 0.0
C2158 C 0.12781 0.63836 0.66553 0.0
C2159 C 0.15437 0.6695 0.60709 0.0
C2160 C 0.15449 0.61308 0.60376 0.0
C2161 C 0.18412 0.60687 0.60237 0.0
C2162 C 0.18996 0.58042 0.57915 0.0
C2163 C 0.16476 0.55945 0.55669 0.0
C2164 C 0.13374 0.56465 0.55791 0.0
C2165 C 0.12849 0.59186 0.58189 0.0
loop_
_geom_bond_atom_site_label_1
_geom_bond_atom_site_label_2
_geom_bond_distance
_geom_bond_site_symmetry_2
_ccdc_geom_bond_type
Eu0 N29 2.600 . S
Eu0 N35 2.562 . S
Eu0 O44 2.462 . S
Eu0 O45 2.373 . S
Eu0 O47 2.432 . S
Eu0 O48 2.291 . S
Eu0 O52 2.335 . S
Eu0 O55 2.372 . S
Eu0 C64 2.787 . S
C1 N2 1.365 . S
C1 C4 1.405 . S
C1 C8 1.448 . S
N2 C1 1.365 . S
N2 C5 1.319 . S
N2 Eu11 2.600 . S
C3 C5 1.397 . S
C3 C6 1.367 . S
C3 H23 0.931 . S
C4 C1 1.405 . S
C4 C6 1.403 . S
C4 C10 1.439 . S
C5 N2 1.319 . S
C5 C3 1.397 . S
C5 H16 0.930 . S
C6 C3 1.367 . S
C6 C4 1.403 . S
C6 H27 0.929 . S
C7 C8 1.430 . S
C7 C9 1.387 . S
C7 C13 1.404 . S
C8 C1 1.448 . S
C8 C7 1.430 . S
C8 N12 1.351 . S
C9 C7 1.387 . S
C9 C10 1.374 . S
C9 H24 0.931 . S
C10 C4 1.439 . S
C10 C9 1.374 . S
C10 H25 0.931 . S
Eu11 N2 2.600 . S
Eu11 N12 2.562 . S
Eu11 O46 2.335 . S
Eu11 O49 2.372 . S
Eu11 O50 2.462 . S
Eu11 O51 2.373 . S
Eu11 O53 2.432 . S
Eu11 O54 2.291 . S
Eu11 C75 2.787 . S
N12 C8 1.351 . S
N12 Eu11 2.562 . S
N12 C14 1.325 . S
C13 C7 1.404 . S
C13 C15 1.366 . S
C13 H21 0.930 . S
C14 N12 1.325 . S
C14 C15 1.416 . S
C14 H20 0.929 . S
C15 C13 1.366 . S
C15 C14 1.416 . S
C15 H17 0.930 . S
H16 C5 0.930 . S
H17 C15 0.930 . S
H18 C33 0.930 . S
H19 C40 0.930 . S
H20 C14 0.929 . S
H21 C13 0.930 . S
H22 C36 0.929 . S
H23 C3 0.931 . S
H24 C9 0.931 . S
H25 C10 0.931 . S
H26 C31 0.931 . S
H27 C6 0.929 . S
H28 C39 0.930 . S
N29 Eu0 2.600 . S
N29 C30 1.365 . S
N29 C33 1.319 . S
C30 N29 1.365 . S
C30 C32 1.405 . S
C30 C38 1.448 . S
C31 H26 0.931 . S
C31 C33 1.397 . S
C31 C34 1.367 . S
C32 C30 1.405 . S
C32 C34 1.403 . S
C32 C65 1.439 . S
C33 H18 0.930 . S
C33 N29 1.319 . S
C33 C31 1.397 . S
C34 C31 1.367 . S
C34 C32 1.403 . S
C34 H41 0.929 . S
N35 Eu0 2.562 . S
N35 C36 1.325 . S
N35 C38 1.351 . S
C36 H22 0.929 . S
C36 N35 1.325 . S
C36 C40 1.416 . S
C37 C38 1.430 . S
C37 C39 1.404 . S
C37 C66 1.387 . S
C38 C30 1.448 . S
C38 N35 1.351 . S
C38 C37 1.430 . S
C39 H28 0.930 . S
C39 C37 1.404 . S
C39 C40 1.366 . S
C40 H19 0.930 . S
C40 C36 1.416 . S
C40 C39 1.366 . S
H41 C34 0.929 . S
H42 C65 0.931 . S
H43 C66 0.931 . S
O44 Eu0 2.462 . S
O44 C64 1.252 . S
O45 Eu0 2.373 . S
O45 C56 1.249 . S
O46 Eu11 2.335 . S
O46 C56 1.264 . S
O47 Eu0 2.432 . S
O47 C64 1.268 . S
O48 Eu0 2.291 . S
O48 C63 1.255 . S
O49 Eu11 2.372 . S
O49 C63 1.257 . S
O50 Eu11 2.462 . S
O50 C75 1.252 . S
O51 Eu11 2.373 . S
O51 C67 1.249 . S
O52 Eu0 2.335 . S
O52 C67 1.264 . S
O53 Eu11 2.432 . S
O53 C75 1.268 . S
O54 Eu11 2.291 . S
O54 C74 1.255 . S
O55 Eu0 2.372 . S
O55 C74 1.257 . S
C56 O45 1.249 . S
C56 O46 1.264 . S
C57 C60 1.382 . S
C57 C62 1.390 . S
C57 C64 1.506 . S
C58 C59 1.398 . S
C58 C62 1.392 . S
C59 C58 1.398 . S
C59 C61 1.372 . S
C59 H76 0.931 . S
C60 C57 1.382 . S
C60 C61 1.390 . S
C60 H77 0.931 . S
C61 C59 1.372 . S
C61 C60 1.390 . S
C61 H78 0.929 . S
C62 C57 1.390 . S
C62 C58 1.392 . S
C62 H79 0.930 . S
C63 O48 1.255 . S
C63 O49 1.257 . S
C64 Eu0 2.787 . S
C64 O44 1.252 . S
C64 O47 1.268 . S
C64 C57 1.506 . S
C65 C32 1.439 . S
C65 H42 0.931 . S
C65 C66 1.374 . S
C66 C37 1.387 . S
C66 H43 0.931 . S
C66 C65 1.374 . S
C67 O51 1.249 . S
C67 O52 1.264 . S
C68 C71 1.382 . S
C68 C72 1.390 . S
C68 C75 1.506 . S
C69 C70 1.398 . S
C69 C72 1.392 . S
C70 C69 1.398 . S
C70 C73 1.372 . S
C70 H80 0.931 . S
C71 C68 1.382 . S
C71 C73 1.390 . S
C71 H81 0.931 . S
C72 C68 1.390 . S
C72 C69 1.392 . S
C72 H82 0.930 . S
C73 C70 1.372 . S
C73 C71 1.390 . S
C73 H83 0.929 . S
C74 O54 1.255 . S
C74 O55 1.257 . S
C75 Eu11 2.787 . S
C75 O50 1.252 . S
C75 O53 1.268 . S
C75 C68 1.506 . S
H76 C59 0.931 . S
H77 C60 0.931 . S
H78 C61 0.929 . S
H79 C62 0.930 . S
H80 C70 0.931 . S
H81 C71 0.931 . S
H82 C72 0.930 . S
H83 C73 0.929 . S
Eu84 N113 2.600 . S
Eu84 N119 2.562 . S
Eu84 O128 2.462 . S
Eu84 O129 2.373 . S
Eu84 O131 2.432 . S
Eu84 O132 2.291 . S
Eu84 O136 2.335 . S
Eu84 O139 2.372 . S
Eu84 C148 2.787 . S
C85 N86 1.365 . S
C85 C88 1.405 . S
C85 C92 1.448 . S
N86 C85 1.365 . S
N86 C89 1.319 . S
N86 Eu95 2.600 . S
C87 C89 1.397 . S
C87 C90 1.367 . S
C87 H107 0.931 . S
C88 C85 1.405 . S
C88 C90 1.403 . S
C88 C94 1.439 . S
C89 N86 1.319 . S
C89 C87 1.397 . S
C89 H100 0.930 . S
C90 C87 1.367 . S
C90 C88 1.403 . S
C90 H111 0.929 . S
C91 C92 1.430 . S
C91 C93 1.387 . S
C91 C97 1.404 . S
C92 C85 1.448 . S
C92 C91 1.430 . S
C92 N96 1.351 . S
C93 C91 1.387 . S
C93 C94 1.374 . S
C93 H108 0.931 . S
C94 C88 1.439 . S
C94 C93 1.374 . S
C94 H109 0.931 . S
Eu95 N86 2.600 . S
Eu95 N96 2.562 . S
Eu95 O130 2.335 . S
Eu95 O133 2.372 . S
Eu95 O134 2.462 . S
Eu95 O135 2.373 . S
Eu95 O137 2.432 . S
Eu95 O138 2.291 . S
Eu95 C159 2.787 . S
N96 C92 1.351 . S
N96 Eu95 2.562 . S
N96 C98 1.325 . S
C97 C91 1.404 . S
C97 C99 1.366 . S
C97 H105 0.930 . S
C98 N96 1.325 . S
C98 C99 1.416 . S
C98 H104 0.929 . S
C99 C97 1.366 . S
C99 C98 1.416 . S
C99 H101 0.930 . S
H100 C89 0.930 . S
H101 C99 0.930 . S
H102 C117 0.930 . S
H103 C124 0.930 . S
H104 C98 0.929 . S
H105 C97 0.930 . S
H106 C120 0.929 . S
H107 C87 0.931 . S
H108 C93 0.931 . S
H109 C94 0.931 . S
H110 C115 0.931 . S
H111 C90 0.929 . S
H112 C123 0.930 . S
N113 Eu84 2.600 . S
N113 C114 1.365 . S
N113 C117 1.319 . S
C114 N113 1.365 . S
C114 C116 1.405 . S
C114 C122 1.448 . S
C115 H110 0.931 . S
C115 C117 1.397 . S
C115 C118 1.367 . S
C116 C114 1.405 . S
C116 C118 1.403 . S
C116 C149 1.439 . S
C117 H102 0.930 . S
C117 N113 1.319 . S
C117 C115 1.397 . S
C118 C115 1.367 . S
C118 C116 1.403 . S
C118 H125 0.929 . S
N119 Eu84 2.562 . S
N119 C120 1.325 . S
N119 C122 1.351 . S
C120 H106 0.929 . S
C120 N119 1.325 . S
C120 C124 1.416 . S
C121 C122 1.430 . S
C121 C123 1.404 . S
C121 C150 1.387 . S
C122 C114 1.448 . S
C122 N119 1.351 . S
C122 C121 1.430 . S
C123 H112 0.930 . S
C123 C121 1.404 . S
C123 C124 1.366 . S
C124 H103 0.930 . S
C124 C120 1.416 . S
C124 C123 1.366 . S
H125 C118 0.929 . S
H126 C149 0.931 . S
H127 C150 0.931 . S
O128 Eu84 2.462 . S
O128 C148 1.252 . S
O129 Eu84 2.373 . S
O129 C140 1.249 . S
O130 Eu95 2.335 . S
O130 C140 1.264 . S
O131 Eu84 2.432 . S
O131 C148 1.268 . S
O132 Eu84 2.291 . S
O132 C147 1.255 . S
O133 Eu95 2.372 . S
O133 C147 1.257 . S
O134 Eu95 2.462 . S
O134 C159 1.252 . S
O135 Eu95 2.373 . S
O135 C151 1.249 . S
O136 Eu84 2.335 . S
O136 C151 1.264 . S
O137 Eu95 2.432 . S
O137 C159 1.268 . S
O138 Eu95 2.291 . S
O138 C158 1.255 . S
O139 Eu84 2.372 . S
O139 C158 1.257 . S
C140 O129 1.249 . S
C140 O130 1.264 . S
C141 C144 1.382 . S
C141 C146 1.390 . S
C141 C148 1.506 . S
C142 C143 1.398 . S
C142 C146 1.392 . S
C143 C142 1.398 . S
C143 C145 1.372 . S
C143 H160 0.931 . S
C144 C141 1.382 . S
C144 C145 1.390 . S
C144 H161 0.931 . S
C145 C143 1.372 . S
C145 C144 1.390 . S
C145 H162 0.929 . S
C146 C141 1.390 . S
C146 C142 1.392 . S
C146 H163 0.930 . S
C147 O132 1.255 . S
C147 O133 1.257 . S
C148 Eu84 2.787 . S
C148 O128 1.252 . S
C148 O131 1.268 . S
C148 C141 1.506 . S
C149 C116 1.439 . S
C149 H126 0.931 . S
C149 C150 1.374 . S
C150 C121 1.387 . S
C150 H127 0.931 . S
C150 C149 1.374 . S
C151 O135 1.249 . S
C151 O136 1.264 . S
C152 C155 1.382 . S
C152 C156 1.390 . S
C152 C159 1.506 . S
C153 C154 1.398 . S
C153 C156 1.392 . S
C154 C153 1.398 . S
C154 C157 1.372 . S
C154 H164 0.931 . S
C155 C152 1.382 . S
C155 C157 1.390 . S
C155 H165 0.931 . S
C156 C152 1.390 . S
C156 C153 1.392 . S
C156 H166 0.930 . S
C157 C154 1.372 . S
C157 C155 1.390 . S
C157 H167 0.929 . S
C158 O138 1.255 . S
C158 O139 1.257 . S
C159 Eu95 2.787 . S
C159 O134 1.252 . S
C159 O137 1.268 . S
C159 C152 1.506 . S
H160 C143 0.931 . S
H161 C144 0.931 . S
H162 C145 0.929 . S
H163 C146 0.930 . S
H164 C154 0.931 . S
H165 C155 0.931 . S
H166 C156 0.930 . S
H167 C157 0.929 . S
Eu168 N197 2.600 . S
Eu168 N203 2.562 . S
Eu168 O212 2.462 . S
Eu168 O213 2.373 . S
Eu168 O215 2.432 . S
Eu168 O216 2.291 . S
Eu168 O220 2.335 . S
Eu168 O223 2.372 . S
Eu168 C232 2.787 . S
C169 N170 1.365 . S
C169 C172 1.405 . S
C169 C176 1.448 . S
N170 C169 1.365 . S
N170 C173 1.319 . S
N170 Eu179 2.600 . S
C171 C173 1.397 . S
C171 C174 1.367 . S
C171 H191 0.931 . S
C172 C169 1.405 . S
C172 C174 1.403 . S
C172 C178 1.439 . S
C173 N170 1.319 . S
C173 C171 1.397 . S
C173 H184 0.930 . S
C174 C171 1.367 . S
C174 C172 1.403 . S
C174 H195 0.929 . S
C175 C176 1.430 . S
C175 C177 1.387 . S
C175 C181 1.404 . S
C176 C169 1.448 . S
C176 C175 1.430 . S
C176 N180 1.351 . S
C177 C175 1.387 . S
C177 C178 1.374 . S
C177 H192 0.931 . S
C178 C172 1.439 . S
C178 C177 1.374 . S
C178 H193 0.931 . S
Eu179 N170 2.600 . S
Eu179 N180 2.562 . S
Eu179 O214 2.335 . S
Eu179 O217 2.372 . S
Eu179 O218 2.462 . S
Eu179 O219 2.373 . S
Eu179 O221 2.432 . S
Eu179 O222 2.291 . S
Eu179 C243 2.787 . S
N180 C176 1.351 . S
N180 Eu179 2.562 . S
N180 C182 1.325 . S
C181 C175 1.404 . S
C181 C183 1.366 . S
C181 H189 0.930 . S
C182 N180 1.325 . S
C182 C183 1.416 . S
C182 H188 0.929 . S
C183 C181 1.366 . S
C183 C182 1.416 . S
C183 H185 0.930 . S
H184 C173 0.930 . S
H185 C183 0.930 . S
H186 C201 0.930 . S
H187 C208 0.930 . S
H188 C182 0.929 . S
H189 C181 0.930 . S
H190 C204 0.929 . S
H191 C171 0.931 . S
H192 C177 0.931 . S
H193 C178 0.931 . S
H194 C199 0.931 . S
H195 C174 0.929 . S
H196 C207 0.930 . S
N197 Eu168 2.600 . S
N197 C198 1.365 . S
N197 C201 1.319 . S
C198 N197 1.365 . S
C198 C200 1.405 . S
C198 C206 1.448 . S
C199 H194 0.931 . S
C199 C201 1.397 . S
C199 C202 1.367 . S
C200 C198 1.405 . S
C200 C202 1.403 . S
C200 C233 1.439 . S
C201 H186 0.930 . S
C201 N197 1.319 . S
C201 C199 1.397 . S
C202 C199 1.367 . S
C202 C200 1.403 . S
C202 H209 0.929 . S
N203 Eu168 2.562 . S
N203 C204 1.325 . S
N203 C206 1.351 . S
C204 H190 0.929 . S
C204 N203 1.325 . S
C204 C208 1.416 . S
C205 C206 1.430 . S
C205 C207 1.404 . S
C205 C234 1.387 . S
C206 C198 1.448 . S
C206 N203 1.351 . S
C206 C205 1.430 . S
C207 H196 0.930 . S
C207 C205 1.404 . S
C207 C208 1.366 . S
C208 H187 0.930 . S
C208 C204 1.416 . S
C208 C207 1.366 . S
H209 C202 0.929 . S
H210 C233 0.931 . S
H211 C234 0.931 . S
O212 Eu168 2.462 . S
O212 C232 1.252 . S
O213 Eu168 2.373 . S
O213 C224 1.249 . S
O214 Eu179 2.335 . S
O214 C224 1.264 . S
O215 Eu168 2.432 . S
O215 C232 1.268 . S
O216 Eu168 2.291 . S
O216 C231 1.255 . S
O217 Eu179 2.372 . S
O217 C231 1.257 . S
O218 Eu179 2.462 . S
O218 C243 1.252 . S
O219 Eu179 2.373 . S
O219 C235 1.249 . S
O220 Eu168 2.335 . S
O220 C235 1.264 . S
O221 Eu179 2.432 . S
O221 C243 1.268 . S
O222 Eu179 2.291 . S
O222 C242 1.255 . S
O223 Eu168 2.372 . S
O223 C242 1.257 . S
C224 O213 1.249 . S
C224 O214 1.264 . S
C225 C228 1.382 . S
C225 C230 1.390 . S
C225 C232 1.506 . S
C226 C227 1.398 . S
C226 C230 1.392 . S
C227 C226 1.398 . S
C227 C229 1.372 . S
C227 H244 0.931 . S
C228 C225 1.382 . S
C228 C229 1.390 . S
C228 H245 0.931 . S
C229 C227 1.372 . S
C229 C228 1.390 . S
C229 H246 0.929 . S
C230 C225 1.390 . S
C230 C226 1.392 . S
C230 H247 0.930 . S
C231 O216 1.255 . S
C231 O217 1.257 . S
C232 Eu168 2.787 . S
C232 O212 1.252 . S
C232 O215 1.268 . S
C232 C225 1.506 . S
C233 C200 1.439 . S
C233 H210 0.931 . S
C233 C234 1.374 . S
C234 C205 1.387 . S
C234 H211 0.931 . S
C234 C233 1.374 . S
C235 O219 1.249 . S
C235 O220 1.264 . S
C236 C239 1.382 . S
C236 C240 1.390 . S
C236 C243 1.506 . S
C237 C238 1.398 . S
C237 C240 1.392 . S
C238 C237 1.398 . S
C238 C241 1.372 . S
C238 H248 0.931 . S
C239 C236 1.382 . S
C239 C241 1.390 . S
C239 H249 0.931 . S
C240 C236 1.390 . S
C240 C237 1.392 . S
C240 H250 0.930 . S
C241 C238 1.372 . S
C241 C239 1.390 . S
C241 H251 0.929 . S
C242 O222 1.255 . S
C242 O223 1.257 . S
C243 Eu179 2.787 . S
C243 O218 1.252 . S
C243 O221 1.268 . S
C243 C236 1.506 . S
H244 C227 0.931 . S
H245 C228 0.931 . S
H246 C229 0.929 . S
H247 C230 0.930 . S
H248 C238 0.931 . S
H249 C239 0.931 . S
H250 C240 0.930 . S
H251 C241 0.929 . S
Eu252 N281 2.600 . S
Eu252 N287 2.562 . S
Eu252 O296 2.462 . S
Eu252 O297 2.373 . S
Eu252 O299 2.432 . S
Eu252 O300 2.291 . S
Eu252 O304 2.335 . S
Eu252 O307 2.372 . S
Eu252 C316 2.787 . S
C253 N254 1.365 . S
C253 C256 1.405 . S
C253 C260 1.448 . S
N254 C253 1.365 . S
N254 C257 1.319 . S
N254 Eu263 2.600 . S
C255 C257 1.397 . S
C255 C258 1.367 . S
C255 H275 0.931 . S
C256 C253 1.405 . S
C256 C258 1.403 . S
C256 C262 1.439 . S
C257 N254 1.319 . S
C257 C255 1.397 . S
C257 H268 0.930 . S
C258 C255 1.367 . S
C258 C256 1.403 . S
C258 H279 0.929 . S
C259 C260 1.430 . S
C259 C261 1.387 . S
C259 C265 1.404 . S
C260 C253 1.448 . S
C260 C259 1.430 . S
C260 N264 1.351 . S
C261 C259 1.387 . S
C261 C262 1.374 . S
C261 H276 0.931 . S
C262 C256 1.439 . S
C262 C261 1.374 . S
C262 H277 0.931 . S
Eu263 N254 2.600 . S
Eu263 N264 2.562 . S
Eu263 O298 2.335 . S
Eu263 O301 2.372 . S
Eu263 O302 2.462 . S
Eu263 O303 2.373 . S
Eu263 O305 2.432 . S
Eu263 O306 2.291 . S
Eu263 C327 2.787 . S
N264 C260 1.351 . S
N264 Eu263 2.562 . S
N264 C266 1.325 . S
C265 C259 1.404 . S
C265 C267 1.366 . S
C265 H273 0.930 . S
C266 N264 1.325 . S
C266 C267 1.416 . S
C266 H272 0.929 . S
C267 C265 1.366 . S
C267 C266 1.416 . S
C267 H269 0.930 . S
H268 C257 0.930 . S
H269 C267 0.930 . S
H270 C285 0.930 . S
H271 C292 0.930 . S
H272 C266 0.929 . S
H273 C265 0.930 . S
H274 C288 0.929 . S
H275 C255 0.931 . S
H276 C261 0.931 . S
H277 C262 0.931 . S
H278 C283 0.931 . S
H279 C258 0.929 . S
H280 C291 0.930 . S
N281 Eu252 2.600 . S
N281 C282 1.365 . S
N281 C285 1.319 . S
C282 N281 1.365 . S
C282 C284 1.405 . S
C282 C290 1.448 . S
C283 H278 0.931 . S
C283 C285 1.397 . S
C283 C286 1.367 . S
C284 C282 1.405 . S
C284 C286 1.403 . S
C284 C317 1.439 . S
C285 H270 0.930 . S
C285 N281 1.319 . S
C285 C283 1.397 . S
C286 C283 1.367 . S
C286 C284 1.403 . S
C286 H293 0.929 . S
N287 Eu252 2.562 . S
N287 C288 1.325 . S
N287 C290 1.351 . S
C288 H274 0.929 . S
C288 N287 1.325 . S
C288 C292 1.416 . S
C289 C290 1.430 . S
C289 C291 1.404 . S
C289 C318 1.387 . S
C290 C282 1.448 . S
C290 N287 1.351 . S
C290 C289 1.430 . S
C291 H280 0.930 . S
C291 C289 1.404 . S
C291 C292 1.366 . S
C292 H271 0.930 . S
C292 C288 1.416 . S
C292 C291 1.366 . S
H293 C286 0.929 . S
H294 C317 0.931 . S
H295 C318 0.931 . S
O296 Eu252 2.462 . S
O296 C316 1.252 . S
O297 Eu252 2.373 . S
O297 C308 1.249 . S
O298 Eu263 2.335 . S
O298 C308 1.264 . S
O299 Eu252 2.432 . S
O299 C316 1.268 . S
O300 Eu252 2.291 . S
O300 C315 1.255 . S
O301 Eu263 2.372 . S
O301 C315 1.257 . S
O302 Eu263 2.462 . S
O302 C327 1.252 . S
O303 Eu263 2.373 . S
O303 C319 1.249 . S
O304 Eu252 2.335 . S
O304 C319 1.264 . S
O305 Eu263 2.432 . S
O305 C327 1.268 . S
O306 Eu263 2.291 . S
O306 C326 1.255 . S
O307 Eu252 2.372 . S
O307 C326 1.257 . S
C308 O297 1.249 . S
C308 O298 1.264 . S
C309 C312 1.382 . S
C309 C314 1.390 . S
C309 C316 1.506 . S
C310 C311 1.398 . S
C310 C314 1.392 . S
C311 C310 1.398 . S
C311 C313 1.372 . S
C311 H328 0.931 . S
C312 C309 1.382 . S
C312 C313 1.390 . S
C312 H329 0.931 . S
C313 C311 1.372 . S
C313 C312 1.390 . S
C313 H330 0.929 . S
C314 C309 1.390 . S
C314 C310 1.392 . S
C314 H331 0.930 . S
C315 O300 1.255 . S
C315 O301 1.257 . S
C316 Eu252 2.787 . S
C316 O296 1.252 . S
C316 O299 1.268 . S
C316 C309 1.506 . S
C317 C284 1.439 . S
C317 H294 0.931 . S
C317 C318 1.374 . S
C318 C289 1.387 . S
C318 H295 0.931 . S
C318 C317 1.374 . S
C319 O303 1.249 . S
C319 O304 1.264 . S
C320 C323 1.382 . S
C320 C324 1.390 . S
C320 C327 1.506 . S
C321 C322 1.398 . S
C321 C324 1.392 . S
C322 C321 1.398 . S
C322 C325 1.372 . S
C322 H332 0.931 . S
C323 C320 1.382 . S
C323 C325 1.390 . S
C323 H333 0.931 . S
C324 C320 1.390 . S
C324 C321 1.392 . S
C324 H334 0.930 . S
C325 C322 1.372 . S
C325 C323 1.390 . S
C325 H335 0.929 . S
C326 O306 1.255 . S
C326 O307 1.257 . S
C327 Eu263 2.787 . S
C327 O302 1.252 . S
C327 O305 1.268 . S
C327 C320 1.506 . S
H328 C311 0.931 . S
H329 C312 0.931 . S
H330 C313 0.929 . S
H331 C314 0.930 . S
H332 C322 0.931 . S
H333 C323 0.931 . S
H334 C324 0.930 . S
H335 C325 0.929 . S
Eu336 N365 2.600 . S
Eu336 N371 2.562 . S
Eu336 O380 2.462 . S
Eu336 O381 2.373 . S
Eu336 O383 2.432 . S
Eu336 O384 2.291 . S
Eu336 O388 2.335 . S
Eu336 O391 2.372 . S
Eu336 C400 2.787 . S
C337 N338 1.365 . S
C337 C340 1.405 . S
C337 C344 1.448 . S
N338 C337 1.365 . S
N338 C341 1.319 . S
N338 Eu347 2.600 . S
C339 C341 1.397 . S
C339 C342 1.367 . S
C339 H359 0.931 . S
C340 C337 1.405 . S
C340 C342 1.403 . S
C340 C346 1.439 . S
C341 N338 1.319 . S
C341 C339 1.397 . S
C341 H352 0.930 . S
C342 C339 1.367 . S
C342 C340 1.403 . S
C342 H363 0.929 . S
C343 C344 1.430 . S
C343 C345 1.387 . S
C343 C349 1.404 . S
C344 C337 1.448 . S
C344 C343 1.430 . S
C344 N348 1.351 . S
C345 C343 1.387 . S
C345 C346 1.374 . S
C345 H360 0.931 . S
C346 C340 1.439 . S
C346 C345 1.374 . S
C346 H361 0.931 . S
Eu347 N338 2.600 . S
Eu347 N348 2.562 . S
Eu347 O382 2.335 . S
Eu347 O385 2.372 . S
Eu347 O386 2.462 . S
Eu347 O387 2.373 . S
Eu347 O389 2.432 . S
Eu347 O390 2.291 . S
Eu347 C411 2.787 . S
N348 C344 1.351 . S
N348 Eu347 2.562 . S
N348 C350 1.325 . S
C349 C343 1.404 . S
C349 C351 1.366 . S
C349 H357 0.930 . S
C350 N348 1.325 . S
C350 C351 1.416 . S
C350 H356 0.929 . S
C351 C349 1.366 . S
C351 C350 1.416 . S
C351 H353 0.930 . S
H352 C341 0.930 . S
H353 C351 0.930 . S
H354 C369 0.930 . S
H355 C376 0.930 . S
H356 C350 0.929 . S
H357 C349 0.930 . S
H358 C372 0.929 . S
H359 C339 0.931 . S
H360 C345 0.931 . S
H361 C346 0.931 . S
H362 C367 0.931 . S
H363 C342 0.929 . S
H364 C375 0.930 . S
N365 Eu336 2.600 . S
N365 C366 1.365 . S
N365 C369 1.319 . S
C366 N365 1.365 . S
C366 C368 1.405 . S
C366 C374 1.448 . S
C367 H362 0.931 . S
C367 C369 1.397 . S
C367 C370 1.367 . S
C368 C366 1.405 . S
C368 C370 1.403 . S
C368 C401 1.439 . S
C369 H354 0.930 . S
C369 N365 1.319 . S
C369 C367 1.397 . S
C370 C367 1.367 . S
C370 C368 1.403 . S
C370 H377 0.929 . S
N371 Eu336 2.562 . S
N371 C372 1.325 . S
N371 C374 1.351 . S
C372 H358 0.929 . S
C372 N371 1.325 . S
C372 C376 1.416 . S
C373 C374 1.430 . S
C373 C375 1.404 . S
C373 C402 1.387 . S
C374 C366 1.448 . S
C374 N371 1.351 . S
C374 C373 1.430 . S
C375 H364 0.930 . S
C375 C373 1.404 . S
C375 C376 1.366 . S
C376 H355 0.930 . S
C376 C372 1.416 . S
C376 C375 1.366 . S
H377 C370 0.929 . S
H378 C401 0.931 . S
H379 C402 0.931 . S
O380 Eu336 2.462 . S
O380 C400 1.252 . S
O381 Eu336 2.373 . S
O381 C392 1.249 . S
O382 Eu347 2.335 . S
O382 C392 1.264 . S
O383 Eu336 2.432 . S
O383 C400 1.268 . S
O384 Eu336 2.291 . S
O384 C399 1.255 . S
O385 Eu347 2.372 . S
O385 C399 1.257 . S
O386 Eu347 2.462 . S
O386 C411 1.252 . S
O387 Eu347 2.373 . S
O387 C403 1.249 . S
O388 Eu336 2.335 . S
O388 C403 1.264 . S
O389 Eu347 2.432 . S
O389 C411 1.268 . S
O390 Eu347 2.291 . S
O390 C410 1.255 . S
O391 Eu336 2.372 . S
O391 C410 1.257 . S
C392 O381 1.249 . S
C392 O382 1.264 . S
C393 C396 1.382 . S
C393 C398 1.390 . S
C393 C400 1.506 . S
C394 C395 1.398 . S
C394 C398 1.392 . S
C395 C394 1.398 . S
C395 C397 1.372 . S
C395 H412 0.931 . S
C396 C393 1.382 . S
C396 C397 1.390 . S
C396 H413 0.931 . S
C397 C395 1.372 . S
C397 C396 1.390 . S
C397 H414 0.929 . S
C398 C393 1.390 . S
C398 C394 1.392 . S
C398 H415 0.930 . S
C399 O384 1.255 . S
C399 O385 1.257 . S
C400 Eu336 2.787 . S
C400 O380 1.252 . S
C400 O383 1.268 . S
C400 C393 1.506 . S
C401 C368 1.439 . S
C401 H378 0.931 . S
C401 C402 1.374 . S
C402 C373 1.387 . S
C402 H379 0.931 . S
C402 C401 1.374 . S
C403 O387 1.249 . S
C403 O388 1.264 . S
C404 C407 1.382 . S
C404 C408 1.390 . S
C404 C411 1.506 . S
C405 C406 1.398 . S
C405 C408 1.392 . S
C406 C405 1.398 . S
C406 C409 1.372 . S
C406 H416 0.931 . S
C407 C404 1.382 . S
C407 C409 1.390 . S
C407 H417 0.931 . S
C408 C404 1.390 . S
C408 C405 1.392 . S
C408 H418 0.930 . S
C409 C406 1.372 . S
C409 C407 1.390 . S
C409 H419 0.929 . S
C410 O390 1.255 . S
C410 O391 1.257 . S
C411 Eu347 2.787 . S
C411 O386 1.252 . S
C411 O389 1.268 . S
C411 C404 1.506 . S
H412 C395 0.931 . S
H413 C396 0.931 . S
H414 C397 0.929 . S
H415 C398 0.930 . S
H416 C406 0.931 . S
H417 C407 0.931 . S
H418 C408 0.930 . S
H419 C409 0.929 . S
Eu420 N449 2.600 . S
Eu420 N455 2.562 . S
Eu420 O464 2.462 . S
Eu420 O465 2.373 . S
Eu420 O467 2.432 . S
Eu420 O468 2.291 . S
Eu420 O472 2.335 . S
Eu420 O475 2.372 . S
Eu420 C484 2.787 . S
C421 N422 1.365 . S
C421 C424 1.405 . S
C421 C428 1.448 . S
N422 C421 1.365 . S
N422 C425 1.319 . S
N422 Eu431 2.600 . S
C423 C425 1.397 . S
C423 C426 1.367 . S
C423 H443 0.931 . S
C424 C421 1.405 . S
C424 C426 1.403 . S
C424 C430 1.439 . S
C425 N422 1.319 . S
C425 C423 1.397 . S
C425 H436 0.930 . S
C426 C423 1.367 . S
C426 C424 1.403 . S
C426 H447 0.929 . S
C427 C428 1.430 . S
C427 C429 1.387 . S
C427 C433 1.404 . S
C428 C421 1.448 . S
C428 C427 1.430 . S
C428 N432 1.351 . S
C429 C427 1.387 . S
C429 C430 1.374 . S
C429 H444 0.931 . S
C430 C424 1.439 . S
C430 C429 1.374 . S
C430 H445 0.931 . S
Eu431 N422 2.600 . S
Eu431 N432 2.562 . S
Eu431 O466 2.335 . S
Eu431 O469 2.372 . S
Eu431 O470 2.462 . S
Eu431 O471 2.373 . S
Eu431 O473 2.432 . S
Eu431 O474 2.291 . S
Eu431 C495 2.787 . S
N432 C428 1.351 . S
N432 Eu431 2.562 . S
N432 C434 1.325 . S
C433 C427 1.404 . S
C433 C435 1.366 . S
C433 H441 0.930 . S
C434 N432 1.325 . S
C434 C435 1.416 . S
C434 H440 0.929 . S
C435 C433 1.366 . S
C435 C434 1.416 . S
C435 H437 0.930 . S
H436 C425 0.930 . S
H437 C435 0.930 . S
H438 C453 0.930 . S
H439 C460 0.930 . S
H440 C434 0.929 . S
H441 C433 0.930 . S
H442 C456 0.929 . S
H443 C423 0.931 . S
H444 C429 0.931 . S
H445 C430 0.931 . S
H446 C451 0.931 . S
H447 C426 0.929 . S
H448 C459 0.930 . S
N449 Eu420 2.600 . S
N449 C450 1.365 . S
N449 C453 1.319 . S
C450 N449 1.365 . S
C450 C452 1.405 . S
C450 C458 1.448 . S
C451 H446 0.931 . S
C451 C453 1.397 . S
C451 C454 1.367 . S
C452 C450 1.405 . S
C452 C454 1.403 . S
C452 C485 1.439 . S
C453 H438 0.930 . S
C453 N449 1.319 . S
C453 C451 1.397 . S
C454 C451 1.367 . S
C454 C452 1.403 . S
C454 H461 0.929 . S
N455 Eu420 2.562 . S
N455 C456 1.325 . S
N455 C458 1.351 . S
C456 H442 0.929 . S
C456 N455 1.325 . S
C456 C460 1.416 . S
C457 C458 1.430 . S
C457 C459 1.404 . S
C457 C486 1.387 . S
C458 C450 1.448 . S
C458 N455 1.351 . S
C458 C457 1.430 . S
C459 H448 0.930 . S
C459 C457 1.404 . S
C459 C460 1.366 . S
C460 H439 0.930 . S
C460 C456 1.416 . S
C460 C459 1.366 . S
H461 C454 0.929 . S
H462 C485 0.931 . S
H463 C486 0.931 . S
O464 Eu420 2.462 . S
O464 C484 1.252 . S
O465 Eu420 2.373 . S
O465 C476 1.249 . S
O466 Eu431 2.335 . S
O466 C476 1.264 . S
O467 Eu420 2.432 . S
O467 C484 1.268 . S
O468 Eu420 2.291 . S
O468 C483 1.255 . S
O469 Eu431 2.372 . S
O469 C483 1.257 . S
O470 Eu431 2.462 . S
O470 C495 1.252 . S
O471 Eu431 2.373 . S
O471 C487 1.249 . S
O472 Eu420 2.335 . S
O472 C487 1.264 . S
O473 Eu431 2.432 . S
O473 C495 1.268 . S
O474 Eu431 2.291 . S
O474 C494 1.255 . S
O475 Eu420 2.372 . S
O475 C494 1.257 . S
C476 O465 1.249 . S
C476 O466 1.264 . S
C477 C480 1.382 . S
C477 C482 1.390 . S
C477 C484 1.506 . S
C478 C479 1.398 . S
C478 C482 1.392 . S
C479 C478 1.398 . S
C479 C481 1.372 . S
C479 H496 0.931 . S
C480 C477 1.382 . S
C480 C481 1.390 . S
C480 H497 0.931 . S
C481 C479 1.372 . S
C481 C480 1.390 . S
C481 H498 0.929 . S
C482 C477 1.390 . S
C482 C478 1.392 . S
C482 H499 0.930 . S
C483 O468 1.255 . S
C483 O469 1.257 . S
C484 Eu420 2.787 . S
C484 O464 1.252 . S
C484 O467 1.268 . S
C484 C477 1.506 . S
C485 C452 1.439 . S
C485 H462 0.931 . S
C485 C486 1.374 . S
C486 C457 1.387 . S
C486 H463 0.931 . S
C486 C485 1.374 . S
C487 O471 1.249 . S
C487 O472 1.264 . S
C488 C491 1.382 . S
C488 C492 1.390 . S
C488 C495 1.506 . S
C489 C490 1.398 . S
C489 C492 1.392 . S
C490 C489 1.398 . S
C490 C493 1.372 . S
C490 H500 0.931 . S
C491 C488 1.382 . S
C491 C493 1.390 . S
C491 H501 0.931 . S
C492 C488 1.390 . S
C492 C489 1.392 . S
C492 H502 0.930 . S
C493 C490 1.372 . S
C493 C491 1.390 . S
C493 H503 0.929 . S
C494 O474 1.255 . S
C494 O475 1.257 . S
C495 Eu431 2.787 . S
C495 O470 1.252 . S
C495 O473 1.268 . S
C495 C488 1.506 . S
H496 C479 0.931 . S
H497 C480 0.931 . S
H498 C481 0.929 . S
H499 C482 0.930 . S
H500 C490 0.931 . S
H501 C491 0.931 . S
H502 C492 0.930 . S
H503 C493 0.929 . S
Eu504 N533 2.600 . S
Eu504 N539 2.562 . S
Eu504 O548 2.462 . S
Eu504 O549 2.373 . S
Eu504 O551 2.432 . S
Eu504 O552 2.291 . S
Eu504 O556 2.335 . S
Eu504 O559 2.372 . S
Eu504 C568 2.787 . S
C505 N506 1.365 . S
C505 C508 1.405 . S
C505 C512 1.448 . S
N506 C505 1.365 . S
N506 C509 1.319 . S
N506 Eu515 2.600 . S
C507 C509 1.397 . S
C507 C510 1.367 . S
C507 H527 0.931 . S
C508 C505 1.405 . S
C508 C510 1.403 . S
C508 C514 1.439 . S
C509 N506 1.319 . S
C509 C507 1.397 . S
C509 H520 0.930 . S
C510 C507 1.367 . S
C510 C508 1.403 . S
C510 H531 0.929 . S
C511 C512 1.430 . S
C511 C513 1.387 . S
C511 C517 1.404 . S
C512 C505 1.448 . S
C512 C511 1.430 . S
C512 N516 1.351 . S
C513 C511 1.387 . S
C513 C514 1.374 . S
C513 H528 0.931 . S
C514 C508 1.439 . S
C514 C513 1.374 . S
C514 H529 0.931 . S
Eu515 N506 2.600 . S
Eu515 N516 2.562 . S
Eu515 O550 2.335 . S
Eu515 O553 2.372 . S
Eu515 O554 2.462 . S
Eu515 O555 2.373 . S
Eu515 O557 2.432 . S
Eu515 O558 2.291 . S
Eu515 C579 2.787 . S
N516 C512 1.351 . S
N516 Eu515 2.562 . S
N516 C518 1.325 . S
C517 C511 1.404 . S
C517 C519 1.366 . S
C517 H525 0.930 . S
C518 N516 1.325 . S
C518 C519 1.416 . S
C518 H524 0.929 . S
C519 C517 1.366 . S
C519 C518 1.416 . S
C519 H521 0.930 . S
H520 C509 0.930 . S
H521 C519 0.930 . S
H522 C537 0.930 . S
H523 C544 0.930 . S
H524 C518 0.929 . S
H525 C517 0.930 . S
H526 C540 0.929 . S
H527 C507 0.931 . S
H528 C513 0.931 . S
H529 C514 0.931 . S
H530 C535 0.931 . S
H531 C510 0.929 . S
H532 C543 0.930 . S
N533 Eu504 2.600 . S
N533 C534 1.365 . S
N533 C537 1.319 . S
C534 N533 1.365 . S
C534 C536 1.405 . S
C534 C542 1.448 . S
C535 H530 0.931 . S
C535 C537 1.397 . S
C535 C538 1.367 . S
C536 C534 1.405 . S
C536 C538 1.403 . S
C536 C569 1.439 . S
C537 H522 0.930 . S
C537 N533 1.319 . S
C537 C535 1.397 . S
C538 C535 1.367 . S
C538 C536 1.403 . S
C538 H545 0.929 . S
N539 Eu504 2.562 . S
N539 C540 1.325 . S
N539 C542 1.351 . S
C540 H526 0.929 . S
C540 N539 1.325 . S
C540 C544 1.416 . S
C541 C542 1.430 . S
C541 C543 1.404 . S
C541 C570 1.387 . S
C542 C534 1.448 . S
C542 N539 1.351 . S
C542 C541 1.430 . S
C543 H532 0.930 . S
C543 C541 1.404 . S
C543 C544 1.366 . S
C544 H523 0.930 . S
C544 C540 1.416 . S
C544 C543 1.366 . S
H545 C538 0.929 . S
H546 C569 0.931 . S
H547 C570 0.931 . S
O548 Eu504 2.462 . S
O548 C568 1.252 . S
O549 Eu504 2.373 . S
O549 C560 1.249 . S
O550 Eu515 2.335 . S
O550 C560 1.264 . S
O551 Eu504 2.432 . S
O551 C568 1.268 . S
O552 Eu504 2.291 . S
O552 C567 1.255 . S
O553 Eu515 2.372 . S
O553 C567 1.257 . S
O554 Eu515 2.462 . S
O554 C579 1.252 . S
O555 Eu515 2.373 . S
O555 C571 1.249 . S
O556 Eu504 2.335 . S
O556 C571 1.264 . S
O557 Eu515 2.432 . S
O557 C579 1.268 . S
O558 Eu515 2.291 . S
O558 C578 1.255 . S
O559 Eu504 2.372 . S
O559 C578 1.257 . S
C560 O549 1.249 . S
C560 O550 1.264 . S
C561 C564 1.382 . S
C561 C566 1.390 . S
C561 C568 1.506 . S
C562 C563 1.398 . S
C562 C566 1.392 . S
C563 C562 1.398 . S
C563 C565 1.372 . S
C563 H580 0.931 . S
C564 C561 1.382 . S
C564 C565 1.390 . S
C564 H581 0.931 . S
C565 C563 1.372 . S
C565 C564 1.390 . S
C565 H582 0.929 . S
C566 C561 1.390 . S
C566 C562 1.392 . S
C566 H583 0.930 . S
C567 O552 1.255 . S
C567 O553 1.257 . S
C568 Eu504 2.787 . S
C568 O548 1.252 . S
C568 O551 1.268 . S
C568 C561 1.506 . S
C569 C536 1.439 . S
C569 H546 0.931 . S
C569 C570 1.374 . S
C570 C541 1.387 . S
C570 H547 0.931 . S
C570 C569 1.374 . S
C571 O555 1.249 . S
C571 O556 1.264 . S
C572 C575 1.382 . S
C572 C576 1.390 . S
C572 C579 1.506 . S
C573 C574 1.398 . S
C573 C576 1.392 . S
C574 C573 1.398 . S
C574 C577 1.372 . S
C574 H584 0.931 . S
C575 C572 1.382 . S
C575 C577 1.390 . S
C575 H585 0.931 . S
C576 C572 1.390 . S
C576 C573 1.392 . S
C576 H586 0.930 . S
C577 C574 1.372 . S
C577 C575 1.390 . S
C577 H587 0.929 . S
C578 O558 1.255 . S
C578 O559 1.257 . S
C579 Eu515 2.787 . S
C579 O554 1.252 . S
C579 O557 1.268 . S
C579 C572 1.506 . S
H580 C563 0.931 . S
H581 C564 0.931 . S
H582 C565 0.929 . S
H583 C566 0.930 . S
H584 C574 0.931 . S
H585 C575 0.931 . S
H586 C576 0.930 . S
H587 C577 0.929 . S
Eu588 N617 2.600 . S
Eu588 N623 2.562 . S
Eu588 O632 2.462 . S
Eu588 O633 2.373 . S
Eu588 O635 2.432 . S
Eu588 O636 2.291 . S
Eu588 O640 2.335 . S
Eu588 O643 2.372 . S
Eu588 C652 2.787 . S
C589 N590 1.365 . S
C589 C592 1.405 . S
C589 C596 1.448 . S
N590 C589 1.365 . S
N590 C593 1.319 . S
N590 Eu599 2.600 . S
C591 C593 1.397 . S
C591 C594 1.367 . S
C591 H611 0.931 . S
C592 C589 1.405 . S
C592 C594 1.403 . S
C592 C598 1.439 . S
C593 N590 1.319 . S
C593 C591 1.397 . S
C593 H604 0.930 . S
C594 C591 1.367 . S
C594 C592 1.403 . S
C594 H615 0.929 . S
C595 C596 1.430 . S
C595 C597 1.387 . S
C595 C601 1.404 . S
C596 C589 1.448 . S
C596 C595 1.430 . S
C596 N600 1.351 . S
C597 C595 1.387 . S
C597 C598 1.374 . S
C597 H612 0.931 . S
C598 C592 1.439 . S
C598 C597 1.374 . S
C598 H613 0.931 . S
Eu599 N590 2.600 . S
Eu599 N600 2.562 . S
Eu599 O634 2.335 . S
Eu599 O637 2.372 . S
Eu599 O638 2.462 . S
Eu599 O639 2.373 . S
Eu599 O641 2.432 . S
Eu599 O642 2.291 . S
Eu599 C663 2.787 . S
N600 C596 1.351 . S
N600 Eu599 2.562 . S
N600 C602 1.325 . S
C601 C595 1.404 . S
C601 C603 1.366 . S
C601 H609 0.930 . S
C602 N600 1.325 . S
C602 C603 1.416 . S
C602 H608 0.929 . S
C603 C601 1.366 . S
C603 C602 1.416 . S
C603 H605 0.930 . S
H604 C593 0.930 . S
H605 C603 0.930 . S
H606 C621 0.930 . S
H607 C628 0.930 . S
H608 C602 0.929 . S
H609 C601 0.930 . S
H610 C624 0.929 . S
H611 C591 0.931 . S
H612 C597 0.931 . S
H613 C598 0.931 . S
H614 C619 0.931 . S
H615 C594 0.929 . S
H616 C627 0.930 . S
N617 Eu588 2.600 . S
N617 C618 1.365 . S
N617 C621 1.319 . S
C618 N617 1.365 . S
C618 C620 1.405 . S
C618 C626 1.448 . S
C619 H614 0.931 . S
C619 C621 1.397 . S
C619 C622 1.367 . S
C620 C618 1.405 . S
C620 C622 1.403 . S
C620 C653 1.439 . S
C621 H606 0.930 . S
C621 N617 1.319 . S
C621 C619 1.397 . S
C622 C619 1.367 . S
C622 C620 1.403 . S
C622 H629 0.929 . S
N623 Eu588 2.562 . S
N623 C624 1.325 . S
N623 C626 1.351 . S
C624 H610 0.929 . S
C624 N623 1.325 . S
C624 C628 1.416 . S
C625 C626 1.430 . S
C625 C627 1.404 . S
C625 C654 1.387 . S
C626 C618 1.448 . S
C626 N623 1.351 . S
C626 C625 1.430 . S
C627 H616 0.930 . S
C627 C625 1.404 . S
C627 C628 1.366 . S
C628 H607 0.930 . S
C628 C624 1.416 . S
C628 C627 1.366 . S
H629 C622 0.929 . S
H630 C653 0.931 . S
H631 C654 0.931 . S
O632 Eu588 2.462 . S
O632 C652 1.252 . S
O633 Eu588 2.373 . S
O633 C644 1.249 . S
O634 Eu599 2.335 . S
O634 C644 1.264 . S
O635 Eu588 2.432 . S
O635 C652 1.268 . S
O636 Eu588 2.291 . S
O636 C651 1.255 . S
O637 Eu599 2.372 . S
O637 C651 1.257 . S
O638 Eu599 2.462 . S
O638 C663 1.252 . S
O639 Eu599 2.373 . S
O639 C655 1.249 . S
O640 Eu588 2.335 . S
O640 C655 1.264 . S
O641 Eu599 2.432 . S
O641 C663 1.268 . S
O642 Eu599 2.291 . S
O642 C662 1.255 . S
O643 Eu588 2.372 . S
O643 C662 1.257 . S
C644 O633 1.249 . S
C644 O634 1.264 . S
C645 C648 1.382 . S
C645 C650 1.390 . S
C645 C652 1.506 . S
C646 C647 1.398 . S
C646 C650 1.392 . S
C647 C646 1.398 . S
C647 C649 1.372 . S
C647 H664 0.931 . S
C648 C645 1.382 . S
C648 C649 1.390 . S
C648 H665 0.931 . S
C649 C647 1.372 . S
C649 C648 1.390 . S
C649 H666 0.929 . S
C650 C645 1.390 . S
C650 C646 1.392 . S
C650 H667 0.930 . S
C651 O636 1.255 . S
C651 O637 1.257 . S
C652 Eu588 2.787 . S
C652 O632 1.252 . S
C652 O635 1.268 . S
C652 C645 1.506 . S
C653 C620 1.439 . S
C653 H630 0.931 . S
C653 C654 1.374 . S
C654 C625 1.387 . S
C654 H631 0.931 . S
C654 C653 1.374 . S
C655 O639 1.249 . S
C655 O640 1.264 . S
C656 C659 1.382 . S
C656 C660 1.390 . S
C656 C663 1.506 . S
C657 C658 1.398 . S
C657 C660 1.392 . S
C658 C657 1.398 . S
C658 C661 1.372 . S
C658 H668 0.931 . S
C659 C656 1.382 . S
C659 C661 1.390 . S
C659 H669 0.931 . S
C660 C656 1.390 . S
C660 C657 1.392 . S
C660 H670 0.930 . S
C661 C658 1.372 . S
C661 C659 1.390 . S
C661 H671 0.929 . S
C662 O642 1.255 . S
C662 O643 1.257 . S
C663 Eu599 2.787 . S
C663 O638 1.252 . S
C663 O641 1.268 . S
C663 C656 1.506 . S
H664 C647 0.931 . S
H665 C648 0.931 . S
H666 C649 0.929 . S
H667 C650 0.930 . S
H668 C658 0.931 . S
H669 C659 0.931 . S
H670 C660 0.930 . S
H671 C661 0.929 . S
Co672 O675 2.042 . S
Co672 O682 2.264 . S
Co672 O701 2.286 . S
Co672 O702 2.069 . S
Co672 O704 2.015 1_455 S
Co673 O675 2.122 . S
Co673 O681 2.073 . S
Co673 O682 2.327 . S
Co673 O683 1.976 1_455 S
Co674 O675 2.096 1_545 S
Co674 O677 2.078 1_455 S
Co674 O684 2.107 1_445 S
Co674 O685 2.147 . S
Co674 O689 2.116 . S
Co674 O703 2.140 1_445 S
O675 Co672 2.042 . S
O675 Co673 2.122 . S
O675 Co674 2.096 1_565 S
O675 H676 0.980 . S
H676 O675 0.980 . S
O677 Co674 2.078 1_655 S
O677 Co678 2.042 . S
O677 Co679 2.122 . S
O677 H680 0.980 . S
Co678 O677 2.042 . S
Co678 O686 2.286 . S
Co678 O687 2.069 . S
Co678 O688 2.015 1_655 S
Co678 O691 2.264 . S
Co679 O677 2.122 . S
Co679 O690 1.976 1_655 S
Co679 O691 2.327 . S
Co679 O692 2.073 . S
H680 O677 0.980 . S
O681 Co673 2.073 . S
O681 C696 1.245 . S
O682 Co672 2.264 . S
O682 Co673 2.327 . S
O682 C696 1.257 . S
O683 Co673 1.976 1_655 S
O683 C695 1.251 . S
O684 Co674 2.107 1_665 S
O684 C695 1.274 . S
O685 Co674 2.147 . S
O685 C698 1.246 . S
O686 Co678 2.286 . S
O686 C697 1.259 . S
O687 Co678 2.069 . S
O687 C697 1.289 . S
O688 Co678 2.015 1_455 S
O688 C698 1.257 . S
O689 Co674 2.116 . S
O689 C699 1.274 . S
O690 Co679 1.976 1_455 S
O690 C699 1.251 . S
O691 Co678 2.264 . S
O691 Co679 2.327 . S
O691 C700 1.257 . S
O692 Co679 2.073 . S
O692 C700 1.245 . S
C693 O701 1.259 . S
C693 O702 1.289 . S
C694 O703 1.246 . S
C694 O704 1.257 . S
C695 O683 1.251 . S
C695 O684 1.274 . S
C696 O681 1.245 . S
C696 O682 1.257 . S
C697 O686 1.259 . S
C697 O687 1.289 . S
C698 O685 1.246 . S
C698 O688 1.257 . S
C699 O689 1.274 . S
C699 O690 1.251 . S
C700 O691 1.257 . S
C700 O692 1.245 . S
O701 Co672 2.286 . S
O701 C693 1.259 . S
O702 Co672 2.069 . S
O702 C693 1.289 . S
O703 Co674 2.140 1_665 S
O703 C694 1.246 . S
O704 Co672 2.015 1_655 S
O704 C694 1.257 . S
Co705 O708 2.042 1_556 S
Co705 O715 2.264 1_556 S
Co705 O734 2.286 . S
Co705 O735 2.069 . S
Co705 O737 2.015 . S
Co706 O708 2.122 . S
Co706 O714 2.073 . S
Co706 O715 2.327 . S
Co706 O716 1.976 . S
Co707 O708 2.087 1_545 S
Co707 O710 2.087 1_554 S
Co707 O717 2.111 1_545 S
Co707 O718 2.144 . S
Co707 O722 2.111 1_554 S
Co707 O736 2.143 1_544 S
O708 Co705 2.042 1_554 S
O708 Co706 2.122 . S
O708 Co707 2.087 1_565 S
O708 H709 0.980 . S
H709 O708 0.980 . S
O710 Co707 2.087 1_556 S
O710 Co711 2.042 1_556 S
O710 Co712 2.122 . S
O710 H713 0.980 . S
Co711 O710 2.042 1_554 S
Co711 O719 2.286 . S
Co711 O720 2.069 . S
Co711 O721 2.015 . S
Co711 O724 2.264 1_554 S
Co712 O710 2.122 . S
Co712 O723 1.976 . S
Co712 O724 2.327 . S
Co712 O725 2.073 . S
H713 O710 0.980 . S
O714 Co706 2.073 . S
O714 C729 1.245 . S
O715 Co705 2.264 1_554 S
O715 Co706 2.327 . S
O715 C729 1.257 . S
O716 Co706 1.976 . S
O716 C728 1.251 . S
O717 Co707 2.111 1_565 S
O717 C728 1.274 . S
O718 Co707 2.144 . S
O718 C731 1.246 . S
O719 Co711 2.286 . S
O719 C730 1.259 . S
O720 Co711 2.069 . S
O720 C730 1.289 . S
O721 Co711 2.015 . S
O721 C731 1.257 . S
O722 Co707 2.111 1_556 S
O722 C732 1.274 . S
O723 Co712 1.976 . S
O723 C732 1.251 . S
O724 Co711 2.264 1_556 S
O724 Co712 2.327 . S
O724 C733 1.257 . S
O725 Co712 2.073 . S
O725 C733 1.245 . S
C726 O734 1.259 . S
C726 O735 1.289 . S
C727 O736 1.246 . S
C727 O737 1.257 . S
C728 O716 1.251 . S
C728 O717 1.274 . S
C729 O714 1.245 . S
C729 O715 1.257 . S
C730 O719 1.259 . S
C730 O720 1.289 . S
C731 O718 1.246 . S
C731 O721 1.257 . S
C732 O722 1.274 . S
C732 O723 1.251 . S
C733 O724 1.257 . S
C733 O725 1.245 . S
O734 Co705 2.286 . S
O734 C726 1.259 . S
O735 Co705 2.069 . S
O735 C726 1.289 . S
O736 Co707 2.143 1_566 S
O736 C727 1.246 . S
O737 Co705 2.015 . S
O737 C727 1.257 . S
Co738 O741 2.042 1_556 S
Co738 O748 2.264 1_556 S
Co738 O767 2.286 . S
Co738 O768 2.069 . S
Co738 O770 2.015 1_455 S
Co739 O741 2.122 . S
Co739 O747 2.073 . S
Co739 O748 2.327 . S
Co739 O749 1.976 1_455 S
Co740 O741 2.095 . S
Co740 O743 2.079 1_454 S
Co740 O750 2.107 1_455 S
Co740 O751 2.147 . S
Co740 O755 2.116 1_554 S
Co740 O769 2.140 1_454 S
O741 Co738 2.042 1_554 S
O741 Co739 2.122 . S
O741 Co740 2.095 . S
O741 H742 0.980 . S
H742 O741 0.980 . S
O743 Co740 2.079 1_656 S
O743 Co744 2.042 1_556 S
O743 Co745 2.122 . S
O743 H746 0.980 . S
Co744 O743 2.042 1_554 S
Co744 O752 2.286 . S
Co744 O753 2.069 . S
Co744 O754 2.015 1_655 S
Co744 O757 2.264 1_554 S
Co745 O743 2.122 . S
Co745 O756 1.976 1_655 S
Co745 O757 2.327 . S
Co745 O758 2.073 . S
H746 O743 0.980 . S
O747 Co739 2.073 . S
O747 C762 1.245 . S
O748 Co738 2.264 1_554 S
O748 Co739 2.327 . S
O748 C762 1.257 . S
O749 Co739 1.976 1_655 S
O749 C761 1.251 . S
O750 Co740 2.107 1_655 S
O750 C761 1.274 . S
O751 Co740 2.147 . S
O751 C764 1.246 . S
O752 Co744 2.286 . S
O752 C763 1.259 . S
O753 Co744 2.069 . S
O753 C763 1.289 . S
O754 Co744 2.015 1_455 S
O754 C764 1.257 . S
O755 Co740 2.116 1_556 S
O755 C765 1.274 . S
O756 Co745 1.976 1_455 S
O756 C765 1.251 . S
O757 Co744 2.264 1_556 S
O757 Co745 2.327 . S
O757 C766 1.257 . S
O758 Co745 2.073 . S
O758 C766 1.245 . S
C759 O767 1.259 . S
C759 O768 1.289 . S
C760 O769 1.246 . S
C760 O770 1.257 . S
C761 O749 1.251 . S
C761 O750 1.274 . S
C762 O747 1.245 . S
C762 O748 1.257 . S
C763 O752 1.259 . S
C763 O753 1.289 . S
C764 O751 1.246 . S
C764 O754 1.257 . S
C765 O755 1.274 . S
C765 O756 1.251 . S
C766 O757 1.257 . S
C766 O758 1.245 . S
O767 Co738 2.286 . S
O767 C759 1.259 . S
O768 Co738 2.069 . S
O768 C759 1.289 . S
O769 Co740 2.140 1_656 S
O769 C760 1.246 . S
O770 Co738 2.015 1_655 S
O770 C760 1.257 . S
Co771 O774 2.042 1_556 S
Co771 O781 2.264 1_556 S
Co771 O800 2.286 . S
Co771 O801 2.069 . S
Co771 O803 2.015 . S
Co772 O774 2.122 . S
Co772 O780 2.073 . S
Co772 O781 2.327 . S
Co772 O782 1.976 . S
Co773 O774 2.087 . S
Co773 O776 2.087 1_554 S
Co773 O783 2.111 . S
Co773 O784 2.143 . S
Co773 O788 2.111 1_554 S
Co773 O802 2.143 1_554 S
O774 Co771 2.042 1_554 S
O774 Co772 2.122 . S
O774 Co773 2.087 . S
O774 H775 0.980 . S
H775 O774 0.980 . S
O776 Co773 2.087 1_556 S
O776 Co777 2.042 1_556 S
O776 Co778 2.122 . S
O776 H779 0.980 . S
Co777 O776 2.042 1_554 S
Co777 O785 2.286 . S
Co777 O786 2.069 . S
Co777 O787 2.015 . S
Co777 O790 2.264 1_554 S
Co778 O776 2.122 . S
Co778 O789 1.976 . S
Co778 O790 2.327 . S
Co778 O791 2.073 . S
H779 O776 0.980 . S
O780 Co772 2.073 . S
O780 C795 1.245 . S
O781 Co771 2.264 1_554 S
O781 Co772 2.327 . S
O781 C795 1.257 . S
O782 Co772 1.976 . S
O782 C794 1.251 . S
O783 Co773 2.111 . S
O783 C794 1.274 . S
O784 Co773 2.143 . S
O784 C797 1.246 . S
O785 Co777 2.286 . S
O785 C796 1.259 . S
O786 Co777 2.069 . S
O786 C796 1.289 . S
O787 Co777 2.015 . S
O787 C797 1.257 . S
O788 Co773 2.111 1_556 S
O788 C798 1.274 . S
O789 Co778 1.976 . S
O789 C798 1.251 . S
O790 Co777 2.264 1_556 S
O790 Co778 2.327 . S
O790 C799 1.257 . S
O791 Co778 2.073 . S
O791 C799 1.245 . S
C792 O800 1.259 . S
C792 O801 1.289 . S
C793 O802 1.246 . S
C793 O803 1.257 . S
C794 O782 1.251 . S
C794 O783 1.274 . S
C795 O780 1.245 . S
C795 O781 1.257 . S
C796 O785 1.259 . S
C796 O786 1.289 . S
C797 O784 1.246 . S
C797 O787 1.257 . S
C798 O788 1.274 . S
C798 O789 1.251 . S
C799 O790 1.257 . S
C799 O791 1.245 . S
O800 Co771 2.286 . S
O800 C792 1.259 . S
O801 Co771 2.069 . S
O801 C792 1.289 . S
O802 Co773 2.143 1_556 S
O802 C793 1.246 . S
O803 Co771 2.015 . S
O803 C793 1.257 . S
Co804 O807 2.042 . S
Co804 O814 2.264 . S
Co804 O833 2.286 . S
Co804 O834 2.069 . S
Co804 O836 2.015 . S
Co805 O807 2.122 . S
Co805 O813 2.073 . S
Co805 O814 2.327 . S
Co805 O815 1.976 . S
Co806 O807 2.095 . S
Co806 O809 2.079 1_455 S
Co806 O816 2.113 . S
Co806 O817 2.138 1_455 S
Co806 O821 2.110 1_455 S
Co806 O835 2.149 . S
O807 Co804 2.042 . S
O807 Co805 2.122 . S
O807 Co806 2.095 . S
O807 H808 0.980 . S
H808 O807 0.980 . S
O809 Co806 2.079 1_655 S
O809 Co810 2.042 . S
O809 Co811 2.122 . S
O809 H812 0.980 . S
Co810 O809 2.042 . S
Co810 O818 2.286 . S
Co810 O819 2.069 . S
Co810 O820 2.015 . S
Co810 O823 2.264 . S
Co811 O809 2.122 . S
Co811 O822 1.976 . S
Co811 O823 2.327 . S
Co811 O824 2.073 . S
H812 O809 0.980 . S
O813 Co805 2.073 . S
O813 C828 1.245 . S
O814 Co804 2.264 . S
O814 Co805 2.327 . S
O814 C828 1.257 . S
O815 Co805 1.976 . S
O815 C827 1.251 . S
O816 Co806 2.113 . S
O816 C827 1.274 . S
O817 Co806 2.138 1_655 S
O817 C830 1.246 . S
O818 Co810 2.286 . S
O818 C829 1.259 . S
O819 Co810 2.069 . S
O819 C829 1.289 . S
O820 Co810 2.015 . S
O820 C830 1.257 . S
O821 Co806 2.110 1_655 S
O821 C831 1.274 . S
O822 Co811 1.976 . S
O822 C831 1.251 . S
O823 Co810 2.264 . S
O823 Co811 2.327 . S
O823 C832 1.257 . S
O824 Co811 2.073 . S
O824 C832 1.245 . S
C825 O833 1.259 . S
C825 O834 1.289 . S
C826 O835 1.246 . S
C826 O836 1.257 . S
C827 O815 1.251 . S
C827 O816 1.274 . S
C828 O813 1.245 . S
C828 O814 1.257 . S
C829 O818 1.259 . S
C829 O819 1.289 . S
C830 O817 1.246 . S
C830 O820 1.257 . S
C831 O821 1.274 . S
C831 O822 1.251 . S
C832 O823 1.257 . S
C832 O824 1.245 . S
O833 Co804 2.286 . S
O833 C825 1.259 . S
O834 Co804 2.069 . S
O834 C825 1.289 . S
O835 Co806 2.149 . S
O835 C826 1.246 . S
O836 Co804 2.015 . S
O836 C826 1.257 . S
Co837 O840 2.042 . S
Co837 O847 2.264 . S
Co837 O866 2.286 . S
Co837 O867 2.069 . S
Co837 O869 2.015 1_565 S
Co838 O840 2.122 . S
Co838 O846 2.073 . S
Co838 O847 2.327 . S
Co838 O848 1.976 1_565 S
Co839 O840 2.087 1_545 S
Co839 O842 2.087 . S
Co839 O849 2.111 . S
Co839 O850 2.143 1_545 S
Co839 O854 2.111 1_545 S
Co839 O868 2.143 . S
O840 Co837 2.042 . S
O840 Co838 2.122 . S
O840 Co839 2.087 1_565 S
O840 H841 0.980 . S
H841 O840 0.980 . S
O842 Co839 2.087 . S
O842 Co843 2.042 . S
O842 Co844 2.122 . S
O842 H845 0.980 . S
Co843 O842 2.042 . S
Co843 O851 2.286 . S
Co843 O852 2.069 . S
Co843 O853 2.015 1_545 S
Co843 O856 2.264 . S
Co844 O842 2.122 . S
Co844 O855 1.976 1_545 S
Co844 O856 2.327 . S
Co844 O857 2.073 . S
H845 O842 0.980 . S
O846 Co838 2.073 . S
O846 C861 1.245 . S
O847 Co837 2.264 . S
O847 Co838 2.327 . S
O847 C861 1.257 . S
O848 Co838 1.976 1_545 S
O848 C860 1.251 . S
O849 Co839 2.111 . S
O849 C860 1.274 . S
O850 Co839 2.143 1_565 S
O850 C863 1.246 . S
O851 Co843 2.286 . S
O851 C862 1.259 . S
O852 Co843 2.069 . S
O852 C862 1.289 . S
O853 Co843 2.015 1_565 S
O853 C863 1.257 . S
O854 Co839 2.111 1_565 S
O854 C864 1.274 . S
O855 Co844 1.976 1_565 S
O855 C864 1.251 . S
O856 Co843 2.264 . S
O856 Co844 2.327 . S
O856 C865 1.257 . S
O857 Co844 2.073 . S
O857 C865 1.245 . S
C858 O866 1.259 . S
C858 O867 1.289 . S
C859 O868 1.246 . S
C859 O869 1.257 . S
C860 O848 1.251 . S
C860 O849 1.274 . S
C861 O846 1.245 . S
C861 O847 1.257 . S
C862 O851 1.259 . S
C862 O852 1.289 . S
C863 O850 1.246 . S
C863 O853 1.257 . S
C864 O854 1.274 . S
C864 O855 1.251 . S
C865 O856 1.257 . S
C865 O857 1.245 . S
O866 Co837 2.286 . S
O866 C858 1.259 . S
O867 Co837 2.069 . S
O867 C858 1.289 . S
O868 Co839 2.143 . S
O868 C859 1.246 . S
O869 Co837 2.015 1_545 S
O869 C859 1.257 . S
H870 C882 0.930 . S
H871 C884 0.930 . S
H872 C885 0.930 . S
H873 C889 0.959 . S
H874 C889 0.959 . S
H875 C889 0.961 . S
H876 C890 0.960 . S
H877 C890 0.961 . S
H878 C890 0.959 . S
H879 C893 0.929 . S
H880 C894 0.931 . S
H881 C896 0.930 . S
C882 H870 0.930 . S
C882 C883 1.399 . S
C882 C887 1.399 . S
C883 C882 1.399 . S
C883 C884 1.376 . S
C884 H871 0.930 . S
C884 C883 1.376 . S
C884 C885 1.388 . S
C885 H872 0.930 . S
C885 C884 1.388 . S
C885 C886 1.390 . S
C886 C885 1.390 . S
C886 C887 1.394 . S
C886 C892 1.465 . S
C887 C882 1.399 . S
C887 C886 1.394 . S
C887 C888 1.516 . S
C888 C887 1.516 . S
C888 C889 1.502 . S
C888 C890 1.561 . S
C888 C891 1.526 . S
C889 H873 0.959 . S
C889 H874 0.959 . S
C889 H875 0.961 . S
C889 C888 1.502 . S
C890 H876 0.960 . S
C890 H877 0.961 . S
C890 H878 0.959 . S
C890 C888 1.561 . S
C891 C888 1.526 . S
C891 C892 1.396 . S
C891 C896 1.390 . S
C892 C886 1.465 . S
C892 C891 1.396 . S
C892 C893 1.399 . S
C893 H879 0.929 . S
C893 C892 1.399 . S
C893 C894 1.385 . S
C894 H880 0.931 . S
C894 C893 1.385 . S
C894 C895 1.389 . S
C895 C894 1.389 . S
C895 C896 1.387 . S
C896 H881 0.930 . S
C896 C891 1.390 . S
C896 C895 1.387 . S
H897 C909 0.930 . S
H898 C911 0.930 . S
H899 C912 0.930 . S
H900 C916 0.959 . S
H901 C916 0.959 . S
H902 C916 0.961 . S
H903 C917 0.960 . S
H904 C917 0.961 . S
H905 C917 0.959 . S
H906 C920 0.929 . S
H907 C921 0.931 . S
H908 C923 0.930 . S
C909 H897 0.930 . S
C909 C910 1.399 . S
C909 C914 1.399 . S
C910 C909 1.399 . S
C910 C911 1.376 . S
C911 H898 0.930 . S
C911 C910 1.376 . S
C911 C912 1.388 . S
C912 H899 0.930 . S
C912 C911 1.388 . S
C912 C913 1.390 . S
C913 C912 1.390 . S
C913 C914 1.394 . S
C913 C919 1.465 . S
C914 C909 1.399 . S
C914 C913 1.394 . S
C914 C915 1.516 . S
C915 C914 1.516 . S
C915 C916 1.502 . S
C915 C917 1.561 . S
C915 C918 1.526 . S
C916 H900 0.959 . S
C916 H901 0.959 . S
C916 H902 0.961 . S
C916 C915 1.502 . S
C917 H903 0.960 . S
C917 H904 0.961 . S
C917 H905 0.959 . S
C917 C915 1.561 . S
C918 C915 1.526 . S
C918 C919 1.396 . S
C918 C923 1.390 . S
C919 C913 1.465 . S
C919 C918 1.396 . S
C919 C920 1.399 . S
C920 H906 0.929 . S
C920 C919 1.399 . S
C920 C921 1.385 . S
C921 H907 0.931 . S
C921 C920 1.385 . S
C921 C922 1.389 . S
C922 C921 1.389 . S
C922 C923 1.387 . S
C923 H908 0.930 . S
C923 C918 1.390 . S
C923 C922 1.387 . S
H924 C936 0.930 . S
H925 C938 0.930 . S
H926 C939 0.930 . S
H927 C943 0.959 . S
H928 C943 0.959 . S
H929 C943 0.961 . S
H930 C944 0.960 . S
H931 C944 0.961 . S
H932 C944 0.959 . S
H933 C947 0.929 . S
H934 C948 0.931 . S
H935 C950 0.930 . S
C936 H924 0.930 . S
C936 C937 1.399 . S
C936 C941 1.399 . S
C937 C936 1.399 . S
C937 C938 1.376 . S
C938 H925 0.930 . S
C938 C937 1.376 . S
C938 C939 1.388 . S
C939 H926 0.930 . S
C939 C938 1.388 . S
C939 C940 1.390 . S
C940 C939 1.390 . S
C940 C941 1.394 . S
C940 C946 1.465 . S
C941 C936 1.399 . S
C941 C940 1.394 . S
C941 C942 1.516 . S
C942 C941 1.516 . S
C942 C943 1.502 . S
C942 C944 1.561 . S
C942 C945 1.526 . S
C943 H927 0.959 . S
C943 H928 0.959 . S
C943 H929 0.961 . S
C943 C942 1.502 . S
C944 H930 0.960 . S
C944 H931 0.961 . S
C944 H932 0.959 . S
C944 C942 1.561 . S
C945 C942 1.526 . S
C945 C946 1.396 . S
C945 C950 1.390 . S
C946 C940 1.465 . S
C946 C945 1.396 . S
C946 C947 1.399 . S
C947 H933 0.929 . S
C947 C946 1.399 . S
C947 C948 1.385 . S
C948 H934 0.931 . S
C948 C947 1.385 . S
C948 C949 1.389 . S
C949 C948 1.389 . S
C949 C950 1.387 . S
C950 H935 0.930 . S
C950 C945 1.390 . S
C950 C949 1.387 . S
H951 C963 0.930 . S
H952 C965 0.930 . S
H953 C966 0.930 . S
H954 C970 0.959 . S
H955 C970 0.959 . S
H956 C970 0.961 . S
H957 C971 0.960 . S
H958 C971 0.961 . S
H959 C971 0.959 . S
H960 C974 0.929 . S
H961 C975 0.931 . S
H962 C977 0.930 . S
C963 H951 0.930 . S
C963 C964 1.399 . S
C963 C968 1.399 . S
C964 C963 1.399 . S
C964 C965 1.376 . S
C965 H952 0.930 . S
C965 C964 1.376 . S
C965 C966 1.388 . S
C966 H953 0.930 . S
C966 C965 1.388 . S
C966 C967 1.390 . S
C967 C966 1.390 . S
C967 C968 1.394 . S
C967 C973 1.465 . S
C968 C963 1.399 . S
C968 C967 1.394 . S
C968 C969 1.516 . S
C969 C968 1.516 . S
C969 C970 1.502 . S
C969 C971 1.561 . S
C969 C972 1.526 . S
C970 H954 0.959 . S
C970 H955 0.959 . S
C970 H956 0.961 . S
C970 C969 1.502 . S
C971 H957 0.960 . S
C971 H958 0.961 . S
C971 H959 0.959 . S
C971 C969 1.561 . S
C972 C969 1.526 . S
C972 C973 1.396 . S
C972 C977 1.390 . S
C973 C967 1.465 . S
C973 C972 1.396 . S
C973 C974 1.399 . S
C974 H960 0.929 . S
C974 C973 1.399 . S
C974 C975 1.385 . S
C975 H961 0.931 . S
C975 C974 1.385 . S
C975 C976 1.389 . S
C976 C975 1.389 . S
C976 C977 1.387 . S
C977 H962 0.930 . S
C977 C972 1.390 . S
C977 C976 1.387 . S
H978 C990 0.930 . S
H979 C992 0.930 . S
H980 C993 0.930 . S
H981 C997 0.959 . S
H982 C997 0.959 . S
H983 C997 0.961 . S
H984 C998 0.960 . S
H985 C998 0.961 . S
H986 C998 0.959 . S
H987 C1001 0.929 . S
H988 C1002 0.931 . S
H989 C1004 0.930 . S
C990 H978 0.930 . S
C990 C991 1.399 . S
C990 C995 1.399 . S
C991 C990 1.399 . S
C991 C992 1.376 . S
C992 H979 0.930 . S
C992 C991 1.376 . S
C992 C993 1.388 . S
C993 H980 0.930 . S
C993 C992 1.388 . S
C993 C994 1.390 . S
C994 C993 1.390 . S
C994 C995 1.394 . S
C994 C1000 1.465 . S
C995 C990 1.399 . S
C995 C994 1.394 . S
C995 C996 1.516 . S
C996 C995 1.516 . S
C996 C997 1.502 . S
C996 C998 1.561 . S
C996 C999 1.526 . S
C997 H981 0.959 . S
C997 H982 0.959 . S
C997 H983 0.961 . S
C997 C996 1.502 . S
C998 H984 0.960 . S
C998 H985 0.961 . S
C998 H986 0.959 . S
C998 C996 1.561 . S
C999 C996 1.526 . S
C999 C1000 1.396 . S
C999 C1004 1.390 . S
C1000 C994 1.465 . S
C1000 C999 1.396 . S
C1000 C1001 1.399 . S
C1001 H987 0.929 . S
C1001 C1000 1.399 . S
C1001 C1002 1.385 . S
C1002 H988 0.931 . S
C1002 C1001 1.385 . S
C1002 C1003 1.389 . S
C1003 C1002 1.389 . S
C1003 C1004 1.387 . S
C1004 H989 0.930 . S
C1004 C999 1.390 . S
C1004 C1003 1.387 . S
H1005 C1017 0.930 . S
H1006 C1019 0.930 . S
H1007 C1020 0.930 . S
H1008 C1024 0.959 . S
H1009 C1024 0.959 . S
H1010 C1024 0.961 . S
H1011 C1025 0.960 . S
H1012 C1025 0.961 . S
H1013 C1025 0.959 . S
H1014 C1028 0.929 . S
H1015 C1029 0.931 . S
H1016 C1031 0.930 . S
C1017 H1005 0.930 . S
C1017 C1018 1.399 . S
C1017 C1022 1.399 . S
C1018 C1017 1.399 . S
C1018 C1019 1.376 . S
C1019 H1006 0.930 . S
C1019 C1018 1.376 . S
C1019 C1020 1.388 . S
C1020 H1007 0.930 . S
C1020 C1019 1.388 . S
C1020 C1021 1.390 . S
C1021 C1020 1.390 . S
C1021 C1022 1.394 . S
C1021 C1027 1.465 . S
C1022 C1017 1.399 . S
C1022 C1021 1.394 . S
C1022 C1023 1.516 . S
C1023 C1022 1.516 . S
C1023 C1024 1.502 . S
C1023 C1025 1.561 . S
C1023 C1026 1.526 . S
C1024 H1008 0.959 . S
C1024 H1009 0.959 . S
C1024 H1010 0.961 . S
C1024 C1023 1.502 . S
C1025 H1011 0.960 . S
C1025 H1012 0.961 . S
C1025 H1013 0.959 . S
C1025 C1023 1.561 . S
C1026 C1023 1.526 . S
C1026 C1027 1.396 . S
C1026 C1031 1.390 . S
C1027 C1021 1.465 . S
C1027 C1026 1.396 . S
C1027 C1028 1.399 . S
C1028 H1014 0.929 . S
C1028 C1027 1.399 . S
C1028 C1029 1.385 . S
C1029 H1015 0.931 . S
C1029 C1028 1.385 . S
C1029 C1030 1.389 . S
C1030 C1029 1.389 . S
C1030 C1031 1.387 . S
C1031 H1016 0.930 . S
C1031 C1026 1.390 . S
C1031 C1030 1.387 . S
H1032 C1044 0.930 . S
H1033 C1046 0.930 . S
H1034 C1047 0.930 . S
H1035 C1051 0.959 . S
H1036 C1051 0.959 . S
H1037 C1051 0.961 . S
H1038 C1052 0.960 . S
H1039 C1052 0.961 . S
H1040 C1052 0.959 . S
H1041 C1055 0.929 . S
H1042 C1056 0.931 . S
H1043 C1058 0.930 . S
C1044 H1032 0.930 . S
C1044 C1045 1.399 . S
C1044 C1049 1.399 . S
C1045 C1044 1.399 . S
C1045 C1046 1.376 . S
C1046 H1033 0.930 . S
C1046 C1045 1.376 . S
C1046 C1047 1.388 . S
C1047 H1034 0.930 . S
C1047 C1046 1.388 . S
C1047 C1048 1.390 . S
C1048 C1047 1.390 . S
C1048 C1049 1.394 . S
C1048 C1054 1.465 . S
C1049 C1044 1.399 . S
C1049 C1048 1.394 . S
C1049 C1050 1.516 . S
C1050 C1049 1.516 . S
C1050 C1051 1.502 . S
C1050 C1052 1.561 . S
C1050 C1053 1.526 . S
C1051 H1035 0.959 . S
C1051 H1036 0.959 . S
C1051 H1037 0.961 . S
C1051 C1050 1.502 . S
C1052 H1038 0.960 . S
C1052 H1039 0.961 . S
C1052 H1040 0.959 . S
C1052 C1050 1.561 . S
C1053 C1050 1.526 . S
C1053 C1054 1.396 . S
C1053 C1058 1.390 . S
C1054 C1048 1.465 . S
C1054 C1053 1.396 . S
C1054 C1055 1.399 . S
C1055 H1041 0.929 . S
C1055 C1054 1.399 . S
C1055 C1056 1.385 . S
C1056 H1042 0.931 . S
C1056 C1055 1.385 . S
C1056 C1057 1.389 . S
C1057 C1056 1.389 . S
C1057 C1058 1.387 . S
C1058 H1043 0.930 . S
C1058 C1053 1.390 . S
C1058 C1057 1.387 . S
H1059 C1071 0.930 . S
H1060 C1073 0.930 . S
H1061 C1074 0.930 . S
H1062 C1078 0.959 . S
H1063 C1078 0.959 . S
H1064 C1078 0.961 . S
H1065 C1079 0.960 . S
H1066 C1079 0.961 . S
H1067 C1079 0.959 . S
H1068 C1082 0.929 . S
H1069 C1083 0.931 . S
H1070 C1085 0.930 . S
C1071 H1059 0.930 . S
C1071 C1072 1.399 . S
C1071 C1076 1.399 . S
C1072 C1071 1.399 . S
C1072 C1073 1.376 . S
C1073 H1060 0.930 . S
C1073 C1072 1.376 . S
C1073 C1074 1.388 . S
C1074 H1061 0.930 . S
C1074 C1073 1.388 . S
C1074 C1075 1.390 . S
C1075 C1074 1.390 . S
C1075 C1076 1.394 . S
C1075 C1081 1.465 . S
C1076 C1071 1.399 . S
C1076 C1075 1.394 . S
C1076 C1077 1.516 . S
C1077 C1076 1.516 . S
C1077 C1078 1.502 . S
C1077 C1079 1.561 . S
C1077 C1080 1.526 . S
C1078 H1062 0.959 . S
C1078 H1063 0.959 . S
C1078 H1064 0.961 . S
C1078 C1077 1.502 . S
C1079 H1065 0.960 . S
C1079 H1066 0.961 . S
C1079 H1067 0.959 . S
C1079 C1077 1.561 . S
C1080 C1077 1.526 . S
C1080 C1081 1.396 . S
C1080 C1085 1.390 . S
C1081 C1075 1.465 . S
C1081 C1080 1.396 . S
C1081 C1082 1.399 . S
C1082 H1068 0.929 . S
C1082 C1081 1.399 . S
C1082 C1083 1.385 . S
C1083 H1069 0.931 . S
C1083 C1082 1.385 . S
C1083 C1084 1.389 . S
C1084 C1083 1.389 . S
C1084 C1085 1.387 . S
C1085 H1070 0.930 . S
C1085 C1080 1.390 . S
C1085 C1084 1.387 . S
H1086 C1098 0.930 . S
H1087 C1100 0.930 . S
H1088 C1101 0.930 . S
H1089 C1105 0.959 . S
H1090 C1105 0.959 . S
H1091 C1105 0.961 . S
H1092 C1106 0.960 . S
H1093 C1106 0.961 . S
H1094 C1106 0.959 . S
H1095 C1109 0.929 . S
H1096 C1110 0.931 . S
H1097 C1112 0.930 . S
C1098 H1086 0.930 . S
C1098 C1099 1.399 . S
C1098 C1103 1.399 . S
C1099 C1098 1.399 . S
C1099 C1100 1.376 . S
C1100 H1087 0.930 . S
C1100 C1099 1.376 . S
C1100 C1101 1.388 . S
C1101 H1088 0.930 . S
C1101 C1100 1.388 . S
C1101 C1102 1.390 . S
C1102 C1101 1.390 . S
C1102 C1103 1.394 . S
C1102 C1108 1.465 . S
C1103 C1098 1.399 . S
C1103 C1102 1.394 . S
C1103 C1104 1.516 . S
C1104 C1103 1.516 . S
C1104 C1105 1.502 . S
C1104 C1106 1.561 . S
C1104 C1107 1.526 . S
C1105 H1089 0.959 . S
C1105 H1090 0.959 . S
C1105 H1091 0.961 . S
C1105 C1104 1.502 . S
C1106 H1092 0.960 . S
C1106 H1093 0.961 . S
C1106 H1094 0.959 . S
C1106 C1104 1.561 . S
C1107 C1104 1.526 . S
C1107 C1108 1.396 . S
C1107 C1112 1.390 . S
C1108 C1102 1.465 . S
C1108 C1107 1.396 . S
C1108 C1109 1.399 . S
C1109 H1095 0.929 . S
C1109 C1108 1.399 . S
C1109 C1110 1.385 . S
C1110 H1096 0.931 . S
C1110 C1109 1.385 . S
C1110 C1111 1.389 . S
C1111 C1110 1.389 . S
C1111 C1112 1.387 . S
C1112 H1097 0.930 . S
C1112 C1107 1.390 . S
C1112 C1111 1.387 . S
H1113 C1125 0.930 . S
H1114 C1127 0.930 . S
H1115 C1128 0.930 . S
H1116 C1132 0.959 . S
H1117 C1132 0.959 . S
H1118 C1132 0.961 . S
H1119 C1133 0.960 . S
H1120 C1133 0.961 . S
H1121 C1133 0.959 . S
H1122 C1136 0.929 . S
H1123 C1137 0.931 . S
H1124 C1139 0.930 . S
C1125 H1113 0.930 . S
C1125 C1126 1.399 . S
C1125 C1130 1.399 . S
C1126 C1125 1.399 . S
C1126 C1127 1.376 . S
C1127 H1114 0.930 . S
C1127 C1126 1.376 . S
C1127 C1128 1.388 . S
C1128 H1115 0.930 . S
C1128 C1127 1.388 . S
C1128 C1129 1.390 . S
C1129 C1128 1.390 . S
C1129 C1130 1.394 . S
C1129 C1135 1.465 . S
C1130 C1125 1.399 . S
C1130 C1129 1.394 . S
C1130 C1131 1.516 . S
C1131 C1130 1.516 . S
C1131 C1132 1.502 . S
C1131 C1133 1.561 . S
C1131 C1134 1.526 . S
C1132 H1116 0.959 . S
C1132 H1117 0.959 . S
C1132 H1118 0.961 . S
C1132 C1131 1.502 . S
C1133 H1119 0.960 . S
C1133 H1120 0.961 . S
C1133 H1121 0.959 . S
C1133 C1131 1.561 . S
C1134 C1131 1.526 . S
C1134 C1135 1.396 . S
C1134 C1139 1.390 . S
C1135 C1129 1.465 . S
C1135 C1134 1.396 . S
C1135 C1136 1.399 . S
C1136 H1122 0.929 . S
C1136 C1135 1.399 . S
C1136 C1137 1.385 . S
C1137 H1123 0.931 . S
C1137 C1136 1.385 . S
C1137 C1138 1.389 . S
C1138 C1137 1.389 . S
C1138 C1139 1.387 . S
C1139 H1124 0.930 . S
C1139 C1134 1.390 . S
C1139 C1138 1.387 . S
H1140 C1152 0.930 . S
H1141 C1154 0.930 . S
H1142 C1155 0.930 . S
H1143 C1159 0.959 . S
H1144 C1159 0.959 . S
H1145 C1159 0.961 . S
H1146 C1160 0.960 . S
H1147 C1160 0.961 . S
H1148 C1160 0.959 . S
H1149 C1163 0.929 1_556 S
H1150 C1164 0.931 1_556 S
H1151 C1166 0.930 . S
C1152 H1140 0.930 . S
C1152 C1153 1.399 . S
C1152 C1157 1.399 . S
C1153 C1152 1.399 . S
C1153 C1154 1.376 . S
C1154 H1141 0.930 . S
C1154 C1153 1.376 . S
C1154 C1155 1.388 . S
C1155 H1142 0.930 . S
C1155 C1154 1.388 . S
C1155 C1156 1.390 . S
C1156 C1155 1.390 . S
C1156 C1157 1.394 . S
C1156 C1162 1.465 . S
C1157 C1152 1.399 . S
C1157 C1156 1.394 . S
C1157 C1158 1.516 . S
C1158 C1157 1.516 . S
C1158 C1159 1.502 . S
C1158 C1160 1.561 . S
C1158 C1161 1.526 . S
C1159 H1143 0.959 . S
C1159 H1144 0.959 . S
C1159 H1145 0.961 . S
C1159 C1158 1.502 . S
C1160 H1146 0.960 . S
C1160 H1147 0.961 . S
C1160 H1148 0.959 . S
C1160 C1158 1.561 . S
C1161 C1158 1.526 . S
C1161 C1162 1.396 . S
C1161 C1166 1.390 . S
C1162 C1156 1.465 . S
C1162 C1161 1.396 . S
C1162 C1163 1.399 . S
C1163 H1149 0.929 1_554 S
C1163 C1162 1.399 . S
C1163 C1164 1.385 . S
C1164 H1150 0.931 1_554 S
C1164 C1163 1.385 . S
C1164 C1165 1.389 . S
C1165 C1164 1.389 . S
C1165 C1166 1.387 . S
C1166 H1151 0.930 . S
C1166 C1161 1.390 . S
C1166 C1165 1.387 . S
H1167 C1179 0.930 . S
H1168 C1181 0.930 . S
H1169 C1182 0.930 . S
H1170 C1186 0.959 . S
H1171 C1186 0.959 . S
H1172 C1186 0.961 . S
H1173 C1187 0.960 . S
H1174 C1187 0.961 . S
H1175 C1187 0.959 . S
H1176 C1190 0.929 . S
H1177 C1191 0.931 . S
H1178 C1193 0.930 . S
C1179 H1167 0.930 . S
C1179 C1180 1.399 . S
C1179 C1184 1.399 . S
C1180 C1179 1.399 . S
C1180 C1181 1.376 . S
C1181 H1168 0.930 . S
C1181 C1180 1.376 . S
C1181 C1182 1.388 . S
C1182 H1169 0.930 . S
C1182 C1181 1.388 . S
C1182 C1183 1.390 . S
C1183 C1182 1.390 . S
C1183 C1184 1.394 . S
C1183 C1189 1.465 . S
C1184 C1179 1.399 . S
C1184 C1183 1.394 . S
C1184 C1185 1.516 . S
C1185 C1184 1.516 . S
C1185 C1186 1.502 . S
C1185 C1187 1.561 . S
C1185 C1188 1.526 . S
C1186 H1170 0.959 . S
C1186 H1171 0.959 . S
C1186 H1172 0.961 . S
C1186 C1185 1.502 . S
C1187 H1173 0.960 . S
C1187 H1174 0.961 . S
C1187 H1175 0.959 . S
C1187 C1185 1.561 . S
C1188 C1185 1.526 . S
C1188 C1189 1.396 . S
C1188 C1193 1.390 . S
C1189 C1183 1.465 . S
C1189 C1188 1.396 . S
C1189 C1190 1.399 . S
C1190 H1176 0.929 . S
C1190 C1189 1.399 . S
C1190 C1191 1.385 . S
C1191 H1177 0.931 . S
C1191 C1190 1.385 . S
C1191 C1192 1.389 . S
C1192 C1191 1.389 . S
C1192 C1193 1.387 . S
C1193 H1178 0.930 . S
C1193 C1188 1.390 . S
C1193 C1192 1.387 . S
H1194 C1206 0.930 . S
H1195 C1208 0.930 . S
H1196 C1209 0.930 . S
H1197 C1213 0.959 . S
H1198 C1213 0.959 . S
H1199 C1213 0.961 . S
H1200 C1214 0.960 . S
H1201 C1214 0.961 . S
H1202 C1214 0.959 . S
H1203 C1217 0.929 . S
H1204 C1218 0.931 . S
H1205 C1220 0.930 . S
C1206 H1194 0.930 . S
C1206 C1207 1.399 . S
C1206 C1211 1.399 . S
C1207 C1206 1.399 . S
C1207 C1208 1.376 . S
C1208 H1195 0.930 . S
C1208 C1207 1.376 . S
C1208 C1209 1.388 . S
C1209 H1196 0.930 . S
C1209 C1208 1.388 . S
C1209 C1210 1.390 . S
C1210 C1209 1.390 . S
C1210 C1211 1.394 . S
C1210 C1216 1.465 . S
C1211 C1206 1.399 . S
C1211 C1210 1.394 . S
C1211 C1212 1.516 . S
C1212 C1211 1.516 . S
C1212 C1213 1.502 . S
C1212 C1214 1.561 . S
C1212 C1215 1.526 . S
C1213 H1197 0.959 . S
C1213 H1198 0.959 . S
C1213 H1199 0.961 . S
C1213 C1212 1.502 . S
C1214 H1200 0.960 . S
C1214 H1201 0.961 . S
C1214 H1202 0.959 . S
C1214 C1212 1.561 . S
C1215 C1212 1.526 . S
C1215 C1216 1.396 . S
C1215 C1220 1.390 . S
C1216 C1210 1.465 . S
C1216 C1215 1.396 . S
C1216 C1217 1.399 . S
C1217 H1203 0.929 . S
C1217 C1216 1.399 . S
C1217 C1218 1.385 . S
C1218 H1204 0.931 . S
C1218 C1217 1.385 . S
C1218 C1219 1.389 . S
C1219 C1218 1.389 . S
C1219 C1220 1.387 . S
C1220 H1205 0.930 . S
C1220 C1215 1.390 . S
C1220 C1219 1.387 . S
H1221 C1233 0.930 . S
H1222 C1235 0.930 . S
H1223 C1236 0.930 . S
H1224 C1240 0.959 . S
H1225 C1240 0.959 . S
H1226 C1240 0.961 . S
H1227 C1241 0.960 . S
H1228 C1241 0.961 . S
H1229 C1241 0.959 . S
H1230 C1244 0.929 . S
H1231 C1245 0.931 . S
H1232 C1247 0.930 . S
C1233 H1221 0.930 . S
C1233 C1234 1.399 . S
C1233 C1238 1.399 . S
C1234 C1233 1.399 . S
C1234 C1235 1.376 . S
C1235 H1222 0.930 . S
C1235 C1234 1.376 . S
C1235 C1236 1.388 . S
C1236 H1223 0.930 . S
C1236 C1235 1.388 . S
C1236 C1237 1.390 . S
C1237 C1236 1.390 . S
C1237 C1238 1.394 . S
C1237 C1243 1.465 . S
C1238 C1233 1.399 . S
C1238 C1237 1.394 . S
C1238 C1239 1.516 . S
C1239 C1238 1.516 . S
C1239 C1240 1.502 . S
C1239 C1241 1.561 . S
C1239 C1242 1.526 . S
C1240 H1224 0.959 . S
C1240 H1225 0.959 . S
C1240 H1226 0.961 . S
C1240 C1239 1.502 . S
C1241 H1227 0.960 . S
C1241 H1228 0.961 . S
C1241 H1229 0.959 . S
C1241 C1239 1.561 . S
C1242 C1239 1.526 . S
C1242 C1243 1.396 . S
C1242 C1247 1.390 . S
C1243 C1237 1.465 . S
C1243 C1242 1.396 . S
C1243 C1244 1.399 . S
C1244 H1230 0.929 . S
C1244 C1243 1.399 . S
C1244 C1245 1.385 . S
C1245 H1231 0.931 . S
C1245 C1244 1.385 . S
C1245 C1246 1.389 . S
C1246 C1245 1.389 . S
C1246 C1247 1.387 . S
C1247 H1232 0.930 . S
C1247 C1242 1.390 . S
C1247 C1246 1.387 . S
H1248 C1260 0.930 . S
H1249 C1262 0.930 . S
H1250 C1263 0.930 . S
H1251 C1267 0.959 . S
H1252 C1267 0.959 . S
H1253 C1267 0.961 . S
H1254 C1268 0.960 . S
H1255 C1268 0.961 . S
H1256 C1268 0.959 . S
H1257 C1271 0.929 . S
H1258 C1272 0.931 . S
H1259 C1274 0.930 . S
C1260 H1248 0.930 . S
C1260 C1261 1.399 . S
C1260 C1265 1.399 . S
C1261 C1260 1.399 . S
C1261 C1262 1.376 . S
C1262 H1249 0.930 . S
C1262 C1261 1.376 . S
C1262 C1263 1.388 . S
C1263 H1250 0.930 . S
C1263 C1262 1.388 . S
C1263 C1264 1.390 . S
C1264 C1263 1.390 . S
C1264 C1265 1.394 . S
C1264 C1270 1.465 . S
C1265 C1260 1.399 . S
C1265 C1264 1.394 . S
C1265 C1266 1.516 . S
C1266 C1265 1.516 . S
C1266 C1267 1.502 . S
C1266 C1268 1.561 . S
C1266 C1269 1.526 . S
C1267 H1251 0.959 . S
C1267 H1252 0.959 . S
C1267 H1253 0.961 . S
C1267 C1266 1.502 . S
C1268 H1254 0.960 . S
C1268 H1255 0.961 . S
C1268 H1256 0.959 . S
C1268 C1266 1.561 . S
C1269 C1266 1.526 . S
C1269 C1270 1.396 . S
C1269 C1274 1.390 . S
C1270 C1264 1.465 . S
C1270 C1269 1.396 . S
C1270 C1271 1.399 . S
C1271 H1257 0.929 . S
C1271 C1270 1.399 . S
C1271 C1272 1.385 . S
C1272 H1258 0.931 . S
C1272 C1271 1.385 . S
C1272 C1273 1.389 . S
C1273 C1272 1.389 . S
C1273 C1274 1.387 . S
C1274 H1259 0.930 . S
C1274 C1269 1.390 . S
C1274 C1273 1.387 . S
H1275 C1287 0.930 . S
H1276 C1289 0.930 . S
H1277 C1290 0.930 . S
H1278 C1294 0.959 . S
H1279 C1294 0.959 . S
H1280 C1294 0.961 . S
H1281 C1295 0.960 . S
H1282 C1295 0.961 . S
H1283 C1295 0.959 . S
H1284 C1298 0.929 1_554 S
H1285 C1299 0.931 1_554 S
H1286 C1301 0.930 . S
C1287 H1275 0.930 . S
C1287 C1288 1.399 . S
C1287 C1292 1.399 . S
C1288 C1287 1.399 . S
C1288 C1289 1.376 . S
C1289 H1276 0.930 . S
C1289 C1288 1.376 . S
C1289 C1290 1.388 . S
C1290 H1277 0.930 . S
C1290 C1289 1.388 . S
C1290 C1291 1.390 . S
C1291 C1290 1.390 . S
C1291 C1292 1.394 . S
C1291 C1297 1.465 . S
C1292 C1287 1.399 . S
C1292 C1291 1.394 . S
C1292 C1293 1.516 . S
C1293 C1292 1.516 . S
C1293 C1294 1.502 . S
C1293 C1295 1.561 . S
C1293 C1296 1.526 . S
C1294 H1278 0.959 . S
C1294 H1279 0.959 . S
C1294 H1280 0.961 . S
C1294 C1293 1.502 . S
C1295 H1281 0.960 . S
C1295 H1282 0.961 . S
C1295 H1283 0.959 . S
C1295 C1293 1.561 . S
C1296 C1293 1.526 . S
C1296 C1297 1.396 . S
C1296 C1301 1.390 . S
C1297 C1291 1.465 . S
C1297 C1296 1.396 . S
C1297 C1298 1.399 . S
C1298 H1284 0.929 1_556 S
C1298 C1297 1.399 . S
C1298 C1299 1.385 . S
C1299 H1285 0.931 1_556 S
C1299 C1298 1.385 . S
C1299 C1300 1.389 . S
C1300 C1299 1.389 . S
C1300 C1301 1.387 . S
C1301 H1286 0.930 . S
C1301 C1296 1.390 . S
C1301 C1300 1.387 . S
H1302 C1314 0.930 . S
H1303 C1316 0.930 . S
H1304 C1317 0.930 . S
H1305 C1321 0.959 . S
H1306 C1321 0.959 . S
H1307 C1321 0.961 . S
H1308 C1322 0.960 . S
H1309 C1322 0.961 . S
H1310 C1322 0.959 . S
H1311 C1325 0.929 . S
H1312 C1326 0.931 . S
H1313 C1328 0.930 . S
C1314 H1302 0.930 . S
C1314 C1315 1.399 . S
C1314 C1319 1.399 . S
C1315 C1314 1.399 . S
C1315 C1316 1.376 . S
C1316 H1303 0.930 . S
C1316 C1315 1.376 . S
C1316 C1317 1.388 . S
C1317 H1304 0.930 . S
C1317 C1316 1.388 . S
C1317 C1318 1.390 . S
C1318 C1317 1.390 . S
C1318 C1319 1.394 . S
C1318 C1324 1.465 . S
C1319 C1314 1.399 . S
C1319 C1318 1.394 . S
C1319 C1320 1.516 . S
C1320 C1319 1.516 . S
C1320 C1321 1.502 . S
C1320 C1322 1.561 . S
C1320 C1323 1.526 . S
C1321 H1305 0.959 . S
C1321 H1306 0.959 . S
C1321 H1307 0.961 . S
C1321 C1320 1.502 . S
C1322 H1308 0.960 . S
C1322 H1309 0.961 . S
C1322 H1310 0.959 . S
C1322 C1320 1.561 . S
C1323 C1320 1.526 . S
C1323 C1324 1.396 . S
C1323 C1328 1.390 . S
C1324 C1318 1.465 . S
C1324 C1323 1.396 . S
C1324 C1325 1.399 . S
C1325 H1311 0.929 . S
C1325 C1324 1.399 . S
C1325 C1326 1.385 . S
C1326 H1312 0.931 . S
C1326 C1325 1.385 . S
C1326 C1327 1.389 . S
C1327 C1326 1.389 . S
C1327 C1328 1.387 . S
C1328 H1313 0.930 . S
C1328 C1323 1.390 . S
C1328 C1327 1.387 . S
H1329 C1341 0.930 . S
H1330 C1343 0.930 . S
H1331 C1344 0.930 . S
H1332 C1348 0.959 . S
H1333 C1348 0.959 . S
H1334 C1348 0.961 . S
H1335 C1349 0.960 . S
H1336 C1349 0.961 . S
H1337 C1349 0.959 . S
H1338 C1352 0.929 . S
H1339 C1353 0.931 . S
H1340 C1355 0.930 . S
C1341 H1329 0.930 . S
C1341 C1342 1.399 . S
C1341 C1346 1.399 . S
C1342 C1341 1.399 . S
C1342 C1343 1.376 . S
C1343 H1330 0.930 . S
C1343 C1342 1.376 . S
C1343 C1344 1.388 . S
C1344 H1331 0.930 . S
C1344 C1343 1.388 . S
C1344 C1345 1.390 . S
C1345 C1344 1.390 . S
C1345 C1346 1.394 . S
C1345 C1351 1.465 . S
C1346 C1341 1.399 . S
C1346 C1345 1.394 . S
C1346 C1347 1.516 . S
C1347 C1346 1.516 . S
C1347 C1348 1.502 . S
C1347 C1349 1.561 . S
C1347 C1350 1.526 . S
C1348 H1332 0.959 . S
C1348 H1333 0.959 . S
C1348 H1334 0.961 . S
C1348 C1347 1.502 . S
C1349 H1335 0.960 . S
C1349 H1336 0.961 . S
C1349 H1337 0.959 . S
C1349 C1347 1.561 . S
C1350 C1347 1.526 . S
C1350 C1351 1.396 . S
C1350 C1355 1.390 . S
C1351 C1345 1.465 . S
C1351 C1350 1.396 . S
C1351 C1352 1.399 . S
C1352 H1338 0.929 . S
C1352 C1351 1.399 . S
C1352 C1353 1.385 . S
C1353 H1339 0.931 . S
C1353 C1352 1.385 . S
C1353 C1354 1.389 . S
C1354 C1353 1.389 . S
C1354 C1355 1.387 . S
C1355 H1340 0.930 . S
C1355 C1350 1.390 . S
C1355 C1354 1.387 . S
H1356 C1368 0.930 . S
H1357 C1370 0.930 . S
H1358 C1371 0.930 . S
H1359 C1375 0.959 . S
H1360 C1375 0.959 . S
H1361 C1375 0.961 . S
H1362 C1376 0.960 . S
H1363 C1376 0.961 . S
H1364 C1376 0.959 . S
H1365 C1379 0.929 . S
H1366 C1380 0.931 . S
H1367 C1382 0.930 . S
C1368 H1356 0.930 . S
C1368 C1369 1.399 . S
C1368 C1373 1.399 . S
C1369 C1368 1.399 . S
C1369 C1370 1.376 . S
C1370 H1357 0.930 . S
C1370 C1369 1.376 . S
C1370 C1371 1.388 . S
C1371 H1358 0.930 . S
C1371 C1370 1.388 . S
C1371 C1372 1.390 . S
C1372 C1371 1.390 . S
C1372 C1373 1.394 . S
C1372 C1378 1.465 . S
C1373 C1368 1.399 . S
C1373 C1372 1.394 . S
C1373 C1374 1.516 . S
C1374 C1373 1.516 . S
C1374 C1375 1.502 . S
C1374 C1376 1.561 . S
C1374 C1377 1.526 . S
C1375 H1359 0.959 . S
C1375 H1360 0.959 . S
C1375 H1361 0.961 . S
C1375 C1374 1.502 . S
C1376 H1362 0.960 . S
C1376 H1363 0.961 . S
C1376 H1364 0.959 . S
C1376 C1374 1.561 . S
C1377 C1374 1.526 . S
C1377 C1378 1.396 . S
C1377 C1382 1.390 . S
C1378 C1372 1.465 . S
C1378 C1377 1.396 . S
C1378 C1379 1.399 . S
C1379 H1365 0.929 . S
C1379 C1378 1.399 . S
C1379 C1380 1.385 . S
C1380 H1366 0.931 . S
C1380 C1379 1.385 . S
C1380 C1381 1.389 . S
C1381 C1380 1.389 . S
C1381 C1382 1.387 . S
C1382 H1367 0.930 . S
C1382 C1377 1.390 . S
C1382 C1381 1.387 . S
H1383 C1395 0.930 . S
H1384 C1397 0.930 . S
H1385 C1398 0.930 . S
H1386 C1402 0.959 . S
H1387 C1402 0.959 . S
H1388 C1402 0.961 . S
H1389 C1403 0.960 . S
H1390 C1403 0.961 . S
H1391 C1403 0.959 . S
H1392 C1406 0.929 . S
H1393 C1407 0.931 . S
H1394 C1409 0.930 . S
C1395 H1383 0.930 . S
C1395 C1396 1.399 . S
C1395 C1400 1.399 . S
C1396 C1395 1.399 . S
C1396 C1397 1.376 . S
C1397 H1384 0.930 . S
C1397 C1396 1.376 . S
C1397 C1398 1.388 . S
C1398 H1385 0.930 . S
C1398 C1397 1.388 . S
C1398 C1399 1.390 . S
C1399 C1398 1.390 . S
C1399 C1400 1.394 . S
C1399 C1405 1.465 . S
C1400 C1395 1.399 . S
C1400 C1399 1.394 . S
C1400 C1401 1.516 . S
C1401 C1400 1.516 . S
C1401 C1402 1.502 . S
C1401 C1403 1.561 . S
C1401 C1404 1.526 . S
C1402 H1386 0.959 . S
C1402 H1387 0.959 . S
C1402 H1388 0.961 . S
C1402 C1401 1.502 . S
C1403 H1389 0.960 . S
C1403 H1390 0.961 . S
C1403 H1391 0.959 . S
C1403 C1401 1.561 . S
C1404 C1401 1.526 . S
C1404 C1405 1.396 . S
C1404 C1409 1.390 . S
C1405 C1399 1.465 . S
C1405 C1404 1.396 . S
C1405 C1406 1.399 . S
C1406 H1392 0.929 . S
C1406 C1405 1.399 . S
C1406 C1407 1.385 . S
C1407 H1393 0.931 . S
C1407 C1406 1.385 . S
C1407 C1408 1.389 . S
C1408 C1407 1.389 . S
C1408 C1409 1.387 . S
C1409 H1394 0.930 . S
C1409 C1404 1.390 . S
C1409 C1408 1.387 . S
H1410 C1422 0.930 . S
H1411 C1424 0.930 . S
H1412 C1425 0.930 . S
H1413 C1429 0.959 . S
H1414 C1429 0.959 . S
H1415 C1429 0.961 . S
H1416 C1430 0.960 . S
H1417 C1430 0.961 . S
H1418 C1430 0.959 . S
H1419 C1433 0.929 . S
H1420 C1434 0.931 . S
H1421 C1436 0.930 . S
C1422 H1410 0.930 . S
C1422 C1423 1.399 . S
C1422 C1427 1.399 . S
C1423 C1422 1.399 . S
C1423 C1424 1.376 . S
C1424 H1411 0.930 . S
C1424 C1423 1.376 . S
C1424 C1425 1.388 . S
C1425 H1412 0.930 . S
C1425 C1424 1.388 . S
C1425 C1426 1.390 . S
C1426 C1425 1.390 . S
C1426 C1427 1.394 . S
C1426 C1432 1.465 . S
C1427 C1422 1.399 . S
C1427 C1426 1.394 . S
C1427 C1428 1.516 . S
C1428 C1427 1.516 . S
C1428 C1429 1.502 . S
C1428 C1430 1.561 . S
C1428 C1431 1.526 . S
C1429 H1413 0.959 . S
C1429 H1414 0.959 . S
C1429 H1415 0.961 . S
C1429 C1428 1.502 . S
C1430 H1416 0.960 . S
C1430 H1417 0.961 . S
C1430 H1418 0.959 . S
C1430 C1428 1.561 . S
C1431 C1428 1.526 . S
C1431 C1432 1.396 . S
C1431 C1436 1.390 . S
C1432 C1426 1.465 . S
C1432 C1431 1.396 . S
C1432 C1433 1.399 . S
C1433 H1419 0.929 . S
C1433 C1432 1.399 . S
C1433 C1434 1.385 . S
C1434 H1420 0.931 . S
C1434 C1433 1.385 . S
C1434 C1435 1.389 . S
C1435 C1434 1.389 . S
C1435 C1436 1.387 . S
C1436 H1421 0.930 . S
C1436 C1431 1.390 . S
C1436 C1435 1.387 . S
H1437 C1449 0.930 . S
H1438 C1451 0.930 . S
H1439 C1452 0.930 . S
H1440 C1456 0.959 . S
H1441 C1456 0.959 . S
H1442 C1456 0.961 . S
H1443 C1457 0.960 . S
H1444 C1457 0.961 . S
H1445 C1457 0.959 . S
H1446 C1460 0.929 . S
H1447 C1461 0.931 . S
H1448 C1463 0.930 . S
C1449 H1437 0.930 . S
C1449 C1450 1.399 . S
C1449 C1454 1.399 . S
C1450 C1449 1.399 . S
C1450 C1451 1.376 . S
C1451 H1438 0.930 . S
C1451 C1450 1.376 . S
C1451 C1452 1.388 . S
C1452 H1439 0.930 . S
C1452 C1451 1.388 . S
C1452 C1453 1.390 . S
C1453 C1452 1.390 . S
C1453 C1454 1.394 . S
C1453 C1459 1.465 . S
C1454 C1449 1.399 . S
C1454 C1453 1.394 . S
C1454 C1455 1.516 . S
C1455 C1454 1.516 . S
C1455 C1456 1.502 . S
C1455 C1457 1.561 . S
C1455 C1458 1.526 . S
C1456 H1440 0.959 . S
C1456 H1441 0.959 . S
C1456 H1442 0.961 . S
C1456 C1455 1.502 . S
C1457 H1443 0.960 . S
C1457 H1444 0.961 . S
C1457 H1445 0.959 . S
C1457 C1455 1.561 . S
C1458 C1455 1.526 . S
C1458 C1459 1.396 . S
C1458 C1463 1.390 . S
C1459 C1453 1.465 . S
C1459 C1458 1.396 . S
C1459 C1460 1.399 . S
C1460 H1446 0.929 . S
C1460 C1459 1.399 . S
C1460 C1461 1.385 . S
C1461 H1447 0.931 . S
C1461 C1460 1.385 . S
C1461 C1462 1.389 . S
C1462 C1461 1.389 . S
C1462 C1463 1.387 . S
C1463 H1448 0.930 . S
C1463 C1458 1.390 . S
C1463 C1462 1.387 . S
H1464 C1476 0.930 . S
H1465 C1478 0.930 . S
H1466 C1479 0.930 . S
H1467 C1483 0.959 . S
H1468 C1483 0.959 . S
H1469 C1483 0.961 . S
H1470 C1484 0.960 . S
H1471 C1484 0.961 . S
H1472 C1484 0.959 . S
H1473 C1487 0.929 . S
H1474 C1488 0.931 1_556 S
H1475 C1490 0.930 . S
C1476 H1464 0.930 . S
C1476 C1477 1.399 . S
C1476 C1481 1.399 . S
C1477 C1476 1.399 . S
C1477 C1478 1.376 . S
C1478 H1465 0.930 . S
C1478 C1477 1.376 . S
C1478 C1479 1.388 . S
C1479 H1466 0.930 . S
C1479 C1478 1.388 . S
C1479 C1480 1.390 . S
C1480 C1479 1.390 . S
C1480 C1481 1.394 . S
C1480 C1486 1.465 . S
C1481 C1476 1.399 . S
C1481 C1480 1.394 . S
C1481 C1482 1.516 . S
C1482 C1481 1.516 . S
C1482 C1483 1.502 . S
C1482 C1484 1.561 . S
C1482 C1485 1.526 . S
C1483 H1467 0.959 . S
C1483 H1468 0.959 . S
C1483 H1469 0.961 . S
C1483 C1482 1.502 . S
C1484 H1470 0.960 . S
C1484 H1471 0.961 . S
C1484 H1472 0.959 . S
C1484 C1482 1.561 . S
C1485 C1482 1.526 . S
C1485 C1486 1.396 . S
C1485 C1490 1.390 . S
C1486 C1480 1.465 . S
C1486 C1485 1.396 . S
C1486 C1487 1.399 . S
C1487 H1473 0.929 . S
C1487 C1486 1.399 . S
C1487 C1488 1.385 . S
C1488 H1474 0.931 1_554 S
C1488 C1487 1.385 . S
C1488 C1489 1.389 . S
C1489 C1488 1.389 . S
C1489 C1490 1.387 . S
C1490 H1475 0.930 . S
C1490 C1485 1.390 . S
C1490 C1489 1.387 . S
H1491 C1503 0.930 . S
H1492 C1505 0.930 . S
H1493 C1506 0.930 . S
H1494 C1510 0.959 . S
H1495 C1510 0.959 . S
H1496 C1510 0.961 . S
H1497 C1511 0.960 . S
H1498 C1511 0.961 . S
H1499 C1511 0.959 . S
H1500 C1514 0.929 . S
H1501 C1515 0.931 . S
H1502 C1517 0.930 . S
C1503 H1491 0.930 . S
C1503 C1504 1.399 . S
C1503 C1508 1.399 . S
C1504 C1503 1.399 . S
C1504 C1505 1.376 . S
C1505 H1492 0.930 . S
C1505 C1504 1.376 . S
C1505 C1506 1.388 . S
C1506 H1493 0.930 . S
C1506 C1505 1.388 . S
C1506 C1507 1.390 . S
C1507 C1506 1.390 . S
C1507 C1508 1.394 . S
C1507 C1513 1.465 . S
C1508 C1503 1.399 . S
C1508 C1507 1.394 . S
C1508 C1509 1.516 . S
C1509 C1508 1.516 . S
C1509 C1510 1.502 . S
C1509 C1511 1.561 . S
C1509 C1512 1.526 . S
C1510 H1494 0.959 . S
C1510 H1495 0.959 . S
C1510 H1496 0.961 . S
C1510 C1509 1.502 . S
C1511 H1497 0.960 . S
C1511 H1498 0.961 . S
C1511 H1499 0.959 . S
C1511 C1509 1.561 . S
C1512 C1509 1.526 . S
C1512 C1513 1.396 . S
C1512 C1517 1.390 . S
C1513 C1507 1.465 . S
C1513 C1512 1.396 . S
C1513 C1514 1.399 . S
C1514 H1500 0.929 . S
C1514 C1513 1.399 . S
C1514 C1515 1.385 . S
C1515 H1501 0.931 . S
C1515 C1514 1.385 . S
C1515 C1516 1.389 . S
C1516 C1515 1.389 . S
C1516 C1517 1.387 . S
C1517 H1502 0.930 . S
C1517 C1512 1.390 . S
C1517 C1516 1.387 . S
H1518 C1530 0.930 . S
H1519 C1532 0.930 . S
H1520 C1533 0.930 . S
H1521 C1537 0.959 . S
H1522 C1537 0.959 . S
H1523 C1537 0.961 . S
H1524 C1538 0.960 . S
H1525 C1538 0.961 . S
H1526 C1538 0.959 . S
H1527 C1541 0.929 . S
H1528 C1542 0.931 . S
H1529 C1544 0.930 . S
C1530 H1518 0.930 . S
C1530 C1531 1.399 . S
C1530 C1535 1.399 . S
C1531 C1530 1.399 . S
C1531 C1532 1.376 . S
C1532 H1519 0.930 . S
C1532 C1531 1.376 . S
C1532 C1533 1.388 . S
C1533 H1520 0.930 . S
C1533 C1532 1.388 . S
C1533 C1534 1.390 . S
C1534 C1533 1.390 . S
C1534 C1535 1.394 . S
C1534 C1540 1.465 . S
C1535 C1530 1.399 . S
C1535 C1534 1.394 . S
C1535 C1536 1.516 . S
C1536 C1535 1.516 . S
C1536 C1537 1.502 . S
C1536 C1538 1.561 . S
C1536 C1539 1.526 . S
C1537 H1521 0.959 . S
C1537 H1522 0.959 . S
C1537 H1523 0.961 . S
C1537 C1536 1.502 . S
C1538 H1524 0.960 . S
C1538 H1525 0.961 . S
C1538 H1526 0.959 . S
C1538 C1536 1.561 . S
C1539 C1536 1.526 . S
C1539 C1540 1.396 . S
C1539 C1544 1.390 . S
C1540 C1534 1.465 . S
C1540 C1539 1.396 . S
C1540 C1541 1.399 . S
C1541 H1527 0.929 . S
C1541 C1540 1.399 . S
C1541 C1542 1.385 . S
C1542 H1528 0.931 . S
C1542 C1541 1.385 . S
C1542 C1543 1.389 . S
C1543 C1542 1.389 . S
C1543 C1544 1.387 . S
C1544 H1529 0.930 . S
C1544 C1539 1.390 . S
C1544 C1543 1.387 . S
H1545 C1557 0.930 . S
H1546 C1559 0.930 . S
H1547 C1560 0.930 . S
H1548 C1564 0.959 . S
H1549 C1564 0.959 . S
H1550 C1564 0.961 . S
H1551 C1565 0.960 . S
H1552 C1565 0.961 . S
H1553 C1565 0.959 . S
H1554 C1568 0.929 . S
H1555 C1569 0.931 1_554 S
H1556 C1571 0.930 . S
C1557 H1545 0.930 . S
C1557 C1558 1.399 . S
C1557 C1562 1.399 . S
C1558 C1557 1.399 . S
C1558 C1559 1.376 . S
C1559 H1546 0.930 . S
C1559 C1558 1.376 . S
C1559 C1560 1.388 . S
C1560 H1547 0.930 . S
C1560 C1559 1.388 . S
C1560 C1561 1.390 . S
C1561 C1560 1.390 . S
C1561 C1562 1.394 . S
C1561 C1567 1.465 . S
C1562 C1557 1.399 . S
C1562 C1561 1.394 . S
C1562 C1563 1.516 . S
C1563 C1562 1.516 . S
C1563 C1564 1.502 . S
C1563 C1565 1.561 . S
C1563 C1566 1.526 . S
C1564 H1548 0.959 . S
C1564 H1549 0.959 . S
C1564 H1550 0.961 . S
C1564 C1563 1.502 . S
C1565 H1551 0.960 . S
C1565 H1552 0.961 . S
C1565 H1553 0.959 . S
C1565 C1563 1.561 . S
C1566 C1563 1.526 . S
C1566 C1567 1.396 . S
C1566 C1571 1.390 . S
C1567 C1561 1.465 . S
C1567 C1566 1.396 . S
C1567 C1568 1.399 . S
C1568 H1554 0.929 . S
C1568 C1567 1.399 . S
C1568 C1569 1.385 . S
C1569 H1555 0.931 1_556 S
C1569 C1568 1.385 . S
C1569 C1570 1.389 . S
C1570 C1569 1.389 . S
C1570 C1571 1.387 . S
C1571 H1556 0.930 . S
C1571 C1566 1.390 . S
C1571 C1570 1.387 . S
H1572 C1584 0.930 . S
H1573 C1586 0.930 . S
H1574 C1587 0.930 . S
H1575 C1591 0.959 . S
H1576 C1591 0.959 . S
H1577 C1591 0.961 . S
H1578 C1592 0.960 . S
H1579 C1592 0.961 . S
H1580 C1592 0.959 . S
H1581 C1595 0.929 . S
H1582 C1596 0.931 . S
H1583 C1598 0.930 . S
C1584 H1572 0.930 . S
C1584 C1585 1.399 . S
C1584 C1589 1.399 . S
C1585 C1584 1.399 . S
C1585 C1586 1.376 . S
C1586 H1573 0.930 . S
C1586 C1585 1.376 . S
C1586 C1587 1.388 . S
C1587 H1574 0.930 . S
C1587 C1586 1.388 . S
C1587 C1588 1.390 . S
C1588 C1587 1.390 . S
C1588 C1589 1.394 . S
C1588 C1594 1.465 . S
C1589 C1584 1.399 . S
C1589 C1588 1.394 . S
C1589 C1590 1.516 . S
C1590 C1589 1.516 . S
C1590 C1591 1.502 . S
C1590 C1592 1.561 . S
C1590 C1593 1.526 . S
C1591 H1575 0.959 . S
C1591 H1576 0.959 . S
C1591 H1577 0.961 . S
C1591 C1590 1.502 . S
C1592 H1578 0.960 . S
C1592 H1579 0.961 . S
C1592 H1580 0.959 . S
C1592 C1590 1.561 . S
C1593 C1590 1.526 . S
C1593 C1594 1.396 . S
C1593 C1598 1.390 . S
C1594 C1588 1.465 . S
C1594 C1593 1.396 . S
C1594 C1595 1.399 . S
C1595 H1581 0.929 . S
C1595 C1594 1.399 . S
C1595 C1596 1.385 . S
C1596 H1582 0.931 . S
C1596 C1595 1.385 . S
C1596 C1597 1.389 . S
C1597 C1596 1.389 . S
C1597 C1598 1.387 . S
C1598 H1583 0.930 . S
C1598 C1593 1.390 . S
C1598 C1597 1.387 . S
H1599 C1611 0.930 . S
H1600 C1613 0.930 . S
H1601 C1614 0.930 . S
H1602 C1618 0.959 . S
H1603 C1618 0.959 . S
H1604 C1618 0.961 . S
H1605 C1619 0.960 . S
H1606 C1619 0.961 . S
H1607 C1619 0.959 . S
H1608 C1622 0.929 1_554 S
H1609 C1623 0.930 . S
H1610 C1625 0.930 . S
C1611 H1599 0.930 . S
C1611 C1612 1.399 . S
C1611 C1616 1.399 . S
C1612 C1611 1.399 . S
C1612 C1613 1.376 . S
C1613 H1600 0.930 . S
C1613 C1612 1.376 . S
C1613 C1614 1.388 . S
C1614 H1601 0.930 . S
C1614 C1613 1.388 . S
C1614 C1615 1.390 . S
C1615 C1614 1.390 . S
C1615 C1616 1.394 . S
C1615 C1621 1.465 . S
C1616 C1611 1.399 . S
C1616 C1615 1.394 . S
C1616 C1617 1.516 . S
C1617 C1616 1.516 . S
C1617 C1618 1.502 . S
C1617 C1619 1.561 . S
C1617 C1620 1.526 . S
C1618 H1602 0.959 . S
C1618 H1603 0.959 . S
C1618 H1604 0.961 . S
C1618 C1617 1.502 . S
C1619 H1605 0.960 . S
C1619 H1606 0.961 . S
C1619 H1607 0.959 . S
C1619 C1617 1.561 . S
C1620 C1617 1.526 . S
C1620 C1621 1.396 . S
C1620 C1625 1.390 . S
C1621 C1615 1.465 . S
C1621 C1620 1.396 . S
C1621 C1622 1.399 . S
C1622 H1608 0.929 1_556 S
C1622 C1621 1.399 . S
C1622 C1623 1.385 . S
C1623 H1609 0.930 . S
C1623 C1622 1.385 . S
C1623 C1624 1.389 . S
C1624 C1623 1.389 . S
C1624 C1625 1.387 . S
C1625 H1610 0.930 . S
C1625 C1620 1.390 . S
C1625 C1624 1.387 . S
H1626 C1638 0.930 . S
H1627 C1640 0.930 . S
H1628 C1641 0.930 . S
H1629 C1645 0.959 . S
H1630 C1645 0.959 . S
H1631 C1645 0.961 . S
H1632 C1646 0.960 . S
H1633 C1646 0.961 . S
H1634 C1646 0.959 . S
H1635 C1649 0.929 . S
H1636 C1650 0.931 . S
H1637 C1652 0.930 . S
C1638 H1626 0.930 . S
C1638 C1639 1.399 . S
C1638 C1643 1.399 . S
C1639 C1638 1.399 . S
C1639 C1640 1.376 . S
C1640 H1627 0.930 . S
C1640 C1639 1.376 . S
C1640 C1641 1.388 . S
C1641 H1628 0.930 . S
C1641 C1640 1.388 . S
C1641 C1642 1.390 . S
C1642 C1641 1.390 . S
C1642 C1643 1.394 . S
C1642 C1648 1.465 . S
C1643 C1638 1.399 . S
C1643 C1642 1.394 . S
C1643 C1644 1.516 . S
C1644 C1643 1.516 . S
C1644 C1645 1.502 . S
C1644 C1646 1.561 . S
C1644 C1647 1.526 . S
C1645 H1629 0.959 . S
C1645 H1630 0.959 . S
C1645 H1631 0.961 . S
C1645 C1644 1.502 . S
C1646 H1632 0.960 . S
C1646 H1633 0.961 . S
C1646 H1634 0.959 . S
C1646 C1644 1.561 . S
C1647 C1644 1.526 . S
C1647 C1648 1.396 . S
C1647 C1652 1.390 . S
C1648 C1642 1.465 . S
C1648 C1647 1.396 . S
C1648 C1649 1.399 . S
C1649 H1635 0.929 . S
C1649 C1648 1.399 . S
C1649 C1650 1.385 . S
C1650 H1636 0.931 . S
C1650 C1649 1.385 . S
C1650 C1651 1.389 . S
C1651 C1650 1.389 . S
C1651 C1652 1.387 . S
C1652 H1637 0.930 . S
C1652 C1647 1.390 . S
C1652 C1651 1.387 . S
H1653 C1665 0.930 . S
H1654 C1667 0.930 . S
H1655 C1668 0.930 . S
H1656 C1672 0.959 . S
H1657 C1672 0.959 . S
H1658 C1672 0.961 . S
H1659 C1673 0.960 . S
H1660 C1673 0.961 . S
H1661 C1673 0.959 . S
H1662 C1676 0.929 . S
H1663 C1677 0.931 . S
H1664 C1679 0.930 . S
C1665 H1653 0.930 . S
C1665 C1666 1.399 . S
C1665 C1670 1.399 . S
C1666 C1665 1.399 . S
C1666 C1667 1.376 . S
C1667 H1654 0.930 . S
C1667 C1666 1.376 . S
C1667 C1668 1.388 . S
C1668 H1655 0.930 . S
C1668 C1667 1.388 . S
C1668 C1669 1.390 . S
C1669 C1668 1.390 . S
C1669 C1670 1.394 . S
C1669 C1675 1.465 . S
C1670 C1665 1.399 . S
C1670 C1669 1.394 . S
C1670 C1671 1.516 . S
C1671 C1670 1.516 . S
C1671 C1672 1.502 . S
C1671 C1673 1.561 . S
C1671 C1674 1.526 . S
C1672 H1656 0.959 . S
C1672 H1657 0.959 . S
C1672 H1658 0.961 . S
C1672 C1671 1.502 . S
C1673 H1659 0.960 . S
C1673 H1660 0.961 . S
C1673 H1661 0.959 . S
C1673 C1671 1.561 . S
C1674 C1671 1.526 . S
C1674 C1675 1.396 . S
C1674 C1679 1.390 . S
C1675 C1669 1.465 . S
C1675 C1674 1.396 . S
C1675 C1676 1.399 . S
C1676 H1662 0.929 . S
C1676 C1675 1.399 . S
C1676 C1677 1.385 . S
C1677 H1663 0.931 . S
C1677 C1676 1.385 . S
C1677 C1678 1.389 . S
C1678 C1677 1.389 . S
C1678 C1679 1.387 . S
C1679 H1664 0.930 . S
C1679 C1674 1.390 . S
C1679 C1678 1.387 . S
H1680 C1692 0.930 . S
H1681 C1694 0.930 . S
H1682 C1695 0.930 . S
H1683 C1699 0.959 . S
H1684 C1699 0.959 1_556 S
H1685 C1699 0.961 . S
H1686 C1700 0.960 1_556 S
H1687 C1700 0.961 1_556 S
H1688 C1700 0.959 . S
H1689 C1703 0.929 . S
H1690 C1704 0.931 . S
H1691 C1706 0.930 . S
C1692 H1680 0.930 . S
C1692 C1693 1.399 . S
C1692 C1697 1.399 . S
C1693 C1692 1.399 . S
C1693 C1694 1.376 . S
C1694 H1681 0.930 . S
C1694 C1693 1.376 . S
C1694 C1695 1.388 . S
C1695 H1682 0.930 . S
C1695 C1694 1.388 . S
C1695 C1696 1.390 . S
C1696 C1695 1.390 . S
C1696 C1697 1.394 . S
C1696 C1702 1.465 . S
C1697 C1692 1.399 . S
C1697 C1696 1.394 . S
C1697 C1698 1.516 . S
C1698 C1697 1.516 . S
C1698 C1699 1.502 . S
C1698 C1700 1.561 . S
C1698 C1701 1.526 . S
C1699 H1683 0.959 . S
C1699 H1684 0.959 1_554 S
C1699 H1685 0.961 . S
C1699 C1698 1.502 . S
C1700 H1686 0.960 1_554 S
C1700 H1687 0.961 1_554 S
C1700 H1688 0.959 . S
C1700 C1698 1.561 . S
C1701 C1698 1.526 . S
C1701 C1702 1.396 . S
C1701 C1706 1.390 . S
C1702 C1696 1.465 . S
C1702 C1701 1.396 . S
C1702 C1703 1.399 . S
C1703 H1689 0.929 . S
C1703 C1702 1.399 . S
C1703 C1704 1.385 . S
C1704 H1690 0.931 . S
C1704 C1703 1.385 . S
C1704 C1705 1.389 . S
C1705 C1704 1.389 . S
C1705 C1706 1.387 . S
C1706 H1691 0.930 . S
C1706 C1701 1.390 . S
C1706 C1705 1.387 . S
H1707 C1719 0.930 . S
H1708 C1721 0.930 . S
H1709 C1722 0.930 . S
H1710 C1726 0.959 . S
H1711 C1726 0.959 . S
H1712 C1726 0.961 . S
H1713 C1727 0.960 . S
H1714 C1727 0.961 . S
H1715 C1727 0.959 . S
H1716 C1730 0.929 . S
H1717 C1731 0.931 . S
H1718 C1733 0.930 . S
C1719 H1707 0.930 . S
C1719 C1720 1.399 . S
C1719 C1724 1.399 . S
C1720 C1719 1.399 . S
C1720 C1721 1.376 . S
C1721 H1708 0.930 . S
C1721 C1720 1.376 . S
C1721 C1722 1.388 . S
C1722 H1709 0.930 . S
C1722 C1721 1.388 . S
C1722 C1723 1.390 . S
C1723 C1722 1.390 . S
C1723 C1724 1.394 . S
C1723 C1729 1.465 . S
C1724 C1719 1.399 . S
C1724 C1723 1.394 . S
C1724 C1725 1.516 . S
C1725 C1724 1.516 . S
C1725 C1726 1.502 . S
C1725 C1727 1.561 . S
C1725 C1728 1.526 . S
C1726 H1710 0.959 . S
C1726 H1711 0.959 . S
C1726 H1712 0.961 . S
C1726 C1725 1.502 . S
C1727 H1713 0.960 . S
C1727 H1714 0.961 . S
C1727 H1715 0.959 . S
C1727 C1725 1.561 . S
C1728 C1725 1.526 . S
C1728 C1729 1.396 . S
C1728 C1733 1.390 . S
C1729 C1723 1.465 . S
C1729 C1728 1.396 . S
C1729 C1730 1.399 . S
C1730 H1716 0.929 . S
C1730 C1729 1.399 . S
C1730 C1731 1.385 . S
C1731 H1717 0.931 . S
C1731 C1730 1.385 . S
C1731 C1732 1.389 . S
C1732 C1731 1.389 . S
C1732 C1733 1.387 . S
C1733 H1718 0.930 . S
C1733 C1728 1.390 . S
C1733 C1732 1.387 . S
H1734 C1746 0.930 . S
H1735 C1748 0.930 . S
H1736 C1749 0.930 . S
H1737 C1753 0.959 . S
H1738 C1753 0.959 . S
H1739 C1753 0.961 . S
H1740 C1754 0.960 . S
H1741 C1754 0.961 . S
H1742 C1754 0.959 . S
H1743 C1757 0.929 . S
H1744 C1758 0.931 . S
H1745 C1760 0.930 . S
C1746 H1734 0.930 . S
C1746 C1747 1.399 . S
C1746 C1751 1.399 . S
C1747 C1746 1.399 . S
C1747 C1748 1.376 . S
C1748 H1735 0.930 . S
C1748 C1747 1.376 . S
C1748 C1749 1.388 . S
C1749 H1736 0.930 . S
C1749 C1748 1.388 . S
C1749 C1750 1.390 . S
C1750 C1749 1.390 . S
C1750 C1751 1.394 . S
C1750 C1756 1.465 . S
C1751 C1746 1.399 . S
C1751 C1750 1.394 . S
C1751 C1752 1.516 . S
C1752 C1751 1.516 . S
C1752 C1753 1.502 . S
C1752 C1754 1.561 . S
C1752 C1755 1.526 . S
C1753 H1737 0.959 . S
C1753 H1738 0.959 . S
C1753 H1739 0.961 . S
C1753 C1752 1.502 . S
C1754 H1740 0.960 . S
C1754 H1741 0.961 . S
C1754 H1742 0.959 . S
C1754 C1752 1.561 . S
C1755 C1752 1.526 . S
C1755 C1756 1.396 . S
C1755 C1760 1.390 . S
C1756 C1750 1.465 . S
C1756 C1755 1.396 . S
C1756 C1757 1.399 . S
C1757 H1743 0.929 . S
C1757 C1756 1.399 . S
C1757 C1758 1.385 . S
C1758 H1744 0.931 . S
C1758 C1757 1.385 . S
C1758 C1759 1.389 . S
C1759 C1758 1.389 . S
C1759 C1760 1.387 . S
C1760 H1745 0.930 . S
C1760 C1755 1.390 . S
C1760 C1759 1.387 . S
H1761 C1773 0.930 . S
H1762 C1775 0.930 . S
H1763 C1776 0.930 . S
H1764 C1780 0.959 . S
H1765 C1780 0.959 . S
H1766 C1780 0.961 . S
H1767 C1781 0.960 . S
H1768 C1781 0.961 . S
H1769 C1781 0.959 . S
H1770 C1784 0.929 . S
H1771 C1785 0.931 . S
H1772 C1787 0.930 . S
C1773 H1761 0.930 . S
C1773 C1774 1.399 . S
C1773 C1778 1.399 . S
C1774 C1773 1.399 . S
C1774 C1775 1.376 . S
C1775 H1762 0.930 . S
C1775 C1774 1.376 . S
C1775 C1776 1.388 . S
C1776 H1763 0.930 . S
C1776 C1775 1.388 . S
C1776 C1777 1.390 . S
C1777 C1776 1.390 . S
C1777 C1778 1.394 . S
C1777 C1783 1.465 . S
C1778 C1773 1.399 . S
C1778 C1777 1.394 . S
C1778 C1779 1.516 . S
C1779 C1778 1.516 . S
C1779 C1780 1.502 . S
C1779 C1781 1.561 . S
C1779 C1782 1.526 . S
C1780 H1764 0.959 . S
C1780 H1765 0.959 . S
C1780 H1766 0.961 . S
C1780 C1779 1.502 . S
C1781 H1767 0.960 . S
C1781 H1768 0.961 . S
C1781 H1769 0.959 . S
C1781 C1779 1.561 . S
C1782 C1779 1.526 . S
C1782 C1783 1.396 . S
C1782 C1787 1.390 . S
C1783 C1777 1.465 . S
C1783 C1782 1.396 . S
C1783 C1784 1.399 . S
C1784 H1770 0.929 . S
C1784 C1783 1.399 . S
C1784 C1785 1.385 . S
C1785 H1771 0.931 . S
C1785 C1784 1.385 . S
C1785 C1786 1.389 . S
C1786 C1785 1.389 . S
C1786 C1787 1.387 . S
C1787 H1772 0.930 . S
C1787 C1782 1.390 . S
C1787 C1786 1.387 . S
H1788 C1800 0.930 . S
H1789 C1802 0.930 . S
H1790 C1803 0.930 . S
H1791 C1807 0.959 . S
H1792 C1807 0.959 . S
H1793 C1807 0.961 . S
H1794 C1808 0.960 . S
H1795 C1808 0.961 . S
H1796 C1808 0.959 . S
H1797 C1811 0.929 . S
H1798 C1812 0.931 . S
H1799 C1814 0.930 . S
C1800 H1788 0.930 . S
C1800 C1801 1.399 . S
C1800 C1805 1.399 . S
C1801 C1800 1.399 . S
C1801 C1802 1.376 . S
C1802 H1789 0.930 . S
C1802 C1801 1.376 . S
C1802 C1803 1.388 . S
C1803 H1790 0.930 . S
C1803 C1802 1.388 . S
C1803 C1804 1.390 . S
C1804 C1803 1.390 . S
C1804 C1805 1.394 . S
C1804 C1810 1.465 . S
C1805 C1800 1.399 . S
C1805 C1804 1.394 . S
C1805 C1806 1.516 . S
C1806 C1805 1.516 . S
C1806 C1807 1.502 . S
C1806 C1808 1.561 . S
C1806 C1809 1.526 . S
C1807 H1791 0.959 . S
C1807 H1792 0.959 . S
C1807 H1793 0.961 . S
C1807 C1806 1.502 . S
C1808 H1794 0.960 . S
C1808 H1795 0.961 . S
C1808 H1796 0.959 . S
C1808 C1806 1.561 . S
C1809 C1806 1.526 . S
C1809 C1810 1.396 . S
C1809 C1814 1.390 . S
C1810 C1804 1.465 . S
C1810 C1809 1.396 . S
C1810 C1811 1.399 . S
C1811 H1797 0.929 . S
C1811 C1810 1.399 . S
C1811 C1812 1.385 . S
C1812 H1798 0.931 . S
C1812 C1811 1.385 . S
C1812 C1813 1.389 . S
C1813 C1812 1.389 . S
C1813 C1814 1.387 . S
C1814 H1799 0.930 . S
C1814 C1809 1.390 . S
C1814 C1813 1.387 . S
H1815 C1827 0.930 . S
H1816 C1829 0.930 . S
H1817 C1830 0.930 . S
H1818 C1834 0.959 . S
H1819 C1834 0.959 . S
H1820 C1834 0.961 . S
H1821 C1835 0.960 . S
H1822 C1835 0.961 . S
H1823 C1835 0.959 . S
H1824 C1838 0.929 . S
H1825 C1839 0.931 . S
H1826 C1841 0.930 . S
C1827 H1815 0.930 . S
C1827 C1828 1.399 . S
C1827 C1832 1.399 . S
C1828 C1827 1.399 . S
C1828 C1829 1.376 . S
C1829 H1816 0.930 . S
C1829 C1828 1.376 . S
C1829 C1830 1.388 . S
C1830 H1817 0.930 . S
C1830 C1829 1.388 . S
C1830 C1831 1.390 . S
C1831 C1830 1.390 . S
C1831 C1832 1.394 . S
C1831 C1837 1.465 . S
C1832 C1827 1.399 . S
C1832 C1831 1.394 . S
C1832 C1833 1.516 . S
C1833 C1832 1.516 . S
C1833 C1834 1.502 . S
C1833 C1835 1.561 . S
C1833 C1836 1.526 . S
C1834 H1818 0.959 . S
C1834 H1819 0.959 . S
C1834 H1820 0.961 . S
C1834 C1833 1.502 . S
C1835 H1821 0.960 . S
C1835 H1822 0.961 . S
C1835 H1823 0.959 . S
C1835 C1833 1.561 . S
C1836 C1833 1.526 . S
C1836 C1837 1.396 . S
C1836 C1841 1.390 . S
C1837 C1831 1.465 . S
C1837 C1836 1.396 . S
C1837 C1838 1.399 . S
C1838 H1824 0.929 . S
C1838 C1837 1.399 . S
C1838 C1839 1.385 . S
C1839 H1825 0.931 . S
C1839 C1838 1.385 . S
C1839 C1840 1.389 . S
C1840 C1839 1.389 . S
C1840 C1841 1.387 . S
C1841 H1826 0.930 . S
C1841 C1836 1.390 . S
C1841 C1840 1.387 . S
H1842 C1854 0.930 . S
H1843 C1856 0.930 . S
H1844 C1857 0.930 . S
H1845 C1861 0.959 . S
H1846 C1861 0.959 . S
H1847 C1861 0.961 . S
H1848 C1862 0.960 . S
H1849 C1862 0.961 . S
H1850 C1862 0.959 . S
H1851 C1865 0.929 . S
H1852 C1866 0.931 . S
H1853 C1868 0.930 . S
C1854 H1842 0.930 . S
C1854 C1855 1.399 . S
C1854 C1859 1.399 . S
C1855 C1854 1.399 . S
C1855 C1856 1.376 . S
C1856 H1843 0.930 . S
C1856 C1855 1.376 . S
C1856 C1857 1.388 . S
C1857 H1844 0.930 . S
C1857 C1856 1.388 . S
C1857 C1858 1.390 . S
C1858 C1857 1.390 . S
C1858 C1859 1.394 . S
C1858 C1864 1.465 . S
C1859 C1854 1.399 . S
C1859 C1858 1.394 . S
C1859 C1860 1.516 . S
C1860 C1859 1.516 . S
C1860 C1861 1.502 . S
C1860 C1862 1.561 . S
C1860 C1863 1.526 . S
C1861 H1845 0.959 . S
C1861 H1846 0.959 . S
C1861 H1847 0.961 . S
C1861 C1860 1.502 . S
C1862 H1848 0.960 . S
C1862 H1849 0.961 . S
C1862 H1850 0.959 . S
C1862 C1860 1.561 . S
C1863 C1860 1.526 . S
C1863 C1864 1.396 . S
C1863 C1868 1.390 . S
C1864 C1858 1.465 . S
C1864 C1863 1.396 . S
C1864 C1865 1.399 . S
C1865 H1851 0.929 . S
C1865 C1864 1.399 . S
C1865 C1866 1.385 . S
C1866 H1852 0.931 . S
C1866 C1865 1.385 . S
C1866 C1867 1.389 . S
C1867 C1866 1.389 . S
C1867 C1868 1.387 . S
C1868 H1853 0.930 . S
C1868 C1863 1.390 . S
C1868 C1867 1.387 . S
H1869 C1881 0.930 . S
H1870 C1883 0.930 . S
H1871 C1884 0.930 . S
H1872 C1888 0.959 . S
H1873 C1888 0.959 . S
H1874 C1888 0.961 . S
H1875 C1889 0.960 . S
H1876 C1889 0.961 . S
H1877 C1889 0.959 . S
H1878 C1892 0.929 . S
H1879 C1893 0.931 . S
H1880 C1895 0.930 . S
C1881 H1869 0.930 . S
C1881 C1882 1.399 . S
C1881 C1886 1.399 . S
C1882 C1881 1.399 . S
C1882 C1883 1.376 . S
C1883 H1870 0.930 . S
C1883 C1882 1.376 . S
C1883 C1884 1.388 . S
C1884 H1871 0.930 . S
C1884 C1883 1.388 . S
C1884 C1885 1.390 . S
C1885 C1884 1.390 . S
C1885 C1886 1.394 . S
C1885 C1891 1.465 . S
C1886 C1881 1.399 . S
C1886 C1885 1.394 . S
C1886 C1887 1.516 . S
C1887 C1886 1.516 . S
C1887 C1888 1.502 . S
C1887 C1889 1.561 . S
C1887 C1890 1.526 . S
C1888 H1872 0.959 . S
C1888 H1873 0.959 . S
C1888 H1874 0.961 . S
C1888 C1887 1.502 . S
C1889 H1875 0.960 . S
C1889 H1876 0.961 . S
C1889 H1877 0.959 . S
C1889 C1887 1.561 . S
C1890 C1887 1.526 . S
C1890 C1891 1.396 . S
C1890 C1895 1.390 . S
C1891 C1885 1.465 . S
C1891 C1890 1.396 . S
C1891 C1892 1.399 . S
C1892 H1878 0.929 . S
C1892 C1891 1.399 . S
C1892 C1893 1.385 . S
C1893 H1879 0.931 . S
C1893 C1892 1.385 . S
C1893 C1894 1.389 . S
C1894 C1893 1.389 . S
C1894 C1895 1.387 . S
C1895 H1880 0.930 . S
C1895 C1890 1.390 . S
C1895 C1894 1.387 . S
H1896 C1908 0.930 . S
H1897 C1910 0.930 . S
H1898 C1911 0.930 . S
H1899 C1915 0.959 . S
H1900 C1915 0.959 . S
H1901 C1915 0.961 . S
H1902 C1916 0.960 . S
H1903 C1916 0.961 . S
H1904 C1916 0.959 . S
H1905 C1919 0.929 . S
H1906 C1920 0.931 . S
H1907 C1922 0.930 . S
C1908 H1896 0.930 . S
C1908 C1909 1.399 . S
C1908 C1913 1.399 . S
C1909 C1908 1.399 . S
C1909 C1910 1.376 . S
C1910 H1897 0.930 . S
C1910 C1909 1.376 . S
C1910 C1911 1.388 . S
C1911 H1898 0.930 . S
C1911 C1910 1.388 . S
C1911 C1912 1.390 . S
C1912 C1911 1.390 . S
C1912 C1913 1.394 . S
C1912 C1918 1.465 . S
C1913 C1908 1.399 . S
C1913 C1912 1.394 . S
C1913 C1914 1.516 . S
C1914 C1913 1.516 . S
C1914 C1915 1.502 . S
C1914 C1916 1.561 . S
C1914 C1917 1.526 . S
C1915 H1899 0.959 . S
C1915 H1900 0.959 . S
C1915 H1901 0.961 . S
C1915 C1914 1.502 . S
C1916 H1902 0.960 . S
C1916 H1903 0.961 . S
C1916 H1904 0.959 . S
C1916 C1914 1.561 . S
C1917 C1914 1.526 . S
C1917 C1918 1.396 . S
C1917 C1922 1.390 . S
C1918 C1912 1.465 . S
C1918 C1917 1.396 . S
C1918 C1919 1.399 . S
C1919 H1905 0.929 . S
C1919 C1918 1.399 . S
C1919 C1920 1.385 . S
C1920 H1906 0.931 . S
C1920 C1919 1.385 . S
C1920 C1921 1.389 . S
C1921 C1920 1.389 . S
C1921 C1922 1.387 . S
C1922 H1907 0.930 . S
C1922 C1917 1.390 . S
C1922 C1921 1.387 . S
H1923 C1935 0.930 . S
H1924 C1937 0.930 . S
H1925 C1938 0.930 . S
H1926 C1942 0.959 . S
H1927 C1942 0.959 . S
H1928 C1942 0.961 . S
H1929 C1943 0.960 . S
H1930 C1943 0.961 . S
H1931 C1943 0.959 . S
H1932 C1946 0.929 . S
H1933 C1947 0.931 . S
H1934 C1949 0.930 . S
C1935 H1923 0.930 . S
C1935 C1936 1.399 . S
C1935 C1940 1.399 . S
C1936 C1935 1.399 . S
C1936 C1937 1.376 . S
C1937 H1924 0.930 . S
C1937 C1936 1.376 . S
C1937 C1938 1.388 . S
C1938 H1925 0.930 . S
C1938 C1937 1.388 . S
C1938 C1939 1.390 . S
C1939 C1938 1.390 . S
C1939 C1940 1.394 . S
C1939 C1945 1.465 . S
C1940 C1935 1.399 . S
C1940 C1939 1.394 . S
C1940 C1941 1.516 . S
C1941 C1940 1.516 . S
C1941 C1942 1.502 . S
C1941 C1943 1.561 . S
C1941 C1944 1.526 . S
C1942 H1926 0.959 . S
C1942 H1927 0.959 . S
C1942 H1928 0.961 . S
C1942 C1941 1.502 . S
C1943 H1929 0.960 . S
C1943 H1930 0.961 . S
C1943 H1931 0.959 . S
C1943 C1941 1.561 . S
C1944 C1941 1.526 . S
C1944 C1945 1.396 . S
C1944 C1949 1.390 . S
C1945 C1939 1.465 . S
C1945 C1944 1.396 . S
C1945 C1946 1.399 . S
C1946 H1932 0.929 . S
C1946 C1945 1.399 . S
C1946 C1947 1.385 . S
C1947 H1933 0.931 . S
C1947 C1946 1.385 . S
C1947 C1948 1.389 . S
C1948 C1947 1.389 . S
C1948 C1949 1.387 . S
C1949 H1934 0.930 . S
C1949 C1944 1.390 . S
C1949 C1948 1.387 . S
H1950 C1962 0.930 . S
H1951 C1964 0.930 . S
H1952 C1965 0.930 . S
H1953 C1969 0.959 . S
H1954 C1969 0.959 . S
H1955 C1969 0.961 . S
H1956 C1970 0.960 . S
H1957 C1970 0.961 . S
H1958 C1970 0.959 . S
H1959 C1973 0.929 . S
H1960 C1974 0.931 . S
H1961 C1976 0.930 . S
C1962 H1950 0.930 . S
C1962 C1963 1.399 . S
C1962 C1967 1.399 . S
C1963 C1962 1.399 . S
C1963 C1964 1.376 . S
C1964 H1951 0.930 . S
C1964 C1963 1.376 . S
C1964 C1965 1.388 . S
C1965 H1952 0.930 . S
C1965 C1964 1.388 . S
C1965 C1966 1.390 . S
C1966 C1965 1.390 . S
C1966 C1967 1.394 . S
C1966 C1972 1.465 . S
C1967 C1962 1.399 . S
C1967 C1966 1.394 . S
C1967 C1968 1.516 . S
C1968 C1967 1.516 . S
C1968 C1969 1.502 . S
C1968 C1970 1.561 . S
C1968 C1971 1.526 . S
C1969 H1953 0.959 . S
C1969 H1954 0.959 . S
C1969 H1955 0.961 . S
C1969 C1968 1.502 . S
C1970 H1956 0.960 . S
C1970 H1957 0.961 . S
C1970 H1958 0.959 . S
C1970 C1968 1.561 . S
C1971 C1968 1.526 . S
C1971 C1972 1.396 . S
C1971 C1976 1.390 . S
C1972 C1966 1.465 . S
C1972 C1971 1.396 . S
C1972 C1973 1.399 . S
C1973 H1959 0.929 . S
C1973 C1972 1.399 . S
C1973 C1974 1.385 . S
C1974 H1960 0.931 . S
C1974 C1973 1.385 . S
C1974 C1975 1.389 . S
C1975 C1974 1.389 . S
C1975 C1976 1.387 . S
C1976 H1961 0.930 . S
C1976 C1971 1.390 . S
C1976 C1975 1.387 . S
H1977 C1989 0.930 . S
H1978 C1991 0.930 . S
H1979 C1992 0.930 . S
H1980 C1996 0.959 . S
H1981 C1996 0.959 . S
H1982 C1996 0.961 . S
H1983 C1997 0.960 . S
H1984 C1997 0.961 . S
H1985 C1997 0.959 . S
H1986 C2000 0.929 . S
H1987 C2001 0.931 . S
H1988 C2003 0.930 . S
C1989 H1977 0.930 . S
C1989 C1990 1.399 . S
C1989 C1994 1.399 . S
C1990 C1989 1.399 . S
C1990 C1991 1.376 . S
C1991 H1978 0.930 . S
C1991 C1990 1.376 . S
C1991 C1992 1.388 . S
C1992 H1979 0.930 . S
C1992 C1991 1.388 . S
C1992 C1993 1.390 . S
C1993 C1992 1.390 . S
C1993 C1994 1.394 . S
C1993 C1999 1.465 . S
C1994 C1989 1.399 . S
C1994 C1993 1.394 . S
C1994 C1995 1.516 . S
C1995 C1994 1.516 . S
C1995 C1996 1.502 . S
C1995 C1997 1.561 . S
C1995 C1998 1.526 . S
C1996 H1980 0.959 . S
C1996 H1981 0.959 . S
C1996 H1982 0.961 . S
C1996 C1995 1.502 . S
C1997 H1983 0.960 . S
C1997 H1984 0.961 . S
C1997 H1985 0.959 . S
C1997 C1995 1.561 . S
C1998 C1995 1.526 . S
C1998 C1999 1.396 . S
C1998 C2003 1.390 . S
C1999 C1993 1.465 . S
C1999 C1998 1.396 . S
C1999 C2000 1.399 . S
C2000 H1986 0.929 . S
C2000 C1999 1.399 . S
C2000 C2001 1.385 . S
C2001 H1987 0.931 . S
C2001 C2000 1.385 . S
C2001 C2002 1.389 . S
C2002 C2001 1.389 . S
C2002 C2003 1.387 . S
C2003 H1988 0.930 . S
C2003 C1998 1.390 . S
C2003 C2002 1.387 . S
H2004 C2016 0.930 . S
H2005 C2018 0.930 . S
H2006 C2019 0.930 . S
H2007 C2023 0.959 . S
H2008 C2023 0.959 . S
H2009 C2023 0.961 . S
H2010 C2024 0.960 . S
H2011 C2024 0.961 . S
H2012 C2024 0.959 . S
H2013 C2027 0.929 . S
H2014 C2028 0.931 . S
H2015 C2030 0.930 . S
C2016 H2004 0.930 . S
C2016 C2017 1.399 . S
C2016 C2021 1.399 . S
C2017 C2016 1.399 . S
C2017 C2018 1.376 . S
C2018 H2005 0.930 . S
C2018 C2017 1.376 . S
C2018 C2019 1.388 . S
C2019 H2006 0.930 . S
C2019 C2018 1.388 . S
C2019 C2020 1.390 . S
C2020 C2019 1.390 . S
C2020 C2021 1.394 . S
C2020 C2026 1.465 . S
C2021 C2016 1.399 . S
C2021 C2020 1.394 . S
C2021 C2022 1.516 . S
C2022 C2021 1.516 . S
C2022 C2023 1.502 . S
C2022 C2024 1.561 . S
C2022 C2025 1.526 . S
C2023 H2007 0.959 . S
C2023 H2008 0.959 . S
C2023 H2009 0.961 . S
C2023 C2022 1.502 . S
C2024 H2010 0.960 . S
C2024 H2011 0.961 . S
C2024 H2012 0.959 . S
C2024 C2022 1.561 . S
C2025 C2022 1.526 . S
C2025 C2026 1.396 . S
C2025 C2030 1.390 . S
C2026 C2020 1.465 . S
C2026 C2025 1.396 . S
C2026 C2027 1.399 . S
C2027 H2013 0.929 . S
C2027 C2026 1.399 . S
C2027 C2028 1.385 . S
C2028 H2014 0.931 . S
C2028 C2027 1.385 . S
C2028 C2029 1.389 . S
C2029 C2028 1.389 . S
C2029 C2030 1.387 . S
C2030 H2015 0.930 . S
C2030 C2025 1.390 . S
C2030 C2029 1.387 . S
H2031 C2043 0.930 . S
H2032 C2045 0.930 . S
H2033 C2046 0.930 . S
H2034 C2050 0.959 . S
H2035 C2050 0.959 . S
H2036 C2050 0.961 . S
H2037 C2051 0.960 . S
H2038 C2051 0.961 . S
H2039 C2051 0.959 . S
H2040 C2054 0.929 . S
H2041 C2055 0.931 . S
H2042 C2057 0.930 . S
C2043 H2031 0.930 . S
C2043 C2044 1.399 . S
C2043 C2048 1.399 . S
C2044 C2043 1.399 . S
C2044 C2045 1.376 . S
C2045 H2032 0.930 . S
C2045 C2044 1.376 . S
C2045 C2046 1.388 . S
C2046 H2033 0.930 . S
C2046 C2045 1.388 . S
C2046 C2047 1.390 . S
C2047 C2046 1.390 . S
C2047 C2048 1.394 . S
C2047 C2053 1.465 . S
C2048 C2043 1.399 . S
C2048 C2047 1.394 . S
C2048 C2049 1.516 . S
C2049 C2048 1.516 . S
C2049 C2050 1.502 . S
C2049 C2051 1.561 . S
C2049 C2052 1.526 . S
C2050 H2034 0.959 . S
C2050 H2035 0.959 . S
C2050 H2036 0.961 . S
C2050 C2049 1.502 . S
C2051 H2037 0.960 . S
C2051 H2038 0.961 . S
C2051 H2039 0.959 . S
C2051 C2049 1.561 . S
C2052 C2049 1.526 . S
C2052 C2053 1.396 . S
C2052 C2057 1.390 . S
C2053 C2047 1.465 . S
C2053 C2052 1.396 . S
C2053 C2054 1.399 . S
C2054 H2040 0.929 . S
C2054 C2053 1.399 . S
C2054 C2055 1.385 . S
C2055 H2041 0.931 . S
C2055 C2054 1.385 . S
C2055 C2056 1.389 . S
C2056 C2055 1.389 . S
C2056 C2057 1.387 . S
C2057 H2042 0.930 . S
C2057 C2052 1.390 . S
C2057 C2056 1.387 . S
H2058 C2070 0.930 . S
H2059 C2072 0.930 . S
H2060 C2073 0.930 . S
H2061 C2077 0.959 . S
H2062 C2077 0.959 . S
H2063 C2077 0.961 . S
H2064 C2078 0.960 . S
H2065 C2078 0.961 . S
H2066 C2078 0.959 . S
H2067 C2081 0.929 . S
H2068 C2082 0.931 . S
H2069 C2084 0.930 . S
C2070 H2058 0.930 . S
C2070 C2071 1.399 . S
C2070 C2075 1.399 . S
C2071 C2070 1.399 . S
C2071 C2072 1.376 . S
C2072 H2059 0.930 . S
C2072 C2071 1.376 . S
C2072 C2073 1.388 . S
C2073 H2060 0.930 . S
C2073 C2072 1.388 . S
C2073 C2074 1.390 . S
C2074 C2073 1.390 . S
C2074 C2075 1.394 . S
C2074 C2080 1.465 . S
C2075 C2070 1.399 . S
C2075 C2074 1.394 . S
C2075 C2076 1.516 . S
C2076 C2075 1.516 . S
C2076 C2077 1.502 . S
C2076 C2078 1.561 . S
C2076 C2079 1.526 . S
C2077 H2061 0.959 . S
C2077 H2062 0.959 . S
C2077 H2063 0.961 . S
C2077 C2076 1.502 . S
C2078 H2064 0.960 . S
C2078 H2065 0.961 . S
C2078 H2066 0.959 . S
C2078 C2076 1.561 . S
C2079 C2076 1.526 . S
C2079 C2080 1.396 . S
C2079 C2084 1.390 . S
C2080 C2074 1.465 . S
C2080 C2079 1.396 . S
C2080 C2081 1.399 . S
C2081 H2067 0.929 . S
C2081 C2080 1.399 . S
C2081 C2082 1.385 . S
C2082 H2068 0.931 . S
C2082 C2081 1.385 . S
C2082 C2083 1.389 . S
C2083 C2082 1.389 . S
C2083 C2084 1.387 . S
C2084 H2069 0.930 . S
C2084 C2079 1.390 . S
C2084 C2083 1.387 . S
H2085 C2097 0.930 . S
H2086 C2099 0.930 . S
H2087 C2100 0.930 . S
H2088 C2104 0.959 . S
H2089 C2104 0.959 . S
H2090 C2104 0.961 . S
H2091 C2105 0.960 . S
H2092 C2105 0.961 . S
H2093 C2105 0.959 . S
H2094 C2108 0.929 . S
H2095 C2109 0.931 . S
H2096 C2111 0.930 . S
C2097 H2085 0.930 . S
C2097 C2098 1.399 . S
C2097 C2102 1.399 . S
C2098 C2097 1.399 . S
C2098 C2099 1.376 . S
C2099 H2086 0.930 . S
C2099 C2098 1.376 . S
C2099 C2100 1.388 . S
C2100 H2087 0.930 . S
C2100 C2099 1.388 . S
C2100 C2101 1.390 . S
C2101 C2100 1.390 . S
C2101 C2102 1.394 . S
C2101 C2107 1.465 . S
C2102 C2097 1.399 . S
C2102 C2101 1.394 . S
C2102 C2103 1.516 . S
C2103 C2102 1.516 . S
C2103 C2104 1.502 . S
C2103 C2105 1.561 . S
C2103 C2106 1.526 . S
C2104 H2088 0.959 . S
C2104 H2089 0.959 . S
C2104 H2090 0.961 . S
C2104 C2103 1.502 . S
C2105 H2091 0.960 . S
C2105 H2092 0.961 . S
C2105 H2093 0.959 . S
C2105 C2103 1.561 . S
C2106 C2103 1.526 . S
C2106 C2107 1.396 . S
C2106 C2111 1.390 . S
C2107 C2101 1.465 . S
C2107 C2106 1.396 . S
C2107 C2108 1.399 . S
C2108 H2094 0.929 . S
C2108 C2107 1.399 . S
C2108 C2109 1.385 . S
C2109 H2095 0.931 . S
C2109 C2108 1.385 . S
C2109 C2110 1.389 . S
C2110 C2109 1.389 . S
C2110 C2111 1.387 . S
C2111 H2096 0.930 . S
C2111 C2106 1.390 . S
C2111 C2110 1.387 . S
H2112 C2124 0.930 . S
H2113 C2126 0.930 . S
H2114 C2127 0.930 . S
H2115 C2131 0.959 . S
H2116 C2131 0.959 . S
H2117 C2131 0.961 . S
H2118 C2132 0.960 . S
H2119 C2132 0.961 . S
H2120 C2132 0.959 . S
H2121 C2135 0.929 . S
H2122 C2136 0.931 . S
H2123 C2138 0.930 . S
C2124 H2112 0.930 . S
C2124 C2125 1.399 . S
C2124 C2129 1.399 . S
C2125 C2124 1.399 . S
C2125 C2126 1.376 . S
C2126 H2113 0.930 . S
C2126 C2125 1.376 . S
C2126 C2127 1.388 . S
C2127 H2114 0.930 . S
C2127 C2126 1.388 . S
C2127 C2128 1.390 . S
C2128 C2127 1.390 . S
C2128 C2129 1.394 . S
C2128 C2134 1.465 . S
C2129 C2124 1.399 . S
C2129 C2128 1.394 . S
C2129 C2130 1.516 . S
C2130 C2129 1.516 . S
C2130 C2131 1.502 . S
C2130 C2132 1.561 . S
C2130 C2133 1.526 . S
C2131 H2115 0.959 . S
C2131 H2116 0.959 . S
C2131 H2117 0.961 . S
C2131 C2130 1.502 . S
C2132 H2118 0.960 . S
C2132 H2119 0.961 . S
C2132 H2120 0.959 . S
C2132 C2130 1.561 . S
C2133 C2130 1.526 . S
C2133 C2134 1.396 . S
C2133 C2138 1.390 . S
C2134 C2128 1.465 . S
C2134 C2133 1.396 . S
C2134 C2135 1.399 . S
C2135 H2121 0.929 . S
C2135 C2134 1.399 . S
C2135 C2136 1.385 . S
C2136 H2122 0.931 . S
C2136 C2135 1.385 . S
C2136 C2137 1.389 . S
C2137 C2136 1.389 . S
C2137 C2138 1.387 . S
C2138 H2123 0.930 . S
C2138 C2133 1.390 . S
C2138 C2137 1.387 . S
H2139 C2151 0.930 . S
H2140 C2153 0.930 . S
H2141 C2154 0.930 . S
H2142 C2158 0.959 . S
H2143 C2158 0.959 . S
H2144 C2158 0.961 . S
H2145 C2159 0.960 . S
H2146 C2159 0.961 . S
H2147 C2159 0.959 . S
H2148 C2162 0.929 . S
H2149 C2163 0.931 . S
H2150 C2165 0.930 . S
C2151 H2139 0.930 . S
C2151 C2152 1.399 . S
C2151 C2156 1.399 . S
C2152 C2151 1.399 . S
C2152 C2153 1.376 . S
C2153 H2140 0.930 . S
C2153 C2152 1.376 . S
C2153 C2154 1.388 . S
C2154 H2141 0.930 . S
C2154 C2153 1.388 . S
C2154 C2155 1.390 . S
C2155 C2154 1.390 . S
C2155 C2156 1.394 . S
C2155 C2161 1.465 . S
C2156 C2151 1.399 . S
C2156 C2155 1.394 . S
C2156 C2157 1.516 . S
C2157 C2156 1.516 . S
C2157 C2158 1.502 . S
C2157 C2159 1.561 . S
C2157 C2160 1.526 . S
C2158 H2142 0.959 . S
C2158 H2143 0.959 . S
C2158 H2144 0.961 . S
C2158 C2157 1.502 . S
C2159 H2145 0.960 . S
C2159 H2146 0.961 . S
C2159 H2147 0.959 . S
C2159 C2157 1.561 . S
C2160 C2157 1.526 . S
C2160 C2161 1.396 . S
C2160 C2165 1.390 . S
C2161 C2155 1.465 . S
C2161 C2160 1.396 . S
C2161 C2162 1.399 . S
C2162 H2148 0.929 . S
C2162 C2161 1.399 . S
C2162 C2163 1.385 . S
C2163 H2149 0.931 . S
C2163 C2162 1.385 . S
C2163 C2164 1.389 . S
C2164 C2163 1.389 . S
C2164 C2165 1.387 . S
C2165 H2150 0.930 . S
C2165 C2160 1.390 . S
C2165 C2164 1.387 . S
C895 C699 1.371 . S
C883 C74 1.497 . S
C922 C700 1.584 . S
C910 C153 1.479 . S
C949 C694 1.562 . S
C937 C231 1.603 . S
C964 C310 0.936 . S
C976 C693 0.371 . S
C991 C394 1.530 . S
C1003 C696 1.633 . S
C1030 C698 1.596 . S
C1018 C494 1.570 . S
C1045 C573 1.025 . S
C1057 C697 0.357 . S
C1072 C651 1.502 . S
C1084 C695 1.363 . S
C1111 C730 2.599 . S
C1099 C56 2.599 . S
C1126 C151 1.607 . S
C1138 C761 1.508 . S
C1165 C729 1.405 . S
C1153 C237 1.254 . S
C1192 C764 1.398 . S
C1180 C326 1.376 . S
C1207 C410 1.633 . S
C1219 C727 1.660 . S
C1246 C759 2.617 . S
C1234 C476 2.617 . S
C1261 C571 1.343 . S
C1273 C732 1.188 . S
C1288 C657 1.279 . S
C1300 C766 1.372 . S
C1315 C58 1.315 . S
C1327 C762 1.362 . S
C1342 C392 1.607 . S
C1354 C765 1.444 . S
C1381 C733 1.350 . S
C1369 C478 1.320 . S
C1408 C760 1.394 . S
C1396 C567 1.381 . S
C1423 C655 2.601 . S
C1435 C726 2.607 . S
C1450 C235 2.612 . S
C1462 C763 2.603 . S
C1489 C728 1.275 . S
C1477 C308 1.358 . S
C1504 C147 1.660 . S
C1516 C731 1.649 . S
C1531 C662 1.504 . S
C1543 C798 1.363 . S
C1558 C405 1.282 . S
C1570 C799 1.306 . S
C1597 C793 1.388 . S
C1585 C483 1.431 . S
C1624 C792 0.280 . S
C1612 C562 0.835 . S
C1639 C142 1.276 . S
C1651 C795 1.219 . S
C1678 C797 1.411 . S
C1666 C242 1.391 . S
C1693 C321 0.601 . S
C1705 C796 0.336 . S
C1720 C63 1.540 . S
C1732 C794 1.457 . S
C1747 C644 2.804 . S
C1759 C832 2.703 . S
C1786 C864 1.270 . S
C1774 C403 1.384 . S
C1801 C489 1.072 . S
C1813 C825 1.294 . S
C1828 C578 1.666 . S
C1840 C859 1.597 . S
C1867 C830 1.368 . S
C1855 C158 1.365 . S
C1882 C224 2.838 . S
C1894 C861 2.769 . S
C1921 C827 1.681 . S
C1909 C319 1.712 . S
C1948 C862 1.300 . S
C1936 C69 1.229 . S
C1975 C858 1.321 . S
C1963 C646 1.231 . S
C1990 C140 1.400 . S
C2002 C860 1.369 . S
C2017 C226 1.079 . S
C2029 C829 1.295 . S
C2056 C863 1.597 . S
C2044 C315 1.611 . S
C2071 C67 2.814 . S
C2083 C828 2.745 . S
C2098 C487 2.830 . S
C2110 C865 2.731 . S
C2137 C831 1.682 . S
C2125 C560 1.730 . S
C2164 C826 1.314 . S
C2152 C399 1.305 . S
