# Generated by pormake.
# Topology gar, (4,6)-cn, num edge types: 1
# Building blocks:
#     Node 0, Type 0, BuildingBlock: CEKHIL_clean_sbu_0, # of connection points: 4
#     Node 1, Type 0, BuildingBlock: CEKHIL_clean_sbu_0, # of connection points: 4
#     Node 2, Type 0, BuildingBlock: CEKHIL_clean_sbu_0, # of connection points: 4
#     Node 3, Type 0, BuildingBlock: CEKHIL_clean_sbu_0, # of connection points: 4
#     Node 4, Type 0, BuildingBlock: CEKHIL_clean_sbu_0, # of connection points: 4
#     Node 5, Type 0, BuildingBlock: CEKHIL_clean_sbu_0, # of connection points: 4
#     Node 6, Type 0, BuildingBlock: CEKHIL_clean_sbu_0, # of connection points: 4
#     Node 7, Type 0, BuildingBlock: CEKHIL_clean_sbu_0, # of connection points: 4
#     Node 8, Type 0, BuildingBlock: CEKHIL_clean_sbu_0, # of connection points: 4
#     Node 9, Type 0, BuildingBlock: CEKHIL_clean_sbu_0, # of connection points: 4
#     Node 10, Type 0, BuildingBlock: CEKHIL_clean_sbu_0, # of connection points: 4
#     Node 11, Type 0, BuildingBlock: CEKHIL_clean_sbu_0, # of connection points: 4
#     Node 12, Type 0, BuildingBlock: CEKHIL_clean_sbu_0, # of connection points: 4
#     Node 13, Type 0, BuildingBlock: CEKHIL_clean_sbu_0, # of connection points: 4
#     Node 14, Type 0, BuildingBlock: CEKHIL_clean_sbu_0, # of connection points: 4
#     Node 15, Type 0, BuildingBlock: CEKHIL_clean_sbu_0, # of connection points: 4
#     Node 16, Type 0, BuildingBlock: CEKHIL_clean_sbu_0, # of connection points: 4
#     Node 17, Type 0, BuildingBlock: CEKHIL_clean_sbu_0, # of connection points: 4
#     Node 18, Type 0, BuildingBlock: CEKHIL_clean_sbu_0, # of connection points: 4
#     Node 19, Type 0, BuildingBlock: CEKHIL_clean_sbu_0, # of connection points: 4
#     Node 20, Type 0, BuildingBlock: CEKHIL_clean_sbu_0, # of connection points: 4
#     Node 21, Type 0, BuildingBlock: CEKHIL_clean_sbu_0, # of connection points: 4
#     Node 22, Type 0, BuildingBlock: CEKHIL_clean_sbu_0, # of connection points: 4
#     Node 23, Type 0, BuildingBlock: CEKHIL_clean_sbu_0, # of connection points: 4
#     Node 24, Type 1, BuildingBlock: HISSIN_clean_sbu_0, # of connection points: 6
#     Node 25, Type 1, BuildingBlock: HISSIN_clean_sbu_0, # of connection points: 6
#     Node 26, Type 1, BuildingBlock: HISSIN_clean_sbu_0, # of connection points: 6
#     Node 27, Type 1, BuildingBlock: HISSIN_clean_sbu_0, # of connection points: 6
#     Node 28, Type 1, BuildingBlock: HISSIN_clean_sbu_0, # of connection points: 6
#     Node 29, Type 1, BuildingBlock: HISSIN_clean_sbu_0, # of connection points: 6
#     Node 30, Type 1, BuildingBlock: HISSIN_clean_sbu_0, # of connection points: 6
#     Node 31, Type 1, BuildingBlock: HISSIN_clean_sbu_0, # of connection points: 6
#     Node 32, Type 1, BuildingBlock: HISSIN_clean_sbu_0, # of connection points: 6
#     Node 33, Type 1, BuildingBlock: HISSIN_clean_sbu_0, # of connection points: 6
#     Node 34, Type 1, BuildingBlock: HISSIN_clean_sbu_0, # of connection points: 6
#     Node 35, Type 1, BuildingBlock: HISSIN_clean_sbu_0, # of connection points: 6
#     Node 36, Type 1, BuildingBlock: HISSIN_clean_sbu_0, # of connection points: 6
#     Node 37, Type 1, BuildingBlock: HISSIN_clean_sbu_0, # of connection points: 6
#     Node 38, Type 1, BuildingBlock: HISSIN_clean_sbu_0, # of connection points: 6
#     Node 39, Type 1, BuildingBlock: HISSIN_clean_sbu_0, # of connection points: 6
#     Edge 40, Type (0, 1), BuildingBlock: OJICUG_clean_linker_0, # of connection points: 2
#     Edge 41, Type (0, 1), BuildingBlock: OJICUG_clean_linker_0, # of connection points: 2
#     Edge 42, Type (0, 1), BuildingBlock: OJICUG_clean_linker_0, # of connection points: 2
#     Edge 43, Type (0, 1), BuildingBlock: OJICUG_clean_linker_0, # of connection points: 2
#     Edge 44, Type (0, 1), BuildingBlock: OJICUG_clean_linker_0, # of connection points: 2
#     Edge 45, Type (0, 1), BuildingBlock: OJICUG_clean_linker_0, # of connection points: 2
#     Edge 46, Type (0, 1), BuildingBlock: OJICUG_clean_linker_0, # of connection points: 2
#     Edge 47, Type (0, 1), BuildingBlock: OJICUG_clean_linker_0, # of connection points: 2
#     Edge 48, Type (0, 1), BuildingBlock: OJICUG_clean_linker_0, # of connection points: 2
#     Edge 49, Type (0, 1), BuildingBlock: OJICUG_clean_linker_0, # of connection points: 2
#     Edge 50, Type (0, 1), BuildingBlock: OJICUG_clean_linker_0, # of connection points: 2
#     Edge 51, Type (0, 1), BuildingBlock: OJICUG_clean_linker_0, # of connection points: 2
#     Edge 52, Type (0, 1), BuildingBlock: OJICUG_clean_linker_0, # of connection points: 2
#     Edge 53, Type (0, 1), BuildingBlock: OJICUG_clean_linker_0, # of connection points: 2
#     Edge 54, Type (0, 1), BuildingBlock: OJICUG_clean_linker_0, # of connection points: 2
#     Edge 55, Type (0, 1), BuildingBlock: OJICUG_clean_linker_0, # of connection points: 2
#     Edge 56, Type (0, 1), BuildingBlock: OJICUG_clean_linker_0, # of connection points: 2
#     Edge 57, Type (0, 1), BuildingBlock: OJICUG_clean_linker_0, # of connection points: 2
#     Edge 58, Type (0, 1), BuildingBlock: OJICUG_clean_linker_0, # of connection points: 2
#     Edge 59, Type (0, 1), BuildingBlock: OJICUG_clean_linker_0, # of connection points: 2
#     Edge 60, Type (0, 1), BuildingBlock: OJICUG_clean_linker_0, # of connection points: 2
#     Edge 61, Type (0, 1), BuildingBlock: OJICUG_clean_linker_0, # of connection points: 2
#     Edge 62, Type (0, 1), BuildingBlock: OJICUG_clean_linker_0, # of connection points: 2
#     Edge 63, Type (0, 1), BuildingBlock: OJICUG_clean_linker_0, # of connection points: 2
#     Edge 64, Type (0, 1), BuildingBlock: OJICUG_clean_linker_0, # of connection points: 2
#     Edge 65, Type (0, 1), BuildingBlock: OJICUG_clean_linker_0, # of connection points: 2
#     Edge 66, Type (0, 1), BuildingBlock: OJICUG_clean_linker_0, # of connection points: 2
#     Edge 67, Type (0, 1), BuildingBlock: OJICUG_clean_linker_0, # of connection points: 2
#     Edge 68, Type (0, 1), BuildingBlock: OJICUG_clean_linker_0, # of connection points: 2
#     Edge 69, Type (0, 1), BuildingBlock: OJICUG_clean_linker_0, # of connection points: 2
#     Edge 70, Type (0, 1), BuildingBlock: OJICUG_clean_linker_0, # of connection points: 2
#     Edge 71, Type (0, 1), BuildingBlock: OJICUG_clean_linker_0, # of connection points: 2
#     Edge 72, Type (0, 1), BuildingBlock: OJICUG_clean_linker_0, # of connection points: 2
#     Edge 73, Type (0, 1), BuildingBlock: OJICUG_clean_linker_0, # of connection points: 2
#     Edge 74, Type (0, 1), BuildingBlock: OJICUG_clean_linker_0, # of connection points: 2
#     Edge 75, Type (0, 1), BuildingBlock: OJICUG_clean_linker_0, # of connection points: 2
#     Edge 76, Type (0, 1), BuildingBlock: OJICUG_clean_linker_0, # of connection points: 2
#     Edge 77, Type (0, 1), BuildingBlock: OJICUG_clean_linker_0, # of connection points: 2
#     Edge 78, Type (0, 1), BuildingBlock: OJICUG_clean_linker_0, # of connection points: 2
#     Edge 79, Type (0, 1), BuildingBlock: OJICUG_clean_linker_0, # of connection points: 2
#     Edge 80, Type (0, 1), BuildingBlock: OJICUG_clean_linker_0, # of connection points: 2
#     Edge 81, Type (0, 1), BuildingBlock: OJICUG_clean_linker_0, # of connection points: 2
#     Edge 82, Type (0, 1), BuildingBlock: OJICUG_clean_linker_0, # of connection points: 2
#     Edge 83, Type (0, 1), BuildingBlock: OJICUG_clean_linker_0, # of connection points: 2
#     Edge 84, Type (0, 1), BuildingBlock: OJICUG_clean_linker_0, # of connection points: 2
#     Edge 85, Type (0, 1), BuildingBlock: OJICUG_clean_linker_0, # of connection points: 2
#     Edge 86, Type (0, 1), BuildingBlock: OJICUG_clean_linker_0, # of connection points: 2
#     Edge 87, Type (0, 1), BuildingBlock: OJICUG_clean_linker_0, # of connection points: 2
#     Edge 88, Type (0, 1), BuildingBlock: OJICUG_clean_linker_0, # of connection points: 2
#     Edge 89, Type (0, 1), BuildingBlock: OJICUG_clean_linker_0, # of connection points: 2
#     Edge 90, Type (0, 1), BuildingBlock: OJICUG_clean_linker_0, # of connection points: 2
#     Edge 91, Type (0, 1), BuildingBlock: OJICUG_clean_linker_0, # of connection points: 2
#     Edge 92, Type (0, 1), BuildingBlock: OJICUG_clean_linker_0, # of connection points: 2
#     Edge 93, Type (0, 1), BuildingBlock: OJICUG_clean_linker_0, # of connection points: 2
#     Edge 94, Type (0, 1), BuildingBlock: OJICUG_clean_linker_0, # of connection points: 2
#     Edge 95, Type (0, 1), BuildingBlock: OJICUG_clean_linker_0, # of connection points: 2
#     Edge 96, Type (0, 1), BuildingBlock: OJICUG_clean_linker_0, # of connection points: 2
#     Edge 97, Type (0, 1), BuildingBlock: OJICUG_clean_linker_0, # of connection points: 2
#     Edge 98, Type (0, 1), BuildingBlock: OJICUG_clean_linker_0, # of connection points: 2
#     Edge 99, Type (0, 1), BuildingBlock: OJICUG_clean_linker_0, # of connection points: 2
#     Edge 100, Type (0, 1), BuildingBlock: OJICUG_clean_linker_0, # of connection points: 2
#     Edge 101, Type (0, 1), BuildingBlock: OJICUG_clean_linker_0, # of connection points: 2
#     Edge 102, Type (0, 1), BuildingBlock: OJICUG_clean_linker_0, # of connection points: 2
#     Edge 103, Type (0, 1), BuildingBlock: OJICUG_clean_linker_0, # of connection points: 2
#     Edge 104, Type (0, 1), BuildingBlock: OJICUG_clean_linker_0, # of connection points: 2
#     Edge 105, Type (0, 1), BuildingBlock: OJICUG_clean_linker_0, # of connection points: 2
#     Edge 106, Type (0, 1), BuildingBlock: OJICUG_clean_linker_0, # of connection points: 2
#     Edge 107, Type (0, 1), BuildingBlock: OJICUG_clean_linker_0, # of connection points: 2
#     Edge 108, Type (0, 1), BuildingBlock: OJICUG_clean_linker_0, # of connection points: 2
#     Edge 109, Type (0, 1), BuildingBlock: OJICUG_clean_linker_0, # of connection points: 2
#     Edge 110, Type (0, 1), BuildingBlock: OJICUG_clean_linker_0, # of connection points: 2
#     Edge 111, Type (0, 1), BuildingBlock: OJICUG_clean_linker_0, # of connection points: 2
#     Edge 112, Type (0, 1), BuildingBlock: OJICUG_clean_linker_0, # of connection points: 2
#     Edge 113, Type (0, 1), BuildingBlock: OJICUG_clean_linker_0, # of connection points: 2
#     Edge 114, Type (0, 1), BuildingBlock: OJICUG_clean_linker_0, # of connection points: 2
#     Edge 115, Type (0, 1), BuildingBlock: OJICUG_clean_linker_0, # of connection points: 2
#     Edge 116, Type (0, 1), BuildingBlock: OJICUG_clean_linker_0, # of connection points: 2
#     Edge 117, Type (0, 1), BuildingBlock: OJICUG_clean_linker_0, # of connection points: 2
#     Edge 118, Type (0, 1), BuildingBlock: OJICUG_clean_linker_0, # of connection points: 2
#     Edge 119, Type (0, 1), BuildingBlock: OJICUG_clean_linker_0, # of connection points: 2
#     Edge 120, Type (0, 1), BuildingBlock: OJICUG_clean_linker_0, # of connection points: 2
#     Edge 121, Type (0, 1), BuildingBlock: OJICUG_clean_linker_0, # of connection points: 2
#     Edge 122, Type (0, 1), BuildingBlock: OJICUG_clean_linker_0, # of connection points: 2
#     Edge 123, Type (0, 1), BuildingBlock: OJICUG_clean_linker_0, # of connection points: 2
#     Edge 124, Type (0, 1), BuildingBlock: OJICUG_clean_linker_0, # of connection points: 2
#     Edge 125, Type (0, 1), BuildingBlock: OJICUG_clean_linker_0, # of connection points: 2
#     Edge 126, Type (0, 1), BuildingBlock: OJICUG_clean_linker_0, # of connection points: 2
#     Edge 127, Type (0, 1), BuildingBlock: OJICUG_clean_linker_0, # of connection points: 2
#     Edge 128, Type (0, 1), BuildingBlock: OJICUG_clean_linker_0, # of connection points: 2
#     Edge 129, Type (0, 1), BuildingBlock: OJICUG_clean_linker_0, # of connection points: 2
#     Edge 130, Type (0, 1), BuildingBlock: OJICUG_clean_linker_0, # of connection points: 2
#     Edge 131, Type (0, 1), BuildingBlock: OJICUG_clean_linker_0, # of connection points: 2
#     Edge 132, Type (0, 1), BuildingBlock: OJICUG_clean_linker_0, # of connection points: 2
#     Edge 133, Type (0, 1), BuildingBlock: OJICUG_clean_linker_0, # of connection points: 2
#     Edge 134, Type (0, 1), BuildingBlock: OJICUG_clean_linker_0, # of connection points: 2
#     Edge 135, Type (0, 1), BuildingBlock: OJICUG_clean_linker_0, # of connection points: 2
# Relax obj value: 0.235
# Max RMSD: 0.327
# Mean RMSD: 0.157
data_MOF--net-gar--node1-CEKHIL_clean_sbu_0--node2-HISSIN_clean_sbu_0--edge1-OJICUG_clean_linker_0
_symmetry_space_group_name_H-M    P1
_symmetry_Int_Tables_number       1
_symmetry_cell_setting            triclinic
loop_
_symmetry_equiv_pos_as_xyz
'x, y, z'
_cell_length_a     44.691045
_cell_length_b     43.927861
_cell_length_c     42.124809
_cell_angle_alpha  100.79681
_cell_angle_beta   91.770991
_cell_angle_gamma 99.43124
loop_
_atom_site_label
_atom_site_type_symbol
_atom_site_fract_x
_atom_site_fract_y
_atom_site_fract_z
_atom_type_partial_charge
Co0 Co 0.17288 0.37266 0.42711 0.0
O1 O 0.21551 0.37256 0.42236 0.0
O2 O 0.17803 0.34369 0.38841 0.0
C3 C 0.17667 0.42523 0.43817 0.0
O4 O 0.12757 0.36754 0.42165 0.0
Co5 Co 0.14506 0.40262 0.48949 0.0
O6 O 0.11088 0.40376 0.45826 0.0
C7 C 0.15946 0.33814 0.48261 0.0
C8 C 0.20698 0.35364 0.39478 0.0
C9 C 0.10735 0.38394 0.43158 0.0
O10 O 0.16825 0.33845 0.45372 0.0
O11 O 0.15182 0.36192 0.50108 0.0
O12 O 0.17626 0.41047 0.40843 0.0
O13 O 0.17711 0.40831 0.46014 0.0
Co14 Co 1.0356 0.7902 0.65212 0.0
O15 O 0.99344 0.79253 0.65906 0.0
O16 O 1.02759 0.7868 0.69602 0.0
C17 C 0.04633 0.83056 0.62568 0.0
O18 O 0.07992 0.78747 0.65567 0.0
Co19 Co 0.06169 0.77699 0.58336 0.0
O20 O 0.10138 0.78018 0.60778 0.0
C21 C 1.02393 0.72794 0.6079 0.0
C22 C 1.00002 0.78982 0.68862 0.0
C23 C 0.10265 0.78364 0.63854 0.0
O24 O 1.02689 0.74317 0.63734 0.0
O25 O 1.02643 0.7423 0.58414 0.0
O26 O 0.04576 0.83616 0.65712 0.0
O27 O 0.03745 0.80173 0.61159 0.0
Co28 Co 0.6733 0.87214 0.92849 0.0
O29 O 0.71606 0.87316 0.92382 0.0
O30 O 0.679 0.84284 0.89031 0.0
C31 C 0.67605 0.92461 0.93864 0.0
O32 O 0.62789 0.86546 0.92304 0.0
Co33 Co 0.64409 0.90221 0.98972 0.0
O34 O 0.61114 0.90349 0.95701 0.0
C35 C 0.66055 0.83867 0.98468 0.0
C36 C 0.70782 0.85364 0.89653 0.0
C37 C 0.60811 0.88302 0.93082 0.0
O38 O 0.66976 0.83871 0.95592 0.0
O39 O 0.65178 0.86224 1.00236 0.0
O40 O 0.67566 0.90942 0.90905 0.0
O41 O 0.67669 0.90812 0.96097 0.0
Co42 Co 0.5393 0.2946 0.15447 0.0
O43 O 0.4967 0.29372 0.15936 0.0
O44 O 0.53079 0.29391 0.19897 0.0
C45 C 0.54764 0.33281 0.1252 0.0
O46 O 0.58423 0.29552 0.15921 0.0
Co47 Co 0.56501 0.27822 0.08613 0.0
O48 O 0.60487 0.28497 0.11107 0.0
C49 C 0.53275 0.22822 0.11656 0.0
C50 C 0.5027 0.29329 0.18969 0.0
C51 C 0.60681 0.29141 0.14191 0.0
O52 O 0.53327 0.24726 0.14383 0.0
O53 O 0.53985 0.23713 0.09012 0.0
O54 O 0.54643 0.34007 0.15647 0.0
O55 O 0.54016 0.30336 0.11264 0.0
Co56 Co 0.15645 0.80465 0.13947 0.0
O57 O 0.11438 0.78907 0.1256 0.0
O58 O 0.13607 0.78749 0.17324 0.0
C59 C 0.15768 0.84923 0.12197 0.0
O60 O 0.19728 0.81958 0.16327 0.0
Co61 Co 0.20645 0.81779 0.09277 0.0
O62 O 0.23252 0.83905 0.13232 0.0
C63 C 0.1722 0.75473 0.09066 0.0
C64 C 0.11162 0.78192 0.15405 0.0
C65 C 0.22372 0.8344 0.15974 0.0
O66 O 0.16725 0.76367 0.12041 0.0
O67 O 0.18601 0.77327 0.07367 0.0
O68 O 0.14775 0.84662 0.15023 0.0
O69 O 0.16589 0.82463 0.105 0.0
Co70 Co 0.5348 0.8449 0.4387 0.0
O71 O 0.57739 0.84316 0.44633 0.0
O72 O 0.55245 0.8339 0.39826 0.0
C73 C 0.53531 0.88956 0.47296 0.0
O74 O 0.49356 0.84586 0.41983 0.0
Co75 Co 0.48529 0.84456 0.48856 0.0
O76 O 0.45649 0.84943 0.45419 0.0
C77 C 0.51877 0.79228 0.46978 0.0
C78 C 0.57801 0.83685 0.41494 0.0
C79 C 0.46621 0.84845 0.42606 0.0
O80 O 0.52284 0.80034 0.44239 0.0
O81 O 0.50673 0.80866 0.49264 0.0
O82 O 0.5447 0.88971 0.44405 0.0
O83 O 0.52696 0.86266 0.48095 0.0
Co84 Co 0.66102 0.31593 0.64334 0.0
O85 O 0.61902 0.30072 0.628 0.0
O86 O 0.63834 0.30332 0.67782 0.0
C87 C 0.66619 0.35806 0.62016 0.0
O88 O 0.7007 0.33101 0.66946 0.0
Co89 Co 0.71461 0.32205 0.59991 0.0
O90 O 0.73984 0.34385 0.63995 0.0
C91 C 0.67674 0.2613 0.60112 0.0
C92 C 0.61482 0.29615 0.6573 0.0
C93 C 0.7285 0.34265 0.66714 0.0
O94 O 0.67042 0.27313 0.62973 0.0
O95 O 0.69273 0.2775 0.58342 0.0
O96 O 0.65438 0.35883 0.64815 0.0
O97 O 0.67382 0.33168 0.6069 0.0
Co98 Co 0.0373 0.33832 0.94119 0.0
O99 O 0.0801 0.34975 0.9543 0.0
O100 O 0.06013 0.31503 0.91058 0.0
C101 C 1.02821 0.3875 0.94955 0.0
O102 O 0.99654 0.32194 0.91774 0.0
Co103 Co 0.98513 0.35189 0.98545 0.0
O104 O 0.95785 0.33719 0.94573 0.0
C105 C 1.02383 0.30674 0.9968 0.0
C106 C 0.08425 0.33064 0.92785 0.0
C107 C 0.96848 0.32397 0.9201 0.0
O108 O 1.03246 0.30497 0.96779 0.0
O109 O 1.00751 0.3265 1.00967 0.0
O110 O 0.03969 0.37582 0.92289 0.0
O111 O 1.0239 0.36968 0.97071 0.0
Co112 Co 0.45474 0.06618 0.3583 0.0
O113 O 0.45292 0.10511 0.34427 0.0
O114 O 0.4162 0.06321 0.33577 0.0
C115 C 0.47526 0.0879 0.40813 0.0
O116 O 0.44717 1.02251 0.3685 0.0
Co117 Co 0.51517 0.04714 0.3803 0.0
O118 O 0.48959 1.00686 0.38452 0.0
C119 C 0.49912 0.04349 0.31078 0.0
C120 C 0.42612 0.09148 0.33131 0.0
C121 C 0.4611 1.00189 0.37731 0.0
O122 O 0.47239 0.04943 0.31669 0.0
O123 O 0.51979 0.04466 0.33292 0.0
O124 O 0.44593 0.08428 0.40266 0.0
O125 O 0.49065 0.07989 0.38368 0.0
Co126 Co 0.32092 0.23192 0.51474 0.0
O127 O 0.36486 0.24178 0.51859 0.0
O128 O 0.33697 0.19727 0.52602 0.0
C129 C 0.31649 0.24763 0.4657 0.0
O130 O 0.2764 0.21017 0.51194 0.0
Co131 Co 0.28054 0.27786 0.51808 0.0
O132 O 0.24442 0.24366 0.51024 0.0
C133 C 0.31203 0.27585 0.57908 0.0
C134 C 0.36362 0.21402 0.52556 0.0
C135 C 0.2492 0.21586 0.50975 0.0
O136 O 0.32077 0.25121 0.56304 0.0
O137 O 0.29645 0.29198 0.56495 0.0
O138 O 0.321 0.21971 0.46796 0.0
O139 O 0.3154 0.26656 0.49342 0.0
Co140 Co 0.22804 0.0509 0.79135 0.0
O141 O 0.22445 1.00167 0.78756 0.0
O142 O 0.26568 1.02845 0.77994 0.0
C143 C 0.20223 0.0599 0.84407 0.0
O144 O 0.24875 0.10124 0.79458 0.0
Co145 Co 0.18185 0.09423 0.79812 0.0
O146 O 0.21385 0.13241 0.80405 0.0
C147 C 0.1871 0.06198 0.73011 0.0
C148 C 0.25282 1.00014 0.78207 0.0
C149 C 0.24141 0.12991 0.79943 0.0
O150 O 0.20963 0.04895 0.74103 0.0
O151 O 0.17276 0.07864 0.75048 0.0
O152 O 0.23028 0.05553 0.84165 0.0
O153 O 0.19047 0.05828 0.81532 0.0
Co154 Co 0.32664 0.99945 1.00262 0.0
O155 O 0.282 0.99042 1.00549 0.0
O156 O 0.30693 0.03805 1.01281 0.0
C157 C 0.32784 0.96139 0.95676 0.0
O158 O 0.37428 1.01632 1.00194 0.0
Co159 Co 0.36315 0.94396 1.00703 0.0
O160 O 0.39952 0.97569 1.004 0.0
C161 C 0.33446 0.97448 0.06137 0.0
C162 C 0.28051 1.02002 1.01241 0.0
C163 C 0.39953 1.00457 1.00303 0.0
O164 O 0.33362 0.99934 0.04982 0.0
O165 O 0.33464 0.94787 0.04302 0.0
O166 O 0.32188 0.98895 0.95421 0.0
O167 O 0.3305 0.95763 0.98599 0.0
Co168 Co 0.37687 0.41168 0.0514 0.0
O169 O 0.33299 0.40244 0.04617 0.0
O170 O 0.36003 0.44805 0.07043 0.0
C171 C 0.38263 0.39124 0.99778 0.0
O172 O 0.42154 0.43346 0.05958 0.0
Co173 Co 0.41696 0.36461 0.04474 0.0
O174 O 0.45137 0.39893 0.04174 0.0
C175 C 0.38156 0.37056 0.10228 0.0
C176 C 0.33359 0.43161 0.05988 0.0
C177 C 0.44776 0.42718 0.05173 0.0
O178 O 0.37548 0.39604 0.09446 0.0
O179 O 0.39636 0.35253 0.08389 0.0
O180 O 0.37828 0.41981 1.00775 0.0
O181 O 0.38285 0.37463 0.02039 0.0
Co182 Co 0.86717 0.14808 0.05119 0.0
O183 O 0.91163 0.16049 0.04691 0.0
O184 O 0.89362 0.11775 0.06275 0.0
C185 C 0.85408 0.15543 1.00118 0.0
O186 O 0.82035 0.12837 0.05543 0.0
Co187 Co 0.82579 0.19876 0.04536 0.0
O188 O 0.79163 0.16393 0.04484 0.0
C189 C 0.86346 0.20509 0.1055 0.0
C190 C 0.91764 0.1349 0.05426 0.0
C191 C 0.7938 0.13693 0.05069 0.0
O192 O 0.86971 0.17672 0.09699 0.0
O193 O 0.85021 0.21873 0.08632 0.0
O194 O 0.86225 0.12917 1.00438 0.0
O195 O 0.85658 0.17651 0.02705 0.0
Co196 Co 0.24579 0.58979 0.25429 0.0
O197 O 0.24381 0.55129 0.27009 0.0
O198 O 0.27841 0.56909 0.23823 0.0
C199 C 0.23965 0.62015 0.30162 0.0
O200 O 0.25712 0.62865 0.23531 0.0
Co201 Co 0.19192 0.62686 0.25666 0.0
O202 O 0.22234 0.66037 0.24456 0.0
C203 C 0.18857 0.5667 0.21162 0.0
C204 C 0.2689 0.54855 0.25582 0.0
C205 C 0.24811 0.65488 0.23518 0.0
O206 O 0.21754 0.56826 0.21544 0.0
O207 O 0.17385 0.58498 0.22976 0.0
O208 O 0.26621 0.61296 0.29559 0.0
O209 O 0.2176 0.60656 0.28069 0.0
Co210 Co 0.87532 0.91319 0.5513 0.0
O211 O 0.83136 0.90484 0.54632 0.0
O212 O 0.85926 0.95004 0.57037 0.0
C213 C 0.88072 0.89232 0.49774 0.0
O214 O 0.92016 0.93419 0.55922 0.0
Co215 Co 0.91495 0.86531 0.5442 0.0
O216 O 0.94937 0.8993 0.54045 0.0
C217 C 0.88072 0.87271 0.6027 0.0
C218 C 0.83257 0.93415 0.55993 0.0
C219 C 0.94612 0.92761 0.55082 0.0
O220 O 0.87401 0.89776 0.59444 0.0
O221 O 0.89548 0.85455 0.58439 0.0
O222 O 0.87669 0.92104 0.50751 0.0
O223 O 0.88078 0.87587 0.52049 0.0
Co224 Co 0.97433 0.09997 0.29326 0.0
O225 O 0.97922 0.14957 0.30025 0.0
O226 O 0.93702 0.12157 0.28445 0.0
C227 C 1.00085 0.09518 0.34472 0.0
O228 O 0.95291 0.04923 0.28633 0.0
Co229 Co 1.02092 0.05649 0.28728 0.0
O230 O 0.98894 1.02021 0.29139 0.0
C231 C 1.0142 0.08437 0.22922 0.0
C232 C 0.95087 0.15065 0.29266 0.0
C233 C 0.96076 1.02152 0.28832 0.0
O234 O 0.99125 0.0965 0.24374 0.0
O235 O 1.02948 0.06847 0.24404 0.0
O236 O 0.97366 0.10216 0.34277 0.0
O237 O 1.01198 0.0937 0.31655 0.0
Co238 Co 0.37066 0.64937 0.55348 0.0
O239 O 0.41547 0.66049 0.54959 0.0
O240 O 0.39518 0.61534 0.55883 0.0
C241 C 0.35759 0.66657 0.50816 0.0
O242 O 0.32344 0.63001 0.55639 0.0
Co243 Co 0.33018 0.70252 0.55846 0.0
O244 O 0.29526 0.66773 0.55155 0.0
C245 C 0.37131 0.70123 0.61294 0.0
C246 C 0.42006 0.63297 0.55286 0.0
C247 C 0.29705 0.63951 0.5535 0.0
O248 O 0.37437 0.6721 0.60179 0.0
O249 O 0.36037 0.71823 0.59571 0.0
O250 O 0.3645 0.63861 0.50529 0.0
O251 O 0.36114 0.68281 0.53689 0.0
Co252 Co 0.47364 0.59978 0.79556 0.0
O253 O 0.47854 0.6494 0.80224 0.0
O254 O 0.43635 0.62139 0.78656 0.0
C255 C 0.50039 0.59525 0.84701 0.0
O256 O 0.45213 0.54917 0.78873 0.0
Co257 Co 0.52035 0.55606 0.78999 0.0
O258 O 0.488 0.51988 0.79354 0.0
C259 C 0.51365 0.58363 0.73185 0.0
C260 C 0.45018 0.65048 0.79463 0.0
C261 C 0.45986 0.52138 0.79044 0.0
O262 O 0.49053 0.59568 0.74609 0.0
O263 O 0.52917 0.56812 0.74688 0.0
O264 O 0.47322 0.60232 0.84518 0.0
O265 O 0.51129 0.59348 0.81874 0.0
Co266 Co 0.74873 0.08909 0.74792 0.0
O267 O 0.75255 0.04935 0.75819 0.0
O268 O 0.78746 0.07861 0.73514 0.0
C269 C 0.73181 0.10964 0.79524 0.0
O270 O 0.75287 0.13181 0.73528 0.0
Co271 Co 0.68498 0.10953 0.74658 0.0
O272 O 0.70914 0.15068 0.74277 0.0
C273 C 0.69896 0.05732 0.69949 0.0
C274 C 0.77944 0.05353 0.74724 0.0
C275 C 0.7371 0.15396 0.73646 0.0
O276 O 0.72763 0.0678 0.7048 0.0
O277 O 0.67953 0.0663 0.71921 0.0
O278 O 0.76084 0.1102 0.79294 0.0
O279 O 0.71468 0.09411 0.7705 0.0
Co280 Co 0.82433 0.73005 1.0148 0.0
O281 O 0.86833 0.73938 0.01998 0.0
O282 O 0.8396 0.69508 0.02668 0.0
C283 C 0.82108 0.74664 0.96585 0.0
O284 O 0.77947 0.70877 1.01106 0.0
Co285 Co 0.78451 0.77689 0.0175 0.0
O286 O 0.74807 0.74307 1.01063 0.0
C287 C 0.8151 0.77416 0.07882 0.0
C288 C 0.86645 0.71176 0.02745 0.0
C289 C 0.7524 0.71504 1.00961 0.0
O290 O 0.82328 0.74908 0.06305 0.0
O291 O 0.80038 0.7908 0.0644 0.0
O292 O 0.82544 0.71855 0.9678 0.0
O293 O 0.81965 0.76506 0.99376 0.0
Co294 Co 0.95735 0.55893 0.83697 0.0
O295 O 0.95419 0.59574 0.81949 0.0
O296 O 0.91567 0.55821 0.82426 0.0
C297 C 0.98856 0.58294 0.88036 0.0
O298 O 0.95106 0.51791 0.85323 0.0
Co299 Co 1.01885 0.5356 0.84596 0.0
O300 O 0.9948 0.50186 0.86423 0.0
C301 C 0.98406 0.51981 0.78206 0.0
C302 C 0.9253 0.58433 0.81466 0.0
C303 C 0.96591 0.49812 0.86254 0.0
O304 O 0.96327 0.5352 0.79285 0.0
O305 O 1.00794 0.51833 0.79887 0.0
O306 O 0.95948 0.58296 0.88122 0.0
O307 O 0.99779 0.57113 0.85285 0.0
Co308 Co 0.82998 0.49765 0.50462 0.0
O309 O 0.78521 0.48792 0.5067 0.0
O310 O 0.80937 0.53578 0.51588 0.0
C311 C 0.83174 0.46076 0.45777 0.0
O312 O 0.87794 0.5146 0.50512 0.0
Co313 Co 0.86493 0.44083 0.50771 0.0
O314 O 0.90151 0.47262 0.50597 0.0
C315 C 0.83821 0.47209 0.56385 0.0
C316 C 0.78311 0.51726 0.51472 0.0
C317 C 0.9027 0.50197 0.50644 0.0
O318 O 0.83629 0.49643 0.55172 0.0
O319 O 0.84001 0.44534 0.54653 0.0
O320 O 0.82599 0.48856 0.456 0.0
O321 O 0.83369 0.45615 0.4867 0.0
Co322 Co 0.72814 0.551 0.29353 0.0
O323 O 0.72444 0.50173 0.28936 0.0
O324 O 0.76569 0.52854 0.28181 0.0
C325 C 0.7023 0.55955 0.34652 0.0
O326 O 0.74912 0.60145 0.29689 0.0
Co327 Co 0.6824 0.59465 0.30044 0.0
O328 O 0.71428 0.63279 0.30537 0.0
C329 C 0.68742 0.56245 0.23228 0.0
C330 C 0.75281 0.50021 0.28378 0.0
C331 C 0.74186 0.63019 0.30105 0.0
O332 O 0.70987 0.54934 0.24322 0.0
O333 O 0.67322 0.57922 0.25271 0.0
O334 O 0.73018 0.5547 0.34378 0.0
O335 O 0.69064 0.55862 0.31783 0.0
Eu336 Eu 0.1174 0.11518 0.04408 0.0
Eu337 Eu 0.08461 0.04633 0.02241 0.0
C338 C 0.12878 0.076 0.96818 0.0
C339 C 0.13102 0.20154 0.07499 0.0
C340 C 0.14309 0.22992 0.06604 0.0
C341 C 0.08337 0.21977 0.0852 0.0
C342 C 0.12449 0.25212 0.06426 0.0
C343 C 0.10201 0.19764 0.08713 0.0
C344 C 0.09391 0.24579 0.07139 0.0
C345 C 0.14321 0.17362 0.06113 0.0
O346 O 0.13501 0.04053 0.02808 0.0
O347 O 0.15796 0.09033 0.05035 0.0
C348 C 0.16008 0.06088 0.03849 0.0
O349 O 0.09082 0.10906 0.09075 0.0
O350 O 0.0725 1.00131 0.98823 0.0
O351 O 0.05509 1.00663 0.03552 0.0
O352 O 0.0755 0.05619 0.07818 0.0
C353 C 0.07582 0.08322 0.09898 0.0
O354 O 0.0666 0.12113 0.03978 0.0
O355 O 0.04418 0.07134 1.01594 0.0
O356 O 0.10805 0.05254 0.97405 0.0
O357 O 0.14462 0.15296 0.07957 0.0
O358 O 0.13144 0.16084 0.0319 0.0
O359 O 0.13412 0.1023 0.99088 0.0
C360 C 0.07707 0.96317 0.01897 0.0
C361 C 0.10314 0.97392 0.04003 0.0
C362 C 0.08147 0.90961 0.02155 0.0
C363 C 0.11869 0.95303 0.05114 0.0
C364 C 0.06641 0.93086 1.0092 0.0
C365 C 0.10752 0.92093 0.0427 0.0
C366 C 0.06081 0.98688 1.01041 0.0
C367 C 0.04157 0.10039 0.02931 0.0
H368 H 0.1653 0.23304 0.05629 0.0
H369 H 0.05968 0.21446 0.09036 0.0
H370 H 0.13272 0.27201 0.05317 0.0
H371 H 0.0923 0.17564 0.09384 0.0
H372 H 0.11034 0.99857 0.04986 0.0
H373 H 0.07233 0.88468 1.01565 0.0
H374 H 0.13805 0.96205 0.06843 0.0
H375 H 0.04597 0.92229 0.99344 0.0
Eu376 Eu 0.37482 0.83384 0.2525 0.0
Eu377 Eu 0.336 0.82164 0.32012 0.0
C378 C 0.31118 0.85519 0.2656 0.0
C379 C 0.3915 0.87165 0.18244 0.0
C380 C 0.36186 0.8714 0.17024 0.0
C381 C 0.40703 0.92347 0.16964 0.0
C382 C 0.35483 0.89689 0.15814 0.0
C383 C 0.41412 0.89776 0.18173 0.0
C384 C 0.37717 0.92342 0.15796 0.0
C385 C 0.39782 0.84691 0.19971 0.0
O386 O 0.33132 0.77496 0.287 0.0
O387 O 0.33891 0.78997 0.23787 0.0
C388 C 0.32831 0.76928 0.25531 0.0
O389 O 0.40762 0.81432 0.28108 0.0
O390 O 0.29409 0.80497 0.34158 0.0
O391 O 0.33641 0.82061 0.37149 0.0
O392 O 0.3703 0.7908 0.30643 0.0
C393 C 0.39887 0.80244 0.30612 0.0
O394 O 0.39364 0.87533 0.29144 0.0
O395 O 0.36667 0.86857 0.33663 0.0
O396 O 0.3045 0.83687 0.28655 0.0
O397 O 0.41183 0.85707 0.22818 0.0
O398 O 0.37555 0.8237 0.19983 0.0
O399 O 0.33931 0.86471 0.25923 0.0
C400 C 0.30435 0.77593 0.38103 0.0
C401 C 0.32202 0.75303 0.36946 0.0
C402 C 0.28597 0.74614 0.42137 0.0
C403 C 0.32343 0.72807 0.38539 0.0
C404 C 0.28514 0.77151 0.40592 0.0
C405 C 0.30676 0.72551 0.41274 0.0
C406 C 0.30835 0.80565 0.36932 0.0
C407 C 0.38789 0.88408 0.32189 0.0
H408 H 0.3438 0.85175 0.1705 0.0
H409 H 0.42486 0.94339 0.16962 0.0
H410 H 0.33186 0.8954 0.14827 0.0
H411 H 0.4371 0.89859 0.19125 0.0
H412 H 0.33634 0.75565 0.34955 0.0
H413 H 0.27232 0.74429 0.44196 0.0
H414 H 0.33959 0.71261 0.3781 0.0
H415 H 0.2709 0.78862 0.41469 0.0
Eu416 Eu 0.62448 0.06536 0.51827 0.0
Eu417 Eu 0.56628 0.07919 0.57427 0.0
C418 C 0.62648 0.05829 0.59363 0.0
C419 C 0.69543 0.0318 0.50458 0.0
C420 C 0.68547 1.00775 0.52162 0.0
C421 C 0.74738 1.024 0.51309 0.0
C422 C 0.7063 0.99164 0.5339 0.0
C423 C 0.72651 0.03983 0.50048 0.0
C424 C 0.73749 0.99973 0.52989 0.0
C425 C 0.67386 0.05017 0.49338 0.0
O426 O 0.5999 0.12354 0.57677 0.0
O427 O 0.62401 0.11732 0.52814 0.0
C428 C 0.61676 0.13465 0.55491 0.0
O429 O 0.59179 0.0724 0.47939 0.0
O430 O 0.54214 0.10582 0.61128 0.0
O431 O 0.51705 0.07254 0.57042 0.0
O432 O 0.56666 0.07795 0.52311 0.0
C433 C 0.56675 0.07724 0.49264 0.0
O434 O 0.59675 1.02001 0.526 0.0
O435 O 0.55926 1.02728 0.56295 0.0
O436 O 0.59822 0.05832 0.60168 0.0
O437 O 0.6467 0.03475 0.48312 0.0
O438 O 0.67307 0.07715 0.51223 0.0
O439 O 0.63793 0.07366 0.5716 0.0
C440 C 0.49905 0.11966 0.58685 0.0
C441 C 0.50441 0.13165 0.55843 0.0
C442 C 0.45725 0.14849 0.59634 0.0
C443 C 0.48567 0.15108 0.54851 0.0
C444 C 0.47574 0.12867 0.60605 0.0
C445 C 0.46174 0.15921 0.56719 0.0
C446 C 0.51594 0.09567 0.59468 0.0
C447 C 0.57434 1.00965 0.54307 0.0
H448 H 0.66162 1.00162 0.52573 0.0
H449 H 0.77127 0.0305 0.50936 0.0
H450 H 0.69809 0.97323 0.54696 0.0
H451 H 0.73468 0.05857 0.4878 0.0
H452 H 0.52229 0.1249 0.54323 0.0
H453 H 0.43852 0.15421 0.61072 0.0
H454 H 0.48917 0.15886 0.52576 0.0
H455 H 0.47115 0.11946 0.62786 0.0
Eu456 Eu 0.31902 0.33816 0.79189 0.0
Eu457 Eu 0.38064 0.31063 0.78699 0.0
C458 C 0.31726 0.26047 0.79517 0.0
C459 C 0.24177 0.35132 0.82039 0.0
C460 C 0.23365 0.32182 0.82905 0.0
C461 C 0.2033 0.37108 0.85388 0.0
C462 C 0.21014 0.31687 0.84959 0.0
C463 C 0.22659 0.37592 0.83309 0.0
C464 C 0.19472 0.34146 0.86217 0.0
C465 C 0.26679 0.35717 0.79931 0.0
O466 O 0.36344 0.30272 0.73392 0.0
O467 O 0.32354 0.32961 0.73761 0.0
C468 C 0.34123 0.31296 0.72011 0.0
O469 O 0.35247 0.38391 0.78677 0.0
O470 O 0.4043 0.27109 0.77229 0.0
O471 O 0.42996 0.31652 0.79469 0.0
O472 O 0.39707 0.36462 0.78581 0.0
C473 C 0.38263 0.38912 0.78613 0.0
O474 O 0.33792 0.34879 0.84396 0.0
O475 O 0.37766 0.32175 0.8418 0.0
O476 O 0.34711 0.26531 0.7926 0.0
O477 O 0.29223 0.37295 0.81394 0.0
O478 O 0.27099 0.33348 0.77718 0.0
O479 O 0.30292 0.28502 0.79612 0.0
C480 C 0.4538 0.28347 0.7562 0.0
C481 C 0.4616 0.3053 0.73615 0.0
C482 C 0.49091 0.2532 0.73203 0.0
C483 C 0.48464 0.30157 0.71482 0.0
C484 C 0.46799 0.25702 0.75342 0.0
C485 C 0.50007 0.27591 0.71318 0.0
C486 C 0.43114 0.28781 0.78031 0.0
C487 C 0.36023 0.33944 0.85841 0.0
H488 H 0.24544 0.30262 0.81993 0.0
H489 H 0.19151 0.39032 0.86288 0.0
H490 H 0.20406 0.29388 0.85574 0.0
H491 H 0.23272 0.39889 0.82686 0.0
H492 H 0.45052 0.32565 0.73763 0.0
H493 H 0.5021 0.23297 0.73095 0.0
H494 H 0.49138 0.31963 0.70086 0.0
H495 H 0.46182 0.23968 0.76837 0.0
Eu496 Eu 0.08271 0.09924 0.55127 0.0
Eu497 Eu 0.11368 0.04456 0.51367 0.0
C498 C 0.14816 0.11477 0.51648 0.0
C499 C 0.07312 0.17977 0.55797 0.0
C500 C 0.08083 0.17501 0.52554 0.0
C501 C 0.09374 0.23536 0.56343 0.0
C502 C 0.09568 0.19982 0.51247 0.0
C503 C 0.07918 0.21025 0.57668 0.0
C504 C 0.10315 0.2303 0.5314 0.0
C505 C 0.06481 0.15207 0.57303 0.0
O506 O 0.13423 0.05058 0.56747 0.0
O507 O 0.10811 0.08622 0.59533 0.0
C508 C 0.12834 0.06705 0.59576 0.0
O509 O 0.05003 0.05804 0.56257 0.0
O510 O 0.14948 1.01566 0.50951 0.0
O511 O 0.10713 0.99841 0.48127 0.0
O512 O 0.06686 1.02191 0.52429 0.0
C513 C 0.04741 1.02925 0.54583 0.0
O514 O 0.06019 0.09046 0.49825 0.0
O515 O 0.09147 0.06108 0.46931 0.0
O516 O 0.14856 0.08496 0.50476 0.0
O517 O 0.04688 0.12806 0.55525 0.0
O518 O 0.08793 0.14351 0.58639 0.0
O519 O 0.12597 0.12353 0.5337 0.0
C520 C 0.12325 0.966 0.51406 0.0
C521 C 0.10951 0.974 0.54327 0.0
C522 C 0.11752 0.91207 0.52241 0.0
C523 C 0.09966 0.95165 0.56169 0.0
C524 C 0.1274 0.93482 0.50371 0.0
C525 C 0.10333 0.92032 0.55158 0.0
C526 C 0.13073 0.99073 0.49472 0.0
C527 C 0.0686 0.07738 0.46949 0.0
H528 H 0.07708 0.15164 0.51069 0.0
H529 H 0.09812 0.2586 0.57859 0.0
H530 H 0.10278 0.19449 0.48802 0.0
H531 H 0.07378 0.21443 0.60184 0.0
H532 H 0.10539 0.99755 0.55159 0.0
H533 H 0.12079 0.88808 0.51397 0.0
H534 H 0.08812 0.95885 0.58335 0.0
H535 H 0.13776 0.928 0.48116 0.0
Eu536 Eu 0.3838 0.84772 0.78325 0.0
Eu537 Eu 0.32404 0.80705 0.79559 0.0
C538 C 0.35095 0.86355 0.85007 0.0
C539 C 0.46821 0.87976 0.78863 0.0
C540 C 0.47462 0.85092 0.79412 0.0
C541 C 0.51573 0.90648 0.81724 0.0
C542 C 0.5002 0.85032 0.81356 0.0
C543 C 0.48988 0.9071 0.79817 0.0
C544 C 0.51985 0.87852 0.82711 0.0
C545 C 0.43657 0.88343 0.78526 0.0
O546 O 0.30643 0.85372 0.78483 0.0
O547 O 0.34994 0.8823 0.7722 0.0
C548 C 0.32028 0.88102 0.77765 0.0
O549 O 0.37682 0.81589 0.7345 0.0
O550 O 0.27881 0.80505 0.8144 0.0
O551 O 0.29182 0.76281 0.7887 0.0
O552 O 0.33325 0.78476 0.74411 0.0
C553 C 0.35665 0.79011 0.72649 0.0
O554 O 0.40088 0.80022 0.79338 0.0
O555 O 0.35657 0.77038 0.80246 0.0
O556 O 0.34088 0.83323 0.84654 0.0
O557 O 0.4208 0.87049 0.75801 0.0
O558 O 0.42195 0.87853 0.81067 0.0
O559 O 0.36379 0.87403 0.82604 0.0
C560 C 0.24503 0.77409 0.77343 0.0
C561 C 0.2528 0.78436 0.74469 0.0
C562 C 0.19201 0.7636 0.7544 0.0
C563 C 0.2305 0.7842 0.72094 0.0
C564 C 0.21455 0.76361 0.77825 0.0
C565 C 0.19983 0.77411 0.72559 0.0
C566 C 0.26928 0.77665 0.79841 0.0
C567 C 0.38638 0.77206 0.79822 0.0
H568 H 0.45796 0.82962 0.78702 0.0
H569 H 0.53113 0.92835 0.8264 0.0
H570 H 0.50277 0.82832 0.8205 0.0
H571 H 0.48518 0.92956 0.79415 0.0
H572 H 0.27623 0.79298 0.74077 0.0
H573 H 0.16846 0.75609 0.75884 0.0
H574 H 0.23733 0.79204 0.69895 0.0
H575 H 0.2082 0.75601 0.80051 0.0
Eu576 Eu 0.59671 0.05385 0.06188 0.0
Eu577 Eu 0.59595 0.09227 1.00376 0.0
C578 C 0.57042 0.11627 0.07436 0.0
C579 C 0.56764 1.01093 0.12626 0.0
C580 C 0.54654 0.03132 0.13276 0.0
C581 C 0.55131 0.98663 0.17105 0.0
C582 C 0.5291 0.03055 0.15952 0.0
C583 C 0.56897 0.98764 0.14447 0.0
C584 C 0.53262 1.0093 0.17988 0.0
C585 C 0.59026 1.01624 0.10287 0.0
O586 O 0.64673 0.0977 0.02052 0.0
O587 O 0.64729 0.07582 0.06578 0.0
C588 C 0.66198 0.09043 0.04471 0.0
O589 O 0.61923 1.02794 0.02114 0.0
O590 O 0.60707 0.14113 0.99888 0.0
O591 O 0.58943 0.10496 0.95677 0.0
O592 O 0.60942 0.04828 0.9762 0.0
C593 C 0.62082 1.02814 0.99018 0.0
O594 O 0.54607 0.04815 0.04433 0.0
O595 O 0.54716 0.06491 0.99588 0.0
O596 O 0.56808 0.11315 0.04287 0.0
O597 O 0.58037 1.00757 0.07252 0.0
O598 O 0.60735 0.04406 0.10917 0.0
O599 O 0.58692 0.10005 0.08841 0.0
C600 C 0.62723 0.14615 0.94937 0.0
C601 C 0.65532 0.13643 0.9527 0.0
C602 C 0.64511 0.17085 0.90526 0.0
C603 C 0.67764 0.14244 0.9313 0.0
C604 C 0.6227 0.16468 0.92665 0.0
C605 C 0.67194 0.158 0.90612 0.0
C606 C 0.602 0.13435 0.96744 0.0
C607 C 0.53173 0.05203 0.01771 0.0
H608 H 0.54513 0.04923 0.1185 0.0
H609 H 0.55391 0.96961 0.18607 0.0
H610 H 0.51496 0.04833 0.16577 0.0
H611 H 0.58489 0.97149 0.13931 0.0
H612 H 0.65919 0.12228 0.97033 0.0
H613 H 0.64036 0.18325 0.88625 0.0
H614 H 0.69793 0.13205 0.93251 0.0
H615 H 0.60122 0.17266 0.92413 0.0
Eu616 Eu 0.36438 0.3461 0.30382 0.0
Eu617 Eu 0.32721 0.27671 0.26461 0.0
C618 C 0.34789 0.33396 0.22543 0.0
C619 C 0.38231 0.43226 0.32284 0.0
C620 C 0.38237 0.43537 0.2902 0.0
C621 C 0.35415 0.47539 0.33447 0.0
C622 C 0.36728 0.45732 0.27957 0.0
C623 C 0.36939 0.45348 0.34516 0.0
C624 C 0.35176 0.47641 0.30133 0.0
C625 C 0.38875 0.40307 0.33184 0.0
O626 O 0.3757 0.27719 0.25502 0.0
O627 O 0.40146 0.31677 0.29453 0.0
C628 C 0.40104 0.29366 0.26959 0.0
O629 O 0.34876 0.32007 0.34354 0.0
O630 O 0.31604 0.24145 0.21994 0.0
O631 O 0.29776 0.23179 0.26442 0.0
O632 O 0.34069 0.26921 0.31521 0.0
C633 C 0.34235 0.28968 0.34286 0.0
O634 O 0.31571 0.35142 0.29463 0.0
O635 O 0.29146 0.30041 0.28871 0.0
O636 O 0.32838 0.3082 0.22693 0.0
O637 O 0.36579 0.38677 0.34291 0.0
O638 O 0.40256 0.38528 0.31096 0.0
O639 O 0.36459 0.35054 0.25105 0.0
C640 C 0.31939 0.1923 0.23344 0.0
C641 C 0.35037 0.19523 0.22718 0.0
C642 C 0.32332 0.14597 0.25572 0.0
C643 C 0.36799 0.17476 0.2368 0.0
C644 C 0.30566 0.16645 0.24602 0.0
C645 C 0.35495 0.1511 0.25291 0.0
C646 C 0.30411 0.21975 0.23528 0.0
C647 C 0.29184 0.33056 0.29767 0.0
H648 H 0.39194 0.41924 0.2723 0.0
H649 H 0.34284 0.49035 0.35183 0.0
H650 H 0.36579 0.45755 0.2539 0.0
H651 H 0.36897 0.45145 0.37039 0.0
H652 H 0.36167 0.21488 0.21741 0.0
H653 H 0.31259 0.1279 0.26802 0.0
H654 H 0.39219 0.1788 0.23361 0.0
H655 H 0.28188 0.16386 0.25122 0.0
Eu656 Eu 0.58432 0.59973 0.0528 0.0
Eu657 Eu 0.61543 0.54535 1.0149 0.0
C658 C 0.64998 0.6155 0.01799 0.0
C659 C 0.57549 0.68034 0.06045 0.0
C660 C 0.58407 0.67553 0.02834 0.0
C661 C 0.59543 0.73606 0.0659 0.0
C662 C 0.59903 0.70036 1.01545 0.0
C663 C 0.58082 0.71088 0.07902 0.0
C664 C 0.60562 0.73096 0.0342 0.0
C665 C 0.56687 0.65262 0.07532 0.0
O666 O 0.63678 0.55209 0.06866 0.0
O667 O 0.60848 0.58535 0.09675 0.0
C668 C 0.6297 0.56729 0.09713 0.0
O669 O 0.55055 0.55859 0.0627 0.0
O670 O 0.65164 0.51697 1.00972 0.0
O671 O 0.60914 0.49966 0.98174 0.0
O672 O 0.56973 0.52158 0.02753 0.0
C673 C 0.54908 0.52938 0.04744 0.0
O674 O 0.56155 0.59159 1.00004 0.0
O675 O 0.59204 0.56142 0.97088 0.0
O676 O 0.64988 0.58579 1.00553 0.0
O677 O 0.54878 0.6289 0.05733 0.0
O678 O 0.58984 0.64365 0.08849 0.0
O679 O 0.62812 0.62419 0.03586 0.0
C680 C 0.62602 0.46691 1.01345 0.0
C681 C 0.61366 0.47484 0.04347 0.0
C682 C 0.61835 0.41235 0.01994 0.0
C683 C 0.60349 0.45221 0.06135 0.0
C684 C 0.62848 0.43542 1.0017 0.0
C685 C 0.60556 0.42062 0.04997 0.0
C686 C 0.63305 0.49204 0.99462 0.0
C687 C 0.5694 0.57803 0.97124 0.0
H688 H 0.58088 0.65211 1.01364 0.0
H689 H 0.59916 0.75937 0.08089 0.0
H690 H 0.60682 0.69498 0.99131 0.0
H691 H 0.57474 0.71508 0.10397 0.0
H692 H 0.61067 0.49859 0.05281 0.0
H693 H 0.62031 0.38812 1.0105 0.0
H694 H 0.59292 0.45951 0.08365 0.0
H695 H 0.63762 0.42866 0.97842 0.0
Eu696 Eu 0.88361 0.34719 0.28002 0.0
Eu697 Eu 0.8253 0.30743 0.29655 0.0
C698 C 0.85495 0.3639 0.34986 0.0
C699 C 0.96754 0.37822 0.28713 0.0
C700 C 0.97225 0.34991 0.29552 0.0
C701 C 1.01309 0.40546 0.31947 0.0
C702 C 0.99612 0.34976 0.31747 0.0
C703 C 0.98891 0.40564 0.29782 0.0
C704 C 1.0159 0.3779 0.33088 0.0
C705 C 0.9368 0.3815 0.27765 0.0
O706 O 0.80731 0.35425 0.28651 0.0
O707 O 0.84976 0.38231 0.27107 0.0
C708 C 0.82055 0.38127 0.27825 0.0
O709 O 0.869 0.32079 0.22956 0.0
O710 O 0.78143 0.30482 0.31855 0.0
O711 O 0.79252 0.26356 0.28867 0.0
O712 O 0.83423 0.28369 0.24547 0.0
C713 C 0.8524 0.29265 0.22378 0.0
O714 O 0.90097 0.29966 0.28982 0.0
O715 O 0.85792 0.2711 0.30361 0.0
O716 O 0.84403 0.3338 0.34668 0.0
O717 O 0.92259 0.36198 0.25249 0.0
O718 O 0.91999 0.38441 0.30224 0.0
O719 O 0.86738 0.37401 0.32535 0.0
C720 C 0.74642 0.27765 0.2769 0.0
C721 C 0.75421 0.29232 0.25071 0.0
C722 C 0.69392 0.2657 0.25603 0.0
C723 C 0.73215 0.29401 0.22758 0.0
C724 C 0.71621 0.26423 0.27957 0.0
C725 C 0.70184 0.28085 0.23004 0.0
C726 C 0.77078 0.27747 0.30071 0.0
C727 C 0.88715 0.27217 0.29694 0.0
H728 H 0.9558 0.32859 0.28772 0.0
H729 H 1.02856 0.42728 0.32863 0.0
H730 H 0.99757 0.32809 0.32569 0.0
H731 H 0.98536 0.42777 0.29183 0.0
H732 H 0.77754 0.30253 0.24812 0.0
H733 H 0.67052 0.25552 0.25838 0.0
H734 H 0.73886 0.30539 0.20757 0.0
H735 H 0.70992 0.25288 0.29969 0.0
Eu736 Eu 0.10053 0.55518 0.56306 0.0
Eu737 Eu 0.09957 0.59496 0.50581 0.0
C738 C 0.07964 0.62049 0.57527 0.0
C739 C 0.07303 0.50742 0.62369 0.0
C740 C 0.04336 0.51032 0.61452 0.0
C741 C 0.05436 0.4848 0.66867 0.0
C742 C 1.01927 0.50109 0.63275 0.0
C743 C 0.07833 0.49366 0.65011 0.0
C744 C 1.02473 0.48954 0.6609 0.0
C745 C 0.09837 0.52021 0.60645 0.0
O746 O 0.15047 0.59575 0.51663 0.0
O747 O 0.14898 0.58507 0.56785 0.0
C748 C 0.16487 0.59394 0.54397 0.0
O749 O 0.12547 0.53116 0.52387 0.0
O750 O 0.1061 0.6426 0.49662 0.0
O751 O 0.09249 0.60318 0.45676 0.0
O752 O 0.10982 0.54846 0.47912 0.0
C753 C 0.124 0.52977 0.49262 0.0
O754 O 0.0524 0.53867 0.53792 0.0
O755 O 0.04848 0.57717 0.50882 0.0
O756 O 0.09995 0.62622 0.55457 0.0
O757 O 0.09628 0.50896 0.57535 0.0
O758 O 0.10647 0.55085 0.61347 0.0
O759 O 0.07248 0.59213 0.58074 0.0
C760 C 0.12788 0.64567 0.44724 0.0
C761 C 0.15805 0.65054 0.46016 0.0
C762 C 0.14608 0.65651 0.39642 0.0
C763 C 0.18213 0.65769 0.44103 0.0
C764 C 0.12204 0.64972 0.41569 0.0
C765 C 0.17644 0.65952 0.40851 0.0
C766 C 0.10276 0.6333 0.46531 0.0
C767 C 1.0355 0.55322 0.52131 0.0
H768 H 0.03912 0.52106 0.59412 0.0
H769 H 0.05963 0.47654 0.6905 0.0
H770 H 0.99676 0.50481 0.62597 0.0
H771 H 0.10117 0.4912 0.65731 0.0
H772 H 0.16306 0.64751 0.48458 0.0
H773 H 0.14065 0.65713 0.37135 0.0
H774 H 0.20516 0.66024 0.45123 0.0
H775 H 0.09891 0.64594 0.40537 0.0
Eu776 Eu 0.82008 0.83828 0.29096 0.0
Eu777 Eu 0.88166 0.81074 0.28766 0.0
C778 C 0.81777 0.76077 0.29547 0.0
C779 C 0.74201 0.8554 0.31507 0.0
C780 C 0.73838 0.8332 0.33528 0.0
C781 C 0.69442 0.87109 0.33117 0.0
C782 C 0.71259 0.82972 0.35314 0.0
C783 C 0.72019 0.87461 0.31348 0.0
C784 C 0.69015 0.84831 0.35079 0.0
C785 C 0.76836 0.85883 0.29547 0.0
O786 O 0.86492 0.80141 0.23432 0.0
O787 O 0.82578 0.82925 0.23691 0.0
C788 C 0.84324 0.81192 0.21994 0.0
O789 O 0.85394 0.8839 0.28625 0.0
O790 O 0.90516 0.77065 0.27616 0.0
O791 O 0.93108 0.81698 0.29445 0.0
O792 O 0.89844 0.86454 0.28555 0.0
C793 C 0.88408 0.88907 0.2856 0.0
O794 O 0.83707 0.84811 0.34364 0.0
O795 O 0.87849 0.82345 0.34229 0.0
O796 O 0.84777 0.76581 0.29399 0.0
O797 O 0.79363 0.8741 0.3109 0.0
O798 O 0.77232 0.83371 0.27524 0.0
O799 O 0.80336 0.78514 0.29512 0.0
C800 C 0.95417 0.78114 0.25812 0.0
C801 C 0.9629 0.8018 0.2371 0.0
C802 C 0.98906 0.74775 0.23437 0.0
C803 C 0.98523 0.79589 0.21543 0.0
C804 C 0.96683 0.75375 0.2561 0.0
C805 C 0.99903 0.76915 0.21437 0.0
C806 C 0.93208 0.78762 0.28243 0.0
C807 C 0.85991 0.83996 0.35847 0.0
H808 H 0.75525 0.81833 0.33687 0.0
H809 H 0.67767 0.88604 0.32935 0.0
H810 H 0.70974 0.81195 0.368 0.0
H811 H 0.72292 0.89211 0.29827 0.0
H812 H 0.95305 0.82288 0.238 0.0
H813 H 0.99902 0.72678 0.23378 0.0
H814 H 0.99267 0.81302 0.20061 0.0
H815 H 0.95996 0.73731 0.27183 0.0
Eu816 Eu 0.86804 0.33003 0.75767 0.0
Eu817 Eu 0.83415 0.32414 0.8269 0.0
C818 C 0.81044 0.36194 0.77762 0.0
C819 C 0.88247 0.36801 0.68674 0.0
C820 C 0.85446 0.36858 0.67104 0.0
C821 C 0.90074 0.4211 0.6783 0.0
C822 C 0.8495 0.39511 0.65959 0.0
C823 C 0.90575 0.39438 0.68988 0.0
C824 C 0.87234 0.42185 0.66343 0.0
C825 C 0.88617 0.34127 0.70232 0.0
O826 O 0.80319 0.29013 0.78942 0.0
O827 O 0.83591 0.28311 0.74838 0.0
C828 C 0.81006 0.27516 0.76142 0.0
O829 O 0.89975 0.30618 0.78162 0.0
O830 O 0.79797 0.3132 0.85876 0.0
O831 O 0.84504 0.32319 0.87737 0.0
O832 O 0.86161 0.28644 0.80931 0.0
C833 C 0.89067 0.29201 0.80507 0.0
O834 O 0.89802 0.36375 0.79727 0.0
O835 O 0.86335 0.37206 0.83587 0.0
O836 O 0.80232 0.34637 0.80052 0.0
O837 O 0.90409 0.34783 0.72857 0.0
O838 O 0.86126 0.32208 0.70521 0.0
O839 O 0.83885 0.36713 0.77037 0.0
C840 C 0.81364 0.28155 0.89306 0.0
C841 C 0.81897 0.25454 0.87177 0.0
C842 C 0.80972 0.25247 0.9366 0.0
C843 C 0.82111 0.22707 0.88319 0.0
C844 C 0.80838 0.28021 0.92535 0.0
C845 C 0.81694 0.22602 0.91581 0.0
C846 C 0.81709 0.31166 0.8822 0.0
C847 C 0.88989 0.37959 0.82432 0.0
H848 H 0.83606 0.34866 0.66789 0.0
H849 H 0.91902 0.4411 0.68099 0.0
H850 H 0.82788 0.39425 0.64684 0.0
H851 H 0.92767 0.39452 0.7017 0.0
H852 H 0.82302 0.25523 0.84667 0.0
H853 H 0.80682 0.25224 0.962 0.0
H854 H 0.82683 0.207 0.86685 0.0
H855 H 0.80442 0.30088 0.94209 0.0
Eu856 Eu 0.86381 0.85032 0.80551 0.0
Eu857 Eu 0.82968 0.78025 0.76533 0.0
C858 C 0.84893 0.83805 0.72707 0.0
C859 C 0.88381 0.93681 0.82162 0.0
C860 C 0.88844 0.93867 0.78904 0.0
C861 C 0.8584 0.98202 0.82684 0.0
C862 C 0.877 0.96123 0.7752 0.0
C863 C 0.87004 0.95964 0.84079 0.0
C864 C 0.86074 0.98202 0.7937 0.0
C865 C 0.88687 0.90782 0.8333 0.0
O866 O 0.879 0.78074 0.75812 0.0
O867 O 0.9023 0.82323 0.79645 0.0
C868 C 0.90337 0.79901 0.77315 0.0
O869 O 0.84972 0.82258 0.84478 0.0
O870 O 0.8245 0.74299 0.72232 0.0
O871 O 0.79403 0.73893 0.76045 0.0
O872 O 0.84256 0.7718 0.81573 0.0
C873 C 0.8442 0.79195 0.84366 0.0
O874 O 0.81505 0.85369 0.7945 0.0
O875 O 0.79389 0.80237 0.79148 0.0
O876 O 0.82936 0.81243 0.72866 0.0
O877 O 0.8616 0.89265 0.8414 0.0
O878 O 0.9025 0.88892 0.81611 0.0
O879 O 0.86571 0.85454 0.75269 0.0
C880 C 0.81333 0.69349 0.737 0.0
C881 C 0.80506 0.67928 0.76344 0.0
C882 C 0.84983 0.6584 0.72416 0.0
C883 C 0.82024 0.6561 0.77116 0.0
C884 C 0.83446 0.68142 0.71625 0.0
C885 C 0.84382 0.64674 0.75254 0.0
C886 C 0.80473 0.72408 0.73474 0.0
C887 C 0.79231 0.8322 0.79878 0.0
H888 H 0.8987 0.92121 0.7735 0.0
H889 H 0.84561 0.99784 0.84134 0.0
H890 H 0.87861 0.9607 0.74949 0.0
H891 H 0.86598 0.9585 0.86581 0.0
H892 H 0.78859 0.68774 0.77968 0.0
H893 H 0.86764 0.65108 0.70919 0.0
H894 H 0.81523 0.64741 0.79318 0.0
H895 H 0.8409 0.69152 0.69536 0.0
Eu896 Eu 0.61828 0.60754 0.5473 0.0
Eu897 Eu 0.58579 0.53901 0.52592 0.0
C898 C 0.62898 0.57037 0.47142 0.0
C899 C 0.6392 0.69038 0.54408 0.0
C900 C 0.6302 0.682 0.51089 0.0
C901 C 0.61736 0.73751 0.54784 0.0
C902 C 0.61348 0.70038 0.49672 0.0
C903 C 0.63399 0.71894 0.56215 0.0
C904 C 0.60582 0.72741 0.5155 0.0
C905 C 0.64563 0.66589 0.56088 0.0
O906 O 0.63597 0.5326 0.53214 0.0
O907 O 0.65794 0.58227 0.55617 0.0
C908 C 0.66077 0.55325 0.54322 0.0
O909 O 0.59732 0.60045 0.59665 0.0
O910 O 0.56313 0.49829 0.48995 0.0
O911 O 0.56795 0.49569 0.54085 0.0
O912 O 0.56997 0.55151 0.57919 0.0
C913 C 0.57631 0.57722 0.60239 0.0
O914 O 0.56861 0.61514 0.53764 0.0
O915 O 0.54508 0.56426 0.52073 0.0
O916 O 0.614 0.54472 0.48013 0.0
O917 O 0.62311 0.65484 0.57654 0.0
O918 O 0.65732 0.64354 0.54375 0.0
O919 O 0.62841 0.59774 0.49146 0.0
C920 C 0.57441 0.45175 0.50506 0.0
C921 C 0.56109 0.42673 0.51904 0.0
C922 C 0.62378 0.43689 0.51165 0.0
C923 C 0.57951 0.40907 0.5323 0.0
C924 C 0.60536 0.45491 0.49872 0.0
C925 C 0.61117 0.41593 0.53087 0.0
C926 C 0.56081 0.48007 0.51135 0.0
C927 C 0.54315 0.59427 0.53007 0.0
H928 H 0.63375 0.65992 0.49645 0.0
H929 H 0.61159 0.75844 0.56266 0.0
H930 H 0.60513 0.69258 0.47159 0.0
H931 H 0.64039 0.72542 0.58786 0.0
H932 H 0.53731 0.42407 0.52426 0.0
H933 H 0.64815 0.44192 0.50989 0.0
H934 H 0.56942 0.39246 0.54664 0.0
H935 H 0.61605 0.47419 0.48799 0.0
Eu936 Eu 0.12139 0.55765 0.02194 0.0
Eu937 Eu 0.06386 0.57519 0.06748 0.0
C938 C 0.12029 0.5515 0.09586 0.0
C939 C 0.19103 0.52232 1.00465 0.0
C940 C 0.1825 0.49911 0.02312 0.0
C941 C 0.2436 0.51587 1.01126 0.0
C942 C 0.20438 0.48415 0.03528 0.0
C943 C 0.22169 0.53056 0.99882 0.0
C944 C 0.23518 0.49259 0.02968 0.0
C945 C 0.16874 0.54026 0.99434 0.0
O946 O 0.10136 0.61698 0.07266 0.0
O947 O 0.12309 0.60869 0.02387 0.0
C948 C 0.11675 0.62743 0.04966 0.0
O949 O 0.0848 0.5628 0.98637 0.0
O950 O 0.04894 0.60686 0.10798 0.0
O951 O 1.01649 0.56866 0.0801 0.0
O952 O 0.05572 0.59135 0.02107 0.0
C953 C 0.06309 0.57983 0.99186 0.0
O954 O 0.09263 0.51434 0.03155 0.0
O955 O 0.04658 0.53004 0.03266 0.0
O956 O 0.09049 0.54806 0.09501 0.0
O957 O 0.14107 0.52499 0.98642 0.0
O958 O 0.1693 0.56784 1.01265 0.0
O959 O 0.13571 0.56456 0.07449 0.0
C960 C 1.001 0.6176 0.0941 0.0
C961 C 1.00723 0.63296 0.06805 0.0
C962 C 0.9558 0.64145 0.10244 0.0
C963 C 0.98738 0.6514 0.05848 0.0
C964 C 0.97548 0.62239 0.11167 0.0
C965 C 0.96126 0.65539 0.07523 0.0
C966 C 1.02025 0.59516 0.10098 0.0
C967 C 0.06338 0.50853 0.02418 0.0
H968 H 0.15901 0.49293 0.0286 0.0
H969 H 0.26715 0.52258 1.00629 0.0
H970 H 0.19733 0.46646 0.04959 0.0
H971 H 0.22875 0.54873 0.98507 0.0
H972 H 1.02706 0.63002 0.05453 0.0
H973 H 0.93565 0.64416 0.11559 0.0
H974 H 0.99209 0.66207 0.03756 0.0
H975 H 0.97035 0.61077 0.13187 0.0
C976 C 0.0411 0.29861 0.05093 0.0
C977 C 0.03651 0.2878 0.01719 0.0
H978 H 0.0637 0.29371 0.09505 0.0
C979 C 0.04807 0.26115 1.00259 0.0
H980 H 1.0325 0.31926 0.0627 0.0
C981 C 0.06563 0.24682 0.02102 0.0
C982 C 0.07198 0.25901 0.05419 0.0
H983 H 0.04466 0.25222 0.97673 0.0
H984 H 0.07539 0.22697 1.00915 0.0
C985 C 0.05898 0.2843 0.0694 0.0
C986 C 0.27249 0.86483 0.18867 0.0
C987 C 0.24468 0.84469 0.1888 0.0
H988 H 0.31518 0.88572 0.21434 0.0
C989 C 0.23701 0.83336 0.21708 0.0
H990 H 0.27862 0.87457 0.16751 0.0
C991 C 0.2577 0.83977 0.24368 0.0
C992 C 0.28664 0.85748 0.24255 0.0
H993 H 0.21558 0.81809 0.21823 0.0
H994 H 0.25168 0.82881 0.26414 0.0
C995 C 0.29326 0.8714 0.21555 0.0
C996 C 0.57498 0.92689 0.50705 0.0
C997 C 0.54407 0.91704 0.49801 0.0
H998 H 0.60902 0.96477 0.53079 0.0
C999 C 0.52254 0.93477 0.51103 0.0
H1000 H 0.59162 0.91274 0.49755 0.0
C1001 C 0.53241 0.96444 0.53015 0.0
C1002 C 0.5637 0.97597 0.53576 0.0
H1003 H 0.49853 0.92679 0.50441 0.0
H1004 H 0.51586 0.97945 0.53746 0.0
C1005 C 0.58481 0.95629 0.52617 0.0
C1006 C 0.58218 0.27409 0.69695 0.0
C1007 C 0.58455 0.28529 0.6679 0.0
H1008 H 0.55354 0.2622 0.7339 0.0
C1009 C 0.5581 0.28907 0.65129 0.0
H1010 H 0.60219 0.2706 0.71005 0.0
C1011 C 0.53002 0.28423 0.66501 0.0
C1012 C 0.52804 0.27519 0.6953 0.0
H1013 H 0.55935 0.29751 0.62871 0.0
H1014 H 0.51011 0.28874 0.65258 0.0
C1015 C 0.55421 0.269 0.71047 0.0
C1016 C 0.06045 0.84578 0.57321 0.0
C1017 C 0.06113 0.85377 0.60722 0.0
H1018 H 0.07316 0.86032 0.52906 0.0
C1019 C 0.07707 0.88319 0.62294 0.0
H1020 H 0.0484 0.82321 0.56031 0.0
C1021 C 0.09175 0.90431 0.60495 0.0
C1022 C 0.09059 0.89657 0.57082 0.0
H1023 H 0.07836 0.88984 0.64911 0.0
H1024 H 0.10393 0.92682 0.61783 0.0
C1025 C 0.07497 0.86691 0.55523 0.0
C1026 C 0.57799 0.8549 0.88028 0.0
C1027 C 0.58281 0.8804 0.90674 0.0
H1028 H 0.5554 0.83493 0.8339 0.0
C1029 C 0.5662 0.9049 0.90729 0.0
H1030 H 0.59044 0.83557 0.87912 0.0
C1031 C 0.54587 0.90435 0.88128 0.0
C1032 C 0.54196 0.87939 0.85424 0.0
H1033 H 0.56963 0.92494 0.92721 0.0
H1034 H 0.53317 0.92347 0.88242 0.0
C1035 C 0.55793 0.85449 0.85427 0.0
C1036 C 0.51664 0.1731 0.08932 0.0
C1037 C 0.53178 0.19461 0.11599 0.0
H1038 H 0.51702 0.13048 0.05554 0.0
C1039 C 0.55456 0.18563 0.13427 0.0
H1040 H 0.49903 0.17955 0.07493 0.0
C1041 C 0.56553 0.15776 0.12271 0.0
C1042 C 0.55345 0.13881 0.09306 0.0
H1043 H 0.56666 0.20202 0.15488 0.0
H1044 H 0.58543 0.153 0.13494 0.0
C1045 C 0.52733 0.1453 0.078 0.0
C1046 C 0.22034 0.32375 0.34231 0.0
C1047 C 0.22851 0.34802 0.36947 0.0
H1048 H 0.23387 0.29971 0.2975 0.0
C1049 C 0.25611 0.3689 0.37063 0.0
H1050 H 0.19894 0.30767 0.34054 0.0
C1051 C 0.27563 0.36502 0.34548 0.0
C1052 C 0.2681 0.33986 0.31901 0.0
H1053 H 0.26263 0.38831 0.39094 0.0
H1054 H 0.29732 0.38069 0.34768 0.0
C1055 C 0.24007 0.31955 0.31744 0.0
C1056 C 1.02973 0.05749 0.17255 0.0
C1057 C 1.02483 0.08564 0.19354 0.0
H1058 H 0.04767 0.03414 0.12891 0.0
C1059 C 0.03759 0.11344 0.18231 0.0
H1060 H 1.02186 0.03517 0.17952 0.0
C1061 C 0.05367 0.11283 0.15265 0.0
C1062 C 0.05851 0.08444 0.13184 0.0
H1063 H 0.03626 0.13606 0.19716 0.0
H1064 H 0.06273 0.13511 0.14621 0.0
C1065 C 0.04536 0.05685 0.14294 0.0
C1066 C 0.33705 0.66292 0.45029 0.0
C1067 C 0.34302 0.6791 0.48253 0.0
H1068 H 0.32034 0.66486 0.40224 0.0
C1069 C 0.33512 0.70911 0.49127 0.0
H1070 H 0.34296 0.63981 0.44285 0.0
C1071 C 0.32183 0.72282 0.46879 0.0
C1072 C 0.31635 0.70736 0.43643 0.0
H1073 H 0.33988 0.72286 0.51555 0.0
H1074 H 0.31732 0.74647 0.47665 0.0
C1075 C 0.32401 0.67715 0.42721 0.0
C1076 C 0.65611 1.02708 0.66286 0.0
C1077 C 0.68622 0.04336 0.66655 0.0
H1078 H 0.61286 1.0202 0.63701 0.0
C1079 C 0.69843 0.05672 0.64102 0.0
H1080 H 0.64643 1.01596 0.68199 0.0
C1081 C 0.67917 0.05937 0.61542 0.0
C1082 C 0.64774 0.04856 0.61531 0.0
H1083 H 0.72168 0.06908 0.64303 0.0
H1084 H 0.68849 0.07257 0.59763 0.0
C1085 C 0.63677 1.03011 0.63757 0.0
C1086 C 0.38653 0.34812 0.94841 0.0
C1087 C 0.37809 0.37709 0.96218 0.0
H1088 H 0.38823 0.31358 0.90484 0.0
C1089 C 0.36407 0.39297 0.94137 0.0
H1090 H 0.39734 0.33519 0.96359 0.0
C1091 C 0.3582 0.38034 0.90826 0.0
C1092 C 0.36669 0.3516 0.89423 0.0
H1093 H 0.35705 0.41521 0.95075 0.0
H1094 H 0.34722 0.39353 0.89347 0.0
C1095 C 0.3813 0.33575 0.91472 0.0
C1096 C 0.0459 0.07787 0.37638 0.0
C1097 C 1.01813 0.09011 0.37658 0.0
H1098 H 0.08255 0.06393 0.40273 0.0
C1099 C 1.00765 0.09772 0.40826 0.0
H1100 H 0.05566 0.07142 0.3534 0.0
C1101 C 1.02367 0.09379 0.43724 0.0
C1102 C 0.05134 0.08138 0.4371 0.0
H1103 H 0.9868 0.10723 0.41092 0.0
H1104 H 1.01397 0.10053 0.4602 0.0
C1105 C 0.0617 0.07344 0.40536 0.0
C1106 C 0.34955 0.71131 0.66657 0.0
C1107 C 0.37472 0.71651 0.64774 0.0
H1108 H 0.32345 0.73035 0.70514 0.0
C1109 C 0.39475 0.74544 0.65651 0.0
H1110 H 0.33289 0.68995 0.65976 0.0
C1111 C 0.38882 0.76912 0.68177 0.0
C1112 C 0.36248 0.76481 0.69912 0.0
H1113 H 0.41366 0.75085 0.64184 0.0
H1114 H 0.40449 0.79127 0.68694 0.0
C1115 C 0.34354 0.73505 0.6919 0.0
C1116 C 0.68727 0.128 0.8205 0.0
C1117 C 0.71848 0.1271 0.82287 0.0
H1118 H 0.64843 0.13904 0.84475 0.0
C1119 C 0.73557 0.14127 0.85193 0.0
H1120 H 0.67336 0.11736 0.7985 0.0
C1121 C 0.72097 0.15405 0.87896 0.0
C1122 C 0.6893 0.15305 0.87691 0.0
H1123 H 0.75974 0.14112 0.85422 0.0
H1124 H 0.7341 0.16327 0.90178 0.0
C1125 C 0.67291 0.14093 0.84708 0.0
C1126 C 0.36399 0.32959 0.13605 0.0
C1127 C 0.37119 0.36152 0.13354 0.0
H1128 H 0.35003 0.29597 0.16624 0.0
C1129 C 0.36883 0.38434 0.16133 0.0
H1130 H 0.36542 0.31127 0.11529 0.0
C1131 C 0.36069 0.37549 0.1909 0.0
C1132 C 0.35346 0.34353 0.19331 0.0
H1133 H 0.37424 0.40912 0.16051 0.0
H1134 H 0.3602 0.39374 0.21201 0.0
C1135 C 0.35484 0.32075 0.16527 0.0
C1136 C 0.22256 1.00945 1.01655 0.0
C1137 C 0.25011 0.03134 0.01991 0.0
H1138 H 0.17388 1.00087 0.0196 0.0
C1139 C 0.24761 0.06327 0.0309 0.0
H1140 H 0.22287 0.98463 1.00834 0.0
C1141 C 0.21899 0.0727 0.03788 0.0
C1142 C 0.1914 0.05072 0.03409 0.0
H1143 H 0.26785 0.08114 0.03408 0.0
H1144 H 0.21848 0.09752 0.04572 0.0
C1145 C 0.19406 1.01885 0.02325 0.0
C1146 C 0.69748 0.69648 0.01917 0.0
C1147 C 0.72566 0.68927 1.00906 0.0
H1148 H 0.65233 0.67932 0.03064 0.0
C1149 C 0.72831 0.65724 1.00035 0.0
H1150 H 0.69447 0.72074 0.02634 0.0
C1151 C 0.7036 0.63321 1.00206 0.0
C1152 C 0.67574 0.64054 1.0132 0.0
H1153 H 0.74961 0.65071 0.99244 0.0
H1154 H 0.70664 0.60892 0.99554 0.0
C1155 C 0.67314 0.67256 0.02158 0.0
C1156 C 0.80117 0.46912 0.27467 0.0
C1157 C 0.76974 0.46921 0.28136 0.0
H1158 H 0.84046 0.44506 0.26817 0.0
C1159 C 0.75568 0.43868 0.28646 0.0
H1160 H 0.81445 0.49078 0.27053 0.0
C1161 C 0.77124 0.41142 0.28517 0.0
C1162 C 0.80268 0.41134 0.27839 0.0
H1163 H 0.732 0.43561 0.29192 0.0
H1164 H 0.75811 0.38988 0.28979 0.0
C1165 C 0.81668 0.44184 0.27321 0.0
C1166 C 0.9488 0.54248 0.49424 0.0
C1167 C 0.93525 0.52044 0.5124 0.0
H1168 H 0.99039 0.57007 0.48243 0.0
C1169 C 0.95517 0.51089 0.53395 0.0
H1170 H 0.93484 0.55017 0.47688 0.0
C1171 C 0.98684 0.52147 0.53647 0.0
C1172 C 1.00081 0.5427 0.51792 0.0
H1173 H 0.94622 0.49402 0.54852 0.0
H1174 H 1.00047 0.51243 0.55297 0.0
C1175 C 0.98097 0.55357 0.49715 0.0
C1176 C 0.38268 0.089 0.2918 0.0
C1177 C 0.40844 0.10656 0.31065 0.0
H1178 H 0.34605 0.08904 0.25785 0.0
C1179 C 0.41756 0.13826 0.30883 0.0
H1180 H 0.3754 0.06435 0.29234 0.0
C1181 C 0.40072 0.15237 0.28913 0.0
C1182 C 0.37456 0.13498 0.27071 0.0
H1183 H 0.43739 0.15232 0.32301 0.0
H1184 H 0.40765 0.1772 0.28922 0.0
C1185 C 0.36592 0.10306 0.27196 0.0
C1186 C 0.4137 0.2201 0.55592 0.0
C1187 C 0.39093 0.2018 0.53337 0.0
H1188 H 0.45418 0.22044 0.58511 0.0
C1189 C 0.39286 0.17041 0.5205 0.0
H1190 H 0.4123 0.24428 0.56638 0.0
C1191 C 0.4169 0.15717 0.53054 0.0
C1192 C 0.43888 0.17492 0.55419 0.0
H1193 H 0.37545 0.15597 0.50308 0.0
H1194 H 0.41772 0.1327 0.52077 0.0
C1195 C 0.43742 0.20654 0.56667 0.0
C1196 C 0.75068 0.69075 0.30147 0.0
C1197 C 0.76358 0.66271 0.29985 0.0
H1198 H 0.75552 0.74065 0.30145 0.0
C1199 C 0.79566 0.66807 0.29686 0.0
H1200 H 0.72645 0.68942 0.30362 0.0
C1201 C 0.813 0.69898 0.29573 0.0
C1202 C 0.79961 0.72678 0.2973 0.0
H1203 H 0.80763 0.64839 0.29538 0.0
H1204 H 0.83726 0.70096 0.29342 0.0
C1205 C 0.76775 0.72117 0.30018 0.0
C1206 C 0.9608 0.44028 0.84714 0.0
C1207 C 0.94874 0.46651 0.8623 0.0
H1208 H 0.95131 0.39219 0.82258 0.0
C1209 C 0.91797 0.46259 0.86923 0.0
H1210 H 0.98434 0.44268 0.84103 0.0
C1211 C 0.89906 0.43349 0.85885 0.0
C1212 C 0.91057 0.40822 0.84072 0.0
H1213 H 0.90813 0.48252 0.88069 0.0
H1214 H 0.87507 0.43149 0.86295 0.0
C1215 C 0.9418 0.41148 0.83609 0.0
C1216 C 0.11813 0.87861 0.10955 0.0
C1217 C 0.14727 0.87147 0.10463 0.0
H1218 H 0.08197 0.89859 0.09193 0.0
C1219 C 0.1631 0.87989 0.07848 0.0
H1220 H 0.10528 0.87165 0.1292 0.0
C1221 C 0.14967 0.8951 0.05718 0.0
C1222 C 0.12004 0.90094 0.06143 0.0
H1223 H 0.18547 0.87407 0.07422 0.0
H1224 H 0.16226 0.9023 0.03748 0.0
C1225 C 0.10447 0.89305 0.08783 0.0
C1226 C 0.95986 0.32122 0.86171 0.0
C1227 C 0.94902 0.3132 0.89046 0.0
H1228 H 0.95003 0.32029 0.81178 0.0
C1229 C 0.92026 0.29495 0.89021 0.0
H1230 H 0.98209 0.33545 0.86158 0.0
C1231 C 0.90211 0.28549 0.86141 0.0
C1232 C 0.91221 0.29502 0.83293 0.0
H1233 H 0.91186 0.28816 0.91218 0.0
H1234 H 0.87974 0.27187 0.86175 0.0
C1235 C 0.9416 0.31229 0.83317 0.0
C1236 C 0.6726 0.21028 0.56142 0.0
C1237 C 0.66123 0.22929 0.5872 0.0
H1238 H 0.66717 0.16472 0.5306 0.0
C1239 C 0.6335 0.21811 0.59931 0.0
H1240 H 0.69364 0.21871 0.55129 0.0
C1241 C 0.61819 0.18792 0.5872 0.0
C1242 C 0.63045 0.16804 0.56298 0.0
H1243 H 0.62353 0.23265 0.61835 0.0
H1244 H 0.59713 0.1799 0.59756 0.0
C1245 C 0.65732 0.17964 0.54944 0.0
C1246 C 0.60659 0.83719 0.36531 0.0
C1247 C 0.6067 0.83663 0.39854 0.0
H1248 H 0.63291 0.8414 0.32438 0.0
C1249 C 0.63451 0.83841 0.4159 0.0
H1250 H 0.58558 0.83598 0.35123 0.0
C1251 C 0.66178 0.84142 0.40031 0.0
C1252 C 0.66158 0.84315 0.36732 0.0
H1253 H 0.63523 0.83811 0.44157 0.0
H1254 H 0.68304 0.84337 0.41422 0.0
C1255 C 0.63371 0.84057 0.34993 0.0
C1256 C 0.15565 0.30671 0.52631 0.0
C1257 C 0.15181 0.30787 0.49338 0.0
H1258 H 0.14447 0.28107 0.56391 0.0
C1259 C 0.13409 0.28221 0.47245 0.0
H1260 H 0.16905 0.32634 0.543 0.0
C1261 C 0.11865 0.25693 0.48463 0.0
C1262 C 0.12118 0.25631 0.51797 0.0
H1263 H 0.13011 0.28285 0.4471 0.0
H1264 H 0.10354 0.23874 0.46798 0.0
C1265 C 0.14091 0.28103 0.53837 0.0
C1266 C 0.63597 0.25899 0.16748 0.0
C1267 C 0.6343 0.2882 0.15931 0.0
H1268 H 0.6587 0.23384 0.19684 0.0
C1269 C 0.6553 0.31484 0.17359 0.0
H1270 H 0.61929 0.23839 0.15716 0.0
C1271 C 0.67768 0.31231 0.1963 0.0
C1272 C 0.67879 0.28324 0.20536 0.0
H1273 H 0.65361 0.33767 0.16815 0.0
H1274 H 0.69343 0.33327 0.20766 0.0
C1275 C 0.65804 0.25651 0.19047 0.0
C1276 C 0.64459 0.96421 0.92793 0.0
C1277 C 0.66748 0.95581 0.94658 0.0
H1278 H 0.61113 0.99431 0.92742 0.0
C1279 C 0.67796 0.97466 0.97664 0.0
H1280 H 0.63601 0.94968 0.90472 0.0
C1281 C 0.66398 0.99979 0.98937 0.0
C1282 C 0.63898 1.00636 0.97244 0.0
H1283 H 0.69569 0.96869 0.99128 0.0
H1284 H 0.67163 1.01301 1.01344 0.0
C1285 C 0.63028 0.98951 0.9409 0.0
C1286 C 0.9593 0.76426 0.7187 0.0
C1287 C 0.97766 0.79163 0.71331 0.0
H1288 H 0.92143 0.74508 0.74312 0.0
C1289 C 0.97448 0.82092 0.73157 0.0
H1290 H 0.96181 0.74142 0.70505 0.0
C1291 C 0.95203 0.82303 0.75388 0.0
C1292 C 0.93224 0.79584 0.75789 0.0
H1293 H 0.98869 0.84226 0.72776 0.0
H1294 H 0.94875 0.84612 0.76615 0.0
C1295 C 0.93658 0.76635 0.74071 0.0
C1296 C 0.18475 0.09365 0.89789 0.0
C1297 C 0.18404 0.06418 0.87636 0.0
H1298 H 0.16946 0.12078 0.94132 0.0
C1299 C 0.1641 0.03898 0.88581 0.0
H1300 H 0.19892 0.11429 0.89253 0.0
C1301 C 0.1466 0.0428 0.91434 0.0
C1302 C 0.14729 0.07224 0.93598 0.0
H1303 H 0.16194 1.01569 0.87095 0.0
H1304 H 0.13245 1.02209 0.91958 0.0
C1305 C 0.16727 0.09748 0.92649 0.0
C1306 C 0.87995 0.47386 0.60279 0.0
C1307 C 0.84924 0.476 0.59754 0.0
H1308 H 0.9116 0.45414 0.62812 0.0
C1309 C 0.82876 0.46948 0.62076 0.0
H1310 H 0.89603 0.47863 0.58481 0.0
C1311 C 0.8379 0.45616 0.64627 0.0
C1312 C 0.86714 0.44818 0.64773 0.0
H1313 H 0.80499 0.47101 0.61705 0.0
H1314 H 0.82101 0.44849 0.66232 0.0
C1315 C 0.88887 0.4597 0.62761 0.0
C1316 C 0.48724 0.06929 0.45759 0.0
C1317 C 0.49092 0.09365 0.44001 0.0
H1318 H 0.50956 0.0448 0.48824 0.0
C1319 C 0.51799 0.11572 0.44474 0.0
H1320 H 0.46677 0.05167 0.45379 0.0
C1321 C 0.54278 0.11072 0.46261 0.0
C1322 C 0.54032 0.08401 0.47634 0.0
H1323 H 0.52124 0.13457 0.43121 0.0
H1324 H 0.56422 0.12673 0.46428 0.0
C1325 C 0.51193 0.06477 0.47623 0.0
C1326 C 0.84323 0.76978 0.13104 0.0
C1327 C 0.82285 0.78406 0.11489 0.0
H1328 H 0.86599 0.76741 0.1761 0.0
C1329 C 0.81008 0.80821 0.1337 0.0
H1330 H 0.85372 0.75122 0.11763 0.0
C1331 C 0.817 0.81738 0.16738 0.0
C1332 C 0.83726 0.80305 0.18358 0.0
H1333 H 0.79435 0.81993 0.12247 0.0
H1334 H 0.80626 0.83575 0.18076 0.0
C1335 C 0.85043 0.77923 0.16474 0.0
C1336 C 0.17848 0.04035 0.66438 0.0
C1337 C 0.1751 0.06161 0.69369 0.0
H1338 H 0.16753 1.0247 0.61218 0.0
C1339 C 0.15652 0.08428 0.68862 0.0
H1340 H 0.19187 1.02211 0.66541 0.0
C1341 C 0.14218 0.08556 0.6581 0.0
C1342 C 0.14503 0.0645 0.62899 0.0
H1343 H 0.15252 0.10192 0.70894 0.0
H1344 H 0.12856 0.10371 0.65751 0.0
C1345 C 0.16402 0.04184 0.63317 0.0
C1346 C 0.83594 0.40457 0.43376 0.0
C1347 C 0.83698 0.43601 0.4298 0.0
H1348 H 0.8403 0.3571 0.41203 0.0
C1349 C 0.84383 0.44315 0.39951 0.0
H1350 H 0.83064 0.39812 0.45679 0.0
C1351 C 0.84998 0.41972 0.37413 0.0
C1352 C 0.84895 0.38822 0.37798 0.0
H1353 H 0.8449 0.46695 0.39553 0.0
H1354 H 0.85523 0.42637 0.35117 0.0
C1355 C 0.8415 0.38093 0.40812 0.0
C1356 C 0.53488 1.02485 0.27061 0.0
C1357 C 0.50651 0.03367 0.27695 0.0
H1358 H 0.56507 1.01021 0.23514 0.0
C1359 C 0.48561 0.03241 0.25088 0.0
H1360 H 0.55157 1.02542 0.29001 0.0
C1361 C 0.49337 1.02318 0.21903 0.0
C1362 C 0.52201 1.0149 0.21292 0.0
H1363 H 0.46349 0.03889 0.25502 0.0
H1364 H 0.47723 1.02293 0.19923 0.0
C1365 C 0.54251 1.01561 0.23904 0.0
C1366 C 0.8297 0.79067 0.93337 0.0
C1367 C 0.82555 0.75839 0.93444 0.0
H1368 H 0.83907 0.82642 0.90473 0.0
C1369 C 0.82759 0.73724 0.90515 0.0
H1370 H 0.82848 0.80781 0.9552 0.0
C1371 C 0.83373 0.7479 0.87598 0.0
C1372 C 0.83837 0.78022 0.87497 0.0
H1373 H 0.82458 0.71219 0.90473 0.0
H1374 H 0.83493 0.7307 0.85419 0.0
C1375 C 0.83606 0.80137 0.90424 0.0
C1376 C 0.95435 0.09404 0.04318 0.0
C1377 C 0.94951 0.12563 0.0497 0.0
H1378 H 0.98561 0.06144 0.03099 0.0
C1379 C 0.97562 0.1487 0.04882 0.0
H1380 H 0.93534 0.07523 0.04306 0.0
C1381 C 1.00488 0.14079 0.04224 0.0
C1382 C 1.00964 0.1092 0.03502 0.0
H1383 H 0.9735 0.17332 0.05336 0.0
H1384 H 1.02386 0.15968 0.04253 0.0
C1385 C 0.9835 0.08606 0.03575 0.0
C1386 C 0.47209 0.48516 0.06627 0.0
C1387 C 0.47422 0.45356 0.05326 0.0
H1388 H 0.49384 0.53385 0.07517 0.0
C1389 C 0.50164 0.44747 0.04003 0.0
H1390 H 0.4514 0.4909 0.07671 0.0
C1391 C 0.52571 0.47203 0.03889 0.0
C1392 C 0.52351 0.50369 0.05123 0.0
H1393 H 0.50438 0.42365 0.02973 0.0
H1394 H 0.54603 0.46602 0.02779 0.0
C1395 C 0.49648 0.50988 0.06544 0.0
C1396 C 0.40199 0.68159 0.79358 0.0
C1397 C 0.43431 0.68208 0.79573 0.0
H1398 H 0.36284 0.70569 0.79307 0.0
C1399 C 0.45035 0.71396 0.79914 0.0
H1400 H 0.38725 0.65899 0.79096 0.0
C1401 C 0.43575 0.74187 0.79987 0.0
C1402 C 0.40335 0.74131 0.79806 0.0
H1403 H 0.47493 0.71766 0.801 0.0
H1404 H 0.45044 0.76445 0.80211 0.0
C1405 C 0.38742 0.70947 0.79494 0.0
C1406 C 0.24856 0.61182 0.52111 0.0
C1407 C 0.26597 0.61856 0.55095 0.0
H1408 H 0.20452 0.59931 0.49549 0.0
C1409 C 0.2495 0.61558 0.57873 0.0
H1410 H 0.25972 0.61514 0.49924 0.0
C1411 C 0.21719 0.60663 0.57669 0.0
C1412 C 0.1998 0.60121 0.54685 0.0
H1413 H 0.26143 0.62204 0.60243 0.0
H1414 H 0.20574 0.60543 0.59881 0.0
C1415 C 0.21644 0.60333 0.51908 0.0
C1416 C 0.7898 1.00421 0.76216 0.0
C1417 C 0.80093 0.0328 0.75287 0.0
H1418 H 0.8005 0.96597 0.7826 0.0
C1419 C 0.83251 0.04317 0.75392 0.0
H1420 H 0.7656 0.99552 0.76135 0.0
C1421 C 0.85251 1.02615 0.76622 0.0
C1422 C 0.84097 0.99877 0.7775 0.0
H1423 H 0.84163 0.06523 0.74702 0.0
H1424 H 0.87673 0.03499 0.76822 0.0
C1425 C 0.80966 0.98741 0.77446 0.0
C1426 C 0.80987 0.98312 0.56704 0.0
C1427 C 0.80604 0.95016 0.55823 0.0
H1428 H 0.7911 1.02461 0.56498 0.0
C1429 C 0.77801 0.93342 0.54342 0.0
H1430 H 0.83113 0.99674 0.57858 0.0
C1431 C 0.75503 0.94947 0.5357 0.0
C1432 C 0.7598 0.98254 0.54237 0.0
H1433 H 0.77437 0.90802 0.53631 0.0
H1434 H 0.73421 0.93608 0.52289 0.0
C1435 C 0.78705 0.99914 0.55903 0.0
C1436 C 0.45069 0.46044 0.78801 0.0
C1437 C 0.4378 0.48833 0.78838 0.0
H1438 H 0.44554 0.41034 0.78698 0.0
C1439 C 0.40536 0.48237 0.78749 0.0
H1440 H 0.47514 0.46215 0.78862 0.0
C1441 C 0.38772 0.45114 0.78656 0.0
C1442 C 0.40109 0.4235 0.78633 0.0
H1443 H 0.39336 0.5019 0.78777 0.0
H1444 H 0.36321 0.44877 0.78616 0.0
C1445 C 0.43328 0.42965 0.78701 0.0
C1446 C 0.30079 0.68355 0.24394 0.0
C1447 C 0.27109 0.68146 0.23077 0.0
H1448 H 0.34252 0.71394 0.26218 0.0
C1449 C 0.26292 0.70719 0.21932 0.0
H1450 H 0.30756 0.66424 0.25343 0.0
C1451 C 0.2835 0.73552 0.22351 0.0
C1452 C 0.31191 0.73832 0.2399 0.0
H1453 H 0.24012 0.70603 0.20913 0.0
H1454 H 0.27614 0.75594 0.21692 0.0
C1455 C 0.32088 0.71193 0.24892 0.0
C1456 C 0.53423 0.74189 0.47591 0.0
C1457 C 0.54044 0.7746 0.48009 0.0
H1458 H 0.55074 0.70093 0.4846 0.0
C1459 C 0.56813 0.79169 0.49504 0.0
H1460 H 0.51273 0.72867 0.46458 0.0
C1461 C 0.58974 0.77621 0.50597 0.0
C1462 C 0.58372 0.74348 0.50223 0.0
H1463 H 0.57291 0.81713 0.49853 0.0
H1464 H 0.61105 0.78977 0.51749 0.0
C1465 C 0.55591 0.72627 0.4871 0.0
C1466 C 0.77624 0.37219 0.69871 0.0
C1467 C 0.74787 0.35278 0.69743 0.0
H1468 H 0.81817 0.39193 0.72635 0.0
C1469 C 0.73824 0.34177 0.72536 0.0
H1470 H 0.78377 0.38169 0.67783 0.0
C1471 C 0.75763 0.34776 0.7531 0.0
C1472 C 0.7871 0.36481 0.75345 0.0
H1473 H 0.71633 0.32692 0.7253 0.0
H1474 H 0.75028 0.33688 0.77325 0.0
C1475 C 0.79568 0.37834 0.72662 0.0
C1476 C 1.01262 0.43357 0.98389 0.0
C1477 C 1.03189 0.42132 0.96097 0.0
H1478 H 1.00757 0.47182 0.02224 0.0
C1479 C 0.05937 0.43973 0.95611 0.0
H1480 H 0.9914 0.4194 0.98802 0.0
C1481 C 0.06905 0.46864 0.9764 0.0
C1482 C 0.05099 0.47984 1.00109 0.0
H1483 H 0.07478 0.43052 0.93891 0.0
H1484 H 0.09123 0.48165 0.97355 0.0
C1485 C 1.02197 0.46312 1.00363 0.0
C1486 C 0.05512 0.77637 0.14972 0.0
C1487 C 0.08162 0.77182 0.1657 0.0
H1488 H 1.00775 0.77876 0.15259 0.0
C1489 C 0.07958 0.76158 0.19528 0.0
H1490 H 0.05603 0.78412 0.12677 0.0
C1491 C 0.05204 0.75852 0.20999 0.0
C1492 C 1.02607 0.7658 0.19545 0.0
H1493 H 0.09962 0.75762 0.20795 0.0
H1494 H 0.05168 0.75261 0.23382 0.0
C1495 C 1.02756 0.77353 0.16457 0.0
C1496 C 0.56083 0.34712 0.07203 0.0
C1497 C 0.56252 0.35521 0.10605 0.0
H1498 H 0.57299 0.3614 0.02756 0.0
C1499 C 0.57994 0.38396 0.12147 0.0
H1500 H 0.54771 0.32493 0.0595 0.0
C1501 C 0.59511 0.40441 0.10323 0.0
C1502 C 0.59271 0.39688 0.0691 0.0
H1503 H 0.58216 0.39054 0.14764 0.0
H1504 H 0.60854 0.42634 0.11595 0.0
C1505 C 0.57566 0.3678 0.05372 0.0
C1506 C 0.06459 0.40571 0.40961 0.0
C1507 C 0.08068 0.38081 0.40919 0.0
H1508 H 1.03126 0.42426 0.38503 0.0
C1509 C 0.07415 0.35435 0.3839 0.0
H1510 H 0.06937 0.42648 0.42866 0.0
C1511 C 0.05319 0.35345 0.35857 0.0
C1512 C 0.03793 0.37883 0.35812 0.0
H1513 H 0.08616 0.3347 0.38297 0.0
H1514 H 0.04967 0.33323 0.33887 0.0
C1515 C 0.0433 0.40468 0.38427 0.0
C1516 C 0.04065 0.68135 0.62551 0.0
C1517 C 1.02907 0.69491 0.60098 0.0
H1518 H 0.06607 0.64655 0.63652 0.0
C1519 C 1.03 0.68005 0.56847 0.0
H1520 H 0.04027 0.6921 0.65079 0.0
C1521 C 0.04569 0.65511 0.56054 0.0
C1522 C 0.05977 0.64365 0.58488 0.0
H1523 H 1.02099 0.68944 0.54889 0.0
H1524 H 0.04791 0.6456 0.53521 0.0
C1525 C 0.05576 0.65559 0.61744 0.0
C1526 C 0.75615 0.87018 0.87158 0.0
C1527 C 0.72933 0.84832 0.87118 0.0
H1528 H 0.79657 0.88311 0.84779 0.0
C1529 C 0.72172 0.82334 0.84459 0.0
H1530 H 0.76216 0.89013 0.89142 0.0
C1531 C 0.74128 0.81945 0.81955 0.0
C1532 C 0.76853 0.84081 0.82035 0.0
H1533 H 0.70089 0.8065 0.84341 0.0
H1534 H 0.7356 0.79913 0.80005 0.0
C1535 C 0.77546 0.86661 0.84622 0.0
C1536 C 0.54451 0.61064 0.68829 0.0
C1537 C 0.52424 0.58484 0.69629 0.0
H1538 H 0.57577 0.62927 0.65499 0.0
C1539 C 0.52227 0.55661 0.67247 0.0
H1540 H 0.54883 0.63268 0.7056 0.0
C1541 C 0.53831 0.55442 0.64302 0.0
C1542 C 0.55873 0.58005 0.63508 0.0
H1543 H 0.50867 0.53531 0.6771 0.0
H1544 H 0.53512 0.53187 0.62659 0.0
C1545 C 0.56086 0.60842 0.65884 0.0
C1546 C 0.81155 0.16583 0.96865 0.0
C1547 C 0.84195 0.16173 0.97088 0.0
H1548 H 0.77952 0.18974 0.9489 0.0
C1549 C 0.86229 0.17342 0.94961 0.0
H1550 H 0.79549 0.15685 0.9847 0.0
C1551 C 0.85308 0.19193 0.92878 0.0
C1552 C 0.82359 0.19916 0.92948 0.0
H1553 H 0.886 0.17101 0.95145 0.0
H1554 H 0.86982 0.20311 0.9146 0.0
C1555 C 0.80243 0.18462 0.94822 0.0
C1556 C 0.18647 0.54948 0.15211 0.0
C1557 C 0.17207 0.54934 0.18118 0.0
H1558 H 0.18097 0.55034 0.10179 0.0
C1559 C 0.14018 0.54169 0.18018 0.0
H1560 H 0.21101 0.55507 0.15211 0.0
C1561 C 0.12289 0.53949 0.15146 0.0
C1562 C 0.13738 0.54479 0.12347 0.0
H1563 H 0.12858 0.5409 0.2023 0.0
H1564 H 0.09838 0.53653 0.152 0.0
C1565 C 0.1692 0.54733 0.12339 0.0
C1566 C 0.88558 0.84937 0.44867 0.0
C1567 C 0.87636 0.87798 0.46222 0.0
H1568 H 0.88834 0.81503 0.40525 0.0
C1569 C 0.86187 0.89333 0.44126 0.0
H1570 H 0.89679 0.83686 0.46399 0.0
C1571 C 0.85633 0.88054 0.40814 0.0
C1572 C 0.8657 0.8522 0.39432 0.0
H1573 H 0.85424 0.91528 0.45052 0.0
H1574 H 0.84501 0.89331 0.39318 0.0
C1575 C 0.88073 0.83687 0.415 0.0
C1576 C 0.54555 0.57778 0.87827 0.0
C1577 C 0.51793 0.5903 0.87877 0.0
H1578 H 0.58235 0.56373 0.90426 0.0
C1579 C 0.50792 0.59836 0.9106 0.0
H1580 H 0.55495 0.57099 0.85514 0.0
C1581 C 0.52427 0.59457 0.93945 0.0
C1582 C 0.55179 0.58187 0.93901 0.0
H1583 H 0.48723 0.60812 0.91348 0.0
H1584 H 0.51494 0.60165 0.96254 0.0
C1585 C 0.56166 0.57349 0.90711 0.0
C1586 C 0.84813 0.21475 0.16282 0.0
C1587 C 0.8678 0.22348 0.13938 0.0
H1588 H 0.82722 0.22951 0.2071 0.0
C1589 C 0.88298 0.25494 0.1446 0.0
H1590 H 0.83506 0.19116 0.15901 0.0
C1591 C 0.87793 0.27722 0.17166 0.0
C1592 C 0.85714 0.26896 0.19434 0.0
H1593 H 0.89744 0.26283 0.12651 0.0
H1594 H 0.88982 0.30119 0.17431 0.0
C1595 C 0.84295 0.23711 0.18994 0.0
C1596 C 0.21482 0.66208 0.33106 0.0
C1597 C 0.2334 0.63947 0.33196 0.0
H1598 H 0.18346 0.68822 0.35604 0.0
C1599 C 0.23916 0.62996 0.3611 0.0
H1600 H 0.2104 0.66989 0.30874 0.0
C1601 C 0.22287 0.63942 0.38784 0.0
C1602 C 0.20107 0.65892 0.3857 0.0
H1603 H 0.25336 0.61233 0.36206 0.0
H1604 H 0.22503 0.62864 0.4087 0.0
C1605 C 0.1992 0.67227 0.35803 0.0
C1606 C 0.86715 0.88724 0.66143 0.0
C1607 C 0.87109 0.86419 0.6344 0.0
H1608 H 0.8577 0.89731 0.71191 0.0
C1609 C 0.86618 0.83252 0.63806 0.0
H1610 H 0.87078 0.91185 0.65972 0.0
C1611 C 0.85759 0.82413 0.66759 0.0
C1612 C 0.8545 0.84716 0.69482 0.0
H1613 H 0.86893 0.81403 0.61796 0.0
H1614 H 0.85445 0.79955 0.66944 0.0
C1615 C 0.85958 0.8789 0.69138 0.0
C1616 C 0.74885 0.55879 0.53577 0.0
C1617 C 0.75224 0.52748 0.52273 0.0
H1618 H 0.71863 0.59137 0.55284 0.0
C1619 C 0.72507 0.50491 0.51794 0.0
H1620 H 0.7687 0.57716 0.54013 0.0
C1621 C 0.69617 0.51307 0.52527 0.0
C1622 C 0.69261 0.54425 0.53828 0.0
H1623 H 0.72598 0.4805 0.50808 0.0
H1624 H 0.67638 0.49471 0.52033 0.0
C1625 C 0.7198 0.56694 0.54341 0.0
C1626 C 0.19408 0.19618 0.51711 0.0
C1627 C 0.22288 0.18963 0.50868 0.0
H1628 H 0.14866 0.17811 0.52675 0.0
C1629 C 0.22649 0.1578 0.50097 0.0
H1630 H 0.19031 0.22027 0.52339 0.0
C1631 C 0.20211 0.13331 0.50217 0.0
C1632 C 0.17362 0.14002 0.51174 0.0
H1633 H 0.24831 0.15179 0.49431 0.0
H1634 H 0.20587 0.1092 0.49661 0.0
C1635 C 0.17003 0.17184 0.51896 0.0
C1636 C 0.30136 0.9691 0.774 0.0
C1637 C 0.26974 0.96912 0.77989 0.0
H1638 H 0.34076 0.9451 0.76845 0.0
C1639 C 0.25544 0.93847 0.78443 0.0
H1640 H 0.31484 0.99084 0.77036 0.0
C1641 C 0.27093 0.91117 0.78333 0.0
C1642 C 0.30256 0.91116 0.77739 0.0
H1643 H 0.23161 0.93532 0.78926 0.0
H1644 H 0.25758 0.88955 0.78747 0.0
C1645 C 0.31681 0.94179 0.77281 0.0
C1646 C 0.44811 1.0276 0.03711 0.0
C1647 C 0.43121 1.02434 1.00741 0.0
H1648 H 0.49165 0.03832 0.06361 0.0
C1649 C 0.44787 0.03141 0.98094 0.0
H1650 H 0.43662 1.02135 0.05785 0.0
C1651 C 0.48008 0.04113 0.98417 0.0
C1652 C 0.497 0.04328 1.01378 0.0
H1653 H 0.43623 1.02794 0.95727 0.0
H1654 H 0.49185 0.04578 0.96304 0.0
C1655 C 0.48008 0.03686 0.04026 0.0
C1656 C 0.91581 0.62615 0.78485 0.0
C1657 C 0.90453 0.59954 0.79763 0.0
H1658 H 0.90521 0.66168 0.76007 0.0
C1659 C 0.87329 0.5872 0.79346 0.0
H1660 H 0.93981 0.63606 0.78754 0.0
C1661 C 0.85353 0.6018 0.77763 0.0
C1662 C 0.86477 0.62873 0.76542 0.0
H1663 H 0.86401 0.56652 0.80281 0.0
H1664 H 0.82943 0.59236 0.77532 0.0
C1665 C 0.8961 0.64057 0.76879 0.0
C1666 C 0.90238 0.67406 0.01907 0.0
C1667 C 0.89312 0.70009 0.03823 0.0
H1668 H 0.93188 0.6399 1.01584 0.0
C1669 C 0.90699 0.71226 0.06938 0.0
H1670 H 0.89154 0.66412 0.99518 0.0
C1671 C 0.92939 0.6979 0.08159 0.0
C1672 C 0.93854 0.67167 0.06245 0.0
H1673 H 0.89966 0.73205 0.08466 0.0
H1674 H 0.9394 0.70708 0.10596 0.0
C1675 C 0.92525 0.66023 0.03091 0.0
C1676 C 0.25064 0.19091 0.80313 0.0
C1677 C 0.26314 0.16248 0.79883 0.0
H1678 H 0.25586 0.2412 0.80544 0.0
C1679 C 0.2948 0.1674 0.79353 0.0
H1680 H 0.22675 0.1899 0.80726 0.0
C1681 C 0.31217 0.19831 0.79266 0.0
C1682 C 0.29917 0.2265 0.79679 0.0
H1683 H 0.30638 0.14734 0.78988 0.0
H1684 H 0.33609 0.19997 0.7884 0.0
C1685 C 0.26773 0.22134 0.80207 0.0
C1686 C 0.45655 0.94717 0.3482 0.0
C1687 C 0.44463 0.96937 0.37032 0.0
H1688 H 0.44745 0.90334 0.31471 0.0
C1689 C 0.41449 0.9622 0.37882 0.0
H1690 H 0.47944 0.95253 0.34057 0.0
C1691 C 0.39622 0.93353 0.36448 0.0
C1692 C 0.40757 0.91244 0.34049 0.0
H1693 H 0.40472 0.97934 0.39538 0.0
H1694 H 0.3728 0.92876 0.37066 0.0
C1695 C 0.43806 0.91923 0.33303 0.0
C1696 C 0.66706 0.37446 0.5668 0.0
C1697 C 0.65987 0.37995 0.59947 0.0
H1698 H 0.65666 0.38153 0.51886 0.0
C1699 C 0.6408 0.40165 0.60996 0.0
H1700 H 0.68207 0.3581 0.55817 0.0
C1701 C 0.6261 0.4145 0.58747 0.0
C1702 C 0.63061 0.40613 0.55435 0.0
H1703 H 0.63518 0.40667 0.63503 0.0
H1704 H 0.60998 0.42975 0.59572 0.0
C1705 C 0.65245 0.38756 0.54427 0.0
C1706 C 0.45565 0.85345 0.36989 0.0
C1707 C 0.4451 0.84337 0.39789 0.0
H1708 H 0.45008 0.84735 0.31852 0.0
C1709 C 0.41854 0.82113 0.39585 0.0
H1710 H 0.47638 0.87046 0.37106 0.0
C1711 C 0.40398 0.80732 0.36576 0.0
C1712 C 0.41535 0.81613 0.33747 0.0
H1713 H 0.41049 0.81247 0.41707 0.0
H1714 H 0.38431 0.78911 0.36462 0.0
C1715 C 0.441 0.83976 0.33983 0.0
C1716 C 0.17105 0.70317 0.05304 0.0
C1717 C 0.15696 0.72332 0.07521 0.0
H1718 H 0.16893 0.65578 0.02726 0.0
C1719 C 0.12778 0.71287 0.08452 0.0
H1720 H 0.19336 0.71113 0.04523 0.0
C1721 C 0.11397 0.68189 0.07438 0.0
C1722 C 0.12914 0.66086 0.05475 0.0
H1723 H 0.116 0.7284 0.10067 0.0
H1724 H 0.09194 0.67412 0.08297 0.0
C1725 C 0.1571 0.67179 0.04281 0.0
C1726 C 0.13873 0.35492 0.92681 0.0
C1727 C 0.11461 0.33009 0.9152 0.0
H1728 H 0.18322 0.37801 0.91896 0.0
C1729 C 0.11849 0.30713 0.88828 0.0
H1730 H 0.13634 0.37301 0.94745 0.0
C1731 C 0.14529 0.30995 0.87209 0.0
C1732 C 0.16857 0.33595 0.88233 0.0
H1733 H 0.10027 0.28773 0.8788 0.0
H1734 H 0.14708 0.29273 0.85048 0.0
C1735 C 0.16542 0.35794 0.91037 0.0
C1736 C 0.65674 0.80815 0.02911 0.0
C1737 C 0.65354 0.80865 0.99596 0.0
H1738 H 0.64531 0.78299 0.06702 0.0
C1739 C 0.63679 0.78239 0.97502 0.0
H1740 H 0.66938 0.82829 0.0458 0.0
C1741 C 0.62157 0.75711 0.98731 0.0
C1742 C 0.62344 0.75708 0.0208 0.0
H1743 H 0.63328 0.78252 0.94948 0.0
H1744 H 0.6071 0.73845 0.97055 0.0
C1745 C 0.64228 0.78246 0.04132 0.0
C1746 C 0.12795 0.75299 0.67078 0.0
C1747 C 0.12983 0.77916 0.65585 0.0
H1748 H 0.14892 0.73058 0.70419 0.0
C1749 C 0.15533 0.803 0.6625 0.0
H1750 H 0.10807 0.73459 0.66613 0.0
C1751 C 0.1784 0.80112 0.68484 0.0
C1752 C 0.1762 0.77531 0.70065 0.0
H1753 H 0.15665 0.82371 0.65177 0.0
H1754 H 0.19733 0.82048 0.69067 0.0
C1755 C 0.15103 0.75096 0.69286 0.0
C1756 C 0.18029 0.47554 0.47617 0.0
C1757 C 0.16851 0.45658 0.4466 0.0
H1758 H 0.17587 0.5144 0.51319 0.0
C1759 C 0.14496 0.46511 0.42902 0.0
H1760 H 0.19852 0.46943 0.48999 0.0
C1761 C 0.13132 0.49072 0.44268 0.0
C1762 C 0.14142 0.5078 0.47379 0.0
H1763 H 0.13538 0.45046 0.40621 0.0
H1764 H 0.11165 0.49557 0.43012 0.0
C1765 C 0.16708 0.50107 0.48949 0.0
C1766 C 0.44942 0.27474 0.1997 0.0
C1767 C 0.47818 0.29093 0.21202 0.0
H1768 H 0.40319 0.26172 0.20841 0.0
C1769 C 0.48267 0.30528 0.245 0.0
H1770 H 0.44546 0.26315 0.17449 0.0
C1771 C 0.45795 0.30516 0.26484 0.0
C1772 C 0.4288 0.28979 0.25203 0.0
H1773 H 0.50488 0.31779 0.25499 0.0
H1774 H 0.46144 0.31781 0.28969 0.0
C1775 C 0.42519 0.27374 0.21949 0.0
C1776 C 0.67601 0.53762 0.39594 0.0
C1777 C 0.68404 0.56279 0.37896 0.0
H1778 H 0.65328 0.5194 0.43529 0.0
C1779 C 0.67293 0.59065 0.39333 0.0
H1780 H 0.68315 0.51539 0.38685 0.0
C1781 C 0.65594 0.59331 0.42241 0.0
C1782 C 0.64748 0.56793 0.43909 0.0
H1783 H 0.6777 0.61106 0.38216 0.0
H1784 H 0.64904 0.61562 0.43166 0.0
C1785 C 0.65825 0.53996 0.42438 0.0
C1786 C 0.37867 0.97528 0.09679 0.0
C1787 C 0.3477 0.97736 0.09409 0.0
H1788 H 0.41239 0.95561 0.11898 0.0
C1789 C 0.32896 0.96992 0.11846 0.0
H1790 H 0.39338 0.98062 0.07784 0.0
C1791 C 0.34008 0.95624 0.14276 0.0
C1792 C 0.36959 0.94877 0.14193 0.0
H1793 H 0.30501 0.9713 0.11669 0.0
H1794 H 0.32454 0.94839 0.15998 0.0
C1795 C 0.38953 0.96075 0.12036 0.0
C1796 C 0.99732 0.59275 0.94063 0.0
C1797 C 1.0087 0.58786 0.90978 0.0
H1798 H 1.00593 0.59419 0.99117 0.0
C1799 C 0.03914 0.5839 0.90673 0.0
H1800 H 0.97398 0.59598 0.94365 0.0
C1801 C 0.05717 0.58228 0.93364 0.0
C1802 C 0.04531 0.58527 0.96421 0.0
H1803 H 0.04872 0.58058 0.88328 0.0
H1804 H 0.08015 0.57791 0.93036 0.0
C1805 C 1.0156 0.59164 0.96774 0.0
C1806 C 0.30683 0.30926 0.63433 0.0
C1807 C 0.32012 0.28577 0.61511 0.0
H1808 H 0.30282 0.33611 0.68172 0.0
C1809 C 0.34126 0.27202 0.63082 0.0
H1810 H 0.29051 0.32056 0.62343 0.0
C1811 C 0.34867 0.2813 0.66449 0.0
C1812 C 0.33496 0.30443 0.68376 0.0
H1813 H 0.35221 0.254 0.61709 0.0
H1814 H 0.36482 0.26988 0.67549 0.0
C1815 C 0.31396 0.31827 0.66799 0.0
C1816 C 0.6807 0.54201 0.1662 0.0
C1817 C 0.67529 0.56179 0.19578 0.0
H1818 H 0.67176 0.52753 0.11359 0.0
C1819 C 0.65502 0.58294 0.19072 0.0
H1820 H 0.69555 0.52502 0.16714 0.0
C1821 C 0.64112 0.58423 0.15997 0.0
C1822 C 0.64605 0.56468 0.13057 0.0
H1823 H 0.64932 0.59938 0.21119 0.0
H1824 H 0.62616 0.60121 0.15945 0.0
C1825 C 0.66661 0.54348 0.13477 0.0
C1826 C 0.3331 0.90514 0.93404 0.0
C1827 C 0.33253 0.93606 0.92914 0.0
H1828 H 0.3388 0.85779 0.91325 0.0
C1829 C 0.33712 0.94226 0.89808 0.0
H1830 H 0.3295 0.89942 0.95771 0.0
C1831 C 0.3429 0.91853 0.87287 0.0
C1832 C 0.34382 0.88764 0.87772 0.0
H1833 H 0.33679 0.9656 0.89333 0.0
H1834 H 0.34659 0.92452 0.84933 0.0
C1835 C 0.33836 0.88114 0.90859 0.0
C1836 C 0.97691 0.52303 0.72452 0.0
C1837 C 0.9823 0.50531 0.74778 0.0
H1838 H 0.98633 0.53159 0.6775 0.0
C1839 C 0.99254 0.47664 0.73841 0.0
H1840 H 0.96864 0.54506 0.73131 0.0
C1841 C 1.00191 0.46831 0.70726 0.0
C1842 C 1.00211 0.48922 0.68577 0.0
H1843 H 0.99603 0.46226 0.75602 0.0
H1844 H 1.01238 0.44756 0.70142 0.0
C1845 C 0.98694 0.5151 0.69355 0.0
C1846 C 0.32697 0.29083 0.43256 0.0
C1847 C 0.32127 0.25869 0.4341 0.0
H1848 H 0.33839 0.32568 0.40331 0.0
C1849 C 0.32243 0.23678 0.40512 0.0
H1850 H 0.3265 0.30848 0.45418 0.0
C1851 C 0.32938 0.24661 0.37577 0.0
C1852 C 0.33567 0.27877 0.3743 0.0
H1853 H 0.31819 0.21179 0.40513 0.0
H1854 H 0.32992 0.2289 0.35422 0.0
C1855 C 0.33411 0.30068 0.40323 0.0
C1856 C 0.47821 0.64491 0.54621 0.0
C1857 C 0.45156 0.62266 0.54766 0.0
H1858 H 0.52661 0.65436 0.54002 0.0
C1859 C 0.45569 0.59083 0.54223 0.0
H1860 H 0.47673 0.66967 0.54995 0.0
C1861 C 0.48465 0.58187 0.53565 0.0
C1862 C 0.51137 0.60417 0.53448 0.0
H1863 H 0.43633 0.57256 0.5427 0.0
H1864 H 0.48614 0.55711 0.53197 0.0
C1865 C 0.50724 0.63601 0.5402 0.0
C1866 C 0.97129 0.98515 0.56665 0.0
C1867 C 0.97268 0.95373 0.55214 0.0
H1868 H 0.99365 0.03364 0.57659 0.0
C1869 C 0.99936 0.94765 0.53723 0.0
H1870 H 0.95117 0.99083 0.57845 0.0
C1871 C 1.0234 0.97213 0.53587 0.0
C1872 C 1.02191 1.00364 0.54971 0.0
H1873 H 1.00147 0.92395 0.52573 0.0
H1874 H 0.04314 0.96619 0.52347 0.0
C1875 C 0.99568 1.00977 0.56564 0.0
C1876 C 0.95111 0.21402 0.29671 0.0
C1877 C 0.93504 0.18224 0.29395 0.0
H1878 H 0.95121 0.26445 0.29922 0.0
C1879 C 0.90272 0.18183 0.2926 0.0
H1880 H 0.97569 0.21762 0.29794 0.0
C1881 C 0.8882 0.20974 0.29417 0.0
C1882 C 0.90415 0.24146 0.29657 0.0
H1883 H 0.88798 0.1593 0.29052 0.0
H1884 H 0.86361 0.20606 0.29297 0.0
C1885 C 0.93652 0.24194 0.29753 0.0
C1886 C 0.74737 0.11152 0.07716 0.0
C1887 C 0.76286 0.11582 0.04908 0.0
H1888 H 0.70427 0.09993 0.09818 0.0
C1889 C 0.7446 0.10972 0.0198 0.0
H1890 H 0.75994 0.11727 0.1005 0.0
C1891 C 0.71259 0.10108 0.01862 0.0
C1892 C 0.69687 0.0978 0.04668 0.0
H1893 H 0.75502 0.11368 0.99772 0.0
H1894 H 0.70001 0.09763 0.99548 0.0
C1895 C 0.71509 0.10215 0.07589 0.0
C1896 C 0.2803 0.50906 0.28778 0.0
C1897 C 0.28868 0.52716 0.2643 0.0
H1898 H 0.29387 0.4791 0.31806 0.0
C1899 C 0.31784 0.52802 0.25253 0.0
H1900 H 0.25806 0.50806 0.29746 0.0
C1901 C 0.33852 0.51177 0.26469 0.0
C1902 C 0.33042 0.49448 0.28891 0.0
H1903 H 0.32506 0.54204 0.23466 0.0
H1904 H 0.36103 0.51324 0.25564 0.0
C1905 C 0.30099 0.49293 0.3 0.0
C1906 C 0.27839 0.42893 0.04504 0.0
C1907 C 0.30654 0.44677 0.05823 0.0
H1908 H 0.23358 0.42956 0.02572 0.0
C1909 C 0.30974 0.47975 0.0654 0.0
H1910 H 0.27523 0.40348 0.03924 0.0
C1911 C 0.28606 0.49462 0.05732 0.0
C1912 C 0.25859 0.47682 0.04227 0.0
H1913 H 0.33111 0.49419 0.07562 0.0
H1914 H 0.28956 0.52009 0.06193 0.0
C1915 C 0.25455 0.44384 0.03728 0.0
C1916 C 0.95193 0.96068 0.28698 0.0
C1917 C 0.93887 0.98839 0.28667 0.0
H1918 H 0.94708 0.91072 0.28683 0.0
C1919 C 0.90641 0.98217 0.28553 0.0
H1920 H 0.9764 0.96259 0.28785 0.0
C1921 C 0.88894 0.95091 0.28499 0.0
C1922 C 0.90247 0.92345 0.28542 0.0
H1923 H 0.89426 1.0015 0.2853 0.0
H1924 H 0.86442 0.94837 0.28434 0.0
C1925 C 0.93468 0.92986 0.28636 0.0
C1926 C 0.78302 0.18997 0.72447 0.0
C1927 C 0.75327 0.1857 0.73489 0.0
H1928 H 0.82448 0.22226 0.72419 0.0
C1929 C 0.74087 0.21222 0.74847 0.0
H1930 H 0.79304 0.16999 0.71354 0.0
C1931 C 0.7589 0.24195 0.75471 0.0
C1932 C 0.7895 0.24576 0.74714 0.0
H1933 H 0.718 0.20982 0.75661 0.0
H1934 H 0.7494 0.26169 0.76727 0.0
C1935 C 0.80098 0.21988 0.73039 0.0
loop_
_geom_bond_atom_site_label_1
_geom_bond_atom_site_label_2
_geom_bond_distance
_geom_bond_site_symmetry_2
_ccdc_geom_bond_type
Co0 O1 2.216 . S
Co0 O2 2.091 . S
Co0 O4 2.004 . S
Co0 O10 2.021 . S
Co0 O12 2.137 . S
Co0 O13 2.244 . S
O1 Co0 2.216 . S
O1 C8 1.247 . S
O2 Co0 2.091 . S
O2 C8 1.261 . S
C3 O12 1.247 . S
C3 O13 1.272 . S
O4 Co0 2.004 . S
O4 C9 1.259 . S
Co5 O6 2.061 . S
Co5 O11 2.052 . S
Co5 O13 2.135 . S
O6 Co5 2.061 . S
O6 C9 1.235 . S
C7 O10 1.238 . S
C7 O11 1.241 . S
C8 O1 1.247 . S
C8 O2 1.261 . S
C9 O4 1.259 . S
C9 O6 1.235 . S
O10 Co0 2.021 . S
O10 C7 1.238 . S
O11 Co5 2.052 . S
O11 C7 1.241 . S
O12 Co0 2.137 . S
O12 C3 1.247 . S
O13 Co0 2.244 . S
O13 C3 1.272 . S
O13 Co5 2.135 . S
Co14 O15 2.216 . S
Co14 O16 2.091 . S
Co14 O18 2.004 1_655 S
Co14 O24 2.021 . S
Co14 O26 2.137 . S
Co14 O27 2.244 1_655 S
O15 Co14 2.216 . S
O15 C22 1.247 . S
O16 Co14 2.091 . S
O16 C22 1.261 . S
C17 O26 1.247 1_455 S
C17 O27 1.272 . S
O18 Co14 2.004 1_455 S
O18 C23 1.259 . S
Co19 O20 2.061 . S
Co19 O25 2.052 . S
Co19 O27 2.135 . S
O20 Co19 2.061 . S
O20 C23 1.235 . S
C21 O24 1.238 . S
C21 O25 1.241 1_655 S
C22 O15 1.247 . S
C22 O16 1.261 . S
C23 O18 1.259 . S
C23 O20 1.235 . S
O24 Co14 2.021 . S
O24 C21 1.238 . S
O25 Co19 2.052 . S
O25 C21 1.241 1_455 S
O26 Co14 2.137 . S
O26 C17 1.247 1_655 S
O27 Co14 2.244 1_455 S
O27 C17 1.272 . S
O27 Co19 2.135 . S
Co28 O29 2.216 . S
Co28 O30 2.091 . S
Co28 O32 2.004 . S
Co28 O38 2.021 . S
Co28 O40 2.137 . S
Co28 O41 2.244 . S
O29 Co28 2.216 . S
O29 C36 1.247 . S
O30 Co28 2.091 . S
O30 C36 1.261 . S
C31 O40 1.247 . S
C31 O41 1.272 . S
O32 Co28 2.004 . S
O32 C37 1.259 . S
Co33 O34 2.061 . S
Co33 O39 2.052 . S
Co33 O41 2.135 . S
O34 Co33 2.061 . S
O34 C37 1.235 . S
C35 O38 1.238 . S
C35 O39 1.241 . S
C36 O29 1.247 . S
C36 O30 1.261 . S
C37 O32 1.259 . S
C37 O34 1.235 . S
O38 Co28 2.021 . S
O38 C35 1.238 . S
O39 Co33 2.052 . S
O39 C35 1.241 . S
O40 Co28 2.137 . S
O40 C31 1.247 . S
O41 Co28 2.244 . S
O41 C31 1.272 . S
O41 Co33 2.135 . S
Co42 O43 2.216 . S
Co42 O44 2.091 . S
Co42 O46 2.004 . S
Co42 O52 2.021 . S
Co42 O54 2.137 . S
Co42 O55 2.244 . S
O43 Co42 2.216 . S
O43 C50 1.247 . S
O44 Co42 2.091 . S
O44 C50 1.261 . S
C45 O54 1.247 . S
C45 O55 1.272 . S
O46 Co42 2.004 . S
O46 C51 1.259 . S
Co47 O48 2.061 . S
Co47 O53 2.052 . S
Co47 O55 2.135 . S
O48 Co47 2.061 . S
O48 C51 1.235 . S
C49 O52 1.238 . S
C49 O53 1.241 . S
C50 O43 1.247 . S
C50 O44 1.261 . S
C51 O46 1.259 . S
C51 O48 1.235 . S
O52 Co42 2.021 . S
O52 C49 1.238 . S
O53 Co47 2.052 . S
O53 C49 1.241 . S
O54 Co42 2.137 . S
O54 C45 1.247 . S
O55 Co42 2.244 . S
O55 C45 1.272 . S
O55 Co47 2.135 . S
Co56 O57 2.216 . S
Co56 O58 2.091 . S
Co56 O60 2.004 . S
Co56 O66 2.021 . S
Co56 O68 2.137 . S
Co56 O69 2.244 . S
O57 Co56 2.216 . S
O57 C64 1.247 . S
O58 Co56 2.091 . S
O58 C64 1.261 . S
C59 O68 1.247 . S
C59 O69 1.272 . S
O60 Co56 2.004 . S
O60 C65 1.259 . S
Co61 O62 2.061 . S
Co61 O67 2.052 . S
Co61 O69 2.135 . S
O62 Co61 2.061 . S
O62 C65 1.235 . S
C63 O66 1.238 . S
C63 O67 1.241 . S
C64 O57 1.247 . S
C64 O58 1.261 . S
C65 O60 1.259 . S
C65 O62 1.235 . S
O66 Co56 2.021 . S
O66 C63 1.238 . S
O67 Co61 2.052 . S
O67 C63 1.241 . S
O68 Co56 2.137 . S
O68 C59 1.247 . S
O69 Co56 2.244 . S
O69 C59 1.272 . S
O69 Co61 2.135 . S
Co70 O71 2.216 . S
Co70 O72 2.091 . S
Co70 O74 2.004 . S
Co70 O80 2.021 . S
Co70 O82 2.137 . S
Co70 O83 2.244 . S
O71 Co70 2.216 . S
O71 C78 1.247 . S
O72 Co70 2.091 . S
O72 C78 1.261 . S
C73 O82 1.247 . S
C73 O83 1.272 . S
O74 Co70 2.004 . S
O74 C79 1.259 . S
Co75 O76 2.061 . S
Co75 O81 2.052 . S
Co75 O83 2.135 . S
O76 Co75 2.061 . S
O76 C79 1.235 . S
C77 O80 1.238 . S
C77 O81 1.241 . S
C78 O71 1.247 . S
C78 O72 1.261 . S
C79 O74 1.259 . S
C79 O76 1.235 . S
O80 Co70 2.021 . S
O80 C77 1.238 . S
O81 Co75 2.052 . S
O81 C77 1.241 . S
O82 Co70 2.137 . S
O82 C73 1.247 . S
O83 Co70 2.244 . S
O83 C73 1.272 . S
O83 Co75 2.135 . S
Co84 O85 2.216 . S
Co84 O86 2.091 . S
Co84 O88 2.004 . S
Co84 O94 2.021 . S
Co84 O96 2.137 . S
Co84 O97 2.244 . S
O85 Co84 2.216 . S
O85 C92 1.247 . S
O86 Co84 2.091 . S
O86 C92 1.261 . S
C87 O96 1.247 . S
C87 O97 1.272 . S
O88 Co84 2.004 . S
O88 C93 1.259 . S
Co89 O90 2.061 . S
Co89 O95 2.052 . S
Co89 O97 2.135 . S
O90 Co89 2.061 . S
O90 C93 1.235 . S
C91 O94 1.238 . S
C91 O95 1.241 . S
C92 O85 1.247 . S
C92 O86 1.261 . S
C93 O88 1.259 . S
C93 O90 1.235 . S
O94 Co84 2.021 . S
O94 C91 1.238 . S
O95 Co89 2.052 . S
O95 C91 1.241 . S
O96 Co84 2.137 . S
O96 C87 1.247 . S
O97 Co84 2.244 . S
O97 C87 1.272 . S
O97 Co89 2.135 . S
Co98 O99 2.216 . S
Co98 O100 2.091 . S
Co98 O102 2.004 1_455 S
Co98 O108 2.021 . S
Co98 O110 2.137 . S
Co98 O111 2.244 . S
O99 Co98 2.216 . S
O99 C106 1.247 . S
O100 Co98 2.091 . S
O100 C106 1.261 . S
C101 O110 1.247 . S
C101 O111 1.272 . S
O102 Co98 2.004 1_655 S
O102 C107 1.259 . S
Co103 O104 2.061 . S
Co103 O109 2.052 1_655 S
Co103 O111 2.135 1_655 S
O104 Co103 2.061 . S
O104 C107 1.235 . S
C105 O108 1.238 . S
C105 O109 1.241 . S
C106 O99 1.247 . S
C106 O100 1.261 . S
C107 O102 1.259 . S
C107 O104 1.235 . S
O108 Co98 2.021 . S
O108 C105 1.238 . S
O109 Co103 2.052 1_455 S
O109 C105 1.241 . S
O110 Co98 2.137 . S
O110 C101 1.247 . S
O111 Co98 2.244 . S
O111 C101 1.272 . S
O111 Co103 2.135 1_455 S
Co112 O113 2.216 . S
Co112 O114 2.091 . S
Co112 O116 2.004 1_545 S
Co112 O122 2.021 1_545 S
Co112 O124 2.137 . S
Co112 O125 2.242 . S
O113 Co112 2.216 . S
O113 C120 1.247 . S
O114 Co112 2.091 . S
O114 C120 1.261 . S
C115 O124 1.247 . S
C115 O125 1.271 . S
O116 Co112 2.004 1_565 S
O116 C121 1.259 . S
Co117 O118 2.061 . S
Co117 O123 2.052 . S
Co117 O125 2.138 1_565 S
O118 Co117 2.061 . S
O118 C121 1.235 . S
C119 O122 1.238 . S
C119 O123 1.241 . S
C120 O113 1.247 . S
C120 O114 1.261 . S
C121 O116 1.259 . S
C121 O118 1.235 . S
O122 Co112 2.021 1_565 S
O122 C119 1.238 . S
O123 Co117 2.052 . S
O123 C119 1.241 . S
O124 Co112 2.137 . S
O124 C115 1.247 . S
O125 Co112 2.242 . S
O125 C115 1.271 . S
O125 Co117 2.138 1_545 S
Co126 O127 2.216 . S
Co126 O128 2.091 . S
Co126 O130 2.004 . S
Co126 O136 2.021 . S
Co126 O138 2.137 . S
Co126 O139 2.244 . S
O127 Co126 2.216 . S
O127 C134 1.247 . S
O128 Co126 2.091 . S
O128 C134 1.261 . S
C129 O138 1.247 . S
C129 O139 1.272 . S
O130 Co126 2.004 . S
O130 C135 1.259 . S
Co131 O132 2.061 . S
Co131 O137 2.052 . S
Co131 O139 2.135 . S
O132 Co131 2.061 . S
O132 C135 1.235 . S
C133 O136 1.238 . S
C133 O137 1.241 . S
C134 O127 1.247 . S
C134 O128 1.261 . S
C135 O130 1.259 . S
C135 O132 1.235 . S
O136 Co126 2.021 . S
O136 C133 1.238 . S
O137 Co131 2.052 . S
O137 C133 1.241 . S
O138 Co126 2.137 . S
O138 C129 1.247 . S
O139 Co126 2.244 . S
O139 C129 1.272 . S
O139 Co131 2.135 . S
Co140 O141 2.216 1_545 S
Co140 O142 2.091 1_545 S
Co140 O144 2.004 . S
Co140 O150 2.021 . S
Co140 O152 2.137 . S
Co140 O153 2.244 . S
O141 Co140 2.216 1_565 S
O141 C148 1.247 . S
O142 Co140 2.091 1_565 S
O142 C148 1.261 . S
C143 O152 1.247 . S
C143 O153 1.272 . S
O144 Co140 2.004 . S
O144 C149 1.259 . S
Co145 O146 2.061 . S
Co145 O151 2.052 . S
Co145 O153 2.135 . S
O146 Co145 2.061 . S
O146 C149 1.235 . S
C147 O150 1.238 . S
C147 O151 1.241 . S
C148 O141 1.247 . S
C148 O142 1.261 . S
C149 O144 1.259 . S
C149 O146 1.235 . S
O150 Co140 2.021 . S
O150 C147 1.238 . S
O151 Co145 2.052 . S
O151 C147 1.241 . S
O152 Co140 2.137 . S
O152 C143 1.247 . S
O153 Co140 2.244 . S
O153 C143 1.272 . S
O153 Co145 2.135 . S
Co154 O155 2.214 . S
Co154 O156 2.082 1_566 S
Co154 O158 2.007 1_556 S
Co154 O164 1.996 1_556 S
Co154 O166 2.162 . S
Co154 O167 2.253 . S
O155 Co154 2.214 . S
O155 C162 1.247 1_556 S
O156 Co154 2.082 1_544 S
O156 C162 1.257 1_545 S
C157 O166 1.247 . S
C157 O167 1.272 . S
O158 Co154 2.007 1_554 S
O158 C163 1.259 . S
Co159 O160 2.061 1_556 S
Co159 O165 2.052 1_556 S
Co159 O167 2.135 . S
O160 Co159 2.061 1_554 S
O160 C163 1.235 . S
C161 O164 1.238 . S
C161 O165 1.241 . S
C162 O155 1.247 1_554 S
C162 O156 1.257 1_565 S
C163 O158 1.259 . S
C163 O160 1.235 . S
O164 Co154 1.996 1_554 S
O164 C161 1.238 . S
O165 Co159 2.052 1_554 S
O165 C161 1.241 . S
O166 Co154 2.162 . S
O166 C157 1.247 . S
O167 Co154 2.253 . S
O167 C157 1.272 . S
O167 Co159 2.135 . S
Co168 O169 2.216 . S
Co168 O170 2.091 . S
Co168 O172 2.004 . S
Co168 O178 2.021 . S
Co168 O180 2.137 1_554 S
Co168 O181 2.244 1_554 S
O169 Co168 2.216 . S
O169 C176 1.247 . S
O170 Co168 2.091 . S
O170 C176 1.261 . S
C171 O180 1.247 . S
C171 O181 1.272 . S
O172 Co168 2.004 . S
O172 C177 1.259 . S
Co173 O174 2.061 . S
Co173 O179 2.052 . S
Co173 O181 2.135 1_554 S
O174 Co173 2.061 . S
O174 C177 1.235 . S
C175 O178 1.238 . S
C175 O179 1.241 . S
C176 O169 1.247 . S
C176 O170 1.261 . S
C177 O172 1.259 . S
C177 O174 1.235 . S
O178 Co168 2.021 . S
O178 C175 1.238 . S
O179 Co173 2.052 . S
O179 C175 1.241 . S
O180 Co168 2.137 1_556 S
O180 C171 1.247 . S
O181 Co168 2.244 1_556 S
O181 C171 1.272 . S
O181 Co173 2.135 1_556 S
Co182 O183 2.216 . S
Co182 O184 2.091 . S
Co182 O186 2.004 . S
Co182 O192 2.021 . S
Co182 O194 2.137 1_554 S
Co182 O195 2.244 . S
O183 Co182 2.216 . S
O183 C190 1.247 . S
O184 Co182 2.091 . S
O184 C190 1.261 . S
C185 O194 1.247 . S
C185 O195 1.272 1_556 S
O186 Co182 2.004 . S
O186 C191 1.259 . S
Co187 O188 2.061 . S
Co187 O193 2.052 . S
Co187 O195 2.135 . S
O188 Co187 2.061 . S
O188 C191 1.235 . S
C189 O192 1.238 . S
C189 O193 1.241 . S
C190 O183 1.247 . S
C190 O184 1.261 . S
C191 O186 1.259 . S
C191 O188 1.235 . S
O192 Co182 2.021 . S
O192 C189 1.238 . S
O193 Co187 2.052 . S
O193 C189 1.241 . S
O194 Co182 2.137 1_556 S
O194 C185 1.247 . S
O195 Co182 2.244 . S
O195 C185 1.272 1_554 S
O195 Co187 2.135 . S
Co196 O197 2.216 . S
Co196 O198 2.091 . S
Co196 O200 2.004 . S
Co196 O206 2.021 . S
Co196 O208 2.137 . S
Co196 O209 2.244 . S
O197 Co196 2.216 . S
O197 C204 1.247 . S
O198 Co196 2.091 . S
O198 C204 1.261 . S
C199 O208 1.247 . S
C199 O209 1.272 . S
O200 Co196 2.004 . S
O200 C205 1.259 . S
Co201 O202 2.061 . S
Co201 O207 2.052 . S
Co201 O209 2.135 . S
O202 Co201 2.061 . S
O202 C205 1.235 . S
C203 O206 1.238 . S
C203 O207 1.241 . S
C204 O197 1.247 . S
C204 O198 1.261 . S
C205 O200 1.259 . S
C205 O202 1.235 . S
O206 Co196 2.021 . S
O206 C203 1.238 . S
O207 Co201 2.052 . S
O207 C203 1.241 . S
O208 Co196 2.137 . S
O208 C199 1.247 . S
O209 Co196 2.244 . S
O209 C199 1.272 . S
O209 Co201 2.135 . S
Co210 O211 2.216 . S
Co210 O212 2.091 . S
Co210 O214 2.004 . S
Co210 O220 2.021 . S
Co210 O222 2.137 . S
Co210 O223 2.244 . S
O211 Co210 2.216 . S
O211 C218 1.247 . S
O212 Co210 2.091 . S
O212 C218 1.261 . S
C213 O222 1.247 . S
C213 O223 1.272 . S
O214 Co210 2.004 . S
O214 C219 1.259 . S
Co215 O216 2.061 . S
Co215 O221 2.052 . S
Co215 O223 2.135 . S
O216 Co215 2.061 . S
O216 C219 1.235 . S
C217 O220 1.238 . S
C217 O221 1.241 . S
C218 O211 1.247 . S
C218 O212 1.261 . S
C219 O214 1.259 . S
C219 O216 1.235 . S
O220 Co210 2.021 . S
O220 C217 1.238 . S
O221 Co215 2.052 . S
O221 C217 1.241 . S
O222 Co210 2.137 . S
O222 C213 1.247 . S
O223 Co210 2.244 . S
O223 C213 1.272 . S
O223 Co215 2.135 . S
Co224 O225 2.216 . S
Co224 O226 2.091 . S
Co224 O228 2.004 . S
Co224 O234 2.021 . S
Co224 O236 2.137 . S
Co224 O237 2.244 . S
O225 Co224 2.216 . S
O225 C232 1.247 . S
O226 Co224 2.091 . S
O226 C232 1.261 . S
C227 O236 1.247 . S
C227 O237 1.272 . S
O228 Co224 2.004 . S
O228 C233 1.259 . S
Co229 O230 2.061 . S
Co229 O235 2.052 . S
Co229 O237 2.135 . S
O230 Co229 2.061 . S
O230 C233 1.235 . S
C231 O234 1.238 . S
C231 O235 1.241 . S
C232 O225 1.247 . S
C232 O226 1.261 . S
C233 O228 1.259 . S
C233 O230 1.235 . S
O234 Co224 2.021 . S
O234 C231 1.238 . S
O235 Co229 2.052 . S
O235 C231 1.241 . S
O236 Co224 2.137 . S
O236 C227 1.247 . S
O237 Co224 2.244 . S
O237 C227 1.272 . S
O237 Co229 2.135 . S
Co238 O239 2.216 . S
Co238 O240 2.091 . S
Co238 O242 2.004 . S
Co238 O248 2.021 . S
Co238 O250 2.137 . S
Co238 O251 2.244 . S
O239 Co238 2.216 . S
O239 C246 1.247 . S
O240 Co238 2.091 . S
O240 C246 1.261 . S
C241 O250 1.247 . S
C241 O251 1.272 . S
O242 Co238 2.004 . S
O242 C247 1.259 . S
Co243 O244 2.061 . S
Co243 O249 2.052 . S
Co243 O251 2.135 . S
O244 Co243 2.061 . S
O244 C247 1.235 . S
C245 O248 1.238 . S
C245 O249 1.241 . S
C246 O239 1.247 . S
C246 O240 1.261 . S
C247 O242 1.259 . S
C247 O244 1.235 . S
O248 Co238 2.021 . S
O248 C245 1.238 . S
O249 Co243 2.052 . S
O249 C245 1.241 . S
O250 Co238 2.137 . S
O250 C241 1.247 . S
O251 Co238 2.244 . S
O251 C241 1.272 . S
O251 Co243 2.135 . S
Co252 O253 2.216 . S
Co252 O254 2.091 . S
Co252 O256 2.004 . S
Co252 O262 2.021 . S
Co252 O264 2.137 . S
Co252 O265 2.244 . S
O253 Co252 2.216 . S
O253 C260 1.247 . S
O254 Co252 2.091 . S
O254 C260 1.261 . S
C255 O264 1.247 . S
C255 O265 1.272 . S
O256 Co252 2.004 . S
O256 C261 1.259 . S
Co257 O258 2.061 . S
Co257 O263 2.052 . S
Co257 O265 2.135 . S
O258 Co257 2.061 . S
O258 C261 1.235 . S
C259 O262 1.238 . S
C259 O263 1.241 . S
C260 O253 1.247 . S
C260 O254 1.261 . S
C261 O256 1.259 . S
C261 O258 1.235 . S
O262 Co252 2.021 . S
O262 C259 1.238 . S
O263 Co257 2.052 . S
O263 C259 1.241 . S
O264 Co252 2.137 . S
O264 C255 1.247 . S
O265 Co252 2.244 . S
O265 C255 1.272 . S
O265 Co257 2.135 . S
Co266 O267 2.216 . S
Co266 O268 2.091 . S
Co266 O270 2.004 . S
Co266 O276 2.021 . S
Co266 O278 2.137 . S
Co266 O279 2.244 . S
O267 Co266 2.216 . S
O267 C274 1.247 . S
O268 Co266 2.091 . S
O268 C274 1.261 . S
C269 O278 1.247 . S
C269 O279 1.272 . S
O270 Co266 2.004 . S
O270 C275 1.259 . S
Co271 O272 2.061 . S
Co271 O277 2.052 . S
Co271 O279 2.135 . S
O272 Co271 2.061 . S
O272 C275 1.235 . S
C273 O276 1.238 . S
C273 O277 1.241 . S
C274 O267 1.247 . S
C274 O268 1.261 . S
C275 O270 1.259 . S
C275 O272 1.235 . S
O276 Co266 2.021 . S
O276 C273 1.238 . S
O277 Co271 2.052 . S
O277 C273 1.241 . S
O278 Co266 2.137 . S
O278 C269 1.247 . S
O279 Co266 2.244 . S
O279 C269 1.272 . S
O279 Co271 2.135 . S
Co280 O281 2.216 . S
Co280 O282 2.091 . S
Co280 O284 2.004 1_554 S
Co280 O290 2.021 . S
Co280 O292 2.137 1_554 S
Co280 O293 2.244 1_554 S
O281 Co280 2.216 . S
O281 C288 1.247 . S
O282 Co280 2.091 . S
O282 C288 1.261 . S
C283 O292 1.247 . S
C283 O293 1.272 . S
O284 Co280 2.004 1_556 S
O284 C289 1.259 1_556 S
Co285 O286 2.061 . S
Co285 O291 2.052 . S
Co285 O293 2.135 1_554 S
O286 Co285 2.061 . S
O286 C289 1.235 . S
C287 O290 1.238 . S
C287 O291 1.241 . S
C288 O281 1.247 . S
C288 O282 1.261 . S
C289 O284 1.259 1_554 S
C289 O286 1.235 . S
O290 Co280 2.021 . S
O290 C287 1.238 . S
O291 Co285 2.052 . S
O291 C287 1.241 . S
O292 Co280 2.137 1_556 S
O292 C283 1.247 . S
O293 Co280 2.244 1_556 S
O293 C283 1.272 . S
O293 Co285 2.135 1_556 S
Co294 O295 2.216 . S
Co294 O296 2.091 . S
Co294 O298 2.004 . S
Co294 O304 2.021 . S
Co294 O306 2.137 . S
Co294 O307 2.244 . S
O295 Co294 2.216 . S
O295 C302 1.247 . S
O296 Co294 2.091 . S
O296 C302 1.261 . S
C297 O306 1.247 . S
C297 O307 1.272 . S
O298 Co294 2.004 . S
O298 C303 1.259 . S
Co299 O300 2.061 . S
Co299 O305 2.052 . S
Co299 O307 2.135 . S
O300 Co299 2.061 . S
O300 C303 1.235 . S
C301 O304 1.238 . S
C301 O305 1.241 . S
C302 O295 1.247 . S
C302 O296 1.261 . S
C303 O298 1.259 . S
C303 O300 1.235 . S
O304 Co294 2.021 . S
O304 C301 1.238 . S
O305 Co299 2.052 . S
O305 C301 1.241 . S
O306 Co294 2.137 . S
O306 C297 1.247 . S
O307 Co294 2.244 . S
O307 C297 1.272 . S
O307 Co299 2.135 . S
Co308 O309 2.216 . S
Co308 O310 2.091 . S
Co308 O312 2.004 . S
Co308 O318 2.021 . S
Co308 O320 2.137 . S
Co308 O321 2.244 . S
O309 Co308 2.216 . S
O309 C316 1.247 . S
O310 Co308 2.091 . S
O310 C316 1.261 . S
C311 O320 1.247 . S
C311 O321 1.272 . S
O312 Co308 2.004 . S
O312 C317 1.259 . S
Co313 O314 2.061 . S
Co313 O319 2.052 . S
Co313 O321 2.135 . S
O314 Co313 2.061 . S
O314 C317 1.235 . S
C315 O318 1.238 . S
C315 O319 1.241 . S
C316 O309 1.247 . S
C316 O310 1.261 . S
C317 O312 1.259 . S
C317 O314 1.235 . S
O318 Co308 2.021 . S
O318 C315 1.238 . S
O319 Co313 2.052 . S
O319 C315 1.241 . S
O320 Co308 2.137 . S
O320 C311 1.247 . S
O321 Co308 2.244 . S
O321 C311 1.272 . S
O321 Co313 2.135 . S
Co322 O323 2.216 . S
Co322 O324 2.091 . S
Co322 O326 2.004 . S
Co322 O332 2.021 . S
Co322 O334 2.137 . S
Co322 O335 2.244 . S
O323 Co322 2.216 . S
O323 C330 1.247 . S
O324 Co322 2.091 . S
O324 C330 1.261 . S
C325 O334 1.247 . S
C325 O335 1.272 . S
O326 Co322 2.004 . S
O326 C331 1.259 . S
Co327 O328 2.061 . S
Co327 O333 2.052 . S
Co327 O335 2.135 . S
O328 Co327 2.061 . S
O328 C331 1.235 . S
C329 O332 1.238 . S
C329 O333 1.241 . S
C330 O323 1.247 . S
C330 O324 1.261 . S
C331 O326 1.259 . S
C331 O328 1.235 . S
O332 Co322 2.021 . S
O332 C329 1.238 . S
O333 Co327 2.052 . S
O333 C329 1.241 . S
O334 Co322 2.137 . S
O334 C325 1.247 . S
O335 Co322 2.244 . S
O335 C325 1.272 . S
O335 Co327 2.135 . S
Eu336 C345 2.828 . S
Eu336 O347 2.392 . S
Eu336 O349 2.418 . S
Eu336 O354 2.373 . S
Eu336 O357 2.488 . S
Eu336 O358 2.471 1_554 S
Eu336 O359 2.349 1_554 S
Eu337 O346 2.372 . S
Eu337 O350 2.472 1_544 S
Eu337 O351 2.458 1_545 S
Eu337 O352 2.358 . S
Eu337 O355 2.395 1_554 S
Eu337 O356 2.421 1_554 S
Eu337 C366 2.811 1_545 S
C338 O356 1.244 . S
C338 O359 1.265 . S
C339 C340 1.379 1_554 S
C339 C343 1.373 . S
C339 C345 1.505 . S
C340 C339 1.379 1_556 S
C340 C342 1.369 . S
C340 H368 0.930 . S
C341 C343 1.383 . S
C341 C344 1.382 1_554 S
C341 H369 0.930 . S
C342 C340 1.369 . S
C342 C344 1.392 . S
C342 H370 0.930 . S
C343 C339 1.373 . S
C343 C341 1.383 . S
C343 H371 0.931 . S
C344 C341 1.382 1_556 S
C344 C342 1.392 . S
C345 Eu336 2.828 . S
C345 C339 1.505 . S
C345 O357 1.249 . S
C345 O358 1.244 1_554 S
O346 Eu337 2.372 . S
O346 C348 1.258 . S
O347 Eu336 2.392 . S
O347 C348 1.242 . S
C348 O346 1.258 . S
C348 O347 1.242 . S
O349 Eu336 2.418 . S
O349 C353 1.244 . S
O350 Eu337 2.472 1_566 S
O350 C366 1.249 1_556 S
O351 Eu337 2.458 1_565 S
O351 C366 1.244 . S
O352 Eu337 2.358 . S
O352 C353 1.265 . S
C353 O349 1.244 . S
C353 O352 1.265 . S
O354 Eu336 2.373 . S
O354 C367 1.258 . S
O355 Eu337 2.395 1_556 S
O355 C367 1.241 1_556 S
O356 Eu337 2.421 1_556 S
O356 C338 1.244 . S
O357 Eu336 2.488 . S
O357 C345 1.249 . S
O358 Eu336 2.471 1_556 S
O358 C345 1.244 1_556 S
O359 Eu336 2.349 1_556 S
O359 C338 1.265 . S
C360 C361 1.379 . S
C360 C364 1.373 . S
C360 C366 1.505 . S
C361 C360 1.379 . S
C361 C363 1.369 . S
C361 H372 0.930 . S
C362 C364 1.383 . S
C362 C365 1.382 . S
C362 H373 0.930 . S
C363 C361 1.369 . S
C363 C365 1.392 . S
C363 H374 0.930 . S
C364 C360 1.373 . S
C364 C362 1.383 . S
C364 H375 0.931 1_554 S
C365 C362 1.382 . S
C365 C363 1.392 . S
C366 Eu337 2.811 1_565 S
C366 O350 1.249 1_554 S
C366 O351 1.244 . S
C366 C360 1.505 . S
C367 O354 1.258 . S
C367 O355 1.241 1_554 S
H368 C340 0.930 . S
H369 C341 0.930 . S
H370 C342 0.930 . S
H371 C343 0.931 . S
H372 C361 0.930 . S
H373 C362 0.930 . S
H374 C363 0.930 . S
H375 C364 0.931 1_556 S
Eu376 C385 2.828 . S
Eu376 O387 2.392 . S
Eu376 O389 2.418 . S
Eu376 O394 2.373 . S
Eu376 O397 2.488 . S
Eu376 O398 2.471 . S
Eu376 O399 2.349 . S
Eu377 O386 2.373 . S
Eu377 O390 2.488 . S
Eu377 O391 2.471 . S
Eu377 O392 2.349 . S
Eu377 O395 2.392 . S
Eu377 O396 2.418 . S
Eu377 C406 2.828 . S
C378 O396 1.244 . S
C378 O399 1.265 . S
C379 C380 1.379 . S
C379 C383 1.373 . S
C379 C385 1.505 . S
C380 C379 1.379 . S
C380 C382 1.369 . S
C380 H408 0.930 . S
C381 C383 1.383 . S
C381 C384 1.382 . S
C381 H409 0.930 . S
C382 C380 1.369 . S
C382 C384 1.392 . S
C382 H410 0.930 . S
C383 C379 1.373 . S
C383 C381 1.383 . S
C383 H411 0.931 . S
C384 C381 1.382 . S
C384 C382 1.392 . S
C385 Eu376 2.828 . S
C385 C379 1.505 . S
C385 O397 1.249 . S
C385 O398 1.244 . S
O386 Eu377 2.373 . S
O386 C388 1.258 . S
O387 Eu376 2.392 . S
O387 C388 1.242 . S
C388 O386 1.258 . S
C388 O387 1.242 . S
O389 Eu376 2.418 . S
O389 C393 1.244 . S
O390 Eu377 2.488 . S
O390 C406 1.249 . S
O391 Eu377 2.471 . S
O391 C406 1.244 . S
O392 Eu377 2.349 . S
O392 C393 1.265 . S
C393 O389 1.244 . S
C393 O392 1.265 . S
O394 Eu376 2.373 . S
O394 C407 1.258 . S
O395 Eu377 2.392 . S
O395 C407 1.242 . S
O396 Eu377 2.418 . S
O396 C378 1.244 . S
O397 Eu376 2.488 . S
O397 C385 1.249 . S
O398 Eu376 2.471 . S
O398 C385 1.244 . S
O399 Eu376 2.349 . S
O399 C378 1.265 . S
C400 C401 1.379 . S
C400 C404 1.373 . S
C400 C406 1.505 . S
C401 C400 1.379 . S
C401 C403 1.369 . S
C401 H412 0.930 . S
C402 C404 1.383 . S
C402 C405 1.382 . S
C402 H413 0.930 . S
C403 C401 1.369 . S
C403 C405 1.392 . S
C403 H414 0.930 . S
C404 C400 1.373 . S
C404 C402 1.383 . S
C404 H415 0.931 . S
C405 C402 1.382 . S
C405 C403 1.392 . S
C406 Eu377 2.828 . S
C406 O390 1.249 . S
C406 O391 1.244 . S
C406 C400 1.505 . S
C407 O394 1.258 . S
C407 O395 1.242 . S
H408 C380 0.930 . S
H409 C381 0.930 . S
H410 C382 0.930 . S
H411 C383 0.931 . S
H412 C401 0.930 . S
H413 C402 0.930 . S
H414 C403 0.930 . S
H415 C404 0.931 . S
Eu416 C425 2.828 . S
Eu416 O427 2.392 . S
Eu416 O429 2.418 . S
Eu416 O434 2.373 1_545 S
Eu416 O437 2.488 . S
Eu416 O438 2.471 . S
Eu416 O439 2.349 . S
Eu417 O426 2.373 . S
Eu417 O430 2.488 . S
Eu417 O431 2.471 . S
Eu417 O432 2.349 . S
Eu417 O435 2.392 1_545 S
Eu417 O436 2.418 . S
Eu417 C446 2.828 . S
C418 O436 1.244 . S
C418 O439 1.265 . S
C419 C420 1.379 . S
C419 C423 1.373 . S
C419 C425 1.505 1_565 S
C420 C419 1.379 . S
C420 C422 1.369 . S
C420 H448 0.930 . S
C421 C423 1.383 . S
C421 C424 1.382 . S
C421 H449 0.930 . S
C422 C420 1.369 . S
C422 C424 1.392 . S
C422 H450 0.930 . S
C423 C419 1.373 . S
C423 C421 1.383 . S
C423 H451 0.931 . S
C424 C421 1.382 . S
C424 C422 1.392 . S
C425 Eu416 2.828 . S
C425 C419 1.505 1_545 S
C425 O437 1.249 . S
C425 O438 1.244 . S
O426 Eu417 2.373 . S
O426 C428 1.258 . S
O427 Eu416 2.392 . S
O427 C428 1.242 . S
C428 O426 1.258 . S
C428 O427 1.242 . S
O429 Eu416 2.418 . S
O429 C433 1.244 . S
O430 Eu417 2.488 . S
O430 C446 1.249 . S
O431 Eu417 2.471 . S
O431 C446 1.244 . S
O432 Eu417 2.349 . S
O432 C433 1.265 . S
C433 O429 1.244 . S
C433 O432 1.265 . S
O434 Eu416 2.373 1_565 S
O434 C447 1.258 . S
O435 Eu417 2.392 1_565 S
O435 C447 1.242 . S
O436 Eu417 2.418 . S
O436 C418 1.244 . S
O437 Eu416 2.488 . S
O437 C425 1.249 . S
O438 Eu416 2.471 . S
O438 C425 1.244 . S
O439 Eu416 2.349 . S
O439 C418 1.265 . S
C440 C441 1.379 . S
C440 C444 1.373 . S
C440 C446 1.505 . S
C441 C440 1.379 . S
C441 C443 1.369 . S
C441 H452 0.930 . S
C442 C444 1.383 . S
C442 C445 1.382 . S
C442 H453 0.930 . S
C443 C441 1.369 . S
C443 C445 1.392 . S
C443 H454 0.930 . S
C444 C440 1.373 . S
C444 C442 1.383 . S
C444 H455 0.931 . S
C445 C442 1.382 . S
C445 C443 1.392 . S
C446 Eu417 2.828 . S
C446 O430 1.249 . S
C446 O431 1.244 . S
C446 C440 1.505 . S
C447 O434 1.258 . S
C447 O435 1.242 . S
H448 C420 0.930 . S
H449 C421 0.930 . S
H450 C422 0.930 . S
H451 C423 0.931 . S
H452 C441 0.930 . S
H453 C442 0.930 . S
H454 C443 0.930 . S
H455 C444 0.931 . S
Eu456 C465 2.828 . S
Eu456 O467 2.392 . S
Eu456 O469 2.418 . S
Eu456 O474 2.373 . S
Eu456 O477 2.488 . S
Eu456 O478 2.471 . S
Eu456 O479 2.349 . S
Eu457 O466 2.373 . S
Eu457 O470 2.488 . S
Eu457 O471 2.471 . S
Eu457 O472 2.349 . S
Eu457 O475 2.392 . S
Eu457 O476 2.418 . S
Eu457 C486 2.828 . S
C458 O476 1.244 . S
C458 O479 1.265 . S
C459 C460 1.379 . S
C459 C463 1.373 . S
C459 C465 1.505 . S
C460 C459 1.379 . S
C460 C462 1.369 . S
C460 H488 0.930 . S
C461 C463 1.383 . S
C461 C464 1.382 . S
C461 H489 0.930 . S
C462 C460 1.369 . S
C462 C464 1.392 . S
C462 H490 0.930 . S
C463 C459 1.373 . S
C463 C461 1.383 . S
C463 H491 0.931 . S
C464 C461 1.382 . S
C464 C462 1.392 . S
C465 Eu456 2.828 . S
C465 C459 1.505 . S
C465 O477 1.249 . S
C465 O478 1.244 . S
O466 Eu457 2.373 . S
O466 C468 1.258 . S
O467 Eu456 2.392 . S
O467 C468 1.242 . S
C468 O466 1.258 . S
C468 O467 1.242 . S
O469 Eu456 2.418 . S
O469 C473 1.244 . S
O470 Eu457 2.488 . S
O470 C486 1.249 . S
O471 Eu457 2.471 . S
O471 C486 1.244 . S
O472 Eu457 2.349 . S
O472 C473 1.265 . S
C473 O469 1.244 . S
C473 O472 1.265 . S
O474 Eu456 2.373 . S
O474 C487 1.258 . S
O475 Eu457 2.392 . S
O475 C487 1.242 . S
O476 Eu457 2.418 . S
O476 C458 1.244 . S
O477 Eu456 2.488 . S
O477 C465 1.249 . S
O478 Eu456 2.471 . S
O478 C465 1.244 . S
O479 Eu456 2.349 . S
O479 C458 1.265 . S
C480 C481 1.379 . S
C480 C484 1.373 . S
C480 C486 1.505 . S
C481 C480 1.379 . S
C481 C483 1.369 . S
C481 H492 0.930 . S
C482 C484 1.383 . S
C482 C485 1.382 . S
C482 H493 0.930 . S
C483 C481 1.369 . S
C483 C485 1.392 . S
C483 H494 0.930 . S
C484 C480 1.373 . S
C484 C482 1.383 . S
C484 H495 0.931 . S
C485 C482 1.382 . S
C485 C483 1.392 . S
C486 Eu457 2.828 . S
C486 O470 1.249 . S
C486 O471 1.244 . S
C486 C480 1.505 . S
C487 O474 1.258 . S
C487 O475 1.242 . S
H488 C460 0.930 . S
H489 C461 0.930 . S
H490 C462 0.930 . S
H491 C463 0.931 . S
H492 C481 0.930 . S
H493 C482 0.930 . S
H494 C483 0.930 . S
H495 C484 0.931 . S
Eu496 C505 2.828 . S
Eu496 O507 2.392 . S
Eu496 O509 2.418 . S
Eu496 O514 2.373 . S
Eu496 O517 2.488 . S
Eu496 O518 2.471 . S
Eu496 O519 2.349 . S
Eu497 O506 2.373 . S
Eu497 O510 2.488 1_545 S
Eu497 O511 2.471 1_545 S
Eu497 O512 2.349 . S
Eu497 O515 2.392 . S
Eu497 O516 2.418 . S
Eu497 C526 2.828 1_545 S
C498 O516 1.244 . S
C498 O519 1.265 . S
C499 C500 1.379 . S
C499 C503 1.373 . S
C499 C505 1.505 . S
C500 C499 1.379 . S
C500 C502 1.369 . S
C500 H528 0.930 . S
C501 C503 1.383 . S
C501 C504 1.382 . S
C501 H529 0.930 . S
C502 C500 1.369 . S
C502 C504 1.392 . S
C502 H530 0.930 . S
C503 C499 1.373 . S
C503 C501 1.383 . S
C503 H531 0.931 . S
C504 C501 1.382 . S
C504 C502 1.392 . S
C505 Eu496 2.828 . S
C505 C499 1.505 . S
C505 O517 1.249 . S
C505 O518 1.244 . S
O506 Eu497 2.373 . S
O506 C508 1.258 . S
O507 Eu496 2.392 . S
O507 C508 1.242 . S
C508 O506 1.258 . S
C508 O507 1.242 . S
O509 Eu496 2.418 . S
O509 C513 1.244 . S
O510 Eu497 2.488 1_565 S
O510 C526 1.249 . S
O511 Eu497 2.471 1_565 S
O511 C526 1.244 . S
O512 Eu497 2.349 . S
O512 C513 1.265 . S
C513 O509 1.244 . S
C513 O512 1.265 . S
O514 Eu496 2.373 . S
O514 C527 1.258 . S
O515 Eu497 2.392 . S
O515 C527 1.242 . S
O516 Eu497 2.418 . S
O516 C498 1.244 . S
O517 Eu496 2.488 . S
O517 C505 1.249 . S
O518 Eu496 2.471 . S
O518 C505 1.244 . S
O519 Eu496 2.349 . S
O519 C498 1.265 . S
C520 C521 1.379 . S
C520 C524 1.373 . S
C520 C526 1.505 . S
C521 C520 1.379 . S
C521 C523 1.369 . S
C521 H532 0.930 . S
C522 C524 1.383 . S
C522 C525 1.382 . S
C522 H533 0.930 . S
C523 C521 1.369 . S
C523 C525 1.392 . S
C523 H534 0.930 . S
C524 C520 1.373 . S
C524 C522 1.383 . S
C524 H535 0.931 . S
C525 C522 1.382 . S
C525 C523 1.392 . S
C526 Eu497 2.828 1_565 S
C526 O510 1.249 . S
C526 O511 1.244 . S
C526 C520 1.505 . S
C527 O514 1.258 . S
C527 O515 1.242 . S
H528 C500 0.930 . S
H529 C501 0.930 . S
H530 C502 0.930 . S
H531 C503 0.931 . S
H532 C521 0.930 . S
H533 C522 0.930 . S
H534 C523 0.930 . S
H535 C524 0.931 . S
Eu536 C545 2.828 . S
Eu536 O547 2.392 . S
Eu536 O549 2.418 . S
Eu536 O554 2.373 . S
Eu536 O557 2.488 . S
Eu536 O558 2.471 . S
Eu536 O559 2.349 . S
Eu537 O546 2.373 . S
Eu537 O550 2.488 . S
Eu537 O551 2.471 . S
Eu537 O552 2.349 . S
Eu537 O555 2.392 . S
Eu537 O556 2.418 . S
Eu537 C566 2.828 . S
C538 O556 1.244 . S
C538 O559 1.265 . S
C539 C540 1.379 . S
C539 C543 1.373 . S
C539 C545 1.505 . S
C540 C539 1.379 . S
C540 C542 1.369 . S
C540 H568 0.930 . S
C541 C543 1.383 . S
C541 C544 1.382 . S
C541 H569 0.930 . S
C542 C540 1.369 . S
C542 C544 1.392 . S
C542 H570 0.930 . S
C543 C539 1.373 . S
C543 C541 1.383 . S
C543 H571 0.931 . S
C544 C541 1.382 . S
C544 C542 1.392 . S
C545 Eu536 2.828 . S
C545 C539 1.505 . S
C545 O557 1.249 . S
C545 O558 1.244 . S
O546 Eu537 2.373 . S
O546 C548 1.258 . S
O547 Eu536 2.392 . S
O547 C548 1.242 . S
C548 O546 1.258 . S
C548 O547 1.242 . S
O549 Eu536 2.418 . S
O549 C553 1.244 . S
O550 Eu537 2.488 . S
O550 C566 1.249 . S
O551 Eu537 2.471 . S
O551 C566 1.244 . S
O552 Eu537 2.349 . S
O552 C553 1.265 . S
C553 O549 1.244 . S
C553 O552 1.265 . S
O554 Eu536 2.373 . S
O554 C567 1.258 . S
O555 Eu537 2.392 . S
O555 C567 1.242 . S
O556 Eu537 2.418 . S
O556 C538 1.244 . S
O557 Eu536 2.488 . S
O557 C545 1.249 . S
O558 Eu536 2.471 . S
O558 C545 1.244 . S
O559 Eu536 2.349 . S
O559 C538 1.265 . S
C560 C561 1.379 . S
C560 C564 1.373 . S
C560 C566 1.505 . S
C561 C560 1.379 . S
C561 C563 1.369 . S
C561 H572 0.930 . S
C562 C564 1.383 . S
C562 C565 1.382 . S
C562 H573 0.930 . S
C563 C561 1.369 . S
C563 C565 1.392 . S
C563 H574 0.930 . S
C564 C560 1.373 . S
C564 C562 1.383 . S
C564 H575 0.931 . S
C565 C562 1.382 . S
C565 C563 1.392 . S
C566 Eu537 2.828 . S
C566 O550 1.249 . S
C566 O551 1.244 . S
C566 C560 1.505 . S
C567 O554 1.258 . S
C567 O555 1.242 . S
H568 C540 0.930 . S
H569 C541 0.930 . S
H570 C542 0.930 . S
H571 C543 0.931 . S
H572 C561 0.930 . S
H573 C562 0.930 . S
H574 C563 0.930 . S
H575 C564 0.931 . S
Eu576 C585 2.828 . S
Eu576 O587 2.392 . S
Eu576 O589 2.418 1_545 S
Eu576 O594 2.373 . S
Eu576 O597 2.488 . S
Eu576 O598 2.471 . S
Eu576 O599 2.349 . S
Eu577 O586 2.373 1_556 S
Eu577 O590 2.488 . S
Eu577 O591 2.471 . S
Eu577 O592 2.349 . S
Eu577 O595 2.392 . S
Eu577 O596 2.418 1_556 S
Eu577 C606 2.828 . S
C578 O596 1.244 . S
C578 O599 1.265 . S
C579 C580 1.379 . S
C579 C583 1.373 1_545 S
C579 C585 1.505 . S
C580 C579 1.379 . S
C580 C582 1.369 . S
C580 H608 0.930 . S
C581 C583 1.383 . S
C581 C584 1.393 . S
C581 H609 0.930 . S
C582 C580 1.369 . S
C582 C584 1.378 1_545 S
C582 H610 0.930 . S
C583 C579 1.373 1_565 S
C583 C581 1.383 . S
C583 H611 0.931 . S
C584 C581 1.393 . S
C584 C582 1.378 1_565 S
C585 Eu576 2.828 . S
C585 C579 1.505 . S
C585 O597 1.249 . S
C585 O598 1.244 . S
O586 Eu577 2.373 1_554 S
O586 C588 1.258 . S
O587 Eu576 2.392 . S
O587 C588 1.242 . S
C588 O586 1.258 . S
C588 O587 1.242 . S
O589 Eu576 2.418 1_565 S
O589 C593 1.244 . S
O590 Eu577 2.488 . S
O590 C606 1.249 . S
O591 Eu577 2.471 . S
O591 C606 1.244 . S
O592 Eu577 2.349 . S
O592 C593 1.265 1_546 S
C593 O589 1.244 . S
C593 O592 1.265 1_564 S
O594 Eu576 2.373 . S
O594 C607 1.258 . S
O595 Eu577 2.392 . S
O595 C607 1.242 1_556 S
O596 Eu577 2.418 1_554 S
O596 C578 1.244 . S
O597 Eu576 2.488 . S
O597 C585 1.249 . S
O598 Eu576 2.471 . S
O598 C585 1.244 . S
O599 Eu576 2.349 . S
O599 C578 1.265 . S
C600 C601 1.379 . S
C600 C604 1.373 . S
C600 C606 1.505 . S
C601 C600 1.379 . S
C601 C603 1.369 . S
C601 H612 0.930 . S
C602 C604 1.383 . S
C602 C605 1.382 . S
C602 H613 0.930 . S
C603 C601 1.369 . S
C603 C605 1.392 . S
C603 H614 0.930 . S
C604 C600 1.373 . S
C604 C602 1.383 . S
C604 H615 0.931 . S
C605 C602 1.382 . S
C605 C603 1.392 . S
C606 Eu577 2.828 . S
C606 O590 1.249 . S
C606 O591 1.244 . S
C606 C600 1.505 . S
C607 O594 1.258 . S
C607 O595 1.242 1_554 S
H608 C580 0.930 . S
H609 C581 0.930 . S
H610 C582 0.930 . S
H611 C583 0.931 . S
H612 C601 0.930 . S
H613 C602 0.930 . S
H614 C603 0.930 . S
H615 C604 0.931 . S
Eu616 C625 2.828 . S
Eu616 O627 2.392 . S
Eu616 O629 2.418 . S
Eu616 O634 2.373 . S
Eu616 O637 2.488 . S
Eu616 O638 2.471 . S
Eu616 O639 2.349 . S
Eu617 O626 2.373 . S
Eu617 O630 2.488 . S
Eu617 O631 2.471 . S
Eu617 O632 2.349 . S
Eu617 O635 2.392 . S
Eu617 O636 2.418 . S
Eu617 C646 2.828 . S
C618 O636 1.244 . S
C618 O639 1.265 . S
C619 C620 1.379 . S
C619 C623 1.373 . S
C619 C625 1.505 . S
C620 C619 1.379 . S
C620 C622 1.369 . S
C620 H648 0.930 . S
C621 C623 1.383 . S
C621 C624 1.382 . S
C621 H649 0.930 . S
C622 C620 1.369 . S
C622 C624 1.392 . S
C622 H650 0.930 . S
C623 C619 1.373 . S
C623 C621 1.383 . S
C623 H651 0.931 . S
C624 C621 1.382 . S
C624 C622 1.392 . S
C625 Eu616 2.828 . S
C625 C619 1.505 . S
C625 O637 1.249 . S
C625 O638 1.244 . S
O626 Eu617 2.373 . S
O626 C628 1.258 . S
O627 Eu616 2.392 . S
O627 C628 1.242 . S
C628 O626 1.258 . S
C628 O627 1.242 . S
O629 Eu616 2.418 . S
O629 C633 1.244 . S
O630 Eu617 2.488 . S
O630 C646 1.249 . S
O631 Eu617 2.471 . S
O631 C646 1.244 . S
O632 Eu617 2.349 . S
O632 C633 1.265 . S
C633 O629 1.244 . S
C633 O632 1.265 . S
O634 Eu616 2.373 . S
O634 C647 1.258 . S
O635 Eu617 2.392 . S
O635 C647 1.242 . S
O636 Eu617 2.418 . S
O636 C618 1.244 . S
O637 Eu616 2.488 . S
O637 C625 1.249 . S
O638 Eu616 2.471 . S
O638 C625 1.244 . S
O639 Eu616 2.349 . S
O639 C618 1.265 . S
C640 C641 1.379 . S
C640 C644 1.373 . S
C640 C646 1.505 . S
C641 C640 1.379 . S
C641 C643 1.369 . S
C641 H652 0.930 . S
C642 C644 1.383 . S
C642 C645 1.382 . S
C642 H653 0.930 . S
C643 C641 1.369 . S
C643 C645 1.392 . S
C643 H654 0.930 . S
C644 C640 1.373 . S
C644 C642 1.383 . S
C644 H655 0.931 . S
C645 C642 1.382 . S
C645 C643 1.392 . S
C646 Eu617 2.828 . S
C646 O630 1.249 . S
C646 O631 1.244 . S
C646 C640 1.505 . S
C647 O634 1.258 . S
C647 O635 1.242 . S
H648 C620 0.930 . S
H649 C621 0.930 . S
H650 C622 0.930 . S
H651 C623 0.931 . S
H652 C641 0.930 . S
H653 C642 0.930 . S
H654 C643 0.930 . S
H655 C644 0.931 . S
Eu656 C665 2.828 . S
Eu656 O667 2.392 . S
Eu656 O669 2.418 . S
Eu656 O674 2.373 1_554 S
Eu656 O677 2.488 . S
Eu656 O678 2.471 . S
Eu656 O679 2.349 . S
Eu657 O666 2.391 . S
Eu657 O670 2.495 . S
Eu657 O671 2.483 . S
Eu657 O672 2.356 . S
Eu657 O675 2.377 1_554 S
Eu657 O676 2.415 . S
Eu657 C686 2.838 . S
C658 O676 1.244 . S
C658 O679 1.265 . S
C659 C660 1.379 1_554 S
C659 C663 1.373 . S
C659 C665 1.505 . S
C660 C659 1.379 1_556 S
C660 C662 1.369 . S
C660 H688 0.930 . S
C661 C663 1.383 1_556 S
C661 C664 1.382 . S
C661 H689 0.935 . S
C662 C660 1.369 . S
C662 C664 1.392 . S
C662 H690 0.930 . S
C663 C659 1.373 . S
C663 C661 1.383 1_554 S
C663 H691 0.931 . S
C664 C661 1.382 . S
C664 C662 1.392 . S
C665 Eu656 2.828 . S
C665 C659 1.505 . S
C665 O677 1.249 . S
C665 O678 1.244 . S
O666 Eu657 2.391 . S
O666 C668 1.258 . S
O667 Eu656 2.392 . S
O667 C668 1.242 . S
C668 O666 1.258 . S
C668 O667 1.242 . S
O669 Eu656 2.418 . S
O669 C673 1.244 . S
O670 Eu657 2.495 . S
O670 C686 1.249 . S
O671 Eu657 2.483 . S
O671 C686 1.244 . S
O672 Eu657 2.356 . S
O672 C673 1.265 . S
C673 O669 1.244 . S
C673 O672 1.265 . S
O674 Eu656 2.373 1_556 S
O674 C687 1.258 . S
O675 Eu657 2.377 1_556 S
O675 C687 1.242 . S
O676 Eu657 2.415 . S
O676 C658 1.244 . S
O677 Eu656 2.488 . S
O677 C665 1.249 . S
O678 Eu656 2.471 . S
O678 C665 1.244 . S
O679 Eu656 2.349 . S
O679 C658 1.265 . S
C680 C681 1.379 . S
C680 C684 1.373 . S
C680 C686 1.505 . S
C681 C680 1.379 . S
C681 C683 1.369 . S
C681 H692 0.930 . S
C682 C684 1.383 . S
C682 C685 1.382 . S
C682 H693 0.930 . S
C683 C681 1.369 . S
C683 C685 1.392 . S
C683 H694 0.930 . S
C684 C680 1.373 . S
C684 C682 1.383 . S
C684 H695 0.931 . S
C685 C682 1.382 . S
C685 C683 1.392 . S
C686 Eu657 2.838 . S
C686 O670 1.249 . S
C686 O671 1.244 . S
C686 C680 1.505 . S
C687 O674 1.258 . S
C687 O675 1.242 . S
H688 C660 0.930 . S
H689 C661 0.935 . S
H690 C662 0.930 . S
H691 C663 0.931 . S
H692 C681 0.930 . S
H693 C682 0.930 . S
H694 C683 0.930 . S
H695 C684 0.931 . S
Eu696 C705 2.828 . S
Eu696 O707 2.392 . S
Eu696 O709 2.418 . S
Eu696 O714 2.373 . S
Eu696 O717 2.488 . S
Eu696 O718 2.471 . S
Eu696 O719 2.349 . S
Eu697 O706 2.373 . S
Eu697 O710 2.488 . S
Eu697 O711 2.471 . S
Eu697 O712 2.349 . S
Eu697 O715 2.392 . S
Eu697 O716 2.418 . S
Eu697 C726 2.828 . S
C698 O716 1.244 . S
C698 O719 1.265 . S
C699 C700 1.379 . S
C699 C703 1.373 . S
C699 C705 1.505 . S
C700 C699 1.379 . S
C700 C702 1.369 . S
C700 H728 0.930 . S
C701 C703 1.383 . S
C701 C704 1.381 1_655 S
C701 H729 0.930 1_655 S
C702 C700 1.369 . S
C702 C704 1.383 1_655 S
C702 H730 0.930 . S
C703 C699 1.373 . S
C703 C701 1.383 . S
C703 H731 0.931 . S
C704 C701 1.381 1_455 S
C704 C702 1.383 1_455 S
C705 Eu696 2.828 . S
C705 C699 1.505 . S
C705 O717 1.249 . S
C705 O718 1.244 . S
O706 Eu697 2.373 . S
O706 C708 1.258 . S
O707 Eu696 2.392 . S
O707 C708 1.242 . S
C708 O706 1.258 . S
C708 O707 1.242 . S
O709 Eu696 2.418 . S
O709 C713 1.244 . S
O710 Eu697 2.488 . S
O710 C726 1.249 . S
O711 Eu697 2.471 . S
O711 C726 1.244 . S
O712 Eu697 2.349 . S
O712 C713 1.265 . S
C713 O709 1.244 . S
C713 O712 1.265 . S
O714 Eu696 2.373 . S
O714 C727 1.258 . S
O715 Eu697 2.392 . S
O715 C727 1.242 . S
O716 Eu697 2.418 . S
O716 C698 1.244 . S
O717 Eu696 2.488 . S
O717 C705 1.249 . S
O718 Eu696 2.471 . S
O718 C705 1.244 . S
O719 Eu696 2.349 . S
O719 C698 1.265 . S
C720 C721 1.379 . S
C720 C724 1.373 . S
C720 C726 1.505 . S
C721 C720 1.379 . S
C721 C723 1.369 . S
C721 H732 0.930 . S
C722 C724 1.383 . S
C722 C725 1.382 . S
C722 H733 0.930 . S
C723 C721 1.369 . S
C723 C725 1.392 . S
C723 H734 0.930 . S
C724 C720 1.373 . S
C724 C722 1.383 . S
C724 H735 0.931 . S
C725 C722 1.382 . S
C725 C723 1.392 . S
C726 Eu697 2.828 . S
C726 O710 1.249 . S
C726 O711 1.244 . S
C726 C720 1.505 . S
C727 O714 1.258 . S
C727 O715 1.242 . S
H728 C700 0.930 . S
H729 C701 0.930 1_455 S
H730 C702 0.930 . S
H731 C703 0.931 . S
H732 C721 0.930 . S
H733 C722 0.930 . S
H734 C723 0.930 . S
H735 C724 0.931 . S
Eu736 C745 2.828 . S
Eu736 O747 2.392 . S
Eu736 O749 2.418 . S
Eu736 O754 2.373 . S
Eu736 O757 2.488 . S
Eu736 O758 2.471 . S
Eu736 O759 2.349 . S
Eu737 O746 2.373 . S
Eu737 O750 2.488 . S
Eu737 O751 2.471 . S
Eu737 O752 2.349 . S
Eu737 O755 2.392 . S
Eu737 O756 2.418 . S
Eu737 C766 2.828 . S
C738 O756 1.244 . S
C738 O759 1.265 . S
C739 C740 1.379 1_455 S
C739 C743 1.373 . S
C739 C745 1.505 . S
C740 C739 1.379 1_655 S
C740 C742 1.369 . S
C740 H768 0.930 . S
C741 C743 1.408 . S
C741 C744 1.350 1_455 S
C741 H769 0.939 . S
C742 C740 1.369 . S
C742 C744 1.392 . S
C742 H770 0.930 . S
C743 C739 1.373 . S
C743 C741 1.408 . S
C743 H771 0.931 . S
C744 C741 1.350 1_655 S
C744 C742 1.392 . S
C745 Eu736 2.828 . S
C745 C739 1.505 . S
C745 O757 1.249 . S
C745 O758 1.244 . S
O746 Eu737 2.373 . S
O746 C748 1.258 . S
O747 Eu736 2.392 . S
O747 C748 1.242 . S
C748 O746 1.258 . S
C748 O747 1.242 . S
O749 Eu736 2.418 . S
O749 C753 1.244 . S
O750 Eu737 2.488 . S
O750 C766 1.249 . S
O751 Eu737 2.471 . S
O751 C766 1.244 . S
O752 Eu737 2.349 . S
O752 C753 1.265 . S
C753 O749 1.244 . S
C753 O752 1.265 . S
O754 Eu736 2.373 . S
O754 C767 1.258 . S
O755 Eu737 2.392 . S
O755 C767 1.242 . S
O756 Eu737 2.418 . S
O756 C738 1.244 . S
O757 Eu736 2.488 . S
O757 C745 1.249 . S
O758 Eu736 2.471 . S
O758 C745 1.244 . S
O759 Eu736 2.349 . S
O759 C738 1.265 . S
C760 C761 1.379 . S
C760 C764 1.373 . S
C760 C766 1.505 . S
C761 C760 1.379 . S
C761 C763 1.369 . S
C761 H772 0.930 . S
C762 C764 1.383 . S
C762 C765 1.382 . S
C762 H773 0.930 . S
C763 C761 1.369 . S
C763 C765 1.392 . S
C763 H774 0.930 . S
C764 C760 1.373 . S
C764 C762 1.383 . S
C764 H775 0.931 . S
C765 C762 1.382 . S
C765 C763 1.392 . S
C766 Eu737 2.828 . S
C766 O750 1.249 . S
C766 O751 1.244 . S
C766 C760 1.505 . S
C767 O754 1.258 . S
C767 O755 1.242 . S
H768 C740 0.930 . S
H769 C741 0.939 . S
H770 C742 0.930 . S
H771 C743 0.931 . S
H772 C761 0.930 . S
H773 C762 0.930 . S
H774 C763 0.930 . S
H775 C764 0.931 . S
Eu776 C785 2.828 . S
Eu776 O787 2.392 . S
Eu776 O789 2.418 . S
Eu776 O794 2.373 . S
Eu776 O797 2.488 . S
Eu776 O798 2.471 . S
Eu776 O799 2.349 . S
Eu777 O786 2.373 . S
Eu777 O790 2.488 . S
Eu777 O791 2.471 . S
Eu777 O792 2.349 . S
Eu777 O795 2.392 . S
Eu777 O796 2.418 . S
Eu777 C806 2.828 . S
C778 O796 1.244 . S
C778 O799 1.265 . S
C779 C780 1.379 . S
C779 C783 1.373 . S
C779 C785 1.505 . S
C780 C779 1.379 . S
C780 C782 1.369 . S
C780 H808 0.930 . S
C781 C783 1.383 . S
C781 C784 1.382 . S
C781 H809 0.930 . S
C782 C780 1.369 . S
C782 C784 1.392 . S
C782 H810 0.930 . S
C783 C779 1.373 . S
C783 C781 1.383 . S
C783 H811 0.931 . S
C784 C781 1.382 . S
C784 C782 1.392 . S
C785 Eu776 2.828 . S
C785 C779 1.505 . S
C785 O797 1.249 . S
C785 O798 1.244 . S
O786 Eu777 2.373 . S
O786 C788 1.258 . S
O787 Eu776 2.392 . S
O787 C788 1.242 . S
C788 O786 1.258 . S
C788 O787 1.242 . S
O789 Eu776 2.418 . S
O789 C793 1.244 . S
O790 Eu777 2.488 . S
O790 C806 1.249 . S
O791 Eu777 2.471 . S
O791 C806 1.244 . S
O792 Eu777 2.349 . S
O792 C793 1.265 . S
C793 O789 1.244 . S
C793 O792 1.265 . S
O794 Eu776 2.373 . S
O794 C807 1.258 . S
O795 Eu777 2.392 . S
O795 C807 1.242 . S
O796 Eu777 2.418 . S
O796 C778 1.244 . S
O797 Eu776 2.488 . S
O797 C785 1.249 . S
O798 Eu776 2.471 . S
O798 C785 1.244 . S
O799 Eu776 2.349 . S
O799 C778 1.265 . S
C800 C801 1.379 . S
C800 C804 1.373 . S
C800 C806 1.505 . S
C801 C800 1.379 . S
C801 C803 1.369 . S
C801 H812 0.930 . S
C802 C804 1.383 . S
C802 C805 1.382 . S
C802 H813 0.930 . S
C803 C801 1.369 . S
C803 C805 1.392 . S
C803 H814 0.930 . S
C804 C800 1.373 . S
C804 C802 1.383 . S
C804 H815 0.931 . S
C805 C802 1.382 . S
C805 C803 1.392 . S
C806 Eu777 2.828 . S
C806 O790 1.249 . S
C806 O791 1.244 . S
C806 C800 1.505 . S
C807 O794 1.258 . S
C807 O795 1.242 . S
H808 C780 0.930 . S
H809 C781 0.930 . S
H810 C782 0.930 . S
H811 C783 0.931 . S
H812 C801 0.930 . S
H813 C802 0.930 . S
H814 C803 0.930 . S
H815 C804 0.931 . S
Eu816 C825 2.828 . S
Eu816 O827 2.392 . S
Eu816 O829 2.418 . S
Eu816 O834 2.373 . S
Eu816 O837 2.488 . S
Eu816 O838 2.471 . S
Eu816 O839 2.349 . S
Eu817 O826 2.373 . S
Eu817 O830 2.488 . S
Eu817 O831 2.471 . S
Eu817 O832 2.349 . S
Eu817 O835 2.392 . S
Eu817 O836 2.418 . S
Eu817 C846 2.828 . S
C818 O836 1.244 . S
C818 O839 1.265 . S
C819 C820 1.379 . S
C819 C823 1.373 . S
C819 C825 1.505 . S
C820 C819 1.379 . S
C820 C822 1.369 . S
C820 H848 0.930 . S
C821 C823 1.383 . S
C821 C824 1.382 . S
C821 H849 0.930 . S
C822 C820 1.369 . S
C822 C824 1.392 . S
C822 H850 0.930 . S
C823 C819 1.373 . S
C823 C821 1.383 . S
C823 H851 0.931 . S
C824 C821 1.382 . S
C824 C822 1.392 . S
C825 Eu816 2.828 . S
C825 C819 1.505 . S
C825 O837 1.249 . S
C825 O838 1.244 . S
O826 Eu817 2.373 . S
O826 C828 1.258 . S
O827 Eu816 2.392 . S
O827 C828 1.242 . S
C828 O826 1.258 . S
C828 O827 1.242 . S
O829 Eu816 2.418 . S
O829 C833 1.244 . S
O830 Eu817 2.488 . S
O830 C846 1.249 . S
O831 Eu817 2.471 . S
O831 C846 1.244 . S
O832 Eu817 2.349 . S
O832 C833 1.265 . S
C833 O829 1.244 . S
C833 O832 1.265 . S
O834 Eu816 2.373 . S
O834 C847 1.258 . S
O835 Eu817 2.392 . S
O835 C847 1.242 . S
O836 Eu817 2.418 . S
O836 C818 1.244 . S
O837 Eu816 2.488 . S
O837 C825 1.249 . S
O838 Eu816 2.471 . S
O838 C825 1.244 . S
O839 Eu816 2.349 . S
O839 C818 1.265 . S
C840 C841 1.379 . S
C840 C844 1.373 . S
C840 C846 1.505 . S
C841 C840 1.379 . S
C841 C843 1.369 . S
C841 H852 0.930 . S
C842 C844 1.383 . S
C842 C845 1.382 . S
C842 H853 0.930 . S
C843 C841 1.369 . S
C843 C845 1.392 . S
C843 H854 0.930 . S
C844 C840 1.373 . S
C844 C842 1.383 . S
C844 H855 0.931 . S
C845 C842 1.382 . S
C845 C843 1.392 . S
C846 Eu817 2.828 . S
C846 O830 1.249 . S
C846 O831 1.244 . S
C846 C840 1.505 . S
C847 O834 1.258 . S
C847 O835 1.242 . S
H848 C820 0.930 . S
H849 C821 0.930 . S
H850 C822 0.930 . S
H851 C823 0.931 . S
H852 C841 0.930 . S
H853 C842 0.930 . S
H854 C843 0.930 . S
H855 C844 0.931 . S
Eu856 C865 2.828 . S
Eu856 O867 2.392 . S
Eu856 O869 2.418 . S
Eu856 O874 2.373 . S
Eu856 O877 2.488 . S
Eu856 O878 2.471 . S
Eu856 O879 2.349 . S
Eu857 O866 2.373 . S
Eu857 O870 2.488 . S
Eu857 O871 2.471 . S
Eu857 O872 2.349 . S
Eu857 O875 2.392 . S
Eu857 O876 2.418 . S
Eu857 C886 2.828 . S
C858 O876 1.244 . S
C858 O879 1.265 . S
C859 C860 1.379 . S
C859 C863 1.373 . S
C859 C865 1.505 . S
C860 C859 1.379 . S
C860 C862 1.369 . S
C860 H888 0.930 . S
C861 C863 1.383 . S
C861 C864 1.382 . S
C861 H889 0.930 . S
C862 C860 1.369 . S
C862 C864 1.392 . S
C862 H890 0.930 . S
C863 C859 1.373 . S
C863 C861 1.383 . S
C863 H891 0.931 . S
C864 C861 1.382 . S
C864 C862 1.392 . S
C865 Eu856 2.828 . S
C865 C859 1.505 . S
C865 O877 1.249 . S
C865 O878 1.244 . S
O866 Eu857 2.373 . S
O866 C868 1.258 . S
O867 Eu856 2.392 . S
O867 C868 1.242 . S
C868 O866 1.258 . S
C868 O867 1.242 . S
O869 Eu856 2.418 . S
O869 C873 1.244 . S
O870 Eu857 2.488 . S
O870 C886 1.249 . S
O871 Eu857 2.471 . S
O871 C886 1.244 . S
O872 Eu857 2.349 . S
O872 C873 1.265 . S
C873 O869 1.244 . S
C873 O872 1.265 . S
O874 Eu856 2.373 . S
O874 C887 1.258 . S
O875 Eu857 2.392 . S
O875 C887 1.242 . S
O876 Eu857 2.418 . S
O876 C858 1.244 . S
O877 Eu856 2.488 . S
O877 C865 1.249 . S
O878 Eu856 2.471 . S
O878 C865 1.244 . S
O879 Eu856 2.349 . S
O879 C858 1.265 . S
C880 C881 1.379 . S
C880 C884 1.373 . S
C880 C886 1.505 . S
C881 C880 1.379 . S
C881 C883 1.369 . S
C881 H892 0.930 . S
C882 C884 1.383 . S
C882 C885 1.382 . S
C882 H893 0.930 . S
C883 C881 1.369 . S
C883 C885 1.392 . S
C883 H894 0.930 . S
C884 C880 1.373 . S
C884 C882 1.383 . S
C884 H895 0.931 . S
C885 C882 1.382 . S
C885 C883 1.392 . S
C886 Eu857 2.828 . S
C886 O870 1.249 . S
C886 O871 1.244 . S
C886 C880 1.505 . S
C887 O874 1.258 . S
C887 O875 1.242 . S
H888 C860 0.930 . S
H889 C861 0.930 . S
H890 C862 0.930 . S
H891 C863 0.931 . S
H892 C881 0.930 . S
H893 C882 0.930 . S
H894 C883 0.930 . S
H895 C884 0.931 . S
Eu896 C905 2.828 . S
Eu896 O907 2.392 . S
Eu896 O909 2.418 . S
Eu896 O914 2.373 . S
Eu896 O917 2.488 . S
Eu896 O918 2.471 . S
Eu896 O919 2.349 . S
Eu897 O906 2.373 . S
Eu897 O910 2.488 . S
Eu897 O911 2.471 . S
Eu897 O912 2.349 . S
Eu897 O915 2.392 . S
Eu897 O916 2.418 . S
Eu897 C926 2.828 . S
C898 O916 1.244 . S
C898 O919 1.265 . S
C899 C900 1.379 . S
C899 C903 1.373 . S
C899 C905 1.505 . S
C900 C899 1.379 . S
C900 C902 1.369 . S
C900 H928 0.930 . S
C901 C903 1.383 . S
C901 C904 1.382 . S
C901 H929 0.930 . S
C902 C900 1.369 . S
C902 C904 1.392 . S
C902 H930 0.930 . S
C903 C899 1.373 . S
C903 C901 1.383 . S
C903 H931 0.931 . S
C904 C901 1.382 . S
C904 C902 1.392 . S
C905 Eu896 2.828 . S
C905 C899 1.505 . S
C905 O917 1.249 . S
C905 O918 1.244 . S
O906 Eu897 2.373 . S
O906 C908 1.258 . S
O907 Eu896 2.392 . S
O907 C908 1.242 . S
C908 O906 1.258 . S
C908 O907 1.242 . S
O909 Eu896 2.418 . S
O909 C913 1.244 . S
O910 Eu897 2.488 . S
O910 C926 1.249 . S
O911 Eu897 2.471 . S
O911 C926 1.244 . S
O912 Eu897 2.349 . S
O912 C913 1.265 . S
C913 O909 1.244 . S
C913 O912 1.265 . S
O914 Eu896 2.373 . S
O914 C927 1.258 . S
O915 Eu897 2.392 . S
O915 C927 1.242 . S
O916 Eu897 2.418 . S
O916 C898 1.244 . S
O917 Eu896 2.488 . S
O917 C905 1.249 . S
O918 Eu896 2.471 . S
O918 C905 1.244 . S
O919 Eu896 2.349 . S
O919 C898 1.265 . S
C920 C921 1.379 . S
C920 C924 1.373 . S
C920 C926 1.505 . S
C921 C920 1.379 . S
C921 C923 1.369 . S
C921 H932 0.930 . S
C922 C924 1.383 . S
C922 C925 1.382 . S
C922 H933 0.930 . S
C923 C921 1.369 . S
C923 C925 1.392 . S
C923 H934 0.930 . S
C924 C920 1.373 . S
C924 C922 1.383 . S
C924 H935 0.931 . S
C925 C922 1.382 . S
C925 C923 1.392 . S
C926 Eu897 2.828 . S
C926 O910 1.249 . S
C926 O911 1.244 . S
C926 C920 1.505 . S
C927 O914 1.258 . S
C927 O915 1.242 . S
H928 C900 0.930 . S
H929 C901 0.930 . S
H930 C902 0.930 . S
H931 C903 0.931 . S
H932 C921 0.930 . S
H933 C922 0.930 . S
H934 C923 0.930 . S
H935 C924 0.931 . S
Eu936 C945 2.828 1_554 S
Eu936 O947 2.392 . S
Eu936 O949 2.418 1_554 S
Eu936 O954 2.373 1_554 S
Eu936 O957 2.488 1_554 S
Eu936 O958 2.471 . S
Eu936 O959 2.349 . S
Eu937 O946 2.373 . S
Eu937 O950 2.488 1_455 S
Eu937 O951 2.471 1_455 S
Eu937 O952 2.349 1_554 S
Eu937 O955 2.392 . S
Eu937 O956 2.418 . S
Eu937 C966 2.828 1_455 S
C938 O956 1.244 . S
C938 O959 1.265 . S
C939 C940 1.379 1_556 S
C939 C943 1.373 . S
C939 C945 1.505 . S
C940 C939 1.379 1_554 S
C940 C942 1.369 . S
C940 H968 0.930 . S
C941 C943 1.383 . S
C941 C944 1.382 . S
C941 H969 0.930 . S
C942 C940 1.369 . S
C942 C944 1.392 1_554 S
C942 H970 0.930 . S
C943 C939 1.373 . S
C943 C941 1.383 . S
C943 H971 0.931 . S
C944 C941 1.382 . S
C944 C942 1.392 1_556 S
C945 Eu936 2.828 1_556 S
C945 C939 1.505 . S
C945 O957 1.249 . S
C945 O958 1.244 1_556 S
O946 Eu937 2.373 . S
O946 C948 1.258 . S
O947 Eu936 2.392 . S
O947 C948 1.242 . S
C948 O946 1.258 . S
C948 O947 1.242 . S
O949 Eu936 2.418 1_556 S
O949 C953 1.244 . S
O950 Eu937 2.488 1_655 S
O950 C966 1.249 . S
O951 Eu937 2.471 1_655 S
O951 C966 1.244 . S
O952 Eu937 2.349 1_556 S
O952 C953 1.265 . S
C953 O949 1.244 . S
C953 O952 1.265 . S
O954 Eu936 2.373 1_556 S
O954 C967 1.258 1_556 S
O955 Eu937 2.392 . S
O955 C967 1.242 . S
O956 Eu937 2.418 . S
O956 C938 1.244 . S
O957 Eu936 2.488 1_556 S
O957 C945 1.249 . S
O958 Eu936 2.471 . S
O958 C945 1.244 1_554 S
O959 Eu936 2.349 . S
O959 C938 1.265 . S
C960 C961 1.379 . S
C960 C964 1.373 . S
C960 C966 1.505 . S
C961 C960 1.379 . S
C961 C963 1.369 . S
C961 H972 0.930 . S
C962 C964 1.383 . S
C962 C965 1.382 . S
C962 H973 0.930 . S
C963 C961 1.369 . S
C963 C965 1.392 . S
C963 H974 0.930 . S
C964 C960 1.373 . S
C964 C962 1.383 . S
C964 H975 0.931 . S
C965 C962 1.382 . S
C965 C963 1.392 . S
C966 Eu937 2.828 1_655 S
C966 O950 1.249 . S
C966 O951 1.244 . S
C966 C960 1.505 . S
C967 O954 1.258 1_554 S
C967 O955 1.242 . S
H968 C940 0.930 . S
H969 C941 0.930 . S
H970 C942 0.930 . S
H971 C943 0.931 . S
H972 C961 0.930 . S
H973 C962 0.930 . S
H974 C963 0.930 . S
H975 C964 0.931 . S
C976 C977 1.387 . S
C976 H980 0.950 . S
C976 C985 1.390 . S
C977 C976 1.387 . S
C977 C979 1.387 . S
H978 C985 0.950 1_554 S
C979 C977 1.387 . S
C979 C981 1.390 . S
C979 H983 0.950 . S
H980 C976 0.950 . S
C981 C979 1.390 . S
C981 C982 1.387 . S
C981 H984 0.950 . S
C982 C981 1.387 . S
C982 C985 1.387 . S
H983 C979 0.950 . S
H984 C981 0.950 . S
C985 C976 1.390 . S
C985 H978 0.950 1_556 S
C985 C982 1.387 . S
C986 C987 1.387 . S
C986 H990 0.950 . S
C986 C995 1.390 . S
C987 C986 1.387 . S
C987 C989 1.387 . S
H988 C995 0.950 . S
C989 C987 1.387 . S
C989 C991 1.390 . S
C989 H993 0.950 . S
H990 C986 0.950 . S
C991 C989 1.390 . S
C991 C992 1.387 . S
C991 H994 0.950 . S
C992 C991 1.387 . S
C992 C995 1.387 . S
H993 C989 0.950 . S
H994 C991 0.950 . S
C995 C986 1.390 . S
C995 H988 0.950 . S
C995 C992 1.387 . S
C996 C997 1.387 . S
C996 H1000 0.950 . S
C996 C1005 1.390 . S
C997 C996 1.387 . S
C997 C999 1.387 . S
H998 C1005 0.950 . S
C999 C997 1.387 . S
C999 C1001 1.390 . S
C999 H1003 0.950 . S
H1000 C996 0.950 . S
C1001 C999 1.390 . S
C1001 C1002 1.387 . S
C1001 H1004 0.950 . S
C1002 C1001 1.387 . S
C1002 C1005 1.387 . S
H1003 C999 0.950 . S
H1004 C1001 0.950 . S
C1005 C996 1.390 . S
C1005 H998 0.950 . S
C1005 C1002 1.387 . S
C1006 C1007 1.387 . S
C1006 H1010 0.950 . S
C1006 C1015 1.390 . S
C1007 C1006 1.387 . S
C1007 C1009 1.387 . S
H1008 C1015 0.950 . S
C1009 C1007 1.387 . S
C1009 C1011 1.390 . S
C1009 H1013 0.950 . S
H1010 C1006 0.950 . S
C1011 C1009 1.390 . S
C1011 C1012 1.387 . S
C1011 H1014 0.950 . S
C1012 C1011 1.387 . S
C1012 C1015 1.387 . S
H1013 C1009 0.950 . S
H1014 C1011 0.950 . S
C1015 C1006 1.390 . S
C1015 H1008 0.950 . S
C1015 C1012 1.387 . S
C1016 C1017 1.387 . S
C1016 H1020 0.950 . S
C1016 C1025 1.390 . S
C1017 C1016 1.387 . S
C1017 C1019 1.387 . S
H1018 C1025 0.950 . S
C1019 C1017 1.387 . S
C1019 C1021 1.390 . S
C1019 H1023 0.950 . S
H1020 C1016 0.950 . S
C1021 C1019 1.390 . S
C1021 C1022 1.387 . S
C1021 H1024 0.950 . S
C1022 C1021 1.387 . S
C1022 C1025 1.387 . S
H1023 C1019 0.950 . S
H1024 C1021 0.950 . S
C1025 C1016 1.390 . S
C1025 H1018 0.950 . S
C1025 C1022 1.387 . S
C1026 C1027 1.387 . S
C1026 H1030 0.950 . S
C1026 C1035 1.390 . S
C1027 C1026 1.387 . S
C1027 C1029 1.387 . S
H1028 C1035 0.950 . S
C1029 C1027 1.387 . S
C1029 C1031 1.390 . S
C1029 H1033 0.950 . S
H1030 C1026 0.950 . S
C1031 C1029 1.390 . S
C1031 C1032 1.387 . S
C1031 H1034 0.950 . S
C1032 C1031 1.387 . S
C1032 C1035 1.387 . S
H1033 C1029 0.950 . S
H1034 C1031 0.950 . S
C1035 C1026 1.390 . S
C1035 H1028 0.950 . S
C1035 C1032 1.387 . S
C1036 C1037 1.387 . S
C1036 H1040 0.950 . S
C1036 C1045 1.390 . S
C1037 C1036 1.387 . S
C1037 C1039 1.387 . S
H1038 C1045 0.950 . S
C1039 C1037 1.387 . S
C1039 C1041 1.390 . S
C1039 H1043 0.950 . S
H1040 C1036 0.950 . S
C1041 C1039 1.390 . S
C1041 C1042 1.387 . S
C1041 H1044 0.950 . S
C1042 C1041 1.387 . S
C1042 C1045 1.387 . S
H1043 C1039 0.950 . S
H1044 C1041 0.950 . S
C1045 C1036 1.390 . S
C1045 H1038 0.950 . S
C1045 C1042 1.387 . S
C1046 C1047 1.387 . S
C1046 H1050 0.950 . S
C1046 C1055 1.390 . S
C1047 C1046 1.387 . S
C1047 C1049 1.387 . S
H1048 C1055 0.950 . S
C1049 C1047 1.387 . S
C1049 C1051 1.390 . S
C1049 H1053 0.950 . S
H1050 C1046 0.950 . S
C1051 C1049 1.390 . S
C1051 C1052 1.387 . S
C1051 H1054 0.950 . S
C1052 C1051 1.387 . S
C1052 C1055 1.387 . S
H1053 C1049 0.950 . S
H1054 C1051 0.950 . S
C1055 C1046 1.390 . S
C1055 H1048 0.950 . S
C1055 C1052 1.387 . S
C1056 C1057 1.388 1_455 S
C1056 H1060 0.950 1_455 S
C1056 C1065 1.390 . S
C1057 C1056 1.388 1_655 S
C1057 C1059 1.388 1_655 S
H1058 C1065 0.950 . S
C1059 C1057 1.388 1_455 S
C1059 C1061 1.390 . S
C1059 H1063 0.950 . S
H1060 C1056 0.950 1_655 S
C1061 C1059 1.390 . S
C1061 C1062 1.387 . S
C1061 H1064 0.950 . S
C1062 C1061 1.387 . S
C1062 C1065 1.387 . S
H1063 C1059 0.950 . S
H1064 C1061 0.950 . S
C1065 C1056 1.390 . S
C1065 H1058 0.950 . S
C1065 C1062 1.387 . S
C1066 C1067 1.387 . S
C1066 H1070 0.950 . S
C1066 C1075 1.390 . S
C1067 C1066 1.387 . S
C1067 C1069 1.387 . S
H1068 C1075 0.950 . S
C1069 C1067 1.387 . S
C1069 C1071 1.390 . S
C1069 H1073 0.950 . S
H1070 C1066 0.950 . S
C1071 C1069 1.390 . S
C1071 C1072 1.387 . S
C1071 H1074 0.950 . S
C1072 C1071 1.387 . S
C1072 C1075 1.387 . S
H1073 C1069 0.950 . S
H1074 C1071 0.950 . S
C1075 C1066 1.390 . S
C1075 H1068 0.950 . S
C1075 C1072 1.387 . S
C1076 C1077 1.387 . S
C1076 H1080 0.950 . S
C1076 C1085 1.390 . S
C1077 C1076 1.387 . S
C1077 C1079 1.387 . S
H1078 C1085 0.950 . S
C1079 C1077 1.387 . S
C1079 C1081 1.390 . S
C1079 H1083 0.950 . S
H1080 C1076 0.950 . S
C1081 C1079 1.390 . S
C1081 C1082 1.387 . S
C1081 H1084 0.950 . S
C1082 C1081 1.387 . S
C1082 C1085 1.387 . S
H1083 C1079 0.950 . S
H1084 C1081 0.950 . S
C1085 C1076 1.390 . S
C1085 H1078 0.950 . S
C1085 C1082 1.387 . S
C1086 C1087 1.387 . S
C1086 H1090 0.950 . S
C1086 C1095 1.390 . S
C1087 C1086 1.387 . S
C1087 C1089 1.387 . S
H1088 C1095 0.950 . S
C1089 C1087 1.387 . S
C1089 C1091 1.390 . S
C1089 H1093 0.950 . S
H1090 C1086 0.950 . S
C1091 C1089 1.390 . S
C1091 C1092 1.387 . S
C1091 H1094 0.950 . S
C1092 C1091 1.387 . S
C1092 C1095 1.387 . S
H1093 C1089 0.950 . S
H1094 C1091 0.950 . S
C1095 C1086 1.390 . S
C1095 H1088 0.950 . S
C1095 C1092 1.387 . S
C1096 C1097 1.387 1_455 S
C1096 H1100 0.950 . S
C1096 C1105 1.390 . S
C1097 C1096 1.387 1_655 S
C1097 C1099 1.387 . S
H1098 C1105 0.950 . S
C1099 C1097 1.387 . S
C1099 C1101 1.409 . S
C1099 H1103 0.950 . S
H1100 C1096 0.950 . S
C1101 C1099 1.409 . S
C1101 C1102 1.350 1_655 S
C1101 H1104 0.969 . S
C1102 C1101 1.350 1_455 S
C1102 C1105 1.387 . S
H1103 C1099 0.950 . S
H1104 C1101 0.969 . S
C1105 C1096 1.390 . S
C1105 H1098 0.950 . S
C1105 C1102 1.387 . S
C1106 C1107 1.387 . S
C1106 H1110 0.950 . S
C1106 C1115 1.390 . S
C1107 C1106 1.387 . S
C1107 C1109 1.387 . S
H1108 C1115 0.950 . S
C1109 C1107 1.387 . S
C1109 C1111 1.390 . S
C1109 H1113 0.950 . S
H1110 C1106 0.950 . S
C1111 C1109 1.390 . S
C1111 C1112 1.387 . S
C1111 H1114 0.950 . S
C1112 C1111 1.387 . S
C1112 C1115 1.387 . S
H1113 C1109 0.950 . S
H1114 C1111 0.950 . S
C1115 C1106 1.390 . S
C1115 H1108 0.950 . S
C1115 C1112 1.387 . S
C1116 C1117 1.387 . S
C1116 H1120 0.950 . S
C1116 C1125 1.390 . S
C1117 C1116 1.387 . S
C1117 C1119 1.387 . S
H1118 C1125 0.950 . S
C1119 C1117 1.387 . S
C1119 C1121 1.390 . S
C1119 H1123 0.950 . S
H1120 C1116 0.950 . S
C1121 C1119 1.390 . S
C1121 C1122 1.387 . S
C1121 H1124 0.950 . S
C1122 C1121 1.387 . S
C1122 C1125 1.387 . S
H1123 C1119 0.950 . S
H1124 C1121 0.950 . S
C1125 C1116 1.390 . S
C1125 H1118 0.950 . S
C1125 C1122 1.387 . S
C1126 C1127 1.387 . S
C1126 H1130 0.950 . S
C1126 C1135 1.390 . S
C1127 C1126 1.387 . S
C1127 C1129 1.387 . S
H1128 C1135 0.950 . S
C1129 C1127 1.387 . S
C1129 C1131 1.390 . S
C1129 H1133 0.950 . S
H1130 C1126 0.950 . S
C1131 C1129 1.390 . S
C1131 C1132 1.387 . S
C1131 H1134 0.950 . S
C1132 C1131 1.387 . S
C1132 C1135 1.387 . S
H1133 C1129 0.950 . S
H1134 C1131 0.950 . S
C1135 C1126 1.390 . S
C1135 H1128 0.950 . S
C1135 C1132 1.387 . S
C1136 C1137 1.387 . S
C1136 H1140 0.950 . S
C1136 C1145 1.390 . S
C1137 C1136 1.387 . S
C1137 C1139 1.387 1_564 S
H1138 C1145 0.950 . S
C1139 C1137 1.387 1_546 S
C1139 C1141 1.390 1_556 S
C1139 H1143 0.950 . S
H1140 C1136 0.950 . S
C1141 C1139 1.390 1_554 S
C1141 C1142 1.387 . S
C1141 H1144 0.950 1_554 S
C1142 C1141 1.387 . S
C1142 C1145 1.387 1_545 S
H1143 C1139 0.950 . S
H1144 C1141 0.950 1_556 S
C1145 C1136 1.390 . S
C1145 H1138 0.950 . S
C1145 C1142 1.387 1_565 S
C1146 C1147 1.387 . S
C1146 H1150 0.950 . S
C1146 C1155 1.390 . S
C1147 C1146 1.387 . S
C1147 C1149 1.387 1_554 S
H1148 C1155 0.950 . S
C1149 C1147 1.387 1_556 S
C1149 C1151 1.390 . S
C1149 H1153 0.950 . S
H1150 C1146 0.950 . S
C1151 C1149 1.390 . S
C1151 C1152 1.387 1_556 S
C1151 H1154 0.950 . S
C1152 C1151 1.387 1_554 S
C1152 C1155 1.387 . S
H1153 C1149 0.950 . S
H1154 C1151 0.950 . S
C1155 C1146 1.390 . S
C1155 H1148 0.950 . S
C1155 C1152 1.387 . S
C1156 C1157 1.387 . S
C1156 H1160 0.950 . S
C1156 C1165 1.390 . S
C1157 C1156 1.387 . S
C1157 C1159 1.387 . S
H1158 C1165 0.950 . S
C1159 C1157 1.387 . S
C1159 C1161 1.390 . S
C1159 H1163 0.950 . S
H1160 C1156 0.950 . S
C1161 C1159 1.390 . S
C1161 C1162 1.387 . S
C1161 H1164 0.950 . S
C1162 C1161 1.387 . S
C1162 C1165 1.387 . S
H1163 C1159 0.950 . S
H1164 C1161 0.950 . S
C1165 C1156 1.390 . S
C1165 H1158 0.950 . S
C1165 C1162 1.387 . S
C1166 C1167 1.387 . S
C1166 H1170 0.950 . S
C1166 C1175 1.390 . S
C1167 C1166 1.387 . S
C1167 C1169 1.387 . S
H1168 C1175 0.950 . S
C1169 C1167 1.387 . S
C1169 C1171 1.390 . S
C1169 H1173 0.950 . S
H1170 C1166 0.950 . S
C1171 C1169 1.390 . S
C1171 C1172 1.387 . S
C1171 H1174 0.950 . S
C1172 C1171 1.387 . S
C1172 C1175 1.387 . S
H1173 C1169 0.950 . S
H1174 C1171 0.950 . S
C1175 C1166 1.390 . S
C1175 H1168 0.950 . S
C1175 C1172 1.387 . S
C1176 C1177 1.387 . S
C1176 H1180 0.950 . S
C1176 C1185 1.390 . S
C1177 C1176 1.387 . S
C1177 C1179 1.387 . S
H1178 C1185 0.950 . S
C1179 C1177 1.387 . S
C1179 C1181 1.390 . S
C1179 H1183 0.950 . S
H1180 C1176 0.950 . S
C1181 C1179 1.390 . S
C1181 C1182 1.387 . S
C1181 H1184 0.950 . S
C1182 C1181 1.387 . S
C1182 C1185 1.387 . S
H1183 C1179 0.950 . S
H1184 C1181 0.950 . S
C1185 C1176 1.390 . S
C1185 H1178 0.950 . S
C1185 C1182 1.387 . S
C1186 C1187 1.387 . S
C1186 H1190 0.950 . S
C1186 C1195 1.390 . S
C1187 C1186 1.387 . S
C1187 C1189 1.387 . S
H1188 C1195 0.950 . S
C1189 C1187 1.387 . S
C1189 C1191 1.390 . S
C1189 H1193 0.950 . S
H1190 C1186 0.950 . S
C1191 C1189 1.390 . S
C1191 C1192 1.387 . S
C1191 H1194 0.950 . S
C1192 C1191 1.387 . S
C1192 C1195 1.387 . S
H1193 C1189 0.950 . S
H1194 C1191 0.950 . S
C1195 C1186 1.390 . S
C1195 H1188 0.950 . S
C1195 C1192 1.387 . S
C1196 C1197 1.387 . S
C1196 H1200 0.950 . S
C1196 C1205 1.390 . S
C1197 C1196 1.387 . S
C1197 C1199 1.387 . S
H1198 C1205 0.950 . S
C1199 C1197 1.387 . S
C1199 C1201 1.390 . S
C1199 H1203 0.950 . S
H1200 C1196 0.950 . S
C1201 C1199 1.390 . S
C1201 C1202 1.387 . S
C1201 H1204 0.950 . S
C1202 C1201 1.387 . S
C1202 C1205 1.387 . S
H1203 C1199 0.950 . S
H1204 C1201 0.950 . S
C1205 C1196 1.390 . S
C1205 H1198 0.950 . S
C1205 C1202 1.387 . S
C1206 C1207 1.387 . S
C1206 H1210 0.950 . S
C1206 C1215 1.390 . S
C1207 C1206 1.387 . S
C1207 C1209 1.387 . S
H1208 C1215 0.950 . S
C1209 C1207 1.387 . S
C1209 C1211 1.390 . S
C1209 H1213 0.950 . S
H1210 C1206 0.950 . S
C1211 C1209 1.390 . S
C1211 C1212 1.387 . S
C1211 H1214 0.950 . S
C1212 C1211 1.387 . S
C1212 C1215 1.387 . S
H1213 C1209 0.950 . S
H1214 C1211 0.950 . S
C1215 C1206 1.390 . S
C1215 H1208 0.950 . S
C1215 C1212 1.387 . S
C1216 C1217 1.387 . S
C1216 H1220 0.950 . S
C1216 C1225 1.390 . S
C1217 C1216 1.387 . S
C1217 C1219 1.387 . S
H1218 C1225 0.950 . S
C1219 C1217 1.387 . S
C1219 C1221 1.390 . S
C1219 H1223 0.950 . S
H1220 C1216 0.950 . S
C1221 C1219 1.390 . S
C1221 C1222 1.387 . S
C1221 H1224 0.950 . S
C1222 C1221 1.387 . S
C1222 C1225 1.387 . S
H1223 C1219 0.950 . S
H1224 C1221 0.950 . S
C1225 C1216 1.390 . S
C1225 H1218 0.950 . S
C1225 C1222 1.387 . S
C1226 C1227 1.387 . S
C1226 H1230 0.950 . S
C1226 C1235 1.390 . S
C1227 C1226 1.387 . S
C1227 C1229 1.387 . S
H1228 C1235 0.950 . S
C1229 C1227 1.387 . S
C1229 C1231 1.390 . S
C1229 H1233 0.950 . S
H1230 C1226 0.950 . S
C1231 C1229 1.390 . S
C1231 C1232 1.387 . S
C1231 H1234 0.950 . S
C1232 C1231 1.387 . S
C1232 C1235 1.387 . S
H1233 C1229 0.950 . S
H1234 C1231 0.950 . S
C1235 C1226 1.390 . S
C1235 H1228 0.950 . S
C1235 C1232 1.387 . S
C1236 C1237 1.387 . S
C1236 H1240 0.950 . S
C1236 C1245 1.390 . S
C1237 C1236 1.387 . S
C1237 C1239 1.387 . S
H1238 C1245 0.950 . S
C1239 C1237 1.387 . S
C1239 C1241 1.390 . S
C1239 H1243 0.950 . S
H1240 C1236 0.950 . S
C1241 C1239 1.390 . S
C1241 C1242 1.387 . S
C1241 H1244 0.950 . S
C1242 C1241 1.387 . S
C1242 C1245 1.387 . S
H1243 C1239 0.950 . S
H1244 C1241 0.950 . S
C1245 C1236 1.390 . S
C1245 H1238 0.950 . S
C1245 C1242 1.387 . S
C1246 C1247 1.387 . S
C1246 H1250 0.950 . S
C1246 C1255 1.390 . S
C1247 C1246 1.387 . S
C1247 C1249 1.387 . S
H1248 C1255 0.950 . S
C1249 C1247 1.387 . S
C1249 C1251 1.390 . S
C1249 H1253 0.950 . S
H1250 C1246 0.950 . S
C1251 C1249 1.390 . S
C1251 C1252 1.387 . S
C1251 H1254 0.950 . S
C1252 C1251 1.387 . S
C1252 C1255 1.387 . S
H1253 C1249 0.950 . S
H1254 C1251 0.950 . S
C1255 C1246 1.390 . S
C1255 H1248 0.950 . S
C1255 C1252 1.387 . S
C1256 C1257 1.387 . S
C1256 H1260 0.950 . S
C1256 C1265 1.390 . S
C1257 C1256 1.387 . S
C1257 C1259 1.387 . S
H1258 C1265 0.950 . S
C1259 C1257 1.387 . S
C1259 C1261 1.390 . S
C1259 H1263 0.950 . S
H1260 C1256 0.950 . S
C1261 C1259 1.390 . S
C1261 C1262 1.387 . S
C1261 H1264 0.950 . S
C1262 C1261 1.387 . S
C1262 C1265 1.387 . S
H1263 C1259 0.950 . S
H1264 C1261 0.950 . S
C1265 C1256 1.390 . S
C1265 H1258 0.950 . S
C1265 C1262 1.387 . S
C1266 C1267 1.387 . S
C1266 H1270 0.950 . S
C1266 C1275 1.390 . S
C1267 C1266 1.387 . S
C1267 C1269 1.387 . S
H1268 C1275 0.950 . S
C1269 C1267 1.387 . S
C1269 C1271 1.390 . S
C1269 H1273 0.950 . S
H1270 C1266 0.950 . S
C1271 C1269 1.390 . S
C1271 C1272 1.387 . S
C1271 H1274 0.950 . S
C1272 C1271 1.387 . S
C1272 C1275 1.387 . S
H1273 C1269 0.950 . S
H1274 C1271 0.950 . S
C1275 C1266 1.390 . S
C1275 H1268 0.950 . S
C1275 C1272 1.387 . S
C1276 C1277 1.387 . S
C1276 H1280 0.950 . S
C1276 C1285 1.390 . S
C1277 C1276 1.387 . S
C1277 C1279 1.387 . S
H1278 C1285 0.950 . S
C1279 C1277 1.387 . S
C1279 C1281 1.390 . S
C1279 H1283 0.950 . S
H1280 C1276 0.950 . S
C1281 C1279 1.390 . S
C1281 C1282 1.387 . S
C1281 H1284 0.950 1_556 S
C1282 C1281 1.387 . S
C1282 C1285 1.387 . S
H1283 C1279 0.950 . S
H1284 C1281 0.950 1_554 S
C1285 C1276 1.390 . S
C1285 H1278 0.950 . S
C1285 C1282 1.387 . S
C1286 C1287 1.387 . S
C1286 H1290 0.950 . S
C1286 C1295 1.390 . S
C1287 C1286 1.387 . S
C1287 C1289 1.387 . S
H1288 C1295 0.950 . S
C1289 C1287 1.387 . S
C1289 C1291 1.390 . S
C1289 H1293 0.950 . S
H1290 C1286 0.950 . S
C1291 C1289 1.390 . S
C1291 C1292 1.387 . S
C1291 H1294 0.950 . S
C1292 C1291 1.387 . S
C1292 C1295 1.387 . S
H1293 C1289 0.950 . S
H1294 C1291 0.950 . S
C1295 C1286 1.390 . S
C1295 H1288 0.950 . S
C1295 C1292 1.387 . S
C1296 C1297 1.387 . S
C1296 H1300 0.950 . S
C1296 C1305 1.390 . S
C1297 C1296 1.387 . S
C1297 C1299 1.387 . S
H1298 C1305 0.950 . S
C1299 C1297 1.387 . S
C1299 C1301 1.390 . S
C1299 H1303 0.950 1_545 S
H1300 C1296 0.950 . S
C1301 C1299 1.390 . S
C1301 C1302 1.387 . S
C1301 H1304 0.950 1_545 S
C1302 C1301 1.387 . S
C1302 C1305 1.387 . S
H1303 C1299 0.950 1_565 S
H1304 C1301 0.950 1_565 S
C1305 C1296 1.390 . S
C1305 H1298 0.950 . S
C1305 C1302 1.387 . S
C1306 C1307 1.387 . S
C1306 H1310 0.950 . S
C1306 C1315 1.390 . S
C1307 C1306 1.387 . S
C1307 C1309 1.387 . S
H1308 C1315 0.950 . S
C1309 C1307 1.387 . S
C1309 C1311 1.390 . S
C1309 H1313 0.950 . S
H1310 C1306 0.950 . S
C1311 C1309 1.390 . S
C1311 C1312 1.387 . S
C1311 H1314 0.950 . S
C1312 C1311 1.387 . S
C1312 C1315 1.387 . S
H1313 C1309 0.950 . S
H1314 C1311 0.950 . S
C1315 C1306 1.390 . S
C1315 H1308 0.950 . S
C1315 C1312 1.387 . S
C1316 C1317 1.387 1_565 S
C1316 H1320 0.950 . S
C1316 C1325 1.390 1_565 S
C1317 C1316 1.387 1_545 S
C1317 C1319 1.387 . S
H1318 C1325 0.950 1_565 S
C1319 C1317 1.387 . S
C1319 C1321 1.390 . S
C1319 H1323 0.950 . S
H1320 C1316 0.950 . S
C1321 C1319 1.390 . S
C1321 C1322 1.387 . S
C1321 H1324 0.950 . S
C1322 C1321 1.387 . S
C1322 C1325 1.387 . S
H1323 C1319 0.950 . S
H1324 C1321 0.950 . S
C1325 C1316 1.390 1_545 S
C1325 H1318 0.950 1_545 S
C1325 C1322 1.387 . S
C1326 C1327 1.387 . S
C1326 H1330 0.950 . S
C1326 C1335 1.390 . S
C1327 C1326 1.387 . S
C1327 C1329 1.387 . S
H1328 C1335 0.950 . S
C1329 C1327 1.387 . S
C1329 C1331 1.390 . S
C1329 H1333 0.950 . S
H1330 C1326 0.950 . S
C1331 C1329 1.390 . S
C1331 C1332 1.387 . S
C1331 H1334 0.950 . S
C1332 C1331 1.387 . S
C1332 C1335 1.387 . S
H1333 C1329 0.950 . S
H1334 C1331 0.950 . S
C1335 C1326 1.390 . S
C1335 H1328 0.950 . S
C1335 C1332 1.387 . S
C1336 C1337 1.387 1_565 S
C1336 H1340 0.950 . S
C1336 C1345 1.405 . S
C1337 C1336 1.387 1_545 S
C1337 C1339 1.387 . S
H1338 C1345 0.964 . S
C1339 C1337 1.387 . S
C1339 C1341 1.390 . S
C1339 H1343 0.950 . S
H1340 C1336 0.950 . S
C1341 C1339 1.390 . S
C1341 C1342 1.387 . S
C1341 H1344 0.950 . S
C1342 C1341 1.387 . S
C1342 C1345 1.359 1_545 S
H1343 C1339 0.950 . S
H1344 C1341 0.950 . S
C1345 C1336 1.405 . S
C1345 H1338 0.964 . S
C1345 C1342 1.359 1_565 S
C1346 C1347 1.387 . S
C1346 H1350 0.950 . S
C1346 C1355 1.390 . S
C1347 C1346 1.387 . S
C1347 C1349 1.387 . S
H1348 C1355 0.950 . S
C1349 C1347 1.387 . S
C1349 C1351 1.390 . S
C1349 H1353 0.950 . S
H1350 C1346 0.950 . S
C1351 C1349 1.390 . S
C1351 C1352 1.387 . S
C1351 H1354 0.950 . S
C1352 C1351 1.387 . S
C1352 C1355 1.387 . S
H1353 C1349 0.950 . S
H1354 C1351 0.950 . S
C1355 C1346 1.390 . S
C1355 H1348 0.950 . S
C1355 C1352 1.387 . S
C1356 C1357 1.387 1_545 S
C1356 H1360 0.950 . S
C1356 C1365 1.390 . S
C1357 C1356 1.387 1_565 S
C1357 C1359 1.387 . S
H1358 C1365 0.950 . S
C1359 C1357 1.387 . S
C1359 C1361 1.390 . S
C1359 H1363 0.950 . S
H1360 C1356 0.950 . S
C1361 C1359 1.390 . S
C1361 C1362 1.387 . S
C1361 H1364 0.950 . S
C1362 C1361 1.387 . S
C1362 C1365 1.387 1_565 S
H1363 C1359 0.950 . S
H1364 C1361 0.950 . S
C1365 C1356 1.390 . S
C1365 H1358 0.950 . S
C1365 C1362 1.387 1_545 S
C1366 C1367 1.387 . S
C1366 H1370 0.950 . S
C1366 C1375 1.390 . S
C1367 C1366 1.387 . S
C1367 C1369 1.387 . S
H1368 C1375 0.950 . S
C1369 C1367 1.387 . S
C1369 C1371 1.390 . S
C1369 H1373 0.950 . S
H1370 C1366 0.950 . S
C1371 C1369 1.390 . S
C1371 C1372 1.387 . S
C1371 H1374 0.950 . S
C1372 C1371 1.387 . S
C1372 C1375 1.387 . S
H1373 C1369 0.950 . S
H1374 C1371 0.950 . S
C1375 C1366 1.390 . S
C1375 H1368 0.950 . S
C1375 C1372 1.387 . S
C1376 C1377 1.387 . S
C1376 H1380 0.950 . S
C1376 C1385 1.390 . S
C1377 C1376 1.387 . S
C1377 C1379 1.387 . S
H1378 C1385 0.950 . S
C1379 C1377 1.387 . S
C1379 C1381 1.390 1_554 S
C1379 H1383 0.950 1_554 S
H1380 C1376 0.950 . S
C1381 C1379 1.390 1_556 S
C1381 C1382 1.387 1_556 S
C1381 H1384 0.950 . S
C1382 C1381 1.387 1_554 S
C1382 C1385 1.387 . S
H1383 C1379 0.950 1_556 S
H1384 C1381 0.950 . S
C1385 C1376 1.390 . S
C1385 H1378 0.950 . S
C1385 C1382 1.387 . S
C1386 C1387 1.387 . S
C1386 H1390 0.950 . S
C1386 C1395 1.390 . S
C1387 C1386 1.387 . S
C1387 C1389 1.387 . S
H1388 C1395 0.950 . S
C1389 C1387 1.387 . S
C1389 C1391 1.390 . S
C1389 H1393 0.950 1_554 S
H1390 C1386 0.950 . S
C1391 C1389 1.390 . S
C1391 C1392 1.387 . S
C1391 H1394 0.950 1_554 S
C1392 C1391 1.387 . S
C1392 C1395 1.387 . S
H1393 C1389 0.950 1_556 S
H1394 C1391 0.950 1_556 S
C1395 C1386 1.390 . S
C1395 H1388 0.950 . S
C1395 C1392 1.387 . S
C1396 C1397 1.387 . S
C1396 H1400 0.950 . S
C1396 C1405 1.390 . S
C1397 C1396 1.387 . S
C1397 C1399 1.387 . S
H1398 C1405 0.950 . S
C1399 C1397 1.387 . S
C1399 C1401 1.390 . S
C1399 H1403 0.950 . S
H1400 C1396 0.950 . S
C1401 C1399 1.390 . S
C1401 C1402 1.387 . S
C1401 H1404 0.950 . S
C1402 C1401 1.387 . S
C1402 C1405 1.387 . S
H1403 C1399 0.950 . S
H1404 C1401 0.950 . S
C1405 C1396 1.390 . S
C1405 H1398 0.950 . S
C1405 C1402 1.387 . S
C1406 C1407 1.387 . S
C1406 H1410 0.950 . S
C1406 C1415 1.390 . S
C1407 C1406 1.387 . S
C1407 C1409 1.387 . S
H1408 C1415 0.950 . S
C1409 C1407 1.387 . S
C1409 C1411 1.390 . S
C1409 H1413 0.950 . S
H1410 C1406 0.950 . S
C1411 C1409 1.390 . S
C1411 C1412 1.387 . S
C1411 H1414 0.950 . S
C1412 C1411 1.387 . S
C1412 C1415 1.387 . S
H1413 C1409 0.950 . S
H1414 C1411 0.950 . S
C1415 C1406 1.390 . S
C1415 H1408 0.950 . S
C1415 C1412 1.387 . S
C1416 C1417 1.387 1_565 S
C1416 H1420 0.950 . S
C1416 C1425 1.390 . S
C1417 C1416 1.387 1_545 S
C1417 C1419 1.387 . S
H1418 C1425 0.950 . S
C1419 C1417 1.387 . S
C1419 C1421 1.390 . S
C1419 H1423 0.950 . S
H1420 C1416 0.950 . S
C1421 C1419 1.390 . S
C1421 C1422 1.387 1_545 S
C1421 H1424 0.950 . S
C1422 C1421 1.387 1_565 S
C1422 C1425 1.387 . S
H1423 C1419 0.950 . S
H1424 C1421 0.950 . S
C1425 C1416 1.390 . S
C1425 H1418 0.950 . S
C1425 C1422 1.387 . S
C1426 C1427 1.387 . S
C1426 H1430 0.950 . S
C1426 C1435 1.390 . S
C1427 C1426 1.387 . S
C1427 C1429 1.387 . S
H1428 C1435 0.950 . S
C1429 C1427 1.387 . S
C1429 C1431 1.390 . S
C1429 H1433 0.950 . S
H1430 C1426 0.950 . S
C1431 C1429 1.390 . S
C1431 C1432 1.387 . S
C1431 H1434 0.950 . S
C1432 C1431 1.387 . S
C1432 C1435 1.387 . S
H1433 C1429 0.950 . S
H1434 C1431 0.950 . S
C1435 C1426 1.390 . S
C1435 H1428 0.950 . S
C1435 C1432 1.387 . S
C1436 C1437 1.387 . S
C1436 H1440 0.950 . S
C1436 C1445 1.390 . S
C1437 C1436 1.387 . S
C1437 C1439 1.387 . S
H1438 C1445 0.950 . S
C1439 C1437 1.387 . S
C1439 C1441 1.390 . S
C1439 H1443 0.950 . S
H1440 C1436 0.950 . S
C1441 C1439 1.390 . S
C1441 C1442 1.387 . S
C1441 H1444 0.950 . S
C1442 C1441 1.387 . S
C1442 C1445 1.387 . S
H1443 C1439 0.950 . S
H1444 C1441 0.950 . S
C1445 C1436 1.390 . S
C1445 H1438 0.950 . S
C1445 C1442 1.387 . S
C1446 C1447 1.387 . S
C1446 H1450 0.950 . S
C1446 C1455 1.390 . S
C1447 C1446 1.387 . S
C1447 C1449 1.387 . S
H1448 C1455 0.950 . S
C1449 C1447 1.387 . S
C1449 C1451 1.390 . S
C1449 H1453 0.950 . S
H1450 C1446 0.950 . S
C1451 C1449 1.390 . S
C1451 C1452 1.387 . S
C1451 H1454 0.950 . S
C1452 C1451 1.387 . S
C1452 C1455 1.387 . S
H1453 C1449 0.950 . S
H1454 C1451 0.950 . S
C1455 C1446 1.390 . S
C1455 H1448 0.950 . S
C1455 C1452 1.387 . S
C1456 C1457 1.387 . S
C1456 H1460 0.950 . S
C1456 C1465 1.390 . S
C1457 C1456 1.387 . S
C1457 C1459 1.387 . S
H1458 C1465 0.950 . S
C1459 C1457 1.387 . S
C1459 C1461 1.390 . S
C1459 H1463 0.950 . S
H1460 C1456 0.950 . S
C1461 C1459 1.390 . S
C1461 C1462 1.387 . S
C1461 H1464 0.950 . S
C1462 C1461 1.387 . S
C1462 C1465 1.387 . S
H1463 C1459 0.950 . S
H1464 C1461 0.950 . S
C1465 C1456 1.390 . S
C1465 H1458 0.950 . S
C1465 C1462 1.387 . S
C1466 C1467 1.387 . S
C1466 H1470 0.950 . S
C1466 C1475 1.390 . S
C1467 C1466 1.387 . S
C1467 C1469 1.387 . S
H1468 C1475 0.950 . S
C1469 C1467 1.387 . S
C1469 C1471 1.390 . S
C1469 H1473 0.950 . S
H1470 C1466 0.950 . S
C1471 C1469 1.390 . S
C1471 C1472 1.387 . S
C1471 H1474 0.950 . S
C1472 C1471 1.387 . S
C1472 C1475 1.387 . S
H1473 C1469 0.950 . S
H1474 C1471 0.950 . S
C1475 C1466 1.390 . S
C1475 H1468 0.950 . S
C1475 C1472 1.387 . S
C1476 C1477 1.387 . S
C1476 H1480 0.950 1_455 S
C1476 C1485 1.390 . S
C1477 C1476 1.387 . S
C1477 C1479 1.387 . S
H1478 C1485 0.950 . S
C1479 C1477 1.387 . S
C1479 C1481 1.390 . S
C1479 H1483 0.950 . S
H1480 C1476 0.950 1_655 S
C1481 C1479 1.390 . S
C1481 C1482 1.387 1_556 S
C1481 H1484 0.950 1_556 S
C1482 C1481 1.387 1_554 S
C1482 C1485 1.387 1_554 S
H1483 C1479 0.950 . S
H1484 C1481 0.950 1_554 S
C1485 C1476 1.390 . S
C1485 H1478 0.950 . S
C1485 C1482 1.387 1_556 S
C1486 C1487 1.387 . S
C1486 H1490 0.950 . S
C1486 C1495 1.390 1_455 S
C1487 C1486 1.387 . S
C1487 C1489 1.387 . S
H1488 C1495 0.950 . S
C1489 C1487 1.387 . S
C1489 C1491 1.390 1_455 S
C1489 H1493 0.950 . S
H1490 C1486 0.950 . S
C1491 C1489 1.390 1_655 S
C1491 C1492 1.387 . S
C1491 H1494 0.950 . S
C1492 C1491 1.387 . S
C1492 C1495 1.387 . S
H1493 C1489 0.950 . S
H1494 C1491 0.950 . S
C1495 C1486 1.390 1_655 S
C1495 H1488 0.950 . S
C1495 C1492 1.387 . S
C1496 C1497 1.387 . S
C1496 H1500 0.950 . S
C1496 C1505 1.390 . S
C1497 C1496 1.387 . S
C1497 C1499 1.387 . S
H1498 C1505 0.950 . S
C1499 C1497 1.387 . S
C1499 C1501 1.390 . S
C1499 H1503 0.950 . S
H1500 C1496 0.950 . S
C1501 C1499 1.390 . S
C1501 C1502 1.387 . S
C1501 H1504 0.950 . S
C1502 C1501 1.387 . S
C1502 C1505 1.387 . S
H1503 C1499 0.950 . S
H1504 C1501 0.950 . S
C1505 C1496 1.390 . S
C1505 H1498 0.950 . S
C1505 C1502 1.387 . S
C1506 C1507 1.387 . S
C1506 H1510 0.950 . S
C1506 C1515 1.390 . S
C1507 C1506 1.387 . S
C1507 C1509 1.387 . S
H1508 C1515 0.950 . S
C1509 C1507 1.387 . S
C1509 C1511 1.390 . S
C1509 H1513 0.950 . S
H1510 C1506 0.950 . S
C1511 C1509 1.390 . S
C1511 C1512 1.387 . S
C1511 H1514 0.950 . S
C1512 C1511 1.387 . S
C1512 C1515 1.387 . S
H1513 C1509 0.950 . S
H1514 C1511 0.950 . S
C1515 C1506 1.390 . S
C1515 H1508 0.950 . S
C1515 C1512 1.387 . S
C1516 C1517 1.387 . S
C1516 H1520 0.950 1_455 S
C1516 C1525 1.390 . S
C1517 C1516 1.387 . S
C1517 C1519 1.387 . S
H1518 C1525 0.950 . S
C1519 C1517 1.387 . S
C1519 C1521 1.390 . S
C1519 H1523 0.950 . S
H1520 C1516 0.950 1_655 S
C1521 C1519 1.390 . S
C1521 C1522 1.387 . S
C1521 H1524 0.950 . S
C1522 C1521 1.387 . S
C1522 C1525 1.387 . S
H1523 C1519 0.950 . S
H1524 C1521 0.950 . S
C1525 C1516 1.390 . S
C1525 H1518 0.950 . S
C1525 C1522 1.387 . S
C1526 C1527 1.387 . S
C1526 H1530 0.950 . S
C1526 C1535 1.390 . S
C1527 C1526 1.387 . S
C1527 C1529 1.387 . S
H1528 C1535 0.950 . S
C1529 C1527 1.387 . S
C1529 C1531 1.390 . S
C1529 H1533 0.950 . S
H1530 C1526 0.950 . S
C1531 C1529 1.390 . S
C1531 C1532 1.387 . S
C1531 H1534 0.950 . S
C1532 C1531 1.387 . S
C1532 C1535 1.387 . S
H1533 C1529 0.950 . S
H1534 C1531 0.950 . S
C1535 C1526 1.390 . S
C1535 H1528 0.950 . S
C1535 C1532 1.387 . S
C1536 C1537 1.387 . S
C1536 H1540 0.950 . S
C1536 C1545 1.390 . S
C1537 C1536 1.387 . S
C1537 C1539 1.387 . S
H1538 C1545 0.950 . S
C1539 C1537 1.387 . S
C1539 C1541 1.390 . S
C1539 H1543 0.950 . S
H1540 C1536 0.950 . S
C1541 C1539 1.390 . S
C1541 C1542 1.387 . S
C1541 H1544 0.950 . S
C1542 C1541 1.387 . S
C1542 C1545 1.387 . S
H1543 C1539 0.950 . S
H1544 C1541 0.950 . S
C1545 C1536 1.390 . S
C1545 H1538 0.950 . S
C1545 C1542 1.387 . S
C1546 C1547 1.387 . S
C1546 H1550 0.950 . S
C1546 C1555 1.390 . S
C1547 C1546 1.387 . S
C1547 C1549 1.387 . S
H1548 C1555 0.950 . S
C1549 C1547 1.387 . S
C1549 C1551 1.390 . S
C1549 H1553 0.950 . S
H1550 C1546 0.950 . S
C1551 C1549 1.390 . S
C1551 C1552 1.387 . S
C1551 H1554 0.950 . S
C1552 C1551 1.387 . S
C1552 C1555 1.387 . S
H1553 C1549 0.950 . S
H1554 C1551 0.950 . S
C1555 C1546 1.390 . S
C1555 H1548 0.950 . S
C1555 C1552 1.387 . S
C1556 C1557 1.387 . S
C1556 H1560 0.950 . S
C1556 C1565 1.390 . S
C1557 C1556 1.387 . S
C1557 C1559 1.387 . S
H1558 C1565 0.950 . S
C1559 C1557 1.387 . S
C1559 C1561 1.390 . S
C1559 H1563 0.950 . S
H1560 C1556 0.950 . S
C1561 C1559 1.390 . S
C1561 C1562 1.387 . S
C1561 H1564 0.950 . S
C1562 C1561 1.387 . S
C1562 C1565 1.387 . S
H1563 C1559 0.950 . S
H1564 C1561 0.950 . S
C1565 C1556 1.390 . S
C1565 H1558 0.950 . S
C1565 C1562 1.387 . S
C1566 C1567 1.387 . S
C1566 H1570 0.950 . S
C1566 C1575 1.390 . S
C1567 C1566 1.387 . S
C1567 C1569 1.387 . S
H1568 C1575 0.950 . S
C1569 C1567 1.387 . S
C1569 C1571 1.390 . S
C1569 H1573 0.950 . S
H1570 C1566 0.950 . S
C1571 C1569 1.390 . S
C1571 C1572 1.387 . S
C1571 H1574 0.950 . S
C1572 C1571 1.387 . S
C1572 C1575 1.387 . S
H1573 C1569 0.950 . S
H1574 C1571 0.950 . S
C1575 C1566 1.390 . S
C1575 H1568 0.950 . S
C1575 C1572 1.387 . S
C1576 C1577 1.387 . S
C1576 H1580 0.950 . S
C1576 C1585 1.390 . S
C1577 C1576 1.387 . S
C1577 C1579 1.387 . S
H1578 C1585 0.950 . S
C1579 C1577 1.387 . S
C1579 C1581 1.390 . S
C1579 H1583 0.950 . S
H1580 C1576 0.950 . S
C1581 C1579 1.390 . S
C1581 C1582 1.387 . S
C1581 H1584 0.950 . S
C1582 C1581 1.387 . S
C1582 C1585 1.387 . S
H1583 C1579 0.950 . S
H1584 C1581 0.950 . S
C1585 C1576 1.390 . S
C1585 H1578 0.950 . S
C1585 C1582 1.387 . S
C1586 C1587 1.387 . S
C1586 H1590 0.950 . S
C1586 C1595 1.390 . S
C1587 C1586 1.387 . S
C1587 C1589 1.387 . S
H1588 C1595 0.950 . S
C1589 C1587 1.387 . S
C1589 C1591 1.390 . S
C1589 H1593 0.950 . S
H1590 C1586 0.950 . S
C1591 C1589 1.390 . S
C1591 C1592 1.387 . S
C1591 H1594 0.950 . S
C1592 C1591 1.387 . S
C1592 C1595 1.387 . S
H1593 C1589 0.950 . S
H1594 C1591 0.950 . S
C1595 C1586 1.390 . S
C1595 H1588 0.950 . S
C1595 C1592 1.387 . S
C1596 C1597 1.387 . S
C1596 H1600 0.950 . S
C1596 C1605 1.390 . S
C1597 C1596 1.387 . S
C1597 C1599 1.387 . S
H1598 C1605 0.950 . S
C1599 C1597 1.387 . S
C1599 C1601 1.390 . S
C1599 H1603 0.950 . S
H1600 C1596 0.950 . S
C1601 C1599 1.390 . S
C1601 C1602 1.387 . S
C1601 H1604 0.950 . S
C1602 C1601 1.387 . S
C1602 C1605 1.387 . S
H1603 C1599 0.950 . S
H1604 C1601 0.950 . S
C1605 C1596 1.390 . S
C1605 H1598 0.950 . S
C1605 C1602 1.387 . S
C1606 C1607 1.387 . S
C1606 H1610 0.950 . S
C1606 C1615 1.390 . S
C1607 C1606 1.387 . S
C1607 C1609 1.387 . S
H1608 C1615 0.950 . S
C1609 C1607 1.387 . S
C1609 C1611 1.390 . S
C1609 H1613 0.950 . S
H1610 C1606 0.950 . S
C1611 C1609 1.390 . S
C1611 C1612 1.387 . S
C1611 H1614 0.950 . S
C1612 C1611 1.387 . S
C1612 C1615 1.387 . S
H1613 C1609 0.950 . S
H1614 C1611 0.950 . S
C1615 C1606 1.390 . S
C1615 H1608 0.950 . S
C1615 C1612 1.387 . S
C1616 C1617 1.387 . S
C1616 H1620 0.950 . S
C1616 C1625 1.390 . S
C1617 C1616 1.387 . S
C1617 C1619 1.387 . S
H1618 C1625 0.950 . S
C1619 C1617 1.387 . S
C1619 C1621 1.390 . S
C1619 H1623 0.950 . S
H1620 C1616 0.950 . S
C1621 C1619 1.390 . S
C1621 C1622 1.387 . S
C1621 H1624 0.950 . S
C1622 C1621 1.387 . S
C1622 C1625 1.387 . S
H1623 C1619 0.950 . S
H1624 C1621 0.950 . S
C1625 C1616 1.390 . S
C1625 H1618 0.950 . S
C1625 C1622 1.387 . S
C1626 C1627 1.387 . S
C1626 H1630 0.950 . S
C1626 C1635 1.390 . S
C1627 C1626 1.387 . S
C1627 C1629 1.387 . S
H1628 C1635 0.950 . S
C1629 C1627 1.387 . S
C1629 C1631 1.390 . S
C1629 H1633 0.950 . S
H1630 C1626 0.950 . S
C1631 C1629 1.390 . S
C1631 C1632 1.387 . S
C1631 H1634 0.950 . S
C1632 C1631 1.387 . S
C1632 C1635 1.387 . S
H1633 C1629 0.950 . S
H1634 C1631 0.950 . S
C1635 C1626 1.390 . S
C1635 H1628 0.950 . S
C1635 C1632 1.387 . S
C1636 C1637 1.387 . S
C1636 H1640 0.950 . S
C1636 C1645 1.390 . S
C1637 C1636 1.387 . S
C1637 C1639 1.387 . S
H1638 C1645 0.950 . S
C1639 C1637 1.387 . S
C1639 C1641 1.390 . S
C1639 H1643 0.950 . S
H1640 C1636 0.950 . S
C1641 C1639 1.390 . S
C1641 C1642 1.387 . S
C1641 H1644 0.950 . S
C1642 C1641 1.387 . S
C1642 C1645 1.387 . S
H1643 C1639 0.950 . S
H1644 C1641 0.950 . S
C1645 C1636 1.390 . S
C1645 H1638 0.950 . S
C1645 C1642 1.387 . S
C1646 C1647 1.387 1_545 S
C1646 H1650 0.950 . S
C1646 C1655 1.390 . S
C1647 C1646 1.387 1_565 S
C1647 C1649 1.387 1_554 S
H1648 C1655 0.950 . S
C1649 C1647 1.387 1_556 S
C1649 C1651 1.390 . S
C1649 H1653 0.950 . S
H1650 C1646 0.950 . S
C1651 C1649 1.390 . S
C1651 C1652 1.387 1_566 S
C1651 H1654 0.950 . S
C1652 C1651 1.387 1_544 S
C1652 C1655 1.387 . S
H1653 C1649 0.950 . S
H1654 C1651 0.950 . S
C1655 C1646 1.390 . S
C1655 H1648 0.950 . S
C1655 C1652 1.387 . S
C1656 C1657 1.387 . S
C1656 H1660 0.950 . S
C1656 C1665 1.390 . S
C1657 C1656 1.387 . S
C1657 C1659 1.387 . S
H1658 C1665 0.950 . S
C1659 C1657 1.387 . S
C1659 C1661 1.390 . S
C1659 H1663 0.950 . S
H1660 C1656 0.950 . S
C1661 C1659 1.390 . S
C1661 C1662 1.387 . S
C1661 H1664 0.950 . S
C1662 C1661 1.387 . S
C1662 C1665 1.387 . S
H1663 C1659 0.950 . S
H1664 C1661 0.950 . S
C1665 C1656 1.390 . S
C1665 H1658 0.950 . S
C1665 C1662 1.387 . S
C1666 C1667 1.387 . S
C1666 H1670 0.950 1_554 S
C1666 C1675 1.390 . S
C1667 C1666 1.387 . S
C1667 C1669 1.387 . S
H1668 C1675 0.950 . S
C1669 C1667 1.387 . S
C1669 C1671 1.390 . S
C1669 H1673 0.950 . S
H1670 C1666 0.950 1_556 S
C1671 C1669 1.390 . S
C1671 C1672 1.387 . S
C1671 H1674 0.950 . S
C1672 C1671 1.387 . S
C1672 C1675 1.387 . S
H1673 C1669 0.950 . S
H1674 C1671 0.950 . S
C1675 C1666 1.390 . S
C1675 H1668 0.950 . S
C1675 C1672 1.387 . S
C1676 C1677 1.387 . S
C1676 H1680 0.950 . S
C1676 C1685 1.390 . S
C1677 C1676 1.387 . S
C1677 C1679 1.387 . S
H1678 C1685 0.950 . S
C1679 C1677 1.387 . S
C1679 C1681 1.390 . S
C1679 H1683 0.950 . S
H1680 C1676 0.950 . S
C1681 C1679 1.390 . S
C1681 C1682 1.387 . S
C1681 H1684 0.950 . S
C1682 C1681 1.387 . S
C1682 C1685 1.387 . S
H1683 C1679 0.950 . S
H1684 C1681 0.950 . S
C1685 C1676 1.390 . S
C1685 H1678 0.950 . S
C1685 C1682 1.387 . S
C1686 C1687 1.387 . S
C1686 H1690 0.950 . S
C1686 C1695 1.390 . S
C1687 C1686 1.387 . S
C1687 C1689 1.387 . S
H1688 C1695 0.950 . S
C1689 C1687 1.387 . S
C1689 C1691 1.390 . S
C1689 H1693 0.950 . S
H1690 C1686 0.950 . S
C1691 C1689 1.390 . S
C1691 C1692 1.387 . S
C1691 H1694 0.950 . S
C1692 C1691 1.387 . S
C1692 C1695 1.387 . S
H1693 C1689 0.950 . S
H1694 C1691 0.950 . S
C1695 C1686 1.390 . S
C1695 H1688 0.950 . S
C1695 C1692 1.387 . S
C1696 C1697 1.387 . S
C1696 H1700 0.950 . S
C1696 C1705 1.390 . S
C1697 C1696 1.387 . S
C1697 C1699 1.387 . S
H1698 C1705 0.950 . S
C1699 C1697 1.387 . S
C1699 C1701 1.390 . S
C1699 H1703 0.950 . S
H1700 C1696 0.950 . S
C1701 C1699 1.390 . S
C1701 C1702 1.387 . S
C1701 H1704 0.950 . S
C1702 C1701 1.387 . S
C1702 C1705 1.387 . S
H1703 C1699 0.950 . S
H1704 C1701 0.950 . S
C1705 C1696 1.390 . S
C1705 H1698 0.950 . S
C1705 C1702 1.387 . S
C1706 C1707 1.387 . S
C1706 H1710 0.950 . S
C1706 C1715 1.390 . S
C1707 C1706 1.387 . S
C1707 C1709 1.387 . S
H1708 C1715 0.950 . S
C1709 C1707 1.387 . S
C1709 C1711 1.390 . S
C1709 H1713 0.950 . S
H1710 C1706 0.950 . S
C1711 C1709 1.390 . S
C1711 C1712 1.387 . S
C1711 H1714 0.950 . S
C1712 C1711 1.387 . S
C1712 C1715 1.387 . S
H1713 C1709 0.950 . S
H1714 C1711 0.950 . S
C1715 C1706 1.390 . S
C1715 H1708 0.950 . S
C1715 C1712 1.387 . S
C1716 C1717 1.387 . S
C1716 H1720 0.950 . S
C1716 C1725 1.390 . S
C1717 C1716 1.387 . S
C1717 C1719 1.387 . S
H1718 C1725 0.950 . S
C1719 C1717 1.387 . S
C1719 C1721 1.390 . S
C1719 H1723 0.950 . S
H1720 C1716 0.950 . S
C1721 C1719 1.390 . S
C1721 C1722 1.387 . S
C1721 H1724 0.950 . S
C1722 C1721 1.387 . S
C1722 C1725 1.387 . S
H1723 C1719 0.950 . S
H1724 C1721 0.950 . S
C1725 C1716 1.390 . S
C1725 H1718 0.950 . S
C1725 C1722 1.387 . S
C1726 C1727 1.387 . S
C1726 H1730 0.950 . S
C1726 C1735 1.390 . S
C1727 C1726 1.387 . S
C1727 C1729 1.387 . S
H1728 C1735 0.950 . S
C1729 C1727 1.387 . S
C1729 C1731 1.390 . S
C1729 H1733 0.950 . S
H1730 C1726 0.950 . S
C1731 C1729 1.390 . S
C1731 C1732 1.387 . S
C1731 H1734 0.950 . S
C1732 C1731 1.387 . S
C1732 C1735 1.387 . S
H1733 C1729 0.950 . S
H1734 C1731 0.950 . S
C1735 C1726 1.390 . S
C1735 H1728 0.950 . S
C1735 C1732 1.387 . S
C1736 C1737 1.387 . S
C1736 H1740 0.950 . S
C1736 C1745 1.390 . S
C1737 C1736 1.387 . S
C1737 C1739 1.387 . S
H1738 C1745 0.950 1_554 S
C1739 C1737 1.387 . S
C1739 C1741 1.390 . S
C1739 H1743 0.950 . S
H1740 C1736 0.950 . S
C1741 C1739 1.390 . S
C1741 C1742 1.387 . S
C1741 H1744 0.950 . S
C1742 C1741 1.387 . S
C1742 C1745 1.387 . S
H1743 C1739 0.950 . S
H1744 C1741 0.950 . S
C1745 C1736 1.390 . S
C1745 H1738 0.950 1_556 S
C1745 C1742 1.387 . S
C1746 C1747 1.387 . S
C1746 H1750 0.950 . S
C1746 C1755 1.390 . S
C1747 C1746 1.387 . S
C1747 C1749 1.387 . S
H1748 C1755 0.950 . S
C1749 C1747 1.387 . S
C1749 C1751 1.390 . S
C1749 H1753 0.950 . S
H1750 C1746 0.950 . S
C1751 C1749 1.390 . S
C1751 C1752 1.387 . S
C1751 H1754 0.950 . S
C1752 C1751 1.387 . S
C1752 C1755 1.387 . S
H1753 C1749 0.950 . S
H1754 C1751 0.950 . S
C1755 C1746 1.390 . S
C1755 H1748 0.950 . S
C1755 C1752 1.387 . S
C1756 C1757 1.387 . S
C1756 H1760 0.950 . S
C1756 C1765 1.390 . S
C1757 C1756 1.387 . S
C1757 C1759 1.387 . S
H1758 C1765 0.950 . S
C1759 C1757 1.387 . S
C1759 C1761 1.390 . S
C1759 H1763 0.950 . S
H1760 C1756 0.950 . S
C1761 C1759 1.390 . S
C1761 C1762 1.387 . S
C1761 H1764 0.950 . S
C1762 C1761 1.387 . S
C1762 C1765 1.387 . S
H1763 C1759 0.950 . S
H1764 C1761 0.950 . S
C1765 C1756 1.390 . S
C1765 H1758 0.950 . S
C1765 C1762 1.387 . S
C1766 C1767 1.387 . S
C1766 H1770 0.950 . S
C1766 C1775 1.390 . S
C1767 C1766 1.387 . S
C1767 C1769 1.387 . S
H1768 C1775 0.950 . S
C1769 C1767 1.387 . S
C1769 C1771 1.390 . S
C1769 H1773 0.950 . S
H1770 C1766 0.950 . S
C1771 C1769 1.390 . S
C1771 C1772 1.387 . S
C1771 H1774 0.950 . S
C1772 C1771 1.387 . S
C1772 C1775 1.387 . S
H1773 C1769 0.950 . S
H1774 C1771 0.950 . S
C1775 C1766 1.390 . S
C1775 H1768 0.950 . S
C1775 C1772 1.387 . S
C1776 C1777 1.387 . S
C1776 H1780 0.950 . S
C1776 C1785 1.390 . S
C1777 C1776 1.387 . S
C1777 C1779 1.387 . S
H1778 C1785 0.950 . S
C1779 C1777 1.387 . S
C1779 C1781 1.390 . S
C1779 H1783 0.950 . S
H1780 C1776 0.950 . S
C1781 C1779 1.390 . S
C1781 C1782 1.387 . S
C1781 H1784 0.950 . S
C1782 C1781 1.387 . S
C1782 C1785 1.387 . S
H1783 C1779 0.950 . S
H1784 C1781 0.950 . S
C1785 C1776 1.390 . S
C1785 H1778 0.950 . S
C1785 C1782 1.387 . S
C1786 C1787 1.387 . S
C1786 H1790 0.950 . S
C1786 C1795 1.390 . S
C1787 C1786 1.387 . S
C1787 C1789 1.387 . S
H1788 C1795 0.950 . S
C1789 C1787 1.387 . S
C1789 C1791 1.390 . S
C1789 H1793 0.950 . S
H1790 C1786 0.950 . S
C1791 C1789 1.390 . S
C1791 C1792 1.387 . S
C1791 H1794 0.950 . S
C1792 C1791 1.387 . S
C1792 C1795 1.387 . S
H1793 C1789 0.950 . S
H1794 C1791 0.950 . S
C1795 C1786 1.390 . S
C1795 H1788 0.950 . S
C1795 C1792 1.387 . S
C1796 C1797 1.387 . S
C1796 H1800 0.950 . S
C1796 C1805 1.390 1_655 S
C1797 C1796 1.387 . S
C1797 C1799 1.368 1_655 S
H1798 C1805 0.950 . S
C1799 C1797 1.368 1_455 S
C1799 C1801 1.416 . S
C1799 H1803 0.944 1_455 S
H1800 C1796 0.950 . S
C1801 C1799 1.416 . S
C1801 C1802 1.387 . S
C1801 H1804 0.950 . S
C1802 C1801 1.387 . S
C1802 C1805 1.387 . S
H1803 C1799 0.944 1_655 S
H1804 C1801 0.950 . S
C1805 C1796 1.390 1_455 S
C1805 H1798 0.950 . S
C1805 C1802 1.387 . S
C1806 C1807 1.387 . S
C1806 H1810 0.950 . S
C1806 C1815 1.390 . S
C1807 C1806 1.387 . S
C1807 C1809 1.387 . S
H1808 C1815 0.950 . S
C1809 C1807 1.387 . S
C1809 C1811 1.390 . S
C1809 H1813 0.950 . S
H1810 C1806 0.950 . S
C1811 C1809 1.390 . S
C1811 C1812 1.387 . S
C1811 H1814 0.950 . S
C1812 C1811 1.387 . S
C1812 C1815 1.387 . S
H1813 C1809 0.950 . S
H1814 C1811 0.950 . S
C1815 C1806 1.390 . S
C1815 H1808 0.950 . S
C1815 C1812 1.387 . S
C1816 C1817 1.387 . S
C1816 H1820 0.950 . S
C1816 C1825 1.390 . S
C1817 C1816 1.387 . S
C1817 C1819 1.387 . S
H1818 C1825 0.950 . S
C1819 C1817 1.387 . S
C1819 C1821 1.390 . S
C1819 H1823 0.950 . S
H1820 C1816 0.950 . S
C1821 C1819 1.390 . S
C1821 C1822 1.387 . S
C1821 H1824 0.950 . S
C1822 C1821 1.387 . S
C1822 C1825 1.387 . S
H1823 C1819 0.950 . S
H1824 C1821 0.950 . S
C1825 C1816 1.390 . S
C1825 H1818 0.950 . S
C1825 C1822 1.387 . S
C1826 C1827 1.387 . S
C1826 H1830 0.950 . S
C1826 C1835 1.390 . S
C1827 C1826 1.387 . S
C1827 C1829 1.387 . S
H1828 C1835 0.950 . S
C1829 C1827 1.387 . S
C1829 C1831 1.390 . S
C1829 H1833 0.950 . S
H1830 C1826 0.950 . S
C1831 C1829 1.390 . S
C1831 C1832 1.387 . S
C1831 H1834 0.950 . S
C1832 C1831 1.387 . S
C1832 C1835 1.387 . S
H1833 C1829 0.950 . S
H1834 C1831 0.950 . S
C1835 C1826 1.390 . S
C1835 H1828 0.950 . S
C1835 C1832 1.387 . S
C1836 C1837 1.387 . S
C1836 H1840 0.950 . S
C1836 C1845 1.390 . S
C1837 C1836 1.387 . S
C1837 C1839 1.387 . S
H1838 C1845 0.950 . S
C1839 C1837 1.387 . S
C1839 C1841 1.390 . S
C1839 H1843 0.950 . S
H1840 C1836 0.950 . S
C1841 C1839 1.390 . S
C1841 C1842 1.387 . S
C1841 H1844 0.950 . S
C1842 C1841 1.387 . S
C1842 C1845 1.387 . S
H1843 C1839 0.950 . S
H1844 C1841 0.950 . S
C1845 C1836 1.390 . S
C1845 H1838 0.950 . S
C1845 C1842 1.387 . S
C1846 C1847 1.387 . S
C1846 H1850 0.950 . S
C1846 C1855 1.390 . S
C1847 C1846 1.387 . S
C1847 C1849 1.387 . S
H1848 C1855 0.950 . S
C1849 C1847 1.387 . S
C1849 C1851 1.390 . S
C1849 H1853 0.950 . S
H1850 C1846 0.950 . S
C1851 C1849 1.390 . S
C1851 C1852 1.387 . S
C1851 H1854 0.950 . S
C1852 C1851 1.387 . S
C1852 C1855 1.387 . S
H1853 C1849 0.950 . S
H1854 C1851 0.950 . S
C1855 C1846 1.390 . S
C1855 H1848 0.950 . S
C1855 C1852 1.387 . S
C1856 C1857 1.387 . S
C1856 H1860 0.950 . S
C1856 C1865 1.390 . S
C1857 C1856 1.387 . S
C1857 C1859 1.387 . S
H1858 C1865 0.950 . S
C1859 C1857 1.387 . S
C1859 C1861 1.390 . S
C1859 H1863 0.950 . S
H1860 C1856 0.950 . S
C1861 C1859 1.390 . S
C1861 C1862 1.387 . S
C1861 H1864 0.950 . S
C1862 C1861 1.387 . S
C1862 C1865 1.387 . S
H1863 C1859 0.950 . S
H1864 C1861 0.950 . S
C1865 C1856 1.390 . S
C1865 H1858 0.950 . S
C1865 C1862 1.387 . S
C1866 C1867 1.387 . S
C1866 H1870 0.950 . S
C1866 C1875 1.390 . S
C1867 C1866 1.387 . S
C1867 C1869 1.387 . S
H1868 C1875 0.950 . S
C1869 C1867 1.387 . S
C1869 C1871 1.390 . S
C1869 H1873 0.950 . S
H1870 C1866 0.950 . S
C1871 C1869 1.390 . S
C1871 C1872 1.387 . S
C1871 H1874 0.950 . S
C1872 C1871 1.387 . S
C1872 C1875 1.387 . S
H1873 C1869 0.950 . S
H1874 C1871 0.950 . S
C1875 C1866 1.390 . S
C1875 H1868 0.950 . S
C1875 C1872 1.387 . S
C1876 C1877 1.387 . S
C1876 H1880 0.950 . S
C1876 C1885 1.390 . S
C1877 C1876 1.387 . S
C1877 C1879 1.387 . S
H1878 C1885 0.950 . S
C1879 C1877 1.387 . S
C1879 C1881 1.390 . S
C1879 H1883 0.950 . S
H1880 C1876 0.950 . S
C1881 C1879 1.390 . S
C1881 C1882 1.387 . S
C1881 H1884 0.950 . S
C1882 C1881 1.387 . S
C1882 C1885 1.387 . S
H1883 C1879 0.950 . S
H1884 C1881 0.950 . S
C1885 C1876 1.390 . S
C1885 H1878 0.950 . S
C1885 C1882 1.387 . S
C1886 C1887 1.387 . S
C1886 H1890 0.950 . S
C1886 C1895 1.390 . S
C1887 C1886 1.387 . S
C1887 C1889 1.387 . S
H1888 C1895 0.950 . S
C1889 C1887 1.387 . S
C1889 C1891 1.390 . S
C1889 H1893 0.950 . S
H1890 C1886 0.950 . S
C1891 C1889 1.390 . S
C1891 C1892 1.387 . S
C1891 H1894 0.957 . S
C1892 C1891 1.387 . S
C1892 C1895 1.387 . S
H1893 C1889 0.950 . S
H1894 C1891 0.957 . S
C1895 C1886 1.390 . S
C1895 H1888 0.950 . S
C1895 C1892 1.387 . S
C1896 C1897 1.387 . S
C1896 H1900 0.950 . S
C1896 C1905 1.390 . S
C1897 C1896 1.387 . S
C1897 C1899 1.387 . S
H1898 C1905 0.950 . S
C1899 C1897 1.387 . S
C1899 C1901 1.390 . S
C1899 H1903 0.950 . S
H1900 C1896 0.950 . S
C1901 C1899 1.390 . S
C1901 C1902 1.387 . S
C1901 H1904 0.950 . S
C1902 C1901 1.387 . S
C1902 C1905 1.387 . S
H1903 C1899 0.950 . S
H1904 C1901 0.950 . S
C1905 C1896 1.390 . S
C1905 H1898 0.950 . S
C1905 C1902 1.387 . S
C1906 C1907 1.387 1_556 S
C1906 H1910 0.950 . S
C1906 C1915 1.390 . S
C1907 C1906 1.387 1_554 S
C1907 C1909 1.387 . S
H1908 C1915 0.950 . S
C1909 C1907 1.387 . S
C1909 C1911 1.390 . S
C1909 H1913 0.950 . S
H1910 C1906 0.950 . S
C1911 C1909 1.390 . S
C1911 C1912 1.387 1_554 S
C1911 H1914 0.950 . S
C1912 C1911 1.387 1_556 S
C1912 C1915 1.387 . S
H1913 C1909 0.950 . S
H1914 C1911 0.950 . S
C1915 C1906 1.390 . S
C1915 H1908 0.950 . S
C1915 C1912 1.387 . S
C1916 C1917 1.387 . S
C1916 H1920 0.950 . S
C1916 C1925 1.390 . S
C1917 C1916 1.387 . S
C1917 C1919 1.387 . S
H1918 C1925 0.950 . S
C1919 C1917 1.387 . S
C1919 C1921 1.390 . S
C1919 H1923 0.950 . S
H1920 C1916 0.950 . S
C1921 C1919 1.390 . S
C1921 C1922 1.387 . S
C1921 H1924 0.950 . S
C1922 C1921 1.387 . S
C1922 C1925 1.387 . S
H1923 C1919 0.950 . S
H1924 C1921 0.950 . S
C1925 C1916 1.390 . S
C1925 H1918 0.950 . S
C1925 C1922 1.387 . S
C1926 C1927 1.387 . S
C1926 H1930 0.950 . S
C1926 C1935 1.390 . S
C1927 C1926 1.387 . S
C1927 C1929 1.387 . S
H1928 C1935 0.950 . S
C1929 C1927 1.387 . S
C1929 C1931 1.390 . S
C1929 H1933 0.950 . S
H1930 C1926 0.950 . S
C1931 C1929 1.390 . S
C1931 C1932 1.387 . S
C1931 H1934 0.950 . S
C1932 C1931 1.387 . S
C1932 C1935 1.387 . S
H1933 C1929 0.950 . S
H1934 C1931 0.950 . S
C1935 C1926 1.390 . S
C1935 H1928 0.950 . S
C1935 C1932 1.387 . S
C977 C105 1.191 . S
C982 C344 1.205 . S
C987 C65 1.600 . S
C992 C378 1.594 . S
C997 C73 0.829 . S
C1002 C447 0.818 . S
C1012 C485 0.951 . S
C1007 C92 0.965 . S
C1017 C17 1.821 . S
C1022 C525 1.737 . S
C1032 C544 0.605 . S
C1027 C37 0.593 . S
C1042 C578 1.540 . S
C1037 C49 1.338 . S
C1047 C8 1.905 . S
C1052 C647 1.888 . S
C1062 C353 2.518 . S
C1057 C231 2.498 . S
C1067 C241 1.416 . S
C1072 C405 1.372 . S
C1082 C418 1.428 . S
C1077 C273 1.369 . S
C1092 C487 1.578 . S
C1087 C171 1.556 . S
C1097 C227 2.096 . S
C1102 C527 2.109 . S
C1112 C553 1.922 . S
C1107 C245 1.817 . S
C1122 C605 0.537 . S
C1117 C269 0.510 . S
C1132 C618 2.361 . S
C1127 C175 2.372 . S
C1142 C348 2.479 . S
C1137 C162 2.533 . S
C1147 C289 2.062 . S
C1152 C658 2.076 . S
C1162 C708 2.716 . S
C1157 C330 2.731 . S
C1172 C767 1.749 1_655 S
C1167 C317 1.688 . S
C1177 C120 1.867 . S
C1182 C645 1.820 . S
C1187 C134 1.624 . S
C1192 C445 1.585 . S
C1197 C331 2.437 . S
C1202 C778 2.423 . S
C1212 C847 0.997 . S
C1207 C303 1.054 . S
C1222 C365 1.200 . S
C1217 C59 1.185 . S
C1232 C833 1.592 . S
C1227 C107 1.601 . S
C1237 C91 0.843 . S
C1242 C428 0.836 . S
C1247 C78 1.002 . S
C1252 C784 0.985 . S
C1262 C504 1.742 . S
C1257 C7 1.665 . S
C1267 C51 0.595 . S
C1272 C725 0.604 . S
C1282 C593 1.583 1_556 S
C1277 C31 1.542 . S
C1292 C868 1.872 . S
C1287 C22 1.863 . S
C1302 C338 2.517 . S
C1297 C143 2.570 . S
C1312 C824 1.343 . S
C1307 C315 1.237 . S
C1317 C115 1.439 . S
C1322 C433 1.441 . S
C1327 C287 1.612 . S
C1332 C788 1.611 . S
C1337 C147 2.006 . S
C1342 C508 2.137 . S
C1352 C698 1.923 . S
C1347 C311 1.969 . S
C1357 C119 0.534 . S
C1362 C584 0.571 . S
C1367 C283 2.373 . S
C1372 C873 2.370 . S
C1377 C190 2.548 . S
C1382 C367 2.512 1_655 S
C1387 C177 2.072 . S
C1392 C673 2.094 . S
C1397 C260 2.757 . S
C1402 C567 2.742 . S
C1407 C247 1.736 . S
C1412 C748 1.800 . S
C1422 C864 1.795 . S
C1417 C274 1.784 . S
C1427 C218 1.572 . S
C1432 C424 1.569 . S
C1442 C473 2.463 . S
C1437 C261 2.472 . S
C1452 C388 1.004 . S
C1447 C205 1.047 . S
C1457 C77 1.190 . S
C1462 C904 1.205 . S
C1472 C818 1.594 . S
C1467 C93 1.600 . S
C1477 C101 0.829 . S
C1482 C967 0.821 . S
C1487 C64 0.964 . S
C1492 C805 0.954 . S
C1497 C45 1.821 . S
C1502 C685 1.739 . S
C1512 C704 0.621 . S
C1507 C9 0.594 . S
C1522 C738 1.537 . S
C1517 C21 1.331 1_455 S
C1532 C887 1.885 . S
C1527 C36 1.902 . S
C1542 C913 2.519 . S
C1537 C259 2.500 . S
C1547 C185 1.415 . S
C1552 C845 1.370 . S
C1562 C938 1.428 . S
C1557 C203 1.365 . S
C1572 C807 1.578 . S
C1567 C213 1.556 . S
C1582 C687 2.109 . S
C1577 C255 2.096 . S
C1587 C189 1.817 . S
C1592 C713 1.923 . S
C1602 C765 0.530 . S
C1597 C199 0.505 . S
C1607 C217 2.372 . S
C1612 C858 2.361 . S
C1622 C908 2.478 . S
C1617 C316 2.533 . S
C1627 C135 2.062 . S
C1632 C498 2.076 . S
C1642 C548 2.716 . S
C1637 C148 2.731 . S
C1652 C607 1.750 . S
C1647 C163 1.690 . S
C1662 C885 1.821 . S
C1657 C302 1.867 . S
C1667 C288 1.622 . S
C1672 C965 1.585 . S
C1682 C458 2.421 . S
C1677 C149 2.436 . S
C1692 C407 0.997 . S
C1687 C121 1.054 . S
C1697 C87 1.187 . S
C1702 C925 1.201 . S
C1712 C393 1.592 . S
C1707 C79 1.601 . S
C1717 C63 0.842 . S
C1722 C948 0.835 . S
C1727 C106 1.002 . S
C1732 C464 0.985 . S
C1737 C35 1.665 . S
C1742 C664 1.741 . S
C1752 C565 0.603 . S
C1747 C23 0.591 . S
C1757 C3 1.539 . S
C1762 C753 1.582 . S
C1767 C50 1.857 . S
C1772 C628 1.871 . S
C1782 C898 2.516 . S
C1777 C325 2.569 . S
C1787 C161 1.237 . S
C1792 C384 1.343 . S
C1802 C953 1.440 . S
C1797 C297 1.439 . S
C1807 C133 1.613 . S
C1812 C468 1.610 . S
C1817 C329 2.007 . S
C1822 C668 2.137 . S
C1832 C538 1.923 . S
C1827 C157 1.969 . S
C1837 C301 0.532 . S
C1842 C744 0.561 . S
C1852 C633 2.370 . S
C1847 C129 2.372 . S
C1862 C927 2.511 . S
C1857 C246 2.548 . S
C1872 C513 2.094 1_665 S
C1867 C219 2.072 . S
C1877 C232 2.756 . S
C1882 C727 2.742 . S
C1892 C588 1.801 . S
C1887 C191 1.737 . S
C1897 C204 1.783 . S
C1902 C624 1.794 . S
C1907 C176 1.569 . S
C1912 C944 1.566 . S
C1922 C793 2.463 . S
C1917 C233 2.472 1_565 S
C1932 C828 0.999 . S
C1927 C275 1.045 . S
