# Generated by pormake.
# Topology pyr, (3,6)-cn, num edge types: 1
# Building blocks:
#     Node 0, Type 0, BuildingBlock: WUSLED_clean_sbu_0, # of connection points: 3
#     Node 1, Type 0, BuildingBlock: WUSLED_clean_sbu_0, # of connection points: 3
#     Node 2, Type 0, BuildingBlock: WUSLED_clean_sbu_0, # of connection points: 3
#     Node 3, Type 0, BuildingBlock: WUSLED_clean_sbu_0, # of connection points: 3
#     Node 4, Type 0, BuildingBlock: WUSLED_clean_sbu_0, # of connection points: 3
#     Node 5, Type 0, BuildingBlock: WUSLED_clean_sbu_0, # of connection points: 3
#     Node 6, Type 0, BuildingBlock: WUSLED_clean_sbu_0, # of connection points: 3
#     Node 7, Type 0, BuildingBlock: WUSLED_clean_sbu_0, # of connection points: 3
#     Node 8, Type 1, BuildingBlock: PAMTOO_clean_sbu_0, # of connection points: 6
#     Node 9, Type 1, BuildingBlock: PAMTOO_clean_sbu_0, # of connection points: 6
#     Node 10, Type 1, BuildingBlock: PAMTOO_clean_sbu_0, # of connection points: 6
#     Node 11, Type 1, BuildingBlock: PAMTOO_clean_sbu_0, # of connection points: 6
#     Edge 12, Type (0, 1), BuildingBlock: CIFDUS_clean_linker_0, # of connection points: 2
#     Edge 13, Type (0, 1), BuildingBlock: CIFDUS_clean_linker_0, # of connection points: 2
#     Edge 14, Type (0, 1), BuildingBlock: CIFDUS_clean_linker_0, # of connection points: 2
#     Edge 15, Type (0, 1), BuildingBlock: CIFDUS_clean_linker_0, # of connection points: 2
#     Edge 16, Type (0, 1), BuildingBlock: CIFDUS_clean_linker_0, # of connection points: 2
#     Edge 17, Type (0, 1), BuildingBlock: CIFDUS_clean_linker_0, # of connection points: 2
#     Edge 18, Type (0, 1), BuildingBlock: CIFDUS_clean_linker_0, # of connection points: 2
#     Edge 19, Type (0, 1), BuildingBlock: CIFDUS_clean_linker_0, # of connection points: 2
#     Edge 20, Type (0, 1), BuildingBlock: CIFDUS_clean_linker_0, # of connection points: 2
#     Edge 21, Type (0, 1), BuildingBlock: CIFDUS_clean_linker_0, # of connection points: 2
#     Edge 22, Type (0, 1), BuildingBlock: CIFDUS_clean_linker_0, # of connection points: 2
#     Edge 23, Type (0, 1), BuildingBlock: CIFDUS_clean_linker_0, # of connection points: 2
#     Edge 24, Type (0, 1), BuildingBlock: CIFDUS_clean_linker_0, # of connection points: 2
#     Edge 25, Type (0, 1), BuildingBlock: CIFDUS_clean_linker_0, # of connection points: 2
#     Edge 26, Type (0, 1), BuildingBlock: CIFDUS_clean_linker_0, # of connection points: 2
#     Edge 27, Type (0, 1), BuildingBlock: CIFDUS_clean_linker_0, # of connection points: 2
#     Edge 28, Type (0, 1), BuildingBlock: CIFDUS_clean_linker_0, # of connection points: 2
#     Edge 29, Type (0, 1), BuildingBlock: CIFDUS_clean_linker_0, # of connection points: 2
#     Edge 30, Type (0, 1), BuildingBlock: CIFDUS_clean_linker_0, # of connection points: 2
#     Edge 31, Type (0, 1), BuildingBlock: CIFDUS_clean_linker_0, # of connection points: 2
#     Edge 32, Type (0, 1), BuildingBlock: CIFDUS_clean_linker_0, # of connection points: 2
#     Edge 33, Type (0, 1), BuildingBlock: CIFDUS_clean_linker_0, # of connection points: 2
#     Edge 34, Type (0, 1), BuildingBlock: CIFDUS_clean_linker_0, # of connection points: 2
#     Edge 35, Type (0, 1), BuildingBlock: CIFDUS_clean_linker_0, # of connection points: 2
# Relax obj value: 0.090
# Max RMSD: 0.160
# Mean RMSD: 0.065
data_MOF--net-pyr--node1-WUSLED_clean_sbu_0--node2-PAMTOO_clean_sbu_0--edge1-CIFDUS_clean_linker_0
_symmetry_space_group_name_H-M    P1
_symmetry_Int_Tables_number       1
_symmetry_cell_setting            triclinic
loop_
_symmetry_equiv_pos_as_xyz
'x, y, z'
_cell_length_a     43.342222
_cell_length_b     46.138896
_cell_length_c     46.603684
_cell_angle_alpha  89.74331
_cell_angle_beta   90.057702
_cell_angle_gamma 102.75923
loop_
_atom_site_label
_atom_site_type_symbol
_atom_site_fract_x
_atom_site_fract_y
_atom_site_fract_z
_atom_type_partial_charge
C0 C 0.30813 0.32104 0.15942 0.0
C1 C 0.27907 0.31643 0.17403 0.0
C2 C 0.26508 0.35736 0.14776 0.0
C3 C 0.25769 0.33437 0.1682 0.0
C4 C 0.29505 0.36301 0.13454 0.0
C5 C 0.31635 0.34493 0.14028 0.0
U6 U 0.33389 0.26531 0.20663 0.0
O7 O 0.33974 0.22 0.1993 0.0
O8 O 0.37988 0.25398 0.21527 0.0
C9 C 0.36998 0.22666 0.20588 0.0
C10 C 0.32925 0.3004 0.16351 0.0
C11 C 0.39073 0.21587 0.18566 0.0
C12 C 0.40281 0.20259 0.13725 0.0
C13 C 0.38622 0.21731 0.15589 0.0
C14 C 0.43009 0.18678 0.17786 0.0
C15 C 0.42413 0.18631 0.14817 0.0
C16 C 0.41338 0.20131 0.19644 0.0
C17 C 0.29125 0.25132 0.27814 0.0
C18 C 0.28966 0.20678 0.30647 0.0
C19 C 0.26068 0.24342 0.32181 0.0
C20 C 0.27191 0.26108 0.29819 0.0
C21 C 0.2687 0.21583 0.32558 0.0
C22 C 0.30091 0.22452 0.28268 0.0
C23 C 0.29824 0.26781 0.25132 0.0
O24 O 0.35077 0.30772 0.18368 0.0
O25 O 0.31479 0.27217 0.16418 0.0
O26 O 0.28807 0.25239 0.22823 0.0
O27 O 0.32702 0.28423 0.24878 0.0
H28 H 0.27246 0.2983 0.18926 0.0
H29 H 0.23482 0.32931 0.17867 0.0
H30 H 0.30171 0.38096 0.11915 0.0
H31 H 0.33889 0.34915 0.12922 0.0
H32 H 0.39768 0.20265 0.1145 0.0
H33 H 0.36886 0.22863 0.14721 0.0
H34 H 0.44693 0.17505 0.18686 0.0
H35 H 0.41726 0.20015 0.21936 0.0
H36 H 0.29567 0.18532 0.30895 0.0
H37 H 0.24434 0.25053 0.33636 0.0
H38 H 0.26424 0.28165 0.29483 0.0
H39 H 0.3158 0.21673 0.26716 0.0
C40 C 0.12527 0.81742 0.67054 0.0
C41 C 0.13283 0.84365 0.68676 0.0
C42 C 0.09634 0.86463 0.65812 0.0
C43 C 0.11833 0.8672 0.6806 0.0
C44 C 0.08726 0.83752 0.64345 0.0
C45 C 0.10173 0.81411 0.64957 0.0
U46 U 0.18981 0.78683 0.70648 0.0
O47 O 0.22986 0.77407 0.68519 0.0
O48 O 0.19602 0.74062 0.71097 0.0
C49 C 0.22069 0.74633 0.69375 0.0
C50 C 0.14458 0.79523 0.67242 0.0
C51 C 0.24223 0.72623 0.69109 0.0
C52 C 0.25772 0.68748 0.66341 0.0
C53 C 0.23569 0.70435 0.66989 0.0
C54 C 0.29255 0.71328 0.70038 0.0
C55 C 0.2866 0.69213 0.6782 0.0
C56 C 0.27054 0.73047 0.70664 0.0
C57 C 0.2275 0.82913 0.77374 0.0
C58 C 0.26618 0.8162 0.80632 0.0
C59 C 0.25418 0.86509 0.80812 0.0
C60 C 0.23256 0.85738 0.78594 0.0
C61 C 0.27102 0.84456 0.81878 0.0
C62 C 0.24443 0.80848 0.78385 0.0
C63 C 0.20463 0.82245 0.75033 0.0
O64 O 0.17472 0.80585 0.66724 0.0
O65 O 0.13934 0.77708 0.69457 0.0
O66 O 0.18381 0.797 0.75188 0.0
O67 O 0.21616 0.82897 0.72446 0.0
H68 H 0.15118 0.8465 0.70298 0.0
H69 H 0.12584 0.88797 0.69201 0.0
H70 H 0.07018 0.83504 0.62614 0.0
H71 H 0.09577 0.79404 0.63685 0.0
H72 H 0.25244 0.67121 0.64639 0.0
H73 H 0.21402 0.7011 0.65752 0.0
H74 H 0.31477 0.71742 0.71195 0.0
H75 H 0.27598 0.74757 0.72288 0.0
H76 H 0.27893 0.80002 0.81409 0.0
H77 H 0.258 0.88738 0.8167 0.0
H78 H 0.21986 0.87362 0.77816 0.0
H79 H 0.24082 0.78657 0.77443 0.0
C80 C 0.62828 0.40979 0.78178 0.0
C81 C 0.63831 0.44085 0.77923 0.0
C82 C 0.60845 0.44142 0.7339 0.0
C83 C 0.6288 0.45634 0.75566 0.0
C84 C 0.59843 0.4102 0.73692 0.0
C85 C 0.60834 0.39478 0.76018 0.0
U86 U 0.66 0.36997 0.85262 0.0
O87 O 0.62313 0.34366 0.8812 0.0
O88 O 0.65091 0.32079 0.85354 0.0
C89 C 0.62787 0.31798 0.87237 0.0
C90 C 0.63729 0.39258 0.80685 0.0
C91 C 0.6217 0.29179 0.89239 0.0
C92 C 0.58487 0.24629 0.90837 0.0
C93 C 0.59199 0.272 0.89114 0.0
C94 C 0.63717 0.25932 0.92897 0.0
C95 C 0.60731 0.23918 0.92757 0.0
C96 C 0.64429 0.28521 0.91158 0.0
C97 C 0.74201 0.41076 0.89408 0.0
C98 C 0.78183 0.40628 0.93041 0.0
C99 C 0.78772 0.45147 0.90267 0.0
C100 C 0.75947 0.43953 0.88807 0.0
C101 C 0.79991 0.43499 0.92379 0.0
C102 C 0.75327 0.39428 0.91567 0.0
C103 C 0.7128 0.39891 0.8769 0.0
O104 O 0.65724 0.37495 0.80492 0.0
O105 O 0.63069 0.39875 0.83333 0.0
O106 O 0.68475 0.40244 0.88482 0.0
O107 O 0.71226 0.379 0.8567 0.0
H108 H 0.65368 0.45321 0.79541 0.0
H109 H 0.63786 0.48011 0.75451 0.0
H110 H 0.5823 0.39738 0.72159 0.0
H111 H 0.59988 0.3709 0.76154 0.0
H112 H 0.56143 0.23216 0.90673 0.0
H113 H 0.57405 0.27636 0.87654 0.0
H114 H 0.6554 0.25485 0.94312 0.0
H115 H 0.66748 0.29989 0.91297 0.0
H116 H 0.79012 0.39272 0.94642 0.0
H117 H 0.80003 0.47387 0.89722 0.0
H118 H 0.75135 0.45286 0.87171 0.0
H119 H 0.74023 0.37205 0.92092 0.0
C120 C 0.7978 0.64534 0.39202 0.0
C121 C 0.78763 0.6609 0.4148 0.0
C122 C 0.74007 0.62089 0.42219 0.0
C123 C 0.75918 0.64884 0.42972 0.0
C124 C 0.75119 0.60523 0.39985 0.0
C125 C 0.77933 0.61729 0.38501 0.0
U126 U 0.87993 0.68517 0.34953 0.0
O127 O 0.90779 0.6547 0.33095 0.0
O128 O 0.88228 0.67928 0.30201 0.0
C129 C 0.90069 0.66024 0.30434 0.0
C130 C 0.82713 0.65755 0.37498 0.0
C131 C 0.91233 0.64529 0.27895 0.0
C132 C 0.92237 0.60044 0.25578 0.0
C133 C 0.9116 0.61464 0.27938 0.0
C134 C 0.93553 0.64717 0.23047 0.0
C135 C 0.93486 0.61635 0.23078 0.0
C136 C 0.92432 0.6613 0.25401 0.0
C137 C 0.92235 0.76489 0.38549 0.0
C138 C 0.96116 0.81149 0.3937 0.0
C139 C 0.91315 0.80075 0.42165 0.0
C140 C 0.90332 0.77327 0.40707 0.0
C141 C 0.9421 0.82067 0.41484 0.0
C142 C 0.95144 0.78429 0.37936 0.0
C143 C 0.91307 0.73716 0.36782 0.0
O144 O 0.82766 0.67692 0.35409 0.0
O145 O 0.85513 0.65379 0.38281 0.0
O146 O 0.91736 0.71153 0.37753 0.0
O147 O 0.88989 0.73443 0.34913 0.0
H148 H 0.80149 0.68251 0.42087 0.0
H149 H 0.75182 0.66181 0.44665 0.0
H150 H 0.73818 0.58335 0.39367 0.0
H151 H 0.78662 0.6046 0.36778 0.0
H152 H 0.9205 0.5767 0.25714 0.0
H153 H 0.90225 0.60143 0.29797 0.0
H154 H 0.94527 0.66066 0.21219 0.0
H155 H 0.92553 0.68498 0.25287 0.0
H156 H 0.9839 0.82539 0.38806 0.0
H157 H 0.89762 0.80672 0.43768 0.0
H158 H 0.88075 0.75885 0.4124 0.0
H159 H 0.96674 0.77853 0.36297 0.0
C160 C 0.74325 0.72636 0.86962 0.0
C161 C 0.77026 0.72069 0.85637 0.0
C162 C 0.77738 0.68807 0.8955 0.0
C163 C 0.7872 0.70181 0.86918 0.0
C164 C 0.74951 0.69267 0.90839 0.0
C165 C 0.73248 0.71193 0.89551 0.0
U166 U 0.69074 0.78569 0.85533 0.0
O167 O 0.64374 0.77331 0.87566 0.0
O168 O 0.68261 0.80432 0.89714 0.0
C169 C 0.65208 0.7926 0.89651 0.0
C170 C 0.72874 0.74877 0.856 0.0
C171 C 0.63199 0.8141 0.9006 0.0
C172 C 0.597 0.8343 0.93135 0.0
C173 C 0.61259 0.81173 0.92483 0.0
C174 C 0.61845 0.86119 0.88843 0.0
C175 C 0.60057 0.85962 0.91372 0.0
C176 C 0.63419 0.83856 0.88195 0.0
C177 C 0.71721 0.82245 0.78524 0.0
C178 C 0.73094 0.84112 0.73739 0.0
C179 C 0.769 0.82182 0.76566 0.0
C180 C 0.74681 0.81487 0.78775 0.0
C181 C 0.76164 0.83622 0.74084 0.0
C182 C 0.70895 0.83449 0.75956 0.0
C183 C 0.69579 0.8196 0.80987 0.0
O184 O 0.73687 0.77606 0.86579 0.0
O185 O 0.69927 0.74105 0.84711 0.0
O186 O 0.70974 0.82847 0.83433 0.0
O187 O 0.67488 0.79428 0.81181 0.0
H188 H 0.7789 0.7317 0.83641 0.0
H189 H 0.80871 0.6987 0.859 0.0
H190 H 0.74179 0.68246 0.92889 0.0
H191 H 0.71166 0.71618 0.90602 0.0
H192 H 0.58311 0.83256 0.95085 0.0
H193 H 0.61054 0.79302 0.93938 0.0
H194 H 0.62165 0.88059 0.87463 0.0
H195 H 0.64914 0.84073 0.86309 0.0
H196 H 0.72469 0.85194 0.71824 0.0
H197 H 0.79254 0.81797 0.76887 0.0
H198 H 0.75336 0.80509 0.80739 0.0
H199 H 0.68607 0.84006 0.75716 0.0
C200 C 0.79503 0.25476 0.28591 0.0
C201 C 0.8017 0.22636 0.2847 0.0
C202 C 0.77192 0.21674 0.2404 0.0
C203 C 0.79015 0.20738 0.26204 0.0
C204 C 0.76748 0.24601 0.24065 0.0
C205 C 0.77883 0.26485 0.26338 0.0
U206 U 0.8376 0.27026 0.35657 0.0
O207 O 0.85516 0.31261 0.37913 0.0
O208 O 0.81905 0.27733 0.39907 0.0
C209 C 0.83394 0.30541 0.39962 0.0
C210 C 0.80194 0.2727 0.31181 0.0
C211 C 0.81314 0.32622 0.40418 0.0
C212 C 0.76369 0.34116 0.39429 0.0
C213 C 0.7858 0.32431 0.38737 0.0
C214 C 0.79708 0.36344 0.43366 0.0
C215 C 0.76863 0.36018 0.41814 0.0
C216 C 0.81911 0.34653 0.42678 0.0
C217 C 0.89243 0.21695 0.37541 0.0
C218 C 0.92059 0.21467 0.42018 0.0
C219 C 0.91607 0.17509 0.38528 0.0
C220 C 0.89931 0.18999 0.36705 0.0
C221 C 0.92638 0.18702 0.41216 0.0
C222 C 0.90342 0.22952 0.40191 0.0
C223 C 0.87186 0.22998 0.35677 0.0
O224 O 0.79141 0.25846 0.33553 0.0
O225 O 0.8309 0.28882 0.31397 0.0
O226 O 0.88274 0.25745 0.34792 0.0
O227 O 0.84195 0.22443 0.36438 0.0
H228 H 0.81437 0.21835 0.30201 0.0
H229 H 0.79379 0.1849 0.26239 0.0
H230 H 0.75396 0.25386 0.22391 0.0
H231 H 0.77372 0.28679 0.264 0.0
H232 H 0.742 0.33807 0.382 0.0
H233 H 0.7809 0.30881 0.36968 0.0
H234 H 0.80177 0.37832 0.45183 0.0
H235 H 0.8402 0.34851 0.43977 0.0
H236 H 0.92829 0.22415 0.44089 0.0
H237 H 0.92054 0.15392 0.3786 0.0
H238 H 0.89094 0.18 0.34667 0.0
H239 H 0.89806 0.25029 0.4087 0.0
C240 C 0.29333 0.65001 0.1797 0.0
C241 C 0.28508 0.66341 0.15452 0.0
C242 C 0.23562 0.62546 0.14992 0.0
C243 C 0.25665 0.65138 0.13985 0.0
C244 C 0.24461 0.61178 0.17488 0.0
C245 C 0.27285 0.62395 0.18958 0.0
U246 U 0.37517 0.68666 0.22396 0.0
O247 O 0.37411 0.67745 0.2707 0.0
O248 O 0.40086 0.65385 0.24249 0.0
C249 C 0.3911 0.65722 0.26873 0.0
C250 C 0.32294 0.66326 0.19574 0.0
C251 C 0.40706 0.64786 0.29493 0.0
C252 C 0.414 0.60742 0.32727 0.0
C253 C 0.40222 0.61741 0.30168 0.0
C254 C 0.4369 0.65816 0.34007 0.0
C255 C 0.43142 0.62752 0.34727 0.0
C256 C 0.42478 0.66815 0.31447 0.0
C257 C 0.41482 0.76491 0.18703 0.0
C258 C 0.43836 0.81781 0.17882 0.0
C259 C 0.41547 0.78726 0.13902 0.0
C260 C 0.40735 0.76235 0.15759 0.0
C261 C 0.43158 0.81549 0.14919 0.0
C262 C 0.43008 0.79307 0.19728 0.0
C263 C 0.4101 0.73885 0.20734 0.0
O264 O 0.35065 0.65819 0.18876 0.0
O265 O 0.32328 0.6809 0.21786 0.0
O266 O 0.38753 0.7359 0.22666 0.0
O267 O 0.414 0.71315 0.1977 0.0
H268 H 0.30048 0.6835 0.14636 0.0
H269 H 0.25088 0.66288 0.12099 0.0
H270 H 0.22988 0.59142 0.18316 0.0
H271 H 0.27867 0.61293 0.20877 0.0
H272 H 0.4085 0.58379 0.33165 0.0
H273 H 0.38839 0.60112 0.28736 0.0
H274 H 0.45061 0.67464 0.35423 0.0
H275 H 0.42904 0.69178 0.31013 0.0
H276 H 0.45113 0.83859 0.18783 0.0
H277 H 0.40914 0.78425 0.11659 0.0
H278 H 0.39566 0.74104 0.14883 0.0
H279 H 0.43653 0.79583 0.21973 0.0
C280 C 0.12409 0.29276 0.6779 0.0
C281 C 0.14252 0.28962 0.65381 0.0
C282 C 0.10816 0.24052 0.64237 0.0
C283 C 0.13481 0.26389 0.63644 0.0
C284 C 0.08982 0.24423 0.66659 0.0
C285 C 0.09777 0.26967 0.684 0.0
U286 U 0.15984 0.37155 0.71859 0.0
O287 O 0.12706 0.39771 0.73733 0.0
O288 O 0.15436 0.37486 0.76579 0.0
C289 C 0.13274 0.39076 0.76392 0.0
C290 C 0.13065 0.31946 0.69714 0.0
C291 C 0.12588 0.40884 0.78924 0.0
C292 C 0.08829 0.41666 0.82665 0.0
C293 C 0.09548 0.40214 0.80166 0.0
C294 C 0.14157 0.44609 0.82726 0.0
C295 C 0.11116 0.43894 0.84038 0.0
C296 C 0.14884 0.43117 0.80241 0.0
C297 C 0.24279 0.41263 0.67917 0.0
C298 C 0.29462 0.44649 0.67378 0.0
C299 C 0.27652 0.40994 0.63714 0.0
C300 C 0.24789 0.39973 0.65268 0.0
C301 C 0.30074 0.4333 0.64772 0.0
C302 C 0.26648 0.43624 0.68917 0.0
C303 C 0.21364 0.40312 0.69739 0.0
O304 O 0.15277 0.32238 0.71691 0.0
O305 O 0.12579 0.34504 0.6879 0.0
O306 O 0.18566 0.40529 0.68784 0.0
O307 O 0.21239 0.38299 0.71767 0.0
H308 H 0.16293 0.30698 0.64843 0.0
H309 H 0.15018 0.26236 0.61853 0.0
H310 H 0.06875 0.22779 0.67211 0.0
H311 H 0.08294 0.2714 0.70233 0.0
H312 H 0.06477 0.40961 0.8355 0.0
H313 H 0.07717 0.38493 0.79232 0.0
H314 H 0.16011 0.46338 0.83602 0.0
H315 H 0.17252 0.43704 0.79359 0.0
H316 H 0.31166 0.46508 0.68256 0.0
H317 H 0.27993 0.39908 0.61723 0.0
H318 H 0.23001 0.38163 0.64416 0.0
H319 H 0.26324 0.44699 0.70923 0.0
Dy320 Dy 0.04516 0.03426 0.51207 0.0
Dy321 Dy 0.9867 0.02178 0.55539 0.0
C322 C 0.04164 0.08171 0.56265 0.0
O323 O 0.05306 0.99778 0.53982 0.0
O324 O 0.02273 1.00269 0.5788 0.0
O325 O 0.09505 0.04143 0.5032 0.0
O326 O 0.0606 0.0343 0.46838 0.0
O327 O 0.98414 0.97725 0.53503 0.0
O328 O 1.00887 0.99544 0.49359 0.0
O329 O 0.97131 0.04116 0.51524 0.0
O330 O 0.01895 0.06912 0.50144 0.0
O331 O 0.93656 1.00618 0.56157 0.0
O332 O 0.9664 0.0274 0.5965 0.0
C333 C 0.04468 0.99158 0.56643 0.0
O334 O 0.0603 0.07062 0.54542 0.0
O335 O 1.0117 0.0685 0.56579 0.0
C336 C 0.11013 0.06399 0.45827 0.0
C337 C 0.1448 0.10812 0.42283 0.0
C338 C 0.14111 0.11409 0.45194 0.0
C339 C 0.12349 0.0921 0.46964 0.0
C340 C 0.11425 0.05809 0.42929 0.0
C341 C 0.13132 0.08012 0.41159 0.0
C342 C 0.09045 0.04072 0.47548 0.0
C343 C 0.99123 0.97326 0.50815 0.0
C344 C 0.98811 0.06397 0.50135 0.0
C345 C 0.9229 0.98943 0.60891 0.0
C346 C 0.88731 0.94857 0.64727 0.0
C347 C 0.89151 0.94003 0.61894 0.0
C348 C 0.90929 0.9604 0.59978 0.0
C349 C 0.92049 0.99713 0.6377 0.0
C350 C 0.90303 0.97678 0.65679 0.0
C351 C 0.93845 1.01254 0.58886 0.0
H352 H 0.15147 0.13574 0.46076 0.0
H353 H 0.12015 0.09708 0.49197 0.0
H354 H 0.10392 0.03649 0.42029 0.0
H355 H 0.13428 0.07525 0.38916 0.0
H356 H 0.87948 0.91837 0.61119 0.0
H357 H 0.91125 0.95382 0.5777 0.0
H358 H 0.93114 1.01929 0.64519 0.0
H359 H 0.90036 0.98364 0.67869 0.0
Dy360 Dy 0.48817 1.019 1.01274 0.0
Dy361 Dy 0.54954 0.03173 0.05492 0.0
C362 C 0.49303 0.97236 0.06482 0.0
O363 O 0.4818 0.05576 0.0418 0.0
O364 O 0.51478 0.05072 0.07921 0.0
O365 O 0.43771 1.01035 1.00643 0.0
O366 O 0.46966 1.02048 0.97002 0.0
O367 O 0.55235 0.07544 0.03116 0.0
O368 O 0.52481 0.05495 0.99188 0.0
O369 O 0.56189 1.00452 1.01926 0.0
O370 O 0.51419 0.98555 0.99748 0.0
O371 O 0.60003 0.04701 0.05877 0.0
O372 O 0.57203 0.02754 0.09545 0.0
C373 C 0.49176 0.06132 0.0682 0.0
O374 O 0.47598 0.98052 0.04408 0.0
O375 O 0.52136 0.98794 0.07146 0.0
C376 C 0.42117 0.98766 0.96212 0.0
C377 C 0.38194 0.94267 0.93074 0.0
C378 C 0.39592 0.93561 0.95619 0.0
C379 C 0.41562 0.95809 0.97187 0.0
C380 C 0.40828 0.99436 0.93605 0.0
C381 C 0.3887 0.97198 0.92044 0.0
C382 C 0.44045 1.01192 0.97853 0.0
C383 C 0.54345 0.07776 1.00435 0.0
C384 C 0.5442 0.9861 1.00148 0.0
C385 C 0.61719 0.06415 0.10463 0.0
C386 C 0.65043 0.10785 0.14119 0.0
C387 C 0.63166 0.11563 0.11915 0.0
C388 C 0.61505 0.09382 0.10089 0.0
C389 C 0.63538 0.05629 0.12691 0.0
C390 C 0.65196 0.07804 0.14511 0.0
C391 C 0.59985 0.0409 0.08612 0.0
H392 H 0.39066 0.91305 0.9644 0.0
H393 H 0.42588 0.95255 0.99181 0.0
H394 H 0.41281 1.01702 0.9281 0.0
H395 H 0.37798 0.97766 0.90079 0.0
H396 H 0.6303 0.13857 0.11577 0.0
H397 H 0.60071 0.10005 0.08387 0.0
H398 H 0.63673 0.03333 0.13021 0.0
H399 H 0.66593 0.07159 0.16232 0.0
Dy400 Dy 0.52319 0.49603 0.51801 0.0
Dy401 Dy 0.51893 0.5559 0.55346 0.0
C402 C 0.54498 0.50425 0.58524 0.0
O403 O 0.47194 0.48473 0.53198 0.0
O404 O 0.47468 0.52189 0.56534 0.0
O405 O 0.53733 0.45413 0.52063 0.0
O406 O 0.52286 0.469 0.47988 0.0
O407 O 0.4981 0.5628 0.5094 0.0
O408 O 0.50062 0.5201 0.48511 0.0
O409 O 0.5683 0.56958 0.53574 0.0
O410 O 0.56876 0.52884 0.50758 0.0
O411 O 0.51649 0.60217 0.55473 0.0
O412 O 0.51129 0.57615 0.59379 0.0
C413 C 0.45949 0.49699 0.55334 0.0
O414 O 0.53083 0.48676 0.56472 0.0
O415 O 0.54827 0.53325 0.58294 0.0
C416 C 0.5657 0.44463 0.47963 0.0
C417 C 0.62035 0.43095 0.45482 0.0
C418 C 0.62182 0.44448 0.48194 0.0
C419 C 0.59486 0.45128 0.49419 0.0
C420 C 0.5644 0.43211 0.45216 0.0
C421 C 0.59144 0.42539 0.43983 0.0
C422 C 0.5366 0.45029 0.49298 0.0
C423 C 0.49368 0.54644 0.48586 0.0
C424 C 0.58203 0.55571 0.51663 0.0
C425 C 0.47972 0.61101 0.58909 0.0
C426 C 0.42371 0.62803 0.60545 0.0
C427 C 0.42466 0.61184 0.58007 0.0
C428 C 0.45242 0.60328 0.57203 0.0
C429 C 0.47887 0.62712 0.61433 0.0
C430 C 0.45115 0.63558 0.62244 0.0
C431 C 0.5086 0.60095 0.58175 0.0
H432 H 0.64381 0.44961 0.49385 0.0
H433 H 0.59682 0.46141 0.51523 0.0
H434 H 0.54228 0.42702 0.44043 0.0
H435 H 0.5894 0.41488 0.41898 0.0
H436 H 0.40385 0.60546 0.56667 0.0
H437 H 0.4525 0.59041 0.55264 0.0
H438 H 0.49963 0.63302 0.62787 0.0
H439 H 0.45135 0.64841 0.64187 0.0
Dy440 Dy 0.01834 0.55811 1.01452 0.0
Dy441 Dy 0.02289 0.49922 0.05172 0.0
C442 C 0.99344 0.55084 0.0817 0.0
O443 O 0.06554 0.5738 0.0361 0.0
O444 O 0.0698 0.53071 0.05948 0.0
O445 O 1.01386 0.60379 1.01179 0.0
O446 O 1.01196 0.57754 0.97325 0.0
O447 O 0.0291 0.48965 1.00429 0.0
O448 O 0.05051 0.53623 0.98802 0.0
O449 O 0.97142 0.48882 0.0386 0.0
O450 O 0.97612 0.52264 1.00167 0.0
O451 O 0.03725 0.45746 0.04978 0.0
O452 O 0.02098 0.47161 0.08997 0.0
C453 C 0.08097 0.55884 0.0529 0.0
O454 O 0.99219 0.56247 0.05587 0.0
O455 O 1.00616 0.52762 0.08551 0.0
C456 C 0.97917 0.61186 0.97486 0.0
C457 C 0.92568 0.63207 0.95619 0.0
C458 C 0.92355 0.61318 0.98018 0.0
C459 C 0.9502 0.60317 0.98952 0.0
C460 C 0.98088 0.62977 0.95036 0.0
C461 C 0.95443 0.63983 0.94113 0.0
C462 C 1.00771 0.60217 0.98439 0.0
C463 C 0.0454 0.50728 0.98467 0.0
C464 C 0.95997 0.49914 1.01538 0.0
C465 C 0.06341 0.44657 0.09152 0.0
C466 C 0.11694 0.43027 0.11611 0.0
C467 C 0.12022 0.44951 0.09224 0.0
C468 C 0.0938 0.45762 0.08013 0.0
C469 C 0.06016 0.42826 0.11592 0.0
C470 C 0.08665 0.42024 0.12816 0.0
C471 C 0.03504 0.45294 0.07734 0.0
H472 H 0.90169 0.60705 0.99222 0.0
H473 H 0.94833 0.58904 1.00836 0.0
H474 H 1.00286 0.63633 0.93854 0.0
H475 H 0.95655 0.65415 0.92241 0.0
H476 H 0.14322 0.45809 0.08271 0.0
H477 H 0.0971 0.47209 0.06149 0.0
H478 H 0.037 0.41959 0.12513 0.0
H479 H 0.0832 0.40527 0.14642 0.0
H480 H 0.20676 0.19393 0.32469 0.0
H481 H 0.29114 0.19125 0.37258 0.0
H482 H 0.2593 0.15889 0.4088 0.0
H483 H 0.2071 0.13163 0.42633 0.0
H484 H 0.12355 0.1331 0.37663 0.0
H485 H 0.15532 0.1664 0.34148 0.0
C486 C 0.21804 0.18623 0.34316 0.0
C487 C 0.25087 0.19494 0.3465 0.0
C488 C 0.19976 0.1679 0.36347 0.0
C489 C 0.26572 0.18465 0.36994 0.0
C490 C 0.24758 0.1664 0.39057 0.0
C491 C 0.19605 0.13975 0.40797 0.0
C492 C 0.16334 0.13059 0.40389 0.0
C493 C 0.21455 0.1581 0.38761 0.0
C494 C 0.14883 0.14039 0.37997 0.0
C495 C 0.16692 0.15915 0.35994 0.0
H496 H 0.26212 0.87431 0.86648 0.0
H497 H 0.33131 0.83538 0.82384 0.0
H498 H 0.37187 0.85946 0.85803 0.0
H499 H 0.38903 0.89786 0.89547 0.0
H500 H 0.31985 0.93977 0.93406 0.0
H501 H 0.27789 0.90883 0.90567 0.0
C502 C 0.28606 0.87094 0.86477 0.0
C503 C 0.29394 0.85372 0.84236 0.0
C504 C 0.30929 0.88582 0.88351 0.0
C505 C 0.32473 0.8487 0.84089 0.0
C506 C 0.34797 0.8627 0.86023 0.0
C507 C 0.3646 0.89955 0.89793 0.0
C508 C 0.35711 0.92072 0.91662 0.0
C509 C 0.34077 0.88223 0.88093 0.0
C510 C 0.32572 0.92334 0.91973 0.0
C511 C 0.30187 0.90577 0.90352 0.0
H512 H 0.5893 0.42084 0.67908 0.0
H513 H 0.60241 0.50039 0.73034 0.0
H514 H 0.58585 0.52699 0.68991 0.0
H515 H 0.56629 0.52805 0.63919 0.0
H516 H 0.55033 0.44681 0.5903 0.0
H517 H 0.56818 0.42113 0.63042 0.0
C518 C 0.58822 0.44385 0.68198 0.0
C519 C 0.59763 0.45806 0.70854 0.0
C520 C 0.57778 0.45915 0.65861 0.0
C521 C 0.59628 0.48837 0.71054 0.0
C522 C 0.58639 0.50379 0.68724 0.0
C523 C 0.56682 0.50477 0.63723 0.0
C524 C 0.55688 0.48976 0.61112 0.0
C525 C 0.57704 0.4895 0.661 0.0
C526 C 0.55766 0.45937 0.60965 0.0
C527 C 0.568 0.44444 0.63278 0.0
H528 H 0.93468 0.62855 0.17197 0.0
H529 H 0.96416 0.5687 0.23222 0.0
H530 H 0.98345 0.54297 0.19282 0.0
H531 H 0.99308 0.53717 0.14048 0.0
H532 H 0.96421 0.59783 0.08071 0.0
H533 H 0.94442 0.62301 0.12016 0.0
C534 C 0.94552 0.61005 0.17674 0.0
C535 C 0.94739 0.60086 0.20571 0.0
C536 C 0.95699 0.59513 0.15365 0.0
C537 C 0.96144 0.57637 0.21058 0.0
C538 C 0.97285 0.56158 0.18784 0.0
C539 C 0.98234 0.5558 0.13595 0.0
C540 C 0.98034 0.56518 0.10704 0.0
C541 C 0.97078 0.57063 0.15915 0.0
C542 C 0.9663 0.58966 0.10228 0.0
C543 C 0.95488 0.60429 0.12505 0.0
H544 H 0.43002 0.13032 0.15964 0.0
H545 H 0.44849 0.19804 0.09384 0.0
H546 H 0.46954 0.16456 0.06248 0.0
H547 H 0.48339 0.11601 0.05422 0.0
H548 H 0.4684 0.05032 0.1218 0.0
H549 H 0.44519 0.08306 0.15219 0.0
C550 C 0.43912 0.138 0.13863 0.0
C551 C 0.43793 0.16672 0.1292 0.0
C552 C 0.45157 0.1189 0.12102 0.0
C553 C 0.44899 0.17597 0.10156 0.0
C554 C 0.46109 0.15688 0.08367 0.0
C555 C 0.47487 0.10898 0.07558 0.0
C556 C 0.47732 0.08094 0.08592 0.0
C557 C 0.46249 0.12829 0.09319 0.0
C558 C 0.46672 0.07195 0.11363 0.0
C559 C 0.45351 0.09061 0.13093 0.0
H560 H 0.1014 0.88367 0.60396 0.0
H561 H 0.07029 0.90515 0.68737 0.0
H562 H 0.05213 0.94766 0.66667 0.0
H563 H 0.04295 0.97697 0.62375 0.0
H564 H 0.07591 0.95398 0.54112 0.0
H565 H 0.09522 0.91367 0.56264 0.0
C566 C 0.0904 0.89754 0.61757 0.0
C567 C 0.08635 0.89104 0.64687 0.0
C568 C 0.08031 0.9216 0.60565 0.0
C569 C 0.07318 0.90968 0.66459 0.0
C570 C 0.06281 0.93386 0.65277 0.0
C571 C 0.05451 0.9632 0.61059 0.0
C572 C 0.05786 0.96853 0.58089 0.0
C573 C 0.06587 0.93979 0.62316 0.0
C574 C 0.07309 0.95062 0.56407 0.0
C575 C 0.08411 0.92739 0.57629 0.0
H576 H 0.82103 0.42809 0.97972 0.0
H577 H 0.85213 0.47031 0.89864 0.0
H578 H 0.90251 0.49384 0.91976 0.0
H579 H 0.93839 0.5034 0.96087 0.0
H580 H 0.91051 0.45957 0.04163 0.0
H581 H 0.85901 0.43569 1.02099 0.0
C582 C 0.83885 0.44221 0.96654 0.0
C583 C 0.83181 0.44771 0.93751 0.0
C584 C 0.86871 0.45556 0.97881 0.0
C585 C 0.85578 0.46619 0.92113 0.0
C586 C 0.88502 0.47958 0.93317 0.0
C587 C 0.92112 0.48868 0.97413 0.0
C588 C 0.92854 0.48365 1.00301 0.0
C589 C 0.89171 0.4747 0.96199 0.0
C590 C 0.90571 0.46403 1.01943 0.0
C591 C 0.87612 0.45035 1.00757 0.0
H592 H 0.72028 0.62658 0.47881 0.0
H593 H 0.68666 0.5869 0.39758 0.0
H594 H 0.63684 0.56297 0.41953 0.0
H595 H 0.60213 0.55192 0.46168 0.0
H596 H 0.632 0.59476 0.54207 0.0
H597 H 0.68316 0.6187 0.52066 0.0
C598 C 0.70207 0.61294 0.46575 0.0
C599 C 0.70835 0.60812 0.43643 0.0
C600 C 0.67243 0.59951 0.47848 0.0
C601 C 0.68375 0.59035 0.42028 0.0
C602 C 0.65479 0.57672 0.4328 0.0
C603 C 0.61985 0.56642 0.47461 0.0
C604 C 0.61318 0.57107 0.50366 0.0
C605 C 0.64892 0.58077 0.46192 0.0
C606 C 0.63634 0.59056 0.51975 0.0
C607 C 0.66571 0.60429 0.50745 0.0
H608 H 0.22264 0.37904 0.18056 0.0
H609 H 0.25185 0.37078 0.09299 0.0
H610 H 0.20983 0.39372 0.07582 0.0
H611 H 0.16308 0.4135 0.08513 0.0
H612 H 0.13294 0.42215 0.17226 0.0
H613 H 0.17662 0.40128 0.19005 0.0
C614 C 0.21983 0.38236 0.15774 0.0
C615 C 0.24058 0.37335 0.13812 0.0
C616 C 0.19526 0.39539 0.14788 0.0
C617 C 0.23669 0.37799 0.10863 0.0
C618 C 0.21245 0.39089 0.09873 0.0
C619 C 0.1663 0.41134 0.10805 0.0
C620 C 0.14463 0.41937 0.12727 0.0
C621 C 0.19144 0.39942 0.1181 0.0
C622 C 0.14897 0.4158 0.15691 0.0
C623 C 0.17405 0.40398 0.16712 0.0
H624 H 0.56875 0.18469 0.91426 0.0
H625 H 0.62767 0.22934 0.98257 0.0
H626 H 0.6142 0.18431 1.01202 0.0
H627 H 0.58452 0.13159 1.01913 0.0
H628 H 0.52484 0.08879 0.95032 0.0
H629 H 0.53915 0.1335 0.9213 0.0
C630 C 0.57849 0.18498 0.93571 0.0
C631 C 0.59934 0.21104 0.9458 0.0
C632 C 0.57031 0.15895 0.95285 0.0
C633 C 0.61198 0.20994 0.97364 0.0
C634 C 0.60403 0.18405 0.99075 0.0
C635 C 0.57471 0.13198 0.99777 0.0
C636 C 0.55362 0.10623 0.9872 0.0
C637 C 0.58312 0.15829 0.98068 0.0
C638 C 0.54123 0.10771 0.95935 0.0
C639 C 0.54939 0.1335 0.94253 0.0
H640 H 0.93374 0.83859 0.47094 0.0
H641 H 0.97374 0.87278 0.38955 0.0
H642 H 0.99271 0.92158 0.41061 0.0
H643 H 0.99839 0.95565 0.45216 0.0
H644 H 0.9573 0.92221 0.53332 0.0
H645 H 0.93847 0.87307 0.5124 0.0
C646 C 0.94634 0.8567 0.45765 0.0
C647 C 0.95239 0.85123 0.4285 0.0
C648 C 0.95716 0.88538 0.46994 0.0
C649 C 0.96911 0.87548 0.41209 0.0
C650 C 0.97989 0.90377 0.42412 0.0
C651 C 0.98524 0.9377 0.46533 0.0
C652 C 0.97938 0.94316 0.49447 0.0
C653 C 0.9742 0.9091 0.45306 0.0
C654 C 0.96227 0.91917 0.5109 0.0
C655 C 0.95141 0.89082 0.49889 0.0
H656 H 0.30611 0.68546 0.62399 0.0
H657 H 0.32221 0.66374 0.71205 0.0
H658 H 0.36454 0.63974 0.69693 0.0
H659 H 0.39846 0.62718 0.65892 0.0
H660 H 0.38361 0.65084 0.57108 0.0
H661 H 0.33856 0.67105 0.58577 0.0
C662 C 0.31863 0.67511 0.63982 0.0
C663 C 0.31118 0.67637 0.66909 0.0
C664 C 0.34305 0.6617 0.63099 0.0
C665 C 0.32783 0.66329 0.68944 0.0
C666 C 0.35189 0.6495 0.68079 0.0
C667 C 0.38542 0.63684 0.643 0.0
C668 C 0.39462 0.63779 0.614 0.0
C669 C 0.36001 0.649 0.65168 0.0
C670 C 0.37696 0.64968 0.59352 0.0
C671 C 0.35134 0.66145 0.60193 0.0
H672 H 0.77263 0.89307 0.72568 0.0
H673 H 0.8085 0.8139 0.71442 0.0
H674 H 0.85144 0.84175 0.68392 0.0
H675 H 0.87834 0.88941 0.66056 0.0
H676 H 0.84068 0.96751 0.67383 0.0
H677 H 0.79852 0.93914 0.70342 0.0
C678 C 0.78948 0.88172 0.71611 0.0
C679 C 0.78708 0.85145 0.72153 0.0
C680 C 0.81382 0.89775 0.6992 0.0
C681 C 0.80979 0.83721 0.71008 0.0
C682 C 0.83424 0.85311 0.69275 0.0
C683 C 0.86082 0.9 0.67004 0.0
C684 C 0.86269 0.93049 0.66548 0.0
C685 C 0.83646 0.88347 0.68717 0.0
C686 C 0.83999 0.94419 0.67764 0.0
C687 C 0.81578 0.92799 0.69436 0.0
H688 H 0.71064 0.20954 0.22622 0.0
H689 H 0.79356 0.17502 0.20927 0.0
H690 H 0.76284 0.13807 0.17667 0.0
H691 H 0.71238 0.11582 0.15339 0.0
H692 H 0.62984 0.15085 0.17032 0.0
H693 H 0.66077 0.18813 0.20238 0.0
C694 C 0.72215 0.1943 0.21497 0.0
C695 C 0.75433 0.19518 0.21971 0.0
C696 C 0.70448 0.17338 0.19641 0.0
C697 C 0.76877 0.17471 0.20581 0.0
C698 C 0.75128 0.1537 0.1872 0.0
C699 C 0.70127 0.13163 0.16422 0.0
C700 C 0.66907 0.13077 0.15978 0.0
C701 C 0.71913 0.15283 0.18246 0.0
C702 C 0.65475 0.15143 0.17343 0.0
C703 C 0.67233 0.17256 0.19176 0.0
H704 H 0.44946 0.57437 0.35956 0.0
H705 H 0.43916 0.65559 0.40019 0.0
H706 H 0.45701 0.63855 0.44561 0.0
H707 H 0.47568 0.60021 0.47489 0.0
H708 H 0.48402 0.5186 0.43381 0.0
H709 H 0.46649 0.53594 0.38861 0.0
C710 C 0.45071 0.58843 0.37826 0.0
C711 C 0.44287 0.61664 0.37561 0.0
C712 C 0.46069 0.57826 0.40486 0.0
C713 C 0.44546 0.63417 0.40067 0.0
C714 C 0.45549 0.62425 0.42704 0.0
C715 C 0.47356 0.5861 0.45613 0.0
C716 C 0.48136 0.55786 0.45841 0.0
C717 C 0.46324 0.5963 0.42955 0.0
C718 C 0.47832 0.5403 0.43338 0.0
C719 C 0.46825 0.55027 0.40719 0.0
H720 H 0.0527 0.44578 0.8627 0.0
H721 H 0.15246 0.46594 0.88319 0.0
H722 H 0.14169 0.48975 0.92723 0.0
H723 H 0.10398 0.50457 0.96183 0.0
H724 H 1.0042 0.48025 0.94375 0.0
H725 H 1.01499 0.45839 0.89797 0.0
C726 C 0.07235 0.45495 0.87668 0.0
C727 C 0.10373 0.45383 0.86833 0.0
C728 C 0.06591 0.46813 0.90309 0.0
C729 C 0.12817 0.46669 0.88758 0.0
C730 C 0.12199 0.48026 0.91337 0.0
C731 C 0.0846 0.49456 0.94783 0.0
C732 C 0.05319 0.49435 0.95645 0.0
C733 C 0.09099 0.48118 0.92151 0.0
C734 C 0.02853 0.48087 0.93792 0.0
C735 C 0.03475 0.4683 0.91159 0.0
H736 H 0.61465 0.88745 0.96369 0.0
H737 H 0.56101 0.89006 0.88627 0.0
H738 H 0.53876 0.93033 0.9063 0.0
H739 H 0.53241 0.96259 0.94768 0.0
H740 H 0.5887 0.96011 1.02374 0.0
H741 H 0.6119 0.92177 1.00256 0.0
C742 C 0.59805 0.89686 0.95124 0.0
C743 C 0.58882 0.88551 0.92395 0.0
C744 C 0.5857 0.91981 0.96277 0.0
C745 C 0.56808 0.89834 0.90754 0.0
C746 C 0.55534 0.92122 0.91902 0.0
C747 C 0.54979 0.9536 0.95945 0.0
C748 C 0.55869 0.96392 0.98728 0.0
C749 C 0.56353 0.93174 0.94691 0.0
C750 C 0.58158 0.95256 1.00226 0.0
C751 C 0.5948 0.93058 0.99022 0.0
H752 H 0.90203 0.13149 0.43043 0.0
H753 H 0.98424 0.20315 0.4381 0.0
H754 H 1.011 0.17115 0.4667 0.0
H755 H 1.01158 0.1218 0.4872 0.0
H756 H 0.92815 0.05099 0.48042 0.0
H757 H 0.90121 0.08363 0.45356 0.0
C758 C 0.92577 0.14006 0.43854 0.0
C759 C 0.94142 0.16934 0.43205 0.0
C760 C 0.94077 0.12164 0.4548 0.0
C761 C 0.97188 0.18058 0.44293 0.0
C762 C 0.98717 0.16227 0.45907 0.0
C763 C 0.98754 0.11355 0.47973 0.0
C764 C 0.97197 0.08395 0.4854 0.0
C765 C 0.97201 0.13259 0.46469 0.0
C766 C 0.94063 0.07365 0.47619 0.0
C767 C 0.92522 0.09228 0.46085 0.0
H768 H 0.21958 0.62567 0.09182 0.0
H769 H 0.17939 0.59775 0.17493 0.0
H770 H 0.1295 0.57464 0.15249 0.0
H771 H 0.09682 0.56062 0.1093 0.0
H772 H 0.1339 0.59221 1.02651 0.0
H773 H 0.18487 0.61552 0.04862 0.0
C774 C 0.19993 0.6148 0.10517 0.0
C775 C 0.2042 0.61297 0.1353 0.0
C776 C 0.17046 0.60193 0.09206 0.0
C777 C 0.17785 0.59874 0.15179 0.0
C778 C 0.14892 0.58564 0.13894 0.0
C779 C 0.11608 0.57264 0.0961 0.0
C780 C 0.11162 0.57432 0.06621 0.0
C781 C 0.14502 0.58667 0.10911 0.0
C782 C 0.13665 0.59049 0.04952 0.0
C783 C 0.16586 0.6038 0.06221 0.0
H784 H 0.31652 0.43724 0.58894 0.0
H785 H 0.35867 0.45216 0.67317 0.0
H786 H 0.40962 0.47337 0.65184 0.0
H787 H 0.44313 0.48949 0.60966 0.0
H788 H 0.40431 0.47089 0.52499 0.0
H789 H 0.35202 0.44949 0.54586 0.0
C790 C 0.33683 0.44484 0.60271 0.0
C791 C 0.33275 0.44371 0.63302 0.0
C792 C 0.36709 0.45662 0.59012 0.0
C793 C 0.36002 0.45362 0.65 0.0
C794 C 0.3896 0.46563 0.63777 0.0
C795 C 0.42326 0.48065 0.59571 0.0
C796 C 0.42782 0.48206 0.5657 0.0
C797 C 0.39344 0.46768 0.60792 0.0
C798 C 0.40172 0.47007 0.54811 0.0
C799 C 0.37169 0.45787 0.56012 0.0
H800 H 0.83432 0.71285 0.91605 0.0
H801 H 0.76892 0.62842 0.90728 0.0
H802 H 0.80879 0.60293 0.92672 0.0
H803 H 0.86398 0.60516 0.94377 0.0
H804 H 0.92852 0.69063 0.95059 0.0
H805 H 0.88733 0.71534 0.93457 0.0
C806 C 0.82873 0.68888 0.91884 0.0
C807 C 0.79893 0.67243 0.91058 0.0
C808 C 0.85172 0.67465 0.92952 0.0
C809 C 0.79173 0.64143 0.91396 0.0
C810 C 0.81457 0.62694 0.92485 0.0
C811 C 0.86875 0.62918 0.94198 0.0
C812 C 0.89927 0.64612 0.9481 0.0
C813 C 0.84487 0.64334 0.93238 0.0
C814 C 0.90532 0.67719 0.94563 0.0
C815 C 0.88179 0.69133 0.93656 0.0
H816 H 0.43777 0.87571 0.16021 0.0
H817 H 0.45049 0.81593 0.09242 0.0
H818 H 0.46863 0.85812 0.06031 0.0
H819 H 0.48246 0.91282 0.05116 0.0
H820 H 0.47358 0.97227 0.12008 0.0
H821 H 0.4529 0.92984 0.15169 0.0
C822 C 0.44469 0.87166 0.13853 0.0
C823 C 0.44224 0.842 0.12914 0.0
C824 C 0.45592 0.89632 0.12007 0.0
C825 C 0.45115 0.83799 0.10054 0.0
C826 C 0.4619 0.86233 0.08203 0.0
C827 C 0.47573 0.9164 0.07304 0.0
C828 C 0.47923 0.94581 0.08309 0.0
C829 C 0.46445 0.89166 0.09147 0.0
C830 C 0.47095 0.94998 0.11169 0.0
C831 C 0.45914 0.92565 0.12983 0.0
H832 H 0.07373 0.1836 0.65646 0.0
H833 H 0.12186 0.23357 0.58467 0.0
H834 H 0.10846 0.18946 0.5548 0.0
H835 H 0.08142 0.13604 0.54786 0.0
H836 H 0.02851 0.08883 0.61847 0.0
H837 H 0.04476 0.13223 0.64914 0.0
C838 C 0.08108 0.18544 0.63422 0.0
C839 C 0.09934 0.21278 0.62354 0.0
C840 C 0.07228 0.15997 0.61651 0.0
C841 C 0.10867 0.21331 0.59442 0.0
C842 C 0.10068 0.18787 0.57695 0.0
C843 C 0.07376 0.13519 0.57004 0.0
C844 C 0.054 0.10876 0.5808 0.0
C845 C 0.08246 0.16094 0.58765 0.0
C846 C 0.0438 0.10857 0.6095 0.0
C847 C 0.05309 0.13353 0.62715 0.0
H848 H 0.73041 0.38945 0.38754 0.0
H849 H 0.74838 0.36066 0.47299 0.0
H850 H 0.70508 0.38071 0.49172 0.0
H851 H 0.66103 0.40467 0.48399 0.0
H852 H 0.6423 0.43447 0.39919 0.0
H853 H 0.68663 0.41554 0.38005 0.0
C854 C 0.72485 0.38771 0.41025 0.0
C855 C 0.74289 0.37387 0.4289 0.0
C856 C 0.69968 0.39931 0.421 0.0
C857 C 0.73537 0.37175 0.45827 0.0
C858 C 0.71043 0.38302 0.469 0.0
C859 C 0.66689 0.40753 0.46138 0.0
C860 C 0.6483 0.42102 0.44311 0.0
C861 C 0.69239 0.39674 0.4506 0.0
C862 C 0.65596 0.42387 0.41373 0.0
C863 C 0.6814 0.41315 0.40278 0.0
loop_
_geom_bond_atom_site_label_1
_geom_bond_atom_site_label_2
_geom_bond_distance
_geom_bond_site_symmetry_2
_ccdc_geom_bond_type
C0 C1 1.264 . S
C0 C5 1.479 . S
C0 C10 1.465 . S
C1 C0 1.264 . S
C1 C3 1.339 . S
C1 H28 0.931 . S
C2 C3 1.395 . S
C2 C4 1.320 . S
C3 C1 1.339 . S
C3 C2 1.395 . S
C3 H29 0.929 . S
C4 C2 1.320 . S
C4 C5 1.405 . S
C4 H30 0.930 . S
C5 C0 1.479 . S
C5 C4 1.405 . S
C5 H31 0.931 . S
U6 O7 2.454 . S
U6 O8 2.458 . S
U6 C9 2.984 . S
U6 C10 2.847 . S
U6 C23 2.882 . S
U6 O24 2.441 . S
U6 O25 2.420 . S
U6 O26 2.455 . S
U6 O27 2.449 . S
O7 U6 2.454 . S
O7 C9 1.353 . S
O8 U6 2.458 . S
O8 C9 1.286 . S
C9 U6 2.984 . S
C9 O7 1.353 . S
C9 O8 1.286 . S
C9 C11 1.363 . S
C10 C0 1.465 . S
C10 U6 2.847 . S
C10 O24 1.249 . S
C10 O25 1.202 . S
C11 C9 1.363 . S
C11 C13 1.408 . S
C11 C16 1.342 . S
C12 C13 1.310 . S
C12 C15 1.461 . S
C12 H32 0.932 . S
C13 C11 1.408 . S
C13 C12 1.310 . S
C13 H33 0.930 . S
C14 C15 1.474 . S
C14 C16 1.285 . S
C14 H34 0.929 . S
C15 C12 1.461 . S
C15 C14 1.474 . S
C16 C11 1.342 . S
C16 C14 1.285 . S
C16 H35 0.930 . S
C17 C20 1.424 . S
C17 C22 1.245 . S
C17 C23 1.428 . S
C18 C21 1.260 . S
C18 C22 1.477 . S
C18 H36 0.932 . S
C19 C20 1.384 . S
C19 C21 1.479 . S
C19 H37 0.929 . S
C20 C17 1.424 . S
C20 C19 1.384 . S
C20 H38 0.928 . S
C21 C18 1.260 . S
C21 C19 1.479 . S
C22 C17 1.245 . S
C22 C18 1.477 . S
C22 H39 0.932 . S
C23 U6 2.882 . S
C23 C17 1.428 . S
C23 O26 1.301 . S
C23 O27 1.282 . S
O24 U6 2.441 . S
O24 C10 1.249 . S
O25 U6 2.420 . S
O25 C10 1.202 . S
O26 U6 2.455 . S
O26 C23 1.301 . S
O27 U6 2.449 . S
O27 C23 1.282 . S
H28 C1 0.931 . S
H29 C3 0.929 . S
H30 C4 0.930 . S
H31 C5 0.931 . S
H32 C12 0.932 . S
H33 C13 0.930 . S
H34 C14 0.929 . S
H35 C16 0.930 . S
H36 C18 0.932 . S
H37 C19 0.929 . S
H38 C20 0.928 . S
H39 C22 0.932 . S
C40 C41 1.264 . S
C40 C45 1.479 . S
C40 C50 1.465 . S
C41 C40 1.264 . S
C41 C43 1.339 . S
C41 H68 0.931 . S
C42 C43 1.395 . S
C42 C44 1.320 . S
C43 C41 1.339 . S
C43 C42 1.395 . S
C43 H69 0.929 . S
C44 C42 1.320 . S
C44 C45 1.405 . S
C44 H70 0.930 . S
C45 C40 1.479 . S
C45 C44 1.405 . S
C45 H71 0.931 . S
U46 O47 2.454 . S
U46 O48 2.458 . S
U46 C49 2.984 . S
U46 C50 2.847 . S
U46 C63 2.882 . S
U46 O64 2.441 . S
U46 O65 2.420 . S
U46 O66 2.455 . S
U46 O67 2.449 . S
O47 U46 2.454 . S
O47 C49 1.353 . S
O48 U46 2.458 . S
O48 C49 1.286 . S
C49 U46 2.984 . S
C49 O47 1.353 . S
C49 O48 1.286 . S
C49 C51 1.363 . S
C50 C40 1.465 . S
C50 U46 2.847 . S
C50 O64 1.249 . S
C50 O65 1.202 . S
C51 C49 1.363 . S
C51 C53 1.408 . S
C51 C56 1.342 . S
C52 C53 1.310 . S
C52 C55 1.461 . S
C52 H72 0.932 . S
C53 C51 1.408 . S
C53 C52 1.310 . S
C53 H73 0.930 . S
C54 C55 1.474 . S
C54 C56 1.285 . S
C54 H74 0.929 . S
C55 C52 1.461 . S
C55 C54 1.474 . S
C56 C51 1.342 . S
C56 C54 1.285 . S
C56 H75 0.930 . S
C57 C60 1.424 . S
C57 C62 1.245 . S
C57 C63 1.428 . S
C58 C61 1.260 . S
C58 C62 1.477 . S
C58 H76 0.932 . S
C59 C60 1.384 . S
C59 C61 1.479 . S
C59 H77 0.929 . S
C60 C57 1.424 . S
C60 C59 1.384 . S
C60 H78 0.928 . S
C61 C58 1.260 . S
C61 C59 1.479 . S
C62 C57 1.245 . S
C62 C58 1.477 . S
C62 H79 0.932 . S
C63 U46 2.882 . S
C63 C57 1.428 . S
C63 O66 1.301 . S
C63 O67 1.282 . S
O64 U46 2.441 . S
O64 C50 1.249 . S
O65 U46 2.420 . S
O65 C50 1.202 . S
O66 U46 2.455 . S
O66 C63 1.301 . S
O67 U46 2.449 . S
O67 C63 1.282 . S
H68 C41 0.931 . S
H69 C43 0.929 . S
H70 C44 0.930 . S
H71 C45 0.931 . S
H72 C52 0.932 . S
H73 C53 0.930 . S
H74 C54 0.929 . S
H75 C56 0.930 . S
H76 C58 0.932 . S
H77 C59 0.929 . S
H78 C60 0.928 . S
H79 C62 0.932 . S
C80 C81 1.264 . S
C80 C85 1.479 . S
C80 C90 1.465 . S
C81 C80 1.264 . S
C81 C83 1.339 . S
C81 H108 0.931 . S
C82 C83 1.395 . S
C82 C84 1.320 . S
C83 C81 1.339 . S
C83 C82 1.395 . S
C83 H109 0.929 . S
C84 C82 1.320 . S
C84 C85 1.405 . S
C84 H110 0.930 . S
C85 C80 1.479 . S
C85 C84 1.405 . S
C85 H111 0.931 . S
U86 O87 2.454 . S
U86 O88 2.458 . S
U86 C89 2.984 . S
U86 C90 2.847 . S
U86 C103 2.882 . S
U86 O104 2.441 . S
U86 O105 2.420 . S
U86 O106 2.455 . S
U86 O107 2.449 . S
O87 U86 2.454 . S
O87 C89 1.353 . S
O88 U86 2.458 . S
O88 C89 1.286 . S
C89 U86 2.984 . S
C89 O87 1.353 . S
C89 O88 1.286 . S
C89 C91 1.363 . S
C90 C80 1.465 . S
C90 U86 2.847 . S
C90 O104 1.249 . S
C90 O105 1.202 . S
C91 C89 1.363 . S
C91 C93 1.408 . S
C91 C96 1.342 . S
C92 C93 1.310 . S
C92 C95 1.461 . S
C92 H112 0.932 . S
C93 C91 1.408 . S
C93 C92 1.310 . S
C93 H113 0.930 . S
C94 C95 1.474 . S
C94 C96 1.285 . S
C94 H114 0.929 . S
C95 C92 1.461 . S
C95 C94 1.474 . S
C96 C91 1.342 . S
C96 C94 1.285 . S
C96 H115 0.930 . S
C97 C100 1.424 . S
C97 C102 1.245 . S
C97 C103 1.428 . S
C98 C101 1.260 . S
C98 C102 1.477 . S
C98 H116 0.932 . S
C99 C100 1.384 . S
C99 C101 1.479 . S
C99 H117 0.929 . S
C100 C97 1.424 . S
C100 C99 1.384 . S
C100 H118 0.928 . S
C101 C98 1.260 . S
C101 C99 1.479 . S
C102 C97 1.245 . S
C102 C98 1.477 . S
C102 H119 0.932 . S
C103 U86 2.882 . S
C103 C97 1.428 . S
C103 O106 1.301 . S
C103 O107 1.282 . S
O104 U86 2.441 . S
O104 C90 1.249 . S
O105 U86 2.420 . S
O105 C90 1.202 . S
O106 U86 2.455 . S
O106 C103 1.301 . S
O107 U86 2.449 . S
O107 C103 1.282 . S
H108 C81 0.931 . S
H109 C83 0.929 . S
H110 C84 0.930 . S
H111 C85 0.931 . S
H112 C92 0.932 . S
H113 C93 0.930 . S
H114 C94 0.929 . S
H115 C96 0.930 . S
H116 C98 0.932 . S
H117 C99 0.929 . S
H118 C100 0.928 . S
H119 C102 0.932 . S
C120 C121 1.264 . S
C120 C125 1.479 . S
C120 C130 1.465 . S
C121 C120 1.264 . S
C121 C123 1.339 . S
C121 H148 0.931 . S
C122 C123 1.395 . S
C122 C124 1.320 . S
C123 C121 1.339 . S
C123 C122 1.395 . S
C123 H149 0.929 . S
C124 C122 1.320 . S
C124 C125 1.405 . S
C124 H150 0.930 . S
C125 C120 1.479 . S
C125 C124 1.405 . S
C125 H151 0.931 . S
U126 O127 2.454 . S
U126 O128 2.458 . S
U126 C129 2.984 . S
U126 C130 2.847 . S
U126 C143 2.882 . S
U126 O144 2.441 . S
U126 O145 2.420 . S
U126 O146 2.455 . S
U126 O147 2.449 . S
O127 U126 2.454 . S
O127 C129 1.353 . S
O128 U126 2.458 . S
O128 C129 1.286 . S
C129 U126 2.984 . S
C129 O127 1.353 . S
C129 O128 1.286 . S
C129 C131 1.363 . S
C130 C120 1.465 . S
C130 U126 2.847 . S
C130 O144 1.249 . S
C130 O145 1.202 . S
C131 C129 1.363 . S
C131 C133 1.408 . S
C131 C136 1.342 . S
C132 C133 1.310 . S
C132 C135 1.461 . S
C132 H152 0.932 . S
C133 C131 1.408 . S
C133 C132 1.310 . S
C133 H153 0.930 . S
C134 C135 1.474 . S
C134 C136 1.285 . S
C134 H154 0.929 . S
C135 C132 1.461 . S
C135 C134 1.474 . S
C136 C131 1.342 . S
C136 C134 1.285 . S
C136 H155 0.930 . S
C137 C140 1.424 . S
C137 C142 1.245 . S
C137 C143 1.428 . S
C138 C141 1.260 . S
C138 C142 1.477 . S
C138 H156 0.932 . S
C139 C140 1.384 . S
C139 C141 1.479 . S
C139 H157 0.929 . S
C140 C137 1.424 . S
C140 C139 1.384 . S
C140 H158 0.928 . S
C141 C138 1.260 . S
C141 C139 1.479 . S
C142 C137 1.245 . S
C142 C138 1.477 . S
C142 H159 0.932 . S
C143 U126 2.882 . S
C143 C137 1.428 . S
C143 O146 1.301 . S
C143 O147 1.282 . S
O144 U126 2.441 . S
O144 C130 1.249 . S
O145 U126 2.420 . S
O145 C130 1.202 . S
O146 U126 2.455 . S
O146 C143 1.301 . S
O147 U126 2.449 . S
O147 C143 1.282 . S
H148 C121 0.931 . S
H149 C123 0.929 . S
H150 C124 0.930 . S
H151 C125 0.931 . S
H152 C132 0.932 . S
H153 C133 0.930 . S
H154 C134 0.929 . S
H155 C136 0.930 . S
H156 C138 0.932 . S
H157 C139 0.929 . S
H158 C140 0.928 . S
H159 C142 0.932 . S
C160 C161 1.264 . S
C160 C165 1.479 . S
C160 C170 1.465 . S
C161 C160 1.264 . S
C161 C163 1.339 . S
C161 H188 0.931 . S
C162 C163 1.395 . S
C162 C164 1.320 . S
C163 C161 1.339 . S
C163 C162 1.395 . S
C163 H189 0.929 . S
C164 C162 1.320 . S
C164 C165 1.405 . S
C164 H190 0.930 . S
C165 C160 1.479 . S
C165 C164 1.405 . S
C165 H191 0.931 . S
U166 O167 2.454 . S
U166 O168 2.458 . S
U166 C169 2.984 . S
U166 C170 2.847 . S
U166 C183 2.882 . S
U166 O184 2.441 . S
U166 O185 2.420 . S
U166 O186 2.455 . S
U166 O187 2.449 . S
O167 U166 2.454 . S
O167 C169 1.353 . S
O168 U166 2.458 . S
O168 C169 1.286 . S
C169 U166 2.984 . S
C169 O167 1.353 . S
C169 O168 1.286 . S
C169 C171 1.363 . S
C170 C160 1.465 . S
C170 U166 2.847 . S
C170 O184 1.249 . S
C170 O185 1.202 . S
C171 C169 1.363 . S
C171 C173 1.408 . S
C171 C176 1.342 . S
C172 C173 1.310 . S
C172 C175 1.461 . S
C172 H192 0.932 . S
C173 C171 1.408 . S
C173 C172 1.310 . S
C173 H193 0.930 . S
C174 C175 1.474 . S
C174 C176 1.285 . S
C174 H194 0.929 . S
C175 C172 1.461 . S
C175 C174 1.474 . S
C176 C171 1.342 . S
C176 C174 1.285 . S
C176 H195 0.930 . S
C177 C180 1.424 . S
C177 C182 1.245 . S
C177 C183 1.428 . S
C178 C181 1.260 . S
C178 C182 1.477 . S
C178 H196 0.932 . S
C179 C180 1.384 . S
C179 C181 1.479 . S
C179 H197 0.929 . S
C180 C177 1.424 . S
C180 C179 1.384 . S
C180 H198 0.928 . S
C181 C178 1.260 . S
C181 C179 1.479 . S
C182 C177 1.245 . S
C182 C178 1.477 . S
C182 H199 0.932 . S
C183 U166 2.882 . S
C183 C177 1.428 . S
C183 O186 1.301 . S
C183 O187 1.282 . S
O184 U166 2.441 . S
O184 C170 1.249 . S
O185 U166 2.420 . S
O185 C170 1.202 . S
O186 U166 2.455 . S
O186 C183 1.301 . S
O187 U166 2.449 . S
O187 C183 1.282 . S
H188 C161 0.931 . S
H189 C163 0.929 . S
H190 C164 0.930 . S
H191 C165 0.931 . S
H192 C172 0.932 . S
H193 C173 0.930 . S
H194 C174 0.929 . S
H195 C176 0.930 . S
H196 C178 0.932 . S
H197 C179 0.929 . S
H198 C180 0.928 . S
H199 C182 0.932 . S
C200 C201 1.264 . S
C200 C205 1.479 . S
C200 C210 1.465 . S
C201 C200 1.264 . S
C201 C203 1.339 . S
C201 H228 0.931 . S
C202 C203 1.395 . S
C202 C204 1.320 . S
C203 C201 1.339 . S
C203 C202 1.395 . S
C203 H229 0.929 . S
C204 C202 1.320 . S
C204 C205 1.405 . S
C204 H230 0.930 . S
C205 C200 1.479 . S
C205 C204 1.405 . S
C205 H231 0.931 . S
U206 O207 2.454 . S
U206 O208 2.458 . S
U206 C209 2.984 . S
U206 C210 2.847 . S
U206 C223 2.882 . S
U206 O224 2.441 . S
U206 O225 2.420 . S
U206 O226 2.455 . S
U206 O227 2.449 . S
O207 U206 2.454 . S
O207 C209 1.353 . S
O208 U206 2.458 . S
O208 C209 1.286 . S
C209 U206 2.984 . S
C209 O207 1.353 . S
C209 O208 1.286 . S
C209 C211 1.363 . S
C210 C200 1.465 . S
C210 U206 2.847 . S
C210 O224 1.249 . S
C210 O225 1.202 . S
C211 C209 1.363 . S
C211 C213 1.408 . S
C211 C216 1.342 . S
C212 C213 1.310 . S
C212 C215 1.461 . S
C212 H232 0.932 . S
C213 C211 1.408 . S
C213 C212 1.310 . S
C213 H233 0.930 . S
C214 C215 1.474 . S
C214 C216 1.285 . S
C214 H234 0.929 . S
C215 C212 1.461 . S
C215 C214 1.474 . S
C216 C211 1.342 . S
C216 C214 1.285 . S
C216 H235 0.930 . S
C217 C220 1.424 . S
C217 C222 1.245 . S
C217 C223 1.428 . S
C218 C221 1.260 . S
C218 C222 1.477 . S
C218 H236 0.932 . S
C219 C220 1.384 . S
C219 C221 1.479 . S
C219 H237 0.929 . S
C220 C217 1.424 . S
C220 C219 1.384 . S
C220 H238 0.928 . S
C221 C218 1.260 . S
C221 C219 1.479 . S
C222 C217 1.245 . S
C222 C218 1.477 . S
C222 H239 0.932 . S
C223 U206 2.882 . S
C223 C217 1.428 . S
C223 O226 1.301 . S
C223 O227 1.282 . S
O224 U206 2.441 . S
O224 C210 1.249 . S
O225 U206 2.420 . S
O225 C210 1.202 . S
O226 U206 2.455 . S
O226 C223 1.301 . S
O227 U206 2.449 . S
O227 C223 1.282 . S
H228 C201 0.931 . S
H229 C203 0.929 . S
H230 C204 0.930 . S
H231 C205 0.931 . S
H232 C212 0.932 . S
H233 C213 0.930 . S
H234 C214 0.929 . S
H235 C216 0.930 . S
H236 C218 0.932 . S
H237 C219 0.929 . S
H238 C220 0.928 . S
H239 C222 0.932 . S
C240 C241 1.264 . S
C240 C245 1.479 . S
C240 C250 1.465 . S
C241 C240 1.264 . S
C241 C243 1.339 . S
C241 H268 0.931 . S
C242 C243 1.395 . S
C242 C244 1.320 . S
C243 C241 1.339 . S
C243 C242 1.395 . S
C243 H269 0.929 . S
C244 C242 1.320 . S
C244 C245 1.405 . S
C244 H270 0.930 . S
C245 C240 1.479 . S
C245 C244 1.405 . S
C245 H271 0.931 . S
U246 O247 2.454 . S
U246 O248 2.458 . S
U246 C249 2.984 . S
U246 C250 2.847 . S
U246 C263 2.882 . S
U246 O264 2.441 . S
U246 O265 2.420 . S
U246 O266 2.455 . S
U246 O267 2.449 . S
O247 U246 2.454 . S
O247 C249 1.353 . S
O248 U246 2.458 . S
O248 C249 1.286 . S
C249 U246 2.984 . S
C249 O247 1.353 . S
C249 O248 1.286 . S
C249 C251 1.363 . S
C250 C240 1.465 . S
C250 U246 2.847 . S
C250 O264 1.249 . S
C250 O265 1.202 . S
C251 C249 1.363 . S
C251 C253 1.408 . S
C251 C256 1.342 . S
C252 C253 1.310 . S
C252 C255 1.461 . S
C252 H272 0.932 . S
C253 C251 1.408 . S
C253 C252 1.310 . S
C253 H273 0.930 . S
C254 C255 1.474 . S
C254 C256 1.285 . S
C254 H274 0.929 . S
C255 C252 1.461 . S
C255 C254 1.474 . S
C256 C251 1.342 . S
C256 C254 1.285 . S
C256 H275 0.930 . S
C257 C260 1.424 . S
C257 C262 1.245 . S
C257 C263 1.428 . S
C258 C261 1.260 . S
C258 C262 1.477 . S
C258 H276 0.932 . S
C259 C260 1.384 . S
C259 C261 1.479 . S
C259 H277 0.929 . S
C260 C257 1.424 . S
C260 C259 1.384 . S
C260 H278 0.928 . S
C261 C258 1.260 . S
C261 C259 1.479 . S
C262 C257 1.245 . S
C262 C258 1.477 . S
C262 H279 0.932 . S
C263 U246 2.882 . S
C263 C257 1.428 . S
C263 O266 1.301 . S
C263 O267 1.282 . S
O264 U246 2.441 . S
O264 C250 1.249 . S
O265 U246 2.420 . S
O265 C250 1.202 . S
O266 U246 2.455 . S
O266 C263 1.301 . S
O267 U246 2.449 . S
O267 C263 1.282 . S
H268 C241 0.931 . S
H269 C243 0.929 . S
H270 C244 0.930 . S
H271 C245 0.931 . S
H272 C252 0.932 . S
H273 C253 0.930 . S
H274 C254 0.929 . S
H275 C256 0.930 . S
H276 C258 0.932 . S
H277 C259 0.929 . S
H278 C260 0.928 . S
H279 C262 0.932 . S
C280 C281 1.264 . S
C280 C285 1.479 . S
C280 C290 1.465 . S
C281 C280 1.264 . S
C281 C283 1.339 . S
C281 H308 0.931 . S
C282 C283 1.395 . S
C282 C284 1.320 . S
C283 C281 1.339 . S
C283 C282 1.395 . S
C283 H309 0.929 . S
C284 C282 1.320 . S
C284 C285 1.405 . S
C284 H310 0.930 . S
C285 C280 1.479 . S
C285 C284 1.405 . S
C285 H311 0.931 . S
U286 O287 2.454 . S
U286 O288 2.458 . S
U286 C289 2.984 . S
U286 C290 2.847 . S
U286 C303 2.882 . S
U286 O304 2.441 . S
U286 O305 2.420 . S
U286 O306 2.455 . S
U286 O307 2.449 . S
O287 U286 2.454 . S
O287 C289 1.353 . S
O288 U286 2.458 . S
O288 C289 1.286 . S
C289 U286 2.984 . S
C289 O287 1.353 . S
C289 O288 1.286 . S
C289 C291 1.363 . S
C290 C280 1.465 . S
C290 U286 2.847 . S
C290 O304 1.249 . S
C290 O305 1.202 . S
C291 C289 1.363 . S
C291 C293 1.408 . S
C291 C296 1.342 . S
C292 C293 1.310 . S
C292 C295 1.461 . S
C292 H312 0.932 . S
C293 C291 1.408 . S
C293 C292 1.310 . S
C293 H313 0.930 . S
C294 C295 1.474 . S
C294 C296 1.285 . S
C294 H314 0.929 . S
C295 C292 1.461 . S
C295 C294 1.474 . S
C296 C291 1.342 . S
C296 C294 1.285 . S
C296 H315 0.930 . S
C297 C300 1.424 . S
C297 C302 1.245 . S
C297 C303 1.428 . S
C298 C301 1.260 . S
C298 C302 1.477 . S
C298 H316 0.932 . S
C299 C300 1.384 . S
C299 C301 1.479 . S
C299 H317 0.929 . S
C300 C297 1.424 . S
C300 C299 1.384 . S
C300 H318 0.928 . S
C301 C298 1.260 . S
C301 C299 1.479 . S
C302 C297 1.245 . S
C302 C298 1.477 . S
C302 H319 0.932 . S
C303 U286 2.882 . S
C303 C297 1.428 . S
C303 O306 1.301 . S
C303 O307 1.282 . S
O304 U286 2.441 . S
O304 C290 1.249 . S
O305 U286 2.420 . S
O305 C290 1.202 . S
O306 U286 2.455 . S
O306 C303 1.301 . S
O307 U286 2.449 . S
O307 C303 1.282 . S
H308 C281 0.931 . S
H309 C283 0.929 . S
H310 C284 0.930 . S
H311 C285 0.931 . S
H312 C292 0.932 . S
H313 C293 0.930 . S
H314 C294 0.929 . S
H315 C296 0.930 . S
H316 C298 0.932 . S
H317 C299 0.929 . S
H318 C300 0.928 . S
H319 C302 0.932 . S
Dy320 O323 2.307 1_545 S
Dy320 O325 2.395 . S
Dy320 O326 2.379 . S
Dy320 O328 2.339 1_545 S
Dy320 O330 2.315 . S
Dy320 O334 2.275 . S
Dy320 C342 2.738 . S
Dy321 O324 2.298 1_645 S
Dy321 O327 2.275 1_545 S
Dy321 O329 2.307 . S
Dy321 O331 2.395 1_545 S
Dy321 O332 2.379 1_545 S
Dy321 O335 2.339 . S
Dy321 C351 2.738 1_545 S
C322 O334 1.254 . S
C322 O335 1.257 1_455 S
O323 Dy320 2.307 1_565 S
O323 C333 1.266 . S
O324 Dy321 2.298 1_465 S
O324 C333 1.236 . S
O325 Dy320 2.395 . S
O325 C342 1.255 . S
O326 Dy320 2.379 . S
O326 C342 1.249 . S
O327 Dy321 2.275 1_565 S
O327 C343 1.254 . S
O328 Dy320 2.339 1_565 S
O328 C343 1.257 1_455 S
O329 Dy321 2.307 . S
O329 C344 1.266 . S
O330 Dy320 2.315 . S
O330 C344 1.219 1_455 S
O331 Dy321 2.395 1_565 S
O331 C351 1.255 . S
O332 Dy321 2.379 1_565 S
O332 C351 1.249 . S
C333 O323 1.266 . S
C333 O324 1.236 . S
O334 Dy320 2.275 . S
O334 C322 1.254 . S
O335 Dy321 2.339 . S
O335 C322 1.257 1_655 S
C336 C339 1.344 . S
C336 C340 1.328 . S
C336 C342 1.516 . S
C337 C338 1.304 . S
C337 C341 1.323 . S
C338 C337 1.304 . S
C338 C339 1.371 . S
C338 H352 0.930 . S
C339 C336 1.344 . S
C339 C338 1.371 . S
C339 H353 0.931 . S
C340 C336 1.328 . S
C340 C341 1.433 . S
C340 H354 0.931 . S
C341 C337 1.323 . S
C341 C340 1.433 . S
C341 H355 0.933 . S
C342 Dy320 2.738 . S
C342 O325 1.255 . S
C342 O326 1.249 . S
C342 C336 1.516 . S
C343 O327 1.254 . S
C343 O328 1.257 1_655 S
C344 O329 1.266 . S
C344 O330 1.219 1_655 S
C345 C348 1.344 . S
C345 C349 1.328 . S
C345 C351 1.516 . S
C346 C347 1.304 . S
C346 C350 1.323 . S
C347 C346 1.304 . S
C347 C348 1.371 . S
C347 H356 0.930 . S
C348 C345 1.344 . S
C348 C347 1.371 . S
C348 H357 0.931 . S
C349 C345 1.328 . S
C349 C350 1.433 . S
C349 H358 0.931 . S
C350 C346 1.323 . S
C350 C349 1.433 . S
C350 H359 0.933 . S
C351 Dy321 2.738 1_565 S
C351 O331 1.255 . S
C351 O332 1.249 . S
C351 C345 1.516 . S
H352 C338 0.930 . S
H353 C339 0.931 . S
H354 C340 0.931 . S
H355 C341 0.933 . S
H356 C347 0.930 . S
H357 C348 0.931 . S
H358 C349 0.931 . S
H359 C350 0.933 . S
Dy360 O363 2.301 1_566 S
Dy360 O365 2.403 . S
Dy360 O366 2.380 . S
Dy360 O368 2.332 1_565 S
Dy360 O370 2.303 . S
Dy360 O374 2.281 1_556 S
Dy360 C382 2.743 . S
Dy361 O364 2.298 . S
Dy361 O367 2.275 1_554 S
Dy361 O369 2.307 1_544 S
Dy361 O371 2.395 . S
Dy361 O372 2.379 . S
Dy361 O375 2.339 1_545 S
Dy361 C391 2.738 . S
C362 O374 1.254 . S
C362 O375 1.257 . S
O363 Dy360 2.301 1_544 S
O363 C373 1.266 . S
O364 Dy361 2.298 . S
O364 C373 1.236 . S
O365 Dy360 2.403 . S
O365 C382 1.255 . S
O366 Dy360 2.380 . S
O366 C382 1.249 . S
O367 Dy361 2.275 1_556 S
O367 C383 1.254 . S
O368 Dy360 2.332 1_545 S
O368 C383 1.257 . S
O369 Dy361 2.307 1_566 S
O369 C384 1.266 . S
O370 Dy360 2.303 . S
O370 C384 1.236 . S
O371 Dy361 2.395 . S
O371 C391 1.255 . S
O372 Dy361 2.379 . S
O372 C391 1.249 . S
C373 O363 1.266 . S
C373 O364 1.236 . S
O374 Dy360 2.281 1_554 S
O374 C362 1.254 . S
O375 Dy361 2.339 1_565 S
O375 C362 1.257 . S
C376 C379 1.344 . S
C376 C380 1.328 . S
C376 C382 1.516 . S
C377 C378 1.304 . S
C377 C381 1.323 . S
C378 C377 1.304 . S
C378 C379 1.371 . S
C378 H392 0.930 . S
C379 C376 1.344 . S
C379 C378 1.371 . S
C379 H393 0.931 . S
C380 C376 1.328 . S
C380 C381 1.433 . S
C380 H394 0.931 . S
C381 C377 1.323 . S
C381 C380 1.433 . S
C381 H395 0.933 . S
C382 Dy360 2.743 . S
C382 O365 1.255 . S
C382 O366 1.249 . S
C382 C376 1.516 . S
C383 O367 1.254 . S
C383 O368 1.257 . S
C384 O369 1.266 . S
C384 O370 1.236 . S
C385 C388 1.344 . S
C385 C389 1.328 . S
C385 C391 1.516 . S
C386 C387 1.304 . S
C386 C390 1.323 . S
C387 C386 1.304 . S
C387 C388 1.371 . S
C387 H396 0.930 . S
C388 C385 1.344 . S
C388 C387 1.371 . S
C388 H397 0.931 . S
C389 C385 1.328 . S
C389 C390 1.433 . S
C389 H398 0.931 . S
C390 C386 1.323 . S
C390 C389 1.433 . S
C390 H399 0.933 . S
C391 Dy361 2.738 . S
C391 O371 1.255 . S
C391 O372 1.249 . S
C391 C385 1.516 . S
H392 C378 0.930 . S
H393 C379 0.931 . S
H394 C380 0.931 . S
H395 C381 0.933 . S
H396 C387 0.930 . S
H397 C388 0.931 . S
H398 C389 0.931 . S
H399 C390 0.933 . S
Dy400 O403 2.307 . S
Dy400 O405 2.395 . S
Dy400 O406 2.379 . S
Dy400 O408 2.339 . S
Dy400 O410 2.298 . S
Dy400 O414 2.275 . S
Dy400 C422 2.738 . S
Dy401 O404 2.298 . S
Dy401 O407 2.275 . S
Dy401 O409 2.307 . S
Dy401 O411 2.395 . S
Dy401 O412 2.379 . S
Dy401 O415 2.339 . S
Dy401 C431 2.738 . S
C402 O414 1.254 . S
C402 O415 1.257 . S
O403 Dy400 2.307 . S
O403 C413 1.266 . S
O404 Dy401 2.298 . S
O404 C413 1.236 . S
O405 Dy400 2.395 . S
O405 C422 1.255 . S
O406 Dy400 2.379 . S
O406 C422 1.249 . S
O407 Dy401 2.275 . S
O407 C423 1.254 . S
O408 Dy400 2.339 . S
O408 C423 1.257 . S
O409 Dy401 2.307 . S
O409 C424 1.266 . S
O410 Dy400 2.298 . S
O410 C424 1.236 . S
O411 Dy401 2.395 . S
O411 C431 1.255 . S
O412 Dy401 2.379 . S
O412 C431 1.249 . S
C413 O403 1.266 . S
C413 O404 1.236 . S
O414 Dy400 2.275 . S
O414 C402 1.254 . S
O415 Dy401 2.339 . S
O415 C402 1.257 . S
C416 C419 1.344 . S
C416 C420 1.328 . S
C416 C422 1.516 . S
C417 C418 1.304 . S
C417 C421 1.323 . S
C418 C417 1.304 . S
C418 C419 1.371 . S
C418 H432 0.930 . S
C419 C416 1.344 . S
C419 C418 1.371 . S
C419 H433 0.931 . S
C420 C416 1.328 . S
C420 C421 1.433 . S
C420 H434 0.931 . S
C421 C417 1.323 . S
C421 C420 1.433 . S
C421 H435 0.933 . S
C422 Dy400 2.738 . S
C422 O405 1.255 . S
C422 O406 1.249 . S
C422 C416 1.516 . S
C423 O407 1.254 . S
C423 O408 1.257 . S
C424 O409 1.266 . S
C424 O410 1.236 . S
C425 C428 1.344 . S
C425 C429 1.328 . S
C425 C431 1.516 . S
C426 C427 1.304 . S
C426 C430 1.323 . S
C427 C426 1.304 . S
C427 C428 1.371 . S
C427 H436 0.930 . S
C428 C425 1.344 . S
C428 C427 1.371 . S
C428 H437 0.931 . S
C429 C425 1.328 . S
C429 C430 1.433 . S
C429 H438 0.931 . S
C430 C426 1.323 . S
C430 C429 1.433 . S
C430 H439 0.933 . S
C431 Dy401 2.738 . S
C431 O411 1.255 . S
C431 O412 1.249 . S
C431 C425 1.516 . S
H432 C418 0.930 . S
H433 C419 0.931 . S
H434 C420 0.931 . S
H435 C421 0.933 . S
H436 C427 0.930 . S
H437 C428 0.931 . S
H438 C429 0.931 . S
H439 C430 0.933 . S
Dy440 O443 2.307 1_556 S
Dy440 O445 2.395 1_455 S
Dy440 O446 2.379 1_455 S
Dy440 O448 2.339 . S
Dy440 O450 2.298 1_455 S
Dy440 O454 2.275 1_456 S
Dy440 C462 2.738 1_455 S
Dy441 O444 2.298 . S
Dy441 O447 2.275 1_554 S
Dy441 O449 2.307 1_455 S
Dy441 O451 2.395 . S
Dy441 O452 2.379 . S
Dy441 O455 2.339 1_455 S
Dy441 C471 2.738 . S
C442 O454 1.254 . S
C442 O455 1.257 . S
O443 Dy440 2.307 1_554 S
O443 C453 1.266 . S
O444 Dy441 2.298 . S
O444 C453 1.236 . S
O445 Dy440 2.395 1_655 S
O445 C462 1.255 . S
O446 Dy440 2.379 1_655 S
O446 C462 1.249 . S
O447 Dy441 2.275 1_556 S
O447 C463 1.254 . S
O448 Dy440 2.339 . S
O448 C463 1.257 . S
O449 Dy441 2.307 1_655 S
O449 C464 1.266 1_554 S
O450 Dy440 2.298 1_655 S
O450 C464 1.236 . S
O451 Dy441 2.395 . S
O451 C471 1.255 . S
O452 Dy441 2.379 . S
O452 C471 1.249 . S
C453 O443 1.266 . S
C453 O444 1.236 . S
O454 Dy440 2.275 1_654 S
O454 C442 1.254 . S
O455 Dy441 2.339 1_655 S
O455 C442 1.257 . S
C456 C459 1.344 . S
C456 C460 1.328 . S
C456 C462 1.516 . S
C457 C458 1.304 . S
C457 C461 1.323 . S
C458 C457 1.304 . S
C458 C459 1.371 . S
C458 H472 0.930 . S
C459 C456 1.344 . S
C459 C458 1.371 . S
C459 H473 0.931 . S
C460 C456 1.328 . S
C460 C461 1.433 . S
C460 H474 0.931 . S
C461 C457 1.323 . S
C461 C460 1.433 . S
C461 H475 0.933 . S
C462 Dy440 2.738 1_655 S
C462 O445 1.255 . S
C462 O446 1.249 . S
C462 C456 1.516 . S
C463 O447 1.254 . S
C463 O448 1.257 . S
C464 O449 1.266 1_556 S
C464 O450 1.236 . S
C465 C468 1.344 . S
C465 C469 1.328 . S
C465 C471 1.516 . S
C466 C467 1.304 . S
C466 C470 1.323 . S
C467 C466 1.304 . S
C467 C468 1.371 . S
C467 H476 0.930 . S
C468 C465 1.344 . S
C468 C467 1.371 . S
C468 H477 0.931 . S
C469 C465 1.328 . S
C469 C470 1.433 . S
C469 H478 0.931 . S
C470 C466 1.323 . S
C470 C469 1.433 . S
C470 H479 0.933 . S
C471 Dy441 2.738 . S
C471 O451 1.255 . S
C471 O452 1.249 . S
C471 C465 1.516 . S
H472 C458 0.930 . S
H473 C459 0.931 . S
H474 C460 0.931 . S
H475 C461 0.933 . S
H476 C467 0.930 . S
H477 C468 0.931 . S
H478 C469 0.931 . S
H479 C470 0.933 . S
H480 C486 0.930 . S
H481 C489 0.930 . S
H482 C490 0.930 . S
H483 C491 0.930 . S
H484 C494 0.930 . S
H485 C495 0.930 . S
C486 H480 0.930 . S
C486 C487 1.355 . S
C486 C488 1.415 . S
C487 C486 1.355 . S
C487 C489 1.419 . S
C488 C486 1.415 . S
C488 C493 1.425 . S
C488 C495 1.409 . S
C489 H481 0.930 . S
C489 C487 1.419 . S
C489 C490 1.362 . S
C490 H482 0.930 . S
C490 C489 1.362 . S
C490 C493 1.409 . S
C491 H483 0.930 . S
C491 C492 1.355 . S
C491 C493 1.415 . S
C492 C491 1.355 . S
C492 C494 1.419 . S
C493 C488 1.425 . S
C493 C490 1.409 . S
C493 C491 1.415 . S
C494 H484 0.930 . S
C494 C492 1.419 . S
C494 C495 1.362 . S
C495 H485 0.930 . S
C495 C488 1.409 . S
C495 C494 1.362 . S
H496 C502 0.930 . S
H497 C505 0.930 . S
H498 C506 0.930 . S
H499 C507 0.930 . S
H500 C510 0.930 . S
H501 C511 0.930 . S
C502 H496 0.930 . S
C502 C503 1.355 . S
C502 C504 1.415 . S
C503 C502 1.355 . S
C503 C505 1.419 . S
C504 C502 1.415 . S
C504 C509 1.425 . S
C504 C511 1.409 . S
C505 H497 0.930 . S
C505 C503 1.419 . S
C505 C506 1.362 . S
C506 H498 0.930 . S
C506 C505 1.362 . S
C506 C509 1.409 . S
C507 H499 0.930 . S
C507 C508 1.355 . S
C507 C509 1.415 . S
C508 C507 1.355 . S
C508 C510 1.419 . S
C509 C504 1.425 . S
C509 C506 1.409 . S
C509 C507 1.415 . S
C510 H500 0.930 . S
C510 C508 1.419 . S
C510 C511 1.362 . S
C511 H501 0.930 . S
C511 C504 1.409 . S
C511 C510 1.362 . S
H512 C518 0.930 . S
H513 C521 0.930 . S
H514 C522 0.930 . S
H515 C523 0.930 . S
H516 C526 0.930 . S
H517 C527 0.930 . S
C518 H512 0.930 . S
C518 C519 1.355 . S
C518 C520 1.415 . S
C519 C518 1.355 . S
C519 C521 1.419 . S
C520 C518 1.415 . S
C520 C525 1.425 . S
C520 C527 1.409 . S
C521 H513 0.930 . S
C521 C519 1.419 . S
C521 C522 1.362 . S
C522 H514 0.930 . S
C522 C521 1.362 . S
C522 C525 1.409 . S
C523 H515 0.930 . S
C523 C524 1.355 . S
C523 C525 1.415 . S
C524 C523 1.355 . S
C524 C526 1.419 . S
C525 C520 1.425 . S
C525 C522 1.409 . S
C525 C523 1.415 . S
C526 H516 0.930 . S
C526 C524 1.419 . S
C526 C527 1.362 . S
C527 H517 0.930 . S
C527 C520 1.409 . S
C527 C526 1.362 . S
H528 C534 0.930 . S
H529 C537 0.930 . S
H530 C538 0.930 . S
H531 C539 0.930 . S
H532 C542 0.930 . S
H533 C543 0.930 . S
C534 H528 0.930 . S
C534 C535 1.355 . S
C534 C536 1.415 . S
C535 C534 1.355 . S
C535 C537 1.419 . S
C536 C534 1.415 . S
C536 C541 1.425 . S
C536 C543 1.409 . S
C537 H529 0.930 . S
C537 C535 1.419 . S
C537 C538 1.362 . S
C538 H530 0.930 . S
C538 C537 1.362 . S
C538 C541 1.409 . S
C539 H531 0.930 . S
C539 C540 1.355 . S
C539 C541 1.415 . S
C540 C539 1.355 . S
C540 C542 1.419 . S
C541 C536 1.425 . S
C541 C538 1.409 . S
C541 C539 1.415 . S
C542 H532 0.930 . S
C542 C540 1.419 . S
C542 C543 1.362 . S
C543 H533 0.930 . S
C543 C536 1.409 . S
C543 C542 1.362 . S
H544 C550 0.930 . S
H545 C553 0.930 . S
H546 C554 0.930 . S
H547 C555 0.930 . S
H548 C558 0.930 . S
H549 C559 0.930 . S
C550 H544 0.930 . S
C550 C551 1.355 . S
C550 C552 1.415 . S
C551 C550 1.355 . S
C551 C553 1.419 . S
C552 C550 1.415 . S
C552 C557 1.425 . S
C552 C559 1.409 . S
C553 H545 0.930 . S
C553 C551 1.419 . S
C553 C554 1.362 . S
C554 H546 0.930 . S
C554 C553 1.362 . S
C554 C557 1.409 . S
C555 H547 0.930 . S
C555 C556 1.355 . S
C555 C557 1.415 . S
C556 C555 1.355 . S
C556 C558 1.419 . S
C557 C552 1.425 . S
C557 C554 1.409 . S
C557 C555 1.415 . S
C558 H548 0.930 . S
C558 C556 1.419 . S
C558 C559 1.362 . S
C559 H549 0.930 . S
C559 C552 1.409 . S
C559 C558 1.362 . S
H560 C566 0.930 . S
H561 C569 0.930 . S
H562 C570 0.930 . S
H563 C571 0.930 . S
H564 C574 0.930 . S
H565 C575 0.930 . S
C566 H560 0.930 . S
C566 C567 1.355 . S
C566 C568 1.415 . S
C567 C566 1.355 . S
C567 C569 1.419 . S
C568 C566 1.415 . S
C568 C573 1.425 . S
C568 C575 1.409 . S
C569 H561 0.930 . S
C569 C567 1.419 . S
C569 C570 1.362 . S
C570 H562 0.930 . S
C570 C569 1.362 . S
C570 C573 1.409 . S
C571 H563 0.930 . S
C571 C572 1.355 . S
C571 C573 1.415 . S
C572 C571 1.355 . S
C572 C574 1.419 . S
C573 C568 1.425 . S
C573 C570 1.409 . S
C573 C571 1.415 . S
C574 H564 0.930 . S
C574 C572 1.419 . S
C574 C575 1.362 . S
C575 H565 0.930 . S
C575 C568 1.409 . S
C575 C574 1.362 . S
H576 C582 0.930 . S
H577 C585 0.930 . S
H578 C586 0.930 . S
H579 C587 0.930 . S
H580 C590 0.930 1_554 S
H581 C591 0.930 . S
C582 H576 0.930 . S
C582 C583 1.355 . S
C582 C584 1.415 . S
C583 C582 1.355 . S
C583 C585 1.419 . S
C584 C582 1.415 . S
C584 C589 1.425 . S
C584 C591 1.409 . S
C585 H577 0.930 . S
C585 C583 1.419 . S
C585 C586 1.362 . S
C586 H578 0.930 . S
C586 C585 1.362 . S
C586 C589 1.409 . S
C587 H579 0.930 . S
C587 C588 1.355 . S
C587 C589 1.415 . S
C588 C587 1.355 . S
C588 C590 1.419 . S
C589 C584 1.425 . S
C589 C586 1.409 . S
C589 C587 1.415 . S
C590 H580 0.930 1_556 S
C590 C588 1.419 . S
C590 C591 1.362 . S
C591 H581 0.930 . S
C591 C584 1.409 . S
C591 C590 1.362 . S
H592 C598 0.930 . S
H593 C601 0.930 . S
H594 C602 0.930 . S
H595 C603 0.930 . S
H596 C606 0.930 . S
H597 C607 0.930 . S
C598 H592 0.930 . S
C598 C599 1.355 . S
C598 C600 1.415 . S
C599 C598 1.355 . S
C599 C601 1.419 . S
C600 C598 1.415 . S
C600 C605 1.425 . S
C600 C607 1.409 . S
C601 H593 0.930 . S
C601 C599 1.419 . S
C601 C602 1.362 . S
C602 H594 0.930 . S
C602 C601 1.362 . S
C602 C605 1.409 . S
C603 H595 0.930 . S
C603 C604 1.355 . S
C603 C605 1.415 . S
C604 C603 1.355 . S
C604 C606 1.419 . S
C605 C600 1.425 . S
C605 C602 1.409 . S
C605 C603 1.415 . S
C606 H596 0.930 . S
C606 C604 1.419 . S
C606 C607 1.362 . S
C607 H597 0.930 . S
C607 C600 1.409 . S
C607 C606 1.362 . S
H608 C614 0.930 . S
H609 C617 0.930 . S
H610 C618 0.930 . S
H611 C619 0.930 . S
H612 C622 0.930 . S
H613 C623 0.930 . S
C614 H608 0.930 . S
C614 C615 1.355 . S
C614 C616 1.415 . S
C615 C614 1.355 . S
C615 C617 1.419 . S
C616 C614 1.415 . S
C616 C621 1.425 . S
C616 C623 1.409 . S
C617 H609 0.930 . S
C617 C615 1.419 . S
C617 C618 1.362 . S
C618 H610 0.930 . S
C618 C617 1.362 . S
C618 C621 1.409 . S
C619 H611 0.930 . S
C619 C620 1.355 . S
C619 C621 1.415 . S
C620 C619 1.355 . S
C620 C622 1.419 . S
C621 C616 1.425 . S
C621 C618 1.409 . S
C621 C619 1.415 . S
C622 H612 0.930 . S
C622 C620 1.419 . S
C622 C623 1.362 . S
C623 H613 0.930 . S
C623 C616 1.409 . S
C623 C622 1.362 . S
H624 C630 0.930 . S
H625 C633 0.930 . S
H626 C634 0.930 . S
H627 C635 0.930 . S
H628 C638 0.930 . S
H629 C639 0.930 . S
C630 H624 0.930 . S
C630 C631 1.355 . S
C630 C632 1.415 . S
C631 C630 1.355 . S
C631 C633 1.419 . S
C632 C630 1.415 . S
C632 C637 1.425 . S
C632 C639 1.409 . S
C633 H625 0.930 . S
C633 C631 1.419 . S
C633 C634 1.362 . S
C634 H626 0.930 . S
C634 C633 1.362 . S
C634 C637 1.409 . S
C635 H627 0.930 . S
C635 C636 1.355 . S
C635 C637 1.415 . S
C636 C635 1.355 . S
C636 C638 1.419 . S
C637 C632 1.425 . S
C637 C634 1.409 . S
C637 C635 1.415 . S
C638 H628 0.930 . S
C638 C636 1.419 . S
C638 C639 1.362 . S
C639 H629 0.930 . S
C639 C632 1.409 . S
C639 C638 1.362 . S
H640 C646 0.930 . S
H641 C649 0.930 . S
H642 C650 0.930 . S
H643 C651 0.930 . S
H644 C654 0.930 . S
H645 C655 0.930 . S
C646 H640 0.930 . S
C646 C647 1.355 . S
C646 C648 1.415 . S
C647 C646 1.355 . S
C647 C649 1.419 . S
C648 C646 1.415 . S
C648 C653 1.425 . S
C648 C655 1.409 . S
C649 H641 0.930 . S
C649 C647 1.419 . S
C649 C650 1.362 . S
C650 H642 0.930 . S
C650 C649 1.362 . S
C650 C653 1.409 . S
C651 H643 0.930 . S
C651 C652 1.355 . S
C651 C653 1.415 . S
C652 C651 1.355 . S
C652 C654 1.419 . S
C653 C648 1.425 . S
C653 C650 1.409 . S
C653 C651 1.415 . S
C654 H644 0.930 . S
C654 C652 1.419 . S
C654 C655 1.362 . S
C655 H645 0.930 . S
C655 C648 1.409 . S
C655 C654 1.362 . S
H656 C662 0.930 . S
H657 C665 0.930 . S
H658 C666 0.930 . S
H659 C667 0.930 . S
H660 C670 0.930 . S
H661 C671 0.930 . S
C662 H656 0.930 . S
C662 C663 1.355 . S
C662 C664 1.415 . S
C663 C662 1.355 . S
C663 C665 1.419 . S
C664 C662 1.415 . S
C664 C669 1.425 . S
C664 C671 1.409 . S
C665 H657 0.930 . S
C665 C663 1.419 . S
C665 C666 1.362 . S
C666 H658 0.930 . S
C666 C665 1.362 . S
C666 C669 1.409 . S
C667 H659 0.930 . S
C667 C668 1.355 . S
C667 C669 1.415 . S
C668 C667 1.355 . S
C668 C670 1.419 . S
C669 C664 1.425 . S
C669 C666 1.409 . S
C669 C667 1.415 . S
C670 H660 0.930 . S
C670 C668 1.419 . S
C670 C671 1.362 . S
C671 H661 0.930 . S
C671 C664 1.409 . S
C671 C670 1.362 . S
H672 C678 0.930 . S
H673 C681 0.930 . S
H674 C682 0.930 . S
H675 C683 0.930 . S
H676 C686 0.930 . S
H677 C687 0.930 . S
C678 H672 0.930 . S
C678 C679 1.355 . S
C678 C680 1.415 . S
C679 C678 1.355 . S
C679 C681 1.419 . S
C680 C678 1.415 . S
C680 C685 1.425 . S
C680 C687 1.409 . S
C681 H673 0.930 . S
C681 C679 1.419 . S
C681 C682 1.362 . S
C682 H674 0.930 . S
C682 C681 1.362 . S
C682 C685 1.409 . S
C683 H675 0.930 . S
C683 C684 1.355 . S
C683 C685 1.415 . S
C684 C683 1.355 . S
C684 C686 1.419 . S
C685 C680 1.425 . S
C685 C682 1.409 . S
C685 C683 1.415 . S
C686 H676 0.930 . S
C686 C684 1.419 . S
C686 C687 1.362 . S
C687 H677 0.930 . S
C687 C680 1.409 . S
C687 C686 1.362 . S
H688 C694 0.930 . S
H689 C697 0.930 . S
H690 C698 0.930 . S
H691 C699 0.930 . S
H692 C702 0.930 . S
H693 C703 0.930 . S
C694 H688 0.930 . S
C694 C695 1.355 . S
C694 C696 1.415 . S
C695 C694 1.355 . S
C695 C697 1.419 . S
C696 C694 1.415 . S
C696 C701 1.425 . S
C696 C703 1.409 . S
C697 H689 0.930 . S
C697 C695 1.419 . S
C697 C698 1.362 . S
C698 H690 0.930 . S
C698 C697 1.362 . S
C698 C701 1.409 . S
C699 H691 0.930 . S
C699 C700 1.355 . S
C699 C701 1.415 . S
C700 C699 1.355 . S
C700 C702 1.419 . S
C701 C696 1.425 . S
C701 C698 1.409 . S
C701 C699 1.415 . S
C702 H692 0.930 . S
C702 C700 1.419 . S
C702 C703 1.362 . S
C703 H693 0.930 . S
C703 C696 1.409 . S
C703 C702 1.362 . S
H704 C710 0.930 . S
H705 C713 0.930 . S
H706 C714 0.930 . S
H707 C715 0.930 . S
H708 C718 0.930 . S
H709 C719 0.930 . S
C710 H704 0.930 . S
C710 C711 1.355 . S
C710 C712 1.415 . S
C711 C710 1.355 . S
C711 C713 1.419 . S
C712 C710 1.415 . S
C712 C717 1.425 . S
C712 C719 1.409 . S
C713 H705 0.930 . S
C713 C711 1.419 . S
C713 C714 1.362 . S
C714 H706 0.930 . S
C714 C713 1.362 . S
C714 C717 1.409 . S
C715 H707 0.930 . S
C715 C716 1.355 . S
C715 C717 1.415 . S
C716 C715 1.355 . S
C716 C718 1.419 . S
C717 C712 1.425 . S
C717 C714 1.409 . S
C717 C715 1.415 . S
C718 H708 0.930 . S
C718 C716 1.419 . S
C718 C719 1.362 . S
C719 H709 0.930 . S
C719 C712 1.409 . S
C719 C718 1.362 . S
H720 C726 0.930 . S
H721 C729 0.930 . S
H722 C730 0.930 . S
H723 C731 0.930 . S
H724 C734 0.930 . S
H725 C735 0.930 . S
C726 H720 0.930 . S
C726 C727 1.355 . S
C726 C728 1.415 . S
C727 C726 1.355 . S
C727 C729 1.419 . S
C728 C726 1.415 . S
C728 C733 1.425 . S
C728 C735 1.409 . S
C729 H721 0.930 . S
C729 C727 1.419 . S
C729 C730 1.362 . S
C730 H722 0.930 . S
C730 C729 1.362 . S
C730 C733 1.409 . S
C731 H723 0.930 . S
C731 C732 1.355 . S
C731 C733 1.415 . S
C732 C731 1.355 . S
C732 C734 1.419 . S
C733 C728 1.425 . S
C733 C730 1.409 . S
C733 C731 1.415 . S
C734 H724 0.930 . S
C734 C732 1.419 . S
C734 C735 1.362 . S
C735 H725 0.930 . S
C735 C728 1.409 . S
C735 C734 1.362 . S
H736 C742 0.930 . S
H737 C745 0.930 . S
H738 C746 0.930 . S
H739 C747 0.930 . S
H740 C750 0.930 . S
H741 C751 0.930 . S
C742 H736 0.930 . S
C742 C743 1.355 . S
C742 C744 1.415 . S
C743 C742 1.355 . S
C743 C745 1.419 . S
C744 C742 1.415 . S
C744 C749 1.425 . S
C744 C751 1.409 . S
C745 H737 0.930 . S
C745 C743 1.419 . S
C745 C746 1.362 . S
C746 H738 0.930 . S
C746 C745 1.362 . S
C746 C749 1.409 . S
C747 H739 0.930 . S
C747 C748 1.355 . S
C747 C749 1.415 . S
C748 C747 1.355 . S
C748 C750 1.419 . S
C749 C744 1.425 . S
C749 C746 1.409 . S
C749 C747 1.415 . S
C750 H740 0.930 . S
C750 C748 1.419 . S
C750 C751 1.362 . S
C751 H741 0.930 . S
C751 C744 1.409 . S
C751 C750 1.362 . S
H752 C758 0.930 . S
H753 C761 0.930 1_455 S
H754 C762 0.930 1_455 S
H755 C763 0.930 1_455 S
H756 C766 0.930 . S
H757 C767 0.930 . S
C758 H752 0.930 . S
C758 C759 1.355 . S
C758 C760 1.415 . S
C759 C758 1.355 . S
C759 C761 1.419 . S
C760 C758 1.415 . S
C760 C765 1.425 . S
C760 C767 1.409 . S
C761 H753 0.930 1_655 S
C761 C759 1.419 . S
C761 C762 1.362 . S
C762 H754 0.930 1_655 S
C762 C761 1.362 . S
C762 C765 1.409 . S
C763 H755 0.930 1_655 S
C763 C764 1.355 . S
C763 C765 1.415 . S
C764 C763 1.355 . S
C764 C766 1.419 . S
C765 C760 1.425 . S
C765 C762 1.409 . S
C765 C763 1.415 . S
C766 H756 0.930 . S
C766 C764 1.419 . S
C766 C767 1.362 . S
C767 H757 0.930 . S
C767 C760 1.409 . S
C767 C766 1.362 . S
H768 C774 0.930 . S
H769 C777 0.930 . S
H770 C778 0.930 . S
H771 C779 0.930 . S
H772 C782 0.930 . S
H773 C783 0.930 . S
C774 H768 0.930 . S
C774 C775 1.355 . S
C774 C776 1.415 . S
C775 C774 1.355 . S
C775 C777 1.419 . S
C776 C774 1.415 . S
C776 C781 1.425 . S
C776 C783 1.409 . S
C777 H769 0.930 . S
C777 C775 1.419 . S
C777 C778 1.362 . S
C778 H770 0.930 . S
C778 C777 1.362 . S
C778 C781 1.409 . S
C779 H771 0.930 . S
C779 C780 1.355 . S
C779 C781 1.415 . S
C780 C779 1.355 . S
C780 C782 1.419 . S
C781 C776 1.425 . S
C781 C778 1.409 . S
C781 C779 1.415 . S
C782 H772 0.930 . S
C782 C780 1.419 . S
C782 C783 1.362 . S
C783 H773 0.930 . S
C783 C776 1.409 . S
C783 C782 1.362 . S
H784 C790 0.930 . S
H785 C793 0.930 . S
H786 C794 0.930 . S
H787 C795 0.930 . S
H788 C798 0.930 . S
H789 C799 0.930 . S
C790 H784 0.930 . S
C790 C791 1.355 . S
C790 C792 1.415 . S
C791 C790 1.355 . S
C791 C793 1.419 . S
C792 C790 1.415 . S
C792 C797 1.425 . S
C792 C799 1.409 . S
C793 H785 0.930 . S
C793 C791 1.419 . S
C793 C794 1.362 . S
C794 H786 0.930 . S
C794 C793 1.362 . S
C794 C797 1.409 . S
C795 H787 0.930 . S
C795 C796 1.355 . S
C795 C797 1.415 . S
C796 C795 1.355 . S
C796 C798 1.419 . S
C797 C792 1.425 . S
C797 C794 1.409 . S
C797 C795 1.415 . S
C798 H788 0.930 . S
C798 C796 1.419 . S
C798 C799 1.362 . S
C799 H789 0.930 . S
C799 C792 1.409 . S
C799 C798 1.362 . S
H800 C806 0.930 . S
H801 C809 0.930 . S
H802 C810 0.930 . S
H803 C811 0.930 . S
H804 C814 0.930 . S
H805 C815 0.930 . S
C806 H800 0.930 . S
C806 C807 1.355 . S
C806 C808 1.415 . S
C807 C806 1.355 . S
C807 C809 1.419 . S
C808 C806 1.415 . S
C808 C813 1.425 . S
C808 C815 1.409 . S
C809 H801 0.930 . S
C809 C807 1.419 . S
C809 C810 1.362 . S
C810 H802 0.930 . S
C810 C809 1.362 . S
C810 C813 1.409 . S
C811 H803 0.930 . S
C811 C812 1.355 . S
C811 C813 1.415 . S
C812 C811 1.355 . S
C812 C814 1.419 . S
C813 C808 1.425 . S
C813 C810 1.409 . S
C813 C811 1.415 . S
C814 H804 0.930 . S
C814 C812 1.419 . S
C814 C815 1.362 . S
C815 H805 0.930 . S
C815 C808 1.409 . S
C815 C814 1.362 . S
H816 C822 0.930 . S
H817 C825 0.930 . S
H818 C826 0.930 . S
H819 C827 0.930 . S
H820 C830 0.930 . S
H821 C831 0.930 . S
C822 H816 0.930 . S
C822 C823 1.355 . S
C822 C824 1.415 . S
C823 C822 1.355 . S
C823 C825 1.419 . S
C824 C822 1.415 . S
C824 C829 1.425 . S
C824 C831 1.409 . S
C825 H817 0.930 . S
C825 C823 1.419 . S
C825 C826 1.362 . S
C826 H818 0.930 . S
C826 C825 1.362 . S
C826 C829 1.409 . S
C827 H819 0.930 . S
C827 C828 1.355 . S
C827 C829 1.415 . S
C828 C827 1.355 . S
C828 C830 1.419 . S
C829 C824 1.425 . S
C829 C826 1.409 . S
C829 C827 1.415 . S
C830 H820 0.930 . S
C830 C828 1.419 . S
C830 C831 1.362 . S
C831 H821 0.930 . S
C831 C824 1.409 . S
C831 C830 1.362 . S
H832 C838 0.930 . S
H833 C841 0.930 . S
H834 C842 0.930 . S
H835 C843 0.930 . S
H836 C846 0.930 . S
H837 C847 0.930 . S
C838 H832 0.930 . S
C838 C839 1.355 . S
C838 C840 1.415 . S
C839 C838 1.355 . S
C839 C841 1.419 . S
C840 C838 1.415 . S
C840 C845 1.425 . S
C840 C847 1.409 . S
C841 H833 0.930 . S
C841 C839 1.419 . S
C841 C842 1.362 . S
C842 H834 0.930 . S
C842 C841 1.362 . S
C842 C845 1.409 . S
C843 H835 0.930 . S
C843 C844 1.355 . S
C843 C845 1.415 . S
C844 C843 1.355 . S
C844 C846 1.419 . S
C845 C840 1.425 . S
C845 C842 1.409 . S
C845 C843 1.415 . S
C846 H836 0.930 . S
C846 C844 1.419 . S
C846 C847 1.362 . S
C847 H837 0.930 . S
C847 C840 1.409 . S
C847 C846 1.362 . S
H848 C854 0.930 . S
H849 C857 0.930 . S
H850 C858 0.930 . S
H851 C859 0.930 . S
H852 C862 0.930 . S
H853 C863 0.930 . S
C854 H848 0.930 . S
C854 C855 1.355 . S
C854 C856 1.415 . S
C855 C854 1.355 . S
C855 C857 1.419 . S
C856 C854 1.415 . S
C856 C861 1.425 . S
C856 C863 1.409 . S
C857 H849 0.930 . S
C857 C855 1.419 . S
C857 C858 1.362 . S
C858 H850 0.930 . S
C858 C857 1.362 . S
C858 C861 1.409 . S
C859 H851 0.930 . S
C859 C860 1.355 . S
C859 C861 1.415 . S
C860 C859 1.355 . S
C860 C862 1.419 . S
C861 C856 1.425 . S
C861 C858 1.409 . S
C861 C859 1.415 . S
C862 H852 0.930 . S
C862 C860 1.419 . S
C862 C863 1.362 . S
C863 H853 0.930 . S
C863 C856 1.409 . S
C863 C862 1.362 . S
C487 C21 1.334 . S
C492 C337 1.427 . S
C503 C61 1.355 . S
C508 C377 1.355 . S
C524 C402 2.323 . S
C519 C82 2.375 . S
C535 C135 2.456 . S
C540 C442 2.410 . S
C556 C373 1.995 . S
C551 C15 1.889 . S
C572 C333 1.977 . S
C567 C42 1.934 . S
C588 C464 1.734 . S
C583 C101 1.743 . S
C604 C424 1.687 . S
C599 C122 1.702 . S
C615 C2 1.447 . S
C620 C466 1.566 . S
C636 C383 2.070 . S
C631 C95 2.125 . S
C647 C141 2.239 . S
C652 C343 2.199 . S
C663 C55 1.529 . S
C668 C426 1.560 . S
C684 C346 1.398 . S
C679 C181 1.385 . S
C695 C202 1.390 . S
C700 C386 1.390 . S
C711 C255 2.390 . S
C716 C423 2.312 . S
C727 C295 2.422 . S
C732 C463 2.353 . S
C743 C175 1.884 . S
C748 C384 1.974 . S
C764 C344 1.986 . S
C759 C221 1.952 . S
C780 C453 1.656 . S
C775 C242 1.650 . S
C796 C413 1.738 . S
C791 C301 1.741 . S
C807 C162 1.601 . S
C812 C457 1.573 . S
C828 C362 2.126 . S
C823 C261 2.160 . S
C844 C322 2.137 . S
C839 C282 2.203 . S
C855 C215 1.544 . S
C860 C417 1.592 . S
