# Generated by pormake.
# Topology gar, (4,6)-cn, num edge types: 1
# Building blocks:
#     Node 0, Type 0, BuildingBlock: AZAVOO_clean_sbu_0, # of connection points: 4
#     Node 1, Type 0, BuildingBlock: AZAVOO_clean_sbu_0, # of connection points: 4
#     Node 2, Type 0, BuildingBlock: AZAVOO_clean_sbu_0, # of connection points: 4
#     Node 3, Type 0, BuildingBlock: AZAVOO_clean_sbu_0, # of connection points: 4
#     Node 4, Type 0, BuildingBlock: AZAVOO_clean_sbu_0, # of connection points: 4
#     Node 5, Type 0, BuildingBlock: AZAVOO_clean_sbu_0, # of connection points: 4
#     Node 6, Type 0, BuildingBlock: AZAVOO_clean_sbu_0, # of connection points: 4
#     Node 7, Type 0, BuildingBlock: AZAVOO_clean_sbu_0, # of connection points: 4
#     Node 8, Type 0, BuildingBlock: AZAVOO_clean_sbu_0, # of connection points: 4
#     Node 9, Type 0, BuildingBlock: AZAVOO_clean_sbu_0, # of connection points: 4
#     Node 10, Type 0, BuildingBlock: AZAVOO_clean_sbu_0, # of connection points: 4
#     Node 11, Type 0, BuildingBlock: AZAVOO_clean_sbu_0, # of connection points: 4
#     Node 12, Type 0, BuildingBlock: AZAVOO_clean_sbu_0, # of connection points: 4
#     Node 13, Type 0, BuildingBlock: AZAVOO_clean_sbu_0, # of connection points: 4
#     Node 14, Type 0, BuildingBlock: AZAVOO_clean_sbu_0, # of connection points: 4
#     Node 15, Type 0, BuildingBlock: AZAVOO_clean_sbu_0, # of connection points: 4
#     Node 16, Type 0, BuildingBlock: AZAVOO_clean_sbu_0, # of connection points: 4
#     Node 17, Type 0, BuildingBlock: AZAVOO_clean_sbu_0, # of connection points: 4
#     Node 18, Type 0, BuildingBlock: AZAVOO_clean_sbu_0, # of connection points: 4
#     Node 19, Type 0, BuildingBlock: AZAVOO_clean_sbu_0, # of connection points: 4
#     Node 20, Type 0, BuildingBlock: AZAVOO_clean_sbu_0, # of connection points: 4
#     Node 21, Type 0, BuildingBlock: AZAVOO_clean_sbu_0, # of connection points: 4
#     Node 22, Type 0, BuildingBlock: AZAVOO_clean_sbu_0, # of connection points: 4
#     Node 23, Type 0, BuildingBlock: AZAVOO_clean_sbu_0, # of connection points: 4
#     Node 24, Type 1, BuildingBlock: MIFKUJ_clean_sbu_0, # of connection points: 6
#     Node 25, Type 1, BuildingBlock: MIFKUJ_clean_sbu_0, # of connection points: 6
#     Node 26, Type 1, BuildingBlock: MIFKUJ_clean_sbu_0, # of connection points: 6
#     Node 27, Type 1, BuildingBlock: MIFKUJ_clean_sbu_0, # of connection points: 6
#     Node 28, Type 1, BuildingBlock: MIFKUJ_clean_sbu_0, # of connection points: 6
#     Node 29, Type 1, BuildingBlock: MIFKUJ_clean_sbu_0, # of connection points: 6
#     Node 30, Type 1, BuildingBlock: MIFKUJ_clean_sbu_0, # of connection points: 6
#     Node 31, Type 1, BuildingBlock: MIFKUJ_clean_sbu_0, # of connection points: 6
#     Node 32, Type 1, BuildingBlock: MIFKUJ_clean_sbu_0, # of connection points: 6
#     Node 33, Type 1, BuildingBlock: MIFKUJ_clean_sbu_0, # of connection points: 6
#     Node 34, Type 1, BuildingBlock: MIFKUJ_clean_sbu_0, # of connection points: 6
#     Node 35, Type 1, BuildingBlock: MIFKUJ_clean_sbu_0, # of connection points: 6
#     Node 36, Type 1, BuildingBlock: MIFKUJ_clean_sbu_0, # of connection points: 6
#     Node 37, Type 1, BuildingBlock: MIFKUJ_clean_sbu_0, # of connection points: 6
#     Node 38, Type 1, BuildingBlock: MIFKUJ_clean_sbu_0, # of connection points: 6
#     Node 39, Type 1, BuildingBlock: MIFKUJ_clean_sbu_0, # of connection points: 6
#     Edge 40, Type (0, 1), BuildingBlock: XIVTED_clean_linker_0, # of connection points: 2
#     Edge 41, Type (0, 1), BuildingBlock: XIVTED_clean_linker_0, # of connection points: 2
#     Edge 42, Type (0, 1), BuildingBlock: XIVTED_clean_linker_0, # of connection points: 2
#     Edge 43, Type (0, 1), BuildingBlock: XIVTED_clean_linker_0, # of connection points: 2
#     Edge 44, Type (0, 1), BuildingBlock: XIVTED_clean_linker_0, # of connection points: 2
#     Edge 45, Type (0, 1), BuildingBlock: XIVTED_clean_linker_0, # of connection points: 2
#     Edge 46, Type (0, 1), BuildingBlock: XIVTED_clean_linker_0, # of connection points: 2
#     Edge 47, Type (0, 1), BuildingBlock: XIVTED_clean_linker_0, # of connection points: 2
#     Edge 48, Type (0, 1), BuildingBlock: XIVTED_clean_linker_0, # of connection points: 2
#     Edge 49, Type (0, 1), BuildingBlock: XIVTED_clean_linker_0, # of connection points: 2
#     Edge 50, Type (0, 1), BuildingBlock: XIVTED_clean_linker_0, # of connection points: 2
#     Edge 51, Type (0, 1), BuildingBlock: XIVTED_clean_linker_0, # of connection points: 2
#     Edge 52, Type (0, 1), BuildingBlock: XIVTED_clean_linker_0, # of connection points: 2
#     Edge 53, Type (0, 1), BuildingBlock: XIVTED_clean_linker_0, # of connection points: 2
#     Edge 54, Type (0, 1), BuildingBlock: XIVTED_clean_linker_0, # of connection points: 2
#     Edge 55, Type (0, 1), BuildingBlock: XIVTED_clean_linker_0, # of connection points: 2
#     Edge 56, Type (0, 1), BuildingBlock: XIVTED_clean_linker_0, # of connection points: 2
#     Edge 57, Type (0, 1), BuildingBlock: XIVTED_clean_linker_0, # of connection points: 2
#     Edge 58, Type (0, 1), BuildingBlock: XIVTED_clean_linker_0, # of connection points: 2
#     Edge 59, Type (0, 1), BuildingBlock: XIVTED_clean_linker_0, # of connection points: 2
#     Edge 60, Type (0, 1), BuildingBlock: XIVTED_clean_linker_0, # of connection points: 2
#     Edge 61, Type (0, 1), BuildingBlock: XIVTED_clean_linker_0, # of connection points: 2
#     Edge 62, Type (0, 1), BuildingBlock: XIVTED_clean_linker_0, # of connection points: 2
#     Edge 63, Type (0, 1), BuildingBlock: XIVTED_clean_linker_0, # of connection points: 2
#     Edge 64, Type (0, 1), BuildingBlock: XIVTED_clean_linker_0, # of connection points: 2
#     Edge 65, Type (0, 1), BuildingBlock: XIVTED_clean_linker_0, # of connection points: 2
#     Edge 66, Type (0, 1), BuildingBlock: XIVTED_clean_linker_0, # of connection points: 2
#     Edge 67, Type (0, 1), BuildingBlock: XIVTED_clean_linker_0, # of connection points: 2
#     Edge 68, Type (0, 1), BuildingBlock: XIVTED_clean_linker_0, # of connection points: 2
#     Edge 69, Type (0, 1), BuildingBlock: XIVTED_clean_linker_0, # of connection points: 2
#     Edge 70, Type (0, 1), BuildingBlock: XIVTED_clean_linker_0, # of connection points: 2
#     Edge 71, Type (0, 1), BuildingBlock: XIVTED_clean_linker_0, # of connection points: 2
#     Edge 72, Type (0, 1), BuildingBlock: XIVTED_clean_linker_0, # of connection points: 2
#     Edge 73, Type (0, 1), BuildingBlock: XIVTED_clean_linker_0, # of connection points: 2
#     Edge 74, Type (0, 1), BuildingBlock: XIVTED_clean_linker_0, # of connection points: 2
#     Edge 75, Type (0, 1), BuildingBlock: XIVTED_clean_linker_0, # of connection points: 2
#     Edge 76, Type (0, 1), BuildingBlock: XIVTED_clean_linker_0, # of connection points: 2
#     Edge 77, Type (0, 1), BuildingBlock: XIVTED_clean_linker_0, # of connection points: 2
#     Edge 78, Type (0, 1), BuildingBlock: XIVTED_clean_linker_0, # of connection points: 2
#     Edge 79, Type (0, 1), BuildingBlock: XIVTED_clean_linker_0, # of connection points: 2
#     Edge 80, Type (0, 1), BuildingBlock: XIVTED_clean_linker_0, # of connection points: 2
#     Edge 81, Type (0, 1), BuildingBlock: XIVTED_clean_linker_0, # of connection points: 2
#     Edge 82, Type (0, 1), BuildingBlock: XIVTED_clean_linker_0, # of connection points: 2
#     Edge 83, Type (0, 1), BuildingBlock: XIVTED_clean_linker_0, # of connection points: 2
#     Edge 84, Type (0, 1), BuildingBlock: XIVTED_clean_linker_0, # of connection points: 2
#     Edge 85, Type (0, 1), BuildingBlock: XIVTED_clean_linker_0, # of connection points: 2
#     Edge 86, Type (0, 1), BuildingBlock: XIVTED_clean_linker_0, # of connection points: 2
#     Edge 87, Type (0, 1), BuildingBlock: XIVTED_clean_linker_0, # of connection points: 2
#     Edge 88, Type (0, 1), BuildingBlock: XIVTED_clean_linker_0, # of connection points: 2
#     Edge 89, Type (0, 1), BuildingBlock: XIVTED_clean_linker_0, # of connection points: 2
#     Edge 90, Type (0, 1), BuildingBlock: XIVTED_clean_linker_0, # of connection points: 2
#     Edge 91, Type (0, 1), BuildingBlock: XIVTED_clean_linker_0, # of connection points: 2
#     Edge 92, Type (0, 1), BuildingBlock: XIVTED_clean_linker_0, # of connection points: 2
#     Edge 93, Type (0, 1), BuildingBlock: XIVTED_clean_linker_0, # of connection points: 2
#     Edge 94, Type (0, 1), BuildingBlock: XIVTED_clean_linker_0, # of connection points: 2
#     Edge 95, Type (0, 1), BuildingBlock: XIVTED_clean_linker_0, # of connection points: 2
#     Edge 96, Type (0, 1), BuildingBlock: XIVTED_clean_linker_0, # of connection points: 2
#     Edge 97, Type (0, 1), BuildingBlock: XIVTED_clean_linker_0, # of connection points: 2
#     Edge 98, Type (0, 1), BuildingBlock: XIVTED_clean_linker_0, # of connection points: 2
#     Edge 99, Type (0, 1), BuildingBlock: XIVTED_clean_linker_0, # of connection points: 2
#     Edge 100, Type (0, 1), BuildingBlock: XIVTED_clean_linker_0, # of connection points: 2
#     Edge 101, Type (0, 1), BuildingBlock: XIVTED_clean_linker_0, # of connection points: 2
#     Edge 102, Type (0, 1), BuildingBlock: XIVTED_clean_linker_0, # of connection points: 2
#     Edge 103, Type (0, 1), BuildingBlock: XIVTED_clean_linker_0, # of connection points: 2
#     Edge 104, Type (0, 1), BuildingBlock: XIVTED_clean_linker_0, # of connection points: 2
#     Edge 105, Type (0, 1), BuildingBlock: XIVTED_clean_linker_0, # of connection points: 2
#     Edge 106, Type (0, 1), BuildingBlock: XIVTED_clean_linker_0, # of connection points: 2
#     Edge 107, Type (0, 1), BuildingBlock: XIVTED_clean_linker_0, # of connection points: 2
#     Edge 108, Type (0, 1), BuildingBlock: XIVTED_clean_linker_0, # of connection points: 2
#     Edge 109, Type (0, 1), BuildingBlock: XIVTED_clean_linker_0, # of connection points: 2
#     Edge 110, Type (0, 1), BuildingBlock: XIVTED_clean_linker_0, # of connection points: 2
#     Edge 111, Type (0, 1), BuildingBlock: XIVTED_clean_linker_0, # of connection points: 2
#     Edge 112, Type (0, 1), BuildingBlock: XIVTED_clean_linker_0, # of connection points: 2
#     Edge 113, Type (0, 1), BuildingBlock: XIVTED_clean_linker_0, # of connection points: 2
#     Edge 114, Type (0, 1), BuildingBlock: XIVTED_clean_linker_0, # of connection points: 2
#     Edge 115, Type (0, 1), BuildingBlock: XIVTED_clean_linker_0, # of connection points: 2
#     Edge 116, Type (0, 1), BuildingBlock: XIVTED_clean_linker_0, # of connection points: 2
#     Edge 117, Type (0, 1), BuildingBlock: XIVTED_clean_linker_0, # of connection points: 2
#     Edge 118, Type (0, 1), BuildingBlock: XIVTED_clean_linker_0, # of connection points: 2
#     Edge 119, Type (0, 1), BuildingBlock: XIVTED_clean_linker_0, # of connection points: 2
#     Edge 120, Type (0, 1), BuildingBlock: XIVTED_clean_linker_0, # of connection points: 2
#     Edge 121, Type (0, 1), BuildingBlock: XIVTED_clean_linker_0, # of connection points: 2
#     Edge 122, Type (0, 1), BuildingBlock: XIVTED_clean_linker_0, # of connection points: 2
#     Edge 123, Type (0, 1), BuildingBlock: XIVTED_clean_linker_0, # of connection points: 2
#     Edge 124, Type (0, 1), BuildingBlock: XIVTED_clean_linker_0, # of connection points: 2
#     Edge 125, Type (0, 1), BuildingBlock: XIVTED_clean_linker_0, # of connection points: 2
#     Edge 126, Type (0, 1), BuildingBlock: XIVTED_clean_linker_0, # of connection points: 2
#     Edge 127, Type (0, 1), BuildingBlock: XIVTED_clean_linker_0, # of connection points: 2
#     Edge 128, Type (0, 1), BuildingBlock: XIVTED_clean_linker_0, # of connection points: 2
#     Edge 129, Type (0, 1), BuildingBlock: XIVTED_clean_linker_0, # of connection points: 2
#     Edge 130, Type (0, 1), BuildingBlock: XIVTED_clean_linker_0, # of connection points: 2
#     Edge 131, Type (0, 1), BuildingBlock: XIVTED_clean_linker_0, # of connection points: 2
#     Edge 132, Type (0, 1), BuildingBlock: XIVTED_clean_linker_0, # of connection points: 2
#     Edge 133, Type (0, 1), BuildingBlock: XIVTED_clean_linker_0, # of connection points: 2
#     Edge 134, Type (0, 1), BuildingBlock: XIVTED_clean_linker_0, # of connection points: 2
#     Edge 135, Type (0, 1), BuildingBlock: XIVTED_clean_linker_0, # of connection points: 2
# Relax obj value: 0.128
# Max RMSD: 0.295
# Mean RMSD: 0.178
data_MOF--net-gar--node1-AZAVOO_clean_sbu_0--node2-MIFKUJ_clean_sbu_0--edge1-XIVTED_clean_linker_0
_symmetry_space_group_name_H-M    P1
_symmetry_Int_Tables_number       1
_symmetry_cell_setting            triclinic
loop_
_symmetry_equiv_pos_as_xyz
'x, y, z'
_cell_length_a     57.30052
_cell_length_b     55.003398
_cell_length_c     54.096805
_cell_angle_alpha  97.135149
_cell_angle_beta   94.45397
_cell_angle_gamma 100.14148
loop_
_atom_site_label
_atom_site_type_symbol
_atom_site_fract_x
_atom_site_fract_y
_atom_site_fract_z
_atom_type_partial_charge
Mg0 Mg 0.00271 0.25888 0.39207 0.0
O1 O 0.0071 0.29583 0.41879 0.0
O2 O 0.97618 0.29201 0.44177 0.0
Mg3 Mg 0.95083 0.25496 0.42781 0.0
C4 C 0.99569 0.30433 0.43629 0.0
C5 C 0.04596 0.2572 0.36256 0.0
O6 O 0.02822 0.24341 0.34739 0.0
O7 O 0.01213 0.23852 0.42471 0.0
O8 O 0.9786 0.23388 0.44362 0.0
O9 O 0.98213 0.2737 0.36221 0.0
O10 O 0.96587 0.25398 0.39153 0.0
C11 C -0.00027 0.22994 0.44144 0.0
C12 C 0.96315 0.26535 0.3724 0.0
O13 O 0.04158 0.26732 0.38372 0.0
Mg14 Mg 0.98524 0.7756 0.64733 0.0
O15 O 0.97889 0.73556 0.62687 0.0
O16 O 0.94244 0.72681 0.60602 0.0
Mg17 Mg 0.92621 0.76192 0.61186 0.0
C18 C 0.96218 0.72064 0.6127 0.0
C19 C 0.03362 0.76376 0.67123 0.0
O20 O 0.01932 0.75113 0.68494 0.0
O21 O 0.99142 0.78981 0.61038 0.0
O22 O 0.95486 0.78237 0.59003 0.0
O23 O 0.96771 0.76317 0.68055 0.0
O24 O 0.94875 0.77393 0.64776 0.0
C25 C 0.97725 0.79089 0.59132 0.0
C26 C 0.94782 0.76578 0.66902 0.0
O27 O 0.02489 0.77517 0.6548 0.0
Mg28 Mg 0.5017 0.7564 0.87918 0.0
O29 O 0.50822 0.79335 0.9064 0.0
O30 O 0.47786 0.79104 0.9302 0.0
Mg31 Mg 0.45085 0.75515 0.91642 0.0
C32 C 0.4976 0.80244 0.9243 0.0
C33 C 0.55421 0.78284 0.86991 0.0
O34 O 0.54652 0.80359 0.87654 0.0
O35 O 0.51035 0.73497 0.9113 0.0
O36 O 0.47739 0.73219 0.93112 0.0
O37 O 0.48172 0.7728 0.85004 0.0
O38 O 0.46516 0.75398 0.87975 0.0
C39 C 0.49795 0.72695 0.92827 0.0
C40 C 0.46278 0.76573 0.86083 0.0
O41 O 0.54043 0.76198 0.86971 0.0
Mg42 Mg 0.48976 0.2716 0.15192 0.0
O43 O 0.4841 0.23149 0.13197 0.0
O44 O 0.45066 0.22419 0.10591 0.0
Mg45 Mg 0.434 0.25917 0.11087 0.0
C46 C 0.46906 0.2172 0.11539 0.0
C47 C 0.53645 0.25769 0.17829 0.0
O48 O 0.52131 0.24378 0.19017 0.0
O49 O 0.49974 0.28612 0.11598 0.0
O50 O 0.4649 0.28043 0.09246 0.0
O51 O 0.46918 0.25937 0.18317 0.0
O52 O 0.45324 0.27041 0.14878 0.0
C53 C 0.48743 0.28834 0.09599 0.0
C54 C 0.45033 0.26222 0.16984 0.0
O55 O 0.5287 0.2705 0.16261 0.0
Mg56 Mg 0.00663 0.78246 0.15827 0.0
O57 O 0.01244 0.74643 0.13592 0.0
O58 O 0.98177 0.73343 0.10639 0.0
Mg59 Mg 0.95504 0.75962 0.11215 0.0
C60 C 0.00175 0.73112 0.11713 0.0
C61 C 0.05142 0.80076 0.19636 0.0
O62 O 0.03513 0.80755 0.21012 0.0
O63 O 0.01453 0.80305 0.12532 0.0
O64 O 0.98107 0.79138 0.09921 0.0
O65 O 0.98839 0.76113 0.18563 0.0
O66 O 0.97017 0.77081 0.15159 0.0
C67 C 0.0019 0.80457 0.10527 0.0
C68 C 0.96893 0.75961 0.17116 0.0
O69 O 0.0453 0.79065 0.17383 0.0
Mg70 Mg 0.48264 0.72565 0.37673 0.0
O71 O 0.48387 0.76334 0.40029 0.0
O72 O 0.45066 0.76232 0.41952 0.0
Mg73 Mg 0.42805 0.7233 0.40782 0.0
C74 C 0.47084 0.77376 0.41476 0.0
C75 C 0.52934 0.75382 0.35958 0.0
O76 O 0.51393 0.76606 0.35002 0.0
O77 O 0.4905 0.70871 0.41191 0.0
O78 O 0.45625 0.70641 0.42942 0.0
O79 O 0.46465 0.73898 0.34485 0.0
O80 O 0.44557 0.71935 0.37293 0.0
C81 C 0.47764 0.70265 0.42923 0.0
C82 C 0.44482 0.73113 0.35379 0.0
O83 O 0.52207 0.73644 0.37218 0.0
Mg84 Mg 0.50431 0.27791 0.64367 0.0
O85 O 0.50854 0.24044 0.62314 0.0
O86 O 0.47789 0.22753 0.5936 0.0
Mg87 Mg 0.45248 0.25536 0.59786 0.0
C88 C 0.49747 0.22474 0.60485 0.0
C89 C 0.54875 0.29647 0.6816 0.0
O90 O 0.53271 0.30607 0.69365 0.0
O91 O 0.51334 0.29657 0.60977 0.0
O92 O 0.47968 0.28544 0.58392 0.0
O93 O 0.48505 0.25911 0.67197 0.0
O94 O 0.46766 0.26805 0.63711 0.0
C95 C 0.50086 0.29791 0.58956 0.0
C96 C 0.46577 0.2581 0.65741 0.0
O97 O 0.54278 0.2846 0.65969 0.0
Mg98 Mg 0.97891 0.23083 0.87635 0.0
O99 O 0.98005 0.26809 0.90082 0.0
O100 O 0.94786 0.26532 0.92188 0.0
Mg101 Mg 0.92608 0.22591 0.91046 0.0
C102 C 0.96733 0.27762 0.91633 0.0
C103 C 0.02924 0.22552 0.86401 0.0
O104 O 0.01911 0.20228 0.86472 0.0
O105 O 0.98934 0.21374 0.91065 0.0
O106 O 0.9561 0.20985 0.93003 0.0
O107 O 0.95893 0.24398 0.84584 0.0
O108 O 0.94194 0.22332 0.8745 0.0
C109 C 0.97763 0.20694 0.92854 0.0
C110 C 0.93982 0.23527 0.85563 0.0
O111 O 0.01747 0.24269 0.86911 0.0
Mg112 Mg 0.40234 0.04414 0.2969 0.0
O113 O 0.3806 0.00549 0.29866 0.0
O114 O 0.36534 0.00535 0.3354 0.0
Mg115 Mg 0.3773 0.04471 0.35693 0.0
C116 C 0.3682 0.99435 0.31394 0.0
C117 C 0.42638 0.03553 0.2503 0.0
O118 O 0.44355 0.04585 0.26795 0.0
O119 O 0.36796 0.05824 0.28975 0.0
O120 O 0.35387 0.05901 0.32718 0.0
O121 O 0.43387 0.03265 0.31399 0.0
O122 O 0.40897 0.05075 0.33601 0.0
C123 C 0.35218 0.06259 0.30423 0.0
C124 C 0.42731 0.04005 0.33553 0.0
O125 O 0.40493 0.03293 0.25556 0.0
Mg126 Mg 0.28936 0.12232 0.49129 0.0
O127 O 0.28646 0.14721 0.52761 0.0
O128 O 0.31929 0.17657 0.5361 0.0
Mg129 Mg 0.34421 0.16821 0.50595 0.0
C130 C 0.29879 0.16642 0.54131 0.0
C131 C 0.24023 0.08631 0.47851 0.0
O132 O 0.25384 0.0715 0.46885 0.0
O133 O 0.2842 0.15289 0.46797 0.0
O134 O 0.3193 0.17905 0.47488 0.0
O135 O 0.30516 0.09651 0.51297 0.0
O136 O 0.32631 0.12836 0.49845 0.0
C137 C 0.29827 0.17221 0.46354 0.0
C138 C 0.32579 0.10984 0.51104 0.0
O139 O 0.24962 0.10832 0.48857 0.0
Mg140 Mg 0.13317 0.00014 0.79414 0.0
O141 O 0.15221 0.04082 0.8 0.0
O142 O 0.17399 0.04856 0.83718 0.0
Mg143 Mg 0.16643 0.01346 0.85616 0.0
C144 C 0.16693 0.05541 0.81663 0.0
C145 C 0.11334 0.0151 0.74376 0.0
O146 O 0.10293 0.02916 0.75914 0.0
O147 O 0.16827 0.988 0.78849 0.0
O148 O 0.1868 0.99352 0.8272 0.0
O149 O 0.10126 0.01024 0.81064 0.0
O150 O 0.13212 0.0012 0.83243 0.0
C151 C 0.18584 0.98626 0.80369 0.0
C152 C 0.11179 0.0082 0.83215 0.0
O153 O 0.12662 0.00137 0.75257 0.0
Mg154 Mg 0.26464 0.88584 0.0128 0.0
O155 O 0.25269 0.85935 0.97571 0.0
O156 O 0.27925 0.83393 0.97283 0.0
Mg157 Mg 0.30874 0.8455 0.00501 0.0
C158 C 0.26041 0.84092 0.96449 0.0
C159 C 0.22612 0.91121 0.0345 0.0
O160 O 0.24203 0.91321 0.05385 0.0
O161 O 0.25273 0.8544 0.03532 0.0
O162 O 0.28204 0.83258 0.03223 0.0
O163 O 0.28597 0.91338 0.99267 0.0
O164 O 0.29961 0.88282 0.00852 0.0
C165 C 0.26279 0.8366 0.04099 0.0
C166 C 0.30312 0.90122 0.99579 0.0
O167 O 0.22928 0.89901 0.01385 0.0
Mg168 Mg 0.28102 0.39389 0.05728 0.0
O169 O 0.28004 0.37212 0.01798 0.0
O170 O 0.30908 0.34985 0.01839 0.0
Mg171 Mg 0.32946 0.35865 0.05758 0.0
C172 C 0.29155 0.35676 0.007 0.0
C173 C 0.24067 0.41757 0.03289 0.0
O174 O 0.25895 0.42877 0.02273 0.0
O175 O 0.26595 0.35848 0.07304 0.0
O176 O 0.29694 0.33893 0.07513 0.0
O177 O 0.30545 0.42608 0.04682 0.0
O178 O 0.31775 0.39508 0.06315 0.0
C179 C 0.27552 0.3405 0.07917 0.0
C180 C 0.32292 0.41559 0.05377 0.0
O181 O 0.24386 0.40177 0.04754 0.0
Mg182 Mg 0.78104 0.12811 0.99778 0.0
O183 O 0.7918 0.14915 0.03692 0.0
O184 O 0.82934 0.16977 0.04072 0.0
Mg185 Mg 0.84326 0.15949 0.00281 0.0
C186 C 0.80952 0.16379 0.04971 0.0
C187 C 0.73621 0.1106 0.02344 0.0
O188 O 0.7521 0.10058 0.0354 0.0
O189 O 0.77958 0.16489 0.98374 0.0
O190 O 0.81799 0.18271 0.98531 0.0
O191 O 0.79284 0.09458 0.00892 0.0
O192 O 0.81616 0.12458 0.99381 0.0
C193 C 0.79583 0.1828 0.98014 0.0
C194 C 0.81369 0.10379 0.00295 0.0
O195 O 0.74246 0.12346 0.00629 0.0
Mg196 Mg 0.14983 0.48622 0.28334 0.0
O197 O 0.169 0.52677 0.28519 0.0
O198 O 0.18921 0.53791 0.32318 0.0
Mg199 Mg 0.18176 0.50558 0.34583 0.0
C200 C 0.18293 0.54272 0.30143 0.0
C201 C 0.12061 0.47109 0.23378 0.0
O202 O 0.10764 0.46059 0.24996 0.0
O203 O 0.18484 0.47252 0.28025 0.0
O204 O 0.20196 0.48261 0.31962 0.0
O205 O 0.11854 0.49984 0.29733 0.0
O206 O 0.1482 0.49165 0.32172 0.0
C207 C 0.20179 0.47247 0.29702 0.0
C208 C 0.12875 0.50031 0.31962 0.0
O209 O 0.14149 0.48309 0.24139 0.0
Mg210 Mg 0.78717 0.89141 0.56155 0.0
O211 O 0.78637 0.86738 0.52328 0.0
O212 O 0.81751 0.84794 0.52522 0.0
Mg213 Mg 0.83685 0.85792 0.56476 0.0
C214 C 0.79924 0.85291 0.51325 0.0
C215 C 0.74633 0.91383 0.53653 0.0
O216 O 0.7645 0.9251 0.52626 0.0
O217 O 0.77283 0.85718 0.57931 0.0
O218 O 0.80427 0.83843 0.58254 0.0
O219 O 0.81109 0.92309 0.54936 0.0
O220 O 0.82405 0.89365 0.56783 0.0
C221 C 0.78276 0.83981 0.58635 0.0
C222 C 0.82882 0.91342 0.55718 0.0
O223 O 0.74973 0.89821 0.5513 0.0
Mg224 Mg 0.89227 0.0277 0.26669 0.0
O225 O 0.86947 0.98826 0.26636 0.0
O226 O 0.85318 0.99055 0.3028 0.0
Mg227 Mg 0.86273 0.02961 0.32441 0.0
C228 C 0.85657 0.97838 0.28213 0.0
C229 C 0.92008 0.03525 0.22423 0.0
O230 O 0.92916 0.05233 0.24336 0.0
O231 O 0.8587 0.04263 0.25623 0.0
O232 O 0.84293 0.04461 0.29281 0.0
O233 O 0.92298 0.01697 0.28765 0.0
O234 O 0.89516 0.03384 0.30553 0.0
C235 C 0.8426 0.04811 0.26987 0.0
C236 C 0.91392 0.02411 0.30786 0.0
O237 O 0.90112 0.02003 0.22649 0.0
Mg238 Mg 0.27303 0.61952 0.4995 0.0
O239 O 0.2857 0.64331 0.53691 0.0
O240 O 0.32282 0.66432 0.53786 0.0
Mg241 Mg 0.33447 0.65145 0.49938 0.0
C242 C 0.30367 0.65877 0.54817 0.0
C243 C 0.23055 0.60565 0.53013 0.0
O244 O 0.24709 0.5968 0.54247 0.0
O245 O 0.26973 0.65458 0.48279 0.0
O246 O 0.30761 0.67289 0.48163 0.0
O247 O 0.28622 0.58768 0.51279 0.0
O248 O 0.30789 0.61595 0.49391 0.0
C249 C 0.28521 0.67226 0.47737 0.0
C250 C 0.30644 0.59638 0.50506 0.0
O251 O 0.23547 0.61588 0.51088 0.0
Mg252 Mg 0.39085 0.52722 0.76326 0.0
O253 O 0.36377 0.48985 0.75877 0.0
O254 O 0.34381 0.49229 0.79278 0.0
Mg255 Mg 0.35853 0.52808 0.81916 0.0
C256 C 0.34746 0.48087 0.77182 0.0
C257 C 0.40949 0.50347 0.71547 0.0
O258 O 0.41002 0.48582 0.72968 0.0
O259 O 0.36051 0.54764 0.75395 0.0
O260 O 0.34337 0.54912 0.78973 0.0
O261 O 0.41836 0.51079 0.78336 0.0
O262 O 0.39188 0.52935 0.80185 0.0
C263 C 0.34484 0.55441 0.76751 0.0
C264 C 0.40909 0.51724 0.80366 0.0
O265 O 0.40012 0.52201 0.72294 0.0
Mg266 Mg 0.63445 0.9801 0.78595 0.0
O267 O 0.65294 0.02079 0.78607 0.0
O268 O 0.67071 0.03425 0.82496 0.0
Mg269 Mg 0.6616 0.00393 0.84966 0.0
C270 C 0.66584 0.03764 0.80235 0.0
C271 C 0.60893 0.96103 0.73497 0.0
O272 O 0.59464 0.95149 0.7506 0.0
O273 O 0.67032 0.96788 0.78768 0.0
O274 O 0.68452 0.98021 0.82777 0.0
O275 O 0.60138 0.99302 0.79449 0.0
O276 O 0.62951 0.98903 0.82339 0.0
C277 C 0.68618 0.96915 0.80595 0.0
C278 C 0.60991 0.99659 0.81776 0.0
O279 O 0.62937 0.97351 0.74367 0.0
Mg280 Mg 0.78486 0.619 0.99674 0.0
O281 O 0.7819 0.64288 0.03376 0.0
O282 O 0.8162 0.66986 0.04424 0.0
Mg283 Mg 0.84175 0.66064 0.01503 0.0
C284 C 0.79496 0.66098 0.04841 0.0
C285 C 0.73568 0.58541 0.98096 0.0
O286 O 0.74983 0.57042 0.97293 0.0
O287 O 0.7833 0.65156 0.97536 0.0
O288 O 0.81964 0.67514 0.9839 0.0
O289 O 0.79665 0.59048 0.01724 0.0
O290 O 0.82145 0.6217 0.00572 0.0
C291 C 0.79875 0.67029 0.97208 0.0
C292 C 0.8183 0.60223 0.01713 0.0
O293 O 0.74475 0.60739 0.99137 0.0
Mg294 Mg 0.88665 0.53975 0.80053 0.0
O295 O 0.86708 0.49993 0.8017 0.0
O296 O 0.85126 0.49879 0.8381 0.0
Mg297 Mg 0.86169 0.53782 0.86057 0.0
C298 C 0.85483 0.48818 0.81673 0.0
C299 C 0.91127 0.53471 0.75385 0.0
O300 O 0.92792 0.54584 0.77174 0.0
O301 O 0.85101 0.55164 0.79373 0.0
O302 O 0.83754 0.55193 0.83145 0.0
O303 O 0.91991 0.53127 0.81783 0.0
O304 O 0.89301 0.5459 0.83956 0.0
C305 C 0.83533 0.55551 0.80853 0.0
C306 C 0.91281 0.53777 0.83935 0.0
O307 O 0.88983 0.53001 0.75902 0.0
Mg308 Mg 0.76151 0.38359 0.51675 0.0
O309 O 0.75022 0.35658 0.47996 0.0
O310 O 0.77737 0.33178 0.47767 0.0
Mg311 Mg 0.80653 0.34416 0.51006 0.0
C312 C 0.75836 0.33828 0.46907 0.0
C313 C 0.72279 0.41003 0.5365 0.0
O314 O 0.7391 0.41414 0.55576 0.0
O315 O 0.74984 0.35226 0.53952 0.0
O316 O 0.77957 0.33097 0.53685 0.0
O317 O 0.78251 0.41106 0.49631 0.0
O318 O 0.79665 0.38109 0.51277 0.0
C319 C 0.76013 0.33467 0.54535 0.0
C320 C 0.79983 0.39916 0.4996 0.0
O321 O 0.7258 0.39609 0.51687 0.0
Mg322 Mg 0.62973 0.49504 0.2923 0.0
O323 O 0.64917 0.53565 0.29919 0.0
O324 O 0.66996 0.54257 0.33689 0.0
Mg325 Mg 0.66184 0.50699 0.35498 0.0
C326 C 0.6635 0.54991 0.31639 0.0
C327 C 0.60916 0.51044 0.24287 0.0
O328 O 0.59741 0.52217 0.25888 0.0
O329 O 0.66475 0.48213 0.28695 0.0
O330 O 0.68229 0.48727 0.32607 0.0
O331 O 0.59772 0.50541 0.30856 0.0
O332 O 0.62795 0.49548 0.33056 0.0
C333 C 0.68187 0.48004 0.30262 0.0
C334 C 0.60787 0.50298 0.33011 0.0
O335 O 0.6238 0.49763 0.25085 0.0
Zn336 Zn 0.04994 0.01788 0.04492 0.0
Zn337 Zn 0.00021 0.02026 0.02188 0.0
C338 C 0.04354 0.97106 0.0578 0.0
O339 O 0.05628 0.98553 0.0771 0.0
C340 C 0.00936 0.06545 0.00432 0.0
O341 O 0.00159 0.04925 0.98416 0.0
O342 O 0.08518 0.01751 0.0534 0.0
O343 O 0.04902 0.03252 0.01273 0.0
O344 O 0.01795 0.00505 0.99502 0.0
C345 C 0.09267 0.00562 0.03481 0.0
O346 O 0.07803 0.99762 0.0144 0.0
O347 O 0.03618 0.98095 0.03938 0.0
C348 C 0.94889 0.01313 0.02223 0.0
O349 O 0.95308 0.0061 0.0442 0.0
O350 O 0.96588 0.01727 0.00864 0.0
O351 O 0.00082 0.00793 0.05539 0.0
O352 O 0.0336 0.03286 0.07353 0.0
O353 O 0.01107 0.05775 0.02549 0.0
C354 C 0.03789 0.01877 0.99332 0.0
C355 C 0.01276 0.02071 0.07494 0.0
Zn356 Zn 0.24719 0.77523 0.30594 0.0
Zn357 Zn 0.25361 0.77217 0.25153 0.0
C358 C 0.2167 0.7249 0.29476 0.0
O359 O 0.19847 0.73624 0.29694 0.0
C360 C 0.28509 0.81813 0.2543 0.0
O361 O 0.29488 0.8037 0.23863 0.0
O362 O 0.24905 0.78107 0.34343 0.0
O363 O 0.2816 0.78374 0.29884 0.0
O364 O 0.27652 0.75349 0.26717 0.0
C365 C 0.23193 0.77376 0.35592 0.0
O366 O 0.21044 0.76611 0.34422 0.0
O367 O 0.23774 0.73765 0.29735 0.0
C368 C 0.23932 0.78011 0.2038 0.0
O369 O 0.22734 0.79345 0.21808 0.0
O370 O 0.25324 0.76781 0.21406 0.0
O371 O 0.21967 0.76307 0.25747 0.0
O372 O 0.22206 0.79191 0.28985 0.0
O373 O 0.26592 0.8089 0.26282 0.0
C374 C 0.2895 0.76662 0.2859 0.0
C375 C 0.2105 0.77937 0.26996 0.0
Zn376 Zn 0.5065 0.00908 0.53821 0.0
Zn377 Zn 0.55196 0.99516 0.52021 0.0
C378 C 0.52909 0.0546 0.56745 0.0
O379 O 0.52084 0.04221 0.58517 0.0
C380 C 0.53511 0.95193 0.48708 0.0
O381 O 0.54928 0.96591 0.4743 0.0
O382 O 0.47413 0.01791 0.5438 0.0
O383 O 0.50446 0.99637 0.50159 0.0
O384 O 0.53989 0.01762 0.49729 0.0
C385 C 0.47069 0.0355 0.53148 0.0
O386 O 0.48662 0.0434 0.51667 0.0
O387 O 0.52762 0.04315 0.54533 0.0
C388 C 0.59035 0.97261 0.52711 0.0
O389 O 0.57417 0.96196 0.5403 0.0
O390 O 0.58549 0.98993 0.51513 0.0
O391 O 0.55337 0.00501 0.55727 0.0
O392 O 0.51706 0.98721 0.56255 0.0
O393 O 0.53212 0.96068 0.50925 0.0
C394 C 0.51835 0.00892 0.48868 0.0
C395 C 0.53913 0.99289 0.57017 0.0
Zn396 Zn 0.27569 0.25433 0.75676 0.0
Zn397 Zn 0.22997 0.27081 0.77765 0.0
C398 C 0.25821 0.22044 0.7125 0.0
O399 O 0.26429 0.20489 0.7273 0.0
C400 C 0.24606 0.30092 0.82283 0.0
O401 O 0.23358 0.3142 0.81041 0.0
O402 O 0.30833 0.24811 0.75067 0.0
O403 O 0.27956 0.29154 0.76497 0.0
O404 O 0.24268 0.29741 0.75698 0.0
C405 C 0.31529 0.25792 0.73181 0.0
O406 O 0.30234 0.27219 0.7215 0.0
O407 O 0.25855 0.24293 0.72182 0.0
C408 C 0.19016 0.25643 0.80075 0.0
O409 O 0.20585 0.24366 0.80875 0.0
O410 O 0.19617 0.27182 0.78558 0.0
O411 O 0.22775 0.23472 0.76334 0.0
O412 O 0.26253 0.23209 0.78119 0.0
O413 O 0.24882 0.27988 0.81194 0.0
C414 C 0.2651 0.30527 0.75859 0.0
C415 C 0.24074 0.22262 0.77508 0.0
Zn416 Zn 0.03748 0.98039 0.51433 0.0
Zn417 Zn 0.02755 0.03279 0.51822 0.0
C418 C 0.06921 0.98972 0.55896 0.0
O419 O 0.082 0.97814 0.54401 0.0
C420 C 0.99264 0.02618 0.47899 0.0
O421 O 0.98282 0.03575 0.49815 0.0
O422 O 0.04027 0.94428 0.5107 0.0
O423 O 0.00257 0.98047 0.51016 0.0
O424 O 0.00492 0.01319 0.53879 0.0
C425 C 0.02473 0.92752 0.49728 0.0
O426 O 0.00817 0.93423 0.48285 0.0
O427 O 0.04908 0.99337 0.55029 0.0
C428 C 0.03914 0.0824 0.51036 0.0
O429 O 0.05338 0.07146 0.49675 0.0
O430 O 0.02571 0.06945 0.52347 0.0
O431 O 0.06255 0.03148 0.52133 0.0
O432 O 0.05944 0.99866 0.4928 0.0
O433 O 0.01374 0.02217 0.48251 0.0
C434 C 0.99357 0.99221 0.52759 0.0
C435 C 0.07135 0.01927 0.50406 0.0
Zn436 Zn 0.25575 0.79378 0.73846 0.0
Zn437 Zn 0.2565 0.74087 0.74839 0.0
C438 C 0.21113 0.78801 0.70839 0.0
O439 O 0.22477 0.80159 0.69483 0.0
C440 C 0.29735 0.7509 0.78151 0.0
O441 O 0.28118 0.73806 0.79318 0.0
O442 O 0.26123 0.83093 0.73803 0.0
O443 O 0.26154 0.79048 0.77521 0.0
O444 O 0.23745 0.75449 0.77463 0.0
C445 C 0.24949 0.84096 0.75409 0.0
O446 O 0.23537 0.82671 0.76662 0.0
O447 O 0.22054 0.78157 0.72801 0.0
C448 C 0.26843 0.69519 0.73295 0.0
O449 O 0.27985 0.71001 0.71881 0.0
O450 O 0.25531 0.70406 0.74832 0.0
O451 O 0.24702 0.74461 0.71284 0.0
O452 O 0.27476 0.77745 0.71323 0.0
O453 O 0.29131 0.75567 0.75975 0.0
C454 C 0.24715 0.77594 0.78601 0.0
C455 C 0.26312 0.75673 0.70196 0.0
Zn456 Zn 0.52109 0.0279 0.00064 0.0
Zn457 Zn 0.50552 0.00234 0.04419 0.0
C458 C 0.56183 0.06448 0.02766 0.0
O459 O 0.54723 0.08041 0.02863 0.0
C460 C 0.46947 0.9689 0.01348 0.0
O461 O 0.48073 0.95404 0.02504 0.0
O462 O 0.52123 0.03666 0.96582 0.0
O463 O 0.51864 0.9903 0.99458 0.0
O464 O 0.53049 0.98359 0.03237 0.0
C465 C 0.53144 0.05721 0.95984 0.0
O466 O 0.54052 0.07584 0.97744 0.0
O467 O 0.5542 0.04198 0.01774 0.0
C468 C 0.47319 0.99552 0.07972 0.0
O469 O 0.46127 0.00499 0.06278 0.0
O470 O 0.49378 0.99119 0.07575 0.0
O471 O 0.51419 0.03929 0.05372 0.0
O472 O 0.49697 0.04506 0.01804 0.0
O473 O 0.47706 0.99231 0.01815 0.0
C474 C 0.52778 0.97693 0.00881 0.0
C475 C 0.50226 0.0519 0.04138 0.0
Zn476 Zn 0.24733 0.21884 0.25269 0.0
Zn477 Zn 0.24881 0.27478 0.2766 0.0
C478 C 0.28724 0.22653 0.22739 0.0
O479 O 0.27068 0.21282 0.21076 0.0
C480 C 0.21145 0.27562 0.30859 0.0
O481 O 0.2296 0.28762 0.32436 0.0
O482 O 0.24631 0.1819 0.24487 0.0
O483 O 0.23998 0.22452 0.28872 0.0
O484 O 0.26886 0.25692 0.29792 0.0
C485 C 0.23701 0.16637 0.2585 0.0
O486 O 0.22349 0.1736 0.27542 0.0
O487 O 0.28184 0.23284 0.24934 0.0
C488 C 0.2713 0.32526 0.27243 0.0
O489 O 0.27849 0.31469 0.252 0.0
O490 O 0.25982 0.31168 0.28651 0.0
O491 O 0.24695 0.27 0.23889 0.0
O492 O 0.2285 0.23127 0.22539 0.0
O493 O 0.21516 0.26766 0.2864 0.0
C494 C 0.25665 0.2375 0.30421 0.0
C495 C 0.23553 0.25359 0.22148 0.0
Zn496 Zn 0.53366 0.47713 0.01383 0.0
Zn497 Zn 0.5215 0.52998 0.01285 0.0
C498 C 0.56744 0.4942 0.05829 0.0
O499 O 0.58348 0.49097 0.04275 0.0
C500 C 0.4858 0.51833 0.97396 0.0
O501 O 0.47573 0.52863 0.99253 0.0
O502 O 0.53384 0.4403 0.0093 0.0
O503 O 0.49881 0.47781 0.00975 0.0
O504 O 0.50007 0.51229 0.03567 0.0
C505 C 0.55106 0.42912 0.01341 0.0
O506 O 0.57272 0.44213 0.01928 0.0
O507 O 0.54553 0.49003 0.05 0.0
C508 C 0.53162 0.57762 -0.00035 0.0
O509 O 0.54498 0.5652 0.98625 0.0
O510 O 0.51898 0.56642 0.01466 0.0
O511 O 0.55657 0.52978 0.01667 0.0
O512 O 0.5555 0.49483 0.99162 0.0
O513 O 0.50739 0.51592 0.97776 0.0
C514 C 0.48952 0.49037 0.02632 0.0
C515 C 0.56609 0.51678 0.00068 0.0
Zn516 Zn 0.7578 0.28789 0.24473 0.0
Zn517 Zn 0.75757 0.23464 0.25485 0.0
C518 C 0.71374 0.28024 0.214 0.0
O519 O 0.72766 0.29314 0.20015 0.0
C520 C 0.79747 0.24269 0.28922 0.0
O521 O 0.7805 0.23014 0.30017 0.0
O522 O 0.76182 0.32497 0.24368 0.0
O523 O 0.76383 0.28486 0.28139 0.0
O524 O 0.73853 0.24957 0.28039 0.0
C525 C 0.74952 0.33472 0.25935 0.0
O526 O 0.73613 0.3203 0.27237 0.0
O527 O 0.72281 0.27471 0.23427 0.0
C528 C 0.7655 0.18714 0.23866 0.0
O529 O 0.777 0.20086 0.22365 0.0
O530 O 0.75411 0.19752 0.2549 0.0
O531 O 0.74982 0.23866 0.21893 0.0
O532 O 0.77727 0.27194 0.2198 0.0
O533 O 0.7924 0.24787 0.26737 0.0
C534 C 0.74877 0.27079 0.29192 0.0
C535 C 0.76596 0.25113 0.20838 0.0
Zn536 Zn 0.02315 0.53049 0.51037 0.0
Zn537 Zn 0.99782 0.50585 0.5502 0.0
C538 C 0.05886 0.56651 0.53887 0.0
O539 O 0.04662 0.58034 0.52695 0.0
C540 C 0.96418 0.47058 0.51826 0.0
O541 O 0.97485 0.45645 0.53146 0.0
O542 O 0.03566 0.54036 0.47878 0.0
O543 O 0.01738 0.49309 0.50342 0.0
O544 O 0.0241 0.4868 0.54235 0.0
C545 C 0.05628 0.53548 0.47617 0.0
O546 O 0.06676 0.52542 0.49371 0.0
O547 O 0.05082 0.54322 0.5368 0.0
C548 C 0.96325 0.49973 0.58404 0.0
O549 O 0.95157 0.50799 0.56597 0.0
O550 O 0.98423 0.49592 0.58134 0.0
O551 O 0.00385 0.54323 0.55751 0.0
O552 O 0.99676 0.54893 0.5184 0.0
O553 O 0.9713 0.49406 0.52242 0.0
C554 C 0.02398 0.47962 0.51907 0.0
C555 C 0.99634 0.5559 0.54159 0.0
Zn556 Zn 0.77731 0.74874 0.26457 0.0
Zn557 Zn 0.73465 0.76993 0.28417 0.0
C558 C 0.75665 0.71813 0.21939 0.0
O559 O 0.76076 0.70109 0.2333 0.0
C560 C 0.76022 0.79859 0.32954 0.0
O561 O 0.75717 0.81723 0.31742 0.0
O562 O 0.80852 0.73898 0.25746 0.0
O563 O 0.7854 0.78553 0.27571 0.0
O564 O 0.751 0.79457 0.26283 0.0
C565 C 0.81607 0.74859 0.23872 0.0
O566 O 0.80462 0.76445 0.22906 0.0
O567 O 0.75935 0.74069 0.22971 0.0
C568 C 0.6945 0.76468 0.30877 0.0
O569 O 0.70742 0.74971 0.31786 0.0
O570 O 0.70244 0.77718 0.29191 0.0
O571 O 0.72759 0.73283 0.27157 0.0
O572 O 0.76194 0.72693 0.288 0.0
O573 O 0.75316 0.7763 0.31874 0.0
C574 C 0.77351 0.80084 0.26764 0.0
C575 C 0.73973 0.7193 0.28247 0.0
Zn576 Zn 0.73672 0.26886 0.8059 0.0
Zn577 Zn 0.74466 0.2645 0.75262 0.0
C578 C 0.70701 0.21927 0.79796 0.0
O579 O 0.68998 0.23132 0.80413 0.0
C580 C 0.77514 0.3111 0.75555 0.0
O581 O 0.7856 0.29691 0.74035 0.0
O582 O 0.73513 0.27408 0.84307 0.0
O583 O 0.77157 0.27765 0.80059 0.0
O584 O 0.76817 0.24714 0.76936 0.0
C585 C 0.75237 0.287 0.85794 0.0
O586 O 0.76967 0.30098 0.84873 0.0
O587 O 0.72787 0.23143 0.7971 0.0
C588 C 0.73117 0.27193 0.70457 0.0
O589 O 0.71819 0.28444 0.71839 0.0
O590 O 0.74535 0.26017 0.71526 0.0
O591 O 0.71048 0.25417 0.75763 0.0
O592 O 0.7121 0.28479 0.78804 0.0
O593 O 0.75588 0.3015 0.76366 0.0
C594 C 0.78039 0.26087 0.78824 0.0
C595 C 0.70078 0.27081 0.76881 0.0
Zn596 Zn 0.75144 0.72673 0.76594 0.0
Zn597 Zn 0.75761 0.78275 0.78856 0.0
C598 C 0.79026 0.72921 0.73867 0.0
O599 O 0.77254 0.71582 0.7232 0.0
C600 C 0.71919 0.78764 0.81766 0.0
O601 O 0.73703 0.80197 0.83225 0.0
O602 O 0.74603 0.68935 0.75766 0.0
O603 O 0.74638 0.73356 0.80256 0.0
O604 O 0.77663 0.76476 0.81089 0.0
C605 C 0.73535 0.67455 0.77118 0.0
O606 O 0.72397 0.68353 0.78933 0.0
O607 O 0.78619 0.73715 0.76072 0.0
C608 C 0.7755 0.83474 0.78341 0.0
O609 O 0.78018 0.82559 0.76114 0.0
O610 O 0.76806 0.8199 0.79857 0.0
O611 O 0.75767 0.77736 0.75104 0.0
O612 O 0.73325 0.74121 0.73971 0.0
O613 O 0.72336 0.77613 0.79705 0.0
C614 C 0.76379 0.7459 0.81756 0.0
C615 C 0.7433 0.76228 0.73468 0.0
Zn616 Zn 0.54608 0.51437 0.54109 0.0
Zn617 Zn 0.49583 0.51413 0.52101 0.0
C618 C 0.54375 0.4659 0.55038 0.0
O619 O 0.5567 0.47928 0.57016 0.0
C620 C 0.50263 0.56084 0.50723 0.0
O621 O 0.49337 0.54583 0.48669 0.0
O622 O 0.58165 0.51633 0.54983 0.0
O623 O 0.54361 0.52956 0.50917 0.0
O624 O 0.51267 0.50145 0.49212 0.0
C625 C 0.59047 0.50616 0.53119 0.0
O626 O 0.57698 0.49935 0.50985 0.0
O627 O 0.53487 0.47696 0.53371 0.0
C628 C 0.44751 0.5149 0.52712 0.0
O629 O 0.45609 0.51679 0.55065 0.0
O630 O 0.461 0.51114 0.51001 0.0
O631 O 0.4982 0.49843 0.55248 0.0
O632 O 0.52889 0.5264 0.57062 0.0
O633 O 0.50635 0.55173 0.52735 0.0
C634 C 0.53204 0.51593 0.48987 0.0
C635 C 0.5095 0.51152 0.57217 0.0
Zn636 Zn 0.00441 0.51679 0.04525 0.0
Zn637 Zn 0.0466 0.49913 0.01994 0.0
C638 C 0.03063 0.5622 0.07153 0.0
O639 O 0.02536 0.55018 0.09049 0.0
C640 C 0.02638 0.45685 0.98777 0.0
O641 O 0.0386 0.47143 0.97393 0.0
O642 O 0.97397 0.52625 0.05584 0.0
O643 O 0.99759 0.50404 0.0089 0.0
O644 O 0.03229 0.52123 0.99808 0.0
C645 C 0.9533 0.51469 0.04687 0.0
O646 O 0.95099 0.49317 0.03245 0.0
O647 O 0.02563 0.55053 0.04943 0.0
C648 C 0.08433 0.47535 0.02295 0.0
O649 O 0.06901 0.46529 0.03735 0.0
O650 O 0.07912 0.49281 0.01137 0.0
O651 O 0.05234 0.5098 0.05721 0.0
O652 O 0.01705 0.49466 0.06772 0.0
O653 O 0.02571 0.46498 0.01073 0.0
C654 C 0.00969 0.51543 0.99372 0.0
C655 C 0.03956 0.49917 0.07234 0.0
H656 H 0.96039 0.19259 0.97151 0.0
H657 H 0.0356 0.08737 0.97111 0.0
H658 H 0.01963 0.18967 0.92721 0.0
H659 H 0.99218 0.1031 0.03046 0.0
H660 H 0.03423 0.12831 0.95874 0.0
H661 H 0.97505 0.16376 0.99705 0.0
C662 C 0.97668 0.18621 0.96737 0.0
C663 C 0.98848 0.19314 0.94679 0.0
C664 C 0.02548 0.12319 0.97489 0.0
C665 C 0.00527 0.16001 0.9759 0.0
C666 C 0.02634 0.09986 0.98196 0.0
C667 C 0.01394 0.09204 0.00172 0.0
C668 C 0.01142 0.13841 0.98715 0.0
C669 C 0.00206 0.10867 0.01518 0.0
C670 C 0.9851 0.16982 0.98206 0.0
C671 C 0.00971 0.18456 0.94261 0.0
N672 N 0.00058 0.13093 0.00725 0.0
N673 N 0.01715 0.16808 0.95672 0.0
H674 H 0.07058 0.81818 0.2449 0.0
H675 H 0.18489 0.75781 0.22606 0.0
H676 H 0.08816 0.78568 0.17348 0.0
H677 H 0.18276 0.8111 0.29126 0.0
H678 H 0.14745 0.76594 0.20844 0.0
H679 H 0.11013 0.81501 0.26376 0.0
C680 C 0.0828 0.81064 0.23314 0.0
C681 C 0.07596 0.8019 0.20763 0.0
C682 C 0.15512 0.77598 0.22657 0.0
C683 C 0.12084 0.79805 0.22909 0.0
C684 C 0.17652 0.77124 0.23679 0.0
C685 C 0.18708 0.78388 0.26021 0.0
C686 C 0.14383 0.79328 0.23988 0.0
C687 C 0.17524 0.80101 0.27313 0.0
C688 C 0.10532 0.80886 0.24393 0.0
C689 C 0.09252 0.79243 0.19326 0.0
N690 N 0.15408 0.80518 0.26281 0.0
N691 N 0.11406 0.79054 0.20425 0.0
H692 H 0.45317 0.80081 0.4528 0.0
H693 H 0.54227 0.92732 0.44232 0.0
H694 H 0.50788 0.80683 0.40209 0.0
H695 H 0.50312 0.91776 0.50659 0.0
H696 H 0.52587 0.88426 0.42478 0.0
H697 H 0.46772 0.84461 0.47049 0.0
C698 C 0.4682 0.81131 0.44537 0.0
C699 C 0.47934 0.8001 0.42594 0.0
C700 C 0.52083 0.89153 0.44272 0.0
C701 C 0.49587 0.85012 0.44596 0.0
C702 C 0.53013 0.91619 0.45274 0.0
C703 C 0.52416 0.92613 0.47605 0.0
C704 C 0.50527 0.87664 0.45597 0.0
C705 C 0.50827 0.91078 0.48861 0.0
C706 C 0.4765 0.83626 0.45552 0.0
C707 C 0.49878 0.8146 0.4171 0.0
N708 N 0.49935 0.88673 0.4784 0.0
N709 N 0.50634 0.83884 0.42711 0.0
H710 H 0.42221 0.25337 0.63101 0.0
H711 H 0.35222 0.2382 0.75179 0.0
H712 H 0.45562 0.24188 0.70186 0.0
H713 H 0.32545 0.26332 0.68451 0.0
H714 H 0.38755 0.23038 0.73137 0.0
H715 H 0.38367 0.24656 0.6476 0.0
C716 C 0.42141 0.24895 0.64991 0.0
C717 C 0.4422 0.24868 0.66524 0.0
C718 C 0.3738 0.23741 0.72109 0.0
C719 C 0.39819 0.24137 0.68453 0.0
C720 C 0.35374 0.24192 0.73273 0.0
C721 C 0.33622 0.25191 0.71998 0.0
C722 C 0.37606 0.24268 0.69652 0.0
C723 C 0.33881 0.25615 0.69523 0.0
C724 C 0.39939 0.24519 0.65943 0.0
C725 C 0.44003 0.2426 0.68952 0.0
N726 N 0.35841 0.25163 0.68438 0.0
N727 N 0.41842 0.2396 0.6986 0.0
H728 H 0.953 0.79797 0.54779 0.0
H729 H 0.05606 0.90687 0.52503 0.0
H730 H 0.02307 0.81468 0.5886 0.0
H731 H 0.98673 0.88923 0.48274 0.0
H732 H 0.04709 0.86773 0.54224 0.0
H733 H 0.96752 0.82571 0.51819 0.0
C734 C 0.97152 0.80719 0.55037 0.0
C735 C 0.98668 0.80438 0.57108 0.0
C736 C 0.03398 0.87218 0.52885 0.0
C737 C 0.00339 0.83631 0.53726 0.0
C738 C 0.03912 0.89452 0.51896 0.0
C739 C 0.02191 0.90159 0.50284 0.0
C740 C 0.01136 0.85693 0.52281 0.0
C741 C 0.00041 0.8847 0.49537 0.0
C742 C 0.97981 0.82303 0.53341 0.0
C743 C 0.0106 0.81656 0.57319 0.0
N744 N 0.99556 0.86337 0.50581 0.0
N745 N 0.0181 0.83228 0.55673 0.0
H746 H 0.42131 0.75869 0.88302 0.0
H747 H 0.33823 0.7691 0.76064 0.0
H748 H 0.44992 0.781 0.81609 0.0
H749 H 0.31275 0.75002 0.83006 0.0
H750 H 0.37926 0.77762 0.78109 0.0
H751 H 0.38159 0.75983 0.86472 0.0
C752 C 0.41932 0.76413 0.86456 0.0
C753 C 0.43904 0.76962 0.85107 0.0
C754 C 0.36463 0.77179 0.79185 0.0
C755 C 0.39319 0.77051 0.82958 0.0
C756 C 0.34124 0.76696 0.7802 0.0
C757 C 0.32208 0.75854 0.79358 0.0
C758 C 0.36875 0.7682 0.817 0.0
C759 C 0.32696 0.75613 0.81889 0.0
C760 C 0.39651 0.76472 0.85403 0.0
C761 C 0.4352 0.77659 0.82716 0.0
N762 N 0.34974 0.76077 0.82966 0.0
N763 N 0.41266 0.77655 0.81703 0.0
H764 H 0.50387 0.19385 0.13362 0.0
H765 H 0.5122 0.07182 0.09068 0.0
H766 H 0.44485 0.18332 0.07618 0.0
H767 H 0.4789 0.08522 0.02055 0.0
H768 H 0.50381 0.11097 0.11084 0.0
H769 H 0.51215 0.15333 0.11732 0.0
C770 C 0.49245 0.1829 0.11775 0.0
C771 C 0.47354 0.19203 0.10636 0.0
C772 C 0.49867 0.10564 0.09097 0.0
C773 C 0.48266 0.14515 0.08781 0.0
C774 C 0.50326 0.0831 0.07945 0.0
C775 C 0.4965 0.07534 0.05379 0.0
C776 C 0.48731 0.12067 0.07672 0.0
C777 C 0.48461 0.09057 0.04033 0.0
C778 C 0.49706 0.15956 0.10857 0.0
C779 C 0.45952 0.17701 0.08569 0.0
N780 N 0.48039 0.11252 0.05197 0.0
N781 N 0.46447 0.15439 0.07698 0.0
H782 H 0.08748 0.28262 0.38983 0.0
H783 H 0.16972 0.25138 0.28113 0.0
H784 H 0.0605 0.23885 0.31821 0.0
H785 H 0.19742 0.29214 0.35393 0.0
H786 H 0.12951 0.24692 0.29432 0.0
H787 H 0.12785 0.28685 0.37691 0.0
C788 C 0.09002 0.27393 0.37139 0.0
C789 C 0.07054 0.26036 0.35509 0.0
C790 C 0.14439 0.25682 0.30743 0.0
C791 C 0.11672 0.2651 0.34019 0.0
C792 C 0.16737 0.25936 0.2999 0.0
C793 C 0.187 0.27218 0.31642 0.0
C794 C 0.14095 0.26721 0.33166 0.0
C795 C 0.18284 0.28211 0.34054 0.0
C796 C 0.11309 0.27632 0.36403 0.0
C797 C 0.07494 0.24948 0.33143 0.0
N798 N 0.1603 0.27946 0.3474 0.0
N799 N 0.09752 0.2521 0.3247 0.0
H800 H 0.90975 -0.00054 0.18261 0.0
H801 H 0.02514 0.055 0.11768 0.0
H802 H 0.96055 0.06553 0.21489 0.0
H803 H 0.9741 0.98897 0.08585 0.0
H804 H 0.00266 0.05842 0.15437 0.0
H805 H 0.93347 0.99505 0.14711 0.0
C806 C 0.92579 0.0131 0.18217 0.0
C807 C 0.93315 0.03287 0.20175 0.0
C808 C 0.99646 0.04313 0.13936 0.0
C809 C 0.96051 0.02788 0.16135 0.0
C810 C 0.00938 0.04111 0.11852 0.0
C811 C 0.00136 0.02185 0.09857 0.0
C812 C 0.97544 0.02573 0.14023 0.0
C813 C 0.98077 0.00437 0.10062 0.0
C814 C 0.9394 0.01054 0.16197 0.0
C815 C 0.95417 0.04997 0.20024 0.0
N816 N 0.96849 0.0068 0.12096 0.0
N817 N 0.9671 0.04706 0.18044 0.0
H818 H 0.31217 0.71378 0.46339 0.0
H819 H 0.2021 0.74693 0.38424 0.0
H820 H 0.23921 0.6766 0.4636 0.0
H821 H 0.27498 0.78442 0.3845 0.0
H822 H 0.21435 0.7267 0.41949 0.0
H823 H 0.29809 0.74455 0.44012 0.0
C824 C 0.29318 0.71215 0.45871 0.0
C825 C 0.2769 0.69227 0.46512 0.0
C826 C 0.22759 0.7397 0.41212 0.0
C827 C 0.26064 0.72753 0.43844 0.0
C828 C 0.22057 0.7514 0.39207 0.0
C829 C 0.23763 0.76696 0.38101 0.0
C830 C 0.25184 0.74352 0.42106 0.0
C831 C 0.26128 0.77219 0.39212 0.0
C832 C 0.28514 0.72981 0.44548 0.0
C833 C 0.25247 0.69138 0.4588 0.0
N834 N 0.26775 0.76014 0.41122 0.0
N835 N 0.24512 0.70857 0.44557 0.0
H836 H 0.63308 0.97969 0.69766 0.0
H837 H 0.515 0.96764 0.60427 0.0
H838 H 0.5637 0.94277 0.71263 0.0
H839 H 0.58556 0.00136 0.58943 0.0
H840 H 0.53242 0.95611 0.64302 0.0
H841 H 0.61608 0.98481 0.65633 0.0
C842 C 0.61433 0.9724 0.69214 0.0
C843 C 0.59975 0.96102 0.70871 0.0
C844 C 0.54403 0.96597 0.63118 0.0
C845 C 0.58005 0.96712 0.66154 0.0
C846 C 0.53409 0.97262 0.60915 0.0
C847 C 0.54879 0.98568 0.59371 0.0
C848 C 0.5688 0.97245 0.63772 0.0
C849 C 0.57345 0.9915 0.60083 0.0
C850 C 0.60458 0.97539 0.66855 0.0
C851 C 0.57558 0.9518 0.7005 0.0
N852 N 0.58263 0.98492 0.6223 0.0
N853 N 0.56641 0.9553 0.67757 0.0
H854 H 0.3076 0.31965 0.97793 0.0
H855 H 0.2393 0.34315 0.85112 0.0
H856 H 0.26064 0.37279 0.97422 0.0
H857 H 0.27157 0.27839 0.85576 0.0
H858 H 0.25049 0.35626 0.89569 0.0
H859 H 0.29752 0.30592 0.93294 0.0
C860 C 0.29513 0.32841 0.96772 0.0
C861 C 0.28496 0.34745 0.97997 0.0
C862 C 0.25517 0.33918 0.88702 0.0
C863 C 0.27356 0.33192 0.92841 0.0
C864 C 0.24888 0.3317 0.86147 0.0
C865 C 0.25443 0.30955 0.84962 0.0
C866 C 0.26728 0.32455 0.901 0.0
C867 C 0.2669 0.29558 0.86412 0.0
C868 C 0.28939 0.32052 0.94203 0.0
C869 C 0.2689 0.35803 0.96569 0.0
N870 N 0.27291 0.30331 0.8891 0.0
N871 N 0.26381 0.35021 0.94072 0.0
H872 H 0.95274 0.00307 0.31885 0.0
H873 H 0.94713 0.0316 0.46653 0.0
H874 H 0.89928 0.03795 0.35349 0.0
H875 H 0.00847 0.01059 0.4341 0.0
H876 H 0.9267 0.02766 0.42474 0.0
H877 H 0.97097 -7e-05 0.36053 0.0
C878 C 0.94471 0.00986 0.33517 0.0
C879 C 0.9244 0.02074 0.33268 0.0
C880 C 0.94459 0.0238 0.42671 0.0
C881 C 0.94509 0.01716 0.38022 0.0
C882 C 0.95628 0.02602 0.4506 0.0
C883 C 0.97965 0.02171 0.45377 0.0
C884 C 0.95633 0.01725 0.40577 0.0
C885 C 0.99051 0.01426 0.43244 0.0
C886 C 0.95513 0.00807 0.35892 0.0
C887 C 0.91476 0.02924 0.35443 0.0
N888 N 0.97879 0.01243 0.40925 0.0
N889 N 0.92522 0.02731 0.37726 0.0
H890 H 0.27025 0.64504 0.5793 0.0
H891 H 0.30355 0.76983 0.67819 0.0
H892 H 0.33014 0.70304 0.57316 0.0
H893 H 0.23851 0.71526 0.6725 0.0
H894 H 0.31577 0.74553 0.64169 0.0
H895 H 0.26147 0.66955 0.61666 0.0
C896 C 0.28173 0.66289 0.58595 0.0
C897 C 0.30084 0.67209 0.57291 0.0
C898 C 0.2988 0.73904 0.64846 0.0
C899 C 0.2906 0.70062 0.61576 0.0
C900 C 0.29175 0.75296 0.66913 0.0
C901 C 0.27002 0.74451 0.67845 0.0
C902 C 0.284 0.71659 0.63725 0.0
C903 C 0.25548 0.72246 0.66611 0.0
C904 C 0.27662 0.67699 0.60728 0.0
C905 C 0.31521 0.69526 0.58264 0.0
N906 N 0.26279 0.70928 0.64632 0.0
N907 N 0.30967 0.7089 0.60343 0.0
H908 H 0.62958 0.0239 0.86278 0.0
H909 H 0.50873 0.02998 0.91643 0.0
H910 H 0.56336 0.001 0.81514 0.0
H911 H 0.57263 0.0827 0.94643 0.0
H912 H 0.5274 0.0202 0.87821 0.0
H913 H 0.6089 0.04567 0.89379 0.0
C914 C 0.61071 0.02339 0.85887 0.0
C915 C 0.59807 0.0103 0.83659 0.0
C916 C 0.53709 0.03439 0.89289 0.0
C917 C 0.57437 0.03526 0.87179 0.0
C918 C 0.52643 0.04001 0.91463 0.0
C919 C 0.5393 0.05692 0.93463 0.0
C920 C 0.56094 0.04528 0.89156 0.0
C921 C 0.56215 0.06947 0.93143 0.0
C922 C 0.59898 0.03611 0.8764 0.0
C923 C 0.5737 0.01075 0.83222 0.0
N924 N 0.57253 0.0629 0.91053 0.0
N925 N 0.56252 0.0227 0.84987 0.0
H926 H 0.23655 0.3455 0.10432 0.0
H927 H 0.24164 0.22765 0.17634 0.0
H928 H 0.28527 0.29522 0.08894 0.0
H929 H 0.22424 0.29675 0.20955 0.0
H930 H 0.24616 0.24509 0.13682 0.0
H931 H 0.22029 0.32006 0.1352 0.0
C932 C 0.2435 0.32883 0.10699 0.0
C933 C 0.26259 0.32273 0.09425 0.0
C934 C 0.24082 0.25614 0.15265 0.0
C935 C 0.24391 0.2935 0.12953 0.0
C936 C 0.23809 0.24617 0.17509 0.0
C937 C 0.23272 0.26088 0.19621 0.0
C938 C 0.23759 0.28071 0.15131 0.0
C939 C 0.2285 0.28486 0.19369 0.0
C940 C 0.23426 0.31439 0.12471 0.0
C941 C 0.27079 0.30083 0.09857 0.0
N942 N 0.2311 0.29406 0.1717 0.0
N943 N 0.26154 0.28711 0.11601 0.0
H944 H 0.21249 0.93658 0.07622 0.0
H945 H 0.11752 0.99348 0.99623 0.0
H946 H 0.19564 0.919 0.99609 0.0
H947 H 0.11968 0.99775 0.07657 0.0
H948 H 0.15087 0.97161 0.99688 0.0
H949 H 0.18209 0.96289 0.0776 0.0
C950 C 0.20233 0.93814 0.05894 0.0
C951 C 0.20659 0.92553 0.03598 0.0
C952 C 0.14425 0.97746 0.01444 0.0
C953 C 0.17218 0.95588 0.03744 0.0
C954 C 0.1253 0.99011 0.01411 0.0
C955 C 0.11574 0.99726 0.03637 0.0
C956 C 0.15377 0.97174 0.03721 0.0
C957 C 0.12662 0.99261 0.05901 0.0
C958 C 0.18505 0.95321 0.05977 0.0
C959 C 0.19293 0.92826 0.01421 0.0
N960 N 0.14498 0.97986 0.05884 0.0
N961 N 0.17645 0.94321 0.01548 0.0
H962 H 0.70172 0.61151 0.99615 0.0
H963 H 0.59594 0.49231 0.97372 0.0
H964 H 0.7106 0.53836 0.96358 0.0
H965 H 0.59108 0.56421 0.01315 0.0
H966 H 0.6366 0.50954 0.96547 0.0
H967 H 0.65959 0.59523 0.9978 0.0
C968 C 0.69478 0.59204 0.98919 0.0
C969 C 0.70976 0.57621 0.97995 0.0
C970 C 0.62653 0.52153 0.97581 0.0
C971 C 0.66148 0.55737 0.98192 0.0
C972 C 0.60335 0.51172 0.98049 0.0
C973 C 0.59017 0.5268 0.9943 0.0
C974 C 0.63647 0.54656 0.98491 0.0
C975 C 0.60062 0.55182 0.0026 0.0
C976 C 0.6707 0.58273 0.99017 0.0
C977 C 0.69972 0.55119 0.97101 0.0
N978 N 0.62314 0.56087 0.99784 0.0
N979 N 0.6762 0.54247 0.97238 0.0
H980 H 0.72034 0.47035 0.33039 0.0
H981 H 0.74341 0.36548 0.22418 0.0
H982 H 0.68559 0.45799 0.25492 0.0
H983 H 0.75473 0.36431 0.30368 0.0
H984 H 0.73422 0.40768 0.23268 0.0
H985 H 0.74534 0.44039 0.3177 0.0
C986 C 0.71821 0.4617 0.31103 0.0
C987 C 0.70033 0.46619 0.29388 0.0
C988 C 0.73934 0.39838 0.24819 0.0
C989 C 0.72892 0.43181 0.27932 0.0
C990 C 0.7447 0.37448 0.24335 0.0
C991 C 0.7496 0.36158 0.26332 0.0
C992 C 0.73928 0.40929 0.27311 0.0
C993 C 0.75082 0.37371 0.28784 0.0
C994 C 0.73251 0.44458 0.30383 0.0
C995 C 0.69879 0.45472 0.26893 0.0
N996 N 0.74551 0.39682 0.29206 0.0
N997 N 0.71261 0.43769 0.26248 0.0
H998 H 0.83492 0.37201 0.49157 0.0
H999 H 0.93035 0.49468 0.49912 0.0
H1000 H 0.81723 0.44421 0.48542 0.0
H1001 H 0.9469 0.42142 0.50186 0.0
H1002 H 0.88949 0.47536 0.48266 0.0
H1003 H 0.87563 0.38807 0.48398 0.0
C1004 C 0.83952 0.39117 0.48834 0.0
C1005 C 0.82288 0.40701 0.48993 0.0
C1006 C 0.90219 0.46349 0.48633 0.0
C1007 C 0.8696 0.42571 0.48152 0.0
C1008 C 0.92554 0.47452 0.49568 0.0
C1009 C 0.94175 0.4596 0.50261 0.0
C1010 C 0.89512 0.43745 0.48411 0.0
C1011 C 0.93472 0.43361 0.49744 0.0
C1012 C 0.8628 0.40036 0.48387 0.0
C1013 C 0.82967 0.4315 0.4848 0.0
N1014 N 0.91178 0.42336 0.48898 0.0
N1015 N 0.8527 0.44031 0.48142 0.0
H1016 H 0.34325 0.07532 0.2574 0.0
H1017 H 0.23113 0.13486 0.29393 0.0
H1018 H 0.31365 0.07225 0.32825 0.0
H1019 H 0.2664 0.14632 0.22749 0.0
H1020 H 0.25564 0.10415 0.30234 0.0
H1021 H 0.31036 0.09428 0.24246 0.0
C1022 C 0.32978 0.07847 0.26979 0.0
C1023 C 0.33147 0.07251 0.29429 0.0
C1024 C 0.25774 0.11309 0.2857 0.0
C1025 C 0.29367 0.09416 0.27719 0.0
C1026 C 0.24361 0.13051 0.28076 0.0
C1027 C 0.24702 0.14355 0.26022 0.0
C1028 C 0.27539 0.10869 0.26997 0.0
C1029 C 0.26341 0.137 0.24376 0.0
C1030 C 0.31096 0.08926 0.2612 0.0
C1031 C 0.3133 0.07682 0.30934 0.0
N1032 N 0.27724 0.12031 0.24921 0.0
N1033 N 0.29529 0.08756 0.30062 0.0
H1034 H 0.37182 0.13306 0.50899 0.0
H1035 H 0.42828 0.01929 0.55074 0.0
H1036 H 0.33034 0.06934 0.53458 0.0
H1037 H 0.46597 0.08021 0.51768 0.0
H1038 H 0.39347 0.03987 0.55109 0.0
H1039 H 0.40789 0.11688 0.51887 0.0
C1040 C 0.37031 0.11585 0.51703 0.0
C1041 C 0.34799 0.10241 0.52069 0.0
C1042 C 0.40946 0.04876 0.54395 0.0
C1043 C 0.38925 0.08349 0.53171 0.0
C1044 C 0.42929 0.03703 0.54376 0.0
C1045 C 0.44989 0.04785 0.53381 0.0
C1046 C 0.41043 0.0715 0.5343 0.0
C1047 C 0.45032 0.07093 0.52513 0.0
C1048 C 0.39093 0.10652 0.52258 0.0
C1049 C 0.34718 0.08022 0.53127 0.0
N1050 N 0.43091 0.08187 0.52547 0.0
N1051 N 0.36749 0.07129 0.53613 0.0
H1052 H 0.64853 0.57573 0.27987 0.0
H1053 H 0.7585 0.68928 0.3121 0.0
H1054 H 0.70152 0.5824 0.34287 0.0
H1055 H 0.69486 0.69327 0.26571 0.0
H1056 H 0.7393 0.64851 0.32114 0.0
H1057 H 0.66657 0.61741 0.27205 0.0
C1058 C 0.66391 0.58596 0.2921 0.0
C1059 C 0.67355 0.57552 0.31205 0.0
C1060 C 0.72952 0.65834 0.30904 0.0
C1061 C 0.69434 0.62311 0.30305 0.0
C1062 C 0.7405 0.68157 0.30378 0.0
C1063 C 0.72827 0.69466 0.28808 0.0
C1064 C 0.70624 0.64799 0.29829 0.0
C1065 C 0.70493 0.68381 0.27792 0.0
C1066 C 0.67415 0.60977 0.28766 0.0
C1067 C 0.69344 0.5897 0.32732 0.0
N1068 N 0.6947 0.66102 0.28309 0.0
N1069 N 0.70328 0.6127 0.3224 0.0
H1070 H 0.82201 0.45855 0.83976 0.0
H1071 H 0.81297 0.33827 0.73749 0.0
H1072 H 0.86175 0.45747 0.77509 0.0
H1073 H 0.76352 0.3436 0.79332 0.0
H1074 H 0.83273 0.38111 0.75274 0.0
H1075 H 0.80234 0.41549 0.82495 0.0
C1076 C 0.82671 0.44926 0.82252 0.0
C1077 C 0.84357 0.46172 0.80865 0.0
C1078 C 0.81751 0.37296 0.76162 0.0
C1079 C 0.82104 0.41241 0.79158 0.0
C1080 C 0.80621 0.34848 0.75293 0.0
C1081 C 0.78653 0.33736 0.76412 0.0
C1082 C 0.80921 0.38642 0.7818 0.0
C1083 C 0.77857 0.3515 0.78406 0.0
C1084 C 0.81538 0.42469 0.81403 0.0
C1085 C 0.84884 0.44868 0.7864 0.0
N1086 N 0.79 0.3753 0.79234 0.0
N1087 N 0.83763 0.42476 0.77859 0.0
H1088 H 0.04727 0.8308 0.1069 0.0
H1089 H 0.00649 0.93556 0.03281 0.0
H1090 H 0.97648 0.82349 0.06952 0.0
H1091 H 0.07116 0.94493 0.08234 0.0
H1092 H -0.00159 0.89094 0.03738 0.0
H1093 H 0.05966 0.86857 0.08843 0.0
C1094 C 0.0344 0.83694 0.09452 0.0
C1095 C 0.01066 0.82429 0.09022 0.0
C1096 C 0.0145 0.90278 0.04694 0.0
C1097 C 0.02465 0.86779 0.0693 0.0
C1098 C 0.0191 0.92813 0.04433 0.0
C1099 C 0.03923 0.94389 0.05765 0.0
C1100 C 0.03037 0.89332 0.0627 0.0
C1101 C 0.05513 0.93348 0.0722 0.0
C1102 C 0.04147 0.85855 0.08399 0.0
C1103 C 0.9949 0.83286 0.0736 0.0
N1104 N 0.05028 0.90892 0.07446 0.0
N1105 N 0.00205 0.85439 0.06409 0.0
H1106 H 0.93061 0.27449 0.83283 0.0
H1107 H 0.79639 0.21689 0.78558 0.0
H1108 H 0.89628 0.20606 0.85631 0.0
H1109 H 0.81824 0.29589 0.81028 0.0
H1110 H 0.83564 0.21058 0.80246 0.0
H1111 H 0.89159 0.28095 0.81569 0.0
C1112 C 0.91485 0.26084 0.83433 0.0
C1113 C 0.91651 0.23975 0.84599 0.0
C1114 C 0.83176 0.22925 0.80404 0.0
C1115 C 0.87231 0.24671 0.82604 0.0
C1116 C 0.80957 0.23288 0.79429 0.0
C1117 C 0.80425 0.25692 0.79662 0.0
C1118 C 0.84878 0.2499 0.8155 0.0
C1119 C 0.82174 0.27706 0.80826 0.0
C1120 C 0.8927 0.26457 0.82464 0.0
C1121 C 0.89562 0.22263 0.84756 0.0
N1122 N 0.84339 0.27313 0.81711 0.0
N1123 N 0.87431 0.22633 0.8374 0.0
H1124 H 0.48657 0.19268 0.56081 0.0
H1125 H 0.54121 0.08541 0.61187 0.0
H1126 H 0.5304 0.20508 0.63148 0.0
H1127 H 0.52509 0.08618 0.53273 0.0
H1128 H 0.53846 0.12954 0.61962 0.0
H1129 H 0.50057 0.15356 0.55005 0.0
C1130 C 0.49925 0.18727 0.57399 0.0
C1131 C 0.50715 0.20205 0.59718 0.0
C1132 C 0.53602 0.12018 0.60051 0.0
C1133 C 0.52312 0.1573 0.58503 0.0
C1134 C 0.53763 0.09503 0.59609 0.0
C1135 C 0.53319 0.0821 0.57167 0.0
C1136 C 0.52937 0.13226 0.58043 0.0
C1137 C 0.52862 0.09543 0.55187 0.0
C1138 C 0.50736 0.16504 0.56776 0.0
C1139 C 0.52377 0.19422 0.61343 0.0
N1140 N 0.52632 0.11968 0.55674 0.0
N1141 N 0.53093 0.17219 0.60721 0.0
H1142 H 0.54977 0.78499 0.32812 0.0
H1143 H 0.67597 0.74324 0.34729 0.0
H1144 H 0.56619 0.73385 0.37844 0.0
H1145 H 0.65975 0.78919 0.2915 0.0
H1146 H 0.63683 0.74329 0.36146 0.0
H1147 H 0.59084 0.79033 0.31708 0.0
C1148 C 0.56204 0.77504 0.337 0.0
C1149 C 0.55448 0.7588 0.3541 0.0
C1150 C 0.64176 0.75344 0.34616 0.0
C1151 C 0.6014 0.76482 0.34153 0.0
C1152 C 0.66417 0.75343 0.338 0.0
C1153 C 0.67109 0.76606 0.31799 0.0
C1154 C 0.62595 0.76612 0.33422 0.0
C1155 C 0.65508 0.77912 0.30692 0.0
C1156 C 0.58545 0.77807 0.33063 0.0
C1157 C 0.57115 0.74643 0.36503 0.0
N1158 N 0.63314 0.77869 0.31509 0.0
N1159 N 0.59375 0.74963 0.35849 0.0
H1160 H 0.04293 0.21474 0.44156 0.0
H1161 H 0.00418 0.1077 0.52546 0.0
H1162 H 0.9779 0.20635 0.47766 0.0
H1163 H 0.06817 0.11565 0.48769 0.0
H1164 H 0.99734 0.1477 0.5138 0.0
H1165 H 0.05548 0.18252 0.46384 0.0
C1166 C 0.03139 0.20637 0.45439 0.0
C1167 C 0.00914 0.21306 0.4574 0.0
C1168 C 0.01305 0.14083 0.50836 0.0
C1169 C 0.02335 0.17592 0.48288 0.0
C1170 C 0.017 0.11805 0.5151 0.0
C1171 C 0.03659 0.10816 0.50723 0.0
C1172 C 0.02879 0.15376 0.49364 0.0
C1173 C 0.05264 0.12239 0.49386 0.0
C1174 C 0.03857 0.18792 0.4671 0.0
C1175 C 0.99508 0.20164 0.47448 0.0
N1176 N 0.04825 0.14429 0.48727 0.0
N1177 N 0.00229 0.18344 0.48632 0.0
H1178 H 0.56045 0.23707 0.2139 0.0
H1179 H 0.68873 0.29105 0.17301 0.0
H1180 H 0.5717 0.28068 0.15332 0.0
H1181 H 0.67932 0.25566 0.23939 0.0
H1182 H 0.64559 0.28363 0.16342 0.0
H1183 H 0.60368 0.24026 0.22163 0.0
C1184 C 0.57197 0.24723 0.20218 0.0
C1185 C 0.56243 0.25874 0.18302 0.0
C1186 C 0.65293 0.27739 0.18004 0.0
C1187 C 0.61181 0.26236 0.1917 0.0
C1188 C 0.6776 0.28157 0.18551 0.0
C1189 C 0.68767 0.27411 0.20712 0.0
C1190 C 0.63812 0.26563 0.19628 0.0
C1191 C 0.67232 0.26182 0.22257 0.0
C1192 C 0.59664 0.24906 0.20662 0.0
C1193 C 0.57822 0.27163 0.1684 0.0
N1194 N 0.64829 0.25806 0.2169 0.0
N1195 N 0.60208 0.27311 0.17307 0.0
H1196 H 0.52652 0.84122 0.9079 0.0
H1197 H 0.52814 0.93606 0.03315 0.0
H1198 H 0.49154 0.82076 0.97214 0.0
H1199 H 0.53261 0.95973 0.96026 0.0
H1200 H 0.52547 0.89282 0.01373 0.0
H1201 H 0.53927 0.88394 0.92986 0.0
C1202 C 0.52185 0.8456 0.92674 0.0
C1203 C 0.50775 0.8275 0.93813 0.0
C1204 C 0.52739 0.90757 0.00209 0.0
C1205 C 0.52244 0.87608 0.96333 0.0
C1206 C 0.52908 0.93225 0.01316 0.0
C1207 C 0.53035 0.95149 0.99825 0.0
C1208 C 0.52739 0.90218 0.97603 0.0
C1209 C 0.53139 0.94542 0.97241 0.0
C1210 C 0.52903 0.86997 0.93919 0.0
C1211 C 0.50214 0.83422 0.96256 0.0
N1212 N 0.52978 0.92128 0.96208 0.0
N1213 N 0.50947 0.85797 0.97432 0.0
H1214 H 0.90331 0.7658 0.64696 0.0
H1215 H 0.83396 0.74458 0.76654 0.0
H1216 H 0.93973 0.75272 0.71557 0.0
H1217 H 0.80064 0.72724 0.69052 0.0
H1218 H 0.87313 0.75303 0.75022 0.0
H1219 H 0.86562 0.75702 0.66464 0.0
C1220 C 0.90344 0.76082 0.66566 0.0
C1221 C 0.92479 0.75962 0.6796 0.0
C1222 C 0.85717 0.74731 0.73723 0.0
C1223 C 0.88141 0.75012 0.70031 0.0
C1224 C 0.83488 0.74264 0.74649 0.0
C1225 C 0.81407 0.73513 0.72984 0.0
C1226 C 0.85845 0.74488 0.71123 0.0
C1227 C 0.81622 0.73281 0.70404 0.0
C1228 C 0.88182 0.75589 0.6758 0.0
C1229 C 0.92367 0.7536 0.70405 0.0
N1230 N 0.83796 0.73779 0.69556 0.0
N1231 N 0.90231 0.74919 0.71373 0.0
H1232 H 0.06481 0.00897 0.83695 0.0
H1233 H 0.08308 0.03944 0.98576 0.0
H1234 H 0.13298 0.01782 0.88033 0.0
H1235 H 0.01632 -0.00038 0.94602 0.0
H1236 H 0.1007 0.03929 0.9462 0.0
H1237 H 0.0459 0.01324 0.87602 0.0
C1238 C 0.07584 0.0121 0.85466 0.0
C1239 C 0.10052 0.01294 0.85542 0.0
C1240 C 0.08218 0.03063 0.94614 0.0
C1241 C 0.07906 0.01792 0.8999 0.0
C1242 C 0.07207 0.03073 0.96869 0.0
C1243 C 0.04823 0.0193 0.9692 0.0
C1244 C 0.06831 0.01935 0.92384 0.0
C1245 C 0.03483 0.00842 0.94646 0.0
C1246 C 0.06501 0.01436 0.87687 0.0
C1247 C 0.11393 0.01688 0.87883 0.0
N1248 N 0.04507 0.00873 0.92461 0.0
N1249 N 0.10303 0.01927 0.90015 0.0
H1250 H 0.72098 0.33818 0.57091 0.0
H1251 H 0.76065 0.25535 0.67124 0.0
H1252 H 0.7777 0.29626 0.563 0.0
H1253 H 0.70136 0.29384 0.67673 0.0
H1254 H 0.76338 0.26495 0.62849 0.0
H1255 H 0.70963 0.31699 0.60643 0.0
C1256 C 0.73085 0.32429 0.57639 0.0
C1257 C 0.75062 0.31937 0.56423 0.0
C1258 C 0.74957 0.27101 0.63895 0.0
C1259 C 0.73785 0.29521 0.60502 0.0
C1260 C 0.74801 0.26551 0.66334 0.0
C1261 C 0.73105 0.27422 0.67769 0.0
C1262 C 0.73415 0.28542 0.62898 0.0
C1263 C 0.715 0.28713 0.66648 0.0
C1264 C 0.72437 0.3122 0.59671 0.0
C1265 C 0.76257 0.30098 0.57204 0.0
N1266 N 0.71714 0.29262 0.64291 0.0
N1267 N 0.75621 0.28985 0.59215 0.0
H1268 H 0.43258 0.06708 0.38234 0.0
H1269 H 0.49704 0.97465 0.44984 0.0
H1270 H 0.45183 0.00279 0.3405 0.0
H1271 H 0.51632 0.05392 0.47352 0.0
H1272 H 0.47496 0.9825 0.41187 0.0
H1273 H 0.45731 0.06038 0.4193 0.0
C1274 C 0.44181 0.05146 0.38106 0.0
C1275 C 0.44027 0.03545 0.35848 0.0
C1276 C 0.48428 0.99817 0.42523 0.0
C1277 C 0.46817 0.02771 0.40023 0.0
C1278 C 0.4969 0.99371 0.44671 0.0
C1279 C 0.50867 0.01373 0.46436 0.0
C1280 C 0.48282 0.02277 0.42194 0.0
C1281 C 0.50774 0.03811 0.45994 0.0
C1282 C 0.45604 0.04783 0.40195 0.0
C1283 C 0.45267 0.01559 0.35759 0.0
N1284 N 0.49466 0.04201 0.43922 0.0
N1285 N 0.46598 0.01215 0.37825 0.0
H1286 H 0.75673 0.63948 0.07072 0.0
H1287 H 0.77154 0.74944 0.18568 0.0
H1288 H 0.8116 0.70553 0.07892 0.0
H1289 H 0.74094 0.67293 0.19064 0.0
H1290 H 0.77812 0.73698 0.14204 0.0
H1291 H 0.74308 0.65502 0.11038 0.0
C1292 C 0.76577 0.65737 0.0807 0.0
C1293 C 0.7855 0.67112 0.07153 0.0
C1294 C 0.7696 0.72303 0.15259 0.0
C1295 C 0.76974 0.68908 0.11685 0.0
C1296 C 0.76561 0.73015 0.17741 0.0
C1297 C 0.75575 0.71214 0.19185 0.0
C1298 C 0.76327 0.69785 0.14202 0.0
C1299 C 0.74867 0.68737 0.18021 0.0
C1300 C 0.75799 0.66617 0.10337 0.0
C1301 C 0.79648 0.69418 0.08536 0.0
N1302 N 0.75264 0.68093 0.15601 0.0
N1303 N 0.78846 0.70243 0.10733 0.0
H1304 H 0.13586 0.99225 0.70745 0.0
H1305 H 0.04798 0.01542 0.59467 0.0
H1306 H 0.08084 0.03599 0.71773 0.0
H1307 H 0.10897 0.98034 0.58453 0.0
H1308 H 0.06034 0.02441 0.63962 0.0
H1309 H 0.12688 0.98887 0.66225 0.0
C1310 C 0.12193 0.00124 0.70019 0.0
C1311 C 0.10894 0.01427 0.71639 0.0
C1312 C 0.07111 0.01491 0.62753 0.0
C1313 C 0.09852 0.01038 0.66458 0.0
C1314 C 0.06405 0.00974 0.60187 0.0
C1315 C 0.07737 0.99693 0.58585 0.0
C1316 C 0.09153 0.00706 0.63725 0.0
C1317 C 0.0981 0.99015 0.59619 0.0
C1318 C 0.11686 -0.00066 0.67435 0.0
C1319 C 0.09124 0.0257 0.70592 0.0
N1320 N 0.10444 0.99513 0.62126 0.0
N1321 N 0.08641 0.02332 0.68064 0.0
H1322 H 0.73775 0.35919 0.43194 0.0
H1323 H 0.73006 0.24215 0.32641 0.0
H1324 H 0.75523 0.28964 0.44926 0.0
H1325 H 0.7572 0.31828 0.31643 0.0
H1326 H 0.725 0.25683 0.37021 0.0
H1327 H 0.72912 0.34101 0.38769 0.0
C1328 C 0.73901 0.33986 0.42654 0.0
C1329 C 0.74747 0.32594 0.4441 0.0
C1330 C 0.73165 0.27022 0.35814 0.0
C1331 C 0.73762 0.30519 0.3939 0.0
C1332 C 0.73455 0.26192 0.33326 0.0
C1333 C 0.74407 0.27903 0.31778 0.0
C1334 C 0.73771 0.29579 0.36721 0.0
C1335 C 0.74973 0.30444 0.32763 0.0
C1336 C 0.73428 0.32961 0.40135 0.0
C1337 C 0.74901 0.30103 0.43615 0.0
N1338 N 0.74641 0.31205 0.35169 0.0
N1339 N 0.74433 0.29146 0.41152 0.0
H1340 H 0.47019 0.03036 0.23677 0.0
H1341 H 0.42804 0.99648 0.09172 0.0
H1342 H 0.39624 0.01844 0.20724 0.0
H1343 H 0.49821 0.99205 0.12398 0.0
H1344 H 0.41527 0.00209 0.13372 0.0
H1345 H 0.48031 0.01497 0.1956 0.0
C1346 C 0.45605 0.02451 0.22159 0.0
C1347 C 0.43235 0.02594 0.22536 0.0
C1348 C 0.43336 -0.00048 0.13161 0.0
C1349 C 0.44386 0.00818 0.17811 0.0
C1350 C 0.44067 0.99631 0.10765 0.0
C1351 C 0.46431 0.99415 0.10443 0.0
C1352 C 0.44992 0.00091 0.15248 0.0
C1353 C 0.47985 0.99379 0.12565 0.0
C1354 C 0.46184 0.01553 0.19811 0.0
C1355 C 0.41476 0.0178 0.20508 0.0
N1356 N 0.47247 0.99756 0.14884 0.0
N1357 N 0.42091 0.00948 0.18221 0.0
H1358 H 0.75541 0.66744 0.94577 0.0
H1359 H 0.80347 0.76199 0.85172 0.0
H1360 H 0.82814 0.70737 0.95314 0.0
H1361 H 0.73536 0.71183 0.83999 0.0
H1362 H 0.81159 0.74663 0.89167 0.0
H1363 H 0.74647 0.68845 0.91018 0.0
C1364 C 0.76951 0.68079 0.94006 0.0
C1365 C 0.79267 0.6854 0.95241 0.0
C1366 C 0.79484 0.73912 0.88036 0.0
C1367 C 0.78248 0.70953 0.91125 0.0
C1368 C 0.79017 0.74789 0.85759 0.0
C1369 C 0.76877 0.73805 0.84237 0.0
C1370 C 0.77789 0.72055 0.88801 0.0
C1371 C 0.75219 0.71983 0.85094 0.0
C1372 C 0.76438 0.69276 0.91962 0.0
C1373 C 0.81007 0.70313 0.94416 0.0
N1374 N 0.75712 0.71168 0.87309 0.0
N1375 N 0.80467 0.7144 0.92397 0.0
H1376 H 0.857 0.11311 0.98448 0.0
H1377 H 0.908 0.00614 0.04556 0.0
H1378 H 0.81553 0.06355 0.02747 0.0
H1379 H 0.9394 0.04156 0.98597 0.0
H1380 H 0.87434 0.02752 0.0403 0.0
H1381 H 0.88862 0.08861 0.98697 0.0
C1382 C 0.85463 0.0972 0.9946 0.0
C1383 C 0.83365 0.09037 0.00582 0.0
C1384 C 0.88847 0.03036 0.02819 0.0
C1385 C 0.8696 0.06218 0.00857 0.0
C1386 C 0.90764 0.01809 0.0311 0.0
C1387 C 0.92659 0.02215 0.01626 0.0
C1388 C 0.88845 0.04705 0.01054 0.0
C1389 C 0.92518 0.03785 0.99783 0.0
C1390 C 0.87258 0.0831 0.99583 0.0
C1391 C 0.83143 0.06946 0.01854 0.0
N1392 N 0.90659 0.04998 0.99571 0.0
N1393 N 0.84923 0.05614 0.01964 0.0
H1394 H 0.3395 0.46272 0.04416 0.0
H1395 H 0.47022 0.44133 0.02411 0.0
H1396 H 0.36295 0.39456 0.05709 0.0
H1397 H 0.45486 0.51495 0.04351 0.0
H1398 H 0.43 0.42324 0.03237 0.0
H1399 H 0.38066 0.48164 0.03981 0.0
C1400 C 0.35328 0.45168 0.04599 0.0
C1401 C 0.34774 0.42693 0.05084 0.0
C1402 C 0.43547 0.44334 0.03501 0.0
C1403 C 0.39479 0.4485 0.04582 0.0
C1404 C 0.45837 0.45369 0.03022 0.0
C1405 C 0.46581 0.47968 0.03309 0.0
C1406 C 0.4197 0.45907 0.04224 0.0
C1407 C 0.44981 0.49483 0.04118 0.0
C1408 C 0.37676 0.46258 0.04368 0.0
C1409 C 0.36635 0.41362 0.05326 0.0
N1410 N 0.42734 0.48429 0.04521 0.0
N1411 N 0.38904 0.42451 0.05051 0.0
H1412 H 0.30575 0.56669 0.78821 0.0
H1413 H 0.29309 0.67045 0.70033 0.0
H1414 H 0.34667 0.57784 0.72543 0.0
H1415 H 0.25604 0.66246 0.76622 0.0
H1416 H 0.30728 0.63178 0.70469 0.0
H1417 H 0.28214 0.5967 0.77587 0.0
C1418 C 0.30967 0.57528 0.77167 0.0
C1419 C 0.32856 0.57005 0.75809 0.0
C1420 C 0.29581 0.6383 0.71803 0.0
C1421 C 0.30152 0.60459 0.74392 0.0
C1422 C 0.28768 0.66039 0.71556 0.0
C1423 C 0.27369 0.66991 0.73322 0.0
C1424 C 0.29002 0.62569 0.73837 0.0
C1425 C 0.26697 0.65591 0.75233 0.0
C1426 C 0.29612 0.59242 0.76463 0.0
C1427 C 0.33247 0.58148 0.73661 0.0
N1428 N 0.27547 0.63465 0.7546 0.0
N1429 N 0.31926 0.59847 0.73037 0.0
H1430 H 0.21019 0.57437 0.56134 0.0
H1431 H 0.08349 0.61387 0.53954 0.0
H1432 H 0.19589 0.63135 0.51727 0.0
H1433 H 0.09199 0.54165 0.55831 0.0
H1434 H 0.12673 0.62684 0.54394 0.0
H1435 H 0.16882 0.56833 0.5716 0.0
C1436 C 0.19843 0.58579 0.55406 0.0
C1437 C 0.20632 0.60311 0.53811 0.0
C1438 C 0.11909 0.60831 0.54752 0.0
C1439 C 0.15932 0.59656 0.55006 0.0
C1440 C 0.0944 0.6009 0.54515 0.0
C1441 C 0.08412 0.57642 0.54797 0.0
C1442 C 0.13357 0.59116 0.55286 0.0
C1443 C 0.09918 0.56057 0.55557 0.0
C1444 C 0.17489 0.58233 0.55993 0.0
C1445 C 0.19042 0.61751 0.5293 0.0
N1446 N 0.12322 0.56809 0.55737 0.0
N1447 N 0.16763 0.61383 0.53531 0.0
H1448 H 0.69993 0.94869 0.76178 0.0
H1449 H 0.77109 0.8616 0.82828 0.0
H1450 H 0.71802 0.95898 0.84188 0.0
H1451 H 0.77168 0.86706 0.74941 0.0
H1452 H 0.75572 0.90036 0.83418 0.0
H1453 H 0.72936 0.92174 0.75684 0.0
C1454 C 0.71028 0.94554 0.77831 0.0
C1455 C 0.70618 0.95577 0.80231 0.0
C1456 C 0.7597 0.89339 0.81566 0.0
C1457 C 0.73977 0.9248 0.79679 0.0
C1458 C 0.76852 0.87128 0.81231 0.0
C1459 C 0.77229 0.86089 0.78827 0.0
C1460 C 0.75418 0.9049 0.79475 0.0
C1461 C 0.76882 0.87429 0.76826 0.0
C1462 C 0.72718 0.93024 0.77547 0.0
C1463 C 0.72036 0.95129 0.82302 0.0
N1464 N 0.75944 0.89533 0.77184 0.0
N1465 N 0.73622 0.93579 0.81981 0.0
H1466 H 0.70495 0.89396 0.55455 0.0
H1467 H 0.6294 0.99012 0.50302 0.0
H1468 H 0.73376 0.94968 0.50985 0.0
H1469 H 0.60355 0.935 0.54965 0.0
H1470 H 0.66718 0.97475 0.50321 0.0
H1471 H 0.66681 0.90761 0.55053 0.0
C1472 C 0.70323 0.90899 0.54376 0.0
C1473 C 0.72264 0.92077 0.53265 0.0
C1474 C 0.65316 0.96604 0.51333 0.0
C1475 C 0.67893 0.93669 0.52807 0.0
C1476 C 0.63164 0.97482 0.51324 0.0
C1477 C 0.61332 0.96391 0.52641 0.0
C1478 C 0.65626 0.94624 0.52664 0.0
C1479 C 0.61715 0.94409 0.53929 0.0
C1480 C 0.68142 0.91683 0.54149 0.0
C1481 C 0.71928 0.94011 0.5188 0.0
N1482 N 0.63813 0.93596 0.53909 0.0
N1483 N 0.69787 0.94757 0.51701 0.0
H1484 H 0.30227 0.46403 0.78227 0.0
H1485 H 0.30929 0.32261 0.74569 0.0
H1486 H 0.3589 0.441 0.74252 0.0
H1487 H 0.24359 0.34633 0.76207 0.0
H1488 H 0.32726 0.36568 0.74304 0.0
H1489 H 0.27985 0.42136 0.77359 0.0
C1490 C 0.30987 0.45 0.77145 0.0
C1491 C 0.33261 0.45597 0.76334 0.0
C1492 C 0.30882 0.36147 0.74687 0.0
C1493 C 0.30713 0.40699 0.75362 0.0
C1494 C 0.29856 0.33689 0.74851 0.0
C1495 C 0.27496 0.33093 0.75435 0.0
C1496 C 0.29557 0.38039 0.75157 0.0
C1497 C 0.26185 0.35014 0.75758 0.0
C1498 C 0.29701 0.42566 0.76642 0.0
C1499 C 0.34147 0.43716 0.74916 0.0
N1500 N 0.27246 0.37411 0.75654 0.0
N1501 N 0.32887 0.41337 0.74511 0.0
H1502 H 0.22252 0.5765 0.32198 0.0
H1503 H 0.17525 0.69187 0.27847 0.0
H1504 H 0.16062 0.56724 0.26845 0.0
H1505 H 0.24952 0.69542 0.30264 0.0
H1506 H 0.16875 0.64638 0.27576 0.0
H1507 H 0.23239 0.6204 0.3163 0.0
C1508 C 0.21115 0.58367 0.30883 0.0
C1509 C 0.19066 0.56829 0.29577 0.0
C1510 C 0.18651 0.65713 0.28136 0.0
C1511 C 0.20161 0.61849 0.2895 0.0
C1512 C 0.19021 0.68306 0.28304 0.0
C1513 C 0.21291 0.69741 0.29099 0.0
C1514 C 0.20555 0.64556 0.28816 0.0
C1515 C 0.23171 0.68505 0.2965 0.0
C1516 C 0.21683 0.60867 0.30554 0.0
C1517 C 0.17661 0.57847 0.27886 0.0
N1518 N 0.22754 0.65983 0.29533 0.0
N1519 N 0.18213 0.60308 0.27651 0.0
H1520 H 0.45693 0.68827 0.47053 0.0
H1521 H 0.53402 0.58474 0.47972 0.0
H1522 H 0.51966 0.68527 0.43171 0.0
H1523 H 0.48144 0.59676 0.53031 0.0
H1524 H 0.53374 0.62592 0.46739 0.0
H1525 H 0.46941 0.6595 0.49751 0.0
C1526 C 0.47351 0.68187 0.46788 0.0
C1527 C 0.48697 0.68877 0.44839 0.0
C1528 C 0.52271 0.61998 0.48172 0.0
C1529 C 0.50129 0.65569 0.4792 0.0
C1530 C 0.52303 0.59656 0.48885 0.0
C1531 C 0.50785 0.58766 0.50609 0.0
C1532 C 0.50646 0.63417 0.49129 0.0
C1533 C 0.49358 0.60327 0.51713 0.0
C1534 C 0.48067 0.66549 0.4834 0.0
C1535 C 0.50848 0.68017 0.44618 0.0
N1536 N 0.49282 0.62563 0.50912 0.0
N1537 N 0.51473 0.66374 0.46108 0.0
H1538 H 0.56746 0.31858 0.72906 0.0
H1539 H 0.67438 0.24427 0.72721 0.0
H1540 H 0.58371 0.27362 0.66364 0.0
H1541 H 0.67487 0.3068 0.78425 0.0
H1542 H 0.63845 0.25269 0.70611 0.0
H1543 H 0.60487 0.31351 0.75141 0.0
C1544 C 0.57898 0.30788 0.71932 0.0
C1545 C 0.57236 0.29631 0.69451 0.0
C1546 C 0.64636 0.26464 0.72322 0.0
C1547 C 0.61476 0.29023 0.71999 0.0
C1548 C 0.66686 0.25975 0.73543 0.0
C1549 C 0.67777 0.27496 0.75751 0.0
C1550 C 0.63639 0.28476 0.73318 0.0
C1551 C 0.66704 0.29466 0.76724 0.0
C1552 C 0.60026 0.305 0.7321 0.0
C1553 C 0.58797 0.28274 0.68278 0.0
N1554 N 0.64684 0.29902 0.75498 0.0
N1555 N 0.60829 0.2799 0.6957 0.0
H1556 H 0.95099 0.30275 0.95663 0.0
H1557 H 0.02974 0.43368 0.94115 0.0
H1558 H 0.00149 0.31267 0.90177 0.0
H1559 H -0.00109 0.42083 0.00981 0.0
H1560 H 0.0146 0.39028 0.92406 0.0
H1561 H 0.96408 0.34678 0.97431 0.0
C1562 C 0.9648 0.31415 0.9483 0.0
C1563 C 0.97517 0.30398 0.92768 0.0
C1564 C 0.0111 0.39691 0.94286 0.0
C1565 C 0.98997 0.35425 0.94766 0.0
C1566 C 0.01965 0.42176 0.95263 0.0
C1567 C 0.0157 0.43089 0.97704 0.0
C1568 C -0.0017 0.38097 0.95746 0.0
C1569 C 0.00243 0.41451 0.99095 0.0
C1570 C 0.97227 0.33922 0.95845 0.0
C1571 C 0.99304 0.31961 0.91771 0.0
N1572 N 0.99418 0.39026 0.98095 0.0
N1573 N -0.00024 0.34395 0.92771 0.0
H1574 H 0.95959 0.74019 0.21435 0.0
H1575 H 0.82337 0.7479 0.18996 0.0
H1576 H 0.9254 0.75219 0.1441 0.0
H1577 H 0.85485 0.73291 0.26019 0.0
H1578 H 0.85905 0.74118 0.17068 0.0
H1579 H 0.92036 0.72899 0.22908 0.0
C1580 C 0.94383 0.73994 0.20181 0.0
C1581 C 0.94575 0.74766 0.17814 0.0
C1582 C 0.85819 0.73909 0.19025 0.0
C1583 C 0.90098 0.73508 0.19493 0.0
C1584 C 0.83785 0.74307 0.20129 0.0
C1585 C 0.83652 0.74154 0.22681 0.0
C1586 C 0.87759 0.73406 0.20496 0.0
C1587 C 0.85543 0.73457 0.24051 0.0
C1588 C 0.92146 0.73359 0.21026 0.0
C1589 C 0.9248 0.74677 0.16262 0.0
N1590 N 0.87549 0.73156 0.22951 0.0
N1591 N 0.90331 0.741 0.17143 0.0
H1592 H 0.46735 0.29862 0.05168 0.0
H1593 H 0.57952 0.40241 0.03768 0.0
H1594 H 0.53448 0.31057 0.09778 0.0
H1595 H 0.50968 0.39572 0.99839 0.0
H1596 H 0.56641 0.36229 0.05216 0.0
H1597 H 0.48564 0.32747 0.02486 0.0
C1598 C 0.48602 0.30703 0.05601 0.0
C1599 C 0.49923 0.30254 0.07738 0.0
C1600 C 0.5541 0.3694 0.03998 0.0
C1601 C 0.52026 0.33575 0.04673 0.0
C1602 C 0.56162 0.39224 0.03158 0.0
C1603 C 0.54551 0.40266 0.01722 0.0
C1604 C 0.53035 0.35695 0.03393 0.0
C1605 C 0.52257 0.38859 0.00982 0.0
C1606 C 0.49646 0.32353 0.04065 0.0
C1607 C 0.52346 0.31375 0.08176 0.0
N1608 N 0.51556 0.36665 0.01856 0.0
N1609 N 0.5331 0.33012 0.0668 0.0
H1610 H 0.95074 0.28292 0.32877 0.0
H1611 H 0.81125 0.23884 0.33756 0.0
H1612 H 0.92057 0.25154 0.39108 0.0
H1613 H 0.83914 0.26333 0.2711 0.0
H1614 H 0.85132 0.24834 0.35891 0.0
H1615 H 0.9103 0.28089 0.309 0.0
C1616 C 0.93566 0.27596 0.33848 0.0
C1617 C 0.93909 0.26732 0.36163 0.0
C1618 C 0.84878 0.25176 0.33968 0.0
C1619 C 0.89287 0.26482 0.33905 0.0
C1620 C 0.82583 0.24629 0.32742 0.0
C1621 C 0.82182 0.25004 0.30237 0.0
C1622 C 0.86808 0.26098 0.32688 0.0
C1623 C 0.84145 0.26004 0.29037 0.0
C1624 C 0.91259 0.27471 0.32712 0.0
C1625 C 0.91889 0.25841 0.37327 0.0
N1626 N 0.8638 0.265 0.30269 0.0
N1627 N 0.89673 0.25728 0.36182 0.0
H1628 H 0.93098 0.67622 0.60706 0.0
H1629 H 0.00392 0.59916 0.52093 0.0
H1630 H 0.00253 0.70901 0.5949 0.0
H1631 H 0.97308 0.56669 0.58233 0.0
H1632 H 0.99517 0.63967 0.53842 0.0
H1633 H 0.93815 0.63517 0.58888 0.0
C1634 C 0.94814 0.67473 0.60053 0.0
C1635 C 0.96628 0.69583 0.60258 0.0
C1636 C 0.99021 0.62354 0.54785 0.0
C1637 C 0.97416 0.6496 0.5812 0.0
C1638 C 0.99505 0.60051 0.53788 0.0
C1639 C 0.98932 0.57973 0.55036 0.0
C1640 C 0.97888 0.62544 0.56988 0.0
C1641 C 0.9779 0.58241 0.5723 0.0
C1642 C 0.95218 0.65145 0.59025 0.0
C1643 C 0.98821 0.69306 0.59385 0.0
N1644 N 0.97285 0.60487 0.58131 0.0
N1645 N 0.99148 0.67035 0.58321 0.0
H1646 H 0.5914 0.82261 0.87698 0.0
H1647 H 0.679 0.75318 0.79856 0.0
H1648 H 0.57244 0.74498 0.84512 0.0
H1649 H 0.70345 0.8188 0.8531 0.0
H1650 H 0.63853 0.75173 0.81111 0.0
H1651 H 0.63146 0.82355 0.86394 0.0
C1652 C 0.59564 0.80577 0.86722 0.0
C1653 C 0.57856 0.78367 0.86221 0.0
C1654 C 0.65281 0.76639 0.82032 0.0
C1655 C 0.62431 0.78468 0.84705 0.0
C1656 C 0.67586 0.76726 0.81313 0.0
C1657 C 0.69462 0.78609 0.82486 0.0
C1658 C 0.64849 0.78471 0.83905 0.0
C1659 C 0.68956 0.80386 0.84365 0.0
C1660 C 0.61853 0.8063 0.85986 0.0
C1661 C 0.58509 0.76239 0.84951 0.0
N1662 N 0.66699 0.80282 0.85005 0.0
N1663 N 0.60741 0.76345 0.84225 0.0
H1664 H 0.42458 0.46446 0.68911 0.0
H1665 H 0.50979 0.54942 0.61048 0.0
H1666 H 0.42699 0.54369 0.69267 0.0
H1667 H 0.48317 0.47095 0.58685 0.0
H1668 H 0.48533 0.54751 0.64592 0.0
H1669 H 0.45111 0.46636 0.65575 0.0
C1670 C 0.43053 0.48221 0.68273 0.0
C1671 C 0.42342 0.5039 0.69356 0.0
C1672 C 0.48508 0.53071 0.63306 0.0
C1673 C 0.45425 0.50632 0.65589 0.0
C1674 C 0.49921 0.53173 0.61309 0.0
C1675 C 0.49844 0.51031 0.59582 0.0
C1676 C 0.47049 0.50802 0.63589 0.0
C1677 C 0.48417 0.4879 0.59976 0.0
C1678 C 0.44572 0.4833 0.66377 0.0
C1679 C 0.43182 0.52646 0.68466 0.0
N1680 N 0.47078 0.48733 0.61937 0.0
N1681 N 0.44695 0.52712 0.66648 0.0
H1682 H 0.82468 0.22452 0.96879 0.0
H1683 H 0.72031 0.25976 0.88359 0.0
H1684 H 0.75072 0.18912 0.96526 0.0
H1685 H 0.79346 0.29822 0.88989 0.0
H1686 H 0.72988 0.23946 0.91965 0.0
H1687 H 0.8127 0.25645 0.94567 0.0
C1688 C 0.80591 0.22356 0.96338 0.0
C1689 C 0.78874 0.20378 0.96858 0.0
C1690 C 0.74377 0.25269 0.91346 0.0
C1691 C 0.7749 0.24034 0.94207 0.0
C1692 C 0.73827 0.26439 0.89291 0.0
C1693 C 0.75623 0.28029 0.88336 0.0
C1694 C 0.76744 0.2567 0.92434 0.0
C1695 C 0.77911 0.28583 0.89639 0.0
C1696 C 0.79906 0.24188 0.95024 0.0
C1697 C 0.76465 0.20376 0.96136 0.0
N1698 N 0.78419 0.27363 0.9159 0.0
N1699 N 0.7585 0.22155 0.94821 0.0
H1700 H 0.14171 0.49186 0.19563 0.0
H1701 H 0.01863 0.47627 0.10957 0.0
H1702 H 0.07473 0.45221 0.21396 0.0
H1703 H 0.08713 0.50779 0.08762 0.0
H1704 H 0.03883 0.46662 0.1477 0.0
H1705 H 0.12211 0.49674 0.1553 0.0
C1706 C 0.12294 0.48397 0.19108 0.0
C1707 C 0.10981 0.47177 0.20825 0.0
C1708 C 0.04941 0.47558 0.13447 0.0
C1709 C 0.0872 0.47752 0.16228 0.0
C1710 C 0.03788 0.48117 0.11277 0.0
C1711 C 0.05118 0.49303 0.09549 0.0
C1712 C 0.07438 0.48199 0.13893 0.0
C1713 C 0.07611 0.4988 0.1005 0.0
C1714 C 0.11174 0.4868 0.16806 0.0
C1715 C 0.08554 0.46186 0.20133 0.0
N1716 N 0.08687 0.49332 0.12179 0.0
N1717 N 0.07497 0.46514 0.17896 0.0
H1718 H 0.75533 0.83643 0.48692 0.0
H1719 H 0.79634 0.83493 0.35312 0.0
H1720 H 0.83057 0.84637 0.47877 0.0
H1721 H 0.742 0.77468 0.36698 0.0
H1722 H 0.80681 0.84625 0.39859 0.0
H1723 H 0.7469 0.82037 0.44193 0.0
C1724 C 0.77002 0.83519 0.47566 0.0
C1725 C 0.79366 0.8426 0.48648 0.0
C1726 C 0.79279 0.8304 0.39157 0.0
C1727 C 0.78418 0.82498 0.43535 0.0
C1728 C 0.78684 0.82396 0.36577 0.0
C1729 C 0.7685 0.80373 0.35646 0.0
C1730 C 0.77966 0.8171 0.40804 0.0
C1731 C 0.75649 0.7902 0.37353 0.0
C1732 C 0.76522 0.82596 0.45015 0.0
C1733 C 0.8121 0.84065 0.47113 0.0
N1734 N 0.76199 0.7974 0.3986 0.0
N1735 N 0.80698 0.83239 0.44621 0.0
H1736 H 0.44751 0.49545 0.81404 0.0
H1737 H 0.43883 0.51794 0.96148 0.0
H1738 H 0.39176 0.52603 0.84895 0.0
H1739 H 0.5026 0.50366 0.92933 0.0
H1740 H 0.41809 0.51207 0.91959 0.0
H1741 H 0.4647 0.49005 0.85545 0.0
C1742 C 0.43868 0.5007 0.83033 0.0
C1743 C 0.4182 0.51134 0.82803 0.0
C1744 C 0.43657 0.51003 0.92166 0.0
C1745 C 0.43772 0.50517 0.87525 0.0
C1746 C 0.44844 0.51337 0.94559 0.0
C1747 C 0.4726 0.51171 0.94885 0.0
C1748 C 0.44893 0.50508 0.90078 0.0
C1749 C 0.48402 0.50535 0.9276 0.0
C1750 C 0.44854 0.49765 0.85392 0.0
C1751 C 0.40752 0.51778 0.84974 0.0
N1752 N 0.47213 0.50253 0.90437 0.0
N1753 N 0.41748 0.51472 0.87243 0.0
H1754 H 0.83768 0.20449 0.0793 0.0
H1755 H 0.7408 0.21083 0.17758 0.0
H1756 H 0.77245 0.1508 0.077 0.0
H1757 H 0.8062 0.26504 0.18463 0.0
H1758 H 0.75283 0.1892 0.1403 0.0
H1759 H 0.82778 0.22677 0.11816 0.0
C1760 C 0.82147 0.1972 0.0871 0.0
C1761 C 0.8058 0.17581 0.07476 0.0
C1762 C 0.76462 0.20585 0.14986 0.0
C1763 C 0.7943 0.20132 0.11887 0.0
C1764 C 0.75769 0.21832 0.17118 0.0
C1765 C 0.77255 0.23977 0.18432 0.0
C1766 C 0.78663 0.2148 0.1414 0.0
C1767 C 0.79418 0.2486 0.175 0.0
C1768 C 0.81577 0.21002 0.10917 0.0
C1769 C 0.78501 0.16729 0.08567 0.0
N1770 N 0.80065 0.236 0.15409 0.0
N1771 N 0.77985 0.18012 0.10695 0.0
H1772 H 0.09096 0.52457 0.32105 0.0
H1773 H 0.03523 0.54103 0.43043 0.0
H1774 H 0.14403 0.50079 0.36873 0.0
H1775 H 0.10256 0.53548 0.46882 0.0
H1776 H 0.05276 0.53778 0.39082 0.0
H1777 H 0.07353 0.54019 0.3581 0.0
C1778 C 0.09892 0.52261 0.33935 0.0
C1779 C 0.11882 0.51111 0.34182 0.0
C1780 C 0.06399 0.53795 0.40785 0.0
C1781 C 0.09866 0.52841 0.38436 0.0
C1782 C 0.05388 0.53975 0.43053 0.0
C1783 C 0.06738 0.53812 0.45281 0.0
C1784 C 0.08779 0.53467 0.40764 0.0
C1785 C 0.09141 0.53638 0.45198 0.0
C1786 C 0.08884 0.53141 0.36056 0.0
C1787 C 0.12865 0.50943 0.36591 0.0
N1788 N 0.10074 0.5344 0.42974 0.0
N1789 N 0.11838 0.51783 0.38621 0.0
H1790 H 0.79291 0.79531 0.59814 0.0
H1791 H 0.73482 0.80632 0.72256 0.0
H1792 H 0.74441 0.84615 0.61197 0.0
H1793 H 0.74657 0.73459 0.6896 0.0
H1794 H 0.73833 0.82131 0.68206 0.0
H1795 H 0.77666 0.7722 0.63087 0.0
C1796 C 0.77856 0.80135 0.60771 0.0
C1797 C 0.77022 0.8229 0.60246 0.0
C1798 C 0.73964 0.80212 0.6835 0.0
C1799 C 0.75192 0.7968 0.64015 0.0
C1800 C 0.73762 0.79357 0.70658 0.0
C1801 C 0.74036 0.76921 0.70932 0.0
C1802 C 0.7453 0.78646 0.66321 0.0
C1803 C 0.74424 0.75347 0.68817 0.0
C1804 C 0.76926 0.7881 0.62631 0.0
C1805 C 0.75151 0.82975 0.6154 0.0
N1806 N 0.74716 0.76256 0.66605 0.0
N1807 N 0.74337 0.81709 0.634 0.0
H1808 H 0.69146 0.41361 0.49695 0.0
H1809 H 0.61632 0.49981 0.57438 0.0
H1810 H 0.70932 0.43876 0.5761 0.0
H1811 H 0.61577 0.49094 0.49392 0.0
H1812 H 0.64938 0.47681 0.57661 0.0
H1813 H 0.66121 0.43968 0.4966 0.0
C1814 C 0.68889 0.42446 0.51432 0.0
C1815 C 0.70298 0.42402 0.53657 0.0
C1816 C 0.64217 0.48024 0.55853 0.0
C1817 C 0.66842 0.45415 0.53628 0.0
C1818 C 0.62347 0.49353 0.55728 0.0
C1819 C 0.6132 0.49714 0.53392 0.0
C1820 C 0.65037 0.47042 0.53627 0.0
C1821 C 0.62298 0.48837 0.51232 0.0
C1822 C 0.67174 0.43953 0.51407 0.0
C1823 C 0.69888 0.43859 0.5585 0.0
N1824 N 0.64079 0.47522 0.514 0.0
N1825 N 0.68192 0.45305 0.55783 0.0
H1826 H 0.20785 0.11198 0.49837 0.0
H1827 H 0.09896 0.99591 0.473 0.0
H1828 H 0.21405 0.03974 0.46075 0.0
H1829 H 0.09895 0.06474 0.52108 0.0
H1830 H 0.13961 0.01258 0.46425 0.0
H1831 H 0.16616 0.09597 0.50238 0.0
C1832 C 0.20042 0.09275 0.49082 0.0
C1833 C 0.21453 0.07711 0.47938 0.0
C1834 C 0.13062 0.024 0.47665 0.0
C1835 C 0.16669 0.0586 0.48402 0.0
C1836 C 0.10745 0.01452 0.48162 0.0
C1837 C 0.09559 0.02891 0.49788 0.0
C1838 C 0.14186 0.04805 0.48789 0.0
C1839 C 0.10741 0.05291 0.50854 0.0
C1840 C 0.17659 0.0836 0.49317 0.0
C1841 C 0.20384 0.05241 0.46983 0.0
N1842 N 0.12985 0.06168 0.50336 0.0
N1843 N 0.18054 0.04385 0.47247 0.0
H1844 H 0.19074 0.96871 0.75496 0.0
H1845 H 0.25948 0.86904 0.79929 0.0
H1846 H 0.22293 0.97292 0.83063 0.0
H1847 H 0.24262 0.87362 0.72122 0.0
H1848 H 0.25294 0.91149 0.81 0.0
H1849 H 0.21558 0.93904 0.74087 0.0
C1850 C 0.20334 0.96377 0.76857 0.0
C1851 C 0.20422 0.97277 0.79417 0.0
C1852 C 0.25119 0.90358 0.79044 0.0
C1853 C 0.2326 0.93867 0.77813 0.0
C1854 C 0.25496 0.87937 0.78437 0.0
C1855 C 0.25139 0.86801 0.75943 0.0
C1856 C 0.24296 0.91617 0.77146 0.0
C1857 C 0.24554 0.88194 0.74069 0.0
C1858 C 0.21759 0.94686 0.76047 0.0
C1859 C 0.22123 0.96607 0.81081 0.0
N1860 N 0.2409 0.9052 0.74714 0.0
N1861 N 0.23438 0.94903 0.80258 0.0
H1862 H 0.31996 0.94559 0.97974 0.0
H1863 H 0.45209 0.92041 0.99436 0.0
H1864 H 0.33943 0.87518 0.99104 0.0
H1865 H 0.43437 0.99382 -0.00087 0.0
H1866 H 0.41084 0.90228 0.97876 0.0
H1867 H 0.36126 0.96157 0.97294 0.0
C1868 C 0.33278 0.9333 0.98025 0.0
C1869 C 0.32641 0.90921 0.98662 0.0
C1870 C 0.41605 0.92238 0.98278 0.0
C1871 C 0.37348 0.92732 0.97885 0.0
C1872 C 0.43958 0.93274 0.9917 0.0
C1873 C 0.44641 0.95858 -0.00128 0.0
C1874 C 0.39921 0.93797 0.98119 0.0
C1875 C 0.42968 0.97375 0.99434 0.0
C1876 C 0.35633 0.94245 0.9764 0.0
C1877 C 0.34364 0.89403 0.9868 0.0
N1878 N 0.40665 0.96317 0.98635 0.0
N1879 N 0.36646 0.90346 0.98334 0.0
H1880 H 0.79709 0.5644 0.83342 0.0
H1881 H 0.75789 0.64975 0.73608 0.0
H1882 H 0.82633 0.57043 0.76272 0.0
H1883 H 0.72742 0.64257 0.80594 0.0
H1884 H 0.77689 0.61416 0.74148 0.0
H1885 H 0.76611 0.58661 0.82008 0.0
C1886 C 0.79688 0.57015 0.81497 0.0
C1887 C 0.81468 0.56597 0.79938 0.0
C1888 C 0.7657 0.62005 0.75542 0.0
C1889 C 0.77922 0.59152 0.78402 0.0
C1890 C 0.75475 0.64035 0.7523 0.0
C1891 C 0.74147 0.64951 0.77087 0.0
C1892 C 0.76355 0.60901 0.77739 0.0
C1893 C 0.73778 0.63638 0.79131 0.0
C1894 C 0.77911 0.58279 0.80734 0.0
C1895 C 0.81322 0.57354 0.77554 0.0
N1896 N 0.74917 0.6171 0.79428 0.0
N1897 N 0.79602 0.58626 0.76875 0.0
H1898 H 0.8662 0.62281 0.02288 0.0
H1899 H 0.90573 0.4945 0.03743 0.0
H1900 H 0.81639 0.55757 0.03442 0.0
H1901 H 0.9544 0.56468 0.05921 0.0
H1902 H 0.87269 0.51718 0.03481 0.0
H1903 H 0.89914 0.60215 0.03493 0.0
C1904 C 0.86218 0.60433 0.02826 0.0
C1905 C 0.83851 0.59187 0.0275 0.0
C1906 C 0.89058 0.52757 0.04051 0.0
C1907 C 0.87597 0.56802 0.0408 0.0
C1908 C 0.90942 0.51463 0.04198 0.0
C1909 C 0.93284 0.52769 0.04852 0.0
C1910 C 0.89525 0.55378 0.04506 0.0
C1911 C 0.9366 0.55383 0.05418 0.0
C1912 C 0.88096 0.59256 0.03514 0.0
C1913 C 0.83435 0.56789 0.03465 0.0
N1914 N 0.91805 0.56605 0.05194 0.0
N1915 N 0.85287 0.55663 0.04063 0.0
H1916 H 0.15104 0.08003 0.77963 0.0
H1917 H 0.26103 0.19434 0.80589 0.0
H1918 H 0.20573 0.0883 0.84131 0.0
H1919 H 0.19651 0.19501 0.7593 0.0
H1920 H 0.24268 0.15394 0.8169 0.0
H1921 H 0.16898 0.12089 0.76984 0.0
C1922 C 0.16678 0.09046 0.79118 0.0
C1923 C 0.1769 0.0807 0.81134 0.0
C1924 C 0.23257 0.16298 0.80429 0.0
C1925 C 0.19764 0.12741 0.80005 0.0
C1926 C 0.24306 0.18596 0.79791 0.0
C1927 C 0.2303 0.19801 0.78161 0.0
C1928 C 0.20927 0.15192 0.79408 0.0
C1929 C 0.20702 0.18637 0.77192 0.0
C1930 C 0.17699 0.11381 0.78559 0.0
C1931 C 0.19727 0.09512 0.82566 0.0
N1932 N 0.1973 0.16394 0.77823 0.0
N1933 N 0.20707 0.11769 0.81964 0.0
H1934 H 0.3347 0.96588 0.33735 0.0
H1935 H 0.32324 0.84442 0.23596 0.0
H1936 H 0.37415 0.96293 0.27251 0.0
H1937 H 0.27426 0.8512 0.29206 0.0
H1938 H 0.34369 0.88707 0.25087 0.0
H1939 H 0.31414 0.92298 0.32296 0.0
C1940 C 0.33913 0.95621 0.32016 0.0
C1941 C 0.35619 0.96809 0.30611 0.0
C1942 C 0.32843 0.87928 0.25989 0.0
C1943 C 0.33268 0.91902 0.28956 0.0
C1944 C 0.31674 0.8549 0.2514 0.0
C1945 C 0.29699 0.84424 0.26276 0.0
C1946 C 0.32045 0.89311 0.28005 0.0
C1947 C 0.28937 0.85873 0.28269 0.0
C1948 C 0.32731 0.93176 0.31192 0.0
C1949 C 0.36111 0.95462 0.28394 0.0
N1950 N 0.30117 0.88243 0.29077 0.0
N1951 N 0.34944 0.93083 0.27639 0.0
H1952 H 0.4762 0.31572 0.55235 0.0
H1953 H 0.57424 0.43875 0.56877 0.0
H1954 H 0.54623 0.32453 0.59197 0.0
H1955 H 0.50583 0.4311 0.52631 0.0
H1956 H 0.56693 0.39401 0.56987 0.0
H1957 H 0.48928 0.35416 0.53491 0.0
C1958 C 0.49449 0.32539 0.55693 0.0
C1959 C 0.50997 0.31724 0.57419 0.0
C1960 C 0.55355 0.40194 0.56004 0.0
C1961 C 0.52491 0.3613 0.55447 0.0
C1962 C 0.55769 0.42752 0.55952 0.0
C1963 C 0.54035 0.43857 0.54791 0.0
C1964 C 0.53167 0.38731 0.54934 0.0
C1965 C 0.5195 0.4232 0.53568 0.0
C1966 C 0.50191 0.3474 0.54701 0.0
C1967 C 0.53351 0.3304 0.57921 0.0
N1968 N 0.51549 0.39831 0.53714 0.0
N1969 N 0.54012 0.35198 0.56974 0.0
H1970 H 0.4386 0.77074 0.33004 0.0
H1971 H 0.30268 0.72121 0.28284 0.0
H1972 H 0.40005 0.70419 0.35344 0.0
H1973 H 0.32914 0.79963 0.30714 0.0
H1974 H 0.34107 0.7123 0.29913 0.0
H1975 H 0.40075 0.77956 0.31221 0.0
C1976 C 0.42217 0.75797 0.33131 0.0
C1977 C 0.4223 0.73676 0.34322 0.0
C1978 C 0.33841 0.73143 0.30072 0.0
C1979 C 0.37942 0.7464 0.32252 0.0
C1980 C 0.3167 0.73653 0.29131 0.0
C1981 C 0.3129 0.76116 0.29376 0.0
C1982 C 0.3565 0.75118 0.31196 0.0
C1983 C 0.33146 0.78039 0.30507 0.0
C1984 C 0.4007 0.76305 0.32125 0.0
C1985 C 0.40059 0.72082 0.34451 0.0
N1986 N 0.35261 0.77502 0.31362 0.0
N1987 N 0.37996 0.72582 0.33402 0.0
H1988 H 0.03638 0.71209 0.14195 0.0
H1989 H 0.02546 0.59383 0.03703 0.0
H1990 H 0.99121 0.70051 0.07219 0.0
H1991 H 0.04655 0.59326 0.11529 0.0
H1992 H 0.02414 0.63819 0.04621 0.0
H1993 H 0.05059 0.67358 0.12869 0.0
C1994 C 0.02968 0.70165 0.12371 0.0
C1995 C 0.01229 0.70933 0.10829 0.0
C1996 C 0.0295 0.62843 0.06126 0.0
C1997 C 0.02869 0.66547 0.09301 0.0
C1998 C 0.03045 0.60316 0.05603 0.0
C1999 C 0.03573 0.58975 0.07554 0.0
C2000 C 0.03412 0.64036 0.08608 0.0
C2001 C 0.04206 0.60284 0.09977 0.0
C2002 C 0.0378 0.67968 0.11621 0.0
C2003 C 0.00434 0.69509 0.08483 0.0
N2004 N 0.0408 0.62739 0.10443 0.0
N2005 N 0.01251 0.67376 0.07796 0.0
H2006 H 0.05226 0.26988 0.85166 0.0
H2007 H 0.17002 0.21741 0.82281 0.0
H2008 H 0.06082 0.19417 0.85679 0.0
H2009 H 0.15576 0.2857 0.79856 0.0
H2010 H 0.13119 0.21053 0.83857 0.0
H2011 H 0.09136 0.278 0.83565 0.0
C2012 C 0.0624 0.25502 0.84957 0.0
C2013 C 0.05327 0.23129 0.85558 0.0
C2014 C 0.13645 0.22701 0.82977 0.0
C2015 C 0.09785 0.24048 0.83728 0.0
C2016 C 0.15869 0.23101 0.8208 0.0
C2017 C 0.16616 0.25222 0.80939 0.0
C2018 C 0.12151 0.24442 0.82758 0.0
C2019 C 0.15062 0.26908 0.80717 0.0
C2020 C 0.08462 0.25964 0.8403 0.0
C2021 C 0.06711 0.21272 0.85238 0.0
N2022 N 0.129 0.26489 0.81634 0.0
N2023 N 0.0887 0.21773 0.84351 0.0
H2024 H 0.53923 0.70808 0.92626 0.0
H2025 H 0.49883 0.60578 0.01517 0.0
H2026 H 0.47623 0.70518 0.96559 0.0
H2027 H 0.55996 0.60753 0.9731 0.0
H2028 H 0.49339 0.64572 0.00214 0.0
H2029 H 0.55025 0.67493 0.9482 0.0
C2030 C 0.52784 0.70071 0.93971 0.0
C2031 C 0.50659 0.70927 0.94378 0.0
C2032 C 0.50814 0.63747 0.996 0.0
C2033 C 0.51903 0.67108 0.96888 0.0
C2034 C 0.51129 0.61472 0.0035 0.0
C2035 C 0.52968 0.60315 0.99496 0.0
C2036 C 0.52352 0.64869 0.97987 0.0
C2037 C 0.54533 0.61559 0.97988 0.0
C2038 C 0.53412 0.68171 0.95222 0.0
C2039 C 0.49265 0.69904 0.9616 0.0
N2040 N 0.54177 0.63753 0.97266 0.0
N2041 N 0.49898 0.68033 0.97327 0.0
H2042 H 0.06785 0.78666 0.64481 0.0
H2043 H 0.17736 0.76143 0.73298 0.0
H2044 H 0.05904 0.74479 0.70697 0.0
H2045 H 0.18527 0.80068 0.66891 0.0
H2046 H 0.13408 0.75373 0.72303 0.0
H2047 H 0.11093 0.79066 0.65268 0.0
C2048 C 0.07496 0.77824 0.6601 0.0
C2049 C 0.05976 0.76546 0.67533 0.0
C2050 C 0.1453 0.76392 0.71108 0.0
C2051 C 0.10924 0.77004 0.68449 0.0
C2052 C 0.17002 0.76831 0.71674 0.0
C2053 C 0.18499 0.78182 0.70182 0.0
C2054 C 0.13545 0.77316 0.69039 0.0
C2055 C 0.17446 0.79025 0.681 0.0
C2056 C 0.0996 0.78052 0.66457 0.0
C2057 C 0.07005 0.75486 0.69478 0.0
N2058 N 0.15037 0.78588 0.67599 0.0
N2059 N 0.09415 0.75748 0.69887 0.0
H2060 H 0.02673 0.3429 0.42209 0.0
H2061 H 0.01924 0.43876 0.54414 0.0
H2062 H 0.98545 0.32323 0.48253 0.0
H2063 H 0.03405 0.46173 0.47264 0.0
H2064 H 0.01647 0.39518 0.5256 0.0
H2065 H 0.03877 0.38549 0.44436 0.0
C2066 C 0.02042 0.34743 0.44015 0.0
C2067 C 0.00483 0.32955 0.45033 0.0
C2068 C 0.02065 0.40984 0.51412 0.0
C2069 C 0.01874 0.37807 0.47594 0.0
C2070 C 0.0224 0.43469 0.52471 0.0
C2071 C 0.02655 0.45385 0.5098 0.0
C2072 C 0.02352 0.4042 0.4886 0.0
C2073 C 0.03049 0.44749 0.48471 0.0
C2074 C 0.02725 0.37174 0.45279 0.0
C2075 C 0.99724 0.3365 0.47382 0.0
N2076 N 0.02876 0.42321 0.47486 0.0
N2077 N 0.00422 0.36021 0.48581 0.0
H2078 H 0.40748 0.26243 0.14396 0.0
H2079 H 0.32941 0.24113 0.258 0.0
H2080 H 0.43841 0.25005 0.21559 0.0
H2081 H 0.30041 0.22782 0.18045 0.0
H2082 H 0.36974 0.24994 0.24453 0.0
H2083 H 0.3682 0.25486 0.1587 0.0
C2084 C 0.40605 0.2579 0.16273 0.0
C2085 C 0.42632 0.25658 0.17843 0.0
C2086 C 0.35448 0.24511 0.23055 0.0
C2087 C 0.3812 0.24838 0.19568 0.0
C2088 C 0.33153 0.24026 0.23821 0.0
C2089 C 0.31161 0.23364 0.22029 0.0
C2090 C 0.35735 0.24369 0.20487 0.0
C2091 C 0.31529 0.23267 0.19489 0.0
C2092 C 0.38355 0.25366 0.17118 0.0
C2093 C 0.42324 0.25103 0.20277 0.0
N2094 N 0.33768 0.23769 0.18796 0.0
N2095 N 0.40108 0.24723 0.21072 0.0
H2096 H 0.62945 0.51632 0.37798 0.0
H2097 H 0.51042 0.49384 0.4434 0.0
H2098 H 0.56061 0.50145 0.33495 0.0
H2099 H 0.57567 0.53982 0.48056 0.0
H2100 H 0.5283 0.49339 0.40361 0.0
H2101 H 0.61008 0.52188 0.4163 0.0
C2102 C 0.61028 0.51428 0.37657 0.0
C2103 C 0.59662 0.50829 0.35328 0.0
C2104 C 0.53855 0.50372 0.4205 0.0
C2105 C 0.57429 0.5144 0.39707 0.0
C2106 C 0.52842 0.50391 0.44318 0.0
C2107 C 0.54165 0.51667 0.46536 0.0
C2108 C 0.56215 0.51603 0.42017 0.0
C2109 C 0.56484 0.52958 0.46398 0.0
C2110 C 0.59922 0.51759 0.39846 0.0
C2111 C 0.57179 0.50614 0.35259 0.0
N2112 N 0.57445 0.52867 0.44183 0.0
N2113 N 0.56134 0.50888 0.37423 0.0
H2114 H 0.22455 0.84148 0.06758 0.0
H2115 H 0.26627 0.76091 0.16917 0.0
H2116 H 0.27998 0.79799 0.05871 0.0
H2117 H 0.20959 0.80284 0.17677 0.0
H2118 H 0.26718 0.76869 0.12568 0.0
H2119 H 0.21422 0.82178 0.10426 0.0
C2120 C 0.23432 0.82752 0.07309 0.0
C2121 C 0.25349 0.82178 0.06032 0.0
C2122 C 0.25434 0.77592 0.13678 0.0
C2123 C 0.24193 0.79936 0.10248 0.0
C2124 C 0.25382 0.77147 0.1616 0.0
C2125 C 0.23815 0.78164 0.17672 0.0
C2126 C 0.23915 0.79072 0.12712 0.0
C2127 C 0.22227 0.79501 0.16591 0.0
C2128 C 0.22844 0.8163 0.09409 0.0
C2129 C 0.26533 0.80334 0.0682 0.0
N2130 N 0.22338 0.79942 0.14187 0.0
N2131 N 0.25959 0.79308 0.08899 0.0
H2132 H 0.9014 0.5452 0.88773 0.0
H2133 H 0.02683 0.52431 0.94892 0.0
H2134 H 0.95715 0.52627 0.84391 0.0
H2135 H 0.9634 0.52012 0.98754 0.0
H2136 H 0.00362 0.53144 0.9112 0.0
H2137 H 0.92602 0.54203 0.92576 0.0
C2138 C 0.91875 0.5403 0.88609 0.0
C2139 C 0.92711 0.53571 0.86261 0.0
C2140 C 0.99489 0.52902 0.92802 0.0
C2141 C 0.9555 0.53246 0.90598 0.0
C2142 C 0.00813 0.5251 0.9495 0.0
C2143 C 0.99694 0.5214 0.97122 0.0
C2144 C 0.97048 0.52959 0.92854 0.0
C2145 C 0.97265 0.52255 0.97105 0.0
C2146 C 0.93282 0.53855 0.90779 0.0
C2147 C 0.9499 0.52972 0.86162 0.0
N2148 N 0.96024 0.52654 0.95006 0.0
N2149 N 0.96333 0.52829 0.88301 0.0
H2150 H 0.31374 0.21198 0.5706 0.0
H2151 H 0.24581 0.174 0.68551 0.0
H2152 H 0.26266 0.14326 0.56534 0.0
H2153 H 0.27055 0.25107 0.67747 0.0
H2154 H 0.25254 0.16192 0.64191 0.0
H2155 H 0.29958 0.22645 0.61045 0.0
C2156 C 0.29947 0.19999 0.57771 0.0
C2157 C 0.28947 0.17631 0.56461 0.0
C2158 C 0.25611 0.18151 0.64955 0.0
C2159 C 0.27336 0.19269 0.61028 0.0
C2160 C 0.25221 0.18841 0.6744 0.0
C2161 C 0.25757 0.21355 0.6851 0.0
C2162 C 0.26603 0.19983 0.63549 0.0
C2163 C 0.266 0.23147 0.66992 0.0
C2164 C 0.29132 0.20833 0.60039 0.0
C2165 C 0.27093 0.16165 0.57474 0.0
N2166 N 0.27038 0.22423 0.64601 0.0
N2167 N 0.2637 0.16994 0.59708 0.0
H2168 H 0.63512 0.49495 0.20567 0.0
H2169 H 0.54017 0.50774 0.09514 0.0
H2170 H 0.57311 0.52761 0.21834 0.0
H2171 H 0.61096 0.49502 0.08329 0.0
H2172 H 0.55154 0.51475 0.14033 0.0
H2173 H 0.62625 0.49425 0.16068 0.0
C2174 C 0.61968 0.50206 0.19899 0.0
C2175 C 0.60473 0.5112 0.21575 0.0
C2176 C 0.56463 0.51065 0.12782 0.0
C2177 C 0.59443 0.51033 0.16429 0.0
C2178 C 0.55815 0.50659 0.10204 0.0
C2179 C 0.5746 0.50061 0.08545 0.0
C2180 C 0.58763 0.5084 0.13706 0.0
C2181 C 0.59768 0.49951 0.0954 0.0
C2182 C 0.61469 0.50175 0.17331 0.0
C2183 C 0.58508 0.52035 0.20607 0.0
N2184 N 0.60344 0.50311 0.12058 0.0
N2185 N 0.58036 0.51947 0.18093 0.0
H2186 H 0.23926 0.86247 0.92815 0.0
H2187 H 0.23041 0.74657 0.82082 0.0
H2188 H 0.25713 0.79252 0.94369 0.0
H2189 H 0.25485 0.82325 0.8109 0.0
H2190 H 0.22648 0.76063 0.86506 0.0
H2191 H 0.22986 0.84493 0.88379 0.0
C2192 C 0.24049 0.8432 0.92236 0.0
C2193 C 0.24924 0.82898 0.93945 0.0
C2194 C 0.23229 0.77428 0.85293 0.0
C2195 C 0.23854 0.80895 0.88908 0.0
C2196 C 0.23455 0.76633 0.82779 0.0
C2197 C 0.24299 0.78378 0.81217 0.0
C2198 C 0.23795 0.79984 0.86218 0.0
C2199 C 0.24822 0.80915 0.82219 0.0
C2200 C 0.23532 0.8333 0.89709 0.0
C2201 C 0.2507 0.80416 0.93096 0.0
N2202 N 0.24558 0.81641 0.84653 0.0
N2203 N 0.2456 0.79494 0.90627 0.0
H2204 H 0.95579 0.53251 0.74082 0.0
H2205 H 0.9179 0.50249 0.59476 0.0
H2206 H 0.88209 0.51814 0.70998 0.0
H2207 H 0.9866 0.49551 0.62895 0.0
H2208 H 0.90388 0.50765 0.6363 0.0
H2209 H 0.96716 0.51937 0.69958 0.0
C2210 C 0.94196 0.52661 0.72533 0.0
C2211 C 0.91796 0.5266 0.72879 0.0
C2212 C 0.92191 0.50465 0.63467 0.0
C2213 C 0.93092 0.51146 0.68142 0.0
C2214 C 0.92994 0.50171 0.61098 0.0
C2215 C 0.95354 0.49886 0.60844 0.0
C2216 C 0.93771 0.50506 0.65593 0.0
C2217 C 0.96831 0.4978 0.63004 0.0
C2218 C 0.94848 0.51892 0.70181 0.0
C2219 C 0.90082 0.51851 0.70808 0.0
N2220 N 0.96024 0.50126 0.65292 0.0
N2221 N 0.90766 0.51146 0.68516 0.0
H2222 H 0.32364 0.21271 0.44589 0.0
H2223 H 0.23026 0.20055 0.32524 0.0
H2224 H 0.25591 0.1618 0.43357 0.0
H2225 H 0.29398 0.25731 0.34026 0.0
H2226 H 0.23904 0.1872 0.36567 0.0
H2227 H 0.3126 0.23072 0.40851 0.0
C2228 C 0.30634 0.20548 0.43554 0.0
C2229 C 0.29078 0.18552 0.44287 0.0
C2230 C 0.25108 0.20266 0.36023 0.0
C2231 C 0.27815 0.20594 0.39986 0.0
C2232 C 0.24612 0.21025 0.33705 0.0
C2233 C 0.2615 0.22999 0.32921 0.0
C2234 C 0.2717 0.21473 0.37577 0.0
C2235 C 0.28166 0.24196 0.34549 0.0
C2236 C 0.30008 0.21576 0.41414 0.0
C2237 C 0.26859 0.17703 0.42865 0.0
N2238 N 0.28626 0.23404 0.36793 0.0
N2239 N 0.26307 0.18712 0.40778 0.0
H2240 H 0.3118 0.56183 0.53608 0.0
H2241 H 0.43228 0.53263 0.48484 0.0
H2242 H 0.34731 0.60188 0.48163 0.0
H2243 H 0.41096 0.5154 0.55644 0.0
H2244 H 0.39713 0.55174 0.4788 0.0
H2245 H 0.34472 0.53921 0.53983 0.0
C2246 C 0.32658 0.56592 0.52498 0.0
C2247 C 0.32692 0.58382 0.50859 0.0
C2248 C 0.40007 0.54355 0.4957 0.0
C2249 C 0.36434 0.55771 0.51248 0.0
C2250 C 0.41995 0.5324 0.49905 0.0
C2251 C 0.42452 0.52247 0.52122 0.0
C2252 C 0.38457 0.54446 0.51451 0.0
C2253 C 0.40811 0.52294 0.53913 0.0
C2254 C 0.34531 0.55299 0.52712 0.0
C2255 C 0.34646 0.58835 0.49462 0.0
N2256 N 0.38886 0.53382 0.53541 0.0
N2257 N 0.36437 0.57526 0.49678 0.0
H2258 H 0.86866 0.89201 0.55857 0.0
H2259 H 0.96007 0.0165 0.54785 0.0
H2260 H 0.84525 0.96082 0.54835 0.0
H2261 H 0.97313 0.94315 0.52195 0.0
H2262 H 0.91981 0.99741 0.55617 0.0
H2263 H 0.9093 0.91163 0.55294 0.0
C2264 C 0.87203 0.91122 0.55519 0.0
C2265 C 0.85351 0.92474 0.55374 0.0
C2266 C 0.93159 0.98558 0.54874 0.0
C2267 C 0.89996 0.94738 0.54775 0.0
C2268 C 0.95453 0.99642 0.54414 0.0
C2269 C 0.96982 0.98136 0.53411 0.0
C2270 C 0.92423 0.95955 0.54375 0.0
C2271 C 0.96179 0.95543 0.5295 0.0
C2272 C 0.89521 0.92238 0.55194 0.0
C2273 C 0.85898 0.94965 0.54936 0.0
N2274 N 0.93958 0.94533 0.53446 0.0
N2275 N 0.88176 0.96024 0.54666 0.0
H2276 H 0.83892 0.06572 0.2246 0.0
H2277 H 0.75276 0.1557 0.27305 0.0
H2278 H 0.80479 0.0612 0.29276 0.0
H2279 H 0.78625 0.15949 0.2045 0.0
H2280 H 0.76521 0.11581 0.27634 0.0
H2281 H 0.81344 0.09444 0.21265 0.0
C2282 C 0.82581 0.0704 0.23686 0.0
C2283 C 0.82441 0.06147 0.26 0.0
C2284 C 0.76952 0.12519 0.26037 0.0
C2285 C 0.79536 0.09455 0.24656 0.0
C2286 C 0.76236 0.14794 0.25847 0.0
C2287 C 0.76893 0.16117 0.23877 0.0
C2288 C 0.78341 0.11574 0.2425 0.0
C2289 C 0.78122 0.15016 0.22029 0.0
C2290 C 0.81128 0.08686 0.23005 0.0
C2291 C 0.80688 0.068 0.27498 0.0
N2292 N 0.78837 0.12828 0.2228 0.0
N2293 N 0.79333 0.08445 0.26819 0.0
H2294 H 0.71437 0.07433 0.04861 0.0
H2295 H 0.58647 0.11229 0.03153 0.0
H2296 H 0.70109 0.13608 0.011 0.0
H2297 H 0.59599 0.03696 0.03711 0.0
H2298 H 0.62981 0.12563 0.035 0.0
H2299 H 0.67208 0.06488 0.055 0.0
C2300 C 0.70261 0.08605 0.04192 0.0
C2301 C 0.71115 0.10585 0.029 0.0
C2302 C 0.62236 0.10626 0.03578 0.0
C2303 C 0.663 0.0953 0.03652 0.0
C2304 C 0.59767 0.09865 0.03397 0.0
C2305 C 0.58768 0.07343 0.03377 0.0
C2306 C 0.63706 0.08857 0.03777 0.0
C2307 C 0.60302 0.05654 0.03692 0.0
C2308 C 0.67852 0.0806 0.04554 0.0
C2309 C 0.69516 0.12046 0.02079 0.0
N2310 N 0.62699 0.0644 0.03867 0.0
N2311 N 0.6718 0.11486 0.02465 0.0
H2312 H 0.2091 0.44879 0.25124 0.0
H2313 H 0.27715 0.35751 0.23772 0.0
H2314 H 0.23665 0.46205 0.32933 0.0
H2315 H 0.26517 0.35444 0.31516 0.0
H2316 H 0.26792 0.39952 0.24164 0.0
H2317 H 0.23435 0.41783 0.24377 0.0
C2318 C 0.22088 0.44566 0.2667 0.0
C2319 C 0.22038 0.45772 0.29104 0.0
C2320 C 0.26751 0.38971 0.2578 0.0
C2321 C 0.24953 0.42245 0.28259 0.0
C2322 C 0.27306 0.36586 0.25569 0.0
C2323 C 0.27138 0.35229 0.27602 0.0
C2324 C 0.26035 0.39993 0.28043 0.0
C2325 C 0.2662 0.36408 0.29889 0.0
C2326 C 0.2355 0.4281 0.26237 0.0
C2327 C 0.23616 0.453 0.3103 0.0
N2328 N 0.26061 0.38715 0.3004 0.0
N2329 N 0.24965 0.4353 0.30577 0.0
H2330 H 0.19878 0.39658 0.04914 0.0
H2331 H 0.12382 0.49436 0.0001 0.0
H2332 H 0.22856 0.45426 0.00708 0.0
H2333 H 0.09653 0.43538 0.04181 0.0
H2334 H 0.16174 0.47917 5e-05 0.0
H2335 H 0.16045 0.40963 0.0442 0.0
C2336 C 0.19724 0.41194 0.03876 0.0
C2337 C 0.21698 0.42442 0.02864 0.0
C2338 C 0.14735 0.46955 0.00908 0.0
C2339 C 0.17299 0.43965 0.02299 0.0
C2340 C 0.12574 0.47819 0.00909 0.0
C2341 C 0.10704 0.46626 0.02113 0.0
C2342 C 0.15014 0.44885 0.02116 0.0
C2343 C 0.11047 0.44536 0.03246 0.0
C2344 C 0.1753 0.41943 0.03593 0.0
C2345 C 0.21383 0.44414 0.01526 0.0
N2346 N 0.13154 0.43743 0.03226 0.0
N2347 N 0.19228 0.45127 0.01294 0.0
H2348 H 0.85658 0.94589 0.31545 0.0
H2349 H 0.75928 0.8367 0.24149 0.0
H2350 H 0.83224 0.95039 0.239 0.0
H2351 H 0.81601 0.82389 0.29273 0.0
H2352 H 0.7808 0.87989 0.24239 0.0
H2353 H 0.8367 0.90226 0.30993 0.0
C2354 C 0.84711 0.93756 0.29742 0.0
C2355 C 0.84608 0.9516 0.2776 0.0
C2356 C 0.78849 0.86741 0.25319 0.0
C2357 C 0.82287 0.90188 0.27132 0.0
C2358 C 0.7762 0.84293 0.25284 0.0
C2359 C 0.78586 0.82672 0.26708 0.0
C2360 C 0.81016 0.8757 0.26836 0.0
C2361 C 0.8079 0.83566 0.28138 0.0
C2362 C 0.83583 0.9127 0.29428 0.0
C2363 C 0.83357 0.94 0.25462 0.0
N2364 N 0.81913 0.85957 0.28187 0.0
N2365 N 0.8221 0.91575 0.25214 0.0
H2366 H 0.64311 0.06204 0.76964 0.0
H2367 H 0.73938 0.18843 0.80006 0.0
H2368 H 0.70678 0.07029 0.82042 0.0
H2369 H 0.66405 0.18759 0.78566 0.0
H2370 H 0.73091 0.14281 0.79622 0.0
H2371 H 0.65427 0.1061 0.76401 0.0
C2372 C 0.65967 0.07298 0.77915 0.0
C2373 C 0.674 0.06268 0.79565 0.0
C2374 C 0.71631 0.15267 0.79366 0.0
C2375 C 0.68683 0.11263 0.78917 0.0
C2376 C 0.72109 0.17863 0.79578 0.0
C2377 C 0.70233 0.19177 0.79347 0.0
C2378 C 0.69267 0.13978 0.78873 0.0
C2379 C 0.67899 0.17816 0.78789 0.0
C2380 C 0.66591 0.09807 0.77607 0.0
C2381 C 0.69517 0.07765 0.80771 0.0
N2382 N 0.67479 0.15284 0.78573 0.0
N2383 N 0.70095 0.10192 0.80425 0.0
loop_
_geom_bond_atom_site_label_1
_geom_bond_atom_site_label_2
_geom_bond_distance
_geom_bond_site_symmetry_2
_ccdc_geom_bond_type
Mg0 O1 2.028 . S
Mg0 O7 1.986 . S
Mg0 O9 2.108 1_455 S
Mg0 O10 2.251 1_455 S
Mg0 O13 2.010 . S
O1 Mg0 2.028 . S
O1 C4 1.250 . S
O2 Mg3 2.028 1_455 S
O2 C4 1.248 . S
Mg3 O2 2.028 1_655 S
Mg3 O8 2.032 . S
Mg3 O10 2.079 . S
C4 O1 1.250 . S
C4 O2 1.248 . S
C5 O6 1.264 . S
C5 O13 1.249 . S
O6 C5 1.264 . S
O7 Mg0 1.986 . S
O7 C11 1.246 . S
O8 Mg3 2.032 . S
O8 C11 1.259 1_655 S
O9 Mg0 2.108 1_655 S
O9 C12 1.260 . S
O10 Mg0 2.251 1_655 S
O10 Mg3 2.079 . S
O10 C12 1.273 . S
C11 O7 1.246 . S
C11 O8 1.259 1_455 S
C12 O9 1.260 . S
C12 O10 1.273 . S
O13 Mg0 2.010 . S
O13 C5 1.249 . S
Mg14 O15 2.028 . S
Mg14 O21 1.986 . S
Mg14 O23 2.114 1_455 S
Mg14 O24 2.251 1_455 S
Mg14 O27 2.010 . S
O15 Mg14 2.028 . S
O15 C18 1.250 1_455 S
O16 Mg17 2.028 . S
O16 C18 1.248 . S
Mg17 O16 2.028 . S
Mg17 O22 2.032 . S
Mg17 O24 2.079 . S
C18 O15 1.250 1_655 S
C18 O16 1.248 . S
C19 O20 1.264 . S
C19 O27 1.249 . S
O20 C19 1.264 . S
O21 Mg14 1.986 . S
O21 C25 1.246 . S
O22 Mg17 2.032 . S
O22 C25 1.259 1_655 S
O23 Mg14 2.114 1_655 S
O23 C26 1.252 . S
O24 Mg14 2.251 1_655 S
O24 Mg17 2.079 . S
O24 C26 1.273 . S
C25 O21 1.246 . S
C25 O22 1.259 1_455 S
C26 O23 1.252 . S
C26 O24 1.273 . S
O27 Mg14 2.010 . S
O27 C19 1.249 . S
Mg28 O29 2.028 . S
Mg28 O35 1.986 . S
Mg28 O37 2.114 . S
Mg28 O38 2.251 . S
Mg28 O41 2.010 . S
O29 Mg28 2.028 . S
O29 C32 1.250 . S
O30 Mg31 2.028 . S
O30 C32 1.248 . S
Mg31 O30 2.028 . S
Mg31 O36 2.032 . S
Mg31 O38 2.079 . S
C32 O29 1.250 . S
C32 O30 1.248 . S
C33 O34 1.264 . S
C33 O41 1.249 . S
O34 C33 1.264 . S
O35 Mg28 1.986 . S
O35 C39 1.246 . S
O36 Mg31 2.032 . S
O36 C39 1.259 . S
O37 Mg28 2.114 . S
O37 C40 1.252 . S
O38 Mg28 2.251 . S
O38 Mg31 2.079 . S
O38 C40 1.273 . S
C39 O35 1.246 . S
C39 O36 1.259 . S
C40 O37 1.252 . S
C40 O38 1.273 . S
O41 Mg28 2.010 . S
O41 C33 1.249 . S
Mg42 O43 2.028 . S
Mg42 O49 1.986 . S
Mg42 O51 2.114 . S
Mg42 O52 2.251 . S
Mg42 O55 2.010 . S
O43 Mg42 2.028 . S
O43 C46 1.250 . S
O44 Mg45 2.028 . S
O44 C46 1.248 . S
Mg45 O44 2.028 . S
Mg45 O50 2.032 . S
Mg45 O52 2.079 . S
C46 O43 1.250 . S
C46 O44 1.248 . S
C47 O48 1.264 . S
C47 O55 1.249 . S
O48 C47 1.264 . S
O49 Mg42 1.986 . S
O49 C53 1.246 . S
O50 Mg45 2.032 . S
O50 C53 1.259 . S
O51 Mg42 2.114 . S
O51 C54 1.252 . S
O52 Mg42 2.251 . S
O52 Mg45 2.079 . S
O52 C54 1.273 . S
C53 O49 1.246 . S
C53 O50 1.259 . S
C54 O51 1.252 . S
C54 O52 1.273 . S
O55 Mg42 2.010 . S
O55 C47 1.249 . S
Mg56 O57 2.028 . S
Mg56 O63 1.986 . S
Mg56 O65 2.114 . S
Mg56 O66 2.251 1_455 S
Mg56 O69 2.010 . S
O57 Mg56 2.028 . S
O57 C60 1.250 . S
O58 Mg59 2.028 1_455 S
O58 C60 1.248 . S
Mg59 O58 2.028 1_655 S
Mg59 O64 2.032 1_655 S
Mg59 O66 2.079 . S
C60 O57 1.250 . S
C60 O58 1.248 . S
C61 O62 1.264 . S
C61 O69 1.249 . S
O62 C61 1.264 . S
O63 Mg56 1.986 . S
O63 C67 1.246 . S
O64 Mg59 2.032 1_455 S
O64 C67 1.259 . S
O65 Mg56 2.114 . S
O65 C68 1.252 1_455 S
O66 Mg56 2.251 1_655 S
O66 Mg59 2.079 . S
O66 C68 1.273 . S
C67 O63 1.246 . S
C67 O64 1.259 . S
C68 O65 1.252 1_655 S
C68 O66 1.273 . S
O69 Mg56 2.010 . S
O69 C61 1.249 . S
Mg70 O71 2.028 . S
Mg70 O77 1.986 . S
Mg70 O79 2.114 . S
Mg70 O80 2.251 . S
Mg70 O83 2.010 . S
O71 Mg70 2.028 . S
O71 C74 1.250 . S
O72 Mg73 2.028 . S
O72 C74 1.248 . S
Mg73 O72 2.028 . S
Mg73 O78 2.032 . S
Mg73 O80 2.079 . S
C74 O71 1.250 . S
C74 O72 1.248 . S
C75 O76 1.264 . S
C75 O83 1.249 . S
O76 C75 1.264 . S
O77 Mg70 1.986 . S
O77 C81 1.246 . S
O78 Mg73 2.032 . S
O78 C81 1.259 . S
O79 Mg70 2.114 . S
O79 C82 1.252 . S
O80 Mg70 2.251 . S
O80 Mg73 2.079 . S
O80 C82 1.273 . S
C81 O77 1.246 . S
C81 O78 1.259 . S
C82 O79 1.252 . S
C82 O80 1.273 . S
O83 Mg70 2.010 . S
O83 C75 1.249 . S
Mg84 O85 2.028 . S
Mg84 O91 1.986 . S
Mg84 O93 2.114 . S
Mg84 O94 2.251 . S
Mg84 O97 2.010 . S
O85 Mg84 2.028 . S
O85 C88 1.250 . S
O86 Mg87 2.028 . S
O86 C88 1.248 . S
Mg87 O86 2.028 . S
Mg87 O92 2.032 . S
Mg87 O94 2.079 . S
C88 O85 1.250 . S
C88 O86 1.248 . S
C89 O90 1.264 . S
C89 O97 1.249 . S
O90 C89 1.264 . S
O91 Mg84 1.986 . S
O91 C95 1.246 . S
O92 Mg87 2.032 . S
O92 C95 1.259 . S
O93 Mg84 2.114 . S
O93 C96 1.252 . S
O94 Mg84 2.251 . S
O94 Mg87 2.079 . S
O94 C96 1.273 . S
C95 O91 1.246 . S
C95 O92 1.259 . S
C96 O93 1.252 . S
C96 O94 1.273 . S
O97 Mg84 2.010 . S
O97 C89 1.249 . S
Mg98 O99 2.028 1_655 S
Mg98 O105 1.986 1_655 S
Mg98 O107 2.114 . S
Mg98 O108 2.251 . S
Mg98 O111 2.010 1_655 S
O99 Mg98 2.028 1_455 S
O99 C102 1.250 1_455 S
O100 Mg101 2.028 . S
O100 C102 1.248 . S
Mg101 O100 2.028 . S
Mg101 O106 2.032 . S
Mg101 O108 2.079 . S
C102 O99 1.250 1_655 S
C102 O100 1.248 . S
C103 O104 1.264 . S
C103 O111 1.249 . S
O104 C103 1.264 . S
O105 Mg98 1.986 1_455 S
O105 C109 1.246 1_455 S
O106 Mg101 2.032 . S
O106 C109 1.259 . S
O107 Mg98 2.114 . S
O107 C110 1.252 . S
O108 Mg98 2.251 . S
O108 Mg101 2.079 . S
O108 C110 1.273 . S
C109 O105 1.246 1_655 S
C109 O106 1.259 . S
C110 O107 1.252 . S
C110 O108 1.273 . S
O111 Mg98 2.010 1_455 S
O111 C103 1.249 . S
Mg112 O113 2.061 . S
Mg112 O119 1.986 . S
Mg112 O121 2.114 . S
Mg112 O122 2.251 . S
Mg112 O125 2.010 . S
O113 Mg112 2.061 . S
O113 C116 1.231 1_545 S
O114 Mg115 2.028 1_565 S
O114 C116 1.248 . S
Mg115 O114 2.028 1_545 S
Mg115 O120 2.032 . S
Mg115 O122 2.079 . S
C116 O113 1.231 1_565 S
C116 O114 1.248 . S
C117 O118 1.264 . S
C117 O125 1.249 . S
O118 C117 1.264 . S
O119 Mg112 1.986 . S
O119 C123 1.246 . S
O120 Mg115 2.032 . S
O120 C123 1.259 . S
O121 Mg112 2.114 . S
O121 C124 1.252 . S
O122 Mg112 2.251 . S
O122 Mg115 2.079 . S
O122 C124 1.273 . S
C123 O119 1.246 . S
C123 O120 1.259 . S
C124 O121 1.252 . S
C124 O122 1.273 . S
O125 Mg112 2.010 . S
O125 C117 1.249 . S
Mg126 O127 2.028 . S
Mg126 O133 1.986 . S
Mg126 O135 2.114 . S
Mg126 O136 2.251 . S
Mg126 O139 2.010 . S
O127 Mg126 2.028 . S
O127 C130 1.250 . S
O128 Mg129 2.028 . S
O128 C130 1.248 . S
Mg129 O128 2.028 . S
Mg129 O134 2.032 . S
Mg129 O136 2.079 . S
C130 O127 1.250 . S
C130 O128 1.248 . S
C131 O132 1.264 . S
C131 O139 1.249 . S
O132 C131 1.264 . S
O133 Mg126 1.986 . S
O133 C137 1.246 . S
O134 Mg129 2.032 . S
O134 C137 1.259 . S
O135 Mg126 2.114 . S
O135 C138 1.252 . S
O136 Mg126 2.251 . S
O136 Mg129 2.079 . S
O136 C138 1.273 . S
C137 O133 1.246 . S
C137 O134 1.259 . S
C138 O135 1.252 . S
C138 O136 1.273 . S
O139 Mg126 2.010 . S
O139 C131 1.249 . S
Mg140 O141 2.028 . S
Mg140 O147 1.986 1_545 S
Mg140 O149 2.114 . S
Mg140 O150 2.251 . S
Mg140 O153 2.010 1_545 S
O141 Mg140 2.028 . S
O141 C144 1.250 . S
O142 Mg143 2.028 . S
O142 C144 1.248 . S
Mg143 O142 2.028 . S
Mg143 O148 2.032 1_545 S
Mg143 O150 2.079 . S
C144 O141 1.250 . S
C144 O142 1.248 . S
C145 O146 1.264 . S
C145 O153 1.249 . S
O146 C145 1.264 . S
O147 Mg140 1.986 1_565 S
O147 C151 1.246 . S
O148 Mg143 2.032 1_565 S
O148 C151 1.259 . S
O149 Mg140 2.114 . S
O149 C152 1.252 . S
O150 Mg140 2.251 . S
O150 Mg143 2.079 . S
O150 C152 1.273 . S
C151 O147 1.246 . S
C151 O148 1.259 . S
C152 O149 1.252 . S
C152 O150 1.273 . S
O153 Mg140 2.010 1_565 S
O153 C145 1.249 . S
Mg154 O155 2.028 1_554 S
Mg154 O161 1.986 . S
Mg154 O163 2.114 . S
Mg154 O164 2.251 . S
Mg154 O167 2.010 . S
O155 Mg154 2.028 1_556 S
O155 C158 1.250 . S
O156 Mg157 2.028 1_556 S
O156 C158 1.248 . S
Mg157 O156 2.028 1_554 S
Mg157 O162 2.032 . S
Mg157 O164 2.079 . S
C158 O155 1.250 . S
C158 O156 1.248 . S
C159 O160 1.264 . S
C159 O167 1.249 . S
O160 C159 1.264 . S
O161 Mg154 1.986 . S
O161 C165 1.246 . S
O162 Mg157 2.032 . S
O162 C165 1.259 . S
O163 Mg154 2.114 . S
O163 C166 1.252 . S
O164 Mg154 2.251 . S
O164 Mg157 2.079 . S
O164 C166 1.273 . S
C165 O161 1.246 . S
C165 O162 1.259 . S
C166 O163 1.252 . S
C166 O164 1.273 . S
O167 Mg154 2.010 . S
O167 C159 1.249 . S
Mg168 O169 2.028 . S
Mg168 O175 1.986 . S
Mg168 O177 2.114 . S
Mg168 O178 2.251 . S
Mg168 O181 2.010 . S
O169 Mg168 2.028 . S
O169 C172 1.250 . S
O170 Mg171 2.028 . S
O170 C172 1.248 . S
Mg171 O170 2.028 . S
Mg171 O176 2.032 . S
Mg171 O178 2.079 . S
C172 O169 1.250 . S
C172 O170 1.248 . S
C173 O174 1.264 . S
C173 O181 1.249 . S
O174 C173 1.264 . S
O175 Mg168 1.986 . S
O175 C179 1.246 . S
O176 Mg171 2.032 . S
O176 C179 1.259 . S
O177 Mg168 2.114 . S
O177 C180 1.252 . S
O178 Mg168 2.251 . S
O178 Mg171 2.079 . S
O178 C180 1.273 . S
C179 O175 1.246 . S
C179 O176 1.259 . S
C180 O177 1.252 . S
C180 O178 1.273 . S
O181 Mg168 2.010 . S
O181 C173 1.249 . S
Mg182 O183 2.028 . S
Mg182 O189 1.986 1_554 S
Mg182 O191 2.114 . S
Mg182 O192 2.251 . S
Mg182 O195 2.010 . S
O183 Mg182 2.028 . S
O183 C186 1.250 . S
O184 Mg185 2.028 . S
O184 C186 1.248 . S
Mg185 O184 2.028 . S
Mg185 O190 2.032 . S
Mg185 O192 2.079 . S
C186 O183 1.250 . S
C186 O184 1.248 . S
C187 O188 1.264 . S
C187 O195 1.249 . S
O188 C187 1.264 . S
O189 Mg182 1.986 1_556 S
O189 C193 1.246 . S
O190 Mg185 2.032 . S
O190 C193 1.259 1_554 S
O191 Mg182 2.114 . S
O191 C194 1.252 . S
O192 Mg182 2.251 . S
O192 Mg185 2.079 . S
O192 C194 1.273 . S
C193 O189 1.246 . S
C193 O190 1.259 1_556 S
C194 O191 1.252 . S
C194 O192 1.273 . S
O195 Mg182 2.010 . S
O195 C187 1.249 . S
Mg196 O197 2.028 . S
Mg196 O203 1.986 . S
Mg196 O205 2.114 . S
Mg196 O206 2.251 . S
Mg196 O209 2.010 . S
O197 Mg196 2.028 . S
O197 C200 1.250 . S
O198 Mg199 2.028 . S
O198 C200 1.248 . S
Mg199 O198 2.028 . S
Mg199 O204 2.032 . S
Mg199 O206 2.079 . S
C200 O197 1.250 . S
C200 O198 1.248 . S
C201 O202 1.264 . S
C201 O209 1.249 . S
O202 C201 1.264 . S
O203 Mg196 1.986 . S
O203 C207 1.246 . S
O204 Mg199 2.032 . S
O204 C207 1.259 . S
O205 Mg196 2.114 . S
O205 C208 1.252 . S
O206 Mg196 2.251 . S
O206 Mg199 2.079 . S
O206 C208 1.273 . S
C207 O203 1.246 . S
C207 O204 1.259 . S
C208 O205 1.252 . S
C208 O206 1.273 . S
O209 Mg196 2.010 . S
O209 C201 1.249 . S
Mg210 O211 2.028 . S
Mg210 O217 1.986 . S
Mg210 O219 2.114 . S
Mg210 O220 2.251 . S
Mg210 O223 2.010 . S
O211 Mg210 2.028 . S
O211 C214 1.250 . S
O212 Mg213 2.028 . S
O212 C214 1.248 . S
Mg213 O212 2.028 . S
Mg213 O218 2.032 . S
Mg213 O220 2.079 . S
C214 O211 1.250 . S
C214 O212 1.248 . S
C215 O216 1.264 . S
C215 O223 1.249 . S
O216 C215 1.264 . S
O217 Mg210 1.986 . S
O217 C221 1.246 . S
O218 Mg213 2.032 . S
O218 C221 1.259 . S
O219 Mg210 2.114 . S
O219 C222 1.252 . S
O220 Mg210 2.251 . S
O220 Mg213 2.079 . S
O220 C222 1.273 . S
C221 O217 1.246 . S
C221 O218 1.259 . S
C222 O219 1.252 . S
C222 O220 1.273 . S
O223 Mg210 2.010 . S
O223 C215 1.249 . S
Mg224 O225 2.028 1_545 S
Mg224 O231 1.986 . S
Mg224 O233 2.114 . S
Mg224 O234 2.251 . S
Mg224 O237 2.010 . S
O225 Mg224 2.028 1_565 S
O225 C228 1.250 . S
O226 Mg227 2.028 1_565 S
O226 C228 1.248 . S
Mg227 O226 2.028 1_545 S
Mg227 O232 2.032 . S
Mg227 O234 2.079 . S
C228 O225 1.250 . S
C228 O226 1.248 . S
C229 O230 1.264 . S
C229 O237 1.249 . S
O230 C229 1.264 . S
O231 Mg224 1.986 . S
O231 C235 1.246 . S
O232 Mg227 2.032 . S
O232 C235 1.259 . S
O233 Mg224 2.114 . S
O233 C236 1.252 . S
O234 Mg224 2.251 . S
O234 Mg227 2.079 . S
O234 C236 1.273 . S
C235 O231 1.246 . S
C235 O232 1.259 . S
C236 O233 1.252 . S
C236 O234 1.273 . S
O237 Mg224 2.010 . S
O237 C229 1.249 . S
Mg238 O239 2.028 . S
Mg238 O245 1.986 . S
Mg238 O247 2.114 . S
Mg238 O248 2.251 . S
Mg238 O251 2.010 . S
O239 Mg238 2.028 . S
O239 C242 1.250 . S
O240 Mg241 2.028 . S
O240 C242 1.248 . S
Mg241 O240 2.028 . S
Mg241 O246 2.032 . S
Mg241 O248 2.079 . S
C242 O239 1.250 . S
C242 O240 1.248 . S
C243 O244 1.264 . S
C243 O251 1.249 . S
O244 C243 1.264 . S
O245 Mg238 1.986 . S
O245 C249 1.246 . S
O246 Mg241 2.032 . S
O246 C249 1.259 . S
O247 Mg238 2.114 . S
O247 C250 1.252 . S
O248 Mg238 2.251 . S
O248 Mg241 2.079 . S
O248 C250 1.273 . S
C249 O245 1.246 . S
C249 O246 1.259 . S
C250 O247 1.252 . S
C250 O248 1.273 . S
O251 Mg238 2.010 . S
O251 C243 1.249 . S
Mg252 O253 2.028 . S
Mg252 O259 1.986 . S
Mg252 O261 2.114 . S
Mg252 O262 2.251 . S
Mg252 O265 2.010 . S
O253 Mg252 2.028 . S
O253 C256 1.250 . S
O254 Mg255 2.028 . S
O254 C256 1.248 . S
Mg255 O254 2.028 . S
Mg255 O260 2.032 . S
Mg255 O262 2.079 . S
C256 O253 1.250 . S
C256 O254 1.248 . S
C257 O258 1.264 . S
C257 O265 1.249 . S
O258 C257 1.264 . S
O259 Mg252 1.986 . S
O259 C263 1.246 . S
O260 Mg255 2.032 . S
O260 C263 1.259 . S
O261 Mg252 2.114 . S
O261 C264 1.252 . S
O262 Mg252 2.251 . S
O262 Mg255 2.079 . S
O262 C264 1.273 . S
C263 O259 1.246 . S
C263 O260 1.259 . S
C264 O261 1.252 . S
C264 O262 1.273 . S
O265 Mg252 2.010 . S
O265 C257 1.249 . S
Mg266 O267 2.028 1_565 S
Mg266 O273 1.986 . S
Mg266 O275 2.114 1_565 S
Mg266 O276 2.251 . S
Mg266 O279 2.010 . S
O267 Mg266 2.028 1_545 S
O267 C270 1.250 . S
O268 Mg269 2.028 . S
O268 C270 1.248 . S
Mg269 O268 2.028 . S
Mg269 O274 2.032 1_545 S
Mg269 O276 2.079 1_545 S
C270 O267 1.250 . S
C270 O268 1.248 . S
C271 O272 1.264 . S
C271 O279 1.249 . S
O272 C271 1.264 . S
O273 Mg266 1.986 . S
O273 C277 1.246 . S
O274 Mg269 2.032 1_565 S
O274 C277 1.259 . S
O275 Mg266 2.114 1_545 S
O275 C278 1.252 . S
O276 Mg266 2.251 . S
O276 Mg269 2.079 1_565 S
O276 C278 1.273 1_565 S
C277 O273 1.246 . S
C277 O274 1.259 . S
C278 O275 1.252 . S
C278 O276 1.273 1_545 S
O279 Mg266 2.010 . S
O279 C271 1.249 . S
Mg280 O281 2.028 1_556 S
Mg280 O287 1.986 . S
Mg280 O289 2.114 1_556 S
Mg280 O290 2.251 . S
Mg280 O293 2.010 . S
O281 Mg280 2.028 1_554 S
O281 C284 1.250 . S
O282 Mg283 2.028 . S
O282 C284 1.248 . S
Mg283 O282 2.028 . S
Mg283 O288 2.032 1_554 S
Mg283 O290 2.079 1_554 S
C284 O281 1.250 . S
C284 O282 1.248 . S
C285 O286 1.264 . S
C285 O293 1.249 . S
O286 C285 1.264 . S
O287 Mg280 1.986 . S
O287 C291 1.246 . S
O288 Mg283 2.032 1_556 S
O288 C291 1.259 . S
O289 Mg280 2.114 1_554 S
O289 C292 1.252 . S
O290 Mg280 2.251 . S
O290 Mg283 2.079 1_556 S
O290 C292 1.273 1_556 S
C291 O287 1.246 . S
C291 O288 1.259 . S
C292 O289 1.252 . S
C292 O290 1.273 1_554 S
O293 Mg280 2.010 . S
O293 C285 1.249 . S
Mg294 O295 2.028 . S
Mg294 O301 1.986 . S
Mg294 O303 2.114 . S
Mg294 O304 2.251 . S
Mg294 O307 2.010 . S
O295 Mg294 2.028 . S
O295 C298 1.250 . S
O296 Mg297 2.028 . S
O296 C298 1.248 . S
Mg297 O296 2.028 . S
Mg297 O302 2.032 . S
Mg297 O304 2.079 . S
C298 O295 1.250 . S
C298 O296 1.248 . S
C299 O300 1.264 . S
C299 O307 1.249 . S
O300 C299 1.264 . S
O301 Mg294 1.986 . S
O301 C305 1.246 . S
O302 Mg297 2.032 . S
O302 C305 1.259 . S
O303 Mg294 2.114 . S
O303 C306 1.252 . S
O304 Mg294 2.251 . S
O304 Mg297 2.079 . S
O304 C306 1.273 . S
C305 O301 1.246 . S
C305 O302 1.259 . S
C306 O303 1.252 . S
C306 O304 1.273 . S
O307 Mg294 2.010 . S
O307 C299 1.249 . S
Mg308 O309 2.028 . S
Mg308 O315 1.986 . S
Mg308 O317 2.114 . S
Mg308 O318 2.251 . S
Mg308 O321 2.010 . S
O309 Mg308 2.028 . S
O309 C312 1.250 . S
O310 Mg311 2.028 . S
O310 C312 1.248 . S
Mg311 O310 2.028 . S
Mg311 O316 2.032 . S
Mg311 O318 2.079 . S
C312 O309 1.250 . S
C312 O310 1.248 . S
C313 O314 1.264 . S
C313 O321 1.249 . S
O314 C313 1.264 . S
O315 Mg308 1.986 . S
O315 C319 1.246 . S
O316 Mg311 2.032 . S
O316 C319 1.259 . S
O317 Mg308 2.114 . S
O317 C320 1.252 . S
O318 Mg308 2.251 . S
O318 Mg311 2.079 . S
O318 C320 1.273 . S
C319 O315 1.246 . S
C319 O316 1.259 . S
C320 O317 1.252 . S
C320 O318 1.273 . S
O321 Mg308 2.010 . S
O321 C313 1.249 . S
Mg322 O323 2.028 . S
Mg322 O329 1.986 . S
Mg322 O331 2.114 . S
Mg322 O332 2.251 . S
Mg322 O335 2.010 . S
O323 Mg322 2.028 . S
O323 C326 1.250 . S
O324 Mg325 2.028 . S
O324 C326 1.248 . S
Mg325 O324 2.028 . S
Mg325 O330 2.032 . S
Mg325 O332 2.079 . S
C326 O323 1.250 . S
C326 O324 1.248 . S
C327 O328 1.264 . S
C327 O335 1.249 . S
O328 C327 1.264 . S
O329 Mg322 1.986 . S
O329 C333 1.246 . S
O330 Mg325 2.032 . S
O330 C333 1.259 . S
O331 Mg322 2.114 . S
O331 C334 1.252 . S
O332 Mg322 2.251 . S
O332 Mg325 2.079 . S
O332 C334 1.273 . S
C333 O329 1.246 . S
C333 O330 1.259 . S
C334 O331 1.252 . S
C334 O332 1.273 . S
O335 Mg322 2.010 . S
O335 C327 1.249 . S
Zn336 O342 1.969 . S
Zn336 O343 1.965 1_565 S
Zn336 O347 2.024 . S
Zn336 O352 1.969 . S
Zn337 O344 1.969 1_654 S
Zn337 O350 1.969 1_554 S
Zn337 O351 1.965 . S
Zn337 O353 2.024 1_655 S
C338 O339 1.229 . S
C338 O347 1.058 . S
O339 C338 1.229 . S
C340 O341 1.229 1_454 S
C340 O353 1.058 . S
O341 C340 1.229 1_656 S
O342 Zn336 1.969 . S
O342 C345 1.267 . S
O343 Zn336 1.965 1_545 S
O343 C354 1.260 1_554 S
O344 Zn337 1.969 1_456 S
O344 C354 1.258 . S
C345 O342 1.267 . S
C345 O346 1.228 . S
O346 C345 1.228 . S
O347 Zn336 2.024 . S
O347 C338 1.058 . S
C348 O349 1.228 . S
C348 O350 1.267 1_554 S
O349 C348 1.228 . S
O350 Zn337 1.969 1_556 S
O350 C348 1.267 1_556 S
O351 Zn337 1.965 . S
O351 C355 1.265 . S
O352 Zn336 1.969 . S
O352 C355 1.250 1_465 S
O353 Zn337 2.024 1_455 S
O353 C340 1.058 . S
C354 O343 1.260 1_556 S
C354 O344 1.258 . S
C355 O351 1.265 . S
C355 O352 1.250 1_645 S
Zn356 O362 1.969 . S
Zn356 O363 1.965 . S
Zn356 O367 2.024 . S
Zn356 O372 1.969 . S
Zn357 O364 1.969 . S
Zn357 O370 1.969 . S
Zn357 O371 1.965 . S
Zn357 O373 2.024 . S
C358 O359 1.229 . S
C358 O367 1.058 . S
O359 C358 1.229 . S
C360 O361 1.229 . S
C360 O373 1.058 . S
O361 C360 1.229 . S
O362 Zn356 1.969 . S
O362 C365 1.267 . S
O363 Zn356 1.965 . S
O363 C374 1.260 . S
O364 Zn357 1.969 . S
O364 C374 1.258 . S
C365 O362 1.267 . S
C365 O366 1.228 . S
O366 C365 1.228 . S
O367 Zn356 2.024 . S
O367 C358 1.058 . S
C368 O369 1.228 . S
C368 O370 1.267 . S
O369 C368 1.228 . S
O370 Zn357 1.969 . S
O370 C368 1.267 . S
O371 Zn357 1.965 . S
O371 C375 1.260 . S
O372 Zn356 1.969 . S
O372 C375 1.258 . S
O373 Zn357 2.024 . S
O373 C360 1.058 . S
C374 O363 1.260 . S
C374 O364 1.258 . S
C375 O371 1.260 . S
C375 O372 1.258 . S
Zn376 O382 1.969 . S
Zn376 O383 1.965 . S
Zn376 O387 2.024 . S
Zn376 O392 1.969 . S
Zn377 O384 1.969 . S
Zn377 O390 1.969 . S
Zn377 O391 1.965 1_565 S
Zn377 O393 2.024 . S
C378 O379 1.229 . S
C378 O387 1.058 . S
O379 C378 1.229 . S
C380 O381 1.229 . S
C380 O393 1.058 . S
O381 C380 1.229 . S
O382 Zn376 1.969 . S
O382 C385 1.267 . S
O383 Zn376 1.965 . S
O383 C394 1.260 . S
O384 Zn377 1.969 . S
O384 C394 1.258 1_565 S
C385 O382 1.267 . S
C385 O386 1.228 . S
O386 C385 1.228 . S
O387 Zn376 2.024 . S
O387 C378 1.058 . S
C388 O389 1.228 . S
C388 O390 1.267 . S
O389 C388 1.228 . S
O390 Zn377 1.969 . S
O390 C388 1.267 . S
O391 Zn377 1.965 1_545 S
O391 C395 1.260 . S
O392 Zn376 1.969 . S
O392 C395 1.258 . S
O393 Zn377 2.024 . S
O393 C380 1.058 . S
C394 O383 1.260 . S
C394 O384 1.258 1_545 S
C395 O391 1.260 . S
C395 O392 1.258 . S
Zn396 O402 1.969 . S
Zn396 O403 1.965 . S
Zn396 O407 2.024 . S
Zn396 O412 1.969 . S
Zn397 O404 1.969 . S
Zn397 O410 1.969 . S
Zn397 O411 1.965 . S
Zn397 O413 2.024 . S
C398 O399 1.229 . S
C398 O407 1.058 . S
O399 C398 1.229 . S
C400 O401 1.229 . S
C400 O413 1.058 . S
O401 C400 1.229 . S
O402 Zn396 1.969 . S
O402 C405 1.267 . S
O403 Zn396 1.965 . S
O403 C414 1.260 . S
O404 Zn397 1.969 . S
O404 C414 1.258 . S
C405 O402 1.267 . S
C405 O406 1.228 . S
O406 C405 1.228 . S
O407 Zn396 2.024 . S
O407 C398 1.058 . S
C408 O409 1.228 . S
C408 O410 1.267 . S
O409 C408 1.228 . S
O410 Zn397 1.969 . S
O410 C408 1.267 . S
O411 Zn397 1.965 . S
O411 C415 1.260 . S
O412 Zn396 1.969 . S
O412 C415 1.258 . S
O413 Zn397 2.024 . S
O413 C400 1.058 . S
C414 O403 1.260 . S
C414 O404 1.258 . S
C415 O411 1.260 . S
C415 O412 1.258 . S
Zn416 O422 1.969 . S
Zn416 O423 1.965 1_455 S
Zn416 O427 2.024 1_565 S
Zn416 O432 1.969 1_565 S
Zn417 O424 1.969 . S
Zn417 O430 1.969 . S
Zn417 O431 1.965 1_655 S
Zn417 O433 2.026 . S
C418 O419 1.229 1_545 S
C418 O427 1.058 . S
O419 C418 1.229 1_565 S
C420 O421 1.229 . S
C420 O433 1.065 . S
O421 C420 1.229 . S
O422 Zn416 1.969 . S
O422 C425 1.267 . S
O423 Zn416 1.965 1_655 S
O423 C434 1.260 . S
O424 Zn417 1.969 . S
O424 C434 1.258 1_545 S
C425 O422 1.267 . S
C425 O426 1.228 . S
O426 C425 1.228 . S
O427 Zn416 2.024 1_545 S
O427 C418 1.058 . S
C428 O429 1.228 . S
C428 O430 1.267 1_455 S
O429 C428 1.228 . S
O430 Zn417 1.969 . S
O430 C428 1.267 1_655 S
O431 Zn417 1.965 1_455 S
O431 C435 1.260 . S
O432 Zn416 1.969 1_545 S
O432 C435 1.258 . S
O433 Zn417 2.026 . S
O433 C420 1.065 . S
C434 O423 1.260 . S
C434 O424 1.258 1_565 S
C435 O431 1.260 . S
C435 O432 1.258 . S
Zn436 O442 1.969 . S
Zn436 O443 1.965 . S
Zn436 O447 2.024 . S
Zn436 O452 1.969 . S
Zn437 O444 1.969 . S
Zn437 O450 1.969 . S
Zn437 O451 1.965 . S
Zn437 O453 2.024 . S
C438 O439 1.229 . S
C438 O447 1.058 . S
O439 C438 1.229 . S
C440 O441 1.229 . S
C440 O453 1.058 . S
O441 C440 1.229 . S
O442 Zn436 1.969 . S
O442 C445 1.267 . S
O443 Zn436 1.965 . S
O443 C454 1.260 . S
O444 Zn437 1.969 . S
O444 C454 1.258 . S
C445 O442 1.267 . S
C445 O446 1.228 . S
O446 C445 1.228 . S
O447 Zn436 2.024 . S
O447 C438 1.058 . S
C448 O449 1.228 . S
C448 O450 1.267 . S
O449 C448 1.228 . S
O450 Zn437 1.969 . S
O450 C448 1.267 . S
O451 Zn437 1.965 . S
O451 C455 1.260 . S
O452 Zn436 1.969 . S
O452 C455 1.258 . S
O453 Zn437 2.024 . S
O453 C440 1.058 . S
C454 O443 1.260 . S
C454 O444 1.258 . S
C455 O451 1.260 . S
C455 O452 1.258 . S
Zn456 O462 1.980 . S
Zn456 O463 1.970 1_545 S
Zn456 O467 2.018 1_556 S
Zn456 O472 1.964 1_556 S
Zn457 O464 1.969 . S
Zn457 O470 1.969 . S
Zn457 O471 1.965 1_565 S
Zn457 O473 2.024 . S
C458 O459 1.229 . S
C458 O467 1.058 . S
O459 C458 1.229 . S
C460 O461 1.229 . S
C460 O473 1.058 . S
O461 C460 1.229 . S
O462 Zn456 1.980 . S
O462 C465 1.267 . S
O463 Zn456 1.970 1_565 S
O463 C474 1.234 1_556 S
O464 Zn457 1.969 . S
O464 C474 1.258 . S
C465 O462 1.267 . S
C465 O466 1.228 . S
O466 C465 1.228 . S
O467 Zn456 2.018 1_554 S
O467 C458 1.058 . S
C468 O469 1.211 1_565 S
C468 O470 1.279 . S
O469 C468 1.211 1_545 S
O470 Zn457 1.969 . S
O470 C468 1.279 . S
O471 Zn457 1.965 1_545 S
O471 C475 1.260 . S
O472 Zn456 1.964 1_554 S
O472 C475 1.258 . S
O473 Zn457 2.024 . S
O473 C460 1.058 . S
C474 O463 1.234 1_554 S
C474 O464 1.258 . S
C475 O471 1.260 . S
C475 O472 1.258 . S
Zn476 O482 1.969 . S
Zn476 O483 1.965 . S
Zn476 O487 2.024 . S
Zn476 O492 1.969 . S
Zn477 O484 1.969 . S
Zn477 O490 1.969 . S
Zn477 O491 1.965 . S
Zn477 O493 2.024 . S
C478 O479 1.229 . S
C478 O487 1.058 . S
O479 C478 1.229 . S
C480 O481 1.229 . S
C480 O493 1.058 . S
O481 C480 1.229 . S
O482 Zn476 1.969 . S
O482 C485 1.267 . S
O483 Zn476 1.965 . S
O483 C494 1.260 . S
O484 Zn477 1.969 . S
O484 C494 1.258 . S
C485 O482 1.267 . S
C485 O486 1.228 . S
O486 C485 1.228 . S
O487 Zn476 2.024 . S
O487 C478 1.058 . S
C488 O489 1.228 . S
C488 O490 1.267 . S
O489 C488 1.228 . S
O490 Zn477 1.969 . S
O490 C488 1.267 . S
O491 Zn477 1.965 . S
O491 C495 1.260 . S
O492 Zn476 1.969 . S
O492 C495 1.258 . S
O493 Zn477 2.024 . S
O493 C480 1.058 . S
C494 O483 1.260 . S
C494 O484 1.258 . S
C495 O491 1.260 . S
C495 O492 1.258 . S
Zn496 O502 1.969 . S
Zn496 O503 1.965 . S
Zn496 O507 2.024 . S
Zn496 O512 1.969 . S
Zn497 O504 1.969 1_556 S
Zn497 O510 1.969 1_556 S
Zn497 O511 1.965 1_556 S
Zn497 O513 2.024 . S
C498 O499 1.229 . S
C498 O507 1.058 . S
O499 C498 1.229 . S
C500 O501 1.229 . S
C500 O513 1.058 . S
O501 C500 1.229 . S
O502 Zn496 1.969 . S
O502 C505 1.267 . S
O503 Zn496 1.965 . S
O503 C514 1.260 . S
O504 Zn497 1.969 1_554 S
O504 C514 1.258 . S
C505 O502 1.267 . S
C505 O506 1.228 . S
O506 C505 1.228 . S
O507 Zn496 2.024 . S
O507 C498 1.058 . S
C508 O509 1.228 . S
C508 O510 1.267 1_556 S
O509 C508 1.228 . S
O510 Zn497 1.969 1_554 S
O510 C508 1.267 1_554 S
O511 Zn497 1.965 1_554 S
O511 C515 1.260 . S
O512 Zn496 1.969 . S
O512 C515 1.258 . S
O513 Zn497 2.024 . S
O513 C500 1.058 . S
C514 O503 1.260 . S
C514 O504 1.258 . S
C515 O511 1.260 . S
C515 O512 1.258 . S
Zn516 O522 1.969 . S
Zn516 O523 1.965 . S
Zn516 O527 2.024 . S
Zn516 O532 1.969 . S
Zn517 O524 1.969 . S
Zn517 O530 1.969 . S
Zn517 O531 1.965 . S
Zn517 O533 2.024 . S
C518 O519 1.229 . S
C518 O527 1.058 . S
O519 C518 1.229 . S
C520 O521 1.229 . S
C520 O533 1.058 . S
O521 C520 1.229 . S
O522 Zn516 1.969 . S
O522 C525 1.267 . S
O523 Zn516 1.965 . S
O523 C534 1.260 . S
O524 Zn517 1.969 . S
O524 C534 1.258 . S
C525 O522 1.267 . S
C525 O526 1.228 . S
O526 C525 1.228 . S
O527 Zn516 2.024 . S
O527 C518 1.058 . S
C528 O529 1.228 . S
C528 O530 1.267 . S
O529 C528 1.228 . S
O530 Zn517 1.969 . S
O530 C528 1.267 . S
O531 Zn517 1.965 . S
O531 C535 1.260 . S
O532 Zn516 1.969 . S
O532 C535 1.258 . S
O533 Zn517 2.024 . S
O533 C520 1.058 . S
C534 O523 1.260 . S
C534 O524 1.258 . S
C535 O531 1.260 . S
C535 O532 1.258 . S
Zn536 O542 1.969 . S
Zn536 O543 1.965 . S
Zn536 O547 2.024 . S
Zn536 O552 1.969 . S
Zn537 O544 1.986 . S
Zn537 O550 1.969 . S
Zn537 O551 1.965 1_655 S
Zn537 O553 2.024 . S
C538 O539 1.229 . S
C538 O547 1.058 . S
O539 C538 1.229 . S
C540 O541 1.229 . S
C540 O553 1.058 . S
O541 C540 1.229 . S
O542 Zn536 1.969 . S
O542 C545 1.267 . S
O543 Zn536 1.965 . S
O543 C554 1.260 . S
O544 Zn537 1.986 . S
O544 C554 1.239 1_655 S
C545 O542 1.267 . S
C545 O546 1.228 . S
O546 C545 1.228 . S
O547 Zn536 2.024 . S
O547 C538 1.058 . S
C548 O549 1.228 . S
C548 O550 1.267 . S
O549 C548 1.228 . S
O550 Zn537 1.969 . S
O550 C548 1.267 . S
O551 Zn537 1.965 1_455 S
O551 C555 1.260 . S
O552 Zn536 1.969 . S
O552 C555 1.258 . S
O553 Zn537 2.024 . S
O553 C540 1.058 . S
C554 O543 1.260 . S
C554 O544 1.239 1_455 S
C555 O551 1.260 . S
C555 O552 1.258 . S
Zn556 O562 1.969 . S
Zn556 O563 1.965 . S
Zn556 O567 2.024 . S
Zn556 O572 1.969 . S
Zn557 O564 1.969 . S
Zn557 O570 1.969 . S
Zn557 O571 1.965 . S
Zn557 O573 2.024 . S
C558 O559 1.229 . S
C558 O567 1.058 . S
O559 C558 1.229 . S
C560 O561 1.229 . S
C560 O573 1.058 . S
O561 C560 1.229 . S
O562 Zn556 1.969 . S
O562 C565 1.267 . S
O563 Zn556 1.965 . S
O563 C574 1.260 . S
O564 Zn557 1.969 . S
O564 C574 1.258 . S
C565 O562 1.267 . S
C565 O566 1.228 . S
O566 C565 1.228 . S
O567 Zn556 2.024 . S
O567 C558 1.058 . S
C568 O569 1.228 . S
C568 O570 1.267 . S
O569 C568 1.228 . S
O570 Zn557 1.969 . S
O570 C568 1.267 . S
O571 Zn557 1.965 . S
O571 C575 1.260 . S
O572 Zn556 1.969 . S
O572 C575 1.258 . S
O573 Zn557 2.024 . S
O573 C560 1.058 . S
C574 O563 1.260 . S
C574 O564 1.258 . S
C575 O571 1.260 . S
C575 O572 1.258 . S
Zn576 O582 1.969 . S
Zn576 O583 1.965 . S
Zn576 O587 2.024 . S
Zn576 O592 1.969 . S
Zn577 O584 1.969 . S
Zn577 O590 1.969 . S
Zn577 O591 1.965 . S
Zn577 O593 2.024 . S
C578 O579 1.229 . S
C578 O587 1.058 . S
O579 C578 1.229 . S
C580 O581 1.229 . S
C580 O593 1.058 . S
O581 C580 1.229 . S
O582 Zn576 1.969 . S
O582 C585 1.267 . S
O583 Zn576 1.965 . S
O583 C594 1.260 . S
O584 Zn577 1.969 . S
O584 C594 1.258 . S
C585 O582 1.267 . S
C585 O586 1.228 . S
O586 C585 1.228 . S
O587 Zn576 2.024 . S
O587 C578 1.058 . S
C588 O589 1.228 . S
C588 O590 1.267 . S
O589 C588 1.228 . S
O590 Zn577 1.969 . S
O590 C588 1.267 . S
O591 Zn577 1.965 . S
O591 C595 1.260 . S
O592 Zn576 1.969 . S
O592 C595 1.258 . S
O593 Zn577 2.024 . S
O593 C580 1.058 . S
C594 O583 1.260 . S
C594 O584 1.258 . S
C595 O591 1.260 . S
C595 O592 1.258 . S
Zn596 O602 1.969 . S
Zn596 O603 1.965 . S
Zn596 O607 2.024 . S
Zn596 O612 1.969 . S
Zn597 O604 1.969 . S
Zn597 O610 1.969 . S
Zn597 O611 1.965 . S
Zn597 O613 2.024 . S
C598 O599 1.229 . S
C598 O607 1.058 . S
O599 C598 1.229 . S
C600 O601 1.229 . S
C600 O613 1.058 . S
O601 C600 1.229 . S
O602 Zn596 1.969 . S
O602 C605 1.267 . S
O603 Zn596 1.965 . S
O603 C614 1.260 . S
O604 Zn597 1.969 . S
O604 C614 1.258 . S
C605 O602 1.267 . S
C605 O606 1.228 . S
O606 C605 1.228 . S
O607 Zn596 2.024 . S
O607 C598 1.058 . S
C608 O609 1.228 . S
C608 O610 1.267 . S
O609 C608 1.228 . S
O610 Zn597 1.969 . S
O610 C608 1.267 . S
O611 Zn597 1.965 . S
O611 C615 1.260 . S
O612 Zn596 1.969 . S
O612 C615 1.258 . S
O613 Zn597 2.024 . S
O613 C600 1.058 . S
C614 O603 1.260 . S
C614 O604 1.258 . S
C615 O611 1.260 . S
C615 O612 1.258 . S
Zn616 O622 1.969 . S
Zn616 O623 1.965 . S
Zn616 O627 2.024 . S
Zn616 O632 1.969 . S
Zn617 O624 1.969 . S
Zn617 O630 1.969 . S
Zn617 O631 1.965 . S
Zn617 O633 2.024 . S
C618 O619 1.229 . S
C618 O627 1.058 . S
O619 C618 1.229 . S
C620 O621 1.229 . S
C620 O633 1.058 . S
O621 C620 1.229 . S
O622 Zn616 1.969 . S
O622 C625 1.267 . S
O623 Zn616 1.965 . S
O623 C634 1.260 . S
O624 Zn617 1.969 . S
O624 C634 1.258 . S
C625 O622 1.267 . S
C625 O626 1.228 . S
O626 C625 1.228 . S
O627 Zn616 2.024 . S
O627 C618 1.058 . S
C628 O629 1.228 . S
C628 O630 1.267 . S
O629 C628 1.228 . S
O630 Zn617 1.969 . S
O630 C628 1.267 . S
O631 Zn617 1.965 . S
O631 C635 1.260 . S
O632 Zn616 1.969 . S
O632 C635 1.258 . S
O633 Zn617 2.024 . S
O633 C620 1.058 . S
C634 O623 1.260 . S
C634 O624 1.258 . S
C635 O631 1.260 . S
C635 O632 1.258 . S
Zn636 O642 1.969 . S
Zn636 O643 1.965 . S
Zn636 O647 2.024 1_655 S
Zn636 O652 1.969 1_655 S
Zn637 O644 1.969 1_554 S
Zn637 O650 1.976 . S
Zn637 O651 1.965 . S
Zn637 O653 2.024 . S
C638 O639 1.229 1_455 S
C638 O647 1.058 . S
O639 C638 1.229 1_655 S
C640 O641 1.229 . S
C640 O653 1.058 1_556 S
O641 C640 1.229 . S
O642 Zn636 1.969 . S
O642 C645 1.267 . S
O643 Zn636 1.965 . S
O643 C654 1.260 1_654 S
O644 Zn637 1.969 1_556 S
O644 C654 1.258 . S
C645 O642 1.267 . S
C645 O646 1.228 . S
O646 C645 1.228 . S
O647 Zn636 2.024 1_455 S
O647 C638 1.058 . S
C648 O649 1.228 . S
C648 O650 1.279 . S
O649 C648 1.228 . S
O650 Zn637 1.976 . S
O650 C648 1.279 . S
O651 Zn637 1.965 . S
O651 C655 1.260 . S
O652 Zn636 1.969 1_455 S
O652 C655 1.258 . S
O653 Zn637 2.024 . S
O653 C640 1.058 1_554 S
C654 O643 1.260 1_456 S
C654 O644 1.258 . S
C655 O651 1.260 . S
C655 O652 1.258 . S
H656 C662 0.930 . S
H657 C666 0.930 . S
H658 C671 0.929 . S
H659 C669 0.929 . S
H660 C664 0.929 . S
H661 C670 0.929 . S
C662 H656 0.930 . S
C662 C663 1.367 . S
C662 C670 1.378 . S
C663 C662 1.367 . S
C663 C671 1.433 1_655 S
C664 H660 0.929 . S
C664 C666 1.378 . S
C664 C668 1.350 . S
C665 C668 1.463 . S
C665 C670 1.350 1_455 S
C665 N673 1.427 . S
C666 H657 0.930 . S
C666 C664 1.378 . S
C666 C667 1.367 . S
C667 C666 1.367 . S
C667 C669 1.433 1_456 S
C668 C664 1.350 . S
C668 C665 1.463 . S
C668 N672 1.427 1_455 S
C669 H659 0.929 . S
C669 C667 1.433 1_654 S
C669 N672 1.384 1_554 S
C670 H661 0.929 . S
C670 C662 1.378 . S
C670 C665 1.350 1_655 S
C671 H658 0.929 . S
C671 C663 1.433 1_455 S
C671 N673 1.384 . S
N672 C668 1.427 1_655 S
N672 C669 1.384 1_556 S
N673 C665 1.427 . S
N673 C671 1.384 . S
H674 C680 0.930 . S
H675 C684 0.930 . S
H676 C689 0.929 . S
H677 C687 0.929 . S
H678 C682 0.929 . S
H679 C688 0.929 . S
C680 H674 0.930 . S
C680 C681 1.367 . S
C680 C688 1.378 . S
C681 C680 1.367 . S
C681 C689 1.433 . S
C682 H678 0.929 . S
C682 C684 1.378 . S
C682 C686 1.350 . S
C683 C686 1.463 . S
C683 C688 1.350 . S
C683 N691 1.427 . S
C684 H675 0.930 . S
C684 C682 1.378 . S
C684 C685 1.367 . S
C685 C684 1.367 . S
C685 C687 1.433 . S
C686 C682 1.350 . S
C686 C683 1.463 . S
C686 N690 1.427 . S
C687 H677 0.929 . S
C687 C685 1.433 . S
C687 N690 1.384 . S
C688 H679 0.929 . S
C688 C680 1.378 . S
C688 C683 1.350 . S
C689 H676 0.929 . S
C689 C681 1.433 . S
C689 N691 1.384 . S
N690 C686 1.427 . S
N690 C687 1.384 . S
N691 C683 1.427 . S
N691 C689 1.384 . S
H692 C698 0.930 . S
H693 C702 0.930 . S
H694 C707 0.929 . S
H695 C705 0.929 . S
H696 C700 0.929 . S
H697 C706 0.929 . S
C698 H692 0.930 . S
C698 C699 1.367 . S
C698 C706 1.378 . S
C699 C698 1.367 . S
C699 C707 1.433 . S
C700 H696 0.929 . S
C700 C702 1.378 . S
C700 C704 1.350 . S
C701 C704 1.463 . S
C701 C706 1.350 . S
C701 N709 1.427 . S
C702 H693 0.930 . S
C702 C700 1.378 . S
C702 C703 1.367 . S
C703 C702 1.367 . S
C703 C705 1.433 . S
C704 C700 1.350 . S
C704 C701 1.463 . S
C704 N708 1.427 . S
C705 H695 0.929 . S
C705 C703 1.433 . S
C705 N708 1.384 . S
C706 H697 0.929 . S
C706 C698 1.378 . S
C706 C701 1.350 . S
C707 H694 0.929 . S
C707 C699 1.433 . S
C707 N709 1.384 . S
N708 C704 1.427 . S
N708 C705 1.384 . S
N709 C701 1.427 . S
N709 C707 1.384 . S
H710 C716 0.930 . S
H711 C720 0.930 . S
H712 C725 0.929 . S
H713 C723 0.929 . S
H714 C718 0.929 . S
H715 C724 0.929 . S
C716 H710 0.930 . S
C716 C717 1.367 . S
C716 C724 1.378 . S
C717 C716 1.367 . S
C717 C725 1.433 . S
C718 H714 0.929 . S
C718 C720 1.378 . S
C718 C722 1.350 . S
C719 C722 1.463 . S
C719 C724 1.350 . S
C719 N727 1.427 . S
C720 H711 0.930 . S
C720 C718 1.378 . S
C720 C721 1.367 . S
C721 C720 1.367 . S
C721 C723 1.433 . S
C722 C718 1.350 . S
C722 C719 1.463 . S
C722 N726 1.427 . S
C723 H713 0.929 . S
C723 C721 1.433 . S
C723 N726 1.384 . S
C724 H715 0.929 . S
C724 C716 1.378 . S
C724 C719 1.350 . S
C725 H712 0.929 . S
C725 C717 1.433 . S
C725 N727 1.384 . S
N726 C722 1.427 . S
N726 C723 1.384 . S
N727 C719 1.427 . S
N727 C725 1.384 . S
H728 C734 0.930 . S
H729 C738 0.930 . S
H730 C743 0.929 . S
H731 C741 0.929 . S
H732 C736 0.929 . S
H733 C742 0.929 . S
C734 H728 0.930 . S
C734 C735 1.367 1_655 S
C734 C742 1.378 . S
C735 C734 1.367 1_455 S
C735 C743 1.433 . S
C736 H732 0.929 . S
C736 C738 1.378 . S
C736 C740 1.350 . S
C737 C740 1.463 . S
C737 C742 1.350 1_455 S
C737 N745 1.427 . S
C738 H729 0.930 . S
C738 C736 1.378 . S
C738 C739 1.367 . S
C739 C738 1.367 . S
C739 C741 1.433 1_455 S
C740 C736 1.350 . S
C740 C737 1.463 . S
C740 N744 1.427 1_455 S
C741 H731 0.929 . S
C741 C739 1.433 1_655 S
C741 N744 1.384 . S
C742 H733 0.929 . S
C742 C734 1.378 . S
C742 C737 1.350 1_655 S
C743 H730 0.929 . S
C743 C735 1.433 . S
C743 N745 1.384 . S
N744 C740 1.427 1_655 S
N744 C741 1.384 . S
N745 C737 1.427 . S
N745 C743 1.384 . S
H746 C752 0.930 . S
H747 C756 0.930 . S
H748 C761 0.929 . S
H749 C759 0.929 . S
H750 C754 0.929 . S
H751 C760 0.929 . S
C752 H746 0.930 . S
C752 C753 1.367 . S
C752 C760 1.378 . S
C753 C752 1.367 . S
C753 C761 1.433 . S
C754 H750 0.929 . S
C754 C756 1.378 . S
C754 C758 1.350 . S
C755 C758 1.463 . S
C755 C760 1.350 . S
C755 N763 1.427 . S
C756 H747 0.930 . S
C756 C754 1.378 . S
C756 C757 1.367 . S
C757 C756 1.367 . S
C757 C759 1.433 . S
C758 C754 1.350 . S
C758 C755 1.463 . S
C758 N762 1.427 . S
C759 H749 0.929 . S
C759 C757 1.433 . S
C759 N762 1.384 . S
C760 H751 0.929 . S
C760 C752 1.378 . S
C760 C755 1.350 . S
C761 H748 0.929 . S
C761 C753 1.433 . S
C761 N763 1.384 . S
N762 C758 1.427 . S
N762 C759 1.384 . S
N763 C755 1.427 . S
N763 C761 1.384 . S
H764 C770 0.930 . S
H765 C774 0.930 . S
H766 C779 0.929 . S
H767 C777 0.929 . S
H768 C772 0.929 . S
H769 C778 0.929 . S
C770 H764 0.930 . S
C770 C771 1.367 . S
C770 C778 1.378 . S
C771 C770 1.367 . S
C771 C779 1.433 . S
C772 H768 0.929 . S
C772 C774 1.378 . S
C772 C776 1.350 . S
C773 C776 1.463 . S
C773 C778 1.350 . S
C773 N781 1.427 . S
C774 H765 0.930 . S
C774 C772 1.378 . S
C774 C775 1.367 . S
C775 C774 1.367 . S
C775 C777 1.433 . S
C776 C772 1.350 . S
C776 C773 1.463 . S
C776 N780 1.427 . S
C777 H767 0.929 . S
C777 C775 1.433 . S
C777 N780 1.384 . S
C778 H769 0.929 . S
C778 C770 1.378 . S
C778 C773 1.350 . S
C779 H766 0.929 . S
C779 C771 1.433 . S
C779 N781 1.384 . S
N780 C776 1.427 . S
N780 C777 1.384 . S
N781 C773 1.427 . S
N781 C779 1.384 . S
H782 C788 0.930 . S
H783 C792 0.930 . S
H784 C797 0.929 . S
H785 C795 0.929 . S
H786 C790 0.929 . S
H787 C796 0.929 . S
C788 H782 0.930 . S
C788 C789 1.367 . S
C788 C796 1.378 . S
C789 C788 1.367 . S
C789 C797 1.433 . S
C790 H786 0.929 . S
C790 C792 1.378 . S
C790 C794 1.350 . S
C791 C794 1.463 . S
C791 C796 1.350 . S
C791 N799 1.427 . S
C792 H783 0.930 . S
C792 C790 1.378 . S
C792 C793 1.367 . S
C793 C792 1.367 . S
C793 C795 1.433 . S
C794 C790 1.350 . S
C794 C791 1.463 . S
C794 N798 1.427 . S
C795 H785 0.929 . S
C795 C793 1.433 . S
C795 N798 1.384 . S
C796 H787 0.929 . S
C796 C788 1.378 . S
C796 C791 1.350 . S
C797 H784 0.929 . S
C797 C789 1.433 . S
C797 N799 1.384 . S
N798 C794 1.427 . S
N798 C795 1.384 . S
N799 C791 1.427 . S
N799 C797 1.384 . S
H800 C806 0.930 . S
H801 C810 0.930 1_455 S
H802 C815 0.929 . S
H803 C813 0.929 . S
H804 C808 0.929 . S
H805 C814 0.929 . S
C806 H800 0.930 . S
C806 C807 1.367 1_565 S
C806 C814 1.378 . S
C807 C806 1.367 1_545 S
C807 C815 1.433 . S
C808 H804 0.929 . S
C808 C810 1.378 . S
C808 C812 1.350 . S
C809 C812 1.463 . S
C809 C814 1.350 1_545 S
C809 N817 1.427 . S
C810 H801 0.930 1_655 S
C810 C808 1.378 . S
C810 C811 1.367 . S
C811 C810 1.367 . S
C811 C813 1.433 1_545 S
C812 C808 1.350 . S
C812 C809 1.463 . S
C812 N816 1.427 1_545 S
C813 H803 0.929 . S
C813 C811 1.433 1_565 S
C813 N816 1.384 . S
C814 H805 0.929 . S
C814 C806 1.378 . S
C814 C809 1.350 1_565 S
C815 H802 0.929 . S
C815 C807 1.433 . S
C815 N817 1.384 . S
N816 C812 1.427 1_565 S
N816 C813 1.384 . S
N817 C809 1.427 . S
N817 C815 1.384 . S
H818 C824 0.930 . S
H819 C828 0.930 . S
H820 C833 0.929 . S
H821 C831 0.929 . S
H822 C826 0.929 . S
H823 C832 0.929 . S
C824 H818 0.930 . S
C824 C825 1.367 . S
C824 C832 1.378 . S
C825 C824 1.367 . S
C825 C833 1.433 . S
C826 H822 0.929 . S
C826 C828 1.378 . S
C826 C830 1.350 . S
C827 C830 1.463 . S
C827 C832 1.350 . S
C827 N835 1.427 . S
C828 H819 0.930 . S
C828 C826 1.378 . S
C828 C829 1.367 . S
C829 C828 1.367 . S
C829 C831 1.433 . S
C830 C826 1.350 . S
C830 C827 1.463 . S
C830 N834 1.427 . S
C831 H821 0.929 . S
C831 C829 1.433 . S
C831 N834 1.384 . S
C832 H823 0.929 . S
C832 C824 1.378 . S
C832 C827 1.350 . S
C833 H820 0.929 . S
C833 C825 1.433 . S
C833 N835 1.384 . S
N834 C830 1.427 . S
N834 C831 1.384 . S
N835 C827 1.427 . S
N835 C833 1.384 . S
H836 C842 0.930 . S
H837 C846 0.930 . S
H838 C851 0.929 . S
H839 C849 0.929 . S
H840 C844 0.929 . S
H841 C850 0.929 . S
C842 H836 0.930 . S
C842 C843 1.367 1_545 S
C842 C850 1.378 . S
C843 C842 1.367 1_565 S
C843 C851 1.433 . S
C844 H840 0.929 . S
C844 C846 1.378 . S
C844 C848 1.349 1_565 S
C845 C848 1.463 . S
C845 C850 1.353 . S
C845 N853 1.423 1_545 S
C846 H837 0.930 . S
C846 C844 1.378 . S
C846 C847 1.367 1_565 S
C847 C846 1.367 1_545 S
C847 C849 1.433 . S
C848 C844 1.349 1_545 S
C848 C845 1.463 . S
C848 N852 1.429 . S
C849 H839 0.929 . S
C849 C847 1.433 . S
C849 N852 1.384 . S
C850 H841 0.929 . S
C850 C842 1.378 . S
C850 C845 1.353 . S
C851 H838 0.929 . S
C851 C843 1.433 . S
C851 N853 1.384 . S
N852 C848 1.429 . S
N852 C849 1.384 . S
N853 C845 1.423 1_565 S
N853 C851 1.384 . S
H854 C860 0.930 . S
H855 C864 0.930 . S
H856 C869 0.929 . S
H857 C867 0.929 . S
H858 C862 0.929 . S
H859 C868 0.929 . S
C860 H854 0.930 . S
C860 C861 1.367 . S
C860 C868 1.378 . S
C861 C860 1.367 . S
C861 C869 1.433 . S
C862 H858 0.929 . S
C862 C864 1.378 . S
C862 C866 1.350 . S
C863 C866 1.463 . S
C863 C868 1.350 . S
C863 N871 1.427 . S
C864 H855 0.930 . S
C864 C862 1.378 . S
C864 C865 1.367 . S
C865 C864 1.367 . S
C865 C867 1.433 . S
C866 C862 1.350 . S
C866 C863 1.463 . S
C866 N870 1.427 . S
C867 H857 0.929 . S
C867 C865 1.433 . S
C867 N870 1.384 . S
C868 H859 0.929 . S
C868 C860 1.378 . S
C868 C863 1.350 . S
C869 H856 0.929 . S
C869 C861 1.433 . S
C869 N871 1.384 . S
N870 C866 1.427 . S
N870 C867 1.384 . S
N871 C863 1.427 . S
N871 C869 1.384 . S
H872 C878 0.930 . S
H873 C882 0.930 . S
H874 C887 0.929 . S
H875 C885 0.929 . S
H876 C880 0.929 . S
H877 C886 0.929 . S
C878 H872 0.930 . S
C878 C879 1.367 1_565 S
C878 C886 1.378 . S
C879 C878 1.367 1_545 S
C879 C887 1.433 . S
C880 H876 0.929 . S
C880 C882 1.378 . S
C880 C884 1.350 . S
C881 C884 1.463 . S
C881 C886 1.350 1_545 S
C881 N889 1.427 . S
C882 H873 0.930 . S
C882 C880 1.378 . S
C882 C883 1.367 . S
C883 C882 1.367 . S
C883 C885 1.433 1_545 S
C884 C880 1.350 . S
C884 C881 1.463 . S
C884 N888 1.427 1_545 S
C885 H875 0.929 . S
C885 C883 1.433 1_565 S
C885 N888 1.384 . S
C886 H877 0.929 . S
C886 C878 1.378 . S
C886 C881 1.350 1_565 S
C887 H874 0.929 . S
C887 C879 1.433 . S
C887 N889 1.384 . S
N888 C884 1.427 1_565 S
N888 C885 1.384 . S
N889 C881 1.427 . S
N889 C887 1.384 . S
H890 C896 0.930 . S
H891 C900 0.930 . S
H892 C905 0.929 . S
H893 C903 0.929 . S
H894 C898 0.929 . S
H895 C904 0.929 . S
C896 H890 0.930 . S
C896 C897 1.367 . S
C896 C904 1.378 . S
C897 C896 1.367 . S
C897 C905 1.433 . S
C898 H894 0.929 . S
C898 C900 1.378 . S
C898 C902 1.350 . S
C899 C902 1.463 . S
C899 C904 1.350 . S
C899 N907 1.427 . S
C900 H891 0.930 . S
C900 C898 1.378 . S
C900 C901 1.367 . S
C901 C900 1.367 . S
C901 C903 1.433 . S
C902 C898 1.350 . S
C902 C899 1.463 . S
C902 N906 1.427 . S
C903 H893 0.929 . S
C903 C901 1.433 . S
C903 N906 1.384 . S
C904 H895 0.929 . S
C904 C896 1.378 . S
C904 C899 1.350 . S
C905 H892 0.929 . S
C905 C897 1.433 . S
C905 N907 1.384 . S
N906 C902 1.427 . S
N906 C903 1.384 . S
N907 C899 1.427 . S
N907 C905 1.384 . S
H908 C914 0.930 . S
H909 C918 0.930 . S
H910 C923 0.929 1_565 S
H911 C921 0.929 . S
H912 C916 0.929 . S
H913 C922 0.929 . S
C914 H908 0.930 . S
C914 C915 1.367 . S
C914 C922 1.378 . S
C915 C914 1.367 . S
C915 C923 1.433 . S
C916 H912 0.929 . S
C916 C918 1.378 . S
C916 C920 1.350 . S
C917 C920 1.463 . S
C917 C922 1.350 . S
C917 N925 1.427 . S
C918 H909 0.930 . S
C918 C916 1.378 . S
C918 C919 1.367 . S
C919 C918 1.367 . S
C919 C921 1.433 . S
C920 C916 1.350 . S
C920 C917 1.463 . S
C920 N924 1.427 . S
C921 H911 0.929 . S
C921 C919 1.433 . S
C921 N924 1.384 . S
C922 H913 0.929 . S
C922 C914 1.378 . S
C922 C917 1.350 . S
C923 H910 0.929 1_545 S
C923 C915 1.433 . S
C923 N925 1.384 . S
N924 C920 1.427 . S
N924 C921 1.384 . S
N925 C917 1.427 . S
N925 C923 1.384 . S
H926 C932 0.930 . S
H927 C936 0.930 . S
H928 C941 0.929 . S
H929 C939 0.929 . S
H930 C934 0.929 . S
H931 C940 0.929 . S
C932 H926 0.930 . S
C932 C933 1.367 . S
C932 C940 1.378 . S
C933 C932 1.367 . S
C933 C941 1.433 . S
C934 H930 0.929 . S
C934 C936 1.378 . S
C934 C938 1.350 . S
C935 C938 1.463 . S
C935 C940 1.350 . S
C935 N943 1.427 . S
C936 H927 0.930 . S
C936 C934 1.378 . S
C936 C937 1.367 . S
C937 C936 1.367 . S
C937 C939 1.433 . S
C938 C934 1.350 . S
C938 C935 1.463 . S
C938 N942 1.427 . S
C939 H929 0.929 . S
C939 C937 1.433 . S
C939 N942 1.384 . S
C940 H931 0.929 . S
C940 C932 1.378 . S
C940 C935 1.350 . S
C941 H928 0.929 . S
C941 C933 1.433 . S
C941 N943 1.384 . S
N942 C938 1.427 . S
N942 C939 1.384 . S
N943 C935 1.427 . S
N943 C941 1.384 . S
H944 C950 0.930 . S
H945 C954 0.915 1_556 S
H946 C959 0.929 . S
H947 C957 0.929 . S
H948 C952 0.929 1_556 S
H949 C958 0.929 . S
C950 H944 0.930 . S
C950 C951 1.367 . S
C950 C958 1.378 . S
C951 C950 1.367 . S
C951 C959 1.433 1_554 S
C952 H948 0.929 1_554 S
C952 C954 1.378 . S
C952 C956 1.350 . S
C953 C956 1.463 . S
C953 C958 1.350 . S
C953 N961 1.439 . S
C954 H945 0.915 1_554 S
C954 C952 1.378 . S
C954 C955 1.367 . S
C955 C954 1.367 . S
C955 C957 1.433 . S
C956 C952 1.350 . S
C956 C953 1.463 . S
C956 N960 1.427 . S
C957 H947 0.929 . S
C957 C955 1.433 . S
C957 N960 1.384 . S
C958 H949 0.929 . S
C958 C950 1.378 . S
C958 C953 1.350 . S
C959 H946 0.929 . S
C959 C951 1.433 1_556 S
C959 N961 1.381 1_556 S
N960 C956 1.427 . S
N960 C957 1.384 . S
N961 C953 1.439 . S
N961 C959 1.381 1_554 S
H962 C968 0.930 . S
H963 C972 0.930 . S
H964 C977 0.929 . S
H965 C975 0.929 . S
H966 C970 0.929 . S
H967 C976 0.929 . S
C968 H962 0.930 . S
C968 C969 1.371 . S
C968 C976 1.378 . S
C969 C968 1.371 . S
C969 C977 1.431 1_554 S
C970 H966 0.929 . S
C970 C972 1.378 . S
C970 C974 1.350 1_556 S
C971 C974 1.463 . S
C971 C976 1.350 . S
C971 N979 1.427 1_554 S
C972 H963 0.930 . S
C972 C970 1.378 . S
C972 C973 1.367 1_556 S
C973 C972 1.367 1_554 S
C973 C975 1.433 . S
C974 C970 1.350 1_554 S
C974 C971 1.463 . S
C974 N978 1.427 . S
C975 H965 0.929 . S
C975 C973 1.433 . S
C975 N978 1.384 . S
C976 H967 0.929 . S
C976 C968 1.378 . S
C976 C971 1.350 . S
C977 H964 0.929 . S
C977 C969 1.431 1_556 S
C977 N979 1.384 . S
N978 C974 1.427 . S
N978 C975 1.384 . S
N979 C971 1.427 1_556 S
N979 C977 1.384 . S
H980 C986 0.930 . S
H981 C990 0.930 . S
H982 C995 0.929 . S
H983 C993 0.929 . S
H984 C988 0.929 . S
H985 C994 0.929 . S
C986 H980 0.930 . S
C986 C987 1.367 . S
C986 C994 1.378 . S
C987 C986 1.367 . S
C987 C995 1.433 . S
C988 H984 0.929 . S
C988 C990 1.378 . S
C988 C992 1.350 . S
C989 C992 1.463 . S
C989 C994 1.350 . S
C989 N997 1.427 . S
C990 H981 0.930 . S
C990 C988 1.378 . S
C990 C991 1.367 . S
C991 C990 1.367 . S
C991 C993 1.433 . S
C992 C988 1.350 . S
C992 C989 1.463 . S
C992 N996 1.427 . S
C993 H983 0.929 . S
C993 C991 1.433 . S
C993 N996 1.384 . S
C994 H985 0.929 . S
C994 C986 1.378 . S
C994 C989 1.350 . S
C995 H982 0.929 . S
C995 C987 1.433 . S
C995 N997 1.384 . S
N996 C992 1.427 . S
N996 C993 1.384 . S
N997 C989 1.427 . S
N997 C995 1.384 . S
H998 C1004 0.930 . S
H999 C1008 0.930 . S
H1000 C1013 0.929 . S
H1001 C1011 0.929 . S
H1002 C1006 0.929 . S
H1003 C1012 0.929 . S
C1004 H998 0.930 . S
C1004 C1005 1.367 . S
C1004 C1012 1.378 . S
C1005 C1004 1.367 . S
C1005 C1013 1.433 . S
C1006 H1002 0.929 . S
C1006 C1008 1.378 . S
C1006 C1010 1.350 . S
C1007 C1010 1.463 . S
C1007 C1012 1.350 . S
C1007 N1015 1.427 . S
C1008 H999 0.930 . S
C1008 C1006 1.378 . S
C1008 C1009 1.367 . S
C1009 C1008 1.367 . S
C1009 C1011 1.433 . S
C1010 C1006 1.350 . S
C1010 C1007 1.463 . S
C1010 N1014 1.427 . S
C1011 H1001 0.929 . S
C1011 C1009 1.433 . S
C1011 N1014 1.384 . S
C1012 H1003 0.929 . S
C1012 C1004 1.378 . S
C1012 C1007 1.350 . S
C1013 H1000 0.929 . S
C1013 C1005 1.433 . S
C1013 N1015 1.384 . S
N1014 C1010 1.427 . S
N1014 C1011 1.384 . S
N1015 C1007 1.427 . S
N1015 C1013 1.384 . S
H1016 C1022 0.930 . S
H1017 C1026 0.930 . S
H1018 C1031 0.929 . S
H1019 C1029 0.929 . S
H1020 C1024 0.929 . S
H1021 C1030 0.929 . S
C1022 H1016 0.930 . S
C1022 C1023 1.367 . S
C1022 C1030 1.378 . S
C1023 C1022 1.367 . S
C1023 C1031 1.433 . S
C1024 H1020 0.929 . S
C1024 C1026 1.378 . S
C1024 C1028 1.350 . S
C1025 C1028 1.463 . S
C1025 C1030 1.350 . S
C1025 N1033 1.427 . S
C1026 H1017 0.930 . S
C1026 C1024 1.378 . S
C1026 C1027 1.367 . S
C1027 C1026 1.367 . S
C1027 C1029 1.433 . S
C1028 C1024 1.350 . S
C1028 C1025 1.463 . S
C1028 N1032 1.427 . S
C1029 H1019 0.929 . S
C1029 C1027 1.433 . S
C1029 N1032 1.384 . S
C1030 H1021 0.929 . S
C1030 C1022 1.378 . S
C1030 C1025 1.350 . S
C1031 H1018 0.929 . S
C1031 C1023 1.433 . S
C1031 N1033 1.384 . S
N1032 C1028 1.427 . S
N1032 C1029 1.384 . S
N1033 C1025 1.427 . S
N1033 C1031 1.384 . S
H1034 C1040 0.930 . S
H1035 C1044 0.930 . S
H1036 C1049 0.929 . S
H1037 C1047 0.929 . S
H1038 C1042 0.929 . S
H1039 C1048 0.929 . S
C1040 H1034 0.930 . S
C1040 C1041 1.367 . S
C1040 C1048 1.378 . S
C1041 C1040 1.367 . S
C1041 C1049 1.433 . S
C1042 H1038 0.929 . S
C1042 C1044 1.378 . S
C1042 C1046 1.350 . S
C1043 C1046 1.463 . S
C1043 C1048 1.350 . S
C1043 N1051 1.427 . S
C1044 H1035 0.930 . S
C1044 C1042 1.378 . S
C1044 C1045 1.367 . S
C1045 C1044 1.367 . S
C1045 C1047 1.433 . S
C1046 C1042 1.350 . S
C1046 C1043 1.463 . S
C1046 N1050 1.427 . S
C1047 H1037 0.929 . S
C1047 C1045 1.433 . S
C1047 N1050 1.384 . S
C1048 H1039 0.929 . S
C1048 C1040 1.378 . S
C1048 C1043 1.350 . S
C1049 H1036 0.929 . S
C1049 C1041 1.433 . S
C1049 N1051 1.384 . S
N1050 C1046 1.427 . S
N1050 C1047 1.384 . S
N1051 C1043 1.427 . S
N1051 C1049 1.384 . S
H1052 C1058 0.930 . S
H1053 C1062 0.930 . S
H1054 C1067 0.929 . S
H1055 C1065 0.929 . S
H1056 C1060 0.929 . S
H1057 C1066 0.929 . S
C1058 H1052 0.930 . S
C1058 C1059 1.367 . S
C1058 C1066 1.378 . S
C1059 C1058 1.367 . S
C1059 C1067 1.433 . S
C1060 H1056 0.929 . S
C1060 C1062 1.378 . S
C1060 C1064 1.350 . S
C1061 C1064 1.463 . S
C1061 C1066 1.350 . S
C1061 N1069 1.427 . S
C1062 H1053 0.930 . S
C1062 C1060 1.378 . S
C1062 C1063 1.367 . S
C1063 C1062 1.367 . S
C1063 C1065 1.433 . S
C1064 C1060 1.350 . S
C1064 C1061 1.463 . S
C1064 N1068 1.427 . S
C1065 H1055 0.929 . S
C1065 C1063 1.433 . S
C1065 N1068 1.384 . S
C1066 H1057 0.929 . S
C1066 C1058 1.378 . S
C1066 C1061 1.350 . S
C1067 H1054 0.929 . S
C1067 C1059 1.433 . S
C1067 N1069 1.384 . S
N1068 C1064 1.427 . S
N1068 C1065 1.384 . S
N1069 C1061 1.427 . S
N1069 C1067 1.384 . S
H1070 C1076 0.930 . S
H1071 C1080 0.930 . S
H1072 C1085 0.929 . S
H1073 C1083 0.929 . S
H1074 C1078 0.929 . S
H1075 C1084 0.929 . S
C1076 H1070 0.930 . S
C1076 C1077 1.367 . S
C1076 C1084 1.378 . S
C1077 C1076 1.367 . S
C1077 C1085 1.433 . S
C1078 H1074 0.929 . S
C1078 C1080 1.378 . S
C1078 C1082 1.350 . S
C1079 C1082 1.463 . S
C1079 C1084 1.350 . S
C1079 N1087 1.427 . S
C1080 H1071 0.930 . S
C1080 C1078 1.378 . S
C1080 C1081 1.367 . S
C1081 C1080 1.367 . S
C1081 C1083 1.433 . S
C1082 C1078 1.350 . S
C1082 C1079 1.463 . S
C1082 N1086 1.427 . S
C1083 H1073 0.929 . S
C1083 C1081 1.433 . S
C1083 N1086 1.384 . S
C1084 H1075 0.929 . S
C1084 C1076 1.378 . S
C1084 C1079 1.350 . S
C1085 H1072 0.929 . S
C1085 C1077 1.433 . S
C1085 N1087 1.384 . S
N1086 C1082 1.427 . S
N1086 C1083 1.384 . S
N1087 C1079 1.427 . S
N1087 C1085 1.384 . S
H1088 C1094 0.930 . S
H1089 C1098 0.930 . S
H1090 C1103 0.929 . S
H1091 C1101 0.929 . S
H1092 C1096 0.929 . S
H1093 C1102 0.929 . S
C1094 H1088 0.930 . S
C1094 C1095 1.367 . S
C1094 C1102 1.378 . S
C1095 C1094 1.367 . S
C1095 C1103 1.433 . S
C1096 H1092 0.929 . S
C1096 C1098 1.378 . S
C1096 C1100 1.350 1_655 S
C1097 C1100 1.463 . S
C1097 C1102 1.350 . S
C1097 N1105 1.427 . S
C1098 H1089 0.930 . S
C1098 C1096 1.378 . S
C1098 C1099 1.367 1_655 S
C1099 C1098 1.367 1_455 S
C1099 C1101 1.433 . S
C1100 C1096 1.350 1_455 S
C1100 C1097 1.463 . S
C1100 N1104 1.427 . S
C1101 H1091 0.929 . S
C1101 C1099 1.433 . S
C1101 N1104 1.384 . S
C1102 H1093 0.929 . S
C1102 C1094 1.378 . S
C1102 C1097 1.350 . S
C1103 H1090 0.929 . S
C1103 C1095 1.433 . S
C1103 N1105 1.384 . S
N1104 C1100 1.427 . S
N1104 C1101 1.384 . S
N1105 C1097 1.427 . S
N1105 C1103 1.384 . S
H1106 C1112 0.930 . S
H1107 C1116 0.930 . S
H1108 C1121 0.929 . S
H1109 C1119 0.929 . S
H1110 C1114 0.929 . S
H1111 C1120 0.929 . S
C1112 H1106 0.930 . S
C1112 C1113 1.367 . S
C1112 C1120 1.378 . S
C1113 C1112 1.367 . S
C1113 C1121 1.433 . S
C1114 H1110 0.929 . S
C1114 C1116 1.378 . S
C1114 C1118 1.350 . S
C1115 C1118 1.463 . S
C1115 C1120 1.350 . S
C1115 N1123 1.427 . S
C1116 H1107 0.930 . S
C1116 C1114 1.378 . S
C1116 C1117 1.367 . S
C1117 C1116 1.367 . S
C1117 C1119 1.433 . S
C1118 C1114 1.350 . S
C1118 C1115 1.463 . S
C1118 N1122 1.427 . S
C1119 H1109 0.929 . S
C1119 C1117 1.433 . S
C1119 N1122 1.384 . S
C1120 H1111 0.929 . S
C1120 C1112 1.378 . S
C1120 C1115 1.350 . S
C1121 H1108 0.929 . S
C1121 C1113 1.433 . S
C1121 N1123 1.384 . S
N1122 C1118 1.427 . S
N1122 C1119 1.384 . S
N1123 C1115 1.427 . S
N1123 C1121 1.384 . S
H1124 C1130 0.930 . S
H1125 C1134 0.930 . S
H1126 C1139 0.929 . S
H1127 C1137 0.929 . S
H1128 C1132 0.929 . S
H1129 C1138 0.929 . S
C1130 H1124 0.930 . S
C1130 C1131 1.367 . S
C1130 C1138 1.378 . S
C1131 C1130 1.367 . S
C1131 C1139 1.433 . S
C1132 H1128 0.929 . S
C1132 C1134 1.378 . S
C1132 C1136 1.350 . S
C1133 C1136 1.463 . S
C1133 C1138 1.350 . S
C1133 N1141 1.427 . S
C1134 H1125 0.930 . S
C1134 C1132 1.378 . S
C1134 C1135 1.367 . S
C1135 C1134 1.367 . S
C1135 C1137 1.433 . S
C1136 C1132 1.350 . S
C1136 C1133 1.463 . S
C1136 N1140 1.427 . S
C1137 H1127 0.929 . S
C1137 C1135 1.433 . S
C1137 N1140 1.384 . S
C1138 H1129 0.929 . S
C1138 C1130 1.378 . S
C1138 C1133 1.350 . S
C1139 H1126 0.929 . S
C1139 C1131 1.433 . S
C1139 N1141 1.384 . S
N1140 C1136 1.427 . S
N1140 C1137 1.384 . S
N1141 C1133 1.427 . S
N1141 C1139 1.384 . S
H1142 C1148 0.930 . S
H1143 C1152 0.930 . S
H1144 C1157 0.929 . S
H1145 C1155 0.929 . S
H1146 C1150 0.929 . S
H1147 C1156 0.929 . S
C1148 H1142 0.930 . S
C1148 C1149 1.367 . S
C1148 C1156 1.378 . S
C1149 C1148 1.367 . S
C1149 C1157 1.433 . S
C1150 H1146 0.929 . S
C1150 C1152 1.378 . S
C1150 C1154 1.350 . S
C1151 C1154 1.463 . S
C1151 C1156 1.350 . S
C1151 N1159 1.427 . S
C1152 H1143 0.930 . S
C1152 C1150 1.378 . S
C1152 C1153 1.367 . S
C1153 C1152 1.367 . S
C1153 C1155 1.433 . S
C1154 C1150 1.350 . S
C1154 C1151 1.463 . S
C1154 N1158 1.427 . S
C1155 H1145 0.929 . S
C1155 C1153 1.433 . S
C1155 N1158 1.384 . S
C1156 H1147 0.929 . S
C1156 C1148 1.378 . S
C1156 C1151 1.350 . S
C1157 H1144 0.929 . S
C1157 C1149 1.433 . S
C1157 N1159 1.384 . S
N1158 C1154 1.427 . S
N1158 C1155 1.384 . S
N1159 C1151 1.427 . S
N1159 C1157 1.384 . S
H1160 C1166 0.930 . S
H1161 C1170 0.930 . S
H1162 C1175 0.929 1_655 S
H1163 C1173 0.929 . S
H1164 C1168 0.929 . S
H1165 C1174 0.929 . S
C1166 H1160 0.930 . S
C1166 C1167 1.367 . S
C1166 C1174 1.378 . S
C1167 C1166 1.367 . S
C1167 C1175 1.433 . S
C1168 H1164 0.929 . S
C1168 C1170 1.378 . S
C1168 C1172 1.350 1_655 S
C1169 C1172 1.463 . S
C1169 C1174 1.350 . S
C1169 N1177 1.427 . S
C1170 H1161 0.930 . S
C1170 C1168 1.378 . S
C1170 C1171 1.367 1_655 S
C1171 C1170 1.367 1_455 S
C1171 C1173 1.433 . S
C1172 C1168 1.350 1_455 S
C1172 C1169 1.463 . S
C1172 N1176 1.427 . S
C1173 H1163 0.929 . S
C1173 C1171 1.433 . S
C1173 N1176 1.384 . S
C1174 H1165 0.929 . S
C1174 C1166 1.378 . S
C1174 C1169 1.350 . S
C1175 H1162 0.929 1_455 S
C1175 C1167 1.433 . S
C1175 N1177 1.384 . S
N1176 C1172 1.427 . S
N1176 C1173 1.384 . S
N1177 C1169 1.427 . S
N1177 C1175 1.384 . S
H1178 C1184 0.930 . S
H1179 C1188 0.930 . S
H1180 C1193 0.929 . S
H1181 C1191 0.929 . S
H1182 C1186 0.929 . S
H1183 C1192 0.929 . S
C1184 H1178 0.930 . S
C1184 C1185 1.367 . S
C1184 C1192 1.378 . S
C1185 C1184 1.367 . S
C1185 C1193 1.433 . S
C1186 H1182 0.929 . S
C1186 C1188 1.378 . S
C1186 C1190 1.350 . S
C1187 C1190 1.463 . S
C1187 C1192 1.350 . S
C1187 N1195 1.427 . S
C1188 H1179 0.930 . S
C1188 C1186 1.378 . S
C1188 C1189 1.367 . S
C1189 C1188 1.367 . S
C1189 C1191 1.433 . S
C1190 C1186 1.350 . S
C1190 C1187 1.463 . S
C1190 N1194 1.427 . S
C1191 H1181 0.929 . S
C1191 C1189 1.433 . S
C1191 N1194 1.384 . S
C1192 H1183 0.929 . S
C1192 C1184 1.378 . S
C1192 C1187 1.350 . S
C1193 H1180 0.929 . S
C1193 C1185 1.433 . S
C1193 N1195 1.384 . S
N1194 C1190 1.427 . S
N1194 C1191 1.384 . S
N1195 C1187 1.427 . S
N1195 C1193 1.384 . S
H1196 C1202 0.930 . S
H1197 C1206 0.930 . S
H1198 C1211 0.929 . S
H1199 C1209 0.929 . S
H1200 C1204 0.929 . S
H1201 C1210 0.929 . S
C1202 H1196 0.930 . S
C1202 C1203 1.367 . S
C1202 C1210 1.378 . S
C1203 C1202 1.367 . S
C1203 C1211 1.433 . S
C1204 H1200 0.929 . S
C1204 C1206 1.378 1_556 S
C1204 C1208 1.350 . S
C1205 C1208 1.463 . S
C1205 C1210 1.350 . S
C1205 N1213 1.427 . S
C1206 H1197 0.930 . S
C1206 C1204 1.378 1_554 S
C1206 C1207 1.367 . S
C1207 C1206 1.367 . S
C1207 C1209 1.433 1_554 S
C1208 C1204 1.350 . S
C1208 C1205 1.463 . S
C1208 N1212 1.427 . S
C1209 H1199 0.929 . S
C1209 C1207 1.433 1_556 S
C1209 N1212 1.384 . S
C1210 H1201 0.929 . S
C1210 C1202 1.378 . S
C1210 C1205 1.350 . S
C1211 H1198 0.929 . S
C1211 C1203 1.433 . S
C1211 N1213 1.384 . S
N1212 C1208 1.427 . S
N1212 C1209 1.384 . S
N1213 C1205 1.427 . S
N1213 C1211 1.384 . S
H1214 C1220 0.930 . S
H1215 C1224 0.930 . S
H1216 C1229 0.929 . S
H1217 C1227 0.929 . S
H1218 C1222 0.929 . S
H1219 C1228 0.929 . S
C1220 H1214 0.930 . S
C1220 C1221 1.367 . S
C1220 C1228 1.378 . S
C1221 C1220 1.367 . S
C1221 C1229 1.433 . S
C1222 H1218 0.929 . S
C1222 C1224 1.378 . S
C1222 C1226 1.350 . S
C1223 C1226 1.463 . S
C1223 C1228 1.350 . S
C1223 N1231 1.427 . S
C1224 H1215 0.930 . S
C1224 C1222 1.378 . S
C1224 C1225 1.367 . S
C1225 C1224 1.367 . S
C1225 C1227 1.433 . S
C1226 C1222 1.350 . S
C1226 C1223 1.463 . S
C1226 N1230 1.427 . S
C1227 H1217 0.929 . S
C1227 C1225 1.433 . S
C1227 N1230 1.384 . S
C1228 H1219 0.929 . S
C1228 C1220 1.378 . S
C1228 C1223 1.350 . S
C1229 H1216 0.929 . S
C1229 C1221 1.433 . S
C1229 N1231 1.384 . S
N1230 C1226 1.427 . S
N1230 C1227 1.384 . S
N1231 C1223 1.427 . S
N1231 C1229 1.384 . S
H1232 C1238 0.930 1_565 S
H1233 C1242 0.930 . S
H1234 C1247 0.929 . S
H1235 C1245 0.929 . S
H1236 C1240 0.929 . S
H1237 C1246 0.929 . S
C1238 H1232 0.930 1_545 S
C1238 C1239 1.367 . S
C1238 C1246 1.378 1_545 S
C1239 C1238 1.367 . S
C1239 C1247 1.433 . S
C1240 H1236 0.929 . S
C1240 C1242 1.378 . S
C1240 C1244 1.350 . S
C1241 C1244 1.463 . S
C1241 C1246 1.350 1_545 S
C1241 N1249 1.427 . S
C1242 H1233 0.930 . S
C1242 C1240 1.378 . S
C1242 C1243 1.367 1_545 S
C1243 C1242 1.367 1_565 S
C1243 C1245 1.433 . S
C1244 C1240 1.350 . S
C1244 C1241 1.463 . S
C1244 N1248 1.427 1_545 S
C1245 H1235 0.929 . S
C1245 C1243 1.433 . S
C1245 N1248 1.384 . S
C1246 H1237 0.929 . S
C1246 C1238 1.378 1_565 S
C1246 C1241 1.350 1_565 S
C1247 H1234 0.929 . S
C1247 C1239 1.433 . S
C1247 N1249 1.384 . S
N1248 C1244 1.427 1_565 S
N1248 C1245 1.384 . S
N1249 C1241 1.427 . S
N1249 C1247 1.384 . S
H1250 C1256 0.930 . S
H1251 C1260 0.930 . S
H1252 C1265 0.929 . S
H1253 C1263 0.929 . S
H1254 C1258 0.929 . S
H1255 C1264 0.929 . S
C1256 H1250 0.930 . S
C1256 C1257 1.367 . S
C1256 C1264 1.378 . S
C1257 C1256 1.367 . S
C1257 C1265 1.433 . S
C1258 H1254 0.929 . S
C1258 C1260 1.378 . S
C1258 C1262 1.350 . S
C1259 C1262 1.463 . S
C1259 C1264 1.350 . S
C1259 N1267 1.427 . S
C1260 H1251 0.930 . S
C1260 C1258 1.378 . S
C1260 C1261 1.367 . S
C1261 C1260 1.367 . S
C1261 C1263 1.433 . S
C1262 C1258 1.350 . S
C1262 C1259 1.463 . S
C1262 N1266 1.427 . S
C1263 H1253 0.929 . S
C1263 C1261 1.433 . S
C1263 N1266 1.384 . S
C1264 H1255 0.929 . S
C1264 C1256 1.378 . S
C1264 C1259 1.350 . S
C1265 H1252 0.929 . S
C1265 C1257 1.433 . S
C1265 N1267 1.384 . S
N1266 C1262 1.427 . S
N1266 C1263 1.384 . S
N1267 C1259 1.427 . S
N1267 C1265 1.384 . S
H1268 C1274 0.930 . S
H1269 C1278 0.930 1_565 S
H1270 C1283 0.929 1_565 S
H1271 C1281 0.929 . S
H1272 C1276 0.929 1_565 S
H1273 C1282 0.929 . S
C1274 H1268 0.930 . S
C1274 C1275 1.367 . S
C1274 C1282 1.378 . S
C1275 C1274 1.367 . S
C1275 C1283 1.433 . S
C1276 H1272 0.929 1_545 S
C1276 C1278 1.378 . S
C1276 C1280 1.350 . S
C1277 C1280 1.463 . S
C1277 C1282 1.350 . S
C1277 N1285 1.427 . S
C1278 H1269 0.930 1_545 S
C1278 C1276 1.378 . S
C1278 C1279 1.367 . S
C1279 C1278 1.367 . S
C1279 C1281 1.433 . S
C1280 C1276 1.350 . S
C1280 C1277 1.463 . S
C1280 N1284 1.427 . S
C1281 H1271 0.929 . S
C1281 C1279 1.433 . S
C1281 N1284 1.384 . S
C1282 H1273 0.929 . S
C1282 C1274 1.378 . S
C1282 C1277 1.350 . S
C1283 H1270 0.929 1_545 S
C1283 C1275 1.433 . S
C1283 N1285 1.384 . S
N1284 C1280 1.427 . S
N1284 C1281 1.384 . S
N1285 C1277 1.427 . S
N1285 C1283 1.384 . S
H1286 C1292 0.930 . S
H1287 C1296 0.930 . S
H1288 C1301 0.929 . S
H1289 C1299 0.929 . S
H1290 C1294 0.929 . S
H1291 C1300 0.929 . S
C1292 H1286 0.930 . S
C1292 C1293 1.367 . S
C1292 C1300 1.378 . S
C1293 C1292 1.367 . S
C1293 C1301 1.433 . S
C1294 H1290 0.929 . S
C1294 C1296 1.378 . S
C1294 C1298 1.350 . S
C1295 C1298 1.463 . S
C1295 C1300 1.350 . S
C1295 N1303 1.427 . S
C1296 H1287 0.930 . S
C1296 C1294 1.378 . S
C1296 C1297 1.367 . S
C1297 C1296 1.367 . S
C1297 C1299 1.433 . S
C1298 C1294 1.350 . S
C1298 C1295 1.463 . S
C1298 N1302 1.427 . S
C1299 H1289 0.929 . S
C1299 C1297 1.433 . S
C1299 N1302 1.384 . S
C1300 H1291 0.929 . S
C1300 C1292 1.378 . S
C1300 C1295 1.350 . S
C1301 H1288 0.929 . S
C1301 C1293 1.433 . S
C1301 N1303 1.384 . S
N1302 C1298 1.427 . S
N1302 C1299 1.384 . S
N1303 C1295 1.427 . S
N1303 C1301 1.384 . S
H1304 C1310 0.930 . S
H1305 C1314 0.930 . S
H1306 C1319 0.929 . S
H1307 C1317 0.929 . S
H1308 C1312 0.929 . S
H1309 C1318 0.929 . S
C1310 H1304 0.930 . S
C1310 C1311 1.367 1_565 S
C1310 C1318 1.378 . S
C1311 C1310 1.367 1_545 S
C1311 C1319 1.433 . S
C1312 H1308 0.929 . S
C1312 C1314 1.378 . S
C1312 C1316 1.350 . S
C1313 C1316 1.463 . S
C1313 C1318 1.350 1_545 S
C1313 N1321 1.427 . S
C1314 H1305 0.930 . S
C1314 C1312 1.378 . S
C1314 C1315 1.367 . S
C1315 C1314 1.367 . S
C1315 C1317 1.433 1_545 S
C1316 C1312 1.350 . S
C1316 C1313 1.463 . S
C1316 N1320 1.427 1_545 S
C1317 H1307 0.929 . S
C1317 C1315 1.433 1_565 S
C1317 N1320 1.384 . S
C1318 H1309 0.929 . S
C1318 C1310 1.378 . S
C1318 C1313 1.350 1_565 S
C1319 H1306 0.929 . S
C1319 C1311 1.433 . S
C1319 N1321 1.384 . S
N1320 C1316 1.427 1_565 S
N1320 C1317 1.384 . S
N1321 C1313 1.427 . S
N1321 C1319 1.384 . S
H1322 C1328 0.930 . S
H1323 C1332 0.930 . S
H1324 C1337 0.929 . S
H1325 C1335 0.929 . S
H1326 C1330 0.929 . S
H1327 C1336 0.929 . S
C1328 H1322 0.930 . S
C1328 C1329 1.367 . S
C1328 C1336 1.378 . S
C1329 C1328 1.367 . S
C1329 C1337 1.433 . S
C1330 H1326 0.929 . S
C1330 C1332 1.378 . S
C1330 C1334 1.350 . S
C1331 C1334 1.463 . S
C1331 C1336 1.350 . S
C1331 N1339 1.427 . S
C1332 H1323 0.930 . S
C1332 C1330 1.378 . S
C1332 C1333 1.367 . S
C1333 C1332 1.367 . S
C1333 C1335 1.433 . S
C1334 C1330 1.350 . S
C1334 C1331 1.463 . S
C1334 N1338 1.427 . S
C1335 H1325 0.929 . S
C1335 C1333 1.433 . S
C1335 N1338 1.384 . S
C1336 H1327 0.929 . S
C1336 C1328 1.378 . S
C1336 C1331 1.350 . S
C1337 H1324 0.929 . S
C1337 C1329 1.433 . S
C1337 N1339 1.384 . S
N1338 C1334 1.427 . S
N1338 C1335 1.384 . S
N1339 C1331 1.427 . S
N1339 C1337 1.384 . S
H1340 C1346 0.930 . S
H1341 C1350 0.930 . S
H1342 C1355 0.929 . S
H1343 C1353 0.929 . S
H1344 C1348 0.929 . S
H1345 C1354 0.929 . S
C1346 H1340 0.930 . S
C1346 C1347 1.367 . S
C1346 C1354 1.378 . S
C1347 C1346 1.367 . S
C1347 C1355 1.433 1_545 S
C1348 H1344 0.929 . S
C1348 C1350 1.378 . S
C1348 C1352 1.350 1_565 S
C1349 C1352 1.463 . S
C1349 C1354 1.350 . S
C1349 N1357 1.427 1_545 S
C1350 H1341 0.930 . S
C1350 C1348 1.378 . S
C1350 C1351 1.367 . S
C1351 C1350 1.367 . S
C1351 C1353 1.433 1_565 S
C1352 C1348 1.350 1_545 S
C1352 C1349 1.463 . S
C1352 N1356 1.427 . S
C1353 H1343 0.929 . S
C1353 C1351 1.433 1_545 S
C1353 N1356 1.384 . S
C1354 H1345 0.929 . S
C1354 C1346 1.378 . S
C1354 C1349 1.350 . S
C1355 H1342 0.929 . S
C1355 C1347 1.433 1_565 S
C1355 N1357 1.384 . S
N1356 C1352 1.427 . S
N1356 C1353 1.384 . S
N1357 C1349 1.427 1_565 S
N1357 C1355 1.384 . S
H1358 C1364 0.930 . S
H1359 C1368 0.930 . S
H1360 C1373 0.929 . S
H1361 C1371 0.929 . S
H1362 C1366 0.929 . S
H1363 C1372 0.929 . S
C1364 H1358 0.930 . S
C1364 C1365 1.367 . S
C1364 C1372 1.378 . S
C1365 C1364 1.367 . S
C1365 C1373 1.433 . S
C1366 H1362 0.929 . S
C1366 C1368 1.378 . S
C1366 C1370 1.350 . S
C1367 C1370 1.463 . S
C1367 C1372 1.350 . S
C1367 N1375 1.427 . S
C1368 H1359 0.930 . S
C1368 C1366 1.378 . S
C1368 C1369 1.367 . S
C1369 C1368 1.367 . S
C1369 C1371 1.433 . S
C1370 C1366 1.350 . S
C1370 C1367 1.463 . S
C1370 N1374 1.427 . S
C1371 H1361 0.929 . S
C1371 C1369 1.433 . S
C1371 N1374 1.384 . S
C1372 H1363 0.929 . S
C1372 C1364 1.378 . S
C1372 C1367 1.350 . S
C1373 H1360 0.929 . S
C1373 C1365 1.433 . S
C1373 N1375 1.384 . S
N1374 C1370 1.427 . S
N1374 C1371 1.384 . S
N1375 C1367 1.427 . S
N1375 C1373 1.384 . S
H1376 C1382 0.930 1_556 S
H1377 C1386 0.930 . S
H1378 C1391 0.929 . S
H1379 C1389 0.929 . S
H1380 C1384 0.929 . S
H1381 C1390 0.929 . S
C1382 H1376 0.930 1_554 S
C1382 C1383 1.367 . S
C1382 C1390 1.378 1_554 S
C1383 C1382 1.367 . S
C1383 C1391 1.433 . S
C1384 H1380 0.929 . S
C1384 C1386 1.378 . S
C1384 C1388 1.350 . S
C1385 C1388 1.463 . S
C1385 C1390 1.350 1_554 S
C1385 N1393 1.427 . S
C1386 H1377 0.930 . S
C1386 C1384 1.378 . S
C1386 C1387 1.370 1_554 S
C1387 C1386 1.370 1_556 S
C1387 C1389 1.431 . S
C1388 C1384 1.350 . S
C1388 C1385 1.463 . S
C1388 N1392 1.427 1_554 S
C1389 H1379 0.929 . S
C1389 C1387 1.431 . S
C1389 N1392 1.384 . S
C1390 H1381 0.929 . S
C1390 C1382 1.378 1_556 S
C1390 C1385 1.350 1_556 S
C1391 H1378 0.929 . S
C1391 C1383 1.433 . S
C1391 N1393 1.384 . S
N1392 C1388 1.427 1_556 S
N1392 C1389 1.384 . S
N1393 C1385 1.427 . S
N1393 C1391 1.384 . S
H1394 C1400 0.930 . S
H1395 C1404 0.930 . S
H1396 C1409 0.929 . S
H1397 C1407 0.929 . S
H1398 C1402 0.929 . S
H1399 C1408 0.929 . S
C1400 H1394 0.930 . S
C1400 C1401 1.367 . S
C1400 C1408 1.378 . S
C1401 C1400 1.367 . S
C1401 C1409 1.433 . S
C1402 H1398 0.929 . S
C1402 C1404 1.378 . S
C1402 C1406 1.350 . S
C1403 C1406 1.463 . S
C1403 C1408 1.350 . S
C1403 N1411 1.427 . S
C1404 H1395 0.930 . S
C1404 C1402 1.378 . S
C1404 C1405 1.367 . S
C1405 C1404 1.367 . S
C1405 C1407 1.433 . S
C1406 C1402 1.350 . S
C1406 C1403 1.463 . S
C1406 N1410 1.427 . S
C1407 H1397 0.929 . S
C1407 C1405 1.433 . S
C1407 N1410 1.384 . S
C1408 H1399 0.929 . S
C1408 C1400 1.378 . S
C1408 C1403 1.350 . S
C1409 H1396 0.929 . S
C1409 C1401 1.433 . S
C1409 N1411 1.384 . S
N1410 C1406 1.427 . S
N1410 C1407 1.384 . S
N1411 C1403 1.427 . S
N1411 C1409 1.384 . S
H1412 C1418 0.930 . S
H1413 C1422 0.930 . S
H1414 C1427 0.929 . S
H1415 C1425 0.929 . S
H1416 C1420 0.929 . S
H1417 C1426 0.929 . S
C1418 H1412 0.930 . S
C1418 C1419 1.367 . S
C1418 C1426 1.378 . S
C1419 C1418 1.367 . S
C1419 C1427 1.433 . S
C1420 H1416 0.929 . S
C1420 C1422 1.378 . S
C1420 C1424 1.350 . S
C1421 C1424 1.463 . S
C1421 C1426 1.350 . S
C1421 N1429 1.427 . S
C1422 H1413 0.930 . S
C1422 C1420 1.378 . S
C1422 C1423 1.367 . S
C1423 C1422 1.367 . S
C1423 C1425 1.433 . S
C1424 C1420 1.350 . S
C1424 C1421 1.463 . S
C1424 N1428 1.427 . S
C1425 H1415 0.929 . S
C1425 C1423 1.433 . S
C1425 N1428 1.384 . S
C1426 H1417 0.929 . S
C1426 C1418 1.378 . S
C1426 C1421 1.350 . S
C1427 H1414 0.929 . S
C1427 C1419 1.433 . S
C1427 N1429 1.384 . S
N1428 C1424 1.427 . S
N1428 C1425 1.384 . S
N1429 C1421 1.427 . S
N1429 C1427 1.384 . S
H1430 C1436 0.930 . S
H1431 C1440 0.930 . S
H1432 C1445 0.929 . S
H1433 C1443 0.929 . S
H1434 C1438 0.929 . S
H1435 C1444 0.929 . S
C1436 H1430 0.930 . S
C1436 C1437 1.367 . S
C1436 C1444 1.378 . S
C1437 C1436 1.367 . S
C1437 C1445 1.433 . S
C1438 H1434 0.929 . S
C1438 C1440 1.378 . S
C1438 C1442 1.350 . S
C1439 C1442 1.463 . S
C1439 C1444 1.350 . S
C1439 N1447 1.427 . S
C1440 H1431 0.930 . S
C1440 C1438 1.378 . S
C1440 C1441 1.367 . S
C1441 C1440 1.367 . S
C1441 C1443 1.433 . S
C1442 C1438 1.350 . S
C1442 C1439 1.463 . S
C1442 N1446 1.427 . S
C1443 H1433 0.929 . S
C1443 C1441 1.433 . S
C1443 N1446 1.384 . S
C1444 H1435 0.929 . S
C1444 C1436 1.378 . S
C1444 C1439 1.350 . S
C1445 H1432 0.929 . S
C1445 C1437 1.433 . S
C1445 N1447 1.384 . S
N1446 C1442 1.427 . S
N1446 C1443 1.384 . S
N1447 C1439 1.427 . S
N1447 C1445 1.384 . S
H1448 C1454 0.930 . S
H1449 C1458 0.930 . S
H1450 C1463 0.929 . S
H1451 C1461 0.929 . S
H1452 C1456 0.929 . S
H1453 C1462 0.929 . S
C1454 H1448 0.930 . S
C1454 C1455 1.367 . S
C1454 C1462 1.378 . S
C1455 C1454 1.367 . S
C1455 C1463 1.433 . S
C1456 H1452 0.929 . S
C1456 C1458 1.378 . S
C1456 C1460 1.350 . S
C1457 C1460 1.463 . S
C1457 C1462 1.350 . S
C1457 N1465 1.427 . S
C1458 H1449 0.930 . S
C1458 C1456 1.378 . S
C1458 C1459 1.367 . S
C1459 C1458 1.367 . S
C1459 C1461 1.433 . S
C1460 C1456 1.350 . S
C1460 C1457 1.463 . S
C1460 N1464 1.427 . S
C1461 H1451 0.929 . S
C1461 C1459 1.433 . S
C1461 N1464 1.384 . S
C1462 H1453 0.929 . S
C1462 C1454 1.378 . S
C1462 C1457 1.350 . S
C1463 H1450 0.929 . S
C1463 C1455 1.433 . S
C1463 N1465 1.384 . S
N1464 C1460 1.427 . S
N1464 C1461 1.384 . S
N1465 C1457 1.427 . S
N1465 C1463 1.384 . S
H1466 C1472 0.930 . S
H1467 C1476 0.930 1_545 S
H1468 C1481 0.929 . S
H1469 C1479 0.929 . S
H1470 C1474 0.929 . S
H1471 C1480 0.929 . S
C1472 H1466 0.930 . S
C1472 C1473 1.367 . S
C1472 C1480 1.378 . S
C1473 C1472 1.367 . S
C1473 C1481 1.433 . S
C1474 H1470 0.929 . S
C1474 C1476 1.378 . S
C1474 C1478 1.350 . S
C1475 C1478 1.463 . S
C1475 C1480 1.350 . S
C1475 N1483 1.427 . S
C1476 H1467 0.930 1_565 S
C1476 C1474 1.378 . S
C1476 C1477 1.367 . S
C1477 C1476 1.367 . S
C1477 C1479 1.433 . S
C1478 C1474 1.350 . S
C1478 C1475 1.463 . S
C1478 N1482 1.427 . S
C1479 H1469 0.929 . S
C1479 C1477 1.433 . S
C1479 N1482 1.384 . S
C1480 H1471 0.929 . S
C1480 C1472 1.378 . S
C1480 C1475 1.350 . S
C1481 H1468 0.929 . S
C1481 C1473 1.433 . S
C1481 N1483 1.384 . S
N1482 C1478 1.427 . S
N1482 C1479 1.384 . S
N1483 C1475 1.427 . S
N1483 C1481 1.384 . S
H1484 C1490 0.930 . S
H1485 C1494 0.930 . S
H1486 C1499 0.929 . S
H1487 C1497 0.929 . S
H1488 C1492 0.929 . S
H1489 C1498 0.929 . S
C1490 H1484 0.930 . S
C1490 C1491 1.367 . S
C1490 C1498 1.378 . S
C1491 C1490 1.367 . S
C1491 C1499 1.433 . S
C1492 H1488 0.929 . S
C1492 C1494 1.378 . S
C1492 C1496 1.350 . S
C1493 C1496 1.463 . S
C1493 C1498 1.350 . S
C1493 N1501 1.427 . S
C1494 H1485 0.930 . S
C1494 C1492 1.378 . S
C1494 C1495 1.367 . S
C1495 C1494 1.367 . S
C1495 C1497 1.433 . S
C1496 C1492 1.350 . S
C1496 C1493 1.463 . S
C1496 N1500 1.427 . S
C1497 H1487 0.929 . S
C1497 C1495 1.433 . S
C1497 N1500 1.384 . S
C1498 H1489 0.929 . S
C1498 C1490 1.378 . S
C1498 C1493 1.350 . S
C1499 H1486 0.929 . S
C1499 C1491 1.433 . S
C1499 N1501 1.384 . S
N1500 C1496 1.427 . S
N1500 C1497 1.384 . S
N1501 C1493 1.427 . S
N1501 C1499 1.384 . S
H1502 C1508 0.930 . S
H1503 C1512 0.930 . S
H1504 C1517 0.929 . S
H1505 C1515 0.929 . S
H1506 C1510 0.929 . S
H1507 C1516 0.929 . S
C1508 H1502 0.930 . S
C1508 C1509 1.367 . S
C1508 C1516 1.378 . S
C1509 C1508 1.367 . S
C1509 C1517 1.433 . S
C1510 H1506 0.929 . S
C1510 C1512 1.378 . S
C1510 C1514 1.350 . S
C1511 C1514 1.463 . S
C1511 C1516 1.350 . S
C1511 N1519 1.427 . S
C1512 H1503 0.930 . S
C1512 C1510 1.378 . S
C1512 C1513 1.367 . S
C1513 C1512 1.367 . S
C1513 C1515 1.433 . S
C1514 C1510 1.350 . S
C1514 C1511 1.463 . S
C1514 N1518 1.427 . S
C1515 H1505 0.929 . S
C1515 C1513 1.433 . S
C1515 N1518 1.384 . S
C1516 H1507 0.929 . S
C1516 C1508 1.378 . S
C1516 C1511 1.350 . S
C1517 H1504 0.929 . S
C1517 C1509 1.433 . S
C1517 N1519 1.384 . S
N1518 C1514 1.427 . S
N1518 C1515 1.384 . S
N1519 C1511 1.427 . S
N1519 C1517 1.384 . S
H1520 C1526 0.930 . S
H1521 C1530 0.930 . S
H1522 C1535 0.929 . S
H1523 C1533 0.929 . S
H1524 C1528 0.929 . S
H1525 C1534 0.929 . S
C1526 H1520 0.930 . S
C1526 C1527 1.367 . S
C1526 C1534 1.378 . S
C1527 C1526 1.367 . S
C1527 C1535 1.433 . S
C1528 H1524 0.929 . S
C1528 C1530 1.378 . S
C1528 C1532 1.350 . S
C1529 C1532 1.463 . S
C1529 C1534 1.350 . S
C1529 N1537 1.427 . S
C1530 H1521 0.930 . S
C1530 C1528 1.378 . S
C1530 C1531 1.367 . S
C1531 C1530 1.367 . S
C1531 C1533 1.433 . S
C1532 C1528 1.350 . S
C1532 C1529 1.463 . S
C1532 N1536 1.427 . S
C1533 H1523 0.929 . S
C1533 C1531 1.433 . S
C1533 N1536 1.384 . S
C1534 H1525 0.929 . S
C1534 C1526 1.378 . S
C1534 C1529 1.350 . S
C1535 H1522 0.929 . S
C1535 C1527 1.433 . S
C1535 N1537 1.384 . S
N1536 C1532 1.427 . S
N1536 C1533 1.384 . S
N1537 C1529 1.427 . S
N1537 C1535 1.384 . S
H1538 C1544 0.930 . S
H1539 C1548 0.930 . S
H1540 C1553 0.929 . S
H1541 C1551 0.929 . S
H1542 C1546 0.929 . S
H1543 C1552 0.929 . S
C1544 H1538 0.930 . S
C1544 C1545 1.367 . S
C1544 C1552 1.378 . S
C1545 C1544 1.367 . S
C1545 C1553 1.433 . S
C1546 H1542 0.929 . S
C1546 C1548 1.378 . S
C1546 C1550 1.350 . S
C1547 C1550 1.463 . S
C1547 C1552 1.350 . S
C1547 N1555 1.427 . S
C1548 H1539 0.930 . S
C1548 C1546 1.378 . S
C1548 C1549 1.367 . S
C1549 C1548 1.367 . S
C1549 C1551 1.433 . S
C1550 C1546 1.350 . S
C1550 C1547 1.463 . S
C1550 N1554 1.427 . S
C1551 H1541 0.929 . S
C1551 C1549 1.433 . S
C1551 N1554 1.384 . S
C1552 H1543 0.929 . S
C1552 C1544 1.378 . S
C1552 C1547 1.350 . S
C1553 H1540 0.929 . S
C1553 C1545 1.433 . S
C1553 N1555 1.384 . S
N1554 C1550 1.427 . S
N1554 C1551 1.384 . S
N1555 C1547 1.427 . S
N1555 C1553 1.384 . S
H1556 C1562 0.930 . S
H1557 C1566 0.930 . S
H1558 C1571 0.929 . S
H1559 C1569 0.929 . S
H1560 C1564 0.929 . S
H1561 C1570 0.929 . S
C1562 H1556 0.930 . S
C1562 C1563 1.367 . S
C1562 C1570 1.378 . S
C1563 C1562 1.367 . S
C1563 C1571 1.433 1_455 S
C1564 H1560 0.929 . S
C1564 C1566 1.378 . S
C1564 C1568 1.350 1_655 S
C1565 C1568 1.463 . S
C1565 C1570 1.350 . S
C1565 N1573 1.427 1_455 S
C1566 H1557 0.930 . S
C1566 C1564 1.378 . S
C1566 C1567 1.367 1_655 S
C1567 C1566 1.367 1_455 S
C1567 C1569 1.433 1_556 S
C1568 C1564 1.350 1_455 S
C1568 C1565 1.463 . S
C1568 N1572 1.427 . S
C1569 H1559 0.929 . S
C1569 C1567 1.433 1_554 S
C1569 N1572 1.384 1_554 S
C1570 H1561 0.929 . S
C1570 C1562 1.378 . S
C1570 C1565 1.350 . S
C1571 H1558 0.929 . S
C1571 C1563 1.433 1_655 S
C1571 N1573 1.384 . S
N1572 C1568 1.427 . S
N1572 C1569 1.384 1_556 S
N1573 C1565 1.427 1_655 S
N1573 C1571 1.384 . S
H1574 C1580 0.930 . S
H1575 C1584 0.930 . S
H1576 C1589 0.929 . S
H1577 C1587 0.929 . S
H1578 C1582 0.929 . S
H1579 C1588 0.929 . S
C1580 H1574 0.930 . S
C1580 C1581 1.367 . S
C1580 C1588 1.378 . S
C1581 C1580 1.367 . S
C1581 C1589 1.433 . S
C1582 H1578 0.929 . S
C1582 C1584 1.378 . S
C1582 C1586 1.350 . S
C1583 C1586 1.463 . S
C1583 C1588 1.350 . S
C1583 N1591 1.427 . S
C1584 H1575 0.930 . S
C1584 C1582 1.378 . S
C1584 C1585 1.367 . S
C1585 C1584 1.367 . S
C1585 C1587 1.433 . S
C1586 C1582 1.350 . S
C1586 C1583 1.463 . S
C1586 N1590 1.427 . S
C1587 H1577 0.929 . S
C1587 C1585 1.433 . S
C1587 N1590 1.384 . S
C1588 H1579 0.929 . S
C1588 C1580 1.378 . S
C1588 C1583 1.350 . S
C1589 H1576 0.929 . S
C1589 C1581 1.433 . S
C1589 N1591 1.384 . S
N1590 C1586 1.427 . S
N1590 C1587 1.384 . S
N1591 C1583 1.427 . S
N1591 C1589 1.384 . S
H1592 C1598 0.930 . S
H1593 C1602 0.930 . S
H1594 C1607 0.929 . S
H1595 C1605 0.929 . S
H1596 C1600 0.929 . S
H1597 C1606 0.929 . S
C1598 H1592 0.930 . S
C1598 C1599 1.367 . S
C1598 C1606 1.378 . S
C1599 C1598 1.367 . S
C1599 C1607 1.433 . S
C1600 H1596 0.929 . S
C1600 C1602 1.378 . S
C1600 C1604 1.350 . S
C1601 C1604 1.463 . S
C1601 C1606 1.350 . S
C1601 N1609 1.427 . S
C1602 H1593 0.930 . S
C1602 C1600 1.378 . S
C1602 C1603 1.367 . S
C1603 C1602 1.367 . S
C1603 C1605 1.433 . S
C1604 C1600 1.350 . S
C1604 C1601 1.463 . S
C1604 N1608 1.427 . S
C1605 H1595 0.929 . S
C1605 C1603 1.433 . S
C1605 N1608 1.384 . S
C1606 H1597 0.929 . S
C1606 C1598 1.378 . S
C1606 C1601 1.350 . S
C1607 H1594 0.929 . S
C1607 C1599 1.433 . S
C1607 N1609 1.384 . S
N1608 C1604 1.427 . S
N1608 C1605 1.384 . S
N1609 C1601 1.427 . S
N1609 C1607 1.384 . S
H1610 C1616 0.930 . S
H1611 C1620 0.930 . S
H1612 C1625 0.929 . S
H1613 C1623 0.929 . S
H1614 C1618 0.929 . S
H1615 C1624 0.929 . S
C1616 H1610 0.930 . S
C1616 C1617 1.367 . S
C1616 C1624 1.378 . S
C1617 C1616 1.367 . S
C1617 C1625 1.433 . S
C1618 H1614 0.929 . S
C1618 C1620 1.378 . S
C1618 C1622 1.350 . S
C1619 C1622 1.463 . S
C1619 C1624 1.350 . S
C1619 N1627 1.427 . S
C1620 H1611 0.930 . S
C1620 C1618 1.378 . S
C1620 C1621 1.367 . S
C1621 C1620 1.367 . S
C1621 C1623 1.433 . S
C1622 C1618 1.350 . S
C1622 C1619 1.463 . S
C1622 N1626 1.427 . S
C1623 H1613 0.929 . S
C1623 C1621 1.433 . S
C1623 N1626 1.384 . S
C1624 H1615 0.929 . S
C1624 C1616 1.378 . S
C1624 C1619 1.350 . S
C1625 H1612 0.929 . S
C1625 C1617 1.433 . S
C1625 N1627 1.384 . S
N1626 C1622 1.427 . S
N1626 C1623 1.384 . S
N1627 C1619 1.427 . S
N1627 C1625 1.384 . S
H1628 C1634 0.930 . S
H1629 C1638 0.930 . S
H1630 C1643 0.929 . S
H1631 C1641 0.929 . S
H1632 C1636 0.929 . S
H1633 C1642 0.929 . S
C1634 H1628 0.930 . S
C1634 C1635 1.357 1_655 S
C1634 C1642 1.378 . S
C1635 C1634 1.357 1_455 S
C1635 C1643 1.448 . S
C1636 H1632 0.929 . S
C1636 C1638 1.378 . S
C1636 C1640 1.350 . S
C1637 C1640 1.463 . S
C1637 C1642 1.350 1_455 S
C1637 N1645 1.427 . S
C1638 H1629 0.930 . S
C1638 C1636 1.378 . S
C1638 C1639 1.367 . S
C1639 C1638 1.367 . S
C1639 C1641 1.433 1_455 S
C1640 C1636 1.350 . S
C1640 C1637 1.463 . S
C1640 N1644 1.427 1_455 S
C1641 H1631 0.929 . S
C1641 C1639 1.433 1_655 S
C1641 N1644 1.384 . S
C1642 H1633 0.929 . S
C1642 C1634 1.378 . S
C1642 C1637 1.350 1_655 S
C1643 H1630 0.929 . S
C1643 C1635 1.448 . S
C1643 N1645 1.384 . S
N1644 C1640 1.427 1_655 S
N1644 C1641 1.384 . S
N1645 C1637 1.427 . S
N1645 C1643 1.384 . S
H1646 C1652 0.930 . S
H1647 C1656 0.930 . S
H1648 C1661 0.929 . S
H1649 C1659 0.929 . S
H1650 C1654 0.929 . S
H1651 C1660 0.929 . S
C1652 H1646 0.930 . S
C1652 C1653 1.367 . S
C1652 C1660 1.378 . S
C1653 C1652 1.367 . S
C1653 C1661 1.433 . S
C1654 H1650 0.929 . S
C1654 C1656 1.378 . S
C1654 C1658 1.350 . S
C1655 C1658 1.463 . S
C1655 C1660 1.350 . S
C1655 N1663 1.427 . S
C1656 H1647 0.930 . S
C1656 C1654 1.378 . S
C1656 C1657 1.367 . S
C1657 C1656 1.367 . S
C1657 C1659 1.433 . S
C1658 C1654 1.350 . S
C1658 C1655 1.463 . S
C1658 N1662 1.427 . S
C1659 H1649 0.929 . S
C1659 C1657 1.433 . S
C1659 N1662 1.384 . S
C1660 H1651 0.929 . S
C1660 C1652 1.378 . S
C1660 C1655 1.350 . S
C1661 H1648 0.929 . S
C1661 C1653 1.433 . S
C1661 N1663 1.384 . S
N1662 C1658 1.427 . S
N1662 C1659 1.384 . S
N1663 C1655 1.427 . S
N1663 C1661 1.384 . S
H1664 C1670 0.930 . S
H1665 C1674 0.930 . S
H1666 C1679 0.929 . S
H1667 C1677 0.929 . S
H1668 C1672 0.929 . S
H1669 C1678 0.929 . S
C1670 H1664 0.930 . S
C1670 C1671 1.367 . S
C1670 C1678 1.378 . S
C1671 C1670 1.367 . S
C1671 C1679 1.433 . S
C1672 H1668 0.929 . S
C1672 C1674 1.378 . S
C1672 C1676 1.350 . S
C1673 C1676 1.463 . S
C1673 C1678 1.350 . S
C1673 N1681 1.427 . S
C1674 H1665 0.930 . S
C1674 C1672 1.378 . S
C1674 C1675 1.367 . S
C1675 C1674 1.367 . S
C1675 C1677 1.433 . S
C1676 C1672 1.350 . S
C1676 C1673 1.463 . S
C1676 N1680 1.427 . S
C1677 H1667 0.929 . S
C1677 C1675 1.433 . S
C1677 N1680 1.384 . S
C1678 H1669 0.929 . S
C1678 C1670 1.378 . S
C1678 C1673 1.350 . S
C1679 H1666 0.929 . S
C1679 C1671 1.433 . S
C1679 N1681 1.384 . S
N1680 C1676 1.427 . S
N1680 C1677 1.384 . S
N1681 C1673 1.427 . S
N1681 C1679 1.384 . S
H1682 C1688 0.930 . S
H1683 C1692 0.930 . S
H1684 C1697 0.929 . S
H1685 C1695 0.929 . S
H1686 C1690 0.929 . S
H1687 C1696 0.929 . S
C1688 H1682 0.930 . S
C1688 C1689 1.367 . S
C1688 C1696 1.378 . S
C1689 C1688 1.367 . S
C1689 C1697 1.433 . S
C1690 H1686 0.929 . S
C1690 C1692 1.378 . S
C1690 C1694 1.350 . S
C1691 C1694 1.463 . S
C1691 C1696 1.350 . S
C1691 N1699 1.427 . S
C1692 H1683 0.930 . S
C1692 C1690 1.378 . S
C1692 C1693 1.367 . S
C1693 C1692 1.367 . S
C1693 C1695 1.433 . S
C1694 C1690 1.350 . S
C1694 C1691 1.463 . S
C1694 N1698 1.427 . S
C1695 H1685 0.929 . S
C1695 C1693 1.433 . S
C1695 N1698 1.384 . S
C1696 H1687 0.929 . S
C1696 C1688 1.378 . S
C1696 C1691 1.350 . S
C1697 H1684 0.929 . S
C1697 C1689 1.433 . S
C1697 N1699 1.384 . S
N1698 C1694 1.427 . S
N1698 C1695 1.384 . S
N1699 C1691 1.427 . S
N1699 C1697 1.384 . S
H1700 C1706 0.930 . S
H1701 C1710 0.930 . S
H1702 C1715 0.929 . S
H1703 C1713 0.929 . S
H1704 C1708 0.929 . S
H1705 C1714 0.929 . S
C1706 H1700 0.930 . S
C1706 C1707 1.367 . S
C1706 C1714 1.378 . S
C1707 C1706 1.367 . S
C1707 C1715 1.433 . S
C1708 H1704 0.929 . S
C1708 C1710 1.378 . S
C1708 C1712 1.350 . S
C1709 C1712 1.463 . S
C1709 C1714 1.350 . S
C1709 N1717 1.427 . S
C1710 H1701 0.930 . S
C1710 C1708 1.378 . S
C1710 C1711 1.367 . S
C1711 C1710 1.367 . S
C1711 C1713 1.433 . S
C1712 C1708 1.350 . S
C1712 C1709 1.463 . S
C1712 N1716 1.427 . S
C1713 H1703 0.929 . S
C1713 C1711 1.433 . S
C1713 N1716 1.384 . S
C1714 H1705 0.929 . S
C1714 C1706 1.378 . S
C1714 C1709 1.350 . S
C1715 H1702 0.929 . S
C1715 C1707 1.433 . S
C1715 N1717 1.384 . S
N1716 C1712 1.427 . S
N1716 C1713 1.384 . S
N1717 C1709 1.427 . S
N1717 C1715 1.384 . S
H1718 C1724 0.930 . S
H1719 C1728 0.930 . S
H1720 C1733 0.929 . S
H1721 C1731 0.929 . S
H1722 C1726 0.929 . S
H1723 C1732 0.929 . S
C1724 H1718 0.930 . S
C1724 C1725 1.367 . S
C1724 C1732 1.378 . S
C1725 C1724 1.367 . S
C1725 C1733 1.433 . S
C1726 H1722 0.929 . S
C1726 C1728 1.378 . S
C1726 C1730 1.350 . S
C1727 C1730 1.463 . S
C1727 C1732 1.350 . S
C1727 N1735 1.427 . S
C1728 H1719 0.930 . S
C1728 C1726 1.378 . S
C1728 C1729 1.367 . S
C1729 C1728 1.367 . S
C1729 C1731 1.433 . S
C1730 C1726 1.350 . S
C1730 C1727 1.463 . S
C1730 N1734 1.427 . S
C1731 H1721 0.929 . S
C1731 C1729 1.433 . S
C1731 N1734 1.384 . S
C1732 H1723 0.929 . S
C1732 C1724 1.378 . S
C1732 C1727 1.350 . S
C1733 H1720 0.929 . S
C1733 C1725 1.433 . S
C1733 N1735 1.384 . S
N1734 C1730 1.427 . S
N1734 C1731 1.384 . S
N1735 C1727 1.427 . S
N1735 C1733 1.384 . S
H1736 C1742 0.930 . S
H1737 C1746 0.930 . S
H1738 C1751 0.929 . S
H1739 C1749 0.929 . S
H1740 C1744 0.929 . S
H1741 C1750 0.929 . S
C1742 H1736 0.930 . S
C1742 C1743 1.367 . S
C1742 C1750 1.378 . S
C1743 C1742 1.367 . S
C1743 C1751 1.433 . S
C1744 H1740 0.929 . S
C1744 C1746 1.378 . S
C1744 C1748 1.350 . S
C1745 C1748 1.463 . S
C1745 C1750 1.350 . S
C1745 N1753 1.427 . S
C1746 H1737 0.930 . S
C1746 C1744 1.378 . S
C1746 C1747 1.367 . S
C1747 C1746 1.367 . S
C1747 C1749 1.433 . S
C1748 C1744 1.350 . S
C1748 C1745 1.463 . S
C1748 N1752 1.427 . S
C1749 H1739 0.929 . S
C1749 C1747 1.433 . S
C1749 N1752 1.384 . S
C1750 H1741 0.929 . S
C1750 C1742 1.378 . S
C1750 C1745 1.350 . S
C1751 H1738 0.929 . S
C1751 C1743 1.433 . S
C1751 N1753 1.384 . S
N1752 C1748 1.427 . S
N1752 C1749 1.384 . S
N1753 C1745 1.427 . S
N1753 C1751 1.384 . S
H1754 C1760 0.930 . S
H1755 C1764 0.930 . S
H1756 C1769 0.929 . S
H1757 C1767 0.929 . S
H1758 C1762 0.929 . S
H1759 C1768 0.929 . S
C1760 H1754 0.930 . S
C1760 C1761 1.367 . S
C1760 C1768 1.378 . S
C1761 C1760 1.367 . S
C1761 C1769 1.433 . S
C1762 H1758 0.929 . S
C1762 C1764 1.378 . S
C1762 C1766 1.350 . S
C1763 C1766 1.463 . S
C1763 C1768 1.350 . S
C1763 N1771 1.427 . S
C1764 H1755 0.930 . S
C1764 C1762 1.378 . S
C1764 C1765 1.367 . S
C1765 C1764 1.367 . S
C1765 C1767 1.433 . S
C1766 C1762 1.350 . S
C1766 C1763 1.463 . S
C1766 N1770 1.427 . S
C1767 H1757 0.929 . S
C1767 C1765 1.433 . S
C1767 N1770 1.384 . S
C1768 H1759 0.929 . S
C1768 C1760 1.378 . S
C1768 C1763 1.350 . S
C1769 H1756 0.929 . S
C1769 C1761 1.433 . S
C1769 N1771 1.384 . S
N1770 C1766 1.427 . S
N1770 C1767 1.384 . S
N1771 C1763 1.427 . S
N1771 C1769 1.384 . S
H1772 C1778 0.930 . S
H1773 C1782 0.930 . S
H1774 C1787 0.929 . S
H1775 C1785 0.929 . S
H1776 C1780 0.929 . S
H1777 C1786 0.929 . S
C1778 H1772 0.930 . S
C1778 C1779 1.367 . S
C1778 C1786 1.378 . S
C1779 C1778 1.367 . S
C1779 C1787 1.433 . S
C1780 H1776 0.929 . S
C1780 C1782 1.378 . S
C1780 C1784 1.350 . S
C1781 C1784 1.463 . S
C1781 C1786 1.350 . S
C1781 N1789 1.427 . S
C1782 H1773 0.930 . S
C1782 C1780 1.378 . S
C1782 C1783 1.367 . S
C1783 C1782 1.367 . S
C1783 C1785 1.433 . S
C1784 C1780 1.350 . S
C1784 C1781 1.463 . S
C1784 N1788 1.427 . S
C1785 H1775 0.929 . S
C1785 C1783 1.433 . S
C1785 N1788 1.384 . S
C1786 H1777 0.929 . S
C1786 C1778 1.378 . S
C1786 C1781 1.350 . S
C1787 H1774 0.929 . S
C1787 C1779 1.433 . S
C1787 N1789 1.384 . S
N1788 C1784 1.427 . S
N1788 C1785 1.384 . S
N1789 C1781 1.427 . S
N1789 C1787 1.384 . S
H1790 C1796 0.930 . S
H1791 C1800 0.930 . S
H1792 C1805 0.929 . S
H1793 C1803 0.929 . S
H1794 C1798 0.929 . S
H1795 C1804 0.929 . S
C1796 H1790 0.930 . S
C1796 C1797 1.367 . S
C1796 C1804 1.378 . S
C1797 C1796 1.367 . S
C1797 C1805 1.433 . S
C1798 H1794 0.929 . S
C1798 C1800 1.378 . S
C1798 C1802 1.350 . S
C1799 C1802 1.463 . S
C1799 C1804 1.350 . S
C1799 N1807 1.427 . S
C1800 H1791 0.930 . S
C1800 C1798 1.378 . S
C1800 C1801 1.367 . S
C1801 C1800 1.367 . S
C1801 C1803 1.433 . S
C1802 C1798 1.350 . S
C1802 C1799 1.463 . S
C1802 N1806 1.427 . S
C1803 H1793 0.929 . S
C1803 C1801 1.433 . S
C1803 N1806 1.384 . S
C1804 H1795 0.929 . S
C1804 C1796 1.378 . S
C1804 C1799 1.350 . S
C1805 H1792 0.929 . S
C1805 C1797 1.433 . S
C1805 N1807 1.384 . S
N1806 C1802 1.427 . S
N1806 C1803 1.384 . S
N1807 C1799 1.427 . S
N1807 C1805 1.384 . S
H1808 C1814 0.930 . S
H1809 C1818 0.930 . S
H1810 C1823 0.929 . S
H1811 C1821 0.929 . S
H1812 C1816 0.929 . S
H1813 C1822 0.929 . S
C1814 H1808 0.930 . S
C1814 C1815 1.367 . S
C1814 C1822 1.378 . S
C1815 C1814 1.367 . S
C1815 C1823 1.433 . S
C1816 H1812 0.929 . S
C1816 C1818 1.378 . S
C1816 C1820 1.350 . S
C1817 C1820 1.463 . S
C1817 C1822 1.350 . S
C1817 N1825 1.427 . S
C1818 H1809 0.930 . S
C1818 C1816 1.378 . S
C1818 C1819 1.367 . S
C1819 C1818 1.367 . S
C1819 C1821 1.433 . S
C1820 C1816 1.350 . S
C1820 C1817 1.463 . S
C1820 N1824 1.427 . S
C1821 H1811 0.929 . S
C1821 C1819 1.433 . S
C1821 N1824 1.384 . S
C1822 H1813 0.929 . S
C1822 C1814 1.378 . S
C1822 C1817 1.350 . S
C1823 H1810 0.929 . S
C1823 C1815 1.433 . S
C1823 N1825 1.384 . S
N1824 C1820 1.427 . S
N1824 C1821 1.384 . S
N1825 C1817 1.427 . S
N1825 C1823 1.384 . S
H1826 C1832 0.930 . S
H1827 C1836 0.930 . S
H1828 C1841 0.929 . S
H1829 C1839 0.929 . S
H1830 C1834 0.929 . S
H1831 C1840 0.929 . S
C1832 H1826 0.930 . S
C1832 C1833 1.367 . S
C1832 C1840 1.378 . S
C1833 C1832 1.367 . S
C1833 C1841 1.433 . S
C1834 H1830 0.929 . S
C1834 C1836 1.378 . S
C1834 C1838 1.350 . S
C1835 C1838 1.463 . S
C1835 C1840 1.350 . S
C1835 N1843 1.427 . S
C1836 H1827 0.930 . S
C1836 C1834 1.378 . S
C1836 C1837 1.367 . S
C1837 C1836 1.367 . S
C1837 C1839 1.433 . S
C1838 C1834 1.350 . S
C1838 C1835 1.463 . S
C1838 N1842 1.427 . S
C1839 H1829 0.929 . S
C1839 C1837 1.433 . S
C1839 N1842 1.384 . S
C1840 H1831 0.929 . S
C1840 C1832 1.378 . S
C1840 C1835 1.350 . S
C1841 H1828 0.929 . S
C1841 C1833 1.433 . S
C1841 N1843 1.384 . S
N1842 C1838 1.427 . S
N1842 C1839 1.384 . S
N1843 C1835 1.427 . S
N1843 C1841 1.384 . S
H1844 C1850 0.930 . S
H1845 C1854 0.930 . S
H1846 C1859 0.929 . S
H1847 C1857 0.929 . S
H1848 C1852 0.929 . S
H1849 C1858 0.929 . S
C1850 H1844 0.930 . S
C1850 C1851 1.367 . S
C1850 C1858 1.378 . S
C1851 C1850 1.367 . S
C1851 C1859 1.433 . S
C1852 H1848 0.929 . S
C1852 C1854 1.378 . S
C1852 C1856 1.350 . S
C1853 C1856 1.463 . S
C1853 C1858 1.350 . S
C1853 N1861 1.427 . S
C1854 H1845 0.930 . S
C1854 C1852 1.378 . S
C1854 C1855 1.367 . S
C1855 C1854 1.367 . S
C1855 C1857 1.433 . S
C1856 C1852 1.350 . S
C1856 C1853 1.463 . S
C1856 N1860 1.427 . S
C1857 H1847 0.929 . S
C1857 C1855 1.433 . S
C1857 N1860 1.384 . S
C1858 H1849 0.929 . S
C1858 C1850 1.378 . S
C1858 C1853 1.350 . S
C1859 H1846 0.929 . S
C1859 C1851 1.433 . S
C1859 N1861 1.384 . S
N1860 C1856 1.427 . S
N1860 C1857 1.384 . S
N1861 C1853 1.427 . S
N1861 C1859 1.384 . S
H1862 C1868 0.930 . S
H1863 C1872 0.930 1_556 S
H1864 C1877 0.929 1_556 S
H1865 C1875 0.929 1_545 S
H1866 C1870 0.929 1_556 S
H1867 C1876 0.929 . S
C1868 H1862 0.930 . S
C1868 C1869 1.367 . S
C1868 C1876 1.378 . S
C1869 C1868 1.367 . S
C1869 C1877 1.433 . S
C1870 H1866 0.929 1_554 S
C1870 C1872 1.378 . S
C1870 C1874 1.350 . S
C1871 C1874 1.463 . S
C1871 C1876 1.350 . S
C1871 N1879 1.427 . S
C1872 H1863 0.930 1_554 S
C1872 C1870 1.378 . S
C1872 C1873 1.367 . S
C1873 C1872 1.367 . S
C1873 C1875 1.433 . S
C1874 C1870 1.350 . S
C1874 C1871 1.463 . S
C1874 N1878 1.427 . S
C1875 H1865 0.929 1_565 S
C1875 C1873 1.433 . S
C1875 N1878 1.384 . S
C1876 H1867 0.929 . S
C1876 C1868 1.378 . S
C1876 C1871 1.350 . S
C1877 H1864 0.929 1_554 S
C1877 C1869 1.433 . S
C1877 N1879 1.384 . S
N1878 C1874 1.427 . S
N1878 C1875 1.384 . S
N1879 C1871 1.427 . S
N1879 C1877 1.384 . S
H1880 C1886 0.930 . S
H1881 C1890 0.930 . S
H1882 C1895 0.929 . S
H1883 C1893 0.929 . S
H1884 C1888 0.929 . S
H1885 C1894 0.929 . S
C1886 H1880 0.930 . S
C1886 C1887 1.367 . S
C1886 C1894 1.378 . S
C1887 C1886 1.367 . S
C1887 C1895 1.433 . S
C1888 H1884 0.929 . S
C1888 C1890 1.378 . S
C1888 C1892 1.350 . S
C1889 C1892 1.463 . S
C1889 C1894 1.350 . S
C1889 N1897 1.427 . S
C1890 H1881 0.930 . S
C1890 C1888 1.378 . S
C1890 C1891 1.367 . S
C1891 C1890 1.367 . S
C1891 C1893 1.433 . S
C1892 C1888 1.350 . S
C1892 C1889 1.463 . S
C1892 N1896 1.427 . S
C1893 H1883 0.929 . S
C1893 C1891 1.433 . S
C1893 N1896 1.384 . S
C1894 H1885 0.929 . S
C1894 C1886 1.378 . S
C1894 C1889 1.350 . S
C1895 H1882 0.929 . S
C1895 C1887 1.433 . S
C1895 N1897 1.384 . S
N1896 C1892 1.427 . S
N1896 C1893 1.384 . S
N1897 C1889 1.427 . S
N1897 C1895 1.384 . S
H1898 C1904 0.930 . S
H1899 C1908 0.930 1_556 S
H1900 C1913 0.929 . S
H1901 C1911 0.929 . S
H1902 C1906 0.893 1_556 S
H1903 C1912 0.929 . S
C1904 H1898 0.930 . S
C1904 C1905 1.367 . S
C1904 C1912 1.378 . S
C1905 C1904 1.367 . S
C1905 C1913 1.433 1_554 S
C1906 H1902 0.893 1_554 S
C1906 C1908 1.386 . S
C1906 C1910 1.379 . S
C1907 C1910 1.463 . S
C1907 C1912 1.350 . S
C1907 N1915 1.427 1_554 S
C1908 H1899 0.930 1_554 S
C1908 C1906 1.386 . S
C1908 C1909 1.367 . S
C1909 C1908 1.367 . S
C1909 C1911 1.433 . S
C1910 C1906 1.379 . S
C1910 C1907 1.463 . S
C1910 N1914 1.427 . S
C1911 H1901 0.929 . S
C1911 C1909 1.433 . S
C1911 N1914 1.384 . S
C1912 H1903 0.929 . S
C1912 C1904 1.378 . S
C1912 C1907 1.350 . S
C1913 H1900 0.929 . S
C1913 C1905 1.433 1_556 S
C1913 N1915 1.384 . S
N1914 C1910 1.427 . S
N1914 C1911 1.384 . S
N1915 C1907 1.427 1_556 S
N1915 C1913 1.384 . S
H1916 C1922 0.930 . S
H1917 C1926 0.930 . S
H1918 C1931 0.929 . S
H1919 C1929 0.929 . S
H1920 C1924 0.929 . S
H1921 C1930 0.929 . S
C1922 H1916 0.930 . S
C1922 C1923 1.367 . S
C1922 C1930 1.378 . S
C1923 C1922 1.367 . S
C1923 C1931 1.433 . S
C1924 H1920 0.929 . S
C1924 C1926 1.378 . S
C1924 C1928 1.350 . S
C1925 C1928 1.463 . S
C1925 C1930 1.350 . S
C1925 N1933 1.427 . S
C1926 H1917 0.930 . S
C1926 C1924 1.378 . S
C1926 C1927 1.367 . S
C1927 C1926 1.367 . S
C1927 C1929 1.433 . S
C1928 C1924 1.350 . S
C1928 C1925 1.463 . S
C1928 N1932 1.427 . S
C1929 H1919 0.929 . S
C1929 C1927 1.433 . S
C1929 N1932 1.384 . S
C1930 H1921 0.929 . S
C1930 C1922 1.378 . S
C1930 C1925 1.350 . S
C1931 H1918 0.929 . S
C1931 C1923 1.433 . S
C1931 N1933 1.384 . S
N1932 C1928 1.427 . S
N1932 C1929 1.384 . S
N1933 C1925 1.427 . S
N1933 C1931 1.384 . S
H1934 C1940 0.930 . S
H1935 C1944 0.930 . S
H1936 C1949 0.929 . S
H1937 C1947 0.929 . S
H1938 C1942 0.929 . S
H1939 C1948 0.929 . S
C1940 H1934 0.930 . S
C1940 C1941 1.367 . S
C1940 C1948 1.378 . S
C1941 C1940 1.367 . S
C1941 C1949 1.433 . S
C1942 H1938 0.929 . S
C1942 C1944 1.378 . S
C1942 C1946 1.350 . S
C1943 C1946 1.463 . S
C1943 C1948 1.350 . S
C1943 N1951 1.427 . S
C1944 H1935 0.930 . S
C1944 C1942 1.378 . S
C1944 C1945 1.367 . S
C1945 C1944 1.367 . S
C1945 C1947 1.433 . S
C1946 C1942 1.350 . S
C1946 C1943 1.463 . S
C1946 N1950 1.427 . S
C1947 H1937 0.929 . S
C1947 C1945 1.433 . S
C1947 N1950 1.384 . S
C1948 H1939 0.929 . S
C1948 C1940 1.378 . S
C1948 C1943 1.350 . S
C1949 H1936 0.929 . S
C1949 C1941 1.433 . S
C1949 N1951 1.384 . S
N1950 C1946 1.427 . S
N1950 C1947 1.384 . S
N1951 C1943 1.427 . S
N1951 C1949 1.384 . S
H1952 C1958 0.930 . S
H1953 C1962 0.930 . S
H1954 C1967 0.929 . S
H1955 C1965 0.929 . S
H1956 C1960 0.929 . S
H1957 C1966 0.929 . S
C1958 H1952 0.930 . S
C1958 C1959 1.367 . S
C1958 C1966 1.378 . S
C1959 C1958 1.367 . S
C1959 C1967 1.433 . S
C1960 H1956 0.929 . S
C1960 C1962 1.378 . S
C1960 C1964 1.350 . S
C1961 C1964 1.463 . S
C1961 C1966 1.350 . S
C1961 N1969 1.427 . S
C1962 H1953 0.930 . S
C1962 C1960 1.378 . S
C1962 C1963 1.367 . S
C1963 C1962 1.367 . S
C1963 C1965 1.433 . S
C1964 C1960 1.350 . S
C1964 C1961 1.463 . S
C1964 N1968 1.427 . S
C1965 H1955 0.929 . S
C1965 C1963 1.433 . S
C1965 N1968 1.384 . S
C1966 H1957 0.929 . S
C1966 C1958 1.378 . S
C1966 C1961 1.350 . S
C1967 H1954 0.929 . S
C1967 C1959 1.433 . S
C1967 N1969 1.384 . S
N1968 C1964 1.427 . S
N1968 C1965 1.384 . S
N1969 C1961 1.427 . S
N1969 C1967 1.384 . S
H1970 C1976 0.930 . S
H1971 C1980 0.930 . S
H1972 C1985 0.929 . S
H1973 C1983 0.929 . S
H1974 C1978 0.929 . S
H1975 C1984 0.929 . S
C1976 H1970 0.930 . S
C1976 C1977 1.367 . S
C1976 C1984 1.378 . S
C1977 C1976 1.367 . S
C1977 C1985 1.433 . S
C1978 H1974 0.929 . S
C1978 C1980 1.378 . S
C1978 C1982 1.350 . S
C1979 C1982 1.463 . S
C1979 C1984 1.350 . S
C1979 N1987 1.427 . S
C1980 H1971 0.930 . S
C1980 C1978 1.378 . S
C1980 C1981 1.367 . S
C1981 C1980 1.367 . S
C1981 C1983 1.433 . S
C1982 C1978 1.350 . S
C1982 C1979 1.463 . S
C1982 N1986 1.427 . S
C1983 H1973 0.929 . S
C1983 C1981 1.433 . S
C1983 N1986 1.384 . S
C1984 H1975 0.929 . S
C1984 C1976 1.378 . S
C1984 C1979 1.350 . S
C1985 H1972 0.929 . S
C1985 C1977 1.433 . S
C1985 N1987 1.384 . S
N1986 C1982 1.427 . S
N1986 C1983 1.384 . S
N1987 C1979 1.427 . S
N1987 C1985 1.384 . S
H1988 C1994 0.930 . S
H1989 C1998 0.917 1_655 S
H1990 C2003 0.929 1_655 S
H1991 C2001 0.929 . S
H1992 C1996 0.929 1_655 S
H1993 C2002 0.929 . S
C1994 H1988 0.930 . S
C1994 C1995 1.367 . S
C1994 C2002 1.378 . S
C1995 C1994 1.367 . S
C1995 C2003 1.433 . S
C1996 H1992 0.929 1_455 S
C1996 C1998 1.375 . S
C1996 C2000 1.350 . S
C1997 C2000 1.463 . S
C1997 C2002 1.350 . S
C1997 N2005 1.427 . S
C1998 H1989 0.917 1_455 S
C1998 C1996 1.375 . S
C1998 C1999 1.384 . S
C1999 C1998 1.384 . S
C1999 C2001 1.433 . S
C2000 C1996 1.350 . S
C2000 C1997 1.463 . S
C2000 N2004 1.427 . S
C2001 H1991 0.929 . S
C2001 C1999 1.433 . S
C2001 N2004 1.384 . S
C2002 H1993 0.929 . S
C2002 C1994 1.378 . S
C2002 C1997 1.350 . S
C2003 H1990 0.929 1_455 S
C2003 C1995 1.433 . S
C2003 N2005 1.384 . S
N2004 C2000 1.427 . S
N2004 C2001 1.384 . S
N2005 C1997 1.427 . S
N2005 C2003 1.384 . S
H2006 C2012 0.930 . S
H2007 C2016 0.930 . S
H2008 C2021 0.929 . S
H2009 C2019 0.929 . S
H2010 C2014 0.929 . S
H2011 C2020 0.929 . S
C2012 H2006 0.930 . S
C2012 C2013 1.367 . S
C2012 C2020 1.378 . S
C2013 C2012 1.367 . S
C2013 C2021 1.433 . S
C2014 H2010 0.929 . S
C2014 C2016 1.378 . S
C2014 C2018 1.350 . S
C2015 C2018 1.463 . S
C2015 C2020 1.350 . S
C2015 N2023 1.427 . S
C2016 H2007 0.930 . S
C2016 C2014 1.378 . S
C2016 C2017 1.367 . S
C2017 C2016 1.367 . S
C2017 C2019 1.433 . S
C2018 C2014 1.350 . S
C2018 C2015 1.463 . S
C2018 N2022 1.427 . S
C2019 H2009 0.929 . S
C2019 C2017 1.433 . S
C2019 N2022 1.384 . S
C2020 H2011 0.929 . S
C2020 C2012 1.378 . S
C2020 C2015 1.350 . S
C2021 H2008 0.929 . S
C2021 C2013 1.433 . S
C2021 N2023 1.384 . S
N2022 C2018 1.427 . S
N2022 C2019 1.384 . S
N2023 C2015 1.427 . S
N2023 C2021 1.384 . S
H2024 C2030 0.930 . S
H2025 C2034 0.930 . S
H2026 C2039 0.929 . S
H2027 C2037 0.929 . S
H2028 C2032 0.929 1_554 S
H2029 C2038 0.929 . S
C2030 H2024 0.930 . S
C2030 C2031 1.367 . S
C2030 C2038 1.378 . S
C2031 C2030 1.367 . S
C2031 C2039 1.433 . S
C2032 H2028 0.929 1_556 S
C2032 C2034 1.378 1_556 S
C2032 C2036 1.350 . S
C2033 C2036 1.463 . S
C2033 C2038 1.350 . S
C2033 N2041 1.427 . S
C2034 H2025 0.930 . S
C2034 C2032 1.378 1_554 S
C2034 C2035 1.367 1_554 S
C2035 C2034 1.367 1_556 S
C2035 C2037 1.433 . S
C2036 C2032 1.350 . S
C2036 C2033 1.463 . S
C2036 N2040 1.427 . S
C2037 H2027 0.929 . S
C2037 C2035 1.433 . S
C2037 N2040 1.384 . S
C2038 H2029 0.929 . S
C2038 C2030 1.378 . S
C2038 C2033 1.350 . S
C2039 H2026 0.929 . S
C2039 C2031 1.433 . S
C2039 N2041 1.384 . S
N2040 C2036 1.427 . S
N2040 C2037 1.384 . S
N2041 C2033 1.427 . S
N2041 C2039 1.384 . S
H2042 C2048 0.930 . S
H2043 C2052 0.930 . S
H2044 C2057 0.929 . S
H2045 C2055 0.929 . S
H2046 C2050 0.929 . S
H2047 C2056 0.929 . S
C2048 H2042 0.930 . S
C2048 C2049 1.367 . S
C2048 C2056 1.378 . S
C2049 C2048 1.367 . S
C2049 C2057 1.433 . S
C2050 H2046 0.929 . S
C2050 C2052 1.378 . S
C2050 C2054 1.350 . S
C2051 C2054 1.463 . S
C2051 C2056 1.350 . S
C2051 N2059 1.427 . S
C2052 H2043 0.930 . S
C2052 C2050 1.378 . S
C2052 C2053 1.367 . S
C2053 C2052 1.367 . S
C2053 C2055 1.433 . S
C2054 C2050 1.350 . S
C2054 C2051 1.463 . S
C2054 N2058 1.427 . S
C2055 H2045 0.929 . S
C2055 C2053 1.433 . S
C2055 N2058 1.384 . S
C2056 H2047 0.929 . S
C2056 C2048 1.378 . S
C2056 C2051 1.350 . S
C2057 H2044 0.929 . S
C2057 C2049 1.433 . S
C2057 N2059 1.384 . S
N2058 C2054 1.427 . S
N2058 C2055 1.384 . S
N2059 C2051 1.427 . S
N2059 C2057 1.384 . S
H2060 C2066 0.930 . S
H2061 C2070 0.930 . S
H2062 C2075 0.929 . S
H2063 C2073 0.929 1_655 S
H2064 C2068 0.929 . S
H2065 C2074 0.941 . S
C2066 H2060 0.930 . S
C2066 C2067 1.367 . S
C2066 C2074 1.378 . S
C2067 C2066 1.367 . S
C2067 C2075 1.433 . S
C2068 H2064 0.929 . S
C2068 C2070 1.378 . S
C2068 C2072 1.350 . S
C2069 C2072 1.463 . S
C2069 C2074 1.350 . S
C2069 N2077 1.427 . S
C2070 H2061 0.930 . S
C2070 C2068 1.378 . S
C2070 C2071 1.367 . S
C2071 C2070 1.367 . S
C2071 C2073 1.433 . S
C2072 C2068 1.350 . S
C2072 C2069 1.463 . S
C2072 N2076 1.427 . S
C2073 H2063 0.929 1_455 S
C2073 C2071 1.433 . S
C2073 N2076 1.384 . S
C2074 H2065 0.941 . S
C2074 C2066 1.378 . S
C2074 C2069 1.350 . S
C2075 H2062 0.929 . S
C2075 C2067 1.433 . S
C2075 N2077 1.384 . S
N2076 C2072 1.427 . S
N2076 C2073 1.384 . S
N2077 C2069 1.427 . S
N2077 C2075 1.384 . S
H2078 C2084 0.930 . S
H2079 C2088 0.930 . S
H2080 C2093 0.929 . S
H2081 C2091 0.929 . S
H2082 C2086 0.929 . S
H2083 C2092 0.929 . S
C2084 H2078 0.930 . S
C2084 C2085 1.367 . S
C2084 C2092 1.378 . S
C2085 C2084 1.367 . S
C2085 C2093 1.433 . S
C2086 H2082 0.929 . S
C2086 C2088 1.378 . S
C2086 C2090 1.350 . S
C2087 C2090 1.463 . S
C2087 C2092 1.350 . S
C2087 N2095 1.427 . S
C2088 H2079 0.930 . S
C2088 C2086 1.378 . S
C2088 C2089 1.367 . S
C2089 C2088 1.367 . S
C2089 C2091 1.433 . S
C2090 C2086 1.350 . S
C2090 C2087 1.463 . S
C2090 N2094 1.427 . S
C2091 H2081 0.929 . S
C2091 C2089 1.433 . S
C2091 N2094 1.384 . S
C2092 H2083 0.929 . S
C2092 C2084 1.378 . S
C2092 C2087 1.350 . S
C2093 H2080 0.929 . S
C2093 C2085 1.433 . S
C2093 N2095 1.384 . S
N2094 C2090 1.427 . S
N2094 C2091 1.384 . S
N2095 C2087 1.427 . S
N2095 C2093 1.384 . S
H2096 C2102 0.930 . S
H2097 C2106 0.930 . S
H2098 C2111 0.929 . S
H2099 C2109 0.929 . S
H2100 C2104 0.929 . S
H2101 C2110 0.929 . S
C2102 H2096 0.930 . S
C2102 C2103 1.367 . S
C2102 C2110 1.378 . S
C2103 C2102 1.367 . S
C2103 C2111 1.433 . S
C2104 H2100 0.929 . S
C2104 C2106 1.378 . S
C2104 C2108 1.350 . S
C2105 C2108 1.463 . S
C2105 C2110 1.350 . S
C2105 N2113 1.427 . S
C2106 H2097 0.930 . S
C2106 C2104 1.378 . S
C2106 C2107 1.367 . S
C2107 C2106 1.367 . S
C2107 C2109 1.433 . S
C2108 C2104 1.350 . S
C2108 C2105 1.463 . S
C2108 N2112 1.427 . S
C2109 H2099 0.929 . S
C2109 C2107 1.433 . S
C2109 N2112 1.384 . S
C2110 H2101 0.929 . S
C2110 C2102 1.378 . S
C2110 C2105 1.350 . S
C2111 H2098 0.929 . S
C2111 C2103 1.433 . S
C2111 N2113 1.384 . S
N2112 C2108 1.427 . S
N2112 C2109 1.384 . S
N2113 C2105 1.427 . S
N2113 C2111 1.384 . S
H2114 C2120 0.930 . S
H2115 C2124 0.930 . S
H2116 C2129 0.929 . S
H2117 C2127 0.929 . S
H2118 C2122 0.929 . S
H2119 C2128 0.929 . S
C2120 H2114 0.930 . S
C2120 C2121 1.367 . S
C2120 C2128 1.378 . S
C2121 C2120 1.367 . S
C2121 C2129 1.433 . S
C2122 H2118 0.929 . S
C2122 C2124 1.378 . S
C2122 C2126 1.350 . S
C2123 C2126 1.463 . S
C2123 C2128 1.350 . S
C2123 N2131 1.427 . S
C2124 H2115 0.930 . S
C2124 C2122 1.378 . S
C2124 C2125 1.367 . S
C2125 C2124 1.367 . S
C2125 C2127 1.433 . S
C2126 C2122 1.350 . S
C2126 C2123 1.463 . S
C2126 N2130 1.427 . S
C2127 H2117 0.929 . S
C2127 C2125 1.433 . S
C2127 N2130 1.384 . S
C2128 H2119 0.929 . S
C2128 C2120 1.378 . S
C2128 C2123 1.350 . S
C2129 H2116 0.929 . S
C2129 C2121 1.433 . S
C2129 N2131 1.384 . S
N2130 C2126 1.427 . S
N2130 C2127 1.384 . S
N2131 C2123 1.427 . S
N2131 C2129 1.384 . S
H2132 C2138 0.930 . S
H2133 C2142 0.930 1_455 S
H2134 C2147 0.929 . S
H2135 C2145 0.929 . S
H2136 C2140 0.929 . S
H2137 C2146 0.929 . S
C2138 H2132 0.930 . S
C2138 C2139 1.367 . S
C2138 C2146 1.378 . S
C2139 C2138 1.367 . S
C2139 C2147 1.433 . S
C2140 H2136 0.929 . S
C2140 C2142 1.378 . S
C2140 C2144 1.350 . S
C2141 C2144 1.463 . S
C2141 C2146 1.350 . S
C2141 N2149 1.427 . S
C2142 H2133 0.930 1_655 S
C2142 C2140 1.378 . S
C2142 C2143 1.367 . S
C2143 C2142 1.367 . S
C2143 C2145 1.433 . S
C2144 C2140 1.350 . S
C2144 C2141 1.463 . S
C2144 N2148 1.427 . S
C2145 H2135 0.929 . S
C2145 C2143 1.433 . S
C2145 N2148 1.384 . S
C2146 H2137 0.929 . S
C2146 C2138 1.378 . S
C2146 C2141 1.350 . S
C2147 H2134 0.929 . S
C2147 C2139 1.433 . S
C2147 N2149 1.384 . S
N2148 C2144 1.427 . S
N2148 C2145 1.384 . S
N2149 C2141 1.427 . S
N2149 C2147 1.384 . S
H2150 C2156 0.930 . S
H2151 C2160 0.930 . S
H2152 C2165 0.929 . S
H2153 C2163 0.929 . S
H2154 C2158 0.929 . S
H2155 C2164 0.929 . S
C2156 H2150 0.930 . S
C2156 C2157 1.367 . S
C2156 C2164 1.378 . S
C2157 C2156 1.367 . S
C2157 C2165 1.433 . S
C2158 H2154 0.929 . S
C2158 C2160 1.378 . S
C2158 C2162 1.350 . S
C2159 C2162 1.463 . S
C2159 C2164 1.350 . S
C2159 N2167 1.427 . S
C2160 H2151 0.930 . S
C2160 C2158 1.378 . S
C2160 C2161 1.367 . S
C2161 C2160 1.367 . S
C2161 C2163 1.433 . S
C2162 C2158 1.350 . S
C2162 C2159 1.463 . S
C2162 N2166 1.427 . S
C2163 H2153 0.929 . S
C2163 C2161 1.433 . S
C2163 N2166 1.384 . S
C2164 H2155 0.929 . S
C2164 C2156 1.378 . S
C2164 C2159 1.350 . S
C2165 H2152 0.929 . S
C2165 C2157 1.433 . S
C2165 N2167 1.384 . S
N2166 C2162 1.427 . S
N2166 C2163 1.384 . S
N2167 C2159 1.427 . S
N2167 C2165 1.384 . S
H2168 C2174 0.930 . S
H2169 C2178 0.930 . S
H2170 C2183 0.929 . S
H2171 C2181 0.929 . S
H2172 C2176 0.929 . S
H2173 C2182 0.929 . S
C2174 H2168 0.930 . S
C2174 C2175 1.367 . S
C2174 C2182 1.378 . S
C2175 C2174 1.367 . S
C2175 C2183 1.433 . S
C2176 H2172 0.929 . S
C2176 C2178 1.378 . S
C2176 C2180 1.350 . S
C2177 C2180 1.463 . S
C2177 C2182 1.350 . S
C2177 N2185 1.427 . S
C2178 H2169 0.930 . S
C2178 C2176 1.378 . S
C2178 C2179 1.367 . S
C2179 C2178 1.367 . S
C2179 C2181 1.433 . S
C2180 C2176 1.350 . S
C2180 C2177 1.463 . S
C2180 N2184 1.427 . S
C2181 H2171 0.929 . S
C2181 C2179 1.433 . S
C2181 N2184 1.384 . S
C2182 H2173 0.929 . S
C2182 C2174 1.378 . S
C2182 C2177 1.350 . S
C2183 H2170 0.929 . S
C2183 C2175 1.433 . S
C2183 N2185 1.384 . S
N2184 C2180 1.427 . S
N2184 C2181 1.384 . S
N2185 C2177 1.427 . S
N2185 C2183 1.384 . S
H2186 C2192 0.930 . S
H2187 C2196 0.930 . S
H2188 C2201 0.929 . S
H2189 C2199 0.929 . S
H2190 C2194 0.929 . S
H2191 C2200 0.929 . S
C2192 H2186 0.930 . S
C2192 C2193 1.367 . S
C2192 C2200 1.378 . S
C2193 C2192 1.367 . S
C2193 C2201 1.433 . S
C2194 H2190 0.929 . S
C2194 C2196 1.378 . S
C2194 C2198 1.350 . S
C2195 C2198 1.463 . S
C2195 C2200 1.350 . S
C2195 N2203 1.427 . S
C2196 H2187 0.930 . S
C2196 C2194 1.378 . S
C2196 C2197 1.367 . S
C2197 C2196 1.367 . S
C2197 C2199 1.433 . S
C2198 C2194 1.350 . S
C2198 C2195 1.463 . S
C2198 N2202 1.427 . S
C2199 H2189 0.929 . S
C2199 C2197 1.433 . S
C2199 N2202 1.384 . S
C2200 H2191 0.929 . S
C2200 C2192 1.378 . S
C2200 C2195 1.350 . S
C2201 H2188 0.929 . S
C2201 C2193 1.433 . S
C2201 N2203 1.384 . S
N2202 C2198 1.427 . S
N2202 C2199 1.384 . S
N2203 C2195 1.427 . S
N2203 C2201 1.384 . S
H2204 C2210 0.930 . S
H2205 C2214 0.930 . S
H2206 C2219 0.929 . S
H2207 C2217 0.929 1_455 S
H2208 C2212 0.929 . S
H2209 C2218 0.929 . S
C2210 H2204 0.930 . S
C2210 C2211 1.367 . S
C2210 C2218 1.378 . S
C2211 C2210 1.367 . S
C2211 C2219 1.433 . S
C2212 H2208 0.929 . S
C2212 C2214 1.378 . S
C2212 C2216 1.350 . S
C2213 C2216 1.463 . S
C2213 C2218 1.350 . S
C2213 N2221 1.427 . S
C2214 H2205 0.930 . S
C2214 C2212 1.378 . S
C2214 C2215 1.367 . S
C2215 C2214 1.367 . S
C2215 C2217 1.433 . S
C2216 C2212 1.350 . S
C2216 C2213 1.463 . S
C2216 N2220 1.427 . S
C2217 H2207 0.929 1_655 S
C2217 C2215 1.433 . S
C2217 N2220 1.384 . S
C2218 H2209 0.929 . S
C2218 C2210 1.378 . S
C2218 C2213 1.350 . S
C2219 H2206 0.929 . S
C2219 C2211 1.433 . S
C2219 N2221 1.384 . S
N2220 C2216 1.427 . S
N2220 C2217 1.384 . S
N2221 C2213 1.427 . S
N2221 C2219 1.384 . S
H2222 C2228 0.930 . S
H2223 C2232 0.930 . S
H2224 C2237 0.929 . S
H2225 C2235 0.929 . S
H2226 C2230 0.929 . S
H2227 C2236 0.929 . S
C2228 H2222 0.930 . S
C2228 C2229 1.367 . S
C2228 C2236 1.378 . S
C2229 C2228 1.367 . S
C2229 C2237 1.433 . S
C2230 H2226 0.929 . S
C2230 C2232 1.378 . S
C2230 C2234 1.350 . S
C2231 C2234 1.463 . S
C2231 C2236 1.350 . S
C2231 N2239 1.427 . S
C2232 H2223 0.930 . S
C2232 C2230 1.378 . S
C2232 C2233 1.367 . S
C2233 C2232 1.367 . S
C2233 C2235 1.433 . S
C2234 C2230 1.350 . S
C2234 C2231 1.463 . S
C2234 N2238 1.427 . S
C2235 H2225 0.929 . S
C2235 C2233 1.433 . S
C2235 N2238 1.384 . S
C2236 H2227 0.929 . S
C2236 C2228 1.378 . S
C2236 C2231 1.350 . S
C2237 H2224 0.929 . S
C2237 C2229 1.433 . S
C2237 N2239 1.384 . S
N2238 C2234 1.427 . S
N2238 C2235 1.384 . S
N2239 C2231 1.427 . S
N2239 C2237 1.384 . S
H2240 C2246 0.930 . S
H2241 C2250 0.930 . S
H2242 C2255 0.929 . S
H2243 C2253 0.929 . S
H2244 C2248 0.929 . S
H2245 C2254 0.929 . S
C2246 H2240 0.930 . S
C2246 C2247 1.367 . S
C2246 C2254 1.378 . S
C2247 C2246 1.367 . S
C2247 C2255 1.433 . S
C2248 H2244 0.929 . S
C2248 C2250 1.378 . S
C2248 C2252 1.350 . S
C2249 C2252 1.463 . S
C2249 C2254 1.350 . S
C2249 N2257 1.427 . S
C2250 H2241 0.930 . S
C2250 C2248 1.378 . S
C2250 C2251 1.367 . S
C2251 C2250 1.367 . S
C2251 C2253 1.433 . S
C2252 C2248 1.350 . S
C2252 C2249 1.463 . S
C2252 N2256 1.427 . S
C2253 H2243 0.929 . S
C2253 C2251 1.433 . S
C2253 N2256 1.384 . S
C2254 H2245 0.929 . S
C2254 C2246 1.378 . S
C2254 C2249 1.350 . S
C2255 H2242 0.929 . S
C2255 C2247 1.433 . S
C2255 N2257 1.384 . S
N2256 C2252 1.427 . S
N2256 C2253 1.384 . S
N2257 C2249 1.427 . S
N2257 C2255 1.384 . S
H2258 C2264 0.930 . S
H2259 C2268 0.962 . S
H2260 C2273 0.929 . S
H2261 C2271 0.929 . S
H2262 C2266 0.929 . S
H2263 C2272 0.929 . S
C2264 H2258 0.930 . S
C2264 C2265 1.367 . S
C2264 C2272 1.378 . S
C2265 C2264 1.367 . S
C2265 C2273 1.433 . S
C2266 H2262 0.929 . S
C2266 C2268 1.368 1_565 S
C2266 C2270 1.350 . S
C2267 C2270 1.463 . S
C2267 C2272 1.350 . S
C2267 N2275 1.427 . S
C2268 H2259 0.962 . S
C2268 C2266 1.368 1_545 S
C2268 C2269 1.346 1_545 S
C2269 C2268 1.346 1_565 S
C2269 C2271 1.433 . S
C2270 C2266 1.350 . S
C2270 C2267 1.463 . S
C2270 N2274 1.427 . S
C2271 H2261 0.929 . S
C2271 C2269 1.433 . S
C2271 N2274 1.384 . S
C2272 H2263 0.929 . S
C2272 C2264 1.378 . S
C2272 C2267 1.350 . S
C2273 H2260 0.929 . S
C2273 C2265 1.433 . S
C2273 N2275 1.384 . S
N2274 C2270 1.427 . S
N2274 C2271 1.384 . S
N2275 C2267 1.427 . S
N2275 C2273 1.384 . S
H2276 C2282 0.930 . S
H2277 C2286 0.930 . S
H2278 C2291 0.929 . S
H2279 C2289 0.929 . S
H2280 C2284 0.929 . S
H2281 C2290 0.929 . S
C2282 H2276 0.930 . S
C2282 C2283 1.367 . S
C2282 C2290 1.378 . S
C2283 C2282 1.367 . S
C2283 C2291 1.433 . S
C2284 H2280 0.929 . S
C2284 C2286 1.378 . S
C2284 C2288 1.350 . S
C2285 C2288 1.463 . S
C2285 C2290 1.350 . S
C2285 N2293 1.427 . S
C2286 H2277 0.930 . S
C2286 C2284 1.378 . S
C2286 C2287 1.367 . S
C2287 C2286 1.367 . S
C2287 C2289 1.433 . S
C2288 C2284 1.350 . S
C2288 C2285 1.463 . S
C2288 N2292 1.427 . S
C2289 H2279 0.929 . S
C2289 C2287 1.433 . S
C2289 N2292 1.384 . S
C2290 H2281 0.929 . S
C2290 C2282 1.378 . S
C2290 C2285 1.350 . S
C2291 H2278 0.929 . S
C2291 C2283 1.433 . S
C2291 N2293 1.384 . S
N2292 C2288 1.427 . S
N2292 C2289 1.384 . S
N2293 C2285 1.427 . S
N2293 C2291 1.384 . S
H2294 C2300 0.930 1_556 S
H2295 C2304 0.930 . S
H2296 C2309 0.929 . S
H2297 C2307 0.929 1_556 S
H2298 C2302 0.929 . S
H2299 C2308 0.929 1_556 S
C2300 H2294 0.930 1_554 S
C2300 C2301 1.367 . S
C2300 C2308 1.378 . S
C2301 C2300 1.367 . S
C2301 C2309 1.433 . S
C2302 H2298 0.929 . S
C2302 C2304 1.378 . S
C2302 C2306 1.350 . S
C2303 C2306 1.463 . S
C2303 C2308 1.350 . S
C2303 N2311 1.427 . S
C2304 H2295 0.930 . S
C2304 C2302 1.378 . S
C2304 C2305 1.367 . S
C2305 C2304 1.367 . S
C2305 C2307 1.433 . S
C2306 C2302 1.350 . S
C2306 C2303 1.463 . S
C2306 N2310 1.427 . S
C2307 H2297 0.929 1_554 S
C2307 C2305 1.433 . S
C2307 N2310 1.384 . S
C2308 H2299 0.929 1_554 S
C2308 C2300 1.378 . S
C2308 C2303 1.350 . S
C2309 H2296 0.929 . S
C2309 C2301 1.433 . S
C2309 N2311 1.384 . S
N2310 C2306 1.427 . S
N2310 C2307 1.384 . S
N2311 C2303 1.427 . S
N2311 C2309 1.384 . S
H2312 C2318 0.930 . S
H2313 C2322 0.930 . S
H2314 C2327 0.929 . S
H2315 C2325 0.929 . S
H2316 C2320 0.929 . S
H2317 C2326 0.929 . S
C2318 H2312 0.930 . S
C2318 C2319 1.367 . S
C2318 C2326 1.378 . S
C2319 C2318 1.367 . S
C2319 C2327 1.433 . S
C2320 H2316 0.929 . S
C2320 C2322 1.378 . S
C2320 C2324 1.350 . S
C2321 C2324 1.463 . S
C2321 C2326 1.350 . S
C2321 N2329 1.427 . S
C2322 H2313 0.930 . S
C2322 C2320 1.378 . S
C2322 C2323 1.367 . S
C2323 C2322 1.367 . S
C2323 C2325 1.433 . S
C2324 C2320 1.350 . S
C2324 C2321 1.463 . S
C2324 N2328 1.427 . S
C2325 H2315 0.929 . S
C2325 C2323 1.433 . S
C2325 N2328 1.384 . S
C2326 H2317 0.929 . S
C2326 C2318 1.378 . S
C2326 C2321 1.350 . S
C2327 H2314 0.929 . S
C2327 C2319 1.433 . S
C2327 N2329 1.384 . S
N2328 C2324 1.427 . S
N2328 C2325 1.384 . S
N2329 C2321 1.427 . S
N2329 C2327 1.384 . S
H2330 C2336 0.930 . S
H2331 C2340 0.930 . S
H2332 C2345 0.929 . S
H2333 C2343 0.929 . S
H2334 C2338 0.929 . S
H2335 C2344 0.929 1_556 S
C2336 H2330 0.930 . S
C2336 C2337 1.367 . S
C2336 C2344 1.378 . S
C2337 C2336 1.367 . S
C2337 C2345 1.433 . S
C2338 H2334 0.929 . S
C2338 C2340 1.378 . S
C2338 C2342 1.350 . S
C2339 C2342 1.463 . S
C2339 C2344 1.350 . S
C2339 N2347 1.427 . S
C2340 H2331 0.930 . S
C2340 C2338 1.378 . S
C2340 C2341 1.367 . S
C2341 C2340 1.367 . S
C2341 C2343 1.433 1_554 S
C2342 C2338 1.350 . S
C2342 C2339 1.463 . S
C2342 N2346 1.404 1_554 S
C2343 H2333 0.929 . S
C2343 C2341 1.433 1_556 S
C2343 N2346 1.389 . S
C2344 H2335 0.929 1_554 S
C2344 C2336 1.378 . S
C2344 C2339 1.350 . S
C2345 H2332 0.929 . S
C2345 C2337 1.433 . S
C2345 N2347 1.384 . S
N2346 C2342 1.404 1_556 S
N2346 C2343 1.389 . S
N2347 C2339 1.427 . S
N2347 C2345 1.384 . S
H2348 C2354 0.930 . S
H2349 C2358 0.930 . S
H2350 C2363 0.929 . S
H2351 C2361 0.929 . S
H2352 C2356 0.929 . S
H2353 C2362 0.929 . S
C2354 H2348 0.930 . S
C2354 C2355 1.367 . S
C2354 C2362 1.378 . S
C2355 C2354 1.367 . S
C2355 C2363 1.433 . S
C2356 H2352 0.929 . S
C2356 C2358 1.378 . S
C2356 C2360 1.350 . S
C2357 C2360 1.463 . S
C2357 C2362 1.350 . S
C2357 N2365 1.427 . S
C2358 H2349 0.930 . S
C2358 C2356 1.378 . S
C2358 C2359 1.367 . S
C2359 C2358 1.367 . S
C2359 C2361 1.433 . S
C2360 C2356 1.350 . S
C2360 C2357 1.463 . S
C2360 N2364 1.427 . S
C2361 H2351 0.929 . S
C2361 C2359 1.433 . S
C2361 N2364 1.384 . S
C2362 H2353 0.929 . S
C2362 C2354 1.378 . S
C2362 C2357 1.350 . S
C2363 H2350 0.929 . S
C2363 C2355 1.433 . S
C2363 N2365 1.384 . S
N2364 C2360 1.427 . S
N2364 C2361 1.384 . S
N2365 C2357 1.427 . S
N2365 C2363 1.384 . S
H2366 C2372 0.930 . S
H2367 C2376 0.930 . S
H2368 C2381 0.929 . S
H2369 C2379 0.929 . S
H2370 C2374 0.929 . S
H2371 C2380 0.929 . S
C2372 H2366 0.930 . S
C2372 C2373 1.367 . S
C2372 C2380 1.378 . S
C2373 C2372 1.367 . S
C2373 C2381 1.433 . S
C2374 H2370 0.929 . S
C2374 C2376 1.378 . S
C2374 C2378 1.350 . S
C2375 C2378 1.463 . S
C2375 C2380 1.350 . S
C2375 N2383 1.427 . S
C2376 H2367 0.930 . S
C2376 C2374 1.378 . S
C2376 C2377 1.367 . S
C2377 C2376 1.367 . S
C2377 C2379 1.433 . S
C2378 C2374 1.350 . S
C2378 C2375 1.463 . S
C2378 N2382 1.427 . S
C2379 H2369 0.929 . S
C2379 C2377 1.433 . S
C2379 N2382 1.384 . S
C2380 H2371 0.929 . S
C2380 C2372 1.378 . S
C2380 C2375 1.350 . S
C2381 H2368 0.929 . S
C2381 C2373 1.433 . S
C2381 N2383 1.384 . S
N2382 C2378 1.427 . S
N2382 C2379 1.384 . S
N2383 C2375 1.427 . S
N2383 C2381 1.384 . S
C663 C109 1.303 . S
C667 C340 1.154 1_556 S
C681 C61 1.267 . S
C685 C375 1.406 . S
C699 C74 1.069 . S
C703 C380 1.010 . S
C721 C405 1.408 . S
C717 C96 1.469 . S
C735 C25 1.370 . S
C739 C425 1.327 . S
C757 C440 0.974 . S
C753 C40 1.037 . S
C775 C475 1.489 . S
C771 C46 1.512 . S
C789 C5 1.041 . S
C793 C480 1.166 . S
C811 C355 1.393 . S
C807 C229 1.195 . S
C825 C249 0.989 . S
C829 C365 0.940 . S
C847 C395 1.293 . S
C843 C271 1.176 . S
C865 C400 1.189 . S
C861 C172 1.251 1_556 S
C879 C236 1.161 . S
C883 C420 1.061 . S
C901 C455 1.564 . S
C897 C242 1.591 . S
C919 C465 0.928 . S
C915 C278 0.950 . S
C937 C495 1.525 . S
C933 C179 1.574 . S
C955 C345 1.266 . S
C951 C159 1.080 . S
C969 C285 1.505 1_554 S
C973 C515 1.651 . S
C991 C525 1.339 . S
C987 C333 1.416 . S
C1009 C540 0.948 . S
C1005 C320 1.014 . S
C1023 C123 1.330 . S
C1027 C485 1.208 . S
C1041 C138 1.551 . S
C1045 C385 1.460 . S
C1059 C326 1.817 . S
C1063 C575 1.796 . S
C1081 C580 1.013 . S
C1077 C298 1.065 . S
C1099 C338 1.168 . S
C1095 C67 1.299 . S
C1117 C594 1.366 . S
C1113 C110 1.389 . S
C1131 C88 1.089 . S
C1135 C378 1.006 . S
C1149 C75 1.181 . S
C1153 C568 1.331 . S
C1171 C428 1.287 . S
C1167 C11 1.328 . S
C1185 C47 0.914 . S
C1189 C518 0.963 . S
C1207 C474 1.411 . S
C1203 C32 1.375 . S
C1225 C598 1.206 . S
C1221 C26 1.394 . S
C1243 C354 1.471 1_565 S
C1239 C152 1.561 . S
C1261 C588 0.971 . S
C1257 C319 0.983 . S
C1275 C124 1.308 . S
C1279 C394 1.275 . S
C1293 C284 1.294 . S
C1297 C558 1.217 . S
C1311 C145 1.006 1_545 S
C1315 C418 1.058 . S
C1333 C534 1.472 . S
C1329 C312 1.444 . S
C1347 C117 0.766 . S
C1351 C468 0.816 . S
C1365 C291 1.502 . S
C1369 C614 1.453 . S
C1383 C194 1.445 . S
C1387 C348 1.299 1_556 S
C1401 C180 1.642 . S
C1405 C514 1.606 . S
C1419 C263 1.293 . S
C1423 C448 1.240 . S
C1437 C243 0.841 . S
C1441 C538 0.916 . S
C1459 C608 1.234 . S
C1455 C277 1.336 . S
C1473 C215 1.339 . S
C1477 C388 1.418 . S
C1495 C414 1.701 . S
C1491 C256 1.664 . S
C1513 C358 1.081 . S
C1509 C200 1.144 . S
C1527 C81 1.302 . S
C1531 C620 1.152 . S
C1549 C595 1.402 . S
C1545 C89 1.263 . S
C1563 C102 1.072 1_455 S
C1567 C640 1.014 . S
C1581 C68 1.471 . S
C1585 C565 1.393 . S
C1599 C53 1.372 . S
C1603 C505 1.317 . S
C1621 C520 0.982 . S
C1617 C12 1.041 . S
C1639 C555 1.483 . S
C1635 C18 1.502 1_455 S
C1657 C600 1.188 . S
C1653 C33 1.073 . S
C1675 C635 1.386 . S
C1671 C257 1.190 . S
C1689 C193 0.989 . S
C1693 C585 0.940 . S
C1711 C655 1.293 . S
C1707 C201 1.179 . S
C1729 C560 1.199 . S
C1725 C214 1.257 . S
C1747 C500 1.062 . S
C1743 C264 1.162 . S
C1761 C186 1.589 . S
C1765 C535 1.560 . S
C1783 C545 0.903 . S
C1779 C208 0.952 . S
C1797 C221 1.568 . S
C1801 C615 1.531 . S
C1819 C625 1.285 . S
C1815 C313 1.116 . S
C1833 C131 1.510 . S
C1837 C435 1.652 . S
C1855 C445 1.323 . S
C1851 C151 1.419 . S
C1873 C460 0.958 . S
C1869 C166 1.018 . S
C1891 C605 1.220 . S
C1887 C305 1.328 . S
C1905 C292 1.547 . S
C1909 C645 1.451 . S
C1927 C415 1.793 . S
C1923 C144 1.816 . S
C1945 C360 1.012 . S
C1941 C116 1.065 . S
C1959 C95 1.284 . S
C1963 C618 1.136 . S
C1981 C374 1.366 . S
C1977 C82 1.389 . S
C1995 C60 1.093 . S
C1999 C638 1.012 . S
C2013 C103 1.211 . S
C2017 C408 1.331 . S
C2031 C39 1.327 . S
C2035 C508 1.287 . S
C2053 C438 0.970 . S
C2049 C19 0.942 . S
C2067 C4 1.378 . S
C2071 C554 1.410 . S
C2085 C54 1.392 . S
C2089 C478 1.200 . S
C2107 C634 1.484 . S
C2103 C334 1.565 . S
C2121 C165 0.979 . S
C2125 C368 0.970 . S
C2143 C654 1.275 1_655 S
C2139 C306 1.309 . S
C2157 C130 1.297 . S
C2161 C398 1.201 . S
C2175 C327 1.027 . S
C2179 C498 1.039 . S
C2197 C454 1.474 . S
C2193 C158 1.442 . S
C2211 C299 0.766 . S
C2215 C548 0.798 . S
C2233 C494 1.437 . S
C2229 C137 1.494 . S
C2251 C628 1.308 . S
C2247 C250 1.452 . S
C2269 C434 1.613 . S
C2265 C222 1.638 . S
C2283 C235 1.303 . S
C2287 C528 1.249 . S
C2305 C458 0.915 . S
C2301 C187 0.841 . S
C2319 C207 1.326 . S
C2323 C488 1.240 . S
C2337 C173 1.339 . S
C2341 C648 1.415 . S
C2359 C574 1.708 . S
C2355 C228 1.652 . S
C2377 C578 1.079 . S
C2373 C270 1.148 . S
