# Generated by pormake.
# Topology pth, (4,4)-cn, num edge types: 1
# Building blocks:
#     Node 0, Type 0, BuildingBlock: GALJAG_clean_sbu_0, # of connection points: 4
#     Node 1, Type 0, BuildingBlock: GALJAG_clean_sbu_0, # of connection points: 4
#     Node 2, Type 0, BuildingBlock: GALJAG_clean_sbu_0, # of connection points: 4
#     Node 3, Type 1, BuildingBlock: NAWXER_clean_sbu_0, # of connection points: 4
#     Node 4, Type 1, BuildingBlock: NAWXER_clean_sbu_0, # of connection points: 4
#     Node 5, Type 1, BuildingBlock: NAWXER_clean_sbu_0, # of connection points: 4
#     Edge 6, Type (0, 1), BuildingBlock: CIFDUS_clean_linker_0, # of connection points: 2
#     Edge 7, Type (0, 1), BuildingBlock: CIFDUS_clean_linker_0, # of connection points: 2
#     Edge 8, Type (0, 1), BuildingBlock: CIFDUS_clean_linker_0, # of connection points: 2
#     Edge 9, Type (0, 1), BuildingBlock: CIFDUS_clean_linker_0, # of connection points: 2
#     Edge 10, Type (0, 1), BuildingBlock: CIFDUS_clean_linker_0, # of connection points: 2
#     Edge 11, Type (0, 1), BuildingBlock: CIFDUS_clean_linker_0, # of connection points: 2
#     Edge 12, Type (0, 1), BuildingBlock: CIFDUS_clean_linker_0, # of connection points: 2
#     Edge 13, Type (0, 1), BuildingBlock: CIFDUS_clean_linker_0, # of connection points: 2
#     Edge 14, Type (0, 1), BuildingBlock: CIFDUS_clean_linker_0, # of connection points: 2
#     Edge 15, Type (0, 1), BuildingBlock: CIFDUS_clean_linker_0, # of connection points: 2
#     Edge 16, Type (0, 1), BuildingBlock: CIFDUS_clean_linker_0, # of connection points: 2
#     Edge 17, Type (0, 1), BuildingBlock: CIFDUS_clean_linker_0, # of connection points: 2
# Relax obj value: 0.017
# Max RMSD: 0.060
# Mean RMSD: 0.053
data_MOF--net-pth--node1-GALJAG_clean_sbu_0--node2-NAWXER_clean_sbu_0--edge1-CIFDUS_clean_linker_0
_symmetry_space_group_name_H-M    P1
_symmetry_Int_Tables_number       1
_symmetry_cell_setting            triclinic
loop_
_symmetry_equiv_pos_as_xyz
'x, y, z'
_cell_length_a     20.203271
_cell_length_b     20.181974
_cell_length_c     49.338639
_cell_angle_alpha  89.919885
_cell_angle_beta   90.316544
_cell_angle_gamma 119.89834
loop_
_atom_site_label
_atom_site_type_symbol
_atom_site_fract_x
_atom_site_fract_y
_atom_site_fract_z
_atom_type_partial_charge
In0 In 1.01319 1.01062 0.07011 0.0
O1 O 0.96799 0.08432 0.08772 0.0
O2 O 0.07983 0.10947 0.09947 0.0
C3 C 0.89993 0.90934 0.03785 0.0
C4 C 0.11567 0.0958 0.03196 0.0
C5 C 1.00147 0.90638 0.10679 0.0
O6 O 0.89314 0.9594 0.05102 0.0
O7 O 0.96329 0.91199 0.04083 0.0
O8 O 0.05518 0.93541 0.08972 0.0
O9 O 0.95621 0.93238 0.10594 0.0
C10 C 0.02787 0.12667 0.10127 0.0
O11 O 0.13183 0.06153 0.05009 0.0
O12 O 0.04898 0.08586 0.03328 0.0
In13 In 1.00942 1.0018 0.40162 0.0
O14 O 0.0578 0.11938 0.38173 0.0
O15 O 0.95256 0.02688 0.36688 0.0
C16 C 0.10238 0.99227 0.43844 0.0
C17 C 0.90759 1.00661 0.43495 0.0
C18 C 0.01845 0.90286 0.3678 0.0
O19 O 0.12541 0.04975 0.42288 0.0
O20 O 0.03275 0.94246 0.43588 0.0
O21 O 0.95821 0.88581 0.38095 0.0
O22 O 0.07285 0.97033 0.37125 0.0
C23 C 1.0019 0.09694 0.36535 0.0
O24 O 0.89191 0.94782 0.42095 0.0
O25 O 0.97499 0.06171 0.43251 0.0
In26 In 0.01859 1.00358 0.73586 0.0
O27 O 0.97629 0.88344 0.75334 0.0
O28 O 0.92795 0.94846 0.7683 0.0
C29 C 0.12475 1.01067 0.70091 0.0
C30 C 0.91216 1.00824 0.70356 0.0
C31 C 0.11024 0.1084 0.77287 0.0
O32 O 0.07749 0.94995 0.71275 0.0
O33 O 0.11721 0.06772 0.70605 0.0
O34 O 0.06405 0.11807 0.75836 0.0
O35 O 0.10899 0.04608 0.76886 0.0
C36 C 0.92914 0.88659 0.76922 0.0
O37 O 0.95713 0.06329 0.71852 0.0
O38 O 0.92195 0.95127 0.70436 0.0
C39 C 0.1139 0.65044 0.26844 0.0
C40 C 0.11858 0.47117 0.2016 0.0
O41 O 0.17502 0.65707 0.25843 0.0
Zn42 Zn 0.12538 0.56509 0.23521 0.0
O43 O 0.04929 0.59493 0.26097 0.0
Zn44 Zn 0.9996 0.49961 0.23517 0.0
O45 O 0.95005 0.41451 0.2608 0.0
O46 O 0.07595 0.47719 0.2644 0.0
O47 O 0.05283 0.45853 0.20908 0.0
O48 O 0.1785 0.52697 0.21191 0.0
O49 O 0.07106 0.59871 0.20593 0.0
O50 O 0.94534 0.53058 0.20961 0.0
C51 C 1.01078 0.42403 0.27237 0.0
C52 C 1.00449 0.58324 0.19799 0.0
C53 C 0.58161 0.96746 0.6038 0.0
C54 C 0.42476 0.99033 0.53174 0.0
O55 O 0.5257 0.91122 0.5919 0.0
Zn56 Zn 0.49785 0.97155 0.56807 0.0
O57 O 0.59912 0.03577 0.59742 0.0
Zn58 Zn 0.56627 0.0965 0.57066 0.0
O59 O 0.53063 0.14835 0.59558 0.0
O60 O 0.45761 0.0229 0.59549 0.0
O61 O 0.47883 0.05369 0.5409 0.0
O62 O 0.41352 0.92739 0.54184 0.0
O63 O 0.59406 0.02326 0.5426 0.0
O64 O 0.65798 0.14856 0.54794 0.0
C65 C 0.47228 0.08834 0.60439 0.0
C66 C 0.65047 0.08861 0.53642 0.0
C67 C 0.45104 0.39352 0.93729 0.0
C68 C 0.61383 0.58767 0.87066 0.0
O69 O 0.43142 0.44312 0.93128 0.0
Zn70 Zn 0.46528 0.54135 0.90688 0.0
O71 O 0.51093 0.3985 0.92685 0.0
Zn72 Zn 0.53609 0.48775 0.90392 0.0
O73 O 0.57174 0.57636 0.93295 0.0
O74 O 0.49358 0.62305 0.93376 0.0
O75 O 0.62239 0.53224 0.87857 0.0
O76 O 0.55813 0.59415 0.87977 0.0
O77 O 0.37668 0.50546 0.88267 0.0
O78 O 0.43963 0.4429 0.87768 0.0
C79 C 0.55333 0.62378 0.9426 0.0
C80 C 0.38334 0.45238 0.87133 0.0
H81 H 0.15352 0.23081 0.12978 0.0
H82 H 0.92137 0.16875 0.10954 0.0
H83 H 0.93246 0.27379 0.13712 0.0
H84 H 1.00489 0.37898 0.16802 0.0
H85 H 0.23627 0.44308 0.18994 0.0
H86 H 0.22934 0.34228 0.16006 0.0
C87 C 0.10549 0.24048 0.13142 0.0
C88 C 0.03642 0.19161 0.11778 0.0
C89 C 0.11226 0.30136 0.1474 0.0
C90 C 0.97491 0.20514 0.1199 0.0
C91 C 0.98123 0.26529 0.13563 0.0
C92 C 0.05422 0.37136 0.1663 0.0
C93 C 0.12083 0.41801 0.18142 0.0
C94 C 0.04924 0.31313 0.14961 0.0
C95 C 0.1844 0.40801 0.1785 0.0
C96 C 0.18016 0.35006 0.16158 0.0
H97 H 0.92506 0.13042 0.46322 0.0
H98 H 0.76274 0.89402 0.44564 0.0
H99 H 0.6685 0.90107 0.47431 0.0
H100 H 0.63323 0.97232 0.50482 0.0
H101 H 0.79341 0.20838 0.52359 0.0
H102 H 0.88752 0.20389 0.49347 0.0
C103 C 0.86905 0.08046 0.46571 0.0
C104 C 0.85102 0.01154 0.45244 0.0
C105 C 0.81489 0.085 0.48222 0.0
C106 C 0.77813 0.94752 0.45568 0.0
C107 C 0.72419 0.95157 0.47204 0.0
C108 C 0.68863 0.02319 0.50239 0.0
C109 C 0.7064 0.09058 0.51663 0.0
C110 C 0.74214 0.01978 0.48545 0.0
C111 C 0.77822 0.15587 0.51287 0.0
C112 C 0.83208 0.15312 0.49577 0.0
H113 H 0.8166 0.87937 0.80018 0.0
H114 H 0.92597 0.7505 0.77826 0.0
H115 H 0.83873 0.6456 0.80791 0.0
H116 H 0.72982 0.59055 0.84023 0.0
H117 H 0.62183 0.72287 0.86011 0.0
H118 H 0.70985 0.82567 0.83118 0.0
C119 C 0.82163 0.82844 0.80189 0.0
C120 C 0.87774 0.82283 0.78713 0.0
C121 C 0.77118 0.76859 0.81864 0.0
C122 C 0.88315 0.75622 0.78948 0.0
C123 C 0.83327 0.69624 0.80641 0.0
C124 C 0.72569 0.64186 0.83817 0.0
C125 C 0.66883 0.64838 0.85235 0.0
C126 C 0.77679 0.7017 0.82113 0.0
C127 C 0.66435 0.71547 0.84939 0.0
C128 C 0.71493 0.77481 0.83286 0.0
H129 H 0.07434 0.82421 0.10642 0.0
H130 H 0.8994 0.84632 0.14821 0.0
H131 H 0.87725 0.74099 0.17834 0.0
H132 H 0.91295 0.64668 0.19449 0.0
H133 H 0.09025 0.62819 0.15298 0.0
H134 H 0.10479 0.72627 0.12074 0.0
C135 C 0.03149 0.80606 0.12215 0.0
C136 C 0.9893 0.84359 0.12528 0.0
C137 C 0.01874 0.74524 0.13928 0.0
C138 C 0.93318 0.81874 0.14553 0.0
C139 C 0.92021 0.75827 0.16271 0.0
C140 C 0.95322 0.66294 0.17794 0.0
C141 C 1.00012 0.63017 0.17593 0.0
C142 C 0.963 0.72131 0.15991 0.0
C143 C 0.05337 0.65266 0.15479 0.0
C144 C 0.06214 0.70909 0.13649 0.0
H145 H 0.25671 0.07944 0.44359 0.0
H146 H 0.06141 0.87745 0.47504 0.0
H147 H 0.14416 0.85411 0.50498 0.0
H148 H 0.27237 0.89344 0.52346 0.0
H149 H 0.46662 0.09727 0.49258 0.0
H150 H 0.38454 0.11659 0.46101 0.0
C151 C 0.23232 0.03053 0.45707 0.0
C152 C 0.15308 0.98071 0.45721 0.0
C153 C 0.28025 0.01718 0.4742 0.0
C154 C 0.12232 0.91707 0.47463 0.0
C155 C 0.16961 0.9034 0.49171 0.0
C156 C 0.29664 0.94115 0.50945 0.0
C157 C 0.37529 0.99366 0.51028 0.0
C158 C 0.24873 0.95313 0.49173 0.0
C159 C 0.40605 0.05606 0.49233 0.0
C160 C 0.35918 0.06742 0.47434 0.0
H161 H 0.12031 0.24399 0.78809 0.0
H162 H 0.2215 0.10187 0.80136 0.0
H163 H 0.31413 0.19612 0.83247 0.0
H164 H 0.36728 0.31777 0.85553 0.0
H165 H 0.26786 0.46199 0.84445 0.0
H166 H 0.17338 0.36782 0.81284 0.0
C167 C 0.16259 0.2338 0.79788 0.0
C168 C 0.16405 0.16599 0.79235 0.0
C169 C 0.21599 0.28848 0.81603 0.0
C170 C 0.21896 0.15338 0.80523 0.0
C171 C 0.27214 0.20734 0.82301 0.0
C172 C 0.32533 0.32927 0.84617 0.0
C173 C 0.32519 0.39732 0.85216 0.0
C174 C 0.27135 0.275 0.82844 0.0
C175 C 0.26941 0.4102 0.84011 0.0
C176 C 0.21547 0.35637 0.82205 0.0
H177 H 0.79859 0.89187 0.67418 0.0
H178 H 0.89018 0.12903 0.69591 0.0
H179 H 0.79238 0.13467 0.66854 0.0
H180 H 0.68456 0.07465 0.6375 0.0
H181 H 0.59101 0.83817 0.61465 0.0
H182 H 0.68505 0.82936 0.6439 0.0
C183 C 0.79703 0.94471 0.67288 0.0
C184 C 0.85203 1.01018 0.6869 0.0
C185 C 0.74013 0.94753 0.65711 0.0
C186 C 0.84887 0.07801 0.68524 0.0
C187 C 0.79285 0.08126 0.66964 0.0
C188 C 0.68417 0.02082 0.63894 0.0
C189 C 0.63105 0.95725 0.62373 0.0
C190 C 0.73868 0.01665 0.65538 0.0
C191 C 0.6311 0.8879 0.62618 0.0
C192 C 0.68521 0.88306 0.64276 0.0
H193 H 0.7618 0.89538 0.02304 0.0
H194 H 0.90168 0.79036 0.01382 0.0
H195 H 0.80517 0.69209 0.98501 0.0
H196 H 0.68424 0.63721 0.96174 0.0
H197 H 0.54179 0.73981 0.96823 0.0
H198 H 0.63586 0.83738 0.99906 0.0
C199 C 0.77081 0.85082 0.01472 0.0
C200 C 0.83906 0.85044 0.02054 0.0
C201 C 0.71476 0.79403 0.99778 0.0
C202 C 0.85003 0.7924 0.00962 0.0
C203 C 0.79476 0.73592 0.99315 0.0
C204 C 0.67298 0.6805 0.96989 0.0
C205 C 0.60583 0.68102 0.96261 0.0
C206 C 0.72732 0.73642 0.98702 0.0
C207 C 0.59292 0.73792 0.9735 0.0
C208 C 0.64683 0.79382 0.99106 0.0
H209 H 0.14579 0.92232 0.34177 0.0
H210 H 0.90773 0.75864 0.35491 0.0
H211 H 0.91875 0.66587 0.32653 0.0
H212 H 0.99399 0.63205 0.29768 0.0
H213 H 0.23189 0.79327 0.28324 0.0
H214 H 0.22328 0.88624 0.31301 0.0
C215 C 0.09634 0.86636 0.33835 0.0
C216 C 0.02579 0.84749 0.3503 0.0
C217 C 0.10319 0.81298 0.32203 0.0
C218 C 0.96244 0.77466 0.34589 0.0
C219 C 0.96876 0.72156 0.32971 0.0
C220 C 0.04438 0.68747 0.30096 0.0
C221 C 0.1135 0.70586 0.28805 0.0
C222 C 0.03864 0.74026 0.31765 0.0
C223 C 0.17809 0.77762 0.29293 0.0
C224 C 0.17298 0.83082 0.30982 0.0
H225 H 0.24408 0.1376 0.67812 0.0
H226 H 0.14278 0.89259 0.68455 0.0
H227 H 0.24364 0.89683 0.65655 0.0
H228 H 0.35829 0.96828 0.63005 0.0
H229 H 0.46247 0.21312 0.62226 0.0
H230 H 0.36326 0.21096 0.65149 0.0
C231 C 0.2441 0.08522 0.67328 0.0
C232 C 0.18568 0.01474 0.68329 0.0
C233 C 0.30289 0.08808 0.65718 0.0
C234 C 0.18677 0.94744 0.67706 0.0
C235 C 0.24455 0.94982 0.66109 0.0
C236 C 0.35986 0.02158 0.63469 0.0
C237 C 0.41773 0.09083 0.62382 0.0
C238 C 0.30263 0.01964 0.65106 0.0
C239 C 0.41877 0.15907 0.63039 0.0
C240 C 0.3618 0.15771 0.64697 0.0
H241 H 0.26648 0.13578 0.02454 0.0
H242 H 0.08647 0.17064 0.99264 0.0
H243 H 0.17382 0.26187 0.96008 0.0
H244 H 0.30087 0.33649 0.94201 0.0
H245 H 0.48468 0.30584 0.9719 0.0
H246 H 0.39618 0.20742 0.00363 0.0
C247 C 0.24653 0.16304 0.0103 0.0
C248 C 0.17005 0.14675 0.01124 0.0
C249 C 0.2976 0.21623 0.99134 0.0
C250 C 0.14492 0.18224 0.99257 0.0
C251 C 0.19485 0.23459 0.97387 0.0
C252 C 0.32191 0.30839 0.95545 0.0
C253 C 0.39938 0.32921 0.95496 0.0
C254 C 0.27127 0.25276 0.97336 0.0
C255 C 0.42522 0.29091 0.97201 0.0
C256 C 0.37469 0.23497 0.99019 0.0
H257 H 0.08596 0.25205 0.36298 0.0
H258 H 0.89329 0.05723 0.3261 0.0
H259 H 0.87311 0.14136 0.2958 0.0
H260 H 0.91374 0.27077 0.27831 0.0
H261 H 0.10833 0.46454 0.31474 0.0
H262 H 0.12313 0.38094 0.3469 0.0
C263 C 0.03974 0.22807 0.34826 0.0
C264 C 0.99175 0.14859 0.34664 0.0
C265 C 0.02817 0.27678 0.33095 0.0
C266 C 0.93148 0.11835 0.32766 0.0
C267 C 0.91963 0.16641 0.31037 0.0
C268 C 0.95824 0.29454 0.29367 0.0
C269 C 1.0097 0.37353 0.29423 0.0
C270 C 0.96781 0.24579 0.31172 0.0
C271 C 0.06803 0.40372 0.31393 0.0
C272 C 0.07685 0.35599 0.33224 0.0
loop_
_geom_bond_atom_site_label_1
_geom_bond_atom_site_label_2
_geom_bond_distance
_geom_bond_site_symmetry_2
_ccdc_geom_bond_type
In0 O1 2.294 1_455 S
In0 O2 2.326 . S
In0 O6 2.266 1_445 S
In0 O7 2.326 1_445 S
In0 O8 2.266 1_545 S
In0 O9 2.326 1_445 S
In0 O11 2.294 . S
In0 O12 2.326 . S
O1 In0 2.294 1_655 S
O1 C10 1.240 1_655 S
O2 In0 2.326 . S
O2 C10 1.252 . S
C3 O6 1.252 . S
C3 O7 1.260 . S
C4 O11 1.240 . S
C4 O12 1.252 . S
C5 O8 1.243 1_655 S
C5 O9 1.275 . S
O6 In0 2.266 1_665 S
O6 C3 1.252 . S
O7 In0 2.326 1_665 S
O7 C3 1.260 . S
O8 In0 2.266 1_565 S
O8 C5 1.243 1_455 S
O9 In0 2.326 1_665 S
O9 C5 1.275 . S
C10 O1 1.240 1_455 S
C10 O2 1.252 . S
O11 In0 2.294 . S
O11 C4 1.240 . S
O12 In0 2.326 . S
O12 C4 1.252 . S
In13 O14 2.294 . S
In13 O15 2.326 1_455 S
In13 O19 2.266 . S
In13 O20 2.326 1_545 S
In13 O21 2.266 1_445 S
In13 O22 2.326 1_545 S
In13 O24 2.294 1_445 S
In13 O25 2.326 1_455 S
O14 In13 2.294 . S
O14 C23 1.240 1_455 S
O15 In13 2.326 1_655 S
O15 C23 1.252 . S
C16 O19 1.252 1_565 S
C16 O20 1.260 . S
C17 O24 1.240 1_545 S
C17 O25 1.252 . S
C18 O21 1.252 1_455 S
C18 O22 1.260 . S
O19 In13 2.266 . S
O19 C16 1.252 1_545 S
O20 In13 2.326 1_565 S
O20 C16 1.260 . S
O21 In13 2.266 1_665 S
O21 C18 1.252 1_655 S
O22 In13 2.326 1_565 S
O22 C18 1.260 . S
C23 O14 1.240 1_655 S
C23 O15 1.252 . S
O24 In13 2.294 1_665 S
O24 C17 1.240 1_565 S
O25 In13 2.326 1_655 S
O25 C17 1.252 . S
In26 O27 2.294 1_445 S
In26 O28 2.326 1_445 S
In26 O32 2.266 1_545 S
In26 O33 2.326 . S
In26 O34 2.266 . S
In26 O35 2.326 . S
In26 O37 2.294 1_455 S
In26 O38 2.326 1_445 S
O27 In26 2.294 1_665 S
O27 C36 1.240 . S
O28 In26 2.326 1_665 S
O28 C36 1.252 . S
C29 O32 1.252 1_545 S
C29 O33 1.260 . S
C30 O37 1.240 1_565 S
C30 O38 1.252 . S
C31 O34 1.252 . S
C31 O35 1.260 . S
O32 In26 2.266 1_565 S
O32 C29 1.252 1_565 S
O33 In26 2.326 . S
O33 C29 1.260 . S
O34 In26 2.266 . S
O34 C31 1.252 . S
O35 In26 2.326 . S
O35 C31 1.260 . S
C36 O27 1.240 . S
C36 O28 1.252 . S
O37 In26 2.294 1_655 S
O37 C30 1.240 1_545 S
O38 In26 2.326 1_665 S
O38 C30 1.252 . S
C39 O41 1.247 . S
C39 O43 1.258 1_455 S
C40 O47 1.247 1_455 S
C40 O48 1.258 . S
O41 C39 1.247 . S
O41 Zn42 2.028 . S
Zn42 O41 2.028 . S
Zn42 O46 2.035 . S
Zn42 O48 2.035 . S
Zn42 O49 2.028 . S
O43 C39 1.258 1_655 S
O43 Zn44 2.035 . S
Zn44 O43 2.035 . S
Zn44 O45 2.028 . S
Zn44 O47 2.028 . S
Zn44 O50 2.035 . S
O45 Zn44 2.028 . S
O45 C51 1.247 1_655 S
O46 Zn42 2.035 . S
O46 C51 1.258 . S
O47 C40 1.247 1_655 S
O47 Zn44 2.028 . S
O48 C40 1.258 . S
O48 Zn42 2.035 . S
O49 Zn42 2.028 . S
O49 C52 1.247 . S
O50 Zn44 2.035 . S
O50 C52 1.258 1_655 S
C51 O45 1.247 1_455 S
C51 O46 1.258 . S
C52 O49 1.247 . S
C52 O50 1.258 1_455 S
C53 O55 1.247 1_545 S
C53 O57 1.258 . S
C54 O61 1.247 . S
C54 O62 1.258 1_545 S
O55 C53 1.247 1_565 S
O55 Zn56 2.028 . S
Zn56 O55 2.028 . S
Zn56 O60 2.035 . S
Zn56 O62 2.035 . S
Zn56 O63 2.028 . S
O57 C53 1.258 . S
O57 Zn58 2.035 . S
Zn58 O57 2.035 . S
Zn58 O59 2.028 . S
Zn58 O61 2.028 . S
Zn58 O64 2.035 . S
O59 Zn58 2.028 . S
O59 C65 1.247 . S
O60 Zn56 2.035 . S
O60 C65 1.258 1_565 S
O61 C54 1.247 . S
O61 Zn58 2.028 . S
O62 C54 1.258 1_565 S
O62 Zn56 2.035 . S
O63 Zn56 2.028 . S
O63 C66 1.247 1_565 S
O64 Zn58 2.035 . S
O64 C66 1.258 . S
C65 O59 1.247 . S
C65 O60 1.258 1_545 S
C66 O63 1.247 1_545 S
C66 O64 1.258 . S
C67 O69 1.247 . S
C67 O71 1.258 . S
C68 O75 1.247 . S
C68 O76 1.258 . S
O69 C67 1.247 . S
O69 Zn70 2.028 . S
Zn70 O69 2.028 . S
Zn70 O74 2.035 . S
Zn70 O76 2.035 . S
Zn70 O77 2.028 . S
O71 C67 1.258 . S
O71 Zn72 2.035 . S
Zn72 O71 2.035 . S
Zn72 O73 2.028 . S
Zn72 O75 2.028 . S
Zn72 O78 2.035 . S
O73 Zn72 2.028 . S
O73 C79 1.247 . S
O74 Zn70 2.035 . S
O74 C79 1.258 . S
O75 C68 1.247 . S
O75 Zn72 2.028 . S
O76 C68 1.258 . S
O76 Zn70 2.035 . S
O77 Zn70 2.028 . S
O77 C80 1.247 . S
O78 Zn72 2.035 . S
O78 C80 1.258 . S
C79 O73 1.247 . S
C79 O74 1.258 . S
C80 O77 1.247 . S
C80 O78 1.258 . S
H81 C87 0.930 . S
H82 C90 0.930 . S
H83 C91 0.930 . S
H84 C92 0.930 . S
H85 C95 0.930 . S
H86 C96 0.930 . S
C87 H81 0.930 . S
C87 C88 1.355 . S
C87 C89 1.415 . S
C88 C87 1.355 . S
C88 C90 1.419 1_455 S
C89 C87 1.415 . S
C89 C94 1.425 1_455 S
C89 C96 1.409 . S
C90 H82 0.930 . S
C90 C88 1.419 1_655 S
C90 C91 1.362 . S
C91 H83 0.930 . S
C91 C90 1.362 . S
C91 C94 1.409 . S
C92 H84 0.930 . S
C92 C93 1.355 1_655 S
C92 C94 1.415 . S
C93 C92 1.355 1_455 S
C93 C95 1.419 . S
C94 C89 1.425 1_655 S
C94 C91 1.409 . S
C94 C92 1.415 . S
C95 H85 0.930 . S
C95 C93 1.419 . S
C95 C96 1.362 . S
C96 H86 0.930 . S
C96 C89 1.409 . S
C96 C95 1.362 . S
H97 C103 0.930 . S
H98 C106 0.931 . S
H99 C107 0.932 1_565 S
H100 C108 0.930 . S
H101 C111 0.930 . S
H102 C112 0.930 . S
C103 H97 0.930 . S
C103 C104 1.355 . S
C103 C105 1.415 . S
C104 C103 1.355 . S
C104 C106 1.419 . S
C105 C103 1.415 . S
C105 C110 1.425 . S
C105 C112 1.409 . S
C106 H98 0.931 . S
C106 C104 1.419 . S
C106 C107 1.360 . S
C107 H99 0.932 1_545 S
C107 C106 1.360 . S
C107 C110 1.409 . S
C108 H100 0.930 . S
C108 C109 1.355 . S
C108 C110 1.415 . S
C109 C108 1.355 . S
C109 C111 1.419 . S
C110 C105 1.425 . S
C110 C107 1.409 . S
C110 C108 1.415 . S
C111 H101 0.930 . S
C111 C109 1.419 . S
C111 C112 1.362 . S
C112 H102 0.930 . S
C112 C105 1.409 . S
C112 C111 1.362 . S
H113 C119 0.930 . S
H114 C122 0.930 . S
H115 C123 0.930 . S
H116 C124 0.930 . S
H117 C127 0.930 . S
H118 C128 0.930 . S
C119 H113 0.930 . S
C119 C120 1.355 . S
C119 C121 1.415 . S
C120 C119 1.355 . S
C120 C122 1.419 . S
C121 C119 1.415 . S
C121 C126 1.425 . S
C121 C128 1.409 . S
C122 H114 0.930 . S
C122 C120 1.419 . S
C122 C123 1.362 . S
C123 H115 0.930 . S
C123 C122 1.362 . S
C123 C126 1.409 . S
C124 H116 0.930 . S
C124 C125 1.355 . S
C124 C126 1.415 . S
C125 C124 1.355 . S
C125 C127 1.419 . S
C126 C121 1.425 . S
C126 C123 1.409 . S
C126 C124 1.415 . S
C127 H117 0.930 . S
C127 C125 1.419 . S
C127 C128 1.362 . S
C128 H118 0.930 . S
C128 C121 1.409 . S
C128 C127 1.362 . S
H129 C135 0.930 . S
H130 C138 0.930 . S
H131 C139 0.930 . S
H132 C140 0.930 . S
H133 C143 0.930 . S
H134 C144 0.930 . S
C135 H129 0.930 . S
C135 C136 1.355 1_455 S
C135 C137 1.415 . S
C136 C135 1.355 1_655 S
C136 C138 1.419 . S
C137 C135 1.415 . S
C137 C142 1.425 1_455 S
C137 C144 1.409 . S
C138 H130 0.930 . S
C138 C136 1.419 . S
C138 C139 1.362 . S
C139 H131 0.930 . S
C139 C138 1.362 . S
C139 C142 1.409 . S
C140 H132 0.930 . S
C140 C141 1.355 1_655 S
C140 C142 1.415 . S
C141 C140 1.355 1_455 S
C141 C143 1.419 . S
C142 C137 1.425 1_655 S
C142 C139 1.409 . S
C142 C140 1.415 . S
C143 H133 0.930 . S
C143 C141 1.419 . S
C143 C144 1.362 . S
C144 H134 0.930 . S
C144 C137 1.409 . S
C144 C143 1.362 . S
H145 C151 0.930 . S
H146 C154 0.930 . S
H147 C155 0.930 . S
H148 C156 0.930 . S
H149 C159 0.930 . S
H150 C160 0.930 . S
C151 H145 0.930 . S
C151 C152 1.355 1_545 S
C151 C153 1.415 . S
C152 C151 1.355 1_565 S
C152 C154 1.419 . S
C153 C151 1.415 . S
C153 C158 1.425 1_545 S
C153 C160 1.409 . S
C154 H146 0.930 . S
C154 C152 1.419 . S
C154 C155 1.362 . S
C155 H147 0.930 . S
C155 C154 1.362 . S
C155 C158 1.409 . S
C156 H148 0.930 . S
C156 C157 1.355 1_565 S
C156 C158 1.415 . S
C157 C156 1.355 1_545 S
C157 C159 1.419 . S
C158 C153 1.425 1_565 S
C158 C155 1.409 . S
C158 C156 1.415 . S
C159 H149 0.930 . S
C159 C157 1.419 . S
C159 C160 1.362 . S
C160 H150 0.930 . S
C160 C153 1.409 . S
C160 C159 1.362 . S
H161 C167 0.930 . S
H162 C170 0.930 . S
H163 C171 0.930 . S
H164 C172 0.930 . S
H165 C175 0.930 . S
H166 C176 0.930 . S
C167 H161 0.930 . S
C167 C168 1.355 . S
C167 C169 1.415 . S
C168 C167 1.355 . S
C168 C170 1.419 . S
C169 C167 1.415 . S
C169 C174 1.425 . S
C169 C176 1.409 . S
C170 H162 0.930 . S
C170 C168 1.419 . S
C170 C171 1.362 . S
C171 H163 0.930 . S
C171 C170 1.362 . S
C171 C174 1.409 . S
C172 H164 0.930 . S
C172 C173 1.355 . S
C172 C174 1.415 . S
C173 C172 1.355 . S
C173 C175 1.419 . S
C174 C169 1.425 . S
C174 C171 1.409 . S
C174 C172 1.415 . S
C175 H165 0.930 . S
C175 C173 1.419 . S
C175 C176 1.362 . S
C176 H166 0.930 . S
C176 C169 1.409 . S
C176 C175 1.362 . S
H177 C183 0.930 . S
H178 C186 0.930 . S
H179 C187 0.930 . S
H180 C188 0.930 . S
H181 C191 0.930 . S
H182 C192 0.930 . S
C183 H177 0.930 . S
C183 C184 1.355 1_565 S
C183 C185 1.415 . S
C184 C183 1.355 1_545 S
C184 C186 1.419 . S
C185 C183 1.415 . S
C185 C190 1.425 1_565 S
C185 C192 1.409 . S
C186 H178 0.930 . S
C186 C184 1.419 . S
C186 C187 1.362 . S
C187 H179 0.930 . S
C187 C186 1.362 . S
C187 C190 1.409 . S
C188 H180 0.930 . S
C188 C189 1.355 1_545 S
C188 C190 1.415 . S
C189 C188 1.355 1_565 S
C189 C191 1.419 . S
C190 C185 1.425 1_545 S
C190 C187 1.409 . S
C190 C188 1.415 . S
C191 H181 0.930 . S
C191 C189 1.419 . S
C191 C192 1.362 . S
C192 H182 0.930 . S
C192 C185 1.409 . S
C192 C191 1.362 . S
H193 C199 0.930 . S
H194 C202 0.929 1_554 S
H195 C203 0.930 . S
H196 C204 0.930 . S
H197 C207 0.930 . S
H198 C208 0.930 1_554 S
C199 H193 0.930 . S
C199 C200 1.355 . S
C199 C201 1.415 1_554 S
C200 C199 1.355 . S
C200 C202 1.403 1_554 S
C201 C199 1.415 1_556 S
C201 C206 1.425 . S
C201 C208 1.409 . S
C202 H194 0.929 1_556 S
C202 C200 1.403 1_556 S
C202 C203 1.380 . S
C203 H195 0.930 . S
C203 C202 1.380 . S
C203 C206 1.409 . S
C204 H196 0.930 . S
C204 C205 1.355 . S
C204 C206 1.415 . S
C205 C204 1.355 . S
C205 C207 1.419 . S
C206 C201 1.425 . S
C206 C203 1.409 . S
C206 C204 1.415 . S
C207 H197 0.930 . S
C207 C205 1.419 . S
C207 C208 1.362 . S
C208 H198 0.930 1_556 S
C208 C201 1.409 . S
C208 C207 1.362 . S
H209 C215 0.930 . S
H210 C218 0.930 . S
H211 C219 0.930 . S
H212 C220 0.930 . S
H213 C223 0.930 . S
H214 C224 0.930 . S
C215 H209 0.930 . S
C215 C216 1.355 . S
C215 C217 1.415 . S
C216 C215 1.355 . S
C216 C218 1.419 1_455 S
C217 C215 1.415 . S
C217 C222 1.425 1_455 S
C217 C224 1.409 . S
C218 H210 0.930 . S
C218 C216 1.419 1_655 S
C218 C219 1.362 . S
C219 H211 0.930 . S
C219 C218 1.362 . S
C219 C222 1.409 . S
C220 H212 0.930 . S
C220 C221 1.355 1_655 S
C220 C222 1.415 . S
C221 C220 1.355 1_455 S
C221 C223 1.419 . S
C222 C217 1.425 1_655 S
C222 C219 1.409 . S
C222 C220 1.415 . S
C223 H213 0.930 . S
C223 C221 1.419 . S
C223 C224 1.362 . S
C224 H214 0.930 . S
C224 C217 1.409 . S
C224 C223 1.362 . S
H225 C231 0.930 . S
H226 C234 0.930 . S
H227 C235 0.930 . S
H228 C236 0.930 . S
H229 C239 0.930 . S
H230 C240 0.930 . S
C231 H225 0.930 . S
C231 C232 1.355 . S
C231 C233 1.415 . S
C232 C231 1.355 . S
C232 C234 1.419 1_545 S
C233 C231 1.415 . S
C233 C238 1.425 1_545 S
C233 C240 1.409 . S
C234 H226 0.930 . S
C234 C232 1.419 1_565 S
C234 C235 1.362 . S
C235 H227 0.930 . S
C235 C234 1.362 . S
C235 C238 1.409 . S
C236 H228 0.930 . S
C236 C237 1.355 1_565 S
C236 C238 1.415 . S
C237 C236 1.355 1_545 S
C237 C239 1.419 . S
C238 C233 1.425 1_565 S
C238 C235 1.409 . S
C238 C236 1.415 . S
C239 H229 0.930 . S
C239 C237 1.419 . S
C239 C240 1.362 . S
C240 H230 0.930 . S
C240 C233 1.409 . S
C240 C239 1.362 . S
H241 C247 0.930 . S
H242 C250 0.930 . S
H243 C251 0.930 . S
H244 C252 0.930 . S
H245 C255 0.930 . S
H246 C256 0.930 . S
C247 H241 0.930 . S
C247 C248 1.355 . S
C247 C249 1.414 . S
C248 C247 1.355 . S
C248 C250 1.419 1_554 S
C249 C247 1.414 . S
C249 C254 1.426 1_554 S
C249 C256 1.409 . S
C250 H242 0.930 . S
C250 C248 1.419 1_556 S
C250 C251 1.362 . S
C251 H243 0.930 . S
C251 C250 1.362 . S
C251 C254 1.409 . S
C252 H244 0.930 . S
C252 C253 1.355 . S
C252 C254 1.415 . S
C253 C252 1.355 . S
C253 C255 1.419 . S
C254 C249 1.426 1_556 S
C254 C251 1.409 . S
C254 C252 1.415 . S
C255 H245 0.930 . S
C255 C253 1.419 . S
C255 C256 1.362 1_556 S
C256 H246 0.930 . S
C256 C249 1.409 . S
C256 C255 1.362 1_554 S
H257 C263 0.930 . S
H258 C266 0.930 . S
H259 C267 0.930 . S
H260 C268 0.930 . S
H261 C271 0.930 . S
H262 C272 0.930 . S
C263 H257 0.930 . S
C263 C264 1.355 1_455 S
C263 C265 1.415 . S
C264 C263 1.355 1_655 S
C264 C266 1.419 . S
C265 C263 1.415 . S
C265 C270 1.425 1_455 S
C265 C272 1.409 . S
C266 H258 0.930 . S
C266 C264 1.419 . S
C266 C267 1.362 . S
C267 H259 0.930 . S
C267 C266 1.362 . S
C267 C270 1.409 . S
C268 H260 0.930 . S
C268 C269 1.355 1_655 S
C268 C270 1.415 . S
C269 C268 1.355 1_455 S
C269 C271 1.419 . S
C270 C265 1.425 1_655 S
C270 C267 1.409 . S
C270 C268 1.415 . S
C271 H261 0.930 . S
C271 C269 1.419 . S
C271 C272 1.362 . S
C272 H262 0.930 . S
C272 C265 1.409 . S
C272 C271 1.362 . S
C93 C40 1.491 . S
C88 C10 1.490 . S
C104 C17 1.492 . S
C109 C66 1.494 . S
C120 C36 1.493 . S
C125 C68 1.495 . S
C136 C5 1.491 . S
C141 C52 1.497 . S
C157 C54 1.494 . S
C152 C16 1.494 . S
C168 C31 1.493 . S
C173 C80 1.493 . S
C189 C53 1.492 1_565 S
C184 C30 1.491 1_545 S
C200 C3 1.493 . S
C205 C79 1.494 . S
C221 C39 1.491 . S
C216 C18 1.492 . S
C237 C65 1.494 . S
C232 C29 1.495 . S
C253 C67 1.489 . S
C248 C4 1.492 . S
C264 C23 1.493 . S
C269 C51 1.495 . S
