# Generated by pormake.
# Topology zzz, (3,6)-cn, num edge types: 1
# Building blocks:
#     Node 0, Type 0, BuildingBlock: OLANEW_clean_sbu_2, # of connection points: 3
#     Node 1, Type 0, BuildingBlock: OLANEW_clean_sbu_2, # of connection points: 3
#     Node 2, Type 0, BuildingBlock: OLANEW_clean_sbu_2, # of connection points: 3
#     Node 3, Type 0, BuildingBlock: OLANEW_clean_sbu_2, # of connection points: 3
#     Node 4, Type 0, BuildingBlock: OLANEW_clean_sbu_2, # of connection points: 3
#     Node 5, Type 0, BuildingBlock: OLANEW_clean_sbu_2, # of connection points: 3
#     Node 6, Type 0, BuildingBlock: OLANEW_clean_sbu_2, # of connection points: 3
#     Node 7, Type 0, BuildingBlock: OLANEW_clean_sbu_2, # of connection points: 3
#     Node 8, Type 1, BuildingBlock: BETDAH_clean_sbu_0, # of connection points: 6
#     Node 9, Type 1, BuildingBlock: BETDAH_clean_sbu_0, # of connection points: 6
#     Node 10, Type 1, BuildingBlock: BETDAH_clean_sbu_0, # of connection points: 6
#     Node 11, Type 1, BuildingBlock: BETDAH_clean_sbu_0, # of connection points: 6
#     Edge 12, Type (0, 1), BuildingBlock: CIFDUS_clean_linker_0, # of connection points: 2
#     Edge 13, Type (0, 1), BuildingBlock: CIFDUS_clean_linker_0, # of connection points: 2
#     Edge 14, Type (0, 1), BuildingBlock: CIFDUS_clean_linker_0, # of connection points: 2
#     Edge 15, Type (0, 1), BuildingBlock: CIFDUS_clean_linker_0, # of connection points: 2
#     Edge 16, Type (0, 1), BuildingBlock: CIFDUS_clean_linker_0, # of connection points: 2
#     Edge 17, Type (0, 1), BuildingBlock: CIFDUS_clean_linker_0, # of connection points: 2
#     Edge 18, Type (0, 1), BuildingBlock: CIFDUS_clean_linker_0, # of connection points: 2
#     Edge 19, Type (0, 1), BuildingBlock: CIFDUS_clean_linker_0, # of connection points: 2
#     Edge 20, Type (0, 1), BuildingBlock: CIFDUS_clean_linker_0, # of connection points: 2
#     Edge 21, Type (0, 1), BuildingBlock: CIFDUS_clean_linker_0, # of connection points: 2
#     Edge 22, Type (0, 1), BuildingBlock: CIFDUS_clean_linker_0, # of connection points: 2
#     Edge 23, Type (0, 1), BuildingBlock: CIFDUS_clean_linker_0, # of connection points: 2
#     Edge 24, Type (0, 1), BuildingBlock: CIFDUS_clean_linker_0, # of connection points: 2
#     Edge 25, Type (0, 1), BuildingBlock: CIFDUS_clean_linker_0, # of connection points: 2
#     Edge 26, Type (0, 1), BuildingBlock: CIFDUS_clean_linker_0, # of connection points: 2
#     Edge 27, Type (0, 1), BuildingBlock: CIFDUS_clean_linker_0, # of connection points: 2
#     Edge 28, Type (0, 1), BuildingBlock: CIFDUS_clean_linker_0, # of connection points: 2
#     Edge 29, Type (0, 1), BuildingBlock: CIFDUS_clean_linker_0, # of connection points: 2
#     Edge 30, Type (0, 1), BuildingBlock: CIFDUS_clean_linker_0, # of connection points: 2
#     Edge 31, Type (0, 1), BuildingBlock: CIFDUS_clean_linker_0, # of connection points: 2
#     Edge 32, Type (0, 1), BuildingBlock: CIFDUS_clean_linker_0, # of connection points: 2
#     Edge 33, Type (0, 1), BuildingBlock: CIFDUS_clean_linker_0, # of connection points: 2
#     Edge 34, Type (0, 1), BuildingBlock: CIFDUS_clean_linker_0, # of connection points: 2
#     Edge 35, Type (0, 1), BuildingBlock: CIFDUS_clean_linker_0, # of connection points: 2
# Relax obj value: 0.270
# Max RMSD: 0.198
# Mean RMSD: 0.175
data_MOF--net-zzz--node1-OLANEW_clean_sbu_2--node2-BETDAH_clean_sbu_0--edge1-CIFDUS_clean_linker_0
_symmetry_space_group_name_H-M    P1
_symmetry_Int_Tables_number       1
_symmetry_cell_setting            triclinic
loop_
_symmetry_equiv_pos_as_xyz
'x, y, z'
_cell_length_a     49.295672
_cell_length_b     49.236384
_cell_length_c     13.435168
_cell_angle_alpha  90.241417
_cell_angle_beta   90.271635
_cell_angle_gamma 89.871541
loop_
_atom_site_label
_atom_site_type_symbol
_atom_site_fract_x
_atom_site_fract_y
_atom_site_fract_z
_atom_type_partial_charge
O0 O 0.74298 0.53032 0.24435 0.0
Cd1 Cd 0.70104 0.54726 0.31801 0.0
O2 O 0.74655 0.50215 0.36884 0.0
Cd3 Cd 0.76488 0.47267 0.46942 0.0
O4 O 0.80082 0.47273 0.56197 0.0
C5 C 0.80338 0.47315 0.65607 0.0
O6 O 0.78213 0.47016 0.71349 0.0
C7 C 0.75642 0.51206 0.28942 0.0
C8 C 0.65708 0.53487 0.1966 0.0
O9 O 0.67131 0.55622 0.18196 0.0
O10 O 0.66344 0.51949 0.26988 0.0
O11 O 0.99073 0.75819 0.31498 0.0
Cd12 Cd 0.97652 0.71202 0.35829 0.0
O13 O 1.00176 0.76425 0.47128 0.0
Cd14 Cd 0.01838 0.78451 0.60316 0.0
O15 O 0.03366 0.78192 0.7632 0.0
C16 C 0.02935 0.79954 0.83162 0.0
O17 O 0.03427 0.78101 0.76449 0.0
C18 C 0.99954 0.77371 0.38374 0.0
C19 C 0.98065 0.6742 0.20351 0.0
O20 O 0.95992 0.68982 0.21112 0.0
O21 O 0.99965 0.67667 0.26837 0.0
O22 O 0.77411 0.98569 0.27367 0.0
Cd23 Cd 0.8207 0.97938 0.33424 0.0
O24 O 0.77286 0.0248 0.35195 0.0
Cd25 Cd 0.74914 0.05718 0.41943 0.0
O26 O 0.7077 0.05945 0.47133 0.0
C27 C 0.70188 0.04667 0.55024 0.0
O28 O 0.72148 0.03531 0.60213 0.0
C29 C 0.76096 1.00675 0.29974 0.0
C30 C 0.86093 0.9913 0.19614 0.0
O31 O 0.84961 0.9679 0.19812 0.0
O32 O 0.85298 0.00929 0.25888 0.0
O33 O 0.54729 0.78176 0.37508 0.0
Cd34 Cd 0.54971 0.82732 0.44674 0.0
O35 O 0.50273 0.78205 0.37962 0.0
Cd36 Cd 0.46511 0.75861 0.37651 0.0
O37 O 0.4608 0.71531 0.40375 0.0
C38 C 0.47704 0.70727 0.47116 0.0
O39 O 0.49153 0.72545 0.51953 0.0
C40 C 0.52484 0.76998 0.35815 0.0
C41 C 0.54457 0.86541 0.296 0.0
O42 O 0.56755 0.85452 0.31643 0.0
O43 O 0.524 0.85867 0.34832 0.0
O44 O 0.27004 0.48274 0.16406 0.0
Cd45 Cd 0.31606 0.47086 0.11417 0.0
O46 O 0.26002 0.47931 0.0066 0.0
Cd47 Cd 0.23733 0.4761 0.86798 0.0
O48 O 0.24003 0.46877 0.70088 0.0
C49 C 0.22292 0.47716 0.6361 0.0
O50 O 0.24093 0.46817 0.69924 0.0
C51 C 0.25231 0.48364 0.09534 0.0
C52 C 0.35388 0.48468 0.25951 0.0
O53 O 0.34913 0.50059 0.18612 0.0
O54 O 0.34074 0.46229 0.26389 0.0
O55 O 0.99972 0.27296 0.14378 0.0
Cd56 Cd 1.00569 0.32061 0.09441 0.0
O57 O 0.01793 0.26339 -0.00016 0.0
Cd58 Cd 0.03284 0.23932 0.87381 0.0
O59 O 0.05258 0.24094 0.7201 0.0
C60 C 0.05192 0.22439 0.64612 0.0
O61 O 0.05302 0.24162 0.7197 0.0
C62 C 0.00817 0.25527 0.0819 0.0
C63 C 1.00395 0.35921 0.24773 0.0
O64 O 0.98284 0.35397 0.19506 0.0
O65 O 0.02571 0.34583 0.22939 0.0
O66 O 0.24032 0.02085 0.15776 0.0
Cd67 Cd 0.19811 0.03505 0.07761 0.0
O68 O 0.25938 1.00359 0.0239 0.0
Cd69 Cd 0.23055 0.02077 0.91827 0.0
O70 O 0.27103 0.03175 0.86742 0.0
C71 C 0.28196 0.02036 0.79265 0.0
O72 O 0.26741 1.00389 0.73689 0.0
C73 C 0.25986 0.00824 0.11691 0.0
C74 C 0.15644 0.02845 0.21506 0.0
O75 O 0.16164 0.00994 0.1505 0.0
O76 O 0.17042 0.05035 0.21262 0.0
O77 O 0.54407 0.22087 0.14854 0.0
Cd78 Cd 0.53617 0.17561 0.07951 0.0
O79 O 0.50144 0.22654 0.1087 0.0
Cd80 Cd 0.46666 0.25212 0.07484 0.0
O81 O 0.46021 0.29268 0.01861 0.0
C82 C 0.46436 0.29673 0.92668 0.0
O83 O 0.46946 0.27587 0.86836 0.0
C84 C 0.52329 0.23612 0.14541 0.0
C85 C 0.52779 0.13847 0.23117 0.0
O86 O 0.55097 0.14042 0.18899 0.0
O87 O 0.50849 0.15384 0.20077 0.0
Ho88 Ho 0.02353 0.0111 0.83173 0.0
Ho89 Ho 1.00435 0.01339 0.61259 0.0
C90 C 0.01414 0.95553 0.70129 0.0
C91 C 0.02965 0.99814 0.01669 0.0
C92 C 0.0256 0.97237 0.06955 0.0
C93 C 1.00631 0.95365 0.03458 0.0
C94 C 1.00503 0.92769 0.07515 0.0
C95 C 0.02287 0.92 0.15165 0.0
C96 C 0.04127 0.9391 0.19036 0.0
C97 C 0.04273 0.96514 0.14898 0.0
C98 C 0.06238 0.01871 0.69452 0.0
C99 C 0.01503 0.06946 0.74343 0.0
C100 C 0.99745 0.02683 0.42833 0.0
C101 C 0.99273 0.05345 0.38195 0.0
C102 C 1.0 0.05803 0.2827 0.0
C103 C 0.99747 0.08404 0.2416 0.0
C104 C 0.98784 0.10593 0.29956 0.0
C105 C 0.98025 0.10099 0.39866 0.0
C106 C 0.98251 0.07504 0.43908 0.0
C107 C 0.96545 1.00483 0.7482 0.0
O108 O 0.01285 0.96777 0.78931 0.0
O109 O 0.01559 0.96942 0.61746 0.0
O110 O 0.04952 0.99797 0.95256 0.0
O111 O 0.00774 0.00984 0.98155 0.0
O112 O 0.0629 0.03002 0.78204 0.0
O113 O 0.04234 1.00311 0.68692 0.0
O114 O 0.01251 0.05722 0.65567 0.0
O115 O 0.01656 0.05574 0.82749 0.0
O116 O 0.97789 0.01789 0.48485 0.0
O117 O 0.02136 0.02368 0.4693 0.0
O118 O 0.96537 0.99389 0.66015 0.0
O119 O 0.98515 0.02092 0.75751 0.0
H120 H 0.99275 0.95881 0.97383 0.0
H121 H 0.99039 0.91339 0.0456 0.0
H122 H 0.05519 0.93352 0.24949 0.0
H123 H 0.05781 0.9793 0.17663 0.0
H124 H 0.00796 0.0416 0.23748 0.0
H125 H 1.00315 0.08699 0.16466 0.0
H126 H 0.97327 0.11733 0.44632 0.0
H127 H 0.97681 0.07198 0.51596 0.0
Ho128 Ho 0.50408 0.02818 0.89567 0.0
Ho129 Ho 0.49515 0.99674 0.6972 0.0
C130 C 0.55592 0.00944 0.75797 0.0
C131 C 0.52308 0.04045 0.06944 0.0
C132 C 0.55129 0.04292 0.10641 0.0
C133 C 0.55906 0.02994 0.19495 0.0
C134 C 0.58635 0.02939 0.22467 0.0
C135 C 0.60634 0.042 0.16664 0.0
C136 C 0.59839 0.0556 0.0794 0.0
C137 C 0.5712 0.05592 0.04926 0.0
C138 C 0.4976 0.0588 0.73177 0.0
C139 C 0.44361 0.02052 0.82421 0.0
C140 C 0.48025 0.98041 0.52221 0.0
C141 C 0.45526 0.98216 0.46274 0.0
C142 C 0.43574 1.00211 0.48358 0.0
C143 C 0.41172 1.00327 0.42838 0.0
C144 C 0.40686 0.98457 0.3509 0.0
C145 C 0.42668 0.96481 0.32941 0.0
C146 C 0.45067 0.96358 0.38523 0.0
C147 C 0.50393 0.96664 0.86017 0.0
O148 O 0.54673 0.01656 0.84703 0.0
O149 O 0.53954 1.0031 0.68346 0.0
O150 O 0.5148 0.05872 0.00534 0.0
O151 O 0.51572 0.01583 0.04433 0.0
O152 O 0.4894 0.06657 0.81938 0.0
O153 O 0.51022 0.03675 0.73854 0.0
O154 O 0.45379 0.01359 0.73638 0.0
O155 O 0.45909 0.02411 0.90397 0.0
O156 O 0.47898 0.96515 0.60154 0.0
O157 O 0.49273 1.00343 0.53881 0.0
O158 O 0.51333 0.96025 0.77301 0.0
O159 O 0.48954 0.9877 0.85515 0.0
H160 H 0.5441 0.01962 0.23985 0.0
H161 H 0.59185 0.01891 0.29257 0.0
H162 H 0.61335 0.06519 0.03243 0.0
H163 H 0.56593 0.06569 0.9797 0.0
H164 H 0.43909 0.01684 0.54239 0.0
H165 H 0.39709 0.01902 0.44566 0.0
H166 H 0.42344 0.95004 0.27059 0.0
H167 H 0.46557 0.94804 0.36825 0.0
Ho168 Ho 0.49452 0.5159 0.84768 0.0
Ho169 Ho 0.50972 0.49496 0.63667 0.0
C170 C 0.50799 0.55852 0.66977 0.0
C171 C 0.49253 0.54055 0.01789 0.0
C172 C 0.49511 0.56871 0.05563 0.0
C173 C 0.51973 0.58303 0.0497 0.0
C174 C 0.52154 0.6097 0.0854 0.0
C175 C 0.49876 0.62262 0.12681 0.0
C176 C 0.47429 0.60822 0.13367 0.0
C177 C 0.47254 0.58148 0.099 0.0
C178 C 0.4531 0.50526 0.7224 0.0
C179 C 0.49449 0.45259 0.81639 0.0
C180 C 0.51123 0.47021 0.46636 0.0
C181 C 0.51064 0.44189 0.42857 0.0
C182 C 0.48898 0.43343 0.36771 0.0
C183 C 0.48791 0.40684 0.33093 0.0
C184 C 0.5086 0.38812 0.35356 0.0
C185 C 0.53047 0.39668 0.41344 0.0
C186 C 0.53146 0.42325 0.4508 0.0
C187 C 0.55126 0.5065 0.75965 0.0
O188 O 0.50866 0.55341 0.76659 0.0
O189 O 0.50454 0.53908 0.60258 0.0
O190 O 0.47105 0.53535 0.96358 0.0
O191 O 0.51446 0.52886 0.98331 0.0
O192 O 0.45203 0.50044 0.81723 0.0
O193 O 0.47518 0.51629 0.70089 0.0
O194 O 0.49615 0.45721 0.71924 0.0
O195 O 0.49719 0.4721 0.88328 0.0
O196 O 0.53293 0.47804 0.51503 0.0
O197 O 0.48882 0.4793 0.50653 0.0
O198 O 0.55191 0.51086 0.66444 0.0
O199 O 0.52947 0.49501 0.7831 0.0
H200 H 0.53754 0.57376 0.01695 0.0
H201 H 0.54059 0.62044 0.07871 0.0
H202 H 0.45653 0.61762 0.16635 0.0
H203 H 0.45344 0.5708 0.10553 0.0
H204 H 0.4728 0.44744 0.34864 0.0
H205 H 0.47095 0.40097 0.28402 0.0
H206 H 0.54659 0.38266 0.43298 0.0
H207 H 0.54848 0.42909 0.49739 0.0
Ho208 Ho 0.01054 0.49395 0.86634 0.0
Ho209 Ho 0.01691 0.5205 0.65992 0.0
C210 C 0.95724 0.51144 0.73194 0.0
C211 C 0.9936 0.48375 0.04403 0.0
C212 C 0.96628 0.48538 0.08849 0.0
C213 C 0.94758 0.50503 0.05588 0.0
C214 C 0.92115 0.50543 0.0928 0.0
C215 C 0.91277 0.48627 0.16362 0.0
C216 C 0.93167 0.46686 0.19748 0.0
C217 C 0.95816 0.46636 0.15983 0.0
C218 C 0.01823 0.45936 0.71359 0.0
C219 C 0.06996 0.50082 0.78801 0.0
C220 C 0.03254 0.53025 0.48068 0.0
C221 C 0.05663 0.52087 0.42594 0.0
C222 C 0.06778 0.49517 0.44555 0.0
C223 C 0.0922 0.48731 0.40203 0.0
C224 C 0.10624 0.5051 0.33895 0.0
C225 C 0.09454 0.53049 0.31666 0.0
C226 C 0.06992 0.5383 0.35996 0.0
C227 C 0.00878 0.55505 0.8125 0.0
O228 O 0.96758 0.50497 0.81995 0.0
O229 O 0.97244 0.51618 0.65358 0.0
O230 O 0.99673 0.46496 0.97592 0.0
O231 O 1.00464 0.50688 0.01876 0.0
O232 O 0.02775 0.45516 0.80267 0.0
O233 O 1.00393 0.48058 0.71216 0.0
O234 O 0.05842 0.50496 0.70022 0.0
O235 O 0.05569 0.49846 0.87065 0.0
O236 O 0.03747 0.54667 0.55543 0.0
O237 O 0.01478 0.51149 0.50265 0.0
O238 O 0.99965 0.55929 0.723 0.0
O239 O 0.02327 0.53396 0.81405 0.0
H240 H 0.95331 0.52004 0.00126 0.0
H241 H 0.90731 0.52096 0.0664 0.0
H242 H 0.92585 0.45173 0.25157 0.0
H243 H 0.97221 0.45093 0.18551 0.0
H244 H 0.05798 0.48137 0.49664 0.0
H245 H 0.10039 0.46746 0.41959 0.0
H246 H 0.10495 0.54478 0.26927 0.0
H247 H 0.06171 0.55828 0.34449 0.0
H248 H 0.14947 0.05773 0.38469 0.0
H249 H 0.11743 0.98917 0.22128 0.0
H250 H 0.08525 0.98036 0.35508 0.0
H251 H 0.06728 0.99123 0.52085 0.0
H252 H 0.09992 0.05909 0.68592 0.0
H253 H 0.13107 0.06895 0.54942 0.0
C254 C 0.1353 0.04099 0.37796 0.0
C255 C 0.13585 0.02414 0.29315 0.0
C256 C 0.11718 0.03577 0.45583 0.0
C257 C 0.1175 1.0024 0.28592 0.0
C258 C 0.09911 0.99732 0.36242 0.0
C259 C 0.08117 0.00824 0.52663 0.0
C260 C 0.08137 0.02446 0.61296 0.0
C261 C 0.09898 0.01371 0.4481 0.0
C262 C 0.09953 0.04628 0.62016 0.0
C263 C 0.11724 0.05197 0.54208 0.0
H264 H 0.49129 0.14319 0.38053 0.0
H265 H 0.55561 0.09189 0.26966 0.0
H266 H 0.55056 0.06179 0.41256 0.0
H267 H 0.52933 0.05132 0.57175 0.0
H268 H 0.46739 0.10408 0.69064 0.0
H269 H 0.46994 0.13254 0.54137 0.0
C270 C 0.504 0.12528 0.3874 0.0
C271 C 0.52374 0.11967 0.31485 0.0
C272 C 0.50149 0.10853 0.47116 0.0
C273 C 0.54035 0.09662 0.3249 0.0
C274 C 0.53746 0.07944 0.40644 0.0
C275 C 0.51624 0.06895 0.56476 0.0
C276 C 0.49814 0.07567 0.64163 0.0
C277 C 0.51833 0.08539 0.48044 0.0
C278 C 0.4815 0.09865 0.63223 0.0
C279 C 0.48296 0.11484 0.54706 0.0
H280 H 0.35829 0.46378 0.44542 0.0
H281 H 0.39458 0.52181 0.24657 0.0
H282 H 0.42857 0.53313 0.37289 0.0
H283 H 0.44811 0.52628 0.53889 0.0
H284 H 0.41095 0.46988 0.74123 0.0
H285 H 0.37693 0.45817 0.61442 0.0
C286 C 0.37367 0.47888 0.42979 0.0
C287 C 0.37404 0.49185 0.33673 0.0
C288 C 0.39287 0.48558 0.50327 0.0
C289 C 0.39386 0.51159 0.31775 0.0
C290 C 0.41332 0.51803 0.3898 0.0
C291 C 0.43252 0.51144 0.55513 0.0
C292 C 0.43196 0.49881 0.64861 0.0
C293 C 0.41301 0.50512 0.48262 0.0
C294 C 0.41162 0.47984 0.66955 0.0
C295 C 0.39229 0.47312 0.5971 0.0
H296 H 0.03936 0.36571 0.40164 0.0
H297 H 0.96718 0.40029 0.27009 0.0
H298 H 0.96628 0.43548 0.39889 0.0
H299 H 0.98532 0.45572 0.55189 0.0
H300 H 0.05565 0.41933 0.68958 0.0
H301 H 0.05814 0.38568 0.55519 0.0
C302 C 0.02347 0.38098 0.40111 0.0
C303 C 1.00336 0.38035 0.32647 0.0
C304 C 0.02277 0.40083 0.47654 0.0
C305 C 0.9828 0.40019 0.3271 0.0
C306 C 0.98231 0.42038 0.40057 0.0
C307 C 1.00126 0.44048 0.55199 0.0
C308 C 0.02028 0.43989 0.63025 0.0
C309 C 1.00209 0.4208 0.476 0.0
C310 C 0.04073 0.42002 0.63016 0.0
C311 C 0.04214 0.40081 0.55344 0.0
H312 H 0.87473 0.96152 0.03396 0.0
H313 H 0.89563 0.03459 0.19512 0.0
H314 H 0.93096 0.04462 0.07351 0.0
H315 H 0.95497 0.03326 0.91775 0.0
H316 H 0.93231 0.96119 0.7541 0.0
H317 H 0.89871 0.95006 0.8804 0.0
C318 C 0.88705 0.97961 0.04271 0.0
C319 C 0.8825 0.99731 0.12327 0.0
C320 C 0.90699 0.98545 0.97185 0.0
C321 C 0.8986 0.02071 0.13333 0.0
C322 C 0.91884 0.02644 0.06394 0.0
C323 C 0.94272 0.01508 0.91032 0.0
C324 C 0.94594 0.9981 0.8269 0.0
C325 C 0.92307 0.00906 0.98242 0.0
C326 C 0.92997 0.97466 0.81749 0.0
C327 C 0.91081 0.96826 0.88966 0.0
H328 H 0.50489 0.90297 0.26581 0.0
H329 H 0.57793 0.86995 0.13668 0.0
H330 H 0.57185 0.89858 0.99039 0.0
H331 H 0.54485 0.93166 0.89613 0.0
H332 H 0.4733 0.96679 0.02811 0.0
H333 H 0.47968 0.93876 0.1766 0.0
C334 C 0.5195 0.90215 0.20573 0.0
C335 C 0.54168 0.88423 0.21148 0.0
C336 C 0.51608 0.91895 0.1224 0.0
C337 C 0.56069 0.88361 0.13391 0.0
C338 C 0.55719 0.89988 0.0501 0.0
C339 C 0.53072 0.93314 0.95763 0.0
C340 C 0.5085 0.95086 0.9513 0.0
C341 C 0.53481 0.91738 0.04307 0.0
C342 C 0.49052 0.95309 0.03166 0.0
C343 C 0.49414 0.93709 0.11634 0.0
H344 H 0.64802 0.55434 0.01134 0.0
H345 H 0.61585 0.49912 0.22942 0.0
H346 H 0.57957 0.48609 0.11411 0.0
H347 H 0.55787 0.48944 0.94927 0.0
H348 H 0.5915 0.54299 0.72892 0.0
H349 H 0.62648 0.55762 0.8471 0.0
C350 C 0.63296 0.53959 0.03388 0.0
C351 C 0.63456 0.52774 0.12869 0.0
C352 C 0.61257 0.5318 0.96662 0.0
C353 C 0.61508 0.50846 0.15661 0.0
C354 C 0.59434 0.50101 0.09079 0.0
C355 C 0.57284 0.50438 0.92753 0.0
C356 C 0.57223 0.51518 0.83099 0.0
C357 C 0.59305 0.51238 0.99533 0.0
C358 C 0.59175 0.53434 0.80294 0.0
C359 C 0.61166 0.54275 0.87045 0.0
H360 H 0.0141 0.63024 0.19354 0.0
H361 H 0.95088 0.67221 0.03215 0.0
H362 H 0.95381 0.63885 0.89754 0.0
H363 H 0.97475 0.59809 0.82436 0.0
H364 H 0.03685 0.5552 0.98773 0.0
H365 H 0.0338 0.5884 0.12326 0.0
C366 C 1.00102 0.63212 0.12878 0.0
C367 C 0.98244 0.6538 0.12254 0.0
C368 C 1.00254 0.61264 0.05221 0.0
C369 C 0.96538 0.65574 0.03876 0.0
C370 C 0.96704 0.63668 0.96169 0.0
C371 C 0.98757 0.59604 0.88978 0.0
C372 C 1.00608 0.57438 0.89605 0.0
C373 C 0.98559 0.61511 0.96747 0.0
C374 C 0.02242 0.57174 0.9814 0.0
C375 C 0.02074 0.59075 0.05871 0.0
H376 H 0.97025 0.22971 0.1922 0.0
H377 H 0.0441 0.21556 0.0292 0.0
H378 H 0.04383 0.16788 0.07883 0.0
H379 H 0.02369 0.13072 0.17475 0.0
H380 H 0.94885 0.1446 0.33309 0.0
H381 H 0.94854 0.1918 0.27947 0.0
C382 C 0.98614 0.21609 0.16692 0.0
C383 C 1.00701 0.22606 0.10641 0.0
C384 C 0.98576 0.18866 0.19526 0.0
C385 C 0.02747 0.20825 0.07397 0.0
C386 C 0.02744 0.18101 0.10297 0.0
C387 C 1.00702 0.14388 0.19613 0.0
C388 C 0.98649 0.13404 0.25891 0.0
C389 C 1.00675 0.17102 0.16403 0.0
C390 C 0.96527 0.15165 0.28666 0.0
C391 C 0.96496 0.17867 0.25555 0.0
H392 H 0.30931 0.99322 0.04673 0.0
H393 H 0.26547 1.00796 0.31932 0.0
H394 H 0.30696 1.00071 0.41574 0.0
H395 H 0.35596 0.99232 0.42208 0.0
H396 H 0.40021 0.97972 0.14928 0.0
H397 H 0.35813 0.98367 0.05344 0.0
C398 C 0.30872 0.99454 0.12731 0.0
C399 C 0.2843 1.00116 0.17573 0.0
C400 C 0.33274 0.99086 0.18215 0.0
C401 C 0.28399 1.00296 0.28017 0.0
C402 C 0.30772 0.99887 0.33536 0.0
C403 C 0.35642 0.99057 0.34162 0.0
C404 C 0.3812 0.98586 0.29291 0.0
C405 C 0.33226 0.99325 0.287 0.0
C406 C 0.38138 0.9831 0.18869 0.0
C407 C 0.35736 0.98551 0.13381 0.0
H408 H 0.48351 0.26672 0.23029 0.0
H409 H 0.56738 0.26945 0.14172 0.0
H410 H 0.5704 0.31671 0.19792 0.0
H411 H 0.54893 0.35746 0.27094 0.0
H412 H 0.46456 0.35473 0.35412 0.0
H413 H 0.46166 0.30765 0.29728 0.0
C414 C 0.50221 0.27787 0.22037 0.0
C415 C 0.52496 0.26478 0.17927 0.0
C416 C 0.50367 0.3051 0.25158 0.0
C417 C 0.54951 0.27911 0.1725 0.0
C418 C 0.55122 0.30616 0.20434 0.0
C419 C 0.52995 0.3465 0.27693 0.0
C420 C 0.507 0.35961 0.31681 0.0
C421 C 0.52841 0.31938 0.24398 0.0
C422 C 0.48245 0.34524 0.32283 0.0
C423 C 0.48081 0.31825 0.29089 0.0
H424 H 0.22842 0.4727 0.26982 0.0
H425 H 0.21164 0.50549 0.97877 0.0
H426 H 0.16455 0.51426 0.02679 0.0
H427 H 0.12849 0.51383 0.15476 0.0
H428 H 0.14635 0.48023 0.44423 0.0
H429 H 0.19259 0.47056 0.39341 0.0
C430 C 0.21448 0.48176 0.2167 0.0
C431 C 0.22351 0.48833 0.12082 0.0
C432 C 0.1876 0.48669 0.24477 0.0
C433 C 0.20512 0.49982 0.05256 0.0
C434 C 0.17823 0.50504 0.08031 0.0
C435 C 0.14254 0.50445 0.20666 0.0
C436 C 0.13392 0.498 0.30362 0.0
C437 C 0.16929 0.49873 0.17664 0.0
C438 C 0.15229 0.48538 0.36924 0.0
C439 C 0.17884 0.4799 0.34039 0.0
H440 H 0.01869 0.79349 0.21068 0.0
H441 H 0.9941 0.81811 0.50518 0.0
H442 H 1.00086 0.86572 0.46162 0.0
H443 H 0.01178 0.90073 0.33655 0.0
H444 H 0.0347 0.87578 0.04091 0.0
H445 H 0.03145 0.828 0.08877 0.0
C446 C 0.01522 0.80929 0.26577 0.0
C447 C 1.00629 0.80226 0.36135 0.0
C448 C 0.01903 0.8366 0.2401 0.0
C449 C 1.00174 0.8229 0.43198 0.0
C450 C 1.00543 0.85018 0.40691 0.0
C451 C 0.01628 0.88473 0.28334 0.0
C452 C 0.0232 0.89151 0.18529 0.0
C453 C 0.01386 0.85731 0.31094 0.0
C454 C 0.02899 0.87081 0.11642 0.0
C455 C 0.02713 0.84358 0.1437 0.0
H456 H 0.73249 0.05208 0.24824 0.0
H457 H 0.72369 0.96611 0.29735 0.0
H458 H 0.6749 0.96951 0.26502 0.0
H459 H 0.63468 0.99698 0.22205 0.0
H460 H 0.64364 0.08289 0.17116 0.0
H461 H 0.69224 0.07962 0.20691 0.0
C462 C 0.7198 0.03419 0.25327 0.0
C463 C 0.73159 0.00897 0.27692 0.0
C464 C 0.69177 0.03632 0.23454 0.0
C465 C 0.71507 0.98577 0.27957 0.0
C466 C 0.68716 0.98773 0.26157 0.0
C467 C 0.64725 0.01502 0.21994 0.0
C468 C 0.63556 0.04015 0.19418 0.0
C469 C 0.67526 0.01291 0.23923 0.0
C470 C 0.65218 0.06328 0.19015 0.0
C471 C 0.67996 0.06143 0.2106 0.0
H472 H 0.48953 0.74775 0.22559 0.0
H473 H 0.56036 0.7293 0.40219 0.0
H474 H 0.55899 0.68205 0.34484 0.0
H475 H 0.53662 0.64561 0.2484 0.0
H476 H 0.46414 0.66376 0.08028 0.0
H477 H 0.46659 0.71129 0.13287 0.0
C478 C 0.5044 0.73327 0.25265 0.0
C479 C 0.52462 0.74179 0.31979 0.0
C480 C 0.50308 0.70607 0.22122 0.0
C481 C 0.54448 0.72313 0.35097 0.0
C482 C 0.54362 0.69611 0.3186 0.0
C483 C 0.52149 0.66007 0.22299 0.0
C484 C 0.50029 0.65129 0.16038 0.0
C485 C 0.52288 0.6873 0.25433 0.0
C486 C 0.48055 0.67006 0.12901 0.0
C487 C 0.48203 0.69723 0.15856 0.0
H488 H 0.80169 0.49706 0.39446 0.0
H489 H 0.77226 0.51092 0.09658 0.0
H490 H 0.81764 0.50279 0.03053 0.0
H491 H 0.86609 0.49405 0.05818 0.0
H492 H 0.89578 0.47997 0.35619 0.0
H493 H 0.84973 0.48428 0.42074 0.0
C494 C 0.80497 0.49723 0.31507 0.0
C495 C 0.78344 0.50404 0.25065 0.0
C496 C 0.83123 0.49261 0.27755 0.0
C497 C 0.78844 0.50564 0.14787 0.0
C498 C 0.8144 0.50102 0.10999 0.0
C499 C 0.86251 0.49201 0.13738 0.0
C500 C 0.88447 0.48697 0.20224 0.0
C501 C 0.83604 0.49495 0.17431 0.0
C502 C 0.87931 0.48377 0.3044 0.0
C503 C 0.85297 0.48651 0.34161 0.0
H504 H 0.04219 0.19343 0.81479 0.0
H505 H 0.03746 0.1931 0.49406 0.0
H506 H 0.02343 0.1456 0.49508 0.0
H507 H 0.01625 0.10354 0.58551 0.0
H508 H 0.02146 0.10287 0.90633 0.0
H509 H 0.03128 0.15152 0.90682 0.0
C510 C 0.03743 0.18318 0.74545 0.0
C511 C 0.04056 0.1968 0.65422 0.0
C512 C 0.02976 0.15564 0.74651 0.0
C513 C 0.03506 0.18298 0.56497 0.0
C514 C 0.02712 0.15583 0.56547 0.0
C515 C 0.01907 0.11399 0.65587 0.0
C516 C 0.01817 0.09942 0.7456 0.0
C517 C 0.02494 0.14183 0.65563 0.0
C518 C 0.02211 0.11348 0.83592 0.0
C519 C 0.02779 0.14134 0.83635 0.0
H520 H 0.31972 0.03602 0.92893 0.0
H521 H 0.31089 1.00786 0.62577 0.0
H522 H 0.36022 1.00651 0.60798 0.0
H523 H 0.40553 0.01102 0.68108 0.0
H524 H 0.41444 0.03727 0.98665 0.0
H525 H 0.36524 0.04145 0.00104 0.0
C526 C 0.32857 0.02994 0.85847 0.0
C527 C 0.31165 0.02215 0.77859 0.0
C528 C 0.3569 0.02857 0.84956 0.0
C529 C 0.32346 0.01396 0.68831 0.0
C530 C 0.35165 0.01312 0.67819 0.0
C531 C 0.39683 0.01787 0.75072 0.0
C532 C 0.41379 0.02387 0.83256 0.0
C533 C 0.36854 0.02 0.75878 0.0
C534 C 0.40197 0.03252 0.92236 0.0
C535 C 0.37381 0.03495 0.93066 0.0
H536 H 0.47066 0.34255 0.03617 0.0
H537 H 0.46582 0.31339 0.73314 0.0
H538 H 0.4748 0.35917 0.67175 0.0
H539 H 0.48516 0.40717 0.70467 0.0
H540 H 0.49107 0.43556 0.00889 0.0
H541 H 0.48074 0.39025 0.06904 0.0
C542 C 0.47122 0.34624 0.95663 0.0
C543 C 0.46742 0.32467 0.88924 0.0
C544 C 0.47687 0.3724 0.92204 0.0
C545 C 0.46863 0.32971 0.78648 0.0
C546 C 0.47384 0.35584 0.75136 0.0
C547 C 0.48423 0.40347 0.7841 0.0
C548 C 0.48892 0.42479 0.85194 0.0
C549 C 0.47825 0.37729 0.81853 0.0
C550 C 0.48758 0.41958 0.95472 0.0
C551 C 0.48159 0.39366 0.98943 0.0
H552 H 0.19258 0.46496 0.80277 0.0
H553 H 0.19317 0.51236 0.53342 0.0
H554 H 0.1464 0.52647 0.56304 0.0
H555 H 0.10445 0.52154 0.65477 0.0
H556 H 0.1024 0.47385 0.92324 0.0
H557 H 0.1511 0.46423 0.90655 0.0
C558 C 0.18275 0.47905 0.7524 0.0
C559 C 0.19628 0.48787 0.66615 0.0
C560 C 0.15564 0.48674 0.76924 0.0
C561 C 0.18304 0.5054 0.60004 0.0
C562 C 0.15636 0.51345 0.61694 0.0
C563 C 0.11465 0.5092 0.71034 0.0
C564 C 0.0998 0.49798 0.78912 0.0
C565 C 0.14228 0.50358 0.6995 0.0
C566 C 0.11341 0.48256 0.86158 0.0
C567 C 0.14118 0.47695 0.85166 0.0
H568 H 0.04049 0.8304 0.66627 0.0
H569 H 0.99752 0.83045 0.945 0.0
H570 H 0.98629 0.87838 0.92408 0.0
H571 H 0.99325 0.92135 0.83726 0.0
H572 H 0.03735 0.92244 0.5609 0.0
H573 H 0.04404 0.87318 0.57082 0.0
C574 C 0.02823 0.84086 0.72125 0.0
C575 C 0.01974 0.82706 0.80726 0.0
C576 C 0.02266 0.86875 0.71037 0.0
C577 C 1.00431 0.84083 0.87869 0.0
C578 C 0.99801 0.86824 0.86699 0.0
C579 C 1.00411 0.91077 0.77868 0.0
C580 C 0.01511 0.92552 0.69924 0.0
C581 C 0.00784 0.8826 0.78495 0.0
C582 C 0.02871 0.91151 0.62293 0.0
C583 C 0.03261 0.88337 0.62877 0.0
H584 H 0.68168 0.03114 0.72904 0.0
H585 H 0.65808 0.05023 0.42735 0.0
H586 H 0.61125 0.03838 0.46409 0.0
H587 H 0.57713 0.02273 0.58098 0.0
H588 H 0.59914 1.00684 0.88652 0.0
H589 H 0.64667 0.01711 0.84918 0.0
C590 C 0.66623 0.03278 0.67163 0.0
C591 C 0.67331 0.0415 0.57566 0.0
C592 C 0.63921 0.02627 0.69368 0.0
C593 C 0.65311 0.04373 0.50197 0.0
C594 C 0.62636 0.0368 0.5227 0.0
C595 C 0.59238 0.0211 0.6392 0.0
C596 C 0.58484 0.0135 0.73585 0.0
C597 C 0.61925 0.02792 0.61803 0.0
C598 C 0.60462 0.01231 0.81123 0.0
C599 C 0.63171 0.0183 0.78999 0.0
H600 H 0.50475 0.68525 0.62458 0.0
H601 H 0.45966 0.66385 0.35965 0.0
H602 H 0.4678 0.61563 0.39211 0.0
H603 H 0.48574 0.5796 0.50138 0.0
H604 H 0.52908 0.60168 0.76965 0.0
H605 H 0.52385 0.64969 0.72965 0.0
C606 C 0.49667 0.67006 0.57386 0.0
C607 C 0.48135 0.67808 0.49058 0.0
C608 C 0.50121 0.64252 0.59348 0.0
C609 C 0.47115 0.65816 0.42526 0.0
C610 C 0.47593 0.63061 0.44348 0.0
C611 C 0.49442 0.59493 0.5501 0.0
C612 C 0.50779 0.58716 0.63827 0.0
C613 C 0.4907 0.62255 0.52802 0.0
C614 C 0.51864 0.6072 0.70149 0.0
C615 C 0.51559 0.63464 0.67886 0.0
H616 H 0.83828 0.5072 0.57246 0.0
H617 H 0.8272 0.458 0.83357 0.0
H618 H 0.87382 0.46839 0.88787 0.0
H619 H 0.91907 0.4875 0.84923 0.0
H620 H 0.92901 0.53481 0.58155 0.0
H621 H 0.88132 0.52886 0.5409 0.0
C622 C 0.84612 0.49854 0.64095 0.0
C623 C 0.82987 0.48115 0.69736 0.0
C624 C 0.87268 0.50421 0.67003 0.0
C625 C 0.83966 0.47114 0.78836 0.0
C626 C 0.86624 0.47702 0.81905 0.0
C627 C 0.91065 0.4969 0.78305 0.0
C628 C 0.92761 0.51126 0.71772 0.0
C629 C 0.88317 0.49296 0.75887 0.0
C630 C 0.91646 0.52336 0.6323 0.0
C631 C 0.8892 0.51999 0.60892 0.0
loop_
_geom_bond_atom_site_label_1
_geom_bond_atom_site_label_2
_geom_bond_distance
_geom_bond_site_symmetry_2
_ccdc_geom_bond_type
O0 Cd1 2.300 . S
O0 C7 1.275 . S
Cd1 O0 2.300 . S
Cd1 O9 2.381 . S
Cd1 O10 2.378 . S
O2 Cd3 2.385 . S
O2 C7 1.255 . S
Cd3 O2 2.385 . S
Cd3 O4 2.317 . S
O4 Cd3 2.317 . S
O4 C5 1.232 . S
C5 O4 1.232 . S
C5 O6 1.218 . S
O6 C5 1.218 . S
C7 O0 1.275 . S
C7 O2 1.255 . S
C8 O9 1.258 . S
C8 O10 1.256 . S
O9 Cd1 2.381 . S
O9 C8 1.258 . S
O10 Cd1 2.378 . S
O10 C8 1.256 . S
O11 Cd12 2.300 1_655 S
O11 C18 1.275 1_655 S
Cd12 O11 2.300 1_455 S
Cd12 O20 2.381 1_455 S
Cd12 O21 2.378 . S
O13 Cd14 2.385 . S
O13 C18 1.255 . S
Cd14 O13 2.385 . S
Cd14 O15 2.317 . S
O15 Cd14 2.317 . S
O15 C16 1.232 . S
C16 O15 1.232 . S
C16 O17 1.218 . S
O17 C16 1.218 . S
C18 O11 1.275 1_455 S
C18 O13 1.255 . S
C19 O20 1.258 1_455 S
C19 O21 1.256 . S
O20 Cd12 2.381 1_655 S
O20 C19 1.258 1_655 S
O21 Cd12 2.378 . S
O21 C19 1.256 . S
O22 Cd23 2.300 1_565 S
O22 C29 1.275 1_565 S
Cd23 O22 2.300 1_545 S
Cd23 O31 2.381 1_545 S
Cd23 O32 2.378 . S
O24 Cd25 2.385 . S
O24 C29 1.255 . S
Cd25 O24 2.385 . S
Cd25 O26 2.317 . S
O26 Cd25 2.317 . S
O26 C27 1.232 . S
C27 O26 1.232 . S
C27 O28 1.218 . S
O28 C27 1.218 . S
C29 O22 1.275 1_545 S
C29 O24 1.255 . S
C30 O31 1.258 1_545 S
C30 O32 1.256 . S
O31 Cd23 2.381 1_565 S
O31 C30 1.258 1_565 S
O32 Cd23 2.378 . S
O32 C30 1.256 . S
O33 Cd34 2.300 . S
O33 C40 1.275 . S
Cd34 O33 2.300 . S
Cd34 O42 2.381 . S
Cd34 O43 2.378 . S
O35 Cd36 2.385 . S
O35 C40 1.255 . S
Cd36 O35 2.385 . S
Cd36 O37 2.317 . S
O37 Cd36 2.317 . S
O37 C38 1.232 . S
C38 O37 1.232 . S
C38 O39 1.218 . S
O39 C38 1.218 . S
C40 O33 1.275 . S
C40 O35 1.255 . S
C41 O42 1.258 . S
C41 O43 1.256 . S
O42 Cd34 2.381 . S
O42 C41 1.258 . S
O43 Cd34 2.378 . S
O43 C41 1.256 . S
O44 Cd45 2.300 . S
O44 C51 1.275 . S
Cd45 O44 2.300 . S
Cd45 O53 2.381 . S
Cd45 O54 2.378 . S
O46 Cd47 2.385 1_554 S
O46 C51 1.255 . S
Cd47 O46 2.385 1_556 S
Cd47 O48 2.317 . S
O48 Cd47 2.317 . S
O48 C49 1.232 . S
C49 O48 1.232 . S
C49 O50 1.218 . S
O50 C49 1.218 . S
C51 O44 1.275 . S
C51 O46 1.255 . S
C52 O53 1.258 . S
C52 O54 1.256 . S
O53 Cd45 2.381 . S
O53 C52 1.258 . S
O54 Cd45 2.378 . S
O54 C52 1.256 . S
O55 Cd56 2.300 1_655 S
O55 C62 1.275 1_655 S
Cd56 O55 2.300 1_455 S
Cd56 O64 2.381 1_455 S
Cd56 O65 2.378 . S
O57 Cd58 2.385 1_554 S
O57 C62 1.255 . S
Cd58 O57 2.385 1_556 S
Cd58 O59 2.317 . S
O59 Cd58 2.317 . S
O59 C60 1.232 . S
C60 O59 1.232 . S
C60 O61 1.218 . S
O61 C60 1.218 . S
C62 O55 1.275 1_455 S
C62 O57 1.255 . S
C63 O64 1.258 1_455 S
C63 O65 1.256 . S
O64 Cd56 2.381 1_655 S
O64 C63 1.258 1_655 S
O65 Cd56 2.378 . S
O65 C63 1.256 . S
O66 Cd67 2.300 1_565 S
O66 C73 1.275 1_565 S
Cd67 O66 2.300 1_545 S
Cd67 O75 2.381 1_545 S
Cd67 O76 2.378 . S
O68 Cd69 2.385 1_554 S
O68 C73 1.255 . S
Cd69 O68 2.385 1_556 S
Cd69 O70 2.317 . S
O70 Cd69 2.317 . S
O70 C71 1.232 . S
C71 O70 1.232 . S
C71 O72 1.218 . S
O72 C71 1.218 . S
C73 O66 1.275 1_545 S
C73 O68 1.255 . S
C74 O75 1.258 1_545 S
C74 O76 1.256 . S
O75 Cd67 2.381 1_565 S
O75 C74 1.258 1_565 S
O76 Cd67 2.378 . S
O76 C74 1.256 . S
O77 Cd78 2.300 . S
O77 C84 1.275 . S
Cd78 O77 2.300 . S
Cd78 O86 2.381 . S
Cd78 O87 2.378 . S
O79 Cd80 2.385 1_554 S
O79 C84 1.255 . S
Cd80 O79 2.385 1_556 S
Cd80 O81 2.317 . S
O81 Cd80 2.317 . S
O81 C82 1.232 . S
C82 O81 1.232 . S
C82 O83 1.218 . S
O83 C82 1.218 . S
C84 O77 1.275 . S
C84 O79 1.255 . S
C85 O86 1.258 . S
C85 O87 1.256 . S
O86 Cd78 2.381 . S
O86 C85 1.258 . S
O87 Cd78 2.378 . S
O87 C85 1.256 . S
Ho88 C91 2.811 . S
Ho88 O108 2.322 . S
Ho88 O110 2.378 . S
Ho88 O111 2.524 . S
Ho88 O112 2.381 . S
Ho88 O113 2.669 1_565 S
Ho88 O115 2.346 1_565 S
Ho88 O119 2.305 1_455 S
Ho89 C100 2.811 . S
Ho89 O109 2.346 1_545 S
Ho89 O113 2.305 1_655 S
Ho89 O114 2.322 . S
Ho89 O116 2.378 . S
Ho89 O117 2.539 . S
Ho89 O118 2.381 . S
Ho89 O119 2.669 1_545 S
C90 O108 1.259 1_655 S
C90 O109 1.268 . S
C91 Ho88 2.811 . S
C91 C92 1.488 . S
C91 O110 1.215 . S
C91 O111 1.289 . S
C92 C91 1.488 . S
C92 C93 1.348 1_556 S
C92 C97 1.413 1_556 S
C93 C92 1.348 1_554 S
C93 C94 1.442 . S
C93 H120 0.930 1_455 S
C94 C93 1.442 . S
C94 C95 1.381 . S
C94 H121 0.931 1_455 S
C95 C94 1.381 . S
C95 C96 1.321 . S
C96 C95 1.321 . S
C96 C97 1.403 . S
C96 H122 0.934 . S
C97 C92 1.413 1_554 S
C97 C96 1.403 . S
C97 H123 0.930 1_554 S
C98 O112 1.275 . S
C98 O113 1.256 1_565 S
C99 O114 1.259 1_455 S
C99 O115 1.268 . S
C100 Ho89 2.811 . S
C100 C101 1.488 . S
C100 O116 1.215 . S
C100 O117 1.326 . S
C101 C100 1.488 . S
C101 C102 1.348 . S
C101 C106 1.413 . S
C102 C101 1.348 . S
C102 C103 1.442 . S
C102 H124 0.930 1_655 S
C103 C102 1.442 . S
C103 C104 1.381 . S
C103 H125 0.931 1_655 S
C104 C103 1.381 . S
C104 C105 1.321 . S
C105 C104 1.321 . S
C105 C106 1.403 . S
C105 H126 0.934 . S
C106 C101 1.413 . S
C106 C105 1.403 . S
C106 H127 0.930 . S
C107 O118 1.275 . S
C107 O119 1.256 1_545 S
O108 Ho88 2.322 . S
O108 C90 1.259 1_455 S
O109 Ho89 2.346 1_565 S
O109 C90 1.268 . S
O110 Ho88 2.378 . S
O110 C91 1.215 . S
O111 Ho88 2.524 . S
O111 C91 1.289 . S
O112 Ho88 2.381 . S
O112 C98 1.275 . S
O113 Ho88 2.669 1_545 S
O113 Ho89 2.305 1_455 S
O113 C98 1.256 1_545 S
O114 Ho89 2.322 . S
O114 C99 1.259 1_655 S
O115 Ho88 2.346 1_545 S
O115 C99 1.268 . S
O116 Ho89 2.378 . S
O116 C100 1.215 . S
O117 Ho89 2.539 . S
O117 C100 1.326 . S
O118 Ho89 2.381 . S
O118 C107 1.275 . S
O119 Ho88 2.305 1_655 S
O119 Ho89 2.669 1_565 S
O119 C107 1.256 1_565 S
H120 C93 0.930 1_655 S
H121 C94 0.931 1_655 S
H122 C96 0.934 . S
H123 C97 0.930 1_556 S
H124 C102 0.930 1_455 S
H125 C103 0.931 1_455 S
H126 C105 0.934 . S
H127 C106 0.930 . S
Ho128 C131 2.811 . S
Ho128 O148 2.322 . S
Ho128 O150 2.378 . S
Ho128 O151 2.541 . S
Ho128 O152 2.381 . S
Ho128 O153 2.669 . S
Ho128 O155 2.346 . S
Ho128 O159 2.305 1_545 S
Ho129 C140 2.811 . S
Ho129 O149 2.346 . S
Ho129 O153 2.305 1_565 S
Ho129 O154 2.322 . S
Ho129 O156 2.378 . S
Ho129 O157 2.537 . S
Ho129 O158 2.381 . S
Ho129 O159 2.669 . S
C130 O148 1.259 1_565 S
C130 O149 1.268 . S
C131 Ho128 2.811 . S
C131 C132 1.488 . S
C131 O150 1.215 . S
C131 O151 1.330 . S
C132 C131 1.488 . S
C132 C133 1.348 1_556 S
C132 C137 1.413 1_556 S
C133 C132 1.348 1_554 S
C133 C134 1.442 . S
C133 H160 0.930 1_545 S
C134 C133 1.442 . S
C134 C135 1.381 . S
C134 H161 0.931 1_545 S
C135 C134 1.381 . S
C135 C136 1.321 . S
C136 C135 1.321 . S
C136 C137 1.403 . S
C136 H162 0.934 . S
C137 C132 1.413 1_554 S
C137 C136 1.403 . S
C137 H163 0.930 1_554 S
C138 O152 1.275 . S
C138 O153 1.256 . S
C139 O154 1.259 1_545 S
C139 O155 1.268 . S
C140 Ho129 2.811 . S
C140 C141 1.488 . S
C140 O156 1.215 . S
C140 O157 1.320 . S
C141 C140 1.488 . S
C141 C142 1.348 . S
C141 C146 1.413 . S
C142 C141 1.348 . S
C142 C143 1.442 . S
C142 H164 0.930 1_565 S
C143 C142 1.442 . S
C143 C144 1.381 . S
C143 H165 0.931 1_565 S
C144 C143 1.381 . S
C144 C145 1.321 . S
C145 C144 1.321 . S
C145 C146 1.403 . S
C145 H166 0.934 . S
C146 C141 1.413 . S
C146 C145 1.403 . S
C146 H167 0.930 . S
C147 O158 1.275 . S
C147 O159 1.256 . S
O148 Ho128 2.322 . S
O148 C130 1.259 1_545 S
O149 Ho129 2.346 . S
O149 C130 1.268 . S
O150 Ho128 2.378 . S
O150 C131 1.215 . S
O151 Ho128 2.541 . S
O151 C131 1.330 . S
O152 Ho128 2.381 . S
O152 C138 1.275 . S
O153 Ho128 2.669 . S
O153 Ho129 2.305 1_545 S
O153 C138 1.256 . S
O154 Ho129 2.322 . S
O154 C139 1.259 1_565 S
O155 Ho128 2.346 . S
O155 C139 1.268 . S
O156 Ho129 2.378 . S
O156 C140 1.215 . S
O157 Ho129 2.537 . S
O157 C140 1.320 . S
O158 Ho129 2.381 . S
O158 C147 1.275 . S
O159 Ho128 2.305 1_565 S
O159 Ho129 2.669 . S
O159 C147 1.256 . S
H160 C133 0.930 1_565 S
H161 C134 0.931 1_565 S
H162 C136 0.934 . S
H163 C137 0.930 1_556 S
H164 C142 0.930 1_545 S
H165 C143 0.931 1_545 S
H166 C145 0.934 . S
H167 C146 0.930 . S
Ho168 C171 2.811 . S
Ho168 O188 2.322 . S
Ho168 O190 2.378 . S
Ho168 O191 2.524 . S
Ho168 O192 2.381 . S
Ho168 O193 2.669 . S
Ho168 O195 2.346 . S
Ho168 O199 2.305 . S
Ho169 C180 2.811 . S
Ho169 O189 2.346 . S
Ho169 O193 2.305 . S
Ho169 O194 2.322 . S
Ho169 O196 2.378 . S
Ho169 O197 2.524 . S
Ho169 O198 2.381 . S
Ho169 O199 2.669 . S
C170 O188 1.259 . S
C170 O189 1.268 . S
C171 Ho168 2.811 . S
C171 C172 1.488 . S
C171 O190 1.215 . S
C171 O191 1.289 . S
C172 C171 1.488 . S
C172 C173 1.348 1_556 S
C172 C177 1.413 1_556 S
C173 C172 1.348 1_554 S
C173 C174 1.442 . S
C173 H200 0.930 . S
C174 C173 1.442 . S
C174 C175 1.381 . S
C174 H201 0.931 . S
C175 C174 1.381 . S
C175 C176 1.321 . S
C176 C175 1.321 . S
C176 C177 1.403 . S
C176 H202 0.934 . S
C177 C172 1.413 1_554 S
C177 C176 1.403 . S
C177 H203 0.930 1_554 S
C178 O192 1.275 . S
C178 O193 1.256 . S
C179 O194 1.259 . S
C179 O195 1.268 . S
C180 Ho169 2.811 . S
C180 C181 1.488 . S
C180 O196 1.215 . S
C180 O197 1.289 . S
C181 C180 1.488 . S
C181 C182 1.348 . S
C181 C186 1.413 . S
C182 C181 1.348 . S
C182 C183 1.442 . S
C182 H204 0.930 . S
C183 C182 1.442 . S
C183 C184 1.381 . S
C183 H205 0.931 . S
C184 C183 1.381 . S
C184 C185 1.321 . S
C185 C184 1.321 . S
C185 C186 1.403 . S
C185 H206 0.934 . S
C186 C181 1.413 . S
C186 C185 1.403 . S
C186 H207 0.930 . S
C187 O198 1.275 . S
C187 O199 1.256 . S
O188 Ho168 2.322 . S
O188 C170 1.259 . S
O189 Ho169 2.346 . S
O189 C170 1.268 . S
O190 Ho168 2.378 . S
O190 C171 1.215 . S
O191 Ho168 2.524 . S
O191 C171 1.289 . S
O192 Ho168 2.381 . S
O192 C178 1.275 . S
O193 Ho168 2.669 . S
O193 Ho169 2.305 . S
O193 C178 1.256 . S
O194 Ho169 2.322 . S
O194 C179 1.259 . S
O195 Ho168 2.346 . S
O195 C179 1.268 . S
O196 Ho169 2.378 . S
O196 C180 1.215 . S
O197 Ho169 2.524 . S
O197 C180 1.289 . S
O198 Ho169 2.381 . S
O198 C187 1.275 . S
O199 Ho168 2.305 . S
O199 Ho169 2.669 . S
O199 C187 1.256 . S
H200 C173 0.930 . S
H201 C174 0.931 . S
H202 C176 0.934 . S
H203 C177 0.930 1_556 S
H204 C182 0.930 . S
H205 C183 0.931 . S
H206 C185 0.934 . S
H207 C186 0.930 . S
Ho208 C211 2.811 . S
Ho208 O228 2.322 . S
Ho208 O230 2.378 . S
Ho208 O231 2.524 . S
Ho208 O232 2.381 . S
Ho208 O233 2.669 1_655 S
Ho208 O235 2.346 1_655 S
Ho208 O239 2.305 . S
Ho209 C220 2.811 . S
Ho209 O229 2.346 1_455 S
Ho209 O233 2.305 . S
Ho209 O234 2.322 . S
Ho209 O236 2.378 . S
Ho209 O237 2.524 . S
Ho209 O238 2.381 . S
Ho209 O239 2.669 1_455 S
C210 O228 1.259 . S
C210 O229 1.268 . S
C211 Ho208 2.811 . S
C211 C212 1.488 . S
C211 O230 1.215 . S
C211 O231 1.289 . S
C212 C211 1.488 . S
C212 C213 1.348 1_556 S
C212 C217 1.413 1_556 S
C213 C212 1.348 1_554 S
C213 C214 1.442 . S
C213 H240 0.930 . S
C214 C213 1.442 . S
C214 C215 1.381 . S
C214 H241 0.931 . S
C215 C214 1.381 . S
C215 C216 1.321 . S
C216 C215 1.321 . S
C216 C217 1.403 . S
C216 H242 0.934 . S
C217 C212 1.413 1_554 S
C217 C216 1.403 . S
C217 H243 0.930 1_554 S
C218 O232 1.291 . S
C218 O233 1.247 1_655 S
C219 O234 1.259 . S
C219 O235 1.268 . S
C220 Ho209 2.811 . S
C220 C221 1.488 . S
C220 O236 1.215 . S
C220 O237 1.289 . S
C221 C220 1.488 . S
C221 C222 1.348 . S
C221 C226 1.413 . S
C222 C221 1.348 . S
C222 C223 1.442 . S
C222 H244 0.930 . S
C223 C222 1.442 . S
C223 C224 1.381 . S
C223 H245 0.931 . S
C224 C223 1.381 . S
C224 C225 1.321 . S
C225 C224 1.321 . S
C225 C226 1.403 . S
C225 H246 0.934 . S
C226 C221 1.413 . S
C226 C225 1.403 . S
C226 H247 0.930 . S
C227 O238 1.296 . S
C227 O239 1.244 1_455 S
O228 Ho208 2.322 . S
O228 C210 1.259 . S
O229 Ho209 2.346 1_655 S
O229 C210 1.268 . S
O230 Ho208 2.378 . S
O230 C211 1.215 . S
O231 Ho208 2.524 . S
O231 C211 1.289 . S
O232 Ho208 2.381 . S
O232 C218 1.291 . S
O233 Ho208 2.669 1_455 S
O233 Ho209 2.305 . S
O233 C218 1.247 1_455 S
O234 Ho209 2.322 . S
O234 C219 1.259 . S
O235 Ho208 2.346 1_455 S
O235 C219 1.268 . S
O236 Ho209 2.378 . S
O236 C220 1.215 . S
O237 Ho209 2.524 . S
O237 C220 1.289 . S
O238 Ho209 2.381 . S
O238 C227 1.296 . S
O239 Ho208 2.305 . S
O239 Ho209 2.669 1_655 S
O239 C227 1.244 1_655 S
H240 C213 0.930 . S
H241 C214 0.931 . S
H242 C216 0.934 . S
H243 C217 0.930 1_556 S
H244 C222 0.930 . S
H245 C223 0.931 . S
H246 C225 0.934 . S
H247 C226 0.930 . S
H248 C254 0.930 . S
H249 C257 0.930 . S
H250 C258 0.930 . S
H251 C259 0.930 . S
H252 C262 0.930 . S
H253 C263 0.930 . S
C254 H248 0.930 . S
C254 C255 1.355 1_545 S
C254 C256 1.415 . S
C255 C254 1.355 1_565 S
C255 C257 1.419 . S
C256 C254 1.415 . S
C256 C261 1.425 1_545 S
C256 C263 1.409 . S
C257 H249 0.930 . S
C257 C255 1.419 . S
C257 C258 1.362 . S
C258 H250 0.930 . S
C258 C257 1.362 . S
C258 C261 1.409 . S
C259 H251 0.930 . S
C259 C260 1.355 1_565 S
C259 C261 1.415 . S
C260 C259 1.355 1_545 S
C260 C262 1.419 . S
C261 C256 1.425 1_565 S
C261 C258 1.409 . S
C261 C259 1.415 . S
C262 H252 0.930 . S
C262 C260 1.419 . S
C262 C263 1.362 . S
C263 H253 0.930 . S
C263 C256 1.409 . S
C263 C262 1.362 . S
H264 C270 0.930 . S
H265 C273 0.930 . S
H266 C274 0.930 . S
H267 C275 0.930 . S
H268 C278 0.930 . S
H269 C279 0.930 . S
C270 H264 0.930 . S
C270 C271 1.355 . S
C270 C272 1.415 . S
C271 C270 1.355 . S
C271 C273 1.419 . S
C272 C270 1.415 . S
C272 C277 1.425 . S
C272 C279 1.409 . S
C273 H265 0.930 . S
C273 C271 1.419 . S
C273 C274 1.362 . S
C274 H266 0.930 . S
C274 C273 1.362 . S
C274 C277 1.409 . S
C275 H267 0.930 . S
C275 C276 1.355 . S
C275 C277 1.415 . S
C276 C275 1.355 . S
C276 C278 1.419 . S
C277 C272 1.425 . S
C277 C274 1.409 . S
C277 C275 1.415 . S
C278 H268 0.930 . S
C278 C276 1.419 . S
C278 C279 1.362 . S
C279 H269 0.930 . S
C279 C272 1.409 . S
C279 C278 1.362 . S
H280 C286 0.930 . S
H281 C289 0.930 . S
H282 C290 0.930 . S
H283 C291 0.930 . S
H284 C294 0.930 . S
H285 C295 0.930 . S
C286 H280 0.930 . S
C286 C287 1.355 . S
C286 C288 1.415 . S
C287 C286 1.355 . S
C287 C289 1.419 . S
C288 C286 1.415 . S
C288 C293 1.425 . S
C288 C295 1.409 . S
C289 H281 0.930 . S
C289 C287 1.419 . S
C289 C290 1.362 . S
C290 H282 0.930 . S
C290 C289 1.362 . S
C290 C293 1.409 . S
C291 H283 0.930 . S
C291 C292 1.355 . S
C291 C293 1.415 . S
C292 C291 1.355 . S
C292 C294 1.419 . S
C293 C288 1.425 . S
C293 C290 1.409 . S
C293 C291 1.415 . S
C294 H284 0.930 . S
C294 C292 1.419 . S
C294 C295 1.362 . S
C295 H285 0.930 . S
C295 C288 1.409 . S
C295 C294 1.362 . S
H296 C302 0.930 . S
H297 C305 0.930 . S
H298 C306 0.930 . S
H299 C307 0.930 . S
H300 C310 0.930 . S
H301 C311 0.930 . S
C302 H296 0.930 . S
C302 C303 1.334 1_455 S
C302 C304 1.415 . S
C303 C302 1.334 1_655 S
C303 C305 1.445 . S
C304 C302 1.415 . S
C304 C309 1.425 1_455 S
C304 C311 1.409 . S
C305 H297 0.930 . S
C305 C303 1.445 . S
C305 C306 1.362 . S
C306 H298 0.930 . S
C306 C305 1.362 . S
C306 C309 1.409 . S
C307 H299 0.930 . S
C307 C308 1.355 1_655 S
C307 C309 1.415 . S
C308 C307 1.355 1_455 S
C308 C310 1.419 . S
C309 C304 1.425 1_655 S
C309 C306 1.409 . S
C309 C307 1.415 . S
C310 H300 0.930 . S
C310 C308 1.419 . S
C310 C311 1.362 . S
C311 H301 0.930 . S
C311 C304 1.409 . S
C311 C310 1.362 . S
H312 C318 0.930 . S
H313 C321 0.930 . S
H314 C322 0.930 . S
H315 C323 0.930 . S
H316 C326 0.930 1_556 S
H317 C327 0.930 . S
C318 H312 0.930 . S
C318 C319 1.355 1_565 S
C318 C320 1.415 . S
C319 C318 1.355 1_545 S
C319 C321 1.419 . S
C320 C318 1.415 . S
C320 C325 1.425 1_565 S
C320 C327 1.409 . S
C321 H313 0.930 . S
C321 C319 1.419 . S
C321 C322 1.362 . S
C322 H314 0.930 . S
C322 C321 1.362 . S
C322 C325 1.409 . S
C323 H315 0.930 . S
C323 C324 1.355 1_545 S
C323 C325 1.415 1_556 S
C324 C323 1.355 1_565 S
C324 C326 1.419 1_556 S
C325 C320 1.425 1_545 S
C325 C322 1.409 . S
C325 C323 1.415 1_554 S
C326 H316 0.930 1_554 S
C326 C324 1.419 1_554 S
C326 C327 1.362 . S
C327 H317 0.930 . S
C327 C320 1.409 . S
C327 C326 1.362 . S
H328 C334 0.930 . S
H329 C337 0.930 . S
H330 C338 0.930 . S
H331 C339 0.930 . S
H332 C342 0.930 . S
H333 C343 0.930 1_556 S
C334 H328 0.930 . S
C334 C335 1.355 . S
C334 C336 1.415 . S
C335 C334 1.355 . S
C335 C337 1.419 . S
C336 C334 1.415 . S
C336 C341 1.425 . S
C336 C343 1.409 . S
C337 H329 0.930 . S
C337 C335 1.419 . S
C337 C338 1.362 . S
C338 H330 0.930 . S
C338 C337 1.362 . S
C338 C341 1.409 . S
C339 H331 0.930 . S
C339 C340 1.355 1_554 S
C339 C341 1.415 . S
C340 C339 1.355 1_556 S
C340 C342 1.419 . S
C341 C336 1.425 . S
C341 C338 1.409 . S
C341 C339 1.415 . S
C342 H332 0.930 . S
C342 C340 1.419 . S
C342 C343 1.362 1_556 S
C343 H333 0.930 1_554 S
C343 C336 1.409 . S
C343 C342 1.362 1_554 S
H344 C350 0.930 . S
H345 C353 0.930 . S
H346 C354 0.930 . S
H347 C355 0.930 . S
H348 C358 0.930 . S
H349 C359 0.930 . S
C350 H344 0.930 . S
C350 C351 1.355 . S
C350 C352 1.415 . S
C351 C350 1.355 . S
C351 C353 1.419 . S
C352 C350 1.415 . S
C352 C357 1.425 . S
C352 C359 1.409 1_554 S
C353 H345 0.930 . S
C353 C351 1.419 . S
C353 C354 1.362 . S
C354 H346 0.930 . S
C354 C353 1.362 . S
C354 C357 1.409 . S
C355 H347 0.930 . S
C355 C356 1.355 1_554 S
C355 C357 1.415 . S
C356 C355 1.355 1_556 S
C356 C358 1.419 . S
C357 C352 1.425 . S
C357 C354 1.409 . S
C357 C355 1.415 . S
C358 H348 0.930 . S
C358 C356 1.419 . S
C358 C359 1.362 . S
C359 H349 0.930 . S
C359 C352 1.409 1_556 S
C359 C358 1.362 . S
H360 C366 0.930 . S
H361 C369 0.930 . S
H362 C370 0.930 . S
H363 C371 0.930 . S
H364 C374 0.930 . S
H365 C375 0.930 . S
C366 H360 0.930 . S
C366 C367 1.355 1_655 S
C366 C368 1.415 . S
C367 C366 1.355 1_455 S
C367 C369 1.419 . S
C368 C366 1.415 . S
C368 C373 1.425 1_655 S
C368 C375 1.409 . S
C369 H361 0.930 . S
C369 C367 1.419 . S
C369 C370 1.362 . S
C370 H362 0.930 . S
C370 C369 1.362 . S
C370 C373 1.409 . S
C371 H363 0.930 . S
C371 C372 1.355 1_455 S
C371 C373 1.415 1_556 S
C372 C371 1.355 1_655 S
C372 C374 1.419 1_556 S
C373 C368 1.425 1_455 S
C373 C370 1.409 . S
C373 C371 1.415 1_554 S
C374 H364 0.930 . S
C374 C372 1.419 1_554 S
C374 C375 1.362 . S
C375 H365 0.930 . S
C375 C368 1.409 . S
C375 C374 1.362 . S
H376 C382 0.930 . S
H377 C385 0.930 . S
H378 C386 0.930 . S
H379 C387 0.930 . S
H380 C390 0.930 . S
H381 C391 0.930 . S
C382 H376 0.930 . S
C382 C383 1.355 1_655 S
C382 C384 1.415 . S
C383 C382 1.355 1_455 S
C383 C385 1.419 . S
C384 C382 1.415 . S
C384 C389 1.425 . S
C384 C391 1.409 . S
C385 H377 0.930 . S
C385 C383 1.419 . S
C385 C386 1.362 . S
C386 H378 0.930 . S
C386 C385 1.362 . S
C386 C389 1.409 1_455 S
C387 H379 0.930 . S
C387 C388 1.355 . S
C387 C389 1.415 . S
C388 C387 1.355 . S
C388 C390 1.419 . S
C389 C384 1.425 . S
C389 C386 1.409 1_655 S
C389 C387 1.415 . S
C390 H380 0.930 . S
C390 C388 1.419 . S
C390 C391 1.362 . S
C391 H381 0.930 . S
C391 C384 1.409 . S
C391 C390 1.362 . S
H392 C398 0.929 1_545 S
H393 C401 0.930 . S
H394 C402 0.930 . S
H395 C403 0.930 . S
H396 C406 0.930 . S
H397 C407 0.930 . S
C398 H392 0.929 1_565 S
C398 C399 1.359 . S
C398 C400 1.415 . S
C399 C398 1.359 . S
C399 C401 1.427 . S
C400 C398 1.415 . S
C400 C405 1.425 . S
C400 C407 1.409 . S
C401 H393 0.930 . S
C401 C399 1.427 . S
C401 C402 1.362 . S
C402 H394 0.930 . S
C402 C401 1.362 . S
C402 C405 1.409 . S
C403 H395 0.930 . S
C403 C404 1.355 . S
C403 C405 1.415 . S
C404 C403 1.355 . S
C404 C406 1.419 . S
C405 C400 1.425 . S
C405 C402 1.409 . S
C405 C403 1.415 . S
C406 H396 0.930 . S
C406 C404 1.419 . S
C406 C407 1.362 . S
C407 H397 0.930 . S
C407 C400 1.409 . S
C407 C406 1.362 . S
H408 C414 0.930 . S
H409 C417 0.930 . S
H410 C418 0.930 . S
H411 C419 0.930 . S
H412 C422 0.930 . S
H413 C423 0.930 . S
C414 H408 0.930 . S
C414 C415 1.355 . S
C414 C416 1.415 . S
C415 C414 1.355 . S
C415 C417 1.419 . S
C416 C414 1.415 . S
C416 C421 1.425 . S
C416 C423 1.409 . S
C417 H409 0.930 . S
C417 C415 1.419 . S
C417 C418 1.362 . S
C418 H410 0.930 . S
C418 C417 1.362 . S
C418 C421 1.409 . S
C419 H411 0.930 . S
C419 C420 1.355 . S
C419 C421 1.415 . S
C420 C419 1.355 . S
C420 C422 1.419 . S
C421 C416 1.425 . S
C421 C418 1.409 . S
C421 C419 1.415 . S
C422 H412 0.930 . S
C422 C420 1.419 . S
C422 C423 1.362 . S
C423 H413 0.930 . S
C423 C416 1.409 . S
C423 C422 1.362 . S
H424 C430 0.930 . S
H425 C433 0.930 . S
H426 C434 0.930 . S
H427 C435 0.930 . S
H428 C438 0.930 . S
H429 C439 0.930 . S
C430 H424 0.930 . S
C430 C431 1.355 . S
C430 C432 1.415 . S
C431 C430 1.355 . S
C431 C433 1.419 . S
C432 C430 1.415 . S
C432 C437 1.425 . S
C432 C439 1.409 . S
C433 H425 0.930 . S
C433 C431 1.419 . S
C433 C434 1.362 . S
C434 H426 0.930 . S
C434 C433 1.362 . S
C434 C437 1.409 . S
C435 H427 0.930 . S
C435 C436 1.355 . S
C435 C437 1.415 . S
C436 C435 1.355 . S
C436 C438 1.419 . S
C437 C432 1.425 . S
C437 C434 1.409 . S
C437 C435 1.415 . S
C438 H428 0.930 . S
C438 C436 1.419 . S
C438 C439 1.362 . S
C439 H429 0.930 . S
C439 C432 1.409 . S
C439 C438 1.362 . S
H440 C446 0.930 . S
H441 C449 0.930 . S
H442 C450 0.930 . S
H443 C451 0.930 . S
H444 C454 0.924 1_556 S
H445 C455 0.930 . S
C446 H440 0.930 . S
C446 C447 1.328 1_455 S
C446 C448 1.415 . S
C447 C446 1.328 1_655 S
C447 C449 1.433 . S
C448 C446 1.415 . S
C448 C453 1.425 . S
C448 C455 1.409 . S
C449 H441 0.930 . S
C449 C447 1.433 . S
C449 C450 1.362 . S
C450 H442 0.930 . S
C450 C449 1.362 . S
C450 C453 1.409 1_655 S
C451 H443 0.930 . S
C451 C452 1.355 . S
C451 C453 1.415 . S
C452 C451 1.355 . S
C452 C454 1.419 . S
C453 C448 1.425 . S
C453 C450 1.409 1_455 S
C453 C451 1.415 . S
C454 H444 0.924 1_554 S
C454 C452 1.419 . S
C454 C455 1.362 . S
C455 H445 0.930 . S
C455 C448 1.409 . S
C455 C454 1.362 . S
H456 C462 0.914 1_565 S
H457 C465 0.930 . S
H458 C466 0.930 . S
H459 C467 0.930 . S
H460 C470 0.930 . S
H461 C471 0.930 . S
C462 H456 0.914 1_545 S
C462 C463 1.353 1_545 S
C462 C464 1.433 . S
C463 C462 1.353 1_565 S
C463 C465 1.413 1_565 S
C464 C462 1.433 . S
C464 C469 1.425 . S
C464 C471 1.409 . S
C465 H457 0.930 . S
C465 C463 1.413 1_545 S
C465 C466 1.362 . S
C466 H458 0.930 . S
C466 C465 1.362 . S
C466 C469 1.409 . S
C467 H459 0.930 . S
C467 C468 1.355 . S
C467 C469 1.415 . S
C468 C467 1.355 . S
C468 C470 1.419 . S
C469 C464 1.425 . S
C469 C466 1.409 . S
C469 C467 1.415 . S
C470 H460 0.930 . S
C470 C468 1.419 . S
C470 C471 1.362 . S
C471 H461 0.930 . S
C471 C464 1.409 . S
C471 C470 1.362 . S
H472 C478 0.930 . S
H473 C481 0.930 . S
H474 C482 0.930 . S
H475 C483 0.930 . S
H476 C486 0.930 . S
H477 C487 0.930 . S
C478 H472 0.930 . S
C478 C479 1.355 . S
C478 C480 1.415 . S
C479 C478 1.355 . S
C479 C481 1.419 . S
C480 C478 1.415 . S
C480 C485 1.425 . S
C480 C487 1.409 . S
C481 H473 0.930 . S
C481 C479 1.419 . S
C481 C482 1.362 . S
C482 H474 0.930 . S
C482 C481 1.362 . S
C482 C485 1.409 . S
C483 H475 0.930 . S
C483 C484 1.355 . S
C483 C485 1.415 . S
C484 C483 1.355 . S
C484 C486 1.419 . S
C485 C480 1.425 . S
C485 C482 1.409 . S
C485 C483 1.415 . S
C486 H476 0.930 . S
C486 C484 1.419 . S
C486 C487 1.362 . S
C487 H477 0.930 . S
C487 C480 1.409 . S
C487 C486 1.362 . S
H488 C494 0.930 . S
H489 C497 0.930 . S
H490 C498 0.930 . S
H491 C499 0.930 . S
H492 C502 0.930 . S
H493 C503 0.930 . S
C494 H488 0.930 . S
C494 C495 1.355 . S
C494 C496 1.415 . S
C495 C494 1.355 . S
C495 C497 1.419 . S
C496 C494 1.415 . S
C496 C501 1.425 . S
C496 C503 1.409 . S
C497 H489 0.930 . S
C497 C495 1.419 . S
C497 C498 1.362 . S
C498 H490 0.930 . S
C498 C497 1.362 . S
C498 C501 1.409 . S
C499 H491 0.930 . S
C499 C500 1.355 . S
C499 C501 1.415 . S
C500 C499 1.355 . S
C500 C502 1.419 . S
C501 C496 1.425 . S
C501 C498 1.409 . S
C501 C499 1.415 . S
C502 H492 0.930 . S
C502 C500 1.419 . S
C502 C503 1.362 . S
C503 H493 0.930 . S
C503 C496 1.409 . S
C503 C502 1.362 . S
H504 C510 0.930 . S
H505 C513 0.930 . S
H506 C514 0.930 . S
H507 C515 0.930 . S
H508 C518 0.930 . S
H509 C519 0.930 . S
C510 H504 0.930 . S
C510 C511 1.383 . S
C510 C512 1.415 . S
C511 C510 1.383 . S
C511 C513 1.387 1_455 S
C512 C510 1.415 . S
C512 C517 1.425 1_455 S
C512 C519 1.409 . S
C513 H505 0.930 . S
C513 C511 1.387 1_655 S
C513 C514 1.362 . S
C514 H506 0.930 . S
C514 C513 1.362 . S
C514 C517 1.409 . S
C515 H507 0.930 . S
C515 C516 1.355 1_655 S
C515 C517 1.415 . S
C516 C515 1.355 1_455 S
C516 C518 1.419 . S
C517 C512 1.425 1_655 S
C517 C514 1.409 . S
C517 C515 1.415 . S
C518 H508 0.930 . S
C518 C516 1.419 . S
C518 C519 1.362 . S
C519 H509 0.930 . S
C519 C512 1.409 . S
C519 C518 1.362 . S
H520 C526 0.930 . S
H521 C529 0.930 . S
H522 C530 0.930 . S
H523 C531 0.930 . S
H524 C534 0.930 . S
H525 C535 0.930 . S
C526 H520 0.930 . S
C526 C527 1.357 . S
C526 C528 1.415 . S
C527 C526 1.357 . S
C527 C529 1.416 1_545 S
C528 C526 1.415 . S
C528 C533 1.425 1_545 S
C528 C535 1.409 . S
C529 H521 0.930 . S
C529 C527 1.416 1_565 S
C529 C530 1.362 . S
C530 H522 0.930 . S
C530 C529 1.362 . S
C530 C533 1.409 . S
C531 H523 0.930 . S
C531 C532 1.355 1_565 S
C531 C533 1.415 . S
C532 C531 1.355 1_545 S
C532 C534 1.419 . S
C533 C528 1.425 1_565 S
C533 C530 1.409 . S
C533 C531 1.415 . S
C534 H524 0.930 . S
C534 C532 1.419 . S
C534 C535 1.362 . S
C535 H525 0.930 . S
C535 C528 1.409 . S
C535 C534 1.362 . S
H536 C542 0.930 . S
H537 C545 0.930 . S
H538 C546 0.930 . S
H539 C547 0.930 . S
H540 C550 0.930 . S
H541 C551 0.930 . S
C542 H536 0.930 . S
C542 C543 1.355 . S
C542 C544 1.415 . S
C543 C542 1.355 . S
C543 C545 1.419 . S
C544 C542 1.415 . S
C544 C549 1.425 . S
C544 C551 1.409 . S
C545 H537 0.930 . S
C545 C543 1.419 . S
C545 C546 1.362 . S
C546 H538 0.930 . S
C546 C545 1.362 . S
C546 C549 1.409 . S
C547 H539 0.930 . S
C547 C548 1.355 . S
C547 C549 1.415 . S
C548 C547 1.355 . S
C548 C550 1.419 . S
C549 C544 1.425 . S
C549 C546 1.409 . S
C549 C547 1.415 . S
C550 H540 0.930 . S
C550 C548 1.419 . S
C550 C551 1.362 . S
C551 H541 0.930 . S
C551 C544 1.409 . S
C551 C550 1.362 . S
H552 C558 0.930 . S
H553 C561 0.930 . S
H554 C562 0.930 . S
H555 C563 0.930 . S
H556 C566 0.930 . S
H557 C567 0.930 . S
C558 H552 0.930 . S
C558 C559 1.355 . S
C558 C560 1.415 . S
C559 C558 1.355 . S
C559 C561 1.419 . S
C560 C558 1.415 . S
C560 C565 1.425 . S
C560 C567 1.409 . S
C561 H553 0.930 . S
C561 C559 1.419 . S
C561 C562 1.362 . S
C562 H554 0.930 . S
C562 C561 1.362 . S
C562 C565 1.409 . S
C563 H555 0.930 . S
C563 C564 1.355 . S
C563 C565 1.415 . S
C564 C563 1.355 . S
C564 C566 1.419 . S
C565 C560 1.425 . S
C565 C562 1.409 . S
C565 C563 1.415 . S
C566 H556 0.930 . S
C566 C564 1.419 . S
C566 C567 1.362 . S
C567 H557 0.930 . S
C567 C560 1.409 . S
C567 C566 1.362 . S
H568 C574 0.930 . S
H569 C577 0.930 . S
H570 C578 0.930 . S
H571 C579 0.930 . S
H572 C582 0.930 . S
H573 C583 0.930 . S
C574 H568 0.930 . S
C574 C575 1.355 1_455 S
C574 C576 1.415 . S
C575 C574 1.355 1_655 S
C575 C577 1.419 . S
C576 C574 1.415 . S
C576 C581 1.425 1_455 S
C576 C583 1.409 . S
C577 H569 0.930 . S
C577 C575 1.419 . S
C577 C578 1.362 . S
C578 H570 0.930 . S
C578 C577 1.362 . S
C578 C581 1.409 . S
C579 H571 0.930 . S
C579 C580 1.355 . S
C579 C581 1.415 . S
C580 C579 1.355 . S
C580 C582 1.419 1_655 S
C581 C576 1.425 1_655 S
C581 C578 1.409 . S
C581 C579 1.415 . S
C582 H572 0.930 . S
C582 C580 1.419 1_455 S
C582 C583 1.362 . S
C583 H573 0.930 . S
C583 C576 1.409 . S
C583 C582 1.362 . S
H584 C590 0.930 . S
H585 C593 0.930 . S
H586 C594 0.930 . S
H587 C595 0.930 . S
H588 C598 0.930 . S
H589 C599 0.930 . S
C590 H584 0.930 . S
C590 C591 1.355 1_545 S
C590 C592 1.415 . S
C591 C590 1.355 1_565 S
C591 C593 1.419 . S
C592 C590 1.415 . S
C592 C597 1.425 1_545 S
C592 C599 1.409 . S
C593 H585 0.930 . S
C593 C591 1.419 . S
C593 C594 1.362 . S
C594 H586 0.930 . S
C594 C593 1.362 . S
C594 C597 1.409 . S
C595 H587 0.930 . S
C595 C596 1.355 . S
C595 C597 1.415 . S
C596 C595 1.355 . S
C596 C598 1.419 1_565 S
C597 C592 1.425 1_565 S
C597 C594 1.409 . S
C597 C595 1.415 . S
C598 H588 0.930 . S
C598 C596 1.419 1_545 S
C598 C599 1.362 . S
C599 H589 0.930 . S
C599 C592 1.409 . S
C599 C598 1.362 . S
H600 C606 0.930 . S
H601 C609 0.930 . S
H602 C610 0.930 . S
H603 C611 0.930 . S
H604 C614 0.930 . S
H605 C615 0.930 . S
C606 H600 0.930 . S
C606 C607 1.355 . S
C606 C608 1.415 . S
C607 C606 1.355 . S
C607 C609 1.419 . S
C608 C606 1.415 . S
C608 C613 1.425 . S
C608 C615 1.409 . S
C609 H601 0.930 . S
C609 C607 1.419 . S
C609 C610 1.362 . S
C610 H602 0.930 . S
C610 C609 1.362 . S
C610 C613 1.409 . S
C611 H603 0.930 . S
C611 C612 1.355 . S
C611 C613 1.415 . S
C612 C611 1.355 . S
C612 C614 1.419 . S
C613 C608 1.425 . S
C613 C610 1.409 . S
C613 C611 1.415 . S
C614 H604 0.930 . S
C614 C612 1.419 . S
C614 C615 1.362 . S
C615 H605 0.930 . S
C615 C608 1.409 . S
C615 C614 1.362 . S
H616 C622 0.930 . S
H617 C625 0.930 . S
H618 C626 0.930 . S
H619 C627 0.930 . S
H620 C630 0.930 . S
H621 C631 0.930 . S
C622 H616 0.930 . S
C622 C623 1.355 . S
C622 C624 1.415 . S
C623 C622 1.355 . S
C623 C625 1.419 . S
C624 C622 1.415 . S
C624 C629 1.425 . S
C624 C631 1.409 . S
C625 H617 0.930 . S
C625 C623 1.419 . S
C625 C626 1.362 . S
C626 H618 0.930 . S
C626 C625 1.362 . S
C626 C629 1.409 . S
C627 H619 0.930 . S
C627 C628 1.355 . S
C627 C629 1.415 . S
C628 C627 1.355 . S
C628 C630 1.419 . S
C629 C624 1.425 . S
C629 C626 1.409 . S
C629 C627 1.415 . S
C630 H620 0.930 . S
C630 C628 1.419 . S
C630 C631 1.362 . S
C631 H621 0.930 . S
C631 C624 1.409 . S
C631 C630 1.362 . S
C255 C74 1.847 1_565 S
C260 C98 1.973 1_545 S
C276 C138 1.974 . S
C271 C85 1.871 . S
C292 C178 1.974 . S
C287 C52 1.877 . S
C308 C218 1.967 1_455 S
C303 C63 1.804 1_655 S
C324 C107 1.972 1_565 S
C319 C30 1.807 . S
C335 C41 1.863 . S
C340 C147 1.962 . S
C351 C8 1.881 . S
C356 C187 1.972 . S
C367 C19 1.803 . S
C372 C227 1.969 1_655 S
C388 C104 0.777 . S
C383 C62 0.699 . S
C404 C144 0.681 . S
C399 C73 0.675 1_565 S
C420 C184 0.650 . S
C415 C84 0.715 . S
C431 C51 0.714 . S
C436 C224 0.649 . S
C447 C18 0.743 1_655 S
C452 C95 0.730 . S
C468 C135 0.722 . S
C463 C29 0.697 1_565 S
C484 C175 0.755 . S
C479 C40 0.788 . S
C495 C7 0.772 . S
C500 C215 0.771 . S
C511 C60 1.861 . S
C516 C99 2.381 . S
C527 C71 1.831 . S
C532 C139 2.379 . S
C548 C179 2.340 . S
C543 C82 1.730 . S
C564 C219 2.380 . S
C559 C49 1.834 . S
C575 C16 1.936 1_655 S
C580 C90 2.367 . S
C596 C130 2.344 . S
C591 C27 1.900 1_565 S
C612 C170 2.341 . S
C607 C38 1.897 . S
C623 C5 1.923 . S
C628 C210 2.372 . S
