# Generated by pormake.
# Topology zzz, (3,6)-cn, num edge types: 1
# Building blocks:
#     Node 0, Type 0, BuildingBlock: OLANEW_clean_sbu_2, # of connection points: 3
#     Node 1, Type 0, BuildingBlock: OLANEW_clean_sbu_2, # of connection points: 3
#     Node 2, Type 0, BuildingBlock: OLANEW_clean_sbu_2, # of connection points: 3
#     Node 3, Type 0, BuildingBlock: OLANEW_clean_sbu_2, # of connection points: 3
#     Node 4, Type 0, BuildingBlock: OLANEW_clean_sbu_2, # of connection points: 3
#     Node 5, Type 0, BuildingBlock: OLANEW_clean_sbu_2, # of connection points: 3
#     Node 6, Type 0, BuildingBlock: OLANEW_clean_sbu_2, # of connection points: 3
#     Node 7, Type 0, BuildingBlock: OLANEW_clean_sbu_2, # of connection points: 3
#     Node 8, Type 1, BuildingBlock: BETGAK_clean_sbu_0, # of connection points: 6
#     Node 9, Type 1, BuildingBlock: BETGAK_clean_sbu_0, # of connection points: 6
#     Node 10, Type 1, BuildingBlock: BETGAK_clean_sbu_0, # of connection points: 6
#     Node 11, Type 1, BuildingBlock: BETGAK_clean_sbu_0, # of connection points: 6
#     Edge 12, Type (0, 1), BuildingBlock: CIFDUS_clean_linker_0, # of connection points: 2
#     Edge 13, Type (0, 1), BuildingBlock: CIFDUS_clean_linker_0, # of connection points: 2
#     Edge 14, Type (0, 1), BuildingBlock: CIFDUS_clean_linker_0, # of connection points: 2
#     Edge 15, Type (0, 1), BuildingBlock: CIFDUS_clean_linker_0, # of connection points: 2
#     Edge 16, Type (0, 1), BuildingBlock: CIFDUS_clean_linker_0, # of connection points: 2
#     Edge 17, Type (0, 1), BuildingBlock: CIFDUS_clean_linker_0, # of connection points: 2
#     Edge 18, Type (0, 1), BuildingBlock: CIFDUS_clean_linker_0, # of connection points: 2
#     Edge 19, Type (0, 1), BuildingBlock: CIFDUS_clean_linker_0, # of connection points: 2
#     Edge 20, Type (0, 1), BuildingBlock: CIFDUS_clean_linker_0, # of connection points: 2
#     Edge 21, Type (0, 1), BuildingBlock: CIFDUS_clean_linker_0, # of connection points: 2
#     Edge 22, Type (0, 1), BuildingBlock: CIFDUS_clean_linker_0, # of connection points: 2
#     Edge 23, Type (0, 1), BuildingBlock: CIFDUS_clean_linker_0, # of connection points: 2
#     Edge 24, Type (0, 1), BuildingBlock: CIFDUS_clean_linker_0, # of connection points: 2
#     Edge 25, Type (0, 1), BuildingBlock: CIFDUS_clean_linker_0, # of connection points: 2
#     Edge 26, Type (0, 1), BuildingBlock: CIFDUS_clean_linker_0, # of connection points: 2
#     Edge 27, Type (0, 1), BuildingBlock: CIFDUS_clean_linker_0, # of connection points: 2
#     Edge 28, Type (0, 1), BuildingBlock: CIFDUS_clean_linker_0, # of connection points: 2
#     Edge 29, Type (0, 1), BuildingBlock: CIFDUS_clean_linker_0, # of connection points: 2
#     Edge 30, Type (0, 1), BuildingBlock: CIFDUS_clean_linker_0, # of connection points: 2
#     Edge 31, Type (0, 1), BuildingBlock: CIFDUS_clean_linker_0, # of connection points: 2
#     Edge 32, Type (0, 1), BuildingBlock: CIFDUS_clean_linker_0, # of connection points: 2
#     Edge 33, Type (0, 1), BuildingBlock: CIFDUS_clean_linker_0, # of connection points: 2
#     Edge 34, Type (0, 1), BuildingBlock: CIFDUS_clean_linker_0, # of connection points: 2
#     Edge 35, Type (0, 1), BuildingBlock: CIFDUS_clean_linker_0, # of connection points: 2
# Relax obj value: 0.277
# Max RMSD: 0.201
# Mean RMSD: 0.173
data_MOF--net-zzz--node1-OLANEW_clean_sbu_2--node2-BETGAK_clean_sbu_0--edge1-CIFDUS_clean_linker_0
_symmetry_space_group_name_H-M    P1
_symmetry_Int_Tables_number       1
_symmetry_cell_setting            triclinic
loop_
_symmetry_equiv_pos_as_xyz
'x, y, z'
_cell_length_a     50.106047
_cell_length_b     50.181963
_cell_length_c     13.593009
_cell_angle_alpha  90.000428
_cell_angle_beta   89.954692
_cell_angle_gamma 90.012074
loop_
_atom_site_label
_atom_site_type_symbol
_atom_site_fract_x
_atom_site_fract_y
_atom_site_fract_z
_atom_type_partial_charge
O0 O 0.72409 0.47874 0.25064 0.0
Cd1 Cd 0.67988 0.48501 0.32448 0.0
O2 O 0.73286 0.4728 0.40562 0.0
Cd3 Cd 0.75594 0.4708 0.54046 0.0
O4 O 0.78893 0.47977 0.63708 0.0
C5 C 0.8028 0.49935 0.60751 0.0
O6 O 0.79538 0.51197 0.52735 0.0
C7 C 0.74131 0.47474 0.31751 0.0
C8 C 0.63714 0.48567 0.19448 0.0
O9 O 0.65155 0.50647 0.20785 0.0
O10 O 0.64324 0.46436 0.24137 0.0
O11 O 0.98431 0.74824 0.33634 0.0
Cd12 Cd 0.97168 0.70552 0.40986 0.0
O13 O 0.99992 0.75773 0.48166 0.0
Cd14 Cd 0.01967 0.77899 0.60085 0.0
O15 O 0.03226 0.77895 0.76151 0.0
C16 C 0.02428 0.79682 0.82161 0.0
O17 O 0.03305 0.77805 0.7636 0.0
C18 C 0.99548 0.76485 0.39348 0.0
C19 C 0.98241 0.66314 0.28427 0.0
O20 O 0.96058 0.67635 0.27816 0.0
O21 O 0.99925 0.66982 0.35077 0.0
O22 O 0.77011 0.95114 0.2179 0.0
Cd23 Cd 0.8164 0.94278 0.26553 0.0
O24 O 0.7683 0.98702 0.31021 0.0
Cd25 Cd 0.74412 0.01691 0.38537 0.0
O26 O 0.70379 0.02666 0.43231 0.0
C27 C 0.69529 0.01541 0.50988 0.0
O28 O 0.71174 1.00047 0.56107 0.0
C29 C 0.75694 0.9707 0.25202 0.0
C30 C 0.85261 0.95126 0.11314 0.0
O31 O 0.84 0.92914 0.12091 0.0
O32 O 0.84796 0.96947 0.17707 0.0
O33 O 0.53639 0.76743 0.22307 0.0
Cd34 Cd 0.5522 0.80655 0.31295 0.0
O35 O 0.50663 0.76392 0.33907 0.0
Cd36 Cd 0.47555 0.74838 0.43577 0.0
O37 O 0.4692 0.71164 0.51571 0.0
C38 C 0.47562 0.70743 0.60473 0.0
O39 O 0.48355 0.72728 0.66048 0.0
C40 C 0.517 0.75467 0.26041 0.0
C41 C 0.53845 0.85268 0.2125 0.0
O42 O 0.56028 0.84033 0.19412 0.0
O43 O 0.52322 0.84342 0.28018 0.0
O44 O 0.26821 0.49865 0.14006 0.0
Cd45 Cd 0.30895 0.48673 0.05233 0.0
O46 O 0.24587 0.46524 0.0757 0.0
Cd47 Cd 0.26707 0.46612 0.93573 0.0
O48 O 0.23081 0.4746 0.85059 0.0
C49 C 0.21667 0.49364 0.88402 0.0
O50 O 0.2265 0.50871 0.95416 0.0
C51 C 0.24773 0.48373 0.13916 0.0
C52 C 0.35022 0.48949 0.18947 0.0
O53 O 0.34586 0.50879 0.12988 0.0
O54 O 0.33572 0.46856 0.18187 0.0
O55 O 0.01515 0.27137 0.24847 0.0
Cd56 Cd 0.0235 0.31807 0.20777 0.0
O57 O 0.0433 0.26638 0.12735 0.0
Cd58 Cd 0.06409 0.24393 0.01399 0.0
O59 O 0.06423 0.21121 0.91016 0.0
C60 C 0.04163 0.19988 0.90525 0.0
O61 O 0.02186 0.20944 0.95816 0.0
C62 C 0.02847 0.25595 0.19302 0.0
C63 C 0.02281 0.35298 0.36663 0.0
O64 O 1.0023 0.35027 0.31116 0.0
O65 O 0.04347 0.33879 0.34817 0.0
O66 O 0.23166 0.99993 0.12508 0.0
Cd67 Cd 0.19048 0.01007 0.03733 0.0
O68 O 0.24741 0.03956 0.08924 0.0
Cd69 Cd 0.23098 0.03839 0.94069 0.0
O70 O 0.26753 0.03371 0.85264 0.0
C71 C 0.28344 0.01617 0.8862 0.0
O72 O 0.27525 1.00061 0.95775 0.0
C73 C 0.24854 0.01837 0.14027 0.0
C74 C 0.14926 0.00676 0.17512 0.0
O75 O 0.15456 0.98715 0.11791 0.0
O76 O 0.16284 0.02821 0.16502 0.0
O77 O 0.54827 0.22908 0.23366 0.0
Cd78 Cd 0.56019 0.18266 0.20882 0.0
O79 O 0.51716 0.22693 0.1204 0.0
Cd80 Cd 0.4888 0.24662 0.0233 0.0
O81 O 0.47602 0.28331 0.95319 0.0
C82 C 0.48378 0.28916 0.86687 0.0
O83 O 0.49779 0.27166 0.8168 0.0
C84 C 0.52974 0.24024 0.18518 0.0
C85 C 0.53143 0.1504 0.33685 0.0
O86 O 0.55247 0.16268 0.36526 0.0
O87 O 0.52396 0.1532 0.24728 0.0
La88 La 0.02369 0.99395 0.79733 0.0
La89 La 1.00076 0.00319 0.5921 0.0
C90 C 0.03285 0.97689 0.96863 0.0
C91 C 0.02849 0.95119 0.01823 0.0
C92 C 0.04445 0.94385 0.09855 0.0
C93 C 0.04145 0.91872 0.14209 0.0
C94 C 0.02269 0.90052 0.10471 0.0
C95 C 0.00638 0.90819 0.02574 0.0
C96 C 0.00913 0.93334 0.98322 0.0
C97 C 0.05824 0.00383 0.65611 0.0
C98 C 0.00671 0.94501 0.65963 0.0
C99 C 0.99392 0.02197 0.4222 0.0
C100 C 0.99661 0.04929 0.38235 0.0
C101 C 0.97627 0.05999 0.32344 0.0
C102 C 0.97744 0.08657 0.29216 0.0
C103 C 0.99907 0.10293 0.31874 0.0
C104 C 0.01972 0.09197 0.37594 0.0
C105 C 0.01846 0.06549 0.40778 0.0
C106 C 0.96575 0.99324 0.73083 0.0
C107 C 0.01451 0.05204 0.73775 0.0
O108 O 0.0505 0.97666 0.89761 0.0
O109 O 0.01133 0.99013 0.94416 0.0
O110 O 0.06123 0.01209 0.74592 0.0
O111 O 0.03756 0.98988 0.65027 0.0
O112 O 0.00939 0.95487 0.7494 0.0
O113 O 0.00651 0.96031 0.58022 0.0
O114 O 0.9745 0.01846 0.48536 0.0
O115 O 0.01598 0.01023 0.45054 0.0
O116 O 0.96264 0.98589 0.63987 0.0
O117 O 0.98664 0.00691 0.73872 0.0
O118 O 0.01172 0.04343 0.64598 0.0
O119 O 0.01639 0.03579 0.81348 0.0
H120 H 0.05945 0.9574 0.12664 0.0
H121 H 0.05422 0.91324 0.2031 0.0
H122 H 0.99141 0.89472 0.99725 0.0
H123 H 0.99624 0.93874 0.92264 0.0
H124 H 0.9592 0.04792 0.30322 0.0
H125 H 0.96132 0.09438 0.24758 0.0
H126 H 0.03646 0.10413 0.39883 0.0
H127 H 0.03433 0.05791 0.45408 0.0
La128 La 0.50185 0.01562 0.88721 0.0
La129 La 0.48799 0.99703 0.68076 0.0
C130 C 0.52308 0.01898 0.05468 0.0
C131 C 0.55036 0.01367 0.0899 0.0
C132 C 0.56194 0.03049 0.16029 0.0
C133 C 0.58871 0.02728 0.1871 0.0
C134 C 0.60438 0.00717 0.14373 0.0
C135 C 0.59246 0.98992 0.075 0.0
C136 C 0.56573 0.99314 0.04833 0.0
C137 C 0.48825 0.05391 0.7636 0.0
C138 C 0.54764 0.00593 0.72595 0.0
C139 C 0.46767 0.98938 0.51398 0.0
C140 C 0.442 0.99659 0.46955 0.0
C141 C 0.43082 0.98013 0.39726 0.0
C142 C 0.40583 0.98613 0.35755 0.0
C143 C 0.3918 0.00881 0.38922 0.0
C144 C 0.40308 0.02532 0.46149 0.0
C145 C 0.4279 0.01913 0.50195 0.0
C146 C 0.5041 0.95997 0.80275 0.0
C147 C 0.44209 0.00991 0.83752 0.0
O148 O 0.52078 0.03915 0.99436 0.0
O149 O 0.50934 0.99828 0.02497 0.0
O150 O 0.4844 0.05492 0.85804 0.0
O151 O 0.50137 0.03321 0.74448 0.0
O152 O 0.54073 0.00627 0.82016 0.0
O153 O 0.5297 0.00569 0.6547 0.0
O154 O 0.46629 0.97213 0.58595 0.0
O155 O 0.48384 0.00915 0.53402 0.0
O156 O 0.50942 0.95993 0.70958 0.0
O157 O 0.48911 0.97928 0.82285 0.0
O158 O 0.44949 0.00939 0.74384 0.0
O159 O 0.45963 0.0093 0.91005 0.0
H160 H 0.55042 0.04649 0.19299 0.0
H161 H 0.5972 0.04067 0.24114 0.0
H162 H 0.60402 0.97447 0.03921 0.0
H163 H 0.55731 0.97999 0.99329 0.0
H164 H 0.44135 0.96254 0.37207 0.0
H165 H 0.39756 0.97322 0.30142 0.0
H166 H 0.39248 0.04274 0.48778 0.0
H167 H 0.43594 0.03182 0.5591 0.0
La168 La 0.47088 0.50607 0.82179 0.0
La169 La 0.49601 0.49109 0.62696 0.0
C170 C 0.46149 0.52795 0.98494 0.0
C171 C 0.46581 0.55501 0.02456 0.0
C172 C 0.44607 0.56689 0.08298 0.0
C173 C 0.44949 0.59279 0.11905 0.0
C174 C 0.47286 0.60735 0.09785 0.0
C175 C 0.49257 0.59531 0.0388 0.0
C176 C 0.48905 0.56948 0.0023 0.0
C177 C 0.43766 0.49542 0.67779 0.0
C178 C 0.4901 0.551 0.67156 0.0
C179 C 0.50563 0.47132 0.46009 0.0
C180 C 0.50976 0.44444 0.41929 0.0
C181 C 0.53003 0.44035 0.34968 0.0
C182 C 0.53507 0.41483 0.31293 0.0
C183 C 0.51984 0.39293 0.34495 0.0
C184 C 0.49925 0.39716 0.41354 0.0
C185 C 0.49428 0.42268 0.45054 0.0
C186 C 0.52959 0.50217 0.76924 0.0
C187 C 0.47665 0.4458 0.78027 0.0
O188 O 0.44385 0.52606 0.91431 0.0
O189 O 0.48289 0.51373 0.9669 0.0
O190 O 0.43288 0.48955 0.76912 0.0
O191 O 0.45927 0.50791 0.6715 0.0
O192 O 0.48624 0.54394 0.76426 0.0
O193 O 0.49082 0.5332 0.59999 0.0
O194 O 0.52416 0.47988 0.52 0.0
O195 O 0.48159 0.47696 0.49185 0.0
O196 O 0.53395 0.50764 0.67743 0.0
O197 O 0.50807 0.48947 0.77726 0.0
O198 O 0.48411 0.45229 0.68948 0.0
O199 O 0.47273 0.46386 0.84951 0.0
H200 H 0.42788 0.55618 0.10025 0.0
H201 H 0.43366 0.60148 0.1628 0.0
H202 H 0.51099 0.60564 0.02194 0.0
H203 H 0.50455 0.56084 0.95674 0.0
H204 H 0.54215 0.45689 0.32444 0.0
H205 H 0.55091 0.41221 0.25948 0.0
H206 H 0.48741 0.38063 0.4405 0.0
H207 H 0.47855 0.42532 0.50434 0.0
La208 La 0.99864 0.50689 0.89076 0.0
La209 La 0.01431 0.5305 0.6934 0.0
C210 C 0.97549 0.49883 0.05261 0.0
C211 C 0.94693 0.49775 0.081 0.0
C212 C 0.93664 0.47482 0.12643 0.0
C213 C 0.90938 0.47281 0.14834 0.0
C214 C 0.89176 0.49381 0.12576 0.0
C215 C 0.90227 0.51694 0.08161 0.0
C216 C 0.92945 0.51885 0.05914 0.0
C217 C 0.00758 0.4725 0.74846 0.0
C218 C 0.95387 0.52689 0.73731 0.0
C219 C 0.03405 0.5386 0.52567 0.0
C220 C 0.05901 0.53167 0.47532 0.0
C221 C 0.05915 0.52887 0.37283 0.0
C222 C 0.08236 0.52086 0.32415 0.0
C223 C 0.10579 0.51537 0.37746 0.0
C224 C 0.10562 0.51858 0.48026 0.0
C225 C 0.08244 0.52672 0.5287 0.0
C226 C 0.00296 0.56501 0.8314 0.0
C227 C 0.0587 0.51038 0.8456 0.0
O228 O 0.98381 0.47965 0.99505 0.0
O229 O 0.9849 0.52208 0.02552 0.0
O230 O 0.01332 0.46794 0.84003 0.0
O231 O 0.99619 0.49465 0.74132 0.0
O232 O 0.96029 0.51984 0.82827 0.0
O233 O 0.9719 0.52989 0.66736 0.0
O234 O 0.03597 0.55547 0.59893 0.0
O235 O 0.01837 0.51847 0.54634 0.0
O236 O 0.99805 0.56887 0.7389 0.0
O237 O 0.01549 0.5435 0.84262 0.0
O238 O 0.05155 0.51364 0.75244 0.0
O239 O 0.04104 0.51073 0.91801 0.0
H240 H 0.94965 0.4582 0.14348 0.0
H241 H 0.90207 0.45454 0.18098 0.0
H242 H 0.88952 0.53373 0.06454 0.0
H243 H 0.93667 0.5368 0.02373 0.0
H244 H 0.04122 0.53267 0.33051 0.0
H245 H 0.08196 0.519 0.24476 0.0
H246 H 0.12324 0.51427 0.52359 0.0
H247 H 0.08278 0.52891 0.60783 0.0
H248 H 0.14423 0.03709 0.33972 0.0
H249 H 0.1091 0.97025 0.18761 0.0
H250 H 0.07728 0.96411 0.32203 0.0
H251 H 0.06068 0.97657 0.4855 0.0
H252 H 0.09685 0.04199 0.64183 0.0
H253 H 0.12726 0.04981 0.50332 0.0
C254 C 0.12944 0.02134 0.33563 0.0
C255 C 0.12897 0.00419 0.2537 0.0
C256 C 0.11162 0.01755 0.41427 0.0
C257 C 0.1099 0.98368 0.24992 0.0
C258 C 0.09173 0.98014 0.32679 0.0
C259 C 0.07513 0.99264 0.48888 0.0
C260 C 0.07657 0.00876 0.57327 0.0
C261 C 0.09262 0.99676 0.40972 0.0
C262 C 0.09552 0.02931 0.57754 0.0
C263 C 0.1128 0.0338 0.49835 0.0
H264 H 0.52942 0.15367 0.53562 0.0
H265 H 0.50089 0.10738 0.28979 0.0
H266 H 0.48148 0.07474 0.40275 0.0
H267 H 0.47714 0.0572 0.57072 0.0
H268 H 0.50511 0.1034 0.81649 0.0
H269 H 0.51954 0.13887 0.70465 0.0
C270 C 0.5187 0.13657 0.50697 0.0
C271 C 0.51695 0.13262 0.40479 0.0
C272 C 0.50744 0.11806 0.57226 0.0
C273 C 0.50259 0.11072 0.36827 0.0
C274 C 0.49156 0.09205 0.43273 0.0
C275 C 0.486 0.0752 0.59948 0.0
C276 C 0.4904 0.07763 0.70086 0.0
C277 C 0.49449 0.09519 0.53469 0.0
C278 C 0.50142 0.10124 0.73838 0.0
C279 C 0.50993 0.12134 0.67442 0.0
H280 H 0.35165 0.4625 0.3621 0.0
H281 H 0.39347 0.52247 0.19462 0.0
H282 H 0.42499 0.52869 0.32997 0.0
H283 H 0.43941 0.51845 0.49845 0.0
H284 H 0.39604 0.46057 0.67005 0.0
H285 H 0.3662 0.45216 0.53066 0.0
C286 C 0.36784 0.47672 0.35491 0.0
C287 C 0.37032 0.49193 0.26844 0.0
C288 C 0.3854 0.4807 0.43402 0.0
C289 C 0.39115 0.51056 0.26056 0.0
C290 C 0.40914 0.51414 0.33791 0.0
C291 C 0.42349 0.5039 0.50502 0.0
C292 C 0.41984 0.49009 0.59396 0.0
C293 C 0.40624 0.49956 0.42536 0.0
C294 C 0.39908 0.47147 0.60217 0.0
C295 C 0.38211 0.46664 0.52254 0.0
H296 H 0.99314 0.39778 0.3805 0.0
H297 H 0.05323 0.35225 0.53301 0.0
H298 H 0.05376 0.38511 0.66617 0.0
H299 H 0.03696 0.42702 0.73921 0.0
H300 H 0.97915 0.47368 0.57936 0.0
H301 H 0.97799 0.44032 0.44897 0.0
C302 C 0.00623 0.395 0.4432 0.0
C303 C 0.02291 0.37255 0.44763 0.0
C304 C 0.00692 0.41426 0.5179 0.0
C305 C 0.04015 0.36939 0.52826 0.0
C306 C 0.04046 0.38816 0.60432 0.0
C307 C 0.02418 0.42979 0.67566 0.0
C308 C 0.00808 0.4526 0.66892 0.0
C309 C 0.02394 0.4107 0.59992 0.0
C310 C 0.99177 0.45624 0.58597 0.0
C311 C 0.99102 0.43715 0.51153 0.0
H312 H 0.89196 0.98836 0.10566 0.0
H313 H 0.85711 0.92355 0.94134 0.0
H314 H 0.88903 0.93085 0.80794 0.0
H315 H 0.92668 0.956 0.73718 0.0
H316 H 0.96265 0.01943 0.90504 0.0
H317 H 0.93062 0.01225 0.03813 0.0
C318 C 0.89132 0.97588 0.04052 0.0
C319 C 0.87209 0.95559 0.03301 0.0
C320 C 0.90998 0.97991 0.9649 0.0
C321 C 0.87172 0.93933 0.94882 0.0
C322 C 0.88994 0.9435 0.87247 0.0
C323 C 0.9274 0.96822 0.80297 0.0
C324 C 0.94678 0.98827 0.81144 0.0
C325 C 0.90911 0.96378 0.87958 0.0
C326 C 0.94787 0.00382 0.89723 0.0
C327 C 0.92953 0.99978 0.97314 0.0
H328 H 0.56154 0.8704 0.04497 0.0
H329 H 0.49714 0.88715 0.24675 0.0
H330 H 0.48182 0.92341 0.14059 0.0
H331 H 0.48499 0.94824 0.9843 0.0
H332 H 0.54809 0.92948 0.77985 0.0
H333 H 0.56574 0.89611 0.89329 0.0
C334 C 0.5443 0.88214 0.06635 0.0
C335 C 0.53043 0.87602 0.15331 0.0
C336 C 0.53528 0.90245 0.00408 0.0
C337 C 0.50808 0.89138 0.1798 0.0
C338 C 0.49929 0.91208 0.11913 0.0
C339 C 0.50275 0.93697 0.96542 0.0
C340 C 0.51522 0.94107 0.87417 0.0
C341 C 0.51246 0.91747 0.0302 0.0
C342 C 0.53808 0.92637 0.84959 0.0
C343 C 0.54819 0.90737 0.91439 0.0
H344 H 0.629 0.51985 0.04346 0.0
H345 H 0.59375 0.45284 0.19414 0.0
H346 H 0.5559 0.45355 0.08068 0.0
H347 H 0.53385 0.47207 0.93386 0.0
H348 H 0.57102 0.53672 0.77603 0.0
H349 H 0.607 0.53836 0.89752 0.0
C350 C 0.61296 0.5055 0.05165 0.0
C351 C 0.61416 0.48629 0.12671 0.0
C352 C 0.59164 0.50564 0.98488 0.0
C353 C 0.59336 0.46767 0.13625 0.0
C354 C 0.57169 0.46813 0.07165 0.0
C355 C 0.54973 0.48666 0.9269 0.0
C356 C 0.54993 0.50429 0.84668 0.0
C357 C 0.57075 0.48686 0.9951 0.0
C358 C 0.57063 0.52294 0.83738 0.0
C359 C 0.59117 0.52385 0.90659 0.0
H360 H 0.95788 0.65379 0.1109 0.0
H361 H 0.02037 0.62411 0.29957 0.0
H362 H 0.03119 0.58961 0.17851 0.0
H363 H 0.02413 0.56931 0.01473 0.0
H364 H 0.96348 0.60145 0.82363 0.0
H365 H 0.95055 0.6335 0.95008 0.0
C366 C 0.97374 0.63965 0.12597 0.0
C367 C 0.9883 0.64149 0.21391 0.0
C368 C 0.98023 0.62039 0.05533 0.0
C369 C 0.00894 0.62316 0.23205 0.0
C370 C 0.01513 0.60344 0.16294 0.0
C371 C 0.00799 0.58325 0.0015 0.0
C372 C 0.99477 0.5832 0.91043 0.0
C373 C 1.0011 0.60208 0.07374 0.0
C374 C 0.97401 0.60135 0.89323 0.0
C375 C 0.9666 0.61962 0.96542 0.0
H376 H 0.98523 0.22693 0.24915 0.0
H377 H 0.06797 0.2193 0.16661 0.0
H378 H 0.06579 0.1712 0.19216 0.0
H379 H 0.04099 0.13144 0.24588 0.0
H380 H 0.95832 0.13895 0.33005 0.0
H381 H 0.95978 0.18673 0.29561 0.0
C382 C 0.00272 0.21467 0.23637 0.0
C383 C 0.02663 0.22664 0.2047 0.0
C384 C 1.00136 0.18697 0.25194 0.0
C385 C 0.04914 0.21054 0.18839 0.0
C386 C 0.04798 0.18303 0.20404 0.0
C387 C 0.02329 0.14356 0.25659 0.0
C388 C 0.99963 0.13164 0.29099 0.0
C389 C 0.02429 0.17106 0.23679 0.0
C390 C 0.97675 0.14755 0.30299 0.0
C391 C 0.97761 0.17493 0.2839 0.0
H392 H 0.28888 0.05281 0.1801 0.0
H393 H 0.26153 0.97282 0.24001 0.0
H394 H 0.30346 0.96291 0.32379 0.0
H395 H 0.34897 0.9762 0.37154 0.0
H396 H 0.37601 0.05616 0.31184 0.0
H397 H 0.33309 0.06684 0.23588 0.0
C398 C 0.2919 0.03329 0.21252 0.0
C399 C 0.2721 0.01357 0.20339 0.0
C400 C 0.31612 0.02764 0.25958 0.0
C401 C 0.27639 0.9884 0.24604 0.0
C402 C 0.30044 0.98265 0.29345 0.0
C403 C 0.34536 0.99594 0.34182 0.0
C404 C 0.36552 0.01535 0.34647 0.0
C405 C 0.32062 0.00196 0.29901 0.0
C406 C 0.36065 0.04097 0.30918 0.0
C407 C 0.33618 0.04705 0.26569 0.0
H408 H 0.56455 0.27948 0.23003 0.0
H409 H 0.48072 0.26408 0.18709 0.0
H410 H 0.47031 0.31041 0.2275 0.0
H411 H 0.48496 0.35482 0.28298 0.0
H412 H 0.56882 0.36977 0.32893 0.0
H413 H 0.57932 0.32419 0.27942 0.0
C414 C 0.54403 0.28636 0.22896 0.0
C415 C 0.52348 0.26856 0.20387 0.0
C416 C 0.53819 0.3129 0.25349 0.0
C417 C 0.49696 0.27763 0.2031 0.0
C418 C 0.49097 0.30403 0.22744 0.0
C419 C 0.50551 0.34805 0.28215 0.0
C420 C 0.52607 0.36561 0.30991 0.0
C421 C 0.51141 0.32177 0.25376 0.0
C422 C 0.55266 0.35671 0.30712 0.0
C423 C 0.55867 0.33061 0.27935 0.0
H424 H 0.19719 0.46568 0.11679 0.0
H425 H 0.24565 0.51697 0.29868 0.0
H426 H 0.20594 0.53096 0.38979 0.0
H427 H 0.15725 0.5302 0.41203 0.0
H428 H 0.10908 0.47932 0.22746 0.0
H429 H 0.14897 0.46405 0.14151 0.0
C430 C 0.19919 0.47962 0.17735 0.0
C431 C 0.22439 0.49014 0.20133 0.0
C432 C 0.17629 0.48798 0.22778 0.0
C433 C 0.2265 0.50851 0.27895 0.0
C434 C 0.20379 0.5166 0.33077 0.0
C435 C 0.15551 0.51551 0.35386 0.0
C436 C 0.13019 0.50596 0.32619 0.0
C437 C 0.17856 0.5067 0.30497 0.0
C438 C 0.12826 0.48727 0.24945 0.0
C439 C 0.15109 0.47834 0.20079 0.0
H440 H 0.00828 0.7788 0.2072 0.0
H441 H 0.99686 0.81149 0.49765 0.0
H442 H 0.00493 0.85631 0.43398 0.0
H443 H 0.01494 0.88647 0.29586 0.0
H444 H 0.0251 0.85382 0.00509 0.0
H445 H 0.01847 0.80873 0.06911 0.0
C446 C 0.00796 0.79572 0.25688 0.0
C447 C 0.00247 0.79175 0.3573 0.0
C448 C 0.01271 0.82143 0.22003 0.0
C449 C 1.00189 0.81385 0.42072 0.0
C450 C 0.00642 0.83953 0.3844 0.0
C451 C 0.01594 0.8694 0.24702 0.0
C452 C 0.02028 0.87332 0.14593 0.0
C453 C 0.0119 0.84357 0.28434 0.0
C454 C 0.02137 0.85116 0.08295 0.0
C455 C 0.01771 0.82543 0.11959 0.0
H456 H 0.7286 0.01609 0.21883 0.0
H457 H 0.72093 0.93061 0.23194 0.0
H458 H 0.67295 0.93424 0.20142 0.0
H459 H 0.63308 0.9618 0.17453 0.0
H460 H 0.64077 0.0474 0.16325 0.0
H461 H 0.68862 0.04371 0.19415 0.0
C462 C 0.71631 0.99831 0.2171 0.0
C463 C 0.72814 0.97316 0.23 0.0
C464 C 0.68872 1.00059 0.20085 0.0
C465 C 0.71222 0.95021 0.22274 0.0
C466 C 0.68479 0.95228 0.20583 0.0
C467 C 0.64524 0.97965 0.17838 0.0
C468 C 0.6333 0.00483 0.16666 0.0
C469 C 0.67281 0.97738 0.19526 0.0
C470 C 0.64934 0.02777 0.17321 0.0
C471 C 0.67676 0.02568 0.19002 0.0
H472 H 0.48854 0.71328 0.34196 0.0
H473 H 0.52672 0.7381 0.07315 0.0
H474 H 0.5158 0.69537 0.99761 0.0
H475 H 0.49663 0.65039 0.00968 0.0
H476 H 0.4581 0.62606 0.27955 0.0
H477 H 0.46573 0.67006 0.3491 0.0
C478 C 0.4937 0.70989 0.26624 0.0
C479 C 0.50814 0.72927 0.21374 0.0
C480 C 0.48718 0.68527 0.22286 0.0
C481 C 0.51564 0.72364 0.11601 0.0
C482 C 0.50939 0.69917 0.07249 0.0
C483 C 0.49023 0.6545 0.08434 0.0
C484 C 0.47697 0.63463 0.13915 0.0
C485 C 0.49549 0.67966 0.12576 0.0
C486 C 0.4682 0.64081 0.23488 0.0
C487 C 0.47298 0.66591 0.27573 0.0
H488 H 0.76554 0.49659 0.15792 0.0
H489 H 0.78239 0.45131 0.42022 0.0
H490 H 0.8301 0.45413 0.38664 0.0
H491 H 0.86727 0.47003 0.28372 0.0
H492 H 0.85007 0.51234 0.01438 0.0
H493 H 0.80248 0.50998 0.04966 0.0
C494 C 0.77962 0.4872 0.20757 0.0
C495 C 0.77029 0.47458 0.29355 0.0
C496 C 0.8071 0.48835 0.18641 0.0
C497 C 0.7889 0.46228 0.35622 0.0
C498 C 0.81627 0.46355 0.33619 0.0
C499 C 0.85317 0.47847 0.23193 0.0
C500 C 0.86252 0.49156 0.14677 0.0
C501 C 0.82564 0.47672 0.25187 0.0
C502 C 0.84371 0.50262 0.08153 0.0
C503 C 0.81637 0.50112 0.10125 0.0
H504 H 1.00161 0.16451 0.92574 0.0
H505 H 0.07426 0.17874 0.76342 0.0
H506 H 0.07029 0.13494 0.68516 0.0
H507 H 0.04822 0.09079 0.67565 0.0
H508 H 0.97816 0.07605 0.85145 0.0
H509 H 0.97872 0.122 0.91082 0.0
C510 C 0.0164 0.15823 0.87218 0.0
C511 C 0.03823 0.17473 0.85058 0.0
C512 C 0.0144 0.13288 0.83008 0.0
C513 C 0.05734 0.16624 0.78163 0.0
C514 C 0.05507 0.14123 0.7369 0.0
C515 C 0.03285 0.09801 0.72524 0.0
C516 C 0.01307 0.08051 0.75907 0.0
C517 C 0.03399 0.12414 0.76222 0.0
C518 C 0.99345 0.08952 0.82464 0.0
C519 C 0.99384 0.11565 0.85877 0.0
H520 H 0.32474 0.00348 0.00315 0.0
H521 H 0.30601 0.02949 0.70883 0.0
H522 H 0.35372 0.02964 0.66699 0.0
H523 H 0.40067 0.02239 0.71542 0.0
H524 H 0.41868 0.99892 0.01386 0.0
H525 H 0.37123 0.99809 0.05317 0.0
C526 C 0.33107 0.00897 0.9295 0.0
C527 C 0.31195 0.01607 0.85855 0.0
C528 C 0.35837 0.00969 0.90718 0.0
C529 C 0.32043 0.02381 0.76433 0.0
C530 C 0.34765 0.02392 0.74058 0.0
C531 C 0.39421 0.01709 0.78903 0.0
C532 C 0.41326 0.0106 0.86145 0.0
C533 C 0.36681 0.01691 0.81157 0.0
C534 C 0.40453 0.00406 0.95675 0.0
C535 C 0.37736 0.00346 0.97926 0.0
H536 H 0.46443 0.3317 0.96678 0.0
H537 H 0.49621 0.3085 0.68415 0.0
H538 H 0.49546 0.35497 0.63011 0.0
H539 H 0.48872 0.40241 0.66773 0.0
H540 H 0.45814 0.42518 0.95291 0.0
H541 H 0.45563 0.37856 0.00126 0.0
C542 C 0.4709 0.3367 0.89286 0.0
C543 C 0.48047 0.31666 0.82977 0.0
C544 C 0.47091 0.36342 0.86306 0.0
C545 C 0.48883 0.32356 0.73435 0.0
C546 C 0.48849 0.35013 0.70348 0.0
C547 C 0.48126 0.3972 0.74009 0.0
C548 C 0.47378 0.41735 0.80663 0.0
C549 C 0.48004 0.37028 0.76795 0.0
C550 C 0.46423 0.41016 0.90027 0.0
C551 C 0.46273 0.38347 0.92809 0.0
H552 H 0.1771 0.51132 0.00136 0.0
H553 H 0.19216 0.48007 0.711 0.0
H554 H 0.14433 0.48246 0.67326 0.0
H555 H 0.0983 0.49306 0.72435 0.0
H556 H 0.08353 0.52171 0.01888 0.0
H557 H 0.13128 0.52034 0.05413 0.0
C558 C 0.16996 0.50522 0.92948 0.0
C559 C 0.18811 0.49586 0.85846 0.0
C560 C 0.14251 0.50588 0.9097 0.0
C561 C 0.17853 0.48748 0.7665 0.0
C562 C 0.15123 0.48879 0.74513 0.0
C563 C 0.10555 0.49903 0.79619 0.0
C564 C 0.08741 0.50768 0.86866 0.0
C565 C 0.13303 0.49787 0.81637 0.0
C566 C 0.09704 0.51488 0.96198 0.0
C567 C 0.12436 0.51421 0.98206 0.0
H568 H 0.03898 0.82506 0.65768 0.0
H569 H 0.98532 0.82524 0.90579 0.0
H570 H 0.97065 0.87029 0.86377 0.0
H571 H 0.9787 0.9118 0.77406 0.0
H572 H 0.03447 0.91325 0.53282 0.0
H573 H 0.0431 0.86549 0.55496 0.0
C574 C 0.02364 0.8348 0.701 0.0
C575 C 0.01308 0.822 0.78464 0.0
C576 C 0.01619 0.86113 0.67884 0.0
C577 C 0.99364 0.83487 0.8413 0.0
C578 C 0.9854 0.86062 0.81766 0.0
C579 C 0.99211 0.90139 0.72444 0.0
C580 C 0.00599 0.9158 0.65211 0.0
C581 C 0.99729 0.87427 0.73905 0.0
C582 C 0.02337 0.90237 0.58821 0.0
C583 C 0.02852 0.87518 0.60177 0.0
H584 H 0.67278 1.00107 0.6833 0.0
H585 H 0.65375 0.03283 0.39674 0.0
H586 H 0.60627 0.03211 0.43739 0.0
H587 H 0.5701 0.02176 0.55368 0.0
H588 H 0.58941 0.99123 0.84183 0.0
H589 H 0.63684 0.99221 0.80131 0.0
C590 C 0.65825 0.00795 0.6299 0.0
C591 C 0.66677 0.0169 0.53709 0.0
C592 C 0.63103 0.00763 0.65397 0.0
C593 C 0.64773 0.02592 0.46886 0.0
C594 C 0.62056 0.02542 0.4919 0.0
C595 C 0.5847 0.01521 0.60738 0.0
C596 C 0.57626 0.00631 0.70042 0.0
C597 C 0.61198 0.01613 0.584 0.0
C598 C 0.5954 0.99824 0.7698 0.0
C599 C 0.62253 0.99876 0.74665 0.0
H600 H 0.48944 0.66606 0.49224 0.0
H601 H 0.47056 0.68706 0.79158 0.0
H602 H 0.47509 0.64011 0.84059 0.0
H603 H 0.48223 0.5931 0.7948 0.0
H604 H 0.49998 0.57308 0.49233 0.0
H605 H 0.49769 0.61997 0.44732 0.0
C606 C 0.48571 0.6603 0.56774 0.0
C607 C 0.47875 0.67968 0.63755 0.0
C608 C 0.48826 0.6336 0.59457 0.0
C609 C 0.47554 0.67229 0.73642 0.0
C610 C 0.47814 0.64554 0.76424 0.0
C611 C 0.48584 0.59899 0.71921 0.0
C612 C 0.49113 0.57958 0.64687 0.0
C613 C 0.48421 0.626 0.69349 0.0
C614 C 0.49577 0.58757 0.54933 0.0
C615 C 0.49443 0.61437 0.52344 0.0
H616 H 0.84163 0.53123 0.53599 0.0
H617 H 0.82151 0.48174 0.78506 0.0
H618 H 0.86607 0.48869 0.85373 0.0
H619 H 0.91182 0.50528 0.83443 0.0
H620 H 0.93244 0.55217 0.57902 0.0
H621 H 0.88634 0.55007 0.52196 0.0
C622 C 0.84683 0.52226 0.60602 0.0
C623 C 0.82842 0.50584 0.65499 0.0
C624 C 0.87256 0.52579 0.64365 0.0
C625 C 0.83546 0.49431 0.74557 0.0
C626 C 0.8609 0.49827 0.78487 0.0
C627 C 0.90613 0.51541 0.76714 0.0
C628 C 0.92549 0.52868 0.7105 0.0
C629 C 0.87979 0.51345 0.73329 0.0
C630 C 0.91789 0.54161 0.62331 0.0
C631 C 0.89157 0.54041 0.59062 0.0
loop_
_geom_bond_atom_site_label_1
_geom_bond_atom_site_label_2
_geom_bond_distance
_geom_bond_site_symmetry_2
_ccdc_geom_bond_type
O0 Cd1 2.300 . S
O0 C7 1.275 . S
Cd1 O0 2.300 . S
Cd1 O9 2.381 . S
Cd1 O10 2.378 . S
O2 Cd3 2.385 . S
O2 C7 1.255 . S
Cd3 O2 2.385 . S
Cd3 O4 2.317 . S
O4 Cd3 2.317 . S
O4 C5 1.232 . S
C5 O4 1.232 . S
C5 O6 1.218 . S
O6 C5 1.218 . S
C7 O0 1.275 . S
C7 O2 1.255 . S
C8 O9 1.258 . S
C8 O10 1.256 . S
O9 Cd1 2.381 . S
O9 C8 1.258 . S
O10 Cd1 2.378 . S
O10 C8 1.256 . S
O11 Cd12 2.300 1_655 S
O11 C18 1.275 1_655 S
Cd12 O11 2.300 1_455 S
Cd12 O20 2.381 1_455 S
Cd12 O21 2.378 . S
O13 Cd14 2.385 . S
O13 C18 1.255 . S
Cd14 O13 2.385 . S
Cd14 O15 2.317 . S
O15 Cd14 2.317 . S
O15 C16 1.232 . S
C16 O15 1.232 . S
C16 O17 1.218 . S
O17 C16 1.218 . S
C18 O11 1.275 1_455 S
C18 O13 1.255 . S
C19 O20 1.258 1_455 S
C19 O21 1.256 . S
O20 Cd12 2.381 1_655 S
O20 C19 1.258 1_655 S
O21 Cd12 2.378 . S
O21 C19 1.256 . S
O22 Cd23 2.300 1_565 S
O22 C29 1.275 1_565 S
Cd23 O22 2.300 1_545 S
Cd23 O31 2.381 1_545 S
Cd23 O32 2.378 . S
O24 Cd25 2.385 . S
O24 C29 1.255 . S
Cd25 O24 2.385 . S
Cd25 O26 2.317 . S
O26 Cd25 2.317 . S
O26 C27 1.232 . S
C27 O26 1.232 . S
C27 O28 1.218 . S
O28 C27 1.218 . S
C29 O22 1.275 1_545 S
C29 O24 1.255 . S
C30 O31 1.258 1_545 S
C30 O32 1.256 . S
O31 Cd23 2.381 1_565 S
O31 C30 1.258 1_565 S
O32 Cd23 2.378 . S
O32 C30 1.256 . S
O33 Cd34 2.300 . S
O33 C40 1.275 . S
Cd34 O33 2.300 . S
Cd34 O42 2.381 . S
Cd34 O43 2.378 . S
O35 Cd36 2.385 . S
O35 C40 1.255 . S
Cd36 O35 2.385 . S
Cd36 O37 2.317 . S
O37 Cd36 2.317 . S
O37 C38 1.232 . S
C38 O37 1.232 . S
C38 O39 1.218 . S
O39 C38 1.218 . S
C40 O33 1.275 . S
C40 O35 1.255 . S
C41 O42 1.258 . S
C41 O43 1.256 . S
O42 Cd34 2.381 . S
O42 C41 1.258 . S
O43 Cd34 2.378 . S
O43 C41 1.256 . S
O44 Cd45 2.300 . S
O44 C51 1.275 . S
Cd45 O44 2.300 . S
Cd45 O53 2.381 . S
Cd45 O54 2.378 . S
O46 Cd47 2.385 1_554 S
O46 C51 1.255 . S
Cd47 O46 2.385 1_556 S
Cd47 O48 2.317 . S
O48 Cd47 2.317 . S
O48 C49 1.232 . S
C49 O48 1.232 . S
C49 O50 1.218 . S
O50 C49 1.218 . S
C51 O44 1.275 . S
C51 O46 1.255 . S
C52 O53 1.258 . S
C52 O54 1.256 . S
O53 Cd45 2.381 . S
O53 C52 1.258 . S
O54 Cd45 2.378 . S
O54 C52 1.256 . S
O55 Cd56 2.300 1_655 S
O55 C62 1.275 1_655 S
Cd56 O55 2.300 1_455 S
Cd56 O64 2.381 1_455 S
Cd56 O65 2.378 . S
O57 Cd58 2.385 1_554 S
O57 C62 1.255 . S
Cd58 O57 2.385 1_556 S
Cd58 O59 2.317 . S
O59 Cd58 2.317 . S
O59 C60 1.232 . S
C60 O59 1.232 . S
C60 O61 1.218 . S
O61 C60 1.218 . S
C62 O55 1.275 1_455 S
C62 O57 1.255 . S
C63 O64 1.258 1_455 S
C63 O65 1.256 . S
O64 Cd56 2.381 1_655 S
O64 C63 1.258 1_655 S
O65 Cd56 2.378 . S
O65 C63 1.256 . S
O66 Cd67 2.300 1_565 S
O66 C73 1.275 1_565 S
Cd67 O66 2.300 1_545 S
Cd67 O75 2.381 1_545 S
Cd67 O76 2.378 . S
O68 Cd69 2.385 1_554 S
O68 C73 1.255 . S
Cd69 O68 2.385 1_556 S
Cd69 O70 2.317 . S
O70 Cd69 2.317 . S
O70 C71 1.232 . S
C71 O70 1.232 . S
C71 O72 1.218 . S
O72 C71 1.218 . S
C73 O66 1.275 1_545 S
C73 O68 1.255 . S
C74 O75 1.258 1_545 S
C74 O76 1.256 . S
O75 Cd67 2.381 1_565 S
O75 C74 1.258 1_565 S
O76 Cd67 2.378 . S
O76 C74 1.256 . S
O77 Cd78 2.300 . S
O77 C84 1.275 . S
Cd78 O77 2.300 . S
Cd78 O86 2.381 . S
Cd78 O87 2.378 . S
O79 Cd80 2.385 1_554 S
O79 C84 1.255 . S
Cd80 O79 2.385 1_556 S
Cd80 O81 2.317 . S
O81 Cd80 2.317 . S
O81 C82 1.232 . S
C82 O81 1.232 . S
C82 O83 1.218 . S
O83 C82 1.218 . S
C84 O77 1.275 . S
C84 O79 1.255 . S
C85 O86 1.258 . S
C85 O87 1.256 . S
O86 Cd78 2.381 . S
O86 C85 1.258 . S
O87 Cd78 2.378 . S
O87 C85 1.256 . S
La88 C90 2.928 . S
La88 O108 2.521 . S
La88 O109 2.628 . S
La88 O110 2.554 . S
La88 O111 2.757 1_565 S
La88 O112 2.470 . S
La88 O117 2.482 1_455 S
La88 O119 2.503 1_565 S
La89 C99 2.928 . S
La89 O111 2.482 1_655 S
La89 O113 2.503 1_545 S
La89 O114 2.521 . S
La89 O115 2.628 . S
La89 O116 2.554 . S
La89 O117 2.757 1_545 S
La89 O118 2.470 . S
C90 La88 2.928 . S
C90 C91 1.503 1_556 S
C90 O108 1.261 . S
C90 O109 1.243 . S
C91 C90 1.503 1_554 S
C91 C92 1.394 . S
C91 C96 1.373 . S
C92 C91 1.394 . S
C92 C93 1.380 . S
C92 H120 0.930 . S
C93 C92 1.380 . S
C93 C94 1.376 . S
C93 H121 0.930 . S
C94 C93 1.376 . S
C94 C95 1.370 . S
C95 C94 1.370 . S
C95 C96 1.396 . S
C95 H122 0.929 1_455 S
C96 C91 1.373 . S
C96 C95 1.396 . S
C96 H123 0.929 1_455 S
C97 O110 1.240 . S
C97 O111 1.289 1_565 S
C98 O112 1.258 1_655 S
C98 O113 1.256 . S
C99 La89 2.928 . S
C99 C100 1.503 . S
C99 O114 1.261 . S
C99 O115 1.243 . S
C100 C99 1.503 . S
C100 C101 1.394 . S
C100 C105 1.373 . S
C101 C100 1.394 . S
C101 C102 1.380 . S
C101 H124 0.930 . S
C102 C101 1.380 . S
C102 C103 1.376 . S
C102 H125 0.930 . S
C103 C102 1.376 . S
C103 C104 1.370 . S
C104 C103 1.370 . S
C104 C105 1.396 . S
C104 H126 0.929 1_655 S
C105 C100 1.373 . S
C105 C104 1.396 . S
C105 H127 0.929 1_655 S
C106 O116 1.240 . S
C106 O117 1.289 1_545 S
C107 O118 1.258 1_455 S
C107 O119 1.256 . S
O108 La88 2.521 . S
O108 C90 1.261 . S
O109 La88 2.628 . S
O109 C90 1.243 . S
O110 La88 2.554 . S
O110 C97 1.240 . S
O111 La88 2.757 1_545 S
O111 La89 2.482 1_455 S
O111 C97 1.289 1_545 S
O112 La88 2.470 . S
O112 C98 1.258 1_455 S
O113 La89 2.503 1_565 S
O113 C98 1.256 . S
O114 La89 2.521 . S
O114 C99 1.261 . S
O115 La89 2.628 . S
O115 C99 1.243 . S
O116 La89 2.554 . S
O116 C106 1.240 . S
O117 La88 2.482 1_655 S
O117 La89 2.757 1_565 S
O117 C106 1.289 1_565 S
O118 La89 2.470 . S
O118 C107 1.258 1_655 S
O119 La88 2.503 1_545 S
O119 C107 1.256 . S
H120 C92 0.930 . S
H121 C93 0.930 . S
H122 C95 0.929 1_655 S
H123 C96 0.929 1_655 S
H124 C101 0.930 . S
H125 C102 0.930 . S
H126 C104 0.929 1_455 S
H127 C105 0.929 1_455 S
La128 C130 2.928 . S
La128 O148 2.521 . S
La128 O149 2.628 . S
La128 O150 2.554 . S
La128 O151 2.757 . S
La128 O152 2.470 . S
La128 O157 2.482 1_545 S
La128 O159 2.503 . S
La129 C139 2.928 . S
La129 O151 2.482 1_565 S
La129 O153 2.503 . S
La129 O154 2.521 . S
La129 O155 2.628 . S
La129 O156 2.554 . S
La129 O157 2.757 . S
La129 O158 2.470 . S
C130 La128 2.928 . S
C130 C131 1.503 1_556 S
C130 O148 1.261 . S
C130 O149 1.243 . S
C131 C130 1.503 1_554 S
C131 C132 1.394 . S
C131 C136 1.373 . S
C132 C131 1.394 . S
C132 C133 1.380 . S
C132 H160 0.930 . S
C133 C132 1.380 . S
C133 C134 1.376 . S
C133 H161 0.930 . S
C134 C133 1.376 . S
C134 C135 1.370 . S
C135 C134 1.370 . S
C135 C136 1.396 . S
C135 H162 0.929 1_545 S
C136 C131 1.373 . S
C136 C135 1.396 . S
C136 H163 0.929 1_545 S
C137 O150 1.240 . S
C137 O151 1.289 . S
C138 O152 1.258 1_565 S
C138 O153 1.256 . S
C139 La129 2.928 . S
C139 C140 1.503 . S
C139 O154 1.261 . S
C139 O155 1.243 . S
C140 C139 1.503 . S
C140 C141 1.394 . S
C140 C145 1.373 . S
C141 C140 1.394 . S
C141 C142 1.380 . S
C141 H164 0.930 . S
C142 C141 1.380 . S
C142 C143 1.376 . S
C142 H165 0.930 . S
C143 C142 1.376 . S
C143 C144 1.370 . S
C144 C143 1.370 . S
C144 C145 1.396 . S
C144 H166 0.929 1_565 S
C145 C140 1.373 . S
C145 C144 1.396 . S
C145 H167 0.929 1_565 S
C146 O156 1.240 . S
C146 O157 1.289 . S
C147 O158 1.258 1_545 S
C147 O159 1.256 . S
O148 La128 2.521 . S
O148 C130 1.261 . S
O149 La128 2.628 . S
O149 C130 1.243 . S
O150 La128 2.554 . S
O150 C137 1.240 . S
O151 La128 2.757 . S
O151 La129 2.482 1_545 S
O151 C137 1.289 . S
O152 La128 2.470 . S
O152 C138 1.258 1_545 S
O153 La129 2.503 . S
O153 C138 1.256 . S
O154 La129 2.521 . S
O154 C139 1.261 . S
O155 La129 2.628 . S
O155 C139 1.243 . S
O156 La129 2.554 . S
O156 C146 1.240 . S
O157 La128 2.482 1_565 S
O157 La129 2.757 . S
O157 C146 1.289 . S
O158 La129 2.470 . S
O158 C147 1.258 1_565 S
O159 La128 2.503 . S
O159 C147 1.256 . S
H160 C132 0.930 . S
H161 C133 0.930 . S
H162 C135 0.929 1_565 S
H163 C136 0.929 1_565 S
H164 C141 0.930 . S
H165 C142 0.930 . S
H166 C144 0.929 1_545 S
H167 C145 0.929 1_545 S
La168 C170 2.928 . S
La168 O188 2.521 . S
La168 O189 2.628 . S
La168 O190 2.554 . S
La168 O191 2.757 . S
La168 O192 2.470 . S
La168 O197 2.482 . S
La168 O199 2.503 . S
La169 C179 2.928 . S
La169 O191 2.482 . S
La169 O193 2.503 . S
La169 O194 2.521 . S
La169 O195 2.628 . S
La169 O196 2.554 . S
La169 O197 2.757 . S
La169 O198 2.470 . S
C170 La168 2.928 . S
C170 C171 1.503 1_556 S
C170 O188 1.261 . S
C170 O189 1.243 . S
C171 C170 1.503 1_554 S
C171 C172 1.394 . S
C171 C176 1.373 . S
C172 C171 1.394 . S
C172 C173 1.380 . S
C172 H200 0.930 . S
C173 C172 1.380 . S
C173 C174 1.376 . S
C173 H201 0.930 . S
C174 C173 1.376 . S
C174 C175 1.370 . S
C175 C174 1.370 . S
C175 C176 1.396 . S
C175 H202 0.929 . S
C176 C171 1.373 . S
C176 C175 1.396 . S
C176 H203 0.929 . S
C177 O190 1.240 . S
C177 O191 1.289 . S
C178 O192 1.258 . S
C178 O193 1.256 . S
C179 La169 2.928 . S
C179 C180 1.503 . S
C179 O194 1.261 . S
C179 O195 1.243 . S
C180 C179 1.503 . S
C180 C181 1.394 . S
C180 C185 1.373 . S
C181 C180 1.394 . S
C181 C182 1.380 . S
C181 H204 0.930 . S
C182 C181 1.380 . S
C182 C183 1.376 . S
C182 H205 0.930 . S
C183 C182 1.376 . S
C183 C184 1.370 . S
C184 C183 1.370 . S
C184 C185 1.396 . S
C184 H206 0.929 . S
C185 C180 1.373 . S
C185 C184 1.396 . S
C185 H207 0.929 . S
C186 O196 1.240 . S
C186 O197 1.289 . S
C187 O198 1.258 . S
C187 O199 1.256 . S
O188 La168 2.521 . S
O188 C170 1.261 . S
O189 La168 2.628 . S
O189 C170 1.243 . S
O190 La168 2.554 . S
O190 C177 1.240 . S
O191 La168 2.757 . S
O191 La169 2.482 . S
O191 C177 1.289 . S
O192 La168 2.470 . S
O192 C178 1.258 . S
O193 La169 2.503 . S
O193 C178 1.256 . S
O194 La169 2.521 . S
O194 C179 1.261 . S
O195 La169 2.628 . S
O195 C179 1.243 . S
O196 La169 2.554 . S
O196 C186 1.240 . S
O197 La168 2.482 . S
O197 La169 2.757 . S
O197 C186 1.289 . S
O198 La169 2.470 . S
O198 C187 1.258 . S
O199 La168 2.503 . S
O199 C187 1.256 . S
H200 C172 0.930 . S
H201 C173 0.930 . S
H202 C175 0.929 . S
H203 C176 0.929 . S
H204 C181 0.930 . S
H205 C182 0.930 . S
H206 C184 0.929 . S
H207 C185 0.929 . S
La208 C210 2.928 . S
La208 O228 2.521 . S
La208 O229 2.628 . S
La208 O230 2.554 . S
La208 O231 2.757 1_655 S
La208 O232 2.470 . S
La208 O237 2.482 . S
La208 O239 2.503 1_655 S
La209 C219 2.928 . S
La209 O231 2.482 . S
La209 O233 2.503 1_455 S
La209 O234 2.521 . S
La209 O235 2.628 . S
La209 O236 2.554 . S
La209 O237 2.757 1_455 S
La209 O238 2.470 . S
C210 La208 2.928 . S
C210 C211 1.503 1_556 S
C210 O228 1.261 . S
C210 O229 1.243 . S
C211 C210 1.503 1_554 S
C211 C212 1.394 . S
C211 C216 1.373 . S
C212 C211 1.394 . S
C212 C213 1.380 . S
C212 H240 0.930 . S
C213 C212 1.380 . S
C213 C214 1.376 . S
C213 H241 0.930 . S
C214 C213 1.376 . S
C214 C215 1.370 . S
C215 C214 1.370 . S
C215 C216 1.396 . S
C215 H242 0.929 . S
C216 C211 1.373 . S
C216 C215 1.396 . S
C216 H243 0.929 . S
C217 O230 1.257 . S
C217 O231 1.279 1_655 S
C218 O232 1.258 . S
C218 O233 1.256 . S
C219 La209 2.928 . S
C219 C220 1.503 . S
C219 O234 1.261 . S
C219 O235 1.243 . S
C220 C219 1.503 . S
C220 C221 1.394 . S
C220 C225 1.373 . S
C221 C220 1.394 . S
C221 C222 1.380 . S
C221 H244 0.930 . S
C222 C221 1.380 . S
C222 C223 1.376 . S
C222 H245 0.930 . S
C223 C222 1.376 . S
C223 C224 1.370 . S
C224 C223 1.370 . S
C224 C225 1.396 . S
C224 H246 0.929 . S
C225 C220 1.373 . S
C225 C224 1.396 . S
C225 H247 0.929 . S
C226 O236 1.262 . S
C226 O237 1.276 1_455 S
C227 O238 1.258 . S
C227 O239 1.256 . S
O228 La208 2.521 . S
O228 C210 1.261 . S
O229 La208 2.628 . S
O229 C210 1.243 . S
O230 La208 2.554 . S
O230 C217 1.257 . S
O231 La208 2.757 1_455 S
O231 La209 2.482 . S
O231 C217 1.279 1_455 S
O232 La208 2.470 . S
O232 C218 1.258 . S
O233 La209 2.503 1_655 S
O233 C218 1.256 . S
O234 La209 2.521 . S
O234 C219 1.261 . S
O235 La209 2.628 . S
O235 C219 1.243 . S
O236 La209 2.554 . S
O236 C226 1.262 . S
O237 La208 2.482 . S
O237 La209 2.757 1_655 S
O237 C226 1.276 1_655 S
O238 La209 2.470 . S
O238 C227 1.258 . S
O239 La208 2.503 1_455 S
O239 C227 1.256 . S
H240 C212 0.930 . S
H241 C213 0.930 . S
H242 C215 0.929 . S
H243 C216 0.929 . S
H244 C221 0.930 . S
H245 C222 0.930 . S
H246 C224 0.929 . S
H247 C225 0.929 . S
H248 C254 0.930 . S
H249 C257 0.930 . S
H250 C258 0.930 . S
H251 C259 0.930 . S
H252 C262 0.930 . S
H253 C263 0.930 . S
C254 H248 0.930 . S
C254 C255 1.355 1_545 S
C254 C256 1.415 . S
C255 C254 1.355 1_565 S
C255 C257 1.419 . S
C256 C254 1.415 . S
C256 C261 1.425 1_545 S
C256 C263 1.409 . S
C257 H249 0.930 . S
C257 C255 1.419 . S
C257 C258 1.362 . S
C258 H250 0.930 . S
C258 C257 1.362 . S
C258 C261 1.409 . S
C259 H251 0.930 . S
C259 C260 1.355 1_565 S
C259 C261 1.415 . S
C260 C259 1.355 1_545 S
C260 C262 1.419 . S
C261 C256 1.425 1_565 S
C261 C258 1.409 . S
C261 C259 1.415 . S
C262 H252 0.930 . S
C262 C260 1.419 . S
C262 C263 1.362 . S
C263 H253 0.930 . S
C263 C256 1.409 . S
C263 C262 1.362 . S
H264 C270 0.930 . S
H265 C273 0.930 . S
H266 C274 0.930 . S
H267 C275 0.930 . S
H268 C278 0.930 . S
H269 C279 0.930 . S
C270 H264 0.930 . S
C270 C271 1.355 . S
C270 C272 1.415 . S
C271 C270 1.355 . S
C271 C273 1.419 . S
C272 C270 1.415 . S
C272 C277 1.425 . S
C272 C279 1.409 . S
C273 H265 0.930 . S
C273 C271 1.419 . S
C273 C274 1.362 . S
C274 H266 0.930 . S
C274 C273 1.362 . S
C274 C277 1.409 . S
C275 H267 0.930 . S
C275 C276 1.355 . S
C275 C277 1.415 . S
C276 C275 1.355 . S
C276 C278 1.419 . S
C277 C272 1.425 . S
C277 C274 1.409 . S
C277 C275 1.415 . S
C278 H268 0.930 . S
C278 C276 1.419 . S
C278 C279 1.362 . S
C279 H269 0.930 . S
C279 C272 1.409 . S
C279 C278 1.362 . S
H280 C286 0.930 . S
H281 C289 0.930 . S
H282 C290 0.930 . S
H283 C291 0.930 . S
H284 C294 0.930 . S
H285 C295 0.930 . S
C286 H280 0.930 . S
C286 C287 1.355 . S
C286 C288 1.415 . S
C287 C286 1.355 . S
C287 C289 1.419 . S
C288 C286 1.415 . S
C288 C293 1.425 . S
C288 C295 1.409 . S
C289 H281 0.930 . S
C289 C287 1.419 . S
C289 C290 1.362 . S
C290 H282 0.930 . S
C290 C289 1.362 . S
C290 C293 1.409 . S
C291 H283 0.930 . S
C291 C292 1.355 . S
C291 C293 1.415 . S
C292 C291 1.355 . S
C292 C294 1.419 . S
C293 C288 1.425 . S
C293 C290 1.409 . S
C293 C291 1.415 . S
C294 H284 0.930 . S
C294 C292 1.419 . S
C294 C295 1.362 . S
C295 H285 0.930 . S
C295 C288 1.409 . S
C295 C294 1.362 . S
H296 C302 0.930 . S
H297 C305 0.930 . S
H298 C306 0.930 . S
H299 C307 0.930 . S
H300 C310 0.930 . S
H301 C311 0.930 . S
C302 H296 0.930 . S
C302 C303 1.355 1_655 S
C302 C304 1.415 . S
C303 C302 1.355 1_455 S
C303 C305 1.419 . S
C304 C302 1.415 . S
C304 C309 1.425 1_655 S
C304 C311 1.409 . S
C305 H297 0.930 . S
C305 C303 1.419 . S
C305 C306 1.362 . S
C306 H298 0.930 . S
C306 C305 1.362 . S
C306 C309 1.409 . S
C307 H299 0.930 . S
C307 C308 1.352 1_455 S
C307 C309 1.415 . S
C308 C307 1.352 1_655 S
C308 C310 1.422 . S
C309 C304 1.425 1_455 S
C309 C306 1.409 . S
C309 C307 1.415 . S
C310 H300 0.930 . S
C310 C308 1.422 . S
C310 C311 1.362 . S
C311 H301 0.930 . S
C311 C304 1.409 . S
C311 C310 1.362 . S
H312 C318 0.930 . S
H313 C321 0.930 . S
H314 C322 0.930 . S
H315 C323 0.930 . S
H316 C326 0.930 . S
H317 C327 0.930 . S
C318 H312 0.930 . S
C318 C319 1.355 1_565 S
C318 C320 1.415 . S
C319 C318 1.355 1_545 S
C319 C321 1.419 . S
C320 C318 1.415 . S
C320 C325 1.425 1_565 S
C320 C327 1.409 . S
C321 H313 0.930 . S
C321 C319 1.419 . S
C321 C322 1.362 . S
C322 H314 0.930 . S
C322 C321 1.362 . S
C322 C325 1.409 . S
C323 H315 0.930 . S
C323 C324 1.355 1_545 S
C323 C325 1.415 1_556 S
C324 C323 1.355 1_565 S
C324 C326 1.419 1_556 S
C325 C320 1.425 1_545 S
C325 C322 1.409 . S
C325 C323 1.415 1_554 S
C326 H316 0.930 . S
C326 C324 1.419 1_554 S
C326 C327 1.362 . S
C327 H317 0.930 . S
C327 C320 1.409 . S
C327 C326 1.362 . S
H328 C334 0.930 . S
H329 C337 0.930 . S
H330 C338 0.930 . S
H331 C339 0.930 . S
H332 C342 0.930 . S
H333 C343 0.930 . S
C334 H328 0.930 . S
C334 C335 1.355 . S
C334 C336 1.415 . S
C335 C334 1.355 . S
C335 C337 1.419 . S
C336 C334 1.415 . S
C336 C341 1.425 . S
C336 C343 1.409 . S
C337 H329 0.930 . S
C337 C335 1.419 . S
C337 C338 1.362 . S
C338 H330 0.930 . S
C338 C337 1.362 . S
C338 C341 1.409 . S
C339 H331 0.930 . S
C339 C340 1.355 . S
C339 C341 1.415 1_556 S
C340 C339 1.355 . S
C340 C342 1.419 1_556 S
C341 C336 1.425 . S
C341 C338 1.409 . S
C341 C339 1.415 1_554 S
C342 H332 0.930 . S
C342 C340 1.419 1_554 S
C342 C343 1.362 . S
C343 H333 0.930 . S
C343 C336 1.409 . S
C343 C342 1.362 . S
H344 C350 0.930 . S
H345 C353 0.930 . S
H346 C354 0.930 . S
H347 C355 0.930 . S
H348 C358 0.930 1_556 S
H349 C359 0.930 . S
C350 H344 0.930 . S
C350 C351 1.355 . S
C350 C352 1.415 . S
C351 C350 1.355 . S
C351 C353 1.419 . S
C352 C350 1.415 . S
C352 C357 1.425 . S
C352 C359 1.409 . S
C353 H345 0.930 . S
C353 C351 1.419 . S
C353 C354 1.362 . S
C354 H346 0.930 . S
C354 C353 1.362 . S
C354 C357 1.409 . S
C355 H347 0.930 . S
C355 C356 1.355 . S
C355 C357 1.415 1_556 S
C356 C355 1.355 . S
C356 C358 1.419 1_556 S
C357 C352 1.425 . S
C357 C354 1.409 . S
C357 C355 1.415 1_554 S
C358 H348 0.930 1_554 S
C358 C356 1.419 1_554 S
C358 C359 1.362 . S
C359 H349 0.930 . S
C359 C352 1.409 . S
C359 C358 1.362 . S
H360 C366 0.930 . S
H361 C369 0.930 . S
H362 C370 0.930 . S
H363 C371 0.930 . S
H364 C374 0.930 . S
H365 C375 0.930 . S
C366 H360 0.930 . S
C366 C367 1.352 1_655 S
C366 C368 1.415 . S
C367 C366 1.352 1_455 S
C367 C369 1.422 . S
C368 C366 1.415 . S
C368 C373 1.425 1_655 S
C368 C375 1.409 1_554 S
C369 H361 0.930 . S
C369 C367 1.422 . S
C369 C370 1.362 . S
C370 H362 0.930 . S
C370 C369 1.362 . S
C370 C373 1.409 . S
C371 H363 0.930 . S
C371 C372 1.355 1_454 S
C371 C373 1.415 . S
C372 C371 1.355 1_656 S
C372 C374 1.419 . S
C373 C368 1.425 1_455 S
C373 C370 1.409 . S
C373 C371 1.415 . S
C374 H364 0.930 . S
C374 C372 1.419 . S
C374 C375 1.362 . S
C375 H365 0.930 . S
C375 C368 1.409 1_556 S
C375 C374 1.362 . S
H376 C382 0.930 . S
H377 C385 0.930 . S
H378 C386 0.930 . S
H379 C387 0.930 . S
H380 C390 0.930 . S
H381 C391 0.930 . S
C382 H376 0.930 . S
C382 C383 1.355 1_655 S
C382 C384 1.415 . S
C383 C382 1.355 1_455 S
C383 C385 1.419 . S
C384 C382 1.415 . S
C384 C389 1.425 . S
C384 C391 1.409 . S
C385 H377 0.930 . S
C385 C383 1.419 . S
C385 C386 1.362 . S
C386 H378 0.930 . S
C386 C385 1.362 . S
C386 C389 1.409 1_455 S
C387 H379 0.930 . S
C387 C388 1.355 . S
C387 C389 1.415 . S
C388 C387 1.355 . S
C388 C390 1.419 . S
C389 C384 1.425 . S
C389 C386 1.409 1_655 S
C389 C387 1.415 . S
C390 H380 0.930 . S
C390 C388 1.419 . S
C390 C391 1.362 . S
C391 H381 0.930 . S
C391 C384 1.409 . S
C391 C390 1.362 . S
H392 C398 0.930 . S
H393 C401 0.930 . S
H394 C402 0.930 . S
H395 C403 0.930 . S
H396 C406 0.930 . S
H397 C407 0.930 1_545 S
C398 H392 0.930 . S
C398 C399 1.355 1_545 S
C398 C400 1.415 1_545 S
C399 C398 1.355 1_565 S
C399 C401 1.419 . S
C400 C398 1.415 1_565 S
C400 C405 1.425 . S
C400 C407 1.409 . S
C401 H393 0.930 . S
C401 C399 1.419 . S
C401 C402 1.362 . S
C402 H394 0.930 . S
C402 C401 1.362 . S
C402 C405 1.409 . S
C403 H395 0.930 . S
C403 C404 1.355 . S
C403 C405 1.415 . S
C404 C403 1.355 . S
C404 C406 1.419 . S
C405 C400 1.425 . S
C405 C402 1.409 . S
C405 C403 1.415 . S
C406 H396 0.930 . S
C406 C404 1.419 . S
C406 C407 1.362 . S
C407 H397 0.930 1_565 S
C407 C400 1.409 . S
C407 C406 1.362 . S
H408 C414 0.930 . S
H409 C417 0.930 . S
H410 C418 0.930 . S
H411 C419 0.930 . S
H412 C422 0.930 . S
H413 C423 0.930 . S
C414 H408 0.930 . S
C414 C415 1.355 . S
C414 C416 1.415 . S
C415 C414 1.355 . S
C415 C417 1.419 . S
C416 C414 1.415 . S
C416 C421 1.425 . S
C416 C423 1.409 . S
C417 H409 0.930 . S
C417 C415 1.419 . S
C417 C418 1.362 . S
C418 H410 0.930 . S
C418 C417 1.362 . S
C418 C421 1.409 . S
C419 H411 0.930 . S
C419 C420 1.355 . S
C419 C421 1.415 . S
C420 C419 1.355 . S
C420 C422 1.419 . S
C421 C416 1.425 . S
C421 C418 1.409 . S
C421 C419 1.415 . S
C422 H412 0.930 . S
C422 C420 1.419 . S
C422 C423 1.362 . S
C423 H413 0.930 . S
C423 C416 1.409 . S
C423 C422 1.362 . S
H424 C430 0.930 . S
H425 C433 0.930 . S
H426 C434 0.930 . S
H427 C435 0.930 . S
H428 C438 0.930 . S
H429 C439 0.930 . S
C430 H424 0.930 . S
C430 C431 1.355 . S
C430 C432 1.415 . S
C431 C430 1.355 . S
C431 C433 1.419 . S
C432 C430 1.415 . S
C432 C437 1.425 . S
C432 C439 1.409 . S
C433 H425 0.930 . S
C433 C431 1.419 . S
C433 C434 1.362 . S
C434 H426 0.930 . S
C434 C433 1.362 . S
C434 C437 1.409 . S
C435 H427 0.930 . S
C435 C436 1.355 . S
C435 C437 1.415 . S
C436 C435 1.355 . S
C436 C438 1.419 . S
C437 C432 1.425 . S
C437 C434 1.409 . S
C437 C435 1.415 . S
C438 H428 0.930 . S
C438 C436 1.419 . S
C438 C439 1.362 . S
C439 H429 0.930 . S
C439 C432 1.409 . S
C439 C438 1.362 . S
H440 C446 0.946 . S
H441 C449 0.930 . S
H442 C450 0.930 . S
H443 C451 0.930 . S
H444 C454 0.930 1_556 S
H445 C455 0.912 1_655 S
C446 H440 0.946 . S
C446 C447 1.353 1_655 S
C446 C448 1.401 1_655 S
C447 C446 1.353 1_455 S
C447 C449 1.419 . S
C448 C446 1.401 1_455 S
C448 C453 1.425 . S
C448 C455 1.409 . S
C449 H441 0.930 . S
C449 C447 1.419 . S
C449 C450 1.362 . S
C450 H442 0.930 . S
C450 C449 1.362 . S
C450 C453 1.409 . S
C451 H443 0.930 . S
C451 C452 1.355 . S
C451 C453 1.415 . S
C452 C451 1.355 . S
C452 C454 1.419 . S
C453 C448 1.425 . S
C453 C450 1.409 . S
C453 C451 1.415 . S
C454 H444 0.930 1_554 S
C454 C452 1.419 . S
C454 C455 1.362 . S
C455 H445 0.912 1_455 S
C455 C448 1.409 . S
C455 C454 1.362 . S
H456 C462 0.930 . S
H457 C465 0.930 . S
H458 C466 0.930 . S
H459 C467 0.930 . S
H460 C470 0.930 . S
H461 C471 0.930 . S
C462 H456 0.930 . S
C462 C463 1.355 1_545 S
C462 C464 1.415 . S
C463 C462 1.355 1_565 S
C463 C465 1.419 . S
C464 C462 1.415 . S
C464 C469 1.425 . S
C464 C471 1.409 . S
C465 H457 0.930 . S
C465 C463 1.419 . S
C465 C466 1.362 . S
C466 H458 0.930 . S
C466 C465 1.362 . S
C466 C469 1.409 1_565 S
C467 H459 0.930 . S
C467 C468 1.355 . S
C467 C469 1.415 . S
C468 C467 1.355 . S
C468 C470 1.419 . S
C469 C464 1.425 . S
C469 C466 1.409 1_545 S
C469 C467 1.415 . S
C470 H460 0.930 . S
C470 C468 1.419 . S
C470 C471 1.362 . S
C471 H461 0.930 . S
C471 C464 1.409 . S
C471 C470 1.362 . S
H472 C478 0.930 . S
H473 C481 0.930 . S
H474 C482 0.930 . S
H475 C483 0.930 . S
H476 C486 0.930 . S
H477 C487 0.930 . S
C478 H472 0.930 . S
C478 C479 1.355 . S
C478 C480 1.415 . S
C479 C478 1.355 . S
C479 C481 1.419 . S
C480 C478 1.415 . S
C480 C485 1.425 . S
C480 C487 1.409 . S
C481 H473 0.930 . S
C481 C479 1.419 . S
C481 C482 1.362 . S
C482 H474 0.930 . S
C482 C481 1.362 . S
C482 C485 1.409 . S
C483 H475 0.930 . S
C483 C484 1.355 . S
C483 C485 1.415 . S
C484 C483 1.355 . S
C484 C486 1.419 . S
C485 C480 1.425 . S
C485 C482 1.409 . S
C485 C483 1.415 . S
C486 H476 0.930 . S
C486 C484 1.419 . S
C486 C487 1.362 . S
C487 H477 0.930 . S
C487 C480 1.409 . S
C487 C486 1.362 . S
H488 C494 0.930 . S
H489 C497 0.930 . S
H490 C498 0.930 . S
H491 C499 0.930 . S
H492 C502 0.930 1_556 S
H493 C503 0.930 . S
C494 H488 0.930 . S
C494 C495 1.355 . S
C494 C496 1.415 . S
C495 C494 1.355 . S
C495 C497 1.419 . S
C496 C494 1.415 . S
C496 C501 1.425 . S
C496 C503 1.409 . S
C497 H489 0.930 . S
C497 C495 1.419 . S
C497 C498 1.362 . S
C498 H490 0.930 . S
C498 C497 1.362 . S
C498 C501 1.409 . S
C499 H491 0.930 . S
C499 C500 1.355 . S
C499 C501 1.415 . S
C500 C499 1.355 . S
C500 C502 1.419 . S
C501 C496 1.425 . S
C501 C498 1.409 . S
C501 C499 1.415 . S
C502 H492 0.930 1_554 S
C502 C500 1.419 . S
C502 C503 1.362 . S
C503 H493 0.930 . S
C503 C496 1.409 . S
C503 C502 1.362 . S
H504 C510 0.930 . S
H505 C513 0.930 . S
H506 C514 0.930 . S
H507 C515 0.930 . S
H508 C518 0.930 . S
H509 C519 0.930 . S
C510 H504 0.930 . S
C510 C511 1.355 1_655 S
C510 C512 1.415 . S
C511 C510 1.355 1_455 S
C511 C513 1.419 . S
C512 C510 1.415 . S
C512 C517 1.425 1_655 S
C512 C519 1.409 . S
C513 H505 0.930 . S
C513 C511 1.419 . S
C513 C514 1.362 . S
C514 H506 0.930 . S
C514 C513 1.362 . S
C514 C517 1.409 . S
C515 H507 0.930 . S
C515 C516 1.355 . S
C515 C517 1.415 . S
C516 C515 1.355 . S
C516 C518 1.419 1_455 S
C517 C512 1.425 1_455 S
C517 C514 1.409 . S
C517 C515 1.415 . S
C518 H508 0.930 . S
C518 C516 1.419 1_655 S
C518 C519 1.362 . S
C519 H509 0.930 . S
C519 C512 1.409 . S
C519 C518 1.362 . S
H520 C526 0.930 . S
H521 C529 0.930 . S
H522 C530 0.930 . S
H523 C531 0.930 . S
H524 C534 0.930 . S
H525 C535 0.930 . S
C526 H520 0.930 . S
C526 C527 1.355 1_565 S
C526 C528 1.415 . S
C527 C526 1.355 1_545 S
C527 C529 1.419 . S
C528 C526 1.415 . S
C528 C533 1.425 1_565 S
C528 C535 1.409 . S
C529 H521 0.930 . S
C529 C527 1.419 . S
C529 C530 1.362 . S
C530 H522 0.930 . S
C530 C529 1.362 . S
C530 C533 1.409 . S
C531 H523 0.930 . S
C531 C532 1.355 . S
C531 C533 1.415 . S
C532 C531 1.355 . S
C532 C534 1.419 1_545 S
C533 C528 1.425 1_545 S
C533 C530 1.409 . S
C533 C531 1.415 . S
C534 H524 0.930 . S
C534 C532 1.419 1_565 S
C534 C535 1.362 . S
C535 H525 0.930 . S
C535 C528 1.409 . S
C535 C534 1.362 . S
H536 C542 0.930 . S
H537 C545 0.930 . S
H538 C546 0.930 . S
H539 C547 0.930 . S
H540 C550 0.930 . S
H541 C551 0.930 . S
C542 H536 0.930 . S
C542 C543 1.355 . S
C542 C544 1.415 . S
C543 C542 1.355 . S
C543 C545 1.419 . S
C544 C542 1.415 . S
C544 C549 1.425 . S
C544 C551 1.409 . S
C545 H537 0.930 . S
C545 C543 1.419 . S
C545 C546 1.362 . S
C546 H538 0.930 . S
C546 C545 1.362 . S
C546 C549 1.409 . S
C547 H539 0.930 . S
C547 C548 1.355 . S
C547 C549 1.415 . S
C548 C547 1.355 . S
C548 C550 1.419 . S
C549 C544 1.425 . S
C549 C546 1.409 . S
C549 C547 1.415 . S
C550 H540 0.930 . S
C550 C548 1.419 . S
C550 C551 1.362 . S
C551 H541 0.930 . S
C551 C544 1.409 . S
C551 C550 1.362 . S
H552 C558 0.930 . S
H553 C561 0.930 . S
H554 C562 0.930 . S
H555 C563 0.930 . S
H556 C566 0.930 . S
H557 C567 0.930 . S
C558 H552 0.930 . S
C558 C559 1.355 . S
C558 C560 1.415 . S
C559 C558 1.355 . S
C559 C561 1.419 . S
C560 C558 1.415 . S
C560 C565 1.425 . S
C560 C567 1.409 . S
C561 H553 0.930 . S
C561 C559 1.419 . S
C561 C562 1.362 . S
C562 H554 0.930 . S
C562 C561 1.362 . S
C562 C565 1.409 . S
C563 H555 0.930 . S
C563 C564 1.355 . S
C563 C565 1.415 . S
C564 C563 1.355 . S
C564 C566 1.419 . S
C565 C560 1.425 . S
C565 C562 1.409 . S
C565 C563 1.415 . S
C566 H556 0.930 . S
C566 C564 1.419 . S
C566 C567 1.362 . S
C567 H557 0.930 . S
C567 C560 1.409 . S
C567 C566 1.362 . S
H568 C574 0.930 . S
H569 C577 0.930 . S
H570 C578 0.930 . S
H571 C579 0.930 . S
H572 C582 0.930 . S
H573 C583 0.930 . S
C574 H568 0.930 . S
C574 C575 1.355 1_455 S
C574 C576 1.415 . S
C575 C574 1.355 1_655 S
C575 C577 1.419 . S
C576 C574 1.415 . S
C576 C581 1.425 1_455 S
C576 C583 1.409 . S
C577 H569 0.930 . S
C577 C575 1.419 . S
C577 C578 1.362 . S
C578 H570 0.930 . S
C578 C577 1.362 . S
C578 C581 1.409 . S
C579 H571 0.930 . S
C579 C580 1.355 . S
C579 C581 1.415 . S
C580 C579 1.355 . S
C580 C582 1.419 1_655 S
C581 C576 1.425 1_655 S
C581 C578 1.409 . S
C581 C579 1.415 . S
C582 H572 0.930 . S
C582 C580 1.419 1_455 S
C582 C583 1.362 . S
C583 H573 0.930 . S
C583 C576 1.409 . S
C583 C582 1.362 . S
H584 C590 0.930 . S
H585 C593 0.930 . S
H586 C594 0.930 . S
H587 C595 0.930 . S
H588 C598 0.930 . S
H589 C599 0.930 . S
C590 H584 0.930 . S
C590 C591 1.355 1_545 S
C590 C592 1.415 . S
C591 C590 1.355 1_565 S
C591 C593 1.419 . S
C592 C590 1.415 . S
C592 C597 1.425 1_545 S
C592 C599 1.409 . S
C593 H585 0.930 . S
C593 C591 1.419 . S
C593 C594 1.362 . S
C594 H586 0.930 . S
C594 C593 1.362 . S
C594 C597 1.409 . S
C595 H587 0.930 . S
C595 C596 1.355 . S
C595 C597 1.415 . S
C596 C595 1.355 . S
C596 C598 1.419 1_565 S
C597 C592 1.425 1_565 S
C597 C594 1.409 . S
C597 C595 1.415 . S
C598 H588 0.930 . S
C598 C596 1.419 1_545 S
C598 C599 1.362 . S
C599 H589 0.930 . S
C599 C592 1.409 . S
C599 C598 1.362 . S
H600 C606 0.930 . S
H601 C609 0.930 . S
H602 C610 0.930 . S
H603 C611 0.930 . S
H604 C614 0.930 . S
H605 C615 0.930 . S
C606 H600 0.930 . S
C606 C607 1.355 . S
C606 C608 1.415 . S
C607 C606 1.355 . S
C607 C609 1.419 . S
C608 C606 1.415 . S
C608 C613 1.425 . S
C608 C615 1.409 . S
C609 H601 0.930 . S
C609 C607 1.419 . S
C609 C610 1.362 . S
C610 H602 0.930 . S
C610 C609 1.362 . S
C610 C613 1.409 . S
C611 H603 0.930 . S
C611 C612 1.355 . S
C611 C613 1.415 . S
C612 C611 1.355 . S
C612 C614 1.419 . S
C613 C608 1.425 . S
C613 C610 1.409 . S
C613 C611 1.415 . S
C614 H604 0.930 . S
C614 C612 1.419 . S
C614 C615 1.362 . S
C615 H605 0.930 . S
C615 C608 1.409 . S
C615 C614 1.362 . S
H616 C622 0.930 . S
H617 C625 0.930 . S
H618 C626 0.930 . S
H619 C627 0.930 . S
H620 C630 0.930 . S
H621 C631 0.930 . S
C622 H616 0.930 . S
C622 C623 1.355 . S
C622 C624 1.415 . S
C623 C622 1.355 . S
C623 C625 1.419 . S
C624 C622 1.415 . S
C624 C629 1.425 . S
C624 C631 1.409 . S
C625 H617 0.930 . S
C625 C623 1.419 . S
C625 C626 1.362 . S
C626 H618 0.930 . S
C626 C625 1.362 . S
C626 C629 1.409 . S
C627 H619 0.930 . S
C627 C628 1.355 . S
C627 C629 1.415 . S
C628 C627 1.355 . S
C628 C630 1.419 . S
C629 C624 1.425 . S
C629 C626 1.409 . S
C629 C627 1.415 . S
C630 H620 0.930 . S
C630 C628 1.419 . S
C630 C631 1.362 . S
C631 H621 0.930 . S
C631 C624 1.409 . S
C631 C630 1.362 . S
C255 C74 1.878 1_565 S
C260 C97 1.981 1_545 S
C276 C137 1.977 . S
C271 C85 1.863 . S
C292 C177 1.995 . S
C287 C52 1.889 . S
C308 C217 1.973 . S
C303 C63 1.864 . S
C324 C106 1.983 1_565 S
C319 C30 1.809 . S
C335 C41 1.825 . S
C340 C146 1.997 . S
C351 C8 1.837 . S
C356 C186 1.999 . S
C367 C19 1.883 . S
C372 C226 1.981 1_655 S
C388 C103 0.782 . S
C383 C62 0.707 . S
C404 C143 0.637 . S
C399 C73 0.679 1_565 S
C420 C183 0.782 . S
C415 C84 0.702 . S
C431 C51 0.672 . S
C436 C223 0.648 . S
C447 C18 0.653 . S
C452 C94 0.645 . S
C468 C134 0.755 . S
C463 C29 0.784 1_565 S
C484 C174 0.701 . S
C479 C40 0.681 . S
C495 C7 0.658 . S
C500 C214 0.649 . S
C511 C60 1.758 . S
C516 C107 2.352 . S
C527 C71 1.764 . S
C532 C147 2.341 . S
C548 C187 2.369 . S
C543 C82 1.829 . S
C564 C227 2.351 . S
C559 C49 1.728 . S
C575 C16 1.955 1_655 S
C580 C98 2.367 . S
C596 C138 2.341 . S
C591 C27 1.903 1_565 S
C612 C178 2.363 . S
C607 C38 1.896 . S
C623 C5 1.862 . S
C628 C218 2.393 . S
