# Generated by pormake.
# Topology iac, (4,6)-cn, num edge types: 1
# Building blocks:
#     Node 0, Type 0, BuildingBlock: GALJAG_clean_sbu_0, # of connection points: 4
#     Node 1, Type 0, BuildingBlock: GALJAG_clean_sbu_0, # of connection points: 4
#     Node 2, Type 0, BuildingBlock: GALJAG_clean_sbu_0, # of connection points: 4
#     Node 3, Type 0, BuildingBlock: GALJAG_clean_sbu_0, # of connection points: 4
#     Node 4, Type 0, BuildingBlock: GALJAG_clean_sbu_0, # of connection points: 4
#     Node 5, Type 0, BuildingBlock: GALJAG_clean_sbu_0, # of connection points: 4
#     Node 6, Type 0, BuildingBlock: GALJAG_clean_sbu_0, # of connection points: 4
#     Node 7, Type 0, BuildingBlock: GALJAG_clean_sbu_0, # of connection points: 4
#     Node 8, Type 0, BuildingBlock: GALJAG_clean_sbu_0, # of connection points: 4
#     Node 9, Type 0, BuildingBlock: GALJAG_clean_sbu_0, # of connection points: 4
#     Node 10, Type 0, BuildingBlock: GALJAG_clean_sbu_0, # of connection points: 4
#     Node 11, Type 0, BuildingBlock: GALJAG_clean_sbu_0, # of connection points: 4
#     Node 12, Type 0, BuildingBlock: GALJAG_clean_sbu_0, # of connection points: 4
#     Node 13, Type 0, BuildingBlock: GALJAG_clean_sbu_0, # of connection points: 4
#     Node 14, Type 0, BuildingBlock: GALJAG_clean_sbu_0, # of connection points: 4
#     Node 15, Type 0, BuildingBlock: GALJAG_clean_sbu_0, # of connection points: 4
#     Node 16, Type 0, BuildingBlock: GALJAG_clean_sbu_0, # of connection points: 4
#     Node 17, Type 0, BuildingBlock: GALJAG_clean_sbu_0, # of connection points: 4
#     Node 18, Type 0, BuildingBlock: GALJAG_clean_sbu_0, # of connection points: 4
#     Node 19, Type 0, BuildingBlock: GALJAG_clean_sbu_0, # of connection points: 4
#     Node 20, Type 0, BuildingBlock: GALJAG_clean_sbu_0, # of connection points: 4
#     Node 21, Type 0, BuildingBlock: GALJAG_clean_sbu_0, # of connection points: 4
#     Node 22, Type 0, BuildingBlock: GALJAG_clean_sbu_0, # of connection points: 4
#     Node 23, Type 0, BuildingBlock: GALJAG_clean_sbu_0, # of connection points: 4
#     Node 24, Type 1, BuildingBlock: JUFBIX_clean_sbu_0, # of connection points: 6
#     Node 25, Type 1, BuildingBlock: JUFBIX_clean_sbu_0, # of connection points: 6
#     Node 26, Type 1, BuildingBlock: JUFBIX_clean_sbu_0, # of connection points: 6
#     Node 27, Type 1, BuildingBlock: JUFBIX_clean_sbu_0, # of connection points: 6
#     Node 28, Type 1, BuildingBlock: JUFBIX_clean_sbu_0, # of connection points: 6
#     Node 29, Type 1, BuildingBlock: JUFBIX_clean_sbu_0, # of connection points: 6
#     Node 30, Type 1, BuildingBlock: JUFBIX_clean_sbu_0, # of connection points: 6
#     Node 31, Type 1, BuildingBlock: JUFBIX_clean_sbu_0, # of connection points: 6
#     Node 32, Type 1, BuildingBlock: JUFBIX_clean_sbu_0, # of connection points: 6
#     Node 33, Type 1, BuildingBlock: JUFBIX_clean_sbu_0, # of connection points: 6
#     Node 34, Type 1, BuildingBlock: JUFBIX_clean_sbu_0, # of connection points: 6
#     Node 35, Type 1, BuildingBlock: JUFBIX_clean_sbu_0, # of connection points: 6
#     Node 36, Type 1, BuildingBlock: JUFBIX_clean_sbu_0, # of connection points: 6
#     Node 37, Type 1, BuildingBlock: JUFBIX_clean_sbu_0, # of connection points: 6
#     Node 38, Type 1, BuildingBlock: JUFBIX_clean_sbu_0, # of connection points: 6
#     Node 39, Type 1, BuildingBlock: JUFBIX_clean_sbu_0, # of connection points: 6
#     Edge 40, Type (0, 1), BuildingBlock: OJICUG_clean_linker_0, # of connection points: 2
#     Edge 41, Type (0, 1), BuildingBlock: OJICUG_clean_linker_0, # of connection points: 2
#     Edge 42, Type (0, 1), BuildingBlock: OJICUG_clean_linker_0, # of connection points: 2
#     Edge 43, Type (0, 1), BuildingBlock: OJICUG_clean_linker_0, # of connection points: 2
#     Edge 44, Type (0, 1), BuildingBlock: OJICUG_clean_linker_0, # of connection points: 2
#     Edge 45, Type (0, 1), BuildingBlock: OJICUG_clean_linker_0, # of connection points: 2
#     Edge 46, Type (0, 1), BuildingBlock: OJICUG_clean_linker_0, # of connection points: 2
#     Edge 47, Type (0, 1), BuildingBlock: OJICUG_clean_linker_0, # of connection points: 2
#     Edge 48, Type (0, 1), BuildingBlock: OJICUG_clean_linker_0, # of connection points: 2
#     Edge 49, Type (0, 1), BuildingBlock: OJICUG_clean_linker_0, # of connection points: 2
#     Edge 50, Type (0, 1), BuildingBlock: OJICUG_clean_linker_0, # of connection points: 2
#     Edge 51, Type (0, 1), BuildingBlock: OJICUG_clean_linker_0, # of connection points: 2
#     Edge 52, Type (0, 1), BuildingBlock: OJICUG_clean_linker_0, # of connection points: 2
#     Edge 53, Type (0, 1), BuildingBlock: OJICUG_clean_linker_0, # of connection points: 2
#     Edge 54, Type (0, 1), BuildingBlock: OJICUG_clean_linker_0, # of connection points: 2
#     Edge 55, Type (0, 1), BuildingBlock: OJICUG_clean_linker_0, # of connection points: 2
#     Edge 56, Type (0, 1), BuildingBlock: OJICUG_clean_linker_0, # of connection points: 2
#     Edge 57, Type (0, 1), BuildingBlock: OJICUG_clean_linker_0, # of connection points: 2
#     Edge 58, Type (0, 1), BuildingBlock: OJICUG_clean_linker_0, # of connection points: 2
#     Edge 59, Type (0, 1), BuildingBlock: OJICUG_clean_linker_0, # of connection points: 2
#     Edge 60, Type (0, 1), BuildingBlock: OJICUG_clean_linker_0, # of connection points: 2
#     Edge 61, Type (0, 1), BuildingBlock: OJICUG_clean_linker_0, # of connection points: 2
#     Edge 62, Type (0, 1), BuildingBlock: OJICUG_clean_linker_0, # of connection points: 2
#     Edge 63, Type (0, 1), BuildingBlock: OJICUG_clean_linker_0, # of connection points: 2
#     Edge 64, Type (0, 1), BuildingBlock: OJICUG_clean_linker_0, # of connection points: 2
#     Edge 65, Type (0, 1), BuildingBlock: OJICUG_clean_linker_0, # of connection points: 2
#     Edge 66, Type (0, 1), BuildingBlock: OJICUG_clean_linker_0, # of connection points: 2
#     Edge 67, Type (0, 1), BuildingBlock: OJICUG_clean_linker_0, # of connection points: 2
#     Edge 68, Type (0, 1), BuildingBlock: OJICUG_clean_linker_0, # of connection points: 2
#     Edge 69, Type (0, 1), BuildingBlock: OJICUG_clean_linker_0, # of connection points: 2
#     Edge 70, Type (0, 1), BuildingBlock: OJICUG_clean_linker_0, # of connection points: 2
#     Edge 71, Type (0, 1), BuildingBlock: OJICUG_clean_linker_0, # of connection points: 2
#     Edge 72, Type (0, 1), BuildingBlock: OJICUG_clean_linker_0, # of connection points: 2
#     Edge 73, Type (0, 1), BuildingBlock: OJICUG_clean_linker_0, # of connection points: 2
#     Edge 74, Type (0, 1), BuildingBlock: OJICUG_clean_linker_0, # of connection points: 2
#     Edge 75, Type (0, 1), BuildingBlock: OJICUG_clean_linker_0, # of connection points: 2
#     Edge 76, Type (0, 1), BuildingBlock: OJICUG_clean_linker_0, # of connection points: 2
#     Edge 77, Type (0, 1), BuildingBlock: OJICUG_clean_linker_0, # of connection points: 2
#     Edge 78, Type (0, 1), BuildingBlock: OJICUG_clean_linker_0, # of connection points: 2
#     Edge 79, Type (0, 1), BuildingBlock: OJICUG_clean_linker_0, # of connection points: 2
#     Edge 80, Type (0, 1), BuildingBlock: OJICUG_clean_linker_0, # of connection points: 2
#     Edge 81, Type (0, 1), BuildingBlock: OJICUG_clean_linker_0, # of connection points: 2
#     Edge 82, Type (0, 1), BuildingBlock: OJICUG_clean_linker_0, # of connection points: 2
#     Edge 83, Type (0, 1), BuildingBlock: OJICUG_clean_linker_0, # of connection points: 2
#     Edge 84, Type (0, 1), BuildingBlock: OJICUG_clean_linker_0, # of connection points: 2
#     Edge 85, Type (0, 1), BuildingBlock: OJICUG_clean_linker_0, # of connection points: 2
#     Edge 86, Type (0, 1), BuildingBlock: OJICUG_clean_linker_0, # of connection points: 2
#     Edge 87, Type (0, 1), BuildingBlock: OJICUG_clean_linker_0, # of connection points: 2
#     Edge 88, Type (0, 1), BuildingBlock: OJICUG_clean_linker_0, # of connection points: 2
#     Edge 89, Type (0, 1), BuildingBlock: OJICUG_clean_linker_0, # of connection points: 2
#     Edge 90, Type (0, 1), BuildingBlock: OJICUG_clean_linker_0, # of connection points: 2
#     Edge 91, Type (0, 1), BuildingBlock: OJICUG_clean_linker_0, # of connection points: 2
#     Edge 92, Type (0, 1), BuildingBlock: OJICUG_clean_linker_0, # of connection points: 2
#     Edge 93, Type (0, 1), BuildingBlock: OJICUG_clean_linker_0, # of connection points: 2
#     Edge 94, Type (0, 1), BuildingBlock: OJICUG_clean_linker_0, # of connection points: 2
#     Edge 95, Type (0, 1), BuildingBlock: OJICUG_clean_linker_0, # of connection points: 2
#     Edge 96, Type (0, 1), BuildingBlock: OJICUG_clean_linker_0, # of connection points: 2
#     Edge 97, Type (0, 1), BuildingBlock: OJICUG_clean_linker_0, # of connection points: 2
#     Edge 98, Type (0, 1), BuildingBlock: OJICUG_clean_linker_0, # of connection points: 2
#     Edge 99, Type (0, 1), BuildingBlock: OJICUG_clean_linker_0, # of connection points: 2
#     Edge 100, Type (0, 1), BuildingBlock: OJICUG_clean_linker_0, # of connection points: 2
#     Edge 101, Type (0, 1), BuildingBlock: OJICUG_clean_linker_0, # of connection points: 2
#     Edge 102, Type (0, 1), BuildingBlock: OJICUG_clean_linker_0, # of connection points: 2
#     Edge 103, Type (0, 1), BuildingBlock: OJICUG_clean_linker_0, # of connection points: 2
#     Edge 104, Type (0, 1), BuildingBlock: OJICUG_clean_linker_0, # of connection points: 2
#     Edge 105, Type (0, 1), BuildingBlock: OJICUG_clean_linker_0, # of connection points: 2
#     Edge 106, Type (0, 1), BuildingBlock: OJICUG_clean_linker_0, # of connection points: 2
#     Edge 107, Type (0, 1), BuildingBlock: OJICUG_clean_linker_0, # of connection points: 2
#     Edge 108, Type (0, 1), BuildingBlock: OJICUG_clean_linker_0, # of connection points: 2
#     Edge 109, Type (0, 1), BuildingBlock: OJICUG_clean_linker_0, # of connection points: 2
#     Edge 110, Type (0, 1), BuildingBlock: OJICUG_clean_linker_0, # of connection points: 2
#     Edge 111, Type (0, 1), BuildingBlock: OJICUG_clean_linker_0, # of connection points: 2
#     Edge 112, Type (0, 1), BuildingBlock: OJICUG_clean_linker_0, # of connection points: 2
#     Edge 113, Type (0, 1), BuildingBlock: OJICUG_clean_linker_0, # of connection points: 2
#     Edge 114, Type (0, 1), BuildingBlock: OJICUG_clean_linker_0, # of connection points: 2
#     Edge 115, Type (0, 1), BuildingBlock: OJICUG_clean_linker_0, # of connection points: 2
#     Edge 116, Type (0, 1), BuildingBlock: OJICUG_clean_linker_0, # of connection points: 2
#     Edge 117, Type (0, 1), BuildingBlock: OJICUG_clean_linker_0, # of connection points: 2
#     Edge 118, Type (0, 1), BuildingBlock: OJICUG_clean_linker_0, # of connection points: 2
#     Edge 119, Type (0, 1), BuildingBlock: OJICUG_clean_linker_0, # of connection points: 2
#     Edge 120, Type (0, 1), BuildingBlock: OJICUG_clean_linker_0, # of connection points: 2
#     Edge 121, Type (0, 1), BuildingBlock: OJICUG_clean_linker_0, # of connection points: 2
#     Edge 122, Type (0, 1), BuildingBlock: OJICUG_clean_linker_0, # of connection points: 2
#     Edge 123, Type (0, 1), BuildingBlock: OJICUG_clean_linker_0, # of connection points: 2
#     Edge 124, Type (0, 1), BuildingBlock: OJICUG_clean_linker_0, # of connection points: 2
#     Edge 125, Type (0, 1), BuildingBlock: OJICUG_clean_linker_0, # of connection points: 2
#     Edge 126, Type (0, 1), BuildingBlock: OJICUG_clean_linker_0, # of connection points: 2
#     Edge 127, Type (0, 1), BuildingBlock: OJICUG_clean_linker_0, # of connection points: 2
#     Edge 128, Type (0, 1), BuildingBlock: OJICUG_clean_linker_0, # of connection points: 2
#     Edge 129, Type (0, 1), BuildingBlock: OJICUG_clean_linker_0, # of connection points: 2
#     Edge 130, Type (0, 1), BuildingBlock: OJICUG_clean_linker_0, # of connection points: 2
#     Edge 131, Type (0, 1), BuildingBlock: OJICUG_clean_linker_0, # of connection points: 2
#     Edge 132, Type (0, 1), BuildingBlock: OJICUG_clean_linker_0, # of connection points: 2
#     Edge 133, Type (0, 1), BuildingBlock: OJICUG_clean_linker_0, # of connection points: 2
#     Edge 134, Type (0, 1), BuildingBlock: OJICUG_clean_linker_0, # of connection points: 2
#     Edge 135, Type (0, 1), BuildingBlock: OJICUG_clean_linker_0, # of connection points: 2
# Relax obj value: 0.283
# Max RMSD: 0.244
# Mean RMSD: 0.156
data_MOF--net-iac--node1-GALJAG_clean_sbu_0--node2-JUFBIX_clean_sbu_0--edge1-OJICUG_clean_linker_0
_symmetry_space_group_name_H-M    P1
_symmetry_Int_Tables_number       1
_symmetry_cell_setting            triclinic
loop_
_symmetry_equiv_pos_as_xyz
'x, y, z'
_cell_length_a     39.992689
_cell_length_b     41.21316
_cell_length_c     40.884504
_cell_angle_alpha  89.125081
_cell_angle_beta   87.834327
_cell_angle_gamma 88.320621
loop_
_atom_site_label
_atom_site_type_symbol
_atom_site_fract_x
_atom_site_fract_y
_atom_site_fract_z
_atom_type_partial_charge
In0 In 0.04161 0.29007 0.16353 0.0
O1 O 0.04118 0.25569 0.11665 0.0
O2 O 0.04573 0.23244 0.16205 0.0
C3 C 0.04049 0.3491 0.12632 0.0
C4 C 0.98134 0.29562 0.20065 0.0
C5 C 0.09953 0.2902 0.20083 0.0
O6 O 0.01737 0.3288 0.12651 0.0
O7 O 0.0644 0.3392 0.14344 0.0
O8 O 0.0994 0.29499 0.17018 0.0
O9 O 0.07065 0.28436 0.21293 0.0
C10 C 0.04301 0.2286 0.1317 0.0
O11 O 0.98686 0.27613 0.17752 0.0
O12 O 1.00636 0.31258 0.20583 0.0
In13 In 0.07223 0.77358 0.42893 0.0
O14 O 0.107 0.77222 0.38461 0.0
O15 O 0.12389 0.79591 0.42661 0.0
C16 C 0.02914 0.79632 0.38552 0.0
C17 C 0.08151 0.71196 0.44849 0.0
C18 C 0.04016 0.80166 0.48022 0.0
O19 O 0.04656 0.81495 0.4017 0.0
O20 O 0.03389 0.7663 0.39105 0.0
O21 O 0.02706 0.78024 0.46357 0.0
O22 O 0.07004 0.80798 0.4717 0.0
C23 C 0.12977 0.78765 0.39729 0.0
O24 O 0.09428 0.73526 0.4627 0.0
O25 O 0.06438 0.7198 0.4242 0.0
In26 In 0.54163 0.7914 0.66362 0.0
O27 O 0.532 0.826 0.61716 0.0
O28 O 0.54939 0.84784 0.65886 0.0
C29 C 0.54313 0.72905 0.63397 0.0
C30 C 0.60076 0.7913 0.69895 0.0
C31 C 0.47917 0.79579 0.69661 0.0
O32 O 0.54587 0.75556 0.61803 0.0
O33 O 0.54117 0.73377 0.66445 0.0
O34 O 0.50592 0.80418 0.70906 0.0
O35 O 0.48378 0.78546 0.66791 0.0
C36 C 0.54015 0.85229 0.62995 0.0
O37 O 0.57266 0.78312 0.71113 0.0
O38 O 0.59957 0.79831 0.66872 0.0
In39 In 0.58379 0.2711 0.91781 0.0
O40 O 0.62157 0.2703 0.87487 0.0
O41 O 0.63644 0.29078 0.91919 0.0
C42 C 0.53924 0.29178 0.8743 0.0
C43 C 0.58954 0.21003 0.94117 0.0
C44 C 0.55324 0.30259 0.9681 0.0
O45 O 0.55732 0.31109 0.88894 0.0
O46 O 0.54467 0.26204 0.88074 0.0
O47 O 0.53909 0.28091 0.95269 0.0
O48 O 0.58296 0.30805 0.95842 0.0
C49 C 0.6442 0.28367 0.88996 0.0
O50 O 0.59998 0.23408 0.95595 0.0
O51 O 0.57695 0.21663 0.91398 0.0
In52 In 0.1712 0.01366 0.32195 0.0
O53 O 0.22222 1.00135 0.29996 0.0
O54 O 0.20837 0.97894 0.34567 0.0
C55 C 0.1859 0.07229 0.34269 0.0
C56 C 0.15408 1.00218 0.26128 0.0
C57 C 0.11273 1.00171 0.35292 0.0
O58 O 0.19296 0.04693 0.35898 0.0
O59 O 0.17109 0.06785 0.31657 0.0
O60 O 0.13797 0.98291 0.35613 0.0
O61 O 0.1176 0.02626 0.33491 0.0
C62 C 0.23025 0.9821 0.32277 0.0
O63 O 0.15251 0.98051 0.28343 0.0
O64 O 0.16541 0.02892 0.26972 0.0
In65 In 0.24433 0.91251 0.56342 0.0
O66 O 0.20712 0.95448 0.56628 0.0
O67 O 0.19062 0.90991 0.54757 0.0
C68 C 0.29591 0.95164 0.55396 0.0
C69 C 0.2371 0.88984 0.6246 0.0
C70 C 0.27032 0.87235 0.51759 0.0
O71 O 0.26846 0.95684 0.54035 0.0
O72 O 0.29642 0.92799 0.57394 0.0
O73 O 0.27075 0.86484 0.54757 0.0
O74 O 0.25435 0.89828 0.511 0.0
C75 C 0.18363 0.93912 0.55463 0.0
O76 O 0.22862 0.87401 0.60018 0.0
O77 O 0.24876 0.91743 0.61808 0.0
In78 In 0.40855 0.05605 0.77988 0.0
O79 O 0.37255 0.09417 0.76188 0.0
O80 O 0.40628 0.10738 0.79832 0.0
C81 C 0.35796 0.02148 0.804 0.0
C82 C 0.43519 0.05766 0.71971 0.0
C83 C 0.45988 0.03269 0.81317 0.0
O84 O 0.37439 0.03927 0.82203 0.0
O85 O 0.36693 0.02168 0.77408 0.0
O86 O 0.44376 0.01471 0.79503 0.0
O87 O 0.44987 0.06197 0.81435 0.0
C88 C 0.3839 0.11622 0.77891 0.0
O89 O 0.44617 0.07377 0.74266 0.0
O90 O 0.41155 0.03909 0.72747 0.0
In91 In 0.28872 0.17069 0.04396 0.0
O92 O 0.3438 0.1599 0.05738 0.0
O93 O 0.3235 0.12714 0.02499 0.0
C94 C 0.23122 0.13281 0.04046 0.0
C95 C 0.2877 0.20189 0.10591 0.0
C96 C 0.2922 0.20779 0.98485 0.0
O97 O 0.23242 0.16247 0.03239 0.0
O98 O 0.25885 0.12186 0.05076 0.0
O99 O 0.31711 0.19378 0.99757 0.0
O100 O 0.26576 0.20451 1.00237 0.0
C101 C 0.34892 0.13481 0.0404 0.0
O102 O 0.29241 0.21656 0.07875 0.0
O103 O 0.28196 0.17231 0.10188 0.0
In104 In 0.76075 0.39643 0.05579 0.0
O105 O 0.73838 0.36397 0.09553 0.0
O106 O 0.76621 0.4042 0.10993 0.0
C107 C 0.79265 0.34453 0.02961 0.0
C108 C 0.70338 0.42618 0.03924 0.0
C109 C 0.80545 0.43883 0.03336 0.0
O110 O 0.80522 0.36117 0.0514 0.0
O111 O 0.76345 0.35352 0.02189 0.0
O112 O 0.78903 0.42212 0.01426 0.0
O113 O 0.79897 0.43422 0.06354 0.0
C114 C 0.74967 0.37978 0.1186 0.0
O115 O 0.72666 0.44049 0.0523 0.0
O116 O 0.7088 0.3963 0.03432 0.0
In117 In 0.91169 0.56194 0.2742 0.0
O118 O 0.94839 0.57877 0.2354 0.0
O119 O 0.91462 0.54226 0.22287 0.0
C120 C 0.96134 0.53818 0.30999 0.0
C121 C 0.88757 0.62246 0.27307 0.0
C122 C 0.85946 0.52891 0.29718 0.0
O123 O 0.94539 0.52024 0.2917 0.0
O124 O 0.95235 0.56775 0.30974 0.0
O125 O 0.8758 0.54643 0.31556 0.0
O126 O 0.86939 0.52861 0.26755 0.0
C127 C 0.93747 0.56109 0.2136 0.0
O128 O 0.87547 0.60026 0.25679 0.0
O129 O 0.91092 0.61376 0.29143 0.0
In130 In 0.78904 0.67092 0.54526 0.0
O131 O 0.82394 0.62811 0.52463 0.0
O132 O 0.84356 0.65847 0.55965 0.0
C133 C 0.73169 0.63274 0.54308 0.0
C134 C 0.78799 0.7027 0.60679 0.0
C135 C 0.79158 0.70857 0.48642 0.0
O136 O 0.73248 0.66247 0.53521 0.0
O137 O 0.7597 0.62183 0.55247 0.0
O138 O 0.76496 0.70253 0.50271 0.0
O139 O 0.8171 0.69695 0.5002 0.0
C140 C 0.84893 0.63441 0.5413 0.0
O141 O 0.79301 0.71709 0.57954 0.0
O142 O 0.78199 0.67314 0.60303 0.0
In143 In 0.66067 0.51273 0.82476 0.0
O144 O 0.7144 0.501 0.81088 0.0
O145 O 0.69538 0.481 0.85585 0.0
C146 C 0.67424 0.57396 0.83757 0.0
C147 C 0.64676 0.49364 0.76487 0.0
C148 C 0.60154 0.50489 0.85597 0.0
O149 O 0.67736 0.55159 0.85879 0.0
O150 O 0.66299 0.56542 0.81071 0.0
O151 O 0.60809 0.52965 0.83869 0.0
O152 O 0.62519 0.484 0.85788 0.0
C153 C 0.72017 0.48416 0.83608 0.0
O154 O 0.64059 0.47628 0.78992 0.0
O155 O 0.66073 0.51996 0.77012 0.0
In156 In 0.0328 0.79381 0.91928 0.0
O157 O 0.0685 0.78218 0.87365 0.0
O158 O 0.09091 0.79708 0.91635 0.0
C159 C 0.97316 0.79634 0.88488 0.0
C160 C 0.03109 0.73236 0.95175 0.0
C161 C 0.03507 0.85611 0.94837 0.0
O162 O 1.00145 0.80323 0.87223 0.0
O163 O 0.97448 0.78936 0.91509 0.0
O164 O 0.0328 0.82976 0.96465 0.0
O165 O 0.03458 0.85129 0.91795 0.0
C166 C 0.09542 0.78858 0.88701 0.0
O167 O 0.03626 0.75865 0.9662 0.0
O168 O 0.02668 0.73703 0.92163 0.0
In169 In 0.0326 0.29763 0.63695 0.0
O170 O 0.01155 0.33665 0.60354 0.0
O171 O 0.04931 0.34981 0.63575 0.0
C172 C 0.03045 0.25449 0.58871 0.0
C173 C 0.08655 0.2738 0.66567 0.0
C174 C 0.98695 0.30826 0.68533 0.0
O175 O 0.05267 0.2755 0.58957 0.0
O176 O 0.00881 0.25547 0.61208 0.0
O177 O 0.01761 0.30466 0.69055 0.0
O178 O 0.97899 0.304 0.65614 0.0
C179 C 0.02855 0.35888 0.61478 0.0
O180 O 0.05827 0.26109 0.66977 0.0
O181 O 0.08759 0.29812 0.64639 0.0
In182 In 0.53238 0.29573 0.42003 0.0
O183 O 0.59026 0.30151 0.4169 0.0
O184 O 0.56897 0.28299 0.3752 0.0
C185 C 0.47323 0.29838 0.38464 0.0
C186 C 0.53005 0.23471 0.45355 0.0
C187 C 0.53423 0.35776 0.44955 0.0
O188 O 0.50172 0.30517 0.37241 0.0
O189 O 0.47411 0.29146 0.41489 0.0
O190 O 0.53299 0.33122 0.46561 0.0
O191 O 0.5327 0.35326 0.41914 0.0
C192 C 0.5954 0.29163 0.38811 0.0
O193 O 0.53494 0.26128 0.46758 0.0
O194 O 0.5264 0.23883 0.42324 0.0
In195 In 0.53104 0.79906 0.13422 0.0
O196 O 0.55917 0.77726 0.08986 0.0
O197 O 0.51196 0.75818 0.10474 0.0
C198 C 0.52448 0.86152 0.11567 0.0
C199 C 0.47851 0.7968 0.17646 0.0
C200 C 0.58421 0.78235 0.168 0.0
O201 O 0.51601 0.83859 0.09798 0.0
O202 O 0.53785 0.85287 0.14189 0.0
O203 O 0.58144 0.80946 0.15329 0.0
O204 O 0.5607 0.76308 0.16444 0.0
C205 C 0.53714 0.75668 0.08521 0.0
O206 O 0.50809 0.79341 0.18551 0.0
O207 O 0.47542 0.79977 0.14599 0.0
In208 In 0.90938 0.08317 0.7546 0.0
O209 O 0.95345 0.08334 0.71822 0.0
O210 O 0.90392 0.08021 0.70061 0.0
C211 C 0.94122 0.08051 0.81058 0.0
C212 C 0.88661 0.14422 0.75322 0.0
C213 C 0.87717 0.02763 0.75687 0.0
O214 O 0.95494 0.07057 0.78416 0.0
O215 O 0.9114 0.0909 0.80881 0.0
O216 O 0.86286 0.05376 0.76635 0.0
O217 O 0.9074 0.02965 0.74762 0.0
C218 C 0.93502 0.08029 0.69408 0.0
O219 O 0.86684 0.12084 0.7529 0.0
O220 O 0.91735 0.13648 0.75322 0.0
In221 In 0.80344 0.19638 0.53862 0.0
O222 O 0.81619 0.14264 0.53375 0.0
O223 O 0.85622 0.17583 0.5325 0.0
C224 C 0.74816 0.16519 0.55561 0.0
C225 C 0.80788 0.24401 0.58217 0.0
C226 C 0.80702 0.22165 0.4783 0.0
O227 O 0.76934 0.17203 0.57638 0.0
O228 O 0.75456 0.17501 0.52671 0.0
O229 O 0.78025 0.22245 0.49571 0.0
O230 O 0.83215 0.20894 0.49162 0.0
C231 C 0.84709 0.14692 0.52968 0.0
O232 O 0.79122 0.24719 0.55678 0.0
O233 O 0.82355 0.21712 0.58501 0.0
In234 In 0.66618 0.02828 0.3118 0.0
O235 O 0.70626 0.99417 0.33056 0.0
O236 O 0.67209 0.97594 0.29706 0.0
C237 C 0.71569 0.06674 0.29305 0.0
C238 C 0.61984 0.04805 0.27032 0.0
C239 C 0.63352 0.02709 0.36945 0.0
O240 O 0.70402 0.04671 0.27371 0.0
O241 O 0.70243 0.06701 0.32155 0.0
O242 O 0.65803 0.0451 0.36374 0.0
O243 O 0.62467 0.01082 0.34564 0.0
C244 C 0.69643 0.97025 0.31518 0.0
O245 O 0.63118 0.06708 0.29085 0.0
O246 O 0.6318 0.01939 0.27106 0.0
In247 In 0.79577 0.91763 0.04069 0.0
O248 O 0.73791 0.92056 0.03575 0.0
O249 O 0.75995 0.96264 0.05224 0.0
C250 C 0.8556 0.95194 0.03809 0.0
C251 C 0.79686 0.88536 0.10246 0.0
C252 C 0.79387 0.88781 0.97862 0.0
O253 O 0.82751 0.96429 0.03077 0.0
O254 O 0.854 0.92206 0.04545 0.0
O255 O 0.7948 0.87212 1.0055 0.0
O256 O 0.79572 0.918 0.98279 0.0
C257 C 0.73328 0.94953 0.04459 0.0
O258 O 0.79277 0.87092 0.07582 0.0
O259 O 0.8003 0.91546 0.09803 0.0
In260 In 0.30555 0.68627 0.0282 0.0
O261 O 0.27669 0.73132 0.04573 0.0
O262 O 0.32512 0.72167 0.06422 0.0
C263 C 0.31711 0.70396 0.96557 0.0
C264 C 0.3525 0.6396 0.03472 0.0
C265 C 0.25095 0.65775 0.05224 0.0
O266 O 0.33176 0.71658 0.98875 0.0
O267 O 0.29624 0.68285 0.97405 0.0
O268 O 0.27858 0.65499 0.06606 0.0
O269 O 0.25103 0.67488 0.02635 0.0
C270 C 0.29903 0.73972 0.06457 0.0
O271 O 0.32696 0.63585 0.01822 0.0
O272 O 0.35429 0.66697 0.04795 0.0
In273 In 0.16961 0.52494 0.80746 0.0
O274 O 0.1763 0.47301 0.792 0.0
O275 O 0.21043 0.49144 0.82555 0.0
C276 C 0.21762 0.56314 0.78434 0.0
C277 C 0.12024 0.54447 0.7695 0.0
C278 C 0.13901 0.52305 0.86605 0.0
O279 O 0.20742 0.56316 0.81396 0.0
O280 O 0.20372 0.54343 0.76622 0.0
O281 O 0.13059 0.50579 0.8428 0.0
O282 O 0.16229 0.54237 0.85944 0.0
C283 C 0.20084 0.46754 0.80996 0.0
O284 O 0.13294 0.56351 0.7892 0.0
O285 O 0.13237 0.51585 0.76935 0.0
In286 In 0.29646 0.41745 0.53963 0.0
O287 O 0.29369 0.37017 0.57402 0.0
O288 O 0.30187 0.41421 0.59689 0.0
C289 C 0.2949 0.38804 0.47733 0.0
C290 C 0.23356 0.44881 0.54383 0.0
C291 C 0.35598 0.45235 0.53741 0.0
O292 O 0.2957 0.37222 0.50414 0.0
O293 O 0.29677 0.41822 0.48167 0.0
O294 O 0.32777 0.46458 0.53029 0.0
O295 O 0.35464 0.42236 0.54433 0.0
C296 C 0.29834 0.38406 0.60083 0.0
O297 O 0.26005 0.4619 0.55207 0.0
O298 O 0.23858 0.42011 0.53433 0.0
In299 In 0.41578 0.57523 0.25747 0.0
O300 O 0.44847 0.5913 0.21365 0.0
O301 O 0.45255 0.54217 0.23036 0.0
C302 C 0.4563 0.57983 0.30724 0.0
C303 C 0.37185 0.62503 0.2641 0.0
C304 C 0.37254 0.52779 0.25282 0.0
O305 O 0.44179 0.55402 0.30098 0.0
O306 O 0.45065 0.60346 0.28805 0.0
O307 O 0.38093 0.54537 0.2285 0.0
O308 O 0.38556 0.53463 0.27937 0.0
C309 C 0.46224 0.5635 0.21006 0.0
O310 O 0.37858 0.60555 0.2871 0.0
O311 O 0.38741 0.61945 0.23717 0.0
Co312 Co 0.03792 0.0549 0.01523 0.0
C313 C 0.03423 0.09812 0.06984 0.0
Co314 Co 0.04855 0.03015 0.0609 0.0
C315 C 0.01452 0.06612 0.95085 0.0
C316 C 0.0378 0.10781 0.96956 0.0
N317 N 0.03011 0.07679 0.97699 0.0
N318 N 0.01188 0.08937 0.92766 0.0
C319 C 0.02619 0.11576 0.9392 0.0
H320 H 1.00425 0.04219 0.94928 0.0
H321 H 0.05058 0.12377 0.98538 0.0
C322 C 0.05164 0.98681 0.00684 0.0
N323 N 0.05676 0.00816 0.0989 0.0
C324 C 0.07915 0.01587 0.12087 0.0
C325 C 0.04376 0.98006 0.10994 0.0
N326 N 0.0809 0.99373 0.14537 0.0
C327 C 0.05851 0.97115 0.13866 0.0
C328 C 0.98068 0.02522 0.04347 0.0
O329 O 0.0461 0.01337 0.99102 0.0
O330 O 0.05601 0.98913 0.03742 0.0
O331 O 1.00147 0.01884 0.06572 0.0
O332 O 0.9905 0.04322 0.01951 0.0
O333 O 0.04095 0.0716 0.08527 0.0
H334 H 0.02516 0.96668 0.09766 0.0
H335 H 0.09437 0.03706 0.11833 0.0
O336 O 0.02949 0.09588 0.03927 0.0
O337 O 0.08497 0.06692 0.01063 0.0
O338 O 0.09619 0.04126 0.05597 0.0
C339 C 0.10598 0.0598 0.03248 0.0
H340 H 0.02784 0.13901 0.92665 0.0
H341 H 0.05292 0.94985 0.15342 0.0
Co342 Co 0.3232 0.80692 0.31778 0.0
C343 C 0.31189 0.74906 0.28861 0.0
Co344 Co 0.29549 0.81273 0.27246 0.0
C345 C 0.33244 0.82305 0.38269 0.0
C346 C 0.35934 0.77855 0.37313 0.0
N347 N 0.34184 0.80282 0.3584 0.0
N348 N 0.34281 0.81273 0.41197 0.0
C349 C 0.35966 0.78446 0.40641 0.0
H350 H 0.3151 0.8434 0.37965 0.0
H351 H 0.36901 0.75688 0.36103 0.0
C352 C 0.30732 0.87063 0.30096 0.0
N353 N 0.27638 0.81742 0.23238 0.0
C354 C 0.28934 0.80388 0.20486 0.0
C355 C 0.24959 0.83532 0.22285 0.0
N356 N 0.27226 0.8128 0.17835 0.0
C357 C 0.24681 0.83229 0.18945 0.0
C358 C 0.25286 0.8069 0.32429 0.0
O359 O 0.32282 0.85278 0.32118 0.0
O360 O 0.29295 0.85777 0.27751 0.0
O361 O 0.25341 0.80912 0.29332 0.0
O362 O 0.28019 0.806 0.3391 0.0
O363 O 0.29846 0.76718 0.26713 0.0
H364 H 0.23346 0.84989 0.23902 0.0
H365 H 0.31093 0.7874 0.20437 0.0
O366 O 0.32338 0.7616 0.31385 0.0
O367 O 0.36604 0.80753 0.29609 0.0
O368 O 0.33736 0.81628 0.25201 0.0
C369 C 0.36525 0.81232 0.26532 0.0
H370 H 0.3699 0.76859 0.42509 0.0
H371 H 0.22792 0.84374 0.17451 0.0
Co372 Co 0.50775 0.03807 0.52991 0.0
C373 C 0.52711 0.10358 0.51769 0.0
Co374 Co 0.5524 0.0497 0.55586 0.0
C375 C 0.44423 0.01239 0.52649 0.0
C376 C 0.45662 0.03655 0.4812 0.0
N377 N 0.46879 0.02842 0.51061 0.0
N378 N 0.41699 0.01013 0.50855 0.0
C379 C 0.42447 0.02535 0.47989 0.0
H380 H 0.44588 1.00371 0.5515 0.0
H381 H 0.46991 0.0503 0.46235 0.0
C382 C 0.53371 0.9842 0.56785 0.0
N383 N 0.59062 0.05916 0.57616 0.0
C384 C 0.6149 0.07738 0.56288 0.0
C385 C 0.60037 0.0515 0.60661 0.0
N386 N 0.63958 0.0817 0.58366 0.0
C387 C 0.63064 0.06551 0.61137 0.0
C388 C 0.49629 0.06158 0.59249 0.0
O389 O 0.51068 0.99307 0.54851 0.0
O390 O 0.55511 1.00531 0.57437 0.0
O391 O 0.52777 0.06309 0.59251 0.0
O392 O 0.48243 0.05175 0.56732 0.0
O393 O 0.54962 0.09452 0.53749 0.0
H394 H 0.58615 0.03717 0.62429 0.0
H395 H 0.61384 0.08814 0.53863 0.0
O396 O 0.50539 0.08274 0.51097 0.0
O397 O 0.53251 0.02451 0.49307 0.0
O398 O 0.57772 0.03634 0.51864 0.0
C399 C 0.56405 0.02642 0.49332 0.0
H400 H 0.40796 0.02831 0.45962 0.0
H401 H 0.6448 0.06401 0.6334 0.0
Co402 Co 0.32348 0.30671 0.79731 0.0
C403 C 0.30217 0.31971 0.73224 0.0
Co404 Co 0.27697 0.28269 0.78727 0.0
C405 C 0.39025 0.31158 0.81731 0.0
C406 C 0.3721 0.35719 0.79843 0.0
N407 N 0.36285 0.32658 0.80546 0.0
N408 N 0.41652 0.33128 0.81754 0.0
C409 C 0.40518 0.36021 0.80601 0.0
H410 H 0.39091 0.28645 0.82537 0.0
H411 H 0.35613 0.37577 0.78767 0.0
C412 C 0.29781 0.27002 0.85237 0.0
N413 N 0.23842 0.26207 0.77852 0.0
C414 C 0.21559 0.27272 0.75734 0.0
C415 C 0.22916 0.23187 0.7874 0.0
N416 N 0.19291 0.25018 0.75181 0.0
C417 C 0.20094 0.22449 0.771 0.0
C418 C 0.33273 0.24537 0.77339 0.0
O419 O 0.32226 0.28727 0.8421 0.0
O420 O 0.27457 0.26546 0.83249 0.0
O421 O 0.30113 0.24613 0.77397 0.0
O422 O 0.34817 0.27002 0.78199 0.0
O423 O 0.27954 0.30018 0.74186 0.0
H424 H 0.24299 0.2157 0.8034 0.0
H425 H 0.21619 0.29634 0.74544 0.0
O426 O 0.32438 0.32618 0.75266 0.0
O427 O 0.29873 0.34303 0.81257 0.0
O428 O 0.2524 0.31941 0.80041 0.0
C429 C 0.26711 0.3438 0.81084 0.0
H430 H 0.41995 0.38165 0.80239 0.0
H431 H 0.1884 0.20156 0.77184 0.0
Co432 Co 0.9887 1.00381 0.51406 0.0
C433 C 0.98829 0.04049 0.56924 0.0
Co434 Co 0.01573 0.04941 0.50726 0.0
C435 C 0.98737 0.93587 0.5156 0.0
C436 C 0.94119 0.95483 0.53638 0.0
N437 N 0.97016 0.9638 0.52122 0.0
N438 N 0.97114 0.90994 0.52738 0.0
C439 C 0.94161 0.92134 0.53997 0.0
H440 H 0.01201 0.93451 0.50368 0.0
H441 H 0.92177 0.97156 0.54545 0.0
C442 C 0.01567 0.01276 0.45194 0.0
N443 N 0.03406 0.08964 0.50101 0.0
C444 C 0.02169 0.11684 0.51532 0.0
C445 C 0.06154 0.09891 0.48365 0.0
N446 N 0.04039 0.14284 0.50822 0.0
C447 C 0.0656 0.13168 0.48815 0.0
C448 C 0.05786 1.00176 0.5263 0.0
O449 O 0.99966 0.99285 0.47006 0.0
O450 O 0.02454 0.0395 0.4634 0.0
O451 O 0.05722 0.03147 0.51798 0.0
O452 O 0.03105 0.98602 0.52664 0.0
O453 O 1.00654 0.05899 0.55176 0.0
H454 H 0.07794 0.08279 0.46936 0.0
H455 H 1.00001 0.11709 0.53196 0.0
O456 O 0.97794 0.01457 0.55741 0.0
O457 O 0.94677 0.02248 0.50217 0.0
O458 O 0.97457 0.06744 0.49668 0.0
C459 C 0.9472 0.05284 0.49619 0.0
H460 H 0.92255 0.90675 0.55193 0.0
H461 H 0.08594 0.14587 0.47802 0.0
Co462 Co 0.29181 0.81518 0.80508 0.0
C463 C 0.22795 0.78794 0.81962 0.0
Co464 Co 0.28274 0.77061 0.77891 0.0
C465 C 0.30175 0.8821 0.81624 0.0
C466 C 0.29009 0.85654 0.86092 0.0
N467 N 0.29587 0.85234 0.82846 0.0
N468 N 0.29953 0.90483 0.83957 0.0
C469 C 0.29267 0.88892 0.8679 0.0
H470 H 0.30768 0.88699 0.79061 0.0
H471 H 0.28368 0.83741 0.87824 0.0
C472 C 0.34664 0.79772 0.76434 0.0
N473 N 0.27852 0.73333 0.75588 0.0
C474 C 0.27158 0.70411 0.76883 0.0
C475 C 0.28519 0.72805 0.72374 0.0
N476 N 0.27417 0.68061 0.74635 0.0
C477 C 0.28222 0.69547 0.71772 0.0
C478 C 0.26222 0.82516 0.74555 0.0
O479 O 0.33649 0.81952 0.78455 0.0
O480 O 0.32709 0.77474 0.75886 0.0
O481 O 0.2645 0.79451 0.74443 0.0
O482 O 0.27281 0.83953 0.77018 0.0
O483 O 0.23793 0.76658 0.79892 0.0
H484 H 0.2926 0.74652 0.70605 0.0
H485 H 0.2648 0.70015 0.79444 0.0
O486 O 0.24764 0.81065 0.82561 0.0
O487 O 0.31054 0.79126 0.83933 0.0
O488 O 0.30093 0.74626 0.81417 0.0
C489 C 0.31174 0.76058 0.83869 0.0
H490 H 0.2893 0.89995 0.8917 0.0
H491 H 0.28633 0.68357 0.69443 0.0
Co492 Co 0.53698 0.0294 0.01594 0.0
C493 C 0.60126 0.01598 0.04233 0.0
Co494 Co 0.54539 0.0535 0.06197 0.0
C495 C 0.52572 0.01992 0.94848 0.0
C496 C 0.54021 0.97551 0.97243 0.0
N497 N 0.53332 0.00732 0.97779 0.0
N498 N 0.52776 0.9974 0.92493 0.0
C499 C 0.53645 0.96925 0.93983 0.0
H500 H 0.51837 0.04514 0.94459 0.0
H501 H 0.54784 0.9581 0.99097 0.0
C502 C 0.48091 0.06698 0.03613 0.0
N503 N 0.5494 0.07489 0.10045 0.0
C504 C 0.55931 0.06146 0.12868 0.0
C505 C 0.54104 0.10603 0.1076 0.0
N506 N 0.55717 0.0827 0.15339 0.0
C507 C 0.54605 0.11099 0.14029 0.0
C508 C 0.56412 0.08974 0.00762 0.0
O509 O 0.49173 0.04881 0.01275 0.0
O510 O 0.50022 0.07134 0.05965 0.0
O511 O 0.56173 0.0899 0.03864 0.0
O512 O 0.5549 0.06511 0.99251 0.0
O513 O 0.59086 0.03574 0.06437 0.0
H514 H 0.53141 0.12376 0.0903 0.0
H515 H 0.56814 0.03648 0.13096 0.0
O516 O 0.58171 0.01004 0.01942 0.0
O517 O 0.51933 0.99418 0.03872 0.0
O518 O 0.52935 0.01627 0.08543 0.0
C519 C 0.5192 0.99245 0.06959 0.0
H520 H 0.53997 0.94601 0.928 0.0
H521 H 0.5414 0.13336 0.15344 0.0
Co522 Co 0.28127 0.27298 0.30516 0.0
C523 C 0.34934 0.2923 0.30951 0.0
Co524 Co 0.29226 0.3179 0.2792 0.0
C525 C 0.25298 0.21223 0.32459 0.0
C526 C 0.28695 0.22937 0.35916 0.0
N527 N 0.27425 0.2361 0.3296 0.0
N528 N 0.25162 0.19102 0.35003 0.0
C529 C 0.27315 0.20157 0.37175 0.0
H530 H 0.23861 0.2107 0.3028 0.0
H531 H 0.30424 0.24438 0.37134 0.0
C532 C 0.22401 0.29857 0.27495 0.0
N533 N 0.29861 0.35536 0.25557 0.0
C534 C 0.31265 0.38263 0.26521 0.0
C535 C 0.28731 0.36233 0.22551 0.0
N536 N 0.31029 0.40656 0.2425 0.0
C537 C 0.29454 0.39385 0.21735 0.0
C538 C 0.29655 0.26268 0.23725 0.0
O539 O 0.23358 0.27576 0.29419 0.0
O540 O 0.24504 0.32039 0.26748 0.0
O541 O 0.30126 0.29309 0.23895 0.0
O542 O 0.28949 0.24764 0.2642 0.0
O543 O 0.33977 0.31555 0.29072 0.0
H544 H 0.27387 0.34582 0.21084 0.0
H545 H 0.32425 0.38482 0.28853 0.0
O546 O 0.32849 0.27015 0.31629 0.0
O547 O 0.27311 0.29771 0.34549 0.0
O548 O 0.28356 0.34315 0.32003 0.0
C549 C 0.27761 0.32809 0.3471 0.0
H550 H 0.2779 0.19056 0.39538 0.0
H551 H 0.28795 0.40661 0.19507 0.0
Co552 Co 0.50757 0.49937 0.03018 0.0
C553 C 0.52217 0.53024 0.08729 0.0
Co554 Co 0.53413 0.54513 0.02247 0.0
C555 C 0.50143 0.43267 0.02166 0.0
C556 C 0.4669 0.44798 0.05988 0.0
N557 N 0.48915 0.45924 0.03706 0.0
N558 N 0.48861 0.40528 0.03417 0.0
C559 C 0.46659 0.41443 0.05818 0.0
H560 H 0.52129 0.43311 1.0029 0.0
H561 H 0.45352 0.46289 0.07788 0.0
C562 C 0.51911 0.51498 0.9654 0.0
N563 N 0.5531 0.58488 0.01524 0.0
C564 C 0.54205 0.61252 0.02947 0.0
C565 C 0.57856 0.5937 0.99468 0.0
N566 N 0.55902 0.63842 0.01846 0.0
C567 C 0.58243 0.6268 0.9968 0.0
C568 C 0.57785 0.49433 0.02568 0.0
O569 O 0.5067 0.49351 0.98437 0.0
O570 O 0.53188 0.53978 0.97733 0.0
O571 O 0.57654 0.52486 0.02163 0.0
O572 O 0.55093 0.47915 0.03032 0.0
O573 O 0.53593 0.55063 0.06794 0.0
H574 H 0.593 0.57725 0.97893 0.0
H575 H 0.52194 0.61358 0.04792 0.0
O576 O 0.50875 0.5055 0.07579 0.0
O577 O 0.46444 0.52003 0.03029 0.0
O578 O 0.49187 0.56519 0.02362 0.0
C579 C 0.46449 0.55081 0.02796 0.0
H580 H 0.45312 0.39808 0.07454 0.0
H581 H 0.60054 0.6412 0.98317 0.0
Co582 Co 0.79208 0.32224 0.30693 0.0
C583 C 0.72824 0.29425 0.32127 0.0
Co584 Co 0.78555 0.2747 0.28548 0.0
C585 C 0.80108 0.39028 0.31338 0.0
C586 C 0.78533 0.36808 0.35876 0.0
N587 N 0.79397 0.36146 0.32725 0.0
N588 N 0.79703 0.41467 0.33485 0.0
C589 C 0.78751 0.40088 0.3636 0.0
H590 H 0.80929 0.39326 0.288 0.0
H591 H 0.77734 0.35029 0.37691 0.0
C592 C 0.84956 0.30192 0.27092 0.0
N593 N 0.78355 0.23551 0.26538 0.0
C594 C 0.77505 0.20716 0.2794 0.0
C595 C 0.79295 0.22829 0.2342 0.0
N596 N 0.77899 0.18237 0.25839 0.0
C597 C 0.78993 0.1955 0.22975 0.0
C598 C 0.76636 0.32597 0.24584 0.0
O599 O 0.83816 0.32573 0.28814 0.0
O600 O 0.83066 0.27799 0.26766 0.0
O601 O 0.76906 0.29531 0.24783 0.0
O602 O 0.77521 0.3429 0.26943 0.0
O603 O 0.73991 0.27123 0.30333 0.0
H604 H 0.80193 0.24566 0.21607 0.0
H605 H 0.76583 0.20486 0.30454 0.0
O606 O 0.74674 0.31838 0.32548 0.0
O607 O 0.80835 0.30213 0.34412 0.0
O608 O 0.80168 0.25395 0.32399 0.0
C609 C 0.80955 0.27163 0.34745 0.0
H610 H 0.78221 0.41362 0.38625 0.0
H611 H 0.79563 0.18235 0.20742 0.0
Co612 Co 0.03634 0.52778 0.5161 0.0
C613 C 0.10085 0.51426 0.54207 0.0
Co614 Co 0.04482 0.55134 0.56246 0.0
C615 C 0.02386 0.52071 0.44871 0.0
C616 C 0.03941 0.47545 0.47032 0.0
N617 N 0.03237 0.50691 0.47724 0.0
N618 N 0.02553 0.49934 0.4241 0.0
C619 C 0.03491 0.47064 0.43753 0.0
H620 H 0.01622 0.54602 0.44612 0.0
H621 H 0.04768 0.45732 0.48789 0.0
C622 C 0.98021 0.56508 0.53703 0.0
N623 N 0.04863 0.57214 0.60129 0.0
C624 C 0.05805 0.55851 0.6296 0.0
C625 C 0.04012 0.60322 0.60855 0.0
N626 N 0.05546 0.5796 0.65443 0.0
C627 C 0.04456 0.60797 0.64135 0.0
C628 C 0.06329 0.58838 0.50907 0.0
O629 O 0.99095 0.54712 0.51348 0.0
O630 O 0.99959 0.56915 0.56053 0.0
O631 O 0.06098 0.58799 0.54005 0.0
O632 O 0.05397 0.56411 0.49348 0.0
O633 O 0.09033 0.53362 0.56446 0.0
H634 H 0.03073 0.62106 0.59124 0.0
H635 H 0.06687 0.53352 0.63185 0.0
O636 O 0.08131 0.50855 0.51904 0.0
O637 O 0.01908 0.49182 0.53826 0.0
O638 O 0.02912 0.51383 0.5851 0.0
C639 C 0.01937 0.48992 0.56915 0.0
H640 H 0.03855 0.44804 0.42455 0.0
H641 H 0.03974 0.63027 0.65458 0.0
Co642 Co 0.82007 0.81076 0.30007 0.0
C643 C 0.79873 0.82345 0.23508 0.0
Co644 Co 0.77431 0.78581 0.29005 0.0
C645 C 0.88643 0.81653 0.31981 0.0
C646 C 0.86733 0.86223 0.30206 0.0
N647 N 0.8589 0.83117 0.30805 0.0
N648 N 0.91198 0.83691 0.32108 0.0
C649 C 0.90011 0.86591 0.31032 0.0
H650 H 0.88763 0.79127 0.32745 0.0
H651 H 0.85089 0.88078 0.29192 0.0
C652 C 0.79548 0.77301 0.35492 0.0
N653 N 0.73569 0.76553 0.28162 0.0
C654 C 0.71183 0.77842 0.26287 0.0
C655 C 0.7254 0.73555 0.28992 0.0
N656 N 0.68698 0.75782 0.2586 0.0
C657 C 0.6953 0.73066 0.27562 0.0
C658 C 0.83023 0.74952 0.27538 0.0
O659 O 0.81948 0.79087 0.34474 0.0
O660 O 0.77228 0.76822 0.33508 0.0
O661 O 0.79862 0.74945 0.27636 0.0
O662 O 0.84512 0.77447 0.28413 0.0
O663 O 0.77652 0.80344 0.24463 0.0
H664 H 0.73926 0.71818 0.30463 0.0
H665 H 0.71353 0.80217 0.25143 0.0
O666 O 0.82053 0.83055 0.25565 0.0
O667 O 0.79521 0.84665 0.31592 0.0
O668 O 0.74941 0.82247 0.30365 0.0
C669 C 0.76364 0.84698 0.31434 0.0
H670 H 0.91424 0.88788 0.30802 0.0
H671 H 0.68103 0.70875 0.27725 0.0
Co672 Co 0.84124 0.32463 0.82678 0.0
C673 C 0.84055 0.27186 0.7869 0.0
Co674 Co 0.81474 0.33412 0.78107 0.0
C675 C 0.84321 0.3163 0.89519 0.0
C676 C 0.88989 0.30025 0.87307 0.0
N677 N 0.86006 0.31457 0.86624 0.0
N678 N 0.86059 0.30291 0.91962 0.0
C679 C 0.89043 0.29332 0.90628 0.0
H680 H 0.81822 0.32686 0.89841 0.0
H681 H 0.9094 0.29414 0.85497 0.0
C682 C 0.81619 0.38693 0.82132 0.0
N683 N 0.79672 0.34346 0.74079 0.0
C684 C 0.78698 0.32093 0.71995 0.0
C685 C 0.80232 0.37005 0.72188 0.0
N686 N 0.78884 0.33134 0.68861 0.0
C687 C 0.79759 0.36258 0.68967 0.0
C688 C 0.77152 0.31371 0.82838 0.0
O689 O 0.83197 0.36783 0.84032 0.0
O690 O 0.80676 0.37695 0.79403 0.0
O691 O 0.7728 0.32295 0.79866 0.0
O692 O 0.79815 0.31248 0.84442 0.0
O693 O 0.82353 0.29049 0.76868 0.0
H694 H 0.81364 0.39182 0.73021 0.0
H695 H 0.78288 0.29589 0.72695 0.0
O696 O 0.85044 0.28207 0.81378 0.0
O697 O 0.88363 0.33614 0.80809 0.0
O698 O 0.85635 0.34491 0.76321 0.0
C699 C 0.88372 0.3435 0.77778 0.0
H700 H 0.91048 0.28137 0.91933 0.0
H701 H 0.80455 0.37741 0.66855 0.0
Co702 Co 0.78044 0.77352 0.80573 0.0
C703 C 0.84843 0.79127 0.81121 0.0
Co704 Co 0.79211 0.81854 0.78022 0.0
C705 C 0.74872 0.71417 0.8213 0.0
C706 C 0.78416 0.7256 0.85693 0.0
N707 N 0.77153 0.73598 0.82841 0.0
N708 N 0.74629 0.69043 0.84429 0.0
C709 C 0.7688 0.6975 0.86671 0.0
H710 H 0.73376 0.71632 0.79989 0.0
H711 H 0.80286 0.73798 0.87009 0.0
C712 C 0.72413 0.80077 0.77437 0.0
N713 N 0.80011 0.85637 0.7577 0.0
C714 C 0.81299 0.88372 0.76878 0.0
C715 C 0.79324 0.86289 0.72614 0.0
N716 N 0.81459 0.90684 0.74529 0.0
C717 C 0.80254 0.89393 0.71831 0.0
C718 C 0.79645 0.76397 0.73773 0.0
O719 O 0.73314 0.77799 0.79386 0.0
O720 O 0.74544 0.82238 0.7672 0.0
O721 O 0.80164 0.79425 0.73966 0.0
O722 O 0.78873 0.74895 0.76447 0.0
O723 O 0.83915 0.8149 0.79278 0.0
H724 H 0.78209 0.8462 0.70985 0.0
H725 H 0.82169 0.88646 0.79332 0.0
O726 O 0.82736 0.76919 0.81763 0.0
O727 O 0.77229 0.79734 0.84659 0.0
O728 O 0.78287 0.843 0.82145 0.0
C729 C 0.7768 0.82773 0.8484 0.0
H730 H 0.77406 0.68349 0.88858 0.0
H731 H 0.8006 0.90613 0.69479 0.0
Co732 Co 0.53839 0.55551 0.51811 0.0
C733 C 0.53446 0.59815 0.57323 0.0
Co734 Co 0.54848 0.53041 0.56382 0.0
C735 C 0.51703 0.56866 0.45334 0.0
C736 C 0.54458 0.60762 0.47196 0.0
N737 N 0.53231 0.5783 0.48003 0.0
N738 N 0.51952 0.59063 0.42867 0.0
C739 C 0.5367 0.61531 0.44033 0.0
H740 H 0.50441 0.54587 0.45214 0.0
H741 H 0.55901 0.62213 0.48781 0.0
C742 C 0.55179 0.4878 0.50884 0.0
N743 N 0.55531 0.50686 0.60141 0.0
C744 C 0.5768 0.51233 0.62502 0.0
C745 C 0.54265 0.47754 0.6088 0.0
N746 N 0.57844 0.48737 0.64671 0.0
C747 C 0.55678 0.46551 0.63669 0.0
C748 C 0.4806 0.52627 0.54471 0.0
O749 O 0.54614 0.51445 0.4933 0.0
O750 O 0.55634 0.48988 0.5394 0.0
O751 O 0.50116 0.51942 0.56706 0.0
O752 O 0.49066 0.54473 0.52121 0.0
O753 O 0.54047 0.57151 0.58883 0.0
H754 H 0.52526 0.46509 0.59411 0.0
H755 H 0.59123 0.53408 0.62593 0.0
O756 O 0.53042 0.59609 0.54251 0.0
O757 O 0.58576 0.56641 0.51474 0.0
O758 O 0.59631 0.54125 0.56053 0.0
C759 C 0.60645 0.55948 0.53691 0.0
H760 H 0.5438 0.63696 0.42678 0.0
H761 H 0.55221 0.44209 0.64803 0.0
Co762 Co 0.01069 0.53439 0.0246 0.0
C763 C 0.03038 0.59992 0.01287 0.0
Co764 Co 0.0551 0.54597 0.0511 0.0
C765 C 0.946 0.51112 0.01657 0.0
C766 C 0.96573 0.53 0.97105 0.0
N767 N 0.97322 0.52468 1.00263 0.0
N768 N 0.92153 0.50802 0.99528 0.0
C769 C 0.93381 0.51951 0.96638 0.0
H770 H 0.94429 0.50342 0.04199 0.0
H771 H 0.98223 0.54106 0.95279 0.0
C772 C 0.03557 0.48055 0.06295 0.0
N773 N 0.09205 0.55594 0.0734 0.0
C774 C 0.11578 0.57589 0.06199 0.0
C775 C 0.10034 0.5483 0.10433 0.0
N776 N 0.13829 0.58172 0.08459 0.0
C777 C 0.1291 0.56413 0.11128 0.0
C778 C 0.9971 0.55809 0.08601 0.0
O779 O 0.01235 0.48976 0.04391 0.0
O780 O 0.05759 0.50127 0.069 0.0
O781 O 0.0286 0.55867 0.08674 0.0
O782 O 0.98341 0.5485 0.06062 0.0
O783 O 0.05236 0.59095 0.03323 0.0
H784 H 0.08589 0.53306 0.12098 0.0
H785 H 0.11632 0.58625 0.03749 0.0
O786 O 0.00924 0.57888 1.00527 0.0
O787 O 0.03776 0.52041 0.98907 0.0
O788 O 0.08228 0.53348 0.01505 0.0
C789 C 0.06923 0.5229 0.98972 0.0
H790 H 0.92051 0.52076 0.9438 0.0
H791 H 0.14156 0.56363 0.13433 0.0
C792 C 0.04388 0.16593 0.1342 0.0
C793 C 0.04071 0.1952 0.11577 0.0
H794 H 0.04437 0.11344 0.13507 0.0
C795 C 0.03444 0.19182 0.08219 0.0
H796 H 0.04859 0.16694 0.16007 0.0
C797 C 0.03162 0.16081 0.06779 0.0
C798 C 0.03498 0.13151 0.08617 0.0
H799 H 0.03164 0.2133 0.06685 0.0
H800 H 0.02713 0.15986 0.04187 0.0
C801 C 0.04123 0.13491 0.11977 0.0
C802 C 0.16218 0.79181 0.34467 0.0
C803 C 0.16084 0.79487 0.37884 0.0
H804 H 0.19237 0.79365 0.30054 0.0
C805 C 0.1895 0.8036 0.39493 0.0
H806 H 0.14026 0.78534 0.33168 0.0
C807 C 0.2195 0.80803 0.37709 0.0
C808 C 0.22098 0.80422 0.34294 0.0
H809 H 0.18897 0.80613 0.42128 0.0
H810 H 0.24156 0.81409 0.39006 0.0
C811 C 0.19194 0.79667 0.32683 0.0
C812 C 0.55605 0.91198 0.6257 0.0
C813 C 0.53881 0.8857 0.61318 0.0
H814 H 0.56856 0.96243 0.6215 0.0
C815 C 0.51987 0.89228 0.58519 0.0
H816 H 0.57091 0.90833 0.64712 0.0
C817 C 0.51792 0.92389 0.57072 0.0
C818 C 0.53545 0.9501 0.58315 0.0
H819 H 0.50603 0.87306 0.5747 0.0
H820 H 0.50277 0.92772 0.54953 0.0
C821 C 0.55472 0.94329 0.61085 0.0
C822 C 0.49158 0.28042 0.83928 0.0
C823 C 0.51078 0.30306 0.8549 0.0
H824 H 0.4468 0.27186 0.81443 0.0
C825 C 0.50027 0.3359 0.85496 0.0
H826 H 0.49926 0.255 0.83857 0.0
C827 C 0.46989 0.34554 0.84147 0.0
C828 C 0.44962 0.32246 0.82773 0.0
H829 H 0.51464 0.35388 0.86687 0.0
H830 H 0.46151 0.37068 0.84327 0.0
C831 C 0.46136 0.29004 0.82575 0.0
C832 C 0.98514 0.82569 0.49942 0.0
C833 C 0.02007 0.82279 0.50246 0.0
H834 H 0.94147 0.85693 0.50561 0.0
C835 C 0.03617 0.84502 0.5216 0.0
H836 H 0.9721 0.80871 0.48486 0.0
C837 C 0.01852 0.87211 0.5337 0.0
C838 C 0.98473 0.87748 0.52652 0.0
H839 H 0.06295 0.84308 0.52469 0.0
H840 H 0.03201 0.89058 0.54586 0.0
C841 C 0.96752 0.85311 0.51135 0.0
C842 C 0.41862 0.77985 0.70208 0.0
C843 C 0.44531 0.79714 0.71408 0.0
H844 H 0.36738 0.76621 0.70838 0.0
C845 C 0.43907 0.81534 0.74274 0.0
H846 H 0.42229 0.76553 0.68017 0.0
C847 C 0.40708 0.81627 0.75876 0.0
C848 C 0.38058 0.79843 0.74699 0.0
H849 H 0.45891 0.82905 0.75272 0.0
H850 H 0.40327 0.83049 0.78072 0.0
C851 C 0.38699 0.78022 0.71839 0.0
C852 C 0.59573 0.17351 0.98961 0.0
C853 C 0.58815 0.17763 0.95653 0.0
H854 H 0.59397 0.14231 0.03181 0.0
C855 C 0.57595 0.15144 0.93946 0.0
H856 H 0.60527 0.19331 1.00332 0.0
C857 C 0.56967 0.12213 0.95574 0.0
C858 C 0.5752 0.11875 0.98938 0.0
H859 H 0.57003 0.15399 0.9139 0.0
H860 H 0.55906 0.10269 0.94232 0.0
C861 C 0.58915 0.14437 0.00595 0.0
C862 C 0.15812 0.31083 0.20888 0.0
C863 C 0.13079 0.29261 0.22074 0.0
H864 H 0.20755 0.32777 0.21657 0.0
C865 C 0.13399 0.27713 0.25163 0.0
H866 H 0.15691 0.32327 0.18541 0.0
C867 C 0.16372 0.27912 0.26945 0.0
C868 C 0.19096 0.29762 0.2576 0.0
H869 H 0.11371 0.26282 0.26177 0.0
H870 H 0.16536 0.26613 0.29258 0.0
C871 C 0.1873 0.31362 0.22705 0.0
C872 C 0.13522 0.02573 0.20906 0.0
C873 C 0.13942 0.9984 0.2294 0.0
H874 H 0.11244 0.04613 0.16735 0.0
C875 C 0.12618 0.96876 0.22067 0.0
H876 H 0.14506 0.04896 0.21534 0.0
C877 C 0.10772 0.9669 0.19254 0.0
C878 C 0.10195 0.99475 0.17302 0.0
H879 H 0.12926 0.9473 0.23601 0.0
H880 H 0.09758 0.9438 0.18651 0.0
C881 C 0.11647 0.02402 0.18135 0.0
C882 C 0.30655 0.87519 0.46777 0.0
C883 C 0.29188 0.85608 0.4927 0.0
H884 H 0.33633 0.87613 0.42348 0.0
C885 C 0.29896 0.8225 0.4937 0.0
H886 H 0.30241 0.9013 0.4671 0.0
C887 C 0.31824 0.80793 0.46823 0.0
C888 C 0.33104 0.82705 0.44216 0.0
H889 H 0.28834 0.80748 0.51318 0.0
H890 H 0.32137 0.78175 0.46787 0.0
C891 C 0.3263 0.86088 0.44308 0.0
C892 C 0.47706 0.07986 0.68021 0.0
C893 C 0.44861 0.06128 0.68628 0.0
H894 H 0.51421 0.09512 0.64496 0.0
C895 C 0.43323 0.04658 0.6603 0.0
H896 H 0.48903 0.09186 0.69985 0.0
C897 C 0.44732 0.04897 0.62876 0.0
C898 C 0.47709 0.06573 0.62316 0.0
H899 H 0.4109 0.03262 0.66447 0.0
H900 H 0.43607 0.03609 0.60925 0.0
C901 C 0.49129 0.08197 0.64884 0.0
C902 C 0.32415 0.23485 0.93652 0.0
C903 C 0.29359 0.22496 0.95149 0.0
H904 H 0.34954 0.25708 0.8947 0.0
C905 C 0.26447 0.23062 0.9335 0.0
H906 H 0.34724 0.23098 0.94923 0.0
C907 C 0.2659 0.24496 0.90171 0.0
C908 C 0.29641 0.25504 0.88678 0.0
H909 H 0.24043 0.22332 0.94374 0.0
H910 H 0.24286 0.24829 0.88882 0.0
C911 C 0.32548 0.24996 0.90504 0.0
C912 C 0.05666 0.02327 0.3705 0.0
C913 C 0.08123 0.99828 0.37202 0.0
H914 H 0.01527 0.04723 0.3955 0.0
C915 C 0.07747 0.97314 0.39528 0.0
H916 H 0.0586 0.04265 0.35238 0.0
C917 C 0.05188 0.97534 0.41938 0.0
C918 C 0.03046 1.00291 0.42047 0.0
H919 H 0.09588 0.95339 0.39661 0.0
H920 H 0.05147 0.95762 0.43926 0.0
C921 C 0.03161 0.02578 0.39487 0.0
C922 C 0.22846 0.84306 0.66257 0.0
C923 C 0.23746 0.87544 0.65763 0.0
H924 H 0.22909 0.80175 0.69464 0.0
C925 C 0.25037 0.89255 0.68356 0.0
H926 H 0.21817 0.8294 0.64307 0.0
C927 C 0.25655 0.87673 0.71322 0.0
C928 C 0.25007 0.84358 0.71715 0.0
H929 H 0.25728 0.91766 0.68039 0.0
H930 H 0.26814 0.88995 0.73228 0.0
C931 C 0.2348 0.82722 0.69206 0.0
C932 C 0.48362 0.98819 0.84753 0.0
C933 C 0.48512 0.02012 0.83531 0.0
H934 H 0.49644 0.95574 0.88678 0.0
C935 C 0.50677 0.04188 0.84894 0.0
H936 H 0.46709 0.97101 0.8372 0.0
C937 C 0.52362 0.0331 0.87692 0.0
C938 C 0.51873 1.00262 0.89174 0.0
H939 H 0.50871 0.06648 0.83944 0.0
H940 H 0.53851 0.05097 0.88836 0.0
C941 C 0.50038 0.97946 0.8758 0.0
C942 C 0.29841 0.25021 0.14303 0.0
C943 C 0.29015 0.21737 0.13961 0.0
H944 H 0.3072 0.28974 0.17527 0.0
C945 C 0.28509 0.19927 0.16904 0.0
H946 H 0.3027 0.26522 0.1214 0.0
C947 C 0.28786 0.2134 0.20035 0.0
C948 C 0.29599 0.24632 0.20377 0.0
H949 H 0.27882 0.17394 0.16793 0.0
H950 H 0.28322 0.19849 0.22198 0.0
C951 C 0.30122 0.26432 0.17429 0.0
C952 C 0.19533 0.08351 0.05528 0.0
C953 C 0.20002 0.11288 0.0376 0.0
H954 H 0.16258 0.0441 0.06807 0.0
C955 C 0.17403 0.12342 0.01719 0.0
H956 H 0.2145 0.07445 0.07134 0.0
C957 C 0.14461 0.10551 0.01459 0.0
C958 C 0.13943 0.07657 0.03283 0.0
H959 H 0.17641 0.14573 1.00306 0.0
H960 H 0.12534 0.11502 0.99886 0.0
C961 C 0.16543 0.06596 0.0533 0.0
C962 C 0.6426 0.42597 0.02778 0.0
C963 C 0.67176 0.44321 0.03216 0.0
H964 H 0.58958 0.42888 0.02241 0.0
C965 C 0.67022 0.47727 0.03203 0.0
H966 H 0.64326 0.39967 0.02776 0.0
C967 C 0.63976 0.49392 0.02883 0.0
C968 C 0.61027 0.47674 0.02609 0.0
H969 H 0.69249 0.4911 0.0351 0.0
H970 H 0.63921 0.5202 0.02956 0.0
C971 C 0.61196 0.44266 0.02495 0.0
C972 C 0.81553 0.48974 0.28758 0.0
C973 C 0.83495 0.50577 0.30977 0.0
H974 H 0.78732 0.4478 0.27875 0.0
C975 C 0.83556 0.49498 0.34247 0.0
H976 H 0.81424 0.49801 0.26236 0.0
C977 C 0.82039 0.46603 0.35173 0.0
C978 C 0.80454 0.4479 0.32834 0.0
H979 H 0.85031 0.50711 0.36002 0.0
H980 H 0.8237 0.45644 0.37622 0.0
C981 C 0.80036 0.46098 0.29685 0.0
C982 C 0.90655 0.62208 0.5625 0.0
C983 C 0.88204 0.61578 0.53976 0.0
H984 H 0.95568 0.61134 0.57963 0.0
C985 C 0.89006 0.59218 0.5158 0.0
H986 H 0.90158 0.63997 0.58134 0.0
C987 C 0.9217 0.57571 0.51457 0.0
C988 C 0.94614 0.58206 0.53752 0.0
H989 H 0.87199 0.58666 0.49778 0.0
H990 H 0.92697 0.55793 0.4957 0.0
C991 C 0.93781 0.60548 0.56152 0.0
C992 C 0.22572 0.10664 0.37053 0.0
C993 C 0.19829 0.10415 0.35046 0.0
H994 H 0.26488 0.13649 0.38556 0.0
C995 C 0.18597 0.13172 0.33386 0.0
H996 H 0.23564 0.08559 0.38352 0.0
C997 C 0.20247 0.16083 0.3352 0.0
C998 C 0.23175 0.16268 0.35288 0.0
H999 H 0.1645 0.13041 0.31858 0.0
H1000 H 0.19297 0.18152 0.32144 0.0
C1001 C 0.24245 0.13574 0.37163 0.0
C1002 C 0.35719 0.95776 0.55576 0.0
C1003 C 0.32641 0.9686 0.54377 0.0
H1004 H 0.41012 0.96143 0.55284 0.0
C1005 C 0.32566 0.99325 0.51965 0.0
H1006 H 0.35857 0.93842 0.57395 0.0
C1007 C 0.35542 0.00673 0.50761 0.0
C1008 C 0.38625 0.99565 0.5195 0.0
H1009 H 0.30218 1.0018 0.50979 0.0
H1010 H 0.35428 0.02596 0.48933 0.0
C1011 C 0.38676 0.97097 0.5436 0.0
C1012 C 0.89207 0.68091 0.28545 0.0
C1013 C 0.87544 0.65602 0.27033 0.0
H1014 H 0.89095 0.7311 0.29801 0.0
C1015 C 0.84672 0.66329 0.25271 0.0
H1016 H 0.91463 0.67582 0.29869 0.0
C1017 C 0.83333 0.69469 0.25224 0.0
C1018 C 0.84868 0.71918 0.26914 0.0
H1019 H 0.8338 0.64452 0.2404 0.0
H1020 H 0.8101 0.69948 0.23997 0.0
C1021 C 0.87883 0.7125 0.28467 0.0
C1022 C 0.77653 0.46816 0.81384 0.0
C1023 C 0.75195 0.46587 0.83916 0.0
H1024 H 0.81768 0.44407 0.78859 0.0
C1025 C 0.75576 0.44226 0.86395 0.0
H1026 H 0.77458 0.48658 0.79476 0.0
C1027 C 0.78118 0.41842 0.86082 0.0
C1028 C 0.8024 0.41802 0.8327 0.0
H1029 H 0.73736 0.44032 0.88397 0.0
H1030 H 0.78143 0.39821 0.8781 0.0
C1031 C 0.80146 0.44412 0.81044 0.0
C1032 C 0.03958 0.91839 0.94378 0.0
C1033 C 0.03946 0.88964 0.96326 0.0
H1034 H 0.04335 0.97064 0.94142 0.0
C1035 C 0.04453 0.89349 0.99698 0.0
H1036 H 0.0359 0.91693 0.91775 0.0
C1037 C 0.04937 0.9245 0.01056 0.0
C1038 C 0.0492 0.95333 0.99119 0.0
H1039 H 0.04485 0.87239 0.01308 0.0
H1040 H 0.05275 0.92586 0.03666 0.0
C1041 C 0.0441 0.94948 0.95743 0.0
C1042 C 0.96716 0.3137 0.74376 0.0
C1043 C 0.96295 0.32056 0.71038 0.0
H1044 H 0.94495 0.31628 0.79227 0.0
C1045 C 0.93608 0.34053 0.70082 0.0
H1046 H 0.98826 0.29885 0.7516 0.0
C1047 C 0.91239 0.35171 0.72398 0.0
C1048 C 0.91452 0.34218 0.75703 0.0
H1049 H 0.93303 0.34707 0.6753 0.0
H1050 H 0.891 0.3658 0.71555 0.0
C1051 C 0.94282 0.32421 0.76703 0.0
C1052 C 0.54378 0.19504 0.50091 0.0
C1053 C 0.52867 0.20147 0.47069 0.0
H1054 H 0.55588 0.15993 0.53878 0.0
C1055 C 0.51255 0.17527 0.45658 0.0
H1056 H 0.55659 0.21418 0.51273 0.0
C1057 C 0.51134 0.1442 0.47204 0.0
C1058 C 0.52701 0.13754 0.50192 0.0
H1059 H 0.50053 0.17884 0.43345 0.0
H1060 H 0.4986 0.12507 0.4601 0.0
C1061 C 0.5434 0.16366 0.51592 0.0
C1062 C 0.62624 0.80134 0.20528 0.0
C1063 C 0.61072 0.77544 0.19091 0.0
H1064 H 0.66095 0.81609 0.23967 0.0
C1065 C 0.61909 0.74344 0.20034 0.0
H1066 H 0.61948 0.82627 0.19904 0.0
C1067 C 0.64365 0.73745 0.22321 0.0
C1068 C 0.65963 0.76345 0.2373 0.0
H1069 H 0.60701 0.72313 0.1897 0.0
H1070 H 0.65058 0.71256 0.22923 0.0
C1071 C 0.65005 0.79543 0.22859 0.0
C1072 C 0.06166 0.2212 0.54661 0.0
C1073 C 0.03157 0.22892 0.56396 0.0
H1074 H 0.0883 0.18745 0.51543 0.0
C1075 C 1.00337 0.21045 0.55924 0.0
H1076 H 0.08378 0.23522 0.54976 0.0
C1077 C 1.00571 0.18355 0.53893 0.0
C1078 C 0.03655 0.17404 0.52364 0.0
H1079 H 0.97971 0.21629 0.57188 0.0
H1080 H 0.98352 0.1696 0.53618 0.0
C1081 C 0.0642 0.19388 0.52678 0.0
C1082 C 0.63667 0.27313 0.34255 0.0
C1083 C 0.62936 0.29156 0.37086 0.0
H1084 H 0.67343 0.25886 0.30511 0.0
C1085 C 0.65497 0.31055 0.38254 0.0
H1086 H 0.61769 0.25817 0.33281 0.0
C1087 C 0.68661 0.31153 0.36627 0.0
C1088 C 0.69411 0.29297 0.33811 0.0
H1089 H 0.65043 0.32515 0.40415 0.0
H1090 H 0.70542 0.32667 0.37606 0.0
C1091 C 0.66871 0.27349 0.32667 0.0
C1092 C 0.53068 0.92058 0.12588 0.0
C1093 C 0.51896 0.89577 0.10648 0.0
H1094 H 0.53917 0.97143 0.12968 0.0
C1095 C 0.50233 0.9039 0.0778 0.0
H1096 H 0.54315 0.91491 0.14842 0.0
C1097 C 0.49963 0.93611 0.06738 0.0
C1098 C 0.51365 0.96074 0.0854 0.0
H1099 H 0.49246 0.88528 0.06274 0.0
H1100 H 0.48824 0.94149 0.04421 0.0
C1101 C 0.52801 0.95293 0.11541 0.0
C1102 C 0.91421 0.77649 0.87691 0.0
C1103 C 0.94147 0.79506 0.86558 0.0
H1104 H 0.86473 0.75997 0.86866 0.0
C1105 C 0.9382 0.81166 0.8353 0.0
H1106 H 0.91555 0.76318 0.89989 0.0
C1107 C 0.9085 0.81032 0.81747 0.0
C1108 C 0.88134 0.79146 0.8287 0.0
H1109 H 0.95848 0.82621 0.82557 0.0
H1110 H 0.90684 0.82408 0.79478 0.0
C1111 C 0.88498 0.77442 0.85869 0.0
C1112 C 0.95136 0.1074 0.86271 0.0
C1113 C 0.95928 0.08223 0.8408 0.0
H1114 H 0.96306 0.12974 0.90769 0.0
C1115 C 0.98495 0.05952 0.84762 0.0
H1116 H 0.93177 0.12531 0.85767 0.0
C1117 C 1.00216 0.0617 0.87649 0.0
C1118 C 0.99454 0.0872 0.89805 0.0
H1119 H 0.99134 0.03995 0.83091 0.0
H1120 H 0.02168 0.04386 0.88189 0.0
C1121 C 0.96926 0.11013 0.89099 0.0
C1122 C 0.81965 0.26081 0.63853 0.0
C1123 C 0.80572 0.26817 0.6083 0.0
H1124 H 0.82512 0.27531 0.68782 0.0
C1125 C 0.7872 0.29746 0.60433 0.0
H1126 H 0.8341 0.2385 0.64227 0.0
C1127 C 0.7819 0.31858 0.6306 0.0
C1128 C 0.79461 0.31039 0.66117 0.0
H1129 H 0.77621 0.30371 0.58117 0.0
H1130 H 0.76724 0.34083 0.62736 0.0
C1131 C 0.81411 0.28167 0.66471 0.0
C1132 C 0.58637 0.00892 0.40551 0.0
C1133 C 0.617 0.02449 0.40171 0.0
H1134 H 0.54551 0.99693 0.43815 0.0
C1135 C 0.63183 0.03743 0.42895 0.0
H1136 H 0.57472 0.99845 0.38479 0.0
C1137 C 0.6155 0.03603 0.4595 0.0
C1138 C 0.58394 0.02208 0.46298 0.0
H1139 H 0.65574 0.0491 0.42657 0.0
H1140 H 0.62685 0.04729 0.47996 0.0
C1141 C 0.56982 0.00788 0.43598 0.0
C1142 C 0.78268 0.83878 0.14288 0.0
C1143 C 0.79775 0.86887 0.13612 0.0
H1144 H 0.77039 0.80147 0.17868 0.0
C1145 C 0.8134 0.88348 0.16237 0.0
H1146 H 0.77022 0.82663 0.12366 0.0
C1147 C 0.81429 0.86858 0.19385 0.0
C1148 C 0.79872 0.8388 0.20082 0.0
H1149 H 0.82535 0.90654 0.15851 0.0
H1150 H 0.82676 0.88082 0.21301 0.0
C1151 C 0.78272 0.82431 0.17467 0.0
C1152 C 0.92935 0.05391 0.64109 0.0
C1153 C 0.9486 0.07226 0.66151 0.0
H1154 H 0.9275 0.02871 0.59608 0.0
C1155 C 0.98129 0.08033 0.65152 0.0
H1156 H 0.90416 0.04713 0.64847 0.0
C1157 C 0.99452 0.07013 0.62119 0.0
C1158 C 0.97547 0.05094 0.60132 0.0
H1159 H 0.9965 0.0944 0.66711 0.0
H1160 H 0.01968 0.07671 0.61351 0.0
C1161 C 0.94283 0.04299 0.61139 0.0
C1162 C 0.83143 0.22083 0.42135 0.0
C1163 C 0.80866 0.23434 0.4448 0.0
H1164 H 0.84912 0.22171 0.37096 0.0
C1165 C 0.78681 0.25978 0.43596 0.0
H1166 H 0.8483 0.20091 0.42785 0.0
C1167 C 0.78794 0.27197 0.40417 0.0
C1168 C 0.81038 0.25839 0.3806 0.0
H1169 H 0.76906 0.27044 0.45369 0.0
H1170 H 0.77073 0.29167 0.3978 0.0
C1171 C 0.83189 0.2325 0.38906 0.0
C1172 C 0.57998 0.03576 0.22791 0.0
C1173 C 0.5974 0.0589 0.24469 0.0
H1174 H 0.55228 0.0257 0.18592 0.0
C1175 C 0.59673 0.09138 0.23383 0.0
H1176 H 0.57971 0.01066 0.23621 0.0
C1177 C 0.58147 0.0999 0.20463 0.0
C1178 C 0.56667 0.07602 0.18629 0.0
H1179 H 0.61003 0.10962 0.24652 0.0
H1180 H 0.58332 0.12453 0.19531 0.0
C1181 C 0.56452 0.04431 0.19907 0.0
C1182 C 0.79002 0.89127 0.91588 0.0
C1183 C 0.78929 0.87252 0.94521 0.0
H1184 H 0.78672 0.89263 0.86322 0.0
C1185 C 0.78311 0.83916 0.94211 0.0
H1186 H 0.79455 0.91701 0.9168 0.0
C1187 C 0.77809 0.82517 0.9112 0.0
C1188 C 0.77912 0.84381 0.88178 0.0
H1189 H 0.7821 0.82366 0.96373 0.0
H1190 H 0.77389 0.79936 0.91036 0.0
C1191 C 0.78526 0.87723 0.88489 0.0
C1192 C 0.89111 1.00107 0.02247 0.0
C1193 C 0.88733 0.97119 0.03948 0.0
H1194 H 0.92298 0.04117 0.00979 0.0
C1195 C 0.91414 0.96023 0.0586 0.0
H1196 H 0.87118 0.01051 0.0075 0.0
C1197 C 0.94343 0.97838 0.06077 0.0
C1198 C 0.94759 0.00795 0.0433 0.0
H1199 H 0.91239 0.93758 0.07225 0.0
H1200 H 0.96333 0.96868 0.07562 0.0
C1201 C 0.92089 0.01883 0.02391 0.0
C1202 C 0.40959 0.62261 0.0502 0.0
C1203 C 0.3794 0.6148 0.03643 0.0
H1204 H 0.46009 0.60798 0.05836 0.0
C1205 C 0.37611 0.58407 0.02252 0.0
H1206 H 0.41272 0.64598 0.0613 0.0
C1207 C 0.40337 0.56203 0.02103 0.0
C1208 C 0.43409 0.57091 0.03298 0.0
H1209 H 0.35286 0.57747 0.01196 0.0
H1210 H 0.40092 0.53891 0.00923 0.0
C1211 C 0.43672 0.60092 0.04835 0.0
C1212 C 0.25987 0.60422 0.79294 0.0
C1213 C 0.24002 0.58797 0.77137 0.0
H1214 H 0.28759 0.64656 0.80112 0.0
C1215 C 0.23734 0.59941 0.73903 0.0
H1216 H 0.26272 0.59545 0.81783 0.0
C1217 C 0.2511 0.62901 0.72963 0.0
C1218 C 0.26773 0.64707 0.7525 0.0
H1219 H 0.22215 0.58709 0.72198 0.0
H1220 H 0.24629 0.63898 0.70556 0.0
C1221 C 0.27386 0.63348 0.78346 0.0
C1222 C 0.17378 0.45344 0.52572 0.0
C1223 C 0.19965 0.46572 0.54399 0.0
H1224 H 0.12313 0.4591 0.51033 0.0
C1225 C 0.19266 0.4943 0.56183 0.0
H1226 H 0.17809 0.43161 0.51157 0.0
C1227 C 0.16068 0.50986 0.56163 0.0
C1228 C 0.13497 0.49777 0.54292 0.0
H1229 H 0.21185 0.50452 0.57622 0.0
H1230 H 0.15623 0.53164 0.57582 0.0
C1231 C 0.14216 0.46936 0.52491 0.0
C1232 C 0.83497 0.98802 0.77699 0.0
C1233 C 0.85971 0.99733 0.75384 0.0
H1234 H 0.80143 0.95056 0.79258 0.0
C1235 C 0.86855 0.9771 0.72743 0.0
H1236 H 0.82795 1.00343 0.79751 0.0
C1237 C 0.85292 0.94774 0.7242 0.0
C1238 C 0.82897 0.93788 0.74779 0.0
H1239 H 0.88747 0.98408 0.70919 0.0
H1240 H 0.86014 0.93226 0.7038 0.0
C1241 C 0.82002 0.95804 0.77425 0.0
C1242 C 0.70987 0.13766 0.59602 0.0
C1243 C 0.7202 0.14407 0.56344 0.0
H1244 H 0.67545 0.11271 0.62813 0.0
C1245 C 0.70485 0.12862 0.53797 0.0
H1246 H 0.72167 0.14918 0.61606 0.0
C1247 C 0.67933 0.10725 0.54484 0.0
C1248 C 0.66807 0.10143 0.5773 0.0
H1249 H 0.71291 0.1326 0.51265 0.0
H1250 H 0.66844 0.09529 0.52458 0.0
C1251 C 0.68377 0.11656 0.60292 0.0
C1252 C 0.20032 0.40829 0.8021 0.0
C1253 C 0.21661 0.43543 0.81313 0.0
H1254 H 0.20335 0.35742 0.79376 0.0
C1255 C 0.24798 0.43169 0.82712 0.0
H1256 H 0.1758 0.41065 0.79176 0.0
C1257 C 0.26386 0.40126 0.82822 0.0
C1258 C 0.24826 0.37431 0.81569 0.0
H1259 H 0.26075 0.4524 0.83611 0.0
H1260 H 0.28876 0.39907 0.83772 0.0
C1261 C 0.21594 0.37784 0.80361 0.0
C1262 C 0.34139 0.67448 0.24346 0.0
C1263 C 0.3503 0.65402 0.26963 0.0
H1264 H 0.32097 0.72089 0.2291 0.0
C1265 C 0.34118 0.663 0.30182 0.0
H1266 H 0.34791 0.66791 0.21842 0.0
C1267 C 0.32617 0.69328 0.30795 0.0
C1268 C 0.31949 0.71475 0.28195 0.0
H1269 H 0.34753 0.64753 0.32247 0.0
H1270 H 0.32143 0.70058 0.33309 0.0
C1271 C 0.32576 0.70462 0.24958 0.0
C1272 C 0.54095 0.66648 0.6377 0.0
C1273 C 0.54094 0.69544 0.61853 0.0
H1274 H 0.5391 0.61404 0.63933 0.0
C1275 C 0.53791 0.69168 0.58447 0.0
H1276 H 0.54312 0.66783 0.66396 0.0
C1277 C 0.53502 0.66061 0.57031 0.0
C1278 C 0.53529 0.63158 0.58939 0.0
H1279 H 0.5376 0.71292 0.56856 0.0
H1280 H 0.53302 0.65939 0.54402 0.0
C1281 C 0.53844 0.63532 0.62347 0.0
C1282 C 0.70401 0.29855 0.8935 0.0
C1283 C 0.67699 0.29075 0.87442 0.0
H1284 H 0.75545 0.31149 0.89382 0.0
C1285 C 0.68143 0.28995 0.84022 0.0
H1286 H 0.70121 0.29922 0.91994 0.0
C1287 C 0.71223 0.29737 0.82527 0.0
C1288 C 0.73929 0.30516 0.8443 0.0
H1289 H 0.66096 0.28404 0.82496 0.0
H1290 H 0.71489 0.29689 0.79881 0.0
C1291 C 0.73503 0.30542 0.87857 0.0
C1292 C 0.01236 0.39269 0.08969 0.0
C1293 C 0.03935 0.38227 0.10902 0.0
H1294 H 0.98986 0.4308 0.06019 0.0
C1295 C 0.06512 0.4046 0.11248 0.0
H1296 H 0.99187 0.37661 0.08631 0.0
C1297 C 0.06388 0.43591 0.09761 0.0
C1298 C 0.0369 0.44645 0.07835 0.0
H1299 H 0.08635 0.39798 0.1271 0.0
H1300 H 0.08427 0.45201 0.10137 0.0
C1301 C 0.0112 0.42403 0.07461 0.0
C1302 C 0.99134 0.84106 0.36582 0.0
C1303 C 1.00267 0.80851 0.36433 0.0
H1304 H 0.95286 0.87575 0.35303 0.0
C1305 C 0.98625 0.78677 0.34488 0.0
H1306 H 1.00372 0.85831 0.38064 0.0
C1307 C 0.95753 0.79678 0.32903 0.0
C1308 C 0.94457 0.82863 0.33258 0.0
H1309 H 0.99481 0.76166 0.34294 0.0
H1310 H 0.94475 0.77926 0.31493 0.0
C1311 C 0.96238 0.85108 0.35001 0.0
C1312 C 0.50001 0.32665 0.99226 0.0
C1313 C 0.53513 0.32315 0.99235 0.0
H1314 H 0.45707 0.35654 0.00645 0.0
C1315 C 0.55312 0.34292 0.01255 0.0
H1316 H 0.4856 0.31164 0.97683 0.0
C1317 C 0.53669 0.36787 0.02982 0.0
C1318 C 0.50219 0.37368 0.02684 0.0
H1319 H 0.58013 0.3405 0.0133 0.0
H1320 H 0.55128 0.38453 0.04325 0.0
C1321 C 0.48361 0.35203 0.00933 0.0
C1322 C 0.92362 0.27488 0.21447 0.0
C1323 C 0.94812 0.29793 0.21953 0.0
H1324 H 0.87451 0.25796 0.22631 0.0
C1325 C 0.93996 0.32283 0.24213 0.0
H1326 H 0.92866 0.25534 0.19739 0.0
C1327 C 0.90819 0.32459 0.25883 0.0
C1328 C 0.88379 0.30128 0.25371 0.0
H1329 H 0.95802 0.34113 0.24669 0.0
H1330 H 0.90281 0.34412 0.27582 0.0
C1331 C 0.8923 0.27642 0.23126 0.0
C1332 C 0.0935 0.67282 0.49353 0.0
C1333 C 0.08283 0.67872 0.46164 0.0
H1334 H 0.09558 0.63917 0.53371 0.0
C1335 C 0.06992 0.65334 0.44393 0.0
H1336 H 0.1037 0.692 0.50761 0.0
C1337 C 0.06555 0.62302 0.45874 0.0
C1338 C 0.07366 0.61793 0.49156 0.0
H1339 H 0.06178 0.6573 0.41917 0.0
H1340 H 0.05403 0.60426 0.44511 0.0
C1341 C 0.08874 0.64266 0.50847 0.0
C1342 C 0.63533 0.77784 0.74933 0.0
C1343 C 0.63205 0.79388 0.71874 0.0
H1344 H 0.66633 0.76686 0.79047 0.0
C1345 C 0.65891 0.8131 0.7076 0.0
H1346 H 0.61539 0.76281 0.75896 0.0
C1347 C 0.68776 0.81626 0.72622 0.0
C1348 C 0.69142 0.79975 0.75651 0.0
H1349 H 0.65756 0.82604 0.68441 0.0
H1350 H 0.70774 0.8311 0.71632 0.0
C1351 C 0.66464 0.78031 0.7676 0.0
C1352 C 0.64471 0.50472 0.70532 0.0
C1353 C 0.63379 0.48672 0.73284 0.0
H1354 H 0.63614 0.51831 0.65581 0.0
C1355 C 0.60701 0.46581 0.73045 0.0
H1356 H 0.66562 0.52074 0.70654 0.0
C1357 C 0.58955 0.46501 0.70165 0.0
C1358 C 0.5989 0.48487 0.67477 0.0
H1359 H 0.59811 0.45175 0.75146 0.0
H1360 H 0.56767 0.45024 0.70118 0.0
C1361 C 0.62754 0.50363 0.67643 0.0
C1362 C 0.7973 0.3028 0.98676 0.0
C1363 C 0.81309 0.32219 0.00903 0.0
H1364 H 0.80141 0.28019 0.94008 0.0
C1365 C 0.8479 0.32616 1.00572 0.0
H1366 H 0.77061 0.29899 0.98908 0.0
C1367 C 0.86544 0.31557 0.97747 0.0
C1368 C 0.84821 0.30081 0.95279 0.0
H1369 H 0.8607 0.34087 0.02278 0.0
H1370 H 0.89117 0.32247 0.97315 0.0
C1371 C 0.81488 0.29202 0.95884 0.0
C1372 C 0.93508 0.54582 0.1552 0.0
C1373 C 0.95009 0.56311 0.17976 0.0
H1374 H 0.93804 0.53148 0.10507 0.0
C1375 C 0.97748 0.58254 0.17187 0.0
H1376 H 0.91351 0.53113 0.16076 0.0
C1377 C 0.99126 0.58287 0.14027 0.0
C1378 C 0.97764 0.56397 0.11618 0.0
H1379 H 0.9891 0.59654 0.19033 0.0
H1380 H 0.01353 0.5967 0.13505 0.0
C1381 C 0.94873 0.5464 0.12338 0.0
C1382 C 0.82261 0.73821 0.43903 0.0
C1383 C 0.79258 0.72621 0.4533 0.0
H1384 H 0.84717 0.76256 0.39798 0.0
C1385 C 0.76355 0.7304 0.43487 0.0
H1386 H 0.84561 0.73556 0.45209 0.0
C1387 C 0.76458 0.74535 0.40338 0.0
C1388 C 0.79454 0.75749 0.38911 0.0
H1389 H 0.73991 0.7215 0.44456 0.0
H1390 H 0.74163 0.7475 0.39016 0.0
C1391 C 0.8235 0.75385 0.40779 0.0
C1392 C 0.56468 0.47574 0.89626 0.0
C1393 C 0.57088 0.50333 0.87669 0.0
H1394 H 0.54093 0.45759 0.94026 0.0
C1395 C 0.55098 0.53162 0.88141 0.0
H1396 H 0.57931 0.45345 0.89264 0.0
C1397 C 0.52929 0.53405 0.90872 0.0
C1398 C 0.52693 0.50802 0.93104 0.0
H1399 H 0.55485 0.55307 0.86625 0.0
H1400 H 0.51738 0.55738 0.91434 0.0
C1401 C 0.5424 0.47798 0.92325 0.0
C1402 C 0.73779 0.33646 0.15982 0.0
C1403 C 0.74764 0.36824 0.15263 0.0
H1404 H 0.73609 0.298 0.19541 0.0
C1405 C 0.75927 0.38747 0.1776 0.0
H1406 H 0.72857 0.32122 0.14097 0.0
C1407 C 0.7633 0.37429 0.20881 0.0
C1408 C 0.75613 0.34162 0.21524 0.0
H1409 H 0.76674 0.41217 0.17264 0.0
H1410 H 0.77388 0.38911 0.22725 0.0
C1411 C 0.74221 0.32315 0.1909 0.0
C1412 C 1.00536 0.54695 0.3494 0.0
C1413 C 0.98497 0.52537 0.33377 0.0
H1414 H 0.03528 0.55497 0.39045 0.0
C1415 C 0.98337 0.49305 0.34491 0.0
H1416 H 1.00739 0.57187 0.34087 0.0
C1417 C 0.99905 0.48349 0.37359 0.0
C1418 C 0.01646 0.50619 0.39113 0.0
H1419 H 0.96781 0.47597 0.33312 0.0
H1420 H 0.99529 0.45926 0.38337 0.0
C1421 C 0.0211 0.53737 0.3778 0.0
C1422 C 0.79902 0.75116 0.64359 0.0
C1423 C 0.79037 0.7184 0.64033 0.0
H1424 H 0.80804 0.79075 0.6757 0.0
C1425 C 0.78484 0.70052 0.6698 0.0
H1426 H 0.80368 0.76598 0.62189 0.0
C1427 C 0.78751 0.71479 0.70102 0.0
C1428 C 0.79603 0.74761 0.7043 0.0
H1429 H 0.77825 0.67527 0.6688 0.0
H1430 H 0.7825 0.70004 0.72269 0.0
C1431 C 0.80175 0.76541 0.67478 0.0
C1432 C 0.67435 0.62294 0.52057 0.0
C1433 C 0.7005 0.61269 0.54087 0.0
H1434 H 0.62559 0.61426 0.50271 0.0
C1435 C 0.69597 0.58356 0.55902 0.0
H1436 H 0.67661 0.64506 0.5061 0.0
C1437 C 0.66602 0.56596 0.55758 0.0
C1438 C 0.63988 0.57628 0.53715 0.0
H1439 H 0.71529 0.57474 0.57504 0.0
H1440 H 0.66327 0.54429 0.57265 0.0
C1441 C 0.64494 0.60498 0.51846 0.0
C1442 C 0.12364 0.93621 0.54074 0.0
C1443 C 0.151 0.95475 0.54861 0.0
H1444 H 0.0723 0.93673 0.52776 0.0
C1445 C 0.14729 0.98868 0.54995 0.0
H1446 H 0.12592 0.90999 0.53961 0.0
C1447 C 0.11688 1.00394 0.54286 0.0
C1448 C 0.08954 0.98549 0.53478 0.0
H1449 H 0.16807 1.00352 0.55591 0.0
H1450 H 0.1148 0.03019 0.54368 0.0
C1451 C 0.09301 0.95148 0.53409 0.0
C1452 C 0.3379 0.98497 0.84894 0.0
C1453 C 0.33449 0.99762 0.81713 0.0
H1454 H 0.32921 0.94439 0.88114 0.0
C1455 C 0.3133 0.98277 0.79572 0.0
H1456 H 0.35411 0.99617 0.86587 0.0
C1457 C 0.29901 0.95345 0.80451 0.0
C1458 C 0.30601 0.93853 0.83465 0.0
H1459 H 0.3099 0.99247 0.77124 0.0
H1460 H 0.28448 0.94129 0.78681 0.0
C1461 C 0.32372 0.95539 0.85766 0.0
C1462 C 0.40716 0.12417 0.06074 0.0
C1463 C 0.38225 0.11661 0.03887 0.0
H1464 H 0.4568 0.11475 0.07717 0.0
C1465 C 0.39007 0.09219 0.01571 0.0
H1466 H 0.40234 0.14273 0.07893 0.0
C1467 C 0.42192 0.07614 0.0144 0.0
C1468 C 0.44674 0.08371 0.03651 0.0
H1469 H 0.37168 0.0857 0.99836 0.0
H1470 H 0.42703 0.05767 0.99619 0.0
C1471 C 0.43862 0.10796 0.05972 0.0
C1472 C 0.68945 0.62757 0.8146 0.0
C1473 C 0.68771 0.60626 0.84157 0.0
H1474 H 0.70989 0.67022 0.79378 0.0
C1475 C 0.70276 0.61443 0.87063 0.0
H1476 H 0.67803 0.62186 0.79184 0.0
C1477 C 0.72097 0.6427 0.872 0.0
C1478 C 0.72472 0.66305 0.8442 0.0
H1479 H 0.70157 0.5984 0.89186 0.0
H1480 H 0.7327 0.64799 0.89462 0.0
C1481 C 0.7079 0.65551 0.81579 0.0
C1482 C 0.84669 0.48074 0.04387 0.0
C1483 C 0.83212 0.46031 0.02169 0.0
H1484 H 0.88623 0.51279 0.05235 0.0
C1485 C 0.84507 0.45876 0.9893 0.0
H1486 H 0.83688 0.48275 0.06885 0.0
C1487 C 0.87364 0.47583 0.9799 0.0
C1488 C 0.88946 0.49457 1.00282 0.0
H1489 H 0.83414 0.44319 0.97172 0.0
H1490 H 0.88436 0.473 0.95536 0.0
C1491 C 0.875 0.49779 0.03448 0.0
C1492 C 0.39028 0.17479 0.78949 0.0
C1493 C 0.37308 0.15003 0.77478 0.0
H1494 H 0.39136 0.22549 0.79945 0.0
C1495 C 0.3458 0.15777 0.75532 0.0
H1496 H 0.41186 0.1693 0.80405 0.0
C1497 C 0.33433 0.18971 0.75248 0.0
C1498 C 0.35017 0.21424 0.76888 0.0
H1499 H 0.33256 0.13907 0.74324 0.0
H1500 H 0.31204 0.195 0.73884 0.0
C1501 C 0.37898 0.20688 0.78637 0.0
C1502 C 0.27403 0.95451 0.28815 0.0
C1503 C 0.25966 0.96025 0.31948 0.0
H1504 H 0.30119 0.92047 0.25756 0.0
C1505 C 0.26925 0.94055 0.34596 0.0
H1506 H 0.26729 0.96962 0.26736 0.0
C1507 C 0.28952 0.91296 0.34042 0.0
C1508 C 0.29948 0.90461 0.30828 0.0
H1509 H 0.25878 0.94485 0.3704 0.0
H1510 H 0.29389 0.89636 0.36069 0.0
C1511 C 0.2935 0.9265 0.28249 0.0
C1512 C 0.54478 0.39463 0.49823 0.0
C1513 C 0.53883 0.39114 0.46464 0.0
H1514 H 0.55393 0.42657 0.538 0.0
C1515 C 0.53837 0.42007 0.44546 0.0
H1516 H 0.54557 0.37335 0.51408 0.0
C1517 C 0.54321 0.45101 0.45931 0.0
C1518 C 0.54916 0.45449 0.49295 0.0
H1519 H 0.53403 0.41888 0.41954 0.0
H1520 H 0.54198 0.47234 0.44355 0.0
C1521 C 0.54988 0.42547 0.51201 0.0
C1522 C 0.41887 0.81037 0.18819 0.0
C1523 C 0.45 0.80028 0.19974 0.0
H1524 H 0.3682 0.82318 0.19999 0.0
C1525 C 0.4539 0.7956 0.23354 0.0
H1526 H 0.41529 0.81457 0.16231 0.0
C1527 C 0.42662 0.80044 0.25549 0.0
C1528 C 0.39537 0.81026 0.24374 0.0
H1529 H 0.47791 0.78807 0.24296 0.0
H1530 H 0.42984 0.796 0.28138 0.0
C1531 C 0.39194 0.81553 0.20994 0.0
C1532 C 0.01449 0.67271 0.95352 0.0
C1533 C 0.03033 0.69877 0.96815 0.0
H1534 H 1.00133 0.62228 0.95589 0.0
C1535 C 0.04587 0.69185 0.99804 0.0
H1536 H 1.0022 0.67666 0.93058 0.0
C1537 C 0.04608 0.66013 0.0123 0.0
C1538 C 0.02995 0.63414 0.99777 0.0
H1539 H 0.05851 0.71087 0.01022 0.0
H1540 H 0.0588 0.65604 0.03497 0.0
C1541 C 0.01392 0.64127 0.96818 0.0
C1542 C 0.11107 0.24235 0.71193 0.0
C1543 C 0.11526 0.26362 0.685 0.0
H1544 H 0.13283 0.22165 0.75485 0.0
C1545 C 0.14631 0.27775 0.67866 0.0
H1546 H 0.08728 0.23112 0.71729 0.0
C1547 C 0.17219 0.27222 0.69997 0.0
C1548 C 0.16741 0.25267 0.72812 0.0
H1549 H 0.15029 0.29393 0.65783 0.0
H1550 H 0.19576 0.28383 0.69472 0.0
C1551 C 0.13703 0.23691 0.7334 0.0
C1552 C 0.51505 0.71052 0.05543 0.0
C1553 C 0.54205 0.73006 0.06188 0.0
H1554 H 0.49935 0.66618 0.03551 0.0
C1555 C 0.57423 0.72135 0.04934 0.0
H1556 H 0.48992 0.71692 0.06441 0.0
C1557 C 0.5797 0.69197 0.03303 0.0
C1558 C 0.55303 0.67115 0.02911 0.0
H1559 H 0.59546 0.73611 0.054 0.0
H1560 H 0.60499 0.68458 0.02549 0.0
C1561 C 0.52048 0.68141 0.03908 0.0
C1562 C 0.13534 0.77066 0.84016 0.0
C1563 C 0.12935 0.78742 0.86974 0.0
H1564 H 0.17097 0.75697 0.80151 0.0
C1565 C 0.15626 0.80363 0.88272 0.0
H1566 H 0.11531 0.75784 0.82941 0.0
C1567 C 0.1879 0.80368 0.86644 0.0
C1568 C 0.19405 0.7869 0.83692 0.0
H1569 H 0.15275 0.81686 0.90534 0.0
H1570 H 0.20772 0.81685 0.87717 0.0
C1571 C 0.16734 0.77008 0.82419 0.0
C1572 C 0.03741 0.41773 0.62297 0.0
C1573 C 0.02328 0.39302 0.60522 0.0
H1574 H 0.04603 0.46854 0.62605 0.0
C1575 C 1.00357 0.40119 0.5785 0.0
H1576 H 0.0522 0.41202 0.64408 0.0
C1577 C 0.99992 0.43343 0.56829 0.0
C1578 C 0.01561 0.45799 0.58489 0.0
H1579 H 0.99197 0.38259 0.56473 0.0
H1580 H 0.98614 0.43895 0.54648 0.0
C1581 C 0.03339 0.45007 0.61302 0.0
C1582 C 0.41456 0.27826 0.37589 0.0
C1583 C 0.44181 0.297 0.36489 0.0
H1584 H 0.36541 0.26134 0.36711 0.0
C1585 C 0.43874 0.31359 0.33455 0.0
H1586 H 0.41572 0.26493 0.39887 0.0
C1587 C 0.40924 0.31206 0.31637 0.0
C1588 C 0.38212 0.29298 0.32728 0.0
H1589 H 0.45901 0.32828 0.32506 0.0
H1590 H 0.40772 0.32581 0.29366 0.0
C1591 C 0.38559 0.27598 0.35733 0.0
C1592 C 0.48513 0.55467 0.35423 0.0
C1593 C 0.47602 0.58266 0.33641 0.0
H1594 H 0.50706 0.53526 0.39723 0.0
C1595 C 0.48365 0.6133 0.34806 0.0
H1596 H 0.47983 0.53074 0.3455 0.0
C1597 C 0.49869 0.61595 0.37806 0.0
C1598 C 0.50654 0.58798 0.39664 0.0
H1599 H 0.47676 0.63524 0.3347 0.0
H1600 H 0.50298 0.63991 0.38719 0.0
C1601 C 0.50043 0.5573 0.38399 0.0
C1602 C 0.2602 0.77652 0.09681 0.0
C1603 C 0.293 0.7652 0.089 0.0
H1604 H 0.22773 0.80078 0.13211 0.0
C1605 C 0.31933 0.77483 0.10796 0.0
H1606 H 0.23945 0.7695 0.08244 0.0
C1607 C 0.31262 0.79291 0.13602 0.0
C1608 C 0.27946 0.80134 0.14581 0.0
H1609 H 0.34489 0.76684 0.10217 0.0
H1610 H 0.33324 0.79879 0.15107 0.0
C1611 C 0.25345 0.79447 0.12514 0.0
C1612 C 0.13683 0.53501 0.92533 0.0
C1613 C 0.12286 0.52045 0.8985 0.0
H1614 H 0.13097 0.54634 0.976 0.0
C1615 C 0.09311 0.50343 0.90276 0.0
H1616 H 0.16005 0.54785 0.92258 0.0
C1617 C 0.07646 0.50259 0.93317 0.0
C1618 C 0.08962 0.51843 0.9597 0.0
H1619 H 0.0821 0.49171 0.88239 0.0
H1620 H 0.05276 0.49053 0.93563 0.0
C1621 C 0.12041 0.5338 0.95587 0.0
C1622 C 0.31646 0.38068 0.66024 0.0
C1623 C 0.29981 0.3669 0.63414 0.0
H1624 H 0.33106 0.37678 0.71047 0.0
C1625 C 0.28434 0.33698 0.6407 0.0
H1626 H 0.32876 0.40358 0.65653 0.0
C1627 C 0.28492 0.32189 0.67219 0.0
C1628 C 0.3019 0.33554 0.6982 0.0
H1629 H 0.27112 0.32546 0.6216 0.0
H1630 H 0.27216 0.29926 0.6761 0.0
C1631 C 0.31789 0.36514 0.69139 0.0
C1632 C 0.49118 0.52245 0.17442 0.0
C1633 C 0.48468 0.55522 0.182 0.0
H1634 H 0.5087 0.48869 0.13798 0.0
C1635 C 0.49661 0.57954 0.16063 0.0
H1636 H 0.4825 0.5032 0.19066 0.0
C1637 C 0.51229 0.57117 0.13076 0.0
C1638 C 0.51558 0.53842 0.12176 0.0
H1639 H 0.49219 0.60497 0.16614 0.0
H1640 H 0.51919 0.59042 0.11369 0.0
C1641 C 0.50626 0.5141 0.14436 0.0
C1642 C 0.3073 0.69828 0.90622 0.0
C1643 C 0.32177 0.71504 0.9315 0.0
H1644 H 0.29364 0.69938 0.85614 0.0
C1645 C 0.33813 0.74408 0.92438 0.0
H1646 H 0.29494 0.67557 0.91109 0.0
C1647 C 0.33722 0.75776 0.89308 0.0
C1648 C 0.32032 0.74236 0.86844 0.0
H1649 H 0.34978 0.75727 0.94341 0.0
H1650 H 0.34808 0.78129 0.88868 0.0
C1651 C 0.3068 0.71175 0.87475 0.0
C1652 C 0.07868 0.53246 0.72859 0.0
C1653 C 0.09655 0.5555 0.74506 0.0
H1654 H 0.05037 0.5226 0.68692 0.0
C1655 C 0.09554 0.58806 0.73448 0.0
H1656 H 0.07867 0.5073 0.73671 0.0
C1657 C 0.07978 0.59672 0.70561 0.0
C1658 C 0.06482 0.57289 0.68735 0.0
H1659 H 0.10916 0.60623 0.74694 0.0
H1660 H 0.08156 0.62138 0.69636 0.0
C1661 C 0.06274 0.54115 0.70005 0.0
C1662 C 0.29119 0.39165 0.41454 0.0
C1663 C 0.29033 0.37288 0.44387 0.0
H1664 H 0.28794 0.39303 0.36185 0.0
C1665 C 0.28397 0.33957 0.44074 0.0
H1666 H 0.29584 0.41736 0.41549 0.0
C1667 C 0.27889 0.32563 0.40984 0.0
C1668 C 0.28004 0.34425 0.38042 0.0
H1669 H 0.28285 0.32406 0.46235 0.0
H1670 H 0.27455 0.29985 0.40902 0.0
C1671 C 0.28637 0.37763 0.38352 0.0
C1672 C 0.39128 0.50195 0.52261 0.0
C1673 C 0.38756 0.47183 0.5392 0.0
H1674 H 0.423 0.54239 0.51069 0.0
C1675 C 0.41431 0.46077 0.55834 0.0
H1676 H 0.37139 0.51148 0.50763 0.0
C1677 C 0.44346 0.47904 0.56096 0.0
C1678 C 0.44758 0.50886 0.54393 0.0
H1679 H 0.41262 0.43794 0.57168 0.0
H1680 H 0.46328 0.46923 0.57585 0.0
C1681 C 0.42095 0.51986 0.52449 0.0
C1682 C 0.865 0.08847 0.52617 0.0
C1683 C 0.86997 0.12115 0.51761 0.0
H1684 H 0.8861 0.04 0.52529 0.0
C1685 C 0.8965 0.12933 0.49609 0.0
H1686 H 0.84409 0.08172 0.54221 0.0
C1687 C 0.91932 0.10555 0.48519 0.0
C1688 C 0.91665 0.07334 0.49654 0.0
H1689 H 0.90004 0.15427 0.48822 0.0
H1690 H 0.94069 0.1129 0.47003 0.0
C1691 C 0.88851 0.06459 0.51591 0.0
C1692 C 0.75603 0.10843 0.30592 0.0
C1693 C 0.73941 0.09138 0.28235 0.0
H1694 H 0.78293 0.15075 0.31627 0.0
C1695 C 0.74145 0.10155 0.24946 0.0
H1696 H 0.75525 0.10063 0.33137 0.0
C1697 C 0.75681 0.13059 0.24091 0.0
C1698 C 0.77037 0.14942 0.26519 0.0
H1699 H 0.72881 0.08862 0.23087 0.0
H1700 H 0.75571 0.13947 0.21591 0.0
C1701 C 0.77161 0.13716 0.29735 0.0
C1702 C 0.67343 0.95426 0.02686 0.0
C1703 C 0.69954 0.96671 0.04466 0.0
H1704 H 0.62273 0.96003 0.01173 0.0
C1705 C 0.69297 0.99569 0.06195 0.0
H1706 H 0.67743 0.93211 0.01315 0.0
C1707 C 0.66114 0.01151 0.06166 0.0
C1708 C 0.63519 0.99924 0.0434 0.0
H1709 H 0.71238 1.00603 0.07596 0.0
H1710 H 0.65699 0.03362 0.0754 0.0
C1711 C 0.64196 0.97041 0.02595 0.0
C1712 C 0.34128 0.4823 0.2782 0.0
C1713 C 0.35215 0.49915 0.24991 0.0
H1714 H 0.31854 0.43982 0.29795 0.0
C1715 C 0.34627 0.48663 0.21901 0.0
H1716 H 0.34521 0.49171 0.30231 0.0
C1717 C 0.33152 0.4566 0.2165 0.0
C1718 C 0.32229 0.43885 0.24486 0.0
H1719 H 0.35452 0.49923 0.19683 0.0
H1720 H 0.32876 0.4467 0.19243 0.0
C1721 C 0.32633 0.45247 0.27569 0.0
C1722 C 0.22379 0.61527 0.08725 0.0
C1723 C 0.2212 0.64077 0.0642 0.0
H1724 H 0.19883 0.57594 0.11176 0.0
C1725 C 0.19021 0.64868 0.05092 0.0
H1726 H 0.24752 0.60887 0.09791 0.0
C1727 C 0.16259 0.63022 0.05909 0.0
C1728 C 0.16555 0.60329 0.08036 0.0
H1729 H 0.18748 0.66861 0.03355 0.0
H1730 H 0.13904 0.63653 0.04805 0.0
C1731 C 0.19604 0.59655 0.09527 0.0
C1732 C 0.74329 0.93422 0.33267 0.0
C1733 C 0.71212 0.93808 0.31829 0.0
H1734 H 0.78421 0.90169 0.34303 0.0
C1735 C 0.69625 0.91105 0.30641 0.0
H1736 H 0.75577 0.95481 0.34231 0.0
C1737 C 0.71215 0.88068 0.30736 0.0
C1738 C 0.74433 0.87714 0.31976 0.0
H1739 H 0.67191 0.91348 0.29571 0.0
H1740 H 0.69995 0.8604 0.29679 0.0
C1741 C 0.75943 0.9039 0.33324 0.0
C1742 C 0.89665 0.19927 0.77239 0.0
C1743 C 0.87506 0.17781 0.75815 0.0
H1744 H 0.90201 0.24587 0.79322 0.0
C1745 C 0.84218 0.18806 0.75152 0.0
H1746 H 0.92211 0.19191 0.77782 0.0
C1747 C 0.83088 0.21938 0.75981 0.0
C1748 C 0.85212 0.23998 0.77571 0.0
H1749 H 0.82522 0.17178 0.74047 0.0
H1750 H 0.80537 0.22704 0.75499 0.0
C1751 C 0.88513 0.22997 0.78148 0.0
loop_
_geom_bond_atom_site_label_1
_geom_bond_atom_site_label_2
_geom_bond_distance
_geom_bond_site_symmetry_2
_ccdc_geom_bond_type
In0 O1 2.294 . S
In0 O2 2.326 . S
In0 O6 2.266 . S
In0 O7 2.326 . S
In0 O8 2.266 . S
In0 O9 2.326 . S
In0 O11 2.294 1_455 S
In0 O12 2.326 1_455 S
O1 In0 2.294 . S
O1 C10 1.240 . S
O2 In0 2.326 . S
O2 C10 1.252 . S
C3 O6 1.252 . S
C3 O7 1.260 . S
C4 O11 1.240 . S
C4 O12 1.252 . S
C5 O8 1.252 . S
C5 O9 1.260 . S
O6 In0 2.266 . S
O6 C3 1.252 . S
O7 In0 2.326 . S
O7 C3 1.260 . S
O8 In0 2.266 . S
O8 C5 1.252 . S
O9 In0 2.326 . S
O9 C5 1.260 . S
C10 O1 1.240 . S
C10 O2 1.252 . S
O11 In0 2.294 1_655 S
O11 C4 1.240 . S
O12 In0 2.326 1_655 S
O12 C4 1.252 . S
In13 O14 2.294 . S
In13 O15 2.326 . S
In13 O19 2.266 . S
In13 O20 2.326 . S
In13 O21 2.266 . S
In13 O22 2.326 . S
In13 O24 2.294 . S
In13 O25 2.326 . S
O14 In13 2.294 . S
O14 C23 1.240 . S
O15 In13 2.326 . S
O15 C23 1.252 . S
C16 O19 1.252 . S
C16 O20 1.260 . S
C17 O24 1.240 . S
C17 O25 1.252 . S
C18 O21 1.252 . S
C18 O22 1.260 . S
O19 In13 2.266 . S
O19 C16 1.252 . S
O20 In13 2.326 . S
O20 C16 1.260 . S
O21 In13 2.266 . S
O21 C18 1.252 . S
O22 In13 2.326 . S
O22 C18 1.260 . S
C23 O14 1.240 . S
C23 O15 1.252 . S
O24 In13 2.294 . S
O24 C17 1.240 . S
O25 In13 2.326 . S
O25 C17 1.252 . S
In26 O27 2.294 . S
In26 O28 2.326 . S
In26 O32 2.266 . S
In26 O33 2.326 . S
In26 O34 2.266 . S
In26 O35 2.326 . S
In26 O37 2.294 . S
In26 O38 2.326 . S
O27 In26 2.294 . S
O27 C36 1.240 . S
O28 In26 2.326 . S
O28 C36 1.252 . S
C29 O32 1.252 . S
C29 O33 1.260 . S
C30 O37 1.240 . S
C30 O38 1.252 . S
C31 O34 1.252 . S
C31 O35 1.260 . S
O32 In26 2.266 . S
O32 C29 1.252 . S
O33 In26 2.326 . S
O33 C29 1.260 . S
O34 In26 2.266 . S
O34 C31 1.252 . S
O35 In26 2.326 . S
O35 C31 1.260 . S
C36 O27 1.240 . S
C36 O28 1.252 . S
O37 In26 2.294 . S
O37 C30 1.240 . S
O38 In26 2.326 . S
O38 C30 1.252 . S
In39 O40 2.294 . S
In39 O41 2.326 . S
In39 O45 2.266 . S
In39 O46 2.326 . S
In39 O47 2.266 . S
In39 O48 2.326 . S
In39 O50 2.294 . S
In39 O51 2.326 . S
O40 In39 2.294 . S
O40 C49 1.240 . S
O41 In39 2.326 . S
O41 C49 1.252 . S
C42 O45 1.252 . S
C42 O46 1.260 . S
C43 O50 1.240 . S
C43 O51 1.252 . S
C44 O47 1.252 . S
C44 O48 1.260 . S
O45 In39 2.266 . S
O45 C42 1.252 . S
O46 In39 2.326 . S
O46 C42 1.260 . S
O47 In39 2.266 . S
O47 C44 1.252 . S
O48 In39 2.326 . S
O48 C44 1.260 . S
C49 O40 1.240 . S
C49 O41 1.252 . S
O50 In39 2.294 . S
O50 C43 1.240 . S
O51 In39 2.326 . S
O51 C43 1.252 . S
In52 O53 2.294 1_545 S
In52 O54 2.326 1_545 S
In52 O58 2.266 . S
In52 O59 2.326 . S
In52 O60 2.266 . S
In52 O61 2.326 . S
In52 O63 2.296 . S
In52 O64 2.326 . S
O53 In52 2.294 1_565 S
O53 C62 1.240 . S
O54 In52 2.326 1_565 S
O54 C62 1.252 . S
C55 O58 1.252 . S
C55 O59 1.260 . S
C56 O63 1.240 . S
C56 O64 1.252 . S
C57 O60 1.252 . S
C57 O61 1.260 . S
O58 In52 2.266 . S
O58 C55 1.252 . S
O59 In52 2.326 . S
O59 C55 1.260 . S
O60 In52 2.266 . S
O60 C57 1.252 . S
O61 In52 2.326 . S
O61 C57 1.260 . S
C62 O53 1.240 . S
C62 O54 1.252 . S
O63 In52 2.296 . S
O63 C56 1.240 . S
O64 In52 2.326 . S
O64 C56 1.252 . S
In65 O66 2.294 . S
In65 O67 2.326 . S
In65 O71 2.266 . S
In65 O72 2.326 . S
In65 O73 2.266 . S
In65 O74 2.326 . S
In65 O76 2.294 . S
In65 O77 2.326 . S
O66 In65 2.294 . S
O66 C75 1.240 . S
O67 In65 2.326 . S
O67 C75 1.252 . S
C68 O71 1.252 . S
C68 O72 1.260 . S
C69 O76 1.240 . S
C69 O77 1.252 . S
C70 O73 1.252 . S
C70 O74 1.260 . S
O71 In65 2.266 . S
O71 C68 1.252 . S
O72 In65 2.326 . S
O72 C68 1.260 . S
O73 In65 2.266 . S
O73 C70 1.252 . S
O74 In65 2.326 . S
O74 C70 1.260 . S
C75 O66 1.240 . S
C75 O67 1.252 . S
O76 In65 2.294 . S
O76 C69 1.240 . S
O77 In65 2.326 . S
O77 C69 1.252 . S
In78 O79 2.294 . S
In78 O80 2.326 . S
In78 O84 2.266 . S
In78 O85 2.326 . S
In78 O86 2.266 . S
In78 O87 2.326 . S
In78 O89 2.294 . S
In78 O90 2.326 . S
O79 In78 2.294 . S
O79 C88 1.240 . S
O80 In78 2.326 . S
O80 C88 1.252 . S
C81 O84 1.252 . S
C81 O85 1.260 . S
C82 O89 1.240 . S
C82 O90 1.252 . S
C83 O86 1.252 . S
C83 O87 1.260 . S
O84 In78 2.266 . S
O84 C81 1.252 . S
O85 In78 2.326 . S
O85 C81 1.260 . S
O86 In78 2.266 . S
O86 C83 1.252 . S
O87 In78 2.326 . S
O87 C83 1.260 . S
C88 O79 1.240 . S
C88 O80 1.252 . S
O89 In78 2.294 . S
O89 C82 1.240 . S
O90 In78 2.326 . S
O90 C82 1.252 . S
In91 O92 2.294 . S
In91 O93 2.326 . S
In91 O97 2.266 . S
In91 O98 2.326 . S
In91 O99 2.266 . S
In91 O100 2.326 1_554 S
In91 O102 2.294 . S
In91 O103 2.326 . S
O92 In91 2.294 . S
O92 C101 1.240 . S
O93 In91 2.326 . S
O93 C101 1.252 . S
C94 O97 1.252 . S
C94 O98 1.260 . S
C95 O102 1.240 . S
C95 O103 1.252 . S
C96 O99 1.252 1_556 S
C96 O100 1.260 . S
O97 In91 2.266 . S
O97 C94 1.252 . S
O98 In91 2.326 . S
O98 C94 1.260 . S
O99 In91 2.266 . S
O99 C96 1.252 1_554 S
O100 In91 2.326 1_556 S
O100 C96 1.260 . S
C101 O92 1.240 . S
C101 O93 1.252 . S
O102 In91 2.294 . S
O102 C95 1.240 . S
O103 In91 2.326 . S
O103 C95 1.252 . S
In104 O105 2.294 . S
In104 O106 2.326 . S
In104 O110 2.266 . S
In104 O111 2.326 . S
In104 O112 2.266 . S
In104 O113 2.326 . S
In104 O115 2.294 . S
In104 O116 2.326 . S
O105 In104 2.294 . S
O105 C114 1.240 . S
O106 In104 2.326 . S
O106 C114 1.252 . S
C107 O110 1.252 . S
C107 O111 1.260 . S
C108 O115 1.240 . S
C108 O116 1.252 . S
C109 O112 1.252 . S
C109 O113 1.260 . S
O110 In104 2.266 . S
O110 C107 1.252 . S
O111 In104 2.326 . S
O111 C107 1.260 . S
O112 In104 2.266 . S
O112 C109 1.252 . S
O113 In104 2.326 . S
O113 C109 1.260 . S
C114 O105 1.240 . S
C114 O106 1.252 . S
O115 In104 2.294 . S
O115 C108 1.240 . S
O116 In104 2.326 . S
O116 C108 1.252 . S
In117 O118 2.294 . S
In117 O119 2.326 . S
In117 O123 2.266 . S
In117 O124 2.326 . S
In117 O125 2.266 . S
In117 O126 2.326 . S
In117 O128 2.294 . S
In117 O129 2.326 . S
O118 In117 2.294 . S
O118 C127 1.240 . S
O119 In117 2.326 . S
O119 C127 1.252 . S
C120 O123 1.252 . S
C120 O124 1.260 . S
C121 O128 1.240 . S
C121 O129 1.252 . S
C122 O125 1.252 . S
C122 O126 1.260 . S
O123 In117 2.266 . S
O123 C120 1.252 . S
O124 In117 2.326 . S
O124 C120 1.260 . S
O125 In117 2.266 . S
O125 C122 1.252 . S
O126 In117 2.326 . S
O126 C122 1.260 . S
C127 O118 1.240 . S
C127 O119 1.252 . S
O128 In117 2.294 . S
O128 C121 1.240 . S
O129 In117 2.326 . S
O129 C121 1.252 . S
In130 O131 2.294 . S
In130 O132 2.326 . S
In130 O136 2.266 . S
In130 O137 2.326 . S
In130 O138 2.266 . S
In130 O139 2.326 . S
In130 O141 2.294 . S
In130 O142 2.326 . S
O131 In130 2.294 . S
O131 C140 1.240 . S
O132 In130 2.326 . S
O132 C140 1.252 . S
C133 O136 1.252 . S
C133 O137 1.260 . S
C134 O141 1.240 . S
C134 O142 1.252 . S
C135 O138 1.252 . S
C135 O139 1.260 . S
O136 In130 2.266 . S
O136 C133 1.252 . S
O137 In130 2.326 . S
O137 C133 1.260 . S
O138 In130 2.266 . S
O138 C135 1.252 . S
O139 In130 2.326 . S
O139 C135 1.260 . S
C140 O131 1.240 . S
C140 O132 1.252 . S
O141 In130 2.294 . S
O141 C134 1.240 . S
O142 In130 2.326 . S
O142 C134 1.252 . S
In143 O144 2.294 . S
In143 O145 2.326 . S
In143 O149 2.266 . S
In143 O150 2.326 . S
In143 O151 2.266 . S
In143 O152 2.326 . S
In143 O154 2.294 . S
In143 O155 2.326 . S
O144 In143 2.294 . S
O144 C153 1.240 . S
O145 In143 2.326 . S
O145 C153 1.252 . S
C146 O149 1.252 . S
C146 O150 1.260 . S
C147 O154 1.240 . S
C147 O155 1.252 . S
C148 O151 1.252 . S
C148 O152 1.260 . S
O149 In143 2.266 . S
O149 C146 1.252 . S
O150 In143 2.326 . S
O150 C146 1.260 . S
O151 In143 2.266 . S
O151 C148 1.252 . S
O152 In143 2.326 . S
O152 C148 1.260 . S
C153 O144 1.240 . S
C153 O145 1.252 . S
O154 In143 2.294 . S
O154 C147 1.240 . S
O155 In143 2.326 . S
O155 C147 1.252 . S
In156 O157 2.294 . S
In156 O158 2.326 . S
In156 O162 2.266 1_455 S
In156 O163 2.326 1_455 S
In156 O164 2.266 . S
In156 O165 2.326 . S
In156 O167 2.294 . S
In156 O168 2.326 . S
O157 In156 2.294 . S
O157 C166 1.240 . S
O158 In156 2.326 . S
O158 C166 1.252 . S
C159 O162 1.252 . S
C159 O163 1.260 . S
C160 O167 1.240 . S
C160 O168 1.252 . S
C161 O164 1.252 . S
C161 O165 1.260 . S
O162 In156 2.266 1_655 S
O162 C159 1.252 . S
O163 In156 2.326 1_655 S
O163 C159 1.260 . S
O164 In156 2.266 . S
O164 C161 1.252 . S
O165 In156 2.326 . S
O165 C161 1.260 . S
C166 O157 1.240 . S
C166 O158 1.252 . S
O167 In156 2.294 . S
O167 C160 1.240 . S
O168 In156 2.326 . S
O168 C160 1.252 . S
In169 O170 2.294 . S
In169 O171 2.327 . S
In169 O175 2.266 1_455 S
In169 O176 2.325 1_455 S
In169 O177 2.264 1_455 S
In169 O178 2.322 1_455 S
In169 O180 2.296 . S
In169 O181 2.329 . S
O170 In169 2.294 . S
O170 C179 1.240 . S
O171 In169 2.327 . S
O171 C179 1.252 . S
C172 O175 1.252 . S
C172 O176 1.260 . S
C173 O180 1.240 . S
C173 O181 1.252 . S
C174 O177 1.252 . S
C174 O178 1.260 . S
O175 In169 2.266 1_655 S
O175 C172 1.252 . S
O176 In169 2.325 1_655 S
O176 C172 1.260 . S
O177 In169 2.264 1_655 S
O177 C174 1.252 . S
O178 In169 2.322 1_655 S
O178 C174 1.260 . S
C179 O170 1.240 . S
C179 O171 1.252 . S
O180 In169 2.296 . S
O180 C173 1.240 . S
O181 In169 2.329 . S
O181 C173 1.252 . S
In182 O183 2.294 . S
In182 O184 2.326 . S
In182 O188 2.266 . S
In182 O189 2.326 . S
In182 O190 2.266 . S
In182 O191 2.326 . S
In182 O193 2.294 . S
In182 O194 2.326 . S
O183 In182 2.294 . S
O183 C192 1.240 . S
O184 In182 2.326 . S
O184 C192 1.252 . S
C185 O188 1.252 . S
C185 O189 1.260 . S
C186 O193 1.240 . S
C186 O194 1.252 . S
C187 O190 1.252 . S
C187 O191 1.260 . S
O188 In182 2.266 . S
O188 C185 1.252 . S
O189 In182 2.326 . S
O189 C185 1.260 . S
O190 In182 2.266 . S
O190 C187 1.252 . S
O191 In182 2.326 . S
O191 C187 1.260 . S
C192 O183 1.240 . S
C192 O184 1.252 . S
O193 In182 2.294 . S
O193 C186 1.240 . S
O194 In182 2.326 . S
O194 C186 1.252 . S
In195 O196 2.294 . S
In195 O197 2.326 . S
In195 O201 2.266 . S
In195 O202 2.326 . S
In195 O203 2.266 . S
In195 O204 2.326 . S
In195 O206 2.294 . S
In195 O207 2.326 . S
O196 In195 2.294 . S
O196 C205 1.240 . S
O197 In195 2.326 . S
O197 C205 1.252 . S
C198 O201 1.252 . S
C198 O202 1.260 . S
C199 O206 1.240 . S
C199 O207 1.252 . S
C200 O203 1.252 . S
C200 O204 1.260 . S
O201 In195 2.266 . S
O201 C198 1.252 . S
O202 In195 2.326 . S
O202 C198 1.260 . S
O203 In195 2.266 . S
O203 C200 1.252 . S
O204 In195 2.326 . S
O204 C200 1.260 . S
C205 O196 1.240 . S
C205 O197 1.252 . S
O206 In195 2.294 . S
O206 C199 1.240 . S
O207 In195 2.326 . S
O207 C199 1.252 . S
In208 O209 2.294 . S
In208 O210 2.326 . S
In208 O214 2.266 . S
In208 O215 2.326 . S
In208 O216 2.266 . S
In208 O217 2.326 . S
In208 O219 2.294 . S
In208 O220 2.326 . S
O209 In208 2.294 . S
O209 C218 1.240 . S
O210 In208 2.326 . S
O210 C218 1.252 . S
C211 O214 1.252 . S
C211 O215 1.260 . S
C212 O219 1.240 . S
C212 O220 1.252 . S
C213 O216 1.252 . S
C213 O217 1.260 . S
O214 In208 2.266 . S
O214 C211 1.252 . S
O215 In208 2.326 . S
O215 C211 1.260 . S
O216 In208 2.266 . S
O216 C213 1.252 . S
O217 In208 2.326 . S
O217 C213 1.260 . S
C218 O209 1.240 . S
C218 O210 1.252 . S
O219 In208 2.294 . S
O219 C212 1.240 . S
O220 In208 2.326 . S
O220 C212 1.252 . S
In221 O222 2.294 . S
In221 O223 2.326 . S
In221 O227 2.266 . S
In221 O228 2.326 . S
In221 O229 2.266 . S
In221 O230 2.326 . S
In221 O232 2.294 . S
In221 O233 2.326 . S
O222 In221 2.294 . S
O222 C231 1.240 . S
O223 In221 2.326 . S
O223 C231 1.252 . S
C224 O227 1.252 . S
C224 O228 1.260 . S
C225 O232 1.240 . S
C225 O233 1.252 . S
C226 O229 1.252 . S
C226 O230 1.260 . S
O227 In221 2.266 . S
O227 C224 1.252 . S
O228 In221 2.326 . S
O228 C224 1.260 . S
O229 In221 2.266 . S
O229 C226 1.252 . S
O230 In221 2.326 . S
O230 C226 1.260 . S
C231 O222 1.240 . S
C231 O223 1.252 . S
O232 In221 2.294 . S
O232 C225 1.240 . S
O233 In221 2.326 . S
O233 C225 1.252 . S
In234 O235 2.294 1_545 S
In234 O236 2.326 1_545 S
In234 O240 2.266 . S
In234 O241 2.326 . S
In234 O242 2.266 . S
In234 O243 2.326 . S
In234 O245 2.294 . S
In234 O246 2.326 . S
O235 In234 2.294 1_565 S
O235 C244 1.240 . S
O236 In234 2.326 1_565 S
O236 C244 1.252 . S
C237 O240 1.252 . S
C237 O241 1.260 . S
C238 O245 1.240 . S
C238 O246 1.256 . S
C239 O242 1.252 . S
C239 O243 1.260 . S
O240 In234 2.266 . S
O240 C237 1.252 . S
O241 In234 2.326 . S
O241 C237 1.260 . S
O242 In234 2.266 . S
O242 C239 1.252 . S
O243 In234 2.326 . S
O243 C239 1.260 . S
C244 O235 1.240 . S
C244 O236 1.252 . S
O245 In234 2.294 . S
O245 C238 1.240 . S
O246 In234 2.326 . S
O246 C238 1.256 . S
In247 O248 2.294 . S
In247 O249 2.326 . S
In247 O253 2.266 . S
In247 O254 2.326 . S
In247 O255 2.266 1_554 S
In247 O256 2.326 1_554 S
In247 O258 2.294 . S
In247 O259 2.326 . S
O248 In247 2.294 . S
O248 C257 1.240 . S
O249 In247 2.326 . S
O249 C257 1.252 . S
C250 O253 1.252 . S
C250 O254 1.260 . S
C251 O258 1.240 . S
C251 O259 1.252 . S
C252 O255 1.252 . S
C252 O256 1.260 . S
O253 In247 2.266 . S
O253 C250 1.252 . S
O254 In247 2.326 . S
O254 C250 1.260 . S
O255 In247 2.266 1_556 S
O255 C252 1.252 . S
O256 In247 2.326 1_556 S
O256 C252 1.260 . S
C257 O248 1.240 . S
C257 O249 1.252 . S
O258 In247 2.294 . S
O258 C251 1.240 . S
O259 In247 2.326 . S
O259 C251 1.252 . S
In260 O261 2.296 . S
In260 O262 2.329 . S
In260 O266 2.264 1_554 S
In260 O267 2.322 1_554 S
In260 O268 2.266 1_554 S
In260 O269 2.325 1_554 S
In260 O271 2.294 . S
In260 O272 2.327 . S
O261 In260 2.296 . S
O261 C270 1.240 . S
O262 In260 2.329 . S
O262 C270 1.252 . S
C263 O266 1.252 . S
C263 O267 1.260 . S
C264 O271 1.240 . S
C264 O272 1.252 . S
C265 O268 1.252 . S
C265 O269 1.260 . S
O266 In260 2.264 1_556 S
O266 C263 1.252 . S
O267 In260 2.322 1_556 S
O267 C263 1.260 . S
O268 In260 2.266 1_556 S
O268 C265 1.252 . S
O269 In260 2.325 1_556 S
O269 C265 1.260 . S
C270 O261 1.240 . S
C270 O262 1.252 . S
O271 In260 2.294 . S
O271 C264 1.240 . S
O272 In260 2.327 . S
O272 C264 1.252 . S
In273 O274 2.294 . S
In273 O275 2.326 . S
In273 O279 2.266 . S
In273 O280 2.326 . S
In273 O281 2.266 . S
In273 O282 2.326 . S
In273 O284 2.294 . S
In273 O285 2.326 . S
O274 In273 2.294 . S
O274 C283 1.240 . S
O275 In273 2.326 . S
O275 C283 1.252 . S
C276 O279 1.252 . S
C276 O280 1.260 . S
C277 O284 1.240 . S
C277 O285 1.252 . S
C278 O281 1.252 . S
C278 O282 1.260 . S
O279 In273 2.266 . S
O279 C276 1.252 . S
O280 In273 2.326 . S
O280 C276 1.260 . S
O281 In273 2.266 . S
O281 C278 1.252 . S
O282 In273 2.326 . S
O282 C278 1.260 . S
C283 O274 1.240 . S
C283 O275 1.252 . S
O284 In273 2.294 . S
O284 C277 1.240 . S
O285 In273 2.326 . S
O285 C277 1.252 . S
In286 O287 2.294 . S
In286 O288 2.326 . S
In286 O292 2.266 . S
In286 O293 2.326 . S
In286 O294 2.266 . S
In286 O295 2.326 . S
In286 O297 2.294 . S
In286 O298 2.326 . S
O287 In286 2.294 . S
O287 C296 1.240 . S
O288 In286 2.326 . S
O288 C296 1.252 . S
C289 O292 1.252 . S
C289 O293 1.260 . S
C290 O297 1.240 . S
C290 O298 1.252 . S
C291 O294 1.252 . S
C291 O295 1.260 . S
O292 In286 2.266 . S
O292 C289 1.252 . S
O293 In286 2.326 . S
O293 C289 1.260 . S
O294 In286 2.266 . S
O294 C291 1.252 . S
O295 In286 2.326 . S
O295 C291 1.260 . S
C296 O287 1.240 . S
C296 O288 1.252 . S
O297 In286 2.294 . S
O297 C290 1.240 . S
O298 In286 2.326 . S
O298 C290 1.252 . S
In299 O300 2.294 . S
In299 O301 2.326 . S
In299 O305 2.266 . S
In299 O306 2.326 . S
In299 O307 2.266 . S
In299 O308 2.326 . S
In299 O310 2.294 . S
In299 O311 2.326 . S
O300 In299 2.294 . S
O300 C309 1.240 . S
O301 In299 2.326 . S
O301 C309 1.252 . S
C302 O305 1.252 . S
C302 O306 1.260 . S
C303 O310 1.240 . S
C303 O311 1.252 . S
C304 O307 1.252 . S
C304 O308 1.260 . S
O305 In299 2.266 . S
O305 C302 1.252 . S
O306 In299 2.326 . S
O306 C302 1.260 . S
O307 In299 2.266 . S
O307 C304 1.252 . S
O308 In299 2.326 . S
O308 C304 1.260 . S
C309 O300 1.240 . S
C309 O301 1.252 . S
O310 In299 2.294 . S
O310 C303 1.240 . S
O311 In299 2.326 . S
O311 C303 1.252 . S
Co312 N317 2.057 . S
Co312 O329 2.021 1_545 S
Co312 O332 2.062 1_456 S
Co312 O336 2.117 1_556 S
Co312 O337 2.020 . S
C313 O333 1.259 . S
C313 O336 1.258 . S
Co314 N323 2.055 1_545 S
Co314 O330 2.117 1_545 S
Co314 O331 2.020 1_455 S
Co314 O333 2.021 . S
Co314 O338 2.062 . S
C315 N317 1.316 1_655 S
C315 N318 1.347 . S
C315 H320 0.931 1_655 S
C316 N317 1.375 1_655 S
C316 C319 1.350 . S
C316 H321 0.930 . S
N317 Co312 2.057 . S
N317 C315 1.316 1_455 S
N317 C316 1.375 1_455 S
N318 C315 1.347 . S
N318 C319 1.373 . S
C319 C316 1.350 . S
C319 N318 1.373 . S
C319 H340 0.931 . S
H320 C315 0.931 1_455 S
H321 C316 0.930 . S
C322 O329 1.259 1_554 S
C322 O330 1.258 . S
N323 Co314 2.055 1_565 S
N323 C324 1.314 1_565 S
N323 C325 1.379 . S
C324 N323 1.314 1_545 S
C324 N326 1.347 1_545 S
C324 H335 0.931 . S
C325 N323 1.379 . S
C325 C327 1.350 . S
C325 H334 0.930 . S
N326 C324 1.347 1_565 S
N326 C327 1.373 . S
C327 C325 1.350 . S
C327 N326 1.373 . S
C327 H341 0.931 . S
C328 O331 1.256 . S
C328 O332 1.255 . S
O329 Co312 2.021 1_565 S
O329 C322 1.259 1_556 S
O330 Co314 2.117 1_565 S
O330 C322 1.258 . S
O331 Co314 2.020 1_655 S
O331 C328 1.256 . S
O332 Co312 2.062 1_654 S
O332 C328 1.255 . S
O333 C313 1.259 . S
O333 Co314 2.021 . S
H334 C325 0.930 . S
H335 C324 0.931 . S
O336 Co312 2.117 1_554 S
O336 C313 1.258 . S
O337 Co312 2.020 . S
O337 C339 1.256 1_556 S
O338 Co314 2.062 . S
O338 C339 1.255 . S
C339 O337 1.256 1_554 S
C339 O338 1.255 . S
H340 C319 0.931 . S
H341 C327 0.931 . S
Co342 N347 2.057 . S
Co342 O359 2.021 . S
Co342 O362 2.062 . S
Co342 O366 2.117 . S
Co342 O367 2.020 . S
C343 O363 1.259 . S
C343 O366 1.258 . S
Co344 N353 2.057 . S
Co344 O360 2.117 . S
Co344 O361 2.020 . S
Co344 O363 2.021 . S
Co344 O368 2.062 . S
C345 N347 1.316 . S
C345 N348 1.347 . S
C345 H350 0.931 . S
C346 N347 1.375 . S
C346 C349 1.350 . S
C346 H351 0.930 . S
N347 Co342 2.057 . S
N347 C345 1.316 . S
N347 C346 1.375 . S
N348 C345 1.347 . S
N348 C349 1.373 . S
C349 C346 1.350 . S
C349 N348 1.373 . S
C349 H370 0.931 . S
H350 C345 0.931 . S
H351 C346 0.930 . S
C352 O359 1.259 . S
C352 O360 1.258 . S
N353 Co344 2.057 . S
N353 C354 1.316 . S
N353 C355 1.375 . S
C354 N353 1.316 . S
C354 N356 1.347 . S
C354 H365 0.931 . S
C355 N353 1.375 . S
C355 C357 1.350 . S
C355 H364 0.930 . S
N356 C354 1.347 . S
N356 C357 1.373 . S
C357 C355 1.350 . S
C357 N356 1.373 . S
C357 H371 0.931 . S
C358 O361 1.256 . S
C358 O362 1.255 . S
O359 Co342 2.021 . S
O359 C352 1.259 . S
O360 Co344 2.117 . S
O360 C352 1.258 . S
O361 Co344 2.020 . S
O361 C358 1.256 . S
O362 Co342 2.062 . S
O362 C358 1.255 . S
O363 C343 1.259 . S
O363 Co344 2.021 . S
H364 C355 0.930 . S
H365 C354 0.931 . S
O366 Co342 2.117 . S
O366 C343 1.258 . S
O367 Co342 2.020 . S
O367 C369 1.256 . S
O368 Co344 2.062 . S
O368 C369 1.255 . S
C369 O367 1.256 . S
C369 O368 1.255 . S
H370 C349 0.931 . S
H371 C357 0.931 . S
Co372 N377 2.057 . S
Co372 O389 2.021 1_545 S
Co372 O392 2.062 . S
Co372 O396 2.117 . S
Co372 O397 2.020 . S
C373 O393 1.259 . S
C373 O396 1.258 . S
Co374 N383 2.057 . S
Co374 O390 2.117 . S
Co374 O391 2.020 . S
Co374 O393 2.021 . S
Co374 O398 2.062 . S
C375 N377 1.316 1_565 S
C375 N378 1.347 1_565 S
C375 H380 0.931 . S
C376 N377 1.375 . S
C376 C379 1.350 . S
C376 H381 0.930 . S
N377 Co372 2.057 . S
N377 C375 1.316 1_545 S
N377 C376 1.375 . S
N378 C375 1.347 1_545 S
N378 C379 1.373 . S
C379 C376 1.350 . S
C379 N378 1.373 . S
C379 H400 0.931 . S
H380 C375 0.931 . S
H381 C376 0.930 . S
C382 O389 1.259 . S
C382 O390 1.258 1_565 S
N383 Co374 2.057 . S
N383 C384 1.316 . S
N383 C385 1.375 . S
C384 N383 1.316 . S
C384 N386 1.347 . S
C384 H395 0.931 . S
C385 N383 1.375 . S
C385 C387 1.350 . S
C385 H394 0.930 . S
N386 C384 1.347 . S
N386 C387 1.373 . S
C387 C385 1.350 . S
C387 N386 1.373 . S
C387 H401 0.931 . S
C388 O391 1.256 . S
C388 O392 1.255 . S
O389 Co372 2.021 1_565 S
O389 C382 1.259 . S
O390 Co374 2.117 . S
O390 C382 1.258 1_545 S
O391 Co374 2.020 . S
O391 C388 1.256 . S
O392 Co372 2.062 . S
O392 C388 1.255 . S
O393 C373 1.259 . S
O393 Co374 2.021 . S
H394 C385 0.930 . S
H395 C384 0.931 . S
O396 Co372 2.117 . S
O396 C373 1.258 . S
O397 Co372 2.020 . S
O397 C399 1.256 . S
O398 Co374 2.062 . S
O398 C399 1.255 . S
C399 O397 1.256 . S
C399 O398 1.255 . S
H400 C379 0.931 . S
H401 C387 0.931 . S
Co402 N407 2.057 . S
Co402 O419 2.021 . S
Co402 O422 2.062 . S
Co402 O426 2.117 . S
Co402 O427 2.020 . S
C403 O423 1.259 . S
C403 O426 1.258 . S
Co404 N413 2.057 . S
Co404 O420 2.117 . S
Co404 O421 2.020 . S
Co404 O423 2.021 . S
Co404 O428 2.062 . S
C405 N407 1.316 . S
C405 N408 1.347 . S
C405 H410 0.931 . S
C406 N407 1.375 . S
C406 C409 1.350 . S
C406 H411 0.930 . S
N407 Co402 2.057 . S
N407 C405 1.316 . S
N407 C406 1.375 . S
N408 C405 1.347 . S
N408 C409 1.373 . S
C409 C406 1.350 . S
C409 N408 1.373 . S
C409 H430 0.931 . S
H410 C405 0.931 . S
H411 C406 0.930 . S
C412 O419 1.259 . S
C412 O420 1.258 . S
N413 Co404 2.057 . S
N413 C414 1.316 . S
N413 C415 1.375 . S
C414 N413 1.316 . S
C414 N416 1.347 . S
C414 H425 0.931 . S
C415 N413 1.375 . S
C415 C417 1.350 . S
C415 H424 0.930 . S
N416 C414 1.347 . S
N416 C417 1.373 . S
C417 C415 1.350 . S
C417 N416 1.373 . S
C417 H431 0.931 . S
C418 O421 1.256 . S
C418 O422 1.255 . S
O419 Co402 2.021 . S
O419 C412 1.259 . S
O420 Co404 2.117 . S
O420 C412 1.258 . S
O421 Co404 2.020 . S
O421 C418 1.256 . S
O422 Co402 2.062 . S
O422 C418 1.255 . S
O423 C403 1.259 . S
O423 Co404 2.021 . S
H424 C415 0.930 . S
H425 C414 0.931 . S
O426 Co402 2.117 . S
O426 C403 1.258 . S
O427 Co402 2.020 . S
O427 C429 1.256 . S
O428 Co404 2.062 . S
O428 C429 1.255 . S
C429 O427 1.256 . S
C429 O428 1.255 . S
H430 C409 0.931 . S
H431 C417 0.931 . S
Co432 N437 2.057 1_545 S
Co432 O449 2.021 . S
Co432 O452 2.062 1_545 S
Co432 O456 2.117 1_455 S
Co432 O457 2.020 1_455 S
C433 O453 1.259 1_655 S
C433 O456 1.258 . S
Co434 N443 2.057 . S
Co434 O450 2.117 . S
Co434 O451 2.020 . S
Co434 O453 2.021 . S
Co434 O458 2.062 1_455 S
C435 N437 1.316 . S
C435 N438 1.347 1_455 S
C435 H440 0.931 . S
C436 N437 1.375 1_655 S
C436 C439 1.350 . S
C436 H441 0.930 . S
N437 Co432 2.057 1_565 S
N437 C435 1.316 . S
N437 C436 1.375 1_455 S
N438 C435 1.347 1_655 S
N438 C439 1.373 . S
C439 C436 1.350 . S
C439 N438 1.373 . S
C439 H460 0.931 . S
H440 C435 0.931 . S
H441 C436 0.930 . S
C442 O449 1.259 . S
C442 O450 1.258 . S
N443 Co434 2.057 . S
N443 C444 1.316 . S
N443 C445 1.375 . S
C444 N443 1.316 . S
C444 N446 1.347 . S
C444 H455 0.931 . S
C445 N443 1.375 . S
C445 C447 1.350 . S
C445 H454 0.930 . S
N446 C444 1.347 . S
N446 C447 1.373 . S
C447 C445 1.350 . S
C447 N446 1.373 . S
C447 H461 0.931 . S
C448 O451 1.256 . S
C448 O452 1.255 1_545 S
O449 Co432 2.021 . S
O449 C442 1.259 . S
O450 Co434 2.117 . S
O450 C442 1.258 . S
O451 Co434 2.020 . S
O451 C448 1.256 . S
O452 Co432 2.062 1_565 S
O452 C448 1.255 1_565 S
O453 C433 1.259 1_455 S
O453 Co434 2.021 . S
H454 C445 0.930 . S
H455 C444 0.931 . S
O456 Co432 2.117 1_655 S
O456 C433 1.258 . S
O457 Co432 2.020 1_655 S
O457 C459 1.256 . S
O458 Co434 2.062 1_655 S
O458 C459 1.255 . S
C459 O457 1.256 . S
C459 O458 1.255 . S
H460 C439 0.931 . S
H461 C447 0.931 . S
Co462 N467 2.057 . S
Co462 O479 2.021 . S
Co462 O482 2.062 . S
Co462 O486 2.117 . S
Co462 O487 2.020 . S
C463 O483 1.259 . S
C463 O486 1.258 . S
Co464 N473 2.057 . S
Co464 O480 2.117 . S
Co464 O481 2.020 . S
Co464 O483 2.021 . S
Co464 O488 2.062 . S
C465 N467 1.316 . S
C465 N468 1.347 . S
C465 H470 0.931 . S
C466 N467 1.375 . S
C466 C469 1.350 . S
C466 H471 0.930 . S
N467 Co462 2.057 . S
N467 C465 1.316 . S
N467 C466 1.375 . S
N468 C465 1.347 . S
N468 C469 1.373 . S
C469 C466 1.350 . S
C469 N468 1.373 . S
C469 H490 0.931 . S
H470 C465 0.931 . S
H471 C466 0.930 . S
C472 O479 1.259 . S
C472 O480 1.258 . S
N473 Co464 2.057 . S
N473 C474 1.316 . S
N473 C475 1.375 . S
C474 N473 1.316 . S
C474 N476 1.347 . S
C474 H485 0.931 . S
C475 N473 1.375 . S
C475 C477 1.350 . S
C475 H484 0.930 . S
N476 C474 1.347 . S
N476 C477 1.373 . S
C477 C475 1.350 . S
C477 N476 1.373 . S
C477 H491 0.931 . S
C478 O481 1.256 . S
C478 O482 1.255 . S
O479 Co462 2.021 . S
O479 C472 1.259 . S
O480 Co464 2.117 . S
O480 C472 1.258 . S
O481 Co464 2.020 . S
O481 C478 1.256 . S
O482 Co462 2.062 . S
O482 C478 1.255 . S
O483 C463 1.259 . S
O483 Co464 2.021 . S
H484 C475 0.930 . S
H485 C474 0.931 . S
O486 Co462 2.117 . S
O486 C463 1.258 . S
O487 Co462 2.020 . S
O487 C489 1.256 . S
O488 Co464 2.062 . S
O488 C489 1.255 . S
C489 O487 1.256 . S
C489 O488 1.255 . S
H490 C469 0.931 . S
H491 C477 0.931 . S
Co492 N497 2.057 1_554 S
Co492 O509 2.021 . S
Co492 O512 2.062 1_554 S
Co492 O516 2.117 . S
Co492 O517 2.020 1_545 S
C493 O513 1.259 . S
C493 O516 1.258 . S
Co494 N503 2.057 . S
Co494 O510 2.117 . S
Co494 O511 2.020 . S
Co494 O513 2.021 . S
Co494 O518 2.062 1_545 S
C495 N497 1.316 . S
C495 N498 1.347 . S
C495 H500 0.931 . S
C496 N497 1.375 1_565 S
C496 C499 1.350 . S
C496 H501 0.930 . S
N497 Co492 2.057 1_556 S
N497 C495 1.316 . S
N497 C496 1.375 1_545 S
N498 C495 1.347 . S
N498 C499 1.373 1_545 S
C499 C496 1.350 . S
C499 N498 1.373 1_565 S
C499 H520 0.931 . S
H500 C495 0.931 . S
H501 C496 0.930 . S
C502 O509 1.259 . S
C502 O510 1.258 . S
N503 Co494 2.057 . S
N503 C504 1.316 . S
N503 C505 1.375 . S
C504 N503 1.316 . S
C504 N506 1.347 . S
C504 H515 0.931 . S
C505 N503 1.375 . S
C505 C507 1.350 . S
C505 H514 0.930 . S
N506 C504 1.347 . S
N506 C507 1.373 . S
C507 C505 1.350 . S
C507 N506 1.373 . S
C507 H521 0.931 . S
C508 O511 1.256 . S
C508 O512 1.255 1_554 S
O509 Co492 2.021 . S
O509 C502 1.259 . S
O510 Co494 2.117 . S
O510 C502 1.258 . S
O511 Co494 2.020 . S
O511 C508 1.256 . S
O512 Co492 2.062 1_556 S
O512 C508 1.255 1_556 S
O513 C493 1.259 . S
O513 Co494 2.021 . S
H514 C505 0.930 . S
H515 C504 0.931 . S
O516 Co492 2.117 . S
O516 C493 1.258 . S
O517 Co492 2.020 1_565 S
O517 C519 1.256 . S
O518 Co494 2.062 1_565 S
O518 C519 1.255 . S
C519 O517 1.256 . S
C519 O518 1.255 . S
H520 C499 0.931 . S
H521 C507 0.931 . S
Co522 N527 2.057 . S
Co522 O539 2.021 . S
Co522 O542 2.062 . S
Co522 O546 2.117 . S
Co522 O547 2.020 . S
C523 O543 1.259 . S
C523 O546 1.258 . S
Co524 N533 2.057 . S
Co524 O540 2.117 . S
Co524 O541 2.020 . S
Co524 O543 2.021 . S
Co524 O548 2.062 . S
C525 N527 1.316 . S
C525 N528 1.347 . S
C525 H530 0.931 . S
C526 N527 1.375 . S
C526 C529 1.350 . S
C526 H531 0.930 . S
N527 Co522 2.057 . S
N527 C525 1.316 . S
N527 C526 1.375 . S
N528 C525 1.347 . S
N528 C529 1.373 . S
C529 C526 1.350 . S
C529 N528 1.373 . S
C529 H550 0.931 . S
H530 C525 0.931 . S
H531 C526 0.930 . S
C532 O539 1.259 . S
C532 O540 1.258 . S
N533 Co524 2.057 . S
N533 C534 1.316 . S
N533 C535 1.375 . S
C534 N533 1.316 . S
C534 N536 1.347 . S
C534 H545 0.931 . S
C535 N533 1.375 . S
C535 C537 1.350 . S
C535 H544 0.930 . S
N536 C534 1.347 . S
N536 C537 1.373 . S
C537 C535 1.350 . S
C537 N536 1.373 . S
C537 H551 0.931 . S
C538 O541 1.256 . S
C538 O542 1.255 . S
O539 Co522 2.021 . S
O539 C532 1.259 . S
O540 Co524 2.117 . S
O540 C532 1.258 . S
O541 Co524 2.020 . S
O541 C538 1.256 . S
O542 Co522 2.062 . S
O542 C538 1.255 . S
O543 C523 1.259 . S
O543 Co524 2.021 . S
H544 C535 0.930 . S
H545 C534 0.931 . S
O546 Co522 2.117 . S
O546 C523 1.258 . S
O547 Co522 2.020 . S
O547 C549 1.256 . S
O548 Co524 2.062 . S
O548 C549 1.255 . S
C549 O547 1.256 . S
C549 O548 1.255 . S
H550 C529 0.931 . S
H551 C537 0.931 . S
Co552 N557 2.057 . S
Co552 O569 2.021 1_554 S
Co552 O572 2.062 . S
Co552 O576 2.117 . S
Co552 O577 2.020 . S
C553 O573 1.259 . S
C553 O576 1.258 . S
Co554 N563 2.057 . S
Co554 O570 2.117 . S
Co554 O571 2.020 . S
Co554 O573 2.021 . S
Co554 O578 2.062 . S
C555 N557 1.312 1_556 S
C555 N558 1.345 1_556 S
C555 H560 0.936 . S
C556 N557 1.375 . S
C556 C559 1.350 . S
C556 H561 0.930 . S
N557 Co552 2.057 . S
N557 C555 1.312 1_554 S
N557 C556 1.375 . S
N558 C555 1.345 1_554 S
N558 C559 1.373 . S
C559 C556 1.350 . S
C559 N558 1.373 . S
C559 H580 0.931 . S
H560 C555 0.936 . S
H561 C556 0.930 . S
C562 O569 1.259 . S
C562 O570 1.258 1_556 S
N563 Co554 2.057 . S
N563 C564 1.316 . S
N563 C565 1.375 . S
C564 N563 1.316 . S
C564 N566 1.347 . S
C564 H575 0.931 . S
C565 N563 1.375 . S
C565 C567 1.350 . S
C565 H574 0.930 . S
N566 C564 1.347 . S
N566 C567 1.373 . S
C567 C565 1.350 . S
C567 N566 1.373 . S
C567 H581 0.931 . S
C568 O571 1.256 . S
C568 O572 1.255 . S
O569 Co552 2.021 1_556 S
O569 C562 1.259 . S
O570 Co554 2.117 . S
O570 C562 1.258 1_554 S
O571 Co554 2.020 . S
O571 C568 1.256 . S
O572 Co552 2.062 . S
O572 C568 1.255 . S
O573 C553 1.259 . S
O573 Co554 2.021 . S
H574 C565 0.930 . S
H575 C564 0.931 . S
O576 Co552 2.117 . S
O576 C553 1.258 . S
O577 Co552 2.020 . S
O577 C579 1.256 . S
O578 Co554 2.062 . S
O578 C579 1.255 . S
C579 O577 1.256 . S
C579 O578 1.255 . S
H580 C559 0.931 . S
H581 C567 0.931 . S
Co582 N587 2.057 . S
Co582 O599 2.021 . S
Co582 O602 2.062 . S
Co582 O606 2.117 . S
Co582 O607 2.020 . S
C583 O603 1.259 . S
C583 O606 1.258 . S
Co584 N593 2.057 . S
Co584 O600 2.117 . S
Co584 O601 2.020 . S
Co584 O603 2.021 . S
Co584 O608 2.062 . S
C585 N587 1.316 . S
C585 N588 1.347 . S
C585 H590 0.931 . S
C586 N587 1.375 . S
C586 C589 1.350 . S
C586 H591 0.930 . S
N587 Co582 2.057 . S
N587 C585 1.316 . S
N587 C586 1.375 . S
N588 C585 1.347 . S
N588 C589 1.373 . S
C589 C586 1.350 . S
C589 N588 1.373 . S
C589 H610 0.931 . S
H590 C585 0.931 . S
H591 C586 0.930 . S
C592 O599 1.259 . S
C592 O600 1.258 . S
N593 Co584 2.057 . S
N593 C594 1.316 . S
N593 C595 1.375 . S
C594 N593 1.316 . S
C594 N596 1.347 . S
C594 H605 0.931 . S
C595 N593 1.375 . S
C595 C597 1.350 . S
C595 H604 0.930 . S
N596 C594 1.347 . S
N596 C597 1.373 . S
C597 C595 1.350 . S
C597 N596 1.373 . S
C597 H611 0.931 . S
C598 O601 1.256 . S
C598 O602 1.255 . S
O599 Co582 2.021 . S
O599 C592 1.259 . S
O600 Co584 2.117 . S
O600 C592 1.258 . S
O601 Co584 2.020 . S
O601 C598 1.256 . S
O602 Co582 2.062 . S
O602 C598 1.255 . S
O603 C583 1.259 . S
O603 Co584 2.021 . S
H604 C595 0.930 . S
H605 C594 0.931 . S
O606 Co582 2.117 . S
O606 C583 1.258 . S
O607 Co582 2.020 . S
O607 C609 1.256 . S
O608 Co584 2.062 . S
O608 C609 1.255 . S
C609 O607 1.256 . S
C609 O608 1.255 . S
H610 C589 0.931 . S
H611 C597 0.931 . S
Co612 N617 2.057 . S
Co612 O629 2.021 1_455 S
Co612 O632 2.062 . S
Co612 O636 2.117 . S
Co612 O637 2.020 . S
C613 O633 1.259 . S
C613 O636 1.258 . S
Co614 N623 2.057 . S
Co614 O630 2.136 . S
Co614 O631 2.020 . S
Co614 O633 2.021 . S
Co614 O638 2.062 . S
C615 N617 1.316 1_655 S
C615 N618 1.347 1_655 S
C615 H620 0.931 . S
C616 N617 1.375 . S
C616 C619 1.350 . S
C616 H621 0.930 . S
N617 Co612 2.057 . S
N617 C615 1.316 1_455 S
N617 C616 1.375 . S
N618 C615 1.347 1_455 S
N618 C619 1.373 . S
C619 C616 1.350 . S
C619 N618 1.373 . S
C619 H640 0.931 . S
H620 C615 0.931 . S
H621 C616 0.930 . S
C622 O629 1.259 . S
C622 O630 1.243 1_655 S
N623 Co614 2.057 . S
N623 C624 1.316 . S
N623 C625 1.375 . S
C624 N623 1.316 . S
C624 N626 1.347 . S
C624 H635 0.931 . S
C625 N623 1.375 . S
C625 C627 1.350 . S
C625 H634 0.930 . S
N626 C624 1.347 . S
N626 C627 1.373 . S
C627 C625 1.350 . S
C627 N626 1.373 . S
C627 H641 0.931 . S
C628 O631 1.256 . S
C628 O632 1.255 . S
O629 Co612 2.021 1_655 S
O629 C622 1.259 . S
O630 Co614 2.136 . S
O630 C622 1.243 1_455 S
O631 Co614 2.020 . S
O631 C628 1.256 . S
O632 Co612 2.062 . S
O632 C628 1.255 . S
O633 C613 1.259 . S
O633 Co614 2.021 . S
H634 C625 0.930 . S
H635 C624 0.931 . S
O636 Co612 2.117 . S
O636 C613 1.258 . S
O637 Co612 2.020 . S
O637 C639 1.256 . S
O638 Co614 2.062 . S
O638 C639 1.255 . S
C639 O637 1.256 . S
C639 O638 1.255 . S
H640 C619 0.931 . S
H641 C627 0.931 . S
Co642 N647 2.057 . S
Co642 O659 2.021 . S
Co642 O662 2.062 . S
Co642 O666 2.117 . S
Co642 O667 2.020 . S
C643 O663 1.259 . S
C643 O666 1.258 . S
Co644 N653 2.057 . S
Co644 O660 2.117 . S
Co644 O661 2.020 . S
Co644 O663 2.021 . S
Co644 O668 2.062 . S
C645 N647 1.316 . S
C645 N648 1.347 . S
C645 H650 0.931 . S
C646 N647 1.375 . S
C646 C649 1.350 . S
C646 H651 0.930 . S
N647 Co642 2.057 . S
N647 C645 1.316 . S
N647 C646 1.375 . S
N648 C645 1.347 . S
N648 C649 1.373 . S
C649 C646 1.350 . S
C649 N648 1.373 . S
C649 H670 0.931 . S
H650 C645 0.931 . S
H651 C646 0.930 . S
C652 O659 1.259 . S
C652 O660 1.258 . S
N653 Co644 2.057 . S
N653 C654 1.316 . S
N653 C655 1.375 . S
C654 N653 1.316 . S
C654 N656 1.347 . S
C654 H665 0.931 . S
C655 N653 1.375 . S
C655 C657 1.350 . S
C655 H664 0.930 . S
N656 C654 1.347 . S
N656 C657 1.373 . S
C657 C655 1.350 . S
C657 N656 1.373 . S
C657 H671 0.931 . S
C658 O661 1.256 . S
C658 O662 1.255 . S
O659 Co642 2.021 . S
O659 C652 1.259 . S
O660 Co644 2.117 . S
O660 C652 1.258 . S
O661 Co644 2.020 . S
O661 C658 1.256 . S
O662 Co642 2.062 . S
O662 C658 1.255 . S
O663 C643 1.259 . S
O663 Co644 2.021 . S
H664 C655 0.930 . S
H665 C654 0.931 . S
O666 Co642 2.117 . S
O666 C643 1.258 . S
O667 Co642 2.020 . S
O667 C669 1.256 . S
O668 Co644 2.062 . S
O668 C669 1.255 . S
C669 O667 1.256 . S
C669 O668 1.255 . S
H670 C649 0.931 . S
H671 C657 0.931 . S
Co672 N677 2.057 . S
Co672 O689 2.021 . S
Co672 O692 2.062 . S
Co672 O696 2.117 . S
Co672 O697 2.020 . S
C673 O693 1.259 . S
C673 O696 1.258 . S
Co674 N683 2.057 . S
Co674 O690 2.117 . S
Co674 O691 2.020 . S
Co674 O693 2.021 . S
Co674 O698 2.062 . S
C675 N677 1.316 . S
C675 N678 1.347 . S
C675 H680 0.931 . S
C676 N677 1.375 . S
C676 C679 1.350 . S
C676 H681 0.930 . S
N677 Co672 2.057 . S
N677 C675 1.316 . S
N677 C676 1.375 . S
N678 C675 1.347 . S
N678 C679 1.373 . S
C679 C676 1.350 . S
C679 N678 1.373 . S
C679 H700 0.931 . S
H680 C675 0.931 . S
H681 C676 0.930 . S
C682 O689 1.259 . S
C682 O690 1.258 . S
N683 Co674 2.057 . S
N683 C684 1.316 . S
N683 C685 1.375 . S
C684 N683 1.316 . S
C684 N686 1.347 . S
C684 H695 0.931 . S
C685 N683 1.375 . S
C685 C687 1.350 . S
C685 H694 0.930 . S
N686 C684 1.347 . S
N686 C687 1.373 . S
C687 C685 1.350 . S
C687 N686 1.373 . S
C687 H701 0.931 . S
C688 O691 1.256 . S
C688 O692 1.255 . S
O689 Co672 2.021 . S
O689 C682 1.259 . S
O690 Co674 2.117 . S
O690 C682 1.258 . S
O691 Co674 2.020 . S
O691 C688 1.256 . S
O692 Co672 2.062 . S
O692 C688 1.255 . S
O693 C673 1.259 . S
O693 Co674 2.021 . S
H694 C685 0.930 . S
H695 C684 0.931 . S
O696 Co672 2.117 . S
O696 C673 1.258 . S
O697 Co672 2.020 . S
O697 C699 1.256 . S
O698 Co674 2.062 . S
O698 C699 1.255 . S
C699 O697 1.256 . S
C699 O698 1.255 . S
H700 C679 0.931 . S
H701 C687 0.931 . S
Co702 N707 2.057 . S
Co702 O719 2.021 . S
Co702 O722 2.062 . S
Co702 O726 2.117 . S
Co702 O727 2.020 . S
C703 O723 1.259 . S
C703 O726 1.258 . S
Co704 N713 2.057 . S
Co704 O720 2.117 . S
Co704 O721 2.020 . S
Co704 O723 2.021 . S
Co704 O728 2.062 . S
C705 N707 1.316 . S
C705 N708 1.347 . S
C705 H710 0.931 . S
C706 N707 1.375 . S
C706 C709 1.350 . S
C706 H711 0.930 . S
N707 Co702 2.057 . S
N707 C705 1.316 . S
N707 C706 1.375 . S
N708 C705 1.347 . S
N708 C709 1.373 . S
C709 C706 1.350 . S
C709 N708 1.373 . S
C709 H730 0.931 . S
H710 C705 0.931 . S
H711 C706 0.930 . S
C712 O719 1.259 . S
C712 O720 1.258 . S
N713 Co704 2.057 . S
N713 C714 1.316 . S
N713 C715 1.375 . S
C714 N713 1.316 . S
C714 N716 1.347 . S
C714 H725 0.931 . S
C715 N713 1.375 . S
C715 C717 1.350 . S
C715 H724 0.930 . S
N716 C714 1.347 . S
N716 C717 1.373 . S
C717 C715 1.350 . S
C717 N716 1.373 . S
C717 H731 0.931 . S
C718 O721 1.256 . S
C718 O722 1.255 . S
O719 Co702 2.021 . S
O719 C712 1.259 . S
O720 Co704 2.117 . S
O720 C712 1.258 . S
O721 Co704 2.020 . S
O721 C718 1.256 . S
O722 Co702 2.062 . S
O722 C718 1.255 . S
O723 C703 1.259 . S
O723 Co704 2.021 . S
H724 C715 0.930 . S
H725 C714 0.931 . S
O726 Co702 2.117 . S
O726 C703 1.258 . S
O727 Co702 2.020 . S
O727 C729 1.256 . S
O728 Co704 2.062 . S
O728 C729 1.255 . S
C729 O727 1.256 . S
C729 O728 1.255 . S
H730 C709 0.931 . S
H731 C717 0.931 . S
Co732 N737 2.057 . S
Co732 O749 2.021 . S
Co732 O752 2.062 . S
Co732 O756 2.117 . S
Co732 O757 2.020 . S
C733 O753 1.259 . S
C733 O756 1.258 . S
Co734 N743 2.057 . S
Co734 O750 2.117 . S
Co734 O751 2.020 . S
Co734 O753 2.021 . S
Co734 O758 2.062 . S
C735 N737 1.316 . S
C735 N738 1.347 . S
C735 H740 0.931 . S
C736 N737 1.375 . S
C736 C739 1.350 . S
C736 H741 0.930 . S
N737 Co732 2.057 . S
N737 C735 1.316 . S
N737 C736 1.375 . S
N738 C735 1.347 . S
N738 C739 1.373 . S
C739 C736 1.350 . S
C739 N738 1.373 . S
C739 H760 0.931 . S
H740 C735 0.931 . S
H741 C736 0.930 . S
C742 O749 1.259 . S
C742 O750 1.258 . S
N743 Co734 2.057 . S
N743 C744 1.316 . S
N743 C745 1.375 . S
C744 N743 1.316 . S
C744 N746 1.347 . S
C744 H755 0.931 . S
C745 N743 1.375 . S
C745 C747 1.350 . S
C745 H754 0.930 . S
N746 C744 1.347 . S
N746 C747 1.373 . S
C747 C745 1.350 . S
C747 N746 1.373 . S
C747 H761 0.931 . S
C748 O751 1.256 . S
C748 O752 1.255 . S
O749 Co732 2.021 . S
O749 C742 1.259 . S
O750 Co734 2.117 . S
O750 C742 1.258 . S
O751 Co734 2.020 . S
O751 C748 1.256 . S
O752 Co732 2.062 . S
O752 C748 1.255 . S
O753 C733 1.259 . S
O753 Co734 2.021 . S
H754 C745 0.930 . S
H755 C744 0.931 . S
O756 Co732 2.117 . S
O756 C733 1.258 . S
O757 Co732 2.020 . S
O757 C759 1.256 . S
O758 Co734 2.062 . S
O758 C759 1.255 . S
C759 O757 1.256 . S
C759 O758 1.255 . S
H760 C739 0.931 . S
H761 C747 0.931 . S
Co762 N767 2.057 1_455 S
Co762 O779 2.021 . S
Co762 O782 2.062 1_455 S
Co762 O786 2.117 . S
Co762 O787 2.020 1_554 S
C763 O783 1.259 . S
C763 O786 1.258 . S
Co764 N773 2.057 . S
Co764 O780 2.117 . S
Co764 O781 2.020 . S
Co764 O783 2.021 . S
Co764 O788 2.062 1_554 S
C765 N767 1.316 . S
C765 N768 1.347 . S
C765 H770 0.931 . S
C766 N767 1.375 1_556 S
C766 C769 1.350 . S
C766 H771 0.930 . S
N767 Co762 2.057 1_655 S
N767 C765 1.316 . S
N767 C766 1.375 1_554 S
N768 C765 1.347 . S
N768 C769 1.373 1_554 S
C769 C766 1.350 . S
C769 N768 1.373 1_556 S
C769 H790 0.931 . S
H770 C765 0.931 . S
H771 C766 0.930 . S
C772 O779 1.259 . S
C772 O780 1.258 . S
N773 Co764 2.057 . S
N773 C774 1.316 . S
N773 C775 1.375 . S
C774 N773 1.316 . S
C774 N776 1.347 . S
C774 H785 0.931 . S
C775 N773 1.375 . S
C775 C777 1.350 . S
C775 H784 0.930 . S
N776 C774 1.347 . S
N776 C777 1.373 . S
C777 C775 1.350 . S
C777 N776 1.373 . S
C777 H791 0.931 . S
C778 O781 1.256 . S
C778 O782 1.255 1_455 S
O779 Co762 2.021 . S
O779 C772 1.259 . S
O780 Co764 2.117 . S
O780 C772 1.258 . S
O781 Co764 2.020 . S
O781 C778 1.256 . S
O782 Co762 2.062 1_655 S
O782 C778 1.255 1_655 S
O783 C763 1.259 . S
O783 Co764 2.021 . S
H784 C775 0.930 . S
H785 C774 0.931 . S
O786 Co762 2.117 . S
O786 C763 1.258 . S
O787 Co762 2.020 1_556 S
O787 C789 1.256 . S
O788 Co764 2.062 1_556 S
O788 C789 1.255 . S
C789 O787 1.256 . S
C789 O788 1.255 . S
H790 C769 0.931 . S
H791 C777 0.931 . S
C792 C793 1.387 1_655 S
C792 H796 0.950 . S
C792 C801 1.390 . S
C793 C792 1.387 1_455 S
C793 C795 1.387 . S
H794 C801 0.950 . S
C795 C793 1.387 . S
C795 C797 1.390 . S
C795 H799 0.950 . S
H796 C792 0.950 . S
C797 C795 1.390 . S
C797 C798 1.387 . S
C797 H800 0.950 . S
C798 C797 1.387 . S
C798 C801 1.387 1_455 S
H799 C795 0.950 . S
H800 C797 0.950 . S
C801 C792 1.390 . S
C801 H794 0.950 . S
C801 C798 1.387 1_655 S
C802 C803 1.387 . S
C802 H806 0.950 . S
C802 C811 1.390 . S
C803 C802 1.387 . S
C803 C805 1.387 . S
H804 C811 0.950 . S
C805 C803 1.387 . S
C805 C807 1.390 . S
C805 H809 0.950 . S
H806 C802 0.950 . S
C807 C805 1.390 . S
C807 C808 1.387 . S
C807 H810 0.950 . S
C808 C807 1.387 . S
C808 C811 1.387 . S
H809 C805 0.950 . S
H810 C807 0.950 . S
C811 C802 1.390 . S
C811 H804 0.950 . S
C811 C808 1.387 . S
C812 C813 1.387 . S
C812 H816 0.950 . S
C812 C821 1.390 . S
C813 C812 1.387 . S
C813 C815 1.387 . S
H814 C821 0.950 . S
C815 C813 1.387 . S
C815 C817 1.390 . S
C815 H819 0.950 . S
H816 C812 0.950 . S
C817 C815 1.390 . S
C817 C818 1.387 . S
C817 H820 0.950 . S
C818 C817 1.387 . S
C818 C821 1.387 . S
H819 C815 0.950 . S
H820 C817 0.950 . S
C821 C812 1.390 . S
C821 H814 0.950 . S
C821 C818 1.387 . S
C822 C823 1.387 . S
C822 H826 0.950 . S
C822 C831 1.390 . S
C823 C822 1.387 . S
C823 C825 1.387 . S
H824 C831 0.950 . S
C825 C823 1.387 . S
C825 C827 1.390 . S
C825 H829 0.950 . S
H826 C822 0.950 . S
C827 C825 1.390 . S
C827 C828 1.387 . S
C827 H830 0.950 . S
C828 C827 1.387 . S
C828 C831 1.387 . S
H829 C825 0.950 . S
H830 C827 0.950 . S
C831 C822 1.390 . S
C831 H824 0.950 . S
C831 C828 1.387 . S
C832 C833 1.387 . S
C832 H836 0.950 . S
C832 C841 1.392 1_455 S
C833 C832 1.387 . S
C833 C835 1.387 . S
H834 C841 0.946 . S
C835 C833 1.387 . S
C835 C837 1.390 . S
C835 H839 0.950 . S
H836 C832 0.950 . S
C837 C835 1.390 . S
C837 C838 1.387 . S
C837 H840 0.950 . S
C838 C837 1.387 . S
C838 C841 1.389 1_455 S
H839 C835 0.950 . S
H840 C837 0.950 . S
C841 C832 1.392 1_655 S
C841 H834 0.946 . S
C841 C838 1.389 1_655 S
C842 C843 1.387 . S
C842 H846 0.950 . S
C842 C851 1.390 . S
C843 C842 1.387 . S
C843 C845 1.387 . S
H844 C851 0.950 . S
C845 C843 1.387 . S
C845 C847 1.390 . S
C845 H849 0.950 . S
H846 C842 0.950 . S
C847 C845 1.390 . S
C847 C848 1.387 . S
C847 H850 0.950 . S
C848 C847 1.387 . S
C848 C851 1.387 . S
H849 C845 0.950 . S
H850 C847 0.950 . S
C851 C842 1.390 . S
C851 H844 0.950 . S
C851 C848 1.387 . S
C852 C853 1.387 . S
C852 H856 0.950 . S
C852 C861 1.390 . S
C853 C852 1.387 . S
C853 C855 1.387 . S
H854 C861 0.950 1_554 S
C855 C853 1.387 . S
C855 C857 1.390 . S
C855 H859 0.950 . S
H856 C852 0.950 . S
C857 C855 1.390 . S
C857 C858 1.387 . S
C857 H860 0.950 . S
C858 C857 1.387 . S
C858 C861 1.387 . S
H859 C855 0.950 . S
H860 C857 0.950 . S
C861 C852 1.390 . S
C861 H854 0.950 1_556 S
C861 C858 1.387 . S
C862 C863 1.387 . S
C862 H866 0.950 . S
C862 C871 1.390 . S
C863 C862 1.387 . S
C863 C865 1.387 . S
H864 C871 0.950 . S
C865 C863 1.387 . S
C865 C867 1.390 . S
C865 H869 0.950 . S
H866 C862 0.950 . S
C867 C865 1.390 . S
C867 C868 1.387 . S
C867 H870 0.950 . S
C868 C867 1.387 . S
C868 C871 1.387 . S
H869 C865 0.950 . S
H870 C867 0.950 . S
C871 C862 1.390 . S
C871 H864 0.950 . S
C871 C868 1.387 . S
C872 C873 1.360 1_545 S
C872 H876 0.950 . S
C872 C881 1.390 . S
C873 C872 1.360 1_565 S
C873 C875 1.419 . S
H874 C881 0.950 . S
C875 C873 1.419 . S
C875 C877 1.390 . S
C875 H879 0.950 . S
H876 C872 0.950 . S
C877 C875 1.390 . S
C877 C878 1.387 . S
C877 H880 0.950 . S
C878 C877 1.387 . S
C878 C881 1.387 1_565 S
H879 C875 0.950 . S
H880 C877 0.950 . S
C881 C872 1.390 . S
C881 H874 0.950 . S
C881 C878 1.387 1_545 S
C882 C883 1.387 . S
C882 H886 0.950 . S
C882 C891 1.390 . S
C883 C882 1.387 . S
C883 C885 1.387 . S
H884 C891 0.950 . S
C885 C883 1.387 . S
C885 C887 1.390 . S
C885 H889 0.950 . S
H886 C882 0.950 . S
C887 C885 1.390 . S
C887 C888 1.387 . S
C887 H890 0.950 . S
C888 C887 1.387 . S
C888 C891 1.387 . S
H889 C885 0.950 . S
H890 C887 0.950 . S
C891 C882 1.390 . S
C891 H884 0.950 . S
C891 C888 1.387 . S
C892 C893 1.387 . S
C892 H896 0.950 . S
C892 C901 1.390 . S
C893 C892 1.387 . S
C893 C895 1.387 . S
H894 C901 0.950 . S
C895 C893 1.387 . S
C895 C897 1.390 . S
C895 H899 0.950 . S
H896 C892 0.950 . S
C897 C895 1.390 . S
C897 C898 1.387 . S
C897 H900 0.950 . S
C898 C897 1.387 . S
C898 C901 1.387 . S
H899 C895 0.950 . S
H900 C897 0.950 . S
C901 C892 1.390 . S
C901 H894 0.950 . S
C901 C898 1.387 . S
C902 C903 1.387 . S
C902 H906 0.950 . S
C902 C911 1.390 . S
C903 C902 1.387 . S
C903 C905 1.387 . S
H904 C911 0.950 . S
C905 C903 1.387 . S
C905 C907 1.390 . S
C905 H909 0.950 . S
H906 C902 0.950 . S
C907 C905 1.390 . S
C907 C908 1.387 . S
C907 H910 0.950 . S
C908 C907 1.387 . S
C908 C911 1.387 . S
H909 C905 0.950 . S
H910 C907 0.950 . S
C911 C902 1.390 . S
C911 H904 0.950 . S
C911 C908 1.387 . S
C912 C913 1.387 . S
C912 H916 0.950 . S
C912 C921 1.390 . S
C913 C912 1.387 . S
C913 C915 1.389 1_545 S
H914 C921 0.950 . S
C915 C913 1.389 1_565 S
C915 C917 1.391 1_565 S
C915 H919 0.948 . S
H916 C912 0.950 . S
C917 C915 1.391 1_545 S
C917 C918 1.387 . S
C917 H920 0.950 1_545 S
C918 C917 1.387 . S
C918 C921 1.387 . S
H919 C915 0.948 . S
H920 C917 0.950 1_565 S
C921 C912 1.390 . S
C921 H914 0.950 . S
C921 C918 1.387 . S
C922 C923 1.387 . S
C922 H926 0.950 . S
C922 C931 1.390 . S
C923 C922 1.387 . S
C923 C925 1.387 . S
H924 C931 0.950 . S
C925 C923 1.387 . S
C925 C927 1.390 . S
C925 H929 0.950 . S
H926 C922 0.950 . S
C927 C925 1.390 . S
C927 C928 1.387 . S
C927 H930 0.950 . S
C928 C927 1.387 . S
C928 C931 1.387 . S
H929 C925 0.950 . S
H930 C927 0.950 . S
C931 C922 1.390 . S
C931 H924 0.950 . S
C931 C928 1.387 . S
C932 C933 1.387 . S
C932 H936 0.950 . S
C932 C941 1.390 . S
C933 C932 1.387 . S
C933 C935 1.387 . S
H934 C941 0.950 1_565 S
C935 C933 1.387 . S
C935 C937 1.390 . S
C935 H939 0.950 . S
H936 C932 0.950 . S
C937 C935 1.390 . S
C937 C938 1.387 . S
C937 H940 0.950 . S
C938 C937 1.387 . S
C938 C941 1.387 . S
H939 C935 0.950 . S
H940 C937 0.950 . S
C941 C932 1.390 . S
C941 H934 0.950 1_545 S
C941 C938 1.387 . S
C942 C943 1.387 . S
C942 H946 0.950 . S
C942 C951 1.390 . S
C943 C942 1.387 . S
C943 C945 1.387 . S
H944 C951 0.950 . S
C945 C943 1.387 . S
C945 C947 1.390 . S
C945 H949 0.950 . S
H946 C942 0.950 . S
C947 C945 1.390 . S
C947 C948 1.387 . S
C947 H950 0.950 . S
C948 C947 1.387 . S
C948 C951 1.387 . S
H949 C945 0.950 . S
H950 C947 0.950 . S
C951 C942 1.390 . S
C951 H944 0.950 . S
C951 C948 1.387 . S
C952 C953 1.387 . S
C952 H956 0.950 . S
C952 C961 1.390 . S
C953 C952 1.387 . S
C953 C955 1.387 1_554 S
H954 C961 0.950 . S
C955 C953 1.387 1_556 S
C955 C957 1.390 . S
C955 H959 0.950 . S
H956 C952 0.950 . S
C957 C955 1.390 . S
C957 C958 1.387 1_556 S
C957 H960 0.950 . S
C958 C957 1.387 1_554 S
C958 C961 1.387 . S
H959 C955 0.950 . S
H960 C957 0.950 . S
C961 C952 1.390 . S
C961 H954 0.950 . S
C961 C958 1.387 . S
C962 C963 1.387 . S
C962 H966 0.950 . S
C962 C971 1.390 . S
C963 C962 1.387 . S
C963 C965 1.387 . S
H964 C971 0.950 . S
C965 C963 1.387 . S
C965 C967 1.390 . S
C965 H969 0.950 . S
H966 C962 0.950 . S
C967 C965 1.390 . S
C967 C968 1.387 . S
C967 H970 0.950 . S
C968 C967 1.387 . S
C968 C971 1.387 . S
H969 C965 0.950 . S
H970 C967 0.950 . S
C971 C962 1.390 . S
C971 H964 0.950 . S
C971 C968 1.387 . S
C972 C973 1.387 . S
C972 H976 0.950 . S
C972 C981 1.390 . S
C973 C972 1.387 . S
C973 C975 1.387 . S
H974 C981 0.950 . S
C975 C973 1.387 . S
C975 C977 1.390 . S
C975 H979 0.950 . S
H976 C972 0.950 . S
C977 C975 1.390 . S
C977 C978 1.387 . S
C977 H980 0.950 . S
C978 C977 1.387 . S
C978 C981 1.387 . S
H979 C975 0.950 . S
H980 C977 0.950 . S
C981 C972 1.390 . S
C981 H974 0.950 . S
C981 C978 1.387 . S
C982 C983 1.387 . S
C982 H986 0.950 . S
C982 C991 1.390 . S
C983 C982 1.387 . S
C983 C985 1.387 . S
H984 C991 0.950 . S
C985 C983 1.387 . S
C985 C987 1.390 . S
C985 H989 0.950 . S
H986 C982 0.950 . S
C987 C985 1.390 . S
C987 C988 1.387 . S
C987 H990 0.950 . S
C988 C987 1.387 . S
C988 C991 1.387 . S
H989 C985 0.950 . S
H990 C987 0.950 . S
C991 C982 1.390 . S
C991 H984 0.950 . S
C991 C988 1.387 . S
C992 C993 1.387 . S
C992 H996 0.950 . S
C992 C1001 1.390 . S
C993 C992 1.387 . S
C993 C995 1.387 . S
H994 C1001 0.950 . S
C995 C993 1.387 . S
C995 C997 1.390 . S
C995 H999 0.950 . S
H996 C992 0.950 . S
C997 C995 1.390 . S
C997 C998 1.387 . S
C997 H1000 0.950 . S
C998 C997 1.387 . S
C998 C1001 1.387 . S
H999 C995 0.950 . S
H1000 C997 0.950 . S
C1001 C992 1.390 . S
C1001 H994 0.950 . S
C1001 C998 1.387 . S
C1002 C1003 1.387 . S
C1002 H1006 0.950 . S
C1002 C1011 1.390 . S
C1003 C1002 1.387 . S
C1003 C1005 1.387 . S
H1004 C1011 0.950 . S
C1005 C1003 1.387 . S
C1005 C1007 1.390 1_565 S
C1005 H1009 0.950 . S
H1006 C1002 0.950 . S
C1007 C1005 1.390 1_545 S
C1007 C1008 1.387 1_545 S
C1007 H1010 0.950 . S
C1008 C1007 1.387 1_565 S
C1008 C1011 1.387 . S
H1009 C1005 0.950 . S
H1010 C1007 0.950 . S
C1011 C1002 1.390 . S
C1011 H1004 0.950 . S
C1011 C1008 1.387 . S
C1012 C1013 1.387 . S
C1012 H1016 0.950 . S
C1012 C1021 1.390 . S
C1013 C1012 1.387 . S
C1013 C1015 1.387 . S
H1014 C1021 0.950 . S
C1015 C1013 1.387 . S
C1015 C1017 1.390 . S
C1015 H1019 0.950 . S
H1016 C1012 0.950 . S
C1017 C1015 1.390 . S
C1017 C1018 1.387 . S
C1017 H1020 0.950 . S
C1018 C1017 1.387 . S
C1018 C1021 1.387 . S
H1019 C1015 0.950 . S
H1020 C1017 0.950 . S
C1021 C1012 1.390 . S
C1021 H1014 0.950 . S
C1021 C1018 1.387 . S
C1022 C1023 1.387 . S
C1022 H1026 0.950 . S
C1022 C1031 1.390 . S
C1023 C1022 1.387 . S
C1023 C1025 1.387 . S
H1024 C1031 0.950 . S
C1025 C1023 1.387 . S
C1025 C1027 1.390 . S
C1025 H1029 0.950 . S
H1026 C1022 0.950 . S
C1027 C1025 1.390 . S
C1027 C1028 1.387 . S
C1027 H1030 0.950 . S
C1028 C1027 1.387 . S
C1028 C1031 1.387 . S
H1029 C1025 0.950 . S
H1030 C1027 0.950 . S
C1031 C1022 1.390 . S
C1031 H1024 0.950 . S
C1031 C1028 1.387 . S
C1032 C1033 1.387 . S
C1032 H1036 0.950 . S
C1032 C1041 1.390 . S
C1033 C1032 1.387 . S
C1033 C1035 1.387 . S
H1034 C1041 0.950 . S
C1035 C1033 1.387 . S
C1035 C1037 1.390 1_556 S
C1035 H1039 0.950 1_556 S
H1036 C1032 0.950 . S
C1037 C1035 1.390 1_554 S
C1037 C1038 1.387 1_554 S
C1037 H1040 0.950 . S
C1038 C1037 1.387 1_556 S
C1038 C1041 1.387 . S
H1039 C1035 0.950 1_554 S
H1040 C1037 0.950 . S
C1041 C1032 1.390 . S
C1041 H1034 0.950 . S
C1041 C1038 1.387 . S
C1042 C1043 1.387 . S
C1042 H1046 0.950 . S
C1042 C1051 1.390 . S
C1043 C1042 1.387 . S
C1043 C1045 1.387 . S
H1044 C1051 0.950 . S
C1045 C1043 1.387 . S
C1045 C1047 1.390 . S
C1045 H1049 0.950 . S
H1046 C1042 0.950 . S
C1047 C1045 1.390 . S
C1047 C1048 1.387 . S
C1047 H1050 0.950 . S
C1048 C1047 1.387 . S
C1048 C1051 1.387 . S
H1049 C1045 0.950 . S
H1050 C1047 0.950 . S
C1051 C1042 1.390 . S
C1051 H1044 0.950 . S
C1051 C1048 1.387 . S
C1052 C1053 1.387 . S
C1052 H1056 0.950 . S
C1052 C1061 1.390 . S
C1053 C1052 1.387 . S
C1053 C1055 1.387 . S
H1054 C1061 0.950 . S
C1055 C1053 1.387 . S
C1055 C1057 1.390 . S
C1055 H1059 0.950 . S
H1056 C1052 0.950 . S
C1057 C1055 1.390 . S
C1057 C1058 1.387 . S
C1057 H1060 0.950 . S
C1058 C1057 1.387 . S
C1058 C1061 1.387 . S
H1059 C1055 0.950 . S
H1060 C1057 0.950 . S
C1061 C1052 1.390 . S
C1061 H1054 0.950 . S
C1061 C1058 1.387 . S
C1062 C1063 1.387 . S
C1062 H1066 0.950 . S
C1062 C1071 1.390 . S
C1063 C1062 1.387 . S
C1063 C1065 1.387 . S
H1064 C1071 0.950 . S
C1065 C1063 1.387 . S
C1065 C1067 1.390 . S
C1065 H1069 0.950 . S
H1066 C1062 0.950 . S
C1067 C1065 1.390 . S
C1067 C1068 1.387 . S
C1067 H1070 0.950 . S
C1068 C1067 1.387 . S
C1068 C1071 1.387 . S
H1069 C1065 0.950 . S
H1070 C1067 0.950 . S
C1071 C1062 1.390 . S
C1071 H1064 0.950 . S
C1071 C1068 1.387 . S
C1072 C1073 1.387 . S
C1072 H1076 0.950 . S
C1072 C1081 1.390 . S
C1073 C1072 1.387 . S
C1073 C1075 1.387 1_455 S
H1074 C1081 0.950 . S
C1075 C1073 1.387 1_655 S
C1075 C1077 1.390 1_655 S
C1075 H1079 0.950 . S
H1076 C1072 0.950 . S
C1077 C1075 1.390 1_455 S
C1077 C1078 1.387 . S
C1077 H1080 0.950 . S
C1078 C1077 1.387 . S
C1078 C1081 1.387 . S
H1079 C1075 0.950 . S
H1080 C1077 0.950 . S
C1081 C1072 1.390 . S
C1081 H1074 0.950 . S
C1081 C1078 1.387 . S
C1082 C1083 1.387 . S
C1082 H1086 0.950 . S
C1082 C1091 1.390 . S
C1083 C1082 1.387 . S
C1083 C1085 1.387 . S
H1084 C1091 0.950 . S
C1085 C1083 1.387 . S
C1085 C1087 1.390 . S
C1085 H1089 0.950 . S
H1086 C1082 0.950 . S
C1087 C1085 1.390 . S
C1087 C1088 1.387 . S
C1087 H1090 0.950 . S
C1088 C1087 1.387 . S
C1088 C1091 1.387 . S
H1089 C1085 0.950 . S
H1090 C1087 0.950 . S
C1091 C1082 1.390 . S
C1091 H1084 0.950 . S
C1091 C1088 1.387 . S
C1092 C1093 1.387 . S
C1092 H1096 0.950 . S
C1092 C1101 1.390 . S
C1093 C1092 1.387 . S
C1093 C1095 1.387 . S
H1094 C1101 0.950 . S
C1095 C1093 1.387 . S
C1095 C1097 1.390 . S
C1095 H1099 0.950 . S
H1096 C1092 0.950 . S
C1097 C1095 1.390 . S
C1097 C1098 1.387 . S
C1097 H1100 0.950 . S
C1098 C1097 1.387 . S
C1098 C1101 1.387 . S
H1099 C1095 0.950 . S
H1100 C1097 0.950 . S
C1101 C1092 1.390 . S
C1101 H1094 0.950 . S
C1101 C1098 1.387 . S
C1102 C1103 1.387 . S
C1102 H1106 0.950 . S
C1102 C1111 1.390 . S
C1103 C1102 1.387 . S
C1103 C1105 1.387 . S
H1104 C1111 0.950 . S
C1105 C1103 1.387 . S
C1105 C1107 1.390 . S
C1105 H1109 0.950 . S
H1106 C1102 0.950 . S
C1107 C1105 1.390 . S
C1107 C1108 1.387 . S
C1107 H1110 0.950 . S
C1108 C1107 1.387 . S
C1108 C1111 1.387 . S
H1109 C1105 0.950 . S
H1110 C1107 0.950 . S
C1111 C1102 1.390 . S
C1111 H1104 0.950 . S
C1111 C1108 1.387 . S
C1112 C1113 1.387 . S
C1112 H1116 0.950 . S
C1112 C1121 1.390 . S
C1113 C1112 1.387 . S
C1113 C1115 1.387 . S
H1114 C1121 0.950 . S
C1115 C1113 1.387 . S
C1115 C1117 1.390 . S
C1115 H1119 0.950 . S
H1116 C1112 0.950 . S
C1117 C1115 1.390 . S
C1117 C1118 1.387 . S
C1117 H1120 0.950 . S
C1118 C1117 1.387 . S
C1118 C1121 1.387 . S
H1119 C1115 0.950 . S
H1120 C1117 0.950 . S
C1121 C1112 1.390 . S
C1121 H1114 0.950 . S
C1121 C1118 1.387 . S
C1122 C1123 1.387 . S
C1122 H1126 0.950 . S
C1122 C1131 1.390 . S
C1123 C1122 1.387 . S
C1123 C1125 1.387 . S
H1124 C1131 0.950 . S
C1125 C1123 1.387 . S
C1125 C1127 1.390 . S
C1125 H1129 0.950 . S
H1126 C1122 0.950 . S
C1127 C1125 1.390 . S
C1127 C1128 1.387 . S
C1127 H1130 0.950 . S
C1128 C1127 1.387 . S
C1128 C1131 1.387 . S
H1129 C1125 0.950 . S
H1130 C1127 0.950 . S
C1131 C1122 1.390 . S
C1131 H1124 0.950 . S
C1131 C1128 1.387 . S
C1132 C1133 1.387 1_565 S
C1132 H1136 0.950 . S
C1132 C1141 1.390 . S
C1133 C1132 1.387 1_545 S
C1133 C1135 1.387 . S
H1134 C1141 0.950 . S
C1135 C1133 1.387 . S
C1135 C1137 1.390 . S
C1135 H1139 0.950 . S
H1136 C1132 0.950 . S
C1137 C1135 1.390 . S
C1137 C1138 1.387 . S
C1137 H1140 0.950 . S
C1138 C1137 1.387 . S
C1138 C1141 1.387 1_545 S
H1139 C1135 0.950 . S
H1140 C1137 0.950 . S
C1141 C1132 1.390 . S
C1141 H1134 0.950 . S
C1141 C1138 1.387 1_565 S
C1142 C1143 1.387 . S
C1142 H1146 0.950 . S
C1142 C1151 1.390 . S
C1143 C1142 1.387 . S
C1143 C1145 1.387 . S
H1144 C1151 0.950 . S
C1145 C1143 1.387 . S
C1145 C1147 1.390 . S
C1145 H1149 0.950 . S
H1146 C1142 0.950 . S
C1147 C1145 1.390 . S
C1147 C1148 1.387 . S
C1147 H1150 0.950 . S
C1148 C1147 1.387 . S
C1148 C1151 1.387 . S
H1149 C1145 0.950 . S
H1150 C1147 0.950 . S
C1151 C1142 1.390 . S
C1151 H1144 0.950 . S
C1151 C1148 1.387 . S
C1152 C1153 1.387 . S
C1152 H1156 0.950 . S
C1152 C1161 1.390 . S
C1153 C1152 1.387 . S
C1153 C1155 1.387 . S
H1154 C1161 0.950 . S
C1155 C1153 1.387 . S
C1155 C1157 1.390 . S
C1155 H1159 0.950 . S
H1156 C1152 0.950 . S
C1157 C1155 1.390 . S
C1157 C1158 1.387 . S
C1157 H1160 0.950 1_655 S
C1158 C1157 1.387 . S
C1158 C1161 1.387 . S
H1159 C1155 0.950 . S
H1160 C1157 0.950 1_455 S
C1161 C1152 1.390 . S
C1161 H1154 0.950 . S
C1161 C1158 1.387 . S
C1162 C1163 1.387 . S
C1162 H1166 0.950 . S
C1162 C1171 1.390 . S
C1163 C1162 1.387 . S
C1163 C1165 1.387 . S
H1164 C1171 0.950 . S
C1165 C1163 1.387 . S
C1165 C1167 1.390 . S
C1165 H1169 0.950 . S
H1166 C1162 0.950 . S
C1167 C1165 1.390 . S
C1167 C1168 1.387 . S
C1167 H1170 0.950 . S
C1168 C1167 1.387 . S
C1168 C1171 1.387 . S
H1169 C1165 0.950 . S
H1170 C1167 0.950 . S
C1171 C1162 1.390 . S
C1171 H1164 0.950 . S
C1171 C1168 1.387 . S
C1172 C1173 1.387 1_565 S
C1172 H1176 0.950 . S
C1172 C1181 1.390 1_565 S
C1173 C1172 1.387 1_545 S
C1173 C1175 1.387 . S
H1174 C1181 0.950 . S
C1175 C1173 1.387 . S
C1175 C1177 1.390 . S
C1175 H1179 0.950 . S
H1176 C1172 0.950 . S
C1177 C1175 1.390 . S
C1177 C1178 1.387 . S
C1177 H1180 0.950 . S
C1178 C1177 1.387 . S
C1178 C1181 1.387 . S
H1179 C1175 0.950 . S
H1180 C1177 0.950 . S
C1181 C1172 1.390 1_545 S
C1181 H1174 0.950 . S
C1181 C1178 1.387 . S
C1182 C1183 1.387 . S
C1182 H1186 0.950 . S
C1182 C1191 1.390 . S
C1183 C1182 1.387 . S
C1183 C1185 1.387 . S
H1184 C1191 0.950 . S
C1185 C1183 1.387 . S
C1185 C1187 1.390 . S
C1185 H1189 0.950 . S
H1186 C1182 0.950 . S
C1187 C1185 1.390 . S
C1187 C1188 1.387 . S
C1187 H1190 0.950 . S
C1188 C1187 1.387 . S
C1188 C1191 1.387 . S
H1189 C1185 0.950 . S
H1190 C1187 0.950 . S
C1191 C1182 1.390 . S
C1191 H1184 0.950 . S
C1191 C1188 1.387 . S
C1192 C1193 1.391 . S
C1192 H1196 0.945 1_554 S
C1192 C1201 1.391 . S
C1193 C1192 1.391 . S
C1193 C1195 1.387 . S
H1194 C1201 0.950 1_546 S
C1195 C1193 1.387 . S
C1195 C1197 1.390 . S
C1195 H1199 0.950 . S
H1196 C1192 0.945 1_556 S
C1197 C1195 1.390 . S
C1197 C1198 1.387 . S
C1197 H1200 0.950 . S
C1198 C1197 1.387 . S
C1198 C1201 1.387 . S
H1199 C1195 0.950 . S
H1200 C1197 0.950 . S
C1201 C1192 1.391 . S
C1201 H1194 0.950 1_564 S
C1201 C1198 1.387 . S
C1202 C1203 1.387 . S
C1202 H1206 0.950 . S
C1202 C1211 1.390 . S
C1203 C1202 1.387 . S
C1203 C1205 1.387 1_554 S
H1204 C1211 0.950 . S
C1205 C1203 1.387 1_556 S
C1205 C1207 1.390 . S
C1205 H1209 0.950 . S
H1206 C1202 0.950 . S
C1207 C1205 1.390 . S
C1207 C1208 1.387 1_556 S
C1207 H1210 0.950 . S
C1208 C1207 1.387 1_554 S
C1208 C1211 1.387 . S
H1209 C1205 0.950 . S
H1210 C1207 0.950 . S
C1211 C1202 1.390 . S
C1211 H1204 0.950 . S
C1211 C1208 1.387 . S
C1212 C1213 1.387 . S
C1212 H1216 0.950 . S
C1212 C1221 1.390 . S
C1213 C1212 1.387 . S
C1213 C1215 1.387 . S
H1214 C1221 0.950 . S
C1215 C1213 1.387 . S
C1215 C1217 1.390 . S
C1215 H1219 0.950 . S
H1216 C1212 0.950 . S
C1217 C1215 1.390 . S
C1217 C1218 1.387 . S
C1217 H1220 0.950 . S
C1218 C1217 1.387 . S
C1218 C1221 1.387 . S
H1219 C1215 0.950 . S
H1220 C1217 0.950 . S
C1221 C1212 1.390 . S
C1221 H1214 0.950 . S
C1221 C1218 1.387 . S
C1222 C1223 1.387 . S
C1222 H1226 0.950 . S
C1222 C1231 1.390 . S
C1223 C1222 1.387 . S
C1223 C1225 1.387 . S
H1224 C1231 0.950 . S
C1225 C1223 1.387 . S
C1225 C1227 1.390 . S
C1225 H1229 0.950 . S
H1226 C1222 0.950 . S
C1227 C1225 1.390 . S
C1227 C1228 1.387 . S
C1227 H1230 0.950 . S
C1228 C1227 1.387 . S
C1228 C1231 1.387 . S
H1229 C1225 0.950 . S
H1230 C1227 0.950 . S
C1231 C1222 1.390 . S
C1231 H1224 0.950 . S
C1231 C1228 1.387 . S
C1232 C1233 1.387 . S
C1232 H1236 0.950 . S
C1232 C1241 1.390 . S
C1233 C1232 1.387 . S
C1233 C1235 1.387 . S
H1234 C1241 0.950 . S
C1235 C1233 1.387 . S
C1235 C1237 1.390 . S
C1235 H1239 0.950 . S
H1236 C1232 0.950 . S
C1237 C1235 1.390 . S
C1237 C1238 1.387 . S
C1237 H1240 0.950 . S
C1238 C1237 1.387 . S
C1238 C1241 1.387 . S
H1239 C1235 0.950 . S
H1240 C1237 0.950 . S
C1241 C1232 1.390 . S
C1241 H1234 0.950 . S
C1241 C1238 1.387 . S
C1242 C1243 1.387 . S
C1242 H1246 0.950 . S
C1242 C1251 1.390 . S
C1243 C1242 1.387 . S
C1243 C1245 1.387 . S
H1244 C1251 0.950 . S
C1245 C1243 1.387 . S
C1245 C1247 1.390 . S
C1245 H1249 0.950 . S
H1246 C1242 0.950 . S
C1247 C1245 1.390 . S
C1247 C1248 1.387 . S
C1247 H1250 0.950 . S
C1248 C1247 1.387 . S
C1248 C1251 1.387 . S
H1249 C1245 0.950 . S
H1250 C1247 0.950 . S
C1251 C1242 1.390 . S
C1251 H1244 0.950 . S
C1251 C1248 1.387 . S
C1252 C1253 1.387 . S
C1252 H1256 0.950 . S
C1252 C1261 1.390 . S
C1253 C1252 1.387 . S
C1253 C1255 1.387 . S
H1254 C1261 0.950 . S
C1255 C1253 1.387 . S
C1255 C1257 1.390 . S
C1255 H1259 0.950 . S
H1256 C1252 0.950 . S
C1257 C1255 1.390 . S
C1257 C1258 1.387 . S
C1257 H1260 0.950 . S
C1258 C1257 1.387 . S
C1258 C1261 1.387 . S
H1259 C1255 0.950 . S
H1260 C1257 0.950 . S
C1261 C1252 1.390 . S
C1261 H1254 0.950 . S
C1261 C1258 1.387 . S
C1262 C1263 1.387 . S
C1262 H1266 0.950 . S
C1262 C1271 1.390 . S
C1263 C1262 1.387 . S
C1263 C1265 1.387 . S
H1264 C1271 0.950 . S
C1265 C1263 1.387 . S
C1265 C1267 1.390 . S
C1265 H1269 0.950 . S
H1266 C1262 0.950 . S
C1267 C1265 1.390 . S
C1267 C1268 1.387 . S
C1267 H1270 0.950 . S
C1268 C1267 1.387 . S
C1268 C1271 1.387 . S
H1269 C1265 0.950 . S
H1270 C1267 0.950 . S
C1271 C1262 1.390 . S
C1271 H1264 0.950 . S
C1271 C1268 1.387 . S
C1272 C1273 1.387 . S
C1272 H1276 0.950 . S
C1272 C1281 1.390 . S
C1273 C1272 1.387 . S
C1273 C1275 1.387 . S
H1274 C1281 0.950 . S
C1275 C1273 1.387 . S
C1275 C1277 1.390 . S
C1275 H1279 0.950 . S
H1276 C1272 0.950 . S
C1277 C1275 1.390 . S
C1277 C1278 1.387 . S
C1277 H1280 0.950 . S
C1278 C1277 1.387 . S
C1278 C1281 1.387 . S
H1279 C1275 0.950 . S
H1280 C1277 0.950 . S
C1281 C1272 1.390 . S
C1281 H1274 0.950 . S
C1281 C1278 1.387 . S
C1282 C1283 1.387 . S
C1282 H1286 0.950 . S
C1282 C1291 1.390 . S
C1283 C1282 1.387 . S
C1283 C1285 1.387 . S
H1284 C1291 0.950 . S
C1285 C1283 1.387 . S
C1285 C1287 1.390 . S
C1285 H1289 0.950 . S
H1286 C1282 0.950 . S
C1287 C1285 1.390 . S
C1287 C1288 1.387 . S
C1287 H1290 0.950 . S
C1288 C1287 1.387 . S
C1288 C1291 1.387 . S
H1289 C1285 0.950 . S
H1290 C1287 0.950 . S
C1291 C1282 1.390 . S
C1291 H1284 0.950 . S
C1291 C1288 1.387 . S
C1292 C1293 1.387 . S
C1292 H1296 0.966 . S
C1292 C1301 1.390 . S
C1293 C1292 1.387 . S
C1293 C1295 1.387 . S
H1294 C1301 0.950 . S
C1295 C1293 1.387 . S
C1295 C1297 1.390 . S
C1295 H1299 0.950 . S
H1296 C1292 0.966 . S
C1297 C1295 1.390 . S
C1297 C1298 1.387 . S
C1297 H1300 0.950 . S
C1298 C1297 1.387 . S
C1298 C1301 1.387 . S
H1299 C1295 0.950 . S
H1300 C1297 0.950 . S
C1301 C1292 1.390 . S
C1301 H1294 0.950 . S
C1301 C1298 1.387 . S
C1302 C1303 1.387 . S
C1302 H1306 0.950 . S
C1302 C1311 1.390 . S
C1303 C1302 1.387 . S
C1303 C1305 1.387 . S
H1304 C1311 0.950 . S
C1305 C1303 1.387 . S
C1305 C1307 1.390 . S
C1305 H1309 0.950 . S
H1306 C1302 0.950 . S
C1307 C1305 1.390 . S
C1307 C1308 1.387 . S
C1307 H1310 0.950 . S
C1308 C1307 1.387 . S
C1308 C1311 1.387 . S
H1309 C1305 0.950 . S
H1310 C1307 0.950 . S
C1311 C1302 1.390 . S
C1311 H1304 0.950 . S
C1311 C1308 1.387 . S
C1312 C1313 1.387 . S
C1312 H1316 0.950 . S
C1312 C1321 1.390 . S
C1313 C1312 1.387 . S
C1313 C1315 1.387 . S
H1314 C1321 0.950 . S
C1315 C1313 1.387 . S
C1315 C1317 1.390 . S
C1315 H1319 0.950 . S
H1316 C1312 0.950 . S
C1317 C1315 1.390 . S
C1317 C1318 1.387 . S
C1317 H1320 0.950 1_556 S
C1318 C1317 1.387 . S
C1318 C1321 1.387 . S
H1319 C1315 0.950 . S
H1320 C1317 0.950 1_554 S
C1321 C1312 1.390 . S
C1321 H1314 0.950 . S
C1321 C1318 1.387 . S
C1322 C1323 1.387 . S
C1322 H1326 0.950 . S
C1322 C1331 1.390 . S
C1323 C1322 1.387 . S
C1323 C1325 1.387 . S
H1324 C1331 0.950 . S
C1325 C1323 1.387 . S
C1325 C1327 1.390 . S
C1325 H1329 0.950 . S
H1326 C1322 0.950 . S
C1327 C1325 1.390 . S
C1327 C1328 1.387 . S
C1327 H1330 0.950 . S
C1328 C1327 1.387 . S
C1328 C1331 1.387 . S
H1329 C1325 0.950 . S
H1330 C1327 0.950 . S
C1331 C1322 1.390 . S
C1331 H1324 0.950 . S
C1331 C1328 1.387 . S
C1332 C1333 1.387 . S
C1332 H1336 0.950 . S
C1332 C1341 1.390 . S
C1333 C1332 1.387 . S
C1333 C1335 1.387 . S
H1334 C1341 0.950 . S
C1335 C1333 1.387 . S
C1335 C1337 1.390 . S
C1335 H1339 0.950 . S
H1336 C1332 0.950 . S
C1337 C1335 1.390 . S
C1337 C1338 1.387 . S
C1337 H1340 0.950 . S
C1338 C1337 1.387 . S
C1338 C1341 1.387 . S
H1339 C1335 0.950 . S
H1340 C1337 0.950 . S
C1341 C1332 1.390 . S
C1341 H1334 0.950 . S
C1341 C1338 1.387 . S
C1342 C1343 1.387 . S
C1342 H1346 0.950 . S
C1342 C1351 1.390 . S
C1343 C1342 1.387 . S
C1343 C1345 1.387 . S
H1344 C1351 0.950 . S
C1345 C1343 1.387 . S
C1345 C1347 1.390 . S
C1345 H1349 0.950 . S
H1346 C1342 0.950 . S
C1347 C1345 1.390 . S
C1347 C1348 1.387 . S
C1347 H1350 0.950 . S
C1348 C1347 1.387 . S
C1348 C1351 1.387 . S
H1349 C1345 0.950 . S
H1350 C1347 0.950 . S
C1351 C1342 1.390 . S
C1351 H1344 0.950 . S
C1351 C1348 1.387 . S
C1352 C1353 1.387 . S
C1352 H1356 0.950 . S
C1352 C1361 1.390 . S
C1353 C1352 1.387 . S
C1353 C1355 1.387 . S
H1354 C1361 0.950 . S
C1355 C1353 1.387 . S
C1355 C1357 1.390 . S
C1355 H1359 0.950 . S
H1356 C1352 0.950 . S
C1357 C1355 1.390 . S
C1357 C1358 1.387 . S
C1357 H1360 0.950 . S
C1358 C1357 1.387 . S
C1358 C1361 1.387 . S
H1359 C1355 0.950 . S
H1360 C1357 0.950 . S
C1361 C1352 1.390 . S
C1361 H1354 0.950 . S
C1361 C1358 1.387 . S
C1362 C1363 1.387 . S
C1362 H1366 0.950 . S
C1362 C1371 1.390 . S
C1363 C1362 1.387 . S
C1363 C1365 1.387 . S
H1364 C1371 0.950 . S
C1365 C1363 1.387 . S
C1365 C1367 1.390 . S
C1365 H1369 0.950 1_556 S
H1366 C1362 0.950 . S
C1367 C1365 1.390 . S
C1367 C1368 1.387 . S
C1367 H1370 0.950 . S
C1368 C1367 1.387 . S
C1368 C1371 1.387 . S
H1369 C1365 0.950 1_554 S
H1370 C1367 0.950 . S
C1371 C1362 1.390 . S
C1371 H1364 0.950 . S
C1371 C1368 1.387 . S
C1372 C1373 1.387 . S
C1372 H1376 0.950 . S
C1372 C1381 1.390 . S
C1373 C1372 1.387 . S
C1373 C1375 1.387 . S
H1374 C1381 0.950 . S
C1375 C1373 1.387 . S
C1375 C1377 1.390 . S
C1375 H1379 0.950 . S
H1376 C1372 0.950 . S
C1377 C1375 1.390 . S
C1377 C1378 1.387 . S
C1377 H1380 0.961 . S
C1378 C1377 1.387 . S
C1378 C1381 1.387 . S
H1379 C1375 0.950 . S
H1380 C1377 0.961 . S
C1381 C1372 1.390 . S
C1381 H1374 0.950 . S
C1381 C1378 1.387 . S
C1382 C1383 1.387 . S
C1382 H1386 0.950 . S
C1382 C1391 1.390 . S
C1383 C1382 1.387 . S
C1383 C1385 1.387 . S
H1384 C1391 0.950 . S
C1385 C1383 1.387 . S
C1385 C1387 1.390 . S
C1385 H1389 0.950 . S
H1386 C1382 0.950 . S
C1387 C1385 1.390 . S
C1387 C1388 1.387 . S
C1387 H1390 0.950 . S
C1388 C1387 1.387 . S
C1388 C1391 1.387 . S
H1389 C1385 0.950 . S
H1390 C1387 0.950 . S
C1391 C1382 1.390 . S
C1391 H1384 0.950 . S
C1391 C1388 1.387 . S
C1392 C1393 1.387 . S
C1392 H1396 0.950 . S
C1392 C1401 1.390 . S
C1393 C1392 1.387 . S
C1393 C1395 1.387 . S
H1394 C1401 0.950 . S
C1395 C1393 1.387 . S
C1395 C1397 1.390 . S
C1395 H1399 0.950 . S
H1396 C1392 0.950 . S
C1397 C1395 1.390 . S
C1397 C1398 1.387 . S
C1397 H1400 0.950 . S
C1398 C1397 1.387 . S
C1398 C1401 1.387 . S
H1399 C1395 0.950 . S
H1400 C1397 0.950 . S
C1401 C1392 1.390 . S
C1401 H1394 0.950 . S
C1401 C1398 1.387 . S
C1402 C1403 1.387 . S
C1402 H1406 0.950 . S
C1402 C1411 1.390 . S
C1403 C1402 1.387 . S
C1403 C1405 1.387 . S
H1404 C1411 0.950 . S
C1405 C1403 1.387 . S
C1405 C1407 1.390 . S
C1405 H1409 0.950 . S
H1406 C1402 0.950 . S
C1407 C1405 1.390 . S
C1407 C1408 1.387 . S
C1407 H1410 0.950 . S
C1408 C1407 1.387 . S
C1408 C1411 1.387 . S
H1409 C1405 0.950 . S
H1410 C1407 0.950 . S
C1411 C1402 1.390 . S
C1411 H1404 0.950 . S
C1411 C1408 1.387 . S
C1412 C1413 1.387 . S
C1412 H1416 0.950 . S
C1412 C1421 1.390 . S
C1413 C1412 1.387 . S
C1413 C1415 1.387 . S
H1414 C1421 0.950 . S
C1415 C1413 1.387 . S
C1415 C1417 1.390 . S
C1415 H1419 0.950 . S
H1416 C1412 0.950 . S
C1417 C1415 1.390 . S
C1417 C1418 1.387 . S
C1417 H1420 0.950 . S
C1418 C1417 1.387 . S
C1418 C1421 1.387 . S
H1419 C1415 0.950 . S
H1420 C1417 0.950 . S
C1421 C1412 1.390 . S
C1421 H1414 0.950 . S
C1421 C1418 1.387 . S
C1422 C1423 1.387 . S
C1422 H1426 0.950 . S
C1422 C1431 1.390 . S
C1423 C1422 1.387 . S
C1423 C1425 1.387 . S
H1424 C1431 0.950 . S
C1425 C1423 1.387 . S
C1425 C1427 1.390 . S
C1425 H1429 0.950 . S
H1426 C1422 0.950 . S
C1427 C1425 1.390 . S
C1427 C1428 1.387 . S
C1427 H1430 0.950 . S
C1428 C1427 1.387 . S
C1428 C1431 1.387 . S
H1429 C1425 0.950 . S
H1430 C1427 0.950 . S
C1431 C1422 1.390 . S
C1431 H1424 0.950 . S
C1431 C1428 1.387 . S
C1432 C1433 1.387 . S
C1432 H1436 0.950 . S
C1432 C1441 1.390 . S
C1433 C1432 1.387 . S
C1433 C1435 1.387 . S
H1434 C1441 0.950 . S
C1435 C1433 1.387 . S
C1435 C1437 1.390 . S
C1435 H1439 0.950 . S
H1436 C1432 0.950 . S
C1437 C1435 1.390 . S
C1437 C1438 1.387 . S
C1437 H1440 0.950 . S
C1438 C1437 1.387 . S
C1438 C1441 1.387 . S
H1439 C1435 0.950 . S
H1440 C1437 0.950 . S
C1441 C1432 1.390 . S
C1441 H1434 0.950 . S
C1441 C1438 1.387 . S
C1442 C1443 1.387 . S
C1442 H1446 0.950 . S
C1442 C1451 1.390 . S
C1443 C1442 1.387 . S
C1443 C1445 1.387 . S
H1444 C1451 0.950 . S
C1445 C1443 1.387 . S
C1445 C1447 1.390 . S
C1445 H1449 0.950 . S
H1446 C1442 0.950 . S
C1447 C1445 1.390 . S
C1447 C1448 1.387 . S
C1447 H1450 0.950 1_565 S
C1448 C1447 1.387 . S
C1448 C1451 1.387 . S
H1449 C1445 0.950 . S
H1450 C1447 0.950 1_545 S
C1451 C1442 1.390 . S
C1451 H1444 0.950 . S
C1451 C1448 1.387 . S
C1452 C1453 1.387 . S
C1452 H1456 0.950 . S
C1452 C1461 1.390 . S
C1453 C1452 1.387 . S
C1453 C1455 1.387 . S
H1454 C1461 0.950 . S
C1455 C1453 1.387 . S
C1455 C1457 1.390 . S
C1455 H1459 0.950 . S
H1456 C1452 0.950 . S
C1457 C1455 1.390 . S
C1457 C1458 1.387 . S
C1457 H1460 0.950 . S
C1458 C1457 1.387 . S
C1458 C1461 1.387 . S
H1459 C1455 0.950 . S
H1460 C1457 0.950 . S
C1461 C1452 1.390 . S
C1461 H1454 0.950 . S
C1461 C1458 1.387 . S
C1462 C1463 1.387 . S
C1462 H1466 0.950 . S
C1462 C1471 1.390 . S
C1463 C1462 1.387 . S
C1463 C1465 1.387 . S
H1464 C1471 0.950 . S
C1465 C1463 1.387 . S
C1465 C1467 1.390 . S
C1465 H1469 0.950 1_554 S
H1466 C1462 0.950 . S
C1467 C1465 1.390 . S
C1467 C1468 1.387 . S
C1467 H1470 0.950 . S
C1468 C1467 1.387 . S
C1468 C1471 1.387 . S
H1469 C1465 0.950 1_556 S
H1470 C1467 0.950 . S
C1471 C1462 1.390 . S
C1471 H1464 0.950 . S
C1471 C1468 1.387 . S
C1472 C1473 1.387 . S
C1472 H1476 0.950 . S
C1472 C1481 1.390 . S
C1473 C1472 1.387 . S
C1473 C1475 1.387 . S
H1474 C1481 0.950 . S
C1475 C1473 1.387 . S
C1475 C1477 1.390 . S
C1475 H1479 0.950 . S
H1476 C1472 0.950 . S
C1477 C1475 1.390 . S
C1477 C1478 1.387 . S
C1477 H1480 0.950 . S
C1478 C1477 1.387 . S
C1478 C1481 1.387 . S
H1479 C1475 0.950 . S
H1480 C1477 0.950 . S
C1481 C1472 1.390 . S
C1481 H1474 0.950 . S
C1481 C1478 1.387 . S
C1482 C1483 1.387 . S
C1482 H1486 0.950 . S
C1482 C1491 1.390 . S
C1483 C1482 1.387 . S
C1483 C1485 1.387 . S
H1484 C1491 0.950 . S
C1485 C1483 1.387 . S
C1485 C1487 1.390 . S
C1485 H1489 0.950 . S
H1486 C1482 0.950 . S
C1487 C1485 1.390 . S
C1487 C1488 1.387 . S
C1487 H1490 0.950 1_554 S
C1488 C1487 1.387 . S
C1488 C1491 1.387 . S
H1489 C1485 0.950 . S
H1490 C1487 0.950 1_556 S
C1491 C1482 1.390 . S
C1491 H1484 0.950 . S
C1491 C1488 1.387 . S
C1492 C1493 1.387 . S
C1492 H1496 0.950 . S
C1492 C1501 1.390 . S
C1493 C1492 1.387 . S
C1493 C1495 1.387 . S
H1494 C1501 0.950 . S
C1495 C1493 1.387 . S
C1495 C1497 1.390 . S
C1495 H1499 0.950 . S
H1496 C1492 0.950 . S
C1497 C1495 1.390 . S
C1497 C1498 1.387 . S
C1497 H1500 0.950 . S
C1498 C1497 1.387 . S
C1498 C1501 1.387 . S
H1499 C1495 0.950 . S
H1500 C1497 0.950 . S
C1501 C1492 1.390 . S
C1501 H1494 0.950 . S
C1501 C1498 1.387 . S
C1502 C1503 1.387 . S
C1502 H1506 0.950 . S
C1502 C1511 1.390 . S
C1503 C1502 1.387 . S
C1503 C1505 1.387 . S
H1504 C1511 0.950 . S
C1505 C1503 1.387 . S
C1505 C1507 1.390 . S
C1505 H1509 0.950 . S
H1506 C1502 0.950 . S
C1507 C1505 1.390 . S
C1507 C1508 1.387 . S
C1507 H1510 0.950 . S
C1508 C1507 1.387 . S
C1508 C1511 1.387 . S
H1509 C1505 0.950 . S
H1510 C1507 0.950 . S
C1511 C1502 1.390 . S
C1511 H1504 0.950 . S
C1511 C1508 1.387 . S
C1512 C1513 1.387 . S
C1512 H1516 0.950 . S
C1512 C1521 1.390 . S
C1513 C1512 1.387 . S
C1513 C1515 1.387 . S
H1514 C1521 0.950 . S
C1515 C1513 1.387 . S
C1515 C1517 1.390 . S
C1515 H1519 0.950 . S
H1516 C1512 0.950 . S
C1517 C1515 1.390 . S
C1517 C1518 1.387 . S
C1517 H1520 0.950 . S
C1518 C1517 1.387 . S
C1518 C1521 1.387 . S
H1519 C1515 0.950 . S
H1520 C1517 0.950 . S
C1521 C1512 1.390 . S
C1521 H1514 0.950 . S
C1521 C1518 1.387 . S
C1522 C1523 1.387 . S
C1522 H1526 0.950 . S
C1522 C1531 1.390 . S
C1523 C1522 1.387 . S
C1523 C1525 1.387 . S
H1524 C1531 0.950 . S
C1525 C1523 1.387 . S
C1525 C1527 1.390 . S
C1525 H1529 0.950 . S
H1526 C1522 0.950 . S
C1527 C1525 1.390 . S
C1527 C1528 1.387 . S
C1527 H1530 0.950 . S
C1528 C1527 1.387 . S
C1528 C1531 1.387 . S
H1529 C1525 0.950 . S
H1530 C1527 0.950 . S
C1531 C1522 1.390 . S
C1531 H1524 0.950 . S
C1531 C1528 1.387 . S
C1532 C1533 1.387 . S
C1532 H1536 0.950 . S
C1532 C1541 1.390 . S
C1533 C1532 1.387 . S
C1533 C1535 1.387 . S
H1534 C1541 0.950 . S
C1535 C1533 1.387 . S
C1535 C1537 1.390 1_556 S
C1535 H1539 0.955 . S
H1536 C1532 0.950 . S
C1537 C1535 1.390 1_554 S
C1537 C1538 1.387 1_554 S
C1537 H1540 0.950 . S
C1538 C1537 1.387 1_556 S
C1538 C1541 1.387 . S
H1539 C1535 0.955 . S
H1540 C1537 0.950 . S
C1541 C1532 1.390 . S
C1541 H1534 0.950 . S
C1541 C1538 1.387 . S
C1542 C1543 1.387 . S
C1542 H1546 0.950 . S
C1542 C1551 1.390 . S
C1543 C1542 1.387 . S
C1543 C1545 1.387 . S
H1544 C1551 0.950 . S
C1545 C1543 1.387 . S
C1545 C1547 1.390 . S
C1545 H1549 0.950 . S
H1546 C1542 0.950 . S
C1547 C1545 1.390 . S
C1547 C1548 1.387 . S
C1547 H1550 0.950 . S
C1548 C1547 1.387 . S
C1548 C1551 1.387 . S
H1549 C1545 0.950 . S
H1550 C1547 0.950 . S
C1551 C1542 1.390 . S
C1551 H1544 0.950 . S
C1551 C1548 1.387 . S
C1552 C1553 1.387 . S
C1552 H1556 0.950 . S
C1552 C1561 1.390 . S
C1553 C1552 1.387 . S
C1553 C1555 1.387 . S
H1554 C1561 0.950 . S
C1555 C1553 1.387 . S
C1555 C1557 1.390 . S
C1555 H1559 0.950 . S
H1556 C1552 0.950 . S
C1557 C1555 1.390 . S
C1557 C1558 1.387 . S
C1557 H1560 0.950 . S
C1558 C1557 1.387 . S
C1558 C1561 1.387 . S
H1559 C1555 0.950 . S
H1560 C1557 0.950 . S
C1561 C1552 1.390 . S
C1561 H1554 0.950 . S
C1561 C1558 1.387 . S
C1562 C1563 1.387 . S
C1562 H1566 0.950 . S
C1562 C1571 1.390 . S
C1563 C1562 1.387 . S
C1563 C1565 1.387 . S
H1564 C1571 0.950 . S
C1565 C1563 1.387 . S
C1565 C1567 1.390 . S
C1565 H1569 0.950 . S
H1566 C1562 0.950 . S
C1567 C1565 1.390 . S
C1567 C1568 1.387 . S
C1567 H1570 0.950 . S
C1568 C1567 1.387 . S
C1568 C1571 1.387 . S
H1569 C1565 0.950 . S
H1570 C1567 0.950 . S
C1571 C1562 1.390 . S
C1571 H1564 0.950 . S
C1571 C1568 1.387 . S
C1572 C1573 1.387 . S
C1572 H1576 0.950 . S
C1572 C1581 1.390 . S
C1573 C1572 1.387 . S
C1573 C1575 1.387 1_455 S
H1574 C1581 0.950 . S
C1575 C1573 1.387 1_655 S
C1575 C1577 1.390 . S
C1575 H1579 0.950 . S
H1576 C1572 0.950 . S
C1577 C1575 1.390 . S
C1577 C1578 1.387 1_655 S
C1577 H1580 0.950 . S
C1578 C1577 1.387 1_455 S
C1578 C1581 1.387 . S
H1579 C1575 0.950 . S
H1580 C1577 0.950 . S
C1581 C1572 1.390 . S
C1581 H1574 0.950 . S
C1581 C1578 1.387 . S
C1582 C1583 1.387 . S
C1582 H1586 0.950 . S
C1582 C1591 1.390 . S
C1583 C1582 1.387 . S
C1583 C1585 1.387 . S
H1584 C1591 0.950 . S
C1585 C1583 1.387 . S
C1585 C1587 1.390 . S
C1585 H1589 0.950 . S
H1586 C1582 0.950 . S
C1587 C1585 1.390 . S
C1587 C1588 1.387 . S
C1587 H1590 0.950 . S
C1588 C1587 1.387 . S
C1588 C1591 1.387 . S
H1589 C1585 0.950 . S
H1590 C1587 0.950 . S
C1591 C1582 1.390 . S
C1591 H1584 0.950 . S
C1591 C1588 1.387 . S
C1592 C1593 1.387 . S
C1592 H1596 0.950 . S
C1592 C1601 1.390 . S
C1593 C1592 1.387 . S
C1593 C1595 1.387 . S
H1594 C1601 0.950 . S
C1595 C1593 1.387 . S
C1595 C1597 1.390 . S
C1595 H1599 0.950 . S
H1596 C1592 0.950 . S
C1597 C1595 1.390 . S
C1597 C1598 1.387 . S
C1597 H1600 0.950 . S
C1598 C1597 1.387 . S
C1598 C1601 1.387 . S
H1599 C1595 0.950 . S
H1600 C1597 0.950 . S
C1601 C1592 1.390 . S
C1601 H1594 0.950 . S
C1601 C1598 1.387 . S
C1602 C1603 1.387 . S
C1602 H1606 0.950 . S
C1602 C1611 1.390 . S
C1603 C1602 1.387 . S
C1603 C1605 1.387 . S
H1604 C1611 0.950 . S
C1605 C1603 1.387 . S
C1605 C1607 1.390 . S
C1605 H1609 0.950 . S
H1606 C1602 0.950 . S
C1607 C1605 1.390 . S
C1607 C1608 1.387 . S
C1607 H1610 0.950 . S
C1608 C1607 1.387 . S
C1608 C1611 1.387 . S
H1609 C1605 0.950 . S
H1610 C1607 0.950 . S
C1611 C1602 1.390 . S
C1611 H1604 0.950 . S
C1611 C1608 1.387 . S
C1612 C1613 1.387 . S
C1612 H1616 0.950 . S
C1612 C1621 1.390 . S
C1613 C1612 1.387 . S
C1613 C1615 1.387 . S
H1614 C1621 0.950 . S
C1615 C1613 1.387 . S
C1615 C1617 1.390 . S
C1615 H1619 0.950 . S
H1616 C1612 0.950 . S
C1617 C1615 1.390 . S
C1617 C1618 1.387 . S
C1617 H1620 0.950 . S
C1618 C1617 1.387 . S
C1618 C1621 1.387 . S
H1619 C1615 0.950 . S
H1620 C1617 0.950 . S
C1621 C1612 1.390 . S
C1621 H1614 0.950 . S
C1621 C1618 1.387 . S
C1622 C1623 1.387 . S
C1622 H1626 0.950 . S
C1622 C1631 1.390 . S
C1623 C1622 1.387 . S
C1623 C1625 1.387 . S
H1624 C1631 0.950 . S
C1625 C1623 1.387 . S
C1625 C1627 1.390 . S
C1625 H1629 0.950 . S
H1626 C1622 0.950 . S
C1627 C1625 1.390 . S
C1627 C1628 1.387 . S
C1627 H1630 0.950 . S
C1628 C1627 1.387 . S
C1628 C1631 1.387 . S
H1629 C1625 0.950 . S
H1630 C1627 0.950 . S
C1631 C1622 1.390 . S
C1631 H1624 0.950 . S
C1631 C1628 1.387 . S
C1632 C1633 1.387 . S
C1632 H1636 0.950 . S
C1632 C1641 1.390 . S
C1633 C1632 1.387 . S
C1633 C1635 1.387 . S
H1634 C1641 0.950 . S
C1635 C1633 1.387 . S
C1635 C1637 1.390 . S
C1635 H1639 0.950 . S
H1636 C1632 0.950 . S
C1637 C1635 1.390 . S
C1637 C1638 1.387 . S
C1637 H1640 0.950 . S
C1638 C1637 1.387 . S
C1638 C1641 1.387 . S
H1639 C1635 0.950 . S
H1640 C1637 0.950 . S
C1641 C1632 1.390 . S
C1641 H1634 0.950 . S
C1641 C1638 1.387 . S
C1642 C1643 1.387 . S
C1642 H1646 0.950 . S
C1642 C1651 1.390 . S
C1643 C1642 1.387 . S
C1643 C1645 1.387 . S
H1644 C1651 0.950 . S
C1645 C1643 1.387 . S
C1645 C1647 1.390 . S
C1645 H1649 0.950 . S
H1646 C1642 0.950 . S
C1647 C1645 1.390 . S
C1647 C1648 1.387 . S
C1647 H1650 0.950 . S
C1648 C1647 1.387 . S
C1648 C1651 1.387 . S
H1649 C1645 0.950 . S
H1650 C1647 0.950 . S
C1651 C1642 1.390 . S
C1651 H1644 0.950 . S
C1651 C1648 1.387 . S
C1652 C1653 1.387 . S
C1652 H1656 0.950 . S
C1652 C1661 1.390 . S
C1653 C1652 1.387 . S
C1653 C1655 1.387 . S
H1654 C1661 0.950 . S
C1655 C1653 1.387 . S
C1655 C1657 1.390 . S
C1655 H1659 0.950 . S
H1656 C1652 0.950 . S
C1657 C1655 1.390 . S
C1657 C1658 1.387 . S
C1657 H1660 0.950 . S
C1658 C1657 1.387 . S
C1658 C1661 1.387 . S
H1659 C1655 0.950 . S
H1660 C1657 0.950 . S
C1661 C1652 1.390 . S
C1661 H1654 0.950 . S
C1661 C1658 1.387 . S
C1662 C1663 1.387 . S
C1662 H1666 0.950 . S
C1662 C1671 1.390 . S
C1663 C1662 1.387 . S
C1663 C1665 1.387 . S
H1664 C1671 0.950 . S
C1665 C1663 1.387 . S
C1665 C1667 1.390 . S
C1665 H1669 0.950 . S
H1666 C1662 0.950 . S
C1667 C1665 1.390 . S
C1667 C1668 1.387 . S
C1667 H1670 0.950 . S
C1668 C1667 1.387 . S
C1668 C1671 1.387 . S
H1669 C1665 0.950 . S
H1670 C1667 0.950 . S
C1671 C1662 1.390 . S
C1671 H1664 0.950 . S
C1671 C1668 1.387 . S
C1672 C1673 1.387 . S
C1672 H1676 0.950 . S
C1672 C1681 1.390 . S
C1673 C1672 1.387 . S
C1673 C1675 1.387 . S
H1674 C1681 0.950 . S
C1675 C1673 1.387 . S
C1675 C1677 1.390 . S
C1675 H1679 0.950 . S
H1676 C1672 0.950 . S
C1677 C1675 1.390 . S
C1677 C1678 1.387 . S
C1677 H1680 0.950 . S
C1678 C1677 1.387 . S
C1678 C1681 1.387 . S
H1679 C1675 0.950 . S
H1680 C1677 0.950 . S
C1681 C1672 1.390 . S
C1681 H1674 0.950 . S
C1681 C1678 1.387 . S
C1682 C1683 1.387 . S
C1682 H1686 0.950 . S
C1682 C1691 1.390 . S
C1683 C1682 1.387 . S
C1683 C1685 1.387 . S
H1684 C1691 0.950 . S
C1685 C1683 1.387 . S
C1685 C1687 1.390 . S
C1685 H1689 0.950 . S
H1686 C1682 0.950 . S
C1687 C1685 1.390 . S
C1687 C1688 1.387 . S
C1687 H1690 0.950 . S
C1688 C1687 1.387 . S
C1688 C1691 1.387 . S
H1689 C1685 0.950 . S
H1690 C1687 0.950 . S
C1691 C1682 1.390 . S
C1691 H1684 0.950 . S
C1691 C1688 1.387 . S
C1692 C1693 1.387 . S
C1692 H1696 0.950 . S
C1692 C1701 1.390 . S
C1693 C1692 1.387 . S
C1693 C1695 1.387 . S
H1694 C1701 0.950 . S
C1695 C1693 1.387 . S
C1695 C1697 1.390 . S
C1695 H1699 0.950 . S
H1696 C1692 0.950 . S
C1697 C1695 1.390 . S
C1697 C1698 1.387 . S
C1697 H1700 0.950 . S
C1698 C1697 1.387 . S
C1698 C1701 1.387 . S
H1699 C1695 0.950 . S
H1700 C1697 0.950 . S
C1701 C1692 1.390 . S
C1701 H1694 0.950 . S
C1701 C1698 1.387 . S
C1702 C1703 1.387 . S
C1702 H1706 0.950 1_554 S
C1702 C1711 1.390 1_554 S
C1703 C1702 1.387 . S
C1703 C1705 1.387 . S
H1704 C1711 0.950 . S
C1705 C1703 1.387 . S
C1705 C1707 1.390 . S
C1705 H1709 0.950 . S
H1706 C1702 0.950 1_556 S
C1707 C1705 1.390 . S
C1707 C1708 1.387 . S
C1707 H1710 0.950 . S
C1708 C1707 1.387 . S
C1708 C1711 1.387 1_554 S
H1709 C1705 0.950 . S
H1710 C1707 0.950 . S
C1711 C1702 1.390 1_556 S
C1711 H1704 0.950 . S
C1711 C1708 1.387 1_556 S
C1712 C1713 1.387 . S
C1712 H1716 0.950 . S
C1712 C1721 1.390 . S
C1713 C1712 1.387 . S
C1713 C1715 1.387 . S
H1714 C1721 0.950 . S
C1715 C1713 1.387 . S
C1715 C1717 1.390 . S
C1715 H1719 0.950 . S
H1716 C1712 0.950 . S
C1717 C1715 1.390 . S
C1717 C1718 1.387 . S
C1717 H1720 0.950 . S
C1718 C1717 1.387 . S
C1718 C1721 1.387 . S
H1719 C1715 0.950 . S
H1720 C1717 0.950 . S
C1721 C1712 1.390 . S
C1721 H1714 0.950 . S
C1721 C1718 1.387 . S
C1722 C1723 1.385 1_556 S
C1722 H1726 0.950 . S
C1722 C1731 1.390 1_556 S
C1723 C1722 1.385 1_554 S
C1723 C1725 1.393 . S
H1724 C1731 0.950 1_556 S
C1725 C1723 1.393 . S
C1725 C1727 1.390 . S
C1725 H1729 0.950 . S
H1726 C1722 0.950 . S
C1727 C1725 1.390 . S
C1727 C1728 1.387 . S
C1727 H1730 0.950 . S
C1728 C1727 1.387 . S
C1728 C1731 1.387 . S
H1729 C1725 0.950 . S
H1730 C1727 0.950 . S
C1731 C1722 1.390 1_554 S
C1731 H1724 0.950 1_554 S
C1731 C1728 1.387 . S
C1732 C1733 1.387 . S
C1732 H1736 0.950 . S
C1732 C1741 1.390 . S
C1733 C1732 1.387 . S
C1733 C1735 1.387 . S
H1734 C1741 0.950 . S
C1735 C1733 1.387 . S
C1735 C1737 1.390 . S
C1735 H1739 0.950 . S
H1736 C1732 0.950 . S
C1737 C1735 1.390 . S
C1737 C1738 1.387 . S
C1737 H1740 0.950 . S
C1738 C1737 1.387 . S
C1738 C1741 1.387 . S
H1739 C1735 0.950 . S
H1740 C1737 0.950 . S
C1741 C1732 1.390 . S
C1741 H1734 0.950 . S
C1741 C1738 1.387 . S
C1742 C1743 1.387 . S
C1742 H1746 0.950 . S
C1742 C1751 1.390 . S
C1743 C1742 1.387 . S
C1743 C1745 1.387 . S
H1744 C1751 0.950 . S
C1745 C1743 1.387 . S
C1745 C1747 1.390 . S
C1745 H1749 0.950 . S
H1746 C1742 0.950 . S
C1747 C1745 1.390 . S
C1747 C1748 1.387 . S
C1747 H1750 0.950 . S
C1748 C1747 1.387 . S
C1748 C1751 1.387 . S
H1749 C1745 0.950 . S
H1750 C1747 0.950 . S
C1751 C1742 1.390 . S
C1751 H1744 0.950 . S
C1751 C1748 1.387 . S
C798 C313 1.994 . S
C793 C10 2.036 . S
C803 C23 1.272 . S
C808 C358 1.280 . S
C813 C36 1.931 . S
C818 C382 1.902 . S
C828 N408 1.332 . S
C823 C42 1.309 . S
C833 C18 1.409 . S
C838 N438 1.429 1_455 S
C848 C472 1.820 . S
C843 C31 1.847 . S
C858 C508 1.424 1_556 S
C853 C43 1.417 . S
C863 C5 2.019 . S
C868 C532 1.985 . S
C873 C56 1.179 1_565 S
C878 N326 1.183 . S
C883 C70 1.426 . S
C888 N348 1.449 . S
C898 C388 1.319 . S
C893 C82 1.312 . S
C908 C412 1.974 . S
C903 C96 2.007 . S
C913 C57 1.474 . S
C918 C442 1.434 . S
C928 C478 1.407 . S
C923 C69 1.396 . S
C938 N498 1.381 . S
C933 C83 1.359 . S
C948 C538 1.967 . S
C943 C95 1.991 . S
C958 C339 1.914 . S
C953 C94 1.947 . S
C968 C568 1.284 . S
C963 C108 1.273 . S
C973 C122 1.366 . S
C978 N588 1.387 . S
C988 C622 1.801 . S
C983 C140 1.829 . S
C993 C55 1.158 . S
C998 N528 1.160 . S
C1008 N378 1.355 1_565 S
C1003 C68 1.332 . S
C1013 C121 1.348 . S
C1018 C658 1.354 . S
C1028 C682 1.322 . S
C1023 C153 1.358 . S
C1033 C161 1.811 . S
C1038 C322 1.775 1_556 S
C1048 C699 1.028 . S
C1043 C174 1.035 . S
C1053 C186 1.677 . S
C1058 C373 1.635 . S
C1063 C200 1.176 . S
C1068 N656 1.223 . S
C1078 N446 1.283 . S
C1073 C172 1.235 1_455 S
C1088 C583 1.561 . S
C1083 C192 1.600 . S
C1098 C519 1.158 . S
C1093 C198 1.164 . S
C1108 C703 1.762 . S
C1103 C159 1.795 . S
C1118 N318 1.070 . S
C1113 C211 1.065 . S
C1123 C225 1.247 . S
C1128 N686 1.290 . S
C1138 C399 1.052 . S
C1133 C239 1.058 . S
C1143 C251 1.763 . S
C1148 C643 1.721 . S
C1153 C218 1.254 . S
C1158 C433 1.218 . S
C1163 C226 1.135 . S
C1168 C609 1.131 . S
C1178 N506 1.239 . S
C1173 C238 1.205 . S
C1183 C252 1.768 . S
C1188 C729 1.746 . S
C1193 C250 1.723 . S
C1198 C328 1.702 1_565 S
C1203 C264 1.026 . S
C1208 C579 1.023 . S
C1213 C276 1.208 . S
C1218 N476 1.253 . S
C1223 C290 1.592 . S
C1228 C613 1.551 . S
C1238 N716 1.034 . S
C1233 C213 1.030 1_565 S
C1248 N386 1.239 . S
C1243 C224 1.191 . S
C1258 C429 1.086 . S
C1253 C283 1.092 . S
C1268 C343 1.102 . S
C1263 C303 1.141 . S
C1273 C29 2.044 . S
C1278 C733 1.999 . S
C1288 C688 1.278 . S
C1283 C49 1.269 . S
C1298 C772 1.906 . S
C1293 C3 1.937 . S
C1303 C16 1.308 1_655 S
C1308 N648 1.332 . S
C1313 C44 1.408 . S
C1318 N558 1.428 1_556 S
C1328 C592 1.814 . S
C1323 C4 1.840 . S
C1338 C628 1.425 . S
C1333 C17 1.417 . S
C1348 C712 1.978 . S
C1343 C30 2.008 . S
C1358 N746 1.184 . S
C1353 C147 1.182 . S
C1363 C107 1.427 1_556 S
C1368 N678 1.449 . S
C1373 C127 1.314 . S
C1378 C778 1.322 1_655 S
C1388 C652 1.977 . S
C1383 C135 2.009 . S
C1398 C562 1.431 . S
C1393 C148 1.470 . S
C1403 C114 1.392 . S
C1408 C598 1.403 . S
C1418 N618 1.379 1_655 S
C1413 C120 1.356 . S
C1423 C134 1.990 . S
C1428 C718 1.966 . S
C1438 C759 1.917 . S
C1433 C133 1.949 . S
C1448 C448 1.287 1_565 S
C1443 C75 1.276 . S
C1458 N468 1.388 . S
C1453 C81 1.367 1_565 S
C1463 C101 1.831 . S
C1468 C502 1.803 . S
C1478 N708 1.160 . S
C1473 C146 1.156 . S
C1483 C109 1.330 . S
C1488 N768 1.354 . S
C1498 C418 1.352 . S
C1493 C88 1.346 . S
C1508 C352 1.319 . S
C1503 C62 1.356 . S
C1513 C187 1.813 . S
C1518 C742 1.777 . S
C1528 C369 1.017 . S
C1523 C199 1.019 . S
C1538 C763 1.633 1_556 S
C1533 C160 1.676 . S
C1543 C173 1.174 . S
C1548 N416 1.212 . S
C1553 C205 1.231 . S
C1558 N566 1.273 . S
C1563 C166 1.601 . S
C1568 C463 1.562 . S
C1573 C179 1.157 . S
C1578 C639 1.152 . S
C1583 C185 1.795 . S
C1588 C523 1.762 . S
C1598 N738 1.072 . S
C1593 C302 1.067 . S
C1603 C270 1.253 . S
C1608 N356 1.292 . S
C1618 C789 1.055 . S
C1613 C278 1.061 . S
C1623 C296 1.765 . S
C1628 C403 1.722 . S
C1633 C309 1.259 . S
C1638 C553 1.223 . S
C1648 C489 1.131 . S
C1643 C263 1.139 . S
C1653 C277 1.202 . S
C1658 N626 1.242 . S
C1668 C549 1.747 . S
C1663 C289 1.769 . S
C1678 C748 1.702 . S
C1673 C291 1.723 . S
C1688 C459 1.020 . S
C1683 C231 1.021 . S
C1693 C237 1.206 . S
C1698 N596 1.251 . S
C1708 C493 1.550 1_565 S
C1703 C257 1.590 . S
C1718 N536 1.034 . S
C1713 C304 1.030 . S
C1723 C265 1.192 1_554 S
C1728 N776 1.239 . S
C1738 C669 1.084 . S
C1733 C244 1.089 . S
C1748 C673 1.098 . S
C1743 C212 1.135 . S
