# Generated by pormake.
# Topology nia, (6,6)-cn, num edge types: 1
# Building blocks:
#     Node 0, Type 0, BuildingBlock: HISSIN_clean_sbu_0, # of connection points: 6
#     Node 1, Type 0, BuildingBlock: HISSIN_clean_sbu_0, # of connection points: 6
#     Node 2, Type 1, BuildingBlock: MIDCAF_clean_sbu_0, # of connection points: 6
#     Node 3, Type 1, BuildingBlock: MIDCAF_clean_sbu_0, # of connection points: 6
#     Edge 4, Type (0, 1), BuildingBlock: MIFKUJ_clean_linker_0, # of connection points: 2
#     Edge 5, Type (0, 1), BuildingBlock: MIFKUJ_clean_linker_0, # of connection points: 2
#     Edge 6, Type (0, 1), BuildingBlock: MIFKUJ_clean_linker_0, # of connection points: 2
#     Edge 7, Type (0, 1), BuildingBlock: MIFKUJ_clean_linker_0, # of connection points: 2
#     Edge 8, Type (0, 1), BuildingBlock: MIFKUJ_clean_linker_0, # of connection points: 2
#     Edge 9, Type (0, 1), BuildingBlock: MIFKUJ_clean_linker_0, # of connection points: 2
#     Edge 10, Type (0, 1), BuildingBlock: MIFKUJ_clean_linker_0, # of connection points: 2
#     Edge 11, Type (0, 1), BuildingBlock: MIFKUJ_clean_linker_0, # of connection points: 2
#     Edge 12, Type (0, 1), BuildingBlock: MIFKUJ_clean_linker_0, # of connection points: 2
#     Edge 13, Type (0, 1), BuildingBlock: MIFKUJ_clean_linker_0, # of connection points: 2
#     Edge 14, Type (0, 1), BuildingBlock: MIFKUJ_clean_linker_0, # of connection points: 2
#     Edge 15, Type (0, 1), BuildingBlock: MIFKUJ_clean_linker_0, # of connection points: 2
# Relax obj value: 0.314
# Max RMSD: 0.258
# Mean RMSD: 0.242
data_MOF--net-nia--node1-HISSIN_clean_sbu_0--node2-MIDCAF_clean_sbu_0--edge1-MIFKUJ_clean_linker_0
_symmetry_space_group_name_H-M    P1
_symmetry_Int_Tables_number       1
_symmetry_cell_setting            triclinic
loop_
_symmetry_equiv_pos_as_xyz
'x, y, z'
_cell_length_a     32.594102
_cell_length_b     32.442086
_cell_length_c     42.371578
_cell_angle_alpha  82.746936
_cell_angle_beta   83.01954
_cell_angle_gamma 118.03521
loop_
_atom_site_label
_atom_site_type_symbol
_atom_site_fract_x
_atom_site_fract_y
_atom_site_fract_z
_atom_type_partial_charge
Eu0 Eu 0.01971 0.06279 0.04557 0.0
Eu1 Eu 0.98665 0.9878 0.99867 0.0
C2 C 0.09306 0.07085 0.98477 0.0
C3 C 0.05927 0.17547 0.07922 0.0
C4 C 0.07791 0.21067 0.05042 0.0
C5 C 0.05552 0.23192 0.10975 0.0
C6 C 0.08673 0.25685 0.05152 0.0
C7 C 0.04702 0.18604 0.10865 0.0
C8 C 0.07658 0.26811 0.08135 0.0
C9 C 0.05432 0.12828 0.07947 0.0
O10 O 0.0241 0.96391 0.03147 0.0
O11 O 0.01544 0.9971 0.07448 0.0
C12 C 0.0257 0.96743 0.06177 0.0
O13 O 0.94063 0.02145 0.06488 0.0
O14 O 0.00653 0.96223 0.95741 0.0
O15 O 0.93365 0.92578 0.98412 0.0
O16 O 0.92076 0.95858 0.03887 0.0
C17 C 0.90947 0.97996 0.06003 0.0
O18 O 4e-05 0.09899 1.00498 0.0
O19 O 0.9576 0.03483 0.98232 0.0
O20 O 0.0565 0.05169 0.97085 0.0
O21 O 0.01131 0.09214 0.08799 0.0
O22 O 0.07964 0.12466 0.05487 0.0
O23 O 0.08541 0.06792 0.01623 0.0
C24 C 0.9643 0.8784 0.96497 0.0
C25 C 0.93344 0.83898 0.99032 0.0
C26 C 0.98604 0.82784 0.93824 0.0
C27 C 0.92678 0.7937 0.98845 0.0
C28 C 0.99241 0.87296 0.93991 0.0
C29 C 0.95109 0.78773 0.9614 0.0
C30 C 0.96494 0.92421 0.96281 0.0
C31 C 0.9703 0.07832 0.98613 0.0
H32 H 0.08709 0.20298 0.02728 0.0
H33 H 0.04829 0.23961 0.13328 0.0
H34 H 0.10296 0.28407 0.02933 0.0
H35 H 0.03252 0.15925 0.13103 0.0
H36 H 0.91202 0.8424 0.01036 0.0
H37 H 0.00466 0.82357 0.917 0.0
H38 H 0.89924 0.76294 1.00627 0.0
H39 H 0.01687 0.903 0.92041 0.0
Eu40 Eu 0.96556 0.00967 0.4949 0.0
Eu41 Eu 0.0405 0.04 0.53986 0.0
C42 C 0.95589 0.93144 0.55349 0.0
C43 C 0.85313 0.97537 0.46356 0.0
C44 C 0.82032 0.93776 0.48928 0.0
C45 C 0.78899 0.98195 0.44477 0.0
C46 C 0.77183 0.92057 0.49153 0.0
C47 C 0.83738 -0.00136 0.44221 0.0
C48 C 0.75597 0.9414 0.46845 0.0
C49 C 0.90364 0.99015 0.45809 0.0
O50 O 0.0778 0.02727 0.49662 0.0
O51 O 0.01196 0.97948 0.47803 0.0
C52 C 0.05698 0.99597 0.47887 0.0
O53 O 0.03042 0.07884 0.46734 0.0
O54 O 0.06777 0.02989 0.58302 0.0
O55 O 0.10592 0.09688 0.54735 0.0
O56 O 0.04275 0.10649 0.51321 0.0
C57 C 0.04711 0.11513 0.48167 0.0
O58 O 0.94137 0.04553 0.52949 0.0
O59 O 0.97866 0.03856 0.57057 0.0
O60 O 0.00173 0.95882 0.55137 0.0
O61 O 0.93147 0.03333 0.46152 0.0
O62 O 0.91507 0.9592 0.47087 0.0
O63 O 0.93177 0.94865 0.5393 0.0
C64 C 0.15216 0.072 0.57339 0.0
C65 C 0.1943 0.11541 0.5611 0.0
C66 C 0.19794 0.03514 0.58994 0.0
C67 C 0.23773 0.11912 0.56408 0.0
C68 C 0.15427 0.03139 0.58688 0.0
C69 C 0.23977 0.07954 0.57973 0.0
C70 C 0.10682 0.07096 0.5731 0.0
C71 C 0.94807 0.04853 0.55921 0.0
H72 H 0.83194 0.92012 0.50659 0.0
H73 H 0.77738 0.99807 0.42645 0.0
H74 H 0.7467 0.8891 0.50984 0.0
H75 H 0.86239 0.02823 0.4226 0.0
H76 H 0.19356 0.1472 0.5505 0.0
H77 H 0.19875 0.00405 0.60189 0.0
H78 H 0.26918 0.15401 0.55641 0.0
H79 H 0.12225 0.99729 0.5962 0.0
Zn80 Zn 0.33784 0.75111 0.17442 0.0
Zn81 Zn 0.29677 0.69407 0.32311 0.0
Zn82 Zn 0.3091 0.71338 0.26706 0.0
C83 C 0.38987 0.73272 0.30258 0.0
C84 C 0.24407 0.60802 0.31526 0.0
O85 O 0.26279 0.74482 0.25618 0.0
O86 O 0.29154 0.75645 0.20458 0.0
C87 C 0.41627 0.78125 0.21333 0.0
O88 O 0.37757 0.74934 0.27864 0.0
O89 O 0.35896 0.69702 0.32387 0.0
O90 O 0.23964 0.63028 0.33658 0.0
O91 O 0.27257 0.63251 0.28765 0.0
O92 O 0.39937 0.77999 0.18782 0.0
O93 O 0.38907 0.75965 0.24208 0.0
O94 O 0.30662 0.68247 0.22687 0.0
O95 O 0.31604 0.6834 0.17451 0.0
C96 C 0.30405 0.66071 0.20369 0.0
O97 O 0.27134 0.75085 0.28701 0.0
O98 O 0.29211 0.74925 0.33455 0.0
C99 C 0.26305 0.75831 0.2262 0.0
C100 C 0.27502 0.76507 0.31423 0.0
Zn101 Zn 0.67701 0.30575 0.826 0.0
Zn102 Zn 0.7287 0.36039 0.68804 0.0
Zn103 Zn 0.69195 0.33034 0.77013 0.0
C104 C 0.75113 0.44108 0.71876 0.0
C105 C 0.62558 0.29479 0.73229 0.0
O106 O 0.73035 0.29098 0.78532 0.0
O107 O 0.68466 0.24872 0.83308 0.0
C108 C 0.74821 0.40245 0.80649 0.0
O109 O 0.72958 0.41149 0.74679 0.0
O110 O 0.75594 0.42672 0.69287 0.0
O111 O 0.66618 0.32062 0.71499 0.0
O112 O 0.62104 0.29228 0.76285 0.0
O113 O 0.73429 0.36534 0.82796 0.0
O114 O 0.7301 0.39956 0.78111 0.0
O115 O 0.61025 0.29315 0.79512 0.0
O116 O 0.61573 0.29817 0.84584 0.0
C117 C 0.59016 0.28825 0.82489 0.0
O118 O 0.73249 0.29628 0.74864 0.0
O119 O 0.76493 0.32728 0.69546 0.0
C120 C 0.71961 0.25895 0.81103 0.0
C121 C 0.75846 0.29945 0.7217 0.0
H122 H 0.00449 0.93516 0.12769 0.0
H123 H 0.03608 0.89191 0.15885 0.0
H124 H 0.12139 0.89852 0.06995 0.0
H125 H 0.08754 0.93883 0.03877 0.0
H126 H 0.09341 0.81909 0.10449 0.0
H127 H 0.16754 0.97462 0.12629 0.0
H128 H 0.17452 0.04763 0.14256 0.0
H129 H 0.09461 0.9668 0.2383 0.0
H130 H 0.08672 0.89318 0.22246 0.0
H131 H 0.27879 0.80917 0.16645 0.0
H132 H 0.22791 0.83318 0.1426 0.0
H133 H 0.12691 0.77506 0.2339 0.0
H134 H 0.17769 0.74808 0.25822 0.0
H135 H 0.15515 0.87217 0.2019 0.0
H136 H 0.0956 0.71568 0.1728 0.0
H137 H 0.10313 0.65313 0.14927 0.0
H138 H 0.17938 0.75243 0.05837 0.0
H139 H 0.17179 0.81544 0.08112 0.0
C140 C 0.02977 0.92706 0.11489 0.0
C141 C 0.04357 0.94035 0.08087 0.0
C142 C 0.04812 0.90265 0.13269 0.0
C143 C 0.08197 0.89263 0.11693 0.0
C144 C 0.0953 0.90554 0.08283 0.0
C145 C 0.07598 0.92873 0.06499 0.0
C146 C 0.10378 0.86911 0.13586 0.0
C147 C 0.10706 0.83099 0.12569 0.0
C148 C 0.12181 0.88432 0.16358 0.0
C149 C 0.12599 0.92833 0.17308 0.0
C150 C 0.15108 0.97236 0.15072 0.0
C151 C 0.1553 0.01386 0.15988 0.0
C152 C 0.13487 0.01183 0.19141 0.0
C153 C 0.1103 0.9683 0.21386 0.0
C154 C 0.10597 0.92669 0.20483 0.0
C155 C 0.24574 0.80108 0.18182 0.0
C156 C 0.23256 0.77687 0.2146 0.0
C157 C 0.21648 0.81468 0.16785 0.0
C158 C 0.17324 0.80503 0.1862 0.0
C159 C 0.16011 0.78226 0.21925 0.0
C160 C 0.1894 0.76766 0.23332 0.0
C161 C 0.14421 0.82221 0.17068 0.0
C162 C 0.14028 0.85966 0.18119 0.0
C163 C 0.12797 0.80806 0.14225 0.0
C164 C 0.13332 0.77034 0.12877 0.0
C165 C 0.11428 0.72427 0.14788 0.0
C166 C 0.11848 0.68871 0.13466 0.0
C167 C 0.14204 0.69887 0.10247 0.0
C168 C 0.1612 0.74459 0.08332 0.0
C169 C 0.15674 0.78017 0.09631 0.0
H170 H 0.14527 0.67126 0.09235 0.0
H171 H 0.13819 0.044 0.19846 0.0
H172 H 0.24577 0.04537 0.63975 0.0
H173 H 0.31582 0.07705 0.66356 0.0
H174 H 0.40159 0.16734 0.57057 0.0
H175 H 0.33174 0.13392 0.54602 0.0
H176 H 0.44877 0.13575 0.6026 0.0
H177 H 0.35761 0.21142 0.62606 0.0
H178 H 0.28747 0.2189 0.64559 0.0
H179 H 0.27521 0.14876 0.74205 0.0
H180 H 0.34489 0.1403 0.72301 0.0
H181 H 0.62409 0.31449 0.66904 0.0
H182 H 0.56347 0.2679 0.64039 0.0
H183 H 0.48086 0.16526 0.72992 0.0
H184 H 0.54318 0.21089 0.7587 0.0
H185 H 0.4338 0.20556 0.69807 0.0
H186 H 0.52526 0.12706 0.67047 0.0
H187 H 0.58764 0.11128 0.6456 0.0
H188 H 0.60009 0.19256 0.55325 0.0
H189 H 0.5381 0.20902 0.57755 0.0
C190 C 0.27981 0.07042 0.62399 0.0
C191 C 0.28332 0.08768 0.5911 0.0
C192 C 0.31958 0.08918 0.6378 0.0
C193 C 0.36313 0.12571 0.61901 0.0
C194 C 0.36785 0.13972 0.58551 0.0
C195 C 0.3281 0.12059 0.57155 0.0
C196 C 0.40318 0.15038 0.6347 0.0
C197 C 0.44586 0.15168 0.62321 0.0
C198 C 0.39877 0.17067 0.66168 0.0
C199 C 0.35613 0.17469 0.67301 0.0
C200 C 0.33962 0.19709 0.65135 0.0
C201 C 0.30003 0.20164 0.66236 0.0
C202 C 0.27681 0.18418 0.69502 0.0
C203 C 0.29316 0.16218 0.71675 0.0
C204 C 0.33271 0.15751 0.70586 0.0
C205 C 0.59304 0.28189 0.6827 0.0
C206 C 0.58708 0.26711 0.71641 0.0
C207 C 0.55888 0.25509 0.66616 0.0
C208 C 0.51815 0.21322 0.68309 0.0
C209 C 0.51238 0.19769 0.71662 0.0
C210 C 0.54711 0.22425 0.73318 0.0
C211 C 0.47896 0.18947 0.66661 0.0
C212 C 0.43663 0.18936 0.6776 0.0
C213 C 0.48412 0.17137 0.63869 0.0
C214 C 0.52729 0.16942 0.62587 0.0
C215 C 0.54222 0.1426 0.64508 0.0
C216 C 0.57714 0.13314 0.631 0.0
C217 C 0.59723 0.15041 0.59779 0.0
C218 C 0.58414 0.17891 0.57889 0.0
C219 C 0.54925 0.18839 0.59281 0.0
H220 H 0.62257 0.14139 0.58649 0.0
H221 H 0.24622 0.18781 0.7035 0.0
H222 H 0.16297 0.34536 0.05225 0.0
H223 H 0.20262 0.41716 0.07391 0.0
H224 H 0.07225 0.37275 0.1419 0.0
H225 H 0.03145 0.30375 0.1181 0.0
H226 H 0.12154 0.46157 0.13356 0.0
H227 H 0.16441 0.33183 0.15258 0.0
H228 H 0.20189 0.28563 0.13451 0.0
H229 H 0.3322 0.41584 0.0925 0.0
H230 H 0.29539 0.46264 0.11014 0.0
H231 H 0.22332 0.58965 0.24367 0.0
H232 H 0.18077 0.51002 0.23188 0.0
H233 H 0.30519 0.54233 0.1615 0.0
H234 H 0.34818 0.6194 0.17532 0.0
H235 H 0.25514 0.45537 0.17472 0.0
H236 H 0.2198 0.58675 0.14753 0.0
H237 H 0.19089 0.64099 0.16293 0.0
H238 H 0.05732 0.52042 0.2134 0.0
H239 H 0.08559 0.46561 0.19847 0.0
C240 C 0.14211 0.35226 0.07056 0.0
C241 C 0.09459 0.31808 0.08455 0.0
C242 C 0.16509 0.39286 0.08337 0.0
C243 C 0.14111 0.39843 0.11091 0.0
C244 C 0.0919 0.36838 0.12128 0.0
C245 C 0.06859 0.32879 0.10778 0.0
C246 C 0.16726 0.4305 0.1318 0.0
C247 C 0.15069 0.46012 0.14261 0.0
C248 C 0.20572 0.42912 0.14338 0.0
C249 C 0.22702 0.4006 0.13236 0.0
C250 C 0.20094 0.35049 0.13933 0.0
C251 C 0.2221 0.32425 0.12919 0.0
C252 C 0.26935 0.34778 0.1123 0.0
C253 C 0.2956 0.39763 0.10551 0.0
C254 C 0.27462 0.42399 0.11556 0.0
C255 C 0.24235 0.57801 0.2276 0.0
C256 C 0.28814 0.6102 0.2096 0.0
C257 C 0.21786 0.533 0.22038 0.0
C258 C 0.23896 0.52168 0.19441 0.0
C259 C 0.28768 0.55068 0.18108 0.0
C260 C 0.31236 0.59482 0.18891 0.0
C261 C 0.20999 0.48695 0.17606 0.0
C262 C 0.22578 0.45659 0.16581 0.0
C263 C 0.17211 0.48909 0.16406 0.0
C264 C 0.15499 0.52219 0.17228 0.0
C265 C 0.1843 0.5719 0.16193 0.0
C266 C 0.16806 0.60271 0.1706 0.0
C267 C 0.12244 0.58413 0.18935 0.0
C268 C 0.09273 0.53475 0.19906 0.0
C269 C 0.10882 0.50382 0.1905 0.0
H270 H 0.11008 0.60796 0.19639 0.0
H271 H 0.28566 0.3274 0.10453 0.0
H272 H 0.99713 0.13574 0.57221 0.0
H273 H 0.9667 0.17827 0.60269 0.0
H274 H 0.82486 0.05788 0.61976 0.0
H275 H 0.85532 0.01662 0.58724 0.0
H276 H 0.82261 0.13721 0.60583 0.0
H277 H 0.90452 0.08753 0.6796 0.0
H278 H 0.97615 0.08656 0.69206 0.0
H279 H 0.05224 0.23986 0.67315 0.0
H280 H 0.98123 0.24171 0.66032 0.0
H281 H 0.71278 0.203 0.72824 0.0
H282 H 0.74644 0.15796 0.70353 0.0
H283 H 0.88533 0.28332 0.68055 0.0
H284 H 0.85162 0.3282 0.70475 0.0
H285 H 0.89155 0.20371 0.69784 0.0
H286 H 0.82445 0.26194 0.62512 0.0
H287 H 0.76833 0.27833 0.59943 0.0
H288 H 0.68043 0.12839 0.60349 0.0
H289 H 0.73502 0.11111 0.6301 0.0
C290 C 0.95946 0.11845 0.58261 0.0
C291 C 0.9285 0.07281 0.57793 0.0
C292 C 0.94211 0.14257 0.60026 0.0
C293 C 0.89362 0.12078 0.61461 0.0
C294 C 0.8625 0.07531 0.60932 0.0
C295 C 0.87977 0.05166 0.59087 0.0
C296 C 0.87506 0.14562 0.63448 0.0
C297 C 0.83687 0.15059 0.6265 0.0
C298 C 0.89569 0.16612 0.66012 0.0
C299 C 0.93767 0.16471 0.66893 0.0
C300 C 0.93655 0.12098 0.67812 0.0
C301 C 0.97705 0.1203 0.6852 0.0
C302 C 0.01873 0.16311 0.68336 0.0
C303 C 0.01994 0.20672 0.67459 0.0
C304 C 0.97957 0.2076 0.66748 0.0
C305 C 0.75081 0.22011 0.7193 0.0
C306 C 0.7799 0.26868 0.71902 0.0
C307 C 0.76988 0.19469 0.70465 0.0
C308 C 0.81832 0.21749 0.68977 0.0
C309 C 0.84794 0.26494 0.69189 0.0
C310 C 0.82879 0.29042 0.70606 0.0
C311 C 0.83761 0.19319 0.67009 0.0
C312 C 0.87638 0.1891 0.67776 0.0
C313 C 0.81878 0.1752 0.6433 0.0
C314 C 0.7834 0.1851 0.63022 0.0
C315 C 0.79248 0.23235 0.62133 0.0
C316 C 0.76102 0.24189 0.60643 0.0
C317 C 0.72065 0.20454 0.59993 0.0
C318 C 0.71138 0.15748 0.60868 0.0
C319 C 0.7425 0.14773 0.6238 0.0
H320 H 0.69696 0.21232 0.58785 0.0
H321 H 0.05007 0.1625 0.68877 0.0
H322 H 0.82781 0.94893 0.03638 0.0
H323 H 0.7463 0.91767 0.06709 0.0
H324 H 0.79728 0.92861 0.15653 0.0
H325 H 0.87899 0.96183 0.12577 0.0
H326 H 0.70722 0.83393 0.15242 0.0
H327 H 0.77742 0.00865 0.13458 0.0
H328 H 0.81647 0.08912 0.0994 0.0
H329 H 0.70296 0.04401 0.0472 0.0
H330 H 0.66358 0.96312 0.0818 0.0
H331 H 0.4795 0.76805 0.24725 0.0
H332 H 0.56576 0.80425 0.22796 0.0
H333 H 0.5569 0.88377 0.14165 0.0
H334 H 0.47421 0.85353 0.16279 0.0
H335 H 0.63177 0.93555 0.14834 0.0
H336 H 0.56547 0.76574 0.15211 0.0
H337 H 0.52287 0.67987 0.17764 0.0
H338 H 0.61937 0.7056 0.24283 0.0
H339 H 0.66234 0.79164 0.21777 0.0
C340 C 0.82148 0.94419 0.06262 0.0
C341 C 0.85969 0.9574 0.07872 0.0
C342 C 0.77495 0.92652 0.08013 0.0
C343 C 0.76553 0.92058 0.11419 0.0
C344 C 0.80356 0.93272 0.13033 0.0
C345 C 0.85022 0.9517 0.11275 0.0
C346 C 0.71629 0.90281 0.13292 0.0
C347 C 0.69061 0.85612 0.15176 0.0
C348 C 0.69398 0.93107 0.13132 0.0
C349 C 0.71786 0.97972 0.11056 0.0
C350 C 0.76106 0.01577 0.11539 0.0
C351 C 0.78318 0.06149 0.0956 0.0
C352 C 0.7623 0.07164 0.07101 0.0
C353 C 0.71916 0.03611 0.06621 0.0
C354 C 0.69692 0.99034 0.08592 0.0
C355 C 0.49659 0.79494 0.22501 0.0
C356 C 0.46947 0.80782 0.20688 0.0
C357 C 0.54599 0.81475 0.21328 0.0
C358 C 0.56892 0.84634 0.18253 0.0
C359 C 0.54158 0.86014 0.1654 0.0
C360 C 0.49342 0.84219 0.17759 0.0
C361 C 0.62053 0.86506 0.16717 0.0
C362 C 0.64738 0.9125 0.14907 0.0
C363 C 0.64285 0.83646 0.16799 0.0
C364 C 0.61672 0.78504 0.18335 0.0
C365 C 0.57736 0.75305 0.17203 0.0
C366 C 0.55322 0.70438 0.18637 0.0
C367 C 0.56832 0.68732 0.2119 0.0
C368 C 0.60766 0.71887 0.2231 0.0
C369 C 0.63194 0.76756 0.20883 0.0
H370 H 0.54961 0.64963 0.22296 0.0
H371 H 0.77949 0.10705 0.05573 0.0
H372 H 0.99502 0.87348 0.56332 0.0
H373 H 0.95593 0.78994 0.59248 0.0
H374 H 0.82339 0.79016 0.614 0.0
H375 H 0.86199 0.87333 0.58381 0.0
H376 H 0.84523 0.75214 0.66905 0.0
H377 H 0.83548 0.7353 0.56174 0.0
H378 H 0.85397 0.73869 0.50315 0.0
H379 H 0.93084 0.66387 0.52028 0.0
H380 H 0.91581 0.66292 0.57876 0.0
H381 H 0.70681 0.49364 0.72987 0.0
H382 H 0.73792 0.57799 0.70432 0.0
H383 H 0.87359 0.59014 0.66846 0.0
H384 H 0.84249 0.50641 0.6936 0.0
H385 H 0.84185 0.62003 0.62007 0.0
H386 H 0.85813 0.65065 0.72897 0.0
H387 H 0.8263 0.63737 0.78745 0.0
H388 H 0.72153 0.67462 0.7647 0.0
H389 H 0.75316 0.68868 0.70605 0.0
C390 C 0.95749 0.85576 0.57418 0.0
C391 C 0.93175 0.88038 0.57128 0.0
C392 C 0.93509 0.8078 0.59075 0.0
C393 C 0.88655 0.78339 0.60555 0.0
C394 C 0.86082 0.80799 0.60287 0.0
C395 C 0.88294 0.8556 0.58553 0.0
C396 C 0.86326 0.73292 0.62465 0.0
C397 C 0.8443 0.72331 0.65812 0.0
C398 C 0.8616 0.69476 0.61064 0.0
C399 C 0.87516 0.69986 0.5749 0.0
C400 C 0.85773 0.72099 0.55306 0.0
C401 C 0.8675 0.72235 0.51976 0.0
C402 C 0.89377 0.70173 0.50797 0.0
C403 C 0.91064 0.68002 0.52942 0.0
C404 C 0.90199 0.67959 0.56263 0.0
C405 C 0.74388 0.51506 0.71789 0.0
C406 C 0.77257 0.49369 0.71453 0.0
C407 C 0.76159 0.56321 0.70288 0.0
C408 C 0.8083 0.59084 0.68421 0.0
C409 C 0.83751 0.56996 0.68251 0.0
C410 C 0.81991 0.52217 0.6974 0.0
C411 C 0.82619 0.6401 0.66444 0.0
C412 C 0.84366 0.6493 0.63083 0.0
C413 C 0.8259 0.67762 0.67807 0.0
C414 C 0.80779 0.67042 0.71321 0.0
C415 C 0.82825 0.6559 0.73648 0.0
C416 C 0.81022 0.6482 0.76964 0.0
C417 C 0.77164 0.6547 0.7798 0.0
C418 C 0.75134 0.66948 0.7568 0.0
C419 C 0.76945 0.67756 0.72361 0.0
H420 H 0.75759 0.64848 0.80549 0.0
H421 H 0.90084 0.70235 0.48223 0.0
H422 H 0.02321 0.9273 0.44286 0.0
H423 H 0.06542 0.89343 0.4142 0.0
H424 H 0.19355 0.98642 0.44431 0.0
H425 H 0.15136 0.02091 0.47321 0.0
H426 H 0.21385 0.98235 0.382 0.0
H427 H 0.13675 0.87336 0.47951 0.0
H428 H 0.074 0.82015 0.52733 0.0
H429 H 0.99332 0.73029 0.46635 0.0
H430 H 0.0552 0.78366 0.41794 0.0
H431 H 0.32025 0.83862 0.34355 0.0
H432 H 0.28807 0.88378 0.369 0.0
H433 H 0.15906 0.80908 0.334 0.0
H434 H 0.19122 0.76321 0.30885 0.0
H435 H 0.14446 0.80636 0.40113 0.0
H436 H 0.23913 0.92842 0.30202 0.0
H437 H 0.31399 0.98342 0.26265 0.0
H438 H 0.37669 0.04911 0.33901 0.0
H439 H 0.30242 0.99414 0.37888 0.0
C440 C 0.06043 0.94087 0.44337 0.0
C441 C 0.08382 0.97701 0.46038 0.0
C442 C 0.08451 0.9212 0.42704 0.0
C443 C 0.13262 0.93701 0.42726 0.0
C444 C 0.15645 0.97365 0.44374 0.0
C445 C 0.13224 0.99329 0.46029 0.0
C446 C 0.1574 0.91481 0.41026 0.0
C447 C 0.19891 0.94389 0.38641 0.0
C448 C 0.13858 0.86469 0.41632 0.0
C449 C 0.10037 0.83288 0.44502 0.0
C450 C 0.10531 0.84264 0.47619 0.0
C451 C 0.06998 0.81243 0.50342 0.0
C452 C 0.0297 0.77201 0.49987 0.0
C453 C 0.0245 0.76175 0.46905 0.0
C454 C 0.05972 0.792 0.44167 0.0
C455 C 0.2855 0.83277 0.34053 0.0
C456 C 0.25858 0.79815 0.32353 0.0
C457 C 0.26715 0.85862 0.35511 0.0
C458 C 0.22128 0.85022 0.35322 0.0
C459 C 0.19474 0.81651 0.33551 0.0
C460 C 0.21334 0.79084 0.32066 0.0
C461 C 0.19971 0.87376 0.37185 0.0
C462 C 0.15899 0.84478 0.39641 0.0
C463 C 0.22075 0.92408 0.36751 0.0
C464 C 0.26533 0.95694 0.34344 0.0
C465 C 0.269 0.95435 0.31044 0.0
C466 C 0.31131 0.98557 0.28803 0.0
C467 C 0.3501 0.01968 0.29833 0.0
C468 C 0.34664 0.02268 0.33106 0.0
C469 C 0.30444 0.99154 0.35355 0.0
H470 H 0.3828 0.04383 0.28094 0.0
H471 H 0.00284 0.74865 0.52114 0.0
H472 H 0.1754 0.12344 1.0053 0.0
H473 H 0.25729 0.1606 0.97525 0.0
H474 H 0.20735 0.10867 0.89101 0.0
H475 H 0.12485 0.07081 0.92122 0.0
H476 H 0.28267 0.09694 0.90001 0.0
H477 H 0.24946 0.22759 0.89755 0.0
H478 H 0.22506 0.28043 0.92106 0.0
H479 H 0.33646 0.32054 0.97504 0.0
H480 H 0.36106 0.26737 0.95227 0.0
H481 H 0.51426 0.24275 0.79418 0.0
H482 H 0.42889 0.20586 0.81774 0.0
H483 H 0.46251 0.25557 0.90581 0.0
H484 H 0.54661 0.29141 0.88284 0.0
H485 H 0.39372 0.26907 0.89145 0.0
H486 H 0.42437 0.13889 0.901 0.0
H487 H 0.45175 0.08536 0.88226 0.0
H488 H 0.34886 0.04261 0.82145 0.0
H489 H 0.32132 0.09652 0.83948 0.0
C490 C 0.18161 0.11989 0.98034 0.0
C491 C 0.14313 0.09425 0.96571 0.0
C492 C 0.22874 0.14147 0.96305 0.0
C493 C 0.23902 0.13829 0.93051 0.0
C494 C 0.20069 0.11205 0.91596 0.0
C495 C 0.15338 0.09058 0.93325 0.0
C496 C 0.2896 0.16224 0.91188 0.0
C497 C 0.30664 0.1348 0.89763 0.0
C498 C 0.32186 0.21138 0.90955 0.0
C499 C 0.30684 0.24316 0.92338 0.0
C500 C 0.2685 0.24736 0.91464 0.0
C501 C 0.25467 0.27743 0.92781 0.0
C502 C 0.27913 0.30375 0.94958 0.0
C503 C 0.3175 0.30009 0.95821 0.0
C504 C 0.33141 0.27001 0.94517 0.0
C505 C 0.50347 0.24569 0.81849 0.0
C506 C 0.53784 0.26949 0.83653 0.0
C507 C 0.45448 0.22449 0.83208 0.0
C508 C 0.43874 0.22722 0.86391 0.0
C509 C 0.47317 0.25257 0.88135 0.0
C510 C 0.52166 0.27308 0.86801 0.0
C511 C 0.38685 0.20385 0.87956 0.0
C512 C 0.36961 0.23134 0.89342 0.0
C513 C 0.3548 0.15462 0.88219 0.0
C514 C 0.37126 0.12227 0.87121 0.0
C515 C 0.40791 0.11845 0.88337 0.0
C516 C 0.42339 0.08797 0.87293 0.0
C517 C 0.40219 0.06075 0.85058 0.0
C518 C 0.36535 0.06384 0.8387 0.0
C519 C 0.34978 0.09436 0.84901 0.0
H520 H 0.41421 0.03714 0.84254 0.0
H521 H 0.2684 0.32704 0.95971 0.0
H522 H 0.02786 0.18393 0.4978 0.0
H523 H 0.05976 0.26593 0.46704 0.0
H524 H 0.14493 0.24154 0.39372 0.0
H525 H 0.11136 0.15873 0.42374 0.0
H526 H 0.19404 0.33266 0.41892 0.0
H527 H 0.05654 0.24107 0.37372 0.0
H528 H 0.97158 0.18568 0.37709 0.0
H529 H 0.93471 0.27879 0.42167 0.0
H530 H 0.01948 0.3344 0.41903 0.0
H531 H 0.27482 0.54566 0.2982 0.0
H532 H 0.24183 0.46131 0.32497 0.0
H533 H 0.1275 0.46638 0.38398 0.0
H534 H 0.16013 0.5498 0.35763 0.0
H535 H 0.09277 0.38382 0.36644 0.0
H536 H 0.22039 0.47254 0.4156 0.0
H537 H 0.30151 0.52843 0.421 0.0
H538 H 0.35348 0.44374 0.37915 0.0
H539 H 0.27267 0.38762 0.37311 0.0
C540 C 0.05335 0.1961 0.47508 0.0
C541 C 0.06704 0.1649 0.46309 0.0
C542 C 0.07153 0.24295 0.4575 0.0
C543 C 0.10485 0.26011 0.42799 0.0
C544 C 0.11927 0.22921 0.41635 0.0
C545 C 0.09995 0.18186 0.43343 0.0
C546 C 0.12426 0.31005 0.40917 0.0
C547 C 0.17219 0.34366 0.40687 0.0
C548 C 0.0953 0.32517 0.39473 0.0
C549 C 0.04434 0.29167 0.39646 0.0
C550 C 0.0303 0.2495 0.38455 0.0
C551 C 0.98217 0.21811 0.38626 0.0
C552 C 0.94776 0.22865 0.39965 0.0
C553 C 0.9614 0.27064 0.41134 0.0
C554 C 0.00948 0.30212 0.40972 0.0
C555 C 0.24201 0.52838 0.31625 0.0
C556 C 0.22001 0.55465 0.32543 0.0
C557 C 0.22346 0.48025 0.33196 0.0
C558 C 0.18224 0.45714 0.35697 0.0
C559 C 0.15919 0.48285 0.36492 0.0
C560 C 0.17791 0.53077 0.34962 0.0
C561 C 0.16323 0.40669 0.37533 0.0
C562 C 0.11509 0.37295 0.37796 0.0
C563 C 0.19169 0.39183 0.39091 0.0
C564 C 0.24062 0.42636 0.39334 0.0
C565 C 0.24923 0.46622 0.40708 0.0
C566 C 0.29512 0.49783 0.4104 0.0
C567 C 0.33267 0.48978 0.40027 0.0
C568 C 0.32438 0.45004 0.38686 0.0
C569 C 0.27855 0.41832 0.38347 0.0
H570 H 0.36816 0.51423 0.40293 0.0
H571 H 0.91052 0.20435 0.4009 0.0
H572 H 0.00721 0.17463 0.96072 0.0
H573 H 0.97071 0.21084 0.92761 0.0
H574 H 0.84554 0.07262 0.94179 0.0
H575 H 0.88231 0.03661 0.97333 0.0
H576 H 0.86725 0.10991 0.88219 0.0
H577 H 0.85038 0.16563 0.9793 0.0
H578 H 0.87772 0.20545 0.02443 0.0
H579 H 0.96781 0.33863 0.95658 0.0
H580 H 0.9415 0.29939 0.91094 0.0
H581 H 0.69392 0.16985 0.84268 0.0
H582 H 0.74355 0.14514 0.86931 0.0
H583 H 0.86661 0.28243 0.82682 0.0
H584 H 0.81669 0.30726 0.79975 0.0
H585 H 0.8536 0.25266 0.89647 0.0
H586 H 0.85837 0.18855 0.79941 0.0
H587 H 0.82032 0.14226 0.7593 0.0
H588 H 0.73935 0.01624 0.83497 0.0
H589 H 0.77646 0.06195 0.87557 0.0
C590 C 0.9718 0.15227 0.95689 0.0
C591 C 0.94795 0.10273 0.96918 0.0
C592 C 0.95083 0.17293 0.93804 0.0
C593 C 0.90526 0.14448 0.93191 0.0
C594 C 0.88092 0.09538 0.94555 0.0
C595 C 0.90202 0.0748 0.96371 0.0
C596 C 0.88308 0.1646 0.91032 0.0
C597 C 0.86417 0.14101 0.88558 0.0
C598 C 0.87922 0.20548 0.91424 0.0
C599 C 0.89441 0.22945 0.94165 0.0
C600 C 0.87626 0.20335 0.97396 0.0
C601 C 0.89154 0.22581 0.99965 0.0
C602 C 0.92462 0.27451 0.99337 0.0
C603 C 0.94227 0.30088 0.96139 0.0
C604 C 0.92716 0.27855 0.9356 0.0
C605 C 0.73183 0.1942 0.83812 0.0
C606 C 0.75154 0.24018 0.81873 0.0
C607 C 0.76012 0.18023 0.85361 0.0
C608 C 0.80881 0.212 0.85025 0.0
C609 C 0.82911 0.25738 0.82983 0.0
C610 C 0.80076 0.27121 0.8139 0.0
C611 C 0.83769 0.19758 0.8688 0.0
C612 C 0.85756 0.22207 0.89295 0.0
C613 C 0.84118 0.15657 0.86512 0.0
C614 C 0.82014 0.12871 0.84052 0.0
C615 C 0.83239 0.15099 0.80749 0.0
C616 C 0.81097 0.12486 0.78467 0.0
C617 C 0.77744 0.07634 0.79459 0.0
C618 C 0.76538 0.05381 0.82732 0.0
C619 C 0.78667 0.07978 0.85022 0.0
H620 H 0.76081 0.05619 0.77691 0.0
H621 H 0.93648 0.29184 0.01328 0.0
H622 H 0.69098 0.97163 0.4646 0.0
H623 H 0.62228 0.93536 0.43862 0.0
H624 H 0.64792 0.81783 0.43072 0.0
H625 H 0.71494 0.85267 0.45753 0.0
H626 H 0.65439 0.88834 0.36871 0.0
H627 H 0.56205 0.77915 0.47101 0.0
H628 H 0.52885 0.75942 0.52975 0.0
H629 H 0.45168 0.83418 0.51318 0.0
H630 H 0.48554 0.8555 0.45431 0.0
H631 H 0.45561 0.70758 0.31498 0.0
H632 H 0.5186 0.74903 0.34455 0.0
H633 H 0.48249 0.8612 0.34311 0.0
H634 H 0.42154 0.82135 0.31206 0.0
H635 H 0.47973 0.7981 0.40978 0.0
H636 H 0.57152 0.90486 0.30601 0.0
H637 H 0.6018 0.91873 0.24725 0.0
H638 H 0.67777 0.84358 0.26686 0.0
H639 H 0.64693 0.82822 0.3258 0.0
C640 C 0.68036 0.93701 0.45861 0.0
C641 C 0.70759 0.91455 0.46314 0.0
C642 C 0.64165 0.91664 0.44367 0.0
C643 C 0.63085 0.87439 0.43275 0.0
C644 C 0.65601 0.85041 0.43924 0.0
C645 C 0.69379 0.87005 0.45482 0.0
C646 C 0.59744 0.85818 0.41105 0.0
C647 C 0.6162 0.86859 0.37761 0.0
C648 C 0.54794 0.83293 0.423 0.0
C649 C 0.52709 0.81974 0.45831 0.0
C650 C 0.53863 0.79207 0.47992 0.0
C651 C 0.51957 0.78046 0.51323 0.0
C652 C 0.48838 0.79576 0.52522 0.0
C653 C 0.47603 0.82254 0.50387 0.0
C654 C 0.49519 0.83444 0.47052 0.0
C655 C 0.46276 0.74208 0.31986 0.0
C656 C 0.43495 0.76209 0.31104 0.0
C657 C 0.49799 0.76526 0.33695 0.0
C658 C 0.50421 0.80753 0.34608 0.0
C659 C 0.47777 0.82851 0.33609 0.0
C660 C 0.44374 0.80623 0.31805 0.0
C661 C 0.53677 0.82837 0.36757 0.0
C662 C 0.51792 0.81861 0.40091 0.0
C663 C 0.58618 0.85402 0.35559 0.0
C664 C 0.60666 0.86512 0.32031 0.0
C665 C 0.59444 0.89103 0.2978 0.0
C666 C 0.61172 0.89919 0.26446 0.0
C667 C 0.64179 0.88214 0.25335 0.0
C668 C 0.65457 0.85686 0.27554 0.0
C669 C 0.63722 0.84843 0.30892 0.0
H670 H 0.65522 0.88855 0.22755 0.0
H671 H 0.47362 0.78671 0.55103 0.0
H672 H 0.95506 0.706 0.9829 0.0
H673 H 0.92048 0.6324 0.96095 0.0
H674 H 0.86423 0.69598 0.89539 0.0
H675 H 0.89745 0.76773 0.91743 0.0
H676 H 0.80171 0.60504 0.91959 0.0
H677 H 0.97423 0.70193 0.8741 0.0
H678 H 0.05795 0.7379 0.87959 0.0
H679 H 0.03581 0.59951 0.92133 0.0
H680 H 0.95177 0.56286 0.91646 0.0
H681 H 0.75578 0.49074 0.79033 0.0
H682 H 0.79745 0.55739 0.81692 0.0
H683 H 0.85764 0.48035 0.86566 0.0
H684 H 0.81836 0.41547 0.83814 0.0
H685 H 0.91559 0.56825 0.85797 0.0
H686 H 0.74589 0.46969 0.89932 0.0
H687 H 0.66193 0.43226 0.89428 0.0
H688 H 0.6772 0.57073 0.86255 0.0
H689 H 0.76133 0.60891 0.86713 0.0
C690 C 0.93478 0.70346 0.96408 0.0
C691 C 0.92919 0.74207 0.95125 0.0
C692 C 0.91516 0.6618 0.95163 0.0
C693 C 0.89019 0.65913 0.92639 0.0
C694 C 0.88318 0.69723 0.91489 0.0
C695 C 0.90246 0.73826 0.92723 0.0
C696 C 0.87401 0.61905 0.90947 0.0
C697 C 0.82651 0.59678 0.90618 0.0
C698 C 0.90622 0.6077 0.8926 0.0
C699 C 0.95673 0.62978 0.89523 0.0
C700 C 0.9872 0.67926 0.88461 0.0
C701 C 0.03468 0.69975 0.8876 0.0
C702 C 0.05216 0.67102 0.90088 0.0
C703 C 0.02221 0.62173 0.91112 0.0
C704 C 0.97467 0.60109 0.90826 0.0
C705 C 0.77961 0.48922 0.80558 0.0
C706 C 0.78312 0.44782 0.81295 0.0
C707 C 0.80292 0.52692 0.82106 0.0
C708 C 0.82911 0.5229 0.84422 0.0
C709 C 0.83708 0.48398 0.84832 0.0
C710 C 0.81445 0.44684 0.83266 0.0
C711 C 0.84364 0.55571 0.86695 0.0
C712 C 0.89056 0.57599 0.87161 0.0
C713 C 0.81078 0.56501 0.88532 0.0
C714 C 0.75989 0.54209 0.8834 0.0
C715 C 0.7313 0.4921 0.89124 0.0
C716 C 0.68371 0.47077 0.88845 0.0
C717 C 0.66426 0.49909 0.87807 0.0
C718 C 0.69229 0.54882 0.8706 0.0
C719 C 0.7399 0.57033 0.87334 0.0
H720 H 0.62744 0.48251 0.87586 0.0
H721 H 0.08893 0.68695 0.90315 0.0
loop_
_geom_bond_atom_site_label_1
_geom_bond_atom_site_label_2
_geom_bond_distance
_geom_bond_site_symmetry_2
_ccdc_geom_bond_type
Eu0 C9 2.828 . S
Eu0 O11 2.392 1_545 S
Eu0 O13 2.418 1_455 S
Eu0 O18 2.373 1_455 S
Eu0 O21 2.488 . S
Eu0 O22 2.471 . S
Eu0 O23 2.349 1_554 S
Eu1 O10 2.373 1_656 S
Eu1 O14 2.488 1_655 S
Eu1 O15 2.471 . S
Eu1 O16 2.349 1_556 S
Eu1 O19 2.392 1_565 S
Eu1 O20 2.418 1_665 S
Eu1 C30 2.828 . S
C2 O20 1.244 . S
C2 O23 1.265 . S
C3 C4 1.379 . S
C3 C7 1.373 . S
C3 C9 1.505 . S
C4 C3 1.379 . S
C4 C6 1.369 . S
C4 H32 0.930 . S
C5 C7 1.383 . S
C5 C8 1.382 . S
C5 H33 0.930 . S
C6 C4 1.369 . S
C6 C8 1.392 . S
C6 H34 0.930 . S
C7 C3 1.373 . S
C7 C5 1.383 . S
C7 H35 0.931 . S
C8 C5 1.382 . S
C8 C6 1.392 . S
C9 Eu0 2.828 . S
C9 C3 1.505 . S
C9 O21 1.249 . S
C9 O22 1.244 . S
O10 Eu1 2.373 1_454 S
O10 C12 1.258 . S
O11 Eu0 2.392 1_565 S
O11 C12 1.242 . S
C12 O10 1.258 . S
C12 O11 1.242 . S
O13 Eu0 2.418 1_655 S
O13 C17 1.244 1_545 S
O14 Eu1 2.488 1_455 S
O14 C30 1.249 1_455 S
O15 Eu1 2.471 . S
O15 C30 1.244 . S
O16 Eu1 2.349 1_554 S
O16 C17 1.265 . S
C17 O13 1.244 1_565 S
C17 O16 1.265 . S
O18 Eu0 2.373 1_655 S
O18 C31 1.258 1_554 S
O19 Eu1 2.392 1_545 S
O19 C31 1.242 . S
O20 Eu1 2.418 1_445 S
O20 C2 1.244 . S
O21 Eu0 2.488 . S
O21 C9 1.249 . S
O22 Eu0 2.471 . S
O22 C9 1.244 . S
O23 Eu0 2.349 1_556 S
O23 C2 1.265 . S
C24 C25 1.379 . S
C24 C28 1.373 . S
C24 C30 1.505 . S
C25 C24 1.379 . S
C25 C27 1.369 . S
C25 H36 0.930 1_556 S
C26 C28 1.383 . S
C26 C29 1.382 . S
C26 H37 0.930 . S
C27 C25 1.369 . S
C27 C29 1.392 . S
C27 H38 0.946 . S
C28 C24 1.373 . S
C28 C26 1.383 . S
C28 H39 0.931 . S
C29 C26 1.382 . S
C29 C27 1.392 . S
C30 Eu1 2.828 . S
C30 O14 1.249 1_655 S
C30 O15 1.244 . S
C30 C24 1.505 . S
C31 O18 1.258 1_556 S
C31 O19 1.242 . S
H32 C4 0.930 . S
H33 C5 0.930 . S
H34 C6 0.930 . S
H35 C7 0.931 . S
H36 C25 0.930 1_554 S
H37 C26 0.930 . S
H38 C27 0.946 . S
H39 C28 0.931 . S
Eu40 C49 2.834 1_545 S
Eu40 O51 2.378 1_645 S
Eu40 O53 2.440 1_655 S
Eu40 O58 2.392 . S
Eu40 O61 2.501 . S
Eu40 O62 2.468 1_545 S
Eu40 O63 2.338 1_545 S
Eu41 O50 2.373 . S
Eu41 O54 2.488 . S
Eu41 O55 2.471 . S
Eu41 O56 2.349 . S
Eu41 O59 2.392 1_455 S
Eu41 O60 2.418 1_445 S
Eu41 C70 2.828 . S
C42 O60 1.244 . S
C42 O63 1.265 . S
C43 C44 1.379 . S
C43 C47 1.373 . S
C43 C49 1.505 . S
C44 C43 1.379 . S
C44 C46 1.369 . S
C44 H72 0.930 . S
C45 C47 1.383 . S
C45 C48 1.382 . S
C45 H73 0.930 . S
C46 C44 1.369 . S
C46 C48 1.392 . S
C46 H74 0.930 . S
C47 C43 1.373 . S
C47 C45 1.383 . S
C47 H75 0.931 1_565 S
C48 C45 1.382 . S
C48 C46 1.392 . S
C49 Eu40 2.834 1_565 S
C49 C43 1.505 . S
C49 O61 1.249 1_565 S
C49 O62 1.244 . S
O50 Eu41 2.373 . S
O50 C52 1.258 1_545 S
O51 Eu40 2.378 1_465 S
O51 C52 1.242 . S
C52 O50 1.258 1_565 S
C52 O51 1.242 . S
O53 Eu40 2.440 1_455 S
O53 C57 1.244 . S
O54 Eu41 2.488 . S
O54 C70 1.249 . S
O55 Eu41 2.471 . S
O55 C70 1.244 . S
O56 Eu41 2.349 . S
O56 C57 1.265 . S
C57 O53 1.244 . S
C57 O56 1.265 . S
O58 Eu40 2.392 . S
O58 C71 1.258 . S
O59 Eu41 2.392 1_655 S
O59 C71 1.242 . S
O60 Eu41 2.418 1_665 S
O60 C42 1.244 . S
O61 Eu40 2.501 . S
O61 C49 1.249 1_545 S
O62 Eu40 2.468 1_565 S
O62 C49 1.244 . S
O63 Eu40 2.338 1_565 S
O63 C42 1.265 . S
C64 C65 1.379 . S
C64 C68 1.373 . S
C64 C70 1.505 . S
C65 C64 1.379 . S
C65 C67 1.369 . S
C65 H76 0.930 . S
C66 C68 1.383 . S
C66 C69 1.382 . S
C66 H77 0.930 . S
C67 C65 1.369 . S
C67 C69 1.392 . S
C67 H78 0.930 . S
C68 C64 1.373 . S
C68 C66 1.383 . S
C68 H79 0.931 . S
C69 C66 1.382 . S
C69 C67 1.392 . S
C70 Eu41 2.828 . S
C70 O54 1.249 . S
C70 O55 1.244 . S
C70 C64 1.505 . S
C71 O58 1.258 . S
C71 O59 1.242 . S
H72 C44 0.930 . S
H73 C45 0.930 . S
H74 C46 0.930 . S
H75 C47 0.931 1_545 S
H76 C65 0.930 . S
H77 C66 0.930 . S
H78 C67 0.930 . S
H79 C68 0.931 . S
Zn80 O86 1.920 . S
Zn80 O92 1.898 . S
Zn80 O95 1.905 . S
Zn81 O89 1.905 . S
Zn81 O90 1.898 . S
Zn81 O98 1.920 . S
Zn82 O85 2.080 . S
Zn82 O88 2.114 . S
Zn82 O91 2.120 . S
Zn82 O93 2.120 . S
Zn82 O94 2.114 . S
Zn82 O97 2.080 . S
C83 O88 1.166 . S
C83 O89 1.182 . S
C84 O90 1.167 . S
C84 O91 1.299 . S
O85 Zn82 2.080 . S
O85 C99 1.305 . S
O86 Zn80 1.920 . S
O86 C99 1.234 . S
C87 O92 1.167 . S
C87 O93 1.299 . S
O88 Zn82 2.114 . S
O88 C83 1.166 . S
O89 Zn81 1.905 . S
O89 C83 1.182 . S
O90 Zn81 1.898 . S
O90 C84 1.167 . S
O91 Zn82 2.120 . S
O91 C84 1.299 . S
O92 Zn80 1.898 . S
O92 C87 1.167 . S
O93 Zn82 2.120 . S
O93 C87 1.299 . S
O94 Zn82 2.114 . S
O94 C96 1.166 . S
O95 Zn80 1.905 . S
O95 C96 1.182 . S
C96 O94 1.166 . S
C96 O95 1.182 . S
O97 Zn82 2.080 . S
O97 C100 1.305 . S
O98 Zn81 1.920 . S
O98 C100 1.234 . S
C99 O85 1.305 . S
C99 O86 1.234 . S
C100 O97 1.305 . S
C100 O98 1.234 . S
Zn101 O107 1.920 . S
Zn101 O113 1.898 . S
Zn101 O116 1.905 . S
Zn102 O110 1.905 . S
Zn102 O111 1.898 . S
Zn102 O119 1.920 . S
Zn103 O106 2.080 . S
Zn103 O109 2.114 . S
Zn103 O112 2.120 . S
Zn103 O114 2.120 . S
Zn103 O115 2.114 . S
Zn103 O118 2.080 . S
C104 O109 1.166 . S
C104 O110 1.182 . S
C105 O111 1.167 . S
C105 O112 1.299 . S
O106 Zn103 2.080 . S
O106 C120 1.305 . S
O107 Zn101 1.920 . S
O107 C120 1.234 . S
C108 O113 1.167 . S
C108 O114 1.299 . S
O109 Zn103 2.114 . S
O109 C104 1.166 . S
O110 Zn102 1.905 . S
O110 C104 1.182 . S
O111 Zn102 1.898 . S
O111 C105 1.167 . S
O112 Zn103 2.120 . S
O112 C105 1.299 . S
O113 Zn101 1.898 . S
O113 C108 1.167 . S
O114 Zn103 2.120 . S
O114 C108 1.299 . S
O115 Zn103 2.114 . S
O115 C117 1.166 . S
O116 Zn101 1.905 . S
O116 C117 1.182 . S
C117 O115 1.166 . S
C117 O116 1.182 . S
O118 Zn103 2.080 . S
O118 C121 1.305 . S
O119 Zn102 1.920 . S
O119 C121 1.234 . S
C120 O106 1.305 . S
C120 O107 1.234 . S
C121 O118 1.305 . S
C121 O119 1.234 . S
H122 C140 0.951 . S
H123 C142 0.951 . S
H124 C144 0.950 . S
H125 C145 0.950 . S
H126 C147 0.950 . S
H127 C150 0.950 . S
H128 C151 0.950 . S
H129 C153 0.950 . S
H130 C154 0.950 . S
H131 C155 0.951 . S
H132 C157 0.951 . S
H133 C159 0.950 . S
H134 C160 0.950 . S
H135 C162 0.950 . S
H136 C165 0.950 . S
H137 C166 0.950 . S
H138 C168 0.950 . S
H139 C169 0.950 . S
C140 H122 0.951 . S
C140 C141 1.366 . S
C140 C142 1.388 . S
C141 C140 1.366 . S
C141 C145 1.385 . S
C142 H123 0.951 . S
C142 C140 1.388 . S
C142 C143 1.366 . S
C143 C142 1.366 . S
C143 C144 1.414 . S
C143 C146 1.499 . S
C144 H124 0.950 . S
C144 C143 1.414 . S
C144 C145 1.374 . S
C145 H125 0.950 . S
C145 C141 1.385 . S
C145 C144 1.374 . S
C146 C143 1.499 . S
C146 C147 1.373 . S
C146 C148 1.389 . S
C147 H126 0.950 . S
C147 C146 1.373 . S
C147 C163 1.377 . S
C148 C146 1.389 . S
C148 C149 1.524 . S
C148 C162 1.377 . S
C149 C148 1.524 . S
C149 C150 1.397 . S
C149 C154 1.363 . S
C150 H127 0.950 . S
C150 C149 1.397 . S
C150 C151 1.334 1_565 S
C151 H128 0.950 . S
C151 C150 1.334 1_545 S
C151 C152 1.287 . S
C152 C151 1.287 . S
C152 C153 1.524 1_545 S
C152 H171 0.913 . S
C153 H129 0.950 . S
C153 C152 1.524 1_565 S
C153 C154 1.415 . S
C154 H130 0.950 . S
C154 C149 1.363 . S
C154 C153 1.415 . S
C155 H131 0.951 . S
C155 C156 1.366 . S
C155 C157 1.388 . S
C156 C155 1.366 . S
C156 C160 1.385 . S
C157 H132 0.951 . S
C157 C155 1.388 . S
C157 C158 1.366 . S
C158 C157 1.366 . S
C158 C159 1.414 . S
C158 C161 1.499 . S
C159 H133 0.950 . S
C159 C158 1.414 . S
C159 C160 1.374 . S
C160 H134 0.950 . S
C160 C156 1.385 . S
C160 C159 1.374 . S
C161 C158 1.499 . S
C161 C162 1.373 . S
C161 C163 1.389 . S
C162 H135 0.950 . S
C162 C148 1.377 . S
C162 C161 1.373 . S
C163 C147 1.377 . S
C163 C161 1.389 . S
C163 C164 1.524 . S
C164 C163 1.524 . S
C164 C165 1.397 . S
C164 C169 1.363 . S
C165 H136 0.950 . S
C165 C164 1.397 . S
C165 C166 1.334 . S
C166 H137 0.950 . S
C166 C165 1.334 . S
C166 C167 1.287 . S
C167 C166 1.287 . S
C167 C168 1.524 . S
C167 H170 0.999 . S
C168 H138 0.950 . S
C168 C167 1.524 . S
C168 C169 1.415 . S
C169 H139 0.950 . S
C169 C164 1.363 . S
C169 C168 1.415 . S
H170 C167 0.999 . S
H171 C152 0.913 . S
H172 C190 0.951 . S
H173 C192 0.951 . S
H174 C194 0.950 . S
H175 C195 0.950 . S
H176 C197 0.950 . S
H177 C200 0.950 . S
H178 C201 0.950 . S
H179 C203 0.950 . S
H180 C204 0.950 . S
H181 C205 0.951 . S
H182 C207 0.951 . S
H183 C209 0.950 . S
H184 C210 0.950 . S
H185 C212 0.950 . S
H186 C215 0.950 . S
H187 C216 0.950 . S
H188 C218 0.950 . S
H189 C219 0.950 . S
C190 H172 0.951 . S
C190 C191 1.366 . S
C190 C192 1.388 . S
C191 C190 1.366 . S
C191 C195 1.385 . S
C192 H173 0.951 . S
C192 C190 1.388 . S
C192 C193 1.366 . S
C193 C192 1.366 . S
C193 C194 1.414 . S
C193 C196 1.499 . S
C194 H174 0.950 . S
C194 C193 1.414 . S
C194 C195 1.374 . S
C195 H175 0.950 . S
C195 C191 1.385 . S
C195 C194 1.374 . S
C196 C193 1.499 . S
C196 C197 1.373 . S
C196 C198 1.389 . S
C197 H176 0.950 . S
C197 C196 1.373 . S
C197 C213 1.377 . S
C198 C196 1.389 . S
C198 C199 1.524 . S
C198 C212 1.377 . S
C199 C198 1.524 . S
C199 C200 1.397 . S
C199 C204 1.363 . S
C200 H177 0.950 . S
C200 C199 1.397 . S
C200 C201 1.334 . S
C201 H178 0.950 . S
C201 C200 1.334 . S
C201 C202 1.287 . S
C202 C201 1.287 . S
C202 C203 1.524 . S
C202 H221 0.913 . S
C203 H179 0.950 . S
C203 C202 1.524 . S
C203 C204 1.415 . S
C204 H180 0.950 . S
C204 C199 1.363 . S
C204 C203 1.415 . S
C205 H181 0.951 . S
C205 C206 1.366 . S
C205 C207 1.388 . S
C206 C205 1.366 . S
C206 C210 1.385 . S
C207 H182 0.951 . S
C207 C205 1.388 . S
C207 C208 1.366 . S
C208 C207 1.366 . S
C208 C209 1.414 . S
C208 C211 1.499 . S
C209 H183 0.950 . S
C209 C208 1.414 . S
C209 C210 1.374 . S
C210 H184 0.950 . S
C210 C206 1.385 . S
C210 C209 1.374 . S
C211 C208 1.499 . S
C211 C212 1.373 . S
C211 C213 1.389 . S
C212 H185 0.950 . S
C212 C198 1.377 . S
C212 C211 1.373 . S
C213 C197 1.377 . S
C213 C211 1.389 . S
C213 C214 1.524 . S
C214 C213 1.524 . S
C214 C215 1.397 . S
C214 C219 1.363 . S
C215 H186 0.950 . S
C215 C214 1.397 . S
C215 C216 1.334 . S
C216 H187 0.950 . S
C216 C215 1.334 . S
C216 C217 1.287 . S
C217 C216 1.287 . S
C217 C218 1.524 . S
C217 H220 0.999 . S
C218 H188 0.950 . S
C218 C217 1.524 . S
C218 C219 1.415 . S
C219 H189 0.950 . S
C219 C214 1.363 . S
C219 C218 1.415 . S
H220 C217 0.999 . S
H221 C202 0.913 . S
H222 C240 0.951 . S
H223 C242 0.951 . S
H224 C244 0.950 . S
H225 C245 0.950 . S
H226 C247 0.950 . S
H227 C250 0.950 . S
H228 C251 0.950 . S
H229 C253 0.950 . S
H230 C254 0.950 . S
H231 C255 0.951 . S
H232 C257 0.951 . S
H233 C259 0.950 . S
H234 C260 0.950 . S
H235 C262 0.950 . S
H236 C265 0.950 . S
H237 C266 0.950 . S
H238 C268 0.950 . S
H239 C269 0.950 . S
C240 H222 0.951 . S
C240 C241 1.366 . S
C240 C242 1.388 . S
C241 C240 1.366 . S
C241 C245 1.385 . S
C242 H223 0.951 . S
C242 C240 1.388 . S
C242 C243 1.366 . S
C243 C242 1.366 . S
C243 C244 1.414 . S
C243 C246 1.499 . S
C244 H224 0.950 . S
C244 C243 1.414 . S
C244 C245 1.374 . S
C245 H225 0.950 . S
C245 C241 1.385 . S
C245 C244 1.374 . S
C246 C243 1.499 . S
C246 C247 1.373 . S
C246 C248 1.389 . S
C247 H226 0.950 . S
C247 C246 1.373 . S
C247 C263 1.377 . S
C248 C246 1.389 . S
C248 C249 1.524 . S
C248 C262 1.377 . S
C249 C248 1.524 . S
C249 C250 1.397 . S
C249 C254 1.363 . S
C250 H227 0.950 . S
C250 C249 1.397 . S
C250 C251 1.334 . S
C251 H228 0.950 . S
C251 C250 1.334 . S
C251 C252 1.287 . S
C252 C251 1.287 . S
C252 C253 1.524 . S
C252 H271 0.913 . S
C253 H229 0.950 . S
C253 C252 1.524 . S
C253 C254 1.415 . S
C254 H230 0.950 . S
C254 C249 1.363 . S
C254 C253 1.415 . S
C255 H231 0.951 . S
C255 C256 1.366 . S
C255 C257 1.388 . S
C256 C255 1.366 . S
C256 C260 1.385 . S
C257 H232 0.951 . S
C257 C255 1.388 . S
C257 C258 1.366 . S
C258 C257 1.366 . S
C258 C259 1.414 . S
C258 C261 1.499 . S
C259 H233 0.950 . S
C259 C258 1.414 . S
C259 C260 1.374 . S
C260 H234 0.950 . S
C260 C256 1.385 . S
C260 C259 1.374 . S
C261 C258 1.499 . S
C261 C262 1.373 . S
C261 C263 1.389 . S
C262 H235 0.950 . S
C262 C248 1.377 . S
C262 C261 1.373 . S
C263 C247 1.377 . S
C263 C261 1.389 . S
C263 C264 1.524 . S
C264 C263 1.524 . S
C264 C265 1.397 . S
C264 C269 1.363 . S
C265 H236 0.950 . S
C265 C264 1.397 . S
C265 C266 1.334 . S
C266 H237 0.950 . S
C266 C265 1.334 . S
C266 C267 1.287 . S
C267 C266 1.287 . S
C267 C268 1.524 . S
C267 H270 0.999 . S
C268 H238 0.950 . S
C268 C267 1.524 . S
C268 C269 1.415 . S
C269 H239 0.950 . S
C269 C264 1.363 . S
C269 C268 1.415 . S
H270 C267 0.999 . S
H271 C252 0.913 . S
H272 C290 0.951 . S
H273 C292 0.951 . S
H274 C294 0.950 . S
H275 C295 0.950 . S
H276 C297 0.950 . S
H277 C300 0.950 . S
H278 C301 0.950 . S
H279 C303 0.950 . S
H280 C304 0.950 . S
H281 C305 0.951 . S
H282 C307 0.951 . S
H283 C309 0.950 . S
H284 C310 0.950 . S
H285 C312 0.950 . S
H286 C315 0.950 . S
H287 C316 0.950 . S
H288 C318 0.950 . S
H289 C319 0.950 . S
C290 H272 0.951 . S
C290 C291 1.366 . S
C290 C292 1.388 . S
C291 C290 1.366 . S
C291 C295 1.385 . S
C292 H273 0.951 . S
C292 C290 1.388 . S
C292 C293 1.366 . S
C293 C292 1.366 . S
C293 C294 1.414 . S
C293 C296 1.499 . S
C294 H274 0.950 . S
C294 C293 1.414 . S
C294 C295 1.374 . S
C295 H275 0.950 . S
C295 C291 1.385 . S
C295 C294 1.374 . S
C296 C293 1.499 . S
C296 C297 1.373 . S
C296 C298 1.389 . S
C297 H276 0.950 . S
C297 C296 1.373 . S
C297 C313 1.377 . S
C298 C296 1.389 . S
C298 C299 1.524 . S
C298 C312 1.377 . S
C299 C298 1.524 . S
C299 C300 1.397 . S
C299 C304 1.363 . S
C300 H277 0.950 . S
C300 C299 1.397 . S
C300 C301 1.334 . S
C301 H278 0.950 . S
C301 C300 1.334 . S
C301 C302 1.287 1_655 S
C302 C301 1.287 1_455 S
C302 C303 1.524 . S
C302 H321 0.913 . S
C303 H279 0.950 . S
C303 C302 1.524 . S
C303 C304 1.415 1_455 S
C304 H280 0.950 . S
C304 C299 1.363 . S
C304 C303 1.415 1_655 S
C305 H281 0.951 . S
C305 C306 1.366 . S
C305 C307 1.388 . S
C306 C305 1.366 . S
C306 C310 1.385 . S
C307 H282 0.951 . S
C307 C305 1.388 . S
C307 C308 1.366 . S
C308 C307 1.366 . S
C308 C309 1.414 . S
C308 C311 1.499 . S
C309 H283 0.950 . S
C309 C308 1.414 . S
C309 C310 1.374 . S
C310 H284 0.950 . S
C310 C306 1.385 . S
C310 C309 1.374 . S
C311 C308 1.499 . S
C311 C312 1.373 . S
C311 C313 1.389 . S
C312 H285 0.950 . S
C312 C298 1.377 . S
C312 C311 1.373 . S
C313 C297 1.377 . S
C313 C311 1.389 . S
C313 C314 1.524 . S
C314 C313 1.524 . S
C314 C315 1.397 . S
C314 C319 1.363 . S
C315 H286 0.950 . S
C315 C314 1.397 . S
C315 C316 1.334 . S
C316 H287 0.950 . S
C316 C315 1.334 . S
C316 C317 1.287 . S
C317 C316 1.287 . S
C317 C318 1.524 . S
C317 H320 0.999 . S
C318 H288 0.950 . S
C318 C317 1.524 . S
C318 C319 1.415 . S
C319 H289 0.950 . S
C319 C314 1.363 . S
C319 C318 1.415 . S
H320 C317 0.999 . S
H321 C302 0.913 . S
H322 C340 0.951 . S
H323 C342 0.951 . S
H324 C344 0.950 . S
H325 C345 0.950 . S
H326 C347 0.950 . S
H327 C350 0.950 . S
H328 C351 0.950 . S
H329 C353 0.950 . S
H330 C354 0.950 . S
H331 C355 0.951 . S
H332 C357 0.951 . S
H333 C359 0.950 . S
H334 C360 0.950 . S
H335 C362 0.950 . S
H336 C365 0.950 . S
H337 C366 0.950 . S
H338 C368 0.950 . S
H339 C369 0.950 . S
C340 H322 0.951 . S
C340 C341 1.366 . S
C340 C342 1.388 . S
C341 C340 1.366 . S
C341 C345 1.385 . S
C342 H323 0.951 . S
C342 C340 1.388 . S
C342 C343 1.366 . S
C343 C342 1.366 . S
C343 C344 1.414 . S
C343 C346 1.499 . S
C344 H324 0.950 . S
C344 C343 1.414 . S
C344 C345 1.374 . S
C345 H325 0.950 . S
C345 C341 1.385 . S
C345 C344 1.374 . S
C346 C343 1.499 . S
C346 C347 1.373 . S
C346 C348 1.389 . S
C347 H326 0.950 . S
C347 C346 1.373 . S
C347 C363 1.377 . S
C348 C346 1.389 . S
C348 C349 1.524 . S
C348 C362 1.377 . S
C349 C348 1.524 . S
C349 C350 1.397 1_565 S
C349 C354 1.363 . S
C350 H327 0.950 . S
C350 C349 1.397 1_545 S
C350 C351 1.334 . S
C351 H328 0.950 . S
C351 C350 1.334 . S
C351 C352 1.287 . S
C352 C351 1.287 . S
C352 C353 1.524 . S
C352 H371 0.913 . S
C353 H329 0.950 . S
C353 C352 1.524 . S
C353 C354 1.415 1_545 S
C354 H330 0.950 . S
C354 C349 1.363 . S
C354 C353 1.415 1_565 S
C355 H331 0.951 . S
C355 C356 1.366 . S
C355 C357 1.388 . S
C356 C355 1.366 . S
C356 C360 1.385 . S
C357 H332 0.951 . S
C357 C355 1.388 . S
C357 C358 1.366 . S
C358 C357 1.366 . S
C358 C359 1.414 . S
C358 C361 1.499 . S
C359 H333 0.950 . S
C359 C358 1.414 . S
C359 C360 1.374 . S
C360 H334 0.950 . S
C360 C356 1.385 . S
C360 C359 1.374 . S
C361 C358 1.499 . S
C361 C362 1.373 . S
C361 C363 1.389 . S
C362 H335 0.950 . S
C362 C348 1.377 . S
C362 C361 1.373 . S
C363 C347 1.377 . S
C363 C361 1.389 . S
C363 C364 1.524 . S
C364 C363 1.524 . S
C364 C365 1.397 . S
C364 C369 1.363 . S
C365 H336 0.950 . S
C365 C364 1.397 . S
C365 C366 1.334 . S
C366 H337 0.950 . S
C366 C365 1.334 . S
C366 C367 1.287 . S
C367 C366 1.287 . S
C367 C368 1.524 . S
C367 H370 0.999 . S
C368 H338 0.950 . S
C368 C367 1.524 . S
C368 C369 1.415 . S
C369 H339 0.950 . S
C369 C364 1.363 . S
C369 C368 1.415 . S
H370 C367 0.999 . S
H371 C352 0.913 . S
H372 C390 0.951 . S
H373 C392 0.951 . S
H374 C394 0.950 . S
H375 C395 0.950 . S
H376 C397 0.950 . S
H377 C400 0.950 . S
H378 C401 0.950 . S
H379 C403 0.950 . S
H380 C404 0.950 . S
H381 C405 0.951 . S
H382 C407 0.951 . S
H383 C409 0.950 . S
H384 C410 0.950 . S
H385 C412 0.950 . S
H386 C415 0.950 . S
H387 C416 0.950 . S
H388 C418 0.950 . S
H389 C419 0.950 . S
C390 H372 0.951 . S
C390 C391 1.366 . S
C390 C392 1.388 . S
C391 C390 1.366 . S
C391 C395 1.385 . S
C392 H373 0.951 . S
C392 C390 1.388 . S
C392 C393 1.366 . S
C393 C392 1.366 . S
C393 C394 1.414 . S
C393 C396 1.499 . S
C394 H374 0.950 . S
C394 C393 1.414 . S
C394 C395 1.374 . S
C395 H375 0.950 . S
C395 C391 1.385 . S
C395 C394 1.374 . S
C396 C393 1.499 . S
C396 C397 1.373 . S
C396 C398 1.389 . S
C397 H376 0.950 . S
C397 C396 1.373 . S
C397 C413 1.377 . S
C398 C396 1.389 . S
C398 C399 1.524 . S
C398 C412 1.377 . S
C399 C398 1.524 . S
C399 C400 1.397 . S
C399 C404 1.363 . S
C400 H377 0.950 . S
C400 C399 1.397 . S
C400 C401 1.334 . S
C401 H378 0.950 . S
C401 C400 1.334 . S
C401 C402 1.287 . S
C402 C401 1.287 . S
C402 C403 1.524 . S
C402 H421 0.913 . S
C403 H379 0.950 . S
C403 C402 1.524 . S
C403 C404 1.415 . S
C404 H380 0.950 . S
C404 C399 1.363 . S
C404 C403 1.415 . S
C405 H381 0.951 . S
C405 C406 1.366 . S
C405 C407 1.388 . S
C406 C405 1.366 . S
C406 C410 1.385 . S
C407 H382 0.951 . S
C407 C405 1.388 . S
C407 C408 1.366 . S
C408 C407 1.366 . S
C408 C409 1.414 . S
C408 C411 1.499 . S
C409 H383 0.950 . S
C409 C408 1.414 . S
C409 C410 1.374 . S
C410 H384 0.950 . S
C410 C406 1.385 . S
C410 C409 1.374 . S
C411 C408 1.499 . S
C411 C412 1.373 . S
C411 C413 1.389 . S
C412 H385 0.950 . S
C412 C398 1.377 . S
C412 C411 1.373 . S
C413 C397 1.377 . S
C413 C411 1.389 . S
C413 C414 1.524 . S
C414 C413 1.524 . S
C414 C415 1.397 . S
C414 C419 1.363 . S
C415 H386 0.950 . S
C415 C414 1.397 . S
C415 C416 1.334 . S
C416 H387 0.950 . S
C416 C415 1.334 . S
C416 C417 1.287 . S
C417 C416 1.287 . S
C417 C418 1.524 . S
C417 H420 0.999 . S
C418 H388 0.950 . S
C418 C417 1.524 . S
C418 C419 1.415 . S
C419 H389 0.950 . S
C419 C414 1.363 . S
C419 C418 1.415 . S
H420 C417 0.999 . S
H421 C402 0.913 . S
H422 C440 0.951 . S
H423 C442 0.951 . S
H424 C444 0.950 . S
H425 C445 0.950 1_545 S
H426 C447 0.950 . S
H427 C450 0.950 . S
H428 C451 0.950 . S
H429 C453 0.950 1_655 S
H430 C454 0.950 . S
H431 C455 0.951 . S
H432 C457 0.951 . S
H433 C459 0.950 . S
H434 C460 0.950 . S
H435 C462 0.950 . S
H436 C465 0.950 . S
H437 C466 0.950 . S
H438 C468 0.950 . S
H439 C469 0.950 . S
C440 H422 0.951 . S
C440 C441 1.366 . S
C440 C442 1.388 . S
C441 C440 1.366 . S
C441 C445 1.385 . S
C442 H423 0.951 . S
C442 C440 1.388 . S
C442 C443 1.366 . S
C443 C442 1.366 . S
C443 C444 1.414 . S
C443 C446 1.499 . S
C444 H424 0.950 . S
C444 C443 1.414 . S
C444 C445 1.374 . S
C445 H425 0.950 1_565 S
C445 C441 1.385 . S
C445 C444 1.374 . S
C446 C443 1.499 . S
C446 C447 1.373 . S
C446 C448 1.389 . S
C447 H426 0.950 . S
C447 C446 1.373 . S
C447 C463 1.377 . S
C448 C446 1.389 . S
C448 C449 1.524 . S
C448 C462 1.377 . S
C449 C448 1.524 . S
C449 C450 1.397 . S
C449 C454 1.363 . S
C450 H427 0.950 . S
C450 C449 1.397 . S
C450 C451 1.334 . S
C451 H428 0.950 . S
C451 C450 1.334 . S
C451 C452 1.287 . S
C452 C451 1.287 . S
C452 C453 1.524 . S
C452 H471 0.913 . S
C453 H429 0.950 1_455 S
C453 C452 1.524 . S
C453 C454 1.415 . S
C454 H430 0.950 . S
C454 C449 1.363 . S
C454 C453 1.415 . S
C455 H431 0.951 . S
C455 C456 1.366 . S
C455 C457 1.388 . S
C456 C455 1.366 . S
C456 C460 1.385 . S
C457 H432 0.951 . S
C457 C455 1.388 . S
C457 C458 1.366 . S
C458 C457 1.366 . S
C458 C459 1.414 . S
C458 C461 1.499 . S
C459 H433 0.950 . S
C459 C458 1.414 . S
C459 C460 1.374 . S
C460 H434 0.950 . S
C460 C456 1.385 . S
C460 C459 1.374 . S
C461 C458 1.499 . S
C461 C462 1.373 . S
C461 C463 1.389 . S
C462 H435 0.950 . S
C462 C448 1.377 . S
C462 C461 1.373 . S
C463 C447 1.377 . S
C463 C461 1.389 . S
C463 C464 1.524 . S
C464 C463 1.524 . S
C464 C465 1.397 . S
C464 C469 1.363 . S
C465 H436 0.950 . S
C465 C464 1.397 . S
C465 C466 1.334 . S
C466 H437 0.950 . S
C466 C465 1.334 . S
C466 C467 1.287 1_565 S
C467 C466 1.287 1_545 S
C467 C468 1.524 . S
C467 H470 0.999 . S
C468 H438 0.950 . S
C468 C467 1.524 . S
C468 C469 1.415 1_545 S
C469 H439 0.950 . S
C469 C464 1.363 . S
C469 C468 1.415 1_565 S
H470 C467 0.999 . S
H471 C452 0.913 . S
H472 C490 0.951 . S
H473 C492 0.951 . S
H474 C494 0.950 . S
H475 C495 0.950 . S
H476 C497 0.950 . S
H477 C500 0.950 . S
H478 C501 0.950 . S
H479 C503 0.950 . S
H480 C504 0.950 . S
H481 C505 0.951 . S
H482 C507 0.951 . S
H483 C509 0.950 . S
H484 C510 0.950 . S
H485 C512 0.950 . S
H486 C515 0.950 . S
H487 C516 0.950 . S
H488 C518 0.950 . S
H489 C519 0.950 . S
C490 H472 0.951 . S
C490 C491 1.366 . S
C490 C492 1.388 . S
C491 C490 1.366 . S
C491 C495 1.385 . S
C492 H473 0.951 . S
C492 C490 1.388 . S
C492 C493 1.366 . S
C493 C492 1.366 . S
C493 C494 1.414 . S
C493 C496 1.499 . S
C494 H474 0.950 . S
C494 C493 1.414 . S
C494 C495 1.374 . S
C495 H475 0.950 . S
C495 C491 1.385 . S
C495 C494 1.374 . S
C496 C493 1.499 . S
C496 C497 1.373 . S
C496 C498 1.389 . S
C497 H476 0.950 . S
C497 C496 1.373 . S
C497 C513 1.377 . S
C498 C496 1.389 . S
C498 C499 1.524 . S
C498 C512 1.377 . S
C499 C498 1.524 . S
C499 C500 1.397 . S
C499 C504 1.363 . S
C500 H477 0.950 . S
C500 C499 1.397 . S
C500 C501 1.334 . S
C501 H478 0.950 . S
C501 C500 1.334 . S
C501 C502 1.287 . S
C502 C501 1.287 . S
C502 C503 1.524 . S
C502 H521 0.913 . S
C503 H479 0.950 . S
C503 C502 1.524 . S
C503 C504 1.415 . S
C504 H480 0.950 . S
C504 C499 1.363 . S
C504 C503 1.415 . S
C505 H481 0.951 . S
C505 C506 1.366 . S
C505 C507 1.388 . S
C506 C505 1.366 . S
C506 C510 1.385 . S
C507 H482 0.951 . S
C507 C505 1.388 . S
C507 C508 1.366 . S
C508 C507 1.366 . S
C508 C509 1.414 . S
C508 C511 1.499 . S
C509 H483 0.950 . S
C509 C508 1.414 . S
C509 C510 1.374 . S
C510 H484 0.950 . S
C510 C506 1.385 . S
C510 C509 1.374 . S
C511 C508 1.499 . S
C511 C512 1.373 . S
C511 C513 1.389 . S
C512 H485 0.950 . S
C512 C498 1.377 . S
C512 C511 1.373 . S
C513 C497 1.377 . S
C513 C511 1.389 . S
C513 C514 1.524 . S
C514 C513 1.524 . S
C514 C515 1.397 . S
C514 C519 1.363 . S
C515 H486 0.950 . S
C515 C514 1.397 . S
C515 C516 1.334 . S
C516 H487 0.950 . S
C516 C515 1.334 . S
C516 C517 1.287 . S
C517 C516 1.287 . S
C517 C518 1.524 . S
C517 H520 0.999 . S
C518 H488 0.950 . S
C518 C517 1.524 . S
C518 C519 1.415 . S
C519 H489 0.950 . S
C519 C514 1.363 . S
C519 C518 1.415 . S
H520 C517 0.999 . S
H521 C502 0.913 . S
H522 C540 0.951 . S
H523 C542 0.951 . S
H524 C544 0.950 . S
H525 C545 0.950 . S
H526 C547 0.950 . S
H527 C550 0.950 . S
H528 C551 0.950 . S
H529 C553 0.950 . S
H530 C554 0.950 . S
H531 C555 0.951 . S
H532 C557 0.951 . S
H533 C559 0.950 . S
H534 C560 0.950 . S
H535 C562 0.950 . S
H536 C565 0.950 . S
H537 C566 0.950 . S
H538 C568 0.950 . S
H539 C569 0.950 . S
C540 H522 0.951 . S
C540 C541 1.366 . S
C540 C542 1.388 . S
C541 C540 1.366 . S
C541 C545 1.385 . S
C542 H523 0.951 . S
C542 C540 1.388 . S
C542 C543 1.366 . S
C543 C542 1.366 . S
C543 C544 1.414 . S
C543 C546 1.499 . S
C544 H524 0.950 . S
C544 C543 1.414 . S
C544 C545 1.374 . S
C545 H525 0.950 . S
C545 C541 1.385 . S
C545 C544 1.374 . S
C546 C543 1.499 . S
C546 C547 1.373 . S
C546 C548 1.389 . S
C547 H526 0.950 . S
C547 C546 1.373 . S
C547 C563 1.377 . S
C548 C546 1.389 . S
C548 C549 1.524 . S
C548 C562 1.377 . S
C549 C548 1.524 . S
C549 C550 1.397 . S
C549 C554 1.363 . S
C550 H527 0.950 . S
C550 C549 1.397 . S
C550 C551 1.334 1_455 S
C551 H528 0.950 . S
C551 C550 1.334 1_655 S
C551 C552 1.287 . S
C552 C551 1.287 . S
C552 C553 1.524 . S
C552 H571 0.913 . S
C553 H529 0.950 . S
C553 C552 1.524 . S
C553 C554 1.415 1_655 S
C554 H530 0.950 . S
C554 C549 1.363 . S
C554 C553 1.415 1_455 S
C555 H531 0.951 . S
C555 C556 1.366 . S
C555 C557 1.388 . S
C556 C555 1.366 . S
C556 C560 1.385 . S
C557 H532 0.951 . S
C557 C555 1.388 . S
C557 C558 1.366 . S
C558 C557 1.366 . S
C558 C559 1.414 . S
C558 C561 1.499 . S
C559 H533 0.950 . S
C559 C558 1.414 . S
C559 C560 1.374 . S
C560 H534 0.950 . S
C560 C556 1.385 . S
C560 C559 1.374 . S
C561 C558 1.499 . S
C561 C562 1.373 . S
C561 C563 1.389 . S
C562 H535 0.950 . S
C562 C548 1.377 . S
C562 C561 1.373 . S
C563 C547 1.377 . S
C563 C561 1.389 . S
C563 C564 1.524 . S
C564 C563 1.524 . S
C564 C565 1.397 . S
C564 C569 1.363 . S
C565 H536 0.950 . S
C565 C564 1.397 . S
C565 C566 1.334 . S
C566 H537 0.950 . S
C566 C565 1.334 . S
C566 C567 1.287 . S
C567 C566 1.287 . S
C567 C568 1.524 . S
C567 H570 0.999 . S
C568 H538 0.950 . S
C568 C567 1.524 . S
C568 C569 1.415 . S
C569 H539 0.950 . S
C569 C564 1.363 . S
C569 C568 1.415 . S
H570 C567 0.999 . S
H571 C552 0.913 . S
H572 C590 0.951 1_455 S
H573 C592 0.951 . S
H574 C594 0.950 . S
H575 C595 0.950 . S
H576 C597 0.950 . S
H577 C600 0.950 . S
H578 C601 0.950 1_554 S
H579 C603 0.950 . S
H580 C604 0.950 . S
H581 C605 0.951 . S
H582 C607 0.951 . S
H583 C609 0.950 . S
H584 C610 0.950 . S
H585 C612 0.950 . S
H586 C615 0.950 . S
H587 C616 0.950 . S
H588 C618 0.950 . S
H589 C619 0.950 . S
C590 H572 0.951 1_655 S
C590 C591 1.366 . S
C590 C592 1.388 . S
C591 C590 1.366 . S
C591 C595 1.385 . S
C592 H573 0.951 . S
C592 C590 1.388 . S
C592 C593 1.366 . S
C593 C592 1.366 . S
C593 C594 1.414 . S
C593 C596 1.499 . S
C594 H574 0.950 . S
C594 C593 1.414 . S
C594 C595 1.374 . S
C595 H575 0.950 . S
C595 C591 1.385 . S
C595 C594 1.374 . S
C596 C593 1.499 . S
C596 C597 1.373 . S
C596 C598 1.389 . S
C597 H576 0.950 . S
C597 C596 1.373 . S
C597 C613 1.377 . S
C598 C596 1.389 . S
C598 C599 1.524 . S
C598 C612 1.377 . S
C599 C598 1.524 . S
C599 C600 1.397 . S
C599 C604 1.363 . S
C600 H577 0.950 . S
C600 C599 1.397 . S
C600 C601 1.334 . S
C601 H578 0.950 1_556 S
C601 C600 1.334 . S
C601 C602 1.287 . S
C602 C601 1.287 . S
C602 C603 1.524 . S
C602 H621 0.913 1_556 S
C603 H579 0.950 . S
C603 C602 1.524 . S
C603 C604 1.415 . S
C604 H580 0.950 . S
C604 C599 1.363 . S
C604 C603 1.415 . S
C605 H581 0.951 . S
C605 C606 1.366 . S
C605 C607 1.388 . S
C606 C605 1.366 . S
C606 C610 1.385 . S
C607 H582 0.951 . S
C607 C605 1.388 . S
C607 C608 1.366 . S
C608 C607 1.366 . S
C608 C609 1.414 . S
C608 C611 1.499 . S
C609 H583 0.950 . S
C609 C608 1.414 . S
C609 C610 1.374 . S
C610 H584 0.950 . S
C610 C606 1.385 . S
C610 C609 1.374 . S
C611 C608 1.499 . S
C611 C612 1.373 . S
C611 C613 1.389 . S
C612 H585 0.950 . S
C612 C598 1.377 . S
C612 C611 1.373 . S
C613 C597 1.377 . S
C613 C611 1.389 . S
C613 C614 1.524 . S
C614 C613 1.524 . S
C614 C615 1.397 . S
C614 C619 1.363 . S
C615 H586 0.950 . S
C615 C614 1.397 . S
C615 C616 1.334 . S
C616 H587 0.950 . S
C616 C615 1.334 . S
C616 C617 1.287 . S
C617 C616 1.287 . S
C617 C618 1.524 . S
C617 H620 0.999 . S
C618 H588 0.950 . S
C618 C617 1.524 . S
C618 C619 1.415 . S
C619 H589 0.950 . S
C619 C614 1.363 . S
C619 C618 1.415 . S
H620 C617 0.999 . S
H621 C602 0.913 1_554 S
H622 C640 0.951 . S
H623 C642 0.951 . S
H624 C644 0.950 . S
H625 C645 0.950 . S
H626 C647 0.950 . S
H627 C650 0.950 . S
H628 C651 0.950 . S
H629 C653 0.950 . S
H630 C654 0.950 . S
H631 C655 0.951 . S
H632 C657 0.951 . S
H633 C659 0.950 . S
H634 C660 0.950 . S
H635 C662 0.950 . S
H636 C665 0.950 . S
H637 C666 0.950 . S
H638 C668 0.950 . S
H639 C669 0.950 . S
C640 H622 0.951 . S
C640 C641 1.366 . S
C640 C642 1.388 . S
C641 C640 1.366 . S
C641 C645 1.385 . S
C642 H623 0.951 . S
C642 C640 1.388 . S
C642 C643 1.366 . S
C643 C642 1.366 . S
C643 C644 1.414 . S
C643 C646 1.499 . S
C644 H624 0.950 . S
C644 C643 1.414 . S
C644 C645 1.374 . S
C645 H625 0.950 . S
C645 C641 1.385 . S
C645 C644 1.374 . S
C646 C643 1.499 . S
C646 C647 1.373 . S
C646 C648 1.389 . S
C647 H626 0.950 . S
C647 C646 1.373 . S
C647 C663 1.377 . S
C648 C646 1.389 . S
C648 C649 1.524 . S
C648 C662 1.377 . S
C649 C648 1.524 . S
C649 C650 1.397 . S
C649 C654 1.363 . S
C650 H627 0.950 . S
C650 C649 1.397 . S
C650 C651 1.334 . S
C651 H628 0.950 . S
C651 C650 1.334 . S
C651 C652 1.287 . S
C652 C651 1.287 . S
C652 C653 1.524 . S
C652 H671 0.913 . S
C653 H629 0.950 . S
C653 C652 1.524 . S
C653 C654 1.415 . S
C654 H630 0.950 . S
C654 C649 1.363 . S
C654 C653 1.415 . S
C655 H631 0.951 . S
C655 C656 1.366 . S
C655 C657 1.388 . S
C656 C655 1.366 . S
C656 C660 1.385 . S
C657 H632 0.951 . S
C657 C655 1.388 . S
C657 C658 1.366 . S
C658 C657 1.366 . S
C658 C659 1.414 . S
C658 C661 1.499 . S
C659 H633 0.950 . S
C659 C658 1.414 . S
C659 C660 1.374 . S
C660 H634 0.950 . S
C660 C656 1.385 . S
C660 C659 1.374 . S
C661 C658 1.499 . S
C661 C662 1.373 . S
C661 C663 1.389 . S
C662 H635 0.950 . S
C662 C648 1.377 . S
C662 C661 1.373 . S
C663 C647 1.377 . S
C663 C661 1.389 . S
C663 C664 1.524 . S
C664 C663 1.524 . S
C664 C665 1.397 . S
C664 C669 1.363 . S
C665 H636 0.950 . S
C665 C664 1.397 . S
C665 C666 1.334 . S
C666 H637 0.950 . S
C666 C665 1.334 . S
C666 C667 1.287 . S
C667 C666 1.287 . S
C667 C668 1.524 . S
C667 H670 0.999 . S
C668 H638 0.950 . S
C668 C667 1.524 . S
C668 C669 1.415 . S
C669 H639 0.950 . S
C669 C664 1.363 . S
C669 C668 1.415 . S
H670 C667 0.999 . S
H671 C652 0.913 . S
H672 C690 0.951 . S
H673 C692 0.951 . S
H674 C694 0.950 . S
H675 C695 0.950 . S
H676 C697 0.950 . S
H677 C700 0.950 . S
H678 C701 0.950 . S
H679 C703 0.950 . S
H680 C704 0.950 . S
H681 C705 0.951 . S
H682 C707 0.951 . S
H683 C709 0.950 . S
H684 C710 0.950 . S
H685 C712 0.950 . S
H686 C715 0.950 . S
H687 C716 0.950 . S
H688 C718 0.950 . S
H689 C719 0.950 . S
C690 H672 0.951 . S
C690 C691 1.366 . S
C690 C692 1.388 . S
C691 C690 1.366 . S
C691 C695 1.385 . S
C692 H673 0.951 . S
C692 C690 1.388 . S
C692 C693 1.366 . S
C693 C692 1.366 . S
C693 C694 1.414 . S
C693 C696 1.499 . S
C694 H674 0.950 . S
C694 C693 1.414 . S
C694 C695 1.374 . S
C695 H675 0.950 . S
C695 C691 1.385 . S
C695 C694 1.374 . S
C696 C693 1.499 . S
C696 C697 1.373 . S
C696 C698 1.389 . S
C697 H676 0.950 . S
C697 C696 1.373 . S
C697 C713 1.377 . S
C698 C696 1.389 . S
C698 C699 1.524 . S
C698 C712 1.377 . S
C699 C698 1.524 . S
C699 C700 1.397 . S
C699 C704 1.363 . S
C700 H677 0.950 . S
C700 C699 1.397 . S
C700 C701 1.334 1_655 S
C701 H678 0.950 . S
C701 C700 1.334 1_455 S
C701 C702 1.287 . S
C702 C701 1.287 . S
C702 C703 1.524 . S
C702 H721 0.913 . S
C703 H679 0.950 . S
C703 C702 1.524 . S
C703 C704 1.415 1_455 S
C704 H680 0.950 . S
C704 C699 1.363 . S
C704 C703 1.415 1_655 S
C705 H681 0.951 . S
C705 C706 1.366 . S
C705 C707 1.388 . S
C706 C705 1.366 . S
C706 C710 1.385 . S
C707 H682 0.951 . S
C707 C705 1.388 . S
C707 C708 1.366 . S
C708 C707 1.366 . S
C708 C709 1.414 . S
C708 C711 1.499 . S
C709 H683 0.950 . S
C709 C708 1.414 . S
C709 C710 1.374 . S
C710 H684 0.950 . S
C710 C706 1.385 . S
C710 C709 1.374 . S
C711 C708 1.499 . S
C711 C712 1.373 . S
C711 C713 1.389 . S
C712 H685 0.950 . S
C712 C698 1.377 . S
C712 C711 1.373 . S
C713 C697 1.377 . S
C713 C711 1.389 . S
C713 C714 1.524 . S
C714 C713 1.524 . S
C714 C715 1.397 . S
C714 C719 1.363 . S
C715 H686 0.950 . S
C715 C714 1.397 . S
C715 C716 1.334 . S
C716 H687 0.950 . S
C716 C715 1.334 . S
C716 C717 1.287 . S
C717 C716 1.287 . S
C717 C718 1.524 . S
C717 H720 0.999 . S
C718 H688 0.950 . S
C718 C717 1.524 . S
C718 C719 1.415 . S
C719 H689 0.950 . S
C719 C714 1.363 . S
C719 C718 1.415 . S
H720 C717 0.999 . S
H721 C702 0.913 . S
C141 C12 1.594 . S
C156 C99 1.479 . S
C191 C69 0.850 . S
C206 C105 0.825 . S
C241 C8 0.909 . S
C256 C96 0.875 . S
C291 C71 1.830 . S
C306 C121 1.690 . S
C341 C17 2.348 . S
C356 C87 2.257 . S
C406 C104 2.090 . S
C391 C42 2.156 . S
C441 C52 1.594 . S
C456 C100 1.479 . S
C506 C117 2.091 . S
C491 C2 2.156 . S
C556 C84 2.257 . S
C541 C57 2.347 . S
C606 C120 1.688 . S
C591 C31 1.829 . S
C656 C83 0.872 . S
C641 C48 0.907 . S
C706 C108 0.826 . S
C691 C29 0.848 . S
