# Generated by pormake.
# Topology ibd, (4,6)-cn, num edge types: 1
# Building blocks:
#     Node 0, Type 0, BuildingBlock: NAHDIM_clean_sbu_0, # of connection points: 4
#     Node 1, Type 0, BuildingBlock: NAHDIM_clean_sbu_0, # of connection points: 4
#     Node 2, Type 0, BuildingBlock: NAHDIM_clean_sbu_0, # of connection points: 4
#     Node 3, Type 0, BuildingBlock: NAHDIM_clean_sbu_0, # of connection points: 4
#     Node 4, Type 0, BuildingBlock: NAHDIM_clean_sbu_0, # of connection points: 4
#     Node 5, Type 0, BuildingBlock: NAHDIM_clean_sbu_0, # of connection points: 4
#     Node 6, Type 0, BuildingBlock: NAHDIM_clean_sbu_0, # of connection points: 4
#     Node 7, Type 0, BuildingBlock: NAHDIM_clean_sbu_0, # of connection points: 4
#     Node 8, Type 0, BuildingBlock: NAHDIM_clean_sbu_0, # of connection points: 4
#     Node 9, Type 0, BuildingBlock: NAHDIM_clean_sbu_0, # of connection points: 4
#     Node 10, Type 0, BuildingBlock: NAHDIM_clean_sbu_0, # of connection points: 4
#     Node 11, Type 0, BuildingBlock: NAHDIM_clean_sbu_0, # of connection points: 4
#     Node 12, Type 0, BuildingBlock: NAHDIM_clean_sbu_0, # of connection points: 4
#     Node 13, Type 0, BuildingBlock: NAHDIM_clean_sbu_0, # of connection points: 4
#     Node 14, Type 0, BuildingBlock: NAHDIM_clean_sbu_0, # of connection points: 4
#     Node 15, Type 0, BuildingBlock: NAHDIM_clean_sbu_0, # of connection points: 4
#     Node 16, Type 0, BuildingBlock: NAHDIM_clean_sbu_0, # of connection points: 4
#     Node 17, Type 0, BuildingBlock: NAHDIM_clean_sbu_0, # of connection points: 4
#     Node 18, Type 0, BuildingBlock: NAHDIM_clean_sbu_0, # of connection points: 4
#     Node 19, Type 0, BuildingBlock: NAHDIM_clean_sbu_0, # of connection points: 4
#     Node 20, Type 0, BuildingBlock: NAHDIM_clean_sbu_0, # of connection points: 4
#     Node 21, Type 0, BuildingBlock: NAHDIM_clean_sbu_0, # of connection points: 4
#     Node 22, Type 0, BuildingBlock: NAHDIM_clean_sbu_0, # of connection points: 4
#     Node 23, Type 0, BuildingBlock: NAHDIM_clean_sbu_0, # of connection points: 4
#     Node 24, Type 1, BuildingBlock: OJICUG_clean_sbu_0, # of connection points: 6
#     Node 25, Type 1, BuildingBlock: OJICUG_clean_sbu_0, # of connection points: 6
#     Node 26, Type 1, BuildingBlock: OJICUG_clean_sbu_0, # of connection points: 6
#     Node 27, Type 1, BuildingBlock: OJICUG_clean_sbu_0, # of connection points: 6
#     Node 28, Type 1, BuildingBlock: OJICUG_clean_sbu_0, # of connection points: 6
#     Node 29, Type 1, BuildingBlock: OJICUG_clean_sbu_0, # of connection points: 6
#     Node 30, Type 1, BuildingBlock: OJICUG_clean_sbu_0, # of connection points: 6
#     Node 31, Type 1, BuildingBlock: OJICUG_clean_sbu_0, # of connection points: 6
#     Node 32, Type 1, BuildingBlock: OJICUG_clean_sbu_0, # of connection points: 6
#     Node 33, Type 1, BuildingBlock: OJICUG_clean_sbu_0, # of connection points: 6
#     Node 34, Type 1, BuildingBlock: OJICUG_clean_sbu_0, # of connection points: 6
#     Node 35, Type 1, BuildingBlock: OJICUG_clean_sbu_0, # of connection points: 6
#     Node 36, Type 1, BuildingBlock: OJICUG_clean_sbu_0, # of connection points: 6
#     Node 37, Type 1, BuildingBlock: OJICUG_clean_sbu_0, # of connection points: 6
#     Node 38, Type 1, BuildingBlock: OJICUG_clean_sbu_0, # of connection points: 6
#     Node 39, Type 1, BuildingBlock: OJICUG_clean_sbu_0, # of connection points: 6
#     Edge 40, Type (0, 1), BuildingBlock: KIFKEQ_clean_linker_1, # of connection points: 2
#     Edge 41, Type (0, 1), BuildingBlock: KIFKEQ_clean_linker_1, # of connection points: 2
#     Edge 42, Type (0, 1), BuildingBlock: KIFKEQ_clean_linker_1, # of connection points: 2
#     Edge 43, Type (0, 1), BuildingBlock: KIFKEQ_clean_linker_1, # of connection points: 2
#     Edge 44, Type (0, 1), BuildingBlock: KIFKEQ_clean_linker_1, # of connection points: 2
#     Edge 45, Type (0, 1), BuildingBlock: KIFKEQ_clean_linker_1, # of connection points: 2
#     Edge 46, Type (0, 1), BuildingBlock: KIFKEQ_clean_linker_1, # of connection points: 2
#     Edge 47, Type (0, 1), BuildingBlock: KIFKEQ_clean_linker_1, # of connection points: 2
#     Edge 48, Type (0, 1), BuildingBlock: KIFKEQ_clean_linker_1, # of connection points: 2
#     Edge 49, Type (0, 1), BuildingBlock: KIFKEQ_clean_linker_1, # of connection points: 2
#     Edge 50, Type (0, 1), BuildingBlock: KIFKEQ_clean_linker_1, # of connection points: 2
#     Edge 51, Type (0, 1), BuildingBlock: KIFKEQ_clean_linker_1, # of connection points: 2
#     Edge 52, Type (0, 1), BuildingBlock: KIFKEQ_clean_linker_1, # of connection points: 2
#     Edge 53, Type (0, 1), BuildingBlock: KIFKEQ_clean_linker_1, # of connection points: 2
#     Edge 54, Type (0, 1), BuildingBlock: KIFKEQ_clean_linker_1, # of connection points: 2
#     Edge 55, Type (0, 1), BuildingBlock: KIFKEQ_clean_linker_1, # of connection points: 2
#     Edge 56, Type (0, 1), BuildingBlock: KIFKEQ_clean_linker_1, # of connection points: 2
#     Edge 57, Type (0, 1), BuildingBlock: KIFKEQ_clean_linker_1, # of connection points: 2
#     Edge 58, Type (0, 1), BuildingBlock: KIFKEQ_clean_linker_1, # of connection points: 2
#     Edge 59, Type (0, 1), BuildingBlock: KIFKEQ_clean_linker_1, # of connection points: 2
#     Edge 60, Type (0, 1), BuildingBlock: KIFKEQ_clean_linker_1, # of connection points: 2
#     Edge 61, Type (0, 1), BuildingBlock: KIFKEQ_clean_linker_1, # of connection points: 2
#     Edge 62, Type (0, 1), BuildingBlock: KIFKEQ_clean_linker_1, # of connection points: 2
#     Edge 63, Type (0, 1), BuildingBlock: KIFKEQ_clean_linker_1, # of connection points: 2
#     Edge 64, Type (0, 1), BuildingBlock: KIFKEQ_clean_linker_1, # of connection points: 2
#     Edge 65, Type (0, 1), BuildingBlock: KIFKEQ_clean_linker_1, # of connection points: 2
#     Edge 66, Type (0, 1), BuildingBlock: KIFKEQ_clean_linker_1, # of connection points: 2
#     Edge 67, Type (0, 1), BuildingBlock: KIFKEQ_clean_linker_1, # of connection points: 2
#     Edge 68, Type (0, 1), BuildingBlock: KIFKEQ_clean_linker_1, # of connection points: 2
#     Edge 69, Type (0, 1), BuildingBlock: KIFKEQ_clean_linker_1, # of connection points: 2
#     Edge 70, Type (0, 1), BuildingBlock: KIFKEQ_clean_linker_1, # of connection points: 2
#     Edge 71, Type (0, 1), BuildingBlock: KIFKEQ_clean_linker_1, # of connection points: 2
#     Edge 72, Type (0, 1), BuildingBlock: KIFKEQ_clean_linker_1, # of connection points: 2
#     Edge 73, Type (0, 1), BuildingBlock: KIFKEQ_clean_linker_1, # of connection points: 2
#     Edge 74, Type (0, 1), BuildingBlock: KIFKEQ_clean_linker_1, # of connection points: 2
#     Edge 75, Type (0, 1), BuildingBlock: KIFKEQ_clean_linker_1, # of connection points: 2
#     Edge 76, Type (0, 1), BuildingBlock: KIFKEQ_clean_linker_1, # of connection points: 2
#     Edge 77, Type (0, 1), BuildingBlock: KIFKEQ_clean_linker_1, # of connection points: 2
#     Edge 78, Type (0, 1), BuildingBlock: KIFKEQ_clean_linker_1, # of connection points: 2
#     Edge 79, Type (0, 1), BuildingBlock: KIFKEQ_clean_linker_1, # of connection points: 2
#     Edge 80, Type (0, 1), BuildingBlock: KIFKEQ_clean_linker_1, # of connection points: 2
#     Edge 81, Type (0, 1), BuildingBlock: KIFKEQ_clean_linker_1, # of connection points: 2
#     Edge 82, Type (0, 1), BuildingBlock: KIFKEQ_clean_linker_1, # of connection points: 2
#     Edge 83, Type (0, 1), BuildingBlock: KIFKEQ_clean_linker_1, # of connection points: 2
#     Edge 84, Type (0, 1), BuildingBlock: KIFKEQ_clean_linker_1, # of connection points: 2
#     Edge 85, Type (0, 1), BuildingBlock: KIFKEQ_clean_linker_1, # of connection points: 2
#     Edge 86, Type (0, 1), BuildingBlock: KIFKEQ_clean_linker_1, # of connection points: 2
#     Edge 87, Type (0, 1), BuildingBlock: KIFKEQ_clean_linker_1, # of connection points: 2
#     Edge 88, Type (0, 1), BuildingBlock: KIFKEQ_clean_linker_1, # of connection points: 2
#     Edge 89, Type (0, 1), BuildingBlock: KIFKEQ_clean_linker_1, # of connection points: 2
#     Edge 90, Type (0, 1), BuildingBlock: KIFKEQ_clean_linker_1, # of connection points: 2
#     Edge 91, Type (0, 1), BuildingBlock: KIFKEQ_clean_linker_1, # of connection points: 2
#     Edge 92, Type (0, 1), BuildingBlock: KIFKEQ_clean_linker_1, # of connection points: 2
#     Edge 93, Type (0, 1), BuildingBlock: KIFKEQ_clean_linker_1, # of connection points: 2
#     Edge 94, Type (0, 1), BuildingBlock: KIFKEQ_clean_linker_1, # of connection points: 2
#     Edge 95, Type (0, 1), BuildingBlock: KIFKEQ_clean_linker_1, # of connection points: 2
#     Edge 96, Type (0, 1), BuildingBlock: KIFKEQ_clean_linker_1, # of connection points: 2
#     Edge 97, Type (0, 1), BuildingBlock: KIFKEQ_clean_linker_1, # of connection points: 2
#     Edge 98, Type (0, 1), BuildingBlock: KIFKEQ_clean_linker_1, # of connection points: 2
#     Edge 99, Type (0, 1), BuildingBlock: KIFKEQ_clean_linker_1, # of connection points: 2
#     Edge 100, Type (0, 1), BuildingBlock: KIFKEQ_clean_linker_1, # of connection points: 2
#     Edge 101, Type (0, 1), BuildingBlock: KIFKEQ_clean_linker_1, # of connection points: 2
#     Edge 102, Type (0, 1), BuildingBlock: KIFKEQ_clean_linker_1, # of connection points: 2
#     Edge 103, Type (0, 1), BuildingBlock: KIFKEQ_clean_linker_1, # of connection points: 2
#     Edge 104, Type (0, 1), BuildingBlock: KIFKEQ_clean_linker_1, # of connection points: 2
#     Edge 105, Type (0, 1), BuildingBlock: KIFKEQ_clean_linker_1, # of connection points: 2
#     Edge 106, Type (0, 1), BuildingBlock: KIFKEQ_clean_linker_1, # of connection points: 2
#     Edge 107, Type (0, 1), BuildingBlock: KIFKEQ_clean_linker_1, # of connection points: 2
#     Edge 108, Type (0, 1), BuildingBlock: KIFKEQ_clean_linker_1, # of connection points: 2
#     Edge 109, Type (0, 1), BuildingBlock: KIFKEQ_clean_linker_1, # of connection points: 2
#     Edge 110, Type (0, 1), BuildingBlock: KIFKEQ_clean_linker_1, # of connection points: 2
#     Edge 111, Type (0, 1), BuildingBlock: KIFKEQ_clean_linker_1, # of connection points: 2
#     Edge 112, Type (0, 1), BuildingBlock: KIFKEQ_clean_linker_1, # of connection points: 2
#     Edge 113, Type (0, 1), BuildingBlock: KIFKEQ_clean_linker_1, # of connection points: 2
#     Edge 114, Type (0, 1), BuildingBlock: KIFKEQ_clean_linker_1, # of connection points: 2
#     Edge 115, Type (0, 1), BuildingBlock: KIFKEQ_clean_linker_1, # of connection points: 2
#     Edge 116, Type (0, 1), BuildingBlock: KIFKEQ_clean_linker_1, # of connection points: 2
#     Edge 117, Type (0, 1), BuildingBlock: KIFKEQ_clean_linker_1, # of connection points: 2
#     Edge 118, Type (0, 1), BuildingBlock: KIFKEQ_clean_linker_1, # of connection points: 2
#     Edge 119, Type (0, 1), BuildingBlock: KIFKEQ_clean_linker_1, # of connection points: 2
#     Edge 120, Type (0, 1), BuildingBlock: KIFKEQ_clean_linker_1, # of connection points: 2
#     Edge 121, Type (0, 1), BuildingBlock: KIFKEQ_clean_linker_1, # of connection points: 2
#     Edge 122, Type (0, 1), BuildingBlock: KIFKEQ_clean_linker_1, # of connection points: 2
#     Edge 123, Type (0, 1), BuildingBlock: KIFKEQ_clean_linker_1, # of connection points: 2
#     Edge 124, Type (0, 1), BuildingBlock: KIFKEQ_clean_linker_1, # of connection points: 2
#     Edge 125, Type (0, 1), BuildingBlock: KIFKEQ_clean_linker_1, # of connection points: 2
#     Edge 126, Type (0, 1), BuildingBlock: KIFKEQ_clean_linker_1, # of connection points: 2
#     Edge 127, Type (0, 1), BuildingBlock: KIFKEQ_clean_linker_1, # of connection points: 2
#     Edge 128, Type (0, 1), BuildingBlock: KIFKEQ_clean_linker_1, # of connection points: 2
#     Edge 129, Type (0, 1), BuildingBlock: KIFKEQ_clean_linker_1, # of connection points: 2
#     Edge 130, Type (0, 1), BuildingBlock: KIFKEQ_clean_linker_1, # of connection points: 2
#     Edge 131, Type (0, 1), BuildingBlock: KIFKEQ_clean_linker_1, # of connection points: 2
#     Edge 132, Type (0, 1), BuildingBlock: KIFKEQ_clean_linker_1, # of connection points: 2
#     Edge 133, Type (0, 1), BuildingBlock: KIFKEQ_clean_linker_1, # of connection points: 2
#     Edge 134, Type (0, 1), BuildingBlock: KIFKEQ_clean_linker_1, # of connection points: 2
#     Edge 135, Type (0, 1), BuildingBlock: KIFKEQ_clean_linker_1, # of connection points: 2
# Relax obj value: 0.381
# Max RMSD: 0.298
# Mean RMSD: 0.288
data_MOF--net-ibd--node1-NAHDIM_clean_sbu_0--node2-OJICUG_clean_sbu_0--edge1-KIFKEQ_clean_linker_1
_symmetry_space_group_name_H-M    P1
_symmetry_Int_Tables_number       1
_symmetry_cell_setting            triclinic
loop_
_symmetry_equiv_pos_as_xyz
'x, y, z'
_cell_length_a     49.383126
_cell_length_b     49.420437
_cell_length_c     49.412285
_cell_angle_alpha  91.029456
_cell_angle_beta   90.968869
_cell_angle_gamma 91.793784
loop_
_atom_site_label
_atom_site_type_symbol
_atom_site_fract_x
_atom_site_fract_y
_atom_site_fract_z
_atom_type_partial_charge
C0 C 0.04853 0.16044 0.36544 0.0
O1 O 0.0606 0.17441 0.38531 0.0
O2 O 0.029 0.22173 0.39363 0.0
Zn3 Zn 0.00305 0.19247 0.37924 0.0
O4 O 0.97548 0.20767 0.35372 0.0
C5 C 0.96163 0.16543 0.41166 0.0
O6 O 0.94679 0.16355 0.38935 0.0
O7 O 0.02382 0.16445 0.35972 0.0
C8 C 0.95455 0.21998 0.36116 0.0
O9 O 0.95011 0.22351 0.38711 0.0
C10 C 0.02513 0.24701 0.39303 0.0
O11 O 0.00323 0.25578 0.38109 0.0
O12 O 0.98531 0.17612 0.41118 0.0
C13 C 0.02388 0.70402 0.63768 0.0
O14 O 0.01079 0.68641 0.62163 0.0
O15 O 0.9636 0.71214 0.59849 0.0
Zn16 Zn 0.98023 0.74009 0.62423 0.0
O17 O 0.95534 0.74826 0.65452 0.0
C18 C 0.9745 0.77949 0.58287 0.0
O19 O 0.95411 0.7632 0.57537 0.0
O20 O 0.01472 0.72755 0.6409 0.0
C21 C 0.93355 0.76108 0.6523 0.0
O22 O 0.92579 0.76964 0.62847 0.0
C23 C 0.9402 0.70113 0.60096 0.0
O24 O 0.92612 0.70632 0.62264 0.0
O25 O 0.98849 0.77399 0.60375 0.0
C26 C 0.51355 0.68547 0.86277 0.0
O27 O 0.51474 0.70347 0.88266 0.0
O28 O 0.46385 0.72801 0.88648 0.0
Zn29 Zn 0.45575 0.69529 0.86287 0.0
O30 O 0.43667 0.70777 0.82949 0.0
C31 C 0.40768 0.67056 0.88631 0.0
O32 O 0.39442 0.68535 0.86905 0.0
O33 O 0.49069 0.67849 0.85213 0.0
C34 C 0.42099 0.72768 0.83042 0.0
O35 O 0.41499 0.73832 0.85404 0.0
C36 C 0.47381 0.75035 0.87825 0.0
O37 O 0.47998 0.75279 0.85263 0.0
O38 O 0.43334 0.67001 0.88521 0.0
C39 C 0.51828 0.2277 0.17087 0.0
O40 O 0.50822 0.25184 0.17394 0.0
O41 O 0.46098 0.20053 0.10479 0.0
Zn42 Zn 0.47794 0.22746 0.1313 0.0
O43 O 0.45152 0.24178 0.15796 0.0
C44 C 0.48849 0.28179 0.10807 0.0
O45 O 0.46737 0.29043 0.12105 0.0
O46 O 0.50816 0.21168 0.15272 0.0
C47 C 0.42915 0.25332 0.15432 0.0
O48 O 0.41976 0.25681 0.12964 0.0
C49 C 0.43703 0.19045 0.10556 0.0
O50 O 0.42165 0.19616 0.12619 0.0
O51 O 0.49524 0.2573 0.11001 0.0
C52 C 0.06632 0.7003 0.09643 0.0
O53 O 0.08538 0.71584 0.10806 0.0
O54 O 0.0527 0.7512 0.15021 0.0
Zn55 Zn 0.02796 0.73766 0.12006 0.0
O56 O 0.02202 0.76697 0.09337 0.0
C57 C 0.97118 0.73899 0.13702 0.0
O58 O 0.97034 0.76263 0.1254 0.0
O59 O 0.04166 0.70574 0.09978 0.0
C60 C 0.01857 0.79178 0.09912 0.0
O61 O 0.01859 0.79993 0.12458 0.0
C62 C 0.07115 0.76949 0.14795 0.0
O63 O 0.07666 0.77895 0.12392 0.0
O64 O 0.99285 0.7258 0.13658 0.0
C65 C 0.57022 0.6923 0.41693 0.0
O66 O 0.54365 0.69332 0.41667 0.0
O67 O 0.52773 0.70777 0.35914 0.0
Zn68 Zn 0.56108 0.72758 0.3747 0.0
O69 O 0.55055 0.75843 0.39864 0.0
C70 C 0.58112 0.72799 0.32162 0.0
O71 O 0.57029 0.70337 0.32178 0.0
O72 O 0.58328 0.70416 0.39841 0.0
C73 C 0.54357 0.7818 0.39147 0.0
O74 O 0.54248 0.78763 0.36564 0.0
C75 C 0.50439 0.71795 0.35931 0.0
O76 O 0.50099 0.74077 0.37263 0.0
O77 O 0.58166 0.7421 0.34337 0.0
C78 C 0.56491 0.21208 0.60485 0.0
O79 O 0.57829 0.21948 0.6271 0.0
O80 O 0.54823 0.26757 0.64984 0.0
Zn81 Zn 0.52543 0.25357 0.61868 0.0
O82 O 0.51957 0.28262 0.59169 0.0
C83 C 0.47332 0.25642 0.64359 0.0
O84 O 0.47844 0.28258 0.64209 0.0
O85 O 0.54291 0.22336 0.59882 0.0
C86 C 0.51895 0.30802 0.596 0.0
O87 O 0.5215 0.31783 0.62083 0.0
C88 C 0.56835 0.28418 0.64912 0.0
O89 O 0.57678 0.29308 0.62573 0.0
O90 O 0.49013 0.24008 0.63383 0.0
C91 C 0.03732 0.25869 0.92169 0.0
O92 O 0.04142 0.25479 0.89576 0.0
O93 O 0.97148 0.2858 0.8887 0.0
Zn94 Zn 0.00541 0.30381 0.90423 0.0
O95 O -0.00415 0.33666 0.92553 0.0
C96 C 0.02834 0.29733 0.85257 0.0
O97 O 0.01024 0.27727 0.85179 0.0
O98 O 0.02324 0.27835 0.92948 0.0
C99 C 0.01318 0.34812 0.94157 0.0
O100 O 0.0382 0.33981 0.94171 0.0
C101 C 0.9623 0.26272 0.89578 0.0
O102 O 0.97336 0.25089 0.91663 0.0
O103 O 0.03037 0.31252 0.87361 0.0
C104 C 0.38576 0.96249 0.24038 0.0
O105 O 0.37883 0.95033 0.26276 0.0
O106 O 0.34629 0.0002 0.28994 0.0
Zn107 Zn 0.37853 0.01387 0.2699 0.0
O108 O 0.41135 0.02059 0.29345 0.0
C109 C 0.35477 0.0659 0.26368 0.0
O110 O 0.35055 0.06392 0.28976 0.0
O111 O 0.38696 0.98817 0.23979 0.0
C112 C 0.41149 0.03205 0.31667 0.0
O113 O 0.38859 0.03958 0.32713 0.0
C114 C 0.34562 0.98373 0.30935 0.0
O115 O 0.36827 0.97389 0.31871 0.0
O116 O 0.36797 0.04774 0.25174 0.0
C117 C 0.3292 0.10332 0.52339 0.0
O118 O 0.3317 0.12759 0.53463 0.0
O119 O 0.28801 0.15237 0.48141 0.0
Zn120 Zn 0.27752 0.12212 0.50559 0.0
O121 O 0.24414 0.10187 0.49179 0.0
C122 C 0.24987 0.13356 0.55578 0.0
O123 O 0.23392 0.1128 0.5486 0.0
O124 O 0.30784 0.0968 0.50982 0.0
C125 C 0.22434 0.11273 0.47986 0.0
O126 O 0.22555 0.13879 0.47504 0.0
C127 C 0.30583 0.15198 0.46322 0.0
O128 O 0.31805 0.12935 0.45768 0.0
O129 O 0.26996 0.1398 0.5412 0.0
C130 C 0.16635 0.92722 0.68862 0.0
O131 O 0.16251 0.92444 0.71469 0.0
O132 O 0.10787 0.94841 0.72606 0.0
Zn133 Zn 0.12787 0.96812 0.69657 0.0
O134 O 0.15157 -0.00137 0.71216 0.0
C135 C 0.10298 0.00498 0.65933 0.0
O136 O 0.12736 0.01636 0.65853 0.0
O137 O 0.15223 0.94394 0.67575 0.0
C138 C 0.1434 0.02122 0.72103 0.0
O139 O 0.11733 0.0258 0.72096 0.0
C140 C 0.10751 0.95713 0.75043 0.0
O141 O 0.12281 0.9783 0.75771 0.0
O142 O 0.09934 0.98354 0.67273 0.0
C143 C 0.30399 0.86433 0.0282 0.0
O144 O 0.32549 0.874 0.01591 0.0
O145 O 0.30633 0.89775 0.96388 0.0
Zn146 Zn 0.27397 0.87784 0.97878 0.0
O147 O 0.26146 0.84631 0.95538 0.0
C148 C 0.24355 0.92584 0.96841 0.0
O149 O 0.26265 0.93116 0.95095 0.0
O150 O 0.28107 0.86427 0.01617 0.0
C151 C 0.24321 0.84791 0.93708 0.0
O152 O 0.23284 0.87147 0.932 0.0
C153 C 0.31207 0.89653 0.93893 0.0
O154 O 0.29907 0.87864 0.92316 0.0
O155 O 0.24405 0.90412 0.98176 0.0
C156 C 0.16215 0.37739 0.97506 0.0
O157 O 0.17235 0.35466 0.96638 0.0
O158 O 0.2241 0.35068 -0.00525 0.0
Zn159 Zn 0.20321 0.37604 0.018 0.0
O160 O 0.22491 0.40958 0.02817 0.0
C161 C 0.2121 0.34864 0.06624 0.0
O162 O 0.23711 0.35216 0.05805 0.0
O163 O 0.17079 0.38806 -0.00272 0.0
C164 C 0.25053 0.4126 0.02935 0.0
O165 O 0.26577 0.39219 0.02302 0.0
C166 C 0.23449 0.35736 0.97239 0.0
O167 O 0.23283 0.38244 0.96428 0.0
O168 O 0.19282 0.35756 0.05199 0.0
C169 C 0.71979 0.14952 0.94516 0.0
O170 O 0.73928 0.13731 0.93249 0.0
O171 O 0.76468 0.10122 0.97446 0.0
Zn172 Zn 0.73764 0.12276 -0.00502 0.0
O173 O 0.75695 0.14629 0.02308 0.0
C174 C 0.70619 0.09319 0.03575 0.0
O175 O 0.72332 0.10359 0.05402 0.0
O176 O 0.71685 0.14631 0.97037 0.0
C177 C 0.74523 0.16492 0.03591 0.0
O178 O 0.71918 0.1681 0.03176 0.0
C179 C 0.78941 0.10089 0.98205 0.0
O180 O 0.79747 0.11502 0.00363 0.0
O181 O 0.70954 0.09817 0.01091 0.0
C182 C 0.0791 0.53317 0.3636 0.0
O183 O 0.07687 0.50666 0.36483 0.0
O184 O 0.14396 0.49511 0.34707 0.0
Zn185 Zn 0.11926 0.51921 0.32644 0.0
O186 O 0.0916 0.49672 0.30536 0.0
C187 C 0.15847 0.55915 0.31156 0.0
O188 O 0.16066 0.56189 0.33802 0.0
O189 O 0.09829 0.54365 0.35016 0.0
C190 C 0.09266 0.48965 0.28058 0.0
O191 O 0.11343 0.49759 0.26614 0.0
C192 C 0.14453 0.46999 0.3411 0.0
O193 O 0.12737 0.45965 0.32285 0.0
O194 O 0.1415 0.5418 0.30146 0.0
C195 C 0.69289 0.89801 0.49283 0.0
O196 O 0.69494 0.87297 0.4839 0.0
O197 O 0.75914 0.86718 0.49434 0.0
Zn198 Zn 0.74291 0.88958 0.52388 0.0
O199 O 0.76927 0.91848 0.53684 0.0
C200 C 0.75018 0.86495 0.57524 0.0
O201 O 0.77419 0.87702 0.57405 0.0
O202 O 0.71004 0.90773 0.51011 0.0
C203 C 0.7734 0.94056 0.52466 0.0
O204 O 0.76094 0.94449 0.50143 0.0
C205 C 0.75776 0.87349 0.46952 0.0
O206 O 0.74593 0.89579 0.46246 0.0
O207 O 0.73343 0.86701 0.55562 0.0
C208 C 0.86388 0.04578 0.22981 0.0
O209 O 0.88762 0.03773 0.23825 0.0
O210 O 0.87931 0.97525 0.22872 0.0
Zn211 Zn 0.86138 -0.0049 0.19864 0.0
O212 O 0.82801 0.97448 0.1863 0.0
C213 C 0.90616 0.98289 0.16527 0.0
O214 O 0.90666 0.96147 0.18061 0.0
O215 O 0.85021 0.03139 0.21257 0.0
C216 C 0.82761 0.95247 0.17263 0.0
O217 O 0.85051 0.94201 0.1652 0.0
C218 C 0.87327 0.97729 0.25355 0.0
O219 O 0.8533 0.99259 0.26089 0.0
O220 O 0.88767 -0.00011 0.16861 0.0
C221 C 0.22561 0.67836 0.44328 0.0
O222 O 0.25166 0.6818 0.4485 0.0
O223 O 0.26099 0.61233 0.45919 0.0
Zn224 Zn 0.23312 0.63398 0.47784 0.0
O225 O 0.25182 0.65823 0.50572 0.0
C226 C 0.20299 0.60344 0.51858 0.0
O227 O 0.21504 0.6199 0.5365 0.0
O228 O 0.21309 0.65784 0.45265 0.0
C229 C 0.27245 0.65212 0.51978 0.0
O230 O 0.28131 0.62735 0.51837 0.0
C231 C 0.28502 0.61971 0.45327 0.0
O232 O 0.29331 0.64497 0.45735 0.0
O233 O 0.20721 0.60678 0.49358 0.0
C234 C 0.38087 0.57295 0.76194 0.0
O235 O 0.40103 0.56514 0.77731 0.0
O236 O 0.41716 0.51259 0.75566 0.0
Zn237 Zn 0.39336 0.52731 0.7265 0.0
O238 O 0.36326 0.50122 0.71577 0.0
C239 C 0.43323 0.51909 0.68728 0.0
O240 O 0.43317 0.49525 0.69862 0.0
O241 O 0.37558 0.56059 0.73965 0.0
C242 C 0.3633 0.47554 0.71555 0.0
O243 O 0.38549 0.4631 0.72225 0.0
C244 C 0.40909 0.50137 0.77713 0.0
O245 O 0.38299 0.49838 0.78138 0.0
O246 O 0.41638 0.53632 0.69507 0.0
C247 C 0.59746 0.05214 0.82827 0.0
O248 O 0.62003 0.06688 0.8304 0.0
O249 O 0.64898 0.98825 0.81827 0.0
Zn250 Zn 0.62853 0.01448 0.7958 0.0
O251 O 0.61208 -0.00342 0.76231 0.0
C252 C 0.6514 0.0589 0.76503 0.0
O253 O 0.63079 0.05364 0.74841 0.0
O254 O 0.59744 0.02939 0.81589 0.0
C255 C 0.62248 0.98116 0.74471 0.0
O256 O 0.64808 0.97495 0.74708 0.0
C257 C 0.64632 0.96261 0.81648 0.0
O258 O 0.62801 0.95151 0.79981 0.0
O259 O 0.65421 0.04483 0.78608 0.0
C260 C 0.81884 0.61405 0.09051 0.0
O261 O 0.83377 0.62717 0.07298 0.0
O262 O 0.79794 0.64878 0.03058 0.0
Zn263 Zn 0.77362 0.62733 0.05499 0.0
O264 O 0.75642 0.59594 0.03426 0.0
C265 C 0.72241 0.65283 0.05247 0.0
O266 O 0.71903 0.63671 0.03121 0.0
O267 O 0.79327 0.6128 0.08716 0.0
C268 C 0.7376 0.58218 0.04527 0.0
O269 O 0.73134 0.5878 0.07045 0.0
C270 C 0.78921 0.6528 0.00669 0.0
O271 O 0.76614 0.64113 -0.00137 0.0
O272 O 0.7442 0.65207 0.0665 0.0
C273 C 0.89511 0.40049 0.70436 0.0
O274 O 0.883 0.38087 0.7176 0.0
O275 O 0.85812 0.40867 0.76746 0.0
Zn276 Zn 0.8825 0.43634 0.7504 0.0
O277 O 0.91354 0.44846 0.77496 0.0
C278 C 0.8708 0.49157 0.73792 0.0
O279 O 0.89707 0.49396 0.73432 0.0
O280 O 0.89669 0.42421 0.7147 0.0
C281 C 0.90982 0.46612 0.79345 0.0
O282 O 0.88523 0.47451 0.79763 0.0
C283 C 0.86107 0.40125 0.79179 0.0
O284 O 0.88289 0.40928 0.80563 0.0
O285 O 0.86034 0.46875 0.74412 0.0
C286 C 0.84086 0.38018 0.56432 0.0
O287 O 0.8583 0.39129 0.54774 0.0
O288 O 0.81781 0.42047 0.50594 0.0
Zn289 Zn 0.79716 0.39107 0.52446 0.0
O290 O 0.78604 0.36082 0.4985 0.0
C291 C 0.75028 0.42341 0.52199 0.0
O292 O 0.7564 0.42453 0.49625 0.0
O293 O 0.81596 0.37787 0.55755 0.0
C294 C 0.76312 0.34893 0.50139 0.0
O295 O 0.74812 0.35589 0.52193 0.0
C296 C 0.82468 0.41939 0.48131 0.0
O297 O 0.82227 0.3963 0.46777 0.0
O298 O 0.7643 0.40909 0.53765 0.0
C299 C 0.6286 0.45372 0.17666 0.0
O300 O 0.60859 0.45013 0.19351 0.0
O301 O 0.58764 0.50143 0.20693 0.0
Zn302 Zn 0.61269 0.50989 0.17671 0.0
O303 O 0.63922 0.53876 0.19021 0.0
C304 C 0.59215 0.5454 0.13543 0.0
O305 O 0.61265 0.56159 0.14283 0.0
O306 O 0.63303 0.47689 0.16654 0.0
C307 C 0.63202 0.55826 0.20531 0.0
O308 O 0.60625 0.56059 0.21081 0.0
C309 C 0.59572 0.49727 0.231 0.0
O310 O 0.62181 0.49817 0.23675 0.0
O311 O 0.58972 0.52223 0.14596 0.0
Sc312 Sc 0.10352 0.13527 0.13209 0.0
Sc313 Sc 0.13911 0.07572 0.14048 0.0
Sc314 Sc 0.16582 0.12776 0.10024 0.0
O315 O 0.13611 0.11286 0.12412 0.0
C316 C 0.11166 0.14631 0.07005 0.0
C317 C 0.07706 0.07534 0.12524 0.0
C318 C 0.16231 0.0664 0.08107 0.0
C319 C 0.11559 0.11039 0.18922 0.0
C320 C 0.15107 0.18044 0.13321 0.0
C321 C 0.19897 0.10027 0.14775 0.0
O322 O 0.09621 0.14238 0.09001 0.0
O323 O 0.09914 0.06293 0.12688 0.0
O324 O 0.1663 0.09128 0.07601 0.0
O325 O 0.10886 0.1302 0.1748 0.0
O326 O 0.1684 0.16564 0.1221 0.0
O327 O 0.17911 0.08571 0.15573 0.0
O328 O 0.12654 0.17286 0.13629 0.0
O329 O 0.12436 0.08849 0.17936 0.0
O330 O 0.19779 0.11471 0.12676 0.0
O331 O 0.0758 0.10082 0.12864 0.0
O332 O 0.13715 0.14321 0.07134 0.0
O333 O 0.15419 0.05814 0.10384 0.0
Sc334 Sc 0.11977 0.90735 0.41646 0.0
Sc335 Sc 0.06945 0.871 0.37933 0.0
Sc336 Sc 0.09708 0.93125 0.35373 0.0
O337 O 0.09536 0.90332 0.38324 0.0
C338 C 0.10473 0.96798 0.40785 0.0
C339 C 0.06408 0.88487 0.44131 0.0
C340 C 0.03421 0.91896 0.3559 0.0
C341 C 0.12231 0.84461 0.40449 0.0
C342 C 0.15897 0.92655 0.36891 0.0
C343 C 0.09089 0.87552 0.31988 0.0
O344 O 0.10821 0.94828 0.4236 0.0
O345 O 0.05322 0.8778 0.41869 0.0
O346 O 0.0539 0.93597 0.35382 0.0
O347 O 0.13381 0.86693 0.4119 0.0
O348 O 0.14022 0.92877 0.35124 0.0
O349 O 0.08391 0.86144 0.33995 0.0
O350 O 0.15435 0.92095 0.39349 0.0
O351 O 0.09836 0.843 0.39464 0.0
O352 O 0.09366 0.90122 0.3211 0.0
O353 O 0.08843 0.89394 0.44372 0.0
O354 O 0.10191 0.96492 0.38229 0.0
O355 O 0.03733 0.89462 0.36296 0.0
Sc356 Sc 0.44223 0.84118 0.60584 0.0
Sc357 Sc 0.39089 0.87523 0.57182 0.0
Sc358 Sc 0.41244 0.89731 0.6366 0.0
O359 O 0.41527 0.8713 0.60474 0.0
C360 C 0.4196 0.84029 0.66517 0.0
C361 C 0.3893 0.81199 0.57902 0.0
C362 C 0.35072 0.88859 0.6203 0.0
C363 C 0.44715 0.85923 0.54532 0.0
C364 C 0.47584 0.89104 0.63369 0.0
C365 C 0.40675 0.93615 0.58562 0.0
O366 O 0.42829 0.82831 0.64428 0.0
O367 O 0.37768 0.83382 0.57358 0.0
O368 O 0.36935 0.8918 0.63819 0.0
O369 O 0.45803 0.85163 0.56725 0.0
O370 O 0.45523 0.90519 0.63769 0.0
O371 O 0.40217 0.91717 0.56831 0.0
O372 O 0.47427 0.86686 0.62432 0.0
O373 O 0.42255 0.86605 0.54355 0.0
O374 O 0.4089 0.93212 0.61094 0.0
O375 O 0.4136 0.81131 0.58799 0.0
O376 O 0.41519 0.86554 0.66613 0.0
O377 O 0.35564 0.88459 0.59538 0.0
Sc378 Sc 0.35569 0.12136 0.82035 0.0
Sc379 Sc 0.3748 0.17974 0.85869 0.0
Sc380 Sc 0.31723 0.14011 0.87645 0.0
O381 O 0.34911 0.14722 0.85175 0.0
C382 C 0.2916 0.12497 0.8179 0.0
C383 C 0.37078 0.17876 0.79447 0.0
C384 C 0.31729 0.20438 0.87228 0.0
C385 C 0.4154 0.13314 0.84338 0.0
C386 C 0.33762 0.08039 0.86636 0.0
C387 C 0.3641 0.15934 0.91853 0.0
O388 O 0.31429 0.12185 0.80668 0.0
O389 O 0.37414 0.19144 0.81695 0.0
O390 O 0.3053 0.18156 0.8756 0.0
O391 O 0.39743 0.11795 0.83169 0.0
O392 O 0.32611 0.0981 0.88068 0.0
O393 O 0.37848 0.17128 0.90101 0.0
O394 O 0.34815 0.08568 0.84373 0.0
O395 O 0.41075 0.15661 0.8528 0.0
O396 O 0.34128 0.14783 0.9128 0.0
O397 O 0.36471 0.15359 0.79284 0.0
O398 O 0.28945 0.13096 0.84294 0.0
O399 O 0.34219 0.20678 0.86624 0.0
Sc400 Sc 0.64279 0.37644 0.92732 0.0
Sc401 Sc 0.58351 0.35857 0.89049 0.0
Sc402 Sc 0.62285 0.41611 0.87256 0.0
O403 O 0.61625 0.3839 0.8969 0.0
C404 C 0.64029 0.44031 0.93113 0.0
C405 C 0.58527 0.36339 0.95429 0.0
C406 C 0.55907 0.41653 0.87763 0.0
C407 C 0.62961 0.31715 0.90494 0.0
C408 C 0.68234 0.39436 0.88004 0.0
C409 C 0.60364 0.36881 0.83094 0.0
O410 O 0.64294 0.41734 0.94176 0.0
O411 O 0.57188 0.36117 0.93211 0.0
O412 O 0.58186 0.42895 0.87565 0.0
O413 O 0.64572 0.33509 0.91525 0.0
O414 O 0.66428 0.40616 0.86646 0.0
O415 O 0.59317 0.35378 0.84878 0.0
O416 O 0.67785 0.384 0.90293 0.0
O417 O 0.6056 0.32206 0.89731 0.0
O418 O 0.61314 0.39265 0.83596 0.0
O419 O 0.61086 0.36744 0.95535 0.0
O420 O 0.63403 0.44319 0.90624 0.0
O421 O 0.55682 0.39124 0.88183 0.0
Sc422 Sc 0.90336 0.34268 0.16058 0.0
Sc423 Sc 0.8652 0.38875 0.19885 0.0
Sc424 Sc 0.85558 0.38255 0.12829 0.0
O425 O 0.8747 0.37127 0.16267 0.0
C426 C 0.91501 0.37526 0.10652 0.0
C427 C 0.92987 0.38757 0.20107 0.0
C428 C 0.86365 0.43911 0.15917 0.0
C429 C 0.87604 0.32836 0.21684 0.0
C430 C 0.85676 0.31827 0.12106 0.0
C431 C 0.80734 0.3801 0.1708 0.0
O432 O 0.9216 0.35889 0.12483 0.0
O433 O 0.90727 0.39681 0.2083 0.0
O434 O 0.86159 0.42471 0.13769 0.0
O435 O 0.88959 0.32256 0.19607 0.0
O436 O 0.84776 0.34138 0.11557 0.0
O437 O 0.82221 0.3821 0.19207 0.0
O438 O 0.87683 0.31512 0.13713 0.0
O439 O 0.86586 0.35136 0.22068 0.0
O440 O 0.81679 0.38092 0.14707 0.0
O441 O 0.93186 0.36801 0.18411 0.0
O442 O 0.89191 0.38567 0.10535 0.0
O443 O 0.8638 0.42911 0.18269 0.0
Sc444 Sc 0.84637 0.62293 0.32443 0.0
Sc445 Sc 0.87175 0.68299 0.35587 0.0
Sc446 Sc 0.80985 0.65354 0.37686 0.0
O447 O 0.84252 0.65327 0.35229 0.0
C448 C 0.78364 0.63506 0.31955 0.0
C449 C 0.86749 0.67474 0.29211 0.0
C450 C 0.81818 0.71638 0.36538 0.0
C451 C 0.90669 0.63028 0.34723 0.0
C452 C 0.82346 0.59102 0.375 0.0
C453 C 0.85855 0.67125 0.41743 0.0
O454 O 0.80575 0.62717 0.30982 0.0
O455 O 0.87219 0.68959 0.31303 0.0
O456 O 0.80313 0.69594 0.37096 0.0
O457 O 0.88737 0.61586 0.33676 0.0
O458 O 0.81385 0.61171 0.38645 0.0
O459 O 0.87425 0.67915 0.39887 0.0
O460 O 0.8345 0.59165 0.35201 0.0
O461 O 0.90429 0.65506 0.35373 0.0
O462 O 0.83446 0.66233 0.41273 0.0
O463 O 0.85911 0.65023 0.29334 0.0
O464 O 0.78158 0.64415 0.34369 0.0
O465 O 0.84305 0.71453 0.35966 0.0
Sc466 Sc 0.91405 0.84634 0.88379 0.0
Sc467 Sc 0.86597 0.88054 0.92166 0.0
Sc468 Sc 0.88129 0.90148 0.85587 0.0
O469 O 0.8871 0.87619 0.88714 0.0
C470 C 0.94443 0.89492 0.85319 0.0
C471 C 0.92557 0.86758 0.9436 0.0
C472 C 0.87753 0.94185 0.90699 0.0
C473 C 0.86693 0.8168 0.91687 0.0
C474 C 0.88659 0.84392 0.82585 0.0
C475 C 0.82119 0.8913 0.8758 0.0
O476 O 0.94295 0.87118 0.86261 0.0
O477 O 0.90122 0.87448 0.94706 0.0
O478 O 0.87902 0.93696 0.88171 0.0
O479 O 0.88923 0.81701 0.90445 0.0
O480 O 0.88239 0.86919 0.82603 0.0
O481 O 0.82838 0.88717 0.9002 0.0
O482 O 0.89599 0.83177 0.84626 0.0
O483 O 0.8546 0.83824 0.92271 0.0
O484 O 0.83804 0.8952 0.85698 0.0
O485 O 0.93406 0.85869 0.92107 0.0
O486 O 0.92411 0.91004 0.85171 0.0
O487 O 0.87481 0.92329 0.92429 0.0
Sc488 Sc 0.84711 0.16217 0.6435 0.0
Sc489 Sc 0.91528 0.175 0.66279 0.0
Sc490 Sc 0.87915 0.11954 0.68954 0.0
O491 O 0.88046 0.15235 0.66536 0.0
C492 C 0.81964 0.14281 0.69721 0.0
C493 C 0.87159 0.2208 0.66065 0.0
C494 C 0.91007 0.16426 0.72626 0.0
C495 C 0.89469 0.17075 0.60142 0.0
C496 C 0.84748 0.0976 0.63708 0.0
C497 C 0.93909 0.11632 0.66672 0.0
O498 O 0.82038 0.15869 0.67728 0.0
O499 O 0.89524 0.21271 0.66562 0.0
O500 O 0.89444 0.14335 0.72377 0.0
O501 O 0.87005 0.16578 0.6071 0.0
O502 O 0.86368 0.09381 0.65686 0.0
O503 O 0.9402 0.14056 0.65883 0.0
O504 O 0.83852 0.12071 0.6314 0.0
O505 O 0.91316 0.17522 0.61934 0.0
O506 O 0.919 0.1065 0.67934 0.0
O507 O 0.85223 0.2049 0.65259 0.0
O508 O 0.83882 0.12719 0.70287 0.0
O509 O 0.92 0.17662 0.70613 0.0
Sc510 Sc 0.6548 0.10097 0.34428 0.0
Sc511 Sc 0.69432 0.12806 0.39876 0.0
Sc512 Sc 0.63339 0.15807 0.37981 0.0
O513 O 0.66099 0.12917 0.37417 0.0
C514 C 0.63537 0.15533 0.31623 0.0
C515 C 0.718 0.11354 0.34049 0.0
C516 C 0.68935 0.19105 0.39322 0.0
C517 C 0.67719 0.06571 0.39259 0.0
C518 C 0.59522 0.10624 0.36501 0.0
C519 C 0.64711 0.14166 0.43989 0.0
O520 O 0.64114 0.13041 0.31582 0.0
O521 O 0.72102 0.12024 0.36538 0.0
O522 O 0.66384 0.18938 0.38912 0.0
O523 O 0.66641 0.06797 0.36927 0.0
O524 O 0.59879 0.13097 0.37207 0.0
O525 O 0.67156 0.13602 0.43504 0.0
O526 O 0.61417 0.09196 0.35622 0.0
O527 O 0.6876 0.08574 0.40595 0.0
O528 O 0.63022 0.14835 0.42172 0.0
O529 O 0.69507 0.10712 0.32977 0.0
O530 O 0.6342 0.16937 0.338 0.0
O531 O 0.70387 0.17037 0.39472 0.0
Sc532 Sc 0.60221 0.87573 0.06189 0.0
Sc533 Sc 0.55037 0.83762 0.09244 0.0
Sc534 Sc 0.58053 0.89389 0.12648 0.0
O535 O 0.57755 0.86918 0.0935 0.0
C536 C 0.64193 0.88816 0.11287 0.0
C537 C 0.60289 0.8122 0.06655 0.0
C538 C 0.57132 0.83586 0.15291 0.0
C539 C 0.54632 0.85706 0.03219 0.0
C540 C 0.59008 0.93556 0.07811 0.0
C541 C 0.51732 0.88501 0.12041 0.0
O542 O 0.63705 0.88593 0.08754 0.0
O543 O 0.57871 0.81013 0.07495 0.0
O544 O 0.57535 0.86137 0.15474 0.0
O545 O 0.57081 0.86585 0.03206 0.0
O546 O 0.58725 0.92981 0.10293 0.0
O547 O 0.51891 0.8611 0.11063 0.0
O548 O 0.59218 0.91754 0.05965 0.0
O549 O 0.53497 0.84832 0.05335 0.0
O550 O 0.53793 0.90055 0.1251 0.0
O551 O 0.61477 0.83481 0.0622 0.0
O552 O 0.62331 0.88888 0.13026 0.0
O553 O 0.56385 0.82379 0.13105 0.0
Sc554 Sc 0.31268 0.64918 0.12558 0.0
Sc555 Sc 0.37961 0.67374 0.13763 0.0
Sc556 Sc 0.3574 0.61256 0.16632 0.0
O557 O 0.34982 0.64527 0.14334 0.0
C558 C 0.29769 0.62838 0.1841 0.0
C559 C 0.3284 0.71112 0.13984 0.0
C560 C 0.38811 0.66053 0.19998 0.0
C561 C 0.35303 0.66497 0.07848 0.0
C562 C 0.32061 0.5854 0.11936 0.0
C563 C 0.41272 0.61937 0.1348 0.0
O564 O 0.29213 0.64167 0.16298 0.0
O565 O 0.35352 0.70723 0.1429 0.0
O566 O 0.37732 0.63688 0.19768 0.0
O567 O 0.33016 0.6562 0.08665 0.0
O568 O 0.33887 0.58423 0.13763 0.0
O569 O 0.40988 0.64439 0.13073 0.0
O570 O 0.30896 0.60717 0.11372 0.0
O571 O 0.37232 0.67267 0.09452 0.0
O572 O 0.39535 0.60498 0.14722 0.0
O573 O 0.31134 0.69208 0.13383 0.0
O574 O 0.32003 0.61663 0.18761 0.0
O575 O 0.38984 0.6767 0.18027 0.0
Sc576 Sc 0.14014 0.58201 0.82504 0.0
Sc577 Sc 0.16627 0.60775 0.88716 0.0
Sc578 Sc 0.10599 0.63317 0.86022 0.0
O579 O 0.13744 0.6077 0.85746 0.0
C580 C 0.11861 0.63417 0.79667 0.0
C581 C 0.20202 0.59992 0.8348 0.0
C582 C 0.15714 0.67058 0.87821 0.0
C583 C 0.15526 0.54489 0.87487 0.0
C584 C 0.0768 0.5789 0.83802 0.0
C585 C 0.11422 0.61821 0.92237 0.0
O586 O 0.13241 0.61294 0.79624 0.0
O587 O 0.19896 0.60623 0.85948 0.0
O588 O 0.1331 0.66769 0.86855 0.0
O589 O 0.14729 0.54799 0.85055 0.0
O590 O 0.07647 0.60064 0.85222 0.0
O591 O 0.13805 0.61001 0.91942 0.0
O592 O 0.0979 0.5708 0.82636 0.0
O593 O 0.16315 0.56454 0.89032 0.0
O594 O 0.10024 0.62718 0.90288 0.0
O595 O 0.18271 0.5906 0.81974 0.0
O596 O 0.10738 0.64293 0.81794 0.0
O597 O 0.17111 0.65092 0.88608 0.0
Sc598 Sc 0.16455 0.36218 0.5877 0.0
Sc599 Sc 0.10922 0.32636 0.61572 0.0
Sc600 Sc 0.12631 0.39226 0.63927 0.0
O601 O 0.13335 0.36032 0.61419 0.0
C602 C 0.19093 0.3897 0.6412 0.0
C603 C 0.16702 0.30113 0.60768 0.0
C604 C 0.11458 0.34258 0.67818 0.0
C605 C 0.11753 0.33314 0.55209 0.0
C606 C 0.14361 0.42271 0.58566 0.0
C607 C 0.06619 0.37275 0.62195 0.0
O608 O 0.19262 0.37724 0.61857 0.0
O609 O 0.14275 0.29991 0.61566 0.0
O610 O 0.12013 0.36736 0.67387 0.0
O611 O 0.13954 0.34716 0.55413 0.0
O612 O 0.13164 0.42147 0.60815 0.0
O613 O 0.0727 0.34867 0.6163 0.0
O614 O 0.1561 0.4029 0.57559 0.0
O615 O 0.10485 0.3242 0.57242 0.0
O616 O 0.08337 0.391 0.63006 0.0
O617 O 0.1774 0.32199 0.59671 0.0
O618 O 0.16847 0.39654 0.65113 0.0
O619 O 0.11064 0.32513 0.65922 0.0
Sc620 Sc 0.6422 0.66584 0.66306 0.0
Sc621 Sc 0.66742 0.6032 0.68217 0.0
Sc622 Sc 0.70348 0.64349 0.6363 0.0
O623 O 0.67113 0.63762 0.66065 0.0
C624 C 0.65492 0.66535 0.60009 0.0
C625 C 0.60726 0.61036 0.66098 0.0
C626 C 0.69003 0.58104 0.62606 0.0
C627 C 0.64537 0.64714 0.72406 0.0
C628 C 0.69666 0.70243 0.66156 0.0
C629 C 0.73037 0.61694 0.68843 0.0
O630 O 0.63923 0.66907 0.61983 0.0
O631 O 0.62669 0.59563 0.66795 0.0
O632 O 0.69906 0.60384 0.61818 0.0
O633 O 0.64166 0.66521 0.70652 0.0
O634 O 0.71104 0.68399 0.65156 0.0
O635 O 0.70822 0.60748 0.6977 0.0
O636 O 0.67154 0.69891 0.66612 0.0
O637 O 0.65378 0.62379 0.71802 0.0
O638 O 0.73179 0.62947 0.66621 0.0
O639 O 0.6094 0.63602 0.65992 0.0
O640 O 0.67895 0.65728 0.60313 0.0
O641 O 0.67955 0.57775 0.64909 0.0
Sc642 Sc 0.3772 0.39654 0.41603 0.0
Sc643 Sc 0.38498 0.41763 0.34915 0.0
Sc644 Sc 0.42633 0.36716 0.37542 0.0
O645 O 0.39625 0.39383 0.38018 0.0
C646 C 0.43814 0.38677 0.43579 0.0
C647 C 0.3832 0.45802 0.40066 0.0
C648 C 0.44912 0.41929 0.3447 0.0
C649 C 0.32796 0.40395 0.3742 0.0
C650 C 0.38161 0.33316 0.40762 0.0
C651 C 0.39523 0.36163 0.31858 0.0
O652 O 0.41362 0.39244 0.43979 0.0
O653 O 0.38219 0.45281 0.37533 0.0
O654 O 0.45219 0.39637 0.35549 0.0
O655 O 0.33789 0.40112 0.39779 0.0
O656 O 0.4036 0.33499 0.39461 0.0
O657 O 0.38619 0.38542 0.31914 0.0
O658 O 0.3689 0.35366 0.4158 0.0
O659 O 0.34255 0.40792 0.35363 0.0
O660 O 0.4093 0.35212 0.3377 0.0
O661 O 0.38365 0.43966 0.41837 0.0
O662 O 0.44648 0.37888 0.41289 0.0
O663 O 0.42615 0.42984 0.34176 0.0
H664 H 0.03003 0.11979 0.3316 0.0
H665 H 0.10267 0.1655 0.35595 0.0
H666 H 0.05335 0.1017 0.29246 0.0
H667 H 0.12588 0.14761 0.31646 0.0
H668 H 0.11995 0.15645 0.21983 0.0
H669 H 0.11054 0.16178 0.26782 0.0
H670 H 0.09478 0.07562 0.27323 0.0
H671 H 0.10474 0.07013 0.22501 0.0
C672 C 0.05122 0.12531 0.329 0.0
C673 C 0.06443 0.1444 0.34643 0.0
C674 C 0.06461 0.1148 0.30674 0.0
C675 C 0.09126 0.12356 0.30141 0.0
C676 C 0.10526 0.14071 0.32019 0.0
C677 C 0.09199 0.15088 0.34275 0.0
C678 C 0.11491 0.13859 0.23135 0.0
C679 C 0.11268 0.11295 0.21872 0.0
C680 C 0.10988 0.14159 0.25886 0.0
C681 C 0.10208 0.11906 0.27414 0.0
C682 C 0.10091 0.09323 0.26181 0.0
C683 C 0.10651 0.09014 0.23432 0.0
H684 H 0.95835 0.7882 0.53093 0.0
H685 H 0.01031 0.82141 0.59528 0.0
H686 H 0.97751 0.82064 0.49989 0.0
H687 H 0.02872 0.85501 0.56444 0.0
H688 H 0.08412 0.87344 0.49135 0.0
H689 H 0.05914 0.85398 0.52854 0.0
H690 H 0.98387 0.86475 0.48454 0.0
H691 H 0.00919 0.88289 0.44668 0.0
C692 C 0.9734 0.80293 0.53862 0.0
C693 C 0.98314 0.80197 0.56541 0.0
C694 C 0.98428 0.82179 0.52084 0.0
C695 C 0.0049 0.84043 0.52953 0.0
C696 C 0.01332 0.8406 0.55688 0.0
C697 C 0.00268 0.82144 0.5746 0.0
C698 C 0.06219 0.87222 0.48989 0.0
C699 C 0.04862 0.87918 0.46595 0.0
C700 C 0.04778 0.86116 0.51132 0.0
C701 C 0.01944 0.85726 0.5094 0.0
C702 C 0.00573 0.86667 0.48639 0.0
C703 C 0.0202 0.87725 0.46477 0.0
H704 H 0.43598 0.7147 0.77912 0.0
H705 H 0.39049 0.7726 0.82489 0.0
H706 H 0.43121 0.74181 0.73908 0.0
H707 H 0.38488 0.79944 0.78431 0.0
H708 H 0.40777 0.78632 0.66597 0.0
H709 H 0.40172 0.75798 0.7052 0.0
H710 H 0.41391 0.82829 0.75786 0.0
H711 H 0.41889 0.85689 0.71835 0.0
C712 C 0.42439 0.73291 0.78049 0.0
C713 C 0.41386 0.74164 0.80526 0.0
C714 C 0.42152 0.74844 0.75743 0.0
C715 C 0.40781 0.77294 0.75852 0.0
C716 C 0.39597 0.78092 0.78294 0.0
C717 C 0.39899 0.76542 0.80612 0.0
C718 C 0.409 0.79576 0.68593 0.0
C719 C 0.41424 0.82376 0.68915 0.0
C720 C 0.40556 0.77951 0.70842 0.0
C721 C 0.40768 0.79078 0.73469 0.0
C722 C 0.41187 0.81898 0.7379 0.0
C723 C 0.41494 0.83535 0.7153 0.0
H724 H 0.46425 0.16707 0.06434 0.0
H725 H 0.38352 0.184 0.09093 0.0
H726 H 0.44612 0.15372 0.0198 0.0
H727 H 0.36544 0.17141 0.04605 0.0
H728 H 0.41215 0.1809 0.93823 0.0
H729 H 0.42892 0.182 0.98455 0.0
H730 H 0.3571 0.13767 0.00961 0.0
H731 H 0.33983 0.13699 0.96295 0.0
C732 C 0.44257 0.16752 0.06078 0.0
C733 C 0.42536 0.177 0.08094 0.0
C734 C 0.4322 0.16002 0.03523 0.0
C735 C 0.40444 0.16214 0.02921 0.0
C736 C 0.38691 0.16952 0.05005 0.0
C737 C 0.39729 0.17679 0.07576 0.0
C738 C 0.39988 0.17123 0.95349 0.0
C739 C 0.37453 0.15899 0.94681 0.0
C740 C 0.40968 0.17163 0.98009 0.0
C741 C 0.39445 0.15971 0.00076 0.0
C742 C 0.36923 0.14714 0.99413 0.0
C743 C 0.35938 0.14672 0.9674 0.0
H744 H 0.10173 0.81676 0.152 0.0
H745 H 0.06506 0.75364 0.19996 0.0
H746 H 0.11313 0.84288 0.19335 0.0
H747 H 0.07564 0.77983 0.24083 0.0
H748 H 0.10673 0.82378 0.31325 0.0
H749 H 0.10959 0.79779 0.27122 0.0
H750 H 0.08741 0.86814 0.22611 0.0
H751 H 0.08561 0.89449 0.26833 0.0
C752 C 0.09652 0.80825 0.17135 0.0
C753 C 0.08228 0.78324 0.1727 0.0
C754 C 0.10284 0.82332 0.195 0.0
C755 C 0.09512 0.81358 0.22039 0.0
C756 C 0.08223 0.78787 0.22171 0.0
C757 C 0.07596 0.77288 0.19818 0.0
C758 C 0.10276 0.83379 0.29432 0.0
C759 C 0.09545 0.86103 0.29406 0.0
C760 C 0.10436 0.81888 0.27024 0.0
C761 C 0.09827 0.83072 0.24532 0.0
C762 C 0.09243 0.85842 0.24493 0.0
C763 C 0.0912 0.8735 0.2691 0.0
H764 H 0.55298 0.78013 0.44554 0.0
H765 H 0.51193 0.82594 0.38445 0.0
H766 H 0.53207 0.80654 0.48073 0.0
H767 H 0.49105 0.85297 0.42009 0.0
H768 H 0.42897 0.85392 0.49281 0.0
H769 H 0.45579 0.8423 0.4535 0.0
H770 H 0.52896 0.85043 0.50256 0.0
H771 H 0.50213 0.86123 0.54196 0.0
C772 C 0.53983 0.79623 0.43963 0.0
C773 C 0.53386 0.80078 0.41225 0.0
C774 C 0.52803 0.81159 0.45984 0.0
C775 C 0.50988 0.83189 0.45321 0.0
C776 C 0.50482 0.83734 0.42578 0.0
C777 C 0.51686 0.82199 0.40542 0.0
C778 C 0.45083 0.85384 0.49503 0.0
C779 C 0.46342 0.85783 0.52057 0.0
C780 C 0.46622 0.84733 0.47247 0.0
C781 C 0.49445 0.84496 0.47507 0.0
C782 C 0.50718 0.85148 0.50009 0.0
C783 C 0.49181 0.85768 0.52264 0.0
H784 H 0.4593 0.20372 0.65361 0.0
H785 H 0.43628 0.28576 0.67123 0.0
H786 H 0.42756 0.18706 0.68688 0.0
H787 H 0.40392 0.26894 0.70421 0.0
H788 H 0.36374 0.15996 0.74223 0.0
H789 H 0.38147 0.18044 0.70143 0.0
H790 H 0.4104 0.25021 0.74868 0.0
H791 H 0.39217 0.23015 0.78927 0.0
C792 C 0.44701 0.21817 0.66414 0.0
C793 C 0.45066 0.2461 0.66011 0.0
C794 C 0.42861 0.20858 0.68311 0.0
C795 C 0.41336 0.2267 0.69841 0.0
C796 C 0.41569 0.25451 0.69306 0.0
C797 C 0.43415 0.26412 0.67407 0.0
C798 C 0.3734 0.17992 0.74385 0.0
C799 C 0.37697 0.19318 0.76915 0.0
C800 C 0.38364 0.1916 0.72046 0.0
C801 C 0.39772 0.21675 0.72185 0.0
C802 C 0.39951 0.23089 0.7468 0.0
C803 C 0.38918 0.21927 0.77018 0.0
H804 H 0.02795 0.25854 0.97579 0.0
H805 H 0.07019 0.21591 0.91291 0.0
H806 H 0.04488 0.22742 0.00908 0.0
H807 H 0.08702 0.18446 0.94649 0.0
H808 H 0.13799 0.16255 0.02442 0.0
H809 H 0.11902 0.18698 0.9865 0.0
H810 H 0.03943 0.17907 0.02093 0.0
H811 H 0.05824 0.15497 0.059 0.0
C812 C 0.04079 0.24247 0.96904 0.0
C813 C 0.04779 0.23972 0.94173 0.0
C814 C 0.05028 0.22449 0.9881 0.0
C815 C 0.06706 0.2034 0.9803 0.0
C816 C 0.07415 0.2006 0.95301 0.0
C817 C 0.0645 0.21856 0.93384 0.0
C818 C 0.11637 0.16562 0.02373 0.0
C819 C 0.09972 0.15721 0.04502 0.0
C820 C 0.10551 0.17951 0.00192 0.0
C821 C 0.07785 0.18524 0.00104 0.0
C822 C 0.06094 0.17536 0.02141 0.0
C823 C 0.07174 0.16147 0.04317 0.0
H824 H 0.31436 0.09846 0.28057 0.0
H825 H 0.35702 0.07336 0.20913 0.0
H826 H 0.27812 0.11524 0.25197 0.0
H827 H 0.32058 0.08966 0.18071 0.0
H828 H 0.20567 0.08137 0.19873 0.0
H829 H 0.2463 0.08349 0.22691 0.0
H830 H 0.28966 0.12505 0.16395 0.0
H831 H 0.24869 0.12283 0.1353 0.0
C832 C 0.31646 0.0973 0.2588 0.0
C833 C 0.33807 0.08377 0.24711 0.0
C834 C 0.29564 0.10679 0.24244 0.0
C835 C 0.2962 0.10297 0.2142 0.0
C836 C 0.31952 0.09273 0.20242 0.0
C837 C 0.34034 0.08324 0.21876 0.0
C838 C 0.22378 0.09102 0.19079 0.0
C839 C 0.22399 0.10163 0.16461 0.0
C840 C 0.24699 0.09264 0.20716 0.0
C841 C 0.27105 0.10478 0.19776 0.0
C842 C 0.27132 0.11569 0.1717 0.0
C843 C 0.24792 0.11429 0.15532 0.0
H844 H 0.18264 0.12556 0.44539 0.0
H845 H 0.2116 0.06172 0.49591 0.0
H846 H 0.14458 0.09585 0.42988 0.0
H847 H 0.17412 0.03231 0.48043 0.0
H848 H 0.10263 0.98426 0.46091 0.0
H849 H 0.12489 0.02473 0.4808 0.0
H850 H 0.14149 0.05421 0.40083 0.0
H851 H 0.11873 0.0141 0.38089 0.0
C852 C 0.18072 0.10535 0.45339 0.0
C853 C 0.20026 0.09586 0.47164 0.0
C854 C 0.15897 0.08838 0.44452 0.0
C855 C 0.15622 0.06182 0.45406 0.0
C856 C 0.17528 0.05282 0.47305 0.0
C857 C 0.19703 0.06959 0.48168 0.0
C858 C 0.11019 -0.0002 0.44755 0.0
C859 C 0.10956 -0.00439 0.41933 0.0
C860 C 0.12305 0.02292 0.45896 0.0
C861 C 0.13566 0.04221 0.44238 0.0
C862 C 0.13207 0.03967 0.41416 0.0
C863 C 0.11902 0.01659 0.40272 0.0
H864 H 0.18564 0.93622 0.63788 0.0
H865 H 0.2007 0.8908 0.71024 0.0
H866 H 0.22893 0.9227 0.62006 0.0
H867 H 0.2437 0.87669 0.69207 0.0
H868 H 0.33245 0.89694 0.67153 0.0
H869 H 0.2861 0.90125 0.68591 0.0
H870 H 0.25753 0.88693 0.60361 0.0
H871 H 0.30427 0.88314 0.58893 0.0
C872 C 0.19788 0.92282 0.64972 0.0
C873 C 0.18993 0.91494 0.67569 0.0
C874 C 0.22268 0.91496 0.63942 0.0
C875 C 0.23997 0.89896 0.65483 0.0
C876 C 0.23111 0.88954 0.67997 0.0
C877 C 0.20638 0.89749 0.69031 0.0
C878 C 0.31637 0.89456 0.65643 0.0
C879 C 0.32219 0.8899 0.629 0.0
C880 C 0.28969 0.89677 0.66475 0.0
C881 C 0.26806 0.89432 0.64593 0.0
C882 C 0.27376 0.88914 0.61857 0.0
C883 C 0.30055 0.88692 0.61019 0.0
H884 H 0.34056 0.93745 0.96551 0.0
H885 H 0.31545 0.90913 0.88541 0.0
H886 H 0.35283 0.98157 0.94737 0.0
H887 H 0.32724 0.9534 0.86744 0.0
H888 H 0.32023 0.06169 0.91499 0.0
H889 H 0.32178 0.0159 0.93171 0.0
H890 H 0.3607 0.99 0.85843 0.0
H891 H 0.35883 0.03595 0.84133 0.0
C892 C 0.33827 0.94041 0.94393 0.0
C893 C 0.32648 0.91998 0.92699 0.0
C894 C 0.34513 0.96575 0.93359 0.0
C895 C 0.34033 0.97114 0.90613 0.0
C896 C 0.33113 0.94989 0.88871 0.0
C897 C 0.32433 0.92449 0.89904 0.0
C898 C 0.32923 0.04634 0.90241 0.0
C899 C 0.33919 0.05252 0.8767 0.0
C900 C 0.33041 0.0201 0.91216 0.0
C901 C 0.34158 -0.00063 0.89647 0.0
C902 C 0.3519 0.00555 0.87092 0.0
C903 C 0.3508 0.03188 0.86116 0.0
H904 H 0.33474 0.94418 0.34637 0.0
H905 H 0.29639 0.00328 0.29624 0.0
H906 H 0.29009 0.92812 0.36128 0.0
H907 H 0.25227 0.9876 0.31135 0.0
H908 H 0.17748 0.93476 0.31786 0.0
H909 H 0.2233 0.947 0.30456 0.0
H910 H 0.25063 0.94317 0.38787 0.0
H911 H 0.2047 0.9304 0.40131 0.0
C912 C 0.31686 0.95385 0.33871 0.0
C913 C 0.31909 0.97483 0.31997 0.0
C914 C 0.29135 0.94471 0.34728 0.0
C915 C 0.2677 0.95637 0.33718 0.0
C916 C 0.27008 0.97779 0.31901 0.0
C917 C 0.29543 0.98688 0.31049 0.0
C918 C 0.19321 0.93634 0.33339 0.0
C919 C 0.1873 0.93188 0.36071 0.0
C920 C 0.21948 0.94347 0.32576 0.0
C921 C 0.24046 0.94641 0.34524 0.0
C922 C 0.23487 0.94096 0.37241 0.0
C923 C 0.20853 0.93376 0.38008 0.0
H924 H 0.33269 0.05407 0.49864 0.0
H925 H 0.37105 0.10564 0.56061 0.0
H926 H 0.36046 0.01701 0.51231 0.0
H927 H 0.39948 0.06836 0.57408 0.0
H928 H 0.39873 0.9824 0.6152 0.0
H929 H 0.3882 0.02654 0.59756 0.0
H930 H 0.4046 -0.00212 0.51652 0.0
H931 H 0.41437 0.95343 0.53407 0.0
C932 C 0.34749 0.05765 0.51485 0.0
C933 C 0.34935 0.08261 0.52887 0.0
C934 C 0.36367 0.03645 0.52252 0.0
C935 C 0.38212 0.03969 0.5444 0.0
C936 C 0.38523 0.06519 0.55733 0.0
C937 C 0.36903 0.08653 0.54956 0.0
C938 C 0.40076 0.9857 0.59371 0.0
C939 C 0.40667 0.96425 0.57594 0.0
C940 C 0.39489 0.01109 0.58359 0.0
C941 C 0.39505 0.01553 0.55556 0.0
C942 C 0.40367 -0.00515 0.53815 0.0
C943 C 0.40929 0.96942 0.54821 0.0
H944 H 0.19818 0.02114 0.71683 0.0
H945 H 0.13356 0.06688 0.75127 0.0
H946 H 0.23142 0.05226 0.73807 0.0
H947 H 0.16717 0.09839 0.77254 0.0
H948 H 0.24 0.11524 0.83585 0.0
H949 H 0.20192 0.09494 0.80982 0.0
H950 H 0.24888 0.09942 0.73701 0.0
H951 H 0.28705 0.11931 0.76294 0.0
C952 C 0.19105 0.03802 0.72874 0.0
C953 C 0.16325 0.04145 0.73251 0.0
C954 C 0.21013 0.05603 0.74071 0.0
C955 C 0.2019 0.07787 0.75686 0.0
C956 C 0.17407 0.08168 0.76025 0.0
C957 C 0.15487 0.06371 0.74802 0.0
C958 C 0.242 0.11251 0.81419 0.0
C959 C 0.26678 0.11835 0.80158 0.0
C960 C 0.22012 0.10095 0.79926 0.0
C961 C 0.22264 0.09514 0.77148 0.0
C962 C 0.24659 0.10314 0.75851 0.0
C963 C 0.26843 0.11459 0.77339 0.0
H964 H 0.19452 0.91867 0.99191 0.0
H965 H 0.25022 0.98034 0.96306 0.0
H966 H 0.16806 0.95344 0.01367 0.0
H967 H 0.22471 0.015 0.9859 0.0
H968 H 0.17299 0.07463 0.02747 0.0
H969 H 0.18569 0.04087 0.99375 0.0
H970 H 0.17823 0.97856 0.05377 0.0
H971 H 0.16469 0.01183 0.08687 0.0
C972 C 0.20083 0.93973 0.9899 0.0
C973 C 0.22463 0.94685 0.9763 0.0
C974 C 0.1858 0.95963 0.00247 0.0
C975 C 0.19467 0.98694 0.00216 0.0
C976 C 0.2172 -0.0058 0.98651 0.0
C977 C 0.23194 0.97431 0.9735 0.0
C978 C 0.17378 0.05365 0.03331 0.0
C979 C 0.16813 0.04597 0.05995 0.0
C980 C 0.18107 0.03432 0.014 0.0
C981 C 0.18303 0.007 0.02101 0.0
C982 C 0.17642 -0.00071 0.0474 0.0
C983 C 0.16892 0.01849 0.06656 0.0
H984 H 0.24281 0.30802 0.08429 0.0
H985 H 0.16796 0.34823 0.09873 0.0
H986 H 0.22847 0.27147 0.11292 0.0
H987 H 0.15414 0.31254 0.1295 0.0
H988 H 0.1202 0.22401 0.1258 0.0
H989 H 0.13655 0.27016 0.12098 0.0
H990 H 0.21596 0.24791 0.14993 0.0
H991 H 0.19972 0.20094 0.15242 0.0
C992 C 0.22366 0.3095 0.09451 0.0
C993 C 0.20612 0.33045 0.08873 0.0
C994 C 0.21542 0.28857 0.1113 0.0
C995 C 0.18967 0.28848 0.12319 0.0
C996 C 0.17362 0.3113 0.11992 0.0
C997 C 0.18156 0.33186 0.10244 0.0
C998 C 0.14094 0.22917 0.13186 0.0
C999 C 0.15893 0.20893 0.13875 0.0
C1000 C 0.15042 0.25584 0.12929 0.0
C1001 C 0.17797 0.26286 0.13419 0.0
C1002 C 0.19493 0.24311 0.14481 0.0
C1003 C 0.18564 0.21624 0.14652 0.0
H1004 H 0.67094 0.16676 0.96134 0.0
H1005 H 0.72892 0.17511 0.89727 0.0
H1006 H 0.64553 0.20373 0.94304 0.0
H1007 H 0.7032 0.21232 0.87875 0.0
H1008 H 0.68177 0.30316 0.89907 0.0
H1009 H 0.69992 0.25814 0.90037 0.0
H1010 H 0.61877 0.22343 0.90505 0.0
H1011 H 0.60042 0.26895 0.90379 0.0
C1012 C 0.67795 0.17617 0.94299 0.0
C1013 C 0.70223 0.1685 0.93104 0.0
C1014 C 0.66318 0.19714 0.93231 0.0
C1015 C 0.67251 0.21102 0.90959 0.0
C1016 C 0.69571 0.20204 0.89643 0.0
C1017 C 0.7104 0.18079 0.907 0.0
C1018 C 0.66773 0.28592 0.89998 0.0
C1019 C 0.63972 0.28953 0.90193 0.0
C1020 C 0.67812 0.26008 0.90033 0.0
C1021 C 0.66076 0.23729 0.90289 0.0
C1022 C 0.63259 0.24073 0.90318 0.0
C1023 C 0.62211 0.2667 0.90248 0.0
H1024 H 0.08518 0.47343 0.22745 0.0
H1025 H 0.04998 0.46672 0.30669 0.0
H1026 H 0.04672 0.44691 0.20789 0.0
H1027 H 0.01218 0.44004 0.2873 0.0
H1028 H 0.93349 0.42776 0.23956 0.0
H1029 H 0.97393 0.45078 0.25787 0.0
H1030 H 0.02364 0.40085 0.20758 0.0
H1031 H 0.98284 0.3778 0.18863 0.0
C1032 C 0.06941 0.46614 0.24069 0.0
C1033 C 0.07045 0.47246 0.26854 0.0
C1034 C 0.04751 0.45083 0.22953 0.0
C1035 C 0.02635 0.44166 0.24605 0.0
C1036 C 0.02793 0.44728 0.27399 0.0
C1037 C 0.04967 0.46252 0.28509 0.0
C1038 C 0.95297 0.42152 0.23235 0.0
C1039 C 0.95486 0.40082 0.21264 0.0
C1040 C 0.97619 0.43467 0.243 0.0
C1041 C 0.00194 0.42748 0.2343 0.0
C1042 C 0.004 0.40688 0.21453 0.0
C1043 C 0.98066 0.39359 0.20385 0.0
H1044 H 0.79967 0.83968 0.47425 0.0
H1045 H 0.73754 0.86468 0.41828 0.0
H1046 H 0.81384 0.80577 0.44128 0.0
H1047 H 0.75131 0.82992 0.38549 0.0
H1048 H 0.8472 0.7643 0.3686 0.0
H1049 H 0.83247 0.80659 0.38866 0.0
H1050 H 0.75099 0.7733 0.39353 0.0
H1051 H 0.7656 0.73049 0.37391 0.0
C1052 C 0.78923 0.83804 0.4548 0.0
C1053 C 0.76757 0.85471 0.44873 0.0
C1054 C 0.79741 0.8188 0.43593 0.0
C1055 C 0.78369 0.8155 0.41093 0.0
C1056 C 0.76222 0.83233 0.40463 0.0
C1057 C 0.75446 0.85214 0.4233 0.0
C1058 C 0.82595 0.76611 0.37315 0.0
C1059 C 0.80768 0.74376 0.37016 0.0
C1060 C 0.8176 0.79036 0.38465 0.0
C1061 C 0.79076 0.79291 0.39279 0.0
C1062 C 0.77181 0.77169 0.38729 0.0
C1063 C 0.78023 0.74721 0.37617 0.0
H1064 H 0.90894 0.02029 0.12537 0.0
H1065 H 0.95652 0.96206 0.16774 0.0
H1066 H 0.95001 0.03928 0.10549 0.0
H1067 H -0.00244 0.98173 0.14905 0.0
H1068 H 0.07024 0.02073 0.11482 0.0
H1069 H 0.02776 -0.00585 0.11424 0.0
H1070 H 0.98374 0.06751 0.12663 0.0
H1071 H 0.02568 0.09391 0.12618 0.0
C1072 C 0.92813 0.01126 0.13005 0.0
C1073 C 0.92964 0.99013 0.14856 0.0
C1074 C 0.95167 0.0222 0.11878 0.0
C1075 C 0.97718 0.01253 0.12623 0.0
C1076 C 0.97832 0.98969 0.14274 0.0
C1077 C 0.95474 0.97847 0.15365 0.0
C1078 C 0.05141 0.03119 0.11691 0.0
C1079 C 0.05142 0.05941 0.12107 0.0
C1080 C 0.02708 0.01594 0.11663 0.0
C1081 C 0.00232 0.0286 0.12068 0.0
C1082 C 0.0023 0.05699 0.12308 0.0
C1083 C 0.02651 0.0722 0.12314 0.0
H1084 H 0.31965 0.64799 0.54948 0.0
H1085 H 0.26197 0.70578 0.5216 0.0
H1086 H 0.34833 0.68514 0.56845 0.0
H1087 H 0.29076 0.74252 0.53938 0.0
H1088 H 0.33572 0.80494 0.58751 0.0
H1089 H 0.30737 0.76461 0.57885 0.0
H1090 H 0.37758 0.72146 0.55309 0.0
H1091 H 0.40628 0.76183 0.56325 0.0
C1092 C 0.31297 0.66855 0.54762 0.0
C1093 C 0.28853 0.67391 0.53402 0.0
C1094 C 0.32951 0.68984 0.55827 0.0
C1095 C 0.32192 0.71686 0.55545 0.0
C1096 C 0.2971 0.72201 0.54246 0.0
C1097 C 0.28058 0.70085 0.53206 0.0
C1098 C 0.34513 0.78676 0.58019 0.0
C1099 C 0.37308 0.78658 0.57556 0.0
C1100 C 0.32888 0.76365 0.57513 0.0
C1101 C 0.34005 0.73991 0.5647 0.0
C1102 C 0.3683 0.73934 0.56124 0.0
C1103 C 0.38473 0.76246 0.56686 0.0
H1104 H 0.07424 0.58765 0.35721 0.0
H1105 H 0.03119 0.51642 0.38566 0.0
H1106 H 0.03241 0.61232 0.35758 0.0
H1107 H 0.98943 0.54139 0.38658 0.0
H1108 H 0.91949 0.57761 0.33761 0.0
H1109 H 0.96164 0.55591 0.3484 0.0
H1110 H -0.00526 0.63127 0.38238 0.0
H1111 H 0.95258 0.6533 0.37117 0.0
C1112 C 0.05602 0.57747 0.36431 0.0
C1113 C 0.0559 0.54988 0.37082 0.0
C1114 C 0.03204 0.59167 0.36459 0.0
C1115 C 0.00753 0.57859 0.3715 0.0
C1116 C 0.00793 0.55178 0.38049 0.0
C1117 C 0.0319 0.53755 0.38018 0.0
C1118 C 0.9357 0.58964 0.34737 0.0
C1119 C 0.93266 0.61728 0.35332 0.0
C1120 C 0.95977 0.57708 0.35387 0.0
C1121 C 0.98142 0.59181 0.36651 0.0
C1122 C 0.97843 0.61942 0.37257 0.0
C1123 C 0.95429 0.63203 0.36609 0.0
H1124 H 0.46378 0.50951 0.77627 0.0
H1125 H 0.40013 0.47137 0.82256 0.0
H1126 H 0.49754 0.4916 0.80665 0.0
H1127 H 0.43428 0.45361 0.85346 0.0
H1128 H 0.50736 0.39591 0.86946 0.0
H1129 H 0.46911 0.41912 0.85001 0.0
H1130 H 0.51602 0.4944 0.85261 0.0
H1131 H 0.55453 0.47116 0.87152 0.0
C1132 C 0.45695 0.49751 0.79313 0.0
C1133 C 0.42926 0.49168 0.79686 0.0
C1134 C 0.47635 0.48747 0.81075 0.0
C1135 C 0.4686 0.47129 0.83257 0.0
C1136 C 0.44086 0.46591 0.83673 0.0
C1137 C 0.42134 0.47612 0.81909 0.0
C1138 C 0.50938 0.41753 0.86646 0.0
C1139 C 0.53425 0.43154 0.87151 0.0
C1140 C 0.48735 0.43087 0.8554 0.0
C1141 C 0.48972 0.45849 0.8493 0.0
C1142 C 0.5138 0.47295 0.85652 0.0
C1143 C 0.53584 0.45963 0.86746 0.0
H1144 H 0.88856 0.79197 0.65648 0.0
H1145 H 0.94458 0.74579 0.70378 0.0
H1146 H 0.86788 0.808 0.69815 0.0
H1147 H 0.92471 0.76233 0.74502 0.0
H1148 H 0.885 0.78893 0.81795 0.0
H1149 H 0.8875 0.76442 0.77489 0.0
H1150 H 0.88359 0.83997 0.73246 0.0
H1151 H 0.88007 0.86426 0.77525 0.0
C1152 C 0.89623 0.78498 0.67571 0.0
C1153 C 0.9185 0.76801 0.67688 0.0
C1154 C 0.88444 0.79421 0.69956 0.0
C1155 C 0.89476 0.78664 0.72494 0.0
C1156 C 0.91594 0.76832 0.72589 0.0
C1157 C 0.9276 0.75907 0.70217 0.0
C1158 C 0.88409 0.80022 0.79939 0.0
C1159 C 0.88298 0.82859 0.80003 0.0
C1160 C 0.88557 0.78618 0.77472 0.0
C1161 C 0.88632 0.80028 0.75027 0.0
C1162 C 0.88291 0.82841 0.75086 0.0
C1163 C 0.88112 0.84241 0.77549 0.0
H1164 H 0.90844 0.16731 0.42557 0.0
H1165 H 0.9883 0.15177 0.45748 0.0
H1166 H 0.89076 0.16747 0.47145 0.0
H1167 H 0.97059 0.15087 0.50309 0.0
H1168 H 0.9415 0.19042 0.57965 0.0
H1169 H 0.95604 0.18573 0.53316 0.0
H1170 H 0.88092 0.14262 0.512 0.0
H1171 H 0.86593 0.14807 0.5585 0.0
C1172 C 0.922 0.16313 0.44233 0.0
C1173 C 0.94975 0.15985 0.43813 0.0
C1174 C 0.91192 0.16325 0.4686 0.0
C1175 C 0.92942 0.1598 0.49094 0.0
C1176 C 0.95676 0.15444 0.48638 0.0
C1177 C 0.96686 0.15468 0.46026 0.0
C1178 C 0.92801 0.18006 0.56508 0.0
C1179 C 0.90261 0.16958 0.57277 0.0
C1180 C 0.93644 0.17714 0.53846 0.0
C1181 C 0.91981 0.16339 0.51898 0.0
C1182 C 0.89414 0.15341 0.52651 0.0
C1183 C 0.88557 0.15655 0.55314 0.0
H1184 H 0.53208 0.24895 0.2204 0.0
H1185 H 0.5539 0.18728 0.16245 0.0
H1186 H 0.56567 0.2331 0.2522 0.0
H1187 H 0.58889 0.17224 0.19369 0.0
H1188 H 0.6156 0.12884 0.27104 0.0
H1189 H 0.59152 0.14803 0.2333 0.0
H1190 H 0.61066 0.22861 0.26521 0.0
H1191 H 0.63347 0.20909 0.30403 0.0
C1192 C 0.54449 0.23229 0.21427 0.0
C1193 C 0.54018 0.21912 0.18912 0.0
C1194 C 0.56403 0.22334 0.23242 0.0
C1195 C 0.58013 0.2013 0.22564 0.0
C1196 C 0.57654 0.1889 0.19988 0.0
C1197 C 0.55656 0.19754 0.18192 0.0
C1198 C 0.61515 0.15068 0.26976 0.0
C1199 C 0.62607 0.16745 0.29074 0.0
C1200 C 0.6014 0.16177 0.24794 0.0
C1201 C 0.59867 0.18994 0.2463 0.0
C1202 C 0.61161 0.20679 0.26619 0.0
C1203 C 0.62491 0.19565 0.28834 0.0
H1204 H 0.46019 0.75221 0.93126 0.0
H1205 H 0.50029 0.79906 0.86976 0.0
H1206 H 0.47355 0.7862 0.96508 0.0
H1207 H 0.51326 0.8338 0.90387 0.0
H1208 H 0.56777 0.85457 0.98167 0.0
H1209 H 0.54569 0.83527 0.94117 0.0
H1210 H 0.46939 0.83127 0.98272 0.0
H1211 H 0.49175 0.84968 0.02365 0.0
C1212 C 0.47151 0.77004 0.92486 0.0
C1213 C 0.47954 0.77274 0.8979 0.0
C1214 C 0.47889 0.78978 0.94425 0.0
C1215 C 0.49446 0.81281 0.9372 0.0
C1216 C 0.50145 0.81617 0.90996 0.0
C1217 C 0.494 0.79631 0.89045 0.0
C1218 C 0.54613 0.85032 0.98197 0.0
C1219 C 0.53164 0.85294 0.00607 0.0
C1220 C 0.53341 0.83934 0.95864 0.0
C1221 C 0.50592 0.83108 0.95894 0.0
C1222 C 0.49079 0.83671 0.98212 0.0
C1223 C 0.50357 0.84736 0.00553 0.0
H1224 H 0.93175 0.28194 0.85451 0.0
H1225 H 0.95441 0.20768 0.89253 0.0
H1226 H 0.91448 0.25609 0.81516 0.0
H1227 H 0.93738 0.18185 0.85285 0.0
H1228 H 0.93968 0.21028 0.73898 0.0
H1229 H 0.94533 0.23264 0.78276 0.0
H1230 H 0.89798 0.16875 0.81962 0.0
H1231 H 0.89213 0.14592 0.77536 0.0
C1232 C 0.93238 0.26005 0.85477 0.0
C1233 C 0.94498 0.24687 0.8763 0.0
C1234 C 0.92261 0.24528 0.83221 0.0
C1235 C 0.92532 0.2171 0.83075 0.0
C1236 C 0.93518 0.20359 0.85346 0.0
C1237 C 0.94492 0.21841 0.87616 0.0
C1238 C 0.93048 0.20078 0.7563 0.0
C1239 C 0.91534 0.1763 0.75355 0.0
C1240 C 0.93349 0.21381 0.78138 0.0
C1241 C 0.92156 0.2027 0.80442 0.0
C1242 C 0.90716 0.17781 0.80206 0.0
C1243 C 0.90393 0.16476 0.77677 0.0
H1244 H 0.61432 0.18792 0.60716 0.0
H1245 H 0.54225 0.19424 0.55709 0.0
H1246 H 0.63562 0.16232 0.57089 0.0
H1247 H 0.5636 0.17003 0.52091 0.0
H1248 H 0.59934 0.12191 0.45844 0.0
H1249 H 0.58023 0.13021 0.50284 0.0
H1250 H 0.65442 0.17293 0.52824 0.0
H1251 H 0.67399 0.16291 0.48429 0.0
C1252 C 0.60291 0.18357 0.58859 0.0
C1253 C 0.57673 0.19341 0.58488 0.0
C1254 C 0.61516 0.16905 0.56776 0.0
C1255 C 0.60146 0.16419 0.54284 0.0
C1256 C 0.57474 0.17287 0.53986 0.0
C1257 C 0.56251 0.18711 0.56062 0.0
C1258 C 0.61173 0.13243 0.47386 0.0
C1259 C 0.63791 0.14213 0.46801 0.0
C1260 C 0.60078 0.13736 0.49922 0.0
C1261 C 0.61547 0.15292 0.51893 0.0
C1262 C 0.64251 0.16079 0.51367 0.0
C1263 C 0.65373 0.1552 0.48845 0.0
H1264 H 0.60836 0.77608 0.31368 0.0
H1265 H 0.56587 0.71002 0.27107 0.0
H1266 H 0.61035 0.80142 0.27186 0.0
H1267 H 0.56666 0.73569 0.22972 0.0
H1268 H 0.58239 0.78221 0.15437 0.0
H1269 H 0.59079 0.75505 0.19406 0.0
H1270 H 0.57888 0.82515 0.24567 0.0
H1271 H 0.57176 0.85251 0.2059 0.0
C1272 C 0.59974 0.76686 0.2953 0.0
C1273 C 0.58676 0.74119 0.29569 0.0
C1274 C 0.60063 0.78147 0.27139 0.0
C1275 C 0.58822 0.77086 0.24749 0.0
C1276 C 0.57665 0.74448 0.24762 0.0
C1277 C 0.57611 0.72974 0.27142 0.0
C1278 C 0.58161 0.7918 0.17422 0.0
C1279 C 0.5762 0.81944 0.17706 0.0
C1280 C 0.5864 0.77622 0.19699 0.0
C1281 C 0.58548 0.78784 0.22313 0.0
C1282 C 0.58031 0.81559 0.22588 0.0
C1283 C 0.57593 0.83126 0.20309 0.0
H1284 H 0.02447 0.7832 0.04518 0.0
H1285 H -0.00287 0.84217 0.10344 0.0
H1286 H 0.00691 0.80986 0.0086 0.0
H1287 H 0.97982 0.86938 0.06644 0.0
H1288 H 0.91262 0.87245 -0.00298 0.0
H1289 H 0.9409 0.86144 0.03573 0.0
H1290 H 0.00892 0.85111 0.98307 0.0
H1291 H 0.98043 0.8614 0.94413 0.0
C1292 C 0.01516 0.80218 0.05015 0.0
C1293 C 0.01176 0.81036 0.07719 0.0
C1294 C 0.00535 0.81767 0.02911 0.0
C1295 C 0.99187 0.84173 0.03461 0.0
C1296 C 0.9899 0.8508 0.06162 0.0
C1297 C -0.00012 0.83528 0.08277 0.0
C1298 C 0.93376 0.86847 0.99372 0.0
C1299 C 0.94408 0.86707 0.9674 0.0
C1300 C 0.95006 0.86234 0.016 0.0
C1301 C 0.97701 0.85491 0.01238 0.0
C1302 C 0.98803 0.85617 0.98639 0.0
C1303 C 0.9717 0.86209 0.96409 0.0
H1304 H 0.66062 0.91126 0.80263 0.0
H1305 H 0.67832 0.97657 0.86016 0.0
H1306 H 0.69989 0.88736 0.81969 0.0
H1307 H 0.7173 0.95268 0.87719 0.0
H1308 H 0.77999 0.89915 0.91117 0.0
H1309 H 0.73336 0.9104 0.90006 0.0
H1310 H 0.74983 0.9008 0.81495 0.0
H1311 H 0.79638 0.88957 0.8259 0.0
C1312 C 0.67246 0.92017 0.81936 0.0
C1313 C 0.66663 0.9459 0.82989 0.0
C1314 C 0.69497 0.90656 0.829 0.0
C1315 C 0.71168 0.91825 0.84963 0.0
C1316 C 0.70466 0.94307 0.86143 0.0
C1317 C 0.68245 0.95684 0.85155 0.0
C1318 C 0.77353 0.89888 0.8901 0.0
C1319 C 0.79201 0.89385 0.86938 0.0
C1320 C 0.74686 0.90538 0.88378 0.0
C1321 C 0.73807 0.9066 0.85667 0.0
C1322 C 0.756 0.89979 0.83604 0.0
C1323 C 0.78274 0.8936 0.84232 0.0
H1324 H 0.78457 0.99161 0.50634 0.0
H1325 H 0.79757 0.93972 0.57458 0.0
H1326 H 0.80589 0.02955 0.53183 0.0
H1327 H 0.81792 0.97763 0.6002 0.0
H1328 H 0.86908 0.04724 0.63501 0.0
H1329 H 0.85539 0.00927 0.60517 0.0
H1330 H 0.79291 0.05734 0.56956 0.0
H1331 H 0.80704 0.09544 0.59869 0.0
C1332 C 0.79218 0.98824 0.52665 0.0
C1333 C 0.78915 0.96275 0.53852 0.0
C1334 C 0.80421 0.01 0.54132 0.0
C1335 C 0.81333 0.00668 0.56816 0.0
C1336 C 0.81138 0.98086 0.57951 0.0
C1337 C 0.79952 0.95913 0.56483 0.0
C1338 C 0.85242 0.04969 0.6208 0.0
C1339 C 0.83905 0.07432 0.61936 0.0
C1340 C 0.84459 0.02793 0.60371 0.0
C1341 C 0.82309 0.03029 0.58495 0.0
C1342 C 0.80988 0.05499 0.5834 0.0
C1343 C 0.81782 0.07677 0.60033 0.0
H1344 H 0.86776 0.05731 0.28375 0.0
H1345 H 0.82751 0.08077 0.21002 0.0
H1346 H 0.83492 0.08161 0.31024 0.0
H1347 H 0.79554 0.10655 0.23633 0.0
H1348 H 0.77126 0.12636 0.35408 0.0
H1349 H 0.81102 0.11958 0.32627 0.0
H1350 H 0.75883 0.08927 0.26065 0.0
H1351 H 0.71957 0.09691 0.2877 0.0
C1352 C 0.85259 0.06872 0.27321 0.0
C1353 C 0.84979 0.06686 0.24492 0.0
C1354 C 0.83374 0.08274 0.28839 0.0
C1355 C 0.81208 0.09545 0.27544 0.0
C1356 C 0.81141 0.09621 0.24698 0.0
C1357 C 0.82984 0.08169 0.23187 0.0
C1358 C 0.76833 0.11864 0.33355 0.0
C1359 C 0.7422 0.11189 0.32327 0.0
C1360 C 0.79113 0.1147 0.31764 0.0
C1361 C 0.78824 0.10385 0.29118 0.0
C1362 C 0.76199 0.09819 0.28067 0.0
C1363 C 0.73933 0.10227 0.29641 0.0
H1364 H 0.6612 0.07925 0.0055 0.0
H1365 H 0.69911 0.06709 0.0836 0.0
H1366 H 0.62516 0.04674 0.01629 0.0
H1367 H 0.66354 0.03379 0.09408 0.0
H1368 H 0.60094 0.95591 0.02822 0.0
H1369 H 0.62384 -0.00129 0.01912 0.0
H1370 H 0.61651 0.02319 0.10302 0.0
H1371 H 0.59416 0.97983 0.11241 0.0
C1372 C 0.66177 0.06967 0.02504 0.0
C1373 C 0.68322 0.07535 0.04355 0.0
C1374 C 0.64111 0.05105 0.03121 0.0
C1375 C 0.64157 0.03744 0.05591 0.0
C1376 C 0.66234 0.04414 0.07498 0.0
C1377 C 0.68289 0.06303 0.06891 0.0
C1378 C 0.60352 0.97063 0.04465 0.0
C1379 C 0.59629 0.96409 0.07119 0.0
C1380 C 0.61661 -0.00467 0.03938 0.0
C1381 C 0.62255 0.01417 0.06049 0.0
C1382 C 0.61283 0.0088 0.08647 0.0
C1383 C 0.59979 0.98401 0.09178 0.0
H1384 H 0.66078 0.08163 0.71593 0.0
H1385 H 0.69016 0.08191 0.79878 0.0
H1386 H 0.70007 0.10929 0.70332 0.0
H1387 H 0.72895 0.11043 0.78643 0.0
H1388 H 0.81151 0.11396 0.74306 0.0
H1389 H 0.76855 0.1003 0.76216 0.0
H1390 H 0.72677 0.15088 0.70563 0.0
H1391 H 0.77003 0.164 0.68577 0.0
C1392 C 0.6753 0.08817 0.73157 0.0
C1393 C 0.6727 0.07916 0.75821 0.0
C1394 C 0.69775 0.10423 0.7244 0.0
C1395 C 0.71789 0.11182 0.74381 0.0
C1396 C 0.71415 0.10444 0.77087 0.0
C1397 C 0.69189 0.08814 0.77796 0.0
C1398 C 0.79327 0.12263 0.73496 0.0
C1399 C 0.79423 0.13967 0.71251 0.0
C1400 C 0.76853 0.11494 0.74611 0.0
C1401 C 0.74411 0.12422 0.73522 0.0
C1402 C 0.74519 0.14297 0.71415 0.0
C1403 C 0.77002 0.15065 0.70291 0.0
H1404 H 0.6839 0.89829 0.43837 0.0
H1405 H 0.66868 0.94242 0.51247 0.0
H1406 H 0.67466 0.9386 0.41239 0.0
H1407 H 0.65852 0.98244 0.48653 0.0
H1408 H 0.65145 0.01884 0.37372 0.0
H1409 H 0.646 0.97609 0.39743 0.0
H1410 H 0.69369 0.00981 0.46471 0.0
H1411 H 0.69884 0.05235 0.44149 0.0
C1412 C 0.6772 0.9162 0.44897 0.0
C1413 C 0.67738 0.91753 0.47738 0.0
C1414 C 0.67202 0.93933 0.4341 0.0
C1415 C 0.66673 0.96386 0.44755 0.0
C1416 C 0.66336 0.96399 0.47573 0.0
C1417 C 0.66886 0.94105 0.49056 0.0
C1418 C 0.66087 0.01708 0.39354 0.0
C1419 C 0.67561 0.03907 0.40571 0.0
C1420 C 0.65762 0.99263 0.40711 0.0
C1421 C 0.66892 0.9898 0.43312 0.0
C1422 C 0.68402 0.01162 0.44501 0.0
C1423 C 0.68729 0.03593 0.43151 0.0
H1424 H 0.81792 0.90892 0.13825 0.0
H1425 H 0.77785 0.96604 0.19007 0.0
H1426 H 0.7738 0.88845 0.12483 0.0
H1427 H 0.73419 0.94589 0.17653 0.0
H1428 H 0.68763 0.89181 0.08226 0.0
H1429 H 0.73365 0.90334 0.09798 0.0
H1430 H 0.70682 0.90367 0.18071 0.0
H1431 H 0.66075 0.89255 0.16516 0.0
C1432 C 0.79977 0.91699 0.14687 0.0
C1433 C 0.80134 0.93915 0.1651 0.0
C1434 C 0.77457 0.90534 0.13914 0.0
C1435 C 0.75062 0.91552 0.14974 0.0
C1436 C 0.75232 0.93732 0.16835 0.0
C1437 C 0.77737 0.94902 0.17592 0.0
C1438 C 0.69156 0.894 0.10384 0.0
C1439 C 0.67038 0.89173 0.12242 0.0
C1440 C 0.71799 0.90042 0.11282 0.0
C1441 C 0.7237 0.90469 0.14053 0.0
C1442 C 0.70285 0.90093 0.15919 0.0
C1443 C 0.67647 0.89451 0.15025 0.0
H1444 H 0.84082 0.08875 -0.002 0.0
H1445 H 0.78074 0.07255 0.93465 0.0
H1446 H 0.86987 0.05511 0.97773 0.0
H1447 H 0.80964 0.0389 0.91462 0.0
H1448 H 0.86877 0.98642 0.87629 0.0
H1449 H 0.85345 0.03017 0.89239 0.0
H1450 H 0.86405 0.00499 0.97504 0.0
H1451 H 0.8796 0.96143 0.95911 0.0
C1452 C 0.83398 0.07832 0.97954 0.0
C1453 C 0.80833 0.08301 0.96811 0.0
C1454 C 0.85061 0.05906 0.96799 0.0
C1455 C 0.84199 0.04435 0.94467 0.0
C1456 C 0.81699 0.05015 0.93242 0.0
C1457 C 0.8003 0.06924 0.94405 0.0
C1458 C 0.8686 0.99046 0.8979 0.0
C1459 C 0.87488 0.97021 0.91642 0.0
C1460 C 0.85967 0.01549 0.90708 0.0
C1461 C 0.85713 0.02079 0.93493 0.0
C1462 C 0.86586 0.00152 0.95344 0.0
C1463 C 0.87461 0.97646 0.94429 0.0
H1464 H 0.76919 0.67488 0.96064 0.0
H1465 H 0.83925 0.67732 0.01443 0.0
H1466 H 0.78857 0.71278 0.93574 0.0
H1467 H 0.85865 0.71516 0.98925 0.0
H1468 H 0.89341 0.76952 0.92292 0.0
H1469 H 0.87568 0.72726 0.94162 0.0
H1470 H 0.79739 0.76253 0.95062 0.0
H1471 H 0.81502 0.80489 0.93211 0.0
C1472 C 0.78892 0.6832 0.9669 0.0
C1473 C 0.80262 0.67326 0.98964 0.0
C1474 C 0.7999 0.70496 0.9527 0.0
C1475 C 0.82496 0.71693 0.96072 0.0
C1476 C 0.83933 0.70616 0.9826 0.0
C1477 C 0.82818 0.6846 -0.00296 0.0
C1478 C 0.87233 0.76818 0.9286 0.0
C1479 C 0.85562 0.79059 0.92614 0.0
C1480 C 0.86227 0.74405 0.93941 0.0
C1481 C 0.83523 0.74172 0.94754 0.0
C1482 C 0.81828 0.76377 0.94427 0.0
C1483 C 0.82842 0.78804 0.93384 0.0
H1484 H 0.35012 0.8463 0.05212 0.0
H1485 H 0.26373 0.85037 0.06294 0.0
H1486 H 0.35306 0.81527 0.08951 0.0
H1487 H 0.26673 0.82009 0.10119 0.0
H1488 H 0.28011 0.72887 0.12031 0.0
H1489 H 0.27272 0.77294 0.10165 0.0
H1490 H 0.34963 0.80242 0.13546 0.0
H1491 H 0.3575 0.75774 0.15344 0.0
C1492 C 0.33187 0.8412 0.06303 0.0
C1493 C 0.30662 0.85022 0.05418 0.0
C1494 C 0.33354 0.82354 0.08471 0.0
C1495 C 0.31002 0.81479 0.09819 0.0
C1496 C 0.28514 0.8259 0.09087 0.0
C1497 C 0.28343 0.84328 0.06898 0.0
C1498 C 0.29509 0.74491 0.12461 0.0
C1499 C 0.31981 0.73947 0.13758 0.0
C1500 C 0.29079 0.7704 0.11393 0.0
C1501 C 0.31099 0.79109 0.11631 0.0
C1502 C 0.33406 0.78667 0.13251 0.0
C1503 C 0.33847 0.76108 0.14299 0.0
H1504 H 0.9612 0.44817 0.79851 0.0
H1505 H 0.91161 0.5161 0.81782 0.0
H1506 H 0.00143 0.47421 0.81384 0.0
H1507 H 0.95193 0.54263 0.832 0.0
H1508 H 0.03035 0.58024 0.86792 0.0
H1509 H 0.98979 0.55082 0.8624 0.0
H1510 H 0.02626 0.5104 0.79445 0.0
H1511 H 0.06667 0.53886 0.80047 0.0
C1512 C 0.95891 0.4686 0.80627 0.0
C1513 C 0.93337 0.48022 0.80668 0.0
C1514 C 0.98195 0.48361 0.81488 0.0
C1515 C 0.97999 0.51073 0.82359 0.0
C1516 C 0.95419 0.52178 0.82555 0.0
C1517 C 0.93107 0.50659 0.81732 0.0
C1518 C 0.02963 0.56501 0.85186 0.0
C1519 C 0.05177 0.56186 0.8347 0.0
C1520 C 0.00641 0.54817 0.84869 0.0
C1521 C 0.00486 0.52801 0.82817 0.0
C1522 C 0.02697 0.52514 0.81095 0.0
C1523 C 0.05013 0.54171 0.81425 0.0
H1524 H 0.28056 0.1738 0.58069 0.0
H1525 H 0.19922 0.13902 0.57595 0.0
H1526 H 0.26369 0.21398 0.60327 0.0
H1527 H 0.18223 0.17942 0.59759 0.0
H1528 H 0.15477 0.25485 0.63522 0.0
H1529 H 0.17831 0.21229 0.63339 0.0
H1530 H 0.23898 0.24916 0.58252 0.0
H1531 H 0.216 0.29173 0.58497 0.0
C1532 C 0.25916 0.17448 0.58508 0.0
C1533 C 0.24109 0.1536 0.576 0.0
C1534 C 0.24948 0.19755 0.59787 0.0
C1535 C 0.22154 0.20026 0.60153 0.0
C1536 C 0.20389 0.17806 0.59512 0.0
C1537 C 0.21362 0.15486 0.58259 0.0
C1538 C 0.1734 0.25398 0.62401 0.0
C1539 C 0.18323 0.27656 0.60978 0.0
C1540 C 0.18687 0.22957 0.62298 0.0
C1541 C 0.21036 0.22719 0.6076 0.0
C1542 C 0.22112 0.25029 0.59486 0.0
C1543 C 0.20777 0.27472 0.59603 0.0
H1544 H 0.09054 0.98031 0.79749 0.0
H1545 H 0.07762 0.90982 0.74526 0.0
H1546 H 0.05269 0.96527 0.82527 0.0
H1547 H 0.03993 0.89478 0.77321 0.0
H1548 H 0.98882 0.86497 0.84317 0.0
H1549 H 0.03049 0.87933 0.82124 0.0
H1550 H 0.00134 0.9605 0.81566 0.0
H1551 H 0.95937 0.94624 0.83758 0.0
C1552 C 0.07993 0.96139 0.79218 0.0
C1553 C 0.08699 0.94627 0.76912 0.0
C1554 C 0.05816 0.95293 0.80799 0.0
C1555 C 0.04335 0.92898 0.80127 0.0
C1556 C 0.05113 0.91326 0.77891 0.0
C1557 C 0.07265 0.9219 0.76288 0.0
C1558 C 0.99131 0.88598 0.83757 0.0
C1559 C 0.97063 0.90444 0.84201 0.0
C1560 C 0.01517 0.89412 0.82489 0.0
C1561 C 0.01904 0.92095 0.81668 0.0
C1562 C -0.00111 0.9397 0.82197 0.0
C1563 C 0.97483 0.9315 0.83438 0.0
H1564 H 0.78966 0.32787 0.45792 0.0
H1565 H 0.71361 0.32307 0.49992 0.0
H1566 H 0.77269 0.29301 0.42564 0.0
H1567 H 0.69692 0.28824 0.468 0.0
H1568 H 0.66462 0.2397 0.39829 0.0
H1569 H 0.68337 0.28082 0.42017 0.0
H1570 H 0.76124 0.24401 0.42766 0.0
H1571 H 0.74277 0.20303 0.40541 0.0
C1572 C 0.76933 0.31944 0.46023 0.0
C1573 C 0.75302 0.32811 0.48157 0.0
C1574 C 0.75965 0.2995 0.44176 0.0
C1575 C 0.73342 0.28804 0.44417 0.0
C1576 C 0.71703 0.29704 0.46527 0.0
C1577 C 0.72673 0.31681 0.48377 0.0
C1578 C 0.68591 0.24054 0.40398 0.0
C1579 C 0.70203 0.21781 0.40055 0.0
C1580 C 0.69658 0.26407 0.41669 0.0
C1581 C 0.7236 0.2654 0.42613 0.0
C1582 C 0.74034 0.2436 0.42061 0.0
C1583 C 0.72967 0.22004 0.40793 0.0
H1584 H 0.91221 0.436 0.66639 0.0
H1585 H 0.91509 0.35192 0.68828 0.0
H1586 H 0.94899 0.42966 0.63493 0.0
H1587 H 0.95246 0.34573 0.65755 0.0
H1588 H 0.02328 0.33939 0.60578 0.0
H1589 H 0.97555 0.34572 0.61494 0.0
H1590 H -0.00456 0.42551 0.64822 0.0
H1591 H 0.04279 0.41949 0.6386 0.0
C1592 C 0.92032 0.41599 0.664 0.0
C1593 C 0.91144 0.39464 0.68037 0.0
C1594 C 0.94143 0.41239 0.64604 0.0
C1595 C 0.95428 0.38747 0.6444 0.0
C1596 C 0.94314 0.36527 0.65837 0.0
C1597 C 0.92177 0.36881 0.67613 0.0
C1598 C 0.01738 0.35855 0.61447 0.0
C1599 C 0.03699 0.37872 0.62204 0.0
C1600 C 0.99 0.36212 0.61976 0.0
C1601 C 0.98168 0.38592 0.63266 0.0
C1602 C 0.00101 0.40697 0.63803 0.0
C1603 C 0.02833 0.40344 0.63271 0.0
H1604 H 0.58023 0.5984 0.12849 0.0
H1605 H 0.54979 0.51682 0.11161 0.0
H1606 H 0.53547 0.61545 0.11945 0.0
H1607 H 0.50504 0.53399 0.10172 0.0
H1608 H 0.4521 0.64183 0.1031 0.0
H1609 H 0.4957 0.62316 0.09203 0.0
H1610 H 0.47394 0.55035 0.13483 0.0
H1611 H 0.43025 0.56863 0.14533 0.0
C1612 C 0.56425 0.58421 0.12178 0.0
C1613 C 0.56829 0.55622 0.12148 0.0
C1614 C 0.53851 0.59401 0.11651 0.0
C1615 C 0.51652 0.57596 0.11059 0.0
C1616 C 0.52144 0.54829 0.107 0.0
C1617 C 0.54709 0.53849 0.11249 0.0
C1618 C 0.45648 0.62167 0.10985 0.0
C1619 C 0.43786 0.6069 0.12554 0.0
C1620 C 0.48147 0.611 0.10346 0.0
C1621 C 0.48839 0.58536 0.11266 0.0
C1622 C 0.46916 0.57001 0.12705 0.0
C1623 C 0.44415 0.58062 0.13335 0.0
H1624 H 0.56419 0.70924 0.86689 0.0
H1625 H 0.5194 0.64141 0.82977 0.0
H1626 H 0.60356 0.69855 0.83972 0.0
H1627 H 0.55869 0.63068 0.80292 0.0
H1628 H 0.63436 0.60993 0.76301 0.0
H1629 H 0.60803 0.61705 0.80369 0.0
H1630 H 0.60765 0.70277 0.78844 0.0
H1631 H 0.6339 0.69581 0.74775 0.0
C1632 C 0.56297 0.69167 0.85345 0.0
C1633 C 0.53864 0.67633 0.85016 0.0
C1634 C 0.58547 0.68562 0.83791 0.0
C1635 C 0.58412 0.66386 0.81921 0.0
C1636 C 0.56041 0.64741 0.81738 0.0
C1637 C 0.53783 0.65368 0.83258 0.0
C1638 C 0.62939 0.63043 0.76873 0.0
C1639 C 0.63575 0.65226 0.75183 0.0
C1640 C 0.61423 0.63444 0.79198 0.0
C1641 C 0.60553 0.66037 0.79896 0.0
C1642 C 0.61417 0.68255 0.78358 0.0
C1643 C 0.62906 0.67853 0.76016 0.0
H1644 H 0.47197 0.3287 0.08513 0.0
H1645 H 0.53937 0.27517 0.08977 0.0
H1646 H 0.49573 0.35508 0.05077 0.0
H1647 H 0.5629 0.30135 0.05573 0.0
H1648 H 0.60713 0.36051 0.00538 0.0
H1649 H 0.58404 0.34686 0.04634 0.0
H1650 H 0.50768 0.34278 0.00238 0.0
H1651 H 0.53058 0.35661 0.96135 0.0
C1652 C 0.492 0.32286 0.07916 0.0
C1653 C 0.50373 0.29974 0.08987 0.0
C1654 C 0.50551 0.33788 0.05948 0.0
C1655 C 0.53111 0.33023 0.05063 0.0
C1656 C 0.54333 0.30792 0.06239 0.0
C1657 C 0.52974 0.29277 0.08171 0.0
C1658 C 0.58535 0.35718 0.00448 0.0
C1659 C 0.57079 0.35915 0.97992 0.0
C1660 C 0.57217 0.34935 0.02796 0.0
C1661 C 0.54416 0.34352 0.02742 0.0
C1662 C 0.52928 0.34731 0.0034 0.0
C1663 C 0.54247 0.355 0.97984 0.0
H1664 H 0.96001 0.2185 0.30644 0.0
H1665 H 0.90816 0.24789 0.3694 0.0
H1666 H 0.9331 0.24103 0.27279 0.0
H1667 H 0.88049 0.26999 0.33533 0.0
H1668 H 0.87331 0.33899 0.27107 0.0
H1669 H 0.88621 0.30883 0.30713 0.0
H1670 H 0.8911 0.24298 0.24881 0.0
H1671 H 0.87928 0.27352 0.21261 0.0
C1672 C 0.94255 0.22941 0.31307 0.0
C1673 C 0.93642 0.23165 0.34064 0.0
C1674 C 0.92687 0.24213 0.29368 0.0
C1675 C 0.90451 0.2573 0.3013 0.0
C1676 C 0.89773 0.25869 0.32881 0.0
C1677 C 0.91354 0.24598 0.34831 0.0
C1678 C 0.87632 0.31788 0.26608 0.0
C1679 C 0.87585 0.30872 0.23899 0.0
C1680 C 0.8837 0.30052 0.28678 0.0
C1681 C 0.89037 0.27363 0.28077 0.0
C1682 C 0.8869 0.2638 0.25401 0.0
C1683 C 0.87994 0.28122 0.23329 0.0
H1684 H 0.88602 0.69454 0.58976 0.0
H1685 H 0.96491 0.67804 0.558 0.0
H1686 H 0.86525 0.68277 0.54581 0.0
H1687 H 0.9441 0.66538 0.51438 0.0
H1688 H 0.90649 0.69406 0.43564 0.0
H1689 H 0.92515 0.69482 0.48119 0.0
H1690 H 0.85457 0.65018 0.50887 0.0
H1691 H 0.83535 0.64983 0.46288 0.0
C1692 C 0.89881 0.68753 0.57365 0.0
C1693 C 0.92712 0.6877 0.57707 0.0
C1694 C 0.8869 0.68074 0.54847 0.0
C1695 C 0.90312 0.67379 0.52647 0.0
C1696 C 0.93115 0.67142 0.53076 0.0
C1697 C 0.94306 0.67849 0.55577 0.0
C1698 C 0.89486 0.6843 0.45131 0.0
C1699 C 0.86936 0.67192 0.44555 0.0
C1700 C 0.90574 0.68449 0.47746 0.0
C1701 C 0.89154 0.67218 0.49859 0.0
C1702 C 0.86597 0.65985 0.49299 0.0
C1703 C 0.85497 0.6597 0.46668 0.0
H1704 H 0.60374 0.32778 0.65699 0.0
H1705 H 0.55823 0.26623 0.69956 0.0
H1706 H 0.61817 0.34872 0.70044 0.0
H1707 H 0.57184 0.28729 0.74233 0.0
H1708 H 0.61141 0.31656 0.81721 0.0
H1709 H 0.60955 0.2958 0.77227 0.0
H1710 H 0.5969 0.37408 0.73735 0.0
H1711 H 0.59999 0.39511 0.78265 0.0
C1712 C 0.59711 0.31855 0.67556 0.0
C1713 C 0.57978 0.29542 0.67486 0.0
C1714 C 0.60519 0.33064 0.70038 0.0
C1715 C 0.59619 0.31966 0.72482 0.0
C1716 C 0.57957 0.29604 0.72396 0.0
C1717 C 0.57156 0.28405 0.69934 0.0
C1718 C 0.60851 0.32938 0.7999 0.0
C1719 C 0.60525 0.35733 0.80335 0.0
C1720 C 0.60743 0.3175 0.77417 0.0
C1721 C 0.6025 0.3332 0.7513 0.0
C1722 C 0.60083 0.36145 0.75457 0.0
C1723 C 0.60239 0.37347 0.78046 0.0
H1724 H 0.96307 0.36889 0.94702 0.0
H1725 H 0.04128 0.36551 0.98721 0.0
H1726 H 0.94338 0.38478 0.98873 0.0
H1727 H 0.02159 0.38215 0.02904 0.0
H1728 H 0.96389 0.35232 0.09794 0.0
H1729 H 0.99183 0.35643 0.05825 0.0
H1730 H 0.93853 0.41615 0.02609 0.0
H1731 H 0.91005 0.41158 0.06563 0.0
C1732 C 0.97627 0.3724 0.96455 0.0
C1733 C 0.00354 0.36518 0.96405 0.0
C1734 C 0.965 0.38174 0.9885 0.0
C1735 C 0.98082 0.38416 0.01239 0.0
C1736 C 0.00878 0.37989 0.01108 0.0
C1737 C 0.02008 0.3705 0.98707 0.0
C1738 C 0.95833 0.3667 0.08268 0.0
C1739 C 0.93435 0.3811 0.08467 0.0
C1740 C 0.97457 0.36929 0.05999 0.0
C1741 C 0.96726 0.38645 0.03885 0.0
C1742 C 0.94444 0.40244 0.04184 0.0
C1743 C 0.92812 0.39977 0.0645 0.0
H1744 H 0.9286 0.76754 0.15595 0.0
H1745 H 0.96263 0.68803 0.15551 0.0
H1746 H 0.89563 0.75267 0.18941 0.0
H1747 H 0.93002 0.67335 0.18887 0.0
H1748 H 0.88556 0.72609 0.28053 0.0
H1749 H 0.90353 0.74181 0.23789 0.0
H1750 H 0.882 0.66447 0.20008 0.0
H1751 H 0.86427 0.64846 0.24283 0.0
C1752 C 0.92867 0.74676 0.16254 0.0
C1753 C 0.94843 0.72905 0.15347 0.0
C1754 C 0.90988 0.73831 0.18174 0.0
C1755 C 0.9104 0.71193 0.19187 0.0
C1756 C 0.92894 0.69372 0.18129 0.0
C1757 C 0.94781 0.70221 0.16235 0.0
C1758 C 0.88419 0.71255 0.26304 0.0
C1759 C 0.87403 0.6858 0.26528 0.0
C1760 C 0.89426 0.72168 0.23852 0.0
C1761 C 0.8944 0.70425 0.21575 0.0
C1762 C 0.88245 0.67819 0.21744 0.0
C1763 C 0.8723 0.66906 0.24194 0.0
H1764 H 0.54839 0.6657 0.4596 0.0
H1765 H 0.62433 0.6979 0.42965 0.0
H1766 H 0.57013 0.65736 0.50311 0.0
H1767 H 0.64592 0.69009 0.47344 0.0
H1768 H 0.67955 0.65406 0.55198 0.0
H1769 H 0.66013 0.65676 0.50642 0.0
H1770 H 0.58655 0.68745 0.53969 0.0
H1771 H 0.60559 0.68433 0.58511 0.0
C1772 C 0.56981 0.67068 0.46218 0.0
C1773 C 0.58455 0.68276 0.44129 0.0
C1774 C 0.5822 0.66611 0.48719 0.0
C1775 C 0.6096 0.6736 0.49188 0.0
C1776 C 0.62479 0.68408 0.47045 0.0
C1777 C 0.61239 0.68858 0.44536 0.0
C1778 C 0.65928 0.66154 0.54958 0.0
C1779 C 0.64412 0.66892 0.57227 0.0
C1780 C 0.64818 0.66307 0.52345 0.0
C1781 C 0.6217 0.67199 0.51947 0.0
C1782 C 0.60679 0.67989 0.54211 0.0
C1783 C 0.61783 0.67835 0.56817 0.0
H1784 H 0.88516 0.54297 0.7222 0.0
H1785 H 0.81711 0.49355 0.74849 0.0
H1786 H 0.85525 0.58109 0.71638 0.0
H1787 H 0.78749 0.53107 0.74227 0.0
H1788 H 0.73726 0.60012 0.74038 0.0
H1789 H 0.77562 0.57567 0.758 0.0
H1790 H 0.8188 0.59066 0.68416 0.0
H1791 H 0.78091 0.61581 0.66692 0.0
C1792 C 0.86392 0.5403 0.7269 0.0
C1793 C 0.85342 0.51518 0.73551 0.0
C1794 C 0.84684 0.56211 0.7236 0.0
C1795 C 0.81905 0.55917 0.72903 0.0
C1796 C 0.80888 0.53426 0.73845 0.0
C1797 C 0.82583 0.51257 0.74166 0.0
C1798 C 0.75528 0.5989 0.72826 0.0
C1799 C 0.75579 0.60925 0.70198 0.0
C1800 C 0.7772 0.58481 0.73831 0.0
C1801 C 0.79986 0.58055 0.72212 0.0
C1802 C 0.80162 0.59353 0.69712 0.0
C1803 C 0.7798 0.60789 0.68718 0.0
H1804 H 0.74539 0.56587 0.993 0.0
H1805 H 0.69135 0.55501 0.06015 0.0
H1806 H 0.71703 0.53462 0.96548 0.0
H1807 H 0.66259 0.52425 0.03234 0.0
H1808 H 0.64498 0.44285 0.98608 0.0
H1809 H 0.66573 0.47915 0.01362 0.0
H1810 H 0.67288 0.52886 0.94288 0.0
H1811 H 0.65266 0.492 0.91493 0.0
C1812 C 0.7274 0.55689 0.00186 0.0
C1813 C 0.72075 0.5627 0.02883 0.0
C1814 C 0.71095 0.53925 0.98597 0.0
C1815 C 0.68746 0.5271 -0.00333 0.0
C1816 C 0.68068 0.53312 0.02359 0.0
C1817 C 0.69719 0.5507 0.03952 0.0
C1818 C 0.65058 0.46165 0.97638 0.0
C1819 C 0.64759 0.46437 0.94821 0.0
C1820 C 0.66232 0.48257 0.99226 0.0
C1821 C 0.67129 0.50674 0.98038 0.0
C1822 C 0.66662 0.51022 0.9525 0.0
C1823 C 0.6548 0.48923 0.93655 0.0
H1824 H 0.66342 0.44824 0.13521 0.0
H1825 H 0.64001 0.41265 0.21089 0.0
H1826 H 0.70309 0.42038 0.13418 0.0
H1827 H 0.68004 0.38468 0.20991 0.0
H1828 H 0.76977 0.36566 0.1317 0.0
H1829 H 0.72146 0.37389 0.13234 0.0
H1830 H 0.72908 0.40089 0.2158 0.0
H1831 H 0.77746 0.39248 0.21535 0.0
C1832 C 0.66643 0.43393 0.15126 0.0
C1833 C 0.64889 0.43281 0.17326 0.0
C1834 C 0.68903 0.41781 0.1506 0.0
C1835 C 0.69469 0.40048 0.17207 0.0
C1836 C 0.67616 0.39799 0.1932 0.0
C1837 C 0.65325 0.41389 0.19366 0.0
C1838 C 0.76107 0.37279 0.1504 0.0
C1839 C 0.77756 0.37916 0.17328 0.0
C1840 C 0.7334 0.37741 0.15074 0.0
C1841 C 0.72168 0.38845 0.17394 0.0
C1842 C 0.73759 0.39226 0.19765 0.0
C1843 C 0.76535 0.38761 0.19734 0.0
H1844 H 0.80932 0.46926 0.49738 0.0
H1845 H 0.84824 0.42709 0.43209 0.0
H1846 H 0.80948 0.5101 0.47139 0.0
H1847 H 0.85014 0.46887 0.40639 0.0
H1848 H 0.82028 0.53886 0.35544 0.0
H1849 H 0.82292 0.49744 0.38146 0.0
H1850 H 0.83439 0.54571 0.45498 0.0
H1851 H 0.82977 0.5866 0.42919 0.0
C1852 C 0.81868 0.46894 0.4777 0.0
C1853 C 0.82885 0.44495 0.46679 0.0
C1854 C 0.81888 0.49252 0.46274 0.0
C1855 C 0.82985 0.493 0.43666 0.0
C1856 C 0.84101 0.46919 0.42615 0.0
C1857 C 0.84025 0.44532 0.44097 0.0
C1858 C 0.82307 0.54041 0.37721 0.0
C1859 C 0.8243 0.56582 0.39039 0.0
C1860 C 0.82494 0.51674 0.39213 0.0
C1861 C 0.82878 0.51807 0.42045 0.0
C1862 C 0.83066 0.54369 0.43338 0.0
C1863 C 0.82807 0.56722 0.41859 0.0
H1864 H 0.81467 0.37904 0.76909 0.0
H1865 H 0.85322 0.39912 0.84635 0.0
H1866 H 0.77148 0.37216 0.79142 0.0
H1867 H 0.80987 0.3928 0.86857 0.0
H1868 H 0.72651 0.36935 0.9015 0.0
H1869 H 0.77052 0.36363 0.88066 0.0
H1870 H 0.74321 0.40716 0.81077 0.0
H1871 H 0.69937 0.41257 0.83117 0.0
C1872 C 0.81404 0.38141 0.79091 0.0
C1873 C 0.8372 0.39018 0.8059 0.0
C1874 C 0.78928 0.37764 0.80366 0.0
C1875 C 0.78719 0.38267 0.83161 0.0
C1876 C 0.81085 0.38884 0.84698 0.0
C1877 C 0.8357 0.39249 0.83423 0.0
C1878 C 0.7299 0.3777 0.88167 0.0
C1879 C 0.70939 0.39152 0.86805 0.0
C1880 C 0.7551 0.37437 0.86977 0.0
C1881 C 0.7602 0.38465 0.84397 0.0
C1882 C 0.73971 0.39844 0.83042 0.0
C1883 C 0.71463 0.40183 0.84228 0.0
H1884 H 0.794 0.58623 0.13082 0.0
H1885 H 0.87215 0.60079 0.09482 0.0
H1886 H 0.81171 0.54792 0.15479 0.0
H1887 H 0.88999 0.56253 0.11922 0.0
H1888 H 0.88193 0.46712 0.1161 0.0
H1889 H 0.87742 0.51494 0.10754 0.0
H1890 H 0.84359 0.52647 0.18684 0.0
H1891 H 0.84806 0.4781 0.19544 0.0
C1892 C 0.8152 0.58177 0.12866 0.0
C1893 C 0.83147 0.59605 0.11033 0.0
C1894 C 0.82543 0.55991 0.14262 0.0
C1895 C 0.8521 0.55191 0.13847 0.0
C1896 C 0.8692 0.568 0.12242 0.0
C1897 C 0.85899 0.58995 0.1085 0.0
C1898 C 0.87397 0.4799 0.13193 0.0
C1899 C 0.86488 0.4688 0.15624 0.0
C1900 C 0.8717 0.50742 0.12716 0.0
C1901 C 0.86007 0.52448 0.14649 0.0
C1902 C 0.85251 0.51373 0.17154 0.0
C1903 C 0.8551 0.48611 0.17646 0.0
H1904 H 0.62464 0.59814 0.24356 0.0
H1905 H 0.6866 0.55799 0.1986 0.0
H1906 H 0.65971 0.62335 0.26989 0.0
H1907 H 0.72134 0.58243 0.22517 0.0
H1908 H 0.78127 0.63745 0.26478 0.0
H1909 H 0.74286 0.62537 0.23505 0.0
H1910 H 0.69272 0.61264 0.30484 0.0
H1911 H 0.7311 0.62579 0.33462 0.0
C1912 C 0.6457 0.59492 0.23908 0.0
C1913 C 0.65285 0.57593 0.21911 0.0
C1914 C 0.66577 0.60924 0.25427 0.0
C1915 C 0.69333 0.60488 0.24971 0.0
C1916 C 0.70034 0.58666 0.22898 0.0
C1917 C 0.68037 0.57243 0.21384 0.0
C1918 C 0.7619 0.63252 0.27375 0.0
C1919 C 0.75923 0.6321 0.30199 0.0
C1920 C 0.73992 0.62551 0.25673 0.0
C1921 C 0.71488 0.61747 0.26757 0.0
C1922 C 0.7117 0.61884 0.29582 0.0
C1923 C 0.73369 0.62626 0.3129 0.0
H1924 H 0.72614 0.4658 0.49737 0.0
H1925 H 0.73228 0.42489 0.57372 0.0
H1926 H 0.70392 0.50321 0.5199 0.0
H1927 H 0.7109 0.46238 0.59623 0.0
H1928 H 0.71732 0.57776 0.57851 0.0
H1929 H 0.72365 0.53773 0.55042 0.0
H1930 H 0.67267 0.49056 0.60333 0.0
H1931 H 0.66685 0.53053 0.63195 0.0
C1932 C 0.7222 0.46449 0.51881 0.0
C1933 C 0.73145 0.4427 0.5339 0.0
C1934 C 0.70966 0.48599 0.53174 0.0
C1935 C 0.70614 0.48599 0.55991 0.0
C1936 C 0.71319 0.46302 0.57449 0.0
C1937 C 0.72566 0.44157 0.56159 0.0
C1938 C 0.70722 0.55894 0.58405 0.0
C1939 C 0.69201 0.55724 0.60776 0.0
C1940 C 0.7106 0.53602 0.56775 0.0
C1941 C 0.69871 0.51094 0.57469 0.0
C1942 C 0.68238 0.50953 0.59766 0.0
C1943 C 0.67911 0.53243 0.61407 0.0
H1944 H 0.70064 0.84331 0.58721 0.0
H1945 H 0.78409 0.84749 0.61522 0.0
H1946 H 0.69034 0.80923 0.62046 0.0
H1947 H 0.77363 0.81332 0.64897 0.0
H1948 H 0.74862 0.71918 0.65078 0.0
H1949 H 0.7634 0.76493 0.64031 0.0
H1950 H 0.68702 0.7948 0.66752 0.0
H1951 H 0.67183 0.74878 0.67753 0.0
C1952 C 0.71668 0.83733 0.60086 0.0
C1953 C 0.74329 0.84757 0.5982 0.0
C1954 C 0.7107 0.81805 0.62024 0.0
C1955 C 0.73123 0.80851 0.6373 0.0
C1956 C 0.75747 0.82019 0.63596 0.0
C1957 C 0.76344 0.83967 0.61661 0.0
C1958 C 0.73522 0.73553 0.65535 0.0
C1959 C 0.70861 0.73019 0.66392 0.0
C1960 C 0.74384 0.76189 0.64957 0.0
C1961 C 0.72603 0.78333 0.65238 0.0
C1962 C 0.70089 0.77849 0.66455 0.0
C1963 C 0.69222 0.7521 0.67029 0.0
H1964 H 0.2461 0.72442 0.42067 0.0
H1965 H 0.17066 0.68231 0.43858 0.0
H1966 H 0.22118 0.76394 0.40731 0.0
H1967 H 0.14583 0.72205 0.42593 0.0
H1968 H 0.10724 0.79359 0.3862 0.0
H1969 H 0.13255 0.75229 0.39036 0.0
H1970 H 0.197 0.79738 0.4329 0.0
H1971 H 0.17212 0.8387 0.42825 0.0
C1972 C 0.22419 0.72348 0.42145 0.0
C1973 C 0.21037 0.70038 0.43101 0.0
C1974 C 0.20993 0.74618 0.41398 0.0
C1975 C 0.18158 0.74628 0.41602 0.0
C1976 C 0.16766 0.72258 0.424 0.0
C1977 C 0.18191 0.69982 0.43135 0.0
C1978 C 0.12683 0.79472 0.39641 0.0
C1979 C 0.13757 0.81947 0.40702 0.0
C1980 C 0.14131 0.77103 0.3988 0.0
C1981 C 0.1668 0.77157 0.41187 0.0
C1982 C 0.17763 0.79635 0.42226 0.0
C1983 C 0.16322 0.82002 0.41982 0.0
H1984 H 0.57171 -0.00428 0.73078 0.0
H1985 H 0.63304 0.93884 0.70982 0.0
H1986 H 0.54049 0.97368 0.69859 0.0
H1987 H 0.60151 0.9168 0.67676 0.0
H1988 H 0.51955 0.86619 0.65595 0.0
H1989 H 0.5591 0.88871 0.67812 0.0
H1990 H 0.53158 0.96605 0.65116 0.0
H1991 H 0.4918 0.94371 0.63007 0.0
C1992 C 0.57868 0.97867 0.719 0.0
C1993 C 0.60483 0.96895 0.72299 0.0
C1994 C 0.5608 0.96615 0.70028 0.0
C1995 C 0.56853 0.94355 0.68493 0.0
C1996 C 0.59493 0.93411 0.68838 0.0
C1997 C 0.613 0.94681 0.70717 0.0
C1998 C 0.52238 0.88792 0.65428 0.0
C1999 C 0.50242 0.90331 0.64181 0.0
C2000 C 0.54505 0.90083 0.6669 0.0
C2001 C 0.54815 0.92924 0.66691 0.0
C2002 C 0.52939 0.94421 0.65217 0.0
C2003 C 0.50667 0.93142 0.64 0.0
H2004 H 0.26011 0.36403 0.92398 0.0
H2005 H 0.2349 0.30311 0.98084 0.0
H2006 H 0.27793 0.32863 0.89452 0.0
H2007 H 0.25268 0.26812 0.95165 0.0
H2008 H 0.26403 0.20805 0.88587 0.0
H2009 H 0.24261 0.24674 0.90658 0.0
H2010 H 0.31566 0.29547 0.89624 0.0
H2011 H 0.3372 0.25687 0.87521 0.0
C2012 C 0.2584 0.34316 0.93021 0.0
C2013 C 0.24612 0.33639 0.95476 0.0
C2014 C 0.26859 0.32294 0.91335 0.0
C2015 C 0.26639 0.29561 0.92064 0.0
C2016 C 0.25418 0.28894 0.94521 0.0
C2017 C 0.24423 0.30907 0.96208 0.0
C2018 C 0.27542 0.22711 0.88747 0.0
C2019 C 0.30255 0.22915 0.87932 0.0
C2020 C 0.26315 0.24924 0.89948 0.0
C2021 C 0.27768 0.27392 0.90353 0.0
C2022 C 0.304 0.27667 0.8934 0.0
C2023 C 0.31633 0.25449 0.8814 0.0
H2024 H 0.48226 0.49584 0.68356 0.0
H2025 H 0.43686 0.56335 0.65513 0.0
H2026 H 0.52376 0.5174 0.66828 0.0
H2027 H 0.47842 0.58452 0.63842 0.0
H2028 H 0.55731 0.63148 0.66623 0.0
H2029 H 0.51384 0.60726 0.66266 0.0
H2030 H 0.55397 0.5349 0.6367 0.0
H2031 H 0.59763 0.55895 0.64171 0.0
C2032 C 0.48101 0.51484 0.67308 0.0
C2033 C 0.45647 0.52826 0.67115 0.0
C2034 C 0.50488 0.52722 0.66412 0.0
C2035 C 0.50458 0.55308 0.65265 0.0
C2036 C 0.47949 0.565 0.64793 0.0
C2037 C 0.45565 0.5528 0.65731 0.0
C2038 C 0.55676 0.61052 0.65936 0.0
C2039 C 0.5808 0.59691 0.65483 0.0
C2040 C 0.53179 0.59663 0.65703 0.0
C2041 C 0.53035 0.56895 0.64965 0.0
C2042 C 0.55437 0.55599 0.64306 0.0
C2043 C 0.57937 0.56976 0.64589 0.0
H2044 H 0.79982 0.1654 0.04623 0.0
H2045 H 0.72751 0.20928 0.06335 0.0
H2046 H 0.8274 0.20119 0.0687 0.0
H2047 H 0.75511 0.2448 0.08619 0.0
H2048 H 0.81365 0.31776 0.08587 0.0
H2049 H 0.78695 0.27912 0.06864 0.0
H2050 H 0.8384 0.22533 0.11244 0.0
H2051 H 0.86566 0.26431 0.12978 0.0
C2052 C 0.78976 0.18246 0.05516 0.0
C2053 C 0.76149 0.1847 0.05267 0.0
C2054 C 0.80558 0.20289 0.06815 0.0
C2055 C 0.79345 0.22595 0.07887 0.0
C2056 C 0.76506 0.22748 0.07764 0.0
C2057 C 0.74924 0.20707 0.06468 0.0
C2058 C 0.81948 0.29776 0.09187 0.0
C2059 C 0.84186 0.29422 0.10931 0.0
C2060 C 0.80393 0.27559 0.08215 0.0
C2061 C 0.81032 0.24923 0.08951 0.0
C2062 C 0.83302 0.24546 0.10644 0.0
C2063 C 0.84862 0.26777 0.11632 0.0
H2064 H 0.58865 0.0997 0.85597 0.0
H2065 H 0.54712 0.03007 0.81843 0.0
H2066 H 0.54496 0.11973 0.86496 0.0
H2067 H 0.50408 0.05036 0.82609 0.0
H2068 H 0.42755 0.08166 0.8548 0.0
H2069 H 0.47205 0.06221 0.85756 0.0
H2070 H 0.50918 0.14054 0.84114 0.0
H2071 H 0.46436 0.16027 0.84014 0.0
C2072 C 0.57024 0.0886 0.84982 0.0
C2073 C 0.57137 0.06333 0.83645 0.0
C2074 C 0.54522 0.10016 0.85476 0.0
C2075 C 0.52091 0.08673 0.84623 0.0
C2076 C 0.52222 0.06114 0.83352 0.0
C2077 C 0.54705 0.04951 0.82891 0.0
C2078 C 0.44529 0.09473 0.85203 0.0
C2079 C 0.44263 0.12232 0.84681 0.0
C2080 C 0.47081 0.08359 0.85349 0.0
C2081 C 0.49427 0.09964 0.84899 0.0
C2082 C 0.49162 0.12758 0.8449 0.0
C2083 C 0.46598 0.13888 0.84411 0.0
H2084 H 0.88448 -0.00373 0.30487 0.0
H2085 H 0.90348 0.93279 0.24769 0.0
H2086 H 0.9204 0.98125 0.3355 0.0
H2087 H 0.93885 0.9176 0.27836 0.0
H2088 H 0.0166 0.97018 0.34709 0.0
H2089 H 0.97301 0.98253 0.3276 0.0
H2090 H 0.94621 0.89856 0.3264 0.0
H2091 H 0.98955 0.88605 0.34602 0.0
C2092 C 0.89583 0.9787 0.29921 0.0
C2093 C 0.89137 0.9657 0.27393 0.0
C2094 C 0.91641 0.97025 0.31662 0.0
C2095 C 0.9323 0.94833 0.30921 0.0
C2096 C 0.92669 0.9344 0.28464 0.0
C2097 C 0.90657 0.94315 0.26706 0.0
C2098 C 0.00126 0.95439 0.34313 0.0
C2099 C 0.00671 0.92709 0.34776 0.0
C2100 C 0.97625 0.96151 0.33219 0.0
C2101 C 0.95641 0.94143 0.32543 0.0
C2102 C 0.96129 0.91435 0.33134 0.0
C2103 C 0.98611 0.90726 0.34259 0.0
H2104 H 0.44048 0.24429 0.20719 0.0
H2105 H 0.38833 0.28991 0.15512 0.0
H2106 H 0.42473 0.26883 0.24623 0.0
H2107 H 0.37171 0.31426 0.19482 0.0
H2108 H 0.39032 0.3776 0.26613 0.0
H2109 H 0.39108 0.3486 0.22565 0.0
H2110 H 0.38887 0.27781 0.27584 0.0
H2111 H 0.38945 0.30686 0.31617 0.0
C2112 C 0.42517 0.25922 0.20413 0.0
C2113 C 0.41591 0.2654 0.17801 0.0
C2114 C 0.41588 0.27316 0.22665 0.0
C2115 C 0.39694 0.29359 0.22372 0.0
C2116 C 0.38653 0.29883 0.1977 0.0
C2117 C 0.3959 0.28479 0.17501 0.0
C2118 C 0.38948 0.35583 0.26839 0.0
C2119 C 0.39047 0.34443 0.2942 0.0
C2120 C 0.38973 0.33918 0.24521 0.0
C2121 C 0.39056 0.31087 0.24752 0.0
C2122 C 0.389 0.29955 0.27338 0.0
C2123 C 0.38928 0.31616 0.29647 0.0
H2124 H 0.35707 0.68219 0.90412 0.0
H2125 H 0.42868 0.63845 0.92518 0.0
H2126 H 0.34119 0.67778 0.95036 0.0
H2127 H 0.41259 0.63383 0.97121 0.0
H2128 H 0.31707 0.65209 0.03683 0.0
H2129 H 0.32699 0.64753 0.98867 0.0
H2130 H 0.41055 0.67123 0.00564 0.0
H2131 H 0.40093 0.67565 0.05347 0.0
C2132 C 0.369 0.67089 0.91833 0.0
C2133 C 0.39445 0.66122 0.91119 0.0
C2134 C 0.35988 0.66838 0.94483 0.0
C2135 C 0.37604 0.65612 0.96448 0.0
C2136 C 0.40009 0.64402 0.95658 0.0
C2137 C 0.4092 0.64652 0.93018 0.0
C2138 C 0.33754 0.65645 0.03026 0.0
C2139 C 0.35821 0.66423 0.04907 0.0
C2140 C 0.34317 0.65378 0.00271 0.0
C2141 C 0.3696 0.65857 0.99353 0.0
C2142 C 0.3901 0.66678 0.01224 0.0
C2143 C 0.38448 0.66963 0.03964 0.0
H2144 H 0.04078 0.65264 0.64606 0.0
H2145 H 0.05773 0.73625 0.66937 0.0
H2146 H 0.07122 0.63824 0.68191 0.0
H2147 H 0.08867 0.72185 0.70481 0.0
H2148 H 0.13173 0.6177 0.74534 0.0
H2149 H 0.11643 0.63685 0.70278 0.0
H2150 H 0.07762 0.70054 0.7472 0.0
H2151 H 0.09321 0.68188 0.78952 0.0
C2152 C 0.05157 0.66797 0.65834 0.0
C2153 C 0.04639 0.69553 0.6553 0.0
C2154 C 0.06917 0.65973 0.67881 0.0
C2155 C 0.08201 0.67892 0.69648 0.0
C2156 C 0.07861 0.70658 0.69187 0.0
C2157 C 0.06094 0.71481 0.67152 0.0
C2158 C 0.12041 0.63612 0.74601 0.0
C2159 C 0.11332 0.64801 0.77089 0.0
C2160 C 0.11157 0.64699 0.72161 0.0
C2161 C 0.09563 0.67004 0.72162 0.0
C2162 C 0.0901 0.68291 0.74643 0.0
C2163 C 0.09885 0.67204 0.77077 0.0
H2164 H 0.07559 0.23768 0.41345 0.0
H2165 H 0.01427 0.29815 0.41071 0.0
H2166 H 0.10055 0.26448 0.44813 0.0
H2167 H 0.03925 0.32479 0.44558 0.0
H2168 H 0.14444 0.3264 0.50452 0.0
H2169 H 0.12486 0.31084 0.46073 0.0
H2170 H 0.04504 0.3099 0.4951 0.0
H2171 H 0.06443 0.32495 0.53864 0.0
C2172 C 0.06777 0.25698 0.41981 0.0
C2173 C 0.04276 0.26562 0.40969 0.0
C2174 C 0.08217 0.27239 0.43951 0.0
C2175 C 0.07165 0.29653 0.44964 0.0
C2176 C 0.04764 0.30612 0.43818 0.0
C2177 C 0.03342 0.29089 0.4182 0.0
C2178 C 0.12268 0.32324 0.50251 0.0
C2179 C 0.10595 0.32659 0.52497 0.0
C2180 C 0.11154 0.31434 0.47755 0.0
C2181 C 0.08347 0.30932 0.47459 0.0
C2182 C 0.0667 0.31395 0.49674 0.0
C2183 C 0.07783 0.32229 0.52172 0.0
H2184 H 0.4569 0.74136 0.3454 0.0
H2185 H 0.50343 0.67008 0.33065 0.0
H2186 H 0.42501 0.72688 0.30935 0.0
H2187 H 0.47144 0.65566 0.29468 0.0
H2188 H 0.3981 0.62857 0.24341 0.0
H2189 H 0.42247 0.64115 0.28529 0.0
H2190 H 0.43106 0.72356 0.25842 0.0
H2191 H 0.40669 0.71113 0.21643 0.0
C2192 C 0.46006 0.72236 0.33484 0.0
C2193 C 0.48283 0.70697 0.34073 0.0
C2194 C 0.44188 0.71419 0.3141 0.0
C2195 C 0.44591 0.69031 0.29911 0.0
C2196 C 0.46777 0.67411 0.30603 0.0
C2197 C 0.48613 0.68241 0.32656 0.0
C2198 C 0.40487 0.64947 0.24651 0.0
C2199 C 0.4006 0.66882 0.22643 0.0
C2200 C 0.41891 0.65659 0.27047 0.0
C2201 C 0.4287 0.68327 0.27503 0.0
C2202 C 0.42352 0.70288 0.25551 0.0
C2203 C 0.40972 0.69571 0.23139 0.0
H2204 H 0.03151 0.66485 0.06949 0.0
H2205 H 0.11629 0.68882 0.07694 0.0
H2206 H 0.0412 0.63674 0.03005 0.0
H2207 H 0.12586 0.66096 0.0373 0.0
H2208 H 0.13915 0.60346 0.96955 0.0
H2209 H 0.12644 0.61571 0.01545 0.0
H2210 H 0.05351 0.65087 0.98432 0.0
H2211 H 0.06593 0.63843 0.93848 0.0
C2212 C 0.0523 0.66377 0.06301 0.0
C2213 C 0.07309 0.67947 0.07602 0.0
C2214 C 0.05779 0.6477 0.04038 0.0
C2215 C 0.08418 0.64694 0.03037 0.0
C2216 C 0.10532 0.66099 0.04463 0.0
C2217 C 0.09982 0.67709 0.06728 0.0
C2218 C 0.12009 0.61328 0.97248 0.0
C2219 C 0.10381 0.62045 0.95023 0.0
C2220 C 0.1129 0.62036 -0.00119 0.0
C2221 C 0.08922 0.63458 0.00345 0.0
C2222 C 0.07184 0.63978 0.98143 0.0
C2223 C 0.07905 0.63277 0.95509 0.0
H2224 H 0.02405 0.27255 0.8031 0.0
H2225 H 0.07203 0.33257 0.84896 0.0
H2226 H 0.05064 0.28175 0.76337 0.0
H2227 H 0.09947 0.34119 0.80918 0.0
H2228 H 0.1093 0.37547 0.72264 0.0
H2229 H 0.0931 0.36267 0.76677 0.0
H2230 H 0.09339 0.27827 0.74223 0.0
H2231 H 0.10868 0.29117 0.69752 0.0
C2232 C 0.04057 0.28746 0.80481 0.0
C2233 C 0.04577 0.30204 0.82908 0.0
C2234 C 0.05605 0.29254 0.78205 0.0
C2235 C 0.07727 0.31216 0.78307 0.0
C2236 C 0.08305 0.32617 0.80764 0.0
C2237 C 0.06738 0.32122 0.83042 0.0
C2238 C 0.10638 0.35413 0.72674 0.0
C2239 C 0.10977 0.33436 0.70635 0.0
C2240 C 0.09723 0.34677 0.75219 0.0
C2241 C 0.09153 0.31946 0.75792 0.0
C2242 C 0.09695 0.29954 0.73822 0.0
C2243 C 0.10584 0.30692 0.71264 0.0
H2244 H 0.52191 0.29506 0.54256 0.0
H2245 H 0.50547 0.36149 0.59734 0.0
H2246 H 0.50899 0.32217 0.50442 0.0
H2247 H 0.49279 0.38906 0.55871 0.0
H2248 H 0.42687 0.39824 0.4887 0.0
H2249 H 0.45316 0.38575 0.52817 0.0
H2250 H 0.51819 0.36135 0.47662 0.0
H2251 H 0.49157 0.37319 0.43686 0.0
C2252 C 0.51593 0.31566 0.54643 0.0
C2253 C 0.51425 0.32599 0.57298 0.0
C2254 C 0.50886 0.33137 0.52448 0.0
C2255 C 0.49986 0.3578 0.52852 0.0
C2256 C 0.4995 0.36869 0.55501 0.0
C2257 C 0.50676 0.35293 0.57708 0.0
C2258 C 0.44703 0.39082 0.48571 0.0
C2259 C 0.45675 0.38592 0.45953 0.0
C2260 C 0.46223 0.38387 0.50845 0.0
C2261 C 0.48751 0.37201 0.50546 0.0
C2262 C 0.49848 0.36988 0.47947 0.0
C2263 C 0.48323 0.37674 0.4567 0.0
H2264 H 0.15949 0.42057 0.32212 0.0
H2265 H 0.18104 0.48306 0.3817 0.0
H2266 H 0.20149 0.39785 0.3325 0.0
H2267 H 0.2229 0.46021 0.39208 0.0
H2268 H 0.29772 0.4045 0.32724 0.0
H2269 H 0.24983 0.4144 0.32265 0.0
H2270 H 0.24298 0.41686 0.40964 0.0
H2271 H 0.2908 0.40691 0.41442 0.0
C2272 C 0.17287 0.42914 0.33785 0.0
C2273 C 0.16717 0.45381 0.35086 0.0
C2274 C 0.19691 0.41616 0.34369 0.0
C2275 C 0.21544 0.4274 0.3629 0.0
C2276 C 0.20884 0.45101 0.37728 0.0
C2277 C 0.18497 0.46417 0.37124 0.0
C2278 C 0.28591 0.40662 0.34539 0.0
C2279 C 0.2982 0.40532 0.37118 0.0
C2280 C 0.25845 0.4121 0.34275 0.0
C2281 C 0.24285 0.41659 0.36583 0.0
C2282 C 0.25468 0.4137 0.39157 0.0
C2283 C 0.28205 0.40794 0.39423 0.0
H2284 H 0.22427 0.45878 0.04115 0.0
H2285 H 0.3041 0.42527 0.0406 0.0
H2286 H 0.24311 0.50064 0.0609 0.0
H2287 H 0.32315 0.46774 0.06005 0.0
H2288 H 0.33666 0.53363 0.12814 0.0
H2289 H 0.32161 0.49241 0.10376 0.0
H2290 H 0.27199 0.53954 0.0507 0.0
H2291 H 0.28648 0.58064 0.07531 0.0
C2292 C 0.24593 0.46044 0.04498 0.0
C2293 C 0.26268 0.43862 0.03944 0.0
C2294 C 0.25676 0.48456 0.05614 0.0
C2295 C 0.28462 0.48751 0.06202 0.0
C2296 C 0.30154 0.46593 0.05597 0.0
C2297 C 0.29067 0.4417 0.04471 0.0
C2298 C 0.32262 0.53523 0.11121 0.0
C2299 C 0.31251 0.56043 0.10392 0.0
C2300 C 0.31418 0.51162 0.09711 0.0
C2301 C 0.29551 0.51272 0.07541 0.0
C2302 C 0.28605 0.53799 0.06762 0.0
C2303 C 0.2944 0.56156 0.08173 0.0
H2304 H 0.34357 0.60118 0.73402 0.0
H2305 H 0.37025 0.58277 0.81514 0.0
H2306 H 0.3008 0.61664 0.75157 0.0
H2307 H 0.32726 0.59738 0.83261 0.0
H2308 H 0.24659 0.6253 0.85859 0.0
H2309 H 0.29215 0.62945 0.84072 0.0
H2310 H 0.2647 0.58721 0.76745 0.0
H2311 H 0.21914 0.58359 0.78496 0.0
C2312 C 0.34057 0.60118 0.75569 0.0
C2313 C 0.35988 0.59018 0.77317 0.0
C2314 C 0.31603 0.60984 0.76571 0.0
C2315 C 0.31033 0.60738 0.79332 0.0
C2316 C 0.33097 0.59946 0.81119 0.0
C2317 C 0.35567 0.59105 0.80119 0.0
C2318 C 0.25022 0.61707 0.83856 0.0
C2319 C 0.22929 0.60374 0.82333 0.0
C2320 C 0.27633 0.61954 0.82834 0.0
C2321 C 0.28206 0.6087 0.8027 0.0
C2322 C 0.2609 0.59625 0.78709 0.0
C2323 C 0.23479 0.59387 0.79726 0.0
H2324 H 0.17889 0.56382 0.48637 0.0
H2325 H 0.1927 0.58749 0.57026 0.0
H2326 H 0.15897 0.5207 0.50038 0.0
H2327 H 0.17297 0.5442 0.58418 0.0
H2328 H 0.12202 0.4704 0.60245 0.0
H2329 H 0.13107 0.51533 0.58469 0.0
H2330 H 0.1788 0.48054 0.52124 0.0
H2331 H 0.16964 0.4355 0.53876 0.0
C2332 C 0.17738 0.56 0.50782 0.0
C2333 C 0.18766 0.579 0.52723 0.0
C2334 C 0.16606 0.53522 0.51579 0.0
C2335 C 0.16462 0.52898 0.54334 0.0
C2336 C 0.1736 0.54853 0.56279 0.0
C2337 C 0.18503 0.57328 0.55481 0.0
C2338 C 0.13408 0.47219 0.58444 0.0
C2339 C 0.14539 0.44928 0.57224 0.0
C2340 C 0.13936 0.498 0.57437 0.0
C2341 C 0.15588 0.50148 0.5518 0.0
C2342 C 0.16584 0.47849 0.5386 0.0
C2343 C 0.16067 0.45266 0.54872 0.0
H2344 H 0.15723 0.56027 0.25634 0.0
H2345 H 0.20107 0.59309 0.3266 0.0
H2346 H 0.18987 0.58243 0.22697 0.0
H2347 H 0.23361 0.61547 0.29708 0.0
H2348 H 0.30413 0.6094 0.23528 0.0
H2349 H 0.26886 0.59752 0.26707 0.0
H2350 H 0.20828 0.62705 0.2119 0.0
H2351 H 0.2436 0.63877 0.17976 0.0
C2352 C 0.17363 0.5725 0.26552 0.0
C2353 C 0.17674 0.57469 0.2938 0.0
C2354 C 0.1922 0.58537 0.24867 0.0
C2355 C 0.21432 0.60061 0.25975 0.0
C2356 C 0.21688 0.60363 0.28801 0.0
C2357 C 0.19821 0.59087 0.30488 0.0
C2358 C 0.28335 0.61371 0.23001 0.0
C2359 C 0.27666 0.62473 0.20482 0.0
C2360 C 0.26315 0.60708 0.24835 0.0
C2361 C 0.23581 0.61121 0.24188 0.0
C2362 C 0.22919 0.62339 0.21726 0.0
C2363 C 0.24944 0.63022 0.19894 0.0
H2364 H 0.12789 0.41754 0.9872 0.0
H2365 H 0.16669 0.37813 0.92016 0.0
H2366 H 0.12006 0.45678 0.95928 0.0
H2367 H 0.15945 0.41768 0.89243 0.0
H2368 H 0.13801 0.49711 0.84975 0.0
H2369 H 0.13043 0.45312 0.87084 0.0
H2370 H 0.15901 0.48739 0.94751 0.0
H2371 H 0.16645 0.53095 0.92686 0.0
C2372 C 0.13381 0.41688 0.96618 0.0
C2373 C 0.14842 0.39516 0.95599 0.0
C2374 C 0.12953 0.43938 0.95028 0.0
C2375 C 0.14003 0.44056 0.92407 0.0
C2376 C 0.15133 0.41735 0.91266 0.0
C2377 C 0.15541 0.39467 0.92854 0.0
C2378 C 0.14279 0.49519 0.87109 0.0
C2379 C 0.15286 0.51761 0.88661 0.0
C2380 C 0.13829 0.47006 0.88312 0.0
C2381 C 0.14352 0.46704 0.9109 0.0
C2382 C 0.15401 0.4893 0.92621 0.0
C2383 C 0.15866 0.51423 0.91424 0.0
H2384 H 0.31299 0.49544 0.70916 0.0
H2385 H 0.35659 0.42101 0.70467 0.0
H2386 H 0.27165 0.47126 0.69464 0.0
H2387 H 0.3147 0.3966 0.6902 0.0
H2388 H 0.24297 0.37856 0.62734 0.0
H2389 H 0.28477 0.39639 0.6487 0.0
H2390 H 0.23848 0.43667 0.70994 0.0
H2391 H 0.19658 0.41923 0.68849 0.0
C2392 C 0.31373 0.47383 0.70524 0.0
C2393 C 0.33813 0.46015 0.70789 0.0
C2394 C 0.28993 0.45994 0.69717 0.0
C2395 C 0.28992 0.43203 0.69142 0.0
C2396 C 0.3142 0.41816 0.69441 0.0
C2397 C 0.3381 0.4321 0.70274 0.0
C2398 C 0.24165 0.39097 0.64554 0.0
C2399 C 0.21635 0.39783 0.65593 0.0
C2400 C 0.26565 0.40099 0.65788 0.0
C2401 C 0.26485 0.41811 0.68081 0.0
C2402 C 0.23966 0.42383 0.69202 0.0
C2403 C 0.21566 0.41377 0.67975 0.0
H2404 H 0.33437 0.62649 0.42897 0.0
H2405 H 0.27929 0.56576 0.46093 0.0
H2406 H 0.36633 0.59088 0.41775 0.0
H2407 H 0.31108 0.53089 0.45029 0.0
H2408 H 0.37889 0.47695 0.45271 0.0
H2409 H 0.36089 0.52017 0.46673 0.0
H2410 H 0.36119 0.54654 0.384 0.0
H2411 H 0.37921 0.50326 0.36963 0.0
C2412 C 0.32916 0.60566 0.43365 0.0
C2413 C 0.30431 0.59886 0.44567 0.0
C2414 C 0.34741 0.58543 0.42733 0.0
C2415 C 0.34124 0.55837 0.43363 0.0
C2416 C 0.3165 0.55172 0.44573 0.0
C2417 C 0.29817 0.57168 0.45151 0.0
C2418 C 0.37591 0.49216 0.43752 0.0
C2419 C 0.37973 0.48632 0.40992 0.0
C2420 C 0.36564 0.51691 0.44562 0.0
C2421 C 0.35929 0.53631 0.42633 0.0
C2422 C 0.36596 0.53181 0.39919 0.0
C2423 C 0.3761 0.50695 0.39101 0.0
H2424 H 0.34256 0.15998 0.42278 0.0
H2425 H 0.28982 0.20246 0.47679 0.0
H2426 H 0.3598 0.20334 0.40598 0.0
H2427 H 0.3077 0.24531 0.46109 0.0
H2428 H 0.4078 0.28531 0.41046 0.0
H2429 H 0.38822 0.24084 0.42079 0.0
H2430 H 0.30887 0.27519 0.42494 0.0
H2431 H 0.32866 0.31967 0.41596 0.0
C2432 C 0.33458 0.17852 0.43096 0.0
C2433 C 0.31487 0.17777 0.45113 0.0
C2434 C 0.34459 0.20336 0.42151 0.0
C2435 C 0.33521 0.22787 0.43222 0.0
C2436 C 0.31507 0.22694 0.45196 0.0
C2437 C 0.30492 0.20225 0.46114 0.0
C2438 C 0.38618 0.28327 0.41358 0.0
C2439 C 0.36983 0.306 0.41286 0.0
C2440 C 0.3749 0.25775 0.41925 0.0
C2441 C 0.34697 0.25442 0.42391 0.0
C2442 C 0.33055 0.27708 0.42214 0.0
C2443 C 0.34188 0.3026 0.41695 0.0
H2444 H 0.89 0.35837 0.57517 0.0
H2445 H 0.812 0.37268 0.60991 0.0
H2446 H 0.89941 0.3261 0.61054 0.0
H2447 H 0.82173 0.34125 0.64594 0.0
H2448 H 0.82433 0.24684 0.65193 0.0
H2449 H 0.81997 0.29342 0.63892 0.0
H2450 H 0.90534 0.3089 0.65556 0.0
H2451 H 0.90985 0.26184 0.66823 0.0
C2452 C 0.87533 0.35538 0.59098 0.0
C2453 C 0.84991 0.36718 0.58934 0.0
C2454 C 0.88075 0.337 0.61142 0.0
C2455 C 0.86089 0.33045 0.63058 0.0
C2456 C 0.83706 0.34521 0.63096 0.0
C2457 C 0.83149 0.3632 0.61035 0.0
C2458 C 0.84205 0.26028 0.65358 0.0
C2459 C 0.86756 0.25035 0.66034 0.0
C2460 C 0.83953 0.28721 0.64633 0.0
C2461 C 0.86246 0.30486 0.64574 0.0
C2462 C 0.88741 0.29569 0.65534 0.0
C2463 C 0.88993 0.2687 0.66267 0.0
H2464 H 0.46123 0.01516 0.30256 0.0
H2465 H 0.42105 0.06552 0.36091 0.0
H2466 H 0.50489 0.03143 0.32028 0.0
H2467 H 0.46518 0.08153 0.37917 0.0
H2468 H 0.54689 0.13175 0.36784 0.0
H2469 H 0.50162 0.11113 0.362 0.0
H2470 H 0.53603 0.03185 0.35842 0.0
H2471 H 0.58126 0.05243 0.36351 0.0
C2472 C 0.46172 0.02938 0.31952 0.0
C2473 C 0.43769 0.03928 0.33014 0.0
C2474 C 0.48681 0.03855 0.32986 0.0
C2475 C 0.48851 0.05782 0.35112 0.0
C2476 C 0.46447 0.06687 0.36259 0.0
C2477 C 0.43925 0.05759 0.35225 0.0
C2478 C 0.54475 0.1099 0.36624 0.0
C2479 C 0.56767 0.09376 0.36557 0.0
C2480 C 0.51879 0.09806 0.36308 0.0
C2481 C 0.5153 0.06989 0.35938 0.0
C2482 C 0.53813 0.05367 0.36064 0.0
C2483 C 0.56403 0.06547 0.36357 0.0
H2484 H 0.67194 0.65641 0.02994 0.0
H2485 H 0.72785 0.69639 0.08712 0.0
H2486 H 0.64132 0.69398 0.03434 0.0
H2487 H 0.6971 0.73386 0.0915 0.0
H2488 H 0.58475 0.75926 0.06941 0.0
H2489 H 0.61216 0.71888 0.06856 0.0
H2490 H 0.6841 0.769 0.05716 0.0
H2491 H 0.65708 0.8092 0.05798 0.0
C2492 C 0.67752 0.67303 0.04372 0.0
C2493 C 0.70243 0.67365 0.05795 0.0
C2494 C 0.65992 0.69443 0.04631 0.0
C2495 C 0.66707 0.71686 0.063 0.0
C2496 C 0.69136 0.7169 0.0782 0.0
C2497 C 0.70885 0.69542 0.0758 0.0
C2498 C 0.60639 0.76164 0.06654 0.0
C2499 C 0.61871 0.78746 0.06378 0.0
C2500 C 0.62201 0.73855 0.06608 0.0
C2501 C 0.65021 0.74097 0.06317 0.0
C2502 C 0.66243 0.76667 0.05993 0.0
C2503 C 0.64687 0.78966 0.06012 0.0
H2504 H 0.60533 0.4769 0.28138 0.0
H2505 H 0.54099 0.50024 0.22703 0.0
H2506 H 0.57155 0.46101 0.31366 0.0
H2507 H 0.50757 0.4842 0.25889 0.0
H2508 H 0.45214 0.47127 0.327 0.0
H2509 H 0.48951 0.49349 0.30386 0.0
H2510 H 0.53746 0.42265 0.31399 0.0
H2511 H 0.50021 0.40042 0.33763 0.0
C2512 C 0.58404 0.47889 0.27646 0.0
C2513 C 0.57579 0.48964 0.25162 0.0
C2514 C 0.56475 0.4697 0.29486 0.0
C2515 C 0.53696 0.4714 0.28879 0.0
C2516 C 0.52883 0.48297 0.26432 0.0
C2517 C 0.54801 0.49195 0.24595 0.0
C2518 C 0.47074 0.46048 0.3246 0.0
C2519 C 0.473 0.43385 0.33373 0.0
C2520 C 0.49212 0.47325 0.31132 0.0
C2521 C 0.51622 0.45966 0.3068 0.0
C2522 C 0.51916 0.43367 0.31733 0.0
C2523 C 0.49774 0.42088 0.33072 0.0
H2524 H 0.20246 0.84298 0.89876 0.0
H2525 H 0.25882 0.79635 0.94518 0.0
H2526 H 0.18207 0.80107 0.87948 0.0
H2527 H 0.23812 0.75484 0.92667 0.0
H2528 H 0.21077 0.68387 0.87732 0.0
H2529 H 0.23253 0.72795 0.88633 0.0
H2530 H 0.154 0.76313 0.89484 0.0
H2531 H 0.13213 0.71893 0.88477 0.0
C2532 C 0.21061 0.82384 0.9047 0.0
C2533 C 0.23219 0.82297 0.92355 0.0
C2534 C 0.19883 0.79986 0.89378 0.0
C2535 C 0.20847 0.77463 0.90152 0.0
C2536 C 0.23048 0.77391 0.91987 0.0
C2537 C 0.24226 0.79777 0.93066 0.0
C2538 C 0.19813 0.70107 0.88086 0.0
C2539 C 0.16977 0.69793 0.88082 0.0
C2540 C 0.2106 0.72631 0.88608 0.0
C2541 C 0.19502 0.74894 0.8918 0.0
C2542 C 0.16658 0.74611 0.89036 0.0
C2543 C 0.15404 0.72081 0.88475 0.0
H2544 H 0.39015 0.97952 0.1886 0.0
H2545 H 0.40331 0.91054 0.23913 0.0
H2546 H 0.41449 0.95788 0.1521 0.0
H2547 H 0.42834 0.88918 0.20284 0.0
H2548 H 0.50273 0.93707 0.12811 0.0
H2549 H 0.4632 0.95269 0.15138 0.0
H2550 H 0.43217 0.87021 0.15642 0.0
H2551 H 0.47227 0.8544 0.13321 0.0
C2552 C 0.39786 0.95952 0.19174 0.0
C2553 C 0.39545 0.94697 0.21691 0.0
C2554 C 0.41178 0.94713 0.17083 0.0
C2555 C 0.42379 0.9221 0.17479 0.0
C2556 C 0.41922 0.90844 0.19911 0.0
C2557 C 0.40504 0.92075 0.21999 0.0
C2558 C 0.48723 0.92228 0.13365 0.0
C2559 C 0.49081 0.8945 0.12924 0.0
C2560 C 0.46439 0.93125 0.14678 0.0
C2561 C 0.44463 0.91264 0.15592 0.0
C2562 C 0.44722 0.88496 0.14982 0.0
C2563 C 0.47008 0.87596 0.13642 0.0
H2564 H 0.10034 0.05903 0.64966 0.0
H2565 H 0.05142 0.98505 0.65081 0.0
H2566 H 0.05951 0.08516 0.64695 0.0
H2567 H 0.01051 0.01112 0.6471 0.0
H2568 H 0.94933 0.06667 0.68746 0.0
H2569 H 0.98822 0.03896 0.67923 0.0
H2570 H 0.01945 0.09815 0.62342 0.0
H2571 H 0.98092 0.12634 0.63233 0.0
C2572 C 0.08089 0.04829 0.64841 0.0
C2573 C 0.07904 0.02004 0.65087 0.0
C2574 C 0.05742 0.06328 0.64683 0.0
C2575 C 0.03169 0.05026 0.64737 0.0
C2576 C 0.03 0.02181 0.64741 0.0
C2577 C 0.05343 0.00686 0.64929 0.0
C2578 C 0.9644 0.07373 0.67333 0.0
C2579 C 0.96214 0.09886 0.66081 0.0
C2580 C 0.98661 0.0577 0.66838 0.0
C2581 C 0.00697 0.06629 0.65059 0.0
C2582 C 0.00433 0.0911 0.6375 0.0
C2583 C 0.98221 0.10724 0.64261 0.0
loop_
_geom_bond_atom_site_label_1
_geom_bond_atom_site_label_2
_geom_bond_distance
_geom_bond_site_symmetry_2
_ccdc_geom_bond_type
C0 O1 1.160 . S
C0 O7 1.185 . S
O1 C0 1.160 . S
O2 Zn3 1.899 . S
O2 C10 1.284 . S
Zn3 O2 1.899 . S
Zn3 O4 2.032 1_455 S
Zn3 O7 2.086 . S
Zn3 O12 1.977 1_455 S
O4 Zn3 2.032 1_655 S
O4 C8 1.278 . S
C5 O6 1.203 . S
C5 O12 1.267 . S
O6 C5 1.203 . S
O7 C0 1.185 . S
O7 Zn3 2.086 . S
C8 O4 1.278 . S
C8 O9 1.211 . S
O9 C8 1.211 . S
C10 O2 1.284 . S
C10 O11 1.273 . S
O11 C10 1.273 . S
O12 Zn3 1.977 1_655 S
O12 C5 1.267 . S
C13 O14 1.160 . S
C13 O20 1.185 . S
O14 C13 1.160 . S
O15 Zn16 1.899 1_655 S
O15 C23 1.284 . S
Zn16 O15 1.899 1_455 S
Zn16 O17 2.032 1_455 S
Zn16 O20 2.086 . S
Zn16 O25 1.977 . S
O17 Zn16 2.032 1_655 S
O17 C21 1.278 . S
C18 O19 1.203 . S
C18 O25 1.267 . S
O19 C18 1.203 . S
O20 C13 1.185 . S
O20 Zn16 2.086 . S
C21 O17 1.278 . S
C21 O22 1.211 . S
O22 C21 1.211 . S
C23 O15 1.284 . S
C23 O24 1.273 . S
O24 C23 1.273 . S
O25 Zn16 1.977 . S
O25 C18 1.267 . S
C26 O27 1.160 . S
C26 O33 1.185 . S
O27 C26 1.160 . S
O28 Zn29 1.899 . S
O28 C36 1.284 . S
Zn29 O28 1.899 . S
Zn29 O30 2.032 . S
Zn29 O33 2.086 . S
Zn29 O38 1.977 . S
O30 Zn29 2.032 . S
O30 C34 1.278 . S
C31 O32 1.203 . S
C31 O38 1.267 . S
O32 C31 1.203 . S
O33 C26 1.185 . S
O33 Zn29 2.086 . S
C34 O30 1.278 . S
C34 O35 1.211 . S
O35 C34 1.211 . S
C36 O28 1.284 . S
C36 O37 1.273 . S
O37 C36 1.273 . S
O38 Zn29 1.977 . S
O38 C31 1.267 . S
C39 O40 1.160 . S
C39 O46 1.185 . S
O40 C39 1.160 . S
O41 Zn42 1.899 . S
O41 C49 1.284 . S
Zn42 O41 1.899 . S
Zn42 O43 2.032 . S
Zn42 O46 2.086 . S
Zn42 O51 1.977 . S
O43 Zn42 2.032 . S
O43 C47 1.278 . S
C44 O45 1.203 . S
C44 O51 1.267 . S
O45 C44 1.203 . S
O46 C39 1.185 . S
O46 Zn42 2.086 . S
C47 O43 1.278 . S
C47 O48 1.211 . S
O48 C47 1.211 . S
C49 O41 1.284 . S
C49 O50 1.273 . S
O50 C49 1.273 . S
O51 Zn42 1.977 . S
O51 C44 1.267 . S
C52 O53 1.160 . S
C52 O59 1.185 . S
O53 C52 1.160 . S
O54 Zn55 1.899 . S
O54 C62 1.284 . S
Zn55 O54 1.899 . S
Zn55 O56 2.032 1_455 S
Zn55 O59 2.086 . S
Zn55 O64 1.977 1_455 S
O56 Zn55 2.032 1_655 S
O56 C60 1.278 . S
C57 O58 1.203 . S
C57 O64 1.267 . S
O58 C57 1.203 . S
O59 C52 1.185 . S
O59 Zn55 2.086 . S
C60 O56 1.278 . S
C60 O61 1.211 . S
O61 C60 1.211 . S
C62 O54 1.284 . S
C62 O63 1.273 . S
O63 C62 1.273 . S
O64 Zn55 1.977 1_655 S
O64 C57 1.267 . S
C65 O66 1.160 . S
C65 O72 1.185 . S
O66 C65 1.160 . S
O67 Zn68 1.899 . S
O67 C75 1.284 . S
Zn68 O67 1.899 . S
Zn68 O69 2.032 . S
Zn68 O72 2.086 . S
Zn68 O77 1.977 . S
O69 Zn68 2.032 . S
O69 C73 1.278 . S
C70 O71 1.203 . S
C70 O77 1.267 . S
O71 C70 1.203 . S
O72 C65 1.185 . S
O72 Zn68 2.086 . S
C73 O69 1.278 . S
C73 O74 1.211 . S
O74 C73 1.211 . S
C75 O67 1.284 . S
C75 O76 1.273 . S
O76 C75 1.273 . S
O77 Zn68 1.977 . S
O77 C70 1.267 . S
C78 O79 1.160 . S
C78 O85 1.185 . S
O79 C78 1.160 . S
O80 Zn81 1.899 . S
O80 C88 1.284 . S
Zn81 O80 1.899 . S
Zn81 O82 2.032 . S
Zn81 O85 2.086 . S
Zn81 O90 1.977 . S
O82 Zn81 2.032 . S
O82 C86 1.278 . S
C83 O84 1.203 . S
C83 O90 1.267 . S
O84 C83 1.203 . S
O85 C78 1.185 . S
O85 Zn81 2.086 . S
C86 O82 1.278 . S
C86 O87 1.211 . S
O87 C86 1.211 . S
C88 O80 1.284 . S
C88 O89 1.273 . S
O89 C88 1.273 . S
O90 Zn81 1.977 . S
O90 C83 1.267 . S
C91 O92 1.160 . S
C91 O98 1.185 . S
O92 C91 1.160 . S
O93 Zn94 1.899 . S
O93 C101 1.284 1_455 S
Zn94 O93 1.899 . S
Zn94 O95 2.045 . S
Zn94 O98 2.086 . S
Zn94 O103 1.977 . S
O95 Zn94 2.045 . S
O95 C99 1.267 1_455 S
C96 O97 1.203 . S
C96 O103 1.267 . S
O97 C96 1.203 . S
O98 C91 1.185 . S
O98 Zn94 2.086 . S
C99 O95 1.267 1_655 S
C99 O100 1.211 . S
O100 C99 1.211 . S
C101 O93 1.284 1_655 S
C101 O102 1.273 . S
O102 C101 1.273 . S
O103 Zn94 1.977 . S
O103 C96 1.267 . S
C104 O105 1.160 . S
C104 O111 1.185 . S
O105 C104 1.160 . S
O106 Zn107 1.899 1_565 S
O106 C114 1.284 . S
Zn107 O106 1.899 1_545 S
Zn107 O108 2.032 . S
Zn107 O111 2.086 1_545 S
Zn107 O116 1.977 . S
O108 Zn107 2.032 . S
O108 C112 1.278 . S
C109 O110 1.203 . S
C109 O116 1.267 . S
O110 C109 1.203 . S
O111 C104 1.185 . S
O111 Zn107 2.086 1_565 S
C112 O108 1.278 . S
C112 O113 1.211 . S
O113 C112 1.211 . S
C114 O106 1.284 . S
C114 O115 1.273 1_565 S
O115 C114 1.273 1_545 S
O116 Zn107 1.977 . S
O116 C109 1.267 . S
C117 O118 1.160 . S
C117 O124 1.185 . S
O118 C117 1.160 . S
O119 Zn120 1.899 . S
O119 C127 1.284 . S
Zn120 O119 1.899 . S
Zn120 O121 2.032 . S
Zn120 O124 2.086 . S
Zn120 O129 1.977 . S
O121 Zn120 2.032 . S
O121 C125 1.278 . S
C122 O123 1.203 . S
C122 O129 1.267 . S
O123 C122 1.203 . S
O124 C117 1.185 . S
O124 Zn120 2.086 . S
C125 O121 1.278 . S
C125 O126 1.211 . S
O126 C125 1.211 . S
C127 O119 1.284 . S
C127 O128 1.273 . S
O128 C127 1.273 . S
O129 Zn120 1.977 . S
O129 C122 1.267 . S
C130 O131 1.160 . S
C130 O137 1.185 . S
O131 C130 1.160 . S
O132 Zn133 1.899 . S
O132 C140 1.284 . S
Zn133 O132 1.899 . S
Zn133 O134 2.032 1_565 S
Zn133 O137 2.086 . S
Zn133 O142 1.977 1_565 S
O134 Zn133 2.032 1_545 S
O134 C138 1.278 . S
C135 O136 1.203 . S
C135 O142 1.267 . S
O136 C135 1.203 . S
O137 C130 1.185 . S
O137 Zn133 2.086 . S
C138 O134 1.278 . S
C138 O139 1.211 . S
O139 C138 1.211 . S
C140 O132 1.284 . S
C140 O141 1.273 . S
O141 C140 1.273 . S
O142 Zn133 1.977 1_545 S
O142 C135 1.267 . S
C143 O144 1.160 . S
C143 O150 1.185 . S
O144 C143 1.160 . S
O145 Zn146 1.899 . S
O145 C153 1.284 1_554 S
Zn146 O145 1.899 . S
Zn146 O147 2.032 1_554 S
Zn146 O150 2.086 . S
Zn146 O155 1.977 . S
O147 Zn146 2.032 1_556 S
O147 C151 1.278 . S
C148 O149 1.203 . S
C148 O155 1.267 . S
O149 C148 1.203 . S
O150 C143 1.185 . S
O150 Zn146 2.086 . S
C151 O147 1.278 . S
C151 O152 1.211 . S
O152 C151 1.211 . S
C153 O145 1.284 1_556 S
C153 O154 1.273 . S
O154 C153 1.273 . S
O155 Zn146 1.977 . S
O155 C148 1.267 . S
C156 O157 1.160 . S
C156 O163 1.185 . S
O157 C156 1.160 . S
O158 Zn159 1.899 1_556 S
O158 C166 1.284 . S
Zn159 O158 1.899 1_554 S
Zn159 O160 2.032 . S
Zn159 O163 2.086 1_554 S
Zn159 O168 1.977 . S
O160 Zn159 2.032 . S
O160 C164 1.278 . S
C161 O162 1.203 . S
C161 O168 1.267 . S
O162 C161 1.203 . S
O163 C156 1.185 . S
O163 Zn159 2.086 1_556 S
C164 O160 1.278 . S
C164 O165 1.211 . S
O165 C164 1.211 . S
C166 O158 1.284 . S
C166 O167 1.270 . S
O167 C166 1.270 . S
O168 Zn159 1.977 . S
O168 C161 1.267 . S
C169 O170 1.160 . S
C169 O176 1.185 . S
O170 C169 1.160 . S
O171 Zn172 1.899 . S
O171 C179 1.284 . S
Zn172 O171 1.899 . S
Zn172 O173 2.032 1_556 S
Zn172 O176 2.086 . S
Zn172 O181 1.977 1_556 S
O173 Zn172 2.032 1_554 S
O173 C177 1.278 . S
C174 O175 1.203 . S
C174 O181 1.267 . S
O175 C174 1.203 . S
O176 C169 1.185 . S
O176 Zn172 2.086 . S
C177 O173 1.278 . S
C177 O178 1.211 . S
O178 C177 1.211 . S
C179 O171 1.284 . S
C179 O180 1.273 . S
O180 C179 1.273 . S
O181 Zn172 1.977 1_554 S
O181 C174 1.267 . S
C182 O183 1.160 . S
C182 O189 1.185 . S
O183 C182 1.160 . S
O184 Zn185 1.899 . S
O184 C192 1.284 . S
Zn185 O184 1.899 . S
Zn185 O186 2.032 . S
Zn185 O189 2.086 . S
Zn185 O194 1.977 . S
O186 Zn185 2.032 . S
O186 C190 1.278 . S
C187 O188 1.203 . S
C187 O194 1.267 . S
O188 C187 1.203 . S
O189 C182 1.185 . S
O189 Zn185 2.086 . S
C190 O186 1.278 . S
C190 O191 1.211 . S
O191 C190 1.211 . S
C192 O184 1.284 . S
C192 O193 1.273 . S
O193 C192 1.273 . S
O194 Zn185 1.977 . S
O194 C187 1.267 . S
C195 O196 1.160 . S
C195 O202 1.185 . S
O196 C195 1.160 . S
O197 Zn198 1.899 . S
O197 C205 1.284 . S
Zn198 O197 1.899 . S
Zn198 O199 2.032 . S
Zn198 O202 2.086 . S
Zn198 O207 1.977 . S
O199 Zn198 2.032 . S
O199 C203 1.278 . S
C200 O201 1.203 . S
C200 O207 1.267 . S
O201 C200 1.203 . S
O202 C195 1.185 . S
O202 Zn198 2.086 . S
C203 O199 1.278 . S
C203 O204 1.211 . S
O204 C203 1.211 . S
C205 O197 1.284 . S
C205 O206 1.273 . S
O206 C205 1.273 . S
O207 Zn198 1.977 . S
O207 C200 1.267 . S
C208 O209 1.160 . S
C208 O215 1.185 . S
O209 C208 1.160 . S
O210 Zn211 1.899 . S
O210 C218 1.284 1_545 S
Zn211 O210 1.899 . S
Zn211 O212 2.038 . S
Zn211 O215 2.086 . S
Zn211 O220 1.977 . S
O212 Zn211 2.038 . S
O212 C216 1.272 1_545 S
C213 O214 1.203 . S
C213 O220 1.267 . S
O214 C213 1.203 . S
O215 C208 1.185 . S
O215 Zn211 2.086 . S
C216 O212 1.272 1_565 S
C216 O217 1.211 . S
O217 C216 1.211 . S
C218 O210 1.284 1_565 S
C218 O219 1.273 . S
O219 C218 1.273 . S
O220 Zn211 1.977 . S
O220 C213 1.267 . S
C221 O222 1.160 . S
C221 O228 1.185 . S
O222 C221 1.160 . S
O223 Zn224 1.899 . S
O223 C231 1.284 . S
Zn224 O223 1.899 . S
Zn224 O225 2.032 . S
Zn224 O228 2.086 . S
Zn224 O233 1.977 . S
O225 Zn224 2.032 . S
O225 C229 1.278 . S
C226 O227 1.203 . S
C226 O233 1.267 . S
O227 C226 1.203 . S
O228 C221 1.185 . S
O228 Zn224 2.086 . S
C229 O225 1.278 . S
C229 O230 1.211 . S
O230 C229 1.211 . S
C231 O223 1.284 . S
C231 O232 1.273 . S
O232 C231 1.273 . S
O233 Zn224 1.977 . S
O233 C226 1.267 . S
C234 O235 1.160 . S
C234 O241 1.185 . S
O235 C234 1.160 . S
O236 Zn237 1.899 . S
O236 C244 1.284 . S
Zn237 O236 1.899 . S
Zn237 O238 2.032 . S
Zn237 O241 2.086 . S
Zn237 O246 1.977 . S
O238 Zn237 2.032 . S
O238 C242 1.278 . S
C239 O240 1.203 . S
C239 O246 1.267 . S
O240 C239 1.203 . S
O241 C234 1.185 . S
O241 Zn237 2.086 . S
C242 O238 1.278 . S
C242 O243 1.211 . S
O243 C242 1.211 . S
C244 O236 1.284 . S
C244 O245 1.273 . S
O245 C244 1.273 . S
O246 Zn237 1.977 . S
O246 C239 1.267 . S
C247 O248 1.160 . S
C247 O254 1.185 . S
O248 C247 1.160 . S
O249 Zn250 1.899 . S
O249 C257 1.284 1_545 S
Zn250 O249 1.899 . S
Zn250 O251 2.032 1_545 S
Zn250 O254 2.086 . S
Zn250 O259 1.977 . S
O251 Zn250 2.032 1_565 S
O251 C255 1.278 . S
C252 O253 1.203 . S
C252 O259 1.267 . S
O253 C252 1.203 . S
O254 C247 1.185 . S
O254 Zn250 2.086 . S
C255 O251 1.278 . S
C255 O256 1.211 . S
O256 C255 1.211 . S
C257 O249 1.284 1_565 S
C257 O258 1.273 . S
O258 C257 1.273 . S
O259 Zn250 1.977 . S
O259 C252 1.267 . S
C260 O261 1.160 . S
C260 O267 1.185 . S
O261 C260 1.160 . S
O262 Zn263 1.899 . S
O262 C270 1.284 1_554 S
Zn263 O262 1.899 . S
Zn263 O264 2.032 1_554 S
Zn263 O267 2.086 . S
Zn263 O272 1.977 . S
O264 Zn263 2.032 1_556 S
O264 C268 1.278 . S
C265 O266 1.203 . S
C265 O272 1.267 . S
O266 C265 1.203 . S
O267 C260 1.185 . S
O267 Zn263 2.086 . S
C268 O264 1.278 . S
C268 O269 1.211 . S
O269 C268 1.211 . S
C270 O262 1.284 1_556 S
C270 O271 1.273 . S
O271 C270 1.273 . S
O272 Zn263 1.977 . S
O272 C265 1.267 . S
C273 O274 1.160 . S
C273 O280 1.185 . S
O274 C273 1.160 . S
O275 Zn276 1.899 . S
O275 C283 1.284 . S
Zn276 O275 1.899 . S
Zn276 O277 2.032 . S
Zn276 O280 2.086 . S
Zn276 O285 1.977 . S
O277 Zn276 2.032 . S
O277 C281 1.278 . S
C278 O279 1.203 . S
C278 O285 1.267 . S
O279 C278 1.203 . S
O280 C273 1.185 . S
O280 Zn276 2.086 . S
C281 O277 1.278 . S
C281 O282 1.211 . S
O282 C281 1.211 . S
C283 O275 1.284 . S
C283 O284 1.273 . S
O284 C283 1.273 . S
O285 Zn276 1.977 . S
O285 C278 1.267 . S
C286 O287 1.160 . S
C286 O293 1.185 . S
O287 C286 1.160 . S
O288 Zn289 1.899 . S
O288 C296 1.284 . S
Zn289 O288 1.899 . S
Zn289 O290 2.032 . S
Zn289 O293 2.086 . S
Zn289 O298 1.977 . S
O290 Zn289 2.032 . S
O290 C294 1.278 . S
C291 O292 1.203 . S
C291 O298 1.267 . S
O292 C291 1.203 . S
O293 C286 1.185 . S
O293 Zn289 2.086 . S
C294 O290 1.278 . S
C294 O295 1.211 . S
O295 C294 1.211 . S
C296 O288 1.284 . S
C296 O297 1.273 . S
O297 C296 1.273 . S
O298 Zn289 1.977 . S
O298 C291 1.267 . S
C299 O300 1.160 . S
C299 O306 1.185 . S
O300 C299 1.160 . S
O301 Zn302 1.899 . S
O301 C309 1.284 . S
Zn302 O301 1.899 . S
Zn302 O303 2.032 . S
Zn302 O306 2.086 . S
Zn302 O311 1.977 . S
O303 Zn302 2.032 . S
O303 C307 1.278 . S
C304 O305 1.203 . S
C304 O311 1.267 . S
O305 C304 1.203 . S
O306 C299 1.185 . S
O306 Zn302 2.086 . S
C307 O303 1.278 . S
C307 O308 1.211 . S
O308 C307 1.211 . S
C309 O301 1.284 . S
C309 O310 1.273 . S
O310 C309 1.273 . S
O311 Zn302 1.977 . S
O311 C304 1.267 . S
Sc312 O315 2.025 . S
Sc312 O322 2.105 . S
Sc312 O325 2.105 . S
Sc312 O328 2.105 . S
Sc312 O331 2.105 . S
Sc313 O315 2.025 . S
Sc313 O323 2.105 . S
Sc313 O327 2.105 . S
Sc313 O329 2.105 . S
Sc313 O333 2.105 . S
Sc314 O315 2.025 . S
Sc314 O324 2.105 . S
Sc314 O326 2.105 . S
Sc314 O330 2.105 . S
Sc314 O332 2.105 . S
O315 Sc312 2.025 . S
O315 Sc313 2.025 . S
O315 Sc314 2.025 . S
C316 O322 1.268 . S
C316 O332 1.268 . S
C317 O323 1.268 . S
C317 O331 1.268 . S
C318 O324 1.268 . S
C318 O333 1.268 . S
C319 O325 1.268 . S
C319 O329 1.268 . S
C320 O326 1.268 . S
C320 O328 1.268 . S
C321 O327 1.268 . S
C321 O330 1.268 . S
O322 Sc312 2.105 . S
O322 C316 1.268 . S
O323 Sc313 2.105 . S
O323 C317 1.268 . S
O324 Sc314 2.105 . S
O324 C318 1.268 . S
O325 Sc312 2.105 . S
O325 C319 1.268 . S
O326 Sc314 2.105 . S
O326 C320 1.268 . S
O327 Sc313 2.105 . S
O327 C321 1.268 . S
O328 Sc312 2.105 . S
O328 C320 1.268 . S
O329 Sc313 2.105 . S
O329 C319 1.268 . S
O330 Sc314 2.105 . S
O330 C321 1.268 . S
O331 Sc312 2.105 . S
O331 C317 1.268 . S
O332 Sc314 2.105 . S
O332 C316 1.268 . S
O333 Sc313 2.105 . S
O333 C318 1.268 . S
Sc334 O337 2.025 . S
Sc334 O344 2.105 . S
Sc334 O347 2.105 . S
Sc334 O350 2.105 . S
Sc334 O353 2.105 . S
Sc335 O337 2.025 . S
Sc335 O345 2.105 . S
Sc335 O349 2.105 . S
Sc335 O351 2.105 . S
Sc335 O355 2.105 . S
Sc336 O337 2.025 . S
Sc336 O346 2.105 . S
Sc336 O348 2.105 . S
Sc336 O352 2.105 . S
Sc336 O354 2.105 . S
O337 Sc334 2.025 . S
O337 Sc335 2.025 . S
O337 Sc336 2.025 . S
C338 O344 1.268 . S
C338 O354 1.268 . S
C339 O345 1.268 . S
C339 O353 1.268 . S
C340 O346 1.268 . S
C340 O355 1.268 . S
C341 O347 1.268 . S
C341 O351 1.268 . S
C342 O348 1.268 . S
C342 O350 1.268 . S
C343 O349 1.268 . S
C343 O352 1.268 . S
O344 Sc334 2.105 . S
O344 C338 1.268 . S
O345 Sc335 2.105 . S
O345 C339 1.268 . S
O346 Sc336 2.105 . S
O346 C340 1.268 . S
O347 Sc334 2.105 . S
O347 C341 1.268 . S
O348 Sc336 2.105 . S
O348 C342 1.268 . S
O349 Sc335 2.105 . S
O349 C343 1.268 . S
O350 Sc334 2.105 . S
O350 C342 1.268 . S
O351 Sc335 2.105 . S
O351 C341 1.268 . S
O352 Sc336 2.105 . S
O352 C343 1.268 . S
O353 Sc334 2.105 . S
O353 C339 1.268 . S
O354 Sc336 2.105 . S
O354 C338 1.268 . S
O355 Sc335 2.105 . S
O355 C340 1.268 . S
Sc356 O359 2.025 . S
Sc356 O366 2.105 . S
Sc356 O369 2.105 . S
Sc356 O372 2.105 . S
Sc356 O375 2.105 . S
Sc357 O359 2.025 . S
Sc357 O367 2.105 . S
Sc357 O371 2.105 . S
Sc357 O373 2.105 . S
Sc357 O377 2.105 . S
Sc358 O359 2.025 . S
Sc358 O368 2.105 . S
Sc358 O370 2.105 . S
Sc358 O374 2.105 . S
Sc358 O376 2.105 . S
O359 Sc356 2.025 . S
O359 Sc357 2.025 . S
O359 Sc358 2.025 . S
C360 O366 1.268 . S
C360 O376 1.268 . S
C361 O367 1.268 . S
C361 O375 1.268 . S
C362 O368 1.268 . S
C362 O377 1.268 . S
C363 O369 1.268 . S
C363 O373 1.268 . S
C364 O370 1.268 . S
C364 O372 1.268 . S
C365 O371 1.268 . S
C365 O374 1.268 . S
O366 Sc356 2.105 . S
O366 C360 1.268 . S
O367 Sc357 2.105 . S
O367 C361 1.268 . S
O368 Sc358 2.105 . S
O368 C362 1.268 . S
O369 Sc356 2.105 . S
O369 C363 1.268 . S
O370 Sc358 2.105 . S
O370 C364 1.268 . S
O371 Sc357 2.105 . S
O371 C365 1.268 . S
O372 Sc356 2.105 . S
O372 C364 1.268 . S
O373 Sc357 2.105 . S
O373 C363 1.268 . S
O374 Sc358 2.105 . S
O374 C365 1.268 . S
O375 Sc356 2.105 . S
O375 C361 1.268 . S
O376 Sc358 2.105 . S
O376 C360 1.268 . S
O377 Sc357 2.105 . S
O377 C362 1.268 . S
Sc378 O381 2.025 . S
Sc378 O388 2.105 . S
Sc378 O391 2.105 . S
Sc378 O394 2.105 . S
Sc378 O397 2.105 . S
Sc379 O381 2.025 . S
Sc379 O389 2.105 . S
Sc379 O393 2.105 . S
Sc379 O395 2.105 . S
Sc379 O399 2.105 . S
Sc380 O381 2.025 . S
Sc380 O390 2.105 . S
Sc380 O392 2.105 . S
Sc380 O396 2.105 . S
Sc380 O398 2.105 . S
O381 Sc378 2.025 . S
O381 Sc379 2.025 . S
O381 Sc380 2.025 . S
C382 O388 1.268 . S
C382 O398 1.268 . S
C383 O389 1.268 . S
C383 O397 1.268 . S
C384 O390 1.268 . S
C384 O399 1.268 . S
C385 O391 1.268 . S
C385 O395 1.268 . S
C386 O392 1.268 . S
C386 O394 1.268 . S
C387 O393 1.268 . S
C387 O396 1.268 . S
O388 Sc378 2.105 . S
O388 C382 1.268 . S
O389 Sc379 2.105 . S
O389 C383 1.268 . S
O390 Sc380 2.105 . S
O390 C384 1.268 . S
O391 Sc378 2.105 . S
O391 C385 1.268 . S
O392 Sc380 2.105 . S
O392 C386 1.268 . S
O393 Sc379 2.105 . S
O393 C387 1.268 . S
O394 Sc378 2.105 . S
O394 C386 1.268 . S
O395 Sc379 2.105 . S
O395 C385 1.268 . S
O396 Sc380 2.105 . S
O396 C387 1.268 . S
O397 Sc378 2.105 . S
O397 C383 1.268 . S
O398 Sc380 2.105 . S
O398 C382 1.268 . S
O399 Sc379 2.105 . S
O399 C384 1.268 . S
Sc400 O403 2.025 . S
Sc400 O410 2.105 . S
Sc400 O413 2.105 . S
Sc400 O416 2.105 . S
Sc400 O419 2.105 . S
Sc401 O403 2.025 . S
Sc401 O411 2.105 . S
Sc401 O415 2.105 . S
Sc401 O417 2.105 . S
Sc401 O421 2.105 . S
Sc402 O403 2.025 . S
Sc402 O412 2.105 . S
Sc402 O414 2.105 . S
Sc402 O418 2.105 . S
Sc402 O420 2.105 . S
O403 Sc400 2.025 . S
O403 Sc401 2.025 . S
O403 Sc402 2.025 . S
C404 O410 1.268 . S
C404 O420 1.268 . S
C405 O411 1.268 . S
C405 O419 1.268 . S
C406 O412 1.268 . S
C406 O421 1.268 . S
C407 O413 1.268 . S
C407 O417 1.268 . S
C408 O414 1.268 . S
C408 O416 1.268 . S
C409 O415 1.268 . S
C409 O418 1.268 . S
O410 Sc400 2.105 . S
O410 C404 1.268 . S
O411 Sc401 2.105 . S
O411 C405 1.268 . S
O412 Sc402 2.105 . S
O412 C406 1.268 . S
O413 Sc400 2.105 . S
O413 C407 1.268 . S
O414 Sc402 2.105 . S
O414 C408 1.268 . S
O415 Sc401 2.105 . S
O415 C409 1.268 . S
O416 Sc400 2.105 . S
O416 C408 1.268 . S
O417 Sc401 2.105 . S
O417 C407 1.268 . S
O418 Sc402 2.105 . S
O418 C409 1.268 . S
O419 Sc400 2.105 . S
O419 C405 1.268 . S
O420 Sc402 2.105 . S
O420 C404 1.268 . S
O421 Sc401 2.105 . S
O421 C406 1.268 . S
Sc422 O425 2.025 . S
Sc422 O432 2.105 . S
Sc422 O435 2.105 . S
Sc422 O438 2.105 . S
Sc422 O441 2.105 . S
Sc423 O425 2.025 . S
Sc423 O433 2.105 . S
Sc423 O437 2.105 . S
Sc423 O439 2.105 . S
Sc423 O443 2.105 . S
Sc424 O425 2.025 . S
Sc424 O434 2.105 . S
Sc424 O436 2.105 . S
Sc424 O440 2.105 . S
Sc424 O442 2.105 . S
O425 Sc422 2.025 . S
O425 Sc423 2.025 . S
O425 Sc424 2.025 . S
C426 O432 1.268 . S
C426 O442 1.268 . S
C427 O433 1.268 . S
C427 O441 1.268 . S
C428 O434 1.268 . S
C428 O443 1.268 . S
C429 O435 1.268 . S
C429 O439 1.268 . S
C430 O436 1.268 . S
C430 O438 1.268 . S
C431 O437 1.268 . S
C431 O440 1.268 . S
O432 Sc422 2.105 . S
O432 C426 1.268 . S
O433 Sc423 2.105 . S
O433 C427 1.268 . S
O434 Sc424 2.105 . S
O434 C428 1.268 . S
O435 Sc422 2.105 . S
O435 C429 1.268 . S
O436 Sc424 2.105 . S
O436 C430 1.268 . S
O437 Sc423 2.105 . S
O437 C431 1.268 . S
O438 Sc422 2.105 . S
O438 C430 1.268 . S
O439 Sc423 2.105 . S
O439 C429 1.268 . S
O440 Sc424 2.105 . S
O440 C431 1.268 . S
O441 Sc422 2.105 . S
O441 C427 1.268 . S
O442 Sc424 2.105 . S
O442 C426 1.268 . S
O443 Sc423 2.105 . S
O443 C428 1.268 . S
Sc444 O447 2.025 . S
Sc444 O454 2.105 . S
Sc444 O457 2.105 . S
Sc444 O460 2.105 . S
Sc444 O463 2.105 . S
Sc445 O447 2.025 . S
Sc445 O455 2.105 . S
Sc445 O459 2.105 . S
Sc445 O461 2.105 . S
Sc445 O465 2.105 . S
Sc446 O447 2.025 . S
Sc446 O456 2.105 . S
Sc446 O458 2.105 . S
Sc446 O462 2.105 . S
Sc446 O464 2.105 . S
O447 Sc444 2.025 . S
O447 Sc445 2.025 . S
O447 Sc446 2.025 . S
C448 O454 1.268 . S
C448 O464 1.268 . S
C449 O455 1.268 . S
C449 O463 1.268 . S
C450 O456 1.268 . S
C450 O465 1.268 . S
C451 O457 1.268 . S
C451 O461 1.268 . S
C452 O458 1.268 . S
C452 O460 1.268 . S
C453 O459 1.268 . S
C453 O462 1.268 . S
O454 Sc444 2.105 . S
O454 C448 1.268 . S
O455 Sc445 2.105 . S
O455 C449 1.268 . S
O456 Sc446 2.105 . S
O456 C450 1.268 . S
O457 Sc444 2.105 . S
O457 C451 1.268 . S
O458 Sc446 2.105 . S
O458 C452 1.268 . S
O459 Sc445 2.105 . S
O459 C453 1.268 . S
O460 Sc444 2.105 . S
O460 C452 1.268 . S
O461 Sc445 2.105 . S
O461 C451 1.268 . S
O462 Sc446 2.105 . S
O462 C453 1.268 . S
O463 Sc444 2.105 . S
O463 C449 1.268 . S
O464 Sc446 2.105 . S
O464 C448 1.268 . S
O465 Sc445 2.105 . S
O465 C450 1.268 . S
Sc466 O469 2.025 . S
Sc466 O476 2.105 . S
Sc466 O479 2.105 . S
Sc466 O482 2.105 . S
Sc466 O485 2.105 . S
Sc467 O469 2.025 . S
Sc467 O477 2.105 . S
Sc467 O481 2.105 . S
Sc467 O483 2.105 . S
Sc467 O487 2.105 . S
Sc468 O469 2.025 . S
Sc468 O478 2.105 . S
Sc468 O480 2.105 . S
Sc468 O484 2.105 . S
Sc468 O486 2.105 . S
O469 Sc466 2.025 . S
O469 Sc467 2.025 . S
O469 Sc468 2.025 . S
C470 O476 1.268 . S
C470 O486 1.268 . S
C471 O477 1.268 . S
C471 O485 1.268 . S
C472 O478 1.268 . S
C472 O487 1.268 . S
C473 O479 1.268 . S
C473 O483 1.268 . S
C474 O480 1.268 . S
C474 O482 1.268 . S
C475 O481 1.268 . S
C475 O484 1.268 . S
O476 Sc466 2.105 . S
O476 C470 1.268 . S
O477 Sc467 2.105 . S
O477 C471 1.268 . S
O478 Sc468 2.105 . S
O478 C472 1.268 . S
O479 Sc466 2.105 . S
O479 C473 1.268 . S
O480 Sc468 2.105 . S
O480 C474 1.268 . S
O481 Sc467 2.105 . S
O481 C475 1.268 . S
O482 Sc466 2.105 . S
O482 C474 1.268 . S
O483 Sc467 2.105 . S
O483 C473 1.268 . S
O484 Sc468 2.105 . S
O484 C475 1.268 . S
O485 Sc466 2.105 . S
O485 C471 1.268 . S
O486 Sc468 2.105 . S
O486 C470 1.268 . S
O487 Sc467 2.105 . S
O487 C472 1.268 . S
Sc488 O491 2.025 . S
Sc488 O498 2.105 . S
Sc488 O501 2.105 . S
Sc488 O504 2.105 . S
Sc488 O507 2.105 . S
Sc489 O491 2.025 . S
Sc489 O499 2.105 . S
Sc489 O503 2.105 . S
Sc489 O505 2.105 . S
Sc489 O509 2.105 . S
Sc490 O491 2.025 . S
Sc490 O500 2.105 . S
Sc490 O502 2.105 . S
Sc490 O506 2.105 . S
Sc490 O508 2.105 . S
O491 Sc488 2.025 . S
O491 Sc489 2.025 . S
O491 Sc490 2.025 . S
C492 O498 1.268 . S
C492 O508 1.268 . S
C493 O499 1.268 . S
C493 O507 1.268 . S
C494 O500 1.268 . S
C494 O509 1.268 . S
C495 O501 1.268 . S
C495 O505 1.268 . S
C496 O502 1.268 . S
C496 O504 1.268 . S
C497 O503 1.268 . S
C497 O506 1.268 . S
O498 Sc488 2.105 . S
O498 C492 1.268 . S
O499 Sc489 2.105 . S
O499 C493 1.268 . S
O500 Sc490 2.105 . S
O500 C494 1.268 . S
O501 Sc488 2.105 . S
O501 C495 1.268 . S
O502 Sc490 2.105 . S
O502 C496 1.268 . S
O503 Sc489 2.105 . S
O503 C497 1.268 . S
O504 Sc488 2.105 . S
O504 C496 1.268 . S
O505 Sc489 2.105 . S
O505 C495 1.268 . S
O506 Sc490 2.105 . S
O506 C497 1.268 . S
O507 Sc488 2.105 . S
O507 C493 1.268 . S
O508 Sc490 2.105 . S
O508 C492 1.268 . S
O509 Sc489 2.105 . S
O509 C494 1.268 . S
Sc510 O513 2.025 . S
Sc510 O520 2.105 . S
Sc510 O523 2.105 . S
Sc510 O526 2.105 . S
Sc510 O529 2.105 . S
Sc511 O513 2.025 . S
Sc511 O521 2.105 . S
Sc511 O525 2.105 . S
Sc511 O527 2.105 . S
Sc511 O531 2.105 . S
Sc512 O513 2.025 . S
Sc512 O522 2.105 . S
Sc512 O524 2.105 . S
Sc512 O528 2.105 . S
Sc512 O530 2.105 . S
O513 Sc510 2.025 . S
O513 Sc511 2.025 . S
O513 Sc512 2.025 . S
C514 O520 1.268 . S
C514 O530 1.268 . S
C515 O521 1.268 . S
C515 O529 1.268 . S
C516 O522 1.268 . S
C516 O531 1.268 . S
C517 O523 1.268 . S
C517 O527 1.268 . S
C518 O524 1.268 . S
C518 O526 1.268 . S
C519 O525 1.268 . S
C519 O528 1.268 . S
O520 Sc510 2.105 . S
O520 C514 1.268 . S
O521 Sc511 2.105 . S
O521 C515 1.268 . S
O522 Sc512 2.105 . S
O522 C516 1.268 . S
O523 Sc510 2.105 . S
O523 C517 1.268 . S
O524 Sc512 2.105 . S
O524 C518 1.268 . S
O525 Sc511 2.105 . S
O525 C519 1.268 . S
O526 Sc510 2.105 . S
O526 C518 1.268 . S
O527 Sc511 2.105 . S
O527 C517 1.268 . S
O528 Sc512 2.105 . S
O528 C519 1.268 . S
O529 Sc510 2.105 . S
O529 C515 1.268 . S
O530 Sc512 2.105 . S
O530 C514 1.268 . S
O531 Sc511 2.105 . S
O531 C516 1.268 . S
Sc532 O535 2.025 . S
Sc532 O542 2.105 . S
Sc532 O545 2.105 . S
Sc532 O548 2.105 . S
Sc532 O551 2.105 . S
Sc533 O535 2.025 . S
Sc533 O543 2.105 . S
Sc533 O547 2.105 . S
Sc533 O549 2.105 . S
Sc533 O553 2.105 . S
Sc534 O535 2.025 . S
Sc534 O544 2.105 . S
Sc534 O546 2.105 . S
Sc534 O550 2.105 . S
Sc534 O552 2.105 . S
O535 Sc532 2.025 . S
O535 Sc533 2.025 . S
O535 Sc534 2.025 . S
C536 O542 1.268 . S
C536 O552 1.268 . S
C537 O543 1.268 . S
C537 O551 1.268 . S
C538 O544 1.268 . S
C538 O553 1.268 . S
C539 O545 1.268 . S
C539 O549 1.268 . S
C540 O546 1.268 . S
C540 O548 1.268 . S
C541 O547 1.268 . S
C541 O550 1.268 . S
O542 Sc532 2.105 . S
O542 C536 1.268 . S
O543 Sc533 2.105 . S
O543 C537 1.268 . S
O544 Sc534 2.105 . S
O544 C538 1.268 . S
O545 Sc532 2.105 . S
O545 C539 1.268 . S
O546 Sc534 2.105 . S
O546 C540 1.268 . S
O547 Sc533 2.105 . S
O547 C541 1.268 . S
O548 Sc532 2.105 . S
O548 C540 1.268 . S
O549 Sc533 2.105 . S
O549 C539 1.268 . S
O550 Sc534 2.105 . S
O550 C541 1.268 . S
O551 Sc532 2.105 . S
O551 C537 1.268 . S
O552 Sc534 2.105 . S
O552 C536 1.268 . S
O553 Sc533 2.105 . S
O553 C538 1.268 . S
Sc554 O557 2.025 . S
Sc554 O564 2.105 . S
Sc554 O567 2.105 . S
Sc554 O570 2.105 . S
Sc554 O573 2.105 . S
Sc555 O557 2.025 . S
Sc555 O565 2.105 . S
Sc555 O569 2.105 . S
Sc555 O571 2.105 . S
Sc555 O575 2.105 . S
Sc556 O557 2.025 . S
Sc556 O566 2.105 . S
Sc556 O568 2.105 . S
Sc556 O572 2.105 . S
Sc556 O574 2.105 . S
O557 Sc554 2.025 . S
O557 Sc555 2.025 . S
O557 Sc556 2.025 . S
C558 O564 1.268 . S
C558 O574 1.268 . S
C559 O565 1.268 . S
C559 O573 1.268 . S
C560 O566 1.268 . S
C560 O575 1.268 . S
C561 O567 1.268 . S
C561 O571 1.268 . S
C562 O568 1.268 . S
C562 O570 1.268 . S
C563 O569 1.268 . S
C563 O572 1.268 . S
O564 Sc554 2.105 . S
O564 C558 1.268 . S
O565 Sc555 2.105 . S
O565 C559 1.268 . S
O566 Sc556 2.105 . S
O566 C560 1.268 . S
O567 Sc554 2.105 . S
O567 C561 1.268 . S
O568 Sc556 2.105 . S
O568 C562 1.268 . S
O569 Sc555 2.105 . S
O569 C563 1.268 . S
O570 Sc554 2.105 . S
O570 C562 1.268 . S
O571 Sc555 2.105 . S
O571 C561 1.268 . S
O572 Sc556 2.105 . S
O572 C563 1.268 . S
O573 Sc554 2.105 . S
O573 C559 1.268 . S
O574 Sc556 2.105 . S
O574 C558 1.268 . S
O575 Sc555 2.105 . S
O575 C560 1.268 . S
Sc576 O579 2.025 . S
Sc576 O586 2.105 . S
Sc576 O589 2.105 . S
Sc576 O592 2.105 . S
Sc576 O595 2.105 . S
Sc577 O579 2.025 . S
Sc577 O587 2.105 . S
Sc577 O591 2.105 . S
Sc577 O593 2.105 . S
Sc577 O597 2.105 . S
Sc578 O579 2.025 . S
Sc578 O588 2.105 . S
Sc578 O590 2.105 . S
Sc578 O594 2.105 . S
Sc578 O596 2.105 . S
O579 Sc576 2.025 . S
O579 Sc577 2.025 . S
O579 Sc578 2.025 . S
C580 O586 1.268 . S
C580 O596 1.268 . S
C581 O587 1.268 . S
C581 O595 1.268 . S
C582 O588 1.268 . S
C582 O597 1.268 . S
C583 O589 1.268 . S
C583 O593 1.268 . S
C584 O590 1.268 . S
C584 O592 1.268 . S
C585 O591 1.268 . S
C585 O594 1.268 . S
O586 Sc576 2.105 . S
O586 C580 1.268 . S
O587 Sc577 2.105 . S
O587 C581 1.268 . S
O588 Sc578 2.105 . S
O588 C582 1.268 . S
O589 Sc576 2.105 . S
O589 C583 1.268 . S
O590 Sc578 2.105 . S
O590 C584 1.268 . S
O591 Sc577 2.105 . S
O591 C585 1.268 . S
O592 Sc576 2.105 . S
O592 C584 1.268 . S
O593 Sc577 2.105 . S
O593 C583 1.268 . S
O594 Sc578 2.105 . S
O594 C585 1.268 . S
O595 Sc576 2.105 . S
O595 C581 1.268 . S
O596 Sc578 2.105 . S
O596 C580 1.268 . S
O597 Sc577 2.105 . S
O597 C582 1.268 . S
Sc598 O601 2.025 . S
Sc598 O608 2.105 . S
Sc598 O611 2.105 . S
Sc598 O614 2.105 . S
Sc598 O617 2.105 . S
Sc599 O601 2.025 . S
Sc599 O609 2.105 . S
Sc599 O613 2.105 . S
Sc599 O615 2.105 . S
Sc599 O619 2.105 . S
Sc600 O601 2.025 . S
Sc600 O610 2.105 . S
Sc600 O612 2.105 . S
Sc600 O616 2.105 . S
Sc600 O618 2.105 . S
O601 Sc598 2.025 . S
O601 Sc599 2.025 . S
O601 Sc600 2.025 . S
C602 O608 1.268 . S
C602 O618 1.268 . S
C603 O609 1.268 . S
C603 O617 1.268 . S
C604 O610 1.268 . S
C604 O619 1.268 . S
C605 O611 1.268 . S
C605 O615 1.268 . S
C606 O612 1.268 . S
C606 O614 1.268 . S
C607 O613 1.268 . S
C607 O616 1.268 . S
O608 Sc598 2.105 . S
O608 C602 1.268 . S
O609 Sc599 2.105 . S
O609 C603 1.268 . S
O610 Sc600 2.105 . S
O610 C604 1.268 . S
O611 Sc598 2.105 . S
O611 C605 1.268 . S
O612 Sc600 2.105 . S
O612 C606 1.268 . S
O613 Sc599 2.105 . S
O613 C607 1.268 . S
O614 Sc598 2.105 . S
O614 C606 1.268 . S
O615 Sc599 2.105 . S
O615 C605 1.268 . S
O616 Sc600 2.105 . S
O616 C607 1.268 . S
O617 Sc598 2.105 . S
O617 C603 1.268 . S
O618 Sc600 2.105 . S
O618 C602 1.268 . S
O619 Sc599 2.105 . S
O619 C604 1.268 . S
Sc620 O623 2.025 . S
Sc620 O630 2.105 . S
Sc620 O633 2.105 . S
Sc620 O636 2.105 . S
Sc620 O639 2.105 . S
Sc621 O623 2.025 . S
Sc621 O631 2.105 . S
Sc621 O635 2.105 . S
Sc621 O637 2.105 . S
Sc621 O641 2.105 . S
Sc622 O623 2.025 . S
Sc622 O632 2.105 . S
Sc622 O634 2.105 . S
Sc622 O638 2.105 . S
Sc622 O640 2.105 . S
O623 Sc620 2.025 . S
O623 Sc621 2.025 . S
O623 Sc622 2.025 . S
C624 O630 1.268 . S
C624 O640 1.268 . S
C625 O631 1.268 . S
C625 O639 1.268 . S
C626 O632 1.268 . S
C626 O641 1.268 . S
C627 O633 1.268 . S
C627 O637 1.268 . S
C628 O634 1.268 . S
C628 O636 1.268 . S
C629 O635 1.268 . S
C629 O638 1.268 . S
O630 Sc620 2.105 . S
O630 C624 1.268 . S
O631 Sc621 2.105 . S
O631 C625 1.268 . S
O632 Sc622 2.105 . S
O632 C626 1.268 . S
O633 Sc620 2.105 . S
O633 C627 1.268 . S
O634 Sc622 2.105 . S
O634 C628 1.268 . S
O635 Sc621 2.105 . S
O635 C629 1.268 . S
O636 Sc620 2.105 . S
O636 C628 1.268 . S
O637 Sc621 2.105 . S
O637 C627 1.268 . S
O638 Sc622 2.105 . S
O638 C629 1.268 . S
O639 Sc620 2.105 . S
O639 C625 1.268 . S
O640 Sc622 2.105 . S
O640 C624 1.268 . S
O641 Sc621 2.105 . S
O641 C626 1.268 . S
Sc642 O645 2.025 . S
Sc642 O652 2.105 . S
Sc642 O655 2.105 . S
Sc642 O658 2.105 . S
Sc642 O661 2.105 . S
Sc643 O645 2.025 . S
Sc643 O653 2.105 . S
Sc643 O657 2.105 . S
Sc643 O659 2.105 . S
Sc643 O663 2.105 . S
Sc644 O645 2.025 . S
Sc644 O654 2.105 . S
Sc644 O656 2.105 . S
Sc644 O660 2.105 . S
Sc644 O662 2.105 . S
O645 Sc642 2.025 . S
O645 Sc643 2.025 . S
O645 Sc644 2.025 . S
C646 O652 1.268 . S
C646 O662 1.268 . S
C647 O653 1.268 . S
C647 O661 1.268 . S
C648 O654 1.268 . S
C648 O663 1.268 . S
C649 O655 1.268 . S
C649 O659 1.268 . S
C650 O656 1.268 . S
C650 O658 1.268 . S
C651 O657 1.268 . S
C651 O660 1.268 . S
O652 Sc642 2.105 . S
O652 C646 1.268 . S
O653 Sc643 2.105 . S
O653 C647 1.268 . S
O654 Sc644 2.105 . S
O654 C648 1.268 . S
O655 Sc642 2.105 . S
O655 C649 1.268 . S
O656 Sc644 2.105 . S
O656 C650 1.268 . S
O657 Sc643 2.105 . S
O657 C651 1.268 . S
O658 Sc642 2.105 . S
O658 C650 1.268 . S
O659 Sc643 2.105 . S
O659 C649 1.268 . S
O660 Sc644 2.105 . S
O660 C651 1.268 . S
O661 Sc642 2.105 . S
O661 C647 1.268 . S
O662 Sc644 2.105 . S
O662 C646 1.268 . S
O663 Sc643 2.105 . S
O663 C648 1.268 . S
H664 C672 0.950 . S
H665 C677 0.950 . S
H666 C674 0.950 . S
H667 C676 0.950 . S
H668 C678 0.950 . S
H669 C680 0.950 . S
H670 C682 0.950 . S
H671 C683 0.950 . S
C672 H664 0.950 . S
C672 C673 1.386 . S
C672 C674 1.391 . S
C673 C672 1.386 . S
C673 C677 1.393 . S
C674 H666 0.950 . S
C674 C672 1.391 . S
C674 C675 1.400 . S
C675 C674 1.400 . S
C675 C676 1.398 . S
C675 C681 1.491 . S
C676 H667 0.950 . S
C676 C675 1.398 . S
C676 C677 1.391 . S
C677 H665 0.950 . S
C677 C673 1.393 . S
C677 C676 1.391 . S
C678 H668 0.950 . S
C678 C679 1.386 . S
C678 C680 1.391 . S
C679 C678 1.386 . S
C679 C683 1.393 . S
C680 H669 0.950 . S
C680 C678 1.391 . S
C680 C681 1.400 . S
C681 C675 1.491 . S
C681 C680 1.400 . S
C681 C682 1.398 . S
C682 H670 0.950 . S
C682 C681 1.398 . S
C682 C683 1.391 . S
C683 H671 0.950 . S
C683 C679 1.393 . S
C683 C682 1.391 . S
H684 C692 0.950 . S
H685 C697 0.950 . S
H686 C694 0.950 . S
H687 C696 0.950 . S
H688 C698 0.950 . S
H689 C700 0.950 . S
H690 C702 0.950 . S
H691 C703 0.950 . S
C692 H684 0.950 . S
C692 C693 1.386 . S
C692 C694 1.391 . S
C693 C692 1.386 . S
C693 C697 1.393 . S
C694 H686 0.950 . S
C694 C692 1.391 . S
C694 C695 1.400 . S
C695 C694 1.400 . S
C695 C696 1.398 . S
C695 C701 1.491 . S
C696 H687 0.950 . S
C696 C695 1.398 . S
C696 C697 1.391 . S
C697 H685 0.950 . S
C697 C693 1.393 . S
C697 C696 1.391 . S
C698 H688 0.950 . S
C698 C699 1.386 . S
C698 C700 1.391 . S
C699 C698 1.386 . S
C699 C703 1.393 . S
C700 H689 0.950 . S
C700 C698 1.391 . S
C700 C701 1.400 . S
C701 C695 1.491 . S
C701 C700 1.400 . S
C701 C702 1.398 . S
C702 H690 0.950 . S
C702 C701 1.398 . S
C702 C703 1.391 . S
C703 H691 0.950 . S
C703 C699 1.393 . S
C703 C702 1.391 . S
H704 C712 0.950 . S
H705 C717 0.950 . S
H706 C714 0.950 . S
H707 C716 0.950 . S
H708 C718 0.950 . S
H709 C720 0.950 . S
H710 C722 0.950 . S
H711 C723 0.950 . S
C712 H704 0.950 . S
C712 C713 1.386 . S
C712 C714 1.391 . S
C713 C712 1.386 . S
C713 C717 1.393 . S
C714 H706 0.950 . S
C714 C712 1.391 . S
C714 C715 1.400 . S
C715 C714 1.400 . S
C715 C716 1.398 . S
C715 C721 1.491 . S
C716 H707 0.950 . S
C716 C715 1.398 . S
C716 C717 1.391 . S
C717 H705 0.950 . S
C717 C713 1.393 . S
C717 C716 1.391 . S
C718 H708 0.950 . S
C718 C719 1.386 . S
C718 C720 1.391 . S
C719 C718 1.386 . S
C719 C723 1.393 . S
C720 H709 0.950 . S
C720 C718 1.391 . S
C720 C721 1.400 . S
C721 C715 1.491 . S
C721 C720 1.400 . S
C721 C722 1.398 . S
C722 H710 0.950 . S
C722 C721 1.398 . S
C722 C723 1.391 . S
C723 H711 0.950 . S
C723 C719 1.393 . S
C723 C722 1.391 . S
H724 C732 0.950 . S
H725 C737 0.950 . S
H726 C734 0.950 . S
H727 C736 0.950 . S
H728 C738 0.950 . S
H729 C740 0.950 . S
H730 C742 0.950 . S
H731 C743 0.950 . S
C732 H724 0.950 . S
C732 C733 1.386 . S
C732 C734 1.391 . S
C733 C732 1.386 . S
C733 C737 1.393 . S
C734 H726 0.950 . S
C734 C732 1.391 . S
C734 C735 1.400 . S
C735 C734 1.400 . S
C735 C736 1.398 . S
C735 C741 1.491 . S
C736 H727 0.950 . S
C736 C735 1.398 . S
C736 C737 1.391 . S
C737 H725 0.950 . S
C737 C733 1.393 . S
C737 C736 1.391 . S
C738 H728 0.950 . S
C738 C739 1.386 . S
C738 C740 1.391 . S
C739 C738 1.386 . S
C739 C743 1.393 . S
C740 H729 0.950 . S
C740 C738 1.391 . S
C740 C741 1.400 1_556 S
C741 C735 1.491 . S
C741 C740 1.400 1_554 S
C741 C742 1.398 . S
C742 H730 0.950 . S
C742 C741 1.398 . S
C742 C743 1.391 1_554 S
C743 H731 0.950 . S
C743 C739 1.393 . S
C743 C742 1.391 1_556 S
H744 C752 0.950 . S
H745 C757 0.950 . S
H746 C754 0.950 . S
H747 C756 0.950 . S
H748 C758 0.950 . S
H749 C760 0.950 . S
H750 C762 0.950 . S
H751 C763 0.950 . S
C752 H744 0.950 . S
C752 C753 1.386 . S
C752 C754 1.391 . S
C753 C752 1.386 . S
C753 C757 1.393 . S
C754 H746 0.950 . S
C754 C752 1.391 . S
C754 C755 1.400 . S
C755 C754 1.400 . S
C755 C756 1.398 . S
C755 C761 1.491 . S
C756 H747 0.950 . S
C756 C755 1.398 . S
C756 C757 1.391 . S
C757 H745 0.950 . S
C757 C753 1.393 . S
C757 C756 1.391 . S
C758 H748 0.950 . S
C758 C759 1.386 . S
C758 C760 1.391 . S
C759 C758 1.386 . S
C759 C763 1.393 . S
C760 H749 0.950 . S
C760 C758 1.391 . S
C760 C761 1.400 . S
C761 C755 1.491 . S
C761 C760 1.400 . S
C761 C762 1.398 . S
C762 H750 0.950 . S
C762 C761 1.398 . S
C762 C763 1.391 . S
C763 H751 0.950 . S
C763 C759 1.393 . S
C763 C762 1.391 . S
H764 C772 0.950 . S
H765 C777 0.950 . S
H766 C774 0.950 . S
H767 C776 0.950 . S
H768 C778 0.950 . S
H769 C780 0.950 . S
H770 C782 0.950 . S
H771 C783 0.950 . S
C772 H764 0.950 . S
C772 C773 1.386 . S
C772 C774 1.391 . S
C773 C772 1.386 . S
C773 C777 1.393 . S
C774 H766 0.950 . S
C774 C772 1.391 . S
C774 C775 1.400 . S
C775 C774 1.400 . S
C775 C776 1.398 . S
C775 C781 1.491 . S
C776 H767 0.950 . S
C776 C775 1.398 . S
C776 C777 1.391 . S
C777 H765 0.950 . S
C777 C773 1.393 . S
C777 C776 1.391 . S
C778 H768 0.950 . S
C778 C779 1.386 . S
C778 C780 1.391 . S
C779 C778 1.386 . S
C779 C783 1.393 . S
C780 H769 0.950 . S
C780 C778 1.391 . S
C780 C781 1.400 . S
C781 C775 1.491 . S
C781 C780 1.400 . S
C781 C782 1.398 . S
C782 H770 0.950 . S
C782 C781 1.398 . S
C782 C783 1.391 . S
C783 H771 0.950 . S
C783 C779 1.393 . S
C783 C782 1.391 . S
H784 C792 0.950 . S
H785 C797 0.950 . S
H786 C794 0.950 . S
H787 C796 0.950 . S
H788 C798 0.950 . S
H789 C800 0.950 . S
H790 C802 0.950 . S
H791 C803 0.950 . S
C792 H784 0.950 . S
C792 C793 1.386 . S
C792 C794 1.391 . S
C793 C792 1.386 . S
C793 C797 1.393 . S
C794 H786 0.950 . S
C794 C792 1.391 . S
C794 C795 1.400 . S
C795 C794 1.400 . S
C795 C796 1.398 . S
C795 C801 1.491 . S
C796 H787 0.950 . S
C796 C795 1.398 . S
C796 C797 1.391 . S
C797 H785 0.950 . S
C797 C793 1.393 . S
C797 C796 1.391 . S
C798 H788 0.950 . S
C798 C799 1.386 . S
C798 C800 1.391 . S
C799 C798 1.386 . S
C799 C803 1.393 . S
C800 H789 0.950 . S
C800 C798 1.391 . S
C800 C801 1.400 . S
C801 C795 1.491 . S
C801 C800 1.400 . S
C801 C802 1.398 . S
C802 H790 0.950 . S
C802 C801 1.398 . S
C802 C803 1.391 . S
C803 H791 0.950 . S
C803 C799 1.393 . S
C803 C802 1.391 . S
H804 C812 0.950 . S
H805 C817 0.950 . S
H806 C814 0.950 . S
H807 C816 0.950 . S
H808 C818 0.950 . S
H809 C820 0.950 1_556 S
H810 C822 0.950 . S
H811 C823 0.950 . S
C812 H804 0.950 . S
C812 C813 1.386 . S
C812 C814 1.391 . S
C813 C812 1.386 . S
C813 C817 1.393 . S
C814 H806 0.950 . S
C814 C812 1.391 . S
C814 C815 1.400 . S
C815 C814 1.400 . S
C815 C816 1.398 . S
C815 C821 1.491 1_556 S
C816 H807 0.950 . S
C816 C815 1.398 . S
C816 C817 1.391 . S
C817 H805 0.950 . S
C817 C813 1.393 . S
C817 C816 1.391 . S
C818 H808 0.950 . S
C818 C819 1.386 . S
C818 C820 1.391 . S
C819 C818 1.386 . S
C819 C823 1.393 . S
C820 H809 0.950 1_554 S
C820 C818 1.391 . S
C820 C821 1.400 . S
C821 C815 1.491 1_554 S
C821 C820 1.400 . S
C821 C822 1.398 . S
C822 H810 0.950 . S
C822 C821 1.398 . S
C822 C823 1.391 . S
C823 H811 0.950 . S
C823 C819 1.393 . S
C823 C822 1.391 . S
H824 C832 0.950 . S
H825 C837 0.950 . S
H826 C834 0.950 . S
H827 C836 0.950 . S
H828 C838 0.950 . S
H829 C840 0.950 . S
H830 C842 0.950 . S
H831 C843 0.950 . S
C832 H824 0.950 . S
C832 C833 1.386 . S
C832 C834 1.391 . S
C833 C832 1.386 . S
C833 C837 1.393 . S
C834 H826 0.950 . S
C834 C832 1.391 . S
C834 C835 1.400 . S
C835 C834 1.400 . S
C835 C836 1.398 . S
C835 C841 1.491 . S
C836 H827 0.950 . S
C836 C835 1.398 . S
C836 C837 1.391 . S
C837 H825 0.950 . S
C837 C833 1.393 . S
C837 C836 1.391 . S
C838 H828 0.950 . S
C838 C839 1.386 . S
C838 C840 1.391 . S
C839 C838 1.386 . S
C839 C843 1.393 . S
C840 H829 0.950 . S
C840 C838 1.391 . S
C840 C841 1.400 . S
C841 C835 1.491 . S
C841 C840 1.400 . S
C841 C842 1.398 . S
C842 H830 0.950 . S
C842 C841 1.398 . S
C842 C843 1.391 . S
C843 H831 0.950 . S
C843 C839 1.393 . S
C843 C842 1.391 . S
H844 C852 0.950 . S
H845 C857 0.950 . S
H846 C854 0.950 . S
H847 C856 0.950 . S
H848 C858 0.950 . S
H849 C860 0.950 . S
H850 C862 0.950 . S
H851 C863 0.950 . S
C852 H844 0.950 . S
C852 C853 1.386 . S
C852 C854 1.391 . S
C853 C852 1.386 . S
C853 C857 1.393 . S
C854 H846 0.950 . S
C854 C852 1.391 . S
C854 C855 1.400 . S
C855 C854 1.400 . S
C855 C856 1.398 . S
C855 C861 1.491 . S
C856 H847 0.950 . S
C856 C855 1.398 . S
C856 C857 1.391 . S
C857 H845 0.950 . S
C857 C853 1.393 . S
C857 C856 1.391 . S
C858 H848 0.950 . S
C858 C859 1.386 . S
C858 C860 1.391 . S
C859 C858 1.386 . S
C859 C863 1.393 . S
C860 H849 0.950 . S
C860 C858 1.391 . S
C860 C861 1.400 1_565 S
C861 C855 1.491 . S
C861 C860 1.400 1_545 S
C861 C862 1.398 . S
C862 H850 0.950 . S
C862 C861 1.398 . S
C862 C863 1.391 1_545 S
C863 H851 0.950 . S
C863 C859 1.393 . S
C863 C862 1.391 1_565 S
H864 C872 0.950 . S
H865 C877 0.950 . S
H866 C874 0.950 . S
H867 C876 0.950 . S
H868 C878 0.950 . S
H869 C880 0.950 . S
H870 C882 0.950 . S
H871 C883 0.950 . S
C872 H864 0.950 . S
C872 C873 1.386 . S
C872 C874 1.391 . S
C873 C872 1.386 . S
C873 C877 1.393 . S
C874 H866 0.950 . S
C874 C872 1.391 . S
C874 C875 1.400 . S
C875 C874 1.400 . S
C875 C876 1.398 . S
C875 C881 1.491 . S
C876 H867 0.950 . S
C876 C875 1.398 . S
C876 C877 1.391 . S
C877 H865 0.950 . S
C877 C873 1.393 . S
C877 C876 1.391 . S
C878 H868 0.950 . S
C878 C879 1.386 . S
C878 C880 1.391 . S
C879 C878 1.386 . S
C879 C883 1.393 . S
C880 H869 0.950 . S
C880 C878 1.391 . S
C880 C881 1.400 . S
C881 C875 1.491 . S
C881 C880 1.400 . S
C881 C882 1.398 . S
C882 H870 0.950 . S
C882 C881 1.398 . S
C882 C883 1.391 . S
C883 H871 0.950 . S
C883 C879 1.393 . S
C883 C882 1.391 . S
H884 C892 0.950 . S
H885 C897 0.950 . S
H886 C894 0.950 . S
H887 C896 0.950 . S
H888 C898 0.950 . S
H889 C900 0.950 . S
H890 C902 0.950 . S
H891 C903 0.950 . S
C892 H884 0.950 . S
C892 C893 1.386 . S
C892 C894 1.391 . S
C893 C892 1.386 . S
C893 C897 1.393 . S
C894 H886 0.950 . S
C894 C892 1.391 . S
C894 C895 1.400 . S
C895 C894 1.400 . S
C895 C896 1.398 . S
C895 C901 1.491 1_565 S
C896 H887 0.950 . S
C896 C895 1.398 . S
C896 C897 1.391 . S
C897 H885 0.950 . S
C897 C893 1.393 . S
C897 C896 1.391 . S
C898 H888 0.950 . S
C898 C899 1.386 . S
C898 C900 1.391 . S
C899 C898 1.386 . S
C899 C903 1.393 . S
C900 H889 0.950 . S
C900 C898 1.391 . S
C900 C901 1.400 . S
C901 C895 1.491 1_545 S
C901 C900 1.400 . S
C901 C902 1.398 . S
C902 H890 0.950 . S
C902 C901 1.398 . S
C902 C903 1.391 . S
C903 H891 0.950 . S
C903 C899 1.393 . S
C903 C902 1.391 . S
H904 C912 0.950 . S
H905 C917 0.950 . S
H906 C914 0.950 . S
H907 C916 0.950 . S
H908 C918 0.950 . S
H909 C920 0.950 . S
H910 C922 0.950 . S
H911 C923 0.950 . S
C912 H904 0.950 . S
C912 C913 1.386 . S
C912 C914 1.391 . S
C913 C912 1.386 . S
C913 C917 1.393 . S
C914 H906 0.950 . S
C914 C912 1.391 . S
C914 C915 1.400 . S
C915 C914 1.400 . S
C915 C916 1.398 . S
C915 C921 1.491 . S
C916 H907 0.950 . S
C916 C915 1.398 . S
C916 C917 1.391 . S
C917 H905 0.950 . S
C917 C913 1.393 . S
C917 C916 1.391 . S
C918 H908 0.950 . S
C918 C919 1.386 . S
C918 C920 1.391 . S
C919 C918 1.386 . S
C919 C923 1.393 . S
C920 H909 0.950 . S
C920 C918 1.391 . S
C920 C921 1.400 . S
C921 C915 1.491 . S
C921 C920 1.400 . S
C921 C922 1.398 . S
C922 H910 0.950 . S
C922 C921 1.398 . S
C922 C923 1.391 . S
C923 H911 0.950 . S
C923 C919 1.393 . S
C923 C922 1.391 . S
H924 C932 0.950 . S
H925 C937 0.950 . S
H926 C934 0.950 . S
H927 C936 0.950 . S
H928 C938 0.950 . S
H929 C940 0.950 . S
H930 C942 0.950 . S
H931 C943 0.950 . S
C932 H924 0.950 . S
C932 C933 1.386 . S
C932 C934 1.391 . S
C933 C932 1.386 . S
C933 C937 1.393 . S
C934 H926 0.950 . S
C934 C932 1.391 . S
C934 C935 1.400 . S
C935 C934 1.400 . S
C935 C936 1.398 . S
C935 C941 1.491 . S
C936 H927 0.950 . S
C936 C935 1.398 . S
C936 C937 1.391 . S
C937 H925 0.950 . S
C937 C933 1.393 . S
C937 C936 1.391 . S
C938 H928 0.950 . S
C938 C939 1.386 . S
C938 C940 1.391 1_565 S
C939 C938 1.386 . S
C939 C943 1.393 . S
C940 H929 0.950 . S
C940 C938 1.391 1_545 S
C940 C941 1.400 . S
C941 C935 1.491 . S
C941 C940 1.400 . S
C941 C942 1.398 1_545 S
C942 H930 0.950 . S
C942 C941 1.398 1_565 S
C942 C943 1.391 . S
C943 H931 0.950 . S
C943 C939 1.393 . S
C943 C942 1.391 . S
H944 C952 0.950 . S
H945 C957 0.950 . S
H946 C954 0.950 . S
H947 C956 0.950 . S
H948 C958 0.950 . S
H949 C960 0.950 . S
H950 C962 0.950 . S
H951 C963 0.950 . S
C952 H944 0.950 . S
C952 C953 1.386 . S
C952 C954 1.391 . S
C953 C952 1.386 . S
C953 C957 1.393 . S
C954 H946 0.950 . S
C954 C952 1.391 . S
C954 C955 1.400 . S
C955 C954 1.400 . S
C955 C956 1.398 . S
C955 C961 1.491 . S
C956 H947 0.950 . S
C956 C955 1.398 . S
C956 C957 1.391 . S
C957 H945 0.950 . S
C957 C953 1.393 . S
C957 C956 1.391 . S
C958 H948 0.950 . S
C958 C959 1.386 . S
C958 C960 1.391 . S
C959 C958 1.386 . S
C959 C963 1.393 . S
C960 H949 0.950 . S
C960 C958 1.391 . S
C960 C961 1.400 . S
C961 C955 1.491 . S
C961 C960 1.400 . S
C961 C962 1.398 . S
C962 H950 0.950 . S
C962 C961 1.398 . S
C962 C963 1.391 . S
C963 H951 0.950 . S
C963 C959 1.393 . S
C963 C962 1.391 . S
H964 C972 0.950 . S
H965 C977 0.950 . S
H966 C974 0.950 . S
H967 C976 0.959 . S
H968 C978 0.950 . S
H969 C980 0.950 . S
H970 C982 0.950 1_565 S
H971 C983 0.950 . S
C972 H964 0.950 . S
C972 C973 1.386 . S
C972 C974 1.391 . S
C973 C972 1.386 . S
C973 C977 1.393 . S
C974 H966 0.950 . S
C974 C972 1.391 . S
C974 C975 1.400 . S
C975 C974 1.400 . S
C975 C976 1.398 . S
C975 C981 1.491 1_565 S
C976 H967 0.959 . S
C976 C975 1.398 . S
C976 C977 1.391 . S
C977 H965 0.950 . S
C977 C973 1.393 . S
C977 C976 1.391 . S
C978 H968 0.950 . S
C978 C979 1.386 . S
C978 C980 1.391 . S
C979 C978 1.386 . S
C979 C983 1.393 . S
C980 H969 0.950 . S
C980 C978 1.391 . S
C980 C981 1.400 . S
C981 C975 1.491 1_545 S
C981 C980 1.400 . S
C981 C982 1.398 . S
C982 H970 0.950 1_545 S
C982 C981 1.398 . S
C982 C983 1.391 . S
C983 H971 0.950 . S
C983 C979 1.393 . S
C983 C982 1.391 . S
H984 C992 0.950 . S
H985 C997 0.950 . S
H986 C994 0.950 . S
H987 C996 0.950 . S
H988 C998 0.950 . S
H989 C1000 0.950 . S
H990 C1002 0.950 . S
H991 C1003 0.950 . S
C992 H984 0.950 . S
C992 C993 1.386 . S
C992 C994 1.391 . S
C993 C992 1.386 . S
C993 C997 1.393 . S
C994 H986 0.950 . S
C994 C992 1.391 . S
C994 C995 1.400 . S
C995 C994 1.400 . S
C995 C996 1.398 . S
C995 C1001 1.491 . S
C996 H987 0.950 . S
C996 C995 1.398 . S
C996 C997 1.391 . S
C997 H985 0.950 . S
C997 C993 1.393 . S
C997 C996 1.391 . S
C998 H988 0.950 . S
C998 C999 1.386 . S
C998 C1000 1.391 . S
C999 C998 1.386 . S
C999 C1003 1.393 . S
C1000 H989 0.950 . S
C1000 C998 1.391 . S
C1000 C1001 1.400 . S
C1001 C995 1.491 . S
C1001 C1000 1.400 . S
C1001 C1002 1.398 . S
C1002 H990 0.950 . S
C1002 C1001 1.398 . S
C1002 C1003 1.391 . S
C1003 H991 0.950 . S
C1003 C999 1.393 . S
C1003 C1002 1.391 . S
H1004 C1012 0.950 . S
H1005 C1017 0.950 . S
H1006 C1014 0.950 . S
H1007 C1016 0.950 . S
H1008 C1018 0.950 . S
H1009 C1020 0.950 . S
H1010 C1022 0.950 . S
H1011 C1023 0.950 . S
C1012 H1004 0.950 . S
C1012 C1013 1.386 . S
C1012 C1014 1.391 . S
C1013 C1012 1.386 . S
C1013 C1017 1.393 . S
C1014 H1006 0.950 . S
C1014 C1012 1.391 . S
C1014 C1015 1.400 . S
C1015 C1014 1.400 . S
C1015 C1016 1.398 . S
C1015 C1021 1.491 . S
C1016 H1007 0.950 . S
C1016 C1015 1.398 . S
C1016 C1017 1.391 . S
C1017 H1005 0.950 . S
C1017 C1013 1.393 . S
C1017 C1016 1.391 . S
C1018 H1008 0.950 . S
C1018 C1019 1.386 . S
C1018 C1020 1.391 . S
C1019 C1018 1.386 . S
C1019 C1023 1.393 . S
C1020 H1009 0.950 . S
C1020 C1018 1.391 . S
C1020 C1021 1.400 . S
C1021 C1015 1.491 . S
C1021 C1020 1.400 . S
C1021 C1022 1.398 . S
C1022 H1010 0.950 . S
C1022 C1021 1.398 . S
C1022 C1023 1.391 . S
C1023 H1011 0.950 . S
C1023 C1019 1.393 . S
C1023 C1022 1.391 . S
H1024 C1032 0.950 . S
H1025 C1037 0.950 . S
H1026 C1034 0.950 . S
H1027 C1036 0.950 . S
H1028 C1038 0.950 . S
H1029 C1040 0.950 . S
H1030 C1042 0.950 . S
H1031 C1043 0.949 . S
C1032 H1024 0.950 . S
C1032 C1033 1.386 . S
C1032 C1034 1.391 . S
C1033 C1032 1.386 . S
C1033 C1037 1.393 . S
C1034 H1026 0.950 . S
C1034 C1032 1.391 . S
C1034 C1035 1.400 . S
C1035 C1034 1.400 . S
C1035 C1036 1.398 . S
C1035 C1041 1.491 . S
C1036 H1027 0.950 . S
C1036 C1035 1.398 . S
C1036 C1037 1.391 . S
C1037 H1025 0.950 . S
C1037 C1033 1.393 . S
C1037 C1036 1.391 . S
C1038 H1028 0.950 . S
C1038 C1039 1.386 . S
C1038 C1040 1.391 . S
C1039 C1038 1.386 . S
C1039 C1043 1.393 . S
C1040 H1029 0.950 . S
C1040 C1038 1.391 . S
C1040 C1041 1.400 1_655 S
C1041 C1035 1.491 . S
C1041 C1040 1.400 1_455 S
C1041 C1042 1.398 . S
C1042 H1030 0.950 . S
C1042 C1041 1.398 . S
C1042 C1043 1.391 1_455 S
C1043 H1031 0.949 . S
C1043 C1039 1.393 . S
C1043 C1042 1.391 1_655 S
H1044 C1052 0.950 . S
H1045 C1057 0.950 . S
H1046 C1054 0.950 . S
H1047 C1056 0.950 . S
H1048 C1058 0.950 . S
H1049 C1060 0.950 . S
H1050 C1062 0.950 . S
H1051 C1063 0.950 . S
C1052 H1044 0.950 . S
C1052 C1053 1.386 . S
C1052 C1054 1.391 . S
C1053 C1052 1.386 . S
C1053 C1057 1.393 . S
C1054 H1046 0.950 . S
C1054 C1052 1.391 . S
C1054 C1055 1.400 . S
C1055 C1054 1.400 . S
C1055 C1056 1.398 . S
C1055 C1061 1.491 . S
C1056 H1047 0.950 . S
C1056 C1055 1.398 . S
C1056 C1057 1.391 . S
C1057 H1045 0.950 . S
C1057 C1053 1.393 . S
C1057 C1056 1.391 . S
C1058 H1048 0.950 . S
C1058 C1059 1.386 . S
C1058 C1060 1.391 . S
C1059 C1058 1.386 . S
C1059 C1063 1.393 . S
C1060 H1049 0.950 . S
C1060 C1058 1.391 . S
C1060 C1061 1.400 . S
C1061 C1055 1.491 . S
C1061 C1060 1.400 . S
C1061 C1062 1.398 . S
C1062 H1050 0.950 . S
C1062 C1061 1.398 . S
C1062 C1063 1.391 . S
C1063 H1051 0.950 . S
C1063 C1059 1.393 . S
C1063 C1062 1.391 . S
H1064 C1072 0.950 . S
H1065 C1077 0.950 . S
H1066 C1074 0.950 . S
H1067 C1076 0.950 . S
H1068 C1078 0.950 . S
H1069 C1080 0.950 . S
H1070 C1082 0.950 1_655 S
H1071 C1083 0.950 . S
C1072 H1064 0.950 . S
C1072 C1073 1.386 . S
C1072 C1074 1.391 . S
C1073 C1072 1.386 . S
C1073 C1077 1.393 . S
C1074 H1066 0.950 . S
C1074 C1072 1.391 . S
C1074 C1075 1.400 . S
C1075 C1074 1.400 . S
C1075 C1076 1.398 . S
C1075 C1081 1.491 1_655 S
C1076 H1067 0.950 . S
C1076 C1075 1.398 . S
C1076 C1077 1.391 . S
C1077 H1065 0.950 . S
C1077 C1073 1.393 . S
C1077 C1076 1.391 . S
C1078 H1068 0.950 . S
C1078 C1079 1.386 . S
C1078 C1080 1.391 . S
C1079 C1078 1.386 . S
C1079 C1083 1.393 . S
C1080 H1069 0.950 . S
C1080 C1078 1.391 . S
C1080 C1081 1.400 . S
C1081 C1075 1.491 1_455 S
C1081 C1080 1.400 . S
C1081 C1082 1.398 . S
C1082 H1070 0.950 1_455 S
C1082 C1081 1.398 . S
C1082 C1083 1.391 . S
C1083 H1071 0.950 . S
C1083 C1079 1.393 . S
C1083 C1082 1.391 . S
H1084 C1092 0.950 . S
H1085 C1097 0.950 . S
H1086 C1094 0.950 . S
H1087 C1096 0.950 . S
H1088 C1098 0.950 . S
H1089 C1100 0.950 . S
H1090 C1102 0.950 . S
H1091 C1103 0.950 . S
C1092 H1084 0.950 . S
C1092 C1093 1.386 . S
C1092 C1094 1.391 . S
C1093 C1092 1.386 . S
C1093 C1097 1.393 . S
C1094 H1086 0.950 . S
C1094 C1092 1.391 . S
C1094 C1095 1.400 . S
C1095 C1094 1.400 . S
C1095 C1096 1.398 . S
C1095 C1101 1.491 . S
C1096 H1087 0.950 . S
C1096 C1095 1.398 . S
C1096 C1097 1.391 . S
C1097 H1085 0.950 . S
C1097 C1093 1.393 . S
C1097 C1096 1.391 . S
C1098 H1088 0.950 . S
C1098 C1099 1.386 . S
C1098 C1100 1.391 . S
C1099 C1098 1.386 . S
C1099 C1103 1.393 . S
C1100 H1089 0.950 . S
C1100 C1098 1.391 . S
C1100 C1101 1.400 . S
C1101 C1095 1.491 . S
C1101 C1100 1.400 . S
C1101 C1102 1.398 . S
C1102 H1090 0.950 . S
C1102 C1101 1.398 . S
C1102 C1103 1.391 . S
C1103 H1091 0.950 . S
C1103 C1099 1.393 . S
C1103 C1102 1.391 . S
H1104 C1112 0.950 . S
H1105 C1117 0.950 . S
H1106 C1114 0.950 . S
H1107 C1116 0.950 . S
H1108 C1118 0.950 . S
H1109 C1120 0.950 . S
H1110 C1122 0.950 1_455 S
H1111 C1123 0.950 . S
C1112 H1104 0.950 . S
C1112 C1113 1.386 . S
C1112 C1114 1.391 . S
C1113 C1112 1.386 . S
C1113 C1117 1.393 . S
C1114 H1106 0.950 . S
C1114 C1112 1.391 . S
C1114 C1115 1.400 . S
C1115 C1114 1.400 . S
C1115 C1116 1.398 . S
C1115 C1121 1.491 . S
C1116 H1107 0.950 . S
C1116 C1115 1.398 . S
C1116 C1117 1.391 . S
C1117 H1105 0.950 . S
C1117 C1113 1.393 . S
C1117 C1116 1.391 . S
C1118 H1108 0.950 . S
C1118 C1119 1.386 . S
C1118 C1120 1.391 . S
C1119 C1118 1.386 . S
C1119 C1123 1.393 . S
C1120 H1109 0.950 . S
C1120 C1118 1.391 . S
C1120 C1121 1.400 1_655 S
C1121 C1115 1.491 . S
C1121 C1120 1.400 1_455 S
C1121 C1122 1.398 1_455 S
C1122 H1110 0.950 1_655 S
C1122 C1121 1.398 1_655 S
C1122 C1123 1.391 . S
C1123 H1111 0.950 . S
C1123 C1119 1.393 . S
C1123 C1122 1.391 . S
H1124 C1132 0.950 . S
H1125 C1137 0.950 . S
H1126 C1134 0.950 . S
H1127 C1136 0.950 . S
H1128 C1138 0.950 . S
H1129 C1140 0.950 . S
H1130 C1142 0.950 . S
H1131 C1143 0.950 . S
C1132 H1124 0.950 . S
C1132 C1133 1.386 . S
C1132 C1134 1.391 . S
C1133 C1132 1.386 . S
C1133 C1137 1.393 . S
C1134 H1126 0.950 . S
C1134 C1132 1.391 . S
C1134 C1135 1.400 . S
C1135 C1134 1.400 . S
C1135 C1136 1.398 . S
C1135 C1141 1.491 . S
C1136 H1127 0.950 . S
C1136 C1135 1.398 . S
C1136 C1137 1.391 . S
C1137 H1125 0.950 . S
C1137 C1133 1.393 . S
C1137 C1136 1.391 . S
C1138 H1128 0.950 . S
C1138 C1139 1.386 . S
C1138 C1140 1.391 . S
C1139 C1138 1.386 . S
C1139 C1143 1.393 . S
C1140 H1129 0.950 . S
C1140 C1138 1.391 . S
C1140 C1141 1.400 . S
C1141 C1135 1.491 . S
C1141 C1140 1.400 . S
C1141 C1142 1.398 . S
C1142 H1130 0.950 . S
C1142 C1141 1.398 . S
C1142 C1143 1.391 . S
C1143 H1131 0.950 . S
C1143 C1139 1.393 . S
C1143 C1142 1.391 . S
H1144 C1152 0.950 . S
H1145 C1157 0.950 . S
H1146 C1154 0.950 . S
H1147 C1156 0.950 . S
H1148 C1158 0.950 . S
H1149 C1160 0.950 . S
H1150 C1162 0.950 . S
H1151 C1163 0.950 . S
C1152 H1144 0.950 . S
C1152 C1153 1.386 . S
C1152 C1154 1.391 . S
C1153 C1152 1.386 . S
C1153 C1157 1.393 . S
C1154 H1146 0.950 . S
C1154 C1152 1.391 . S
C1154 C1155 1.400 . S
C1155 C1154 1.400 . S
C1155 C1156 1.398 . S
C1155 C1161 1.491 . S
C1156 H1147 0.950 . S
C1156 C1155 1.398 . S
C1156 C1157 1.391 . S
C1157 H1145 0.950 . S
C1157 C1153 1.393 . S
C1157 C1156 1.391 . S
C1158 H1148 0.950 . S
C1158 C1159 1.386 . S
C1158 C1160 1.391 . S
C1159 C1158 1.386 . S
C1159 C1163 1.393 . S
C1160 H1149 0.950 . S
C1160 C1158 1.391 . S
C1160 C1161 1.400 . S
C1161 C1155 1.491 . S
C1161 C1160 1.400 . S
C1161 C1162 1.398 . S
C1162 H1150 0.950 . S
C1162 C1161 1.398 . S
C1162 C1163 1.391 . S
C1163 H1151 0.950 . S
C1163 C1159 1.393 . S
C1163 C1162 1.391 . S
H1164 C1172 0.950 . S
H1165 C1177 0.950 . S
H1166 C1174 0.950 . S
H1167 C1176 0.950 . S
H1168 C1178 0.950 . S
H1169 C1180 0.950 . S
H1170 C1182 0.950 . S
H1171 C1183 0.950 . S
C1172 H1164 0.950 . S
C1172 C1173 1.386 . S
C1172 C1174 1.391 . S
C1173 C1172 1.386 . S
C1173 C1177 1.393 . S
C1174 H1166 0.950 . S
C1174 C1172 1.391 . S
C1174 C1175 1.400 . S
C1175 C1174 1.400 . S
C1175 C1176 1.398 . S
C1175 C1181 1.491 . S
C1176 H1167 0.950 . S
C1176 C1175 1.398 . S
C1176 C1177 1.391 . S
C1177 H1165 0.950 . S
C1177 C1173 1.393 . S
C1177 C1176 1.391 . S
C1178 H1168 0.950 . S
C1178 C1179 1.386 . S
C1178 C1180 1.391 . S
C1179 C1178 1.386 . S
C1179 C1183 1.393 . S
C1180 H1169 0.950 . S
C1180 C1178 1.391 . S
C1180 C1181 1.400 . S
C1181 C1175 1.491 . S
C1181 C1180 1.400 . S
C1181 C1182 1.398 . S
C1182 H1170 0.950 . S
C1182 C1181 1.398 . S
C1182 C1183 1.391 . S
C1183 H1171 0.950 . S
C1183 C1179 1.393 . S
C1183 C1182 1.391 . S
H1184 C1192 0.950 . S
H1185 C1197 0.950 . S
H1186 C1194 0.950 . S
H1187 C1196 0.950 . S
H1188 C1198 0.950 . S
H1189 C1200 0.950 . S
H1190 C1202 0.950 . S
H1191 C1203 0.950 . S
C1192 H1184 0.950 . S
C1192 C1193 1.386 . S
C1192 C1194 1.391 . S
C1193 C1192 1.386 . S
C1193 C1197 1.393 . S
C1194 H1186 0.950 . S
C1194 C1192 1.391 . S
C1194 C1195 1.400 . S
C1195 C1194 1.400 . S
C1195 C1196 1.398 . S
C1195 C1201 1.491 . S
C1196 H1187 0.950 . S
C1196 C1195 1.398 . S
C1196 C1197 1.391 . S
C1197 H1185 0.950 . S
C1197 C1193 1.393 . S
C1197 C1196 1.391 . S
C1198 H1188 0.950 . S
C1198 C1199 1.386 . S
C1198 C1200 1.391 . S
C1199 C1198 1.386 . S
C1199 C1203 1.393 . S
C1200 H1189 0.950 . S
C1200 C1198 1.391 . S
C1200 C1201 1.400 . S
C1201 C1195 1.491 . S
C1201 C1200 1.400 . S
C1201 C1202 1.398 . S
C1202 H1190 0.950 . S
C1202 C1201 1.398 . S
C1202 C1203 1.391 . S
C1203 H1191 0.950 . S
C1203 C1199 1.393 . S
C1203 C1202 1.391 . S
H1204 C1212 0.950 . S
H1205 C1217 0.950 . S
H1206 C1214 0.950 . S
H1207 C1216 0.950 . S
H1208 C1218 0.950 . S
H1209 C1220 0.950 1_556 S
H1210 C1222 0.950 . S
H1211 C1223 0.950 . S
C1212 H1204 0.950 . S
C1212 C1213 1.386 . S
C1212 C1214 1.391 . S
C1213 C1212 1.386 . S
C1213 C1217 1.393 . S
C1214 H1206 0.950 . S
C1214 C1212 1.391 . S
C1214 C1215 1.400 . S
C1215 C1214 1.400 . S
C1215 C1216 1.398 . S
C1215 C1221 1.491 1_556 S
C1216 H1207 0.950 . S
C1216 C1215 1.398 . S
C1216 C1217 1.391 . S
C1217 H1205 0.950 . S
C1217 C1213 1.393 . S
C1217 C1216 1.391 . S
C1218 H1208 0.950 . S
C1218 C1219 1.386 . S
C1218 C1220 1.391 . S
C1219 C1218 1.386 . S
C1219 C1223 1.393 . S
C1220 H1209 0.950 1_554 S
C1220 C1218 1.391 . S
C1220 C1221 1.400 . S
C1221 C1215 1.491 1_554 S
C1221 C1220 1.400 . S
C1221 C1222 1.398 . S
C1222 H1210 0.950 . S
C1222 C1221 1.398 . S
C1222 C1223 1.391 . S
C1223 H1211 0.950 . S
C1223 C1219 1.393 . S
C1223 C1222 1.391 . S
H1224 C1232 0.950 . S
H1225 C1237 0.950 . S
H1226 C1234 0.950 . S
H1227 C1236 0.950 . S
H1228 C1238 0.950 . S
H1229 C1240 0.950 . S
H1230 C1242 0.950 . S
H1231 C1243 0.950 . S
C1232 H1224 0.950 . S
C1232 C1233 1.386 . S
C1232 C1234 1.391 . S
C1233 C1232 1.386 . S
C1233 C1237 1.393 . S
C1234 H1226 0.950 . S
C1234 C1232 1.391 . S
C1234 C1235 1.400 . S
C1235 C1234 1.400 . S
C1235 C1236 1.398 . S
C1235 C1241 1.491 . S
C1236 H1227 0.950 . S
C1236 C1235 1.398 . S
C1236 C1237 1.391 . S
C1237 H1225 0.950 . S
C1237 C1233 1.393 . S
C1237 C1236 1.391 . S
C1238 H1228 0.950 . S
C1238 C1239 1.386 . S
C1238 C1240 1.391 . S
C1239 C1238 1.386 . S
C1239 C1243 1.393 . S
C1240 H1229 0.950 . S
C1240 C1238 1.391 . S
C1240 C1241 1.400 . S
C1241 C1235 1.491 . S
C1241 C1240 1.400 . S
C1241 C1242 1.398 . S
C1242 H1230 0.950 . S
C1242 C1241 1.398 . S
C1242 C1243 1.391 . S
C1243 H1231 0.950 . S
C1243 C1239 1.393 . S
C1243 C1242 1.391 . S
H1244 C1252 0.950 . S
H1245 C1257 0.950 . S
H1246 C1254 0.950 . S
H1247 C1256 0.950 . S
H1248 C1258 0.950 . S
H1249 C1260 0.950 . S
H1250 C1262 0.950 . S
H1251 C1263 0.950 . S
C1252 H1244 0.950 . S
C1252 C1253 1.386 . S
C1252 C1254 1.391 . S
C1253 C1252 1.386 . S
C1253 C1257 1.393 . S
C1254 H1246 0.950 . S
C1254 C1252 1.391 . S
C1254 C1255 1.400 . S
C1255 C1254 1.400 . S
C1255 C1256 1.398 . S
C1255 C1261 1.491 . S
C1256 H1247 0.950 . S
C1256 C1255 1.398 . S
C1256 C1257 1.391 . S
C1257 H1245 0.950 . S
C1257 C1253 1.393 . S
C1257 C1256 1.391 . S
C1258 H1248 0.950 . S
C1258 C1259 1.386 . S
C1258 C1260 1.391 . S
C1259 C1258 1.386 . S
C1259 C1263 1.393 . S
C1260 H1249 0.950 . S
C1260 C1258 1.391 . S
C1260 C1261 1.400 . S
C1261 C1255 1.491 . S
C1261 C1260 1.400 . S
C1261 C1262 1.398 . S
C1262 H1250 0.950 . S
C1262 C1261 1.398 . S
C1262 C1263 1.391 . S
C1263 H1251 0.950 . S
C1263 C1259 1.393 . S
C1263 C1262 1.391 . S
H1264 C1272 0.950 . S
H1265 C1277 0.950 . S
H1266 C1274 0.950 . S
H1267 C1276 0.950 . S
H1268 C1278 0.950 . S
H1269 C1280 0.950 . S
H1270 C1282 0.950 . S
H1271 C1283 0.950 . S
C1272 H1264 0.950 . S
C1272 C1273 1.386 . S
C1272 C1274 1.391 . S
C1273 C1272 1.386 . S
C1273 C1277 1.393 . S
C1274 H1266 0.950 . S
C1274 C1272 1.391 . S
C1274 C1275 1.400 . S
C1275 C1274 1.400 . S
C1275 C1276 1.398 . S
C1275 C1281 1.491 . S
C1276 H1267 0.950 . S
C1276 C1275 1.398 . S
C1276 C1277 1.391 . S
C1277 H1265 0.950 . S
C1277 C1273 1.393 . S
C1277 C1276 1.391 . S
C1278 H1268 0.950 . S
C1278 C1279 1.386 . S
C1278 C1280 1.391 . S
C1279 C1278 1.386 . S
C1279 C1283 1.393 . S
C1280 H1269 0.950 . S
C1280 C1278 1.391 . S
C1280 C1281 1.400 . S
C1281 C1275 1.491 . S
C1281 C1280 1.400 . S
C1281 C1282 1.398 . S
C1282 H1270 0.950 . S
C1282 C1281 1.398 . S
C1282 C1283 1.391 . S
C1283 H1271 0.950 . S
C1283 C1279 1.393 . S
C1283 C1282 1.391 . S
H1284 C1292 0.950 . S
H1285 C1297 0.950 . S
H1286 C1294 0.950 . S
H1287 C1296 0.950 . S
H1288 C1298 0.950 . S
H1289 C1300 0.950 . S
H1290 C1302 0.950 . S
H1291 C1303 0.950 . S
C1292 H1284 0.950 . S
C1292 C1293 1.386 . S
C1292 C1294 1.391 . S
C1293 C1292 1.386 . S
C1293 C1297 1.393 . S
C1294 H1286 0.950 . S
C1294 C1292 1.391 . S
C1294 C1295 1.400 . S
C1295 C1294 1.400 . S
C1295 C1296 1.398 . S
C1295 C1301 1.491 . S
C1296 H1287 0.950 . S
C1296 C1295 1.398 . S
C1296 C1297 1.391 . S
C1297 H1285 0.950 . S
C1297 C1293 1.393 . S
C1297 C1296 1.391 . S
C1298 H1288 0.950 . S
C1298 C1299 1.386 . S
C1298 C1300 1.391 1_556 S
C1299 C1298 1.386 . S
C1299 C1303 1.393 . S
C1300 H1289 0.950 . S
C1300 C1298 1.391 1_554 S
C1300 C1301 1.400 . S
C1301 C1295 1.491 . S
C1301 C1300 1.400 . S
C1301 C1302 1.398 1_554 S
C1302 H1290 0.950 . S
C1302 C1301 1.398 1_556 S
C1302 C1303 1.391 . S
C1303 H1291 0.950 . S
C1303 C1299 1.393 . S
C1303 C1302 1.391 . S
H1304 C1312 0.950 . S
H1305 C1317 0.950 . S
H1306 C1314 0.950 . S
H1307 C1316 0.950 . S
H1308 C1318 0.950 . S
H1309 C1320 0.950 . S
H1310 C1322 0.950 . S
H1311 C1323 0.950 . S
C1312 H1304 0.950 . S
C1312 C1313 1.386 . S
C1312 C1314 1.391 . S
C1313 C1312 1.386 . S
C1313 C1317 1.393 . S
C1314 H1306 0.950 . S
C1314 C1312 1.391 . S
C1314 C1315 1.400 . S
C1315 C1314 1.400 . S
C1315 C1316 1.398 . S
C1315 C1321 1.491 . S
C1316 H1307 0.950 . S
C1316 C1315 1.398 . S
C1316 C1317 1.391 . S
C1317 H1305 0.950 . S
C1317 C1313 1.393 . S
C1317 C1316 1.391 . S
C1318 H1308 0.950 . S
C1318 C1319 1.386 . S
C1318 C1320 1.391 . S
C1319 C1318 1.386 . S
C1319 C1323 1.393 . S
C1320 H1309 0.950 . S
C1320 C1318 1.391 . S
C1320 C1321 1.400 . S
C1321 C1315 1.491 . S
C1321 C1320 1.400 . S
C1321 C1322 1.398 . S
C1322 H1310 0.950 . S
C1322 C1321 1.398 . S
C1322 C1323 1.391 . S
C1323 H1311 0.950 . S
C1323 C1319 1.393 . S
C1323 C1322 1.391 . S
H1324 C1332 0.950 . S
H1325 C1337 0.950 . S
H1326 C1334 0.950 . S
H1327 C1336 0.950 . S
H1328 C1338 0.950 . S
H1329 C1340 0.950 . S
H1330 C1342 0.950 1_565 S
H1331 C1343 0.950 . S
C1332 H1324 0.950 . S
C1332 C1333 1.386 . S
C1332 C1334 1.391 . S
C1333 C1332 1.386 . S
C1333 C1337 1.393 . S
C1334 H1326 0.950 . S
C1334 C1332 1.391 . S
C1334 C1335 1.400 . S
C1335 C1334 1.400 . S
C1335 C1336 1.398 . S
C1335 C1341 1.461 1_565 S
C1336 H1327 0.950 . S
C1336 C1335 1.398 . S
C1336 C1337 1.391 . S
C1337 H1325 0.950 . S
C1337 C1333 1.393 . S
C1337 C1336 1.391 . S
C1338 H1328 0.950 . S
C1338 C1339 1.386 . S
C1338 C1340 1.391 . S
C1339 C1338 1.386 . S
C1339 C1343 1.393 . S
C1340 H1329 0.950 . S
C1340 C1338 1.391 . S
C1340 C1341 1.427 . S
C1341 C1335 1.461 1_545 S
C1341 C1340 1.427 . S
C1341 C1342 1.403 . S
C1342 H1330 0.950 1_545 S
C1342 C1341 1.403 . S
C1342 C1343 1.391 . S
C1343 H1331 0.950 . S
C1343 C1339 1.393 . S
C1343 C1342 1.391 . S
H1344 C1352 0.950 . S
H1345 C1357 0.950 . S
H1346 C1354 0.950 . S
H1347 C1356 0.950 . S
H1348 C1358 0.950 . S
H1349 C1360 0.950 . S
H1350 C1362 0.950 . S
H1351 C1363 0.950 . S
C1352 H1344 0.950 . S
C1352 C1353 1.386 . S
C1352 C1354 1.391 . S
C1353 C1352 1.386 . S
C1353 C1357 1.393 . S
C1354 H1346 0.950 . S
C1354 C1352 1.391 . S
C1354 C1355 1.400 . S
C1355 C1354 1.400 . S
C1355 C1356 1.398 . S
C1355 C1361 1.491 . S
C1356 H1347 0.950 . S
C1356 C1355 1.398 . S
C1356 C1357 1.391 . S
C1357 H1345 0.950 . S
C1357 C1353 1.393 . S
C1357 C1356 1.391 . S
C1358 H1348 0.950 . S
C1358 C1359 1.386 . S
C1358 C1360 1.391 . S
C1359 C1358 1.386 . S
C1359 C1363 1.393 . S
C1360 H1349 0.950 . S
C1360 C1358 1.391 . S
C1360 C1361 1.400 . S
C1361 C1355 1.491 . S
C1361 C1360 1.400 . S
C1361 C1362 1.398 . S
C1362 H1350 0.950 . S
C1362 C1361 1.398 . S
C1362 C1363 1.391 . S
C1363 H1351 0.950 . S
C1363 C1359 1.393 . S
C1363 C1362 1.391 . S
H1364 C1372 0.950 . S
H1365 C1377 0.950 . S
H1366 C1374 0.950 . S
H1367 C1376 0.950 . S
H1368 C1378 0.950 . S
H1369 C1380 0.950 . S
H1370 C1382 0.950 . S
H1371 C1383 0.950 . S
C1372 H1364 0.950 . S
C1372 C1373 1.386 . S
C1372 C1374 1.391 . S
C1373 C1372 1.386 . S
C1373 C1377 1.393 . S
C1374 H1366 0.950 . S
C1374 C1372 1.391 . S
C1374 C1375 1.400 . S
C1375 C1374 1.400 . S
C1375 C1376 1.398 . S
C1375 C1381 1.491 . S
C1376 H1367 0.950 . S
C1376 C1375 1.398 . S
C1376 C1377 1.391 . S
C1377 H1365 0.950 . S
C1377 C1373 1.393 . S
C1377 C1376 1.391 . S
C1378 H1368 0.950 . S
C1378 C1379 1.386 . S
C1378 C1380 1.391 . S
C1379 C1378 1.386 . S
C1379 C1383 1.393 . S
C1380 H1369 0.950 . S
C1380 C1378 1.391 . S
C1380 C1381 1.400 1_565 S
C1381 C1375 1.491 . S
C1381 C1380 1.400 1_545 S
C1381 C1382 1.398 . S
C1382 H1370 0.950 . S
C1382 C1381 1.398 . S
C1382 C1383 1.391 1_545 S
C1383 H1371 0.950 . S
C1383 C1379 1.393 . S
C1383 C1382 1.391 1_565 S
H1384 C1392 0.950 . S
H1385 C1397 0.950 . S
H1386 C1394 0.950 . S
H1387 C1396 0.950 . S
H1388 C1398 0.950 . S
H1389 C1400 0.950 . S
H1390 C1402 0.950 . S
H1391 C1403 0.950 . S
C1392 H1384 0.950 . S
C1392 C1393 1.386 . S
C1392 C1394 1.391 . S
C1393 C1392 1.386 . S
C1393 C1397 1.393 . S
C1394 H1386 0.950 . S
C1394 C1392 1.391 . S
C1394 C1395 1.400 . S
C1395 C1394 1.400 . S
C1395 C1396 1.398 . S
C1395 C1401 1.491 . S
C1396 H1387 0.950 . S
C1396 C1395 1.398 . S
C1396 C1397 1.391 . S
C1397 H1385 0.950 . S
C1397 C1393 1.393 . S
C1397 C1396 1.391 . S
C1398 H1388 0.950 . S
C1398 C1399 1.386 . S
C1398 C1400 1.391 . S
C1399 C1398 1.386 . S
C1399 C1403 1.393 . S
C1400 H1389 0.950 . S
C1400 C1398 1.391 . S
C1400 C1401 1.400 . S
C1401 C1395 1.491 . S
C1401 C1400 1.400 . S
C1401 C1402 1.398 . S
C1402 H1390 0.950 . S
C1402 C1401 1.398 . S
C1402 C1403 1.391 . S
C1403 H1391 0.950 . S
C1403 C1399 1.393 . S
C1403 C1402 1.391 . S
H1404 C1412 0.950 . S
H1405 C1417 0.950 . S
H1406 C1414 0.950 1_545 S
H1407 C1416 0.950 . S
H1408 C1418 0.950 . S
H1409 C1420 0.950 1_565 S
H1410 C1422 0.950 . S
H1411 C1423 0.950 . S
C1412 H1404 0.950 . S
C1412 C1413 1.386 . S
C1412 C1414 1.391 . S
C1413 C1412 1.386 . S
C1413 C1417 1.393 . S
C1414 H1406 0.950 1_565 S
C1414 C1412 1.391 . S
C1414 C1415 1.400 . S
C1415 C1414 1.400 . S
C1415 C1416 1.398 . S
C1415 C1421 1.491 1_565 S
C1416 H1407 0.950 . S
C1416 C1415 1.398 . S
C1416 C1417 1.391 . S
C1417 H1405 0.950 . S
C1417 C1413 1.393 . S
C1417 C1416 1.391 . S
C1418 H1408 0.950 . S
C1418 C1419 1.386 . S
C1418 C1420 1.391 . S
C1419 C1418 1.386 . S
C1419 C1423 1.393 . S
C1420 H1409 0.950 1_545 S
C1420 C1418 1.391 . S
C1420 C1421 1.400 . S
C1421 C1415 1.491 1_545 S
C1421 C1420 1.400 . S
C1421 C1422 1.398 . S
C1422 H1410 0.950 . S
C1422 C1421 1.398 . S
C1422 C1423 1.391 . S
C1423 H1411 0.950 . S
C1423 C1419 1.393 . S
C1423 C1422 1.391 . S
H1424 C1432 0.950 . S
H1425 C1437 0.950 1_545 S
H1426 C1434 0.950 . S
H1427 C1436 0.950 . S
H1428 C1438 0.950 . S
H1429 C1440 0.950 . S
H1430 C1442 0.950 . S
H1431 C1443 0.950 . S
C1432 H1424 0.950 . S
C1432 C1433 1.386 . S
C1432 C1434 1.391 . S
C1433 C1432 1.386 . S
C1433 C1437 1.393 . S
C1434 H1426 0.950 . S
C1434 C1432 1.391 . S
C1434 C1435 1.400 . S
C1435 C1434 1.400 . S
C1435 C1436 1.398 . S
C1435 C1441 1.491 . S
C1436 H1427 0.950 . S
C1436 C1435 1.398 . S
C1436 C1437 1.391 . S
C1437 H1425 0.950 1_565 S
C1437 C1433 1.393 . S
C1437 C1436 1.391 . S
C1438 H1428 0.950 . S
C1438 C1439 1.386 . S
C1438 C1440 1.391 . S
C1439 C1438 1.386 . S
C1439 C1443 1.393 . S
C1440 H1429 0.950 . S
C1440 C1438 1.391 . S
C1440 C1441 1.400 . S
C1441 C1435 1.491 . S
C1441 C1440 1.400 . S
C1441 C1442 1.398 . S
C1442 H1430 0.950 . S
C1442 C1441 1.398 . S
C1442 C1443 1.391 . S
C1443 H1431 0.950 . S
C1443 C1439 1.393 . S
C1443 C1442 1.391 . S
H1444 C1452 0.950 . S
H1445 C1457 0.950 . S
H1446 C1454 0.950 . S
H1447 C1456 0.950 . S
H1448 C1458 0.950 . S
H1449 C1460 0.950 . S
H1450 C1462 0.950 1_545 S
H1451 C1463 0.950 . S
C1452 H1444 0.950 . S
C1452 C1453 1.386 . S
C1452 C1454 1.391 . S
C1453 C1452 1.386 . S
C1453 C1457 1.393 . S
C1454 H1446 0.950 . S
C1454 C1452 1.391 . S
C1454 C1455 1.400 . S
C1455 C1454 1.400 . S
C1455 C1456 1.398 . S
C1455 C1461 1.491 . S
C1456 H1447 0.950 . S
C1456 C1455 1.398 . S
C1456 C1457 1.391 . S
C1457 H1445 0.950 . S
C1457 C1453 1.393 . S
C1457 C1456 1.391 . S
C1458 H1448 0.950 . S
C1458 C1459 1.386 . S
C1458 C1460 1.391 1_565 S
C1459 C1458 1.386 . S
C1459 C1463 1.393 . S
C1460 H1449 0.950 . S
C1460 C1458 1.391 1_545 S
C1460 C1461 1.400 . S
C1461 C1455 1.491 . S
C1461 C1460 1.400 . S
C1461 C1462 1.398 1_545 S
C1462 H1450 0.950 1_565 S
C1462 C1461 1.398 1_565 S
C1462 C1463 1.391 . S
C1463 H1451 0.950 . S
C1463 C1459 1.393 . S
C1463 C1462 1.391 . S
H1464 C1472 0.950 . S
H1465 C1477 0.950 . S
H1466 C1474 0.950 . S
H1467 C1476 0.950 . S
H1468 C1478 0.950 . S
H1469 C1480 0.950 . S
H1470 C1482 0.950 . S
H1471 C1483 0.950 . S
C1472 H1464 0.950 . S
C1472 C1473 1.386 . S
C1472 C1474 1.391 . S
C1473 C1472 1.386 . S
C1473 C1477 1.393 . S
C1474 H1466 0.950 . S
C1474 C1472 1.391 . S
C1474 C1475 1.400 . S
C1475 C1474 1.400 . S
C1475 C1476 1.398 . S
C1475 C1481 1.491 . S
C1476 H1467 0.950 . S
C1476 C1475 1.398 . S
C1476 C1477 1.391 . S
C1477 H1465 0.950 . S
C1477 C1473 1.393 . S
C1477 C1476 1.391 . S
C1478 H1468 0.950 . S
C1478 C1479 1.386 . S
C1478 C1480 1.391 . S
C1479 C1478 1.386 . S
C1479 C1483 1.393 . S
C1480 H1469 0.950 . S
C1480 C1478 1.391 . S
C1480 C1481 1.400 . S
C1481 C1475 1.491 . S
C1481 C1480 1.400 . S
C1481 C1482 1.398 . S
C1482 H1470 0.950 . S
C1482 C1481 1.398 . S
C1482 C1483 1.391 . S
C1483 H1471 0.950 . S
C1483 C1479 1.393 . S
C1483 C1482 1.391 . S
H1484 C1492 0.950 . S
H1485 C1497 0.950 . S
H1486 C1494 0.950 . S
H1487 C1496 0.950 . S
H1488 C1498 0.950 . S
H1489 C1500 0.950 . S
H1490 C1502 0.950 . S
H1491 C1503 0.950 . S
C1492 H1484 0.950 . S
C1492 C1493 1.386 . S
C1492 C1494 1.391 . S
C1493 C1492 1.386 . S
C1493 C1497 1.393 . S
C1494 H1486 0.950 . S
C1494 C1492 1.391 . S
C1494 C1495 1.400 . S
C1495 C1494 1.400 . S
C1495 C1496 1.398 . S
C1495 C1501 1.491 . S
C1496 H1487 0.950 . S
C1496 C1495 1.398 . S
C1496 C1497 1.391 . S
C1497 H1485 0.950 . S
C1497 C1493 1.393 . S
C1497 C1496 1.391 . S
C1498 H1488 0.950 . S
C1498 C1499 1.386 . S
C1498 C1500 1.391 . S
C1499 C1498 1.386 . S
C1499 C1503 1.393 . S
C1500 H1489 0.950 . S
C1500 C1498 1.391 . S
C1500 C1501 1.400 . S
C1501 C1495 1.491 . S
C1501 C1500 1.400 . S
C1501 C1502 1.398 . S
C1502 H1490 0.950 . S
C1502 C1501 1.398 . S
C1502 C1503 1.391 . S
C1503 H1491 0.950 . S
C1503 C1499 1.393 . S
C1503 C1502 1.391 . S
H1504 C1512 0.950 . S
H1505 C1517 0.950 . S
H1506 C1514 0.950 . S
H1507 C1516 0.950 . S
H1508 C1518 0.950 . S
H1509 C1520 0.950 1_655 S
H1510 C1522 0.950 . S
H1511 C1523 0.950 . S
C1512 H1504 0.950 . S
C1512 C1513 1.386 . S
C1512 C1514 1.391 . S
C1513 C1512 1.386 . S
C1513 C1517 1.393 . S
C1514 H1506 0.950 . S
C1514 C1512 1.391 . S
C1514 C1515 1.400 . S
C1515 C1514 1.400 . S
C1515 C1516 1.398 . S
C1515 C1521 1.477 1_655 S
C1516 H1507 0.950 . S
C1516 C1515 1.398 . S
C1516 C1517 1.391 . S
C1517 H1505 0.950 . S
C1517 C1513 1.393 . S
C1517 C1516 1.391 . S
C1518 H1508 0.950 . S
C1518 C1519 1.386 . S
C1518 C1520 1.391 . S
C1519 C1518 1.386 . S
C1519 C1523 1.393 . S
C1520 H1509 0.950 1_455 S
C1520 C1518 1.391 . S
C1520 C1521 1.402 . S
C1521 C1515 1.477 1_455 S
C1521 C1520 1.402 . S
C1521 C1522 1.411 . S
C1522 H1510 0.950 . S
C1522 C1521 1.411 . S
C1522 C1523 1.391 . S
C1523 H1511 0.950 . S
C1523 C1519 1.393 . S
C1523 C1522 1.391 . S
H1524 C1532 0.950 . S
H1525 C1537 0.950 . S
H1526 C1534 0.950 . S
H1527 C1536 0.950 . S
H1528 C1538 0.950 . S
H1529 C1540 0.950 . S
H1530 C1542 0.950 . S
H1531 C1543 0.950 . S
C1532 H1524 0.950 . S
C1532 C1533 1.386 . S
C1532 C1534 1.391 . S
C1533 C1532 1.386 . S
C1533 C1537 1.393 . S
C1534 H1526 0.950 . S
C1534 C1532 1.391 . S
C1534 C1535 1.400 . S
C1535 C1534 1.400 . S
C1535 C1536 1.398 . S
C1535 C1541 1.491 . S
C1536 H1527 0.950 . S
C1536 C1535 1.398 . S
C1536 C1537 1.391 . S
C1537 H1525 0.950 . S
C1537 C1533 1.393 . S
C1537 C1536 1.391 . S
C1538 H1528 0.950 . S
C1538 C1539 1.386 . S
C1538 C1540 1.391 . S
C1539 C1538 1.386 . S
C1539 C1543 1.393 . S
C1540 H1529 0.950 . S
C1540 C1538 1.391 . S
C1540 C1541 1.400 . S
C1541 C1535 1.491 . S
C1541 C1540 1.400 . S
C1541 C1542 1.398 . S
C1542 H1530 0.950 . S
C1542 C1541 1.398 . S
C1542 C1543 1.391 . S
C1543 H1531 0.950 . S
C1543 C1539 1.393 . S
C1543 C1542 1.391 . S
H1544 C1552 0.950 . S
H1545 C1557 0.950 . S
H1546 C1554 0.950 . S
H1547 C1556 0.950 . S
H1548 C1558 0.950 . S
H1549 C1560 0.950 . S
H1550 C1562 0.950 . S
H1551 C1563 0.950 . S
C1552 H1544 0.950 . S
C1552 C1553 1.386 . S
C1552 C1554 1.391 . S
C1553 C1552 1.386 . S
C1553 C1557 1.393 . S
C1554 H1546 0.950 . S
C1554 C1552 1.391 . S
C1554 C1555 1.400 . S
C1555 C1554 1.400 . S
C1555 C1556 1.398 . S
C1555 C1561 1.491 . S
C1556 H1547 0.950 . S
C1556 C1555 1.398 . S
C1556 C1557 1.391 . S
C1557 H1545 0.950 . S
C1557 C1553 1.393 . S
C1557 C1556 1.391 . S
C1558 H1548 0.950 . S
C1558 C1559 1.386 . S
C1558 C1560 1.391 . S
C1559 C1558 1.386 . S
C1559 C1563 1.393 . S
C1560 H1549 0.950 . S
C1560 C1558 1.391 . S
C1560 C1561 1.400 1_655 S
C1561 C1555 1.491 . S
C1561 C1560 1.400 1_455 S
C1561 C1562 1.398 . S
C1562 H1550 0.950 . S
C1562 C1561 1.398 . S
C1562 C1563 1.391 1_455 S
C1563 H1551 0.950 . S
C1563 C1559 1.393 . S
C1563 C1562 1.391 1_655 S
H1564 C1572 0.950 . S
H1565 C1577 0.950 . S
H1566 C1574 0.950 . S
H1567 C1576 0.950 . S
H1568 C1578 0.950 . S
H1569 C1580 0.950 . S
H1570 C1582 0.950 . S
H1571 C1583 0.950 . S
C1572 H1564 0.950 . S
C1572 C1573 1.386 . S
C1572 C1574 1.391 . S
C1573 C1572 1.386 . S
C1573 C1577 1.393 . S
C1574 H1566 0.950 . S
C1574 C1572 1.391 . S
C1574 C1575 1.400 . S
C1575 C1574 1.400 . S
C1575 C1576 1.398 . S
C1575 C1581 1.491 . S
C1576 H1567 0.950 . S
C1576 C1575 1.398 . S
C1576 C1577 1.391 . S
C1577 H1565 0.950 . S
C1577 C1573 1.393 . S
C1577 C1576 1.391 . S
C1578 H1568 0.950 . S
C1578 C1579 1.386 . S
C1578 C1580 1.391 . S
C1579 C1578 1.386 . S
C1579 C1583 1.393 . S
C1580 H1569 0.950 . S
C1580 C1578 1.391 . S
C1580 C1581 1.400 . S
C1581 C1575 1.491 . S
C1581 C1580 1.400 . S
C1581 C1582 1.398 . S
C1582 H1570 0.950 . S
C1582 C1581 1.398 . S
C1582 C1583 1.391 . S
C1583 H1571 0.950 . S
C1583 C1579 1.393 . S
C1583 C1582 1.391 . S
H1584 C1592 0.950 . S
H1585 C1597 0.950 . S
H1586 C1594 0.950 . S
H1587 C1596 0.950 . S
H1588 C1598 0.950 . S
H1589 C1600 0.950 . S
H1590 C1602 0.950 . S
H1591 C1603 0.950 . S
C1592 H1584 0.950 . S
C1592 C1593 1.386 . S
C1592 C1594 1.391 . S
C1593 C1592 1.386 . S
C1593 C1597 1.393 . S
C1594 H1586 0.950 . S
C1594 C1592 1.391 . S
C1594 C1595 1.400 . S
C1595 C1594 1.400 . S
C1595 C1596 1.398 . S
C1595 C1601 1.491 1_655 S
C1596 H1587 0.950 . S
C1596 C1595 1.398 . S
C1596 C1597 1.391 . S
C1597 H1585 0.950 . S
C1597 C1593 1.393 . S
C1597 C1596 1.391 . S
C1598 H1588 0.950 . S
C1598 C1599 1.386 . S
C1598 C1600 1.391 . S
C1599 C1598 1.386 . S
C1599 C1603 1.393 . S
C1600 H1589 0.950 . S
C1600 C1598 1.391 . S
C1600 C1601 1.400 . S
C1601 C1595 1.491 1_455 S
C1601 C1600 1.400 . S
C1601 C1602 1.398 . S
C1602 H1590 0.950 . S
C1602 C1601 1.398 . S
C1602 C1603 1.391 . S
C1603 H1591 0.950 . S
C1603 C1599 1.393 . S
C1603 C1602 1.391 . S
H1604 C1612 0.950 . S
H1605 C1617 0.950 . S
H1606 C1614 0.950 . S
H1607 C1616 0.950 . S
H1608 C1618 0.950 . S
H1609 C1620 0.950 . S
H1610 C1622 0.950 . S
H1611 C1623 0.950 . S
C1612 H1604 0.950 . S
C1612 C1613 1.386 . S
C1612 C1614 1.391 . S
C1613 C1612 1.386 . S
C1613 C1617 1.393 . S
C1614 H1606 0.950 . S
C1614 C1612 1.391 . S
C1614 C1615 1.400 . S
C1615 C1614 1.400 . S
C1615 C1616 1.398 . S
C1615 C1621 1.491 . S
C1616 H1607 0.950 . S
C1616 C1615 1.398 . S
C1616 C1617 1.391 . S
C1617 H1605 0.950 . S
C1617 C1613 1.393 . S
C1617 C1616 1.391 . S
C1618 H1608 0.950 . S
C1618 C1619 1.386 . S
C1618 C1620 1.391 . S
C1619 C1618 1.386 . S
C1619 C1623 1.393 . S
C1620 H1609 0.950 . S
C1620 C1618 1.391 . S
C1620 C1621 1.400 . S
C1621 C1615 1.491 . S
C1621 C1620 1.400 . S
C1621 C1622 1.398 . S
C1622 H1610 0.950 . S
C1622 C1621 1.398 . S
C1622 C1623 1.391 . S
C1623 H1611 0.950 . S
C1623 C1619 1.393 . S
C1623 C1622 1.391 . S
H1624 C1632 0.950 . S
H1625 C1637 0.950 . S
H1626 C1634 0.950 . S
H1627 C1636 0.950 . S
H1628 C1638 0.950 . S
H1629 C1640 0.950 . S
H1630 C1642 0.950 . S
H1631 C1643 0.950 . S
C1632 H1624 0.950 . S
C1632 C1633 1.386 . S
C1632 C1634 1.391 . S
C1633 C1632 1.386 . S
C1633 C1637 1.393 . S
C1634 H1626 0.950 . S
C1634 C1632 1.391 . S
C1634 C1635 1.400 . S
C1635 C1634 1.400 . S
C1635 C1636 1.398 . S
C1635 C1641 1.491 . S
C1636 H1627 0.950 . S
C1636 C1635 1.398 . S
C1636 C1637 1.391 . S
C1637 H1625 0.950 . S
C1637 C1633 1.393 . S
C1637 C1636 1.391 . S
C1638 H1628 0.950 . S
C1638 C1639 1.386 . S
C1638 C1640 1.391 . S
C1639 C1638 1.386 . S
C1639 C1643 1.393 . S
C1640 H1629 0.950 . S
C1640 C1638 1.391 . S
C1640 C1641 1.400 . S
C1641 C1635 1.491 . S
C1641 C1640 1.400 . S
C1641 C1642 1.398 . S
C1642 H1630 0.950 . S
C1642 C1641 1.398 . S
C1642 C1643 1.391 . S
C1643 H1631 0.950 . S
C1643 C1639 1.393 . S
C1643 C1642 1.391 . S
H1644 C1652 0.950 . S
H1645 C1657 0.950 . S
H1646 C1654 0.950 . S
H1647 C1656 0.950 . S
H1648 C1658 0.950 . S
H1649 C1660 0.950 . S
H1650 C1662 0.950 . S
H1651 C1663 0.950 . S
C1652 H1644 0.950 . S
C1652 C1653 1.386 . S
C1652 C1654 1.391 . S
C1653 C1652 1.386 . S
C1653 C1657 1.393 . S
C1654 H1646 0.950 . S
C1654 C1652 1.391 . S
C1654 C1655 1.400 . S
C1655 C1654 1.400 . S
C1655 C1656 1.398 . S
C1655 C1661 1.491 . S
C1656 H1647 0.950 . S
C1656 C1655 1.398 . S
C1656 C1657 1.391 . S
C1657 H1645 0.950 . S
C1657 C1653 1.393 . S
C1657 C1656 1.391 . S
C1658 H1648 0.950 . S
C1658 C1659 1.386 . S
C1658 C1660 1.391 1_556 S
C1659 C1658 1.386 . S
C1659 C1663 1.393 . S
C1660 H1649 0.950 . S
C1660 C1658 1.391 1_554 S
C1660 C1661 1.400 . S
C1661 C1655 1.491 . S
C1661 C1660 1.400 . S
C1661 C1662 1.398 1_554 S
C1662 H1650 0.950 . S
C1662 C1661 1.398 1_556 S
C1662 C1663 1.391 . S
C1663 H1651 0.950 . S
C1663 C1659 1.393 . S
C1663 C1662 1.391 . S
H1664 C1672 0.950 . S
H1665 C1677 0.950 . S
H1666 C1674 0.950 . S
H1667 C1676 0.950 . S
H1668 C1678 0.950 . S
H1669 C1680 0.950 . S
H1670 C1682 0.950 . S
H1671 C1683 0.950 . S
C1672 H1664 0.950 . S
C1672 C1673 1.386 . S
C1672 C1674 1.391 . S
C1673 C1672 1.386 . S
C1673 C1677 1.393 . S
C1674 H1666 0.950 . S
C1674 C1672 1.391 . S
C1674 C1675 1.400 . S
C1675 C1674 1.400 . S
C1675 C1676 1.398 . S
C1675 C1681 1.491 . S
C1676 H1667 0.950 . S
C1676 C1675 1.398 . S
C1676 C1677 1.391 . S
C1677 H1665 0.950 . S
C1677 C1673 1.393 . S
C1677 C1676 1.391 . S
C1678 H1668 0.950 . S
C1678 C1679 1.386 . S
C1678 C1680 1.391 . S
C1679 C1678 1.386 . S
C1679 C1683 1.393 . S
C1680 H1669 0.950 . S
C1680 C1678 1.391 . S
C1680 C1681 1.400 . S
C1681 C1675 1.491 . S
C1681 C1680 1.400 . S
C1681 C1682 1.398 . S
C1682 H1670 0.950 . S
C1682 C1681 1.398 . S
C1682 C1683 1.391 . S
C1683 H1671 0.950 . S
C1683 C1679 1.393 . S
C1683 C1682 1.391 . S
H1684 C1692 0.950 . S
H1685 C1697 0.950 . S
H1686 C1694 0.950 . S
H1687 C1696 0.950 . S
H1688 C1698 0.950 . S
H1689 C1700 0.950 . S
H1690 C1702 0.950 . S
H1691 C1703 0.950 . S
C1692 H1684 0.950 . S
C1692 C1693 1.386 . S
C1692 C1694 1.391 . S
C1693 C1692 1.386 . S
C1693 C1697 1.393 . S
C1694 H1686 0.950 . S
C1694 C1692 1.391 . S
C1694 C1695 1.400 . S
C1695 C1694 1.400 . S
C1695 C1696 1.398 . S
C1695 C1701 1.491 . S
C1696 H1687 0.950 . S
C1696 C1695 1.398 . S
C1696 C1697 1.391 . S
C1697 H1685 0.950 . S
C1697 C1693 1.393 . S
C1697 C1696 1.391 . S
C1698 H1688 0.950 . S
C1698 C1699 1.386 . S
C1698 C1700 1.391 . S
C1699 C1698 1.386 . S
C1699 C1703 1.393 . S
C1700 H1689 0.950 . S
C1700 C1698 1.391 . S
C1700 C1701 1.400 . S
C1701 C1695 1.491 . S
C1701 C1700 1.400 . S
C1701 C1702 1.398 . S
C1702 H1690 0.950 . S
C1702 C1701 1.398 . S
C1702 C1703 1.391 . S
C1703 H1691 0.950 . S
C1703 C1699 1.393 . S
C1703 C1702 1.391 . S
H1704 C1712 0.950 . S
H1705 C1717 0.950 . S
H1706 C1714 0.950 . S
H1707 C1716 0.950 . S
H1708 C1718 0.950 . S
H1709 C1720 0.950 . S
H1710 C1722 0.950 . S
H1711 C1723 0.950 . S
C1712 H1704 0.950 . S
C1712 C1713 1.386 . S
C1712 C1714 1.391 . S
C1713 C1712 1.386 . S
C1713 C1717 1.393 . S
C1714 H1706 0.950 . S
C1714 C1712 1.391 . S
C1714 C1715 1.400 . S
C1715 C1714 1.400 . S
C1715 C1716 1.398 . S
C1715 C1721 1.491 . S
C1716 H1707 0.950 . S
C1716 C1715 1.398 . S
C1716 C1717 1.391 . S
C1717 H1705 0.950 . S
C1717 C1713 1.393 . S
C1717 C1716 1.391 . S
C1718 H1708 0.950 . S
C1718 C1719 1.386 . S
C1718 C1720 1.391 . S
C1719 C1718 1.386 . S
C1719 C1723 1.393 . S
C1720 H1709 0.950 . S
C1720 C1718 1.391 . S
C1720 C1721 1.400 . S
C1721 C1715 1.491 . S
C1721 C1720 1.400 . S
C1721 C1722 1.398 . S
C1722 H1710 0.950 . S
C1722 C1721 1.398 . S
C1722 C1723 1.391 . S
C1723 H1711 0.950 . S
C1723 C1719 1.393 . S
C1723 C1722 1.391 . S
H1724 C1732 0.950 . S
H1725 C1737 0.950 . S
H1726 C1734 0.950 . S
H1727 C1736 0.950 . S
H1728 C1738 0.950 . S
H1729 C1740 0.947 . S
H1730 C1742 0.950 . S
H1731 C1743 0.950 . S
C1732 H1724 0.950 . S
C1732 C1733 1.386 . S
C1732 C1734 1.391 . S
C1733 C1732 1.386 . S
C1733 C1737 1.393 . S
C1734 H1726 0.950 . S
C1734 C1732 1.391 . S
C1734 C1735 1.400 . S
C1735 C1734 1.400 . S
C1735 C1736 1.398 . S
C1735 C1741 1.491 1_556 S
C1736 H1727 0.950 . S
C1736 C1735 1.398 . S
C1736 C1737 1.391 . S
C1737 H1725 0.950 . S
C1737 C1733 1.393 . S
C1737 C1736 1.391 . S
C1738 H1728 0.950 . S
C1738 C1739 1.386 . S
C1738 C1740 1.391 . S
C1739 C1738 1.386 . S
C1739 C1743 1.393 . S
C1740 H1729 0.947 . S
C1740 C1738 1.391 . S
C1740 C1741 1.400 . S
C1741 C1735 1.491 1_554 S
C1741 C1740 1.400 . S
C1741 C1742 1.398 . S
C1742 H1730 0.950 . S
C1742 C1741 1.398 . S
C1742 C1743 1.391 . S
C1743 H1731 0.950 . S
C1743 C1739 1.393 . S
C1743 C1742 1.391 . S
H1744 C1752 0.950 . S
H1745 C1757 0.950 . S
H1746 C1754 0.950 . S
H1747 C1756 0.950 . S
H1748 C1758 0.950 . S
H1749 C1760 0.950 . S
H1750 C1762 0.950 . S
H1751 C1763 0.950 . S
C1752 H1744 0.950 . S
C1752 C1753 1.386 . S
C1752 C1754 1.391 . S
C1753 C1752 1.386 . S
C1753 C1757 1.393 . S
C1754 H1746 0.950 . S
C1754 C1752 1.391 . S
C1754 C1755 1.400 . S
C1755 C1754 1.400 . S
C1755 C1756 1.398 . S
C1755 C1761 1.491 . S
C1756 H1747 0.950 . S
C1756 C1755 1.398 . S
C1756 C1757 1.391 . S
C1757 H1745 0.950 . S
C1757 C1753 1.393 . S
C1757 C1756 1.391 . S
C1758 H1748 0.950 . S
C1758 C1759 1.386 . S
C1758 C1760 1.391 . S
C1759 C1758 1.386 . S
C1759 C1763 1.393 . S
C1760 H1749 0.950 . S
C1760 C1758 1.391 . S
C1760 C1761 1.400 . S
C1761 C1755 1.491 . S
C1761 C1760 1.400 . S
C1761 C1762 1.398 . S
C1762 H1750 0.950 . S
C1762 C1761 1.398 . S
C1762 C1763 1.391 . S
C1763 H1751 0.950 . S
C1763 C1759 1.393 . S
C1763 C1762 1.391 . S
H1764 C1772 0.950 . S
H1765 C1777 0.950 . S
H1766 C1774 0.950 . S
H1767 C1776 0.950 . S
H1768 C1778 0.950 . S
H1769 C1780 0.950 . S
H1770 C1782 0.950 . S
H1771 C1783 0.950 . S
C1772 H1764 0.950 . S
C1772 C1773 1.386 . S
C1772 C1774 1.391 . S
C1773 C1772 1.386 . S
C1773 C1777 1.393 . S
C1774 H1766 0.950 . S
C1774 C1772 1.391 . S
C1774 C1775 1.400 . S
C1775 C1774 1.400 . S
C1775 C1776 1.398 . S
C1775 C1781 1.491 . S
C1776 H1767 0.950 . S
C1776 C1775 1.398 . S
C1776 C1777 1.391 . S
C1777 H1765 0.950 . S
C1777 C1773 1.393 . S
C1777 C1776 1.391 . S
C1778 H1768 0.950 . S
C1778 C1779 1.386 . S
C1778 C1780 1.391 . S
C1779 C1778 1.386 . S
C1779 C1783 1.393 . S
C1780 H1769 0.950 . S
C1780 C1778 1.391 . S
C1780 C1781 1.400 . S
C1781 C1775 1.491 . S
C1781 C1780 1.400 . S
C1781 C1782 1.398 . S
C1782 H1770 0.950 . S
C1782 C1781 1.398 . S
C1782 C1783 1.391 . S
C1783 H1771 0.950 . S
C1783 C1779 1.393 . S
C1783 C1782 1.391 . S
H1784 C1792 0.950 . S
H1785 C1797 0.950 . S
H1786 C1794 0.950 . S
H1787 C1796 0.950 . S
H1788 C1798 0.950 . S
H1789 C1800 0.950 . S
H1790 C1802 0.950 . S
H1791 C1803 0.950 . S
C1792 H1784 0.950 . S
C1792 C1793 1.386 . S
C1792 C1794 1.391 . S
C1793 C1792 1.386 . S
C1793 C1797 1.393 . S
C1794 H1786 0.950 . S
C1794 C1792 1.391 . S
C1794 C1795 1.400 . S
C1795 C1794 1.400 . S
C1795 C1796 1.398 . S
C1795 C1801 1.491 . S
C1796 H1787 0.950 . S
C1796 C1795 1.398 . S
C1796 C1797 1.391 . S
C1797 H1785 0.950 . S
C1797 C1793 1.393 . S
C1797 C1796 1.391 . S
C1798 H1788 0.950 . S
C1798 C1799 1.386 . S
C1798 C1800 1.391 . S
C1799 C1798 1.386 . S
C1799 C1803 1.393 . S
C1800 H1789 0.950 . S
C1800 C1798 1.391 . S
C1800 C1801 1.400 . S
C1801 C1795 1.491 . S
C1801 C1800 1.400 . S
C1801 C1802 1.398 . S
C1802 H1790 0.950 . S
C1802 C1801 1.398 . S
C1802 C1803 1.391 . S
C1803 H1791 0.950 . S
C1803 C1799 1.393 . S
C1803 C1802 1.391 . S
H1804 C1812 0.950 . S
H1805 C1817 0.950 . S
H1806 C1814 0.950 . S
H1807 C1816 0.950 . S
H1808 C1818 0.950 . S
H1809 C1820 0.950 . S
H1810 C1822 0.950 . S
H1811 C1823 0.950 . S
C1812 H1804 0.950 . S
C1812 C1813 1.386 . S
C1812 C1814 1.391 . S
C1813 C1812 1.386 . S
C1813 C1817 1.393 . S
C1814 H1806 0.950 . S
C1814 C1812 1.391 . S
C1814 C1815 1.400 . S
C1815 C1814 1.400 . S
C1815 C1816 1.398 . S
C1815 C1821 1.491 . S
C1816 H1807 0.950 . S
C1816 C1815 1.398 . S
C1816 C1817 1.391 . S
C1817 H1805 0.950 . S
C1817 C1813 1.393 . S
C1817 C1816 1.391 . S
C1818 H1808 0.950 . S
C1818 C1819 1.386 . S
C1818 C1820 1.391 . S
C1819 C1818 1.386 . S
C1819 C1823 1.393 . S
C1820 H1809 0.950 . S
C1820 C1818 1.391 . S
C1820 C1821 1.400 . S
C1821 C1815 1.491 . S
C1821 C1820 1.400 . S
C1821 C1822 1.398 . S
C1822 H1810 0.950 . S
C1822 C1821 1.398 . S
C1822 C1823 1.391 . S
C1823 H1811 0.950 . S
C1823 C1819 1.393 . S
C1823 C1822 1.391 . S
H1824 C1832 0.950 . S
H1825 C1837 0.950 . S
H1826 C1834 0.950 . S
H1827 C1836 0.950 . S
H1828 C1838 0.950 . S
H1829 C1840 0.950 . S
H1830 C1842 0.950 . S
H1831 C1843 0.950 . S
C1832 H1824 0.950 . S
C1832 C1833 1.386 . S
C1832 C1834 1.391 . S
C1833 C1832 1.386 . S
C1833 C1837 1.393 . S
C1834 H1826 0.950 . S
C1834 C1832 1.391 . S
C1834 C1835 1.400 . S
C1835 C1834 1.400 . S
C1835 C1836 1.398 . S
C1835 C1841 1.491 . S
C1836 H1827 0.950 . S
C1836 C1835 1.398 . S
C1836 C1837 1.391 . S
C1837 H1825 0.950 . S
C1837 C1833 1.393 . S
C1837 C1836 1.391 . S
C1838 H1828 0.950 . S
C1838 C1839 1.386 . S
C1838 C1840 1.391 . S
C1839 C1838 1.386 . S
C1839 C1843 1.393 . S
C1840 H1829 0.950 . S
C1840 C1838 1.391 . S
C1840 C1841 1.400 . S
C1841 C1835 1.491 . S
C1841 C1840 1.400 . S
C1841 C1842 1.398 . S
C1842 H1830 0.950 . S
C1842 C1841 1.398 . S
C1842 C1843 1.391 . S
C1843 H1831 0.950 . S
C1843 C1839 1.393 . S
C1843 C1842 1.391 . S
H1844 C1852 0.950 . S
H1845 C1857 0.950 . S
H1846 C1854 0.950 . S
H1847 C1856 0.950 . S
H1848 C1858 0.950 . S
H1849 C1860 0.950 . S
H1850 C1862 0.950 . S
H1851 C1863 0.950 . S
C1852 H1844 0.950 . S
C1852 C1853 1.386 . S
C1852 C1854 1.391 . S
C1853 C1852 1.386 . S
C1853 C1857 1.393 . S
C1854 H1846 0.950 . S
C1854 C1852 1.391 . S
C1854 C1855 1.400 . S
C1855 C1854 1.400 . S
C1855 C1856 1.398 . S
C1855 C1861 1.491 . S
C1856 H1847 0.950 . S
C1856 C1855 1.398 . S
C1856 C1857 1.391 . S
C1857 H1845 0.950 . S
C1857 C1853 1.393 . S
C1857 C1856 1.391 . S
C1858 H1848 0.950 . S
C1858 C1859 1.386 . S
C1858 C1860 1.391 . S
C1859 C1858 1.386 . S
C1859 C1863 1.393 . S
C1860 H1849 0.950 . S
C1860 C1858 1.391 . S
C1860 C1861 1.400 . S
C1861 C1855 1.491 . S
C1861 C1860 1.400 . S
C1861 C1862 1.398 . S
C1862 H1850 0.950 . S
C1862 C1861 1.398 . S
C1862 C1863 1.391 . S
C1863 H1851 0.950 . S
C1863 C1859 1.393 . S
C1863 C1862 1.391 . S
H1864 C1872 0.950 . S
H1865 C1877 0.950 . S
H1866 C1874 0.950 . S
H1867 C1876 0.950 . S
H1868 C1878 0.950 . S
H1869 C1880 0.950 . S
H1870 C1882 0.950 . S
H1871 C1883 0.950 . S
C1872 H1864 0.950 . S
C1872 C1873 1.386 . S
C1872 C1874 1.391 . S
C1873 C1872 1.386 . S
C1873 C1877 1.393 . S
C1874 H1866 0.950 . S
C1874 C1872 1.391 . S
C1874 C1875 1.400 . S
C1875 C1874 1.400 . S
C1875 C1876 1.398 . S
C1875 C1881 1.491 . S
C1876 H1867 0.950 . S
C1876 C1875 1.398 . S
C1876 C1877 1.391 . S
C1877 H1865 0.950 . S
C1877 C1873 1.393 . S
C1877 C1876 1.391 . S
C1878 H1868 0.950 . S
C1878 C1879 1.386 . S
C1878 C1880 1.391 . S
C1879 C1878 1.386 . S
C1879 C1883 1.393 . S
C1880 H1869 0.950 . S
C1880 C1878 1.391 . S
C1880 C1881 1.400 . S
C1881 C1875 1.491 . S
C1881 C1880 1.400 . S
C1881 C1882 1.398 . S
C1882 H1870 0.950 . S
C1882 C1881 1.398 . S
C1882 C1883 1.391 . S
C1883 H1871 0.950 . S
C1883 C1879 1.393 . S
C1883 C1882 1.391 . S
H1884 C1892 0.950 . S
H1885 C1897 0.950 . S
H1886 C1894 0.950 . S
H1887 C1896 0.950 . S
H1888 C1898 0.950 . S
H1889 C1900 0.950 . S
H1890 C1902 0.950 . S
H1891 C1903 0.950 . S
C1892 H1884 0.950 . S
C1892 C1893 1.386 . S
C1892 C1894 1.391 . S
C1893 C1892 1.386 . S
C1893 C1897 1.393 . S
C1894 H1886 0.950 . S
C1894 C1892 1.391 . S
C1894 C1895 1.400 . S
C1895 C1894 1.400 . S
C1895 C1896 1.398 . S
C1895 C1901 1.491 . S
C1896 H1887 0.950 . S
C1896 C1895 1.398 . S
C1896 C1897 1.391 . S
C1897 H1885 0.950 . S
C1897 C1893 1.393 . S
C1897 C1896 1.391 . S
C1898 H1888 0.950 . S
C1898 C1899 1.386 . S
C1898 C1900 1.391 . S
C1899 C1898 1.386 . S
C1899 C1903 1.393 . S
C1900 H1889 0.950 . S
C1900 C1898 1.391 . S
C1900 C1901 1.400 . S
C1901 C1895 1.491 . S
C1901 C1900 1.400 . S
C1901 C1902 1.398 . S
C1902 H1890 0.950 . S
C1902 C1901 1.398 . S
C1902 C1903 1.391 . S
C1903 H1891 0.950 . S
C1903 C1899 1.393 . S
C1903 C1902 1.391 . S
H1904 C1912 0.950 . S
H1905 C1917 0.950 . S
H1906 C1914 0.950 . S
H1907 C1916 0.950 . S
H1908 C1918 0.950 . S
H1909 C1920 0.950 . S
H1910 C1922 0.950 . S
H1911 C1923 0.950 . S
C1912 H1904 0.950 . S
C1912 C1913 1.386 . S
C1912 C1914 1.391 . S
C1913 C1912 1.386 . S
C1913 C1917 1.393 . S
C1914 H1906 0.950 . S
C1914 C1912 1.391 . S
C1914 C1915 1.400 . S
C1915 C1914 1.400 . S
C1915 C1916 1.398 . S
C1915 C1921 1.491 . S
C1916 H1907 0.950 . S
C1916 C1915 1.398 . S
C1916 C1917 1.391 . S
C1917 H1905 0.950 . S
C1917 C1913 1.393 . S
C1917 C1916 1.391 . S
C1918 H1908 0.950 . S
C1918 C1919 1.386 . S
C1918 C1920 1.391 . S
C1919 C1918 1.386 . S
C1919 C1923 1.393 . S
C1920 H1909 0.950 . S
C1920 C1918 1.391 . S
C1920 C1921 1.400 . S
C1921 C1915 1.491 . S
C1921 C1920 1.400 . S
C1921 C1922 1.398 . S
C1922 H1910 0.950 . S
C1922 C1921 1.398 . S
C1922 C1923 1.391 . S
C1923 H1911 0.950 . S
C1923 C1919 1.393 . S
C1923 C1922 1.391 . S
H1924 C1932 0.950 . S
H1925 C1937 0.950 . S
H1926 C1934 0.950 . S
H1927 C1936 0.950 . S
H1928 C1938 0.950 . S
H1929 C1940 0.950 . S
H1930 C1942 0.950 . S
H1931 C1943 0.950 . S
C1932 H1924 0.950 . S
C1932 C1933 1.386 . S
C1932 C1934 1.391 . S
C1933 C1932 1.386 . S
C1933 C1937 1.393 . S
C1934 H1926 0.950 . S
C1934 C1932 1.391 . S
C1934 C1935 1.400 . S
C1935 C1934 1.400 . S
C1935 C1936 1.398 . S
C1935 C1941 1.491 . S
C1936 H1927 0.950 . S
C1936 C1935 1.398 . S
C1936 C1937 1.391 . S
C1937 H1925 0.950 . S
C1937 C1933 1.393 . S
C1937 C1936 1.391 . S
C1938 H1928 0.950 . S
C1938 C1939 1.386 . S
C1938 C1940 1.391 . S
C1939 C1938 1.386 . S
C1939 C1943 1.393 . S
C1940 H1929 0.950 . S
C1940 C1938 1.391 . S
C1940 C1941 1.400 . S
C1941 C1935 1.491 . S
C1941 C1940 1.400 . S
C1941 C1942 1.398 . S
C1942 H1930 0.950 . S
C1942 C1941 1.398 . S
C1942 C1943 1.391 . S
C1943 H1931 0.950 . S
C1943 C1939 1.393 . S
C1943 C1942 1.391 . S
H1944 C1952 0.950 . S
H1945 C1957 0.950 . S
H1946 C1954 0.950 . S
H1947 C1956 0.950 . S
H1948 C1958 0.950 . S
H1949 C1960 0.950 . S
H1950 C1962 0.950 . S
H1951 C1963 0.950 . S
C1952 H1944 0.950 . S
C1952 C1953 1.386 . S
C1952 C1954 1.391 . S
C1953 C1952 1.386 . S
C1953 C1957 1.393 . S
C1954 H1946 0.950 . S
C1954 C1952 1.391 . S
C1954 C1955 1.400 . S
C1955 C1954 1.400 . S
C1955 C1956 1.398 . S
C1955 C1961 1.491 . S
C1956 H1947 0.950 . S
C1956 C1955 1.398 . S
C1956 C1957 1.391 . S
C1957 H1945 0.950 . S
C1957 C1953 1.393 . S
C1957 C1956 1.391 . S
C1958 H1948 0.950 . S
C1958 C1959 1.386 . S
C1958 C1960 1.391 . S
C1959 C1958 1.386 . S
C1959 C1963 1.393 . S
C1960 H1949 0.950 . S
C1960 C1958 1.391 . S
C1960 C1961 1.400 . S
C1961 C1955 1.491 . S
C1961 C1960 1.400 . S
C1961 C1962 1.398 . S
C1962 H1950 0.950 . S
C1962 C1961 1.398 . S
C1962 C1963 1.391 . S
C1963 H1951 0.950 . S
C1963 C1959 1.393 . S
C1963 C1962 1.391 . S
H1964 C1972 0.950 . S
H1965 C1977 0.950 . S
H1966 C1974 0.950 . S
H1967 C1976 0.950 . S
H1968 C1978 0.950 . S
H1969 C1980 0.950 . S
H1970 C1982 0.950 . S
H1971 C1983 0.950 . S
C1972 H1964 0.950 . S
C1972 C1973 1.386 . S
C1972 C1974 1.391 . S
C1973 C1972 1.386 . S
C1973 C1977 1.393 . S
C1974 H1966 0.950 . S
C1974 C1972 1.391 . S
C1974 C1975 1.400 . S
C1975 C1974 1.400 . S
C1975 C1976 1.398 . S
C1975 C1981 1.491 . S
C1976 H1967 0.950 . S
C1976 C1975 1.398 . S
C1976 C1977 1.391 . S
C1977 H1965 0.950 . S
C1977 C1973 1.393 . S
C1977 C1976 1.391 . S
C1978 H1968 0.950 . S
C1978 C1979 1.386 . S
C1978 C1980 1.391 . S
C1979 C1978 1.386 . S
C1979 C1983 1.393 . S
C1980 H1969 0.950 . S
C1980 C1978 1.391 . S
C1980 C1981 1.400 . S
C1981 C1975 1.491 . S
C1981 C1980 1.400 . S
C1981 C1982 1.398 . S
C1982 H1970 0.950 . S
C1982 C1981 1.398 . S
C1982 C1983 1.391 . S
C1983 H1971 0.950 . S
C1983 C1979 1.393 . S
C1983 C1982 1.391 . S
H1984 C1992 0.950 . S
H1985 C1997 0.950 . S
H1986 C1994 0.950 . S
H1987 C1996 0.950 . S
H1988 C1998 0.950 . S
H1989 C2000 0.950 . S
H1990 C2002 0.950 . S
H1991 C2003 0.950 . S
C1992 H1984 0.950 . S
C1992 C1993 1.386 . S
C1992 C1994 1.391 . S
C1993 C1992 1.386 . S
C1993 C1997 1.393 . S
C1994 H1986 0.950 . S
C1994 C1992 1.391 . S
C1994 C1995 1.400 . S
C1995 C1994 1.400 . S
C1995 C1996 1.398 . S
C1995 C2001 1.491 . S
C1996 H1987 0.950 . S
C1996 C1995 1.398 . S
C1996 C1997 1.391 . S
C1997 H1985 0.950 . S
C1997 C1993 1.393 . S
C1997 C1996 1.391 . S
C1998 H1988 0.950 . S
C1998 C1999 1.386 . S
C1998 C2000 1.391 . S
C1999 C1998 1.386 . S
C1999 C2003 1.393 . S
C2000 H1989 0.950 . S
C2000 C1998 1.391 . S
C2000 C2001 1.400 . S
C2001 C1995 1.491 . S
C2001 C2000 1.400 . S
C2001 C2002 1.398 . S
C2002 H1990 0.950 . S
C2002 C2001 1.398 . S
C2002 C2003 1.391 . S
C2003 H1991 0.950 . S
C2003 C1999 1.393 . S
C2003 C2002 1.391 . S
H2004 C2012 0.950 . S
H2005 C2017 0.950 . S
H2006 C2014 0.950 . S
H2007 C2016 0.950 . S
H2008 C2018 0.950 . S
H2009 C2020 0.950 . S
H2010 C2022 0.950 . S
H2011 C2023 0.950 . S
C2012 H2004 0.950 . S
C2012 C2013 1.386 . S
C2012 C2014 1.391 . S
C2013 C2012 1.386 . S
C2013 C2017 1.393 . S
C2014 H2006 0.950 . S
C2014 C2012 1.391 . S
C2014 C2015 1.400 . S
C2015 C2014 1.400 . S
C2015 C2016 1.398 . S
C2015 C2021 1.491 . S
C2016 H2007 0.950 . S
C2016 C2015 1.398 . S
C2016 C2017 1.391 . S
C2017 H2005 0.950 . S
C2017 C2013 1.393 . S
C2017 C2016 1.391 . S
C2018 H2008 0.950 . S
C2018 C2019 1.386 . S
C2018 C2020 1.391 . S
C2019 C2018 1.386 . S
C2019 C2023 1.393 . S
C2020 H2009 0.950 . S
C2020 C2018 1.391 . S
C2020 C2021 1.400 . S
C2021 C2015 1.491 . S
C2021 C2020 1.400 . S
C2021 C2022 1.398 . S
C2022 H2010 0.950 . S
C2022 C2021 1.398 . S
C2022 C2023 1.391 . S
C2023 H2011 0.950 . S
C2023 C2019 1.393 . S
C2023 C2022 1.391 . S
H2024 C2032 0.950 . S
H2025 C2037 0.950 . S
H2026 C2034 0.950 . S
H2027 C2036 0.950 . S
H2028 C2038 0.950 . S
H2029 C2040 0.950 . S
H2030 C2042 0.950 . S
H2031 C2043 0.950 . S
C2032 H2024 0.950 . S
C2032 C2033 1.386 . S
C2032 C2034 1.391 . S
C2033 C2032 1.386 . S
C2033 C2037 1.393 . S
C2034 H2026 0.950 . S
C2034 C2032 1.391 . S
C2034 C2035 1.400 . S
C2035 C2034 1.400 . S
C2035 C2036 1.398 . S
C2035 C2041 1.491 . S
C2036 H2027 0.950 . S
C2036 C2035 1.398 . S
C2036 C2037 1.391 . S
C2037 H2025 0.950 . S
C2037 C2033 1.393 . S
C2037 C2036 1.391 . S
C2038 H2028 0.950 . S
C2038 C2039 1.386 . S
C2038 C2040 1.391 . S
C2039 C2038 1.386 . S
C2039 C2043 1.393 . S
C2040 H2029 0.950 . S
C2040 C2038 1.391 . S
C2040 C2041 1.400 . S
C2041 C2035 1.491 . S
C2041 C2040 1.400 . S
C2041 C2042 1.398 . S
C2042 H2030 0.950 . S
C2042 C2041 1.398 . S
C2042 C2043 1.391 . S
C2043 H2031 0.950 . S
C2043 C2039 1.393 . S
C2043 C2042 1.391 . S
H2044 C2052 0.950 . S
H2045 C2057 0.950 . S
H2046 C2054 0.950 . S
H2047 C2056 0.950 . S
H2048 C2058 0.950 . S
H2049 C2060 0.950 . S
H2050 C2062 0.950 . S
H2051 C2063 0.950 . S
C2052 H2044 0.950 . S
C2052 C2053 1.386 . S
C2052 C2054 1.391 . S
C2053 C2052 1.386 . S
C2053 C2057 1.393 . S
C2054 H2046 0.950 . S
C2054 C2052 1.391 . S
C2054 C2055 1.400 . S
C2055 C2054 1.400 . S
C2055 C2056 1.398 . S
C2055 C2061 1.491 . S
C2056 H2047 0.950 . S
C2056 C2055 1.398 . S
C2056 C2057 1.391 . S
C2057 H2045 0.950 . S
C2057 C2053 1.393 . S
C2057 C2056 1.391 . S
C2058 H2048 0.950 . S
C2058 C2059 1.386 . S
C2058 C2060 1.391 . S
C2059 C2058 1.386 . S
C2059 C2063 1.393 . S
C2060 H2049 0.950 . S
C2060 C2058 1.391 . S
C2060 C2061 1.400 . S
C2061 C2055 1.491 . S
C2061 C2060 1.400 . S
C2061 C2062 1.398 . S
C2062 H2050 0.950 . S
C2062 C2061 1.398 . S
C2062 C2063 1.391 . S
C2063 H2051 0.950 . S
C2063 C2059 1.393 . S
C2063 C2062 1.391 . S
H2064 C2072 0.950 . S
H2065 C2077 0.950 . S
H2066 C2074 0.950 . S
H2067 C2076 0.950 . S
H2068 C2078 0.950 . S
H2069 C2080 0.950 . S
H2070 C2082 0.950 . S
H2071 C2083 0.950 . S
C2072 H2064 0.950 . S
C2072 C2073 1.386 . S
C2072 C2074 1.391 . S
C2073 C2072 1.386 . S
C2073 C2077 1.393 . S
C2074 H2066 0.950 . S
C2074 C2072 1.391 . S
C2074 C2075 1.400 . S
C2075 C2074 1.400 . S
C2075 C2076 1.398 . S
C2075 C2081 1.491 . S
C2076 H2067 0.950 . S
C2076 C2075 1.398 . S
C2076 C2077 1.391 . S
C2077 H2065 0.950 . S
C2077 C2073 1.393 . S
C2077 C2076 1.391 . S
C2078 H2068 0.950 . S
C2078 C2079 1.386 . S
C2078 C2080 1.391 . S
C2079 C2078 1.386 . S
C2079 C2083 1.393 . S
C2080 H2069 0.950 . S
C2080 C2078 1.391 . S
C2080 C2081 1.400 . S
C2081 C2075 1.491 . S
C2081 C2080 1.400 . S
C2081 C2082 1.398 . S
C2082 H2070 0.950 . S
C2082 C2081 1.398 . S
C2082 C2083 1.391 . S
C2083 H2071 0.950 . S
C2083 C2079 1.393 . S
C2083 C2082 1.391 . S
H2084 C2092 0.950 . S
H2085 C2097 0.950 1_545 S
H2086 C2094 0.950 . S
H2087 C2096 0.950 . S
H2088 C2098 0.950 . S
H2089 C2100 0.950 . S
H2090 C2102 0.950 1_655 S
H2091 C2103 0.950 . S
C2092 H2084 0.950 . S
C2092 C2093 1.386 . S
C2092 C2094 1.391 . S
C2093 C2092 1.386 . S
C2093 C2097 1.393 . S
C2094 H2086 0.950 . S
C2094 C2092 1.391 . S
C2094 C2095 1.400 . S
C2095 C2094 1.400 . S
C2095 C2096 1.398 . S
C2095 C2101 1.491 1_655 S
C2096 H2087 0.950 . S
C2096 C2095 1.398 . S
C2096 C2097 1.391 . S
C2097 H2085 0.950 1_565 S
C2097 C2093 1.393 . S
C2097 C2096 1.391 . S
C2098 H2088 0.950 . S
C2098 C2099 1.386 . S
C2098 C2100 1.391 . S
C2099 C2098 1.386 . S
C2099 C2103 1.393 . S
C2100 H2089 0.950 . S
C2100 C2098 1.391 . S
C2100 C2101 1.400 . S
C2101 C2095 1.491 1_455 S
C2101 C2100 1.400 . S
C2101 C2102 1.398 . S
C2102 H2090 0.950 1_455 S
C2102 C2101 1.398 . S
C2102 C2103 1.391 . S
C2103 H2091 0.950 . S
C2103 C2099 1.393 . S
C2103 C2102 1.391 . S
H2104 C2112 0.950 . S
H2105 C2117 0.950 . S
H2106 C2114 0.950 . S
H2107 C2116 0.950 . S
H2108 C2118 0.950 . S
H2109 C2120 0.950 . S
H2110 C2122 0.950 . S
H2111 C2123 0.950 . S
C2112 H2104 0.950 . S
C2112 C2113 1.386 . S
C2112 C2114 1.391 . S
C2113 C2112 1.386 . S
C2113 C2117 1.393 . S
C2114 H2106 0.950 . S
C2114 C2112 1.391 . S
C2114 C2115 1.400 . S
C2115 C2114 1.400 . S
C2115 C2116 1.398 . S
C2115 C2121 1.491 . S
C2116 H2107 0.950 . S
C2116 C2115 1.398 . S
C2116 C2117 1.391 . S
C2117 H2105 0.950 . S
C2117 C2113 1.393 . S
C2117 C2116 1.391 . S
C2118 H2108 0.950 . S
C2118 C2119 1.386 . S
C2118 C2120 1.391 . S
C2119 C2118 1.386 . S
C2119 C2123 1.393 . S
C2120 H2109 0.950 . S
C2120 C2118 1.391 . S
C2120 C2121 1.400 . S
C2121 C2115 1.491 . S
C2121 C2120 1.400 . S
C2121 C2122 1.398 . S
C2122 H2110 0.950 . S
C2122 C2121 1.398 . S
C2122 C2123 1.391 . S
C2123 H2111 0.950 . S
C2123 C2119 1.393 . S
C2123 C2122 1.391 . S
H2124 C2132 0.950 . S
H2125 C2137 0.950 . S
H2126 C2134 0.950 . S
H2127 C2136 0.950 . S
H2128 C2138 0.950 . S
H2129 C2140 0.950 . S
H2130 C2142 0.950 . S
H2131 C2143 0.950 . S
C2132 H2124 0.950 . S
C2132 C2133 1.386 . S
C2132 C2134 1.391 . S
C2133 C2132 1.386 . S
C2133 C2137 1.393 . S
C2134 H2126 0.950 . S
C2134 C2132 1.391 . S
C2134 C2135 1.400 . S
C2135 C2134 1.400 . S
C2135 C2136 1.398 . S
C2135 C2141 1.491 1_556 S
C2136 H2127 0.950 . S
C2136 C2135 1.398 . S
C2136 C2137 1.391 . S
C2137 H2125 0.950 . S
C2137 C2133 1.393 . S
C2137 C2136 1.391 . S
C2138 H2128 0.950 . S
C2138 C2139 1.386 . S
C2138 C2140 1.391 . S
C2139 C2138 1.386 . S
C2139 C2143 1.393 . S
C2140 H2129 0.950 . S
C2140 C2138 1.391 . S
C2140 C2141 1.400 . S
C2141 C2135 1.491 1_554 S
C2141 C2140 1.400 . S
C2141 C2142 1.398 . S
C2142 H2130 0.950 . S
C2142 C2141 1.398 . S
C2142 C2143 1.391 . S
C2143 H2131 0.950 . S
C2143 C2139 1.393 . S
C2143 C2142 1.391 . S
H2144 C2152 0.950 . S
H2145 C2157 0.950 . S
H2146 C2154 0.950 . S
H2147 C2156 0.950 . S
H2148 C2158 0.950 . S
H2149 C2160 0.950 . S
H2150 C2162 0.950 . S
H2151 C2163 0.950 . S
C2152 H2144 0.950 . S
C2152 C2153 1.386 . S
C2152 C2154 1.391 . S
C2153 C2152 1.386 . S
C2153 C2157 1.393 . S
C2154 H2146 0.950 . S
C2154 C2152 1.391 . S
C2154 C2155 1.400 . S
C2155 C2154 1.400 . S
C2155 C2156 1.398 . S
C2155 C2161 1.491 . S
C2156 H2147 0.950 . S
C2156 C2155 1.398 . S
C2156 C2157 1.391 . S
C2157 H2145 0.950 . S
C2157 C2153 1.393 . S
C2157 C2156 1.391 . S
C2158 H2148 0.950 . S
C2158 C2159 1.386 . S
C2158 C2160 1.391 . S
C2159 C2158 1.386 . S
C2159 C2163 1.393 . S
C2160 H2149 0.950 . S
C2160 C2158 1.391 . S
C2160 C2161 1.400 . S
C2161 C2155 1.491 . S
C2161 C2160 1.400 . S
C2161 C2162 1.398 . S
C2162 H2150 0.950 . S
C2162 C2161 1.398 . S
C2162 C2163 1.391 . S
C2163 H2151 0.950 . S
C2163 C2159 1.393 . S
C2163 C2162 1.391 . S
H2164 C2172 0.950 . S
H2165 C2177 0.950 . S
H2166 C2174 0.950 . S
H2167 C2176 0.950 . S
H2168 C2178 0.950 . S
H2169 C2180 0.950 . S
H2170 C2182 0.950 . S
H2171 C2183 0.950 . S
C2172 H2164 0.950 . S
C2172 C2173 1.386 . S
C2172 C2174 1.391 . S
C2173 C2172 1.386 . S
C2173 C2177 1.393 . S
C2174 H2166 0.950 . S
C2174 C2172 1.391 . S
C2174 C2175 1.400 . S
C2175 C2174 1.400 . S
C2175 C2176 1.398 . S
C2175 C2181 1.491 . S
C2176 H2167 0.950 . S
C2176 C2175 1.398 . S
C2176 C2177 1.391 . S
C2177 H2165 0.950 . S
C2177 C2173 1.393 . S
C2177 C2176 1.391 . S
C2178 H2168 0.950 . S
C2178 C2179 1.386 . S
C2178 C2180 1.391 . S
C2179 C2178 1.386 . S
C2179 C2183 1.393 . S
C2180 H2169 0.950 . S
C2180 C2178 1.391 . S
C2180 C2181 1.400 . S
C2181 C2175 1.491 . S
C2181 C2180 1.400 . S
C2181 C2182 1.398 . S
C2182 H2170 0.950 . S
C2182 C2181 1.398 . S
C2182 C2183 1.391 . S
C2183 H2171 0.950 . S
C2183 C2179 1.393 . S
C2183 C2182 1.391 . S
H2184 C2192 0.950 . S
H2185 C2197 0.950 . S
H2186 C2194 0.950 . S
H2187 C2196 0.950 . S
H2188 C2198 0.950 . S
H2189 C2200 0.950 . S
H2190 C2202 0.950 . S
H2191 C2203 0.950 . S
C2192 H2184 0.950 . S
C2192 C2193 1.386 . S
C2192 C2194 1.391 . S
C2193 C2192 1.386 . S
C2193 C2197 1.393 . S
C2194 H2186 0.950 . S
C2194 C2192 1.391 . S
C2194 C2195 1.400 . S
C2195 C2194 1.400 . S
C2195 C2196 1.398 . S
C2195 C2201 1.491 . S
C2196 H2187 0.950 . S
C2196 C2195 1.398 . S
C2196 C2197 1.391 . S
C2197 H2185 0.950 . S
C2197 C2193 1.393 . S
C2197 C2196 1.391 . S
C2198 H2188 0.950 . S
C2198 C2199 1.386 . S
C2198 C2200 1.391 . S
C2199 C2198 1.386 . S
C2199 C2203 1.393 . S
C2200 H2189 0.950 . S
C2200 C2198 1.391 . S
C2200 C2201 1.400 . S
C2201 C2195 1.491 . S
C2201 C2200 1.400 . S
C2201 C2202 1.398 . S
C2202 H2190 0.950 . S
C2202 C2201 1.398 . S
C2202 C2203 1.391 . S
C2203 H2191 0.950 . S
C2203 C2199 1.393 . S
C2203 C2202 1.391 . S
H2204 C2212 0.950 . S
H2205 C2217 0.950 . S
H2206 C2214 0.950 . S
H2207 C2216 0.950 . S
H2208 C2218 0.950 . S
H2209 C2220 0.950 1_554 S
H2210 C2222 0.950 1_554 S
H2211 C2223 0.950 . S
C2212 H2204 0.950 . S
C2212 C2213 1.386 . S
C2212 C2214 1.391 . S
C2213 C2212 1.386 . S
C2213 C2217 1.393 . S
C2214 H2206 0.950 . S
C2214 C2212 1.391 . S
C2214 C2215 1.400 . S
C2215 C2214 1.400 . S
C2215 C2216 1.398 . S
C2215 C2221 1.491 . S
C2216 H2207 0.950 . S
C2216 C2215 1.398 . S
C2216 C2217 1.391 . S
C2217 H2205 0.950 . S
C2217 C2213 1.393 . S
C2217 C2216 1.391 . S
C2218 H2208 0.950 . S
C2218 C2219 1.386 . S
C2218 C2220 1.391 . S
C2219 C2218 1.386 . S
C2219 C2223 1.393 . S
C2220 H2209 0.950 1_556 S
C2220 C2218 1.391 . S
C2220 C2221 1.400 1_556 S
C2221 C2215 1.491 . S
C2221 C2220 1.400 1_554 S
C2221 C2222 1.398 1_554 S
C2222 H2210 0.950 1_556 S
C2222 C2221 1.398 1_556 S
C2222 C2223 1.391 . S
C2223 H2211 0.950 . S
C2223 C2219 1.393 . S
C2223 C2222 1.391 . S
H2224 C2232 0.950 . S
H2225 C2237 0.950 . S
H2226 C2234 0.950 . S
H2227 C2236 0.950 . S
H2228 C2238 0.950 . S
H2229 C2240 0.950 . S
H2230 C2242 0.950 . S
H2231 C2243 0.950 . S
C2232 H2224 0.950 . S
C2232 C2233 1.386 . S
C2232 C2234 1.391 . S
C2233 C2232 1.386 . S
C2233 C2237 1.393 . S
C2234 H2226 0.950 . S
C2234 C2232 1.391 . S
C2234 C2235 1.400 . S
C2235 C2234 1.400 . S
C2235 C2236 1.398 . S
C2235 C2241 1.491 . S
C2236 H2227 0.950 . S
C2236 C2235 1.398 . S
C2236 C2237 1.391 . S
C2237 H2225 0.950 . S
C2237 C2233 1.393 . S
C2237 C2236 1.391 . S
C2238 H2228 0.950 . S
C2238 C2239 1.386 . S
C2238 C2240 1.391 . S
C2239 C2238 1.386 . S
C2239 C2243 1.393 . S
C2240 H2229 0.950 . S
C2240 C2238 1.391 . S
C2240 C2241 1.400 . S
C2241 C2235 1.491 . S
C2241 C2240 1.400 . S
C2241 C2242 1.398 . S
C2242 H2230 0.950 . S
C2242 C2241 1.398 . S
C2242 C2243 1.391 . S
C2243 H2231 0.950 . S
C2243 C2239 1.393 . S
C2243 C2242 1.391 . S
H2244 C2252 0.950 . S
H2245 C2257 0.950 . S
H2246 C2254 0.950 . S
H2247 C2256 0.950 . S
H2248 C2258 0.950 . S
H2249 C2260 0.950 . S
H2250 C2262 0.950 . S
H2251 C2263 0.950 . S
C2252 H2244 0.950 . S
C2252 C2253 1.386 . S
C2252 C2254 1.391 . S
C2253 C2252 1.386 . S
C2253 C2257 1.393 . S
C2254 H2246 0.950 . S
C2254 C2252 1.391 . S
C2254 C2255 1.400 . S
C2255 C2254 1.400 . S
C2255 C2256 1.398 . S
C2255 C2261 1.491 . S
C2256 H2247 0.950 . S
C2256 C2255 1.398 . S
C2256 C2257 1.391 . S
C2257 H2245 0.950 . S
C2257 C2253 1.393 . S
C2257 C2256 1.391 . S
C2258 H2248 0.950 . S
C2258 C2259 1.386 . S
C2258 C2260 1.391 . S
C2259 C2258 1.386 . S
C2259 C2263 1.393 . S
C2260 H2249 0.950 . S
C2260 C2258 1.391 . S
C2260 C2261 1.400 . S
C2261 C2255 1.491 . S
C2261 C2260 1.400 . S
C2261 C2262 1.398 . S
C2262 H2250 0.950 . S
C2262 C2261 1.398 . S
C2262 C2263 1.391 . S
C2263 H2251 0.950 . S
C2263 C2259 1.393 . S
C2263 C2262 1.391 . S
H2264 C2272 0.950 . S
H2265 C2277 0.950 . S
H2266 C2274 0.950 . S
H2267 C2276 0.950 . S
H2268 C2278 0.950 . S
H2269 C2280 0.950 . S
H2270 C2282 0.950 . S
H2271 C2283 0.950 . S
C2272 H2264 0.950 . S
C2272 C2273 1.386 . S
C2272 C2274 1.391 . S
C2273 C2272 1.386 . S
C2273 C2277 1.393 . S
C2274 H2266 0.950 . S
C2274 C2272 1.391 . S
C2274 C2275 1.400 . S
C2275 C2274 1.400 . S
C2275 C2276 1.398 . S
C2275 C2281 1.491 . S
C2276 H2267 0.950 . S
C2276 C2275 1.398 . S
C2276 C2277 1.391 . S
C2277 H2265 0.950 . S
C2277 C2273 1.393 . S
C2277 C2276 1.391 . S
C2278 H2268 0.950 . S
C2278 C2279 1.386 . S
C2278 C2280 1.391 . S
C2279 C2278 1.386 . S
C2279 C2283 1.393 . S
C2280 H2269 0.950 . S
C2280 C2278 1.391 . S
C2280 C2281 1.400 . S
C2281 C2275 1.491 . S
C2281 C2280 1.400 . S
C2281 C2282 1.398 . S
C2282 H2270 0.950 . S
C2282 C2281 1.398 . S
C2282 C2283 1.391 . S
C2283 H2271 0.950 . S
C2283 C2279 1.393 . S
C2283 C2282 1.391 . S
H2284 C2292 0.950 . S
H2285 C2297 0.950 . S
H2286 C2294 0.950 . S
H2287 C2296 0.950 . S
H2288 C2298 0.950 . S
H2289 C2300 0.950 . S
H2290 C2302 0.950 . S
H2291 C2303 0.950 . S
C2292 H2284 0.950 . S
C2292 C2293 1.386 . S
C2292 C2294 1.391 . S
C2293 C2292 1.386 . S
C2293 C2297 1.393 . S
C2294 H2286 0.950 . S
C2294 C2292 1.391 . S
C2294 C2295 1.400 . S
C2295 C2294 1.400 . S
C2295 C2296 1.398 . S
C2295 C2301 1.491 . S
C2296 H2287 0.950 . S
C2296 C2295 1.398 . S
C2296 C2297 1.391 . S
C2297 H2285 0.950 . S
C2297 C2293 1.393 . S
C2297 C2296 1.391 . S
C2298 H2288 0.950 . S
C2298 C2299 1.386 . S
C2298 C2300 1.391 . S
C2299 C2298 1.386 . S
C2299 C2303 1.393 . S
C2300 H2289 0.950 . S
C2300 C2298 1.391 . S
C2300 C2301 1.400 . S
C2301 C2295 1.491 . S
C2301 C2300 1.400 . S
C2301 C2302 1.398 . S
C2302 H2290 0.950 . S
C2302 C2301 1.398 . S
C2302 C2303 1.391 . S
C2303 H2291 0.950 . S
C2303 C2299 1.393 . S
C2303 C2302 1.391 . S
H2304 C2312 0.950 . S
H2305 C2317 0.950 . S
H2306 C2314 0.950 . S
H2307 C2316 0.950 . S
H2308 C2318 0.950 . S
H2309 C2320 0.950 . S
H2310 C2322 0.950 . S
H2311 C2323 0.950 . S
C2312 H2304 0.950 . S
C2312 C2313 1.386 . S
C2312 C2314 1.391 . S
C2313 C2312 1.386 . S
C2313 C2317 1.393 . S
C2314 H2306 0.950 . S
C2314 C2312 1.391 . S
C2314 C2315 1.400 . S
C2315 C2314 1.400 . S
C2315 C2316 1.398 . S
C2315 C2321 1.491 . S
C2316 H2307 0.950 . S
C2316 C2315 1.398 . S
C2316 C2317 1.391 . S
C2317 H2305 0.950 . S
C2317 C2313 1.393 . S
C2317 C2316 1.391 . S
C2318 H2308 0.950 . S
C2318 C2319 1.386 . S
C2318 C2320 1.391 . S
C2319 C2318 1.386 . S
C2319 C2323 1.393 . S
C2320 H2309 0.950 . S
C2320 C2318 1.391 . S
C2320 C2321 1.400 . S
C2321 C2315 1.491 . S
C2321 C2320 1.400 . S
C2321 C2322 1.398 . S
C2322 H2310 0.950 . S
C2322 C2321 1.398 . S
C2322 C2323 1.391 . S
C2323 H2311 0.950 . S
C2323 C2319 1.393 . S
C2323 C2322 1.391 . S
H2324 C2332 0.950 . S
H2325 C2337 0.950 . S
H2326 C2334 0.950 . S
H2327 C2336 0.950 . S
H2328 C2338 0.950 . S
H2329 C2340 0.950 . S
H2330 C2342 0.950 . S
H2331 C2343 0.950 . S
C2332 H2324 0.950 . S
C2332 C2333 1.386 . S
C2332 C2334 1.391 . S
C2333 C2332 1.386 . S
C2333 C2337 1.393 . S
C2334 H2326 0.950 . S
C2334 C2332 1.391 . S
C2334 C2335 1.400 . S
C2335 C2334 1.400 . S
C2335 C2336 1.398 . S
C2335 C2341 1.491 . S
C2336 H2327 0.950 . S
C2336 C2335 1.398 . S
C2336 C2337 1.391 . S
C2337 H2325 0.950 . S
C2337 C2333 1.393 . S
C2337 C2336 1.391 . S
C2338 H2328 0.950 . S
C2338 C2339 1.386 . S
C2338 C2340 1.391 . S
C2339 C2338 1.386 . S
C2339 C2343 1.393 . S
C2340 H2329 0.950 . S
C2340 C2338 1.391 . S
C2340 C2341 1.400 . S
C2341 C2335 1.491 . S
C2341 C2340 1.400 . S
C2341 C2342 1.398 . S
C2342 H2330 0.950 . S
C2342 C2341 1.398 . S
C2342 C2343 1.391 . S
C2343 H2331 0.950 . S
C2343 C2339 1.393 . S
C2343 C2342 1.391 . S
H2344 C2352 0.950 . S
H2345 C2357 0.950 . S
H2346 C2354 0.950 . S
H2347 C2356 0.950 . S
H2348 C2358 0.950 . S
H2349 C2360 0.950 . S
H2350 C2362 0.950 . S
H2351 C2363 0.950 . S
C2352 H2344 0.950 . S
C2352 C2353 1.386 . S
C2352 C2354 1.391 . S
C2353 C2352 1.386 . S
C2353 C2357 1.393 . S
C2354 H2346 0.950 . S
C2354 C2352 1.391 . S
C2354 C2355 1.400 . S
C2355 C2354 1.400 . S
C2355 C2356 1.398 . S
C2355 C2361 1.491 . S
C2356 H2347 0.950 . S
C2356 C2355 1.398 . S
C2356 C2357 1.391 . S
C2357 H2345 0.950 . S
C2357 C2353 1.393 . S
C2357 C2356 1.391 . S
C2358 H2348 0.950 . S
C2358 C2359 1.386 . S
C2358 C2360 1.391 . S
C2359 C2358 1.386 . S
C2359 C2363 1.393 . S
C2360 H2349 0.950 . S
C2360 C2358 1.391 . S
C2360 C2361 1.400 . S
C2361 C2355 1.491 . S
C2361 C2360 1.400 . S
C2361 C2362 1.398 . S
C2362 H2350 0.950 . S
C2362 C2361 1.398 . S
C2362 C2363 1.391 . S
C2363 H2351 0.950 . S
C2363 C2359 1.393 . S
C2363 C2362 1.391 . S
H2364 C2372 0.950 . S
H2365 C2377 0.950 . S
H2366 C2374 0.950 . S
H2367 C2376 0.950 . S
H2368 C2378 0.950 . S
H2369 C2380 0.950 . S
H2370 C2382 0.950 . S
H2371 C2383 0.950 . S
C2372 H2364 0.950 . S
C2372 C2373 1.386 . S
C2372 C2374 1.391 . S
C2373 C2372 1.386 . S
C2373 C2377 1.393 . S
C2374 H2366 0.950 . S
C2374 C2372 1.391 . S
C2374 C2375 1.400 . S
C2375 C2374 1.400 . S
C2375 C2376 1.398 . S
C2375 C2381 1.491 . S
C2376 H2367 0.950 . S
C2376 C2375 1.398 . S
C2376 C2377 1.391 . S
C2377 H2365 0.950 . S
C2377 C2373 1.393 . S
C2377 C2376 1.391 . S
C2378 H2368 0.950 . S
C2378 C2379 1.386 . S
C2378 C2380 1.391 . S
C2379 C2378 1.386 . S
C2379 C2383 1.393 . S
C2380 H2369 0.950 . S
C2380 C2378 1.391 . S
C2380 C2381 1.400 . S
C2381 C2375 1.491 . S
C2381 C2380 1.400 . S
C2381 C2382 1.398 . S
C2382 H2370 0.950 . S
C2382 C2381 1.398 . S
C2382 C2383 1.391 . S
C2383 H2371 0.950 . S
C2383 C2379 1.393 . S
C2383 C2382 1.391 . S
H2384 C2392 0.950 . S
H2385 C2397 0.950 . S
H2386 C2394 0.950 . S
H2387 C2396 0.950 . S
H2388 C2398 0.950 . S
H2389 C2400 0.950 . S
H2390 C2402 0.950 . S
H2391 C2403 0.950 . S
C2392 H2384 0.950 . S
C2392 C2393 1.386 . S
C2392 C2394 1.391 . S
C2393 C2392 1.386 . S
C2393 C2397 1.393 . S
C2394 H2386 0.950 . S
C2394 C2392 1.391 . S
C2394 C2395 1.400 . S
C2395 C2394 1.400 . S
C2395 C2396 1.398 . S
C2395 C2401 1.491 . S
C2396 H2387 0.950 . S
C2396 C2395 1.398 . S
C2396 C2397 1.391 . S
C2397 H2385 0.950 . S
C2397 C2393 1.393 . S
C2397 C2396 1.391 . S
C2398 H2388 0.950 . S
C2398 C2399 1.386 . S
C2398 C2400 1.391 . S
C2399 C2398 1.386 . S
C2399 C2403 1.393 . S
C2400 H2389 0.950 . S
C2400 C2398 1.391 . S
C2400 C2401 1.400 . S
C2401 C2395 1.491 . S
C2401 C2400 1.400 . S
C2401 C2402 1.398 . S
C2402 H2390 0.950 . S
C2402 C2401 1.398 . S
C2402 C2403 1.391 . S
C2403 H2391 0.950 . S
C2403 C2399 1.393 . S
C2403 C2402 1.391 . S
H2404 C2412 0.950 . S
H2405 C2417 0.950 . S
H2406 C2414 0.950 . S
H2407 C2416 0.950 . S
H2408 C2418 0.950 . S
H2409 C2420 0.950 . S
H2410 C2422 0.950 . S
H2411 C2423 0.950 . S
C2412 H2404 0.950 . S
C2412 C2413 1.386 . S
C2412 C2414 1.391 . S
C2413 C2412 1.386 . S
C2413 C2417 1.393 . S
C2414 H2406 0.950 . S
C2414 C2412 1.391 . S
C2414 C2415 1.400 . S
C2415 C2414 1.400 . S
C2415 C2416 1.398 . S
C2415 C2421 1.491 . S
C2416 H2407 0.950 . S
C2416 C2415 1.398 . S
C2416 C2417 1.391 . S
C2417 H2405 0.950 . S
C2417 C2413 1.393 . S
C2417 C2416 1.391 . S
C2418 H2408 0.950 . S
C2418 C2419 1.386 . S
C2418 C2420 1.391 . S
C2419 C2418 1.386 . S
C2419 C2423 1.393 . S
C2420 H2409 0.950 . S
C2420 C2418 1.391 . S
C2420 C2421 1.400 . S
C2421 C2415 1.491 . S
C2421 C2420 1.400 . S
C2421 C2422 1.398 . S
C2422 H2410 0.950 . S
C2422 C2421 1.398 . S
C2422 C2423 1.391 . S
C2423 H2411 0.950 . S
C2423 C2419 1.393 . S
C2423 C2422 1.391 . S
H2424 C2432 0.950 . S
H2425 C2437 0.950 . S
H2426 C2434 0.950 . S
H2427 C2436 0.950 . S
H2428 C2438 0.950 . S
H2429 C2440 0.950 . S
H2430 C2442 0.950 . S
H2431 C2443 0.950 . S
C2432 H2424 0.950 . S
C2432 C2433 1.386 . S
C2432 C2434 1.391 . S
C2433 C2432 1.386 . S
C2433 C2437 1.393 . S
C2434 H2426 0.950 . S
C2434 C2432 1.391 . S
C2434 C2435 1.400 . S
C2435 C2434 1.400 . S
C2435 C2436 1.398 . S
C2435 C2441 1.491 . S
C2436 H2427 0.950 . S
C2436 C2435 1.398 . S
C2436 C2437 1.391 . S
C2437 H2425 0.950 . S
C2437 C2433 1.393 . S
C2437 C2436 1.391 . S
C2438 H2428 0.950 . S
C2438 C2439 1.386 . S
C2438 C2440 1.391 . S
C2439 C2438 1.386 . S
C2439 C2443 1.393 . S
C2440 H2429 0.950 . S
C2440 C2438 1.391 . S
C2440 C2441 1.400 . S
C2441 C2435 1.491 . S
C2441 C2440 1.400 . S
C2441 C2442 1.398 . S
C2442 H2430 0.950 . S
C2442 C2441 1.398 . S
C2442 C2443 1.391 . S
C2443 H2431 0.950 . S
C2443 C2439 1.393 . S
C2443 C2442 1.391 . S
H2444 C2452 0.950 . S
H2445 C2457 0.950 . S
H2446 C2454 0.950 . S
H2447 C2456 0.950 . S
H2448 C2458 0.950 . S
H2449 C2460 0.950 . S
H2450 C2462 0.950 . S
H2451 C2463 0.950 . S
C2452 H2444 0.950 . S
C2452 C2453 1.386 . S
C2452 C2454 1.391 . S
C2453 C2452 1.386 . S
C2453 C2457 1.393 . S
C2454 H2446 0.950 . S
C2454 C2452 1.391 . S
C2454 C2455 1.400 . S
C2455 C2454 1.400 . S
C2455 C2456 1.398 . S
C2455 C2461 1.491 . S
C2456 H2447 0.950 . S
C2456 C2455 1.398 . S
C2456 C2457 1.391 . S
C2457 H2445 0.950 . S
C2457 C2453 1.393 . S
C2457 C2456 1.391 . S
C2458 H2448 0.950 . S
C2458 C2459 1.386 . S
C2458 C2460 1.391 . S
C2459 C2458 1.386 . S
C2459 C2463 1.393 . S
C2460 H2449 0.950 . S
C2460 C2458 1.391 . S
C2460 C2461 1.400 . S
C2461 C2455 1.491 . S
C2461 C2460 1.400 . S
C2461 C2462 1.398 . S
C2462 H2450 0.950 . S
C2462 C2461 1.398 . S
C2462 C2463 1.391 . S
C2463 H2451 0.950 . S
C2463 C2459 1.393 . S
C2463 C2462 1.391 . S
H2464 C2472 0.950 . S
H2465 C2477 0.950 . S
H2466 C2474 0.950 . S
H2467 C2476 0.950 . S
H2468 C2478 0.950 . S
H2469 C2480 0.950 . S
H2470 C2482 0.950 . S
H2471 C2483 0.950 . S
C2472 H2464 0.950 . S
C2472 C2473 1.386 . S
C2472 C2474 1.391 . S
C2473 C2472 1.386 . S
C2473 C2477 1.393 . S
C2474 H2466 0.950 . S
C2474 C2472 1.391 . S
C2474 C2475 1.400 . S
C2475 C2474 1.400 . S
C2475 C2476 1.398 . S
C2475 C2481 1.491 . S
C2476 H2467 0.950 . S
C2476 C2475 1.398 . S
C2476 C2477 1.391 . S
C2477 H2465 0.950 . S
C2477 C2473 1.393 . S
C2477 C2476 1.391 . S
C2478 H2468 0.950 . S
C2478 C2479 1.386 . S
C2478 C2480 1.391 . S
C2479 C2478 1.386 . S
C2479 C2483 1.393 . S
C2480 H2469 0.950 . S
C2480 C2478 1.391 . S
C2480 C2481 1.400 . S
C2481 C2475 1.491 . S
C2481 C2480 1.400 . S
C2481 C2482 1.398 . S
C2482 H2470 0.950 . S
C2482 C2481 1.398 . S
C2482 C2483 1.391 . S
C2483 H2471 0.950 . S
C2483 C2479 1.393 . S
C2483 C2482 1.391 . S
H2484 C2492 0.950 . S
H2485 C2497 0.950 . S
H2486 C2494 0.950 . S
H2487 C2496 0.950 . S
H2488 C2498 0.950 . S
H2489 C2500 0.950 . S
H2490 C2502 0.950 . S
H2491 C2503 0.950 . S
C2492 H2484 0.950 . S
C2492 C2493 1.386 . S
C2492 C2494 1.391 . S
C2493 C2492 1.386 . S
C2493 C2497 1.393 . S
C2494 H2486 0.950 . S
C2494 C2492 1.391 . S
C2494 C2495 1.400 . S
C2495 C2494 1.400 . S
C2495 C2496 1.398 . S
C2495 C2501 1.491 . S
C2496 H2487 0.950 . S
C2496 C2495 1.398 . S
C2496 C2497 1.391 . S
C2497 H2485 0.950 . S
C2497 C2493 1.393 . S
C2497 C2496 1.391 . S
C2498 H2488 0.950 . S
C2498 C2499 1.386 . S
C2498 C2500 1.391 . S
C2499 C2498 1.386 . S
C2499 C2503 1.393 . S
C2500 H2489 0.950 . S
C2500 C2498 1.391 . S
C2500 C2501 1.400 . S
C2501 C2495 1.491 . S
C2501 C2500 1.400 . S
C2501 C2502 1.398 . S
C2502 H2490 0.950 . S
C2502 C2501 1.398 . S
C2502 C2503 1.391 . S
C2503 H2491 0.950 . S
C2503 C2499 1.393 . S
C2503 C2502 1.391 . S
H2504 C2512 0.950 . S
H2505 C2517 0.950 . S
H2506 C2514 0.950 . S
H2507 C2516 0.950 . S
H2508 C2518 0.950 . S
H2509 C2520 0.950 . S
H2510 C2522 0.950 . S
H2511 C2523 0.950 . S
C2512 H2504 0.950 . S
C2512 C2513 1.386 . S
C2512 C2514 1.391 . S
C2513 C2512 1.386 . S
C2513 C2517 1.393 . S
C2514 H2506 0.950 . S
C2514 C2512 1.391 . S
C2514 C2515 1.400 . S
C2515 C2514 1.400 . S
C2515 C2516 1.398 . S
C2515 C2521 1.491 . S
C2516 H2507 0.950 . S
C2516 C2515 1.398 . S
C2516 C2517 1.391 . S
C2517 H2505 0.950 . S
C2517 C2513 1.393 . S
C2517 C2516 1.391 . S
C2518 H2508 0.950 . S
C2518 C2519 1.386 . S
C2518 C2520 1.391 . S
C2519 C2518 1.386 . S
C2519 C2523 1.393 . S
C2520 H2509 0.950 . S
C2520 C2518 1.391 . S
C2520 C2521 1.400 . S
C2521 C2515 1.491 . S
C2521 C2520 1.400 . S
C2521 C2522 1.398 . S
C2522 H2510 0.950 . S
C2522 C2521 1.398 . S
C2522 C2523 1.391 . S
C2523 H2511 0.950 . S
C2523 C2519 1.393 . S
C2523 C2522 1.391 . S
H2524 C2532 0.950 . S
H2525 C2537 0.950 . S
H2526 C2534 0.950 . S
H2527 C2536 0.950 . S
H2528 C2538 0.950 . S
H2529 C2540 0.950 . S
H2530 C2542 0.950 . S
H2531 C2543 0.950 . S
C2532 H2524 0.950 . S
C2532 C2533 1.386 . S
C2532 C2534 1.391 . S
C2533 C2532 1.386 . S
C2533 C2537 1.393 . S
C2534 H2526 0.950 . S
C2534 C2532 1.391 . S
C2534 C2535 1.400 . S
C2535 C2534 1.400 . S
C2535 C2536 1.398 . S
C2535 C2541 1.491 . S
C2536 H2527 0.950 . S
C2536 C2535 1.398 . S
C2536 C2537 1.391 . S
C2537 H2525 0.950 . S
C2537 C2533 1.393 . S
C2537 C2536 1.391 . S
C2538 H2528 0.950 . S
C2538 C2539 1.386 . S
C2538 C2540 1.391 . S
C2539 C2538 1.386 . S
C2539 C2543 1.393 . S
C2540 H2529 0.950 . S
C2540 C2538 1.391 . S
C2540 C2541 1.400 . S
C2541 C2535 1.491 . S
C2541 C2540 1.400 . S
C2541 C2542 1.398 . S
C2542 H2530 0.950 . S
C2542 C2541 1.398 . S
C2542 C2543 1.391 . S
C2543 H2531 0.950 . S
C2543 C2539 1.393 . S
C2543 C2542 1.391 . S
H2544 C2552 0.950 . S
H2545 C2557 0.950 . S
H2546 C2554 0.950 . S
H2547 C2556 0.950 . S
H2548 C2558 0.950 . S
H2549 C2560 0.950 . S
H2550 C2562 0.950 . S
H2551 C2563 0.950 . S
C2552 H2544 0.950 . S
C2552 C2553 1.386 . S
C2552 C2554 1.391 . S
C2553 C2552 1.386 . S
C2553 C2557 1.393 . S
C2554 H2546 0.950 . S
C2554 C2552 1.391 . S
C2554 C2555 1.400 . S
C2555 C2554 1.400 . S
C2555 C2556 1.398 . S
C2555 C2561 1.491 . S
C2556 H2547 0.950 . S
C2556 C2555 1.398 . S
C2556 C2557 1.391 . S
C2557 H2545 0.950 . S
C2557 C2553 1.393 . S
C2557 C2556 1.391 . S
C2558 H2548 0.950 . S
C2558 C2559 1.386 . S
C2558 C2560 1.391 . S
C2559 C2558 1.386 . S
C2559 C2563 1.393 . S
C2560 H2549 0.950 . S
C2560 C2558 1.391 . S
C2560 C2561 1.400 . S
C2561 C2555 1.491 . S
C2561 C2560 1.400 . S
C2561 C2562 1.398 . S
C2562 H2550 0.950 . S
C2562 C2561 1.398 . S
C2562 C2563 1.391 . S
C2563 H2551 0.950 . S
C2563 C2559 1.393 . S
C2563 C2562 1.391 . S
H2564 C2572 0.950 . S
H2565 C2577 0.950 . S
H2566 C2574 0.950 . S
H2567 C2576 0.950 . S
H2568 C2578 0.950 . S
H2569 C2580 0.950 . S
H2570 C2582 0.950 . S
H2571 C2583 0.950 . S
C2572 H2564 0.950 . S
C2572 C2573 1.386 . S
C2572 C2574 1.391 . S
C2573 C2572 1.386 . S
C2573 C2577 1.393 . S
C2574 H2566 0.950 . S
C2574 C2572 1.391 . S
C2574 C2575 1.400 . S
C2575 C2574 1.400 . S
C2575 C2576 1.398 . S
C2575 C2581 1.491 . S
C2576 H2567 0.950 . S
C2576 C2575 1.398 . S
C2576 C2577 1.391 . S
C2577 H2565 0.950 . S
C2577 C2573 1.393 . S
C2577 C2576 1.391 . S
C2578 H2568 0.950 . S
C2578 C2579 1.386 . S
C2578 C2580 1.391 . S
C2579 C2578 1.386 . S
C2579 C2583 1.393 . S
C2580 H2569 0.950 . S
C2580 C2578 1.391 . S
C2580 C2581 1.400 1_655 S
C2581 C2575 1.491 . S
C2581 C2580 1.400 1_455 S
C2581 C2582 1.398 . S
C2582 H2570 0.950 . S
C2582 C2581 1.398 . S
C2582 C2583 1.391 1_455 S
C2583 H2571 0.950 . S
C2583 C2579 1.393 . S
C2583 C2582 1.391 1_655 S
C679 C319 0.910 . S
C673 C0 0.921 . S
C693 C18 1.091 . S
C699 C339 1.072 . S
C719 C360 1.117 . S
C713 C34 1.151 . S
C739 C387 1.065 . S
C733 C49 1.098 . S
C759 C343 1.078 . S
C753 C62 1.089 . S
C773 C73 1.149 . S
C779 C363 1.105 . S
C799 C383 1.084 . S
C793 C83 1.072 . S
C813 C91 0.922 . S
C819 C316 0.886 . S
C833 C109 0.964 . S
C839 C321 0.956 . S
C859 C338 1.069 . S
C853 C125 1.092 . S
C879 C362 1.099 . S
C873 C130 1.125 . S
C899 C386 1.085 . S
C893 C153 1.119 . S
C919 C342 1.099 . S
C913 C114 1.111 . S
C939 C365 1.080 . S
C933 C117 1.122 . S
C953 C138 1.076 . S
C959 C382 1.028 . S
C979 C318 0.964 . S
C973 C148 0.956 . S
C993 C161 0.987 . S
C999 C320 0.960 . S
C1013 C169 1.139 . S
C1019 C407 1.123 . S
C1039 C427 1.074 . S
C1033 C190 1.098 . S
C1059 C450 1.040 . S
C1053 C205 1.101 . S
C1073 C213 0.963 . S
C1079 C317 0.989 . S
C1093 C229 1.096 . S
C1099 C361 1.074 . S
C1119 C451 1.117 . S
C1113 C182 1.134 . S
C1139 C406 1.036 . S
C1133 C244 1.103 . S
C1159 C474 1.107 . S
C1153 C21 1.190 . S
C1179 C495 1.035 . S
C1173 C5 1.068 . S
C1193 C39 0.969 . S
C1199 C514 0.968 . S
C1213 C36 1.111 . S
C1219 C539 1.082 . S
C1233 C101 1.105 . S
C1239 C494 1.088 . S
C1253 C78 0.986 . S
C1259 C519 0.921 . S
C1279 C538 1.035 . S
C1273 C70 1.069 . S
C1293 C60 1.183 . S
C1299 C471 1.145 . S
C1313 C257 1.111 . S
C1319 C475 1.091 . S
C1339 C496 1.060 . S
C1333 C203 1.101 . S
C1359 C515 1.045 . S
C1353 C208 1.086 . S
C1379 C540 1.007 . S
C1373 C174 1.002 . S
C1399 C492 0.990 . S
C1393 C252 1.026 . S
C1419 C517 1.057 . S
C1413 C195 1.081 . S
C1439 C536 1.053 . S
C1433 C216 1.103 . S
C1453 C179 1.119 . S
C1459 C472 1.101 . S
C1479 C473 1.088 . S
C1473 C270 1.107 . S
C1493 C143 1.101 . S
C1499 C559 1.031 . S
C1519 C584 1.054 . S
C1513 C281 1.100 . S
C1533 C122 1.001 . S
C1539 C603 1.032 . S
C1559 C470 1.081 . S
C1553 C140 1.105 . S
C1579 C516 1.077 . S
C1573 C294 1.095 . S
C1599 C607 1.058 . S
C1593 C273 1.092 . S
C1613 C304 1.019 . S
C1619 C563 1.026 . S
C1633 C26 0.931 . S
C1639 C627 0.894 . S
C1653 C44 1.099 . S
C1659 C405 1.073 . S
C1679 C429 1.102 . S
C1673 C8 1.151 . S
C1693 C23 1.095 . S
C1699 C453 1.063 . S
C1713 C88 1.092 . S
C1719 C409 1.078 . S
C1733 C99 1.153 . S
C1739 C426 1.122 . S
C1759 C449 1.105 . S
C1753 C57 1.103 . S
C1779 C624 0.895 . S
C1773 C65 0.932 . S
C1799 C629 0.945 . S
C1793 C278 0.968 . S
C1819 C404 1.051 . S
C1813 C268 1.080 . S
C1839 C431 1.084 . S
C1833 C299 1.121 . S
C1853 C296 1.122 . S
C1859 C452 1.067 . S
C1879 C408 1.068 . S
C1873 C283 1.126 . S
C1893 C260 1.124 . S
C1899 C428 1.101 . S
C1919 C448 1.071 . S
C1913 C307 1.096 . S
C1933 C291 0.966 . S
C1939 C626 0.953 . S
C1959 C628 0.971 . S
C1953 C200 0.940 . S
C1973 C221 1.142 . S
C1979 C341 1.102 . S
C1999 C364 1.037 . S
C1993 C255 1.077 . S
C2013 C166 1.088 . S
C2019 C384 1.076 . S
C2039 C625 0.943 . S
C2033 C239 0.957 . S
C2059 C430 1.044 . S
C2053 C177 1.077 . S
C2079 C385 1.125 . S
C2073 C247 1.146 . S
C2099 C340 1.077 . S
C2093 C218 1.089 . S
C2113 C47 1.187 . S
C2119 C651 1.126 . S
C2133 C31 1.081 . S
C2139 C561 1.048 . S
C2153 C13 0.970 . S
C2159 C580 0.965 . S
C2179 C605 1.073 . S
C2173 C10 1.111 . S
C2199 C560 1.076 . S
C2193 C75 1.093 . S
C2213 C52 0.973 . S
C2219 C585 0.959 . S
C2239 C604 1.071 . S
C2233 C96 1.064 . S
C2253 C86 1.182 . S
C2259 C646 1.146 . S
C2279 C649 1.075 . S
C2273 C192 1.103 . S
C2293 C164 1.099 . S
C2299 C562 1.056 . S
C2313 C234 1.081 . S
C2319 C581 1.058 . S
C2339 C606 1.014 . S
C2333 C226 0.999 . S
C2359 C558 1.004 . S
C2353 C187 1.006 . S
C2373 C156 1.080 . S
C2379 C583 1.062 . S
C2399 C602 1.064 . S
C2393 C242 1.097 . S
C2419 C647 1.059 . S
C2413 C231 1.106 . S
C2439 C650 1.075 . S
C2433 C127 1.100 . S
C2459 C493 1.035 . S
C2453 C286 1.100 . S
C2473 C112 1.096 . S
C2479 C518 1.067 . S
C2493 C265 1.032 . S
C2499 C537 1.012 . S
C2519 C648 1.053 . S
C2513 C309 1.103 . S
C2539 C582 1.040 . S
C2533 C151 1.104 . S
C2559 C541 1.038 . S
C2553 C104 1.099 . S
C2579 C497 0.989 . S
C2573 C135 1.030 . S
