# Generated by pormake.
# Topology anh, (6,3)-cn, num edge types: 1
# Building blocks:
#     Node 0, Type 0, BuildingBlock: INOVEN_clean_sbu_0, # of connection points: 6
#     Node 1, Type 0, BuildingBlock: INOVEN_clean_sbu_0, # of connection points: 6
#     Node 2, Type 0, BuildingBlock: INOVEN_clean_sbu_0, # of connection points: 6
#     Node 3, Type 1, BuildingBlock: OLANEW_clean_sbu_2, # of connection points: 3
#     Node 4, Type 1, BuildingBlock: OLANEW_clean_sbu_2, # of connection points: 3
#     Node 5, Type 1, BuildingBlock: OLANEW_clean_sbu_2, # of connection points: 3
#     Node 6, Type 1, BuildingBlock: OLANEW_clean_sbu_2, # of connection points: 3
#     Node 7, Type 1, BuildingBlock: OLANEW_clean_sbu_2, # of connection points: 3
#     Node 8, Type 1, BuildingBlock: OLANEW_clean_sbu_2, # of connection points: 3
#     Edge 9, Type (0, 1), BuildingBlock: CIFDUS_clean_linker_0, # of connection points: 2
#     Edge 10, Type (0, 1), BuildingBlock: CIFDUS_clean_linker_0, # of connection points: 2
#     Edge 11, Type (0, 1), BuildingBlock: CIFDUS_clean_linker_0, # of connection points: 2
#     Edge 12, Type (0, 1), BuildingBlock: CIFDUS_clean_linker_0, # of connection points: 2
#     Edge 13, Type (0, 1), BuildingBlock: CIFDUS_clean_linker_0, # of connection points: 2
#     Edge 14, Type (0, 1), BuildingBlock: CIFDUS_clean_linker_0, # of connection points: 2
#     Edge 15, Type (0, 1), BuildingBlock: CIFDUS_clean_linker_0, # of connection points: 2
#     Edge 16, Type (0, 1), BuildingBlock: CIFDUS_clean_linker_0, # of connection points: 2
#     Edge 17, Type (0, 1), BuildingBlock: CIFDUS_clean_linker_0, # of connection points: 2
#     Edge 18, Type (0, 1), BuildingBlock: CIFDUS_clean_linker_0, # of connection points: 2
#     Edge 19, Type (0, 1), BuildingBlock: CIFDUS_clean_linker_0, # of connection points: 2
#     Edge 20, Type (0, 1), BuildingBlock: CIFDUS_clean_linker_0, # of connection points: 2
#     Edge 21, Type (0, 1), BuildingBlock: CIFDUS_clean_linker_0, # of connection points: 2
#     Edge 22, Type (0, 1), BuildingBlock: CIFDUS_clean_linker_0, # of connection points: 2
#     Edge 23, Type (0, 1), BuildingBlock: CIFDUS_clean_linker_0, # of connection points: 2
#     Edge 24, Type (0, 1), BuildingBlock: CIFDUS_clean_linker_0, # of connection points: 2
#     Edge 25, Type (0, 1), BuildingBlock: CIFDUS_clean_linker_0, # of connection points: 2
#     Edge 26, Type (0, 1), BuildingBlock: CIFDUS_clean_linker_0, # of connection points: 2
# Relax obj value: 0.157
# Max RMSD: 0.182
# Mean RMSD: 0.119
data_MOF--net-anh--node1-INOVEN_clean_sbu_0--node2-OLANEW_clean_sbu_2--edge1-CIFDUS_clean_linker_0
_symmetry_space_group_name_H-M    P1
_symmetry_Int_Tables_number       1
_symmetry_cell_setting            triclinic
loop_
_symmetry_equiv_pos_as_xyz
'x, y, z'
_cell_length_a     33.937606
_cell_length_b     38.153627
_cell_length_c     44.004205
_cell_angle_alpha  92.288359
_cell_angle_beta   90.038091
_cell_angle_gamma 131.36755
loop_
_atom_site_label
_atom_site_type_symbol
_atom_site_fract_x
_atom_site_fract_y
_atom_site_fract_z
_atom_type_partial_charge
Gd0 Gd 0.04576 0.5131 0.13238 0.0
Gd1 Gd 0.99909 0.55355 0.15747 0.0
C2 C 0.12289 0.62485 0.15468 0.0
C3 C 0.09736 0.4986 0.09975 0.0
C4 C 0.15101 0.51552 0.09969 0.0
C5 C 0.17186 0.50996 0.12471 0.0
C6 C 0.18118 0.53601 0.07384 0.0
C7 C 0.25082 0.54216 0.09716 0.0
C8 C 0.23071 0.54941 0.07262 0.0
C9 C 0.22107 0.52294 0.1234 0.0
C10 C 0.03209 0.50592 0.19242 0.0
C11 C 0.9232 0.44157 0.14092 0.0
C12 C 0.94495 0.56757 0.18753 0.0
C13 C 0.88845 0.53718 0.19321 0.0
C14 C 0.86176 0.55248 0.18641 0.0
C15 C 0.85973 0.49111 0.20191 0.0
C16 C 0.7779 0.47453 0.19336 0.0
C17 C 0.80496 0.46012 0.20206 0.0
C18 C 0.80696 0.52146 0.18646 0.0
C19 C 0.00954 0.55537 0.09644 0.0
O20 O 0.11799 0.59053 0.14084 0.0
O21 O 0.08238 0.61837 0.16541 0.0
O22 O 0.06777 0.47244 0.12197 0.0
O23 O 0.0924 0.52867 0.09294 0.0
O24 O 0.02856 0.47567 0.17498 0.0
O25 O 0.04778 0.54083 0.17793 0.0
O26 O 0.93119 0.47568 0.15729 0.0
O27 O 0.96059 0.44905 0.12459 0.0
O28 O 0.95736 0.57847 0.15924 0.0
O29 O 0.97049 0.55704 0.20045 0.0
O30 O 0.01727 0.58866 0.11278 0.0
O31 O 0.99449 0.52257 0.11285 0.0
H32 H 0.14969 0.49447 0.14506 0.0
H33 H 0.16601 0.54087 0.05434 0.0
H34 H 0.25283 0.5647 0.05223 0.0
H35 H 0.23474 0.51606 0.14255 0.0
H36 H 0.88317 0.5878 0.17954 0.0
H37 H 0.87929 0.4783 0.20728 0.0
H38 H 0.78372 0.42438 0.20788 0.0
H39 H 0.78737 0.53359 0.17932 0.0
Gd40 Gd 0.54907 -0.0004 0.48192 0.0
Gd41 Gd 0.48833 0.02974 0.47032 0.0
C42 C 0.42195 0.92181 0.47237 0.0
C43 C 0.58779 0.96612 0.50482 0.0
C44 C 0.57127 0.92354 0.51786 0.0
C45 C 0.5227 0.87925 0.50974 0.0
C46 C 0.60575 0.92747 0.5383 0.0
C47 C 0.54457 0.84292 0.54154 0.0
C48 C 0.59263 0.88761 0.55002 0.0
C49 C 0.50946 0.83917 0.52147 0.0
C50 C 0.54213 0.01122 0.4228 0.0
C51 C 0.61675 0.10879 0.4762 0.0
C52 C 0.45131 0.06726 0.45274 0.0
C53 C 0.4646 0.11241 0.45884 0.0
C54 C 0.42687 0.11293 0.47115 0.0
C55 C 0.51497 0.15509 0.45368 0.0
C56 C 0.49035 0.19808 0.4746 0.0
C57 C 0.5277 0.19747 0.46148 0.0
C58 C 0.43959 0.15531 0.479 0.0
C59 C 0.4998 0.01998 0.52938 0.0
O60 O 0.46375 0.93286 0.48634 0.0
O61 O 0.42492 0.9536 0.45874 0.0
O62 O 0.57803 0.96365 0.47567 0.0
O63 O 0.57938 0.99 0.52101 0.0
O64 O 0.58278 0.02051 0.43561 0.0
O65 O 0.50538 0.99318 0.44124 0.0
O66 O 0.57219 0.09807 0.46814 0.0
O67 O 0.61788 0.07682 0.48512 0.0
O68 O 0.43309 0.04009 0.47564 0.0
O69 O 0.4845 0.06783 0.4371 0.0
O70 O 0.45693 0.00748 0.51763 0.0
O71 O 0.53454 0.03858 0.50989 0.0
H72 H 0.49547 0.87563 0.49406 0.0
H73 H 0.64343 0.96142 0.54477 0.0
H74 H 0.62098 0.89177 0.56498 0.0
H75 H 0.47196 0.80531 0.51471 0.0
H76 H 0.38777 0.08047 0.47531 0.0
H77 H 0.54478 0.15582 0.44396 0.0
H78 H 0.56689 0.2298 0.45735 0.0
H79 H 0.41007 0.1545 0.48935 0.0
Gd80 Gd 0.58349 0.59011 0.87556 0.0
Gd81 Gd 0.5098 0.48468 0.8742 0.0
C82 C 0.45702 0.5296 0.87324 0.0
C83 C 0.63206 0.67688 0.86642 0.0
C84 C 0.61962 0.70569 0.85775 0.0
C85 C 0.65307 0.75278 0.8681 0.0
C86 C 0.57563 0.68732 0.83894 0.0
C87 C 0.59982 0.76354 0.84027 0.0
C88 C 0.56575 0.71596 0.83033 0.0
C89 C 0.64333 0.7814 0.85949 0.0
C90 C 0.56042 0.55224 0.93028 0.0
C91 C 0.63899 0.5477 0.87707 0.0
C92 C 0.4633 0.3989 0.88472 0.0
C93 C 0.47207 0.36698 0.87574 0.0
C94 C 0.50623 0.37793 0.8524 0.0
C95 C 0.44616 0.3252 0.89045 0.0
C96 C 0.48703 0.30462 0.85783 0.0
C97 C 0.45362 0.2943 0.88163 0.0
C98 C 0.51354 0.34701 0.84347 0.0
C99 C 0.53204 0.51941 0.81838 0.0
O100 O 0.50375 0.56717 0.86457 0.0
O101 O 0.45037 0.49345 0.88278 0.0
O102 O 0.61756 0.6594 0.89322 0.0
O103 O 0.6242 0.64738 0.84544 0.0
O104 O 0.60685 0.59054 0.92394 0.0
O105 O 0.52883 0.53733 0.90808 0.0
O106 O 0.59111 0.50655 0.88029 0.0
O107 O 0.64587 0.58538 0.87204 0.0
O108 O 0.44851 0.41056 0.86277 0.0
O109 O 0.49913 0.43446 0.90321 0.0
O110 O 0.48738 0.47997 0.82532 0.0
O111 O 0.56432 0.53698 0.84076 0.0
H112 H 0.68708 0.76757 0.88274 0.0
H113 H 0.54928 0.65103 0.83063 0.0
H114 H 0.53213 0.70109 0.81534 0.0
H115 H 0.66988 0.81759 0.86803 0.0
H116 H 0.52702 0.4103 0.84096 0.0
H117 H 0.4198 0.31628 0.9086 0.0
H118 H 0.43231 0.26184 0.89299 0.0
H119 H 0.54016 0.35639 0.8254 0.0
O120 O 0.579 0.07486 0.23679 0.0
Cd121 Cd 0.58167 0.08805 0.18248 0.0
O122 O 0.55427 0.00713 0.22235 0.0
Cd123 Cd 0.5201 0.93535 0.22818 0.0
O124 O 0.45257 0.86226 0.21515 0.0
C125 C 0.41406 0.85675 0.20412 0.0
O126 O 0.41887 0.89373 0.20234 0.0
C127 C 0.565 0.03607 0.24362 0.0
C128 C 0.67455 0.17476 0.16638 0.0
O129 O 0.63494 0.16965 0.17483 0.0
O130 O 0.67038 0.1388 0.16572 0.0
O131 O 0.59093 0.5072 0.6282 0.0
Cd132 Cd 0.62277 0.52238 0.57644 0.0
O133 O 0.59779 0.56838 0.6275 0.0
Cd134 Cd 0.58484 0.61452 0.64434 0.0
O135 O 0.57087 0.66229 0.63946 0.0
C136 C 0.54702 0.65718 0.61509 0.0
O137 O 0.53071 0.62292 0.59527 0.0
C138 C 0.58612 0.53428 0.6415 0.0
C139 C 0.6019 0.44439 0.5488 0.0
O140 O 0.64506 0.47586 0.56397 0.0
O141 O 0.56878 0.45006 0.5465 0.0
O142 O 0.07137 0.51189 0.91542 0.0
Cd143 Cd 0.11955 0.50895 0.87261 0.0
O144 O 0.01418 0.51928 0.90034 0.0
Cd145 Cd 0.94795 0.52049 0.90471 0.0
O146 O 0.875 0.51253 0.90259 0.0
C147 C 0.87434 0.54384 0.89397 0.0
O148 O 0.9187 0.58389 0.88603 0.0
C149 C 0.0369 0.51531 0.92146 0.0
C150 C 0.20096 0.50508 0.88126 0.0
O151 O 0.21189 0.544 0.87838 0.0
O152 O 0.15209 0.46829 0.88165 0.0
O153 O 0.06133 0.55271 0.39211 0.0
Cd154 Cd 0.07259 0.55928 0.44753 0.0
O155 O 0.99345 0.47716 0.38332 0.0
Cd156 Cd 0.96935 0.45046 0.42889 0.0
O157 O 0.90367 0.38708 0.45096 0.0
C158 C 0.90453 0.35504 0.4562 0.0
O159 O 0.94728 0.36212 0.45059 0.0
C160 C 0.02914 0.51776 0.37366 0.0
C161 C 0.16841 0.64885 0.46319 0.0
O162 O 0.16576 0.61381 0.45973 0.0
O163 O 0.1257 0.64122 0.46017 0.0
O164 O 0.48305 0.96462 0.7244 0.0
Cd165 Cd 0.49399 0.96483 0.77959 0.0
O166 O 0.52364 0.03952 0.72108 0.0
Cd167 Cd 0.52683 0.06147 0.76852 0.0
O168 O 0.5204 0.10934 0.79243 0.0
C169 C 0.5143 0.13094 0.77451 0.0
O170 O 0.51266 0.12264 0.74505 0.0
C171 C 0.50166 -0.00051 0.70852 0.0
C172 C 0.50913 0.90333 0.79483 0.0
O173 O 0.46303 0.88966 0.79311 0.0
O174 O 0.5481 0.94598 0.78932 0.0
O175 O 0.41408 0.33609 0.06438 0.0
Cd176 Cd 0.38952 0.29471 0.11128 0.0
O177 O 0.46116 0.40129 0.09289 0.0
Cd178 Cd 0.49942 0.47496 0.09883 0.0
O179 O 0.47977 0.51871 0.09633 0.0
C180 C 0.47844 0.5381 0.11996 0.0
O181 O 0.49489 0.5359 0.14625 0.0
C182 C 0.44459 0.38043 0.06665 0.0
C183 C 0.48063 0.33832 0.14648 0.0
O184 O 0.46283 0.30381 0.1277 0.0
O185 O 0.45426 0.35129 0.14935 0.0
H186 H 0.32704 0.57678 0.14129 0.0
H187 H 0.28526 0.52554 0.04719 0.0
H188 H 0.35834 0.52755 0.04477 0.0
H189 H 0.42572 0.53299 0.07106 0.0
H190 H 0.46316 0.57769 0.16629 0.0
H191 H 0.40025 0.58905 0.16651 0.0
C192 C 0.33402 0.56621 0.12021 0.0
C193 C 0.30012 0.55048 0.0946 0.0
C194 C 0.37507 0.56581 0.11923 0.0
C195 C 0.31073 0.53814 0.06724 0.0
C196 C 0.35231 0.53883 0.06588 0.0
C197 C 0.42088 0.546 0.09178 0.0
C198 C 0.44855 0.55376 0.11874 0.0
C199 C 0.38355 0.55107 0.09199 0.0
C200 C 0.44201 0.57099 0.14528 0.0
C201 C 0.40587 0.57732 0.14546 0.0
H202 H 0.71715 0.1432 0.48231 0.0
H203 H 0.62845 0.18563 0.46736 0.0
H204 H 0.70956 0.26594 0.46203 0.0
H205 H 0.80548 0.32351 0.45879 0.0
H206 H 0.89446 0.28112 0.47246 0.0
H207 H 0.81365 0.20181 0.48148 0.0
C208 C 0.71552 0.17004 0.47812 0.0
C209 C 0.66655 0.15809 0.47496 0.0
C210 C 0.7625 0.21633 0.47483 0.0
C211 C 0.66539 0.19351 0.46955 0.0
C212 C 0.71187 0.23961 0.46657 0.0
C213 C 0.80734 0.29711 0.46408 0.0
C214 C 0.85607 0.30833 0.4648 0.0
C215 C 0.76061 0.25132 0.46874 0.0
C216 C 0.85755 0.27351 0.47162 0.0
C217 C 0.8113 0.22805 0.47673 0.0
H218 H 0.50661 0.74419 0.83488 0.0
H219 H 0.67314 0.85352 0.82303 0.0
H220 H 0.65991 0.90605 0.8081 0.0
H221 H 0.6014 0.92151 0.79871 0.0
H222 H 0.43466 0.81213 0.80976 0.0
H223 H 0.44765 0.75915 0.82428 0.0
C224 C 0.53996 0.77935 0.82875 0.0
C225 C 0.59087 0.79483 0.83033 0.0
C226 C 0.53208 0.8095 0.82 0.0
C227 C 0.63363 0.84079 0.82258 0.0
C228 C 0.62609 0.87086 0.81384 0.0
C229 C 0.56784 0.88607 0.80425 0.0
C230 C 0.51713 0.87098 0.80318 0.0
C231 C 0.57555 0.85571 0.81261 0.0
C232 C 0.47416 0.82482 0.81039 0.0
C233 C 0.48154 0.79442 0.81873 0.0
H234 H 0.70748 0.4847 0.20749 0.0
H235 H 0.71846 0.38678 0.16665 0.0
H236 H 0.62559 0.33344 0.15167 0.0
H237 H 0.54395 0.31842 0.14518 0.0
H238 H 0.5333 0.4177 0.18359 0.0
H239 H 0.62325 0.46665 0.20438 0.0
C240 C 0.68941 0.45155 0.19548 0.0
C241 C 0.72 0.43989 0.18814 0.0
C242 C 0.63615 0.42146 0.18619 0.0
C243 C 0.6958 0.39644 0.17299 0.0
C244 C 0.64274 0.36606 0.1641 0.0
C245 C 0.56102 0.35048 0.15841 0.0
C246 C 0.53216 0.36462 0.16253 0.0
C247 C 0.61292 0.37877 0.16988 0.0
C248 C 0.55476 0.40609 0.17994 0.0
C249 C 0.60626 0.4342 0.19177 0.0
H250 H 0.40223 0.84127 0.4832 0.0
H251 H 0.326 0.89332 0.45987 0.0
H252 H 0.24105 0.81408 0.45686 0.0
H253 H 0.1884 0.72989 0.45888 0.0
H254 H 0.2635 0.67608 0.47962 0.0
H255 H 0.34859 0.75591 0.4858 0.0
C256 C 0.36699 0.83523 0.47762 0.0
C257 C 0.37065 0.87326 0.47163 0.0
C258 C 0.31796 0.7892 0.47543 0.0
C259 C 0.32454 0.86477 0.46432 0.0
C260 C 0.27579 0.8194 0.46266 0.0
C261 C 0.22326 0.73555 0.46502 0.0
C262 C 0.21952 0.69705 0.46883 0.0
C263 C 0.27206 0.78136 0.46788 0.0
C264 C 0.26526 0.7051 0.47652 0.0
C265 C 0.31396 0.75076 0.48002 0.0
H266 H 0.48838 0.27885 0.79964 0.0
H267 H 0.49923 0.25417 0.89281 0.0
H268 H 0.50851 0.19821 0.8756 0.0
H269 H 0.51378 0.15624 0.83376 0.0
H270 H 0.50282 0.18202 0.74077 0.0
H271 H 0.49392 0.23769 0.75826 0.0
C272 C 0.49333 0.26162 0.81622 0.0
C273 C 0.49328 0.27089 0.84747 0.0
C274 C 0.49863 0.22954 0.80617 0.0
C275 C 0.49868 0.24745 0.8686 0.0
C276 C 0.50423 0.21558 0.85877 0.0
C277 C 0.50949 0.17408 0.81735 0.0
C278 C 0.50905 0.16482 0.78596 0.0
C279 C 0.50421 0.20627 0.82757 0.0
C280 C 0.50335 0.18829 0.76505 0.0
C281 C 0.49823 0.22025 0.77501 0.0
H282 H 0.56274 0.82932 0.59835 0.0
H283 H 0.5011 0.76159 0.50875 0.0
H284 H 0.49186 0.69597 0.5246 0.0
H285 H 0.50895 0.66141 0.56233 0.0
H286 H 0.57465 0.73098 0.65119 0.0
H287 H 0.57492 0.7924 0.6371 0.0
C288 C 0.54719 0.80016 0.5823 0.0
C289 C 0.53308 0.80063 0.55232 0.0
C290 C 0.54315 0.76305 0.59134 0.0
C291 C 0.5119 0.76205 0.53202 0.0
C292 C 0.50704 0.72466 0.54099 0.0
C293 C 0.52287 0.68974 0.57876 0.0
C294 C 0.54226 0.6918 0.60768 0.0
C295 C 0.52365 0.72531 0.57037 0.0
C296 C 0.55989 0.72869 0.62869 0.0
C297 C 0.5601 0.76387 0.62065 0.0
H298 H 0.64688 0.48224 0.89232 0.0
H299 H 0.73995 0.62436 0.86542 0.0
H300 H 0.81885 0.6351 0.86824 0.0
H301 H 0.86298 0.60549 0.87844 0.0
H302 H 0.77273 0.46427 0.90594 0.0
H303 H 0.69224 0.45221 0.90282 0.0
C304 C 0.68438 0.51555 0.88702 0.0
C305 C 0.68671 0.55239 0.87865 0.0
C306 C 0.73064 0.52187 0.88884 0.0
C307 C 0.73616 0.59522 0.87198 0.0
C308 C 0.78172 0.60153 0.87358 0.0
C309 C 0.82582 0.57194 0.8838 0.0
C310 C 0.82452 0.5359 0.89245 0.0
C311 C 0.77961 0.56527 0.88203 0.0
C312 C 0.77547 0.49281 0.89926 0.0
C313 C 0.72921 0.48586 0.89744 0.0
H314 H 0.21635 0.64633 0.16469 0.0
H315 H 0.1465 0.70781 0.15778 0.0
H316 H 0.23087 0.785 0.17137 0.0
H317 H 0.32293 0.83442 0.18746 0.0
H318 H 0.39351 0.77401 0.19737 0.0
H319 H 0.31045 0.697 0.1805 0.0
C320 C 0.21995 0.6768 0.16581 0.0
C321 C 0.1754 0.67151 0.16022 0.0
C322 C 0.26848 0.72111 0.17448 0.0
C323 C 0.18025 0.71106 0.16212 0.0
C324 C 0.22843 0.75518 0.16992 0.0
C325 C 0.32037 0.80452 0.18584 0.0
C326 C 0.36437 0.80999 0.1937 0.0
C327 C 0.27255 0.7605 0.17656 0.0
C328 C 0.36014 0.77073 0.19157 0.0
C329 C 0.31269 0.72671 0.18187 0.0
H330 H 0.581 0.27356 0.50373 0.0
H331 H 0.43183 0.22337 0.46858 0.0
H332 H 0.45359 0.29549 0.48792 0.0
H333 H 0.51403 0.37189 0.51595 0.0
H334 H 0.6635 0.42212 0.55067 0.0
H335 H 0.64286 0.35117 0.52985 0.0
C336 C 0.55356 0.27866 0.49986 0.0
C337 C 0.5048 0.24302 0.48477 0.0
C338 C 0.56634 0.3202 0.51098 0.0
C339 C 0.46934 0.24995 0.48046 0.0
C340 C 0.48185 0.29127 0.49139 0.0
C341 C 0.54221 0.36744 0.51886 0.0
C342 C 0.59015 0.40222 0.53497 0.0
C343 C 0.53004 0.32645 0.50693 0.0
C344 C 0.62625 0.39589 0.53845 0.0
C345 C 0.61448 0.35529 0.52656 0.0
H346 H 0.35183 0.4599 0.88712 0.0
H347 H 0.46386 0.60278 0.86063 0.0
H348 H 0.39666 0.60831 0.86185 0.0
H349 H 0.30561 0.57336 0.86995 0.0
H350 H 0.19156 0.43015 0.89496 0.0
H351 H 0.25927 0.42437 0.89496 0.0
C352 C 0.36155 0.4922 0.88156 0.0
C353 C 0.41347 0.53075 0.87369 0.0
C354 C 0.32205 0.49535 0.88215 0.0
C355 C 0.4247 0.57225 0.86662 0.0
C356 C 0.38608 0.57564 0.86739 0.0
C357 C 0.29547 0.5409 0.87561 0.0
C358 C 0.2432 0.50236 0.88261 0.0
C359 C 0.33459 0.53753 0.87511 0.0
C360 C 0.23123 0.46054 0.88955 0.0
C361 C 0.27009 0.45715 0.8895 0.0
H362 H 0.90028 0.35861 0.13202 0.0
H363 H 0.83025 0.4179 0.15374 0.0
H364 H 0.74678 0.34041 0.16265 0.0
H365 H 0.69497 0.2566 0.16696 0.0
H366 H 0.76475 0.19667 0.14673 0.0
H367 H 0.84679 0.27346 0.13443 0.0
C368 C 0.86646 0.35438 0.1382 0.0
C369 C 0.87148 0.39392 0.14233 0.0
C370 C 0.81864 0.30967 0.14382 0.0
C371 C 0.82752 0.38805 0.1507 0.0
C372 C 0.77975 0.34375 0.15579 0.0
C373 C 0.728 0.26022 0.15974 0.0
C374 C 0.72374 0.22095 0.15794 0.0
C375 C 0.77512 0.30445 0.15294 0.0
C376 C 0.76699 0.22635 0.14845 0.0
C377 C 0.81394 0.27026 0.14138 0.0
H378 H 0.99956 0.48981 0.06172 0.0
H379 H 0.02563 0.61628 0.05615 0.0
H380 H 0.03074 0.61246 1.00066 0.0
H381 H 0.03186 0.57466 0.95379 0.0
H382 H 0.01393 0.45247 0.96109 0.0
H383 H 1.00117 0.45276 0.01571 0.0
C384 C 0.00644 0.5166 0.04837 0.0
C385 C 0.01247 0.55339 0.06296 0.0
C386 C 0.01052 0.51471 0.01672 0.0
C387 C 0.02113 0.58773 0.04539 0.0
C388 C 0.02394 0.58548 0.01368 0.0
C389 C 0.02428 0.54777 0.96738 0.0
C390 C 0.02319 0.51326 0.95354 0.0
C391 C 0.01908 0.54929 0.99908 0.0
C392 C 0.01458 0.47916 0.97134 0.0
C393 C 0.0075 0.47942 1.00254 0.0
H394 H 0.59331 0.00585 0.37858 0.0
H395 H 0.4768 0.01763 0.3928 0.0
H396 H 0.47373 0.02704 0.33833 0.0
H397 H 0.50759 0.0353 0.28678 0.0
H398 H 0.61526 0.01306 0.27197 0.0
H399 H 0.61815 0.0037 0.32649 0.0
C400 C 0.56712 0.01032 0.3697 0.0
C401 C 0.53645 0.01251 0.3897 0.0
C402 C 0.56399 0.01363 0.33827 0.0
C403 C 0.50163 0.01698 0.37789 0.0
C404 C 0.49976 0.02216 0.34675 0.0
C405 C 0.53119 0.02794 0.29561 0.0
C406 C 0.56163 0.0253 0.27573 0.0
C407 C 0.5313 0.02116 0.32678 0.0
C408 C 0.5916 0.01518 0.28705 0.0
C409 C 0.59339 0.01004 0.31815 0.0
H410 H 0.4833 0.46109 0.76835 0.0
H411 H 0.61599 0.60384 0.79711 0.0
H412 H 0.64137 0.62249 0.74419 0.0
H413 H 0.6278 0.5968 0.68976 0.0
H414 H 0.50185 0.45152 0.66262 0.0
H415 H 0.47159 0.43495 0.71482 0.0
C416 C 0.51756 0.49639 0.76302 0.0
C417 C 0.54732 0.53132 0.78653 0.0
C418 C 0.53309 0.50618 0.7328 0.0
C419 C 0.59215 0.57661 0.77937 0.0
C420 C 0.60672 0.58718 0.74912 0.0
C421 C 0.5934 0.56172 0.69536 0.0
C422 C 0.56653 0.52545 0.67255 0.0
C423 C 0.5777 0.55212 0.72566 0.0
C424 C 0.5228 0.47987 0.67995 0.0
C425 C 0.50561 0.47043 0.70973 0.0
H426 H 0.43114 0.95619 0.56957 0.0
H427 H 0.5908 0.08517 0.56204 0.0
H428 H 0.60613 0.0899 0.617 0.0
H429 H 0.57254 0.05918 0.66755 0.0
H430 H 0.41579 0.92638 0.6747 0.0
H431 H 0.40084 0.92079 0.61955 0.0
C432 C 0.46926 0.98512 0.58008 0.0
C433 C 0.50958 0.02067 0.56209 0.0
C434 C 0.47824 0.9868 0.61152 0.0
C435 C 0.55918 0.05758 0.57561 0.0
C436 C 0.56791 0.06031 0.60698 0.0
C437 C 0.53534 0.02884 0.65691 0.0
C438 C 0.49514 0.99342 0.67503 0.0
C439 C 0.52754 0.02542 0.62521 0.0
C440 C 0.44732 0.95396 0.6611 0.0
C441 C 0.43868 0.95091 0.62963 0.0
H442 H 0.46677 0.46903 0.94297 0.0
H443 H 0.62386 0.57888 0.98037 0.0
H444 H 0.60154 0.53556 0.0263 0.0
H445 H 0.5378 0.46537 0.05508 0.0
H446 H 0.38207 0.35427 0.01646 0.0
H447 H 0.40379 0.39859 0.97121 0.0
C448 C 0.49615 0.48346 0.96116 0.0
C449 C 0.5469 0.52699 0.95835 0.0
C450 C 0.48334 0.45797 0.98709 0.0
C451 C 0.58453 0.54539 0.98209 0.0
C452 C 0.57181 0.52061 0.00827 0.0
C453 C 0.50843 0.45128 0.03694 0.0
C454 C 0.45809 0.40712 0.03928 0.0
C455 C 0.52139 0.47679 0.01095 0.0
C456 C 0.42097 0.38834 0.01517 0.0
C457 C 0.43332 0.4137 0.98939 0.0
H458 H 0.07172 0.57518 0.23657 0.0
H459 H 0.97417 0.42589 0.22181 0.0
H460 H 0.96282 0.41618 0.27645 0.0
H461 H 0.98319 0.44999 0.32838 0.0
H462 H 0.0848 0.59961 0.34425 0.0
H463 H 0.09225 0.6094 0.28936 0.0
C464 C 0.04774 0.5406 0.24544 0.0
C465 C 0.02385 0.50128 0.22536 0.0
C466 C 0.04245 0.53538 0.27705 0.0
C467 C 0.99316 0.45665 0.23695 0.0
C468 C 0.98665 0.45108 0.26816 0.0
C469 C 0.00681 0.48481 0.31989 0.0
C470 C 0.03337 0.52399 0.34044 0.0
C471 C 0.01156 0.49018 0.28842 0.0
C472 C 0.06411 0.56884 0.32897 0.0
C473 C 0.06828 0.57444 0.29756 0.0
loop_
_geom_bond_atom_site_label_1
_geom_bond_atom_site_label_2
_geom_bond_distance
_geom_bond_site_symmetry_2
_ccdc_geom_bond_type
Gd0 C3 2.818 . S
Gd0 O20 2.377 . S
Gd0 O22 2.448 . S
Gd0 O23 2.506 . S
Gd0 O24 2.435 . S
Gd0 O25 2.717 . S
Gd0 O27 2.395 1_455 S
Gd0 O31 2.327 . S
Gd1 C12 2.818 . S
Gd1 O21 2.395 1_655 S
Gd1 O25 2.327 1_655 S
Gd1 O26 2.377 . S
Gd1 O28 2.448 . S
Gd1 O29 2.506 . S
Gd1 O30 2.435 1_655 S
Gd1 O31 2.717 1_655 S
C2 O20 1.240 . S
C2 O21 1.240 . S
C3 Gd0 2.818 . S
C3 C4 1.510 . S
C3 O22 1.249 . S
C3 O23 1.252 . S
C4 C3 1.510 . S
C4 C5 1.404 . S
C4 C6 1.352 . S
C5 C4 1.404 . S
C5 C9 1.389 . S
C5 H32 0.930 . S
C6 C4 1.352 . S
C6 C8 1.374 . S
C6 H33 0.931 . S
C7 C8 1.359 . S
C7 C9 1.364 . S
C8 C6 1.374 . S
C8 C7 1.359 . S
C8 H34 0.931 . S
C9 C5 1.389 . S
C9 C7 1.364 . S
C9 H35 0.931 . S
C10 O24 1.256 . S
C10 O25 1.257 . S
C11 O26 1.240 . S
C11 O27 1.240 . S
C12 Gd1 2.818 . S
C12 C13 1.510 . S
C12 O28 1.249 . S
C12 O29 1.252 . S
C13 C12 1.510 . S
C13 C14 1.404 . S
C13 C15 1.352 . S
C14 C13 1.404 . S
C14 C18 1.389 . S
C14 H36 0.930 . S
C15 C13 1.352 . S
C15 C17 1.374 . S
C15 H37 0.931 . S
C16 C17 1.359 . S
C16 C18 1.364 . S
C17 C15 1.374 . S
C17 C16 1.359 . S
C17 H38 0.931 . S
C18 C14 1.389 . S
C18 C16 1.364 . S
C18 H39 0.931 . S
C19 O30 1.256 . S
C19 O31 1.257 . S
O20 Gd0 2.377 . S
O20 C2 1.240 . S
O21 Gd1 2.395 1_455 S
O21 C2 1.240 . S
O22 Gd0 2.448 . S
O22 C3 1.249 . S
O23 Gd0 2.506 . S
O23 C3 1.252 . S
O24 Gd0 2.435 . S
O24 C10 1.256 . S
O25 Gd0 2.717 . S
O25 Gd1 2.327 1_455 S
O25 C10 1.257 . S
O26 Gd1 2.377 . S
O26 C11 1.240 . S
O27 Gd0 2.395 1_655 S
O27 C11 1.240 . S
O28 Gd1 2.448 . S
O28 C12 1.249 . S
O29 Gd1 2.506 . S
O29 C12 1.252 . S
O30 Gd1 2.435 1_455 S
O30 C19 1.256 . S
O31 Gd0 2.327 . S
O31 Gd1 2.717 1_455 S
O31 C19 1.257 . S
H32 C5 0.930 . S
H33 C6 0.931 . S
H34 C8 0.931 . S
H35 C9 0.931 . S
H36 C14 0.930 . S
H37 C15 0.931 . S
H38 C17 0.931 . S
H39 C18 0.931 . S
Gd40 C43 2.818 . S
Gd40 O60 2.377 . S
Gd40 O62 2.448 . S
Gd40 O63 2.506 . S
Gd40 O64 2.435 . S
Gd40 O65 2.717 1_565 S
Gd40 O67 2.395 1_565 S
Gd40 O71 2.327 1_565 S
Gd41 C52 2.818 . S
Gd41 O61 2.395 1_545 S
Gd41 O65 2.327 . S
Gd41 O66 2.377 . S
Gd41 O68 2.448 . S
Gd41 O69 2.506 . S
Gd41 O70 2.435 . S
Gd41 O71 2.717 . S
C42 O60 1.240 . S
C42 O61 1.240 . S
C43 Gd40 2.818 . S
C43 C44 1.510 . S
C43 O62 1.249 . S
C43 O63 1.252 . S
C44 C43 1.510 . S
C44 C45 1.404 . S
C44 C46 1.352 . S
C45 C44 1.404 . S
C45 C49 1.389 . S
C45 H72 0.930 . S
C46 C44 1.352 . S
C46 C48 1.374 . S
C46 H73 0.931 . S
C47 C48 1.359 . S
C47 C49 1.364 . S
C48 C46 1.374 . S
C48 C47 1.359 . S
C48 H74 0.931 . S
C49 C45 1.389 . S
C49 C47 1.364 . S
C49 H75 0.931 . S
C50 O64 1.256 1_545 S
C50 O65 1.257 . S
C51 O66 1.240 . S
C51 O67 1.240 . S
C52 Gd41 2.818 . S
C52 C53 1.510 . S
C52 O68 1.249 . S
C52 O69 1.252 . S
C53 C52 1.510 . S
C53 C54 1.404 . S
C53 C55 1.352 . S
C54 C53 1.404 . S
C54 C58 1.389 . S
C54 H76 0.930 . S
C55 C53 1.352 . S
C55 C57 1.374 . S
C55 H77 0.931 . S
C56 C57 1.359 . S
C56 C58 1.364 . S
C57 C55 1.374 . S
C57 C56 1.359 . S
C57 H78 0.931 . S
C58 C54 1.389 . S
C58 C56 1.364 . S
C58 H79 0.931 . S
C59 O70 1.256 . S
C59 O71 1.257 . S
O60 Gd40 2.377 . S
O60 C42 1.240 . S
O61 Gd41 2.395 1_565 S
O61 C42 1.240 . S
O62 Gd40 2.448 . S
O62 C43 1.249 . S
O63 Gd40 2.506 . S
O63 C43 1.252 . S
O64 Gd40 2.435 . S
O64 C50 1.256 1_565 S
O65 Gd40 2.717 1_545 S
O65 Gd41 2.327 . S
O65 C50 1.257 . S
O66 Gd41 2.377 . S
O66 C51 1.240 . S
O67 Gd40 2.395 1_545 S
O67 C51 1.240 . S
O68 Gd41 2.448 . S
O68 C52 1.249 . S
O69 Gd41 2.506 . S
O69 C52 1.252 . S
O70 Gd41 2.435 . S
O70 C59 1.256 . S
O71 Gd40 2.327 1_545 S
O71 Gd41 2.717 . S
O71 C59 1.257 . S
H72 C45 0.930 . S
H73 C46 0.931 . S
H74 C48 0.931 . S
H75 C49 0.931 . S
H76 C54 0.930 . S
H77 C55 0.931 . S
H78 C57 0.931 . S
H79 C58 0.931 . S
Gd80 C83 2.818 . S
Gd80 O100 2.377 . S
Gd80 O102 2.448 . S
Gd80 O103 2.506 . S
Gd80 O104 2.435 . S
Gd80 O105 2.717 . S
Gd80 O107 2.395 . S
Gd80 O111 2.327 . S
Gd81 C92 2.818 . S
Gd81 O101 2.395 . S
Gd81 O105 2.327 . S
Gd81 O106 2.377 . S
Gd81 O108 2.448 . S
Gd81 O109 2.506 . S
Gd81 O110 2.435 . S
Gd81 O111 2.717 . S
C82 O100 1.240 . S
C82 O101 1.240 . S
C83 Gd80 2.818 . S
C83 C84 1.510 . S
C83 O102 1.249 . S
C83 O103 1.252 . S
C84 C83 1.510 . S
C84 C85 1.404 . S
C84 C86 1.352 . S
C85 C84 1.404 . S
C85 C89 1.389 . S
C85 H112 0.930 . S
C86 C84 1.352 . S
C86 C88 1.374 . S
C86 H113 0.931 . S
C87 C88 1.359 . S
C87 C89 1.364 . S
C88 C86 1.374 . S
C88 C87 1.359 . S
C88 H114 0.931 . S
C89 C85 1.389 . S
C89 C87 1.364 . S
C89 H115 0.931 . S
C90 O104 1.256 . S
C90 O105 1.257 . S
C91 O106 1.240 . S
C91 O107 1.240 . S
C92 Gd81 2.818 . S
C92 C93 1.510 . S
C92 O108 1.249 . S
C92 O109 1.252 . S
C93 C92 1.510 . S
C93 C94 1.404 . S
C93 C95 1.352 . S
C94 C93 1.404 . S
C94 C98 1.389 . S
C94 H116 0.930 . S
C95 C93 1.352 . S
C95 C97 1.374 . S
C95 H117 0.931 . S
C96 C97 1.359 . S
C96 C98 1.364 . S
C97 C95 1.374 . S
C97 C96 1.359 . S
C97 H118 0.931 . S
C98 C94 1.389 . S
C98 C96 1.364 . S
C98 H119 0.931 . S
C99 O110 1.256 . S
C99 O111 1.257 . S
O100 Gd80 2.377 . S
O100 C82 1.240 . S
O101 Gd81 2.395 . S
O101 C82 1.240 . S
O102 Gd80 2.448 . S
O102 C83 1.249 . S
O103 Gd80 2.506 . S
O103 C83 1.252 . S
O104 Gd80 2.435 . S
O104 C90 1.256 . S
O105 Gd80 2.717 . S
O105 Gd81 2.327 . S
O105 C90 1.257 . S
O106 Gd81 2.377 . S
O106 C91 1.240 . S
O107 Gd80 2.395 . S
O107 C91 1.240 . S
O108 Gd81 2.448 . S
O108 C92 1.249 . S
O109 Gd81 2.506 . S
O109 C92 1.252 . S
O110 Gd81 2.435 . S
O110 C99 1.256 . S
O111 Gd80 2.327 . S
O111 Gd81 2.717 . S
O111 C99 1.257 . S
H112 C85 0.930 . S
H113 C86 0.931 . S
H114 C88 0.931 . S
H115 C89 0.931 . S
H116 C94 0.930 . S
H117 C95 0.931 . S
H118 C97 0.931 . S
H119 C98 0.931 . S
O120 Cd121 2.300 . S
O120 C127 1.275 . S
Cd121 O120 2.300 . S
Cd121 O129 2.381 . S
Cd121 O130 2.378 . S
O122 Cd123 2.385 . S
O122 C127 1.255 1_565 S
Cd123 O122 2.385 . S
Cd123 O124 2.317 . S
O124 Cd123 2.317 . S
O124 C125 1.232 . S
C125 O124 1.232 . S
C125 O126 1.218 . S
O126 C125 1.218 . S
C127 O120 1.275 . S
C127 O122 1.255 1_545 S
C128 O129 1.258 . S
C128 O130 1.256 . S
O129 Cd121 2.381 . S
O129 C128 1.258 . S
O130 Cd121 2.378 . S
O130 C128 1.256 . S
O131 Cd132 2.300 . S
O131 C138 1.275 . S
Cd132 O131 2.300 . S
Cd132 O140 2.381 . S
Cd132 O141 2.378 . S
O133 Cd134 2.385 . S
O133 C138 1.255 . S
Cd134 O133 2.385 . S
Cd134 O135 2.317 . S
O135 Cd134 2.317 . S
O135 C136 1.232 . S
C136 O135 1.232 . S
C136 O137 1.218 . S
O137 C136 1.218 . S
C138 O131 1.275 . S
C138 O133 1.255 . S
C139 O140 1.258 . S
C139 O141 1.256 . S
O140 Cd132 2.381 . S
O140 C139 1.258 . S
O141 Cd132 2.378 . S
O141 C139 1.256 . S
O142 Cd143 2.300 . S
O142 C149 1.275 . S
Cd143 O142 2.300 . S
Cd143 O151 2.381 . S
Cd143 O152 2.378 . S
O144 Cd145 2.385 1_455 S
O144 C149 1.255 . S
Cd145 O144 2.385 1_655 S
Cd145 O146 2.317 . S
O146 Cd145 2.317 . S
O146 C147 1.232 . S
C147 O146 1.232 . S
C147 O148 1.218 . S
O148 C147 1.218 . S
C149 O142 1.275 . S
C149 O144 1.255 . S
C150 O151 1.258 . S
C150 O152 1.256 . S
O151 Cd143 2.381 . S
O151 C150 1.258 . S
O152 Cd143 2.378 . S
O152 C150 1.256 . S
O153 Cd154 2.300 . S
O153 C160 1.275 1_455 S
Cd154 O153 2.300 . S
Cd154 O162 2.381 . S
Cd154 O163 2.378 . S
O155 Cd156 2.385 . S
O155 C160 1.255 . S
Cd156 O155 2.385 . S
Cd156 O157 2.317 . S
O157 Cd156 2.317 . S
O157 C158 1.232 . S
C158 O157 1.232 . S
C158 O159 1.218 . S
O159 C158 1.218 . S
C160 O153 1.275 1_655 S
C160 O155 1.255 . S
C161 O162 1.258 . S
C161 O163 1.256 . S
O162 Cd154 2.381 . S
O162 C161 1.258 . S
O163 Cd154 2.378 . S
O163 C161 1.256 . S
O164 Cd165 2.300 . S
O164 C171 1.275 1_565 S
Cd165 O164 2.300 . S
Cd165 O173 2.381 . S
Cd165 O174 2.378 . S
O166 Cd167 2.385 . S
O166 C171 1.255 . S
Cd167 O166 2.385 . S
Cd167 O168 2.317 . S
O168 Cd167 2.317 . S
O168 C169 1.232 . S
C169 O168 1.232 . S
C169 O170 1.218 . S
O170 C169 1.218 . S
C171 O164 1.275 1_545 S
C171 O166 1.255 . S
C172 O173 1.258 . S
C172 O174 1.256 . S
O173 Cd165 2.381 . S
O173 C172 1.258 . S
O174 Cd165 2.378 . S
O174 C172 1.256 . S
O175 Cd176 2.300 . S
O175 C182 1.275 . S
Cd176 O175 2.300 . S
Cd176 O184 2.381 . S
Cd176 O185 2.378 . S
O177 Cd178 2.385 . S
O177 C182 1.255 . S
Cd178 O177 2.385 . S
Cd178 O179 2.317 . S
O179 Cd178 2.317 . S
O179 C180 1.232 . S
C180 O179 1.232 . S
C180 O181 1.218 . S
O181 C180 1.218 . S
C182 O175 1.275 . S
C182 O177 1.255 . S
C183 O184 1.258 . S
C183 O185 1.256 . S
O184 Cd176 2.381 . S
O184 C183 1.258 . S
O185 Cd176 2.378 . S
O185 C183 1.256 . S
H186 C192 0.930 . S
H187 C195 0.930 . S
H188 C196 0.930 . S
H189 C197 0.930 . S
H190 C200 0.930 . S
H191 C201 0.930 . S
C192 H186 0.930 . S
C192 C193 1.355 . S
C192 C194 1.415 . S
C193 C192 1.355 . S
C193 C195 1.419 . S
C194 C192 1.415 . S
C194 C199 1.425 . S
C194 C201 1.409 . S
C195 H187 0.930 . S
C195 C193 1.419 . S
C195 C196 1.362 . S
C196 H188 0.930 . S
C196 C195 1.362 . S
C196 C199 1.409 . S
C197 H189 0.930 . S
C197 C198 1.355 . S
C197 C199 1.415 . S
C198 C197 1.355 . S
C198 C200 1.419 . S
C199 C194 1.425 . S
C199 C196 1.409 . S
C199 C197 1.415 . S
C200 H190 0.930 . S
C200 C198 1.419 . S
C200 C201 1.362 . S
C201 H191 0.930 . S
C201 C194 1.409 . S
C201 C200 1.362 . S
H202 C208 0.930 . S
H203 C211 0.930 . S
H204 C212 0.930 . S
H205 C213 0.930 . S
H206 C216 0.930 . S
H207 C217 0.930 . S
C208 H202 0.930 . S
C208 C209 1.355 . S
C208 C210 1.415 . S
C209 C208 1.355 . S
C209 C211 1.419 . S
C210 C208 1.415 . S
C210 C215 1.425 . S
C210 C217 1.409 . S
C211 H203 0.930 . S
C211 C209 1.419 . S
C211 C212 1.362 . S
C212 H204 0.930 . S
C212 C211 1.362 . S
C212 C215 1.409 . S
C213 H205 0.930 . S
C213 C214 1.355 . S
C213 C215 1.415 . S
C214 C213 1.355 . S
C214 C216 1.419 . S
C215 C210 1.425 . S
C215 C212 1.409 . S
C215 C213 1.415 . S
C216 H206 0.930 . S
C216 C214 1.419 . S
C216 C217 1.362 . S
C217 H207 0.930 . S
C217 C210 1.409 . S
C217 C216 1.362 . S
H218 C224 0.930 . S
H219 C227 0.930 . S
H220 C228 0.930 . S
H221 C229 0.930 . S
H222 C232 0.930 . S
H223 C233 0.930 . S
C224 H218 0.930 . S
C224 C225 1.355 . S
C224 C226 1.415 . S
C225 C224 1.355 . S
C225 C227 1.419 . S
C226 C224 1.415 . S
C226 C231 1.425 . S
C226 C233 1.409 . S
C227 H219 0.930 . S
C227 C225 1.419 . S
C227 C228 1.362 . S
C228 H220 0.930 . S
C228 C227 1.362 . S
C228 C231 1.409 . S
C229 H221 0.930 . S
C229 C230 1.355 . S
C229 C231 1.415 . S
C230 C229 1.355 . S
C230 C232 1.419 . S
C231 C226 1.425 . S
C231 C228 1.409 . S
C231 C229 1.415 . S
C232 H222 0.930 . S
C232 C230 1.419 . S
C232 C233 1.362 . S
C233 H223 0.930 . S
C233 C226 1.409 . S
C233 C232 1.362 . S
H234 C240 0.930 . S
H235 C243 0.930 . S
H236 C244 0.930 . S
H237 C245 0.930 . S
H238 C248 0.930 . S
H239 C249 0.930 . S
C240 H234 0.930 . S
C240 C241 1.355 . S
C240 C242 1.415 . S
C241 C240 1.355 . S
C241 C243 1.419 . S
C242 C240 1.415 . S
C242 C247 1.425 . S
C242 C249 1.409 . S
C243 H235 0.930 . S
C243 C241 1.419 . S
C243 C244 1.362 . S
C244 H236 0.930 . S
C244 C243 1.362 . S
C244 C247 1.409 . S
C245 H237 0.930 . S
C245 C246 1.355 . S
C245 C247 1.415 . S
C246 C245 1.355 . S
C246 C248 1.419 . S
C247 C242 1.425 . S
C247 C244 1.409 . S
C247 C245 1.415 . S
C248 H238 0.930 . S
C248 C246 1.419 . S
C248 C249 1.362 . S
C249 H239 0.930 . S
C249 C242 1.409 . S
C249 C248 1.362 . S
H250 C256 0.930 . S
H251 C259 0.930 . S
H252 C260 0.930 . S
H253 C261 0.930 . S
H254 C264 0.930 . S
H255 C265 0.930 . S
C256 H250 0.930 . S
C256 C257 1.355 . S
C256 C258 1.415 . S
C257 C256 1.355 . S
C257 C259 1.419 . S
C258 C256 1.415 . S
C258 C263 1.425 . S
C258 C265 1.409 . S
C259 H251 0.930 . S
C259 C257 1.419 . S
C259 C260 1.362 . S
C260 H252 0.930 . S
C260 C259 1.362 . S
C260 C263 1.409 . S
C261 H253 0.930 . S
C261 C262 1.355 . S
C261 C263 1.415 . S
C262 C261 1.355 . S
C262 C264 1.419 . S
C263 C258 1.425 . S
C263 C260 1.409 . S
C263 C261 1.415 . S
C264 H254 0.930 . S
C264 C262 1.419 . S
C264 C265 1.362 . S
C265 H255 0.930 . S
C265 C258 1.409 . S
C265 C264 1.362 . S
H266 C272 0.930 . S
H267 C275 0.930 . S
H268 C276 0.930 . S
H269 C277 0.930 . S
H270 C280 0.930 . S
H271 C281 0.930 . S
C272 H266 0.930 . S
C272 C273 1.355 . S
C272 C274 1.415 . S
C273 C272 1.355 . S
C273 C275 1.419 . S
C274 C272 1.415 . S
C274 C279 1.425 . S
C274 C281 1.409 . S
C275 H267 0.930 . S
C275 C273 1.419 . S
C275 C276 1.362 . S
C276 H268 0.930 . S
C276 C275 1.362 . S
C276 C279 1.409 . S
C277 H269 0.930 . S
C277 C278 1.355 . S
C277 C279 1.415 . S
C278 C277 1.355 . S
C278 C280 1.419 . S
C279 C274 1.425 . S
C279 C276 1.409 . S
C279 C277 1.415 . S
C280 H270 0.930 . S
C280 C278 1.419 . S
C280 C281 1.362 . S
C281 H271 0.930 . S
C281 C274 1.409 . S
C281 C280 1.362 . S
H282 C288 0.930 . S
H283 C291 0.930 . S
H284 C292 0.930 . S
H285 C293 0.930 . S
H286 C296 0.930 . S
H287 C297 0.930 . S
C288 H282 0.930 . S
C288 C289 1.355 . S
C288 C290 1.415 . S
C289 C288 1.355 . S
C289 C291 1.419 . S
C290 C288 1.415 . S
C290 C295 1.425 . S
C290 C297 1.409 . S
C291 H283 0.930 . S
C291 C289 1.419 . S
C291 C292 1.362 . S
C292 H284 0.930 . S
C292 C291 1.362 . S
C292 C295 1.409 . S
C293 H285 0.930 . S
C293 C294 1.355 . S
C293 C295 1.415 . S
C294 C293 1.355 . S
C294 C296 1.419 . S
C295 C290 1.425 . S
C295 C292 1.409 . S
C295 C293 1.415 . S
C296 H286 0.930 . S
C296 C294 1.419 . S
C296 C297 1.362 . S
C297 H287 0.930 . S
C297 C290 1.409 . S
C297 C296 1.362 . S
H298 C304 0.930 . S
H299 C307 0.930 . S
H300 C308 0.930 . S
H301 C309 0.930 . S
H302 C312 0.930 . S
H303 C313 0.930 . S
C304 H298 0.930 . S
C304 C305 1.355 . S
C304 C306 1.415 . S
C305 C304 1.355 . S
C305 C307 1.419 . S
C306 C304 1.415 . S
C306 C311 1.425 . S
C306 C313 1.409 . S
C307 H299 0.930 . S
C307 C305 1.419 . S
C307 C308 1.362 . S
C308 H300 0.930 . S
C308 C307 1.362 . S
C308 C311 1.409 . S
C309 H301 0.930 . S
C309 C310 1.355 . S
C309 C311 1.415 . S
C310 C309 1.355 . S
C310 C312 1.419 . S
C311 C306 1.425 . S
C311 C308 1.409 . S
C311 C309 1.415 . S
C312 H302 0.930 . S
C312 C310 1.419 . S
C312 C313 1.362 . S
C313 H303 0.930 . S
C313 C306 1.409 . S
C313 C312 1.362 . S
H314 C320 0.930 . S
H315 C323 0.930 . S
H316 C324 0.930 . S
H317 C325 0.930 . S
H318 C328 0.930 . S
H319 C329 0.930 . S
C320 H314 0.930 . S
C320 C321 1.355 . S
C320 C322 1.415 . S
C321 C320 1.355 . S
C321 C323 1.419 . S
C322 C320 1.415 . S
C322 C327 1.425 . S
C322 C329 1.409 . S
C323 H315 0.930 . S
C323 C321 1.419 . S
C323 C324 1.362 . S
C324 H316 0.930 . S
C324 C323 1.362 . S
C324 C327 1.409 . S
C325 H317 0.930 . S
C325 C326 1.355 . S
C325 C327 1.415 . S
C326 C325 1.355 . S
C326 C328 1.419 . S
C327 C322 1.425 . S
C327 C324 1.409 . S
C327 C325 1.415 . S
C328 H318 0.930 . S
C328 C326 1.419 . S
C328 C329 1.362 . S
C329 H319 0.930 . S
C329 C322 1.409 . S
C329 C328 1.362 . S
H330 C336 0.930 . S
H331 C339 0.930 . S
H332 C340 0.930 . S
H333 C341 0.930 . S
H334 C344 0.930 . S
H335 C345 0.930 . S
C336 H330 0.930 . S
C336 C337 1.355 . S
C336 C338 1.415 . S
C337 C336 1.355 . S
C337 C339 1.419 . S
C338 C336 1.415 . S
C338 C343 1.425 . S
C338 C345 1.409 . S
C339 H331 0.930 . S
C339 C337 1.419 . S
C339 C340 1.362 . S
C340 H332 0.930 . S
C340 C339 1.362 . S
C340 C343 1.409 . S
C341 H333 0.930 . S
C341 C342 1.355 . S
C341 C343 1.415 . S
C342 C341 1.355 . S
C342 C344 1.419 . S
C343 C338 1.425 . S
C343 C340 1.409 . S
C343 C341 1.415 . S
C344 H334 0.930 . S
C344 C342 1.419 . S
C344 C345 1.362 . S
C345 H335 0.930 . S
C345 C338 1.409 . S
C345 C344 1.362 . S
H346 C352 0.930 . S
H347 C355 0.930 . S
H348 C356 0.930 . S
H349 C357 0.930 . S
H350 C360 0.930 . S
H351 C361 0.930 . S
C352 H346 0.930 . S
C352 C353 1.355 . S
C352 C354 1.415 . S
C353 C352 1.355 . S
C353 C355 1.419 . S
C354 C352 1.415 . S
C354 C359 1.425 . S
C354 C361 1.409 . S
C355 H347 0.930 . S
C355 C353 1.419 . S
C355 C356 1.362 . S
C356 H348 0.930 . S
C356 C355 1.362 . S
C356 C359 1.409 . S
C357 H349 0.930 . S
C357 C358 1.355 . S
C357 C359 1.415 . S
C358 C357 1.355 . S
C358 C360 1.419 . S
C359 C354 1.425 . S
C359 C356 1.409 . S
C359 C357 1.415 . S
C360 H350 0.930 . S
C360 C358 1.419 . S
C360 C361 1.362 . S
C361 H351 0.930 . S
C361 C354 1.409 . S
C361 C360 1.362 . S
H362 C368 0.930 . S
H363 C371 0.930 . S
H364 C372 0.930 . S
H365 C373 0.930 . S
H366 C376 0.930 . S
H367 C377 0.930 . S
C368 H362 0.930 . S
C368 C369 1.355 . S
C368 C370 1.415 . S
C369 C368 1.355 . S
C369 C371 1.419 . S
C370 C368 1.415 . S
C370 C375 1.425 . S
C370 C377 1.409 . S
C371 H363 0.930 . S
C371 C369 1.419 . S
C371 C372 1.362 . S
C372 H364 0.930 . S
C372 C371 1.362 . S
C372 C375 1.409 . S
C373 H365 0.930 . S
C373 C374 1.355 . S
C373 C375 1.415 . S
C374 C373 1.355 . S
C374 C376 1.419 . S
C375 C370 1.425 . S
C375 C372 1.409 . S
C375 C373 1.415 . S
C376 H366 0.930 . S
C376 C374 1.419 . S
C376 C377 1.362 . S
C377 H367 0.930 . S
C377 C370 1.409 . S
C377 C376 1.362 . S
H378 C384 0.930 . S
H379 C387 0.930 1_655 S
H380 C388 0.930 1_655 S
H381 C389 0.930 1_655 S
H382 C392 0.930 . S
H383 C393 0.930 . S
C384 H378 0.930 . S
C384 C385 1.355 . S
C384 C386 1.415 . S
C385 C384 1.355 . S
C385 C387 1.419 . S
C386 C384 1.415 . S
C386 C391 1.425 . S
C386 C393 1.409 . S
C387 H379 0.930 1_455 S
C387 C385 1.419 . S
C387 C388 1.362 . S
C388 H380 0.930 1_455 S
C388 C387 1.362 . S
C388 C391 1.409 . S
C389 H381 0.930 1_455 S
C389 C390 1.355 . S
C389 C391 1.415 1_556 S
C390 C389 1.355 . S
C390 C392 1.419 . S
C391 C386 1.425 . S
C391 C388 1.409 . S
C391 C389 1.415 1_554 S
C392 H382 0.930 . S
C392 C390 1.419 . S
C392 C393 1.362 1_556 S
C393 H383 0.930 . S
C393 C386 1.409 . S
C393 C392 1.362 1_554 S
H394 C400 0.930 . S
H395 C403 0.930 . S
H396 C404 0.930 . S
H397 C405 0.930 . S
H398 C408 0.930 . S
H399 C409 0.930 . S
C400 H394 0.930 . S
C400 C401 1.355 . S
C400 C402 1.415 . S
C401 C400 1.355 . S
C401 C403 1.419 . S
C402 C400 1.415 . S
C402 C407 1.425 . S
C402 C409 1.409 1_545 S
C403 H395 0.930 . S
C403 C401 1.419 . S
C403 C404 1.362 . S
C404 H396 0.930 . S
C404 C403 1.362 . S
C404 C407 1.409 . S
C405 H397 0.930 . S
C405 C406 1.355 . S
C405 C407 1.415 . S
C406 C405 1.355 . S
C406 C408 1.419 1_545 S
C407 C402 1.425 . S
C407 C404 1.409 . S
C407 C405 1.415 . S
C408 H398 0.930 . S
C408 C406 1.419 1_565 S
C408 C409 1.362 . S
C409 H399 0.930 . S
C409 C402 1.409 1_565 S
C409 C408 1.362 . S
H410 C416 0.930 . S
H411 C419 0.930 . S
H412 C420 0.930 . S
H413 C421 0.930 . S
H414 C424 0.930 . S
H415 C425 0.930 . S
C416 H410 0.930 . S
C416 C417 1.355 . S
C416 C418 1.415 . S
C417 C416 1.355 . S
C417 C419 1.419 . S
C418 C416 1.415 . S
C418 C423 1.425 . S
C418 C425 1.409 . S
C419 H411 0.930 . S
C419 C417 1.419 . S
C419 C420 1.362 . S
C420 H412 0.930 . S
C420 C419 1.362 . S
C420 C423 1.409 . S
C421 H413 0.930 . S
C421 C422 1.355 . S
C421 C423 1.415 . S
C422 C421 1.355 . S
C422 C424 1.419 . S
C423 C418 1.425 . S
C423 C420 1.409 . S
C423 C421 1.415 . S
C424 H414 0.930 . S
C424 C422 1.419 . S
C424 C425 1.362 . S
C425 H415 0.930 . S
C425 C418 1.409 . S
C425 C424 1.362 . S
H426 C432 0.930 . S
H427 C435 0.930 . S
H428 C436 0.930 . S
H429 C437 0.930 . S
H430 C440 0.930 . S
H431 C441 0.930 . S
C432 H426 0.930 . S
C432 C433 1.355 1_565 S
C432 C434 1.415 . S
C433 C432 1.355 1_545 S
C433 C435 1.419 . S
C434 C432 1.415 . S
C434 C439 1.425 1_565 S
C434 C441 1.409 . S
C435 H427 0.930 . S
C435 C433 1.419 . S
C435 C436 1.362 . S
C436 H428 0.930 . S
C436 C435 1.362 . S
C436 C439 1.409 . S
C437 H429 0.930 . S
C437 C438 1.355 . S
C437 C439 1.415 . S
C438 C437 1.355 . S
C438 C440 1.419 1_545 S
C439 C434 1.425 1_545 S
C439 C436 1.409 . S
C439 C437 1.415 . S
C440 H430 0.930 . S
C440 C438 1.419 1_565 S
C440 C441 1.362 . S
C441 H431 0.930 . S
C441 C434 1.409 . S
C441 C440 1.362 . S
H442 C448 0.930 . S
H443 C451 0.930 . S
H444 C452 0.930 . S
H445 C453 0.930 . S
H446 C456 0.930 . S
H447 C457 0.930 . S
C448 H442 0.930 . S
C448 C449 1.355 . S
C448 C450 1.415 . S
C449 C448 1.355 . S
C449 C451 1.419 . S
C450 C448 1.415 . S
C450 C455 1.425 . S
C450 C457 1.409 . S
C451 H443 0.930 . S
C451 C449 1.419 . S
C451 C452 1.362 . S
C452 H444 0.930 . S
C452 C451 1.362 . S
C452 C455 1.409 . S
C453 H445 0.930 . S
C453 C454 1.355 . S
C453 C455 1.415 1_554 S
C454 C453 1.355 . S
C454 C456 1.419 . S
C455 C450 1.425 . S
C455 C452 1.409 . S
C455 C453 1.415 1_556 S
C456 H446 0.930 . S
C456 C454 1.419 . S
C456 C457 1.362 1_554 S
C457 H447 0.930 . S
C457 C450 1.409 . S
C457 C456 1.362 1_556 S
H458 C464 0.930 . S
H459 C467 0.930 . S
H460 C468 0.930 . S
H461 C469 0.930 . S
H462 C472 0.930 . S
H463 C473 0.930 . S
C464 H458 0.930 . S
C464 C465 1.355 . S
C464 C466 1.415 . S
C465 C464 1.355 . S
C465 C467 1.419 1_455 S
C466 C464 1.415 . S
C466 C471 1.425 1_455 S
C466 C473 1.409 . S
C467 H459 0.930 . S
C467 C465 1.419 1_655 S
C467 C468 1.362 . S
C468 H460 0.930 . S
C468 C467 1.362 . S
C468 C471 1.409 . S
C469 H461 0.930 . S
C469 C470 1.355 . S
C469 C471 1.415 . S
C470 C469 1.355 . S
C470 C472 1.419 1_655 S
C471 C466 1.425 1_655 S
C471 C468 1.409 . S
C471 C469 1.415 . S
C472 H462 0.930 . S
C472 C470 1.419 1_455 S
C472 C473 1.362 . S
C473 H463 0.930 . S
C473 C466 1.409 . S
C473 C472 1.362 . S
C193 C7 0.765 . S
C198 C180 0.794 . S
C209 C51 2.028 . S
C214 C158 1.772 . S
C225 C87 1.135 . S
C230 C172 1.119 . S
C241 C16 0.524 . S
C246 C183 0.229 . S
C262 C161 1.857 . S
C257 C42 1.897 . S
C278 C169 1.196 . S
C273 C96 1.428 . S
C289 C47 1.315 . S
C294 C136 1.093 . S
C305 C91 3.259 . S
C310 C147 2.883 . S
C321 C2 2.118 . S
C326 C125 1.797 . S
C342 C139 1.159 . S
C337 C56 1.115 . S
C358 C150 2.822 . S
C353 C82 2.913 . S
C369 C11 1.820 . S
C374 C128 1.742 . S
C390 C149 1.617 . S
C385 C19 1.627 . S
C401 C50 1.437 . S
C406 C127 1.369 . S
C417 C99 1.545 . S
C422 C138 1.431 . S
C438 C171 1.421 . S
C433 C59 1.428 . S
C454 C182 1.212 . S
C449 C90 1.248 . S
C465 C10 1.391 . S
C470 C160 1.339 . S
