# Generated by pormake.
# Topology gar, (4,6)-cn, num edge types: 1
# Building blocks:
#     Node 0, Type 0, BuildingBlock: UXUYUI_clean_sbu_0, # of connection points: 4
#     Node 1, Type 0, BuildingBlock: UXUYUI_clean_sbu_0, # of connection points: 4
#     Node 2, Type 0, BuildingBlock: UXUYUI_clean_sbu_0, # of connection points: 4
#     Node 3, Type 0, BuildingBlock: UXUYUI_clean_sbu_0, # of connection points: 4
#     Node 4, Type 0, BuildingBlock: UXUYUI_clean_sbu_0, # of connection points: 4
#     Node 5, Type 0, BuildingBlock: UXUYUI_clean_sbu_0, # of connection points: 4
#     Node 6, Type 0, BuildingBlock: UXUYUI_clean_sbu_0, # of connection points: 4
#     Node 7, Type 0, BuildingBlock: UXUYUI_clean_sbu_0, # of connection points: 4
#     Node 8, Type 0, BuildingBlock: UXUYUI_clean_sbu_0, # of connection points: 4
#     Node 9, Type 0, BuildingBlock: UXUYUI_clean_sbu_0, # of connection points: 4
#     Node 10, Type 0, BuildingBlock: UXUYUI_clean_sbu_0, # of connection points: 4
#     Node 11, Type 0, BuildingBlock: UXUYUI_clean_sbu_0, # of connection points: 4
#     Node 12, Type 0, BuildingBlock: UXUYUI_clean_sbu_0, # of connection points: 4
#     Node 13, Type 0, BuildingBlock: UXUYUI_clean_sbu_0, # of connection points: 4
#     Node 14, Type 0, BuildingBlock: UXUYUI_clean_sbu_0, # of connection points: 4
#     Node 15, Type 0, BuildingBlock: UXUYUI_clean_sbu_0, # of connection points: 4
#     Node 16, Type 0, BuildingBlock: UXUYUI_clean_sbu_0, # of connection points: 4
#     Node 17, Type 0, BuildingBlock: UXUYUI_clean_sbu_0, # of connection points: 4
#     Node 18, Type 0, BuildingBlock: UXUYUI_clean_sbu_0, # of connection points: 4
#     Node 19, Type 0, BuildingBlock: UXUYUI_clean_sbu_0, # of connection points: 4
#     Node 20, Type 0, BuildingBlock: UXUYUI_clean_sbu_0, # of connection points: 4
#     Node 21, Type 0, BuildingBlock: UXUYUI_clean_sbu_0, # of connection points: 4
#     Node 22, Type 0, BuildingBlock: UXUYUI_clean_sbu_0, # of connection points: 4
#     Node 23, Type 0, BuildingBlock: UXUYUI_clean_sbu_0, # of connection points: 4
#     Node 24, Type 1, BuildingBlock: PAMTUU_clean_sbu_0, # of connection points: 6
#     Node 25, Type 1, BuildingBlock: PAMTUU_clean_sbu_0, # of connection points: 6
#     Node 26, Type 1, BuildingBlock: PAMTUU_clean_sbu_0, # of connection points: 6
#     Node 27, Type 1, BuildingBlock: PAMTUU_clean_sbu_0, # of connection points: 6
#     Node 28, Type 1, BuildingBlock: PAMTUU_clean_sbu_0, # of connection points: 6
#     Node 29, Type 1, BuildingBlock: PAMTUU_clean_sbu_0, # of connection points: 6
#     Node 30, Type 1, BuildingBlock: PAMTUU_clean_sbu_0, # of connection points: 6
#     Node 31, Type 1, BuildingBlock: PAMTUU_clean_sbu_0, # of connection points: 6
#     Node 32, Type 1, BuildingBlock: PAMTUU_clean_sbu_0, # of connection points: 6
#     Node 33, Type 1, BuildingBlock: PAMTUU_clean_sbu_0, # of connection points: 6
#     Node 34, Type 1, BuildingBlock: PAMTUU_clean_sbu_0, # of connection points: 6
#     Node 35, Type 1, BuildingBlock: PAMTUU_clean_sbu_0, # of connection points: 6
#     Node 36, Type 1, BuildingBlock: PAMTUU_clean_sbu_0, # of connection points: 6
#     Node 37, Type 1, BuildingBlock: PAMTUU_clean_sbu_0, # of connection points: 6
#     Node 38, Type 1, BuildingBlock: PAMTUU_clean_sbu_0, # of connection points: 6
#     Node 39, Type 1, BuildingBlock: PAMTUU_clean_sbu_0, # of connection points: 6
#     Edge 40, Type (0, 1), BuildingBlock: CIFDUS_clean_linker_0, # of connection points: 2
#     Edge 41, Type (0, 1), BuildingBlock: CIFDUS_clean_linker_0, # of connection points: 2
#     Edge 42, Type (0, 1), BuildingBlock: CIFDUS_clean_linker_0, # of connection points: 2
#     Edge 43, Type (0, 1), BuildingBlock: CIFDUS_clean_linker_0, # of connection points: 2
#     Edge 44, Type (0, 1), BuildingBlock: CIFDUS_clean_linker_0, # of connection points: 2
#     Edge 45, Type (0, 1), BuildingBlock: CIFDUS_clean_linker_0, # of connection points: 2
#     Edge 46, Type (0, 1), BuildingBlock: CIFDUS_clean_linker_0, # of connection points: 2
#     Edge 47, Type (0, 1), BuildingBlock: CIFDUS_clean_linker_0, # of connection points: 2
#     Edge 48, Type (0, 1), BuildingBlock: CIFDUS_clean_linker_0, # of connection points: 2
#     Edge 49, Type (0, 1), BuildingBlock: CIFDUS_clean_linker_0, # of connection points: 2
#     Edge 50, Type (0, 1), BuildingBlock: CIFDUS_clean_linker_0, # of connection points: 2
#     Edge 51, Type (0, 1), BuildingBlock: CIFDUS_clean_linker_0, # of connection points: 2
#     Edge 52, Type (0, 1), BuildingBlock: CIFDUS_clean_linker_0, # of connection points: 2
#     Edge 53, Type (0, 1), BuildingBlock: CIFDUS_clean_linker_0, # of connection points: 2
#     Edge 54, Type (0, 1), BuildingBlock: CIFDUS_clean_linker_0, # of connection points: 2
#     Edge 55, Type (0, 1), BuildingBlock: CIFDUS_clean_linker_0, # of connection points: 2
#     Edge 56, Type (0, 1), BuildingBlock: CIFDUS_clean_linker_0, # of connection points: 2
#     Edge 57, Type (0, 1), BuildingBlock: CIFDUS_clean_linker_0, # of connection points: 2
#     Edge 58, Type (0, 1), BuildingBlock: CIFDUS_clean_linker_0, # of connection points: 2
#     Edge 59, Type (0, 1), BuildingBlock: CIFDUS_clean_linker_0, # of connection points: 2
#     Edge 60, Type (0, 1), BuildingBlock: CIFDUS_clean_linker_0, # of connection points: 2
#     Edge 61, Type (0, 1), BuildingBlock: CIFDUS_clean_linker_0, # of connection points: 2
#     Edge 62, Type (0, 1), BuildingBlock: CIFDUS_clean_linker_0, # of connection points: 2
#     Edge 63, Type (0, 1), BuildingBlock: CIFDUS_clean_linker_0, # of connection points: 2
#     Edge 64, Type (0, 1), BuildingBlock: CIFDUS_clean_linker_0, # of connection points: 2
#     Edge 65, Type (0, 1), BuildingBlock: CIFDUS_clean_linker_0, # of connection points: 2
#     Edge 66, Type (0, 1), BuildingBlock: CIFDUS_clean_linker_0, # of connection points: 2
#     Edge 67, Type (0, 1), BuildingBlock: CIFDUS_clean_linker_0, # of connection points: 2
#     Edge 68, Type (0, 1), BuildingBlock: CIFDUS_clean_linker_0, # of connection points: 2
#     Edge 69, Type (0, 1), BuildingBlock: CIFDUS_clean_linker_0, # of connection points: 2
#     Edge 70, Type (0, 1), BuildingBlock: CIFDUS_clean_linker_0, # of connection points: 2
#     Edge 71, Type (0, 1), BuildingBlock: CIFDUS_clean_linker_0, # of connection points: 2
#     Edge 72, Type (0, 1), BuildingBlock: CIFDUS_clean_linker_0, # of connection points: 2
#     Edge 73, Type (0, 1), BuildingBlock: CIFDUS_clean_linker_0, # of connection points: 2
#     Edge 74, Type (0, 1), BuildingBlock: CIFDUS_clean_linker_0, # of connection points: 2
#     Edge 75, Type (0, 1), BuildingBlock: CIFDUS_clean_linker_0, # of connection points: 2
#     Edge 76, Type (0, 1), BuildingBlock: CIFDUS_clean_linker_0, # of connection points: 2
#     Edge 77, Type (0, 1), BuildingBlock: CIFDUS_clean_linker_0, # of connection points: 2
#     Edge 78, Type (0, 1), BuildingBlock: CIFDUS_clean_linker_0, # of connection points: 2
#     Edge 79, Type (0, 1), BuildingBlock: CIFDUS_clean_linker_0, # of connection points: 2
#     Edge 80, Type (0, 1), BuildingBlock: CIFDUS_clean_linker_0, # of connection points: 2
#     Edge 81, Type (0, 1), BuildingBlock: CIFDUS_clean_linker_0, # of connection points: 2
#     Edge 82, Type (0, 1), BuildingBlock: CIFDUS_clean_linker_0, # of connection points: 2
#     Edge 83, Type (0, 1), BuildingBlock: CIFDUS_clean_linker_0, # of connection points: 2
#     Edge 84, Type (0, 1), BuildingBlock: CIFDUS_clean_linker_0, # of connection points: 2
#     Edge 85, Type (0, 1), BuildingBlock: CIFDUS_clean_linker_0, # of connection points: 2
#     Edge 86, Type (0, 1), BuildingBlock: CIFDUS_clean_linker_0, # of connection points: 2
#     Edge 87, Type (0, 1), BuildingBlock: CIFDUS_clean_linker_0, # of connection points: 2
#     Edge 88, Type (0, 1), BuildingBlock: CIFDUS_clean_linker_0, # of connection points: 2
#     Edge 89, Type (0, 1), BuildingBlock: CIFDUS_clean_linker_0, # of connection points: 2
#     Edge 90, Type (0, 1), BuildingBlock: CIFDUS_clean_linker_0, # of connection points: 2
#     Edge 91, Type (0, 1), BuildingBlock: CIFDUS_clean_linker_0, # of connection points: 2
#     Edge 92, Type (0, 1), BuildingBlock: CIFDUS_clean_linker_0, # of connection points: 2
#     Edge 93, Type (0, 1), BuildingBlock: CIFDUS_clean_linker_0, # of connection points: 2
#     Edge 94, Type (0, 1), BuildingBlock: CIFDUS_clean_linker_0, # of connection points: 2
#     Edge 95, Type (0, 1), BuildingBlock: CIFDUS_clean_linker_0, # of connection points: 2
#     Edge 96, Type (0, 1), BuildingBlock: CIFDUS_clean_linker_0, # of connection points: 2
#     Edge 97, Type (0, 1), BuildingBlock: CIFDUS_clean_linker_0, # of connection points: 2
#     Edge 98, Type (0, 1), BuildingBlock: CIFDUS_clean_linker_0, # of connection points: 2
#     Edge 99, Type (0, 1), BuildingBlock: CIFDUS_clean_linker_0, # of connection points: 2
#     Edge 100, Type (0, 1), BuildingBlock: CIFDUS_clean_linker_0, # of connection points: 2
#     Edge 101, Type (0, 1), BuildingBlock: CIFDUS_clean_linker_0, # of connection points: 2
#     Edge 102, Type (0, 1), BuildingBlock: CIFDUS_clean_linker_0, # of connection points: 2
#     Edge 103, Type (0, 1), BuildingBlock: CIFDUS_clean_linker_0, # of connection points: 2
#     Edge 104, Type (0, 1), BuildingBlock: CIFDUS_clean_linker_0, # of connection points: 2
#     Edge 105, Type (0, 1), BuildingBlock: CIFDUS_clean_linker_0, # of connection points: 2
#     Edge 106, Type (0, 1), BuildingBlock: CIFDUS_clean_linker_0, # of connection points: 2
#     Edge 107, Type (0, 1), BuildingBlock: CIFDUS_clean_linker_0, # of connection points: 2
#     Edge 108, Type (0, 1), BuildingBlock: CIFDUS_clean_linker_0, # of connection points: 2
#     Edge 109, Type (0, 1), BuildingBlock: CIFDUS_clean_linker_0, # of connection points: 2
#     Edge 110, Type (0, 1), BuildingBlock: CIFDUS_clean_linker_0, # of connection points: 2
#     Edge 111, Type (0, 1), BuildingBlock: CIFDUS_clean_linker_0, # of connection points: 2
#     Edge 112, Type (0, 1), BuildingBlock: CIFDUS_clean_linker_0, # of connection points: 2
#     Edge 113, Type (0, 1), BuildingBlock: CIFDUS_clean_linker_0, # of connection points: 2
#     Edge 114, Type (0, 1), BuildingBlock: CIFDUS_clean_linker_0, # of connection points: 2
#     Edge 115, Type (0, 1), BuildingBlock: CIFDUS_clean_linker_0, # of connection points: 2
#     Edge 116, Type (0, 1), BuildingBlock: CIFDUS_clean_linker_0, # of connection points: 2
#     Edge 117, Type (0, 1), BuildingBlock: CIFDUS_clean_linker_0, # of connection points: 2
#     Edge 118, Type (0, 1), BuildingBlock: CIFDUS_clean_linker_0, # of connection points: 2
#     Edge 119, Type (0, 1), BuildingBlock: CIFDUS_clean_linker_0, # of connection points: 2
#     Edge 120, Type (0, 1), BuildingBlock: CIFDUS_clean_linker_0, # of connection points: 2
#     Edge 121, Type (0, 1), BuildingBlock: CIFDUS_clean_linker_0, # of connection points: 2
#     Edge 122, Type (0, 1), BuildingBlock: CIFDUS_clean_linker_0, # of connection points: 2
#     Edge 123, Type (0, 1), BuildingBlock: CIFDUS_clean_linker_0, # of connection points: 2
#     Edge 124, Type (0, 1), BuildingBlock: CIFDUS_clean_linker_0, # of connection points: 2
#     Edge 125, Type (0, 1), BuildingBlock: CIFDUS_clean_linker_0, # of connection points: 2
#     Edge 126, Type (0, 1), BuildingBlock: CIFDUS_clean_linker_0, # of connection points: 2
#     Edge 127, Type (0, 1), BuildingBlock: CIFDUS_clean_linker_0, # of connection points: 2
#     Edge 128, Type (0, 1), BuildingBlock: CIFDUS_clean_linker_0, # of connection points: 2
#     Edge 129, Type (0, 1), BuildingBlock: CIFDUS_clean_linker_0, # of connection points: 2
#     Edge 130, Type (0, 1), BuildingBlock: CIFDUS_clean_linker_0, # of connection points: 2
#     Edge 131, Type (0, 1), BuildingBlock: CIFDUS_clean_linker_0, # of connection points: 2
#     Edge 132, Type (0, 1), BuildingBlock: CIFDUS_clean_linker_0, # of connection points: 2
#     Edge 133, Type (0, 1), BuildingBlock: CIFDUS_clean_linker_0, # of connection points: 2
#     Edge 134, Type (0, 1), BuildingBlock: CIFDUS_clean_linker_0, # of connection points: 2
#     Edge 135, Type (0, 1), BuildingBlock: CIFDUS_clean_linker_0, # of connection points: 2
# Relax obj value: 0.193
# Max RMSD: 0.315
# Mean RMSD: 0.206
data_MOF--net-gar--node1-UXUYUI_clean_sbu_0--node2-PAMTUU_clean_sbu_0--edge1-CIFDUS_clean_linker_0
_symmetry_space_group_name_H-M    P1
_symmetry_Int_Tables_number       1
_symmetry_cell_setting            triclinic
loop_
_symmetry_equiv_pos_as_xyz
'x, y, z'
_cell_length_a     66.087843
_cell_length_b     62.440745
_cell_length_c     65.249591
_cell_angle_alpha  93.746536
_cell_angle_beta   93.477554
_cell_angle_gamma 107.0679
loop_
_atom_site_label
_atom_site_type_symbol
_atom_site_fract_x
_atom_site_fract_y
_atom_site_fract_z
_atom_type_partial_charge
Li0 Li 0.03376 0.27895 0.3839 0.0
Li1 Li 0.05931 0.30443 0.41498 0.0
Li2 Li 0.07852 0.28336 0.38531 0.0
Li3 Li 0.05492 0.25924 0.41319 0.0
C4 C 0.06089 0.31956 0.36768 0.0
N5 N 0.06113 0.34568 0.33509 0.0
C6 C 0.05912 0.34124 0.37107 0.0
C7 C 0.06298 0.31122 0.34778 0.0
C8 C 0.05922 0.35417 0.35436 0.0
C9 C 0.06302 0.32467 0.33149 0.0
C10 C 0.02172 0.28302 0.4305 0.0
C11 C 0.01671 0.28817 0.46657 0.0
N12 N 1.00031 0.29638 0.46155 0.0
C13 C 1.00481 0.29147 0.42567 0.0
C14 C 0.02775 0.28133 0.45108 0.0
C15 C 0.99418 0.29815 0.4416 0.0
C16 C 0.98507 0.26072 0.36592 0.0
N17 N 1.00331 0.27869 0.36753 0.0
C18 C 0.98198 0.29976 0.35033 0.0
C19 C 1.00153 0.29805 0.35981 0.0
C20 C 0.96281 0.28154 0.34821 0.0
C21 C 0.96508 0.26178 0.35652 0.0
H22 H 0.9857 0.24526 0.37213 0.0
H23 H 1.0153 0.31273 0.36121 0.0
C24 C 0.07341 0.3455 0.44918 0.0
N25 N 0.05927 0.33471 0.43277 0.0
C26 C 0.07217 0.3658 0.45998 0.0
C27 C 0.04182 0.36407 0.43742 0.0
C28 C 0.04355 0.34391 0.42714 0.0
C29 C 0.05629 0.37594 0.45421 0.0
H30 H 0.08594 0.33857 0.45402 0.0
H31 H 0.03209 0.33564 0.41439 0.0
C32 C 0.05147 0.24055 0.36473 0.0
N33 N 0.05205 0.21102 0.33152 0.0
C34 C 0.06019 0.22297 0.36739 0.0
C35 C 0.04293 0.24307 0.34523 0.0
C36 C 0.06036 0.20823 0.35039 0.0
C37 C 0.04341 0.22798 0.32862 0.0
C38 C 0.09462 0.28167 0.4322 0.0
C39 C 0.10932 0.27064 0.42666 0.0
C40 C 0.09251 0.28665 0.453 0.0
C41 C 0.12172 0.26471 0.44212 0.0
C42 C 0.10521 0.28045 0.468 0.0
N43 N 0.11941 0.26969 0.4623 0.0
C44 C 0.12357 0.30621 0.36931 0.0
C45 C 0.11301 0.26753 0.36021 0.0
C46 C 0.14349 0.30863 0.36049 0.0
N47 N 0.10827 0.28582 0.3694 0.0
C48 C 0.1328 0.26928 0.35113 0.0
C49 C 0.14911 0.29009 0.35113 0.0
H50 H 0.1206 0.32106 0.37635 0.0
H51 H 0.10158 0.25109 0.36003 0.0
C52 C 0.03814 0.22258 0.44379 0.0
N53 N 0.05347 0.2299 0.43042 0.0
C54 C 0.03705 0.20359 0.45538 0.0
C55 C 0.06718 0.19874 0.43963 0.0
C56 C 0.06788 0.21799 0.42845 0.0
C57 C 0.05167 0.1909 0.45372 0.0
H58 H 0.02647 0.23144 0.44566 0.0
H59 H 0.08029 0.22337 0.41819 0.0
O60 O 0.06068 0.30651 0.38374 0.0
O61 O 0.03273 0.27702 0.41519 0.0
O62 O 0.05121 0.25524 0.38111 0.0
O63 O 0.08196 0.28704 0.41731 0.0
H64 H 0.05768 0.34801 0.3864 0.0
H65 H 0.06458 0.29454 0.34497 0.0
H66 H 0.05779 0.37096 0.35673 0.0
H67 H 0.06457 0.31842 0.31599 0.0
H68 H 0.02123 0.28702 0.48258 0.0
H69 H 1.00008 0.29304 0.40981 0.0
H70 H 0.04092 0.27495 0.45504 0.0
H71 H 0.98111 0.3048 0.43811 0.0
H72 H 0.98206 0.31584 0.34507 0.0
H73 H 0.95148 0.24691 0.35568 0.0
H74 H 0.08397 0.3737 0.47258 0.0
H75 H 0.02883 0.37013 0.43214 0.0
H76 H 0.06686 0.22082 0.38238 0.0
H77 H 0.03599 0.25652 0.34298 0.0
H78 H 0.06713 0.19458 0.3522 0.0
H79 H 0.03689 0.22973 0.31343 0.0
H80 H 0.111 0.26653 0.4106 0.0
H81 H 0.08112 0.29511 0.45749 0.0
H82 H 0.13312 0.25609 0.43809 0.0
H83 H 0.10374 0.28415 0.48417 0.0
H84 H 0.15441 0.32541 0.36105 0.0
H85 H 0.13537 0.25404 0.34453 0.0
H86 H 0.02439 0.1988 0.46548 0.0
H87 H 0.07917 0.19035 0.43744 0.0
Li88 Li 0.05298 0.81715 0.65766 0.0
Li89 Li 0.07118 0.79657 0.6849 0.0
Li90 Li 0.04649 0.76985 0.65564 0.0
Li91 Li 0.02777 0.79273 0.68547 0.0
C92 C 0.09398 0.80149 0.65208 0.0
N93 N 0.13739 0.8107 0.65103 0.0
C94 C 0.10694 0.82374 0.653 0.0
C95 C 0.10304 0.78391 0.65049 0.0
C96 C 0.12887 0.82805 0.65246 0.0
C97 C 0.12504 0.78892 0.65003 0.0
C98 C 0.06509 0.83583 0.70532 0.0
C99 C 0.06834 0.84997 0.74102 0.0
N100 N 0.08654 0.8661 0.73785 0.0
C101 C 0.08383 0.85251 0.7024 0.0
C102 C 0.05726 0.83449 0.72476 0.0
C103 C 0.09444 0.86767 0.71905 0.0
C104 C 0.05028 0.84696 0.62037 0.0
N105 N 0.05454 0.84715 0.6413 0.0
C106 C 0.06047 0.88801 0.64322 0.0
C107 C 0.05958 0.86765 0.6525 0.0
C108 C 0.05592 0.88853 0.62168 0.0
C109 C 0.05087 0.86705 0.61046 0.0
H110 H 0.04617 0.83109 0.61102 0.0
H111 H 0.0629 0.86848 0.669 0.0
C112 C 0.10482 0.77542 0.7018 0.0
N113 N 0.10153 0.79602 0.70062 0.0
C114 C 0.12446 0.77289 0.71009 0.0
C115 C 0.13835 0.81269 0.71621 0.0
C116 C 0.11834 0.81453 0.70769 0.0
C117 C 0.14215 0.79155 0.71782 0.0
H118 H 0.09224 0.76051 0.69582 0.0
H119 H 0.11662 0.8311 0.70655 0.0
C120 C 1.01173 0.79507 0.63937 0.0
N121 N 0.98569 0.80777 0.611 0.0
C122 C 0.99889 0.80797 0.64593 0.0
C123 C 1.01143 0.78871 0.6184 0.0
C124 C 0.9858 0.8142 0.63134 0.0
C125 C 0.99812 0.79528 0.60429 0.0
C126 C 0.04747 0.7576 0.7034 0.0
C127 C 0.04259 0.73419 0.70123 0.0
C128 C 0.05509 0.76932 0.72265 0.0
C129 C 0.04565 0.72287 0.71838 0.0
C130 C 0.05796 0.75739 0.73941 0.0
N131 N 0.05322 0.73461 0.73695 0.0
C132 C 0.05561 0.72493 0.6475 0.0
C133 C 0.03346 0.73088 0.6204 0.0
C134 C 0.05541 0.70384 0.63741 0.0
N135 N 0.04471 0.73836 0.63914 0.0
C136 C 0.0331 0.71006 0.60968 0.0
C137 C 0.04421 0.69579 0.61791 0.0
H138 H 0.06484 0.73059 0.66216 0.0
H139 H 0.02469 0.74106 0.61346 0.0
C140 C 0.99376 0.80897 0.71025 0.0
N141 N 0.99785 0.79072 0.70027 0.0
C142 C 0.97376 0.80763 0.71866 0.0
C143 C 0.96157 0.76879 0.7069 0.0
C144 C 0.98172 0.77079 0.69879 0.0
C145 C 0.95663 0.78732 0.71708 0.0
H146 H 1.00594 0.82506 0.71158 0.0
H147 H 0.98423 0.75604 0.69103 0.0
O148 O 0.07262 0.79699 0.65347 0.0
O149 O 0.05457 0.8207 0.68929 0.0
O150 O 0.02503 0.78933 0.65338 0.0
O151 O 0.04491 0.76908 0.68679 0.0
H152 H 0.10013 0.83752 0.65427 0.0
H153 H 0.09321 0.7666 0.64991 0.0
H154 H 0.13912 0.84519 0.65326 0.0
H155 H 0.1323 0.77549 0.64896 0.0
H156 H 0.06248 0.84914 0.75616 0.0
H157 H 0.09018 0.85363 0.68748 0.0
H158 H 0.04281 0.82159 0.72726 0.0
H159 H 0.10899 0.88065 0.71703 0.0
H160 H 0.06498 0.90338 0.65328 0.0
H161 H 0.04699 0.86548 0.59398 0.0
H162 H 0.12566 0.756 0.70989 0.0
H163 H 0.15075 0.82799 0.72161 0.0
H164 H 0.99914 0.81323 0.66211 0.0
H165 H 0.02154 0.77904 0.61307 0.0
H166 H 0.97578 0.82419 0.63619 0.0
H167 H 0.99774 0.79052 0.58799 0.0
H168 H 0.03637 0.72484 0.68652 0.0
H169 H 0.05899 0.78745 0.72454 0.0
H170 H 0.04196 0.70474 0.71694 0.0
H171 H 0.06398 0.76625 0.75437 0.0
H172 H 0.06454 0.69418 0.64472 0.0
H173 H 0.02388 0.70514 0.59494 0.0
H174 H 0.97169 0.82281 0.72599 0.0
H175 H 0.94993 0.75236 0.70515 0.0
Li176 Li 0.53214 0.77639 0.88365 0.0
Li177 Li 0.55852 0.80179 0.91333 0.0
Li178 Li 0.57863 0.78176 0.88476 0.0
Li179 Li 0.55434 0.75746 0.91212 0.0
C180 C 0.5636 0.82611 0.87984 0.0
N181 N 0.57259 0.8719 0.87745 0.0
C182 C 0.54713 0.83555 0.87615 0.0
C183 C 0.58463 0.83991 0.88228 0.0
C184 C 0.55201 0.85875 0.87501 0.0
C185 C 0.58885 0.86304 0.88101 0.0
C186 C 0.52348 0.77987 0.93231 0.0
C187 C 0.52409 0.78331 0.96937 0.0
N188 N 0.5071 0.79139 0.9679 0.0
C189 C 0.50601 0.78817 0.93113 0.0
C190 C 0.53261 0.77739 0.95154 0.0
C191 C 0.49797 0.79391 0.94932 0.0
C192 C 0.48257 0.76628 0.87515 0.0
N193 N 0.50173 0.77546 0.86718 0.0
C194 C 0.48163 0.78698 0.83921 0.0
C195 C 0.50107 0.78555 0.8492 0.0
C196 C 0.46153 0.77822 0.84727 0.0
C197 C 0.46272 0.76745 0.86565 0.0
H198 H 0.48244 0.75823 0.88935 0.0
H199 H 0.51581 0.793 0.84247 0.0
C200 C 0.5747 0.8456 0.94471 0.0
N201 N 0.55873 0.83257 0.93072 0.0
C202 C 0.57343 0.86605 0.95524 0.0
C203 C 0.53945 0.86004 0.93724 0.0
C204 C 0.54129 0.83984 0.92717 0.0
C205 C 0.55564 0.87408 0.95162 0.0
H206 H 0.58875 0.84041 0.94775 0.0
H207 H 0.52849 0.82998 0.91622 0.0
C208 C 0.54859 0.73202 0.8731 0.0
N209 N 0.54342 0.68768 0.85985 0.0
C210 C 0.56549 0.72302 0.87581 0.0
C211 C 0.52905 0.71852 0.8637 0.0
C212 C 0.56256 0.70055 0.86899 0.0
C213 C 0.52676 0.69612 0.85709 0.0
C214 C 0.59605 0.78232 0.9306 0.0
C215 C 0.60964 0.76993 0.92498 0.0
C216 C 0.59749 0.79165 0.95089 0.0
C217 C 0.62449 0.767 0.93985 0.0
C218 C 0.61257 0.78836 0.9653 0.0
N219 N 0.62563 0.7762 0.95954 0.0
C220 C 0.62703 0.79965 0.87363 0.0
C221 C 0.60808 0.76658 0.85374 0.0
C222 C 0.64623 0.79979 0.86407 0.0
N223 N 0.60794 0.78314 0.86865 0.0
C224 C 0.6269 0.76602 0.84401 0.0
C225 C 0.64696 0.78263 0.84891 0.0
H226 H 0.62775 0.81293 0.88542 0.0
H227 H 0.59348 0.75329 0.84926 0.0
C228 C 0.54181 0.70607 0.92111 0.0
N229 N 0.55301 0.72765 0.92882 0.0
C230 C 0.54155 0.68671 0.93201 0.0
C231 C 0.56409 0.71116 0.95913 0.0
C232 C 0.56401 0.72996 0.94775 0.0
C233 C 0.5527 0.68864 0.95168 0.0
H234 H 0.53276 0.70352 0.90632 0.0
H235 H 0.57296 0.74659 0.9544 0.0
O236 O 0.55915 0.80355 0.88162 0.0
O237 O 0.53196 0.77463 0.91477 0.0
O238 O 0.55109 0.75388 0.87988 0.0
O239 O 0.58133 0.78522 0.91631 0.0
H240 H 0.53076 0.8251 0.87445 0.0
H241 H 0.59752 0.83283 0.88527 0.0
H242 H 0.53942 0.86632 0.87227 0.0
H243 H 0.60505 0.87395 0.88293 0.0
H244 H 0.53103 0.78154 0.98437 0.0
H245 H 0.49892 0.79043 0.91636 0.0
H246 H 0.54622 0.77112 0.95268 0.0
H247 H 0.48451 0.80046 0.94866 0.0
H248 H 0.48266 0.79505 0.825 0.0
H249 H 0.44841 0.76027 0.87313 0.0
H250 H 0.58666 0.87573 0.96585 0.0
H251 H 0.52503 0.8644 0.93371 0.0
H252 H 0.58066 0.73325 0.88322 0.0
H253 H 0.5158 0.72526 0.86159 0.0
H254 H 0.57548 0.69333 0.87102 0.0
H255 H 0.51173 0.68544 0.84979 0.0
H256 H 0.60868 0.7626 0.90932 0.0
H257 H 0.58694 0.80114 0.95547 0.0
H258 H 0.63511 0.75741 0.93576 0.0
H259 H 0.61384 0.79541 0.98109 0.0
H260 H 0.66064 0.81318 0.86905 0.0
H261 H 0.62544 0.75236 0.8324 0.0
H262 H 0.53223 0.67029 0.92508 0.0
H263 H 0.57347 0.71453 0.97379 0.0
Li264 Li 0.55216 0.31466 0.15563 0.0
Li265 Li 0.57098 0.29515 0.18347 0.0
Li266 Li 0.54611 0.26764 0.15468 0.0
Li267 Li 0.52738 0.29113 0.18426 0.0
C268 C 0.59338 0.30005 0.15007 0.0
N269 N 0.63679 0.31107 0.14786 0.0
C270 C 0.60543 0.32251 0.14973 0.0
C271 C 0.60334 0.28317 0.1491 0.0
C272 C 0.62737 0.32774 0.14864 0.0
C273 C 0.62533 0.28909 0.14805 0.0
C274 C 0.56455 0.3359 0.20204 0.0
C275 C 0.56797 0.35354 0.23658 0.0
N276 N 0.5858 0.36946 0.23216 0.0
C277 C 0.58287 0.35243 0.19781 0.0
C278 C 0.55698 0.33643 0.22154 0.0
C279 C 0.59341 0.36926 0.21326 0.0
C280 C 0.55038 0.3409 0.11664 0.0
N281 N 0.55339 0.34351 0.13774 0.0
C282 C 0.55731 0.38381 0.13529 0.0
C283 C 0.55672 0.36488 0.14693 0.0
C284 C 0.55444 0.38172 0.1134 0.0
C285 C 0.55075 0.3593 0.10449 0.0
H286 H 0.54753 0.32431 0.10887 0.0
H287 H 0.559 0.36756 0.16356 0.0
C288 C 0.60507 0.27442 0.20014 0.0
N289 N 0.60153 0.29493 0.19921 0.0
C290 C 0.62476 0.27201 0.20845 0.0
C291 C 0.63822 0.31177 0.21517 0.0
C292 C 0.61815 0.31349 0.20661 0.0
C293 C 0.64227 0.2907 0.2165 0.0
H294 H 0.59264 0.25947 0.19394 0.0
H295 H 0.6162 0.33001 0.20576 0.0
C296 C 0.5114 0.29163 0.13716 0.0
N297 N 0.48628 0.30287 0.10686 0.0
C298 C 0.49858 0.30508 0.14235 0.0
C299 C 0.51154 0.28397 0.11659 0.0
C300 C 0.48596 0.31055 0.1268 0.0
C301 C 0.49869 0.28981 0.10148 0.0
C302 C 0.54827 0.25741 0.2032 0.0
C303 C 0.54564 0.23432 0.20187 0.0
C304 C 0.55468 0.27011 0.22218 0.0
C305 C 0.5497 0.22432 0.21959 0.0
C306 C 0.5586 0.2595 0.23953 0.0
N307 N 0.55606 0.23702 0.23788 0.0
C308 C 0.5575 0.22456 0.14769 0.0
C309 C 0.53277 0.22617 0.12095 0.0
C310 C 0.55808 0.20322 0.13908 0.0
N311 N 0.54483 0.23593 0.1389 0.0
C312 C 0.53308 0.20482 0.11165 0.0
C313 C 0.54572 0.1925 0.12069 0.0
H314 H 0.56738 0.23202 0.16167 0.0
H315 H 0.52265 0.23477 0.11364 0.0
C316 C 0.49042 0.30775 0.2032 0.0
N317 N 0.49774 0.2894 0.19979 0.0
C318 C 0.47069 0.30639 0.21221 0.0
C319 C 0.4655 0.26739 0.21479 0.0
C320 C 0.48523 0.26942 0.20574 0.0
C321 C 0.45719 0.28589 0.21825 0.0
H322 H 0.49973 0.32382 0.19869 0.0
H323 H 0.49035 0.25456 0.20341 0.0
O324 O 0.57204 0.29473 0.15198 0.0
O325 O 0.55413 0.31918 0.18722 0.0
O326 O 0.5243 0.28664 0.15209 0.0
O327 O 0.54478 0.26767 0.18603 0.0
H328 H 0.59791 0.33574 0.15041 0.0
H329 H 0.59424 0.26572 0.14943 0.0
H330 H 0.63692 0.34506 0.14845 0.0
H331 H 0.63328 0.27622 0.14747 0.0
H332 H 0.56232 0.35417 0.25176 0.0
H333 H 0.58892 0.35221 0.18279 0.0
H334 H 0.54278 0.32374 0.22501 0.0
H335 H 0.60764 0.38214 0.21023 0.0
H336 H 0.56032 0.40013 0.14363 0.0
H337 H 0.54781 0.35555 0.08799 0.0
H338 H 0.62613 0.25517 0.20801 0.0
H339 H 0.65045 0.3271 0.22084 0.0
H340 H 0.49851 0.31134 0.15819 0.0
H341 H 0.52164 0.27385 0.11232 0.0
H342 H 0.47597 0.32096 0.13057 0.0
H343 H 0.49866 0.28404 0.08548 0.0
H344 H 0.54038 0.22419 0.18737 0.0
H345 H 0.55681 0.28802 0.22343 0.0
H346 H 0.54776 0.20646 0.21879 0.0
H347 H 0.5637 0.26915 0.2543 0.0
H348 H 0.56853 0.1953 0.14687 0.0
H349 H 0.52305 0.19784 0.09763 0.0
H350 H 0.46596 0.32154 0.21403 0.0
H351 H 0.45693 0.251 0.21917 0.0
Li352 Li 0.09113 0.82572 0.11725 0.0
Li353 Li 0.11294 0.80837 0.14399 0.0
Li354 Li 0.08641 0.7842 0.11694 0.0
Li355 Li 0.0742 0.80255 0.1446 0.0
C356 C 0.11959 0.7991 0.09648 0.0
N357 N 0.13107 0.77674 0.06337 0.0
C358 C 0.13144 0.78424 0.09978 0.0
C359 C 0.11368 0.80272 0.07638 0.0
C360 C 0.13705 0.77305 0.08282 0.0
C361 C 0.11964 0.79123 0.05983 0.0
C362 C 0.09251 0.84261 0.16482 0.0
C363 C 0.09586 0.85315 0.20135 0.0
N364 N 0.08057 0.86353 0.19859 0.0
C365 C 0.07694 0.85349 0.16229 0.0
C366 C 0.10213 0.84248 0.18446 0.0
C367 C 0.07107 0.86392 0.17958 0.0
C368 C 0.07125 0.85689 0.10155 0.0
N369 N 0.09038 0.85279 0.10371 0.0
C370 C 0.1072 0.8882 0.09045 0.0
C371 C 0.10821 0.86797 0.09821 0.0
C372 C 0.08766 0.89305 0.08828 0.0
C373 C 0.06952 0.8768 0.09381 0.0
H374 H 0.05729 0.84485 0.10631 0.0
H375 H 0.12333 0.86461 0.1002 0.0
C376 C 0.14285 0.79079 0.16363 0.0
N377 N 0.13969 0.8107 0.15946 0.0
C378 C 0.16119 0.7903 0.17525 0.0
C379 C 0.17337 0.83085 0.17758 0.0
C380 C 0.15457 0.83058 0.16607 0.0
C381 C 0.17677 0.81049 0.18253 0.0
H382 H 0.13097 0.77518 0.15802 0.0
H383 H 0.1518 0.84623 0.16257 0.0
C384 C 0.0509 0.78999 0.09848 0.0
N385 N 0.02352 0.76863 0.06468 0.0
C386 C 0.03446 0.7704 0.10048 0.0
C387 C 0.05334 0.79883 0.07933 0.0
C388 C 0.02083 0.7598 0.08319 0.0
C389 C 0.03933 0.78778 0.06242 0.0
C390 C 0.08017 0.76641 0.16026 0.0
C391 C 0.06061 0.75038 0.15433 0.0
C392 C 0.08925 0.76808 0.18044 0.0
C393 C 0.05031 0.73641 0.16879 0.0
C394 C 0.07846 0.75378 0.19444 0.0
N395 N 0.05937 0.73839 0.18837 0.0
C396 C 0.08738 0.73901 0.11084 0.0
C397 C 0.07434 0.75067 0.08036 0.0
C398 C 0.08446 0.71745 0.10122 0.0
N399 N 0.08199 0.75511 0.10055 0.0
C400 C 0.07107 0.72924 0.07014 0.0
C401 C 0.07594 0.7121 0.08062 0.0
H402 H 0.09392 0.74282 0.1267 0.0
H403 H 0.07079 0.76369 0.07206 0.0
C404 C 0.03212 0.80016 0.15395 0.0
N405 N 0.05143 0.80047 0.16271 0.0
C406 C 1.01525 0.79955 0.16613 0.0
C407 C 0.03832 0.79954 0.19622 0.0
C408 C 0.05476 0.80022 0.18347 0.0
C409 C 0.01819 0.79929 0.18763 0.0
H410 H 0.02986 0.80076 0.13748 0.0
H411 H 0.07025 0.80085 0.19025 0.0
O412 O 0.11332 0.8096 0.11285 0.0
O413 O 0.09812 0.83187 0.14818 0.0
O414 O 0.06435 0.80064 0.11524 0.0
O415 O 0.09039 0.78036 0.14636 0.0
H416 H 0.136 0.78119 0.11528 0.0
H417 H 0.10447 0.81416 0.07362 0.0
H418 H 0.14608 0.76137 0.08512 0.0
H419 H 0.1151 0.79378 0.04418 0.0
H420 H 0.10308 0.8531 0.21667 0.0
H421 H 0.06929 0.85363 0.14719 0.0
H422 H 0.11415 0.83403 0.18665 0.0
H423 H 0.05893 0.87227 0.1779 0.0
H424 H 0.12165 0.89995 0.08625 0.0
H425 H 0.05414 0.87972 0.09281 0.0
H426 H 0.16321 0.7742 0.1784 0.0
H427 H 0.18489 0.84682 0.18293 0.0
H428 H 0.03223 0.76347 0.11524 0.0
H429 H 0.066 0.81395 0.07749 0.0
H430 H 1.00808 0.74457 0.08449 0.0
H431 H 0.04108 0.79437 0.04749 0.0
H432 H 0.05346 0.74878 0.13873 0.0
H433 H 0.10432 0.78051 0.18532 0.0
H434 H 0.03511 0.72398 0.16443 0.0
H435 H 0.08523 0.75498 0.21014 0.0
H436 H 0.0884 0.70493 0.11008 0.0
H437 H 0.06488 0.7262 0.05413 0.0
H438 H 1.0002 0.79979 0.15876 0.0
H439 H 0.04141 0.79914 0.21265 0.0
Li440 Li 0.51806 0.79175 0.44691 0.0
Li441 Li 0.4944 0.76595 0.41929 0.0
Li442 Li 0.51468 0.74967 0.44661 0.0
Li443 Li 0.53262 0.77182 0.41882 0.0
C444 C 0.48387 0.76778 0.46871 0.0
N445 N 0.46728 0.77167 0.50617 0.0
C446 C 0.46586 0.77506 0.4699 0.0
C447 C 0.49318 0.76206 0.48651 0.0
C448 C 0.45779 0.77705 0.489 0.0
C449 C 0.48464 0.76426 0.50532 0.0
C450 C 0.5078 0.80523 0.40329 0.0
C451 C 0.49657 0.81054 0.36861 0.0
N452 N 0.4873 0.82582 0.37622 0.0
C453 C 0.49828 0.82109 0.41075 0.0
C454 C 0.50708 0.80002 0.38205 0.0
C455 C 0.48796 0.83129 0.39682 0.0
C456 C 0.54451 0.8349 0.46249 0.0
N457 N 0.52424 0.8212 0.46249 0.0
C458 C 0.51409 0.85136 0.47952 0.0
C459 C 0.5091 0.82902 0.47087 0.0
C460 C 0.53489 0.86598 0.47957 0.0
C461 C 0.55019 0.85727 0.47101 0.0
H462 H 0.55621 0.82862 0.4553 0.0
H463 H 0.49295 0.81821 0.47028 0.0
C464 C 0.4642 0.74889 0.38353 0.0
N465 N 0.46841 0.76233 0.40152 0.0
C466 C 0.44718 0.7487 0.36948 0.0
C467 C 0.4386 0.77562 0.3929 0.0
C468 C 0.45581 0.77534 0.40646 0.0
C469 C 0.43417 0.76239 0.37393 0.0
H470 H 0.47433 0.73866 0.3798 0.0
H471 H 0.45961 0.78624 0.4206 0.0
C472 C 0.55594 0.78152 0.46487 0.0
N473 N 0.58725 0.79268 0.49716 0.0
C474 C 0.57647 0.78087 0.46159 0.0
C475 C 0.55142 0.78813 0.48452 0.0
C476 C 0.59205 0.78647 0.47814 0.0
C477 C 0.56744 0.79365 0.50065 0.0
C478 C 0.51602 0.72966 0.40153 0.0
C479 C 0.52213 0.71112 0.40724 0.0
C480 C 0.51705 0.7352 0.38113 0.0
C481 C 0.5294 0.69857 0.39246 0.0
C482 C 0.52444 0.72226 0.36682 0.0
N483 N 0.53042 0.70437 0.37274 0.0
C484 C 0.49903 0.70661 0.46472 0.0
C485 C 0.53636 0.72209 0.46678 0.0
C486 C 0.50102 0.687 0.47307 0.0
N487 N 0.5166 0.72369 0.46159 0.0
C488 C 0.53906 0.70293 0.47528 0.0
C489 C 0.52129 0.68479 0.47835 0.0
H490 H 0.48344 0.70792 0.46025 0.0
H491 H 0.55019 0.73535 0.46361 0.0
C492 C 0.56258 0.79128 0.39026 0.0
N493 N 0.55638 0.77437 0.40277 0.0
C494 C 0.58034 0.7932 0.37906 0.0
C495 C 0.58488 0.76022 0.39374 0.0
C496 C 0.5672 0.75906 0.40476 0.0
C497 C 0.59182 0.77756 0.38074 0.0
H498 H 0.55392 0.80347 0.3892 0.0
H499 H 0.56214 0.74599 0.41506 0.0
O500 O 0.49185 0.7655 0.4501 0.0
O501 O 0.51746 0.79461 0.41672 0.0
O502 O 0.54052 0.77619 0.4488 0.0
O503 O 0.50918 0.74237 0.41587 0.0
H504 H 0.45826 0.77928 0.45624 0.0
H505 H 0.50682 0.7559 0.48583 0.0
H506 H 0.44396 0.78283 0.49016 0.0
H507 H 0.49177 0.75999 0.51923 0.0
H508 H 0.49577 0.80654 0.35215 0.0
H509 H 0.49859 0.82527 0.42713 0.0
H510 H 0.51442 0.78786 0.37599 0.0
H511 H 0.4804 0.84348 0.40239 0.0
H512 H 0.50172 0.85711 0.48602 0.0
H513 H 0.56633 0.86782 0.47026 0.0
H514 H 0.4443 0.73798 0.35522 0.0
H515 H 0.42933 0.78672 0.39698 0.0
H516 H 0.58033 0.77601 0.44647 0.0
H517 H 0.53583 0.78935 0.48725 0.0
H518 H 0.60796 0.78592 0.47583 0.0
H519 H 0.56415 0.79881 0.51593 0.0
H520 H 0.52134 0.70648 0.4229 0.0
H521 H 0.51249 0.74952 0.37645 0.0
H522 H 0.53425 0.68424 0.39669 0.0
H523 H 0.52548 0.72648 0.35102 0.0
H524 H 0.48678 0.67364 0.47522 0.0
H525 H 0.55502 0.70202 0.47866 0.0
H526 H 0.58525 0.80708 0.36954 0.0
H527 H 0.59298 0.74759 0.39538 0.0
Li528 Li 0.59678 0.32673 0.61532 0.0
Li529 Li 0.61979 0.31162 0.64192 0.0
Li530 Li 0.59561 0.28576 0.61413 0.0
Li531 Li 0.5806 0.30257 0.64165 0.0
C532 C 0.6268 0.30588 0.59277 0.0
N533 N 0.63796 0.28966 0.55611 0.0
C534 C 0.64508 0.29898 0.59246 0.0
C535 C 0.61424 0.30464 0.57445 0.0
C536 C 0.65044 0.29081 0.57376 0.0
C537 C 0.62014 0.29636 0.55607 0.0
C538 C 0.59355 0.34233 0.66139 0.0
C539 C 0.58819 0.34846 0.69727 0.0
N540 N 0.57412 0.35966 0.69192 0.0
C541 C 0.57909 0.35397 0.65625 0.0
C542 C 0.5982 0.33959 0.68206 0.0
C543 C 0.56943 0.36259 0.67191 0.0
C544 C 0.58042 0.35037 0.58471 0.0
N545 N 0.59461 0.3531 0.6014 0.0
C546 C 0.60193 0.3933 0.60226 0.0
C547 C 0.60554 0.37412 0.61001 0.0
C548 C 0.58679 0.39101 0.58545 0.0
C549 C 0.5763 0.36907 0.57647 0.0
H550 H 0.57179 0.33361 0.57809 0.0
H551 H 0.61651 0.37601 0.62348 0.0
C552 C 0.65641 0.29967 0.65323 0.0
N553 N 0.64668 0.31561 0.6577 0.0
C554 C 0.6754 0.30012 0.66423 0.0
C555 C 0.67402 0.33322 0.68466 0.0
C556 C 0.65512 0.3323 0.67305 0.0
C557 C 0.68447 0.31699 0.6803 0.0
H558 H 0.6492 0.28631 0.64127 0.0
H559 H 0.64708 0.34474 0.67645 0.0
C560 C 0.5529 0.28267 0.60615 0.0
N561 N 0.51515 0.24904 0.59553 0.0
C562 C 0.54735 0.26371 0.61729 0.0
C563 C 0.53919 0.28457 0.58967 0.0
C564 C 0.52822 0.24689 0.61167 0.0
C565 C 0.52019 0.26737 0.58452 0.0
C566 C 0.59751 0.26827 0.6587 0.0
C567 C 0.58727 0.24527 0.6543 0.0
C568 C 0.60707 0.27641 0.6785 0.0
C569 C 0.58645 0.23084 0.66992 0.0
C570 C 0.60591 0.26144 0.69369 0.0
N571 N 0.5957 0.23916 0.68913 0.0
C572 C 0.61037 0.24867 0.60411 0.0
C573 C 0.57837 0.2457 0.58425 0.0
C574 C 0.61033 0.22736 0.59585 0.0
N575 N 0.59447 0.25741 0.59842 0.0
C576 C 0.57749 0.22407 0.57589 0.0
C577 C 0.59353 0.2145 0.58181 0.0
H578 H 0.62287 0.25806 0.61557 0.0
H579 H 0.5659 0.2528 0.57971 0.0
C580 C 0.54026 0.30519 0.65048 0.0
N581 N 0.55654 0.29823 0.65842 0.0
C582 C 0.52192 0.30267 0.66084 0.0
C583 C 0.53741 0.28627 0.68779 0.0
C584 C 0.55549 0.28904 0.67683 0.0
C585 C 0.52019 0.29295 0.67973 0.0
H586 H 0.54153 0.3128 0.63601 0.0
H587 H 0.56859 0.28382 0.68306 0.0
O588 O 0.62083 0.31325 0.61096 0.0
O589 O 0.60263 0.33313 0.64622 0.0
O590 O 0.57152 0.29943 0.61143 0.0
O591 O 0.5988 0.28259 0.6435 0.0
H592 H 0.65496 0.29985 0.6065 0.0
H593 H 0.59995 0.30977 0.5745 0.0
H594 H 0.6645 0.28534 0.57328 0.0
H595 H 0.61052 0.29519 0.54179 0.0
H596 H 0.59156 0.34636 0.71332 0.0
H597 H 0.57511 0.356 0.64031 0.0
H598 H 0.60926 0.33054 0.6863 0.0
H599 H 0.5581 0.3715 0.66815 0.0
H600 H 0.61029 0.40969 0.60994 0.0
H601 H 0.56476 0.36628 0.56332 0.0
H602 H 0.68264 0.28704 0.66051 0.0
H603 H 0.68046 0.34659 0.69684 0.0
H604 H 0.55763 0.26205 0.63018 0.0
H605 H 0.54317 0.29916 0.58093 0.0
H606 H 0.52376 0.23213 0.62017 0.0
H607 H 0.50945 0.2686 0.57178 0.0
H608 H 0.58009 0.2386 0.63897 0.0
H609 H 0.6152 0.29411 0.68214 0.0
H610 H 0.57852 0.21302 0.66675 0.0
H611 H 0.61315 0.26753 0.70911 0.0
H612 H 0.62295 0.22066 0.60101 0.0
H613 H 0.56432 0.21487 0.56497 0.0
H614 H 0.50929 0.30849 0.65418 0.0
H615 H 0.53678 0.27859 0.70224 0.0
Li616 Li 0.02455 0.2941 0.94208 0.0
Li617 Li 1.00169 0.26888 0.91376 0.0
Li618 Li 0.02107 0.25199 0.94158 0.0
Li619 Li 0.04016 0.27434 0.91468 0.0
C620 C 0.98826 0.27024 0.96152 0.0
N621 N 0.96739 0.27444 0.99632 0.0
C622 C 0.97138 0.27948 0.96066 0.0
C623 C 0.99415 0.26262 0.97997 0.0
C624 C 0.96114 0.28162 0.97845 0.0
C625 C 0.98352 0.26503 0.99743 0.0
C626 C 0.01823 0.30784 0.89661 0.0
C627 C 1.00757 0.30903 0.86078 0.0
N628 N 1.00296 0.32851 0.86557 0.0
C629 C 1.01356 0.32798 0.90115 0.0
C630 C 1.01538 0.29839 0.87623 0.0
C631 C 1.00581 0.33814 0.88526 0.0
C632 C 0.04865 0.33624 0.96394 0.0
N633 N 0.02857 0.32333 0.95737 0.0
C634 C 1.01523 0.35441 0.96609 0.0
C635 C 1.01194 0.33195 0.95857 0.0
C636 C 0.03589 0.36838 0.97248 0.0
C637 C 0.05262 0.35867 0.97178 0.0
H638 H 0.06181 0.32947 0.96233 0.0
H639 H 0.99623 0.32186 0.95249 0.0
C640 C 0.9682 0.2509 0.88014 0.0
N641 N 0.97606 0.26681 0.89623 0.0
C642 C 0.95118 0.25201 0.86665 0.0
C643 C 0.95044 0.28557 0.88669 0.0
C644 C 0.96731 0.28375 0.89979 0.0
C645 C 0.94213 0.26968 0.86968 0.0
H646 H 0.97534 0.23756 0.87751 0.0
H647 H 0.97399 0.29644 0.91243 0.0
C648 C 0.06014 0.28289 0.96299 0.0
N649 N 0.08618 0.29155 0.99924 0.0
C650 C 0.08125 0.28281 0.96274 0.0
C651 C 0.05237 0.28767 0.98165 0.0
C652 C 0.09414 0.28714 0.98124 0.0
C653 C 0.06575 0.29194 0.99981 0.0
C654 C 0.02441 0.23252 0.89718 0.0
C655 C 0.03576 0.21854 0.90462 0.0
C656 C 0.02137 0.23364 0.87594 0.0
C657 C 0.04407 0.2061 0.89067 0.0
C658 C 0.02995 0.22095 0.86249 0.0
N659 N 0.04104 0.20757 0.87008 0.0
C660 C 1.00538 0.20556 0.95099 0.0
C661 C 0.03796 0.22542 0.96964 0.0
C662 C 1.00632 0.18536 0.95882 0.0
N663 N 0.02116 0.22516 0.95631 0.0
C664 C 0.0395 0.20566 0.97785 0.0
C665 C 0.02372 0.18504 0.97231 0.0
H666 H 0.99235 0.20543 0.94006 0.0
H667 H 0.0506 0.24081 0.97362 0.0
C668 C 0.06889 0.29045 0.8837 0.0
N669 N 0.06449 0.27673 0.89924 0.0
C670 C 0.08703 0.29219 0.87312 0.0
C671 C 0.09588 0.26579 0.89481 0.0
C672 C 0.07756 0.2645 0.90488 0.0
C673 C 0.1009 0.27985 0.87873 0.0
H674 H 0.05853 0.30034 0.87969 0.0
H675 H 0.0738 0.25381 0.91736 0.0
O676 O 0.99831 0.26773 0.94419 0.0
O677 O 0.02524 0.29728 0.91206 0.0
O678 O 0.04728 0.27865 0.94502 0.0
O679 O 0.01646 0.24512 0.91064 0.0
H680 H 0.96626 0.285 0.94642 0.0
H681 H 1.00677 0.25484 0.9808 0.0
H682 H 0.94818 0.28892 0.97804 0.0
H683 H 0.98803 0.25934 0.01183 0.0
H684 H 1.00512 0.30177 0.84498 0.0
H685 H 1.01583 0.33567 0.91676 0.0
H686 H 0.01897 0.28289 0.87243 0.0
H687 H 1.00204 0.35366 0.88858 0.0
H688 H 1.0018 0.36102 0.96588 0.0
H689 H 0.06881 0.36842 0.97679 0.0
H690 H 0.94524 0.23916 0.85397 0.0
H691 H 0.94446 0.29978 0.88958 0.0
H692 H 0.08765 0.27944 0.94844 0.0
H693 H 0.0363 0.28845 0.98207 0.0
H694 H 0.11047 0.28702 0.98127 0.0
H695 H 0.05992 0.29566 0.01435 0.0
H696 H 0.03844 0.21755 0.92098 0.0
H697 H 1.0125 0.24418 0.86987 0.0
H698 H 0.05302 0.19535 0.89624 0.0
H699 H 0.02777 0.22174 0.84602 0.0
H700 H 0.99381 0.17 0.95375 0.0
H701 H 0.05308 0.20661 0.98841 0.0
H702 H 0.09043 0.30349 0.86102 0.0
H703 H 0.10597 0.2558 0.89953 0.0
Li704 Li 0.45275 0.04048 0.33918 0.0
Li705 Li 0.41552 0.01691 0.33252 0.0
Li706 Li 0.4382 0.0261 0.30479 0.0
Li707 Li 0.42564 0.0543 0.32166 0.0
C708 C 0.45361 0.99422 0.32674 0.0
N709 N 0.47755 0.96473 0.32322 0.0
C710 C 0.44389 0.97103 0.32638 0.0
C711 C 0.47552 1.00236 0.32532 0.0
C712 C 0.45626 0.95641 0.32457 0.0
C713 C 0.48734 0.9872 0.32356 0.0
C714 C 0.41056 0.0494 0.36095 0.0
C715 C 0.3746 0.05113 0.36131 0.0
N716 N 0.37813 0.05771 0.38183 0.0
C717 C 0.41383 0.05616 0.38203 0.0
C718 C 0.39078 0.04683 0.35049 0.0
C719 C 0.39723 0.06028 0.39232 0.0
C720 C 0.49159 0.06843 0.35868 0.0
N721 N 0.47694 0.0478 0.35758 0.0
C722 C 0.49708 0.03574 0.38336 0.0
C723 C 0.47923 0.0316 0.36959 0.0
C724 C 0.5123 0.05695 0.3851 0.0
C725 C 0.5095 0.07353 0.37271 0.0
H726 H 0.48917 0.08095 0.3489 0.0
H727 H 0.4671 0.0155 0.36851 0.0
C728 C 0.37327 0.9898 0.33474 0.0
N729 N 0.3938 0.99388 0.34229 0.0
C730 C 0.35863 0.96884 0.33619 0.0
C731 C 0.38594 0.958 0.3555 0.0
C732 C 0.40003 0.97916 0.35367 0.0
C733 C 0.36542 0.95222 0.34547 0.0
H734 H 0.36872 1.00189 0.32584 0.0
H735 H 0.41646 0.98303 0.3596 0.0
C736 C 0.46713 0.06673 0.29963 0.0
N737 N 0.49159 0.08455 0.2684 0.0
C738 C 0.46148 0.08215 0.28762 0.0
C739 C 0.48546 0.06073 0.29601 0.0
C740 C 0.474 0.09089 0.27185 0.0
C741 C 0.49753 0.0698 0.28007 0.0
C742 C 0.39524 1.00862 0.29301 0.0
C743 C 0.39896 0.98767 0.29218 0.0
C744 C 0.37763 0.0111 0.28156 0.0
C745 C 0.38499 0.96956 0.27993 0.0
C746 C 0.36404 0.99259 0.26945 0.0
N747 N 0.36796 0.97237 0.26891 0.0
C748 C 0.45138 0.99806 0.27481 0.0
C749 C 0.44197 0.0291 0.26279 0.0
C750 C 0.45797 0.99327 0.25565 0.0
N751 N 0.44441 0.0163 0.27828 0.0
C752 C 0.44867 0.02515 0.24345 0.0
C753 C 0.45741 1.00741 0.23991 0.0
H754 H 0.45215 0.9873 0.28683 0.0
H755 H 0.43549 0.0429 0.26571 0.0
C756 C 0.4167 0.09523 0.33236 0.0
N757 N 0.4153 0.07851 0.31746 0.0
C758 C 0.4052 0.11044 0.3294 0.0
C759 C 0.3921 0.09136 0.29554 0.0
C760 C 0.40383 0.07665 0.29914 0.0
C761 C 0.3923 0.1082 0.31097 0.0
H762 H 0.42592 0.0961 0.34684 0.0
H763 H 0.40316 0.06313 0.28765 0.0
O764 O 0.44166 1.00875 0.32847 0.0
O765 O 0.42675 0.04542 0.35072 0.0
O766 O 0.45495 0.05787 0.31504 0.0
O767 O 0.40846 0.02659 0.30519 0.0
H768 H 0.42694 0.96433 0.32727 0.0
H769 H 0.48335 0.02017 0.32567 0.0
H770 H 0.44892 0.93844 0.32421 0.0
H771 H 0.50431 0.99331 0.32248 0.0
H772 H 0.35924 0.04927 0.35338 0.0
H773 H 0.42906 0.05823 0.39035 0.0
H774 H 0.38797 0.04173 0.33416 0.0
H775 H 0.39954 0.06554 0.40864 0.0
H776 H 0.49857 0.02283 0.39316 0.0
H777 H 0.52084 0.09019 0.3741 0.0
H778 H 0.34297 0.96494 0.32818 0.0
H779 H 0.39162 0.94559 0.36292 0.0
H780 H 0.44753 0.08724 0.29034 0.0
H781 H 0.49029 0.04913 0.3053 0.0
H782 H 0.46971 0.1027 0.26234 0.0
H783 H 0.51165 0.06513 0.27699 0.0
H784 H 0.41238 0.98533 0.30097 0.0
H785 H 0.37438 0.02713 0.28212 0.0
H786 H 0.38767 0.95326 0.27922 0.0
H787 H 0.35033 0.99428 0.26054 0.0
H788 H 0.4639 0.97894 0.25334 0.0
H789 H 0.44785 0.03646 0.23175 0.0
H790 H 0.40593 0.12337 0.34156 0.0
H791 H 0.38217 0.08881 0.28124 0.0
Li792 Li 0.31088 0.22008 0.54782 0.0
Li793 Li 0.32283 0.19095 0.52905 0.0
Li794 Li 0.30952 0.21792 0.50755 0.0
Li795 Li 0.28514 0.18793 0.527 0.0
C796 C 0.34864 0.24564 0.53258 0.0
N797 N 0.37622 0.28867 0.54008 0.0
C798 C 0.36893 0.24912 0.54227 0.0
C799 C 0.34243 0.26398 0.52657 0.0
C800 C 0.38263 0.27102 0.54596 0.0
C801 C 0.35658 0.28563 0.53054 0.0
C802 C 0.31192 0.17499 0.56413 0.0
C803 C 0.31782 0.13964 0.57088 0.0
N804 N 0.32988 0.14962 0.5885 0.0
C805 C 0.32441 0.18488 0.58231 0.0
C806 C 0.30859 0.15216 0.55838 0.0
C807 C 0.33331 0.17177 0.59443 0.0
C808 C 0.29697 0.22877 0.58725 0.0
N809 N 0.31363 0.23672 0.57563 0.0
C810 C 0.33369 0.25967 0.60555 0.0
C811 C 0.33176 0.25218 0.58443 0.0
C812 C 0.31679 0.25144 0.61795 0.0
C813 C 0.29809 0.23609 0.60825 0.0
H814 H 0.28308 0.21569 0.58053 0.0
H815 H 0.34514 0.25804 0.57541 0.0
C816 C 0.34275 0.15743 0.51644 0.0
N817 N 0.34401 0.17507 0.53036 0.0
C818 C 0.35747 0.14528 0.51813 0.0
C819 C 0.3749 0.17002 0.5481 0.0
C820 C 0.35987 0.18167 0.54583 0.0
C821 C 0.37377 0.15137 0.53425 0.0
H822 H 0.33019 0.15261 0.50412 0.0
H823 H 0.36066 0.19583 0.55664 0.0
C824 C 0.27551 0.2331 0.53485 0.0
N825 N 0.25207 0.25851 0.55237 0.0
C826 C 0.2593 0.22334 0.5472 0.0
C827 C 0.27967 0.25576 0.53127 0.0
C828 C 0.24768 0.23647 0.55596 0.0
C829 C 0.26768 0.26833 0.5403 0.0
C830 C 0.28729 0.16797 0.49181 0.0
C831 C 0.27474 0.17421 0.47668 0.0
C832 C 0.28327 0.14527 0.49517 0.0
C833 C 0.25847 0.1576 0.46505 0.0
C834 C 0.26682 0.12917 0.48324 0.0
N835 N 0.25487 0.13561 0.46855 0.0
C836 C 0.3193 0.21765 0.46566 0.0
C837 C 0.30675 0.24856 0.47412 0.0
C838 C 0.31972 0.22232 0.44487 0.0
N839 N 0.31248 0.23037 0.47989 0.0
C840 C 0.30737 0.25413 0.45343 0.0
C841 C 0.31349 0.24063 0.43829 0.0
H842 H 0.32376 0.20324 0.4703 0.0
H843 H 0.30115 0.25848 0.48538 0.0
C844 C 0.2521 0.15031 0.53805 0.0
N845 N 0.25645 0.16803 0.52624 0.0
C846 C 0.23119 0.13671 0.53885 0.0
C847 C 0.2195 0.15979 0.51533 0.0
C848 C 0.24066 0.1728 0.51481 0.0
C849 C 0.2145 0.14159 0.52765 0.0
H850 H 0.26477 0.14703 0.5473 0.0
H851 H 0.24447 0.18708 0.50567 0.0
O852 O 0.33496 0.22436 0.52894 0.0
O853 O 0.30343 0.18765 0.5518 0.0
O854 O 0.28709 0.22052 0.52615 0.0
O855 O 0.30287 0.18407 0.50379 0.0
H856 H 0.37401 0.23507 0.54695 0.0
H857 H 0.32686 0.2615 0.51892 0.0
H858 H 0.39836 0.27399 0.55351 0.0
H859 H 0.35196 0.3 0.52601 0.0
H860 H 0.31548 0.12202 0.56651 0.0
H861 H 0.32743 0.20253 0.58696 0.0
H862 H 0.29933 0.14428 0.5442 0.0
H863 H 0.34305 0.17924 0.60849 0.0
H864 H 0.34846 0.27154 0.6122 0.0
H865 H 0.28476 0.22884 0.61707 0.0
H866 H 0.35578 0.13096 0.50716 0.0
H867 H 0.38733 0.17564 0.56056 0.0
H868 H 0.25587 0.20586 0.55021 0.0
H869 H 0.29199 0.26358 0.52162 0.0
H870 H 0.23518 0.22914 0.56565 0.0
H871 H 0.27077 0.28589 0.53769 0.0
H872 H 0.27727 0.19172 0.47416 0.0
H873 H 0.29256 0.14014 0.50702 0.0
H874 H 0.2486 0.1622 0.45334 0.0
H875 H 0.2635 0.11156 0.48573 0.0
H876 H 0.32473 0.21147 0.43395 0.0
H877 H 0.30229 0.26833 0.44917 0.0
H878 H 0.22806 0.12305 0.54876 0.0
H879 H 0.20715 0.16407 0.50633 0.0
Li880 Li 0.18982 0.04765 0.81401 0.0
Li881 Li 0.16545 0.0244 0.83457 0.0
Li882 Li 0.18554 1.00795 0.813 0.0
Li883 Li 0.15592 0.02208 0.79815 0.0
C884 C 0.20643 0.04457 0.85351 0.0
N885 N 0.22611 0.07297 0.88787 0.0
C886 C 0.19871 0.06215 0.86029 0.0
C887 C 0.22413 0.0414 0.86424 0.0
C888 C 0.20888 0.07633 0.87768 0.0
C889 C 0.23387 0.05595 0.88157 0.0
C890 C 0.14802 0.06127 0.82073 0.0
C891 C 0.11314 0.0663 0.81829 0.0
N892 N 0.12183 0.0883 0.82531 0.0
C893 C 0.1566 0.08396 0.82785 0.0
C894 C 0.1261 0.05238 0.81583 0.0
C895 C 0.1431 0.09733 0.8301 0.0
C896 C 0.20181 0.08957 0.799 0.0
N897 N 0.20908 0.07624 0.81128 0.0
C898 C 0.24268 0.10433 0.81814 0.0
C899 C 0.22919 0.08295 0.82052 0.0
C900 C 0.23545 0.11872 0.80588 0.0
C901 C 0.21481 0.11093 0.79599 0.0
H902 H 0.18588 0.08351 0.7915 0.0
H903 H 0.23478 0.07176 0.82973 0.0
C904 C 0.16384 0.01339 0.87557 0.0
N905 N 0.15447 0.0225 0.86073 0.0
C906 C 0.15604 0.01133 0.89497 0.0
C907 C 0.12908 0.02793 0.88328 0.0
C908 C 0.1374 0.02967 0.86421 0.0
C909 C 0.13838 0.01858 0.89891 0.0
H910 H 0.17726 1.00755 0.87225 0.0
H911 H 0.13004 0.03651 0.85217 0.0
C912 C 0.20156 0.03653 0.77809 0.0
N913 N 0.23516 0.05925 0.75693 0.0
C914 C 0.19785 0.04702 0.76058 0.0
C915 C 0.22233 0.03751 0.7848 0.0
C916 C 0.21507 0.05844 0.7501 0.0
C917 C 0.23911 0.0491 0.7739 0.0
C918 C 0.14126 0.98321 0.82796 0.0
C919 C 0.14864 0.96874 0.83977 0.0
C920 C 0.1207 0.98463 0.82965 0.0
C921 C 0.13536 0.95606 0.85329 0.0
C922 C 0.10793 0.9717 0.84337 0.0
N923 N 0.11546 0.95782 0.85481 0.0
C924 C 0.20951 0.98155 0.82741 0.0
C925 C 0.20379 0.97955 0.79096 0.0
C926 C 0.22336 0.96858 0.82588 0.0
N927 N 0.20037 0.98695 0.81008 0.0
C928 C 0.21765 0.96668 0.78869 0.0
C929 C 0.2279 0.96145 0.80631 0.0
H930 H 0.20659 0.988 0.84238 0.0
H931 H 0.19639 0.98439 0.77751 0.0
C932 C 0.13619 0.03755 0.7666 0.0
N933 N 0.13425 0.0192 0.77722 0.0
C934 C 0.12038 0.03779 0.75162 0.0
C935 C 0.10065 1.00023 0.75896 0.0
C936 C 0.11704 1.00066 0.77372 0.0
C937 C 0.10217 0.01905 0.74773 0.0
H938 H 0.14999 0.05212 0.76998 0.0
H939 H 0.11591 0.98636 0.78257 0.0
O940 O 0.19676 0.03036 0.83654 0.0
O941 O 0.1611 0.04808 0.81799 0.0
O942 O 0.18502 0.02585 0.78895 0.0
O943 O 0.15426 0.99624 0.8151 0.0
H944 H 0.18497 0.06477 0.85231 0.0
H945 H 0.2303 0.02785 0.8592 0.0
H946 H 0.20306 0.08999 0.88309 0.0
H947 H 0.24761 0.0537 0.89 0.0
H948 H 0.09616 0.05961 0.81463 0.0
H949 H 0.17353 0.09121 0.83159 0.0
H950 H 0.11912 0.03486 0.81045 0.0
H951 H 0.14954 0.1149 0.83562 0.0
H952 H 0.25843 0.10964 0.82609 0.0
H953 H 0.20874 0.12116 0.78594 0.0
H954 H 0.16353 1.0039 0.90662 0.0
H955 H 0.11562 0.03404 0.88581 0.0
H956 H 0.18188 0.04643 0.75519 0.0
H957 H 0.2255 0.02973 0.79849 0.0
H958 H 0.21245 0.06671 0.73656 0.0
H959 H 0.25527 0.05012 0.77899 0.0
H960 H 0.16453 0.96748 0.83865 0.0
H961 H 0.11481 0.99588 0.82074 0.0
H962 H 0.14091 0.94489 0.86262 0.0
H963 H 0.09205 0.97278 0.84498 0.0
H964 H 0.23111 0.96499 0.83978 0.0
H965 H 0.22063 0.96124 0.77337 0.0
H966 H 0.12257 0.05245 0.74304 0.0
H967 H 0.08689 0.98549 0.75654 0.0
Li968 Li 0.27698 0.91406 0.01575 0.0
Li969 Li 0.29236 0.88226 0.01774 0.0
Li970 Li 0.31535 0.92037 0.01572 0.0
Li971 Li 0.29296 0.90017 0.98663 0.0
C972 C 0.30897 0.91828 0.05495 0.0
N973 N 0.33628 0.93842 0.08913 0.0
C974 C 0.32191 0.90692 0.06425 0.0
C975 C 0.30986 0.93985 0.06303 0.0
C976 C 0.33562 0.9174 0.08153 0.0
C977 C 0.32379 0.94976 0.08032 0.0
C978 C 0.25213 0.86479 1.00376 0.0
C979 C 0.23582 0.8247 0.99782 0.0
N980 N 0.22227 0.82582 0.01245 0.0
C981 C 0.23793 0.86557 0.01862 0.0
C982 C 0.25098 0.84423 0.99316 0.0
C983 C 0.22299 0.84567 0.02283 0.0
C984 C 0.24703 0.93676 0.01024 0.0
N985 N 0.25648 0.92713 0.02449 0.0
C986 C 0.23965 0.94101 0.0515 0.0
C987 C 0.2528 0.92857 0.04474 0.0
C988 C 0.23066 0.95217 0.03724 0.0
C989 C 0.23407 0.9496 0.01634 0.0
H990 H 0.25008 0.93497 0.99424 0.0
H991 H 0.26058 0.92066 0.05568 0.0
C992 C 0.30523 0.84483 0.02841 0.0
N993 N 0.291 0.85633 0.03176 0.0
C994 C 0.30835 0.8298 0.0423 0.0
C995 C 0.28128 0.83781 0.06212 0.0
C996 C 0.27875 0.85275 0.04791 0.0
C997 C 0.29685 0.8268 0.05983 0.0
H998 H 0.31528 0.84851 0.01587 0.0
H999 H 0.2682 0.8628 0.05066 0.0
C1000 C 0.30595 0.94657 0.98329 0.0
N1001 N 0.3238 0.97626 0.95504 0.0
C1002 C 0.32694 0.94958 0.97871 0.0
C1003 C 0.29408 0.95878 0.97354 0.0
C1004 C 0.33567 0.96463 0.96438 0.0
C1005 C 0.30337 0.97366 0.95928 0.0
C1006 C 0.32558 0.88294 0.98614 0.0
C1007 C 0.34585 0.89418 0.98064 0.0
C1008 C 0.31431 0.86213 0.97582 0.0
C1009 C 0.35436 0.88454 0.96468 0.0
C1010 C 0.32336 0.85306 0.95992 0.0
N1011 N 0.34302 0.86437 0.95471 0.0
C1012 C 0.35782 0.93118 0.02983 0.0
C1013 C 0.34533 0.96301 0.02806 0.0
C1014 C 0.37841 0.94491 0.03539 0.0
N1015 N 0.34197 0.94042 0.02581 0.0
C1016 C 0.36574 0.97745 0.03363 0.0
C1017 C 0.38267 0.9684 0.03693 0.0
H1018 H 0.35452 0.91311 0.02807 0.0
H1019 H 0.33227 0.9698 0.02493 0.0
C1020 C 0.27131 0.8823 0.94792 0.0
N1021 N 0.29034 0.89504 0.95732 0.0
C1022 C 0.26931 0.87585 0.92682 0.0
C1023 C 0.30626 0.89664 0.92534 0.0
C1024 C 0.3075 0.90273 0.94639 0.0
C1025 C 0.28713 0.88254 0.91538 0.0
H1026 H 0.25786 0.87651 0.95693 0.0
H1027 H 0.32251 0.91263 0.95409 0.0
O1028 O 0.2959 0.90858 0.03768 0.0
O1029 O 0.26706 0.88404 0.99961 0.0
O1030 O 0.29712 0.93212 0.99748 0.0
O1031 O 0.31683 0.89225 1.00154 0.0
H1032 H 0.32157 0.8903 0.05806 0.0
H1033 H 0.30011 0.94896 0.05585 0.0
H1034 H 0.3458 0.90885 0.08884 0.0
H1035 H 0.32474 0.96649 0.08669 0.0
H1036 H 0.23481 0.80866 0.98979 0.0
H1037 H 0.23856 0.88132 0.02696 0.0
H1038 H 0.26165 0.84336 0.98143 0.0
H1039 H 0.21199 0.84601 0.03438 0.0
H1040 H 0.23731 0.9427 0.06774 0.0
H1041 H 0.22711 0.9578 1.00493 0.0
H1042 H 0.3205 0.82162 0.04 0.0
H1043 H 0.27239 0.83635 0.07564 0.0
H1044 H 0.33632 0.9401 0.9858 0.0
H1045 H 0.27787 0.95684 0.97692 0.0
H1046 H 0.35186 0.96698 0.96063 0.0
H1047 H 0.29433 0.98317 0.95161 0.0
H1048 H 0.35483 0.9103 0.98842 0.0
H1049 H 0.29868 0.85317 0.97995 0.0
H1050 H 0.36997 0.89313 0.96017 0.0
H1051 H 0.31473 0.83705 0.95171 0.0
H1052 H 0.39098 0.93719 0.03749 0.0
H1053 H 0.36833 0.99545 0.03488 0.0
H1054 H 0.25419 0.86517 0.91968 0.0
H1055 H 0.3205 0.90188 0.91727 0.0
Li1056 Li 0.28676 0.37993 0.03624 0.0
Li1057 Li 0.30013 0.35338 0.05554 0.0
Li1058 Li 0.32444 0.38179 0.03824 0.0
Li1059 Li 0.30054 0.35021 0.01574 0.0
C1060 C 0.31998 0.39384 0.0789 0.0
N1061 N 0.34544 0.40775 0.11536 0.0
C1062 C 0.33613 0.38426 0.08376 0.0
C1063 C 0.3168 0.4105 0.09257 0.0
C1064 C 0.34882 0.39152 0.10227 0.0
C1065 C 0.32984 0.41731 0.11093 0.0
C1066 C 0.258 0.33351 0.04224 0.0
C1067 C 0.23188 0.29802 0.04582 0.0
N1068 N 0.22336 0.30821 0.06062 0.0
C1069 C 0.24889 0.34366 0.05736 0.0
C1070 C 0.24938 0.31053 0.03631 0.0
C1071 C 0.23143 0.33057 0.06653 0.0
C1072 C 0.25823 0.39868 0.015 0.0
N1073 N 0.26668 0.39689 0.0341 0.0
C1074 C 0.24779 0.42051 0.04929 0.0
C1075 C 0.26171 0.40743 0.05114 0.0
C1076 C 0.23903 0.42296 0.0297 0.0
C1077 C 0.24435 0.41165 0.01243 0.0
H1078 H 0.26247 0.39018 1.00169 0.0
H1079 H 0.26873 0.40588 0.06617 0.0
C1080 C 0.30427 0.32252 0.08799 0.0
N1081 N 0.29618 0.33934 0.08273 0.0
C1082 C 0.30308 0.3152 0.10802 0.0
C1083 C 0.28515 0.34233 0.11727 0.0
C1084 C 0.28668 0.34914 0.09709 0.0
C1085 C 0.29349 0.32513 0.12325 0.0
H1086 H 0.31212 0.31498 0.07685 0.0
H1087 H 0.28059 0.36273 0.09305 0.0
C1088 C 0.31804 0.40052 1.00441 0.0
N1089 N 0.34417 0.43642 0.98687 0.0
C1090 C 0.33031 0.39675 0.98864 0.0
C1091 C 0.31893 0.42249 0.01118 0.0
C1092 C 0.34346 0.41515 0.97999 0.0
C1093 C 0.33228 0.44044 1.00213 0.0
C1094 C 0.32526 0.32847 0.03832 0.0
C1095 C 0.34419 0.32557 0.04656 0.0
C1096 C 0.30835 0.30971 0.03083 0.0
C1097 C 0.34585 0.30382 0.04728 0.0
C1098 C 0.31063 0.28824 0.0318 0.0
N1099 N 0.32917 0.28577 0.03995 0.0
C1100 C 0.35962 0.42257 0.04869 0.0
C1101 C 0.36603 0.3937 0.02706 0.0
C1102 C 0.38057 0.43618 0.04788 0.0
N1103 N 0.35287 0.40168 0.03848 0.0
C1104 C 0.38692 0.40679 0.02562 0.0
C1105 C 0.39464 0.42829 0.03631 0.0
H1106 H 0.34877 0.42867 0.05747 0.0
H1107 H 0.36016 0.37717 0.01885 0.0
C1108 C 0.28235 0.33613 0.9739 0.0
N1109 N 0.29864 0.33526 0.98732 0.0
C1110 C 0.28173 0.32955 0.95275 0.0
C1111 C 0.31461 0.32098 0.95919 0.0
C1112 C 0.31464 0.32783 0.98028 0.0
C1113 C 0.29806 0.3219 0.94484 0.0
H1114 H 0.27012 0.34277 0.97948 0.0
H1115 H 0.32787 0.32784 0.99089 0.0
O1116 O 0.30719 0.38689 0.06095 0.0
O1117 O 0.27528 0.34603 0.03332 0.0
O1118 O 0.30559 0.3828 0.01353 0.0
O1119 O 0.32342 0.34964 0.03759 0.0
H1120 H 0.33884 0.37133 0.07341 0.0
H1121 H 0.30437 0.41808 0.08903 0.0
H1122 H 0.36135 0.38423 0.10624 0.0
H1123 H 0.32755 0.43018 0.12166 0.0
H1124 H 0.22507 0.28022 0.04142 0.0
H1125 H 0.25538 0.36141 0.06211 0.0
H1126 H 0.25605 0.30244 0.02445 0.0
H1127 H 0.22432 0.33819 0.07835 0.0
H1128 H 0.24438 0.42908 0.06302 0.0
H1129 H 0.23783 0.41277 0.99705 0.0
H1130 H 0.31017 0.30218 0.11161 0.0
H1131 H 0.27736 0.3505 0.12805 0.0
H1132 H 0.32985 0.37982 0.98332 0.0
H1133 H 0.3096 0.42565 0.02347 0.0
H1134 H 0.35314 0.41251 0.96786 0.0
H1135 H 0.33324 0.45755 0.00729 0.0
H1136 H 0.35743 0.33997 0.0524 0.0
H1137 H 0.29369 0.3117 0.02425 0.0
H1138 H 0.36038 0.3013 0.05366 0.0
H1139 H 0.29766 0.27356 0.02606 0.0
H1140 H 0.38575 0.45253 0.0565 0.0
H1141 H 0.39686 0.4001 0.01606 0.0
H1142 H 0.26881 0.33124 0.94261 0.0
H1143 H 0.32754 0.31513 0.95422 0.0
Li1144 Li 0.81527 0.1631 0.07959 0.0
Li1145 Li 0.82069 0.14016 0.05114 0.0
Li1146 Li 0.81527 0.17589 0.04591 0.0
Li1147 Li 0.78652 0.14496 0.05385 0.0
C1148 C 0.85743 0.1682 0.07207 0.0
N1149 N 0.89355 0.16336 0.09236 0.0
C1150 C 0.85573 0.15254 0.08673 0.0
C1151 C 0.8775 0.1814 0.06775 0.0
C1152 C 0.87418 0.15034 0.09681 0.0
C1153 C 0.89557 0.17871 0.07817 0.0
C1154 C 0.79194 0.10782 0.07141 0.0
C1155 C 0.77684 0.07271 0.05052 0.0
N1156 N 0.77225 0.06196 0.0679 0.0
C1157 C 0.78708 0.09642 0.08905 0.0
C1158 C 0.78679 0.09588 0.05197 0.0
C1159 C 0.77713 0.07324 0.08696 0.0
C1160 C 0.80558 0.1621 0.12031 0.0
N1161 N 0.82083 0.17225 0.10807 0.0
C1162 C 0.83982 0.19814 0.13615 0.0
C1163 C 0.83798 0.18966 0.11558 0.0
C1164 C 0.8238 0.18865 0.14897 0.0
C1165 C 0.80679 0.17001 0.14097 0.0
H1166 H 0.79198 0.1485 0.11374 0.0
H1167 H 0.84975 0.19757 0.10541 0.0
C1168 C 0.8402 0.12016 0.02224 0.0
N1169 N 0.83487 0.11969 0.042 0.0
C1170 C 0.85017 0.10501 0.0143 0.0
C1171 C 0.84893 0.08923 0.04727 0.0
C1172 C 0.83896 0.10466 0.05455 0.0
C1173 C 0.85475 0.08937 0.02692 0.0
H1174 H 0.83674 0.13236 0.0127 0.0
H1175 H 0.83451 0.10468 0.07022 0.0
C1176 C 0.79743 0.1973 0.07576 0.0
N1177 N 0.80367 0.23951 0.09554 0.0
C1178 C 0.78037 0.20314 0.08359 0.0
C1179 C 0.81768 0.21293 0.07799 0.0
C1180 C 0.78384 0.22457 0.09354 0.0
C1181 C 0.8205 0.23418 0.08804 0.0
C1182 C 0.79091 0.15051 0.01219 0.0
C1183 C 0.77608 0.16235 0.01445 0.0
C1184 C 0.79436 0.14288 0.99247 0.0
C1185 C 0.765 0.16639 0.99693 0.0
C1186 C 0.78296 0.14727 0.97533 0.0
N1187 N 0.76865 0.15885 0.9779 0.0
C1188 C 0.83676 0.19995 0.0154 0.0
C1189 C 0.80831 0.21258 0.02636 0.0
C1190 C 0.83825 0.21261 0.99841 0.0
N1191 N 0.82155 0.19968 0.02855 0.0
C1192 C 0.80926 0.22549 0.00962 0.0
C1193 C 0.82383 0.2249 0.99495 0.0
H1194 H 0.8467 0.18908 0.01732 0.0
H1195 H 0.79583 0.21143 0.03656 0.0
C1196 C 0.74531 0.1343 0.0651 0.0
N1197 N 0.75715 0.13027 0.04988 0.0
C1198 C 0.72368 0.12297 0.06403 0.0
C1199 C 0.7268 0.10393 0.03138 0.0
C1200 C 0.74842 0.11556 0.03315 0.0
C1201 C 0.71427 0.10738 0.04712 0.0
H1202 H 0.75281 0.14601 0.07825 0.0
H1203 H 0.75831 0.11246 0.02139 0.0
O1204 O 0.83967 0.17068 0.06183 0.0
O1205 O 0.8016 0.13055 0.07334 0.0
O1206 O 0.79427 0.17619 0.06641 0.0
O1207 O 0.80244 0.14683 0.02904 0.0
H1208 H 0.84038 0.14218 0.09035 0.0
H1209 H 0.87907 0.19359 0.05642 0.0
H1210 H 0.87309 0.13828 0.10818 0.0
H1211 H 0.91121 0.18881 0.07496 0.0
H1212 H 0.77277 0.06328 0.03558 0.0
H1213 H 0.79097 0.10543 0.10421 0.0
H1214 H 0.79046 0.10436 0.03813 0.0
H1215 H 0.77327 0.06421 0.10049 0.0
H1216 H 0.85325 0.21245 0.14178 0.0
H1217 H 0.79394 0.16244 0.15022 0.0
H1218 H 0.85433 0.10559 0.99849 0.0
H1219 H 0.85254 0.07773 0.05762 0.0
H1220 H 0.76462 0.19119 0.08206 0.0
H1221 H 0.8311 0.20871 0.07213 0.0
H1222 H 0.77078 0.2293 0.09969 0.0
H1223 H 0.83608 0.24641 0.08991 0.0
H1224 H 0.77324 0.16852 0.02953 0.0
H1225 H 0.80578 0.13373 0.9904 0.0
H1226 H 0.75355 0.1756 0.99848 0.0
H1227 H 0.78552 0.14151 0.95998 0.0
H1228 H 0.84981 0.21185 0.98752 0.0
H1229 H 0.79759 0.23437 0.00735 0.0
H1230 H 0.71444 0.1262 0.07638 0.0
H1231 H 0.72011 0.09184 0.01825 0.0
Li1232 Li 0.15846 0.54325 0.2536 0.0
Li1233 Li 0.12982 0.51855 0.26879 0.0
Li1234 Li 0.15703 0.50398 0.25399 0.0
Li1235 Li 0.13025 0.51473 0.23289 0.0
C1236 C 0.16536 0.5386 0.29661 0.0
N1237 N 0.17564 0.56323 0.33459 0.0
C1238 C 0.16201 0.55965 0.29939 0.0
C1239 C 0.1741 0.53017 0.31316 0.0
C1240 C 0.16726 0.57182 0.31868 0.0
C1241 C 0.17914 0.54284 0.33224 0.0
C1242 C 0.11295 0.55033 0.25623 0.0
C1243 C 0.0769 0.54575 0.26454 0.0
N1244 N 0.08224 0.56807 0.27068 0.0
C1245 C 0.11805 0.57324 0.26264 0.0
C1246 C 0.09218 0.53648 0.25717 0.0
C1247 C 0.10232 0.58188 0.26989 0.0
C1248 C 0.17518 0.58965 0.2468 0.0
N1249 N 0.17905 0.57186 0.25538 0.0
C1250 C 0.21284 0.5948 0.27057 0.0
C1251 C 0.19767 0.57387 0.26652 0.0
C1252 C 0.20889 0.61369 0.26274 0.0
C1253 C 0.19004 0.61092 0.25028 0.0
H1254 H 0.16039 0.5874 0.23765 0.0
H1255 H 0.20046 0.55926 0.27275 0.0
C1256 C 0.10139 0.49401 0.29515 0.0
N1257 N 0.11236 0.51515 0.29101 0.0
C1258 C 0.08843 0.49082 0.31149 0.0
C1259 C 0.09856 0.53119 0.31897 0.0
C1260 C 0.11121 0.53357 0.30258 0.0
C1261 C 0.0869 0.50962 0.32356 0.0
H1262 H 0.1028 0.47963 0.28583 0.0
H1263 H 0.11995 0.55019 0.29904 0.0
C1264 C 0.17544 0.5366 0.2197 0.0
N1265 N 0.20443 0.56751 0.19937 0.0
C1266 C 0.16845 0.54949 0.20574 0.0
C1267 C 0.19716 0.53942 0.22333 0.0
C1268 C 0.18336 0.56502 0.1956 0.0
C1269 C 0.21157 0.55515 0.2129 0.0
C1270 C 0.11287 0.47283 0.23898 0.0
C1271 C 0.12161 0.4605 0.22533 0.0
C1272 C 0.09082 0.46782 0.2389 0.0
C1273 C 0.10808 0.44344 0.21164 0.0
C1274 C 0.07783 0.45062 0.22497 0.0
N1275 N 0.08666 0.43891 0.21174 0.0
C1276 C 0.17717 0.47862 0.27557 0.0
C1277 C 0.18507 0.48112 0.24066 0.0
C1278 C 0.19278 0.46825 0.27951 0.0
N1279 N 0.17413 0.48534 0.2566 0.0
C1280 C 0.20067 0.47048 0.2438 0.0
C1281 C 0.20509 0.46449 0.26361 0.0
H1282 H 0.16803 0.48218 0.28782 0.0
H1283 H 0.18218 0.48673 0.22572 0.0
C1284 C 0.09341 0.50687 0.20545 0.0
N1285 N 0.11399 0.5069 0.20732 0.0
C1286 C 0.08189 0.50178 0.18629 0.0
C1287 C 0.11287 0.49636 0.17142 0.0
C1288 C 0.12367 0.50122 0.19094 0.0
C1289 C 0.09182 0.49709 0.16885 0.0
H1290 H 0.08596 0.51102 0.21873 0.0
H1291 H 0.13996 0.50102 0.19298 0.0
O1292 O 0.16077 0.52657 0.27768 0.0
O1293 O 0.12819 0.54162 0.24903 0.0
O1294 O 0.16112 0.52176 0.23018 0.0
O1295 O 0.12587 0.49005 0.25203 0.0
H1296 H 0.15524 0.56648 0.28683 0.0
H1297 H 0.17707 0.51407 0.31134 0.0
H1298 H 0.16465 0.58808 0.32102 0.0
H1299 H 0.18588 0.53648 0.34517 0.0
H1300 H 0.06085 0.53515 0.26555 0.0
H1301 H 0.13402 0.58425 0.26218 0.0
H1302 H 0.08807 0.51861 0.253 0.0
H1303 H 0.10609 0.59956 0.27494 0.0
H1304 H 0.22737 0.59625 0.27992 0.0
H1305 H 0.1865 0.62516 0.24396 0.0
H1306 H 0.07973 0.47391 0.31463 0.0
H1307 H 0.09827 0.54614 0.3282 0.0
H1308 H 0.1517 0.54773 0.20298 0.0
H1309 H 0.20285 0.52979 0.23429 0.0
H1310 H 0.17819 0.57518 0.18482 0.0
H1311 H 0.22844 0.55759 0.21562 0.0
H1312 H 0.13865 0.46428 0.22512 0.0
H1313 H 0.08381 0.47726 0.24932 0.0
H1314 H 0.11461 0.43386 0.20089 0.0
H1315 H 0.06074 0.44664 0.22464 0.0
H1316 H 0.19575 0.46416 0.29506 0.0
H1317 H 0.20947 0.46747 0.23101 0.0
H1318 H 0.06557 0.50211 0.18506 0.0
H1319 H 0.12127 0.49311 0.15839 0.0
Li1320 Li 0.79059 0.88374 0.53737 0.0
Li1321 Li 0.80548 0.85826 0.5563 0.0
Li1322 Li 0.82904 0.88772 0.53947 0.0
Li1323 Li 0.80604 0.85504 0.51686 0.0
C1324 C 0.82371 0.89957 0.57985 0.0
N1325 N 0.8491 0.91595 0.61603 0.0
C1326 C 0.84018 0.89075 0.58547 0.0
C1327 C 0.8202 0.91678 0.59258 0.0
C1328 C 0.85283 0.89923 0.60384 0.0
C1329 C 0.8332 0.92482 0.61083 0.0
C1330 C 0.76563 0.83507 0.54432 0.0
C1331 C 0.74727 0.79727 0.55172 0.0
N1332 N 0.73658 0.80561 0.56584 0.0
C1333 C 0.75435 0.84326 0.55878 0.0
C1334 C 0.76199 0.81189 0.54064 0.0
C1335 C 0.73978 0.82809 0.56955 0.0
C1336 C 0.7603 0.90122 0.51696 0.0
N1337 N 0.76945 0.89942 0.53575 0.0
C1338 C 0.74916 0.9207 0.55223 0.0
C1339 C 0.76419 0.90887 0.55324 0.0
C1340 C 0.73938 0.92286 0.53302 0.0
C1341 C 0.74519 0.91287 0.51524 0.0
H1342 H 0.76487 0.89371 0.50327 0.0
H1343 H 0.77164 0.90717 0.56802 0.0
C1344 C 0.80827 0.82582 0.58796 0.0
N1345 N 0.80156 0.84374 0.58327 0.0
C1346 C 0.80648 0.81792 0.60776 0.0
C1347 C 0.79066 0.84664 0.61785 0.0
C1348 C 0.79266 0.85392 0.59787 0.0
C1349 C 0.79771 0.82841 0.62329 0.0
H1350 H 0.8153 0.81769 0.57651 0.0
H1351 H 0.78722 0.86804 0.59412 0.0
C1352 C 0.82153 0.90545 0.50531 0.0
N1353 N 0.84657 0.94171 0.48734 0.0
C1354 C 0.83524 0.90219 0.49075 0.0
C1355 C 0.82045 0.9271 0.51067 0.0
C1356 C 0.8478 0.92076 0.48186 0.0
C1357 C 0.83326 0.94522 0.50142 0.0
C1358 C 0.83432 0.83673 0.54158 0.0
C1359 C 0.85297 0.83759 0.55336 0.0
C1360 C 0.82095 0.81604 0.53277 0.0
C1361 C 0.85781 0.81762 0.5563 0.0
C1362 C 0.82636 0.79645 0.53604 0.0
N1363 N 0.84452 0.79764 0.54766 0.0
C1364 C 0.86023 0.93073 0.54878 0.0
C1365 C 0.87222 0.90318 0.53079 0.0
C1366 C 0.88017 0.94665 0.54864 0.0
N1367 N 0.85669 0.90944 0.54005 0.0
C1368 C 0.89234 0.91863 0.53013 0.0
C1369 C 0.89659 0.94069 0.53925 0.0
H1370 H 0.84753 0.93542 0.55572 0.0
H1371 H 0.86891 0.88619 0.5238 0.0
C1372 C 0.7898 0.84128 0.4741 0.0
N1373 N 0.80544 0.84071 0.4885 0.0
C1374 C 0.7909 0.83547 0.45303 0.0
C1375 C 0.82395 0.82804 0.46171 0.0
C1376 C 0.82228 0.8341 0.48259 0.0
C1377 C 0.80835 0.82904 0.44632 0.0
H1378 H 0.77686 0.84725 0.47884 0.0
H1379 H 0.83498 0.83437 0.49396 0.0
O1380 O 0.81109 0.89151 0.56195 0.0
O1381 O 0.78039 0.84974 0.5341 0.0
O1382 O 0.80965 0.88763 0.51471 0.0
O1383 O 0.82933 0.8561 0.53856 0.0
H1384 H 0.84314 0.87746 0.57581 0.0
H1385 H 0.80756 0.92385 0.58841 0.0
H1386 H 0.8656 0.89252 0.6084 0.0
H1387 H 0.83065 0.93813 0.62084 0.0
H1388 H 0.74434 0.77929 0.54909 0.0
H1389 H 0.75705 0.86115 0.56185 0.0
H1390 H 0.77039 0.80524 0.52936 0.0
H1391 H 0.73107 0.83421 0.5809 0.0
H1392 H 0.74506 0.92783 0.56639 0.0
H1393 H 0.73838 0.91432 0.50007 0.0
H1394 H 0.81239 0.80394 0.61095 0.0
H1395 H 0.78344 0.85519 0.62887 0.0
H1396 H 0.83635 0.88554 0.48656 0.0
H1397 H 0.81001 0.92988 0.52204 0.0
H1398 H 0.85859 0.91853 0.47065 0.0
H1399 H 0.83268 0.9621 0.50548 0.0
H1400 H 0.86358 0.8535 0.56015 0.0
H1401 H 0.80661 0.81516 0.52343 0.0
H1402 H 0.87216 0.818 0.56543 0.0
H1403 H 0.81613 0.78032 0.52934 0.0
H1404 H 0.88264 0.96353 0.55564 0.0
H1405 H 0.90455 0.91324 0.5229 0.0
H1406 H 0.77856 0.837 0.44205 0.0
H1407 H 0.83761 0.82296 0.4577 0.0
Li1408 Li 0.95976 0.05445 0.25727 0.0
Li1409 Li 0.92849 0.028 0.23834 0.0
Li1410 Li 0.95274 0.05745 0.22166 0.0
Li1411 Li 0.9294 0.06654 0.24518 0.0
C1412 C 0.97278 0.02138 0.24105 0.0
N1413 N 1.00147 1.00106 0.25715 0.0
C1414 C 0.96566 0.99956 0.2472 0.0
C1415 C 0.99456 0.03278 0.24301 0.0
C1416 C 0.9804 0.98959 0.2553 0.0
C1417 C 1.00878 0.02225 0.25123 0.0
C1418 C 0.92014 0.05045 0.28111 0.0
C1419 C 0.88777 0.05198 0.29554 0.0
N1420 N 0.89938 0.06417 0.3126 0.0
C1421 C 0.93174 0.06296 0.29881 0.0
C1422 C 0.89796 0.04483 0.27949 0.0
C1423 C 0.92094 0.06972 0.31456 0.0
C1424 C 0.99867 0.07067 0.28413 0.0
N1425 N 0.97952 0.05488 0.27948 0.0
C1426 C 0.98693 0.03239 0.30531 0.0
C1427 C 0.97332 0.03626 0.28993 0.0
C1428 C 1.00701 0.04801 0.3102 0.0
C1429 C 1.01279 0.0676 0.29975 0.0
H1430 H 1.00314 0.08529 0.27548 0.0
H1431 H 0.95794 0.02408 0.28584 0.0
C1432 C 0.91013 0.98265 0.22063 0.0
N1433 N 0.91147 0.99769 0.23708 0.0
C1434 C 0.89855 0.96007 0.22129 0.0
C1435 C 0.8903 0.96909 0.25581 0.0
C1436 C 0.90195 0.99132 0.25447 0.0
C1437 C 0.88849 0.95312 0.23912 0.0
H1438 H 0.91845 0.98807 0.20723 0.0
H1439 H 0.90393 1.00336 0.2676 0.0
C1440 C 0.97104 0.09918 0.23367 0.0
N1441 N 0.99247 0.13223 0.20996 0.0
C1442 C 0.96046 0.11284 0.22434 0.0
C1443 C 0.99252 0.10239 0.23106 0.0
C1444 C 0.97158 0.12946 0.2124 0.0
C1445 C 1.00307 0.11916 0.21896 0.0
C1446 C 0.90584 0.03268 0.20611 0.0
C1447 C 0.91048 0.02478 0.18695 0.0
C1448 C 0.88548 0.02402 0.21263 0.0
C1449 C 0.89463 1.00842 0.17459 0.0
C1450 C 0.87009 1.00764 0.19985 0.0
N1451 N 0.87494 1.00025 0.18124 0.0
C1452 C 0.98265 0.05847 0.19314 0.0
C1453 C 0.95527 0.07366 0.18215 0.0
C1454 C 0.99122 0.06133 0.17423 0.0
N1455 N 0.96492 0.06439 0.19664 0.0
C1456 C 0.96311 0.07649 0.16279 0.0
C1457 C 0.98118 0.07003 0.15868 0.0
H1458 H 0.98978 0.05087 0.20479 0.0
H1459 H 0.94107 0.07808 0.18541 0.0
C1460 C 0.91815 0.09993 0.26883 0.0
N1461 N 0.9123 0.08498 0.25188 0.0
C1462 C 0.90386 0.11048 0.27631 0.0
C1463 C 0.87852 0.09135 0.24777 0.0
C1464 C 0.89325 0.08109 0.24094 0.0
C1465 C 0.88353 0.10575 0.26601 0.0
H1466 H 0.93351 0.10275 0.27711 0.0
H1467 H 0.88923 0.06948 0.22728 0.0
O1468 O 0.95853 0.03163 0.23347 0.0
O1469 O 0.93043 0.04399 0.26534 0.0
O1470 O 0.96027 0.08245 0.24494 0.0
O1471 O 0.92118 0.0486 0.21852 0.0
H1472 H 0.94895 0.99044 0.24596 0.0
H1473 H 1.0004 0.04986 0.23884 0.0
H1474 H 0.97507 0.97277 0.26019 0.0
H1475 H 0.02562 0.03101 0.25305 0.0
H1476 H 0.87064 0.04791 0.2944 0.0
H1477 H 0.9489 0.06765 0.3003 0.0
H1478 H 0.88873 0.03533 0.26583 0.0
H1479 H 0.92972 0.07949 0.3283 0.0
H1480 H 0.98175 0.01734 0.31336 0.0
H1481 H 0.02814 0.08006 0.3033 0.0
H1482 H 0.8976 0.9482 0.20814 0.0
H1483 H 0.88335 0.96435 0.27008 0.0
H1484 H 0.94379 0.11048 0.22615 0.0
H1485 H 1.00087 0.09181 0.23804 0.0
H1486 H 0.96359 0.1401 0.205 0.0
H1487 H 0.01966 0.12173 0.21667 0.0
H1488 H 0.92619 0.03095 0.18174 0.0
H1489 H 0.88168 0.02961 0.22755 0.0
H1490 H 0.89802 1.00213 0.15975 0.0
H1491 H 0.85432 1.00072 0.20476 0.0
H1492 H 1.00496 0.05579 0.17148 0.0
H1493 H 0.95497 0.08319 0.15108 0.0
H1494 H 0.90836 0.12145 0.29044 0.0
H1495 H 0.86326 0.08777 0.23904 0.0
Li1496 Li 0.31505 0.65458 0.58313 0.0
Li1497 Li 0.32397 0.63223 0.55482 0.0
Li1498 Li 0.31492 0.66612 0.54904 0.0
Li1499 Li 0.28787 0.63464 0.55677 0.0
C1500 C 0.35821 0.6633 0.57669 0.0
N1501 N 0.39511 0.66219 0.59831 0.0
C1502 C 0.35764 0.64683 0.59037 0.0
C1503 C 0.37755 0.67916 0.57399 0.0
C1504 C 0.37647 0.64656 0.60115 0.0
C1505 C 0.39603 0.67834 0.58508 0.0
C1506 C 0.29001 0.60082 0.57704 0.0
C1507 C 0.27048 0.56452 0.55995 0.0
N1508 N 0.2601 0.55924 0.57716 0.0
C1509 C 0.27922 0.59497 0.59458 0.0
C1510 C 0.28567 0.58543 0.5596 0.0
C1511 C 0.26413 0.57389 0.59433 0.0
C1512 C 0.30234 0.65687 0.62262 0.0
N1513 N 0.31932 0.66473 0.61154 0.0
C1514 C 0.33805 0.69011 0.6401 0.0
C1515 C 0.33706 0.68096 0.61984 0.0
C1516 C 0.32056 0.68256 0.65179 0.0
C1517 C 0.30269 0.66542 0.64295 0.0
H1518 H 0.28809 0.64477 0.61528 0.0
H1519 H 0.35005 0.68757 0.61051 0.0
C1520 C 0.35552 0.62007 0.53392 0.0
N1521 N 0.34117 0.61388 0.5481 0.0
C1522 C 0.36885 0.60706 0.52932 0.0
C1523 C 0.35243 0.58172 0.55417 0.0
C1524 C 0.33959 0.59531 0.55839 0.0
C1525 C 0.36738 0.58757 0.53952 0.0
H1526 H 0.35689 0.63537 0.52651 0.0
H1527 H 0.32858 0.59118 0.57011 0.0
C1528 C 0.29535 0.68652 0.57794 0.0
N1529 N 0.29925 0.72857 0.59697 0.0
C1530 C 0.27754 0.69152 0.58492 0.0
C1531 C 0.31517 0.70294 0.58065 0.0
C1532 C 0.27983 0.71288 0.59449 0.0
C1533 C 0.31681 0.72408 0.5903 0.0
C1534 C 0.30016 0.64146 0.51323 0.0
C1535 C 0.28174 0.64732 0.5081 0.0
C1536 C 0.31461 0.64157 0.49843 0.0
C1537 C 0.27819 0.65341 0.48828 0.0
C1538 C 0.31049 0.64779 0.47878 0.0
N1539 N 0.29254 0.65355 0.47416 0.0
C1540 C 0.33523 0.69563 0.51973 0.0
C1541 C 0.30167 0.69797 0.5288 0.0
C1542 C 0.33448 0.70864 0.50318 0.0
N1543 N 0.31861 0.69003 0.53167 0.0
C1544 C 0.30032 0.711 0.51263 0.0
C1545 C 0.3164 0.71564 0.49907 0.0
H1546 H 0.34825 0.6886 0.52208 0.0
H1547 H 0.2883 0.69262 0.53794 0.0
C1548 C 0.24572 0.6244 0.56511 0.0
N1549 N 0.25872 0.61936 0.55152 0.0
C1550 C 0.22385 0.61468 0.56178 0.0
C1551 C 0.2292 0.59449 0.53063 0.0
C1552 C 0.25102 0.60473 0.53453 0.0
C1553 C 0.21532 0.59947 0.54437 0.0
H1554 H 0.2524 0.63617 0.57843 0.0
H1555 H 0.26185 0.6011 0.524 0.0
O1556 O 0.3401 0.66387 0.56569 0.0
O1557 O 0.30453 0.62157 0.57676 0.0
O1558 O 0.29333 0.66546 0.56899 0.0
O1559 O 0.30419 0.63597 0.53272 0.0
H1560 H 0.34288 0.63442 0.59272 0.0
H1561 H 0.37825 0.69197 0.56341 0.0
H1562 H 0.37626 0.63393 0.61178 0.0
H1563 H 0.4111 0.69052 0.58314 0.0
H1564 H 0.26688 0.55253 0.54652 0.0
H1565 H 0.28249 0.6065 0.6083 0.0
H1566 H 0.29376 0.58974 0.54582 0.0
H1567 H 0.25564 0.56917 0.60779 0.0
H1568 H 0.35207 0.70342 0.64636 0.0
H1569 H 0.28868 0.65957 0.65126 0.0
H1570 H 0.38051 0.61249 0.51829 0.0
H1571 H 0.35067 0.56682 0.56234 0.0
H1572 H 0.2621 0.679 0.58302 0.0
H1573 H 0.32918 0.69943 0.57545 0.0
H1574 H 0.26618 0.71696 0.59998 0.0
H1575 H 0.33204 0.7369 0.59253 0.0
H1576 H 0.27053 0.64767 0.51943 0.0
H1577 H 0.32891 0.63707 0.50209 0.0
H1578 H 0.26411 0.65819 0.48417 0.0
H1579 H 0.32161 0.64809 0.46722 0.0
H1580 H 0.34709 0.71177 0.49289 0.0
H1581 H 0.28619 0.71621 0.50998 0.0
H1582 H 0.21371 0.61928 0.57259 0.0
H1583 H 0.22328 0.58269 0.51717 0.0
Li1584 Li 0.42784 0.53144 0.75086 0.0
Li1585 Li 0.4607 0.55801 0.76522 0.0
Li1586 Li 0.43008 0.57028 0.75668 0.0
Li1587 Li 0.44891 0.55882 0.73001 0.0
C1588 C 0.43442 0.53707 0.7938 0.0
N1589 N 0.43743 0.5117 0.8264 0.0
C1590 C 0.44135 0.51804 0.79097 0.0
C1591 C 0.42898 0.54313 0.81324 0.0
C1592 C 0.44277 0.50546 0.80763 0.0
C1593 C 0.43062 0.53011 0.82952 0.0
C1594 C 0.47569 0.53298 0.73601 0.0
C1595 C 0.51216 0.5512 0.73003 0.0
N1596 N 0.51389 0.53115 0.72217 0.0
C1597 C 0.47783 0.51257 0.72789 0.0
C1598 C 0.49299 0.55247 0.73712 0.0
C1599 C 0.49727 0.51199 0.72097 0.0
C1600 C 0.4112 0.48545 0.73701 0.0
N1601 N 0.40933 0.50188 0.7508 0.0
C1602 C 0.38155 0.47578 0.76601 0.0
C1603 C 0.39476 0.49753 0.765 0.0
C1604 C 0.38337 0.45832 0.75227 0.0
C1605 C 0.39829 0.46336 0.73749 0.0
H1606 H 0.4229 0.4895 0.72585 0.0
H1607 H 0.39368 0.51087 0.77588 0.0
C1608 C 0.49154 0.58106 0.79737 0.0
N1609 N 0.48401 0.56158 0.78502 0.0
C1610 C 0.50609 0.58257 0.81428 0.0
C1611 C 0.5053 0.54422 0.80488 0.0
C1612 C 0.49107 0.54359 0.78806 0.0
C1613 C 0.51261 0.5637 0.81864 0.0
H1614 H 0.48555 0.59507 0.7946 0.0
H1615 H 0.48473 0.52822 0.77811 0.0
C1616 C 0.39628 0.54312 0.72863 0.0
N1617 N 0.35244 0.52947 0.72282 0.0
C1618 C 0.38615 0.53847 0.70871 0.0
C1619 C 0.3841 0.5408 0.74559 0.0
C1620 C 0.36398 0.53158 0.70609 0.0
C1621 C 0.36197 0.5339 0.74234 0.0
C1622 C 0.46119 0.60498 0.74288 0.0
C1623 C 0.44738 0.60555 0.72597 0.0
C1624 C 0.47618 0.62487 0.7514 0.0
C1625 C 0.44879 0.62605 0.71786 0.0
C1626 C 0.47709 0.64503 0.74284 0.0
N1627 N 0.46349 0.6452 0.72639 0.0
C1628 C 0.41196 0.59343 0.78489 0.0
C1629 C 0.40135 0.59493 0.74975 0.0
C1630 C 0.39632 0.60274 0.79117 0.0
N1631 N 0.4137 0.58915 0.76449 0.0
C1632 C 0.38548 0.60413 0.75531 0.0
C1633 C 0.38242 0.60745 0.77623 0.0
H1634 H 0.42198 0.58855 0.79621 0.0
H1635 H 0.40288 0.59109 0.73364 0.0
C1636 C 0.44644 0.5469 0.68783 0.0
N1637 N 0.45767 0.56238 0.70314 0.0
C1638 C 0.45362 0.54695 0.66815 0.0
C1639 C 0.48331 0.57941 0.68032 0.0
C1640 C 0.47561 0.57868 0.69973 0.0
C1641 C 0.47258 0.56303 0.66439 0.0
H1642 H 0.43238 0.53396 0.69117 0.0
H1643 H 0.48438 0.5906 0.71226 0.0
O1644 O 0.433 0.54982 0.77775 0.0
O1645 O 0.45661 0.53377 0.74255 0.0
O1646 O 0.418 0.54994 0.73135 0.0
O1647 O 0.46016 0.58518 0.75123 0.0
H1648 H 0.44565 0.51302 0.77609 0.0
H1649 H 0.42354 0.55775 0.81576 0.0
H1650 H 0.44814 0.49073 0.80562 0.0
H1651 H 0.42647 0.53464 0.84464 0.0
H1652 H 0.52566 0.56615 0.73076 0.0
H1653 H 0.46457 0.49734 0.7269 0.0
H1654 H 0.49165 0.56844 0.74332 0.0
H1655 H 0.49915 0.4963 0.71463 0.0
H1656 H 0.37052 0.47256 0.77786 0.0
H1657 H 0.40005 0.45036 0.72652 0.0
H1658 H 0.51153 0.59807 0.82422 0.0
H1659 H 0.50943 0.52907 0.80769 0.0
H1660 H 0.39535 0.54023 0.69541 0.0
H1661 H 0.39164 0.54444 0.76112 0.0
H1662 H 0.35593 0.52794 0.69075 0.0
H1663 H 0.35236 0.53211 0.75533 0.0
H1664 H 0.43574 0.59035 0.71909 0.0
H1665 H 0.48698 0.6247 0.7645 0.0
H1666 H 0.43821 0.62672 0.70476 0.0
H1667 H 0.48861 0.66055 0.74929 0.0
H1668 H 0.39442 0.60512 0.80746 0.0
H1669 H 0.37527 0.60794 0.74337 0.0
H1670 H 0.44506 0.53386 0.65637 0.0
H1671 H 0.49791 0.5922 0.67797 0.0
Li1672 Li 0.64808 0.03424 0.76555 0.0
Li1673 Li 0.67909 0.05839 0.75252 0.0
Li1674 Li 0.65414 0.02686 0.73155 0.0
Li1675 Li 0.6775 0.02001 0.75788 0.0
C1676 C 0.63324 0.06369 0.74808 0.0
N1677 N 0.6013 0.08178 0.75829 0.0
C1678 C 0.638 0.08662 0.75416 0.0
C1679 C 0.61213 0.05008 0.74673 0.0
C1680 C 0.62166 0.09543 0.75937 0.0
C1681 C 0.59624 0.05949 0.7521 0.0
C1682 C 0.69636 0.05166 0.79025 0.0
C1683 C 0.73463 0.06194 0.79306 0.0
N1684 N 0.73483 0.06644 0.81376 0.0
C1685 C 0.69694 0.05639 0.81154 0.0
C1686 C 0.71536 0.05446 0.7809 0.0
C1687 C 0.71654 0.06385 0.82316 0.0
C1688 C 0.61078 0.01643 0.7856 0.0
N1689 N 0.62841 0.0342 0.78486 0.0
C1690 C 0.61978 0.05376 0.81391 0.0
C1691 C 0.63302 0.05274 0.79838 0.0
C1692 C 0.60174 0.03544 0.81544 0.0
C1693 C 0.59698 0.01678 0.80086 0.0
H1694 H 0.60769 1.00189 0.77464 0.0
H1695 H 0.64721 0.06655 0.79725 0.0
C1696 C 0.71435 0.09681 0.7454 0.0
N1697 N 0.69747 0.08837 0.75648 0.0
C1698 C 0.72777 0.11863 0.75053 0.0
C1699 C 0.70652 0.12238 0.77865 0.0
C1700 C 0.69355 0.10055 0.77298 0.0
C1701 C 0.72388 0.13172 0.76734 0.0
H1702 H 0.71772 0.0866 0.73286 0.0
H1703 H 0.68035 0.09316 0.78186 0.0
C1704 C 0.63632 0.98526 0.74072 0.0
N1705 N 0.61535 0.94625 0.71629 0.0
C1706 C 0.64689 0.96952 0.73559 0.0
C1707 C 0.61502 0.98105 0.73359 0.0
C1708 C 0.63602 0.94992 0.72319 0.0
C1709 C 0.60472 0.96127 0.72119 0.0
C1710 C 0.69307 0.04535 0.7154 0.0
C1711 C 0.68265 0.05903 0.70581 0.0
C1712 C 0.71074 0.0415 0.70691 0.0
C1713 C 0.69012 0.06862 0.68793 0.0
C1714 C 0.71773 0.05142 0.68903 0.0
N1715 N 0.70736 0.06466 0.67998 0.0
C1716 C 0.62515 0.02571 0.69856 0.0
C1717 C 0.64491 0.99998 0.69324 0.0
C1718 C 0.61361 0.01827 0.67963 0.0
N1719 N 0.64029 0.01642 0.70504 0.0
C1720 C 0.63365 0.99191 0.67411 0.0
C1721 C 0.61774 1.00112 0.66713 0.0
H1722 H 0.62222 0.03916 0.70794 0.0
H1723 H 0.65727 0.99312 0.69874 0.0
C1724 C 0.68943 0.99315 0.78552 0.0
N1725 N 0.69379 1.00221 0.76734 0.0
C1726 C 0.70178 0.98067 0.7938 0.0
C1727 C 0.72284 0.98726 0.76445 0.0
C1728 C 0.71005 0.99957 0.75673 0.0
C1729 C 0.71876 0.97767 0.78323 0.0
H1730 H 0.67647 0.99585 0.79363 0.0
H1731 H 0.7131 1.00711 0.74236 0.0
O1732 O 0.6491 0.05472 0.74313 0.0
O1733 O 0.67724 0.04439 0.77872 0.0
O1734 O 0.64676 1.00464 0.75271 0.0
O1735 O 0.68602 0.03546 0.73282 0.0
H1736 H 0.65409 0.09759 0.75468 0.0
H1737 H 0.6081 0.03233 0.74191 0.0
H1738 H 0.62516 0.11313 0.7642 0.0
H1739 H 0.57989 0.04906 0.75138 0.0
H1740 H 0.74944 0.06418 0.78603 0.0
H1741 H 0.68236 0.05433 0.81898 0.0
H1742 H 0.71525 0.05094 0.76444 0.0
H1743 H 0.71723 0.06757 0.83966 0.0
H1744 H 0.62383 0.06844 0.82491 0.0
H1745 H 0.5833 1.00228 0.80182 0.0
H1746 H 0.74124 0.12506 0.74164 0.0
H1747 H 0.70283 0.13191 0.79161 0.0
H1748 H 0.66336 0.97246 0.74095 0.0
H1749 H 0.60659 0.99304 0.73734 0.0
H1750 H 0.64403 0.93765 0.71902 0.0
H1751 H 0.5883 0.9579 0.71542 0.0
H1752 H 0.66898 0.06231 0.712 0.0
H1753 H 0.719 0.03096 0.71407 0.0
H1754 H 0.6822 0.07923 0.68037 0.0
H1755 H 0.7314 0.04859 0.68232 0.0
H1756 H 0.60209 0.02647 0.67456 0.0
H1757 H 0.63745 0.9788 0.66485 0.0
H1758 H 0.69825 0.97366 0.80838 0.0
H1759 H 0.73559 0.98501 0.75569 0.0
Li1760 Li 0.80371 0.72251 0.04764 0.0
Li1761 Li 0.81633 0.69194 0.02846 0.0
Li1762 Li 0.80053 0.71834 0.00821 0.0
Li1763 Li 0.77842 0.69021 0.0274 0.0
C1764 C 0.84386 0.74281 0.03689 0.0
N1765 N 0.87754 0.77736 0.05576 0.0
C1766 C 0.86156 0.73815 0.04611 0.0
C1767 C 0.84332 0.76503 0.03714 0.0
C1768 C 0.87843 0.75586 0.0556 0.0
C1769 C 0.8605 0.78227 0.0468 0.0
C1770 C 0.78692 0.67522 0.06378 0.0
C1771 C 0.77632 0.63823 0.07597 0.0
N1772 N 0.76248 0.64452 0.08785 0.0
C1773 C 0.77262 0.68134 0.07614 0.0
C1774 C 0.78881 0.6535 0.06368 0.0
C1775 C 0.76039 0.66557 0.08818 0.0
C1776 C 0.79174 0.74491 0.08355 0.0
N1777 N 0.80801 0.73893 0.07537 0.0
C1778 C 0.82741 0.7465 0.10882 0.0
C1779 C 0.82574 0.73989 0.08762 0.0
C1780 C 0.81046 0.75172 0.11802 0.0
C1781 C 0.79263 0.75135 0.10479 0.0
H1782 H 0.77742 0.74334 0.07384 0.0
H1783 H 0.83825 0.73438 0.08121 0.0
C1784 C 0.8454 0.67074 0.01193 0.0
N1785 N 0.83734 0.67624 0.02953 0.0
C1786 C 0.8601 0.65852 0.0125 0.0
C1787 C 0.85829 0.65828 0.04935 0.0
C1788 C 0.84372 0.67058 0.04808 0.0
C1789 C 0.86656 0.65186 0.03137 0.0
H1790 H 0.84012 0.67553 0.99738 0.0
H1791 H 0.83734 0.67547 0.0619 0.0
C1792 C 0.77393 0.73933 0.01919 0.0
N1793 N 0.7645 0.77395 1.00031 0.0
C1794 C 0.7601 0.73468 1.0013 0.0
C1795 C 0.78284 0.76153 0.02759 0.0
C1796 C 0.75557 0.75243 0.99195 0.0
C1797 C 0.7779 0.77882 0.01779 0.0
C1798 C 0.78171 0.66522 0.99456 0.0
C1799 C 0.76265 0.66494 0.98384 0.0
C1800 C 0.787 0.64521 0.99568 0.0
C1801 C 0.74914 0.6446 0.97447 0.0
C1802 C 0.77307 0.62521 0.98606 0.0
N1803 N 0.75459 0.62532 0.97576 0.0
C1804 C 0.81131 0.75449 0.97933 0.0
C1805 C 0.79595 0.71759 0.96384 0.0
C1806 C 0.81311 0.76294 0.95975 0.0
N1807 N 0.80277 0.73206 0.98114 0.0
C1808 C 0.79725 0.72531 0.94404 0.0
C1809 C 0.806 0.74835 0.94153 0.0
H1810 H 0.81691 0.7659 0.99305 0.0
H1811 H 0.78952 0.69983 0.96526 0.0
C1812 C 0.7341 0.67886 0.03203 0.0
N1813 N 0.75017 0.66972 0.02927 0.0
C1814 C 0.71378 0.66519 0.03523 0.0
C1815 C 0.72673 0.63287 0.03248 0.0
C1816 C 0.74682 0.64716 0.02946 0.0
C1817 C 0.70988 0.64184 0.03557 0.0
H1818 H 0.73715 0.69685 0.03208 0.0
H1819 H 0.75984 0.64022 0.02772 0.0
O1820 O 0.82711 0.72569 0.02773 0.0
O1821 O 0.7987 0.69028 0.05156 0.0
O1822 O 0.779 0.72224 0.02821 0.0
O1823 O 0.79513 0.68496 1.00392 0.0
H1824 H 0.86223 0.72104 0.04602 0.0
H1825 H 0.82976 0.76891 0.03003 0.0
H1826 H 0.89221 0.75251 0.06286 0.0
H1827 H 0.86027 0.79954 0.04718 0.0
H1828 H 0.77754 0.62133 0.07596 0.0
H1829 H 0.77074 0.69797 0.07618 0.0
H1830 H 0.79955 0.64836 0.05395 0.0
H1831 H 0.74917 0.67004 0.09773 0.0
H1832 H 0.84174 0.74687 0.11797 0.0
H1833 H 0.77894 0.75484 0.11086 0.0
H1834 H 0.8659 0.65382 0.99824 0.0
H1835 H 0.86306 0.65386 0.06427 0.0
H1836 H 0.7531 0.71756 0.99463 0.0
H1837 H 0.79354 0.76538 0.04145 0.0
H1838 H 0.74501 0.74911 0.97802 0.0
H1839 H 0.78474 0.7961 0.02405 0.0
H1840 H 0.75821 0.68024 0.98298 0.0
H1841 H 0.80158 0.64505 1.00403 0.0
H1842 H 0.73429 0.64412 0.96622 0.0
H1843 H 0.77693 0.60959 0.98686 0.0
H1844 H 0.82034 0.78079 0.95902 0.0
H1845 H 0.79116 0.71319 0.93085 0.0
H1846 H 0.70123 0.67284 0.03734 0.0
H1847 H 0.72457 0.61503 0.03289 0.0
Li1848 Li 0.93471 0.55259 0.80571 0.0
Li1849 Li 0.96298 0.58086 0.8293 0.0
Li1850 Li 0.9311 0.58923 0.81268 0.0
Li1851 Li 0.95878 0.58572 0.79314 0.0
C1852 C 0.9218 0.55023 0.84451 0.0
N1853 N 0.90131 0.51544 0.86704 0.0
C1854 C 0.9323 0.54536 0.86204 0.0
C1855 C 0.90078 0.53752 0.83859 0.0
C1856 C 0.92169 0.52769 0.87319 0.0
C1857 C 0.89073 0.51995 0.85013 0.0
C1858 C 0.97719 0.55225 0.7929 0.0
C1859 C 1.01052 0.54832 0.78281 0.0
N1860 N 1.00049 0.53689 0.76478 0.0
C1861 C 0.96719 0.5404 0.77431 0.0
C1862 C 0.99902 0.55622 0.79723 0.0
C1863 C 0.97926 0.5328 0.76029 0.0
C1864 C 0.90849 0.51333 0.78253 0.0
N1865 N 0.92114 0.52115 0.80029 0.0
C1866 C 0.9139 0.48399 0.81101 0.0
C1867 C 0.92454 0.50696 0.81414 0.0
C1868 C 0.90039 0.4756 0.79306 0.0
C1869 C 0.89796 0.4904 0.77852 0.0
H1870 H 0.90663 0.52488 0.77145 0.0
H1871 H 0.93525 0.51353 0.82779 0.0
C1872 C 0.98957 0.6017 0.86564 0.0
N1873 N 0.98297 0.58344 0.85169 0.0
C1874 C 1.00521 0.60282 0.88141 0.0
C1875 C 1.00646 0.56613 0.86823 0.0
C1876 C 0.99098 0.56582 0.85272 0.0
C1877 C 1.01381 0.5848 0.88285 0.0
H1878 H 0.98276 0.6154 0.86446 0.0
H1879 H 0.9851 0.55136 0.84158 0.0
C1880 C 0.91067 0.57608 0.7764 0.0
N1881 N 0.875 0.58518 0.75953 0.0
C1882 C 0.91277 0.59382 0.76388 0.0
C1883 C 0.89039 0.56286 0.78017 0.0
C1884 C 0.89455 0.59818 0.75554 0.0
C1885 C 0.87257 0.56776 0.77155 0.0
C1886 C 0.97563 0.62705 0.80998 0.0
C1887 C 0.97017 0.63677 0.79259 0.0
C1888 C 0.99583 0.63613 0.82032 0.0
C1889 C 0.985 0.65531 0.78579 0.0
C1890 C 1.01021 0.65471 0.81307 0.0
N1891 N 1.00455 0.66383 0.79609 0.0
C1892 C 0.89141 0.59271 0.82382 0.0
C1893 C 0.91225 0.62372 0.80778 0.0
C1894 C 0.87355 0.60016 0.8211 0.0
N1895 N 0.90994 0.60394 0.81623 0.0
C1896 C 0.89485 0.63173 0.80469 0.0
C1897 C 0.87499 0.61928 0.8105 0.0
H1898 H 0.89003 0.57713 0.83061 0.0
H1899 H 0.92714 0.63244 0.80208 0.0
C1900 C 0.96779 0.58936 0.75138 0.0
N1901 N 0.97632 0.59433 0.77121 0.0
C1902 C 0.98102 0.59097 0.73533 0.0
C1903 C 1.01148 0.60362 0.76041 0.0
C1904 C 0.99769 0.60185 0.77593 0.0
C1905 C 1.00314 0.59741 0.73989 0.0
H1906 H 0.95078 0.58263 0.74812 0.0
H1907 H 1.00404 0.60489 0.79186 0.0
O1908 O 0.932 0.56753 0.83343 0.0
O1909 O 0.96578 0.56059 0.80646 0.0
O1910 O 0.92834 0.57181 0.78507 0.0
O1911 O 0.96133 0.60882 0.81688 0.0
H1912 H 0.94844 0.55516 0.86706 0.0
H1913 H 0.89244 0.54079 0.82496 0.0
H1914 H 0.92966 0.52372 0.88676 0.0
H1915 H 0.87456 0.50985 0.84557 0.0
H1916 H 0.02745 0.55141 0.78588 0.0
H1917 H 0.9504 0.53752 0.77055 0.0
H1918 H 1.00707 0.56563 0.81141 0.0
H1919 H 0.97176 0.52377 0.74577 0.0
H1920 H 0.9163 0.47287 0.82236 0.0
H1921 H 0.88776 0.48432 0.76442 0.0
H1922 H 1.01042 0.61752 0.89238 0.0
H1923 H 1.01212 0.55157 0.86909 0.0
H1924 H 0.92828 0.60425 0.76076 0.0
H1925 H 0.88841 0.54915 0.7899 0.0
H1926 H 0.89596 0.61195 0.74595 0.0
H1927 H 0.8568 0.55779 0.77451 0.0
H1928 H 0.95485 0.62975 0.78408 0.0
H1929 H 1.00051 0.6288 0.83366 0.0
H1930 H 0.981 0.66284 0.77225 0.0
H1931 H 0.02591 0.66182 0.82089 0.0
H1932 H 0.85848 0.59017 0.82583 0.0
H1933 H 0.89661 0.64683 0.79679 0.0
H1934 H 0.974 0.58559 0.71971 0.0
H1935 H 0.02844 0.60854 0.7645 0.0
Li1936 Li 0.78706 0.39457 0.51576 0.0
Li1937 Li 0.77603 0.4303 0.50926 0.0
Li1938 Li 0.78305 0.40609 0.48166 0.0
Li1939 Li 0.8112 0.4286 0.50365 0.0
C1940 C 0.74344 0.38468 0.48912 0.0
N1941 N 0.70914 0.35873 0.4633 0.0
C1942 C 0.73271 0.39487 0.47556 0.0
C1943 C 0.73663 0.36134 0.48972 0.0
C1944 C 0.71544 0.38144 0.46257 0.0
C1945 C 0.71927 0.3485 0.4765 0.0
C1946 C 0.81332 0.43793 0.54414 0.0
C1947 C 0.83231 0.47265 0.56421 0.0
N1948 N 0.84664 0.46272 0.57174 0.0
C1949 C 0.82818 0.42805 0.55216 0.0
C1950 C 0.81537 0.46041 0.55023 0.0
C1951 C 0.84493 0.44088 0.56605 0.0
C1952 C 0.80371 0.36525 0.53598 0.0
N1953 N 0.78571 0.37135 0.53315 0.0
C1954 C 0.76903 0.34686 0.55784 0.0
C1955 C 0.76838 0.36231 0.54344 0.0
C1956 C 0.78778 0.3409 0.56171 0.0
C1957 C 0.80511 0.35001 0.55024 0.0
H1958 H 0.8173 0.3729 0.52766 0.0
H1959 H 0.7543 0.36759 0.54088 0.0
C1960 C 0.75077 0.45841 0.50342 0.0
N1961 N 0.75993 0.4489 0.51803 0.0
C1962 C 0.74154 0.47504 0.50918 0.0
C1963 C 0.75047 0.47094 0.54494 0.0
C1964 C 0.75946 0.4543 0.53847 0.0
C1965 C 0.74179 0.48189 0.53017 0.0
H1966 H 0.7515 0.45379 0.48728 0.0
H1967 H 0.76684 0.44633 0.5497 0.0
C1968 C 0.81136 0.383 0.47968 0.0
N1969 N 0.81972 0.35459 0.44927 0.0
C1970 C 0.82326 0.39184 0.46354 0.0
C1971 C 0.80397 0.3597 0.48051 0.0
C1972 C 0.82721 0.3772 0.44825 0.0
C1973 C 0.80833 0.34562 0.46496 0.0
C1974 C 0.80482 0.45884 0.47936 0.0
C1975 C 0.81938 0.45849 0.46476 0.0
C1976 C 0.80357 0.47949 0.48795 0.0
C1977 C 0.83258 0.47878 0.45914 0.0
C1978 C 0.81701 0.49942 0.48188 0.0
N1979 N 0.83113 0.49865 0.46774 0.0
C1980 C 0.77879 0.40886 0.4388 0.0
C1981 C 0.76893 0.37168 0.44889 0.0
C1982 C 0.7784 0.40089 0.41826 0.0
N1983 N 0.7751 0.39428 0.45369 0.0
C1984 C 0.76842 0.36297 0.42861 0.0
C1985 C 0.7741 0.37771 0.41312 0.0
H1986 H 0.78317 0.42673 0.44296 0.0
H1987 H 0.76597 0.36042 0.46097 0.0
C1988 C 0.85476 0.43406 0.50466 0.0
N1989 N 0.84047 0.44568 0.5069 0.0
C1990 C 0.87643 0.44502 0.50828 0.0
C1991 C 0.86837 0.47978 0.51648 0.0
C1992 C 0.84684 0.46813 0.5127 0.0
C1993 C 0.88344 0.46814 0.51444 0.0
H1994 H 0.84933 0.41615 0.50051 0.0
H1995 H 0.83523 0.47691 0.51506 0.0
O1996 O 0.76047 0.3975 0.50183 0.0
O1997 O 0.79706 0.42576 0.53019 0.0
O1998 O 0.80707 0.39707 0.49465 0.0
O1999 O 0.79167 0.43911 0.48499 0.0
H2000 H 0.73782 0.41291 0.47491 0.0
H2001 H 0.74481 0.35322 0.50013 0.0
H2002 H 0.70707 0.38906 0.45189 0.0
H2003 H 0.71389 0.3304 0.4767 0.0
H2004 H 0.83417 0.4901 0.56893 0.0
H2005 H 0.82696 0.41077 0.54751 0.0
H2006 H 0.80429 0.46849 0.54391 0.0
H2007 H 0.85662 0.43348 0.57227 0.0
H2008 H 0.75524 0.34009 0.56621 0.0
H2009 H 0.82002 0.34631 0.55294 0.0
H2010 H 0.7346 0.48271 0.49732 0.0
H2011 H 0.75102 0.47573 0.56126 0.0
H2012 H 0.82932 0.4098 0.46279 0.0
H2013 H 0.7946 0.35252 0.49278 0.0
H2014 H 0.83623 0.38382 0.43558 0.0
H2015 H 0.80255 0.32755 0.46531 0.0
H2016 H 0.82054 0.44274 0.45787 0.0
H2017 H 0.79266 0.48021 0.49946 0.0
H2018 H 0.84397 0.47872 0.44792 0.0
H2019 H 0.81629 0.51549 0.4885 0.0
H2020 H 0.78237 0.4128 0.40671 0.0
H2021 H 0.76516 0.34499 0.42543 0.0
H2022 H 0.88758 0.43546 0.50639 0.0
H2023 H 0.87312 0.49754 0.52156 0.0
Li2024 Li 0.66747 0.52607 0.34482 0.0
Li2025 Li 0.69219 0.55708 0.33307 0.0
Li2026 Li 0.66424 0.5315 0.30879 0.0
Li2027 Li 0.69549 0.52 0.32515 0.0
C2028 C 0.65262 0.56326 0.34532 0.0
N2029 N 0.63476 0.58643 0.37281 0.0
C2030 C 0.66429 0.5743 0.36351 0.0
C2031 C 0.63194 0.56416 0.34098 0.0
C2032 C 0.65497 0.58588 0.37725 0.0
C2033 C 0.62317 0.57592 0.3551 0.0
C2034 C 0.71537 0.54567 0.36632 0.0
C2035 C 0.75298 0.55515 0.37607 0.0
N2036 N 0.74997 0.56444 0.39464 0.0
C2037 C 0.71266 0.55515 0.38559 0.0
C2038 C 0.7357 0.54552 0.36158 0.0
C2039 C 0.73035 0.56463 0.39965 0.0
C2040 C 0.66081 0.51284 0.38471 0.0
N2041 N 0.65095 0.51647 0.36699 0.0
C2042 C 0.61846 0.51166 0.38274 0.0
C2043 C 0.63003 0.51524 0.36547 0.0
C2044 C 0.62867 0.50951 0.40163 0.0
C2045 C 0.64992 0.50943 0.40241 0.0
H2046 H 0.67735 0.51349 0.3853 0.0
H2047 H 0.62259 0.51799 0.35107 0.0
C2048 C 0.69885 0.60025 0.32359 0.0
N2049 N 0.70751 0.58828 0.33624 0.0
C2050 C 0.71015 0.62214 0.32025 0.0
C2051 C 0.73834 0.61986 0.3446 0.0
C2052 C 0.72663 0.59777 0.34713 0.0
C2053 C 0.73044 0.63211 0.33046 0.0
H2054 H 0.68373 0.59216 0.31493 0.0
H2055 H 0.73338 0.58809 0.35702 0.0
C2056 C 0.64973 0.48543 0.32812 0.0
N2057 N 0.62011 0.45076 0.34391 0.0
C2058 C 0.65634 0.47191 0.34168 0.0
C2059 C 0.6281 0.48126 0.32248 0.0
C2060 C 0.6411 0.45449 0.34954 0.0
C2061 C 0.61336 0.46365 0.33065 0.0
C2062 C 0.70982 0.55943 0.29698 0.0
C2063 C 0.70337 0.57058 0.28111 0.0
C2064 C 0.73124 0.56564 0.30431 0.0
C2065 C 0.7184 0.58806 0.27311 0.0
C2066 C 0.74579 0.58323 0.29593 0.0
N2067 N 0.73912 0.594 0.28065 0.0
C2068 C 0.64295 0.54969 0.28037 0.0
C2069 C 0.63827 0.51083 0.27247 0.0
C2070 C 0.63128 0.55059 0.26212 0.0
N2071 N 0.64646 0.53012 0.28495 0.0
C2072 C 0.6262 0.51087 0.25415 0.0
C2073 C 0.62286 0.53106 0.2486 0.0
H2074 H 0.64983 0.56476 0.29063 0.0
H2075 H 0.64137 0.49552 0.2766 0.0
C2076 C 0.72035 0.49156 0.33443 0.0
N2077 N 0.71482 0.50399 0.32 0.0
C2078 C 0.7361 0.4813 0.33099 0.0
C2079 C 0.73999 0.49689 0.29794 0.0
C2080 C 0.72405 0.50662 0.30193 0.0
C2081 C 0.74624 0.48406 0.31258 0.0
H2082 H 0.71282 0.49001 0.34875 0.0
H2083 H 0.71929 0.51663 0.29077 0.0
O2084 O 0.66126 0.55143 0.33183 0.0
O2085 O 0.69815 0.53592 0.35251 0.0
O2086 O 0.66436 0.50288 0.32065 0.0
O2087 O 0.69522 0.54275 0.30548 0.0
H2088 H 0.68036 0.57392 0.36698 0.0
H2089 H 0.62272 0.55568 0.32692 0.0
H2090 H 0.6638 0.59444 0.39144 0.0
H2091 H 0.60713 0.57667 0.35201 0.0
H2092 H 0.76879 0.55524 0.37255 0.0
H2093 H 0.69706 0.55514 0.38973 0.0
H2094 H 0.7382 0.53824 0.34685 0.0
H2095 H 0.72846 0.57208 0.41458 0.0
H2096 H 0.60213 0.51195 0.38161 0.0
H2097 H 0.6582 0.50759 0.41673 0.0
H2098 H 0.70346 0.63058 0.30889 0.0
H2099 H 0.75369 0.62697 0.35313 0.0
H2100 H 0.67302 0.47502 0.34627 0.0
H2101 H 0.62274 0.49169 0.31212 0.0
H2102 H 0.64596 0.44397 0.36015 0.0
H2103 H 0.59656 0.4603 0.32652 0.0
H2104 H 0.6869 0.56593 0.27515 0.0
H2105 H 0.73652 0.55719 0.31655 0.0
H2106 H 0.71359 0.59695 0.26094 0.0
H2107 H 0.76236 0.58836 0.30163 0.0
H2108 H 0.62953 0.56663 0.25838 0.0
H2109 H 0.61977 0.49534 0.24438 0.0
H2110 H 0.74019 0.47124 0.34254 0.0
H2111 H 0.74753 0.4997 0.28367 0.0
Tb2112 Tb 0.08174 0.05283 0.03807 0.0
Tb2113 Tb 0.03328 0.02568 0.01862 0.0
C2114 C 0.04238 0.05406 0.06159 0.0
C2115 C 0.13882 0.06513 0.05317 0.0
C2116 C 0.17202 0.04532 0.05326 0.0
C2117 C 0.16074 0.04567 0.07079 0.0
C2118 C 0.14431 0.05554 0.07076 0.0
C2119 C 0.15103 0.06604 0.03616 0.0
C2120 C 0.16737 0.05615 0.03617 0.0
C2121 C 0.11954 0.07254 0.05187 0.0
O2122 O 0.07423 0.01979 0.05065 0.0
O2123 O 0.04688 0.99932 0.0272 0.0
O2124 O 0.0541 0.02772 0.994 0.0
O2125 O 0.08526 0.03051 0.01275 0.0
O2126 O 1.00294 1.00366 0.02174 0.0
O2127 O 1.01102 0.01747 0.99288 0.0
O2128 O 0.03576 0.06121 0.01719 0.0
O2129 O 0.07194 0.07487 0.01721 0.0
O2130 O 0.06135 0.06535 0.05704 0.0
O2131 O 0.0308 0.03577 0.05057 0.0
C2132 C 0.06148 1.00035 0.04221 0.0
O2133 O 0.1118 0.07406 0.03333 0.0
O2134 O 0.10457 0.06301 0.06343 0.0
C2135 C 0.07332 0.02578 0.99535 0.0
C2136 C 0.97758 0.01567 1.00306 0.0
C2137 C 0.94443 0.03508 1.00005 0.0
C2138 C 0.94136 0.01308 0.99129 0.0
C2139 C 0.95801 1.00347 0.99263 0.0
C2140 C 0.98034 0.03734 0.01232 0.0
C2141 C 0.96397 0.04703 0.01069 0.0
C2142 C 0.99573 1.00681 1.0035 0.0
C2143 C 0.05287 0.07722 0.01372 0.0
H2144 H 0.16423 0.03779 0.08432 0.0
H2145 H 0.13543 0.05492 0.08424 0.0
H2146 H 0.1474 0.07355 0.02244 0.0
H2147 H 0.17563 0.05601 0.02235 0.0
H2148 H 0.9263 1.00357 0.98315 0.0
H2149 H 0.95571 0.98672 0.98539 0.0
H2150 H 0.99527 0.04689 0.02064 0.0
H2151 H 0.96652 0.06385 0.01791 0.0
Tb2152 Tb 0.28542 0.78281 0.30503 0.0
Tb2153 Tb 0.31351 0.78536 0.2651 0.0
C2154 C 0.26713 0.79097 0.26143 0.0
C2155 C 0.26785 0.77081 0.35655 0.0
C2156 C 0.27591 0.75256 0.39342 0.0
C2157 C 0.27957 0.77583 0.39305 0.0
C2158 C 0.27545 0.78486 0.3748 0.0
C2159 C 0.26385 0.74745 0.35701 0.0
C2160 C 0.26777 0.73842 0.37532 0.0
C2161 C 0.26572 0.78092 0.33702 0.0
O2162 O 0.28522 0.74888 0.29511 0.0
O2163 O 0.28756 0.75449 0.26112 0.0
O2164 O 0.33157 0.77313 0.28876 0.0
O2165 O 0.31619 0.7818 0.31773 0.0
O2166 O 0.3267 0.76903 0.24269 0.0
O2167 O 0.33079 0.80474 0.2434 0.0
O2168 O 0.32846 0.81445 0.28641 0.0
O2169 O 0.29787 0.81764 0.29847 0.0
O2170 O 0.2632 0.78195 0.27895 0.0
O2171 O 0.28654 0.79743 0.25537 0.0
C2172 C 0.28178 0.74106 0.27567 0.0
O2173 O 0.28183 0.79789 0.33371 0.0
O2174 O 0.25872 0.76718 0.32045 0.0
C2175 C 0.33119 0.77551 0.309 0.0
C2176 C 0.32542 0.78456 0.21097 0.0
C2177 C 0.31206 0.78255 0.16885 0.0
C2178 C 0.33155 0.77901 0.175 0.0
C2179 C 0.3382 0.78009 0.19592 0.0
C2180 C 0.30559 0.78714 0.20495 0.0
C2181 C 0.29903 0.78628 0.18412 0.0
C2182 C 0.33288 0.78709 0.2329 0.0
C2183 C 0.31797 0.82646 0.29572 0.0
H2184 H 0.2856 0.78704 0.40689 0.0
H2185 H 0.27863 0.8029 0.37483 0.0
H2186 H 0.25812 0.73616 0.34319 0.0
H2187 H 0.26492 0.72042 0.3752 0.0
H2188 H 0.34183 0.77575 0.16366 0.0
H2189 H 0.35346 0.77782 0.20033 0.0
H2190 H 0.2954 0.79044 0.21636 0.0
H2191 H 0.2841 0.78945 0.18006 0.0
Tb2192 Tb 0.53367 0.03618 0.53414 0.0
Tb2193 Tb 0.58508 0.04281 0.52877 0.0
C2194 C 0.56172 0.01939 0.5657 0.0
C2195 C 0.48138 0.04896 0.53428 0.0
C2196 C 0.45424 0.07649 0.5299 0.0
C2197 C 0.47132 0.08231 0.54524 0.0
C2198 C 0.48479 0.06875 0.54738 0.0
C2199 C 0.46428 0.04312 0.51906 0.0
C2200 C 0.45094 0.05671 0.51683 0.0
C2201 C 0.49498 0.03389 0.53634 0.0
O2202 O 0.55198 0.06639 0.55315 0.0
O2203 O 0.58259 0.07683 0.53649 0.0
O2204 O 0.57051 0.0474 0.49942 0.0
O2205 O 0.54378 0.05993 0.51131 0.0
O2206 O 0.61702 0.05429 0.54115 0.0
O2207 O 0.60861 0.03792 0.5104 0.0
O2208 O 0.56931 1.0066 0.52383 0.0
O2209 O 0.53529 1.007 0.51449 0.0
O2210 O 0.54262 0.01556 0.55647 0.0
O2211 O 0.57867 0.0336 0.55954 0.0
C2212 C 0.5689 0.08194 0.54842 0.0
O2213 O 0.50281 0.02847 0.51959 0.0
O2214 O 0.50886 0.03791 0.55231 0.0
C2215 C 0.55636 0.05816 0.49698 0.0
C2216 C 0.63799 0.03183 0.52908 0.0
C2217 C 0.66612 1.00567 0.53503 0.0
C2218 C 0.67389 0.02923 0.53497 0.0
C2219 C 0.65999 0.04211 0.532 0.0
C2220 C 0.63005 1.00836 0.52939 0.0
C2221 C 0.64398 0.9954 0.53225 0.0
C2222 C 0.62376 0.04579 0.52511 0.0
C2223 C 0.54993 0.99648 0.51545 0.0
H2224 H 0.47446 0.09752 0.55544 0.0
H2225 H 0.49782 0.07376 0.55929 0.0
H2226 H 0.46116 0.0279 0.50886 0.0
H2227 H 0.43779 0.05152 0.50505 0.0
H2228 H 0.69081 0.03772 0.5368 0.0
H2229 H 0.66647 0.06017 0.53175 0.0
H2230 H 0.6131 1.00003 0.52726 0.0
H2231 H 0.6374 0.97736 0.53245 0.0
Tb2232 Tb 0.33476 0.28243 0.78414 0.0
Tb2233 Tb 0.28985 0.29629 0.77971 0.0
C2234 C 0.29024 0.2475 0.78898 0.0
C2235 C 0.38846 0.27603 0.77553 0.0
C2236 C 0.42524 0.28157 0.75383 0.0
C2237 C 0.42367 0.27189 0.77279 0.0
C2238 C 0.4055 0.26917 0.7835 0.0
C2239 C 0.38972 0.28547 0.75652 0.0
C2240 C 0.40794 0.28818 0.74574 0.0
C2241 C 0.3698 0.27359 0.78753 0.0
O2242 O 0.32272 0.27279 0.75165 0.0
O2243 O 0.29838 0.29263 0.74796 0.0
O2244 O 0.31614 0.32702 0.78118 0.0
O2245 O 0.34205 0.31322 0.76905 0.0
O2246 O 0.25897 0.29113 0.76599 0.0
O2247 O 0.27322 0.31873 0.78896 0.0
O2248 O 0.29482 0.29189 0.81241 0.0
O2249 O 0.33093 0.29829 0.81442 0.0
O2250 O 0.31071 0.25432 0.79453 0.0
O2251 O 0.28023 0.26017 0.78011 0.0
C2252 C 0.30989 0.28059 0.74 0.0
O2253 O 0.36697 0.29222 0.79517 0.0
O2254 O 0.35199 0.25926 0.77961 0.0
C2255 C 0.33417 0.32985 0.77278 0.0
C2256 C 0.23611 0.30275 0.78766 0.0
C2257 C 0.19788 0.29467 0.8072 0.0
C2258 C 0.202 0.30926 0.79138 0.0
C2259 C 0.22091 0.31323 0.78173 0.0
C2260 C 0.23219 0.28814 0.80341 0.0
C2261 C 0.21323 0.28414 0.81311 0.0
C2262 C 0.25604 0.30764 0.7775 0.0
C2263 C 0.31323 0.29708 0.82338 0.0
H2264 H 0.43648 0.26626 0.77934 0.0
H2265 H 0.40479 0.26179 0.79811 0.0
H2266 H 0.37672 0.29092 0.75014 0.0
H2267 H 0.40864 0.29587 0.7313 0.0
H2268 H 0.19074 0.31795 0.78666 0.0
H2269 H 0.22373 0.32467 0.76969 0.0
H2270 H 0.24379 0.27989 0.80819 0.0
H2271 H 0.2105 0.27264 0.82508 0.0
Tb2272 Tb 0.05454 0.05049 0.55351 0.0
Tb2273 Tb 0.06044 0.02463 0.51154 0.0
C2274 C 1.01544 0.01708 0.5273 0.0
C2275 C 0.0475 0.06089 0.60831 0.0
C2276 C 0.04605 0.04854 0.64911 0.0
C2277 C 0.03847 0.06637 0.64337 0.0
C2278 C 0.03937 0.07261 0.62314 0.0
C2279 C 0.05337 0.04199 0.61354 0.0
C2280 C 0.05283 0.036 0.6337 0.0
C2281 C 0.0517 0.06939 0.58804 0.0
O2282 O 0.06055 0.01867 0.56383 0.0
O2283 O 0.0568 0.99768 0.53282 0.0
O2284 O 0.09091 0.03568 0.52975 0.0
O2285 O 0.08559 0.06734 0.54353 0.0
O2286 O 0.04998 0.99958 0.48686 0.0
O2287 O 0.08116 0.02358 0.48867 0.0
O2288 O 0.06154 0.05887 0.50266 0.0
O2289 O 0.04823 0.07335 0.53013 0.0
O2290 O 0.02457 0.02461 0.54578 0.0
O2291 O 0.0264 0.02018 0.51107 0.0
C2292 C 0.05866 0.99902 0.55326 0.0
O2293 O 0.06952 0.06808 0.58129 0.0
O2294 O 0.03601 0.06288 0.57367 0.0
C2295 C 0.09861 0.05664 0.53721 0.0
C2296 C 0.06236 0.01512 0.45653 0.0
C2297 C 0.05708 0.03221 0.41843 0.0
C2298 C 0.06988 0.0179 0.42072 0.0
C2299 C 0.07258 0.0095 0.43973 0.0
C2300 C 0.04948 0.02923 0.45424 0.0
C2301 C 0.04685 0.0377 0.43538 0.0
C2302 C 0.06662 1.00831 0.47699 0.0
C2303 C 0.05454 0.07498 0.51113 0.0
H2304 H 0.03267 0.07611 0.65466 0.0
H2305 H 0.03453 0.08709 0.61929 0.0
H2306 H 0.05959 0.03261 0.60233 0.0
H2307 H 0.05916 0.02242 0.63732 0.0
H2308 H 0.07798 0.01346 0.40791 0.0
H2309 H 0.08286 0.99891 0.44138 0.0
H2310 H 0.04159 0.0339 0.46712 0.0
H2311 H 0.03657 0.04831 0.43401 0.0
Tb2312 Tb 0.31536 0.80835 0.77397 0.0
Tb2313 Tb 0.28887 0.76121 0.78963 0.0
C2314 C 0.31097 0.76288 0.7482 0.0
C2315 C 0.33214 0.8686 0.76789 0.0
C2316 C 0.31668 0.90514 0.77721 0.0
C2317 C 0.31771 0.89777 0.75659 0.0
C2318 C 0.32545 0.87964 0.75198 0.0
C2319 C 0.33292 0.8773 0.78845 0.0
C2320 C 0.32533 0.89548 0.79305 0.0
C2321 C 0.33508 0.8464 0.76312 0.0
O2322 O 0.2812 0.80733 0.76739 0.0
O2323 O 0.26388 0.77008 0.7701 0.0
O2324 O 0.28026 0.78613 0.80872 0.0
O2325 O 0.30849 0.81682 0.805 0.0
O2326 O 0.2675 0.72884 0.78345 0.0
O2327 O 0.28094 0.7414 0.81444 0.0
O2328 O 0.32184 0.76806 0.80502 0.0
O2329 O 0.3412 0.79443 0.78536 0.0
O2330 O 0.3125 0.78421 0.74795 0.0
O2331 O 0.3052 0.75182 0.76429 0.0
C2332 C 0.2634 0.79008 0.76469 0.0
O2333 O 0.3417 0.83725 0.77851 0.0
O2334 O 0.31947 0.83193 0.75184 0.0
C2335 C 0.29198 0.80665 0.81458 0.0
C2336 C 0.27827 0.70378 0.80413 0.0
C2337 C 0.30109 0.67231 0.80702 0.0
C2338 C 0.29735 0.68385 0.82492 0.0
C2339 C 0.28596 0.69942 0.82349 0.0
C2340 C 0.28053 0.69087 0.78644 0.0
C2341 C 0.29188 0.67538 0.78787 0.0
C2342 C 0.27074 0.72365 0.80218 0.0
C2343 C 0.34066 0.78009 0.79959 0.0
H2344 H 0.31107 0.90484 0.74407 0.0
H2345 H 0.32479 0.87326 0.73602 0.0
H2346 H 0.33815 0.86928 0.80111 0.0
H2347 H 0.32507 0.90112 0.80907 0.0
H2348 H 0.30399 0.68156 0.83991 0.0
H2349 H 0.28423 0.70896 0.8374 0.0
H2350 H 0.27469 0.69365 0.77128 0.0
H2351 H 0.29462 0.66697 0.77373 0.0
Tb2352 Tb 0.55536 0.02401 0.0607 0.0
Tb2353 Tb 0.54206 0.03832 0.01682 0.0
C2354 C 0.58977 0.04819 0.03234 0.0
C2355 C 0.55332 1.00652 0.11357 0.0
C2356 C 0.53096 1.00037 0.14909 0.0
C2357 C 0.553 0.01105 0.1507 0.0
C2358 C 0.56409 0.01405 0.13305 0.0
C2359 C 0.5314 0.99545 0.11191 0.0
C2360 C 0.52035 0.99226 0.12953 0.0
C2361 C 0.56478 0.01154 0.09509 0.0
O2362 O 0.54632 0.05523 0.06921 0.0
O2363 O 0.54835 0.06953 0.03768 0.0
O2364 O 0.51412 0.03242 0.03389 0.0
O2365 O 0.5215 1.00821 0.05571 0.0
O2366 O 0.54645 0.06156 0.99455 0.0
O2367 O 0.52023 0.0309 0.99074 0.0
O2368 O 0.5413 1.00255 0.00986 0.0
O2369 O 0.56275 0.99981 0.03769 0.0
O2370 O 0.58395 0.0461 0.05105 0.0
O2371 O 0.57591 0.04251 0.01619 0.0
C2372 C 0.54702 0.07229 0.05782 0.0
O2373 O 0.55705 0.99788 0.07868 0.0
O2374 O 0.56992 0.03245 0.0909 0.0
C2375 C 0.50799 0.01687 0.04659 0.0
C2376 C 0.53754 0.04333 0.9617 0.0
C2377 C 0.55475 0.03826 0.92425 0.0
C2378 C 0.54056 0.05107 0.92599 0.0
C2379 C 0.53204 0.05368 0.94473 0.0
C2380 C 0.55086 0.02964 0.95968 0.0
C2381 C 0.55941 0.02711 0.94106 0.0
C2382 C 0.53115 0.04831 0.98199 0.0
C2383 C 0.55301 0.99156 0.01922 0.0
H2384 H 0.56158 0.01778 0.16551 0.0
H2385 H 0.58097 0.02278 0.13456 0.0
H2386 H 0.52272 0.98958 0.097 0.0
H2387 H 0.50345 0.98368 0.1278 0.0
H2388 H 0.53689 0.05992 0.91321 0.0
H2389 H 0.52184 0.06438 0.94619 0.0
H2390 H 0.55525 0.02159 0.97274 0.0
H2391 H 0.57015 0.01697 0.93996 0.0
Tb2392 Tb 0.29389 0.26473 0.27528 0.0
Tb2393 Tb 0.31221 0.31603 0.29149 0.0
C2394 C 0.29325 0.3027 0.24496 0.0
C2395 C 0.28924 0.20538 0.26896 0.0
C2396 C 0.31303 0.1757 0.27602 0.0
C2397 C 0.29955 0.17261 0.25785 0.0
C2398 C 0.28772 0.18743 0.25433 0.0
C2399 C 0.30202 0.20793 0.28744 0.0
C2400 C 0.31377 0.19319 0.29097 0.0
C2401 C 0.28016 0.22326 0.26386 0.0
O2402 O 0.32897 0.27098 0.27168 0.0
O2403 O 0.33953 0.30937 0.27622 0.0
O2404 O 0.32406 0.29934 0.31576 0.0
O2405 O 0.30104 0.26414 0.30862 0.0
O2406 O 0.33052 0.34875 0.28689 0.0
O2407 O 0.31632 0.34151 0.31541 0.0
O2408 O 0.27918 0.30661 0.30253 0.0
O2409 O 0.2644 0.27397 0.28211 0.0
O2410 O 0.29276 0.28182 0.24718 0.0
O2411 O 0.29648 0.31741 0.26115 0.0
C2412 C 0.34378 0.29049 0.27028 0.0
O2413 O 0.27329 0.23276 0.27914 0.0
O2414 O 0.2918 0.23811 0.25303 0.0
C2415 C 0.31442 0.27948 0.32164 0.0
C2416 C 0.31592 0.37545 0.30231 0.0
C2417 C 0.28985 0.4035 0.29857 0.0
C2418 C 0.29604 0.39824 0.31811 0.0
C2419 C 0.30909 0.3844 0.31997 0.0
C2420 C 0.31095 0.38204 0.28292 0.0
C2421 C 0.29804 0.39596 0.28108 0.0
C2422 C 0.32568 0.35722 0.304 0.0
C2423 C 0.26208 0.28961 0.29588 0.0
H2424 H 0.29861 0.15913 0.24616 0.0
H2425 H 0.27809 0.18544 0.23988 0.0
H2426 H 0.30373 0.22193 0.29879 0.0
H2427 H 0.32428 0.19624 0.30495 0.0
H2428 H 0.29012 0.40412 0.33183 0.0
H2429 H 0.31288 0.37968 0.33509 0.0
H2430 H 0.31601 0.3755 0.26899 0.0
H2431 H 0.29338 0.39964 0.26582 0.0
Tb2432 Tb 0.54995 0.54897 0.05176 0.0
Tb2433 Tb 0.55313 0.51928 0.01069 0.0
C2434 C 0.51044 0.51477 0.0293 0.0
C2435 C 0.55428 0.56807 0.10663 0.0
C2436 C 0.56817 0.56144 0.14671 0.0
C2437 C 0.54821 0.56481 0.14277 0.0
C2438 C 0.54134 0.56811 0.12286 0.0
C2439 C 0.57436 0.56513 0.11058 0.0
C2440 C 0.5813 0.56203 0.13045 0.0
C2441 C 0.546 0.569 0.08542 0.0
O2442 O 0.55097 0.51601 0.06309 0.0
O2443 O 0.55868 0.49699 0.03467 0.0
O2444 O 0.58416 0.5437 0.01657 0.0
O2445 O 0.58395 0.55395 0.05089 0.0
O2446 O 0.53693 0.50228 0.98302 0.0
O2447 O 0.56957 0.50364 0.99096 0.0
O2448 O 0.54672 0.55017 0.9992 0.0
O2449 O 0.5522 0.57411 0.0286 0.0
O2450 O 0.51829 0.53609 0.03568 0.0
O2451 O 0.52309 0.50367 0.02289 0.0
C2452 C 0.55522 0.49799 0.05453 0.0
O2453 O 0.55999 0.57777 0.07269 0.0
O2454 O 0.53228 0.55045 0.07722 0.0
C2455 C 0.59403 0.55368 0.03419 0.0
C2456 C 0.5593 0.50714 0.95645 0.0
C2457 C 0.5616 0.52442 0.91765 0.0
C2458 C 0.56833 0.53898 0.93572 0.0
C2459 C 0.56724 0.5304 0.95497 0.0
C2460 C 0.55376 0.49247 0.93847 0.0
C2461 C 0.55501 0.50104 0.91917 0.0
C2462 C 0.554 0.49865 0.97646 0.0
C2463 C 0.54929 0.57071 0.00824 0.0
H2464 H 0.53764 0.56423 0.15491 0.0
H2465 H 0.52568 0.57007 0.12002 0.0
H2466 H 0.58455 0.5648 0.09824 0.0
H2467 H 0.59693 0.55994 0.13302 0.0
H2468 H 0.57359 0.55704 0.93498 0.0
H2469 H 0.57155 0.54198 0.96873 0.0
H2470 H 0.54743 0.4745 0.93937 0.0
H2471 H 0.5495 0.48944 0.9055 0.0
Tb2472 Tb 0.81566 0.30956 0.27448 0.0
Tb2473 Tb 0.78999 0.26168 0.2887 0.0
C2474 C 0.81259 0.26526 0.24747 0.0
C2475 C 0.83051 0.36992 0.26939 0.0
C2476 C 0.81637 0.40786 0.27596 0.0
C2477 C 0.82593 0.40446 0.25784 0.0
C2478 C 0.83298 0.38557 0.25458 0.0
C2479 C 0.82178 0.3738 0.28782 0.0
C2480 C 0.81486 0.39262 0.29112 0.0
C2481 C 0.83457 0.34838 0.26467 0.0
O2482 O 0.78127 0.30753 0.26729 0.0
O2483 O 0.76469 0.26988 0.26891 0.0
O2484 O 0.77914 0.2857 0.30676 0.0
O2485 O 0.80813 0.31615 0.30572 0.0
O2486 O 0.77141 0.22806 0.28204 0.0
O2487 O 0.78084 0.24224 0.31348 0.0
O2488 O 0.82278 0.26961 0.30492 0.0
O2489 O 0.84195 0.29592 0.28519 0.0
O2490 O 0.81377 0.28653 0.24786 0.0
O2491 O 0.80682 0.25355 0.26319 0.0
C2492 C 0.76378 0.28993 0.26393 0.0
O2493 O 0.84087 0.3394 0.28036 0.0
O2494 O 0.81968 0.33367 0.25284 0.0
C2495 C 0.79063 0.30592 0.31385 0.0
C2496 C 0.78338 0.20584 0.30482 0.0
C2497 C 0.80988 0.17787 0.30463 0.0
C2498 C 0.81299 0.19524 0.32037 0.0
C2499 C 0.79988 0.20911 0.32047 0.0
C2500 C 0.77893 0.18707 0.29036 0.0
C2501 C 0.79213 0.17326 0.2902 0.0
C2502 C 0.7735 0.22378 0.30126 0.0
C2503 C 0.84158 0.28168 0.29948 0.0
H2504 H 0.82733 0.41601 0.24594 0.0
H2505 H 0.83954 0.38271 0.2402 0.0
H2506 H 0.81943 0.36176 0.29931 0.0
H2507 H 0.80719 0.39449 0.30505 0.0
H2508 H 0.82627 0.19887 0.33196 0.0
H2509 H 0.8036 0.22326 0.33204 0.0
H2510 H 0.76625 0.18408 0.27822 0.0
H2511 H 0.78932 0.16004 0.27782 0.0
Tb2512 Tb 0.05142 0.51997 0.56769 0.0
Tb2513 Tb 0.04593 0.54073 0.52502 0.0
C2514 C 0.09014 0.5484 0.54759 0.0
C2515 C 0.06181 0.5187 0.62275 0.0
C2516 C 0.06291 0.54399 0.66017 0.0
C2517 C 0.05657 0.52035 0.65914 0.0
C2518 C 0.05593 0.50777 0.64048 0.0
C2519 C 0.06982 0.54224 0.62411 0.0
C2520 C 0.07038 0.55482 0.64271 0.0
C2521 C 0.056 0.50612 0.60248 0.0
O2522 O 0.0441 0.55189 0.57699 0.0
O2523 O 0.05056 0.57042 0.5477 0.0
O2524 O 0.01631 0.53237 0.53948 0.0
O2525 O 0.02035 0.50166 0.5532 0.0
O2526 O 0.05545 0.56414 0.50317 0.0
O2527 O 0.02455 0.5391 0.49959 0.0
O2528 O 0.04549 0.50546 0.51482 0.0
O2529 O 0.05873 0.49568 0.545 0.0
O2530 O 0.0803 0.54615 0.56442 0.0
O2531 O 0.07942 0.54305 0.52949 0.0
C2532 C 0.04703 0.57067 0.56749 0.0
O2533 O 0.03778 0.50657 0.59395 0.0
O2534 O 0.07071 0.50994 0.58955 0.0
C2535 C 1.00796 0.51241 0.54546 0.0
C2536 C 0.04053 0.5495 0.46956 0.0
C2537 C 0.04313 0.53655 0.42806 0.0
C2538 C 0.02646 0.54473 0.43386 0.0
C2539 C 0.02521 0.5512 0.45448 0.0
C2540 C 0.05709 0.54116 0.46394 0.0
C2541 C 0.05847 0.53489 0.44331 0.0
C2542 C 0.03808 0.55498 0.49116 0.0
C2543 C 0.05304 0.49123 0.52494 0.0
H2544 H 0.0505 0.51157 0.6723 0.0
H2545 H 0.0495 0.48962 0.6396 0.0
H2546 H 0.07431 0.55095 0.61048 0.0
H2547 H 0.07545 0.573 0.64313 0.0
H2548 H 1.01429 0.54597 0.42251 0.0
H2549 H 1.01214 0.55729 0.45871 0.0
H2550 H 0.06889 0.53945 0.47547 0.0
H2551 H 0.07175 0.52907 0.4393 0.0
Tb2552 Tb 0.82518 0.78836 0.28342 0.0
Tb2553 Tb 0.77878 0.79831 0.27718 0.0
C2554 C 0.78241 0.75175 0.28919 0.0
C2555 C 0.87879 0.78403 0.2725 0.0
C2556 C 0.91227 0.78653 0.2467 0.0
C2557 C 0.91529 0.78479 0.26801 0.0
C2558 C 0.89872 0.78353 0.28074 0.0
C2559 C 0.8757 0.78607 0.25132 0.0
C2560 C 0.89225 0.78727 0.23855 0.0
C2561 C 0.86135 0.78202 0.28609 0.0
O2562 O 0.81249 0.77613 0.25136 0.0
O2563 O 0.7898 0.79739 0.2463 0.0
O2564 O 0.80336 0.83029 0.28152 0.0
O2565 O 0.83031 0.81928 0.26847 0.0
O2566 O 0.74701 0.78854 0.26434 0.0
O2567 O 0.76048 0.82006 0.28278 0.0
O2568 O 0.78334 0.79504 0.31002 0.0
O2569 O 0.8197 0.80261 0.314 0.0
O2570 O 0.80257 0.76041 0.29561 0.0
O2571 O 0.77223 0.76233 0.27768 0.0
C2572 C 0.801 0.78475 0.23893 0.0
O2573 O 0.8579 0.80075 0.29261 0.0
O2574 O 0.84363 0.76629 0.28027 0.0
C2575 C 0.82128 0.83489 0.27284 0.0
C2576 C 0.72406 0.8013 0.28526 0.0
C2577 C 0.6869 0.79464 0.3065 0.0
C2578 C 0.68554 0.78959 0.28501 0.0
C2579 C 0.70392 0.79299 0.27452 0.0
C2580 C 0.72554 0.80581 0.30678 0.0
C2581 C 0.70717 0.80263 0.31726 0.0
C2582 C 0.74321 0.80586 0.2737 0.0
C2583 C 0.80127 0.80065 0.32189 0.0
H2584 H 0.93035 0.7839 0.27481 0.0
H2585 H 0.90142 0.78192 0.29704 0.0
H2586 H 0.86045 0.78661 0.24465 0.0
H2587 H 0.88939 0.78888 0.22228 0.0
H2588 H 0.67026 0.783 0.27623 0.0
H2589 H 0.7024 0.78928 0.25794 0.0
H2590 H 0.74088 0.81215 0.3155 0.0
H2591 H 0.70892 0.80697 0.33374 0.0
Tb2592 Tb 0.79927 0.30531 0.80511 0.0
Tb2593 Tb 0.82456 0.30286 0.76371 0.0
C2594 C 0.7792 0.31196 0.76151 0.0
C2595 C 0.78641 0.29798 0.85825 0.0
C2596 C 0.79705 0.28438 0.89669 0.0
C2597 C 0.7809 0.29481 0.89446 0.0
C2598 C 0.77569 0.30165 0.87536 0.0
C2599 C 0.80227 0.28732 0.86031 0.0
C2600 C 0.80768 0.28076 0.87936 0.0
C2601 C 0.78203 0.3062 0.83847 0.0
O2602 O 0.79637 0.27021 0.79619 0.0
O2603 O 0.79689 0.27386 0.76181 0.0
O2604 O 0.84205 0.2903 0.7875 0.0
O2605 O 0.83106 0.30573 0.8161 0.0
O2606 O 0.8351 0.28361 0.7415 0.0
O2607 O 0.8417 0.3195 0.74045 0.0
O2608 O 0.84042 0.33454 0.78134 0.0
O2609 O 0.81143 0.3393 0.79614 0.0
O2610 O 0.77611 0.30608 0.78034 0.0
O2611 O 0.79752 0.31438 0.75345 0.0
C2612 C 0.79158 0.26139 0.77706 0.0
O2613 O 0.79744 0.32274 0.83316 0.0
O2614 O 0.77439 0.2908 0.82321 0.0
C2615 C 0.84392 0.29596 0.80751 0.0
C2616 C 0.83167 0.29754 0.70927 0.0
C2617 C 0.81239 0.30018 0.67032 0.0
C2618 C 0.83461 0.30538 0.6735 0.0
C2619 C 0.8442 0.30419 0.69292 0.0
C2620 C 0.80944 0.29095 0.70578 0.0
C2621 C 0.79987 0.29231 0.68646 0.0
C2622 C 0.84146 0.30064 0.73044 0.0
C2623 C 0.83049 0.34759 0.79003 0.0
H2624 H 0.77218 0.29754 0.9074 0.0
H2625 H 0.76342 0.3099 0.87398 0.0
H2626 H 0.81067 0.28434 0.8472 0.0
H2627 H 0.82042 0.27315 0.88054 0.0
H2628 H 0.84462 0.31171 0.66135 0.0
H2629 H 0.86137 0.30955 0.69543 0.0
H2630 H 0.79951 0.28585 0.71828 0.0
H2631 H 0.78272 0.28807 0.68436 0.0
Tb2632 Tb 0.79315 0.76501 0.7742 0.0
Tb2633 Tb 0.81356 0.81594 0.7923 0.0
C2634 C 0.79578 0.80414 0.74443 0.0
C2635 C 0.771 0.70336 0.77236 0.0
C2636 C 0.77766 0.66599 0.78987 0.0
C2637 C 0.76868 0.66389 0.76943 0.0
C2638 C 0.76567 0.68263 0.76063 0.0
C2639 C 0.77639 0.70448 0.79362 0.0
C2640 C 0.77978 0.68588 0.80235 0.0
C2641 C 0.77624 0.72402 0.7618 0.0
O2642 O 0.82582 0.77432 0.76231 0.0
O2643 O 0.84186 0.80505 0.78474 0.0
O2644 O 0.81168 0.7974 0.81976 0.0
O2645 O 0.80657 0.76179 0.80504 0.0
O2646 O 0.83301 0.84841 0.78821 0.0
O2647 O 0.81958 0.84093 0.81695 0.0
O2648 O 0.77899 0.81106 0.79537 0.0
O2649 O 0.76714 0.7727 0.79185 0.0
O2650 O 0.78929 0.78255 0.74695 0.0
O2651 O 0.8043 0.81923 0.76004 0.0
C2652 C 0.84347 0.79005 0.77 0.0
O2653 O 0.76542 0.738 0.76554 0.0
O2654 O 0.7965 0.73434 0.7627 0.0
C2655 C 0.80999 0.77615 0.82147 0.0
C2656 C 0.81993 0.87516 0.80478 0.0
C2657 C 0.80009 0.90912 0.80397 0.0
C2658 C 0.82021 0.91338 0.8146 0.0
C2659 C 0.83006 0.89637 0.8151 0.0
C2660 C 0.80011 0.8711 0.79381 0.0
C2661 C 0.79027 0.88791 0.79341 0.0
C2662 C 0.82927 0.85674 0.80586 0.0
C2663 C 0.76377 0.79217 0.79754 0.0
H2664 H 0.76639 0.64856 0.7596 0.0
H2665 H 0.76131 0.68145 0.74422 0.0
H2666 H 0.78029 0.72035 0.80295 0.0
H2667 H 0.78655 0.68807 0.81817 0.0
H2668 H 0.82807 0.92965 0.8228 0.0
H2669 H 0.84538 0.89967 0.82366 0.0
H2670 H 0.79214 0.85483 0.78567 0.0
H2671 H 0.77496 0.88434 0.78475 0.0
Tb2672 Tb 0.58585 0.56172 0.55128 0.0
Tb2673 Tb 0.5413 0.52955 0.52743 0.0
C2674 C 0.54322 0.55078 0.57214 0.0
C2675 C 0.64196 0.58101 0.56862 0.0
C2676 C 0.67609 0.56278 0.5672 0.0
C2677 C 0.67012 0.56972 0.58624 0.0
C2678 C 0.65317 0.57881 0.58693 0.0
C2679 C 0.64896 0.57566 0.54961 0.0
C2680 C 0.66588 0.56668 0.54891 0.0
C2681 C 0.62101 0.58464 0.56944 0.0
O2682 O 0.58897 0.52778 0.54969 0.0
O2683 O 0.55363 0.5076 0.54644 0.0
O2684 O 0.56619 0.52387 0.50975 0.0
O2685 O 0.59203 0.55717 0.5193 0.0
O2686 O 0.51156 0.50564 0.5286 0.0
O2687 O 0.52257 0.51731 0.49964 0.0
O2688 O 0.54535 0.56325 0.51702 0.0
O2689 O 0.56744 0.58454 0.54413 0.0
O2690 O 0.56338 0.55216 0.57416 0.0
O2691 O 0.53252 0.5466 0.55401 0.0
C2692 C 0.57371 0.50896 0.55104 0.0
O2693 O 0.61283 0.59001 0.55254 0.0
O2694 O 0.60713 0.56901 0.57779 0.0
C2695 C 0.58402 0.53896 0.50673 0.0
C2696 C 0.48624 0.51137 0.50452 0.0
C2697 C 0.44928 0.52494 0.50246 0.0
C2698 C 0.46744 0.53731 0.49361 0.0
C2699 C 0.48583 0.53067 0.49473 0.0
C2700 C 0.46765 0.49818 0.5121 0.0
C2701 C 0.44931 0.50497 0.51118 0.0
C2702 C 0.50636 0.50632 0.5091 0.0
C2703 C 0.55438 0.58282 0.52763 0.0
H2704 H 0.67786 0.56711 0.60057 0.0
H2705 H 0.64795 0.58274 0.60176 0.0
H2706 H 0.64051 0.57696 0.53523 0.0
H2707 H 0.66987 0.56125 0.53398 0.0
H2708 H 0.46786 0.55291 0.48702 0.0
H2709 H 0.49997 0.54127 0.48883 0.0
H2710 H 0.46763 0.48324 0.51969 0.0
H2711 H 0.43543 0.49514 0.51804 0.0
Tb2712 Tb 0.02943 0.53909 0.02383 0.0
Tb2713 Tb 0.08066 0.54207 0.0236 0.0
C2714 C 0.0544 0.52681 0.06066 0.0
C2715 C 0.97894 0.55575 0.02258 0.0
C2716 C 0.95363 0.58551 0.02271 0.0
C2717 C 0.95861 0.5766 0.04096 0.0
C2718 C 0.97102 0.56186 0.04088 0.0
C2719 C 0.97416 0.56483 1.00436 0.0
C2720 C 0.96171 0.57952 1.00444 0.0
C2721 C 0.99093 0.53896 0.02231 0.0
O2722 O 0.04649 0.57488 0.02894 0.0
O2723 O 0.07952 0.57311 0.04095 0.0
O2724 O 0.07402 0.56264 1.00006 0.0
O2725 O 0.03983 0.54064 0.99307 0.0
O2726 O 0.11036 0.54751 0.04 0.0
O2727 O 0.10616 0.53885 0.00711 0.0
O2728 O 0.0623 0.51008 0.00675 0.0
O2729 O 0.02983 0.50412 0.02021 0.0
O2730 O 0.04164 0.5384 0.05524 0.0
O2731 O 0.06736 0.5219 0.04801 0.0
C2732 C 0.06543 0.58428 0.03866 0.0
O2733 O 1.00118 0.53715 0.00618 0.0
O2734 O 1.00201 0.53786 0.0392 0.0
C2735 C 0.0563 0.55634 0.98816 0.0
C2736 C 0.13103 0.52509 0.02633 0.0
C2737 C 0.15637 0.49559 0.03087 0.0
C2738 C 0.14854 0.49911 0.01122 0.0
C2739 C 0.1361 0.51369 0.00898 0.0
C2740 C 0.13878 0.52152 0.04599 0.0
C2741 C 0.15121 0.50695 0.04822 0.0
C2742 C 0.11886 0.54159 0.02385 0.0
C2743 C 0.0437 0.49655 0.01058 0.0
H2744 H 0.95293 0.58103 0.05538 0.0
H2745 H 0.97423 0.55504 0.05514 0.0
H2746 H 0.97974 0.56031 0.98991 0.0
H2747 H 0.95798 0.58572 0.99001 0.0
H2748 H 0.15193 0.4905 0.9975 0.0
H2749 H 0.13061 0.51618 0.9936 0.0
H2750 H 0.1355 0.53024 0.0597 0.0
H2751 H 0.15718 0.50499 0.06359 0.0
H2752 H 0.05978 0.1721 0.97968 0.0
H2753 H 0.99186 0.14886 0.98295 0.0
H2754 H 0.99469 0.11376 0.99548 0.0
H2755 H 0.01646 0.08949 0.006 0.0
H2756 H 0.08446 0.11333 1.00336 0.0
H2757 H 0.08149 0.14819 0.99051 0.0
C2758 C 0.04555 0.15955 0.98334 0.0
C2759 C 0.02559 0.16345 0.98026 0.0
C2760 C 0.04729 0.13932 0.99076 0.0
C2761 C 1.00743 0.14649 0.98479 0.0
C2762 C 1.00904 0.12635 0.99213 0.0
C2763 C 0.03067 0.10227 1.00262 0.0
C2764 C 0.0507 0.09854 0.00574 0.0
C2765 C 0.02889 0.12253 0.9952 0.0
C2766 C 0.06883 0.11551 1.00121 0.0
C2767 C 0.06715 0.13556 0.99382 0.0
H2768 H 0.17865 0.78542 0.21473 0.0
H2769 H 0.2185 0.83471 0.17959 0.0
H2770 H 0.25013 0.83297 0.20033 0.0
H2771 H 0.26659 0.81697 0.22864 0.0
H2772 H 0.22557 0.76857 0.26398 0.0
H2773 H 0.19462 0.77034 0.24298 0.0
C2774 C 0.19426 0.79572 0.21151 0.0
C2775 C 0.19613 0.81007 0.1955 0.0
C2776 C 0.21232 0.79478 0.2236 0.0
C2777 C 0.21652 0.8236 0.19187 0.0
C2778 C 0.23465 0.82252 0.20369 0.0
C2779 C 0.25089 0.80683 0.23172 0.0
C2780 C 0.2486 0.79271 0.24803 0.0
C2781 C 0.23279 0.80812 0.21963 0.0
C2782 C 0.228 0.77976 0.25175 0.0
C2783 C 0.21016 0.78068 0.23967 0.0
H2784 H 0.51109 0.89538 0.47668 0.0
H2785 H 0.5718 0.89151 0.5016 0.0
H2786 H 0.58195 0.93116 0.51428 0.0
H2787 H 0.57375 0.9672 0.5185 0.0
H2788 H 0.51273 0.97085 0.49419 0.0
H2789 H 0.50265 0.93125 0.48139 0.0
C2790 C 0.52646 0.90307 0.48509 0.0
C2791 C 0.54062 0.89021 0.48803 0.0
C2792 C 0.53224 0.92603 0.4925 0.0
C2793 C 0.5606 0.90085 0.49874 0.0
C2794 C 0.56643 0.92359 0.50614 0.0
C2795 C 0.55825 0.95941 0.51036 0.0
C2796 C 0.5441 0.97225 0.50735 0.0
C2797 C 0.55243 0.93642 0.50305 0.0
C2798 C 0.52404 0.96159 0.49681 0.0
C2799 C 0.51821 0.93884 0.48945 0.0
H2800 H 0.51675 0.29965 0.72111 0.0
H2801 H 0.47899 0.27871 0.66297 0.0
H2802 H 0.44655 0.27383 0.68048 0.0
H2803 H 0.42868 0.27498 0.7124 0.0
H2804 H 0.46647 0.29602 0.77053 0.0
H2805 H 0.49889 0.30093 0.75301 0.0
C2806 C 0.50143 0.29383 0.71228 0.0
C2807 C 0.50043 0.28964 0.6907 0.0
C2808 C 0.48273 0.29097 0.72248 0.0
C2809 C 0.48035 0.2824 0.67953 0.0
C2810 C 0.46173 0.27947 0.68956 0.0
C2811 C 0.444 0.28084 0.72123 0.0
C2812 C 0.44501 0.285 0.74282 0.0
C2813 C 0.4627 0.28374 0.71103 0.0
C2814 C 0.46509 0.29232 0.75397 0.0
C2815 C 0.48371 0.29527 0.74394 0.0
H2816 H 0.05917 0.90017 0.57983 0.0
H2817 H 0.05269 0.92932 0.64001 0.0
H2818 H 0.05381 0.96449 0.62566 0.0
H2819 H 0.05618 0.9886 0.59564 0.0
H2820 H 0.06121 0.95878 0.5354 0.0
H2821 H 0.06086 0.92376 0.54997 0.0
C2822 C 0.05788 0.91398 0.59006 0.0
C2823 C 0.05617 0.91094 0.6116 0.0
C2824 C 0.05822 0.93493 0.58148 0.0
C2825 C 0.05462 0.93009 0.62373 0.0
C2826 C 0.05506 0.95069 0.61536 0.0
C2827 C 0.05729 0.97458 0.58556 0.0
C2828 C 0.05881 0.97731 0.56398 0.0
C2829 C 0.0569 0.95359 0.5942 0.0
C2830 C 0.06003 0.95811 0.55183 0.0
C2831 C 0.05983 0.93765 0.56027 0.0
H2832 H 0.41744 0.75396 0.85033 0.0
H2833 H 0.45586 0.8095 0.82025 0.0
H2834 H 0.42407 0.81445 0.80329 0.0
H2835 H 0.3843 0.80393 0.79627 0.0
H2836 H 0.34557 0.74931 0.8269 0.0
H2837 H 0.37755 0.74374 0.84369 0.0
C2838 C 0.41918 0.7673 0.84017 0.0
C2839 C 0.44026 0.78096 0.83689 0.0
C2840 C 0.40013 0.77049 0.83017 0.0
C2841 C 0.44083 0.79796 0.82328 0.0
C2842 C 0.42222 0.80108 0.81345 0.0
C2843 C 0.38264 0.79073 0.80659 0.0
C2844 C 0.36164 0.77714 0.8099 0.0
C2845 C 0.40162 0.78751 0.81661 0.0
C2846 C 0.36084 0.76029 0.82364 0.0
C2847 C 0.37945 0.75702 0.83342 0.0
H2848 H 0.54117 0.17328 0.07933 0.0
H2849 H 0.55036 0.15668 0.14164 0.0
H2850 H 0.55144 0.1195 0.12878 0.0
H2851 H 0.55001 0.09042 0.0996 0.0
H2852 H 0.54151 0.10756 0.03737 0.0
H2853 H 0.53987 0.14446 0.05031 0.0
C2854 C 0.54331 0.16162 0.09025 0.0
C2855 C 0.54583 0.16875 0.11178 0.0
C2856 C 0.54407 0.13967 0.08263 0.0
C2857 C 0.54873 0.15267 0.12512 0.0
C2858 C 0.54923 0.13097 0.1177 0.0
C2859 C 0.54775 0.10211 0.08877 0.0
C2860 C 0.54589 0.09537 0.06719 0.0
C2861 C 0.547 0.1241 0.09644 0.0
C2862 C 0.54308 0.11152 0.0539 0.0
C2863 C 0.5421 0.13297 0.06137 0.0
H2864 H 0.16323 0.26267 0.3208 0.0
H2865 H 0.18802 0.3236 0.36122 0.0
H2866 H 0.2228 0.32924 0.34839 0.0
H2867 H 0.24812 0.31736 0.32571 0.0
H2868 H 0.22364 0.25641 0.28546 0.0
H2869 H 0.18851 0.25085 0.29801 0.0
C2870 C 0.17606 0.27727 0.32703 0.0
C2871 C 0.1716 0.29271 0.34231 0.0
C2872 C 0.19701 0.28065 0.31941 0.0
C2873 C 0.18953 0.31132 0.34942 0.0
C2874 C 0.21003 0.3146 0.34205 0.0
C2875 C 0.23521 0.30282 0.31947 0.0
C2876 C 0.23959 0.28745 0.30413 0.0
C2877 C 0.21424 0.2995 0.32697 0.0
C2878 C 0.22176 0.26885 0.29694 0.0
C2879 C 0.20123 0.26555 0.30429 0.0
H2880 H 0.0214 0.08695 0.14847 0.0
H2881 H 0.95758 0.05279 0.12253 0.0
H2882 H 0.97089 0.04602 0.08929 0.0
H2883 H 1.00106 0.04608 0.06903 0.0
H2884 H 0.06493 0.08012 0.09521 0.0
H2885 H 0.05124 0.09066 0.12701 0.0
C2886 C 1.01044 0.07835 0.13539 0.0
C2887 C 0.98865 0.07018 0.13785 0.0
C2888 C 0.01823 0.07419 0.11655 0.0
C2889 C 0.97445 0.05931 0.12087 0.0
C2890 C 0.98206 0.05523 0.10197 0.0
C2891 C 1.01194 0.05588 0.08169 0.0
C2892 C 0.03395 0.06197 0.08 0.0
C2893 C 1.00397 0.06195 0.09987 0.0
C2894 C 0.04791 0.07512 0.09625 0.0
C2895 C 0.04011 0.08113 0.11443 0.0
H2896 H 0.28156 0.70143 0.47251 0.0
H2897 H 0.34335 0.75067 0.4817 0.0
H2898 H 0.33625 0.76662 0.44958 0.0
H2899 H 0.31197 0.76672 0.41927 0.0
H2900 H 0.25042 0.71685 0.41041 0.0
H2901 H 0.25788 0.70091 0.44218 0.0
C2902 C 0.29341 0.71578 0.46755 0.0
C2903 C 0.3128 0.72516 0.47952 0.0
C2904 C 0.28923 0.72467 0.4492 0.0
C2905 C 0.32828 0.7433 0.4727 0.0
C2906 C 0.32419 0.75242 0.45443 0.0
C2907 C 0.30018 0.75246 0.42442 0.0
C2908 C 0.28064 0.74301 0.41264 0.0
C2909 C 0.30464 0.74331 0.44264 0.0
C2910 C 0.26561 0.7243 0.4192 0.0
C2911 C 0.26983 0.71524 0.43736 0.0
H2912 H 0.57615 0.99516 0.65508 0.0
H2913 H 0.63565 0.99404 0.63175 0.0
H2914 H 0.62107 0.99477 0.59675 0.0
H2915 H 0.59463 1.00406 0.57426 0.0
H2916 H 0.53634 1.00896 0.59752 0.0
H2917 H 0.54711 0.99833 0.63111 0.0
C2918 C 0.58577 0.99469 0.64226 0.0
C2919 C 0.60711 0.99513 0.64604 0.0
C2920 C 0.57763 0.99622 0.62227 0.0
C2921 C 0.61922 0.99377 0.62931 0.0
C2922 C 0.61097 0.99446 0.60929 0.0
C2923 C 0.58412 1.00236 0.58662 0.0
C2924 C 0.56505 1.00779 0.58383 0.0
C2925 C 0.5907 0.99698 0.60582 0.0
C2926 C 0.5512 1.00501 0.59955 0.0
C2927 C 0.55743 0.9991 0.61872 0.0
H2928 H 0.33187 0.32603 0.92023 0.0
H2929 H 0.26334 0.30227 0.91704 0.0
H2930 H 0.262 0.2931 0.88008 0.0
H2931 H 0.27993 0.29182 0.84807 0.0
H2932 H 0.3484 0.31399 0.85112 0.0
H2933 H 0.34992 0.32326 0.8883 0.0
C2934 C 0.31659 0.3186 0.91161 0.0
C2935 C 0.29772 0.31525 0.92192 0.0
C2936 C 0.31584 0.31296 0.89003 0.0
C2937 C 0.27821 0.30573 0.90993 0.0
C2938 C 0.27738 0.30024 0.88861 0.0
C2939 C 0.29525 0.29864 0.8568 0.0
C2940 C 0.31404 0.30218 0.84645 0.0
C2941 C 0.29606 0.30388 0.87841 0.0
C2942 C 0.33363 0.31098 0.85837 0.0
C2943 C 0.33452 0.31635 0.87977 0.0
H2944 H 0.02712 0.0764 0.34327 0.0
H2945 H 0.01816 0.00989 0.31421 0.0
H2946 H 0.03559 0.99992 0.34467 0.0
H2947 H 0.04865 1.00844 0.38107 0.0
H2948 H 0.05669 0.07458 0.41068 0.0
H2949 H 0.04447 0.08647 0.37847 0.0
C2950 C 0.02953 0.05996 0.34347 0.0
C2951 C 0.02123 0.0438 0.32674 0.0
C2952 C 0.03908 0.05418 0.36121 0.0
C2953 C 0.02425 0.02246 0.32711 0.0
C2954 C 0.03415 0.01676 0.3445 0.0
C2955 C 0.04826 0.02562 0.38033 0.0
C2956 C 0.05326 0.04051 0.39825 0.0
C2957 C 0.04093 0.03222 0.36189 0.0
C2958 C 0.05251 0.06268 0.39713 0.0
C2959 C 0.04558 0.06951 0.37873 0.0
H2960 H 0.3318 0.72732 0.66192 0.0
H2961 H 0.30725 0.66351 0.68711 0.0
H2962 H 0.30296 0.68281 0.71972 0.0
H2963 H 0.30448 0.71781 0.74028 0.0
H2964 H 0.32827 0.78143 0.71424 0.0
H2965 H 0.33475 0.76216 0.68282 0.0
C2966 C 0.32591 0.71766 0.67469 0.0
C2967 C 0.31994 0.69407 0.6722 0.0
C2968 C 0.32319 0.72881 0.69317 0.0
C2969 C 0.31187 0.68171 0.6887 0.0
C2970 C 0.30942 0.69273 0.70731 0.0
C2971 C 0.31122 0.72748 0.72779 0.0
C2972 C 0.31575 0.75103 0.7296 0.0
C2973 C 0.31473 0.71628 0.7096 0.0
C2974 C 0.32446 0.76327 0.71325 0.0
C2975 C 0.32822 0.75229 0.69525 0.0
H2976 H 0.61722 0.04346 0.8549 0.0
H2977 H 0.55864 0.02577 0.81603 0.0
H2978 H 0.53855 0.02502 0.84656 0.0
H2979 H 0.53805 0.02971 0.88443 0.0
H2980 H 0.5971 0.04676 0.92267 0.0
H2981 H 0.61676 0.04748 0.89218 0.0
C2982 C 0.60006 0.03966 0.85315 0.0
C2983 C 0.58934 0.03498 0.83344 0.0
C2984 C 0.58879 0.03906 0.87059 0.0
C2985 C 0.56711 0.02949 0.8312 0.0
C2986 C 0.5557 0.0291 0.84858 0.0
C2987 C 0.55522 0.03361 0.88596 0.0
C2988 C 0.56618 0.03808 0.90562 0.0
C2989 C 0.56641 0.0339 0.86836 0.0
C2990 C 0.58838 0.04297 0.90762 0.0
C2991 C 0.59961 0.04351 0.89024 0.0
H2992 H 0.29495 0.35006 0.16071 0.0
H2993 H 0.28864 0.28254 0.13537 0.0
H2994 H 0.28745 0.26986 0.16989 0.0
H2995 H 0.28878 0.27757 0.20765 0.0
H2996 H 0.29454 0.34475 0.2333 0.0
H2997 H 0.29487 0.35749 0.1986 0.0
C2998 C 0.29307 0.33248 0.16258 0.0
C2999 C 0.29213 0.31748 0.14496 0.0
C3000 C 0.29218 0.32506 0.18278 0.0
C3001 C 0.28993 0.29482 0.14827 0.0
C3002 C 0.28905 0.28741 0.16816 0.0
C3003 C 0.2899 0.29499 0.20575 0.0
C3004 C 0.29154 0.31006 0.22343 0.0
C3005 C 0.29027 0.30234 0.18559 0.0
C3006 C 0.29313 0.33259 0.22027 0.0
C3007 C 0.29341 0.33996 0.2003 0.0
H3008 H 0.23858 0.99559 0.02995 0.0
H3009 H 0.1964 0.94297 0.0601 0.0
H3010 H 0.17531 0.96805 0.06935 0.0
H3011 H 0.16751 1.00387 0.06628 0.0
H3012 H 0.21041 0.05675 0.03678 0.0
H3013 H 0.2327 0.03256 0.02979 0.0
C3014 C 0.22479 0.98971 0.0386 0.0
C3015 C 0.21874 0.96751 0.04412 0.0
C3016 C 0.21293 1.00419 0.0439 0.0
C3017 C 0.20117 0.96005 0.05567 0.0
C3018 C 0.18915 0.97433 0.0609 0.0
C3019 C 0.18201 0.01032 0.05878 0.0
C3020 C 0.1872 0.03201 0.05189 0.0
C3021 C 0.19472 0.99632 0.0548 0.0
C3022 C 0.2059 0.03998 0.04193 0.0
C3023 C 0.21866 0.02619 0.03796 0.0
H3024 H 0.68852 0.60098 0.01562 0.0
H3025 H 0.68287 0.64926 0.06361 0.0
H3026 H 0.64723 0.62542 0.06879 0.0
H3027 H 0.61685 0.59144 0.05855 0.0
H3028 H 0.62246 0.54415 0.0096 0.0
H3029 H 0.65894 0.56666 0.0063 0.0
C3030 C 0.67961 0.60618 0.02739 0.0
C3031 C 0.68839 0.62695 0.03914 0.0
C3032 C 0.65906 0.59245 0.0302 0.0
C3033 C 0.67642 0.63352 0.05413 0.0
C3034 C 0.65607 0.61981 0.0572 0.0
C3035 C 0.62621 0.5859 0.04743 0.0
C3036 C 0.61695 0.56609 0.0344 0.0
C3037 C 0.64711 0.59931 0.04519 0.0
C3038 C 0.62918 0.55933 0.01981 0.0
C3039 C 0.65005 0.57223 0.01786 0.0
H3040 H 0.75218 0.4641 0.27617 0.0
H3041 H 0.77782 0.47977 0.33968 0.0
H3042 H 0.80366 0.45958 0.33328 0.0
H3043 H 0.81719 0.43533 0.31021 0.0
H3044 H 0.79098 0.41933 0.24693 0.0
H3045 H 0.7679 0.44294 0.25241 0.0
C3046 C 0.76369 0.46354 0.28853 0.0
C3047 C 0.76291 0.47323 0.30842 0.0
C3048 C 0.77856 0.45208 0.28473 0.0
C3049 C 0.77777 0.47202 0.32433 0.0
C3050 C 0.79266 0.46066 0.32065 0.0
C3051 C 0.80658 0.43724 0.29759 0.0
C3052 C 0.80566 0.42549 0.27826 0.0
C3053 C 0.79291 0.45027 0.301 0.0
C3054 C 0.79213 0.42836 0.26191 0.0
C3055 C 0.77873 0.44163 0.2651 0.0
H3056 H 0.91209 0.45339 0.53632 0.0
H3057 H 0.90599 0.5093 0.50353 0.0
H3058 H 0.94392 0.52845 0.51119 0.0
H3059 H 0.97884 0.52866 0.52615 0.0
H3060 H 0.98513 0.47225 0.55814 0.0
H3061 H 0.94699 0.45382 0.55169 0.0
C3062 C 0.91911 0.46968 0.5307 0.0
C3063 C 0.90633 0.47987 0.51927 0.0
C3064 C 0.94089 0.48047 0.535 0.0
C3065 C 0.91551 0.5012 0.51248 0.0
C3066 C 0.93718 0.5121 0.51677 0.0
C3067 C 0.97187 0.51239 0.53183 0.0
C3068 C 0.98479 0.50181 0.54258 0.0
C3069 C 0.95002 0.50182 0.52791 0.0
C3070 C 0.97552 0.48072 0.54979 0.0
C3071 C 0.95373 0.47016 0.54609 0.0
H3072 H 0.38348 0.12653 0.27626 0.0
H3073 H 0.36826 0.12043 0.33946 0.0
H3074 H 0.34179 0.14017 0.33397 0.0
H3075 H 0.32216 0.15789 0.31091 0.0
H3076 H 0.33709 0.16353 0.24762 0.0
H3077 H 0.36379 0.14409 0.25319 0.0
C3078 C 0.3743 0.12944 0.28881 0.0
C3079 C 0.37782 0.12206 0.30821 0.0
C3080 C 0.35876 0.14021 0.28542 0.0
C3081 C 0.3661 0.12629 0.32445 0.0
C3082 C 0.35078 0.1373 0.32127 0.0
C3083 C 0.3313 0.15488 0.29836 0.0
C3084 C 0.32765 0.16205 0.27889 0.0
C3085 C 0.34685 0.14412 0.30177 0.0
C3086 C 0.33937 0.15781 0.26266 0.0
C3087 C 0.3548 0.14696 0.26589 0.0
H3088 H 0.39224 0.13262 0.50424 0.0
H3089 H 0.39018 0.14024 0.57024 0.0
H3090 H 0.4153 0.11873 0.57476 0.0
H3091 H 0.43726 0.09675 0.56003 0.0
H3092 H 0.43875 0.08853 0.49403 0.0
H3093 H 0.41426 0.11082 0.48953 0.0
C3094 C 0.39712 0.12945 0.51962 0.0
C3095 C 0.38926 0.1382 0.53685 0.0
C3096 C 0.41147 0.1168 0.52215 0.0
C3097 C 0.39613 0.13411 0.55666 0.0
C3098 C 0.41044 0.12164 0.55929 0.0
C3099 C 0.4324 0.10002 0.54467 0.0
C3100 C 0.43985 0.09085 0.5274 0.0
C3101 C 0.4182 0.11285 0.54215 0.0
C3102 C 0.4331 0.09508 0.5076 0.0
C3103 C 0.41914 0.10793 0.505 0.0
H3104 H 0.71722 0.66782 0.32058 0.0
H3105 H 0.77364 0.64658 0.32807 0.0
H3106 H 0.79489 0.68209 0.31682 0.0
H3107 H 0.79718 0.71848 0.30304 0.0
H3108 H 0.73992 0.73752 0.29242 0.0
H3109 H 0.71921 0.70318 0.30597 0.0
C3110 C 0.73412 0.67076 0.31956 0.0
C3111 C 0.7437 0.65442 0.32518 0.0
C3112 C 0.7461 0.69072 0.31218 0.0
C3113 C 0.76578 0.65894 0.32425 0.0
C3114 C 0.77796 0.67916 0.31755 0.0
C3115 C 0.78017 0.71504 0.30367 0.0
C3116 C 0.77009 0.73041 0.29662 0.0
C3117 C 0.76824 0.69505 0.31121 0.0
C3118 C 0.74803 0.72579 0.29749 0.0
C3119 C 0.73618 0.70624 0.30537 0.0
H3120 H 0.87047 0.45143 0.81575 0.0
H3121 H 0.90454 0.44621 0.76234 0.0
H3122 H 0.88595 0.40582 0.75674 0.0
H3123 H 0.86031 0.37211 0.76735 0.0
H3124 H 0.82443 0.37765 0.81946 0.0
H3125 H 0.84328 0.41791 0.82528 0.0
C3126 C 0.87374 0.44133 0.80293 0.0
C3127 C 0.88885 0.45146 0.78953 0.0
C3128 C 0.86267 0.41833 0.7996 0.0
C3129 C 0.89292 0.43854 0.77279 0.0
C3130 C 0.88234 0.41554 0.76963 0.0
C3131 C 0.85665 0.38215 0.77999 0.0
C3132 C 0.84117 0.37199 0.79307 0.0
C3133 C 0.86724 0.40526 0.78298 0.0
C3134 C 0.83629 0.38518 0.80918 0.0
C3135 C 0.8471 0.40814 0.81255 0.0
H3136 H 0.05595 0.90079 0.0632 0.0
H3137 H 0.11617 0.93533 0.09693 0.0
H3138 H 0.11361 0.97119 0.08597 0.0
H3139 H 0.09393 0.99324 0.06712 0.0
H3140 H 0.03379 0.95818 0.03338 0.0
H3141 H 0.0366 0.92252 0.04425 0.0
C3142 C 0.06849 0.91614 0.06832 0.0
C3143 C 0.08624 0.91506 0.08097 0.0
C3144 C 0.06689 0.93687 0.06201 0.0
C3145 C 0.10242 0.93532 0.08702 0.0
C3146 C 0.1009 0.95599 0.08086 0.0
C3147 C 0.08139 0.97783 0.06219 0.0
C3148 C 0.06361 0.97867 0.04942 0.0
C3149 C 0.08316 0.95704 0.0684 0.0
C3150 C 0.04768 0.95831 0.04314 0.0
C3151 C 0.04926 0.93777 0.04938 0.0
H3152 H 0.90827 0.28434 0.87885 0.0
H3153 H 0.93613 0.2603 0.82743 0.0
H3154 H 0.90823 0.26554 0.80369 0.0
H3155 H 0.87622 0.27823 0.7973 0.0
H3156 H 0.85003 0.30371 0.84933 0.0
H3157 H 0.87697 0.29694 0.87267 0.0
C3158 C 0.90846 0.28041 0.86244 0.0
C3159 C 0.92451 0.27198 0.85511 0.0
C3160 C 0.89257 0.28384 0.8488 0.0
C3161 C 0.92395 0.26654 0.83372 0.0
C3162 C 0.90804 0.26972 0.82005 0.0
C3163 C 0.8764 0.28229 0.81373 0.0
C3164 C 0.8609 0.29149 0.82133 0.0
C3165 C 0.89229 0.27853 0.82737 0.0
C3166 C 0.86155 0.2966 0.84278 0.0
C3167 C 0.87705 0.29275 0.85629 0.0
H3168 H 0.55968 0.17668 0.58013 0.0
H3169 H 0.62515 0.19939 0.56651 0.0
H3170 H 0.62369 0.16078 0.55486 0.0
H3171 H 0.60361 0.12005 0.54863 0.0
H3172 H 0.5385 0.09802 0.56409 0.0
H3173 H 0.54009 0.13647 0.57477 0.0
C3174 C 0.57358 0.17322 0.57444 0.0
C3175 C 0.59244 0.19101 0.57408 0.0
C3176 C 0.57275 0.15089 0.56814 0.0
C3177 C 0.61042 0.18606 0.56701 0.0
C3178 C 0.60958 0.16394 0.56031 0.0
C3179 C 0.58981 0.12366 0.55439 0.0
C3180 C 0.571 0.10587 0.55554 0.0
C3181 C 0.59083 0.14612 0.56086 0.0
C3182 C 0.55331 0.11109 0.56311 0.0
C3183 C 0.55412 0.13321 0.56919 0.0
H3184 H 0.59862 0.79015 0.34173 0.0
H3185 H 0.62872 0.76941 0.39427 0.0
H3186 H 0.66016 0.77196 0.37577 0.0
H3187 H 0.67931 0.78025 0.34481 0.0
H3188 H 0.65024 0.80351 0.29316 0.0
H3189 H 0.61829 0.79969 0.31118 0.0
C3190 C 0.61212 0.78642 0.34926 0.0
C3191 C 0.61113 0.77948 0.36939 0.0
C3192 C 0.63038 0.78827 0.33865 0.0
C3193 C 0.62876 0.77438 0.37868 0.0
C3194 C 0.64687 0.77599 0.36816 0.0
C3195 C 0.66611 0.78474 0.33753 0.0
C3196 C 0.6673 0.7921 0.31756 0.0
C3197 C 0.64787 0.78294 0.34815 0.0
C3198 C 0.64976 0.79741 0.30833 0.0
C3199 C 0.63149 0.79542 0.31871 0.0
H3200 H 0.06427 0.15126 0.4455 0.0
H3201 H 0.03747 0.18325 0.49282 0.0
H3202 H 0.0356 0.15204 0.51396 0.0
H3203 H 0.04165 0.11467 0.52017 0.0
H3204 H 0.06799 0.08274 0.4724 0.0
H3205 H 0.06981 0.11396 0.45139 0.0
C3206 C 0.05805 0.1517 0.46045 0.0
C3207 C 0.05091 0.17049 0.4669 0.0
C3208 C 0.05687 0.1331 0.47299 0.0
C3209 C 0.04284 0.16958 0.4866 0.0
C3210 C 0.04186 0.15145 0.49904 0.0
C3211 C 0.04778 0.11435 0.50517 0.0
C3212 C 0.05469 0.09548 0.49845 0.0
C3213 C 0.04878 0.13292 0.49256 0.0
C3214 C 0.06248 0.09634 0.47863 0.0
C3215 C 0.06359 0.11452 0.46633 0.0
H3216 H 0.68489 0.3214 0.2235 0.0
H3217 H 0.64989 0.25301 0.23268 0.0
H3218 H 0.68224 0.2466 0.2466 0.0
H3219 H 0.72156 0.25957 0.25708 0.0
H3220 H 0.75666 0.32814 0.24933 0.0
H3221 H 0.72421 0.3347 0.23477 0.0
C3222 C 0.68402 0.305 0.22854 0.0
C3223 C 0.66379 0.28775 0.22612 0.0
C3224 C 0.70337 0.30118 0.2372 0.0
C3225 C 0.66434 0.26685 0.23322 0.0
C3226 C 0.68324 0.26306 0.2416 0.0
C3227 C 0.72234 0.27604 0.25223 0.0
C3228 C 0.7425 0.29322 0.25463 0.0
C3229 C 0.70304 0.27996 0.2437 0.0
C3230 C 0.7421 0.31429 0.24802 0.0
C3231 C 0.72321 0.31815 0.23953 0.0
H3232 H 0.57306 0.89845 0.9905 0.0
H3233 H 0.53437 0.90274 0.93612 0.0
H3234 H 0.52992 0.93749 0.95131 0.0
H3235 H 0.53656 0.96792 0.98022 0.0
H3236 H 0.57557 0.96421 0.03446 0.0
H3237 H 0.58017 0.92926 0.01929 0.0
C3238 C 0.56369 0.90687 0.98176 0.0
C3239 C 0.55387 0.89678 0.96185 0.0
C3240 C 0.56112 0.92763 0.99074 0.0
C3241 C 0.54184 0.90885 0.95145 0.0
C3242 C 0.53935 0.92923 0.96018 0.0
C3243 C 0.5461 0.95959 0.98886 0.0
C3244 C 0.55561 0.96947 0.00887 0.0
C3245 C 0.54878 0.93892 0.97989 0.0
C3246 C 0.5679 0.95771 0.01925 0.0
C3247 C 0.57058 0.9374 0.01047 0.0
H3248 H 0.94305 0.81349 0.74866 0.0
H3249 H 0.91699 0.75645 0.70388 0.0
H3250 H 0.88184 0.75176 0.71557 0.0
H3251 H 0.85664 0.76348 0.73851 0.0
H3252 H 0.88258 0.82063 0.78306 0.0
H3253 H 0.91796 0.82519 0.77155 0.0
C3254 C 0.92985 0.79997 0.74123 0.0
C3255 C 0.93399 0.78526 0.72512 0.0
C3256 C 0.90874 0.79718 0.74815 0.0
C3257 C 0.91564 0.76802 0.71641 0.0
C3258 C 0.89496 0.76533 0.7231 0.0
C3259 C 0.86992 0.77697 0.74589 0.0
C3260 C 0.86591 0.7916 0.7621 0.0
C3261 C 0.89105 0.77969 0.73903 0.0
C3262 C 0.88418 0.80884 0.77081 0.0
C3263 C 0.90485 0.81156 0.7641 0.0
H3264 H 0.09707 1.0044 0.90639 0.0
H3265 H 0.16028 0.02914 0.93693 0.0
H3266 H 0.14548 0.03121 0.97022 0.0
H3267 H 0.11466 0.02998 0.98983 0.0
H3268 H 0.0516 1.00746 0.95854 0.0
H3269 H 0.0663 1.00071 0.92625 0.0
C3270 C 0.10759 0.0102 0.92036 0.0
C3271 C 0.12967 0.01694 0.91925 0.0
C3272 C 0.09902 0.01196 0.93922 0.0
C3273 C 0.14319 0.02384 0.93746 0.0
C3274 C 0.13475 0.02519 0.95644 0.0
C3275 C 0.10412 0.02332 0.976 0.0
C3276 C 0.08211 0.01949 0.97649 0.0
C3277 C 0.11269 0.01989 0.95739 0.0
C3278 C 0.06863 0.01083 0.95849 0.0
C3279 C 0.07701 1.00693 0.94002 0.0
H3280 H 0.77322 0.34285 0.59961 0.0
H3281 H 0.80835 0.30863 0.56283 0.0
H3282 H 0.81794 0.29155 0.59311 0.0
H3283 H 0.81922 0.28939 0.63075 0.0
H3284 H 0.78404 0.3238 0.66713 0.0
H3285 H 0.77102 0.33716 0.63618 0.0
C3286 C 0.78246 0.33116 0.59802 0.0
C3287 C 0.79028 0.32729 0.57901 0.0
C3288 C 0.78798 0.32148 0.61548 0.0
C3289 C 0.80248 0.31228 0.57738 0.0
C3290 C 0.80794 0.30246 0.59468 0.0
C3291 C 0.8085 0.29959 0.63179 0.0
C3292 C 0.80257 0.3056 0.65113 0.0
C3293 C 0.80131 0.30749 0.61393 0.0
C3294 C 0.78856 0.31868 0.65235 0.0
C3295 C 0.78128 0.32651 0.63469 0.0
H3296 H 0.51675 0.08615 0.41804 0.0
H3297 H 0.54415 0.03797 0.39008 0.0
H3298 H 0.56432 0.03769 0.42275 0.0
H3299 H 0.56791 0.04513 0.46027 0.0
H3300 H 0.53676 0.08977 0.48882 0.0
H3301 H 0.52448 0.09778 0.45496 0.0
C3302 C 0.52782 0.07633 0.41902 0.0
C3303 C 0.52915 0.06215 0.40195 0.0
C3304 C 0.53824 0.07525 0.43806 0.0
C3305 C 0.54311 0.04907 0.4032 0.0
C3306 C 0.55442 0.04875 0.42187 0.0
C3307 C 0.5589 0.05704 0.45907 0.0
C3308 C 0.55286 0.0665 0.47692 0.0
C3309 C 0.55117 0.06083 0.43961 0.0
C3310 C 0.54124 0.08196 0.47521 0.0
C3311 C 0.53423 0.08656 0.45588 0.0
H3312 H 0.79219 0.77931 0.14069 0.0
H3313 H 0.82951 0.73358 0.14837 0.0
H3314 H 0.83047 0.74006 0.18562 0.0
H3315 H 0.8203 0.75813 0.21663 0.0
H3316 H 0.78168 0.80252 0.20891 0.0
H3317 H 0.78145 0.79676 0.17158 0.0
C3318 C 0.80042 0.77055 0.1504 0.0
C3319 C 0.81095 0.7561 0.14123 0.0
C3320 C 0.80062 0.77401 0.17213 0.0
C3321 C 0.82166 0.74526 0.15453 0.0
C3322 C 0.82207 0.74877 0.17604 0.0
C3323 C 0.81179 0.76655 0.20683 0.0
C3324 C 0.80099 0.78075 0.2159 0.0
C3325 C 0.81158 0.76308 0.18509 0.0
C3326 C 0.79012 0.79144 0.20266 0.0
C3327 C 0.78998 0.78818 0.18116 0.0
H3328 H 0.0875 0.05399 0.7386 0.0
H3329 H 0.07923 0.98408 0.72008 0.0
H3330 H 0.05647 0.986 0.68985 0.0
H3331 H 0.04383 1.00894 0.66605 0.0
H3332 H 0.05762 0.08032 0.68221 0.0
H3333 H 0.0725 0.0762 0.7161 0.0
C3334 C 0.08071 0.03913 0.72798 0.0
C3335 C 0.08551 0.01908 0.7314 0.0
C3336 C 0.06853 0.04063 0.71011 0.0
C3337 C 0.07588 0.99977 0.71788 0.0
C3338 C 0.06297 1.0009 0.70046 0.0
C3339 C 0.05004 0.02364 0.67696 0.0
C3340 C 0.05 0.04499 0.67119 0.0
C3341 C 0.05997 0.02148 0.69599 0.0
C3342 C 0.05727 0.06361 0.68599 0.0
C3343 C 0.06613 0.06135 0.70539 0.0
H3344 H 0.75074 0.33937 0.39033 0.0
H3345 H 0.80661 0.39644 0.38983 0.0
H3346 H 0.81598 0.37985 0.35834 0.0
H3347 H 0.81015 0.34765 0.33284 0.0
H3348 H 0.75502 0.28986 0.33408 0.0
H3349 H 0.74387 0.30801 0.36368 0.0
C3350 C 0.76492 0.34821 0.38328 0.0
C3351 C 0.77795 0.36906 0.39248 0.0
C3352 C 0.77059 0.33828 0.36552 0.0
C3353 C 0.7961 0.3805 0.38295 0.0
C3354 C 0.80164 0.3709 0.36506 0.0
C3355 C 0.79561 0.33907 0.33945 0.0
C3356 C 0.78357 0.31736 0.33132 0.0
C3357 C 0.78928 0.34957 0.3565 0.0
C3358 C 0.76473 0.30652 0.34011 0.0
C3359 C 0.75828 0.3169 0.35702 0.0
H3360 H 0.49405 0.99706 0.23583 0.0
H3361 H 0.44326 0.01213 0.20057 0.0
H3362 H 0.46144 0.01077 0.16924 0.0
H3363 H 0.49249 1.00707 0.15236 0.0
H3364 H 0.54249 0.99043 0.18745 0.0
H3365 H 0.52369 0.99051 0.2185 0.0
C3366 C 0.48668 0.99955 0.22124 0.0
C3367 C 0.46732 1.00469 0.22055 0.0
C3368 C 0.49713 0.99862 0.20334 0.0
C3369 C 0.45828 1.00841 0.20156 0.0
C3370 C 0.46861 1.00755 0.18364 0.0
C3371 C 0.4991 1.00301 0.1667 0.0
C3372 C 0.5189 0.99882 0.1676 0.0
C3373 C 0.48815 1.00292 0.18442 0.0
C3374 C 0.52743 0.99404 0.18641 0.0
C3375 C 0.51665 0.99398 0.20414 0.0
H3376 H 0.81104 0.727 0.90416 0.0
H3377 H 0.8037 0.78948 0.93014 0.0
H3378 H 0.80561 0.80369 0.89626 0.0
H3379 H 0.8082 0.79841 0.85879 0.0
H3380 H 0.81328 0.73527 0.83225 0.0
H3381 H 0.81302 0.72143 0.8665 0.0
C3382 C 0.80962 0.74366 0.90256 0.0
C3383 C 0.80733 0.75701 0.92024 0.0
C3384 C 0.81026 0.75174 0.88268 0.0
C3385 C 0.80593 0.77874 0.91732 0.0
C3386 C 0.80683 0.78692 0.89774 0.0
C3387 C 0.80944 0.78166 0.86043 0.0
C3388 C 0.81092 0.76805 0.84269 0.0
C3389 C 0.80894 0.7736 0.88027 0.0
C3390 C 0.8122 0.74627 0.8454 0.0
C3391 C 0.81202 0.7383 0.86509 0.0
H3392 H 0.88904 0.10045 1.00484 0.0
H3393 H 0.84793 0.04484 0.03266 0.0
H3394 H 0.87095 0.02175 0.0242 0.0
H3395 H 0.90485 0.01899 0.01228 0.0
H3396 H 0.94635 0.07535 0.98584 0.0
H3397 H 0.92076 0.09641 0.98982 0.0
C3398 C 0.88481 0.0831 0.00859 0.0
C3399 C 0.86693 0.0744 0.01948 0.0
C3400 C 0.89821 0.07011 1.00395 0.0
C3401 C 0.86183 0.052 0.02454 0.0
C3402 C 0.87493 0.03879 0.01965 0.0
C3403 C 0.90794 0.03566 0.00695 0.0
C3404 C 0.92733 0.04575 0.99888 0.0
C3405 C 0.89346 0.04788 0.00985 0.0
C3406 C 0.93146 0.06742 0.99219 0.0
C3407 C 0.91692 0.07945 0.99453 0.0
H3408 H 0.4113 0.47424 0.0357 0.0
H3409 H 0.42943 0.41313 0.03573 0.0
H3410 H 0.46619 0.43438 0.03285 0.0
H3411 H 0.49334 0.46996 0.03023 0.0
H3412 H 0.47665 0.53181 0.03244 0.0
H3413 H 0.43928 0.51065 0.03488 0.0
C3414 C 0.42329 0.46558 0.03531 0.0
C3415 C 0.41732 0.44194 0.03559 0.0
C3416 C 0.44472 0.47803 0.03405 0.0
C3417 C 0.43325 0.43114 0.03496 0.0
C3418 C 0.4544 0.44331 0.03347 0.0
C3419 C 0.48155 0.47888 0.03114 0.0
C3420 C 0.48776 0.50243 0.03091 0.0
C3421 C 0.46029 0.4667 0.03286 0.0
C3422 C 0.47229 0.51368 0.03251 0.0
C3423 C 0.45092 0.50158 0.03389 0.0
H3424 H 0.38232 0.63991 0.80601 0.0
H3425 H 0.34151 0.59101 0.75996 0.0
H3426 H 0.3116 0.60473 0.76773 0.0
H3427 H 0.29798 0.63268 0.78537 0.0
H3428 H 0.33936 0.68331 0.82975 0.0
H3429 H 0.3678 0.6662 0.82563 0.0
C3430 C 0.3668 0.6321 0.79792 0.0
C3431 C 0.36414 0.61479 0.78223 0.0
C3432 C 0.34974 0.64024 0.8023 0.0
C3433 C 0.34399 0.60474 0.77179 0.0
C3434 C 0.32687 0.61246 0.77631 0.0
C3435 C 0.31317 0.63985 0.79427 0.0
C3436 C 0.31659 0.65934 0.80767 0.0
C3437 C 0.32971 0.63054 0.79117 0.0
C3438 C 0.33621 0.66817 0.81945 0.0
C3439 C 0.35259 0.65858 0.8169 0.0
H3440 H 0.18821 0.58318 0.57283 0.0
H3441 H 0.19031 0.59187 0.50787 0.0
H3442 H 0.15163 0.57602 0.50276 0.0
H3443 H 0.117 0.56115 0.51726 0.0
H3444 H 0.11589 0.55441 0.58274 0.0
H3445 H 0.15433 0.56847 0.58711 0.0
C3446 C 0.18021 0.58182 0.55757 0.0
C3447 C 0.19207 0.58888 0.54082 0.0
C3448 C 0.1581 0.57319 0.55484 0.0
C3449 C 0.18153 0.58642 0.52103 0.0
C3450 C 0.15941 0.57751 0.51812 0.0
C3451 C 0.1252 0.56275 0.53245 0.0
C3452 C 0.11354 0.55687 0.54962 0.0
C3453 C 0.14749 0.57106 0.53498 0.0
C3454 C 0.1244 0.55899 0.56923 0.0
C3455 C 0.14643 0.56697 0.57179 0.0
H3456 H 0.76168 0.98719 0.78514 0.0
H3457 H 0.70476 0.93733 0.79936 0.0
H3458 H 0.72563 0.91283 0.80962 0.0
H3459 H 0.75936 0.9041 0.81126 0.0
H3460 H 0.81615 0.95286 0.79546 0.0
H3461 H 0.7961 0.97953 0.78938 0.0
C3462 C 0.7539 0.97098 0.79054 0.0
C3463 C 0.73173 0.96394 0.79129 0.0
C3464 C 0.76594 0.95684 0.79609 0.0
C3465 C 0.72183 0.94313 0.79874 0.0
C3466 C 0.73372 0.92908 0.80448 0.0
C3467 C 0.76734 0.92065 0.80663 0.0
C3468 C 0.78905 0.92649 0.8035 0.0
C3469 C 0.75567 0.93555 0.80275 0.0
C3470 C 0.79941 0.94808 0.79796 0.0
C3471 C 0.78793 0.96321 0.79433 0.0
H3472 H 0.73975 0.96202 0.55488 0.0
H3473 H 0.70253 0.91196 0.50766 0.0
H3474 H 0.67657 0.93269 0.50438 0.0
H3475 H 0.66462 0.96548 0.51442 0.0
H3476 H 0.70164 0.01524 0.56195 0.0
H3477 H 0.72726 0.99414 0.56565 0.0
C3478 C 0.72585 0.95547 0.54402 0.0
C3479 C 0.72326 0.93541 0.53149 0.0
C3480 C 0.71088 0.96749 0.54222 0.0
C3481 C 0.70522 0.92748 0.5173 0.0
C3482 C 0.69025 0.93928 0.51549 0.0
C3483 C 0.67815 0.97159 0.52576 0.0
C3484 C 0.68116 0.99204 0.53782 0.0
C3485 C 0.69294 0.95936 0.5278 0.0
C3486 C 0.69901 0.99977 0.55224 0.0
C3487 C 0.71366 0.98764 0.55444 0.0
H3488 H 0.39675 0.42119 0.75067 0.0
H3489 H 0.34131 0.443 0.75877 0.0
H3490 H 0.32113 0.40502 0.76572 0.0
H3491 H 0.3197 0.36613 0.77082 0.0
H3492 H 0.37502 0.34416 0.7622 0.0
H3493 H 0.39472 0.38173 0.75387 0.0
C3494 C 0.38014 0.41753 0.75357 0.0
C3495 C 0.37056 0.43487 0.75431 0.0
C3496 C 0.36867 0.39572 0.75759 0.0
C3497 C 0.34911 0.42996 0.75839 0.0
C3498 C 0.33756 0.40828 0.76233 0.0
C3499 C 0.33607 0.36955 0.76713 0.0
C3500 C 0.34593 0.35244 0.76732 0.0
C3501 C 0.34728 0.39112 0.76228 0.0
C3502 C 0.36706 0.35706 0.76223 0.0
C3503 C 0.37836 0.37853 0.75746 0.0
H3504 H 0.22454 0.64588 0.23711 0.0
H3505 H 0.22681 0.63196 0.30094 0.0
H3506 H 0.2504 0.66997 0.31062 0.0
H3507 H 0.2691 0.70762 0.30107 0.0
H3508 H 0.26695 0.72129 0.23705 0.0
H3509 H 0.24463 0.68294 0.22735 0.0
C3510 C 0.23023 0.65123 0.25312 0.0
C3511 C 0.22394 0.63629 0.2683 0.0
C3512 C 0.24376 0.67304 0.25855 0.0
C3513 C 0.23161 0.64321 0.28897 0.0
C3514 C 0.24499 0.66494 0.29453 0.0
C3515 C 0.26385 0.70217 0.28499 0.0
C3516 C 0.26958 0.71734 0.26986 0.0
C3517 C 0.25101 0.68006 0.27947 0.0
C3518 C 0.26276 0.70998 0.24905 0.0
C3519 C 0.24994 0.68804 0.24346 0.0
H3520 H 0.55039 0.68021 0.50845 0.0
H3521 H 0.49842 0.64099 0.46564 0.0
H3522 H 0.50367 0.6063 0.47697 0.0
H3523 H 0.52373 0.58675 0.49851 0.0
H3524 H 0.57543 0.62641 0.5415 0.0
H3525 H 0.56967 0.66085 0.53051 0.0
C3526 C 0.54023 0.66411 0.5015 0.0
C3527 C 0.52401 0.66347 0.4861 0.0
C3528 C 0.54335 0.64408 0.50809 0.0
C3529 C 0.51086 0.64224 0.47764 0.0
C3530 C 0.51396 0.62228 0.48403 0.0
C3531 C 0.53375 0.60291 0.50549 0.0
C3532 C 0.55009 0.60374 0.52084 0.0
C3533 C 0.53025 0.62294 0.49917 0.0
C3534 C 0.56272 0.625 0.52972 0.0
C3535 C 0.55946 0.64484 0.52341 0.0
H3536 H 0.69339 0.32365 0.72212 0.0
H3537 H 0.72051 0.31043 0.66596 0.0
H3538 H 0.75245 0.30864 0.68583 0.0
H3539 H 0.77256 0.30995 0.71935 0.0
H3540 H 0.74452 0.32155 0.77545 0.0
H3541 H 0.7135 0.32525 0.7555 0.0
C3542 C 0.70641 0.3207 0.71421 0.0
C3543 C 0.70446 0.31721 0.69253 0.0
C3544 C 0.72472 0.31945 0.72576 0.0
C3545 C 0.72143 0.31301 0.68261 0.0
C3546 C 0.73979 0.31209 0.69397 0.0
C3547 C 0.75975 0.31347 0.72721 0.0
C3548 C 0.76099 0.31546 0.74894 0.0
C3549 C 0.7416 0.31514 0.71559 0.0
C3550 C 0.74406 0.31982 0.75878 0.0
C3551 C 0.72625 0.32197 0.74737 0.0
H3552 H 1.01112 0.38999 0.99321 0.0
H3553 H 0.07045 0.4031 0.96485 0.0
H3554 H 0.07799 0.44316 0.97415 0.0
H3555 H 0.06793 0.47486 0.99001 0.0
H3556 H 1.00819 0.46242 0.01742 0.0
H3557 H 1.00059 0.42205 0.00843 0.0
C3558 C 0.02564 0.40155 0.98889 0.0
C3559 C 0.04025 0.39312 0.97848 0.0
C3560 C 0.02982 0.4249 0.994 0.0
C3561 C 0.05906 0.40868 0.97329 0.0
C3562 C 0.06334 0.43178 0.97843 0.0
C3563 C 0.05318 0.4634 0.99399 0.0
C3564 C 0.03867 0.47191 1.0044 0.0
C3565 C 0.04887 0.44011 0.98878 0.0
C3566 C 0.01968 0.45656 0.00938 0.0
C3567 C 1.01532 0.43337 1.00427 0.0
H3568 H 0.97565 0.77705 0.17982 0.0
H3569 H 0.02092 0.8217 0.22578 0.0
H3570 H 0.99248 0.82157 0.24794 0.0
H3571 H 0.95464 0.80915 0.25431 0.0
H3572 H 0.90929 0.76495 0.2082 0.0
H3573 H 0.93773 0.76511 0.18596 0.0
C3574 C 0.97932 0.78695 0.19458 0.0
C3575 C 1.00056 0.79926 0.20105 0.0
C3576 C 0.9628 0.78704 0.20725 0.0
C3577 C 1.00488 0.81171 0.22044 0.0
C3578 C 0.98856 0.8118 0.23312 0.0
C3579 C 0.95097 0.79942 0.23946 0.0
C3580 C 0.92975 0.78707 0.23302 0.0
C3581 C 0.96746 0.79949 0.22672 0.0
C3582 C 0.92535 0.77486 0.21352 0.0
C3583 C 0.94166 0.77482 0.20081 0.0
H3584 H 0.54936 0.42537 0.12339 0.0
H3585 H 0.56271 0.38598 0.07195 0.0
H3586 H 0.56387 0.4163 0.05017 0.0
H3587 H 0.56128 0.45502 0.04442 0.0
H3588 H 0.54893 0.49485 0.09594 0.0
H3589 H 0.54761 0.46435 0.11791 0.0
C3590 C 0.55265 0.42314 0.10747 0.0
C3591 C 0.55555 0.40213 0.09997 0.0
C3592 C 0.55362 0.44136 0.09446 0.0
C3593 C 0.55973 0.40084 0.07888 0.0
C3594 C 0.56064 0.41864 0.0661 0.0
C3595 C 0.55836 0.45726 0.06046 0.0
C3596 C 0.55526 0.4781 0.06798 0.0
C3597 C 0.55757 0.43912 0.07352 0.0
C3598 C 0.55146 0.47966 0.0891 0.0
C3599 C 0.55066 0.46191 0.10193 0.0
H3600 H 0.91873 0.25726 0.35166 0.0
H3601 H 0.95702 0.31014 0.31863 0.0
H3602 H 0.9251 0.31505 0.30179 0.0
H3603 H 0.88529 0.30498 0.29542 0.0
H3604 H 0.84668 0.25185 0.32776 0.0
H3605 H 0.87873 0.24672 0.34484 0.0
C3606 C 0.92039 0.26989 0.34076 0.0
C3607 C 0.94145 0.28347 0.33726 0.0
C3608 C 0.90127 0.27276 0.33052 0.0
C3609 C 0.94195 0.29956 0.32272 0.0
C3610 C 0.92329 0.30236 0.31267 0.0
C3611 C 0.88366 0.2922 0.30619 0.0
C3612 C 0.86265 0.27895 0.30991 0.0
C3613 C 0.9027 0.28921 0.31636 0.0
C3614 C 0.86193 0.2626 0.32418 0.0
C3615 C 0.88059 0.25957 0.33414 0.0
H3616 H 0.046 0.65417 0.63209 0.0
H3617 H 0.04379 0.68624 0.57577 0.0
H3618 H 0.04449 0.65208 0.55585 0.0
H3619 H 0.04591 0.61229 0.55353 0.0
H3620 H 0.04704 0.57965 0.60961 0.0
H3621 H 0.04671 0.61399 0.62973 0.0
C3622 C 0.04574 0.6539 0.61546 0.0
C3623 C 0.04469 0.67358 0.60586 0.0
C3624 C 0.04598 0.63359 0.60367 0.0
C3625 C 0.04421 0.67192 0.58408 0.0
C3626 C 0.04476 0.65213 0.57247 0.0
C3627 C 0.04608 0.61253 0.57016 0.0
C3628 C 0.04655 0.59267 0.57966 0.0
C3629 C 0.04562 0.63271 0.58196 0.0
C3630 C 0.04665 0.59408 0.60141 0.0
C3631 C 0.04649 0.614 0.61311 0.0
H3632 H 0.6855 0.81692 0.84144 0.0
H3633 H 0.65752 0.74492 0.83309 0.0
H3634 H 0.6888 0.7412 0.81712 0.0
H3635 H 0.72545 0.75771 0.80498 0.0
H3636 H 0.75332 0.82968 0.81292 0.0
H3637 H 0.72194 0.83348 0.82895 0.0
C3638 C 0.686 0.80026 0.83625 0.0
C3639 C 0.6679 0.78128 0.83883 0.0
C3640 C 0.70472 0.79801 0.82663 0.0
C3641 C 0.67007 0.7602 0.83145 0.0
C3642 C 0.68845 0.75794 0.82222 0.0
C3643 C 0.72485 0.77435 0.81009 0.0
C3644 C 0.74274 0.79337 0.80723 0.0
C3645 C 0.70606 0.77664 0.81956 0.0
C3646 C 0.74057 0.81448 0.81442 0.0
C3647 C 0.72228 0.81674 0.82381 0.0
H3648 H 0.51359 0.56644 0.66005 0.0
H3649 H 0.45339 0.55493 0.62492 0.0
H3650 H 0.46989 0.55015 0.59295 0.0
H3651 H 0.50159 0.5488 0.57524 0.0
H3652 H 0.56145 0.56047 0.61139 0.0
H3653 H 0.54488 0.56591 0.64268 0.0
C3654 C 0.50413 0.5633 0.64537 0.0
C3655 C 0.48239 0.56129 0.6448 0.0
C3656 C 0.51364 0.56051 0.62725 0.0
C3657 C 0.47019 0.55653 0.62572 0.0
C3658 C 0.47962 0.55384 0.60748 0.0
C3659 C 0.51099 0.55257 0.58996 0.0
C3660 C 0.53272 0.55416 0.5909 0.0
C3661 C 0.50134 0.55568 0.60808 0.0
C3662 C 0.54468 0.55907 0.61013 0.0
C3663 C 0.53525 0.56222 0.62809 0.0
H3664 H 0.8175 0.26524 0.98843 0.0
H3665 H 0.82522 0.20565 0.95664 0.0
H3666 H 0.81809 0.21907 0.92355 0.0
H3667 H 0.80725 0.24625 0.90377 0.0
H3668 H 0.79969 0.30614 0.93513 0.0
H3669 H 0.80842 0.29363 0.96831 0.0
C3670 C 0.81773 0.25528 0.97424 0.0
C3671 C 0.82198 0.23454 0.97502 0.0
C3672 C 0.81324 0.2629 0.95522 0.0
C3673 C 0.82239 0.22188 0.9565 0.0
C3674 C 0.81807 0.2294 0.93756 0.0
C3675 C 0.80784 0.2568 0.9178 0.0
C3676 C 0.80274 0.27708 0.9169 0.0
C3677 C 0.81317 0.24971 0.93676 0.0
C3678 C 0.80318 0.29026 0.93535 0.0
C3679 C 0.80835 0.28322 0.95433 0.0
H3680 H 0.06726 0.52212 0.15551 0.0
H3681 H 0.09315 0.46916 0.13507 0.0
H3682 H 0.08187 0.47239 0.09937 0.0
H3683 H 0.0686 0.49339 0.07403 0.0
H3684 H 0.04241 0.54598 0.09469 0.0
H3685 H 0.04931 0.5392 0.1305 0.0
C3686 C 0.06987 0.51074 0.14337 0.0
C3687 C 0.08134 0.49567 0.14791 0.0
C3688 C 0.06344 0.51274 0.12297 0.0
C3689 C 0.08477 0.48127 0.13191 0.0
C3690 C 0.07829 0.48306 0.11152 0.0
C3691 C 0.06419 0.50318 0.08639 0.0
C3692 C 0.05543 0.52043 0.08186 0.0
C3693 C 0.06832 0.4993 0.10686 0.0
C3694 C 0.04932 0.53269 0.09788 0.0
C3695 C 0.05333 0.52889 0.11833 0.0
H3696 H 0.7771 0.81042 0.41448 0.0
H3697 H 0.84518 0.83744 0.42613 0.0
H3698 H 0.84931 0.83055 0.38963 0.0
H3699 H 0.83364 0.81756 0.35356 0.0
H3700 H 0.76538 0.79193 0.34244 0.0
H3701 H 0.76158 0.79789 0.37895 0.0
C3702 C 0.7929 0.81504 0.40916 0.0
C3703 C 0.81074 0.82441 0.42356 0.0
C3704 C 0.79525 0.81133 0.38786 0.0
C3705 C 0.83101 0.82981 0.41589 0.0
C3706 C 0.83344 0.82604 0.39479 0.0
C3707 C 0.81793 0.81321 0.3591 0.0
C3708 C 0.79988 0.80428 0.34484 0.0
C3709 C 0.81569 0.81684 0.38052 0.0
C3710 C 0.7797 0.79888 0.35266 0.0
C3711 C 0.77742 0.80228 0.37373 0.0
H3712 H 0.54263 0.54214 0.82578 0.0
H3713 H 0.50967 0.58374 0.8565 0.0
H3714 H 0.52482 0.57784 0.88975 0.0
H3715 H 0.54295 0.55656 0.9103 0.0
H3716 H 0.57303 0.51197 0.88008 0.0
H3717 H 0.56305 0.52292 0.84646 0.0
C3718 C 0.53877 0.54998 0.83972 0.0
C3719 C 0.52479 0.56318 0.83849 0.0
C3720 C 0.54674 0.54567 0.85894 0.0
C3721 C 0.52052 0.57369 0.85678 0.0
C3722 C 0.52898 0.57011 0.87591 0.0
C3723 C 0.5478 0.54967 0.89639 0.0
C3724 C 0.55867 0.53347 0.89762 0.0
C3725 C 0.5415 0.55554 0.87719 0.0
C3726 C 0.56451 0.52436 0.87946 0.0
C3727 C 0.55882 0.53061 0.86028 0.0
H3728 H 0.83236 0.23312 0.1596 0.0
H3729 H 0.81385 0.16866 0.18475 0.0
H3730 H 0.80959 0.1868 0.21795 0.0
H3731 H 0.80923 0.22084 0.23908 0.0
H3732 H 0.82742 0.28504 0.21315 0.0
H3733 H 0.83397 0.26709 0.18109 0.0
C3734 C 0.82786 0.22307 0.17246 0.0
C3735 C 0.82349 0.19961 0.16975 0.0
C3736 C 0.82522 0.23354 0.19132 0.0
C3737 C 0.81717 0.18676 0.18644 0.0
C3738 C 0.81475 0.19712 0.20541 0.0
C3739 C 0.81477 0.23093 0.22648 0.0
C3740 C 0.81765 0.25424 0.22852 0.0
C3741 C 0.81838 0.22047 0.20791 0.0
C3742 C 0.82489 0.26705 0.21201 0.0
C3743 C 0.82868 0.25681 0.19363 0.0
H3744 H 0.06142 0.53428 0.33508 0.0
H3745 H 0.0844 0.47962 0.3527 0.0
H3746 H 0.06958 0.48093 0.38599 0.0
H3747 H 0.05495 0.50134 0.41171 0.0
H3748 H 0.03605 0.55896 0.39513 0.0
H3749 H 0.04422 0.55265 0.35977 0.0
C3750 C 0.06303 0.52254 0.34617 0.0
C3751 C 0.07433 0.5072 0.34167 0.0
C3752 C 0.05538 0.52409 0.36553 0.0
C3753 C 0.07577 0.49161 0.35584 0.0
C3754 C 0.06749 0.49251 0.37495 0.0
C3755 C 0.05257 0.51247 0.40033 0.0
C3756 C 0.04524 0.53079 0.40611 0.0
C3757 C 0.05809 0.5093 0.38024 0.0
C3758 C 0.04161 0.54468 0.39109 0.0
C3759 C 0.04643 0.5412 0.37089 0.0
H3760 H 0.80202 0.85325 0.66107 0.0
H3761 H 0.78884 0.78496 0.63445 0.0
H3762 H 0.78624 0.77152 0.66875 0.0
H3763 H 0.78829 0.77887 0.70676 0.0
H3764 H 0.80173 0.84716 0.73339 0.0
H3765 H 0.80319 0.86051 0.69898 0.0
C3766 C 0.79835 0.83538 0.66264 0.0
C3767 C 0.79577 0.8203 0.64476 0.0
C3768 C 0.79681 0.8276 0.68266 0.0
C3769 C 0.79132 0.79721 0.6476 0.0
C3770 C 0.78966 0.78941 0.66735 0.0
C3771 C 0.79129 0.79667 0.70511 0.0
C3772 C 0.79476 0.81186 0.72299 0.0
C3773 C 0.79245 0.8044 0.68506 0.0
C3774 C 0.79892 0.83491 0.72018 0.0
C3775 C 0.79982 0.84263 0.70038 0.0
H3776 H 0.71787 0.48472 0.56216 0.0
H3777 H 0.74718 0.52135 0.51245 0.0
H3778 H 0.73141 0.55117 0.52118 0.0
H3779 H 0.70723 0.56542 0.54127 0.0
H3780 H 0.67707 0.52818 0.59027 0.0
H3781 H 0.69609 0.50061 0.58413 0.0
C3782 C 0.7211 0.49939 0.55345 0.0
C3783 C 0.73339 0.50064 0.53648 0.0
C3784 C 0.71201 0.51649 0.55856 0.0
C3785 C 0.73732 0.51972 0.52527 0.0
C3786 C 0.72847 0.53687 0.53035 0.0
C3787 C 0.70501 0.55138 0.55073 0.0
C3788 C 0.69069 0.54879 0.5661 0.0
C3789 C 0.71544 0.5352 0.54669 0.0
C3790 C 0.6882 0.53073 0.57848 0.0
C3791 C 0.69885 0.51478 0.57481 0.0
H3792 H 0.19713 0.09594 0.527 0.0
H3793 H 0.18124 0.15818 0.53323 0.0
H3794 H 0.1444 0.1375 0.53748 0.0
H3795 H 0.1166 0.10187 0.53934 0.0
H3796 H 0.13172 0.03928 0.53187 0.0
H3797 H 0.16893 0.05993 0.52845 0.0
C3798 C 0.1856 0.10495 0.52937 0.0
C3799 C 0.19197 0.1286 0.52973 0.0
C3800 C 0.16431 0.0929 0.53169 0.0
C3801 C 0.17676 0.14 0.5326 0.0
C3802 C 0.15569 0.12819 0.53518 0.0
C3803 C 0.12805 0.0927 0.53714 0.0
C3804 C 0.12138 0.06904 0.53604 0.0
C3805 C 0.14928 0.10465 0.53476 0.0
C3806 C 0.13641 0.05748 0.53284 0.0
C3807 C 0.15769 0.06929 0.53086 0.0
H3808 H 0.26004 0.97033 0.7814 0.0
H3809 H 0.23196 0.9262 0.82697 0.0
H3810 H 0.2584 0.90614 0.8232 0.0
H3811 H 0.28783 0.8998 0.80542 0.0
H3812 H 0.3159 0.94355 0.75954 0.0
H3813 H 0.29089 0.96517 0.76486 0.0
C3814 C 0.25967 0.95623 0.7904 0.0
C3815 C 0.244 0.94952 0.80426 0.0
C3816 C 0.27484 0.94481 0.78811 0.0
C3817 C 0.24392 0.9316 0.81621 0.0
C3818 C 0.25897 0.92014 0.81403 0.0
C3819 C 0.28885 0.9144 0.79693 0.0
C3820 C 0.30373 0.92017 0.78217 0.0
C3821 C 0.27435 0.92649 0.79989 0.0
C3822 C 0.3045 0.93878 0.77092 0.0
C3823 C 0.29021 0.95108 0.77394 0.0
H3824 H 0.41456 0.96373 0.06293 0.0
H3825 H 0.40085 1.00585 0.01745 0.0
H3826 H 0.43852 0.02626 0.01816 0.0
H3827 H 0.47546 0.0291 0.02851 0.0
H3828 H 0.48938 0.98539 0.07238 0.0
H3829 H 0.45152 0.96851 0.0753 0.0
C3830 C 0.41982 0.97746 0.05326 0.0
C3831 C 0.40494 0.98308 0.04001 0.0
C3832 C 0.44155 0.98863 0.05322 0.0
C3833 C 0.41193 1.00126 0.02792 0.0
C3834 C 0.43351 0.0128 0.02814 0.0
C3835 C 0.47026 0.01603 0.03888 0.0
C3836 C 0.48524 1.0083 0.04997 0.0
C3837 C 0.44848 1.00615 0.04025 0.0
C3838 C 0.4782 0.9915 0.06348 0.0
C3839 C 0.45654 0.98183 0.06517 0.0
H3840 H 0.8423 0.62312 0.83279 0.0
H3841 H 0.8643 0.62727 0.77182 0.0
H3842 H 0.8337 0.63831 0.75937 0.0
H3843 H 0.80335 0.65071 0.76651 0.0
H3844 H 0.78144 0.64906 0.82751 0.0
H3845 H 0.80917 0.63268 0.83923 0.0
C3846 C 0.84018 0.62626 0.81677 0.0
C3847 C 0.85568 0.62485 0.80331 0.0
C3848 C 0.82262 0.63295 0.80974 0.0
C3849 C 0.85282 0.6288 0.78255 0.0
C3850 C 0.83527 0.63494 0.77539 0.0
C3851 C 0.80404 0.64605 0.78221 0.0
C3852 C 0.79023 0.65097 0.79608 0.0
C3853 C 0.82037 0.63755 0.78893 0.0
C3854 C 0.79188 0.6454 0.81652 0.0
C3855 C 0.80781 0.6362 0.82325 0.0
H3856 H 0.90243 0.65608 0.01108 0.0
H3857 H 0.86373 0.61573 0.0537 0.0
H3858 H 0.8873 0.59213 0.05513 0.0
H3859 H 0.91833 0.58221 0.04361 0.0
H3860 H 0.95749 0.62281 1.00141 0.0
H3861 H 0.9341 0.64665 1.00018 0.0
C3862 C 0.89909 0.64205 0.0206 0.0
C3863 C 0.88129 0.63776 0.03229 0.0
C3864 C 0.91274 0.62846 0.02134 0.0
C3865 C 0.87742 0.61965 0.04475 0.0
C3866 C 0.89085 0.60604 0.04549 0.0
C3867 C 0.92197 0.59644 0.03435 0.0
C3868 C 0.9397 0.60057 0.02258 0.0
C3869 C 0.90853 0.61025 0.03383 0.0
C3870 C 0.94382 0.61893 0.0104 0.0
C3871 C 0.9305 0.63269 0.00977 0.0
H3872 H 0.22329 0.15651 0.80469 0.0
H3873 H 0.27841 0.13298 0.80211 0.0
H3874 H 0.30056 0.17109 0.7979 0.0
H3875 H 0.30393 0.21089 0.79357 0.0
H3876 H 0.24805 0.23332 0.79392 0.0
H3877 H 0.22647 0.19569 0.79999 0.0
C3878 C 0.2401 0.15959 0.80294 0.0
C3879 C 0.24911 0.14185 0.8036 0.0
C3880 C 0.25259 0.18135 0.80003 0.0
C3881 C 0.27106 0.14635 0.80187 0.0
C3882 C 0.28372 0.16811 0.79932 0.0
C3883 C 0.28706 0.20752 0.7951 0.0
C3884 C 0.27758 0.2248 0.79324 0.0
C3885 C 0.27462 0.18572 0.79824 0.0
C3886 C 0.25568 0.22023 0.7951 0.0
C3887 C 0.24332 0.19874 0.79863 0.0
H3888 H 0.38077 0.92048 0.32917 0.0
H3889 H 0.32304 0.93116 0.34861 0.0
H3890 H 0.30294 0.89267 0.33495 0.0
H3891 H 0.30193 0.85669 0.31607 0.0
H3892 H 0.36016 0.84774 0.2956 0.0
H3893 H 0.37995 0.88502 0.31109 0.0
C3894 C 0.36386 0.9142 0.33091 0.0
C3895 C 0.3534 0.92835 0.34023 0.0
C3896 C 0.3525 0.89255 0.32254 0.0
C3897 C 0.33139 0.92035 0.3417 0.0
C3898 C 0.31994 0.89847 0.33379 0.0
C3899 C 0.31894 0.86293 0.31499 0.0
C3900 C 0.32951 0.84946 0.30461 0.0
C3901 C 0.33032 0.88453 0.32389 0.0
C3902 C 0.35156 0.85776 0.30337 0.0
C3903 C 0.36296 0.87906 0.31231 0.0
H3904 H 0.61316 0.43391 0.58206 0.0
H3905 H 0.54744 0.39374 0.57228 0.0
H3906 H 0.53768 0.42598 0.56069 0.0
H3907 H 0.54748 0.46599 0.55368 0.0
H3908 H 0.61317 0.50627 0.56364 0.0
H3909 H 0.62301 0.4739 0.57488 0.0
C3910 C 0.59667 0.43217 0.57751 0.0
C3911 C 0.58116 0.4111 0.57803 0.0
C3912 C 0.59105 0.45098 0.57088 0.0
C3913 C 0.5599 0.40941 0.57177 0.0
C3914 C 0.55423 0.42799 0.56525 0.0
C3915 C 0.56396 0.46775 0.55829 0.0
C3916 C 0.57948 0.48878 0.55776 0.0
C3917 C 0.56963 0.4489 0.56475 0.0
C3918 C 0.60077 0.49046 0.56381 0.0
C3919 C 0.60647 0.47188 0.57029 0.0
H3920 H 0.39463 0.7648 0.38175 0.0
H3921 H 0.43384 0.76226 0.33171 0.0
H3922 H 0.40552 0.76507 0.30707 0.0
H3923 H 0.36971 0.76965 0.29971 0.0
H3924 H 0.33126 0.77259 0.35045 0.0
H3925 H 0.35906 0.76844 0.37449 0.0
C3926 C 0.39709 0.76498 0.36547 0.0
C3927 C 0.4165 0.76336 0.35875 0.0
C3928 C 0.38077 0.76676 0.35135 0.0
C3929 C 0.41907 0.76322 0.33745 0.0
C3930 C 0.40288 0.76498 0.3233 0.0
C3931 C 0.36736 0.76924 0.31599 0.0
C3932 C 0.34829 0.7716 0.32307 0.0
C3933 C 0.38364 0.7669 0.33004 0.0
C3934 C 0.3457 0.77102 0.34435 0.0
C3935 C 0.36165 0.76862 0.35825 0.0
H3936 H 0.10008 0.68302 0.08402 0.0
H3937 H 0.04174 0.68807 0.05424 0.0
H3938 H 0.03365 0.64965 0.03849 0.0
H3939 H 0.04251 0.61408 0.03372 0.0
H3940 H 0.10077 0.60881 0.06352 0.0
H3941 H 0.1093 0.64756 0.07871 0.0
C3942 C 0.08553 0.67573 0.07417 0.0
C3943 C 0.07158 0.68868 0.07042 0.0
C3944 C 0.08087 0.65342 0.06514 0.0
C3945 C 0.05298 0.67883 0.05728 0.0
C3946 C 0.04824 0.65671 0.04834 0.0
C3947 C 0.05711 0.62134 0.04352 0.0
C3948 C 0.07091 0.60828 0.04744 0.0
C3949 C 0.06199 0.64377 0.05222 0.0
C3950 C 0.0898 0.61826 0.06013 0.0
C3951 C 0.09469 0.64051 0.06889 0.0
H3952 H 0.10605 0.28117 0.83759 0.0
H3953 H 0.14047 0.28351 0.89644 0.0
H3954 H 0.17321 0.28752 0.87958 0.0
H3955 H 0.19239 0.29155 0.84822 0.0
H3956 H 0.15788 0.28889 0.78932 0.0
H3957 H 0.12505 0.28423 0.80613 0.0
C3958 C 0.12074 0.28269 0.84674 0.0
C3959 C 0.12075 0.28204 0.86826 0.0
C3960 C 0.13957 0.28506 0.83694 0.0
C3961 C 0.13991 0.28369 0.87983 0.0
C3962 C 0.15869 0.28611 0.87021 0.0
C3963 C 0.17765 0.28967 0.83901 0.0
C3964 C 0.17771 0.29071 0.81751 0.0
C3965 C 0.15874 0.28688 0.84877 0.0
C3966 C 0.15844 0.28853 0.80591 0.0
C3967 C 0.1396 0.28574 0.8155 0.0
H3968 H 0.54642 0.64182 0.93955 0.0
H3969 H 0.55722 0.68768 0.99432 0.0
H3970 H 0.55738 0.65723 0.0156 0.0
H3971 H 0.55451 0.61681 0.01993 0.0
H3972 H 0.54349 0.5705 0.96561 0.0
H3973 H 0.54325 0.60101 0.94393 0.0
C3974 C 0.54874 0.64539 0.95614 0.0
C3975 C 0.55213 0.66813 0.96468 0.0
C3976 C 0.54874 0.62718 0.96889 0.0
C3977 C 0.5551 0.67126 0.98652 0.0
C3978 C 0.55502 0.65346 0.99903 0.0
C3979 C 0.55198 0.61316 1.00336 0.0
C3980 C 0.54891 0.59054 0.99492 0.0
C3981 C 0.55192 0.63124 0.99056 0.0
C3982 C 0.54582 0.58713 0.97312 0.0
C3983 C 0.5457 0.60487 0.96049 0.0
H3984 H 0.18493 0.82184 0.72396 0.0
H3985 H 0.14941 0.75413 0.73477 0.0
H3986 H 0.18169 0.7476 0.74873 0.0
H3987 H 0.22104 0.76028 0.75875 0.0
H3988 H 0.25672 0.8282 0.74937 0.0
H3989 H 0.22433 0.8349 0.73479 0.0
C3990 C 0.18393 0.80557 0.72937 0.0
C3991 C 0.1636 0.78852 0.72741 0.0
C3992 C 0.20323 0.8017 0.73804 0.0
C3993 C 0.16396 0.76778 0.73496 0.0
C3994 C 0.18281 0.76393 0.74336 0.0
C3995 C 0.22195 0.77664 0.75355 0.0
C3996 C 0.24223 0.79359 0.75548 0.0
C3997 C 0.20272 0.78063 0.74501 0.0
C3998 C 0.24204 0.81454 0.74841 0.0
C3999 C 0.22319 0.81846 0.73992 0.0
H4000 H 0.06845 0.39608 0.49536 0.0
H4001 H 0.04107 0.40863 0.43732 0.0
H4002 H 0.0375 0.44367 0.45295 0.0
H4003 H 0.04181 0.47205 0.48339 0.0
H4004 H 0.06939 0.45957 0.5413 0.0
H4005 H 0.07313 0.42455 0.5256 0.0
C4006 C 0.06177 0.40638 0.48592 0.0
C4007 C 0.05485 0.39859 0.46479 0.0
C4008 C 0.0597 0.42723 0.49516 0.0
C4009 C 0.0462 0.41299 0.45351 0.0
C4010 C 0.04425 0.43353 0.46252 0.0
C4011 C 0.04869 0.4618 0.4927 0.0
C4012 C 0.05525 0.46927 0.51393 0.0
C4013 C 0.05083 0.44098 0.48341 0.0
C4014 C 0.06406 0.455 0.52515 0.0
C4015 C 0.06626 0.43463 0.51607 0.0
H4016 H 0.4394 0.31851 0.23771 0.0
H4017 H 0.42236 0.24727 0.21995 0.0
H4018 H 0.38825 0.24202 0.23408 0.0
H4019 H 0.36125 0.257 0.25164 0.0
H4020 H 0.3781 0.32829 0.26865 0.0
H4021 H 0.41258 0.33346 0.25499 0.0
C4022 C 0.42843 0.30169 0.23672 0.0
C4023 C 0.43492 0.2834 0.22746 0.0
C4024 C 0.40785 0.29851 0.24503 0.0
C4025 C 0.41932 0.26204 0.227 0.0
C4026 C 0.39917 0.25889 0.23513 0.0
C4027 C 0.37236 0.27376 0.25256 0.0
C4028 C 0.36602 0.29217 0.26172 0.0
C4029 C 0.39299 0.2769 0.2443 0.0
C4030 C 0.38154 0.3135 0.26209 0.0
C4031 C 0.4017 0.31658 0.2541 0.0
H4032 H 0.64434 0.53676 0.43615 0.0
H4033 H 0.58895 0.48433 0.4095 0.0
H4034 H 0.57037 0.48827 0.44026 0.0
H4035 H 0.56953 0.50789 0.47392 0.0
H4036 H 0.62466 0.56153 0.4996 0.0
H4037 H 0.64379 0.55576 0.46998 0.0
C4038 C 0.62834 0.52592 0.43727 0.0
C4039 C 0.61803 0.51015 0.42079 0.0
C4040 C 0.6177 0.52864 0.45469 0.0
C4041 C 0.59714 0.49656 0.42211 0.0
C4042 C 0.58655 0.49884 0.43963 0.0
C4043 C 0.58577 0.51824 0.4731 0.0
C4044 C 0.59564 0.53515 0.48893 0.0
C4045 C 0.5966 0.51504 0.45589 0.0
C4046 C 0.61665 0.54849 0.48758 0.0
C4047 C 0.62763 0.54517 0.47067 0.0
H4048 H 0.27119 0.79737 0.08325 0.0
H4049 H 0.33699 0.83128 0.07575 0.0
H4050 H 0.34772 0.81827 0.10785 0.0
H4051 H 0.33812 0.80182 0.14012 0.0
H4052 H 0.27242 0.76767 0.14803 0.0
H4053 H 0.26196 0.77651 0.11384 0.0
C4054 C 0.28788 0.8016 0.08853 0.0
C4055 C 0.30324 0.81535 0.07719 0.0
C4056 C 0.29396 0.79439 0.10724 0.0
C4057 C 0.32485 0.82052 0.08406 0.0
C4058 C 0.331 0.81329 0.10254 0.0
C4059 C 0.32156 0.7957 0.13421 0.0
C4060 C 0.30607 0.7844 0.14683 0.0
C4061 C 0.31565 0.8008 0.11455 0.0
C4062 C 0.28466 0.77688 0.13887 0.0
C4063 C 0.27865 0.78184 0.11927 0.0
H4064 H 1.01244 0.59873 0.92276 0.0
H4065 H 0.04847 0.56911 0.88272 0.0
H4066 H 0.06787 0.56063 0.91265 0.0
H4067 H 0.07031 0.55632 0.95005 0.0
H4068 H 0.0331 0.58489 0.98937 0.0
H4069 H 0.01892 0.5998 0.95996 0.0
C4070 C 0.02501 0.59111 0.92052 0.0
C4071 C 0.02872 0.58419 0.90056 0.0
C4072 C 0.03585 0.58603 0.93773 0.0
C4073 C 0.04496 0.57412 0.89798 0.0
C4074 C 0.0561 0.56931 0.91507 0.0
C4075 C 0.05967 0.56648 0.95212 0.0
C4076 C 0.05272 0.5697 0.9716 0.0
C4077 C 0.05106 0.57436 0.93501 0.0
C4078 C 0.03867 0.58246 0.97436 0.0
C4079 C 0.03046 0.59082 0.95757 0.0
H4080 H 0.28798 0.26206 0.6426 0.0
H4081 H 0.35071 0.25415 0.6455 0.0
H4082 H 0.35412 0.26192 0.68299 0.0
H4083 H 0.3391 0.27043 0.71548 0.0
H4084 H 0.27705 0.28016 0.71223 0.0
H4085 H 0.27362 0.27216 0.67482 0.0
C4086 C 0.30242 0.26203 0.65141 0.0
C4087 C 0.31905 0.25747 0.64097 0.0
C4088 C 0.3044 0.26678 0.67313 0.0
C4089 C 0.3377 0.25781 0.65285 0.0
C4090 C 0.33962 0.26213 0.67442 0.0
C4091 C 0.3248 0.27075 0.70661 0.0
C4092 C 0.3083 0.2758 0.71693 0.0
C4093 C 0.32305 0.26654 0.68481 0.0
C4094 C 0.29005 0.2764 0.70493 0.0
C4095 C 0.28804 0.27177 0.68342 0.0
H4096 H 0.59612 0.55592 0.23994 0.0
H4097 H 0.62486 0.50885 0.21154 0.0
H4098 H 0.60906 0.51287 0.17788 0.0
H4099 H 0.58901 0.53138 0.15624 0.0
H4100 H 0.56299 0.58103 0.18407 0.0
H4101 H 0.57588 0.57438 0.21823 0.0
C4102 C 0.59907 0.54663 0.2264 0.0
C4103 C 0.61177 0.53217 0.22836 0.0
C4104 C 0.59052 0.54957 0.20695 0.0
C4105 C 0.61493 0.51986 0.21064 0.0
C4106 C 0.60608 0.52232 0.1913 0.0
C4107 C 0.58632 0.54093 0.16975 0.0
C4108 C 0.57524 0.55685 0.16756 0.0
C4109 C 0.59418 0.53741 0.18926 0.0
C4110 C 0.57136 0.56858 0.1853 0.0
C4111 C 0.57884 0.56488 0.20483 0.0
H4112 H 0.26797 0.83951 0.90009 0.0
H4113 H 0.30577 0.90363 0.88268 0.0
H4114 H 0.30986 0.8859 0.84927 0.0
H4115 H 0.30517 0.85155 0.82637 0.0
H4116 H 0.26684 0.78773 0.84408 0.0
H4117 H 0.26021 0.80614 0.87593 0.0
C4118 C 0.27663 0.84977 0.88882 0.0
C4119 C 0.28667 0.87282 0.89394 0.0
C4120 C 0.27904 0.83948 0.86979 0.0
C4121 C 0.29814 0.88576 0.87922 0.0
C4122 C 0.30049 0.87565 0.86014 0.0
C4123 C 0.29529 0.84171 0.83717 0.0
C4124 C 0.28677 0.81828 0.83301 0.0
C4125 C 0.29149 0.8524 0.8555 0.0
C4126 C 0.27368 0.80579 0.84695 0.0
C4127 C 0.2699 0.81628 0.8652 0.0
H4128 H 0.03318 0.57615 0.74279 0.0
H4129 H 1.00357 0.61077 0.70081 0.0
H4130 H 0.02238 0.59977 0.6727 0.0
H4131 H 0.04331 0.57627 0.65944 0.0
H4132 H 0.0713 0.53991 0.70107 0.0
H4133 H 0.05725 0.55597 0.73019 0.0
C4134 C 0.03132 0.58183 0.72762 0.0
C4135 C 0.01704 0.59423 0.7238 0.0
C4136 C 0.04171 0.57496 0.71152 0.0
C4137 C 1.01441 0.60109 0.704 0.0
C4138 C 0.02512 0.5948 0.68798 0.0
C4139 C 0.04689 0.57239 0.67497 0.0
C4140 C 0.05828 0.55691 0.67816 0.0
C4141 C 0.03828 0.58116 0.69145 0.0
C4142 C 0.06245 0.55169 0.69829 0.0
C4143 C 0.05439 0.56082 0.71488 0.0
H4144 H 0.32877 0.28016 0.41958 0.0
H4145 H 0.29558 0.20968 0.4057 0.0
H4146 H 0.29336 0.21492 0.36892 0.0
H4147 H 0.30027 0.23964 0.34022 0.0
H4148 H 0.33489 0.30986 0.35402 0.0
H4149 H 0.33719 0.30454 0.39069 0.0
C4150 C 0.321 0.26596 0.40851 0.0
C4151 C 0.31231 0.24452 0.41565 0.0
C4152 C 0.3201 0.26901 0.3871 0.0
C4153 C 0.30254 0.22634 0.40086 0.0
C4154 C 0.30122 0.22934 0.37971 0.0
C4155 C 0.30849 0.25377 0.35119 0.0
C4156 C 0.31739 0.27517 0.344 0.0
C4157 C 0.30992 0.25059 0.37256 0.0
C4158 C 0.32795 0.29315 0.35875 0.0
C4159 C 0.3292 0.29016 0.37991 0.0
H4160 H 0.38045 0.57648 0.50255 0.0
H4161 H 0.38688 0.5679 0.56754 0.0
H4162 H 0.41105 0.5458 0.56126 0.0
H4163 H 0.43201 0.53086 0.53779 0.0
H4164 H 0.42782 0.54135 0.47322 0.0
H4165 H 0.40123 0.56099 0.47885 0.0
C4166 C 0.38724 0.56988 0.51535 0.0
C4167 C 0.3818 0.57381 0.53547 0.0
C4168 C 0.40151 0.55756 0.5117 0.0
C4169 C 0.39049 0.56484 0.55184 0.0
C4170 C 0.40444 0.55231 0.5483 0.0
C4171 C 0.42493 0.53707 0.52489 0.0
C4172 C 0.43159 0.53453 0.50511 0.0
C4173 C 0.41017 0.54874 0.52835 0.0
C4174 C 0.42279 0.5431 0.48857 0.0
C4175 C 0.40768 0.55435 0.49181 0.0
H4176 H 0.92283 0.94902 0.50785 0.0
H4177 H 0.91896 0.96937 0.57162 0.0
H4178 H 0.95471 0.99555 0.5731 0.0
H4179 H 0.98758 0.01158 0.5569 0.0
H4180 H 0.99205 0.99158 0.49316 0.0
H4181 H 0.95559 0.96649 0.49106 0.0
C4182 C 0.92985 0.95917 0.52207 0.0
C4183 C 0.91818 0.95716 0.53962 0.0
C4184 C 0.95053 0.97428 0.52283 0.0
C4185 C 0.92743 0.97069 0.55783 0.0
C4186 C 0.94794 0.98561 0.55873 0.0
C4187 C 0.9806 1.00186 0.54246 0.0
C4188 C 0.99267 1.00344 0.52524 0.0
C4189 C 0.95969 0.98742 0.54139 0.0
C4190 C 0.98319 0.99078 0.50667 0.0
C4191 C 0.96234 0.97633 0.50548 0.0
H4192 H 0.88966 0.14827 0.28311 0.0
H4193 H 0.84129 0.08463 0.26792 0.0
H4194 H 0.81435 0.10085 0.28013 0.0
H4195 H 0.80432 0.13357 0.29359 0.0
H4196 H 0.85276 0.19729 0.30817 0.0
H4197 H 0.87998 0.18028 0.29859 0.0
C4198 C 0.87328 0.13786 0.28275 0.0
C4199 C 0.86745 0.11539 0.27438 0.0
C4200 C 0.8579 0.14722 0.28989 0.0
C4201 C 0.84612 0.10215 0.27386 0.0
C4202 C 0.83073 0.11134 0.28099 0.0
C4203 C 0.82085 0.14368 0.29477 0.0
C4204 C 0.82646 0.16663 0.30156 0.0
C4205 C 0.8364 0.13394 0.28875 0.0
C4206 C 0.848 0.17948 0.30329 0.0
C4207 C 0.86358 0.16984 0.29758 0.0
H4208 H 0.684 0.09886 0.01481 0.0
H4209 H 0.69425 0.08574 0.07816 0.0
H4210 H 0.65681 0.06498 0.0784 0.0
H4211 H 0.62137 0.05216 0.06146 0.0
H4212 H 0.60965 0.06534 0.9984 0.0
H4213 H 0.64776 0.0841 0.99699 0.0
C4214 C 0.67799 0.09125 0.02856 0.0
C4215 C 0.69172 0.09404 0.04654 0.0
C4216 C 0.65635 0.0794 0.02862 0.0
C4217 C 0.68385 0.08418 0.06429 0.0
C4218 C 0.66251 0.07221 0.0644 0.0
C4219 C 0.62704 0.0591 0.04733 0.0
C4220 C 0.61268 0.05766 0.03014 0.0
C4221 C 0.64864 0.07003 0.04679 0.0
C4222 C 0.62042 0.06633 0.01187 0.0
C4223 C 0.64215 0.07712 0.0111 0.0
H4224 H 0.2067 0.43218 0.28904 0.0
H4225 H 0.24408 0.47674 0.24825 0.0
H4226 H 0.27401 0.46249 0.25618 0.0
H4227 H 0.28953 0.43734 0.2747 0.0
H4228 H 0.25242 0.39376 0.31623 0.0
H4229 H 0.22271 0.40857 0.3088 0.0
C4230 C 0.22146 0.43902 0.28207 0.0
C4231 C 0.22307 0.4554 0.26799 0.0
C4232 C 0.23877 0.43123 0.28711 0.0
C4233 C 0.24223 0.46375 0.25881 0.0
C4234 C 0.25945 0.45583 0.26352 0.0
C4235 C 0.27496 0.43123 0.28218 0.0
C4236 C 0.27312 0.41458 0.29599 0.0
C4237 C 0.25788 0.43957 0.27763 0.0
C4238 C 0.25428 0.40686 0.30577 0.0
C4239 C 0.23723 0.41511 0.30136 0.0
H4240 H 0.20741 0.42729 0.05357 0.0
H4241 H 0.23899 0.452 1.00006 0.0
H4242 H 0.21622 0.4761 0.99552 0.0
H4243 H 0.18775 0.49082 0.00699 0.0
H4244 H 0.15586 0.46601 0.06032 0.0
H4245 H 0.17857 0.4418 0.06486 0.0
C4246 C 0.20942 0.43805 0.04099 0.0
C4247 C 0.22493 0.43767 0.02715 0.0
C4248 C 0.19625 0.45202 0.03846 0.0
C4249 C 0.22704 0.45159 0.01079 0.0
C4250 C 0.21408 0.46553 0.00824 0.0
C4251 C 0.18555 0.47995 0.01949 0.0
C4252 C 0.17004 0.48039 0.0333 0.0
C4253 C 0.19861 0.46589 0.02196 0.0
C4254 C 0.16781 0.46637 0.04959 0.0
C4255 C 0.18074 0.45237 0.05215 0.0
H4256 H 0.85096 0.93681 0.25541 0.0
H4257 H 0.90045 0.916 0.22748 0.0
H4258 H 0.88359 0.8772 0.23494 0.0
H4259 H 0.85615 0.84987 0.25157 0.0
H4260 H 0.8076 0.8715 0.2807 0.0
H4261 H 0.82308 0.90948 0.27098 0.0
C4262 C 0.85805 0.92377 0.25095 0.0
C4263 C 0.87699 0.92926 0.2411 0.0
C4264 C 0.84865 0.90176 0.25578 0.0
C4265 C 0.88577 0.91214 0.23496 0.0
C4266 C 0.87627 0.89002 0.23942 0.0
C4267 C 0.84897 0.86289 0.25582 0.0
C4268 C 0.83087 0.85788 0.26701 0.0
C4269 C 0.85795 0.88475 0.2502 0.0
C4270 C 0.82163 0.8749 0.27221 0.0
C4271 C 0.83042 0.89663 0.26661 0.0
H4272 H 0.73945 0.16332 0.74117 0.0
H4273 H 0.73872 0.15275 0.80583 0.0
H4274 H 0.75973 0.19195 0.81472 0.0
H4275 H 0.77783 0.22948 0.80401 0.0
H4276 H 0.77859 0.23927 0.73907 0.0
H4277 H 0.75833 0.20009 0.73049 0.0
C4278 C 0.74414 0.16949 0.7572 0.0
C4279 C 0.73751 0.15516 0.77279 0.0
C4280 C 0.75622 0.19195 0.76218 0.0
C4281 C 0.74341 0.16354 0.79352 0.0
C4282 C 0.7555 0.18592 0.79862 0.0
C4283 C 0.7736 0.22302 0.788 0.0
C4284 C 0.77969 0.23736 0.77226 0.0
C4285 C 0.76187 0.20034 0.78307 0.0
C4286 C 0.77411 0.22868 0.75156 0.0
C4287 C 0.7625 0.20623 0.74658 0.0
loop_
_geom_bond_atom_site_label_1
_geom_bond_atom_site_label_2
_geom_bond_distance
_geom_bond_site_symmetry_2
_ccdc_geom_bond_type
Li0 N17 1.990 1_455 S
Li0 O60 1.956 . S
Li0 O61 1.970 . S
Li0 O62 1.961 . S
Li1 N25 1.990 . S
Li1 O60 1.970 . S
Li1 O61 1.956 . S
Li1 O63 1.961 . S
Li2 N47 1.990 . S
Li2 O60 1.961 . S
Li2 O62 1.956 . S
Li2 O63 1.970 . S
Li3 N53 1.990 . S
Li3 O61 1.961 . S
Li3 O62 1.970 . S
Li3 O63 1.956 . S
C4 C6 1.348 . S
C4 C7 1.356 . S
C4 O60 1.325 . S
N5 C8 1.314 . S
N5 C9 1.279 . S
C6 C4 1.348 . S
C6 C8 1.353 . S
C6 H64 0.929 . S
C7 C4 1.356 . S
C7 C9 1.358 . S
C7 H65 0.930 . S
C8 N5 1.314 . S
C8 C6 1.353 . S
C8 H66 0.930 . S
C9 N5 1.279 . S
C9 C7 1.358 . S
C9 H67 0.930 . S
C10 C13 1.348 . S
C10 C14 1.356 . S
C10 O61 1.325 1_655 S
C11 N12 1.279 . S
C11 C14 1.358 . S
C11 H68 0.930 . S
N12 C11 1.279 . S
N12 C15 1.314 . S
C13 C10 1.348 . S
C13 C15 1.353 . S
C13 H69 0.929 . S
C14 C10 1.356 . S
C14 C11 1.358 . S
C14 H70 0.930 1_655 S
C15 N12 1.314 . S
C15 C13 1.353 . S
C15 H71 0.930 . S
C16 N17 1.314 . S
C16 C21 1.353 . S
C16 H22 0.930 . S
N17 Li0 1.990 1_655 S
N17 C16 1.314 . S
N17 C19 1.279 . S
C18 C19 1.358 . S
C18 C20 1.356 . S
C18 H72 0.930 . S
C19 N17 1.279 . S
C19 C18 1.358 . S
C19 H23 0.930 . S
C20 C18 1.356 . S
C20 C21 1.348 . S
C21 C16 1.353 . S
C21 C20 1.348 . S
C21 H73 0.929 . S
H22 C16 0.930 . S
H23 C19 0.930 . S
C24 N25 1.314 . S
C24 C26 1.353 . S
C24 H30 0.930 . S
N25 Li1 1.990 . S
N25 C24 1.314 . S
N25 C28 1.279 . S
C26 C24 1.353 . S
C26 C29 1.348 . S
C26 H74 0.929 . S
C27 C28 1.358 . S
C27 C29 1.356 . S
C27 H75 0.930 . S
C28 N25 1.279 . S
C28 C27 1.358 . S
C28 H31 0.930 . S
C29 C26 1.348 . S
C29 C27 1.356 . S
H30 C24 0.930 . S
H31 C28 0.930 . S
C32 C34 1.348 . S
C32 C35 1.356 . S
C32 O62 1.325 . S
N33 C36 1.314 . S
N33 C37 1.279 . S
C34 C32 1.348 . S
C34 C36 1.353 . S
C34 H76 0.929 . S
C35 C32 1.356 . S
C35 C37 1.358 . S
C35 H77 0.930 . S
C36 N33 1.314 . S
C36 C34 1.353 . S
C36 H78 0.930 . S
C37 N33 1.279 . S
C37 C35 1.358 . S
C37 H79 0.930 . S
C38 C39 1.348 . S
C38 C40 1.356 . S
C38 O63 1.325 . S
C39 C38 1.348 . S
C39 C41 1.353 . S
C39 H80 0.929 . S
C40 C38 1.356 . S
C40 C42 1.358 . S
C40 H81 0.930 . S
C41 C39 1.353 . S
C41 N43 1.314 . S
C41 H82 0.930 . S
C42 C40 1.358 . S
C42 N43 1.279 . S
C42 H83 0.930 . S
N43 C41 1.314 . S
N43 C42 1.279 . S
C44 C46 1.353 . S
C44 N47 1.314 . S
C44 H50 0.930 . S
C45 N47 1.279 . S
C45 C48 1.358 . S
C45 H51 0.930 . S
C46 C44 1.353 . S
C46 C49 1.348 . S
C46 H84 0.929 . S
N47 Li2 1.990 . S
N47 C44 1.314 . S
N47 C45 1.279 . S
C48 C45 1.358 . S
C48 C49 1.356 . S
C48 H85 0.930 . S
C49 C46 1.348 . S
C49 C48 1.356 . S
H50 C44 0.930 . S
H51 C45 0.930 . S
C52 N53 1.314 . S
C52 C54 1.353 . S
C52 H58 0.939 . S
N53 Li3 1.990 . S
N53 C52 1.314 . S
N53 C56 1.279 . S
C54 C52 1.353 . S
C54 C57 1.348 . S
C54 H86 0.929 1_455 S
C55 C56 1.358 . S
C55 C57 1.356 . S
C55 H87 0.930 . S
C56 N53 1.279 . S
C56 C55 1.358 . S
C56 H59 0.930 . S
C57 C54 1.348 . S
C57 C55 1.356 . S
H58 C52 0.939 . S
H59 C56 0.930 . S
O60 Li0 1.956 . S
O60 Li1 1.970 . S
O60 Li2 1.961 . S
O60 C4 1.325 . S
O61 Li0 1.970 . S
O61 Li1 1.956 . S
O61 Li3 1.961 . S
O61 C10 1.325 1_455 S
O62 Li0 1.961 . S
O62 Li2 1.956 . S
O62 Li3 1.970 . S
O62 C32 1.325 . S
O63 Li1 1.961 . S
O63 Li2 1.970 . S
O63 Li3 1.956 . S
O63 C38 1.325 . S
H64 C6 0.929 . S
H65 C7 0.930 . S
H66 C8 0.930 . S
H67 C9 0.930 . S
H68 C11 0.930 . S
H69 C13 0.929 . S
H70 C14 0.930 1_455 S
H71 C15 0.930 . S
H72 C18 0.930 . S
H73 C21 0.929 . S
H74 C26 0.929 . S
H75 C27 0.930 . S
H76 C34 0.929 . S
H77 C35 0.930 . S
H78 C36 0.930 . S
H79 C37 0.930 . S
H80 C39 0.929 . S
H81 C40 0.930 . S
H82 C41 0.930 . S
H83 C42 0.930 . S
H84 C46 0.929 . S
H85 C48 0.930 . S
H86 C54 0.929 1_655 S
H87 C55 0.930 . S
Li88 N105 1.990 . S
Li88 O148 1.956 . S
Li88 O149 1.970 . S
Li88 O150 1.961 . S
Li89 N113 1.990 . S
Li89 O148 1.970 . S
Li89 O149 1.956 . S
Li89 O151 1.961 . S
Li90 N135 1.990 . S
Li90 O148 1.961 . S
Li90 O150 1.956 . S
Li90 O151 1.970 . S
Li91 N141 1.987 . S
Li91 O149 1.961 . S
Li91 O150 1.970 . S
Li91 O151 1.956 . S
C92 C94 1.348 . S
C92 C95 1.356 . S
C92 O148 1.325 . S
N93 C96 1.314 . S
N93 C97 1.279 . S
C94 C92 1.348 . S
C94 C96 1.353 . S
C94 H152 0.929 . S
C95 C92 1.356 . S
C95 C97 1.358 . S
C95 H153 0.930 . S
C96 N93 1.314 . S
C96 C94 1.353 . S
C96 H154 0.930 . S
C97 N93 1.279 . S
C97 C95 1.358 . S
C97 H155 0.930 . S
C98 C101 1.348 . S
C98 C102 1.356 . S
C98 O149 1.325 . S
C99 N100 1.279 . S
C99 C102 1.358 . S
C99 H156 0.930 . S
N100 C99 1.279 . S
N100 C103 1.314 . S
C101 C98 1.348 . S
C101 C103 1.353 . S
C101 H157 0.929 . S
C102 C98 1.356 . S
C102 C99 1.358 . S
C102 H158 0.930 . S
C103 N100 1.314 . S
C103 C101 1.353 . S
C103 H159 0.930 . S
C104 N105 1.314 . S
C104 C109 1.353 . S
C104 H110 0.930 . S
N105 Li88 1.990 . S
N105 C104 1.314 . S
N105 C107 1.279 . S
C106 C107 1.358 . S
C106 C108 1.356 . S
C106 H160 0.930 . S
C107 N105 1.279 . S
C107 C106 1.358 . S
C107 H111 0.930 . S
C108 C106 1.356 . S
C108 C109 1.348 . S
C109 C104 1.353 . S
C109 C108 1.348 . S
C109 H161 0.929 . S
H110 C104 0.930 . S
H111 C107 0.930 . S
C112 N113 1.314 . S
C112 C114 1.353 . S
C112 H118 0.930 . S
N113 Li89 1.990 . S
N113 C112 1.314 . S
N113 C116 1.279 . S
C114 C112 1.353 . S
C114 C117 1.348 . S
C114 H162 0.929 . S
C115 C116 1.358 . S
C115 C117 1.356 . S
C115 H163 0.930 . S
C116 N113 1.279 . S
C116 C115 1.358 . S
C116 H119 0.930 . S
C117 C114 1.348 . S
C117 C115 1.356 . S
H118 C112 0.930 . S
H119 C116 0.930 . S
C120 C122 1.348 1_455 S
C120 C123 1.356 . S
C120 O150 1.325 . S
N121 C124 1.314 . S
N121 C125 1.279 . S
C122 C120 1.348 1_655 S
C122 C124 1.353 . S
C122 H164 0.929 . S
C123 C120 1.356 . S
C123 C125 1.358 1_455 S
C123 H165 0.930 . S
C124 N121 1.314 . S
C124 C122 1.353 . S
C124 H166 0.930 . S
C125 N121 1.279 . S
C125 C123 1.358 1_655 S
C125 H167 0.930 . S
C126 C127 1.348 . S
C126 C128 1.356 . S
C126 O151 1.325 . S
C127 C126 1.348 . S
C127 C129 1.353 . S
C127 H168 0.929 . S
C128 C126 1.356 . S
C128 C130 1.358 . S
C128 H169 0.930 . S
C129 C127 1.353 . S
C129 N131 1.314 . S
C129 H170 0.930 . S
C130 C128 1.358 . S
C130 N131 1.279 . S
C130 H171 0.930 . S
N131 C129 1.314 . S
N131 C130 1.279 . S
C132 C134 1.353 . S
C132 N135 1.314 . S
C132 H138 0.930 . S
C133 N135 1.279 . S
C133 C136 1.358 . S
C133 H139 0.930 . S
C134 C132 1.353 . S
C134 C137 1.348 . S
C134 H172 0.929 . S
N135 Li90 1.990 . S
N135 C132 1.314 . S
N135 C133 1.279 . S
C136 C133 1.358 . S
C136 C137 1.356 . S
C136 H173 0.930 1_455 S
C137 C134 1.348 . S
C137 C136 1.356 . S
H138 C132 0.930 . S
H139 C133 0.930 . S
C140 N141 1.317 1_655 S
C140 C142 1.353 . S
C140 H146 0.930 . S
N141 Li91 1.987 . S
N141 C140 1.317 1_455 S
N141 C144 1.280 1_455 S
C142 C140 1.353 . S
C142 C145 1.348 . S
C142 H174 0.929 . S
C143 C144 1.358 . S
C143 C145 1.356 . S
C143 H175 0.930 . S
C144 N141 1.280 1_655 S
C144 C143 1.358 . S
C144 H147 0.930 . S
C145 C142 1.348 . S
C145 C143 1.356 . S
H146 C140 0.930 . S
H147 C144 0.930 . S
O148 Li88 1.956 . S
O148 Li89 1.970 . S
O148 Li90 1.961 . S
O148 C92 1.325 . S
O149 Li88 1.970 . S
O149 Li89 1.956 . S
O149 Li91 1.961 . S
O149 C98 1.325 . S
O150 Li88 1.961 . S
O150 Li90 1.956 . S
O150 Li91 1.970 . S
O150 C120 1.325 . S
O151 Li89 1.961 . S
O151 Li90 1.970 . S
O151 Li91 1.956 . S
O151 C126 1.325 . S
H152 C94 0.929 . S
H153 C95 0.930 . S
H154 C96 0.930 . S
H155 C97 0.930 . S
H156 C99 0.930 . S
H157 C101 0.929 . S
H158 C102 0.930 . S
H159 C103 0.930 . S
H160 C106 0.930 . S
H161 C109 0.929 . S
H162 C114 0.929 . S
H163 C115 0.930 . S
H164 C122 0.929 . S
H165 C123 0.930 . S
H166 C124 0.930 . S
H167 C125 0.930 . S
H168 C127 0.929 . S
H169 C128 0.930 . S
H170 C129 0.930 . S
H171 C130 0.930 . S
H172 C134 0.929 . S
H173 C136 0.930 1_655 S
H174 C142 0.929 . S
H175 C143 0.930 . S
Li176 N193 1.990 . S
Li176 O236 1.956 . S
Li176 O237 1.970 . S
Li176 O238 1.961 . S
Li177 N201 1.990 . S
Li177 O236 1.970 . S
Li177 O237 1.956 . S
Li177 O239 1.961 . S
Li178 N223 1.990 . S
Li178 O236 1.961 . S
Li178 O238 1.956 . S
Li178 O239 1.970 . S
Li179 N229 1.990 . S
Li179 O237 1.961 . S
Li179 O238 1.970 . S
Li179 O239 1.956 . S
C180 C182 1.348 . S
C180 C183 1.356 . S
C180 O236 1.325 . S
N181 C184 1.314 . S
N181 C185 1.279 . S
C182 C180 1.348 . S
C182 C184 1.353 . S
C182 H240 0.929 . S
C183 C180 1.356 . S
C183 C185 1.358 . S
C183 H241 0.930 . S
C184 N181 1.314 . S
C184 C182 1.353 . S
C184 H242 0.930 . S
C185 N181 1.279 . S
C185 C183 1.358 . S
C185 H243 0.930 . S
C186 C189 1.348 . S
C186 C190 1.356 . S
C186 O237 1.325 . S
C187 N188 1.279 . S
C187 C190 1.358 . S
C187 H244 0.930 . S
N188 C187 1.279 . S
N188 C191 1.314 . S
C189 C186 1.348 . S
C189 C191 1.353 . S
C189 H245 0.929 . S
C190 C186 1.356 . S
C190 C187 1.358 . S
C190 H246 0.930 . S
C191 N188 1.314 . S
C191 C189 1.353 . S
C191 H247 0.930 . S
C192 N193 1.314 . S
C192 C197 1.353 . S
C192 H198 0.930 . S
N193 Li176 1.990 . S
N193 C192 1.314 . S
N193 C195 1.279 . S
C194 C195 1.358 . S
C194 C196 1.356 . S
C194 H248 0.930 . S
C195 N193 1.279 . S
C195 C194 1.358 . S
C195 H199 0.930 . S
C196 C194 1.356 . S
C196 C197 1.348 . S
C197 C192 1.353 . S
C197 C196 1.348 . S
C197 H249 0.929 . S
H198 C192 0.930 . S
H199 C195 0.930 . S
C200 N201 1.314 . S
C200 C202 1.353 . S
C200 H206 0.930 . S
N201 Li177 1.990 . S
N201 C200 1.314 . S
N201 C204 1.279 . S
C202 C200 1.353 . S
C202 C205 1.348 . S
C202 H250 0.929 . S
C203 C204 1.358 . S
C203 C205 1.356 . S
C203 H251 0.930 . S
C204 N201 1.279 . S
C204 C203 1.358 . S
C204 H207 0.930 . S
C205 C202 1.348 . S
C205 C203 1.356 . S
H206 C200 0.930 . S
H207 C204 0.930 . S
C208 C210 1.348 . S
C208 C211 1.356 . S
C208 O238 1.325 . S
N209 C212 1.314 . S
N209 C213 1.279 . S
C210 C208 1.348 . S
C210 C212 1.353 . S
C210 H252 0.929 . S
C211 C208 1.356 . S
C211 C213 1.358 . S
C211 H253 0.930 . S
C212 N209 1.314 . S
C212 C210 1.353 . S
C212 H254 0.930 . S
C213 N209 1.279 . S
C213 C211 1.358 . S
C213 H255 0.930 . S
C214 C215 1.348 . S
C214 C216 1.356 . S
C214 O239 1.325 . S
C215 C214 1.348 . S
C215 C217 1.353 . S
C215 H256 0.929 . S
C216 C214 1.356 . S
C216 C218 1.358 . S
C216 H257 0.930 . S
C217 C215 1.353 . S
C217 N219 1.314 . S
C217 H258 0.930 . S
C218 C216 1.358 . S
C218 N219 1.279 . S
C218 H259 0.930 . S
N219 C217 1.314 . S
N219 C218 1.279 . S
C220 C222 1.353 . S
C220 N223 1.314 . S
C220 H226 0.930 . S
C221 N223 1.279 . S
C221 C224 1.358 . S
C221 H227 0.930 . S
C222 C220 1.353 . S
C222 C225 1.348 . S
C222 H260 0.929 . S
N223 Li178 1.990 . S
N223 C220 1.314 . S
N223 C221 1.279 . S
C224 C221 1.358 . S
C224 C225 1.356 . S
C224 H261 0.930 . S
C225 C222 1.348 . S
C225 C224 1.356 . S
H226 C220 0.930 . S
H227 C221 0.930 . S
C228 N229 1.314 . S
C228 C230 1.353 . S
C228 H234 0.930 . S
N229 Li179 1.990 . S
N229 C228 1.314 . S
N229 C232 1.279 . S
C230 C228 1.353 . S
C230 C233 1.348 . S
C230 H262 0.929 . S
C231 C232 1.358 . S
C231 C233 1.356 . S
C231 H263 0.930 . S
C232 N229 1.279 . S
C232 C231 1.358 . S
C232 H235 0.930 . S
C233 C230 1.348 . S
C233 C231 1.356 . S
H234 C228 0.930 . S
H235 C232 0.930 . S
O236 Li176 1.956 . S
O236 Li177 1.970 . S
O236 Li178 1.961 . S
O236 C180 1.325 . S
O237 Li176 1.970 . S
O237 Li177 1.956 . S
O237 Li179 1.961 . S
O237 C186 1.325 . S
O238 Li176 1.961 . S
O238 Li178 1.956 . S
O238 Li179 1.970 . S
O238 C208 1.325 . S
O239 Li177 1.961 . S
O239 Li178 1.970 . S
O239 Li179 1.956 . S
O239 C214 1.325 . S
H240 C182 0.929 . S
H241 C183 0.930 . S
H242 C184 0.930 . S
H243 C185 0.930 . S
H244 C187 0.930 . S
H245 C189 0.929 . S
H246 C190 0.930 . S
H247 C191 0.930 . S
H248 C194 0.930 . S
H249 C197 0.929 . S
H250 C202 0.929 . S
H251 C203 0.930 . S
H252 C210 0.929 . S
H253 C211 0.930 . S
H254 C212 0.930 . S
H255 C213 0.930 . S
H256 C215 0.929 . S
H257 C216 0.930 . S
H258 C217 0.930 . S
H259 C218 0.930 . S
H260 C222 0.929 . S
H261 C224 0.930 . S
H262 C230 0.929 . S
H263 C231 0.930 . S
Li264 N281 1.990 . S
Li264 O324 1.956 . S
Li264 O325 1.970 . S
Li264 O326 1.961 . S
Li265 N289 1.990 . S
Li265 O324 1.970 . S
Li265 O325 1.956 . S
Li265 O327 1.961 . S
Li266 N311 1.990 . S
Li266 O324 1.961 . S
Li266 O326 1.956 . S
Li266 O327 1.970 . S
Li267 N317 1.990 . S
Li267 O325 1.961 . S
Li267 O326 1.970 . S
Li267 O327 1.956 . S
C268 C270 1.348 . S
C268 C271 1.356 . S
C268 O324 1.325 . S
N269 C272 1.314 . S
N269 C273 1.279 . S
C270 C268 1.348 . S
C270 C272 1.353 . S
C270 H328 0.929 . S
C271 C268 1.356 . S
C271 C273 1.358 . S
C271 H329 0.930 . S
C272 N269 1.314 . S
C272 C270 1.353 . S
C272 H330 0.930 . S
C273 N269 1.279 . S
C273 C271 1.358 . S
C273 H331 0.930 . S
C274 C277 1.348 . S
C274 C278 1.356 . S
C274 O325 1.325 . S
C275 N276 1.279 . S
C275 C278 1.358 . S
C275 H332 0.930 . S
N276 C275 1.279 . S
N276 C279 1.314 . S
C277 C274 1.348 . S
C277 C279 1.353 . S
C277 H333 0.929 . S
C278 C274 1.356 . S
C278 C275 1.358 . S
C278 H334 0.930 . S
C279 N276 1.314 . S
C279 C277 1.353 . S
C279 H335 0.930 . S
C280 N281 1.314 . S
C280 C285 1.353 . S
C280 H286 0.930 . S
N281 Li264 1.990 . S
N281 C280 1.314 . S
N281 C283 1.279 . S
C282 C283 1.358 . S
C282 C284 1.356 . S
C282 H336 0.930 . S
C283 N281 1.279 . S
C283 C282 1.358 . S
C283 H287 0.930 . S
C284 C282 1.356 . S
C284 C285 1.348 . S
C285 C280 1.353 . S
C285 C284 1.348 . S
C285 H337 0.929 . S
H286 C280 0.930 . S
H287 C283 0.930 . S
C288 N289 1.314 . S
C288 C290 1.353 . S
C288 H294 0.930 . S
N289 Li265 1.990 . S
N289 C288 1.314 . S
N289 C292 1.279 . S
C290 C288 1.353 . S
C290 C293 1.348 . S
C290 H338 0.929 . S
C291 C292 1.358 . S
C291 C293 1.356 . S
C291 H339 0.930 . S
C292 N289 1.279 . S
C292 C291 1.358 . S
C292 H295 0.930 . S
C293 C290 1.348 . S
C293 C291 1.356 . S
H294 C288 0.930 . S
H295 C292 0.930 . S
C296 C298 1.348 . S
C296 C299 1.356 . S
C296 O326 1.325 . S
N297 C300 1.314 . S
N297 C301 1.279 . S
C298 C296 1.348 . S
C298 C300 1.353 . S
C298 H340 0.929 . S
C299 C296 1.356 . S
C299 C301 1.358 . S
C299 H341 0.930 . S
C300 N297 1.314 . S
C300 C298 1.353 . S
C300 H342 0.930 . S
C301 N297 1.279 . S
C301 C299 1.358 . S
C301 H343 0.930 . S
C302 C303 1.348 . S
C302 C304 1.356 . S
C302 O327 1.325 . S
C303 C302 1.348 . S
C303 C305 1.353 . S
C303 H344 0.929 . S
C304 C302 1.356 . S
C304 C306 1.358 . S
C304 H345 0.930 . S
C305 C303 1.353 . S
C305 N307 1.314 . S
C305 H346 0.930 . S
C306 C304 1.358 . S
C306 N307 1.279 . S
C306 H347 0.930 . S
N307 C305 1.314 . S
N307 C306 1.279 . S
C308 C310 1.353 . S
C308 N311 1.314 . S
C308 H314 0.930 . S
C309 N311 1.279 . S
C309 C312 1.358 . S
C309 H315 0.930 . S
C310 C308 1.353 . S
C310 C313 1.348 . S
C310 H348 0.929 . S
N311 Li266 1.990 . S
N311 C308 1.314 . S
N311 C309 1.279 . S
C312 C309 1.358 . S
C312 C313 1.356 . S
C312 H349 0.930 . S
C313 C310 1.348 . S
C313 C312 1.356 . S
H314 C308 0.930 . S
H315 C309 0.930 . S
C316 N317 1.314 . S
C316 C318 1.353 . S
C316 H322 0.930 . S
N317 Li267 1.990 . S
N317 C316 1.314 . S
N317 C320 1.279 . S
C318 C316 1.353 . S
C318 C321 1.348 . S
C318 H350 0.929 . S
C319 C320 1.358 . S
C319 C321 1.356 . S
C319 H351 0.930 . S
C320 N317 1.279 . S
C320 C319 1.358 . S
C320 H323 0.930 . S
C321 C318 1.348 . S
C321 C319 1.356 . S
H322 C316 0.930 . S
H323 C320 0.930 . S
O324 Li264 1.956 . S
O324 Li265 1.970 . S
O324 Li266 1.961 . S
O324 C268 1.325 . S
O325 Li264 1.970 . S
O325 Li265 1.956 . S
O325 Li267 1.961 . S
O325 C274 1.325 . S
O326 Li264 1.961 . S
O326 Li266 1.956 . S
O326 Li267 1.970 . S
O326 C296 1.325 . S
O327 Li265 1.961 . S
O327 Li266 1.970 . S
O327 Li267 1.956 . S
O327 C302 1.325 . S
H328 C270 0.929 . S
H329 C271 0.930 . S
H330 C272 0.930 . S
H331 C273 0.930 . S
H332 C275 0.930 . S
H333 C277 0.929 . S
H334 C278 0.930 . S
H335 C279 0.930 . S
H336 C282 0.930 . S
H337 C285 0.929 . S
H338 C290 0.929 . S
H339 C291 0.930 . S
H340 C298 0.929 . S
H341 C299 0.930 . S
H342 C300 0.930 . S
H343 C301 0.930 . S
H344 C303 0.929 . S
H345 C304 0.930 . S
H346 C305 0.930 . S
H347 C306 0.930 . S
H348 C310 0.929 . S
H349 C312 0.930 . S
H350 C318 0.929 . S
H351 C319 0.930 . S
Li352 N369 1.990 . S
Li352 O412 1.956 . S
Li352 O413 1.970 . S
Li352 O414 1.961 . S
Li353 N377 1.990 . S
Li353 O412 1.970 . S
Li353 O413 1.956 . S
Li353 O415 1.961 . S
Li354 N399 1.990 . S
Li354 O412 1.961 . S
Li354 O414 1.956 . S
Li354 O415 1.970 . S
Li355 N405 1.990 . S
Li355 O413 1.961 . S
Li355 O414 1.970 . S
Li355 O415 1.956 . S
C356 C358 1.348 . S
C356 C359 1.356 . S
C356 O412 1.325 . S
N357 C360 1.314 . S
N357 C361 1.279 . S
C358 C356 1.348 . S
C358 C360 1.353 . S
C358 H416 0.929 . S
C359 C356 1.356 . S
C359 C361 1.358 . S
C359 H417 0.930 . S
C360 N357 1.314 . S
C360 C358 1.353 . S
C360 H418 0.930 . S
C361 N357 1.279 . S
C361 C359 1.358 . S
C361 H419 0.930 . S
C362 C365 1.348 . S
C362 C366 1.356 . S
C362 O413 1.325 . S
C363 N364 1.279 . S
C363 C366 1.358 . S
C363 H420 0.930 . S
N364 C363 1.279 . S
N364 C367 1.314 . S
C365 C362 1.348 . S
C365 C367 1.353 . S
C365 H421 0.929 . S
C366 C362 1.356 . S
C366 C363 1.358 . S
C366 H422 0.930 . S
C367 N364 1.314 . S
C367 C365 1.353 . S
C367 H423 0.930 . S
C368 N369 1.314 . S
C368 C373 1.353 . S
C368 H374 0.930 . S
N369 Li352 1.990 . S
N369 C368 1.314 . S
N369 C371 1.279 . S
C370 C371 1.358 . S
C370 C372 1.356 . S
C370 H424 0.930 . S
C371 N369 1.279 . S
C371 C370 1.358 . S
C371 H375 0.930 . S
C372 C370 1.356 . S
C372 C373 1.348 . S
C373 C368 1.353 . S
C373 C372 1.348 . S
C373 H425 0.929 . S
H374 C368 0.930 . S
H375 C371 0.930 . S
C376 N377 1.314 . S
C376 C378 1.353 . S
C376 H382 0.930 . S
N377 Li353 1.990 . S
N377 C376 1.314 . S
N377 C380 1.279 . S
C378 C376 1.353 . S
C378 C381 1.348 . S
C378 H426 0.929 . S
C379 C380 1.358 . S
C379 C381 1.356 . S
C379 H427 0.930 . S
C380 N377 1.279 . S
C380 C379 1.358 . S
C380 H383 0.930 . S
C381 C378 1.348 . S
C381 C379 1.356 . S
H382 C376 0.930 . S
H383 C380 0.930 . S
C384 C386 1.348 . S
C384 C387 1.356 . S
C384 O414 1.325 . S
N385 C388 1.316 . S
N385 C389 1.279 . S
C386 C384 1.348 . S
C386 C388 1.398 . S
C386 H428 0.929 . S
C387 C384 1.356 . S
C387 C389 1.358 . S
C387 H429 0.930 . S
C388 N385 1.316 . S
C388 C386 1.398 . S
C388 H430 0.879 1_455 S
C389 N385 1.279 . S
C389 C387 1.358 . S
C389 H431 0.930 . S
C390 C391 1.348 . S
C390 C392 1.356 . S
C390 O415 1.325 . S
C391 C390 1.348 . S
C391 C393 1.353 . S
C391 H432 0.929 . S
C392 C390 1.356 . S
C392 C394 1.358 . S
C392 H433 0.930 . S
C393 C391 1.353 . S
C393 N395 1.314 . S
C393 H434 0.930 . S
C394 C392 1.358 . S
C394 N395 1.279 . S
C394 H435 0.930 . S
N395 C393 1.314 . S
N395 C394 1.279 . S
C396 C398 1.353 . S
C396 N399 1.314 . S
C396 H402 0.930 . S
C397 N399 1.279 . S
C397 C400 1.358 . S
C397 H403 0.930 . S
C398 C396 1.353 . S
C398 C401 1.348 . S
C398 H436 0.929 . S
N399 Li354 1.990 . S
N399 C396 1.314 . S
N399 C397 1.279 . S
C400 C397 1.358 . S
C400 C401 1.356 . S
C400 H437 0.930 . S
C401 C398 1.348 . S
C401 C400 1.356 . S
H402 C396 0.930 . S
H403 C397 0.930 . S
C404 N405 1.314 . S
C404 C406 1.353 . S
C404 H410 0.930 . S
N405 Li355 1.990 . S
N405 C404 1.314 . S
N405 C408 1.279 . S
C406 C404 1.353 . S
C406 C409 1.334 1_455 S
C406 H438 0.929 . S
C407 C408 1.358 . S
C407 C409 1.316 1_455 S
C407 H439 0.930 . S
C408 N405 1.279 . S
C408 C407 1.358 . S
C408 H411 0.930 . S
C409 C406 1.334 1_655 S
C409 C407 1.316 1_655 S
H410 C404 0.930 . S
H411 C408 0.930 . S
O412 Li352 1.956 . S
O412 Li353 1.970 . S
O412 Li354 1.961 . S
O412 C356 1.325 . S
O413 Li352 1.970 . S
O413 Li353 1.956 . S
O413 Li355 1.961 . S
O413 C362 1.325 . S
O414 Li352 1.961 . S
O414 Li354 1.956 . S
O414 Li355 1.970 . S
O414 C384 1.325 . S
O415 Li353 1.961 . S
O415 Li354 1.970 . S
O415 Li355 1.956 . S
O415 C390 1.325 . S
H416 C358 0.929 . S
H417 C359 0.930 . S
H418 C360 0.930 . S
H419 C361 0.930 . S
H420 C363 0.930 . S
H421 C365 0.929 . S
H422 C366 0.930 . S
H423 C367 0.930 . S
H424 C370 0.930 . S
H425 C373 0.929 . S
H426 C378 0.929 . S
H427 C379 0.930 . S
H428 C386 0.929 . S
H429 C387 0.930 . S
H430 C388 0.879 1_655 S
H431 C389 0.930 . S
H432 C391 0.929 . S
H433 C392 0.930 . S
H434 C393 0.930 . S
H435 C394 0.930 . S
H436 C398 0.929 . S
H437 C400 0.930 . S
H438 C406 0.929 . S
H439 C407 0.930 . S
Li440 N457 1.990 . S
Li440 O500 1.956 . S
Li440 O501 1.970 . S
Li440 O502 1.961 . S
Li441 N465 1.990 . S
Li441 O500 1.970 . S
Li441 O501 1.956 . S
Li441 O503 1.961 . S
Li442 N487 1.990 . S
Li442 O500 1.961 . S
Li442 O502 1.956 . S
Li442 O503 1.970 . S
Li443 N493 1.990 . S
Li443 O501 1.961 . S
Li443 O502 1.970 . S
Li443 O503 1.956 . S
C444 C446 1.348 . S
C444 C447 1.356 . S
C444 O500 1.325 . S
N445 C448 1.314 . S
N445 C449 1.279 . S
C446 C444 1.348 . S
C446 C448 1.353 . S
C446 H504 0.929 . S
C447 C444 1.356 . S
C447 C449 1.358 . S
C447 H505 0.930 . S
C448 N445 1.314 . S
C448 C446 1.353 . S
C448 H506 0.930 . S
C449 N445 1.279 . S
C449 C447 1.358 . S
C449 H507 0.930 . S
C450 C453 1.348 . S
C450 C454 1.356 . S
C450 O501 1.325 . S
C451 N452 1.279 . S
C451 C454 1.358 . S
C451 H508 0.930 . S
N452 C451 1.279 . S
N452 C455 1.314 . S
C453 C450 1.348 . S
C453 C455 1.353 . S
C453 H509 0.929 . S
C454 C450 1.356 . S
C454 C451 1.358 . S
C454 H510 0.930 . S
C455 N452 1.314 . S
C455 C453 1.353 . S
C455 H511 0.930 . S
C456 N457 1.314 . S
C456 C461 1.353 . S
C456 H462 0.930 . S
N457 Li440 1.990 . S
N457 C456 1.314 . S
N457 C459 1.279 . S
C458 C459 1.358 . S
C458 C460 1.356 . S
C458 H512 0.930 . S
C459 N457 1.279 . S
C459 C458 1.358 . S
C459 H463 0.930 . S
C460 C458 1.356 . S
C460 C461 1.348 . S
C461 C456 1.353 . S
C461 C460 1.348 . S
C461 H513 0.929 . S
H462 C456 0.930 . S
H463 C459 0.930 . S
C464 N465 1.314 . S
C464 C466 1.353 . S
C464 H470 0.930 . S
N465 Li441 1.990 . S
N465 C464 1.314 . S
N465 C468 1.279 . S
C466 C464 1.353 . S
C466 C469 1.348 . S
C466 H514 0.929 . S
C467 C468 1.358 . S
C467 C469 1.356 . S
C467 H515 0.930 . S
C468 N465 1.279 . S
C468 C467 1.358 . S
C468 H471 0.930 . S
C469 C466 1.348 . S
C469 C467 1.356 . S
H470 C464 0.930 . S
H471 C468 0.930 . S
C472 C474 1.348 . S
C472 C475 1.356 . S
C472 O502 1.325 . S
N473 C476 1.314 . S
N473 C477 1.279 . S
C474 C472 1.348 . S
C474 C476 1.353 . S
C474 H516 0.929 . S
C475 C472 1.356 . S
C475 C477 1.358 . S
C475 H517 0.930 . S
C476 N473 1.314 . S
C476 C474 1.353 . S
C476 H518 0.930 . S
C477 N473 1.279 . S
C477 C475 1.358 . S
C477 H519 0.930 . S
C478 C479 1.348 . S
C478 C480 1.356 . S
C478 O503 1.325 . S
C479 C478 1.348 . S
C479 C481 1.353 . S
C479 H520 0.929 . S
C480 C478 1.356 . S
C480 C482 1.358 . S
C480 H521 0.930 . S
C481 C479 1.353 . S
C481 N483 1.314 . S
C481 H522 0.930 . S
C482 C480 1.358 . S
C482 N483 1.279 . S
C482 H523 0.930 . S
N483 C481 1.314 . S
N483 C482 1.279 . S
C484 C486 1.353 . S
C484 N487 1.314 . S
C484 H490 0.930 . S
C485 N487 1.279 . S
C485 C488 1.358 . S
C485 H491 0.930 . S
C486 C484 1.353 . S
C486 C489 1.348 . S
C486 H524 0.929 . S
N487 Li442 1.990 . S
N487 C484 1.314 . S
N487 C485 1.279 . S
C488 C485 1.358 . S
C488 C489 1.356 . S
C488 H525 0.930 . S
C489 C486 1.348 . S
C489 C488 1.356 . S
H490 C484 0.930 . S
H491 C485 0.930 . S
C492 N493 1.314 . S
C492 C494 1.353 . S
C492 H498 0.930 . S
N493 Li443 1.990 . S
N493 C492 1.314 . S
N493 C496 1.279 . S
C494 C492 1.353 . S
C494 C497 1.348 . S
C494 H526 0.929 . S
C495 C496 1.358 . S
C495 C497 1.356 . S
C495 H527 0.930 . S
C496 N493 1.279 . S
C496 C495 1.358 . S
C496 H499 0.930 . S
C497 C494 1.348 . S
C497 C495 1.356 . S
H498 C492 0.930 . S
H499 C496 0.930 . S
O500 Li440 1.956 . S
O500 Li441 1.970 . S
O500 Li442 1.961 . S
O500 C444 1.325 . S
O501 Li440 1.970 . S
O501 Li441 1.956 . S
O501 Li443 1.961 . S
O501 C450 1.325 . S
O502 Li440 1.961 . S
O502 Li442 1.956 . S
O502 Li443 1.970 . S
O502 C472 1.325 . S
O503 Li441 1.961 . S
O503 Li442 1.970 . S
O503 Li443 1.956 . S
O503 C478 1.325 . S
H504 C446 0.929 . S
H505 C447 0.930 . S
H506 C448 0.930 . S
H507 C449 0.930 . S
H508 C451 0.930 . S
H509 C453 0.929 . S
H510 C454 0.930 . S
H511 C455 0.930 . S
H512 C458 0.930 . S
H513 C461 0.929 . S
H514 C466 0.929 . S
H515 C467 0.930 . S
H516 C474 0.929 . S
H517 C475 0.930 . S
H518 C476 0.930 . S
H519 C477 0.930 . S
H520 C479 0.929 . S
H521 C480 0.930 . S
H522 C481 0.930 . S
H523 C482 0.930 . S
H524 C486 0.929 . S
H525 C488 0.930 . S
H526 C494 0.929 . S
H527 C495 0.930 . S
Li528 N545 1.990 . S
Li528 O588 1.956 . S
Li528 O589 1.970 . S
Li528 O590 1.961 . S
Li529 N553 1.990 . S
Li529 O588 1.970 . S
Li529 O589 1.956 . S
Li529 O591 1.961 . S
Li530 N575 1.990 . S
Li530 O588 1.961 . S
Li530 O590 1.956 . S
Li530 O591 1.970 . S
Li531 N581 1.990 . S
Li531 O589 1.961 . S
Li531 O590 1.970 . S
Li531 O591 1.956 . S
C532 C534 1.348 . S
C532 C535 1.356 . S
C532 O588 1.325 . S
N533 C536 1.314 . S
N533 C537 1.279 . S
C534 C532 1.348 . S
C534 C536 1.353 . S
C534 H592 0.929 . S
C535 C532 1.356 . S
C535 C537 1.358 . S
C535 H593 0.930 . S
C536 N533 1.314 . S
C536 C534 1.353 . S
C536 H594 0.930 . S
C537 N533 1.279 . S
C537 C535 1.358 . S
C537 H595 0.930 . S
C538 C541 1.348 . S
C538 C542 1.356 . S
C538 O589 1.325 . S
C539 N540 1.279 . S
C539 C542 1.358 . S
C539 H596 0.930 . S
N540 C539 1.279 . S
N540 C543 1.314 . S
C541 C538 1.348 . S
C541 C543 1.353 . S
C541 H597 0.929 . S
C542 C538 1.356 . S
C542 C539 1.358 . S
C542 H598 0.930 . S
C543 N540 1.314 . S
C543 C541 1.353 . S
C543 H599 0.930 . S
C544 N545 1.314 . S
C544 C549 1.353 . S
C544 H550 0.930 . S
N545 Li528 1.990 . S
N545 C544 1.314 . S
N545 C547 1.279 . S
C546 C547 1.358 . S
C546 C548 1.356 . S
C546 H600 0.930 . S
C547 N545 1.279 . S
C547 C546 1.358 . S
C547 H551 0.930 . S
C548 C546 1.356 . S
C548 C549 1.348 . S
C549 C544 1.353 . S
C549 C548 1.348 . S
C549 H601 0.929 . S
H550 C544 0.930 . S
H551 C547 0.930 . S
C552 N553 1.314 . S
C552 C554 1.353 . S
C552 H558 0.930 . S
N553 Li529 1.990 . S
N553 C552 1.314 . S
N553 C556 1.279 . S
C554 C552 1.353 . S
C554 C557 1.348 . S
C554 H602 0.929 . S
C555 C556 1.358 . S
C555 C557 1.356 . S
C555 H603 0.930 . S
C556 N553 1.279 . S
C556 C555 1.358 . S
C556 H559 0.930 . S
C557 C554 1.348 . S
C557 C555 1.356 . S
H558 C552 0.930 . S
H559 C556 0.930 . S
C560 C562 1.348 . S
C560 C563 1.356 . S
C560 O590 1.325 . S
N561 C564 1.314 . S
N561 C565 1.279 . S
C562 C560 1.348 . S
C562 C564 1.353 . S
C562 H604 0.929 . S
C563 C560 1.356 . S
C563 C565 1.358 . S
C563 H605 0.930 . S
C564 N561 1.314 . S
C564 C562 1.353 . S
C564 H606 0.930 . S
C565 N561 1.279 . S
C565 C563 1.358 . S
C565 H607 0.930 . S
C566 C567 1.348 . S
C566 C568 1.356 . S
C566 O591 1.325 . S
C567 C566 1.348 . S
C567 C569 1.353 . S
C567 H608 0.929 . S
C568 C566 1.356 . S
C568 C570 1.358 . S
C568 H609 0.930 . S
C569 C567 1.353 . S
C569 N571 1.314 . S
C569 H610 0.930 . S
C570 C568 1.358 . S
C570 N571 1.279 . S
C570 H611 0.930 . S
N571 C569 1.314 . S
N571 C570 1.279 . S
C572 C574 1.353 . S
C572 N575 1.314 . S
C572 H578 0.930 . S
C573 N575 1.279 . S
C573 C576 1.358 . S
C573 H579 0.930 . S
C574 C572 1.353 . S
C574 C577 1.348 . S
C574 H612 0.929 . S
N575 Li530 1.990 . S
N575 C572 1.314 . S
N575 C573 1.279 . S
C576 C573 1.358 . S
C576 C577 1.356 . S
C576 H613 0.930 . S
C577 C574 1.348 . S
C577 C576 1.356 . S
H578 C572 0.930 . S
H579 C573 0.930 . S
C580 N581 1.314 . S
C580 C582 1.353 . S
C580 H586 0.930 . S
N581 Li531 1.990 . S
N581 C580 1.314 . S
N581 C584 1.279 . S
C582 C580 1.353 . S
C582 C585 1.348 . S
C582 H614 0.929 . S
C583 C584 1.358 . S
C583 C585 1.356 . S
C583 H615 0.930 . S
C584 N581 1.279 . S
C584 C583 1.358 . S
C584 H587 0.930 . S
C585 C582 1.348 . S
C585 C583 1.356 . S
H586 C580 0.930 . S
H587 C584 0.930 . S
O588 Li528 1.956 . S
O588 Li529 1.970 . S
O588 Li530 1.961 . S
O588 C532 1.325 . S
O589 Li528 1.970 . S
O589 Li529 1.956 . S
O589 Li531 1.961 . S
O589 C538 1.325 . S
O590 Li528 1.961 . S
O590 Li530 1.956 . S
O590 Li531 1.970 . S
O590 C560 1.325 . S
O591 Li529 1.961 . S
O591 Li530 1.970 . S
O591 Li531 1.956 . S
O591 C566 1.325 . S
H592 C534 0.929 . S
H593 C535 0.930 . S
H594 C536 0.930 . S
H595 C537 0.930 . S
H596 C539 0.930 . S
H597 C541 0.929 . S
H598 C542 0.930 . S
H599 C543 0.930 . S
H600 C546 0.930 . S
H601 C549 0.929 . S
H602 C554 0.929 . S
H603 C555 0.930 . S
H604 C562 0.929 . S
H605 C563 0.930 . S
H606 C564 0.930 . S
H607 C565 0.930 . S
H608 C567 0.929 . S
H609 C568 0.930 . S
H610 C569 0.930 . S
H611 C570 0.930 . S
H612 C574 0.929 . S
H613 C576 0.930 . S
H614 C582 0.929 . S
H615 C583 0.930 . S
Li616 N633 1.990 . S
Li616 O676 1.956 1_455 S
Li616 O677 1.970 . S
Li616 O678 1.961 . S
Li617 N641 1.990 . S
Li617 O676 1.970 . S
Li617 O677 1.956 1_655 S
Li617 O679 1.961 . S
Li618 N663 1.990 . S
Li618 O676 1.961 . S
Li618 O678 1.956 1_655 S
Li618 O679 1.970 . S
Li619 N669 1.990 . S
Li619 O677 1.961 . S
Li619 O678 1.970 . S
Li619 O679 1.956 1_455 S
C620 C622 1.348 . S
C620 C623 1.356 . S
C620 O676 1.325 . S
N621 C624 1.314 . S
N621 C625 1.279 . S
C622 C620 1.348 . S
C622 C624 1.353 . S
C622 H680 0.929 . S
C623 C620 1.356 . S
C623 C625 1.358 . S
C623 H681 0.930 . S
C624 N621 1.314 . S
C624 C622 1.353 . S
C624 H682 0.930 . S
C625 N621 1.279 . S
C625 C623 1.358 . S
C625 H683 0.930 . S
C626 C629 1.348 . S
C626 C630 1.356 . S
C626 O677 1.325 . S
C627 N628 1.279 . S
C627 C630 1.358 . S
C627 H684 0.930 . S
N628 C627 1.279 . S
N628 C631 1.314 . S
C629 C626 1.348 . S
C629 C631 1.353 . S
C629 H685 0.916 1_455 S
C630 C626 1.356 . S
C630 C627 1.358 . S
C630 H686 0.930 . S
C631 N628 1.314 . S
C631 C629 1.353 . S
C631 H687 0.930 . S
C632 N633 1.314 . S
C632 C637 1.353 . S
C632 H638 0.930 . S
N633 Li616 1.990 . S
N633 C632 1.314 . S
N633 C635 1.279 1_455 S
C634 C635 1.358 . S
C634 C636 1.356 1_655 S
C634 H688 0.930 . S
C635 N633 1.279 1_655 S
C635 C634 1.358 . S
C635 H639 0.930 . S
C636 C634 1.356 1_455 S
C636 C637 1.348 . S
C637 C632 1.353 . S
C637 C636 1.348 . S
C637 H689 0.929 . S
H638 C632 0.930 . S
H639 C635 0.930 . S
C640 N641 1.314 . S
C640 C642 1.353 . S
C640 H646 0.930 . S
N641 Li617 1.990 . S
N641 C640 1.314 . S
N641 C644 1.279 . S
C642 C640 1.353 . S
C642 C645 1.348 . S
C642 H690 0.929 . S
C643 C644 1.358 . S
C643 C645 1.356 . S
C643 H691 0.930 . S
C644 N641 1.279 . S
C644 C643 1.358 . S
C644 H647 0.930 . S
C645 C642 1.348 . S
C645 C643 1.356 . S
H646 C640 0.930 . S
H647 C644 0.930 . S
C648 C650 1.348 . S
C648 C651 1.356 . S
C648 O678 1.325 . S
N649 C652 1.314 . S
N649 C653 1.279 . S
C650 C648 1.348 . S
C650 C652 1.353 . S
C650 H692 0.929 . S
C651 C648 1.356 . S
C651 C653 1.358 . S
C651 H693 0.930 . S
C652 N649 1.314 . S
C652 C650 1.353 . S
C652 H694 0.930 . S
C653 N649 1.279 . S
C653 C651 1.358 . S
C653 H695 0.930 1_556 S
C654 C655 1.348 . S
C654 C656 1.356 . S
C654 O679 1.325 . S
C655 C654 1.348 . S
C655 C657 1.353 . S
C655 H696 0.927 1_655 S
C656 C654 1.356 . S
C656 C658 1.358 . S
C656 H697 0.930 . S
C657 C655 1.353 . S
C657 N659 1.314 . S
C657 H698 0.930 . S
C658 C656 1.358 . S
C658 N659 1.279 . S
C658 H699 0.930 . S
N659 C657 1.314 . S
N659 C658 1.279 . S
C660 C662 1.353 . S
C660 N663 1.314 . S
C660 H666 0.930 . S
C661 N663 1.279 1_455 S
C661 C664 1.358 . S
C661 H667 0.930 . S
C662 C660 1.353 . S
C662 C665 1.348 . S
C662 H700 0.929 . S
N663 Li618 1.990 . S
N663 C660 1.314 . S
N663 C661 1.279 1_655 S
C664 C661 1.358 . S
C664 C665 1.356 1_455 S
C664 H701 0.930 . S
C665 C662 1.348 . S
C665 C664 1.356 1_655 S
H666 C660 0.930 . S
H667 C661 0.930 . S
C668 N669 1.314 . S
C668 C670 1.353 . S
C668 H674 0.930 . S
N669 Li619 1.990 . S
N669 C668 1.314 . S
N669 C672 1.279 . S
C670 C668 1.353 . S
C670 C673 1.348 . S
C670 H702 0.929 . S
C671 C672 1.358 . S
C671 C673 1.356 . S
C671 H703 0.930 . S
C672 N669 1.279 . S
C672 C671 1.358 . S
C672 H675 0.930 . S
C673 C670 1.348 . S
C673 C671 1.356 . S
H674 C668 0.930 . S
H675 C672 0.930 . S
O676 Li616 1.956 1_655 S
O676 Li617 1.970 . S
O676 Li618 1.961 . S
O676 C620 1.325 . S
O677 Li616 1.970 . S
O677 Li617 1.956 1_455 S
O677 Li619 1.961 . S
O677 C626 1.325 . S
O678 Li616 1.961 . S
O678 Li618 1.956 1_455 S
O678 Li619 1.970 . S
O678 C648 1.325 . S
O679 Li617 1.961 . S
O679 Li618 1.970 . S
O679 Li619 1.956 1_655 S
O679 C654 1.325 . S
H680 C622 0.929 . S
H681 C623 0.930 . S
H682 C624 0.930 . S
H683 C625 0.930 . S
H684 C627 0.930 . S
H685 C629 0.916 1_655 S
H686 C630 0.930 . S
H687 C631 0.930 . S
H688 C634 0.930 . S
H689 C637 0.929 . S
H690 C642 0.929 . S
H691 C643 0.930 . S
H692 C650 0.929 . S
H693 C651 0.930 . S
H694 C652 0.930 . S
H695 C653 0.930 1_554 S
H696 C655 0.927 1_455 S
H697 C656 0.930 . S
H698 C657 0.930 . S
H699 C658 0.930 . S
H700 C662 0.929 . S
H701 C664 0.930 . S
H702 C670 0.929 . S
H703 C671 0.930 . S
Li704 N721 1.990 . S
Li704 O764 1.956 . S
Li704 O765 1.970 . S
Li704 O766 1.961 . S
Li705 N729 1.990 1_545 S
Li705 O764 1.970 . S
Li705 O765 1.956 . S
Li705 O767 1.961 . S
Li706 N751 1.990 . S
Li706 O764 1.961 . S
Li706 O766 1.956 . S
Li706 O767 1.970 . S
Li707 N757 1.990 . S
Li707 O765 1.961 . S
Li707 O766 1.970 . S
Li707 O767 1.956 . S
C708 C710 1.348 . S
C708 C711 1.356 . S
C708 O764 1.325 1_565 S
N709 C712 1.314 . S
N709 C713 1.279 . S
C710 C708 1.348 . S
C710 C712 1.353 . S
C710 H768 0.929 . S
C711 C708 1.356 . S
C711 C713 1.358 . S
C711 H769 0.930 1_565 S
C712 N709 1.314 . S
C712 C710 1.353 . S
C712 H770 0.930 . S
C713 N709 1.279 . S
C713 C711 1.358 . S
C713 H771 0.930 . S
C714 C717 1.348 . S
C714 C718 1.356 . S
C714 O765 1.325 . S
C715 N716 1.279 . S
C715 C718 1.358 . S
C715 H772 0.930 . S
N716 C715 1.279 . S
N716 C719 1.314 . S
C717 C714 1.348 . S
C717 C719 1.353 . S
C717 H773 0.929 . S
C718 C714 1.356 . S
C718 C715 1.358 . S
C718 H774 0.930 . S
C719 N716 1.314 . S
C719 C717 1.353 . S
C719 H775 0.930 . S
C720 N721 1.314 . S
C720 C725 1.353 . S
C720 H726 0.930 . S
N721 Li704 1.990 . S
N721 C720 1.314 . S
N721 C723 1.279 . S
C722 C723 1.358 . S
C722 C724 1.356 . S
C722 H776 0.930 . S
C723 N721 1.279 . S
C723 C722 1.358 . S
C723 H727 0.930 . S
C724 C722 1.356 . S
C724 C725 1.348 . S
C725 C720 1.353 . S
C725 C724 1.348 . S
C725 H777 0.929 . S
H726 C720 0.930 . S
H727 C723 0.930 . S
C728 N729 1.314 . S
C728 C730 1.353 . S
C728 H734 0.930 . S
N729 Li705 1.990 1_565 S
N729 C728 1.314 . S
N729 C732 1.279 . S
C730 C728 1.353 . S
C730 C733 1.348 . S
C730 H778 0.929 . S
C731 C732 1.358 . S
C731 C733 1.356 . S
C731 H779 0.930 . S
C732 N729 1.279 . S
C732 C731 1.358 . S
C732 H735 0.930 . S
C733 C730 1.348 . S
C733 C731 1.356 . S
H734 C728 0.930 . S
H735 C732 0.930 . S
C736 C738 1.348 . S
C736 C739 1.356 . S
C736 O766 1.325 . S
N737 C740 1.314 . S
N737 C741 1.279 . S
C738 C736 1.348 . S
C738 C740 1.353 . S
C738 H780 0.929 . S
C739 C736 1.356 . S
C739 C741 1.358 . S
C739 H781 0.930 . S
C740 N737 1.314 . S
C740 C738 1.353 . S
C740 H782 0.930 . S
C741 N737 1.279 . S
C741 C739 1.358 . S
C741 H783 0.930 . S
C742 C743 1.348 . S
C742 C744 1.356 . S
C742 O767 1.325 . S
C743 C742 1.348 . S
C743 C745 1.353 . S
C743 H784 0.929 . S
C744 C742 1.356 . S
C744 C746 1.358 . S
C744 H785 0.930 . S
C745 C743 1.353 . S
C745 N747 1.314 . S
C745 H786 0.930 . S
C746 C744 1.358 . S
C746 N747 1.279 . S
C746 H787 0.930 . S
N747 C745 1.314 . S
N747 C746 1.279 . S
C748 C750 1.353 . S
C748 N751 1.314 . S
C748 H754 0.930 . S
C749 N751 1.279 . S
C749 C752 1.358 . S
C749 H755 0.930 . S
C750 C748 1.353 . S
C750 C753 1.348 . S
C750 H788 0.929 . S
N751 Li706 1.990 . S
N751 C748 1.314 . S
N751 C749 1.279 . S
C752 C749 1.358 . S
C752 C753 1.356 . S
C752 H789 0.930 . S
C753 C750 1.348 . S
C753 C752 1.356 . S
H754 C748 0.930 . S
H755 C749 0.930 . S
C756 N757 1.314 . S
C756 C758 1.353 . S
C756 H762 0.930 . S
N757 Li707 1.990 . S
N757 C756 1.314 . S
N757 C760 1.279 . S
C758 C756 1.353 . S
C758 C761 1.348 . S
C758 H790 0.929 . S
C759 C760 1.358 . S
C759 C761 1.356 . S
C759 H791 0.930 . S
C760 N757 1.279 . S
C760 C759 1.358 . S
C760 H763 0.930 . S
C761 C758 1.348 . S
C761 C759 1.356 . S
H762 C756 0.930 . S
H763 C760 0.930 . S
O764 Li704 1.956 . S
O764 Li705 1.970 . S
O764 Li706 1.961 . S
O764 C708 1.325 1_545 S
O765 Li704 1.970 . S
O765 Li705 1.956 . S
O765 Li707 1.961 . S
O765 C714 1.325 . S
O766 Li704 1.961 . S
O766 Li706 1.956 . S
O766 Li707 1.970 . S
O766 C736 1.325 . S
O767 Li705 1.961 . S
O767 Li706 1.970 . S
O767 Li707 1.956 . S
O767 C742 1.325 . S
H768 C710 0.929 . S
H769 C711 0.930 1_545 S
H770 C712 0.930 . S
H771 C713 0.930 . S
H772 C715 0.930 . S
H773 C717 0.929 . S
H774 C718 0.930 . S
H775 C719 0.930 . S
H776 C722 0.930 . S
H777 C725 0.929 . S
H778 C730 0.929 . S
H779 C731 0.930 . S
H780 C738 0.929 . S
H781 C739 0.930 . S
H782 C740 0.930 . S
H783 C741 0.930 . S
H784 C743 0.929 . S
H785 C744 0.930 . S
H786 C745 0.930 . S
H787 C746 0.930 . S
H788 C750 0.929 . S
H789 C752 0.930 . S
H790 C758 0.929 . S
H791 C759 0.930 . S
Li792 N809 1.990 . S
Li792 O852 1.956 . S
Li792 O853 1.970 . S
Li792 O854 1.961 . S
Li793 N817 1.990 . S
Li793 O852 1.970 . S
Li793 O853 1.956 . S
Li793 O855 1.961 . S
Li794 N839 1.990 . S
Li794 O852 1.961 . S
Li794 O854 1.956 . S
Li794 O855 1.970 . S
Li795 N845 1.990 . S
Li795 O853 1.961 . S
Li795 O854 1.970 . S
Li795 O855 1.956 . S
C796 C798 1.348 . S
C796 C799 1.356 . S
C796 O852 1.325 . S
N797 C800 1.314 . S
N797 C801 1.279 . S
C798 C796 1.348 . S
C798 C800 1.353 . S
C798 H856 0.929 . S
C799 C796 1.356 . S
C799 C801 1.358 . S
C799 H857 0.930 . S
C800 N797 1.314 . S
C800 C798 1.353 . S
C800 H858 0.930 . S
C801 N797 1.279 . S
C801 C799 1.358 . S
C801 H859 0.930 . S
C802 C805 1.348 . S
C802 C806 1.356 . S
C802 O853 1.325 . S
C803 N804 1.279 . S
C803 C806 1.358 . S
C803 H860 0.930 . S
N804 C803 1.279 . S
N804 C807 1.314 . S
C805 C802 1.348 . S
C805 C807 1.353 . S
C805 H861 0.929 . S
C806 C802 1.356 . S
C806 C803 1.358 . S
C806 H862 0.930 . S
C807 N804 1.314 . S
C807 C805 1.353 . S
C807 H863 0.930 . S
C808 N809 1.314 . S
C808 C813 1.353 . S
C808 H814 0.930 . S
N809 Li792 1.990 . S
N809 C808 1.314 . S
N809 C811 1.279 . S
C810 C811 1.358 . S
C810 C812 1.356 . S
C810 H864 0.930 . S
C811 N809 1.279 . S
C811 C810 1.358 . S
C811 H815 0.930 . S
C812 C810 1.356 . S
C812 C813 1.348 . S
C813 C808 1.353 . S
C813 C812 1.348 . S
C813 H865 0.929 . S
H814 C808 0.930 . S
H815 C811 0.930 . S
C816 N817 1.314 . S
C816 C818 1.353 . S
C816 H822 0.930 . S
N817 Li793 1.990 . S
N817 C816 1.314 . S
N817 C820 1.279 . S
C818 C816 1.353 . S
C818 C821 1.348 . S
C818 H866 0.929 . S
C819 C820 1.358 . S
C819 C821 1.356 . S
C819 H867 0.930 . S
C820 N817 1.279 . S
C820 C819 1.358 . S
C820 H823 0.930 . S
C821 C818 1.348 . S
C821 C819 1.356 . S
H822 C816 0.930 . S
H823 C820 0.930 . S
C824 C826 1.348 . S
C824 C827 1.356 . S
C824 O854 1.325 . S
N825 C828 1.314 . S
N825 C829 1.279 . S
C826 C824 1.348 . S
C826 C828 1.353 . S
C826 H868 0.929 . S
C827 C824 1.356 . S
C827 C829 1.358 . S
C827 H869 0.930 . S
C828 N825 1.314 . S
C828 C826 1.353 . S
C828 H870 0.930 . S
C829 N825 1.279 . S
C829 C827 1.358 . S
C829 H871 0.930 . S
C830 C831 1.348 . S
C830 C832 1.356 . S
C830 O855 1.325 . S
C831 C830 1.348 . S
C831 C833 1.353 . S
C831 H872 0.929 . S
C832 C830 1.356 . S
C832 C834 1.358 . S
C832 H873 0.930 . S
C833 C831 1.353 . S
C833 N835 1.314 . S
C833 H874 0.930 . S
C834 C832 1.358 . S
C834 N835 1.279 . S
C834 H875 0.930 . S
N835 C833 1.314 . S
N835 C834 1.279 . S
C836 C838 1.353 . S
C836 N839 1.314 . S
C836 H842 0.930 . S
C837 N839 1.279 . S
C837 C840 1.358 . S
C837 H843 0.930 . S
C838 C836 1.353 . S
C838 C841 1.348 . S
C838 H876 0.929 . S
N839 Li794 1.990 . S
N839 C836 1.314 . S
N839 C837 1.279 . S
C840 C837 1.358 . S
C840 C841 1.356 . S
C840 H877 0.930 . S
C841 C838 1.348 . S
C841 C840 1.356 . S
H842 C836 0.930 . S
H843 C837 0.930 . S
C844 N845 1.314 . S
C844 C846 1.353 . S
C844 H850 0.930 . S
N845 Li795 1.990 . S
N845 C844 1.314 . S
N845 C848 1.279 . S
C846 C844 1.353 . S
C846 C849 1.348 . S
C846 H878 0.929 . S
C847 C848 1.358 . S
C847 C849 1.356 . S
C847 H879 0.930 . S
C848 N845 1.279 . S
C848 C847 1.358 . S
C848 H851 0.930 . S
C849 C846 1.348 . S
C849 C847 1.356 . S
H850 C844 0.930 . S
H851 C848 0.930 . S
O852 Li792 1.956 . S
O852 Li793 1.970 . S
O852 Li794 1.961 . S
O852 C796 1.325 . S
O853 Li792 1.970 . S
O853 Li793 1.956 . S
O853 Li795 1.961 . S
O853 C802 1.325 . S
O854 Li792 1.961 . S
O854 Li794 1.956 . S
O854 Li795 1.970 . S
O854 C824 1.325 . S
O855 Li793 1.961 . S
O855 Li794 1.970 . S
O855 Li795 1.956 . S
O855 C830 1.325 . S
H856 C798 0.929 . S
H857 C799 0.930 . S
H858 C800 0.930 . S
H859 C801 0.930 . S
H860 C803 0.930 . S
H861 C805 0.929 . S
H862 C806 0.930 . S
H863 C807 0.930 . S
H864 C810 0.930 . S
H865 C813 0.929 . S
H866 C818 0.929 . S
H867 C819 0.930 . S
H868 C826 0.929 . S
H869 C827 0.930 . S
H870 C828 0.930 . S
H871 C829 0.930 . S
H872 C831 0.929 . S
H873 C832 0.930 . S
H874 C833 0.930 . S
H875 C834 0.930 . S
H876 C838 0.929 . S
H877 C840 0.930 . S
H878 C846 0.929 . S
H879 C847 0.930 . S
Li880 N897 1.990 . S
Li880 O940 1.956 . S
Li880 O941 1.970 . S
Li880 O942 1.961 . S
Li881 N905 1.990 . S
Li881 O940 1.970 . S
Li881 O941 1.956 . S
Li881 O943 1.961 . S
Li882 N927 1.990 . S
Li882 O940 1.961 . S
Li882 O942 1.956 . S
Li882 O943 1.970 . S
Li883 N933 1.990 . S
Li883 O941 1.961 . S
Li883 O942 1.970 . S
Li883 O943 1.956 . S
C884 C886 1.348 . S
C884 C887 1.356 . S
C884 O940 1.325 . S
N885 C888 1.314 . S
N885 C889 1.279 . S
C886 C884 1.348 . S
C886 C888 1.353 . S
C886 H944 0.929 . S
C887 C884 1.356 . S
C887 C889 1.358 . S
C887 H945 0.930 . S
C888 N885 1.314 . S
C888 C886 1.353 . S
C888 H946 0.930 . S
C889 N885 1.279 . S
C889 C887 1.358 . S
C889 H947 0.930 . S
C890 C893 1.348 . S
C890 C894 1.356 . S
C890 O941 1.325 . S
C891 N892 1.279 . S
C891 C894 1.358 . S
C891 H948 0.930 . S
N892 C891 1.279 . S
N892 C895 1.314 . S
C893 C890 1.348 . S
C893 C895 1.353 . S
C893 H949 0.929 . S
C894 C890 1.356 . S
C894 C891 1.358 . S
C894 H950 0.930 . S
C895 N892 1.314 . S
C895 C893 1.353 . S
C895 H951 0.930 . S
C896 N897 1.314 . S
C896 C901 1.353 . S
C896 H902 0.930 . S
N897 Li880 1.990 . S
N897 C896 1.314 . S
N897 C899 1.279 . S
C898 C899 1.358 . S
C898 C900 1.356 . S
C898 H952 0.930 . S
C899 N897 1.279 . S
C899 C898 1.358 . S
C899 H903 0.930 . S
C900 C898 1.356 . S
C900 C901 1.348 . S
C901 C896 1.353 . S
C901 C900 1.348 . S
C901 H953 0.929 . S
H902 C896 0.930 . S
H903 C899 0.930 . S
C904 N905 1.314 . S
C904 C906 1.353 . S
C904 H910 0.930 . S
N905 Li881 1.990 . S
N905 C904 1.314 . S
N905 C908 1.279 . S
C906 C904 1.353 . S
C906 C909 1.348 . S
C906 H954 0.929 . S
C907 C908 1.358 . S
C907 C909 1.356 . S
C907 H955 0.930 . S
C908 N905 1.279 . S
C908 C907 1.358 . S
C908 H911 0.930 . S
C909 C906 1.348 . S
C909 C907 1.356 . S
H910 C904 0.930 . S
H911 C908 0.930 . S
C912 C914 1.348 . S
C912 C915 1.356 . S
C912 O942 1.325 . S
N913 C916 1.314 . S
N913 C917 1.279 . S
C914 C912 1.348 . S
C914 C916 1.353 . S
C914 H956 0.929 . S
C915 C912 1.356 . S
C915 C917 1.358 . S
C915 H957 0.930 . S
C916 N913 1.314 . S
C916 C914 1.353 . S
C916 H958 0.930 . S
C917 N913 1.279 . S
C917 C915 1.358 . S
C917 H959 0.930 . S
C918 C919 1.306 1_545 S
C918 C920 1.364 1_545 S
C918 O943 1.357 . S
C919 C918 1.306 1_565 S
C919 C921 1.353 . S
C919 H960 0.929 . S
C920 C918 1.364 1_565 S
C920 C922 1.358 . S
C920 H961 0.930 1_565 S
C921 C919 1.353 . S
C921 N923 1.314 . S
C921 H962 0.930 . S
C922 C920 1.358 . S
C922 N923 1.279 . S
C922 H963 0.930 . S
N923 C921 1.314 . S
N923 C922 1.279 . S
C924 C926 1.353 . S
C924 N927 1.314 1_565 S
C924 H930 0.916 1_565 S
C925 N927 1.279 . S
C925 C928 1.358 1_545 S
C925 H931 0.930 . S
C926 C924 1.353 . S
C926 C929 1.348 . S
C926 H964 0.929 . S
N927 Li882 1.990 . S
N927 C924 1.314 1_545 S
N927 C925 1.279 . S
C928 C925 1.358 1_565 S
C928 C929 1.356 . S
C928 H965 0.930 . S
C929 C926 1.348 . S
C929 C928 1.356 . S
H930 C924 0.916 1_545 S
H931 C925 0.930 . S
C932 N933 1.314 . S
C932 C934 1.353 . S
C932 H938 0.930 . S
N933 Li883 1.990 . S
N933 C932 1.314 . S
N933 C936 1.279 . S
C934 C932 1.353 . S
C934 C937 1.348 . S
C934 H966 0.929 . S
C935 C936 1.358 . S
C935 C937 1.356 . S
C935 H967 0.946 . S
C936 N933 1.279 . S
C936 C935 1.358 . S
C936 H939 0.930 . S
C937 C934 1.348 . S
C937 C935 1.356 . S
H938 C932 0.930 . S
H939 C936 0.930 . S
O940 Li880 1.956 . S
O940 Li881 1.970 . S
O940 Li882 1.961 . S
O940 C884 1.325 . S
O941 Li880 1.970 . S
O941 Li881 1.956 . S
O941 Li883 1.961 . S
O941 C890 1.325 . S
O942 Li880 1.961 . S
O942 Li882 1.956 . S
O942 Li883 1.970 . S
O942 C912 1.325 . S
O943 Li881 1.961 . S
O943 Li882 1.970 . S
O943 Li883 1.956 . S
O943 C918 1.357 . S
H944 C886 0.929 . S
H945 C887 0.930 . S
H946 C888 0.930 . S
H947 C889 0.930 . S
H948 C891 0.930 . S
H949 C893 0.929 . S
H950 C894 0.930 . S
H951 C895 0.930 . S
H952 C898 0.930 . S
H953 C901 0.929 . S
H954 C906 0.929 . S
H955 C907 0.930 . S
H956 C914 0.929 . S
H957 C915 0.930 . S
H958 C916 0.930 . S
H959 C917 0.930 . S
H960 C919 0.929 . S
H961 C920 0.930 1_545 S
H962 C921 0.930 . S
H963 C922 0.930 . S
H964 C926 0.929 . S
H965 C928 0.930 . S
H966 C934 0.929 . S
H967 C935 0.946 . S
Li968 N985 1.992 . S
Li968 O1028 1.987 . S
Li968 O1029 1.971 1_554 S
Li968 O1030 1.927 1_554 S
Li969 N993 1.990 . S
Li969 O1028 1.970 . S
Li969 O1029 1.956 1_554 S
Li969 O1031 1.986 . S
Li970 N1015 1.990 . S
Li970 O1028 1.961 . S
Li970 O1030 1.956 1_554 S
Li970 O1031 1.968 . S
Li971 N1021 1.990 . S
Li971 O1029 1.961 . S
Li971 O1030 1.970 . S
Li971 O1031 1.931 1_556 S
C972 C974 1.348 . S
C972 C975 1.356 . S
C972 O1028 1.325 . S
N973 C976 1.314 . S
N973 C977 1.279 . S
C974 C972 1.348 . S
C974 C976 1.353 . S
C974 H1032 0.929 . S
C975 C972 1.356 . S
C975 C977 1.358 . S
C975 H1033 0.930 . S
C976 N973 1.314 . S
C976 C974 1.353 . S
C976 H1034 0.930 . S
C977 N973 1.279 . S
C977 C975 1.358 . S
C977 H1035 0.930 1_565 S
C978 C981 1.348 1_556 S
C978 C982 1.356 . S
C978 O1029 1.325 . S
C979 N980 1.279 . S
C979 C982 1.358 . S
C979 H1036 0.930 . S
N980 C979 1.279 . S
N980 C983 1.314 1_556 S
C981 C978 1.348 1_554 S
C981 C983 1.353 . S
C981 H1037 0.929 . S
C982 C978 1.356 . S
C982 C979 1.358 . S
C982 H1038 0.930 . S
C983 N980 1.314 1_554 S
C983 C981 1.353 . S
C983 H1039 0.930 . S
C984 N985 1.314 1_556 S
C984 C989 1.353 . S
C984 H990 0.930 . S
N985 Li968 1.992 . S
N985 C984 1.314 1_554 S
N985 C987 1.279 . S
C986 C987 1.358 . S
C986 C988 1.369 . S
C986 H1040 0.930 . S
C987 N985 1.279 . S
C987 C986 1.358 . S
C987 H991 0.930 . S
C988 C986 1.369 . S
C988 C989 1.335 1_554 S
C989 C984 1.353 . S
C989 C988 1.335 1_556 S
C989 H1041 0.929 . S
H990 C984 0.930 . S
H991 C987 0.930 . S
C992 N993 1.314 . S
C992 C994 1.353 . S
C992 H998 0.930 . S
N993 Li969 1.990 . S
N993 C992 1.314 . S
N993 C996 1.279 . S
C994 C992 1.353 . S
C994 C997 1.348 . S
C994 H1042 0.929 . S
C995 C996 1.358 . S
C995 C997 1.356 . S
C995 H1043 0.930 . S
C996 N993 1.279 . S
C996 C995 1.358 . S
C996 H999 0.930 . S
C997 C994 1.348 . S
C997 C995 1.356 . S
H998 C992 0.930 . S
H999 C996 0.930 . S
C1000 C1002 1.348 . S
C1000 C1003 1.356 . S
C1000 O1030 1.325 . S
N1001 C1004 1.314 . S
N1001 C1005 1.279 . S
C1002 C1000 1.348 . S
C1002 C1004 1.353 . S
C1002 H1044 0.929 . S
C1003 C1000 1.356 . S
C1003 C1005 1.358 . S
C1003 H1045 0.930 . S
C1004 N1001 1.314 . S
C1004 C1002 1.353 . S
C1004 H1046 0.930 . S
C1005 N1001 1.279 . S
C1005 C1003 1.358 . S
C1005 H1047 0.930 1_565 S
C1006 C1007 1.348 1_554 S
C1006 C1008 1.356 . S
C1006 O1031 1.324 . S
C1007 C1006 1.348 1_556 S
C1007 C1009 1.353 . S
C1007 H1048 0.929 . S
C1008 C1006 1.356 . S
C1008 C1010 1.358 . S
C1008 H1049 0.930 . S
C1009 C1007 1.353 . S
C1009 N1011 1.314 . S
C1009 H1050 0.930 . S
C1010 C1008 1.358 . S
C1010 N1011 1.279 1_554 S
C1010 H1051 0.930 . S
N1011 C1009 1.314 . S
N1011 C1010 1.279 1_556 S
C1012 C1014 1.353 . S
C1012 N1015 1.314 . S
C1012 H1018 0.930 . S
C1013 N1015 1.279 1_556 S
C1013 C1016 1.358 . S
C1013 H1019 0.930 . S
C1014 C1012 1.353 . S
C1014 C1017 1.348 . S
C1014 H1052 0.929 . S
N1015 Li970 1.990 . S
N1015 C1012 1.314 . S
N1015 C1013 1.279 1_554 S
C1016 C1013 1.358 . S
C1016 C1017 1.356 1_556 S
C1016 H1053 0.923 1_565 S
C1017 C1014 1.348 . S
C1017 C1016 1.356 1_554 S
H1018 C1012 0.930 . S
H1019 C1013 0.930 . S
C1020 N1021 1.314 . S
C1020 C1022 1.353 . S
C1020 H1026 0.930 . S
N1021 Li971 1.990 . S
N1021 C1020 1.314 . S
N1021 C1024 1.279 . S
C1022 C1020 1.353 . S
C1022 C1025 1.348 . S
C1022 H1054 0.929 . S
C1023 C1024 1.358 . S
C1023 C1025 1.356 . S
C1023 H1055 0.930 . S
C1024 N1021 1.279 . S
C1024 C1023 1.358 . S
C1024 H1027 0.930 . S
C1025 C1022 1.348 . S
C1025 C1023 1.356 . S
H1026 C1020 0.930 . S
H1027 C1024 0.930 . S
O1028 Li968 1.987 . S
O1028 Li969 1.970 . S
O1028 Li970 1.961 . S
O1028 C972 1.325 . S
O1029 Li968 1.971 1_556 S
O1029 Li969 1.956 1_556 S
O1029 Li971 1.961 . S
O1029 C978 1.325 . S
O1030 Li968 1.927 1_556 S
O1030 Li970 1.956 1_556 S
O1030 Li971 1.970 . S
O1030 C1000 1.325 . S
O1031 Li969 1.986 . S
O1031 Li970 1.968 . S
O1031 Li971 1.931 1_554 S
O1031 C1006 1.324 . S
H1032 C974 0.929 . S
H1033 C975 0.930 . S
H1034 C976 0.930 . S
H1035 C977 0.930 1_545 S
H1036 C979 0.930 . S
H1037 C981 0.929 . S
H1038 C982 0.930 . S
H1039 C983 0.930 . S
H1040 C986 0.930 . S
H1041 C989 0.929 . S
H1042 C994 0.929 . S
H1043 C995 0.930 . S
H1044 C1002 0.929 . S
H1045 C1003 0.930 . S
H1046 C1004 0.930 . S
H1047 C1005 0.930 1_545 S
H1048 C1007 0.929 . S
H1049 C1008 0.930 . S
H1050 C1009 0.930 . S
H1051 C1010 0.930 . S
H1052 C1014 0.929 . S
H1053 C1016 0.923 1_545 S
H1054 C1022 0.929 . S
H1055 C1023 0.930 . S
Li1056 N1073 1.990 . S
Li1056 O1116 1.956 . S
Li1056 O1117 1.970 . S
Li1056 O1118 1.961 . S
Li1057 N1081 1.990 . S
Li1057 O1116 1.970 . S
Li1057 O1117 1.956 . S
Li1057 O1119 1.961 . S
Li1058 N1103 1.990 . S
Li1058 O1116 1.961 . S
Li1058 O1118 1.956 . S
Li1058 O1119 1.970 . S
Li1059 N1109 1.990 1_554 S
Li1059 O1117 1.961 . S
Li1059 O1118 1.970 . S
Li1059 O1119 1.956 . S
C1060 C1062 1.348 . S
C1060 C1063 1.356 . S
C1060 O1116 1.325 . S
N1061 C1064 1.314 . S
N1061 C1065 1.279 . S
C1062 C1060 1.348 . S
C1062 C1064 1.353 . S
C1062 H1120 0.929 . S
C1063 C1060 1.356 . S
C1063 C1065 1.358 . S
C1063 H1121 0.930 . S
C1064 N1061 1.314 . S
C1064 C1062 1.353 . S
C1064 H1122 0.930 . S
C1065 N1061 1.279 . S
C1065 C1063 1.358 . S
C1065 H1123 0.930 . S
C1066 C1069 1.348 . S
C1066 C1070 1.356 . S
C1066 O1117 1.325 . S
C1067 N1068 1.279 . S
C1067 C1070 1.358 . S
C1067 H1124 0.930 . S
N1068 C1067 1.279 . S
N1068 C1071 1.314 . S
C1069 C1066 1.348 . S
C1069 C1071 1.353 . S
C1069 H1125 0.929 . S
C1070 C1066 1.356 . S
C1070 C1067 1.358 . S
C1070 H1126 0.930 . S
C1071 N1068 1.314 . S
C1071 C1069 1.353 . S
C1071 H1127 0.930 . S
C1072 N1073 1.314 . S
C1072 C1077 1.353 . S
C1072 H1078 0.966 . S
N1073 Li1056 1.990 . S
N1073 C1072 1.314 . S
N1073 C1075 1.279 . S
C1074 C1075 1.358 . S
C1074 C1076 1.356 . S
C1074 H1128 0.930 . S
C1075 N1073 1.279 . S
C1075 C1074 1.358 . S
C1075 H1079 0.930 . S
C1076 C1074 1.356 . S
C1076 C1077 1.348 . S
C1077 C1072 1.353 . S
C1077 C1076 1.348 . S
C1077 H1129 0.929 1_554 S
H1078 C1072 0.966 . S
H1079 C1075 0.930 . S
C1080 N1081 1.314 . S
C1080 C1082 1.353 . S
C1080 H1086 0.930 . S
N1081 Li1057 1.990 . S
N1081 C1080 1.314 . S
N1081 C1084 1.279 . S
C1082 C1080 1.353 . S
C1082 C1085 1.348 . S
C1082 H1130 0.929 . S
C1083 C1084 1.358 . S
C1083 C1085 1.356 . S
C1083 H1131 0.930 . S
C1084 N1081 1.279 . S
C1084 C1083 1.358 . S
C1084 H1087 0.930 . S
C1085 C1082 1.348 . S
C1085 C1083 1.356 . S
H1086 C1080 0.930 . S
H1087 C1084 0.930 . S
C1088 C1090 1.348 . S
C1088 C1091 1.356 . S
C1088 O1118 1.325 1_556 S
N1089 C1092 1.314 . S
N1089 C1093 1.279 . S
C1090 C1088 1.348 . S
C1090 C1092 1.353 . S
C1090 H1132 0.929 . S
C1091 C1088 1.356 . S
C1091 C1093 1.358 . S
C1091 H1133 0.930 1_556 S
C1092 N1089 1.314 . S
C1092 C1090 1.353 . S
C1092 H1134 0.930 . S
C1093 N1089 1.279 . S
C1093 C1091 1.358 . S
C1093 H1135 0.930 . S
C1094 C1095 1.348 . S
C1094 C1096 1.356 . S
C1094 O1119 1.325 . S
C1095 C1094 1.348 . S
C1095 C1097 1.353 . S
C1095 H1136 0.929 . S
C1096 C1094 1.356 . S
C1096 C1098 1.358 . S
C1096 H1137 0.930 . S
C1097 C1095 1.353 . S
C1097 N1099 1.314 . S
C1097 H1138 0.930 . S
C1098 C1096 1.358 . S
C1098 N1099 1.279 . S
C1098 H1139 0.930 . S
N1099 C1097 1.314 . S
N1099 C1098 1.279 . S
C1100 C1102 1.353 . S
C1100 N1103 1.314 . S
C1100 H1106 0.930 . S
C1101 N1103 1.279 . S
C1101 C1104 1.358 . S
C1101 H1107 0.930 . S
C1102 C1100 1.353 . S
C1102 C1105 1.348 . S
C1102 H1140 0.929 . S
N1103 Li1058 1.990 . S
N1103 C1100 1.314 . S
N1103 C1101 1.279 . S
C1104 C1101 1.358 . S
C1104 C1105 1.356 . S
C1104 H1141 0.930 . S
C1105 C1102 1.348 . S
C1105 C1104 1.356 . S
H1106 C1100 0.930 . S
H1107 C1101 0.930 . S
C1108 N1109 1.314 . S
C1108 C1110 1.353 . S
C1108 H1114 0.930 . S
N1109 Li1059 1.990 1_556 S
N1109 C1108 1.314 . S
N1109 C1112 1.279 . S
C1110 C1108 1.353 . S
C1110 C1113 1.348 . S
C1110 H1142 0.929 . S
C1111 C1112 1.358 . S
C1111 C1113 1.356 . S
C1111 H1143 0.930 . S
C1112 N1109 1.279 . S
C1112 C1111 1.358 . S
C1112 H1115 0.930 . S
C1113 C1110 1.348 . S
C1113 C1111 1.356 . S
H1114 C1108 0.930 . S
H1115 C1112 0.930 . S
O1116 Li1056 1.956 . S
O1116 Li1057 1.970 . S
O1116 Li1058 1.961 . S
O1116 C1060 1.325 . S
O1117 Li1056 1.970 . S
O1117 Li1057 1.956 . S
O1117 Li1059 1.961 . S
O1117 C1066 1.325 . S
O1118 Li1056 1.961 . S
O1118 Li1058 1.956 . S
O1118 Li1059 1.970 . S
O1118 C1088 1.325 1_554 S
O1119 Li1057 1.961 . S
O1119 Li1058 1.970 . S
O1119 Li1059 1.956 . S
O1119 C1094 1.325 . S
H1120 C1062 0.929 . S
H1121 C1063 0.930 . S
H1122 C1064 0.930 . S
H1123 C1065 0.930 . S
H1124 C1067 0.930 . S
H1125 C1069 0.929 . S
H1126 C1070 0.930 . S
H1127 C1071 0.930 . S
H1128 C1074 0.930 . S
H1129 C1077 0.929 1_556 S
H1130 C1082 0.929 . S
H1131 C1083 0.930 . S
H1132 C1090 0.929 . S
H1133 C1091 0.930 1_554 S
H1134 C1092 0.930 . S
H1135 C1093 0.930 . S
H1136 C1095 0.929 . S
H1137 C1096 0.930 . S
H1138 C1097 0.930 . S
H1139 C1098 0.930 . S
H1140 C1102 0.929 . S
H1141 C1104 0.930 . S
H1142 C1110 0.929 . S
H1143 C1111 0.930 . S
Li1144 N1161 1.990 . S
Li1144 O1204 1.956 . S
Li1144 O1205 1.970 . S
Li1144 O1206 1.961 . S
Li1145 N1169 1.990 . S
Li1145 O1204 1.970 . S
Li1145 O1205 1.956 . S
Li1145 O1207 1.961 . S
Li1146 N1191 1.990 . S
Li1146 O1204 1.961 . S
Li1146 O1206 1.956 . S
Li1146 O1207 1.970 . S
Li1147 N1197 1.990 . S
Li1147 O1205 1.961 . S
Li1147 O1206 1.970 . S
Li1147 O1207 1.956 . S
C1148 C1150 1.348 . S
C1148 C1151 1.356 . S
C1148 O1204 1.325 . S
N1149 C1152 1.314 . S
N1149 C1153 1.279 . S
C1150 C1148 1.348 . S
C1150 C1152 1.353 . S
C1150 H1208 0.929 . S
C1151 C1148 1.356 . S
C1151 C1153 1.358 . S
C1151 H1209 0.930 . S
C1152 N1149 1.314 . S
C1152 C1150 1.353 . S
C1152 H1210 0.930 . S
C1153 N1149 1.279 . S
C1153 C1151 1.358 . S
C1153 H1211 0.930 . S
C1154 C1157 1.348 . S
C1154 C1158 1.356 . S
C1154 O1205 1.325 . S
C1155 N1156 1.279 . S
C1155 C1158 1.358 . S
C1155 H1212 0.930 . S
N1156 C1155 1.279 . S
N1156 C1159 1.314 . S
C1157 C1154 1.348 . S
C1157 C1159 1.353 . S
C1157 H1213 0.929 . S
C1158 C1154 1.356 . S
C1158 C1155 1.358 . S
C1158 H1214 0.930 . S
C1159 N1156 1.314 . S
C1159 C1157 1.353 . S
C1159 H1215 0.930 . S
C1160 N1161 1.314 . S
C1160 C1165 1.353 . S
C1160 H1166 0.930 . S
N1161 Li1144 1.990 . S
N1161 C1160 1.314 . S
N1161 C1163 1.279 . S
C1162 C1163 1.358 . S
C1162 C1164 1.356 . S
C1162 H1216 0.930 . S
C1163 N1161 1.279 . S
C1163 C1162 1.358 . S
C1163 H1167 0.930 . S
C1164 C1162 1.356 . S
C1164 C1165 1.348 . S
C1165 C1160 1.353 . S
C1165 C1164 1.348 . S
C1165 H1217 0.929 . S
H1166 C1160 0.930 . S
H1167 C1163 0.930 . S
C1168 N1169 1.314 . S
C1168 C1170 1.353 . S
C1168 H1174 0.930 . S
N1169 Li1145 1.990 . S
N1169 C1168 1.314 . S
N1169 C1172 1.279 . S
C1170 C1168 1.353 . S
C1170 C1173 1.348 . S
C1170 H1218 0.929 . S
C1171 C1172 1.358 . S
C1171 C1173 1.356 . S
C1171 H1219 0.930 . S
C1172 N1169 1.279 . S
C1172 C1171 1.358 . S
C1172 H1175 0.930 . S
C1173 C1170 1.348 . S
C1173 C1171 1.356 . S
H1174 C1168 0.930 . S
H1175 C1172 0.930 . S
C1176 C1178 1.348 . S
C1176 C1179 1.356 . S
C1176 O1206 1.325 . S
N1177 C1180 1.314 . S
N1177 C1181 1.279 . S
C1178 C1176 1.348 . S
C1178 C1180 1.353 . S
C1178 H1220 0.929 . S
C1179 C1176 1.356 . S
C1179 C1181 1.358 . S
C1179 H1221 0.930 . S
C1180 N1177 1.314 . S
C1180 C1178 1.353 . S
C1180 H1222 0.930 . S
C1181 N1177 1.279 . S
C1181 C1179 1.358 . S
C1181 H1223 0.930 . S
C1182 C1183 1.348 1_554 S
C1182 C1184 1.356 . S
C1182 O1207 1.325 . S
C1183 C1182 1.348 1_556 S
C1183 C1185 1.353 . S
C1183 H1224 0.929 . S
C1184 C1182 1.356 . S
C1184 C1186 1.358 1_554 S
C1184 H1225 0.930 . S
C1185 C1183 1.353 . S
C1185 N1187 1.314 . S
C1185 H1226 0.930 . S
C1186 C1184 1.358 1_556 S
C1186 N1187 1.279 . S
C1186 H1227 0.933 . S
N1187 C1185 1.314 . S
N1187 C1186 1.279 . S
C1188 C1190 1.353 1_554 S
C1188 N1191 1.314 . S
C1188 H1194 0.930 . S
C1189 N1191 1.279 . S
C1189 C1192 1.358 1_554 S
C1189 H1195 0.930 . S
C1190 C1188 1.353 1_556 S
C1190 C1193 1.348 . S
C1190 H1228 0.929 . S
N1191 Li1146 1.990 . S
N1191 C1188 1.314 . S
N1191 C1189 1.279 . S
C1192 C1189 1.358 1_556 S
C1192 C1193 1.356 . S
C1192 H1229 0.930 . S
C1193 C1190 1.348 . S
C1193 C1192 1.356 . S
H1194 C1188 0.930 . S
H1195 C1189 0.930 . S
C1196 N1197 1.314 . S
C1196 C1198 1.353 . S
C1196 H1202 0.930 . S
N1197 Li1147 1.990 . S
N1197 C1196 1.314 . S
N1197 C1200 1.279 . S
C1198 C1196 1.353 . S
C1198 C1201 1.348 . S
C1198 H1230 0.929 . S
C1199 C1200 1.358 . S
C1199 C1201 1.356 . S
C1199 H1231 0.930 . S
C1200 N1197 1.279 . S
C1200 C1199 1.358 . S
C1200 H1203 0.930 . S
C1201 C1198 1.348 . S
C1201 C1199 1.356 . S
H1202 C1196 0.930 . S
H1203 C1200 0.930 . S
O1204 Li1144 1.956 . S
O1204 Li1145 1.970 . S
O1204 Li1146 1.961 . S
O1204 C1148 1.325 . S
O1205 Li1144 1.970 . S
O1205 Li1145 1.956 . S
O1205 Li1147 1.961 . S
O1205 C1154 1.325 . S
O1206 Li1144 1.961 . S
O1206 Li1146 1.956 . S
O1206 Li1147 1.970 . S
O1206 C1176 1.325 . S
O1207 Li1145 1.961 . S
O1207 Li1146 1.970 . S
O1207 Li1147 1.956 . S
O1207 C1182 1.325 . S
H1208 C1150 0.929 . S
H1209 C1151 0.930 . S
H1210 C1152 0.930 . S
H1211 C1153 0.930 . S
H1212 C1155 0.930 . S
H1213 C1157 0.929 . S
H1214 C1158 0.930 . S
H1215 C1159 0.930 . S
H1216 C1162 0.930 . S
H1217 C1165 0.929 . S
H1218 C1170 0.929 . S
H1219 C1171 0.930 . S
H1220 C1178 0.929 . S
H1221 C1179 0.930 . S
H1222 C1180 0.930 . S
H1223 C1181 0.930 . S
H1224 C1183 0.929 . S
H1225 C1184 0.930 . S
H1226 C1185 0.930 . S
H1227 C1186 0.933 . S
H1228 C1190 0.929 . S
H1229 C1192 0.930 . S
H1230 C1198 0.929 . S
H1231 C1199 0.930 . S
Li1232 N1249 1.990 . S
Li1232 O1292 1.956 . S
Li1232 O1293 1.970 . S
Li1232 O1294 1.961 . S
Li1233 N1257 1.990 . S
Li1233 O1292 1.970 . S
Li1233 O1293 1.956 . S
Li1233 O1295 1.961 . S
Li1234 N1279 1.990 . S
Li1234 O1292 1.961 . S
Li1234 O1294 1.956 . S
Li1234 O1295 1.970 . S
Li1235 N1285 1.990 . S
Li1235 O1293 1.961 . S
Li1235 O1294 1.970 . S
Li1235 O1295 1.956 . S
C1236 C1238 1.348 . S
C1236 C1239 1.356 . S
C1236 O1292 1.325 . S
N1237 C1240 1.314 . S
N1237 C1241 1.279 . S
C1238 C1236 1.348 . S
C1238 C1240 1.353 . S
C1238 H1296 0.929 . S
C1239 C1236 1.356 . S
C1239 C1241 1.358 . S
C1239 H1297 0.930 . S
C1240 N1237 1.314 . S
C1240 C1238 1.353 . S
C1240 H1298 0.930 . S
C1241 N1237 1.279 . S
C1241 C1239 1.358 . S
C1241 H1299 0.930 . S
C1242 C1245 1.348 . S
C1242 C1246 1.356 . S
C1242 O1293 1.325 . S
C1243 N1244 1.279 . S
C1243 C1246 1.358 . S
C1243 H1300 0.930 . S
N1244 C1243 1.279 . S
N1244 C1247 1.314 . S
C1245 C1242 1.348 . S
C1245 C1247 1.353 . S
C1245 H1301 0.929 . S
C1246 C1242 1.356 . S
C1246 C1243 1.358 . S
C1246 H1302 0.930 . S
C1247 N1244 1.314 . S
C1247 C1245 1.353 . S
C1247 H1303 0.930 . S
C1248 N1249 1.314 . S
C1248 C1253 1.353 . S
C1248 H1254 0.930 . S
N1249 Li1232 1.990 . S
N1249 C1248 1.314 . S
N1249 C1251 1.279 . S
C1250 C1251 1.358 . S
C1250 C1252 1.356 . S
C1250 H1304 0.930 . S
C1251 N1249 1.279 . S
C1251 C1250 1.358 . S
C1251 H1255 0.930 . S
C1252 C1250 1.356 . S
C1252 C1253 1.348 . S
C1253 C1248 1.353 . S
C1253 C1252 1.348 . S
C1253 H1305 0.929 . S
H1254 C1248 0.930 . S
H1255 C1251 0.930 . S
C1256 N1257 1.314 . S
C1256 C1258 1.353 . S
C1256 H1262 0.930 . S
N1257 Li1233 1.990 . S
N1257 C1256 1.314 . S
N1257 C1260 1.279 . S
C1258 C1256 1.353 . S
C1258 C1261 1.348 . S
C1258 H1306 0.929 . S
C1259 C1260 1.358 . S
C1259 C1261 1.356 . S
C1259 H1307 0.930 . S
C1260 N1257 1.279 . S
C1260 C1259 1.358 . S
C1260 H1263 0.930 . S
C1261 C1258 1.348 . S
C1261 C1259 1.356 . S
H1262 C1256 0.930 . S
H1263 C1260 0.930 . S
C1264 C1266 1.348 . S
C1264 C1267 1.356 . S
C1264 O1294 1.325 . S
N1265 C1268 1.314 . S
N1265 C1269 1.279 . S
C1266 C1264 1.348 . S
C1266 C1268 1.353 . S
C1266 H1308 0.929 . S
C1267 C1264 1.356 . S
C1267 C1269 1.358 . S
C1267 H1309 0.930 . S
C1268 N1265 1.314 . S
C1268 C1266 1.353 . S
C1268 H1310 0.930 . S
C1269 N1265 1.279 . S
C1269 C1267 1.358 . S
C1269 H1311 0.930 . S
C1270 C1271 1.348 . S
C1270 C1272 1.356 . S
C1270 O1295 1.325 . S
C1271 C1270 1.348 . S
C1271 C1273 1.353 . S
C1271 H1312 0.929 . S
C1272 C1270 1.356 . S
C1272 C1274 1.358 . S
C1272 H1313 0.930 . S
C1273 C1271 1.353 . S
C1273 N1275 1.314 . S
C1273 H1314 0.930 . S
C1274 C1272 1.358 . S
C1274 N1275 1.279 . S
C1274 H1315 0.930 . S
N1275 C1273 1.314 . S
N1275 C1274 1.279 . S
C1276 C1278 1.353 . S
C1276 N1279 1.314 . S
C1276 H1282 0.930 . S
C1277 N1279 1.279 . S
C1277 C1280 1.358 . S
C1277 H1283 0.930 . S
C1278 C1276 1.353 . S
C1278 C1281 1.348 . S
C1278 H1316 0.929 . S
N1279 Li1234 1.990 . S
N1279 C1276 1.314 . S
N1279 C1277 1.279 . S
C1280 C1277 1.358 . S
C1280 C1281 1.356 . S
C1280 H1317 0.930 . S
C1281 C1278 1.348 . S
C1281 C1280 1.356 . S
H1282 C1276 0.930 . S
H1283 C1277 0.930 . S
C1284 N1285 1.314 . S
C1284 C1286 1.353 . S
C1284 H1290 0.930 . S
N1285 Li1235 1.990 . S
N1285 C1284 1.314 . S
N1285 C1288 1.279 . S
C1286 C1284 1.353 . S
C1286 C1289 1.348 . S
C1286 H1318 0.929 . S
C1287 C1288 1.358 . S
C1287 C1289 1.356 . S
C1287 H1319 0.930 . S
C1288 N1285 1.279 . S
C1288 C1287 1.358 . S
C1288 H1291 0.930 . S
C1289 C1286 1.348 . S
C1289 C1287 1.356 . S
H1290 C1284 0.930 . S
H1291 C1288 0.930 . S
O1292 Li1232 1.956 . S
O1292 Li1233 1.970 . S
O1292 Li1234 1.961 . S
O1292 C1236 1.325 . S
O1293 Li1232 1.970 . S
O1293 Li1233 1.956 . S
O1293 Li1235 1.961 . S
O1293 C1242 1.325 . S
O1294 Li1232 1.961 . S
O1294 Li1234 1.956 . S
O1294 Li1235 1.970 . S
O1294 C1264 1.325 . S
O1295 Li1233 1.961 . S
O1295 Li1234 1.970 . S
O1295 Li1235 1.956 . S
O1295 C1270 1.325 . S
H1296 C1238 0.929 . S
H1297 C1239 0.930 . S
H1298 C1240 0.930 . S
H1299 C1241 0.930 . S
H1300 C1243 0.930 . S
H1301 C1245 0.929 . S
H1302 C1246 0.930 . S
H1303 C1247 0.930 . S
H1304 C1250 0.930 . S
H1305 C1253 0.929 . S
H1306 C1258 0.929 . S
H1307 C1259 0.930 . S
H1308 C1266 0.929 . S
H1309 C1267 0.930 . S
H1310 C1268 0.930 . S
H1311 C1269 0.930 . S
H1312 C1271 0.929 . S
H1313 C1272 0.930 . S
H1314 C1273 0.930 . S
H1315 C1274 0.930 . S
H1316 C1278 0.929 . S
H1317 C1280 0.930 . S
H1318 C1286 0.929 . S
H1319 C1287 0.930 . S
Li1320 N1337 1.990 . S
Li1320 O1380 1.956 . S
Li1320 O1381 1.970 . S
Li1320 O1382 1.961 . S
Li1321 N1345 1.990 . S
Li1321 O1380 1.970 . S
Li1321 O1381 1.956 . S
Li1321 O1383 1.961 . S
Li1322 N1367 1.990 . S
Li1322 O1380 1.961 . S
Li1322 O1382 1.956 . S
Li1322 O1383 1.970 . S
Li1323 N1373 1.990 . S
Li1323 O1381 1.961 . S
Li1323 O1382 1.970 . S
Li1323 O1383 1.956 . S
C1324 C1326 1.348 . S
C1324 C1327 1.356 . S
C1324 O1380 1.325 . S
N1325 C1328 1.314 . S
N1325 C1329 1.279 . S
C1326 C1324 1.348 . S
C1326 C1328 1.353 . S
C1326 H1384 0.929 . S
C1327 C1324 1.356 . S
C1327 C1329 1.358 . S
C1327 H1385 0.930 . S
C1328 N1325 1.314 . S
C1328 C1326 1.353 . S
C1328 H1386 0.930 . S
C1329 N1325 1.279 . S
C1329 C1327 1.358 . S
C1329 H1387 0.930 . S
C1330 C1333 1.348 . S
C1330 C1334 1.356 . S
C1330 O1381 1.325 . S
C1331 N1332 1.279 . S
C1331 C1334 1.358 . S
C1331 H1388 0.930 . S
N1332 C1331 1.279 . S
N1332 C1335 1.314 . S
C1333 C1330 1.348 . S
C1333 C1335 1.353 . S
C1333 H1389 0.929 . S
C1334 C1330 1.356 . S
C1334 C1331 1.358 . S
C1334 H1390 0.930 . S
C1335 N1332 1.314 . S
C1335 C1333 1.353 . S
C1335 H1391 0.930 . S
C1336 N1337 1.314 . S
C1336 C1341 1.353 . S
C1336 H1342 0.930 . S
N1337 Li1320 1.990 . S
N1337 C1336 1.314 . S
N1337 C1339 1.279 . S
C1338 C1339 1.358 . S
C1338 C1340 1.356 . S
C1338 H1392 0.930 . S
C1339 N1337 1.279 . S
C1339 C1338 1.358 . S
C1339 H1343 0.930 . S
C1340 C1338 1.356 . S
C1340 C1341 1.348 . S
C1341 C1336 1.353 . S
C1341 C1340 1.348 . S
C1341 H1393 0.929 . S
H1342 C1336 0.930 . S
H1343 C1339 0.930 . S
C1344 N1345 1.314 . S
C1344 C1346 1.353 . S
C1344 H1350 0.930 . S
N1345 Li1321 1.990 . S
N1345 C1344 1.314 . S
N1345 C1348 1.279 . S
C1346 C1344 1.353 . S
C1346 C1349 1.348 . S
C1346 H1394 0.929 . S
C1347 C1348 1.358 . S
C1347 C1349 1.356 . S
C1347 H1395 0.930 . S
C1348 N1345 1.279 . S
C1348 C1347 1.358 . S
C1348 H1351 0.930 . S
C1349 C1346 1.348 . S
C1349 C1347 1.356 . S
H1350 C1344 0.930 . S
H1351 C1348 0.930 . S
C1352 C1354 1.348 . S
C1352 C1355 1.356 . S
C1352 O1382 1.325 . S
N1353 C1356 1.314 . S
N1353 C1357 1.279 . S
C1354 C1352 1.348 . S
C1354 C1356 1.353 . S
C1354 H1396 0.929 . S
C1355 C1352 1.356 . S
C1355 C1357 1.358 . S
C1355 H1397 0.930 . S
C1356 N1353 1.314 . S
C1356 C1354 1.353 . S
C1356 H1398 0.930 . S
C1357 N1353 1.279 . S
C1357 C1355 1.358 . S
C1357 H1399 0.930 . S
C1358 C1359 1.348 . S
C1358 C1360 1.356 . S
C1358 O1383 1.325 . S
C1359 C1358 1.348 . S
C1359 C1361 1.353 . S
C1359 H1400 0.929 . S
C1360 C1358 1.356 . S
C1360 C1362 1.358 . S
C1360 H1401 0.930 . S
C1361 C1359 1.353 . S
C1361 N1363 1.314 . S
C1361 H1402 0.930 . S
C1362 C1360 1.358 . S
C1362 N1363 1.279 . S
C1362 H1403 0.930 . S
N1363 C1361 1.314 . S
N1363 C1362 1.279 . S
C1364 C1366 1.353 . S
C1364 N1367 1.314 . S
C1364 H1370 0.930 . S
C1365 N1367 1.279 . S
C1365 C1368 1.358 . S
C1365 H1371 0.930 . S
C1366 C1364 1.353 . S
C1366 C1369 1.348 . S
C1366 H1404 0.929 . S
N1367 Li1322 1.990 . S
N1367 C1364 1.314 . S
N1367 C1365 1.279 . S
C1368 C1365 1.358 . S
C1368 C1369 1.356 . S
C1368 H1405 0.930 . S
C1369 C1366 1.348 . S
C1369 C1368 1.356 . S
H1370 C1364 0.930 . S
H1371 C1365 0.930 . S
C1372 N1373 1.314 . S
C1372 C1374 1.353 . S
C1372 H1378 0.930 . S
N1373 Li1323 1.990 . S
N1373 C1372 1.314 . S
N1373 C1376 1.279 . S
C1374 C1372 1.353 . S
C1374 C1377 1.348 . S
C1374 H1406 0.929 . S
C1375 C1376 1.358 . S
C1375 C1377 1.356 . S
C1375 H1407 0.930 . S
C1376 N1373 1.279 . S
C1376 C1375 1.358 . S
C1376 H1379 0.930 . S
C1377 C1374 1.348 . S
C1377 C1375 1.356 . S
H1378 C1372 0.930 . S
H1379 C1376 0.930 . S
O1380 Li1320 1.956 . S
O1380 Li1321 1.970 . S
O1380 Li1322 1.961 . S
O1380 C1324 1.325 . S
O1381 Li1320 1.970 . S
O1381 Li1321 1.956 . S
O1381 Li1323 1.961 . S
O1381 C1330 1.325 . S
O1382 Li1320 1.961 . S
O1382 Li1322 1.956 . S
O1382 Li1323 1.970 . S
O1382 C1352 1.325 . S
O1383 Li1321 1.961 . S
O1383 Li1322 1.970 . S
O1383 Li1323 1.956 . S
O1383 C1358 1.325 . S
H1384 C1326 0.929 . S
H1385 C1327 0.930 . S
H1386 C1328 0.930 . S
H1387 C1329 0.930 . S
H1388 C1331 0.930 . S
H1389 C1333 0.929 . S
H1390 C1334 0.930 . S
H1391 C1335 0.930 . S
H1392 C1338 0.930 . S
H1393 C1341 0.929 . S
H1394 C1346 0.929 . S
H1395 C1347 0.930 . S
H1396 C1354 0.929 . S
H1397 C1355 0.930 . S
H1398 C1356 0.930 . S
H1399 C1357 0.930 . S
H1400 C1359 0.929 . S
H1401 C1360 0.930 . S
H1402 C1361 0.930 . S
H1403 C1362 0.930 . S
H1404 C1366 0.929 . S
H1405 C1368 0.930 . S
H1406 C1374 0.929 . S
H1407 C1375 0.930 . S
Li1408 N1425 1.990 . S
Li1408 O1468 1.956 1_545 S
Li1408 O1469 1.970 . S
Li1408 O1470 1.961 . S
Li1409 N1433 1.990 . S
Li1409 O1468 1.970 . S
Li1409 O1469 1.956 1_565 S
Li1409 O1471 1.961 1_565 S
Li1410 N1455 1.990 . S
Li1410 O1468 1.961 1_545 S
Li1410 O1470 1.956 . S
Li1410 O1471 1.970 . S
Li1411 N1461 1.990 . S
Li1411 O1469 1.961 . S
Li1411 O1470 1.970 . S
Li1411 O1471 1.956 . S
C1412 C1414 1.348 . S
C1412 C1415 1.356 . S
C1412 O1468 1.325 . S
N1413 C1416 1.314 . S
N1413 C1417 1.279 . S
C1414 C1412 1.348 . S
C1414 C1416 1.353 . S
C1414 H1472 0.929 . S
C1415 C1412 1.356 . S
C1415 C1417 1.358 . S
C1415 H1473 0.930 . S
C1416 N1413 1.314 . S
C1416 C1414 1.353 . S
C1416 H1474 0.930 . S
C1417 N1413 1.279 . S
C1417 C1415 1.358 . S
C1417 H1475 0.930 . S
C1418 C1421 1.348 . S
C1418 C1422 1.356 . S
C1418 O1469 1.325 . S
C1419 N1420 1.280 1_545 S
C1419 C1422 1.358 . S
C1419 H1476 0.930 . S
N1420 C1419 1.280 1_565 S
N1420 C1423 1.305 . S
C1421 C1418 1.348 . S
C1421 C1423 1.355 1_545 S
C1421 H1477 0.931 . S
C1422 C1418 1.356 . S
C1422 C1419 1.358 . S
C1422 H1478 0.930 . S
C1423 N1420 1.305 . S
C1423 C1421 1.355 1_565 S
C1423 H1479 0.939 . S
C1424 N1425 1.314 . S
C1424 C1429 1.353 . S
C1424 H1430 0.930 . S
N1425 Li1408 1.990 . S
N1425 C1424 1.314 . S
N1425 C1427 1.279 . S
C1426 C1427 1.358 . S
C1426 C1428 1.356 . S
C1426 H1480 0.930 1_545 S
C1427 N1425 1.279 . S
C1427 C1426 1.358 . S
C1427 H1431 0.930 1_545 S
C1428 C1426 1.356 . S
C1428 C1429 1.348 . S
C1429 C1424 1.353 . S
C1429 C1428 1.348 . S
C1429 H1481 0.929 . S
H1430 C1424 0.930 . S
H1431 C1427 0.930 1_565 S
C1432 N1433 1.314 . S
C1432 C1434 1.353 . S
C1432 H1438 0.930 . S
N1433 Li1409 1.990 . S
N1433 C1432 1.314 . S
N1433 C1436 1.279 . S
C1434 C1432 1.353 . S
C1434 C1437 1.348 . S
C1434 H1482 0.929 . S
C1435 C1436 1.358 . S
C1435 C1437 1.356 . S
C1435 H1483 0.930 . S
C1436 N1433 1.279 . S
C1436 C1435 1.358 . S
C1436 H1439 0.930 . S
C1437 C1434 1.348 . S
C1437 C1435 1.356 . S
H1438 C1432 0.930 . S
H1439 C1436 0.930 . S
C1440 C1442 1.348 . S
C1440 C1443 1.356 . S
C1440 O1470 1.325 . S
N1441 C1444 1.314 . S
N1441 C1445 1.279 . S
C1442 C1440 1.348 . S
C1442 C1444 1.353 . S
C1442 H1484 0.929 . S
C1443 C1440 1.356 . S
C1443 C1445 1.358 . S
C1443 H1485 0.930 . S
C1444 N1441 1.314 . S
C1444 C1442 1.353 . S
C1444 H1486 0.930 . S
C1445 N1441 1.279 . S
C1445 C1443 1.358 . S
C1445 H1487 0.930 . S
C1446 C1447 1.348 . S
C1446 C1448 1.356 1_545 S
C1446 O1471 1.325 . S
C1447 C1446 1.348 . S
C1447 C1449 1.353 . S
C1447 H1488 0.929 . S
C1448 C1446 1.356 1_565 S
C1448 C1450 1.358 . S
C1448 H1489 0.930 . S
C1449 C1447 1.353 . S
C1449 N1451 1.314 1_545 S
C1449 H1490 0.930 . S
C1450 C1448 1.358 . S
C1450 N1451 1.279 . S
C1450 H1491 0.930 . S
N1451 C1449 1.314 1_565 S
N1451 C1450 1.279 . S
C1452 C1454 1.353 . S
C1452 N1455 1.314 1_565 S
C1452 H1458 0.930 . S
C1453 N1455 1.279 . S
C1453 C1456 1.358 . S
C1453 H1459 0.930 . S
C1454 C1452 1.353 . S
C1454 C1457 1.348 1_565 S
C1454 H1492 0.929 . S
N1455 Li1410 1.990 . S
N1455 C1452 1.314 1_545 S
N1455 C1453 1.279 . S
C1456 C1453 1.358 . S
C1456 C1457 1.356 . S
C1456 H1493 0.930 . S
C1457 C1454 1.348 1_545 S
C1457 C1456 1.356 . S
H1458 C1452 0.930 . S
H1459 C1453 0.930 . S
C1460 N1461 1.314 . S
C1460 C1462 1.353 . S
C1460 H1466 0.930 . S
N1461 Li1411 1.990 . S
N1461 C1460 1.314 . S
N1461 C1464 1.279 . S
C1462 C1460 1.353 . S
C1462 C1465 1.348 . S
C1462 H1494 0.929 . S
C1463 C1464 1.358 . S
C1463 C1465 1.356 . S
C1463 H1495 0.930 . S
C1464 N1461 1.279 . S
C1464 C1463 1.358 . S
C1464 H1467 0.930 . S
C1465 C1462 1.348 . S
C1465 C1463 1.356 . S
H1466 C1460 0.930 . S
H1467 C1464 0.930 . S
O1468 Li1408 1.956 1_565 S
O1468 Li1409 1.970 . S
O1468 Li1410 1.961 1_565 S
O1468 C1412 1.325 . S
O1469 Li1408 1.970 . S
O1469 Li1409 1.956 1_545 S
O1469 Li1411 1.961 . S
O1469 C1418 1.325 . S
O1470 Li1408 1.961 . S
O1470 Li1410 1.956 . S
O1470 Li1411 1.970 . S
O1470 C1440 1.325 . S
O1471 Li1409 1.961 1_545 S
O1471 Li1410 1.970 . S
O1471 Li1411 1.956 . S
O1471 C1446 1.325 . S
H1472 C1414 0.929 . S
H1473 C1415 0.930 . S
H1474 C1416 0.930 . S
H1475 C1417 0.930 . S
H1476 C1419 0.930 . S
H1477 C1421 0.931 . S
H1478 C1422 0.930 . S
H1479 C1423 0.939 . S
H1480 C1426 0.930 1_565 S
H1481 C1429 0.929 . S
H1482 C1434 0.929 . S
H1483 C1435 0.930 . S
H1484 C1442 0.929 . S
H1485 C1443 0.930 . S
H1486 C1444 0.930 . S
H1487 C1445 0.930 . S
H1488 C1447 0.929 . S
H1489 C1448 0.930 . S
H1490 C1449 0.930 . S
H1491 C1450 0.930 . S
H1492 C1454 0.929 . S
H1493 C1456 0.930 . S
H1494 C1462 0.929 . S
H1495 C1463 0.930 . S
Li1496 N1513 1.990 . S
Li1496 O1556 1.956 . S
Li1496 O1557 1.970 . S
Li1496 O1558 1.961 . S
Li1497 N1521 1.990 . S
Li1497 O1556 1.970 . S
Li1497 O1557 1.956 . S
Li1497 O1559 1.961 . S
Li1498 N1543 1.990 . S
Li1498 O1556 1.961 . S
Li1498 O1558 1.956 . S
Li1498 O1559 1.970 . S
Li1499 N1549 1.990 . S
Li1499 O1557 1.961 . S
Li1499 O1558 1.970 . S
Li1499 O1559 1.956 . S
C1500 C1502 1.348 . S
C1500 C1503 1.356 . S
C1500 O1556 1.325 . S
N1501 C1504 1.314 . S
N1501 C1505 1.279 . S
C1502 C1500 1.348 . S
C1502 C1504 1.353 . S
C1502 H1560 0.929 . S
C1503 C1500 1.356 . S
C1503 C1505 1.358 . S
C1503 H1561 0.930 . S
C1504 N1501 1.314 . S
C1504 C1502 1.353 . S
C1504 H1562 0.930 . S
C1505 N1501 1.279 . S
C1505 C1503 1.358 . S
C1505 H1563 0.930 . S
C1506 C1509 1.348 . S
C1506 C1510 1.356 . S
C1506 O1557 1.325 . S
C1507 N1508 1.279 . S
C1507 C1510 1.358 . S
C1507 H1564 0.930 . S
N1508 C1507 1.279 . S
N1508 C1511 1.314 . S
C1509 C1506 1.348 . S
C1509 C1511 1.353 . S
C1509 H1565 0.929 . S
C1510 C1506 1.356 . S
C1510 C1507 1.358 . S
C1510 H1566 0.930 . S
C1511 N1508 1.314 . S
C1511 C1509 1.353 . S
C1511 H1567 0.930 . S
C1512 N1513 1.314 . S
C1512 C1517 1.353 . S
C1512 H1518 0.930 . S
N1513 Li1496 1.990 . S
N1513 C1512 1.314 . S
N1513 C1515 1.279 . S
C1514 C1515 1.358 . S
C1514 C1516 1.356 . S
C1514 H1568 0.930 . S
C1515 N1513 1.279 . S
C1515 C1514 1.358 . S
C1515 H1519 0.930 . S
C1516 C1514 1.356 . S
C1516 C1517 1.348 . S
C1517 C1512 1.353 . S
C1517 C1516 1.348 . S
C1517 H1569 0.929 . S
H1518 C1512 0.930 . S
H1519 C1515 0.930 . S
C1520 N1521 1.314 . S
C1520 C1522 1.353 . S
C1520 H1526 0.930 . S
N1521 Li1497 1.990 . S
N1521 C1520 1.314 . S
N1521 C1524 1.279 . S
C1522 C1520 1.353 . S
C1522 C1525 1.348 . S
C1522 H1570 0.929 . S
C1523 C1524 1.358 . S
C1523 C1525 1.356 . S
C1523 H1571 0.930 . S
C1524 N1521 1.279 . S
C1524 C1523 1.358 . S
C1524 H1527 0.930 . S
C1525 C1522 1.348 . S
C1525 C1523 1.356 . S
H1526 C1520 0.930 . S
H1527 C1524 0.930 . S
C1528 C1530 1.348 . S
C1528 C1531 1.356 . S
C1528 O1558 1.325 . S
N1529 C1532 1.314 . S
N1529 C1533 1.279 . S
C1530 C1528 1.348 . S
C1530 C1532 1.353 . S
C1530 H1572 0.929 . S
C1531 C1528 1.356 . S
C1531 C1533 1.358 . S
C1531 H1573 0.930 . S
C1532 N1529 1.314 . S
C1532 C1530 1.353 . S
C1532 H1574 0.930 . S
C1533 N1529 1.279 . S
C1533 C1531 1.358 . S
C1533 H1575 0.930 . S
C1534 C1535 1.348 . S
C1534 C1536 1.356 . S
C1534 O1559 1.325 . S
C1535 C1534 1.348 . S
C1535 C1537 1.353 . S
C1535 H1576 0.929 . S
C1536 C1534 1.356 . S
C1536 C1538 1.358 . S
C1536 H1577 0.930 . S
C1537 C1535 1.353 . S
C1537 N1539 1.314 . S
C1537 H1578 0.930 . S
C1538 C1536 1.358 . S
C1538 N1539 1.279 . S
C1538 H1579 0.930 . S
N1539 C1537 1.314 . S
N1539 C1538 1.279 . S
C1540 C1542 1.353 . S
C1540 N1543 1.314 . S
C1540 H1546 0.930 . S
C1541 N1543 1.279 . S
C1541 C1544 1.358 . S
C1541 H1547 0.930 . S
C1542 C1540 1.353 . S
C1542 C1545 1.348 . S
C1542 H1580 0.929 . S
N1543 Li1498 1.990 . S
N1543 C1540 1.314 . S
N1543 C1541 1.279 . S
C1544 C1541 1.358 . S
C1544 C1545 1.356 . S
C1544 H1581 0.930 . S
C1545 C1542 1.348 . S
C1545 C1544 1.356 . S
H1546 C1540 0.930 . S
H1547 C1541 0.930 . S
C1548 N1549 1.314 . S
C1548 C1550 1.353 . S
C1548 H1554 0.930 . S
N1549 Li1499 1.990 . S
N1549 C1548 1.314 . S
N1549 C1552 1.279 . S
C1550 C1548 1.353 . S
C1550 C1553 1.348 . S
C1550 H1582 0.929 . S
C1551 C1552 1.358 . S
C1551 C1553 1.356 . S
C1551 H1583 0.930 . S
C1552 N1549 1.279 . S
C1552 C1551 1.358 . S
C1552 H1555 0.930 . S
C1553 C1550 1.348 . S
C1553 C1551 1.356 . S
H1554 C1548 0.930 . S
H1555 C1552 0.930 . S
O1556 Li1496 1.956 . S
O1556 Li1497 1.970 . S
O1556 Li1498 1.961 . S
O1556 C1500 1.325 . S
O1557 Li1496 1.970 . S
O1557 Li1497 1.956 . S
O1557 Li1499 1.961 . S
O1557 C1506 1.325 . S
O1558 Li1496 1.961 . S
O1558 Li1498 1.956 . S
O1558 Li1499 1.970 . S
O1558 C1528 1.325 . S
O1559 Li1497 1.961 . S
O1559 Li1498 1.970 . S
O1559 Li1499 1.956 . S
O1559 C1534 1.325 . S
H1560 C1502 0.929 . S
H1561 C1503 0.930 . S
H1562 C1504 0.930 . S
H1563 C1505 0.930 . S
H1564 C1507 0.930 . S
H1565 C1509 0.929 . S
H1566 C1510 0.930 . S
H1567 C1511 0.930 . S
H1568 C1514 0.930 . S
H1569 C1517 0.929 . S
H1570 C1522 0.929 . S
H1571 C1523 0.930 . S
H1572 C1530 0.929 . S
H1573 C1531 0.930 . S
H1574 C1532 0.930 . S
H1575 C1533 0.930 . S
H1576 C1535 0.929 . S
H1577 C1536 0.930 . S
H1578 C1537 0.930 . S
H1579 C1538 0.930 . S
H1580 C1542 0.929 . S
H1581 C1544 0.930 . S
H1582 C1550 0.929 . S
H1583 C1551 0.930 . S
Li1584 N1601 1.990 . S
Li1584 O1644 1.956 . S
Li1584 O1645 1.970 . S
Li1584 O1646 1.961 . S
Li1585 N1609 1.990 . S
Li1585 O1644 1.970 . S
Li1585 O1645 1.956 . S
Li1585 O1647 1.961 . S
Li1586 N1631 1.990 . S
Li1586 O1644 1.961 . S
Li1586 O1646 1.956 . S
Li1586 O1647 1.970 . S
Li1587 N1637 1.990 . S
Li1587 O1645 1.961 . S
Li1587 O1646 1.970 . S
Li1587 O1647 1.956 . S
C1588 C1590 1.348 . S
C1588 C1591 1.356 . S
C1588 O1644 1.325 . S
N1589 C1592 1.314 . S
N1589 C1593 1.279 . S
C1590 C1588 1.348 . S
C1590 C1592 1.353 . S
C1590 H1648 0.929 . S
C1591 C1588 1.356 . S
C1591 C1593 1.358 . S
C1591 H1649 0.930 . S
C1592 N1589 1.314 . S
C1592 C1590 1.353 . S
C1592 H1650 0.930 . S
C1593 N1589 1.279 . S
C1593 C1591 1.358 . S
C1593 H1651 0.930 . S
C1594 C1597 1.348 . S
C1594 C1598 1.356 . S
C1594 O1645 1.325 . S
C1595 N1596 1.279 . S
C1595 C1598 1.358 . S
C1595 H1652 0.930 . S
N1596 C1595 1.279 . S
N1596 C1599 1.314 . S
C1597 C1594 1.348 . S
C1597 C1599 1.353 . S
C1597 H1653 0.929 . S
C1598 C1594 1.356 . S
C1598 C1595 1.358 . S
C1598 H1654 0.930 . S
C1599 N1596 1.314 . S
C1599 C1597 1.353 . S
C1599 H1655 0.930 . S
C1600 N1601 1.314 . S
C1600 C1605 1.353 . S
C1600 H1606 0.930 . S
N1601 Li1584 1.990 . S
N1601 C1600 1.314 . S
N1601 C1603 1.279 . S
C1602 C1603 1.358 . S
C1602 C1604 1.356 . S
C1602 H1656 0.930 . S
C1603 N1601 1.279 . S
C1603 C1602 1.358 . S
C1603 H1607 0.930 . S
C1604 C1602 1.356 . S
C1604 C1605 1.348 . S
C1605 C1600 1.353 . S
C1605 C1604 1.348 . S
C1605 H1657 0.929 . S
H1606 C1600 0.930 . S
H1607 C1603 0.930 . S
C1608 N1609 1.314 . S
C1608 C1610 1.353 . S
C1608 H1614 0.930 . S
N1609 Li1585 1.990 . S
N1609 C1608 1.314 . S
N1609 C1612 1.279 . S
C1610 C1608 1.353 . S
C1610 C1613 1.348 . S
C1610 H1658 0.929 . S
C1611 C1612 1.358 . S
C1611 C1613 1.356 . S
C1611 H1659 0.930 . S
C1612 N1609 1.279 . S
C1612 C1611 1.358 . S
C1612 H1615 0.930 . S
C1613 C1610 1.348 . S
C1613 C1611 1.356 . S
H1614 C1608 0.930 . S
H1615 C1612 0.930 . S
C1616 C1618 1.348 . S
C1616 C1619 1.356 . S
C1616 O1646 1.325 . S
N1617 C1620 1.314 . S
N1617 C1621 1.279 . S
C1618 C1616 1.348 . S
C1618 C1620 1.353 . S
C1618 H1660 0.929 . S
C1619 C1616 1.356 . S
C1619 C1621 1.358 . S
C1619 H1661 0.930 . S
C1620 N1617 1.314 . S
C1620 C1618 1.353 . S
C1620 H1662 0.930 . S
C1621 N1617 1.279 . S
C1621 C1619 1.358 . S
C1621 H1663 0.930 . S
C1622 C1623 1.348 . S
C1622 C1624 1.356 . S
C1622 O1647 1.325 . S
C1623 C1622 1.348 . S
C1623 C1625 1.353 . S
C1623 H1664 0.929 . S
C1624 C1622 1.356 . S
C1624 C1626 1.358 . S
C1624 H1665 0.930 . S
C1625 C1623 1.353 . S
C1625 N1627 1.314 . S
C1625 H1666 0.930 . S
C1626 C1624 1.358 . S
C1626 N1627 1.279 . S
C1626 H1667 0.930 . S
N1627 C1625 1.314 . S
N1627 C1626 1.279 . S
C1628 C1630 1.353 . S
C1628 N1631 1.314 . S
C1628 H1634 0.930 . S
C1629 N1631 1.279 . S
C1629 C1632 1.358 . S
C1629 H1635 0.930 . S
C1630 C1628 1.353 . S
C1630 C1633 1.348 . S
C1630 H1668 0.929 . S
N1631 Li1586 1.990 . S
N1631 C1628 1.314 . S
N1631 C1629 1.279 . S
C1632 C1629 1.358 . S
C1632 C1633 1.356 . S
C1632 H1669 0.930 . S
C1633 C1630 1.348 . S
C1633 C1632 1.356 . S
H1634 C1628 0.930 . S
H1635 C1629 0.930 . S
C1636 N1637 1.314 . S
C1636 C1638 1.353 . S
C1636 H1642 0.930 . S
N1637 Li1587 1.990 . S
N1637 C1636 1.314 . S
N1637 C1640 1.279 . S
C1638 C1636 1.353 . S
C1638 C1641 1.348 . S
C1638 H1670 0.929 . S
C1639 C1640 1.358 . S
C1639 C1641 1.356 . S
C1639 H1671 0.930 . S
C1640 N1637 1.279 . S
C1640 C1639 1.358 . S
C1640 H1643 0.930 . S
C1641 C1638 1.348 . S
C1641 C1639 1.356 . S
H1642 C1636 0.930 . S
H1643 C1640 0.930 . S
O1644 Li1584 1.956 . S
O1644 Li1585 1.970 . S
O1644 Li1586 1.961 . S
O1644 C1588 1.325 . S
O1645 Li1584 1.970 . S
O1645 Li1585 1.956 . S
O1645 Li1587 1.961 . S
O1645 C1594 1.325 . S
O1646 Li1584 1.961 . S
O1646 Li1586 1.956 . S
O1646 Li1587 1.970 . S
O1646 C1616 1.325 . S
O1647 Li1585 1.961 . S
O1647 Li1586 1.970 . S
O1647 Li1587 1.956 . S
O1647 C1622 1.325 . S
H1648 C1590 0.929 . S
H1649 C1591 0.930 . S
H1650 C1592 0.930 . S
H1651 C1593 0.930 . S
H1652 C1595 0.930 . S
H1653 C1597 0.929 . S
H1654 C1598 0.930 . S
H1655 C1599 0.930 . S
H1656 C1602 0.930 . S
H1657 C1605 0.929 . S
H1658 C1610 0.929 . S
H1659 C1611 0.930 . S
H1660 C1618 0.929 . S
H1661 C1619 0.930 . S
H1662 C1620 0.930 . S
H1663 C1621 0.930 . S
H1664 C1623 0.929 . S
H1665 C1624 0.930 . S
H1666 C1625 0.930 . S
H1667 C1626 0.930 . S
H1668 C1630 0.929 . S
H1669 C1632 0.930 . S
H1670 C1638 0.929 . S
H1671 C1639 0.930 . S
Li1672 N1689 1.990 . S
Li1672 O1732 1.956 . S
Li1672 O1733 1.970 . S
Li1672 O1734 1.961 . S
Li1673 N1697 1.990 . S
Li1673 O1732 1.970 . S
Li1673 O1733 1.956 . S
Li1673 O1735 1.961 . S
Li1674 N1719 1.990 . S
Li1674 O1732 1.961 . S
Li1674 O1734 1.956 . S
Li1674 O1735 1.970 . S
Li1675 N1725 1.990 1_545 S
Li1675 O1733 1.961 . S
Li1675 O1734 1.970 . S
Li1675 O1735 1.956 . S
C1676 C1678 1.348 . S
C1676 C1679 1.356 . S
C1676 O1732 1.325 . S
N1677 C1680 1.314 . S
N1677 C1681 1.279 . S
C1678 C1676 1.348 . S
C1678 C1680 1.353 . S
C1678 H1736 0.929 . S
C1679 C1676 1.356 . S
C1679 C1681 1.358 . S
C1679 H1737 0.930 . S
C1680 N1677 1.314 . S
C1680 C1678 1.353 . S
C1680 H1738 0.930 . S
C1681 N1677 1.279 . S
C1681 C1679 1.358 . S
C1681 H1739 0.930 . S
C1682 C1685 1.348 . S
C1682 C1686 1.356 . S
C1682 O1733 1.325 . S
C1683 N1684 1.279 . S
C1683 C1686 1.358 . S
C1683 H1740 0.930 . S
N1684 C1683 1.279 . S
N1684 C1687 1.314 . S
C1685 C1682 1.348 . S
C1685 C1687 1.353 . S
C1685 H1741 0.929 . S
C1686 C1682 1.356 . S
C1686 C1683 1.358 . S
C1686 H1742 0.930 . S
C1687 N1684 1.314 . S
C1687 C1685 1.353 . S
C1687 H1743 0.930 . S
C1688 N1689 1.314 . S
C1688 C1693 1.353 . S
C1688 H1694 0.930 1_545 S
N1689 Li1672 1.990 . S
N1689 C1688 1.314 . S
N1689 C1691 1.279 . S
C1690 C1691 1.358 . S
C1690 C1692 1.356 . S
C1690 H1744 0.930 . S
C1691 N1689 1.279 . S
C1691 C1690 1.358 . S
C1691 H1695 0.930 . S
C1692 C1690 1.356 . S
C1692 C1693 1.348 . S
C1693 C1688 1.353 . S
C1693 C1692 1.348 . S
C1693 H1745 0.929 1_545 S
H1694 C1688 0.930 1_565 S
H1695 C1691 0.930 . S
C1696 N1697 1.314 . S
C1696 C1698 1.353 . S
C1696 H1702 0.930 . S
N1697 Li1673 1.990 . S
N1697 C1696 1.314 . S
N1697 C1700 1.279 . S
C1698 C1696 1.353 . S
C1698 C1701 1.348 . S
C1698 H1746 0.929 . S
C1699 C1700 1.358 . S
C1699 C1701 1.356 . S
C1699 H1747 0.930 . S
C1700 N1697 1.279 . S
C1700 C1699 1.358 . S
C1700 H1703 0.930 . S
C1701 C1698 1.348 . S
C1701 C1699 1.356 . S
H1702 C1696 0.930 . S
H1703 C1700 0.930 . S
C1704 C1706 1.348 . S
C1704 C1707 1.356 . S
C1704 O1734 1.325 1_565 S
N1705 C1708 1.314 . S
N1705 C1709 1.279 . S
C1706 C1704 1.348 . S
C1706 C1708 1.353 . S
C1706 H1748 0.929 . S
C1707 C1704 1.356 . S
C1707 C1709 1.358 . S
C1707 H1749 0.930 . S
C1708 N1705 1.314 . S
C1708 C1706 1.353 . S
C1708 H1750 0.930 . S
C1709 N1705 1.279 . S
C1709 C1707 1.358 . S
C1709 H1751 0.930 . S
C1710 C1711 1.348 . S
C1710 C1712 1.356 . S
C1710 O1735 1.325 . S
C1711 C1710 1.348 . S
C1711 C1713 1.353 . S
C1711 H1752 0.929 . S
C1712 C1710 1.356 . S
C1712 C1714 1.358 . S
C1712 H1753 0.930 . S
C1713 C1711 1.353 . S
C1713 N1715 1.314 . S
C1713 H1754 0.930 . S
C1714 C1712 1.358 . S
C1714 N1715 1.279 . S
C1714 H1755 0.930 . S
N1715 C1713 1.314 . S
N1715 C1714 1.279 . S
C1716 C1718 1.353 . S
C1716 N1719 1.314 . S
C1716 H1722 0.930 . S
C1717 N1719 1.279 . S
C1717 C1720 1.358 1_545 S
C1717 H1723 0.930 1_545 S
C1718 C1716 1.353 . S
C1718 C1721 1.348 . S
C1718 H1756 0.929 . S
N1719 Li1674 1.990 . S
N1719 C1716 1.314 . S
N1719 C1717 1.279 . S
C1720 C1717 1.358 1_565 S
C1720 C1721 1.356 1_565 S
C1720 H1757 0.930 . S
C1721 C1718 1.348 . S
C1721 C1720 1.356 1_545 S
H1722 C1716 0.930 . S
H1723 C1717 0.930 1_565 S
C1724 N1725 1.314 . S
C1724 C1726 1.353 . S
C1724 H1730 0.930 . S
N1725 Li1675 1.990 1_565 S
N1725 C1724 1.314 . S
N1725 C1728 1.279 . S
C1726 C1724 1.353 . S
C1726 C1729 1.348 . S
C1726 H1758 0.929 . S
C1727 C1728 1.358 . S
C1727 C1729 1.356 . S
C1727 H1759 0.930 . S
C1728 N1725 1.279 . S
C1728 C1727 1.358 . S
C1728 H1731 0.930 . S
C1729 C1726 1.348 . S
C1729 C1727 1.356 . S
H1730 C1724 0.930 . S
H1731 C1728 0.930 . S
O1732 Li1672 1.956 . S
O1732 Li1673 1.970 . S
O1732 Li1674 1.961 . S
O1732 C1676 1.325 . S
O1733 Li1672 1.970 . S
O1733 Li1673 1.956 . S
O1733 Li1675 1.961 . S
O1733 C1682 1.325 . S
O1734 Li1672 1.961 . S
O1734 Li1674 1.956 . S
O1734 Li1675 1.970 . S
O1734 C1704 1.325 1_545 S
O1735 Li1673 1.961 . S
O1735 Li1674 1.970 . S
O1735 Li1675 1.956 . S
O1735 C1710 1.325 . S
H1736 C1678 0.929 . S
H1737 C1679 0.930 . S
H1738 C1680 0.930 . S
H1739 C1681 0.930 . S
H1740 C1683 0.930 . S
H1741 C1685 0.929 . S
H1742 C1686 0.930 . S
H1743 C1687 0.930 . S
H1744 C1690 0.930 . S
H1745 C1693 0.929 1_565 S
H1746 C1698 0.929 . S
H1747 C1699 0.930 . S
H1748 C1706 0.929 . S
H1749 C1707 0.930 . S
H1750 C1708 0.930 . S
H1751 C1709 0.930 . S
H1752 C1711 0.929 . S
H1753 C1712 0.930 . S
H1754 C1713 0.930 . S
H1755 C1714 0.930 . S
H1756 C1718 0.929 . S
H1757 C1720 0.930 . S
H1758 C1726 0.929 . S
H1759 C1727 0.930 . S
Li1760 N1777 1.990 . S
Li1760 O1820 1.956 . S
Li1760 O1821 1.970 . S
Li1760 O1822 1.961 . S
Li1761 N1785 1.990 . S
Li1761 O1820 1.970 . S
Li1761 O1821 1.956 . S
Li1761 O1823 1.961 . S
Li1762 N1807 1.990 1_554 S
Li1762 O1820 1.961 . S
Li1762 O1822 1.956 . S
Li1762 O1823 1.970 . S
Li1763 N1813 1.990 . S
Li1763 O1821 1.961 . S
Li1763 O1822 1.970 . S
Li1763 O1823 1.956 . S
C1764 C1766 1.348 . S
C1764 C1767 1.356 . S
C1764 O1820 1.325 . S
N1765 C1768 1.314 . S
N1765 C1769 1.279 . S
C1766 C1764 1.348 . S
C1766 C1768 1.353 . S
C1766 H1824 0.929 . S
C1767 C1764 1.356 . S
C1767 C1769 1.358 . S
C1767 H1825 0.930 . S
C1768 N1765 1.314 . S
C1768 C1766 1.353 . S
C1768 H1826 0.930 . S
C1769 N1765 1.279 . S
C1769 C1767 1.358 . S
C1769 H1827 0.930 . S
C1770 C1773 1.348 . S
C1770 C1774 1.356 . S
C1770 O1821 1.325 . S
C1771 N1772 1.279 . S
C1771 C1774 1.358 . S
C1771 H1828 0.930 . S
N1772 C1771 1.279 . S
N1772 C1775 1.314 . S
C1773 C1770 1.348 . S
C1773 C1775 1.353 . S
C1773 H1829 0.929 . S
C1774 C1770 1.356 . S
C1774 C1771 1.358 . S
C1774 H1830 0.930 . S
C1775 N1772 1.314 . S
C1775 C1773 1.353 . S
C1775 H1831 0.930 . S
C1776 N1777 1.314 . S
C1776 C1781 1.353 . S
C1776 H1782 0.930 . S
N1777 Li1760 1.990 . S
N1777 C1776 1.314 . S
N1777 C1779 1.279 . S
C1778 C1779 1.358 . S
C1778 C1780 1.356 . S
C1778 H1832 0.930 . S
C1779 N1777 1.279 . S
C1779 C1778 1.358 . S
C1779 H1783 0.930 . S
C1780 C1778 1.356 . S
C1780 C1781 1.348 . S
C1781 C1776 1.353 . S
C1781 C1780 1.348 . S
C1781 H1833 0.929 . S
H1782 C1776 0.930 . S
H1783 C1779 0.930 . S
C1784 N1785 1.314 . S
C1784 C1786 1.353 . S
C1784 H1790 0.930 . S
N1785 Li1761 1.990 . S
N1785 C1784 1.314 . S
N1785 C1788 1.279 . S
C1786 C1784 1.353 . S
C1786 C1789 1.348 . S
C1786 H1834 0.883 1_554 S
C1787 C1788 1.358 . S
C1787 C1789 1.356 . S
C1787 H1835 0.930 . S
C1788 N1785 1.279 . S
C1788 C1787 1.358 . S
C1788 H1791 0.930 . S
C1789 C1786 1.348 . S
C1789 C1787 1.356 . S
H1790 C1784 0.930 . S
H1791 C1788 0.930 . S
C1792 C1794 1.348 . S
C1792 C1795 1.356 . S
C1792 O1822 1.325 . S
N1793 C1796 1.314 . S
N1793 C1797 1.279 . S
C1794 C1792 1.348 . S
C1794 C1796 1.353 . S
C1794 H1836 0.929 . S
C1795 C1792 1.356 . S
C1795 C1797 1.358 . S
C1795 H1837 0.930 . S
C1796 N1793 1.314 . S
C1796 C1794 1.353 . S
C1796 H1838 0.930 . S
C1797 N1793 1.279 . S
C1797 C1795 1.358 . S
C1797 H1839 0.930 . S
C1798 C1799 1.348 . S
C1798 C1800 1.356 . S
C1798 O1823 1.325 1_556 S
C1799 C1798 1.348 . S
C1799 C1801 1.353 . S
C1799 H1840 0.929 . S
C1800 C1798 1.356 . S
C1800 C1802 1.358 . S
C1800 H1841 0.902 1_556 S
C1801 C1799 1.353 . S
C1801 N1803 1.314 . S
C1801 H1842 0.930 . S
C1802 C1800 1.358 . S
C1802 N1803 1.279 . S
C1802 H1843 0.930 . S
N1803 C1801 1.314 . S
N1803 C1802 1.279 . S
C1804 C1806 1.353 . S
C1804 N1807 1.314 . S
C1804 H1810 0.930 . S
C1805 N1807 1.279 . S
C1805 C1808 1.358 . S
C1805 H1811 0.930 . S
C1806 C1804 1.353 . S
C1806 C1809 1.348 . S
C1806 H1844 0.929 . S
N1807 Li1762 1.990 1_556 S
N1807 C1804 1.314 . S
N1807 C1805 1.279 . S
C1808 C1805 1.358 . S
C1808 C1809 1.356 . S
C1808 H1845 0.930 . S
C1809 C1806 1.348 . S
C1809 C1808 1.356 . S
H1810 C1804 0.930 . S
H1811 C1805 0.930 . S
C1812 N1813 1.314 . S
C1812 C1814 1.353 . S
C1812 H1818 0.930 . S
N1813 Li1763 1.990 . S
N1813 C1812 1.314 . S
N1813 C1816 1.279 . S
C1814 C1812 1.353 . S
C1814 C1817 1.348 . S
C1814 H1846 0.929 . S
C1815 C1816 1.358 . S
C1815 C1817 1.356 . S
C1815 H1847 0.930 1_554 S
C1816 N1813 1.279 . S
C1816 C1815 1.358 . S
C1816 H1819 0.930 1_554 S
C1817 C1814 1.348 . S
C1817 C1815 1.356 . S
H1818 C1812 0.930 . S
H1819 C1816 0.930 1_556 S
O1820 Li1760 1.956 . S
O1820 Li1761 1.970 . S
O1820 Li1762 1.961 . S
O1820 C1764 1.325 . S
O1821 Li1760 1.970 . S
O1821 Li1761 1.956 . S
O1821 Li1763 1.961 . S
O1821 C1770 1.325 . S
O1822 Li1760 1.961 . S
O1822 Li1762 1.956 . S
O1822 Li1763 1.970 . S
O1822 C1792 1.325 . S
O1823 Li1761 1.961 . S
O1823 Li1762 1.970 . S
O1823 Li1763 1.956 . S
O1823 C1798 1.325 1_554 S
H1824 C1766 0.929 . S
H1825 C1767 0.930 . S
H1826 C1768 0.930 . S
H1827 C1769 0.930 . S
H1828 C1771 0.930 . S
H1829 C1773 0.929 . S
H1830 C1774 0.930 . S
H1831 C1775 0.930 . S
H1832 C1778 0.930 . S
H1833 C1781 0.929 . S
H1834 C1786 0.883 1_556 S
H1835 C1787 0.930 . S
H1836 C1794 0.929 . S
H1837 C1795 0.930 . S
H1838 C1796 0.930 . S
H1839 C1797 0.930 . S
H1840 C1799 0.929 . S
H1841 C1800 0.902 1_554 S
H1842 C1801 0.930 . S
H1843 C1802 0.930 . S
H1844 C1806 0.929 . S
H1845 C1808 0.930 . S
H1846 C1814 0.929 . S
H1847 C1815 0.930 1_556 S
Li1848 N1865 1.990 . S
Li1848 O1908 1.956 . S
Li1848 O1909 1.970 . S
Li1848 O1910 1.961 . S
Li1849 N1873 1.990 . S
Li1849 O1908 1.970 . S
Li1849 O1909 1.956 . S
Li1849 O1911 1.961 . S
Li1850 N1895 1.990 . S
Li1850 O1908 1.961 . S
Li1850 O1910 1.956 . S
Li1850 O1911 1.970 . S
Li1851 N1901 1.990 . S
Li1851 O1909 1.961 . S
Li1851 O1910 1.970 . S
Li1851 O1911 1.956 . S
C1852 C1854 1.348 . S
C1852 C1855 1.356 . S
C1852 O1908 1.325 . S
N1853 C1856 1.314 . S
N1853 C1857 1.279 . S
C1854 C1852 1.348 . S
C1854 C1856 1.353 . S
C1854 H1912 0.929 . S
C1855 C1852 1.356 . S
C1855 C1857 1.358 . S
C1855 H1913 0.930 . S
C1856 N1853 1.314 . S
C1856 C1854 1.353 . S
C1856 H1914 0.930 . S
C1857 N1853 1.279 . S
C1857 C1855 1.358 . S
C1857 H1915 0.930 . S
C1858 C1861 1.348 . S
C1858 C1862 1.356 . S
C1858 O1909 1.325 . S
C1859 N1860 1.279 . S
C1859 C1862 1.358 . S
C1859 H1916 0.930 . S
N1860 C1859 1.279 . S
N1860 C1863 1.314 . S
C1861 C1858 1.348 . S
C1861 C1863 1.353 . S
C1861 H1917 0.929 . S
C1862 C1858 1.356 . S
C1862 C1859 1.358 . S
C1862 H1918 0.930 . S
C1863 N1860 1.314 . S
C1863 C1861 1.353 . S
C1863 H1919 0.930 . S
C1864 N1865 1.314 . S
C1864 C1869 1.353 . S
C1864 H1870 0.930 . S
N1865 Li1848 1.990 . S
N1865 C1864 1.314 . S
N1865 C1867 1.279 . S
C1866 C1867 1.358 . S
C1866 C1868 1.356 . S
C1866 H1920 0.930 . S
C1867 N1865 1.279 . S
C1867 C1866 1.358 . S
C1867 H1871 0.930 . S
C1868 C1866 1.356 . S
C1868 C1869 1.348 . S
C1869 C1864 1.353 . S
C1869 C1868 1.348 . S
C1869 H1921 0.929 . S
H1870 C1864 0.930 . S
H1871 C1867 0.930 . S
C1872 N1873 1.314 . S
C1872 C1874 1.353 . S
C1872 H1878 0.930 . S
N1873 Li1849 1.990 . S
N1873 C1872 1.314 . S
N1873 C1876 1.279 . S
C1874 C1872 1.353 . S
C1874 C1877 1.348 . S
C1874 H1922 0.929 . S
C1875 C1876 1.358 . S
C1875 C1877 1.356 . S
C1875 H1923 0.930 . S
C1876 N1873 1.279 . S
C1876 C1875 1.358 . S
C1876 H1879 0.930 . S
C1877 C1874 1.348 . S
C1877 C1875 1.356 . S
H1878 C1872 0.930 . S
H1879 C1876 0.930 . S
C1880 C1882 1.348 . S
C1880 C1883 1.356 . S
C1880 O1910 1.325 . S
N1881 C1884 1.314 . S
N1881 C1885 1.279 . S
C1882 C1880 1.348 . S
C1882 C1884 1.353 . S
C1882 H1924 0.929 . S
C1883 C1880 1.356 . S
C1883 C1885 1.358 . S
C1883 H1925 0.930 . S
C1884 N1881 1.314 . S
C1884 C1882 1.353 . S
C1884 H1926 0.930 . S
C1885 N1881 1.279 . S
C1885 C1883 1.358 . S
C1885 H1927 0.930 . S
C1886 C1887 1.348 . S
C1886 C1888 1.356 . S
C1886 O1911 1.325 . S
C1887 C1886 1.348 . S
C1887 C1889 1.353 . S
C1887 H1928 0.929 . S
C1888 C1886 1.356 . S
C1888 C1890 1.358 . S
C1888 H1929 0.930 . S
C1889 C1887 1.353 . S
C1889 N1891 1.314 . S
C1889 H1930 0.930 . S
C1890 C1888 1.358 . S
C1890 N1891 1.279 . S
C1890 H1931 0.930 1_655 S
N1891 C1889 1.314 . S
N1891 C1890 1.279 . S
C1892 C1894 1.353 . S
C1892 N1895 1.314 . S
C1892 H1898 0.930 . S
C1893 N1895 1.279 . S
C1893 C1896 1.358 . S
C1893 H1899 0.930 . S
C1894 C1892 1.353 . S
C1894 C1897 1.348 . S
C1894 H1932 0.929 . S
N1895 Li1850 1.990 . S
N1895 C1892 1.314 . S
N1895 C1893 1.279 . S
C1896 C1893 1.358 . S
C1896 C1897 1.356 . S
C1896 H1933 0.930 . S
C1897 C1894 1.348 . S
C1897 C1896 1.356 . S
H1898 C1892 0.930 . S
H1899 C1893 0.930 . S
C1900 N1901 1.314 . S
C1900 C1902 1.353 . S
C1900 H1906 0.930 . S
N1901 Li1851 1.990 . S
N1901 C1900 1.314 . S
N1901 C1904 1.279 . S
C1902 C1900 1.353 . S
C1902 C1905 1.348 . S
C1902 H1934 0.929 . S
C1903 C1904 1.358 . S
C1903 C1905 1.356 . S
C1903 H1935 0.930 . S
C1904 N1901 1.279 . S
C1904 C1903 1.358 . S
C1904 H1907 0.930 . S
C1905 C1902 1.348 . S
C1905 C1903 1.356 . S
H1906 C1900 0.930 . S
H1907 C1904 0.930 . S
O1908 Li1848 1.956 . S
O1908 Li1849 1.970 . S
O1908 Li1850 1.961 . S
O1908 C1852 1.325 . S
O1909 Li1848 1.970 . S
O1909 Li1849 1.956 . S
O1909 Li1851 1.961 . S
O1909 C1858 1.325 . S
O1910 Li1848 1.961 . S
O1910 Li1850 1.956 . S
O1910 Li1851 1.970 . S
O1910 C1880 1.325 . S
O1911 Li1849 1.961 . S
O1911 Li1850 1.970 . S
O1911 Li1851 1.956 . S
O1911 C1886 1.325 . S
H1912 C1854 0.929 . S
H1913 C1855 0.930 . S
H1914 C1856 0.930 . S
H1915 C1857 0.930 . S
H1916 C1859 0.930 . S
H1917 C1861 0.929 . S
H1918 C1862 0.930 . S
H1919 C1863 0.930 . S
H1920 C1866 0.930 . S
H1921 C1869 0.929 . S
H1922 C1874 0.929 . S
H1923 C1875 0.930 . S
H1924 C1882 0.929 . S
H1925 C1883 0.930 . S
H1926 C1884 0.930 . S
H1927 C1885 0.930 . S
H1928 C1887 0.929 . S
H1929 C1888 0.930 . S
H1930 C1889 0.930 . S
H1931 C1890 0.930 1_455 S
H1932 C1894 0.929 . S
H1933 C1896 0.930 . S
H1934 C1902 0.929 . S
H1935 C1903 0.930 . S
Li1936 N1953 1.990 . S
Li1936 O1996 1.956 . S
Li1936 O1997 1.970 . S
Li1936 O1998 1.961 . S
Li1937 N1961 1.990 . S
Li1937 O1996 1.970 . S
Li1937 O1997 1.956 . S
Li1937 O1999 1.961 . S
Li1938 N1983 1.990 . S
Li1938 O1996 1.961 . S
Li1938 O1998 1.956 . S
Li1938 O1999 1.970 . S
Li1939 N1989 1.990 . S
Li1939 O1997 1.961 . S
Li1939 O1998 1.970 . S
Li1939 O1999 1.956 . S
C1940 C1942 1.348 . S
C1940 C1943 1.356 . S
C1940 O1996 1.325 . S
N1941 C1944 1.314 . S
N1941 C1945 1.279 . S
C1942 C1940 1.348 . S
C1942 C1944 1.353 . S
C1942 H2000 0.929 . S
C1943 C1940 1.356 . S
C1943 C1945 1.358 . S
C1943 H2001 0.930 . S
C1944 N1941 1.314 . S
C1944 C1942 1.353 . S
C1944 H2002 0.930 . S
C1945 N1941 1.279 . S
C1945 C1943 1.358 . S
C1945 H2003 0.930 . S
C1946 C1949 1.348 . S
C1946 C1950 1.356 . S
C1946 O1997 1.325 . S
C1947 N1948 1.279 . S
C1947 C1950 1.358 . S
C1947 H2004 0.930 . S
N1948 C1947 1.279 . S
N1948 C1951 1.314 . S
C1949 C1946 1.348 . S
C1949 C1951 1.353 . S
C1949 H2005 0.929 . S
C1950 C1946 1.356 . S
C1950 C1947 1.358 . S
C1950 H2006 0.930 . S
C1951 N1948 1.314 . S
C1951 C1949 1.353 . S
C1951 H2007 0.930 . S
C1952 N1953 1.314 . S
C1952 C1957 1.353 . S
C1952 H1958 0.930 . S
N1953 Li1936 1.990 . S
N1953 C1952 1.314 . S
N1953 C1955 1.279 . S
C1954 C1955 1.358 . S
C1954 C1956 1.356 . S
C1954 H2008 0.930 . S
C1955 N1953 1.279 . S
C1955 C1954 1.358 . S
C1955 H1959 0.930 . S
C1956 C1954 1.356 . S
C1956 C1957 1.348 . S
C1957 C1952 1.353 . S
C1957 C1956 1.348 . S
C1957 H2009 0.929 . S
H1958 C1952 0.930 . S
H1959 C1955 0.930 . S
C1960 N1961 1.314 . S
C1960 C1962 1.353 . S
C1960 H1966 0.930 . S
N1961 Li1937 1.990 . S
N1961 C1960 1.314 . S
N1961 C1964 1.279 . S
C1962 C1960 1.353 . S
C1962 C1965 1.348 . S
C1962 H2010 0.929 . S
C1963 C1964 1.358 . S
C1963 C1965 1.356 . S
C1963 H2011 0.930 . S
C1964 N1961 1.279 . S
C1964 C1963 1.358 . S
C1964 H1967 0.930 . S
C1965 C1962 1.348 . S
C1965 C1963 1.356 . S
H1966 C1960 0.930 . S
H1967 C1964 0.930 . S
C1968 C1970 1.348 . S
C1968 C1971 1.356 . S
C1968 O1998 1.325 . S
N1969 C1972 1.314 . S
N1969 C1973 1.279 . S
C1970 C1968 1.348 . S
C1970 C1972 1.353 . S
C1970 H2012 0.929 . S
C1971 C1968 1.356 . S
C1971 C1973 1.358 . S
C1971 H2013 0.930 . S
C1972 N1969 1.314 . S
C1972 C1970 1.353 . S
C1972 H2014 0.930 . S
C1973 N1969 1.279 . S
C1973 C1971 1.358 . S
C1973 H2015 0.930 . S
C1974 C1975 1.348 . S
C1974 C1976 1.356 . S
C1974 O1999 1.325 . S
C1975 C1974 1.348 . S
C1975 C1977 1.353 . S
C1975 H2016 0.929 . S
C1976 C1974 1.356 . S
C1976 C1978 1.358 . S
C1976 H2017 0.930 . S
C1977 C1975 1.353 . S
C1977 N1979 1.314 . S
C1977 H2018 0.930 . S
C1978 C1976 1.358 . S
C1978 N1979 1.279 . S
C1978 H2019 0.930 . S
N1979 C1977 1.314 . S
N1979 C1978 1.279 . S
C1980 C1982 1.353 . S
C1980 N1983 1.314 . S
C1980 H1986 0.930 . S
C1981 N1983 1.279 . S
C1981 C1984 1.358 . S
C1981 H1987 0.930 . S
C1982 C1980 1.353 . S
C1982 C1985 1.348 . S
C1982 H2020 0.929 . S
N1983 Li1938 1.990 . S
N1983 C1980 1.314 . S
N1983 C1981 1.279 . S
C1984 C1981 1.358 . S
C1984 C1985 1.356 . S
C1984 H2021 0.930 . S
C1985 C1982 1.348 . S
C1985 C1984 1.356 . S
H1986 C1980 0.930 . S
H1987 C1981 0.930 . S
C1988 N1989 1.314 . S
C1988 C1990 1.353 . S
C1988 H1994 0.930 . S
N1989 Li1939 1.990 . S
N1989 C1988 1.314 . S
N1989 C1992 1.279 . S
C1990 C1988 1.353 . S
C1990 C1993 1.348 . S
C1990 H2022 0.929 . S
C1991 C1992 1.358 . S
C1991 C1993 1.356 . S
C1991 H2023 0.930 . S
C1992 N1989 1.279 . S
C1992 C1991 1.358 . S
C1992 H1995 0.930 . S
C1993 C1990 1.348 . S
C1993 C1991 1.356 . S
H1994 C1988 0.930 . S
H1995 C1992 0.930 . S
O1996 Li1936 1.956 . S
O1996 Li1937 1.970 . S
O1996 Li1938 1.961 . S
O1996 C1940 1.325 . S
O1997 Li1936 1.970 . S
O1997 Li1937 1.956 . S
O1997 Li1939 1.961 . S
O1997 C1946 1.325 . S
O1998 Li1936 1.961 . S
O1998 Li1938 1.956 . S
O1998 Li1939 1.970 . S
O1998 C1968 1.325 . S
O1999 Li1937 1.961 . S
O1999 Li1938 1.970 . S
O1999 Li1939 1.956 . S
O1999 C1974 1.325 . S
H2000 C1942 0.929 . S
H2001 C1943 0.930 . S
H2002 C1944 0.930 . S
H2003 C1945 0.930 . S
H2004 C1947 0.930 . S
H2005 C1949 0.929 . S
H2006 C1950 0.930 . S
H2007 C1951 0.930 . S
H2008 C1954 0.930 . S
H2009 C1957 0.929 . S
H2010 C1962 0.929 . S
H2011 C1963 0.930 . S
H2012 C1970 0.929 . S
H2013 C1971 0.930 . S
H2014 C1972 0.930 . S
H2015 C1973 0.930 . S
H2016 C1975 0.929 . S
H2017 C1976 0.930 . S
H2018 C1977 0.930 . S
H2019 C1978 0.930 . S
H2020 C1982 0.929 . S
H2021 C1984 0.930 . S
H2022 C1990 0.929 . S
H2023 C1991 0.930 . S
Li2024 N2041 1.990 . S
Li2024 O2084 1.956 . S
Li2024 O2085 1.970 . S
Li2024 O2086 1.961 . S
Li2025 N2049 1.990 . S
Li2025 O2084 1.970 . S
Li2025 O2085 1.956 . S
Li2025 O2087 1.961 . S
Li2026 N2071 1.990 . S
Li2026 O2084 1.961 . S
Li2026 O2086 1.956 . S
Li2026 O2087 1.970 . S
Li2027 N2077 1.990 . S
Li2027 O2085 1.961 . S
Li2027 O2086 1.970 . S
Li2027 O2087 1.956 . S
C2028 C2030 1.348 . S
C2028 C2031 1.356 . S
C2028 O2084 1.325 . S
N2029 C2032 1.314 . S
N2029 C2033 1.279 . S
C2030 C2028 1.348 . S
C2030 C2032 1.353 . S
C2030 H2088 0.929 . S
C2031 C2028 1.356 . S
C2031 C2033 1.358 . S
C2031 H2089 0.930 . S
C2032 N2029 1.314 . S
C2032 C2030 1.353 . S
C2032 H2090 0.930 . S
C2033 N2029 1.279 . S
C2033 C2031 1.358 . S
C2033 H2091 0.930 . S
C2034 C2037 1.348 . S
C2034 C2038 1.356 . S
C2034 O2085 1.325 . S
C2035 N2036 1.279 . S
C2035 C2038 1.358 . S
C2035 H2092 0.930 . S
N2036 C2035 1.279 . S
N2036 C2039 1.314 . S
C2037 C2034 1.348 . S
C2037 C2039 1.353 . S
C2037 H2093 0.929 . S
C2038 C2034 1.356 . S
C2038 C2035 1.358 . S
C2038 H2094 0.930 . S
C2039 N2036 1.314 . S
C2039 C2037 1.353 . S
C2039 H2095 0.930 . S
C2040 N2041 1.314 . S
C2040 C2045 1.353 . S
C2040 H2046 0.930 . S
N2041 Li2024 1.990 . S
N2041 C2040 1.314 . S
N2041 C2043 1.279 . S
C2042 C2043 1.358 . S
C2042 C2044 1.356 . S
C2042 H2096 0.930 . S
C2043 N2041 1.279 . S
C2043 C2042 1.358 . S
C2043 H2047 0.930 . S
C2044 C2042 1.356 . S
C2044 C2045 1.348 . S
C2045 C2040 1.353 . S
C2045 C2044 1.348 . S
C2045 H2097 0.929 . S
H2046 C2040 0.930 . S
H2047 C2043 0.930 . S
C2048 N2049 1.314 . S
C2048 C2050 1.353 . S
C2048 H2054 0.930 . S
N2049 Li2025 1.990 . S
N2049 C2048 1.314 . S
N2049 C2052 1.279 . S
C2050 C2048 1.353 . S
C2050 C2053 1.348 . S
C2050 H2098 0.929 . S
C2051 C2052 1.358 . S
C2051 C2053 1.356 . S
C2051 H2099 0.930 . S
C2052 N2049 1.279 . S
C2052 C2051 1.358 . S
C2052 H2055 0.930 . S
C2053 C2050 1.348 . S
C2053 C2051 1.356 . S
H2054 C2048 0.930 . S
H2055 C2052 0.930 . S
C2056 C2058 1.348 . S
C2056 C2059 1.356 . S
C2056 O2086 1.325 . S
N2057 C2060 1.314 . S
N2057 C2061 1.279 . S
C2058 C2056 1.348 . S
C2058 C2060 1.353 . S
C2058 H2100 0.929 . S
C2059 C2056 1.356 . S
C2059 C2061 1.358 . S
C2059 H2101 0.930 . S
C2060 N2057 1.314 . S
C2060 C2058 1.353 . S
C2060 H2102 0.930 . S
C2061 N2057 1.279 . S
C2061 C2059 1.358 . S
C2061 H2103 0.930 . S
C2062 C2063 1.348 . S
C2062 C2064 1.356 . S
C2062 O2087 1.325 . S
C2063 C2062 1.348 . S
C2063 C2065 1.353 . S
C2063 H2104 0.929 . S
C2064 C2062 1.356 . S
C2064 C2066 1.358 . S
C2064 H2105 0.930 . S
C2065 C2063 1.353 . S
C2065 N2067 1.314 . S
C2065 H2106 0.930 . S
C2066 C2064 1.358 . S
C2066 N2067 1.279 . S
C2066 H2107 0.930 . S
N2067 C2065 1.314 . S
N2067 C2066 1.279 . S
C2068 C2070 1.353 . S
C2068 N2071 1.314 . S
C2068 H2074 0.930 . S
C2069 N2071 1.279 . S
C2069 C2072 1.358 . S
C2069 H2075 0.930 . S
C2070 C2068 1.353 . S
C2070 C2073 1.348 . S
C2070 H2108 0.929 . S
N2071 Li2026 1.990 . S
N2071 C2068 1.314 . S
N2071 C2069 1.279 . S
C2072 C2069 1.358 . S
C2072 C2073 1.356 . S
C2072 H2109 0.930 . S
C2073 C2070 1.348 . S
C2073 C2072 1.356 . S
H2074 C2068 0.930 . S
H2075 C2069 0.930 . S
C2076 N2077 1.314 . S
C2076 C2078 1.353 . S
C2076 H2082 0.930 . S
N2077 Li2027 1.990 . S
N2077 C2076 1.314 . S
N2077 C2080 1.279 . S
C2078 C2076 1.353 . S
C2078 C2081 1.348 . S
C2078 H2110 0.929 . S
C2079 C2080 1.358 . S
C2079 C2081 1.356 . S
C2079 H2111 0.930 . S
C2080 N2077 1.279 . S
C2080 C2079 1.358 . S
C2080 H2083 0.930 . S
C2081 C2078 1.348 . S
C2081 C2079 1.356 . S
H2082 C2076 0.930 . S
H2083 C2080 0.930 . S
O2084 Li2024 1.956 . S
O2084 Li2025 1.970 . S
O2084 Li2026 1.961 . S
O2084 C2028 1.325 . S
O2085 Li2024 1.970 . S
O2085 Li2025 1.956 . S
O2085 Li2027 1.961 . S
O2085 C2034 1.325 . S
O2086 Li2024 1.961 . S
O2086 Li2026 1.956 . S
O2086 Li2027 1.970 . S
O2086 C2056 1.325 . S
O2087 Li2025 1.961 . S
O2087 Li2026 1.970 . S
O2087 Li2027 1.956 . S
O2087 C2062 1.325 . S
H2088 C2030 0.929 . S
H2089 C2031 0.930 . S
H2090 C2032 0.930 . S
H2091 C2033 0.930 . S
H2092 C2035 0.930 . S
H2093 C2037 0.929 . S
H2094 C2038 0.930 . S
H2095 C2039 0.930 . S
H2096 C2042 0.930 . S
H2097 C2045 0.929 . S
H2098 C2050 0.929 . S
H2099 C2051 0.930 . S
H2100 C2058 0.929 . S
H2101 C2059 0.930 . S
H2102 C2060 0.930 . S
H2103 C2061 0.930 . S
H2104 C2063 0.929 . S
H2105 C2064 0.930 . S
H2106 C2065 0.930 . S
H2107 C2066 0.930 . S
H2108 C2070 0.929 . S
H2109 C2072 0.930 . S
H2110 C2078 0.929 . S
H2111 C2079 0.930 . S
Tb2112 C2121 2.764 . S
Tb2112 O2122 2.325 . S
Tb2112 O2125 2.303 . S
Tb2112 O2129 2.322 . S
Tb2112 O2130 2.349 . S
Tb2112 O2133 2.415 . S
Tb2112 O2134 2.399 . S
Tb2113 O2123 2.322 1_545 S
Tb2113 O2124 2.349 1_554 S
Tb2113 O2126 2.415 1_455 S
Tb2113 O2127 2.399 1_454 S
Tb2113 O2128 2.325 . S
Tb2113 O2131 2.303 . S
Tb2113 C2142 2.764 1_455 S
C2114 O2130 1.261 . S
C2114 O2131 1.257 . S
C2115 C2118 1.358 . S
C2115 C2119 1.332 . S
C2115 C2121 1.504 . S
C2116 C2117 1.373 . S
C2116 C2120 1.308 . S
C2117 C2116 1.373 . S
C2117 C2118 1.429 . S
C2117 H2144 0.932 . S
C2118 C2115 1.358 . S
C2118 C2117 1.429 . S
C2118 H2145 0.930 . S
C2119 C2115 1.332 . S
C2119 C2120 1.394 . S
C2119 H2146 0.932 . S
C2120 C2116 1.308 . S
C2120 C2119 1.394 . S
C2120 H2147 0.929 1_545 S
C2121 Tb2112 2.764 . S
C2121 C2115 1.504 . S
C2121 O2133 1.239 . S
C2121 O2134 1.263 . S
O2122 Tb2112 2.325 . S
O2122 C2132 1.236 1_545 S
O2123 Tb2113 2.322 1_565 S
O2123 C2132 1.257 . S
O2124 Tb2113 2.349 1_556 S
O2124 C2135 1.261 . S
O2125 Tb2112 2.303 . S
O2125 C2135 1.257 1_554 S
O2126 Tb2113 2.415 1_655 S
O2126 C2142 1.239 . S
O2127 Tb2113 2.399 1_656 S
O2127 C2142 1.263 1_556 S
O2128 Tb2113 2.325 . S
O2128 C2143 1.236 . S
O2129 Tb2112 2.322 . S
O2129 C2143 1.257 . S
O2130 Tb2112 2.349 . S
O2130 C2114 1.261 . S
O2131 Tb2113 2.303 . S
O2131 C2114 1.257 . S
C2132 O2122 1.236 1_565 S
C2132 O2123 1.257 . S
O2133 Tb2112 2.415 . S
O2133 C2121 1.239 . S
O2134 Tb2112 2.399 . S
O2134 C2121 1.263 . S
C2135 O2124 1.261 . S
C2135 O2125 1.257 1_556 S
C2136 C2139 1.358 1_554 S
C2136 C2140 1.332 . S
C2136 C2142 1.504 . S
C2137 C2138 1.373 . S
C2137 C2141 1.308 1_556 S
C2138 C2137 1.373 . S
C2138 C2139 1.429 . S
C2138 H2148 0.932 . S
C2139 C2136 1.358 1_556 S
C2139 C2138 1.429 . S
C2139 H2149 0.930 . S
C2140 C2136 1.332 . S
C2140 C2141 1.394 . S
C2140 H2150 0.932 . S
C2141 C2137 1.308 1_554 S
C2141 C2140 1.394 . S
C2141 H2151 0.929 . S
C2142 Tb2113 2.764 1_655 S
C2142 O2126 1.239 . S
C2142 O2127 1.263 1_554 S
C2142 C2136 1.504 . S
C2143 O2128 1.236 . S
C2143 O2129 1.257 . S
H2144 C2117 0.932 . S
H2145 C2118 0.930 . S
H2146 C2119 0.932 . S
H2147 C2120 0.929 1_565 S
H2148 C2138 0.932 . S
H2149 C2139 0.930 . S
H2150 C2140 0.932 . S
H2151 C2141 0.929 . S
Tb2152 C2161 2.764 . S
Tb2152 O2162 2.325 . S
Tb2152 O2165 2.303 . S
Tb2152 O2169 2.322 . S
Tb2152 O2170 2.349 . S
Tb2152 O2173 2.415 . S
Tb2152 O2174 2.399 . S
Tb2153 O2163 2.322 . S
Tb2153 O2164 2.349 . S
Tb2153 O2166 2.415 . S
Tb2153 O2167 2.399 . S
Tb2153 O2168 2.325 . S
Tb2153 O2171 2.303 . S
Tb2153 C2182 2.764 . S
C2154 O2170 1.261 . S
C2154 O2171 1.257 . S
C2155 C2158 1.358 . S
C2155 C2159 1.332 . S
C2155 C2161 1.504 . S
C2156 C2157 1.373 . S
C2156 C2160 1.308 . S
C2157 C2156 1.373 . S
C2157 C2158 1.429 . S
C2157 H2184 0.932 . S
C2158 C2155 1.358 . S
C2158 C2157 1.429 . S
C2158 H2185 0.930 . S
C2159 C2155 1.332 . S
C2159 C2160 1.394 . S
C2159 H2186 0.932 . S
C2160 C2156 1.308 . S
C2160 C2159 1.394 . S
C2160 H2187 0.929 . S
C2161 Tb2152 2.764 . S
C2161 C2155 1.504 . S
C2161 O2173 1.239 . S
C2161 O2174 1.263 . S
O2162 Tb2152 2.325 . S
O2162 C2172 1.236 . S
O2163 Tb2153 2.322 . S
O2163 C2172 1.257 . S
O2164 Tb2153 2.349 . S
O2164 C2175 1.261 . S
O2165 Tb2152 2.303 . S
O2165 C2175 1.257 . S
O2166 Tb2153 2.415 . S
O2166 C2182 1.239 . S
O2167 Tb2153 2.399 . S
O2167 C2182 1.263 . S
O2168 Tb2153 2.325 . S
O2168 C2183 1.236 . S
O2169 Tb2152 2.322 . S
O2169 C2183 1.257 . S
O2170 Tb2152 2.349 . S
O2170 C2154 1.261 . S
O2171 Tb2153 2.303 . S
O2171 C2154 1.257 . S
C2172 O2162 1.236 . S
C2172 O2163 1.257 . S
O2173 Tb2152 2.415 . S
O2173 C2161 1.239 . S
O2174 Tb2152 2.399 . S
O2174 C2161 1.263 . S
C2175 O2164 1.261 . S
C2175 O2165 1.257 . S
C2176 C2179 1.358 . S
C2176 C2180 1.332 . S
C2176 C2182 1.504 . S
C2177 C2178 1.373 . S
C2177 C2181 1.308 . S
C2178 C2177 1.373 . S
C2178 C2179 1.429 . S
C2178 H2188 0.932 . S
C2179 C2176 1.358 . S
C2179 C2178 1.429 . S
C2179 H2189 0.930 . S
C2180 C2176 1.332 . S
C2180 C2181 1.394 . S
C2180 H2190 0.932 . S
C2181 C2177 1.308 . S
C2181 C2180 1.394 . S
C2181 H2191 0.929 . S
C2182 Tb2153 2.764 . S
C2182 O2166 1.239 . S
C2182 O2167 1.263 . S
C2182 C2176 1.504 . S
C2183 O2168 1.236 . S
C2183 O2169 1.257 . S
H2184 C2157 0.932 . S
H2185 C2158 0.930 . S
H2186 C2159 0.932 . S
H2187 C2160 0.929 . S
H2188 C2178 0.932 . S
H2189 C2179 0.930 . S
H2190 C2180 0.932 . S
H2191 C2181 0.929 . S
Tb2192 C2201 2.764 . S
Tb2192 O2202 2.325 . S
Tb2192 O2205 2.303 . S
Tb2192 O2209 2.322 1_545 S
Tb2192 O2210 2.349 . S
Tb2192 O2213 2.415 . S
Tb2192 O2214 2.399 . S
Tb2193 O2203 2.322 . S
Tb2193 O2204 2.349 . S
Tb2193 O2206 2.415 . S
Tb2193 O2207 2.399 . S
Tb2193 O2208 2.325 1_545 S
Tb2193 O2211 2.303 . S
Tb2193 C2222 2.764 . S
C2194 O2210 1.261 . S
C2194 O2211 1.257 . S
C2195 C2198 1.358 . S
C2195 C2199 1.332 . S
C2195 C2201 1.504 . S
C2196 C2197 1.373 . S
C2196 C2200 1.308 . S
C2197 C2196 1.373 . S
C2197 C2198 1.429 . S
C2197 H2224 0.932 . S
C2198 C2195 1.358 . S
C2198 C2197 1.429 . S
C2198 H2225 0.930 . S
C2199 C2195 1.332 . S
C2199 C2200 1.394 . S
C2199 H2226 0.932 . S
C2200 C2196 1.308 . S
C2200 C2199 1.394 . S
C2200 H2227 0.929 . S
C2201 Tb2192 2.764 . S
C2201 C2195 1.504 . S
C2201 O2213 1.239 . S
C2201 O2214 1.263 . S
O2202 Tb2192 2.325 . S
O2202 C2212 1.236 . S
O2203 Tb2193 2.322 . S
O2203 C2212 1.257 . S
O2204 Tb2193 2.349 . S
O2204 C2215 1.261 . S
O2205 Tb2192 2.303 . S
O2205 C2215 1.257 . S
O2206 Tb2193 2.415 . S
O2206 C2222 1.239 . S
O2207 Tb2193 2.399 . S
O2207 C2222 1.263 . S
O2208 Tb2193 2.325 1_565 S
O2208 C2223 1.236 . S
O2209 Tb2192 2.322 1_565 S
O2209 C2223 1.257 . S
O2210 Tb2192 2.349 . S
O2210 C2194 1.261 . S
O2211 Tb2193 2.303 . S
O2211 C2194 1.257 . S
C2212 O2202 1.236 . S
C2212 O2203 1.257 . S
O2213 Tb2192 2.415 . S
O2213 C2201 1.239 . S
O2214 Tb2192 2.399 . S
O2214 C2201 1.263 . S
C2215 O2204 1.261 . S
C2215 O2205 1.257 . S
C2216 C2219 1.358 1_565 S
C2216 C2220 1.332 . S
C2216 C2222 1.504 1_565 S
C2217 C2218 1.373 . S
C2217 C2221 1.308 . S
C2218 C2217 1.373 . S
C2218 C2219 1.410 1_565 S
C2218 H2228 0.932 . S
C2219 C2216 1.358 1_545 S
C2219 C2218 1.410 1_545 S
C2219 H2229 0.949 . S
C2220 C2216 1.332 . S
C2220 C2221 1.394 . S
C2220 H2230 0.932 . S
C2221 C2217 1.308 . S
C2221 C2220 1.394 . S
C2221 H2231 0.929 . S
C2222 Tb2193 2.764 . S
C2222 O2206 1.239 . S
C2222 O2207 1.263 . S
C2222 C2216 1.504 1_545 S
C2223 O2208 1.236 . S
C2223 O2209 1.257 . S
H2224 C2197 0.932 . S
H2225 C2198 0.930 . S
H2226 C2199 0.932 . S
H2227 C2200 0.929 . S
H2228 C2218 0.932 . S
H2229 C2219 0.949 . S
H2230 C2220 0.932 . S
H2231 C2221 0.929 . S
Tb2232 C2241 2.764 . S
Tb2232 O2242 2.325 . S
Tb2232 O2245 2.303 . S
Tb2232 O2249 2.322 . S
Tb2232 O2250 2.349 . S
Tb2232 O2253 2.415 . S
Tb2232 O2254 2.399 . S
Tb2233 O2243 2.322 . S
Tb2233 O2244 2.349 . S
Tb2233 O2246 2.415 . S
Tb2233 O2247 2.399 . S
Tb2233 O2248 2.325 . S
Tb2233 O2251 2.303 . S
Tb2233 C2262 2.764 . S
C2234 O2250 1.261 . S
C2234 O2251 1.257 . S
C2235 C2238 1.358 . S
C2235 C2239 1.332 . S
C2235 C2241 1.504 . S
C2236 C2237 1.373 . S
C2236 C2240 1.308 . S
C2237 C2236 1.373 . S
C2237 C2238 1.429 . S
C2237 H2264 0.932 . S
C2238 C2235 1.358 . S
C2238 C2237 1.429 . S
C2238 H2265 0.930 . S
C2239 C2235 1.332 . S
C2239 C2240 1.394 . S
C2239 H2266 0.932 . S
C2240 C2236 1.308 . S
C2240 C2239 1.394 . S
C2240 H2267 0.929 . S
C2241 Tb2232 2.764 . S
C2241 C2235 1.504 . S
C2241 O2253 1.239 . S
C2241 O2254 1.263 . S
O2242 Tb2232 2.325 . S
O2242 C2252 1.236 . S
O2243 Tb2233 2.322 . S
O2243 C2252 1.257 . S
O2244 Tb2233 2.349 . S
O2244 C2255 1.261 . S
O2245 Tb2232 2.303 . S
O2245 C2255 1.257 . S
O2246 Tb2233 2.415 . S
O2246 C2262 1.239 . S
O2247 Tb2233 2.399 . S
O2247 C2262 1.263 . S
O2248 Tb2233 2.325 . S
O2248 C2263 1.236 . S
O2249 Tb2232 2.322 . S
O2249 C2263 1.257 . S
O2250 Tb2232 2.349 . S
O2250 C2234 1.261 . S
O2251 Tb2233 2.303 . S
O2251 C2234 1.257 . S
C2252 O2242 1.236 . S
C2252 O2243 1.257 . S
O2253 Tb2232 2.415 . S
O2253 C2241 1.239 . S
O2254 Tb2232 2.399 . S
O2254 C2241 1.263 . S
C2255 O2244 1.261 . S
C2255 O2245 1.257 . S
C2256 C2259 1.358 . S
C2256 C2260 1.332 . S
C2256 C2262 1.504 . S
C2257 C2258 1.373 . S
C2257 C2261 1.308 . S
C2258 C2257 1.373 . S
C2258 C2259 1.429 . S
C2258 H2268 0.932 . S
C2259 C2256 1.358 . S
C2259 C2258 1.429 . S
C2259 H2269 0.930 . S
C2260 C2256 1.332 . S
C2260 C2261 1.394 . S
C2260 H2270 0.932 . S
C2261 C2257 1.308 . S
C2261 C2260 1.394 . S
C2261 H2271 0.929 . S
C2262 Tb2233 2.764 . S
C2262 O2246 1.239 . S
C2262 O2247 1.263 . S
C2262 C2256 1.504 . S
C2263 O2248 1.236 . S
C2263 O2249 1.257 . S
H2264 C2237 0.932 . S
H2265 C2238 0.930 . S
H2266 C2239 0.932 . S
H2267 C2240 0.929 . S
H2268 C2258 0.932 . S
H2269 C2259 0.930 . S
H2270 C2260 0.932 . S
H2271 C2261 0.929 . S
Tb2272 C2281 2.764 . S
Tb2272 O2282 2.325 . S
Tb2272 O2285 2.303 . S
Tb2272 O2289 2.322 . S
Tb2272 O2290 2.349 . S
Tb2272 O2293 2.415 . S
Tb2272 O2294 2.399 . S
Tb2273 O2283 2.322 1_545 S
Tb2273 O2284 2.349 . S
Tb2273 O2286 2.415 . S
Tb2273 O2287 2.399 . S
Tb2273 O2288 2.325 . S
Tb2273 O2291 2.303 . S
Tb2273 C2302 2.764 . S
C2274 O2290 1.261 1_655 S
C2274 O2291 1.257 1_655 S
C2275 C2278 1.358 . S
C2275 C2279 1.332 . S
C2275 C2281 1.504 . S
C2276 C2277 1.373 . S
C2276 C2280 1.308 . S
C2277 C2276 1.373 . S
C2277 C2278 1.429 . S
C2277 H2304 0.932 . S
C2278 C2275 1.358 . S
C2278 C2277 1.429 . S
C2278 H2305 0.930 . S
C2279 C2275 1.332 . S
C2279 C2280 1.394 . S
C2279 H2306 0.932 . S
C2280 C2276 1.308 . S
C2280 C2279 1.394 . S
C2280 H2307 0.929 . S
C2281 Tb2272 2.764 . S
C2281 C2275 1.504 . S
C2281 O2293 1.239 . S
C2281 O2294 1.263 . S
O2282 Tb2272 2.325 . S
O2282 C2292 1.236 1_545 S
O2283 Tb2273 2.322 1_565 S
O2283 C2292 1.257 . S
O2284 Tb2273 2.349 . S
O2284 C2295 1.261 . S
O2285 Tb2272 2.303 . S
O2285 C2295 1.257 . S
O2286 Tb2273 2.415 . S
O2286 C2302 1.239 . S
O2287 Tb2273 2.399 . S
O2287 C2302 1.263 . S
O2288 Tb2273 2.325 . S
O2288 C2303 1.236 . S
O2289 Tb2272 2.322 . S
O2289 C2303 1.257 . S
O2290 Tb2272 2.349 . S
O2290 C2274 1.261 1_455 S
O2291 Tb2273 2.303 . S
O2291 C2274 1.257 1_455 S
C2292 O2282 1.236 1_565 S
C2292 O2283 1.257 . S
O2293 Tb2272 2.415 . S
O2293 C2281 1.239 . S
O2294 Tb2272 2.399 . S
O2294 C2281 1.263 . S
C2295 O2284 1.261 . S
C2295 O2285 1.257 . S
C2296 C2299 1.358 . S
C2296 C2300 1.332 1_455 S
C2296 C2302 1.504 . S
C2297 C2298 1.373 . S
C2297 C2301 1.308 1_455 S
C2298 C2297 1.373 . S
C2298 C2299 1.429 . S
C2298 H2308 0.932 . S
C2299 C2296 1.358 . S
C2299 C2298 1.429 . S
C2299 H2309 0.930 . S
C2300 C2296 1.332 1_655 S
C2300 C2301 1.394 . S
C2300 H2310 0.932 . S
C2301 C2297 1.308 1_655 S
C2301 C2300 1.394 . S
C2301 H2311 0.929 . S
C2302 Tb2273 2.764 . S
C2302 O2286 1.239 . S
C2302 O2287 1.263 . S
C2302 C2296 1.504 . S
C2303 O2288 1.236 . S
C2303 O2289 1.257 . S
H2304 C2277 0.932 . S
H2305 C2278 0.930 . S
H2306 C2279 0.932 . S
H2307 C2280 0.929 . S
H2308 C2298 0.932 . S
H2309 C2299 0.930 . S
H2310 C2300 0.932 . S
H2311 C2301 0.929 . S
Tb2312 C2321 2.764 . S
Tb2312 O2322 2.325 . S
Tb2312 O2325 2.303 . S
Tb2312 O2329 2.322 . S
Tb2312 O2330 2.349 . S
Tb2312 O2333 2.415 . S
Tb2312 O2334 2.399 . S
Tb2313 O2323 2.322 . S
Tb2313 O2324 2.349 . S
Tb2313 O2326 2.415 . S
Tb2313 O2327 2.399 . S
Tb2313 O2328 2.325 . S
Tb2313 O2331 2.303 . S
Tb2313 C2342 2.764 . S
C2314 O2330 1.261 . S
C2314 O2331 1.257 . S
C2315 C2318 1.358 . S
C2315 C2319 1.332 . S
C2315 C2321 1.504 . S
C2316 C2317 1.373 . S
C2316 C2320 1.308 . S
C2317 C2316 1.373 . S
C2317 C2318 1.429 . S
C2317 H2344 0.932 . S
C2318 C2315 1.358 . S
C2318 C2317 1.429 . S
C2318 H2345 0.930 . S
C2319 C2315 1.332 . S
C2319 C2320 1.394 . S
C2319 H2346 0.932 . S
C2320 C2316 1.308 . S
C2320 C2319 1.394 . S
C2320 H2347 0.929 . S
C2321 Tb2312 2.764 . S
C2321 C2315 1.504 . S
C2321 O2333 1.239 . S
C2321 O2334 1.263 . S
O2322 Tb2312 2.325 . S
O2322 C2332 1.236 . S
O2323 Tb2313 2.322 . S
O2323 C2332 1.257 . S
O2324 Tb2313 2.349 . S
O2324 C2335 1.261 . S
O2325 Tb2312 2.303 . S
O2325 C2335 1.257 . S
O2326 Tb2313 2.415 . S
O2326 C2342 1.239 . S
O2327 Tb2313 2.399 . S
O2327 C2342 1.263 . S
O2328 Tb2313 2.325 . S
O2328 C2343 1.236 . S
O2329 Tb2312 2.322 . S
O2329 C2343 1.257 . S
O2330 Tb2312 2.349 . S
O2330 C2314 1.261 . S
O2331 Tb2313 2.303 . S
O2331 C2314 1.257 . S
C2332 O2322 1.236 . S
C2332 O2323 1.257 . S
O2333 Tb2312 2.415 . S
O2333 C2321 1.239 . S
O2334 Tb2312 2.399 . S
O2334 C2321 1.263 . S
C2335 O2324 1.261 . S
C2335 O2325 1.257 . S
C2336 C2339 1.358 . S
C2336 C2340 1.332 . S
C2336 C2342 1.504 . S
C2337 C2338 1.373 . S
C2337 C2341 1.308 . S
C2338 C2337 1.373 . S
C2338 C2339 1.429 . S
C2338 H2348 0.932 . S
C2339 C2336 1.358 . S
C2339 C2338 1.429 . S
C2339 H2349 0.930 . S
C2340 C2336 1.332 . S
C2340 C2341 1.394 . S
C2340 H2350 0.932 . S
C2341 C2337 1.308 . S
C2341 C2340 1.394 . S
C2341 H2351 0.929 . S
C2342 Tb2313 2.764 . S
C2342 O2326 1.239 . S
C2342 O2327 1.263 . S
C2342 C2336 1.504 . S
C2343 O2328 1.236 . S
C2343 O2329 1.257 . S
H2344 C2317 0.932 . S
H2345 C2318 0.930 . S
H2346 C2319 0.932 . S
H2347 C2320 0.929 . S
H2348 C2338 0.932 . S
H2349 C2339 0.930 . S
H2350 C2340 0.932 . S
H2351 C2341 0.929 . S
Tb2352 C2361 2.764 . S
Tb2352 O2362 2.325 . S
Tb2352 O2365 2.303 . S
Tb2352 O2369 2.322 1_545 S
Tb2352 O2370 2.349 . S
Tb2352 O2373 2.415 . S
Tb2352 O2374 2.399 . S
Tb2353 O2363 2.322 . S
Tb2353 O2364 2.347 . S
Tb2353 O2366 2.415 1_554 S
Tb2353 O2367 2.399 1_554 S
Tb2353 O2368 2.325 1_554 S
Tb2353 O2371 2.303 . S
Tb2353 C2382 2.764 1_554 S
C2354 O2370 1.261 . S
C2354 O2371 1.257 . S
C2355 C2358 1.358 . S
C2355 C2359 1.332 . S
C2355 C2361 1.504 . S
C2356 C2357 1.373 . S
C2356 C2360 1.308 . S
C2357 C2356 1.373 . S
C2357 C2358 1.429 . S
C2357 H2384 0.932 . S
C2358 C2355 1.358 . S
C2358 C2357 1.429 . S
C2358 H2385 0.930 . S
C2359 C2355 1.332 . S
C2359 C2360 1.394 . S
C2359 H2386 0.932 . S
C2360 C2356 1.308 . S
C2360 C2359 1.394 . S
C2360 H2387 0.929 . S
C2361 Tb2352 2.764 . S
C2361 C2355 1.504 . S
C2361 O2373 1.239 . S
C2361 O2374 1.263 . S
O2362 Tb2352 2.325 . S
O2362 C2372 1.236 . S
O2363 Tb2353 2.322 . S
O2363 C2372 1.257 . S
O2364 Tb2353 2.347 . S
O2364 C2375 1.287 . S
O2365 Tb2352 2.303 . S
O2365 C2375 1.257 . S
O2366 Tb2353 2.415 1_556 S
O2366 C2382 1.239 . S
O2367 Tb2353 2.399 1_556 S
O2367 C2382 1.263 . S
O2368 Tb2353 2.325 1_556 S
O2368 C2383 1.236 1_546 S
O2369 Tb2352 2.322 1_565 S
O2369 C2383 1.257 . S
O2370 Tb2352 2.349 . S
O2370 C2354 1.261 . S
O2371 Tb2353 2.303 . S
O2371 C2354 1.257 . S
C2372 O2362 1.236 . S
C2372 O2363 1.257 . S
O2373 Tb2352 2.415 . S
O2373 C2361 1.239 . S
O2374 Tb2352 2.399 . S
O2374 C2361 1.263 . S
C2375 O2364 1.287 . S
C2375 O2365 1.257 . S
C2376 C2379 1.358 . S
C2376 C2380 1.332 . S
C2376 C2382 1.504 . S
C2377 C2378 1.373 . S
C2377 C2381 1.308 . S
C2378 C2377 1.373 . S
C2378 C2379 1.429 . S
C2378 H2388 0.932 . S
C2379 C2376 1.358 . S
C2379 C2378 1.429 . S
C2379 H2389 0.930 . S
C2380 C2376 1.332 . S
C2380 C2381 1.394 . S
C2380 H2390 0.932 . S
C2381 C2377 1.308 . S
C2381 C2380 1.394 . S
C2381 H2391 0.929 . S
C2382 Tb2353 2.764 1_556 S
C2382 O2366 1.239 . S
C2382 O2367 1.263 . S
C2382 C2376 1.504 . S
C2383 O2368 1.236 1_564 S
C2383 O2369 1.257 . S
H2384 C2357 0.932 . S
H2385 C2358 0.930 . S
H2386 C2359 0.932 . S
H2387 C2360 0.929 . S
H2388 C2378 0.932 . S
H2389 C2379 0.930 . S
H2390 C2380 0.932 . S
H2391 C2381 0.929 . S
Tb2392 C2401 2.764 . S
Tb2392 O2402 2.325 . S
Tb2392 O2405 2.303 . S
Tb2392 O2409 2.322 . S
Tb2392 O2410 2.349 . S
Tb2392 O2413 2.415 . S
Tb2392 O2414 2.399 . S
Tb2393 O2403 2.322 . S
Tb2393 O2404 2.349 . S
Tb2393 O2406 2.415 . S
Tb2393 O2407 2.399 . S
Tb2393 O2408 2.325 . S
Tb2393 O2411 2.303 . S
Tb2393 C2422 2.764 . S
C2394 O2410 1.261 . S
C2394 O2411 1.257 . S
C2395 C2398 1.358 . S
C2395 C2399 1.332 . S
C2395 C2401 1.504 . S
C2396 C2397 1.373 . S
C2396 C2400 1.308 . S
C2397 C2396 1.373 . S
C2397 C2398 1.429 . S
C2397 H2424 0.932 . S
C2398 C2395 1.358 . S
C2398 C2397 1.429 . S
C2398 H2425 0.930 . S
C2399 C2395 1.332 . S
C2399 C2400 1.394 . S
C2399 H2426 0.932 . S
C2400 C2396 1.308 . S
C2400 C2399 1.394 . S
C2400 H2427 0.929 . S
C2401 Tb2392 2.764 . S
C2401 C2395 1.504 . S
C2401 O2413 1.239 . S
C2401 O2414 1.263 . S
O2402 Tb2392 2.325 . S
O2402 C2412 1.236 . S
O2403 Tb2393 2.322 . S
O2403 C2412 1.257 . S
O2404 Tb2393 2.349 . S
O2404 C2415 1.261 . S
O2405 Tb2392 2.303 . S
O2405 C2415 1.257 . S
O2406 Tb2393 2.415 . S
O2406 C2422 1.239 . S
O2407 Tb2393 2.399 . S
O2407 C2422 1.263 . S
O2408 Tb2393 2.325 . S
O2408 C2423 1.236 . S
O2409 Tb2392 2.322 . S
O2409 C2423 1.257 . S
O2410 Tb2392 2.349 . S
O2410 C2394 1.261 . S
O2411 Tb2393 2.303 . S
O2411 C2394 1.257 . S
C2412 O2402 1.236 . S
C2412 O2403 1.257 . S
O2413 Tb2392 2.415 . S
O2413 C2401 1.239 . S
O2414 Tb2392 2.399 . S
O2414 C2401 1.263 . S
C2415 O2404 1.261 . S
C2415 O2405 1.257 . S
C2416 C2419 1.358 . S
C2416 C2420 1.332 . S
C2416 C2422 1.504 . S
C2417 C2418 1.373 . S
C2417 C2421 1.308 . S
C2418 C2417 1.373 . S
C2418 C2419 1.429 . S
C2418 H2428 0.932 . S
C2419 C2416 1.358 . S
C2419 C2418 1.429 . S
C2419 H2429 0.930 . S
C2420 C2416 1.332 . S
C2420 C2421 1.394 . S
C2420 H2430 0.932 . S
C2421 C2417 1.308 . S
C2421 C2420 1.394 . S
C2421 H2431 0.929 . S
C2422 Tb2393 2.764 . S
C2422 O2406 1.239 . S
C2422 O2407 1.263 . S
C2422 C2416 1.504 . S
C2423 O2408 1.236 . S
C2423 O2409 1.257 . S
H2424 C2397 0.932 . S
H2425 C2398 0.930 . S
H2426 C2399 0.932 . S
H2427 C2400 0.929 . S
H2428 C2418 0.932 . S
H2429 C2419 0.930 . S
H2430 C2420 0.932 . S
H2431 C2421 0.929 . S
Tb2432 C2441 2.764 . S
Tb2432 O2442 2.325 . S
Tb2432 O2445 2.303 . S
Tb2432 O2449 2.322 . S
Tb2432 O2450 2.349 . S
Tb2432 O2453 2.415 . S
Tb2432 O2454 2.399 . S
Tb2433 O2443 2.333 . S
Tb2433 O2444 2.350 . S
Tb2433 O2446 2.406 1_554 S
Tb2433 O2447 2.386 1_554 S
Tb2433 O2448 2.322 1_554 S
Tb2433 O2451 2.312 . S
Tb2433 C2462 2.752 1_554 S
C2434 O2450 1.261 . S
C2434 O2451 1.257 . S
C2435 C2438 1.358 . S
C2435 C2439 1.332 . S
C2435 C2441 1.504 . S
C2436 C2437 1.373 . S
C2436 C2440 1.308 . S
C2437 C2436 1.373 . S
C2437 C2438 1.429 . S
C2437 H2464 0.932 . S
C2438 C2435 1.358 . S
C2438 C2437 1.429 . S
C2438 H2465 0.930 . S
C2439 C2435 1.332 . S
C2439 C2440 1.394 . S
C2439 H2466 0.932 . S
C2440 C2436 1.308 . S
C2440 C2439 1.394 . S
C2440 H2467 0.929 . S
C2441 Tb2432 2.764 . S
C2441 C2435 1.504 . S
C2441 O2453 1.239 . S
C2441 O2454 1.263 . S
O2442 Tb2432 2.325 . S
O2442 C2452 1.236 . S
O2443 Tb2433 2.333 . S
O2443 C2452 1.257 . S
O2444 Tb2433 2.350 . S
O2444 C2455 1.261 . S
O2445 Tb2432 2.303 . S
O2445 C2455 1.257 . S
O2446 Tb2433 2.406 1_556 S
O2446 C2462 1.239 . S
O2447 Tb2433 2.386 1_556 S
O2447 C2462 1.263 . S
O2448 Tb2433 2.322 1_556 S
O2448 C2463 1.224 1_556 S
O2449 Tb2432 2.322 . S
O2449 C2463 1.257 . S
O2450 Tb2432 2.349 . S
O2450 C2434 1.261 . S
O2451 Tb2433 2.312 . S
O2451 C2434 1.257 . S
C2452 O2442 1.236 . S
C2452 O2443 1.257 . S
O2453 Tb2432 2.415 . S
O2453 C2441 1.239 . S
O2454 Tb2432 2.399 . S
O2454 C2441 1.263 . S
C2455 O2444 1.261 . S
C2455 O2445 1.257 . S
C2456 C2459 1.358 . S
C2456 C2460 1.332 . S
C2456 C2462 1.504 . S
C2457 C2458 1.373 . S
C2457 C2461 1.308 . S
C2458 C2457 1.373 . S
C2458 C2459 1.429 . S
C2458 H2468 0.932 . S
C2459 C2456 1.358 . S
C2459 C2458 1.429 . S
C2459 H2469 0.930 . S
C2460 C2456 1.332 . S
C2460 C2461 1.394 . S
C2460 H2470 0.932 . S
C2461 C2457 1.308 . S
C2461 C2460 1.394 . S
C2461 H2471 0.929 . S
C2462 Tb2433 2.752 1_556 S
C2462 O2446 1.239 . S
C2462 O2447 1.263 . S
C2462 C2456 1.504 . S
C2463 O2448 1.224 1_554 S
C2463 O2449 1.257 . S
H2464 C2437 0.932 . S
H2465 C2438 0.930 . S
H2466 C2439 0.932 . S
H2467 C2440 0.929 . S
H2468 C2458 0.932 . S
H2469 C2459 0.930 . S
H2470 C2460 0.932 . S
H2471 C2461 0.929 . S
Tb2472 C2481 2.764 . S
Tb2472 O2482 2.325 . S
Tb2472 O2485 2.303 . S
Tb2472 O2489 2.322 . S
Tb2472 O2490 2.349 . S
Tb2472 O2493 2.415 . S
Tb2472 O2494 2.399 . S
Tb2473 O2483 2.322 . S
Tb2473 O2484 2.349 . S
Tb2473 O2486 2.415 . S
Tb2473 O2487 2.399 . S
Tb2473 O2488 2.325 . S
Tb2473 O2491 2.303 . S
Tb2473 C2502 2.764 . S
C2474 O2490 1.261 . S
C2474 O2491 1.257 . S
C2475 C2478 1.358 . S
C2475 C2479 1.332 . S
C2475 C2481 1.504 . S
C2476 C2477 1.373 . S
C2476 C2480 1.308 . S
C2477 C2476 1.373 . S
C2477 C2478 1.429 . S
C2477 H2504 0.932 . S
C2478 C2475 1.358 . S
C2478 C2477 1.429 . S
C2478 H2505 0.930 . S
C2479 C2475 1.332 . S
C2479 C2480 1.394 . S
C2479 H2506 0.932 . S
C2480 C2476 1.308 . S
C2480 C2479 1.394 . S
C2480 H2507 0.929 . S
C2481 Tb2472 2.764 . S
C2481 C2475 1.504 . S
C2481 O2493 1.239 . S
C2481 O2494 1.263 . S
O2482 Tb2472 2.325 . S
O2482 C2492 1.236 . S
O2483 Tb2473 2.322 . S
O2483 C2492 1.257 . S
O2484 Tb2473 2.349 . S
O2484 C2495 1.261 . S
O2485 Tb2472 2.303 . S
O2485 C2495 1.257 . S
O2486 Tb2473 2.415 . S
O2486 C2502 1.239 . S
O2487 Tb2473 2.399 . S
O2487 C2502 1.263 . S
O2488 Tb2473 2.325 . S
O2488 C2503 1.236 . S
O2489 Tb2472 2.322 . S
O2489 C2503 1.257 . S
O2490 Tb2472 2.349 . S
O2490 C2474 1.261 . S
O2491 Tb2473 2.303 . S
O2491 C2474 1.257 . S
C2492 O2482 1.236 . S
C2492 O2483 1.257 . S
O2493 Tb2472 2.415 . S
O2493 C2481 1.239 . S
O2494 Tb2472 2.399 . S
O2494 C2481 1.263 . S
C2495 O2484 1.261 . S
C2495 O2485 1.257 . S
C2496 C2499 1.358 . S
C2496 C2500 1.332 . S
C2496 C2502 1.504 . S
C2497 C2498 1.373 . S
C2497 C2501 1.308 . S
C2498 C2497 1.373 . S
C2498 C2499 1.429 . S
C2498 H2508 0.932 . S
C2499 C2496 1.358 . S
C2499 C2498 1.429 . S
C2499 H2509 0.930 . S
C2500 C2496 1.332 . S
C2500 C2501 1.394 . S
C2500 H2510 0.932 . S
C2501 C2497 1.308 . S
C2501 C2500 1.394 . S
C2501 H2511 0.929 . S
C2502 Tb2473 2.764 . S
C2502 O2486 1.239 . S
C2502 O2487 1.263 . S
C2502 C2496 1.504 . S
C2503 O2488 1.236 . S
C2503 O2489 1.257 . S
H2504 C2477 0.932 . S
H2505 C2478 0.930 . S
H2506 C2479 0.932 . S
H2507 C2480 0.929 . S
H2508 C2498 0.932 . S
H2509 C2499 0.930 . S
H2510 C2500 0.932 . S
H2511 C2501 0.929 . S
Tb2512 C2521 2.764 . S
Tb2512 O2522 2.325 . S
Tb2512 O2525 2.303 . S
Tb2512 O2529 2.322 . S
Tb2512 O2530 2.349 . S
Tb2512 O2533 2.415 . S
Tb2512 O2534 2.399 . S
Tb2513 O2523 2.322 . S
Tb2513 O2524 2.349 . S
Tb2513 O2526 2.415 . S
Tb2513 O2527 2.399 . S
Tb2513 O2528 2.325 . S
Tb2513 O2531 2.303 . S
Tb2513 C2542 2.764 . S
C2514 O2530 1.261 . S
C2514 O2531 1.257 . S
C2515 C2518 1.358 . S
C2515 C2519 1.332 . S
C2515 C2521 1.504 . S
C2516 C2517 1.373 . S
C2516 C2520 1.308 1_455 S
C2517 C2516 1.373 . S
C2517 C2518 1.429 . S
C2517 H2544 0.932 . S
C2518 C2515 1.358 . S
C2518 C2517 1.429 . S
C2518 H2545 0.930 . S
C2519 C2515 1.332 . S
C2519 C2520 1.394 1_455 S
C2519 H2546 0.932 1_455 S
C2520 C2516 1.308 1_655 S
C2520 C2519 1.394 1_655 S
C2520 H2547 0.929 . S
C2521 Tb2512 2.764 . S
C2521 C2515 1.504 . S
C2521 O2533 1.239 . S
C2521 O2534 1.263 . S
O2522 Tb2512 2.325 . S
O2522 C2532 1.236 . S
O2523 Tb2513 2.322 . S
O2523 C2532 1.257 . S
O2524 Tb2513 2.349 . S
O2524 C2535 1.261 1_455 S
O2525 Tb2512 2.303 . S
O2525 C2535 1.257 1_455 S
O2526 Tb2513 2.415 . S
O2526 C2542 1.239 . S
O2527 Tb2513 2.399 . S
O2527 C2542 1.263 . S
O2528 Tb2513 2.325 . S
O2528 C2543 1.236 . S
O2529 Tb2512 2.322 . S
O2529 C2543 1.257 . S
O2530 Tb2512 2.349 . S
O2530 C2514 1.261 . S
O2531 Tb2513 2.303 . S
O2531 C2514 1.257 . S
C2532 O2522 1.236 . S
C2532 O2523 1.257 . S
O2533 Tb2512 2.415 . S
O2533 C2521 1.239 . S
O2534 Tb2512 2.399 . S
O2534 C2521 1.263 . S
C2535 O2524 1.261 1_655 S
C2535 O2525 1.257 1_655 S
C2536 C2539 1.358 . S
C2536 C2540 1.332 . S
C2536 C2542 1.504 . S
C2537 C2538 1.373 . S
C2537 C2541 1.308 . S
C2538 C2537 1.373 . S
C2538 C2539 1.429 . S
C2538 H2548 0.932 . S
C2539 C2536 1.358 . S
C2539 C2538 1.429 . S
C2539 H2549 0.930 . S
C2540 C2536 1.332 . S
C2540 C2541 1.394 . S
C2540 H2550 0.932 . S
C2541 C2537 1.308 . S
C2541 C2540 1.394 . S
C2541 H2551 0.929 . S
C2542 Tb2513 2.764 . S
C2542 O2526 1.239 . S
C2542 O2527 1.263 . S
C2542 C2536 1.504 . S
C2543 O2528 1.236 . S
C2543 O2529 1.257 . S
H2544 C2517 0.932 . S
H2545 C2518 0.930 . S
H2546 C2519 0.932 1_655 S
H2547 C2520 0.929 . S
H2548 C2538 0.932 . S
H2549 C2539 0.930 . S
H2550 C2540 0.932 . S
H2551 C2541 0.929 . S
Tb2552 C2561 2.764 . S
Tb2552 O2562 2.325 . S
Tb2552 O2565 2.303 . S
Tb2552 O2569 2.322 . S
Tb2552 O2570 2.349 . S
Tb2552 O2573 2.415 . S
Tb2552 O2574 2.399 . S
Tb2553 O2563 2.322 . S
Tb2553 O2564 2.349 . S
Tb2553 O2566 2.415 . S
Tb2553 O2567 2.399 . S
Tb2553 O2568 2.325 . S
Tb2553 O2571 2.303 . S
Tb2553 C2582 2.764 . S
C2554 O2570 1.261 . S
C2554 O2571 1.257 . S
C2555 C2558 1.358 . S
C2555 C2559 1.332 . S
C2555 C2561 1.504 . S
C2556 C2557 1.373 . S
C2556 C2560 1.308 . S
C2557 C2556 1.373 . S
C2557 C2558 1.429 . S
C2557 H2584 0.932 . S
C2558 C2555 1.358 . S
C2558 C2557 1.429 . S
C2558 H2585 0.930 . S
C2559 C2555 1.332 . S
C2559 C2560 1.394 . S
C2559 H2586 0.932 . S
C2560 C2556 1.308 . S
C2560 C2559 1.394 . S
C2560 H2587 0.929 . S
C2561 Tb2552 2.764 . S
C2561 C2555 1.504 . S
C2561 O2573 1.239 . S
C2561 O2574 1.263 . S
O2562 Tb2552 2.325 . S
O2562 C2572 1.236 . S
O2563 Tb2553 2.322 . S
O2563 C2572 1.257 . S
O2564 Tb2553 2.349 . S
O2564 C2575 1.261 . S
O2565 Tb2552 2.303 . S
O2565 C2575 1.257 . S
O2566 Tb2553 2.415 . S
O2566 C2582 1.239 . S
O2567 Tb2553 2.399 . S
O2567 C2582 1.263 . S
O2568 Tb2553 2.325 . S
O2568 C2583 1.236 . S
O2569 Tb2552 2.322 . S
O2569 C2583 1.257 . S
O2570 Tb2552 2.349 . S
O2570 C2554 1.261 . S
O2571 Tb2553 2.303 . S
O2571 C2554 1.257 . S
C2572 O2562 1.236 . S
C2572 O2563 1.257 . S
O2573 Tb2552 2.415 . S
O2573 C2561 1.239 . S
O2574 Tb2552 2.399 . S
O2574 C2561 1.263 . S
C2575 O2564 1.261 . S
C2575 O2565 1.257 . S
C2576 C2579 1.358 . S
C2576 C2580 1.332 . S
C2576 C2582 1.504 . S
C2577 C2578 1.373 . S
C2577 C2581 1.308 . S
C2578 C2577 1.373 . S
C2578 C2579 1.429 . S
C2578 H2588 0.932 . S
C2579 C2576 1.358 . S
C2579 C2578 1.429 . S
C2579 H2589 0.930 . S
C2580 C2576 1.332 . S
C2580 C2581 1.394 . S
C2580 H2590 0.932 . S
C2581 C2577 1.308 . S
C2581 C2580 1.394 . S
C2581 H2591 0.929 . S
C2582 Tb2553 2.764 . S
C2582 O2566 1.239 . S
C2582 O2567 1.263 . S
C2582 C2576 1.504 . S
C2583 O2568 1.236 . S
C2583 O2569 1.257 . S
H2584 C2557 0.932 . S
H2585 C2558 0.930 . S
H2586 C2559 0.932 . S
H2587 C2560 0.929 . S
H2588 C2578 0.932 . S
H2589 C2579 0.930 . S
H2590 C2580 0.932 . S
H2591 C2581 0.929 . S
Tb2592 C2601 2.764 . S
Tb2592 O2602 2.325 . S
Tb2592 O2605 2.303 . S
Tb2592 O2609 2.322 . S
Tb2592 O2610 2.349 . S
Tb2592 O2613 2.415 . S
Tb2592 O2614 2.399 . S
Tb2593 O2603 2.322 . S
Tb2593 O2604 2.349 . S
Tb2593 O2606 2.415 . S
Tb2593 O2607 2.399 . S
Tb2593 O2608 2.325 . S
Tb2593 O2611 2.303 . S
Tb2593 C2622 2.764 . S
C2594 O2610 1.261 . S
C2594 O2611 1.257 . S
C2595 C2598 1.358 . S
C2595 C2599 1.332 . S
C2595 C2601 1.504 . S
C2596 C2597 1.373 . S
C2596 C2600 1.308 . S
C2597 C2596 1.373 . S
C2597 C2598 1.429 . S
C2597 H2624 0.932 . S
C2598 C2595 1.358 . S
C2598 C2597 1.429 . S
C2598 H2625 0.930 . S
C2599 C2595 1.332 . S
C2599 C2600 1.394 . S
C2599 H2626 0.932 . S
C2600 C2596 1.308 . S
C2600 C2599 1.394 . S
C2600 H2627 0.929 . S
C2601 Tb2592 2.764 . S
C2601 C2595 1.504 . S
C2601 O2613 1.239 . S
C2601 O2614 1.263 . S
O2602 Tb2592 2.325 . S
O2602 C2612 1.236 . S
O2603 Tb2593 2.322 . S
O2603 C2612 1.257 . S
O2604 Tb2593 2.349 . S
O2604 C2615 1.261 . S
O2605 Tb2592 2.303 . S
O2605 C2615 1.257 . S
O2606 Tb2593 2.415 . S
O2606 C2622 1.239 . S
O2607 Tb2593 2.399 . S
O2607 C2622 1.263 . S
O2608 Tb2593 2.325 . S
O2608 C2623 1.236 . S
O2609 Tb2592 2.322 . S
O2609 C2623 1.257 . S
O2610 Tb2592 2.349 . S
O2610 C2594 1.261 . S
O2611 Tb2593 2.303 . S
O2611 C2594 1.257 . S
C2612 O2602 1.236 . S
C2612 O2603 1.257 . S
O2613 Tb2592 2.415 . S
O2613 C2601 1.239 . S
O2614 Tb2592 2.399 . S
O2614 C2601 1.263 . S
C2615 O2604 1.261 . S
C2615 O2605 1.257 . S
C2616 C2619 1.358 . S
C2616 C2620 1.332 . S
C2616 C2622 1.504 . S
C2617 C2618 1.373 . S
C2617 C2621 1.308 . S
C2618 C2617 1.373 . S
C2618 C2619 1.429 . S
C2618 H2628 0.932 . S
C2619 C2616 1.358 . S
C2619 C2618 1.429 . S
C2619 H2629 0.930 . S
C2620 C2616 1.332 . S
C2620 C2621 1.394 . S
C2620 H2630 0.932 . S
C2621 C2617 1.308 . S
C2621 C2620 1.394 . S
C2621 H2631 0.929 . S
C2622 Tb2593 2.764 . S
C2622 O2606 1.239 . S
C2622 O2607 1.263 . S
C2622 C2616 1.504 . S
C2623 O2608 1.236 . S
C2623 O2609 1.257 . S
H2624 C2597 0.932 . S
H2625 C2598 0.930 . S
H2626 C2599 0.932 . S
H2627 C2600 0.929 . S
H2628 C2618 0.932 . S
H2629 C2619 0.930 . S
H2630 C2620 0.932 . S
H2631 C2621 0.929 . S
Tb2632 C2641 2.764 . S
Tb2632 O2642 2.325 . S
Tb2632 O2645 2.303 . S
Tb2632 O2649 2.322 . S
Tb2632 O2650 2.349 . S
Tb2632 O2653 2.415 . S
Tb2632 O2654 2.399 . S
Tb2633 O2643 2.322 . S
Tb2633 O2644 2.349 . S
Tb2633 O2646 2.415 . S
Tb2633 O2647 2.399 . S
Tb2633 O2648 2.325 . S
Tb2633 O2651 2.303 . S
Tb2633 C2662 2.764 . S
C2634 O2650 1.261 . S
C2634 O2651 1.257 . S
C2635 C2638 1.358 . S
C2635 C2639 1.332 . S
C2635 C2641 1.504 . S
C2636 C2637 1.373 . S
C2636 C2640 1.308 . S
C2637 C2636 1.373 . S
C2637 C2638 1.429 . S
C2637 H2664 0.932 . S
C2638 C2635 1.358 . S
C2638 C2637 1.429 . S
C2638 H2665 0.930 . S
C2639 C2635 1.332 . S
C2639 C2640 1.394 . S
C2639 H2666 0.932 . S
C2640 C2636 1.308 . S
C2640 C2639 1.394 . S
C2640 H2667 0.929 . S
C2641 Tb2632 2.764 . S
C2641 C2635 1.504 . S
C2641 O2653 1.239 . S
C2641 O2654 1.263 . S
O2642 Tb2632 2.325 . S
O2642 C2652 1.236 . S
O2643 Tb2633 2.322 . S
O2643 C2652 1.257 . S
O2644 Tb2633 2.349 . S
O2644 C2655 1.261 . S
O2645 Tb2632 2.303 . S
O2645 C2655 1.257 . S
O2646 Tb2633 2.415 . S
O2646 C2662 1.239 . S
O2647 Tb2633 2.399 . S
O2647 C2662 1.263 . S
O2648 Tb2633 2.325 . S
O2648 C2663 1.236 . S
O2649 Tb2632 2.322 . S
O2649 C2663 1.257 . S
O2650 Tb2632 2.349 . S
O2650 C2634 1.261 . S
O2651 Tb2633 2.303 . S
O2651 C2634 1.257 . S
C2652 O2642 1.236 . S
C2652 O2643 1.257 . S
O2653 Tb2632 2.415 . S
O2653 C2641 1.239 . S
O2654 Tb2632 2.399 . S
O2654 C2641 1.263 . S
C2655 O2644 1.261 . S
C2655 O2645 1.257 . S
C2656 C2659 1.358 . S
C2656 C2660 1.332 . S
C2656 C2662 1.504 . S
C2657 C2658 1.373 . S
C2657 C2661 1.308 . S
C2658 C2657 1.373 . S
C2658 C2659 1.429 . S
C2658 H2668 0.932 . S
C2659 C2656 1.358 . S
C2659 C2658 1.429 . S
C2659 H2669 0.930 . S
C2660 C2656 1.332 . S
C2660 C2661 1.394 . S
C2660 H2670 0.932 . S
C2661 C2657 1.308 . S
C2661 C2660 1.394 . S
C2661 H2671 0.929 . S
C2662 Tb2633 2.764 . S
C2662 O2646 1.239 . S
C2662 O2647 1.263 . S
C2662 C2656 1.504 . S
C2663 O2648 1.236 . S
C2663 O2649 1.257 . S
H2664 C2637 0.932 . S
H2665 C2638 0.930 . S
H2666 C2639 0.932 . S
H2667 C2640 0.929 . S
H2668 C2658 0.932 . S
H2669 C2659 0.930 . S
H2670 C2660 0.932 . S
H2671 C2661 0.929 . S
Tb2672 C2681 2.764 . S
Tb2672 O2682 2.325 . S
Tb2672 O2685 2.303 . S
Tb2672 O2689 2.322 . S
Tb2672 O2690 2.349 . S
Tb2672 O2693 2.415 . S
Tb2672 O2694 2.399 . S
Tb2673 O2683 2.322 . S
Tb2673 O2684 2.349 . S
Tb2673 O2686 2.415 . S
Tb2673 O2687 2.399 . S
Tb2673 O2688 2.325 . S
Tb2673 O2691 2.303 . S
Tb2673 C2702 2.764 . S
C2674 O2690 1.261 . S
C2674 O2691 1.257 . S
C2675 C2678 1.358 . S
C2675 C2679 1.332 . S
C2675 C2681 1.504 . S
C2676 C2677 1.373 . S
C2676 C2680 1.308 . S
C2677 C2676 1.373 . S
C2677 C2678 1.429 . S
C2677 H2704 0.932 . S
C2678 C2675 1.358 . S
C2678 C2677 1.429 . S
C2678 H2705 0.930 . S
C2679 C2675 1.332 . S
C2679 C2680 1.394 . S
C2679 H2706 0.932 . S
C2680 C2676 1.308 . S
C2680 C2679 1.394 . S
C2680 H2707 0.929 . S
C2681 Tb2672 2.764 . S
C2681 C2675 1.504 . S
C2681 O2693 1.239 . S
C2681 O2694 1.263 . S
O2682 Tb2672 2.325 . S
O2682 C2692 1.236 . S
O2683 Tb2673 2.322 . S
O2683 C2692 1.257 . S
O2684 Tb2673 2.349 . S
O2684 C2695 1.261 . S
O2685 Tb2672 2.303 . S
O2685 C2695 1.257 . S
O2686 Tb2673 2.415 . S
O2686 C2702 1.239 . S
O2687 Tb2673 2.399 . S
O2687 C2702 1.263 . S
O2688 Tb2673 2.325 . S
O2688 C2703 1.236 . S
O2689 Tb2672 2.322 . S
O2689 C2703 1.257 . S
O2690 Tb2672 2.349 . S
O2690 C2674 1.261 . S
O2691 Tb2673 2.303 . S
O2691 C2674 1.257 . S
C2692 O2682 1.236 . S
C2692 O2683 1.257 . S
O2693 Tb2672 2.415 . S
O2693 C2681 1.239 . S
O2694 Tb2672 2.399 . S
O2694 C2681 1.263 . S
C2695 O2684 1.261 . S
C2695 O2685 1.257 . S
C2696 C2699 1.358 . S
C2696 C2700 1.332 . S
C2696 C2702 1.504 . S
C2697 C2698 1.373 . S
C2697 C2701 1.308 . S
C2698 C2697 1.373 . S
C2698 C2699 1.429 . S
C2698 H2708 0.932 . S
C2699 C2696 1.358 . S
C2699 C2698 1.429 . S
C2699 H2709 0.930 . S
C2700 C2696 1.332 . S
C2700 C2701 1.394 . S
C2700 H2710 0.932 . S
C2701 C2697 1.308 . S
C2701 C2700 1.394 . S
C2701 H2711 0.929 . S
C2702 Tb2673 2.764 . S
C2702 O2686 1.239 . S
C2702 O2687 1.263 . S
C2702 C2696 1.504 . S
C2703 O2688 1.236 . S
C2703 O2689 1.257 . S
H2704 C2677 0.932 . S
H2705 C2678 0.930 . S
H2706 C2679 0.932 . S
H2707 C2680 0.929 . S
H2708 C2698 0.932 . S
H2709 C2699 0.930 . S
H2710 C2700 0.932 . S
H2711 C2701 0.929 . S
Tb2712 C2721 2.764 1_455 S
Tb2712 O2722 2.325 . S
Tb2712 O2725 2.303 . S
Tb2712 O2729 2.322 . S
Tb2712 O2730 2.349 . S
Tb2712 O2733 2.415 1_455 S
Tb2712 O2734 2.399 1_455 S
Tb2713 O2723 2.322 . S
Tb2713 O2724 2.349 1_554 S
Tb2713 O2726 2.415 . S
Tb2713 O2727 2.399 1_554 S
Tb2713 O2728 2.325 . S
Tb2713 O2731 2.303 . S
Tb2713 C2742 2.764 . S
C2714 O2730 1.261 . S
C2714 O2731 1.257 . S
C2715 C2718 1.358 . S
C2715 C2719 1.332 . S
C2715 C2721 1.504 . S
C2716 C2717 1.373 . S
C2716 C2720 1.308 . S
C2717 C2716 1.373 . S
C2717 C2718 1.429 . S
C2717 H2744 0.932 . S
C2718 C2715 1.358 . S
C2718 C2717 1.429 . S
C2718 H2745 0.930 . S
C2719 C2715 1.332 . S
C2719 C2720 1.394 . S
C2719 H2746 0.932 . S
C2720 C2716 1.308 . S
C2720 C2719 1.394 . S
C2720 H2747 0.929 . S
C2721 Tb2712 2.764 1_655 S
C2721 C2715 1.504 . S
C2721 O2733 1.239 . S
C2721 O2734 1.263 . S
O2722 Tb2712 2.325 . S
O2722 C2732 1.236 . S
O2723 Tb2713 2.322 . S
O2723 C2732 1.257 . S
O2724 Tb2713 2.349 1_556 S
O2724 C2735 1.261 . S
O2725 Tb2712 2.303 . S
O2725 C2735 1.257 1_554 S
O2726 Tb2713 2.415 . S
O2726 C2742 1.239 . S
O2727 Tb2713 2.399 1_556 S
O2727 C2742 1.263 1_556 S
O2728 Tb2713 2.325 . S
O2728 C2743 1.236 . S
O2729 Tb2712 2.322 . S
O2729 C2743 1.257 . S
O2730 Tb2712 2.349 . S
O2730 C2714 1.261 . S
O2731 Tb2713 2.303 . S
O2731 C2714 1.257 . S
C2732 O2722 1.236 . S
C2732 O2723 1.257 . S
O2733 Tb2712 2.415 1_655 S
O2733 C2721 1.239 . S
O2734 Tb2712 2.399 1_655 S
O2734 C2721 1.263 . S
C2735 O2724 1.261 . S
C2735 O2725 1.257 1_556 S
C2736 C2739 1.358 1_554 S
C2736 C2740 1.332 . S
C2736 C2742 1.504 . S
C2737 C2738 1.373 1_554 S
C2737 C2741 1.308 . S
C2738 C2737 1.373 1_556 S
C2738 C2739 1.429 . S
C2738 H2748 0.932 . S
C2739 C2736 1.358 1_556 S
C2739 C2738 1.429 . S
C2739 H2749 0.930 . S
C2740 C2736 1.332 . S
C2740 C2741 1.394 . S
C2740 H2750 0.932 . S
C2741 C2737 1.308 . S
C2741 C2740 1.394 . S
C2741 H2751 0.929 . S
C2742 Tb2713 2.764 . S
C2742 O2726 1.239 . S
C2742 O2727 1.263 1_554 S
C2742 C2736 1.504 . S
C2743 O2728 1.236 . S
C2743 O2729 1.257 . S
H2744 C2717 0.932 . S
H2745 C2718 0.930 . S
H2746 C2719 0.932 . S
H2747 C2720 0.929 . S
H2748 C2738 0.932 . S
H2749 C2739 0.930 . S
H2750 C2740 0.932 . S
H2751 C2741 0.929 . S
H2752 C2758 0.930 . S
H2753 C2761 0.930 . S
H2754 C2762 0.930 . S
H2755 C2763 0.930 1_655 S
H2756 C2766 0.930 . S
H2757 C2767 0.930 1_556 S
C2758 H2752 0.930 . S
C2758 C2759 1.355 1_455 S
C2758 C2760 1.415 1_556 S
C2759 C2758 1.355 1_655 S
C2759 C2761 1.395 1_556 S
C2760 C2758 1.415 1_554 S
C2760 C2765 1.425 . S
C2760 C2767 1.409 . S
C2761 H2753 0.930 . S
C2761 C2759 1.395 1_554 S
C2761 C2762 1.385 . S
C2762 H2754 0.930 . S
C2762 C2761 1.385 . S
C2762 C2765 1.409 1_655 S
C2763 H2755 0.930 1_455 S
C2763 C2764 1.355 . S
C2763 C2765 1.415 . S
C2764 C2763 1.355 . S
C2764 C2766 1.419 . S
C2765 C2760 1.425 . S
C2765 C2762 1.409 1_455 S
C2765 C2763 1.415 . S
C2766 H2756 0.930 . S
C2766 C2764 1.419 . S
C2766 C2767 1.362 . S
C2767 H2757 0.930 1_554 S
C2767 C2760 1.409 . S
C2767 C2766 1.362 . S
H2768 C2774 0.930 . S
H2769 C2777 0.930 . S
H2770 C2778 0.930 . S
H2771 C2779 0.930 . S
H2772 C2782 0.930 . S
H2773 C2783 0.930 . S
C2774 H2768 0.930 . S
C2774 C2775 1.355 . S
C2774 C2776 1.415 . S
C2775 C2774 1.355 . S
C2775 C2777 1.419 . S
C2776 C2774 1.415 . S
C2776 C2781 1.425 . S
C2776 C2783 1.409 . S
C2777 H2769 0.930 . S
C2777 C2775 1.419 . S
C2777 C2778 1.362 . S
C2778 H2770 0.930 . S
C2778 C2777 1.362 . S
C2778 C2781 1.409 . S
C2779 H2771 0.930 . S
C2779 C2780 1.355 . S
C2779 C2781 1.415 . S
C2780 C2779 1.355 . S
C2780 C2782 1.419 . S
C2781 C2776 1.425 . S
C2781 C2778 1.409 . S
C2781 C2779 1.415 . S
C2782 H2772 0.930 . S
C2782 C2780 1.419 . S
C2782 C2783 1.362 . S
C2783 H2773 0.930 . S
C2783 C2776 1.409 . S
C2783 C2782 1.362 . S
H2784 C2790 0.930 . S
H2785 C2793 0.930 . S
H2786 C2794 0.930 . S
H2787 C2795 0.930 . S
H2788 C2798 0.930 . S
H2789 C2799 0.930 . S
C2790 H2784 0.930 . S
C2790 C2791 1.355 . S
C2790 C2792 1.415 . S
C2791 C2790 1.355 . S
C2791 C2793 1.419 . S
C2792 C2790 1.415 . S
C2792 C2797 1.425 . S
C2792 C2799 1.409 . S
C2793 H2785 0.930 . S
C2793 C2791 1.419 . S
C2793 C2794 1.362 . S
C2794 H2786 0.930 . S
C2794 C2793 1.362 . S
C2794 C2797 1.409 . S
C2795 H2787 0.930 . S
C2795 C2796 1.355 . S
C2795 C2797 1.415 . S
C2796 C2795 1.355 . S
C2796 C2798 1.419 . S
C2797 C2792 1.425 . S
C2797 C2794 1.409 . S
C2797 C2795 1.415 . S
C2798 H2788 0.930 . S
C2798 C2796 1.419 . S
C2798 C2799 1.362 . S
C2799 H2789 0.930 . S
C2799 C2792 1.409 . S
C2799 C2798 1.362 . S
H2800 C2806 0.930 . S
H2801 C2809 0.930 . S
H2802 C2810 0.930 . S
H2803 C2811 0.930 . S
H2804 C2814 0.930 . S
H2805 C2815 0.930 . S
C2806 H2800 0.930 . S
C2806 C2807 1.355 . S
C2806 C2808 1.415 . S
C2807 C2806 1.355 . S
C2807 C2809 1.419 . S
C2808 C2806 1.415 . S
C2808 C2813 1.425 . S
C2808 C2815 1.409 . S
C2809 H2801 0.930 . S
C2809 C2807 1.419 . S
C2809 C2810 1.362 . S
C2810 H2802 0.930 . S
C2810 C2809 1.362 . S
C2810 C2813 1.409 . S
C2811 H2803 0.930 . S
C2811 C2812 1.355 . S
C2811 C2813 1.415 . S
C2812 C2811 1.355 . S
C2812 C2814 1.419 . S
C2813 C2808 1.425 . S
C2813 C2810 1.409 . S
C2813 C2811 1.415 . S
C2814 H2804 0.930 . S
C2814 C2812 1.419 . S
C2814 C2815 1.362 . S
C2815 H2805 0.930 . S
C2815 C2808 1.409 . S
C2815 C2814 1.362 . S
H2816 C2822 0.930 . S
H2817 C2825 0.930 . S
H2818 C2826 0.930 . S
H2819 C2827 0.930 . S
H2820 C2830 0.930 . S
H2821 C2831 0.930 . S
C2822 H2816 0.930 . S
C2822 C2823 1.355 . S
C2822 C2824 1.415 . S
C2823 C2822 1.355 . S
C2823 C2825 1.419 . S
C2824 C2822 1.415 . S
C2824 C2829 1.425 . S
C2824 C2831 1.409 . S
C2825 H2817 0.930 . S
C2825 C2823 1.419 . S
C2825 C2826 1.362 . S
C2826 H2818 0.930 . S
C2826 C2825 1.362 . S
C2826 C2829 1.409 . S
C2827 H2819 0.930 . S
C2827 C2828 1.355 . S
C2827 C2829 1.415 . S
C2828 C2827 1.355 . S
C2828 C2830 1.419 . S
C2829 C2824 1.425 . S
C2829 C2826 1.409 . S
C2829 C2827 1.415 . S
C2830 H2820 0.930 . S
C2830 C2828 1.419 . S
C2830 C2831 1.362 . S
C2831 H2821 0.930 . S
C2831 C2824 1.409 . S
C2831 C2830 1.362 . S
H2832 C2838 0.930 . S
H2833 C2841 0.930 . S
H2834 C2842 0.930 . S
H2835 C2843 0.930 . S
H2836 C2846 0.930 . S
H2837 C2847 0.930 . S
C2838 H2832 0.930 . S
C2838 C2839 1.355 . S
C2838 C2840 1.415 . S
C2839 C2838 1.355 . S
C2839 C2841 1.419 . S
C2840 C2838 1.415 . S
C2840 C2845 1.425 . S
C2840 C2847 1.409 . S
C2841 H2833 0.930 . S
C2841 C2839 1.419 . S
C2841 C2842 1.362 . S
C2842 H2834 0.930 . S
C2842 C2841 1.362 . S
C2842 C2845 1.409 . S
C2843 H2835 0.930 . S
C2843 C2844 1.355 . S
C2843 C2845 1.415 . S
C2844 C2843 1.355 . S
C2844 C2846 1.419 . S
C2845 C2840 1.425 . S
C2845 C2842 1.409 . S
C2845 C2843 1.415 . S
C2846 H2836 0.930 . S
C2846 C2844 1.419 . S
C2846 C2847 1.362 . S
C2847 H2837 0.930 . S
C2847 C2840 1.409 . S
C2847 C2846 1.362 . S
H2848 C2854 0.930 . S
H2849 C2857 0.930 . S
H2850 C2858 0.930 . S
H2851 C2859 0.930 . S
H2852 C2862 0.930 . S
H2853 C2863 0.930 . S
C2854 H2848 0.930 . S
C2854 C2855 1.355 . S
C2854 C2856 1.415 . S
C2855 C2854 1.355 . S
C2855 C2857 1.419 . S
C2856 C2854 1.415 . S
C2856 C2861 1.425 . S
C2856 C2863 1.409 . S
C2857 H2849 0.930 . S
C2857 C2855 1.419 . S
C2857 C2858 1.362 . S
C2858 H2850 0.930 . S
C2858 C2857 1.362 . S
C2858 C2861 1.409 . S
C2859 H2851 0.930 . S
C2859 C2860 1.355 . S
C2859 C2861 1.415 . S
C2860 C2859 1.355 . S
C2860 C2862 1.419 . S
C2861 C2856 1.425 . S
C2861 C2858 1.409 . S
C2861 C2859 1.415 . S
C2862 H2852 0.930 . S
C2862 C2860 1.419 . S
C2862 C2863 1.362 . S
C2863 H2853 0.930 . S
C2863 C2856 1.409 . S
C2863 C2862 1.362 . S
H2864 C2870 0.930 . S
H2865 C2873 0.930 . S
H2866 C2874 0.930 . S
H2867 C2875 0.930 . S
H2868 C2878 0.930 . S
H2869 C2879 0.930 . S
C2870 H2864 0.930 . S
C2870 C2871 1.355 . S
C2870 C2872 1.415 . S
C2871 C2870 1.355 . S
C2871 C2873 1.419 . S
C2872 C2870 1.415 . S
C2872 C2877 1.425 . S
C2872 C2879 1.409 . S
C2873 H2865 0.930 . S
C2873 C2871 1.419 . S
C2873 C2874 1.362 . S
C2874 H2866 0.930 . S
C2874 C2873 1.362 . S
C2874 C2877 1.409 . S
C2875 H2867 0.930 . S
C2875 C2876 1.355 . S
C2875 C2877 1.415 . S
C2876 C2875 1.355 . S
C2876 C2878 1.419 . S
C2877 C2872 1.425 . S
C2877 C2874 1.409 . S
C2877 C2875 1.415 . S
C2878 H2868 0.930 . S
C2878 C2876 1.419 . S
C2878 C2879 1.362 . S
C2879 H2869 0.930 . S
C2879 C2872 1.409 . S
C2879 C2878 1.362 . S
H2880 C2886 0.930 1_455 S
H2881 C2889 0.930 . S
H2882 C2890 0.930 . S
H2883 C2891 0.930 1_655 S
H2884 C2894 0.930 . S
H2885 C2895 0.930 . S
C2886 H2880 0.930 1_655 S
C2886 C2887 1.355 . S
C2886 C2888 1.415 1_655 S
C2887 C2886 1.355 . S
C2887 C2889 1.419 . S
C2888 C2886 1.415 1_455 S
C2888 C2893 1.425 1_455 S
C2888 C2895 1.409 . S
C2889 H2881 0.930 . S
C2889 C2887 1.419 . S
C2889 C2890 1.362 . S
C2890 H2882 0.930 . S
C2890 C2889 1.362 . S
C2890 C2893 1.409 . S
C2891 H2883 0.930 1_455 S
C2891 C2892 1.355 . S
C2891 C2893 1.415 1_455 S
C2892 C2891 1.355 . S
C2892 C2894 1.419 . S
C2893 C2888 1.425 1_655 S
C2893 C2890 1.409 . S
C2893 C2891 1.415 1_655 S
C2894 H2884 0.930 . S
C2894 C2892 1.419 . S
C2894 C2895 1.362 . S
C2895 H2885 0.930 . S
C2895 C2888 1.409 . S
C2895 C2894 1.362 . S
H2896 C2902 0.930 . S
H2897 C2905 0.930 . S
H2898 C2906 0.930 . S
H2899 C2907 0.930 . S
H2900 C2910 0.930 . S
H2901 C2911 0.930 . S
C2902 H2896 0.930 . S
C2902 C2903 1.355 . S
C2902 C2904 1.415 . S
C2903 C2902 1.355 . S
C2903 C2905 1.419 . S
C2904 C2902 1.415 . S
C2904 C2909 1.425 . S
C2904 C2911 1.409 . S
C2905 H2897 0.930 . S
C2905 C2903 1.419 . S
C2905 C2906 1.362 . S
C2906 H2898 0.930 . S
C2906 C2905 1.362 . S
C2906 C2909 1.409 . S
C2907 H2899 0.930 . S
C2907 C2908 1.355 . S
C2907 C2909 1.415 . S
C2908 C2907 1.355 . S
C2908 C2910 1.419 . S
C2909 C2904 1.425 . S
C2909 C2906 1.409 . S
C2909 C2907 1.415 . S
C2910 H2900 0.930 . S
C2910 C2908 1.419 . S
C2910 C2911 1.362 . S
C2911 H2901 0.930 . S
C2911 C2904 1.409 . S
C2911 C2910 1.362 . S
H2912 C2918 0.943 . S
H2913 C2921 0.930 . S
H2914 C2922 0.930 . S
H2915 C2923 0.930 . S
H2916 C2926 0.930 . S
H2917 C2927 0.930 . S
C2918 H2912 0.943 . S
C2918 C2919 1.347 1_565 S
C2918 C2920 1.409 1_565 S
C2919 C2918 1.347 1_545 S
C2919 C2921 1.419 . S
C2920 C2918 1.409 1_545 S
C2920 C2925 1.425 . S
C2920 C2927 1.409 1_545 S
C2921 H2913 0.930 . S
C2921 C2919 1.419 . S
C2921 C2922 1.362 . S
C2922 H2914 0.930 . S
C2922 C2921 1.362 . S
C2922 C2925 1.409 . S
C2923 H2915 0.930 . S
C2923 C2924 1.355 . S
C2923 C2925 1.415 . S
C2924 C2923 1.355 . S
C2924 C2926 1.419 1_545 S
C2925 C2920 1.425 . S
C2925 C2922 1.409 . S
C2925 C2923 1.415 . S
C2926 H2916 0.930 . S
C2926 C2924 1.419 1_565 S
C2926 C2927 1.362 . S
C2927 H2917 0.930 . S
C2927 C2920 1.409 1_565 S
C2927 C2926 1.362 . S
H2928 C2934 0.930 . S
H2929 C2937 0.930 . S
H2930 C2938 0.930 . S
H2931 C2939 0.930 . S
H2932 C2942 0.930 . S
H2933 C2943 0.930 . S
C2934 H2928 0.930 . S
C2934 C2935 1.355 . S
C2934 C2936 1.415 . S
C2935 C2934 1.355 . S
C2935 C2937 1.419 . S
C2936 C2934 1.415 . S
C2936 C2941 1.425 . S
C2936 C2943 1.409 . S
C2937 H2929 0.930 . S
C2937 C2935 1.419 . S
C2937 C2938 1.362 . S
C2938 H2930 0.930 . S
C2938 C2937 1.362 . S
C2938 C2941 1.409 . S
C2939 H2931 0.930 . S
C2939 C2940 1.355 . S
C2939 C2941 1.415 . S
C2940 C2939 1.355 . S
C2940 C2942 1.419 . S
C2941 C2936 1.425 . S
C2941 C2938 1.409 . S
C2941 C2939 1.415 . S
C2942 H2932 0.930 . S
C2942 C2940 1.419 . S
C2942 C2943 1.362 . S
C2943 H2933 0.930 . S
C2943 C2936 1.409 . S
C2943 C2942 1.362 . S
H2944 C2950 0.930 . S
H2945 C2953 0.913 1_455 S
H2946 C2954 0.930 1_565 S
H2947 C2955 0.930 1_565 S
H2948 C2958 0.930 . S
H2949 C2959 0.930 . S
C2950 H2944 0.930 . S
C2950 C2951 1.355 . S
C2950 C2952 1.415 . S
C2951 C2950 1.355 . S
C2951 C2953 1.419 . S
C2952 C2950 1.415 . S
C2952 C2957 1.425 . S
C2952 C2959 1.409 . S
C2953 H2945 0.913 1_655 S
C2953 C2951 1.419 . S
C2953 C2954 1.362 1_655 S
C2954 H2946 0.930 1_545 S
C2954 C2953 1.362 1_455 S
C2954 C2957 1.409 1_455 S
C2955 H2947 0.930 1_545 S
C2955 C2956 1.353 1_455 S
C2955 C2957 1.415 1_455 S
C2956 C2955 1.353 1_655 S
C2956 C2958 1.423 . S
C2957 C2952 1.425 . S
C2957 C2954 1.409 1_655 S
C2957 C2955 1.415 1_655 S
C2958 H2948 0.930 . S
C2958 C2956 1.423 . S
C2958 C2959 1.362 . S
C2959 H2949 0.930 . S
C2959 C2952 1.409 . S
C2959 C2958 1.362 . S
H2960 C2966 0.930 . S
H2961 C2969 0.930 . S
H2962 C2970 0.930 . S
H2963 C2971 0.930 . S
H2964 C2974 0.930 . S
H2965 C2975 0.930 . S
C2966 H2960 0.930 . S
C2966 C2967 1.355 . S
C2966 C2968 1.415 . S
C2967 C2966 1.355 . S
C2967 C2969 1.419 . S
C2968 C2966 1.415 . S
C2968 C2973 1.425 . S
C2968 C2975 1.409 . S
C2969 H2961 0.930 . S
C2969 C2967 1.419 . S
C2969 C2970 1.362 . S
C2970 H2962 0.930 . S
C2970 C2969 1.362 . S
C2970 C2973 1.409 . S
C2971 H2963 0.930 . S
C2971 C2972 1.355 . S
C2971 C2973 1.415 . S
C2972 C2971 1.355 . S
C2972 C2974 1.419 . S
C2973 C2968 1.425 . S
C2973 C2970 1.409 . S
C2973 C2971 1.415 . S
C2974 H2964 0.930 . S
C2974 C2972 1.419 . S
C2974 C2975 1.362 . S
C2975 H2965 0.930 . S
C2975 C2968 1.409 . S
C2975 C2974 1.362 . S
H2976 C2982 0.930 . S
H2977 C2985 0.930 . S
H2978 C2986 0.930 . S
H2979 C2987 0.930 . S
H2980 C2990 0.930 . S
H2981 C2991 0.930 . S
C2982 H2976 0.930 . S
C2982 C2983 1.355 . S
C2982 C2984 1.415 . S
C2983 C2982 1.355 . S
C2983 C2985 1.419 . S
C2984 C2982 1.415 . S
C2984 C2989 1.425 . S
C2984 C2991 1.409 . S
C2985 H2977 0.930 . S
C2985 C2983 1.419 . S
C2985 C2986 1.362 . S
C2986 H2978 0.930 . S
C2986 C2985 1.362 . S
C2986 C2989 1.409 . S
C2987 H2979 0.930 . S
C2987 C2988 1.355 . S
C2987 C2989 1.415 . S
C2988 C2987 1.355 . S
C2988 C2990 1.419 . S
C2989 C2984 1.425 . S
C2989 C2986 1.409 . S
C2989 C2987 1.415 . S
C2990 H2980 0.930 . S
C2990 C2988 1.419 . S
C2990 C2991 1.362 . S
C2991 H2981 0.930 . S
C2991 C2984 1.409 . S
C2991 C2990 1.362 . S
H2992 C2998 0.930 . S
H2993 C3001 0.930 . S
H2994 C3002 0.930 . S
H2995 C3003 0.930 . S
H2996 C3006 0.930 . S
H2997 C3007 0.930 . S
C2998 H2992 0.930 . S
C2998 C2999 1.355 . S
C2998 C3000 1.415 . S
C2999 C2998 1.355 . S
C2999 C3001 1.419 . S
C3000 C2998 1.415 . S
C3000 C3005 1.425 . S
C3000 C3007 1.409 . S
C3001 H2993 0.930 . S
C3001 C2999 1.419 . S
C3001 C3002 1.362 . S
C3002 H2994 0.930 . S
C3002 C3001 1.362 . S
C3002 C3005 1.409 . S
C3003 H2995 0.930 . S
C3003 C3004 1.355 . S
C3003 C3005 1.415 . S
C3004 C3003 1.355 . S
C3004 C3006 1.419 . S
C3005 C3000 1.425 . S
C3005 C3002 1.409 . S
C3005 C3003 1.415 . S
C3006 H2996 0.930 . S
C3006 C3004 1.419 . S
C3006 C3007 1.362 . S
C3007 H2997 0.930 . S
C3007 C3000 1.409 . S
C3007 C3006 1.362 . S
H3008 C3014 0.930 1_556 S
H3009 C3017 0.930 . S
H3010 C3018 0.930 1_545 S
H3011 C3019 0.930 . S
H3012 C3022 0.930 . S
H3013 C3023 0.930 . S
C3014 H3008 0.930 1_554 S
C3014 C3015 1.355 . S
C3014 C3016 1.415 . S
C3015 C3014 1.355 . S
C3015 C3017 1.419 . S
C3016 C3014 1.415 . S
C3016 C3021 1.424 . S
C3016 C3023 1.409 . S
C3017 H3009 0.930 . S
C3017 C3015 1.419 . S
C3017 C3018 1.362 . S
C3018 H3010 0.930 1_565 S
C3018 C3017 1.362 . S
C3018 C3021 1.421 . S
C3019 H3011 0.930 . S
C3019 C3020 1.355 . S
C3019 C3021 1.404 1_545 S
C3020 C3019 1.355 . S
C3020 C3022 1.419 . S
C3021 C3016 1.424 . S
C3021 C3018 1.421 . S
C3021 C3019 1.404 1_565 S
C3022 H3012 0.930 . S
C3022 C3020 1.419 . S
C3022 C3023 1.362 1_545 S
C3023 H3013 0.930 . S
C3023 C3016 1.409 . S
C3023 C3022 1.362 1_565 S
H3024 C3030 0.916 1_556 S
H3025 C3033 0.930 . S
H3026 C3034 0.930 . S
H3027 C3035 0.930 . S
H3028 C3038 0.930 1_556 S
H3029 C3039 0.930 1_556 S
C3030 H3024 0.916 1_554 S
C3030 C3031 1.355 . S
C3030 C3032 1.415 . S
C3031 C3030 1.355 . S
C3031 C3033 1.419 . S
C3032 C3030 1.415 . S
C3032 C3037 1.425 . S
C3032 C3039 1.409 . S
C3033 H3025 0.930 . S
C3033 C3031 1.419 . S
C3033 C3034 1.362 . S
C3034 H3026 0.930 . S
C3034 C3033 1.362 . S
C3034 C3037 1.409 . S
C3035 H3027 0.930 . S
C3035 C3036 1.355 . S
C3035 C3037 1.415 . S
C3036 C3035 1.355 . S
C3036 C3038 1.419 . S
C3037 C3032 1.425 . S
C3037 C3034 1.409 . S
C3037 C3035 1.415 . S
C3038 H3028 0.930 1_554 S
C3038 C3036 1.419 . S
C3038 C3039 1.362 . S
C3039 H3029 0.930 1_554 S
C3039 C3032 1.409 . S
C3039 C3038 1.362 . S
H3040 C3046 0.930 . S
H3041 C3049 0.930 . S
H3042 C3050 0.930 . S
H3043 C3051 0.930 . S
H3044 C3054 0.930 . S
H3045 C3055 0.930 . S
C3046 H3040 0.930 . S
C3046 C3047 1.355 . S
C3046 C3048 1.415 . S
C3047 C3046 1.355 . S
C3047 C3049 1.419 . S
C3048 C3046 1.415 . S
C3048 C3053 1.425 . S
C3048 C3055 1.409 . S
C3049 H3041 0.930 . S
C3049 C3047 1.419 . S
C3049 C3050 1.362 . S
C3050 H3042 0.930 . S
C3050 C3049 1.362 . S
C3050 C3053 1.409 . S
C3051 H3043 0.930 . S
C3051 C3052 1.355 . S
C3051 C3053 1.415 . S
C3052 C3051 1.355 . S
C3052 C3054 1.419 . S
C3053 C3048 1.425 . S
C3053 C3050 1.409 . S
C3053 C3051 1.415 . S
C3054 H3044 0.930 . S
C3054 C3052 1.419 . S
C3054 C3055 1.362 . S
C3055 H3045 0.930 . S
C3055 C3048 1.409 . S
C3055 C3054 1.362 . S
H3056 C3062 0.930 . S
H3057 C3065 0.930 . S
H3058 C3066 0.930 . S
H3059 C3067 0.930 . S
H3060 C3070 0.930 . S
H3061 C3071 0.930 . S
C3062 H3056 0.930 . S
C3062 C3063 1.355 . S
C3062 C3064 1.415 . S
C3063 C3062 1.355 . S
C3063 C3065 1.419 . S
C3064 C3062 1.415 . S
C3064 C3069 1.425 . S
C3064 C3071 1.409 . S
C3065 H3057 0.930 . S
C3065 C3063 1.419 . S
C3065 C3066 1.362 . S
C3066 H3058 0.930 . S
C3066 C3065 1.362 . S
C3066 C3069 1.409 . S
C3067 H3059 0.930 . S
C3067 C3068 1.355 . S
C3067 C3069 1.415 . S
C3068 C3067 1.355 . S
C3068 C3070 1.419 . S
C3069 C3064 1.425 . S
C3069 C3066 1.409 . S
C3069 C3067 1.415 . S
C3070 H3060 0.930 . S
C3070 C3068 1.419 . S
C3070 C3071 1.362 . S
C3071 H3061 0.930 . S
C3071 C3064 1.409 . S
C3071 C3070 1.362 . S
H3072 C3078 0.930 . S
H3073 C3081 0.930 . S
H3074 C3082 0.930 . S
H3075 C3083 0.930 . S
H3076 C3086 0.930 . S
H3077 C3087 0.930 . S
C3078 H3072 0.930 . S
C3078 C3079 1.355 . S
C3078 C3080 1.415 . S
C3079 C3078 1.355 . S
C3079 C3081 1.419 . S
C3080 C3078 1.415 . S
C3080 C3085 1.425 . S
C3080 C3087 1.409 . S
C3081 H3073 0.930 . S
C3081 C3079 1.419 . S
C3081 C3082 1.362 . S
C3082 H3074 0.930 . S
C3082 C3081 1.362 . S
C3082 C3085 1.409 . S
C3083 H3075 0.930 . S
C3083 C3084 1.355 . S
C3083 C3085 1.415 . S
C3084 C3083 1.355 . S
C3084 C3086 1.419 . S
C3085 C3080 1.425 . S
C3085 C3082 1.409 . S
C3085 C3083 1.415 . S
C3086 H3076 0.930 . S
C3086 C3084 1.419 . S
C3086 C3087 1.362 . S
C3087 H3077 0.930 . S
C3087 C3080 1.409 . S
C3087 C3086 1.362 . S
H3088 C3094 0.930 . S
H3089 C3097 0.930 . S
H3090 C3098 0.930 . S
H3091 C3099 0.930 . S
H3092 C3102 0.930 . S
H3093 C3103 0.930 . S
C3094 H3088 0.930 . S
C3094 C3095 1.355 . S
C3094 C3096 1.415 . S
C3095 C3094 1.355 . S
C3095 C3097 1.419 . S
C3096 C3094 1.415 . S
C3096 C3101 1.425 . S
C3096 C3103 1.409 . S
C3097 H3089 0.930 . S
C3097 C3095 1.419 . S
C3097 C3098 1.362 . S
C3098 H3090 0.930 . S
C3098 C3097 1.362 . S
C3098 C3101 1.409 . S
C3099 H3091 0.930 . S
C3099 C3100 1.355 . S
C3099 C3101 1.415 . S
C3100 C3099 1.355 . S
C3100 C3102 1.419 . S
C3101 C3096 1.425 . S
C3101 C3098 1.409 . S
C3101 C3099 1.415 . S
C3102 H3092 0.930 . S
C3102 C3100 1.419 . S
C3102 C3103 1.362 . S
C3103 H3093 0.930 . S
C3103 C3096 1.409 . S
C3103 C3102 1.362 . S
H3104 C3110 0.930 . S
H3105 C3113 0.930 . S
H3106 C3114 0.930 . S
H3107 C3115 0.930 . S
H3108 C3118 0.930 . S
H3109 C3119 0.930 . S
C3110 H3104 0.930 . S
C3110 C3111 1.355 . S
C3110 C3112 1.415 . S
C3111 C3110 1.355 . S
C3111 C3113 1.419 . S
C3112 C3110 1.415 . S
C3112 C3117 1.425 . S
C3112 C3119 1.409 . S
C3113 H3105 0.930 . S
C3113 C3111 1.419 . S
C3113 C3114 1.362 . S
C3114 H3106 0.930 . S
C3114 C3113 1.362 . S
C3114 C3117 1.409 . S
C3115 H3107 0.930 . S
C3115 C3116 1.355 . S
C3115 C3117 1.415 . S
C3116 C3115 1.355 . S
C3116 C3118 1.419 . S
C3117 C3112 1.425 . S
C3117 C3114 1.409 . S
C3117 C3115 1.415 . S
C3118 H3108 0.930 . S
C3118 C3116 1.419 . S
C3118 C3119 1.362 . S
C3119 H3109 0.930 . S
C3119 C3112 1.409 . S
C3119 C3118 1.362 . S
H3120 C3126 0.930 . S
H3121 C3129 0.930 . S
H3122 C3130 0.930 . S
H3123 C3131 0.930 . S
H3124 C3134 0.930 . S
H3125 C3135 0.930 . S
C3126 H3120 0.930 . S
C3126 C3127 1.355 . S
C3126 C3128 1.415 . S
C3127 C3126 1.355 . S
C3127 C3129 1.419 . S
C3128 C3126 1.415 . S
C3128 C3133 1.425 . S
C3128 C3135 1.409 . S
C3129 H3121 0.930 . S
C3129 C3127 1.419 . S
C3129 C3130 1.362 . S
C3130 H3122 0.930 . S
C3130 C3129 1.362 . S
C3130 C3133 1.409 . S
C3131 H3123 0.930 . S
C3131 C3132 1.355 . S
C3131 C3133 1.415 . S
C3132 C3131 1.355 . S
C3132 C3134 1.419 . S
C3133 C3128 1.425 . S
C3133 C3130 1.409 . S
C3133 C3131 1.415 . S
C3134 H3124 0.930 . S
C3134 C3132 1.419 . S
C3134 C3135 1.362 . S
C3135 H3125 0.930 . S
C3135 C3128 1.409 . S
C3135 C3134 1.362 . S
H3136 C3142 0.930 . S
H3137 C3145 0.930 . S
H3138 C3146 0.930 . S
H3139 C3147 0.930 . S
H3140 C3150 0.930 . S
H3141 C3151 0.930 . S
C3142 H3136 0.930 . S
C3142 C3143 1.355 . S
C3142 C3144 1.415 . S
C3143 C3142 1.355 . S
C3143 C3145 1.419 . S
C3144 C3142 1.415 . S
C3144 C3149 1.425 . S
C3144 C3151 1.409 . S
C3145 H3137 0.930 . S
C3145 C3143 1.419 . S
C3145 C3146 1.362 . S
C3146 H3138 0.930 . S
C3146 C3145 1.362 . S
C3146 C3149 1.409 . S
C3147 H3139 0.930 . S
C3147 C3148 1.355 . S
C3147 C3149 1.415 . S
C3148 C3147 1.355 . S
C3148 C3150 1.419 . S
C3149 C3144 1.425 . S
C3149 C3146 1.409 . S
C3149 C3147 1.415 . S
C3150 H3140 0.930 . S
C3150 C3148 1.419 . S
C3150 C3151 1.362 . S
C3151 H3141 0.930 . S
C3151 C3144 1.409 . S
C3151 C3150 1.362 . S
H3152 C3158 0.930 . S
H3153 C3161 0.930 . S
H3154 C3162 0.930 . S
H3155 C3163 0.930 . S
H3156 C3166 0.930 . S
H3157 C3167 0.930 . S
C3158 H3152 0.930 . S
C3158 C3159 1.355 . S
C3158 C3160 1.415 . S
C3159 C3158 1.355 . S
C3159 C3161 1.419 . S
C3160 C3158 1.415 . S
C3160 C3165 1.425 . S
C3160 C3167 1.409 . S
C3161 H3153 0.930 . S
C3161 C3159 1.419 . S
C3161 C3162 1.362 . S
C3162 H3154 0.930 . S
C3162 C3161 1.362 . S
C3162 C3165 1.409 . S
C3163 H3155 0.930 . S
C3163 C3164 1.355 . S
C3163 C3165 1.415 . S
C3164 C3163 1.355 . S
C3164 C3166 1.419 . S
C3165 C3160 1.425 . S
C3165 C3162 1.409 . S
C3165 C3163 1.415 . S
C3166 H3156 0.930 . S
C3166 C3164 1.419 . S
C3166 C3167 1.362 . S
C3167 H3157 0.930 . S
C3167 C3160 1.409 . S
C3167 C3166 1.362 . S
H3168 C3174 0.930 . S
H3169 C3177 0.930 . S
H3170 C3178 0.930 . S
H3171 C3179 0.930 . S
H3172 C3182 0.930 . S
H3173 C3183 0.930 . S
C3174 H3168 0.930 . S
C3174 C3175 1.355 . S
C3174 C3176 1.415 . S
C3175 C3174 1.355 . S
C3175 C3177 1.419 . S
C3176 C3174 1.415 . S
C3176 C3181 1.425 . S
C3176 C3183 1.409 . S
C3177 H3169 0.930 . S
C3177 C3175 1.419 . S
C3177 C3178 1.362 . S
C3178 H3170 0.930 . S
C3178 C3177 1.362 . S
C3178 C3181 1.409 . S
C3179 H3171 0.930 . S
C3179 C3180 1.355 . S
C3179 C3181 1.415 . S
C3180 C3179 1.355 . S
C3180 C3182 1.419 . S
C3181 C3176 1.425 . S
C3181 C3178 1.409 . S
C3181 C3179 1.415 . S
C3182 H3172 0.930 . S
C3182 C3180 1.419 . S
C3182 C3183 1.362 . S
C3183 H3173 0.930 . S
C3183 C3176 1.409 . S
C3183 C3182 1.362 . S
H3184 C3190 0.930 . S
H3185 C3193 0.930 . S
H3186 C3194 0.930 . S
H3187 C3195 0.930 . S
H3188 C3198 0.930 . S
H3189 C3199 0.930 . S
C3190 H3184 0.930 . S
C3190 C3191 1.355 . S
C3190 C3192 1.415 . S
C3191 C3190 1.355 . S
C3191 C3193 1.419 . S
C3192 C3190 1.415 . S
C3192 C3197 1.425 . S
C3192 C3199 1.409 . S
C3193 H3185 0.930 . S
C3193 C3191 1.419 . S
C3193 C3194 1.362 . S
C3194 H3186 0.930 . S
C3194 C3193 1.362 . S
C3194 C3197 1.409 . S
C3195 H3187 0.930 . S
C3195 C3196 1.355 . S
C3195 C3197 1.415 . S
C3196 C3195 1.355 . S
C3196 C3198 1.419 . S
C3197 C3192 1.425 . S
C3197 C3194 1.409 . S
C3197 C3195 1.415 . S
C3198 H3188 0.930 . S
C3198 C3196 1.419 . S
C3198 C3199 1.362 . S
C3199 H3189 0.930 . S
C3199 C3192 1.409 . S
C3199 C3198 1.362 . S
H3200 C3206 0.930 . S
H3201 C3209 0.930 . S
H3202 C3210 0.930 . S
H3203 C3211 0.930 . S
H3204 C3214 0.930 . S
H3205 C3215 0.930 . S
C3206 H3200 0.930 . S
C3206 C3207 1.355 . S
C3206 C3208 1.415 . S
C3207 C3206 1.355 . S
C3207 C3209 1.419 . S
C3208 C3206 1.415 . S
C3208 C3213 1.425 . S
C3208 C3215 1.409 . S
C3209 H3201 0.930 . S
C3209 C3207 1.419 . S
C3209 C3210 1.362 . S
C3210 H3202 0.930 . S
C3210 C3209 1.362 . S
C3210 C3213 1.409 . S
C3211 H3203 0.930 . S
C3211 C3212 1.355 . S
C3211 C3213 1.415 . S
C3212 C3211 1.355 . S
C3212 C3214 1.419 . S
C3213 C3208 1.425 . S
C3213 C3210 1.409 . S
C3213 C3211 1.415 . S
C3214 H3204 0.930 . S
C3214 C3212 1.419 . S
C3214 C3215 1.362 . S
C3215 H3205 0.930 . S
C3215 C3208 1.409 . S
C3215 C3214 1.362 . S
H3216 C3222 0.930 . S
H3217 C3225 0.930 . S
H3218 C3226 0.930 . S
H3219 C3227 0.930 . S
H3220 C3230 0.930 . S
H3221 C3231 0.930 . S
C3222 H3216 0.930 . S
C3222 C3223 1.355 . S
C3222 C3224 1.415 . S
C3223 C3222 1.355 . S
C3223 C3225 1.419 . S
C3224 C3222 1.415 . S
C3224 C3229 1.425 . S
C3224 C3231 1.409 . S
C3225 H3217 0.930 . S
C3225 C3223 1.419 . S
C3225 C3226 1.362 . S
C3226 H3218 0.930 . S
C3226 C3225 1.362 . S
C3226 C3229 1.409 . S
C3227 H3219 0.930 . S
C3227 C3228 1.355 . S
C3227 C3229 1.415 . S
C3228 C3227 1.355 . S
C3228 C3230 1.419 . S
C3229 C3224 1.425 . S
C3229 C3226 1.409 . S
C3229 C3227 1.415 . S
C3230 H3220 0.930 . S
C3230 C3228 1.419 . S
C3230 C3231 1.362 . S
C3231 H3221 0.930 . S
C3231 C3224 1.409 . S
C3231 C3230 1.362 . S
H3232 C3238 0.930 . S
H3233 C3241 0.930 . S
H3234 C3242 0.930 . S
H3235 C3243 0.930 . S
H3236 C3246 0.930 . S
H3237 C3247 0.930 1_554 S
C3238 H3232 0.930 . S
C3238 C3239 1.355 . S
C3238 C3240 1.415 . S
C3239 C3238 1.355 . S
C3239 C3241 1.419 . S
C3240 C3238 1.415 . S
C3240 C3245 1.425 . S
C3240 C3247 1.409 . S
C3241 H3233 0.930 . S
C3241 C3239 1.419 . S
C3241 C3242 1.362 . S
C3242 H3234 0.930 . S
C3242 C3241 1.362 . S
C3242 C3245 1.409 . S
C3243 H3235 0.930 . S
C3243 C3244 1.355 . S
C3243 C3245 1.415 . S
C3244 C3243 1.355 . S
C3244 C3246 1.419 1_556 S
C3245 C3240 1.425 . S
C3245 C3242 1.409 . S
C3245 C3243 1.415 . S
C3246 H3236 0.930 . S
C3246 C3244 1.419 1_554 S
C3246 C3247 1.362 1_554 S
C3247 H3237 0.930 1_556 S
C3247 C3240 1.409 . S
C3247 C3246 1.362 1_556 S
H3248 C3254 0.930 . S
H3249 C3257 0.930 . S
H3250 C3258 0.930 . S
H3251 C3259 0.930 . S
H3252 C3262 0.930 . S
H3253 C3263 0.930 . S
C3254 H3248 0.930 . S
C3254 C3255 1.355 . S
C3254 C3256 1.415 . S
C3255 C3254 1.355 . S
C3255 C3257 1.419 . S
C3256 C3254 1.415 . S
C3256 C3261 1.425 . S
C3256 C3263 1.409 . S
C3257 H3249 0.930 . S
C3257 C3255 1.419 . S
C3257 C3258 1.362 . S
C3258 H3250 0.930 . S
C3258 C3257 1.362 . S
C3258 C3261 1.409 . S
C3259 H3251 0.930 . S
C3259 C3260 1.355 . S
C3259 C3261 1.415 . S
C3260 C3259 1.355 . S
C3260 C3262 1.419 . S
C3261 C3256 1.425 . S
C3261 C3258 1.409 . S
C3261 C3259 1.415 . S
C3262 H3252 0.930 . S
C3262 C3260 1.419 . S
C3262 C3263 1.362 . S
C3263 H3253 0.930 . S
C3263 C3256 1.409 . S
C3263 C3262 1.362 . S
H3264 C3270 0.930 . S
H3265 C3273 0.930 . S
H3266 C3274 0.930 1_565 S
H3267 C3275 0.930 1_565 S
H3268 C3278 0.930 . S
H3269 C3279 0.930 . S
C3270 H3264 0.930 . S
C3270 C3271 1.355 . S
C3270 C3272 1.415 . S
C3271 C3270 1.355 . S
C3271 C3273 1.419 . S
C3272 C3270 1.415 . S
C3272 C3277 1.425 . S
C3272 C3279 1.409 . S
C3273 H3265 0.930 . S
C3273 C3271 1.419 . S
C3273 C3274 1.362 . S
C3274 H3266 0.930 1_545 S
C3274 C3273 1.362 . S
C3274 C3277 1.409 . S
C3275 H3267 0.930 1_545 S
C3275 C3276 1.355 . S
C3275 C3277 1.415 . S
C3276 C3275 1.355 . S
C3276 C3278 1.419 . S
C3277 C3272 1.425 . S
C3277 C3274 1.409 . S
C3277 C3275 1.415 . S
C3278 H3268 0.930 . S
C3278 C3276 1.419 . S
C3278 C3279 1.362 . S
C3279 H3269 0.930 . S
C3279 C3272 1.409 . S
C3279 C3278 1.362 . S
H3280 C3286 0.930 . S
H3281 C3289 0.930 . S
H3282 C3290 0.930 . S
H3283 C3291 0.930 . S
H3284 C3294 0.930 . S
H3285 C3295 0.930 . S
C3286 H3280 0.930 . S
C3286 C3287 1.355 . S
C3286 C3288 1.415 . S
C3287 C3286 1.355 . S
C3287 C3289 1.419 . S
C3288 C3286 1.415 . S
C3288 C3293 1.425 . S
C3288 C3295 1.409 . S
C3289 H3281 0.930 . S
C3289 C3287 1.419 . S
C3289 C3290 1.362 . S
C3290 H3282 0.930 . S
C3290 C3289 1.362 . S
C3290 C3293 1.409 . S
C3291 H3283 0.930 . S
C3291 C3292 1.355 . S
C3291 C3293 1.415 . S
C3292 C3291 1.355 . S
C3292 C3294 1.419 . S
C3293 C3288 1.425 . S
C3293 C3290 1.409 . S
C3293 C3291 1.415 . S
C3294 H3284 0.930 . S
C3294 C3292 1.419 . S
C3294 C3295 1.362 . S
C3295 H3285 0.930 . S
C3295 C3288 1.409 . S
C3295 C3294 1.362 . S
H3296 C3302 0.930 . S
H3297 C3305 0.930 . S
H3298 C3306 0.930 . S
H3299 C3307 0.930 . S
H3300 C3310 0.930 . S
H3301 C3311 0.930 . S
C3302 H3296 0.930 . S
C3302 C3303 1.355 . S
C3302 C3304 1.415 . S
C3303 C3302 1.355 . S
C3303 C3305 1.419 . S
C3304 C3302 1.415 . S
C3304 C3309 1.425 . S
C3304 C3311 1.409 . S
C3305 H3297 0.930 . S
C3305 C3303 1.419 . S
C3305 C3306 1.362 . S
C3306 H3298 0.930 . S
C3306 C3305 1.362 . S
C3306 C3309 1.409 . S
C3307 H3299 0.930 . S
C3307 C3308 1.355 . S
C3307 C3309 1.415 . S
C3308 C3307 1.355 . S
C3308 C3310 1.419 . S
C3309 C3304 1.425 . S
C3309 C3306 1.409 . S
C3309 C3307 1.415 . S
C3310 H3300 0.930 . S
C3310 C3308 1.419 . S
C3310 C3311 1.362 . S
C3311 H3301 0.930 . S
C3311 C3304 1.409 . S
C3311 C3310 1.362 . S
H3312 C3318 0.930 . S
H3313 C3321 0.930 . S
H3314 C3322 0.930 . S
H3315 C3323 0.930 . S
H3316 C3326 0.930 . S
H3317 C3327 0.930 . S
C3318 H3312 0.930 . S
C3318 C3319 1.355 . S
C3318 C3320 1.415 . S
C3319 C3318 1.355 . S
C3319 C3321 1.419 . S
C3320 C3318 1.415 . S
C3320 C3325 1.425 . S
C3320 C3327 1.409 . S
C3321 H3313 0.930 . S
C3321 C3319 1.419 . S
C3321 C3322 1.362 . S
C3322 H3314 0.930 . S
C3322 C3321 1.362 . S
C3322 C3325 1.409 . S
C3323 H3315 0.930 . S
C3323 C3324 1.355 . S
C3323 C3325 1.415 . S
C3324 C3323 1.355 . S
C3324 C3326 1.419 . S
C3325 C3320 1.425 . S
C3325 C3322 1.409 . S
C3325 C3323 1.415 . S
C3326 H3316 0.930 . S
C3326 C3324 1.419 . S
C3326 C3327 1.362 . S
C3327 H3317 0.930 . S
C3327 C3320 1.409 . S
C3327 C3326 1.362 . S
H3328 C3334 0.930 . S
H3329 C3337 0.930 1_565 S
H3330 C3338 0.930 1_565 S
H3331 C3339 0.930 . S
H3332 C3342 0.930 . S
H3333 C3343 0.930 . S
C3334 H3328 0.930 . S
C3334 C3335 1.355 . S
C3334 C3336 1.415 . S
C3335 C3334 1.355 . S
C3335 C3337 1.419 . S
C3336 C3334 1.415 . S
C3336 C3341 1.425 . S
C3336 C3343 1.409 . S
C3337 H3329 0.930 1_545 S
C3337 C3335 1.419 . S
C3337 C3338 1.362 . S
C3338 H3330 0.930 1_545 S
C3338 C3337 1.362 . S
C3338 C3341 1.409 . S
C3339 H3331 0.930 . S
C3339 C3340 1.355 . S
C3339 C3341 1.415 . S
C3340 C3339 1.355 . S
C3340 C3342 1.419 . S
C3341 C3336 1.425 . S
C3341 C3338 1.409 . S
C3341 C3339 1.415 . S
C3342 H3332 0.930 . S
C3342 C3340 1.419 . S
C3342 C3343 1.362 . S
C3343 H3333 0.930 . S
C3343 C3336 1.409 . S
C3343 C3342 1.362 . S
H3344 C3350 0.930 . S
H3345 C3353 0.930 . S
H3346 C3354 0.930 . S
H3347 C3355 0.930 . S
H3348 C3358 0.930 . S
H3349 C3359 0.930 . S
C3350 H3344 0.930 . S
C3350 C3351 1.355 . S
C3350 C3352 1.415 . S
C3351 C3350 1.355 . S
C3351 C3353 1.419 . S
C3352 C3350 1.415 . S
C3352 C3357 1.425 . S
C3352 C3359 1.409 . S
C3353 H3345 0.930 . S
C3353 C3351 1.419 . S
C3353 C3354 1.362 . S
C3354 H3346 0.930 . S
C3354 C3353 1.362 . S
C3354 C3357 1.409 . S
C3355 H3347 0.930 . S
C3355 C3356 1.355 . S
C3355 C3357 1.415 . S
C3356 C3355 1.355 . S
C3356 C3358 1.419 . S
C3357 C3352 1.425 . S
C3357 C3354 1.409 . S
C3357 C3355 1.415 . S
C3358 H3348 0.930 . S
C3358 C3356 1.419 . S
C3358 C3359 1.362 . S
C3359 H3349 0.930 . S
C3359 C3352 1.409 . S
C3359 C3358 1.362 . S
H3360 C3366 0.930 . S
H3361 C3369 0.930 . S
H3362 C3370 0.930 . S
H3363 C3371 0.930 . S
H3364 C3374 0.930 1_565 S
H3365 C3375 0.930 1_565 S
C3366 H3360 0.930 . S
C3366 C3367 1.355 . S
C3366 C3368 1.415 . S
C3367 C3366 1.355 . S
C3367 C3369 1.419 . S
C3368 C3366 1.415 . S
C3368 C3373 1.425 . S
C3368 C3375 1.409 . S
C3369 H3361 0.930 . S
C3369 C3367 1.419 . S
C3369 C3370 1.362 . S
C3370 H3362 0.930 . S
C3370 C3369 1.362 . S
C3370 C3373 1.409 . S
C3371 H3363 0.930 . S
C3371 C3372 1.355 . S
C3371 C3373 1.415 . S
C3372 C3371 1.355 . S
C3372 C3374 1.419 . S
C3373 C3368 1.425 . S
C3373 C3370 1.409 . S
C3373 C3371 1.415 . S
C3374 H3364 0.930 1_545 S
C3374 C3372 1.419 . S
C3374 C3375 1.362 . S
C3375 H3365 0.930 1_545 S
C3375 C3368 1.409 . S
C3375 C3374 1.362 . S
H3376 C3382 0.930 . S
H3377 C3385 0.930 . S
H3378 C3386 0.930 . S
H3379 C3387 0.930 . S
H3380 C3390 0.930 . S
H3381 C3391 0.930 . S
C3382 H3376 0.930 . S
C3382 C3383 1.355 . S
C3382 C3384 1.415 . S
C3383 C3382 1.355 . S
C3383 C3385 1.419 . S
C3384 C3382 1.415 . S
C3384 C3389 1.425 . S
C3384 C3391 1.409 . S
C3385 H3377 0.930 . S
C3385 C3383 1.419 . S
C3385 C3386 1.362 . S
C3386 H3378 0.930 . S
C3386 C3385 1.362 . S
C3386 C3389 1.409 . S
C3387 H3379 0.930 . S
C3387 C3388 1.355 . S
C3387 C3389 1.415 . S
C3388 C3387 1.355 . S
C3388 C3390 1.419 . S
C3389 C3384 1.425 . S
C3389 C3386 1.409 . S
C3389 C3387 1.415 . S
C3390 H3380 0.930 . S
C3390 C3388 1.419 . S
C3390 C3391 1.362 . S
C3391 H3381 0.930 . S
C3391 C3384 1.409 . S
C3391 C3390 1.362 . S
H3392 C3398 0.930 . S
H3393 C3401 0.930 . S
H3394 C3402 0.930 . S
H3395 C3403 0.930 1_556 S
H3396 C3406 0.930 . S
H3397 C3407 0.930 . S
C3398 H3392 0.930 . S
C3398 C3399 1.355 . S
C3398 C3400 1.415 . S
C3399 C3398 1.355 . S
C3399 C3401 1.419 . S
C3400 C3398 1.415 . S
C3400 C3405 1.425 . S
C3400 C3407 1.409 . S
C3401 H3393 0.930 . S
C3401 C3399 1.419 . S
C3401 C3402 1.362 . S
C3402 H3394 0.930 . S
C3402 C3401 1.362 . S
C3402 C3405 1.409 . S
C3403 H3395 0.930 1_554 S
C3403 C3404 1.355 . S
C3403 C3405 1.415 . S
C3404 C3403 1.355 . S
C3404 C3406 1.419 . S
C3405 C3400 1.425 . S
C3405 C3402 1.409 . S
C3405 C3403 1.415 . S
C3406 H3396 0.930 . S
C3406 C3404 1.419 . S
C3406 C3407 1.362 . S
C3407 H3397 0.930 . S
C3407 C3400 1.409 . S
C3407 C3406 1.362 . S
H3408 C3414 0.930 . S
H3409 C3417 0.930 . S
H3410 C3418 0.930 1_556 S
H3411 C3419 0.930 . S
H3412 C3422 0.930 . S
H3413 C3423 0.930 . S
C3414 H3408 0.930 . S
C3414 C3415 1.355 . S
C3414 C3416 1.415 . S
C3415 C3414 1.355 . S
C3415 C3417 1.419 . S
C3416 C3414 1.415 . S
C3416 C3421 1.425 . S
C3416 C3423 1.409 . S
C3417 H3409 0.930 . S
C3417 C3415 1.419 . S
C3417 C3418 1.362 . S
C3418 H3410 0.930 1_554 S
C3418 C3417 1.362 . S
C3418 C3421 1.409 . S
C3419 H3411 0.930 . S
C3419 C3420 1.355 . S
C3419 C3421 1.415 . S
C3420 C3419 1.355 . S
C3420 C3422 1.419 . S
C3421 C3416 1.425 . S
C3421 C3418 1.409 . S
C3421 C3419 1.415 . S
C3422 H3412 0.930 . S
C3422 C3420 1.419 . S
C3422 C3423 1.362 . S
C3423 H3413 0.930 . S
C3423 C3416 1.409 . S
C3423 C3422 1.362 . S
H3424 C3430 0.930 . S
H3425 C3433 0.930 . S
H3426 C3434 0.930 . S
H3427 C3435 0.930 . S
H3428 C3438 0.930 . S
H3429 C3439 0.930 . S
C3430 H3424 0.930 . S
C3430 C3431 1.355 . S
C3430 C3432 1.415 . S
C3431 C3430 1.355 . S
C3431 C3433 1.419 . S
C3432 C3430 1.415 . S
C3432 C3437 1.425 . S
C3432 C3439 1.409 . S
C3433 H3425 0.930 . S
C3433 C3431 1.419 . S
C3433 C3434 1.362 . S
C3434 H3426 0.930 . S
C3434 C3433 1.362 . S
C3434 C3437 1.409 . S
C3435 H3427 0.930 . S
C3435 C3436 1.355 . S
C3435 C3437 1.415 . S
C3436 C3435 1.355 . S
C3436 C3438 1.419 . S
C3437 C3432 1.425 . S
C3437 C3434 1.409 . S
C3437 C3435 1.415 . S
C3438 H3428 0.930 . S
C3438 C3436 1.419 . S
C3438 C3439 1.362 . S
C3439 H3429 0.930 . S
C3439 C3432 1.409 . S
C3439 C3438 1.362 . S
H3440 C3446 0.930 . S
H3441 C3449 0.930 . S
H3442 C3450 0.930 . S
H3443 C3451 0.930 . S
H3444 C3454 0.930 . S
H3445 C3455 0.930 . S
C3446 H3440 0.930 . S
C3446 C3447 1.355 . S
C3446 C3448 1.415 . S
C3447 C3446 1.355 . S
C3447 C3449 1.419 . S
C3448 C3446 1.415 . S
C3448 C3453 1.425 . S
C3448 C3455 1.409 . S
C3449 H3441 0.930 . S
C3449 C3447 1.419 . S
C3449 C3450 1.362 . S
C3450 H3442 0.930 . S
C3450 C3449 1.362 . S
C3450 C3453 1.409 . S
C3451 H3443 0.930 . S
C3451 C3452 1.355 . S
C3451 C3453 1.415 . S
C3452 C3451 1.355 . S
C3452 C3454 1.419 . S
C3453 C3448 1.425 . S
C3453 C3450 1.409 . S
C3453 C3451 1.415 . S
C3454 H3444 0.930 . S
C3454 C3452 1.419 . S
C3454 C3455 1.362 . S
C3455 H3445 0.930 . S
C3455 C3448 1.409 . S
C3455 C3454 1.362 . S
H3456 C3462 0.930 . S
H3457 C3465 0.930 . S
H3458 C3466 0.930 . S
H3459 C3467 0.930 . S
H3460 C3470 0.930 . S
H3461 C3471 0.930 . S
C3462 H3456 0.930 . S
C3462 C3463 1.355 . S
C3462 C3464 1.415 . S
C3463 C3462 1.355 . S
C3463 C3465 1.419 . S
C3464 C3462 1.415 . S
C3464 C3469 1.425 . S
C3464 C3471 1.409 . S
C3465 H3457 0.930 . S
C3465 C3463 1.419 . S
C3465 C3466 1.362 . S
C3466 H3458 0.930 . S
C3466 C3465 1.362 . S
C3466 C3469 1.409 . S
C3467 H3459 0.930 . S
C3467 C3468 1.355 . S
C3467 C3469 1.415 . S
C3468 C3467 1.355 . S
C3468 C3470 1.419 . S
C3469 C3464 1.425 . S
C3469 C3466 1.409 . S
C3469 C3467 1.415 . S
C3470 H3460 0.930 . S
C3470 C3468 1.419 . S
C3470 C3471 1.362 . S
C3471 H3461 0.930 . S
C3471 C3464 1.409 . S
C3471 C3470 1.362 . S
H3472 C3478 0.930 . S
H3473 C3481 0.930 . S
H3474 C3482 0.930 . S
H3475 C3483 0.930 . S
H3476 C3486 0.930 . S
H3477 C3487 0.930 . S
C3478 H3472 0.930 . S
C3478 C3479 1.355 . S
C3478 C3480 1.415 . S
C3479 C3478 1.355 . S
C3479 C3481 1.419 . S
C3480 C3478 1.415 . S
C3480 C3485 1.425 . S
C3480 C3487 1.409 . S
C3481 H3473 0.930 . S
C3481 C3479 1.419 . S
C3481 C3482 1.362 . S
C3482 H3474 0.930 . S
C3482 C3481 1.362 . S
C3482 C3485 1.409 . S
C3483 H3475 0.930 . S
C3483 C3484 1.355 . S
C3483 C3485 1.415 . S
C3484 C3483 1.355 . S
C3484 C3486 1.419 . S
C3485 C3480 1.425 . S
C3485 C3482 1.409 . S
C3485 C3483 1.415 . S
C3486 H3476 0.930 . S
C3486 C3484 1.419 . S
C3486 C3487 1.362 . S
C3487 H3477 0.930 . S
C3487 C3480 1.409 . S
C3487 C3486 1.362 . S
H3488 C3494 0.930 . S
H3489 C3497 0.930 . S
H3490 C3498 0.930 . S
H3491 C3499 0.930 . S
H3492 C3502 0.930 . S
H3493 C3503 0.930 . S
C3494 H3488 0.930 . S
C3494 C3495 1.355 . S
C3494 C3496 1.415 . S
C3495 C3494 1.355 . S
C3495 C3497 1.419 . S
C3496 C3494 1.415 . S
C3496 C3501 1.425 . S
C3496 C3503 1.409 . S
C3497 H3489 0.930 . S
C3497 C3495 1.419 . S
C3497 C3498 1.362 . S
C3498 H3490 0.930 . S
C3498 C3497 1.362 . S
C3498 C3501 1.409 . S
C3499 H3491 0.930 . S
C3499 C3500 1.355 . S
C3499 C3501 1.415 . S
C3500 C3499 1.355 . S
C3500 C3502 1.419 . S
C3501 C3496 1.425 . S
C3501 C3498 1.409 . S
C3501 C3499 1.415 . S
C3502 H3492 0.930 . S
C3502 C3500 1.419 . S
C3502 C3503 1.362 . S
C3503 H3493 0.930 . S
C3503 C3496 1.409 . S
C3503 C3502 1.362 . S
H3504 C3510 0.930 . S
H3505 C3513 0.930 . S
H3506 C3514 0.930 . S
H3507 C3515 0.930 . S
H3508 C3518 0.930 . S
H3509 C3519 0.930 . S
C3510 H3504 0.930 . S
C3510 C3511 1.355 . S
C3510 C3512 1.415 . S
C3511 C3510 1.355 . S
C3511 C3513 1.419 . S
C3512 C3510 1.415 . S
C3512 C3517 1.425 . S
C3512 C3519 1.409 . S
C3513 H3505 0.930 . S
C3513 C3511 1.419 . S
C3513 C3514 1.362 . S
C3514 H3506 0.930 . S
C3514 C3513 1.362 . S
C3514 C3517 1.409 . S
C3515 H3507 0.930 . S
C3515 C3516 1.355 . S
C3515 C3517 1.415 . S
C3516 C3515 1.355 . S
C3516 C3518 1.419 . S
C3517 C3512 1.425 . S
C3517 C3514 1.409 . S
C3517 C3515 1.415 . S
C3518 H3508 0.930 . S
C3518 C3516 1.419 . S
C3518 C3519 1.362 . S
C3519 H3509 0.930 . S
C3519 C3512 1.409 . S
C3519 C3518 1.362 . S
H3520 C3526 0.930 . S
H3521 C3529 0.930 . S
H3522 C3530 0.930 . S
H3523 C3531 0.930 . S
H3524 C3534 0.930 . S
H3525 C3535 0.930 . S
C3526 H3520 0.930 . S
C3526 C3527 1.355 . S
C3526 C3528 1.415 . S
C3527 C3526 1.355 . S
C3527 C3529 1.419 . S
C3528 C3526 1.415 . S
C3528 C3533 1.425 . S
C3528 C3535 1.409 . S
C3529 H3521 0.930 . S
C3529 C3527 1.419 . S
C3529 C3530 1.362 . S
C3530 H3522 0.930 . S
C3530 C3529 1.362 . S
C3530 C3533 1.409 . S
C3531 H3523 0.930 . S
C3531 C3532 1.355 . S
C3531 C3533 1.415 . S
C3532 C3531 1.355 . S
C3532 C3534 1.419 . S
C3533 C3528 1.425 . S
C3533 C3530 1.409 . S
C3533 C3531 1.415 . S
C3534 H3524 0.930 . S
C3534 C3532 1.419 . S
C3534 C3535 1.362 . S
C3535 H3525 0.930 . S
C3535 C3528 1.409 . S
C3535 C3534 1.362 . S
H3536 C3542 0.930 . S
H3537 C3545 0.930 . S
H3538 C3546 0.930 . S
H3539 C3547 0.930 . S
H3540 C3550 0.930 . S
H3541 C3551 0.930 . S
C3542 H3536 0.930 . S
C3542 C3543 1.355 . S
C3542 C3544 1.415 . S
C3543 C3542 1.355 . S
C3543 C3545 1.419 . S
C3544 C3542 1.415 . S
C3544 C3549 1.425 . S
C3544 C3551 1.409 . S
C3545 H3537 0.930 . S
C3545 C3543 1.419 . S
C3545 C3546 1.362 . S
C3546 H3538 0.930 . S
C3546 C3545 1.362 . S
C3546 C3549 1.409 . S
C3547 H3539 0.930 . S
C3547 C3548 1.355 . S
C3547 C3549 1.415 . S
C3548 C3547 1.355 . S
C3548 C3550 1.419 . S
C3549 C3544 1.425 . S
C3549 C3546 1.409 . S
C3549 C3547 1.415 . S
C3550 H3540 0.930 . S
C3550 C3548 1.419 . S
C3550 C3551 1.362 . S
C3551 H3541 0.930 . S
C3551 C3544 1.409 . S
C3551 C3550 1.362 . S
H3552 C3558 0.930 . S
H3553 C3561 0.930 . S
H3554 C3562 0.930 . S
H3555 C3563 0.949 . S
H3556 C3566 0.930 . S
H3557 C3567 0.930 . S
C3558 H3552 0.930 . S
C3558 C3559 1.355 1_554 S
C3558 C3560 1.415 . S
C3559 C3558 1.355 1_556 S
C3559 C3561 1.419 . S
C3560 C3558 1.415 . S
C3560 C3565 1.425 1_554 S
C3560 C3567 1.409 . S
C3561 H3553 0.930 . S
C3561 C3559 1.419 . S
C3561 C3562 1.362 . S
C3562 H3554 0.930 . S
C3562 C3561 1.362 . S
C3562 C3565 1.409 . S
C3563 H3555 0.949 . S
C3563 C3564 1.336 1_556 S
C3563 C3565 1.415 . S
C3564 C3563 1.336 1_554 S
C3564 C3566 1.419 . S
C3565 C3560 1.425 1_556 S
C3565 C3562 1.409 . S
C3565 C3563 1.415 . S
C3566 H3556 0.930 . S
C3566 C3564 1.419 . S
C3566 C3567 1.362 . S
C3567 H3557 0.930 . S
C3567 C3560 1.409 . S
C3567 C3566 1.362 . S
H3568 C3574 0.930 . S
H3569 C3577 0.909 1_455 S
H3570 C3578 0.930 . S
H3571 C3579 0.930 . S
H3572 C3582 0.930 . S
H3573 C3583 0.930 . S
C3574 H3568 0.930 . S
C3574 C3575 1.355 . S
C3574 C3576 1.415 . S
C3575 C3574 1.355 . S
C3575 C3577 1.419 . S
C3576 C3574 1.415 . S
C3576 C3581 1.425 . S
C3576 C3583 1.409 . S
C3577 H3569 0.909 1_655 S
C3577 C3575 1.419 . S
C3577 C3578 1.362 . S
C3578 H3570 0.930 . S
C3578 C3577 1.362 . S
C3578 C3581 1.409 . S
C3579 H3571 0.930 . S
C3579 C3580 1.355 . S
C3579 C3581 1.415 . S
C3580 C3579 1.355 . S
C3580 C3582 1.419 . S
C3581 C3576 1.425 . S
C3581 C3578 1.409 . S
C3581 C3579 1.415 . S
C3582 H3572 0.930 . S
C3582 C3580 1.419 . S
C3582 C3583 1.362 . S
C3583 H3573 0.930 . S
C3583 C3576 1.409 . S
C3583 C3582 1.362 . S
H3584 C3590 0.930 . S
H3585 C3593 0.930 . S
H3586 C3594 0.930 . S
H3587 C3595 0.930 . S
H3588 C3598 0.930 . S
H3589 C3599 0.930 . S
C3590 H3584 0.930 . S
C3590 C3591 1.355 . S
C3590 C3592 1.415 . S
C3591 C3590 1.355 . S
C3591 C3593 1.419 . S
C3592 C3590 1.415 . S
C3592 C3597 1.425 . S
C3592 C3599 1.409 . S
C3593 H3585 0.930 . S
C3593 C3591 1.419 . S
C3593 C3594 1.362 . S
C3594 H3586 0.930 . S
C3594 C3593 1.362 . S
C3594 C3597 1.409 . S
C3595 H3587 0.930 . S
C3595 C3596 1.355 . S
C3595 C3597 1.415 . S
C3596 C3595 1.355 . S
C3596 C3598 1.419 . S
C3597 C3592 1.425 . S
C3597 C3594 1.409 . S
C3597 C3595 1.415 . S
C3598 H3588 0.930 . S
C3598 C3596 1.419 . S
C3598 C3599 1.362 . S
C3599 H3589 0.930 . S
C3599 C3592 1.409 . S
C3599 C3598 1.362 . S
H3600 C3606 0.930 . S
H3601 C3609 0.930 . S
H3602 C3610 0.930 . S
H3603 C3611 0.930 . S
H3604 C3614 0.930 . S
H3605 C3615 0.930 . S
C3606 H3600 0.930 . S
C3606 C3607 1.355 . S
C3606 C3608 1.415 . S
C3607 C3606 1.355 . S
C3607 C3609 1.419 . S
C3608 C3606 1.415 . S
C3608 C3613 1.425 . S
C3608 C3615 1.409 . S
C3609 H3601 0.930 . S
C3609 C3607 1.419 . S
C3609 C3610 1.362 . S
C3610 H3602 0.930 . S
C3610 C3609 1.362 . S
C3610 C3613 1.409 . S
C3611 H3603 0.930 . S
C3611 C3612 1.355 . S
C3611 C3613 1.415 . S
C3612 C3611 1.355 . S
C3612 C3614 1.419 . S
C3613 C3608 1.425 . S
C3613 C3610 1.409 . S
C3613 C3611 1.415 . S
C3614 H3604 0.930 . S
C3614 C3612 1.419 . S
C3614 C3615 1.362 . S
C3615 H3605 0.930 . S
C3615 C3608 1.409 . S
C3615 C3614 1.362 . S
H3616 C3622 0.930 . S
H3617 C3625 0.930 . S
H3618 C3626 0.935 . S
H3619 C3627 0.930 . S
H3620 C3630 0.930 . S
H3621 C3631 0.930 . S
C3622 H3616 0.930 . S
C3622 C3623 1.355 . S
C3622 C3624 1.415 . S
C3623 C3622 1.355 . S
C3623 C3625 1.419 . S
C3624 C3622 1.415 . S
C3624 C3629 1.425 . S
C3624 C3631 1.409 . S
C3625 H3617 0.930 . S
C3625 C3623 1.419 . S
C3625 C3626 1.362 . S
C3626 H3618 0.935 . S
C3626 C3625 1.362 . S
C3626 C3629 1.409 . S
C3627 H3619 0.930 . S
C3627 C3628 1.355 . S
C3627 C3629 1.415 . S
C3628 C3627 1.355 . S
C3628 C3630 1.419 . S
C3629 C3624 1.425 . S
C3629 C3626 1.409 . S
C3629 C3627 1.415 . S
C3630 H3620 0.930 . S
C3630 C3628 1.419 . S
C3630 C3631 1.362 . S
C3631 H3621 0.930 . S
C3631 C3624 1.409 . S
C3631 C3630 1.362 . S
H3632 C3638 0.930 . S
H3633 C3641 0.930 . S
H3634 C3642 0.930 . S
H3635 C3643 0.930 . S
H3636 C3646 0.930 . S
H3637 C3647 0.930 . S
C3638 H3632 0.930 . S
C3638 C3639 1.355 . S
C3638 C3640 1.415 . S
C3639 C3638 1.355 . S
C3639 C3641 1.419 . S
C3640 C3638 1.415 . S
C3640 C3645 1.425 . S
C3640 C3647 1.409 . S
C3641 H3633 0.930 . S
C3641 C3639 1.419 . S
C3641 C3642 1.362 . S
C3642 H3634 0.930 . S
C3642 C3641 1.362 . S
C3642 C3645 1.409 . S
C3643 H3635 0.930 . S
C3643 C3644 1.355 . S
C3643 C3645 1.415 . S
C3644 C3643 1.355 . S
C3644 C3646 1.419 . S
C3645 C3640 1.425 . S
C3645 C3642 1.409 . S
C3645 C3643 1.415 . S
C3646 H3636 0.930 . S
C3646 C3644 1.419 . S
C3646 C3647 1.362 . S
C3647 H3637 0.930 . S
C3647 C3640 1.409 . S
C3647 C3646 1.362 . S
H3648 C3654 0.930 . S
H3649 C3657 0.930 . S
H3650 C3658 0.930 . S
H3651 C3659 0.930 . S
H3652 C3662 0.930 . S
H3653 C3663 0.930 . S
C3654 H3648 0.930 . S
C3654 C3655 1.355 . S
C3654 C3656 1.415 . S
C3655 C3654 1.355 . S
C3655 C3657 1.419 . S
C3656 C3654 1.415 . S
C3656 C3661 1.425 . S
C3656 C3663 1.409 . S
C3657 H3649 0.930 . S
C3657 C3655 1.419 . S
C3657 C3658 1.362 . S
C3658 H3650 0.930 . S
C3658 C3657 1.362 . S
C3658 C3661 1.409 . S
C3659 H3651 0.930 . S
C3659 C3660 1.355 . S
C3659 C3661 1.415 . S
C3660 C3659 1.355 . S
C3660 C3662 1.419 . S
C3661 C3656 1.425 . S
C3661 C3658 1.409 . S
C3661 C3659 1.415 . S
C3662 H3652 0.930 . S
C3662 C3660 1.419 . S
C3662 C3663 1.362 . S
C3663 H3653 0.930 . S
C3663 C3656 1.409 . S
C3663 C3662 1.362 . S
H3664 C3670 0.930 . S
H3665 C3673 0.930 . S
H3666 C3674 0.930 . S
H3667 C3675 0.930 . S
H3668 C3678 0.930 . S
H3669 C3679 0.930 . S
C3670 H3664 0.930 . S
C3670 C3671 1.355 . S
C3670 C3672 1.415 . S
C3671 C3670 1.355 . S
C3671 C3673 1.419 . S
C3672 C3670 1.415 . S
C3672 C3677 1.425 . S
C3672 C3679 1.409 . S
C3673 H3665 0.930 . S
C3673 C3671 1.419 . S
C3673 C3674 1.362 . S
C3674 H3666 0.930 . S
C3674 C3673 1.362 . S
C3674 C3677 1.409 . S
C3675 H3667 0.930 . S
C3675 C3676 1.355 . S
C3675 C3677 1.415 . S
C3676 C3675 1.355 . S
C3676 C3678 1.419 . S
C3677 C3672 1.425 . S
C3677 C3674 1.409 . S
C3677 C3675 1.415 . S
C3678 H3668 0.930 . S
C3678 C3676 1.419 . S
C3678 C3679 1.362 . S
C3679 H3669 0.930 . S
C3679 C3672 1.409 . S
C3679 C3678 1.362 . S
H3680 C3686 0.930 . S
H3681 C3689 0.930 . S
H3682 C3690 0.930 . S
H3683 C3691 0.930 . S
H3684 C3694 0.930 . S
H3685 C3695 0.930 . S
C3686 H3680 0.930 . S
C3686 C3687 1.355 . S
C3686 C3688 1.415 . S
C3687 C3686 1.355 . S
C3687 C3689 1.419 . S
C3688 C3686 1.415 . S
C3688 C3693 1.425 . S
C3688 C3695 1.409 . S
C3689 H3681 0.930 . S
C3689 C3687 1.419 . S
C3689 C3690 1.362 . S
C3690 H3682 0.930 . S
C3690 C3689 1.362 . S
C3690 C3693 1.409 . S
C3691 H3683 0.930 . S
C3691 C3692 1.355 . S
C3691 C3693 1.415 . S
C3692 C3691 1.355 . S
C3692 C3694 1.419 . S
C3693 C3688 1.425 . S
C3693 C3690 1.409 . S
C3693 C3691 1.415 . S
C3694 H3684 0.930 . S
C3694 C3692 1.419 . S
C3694 C3695 1.362 . S
C3695 H3685 0.930 . S
C3695 C3688 1.409 . S
C3695 C3694 1.362 . S
H3696 C3702 0.930 . S
H3697 C3705 0.930 . S
H3698 C3706 0.930 . S
H3699 C3707 0.930 . S
H3700 C3710 0.930 . S
H3701 C3711 0.930 . S
C3702 H3696 0.930 . S
C3702 C3703 1.355 . S
C3702 C3704 1.415 . S
C3703 C3702 1.355 . S
C3703 C3705 1.419 . S
C3704 C3702 1.415 . S
C3704 C3709 1.425 . S
C3704 C3711 1.409 . S
C3705 H3697 0.930 . S
C3705 C3703 1.419 . S
C3705 C3706 1.362 . S
C3706 H3698 0.930 . S
C3706 C3705 1.362 . S
C3706 C3709 1.409 . S
C3707 H3699 0.930 . S
C3707 C3708 1.355 . S
C3707 C3709 1.415 . S
C3708 C3707 1.355 . S
C3708 C3710 1.419 . S
C3709 C3704 1.425 . S
C3709 C3706 1.409 . S
C3709 C3707 1.415 . S
C3710 H3700 0.930 . S
C3710 C3708 1.419 . S
C3710 C3711 1.362 . S
C3711 H3701 0.930 . S
C3711 C3704 1.409 . S
C3711 C3710 1.362 . S
H3712 C3718 0.930 . S
H3713 C3721 0.930 . S
H3714 C3722 0.930 . S
H3715 C3723 0.930 . S
H3716 C3726 0.930 . S
H3717 C3727 0.930 . S
C3718 H3712 0.930 . S
C3718 C3719 1.355 . S
C3718 C3720 1.415 . S
C3719 C3718 1.355 . S
C3719 C3721 1.419 . S
C3720 C3718 1.415 . S
C3720 C3725 1.425 . S
C3720 C3727 1.409 . S
C3721 H3713 0.930 . S
C3721 C3719 1.419 . S
C3721 C3722 1.362 . S
C3722 H3714 0.930 . S
C3722 C3721 1.362 . S
C3722 C3725 1.409 . S
C3723 H3715 0.930 . S
C3723 C3724 1.355 . S
C3723 C3725 1.415 . S
C3724 C3723 1.355 . S
C3724 C3726 1.419 . S
C3725 C3720 1.425 . S
C3725 C3722 1.409 . S
C3725 C3723 1.415 . S
C3726 H3716 0.930 . S
C3726 C3724 1.419 . S
C3726 C3727 1.362 . S
C3727 H3717 0.930 . S
C3727 C3720 1.409 . S
C3727 C3726 1.362 . S
H3728 C3734 0.930 . S
H3729 C3737 0.930 . S
H3730 C3738 0.930 . S
H3731 C3739 0.930 . S
H3732 C3742 0.930 . S
H3733 C3743 0.930 . S
C3734 H3728 0.930 . S
C3734 C3735 1.355 . S
C3734 C3736 1.415 . S
C3735 C3734 1.355 . S
C3735 C3737 1.419 . S
C3736 C3734 1.415 . S
C3736 C3741 1.425 . S
C3736 C3743 1.409 . S
C3737 H3729 0.930 . S
C3737 C3735 1.419 . S
C3737 C3738 1.362 . S
C3738 H3730 0.930 . S
C3738 C3737 1.362 . S
C3738 C3741 1.409 . S
C3739 H3731 0.930 . S
C3739 C3740 1.355 . S
C3739 C3741 1.415 . S
C3740 C3739 1.355 . S
C3740 C3742 1.419 . S
C3741 C3736 1.425 . S
C3741 C3738 1.409 . S
C3741 C3739 1.415 . S
C3742 H3732 0.930 . S
C3742 C3740 1.419 . S
C3742 C3743 1.362 . S
C3743 H3733 0.930 . S
C3743 C3736 1.409 . S
C3743 C3742 1.362 . S
H3744 C3750 0.930 . S
H3745 C3753 0.930 . S
H3746 C3754 0.930 . S
H3747 C3755 0.930 . S
H3748 C3758 0.930 . S
H3749 C3759 0.930 . S
C3750 H3744 0.930 . S
C3750 C3751 1.355 . S
C3750 C3752 1.415 . S
C3751 C3750 1.355 . S
C3751 C3753 1.419 . S
C3752 C3750 1.415 . S
C3752 C3757 1.425 . S
C3752 C3759 1.409 . S
C3753 H3745 0.930 . S
C3753 C3751 1.419 . S
C3753 C3754 1.362 . S
C3754 H3746 0.930 . S
C3754 C3753 1.362 . S
C3754 C3757 1.409 . S
C3755 H3747 0.930 . S
C3755 C3756 1.355 . S
C3755 C3757 1.415 . S
C3756 C3755 1.355 . S
C3756 C3758 1.419 . S
C3757 C3752 1.425 . S
C3757 C3754 1.409 . S
C3757 C3755 1.415 . S
C3758 H3748 0.930 . S
C3758 C3756 1.419 . S
C3758 C3759 1.362 . S
C3759 H3749 0.930 . S
C3759 C3752 1.409 . S
C3759 C3758 1.362 . S
H3760 C3766 0.930 . S
H3761 C3769 0.930 . S
H3762 C3770 0.930 . S
H3763 C3771 0.930 . S
H3764 C3774 0.930 . S
H3765 C3775 0.930 . S
C3766 H3760 0.930 . S
C3766 C3767 1.355 . S
C3766 C3768 1.415 . S
C3767 C3766 1.355 . S
C3767 C3769 1.419 . S
C3768 C3766 1.415 . S
C3768 C3773 1.425 . S
C3768 C3775 1.409 . S
C3769 H3761 0.930 . S
C3769 C3767 1.419 . S
C3769 C3770 1.362 . S
C3770 H3762 0.930 . S
C3770 C3769 1.362 . S
C3770 C3773 1.409 . S
C3771 H3763 0.930 . S
C3771 C3772 1.355 . S
C3771 C3773 1.415 . S
C3772 C3771 1.355 . S
C3772 C3774 1.419 . S
C3773 C3768 1.425 . S
C3773 C3770 1.409 . S
C3773 C3771 1.415 . S
C3774 H3764 0.930 . S
C3774 C3772 1.419 . S
C3774 C3775 1.362 . S
C3775 H3765 0.930 . S
C3775 C3768 1.409 . S
C3775 C3774 1.362 . S
H3776 C3782 0.930 . S
H3777 C3785 0.930 . S
H3778 C3786 0.930 . S
H3779 C3787 0.930 . S
H3780 C3790 0.930 . S
H3781 C3791 0.930 . S
C3782 H3776 0.930 . S
C3782 C3783 1.355 . S
C3782 C3784 1.415 . S
C3783 C3782 1.355 . S
C3783 C3785 1.419 . S
C3784 C3782 1.415 . S
C3784 C3789 1.425 . S
C3784 C3791 1.409 . S
C3785 H3777 0.930 . S
C3785 C3783 1.419 . S
C3785 C3786 1.362 . S
C3786 H3778 0.930 . S
C3786 C3785 1.362 . S
C3786 C3789 1.409 . S
C3787 H3779 0.930 . S
C3787 C3788 1.355 . S
C3787 C3789 1.415 . S
C3788 C3787 1.355 . S
C3788 C3790 1.419 . S
C3789 C3784 1.425 . S
C3789 C3786 1.409 . S
C3789 C3787 1.415 . S
C3790 H3780 0.930 . S
C3790 C3788 1.419 . S
C3790 C3791 1.362 . S
C3791 H3781 0.930 . S
C3791 C3784 1.409 . S
C3791 C3790 1.362 . S
H3792 C3798 0.930 . S
H3793 C3801 0.930 . S
H3794 C3802 0.930 . S
H3795 C3803 0.930 . S
H3796 C3806 0.930 . S
H3797 C3807 0.930 . S
C3798 H3792 0.930 . S
C3798 C3799 1.355 . S
C3798 C3800 1.415 . S
C3799 C3798 1.355 . S
C3799 C3801 1.419 . S
C3800 C3798 1.415 . S
C3800 C3805 1.425 . S
C3800 C3807 1.409 . S
C3801 H3793 0.930 . S
C3801 C3799 1.419 . S
C3801 C3802 1.362 . S
C3802 H3794 0.930 . S
C3802 C3801 1.362 . S
C3802 C3805 1.409 . S
C3803 H3795 0.930 . S
C3803 C3804 1.355 . S
C3803 C3805 1.415 . S
C3804 C3803 1.355 . S
C3804 C3806 1.419 . S
C3805 C3800 1.425 . S
C3805 C3802 1.409 . S
C3805 C3803 1.415 . S
C3806 H3796 0.930 . S
C3806 C3804 1.419 . S
C3806 C3807 1.362 . S
C3807 H3797 0.930 . S
C3807 C3800 1.409 . S
C3807 C3806 1.362 . S
H3808 C3814 0.930 . S
H3809 C3817 0.930 . S
H3810 C3818 0.930 . S
H3811 C3819 0.930 . S
H3812 C3822 0.930 . S
H3813 C3823 0.930 . S
C3814 H3808 0.930 . S
C3814 C3815 1.355 . S
C3814 C3816 1.415 . S
C3815 C3814 1.355 . S
C3815 C3817 1.419 . S
C3816 C3814 1.415 . S
C3816 C3821 1.425 . S
C3816 C3823 1.409 . S
C3817 H3809 0.930 . S
C3817 C3815 1.419 . S
C3817 C3818 1.362 . S
C3818 H3810 0.930 . S
C3818 C3817 1.362 . S
C3818 C3821 1.409 . S
C3819 H3811 0.930 . S
C3819 C3820 1.355 . S
C3819 C3821 1.415 . S
C3820 C3819 1.355 . S
C3820 C3822 1.419 . S
C3821 C3816 1.425 . S
C3821 C3818 1.409 . S
C3821 C3819 1.415 . S
C3822 H3812 0.930 . S
C3822 C3820 1.419 . S
C3822 C3823 1.362 . S
C3823 H3813 0.930 . S
C3823 C3816 1.409 . S
C3823 C3822 1.362 . S
H3824 C3830 0.930 1_565 S
H3825 C3833 0.930 . S
H3826 C3834 0.930 . S
H3827 C3835 0.930 1_556 S
H3828 C3838 0.925 1_565 S
H3829 C3839 0.948 . S
C3830 H3824 0.930 1_545 S
C3830 C3831 1.355 . S
C3830 C3832 1.415 . S
C3831 C3830 1.355 . S
C3831 C3833 1.419 1_554 S
C3832 C3830 1.415 . S
C3832 C3837 1.425 . S
C3832 C3839 1.386 1_545 S
C3833 H3825 0.930 . S
C3833 C3831 1.419 1_556 S
C3833 C3834 1.362 . S
C3834 H3826 0.930 . S
C3834 C3833 1.362 . S
C3834 C3837 1.409 1_556 S
C3835 H3827 0.930 1_554 S
C3835 C3836 1.355 . S
C3835 C3837 1.415 . S
C3836 C3835 1.355 . S
C3836 C3838 1.419 . S
C3837 C3832 1.425 . S
C3837 C3834 1.409 1_554 S
C3837 C3835 1.415 . S
C3838 H3828 0.925 1_545 S
C3838 C3836 1.419 . S
C3838 C3839 1.371 1_545 S
C3839 H3829 0.948 . S
C3839 C3832 1.386 1_565 S
C3839 C3838 1.371 1_565 S
H3840 C3846 0.930 . S
H3841 C3849 0.930 . S
H3842 C3850 0.930 . S
H3843 C3851 0.930 . S
H3844 C3854 0.930 . S
H3845 C3855 0.930 . S
C3846 H3840 0.930 . S
C3846 C3847 1.355 . S
C3846 C3848 1.415 . S
C3847 C3846 1.355 . S
C3847 C3849 1.419 . S
C3848 C3846 1.415 . S
C3848 C3853 1.425 . S
C3848 C3855 1.409 . S
C3849 H3841 0.930 . S
C3849 C3847 1.419 . S
C3849 C3850 1.362 . S
C3850 H3842 0.930 . S
C3850 C3849 1.362 . S
C3850 C3853 1.409 . S
C3851 H3843 0.930 . S
C3851 C3852 1.355 . S
C3851 C3853 1.415 . S
C3852 C3851 1.355 . S
C3852 C3854 1.419 . S
C3853 C3848 1.425 . S
C3853 C3850 1.409 . S
C3853 C3851 1.415 . S
C3854 H3844 0.930 . S
C3854 C3852 1.419 . S
C3854 C3855 1.362 . S
C3855 H3845 0.930 . S
C3855 C3848 1.409 . S
C3855 C3854 1.362 . S
H3856 C3862 0.930 . S
H3857 C3865 0.930 . S
H3858 C3866 0.930 . S
H3859 C3867 0.930 . S
H3860 C3870 0.930 . S
H3861 C3871 0.930 . S
C3862 H3856 0.930 . S
C3862 C3863 1.355 . S
C3862 C3864 1.415 . S
C3863 C3862 1.355 . S
C3863 C3865 1.419 . S
C3864 C3862 1.415 . S
C3864 C3869 1.425 . S
C3864 C3871 1.409 . S
C3865 H3857 0.930 . S
C3865 C3863 1.419 . S
C3865 C3866 1.362 . S
C3866 H3858 0.930 . S
C3866 C3865 1.362 . S
C3866 C3869 1.409 . S
C3867 H3859 0.930 . S
C3867 C3868 1.355 . S
C3867 C3869 1.415 . S
C3868 C3867 1.355 . S
C3868 C3870 1.419 . S
C3869 C3864 1.425 . S
C3869 C3866 1.409 . S
C3869 C3867 1.415 . S
C3870 H3860 0.930 . S
C3870 C3868 1.419 . S
C3870 C3871 1.362 . S
C3871 H3861 0.930 . S
C3871 C3864 1.409 . S
C3871 C3870 1.362 . S
H3872 C3878 0.930 . S
H3873 C3881 0.930 . S
H3874 C3882 0.930 . S
H3875 C3883 0.930 . S
H3876 C3886 0.930 . S
H3877 C3887 0.930 . S
C3878 H3872 0.930 . S
C3878 C3879 1.355 . S
C3878 C3880 1.415 . S
C3879 C3878 1.355 . S
C3879 C3881 1.419 . S
C3880 C3878 1.415 . S
C3880 C3885 1.425 . S
C3880 C3887 1.409 . S
C3881 H3873 0.930 . S
C3881 C3879 1.419 . S
C3881 C3882 1.362 . S
C3882 H3874 0.930 . S
C3882 C3881 1.362 . S
C3882 C3885 1.409 . S
C3883 H3875 0.930 . S
C3883 C3884 1.355 . S
C3883 C3885 1.415 . S
C3884 C3883 1.355 . S
C3884 C3886 1.419 . S
C3885 C3880 1.425 . S
C3885 C3882 1.409 . S
C3885 C3883 1.415 . S
C3886 H3876 0.930 . S
C3886 C3884 1.419 . S
C3886 C3887 1.362 . S
C3887 H3877 0.930 . S
C3887 C3880 1.409 . S
C3887 C3886 1.362 . S
H3888 C3894 0.930 . S
H3889 C3897 0.930 . S
H3890 C3898 0.930 . S
H3891 C3899 0.930 . S
H3892 C3902 0.930 . S
H3893 C3903 0.930 . S
C3894 H3888 0.930 . S
C3894 C3895 1.355 . S
C3894 C3896 1.415 . S
C3895 C3894 1.355 . S
C3895 C3897 1.419 . S
C3896 C3894 1.415 . S
C3896 C3901 1.425 . S
C3896 C3903 1.409 . S
C3897 H3889 0.930 . S
C3897 C3895 1.419 . S
C3897 C3898 1.362 . S
C3898 H3890 0.930 . S
C3898 C3897 1.362 . S
C3898 C3901 1.409 . S
C3899 H3891 0.930 . S
C3899 C3900 1.355 . S
C3899 C3901 1.415 . S
C3900 C3899 1.355 . S
C3900 C3902 1.419 . S
C3901 C3896 1.425 . S
C3901 C3898 1.409 . S
C3901 C3899 1.415 . S
C3902 H3892 0.930 . S
C3902 C3900 1.419 . S
C3902 C3903 1.362 . S
C3903 H3893 0.930 . S
C3903 C3896 1.409 . S
C3903 C3902 1.362 . S
H3904 C3910 0.930 . S
H3905 C3913 0.930 . S
H3906 C3914 0.930 . S
H3907 C3915 0.930 . S
H3908 C3918 0.930 . S
H3909 C3919 0.930 . S
C3910 H3904 0.930 . S
C3910 C3911 1.355 . S
C3910 C3912 1.415 . S
C3911 C3910 1.355 . S
C3911 C3913 1.419 . S
C3912 C3910 1.415 . S
C3912 C3917 1.425 . S
C3912 C3919 1.409 . S
C3913 H3905 0.930 . S
C3913 C3911 1.419 . S
C3913 C3914 1.362 . S
C3914 H3906 0.930 . S
C3914 C3913 1.362 . S
C3914 C3917 1.409 . S
C3915 H3907 0.930 . S
C3915 C3916 1.355 . S
C3915 C3917 1.415 . S
C3916 C3915 1.355 . S
C3916 C3918 1.419 . S
C3917 C3912 1.425 . S
C3917 C3914 1.409 . S
C3917 C3915 1.415 . S
C3918 H3908 0.930 . S
C3918 C3916 1.419 . S
C3918 C3919 1.362 . S
C3919 H3909 0.930 . S
C3919 C3912 1.409 . S
C3919 C3918 1.362 . S
H3920 C3926 0.930 . S
H3921 C3929 0.930 . S
H3922 C3930 0.930 . S
H3923 C3931 0.930 . S
H3924 C3934 0.930 . S
H3925 C3935 0.930 . S
C3926 H3920 0.930 . S
C3926 C3927 1.355 . S
C3926 C3928 1.415 . S
C3927 C3926 1.355 . S
C3927 C3929 1.419 . S
C3928 C3926 1.415 . S
C3928 C3933 1.425 . S
C3928 C3935 1.409 . S
C3929 H3921 0.930 . S
C3929 C3927 1.419 . S
C3929 C3930 1.362 . S
C3930 H3922 0.930 . S
C3930 C3929 1.362 . S
C3930 C3933 1.409 . S
C3931 H3923 0.930 . S
C3931 C3932 1.355 . S
C3931 C3933 1.415 . S
C3932 C3931 1.355 . S
C3932 C3934 1.419 . S
C3933 C3928 1.425 . S
C3933 C3930 1.409 . S
C3933 C3931 1.415 . S
C3934 H3924 0.930 . S
C3934 C3932 1.419 . S
C3934 C3935 1.362 . S
C3935 H3925 0.930 . S
C3935 C3928 1.409 . S
C3935 C3934 1.362 . S
H3936 C3942 0.930 . S
H3937 C3945 0.930 . S
H3938 C3946 0.930 . S
H3939 C3947 0.930 . S
H3940 C3950 0.930 . S
H3941 C3951 0.930 . S
C3942 H3936 0.930 . S
C3942 C3943 1.355 . S
C3942 C3944 1.415 . S
C3943 C3942 1.355 . S
C3943 C3945 1.419 . S
C3944 C3942 1.415 . S
C3944 C3949 1.425 . S
C3944 C3951 1.409 . S
C3945 H3937 0.930 . S
C3945 C3943 1.419 . S
C3945 C3946 1.362 . S
C3946 H3938 0.930 . S
C3946 C3945 1.362 . S
C3946 C3949 1.409 . S
C3947 H3939 0.930 . S
C3947 C3948 1.355 . S
C3947 C3949 1.415 . S
C3948 C3947 1.355 . S
C3948 C3950 1.419 . S
C3949 C3944 1.425 . S
C3949 C3946 1.409 . S
C3949 C3947 1.415 . S
C3950 H3940 0.930 . S
C3950 C3948 1.419 . S
C3950 C3951 1.362 . S
C3951 H3941 0.930 . S
C3951 C3944 1.409 . S
C3951 C3950 1.362 . S
H3952 C3958 0.930 . S
H3953 C3961 0.930 . S
H3954 C3962 0.930 . S
H3955 C3963 0.930 . S
H3956 C3966 0.930 . S
H3957 C3967 0.930 . S
C3958 H3952 0.930 . S
C3958 C3959 1.355 . S
C3958 C3960 1.415 . S
C3959 C3958 1.355 . S
C3959 C3961 1.419 . S
C3960 C3958 1.415 . S
C3960 C3965 1.425 . S
C3960 C3967 1.409 . S
C3961 H3953 0.930 . S
C3961 C3959 1.419 . S
C3961 C3962 1.362 . S
C3962 H3954 0.930 . S
C3962 C3961 1.362 . S
C3962 C3965 1.409 . S
C3963 H3955 0.930 . S
C3963 C3964 1.355 . S
C3963 C3965 1.415 . S
C3964 C3963 1.355 . S
C3964 C3966 1.419 . S
C3965 C3960 1.425 . S
C3965 C3962 1.409 . S
C3965 C3963 1.415 . S
C3966 H3956 0.930 . S
C3966 C3964 1.419 . S
C3966 C3967 1.362 . S
C3967 H3957 0.930 . S
C3967 C3960 1.409 . S
C3967 C3966 1.362 . S
H3968 C3974 0.930 . S
H3969 C3977 0.930 . S
H3970 C3978 0.930 . S
H3971 C3979 0.930 1_554 S
H3972 C3982 0.930 . S
H3973 C3983 0.930 . S
C3974 H3968 0.930 . S
C3974 C3975 1.355 . S
C3974 C3976 1.415 . S
C3975 C3974 1.355 . S
C3975 C3977 1.419 . S
C3976 C3974 1.415 . S
C3976 C3981 1.425 . S
C3976 C3983 1.409 . S
C3977 H3969 0.930 . S
C3977 C3975 1.419 . S
C3977 C3978 1.362 . S
C3978 H3970 0.930 . S
C3978 C3977 1.362 . S
C3978 C3981 1.409 . S
C3979 H3971 0.930 1_556 S
C3979 C3980 1.355 . S
C3979 C3981 1.415 . S
C3980 C3979 1.355 . S
C3980 C3982 1.419 . S
C3981 C3976 1.425 . S
C3981 C3978 1.409 . S
C3981 C3979 1.415 . S
C3982 H3972 0.930 . S
C3982 C3980 1.419 . S
C3982 C3983 1.362 . S
C3983 H3973 0.930 . S
C3983 C3976 1.409 . S
C3983 C3982 1.362 . S
H3984 C3990 0.930 . S
H3985 C3993 0.930 . S
H3986 C3994 0.930 . S
H3987 C3995 0.930 . S
H3988 C3998 0.930 . S
H3989 C3999 0.930 . S
C3990 H3984 0.930 . S
C3990 C3991 1.355 . S
C3990 C3992 1.415 . S
C3991 C3990 1.355 . S
C3991 C3993 1.419 . S
C3992 C3990 1.415 . S
C3992 C3997 1.425 . S
C3992 C3999 1.409 . S
C3993 H3985 0.930 . S
C3993 C3991 1.419 . S
C3993 C3994 1.362 . S
C3994 H3986 0.930 . S
C3994 C3993 1.362 . S
C3994 C3997 1.409 . S
C3995 H3987 0.930 . S
C3995 C3996 1.355 . S
C3995 C3997 1.415 . S
C3996 C3995 1.355 . S
C3996 C3998 1.419 . S
C3997 C3992 1.425 . S
C3997 C3994 1.409 . S
C3997 C3995 1.415 . S
C3998 H3988 0.930 . S
C3998 C3996 1.419 . S
C3998 C3999 1.362 . S
C3999 H3989 0.930 . S
C3999 C3992 1.409 . S
C3999 C3998 1.362 . S
H4000 C4006 0.930 . S
H4001 C4009 0.930 . S
H4002 C4010 0.930 . S
H4003 C4011 0.930 . S
H4004 C4014 0.930 . S
H4005 C4015 0.930 . S
C4006 H4000 0.930 . S
C4006 C4007 1.355 . S
C4006 C4008 1.415 . S
C4007 C4006 1.355 . S
C4007 C4009 1.419 . S
C4008 C4006 1.415 . S
C4008 C4013 1.425 . S
C4008 C4015 1.409 . S
C4009 H4001 0.930 . S
C4009 C4007 1.419 . S
C4009 C4010 1.362 . S
C4010 H4002 0.930 . S
C4010 C4009 1.362 . S
C4010 C4013 1.409 . S
C4011 H4003 0.930 . S
C4011 C4012 1.355 . S
C4011 C4013 1.415 . S
C4012 C4011 1.355 . S
C4012 C4014 1.419 . S
C4013 C4008 1.425 . S
C4013 C4010 1.409 . S
C4013 C4011 1.415 . S
C4014 H4004 0.930 . S
C4014 C4012 1.419 . S
C4014 C4015 1.362 . S
C4015 H4005 0.930 . S
C4015 C4008 1.409 . S
C4015 C4014 1.362 . S
H4016 C4022 0.930 . S
H4017 C4025 0.930 . S
H4018 C4026 0.930 . S
H4019 C4027 0.930 . S
H4020 C4030 0.930 . S
H4021 C4031 0.930 . S
C4022 H4016 0.930 . S
C4022 C4023 1.355 . S
C4022 C4024 1.415 . S
C4023 C4022 1.355 . S
C4023 C4025 1.419 . S
C4024 C4022 1.415 . S
C4024 C4029 1.425 . S
C4024 C4031 1.409 . S
C4025 H4017 0.930 . S
C4025 C4023 1.419 . S
C4025 C4026 1.362 . S
C4026 H4018 0.930 . S
C4026 C4025 1.362 . S
C4026 C4029 1.409 . S
C4027 H4019 0.930 . S
C4027 C4028 1.355 . S
C4027 C4029 1.415 . S
C4028 C4027 1.355 . S
C4028 C4030 1.419 . S
C4029 C4024 1.425 . S
C4029 C4026 1.409 . S
C4029 C4027 1.415 . S
C4030 H4020 0.930 . S
C4030 C4028 1.419 . S
C4030 C4031 1.362 . S
C4031 H4021 0.930 . S
C4031 C4024 1.409 . S
C4031 C4030 1.362 . S
H4032 C4038 0.930 . S
H4033 C4041 0.930 . S
H4034 C4042 0.930 . S
H4035 C4043 0.930 . S
H4036 C4046 0.930 . S
H4037 C4047 0.930 . S
C4038 H4032 0.930 . S
C4038 C4039 1.355 . S
C4038 C4040 1.415 . S
C4039 C4038 1.355 . S
C4039 C4041 1.419 . S
C4040 C4038 1.415 . S
C4040 C4045 1.425 . S
C4040 C4047 1.409 . S
C4041 H4033 0.930 . S
C4041 C4039 1.419 . S
C4041 C4042 1.362 . S
C4042 H4034 0.930 . S
C4042 C4041 1.362 . S
C4042 C4045 1.409 . S
C4043 H4035 0.930 . S
C4043 C4044 1.355 . S
C4043 C4045 1.415 . S
C4044 C4043 1.355 . S
C4044 C4046 1.419 . S
C4045 C4040 1.425 . S
C4045 C4042 1.409 . S
C4045 C4043 1.415 . S
C4046 H4036 0.930 . S
C4046 C4044 1.419 . S
C4046 C4047 1.362 . S
C4047 H4037 0.930 . S
C4047 C4040 1.409 . S
C4047 C4046 1.362 . S
H4048 C4054 0.930 . S
H4049 C4057 0.930 . S
H4050 C4058 0.930 . S
H4051 C4059 0.930 . S
H4052 C4062 0.930 . S
H4053 C4063 0.930 . S
C4054 H4048 0.930 . S
C4054 C4055 1.355 . S
C4054 C4056 1.415 . S
C4055 C4054 1.355 . S
C4055 C4057 1.419 . S
C4056 C4054 1.415 . S
C4056 C4061 1.425 . S
C4056 C4063 1.409 . S
C4057 H4049 0.930 . S
C4057 C4055 1.419 . S
C4057 C4058 1.362 . S
C4058 H4050 0.930 . S
C4058 C4057 1.362 . S
C4058 C4061 1.409 . S
C4059 H4051 0.930 . S
C4059 C4060 1.355 . S
C4059 C4061 1.415 . S
C4060 C4059 1.355 . S
C4060 C4062 1.419 . S
C4061 C4056 1.425 . S
C4061 C4058 1.409 . S
C4061 C4059 1.415 . S
C4062 H4052 0.930 . S
C4062 C4060 1.419 . S
C4062 C4063 1.362 . S
C4063 H4053 0.930 . S
C4063 C4056 1.409 . S
C4063 C4062 1.362 . S
H4064 C4070 0.930 . S
H4065 C4073 0.930 . S
H4066 C4074 0.930 . S
H4067 C4075 0.930 . S
H4068 C4078 0.937 . S
H4069 C4079 0.930 . S
C4070 H4064 0.930 . S
C4070 C4071 1.355 . S
C4070 C4072 1.415 1_655 S
C4071 C4070 1.355 . S
C4071 C4073 1.419 1_655 S
C4072 C4070 1.415 1_455 S
C4072 C4077 1.425 . S
C4072 C4079 1.409 1_455 S
C4073 H4065 0.930 . S
C4073 C4071 1.419 1_455 S
C4073 C4074 1.362 . S
C4074 H4066 0.930 . S
C4074 C4073 1.362 . S
C4074 C4077 1.409 . S
C4075 H4067 0.930 . S
C4075 C4076 1.355 . S
C4075 C4077 1.415 . S
C4076 C4075 1.355 . S
C4076 C4078 1.419 . S
C4077 C4072 1.425 . S
C4077 C4074 1.409 . S
C4077 C4075 1.415 . S
C4078 H4068 0.937 . S
C4078 C4076 1.419 . S
C4078 C4079 1.362 1_455 S
C4079 H4069 0.930 . S
C4079 C4072 1.409 1_655 S
C4079 C4078 1.362 1_655 S
H4080 C4086 0.930 . S
H4081 C4089 0.930 . S
H4082 C4090 0.930 . S
H4083 C4091 0.930 . S
H4084 C4094 0.930 . S
H4085 C4095 0.930 . S
C4086 H4080 0.930 . S
C4086 C4087 1.355 . S
C4086 C4088 1.415 . S
C4087 C4086 1.355 . S
C4087 C4089 1.419 . S
C4088 C4086 1.415 . S
C4088 C4093 1.425 . S
C4088 C4095 1.409 . S
C4089 H4081 0.930 . S
C4089 C4087 1.419 . S
C4089 C4090 1.362 . S
C4090 H4082 0.930 . S
C4090 C4089 1.362 . S
C4090 C4093 1.409 . S
C4091 H4083 0.930 . S
C4091 C4092 1.355 . S
C4091 C4093 1.415 . S
C4092 C4091 1.355 . S
C4092 C4094 1.419 . S
C4093 C4088 1.425 . S
C4093 C4090 1.409 . S
C4093 C4091 1.415 . S
C4094 H4084 0.930 . S
C4094 C4092 1.419 . S
C4094 C4095 1.362 . S
C4095 H4085 0.930 . S
C4095 C4088 1.409 . S
C4095 C4094 1.362 . S
H4096 C4102 0.930 . S
H4097 C4105 0.930 . S
H4098 C4106 0.930 . S
H4099 C4107 0.930 . S
H4100 C4110 0.930 . S
H4101 C4111 0.930 . S
C4102 H4096 0.930 . S
C4102 C4103 1.355 . S
C4102 C4104 1.415 . S
C4103 C4102 1.355 . S
C4103 C4105 1.419 . S
C4104 C4102 1.415 . S
C4104 C4109 1.425 . S
C4104 C4111 1.409 . S
C4105 H4097 0.930 . S
C4105 C4103 1.419 . S
C4105 C4106 1.362 . S
C4106 H4098 0.930 . S
C4106 C4105 1.362 . S
C4106 C4109 1.409 . S
C4107 H4099 0.930 . S
C4107 C4108 1.355 . S
C4107 C4109 1.415 . S
C4108 C4107 1.355 . S
C4108 C4110 1.419 . S
C4109 C4104 1.425 . S
C4109 C4106 1.409 . S
C4109 C4107 1.415 . S
C4110 H4100 0.930 . S
C4110 C4108 1.419 . S
C4110 C4111 1.362 . S
C4111 H4101 0.930 . S
C4111 C4104 1.409 . S
C4111 C4110 1.362 . S
H4112 C4118 0.930 . S
H4113 C4121 0.930 . S
H4114 C4122 0.930 . S
H4115 C4123 0.930 . S
H4116 C4126 0.930 . S
H4117 C4127 0.930 . S
C4118 H4112 0.930 . S
C4118 C4119 1.355 . S
C4118 C4120 1.415 . S
C4119 C4118 1.355 . S
C4119 C4121 1.419 . S
C4120 C4118 1.415 . S
C4120 C4125 1.425 . S
C4120 C4127 1.409 . S
C4121 H4113 0.930 . S
C4121 C4119 1.419 . S
C4121 C4122 1.362 . S
C4122 H4114 0.930 . S
C4122 C4121 1.362 . S
C4122 C4125 1.409 . S
C4123 H4115 0.930 . S
C4123 C4124 1.355 . S
C4123 C4125 1.415 . S
C4124 C4123 1.355 . S
C4124 C4126 1.419 . S
C4125 C4120 1.425 . S
C4125 C4122 1.409 . S
C4125 C4123 1.415 . S
C4126 H4116 0.930 . S
C4126 C4124 1.419 . S
C4126 C4127 1.362 . S
C4127 H4117 0.930 . S
C4127 C4120 1.409 . S
C4127 C4126 1.362 . S
H4128 C4134 0.930 . S
H4129 C4137 0.930 . S
H4130 C4138 0.930 . S
H4131 C4139 0.930 . S
H4132 C4142 0.930 . S
H4133 C4143 0.930 . S
C4134 H4128 0.930 . S
C4134 C4135 1.355 1_455 S
C4134 C4136 1.415 . S
C4135 C4134 1.355 1_655 S
C4135 C4137 1.419 . S
C4136 C4134 1.415 . S
C4136 C4141 1.425 1_455 S
C4136 C4143 1.409 . S
C4137 H4129 0.930 . S
C4137 C4135 1.419 . S
C4137 C4138 1.362 . S
C4138 H4130 0.930 . S
C4138 C4137 1.362 . S
C4138 C4141 1.409 . S
C4139 H4131 0.930 . S
C4139 C4140 1.355 1_655 S
C4139 C4141 1.415 . S
C4140 C4139 1.355 1_455 S
C4140 C4142 1.419 . S
C4141 C4136 1.425 1_655 S
C4141 C4138 1.409 . S
C4141 C4139 1.415 . S
C4142 H4132 0.930 . S
C4142 C4140 1.419 . S
C4142 C4143 1.362 . S
C4143 H4133 0.930 . S
C4143 C4136 1.409 . S
C4143 C4142 1.362 . S
H4144 C4150 0.930 . S
H4145 C4153 0.930 . S
H4146 C4154 0.930 . S
H4147 C4155 0.930 . S
H4148 C4158 0.930 . S
H4149 C4159 0.930 . S
C4150 H4144 0.930 . S
C4150 C4151 1.355 . S
C4150 C4152 1.415 . S
C4151 C4150 1.355 . S
C4151 C4153 1.419 . S
C4152 C4150 1.415 . S
C4152 C4157 1.425 . S
C4152 C4159 1.409 . S
C4153 H4145 0.930 . S
C4153 C4151 1.419 . S
C4153 C4154 1.362 . S
C4154 H4146 0.930 . S
C4154 C4153 1.362 . S
C4154 C4157 1.409 . S
C4155 H4147 0.930 . S
C4155 C4156 1.355 . S
C4155 C4157 1.415 . S
C4156 C4155 1.355 . S
C4156 C4158 1.419 . S
C4157 C4152 1.425 . S
C4157 C4154 1.409 . S
C4157 C4155 1.415 . S
C4158 H4148 0.930 . S
C4158 C4156 1.419 . S
C4158 C4159 1.362 . S
C4159 H4149 0.930 . S
C4159 C4152 1.409 . S
C4159 C4158 1.362 . S
H4160 C4166 0.930 . S
H4161 C4169 0.930 . S
H4162 C4170 0.930 . S
H4163 C4171 0.930 . S
H4164 C4174 0.930 . S
H4165 C4175 0.930 . S
C4166 H4160 0.930 . S
C4166 C4167 1.355 . S
C4166 C4168 1.415 . S
C4167 C4166 1.355 . S
C4167 C4169 1.419 . S
C4168 C4166 1.415 . S
C4168 C4173 1.425 . S
C4168 C4175 1.409 . S
C4169 H4161 0.930 . S
C4169 C4167 1.419 . S
C4169 C4170 1.362 . S
C4170 H4162 0.930 . S
C4170 C4169 1.362 . S
C4170 C4173 1.409 . S
C4171 H4163 0.930 . S
C4171 C4172 1.355 . S
C4171 C4173 1.415 . S
C4172 C4171 1.355 . S
C4172 C4174 1.419 . S
C4173 C4168 1.425 . S
C4173 C4170 1.409 . S
C4173 C4171 1.415 . S
C4174 H4164 0.930 . S
C4174 C4172 1.419 . S
C4174 C4175 1.362 . S
C4175 H4165 0.930 . S
C4175 C4168 1.409 . S
C4175 C4174 1.362 . S
H4176 C4182 0.930 . S
H4177 C4185 0.930 . S
H4178 C4186 0.930 . S
H4179 C4187 0.930 . S
H4180 C4190 0.930 . S
H4181 C4191 0.930 . S
C4182 H4176 0.930 . S
C4182 C4183 1.355 . S
C4182 C4184 1.415 . S
C4183 C4182 1.355 . S
C4183 C4185 1.419 . S
C4184 C4182 1.415 . S
C4184 C4189 1.425 . S
C4184 C4191 1.409 1_565 S
C4185 H4177 0.930 . S
C4185 C4183 1.419 . S
C4185 C4186 1.362 . S
C4186 H4178 0.930 . S
C4186 C4185 1.362 . S
C4186 C4189 1.409 . S
C4187 H4179 0.930 . S
C4187 C4188 1.355 1_565 S
C4187 C4189 1.415 . S
C4188 C4187 1.355 1_545 S
C4188 C4190 1.419 . S
C4189 C4184 1.425 . S
C4189 C4186 1.409 . S
C4189 C4187 1.415 . S
C4190 H4180 0.930 . S
C4190 C4188 1.419 . S
C4190 C4191 1.362 . S
C4191 H4181 0.930 . S
C4191 C4184 1.409 1_545 S
C4191 C4190 1.362 . S
H4192 C4198 0.930 . S
H4193 C4201 0.930 . S
H4194 C4202 0.930 . S
H4195 C4203 0.930 . S
H4196 C4206 0.930 . S
H4197 C4207 0.930 . S
C4198 H4192 0.930 . S
C4198 C4199 1.355 . S
C4198 C4200 1.415 . S
C4199 C4198 1.355 . S
C4199 C4201 1.419 . S
C4200 C4198 1.415 . S
C4200 C4205 1.425 . S
C4200 C4207 1.409 . S
C4201 H4193 0.930 . S
C4201 C4199 1.419 . S
C4201 C4202 1.362 . S
C4202 H4194 0.930 . S
C4202 C4201 1.362 . S
C4202 C4205 1.409 . S
C4203 H4195 0.930 . S
C4203 C4204 1.355 . S
C4203 C4205 1.415 . S
C4204 C4203 1.355 . S
C4204 C4206 1.419 . S
C4205 C4200 1.425 . S
C4205 C4202 1.409 . S
C4205 C4203 1.415 . S
C4206 H4196 0.930 . S
C4206 C4204 1.419 . S
C4206 C4207 1.362 . S
C4207 H4197 0.930 . S
C4207 C4200 1.409 . S
C4207 C4206 1.362 . S
H4208 C4214 0.930 . S
H4209 C4217 0.930 . S
H4210 C4218 0.930 . S
H4211 C4219 0.930 . S
H4212 C4222 0.930 . S
H4213 C4223 0.930 . S
C4214 H4208 0.930 . S
C4214 C4215 1.355 . S
C4214 C4216 1.415 . S
C4215 C4214 1.355 . S
C4215 C4217 1.419 . S
C4216 C4214 1.415 . S
C4216 C4221 1.425 . S
C4216 C4223 1.409 . S
C4217 H4209 0.930 . S
C4217 C4215 1.419 . S
C4217 C4218 1.362 . S
C4218 H4210 0.930 . S
C4218 C4217 1.362 . S
C4218 C4221 1.409 . S
C4219 H4211 0.930 . S
C4219 C4220 1.355 . S
C4219 C4221 1.415 . S
C4220 C4219 1.355 . S
C4220 C4222 1.419 . S
C4221 C4216 1.425 . S
C4221 C4218 1.409 . S
C4221 C4219 1.415 . S
C4222 H4212 0.930 . S
C4222 C4220 1.419 . S
C4222 C4223 1.362 . S
C4223 H4213 0.930 . S
C4223 C4216 1.409 . S
C4223 C4222 1.362 . S
H4224 C4230 0.930 . S
H4225 C4233 0.930 . S
H4226 C4234 0.930 . S
H4227 C4235 0.930 . S
H4228 C4238 0.930 . S
H4229 C4239 0.930 . S
C4230 H4224 0.930 . S
C4230 C4231 1.355 . S
C4230 C4232 1.415 . S
C4231 C4230 1.355 . S
C4231 C4233 1.419 . S
C4232 C4230 1.415 . S
C4232 C4237 1.425 . S
C4232 C4239 1.409 . S
C4233 H4225 0.930 . S
C4233 C4231 1.419 . S
C4233 C4234 1.362 . S
C4234 H4226 0.930 . S
C4234 C4233 1.362 . S
C4234 C4237 1.409 . S
C4235 H4227 0.930 . S
C4235 C4236 1.355 . S
C4235 C4237 1.415 . S
C4236 C4235 1.355 . S
C4236 C4238 1.419 . S
C4237 C4232 1.425 . S
C4237 C4234 1.409 . S
C4237 C4235 1.415 . S
C4238 H4228 0.930 . S
C4238 C4236 1.419 . S
C4238 C4239 1.362 . S
C4239 H4229 0.930 . S
C4239 C4232 1.409 . S
C4239 C4238 1.362 . S
H4240 C4246 0.930 . S
H4241 C4249 0.930 . S
H4242 C4250 0.939 . S
H4243 C4251 0.930 1_556 S
H4244 C4254 0.930 . S
H4245 C4255 0.930 . S
C4246 H4240 0.930 . S
C4246 C4247 1.355 . S
C4246 C4248 1.415 . S
C4247 C4246 1.355 . S
C4247 C4249 1.419 . S
C4248 C4246 1.415 . S
C4248 C4253 1.425 . S
C4248 C4255 1.409 . S
C4249 H4241 0.930 . S
C4249 C4247 1.419 . S
C4249 C4250 1.362 . S
C4250 H4242 0.939 . S
C4250 C4249 1.362 . S
C4250 C4253 1.409 . S
C4251 H4243 0.930 1_554 S
C4251 C4252 1.355 . S
C4251 C4253 1.415 . S
C4252 C4251 1.355 . S
C4252 C4254 1.419 . S
C4253 C4248 1.425 . S
C4253 C4250 1.409 . S
C4253 C4251 1.415 . S
C4254 H4244 0.930 . S
C4254 C4252 1.419 . S
C4254 C4255 1.362 . S
C4255 H4245 0.930 . S
C4255 C4248 1.409 . S
C4255 C4254 1.362 . S
H4256 C4262 0.930 . S
H4257 C4265 0.930 . S
H4258 C4266 0.930 . S
H4259 C4267 0.930 . S
H4260 C4270 0.930 . S
H4261 C4271 0.930 . S
C4262 H4256 0.930 . S
C4262 C4263 1.355 . S
C4262 C4264 1.415 . S
C4263 C4262 1.355 . S
C4263 C4265 1.419 . S
C4264 C4262 1.415 . S
C4264 C4269 1.425 . S
C4264 C4271 1.409 . S
C4265 H4257 0.930 . S
C4265 C4263 1.419 . S
C4265 C4266 1.362 . S
C4266 H4258 0.930 . S
C4266 C4265 1.362 . S
C4266 C4269 1.409 . S
C4267 H4259 0.930 . S
C4267 C4268 1.355 . S
C4267 C4269 1.415 . S
C4268 C4267 1.355 . S
C4268 C4270 1.419 . S
C4269 C4264 1.425 . S
C4269 C4266 1.409 . S
C4269 C4267 1.415 . S
C4270 H4260 0.930 . S
C4270 C4268 1.419 . S
C4270 C4271 1.362 . S
C4271 H4261 0.930 . S
C4271 C4264 1.409 . S
C4271 C4270 1.362 . S
H4272 C4278 0.930 . S
H4273 C4281 0.930 . S
H4274 C4282 0.930 . S
H4275 C4283 0.930 . S
H4276 C4286 0.930 . S
H4277 C4287 0.930 . S
C4278 H4272 0.930 . S
C4278 C4279 1.355 . S
C4278 C4280 1.415 . S
C4279 C4278 1.355 . S
C4279 C4281 1.419 . S
C4280 C4278 1.415 . S
C4280 C4285 1.425 . S
C4280 C4287 1.409 . S
C4281 H4273 0.930 . S
C4281 C4279 1.419 . S
C4281 C4282 1.362 . S
C4282 H4274 0.930 . S
C4282 C4281 1.362 . S
C4282 C4285 1.409 . S
C4283 H4275 0.930 . S
C4283 C4284 1.355 . S
C4283 C4285 1.415 . S
C4284 C4283 1.355 . S
C4284 C4286 1.419 . S
C4285 C4280 1.425 . S
C4285 C4282 1.409 . S
C4285 C4283 1.415 . S
C4286 H4276 0.930 . S
C4286 C4284 1.419 . S
C4286 C4287 1.362 . S
C4287 H4277 0.930 . S
C4287 C4280 1.409 . S
C4287 C4286 1.362 . S
C2759 C665 2.159 . S
C2764 C2143 2.183 . S
C2775 C381 1.773 . S
C2780 C2154 1.770 . S
C2791 C460 1.584 . S
C2796 C2223 1.618 . S
C2812 C2236 1.192 . S
C2807 C585 1.189 . S
C2823 C108 2.472 . S
C2828 C2292 2.425 . S
C2844 C2343 2.143 . S
C2839 C196 2.105 . S
C2860 C2372 2.385 . S
C2855 C313 2.369 . S
C2871 C49 2.424 . S
C2876 C2423 2.441 . S
C2892 C2114 1.044 . S
C2887 C1457 1.077 . S
C2903 C1545 0.989 . S
C2908 C2156 0.953 . S
C2924 C2194 1.026 . S
C2919 C1721 1.014 . S
C2940 C2263 1.823 . S
C2935 C1113 1.767 . S
C2951 C1428 0.640 . S
C2956 C2297 0.569 1_655 S
C2972 C2314 1.360 . S
C2967 C1516 1.368 . S
C2988 C2377 0.357 . S
C2983 C1692 0.454 . S
C3004 C2394 2.132 . S
C2999 C1085 2.148 . S
C3020 C2116 1.617 . S
C3015 C988 1.714 . S
C3031 C1817 1.569 . S
C3036 C2455 1.499 . S
C3052 C2476 1.549 . S
C3047 C2081 1.618 . S
C3068 C2535 0.575 . S
C3063 C1993 0.525 . S
C3079 C761 1.069 . S
C3084 C2396 1.039 . S
C3095 C821 1.370 . S
C3100 C2196 1.326 . S
C3111 C2053 0.973 . S
C3116 C2554 1.029 . S
C3132 C2623 0.923 . S
C3127 C1868 0.885 . S
C3148 C2132 2.169 . S
C3143 C372 2.164 . S
C3164 C2615 1.771 . S
C3159 C645 1.775 . S
C3175 C577 1.604 . S
C3180 C2212 1.594 . S
C3191 C497 1.204 . S
C3196 C2577 1.211 . S
C3212 C2303 2.419 . S
C3207 C57 2.466 . S
C3223 C293 2.102 . S
C3228 C2492 2.140 . S
C3244 C2383 2.382 1_556 S
C3239 C205 2.362 . S
C3260 C2652 2.410 . S
C3255 C145 2.441 . S
C3276 C2135 1.040 . S
C3271 C909 1.076 . S
C3292 C2617 0.868 . S
C3287 C1956 0.932 . S
C3303 C724 1.047 . S
C3308 C2215 1.067 . S
C3319 C1780 1.727 . S
C3324 C2572 1.811 . S
C3335 C937 0.659 . S
C3340 C2276 0.659 . S
C3356 C2495 1.335 . S
C3351 C1985 1.362 . S
C3367 C753 0.414 . S
C3372 C2356 0.386 . S
C3383 C1809 2.141 . S
C3388 C2655 2.103 . S
C3399 C1173 1.720 . S
C3404 C2137 1.617 1_554 S
C3415 C1105 1.563 . S
C3420 C2434 1.497 . S
C3431 C1633 1.590 . S
C3436 C2337 1.482 . S
C3447 C1553 0.461 . S
C3452 C2514 0.384 . S
C3468 C2657 1.040 . S
C3463 C1729 1.052 . S
C3479 C1340 1.369 . S
C3484 C2217 1.332 . S
C3500 C2255 1.063 . S
C3495 C1604 1.071 . S
C3516 C2172 0.841 . S
C3511 C1252 0.874 . S
C3527 C489 2.124 . S
C3532 C2703 2.188 . S
C3548 C2594 1.769 . S
C3543 C557 1.766 . S
C3559 C636 1.570 . S
C3564 C2743 1.622 . S
C3575 C409 1.257 . S
C3580 C2556 1.182 . S
C3591 C284 2.463 . S
C3596 C2452 2.450 . S
C3612 C2503 2.141 . S
C3607 C20 2.113 . S
C3628 C2532 2.373 . S
C3623 C137 2.385 . S
C3644 C2663 2.413 . S
C3639 C225 2.439 . S
C3660 C2674 1.055 . S
C3655 C1641 1.084 . S
C3671 C1193 0.938 . S
C3676 C2596 0.943 . S
C3692 C2714 1.070 . S
C3687 C1289 1.059 . S
C3708 C2583 1.812 . S
C3703 C1377 1.732 . S
C3724 C2457 0.641 . S
C3719 C1613 0.584 . S
C3735 C1164 1.365 . S
C3740 C2474 1.343 . S
C3756 C2537 0.385 . S
C3751 C1261 0.336 . S
C3767 C1349 2.151 . S
C3772 C2634 2.132 . S
C3788 C2676 1.708 . S
C3783 C1965 1.760 . S
C3799 C849 1.579 . S
C3804 C2295 1.559 . S
C3820 C2316 1.499 . S
C3815 C929 1.571 . S
C3836 C2375 0.595 . S
C3831 C1017 0.600 1_545 S
C3852 C2636 0.933 . S
C3847 C1897 0.979 . S
C3863 C1789 1.365 . S
C3868 C2716 1.317 . S
C3884 C2234 1.047 . S
C3879 C900 0.993 . S
C3900 C2183 0.841 . S
C3895 C733 0.887 . S
C3911 C548 2.128 . S
C3916 C2692 2.184 . S
C3932 C2175 1.774 . S
C3927 C469 1.767 . S
C3943 C401 1.598 . S
C3948 C2732 1.601 . S
C3959 C673 1.195 . S
C3964 C2257 1.204 . S
C3975 C233 2.459 . S
C3980 C2463 2.437 1_556 S
C3996 C2332 2.136 . S
C3991 C117 2.115 . S
C4007 C29 2.362 . S
C4012 C2543 2.383 . S
C4023 C321 2.430 . S
C4028 C2412 2.434 . S
C4044 C2695 1.075 . S
C4039 C2044 1.077 . S
C4055 C997 0.909 . S
C4060 C2177 0.877 . S
C4076 C2735 1.066 . S
C4071 C1877 1.055 . S
C4087 C812 1.742 . S
C4092 C2252 1.814 . S
C4103 C2073 0.670 . S
C4108 C2436 0.650 . S
C4124 C2335 1.365 . S
C4119 C1025 1.366 . S
C4135 C1905 0.267 . S
C4140 C2516 0.337 . S
C4156 C2415 2.088 . S
C4151 C841 2.112 . S
C4172 C2697 1.707 . S
C4167 C1525 1.766 . S
C4188 C2274 1.535 . S
C4183 C1369 1.568 . S
C4199 C1465 1.591 . S
C4204 C2497 1.482 . S
C4220 C2354 0.557 . S
C4215 C1201 0.504 . S
C4231 C1281 1.040 . S
C4236 C2417 0.996 . S
C4247 C1076 1.350 . S
C4252 C2737 1.289 . S
C4268 C2575 0.991 . S
C4263 C1437 0.957 . S
C4284 C2612 0.839 . S
C4279 C1701 0.880 . S
