# Generated by pormake.
# Topology csq, (4,8)-cn, num edge types: 1
# Building blocks:
#     Node 0, Type 0, BuildingBlock: KOZSID_clean_sbu_0, # of connection points: 4
#     Node 1, Type 0, BuildingBlock: KOZSID_clean_sbu_0, # of connection points: 4
#     Node 2, Type 0, BuildingBlock: KOZSID_clean_sbu_0, # of connection points: 4
#     Node 3, Type 0, BuildingBlock: KOZSID_clean_sbu_0, # of connection points: 4
#     Node 4, Type 0, BuildingBlock: KOZSID_clean_sbu_0, # of connection points: 4
#     Node 5, Type 0, BuildingBlock: KOZSID_clean_sbu_0, # of connection points: 4
#     Node 6, Type 1, BuildingBlock: TAGTUT_clean_sbu_1, # of connection points: 8
#     Node 7, Type 1, BuildingBlock: TAGTUT_clean_sbu_1, # of connection points: 8
#     Node 8, Type 1, BuildingBlock: TAGTUT_clean_sbu_1, # of connection points: 8
#     Edge 9, Type (0, 1), BuildingBlock: XIVTED_clean_linker_0, # of connection points: 2
#     Edge 10, Type (0, 1), BuildingBlock: XIVTED_clean_linker_0, # of connection points: 2
#     Edge 11, Type (0, 1), BuildingBlock: XIVTED_clean_linker_0, # of connection points: 2
#     Edge 12, Type (0, 1), BuildingBlock: XIVTED_clean_linker_0, # of connection points: 2
#     Edge 13, Type (0, 1), BuildingBlock: XIVTED_clean_linker_0, # of connection points: 2
#     Edge 14, Type (0, 1), BuildingBlock: XIVTED_clean_linker_0, # of connection points: 2
#     Edge 15, Type (0, 1), BuildingBlock: XIVTED_clean_linker_0, # of connection points: 2
#     Edge 16, Type (0, 1), BuildingBlock: XIVTED_clean_linker_0, # of connection points: 2
#     Edge 17, Type (0, 1), BuildingBlock: XIVTED_clean_linker_0, # of connection points: 2
#     Edge 18, Type (0, 1), BuildingBlock: XIVTED_clean_linker_0, # of connection points: 2
#     Edge 19, Type (0, 1), BuildingBlock: XIVTED_clean_linker_0, # of connection points: 2
#     Edge 20, Type (0, 1), BuildingBlock: XIVTED_clean_linker_0, # of connection points: 2
#     Edge 21, Type (0, 1), BuildingBlock: XIVTED_clean_linker_0, # of connection points: 2
#     Edge 22, Type (0, 1), BuildingBlock: XIVTED_clean_linker_0, # of connection points: 2
#     Edge 23, Type (0, 1), BuildingBlock: XIVTED_clean_linker_0, # of connection points: 2
#     Edge 24, Type (0, 1), BuildingBlock: XIVTED_clean_linker_0, # of connection points: 2
#     Edge 25, Type (0, 1), BuildingBlock: XIVTED_clean_linker_0, # of connection points: 2
#     Edge 26, Type (0, 1), BuildingBlock: XIVTED_clean_linker_0, # of connection points: 2
#     Edge 27, Type (0, 1), BuildingBlock: XIVTED_clean_linker_0, # of connection points: 2
#     Edge 28, Type (0, 1), BuildingBlock: XIVTED_clean_linker_0, # of connection points: 2
#     Edge 29, Type (0, 1), BuildingBlock: XIVTED_clean_linker_0, # of connection points: 2
#     Edge 30, Type (0, 1), BuildingBlock: XIVTED_clean_linker_0, # of connection points: 2
#     Edge 31, Type (0, 1), BuildingBlock: XIVTED_clean_linker_0, # of connection points: 2
#     Edge 32, Type (0, 1), BuildingBlock: XIVTED_clean_linker_0, # of connection points: 2
# Relax obj value: 0.035
# Max RMSD: 0.132
# Mean RMSD: 0.041
data_MOF--net-csq--node1-KOZSID_clean_sbu_0--node2-TAGTUT_clean_sbu_1--edge1-XIVTED_clean_linker_0
_symmetry_space_group_name_H-M    P1
_symmetry_Int_Tables_number       1
_symmetry_cell_setting            triclinic
loop_
_symmetry_equiv_pos_as_xyz
'x, y, z'
_cell_length_a     56.976529
_cell_length_b     56.173184
_cell_length_c     20.854506
_cell_angle_alpha  87.921687
_cell_angle_beta   96.956341
_cell_angle_gamma 119.96006
loop_
_atom_site_label
_atom_site_type_symbol
_atom_site_fract_x
_atom_site_fract_y
_atom_site_fract_z
_atom_type_partial_charge
C0 C 0.28894 0.50517 0.31398 0.0
C1 C 0.31117 0.52764 0.34745 0.0
C2 C 0.31487 0.55042 0.31471 0.0
C3 C 0.29499 0.54074 0.26312 0.0
N4 N 0.2788 0.51306 0.26052 0.0
Co5 Co 0.24727 0.49053 0.19356 0.0
N6 N 0.25325 0.52426 0.14502 0.0
C7 C 0.27285 0.55057 0.16023 0.0
C8 C 0.27331 0.56905 0.11507 0.0
C9 C 0.2529 0.55366 0.06776 0.0
C10 C 0.24093 0.52658 0.08733 0.0
N11 N 0.21555 0.46807 0.12721 0.0
C12 C 0.20587 0.47588 0.07288 0.0
C13 C 0.18274 0.45367 0.04123 0.0
C14 C 0.17819 0.431 0.07566 0.0
C15 C 0.19844 0.44058 0.12651 0.0
N16 N 0.24155 0.45682 0.24158 0.0
C17 C 0.22205 0.4305 0.22624 0.0
C18 C 0.22254 0.41186 0.26978 0.0
C19 C 0.24369 0.42714 0.31577 0.0
C20 C 0.25497 0.45431 0.29723 0.0
N21 N 0.22245 0.49442 0.24727 0.0
C22 C 0.18902 0.5001 0.32918 0.0
C23 C 0.18193 0.47444 0.30307 0.0
C24 C 0.19869 0.4721 0.26249 0.0
C25 C 0.21309 0.52283 0.31287 0.0
C26 C 0.22918 0.51959 0.2722 0.0
N27 N 0.27206 0.48677 0.13963 0.0
C28 C 0.28031 0.46057 0.06402 0.0
C29 C 0.30494 0.4837 0.05152 0.0
C30 C 0.31302 0.50808 0.08587 0.0
C31 C 0.29665 0.50907 0.12942 0.0
C32 C 0.2644 0.46251 0.10802 0.0
H33 H 0.30415 0.52836 0.15337 0.0
H34 H 0.24581 0.4442 0.11521 0.0
H35 H 0.19195 0.45199 0.24412 0.0
H36 H 0.24711 0.53783 0.26203 0.0
C37 C 0.29152 0.55714 0.21552 0.0
C38 C 0.27887 0.47676 0.33347 0.0
C39 C 0.21798 0.50387 0.04923 0.0
C40 C 0.20255 0.4241 0.17277 0.0
H41 H 0.32378 0.52785 0.39071 0.0
H42 H 0.33039 0.57154 0.32675 0.0
H43 H 0.28729 0.59099 0.11568 0.0
H44 H 0.24768 0.56148 0.02342 0.0
H45 H 0.17039 0.45363 0.99754 0.0
H46 H 0.1622 0.40999 0.06452 0.0
H47 H 0.20887 0.38985 0.26875 0.0
H48 H 0.2501 0.41925 0.3583 0.0
H49 H 0.16328 0.45618 0.31296 0.0
H50 H 0.21985 0.54319 0.33204 0.0
H51 H 0.27325 0.44095 0.04021 0.0
H52 H 0.33167 0.52678 0.07822 0.0
C53 C 0.83122 0.26034 0.07292 0.0
C54 C 0.85225 0.25507 0.06716 0.0
C55 C 0.84703 0.23227 0.10195 0.0
C56 C 0.82328 0.22495 0.12713 0.0
N57 N 0.81278 0.24149 0.10985 0.0
Co58 Co 0.77908 0.2388 0.13814 0.0
N59 N 0.77456 0.20886 0.19974 0.0
C60 C 0.79133 0.19823 0.21143 0.0
C61 C 0.78469 0.17976 0.26006 0.0
C62 C 0.76229 0.17841 0.2808 0.0
C63 C 0.75616 0.19586 0.24266 0.0
N64 N 0.74484 0.23543 0.16488 0.0
C65 C 0.72789 0.21838 0.20725 0.0
C66 C 0.70519 0.22151 0.20705 0.0
C67 C 0.70815 0.24154 0.16438 0.0
C68 C 0.73219 0.24929 0.14022 0.0
N69 N 0.78447 0.26974 0.07908 0.0
C70 C 0.76816 0.28092 0.06812 0.0
C71 C 0.77808 0.30322 0.02918 0.0
C72 C 0.80253 0.30696 0.01562 0.0
C73 C 0.80612 0.28664 0.04726 0.0
N74 N 0.75672 0.21122 0.06721 0.0
C75 C 0.7247 0.17216 0.96669 0.0
C76 C 0.72335 0.1961 0.9724 0.0
C77 C 0.73937 0.21513 0.02241 0.0
C78 C 0.74268 0.16828 0.01158 0.0
C79 C 0.75833 0.18786 0.06106 0.0
N80 N 0.80151 0.2665 0.20752 0.0
C81 C 0.81522 0.31022 0.25776 0.0
C82 C 0.84022 0.31277 0.28332 0.0
C83 C 0.84443 0.29066 0.27481 0.0
C84 C 0.82473 0.2677 0.23796 0.0
C85 C 0.79618 0.28695 0.22046 0.0
H86 H 0.82929 0.25172 0.23222 0.0
H87 H 0.77776 0.2864 0.20057 0.0
H88 H 0.73696 0.23262 0.02395 0.0
H89 H 0.77136 0.18346 0.09389 0.0
C90 C 0.81301 0.2058 0.17537 0.0
C91 C 0.83064 0.28454 0.04653 0.0
C92 C 0.73232 0.19884 0.24819 0.0
C93 C 0.74408 0.27043 0.09682 0.0
H94 H 0.87016 0.26706 0.04273 0.0
H95 H 0.85991 0.22315 0.11106 0.0
H96 H 0.79499 0.16868 0.27844 0.0
H97 H 0.7517 0.1659 0.3197 0.0
H98 H 0.68813 0.21049 0.23469 0.0
H99 H 0.69447 0.24961 0.15262 0.0
H100 H 0.76892 0.31566 0.01373 0.0
H101 H 0.81637 0.32308 0.98659 0.0
H102 H 0.70932 0.19984 0.93971 0.0
H103 H 0.74458 0.1501 0.00895 0.0
H104 H 0.81055 0.32632 0.2652 0.0
H105 H 0.86334 0.29142 0.29382 0.0
C106 C 0.56019 0.7585 0.17008 0.0
C107 C 0.58558 0.76522 0.20254 0.0
C108 C 0.60448 0.78716 0.17222 0.0
C109 C 0.58971 0.79247 0.12287 0.0
N110 N 0.56238 0.77581 0.12097 0.0
Co111 Co 0.53361 0.77374 0.05144 0.0
N112 N 0.56161 0.80298 0.00087 0.0
C113 C 0.58899 0.81646 0.01667 0.0
C114 C 0.60285 0.83691 0.97518 0.0
C115 C 0.58309 0.83718 0.93155 0.0
C116 C 0.55823 0.81691 0.94931 0.0
N117 N 0.50489 0.77106 0.981 0.0
C118 C 0.5069 0.78804 0.93121 0.0
C119 C 0.48145 0.78033 0.89757 0.0
C120 C 0.4628 0.75809 0.92754 0.0
C121 C 0.47769 0.75351 0.97796 0.0
N122 N 0.50559 0.74506 0.10286 0.0
C123 C 0.47819 0.73277 0.08902 0.0
C124 C 0.46423 0.71289 0.13163 0.0
C125 C 0.48391 0.71193 0.17421 0.0
C126 C 0.5088 0.73124 0.15474 0.0
N127 N 0.53126 0.80297 0.0953 0.0
C128 C 0.53058 0.85056 0.12875 0.0
C129 C 0.50648 0.82684 0.10568 0.0
C130 C 0.5072 0.80324 0.0908 0.0
C131 C 0.5545 0.84912 0.14033 0.0
C132 C 0.55439 0.82536 0.12337 0.0
N133 N 0.53609 0.74461 0.00767 0.0
C134 C 0.51508 0.697 0.97384 0.0
C135 C 0.54067 0.69931 0.9736 0.0
C136 C 0.5638 0.72523 0.98605 0.0
C137 C 0.561 0.7475 0.00138 0.0
C138 C 0.51328 0.71976 0.9908 0.0
H139 H 0.57938 0.76661 0.01031 0.0
H140 H 0.49326 0.71657 0.99182 0.0
H141 H 0.4882 0.78582 0.07346 0.0
H142 H 0.57346 0.82599 0.13163 0.0
C143 C 0.60089 0.81097 0.07368 0.0
C144 C 0.53478 0.73417 0.18366 0.0
C145 C 0.53203 0.81318 0.91899 0.0
C146 C 0.46644 0.73689 0.02999 0.0
H147 H 0.59018 0.75468 0.24211 0.0
H148 H 0.62646 0.79703 0.18263 0.0
H149 H 0.62463 0.85083 0.9781 0.0
H150 H 0.58651 0.85145 0.89272 0.0
H151 H 0.47635 0.79051 0.85802 0.0
H152 H 0.44081 0.74795 0.91705 0.0
H153 H 0.44239 0.69942 0.12944 0.0
H154 H 0.48038 0.69772 0.21323 0.0
H155 H 0.48722 0.82657 0.09715 0.0
H156 H 0.57346 0.86636 0.1617 0.0
H157 H 0.49645 0.6777 0.96159 0.0
H158 H 0.58415 0.72837 0.98598 0.0
C159 C 0.81137 0.55587 0.21297 0.0
C160 C 0.83263 0.58151 0.23541 0.0
C161 C 0.8311 0.60035 0.19466 0.0
C162 C 0.80929 0.58525 0.14945 0.0
N163 N 0.79668 0.55786 0.15883 0.0
Co164 Co 0.76518 0.52841 0.10183 0.0
N165 N 0.76241 0.55629 0.04317 0.0
C166 C 0.77799 0.58395 0.04968 0.0
C167 C 0.77042 0.59783 0.0042 0.0
C168 C 0.74848 0.57786 0.96663 0.0
C169 C 0.74407 0.55285 0.9912 0.0
N170 N 0.73435 0.49889 0.04383 0.0
C171 C 0.72006 0.50094 0.98924 0.0
C172 C 0.70153 0.4753 0.96094 0.0
C173 C 0.70368 0.45632 0.99996 0.0
C174 C 0.72352 0.47139 0.04923 0.0
N175 N 0.76718 0.50048 0.16156 0.0
C176 C 0.75058 0.47286 0.15692 0.0
C177 C 0.75542 0.45912 0.20766 0.0
C178 C 0.77638 0.47911 0.2472 0.0
C179 C 0.7834 0.504 0.21772 0.0
N180 N 0.73909 0.52967 0.1548 0.0
C181 C 0.70393 0.53044 0.2382 0.0
C182 C 0.699 0.50582 0.21063 0.0
C183 C 0.7165 0.50593 0.16919 0.0
C184 C 0.72651 0.55482 0.22191 0.0
C185 C 0.74363 0.55399 0.18024 0.0
N186 N 0.79133 0.52703 0.04894 0.0
C187 C 0.80734 0.50048 0.99902 0.0
C188 C 0.8277 0.52399 0.97319 0.0
C189 C 0.82933 0.54913 0.98526 0.0
C190 C 0.81109 0.55017 0.02302 0.0
C191 C 0.78978 0.50247 0.03666 0.0
H192 H 0.81351 0.56995 0.03091 0.0
H193 H 0.77516 0.48375 0.05536 0.0
H194 H 0.71147 0.48644 0.15003 0.0
H195 H 0.7605 0.57323 0.16954 0.0
C196 C 0.79958 0.59623 0.09901 0.0
C197 C 0.80618 0.53023 0.24409 0.0
C198 C 0.7218 0.52638 0.96488 0.0
C199 C 0.73115 0.46032 0.10333 0.0
H200 H 0.8478 0.58625 0.2768 0.0
H201 H 0.8443 0.62245 0.19771 0.0
H202 H 0.77958 0.61985 0.99937 0.0
H203 H 0.73694 0.58141 0.92614 0.0
H204 H 0.6874 0.47079 0.91741 0.0
H205 H 0.69178 0.43417 0.99394 0.0
H206 H 0.74503 0.43718 0.2149 0.0
H207 H 0.7856 0.4757 0.29247 0.0
H208 H 0.68196 0.4863 0.22186 0.0
H209 H 0.73092 0.57452 0.24079 0.0
H210 H 0.8048 0.48039 0.99028 0.0
H211 H 0.84494 0.56801 0.96692 0.0
C212 C 0.27182 0.82861 0.17817 0.0
C213 C 0.26902 0.85184 0.17413 0.0
C214 C 0.25143 0.84836 0.11962 0.0
C215 C 0.2442 0.82316 0.09376 0.0
N216 N 0.25583 0.81041 0.12915 0.0
Co217 Co 0.25029 0.77351 0.10928 0.0
N218 N 0.21689 0.76386 0.04929 0.0
C219 C 0.21005 0.78176 0.02073 0.0
C220 C 0.18606 0.76908 0.98013 0.0
C221 C 0.17735 0.74151 0.98337 0.0
C222 C 0.19651 0.73889 0.02632 0.0
N223 N 0.24464 0.73657 0.0894 0.0
C224 C 0.22154 0.71358 0.06561 0.0
C225 C 0.22604 0.69146 0.06442 0.0
C226 C 0.25306 0.70132 0.08606 0.0
C227 C 0.26348 0.72867 0.10033 0.0
N228 N 0.28389 0.78319 0.16884 0.0
C229 C 0.29879 0.7706 0.17007 0.0
C230 C 0.32166 0.7823 0.21433 0.0
C231 C 0.32132 0.80378 0.24228 0.0
C232 C 0.29807 0.80396 0.21354 0.0
N233 N 0.22818 0.75835 0.18018 0.0
C234 C 0.18898 0.72797 0.26252 0.0
C235 C 0.21128 0.72401 0.26051 0.0
C236 C 0.23085 0.73966 0.21949 0.0
C237 C 0.18794 0.74901 0.22663 0.0
C238 C 0.20774 0.76395 0.1857 0.0
N239 N 0.27202 0.78853 0.03723 0.0
C240 C 0.27718 0.78565 0.92533 0.0
C241 C 0.2995 0.8123 0.93006 0.0
C242 C 0.30856 0.82645 0.98974 0.0
C243 C 0.29477 0.81405 0.04298 0.0
C244 C 0.26355 0.7742 0.97942 0.0
H245 H 0.30212 0.82546 0.08833 0.0
H246 H 0.24569 0.75404 0.97386 0.0
H247 H 0.24728 0.73554 0.21687 0.0
H248 H 0.20554 0.77888 0.15568 0.0
C249 C 0.22381 0.80927 0.04229 0.0
C250 C 0.29196 0.82593 0.22469 0.0
C251 C 0.1958 0.71271 0.04058 0.0
C252 C 0.28868 0.74573 0.13606 0.0
H253 H 0.27903 0.8697 0.20646 0.0
H254 H 0.24423 0.86222 0.10203 0.0
H255 H 0.17556 0.7786 0.95338 0.0
H256 H 0.15906 0.72528 0.95688 0.0
H257 H 0.21144 0.67034 0.05021 0.0
H258 H 0.26342 0.68954 0.09402 0.0
H259 H 0.33649 0.77565 0.22599 0.0
H260 H 0.3368 0.81799 0.27868 0.0
H261 H 0.21303 0.70824 0.28858 0.0
H262 H 0.17103 0.7527 0.22688 0.0
H263 H 0.26974 0.77418 0.87971 0.0
H264 H 0.32603 0.84705 0.99501 0.0
C265 C 0.50786 0.22796 0.2839 0.0
C266 C 0.53477 0.23796 0.31027 0.0
C267 C 0.55056 0.25836 0.27125 0.0
C268 C 0.53253 0.25962 0.22332 0.0
N269 N 0.50613 0.2417 0.23046 0.0
Co270 Co 0.47326 0.23511 0.16971 0.0
N271 N 0.49657 0.26014 0.10499 0.0
C272 C 0.524 0.27247 0.10759 0.0
C273 C 0.53413 0.28913 0.05646 0.0
C274 C 0.51187 0.28781 0.02003 0.0
C275 C 0.48947 0.27047 0.05146 0.0
N276 N 0.44039 0.22971 0.11051 0.0
C277 C 0.43896 0.24417 0.05823 0.0
C278 C 0.41216 0.23627 0.03475 0.0
C279 C 0.39608 0.21648 0.07452 0.0
C280 C 0.41391 0.21361 0.12002 0.0
N281 N 0.44992 0.20897 0.23299 0.0
C282 C 0.42236 0.19458 0.22772 0.0
C283 C 0.41226 0.17675 0.27691 0.0
C284 C 0.43473 0.17918 0.31456 0.0
C285 C 0.45723 0.19839 0.2858 0.0
N286 N 0.47363 0.26656 0.21161 0.0
C287 C 0.47289 0.31196 0.26359 0.0
C288 C 0.45044 0.28538 0.26345 0.0
C289 C 0.45116 0.26327 0.23715 0.0
C290 C 0.49587 0.31523 0.23785 0.0
C291 C 0.49591 0.29248 0.21306 0.0
N292 N 0.47292 0.20365 0.12777 0.0
C293 C 0.44832 0.15819 0.07713 0.0
C294 C 0.47252 0.15754 0.07571 0.0
C295 C 0.49692 0.1807 0.1004 0.0
C296 C 0.4967 0.2034 0.12479 0.0
C297 C 0.44894 0.18104 0.1037 0.0
H298 H 0.51612 0.22039 0.14164 0.0
H299 H 0.42971 0.17984 0.10441 0.0
H300 H 0.43319 0.24373 0.23774 0.0
H301 H 0.51414 0.29647 0.19455 0.0
C302 C 0.53974 0.27249 0.1645 0.0
C303 C 0.48475 0.2034 0.30558 0.0
C304 C 0.46253 0.26718 0.03367 0.0
C305 C 0.40665 0.19753 0.17463 0.0
H306 H 0.54249 0.23041 0.35103 0.0
H307 H 0.57261 0.26927 0.27439 0.0
H308 H 0.55532 0.30232 0.04922 0.0
H309 H 0.51219 0.29954 0.97747 0.0
H310 H 0.40494 0.24463 0.99472 0.0
H311 H 0.37409 0.20637 0.07234 0.0
H312 H 0.39109 0.16283 0.28316 0.0
H313 H 0.43465 0.16724 0.35655 0.0
H314 H 0.43232 0.2814 0.2841 0.0
H315 H 0.51375 0.33532 0.23588 0.0
H316 H 0.4288 0.14128 0.05738 0.0
H317 H 0.51633 0.18145 0.10186 0.0
C318 C 0.98649 0.43433 0.83572 0.0
C319 C 0.06807 0.48994 0.76661 0.0
C320 C 0.04101 0.56704 0.76601 0.0
Mg321 Mg 0.00956 0.45428 0.70427 0.0
O322 O 0.00231 0.48228 0.72322 0.0
Mg323 Mg 0.01998 0.50311 0.80715 0.0
Mg324 Mg 0.012 0.51387 0.66496 0.0
O325 O 0.0212 0.54542 0.60696 0.0
Mg326 Mg 0.01289 0.57273 0.62713 0.0
Mg327 Mg 0.00341 0.52424 0.52312 0.0
C328 C 0.98375 0.46124 0.56474 0.0
C329 C 0.05564 0.51668 0.57004 0.0
O330 O 0.99783 0.45967 0.85497 0.0
O331 O 0.98841 0.42758 0.7793 0.0
O332 O 0.05875 0.50128 0.79997 0.0
O333 O 0.05287 0.47106 0.7242 0.0
O334 O 0.99132 0.44745 0.60393 0.0
O335 O 0.98635 0.48432 0.58118 0.0
C336 C 0.96823 0.51074 0.75828 0.0
O337 O 0.97516 0.51516 0.70068 0.0
O338 O 0.98196 0.50581 0.80457 0.0
O339 O 0.02432 0.5669 0.47651 0.0
O340 O 0.03367 0.59938 0.55126 0.0
O341 O 0.96497 0.52683 0.52667 0.0
C342 C 0.03511 0.59222 0.49475 0.0
O343 O 0.96934 0.55659 0.60143 0.0
O344 O 0.03258 0.58056 0.72804 0.0
C345 C 0.95499 0.53849 0.55654 0.0
O346 O 0.03757 0.54358 0.74915 0.0
O347 O 0.04909 0.51244 0.62813 0.0
O348 O 0.04161 0.52163 0.52462 0.0
C349 C 0.4706 0.01627 0.80452 0.0
C350 C 0.43016 0.94616 0.67119 0.0
C351 C 0.53034 0.96408 0.649 0.0
Mg352 Mg 0.45873 0.00816 0.65506 0.0
O353 O 0.49331 0.011 0.66981 0.0
Mg354 Mg 0.49726 0.98409 0.72921 0.0
Mg355 Mg 0.50788 0.00536 0.59382 0.0
O356 O 0.52269 0.00035 0.51731 0.0
Mg357 Mg 0.55699 0.00267 0.52942 0.0
Mg358 Mg 0.51836 0.02755 0.45863 0.0
C359 C 0.48634 0.04727 0.53966 0.0
C360 C 0.45753 0.97661 0.47772 0.0
O361 O 0.48458 0.00387 0.80669 0.0
O362 O 0.45902 0.02005 0.75164 0.0
O363 O 0.45242 0.9504 0.70402 0.0
O364 O 0.42812 0.9655 0.64195 0.0
O365 O 0.46674 0.03674 0.57523 0.0
O366 O 0.50526 0.04099 0.5447 0.0
C367 C 0.55799 0.03331 0.70914 0.0
O368 O 0.55039 0.03361 0.64876 0.0
O369 O 0.54153 0.01704 0.74783 0.0
O370 O 0.53013 0.00887 0.38008 0.0
O371 O 0.55434 0.99037 0.4312 0.0
O372 O 0.56401 0.06144 0.47801 0.0
C373 C 0.54316 0.99568 0.37971 0.0
O374 O 0.58878 0.04541 0.53453 0.0
O375 O 0.54953 0.97457 0.612 0.0
C376 C 0.58693 0.06488 0.50509 0.0
O377 O 0.51109 0.96999 0.6442 0.0
O378 O 0.46505 0.97636 0.53825 0.0
O379 O 0.47396 0.99386 0.44034 0.0
C380 C 0.53439 0.58214 0.4574 0.0
C381 C 0.57179 0.53174 0.51159 0.0
C382 C 0.46863 0.45073 0.53379 0.0
Mg383 Mg 0.55271 0.56347 0.58762 0.0
O384 O 0.51638 0.53485 0.57258 0.0
Mg385 Mg 0.50488 0.51371 0.48853 0.0
Mg386 Mg 0.50124 0.5038 0.63324 0.0
O387 O 0.48474 0.47263 0.69271 0.0
Mg388 Mg 0.4471 0.44725 0.67258 0.0
Mg389 Mg 0.4957 0.49371 0.77657 0.0
C390 C 0.53489 0.55638 0.73155 0.0
C391 C 0.55027 0.501 0.72363 0.0
O392 O 0.51896 0.55665 0.43932 0.0
O393 O 0.54853 0.58937 0.51321 0.0
O394 O 0.54722 0.51878 0.48438 0.0
O395 O 0.57897 0.54944 0.55725 0.0
O396 O 0.55184 0.56984 0.69042 0.0
O397 O 0.51269 0.53359 0.71667 0.0
C398 C 0.4496 0.50161 0.54466 0.0
O399 O 0.45968 0.50052 0.60222 0.0
O400 O 0.46315 0.50717 0.49633 0.0
O401 O 0.47819 0.45046 0.82307 0.0
O402 O 0.4474 0.41986 0.74656 0.0
O403 O 0.45441 0.49144 0.78015 0.0
C404 C 0.46103 0.42559 0.80294 0.0
O405 O 0.42206 0.46328 0.70453 0.0
O406 O 0.44987 0.43843 0.57162 0.0
C407 C 0.42987 0.48011 0.75268 0.0
O408 O 0.49026 0.47395 0.54951 0.0
O409 O 0.5428 0.50587 0.66636 0.0
O410 O 0.53571 0.4958 0.76987 0.0
H411 H 0.1783 0.54252 0.33285 0.0
H412 H 0.07324 0.47908 0.59883 0.0
H413 H 0.15903 0.46538 0.42244 0.0
H414 H 0.09246 0.55348 0.49652 0.0
H415 H 0.10788 0.47541 0.54577 0.0
H416 H 0.14994 0.54827 0.40169 0.0
C417 C 0.16834 0.52684 0.36743 0.0
C418 C 0.17133 0.50346 0.37161 0.0
C419 C 0.10476 0.49274 0.53583 0.0
C420 C 0.13799 0.50977 0.45094 0.0
C421 C 0.08525 0.49499 0.5667 0.0
C422 C 0.08002 0.51663 0.55204 0.0
C423 C 0.11909 0.51236 0.49045 0.0
C424 C 0.09578 0.53642 0.50909 0.0
C425 C 0.15191 0.53008 0.40674 0.0
C426 C 0.15718 0.48362 0.41677 0.0
N427 N 0.11435 0.53372 0.47975 0.0
N428 N 0.14112 0.48719 0.45454 0.0
H429 H 0.70314 0.14263 0.24627 0.0
H430 H 0.59532 0.11643 0.4736 0.0
H431 H 0.71463 0.21348 0.34944 0.0
H432 H 0.63527 0.06803 0.49021 0.0
H433 H 0.63285 0.15147 0.41712 0.0
H434 H 0.67098 0.11276 0.32094 0.0
C435 C 0.69885 0.15187 0.28465 0.0
C436 C 0.71174 0.18057 0.29202 0.0
C437 C 0.63356 0.13341 0.43451 0.0
C438 C 0.67438 0.14653 0.3762 0.0
C439 C 0.61229 0.1135 0.46697 0.0
C440 C 0.61217 0.08926 0.48706 0.0
C441 C 0.65426 0.12854 0.42009 0.0
C442 C 0.63456 0.08643 0.4763 0.0
C443 C 0.6806 0.13486 0.32718 0.0
C444 C 0.70509 0.19146 0.34207 0.0
N445 N 0.6543 0.10545 0.44219 0.0
N446 N 0.68659 0.17443 0.38189 0.0
H447 H 0.55077 0.73589 0.31349 0.0
H448 H 0.51112 0.57736 0.33081 0.0
H449 H 0.51888 0.6817 0.14553 0.0
H450 H 0.55902 0.63734 0.48523 0.0
H451 H 0.51131 0.61414 0.26323 0.0
H452 H 0.55127 0.69889 0.37877 0.0
C453 C 0.54402 0.71617 0.29047 0.0
C454 C 0.53516 0.71186 0.22411 0.0
C455 C 0.52184 0.6192 0.31186 0.0
C456 C 0.53516 0.66923 0.29836 0.0
C457 C 0.52174 0.5982 0.35053 0.0
C458 C 0.53507 0.60413 0.41403 0.0
C459 C 0.53513 0.64633 0.33698 0.0
C460 C 0.54848 0.63163 0.4367 0.0
C461 C 0.54425 0.69504 0.3276 0.0
C462 C 0.52606 0.6858 0.19661 0.0
N463 N 0.54804 0.65156 0.39846 0.0
N464 N 0.52627 0.66544 0.23382 0.0
H465 H 0.83775 0.50688 0.24189 0.0
H466 H 0.93213 0.57127 0.56667 0.0
H467 H 0.81925 0.55324 0.36672 0.0
H468 H 0.9155 0.49414 0.48469 0.0
H469 H 0.8923 0.56746 0.49682 0.0
H470 H 0.86949 0.50541 0.32974 0.0
C471 C 0.84046 0.51674 0.28805 0.0
C472 C 0.82602 0.53019 0.2974 0.0
C473 C 0.89712 0.55114 0.49542 0.0
C474 C 0.8624 0.52888 0.3979 0.0
C475 C 0.9197 0.55319 0.5355 0.0
C476 C 0.92747 0.53327 0.53047 0.0
C477 C 0.88265 0.52922 0.45 0.0
C478 C 0.91064 0.51029 0.48918 0.0
C479 C 0.8584 0.51579 0.33822 0.0
C480 C 0.83025 0.54281 0.35789 0.0
N481 N 0.88941 0.50919 0.44966 0.0
N482 N 0.84835 0.54213 0.40595 0.0
H483 H 0.32865 0.87626 0.18527 0.0
H484 H 0.41896 0.92839 0.52844 0.0
H485 H 0.3036 0.82973 0.35713 0.0
H486 H 0.43285 0.97759 0.35829 0.0
H487 H 0.37569 0.89274 0.47085 0.0
H488 H 0.36603 0.91427 0.2511 0.0
C489 C 0.33076 0.87436 0.23725 0.0
C490 C 0.31276 0.85013 0.26608 0.0
C491 C 0.38815 0.9115 0.44656 0.0
C492 C 0.35624 0.89324 0.34207 0.0
C493 C 0.4128 0.93189 0.47947 0.0
C494 C 0.4298 0.95595 0.44802 0.0
C495 C 0.38057 0.91522 0.38181 0.0
C496 C 0.42074 0.95929 0.38442 0.0
C497 C 0.35222 0.89598 0.27493 0.0
C498 C 0.3169 0.84832 0.33343 0.0
N499 N 0.39699 0.93916 0.3535 0.0
N500 N 0.33837 0.86953 0.36925 0.0
H501 H 0.51562 0.35804 0.32806 0.0
H502 H 0.42411 0.40598 0.47108 0.0
H503 H 0.42933 0.32074 0.26371 0.0
H504 H 0.51063 0.45963 0.46683 0.0
H505 H 0.42488 0.37484 0.39336 0.0
H506 H 0.51406 0.39556 0.37839 0.0
C507 C 0.49638 0.35781 0.32354 0.0
C508 C 0.47252 0.33584 0.29169 0.0
C509 C 0.44358 0.3937 0.40853 0.0
C510 C 0.47055 0.37873 0.3511 0.0
C511 C 0.44315 0.41151 0.45283 0.0
C512 C 0.46739 0.4353 0.47617 0.0
C513 C 0.46851 0.39946 0.38844 0.0
C514 C 0.49145 0.44149 0.45048 0.0
C515 C 0.49552 0.37929 0.35264 0.0
C516 C 0.44815 0.33672 0.28901 0.0
N517 N 0.4915 0.4234 0.40903 0.0
N518 N 0.44773 0.35758 0.319 0.0
H519 H 0.51225 0.8119 0.7911 0.0
H520 H 0.57305 0.96743 0.73171 0.0
H521 H 0.55114 0.86631 0.95853 0.0
H522 H 0.48727 0.91415 0.67211 0.0
H523 H 0.57299 0.93106 0.8017 0.0
H524 H 0.51015 0.84934 0.73048 0.0
C525 C 0.52005 0.83163 0.81525 0.0
C526 C 0.53114 0.8358 0.88044 0.0
C527 C 0.5542 0.92754 0.77361 0.0
C528 C 0.53018 0.87892 0.81051 0.0
C529 C 0.5542 0.94816 0.73382 0.0
C530 C 0.53009 0.94374 0.69647 0.0
C531 C 0.53019 0.90203 0.77393 0.0
C532 C 0.50621 0.9184 0.70063 0.0
C533 C 0.51898 0.85293 0.78062 0.0
C534 C 0.54213 0.86218 0.90854 0.0
N535 N 0.50695 0.89825 0.73769 0.0
N536 N 0.54163 0.88286 0.87324 0.0
H537 H 0.7199 0.54263 0.83874 0.0
H538 H 0.55814 0.46523 0.7987 0.0
H539 H 0.67024 0.5053 0.9932 0.0
H540 H 0.60124 0.53761 0.68807 0.0
H541 H 0.60152 0.47146 0.85043 0.0
H542 H 0.67872 0.53517 0.76715 0.0
C543 C 0.70038 0.53318 0.85755 0.0
C544 C 0.69825 0.52466 0.92176 0.0
C545 C 0.60157 0.48581 0.81421 0.0
C546 C 0.65161 0.51523 0.84054 0.0
C547 C 0.57686 0.48215 0.78431 0.0
C548 C 0.57622 0.50117 0.73983 0.0
C549 C 0.62594 0.50871 0.79987 0.0
C550 C 0.60101 0.52257 0.72231 0.0
C551 C 0.67705 0.52882 0.81683 0.0
C552 C 0.67262 0.51214 0.94397 0.0
N553 N 0.62511 0.52608 0.75327 0.0
N554 N 0.65029 0.50757 0.90329 0.0
H555 H 0.14367 0.68918 0.07155 0.0
H556 H 0.08336 0.5615 0.82473 0.0
H557 H 0.19239 0.67845 0.94514 0.0
H558 H 0.04091 0.60623 0.84037 0.0
H559 H 0.12032 0.59372 0.90407 0.0
H560 H 0.10275 0.6488 0.01813 0.0
C561 C 0.14579 0.6779 0.03373 0.0
C562 C 0.17147 0.68666 0.01377 0.0
C563 C 0.10256 0.59599 0.89117 0.0
C564 C 0.12525 0.64063 0.95386 0.0
C565 C 0.08139 0.57753 0.8464 0.0
C566 C 0.05922 0.58141 0.82542 0.0
C567 C 0.10116 0.61803 0.91625 0.0
C568 C 0.0578 0.6027 0.85481 0.0
C569 C 0.12257 0.65502 0.00345 0.0
C570 C 0.17316 0.6718 0.96357 0.0
N571 N 0.07862 0.62038 0.89853 0.0
N572 N 0.1504 0.6494 0.93564 0.0
H573 H 0.43219 0.10269 0.07144 0.0
H574 H 0.51361 0.04859 0.89329 0.0
H575 H 0.51268 0.15647 0.01547 0.0
H576 H 0.42715 0.0165 0.84541 0.0
H577 H 0.51465 0.08087 0.97175 0.0
H578 H 0.43148 0.06422 0.01831 0.0
C579 C 0.44974 0.10661 0.04826 0.0
C580 C 0.47241 0.1333 0.04765 0.0
C581 C 0.49538 0.06624 0.94513 0.0
C582 C 0.47203 0.08879 0.98951 0.0
C583 C 0.49471 0.04767 0.90107 0.0
C584 C 0.47025 0.02995 0.86308 0.0
C585 C 0.47132 0.06659 0.95192 0.0
C586 C 0.4464 0.02991 0.87392 0.0
C587 C 0.44935 0.08448 0.01864 0.0
C588 C 0.49483 0.13648 0.01847 0.0
N589 N 0.44752 0.04806 0.91722 0.0
N590 N 0.49404 0.11455 0.99064 0.0
H591 H 0.28849 0.45343 0.93611 0.0
H592 H 0.4409 0.51975 0.84212 0.0
H593 H 0.36104 0.51189 0.0559 0.0
H594 H 0.3733 0.44867 0.7395 0.0
H595 H 0.4099 0.52088 0.91096 0.0
H596 H 0.31736 0.45385 0.85718 0.0
C597 C 0.31041 0.46625 0.94628 0.0
C598 C 0.32213 0.48279 0.00323 0.0
C599 C 0.40169 0.50512 0.87314 0.0
C600 C 0.35533 0.48375 0.91172 0.0
C601 C 0.41942 0.50455 0.83327 0.0
C602 C 0.40987 0.48392 0.78491 0.0
C603 C 0.37395 0.48493 0.86518 0.0
C604 C 0.38166 0.46497 0.77598 0.0
C605 C 0.32687 0.46661 0.90073 0.0
C606 C 0.35076 0.49921 0.01254 0.0
N607 N 0.36475 0.46577 0.81609 0.0
N608 N 0.3662 0.4993 0.96748 0.0
H609 H 0.84941 0.28177 0.93416 0.0
H610 H 0.9693 0.43915 0.95049 0.0
H611 H 0.86592 0.33712 0.09258 0.0
H612 H 0.95908 0.37871 0.81111 0.0
H613 H 0.93232 0.40267 0.00469 0.0
H614 H 0.88949 0.31773 0.88797 0.0
C615 C 0.8616 0.30158 0.95911 0.0
C616 C 0.85462 0.30654 0.01731 0.0
C617 C 0.9384 0.3974 0.96262 0.0
C618 C 0.90041 0.34792 0.96485 0.0
C619 C 0.95966 0.41821 0.93181 0.0
C620 C 0.96739 0.41216 0.87577 0.0
C621 C 0.9246 0.37033 0.93706 0.0
C622 C 0.95389 0.38456 0.85384 0.0
C623 C 0.8845 0.32208 0.93296 0.0
C624 C 0.87081 0.33258 0.04764 0.0
N625 N 0.9331 0.36483 0.88408 0.0
N626 N 0.89296 0.35234 0.02105 0.0
H627 H 0.85075 0.49171 0.99844 0.0
H628 H 0.94816 0.54552 0.71891 0.0
H629 H 0.85022 0.55192 0.86445 0.0
H630 H 0.93274 0.47546 0.83602 0.0
H631 H 0.91197 0.54855 0.76612 0.0
H632 H 0.88137 0.48659 0.93686 0.0
C633 C 0.85685 0.50371 0.95555 0.0
C634 C 0.84747 0.52198 0.93624 0.0
C635 C 0.91631 0.5323 0.78055 0.0
C636 C 0.88338 0.51657 0.8653 0.0
C637 C 0.93673 0.53044 0.75324 0.0
C638 C 0.94351 0.51036 0.77413 0.0
C639 C 0.90285 0.51394 0.82876 0.0
C640 C 0.92838 0.49148 0.81921 0.0
C641 C 0.87452 0.50085 0.92032 0.0
C642 C 0.85699 0.53764 0.88126 0.0
N643 N 0.90902 0.49389 0.84525 0.0
N644 N 0.87448 0.5346 0.84762 0.0
H645 H 0.32784 0.79823 0.85772 0.0
H646 H 0.3772 0.93495 0.65489 0.0
H647 H 0.30134 0.85723 0.87321 0.0
H648 H 0.42654 0.89707 0.70563 0.0
H649 H 0.33917 0.89603 0.70009 0.0
H650 H 0.35449 0.82494 0.77038 0.0
C651 C 0.3273 0.81653 0.84174 0.0
C652 C 0.31285 0.82593 0.87272 0.0
C653 C 0.35813 0.89596 0.69977 0.0
C654 C 0.34254 0.856 0.7732 0.0
C655 C 0.37979 0.91804 0.67352 0.0
C656 C 0.40528 0.91956 0.67812 0.0
C657 C 0.36199 0.87524 0.73005 0.0
C658 C 0.40738 0.89697 0.70249 0.0
C659 C 0.3424 0.83168 0.79216 0.0
C660 C 0.31259 0.84964 0.85071 0.0
N661 N 0.38614 0.87592 0.72865 0.0
N662 N 0.32738 0.864 0.80244 0.0
H663 H 0.43843 0.26711 0.91216 0.0
H664 H 0.48767 0.42737 0.92367 0.0
H665 H 0.48195 0.3187 0.08217 0.0
H666 H 0.42863 0.37066 0.77407 0.0
H667 H 0.48642 0.38839 0.98292 0.0
H668 H 0.43559 0.30551 0.8597 0.0
C669 C 0.44715 0.28654 0.93841 0.0
C670 C 0.46013 0.28989 0.00144 0.0
C671 C 0.47358 0.38454 0.93737 0.0
C672 C 0.45748 0.33389 0.94205 0.0
C673 C 0.47425 0.40677 0.90357 0.0
C674 C 0.4584 0.40237 0.84348 0.0
C675 C 0.45714 0.35779 0.9106 0.0
C676 C 0.44137 0.37517 0.81994 0.0
C677 C 0.44558 0.30842 0.90867 0.0
C678 C 0.47165 0.31549 0.03342 0.0
N679 N 0.44139 0.354 0.85323 0.0
N680 N 0.47015 0.33662 0.00328 0.0
H681 H 0.19298 0.53407 0.0472 0.0
H682 H 0.10977 0.54105 0.80135 0.0
H683 H 0.21034 0.4864 0.92347 0.0
H684 H 0.0923 0.45846 0.76369 0.0
H685 H 0.15509 0.55254 0.85287 0.0
H686 H 0.16402 0.53851 0.95742 0.0
C687 C 0.19118 0.52519 1.00035 0.0
C688 C 0.20382 0.50983 0.99223 0.0
C689 C 0.14146 0.53202 0.83254 0.0
C690 C 0.17063 0.51449 0.88949 0.0
C691 C 0.11568 0.52546 0.80318 0.0
C692 C 0.09708 0.49851 0.78083 0.0
C693 C 0.14829 0.51124 0.84074 0.0
C694 C 0.10598 0.47932 0.78188 0.0
C695 C 0.17485 0.52787 0.94894 0.0
C696 C 0.20066 0.4983 0.93108 0.0
N697 N 0.13088 0.48586 0.81318 0.0
N698 N 0.18367 0.50019 0.88213 0.0
H699 H 0.70839 0.17844 0.84057 0.0
H700 H 0.58543 0.02457 0.81389 0.0
H701 H 0.69741 0.11655 0.98149 0.0
H702 H 0.59547 0.08342 0.66553 0.0
H703 H 0.6305 0.05654 0.86682 0.0
H704 H 0.67136 0.14289 0.7676 0.0
C705 C 0.69841 0.15734 0.85589 0.0
C706 C 0.70572 0.15054 0.91772 0.0
C707 C 0.62307 0.06252 0.82246 0.0
C708 C 0.66354 0.10985 0.83444 0.0
C709 C 0.59724 0.04428 0.79233 0.0
C710 C 0.5865 0.05167 0.73613 0.0
C711 C 0.63823 0.0886 0.79691 0.0
C712 C 0.60294 0.07714 0.70933 0.0
C713 C 0.67738 0.13707 0.81408 0.0
C714 C 0.69256 0.12282 0.93439 0.0
N715 N 0.6279 0.09498 0.74068 0.0
N716 N 0.67191 0.10359 0.89335 0.0
H717 H 0.50812 0.64534 0.00504 0.0
H718 H 0.58331 0.59626 0.79207 0.0
H719 H 0.57927 0.69786 0.90939 0.0
H720 H 0.4977 0.54744 0.8147 0.0
H721 H 0.58856 0.6282 0.87601 0.0
H722 H 0.51034 0.60539 0.97049 0.0
C723 C 0.52428 0.64858 0.97721 0.0
C724 C 0.54321 0.67509 0.95901 0.0
C725 C 0.56877 0.61012 0.8637 0.0
C726 C 0.54642 0.62963 0.92214 0.0
C727 C 0.56575 0.59187 0.81592 0.0
C728 C 0.53982 0.5698 0.79487 0.0
C729 C 0.54565 0.60634 0.88992 0.0
C730 C 0.51794 0.5646 0.8286 0.0
C731 C 0.5257 0.62579 0.95842 0.0
C732 C 0.56427 0.67801 0.92502 0.0
N733 N 0.52117 0.58325 0.87351 0.0
N734 N 0.56514 0.65555 0.90729 0.0
H735 H 0.51171 0.20315 0.42387 0.0
H736 H 0.4444 0.047 0.46094 0.0
H737 H 0.46424 0.15192 0.25542 0.0
H738 H 0.53116 0.09551 0.5169 0.0
H739 H 0.44635 0.08529 0.39616 0.0
H740 H 0.51504 0.16425 0.47243 0.0
C741 C 0.50251 0.1839 0.39668 0.0
C742 C 0.48824 0.18078 0.33512 0.0
C743 C 0.46495 0.08728 0.42201 0.0
C744 C 0.49071 0.13625 0.39134 0.0
C745 C 0.46386 0.0656 0.45884 0.0
C746 C 0.48767 0.06828 0.49393 0.0
C747 C 0.4898 0.11197 0.42251 0.0
C748 C 0.51242 0.09273 0.49003 0.0
C749 C 0.50427 0.16178 0.42444 0.0
C750 C 0.47557 0.15505 0.30293 0.0
N751 N 0.51279 0.11398 0.45601 0.0
N752 N 0.47674 0.13356 0.33185 0.0
H753 H 0.30394 0.44924 0.30476 0.0
H754 H 0.41545 0.51183 0.60813 0.0
H755 H 0.29437 0.48939 0.46359 0.0
H756 H 0.41704 0.46568 0.44953 0.0
H757 H 0.36711 0.49643 0.57023 0.0
H758 H 0.3401 0.44593 0.37155 0.0
C759 C 0.30928 0.45696 0.35436 0.0
C760 C 0.29691 0.47027 0.3785 0.0
C761 C 0.37802 0.48939 0.54453 0.0
C762 C 0.33905 0.46774 0.45465 0.0
C763 C 0.40549 0.49827 0.56592 0.0
C764 C 0.42022 0.49085 0.53007 0.0
C765 C 0.36562 0.47283 0.4878 0.0
C766 C 0.40654 0.47272 0.47686 0.0
C767 C 0.33001 0.45522 0.39257 0.0
C768 C 0.30415 0.47963 0.44319 0.0
N769 N 0.38014 0.46458 0.45702 0.0
N770 N 0.32543 0.47894 0.47878 0.0
H771 H 0.85376 0.3661 0.25501 0.0
H772 H 0.94541 0.4691 0.48907 0.0
H773 H 0.87724 0.31834 0.3867 0.0
H774 H 0.98698 0.42226 0.49976 0.0
H775 H 0.91103 0.43627 0.4064 0.0
H776 H 0.89209 0.40826 0.3075 0.0
C777 C 0.86671 0.36441 0.29526 0.0
C778 C 0.86222 0.33854 0.31647 0.0
C779 C 0.92823 0.43381 0.42526 0.0
C780 C 0.90625 0.38646 0.37478 0.0
C781 C 0.94787 0.45254 0.47229 0.0
C782 C 0.96859 0.44789 0.50224 0.0
C783 C 0.92959 0.41052 0.40902 0.0
C784 C 0.97089 0.42615 0.47897 0.0
C785 C 0.88864 0.38847 0.32466 0.0
C786 C 0.88009 0.33767 0.36774 0.0
N787 N 0.95118 0.40783 0.43492 0.0
N788 N 0.90141 0.36127 0.39471 0.0
H789 H 0.57134 0.90349 0.11387 0.0
H790 H 0.50019 0.97023 0.28651 0.0
H791 H 0.49054 0.85707 0.17355 0.0
H792 H 0.58432 0.99187 0.33659 0.0
H793 H 0.49596 0.93899 0.20087 0.0
H794 H 0.57461 0.94559 0.15343 0.0
C795 C 0.55419 0.90208 0.13469 0.0
C796 C 0.53097 0.87649 0.14241 0.0
C797 C 0.51553 0.95132 0.22935 0.0
C798 C 0.53423 0.92467 0.18429 0.0
C799 C 0.518 0.96914 0.27781 0.0
C800 C 0.54252 0.98313 0.31882 0.0
C801 C 0.5379 0.94813 0.22157 0.0
C802 C 0.565 0.98102 0.30625 0.0
C803 C 0.556 0.92615 0.15626 0.0
C804 C 0.50892 0.87618 0.16689 0.0
N805 N 0.56209 0.96351 0.25891 0.0
N806 N 0.51123 0.89993 0.18774 0.0
H807 H 0.71743 0.56266 0.34823 0.0
H808 H 0.56295 0.49112 0.42785 0.0
H809 H 0.6483 0.49808 0.23147 0.0
H810 H 0.62782 0.56458 0.52893 0.0
H811 H 0.59587 0.48983 0.36603 0.0
H812 H 0.68651 0.56123 0.42239 0.0
C813 C 0.69579 0.54828 0.33791 0.0
C814 C 0.68554 0.53042 0.28337 0.0
C815 C 0.60302 0.50615 0.40202 0.0
C816 C 0.65016 0.52834 0.36885 0.0
C817 C 0.58421 0.50684 0.4377 0.0
C818 C 0.59254 0.52821 0.48321 0.0
C819 C 0.63047 0.52702 0.41152 0.0
C820 C 0.62046 0.54779 0.49419 0.0
C821 C 0.6782 0.54734 0.38061 0.0
C822 C 0.65732 0.51194 0.27328 0.0
N823 N 0.63842 0.5469 0.45804 0.0
N824 N 0.64072 0.5114 0.31549 0.0
H825 H 0.16329 0.6722 0.25668 0.0
H826 H 0.06182 0.64838 0.51314 0.0
H827 H 0.16093 0.73954 0.34279 0.0
H828 H 0.05056 0.58496 0.38122 0.0
H829 H 0.09821 0.68242 0.45367 0.0
H830 H 0.12304 0.63989 0.30713 0.0
C831 C 0.15443 0.68015 0.2869 0.0
C832 C 0.16556 0.70853 0.29624 0.0
C833 C 0.08747 0.66109 0.43735 0.0
C834 C 0.11923 0.67171 0.35328 0.0
C835 C 0.06664 0.64164 0.47112 0.0
C836 C 0.05326 0.61366 0.45266 0.0
C837 C 0.09515 0.65243 0.38535 0.0
C838 C 0.06036 0.60621 0.39764 0.0
C839 C 0.13126 0.66173 0.315 0.0
C840 C 0.15293 0.71777 0.33457 0.0
N841 N 0.08106 0.62541 0.36654 0.0
N842 N 0.13048 0.69938 0.36215 0.0
loop_
_geom_bond_atom_site_label_1
_geom_bond_atom_site_label_2
_geom_bond_distance
_geom_bond_site_symmetry_2
_ccdc_geom_bond_type
C0 C1 1.443 . S
C0 N4 1.376 . S
C0 C38 1.389 . S
C1 C0 1.443 . S
C1 C2 1.340 . S
C1 H41 0.951 . S
C2 C1 1.340 . S
C2 C3 1.439 . S
C2 H42 0.950 . S
C3 C2 1.439 . S
C3 N4 1.374 . S
C3 C37 1.395 . S
N4 C0 1.376 . S
N4 C3 1.374 . S
N4 Co5 2.008 . S
Co5 N4 2.008 . S
Co5 N6 1.995 . S
Co5 N11 2.008 . S
Co5 N16 1.995 . S
Co5 N21 2.282 . S
Co5 N27 2.282 . S
N6 Co5 1.995 . S
N6 C7 1.376 . S
N6 C10 1.383 . S
C7 N6 1.376 . S
C7 C8 1.446 . S
C7 C37 1.391 . S
C8 C7 1.446 . S
C8 C9 1.339 . S
C8 H43 0.949 . S
C9 C8 1.339 . S
C9 C10 1.439 . S
C9 H44 0.950 . S
C10 N6 1.383 . S
C10 C9 1.439 . S
C10 C39 1.392 . S
N11 Co5 2.008 . S
N11 C12 1.376 . S
N11 C15 1.374 . S
C12 N11 1.376 . S
C12 C13 1.443 . S
C12 C39 1.389 . S
C13 C12 1.443 . S
C13 C14 1.340 . S
C13 H45 0.951 . S
C14 C13 1.340 . S
C14 C15 1.439 . S
C14 H46 0.950 . S
C15 N11 1.374 . S
C15 C14 1.439 . S
C15 C40 1.395 . S
N16 Co5 1.995 . S
N16 C17 1.376 . S
N16 C20 1.383 . S
C17 N16 1.376 . S
C17 C18 1.446 . S
C17 C40 1.391 . S
C18 C17 1.446 . S
C18 C19 1.339 . S
C18 H47 0.949 . S
C19 C18 1.339 . S
C19 C20 1.439 . S
C19 H48 0.950 . S
C20 N16 1.383 . S
C20 C19 1.439 . S
C20 C38 1.392 . S
N21 Co5 2.282 . S
N21 C24 1.332 . S
N21 C26 1.332 . S
C22 C23 1.386 . S
C22 C25 1.388 . S
C23 C22 1.386 . S
C23 C24 1.382 . S
C23 H49 0.950 . S
C24 N21 1.332 . S
C24 C23 1.382 . S
C24 H35 0.952 . S
C25 C22 1.388 . S
C25 C26 1.382 . S
C25 H50 0.950 . S
C26 N21 1.332 . S
C26 C25 1.382 . S
C26 H36 0.948 . S
N27 Co5 2.282 . S
N27 C31 1.332 . S
N27 C32 1.332 . S
C28 C29 1.388 . S
C28 C32 1.382 . S
C28 H51 0.950 . S
C29 C28 1.388 . S
C29 C30 1.386 . S
C30 C29 1.386 . S
C30 C31 1.382 . S
C30 H52 0.950 . S
C31 N27 1.332 . S
C31 C30 1.382 . S
C31 H33 0.952 . S
C32 N27 1.332 . S
C32 C28 1.382 . S
C32 H34 0.948 . S
H33 C31 0.952 . S
H34 C32 0.948 . S
H35 C24 0.952 . S
H36 C26 0.948 . S
C37 C3 1.395 . S
C37 C7 1.391 . S
C38 C0 1.389 . S
C38 C20 1.392 . S
C39 C10 1.392 . S
C39 C12 1.389 . S
C40 C15 1.395 . S
C40 C17 1.391 . S
H41 C1 0.951 . S
H42 C2 0.950 . S
H43 C8 0.949 . S
H44 C9 0.950 . S
H45 C13 0.951 . S
H46 C14 0.950 . S
H47 C18 0.949 . S
H48 C19 0.950 . S
H49 C23 0.950 . S
H50 C25 0.950 . S
H51 C28 0.950 . S
H52 C30 0.950 . S
C53 C54 1.443 . S
C53 N57 1.376 . S
C53 C91 1.389 . S
C54 C53 1.443 . S
C54 C55 1.340 . S
C54 H94 0.951 . S
C55 C54 1.340 . S
C55 C56 1.439 . S
C55 H95 0.950 . S
C56 C55 1.439 . S
C56 N57 1.374 . S
C56 C90 1.395 . S
N57 C53 1.376 . S
N57 C56 1.374 . S
N57 Co58 2.008 . S
Co58 N57 2.008 . S
Co58 N59 1.995 . S
Co58 N64 2.008 . S
Co58 N69 1.995 . S
Co58 N74 2.282 . S
Co58 N80 2.282 . S
N59 Co58 1.995 . S
N59 C60 1.376 . S
N59 C63 1.383 . S
C60 N59 1.376 . S
C60 C61 1.446 . S
C60 C90 1.391 . S
C61 C60 1.446 . S
C61 C62 1.339 . S
C61 H96 0.949 . S
C62 C61 1.339 . S
C62 C63 1.439 . S
C62 H97 0.950 . S
C63 N59 1.383 . S
C63 C62 1.439 . S
C63 C92 1.392 . S
N64 Co58 2.008 . S
N64 C65 1.376 . S
N64 C68 1.374 . S
C65 N64 1.376 . S
C65 C66 1.443 . S
C65 C92 1.389 . S
C66 C65 1.443 . S
C66 C67 1.340 . S
C66 H98 0.951 . S
C67 C66 1.340 . S
C67 C68 1.439 . S
C67 H99 0.950 . S
C68 N64 1.374 . S
C68 C67 1.439 . S
C68 C93 1.395 . S
N69 Co58 1.995 . S
N69 C70 1.376 . S
N69 C73 1.383 . S
C70 N69 1.376 . S
C70 C71 1.446 . S
C70 C93 1.391 . S
C71 C70 1.446 . S
C71 C72 1.339 . S
C71 H100 0.949 . S
C72 C71 1.339 . S
C72 C73 1.439 . S
C72 H101 0.950 . S
C73 N69 1.383 . S
C73 C72 1.439 . S
C73 C91 1.392 . S
N74 Co58 2.282 . S
N74 C77 1.332 . S
N74 C79 1.332 . S
C75 C76 1.386 . S
C75 C78 1.388 . S
C76 C75 1.386 . S
C76 C77 1.382 . S
C76 H102 0.950 1_554 S
C77 N74 1.332 . S
C77 C76 1.382 . S
C77 H88 0.952 . S
C78 C75 1.388 . S
C78 C79 1.382 . S
C78 H103 0.950 . S
C79 N74 1.332 . S
C79 C78 1.382 . S
C79 H89 0.948 . S
N80 Co58 2.282 . S
N80 C84 1.332 . S
N80 C85 1.332 . S
C81 C82 1.388 . S
C81 C85 1.382 . S
C81 H104 0.950 . S
C82 C81 1.388 . S
C82 C83 1.386 . S
C83 C82 1.386 . S
C83 C84 1.382 . S
C83 H105 0.950 . S
C84 N80 1.332 . S
C84 C83 1.382 . S
C84 H86 0.952 . S
C85 N80 1.332 . S
C85 C81 1.382 . S
C85 H87 0.948 . S
H86 C84 0.952 . S
H87 C85 0.948 . S
H88 C77 0.952 . S
H89 C79 0.948 . S
C90 C56 1.395 . S
C90 C60 1.391 . S
C91 C53 1.389 . S
C91 C73 1.392 . S
C92 C63 1.392 . S
C92 C65 1.389 . S
C93 C68 1.395 . S
C93 C70 1.391 . S
H94 C54 0.951 . S
H95 C55 0.950 . S
H96 C61 0.949 . S
H97 C62 0.950 . S
H98 C66 0.951 . S
H99 C67 0.950 . S
H100 C71 0.949 . S
H101 C72 0.950 . S
H102 C76 0.950 1_556 S
H103 C78 0.950 . S
H104 C81 0.950 . S
H105 C83 0.950 . S
C106 C107 1.443 . S
C106 N110 1.376 . S
C106 C144 1.389 . S
C107 C106 1.443 . S
C107 C108 1.340 . S
C107 H147 0.951 . S
C108 C107 1.340 . S
C108 C109 1.439 . S
C108 H148 0.950 . S
C109 C108 1.439 . S
C109 N110 1.374 . S
C109 C143 1.395 . S
N110 C106 1.376 . S
N110 C109 1.374 . S
N110 Co111 2.008 . S
Co111 N110 2.008 . S
Co111 N112 1.995 1_554 S
Co111 N117 2.008 1_554 S
Co111 N122 1.995 . S
Co111 N127 2.282 . S
Co111 N133 2.282 1_554 S
N112 Co111 1.995 1_556 S
N112 C113 1.376 . S
N112 C116 1.383 . S
C113 N112 1.376 . S
C113 C114 1.446 . S
C113 C143 1.391 1_556 S
C114 C113 1.446 . S
C114 C115 1.339 . S
C114 H149 0.949 . S
C115 C114 1.339 . S
C115 C116 1.439 . S
C115 H150 0.950 . S
C116 N112 1.383 . S
C116 C115 1.439 . S
C116 C145 1.392 . S
N117 Co111 2.008 1_556 S
N117 C118 1.376 . S
N117 C121 1.374 . S
C118 N117 1.376 . S
C118 C119 1.443 . S
C118 C145 1.389 . S
C119 C118 1.443 . S
C119 C120 1.340 . S
C119 H151 0.951 . S
C120 C119 1.340 . S
C120 C121 1.439 . S
C120 H152 0.950 . S
C121 N117 1.374 . S
C121 C120 1.439 . S
C121 C146 1.395 1_556 S
N122 Co111 1.995 . S
N122 C123 1.376 . S
N122 C126 1.383 . S
C123 N122 1.376 . S
C123 C124 1.446 . S
C123 C146 1.391 . S
C124 C123 1.446 . S
C124 C125 1.339 . S
C124 H153 0.949 . S
C125 C124 1.339 . S
C125 C126 1.439 . S
C125 H154 0.950 . S
C126 N122 1.383 . S
C126 C125 1.439 . S
C126 C144 1.392 . S
N127 Co111 2.282 . S
N127 C130 1.332 . S
N127 C132 1.332 . S
C128 C129 1.386 . S
C128 C131 1.388 . S
C129 C128 1.386 . S
C129 C130 1.382 . S
C129 H155 0.950 . S
C130 N127 1.332 . S
C130 C129 1.382 . S
C130 H141 0.952 . S
C131 C128 1.388 . S
C131 C132 1.382 . S
C131 H156 0.950 . S
C132 N127 1.332 . S
C132 C131 1.382 . S
C132 H142 0.948 . S
N133 Co111 2.282 1_556 S
N133 C137 1.332 . S
N133 C138 1.332 . S
C134 C135 1.388 . S
C134 C138 1.382 . S
C134 H157 0.950 . S
C135 C134 1.388 . S
C135 C136 1.386 . S
C136 C135 1.386 . S
C136 C137 1.382 . S
C136 H158 0.950 . S
C137 N133 1.332 . S
C137 C136 1.382 . S
C137 H139 0.952 . S
C138 N133 1.332 . S
C138 C134 1.382 . S
C138 H140 0.948 . S
H139 C137 0.952 . S
H140 C138 0.948 . S
H141 C130 0.952 . S
H142 C132 0.948 . S
C143 C109 1.395 . S
C143 C113 1.391 1_554 S
C144 C106 1.389 . S
C144 C126 1.392 . S
C145 C116 1.392 . S
C145 C118 1.389 . S
C146 C121 1.395 1_554 S
C146 C123 1.391 . S
H147 C107 0.951 . S
H148 C108 0.950 . S
H149 C114 0.949 . S
H150 C115 0.950 . S
H151 C119 0.951 . S
H152 C120 0.950 . S
H153 C124 0.949 . S
H154 C125 0.950 . S
H155 C129 0.950 . S
H156 C131 0.950 . S
H157 C134 0.950 . S
H158 C136 0.950 . S
C159 C160 1.443 . S
C159 N163 1.376 . S
C159 C197 1.389 . S
C160 C159 1.443 . S
C160 C161 1.340 . S
C160 H200 0.951 . S
C161 C160 1.340 . S
C161 C162 1.439 . S
C161 H201 0.950 . S
C162 C161 1.439 . S
C162 N163 1.374 . S
C162 C196 1.395 . S
N163 C159 1.376 . S
N163 C162 1.374 . S
N163 Co164 2.008 . S
Co164 N163 2.008 . S
Co164 N165 1.995 . S
Co164 N170 2.008 . S
Co164 N175 1.995 . S
Co164 N180 2.282 . S
Co164 N186 2.282 . S
N165 Co164 1.995 . S
N165 C166 1.376 . S
N165 C169 1.383 1_554 S
C166 N165 1.376 . S
C166 C167 1.446 1_554 S
C166 C196 1.391 . S
C167 C166 1.446 1_556 S
C167 C168 1.339 . S
C167 H202 0.949 . S
C168 C167 1.339 . S
C168 C169 1.439 . S
C168 H203 0.950 . S
C169 N165 1.383 1_556 S
C169 C168 1.439 . S
C169 C198 1.392 . S
N170 Co164 2.008 . S
N170 C171 1.376 1_554 S
N170 C174 1.374 . S
C171 N170 1.376 1_556 S
C171 C172 1.443 . S
C171 C198 1.389 . S
C172 C171 1.443 . S
C172 C173 1.340 1_556 S
C172 H204 0.951 . S
C173 C172 1.340 1_554 S
C173 C174 1.439 . S
C173 H205 0.950 . S
C174 N170 1.374 . S
C174 C173 1.439 . S
C174 C199 1.395 . S
N175 Co164 1.995 . S
N175 C176 1.376 . S
N175 C179 1.383 . S
C176 N175 1.376 . S
C176 C177 1.446 . S
C176 C199 1.391 . S
C177 C176 1.446 . S
C177 C178 1.339 . S
C177 H206 0.949 . S
C178 C177 1.339 . S
C178 C179 1.439 . S
C178 H207 0.950 . S
C179 N175 1.383 . S
C179 C178 1.439 . S
C179 C197 1.392 . S
N180 Co164 2.282 . S
N180 C183 1.332 . S
N180 C185 1.332 . S
C181 C182 1.386 . S
C181 C184 1.388 . S
C182 C181 1.386 . S
C182 C183 1.382 . S
C182 H208 0.950 . S
C183 N180 1.332 . S
C183 C182 1.382 . S
C183 H194 0.952 . S
C184 C181 1.388 . S
C184 C185 1.382 . S
C184 H209 0.950 . S
C185 N180 1.332 . S
C185 C184 1.382 . S
C185 H195 0.948 . S
N186 Co164 2.282 . S
N186 C190 1.332 1_554 S
N186 C191 1.332 . S
C187 C188 1.388 . S
C187 C191 1.382 1_556 S
C187 H210 0.950 . S
C188 C187 1.388 . S
C188 C189 1.386 . S
C189 C188 1.386 . S
C189 C190 1.382 . S
C189 H211 0.950 . S
C190 N186 1.332 1_556 S
C190 C189 1.382 . S
C190 H192 0.952 . S
C191 N186 1.332 . S
C191 C187 1.382 1_554 S
C191 H193 0.948 . S
H192 C190 0.952 . S
H193 C191 0.948 . S
H194 C183 0.952 . S
H195 C185 0.948 . S
C196 C162 1.395 . S
C196 C166 1.391 . S
C197 C159 1.389 . S
C197 C179 1.392 . S
C198 C169 1.392 . S
C198 C171 1.389 . S
C199 C174 1.395 . S
C199 C176 1.391 . S
H200 C160 0.951 . S
H201 C161 0.950 . S
H202 C167 0.949 . S
H203 C168 0.950 . S
H204 C172 0.951 . S
H205 C173 0.950 . S
H206 C177 0.949 . S
H207 C178 0.950 . S
H208 C182 0.950 . S
H209 C184 0.950 . S
H210 C187 0.950 . S
H211 C189 0.950 . S
C212 C213 1.443 . S
C212 N216 1.376 . S
C212 C250 1.389 . S
C213 C212 1.443 . S
C213 C214 1.340 . S
C213 H253 0.951 . S
C214 C213 1.340 . S
C214 C215 1.439 . S
C214 H254 0.950 . S
C215 C214 1.439 . S
C215 N216 1.374 . S
C215 C249 1.395 . S
N216 C212 1.376 . S
N216 C215 1.374 . S
N216 Co217 2.008 . S
Co217 N216 2.008 . S
Co217 N218 1.995 . S
Co217 N223 2.008 . S
Co217 N228 1.995 . S
Co217 N233 2.282 . S
Co217 N239 2.282 . S
N218 Co217 1.995 . S
N218 C219 1.376 . S
N218 C222 1.383 1_554 S
C219 N218 1.376 . S
C219 C220 1.446 1_554 S
C219 C249 1.391 . S
C220 C219 1.446 1_556 S
C220 C221 1.339 . S
C220 H255 0.949 . S
C221 C220 1.339 . S
C221 C222 1.439 . S
C221 H256 0.950 . S
C222 N218 1.383 1_556 S
C222 C221 1.439 . S
C222 C251 1.392 . S
N223 Co217 2.008 . S
N223 C224 1.376 . S
N223 C227 1.374 . S
C224 N223 1.376 . S
C224 C225 1.443 . S
C224 C251 1.389 1_554 S
C225 C224 1.443 . S
C225 C226 1.340 . S
C225 H257 0.951 1_554 S
C226 C225 1.340 . S
C226 C227 1.439 . S
C226 H258 0.950 . S
C227 N223 1.374 . S
C227 C226 1.439 . S
C227 C252 1.395 . S
N228 Co217 1.995 . S
N228 C229 1.376 . S
N228 C232 1.383 . S
C229 N228 1.376 . S
C229 C230 1.446 . S
C229 C252 1.391 . S
C230 C229 1.446 . S
C230 C231 1.339 . S
C230 H259 0.949 . S
C231 C230 1.339 . S
C231 C232 1.439 . S
C231 H260 0.950 . S
C232 N228 1.383 . S
C232 C231 1.439 . S
C232 C250 1.392 . S
N233 Co217 2.282 . S
N233 C236 1.332 . S
N233 C238 1.332 . S
C234 C235 1.386 . S
C234 C237 1.388 . S
C235 C234 1.386 . S
C235 C236 1.382 . S
C235 H261 0.950 . S
C236 N233 1.332 . S
C236 C235 1.382 . S
C236 H247 0.952 . S
C237 C234 1.388 . S
C237 C238 1.382 . S
C237 H262 0.950 . S
C238 N233 1.332 . S
C238 C237 1.382 . S
C238 H248 0.948 . S
N239 Co217 2.282 . S
N239 C243 1.332 1_554 S
N239 C244 1.332 . S
C240 C241 1.388 . S
C240 C244 1.382 1_556 S
C240 H263 0.950 . S
C241 C240 1.388 . S
C241 C242 1.386 . S
C242 C241 1.386 . S
C242 C243 1.382 . S
C242 H264 0.950 . S
C243 N239 1.332 1_556 S
C243 C242 1.382 . S
C243 H245 0.952 . S
C244 N239 1.332 . S
C244 C240 1.382 1_554 S
C244 H246 0.948 . S
H245 C243 0.952 . S
H246 C244 0.948 . S
H247 C236 0.952 . S
H248 C238 0.948 . S
C249 C215 1.395 . S
C249 C219 1.391 . S
C250 C212 1.389 . S
C250 C232 1.392 . S
C251 C222 1.392 . S
C251 C224 1.389 1_556 S
C252 C227 1.395 . S
C252 C229 1.391 . S
H253 C213 0.951 . S
H254 C214 0.950 . S
H255 C220 0.949 . S
H256 C221 0.950 . S
H257 C225 0.951 1_556 S
H258 C226 0.950 . S
H259 C230 0.949 . S
H260 C231 0.950 . S
H261 C235 0.950 . S
H262 C237 0.950 . S
H263 C240 0.950 . S
H264 C242 0.950 . S
C265 C266 1.443 . S
C265 N269 1.376 . S
C265 C303 1.389 . S
C266 C265 1.443 . S
C266 C267 1.340 . S
C266 H306 0.951 . S
C267 C266 1.340 . S
C267 C268 1.439 . S
C267 H307 0.950 . S
C268 C267 1.439 . S
C268 N269 1.374 . S
C268 C302 1.395 . S
N269 C265 1.376 . S
N269 C268 1.374 . S
N269 Co270 2.008 . S
Co270 N269 2.008 . S
Co270 N271 1.995 . S
Co270 N276 2.008 . S
Co270 N281 1.995 . S
Co270 N286 2.282 . S
Co270 N292 2.282 . S
N271 Co270 1.995 . S
N271 C272 1.376 . S
N271 C275 1.383 . S
C272 N271 1.376 . S
C272 C273 1.446 . S
C272 C302 1.391 . S
C273 C272 1.446 . S
C273 C274 1.339 . S
C273 H308 0.949 . S
C274 C273 1.339 . S
C274 C275 1.439 . S
C274 H309 0.950 . S
C275 N271 1.383 . S
C275 C274 1.439 . S
C275 C304 1.392 . S
N276 Co270 2.008 . S
N276 C277 1.376 . S
N276 C280 1.374 . S
C277 N276 1.376 . S
C277 C278 1.443 . S
C277 C304 1.389 . S
C278 C277 1.443 . S
C278 C279 1.340 . S
C278 H310 0.951 . S
C279 C278 1.340 . S
C279 C280 1.439 . S
C279 H311 0.950 . S
C280 N276 1.374 . S
C280 C279 1.439 . S
C280 C305 1.395 . S
N281 Co270 1.995 . S
N281 C282 1.376 . S
N281 C285 1.383 . S
C282 N281 1.376 . S
C282 C283 1.446 . S
C282 C305 1.391 . S
C283 C282 1.446 . S
C283 C284 1.339 . S
C283 H312 0.949 . S
C284 C283 1.339 . S
C284 C285 1.439 . S
C284 H313 0.950 . S
C285 N281 1.383 . S
C285 C284 1.439 . S
C285 C303 1.392 . S
N286 Co270 2.282 . S
N286 C289 1.332 . S
N286 C291 1.332 . S
C287 C288 1.386 . S
C287 C290 1.388 . S
C288 C287 1.386 . S
C288 C289 1.382 . S
C288 H314 0.950 . S
C289 N286 1.332 . S
C289 C288 1.382 . S
C289 H300 0.952 . S
C290 C287 1.388 . S
C290 C291 1.382 . S
C290 H315 0.950 . S
C291 N286 1.332 . S
C291 C290 1.382 . S
C291 H301 0.948 . S
N292 Co270 2.282 . S
N292 C296 1.332 . S
N292 C297 1.332 . S
C293 C294 1.388 . S
C293 C297 1.382 . S
C293 H316 0.950 . S
C294 C293 1.388 . S
C294 C295 1.386 . S
C295 C294 1.386 . S
C295 C296 1.382 . S
C295 H317 0.950 . S
C296 N292 1.332 . S
C296 C295 1.382 . S
C296 H298 0.952 . S
C297 N292 1.332 . S
C297 C293 1.382 . S
C297 H299 0.948 . S
H298 C296 0.952 . S
H299 C297 0.948 . S
H300 C289 0.952 . S
H301 C291 0.948 . S
C302 C268 1.395 . S
C302 C272 1.391 . S
C303 C265 1.389 . S
C303 C285 1.392 . S
C304 C275 1.392 . S
C304 C277 1.389 . S
C305 C280 1.395 . S
C305 C282 1.391 . S
H306 C266 0.951 . S
H307 C267 0.950 . S
H308 C273 0.949 . S
H309 C274 0.950 . S
H310 C278 0.951 . S
H311 C279 0.950 . S
H312 C283 0.949 . S
H313 C284 0.950 . S
H314 C288 0.950 . S
H315 C290 0.950 . S
H316 C293 0.950 . S
H317 C295 0.950 . S
C318 O330 1.241 . S
C318 O331 1.280 . S
C319 O332 1.277 . S
C319 O333 1.245 . S
C320 O344 1.247 . S
C320 O346 1.289 . S
Mg321 O322 1.935 1_655 S
Mg321 O331 1.984 . S
Mg321 O333 1.988 1_655 S
Mg321 O334 2.061 . S
O322 Mg321 1.935 1_455 S
O322 Mg323 1.984 . S
O322 Mg324 1.916 . S
Mg323 O322 1.984 . S
Mg323 O330 2.042 1_455 S
Mg323 O332 2.041 . S
Mg323 O338 2.038 1_455 S
Mg323 O346 2.238 . S
Mg324 O322 1.916 . S
Mg324 O325 1.917 . S
Mg324 O335 2.106 1_455 S
Mg324 O337 2.079 1_455 S
Mg324 O346 2.106 . S
Mg324 O347 2.079 . S
O325 Mg324 1.917 . S
O325 Mg326 1.926 . S
O325 Mg327 1.986 . S
Mg326 O325 1.926 . S
Mg326 O340 1.984 . S
Mg326 O343 1.988 1_455 S
Mg326 O344 2.061 . S
Mg327 O325 1.986 . S
Mg327 O335 2.238 1_455 S
Mg327 O339 2.042 . S
Mg327 O341 2.041 1_455 S
Mg327 O348 2.038 . S
C328 O334 1.247 . S
C328 O335 1.289 . S
C329 O347 1.245 . S
C329 O348 1.274 . S
O330 C318 1.241 . S
O330 Mg323 2.042 1_655 S
O331 C318 1.280 . S
O331 Mg321 1.984 . S
O332 C319 1.277 . S
O332 Mg323 2.041 . S
O333 C319 1.245 . S
O333 Mg321 1.988 1_455 S
O334 Mg321 2.061 . S
O334 C328 1.247 . S
O335 Mg324 2.106 1_655 S
O335 Mg327 2.238 1_655 S
O335 C328 1.289 . S
C336 O337 1.245 . S
C336 O338 1.274 . S
O337 Mg324 2.079 1_655 S
O337 C336 1.245 . S
O338 Mg323 2.038 1_655 S
O338 C336 1.274 . S
O339 Mg327 2.042 . S
O339 C342 1.241 . S
O340 Mg326 1.984 . S
O340 C342 1.280 . S
O341 Mg327 2.041 1_655 S
O341 C345 1.277 . S
C342 O339 1.241 . S
C342 O340 1.280 . S
O343 Mg326 1.988 1_655 S
O343 C345 1.245 . S
O344 C320 1.247 . S
O344 Mg326 2.061 . S
C345 O341 1.277 . S
C345 O343 1.245 . S
O346 C320 1.289 . S
O346 Mg323 2.238 . S
O346 Mg324 2.106 . S
O347 Mg324 2.079 . S
O347 C329 1.245 . S
O348 Mg327 2.038 . S
O348 C329 1.274 . S
C349 O361 1.241 . S
C349 O362 1.280 . S
C350 O363 1.277 . S
C350 O364 1.245 . S
C351 O375 1.247 . S
C351 O377 1.289 . S
Mg352 O353 1.926 . S
Mg352 O362 1.984 . S
Mg352 O364 1.988 1_545 S
Mg352 O365 2.061 . S
O353 Mg352 1.926 . S
O353 Mg354 1.986 . S
O353 Mg355 1.917 . S
Mg354 O353 1.986 . S
Mg354 O361 2.042 . S
Mg354 O363 2.041 1_545 S
Mg354 O369 2.038 . S
Mg354 O377 2.238 1_545 S
Mg355 O353 1.917 . S
Mg355 O356 1.917 1_545 S
Mg355 O366 2.106 . S
Mg355 O368 2.079 . S
Mg355 O377 2.106 1_545 S
Mg355 O378 2.079 1_545 S
O356 Mg355 1.917 1_565 S
O356 Mg357 1.926 . S
O356 Mg358 1.986 1_565 S
Mg357 O356 1.926 . S
Mg357 O371 1.984 . S
Mg357 O374 1.988 1_565 S
Mg357 O375 2.061 . S
Mg358 O356 1.986 1_545 S
Mg358 O366 2.238 . S
Mg358 O370 2.042 1_545 S
Mg358 O372 2.041 . S
Mg358 O379 2.038 1_545 S
C359 O365 1.247 . S
C359 O366 1.289 . S
C360 O378 1.245 . S
C360 O379 1.274 . S
O361 C349 1.241 . S
O361 Mg354 2.042 . S
O362 C349 1.280 . S
O362 Mg352 1.984 . S
O363 C350 1.277 . S
O363 Mg354 2.041 1_565 S
O364 C350 1.245 . S
O364 Mg352 1.988 1_565 S
O365 Mg352 2.061 . S
O365 C359 1.247 . S
O366 Mg355 2.106 . S
O366 Mg358 2.238 . S
O366 C359 1.289 . S
C367 O368 1.245 . S
C367 O369 1.274 . S
O368 Mg355 2.079 . S
O368 C367 1.245 . S
O369 Mg354 2.038 . S
O369 C367 1.274 . S
O370 Mg358 2.042 1_565 S
O370 C373 1.241 . S
O371 Mg357 1.984 . S
O371 C373 1.280 . S
O372 Mg358 2.041 . S
O372 C376 1.277 . S
C373 O370 1.241 . S
C373 O371 1.280 . S
O374 Mg357 1.988 1_545 S
O374 C376 1.245 . S
O375 C351 1.247 . S
O375 Mg357 2.061 . S
C376 O372 1.277 . S
C376 O374 1.245 . S
O377 C351 1.289 . S
O377 Mg354 2.238 1_565 S
O377 Mg355 2.106 1_565 S
O378 Mg355 2.079 1_565 S
O378 C360 1.245 . S
O379 Mg358 2.038 1_565 S
O379 C360 1.274 . S
C380 O392 1.241 . S
C380 O393 1.280 . S
C381 O394 1.277 . S
C381 O395 1.245 . S
C382 O406 1.247 . S
C382 O408 1.289 . S
Mg383 O384 1.926 . S
Mg383 O393 1.984 . S
Mg383 O395 1.988 . S
Mg383 O396 2.061 . S
O384 Mg383 1.926 . S
O384 Mg385 1.986 . S
O384 Mg386 1.917 . S
Mg385 O384 1.986 . S
Mg385 O392 2.042 . S
Mg385 O394 2.041 . S
Mg385 O400 2.038 . S
Mg385 O408 2.238 . S
Mg386 O384 1.917 . S
Mg386 O387 1.917 . S
Mg386 O397 2.106 . S
Mg386 O399 2.079 . S
Mg386 O408 2.106 . S
Mg386 O409 2.079 . S
O387 Mg386 1.917 . S
O387 Mg388 1.926 . S
O387 Mg389 1.986 . S
Mg388 O387 1.926 . S
Mg388 O402 1.984 . S
Mg388 O405 1.988 . S
Mg388 O406 2.061 . S
Mg389 O387 1.986 . S
Mg389 O397 2.238 . S
Mg389 O401 2.042 . S
Mg389 O403 2.041 . S
Mg389 O410 2.038 . S
C390 O396 1.247 . S
C390 O397 1.289 . S
C391 O409 1.245 . S
C391 O410 1.274 . S
O392 C380 1.241 . S
O392 Mg385 2.042 . S
O393 C380 1.280 . S
O393 Mg383 1.984 . S
O394 C381 1.277 . S
O394 Mg385 2.041 . S
O395 C381 1.245 . S
O395 Mg383 1.988 . S
O396 Mg383 2.061 . S
O396 C390 1.247 . S
O397 Mg386 2.106 . S
O397 Mg389 2.238 . S
O397 C390 1.289 . S
C398 O399 1.245 . S
C398 O400 1.274 . S
O399 Mg386 2.079 . S
O399 C398 1.245 . S
O400 Mg385 2.038 . S
O400 C398 1.274 . S
O401 Mg389 2.042 . S
O401 C404 1.241 . S
O402 Mg388 1.984 . S
O402 C404 1.280 . S
O403 Mg389 2.041 . S
O403 C407 1.277 . S
C404 O401 1.241 . S
C404 O402 1.280 . S
O405 Mg388 1.988 . S
O405 C407 1.245 . S
O406 C382 1.247 . S
O406 Mg388 2.061 . S
C407 O403 1.277 . S
C407 O405 1.245 . S
O408 C382 1.289 . S
O408 Mg385 2.238 . S
O408 Mg386 2.106 . S
O409 Mg386 2.079 . S
O409 C391 1.245 . S
O410 Mg389 2.038 . S
O410 C391 1.274 . S
H411 C417 0.930 . S
H412 C421 0.930 . S
H413 C426 0.929 . S
H414 C424 0.929 . S
H415 C419 0.929 . S
H416 C425 0.929 . S
C417 H411 0.930 . S
C417 C418 1.367 . S
C417 C425 1.378 . S
C418 C417 1.367 . S
C418 C426 1.433 . S
C419 H415 0.929 . S
C419 C421 1.378 . S
C419 C423 1.350 . S
C420 C423 1.463 . S
C420 C425 1.350 . S
C420 N428 1.427 . S
C421 H412 0.930 . S
C421 C419 1.378 . S
C421 C422 1.367 . S
C422 C421 1.367 . S
C422 C424 1.433 . S
C423 C419 1.350 . S
C423 C420 1.463 . S
C423 N427 1.427 . S
C424 H414 0.929 . S
C424 C422 1.433 . S
C424 N427 1.384 . S
C425 H416 0.929 . S
C425 C417 1.378 . S
C425 C420 1.350 . S
C426 H413 0.929 . S
C426 C418 1.433 . S
C426 N428 1.384 . S
N427 C423 1.427 . S
N427 C424 1.384 . S
N428 C420 1.427 . S
N428 C426 1.384 . S
H429 C435 0.930 . S
H430 C439 0.930 . S
H431 C444 0.929 . S
H432 C442 0.929 . S
H433 C437 0.929 . S
H434 C443 0.929 . S
C435 H429 0.930 . S
C435 C436 1.367 . S
C435 C443 1.378 . S
C436 C435 1.367 . S
C436 C444 1.433 . S
C437 H433 0.929 . S
C437 C439 1.378 . S
C437 C441 1.350 . S
C438 C441 1.463 . S
C438 C443 1.350 . S
C438 N446 1.427 . S
C439 H430 0.930 . S
C439 C437 1.378 . S
C439 C440 1.367 . S
C440 C439 1.367 . S
C440 C442 1.433 . S
C441 C437 1.350 . S
C441 C438 1.463 . S
C441 N445 1.427 . S
C442 H432 0.929 . S
C442 C440 1.433 . S
C442 N445 1.384 . S
C443 H434 0.929 . S
C443 C435 1.378 . S
C443 C438 1.350 . S
C444 H431 0.929 . S
C444 C436 1.433 . S
C444 N446 1.384 . S
N445 C441 1.427 . S
N445 C442 1.384 . S
N446 C438 1.427 . S
N446 C444 1.384 . S
H447 C453 0.930 . S
H448 C457 0.930 . S
H449 C462 0.929 . S
H450 C460 0.929 . S
H451 C455 0.929 . S
H452 C461 0.929 . S
C453 H447 0.930 . S
C453 C454 1.367 . S
C453 C461 1.378 . S
C454 C453 1.367 . S
C454 C462 1.433 . S
C455 H451 0.929 . S
C455 C457 1.378 . S
C455 C459 1.350 . S
C456 C459 1.463 . S
C456 C461 1.350 . S
C456 N464 1.427 . S
C457 H448 0.930 . S
C457 C455 1.378 . S
C457 C458 1.367 . S
C458 C457 1.367 . S
C458 C460 1.433 . S
C459 C455 1.350 . S
C459 C456 1.463 . S
C459 N463 1.427 . S
C460 H450 0.929 . S
C460 C458 1.433 . S
C460 N463 1.384 . S
C461 H452 0.929 . S
C461 C453 1.378 . S
C461 C456 1.350 . S
C462 H449 0.929 . S
C462 C454 1.433 . S
C462 N464 1.384 . S
N463 C459 1.427 . S
N463 C460 1.384 . S
N464 C456 1.427 . S
N464 C462 1.384 . S
H465 C471 0.930 . S
H466 C475 0.930 . S
H467 C480 0.929 . S
H468 C478 0.929 . S
H469 C473 0.929 . S
H470 C479 0.929 . S
C471 H465 0.930 . S
C471 C472 1.367 . S
C471 C479 1.378 . S
C472 C471 1.367 . S
C472 C480 1.433 . S
C473 H469 0.929 . S
C473 C475 1.378 . S
C473 C477 1.350 . S
C474 C477 1.463 . S
C474 C479 1.350 . S
C474 N482 1.427 . S
C475 H466 0.930 . S
C475 C473 1.378 . S
C475 C476 1.367 . S
C476 C475 1.367 . S
C476 C478 1.433 . S
C477 C473 1.350 . S
C477 C474 1.463 . S
C477 N481 1.427 . S
C478 H468 0.929 . S
C478 C476 1.433 . S
C478 N481 1.384 . S
C479 H470 0.929 . S
C479 C471 1.378 . S
C479 C474 1.350 . S
C480 H467 0.929 . S
C480 C472 1.433 . S
C480 N482 1.384 . S
N481 C477 1.427 . S
N481 C478 1.384 . S
N482 C474 1.427 . S
N482 C480 1.384 . S
H483 C489 0.930 . S
H484 C493 0.930 . S
H485 C498 0.929 . S
H486 C496 0.929 . S
H487 C491 0.929 . S
H488 C497 0.929 . S
C489 H483 0.930 . S
C489 C490 1.367 . S
C489 C497 1.378 . S
C490 C489 1.367 . S
C490 C498 1.433 . S
C491 H487 0.929 . S
C491 C493 1.378 . S
C491 C495 1.350 . S
C492 C495 1.463 . S
C492 C497 1.350 . S
C492 N500 1.427 . S
C493 H484 0.930 . S
C493 C491 1.378 . S
C493 C494 1.367 . S
C494 C493 1.367 . S
C494 C496 1.433 . S
C495 C491 1.350 . S
C495 C492 1.463 . S
C495 N499 1.427 . S
C496 H486 0.929 . S
C496 C494 1.433 . S
C496 N499 1.384 . S
C497 H488 0.929 . S
C497 C489 1.378 . S
C497 C492 1.350 . S
C498 H485 0.929 . S
C498 C490 1.433 . S
C498 N500 1.384 . S
N499 C495 1.427 . S
N499 C496 1.384 . S
N500 C492 1.427 . S
N500 C498 1.384 . S
H501 C507 0.930 . S
H502 C511 0.930 . S
H503 C516 0.929 . S
H504 C514 0.929 . S
H505 C509 0.929 . S
H506 C515 0.929 . S
C507 H501 0.930 . S
C507 C508 1.367 . S
C507 C515 1.378 . S
C508 C507 1.367 . S
C508 C516 1.433 . S
C509 H505 0.929 . S
C509 C511 1.378 . S
C509 C513 1.350 . S
C510 C513 1.463 . S
C510 C515 1.350 . S
C510 N518 1.427 . S
C511 H502 0.930 . S
C511 C509 1.378 . S
C511 C512 1.367 . S
C512 C511 1.367 . S
C512 C514 1.433 . S
C513 C509 1.350 . S
C513 C510 1.463 . S
C513 N517 1.427 . S
C514 H504 0.929 . S
C514 C512 1.433 . S
C514 N517 1.384 . S
C515 H506 0.929 . S
C515 C507 1.378 . S
C515 C510 1.350 . S
C516 H503 0.929 . S
C516 C508 1.433 . S
C516 N518 1.384 . S
N517 C513 1.427 . S
N517 C514 1.384 . S
N518 C510 1.427 . S
N518 C516 1.384 . S
H519 C525 0.930 . S
H520 C529 0.930 . S
H521 C534 0.929 . S
H522 C532 0.929 . S
H523 C527 0.929 . S
H524 C533 0.929 . S
C525 H519 0.930 . S
C525 C526 1.367 . S
C525 C533 1.378 . S
C526 C525 1.367 . S
C526 C534 1.433 . S
C527 H523 0.929 . S
C527 C529 1.378 . S
C527 C531 1.350 . S
C528 C531 1.463 . S
C528 C533 1.350 . S
C528 N536 1.427 . S
C529 H520 0.930 . S
C529 C527 1.378 . S
C529 C530 1.367 . S
C530 C529 1.367 . S
C530 C532 1.433 . S
C531 C527 1.350 . S
C531 C528 1.463 . S
C531 N535 1.427 . S
C532 H522 0.929 . S
C532 C530 1.433 . S
C532 N535 1.384 . S
C533 H524 0.929 . S
C533 C525 1.378 . S
C533 C528 1.350 . S
C534 H521 0.929 . S
C534 C526 1.433 . S
C534 N536 1.384 . S
N535 C531 1.427 . S
N535 C532 1.384 . S
N536 C528 1.427 . S
N536 C534 1.384 . S
H537 C543 0.930 . S
H538 C547 0.930 . S
H539 C552 0.929 . S
H540 C550 0.929 . S
H541 C545 0.929 . S
H542 C551 0.929 . S
C543 H537 0.930 . S
C543 C544 1.367 . S
C543 C551 1.378 . S
C544 C543 1.367 . S
C544 C552 1.433 . S
C545 H541 0.929 . S
C545 C547 1.378 . S
C545 C549 1.350 . S
C546 C549 1.463 . S
C546 C551 1.350 . S
C546 N554 1.427 . S
C547 H538 0.930 . S
C547 C545 1.378 . S
C547 C548 1.367 . S
C548 C547 1.367 . S
C548 C550 1.433 . S
C549 C545 1.350 . S
C549 C546 1.463 . S
C549 N553 1.427 . S
C550 H540 0.929 . S
C550 C548 1.433 . S
C550 N553 1.384 . S
C551 H542 0.929 . S
C551 C543 1.378 . S
C551 C546 1.350 . S
C552 H539 0.929 . S
C552 C544 1.433 . S
C552 N554 1.384 . S
N553 C549 1.427 . S
N553 C550 1.384 . S
N554 C546 1.427 . S
N554 C552 1.384 . S
H555 C561 0.930 . S
H556 C565 0.930 . S
H557 C570 0.929 . S
H558 C568 0.929 . S
H559 C563 0.929 . S
H560 C569 0.929 . S
C561 H555 0.930 . S
C561 C562 1.367 . S
C561 C569 1.378 . S
C562 C561 1.367 . S
C562 C570 1.433 . S
C563 H559 0.929 . S
C563 C565 1.378 . S
C563 C567 1.350 . S
C564 C567 1.463 . S
C564 C569 1.350 . S
C564 N572 1.427 . S
C565 H556 0.930 . S
C565 C563 1.378 . S
C565 C566 1.367 . S
C566 C565 1.367 . S
C566 C568 1.433 . S
C567 C563 1.350 . S
C567 C564 1.463 . S
C567 N571 1.427 . S
C568 H558 0.929 . S
C568 C566 1.433 . S
C568 N571 1.384 . S
C569 H560 0.929 . S
C569 C561 1.378 . S
C569 C564 1.350 . S
C570 H557 0.929 . S
C570 C562 1.433 . S
C570 N572 1.384 . S
N571 C567 1.427 . S
N571 C568 1.384 . S
N572 C564 1.427 . S
N572 C570 1.384 . S
H573 C579 0.930 . S
H574 C583 0.930 . S
H575 C588 0.929 . S
H576 C586 0.929 . S
H577 C581 0.929 . S
H578 C587 0.929 . S
C579 H573 0.930 . S
C579 C580 1.367 . S
C579 C587 1.378 1_554 S
C580 C579 1.367 . S
C580 C588 1.433 1_554 S
C581 H577 0.929 . S
C581 C583 1.378 . S
C581 C585 1.350 . S
C582 C585 1.463 . S
C582 C587 1.350 . S
C582 N590 1.427 . S
C583 H574 0.930 . S
C583 C581 1.378 . S
C583 C584 1.367 . S
C584 C583 1.367 . S
C584 C586 1.433 . S
C585 C581 1.350 . S
C585 C582 1.463 . S
C585 N589 1.427 . S
C586 H576 0.929 . S
C586 C584 1.433 . S
C586 N589 1.384 . S
C587 H578 0.929 . S
C587 C579 1.378 1_556 S
C587 C582 1.350 . S
C588 H575 0.929 . S
C588 C580 1.433 1_556 S
C588 N590 1.384 . S
N589 C585 1.427 . S
N589 C586 1.384 . S
N590 C582 1.427 . S
N590 C588 1.384 . S
H591 C597 0.930 . S
H592 C601 0.930 . S
H593 C606 0.929 . S
H594 C604 0.929 . S
H595 C599 0.929 . S
H596 C605 0.929 . S
C597 H591 0.930 . S
C597 C598 1.367 1_556 S
C597 C605 1.378 . S
C598 C597 1.367 1_554 S
C598 C606 1.433 . S
C599 H595 0.929 . S
C599 C601 1.378 . S
C599 C603 1.350 . S
C600 C603 1.463 . S
C600 C605 1.350 . S
C600 N608 1.427 . S
C601 H592 0.930 . S
C601 C599 1.378 . S
C601 C602 1.367 . S
C602 C601 1.367 . S
C602 C604 1.433 . S
C603 C599 1.350 . S
C603 C600 1.463 . S
C603 N607 1.427 . S
C604 H594 0.929 . S
C604 C602 1.433 . S
C604 N607 1.384 . S
C605 H596 0.929 . S
C605 C597 1.378 . S
C605 C600 1.350 . S
C606 H593 0.929 . S
C606 C598 1.433 . S
C606 N608 1.384 1_554 S
N607 C603 1.427 . S
N607 C604 1.384 . S
N608 C600 1.427 . S
N608 C606 1.384 1_556 S
H609 C615 0.930 . S
H610 C619 0.930 . S
H611 C624 0.929 . S
H612 C622 0.929 . S
H613 C617 0.929 . S
H614 C623 0.929 . S
C615 H609 0.930 . S
C615 C616 1.367 1_556 S
C615 C623 1.378 . S
C616 C615 1.367 1_554 S
C616 C624 1.433 . S
C617 H613 0.929 . S
C617 C619 1.378 . S
C617 C621 1.350 . S
C618 C621 1.463 . S
C618 C623 1.350 . S
C618 N626 1.427 1_556 S
C619 H610 0.930 . S
C619 C617 1.378 . S
C619 C620 1.367 . S
C620 C619 1.367 . S
C620 C622 1.433 . S
C621 C617 1.350 . S
C621 C618 1.463 . S
C621 N625 1.427 . S
C622 H612 0.929 . S
C622 C620 1.433 . S
C622 N625 1.384 . S
C623 H614 0.929 . S
C623 C615 1.378 . S
C623 C618 1.350 . S
C624 H611 0.929 . S
C624 C616 1.433 . S
C624 N626 1.384 . S
N625 C621 1.427 . S
N625 C622 1.384 . S
N626 C618 1.427 1_554 S
N626 C624 1.384 . S
H627 C633 0.930 . S
H628 C637 0.930 . S
H629 C642 0.929 . S
H630 C640 0.929 . S
H631 C635 0.929 . S
H632 C641 0.929 . S
C633 H627 0.930 . S
C633 C634 1.367 . S
C633 C641 1.378 . S
C634 C633 1.367 . S
C634 C642 1.433 . S
C635 H631 0.929 . S
C635 C637 1.378 . S
C635 C639 1.350 . S
C636 C639 1.463 . S
C636 C641 1.350 . S
C636 N644 1.427 . S
C637 H628 0.930 . S
C637 C635 1.378 . S
C637 C638 1.367 . S
C638 C637 1.367 . S
C638 C640 1.433 . S
C639 C635 1.350 . S
C639 C636 1.463 . S
C639 N643 1.427 . S
C640 H630 0.929 . S
C640 C638 1.433 . S
C640 N643 1.384 . S
C641 H632 0.929 . S
C641 C633 1.378 . S
C641 C636 1.350 . S
C642 H629 0.929 . S
C642 C634 1.433 . S
C642 N644 1.384 . S
N643 C639 1.427 . S
N643 C640 1.384 . S
N644 C636 1.427 . S
N644 C642 1.384 . S
H645 C651 0.930 . S
H646 C655 0.930 . S
H647 C660 0.929 . S
H648 C658 0.929 . S
H649 C653 0.929 . S
H650 C659 0.929 . S
C651 H645 0.930 . S
C651 C652 1.367 . S
C651 C659 1.378 . S
C652 C651 1.367 . S
C652 C660 1.433 . S
C653 H649 0.929 . S
C653 C655 1.378 . S
C653 C657 1.350 . S
C654 C657 1.463 . S
C654 C659 1.350 . S
C654 N662 1.427 . S
C655 H646 0.930 . S
C655 C653 1.378 . S
C655 C656 1.367 . S
C656 C655 1.367 . S
C656 C658 1.433 . S
C657 C653 1.350 . S
C657 C654 1.463 . S
C657 N661 1.427 . S
C658 H648 0.929 . S
C658 C656 1.433 . S
C658 N661 1.384 . S
C659 H650 0.929 . S
C659 C651 1.378 . S
C659 C654 1.350 . S
C660 H647 0.929 . S
C660 C652 1.433 . S
C660 N662 1.384 . S
N661 C657 1.427 . S
N661 C658 1.384 . S
N662 C654 1.427 . S
N662 C660 1.384 . S
H663 C669 0.930 . S
H664 C673 0.930 . S
H665 C678 0.929 . S
H666 C676 0.929 . S
H667 C671 0.929 . S
H668 C677 0.929 . S
C669 H663 0.930 . S
C669 C670 1.367 . S
C669 C677 1.378 1_554 S
C670 C669 1.367 . S
C670 C678 1.433 . S
C671 H667 0.929 . S
C671 C673 1.378 . S
C671 C675 1.350 . S
C672 C675 1.463 . S
C672 C677 1.350 . S
C672 N680 1.427 1_556 S
C673 H664 0.930 . S
C673 C671 1.378 . S
C673 C674 1.367 . S
C674 C673 1.367 . S
C674 C676 1.433 . S
C675 C671 1.350 . S
C675 C672 1.463 . S
C675 N679 1.427 . S
C676 H666 0.929 . S
C676 C674 1.433 . S
C676 N679 1.384 . S
C677 H668 0.929 . S
C677 C669 1.378 1_556 S
C677 C672 1.350 . S
C678 H665 0.929 . S
C678 C670 1.433 . S
C678 N680 1.384 . S
N679 C675 1.427 . S
N679 C676 1.384 . S
N680 C672 1.427 1_554 S
N680 C678 1.384 . S
H681 C687 0.930 . S
H682 C691 0.930 . S
H683 C696 0.929 . S
H684 C694 0.929 . S
H685 C689 0.929 . S
H686 C695 0.929 . S
C687 H681 0.930 . S
C687 C688 1.367 . S
C687 C695 1.378 . S
C688 C687 1.367 . S
C688 C696 1.433 . S
C689 H685 0.929 . S
C689 C691 1.378 . S
C689 C693 1.350 . S
C690 C693 1.463 . S
C690 C695 1.350 1_556 S
C690 N698 1.427 . S
C691 H682 0.930 . S
C691 C689 1.378 . S
C691 C692 1.367 . S
C692 C691 1.367 . S
C692 C694 1.433 . S
C693 C689 1.350 . S
C693 C690 1.463 . S
C693 N697 1.427 . S
C694 H684 0.929 . S
C694 C692 1.433 . S
C694 N697 1.384 . S
C695 H686 0.929 . S
C695 C687 1.378 . S
C695 C690 1.350 1_554 S
C696 H683 0.929 . S
C696 C688 1.433 . S
C696 N698 1.384 1_554 S
N697 C693 1.427 . S
N697 C694 1.384 . S
N698 C690 1.427 . S
N698 C696 1.384 1_556 S
H699 C705 0.930 . S
H700 C709 0.930 . S
H701 C714 0.929 1_554 S
H702 C712 0.929 . S
H703 C707 0.929 . S
H704 C713 0.929 . S
C705 H699 0.930 . S
C705 C706 1.367 . S
C705 C713 1.378 . S
C706 C705 1.367 . S
C706 C714 1.433 . S
C707 H703 0.929 . S
C707 C709 1.378 . S
C707 C711 1.350 . S
C708 C711 1.463 . S
C708 C713 1.350 . S
C708 N716 1.427 . S
C709 H700 0.930 . S
C709 C707 1.378 . S
C709 C710 1.367 . S
C710 C709 1.367 . S
C710 C712 1.433 . S
C711 C707 1.350 . S
C711 C708 1.463 . S
C711 N715 1.427 . S
C712 H702 0.929 . S
C712 C710 1.433 . S
C712 N715 1.384 . S
C713 H704 0.929 . S
C713 C705 1.378 . S
C713 C708 1.350 . S
C714 H701 0.929 1_556 S
C714 C706 1.433 . S
C714 N716 1.384 . S
N715 C711 1.427 . S
N715 C712 1.384 . S
N716 C708 1.427 . S
N716 C714 1.384 . S
H717 C723 0.930 . S
H718 C727 0.930 . S
H719 C732 0.929 . S
H720 C730 0.929 . S
H721 C725 0.929 . S
H722 C731 0.929 . S
C723 H717 0.930 . S
C723 C724 1.367 . S
C723 C731 1.378 . S
C724 C723 1.367 . S
C724 C732 1.433 . S
C725 H721 0.929 . S
C725 C727 1.378 . S
C725 C729 1.350 . S
C726 C729 1.463 . S
C726 C731 1.350 . S
C726 N734 1.427 . S
C727 H718 0.930 . S
C727 C725 1.378 . S
C727 C728 1.367 . S
C728 C727 1.367 . S
C728 C730 1.433 . S
C729 C725 1.350 . S
C729 C726 1.463 . S
C729 N733 1.427 . S
C730 H720 0.929 . S
C730 C728 1.433 . S
C730 N733 1.384 . S
C731 H722 0.929 . S
C731 C723 1.378 . S
C731 C726 1.350 . S
C732 H719 0.929 . S
C732 C724 1.433 . S
C732 N734 1.384 . S
N733 C729 1.427 . S
N733 C730 1.384 . S
N734 C726 1.427 . S
N734 C732 1.384 . S
H735 C741 0.930 . S
H736 C745 0.930 . S
H737 C750 0.929 . S
H738 C748 0.929 . S
H739 C743 0.929 . S
H740 C749 0.929 . S
C741 H735 0.930 . S
C741 C742 1.367 . S
C741 C749 1.378 . S
C742 C741 1.367 . S
C742 C750 1.433 . S
C743 H739 0.929 . S
C743 C745 1.378 . S
C743 C747 1.350 . S
C744 C747 1.463 . S
C744 C749 1.350 . S
C744 N752 1.427 . S
C745 H736 0.930 . S
C745 C743 1.378 . S
C745 C746 1.367 . S
C746 C745 1.367 . S
C746 C748 1.433 . S
C747 C743 1.350 . S
C747 C744 1.463 . S
C747 N751 1.427 . S
C748 H738 0.929 . S
C748 C746 1.433 . S
C748 N751 1.384 . S
C749 H740 0.929 . S
C749 C741 1.378 . S
C749 C744 1.350 . S
C750 H737 0.929 . S
C750 C742 1.433 . S
C750 N752 1.384 . S
N751 C747 1.427 . S
N751 C748 1.384 . S
N752 C744 1.427 . S
N752 C750 1.384 . S
H753 C759 0.930 . S
H754 C763 0.930 . S
H755 C768 0.929 . S
H756 C766 0.929 . S
H757 C761 0.929 . S
H758 C767 0.929 . S
C759 H753 0.930 . S
C759 C760 1.367 . S
C759 C767 1.378 . S
C760 C759 1.367 . S
C760 C768 1.433 . S
C761 H757 0.929 . S
C761 C763 1.378 . S
C761 C765 1.350 . S
C762 C765 1.463 . S
C762 C767 1.350 . S
C762 N770 1.427 . S
C763 H754 0.930 . S
C763 C761 1.378 . S
C763 C764 1.367 . S
C764 C763 1.367 . S
C764 C766 1.433 . S
C765 C761 1.350 . S
C765 C762 1.463 . S
C765 N769 1.427 . S
C766 H756 0.929 . S
C766 C764 1.433 . S
C766 N769 1.384 . S
C767 H758 0.929 . S
C767 C759 1.378 . S
C767 C762 1.350 . S
C768 H755 0.929 . S
C768 C760 1.433 . S
C768 N770 1.384 . S
N769 C765 1.427 . S
N769 C766 1.384 . S
N770 C762 1.427 . S
N770 C768 1.384 . S
H771 C777 0.930 . S
H772 C781 0.930 . S
H773 C786 0.929 . S
H774 C784 0.929 . S
H775 C779 0.929 . S
H776 C785 0.929 . S
C777 H771 0.930 . S
C777 C778 1.367 . S
C777 C785 1.378 . S
C778 C777 1.367 . S
C778 C786 1.433 . S
C779 H775 0.929 . S
C779 C781 1.378 . S
C779 C783 1.350 . S
C780 C783 1.463 . S
C780 C785 1.350 . S
C780 N788 1.427 . S
C781 H772 0.930 . S
C781 C779 1.378 . S
C781 C782 1.367 . S
C782 C781 1.367 . S
C782 C784 1.433 . S
C783 C779 1.350 . S
C783 C780 1.463 . S
C783 N787 1.427 . S
C784 H774 0.929 . S
C784 C782 1.433 . S
C784 N787 1.384 . S
C785 H776 0.929 . S
C785 C777 1.378 . S
C785 C780 1.350 . S
C786 H773 0.929 . S
C786 C778 1.433 . S
C786 N788 1.384 . S
N787 C783 1.427 . S
N787 C784 1.384 . S
N788 C780 1.427 . S
N788 C786 1.384 . S
H789 C795 0.930 . S
H790 C799 0.930 . S
H791 C804 0.929 . S
H792 C802 0.929 . S
H793 C797 0.929 . S
H794 C803 0.929 . S
C795 H789 0.930 . S
C795 C796 1.367 . S
C795 C803 1.378 . S
C796 C795 1.367 . S
C796 C804 1.433 . S
C797 H793 0.929 . S
C797 C799 1.378 . S
C797 C801 1.350 . S
C798 C801 1.463 . S
C798 C803 1.350 . S
C798 N806 1.427 . S
C799 H790 0.930 . S
C799 C797 1.378 . S
C799 C800 1.367 . S
C800 C799 1.367 . S
C800 C802 1.433 . S
C801 C797 1.350 . S
C801 C798 1.463 . S
C801 N805 1.427 . S
C802 H792 0.929 . S
C802 C800 1.433 . S
C802 N805 1.384 . S
C803 H794 0.929 . S
C803 C795 1.378 . S
C803 C798 1.350 . S
C804 H791 0.929 . S
C804 C796 1.433 . S
C804 N806 1.384 . S
N805 C801 1.427 . S
N805 C802 1.384 . S
N806 C798 1.427 . S
N806 C804 1.384 . S
H807 C813 0.930 . S
H808 C817 0.930 . S
H809 C822 0.929 . S
H810 C820 0.929 . S
H811 C815 0.929 . S
H812 C821 0.929 . S
C813 H807 0.930 . S
C813 C814 1.367 . S
C813 C821 1.378 . S
C814 C813 1.367 . S
C814 C822 1.433 . S
C815 H811 0.929 . S
C815 C817 1.378 . S
C815 C819 1.350 . S
C816 C819 1.463 . S
C816 C821 1.350 . S
C816 N824 1.427 . S
C817 H808 0.930 . S
C817 C815 1.378 . S
C817 C818 1.367 . S
C818 C817 1.367 . S
C818 C820 1.433 . S
C819 C815 1.350 . S
C819 C816 1.463 . S
C819 N823 1.427 . S
C820 H810 0.929 . S
C820 C818 1.433 . S
C820 N823 1.384 . S
C821 H812 0.929 . S
C821 C813 1.378 . S
C821 C816 1.350 . S
C822 H809 0.929 . S
C822 C814 1.433 . S
C822 N824 1.384 . S
N823 C819 1.427 . S
N823 C820 1.384 . S
N824 C816 1.427 . S
N824 C822 1.384 . S
H825 C831 0.930 . S
H826 C835 0.930 . S
H827 C840 0.929 . S
H828 C838 0.929 . S
H829 C833 0.929 . S
H830 C839 0.929 . S
C831 H825 0.930 . S
C831 C832 1.367 . S
C831 C839 1.378 . S
C832 C831 1.367 . S
C832 C840 1.433 . S
C833 H829 0.929 . S
C833 C835 1.378 . S
C833 C837 1.350 . S
C834 C837 1.463 . S
C834 C839 1.350 . S
C834 N842 1.427 . S
C835 H826 0.930 . S
C835 C833 1.378 . S
C835 C836 1.367 . S
C836 C835 1.367 . S
C836 C838 1.433 . S
C837 C833 1.350 . S
C837 C834 1.463 . S
C837 N841 1.427 . S
C838 H828 0.929 . S
C838 C836 1.433 . S
C838 N841 1.384 . S
C839 H830 0.929 . S
C839 C831 1.378 . S
C839 C834 1.350 . S
C840 H827 0.929 . S
C840 C832 1.433 . S
C840 N842 1.384 . S
N841 C837 1.427 . S
N841 C838 1.384 . S
N842 C834 1.427 . S
N842 C840 1.384 . S
C418 C22 1.879 . S
C422 C329 1.804 . S
C436 C92 1.839 . S
C440 C376 1.809 . S
C458 C380 1.925 . S
C454 C144 1.996 . S
C476 C345 1.656 . S
C472 C197 1.694 . S
C490 C250 2.004 . S
C494 C360 1.942 . S
C512 C382 1.096 . S
C508 C287 1.131 . S
C530 C351 1.572 . S
C526 C145 1.636 . S
C544 C198 1.568 . S
C548 C391 1.515 . S
C566 C320 1.534 . S
C562 C251 1.602 . S
C580 C294 1.476 . S
C584 C349 1.433 . S
C598 C29 1.933 . S
C602 C407 1.878 . S
C620 C318 1.739 . S
C616 C91 1.782 . S
C638 C336 1.638 . S
C634 C188 1.695 . S
C656 C350 1.341 . S
C652 C241 1.375 . S
C674 C404 1.771 . S
C670 C304 1.833 . S
C692 C319 1.489 . S
C688 C39 1.516 . S
C710 C367 1.477 . S
C706 C75 1.558 1_556 S
C724 C135 0.932 . S
C728 C390 0.906 . S
C746 C359 1.389 . S
C742 C303 1.444 . S
C764 C398 1.347 . S
C760 C38 1.376 . S
C782 C328 1.127 . S
C778 C82 1.179 . S
C800 C373 1.267 . S
C796 C128 1.307 . S
C814 C181 1.758 . S
C818 C381 1.715 . S
C832 C234 1.328 . S
C836 C342 1.291 . S
