# Generated by pormake.
# Topology scu, (8,4)-cn, num edge types: 1
# Building blocks:
#     Node 0, Type 0, BuildingBlock: TAGTUT_clean_sbu_3, # of connection points: 8
#     Node 1, Type 1, BuildingBlock: KOZSID_clean_sbu_0, # of connection points: 4
#     Node 2, Type 1, BuildingBlock: KOZSID_clean_sbu_0, # of connection points: 4
#     Edge 3, Type (0, 1), BuildingBlock: TEMPAE_clean_linker_10, # of connection points: 2
#     Edge 4, Type (0, 1), BuildingBlock: TEMPAE_clean_linker_10, # of connection points: 2
#     Edge 5, Type (0, 1), BuildingBlock: TEMPAE_clean_linker_10, # of connection points: 2
#     Edge 6, Type (0, 1), BuildingBlock: TEMPAE_clean_linker_10, # of connection points: 2
#     Edge 7, Type (0, 1), BuildingBlock: TEMPAE_clean_linker_10, # of connection points: 2
#     Edge 8, Type (0, 1), BuildingBlock: TEMPAE_clean_linker_10, # of connection points: 2
#     Edge 9, Type (0, 1), BuildingBlock: TEMPAE_clean_linker_10, # of connection points: 2
#     Edge 10, Type (0, 1), BuildingBlock: TEMPAE_clean_linker_10, # of connection points: 2
# Relax obj value: 0.023
# Max RMSD: 0.101
# Mean RMSD: 0.062
data_MOF--net-scu--node1-TAGTUT_clean_sbu_3--node2-KOZSID_clean_sbu_0--edge1-TEMPAE_clean_linker_10
_symmetry_space_group_name_H-M    P1
_symmetry_Int_Tables_number       1
_symmetry_cell_setting            triclinic
loop_
_symmetry_equiv_pos_as_xyz
'x, y, z'
_cell_length_a     31.048632
_cell_length_b     26.177486
_cell_length_c     21.436622
_cell_angle_alpha  85.137342
_cell_angle_beta   87.276046
_cell_angle_gamma 89.969337
loop_
_atom_site_label
_atom_site_type_symbol
_atom_site_fract_x
_atom_site_fract_y
_atom_site_fract_z
_atom_type_partial_charge
C0 C 0.99846 0.90708 0.09068 0.0
C1 C 0.84542 0.99696 0.08852 0.0
C2 C 0.87882 0.0352 0.89416 0.0
Mg3 Mg 0.08732 0.94327 0.01124 0.0
Mg4 Mg 0.10256 0.06577 0.96995 0.0
O5 O 0.06791 0.00785 0.9637 0.0
Mg6 Mg 0.0068 0.01085 0.99717 0.0
O7 O 0.94588 0.01001 0.03098 0.0
Mg8 Mg 0.92366 0.94688 0.99656 0.0
Mg9 Mg 0.91323 0.06983 0.01534 0.0
C10 C 0.02046 0.11718 0.9066 0.0
O11 O 0.01955 0.07461 0.0608 0.0
O12 O 0.15125 0.95259 0.94714 0.0
O13 O 0.95959 0.12287 0.04953 0.0
O14 O 0.12144 0.9844 0.08572 0.0
O15 O 0.15678 0.03734 0.91867 0.0
O16 O 0.12355 0.06906 0.06437 0.0
O17 O 0.9886 0.94813 0.93585 0.0
O18 O 0.05034 0.90398 0.93837 0.0
C19 C 0.01203 0.91083 0.9192 0.0
C20 C 0.17084 0.99139 0.91715 0.0
O21 O 0.99665 0.07768 0.92304 0.0
O22 O 0.86209 0.95773 0.06373 0.0
O23 O 0.05922 0.12145 0.92446 0.0
O24 O 0.88912 0.99035 0.9163 0.0
O25 O 0.86077 0.04235 0.07656 0.0
O26 O 0.88777 0.07474 0.92222 0.0
O27 O 0.02222 0.945 0.06876 0.0
O28 O 0.95971 0.90283 0.07382 0.0
C29 C 0.13151 0.02902 0.10016 0.0
C30 C 0.99781 0.11545 0.06941 0.0
C31 C 0.07324 0.58389 0.42811 0.0
C32 C 0.11594 0.59928 0.42891 0.0
C33 C 0.13353 0.57053 0.47725 0.0
C34 C 0.10062 0.53956 0.50305 0.0
N35 N 0.06318 0.54616 0.47363 0.0
Co36 Co 0.00644 0.51154 0.498 0.0
N37 N 0.03224 0.46995 0.56954 0.0
C38 C 0.07379 0.47016 0.58597 0.0
C39 C 0.08209 0.43632 0.6362 0.0
C40 C 0.04375 0.41221 0.65205 0.0
C41 C 0.01423 0.43281 0.61021 0.0
N42 N 0.94928 0.47862 0.52418 0.0
C43 C 0.93911 0.44116 0.57003 0.0
C44 C 0.89552 0.4292 0.57283 0.0
C45 C 0.87747 0.46002 0.52658 0.0
C46 C 0.91096 0.48892 0.49842 0.0
N47 N 0.98118 0.55129 0.42461 0.0
C48 C 0.94029 0.54854 0.40588 0.0
C49 C 0.93273 0.58003 0.35317 0.0
C50 C 0.97097 0.60458 0.33755 0.0
C51 C 0.9997 0.58674 0.38205 0.0
N52 N 0.02077 0.45556 0.44391 0.0
C53 C 0.03874 0.37333 0.3707 0.0
C54 C 0.9971 0.39273 0.37683 0.0
C55 C 0.98897 0.43365 0.41289 0.0
C56 C 0.07165 0.39627 0.40068 0.0
C57 C 0.06193 0.43693 0.4374 0.0
N58 N 0.99171 0.56742 0.55229 0.0
C59 C 0.94368 0.63488 0.58261 0.0
C60 C 0.9694 0.64424 0.63184 0.0
C61 C 0.00676 0.61536 0.64022 0.0
C62 C 0.0175 0.57785 0.59977 0.0
C63 C 0.95513 0.59623 0.544 0.0
H64 H 0.04692 0.55803 0.60778 0.0
H65 H 0.93376 0.59051 0.50789 0.0
H66 H 0.95655 0.44667 0.41509 0.0
H67 H 0.08807 0.45239 0.46039 0.0
C68 C 0.10399 0.5035 0.55425 0.0
C69 C 0.04321 0.60716 0.38435 0.0
C70 C 0.9701 0.41408 0.60924 0.0
C71 C 0.90868 0.52048 0.44273 0.0
H72 H 0.13248 0.62857 0.39803 0.0
H73 H 0.16629 0.57226 0.49211 0.0
H74 H 0.11243 0.42972 0.65836 0.0
H75 H 0.03825 0.38234 0.68963 0.0
H76 H 0.87881 0.40019 0.6039 0.0
H77 H 0.84429 0.45974 0.51325 0.0
H78 H 0.90259 0.58587 0.33021 0.0
H79 H 0.97674 0.63347 0.29889 0.0
H80 H 0.9708 0.37664 0.35326 0.0
H81 H 0.10445 0.38233 0.39677 0.0
H82 H 0.91461 0.65686 0.5744 0.0
H83 H 0.02809 0.62238 0.67717 0.0
C84 C 0.4604 0.92909 0.62469 0.0
C85 C 0.44945 0.88088 0.65324 0.0
C86 C 0.4612 0.84615 0.61147 0.0
C87 C 0.47896 0.87484 0.56021 0.0
N88 N 0.47998 0.9255 0.56743 0.0
Co89 Co 0.50359 0.98004 0.50483 0.0
N90 N 0.53341 0.9287 0.45534 0.0
C91 C 0.52485 0.87815 0.45838 0.0
C92 C 0.55084 0.8525 0.41796 0.0
C93 C 0.57747 0.88924 0.38762 0.0
C94 C 0.56615 0.93529 0.41161 0.0
N95 N 0.52748 0.03403 0.4419 0.0
C96 C 0.56114 0.03158 0.39974 0.0
C97 C 0.56805 0.07852 0.36554 0.0
C98 C 0.53717 0.1112 0.38684 0.0
C99 C 0.51339 0.08257 0.43287 0.0
N100 N 0.47333 0.0315 0.55411 0.0
C101 C 0.46562 0.08061 0.5335 0.0
C102 C 0.44227 0.10677 0.57633 0.0
C103 C 0.434 0.07178 0.62663 0.0
C104 C 0.45284 0.02594 0.61163 0.0
N105 N 0.55487 0.98613 0.55383 0.0
C106 C 0.63027 0.99716 0.6188 0.0
C107 C 0.60803 0.0401 0.5941 0.0
C108 C 0.57036 0.0338 0.56252 0.0
C109 C 0.61367 0.94838 0.61105 0.0
C110 C 0.57616 0.94369 0.57791 0.0
N111 N 0.45233 0.97528 0.45527 0.0
C112 C 0.41985 0.98477 0.35503 0.0
C113 C 0.37845 0.98545 0.38435 0.0
C114 C 0.37501 0.97787 0.44992 0.0
C115 C 0.41212 0.97303 0.48423 0.0
C116 C 0.4562 0.97912 0.3912 0.0
H117 H 0.40812 0.96921 0.53435 0.0
H118 H 0.48755 0.97993 0.36722 0.0
H119 H 0.55401 0.0678 0.54466 0.0
H120 H 0.56461 0.90578 0.57132 0.0
C121 C 0.4987 0.85516 0.50753 0.0
C122 C 0.44469 0.9768 0.64882 0.0
C123 C 0.58556 0.98479 0.38969 0.0
C124 C 0.4838 0.10186 0.47609 0.0
H125 H 0.43292 0.87202 0.69847 0.0
H126 H 0.45745 0.8049 0.61789 0.0
H127 H 0.55179 0.81166 0.41328 0.0
H128 H 0.60243 0.88287 0.35217 0.0
H129 H 0.59287 0.08828 0.32938 0.0
H130 H 0.53391 0.15164 0.37262 0.0
H131 H 0.43243 0.14653 0.57164 0.0
H132 H 0.41487 0.07873 0.66856 0.0
H133 H 0.61939 0.07848 0.5998 0.0
H134 H 0.62998 0.91416 0.62944 0.0
H135 H 0.42447 0.99046 0.30455 0.0
H136 H 0.34385 0.97643 0.47496 0.0
C137 C 0.99792 0.20318 0.10662 0.0
C138 C 0.0161 0.15415 0.10721 0.0
C139 C 0.0106 0.238 0.1484 0.0
C140 C 0.04221 0.22342 0.19194 0.0
C141 C 0.06282 0.17533 0.18996 0.0
C142 C 0.04943 0.14114 0.14763 0.0
C143 C 0.98809 0.28918 0.14857 0.0
C144 C 0.09704 0.1587 0.23507 0.0
C145 C 0.07709 0.33395 0.28143 0.0
C146 C 0.04676 0.32982 0.33213 0.0
C147 C 0.07845 0.29722 0.2372 0.0
C148 C 0.04881 0.25578 0.24435 0.0
C149 C 0.02072 0.24936 0.29845 0.0
C150 C 0.02001 0.28656 0.34162 0.0
C151 C 0.1092 0.305 0.18055 0.0
C152 C 0.98893 0.20542 0.30834 0.0
H153 H 0.97263 0.21381 0.07488 0.0
H154 H 0.06355 0.10326 0.14859 0.0
H155 H 0.96755 0.29022 0.19227 0.0
H156 H 0.01202 0.3207 0.14771 0.0
H157 H 0.96737 0.2966 0.10794 0.0
H158 H 0.11405 0.1236 0.22175 0.0
H159 H 0.1211 0.18972 0.23734 0.0
H160 H 0.08193 0.15063 0.28283 0.0
H161 H 0.09778 0.36749 0.27418 0.0
H162 H 0.997 0.28315 0.38145 0.0
H163 H 0.0913 0.3207 0.13966 0.0
H164 H 0.12364 0.26808 0.16864 0.0
H165 H 0.13551 0.33226 0.18801 0.0
H166 H 0.96374 0.21066 0.27333 0.0
H167 H 0.97286 0.20283 0.35594 0.0
H168 H 0.00528 0.16851 0.3014 0.0
C169 C 0.79301 0.03357 0.16438 0.0
C170 C 0.80745 0.991 0.13345 0.0
C171 C 0.75716 0.03026 0.20655 0.0
C172 C 0.73482 0.98321 0.21843 0.0
C173 C 0.74917 0.93981 0.18804 0.0
C174 C 0.78545 0.94418 0.14585 0.0
C175 C 0.74303 0.07743 0.23808 0.0
C176 C 0.72599 0.88901 0.19976 0.0
C177 C 0.66416 0.97181 0.36846 0.0
C178 C 0.62392 0.98569 0.34587 0.0
C179 C 0.70043 0.96914 0.32724 0.0
C180 C 0.69603 0.9804 0.26202 0.0
C181 C 0.65505 0.9934 0.23906 0.0
C182 C 0.61936 0.99563 0.28137 0.0
C183 C 0.74354 0.95522 0.35352 0.0
C184 C 0.64906 0.00583 0.16995 0.0
H185 H 0.80974 0.06998 0.15575 0.0
H186 H 0.79631 0.91112 0.12234 0.0
H187 H 0.70965 0.08781 0.22576 0.0
H188 H 0.74281 0.06946 0.28975 0.0
H189 H 0.76436 0.11097 0.22435 0.0
H190 H 0.74173 0.85865 0.1736 0.0
H191 H 0.72481 0.87636 0.25053 0.0
H192 H 0.69217 0.89325 0.1856 0.0
H193 H 0.66713 0.96307 0.41843 0.0
H194 H 0.58778 0.00496 0.26417 0.0
H195 H 0.76607 0.98818 0.34431 0.0
H196 H 0.75794 0.92272 0.32991 0.0
H197 H 0.74098 0.94452 0.40484 0.0
H198 H 0.66778 0.04079 0.15303 0.0
H199 H 0.6147 0.01242 0.15947 0.0
H200 H 0.6616 0.97415 0.14308 0.0
C201 C 0.05678 0.86844 0.15754 0.0
C202 C 0.01548 0.86578 0.13406 0.0
C203 C 0.07185 0.829 0.19965 0.0
C204 C 0.04473 0.78649 0.21876 0.0
C205 C 0.00334 0.78344 0.19443 0.0
C206 C 0.98935 0.82294 0.1525 0.0
C207 C 0.11621 0.83345 0.22459 0.0
C208 C 0.97334 0.73864 0.21322 0.0
C209 C 0.07266 0.65418 0.28577 0.0
C210 C 0.05473 0.65541 0.34663 0.0
C211 C 0.07472 0.6989 0.24481 0.0
C212 C 0.0579 0.74518 0.26558 0.0
C213 C 0.04397 0.74728 0.32919 0.0
C214 C 0.04235 0.70204 0.36907 0.0
C215 C 0.09053 0.69534 0.17769 0.0
C216 C 0.02617 0.7959 0.35332 0.0
H217 H 0.07714 0.9014 0.14356 0.0
H218 H 0.95749 0.82018 0.13445 0.0
H219 H 0.13335 0.79622 0.22535 0.0
H220 H 0.13616 0.863 0.19634 0.0
H221 H 0.11313 0.84425 0.27352 0.0
H222 H 0.94227 0.74218 0.1896 0.0
H223 H 0.98893 0.70235 0.20133 0.0
H224 H 0.96629 0.73565 0.26463 0.0
H225 H 0.08237 0.61775 0.26908 0.0
H226 H 0.02869 0.70243 0.41655 0.0
H227 H 0.10976 0.72973 0.16008 0.0
H228 H 0.06242 0.69348 0.14785 0.0
H229 H 0.11046 0.66058 0.17236 0.0
H230 H 0.0464 0.82939 0.3355 0.0
H231 H 0.02414 0.79363 0.40538 0.0
H232 H 0.99326 0.80263 0.33632 0.0
C233 C 0.19028 0.07126 0.15333 0.0
C234 C 0.15919 0.03233 0.15416 0.0
C235 C 0.2239 0.06758 0.19521 0.0
C236 C 0.22604 0.02433 0.23947 0.0
C237 C 0.19255 0.98732 0.24404 0.0
C238 C 0.15973 0.99159 0.20109 0.0
C239 C 0.25888 0.10794 0.18877 0.0
C240 C 0.19287 0.94119 0.29132 0.0
C241 C 0.3362 0.9763 0.28832 0.0
C242 C 0.33926 0.99536 0.34722 0.0
C243 C 0.29983 0.98609 0.25262 0.0
C244 C 0.26521 0.01511 0.27657 0.0
C245 C 0.26786 0.03427 0.33602 0.0
C246 C 0.30491 0.02453 0.37035 0.0
C247 C 0.29837 0.96509 0.18927 0.0
C248 C 0.23143 0.06474 0.36355 0.0
H249 H 0.19019 0.10276 0.11709 0.0
H250 H 0.13554 0.96161 0.20239 0.0
H251 H 0.26612 0.12055 0.23526 0.0
H252 H 0.28892 0.09143 0.16884 0.0
H253 H 0.24994 0.14202 0.15765 0.0
H254 H 0.16092 0.92185 0.29709 0.0
H255 H 0.21698 0.91321 0.2754 0.0
H256 H 0.20218 0.9522 0.33769 0.0
H257 H 0.36207 0.95312 0.27022 0.0
H258 H 0.30708 0.04038 0.41517 0.0
H259 H 0.29293 0.99669 0.15264 0.0
H260 H 0.27101 0.93785 0.18925 0.0
H261 H 0.32857 0.94493 0.17631 0.0
H262 H 0.22505 0.09932 0.33179 0.0
H263 H 0.23845 0.07697 0.4104 0.0
H264 H 0.20144 0.0414 0.36807 0.0
C265 C 0.02652 0.84883 0.83971 0.0
C266 C 0.99638 0.87627 0.87421 0.0
C267 C 0.01339 0.8144 0.79805 0.0
C268 C 0.96883 0.80648 0.7912 0.0
C269 C 0.93805 0.83517 0.82436 0.0
C270 C 0.95226 0.87007 0.86547 0.0
C271 C 0.04742 0.78553 0.7625 0.0
C272 C 0.89028 0.82768 0.81846 0.0
C273 C 0.95435 0.73593 0.64767 0.0
C274 C 0.9588 0.68524 0.67311 0.0
C275 C 0.95296 0.77646 0.68656 0.0
C276 C 0.9557 0.76558 0.7521 0.0
C277 C 0.95546 0.71405 0.77819 0.0
C278 C 0.95756 0.67441 0.73822 0.0
C279 C 0.95304 0.83086 0.65699 0.0
C280 C 0.95721 0.70084 0.84794 0.0
H281 H 0.06071 0.85418 0.84529 0.0
H282 H 0.92885 0.89136 0.89193 0.0
H283 H 0.04523 0.74401 0.77775 0.0
H284 H 0.04208 0.7901 0.71152 0.0
H285 H 0.08061 0.79886 0.76998 0.0
H286 H 0.87129 0.85989 0.83618 0.0
H287 H 0.88254 0.82389 0.76908 0.0
H288 H 0.87991 0.79172 0.84622 0.0
H289 H 0.95512 0.74414 0.59718 0.0
H290 H 0.96024 0.635 0.75773 0.0
H291 H 0.9862 0.84678 0.65631 0.0
H292 H 0.93172 0.85551 0.68456 0.0
H293 H 0.94249 0.83294 0.60804 0.0
H294 H 0.99024 0.70815 0.86283 0.0
H295 H 0.94906 0.65994 0.86136 0.0
H296 H 0.93469 0.72527 0.87392 0.0
C297 C 0.22847 0.0252 0.83958 0.0
C298 C 0.2117 0.98426 0.88011 0.0
C299 C 0.2677 0.021 0.80556 0.0
C300 C 0.2911 0.97468 0.81207 0.0
C301 C 0.27458 0.93304 0.85275 0.0
C302 C 0.23491 0.93824 0.88623 0.0
C303 C 0.28388 0.06613 0.76208 0.0
C304 C 0.29879 0.8831 0.86075 0.0
C305 C 0.36719 0.95561 0.67298 0.0
C306 C 0.40637 0.97307 0.69328 0.0
C307 C 0.32986 0.95364 0.71234 0.0
C308 C 0.33175 0.9697 0.77353 0.0
C309 C 0.37162 0.98601 0.79493 0.0
C310 C 0.40861 0.98762 0.7543 0.0
C311 C 0.28805 0.93639 0.68743 0.0
C312 C 0.37481 0.00345 0.85986 0.0
H313 H 0.21081 0.06091 0.83408 0.0
H314 H 0.22237 0.90654 0.91766 0.0
H315 H 0.31648 0.07766 0.77482 0.0
H316 H 0.28673 0.05514 0.71319 0.0
H317 H 0.26223 0.09986 0.76348 0.0
H318 H 0.28222 0.85488 0.89543 0.0
H319 H 0.30246 0.86605 0.81516 0.0
H320 H 0.33171 0.89011 0.87623 0.0
H321 H 0.36563 0.9442 0.62575 0.0
H322 H 0.43906 0.00099 0.76969 0.0
H323 H 0.26537 0.96914 0.68326 0.0
H324 H 0.27255 0.90616 0.72039 0.0
H325 H 0.2928 0.92129 0.6407 0.0
H326 H 0.35657 0.03963 0.86345 0.0
H327 H 0.40873 0.01019 0.87144 0.0
H328 H 0.3601 0.97451 0.89534 0.0
C329 C 0.02662 0.2049 0.85163 0.0
C330 C 0.00317 0.15919 0.86443 0.0
C331 C 0.01235 0.24402 0.8091 0.0
C332 C 0.97333 0.23759 0.77896 0.0
C333 C 0.94866 0.19234 0.79306 0.0
C334 C 0.96412 0.1534 0.83525 0.0
C335 C 0.03995 0.29151 0.79486 0.0
C336 C 0.90666 0.18446 0.76242 0.0
C337 C 0.93801 0.36552 0.70507 0.0
C338 C 0.95866 0.36517 0.64574 0.0
C339 C 0.93833 0.32171 0.74754 0.0
C340 C 0.9605 0.27742 0.73003 0.0
C341 C 0.97766 0.27566 0.66785 0.0
C342 C 0.97643 0.31977 0.62626 0.0
C343 C 0.91892 0.32467 0.81299 0.0
C344 C 1.00161 0.2293 0.64724 0.0
H345 H 0.05671 0.20993 0.87405 0.0
H346 H 0.94609 0.11798 0.84414 0.0
H347 H 0.05201 0.29388 0.74513 0.0
H348 H 0.02061 0.32642 0.80162 0.0
H349 H 0.06813 0.29168 0.82489 0.0
H350 H 0.88909 0.14983 0.78366 0.0
H351 H 0.88553 0.21835 0.76623 0.0
H352 H 0.91306 0.1802 0.71179 0.0
H353 H 0.92452 0.40103 0.71979 0.0
H354 H 0.99254 0.32011 0.58019 0.0
H355 H 0.94498 0.33074 0.84528 0.0
H356 H 0.90218 0.28835 0.83002 0.0
H357 H 0.89571 0.35685 0.81528 0.0
H358 H 0.03358 0.22728 0.66837 0.0
H359 H 0.00678 0.23099 0.59546 0.0
H360 H 0.98389 0.19352 0.66354 0.0
C361 C 0.81727 0.07561 0.837 0.0
C362 C 0.85021 0.03897 0.84047 0.0
C363 C 0.78339 0.0715 0.79628 0.0
C364 C 0.78293 0.03035 0.75729 0.0
C365 C 0.81796 0.99567 0.75719 0.0
C366 C 0.8509 0.00012 0.79913 0.0
C367 C 0.74654 0.10905 0.79838 0.0
C368 C 0.81947 0.95201 0.71541 0.0
C369 C 0.67436 0.9796 0.71325 0.0
C370 C 0.6702 0.00382 0.65303 0.0
C371 C 0.71073 0.98821 0.7477 0.0
C372 C 0.74426 0.02099 0.72076 0.0
C373 C 0.74063 0.04459 0.65931 0.0
C374 C 0.70346 0.03617 0.62647 0.0
C375 C 0.71293 0.96285 0.81341 0.0
C376 C 0.77602 0.07871 0.62827 0.0
H377 H 0.81628 0.10539 0.86923 0.0
H378 H 0.87636 0.97173 0.80146 0.0
H379 H 0.73925 0.12475 0.75038 0.0
H380 H 0.71713 0.08891 0.81914 0.0
H381 H 0.75353 0.14143 0.82671 0.0
H382 H 0.85125 0.93244 0.71522 0.0
H383 H 0.79426 0.92334 0.73194 0.0
H384 H 0.81264 0.96611 0.66661 0.0
H385 H 0.64853 0.955 0.73411 0.0
H386 H 0.70045 0.05467 0.57968 0.0
H387 H 0.71632 0.99244 0.84701 0.0
H388 H 0.74172 0.93784 0.81669 0.0
H389 H 0.68384 0.93931 0.828 0.0
H390 H 0.7808 0.11207 0.65585 0.0
H391 H 0.76881 0.09307 0.57963 0.0
H392 H 0.8069 0.05738 0.62704 0.0
loop_
_geom_bond_atom_site_label_1
_geom_bond_atom_site_label_2
_geom_bond_distance
_geom_bond_site_symmetry_2
_ccdc_geom_bond_type
C0 O27 1.312 1_655 S
C0 O28 1.208 . S
C1 O22 1.331 . S
C1 O25 1.244 1_565 S
C2 O24 1.264 1_545 S
C2 O26 1.273 . S
Mg3 O5 1.936 1_565 S
Mg3 O12 2.081 . S
Mg3 O14 2.023 1_556 S
Mg3 O18 2.031 . S
Mg3 O27 2.291 1_556 S
Mg4 O5 1.963 . S
Mg4 O15 1.942 . S
Mg4 O16 1.955 1_556 S
Mg4 O23 1.986 . S
O5 Mg3 1.936 1_545 S
O5 Mg4 1.963 . S
O5 Mg6 1.911 1_556 S
Mg6 O5 1.911 1_554 S
Mg6 O7 1.919 1_455 S
Mg6 O11 2.024 . S
Mg6 O17 2.104 1_444 S
Mg6 O21 2.002 1_454 S
Mg6 O27 2.123 1_545 S
O7 Mg6 1.919 1_655 S
O7 Mg8 1.936 1_545 S
O7 Mg9 1.963 . S
Mg8 O7 1.936 1_565 S
Mg8 O17 2.291 1_554 S
Mg8 O22 2.081 . S
Mg8 O24 2.023 1_554 S
Mg8 O28 2.031 . S
Mg9 O7 1.963 . S
Mg9 O13 1.986 . S
Mg9 O25 1.942 . S
Mg9 O26 1.955 1_554 S
C10 O21 1.191 1_455 S
C10 O23 1.307 . S
O11 Mg6 2.024 . S
O11 C30 1.191 1_455 S
O12 Mg3 2.081 . S
O12 C20 1.331 . S
O13 Mg9 1.986 . S
O13 C30 1.307 . S
O14 Mg3 2.023 1_554 S
O14 C29 1.264 1_565 S
O15 Mg4 1.942 . S
O15 C20 1.244 1_545 S
O16 Mg4 1.955 1_554 S
O16 C29 1.273 . S
O17 Mg6 2.104 1_666 S
O17 Mg8 2.291 1_556 S
O17 C19 1.312 1_655 S
O18 Mg3 2.031 . S
O18 C19 1.208 . S
C19 O17 1.312 1_455 S
C19 O18 1.208 . S
C20 O12 1.331 . S
C20 O15 1.244 1_565 S
O21 Mg6 2.002 1_656 S
O21 C10 1.191 1_655 S
O22 C1 1.331 . S
O22 Mg8 2.081 . S
O23 Mg4 1.986 . S
O23 C10 1.307 . S
O24 C2 1.264 1_565 S
O24 Mg8 2.023 1_556 S
O25 C1 1.244 1_545 S
O25 Mg9 1.942 . S
O26 C2 1.273 . S
O26 Mg9 1.955 1_556 S
O27 C0 1.312 1_455 S
O27 Mg3 2.291 1_554 S
O27 Mg6 2.123 1_565 S
O28 C0 1.208 . S
O28 Mg8 2.031 . S
C29 O14 1.264 1_545 S
C29 O16 1.273 . S
C30 O11 1.191 1_655 S
C30 O13 1.307 . S
C31 C32 1.443 . S
C31 N35 1.376 . S
C31 C69 1.389 . S
C32 C31 1.443 . S
C32 C33 1.340 . S
C32 H72 0.951 . S
C33 C32 1.340 . S
C33 C34 1.439 . S
C33 H73 0.950 . S
C34 C33 1.439 . S
C34 N35 1.374 . S
C34 C68 1.395 . S
N35 C31 1.376 . S
N35 C34 1.374 . S
N35 Co36 2.008 . S
Co36 N35 2.008 . S
Co36 N37 1.995 . S
Co36 N42 2.008 1_455 S
Co36 N47 1.995 1_455 S
Co36 N52 2.282 . S
Co36 N58 2.282 . S
N37 Co36 1.995 . S
N37 C38 1.376 . S
N37 C41 1.383 . S
C38 N37 1.376 . S
C38 C39 1.446 . S
C38 C68 1.391 . S
C39 C38 1.446 . S
C39 C40 1.339 . S
C39 H74 0.949 . S
C40 C39 1.339 . S
C40 C41 1.439 . S
C40 H75 0.950 . S
C41 N37 1.383 . S
C41 C40 1.439 . S
C41 C70 1.392 . S
N42 Co36 2.008 1_655 S
N42 C43 1.376 . S
N42 C46 1.374 . S
C43 N42 1.376 . S
C43 C44 1.443 . S
C43 C70 1.389 1_655 S
C44 C43 1.443 . S
C44 C45 1.340 . S
C44 H76 0.951 . S
C45 C44 1.340 . S
C45 C46 1.439 . S
C45 H77 0.950 . S
C46 N42 1.374 . S
C46 C45 1.439 . S
C46 C71 1.395 . S
N47 Co36 1.995 1_655 S
N47 C48 1.376 . S
N47 C51 1.383 . S
C48 N47 1.376 . S
C48 C49 1.446 . S
C48 C71 1.391 . S
C49 C48 1.446 . S
C49 C50 1.339 . S
C49 H78 0.949 . S
C50 C49 1.339 . S
C50 C51 1.439 . S
C50 H79 0.950 . S
C51 N47 1.383 . S
C51 C50 1.439 . S
C51 C69 1.392 1_655 S
N52 Co36 2.282 . S
N52 C55 1.332 1_455 S
N52 C57 1.332 . S
C53 C54 1.386 1_455 S
C53 C56 1.388 . S
C54 C53 1.386 1_655 S
C54 C55 1.382 . S
C54 H80 0.950 . S
C55 N52 1.332 1_655 S
C55 C54 1.382 . S
C55 H66 0.952 . S
C56 C53 1.388 . S
C56 C57 1.382 . S
C56 H81 0.950 . S
C57 N52 1.332 . S
C57 C56 1.382 . S
C57 H67 0.948 . S
N58 Co36 2.282 . S
N58 C62 1.332 . S
N58 C63 1.332 1_455 S
C59 C60 1.388 1_655 S
C59 C63 1.382 . S
C59 H82 0.950 . S
C60 C59 1.388 1_455 S
C60 C61 1.386 . S
C61 C60 1.386 . S
C61 C62 1.382 . S
C61 H83 0.950 . S
C62 N58 1.332 . S
C62 C61 1.382 . S
C62 H64 0.952 . S
C63 N58 1.332 1_655 S
C63 C59 1.382 . S
C63 H65 0.948 . S
H64 C62 0.952 . S
H65 C63 0.948 . S
H66 C55 0.952 . S
H67 C57 0.948 . S
C68 C34 1.395 . S
C68 C38 1.391 . S
C69 C31 1.389 . S
C69 C51 1.392 1_455 S
C70 C41 1.392 . S
C70 C43 1.389 1_455 S
C71 C46 1.395 . S
C71 C48 1.391 . S
H72 C32 0.951 . S
H73 C33 0.950 . S
H74 C39 0.949 . S
H75 C40 0.950 . S
H76 C44 0.951 . S
H77 C45 0.950 . S
H78 C49 0.949 . S
H79 C50 0.950 . S
H80 C54 0.950 . S
H81 C56 0.950 . S
H82 C59 0.950 . S
H83 C61 0.950 . S
C84 C85 1.443 . S
C84 N88 1.376 . S
C84 C122 1.367 1_565 S
C85 C84 1.443 . S
C85 C86 1.340 . S
C85 H125 0.951 . S
C86 C85 1.340 . S
C86 C87 1.439 . S
C86 H126 0.950 . S
C87 C86 1.439 . S
C87 N88 1.374 . S
C87 C121 1.395 . S
N88 C84 1.376 . S
N88 C87 1.374 . S
N88 Co89 2.008 1_565 S
Co89 N88 2.008 1_545 S
Co89 N90 1.995 1_545 S
Co89 N95 2.008 . S
Co89 N100 1.995 . S
Co89 N105 2.282 1_545 S
Co89 N111 2.282 . S
N90 Co89 1.995 1_565 S
N90 C91 1.376 . S
N90 C94 1.383 . S
C91 N90 1.376 . S
C91 C92 1.446 . S
C91 C121 1.391 . S
C92 C91 1.446 . S
C92 C93 1.339 . S
C92 H127 0.949 . S
C93 C92 1.339 . S
C93 C94 1.439 . S
C93 H128 0.950 . S
C94 N90 1.383 . S
C94 C93 1.439 . S
C94 C123 1.392 1_565 S
N95 Co89 2.008 . S
N95 C96 1.376 . S
N95 C99 1.374 . S
C96 N95 1.376 . S
C96 C97 1.443 . S
C96 C123 1.389 . S
C97 C96 1.443 . S
C97 C98 1.340 . S
C97 H129 0.951 . S
C98 C97 1.340 . S
C98 C99 1.439 . S
C98 H130 0.950 . S
C99 N95 1.374 . S
C99 C98 1.439 . S
C99 C124 1.395 . S
N100 Co89 1.995 . S
N100 C101 1.376 . S
N100 C104 1.383 . S
C101 N100 1.376 . S
C101 C102 1.446 . S
C101 C124 1.391 . S
C102 C101 1.446 . S
C102 C103 1.339 . S
C102 H131 0.949 . S
C103 C102 1.339 . S
C103 C104 1.439 . S
C103 H132 0.950 . S
C104 N100 1.383 . S
C104 C103 1.439 . S
C104 C122 1.412 . S
N105 Co89 2.282 1_565 S
N105 C108 1.332 1_565 S
N105 C110 1.332 . S
C106 C107 1.386 . S
C106 C109 1.388 1_545 S
C107 C106 1.386 . S
C107 C108 1.382 . S
C107 H133 0.950 . S
C108 N105 1.332 1_545 S
C108 C107 1.382 . S
C108 H119 0.952 . S
C109 C106 1.388 1_565 S
C109 C110 1.382 . S
C109 H134 0.950 . S
C110 N105 1.332 . S
C110 C109 1.382 . S
C110 H120 0.948 . S
N111 Co89 2.282 . S
N111 C115 1.332 1_545 S
N111 C116 1.332 . S
C112 C113 1.388 . S
C112 C116 1.382 . S
C112 H135 0.950 . S
C113 C112 1.388 . S
C113 C114 1.386 1_545 S
C114 C113 1.386 1_565 S
C114 C115 1.382 . S
C114 H136 0.950 . S
C115 N111 1.332 1_565 S
C115 C114 1.382 . S
C115 H117 0.952 . S
C116 N111 1.332 . S
C116 C112 1.382 . S
C116 H118 0.948 . S
H117 C115 0.952 . S
H118 C116 0.948 . S
H119 C108 0.952 . S
H120 C110 0.948 . S
C121 C87 1.395 . S
C121 C91 1.391 . S
C122 C84 1.367 1_545 S
C122 C104 1.412 . S
C123 C94 1.392 1_545 S
C123 C96 1.389 . S
C124 C99 1.395 . S
C124 C101 1.391 . S
H125 C85 0.951 . S
H126 C86 0.950 . S
H127 C92 0.949 . S
H128 C93 0.950 . S
H129 C97 0.951 . S
H130 C98 0.950 . S
H131 C102 0.949 . S
H132 C103 0.950 . S
H133 C107 0.950 . S
H134 C109 0.950 . S
H135 C112 0.950 . S
H136 C114 0.950 . S
C137 C138 1.391 . S
C137 C139 1.394 . S
C137 H153 0.931 . S
C138 C137 1.391 . S
C138 C142 1.376 . S
C139 C137 1.394 . S
C139 C140 1.369 . S
C139 C143 1.531 . S
C140 C139 1.369 . S
C140 C141 1.410 . S
C140 C148 1.503 . S
C141 C140 1.410 . S
C141 C142 1.392 . S
C141 C144 1.511 . S
C142 C138 1.376 . S
C142 C141 1.392 . S
C142 H154 0.929 . S
C143 C139 1.531 . S
C143 H155 0.960 . S
C143 H156 0.962 1_655 S
C143 H157 0.960 . S
C144 C141 1.511 . S
C144 H158 0.961 1_655 S
C144 H159 0.961 1_655 S
C144 H160 0.961 . S
C145 C146 1.370 . S
C145 C147 1.363 . S
C145 H161 0.931 . S
C146 C145 1.370 . S
C146 C150 1.408 1_455 S
C147 C145 1.363 . S
C147 C148 1.370 1_455 S
C147 C151 1.524 . S
C148 C140 1.503 . S
C148 C147 1.370 1_655 S
C148 C149 1.403 . S
C149 C148 1.403 . S
C149 C150 1.404 . S
C149 C152 1.539 . S
C150 C146 1.408 1_655 S
C150 C149 1.404 . S
C150 H162 0.930 . S
C151 C147 1.524 . S
C151 H163 0.956 . S
C151 H164 0.961 . S
C151 H165 0.961 . S
C152 C149 1.539 . S
C152 H166 0.958 . S
C152 H167 0.961 . S
C152 H168 0.960 . S
H153 C137 0.931 . S
H154 C142 0.929 . S
H155 C143 0.960 . S
H156 C143 0.962 1_455 S
H157 C143 0.960 . S
H158 C144 0.961 1_455 S
H159 C144 0.961 1_455 S
H160 C144 0.961 . S
H161 C145 0.931 . S
H162 C150 0.930 . S
H163 C151 0.956 . S
H164 C151 0.961 . S
H165 C151 0.961 . S
H166 C152 0.958 . S
H167 C152 0.961 . S
H168 C152 0.960 . S
C169 C170 1.391 1_545 S
C169 C171 1.394 . S
C169 H185 0.931 . S
C170 C169 1.391 1_565 S
C170 C174 1.376 . S
C171 C169 1.394 . S
C171 C172 1.369 . S
C171 C175 1.531 . S
C172 C171 1.369 . S
C172 C173 1.410 1_545 S
C172 C180 1.503 . S
C173 C172 1.410 1_565 S
C173 C174 1.392 . S
C173 C176 1.511 . S
C174 C170 1.376 . S
C174 C173 1.392 . S
C174 H186 0.929 . S
C175 C171 1.531 . S
C175 H187 0.960 . S
C175 H188 0.962 . S
C175 H189 0.960 . S
C176 C173 1.511 . S
C176 H190 0.961 . S
C176 H191 0.961 . S
C176 H192 0.961 . S
C177 C178 1.370 1_565 S
C177 C179 1.363 . S
C177 H193 0.931 . S
C178 C177 1.370 1_545 S
C178 C182 1.408 . S
C179 C177 1.363 . S
C179 C180 1.370 1_565 S
C179 C183 1.524 . S
C180 C172 1.503 . S
C180 C179 1.370 1_545 S
C180 C181 1.403 . S
C181 C180 1.403 . S
C181 C182 1.404 . S
C181 C184 1.539 . S
C182 C178 1.408 . S
C182 C181 1.404 . S
C182 H194 0.930 . S
C183 C179 1.524 . S
C183 H195 0.956 . S
C183 H196 0.961 . S
C183 H197 0.961 . S
C184 C181 1.539 . S
C184 H198 0.958 . S
C184 H199 0.961 . S
C184 H200 0.960 . S
H185 C169 0.931 . S
H186 C174 0.929 . S
H187 C175 0.960 . S
H188 C175 0.962 . S
H189 C175 0.960 . S
H190 C176 0.961 . S
H191 C176 0.961 . S
H192 C176 0.961 . S
H193 C177 0.931 . S
H194 C182 0.930 . S
H195 C183 0.956 . S
H196 C183 0.961 . S
H197 C183 0.961 . S
H198 C184 0.958 . S
H199 C184 0.961 . S
H200 C184 0.960 . S
C201 C202 1.391 . S
C201 C203 1.394 . S
C201 H217 0.931 . S
C202 C201 1.391 . S
C202 C206 1.376 1_455 S
C203 C201 1.394 . S
C203 C204 1.370 . S
C203 C207 1.531 . S
C204 C203 1.370 . S
C204 C205 1.408 1_455 S
C204 C212 1.503 . S
C205 C204 1.408 1_655 S
C205 C206 1.392 . S
C205 C208 1.511 . S
C206 C202 1.376 1_655 S
C206 C205 1.392 . S
C206 H218 0.929 . S
C207 C203 1.531 . S
C207 H219 0.960 . S
C207 H220 0.962 . S
C207 H221 0.960 . S
C208 C205 1.511 . S
C208 H222 0.961 . S
C208 H223 0.961 . S
C208 H224 0.961 . S
C209 C210 1.370 . S
C209 C211 1.363 . S
C209 H225 0.931 . S
C210 C209 1.370 . S
C210 C214 1.408 1_455 S
C211 C209 1.363 . S
C211 C212 1.370 . S
C211 C215 1.524 . S
C212 C204 1.503 . S
C212 C211 1.370 . S
C212 C213 1.403 1_455 S
C213 C212 1.403 1_655 S
C213 C214 1.404 . S
C213 C216 1.539 . S
C214 C210 1.408 1_655 S
C214 C213 1.404 . S
C214 H226 0.930 . S
C215 C211 1.524 . S
C215 H227 0.956 . S
C215 H228 0.961 . S
C215 H229 0.961 . S
C216 C213 1.539 . S
C216 H230 0.958 . S
C216 H231 0.961 . S
C216 H232 0.960 . S
H217 C201 0.931 . S
H218 C206 0.929 . S
H219 C207 0.960 . S
H220 C207 0.962 . S
H221 C207 0.960 . S
H222 C208 0.961 . S
H223 C208 0.961 . S
H224 C208 0.961 . S
H225 C209 0.931 . S
H226 C214 0.930 . S
H227 C215 0.956 . S
H228 C215 0.961 . S
H229 C215 0.961 . S
H230 C216 0.958 . S
H231 C216 0.961 . S
H232 C216 0.960 . S
C233 C234 1.391 . S
C233 C235 1.394 . S
C233 H249 0.931 . S
C234 C233 1.391 . S
C234 C238 1.376 1_545 S
C235 C233 1.394 . S
C235 C236 1.369 . S
C235 C239 1.531 . S
C236 C235 1.369 . S
C236 C237 1.410 1_545 S
C236 C244 1.503 . S
C237 C236 1.410 1_565 S
C237 C238 1.392 . S
C237 C240 1.511 . S
C238 C234 1.376 1_565 S
C238 C237 1.392 . S
C238 H250 0.929 . S
C239 C235 1.531 . S
C239 H251 0.960 . S
C239 H252 0.962 . S
C239 H253 0.960 . S
C240 C237 1.511 . S
C240 H254 0.961 . S
C240 H255 0.961 . S
C240 H256 0.961 . S
C241 C242 1.370 . S
C241 C243 1.363 . S
C241 H257 0.931 . S
C242 C241 1.370 . S
C242 C246 1.408 1_545 S
C243 C241 1.363 . S
C243 C244 1.370 . S
C243 C247 1.524 . S
C244 C236 1.503 . S
C244 C243 1.370 . S
C244 C245 1.403 . S
C245 C244 1.403 . S
C245 C246 1.404 1_545 S
C245 C248 1.539 1_545 S
C246 C242 1.408 1_565 S
C246 C245 1.404 1_565 S
C246 H258 0.930 . S
C247 C243 1.524 . S
C247 H259 0.956 . S
C247 H260 0.961 1_545 S
C247 H261 0.961 . S
C248 C245 1.539 1_565 S
C248 H262 0.958 1_565 S
C248 H263 0.961 . S
C248 H264 0.960 . S
H249 C233 0.931 . S
H250 C238 0.929 . S
H251 C239 0.960 . S
H252 C239 0.962 . S
H253 C239 0.960 . S
H254 C240 0.961 . S
H255 C240 0.961 . S
H256 C240 0.961 . S
H257 C241 0.931 . S
H258 C246 0.930 . S
H259 C247 0.956 . S
H260 C247 0.961 1_565 S
H261 C247 0.961 . S
H262 C248 0.958 1_545 S
H263 C248 0.961 . S
H264 C248 0.960 . S
C265 C266 1.391 . S
C265 C267 1.394 . S
C265 H281 0.931 . S
C266 C265 1.391 . S
C266 C270 1.376 1_455 S
C267 C265 1.394 . S
C267 C268 1.369 . S
C267 C271 1.531 . S
C268 C267 1.369 . S
C268 C269 1.410 1_455 S
C268 C276 1.503 . S
C269 C268 1.410 1_655 S
C269 C270 1.392 . S
C269 C272 1.511 . S
C270 C266 1.376 1_655 S
C270 C269 1.392 . S
C270 H282 0.929 . S
C271 C267 1.531 . S
C271 H283 0.960 . S
C271 H284 0.962 . S
C271 H285 0.960 . S
C272 C269 1.511 . S
C272 H286 0.961 . S
C272 H287 0.961 . S
C272 H288 0.961 . S
C273 C274 1.370 1_655 S
C273 C275 1.363 . S
C273 H289 0.931 . S
C274 C273 1.370 1_455 S
C274 C278 1.408 . S
C275 C273 1.363 . S
C275 C276 1.370 1_655 S
C275 C279 1.524 . S
C276 C268 1.503 . S
C276 C275 1.370 1_455 S
C276 C277 1.403 . S
C277 C276 1.403 . S
C277 C278 1.404 . S
C277 C280 1.539 . S
C278 C274 1.408 . S
C278 C277 1.404 . S
C278 H290 0.930 . S
C279 C275 1.524 . S
C279 H291 0.956 . S
C279 H292 0.961 . S
C279 H293 0.961 . S
C280 C277 1.539 . S
C280 H294 0.958 . S
C280 H295 0.961 . S
C280 H296 0.960 . S
H281 C265 0.931 . S
H282 C270 0.929 . S
H283 C271 0.960 . S
H284 C271 0.962 . S
H285 C271 0.960 . S
H286 C272 0.961 . S
H287 C272 0.961 . S
H288 C272 0.961 . S
H289 C273 0.931 . S
H290 C278 0.930 . S
H291 C279 0.956 . S
H292 C279 0.961 . S
H293 C279 0.961 . S
H294 C280 0.958 . S
H295 C280 0.961 . S
H296 C280 0.960 . S
C297 C298 1.379 1_545 S
C297 C299 1.394 . S
C297 H313 0.931 . S
C298 C297 1.379 1_565 S
C298 C302 1.387 . S
C299 C297 1.394 . S
C299 C300 1.369 . S
C299 C303 1.531 . S
C300 C299 1.369 . S
C300 C301 1.410 1_545 S
C300 C308 1.503 . S
C301 C300 1.410 1_565 S
C301 C302 1.392 . S
C301 C304 1.511 . S
C302 C298 1.387 . S
C302 C301 1.392 . S
C302 H314 0.929 . S
C303 C299 1.531 . S
C303 H315 0.960 . S
C303 H316 0.962 . S
C303 H317 0.960 . S
C304 C301 1.511 . S
C304 H318 0.961 . S
C304 H319 0.961 . S
C304 H320 0.961 . S
C305 C306 1.370 1_565 S
C305 C307 1.363 . S
C305 H321 0.931 . S
C306 C305 1.370 1_545 S
C306 C310 1.408 . S
C307 C305 1.363 . S
C307 C308 1.370 1_565 S
C307 C311 1.524 . S
C308 C300 1.503 . S
C308 C307 1.370 1_545 S
C308 C309 1.403 . S
C309 C308 1.403 . S
C309 C310 1.404 . S
C309 C312 1.539 . S
C310 C306 1.408 . S
C310 C309 1.404 . S
C310 H322 0.930 . S
C311 C307 1.524 . S
C311 H323 0.956 . S
C311 H324 0.961 . S
C311 H325 0.961 . S
C312 C309 1.539 . S
C312 H326 0.958 . S
C312 H327 0.961 . S
C312 H328 0.960 . S
H313 C297 0.931 . S
H314 C302 0.929 . S
H315 C303 0.960 . S
H316 C303 0.962 . S
H317 C303 0.960 . S
H318 C304 0.961 . S
H319 C304 0.961 . S
H320 C304 0.961 . S
H321 C305 0.931 . S
H322 C310 0.930 . S
H323 C311 0.956 . S
H324 C311 0.961 . S
H325 C311 0.961 . S
H326 C312 0.958 . S
H327 C312 0.961 . S
H328 C312 0.960 . S
C329 C330 1.391 . S
C329 C331 1.394 . S
C329 H345 0.931 . S
C330 C329 1.391 . S
C330 C334 1.376 1_455 S
C331 C329 1.394 . S
C331 C332 1.369 . S
C331 C335 1.531 . S
C332 C331 1.369 . S
C332 C333 1.410 1_455 S
C332 C340 1.503 . S
C333 C332 1.410 1_655 S
C333 C334 1.392 . S
C333 C336 1.511 . S
C334 C330 1.376 1_655 S
C334 C333 1.392 . S
C334 H346 0.929 . S
C335 C331 1.531 . S
C335 H347 0.960 . S
C335 H348 0.962 . S
C335 H349 0.960 . S
C336 C333 1.511 . S
C336 H350 0.961 . S
C336 H351 0.961 . S
C336 H352 0.961 . S
C337 C338 1.370 1_655 S
C337 C339 1.363 . S
C337 H353 0.931 . S
C338 C337 1.370 1_455 S
C338 C342 1.408 . S
C339 C337 1.363 . S
C339 C340 1.370 1_655 S
C339 C343 1.524 . S
C340 C332 1.503 . S
C340 C339 1.370 1_455 S
C340 C341 1.403 . S
C341 C340 1.403 . S
C341 C342 1.404 . S
C341 C344 1.539 . S
C342 C338 1.408 . S
C342 C341 1.404 . S
C342 H354 0.930 . S
C343 C339 1.524 . S
C343 H355 0.956 . S
C343 H356 0.961 . S
C343 H357 0.961 . S
C344 C341 1.539 . S
C344 H358 0.958 . S
C344 H359 0.961 . S
C344 H360 0.960 . S
H345 C329 0.931 . S
H346 C334 0.929 . S
H347 C335 0.960 . S
H348 C335 0.962 . S
H349 C335 0.960 . S
H350 C336 0.961 . S
H351 C336 0.961 . S
H352 C336 0.961 . S
H353 C337 0.931 . S
H354 C342 0.930 . S
H355 C343 0.956 . S
H356 C343 0.961 . S
H357 C343 0.961 . S
H358 C344 0.958 . S
H359 C344 0.961 . S
H360 C344 0.960 . S
C361 C362 1.391 . S
C361 C363 1.394 . S
C361 H377 0.931 . S
C362 C361 1.391 . S
C362 C366 1.376 . S
C363 C361 1.394 . S
C363 C364 1.369 . S
C363 C367 1.531 . S
C364 C363 1.369 . S
C364 C365 1.410 . S
C364 C372 1.503 . S
C365 C364 1.410 . S
C365 C366 1.392 . S
C365 C368 1.511 . S
C366 C362 1.376 . S
C366 C365 1.392 . S
C366 H378 0.929 . S
C367 C363 1.531 . S
C367 H379 0.960 . S
C367 H380 0.962 1_545 S
C367 H381 0.960 . S
C368 C365 1.511 . S
C368 H382 0.961 . S
C368 H383 0.961 . S
C368 H384 0.961 . S
C369 C370 1.370 1_565 S
C369 C371 1.363 . S
C369 H385 0.931 . S
C370 C369 1.370 1_545 S
C370 C374 1.408 . S
C371 C369 1.363 . S
C371 C372 1.370 1_565 S
C371 C375 1.524 . S
C372 C364 1.503 . S
C372 C371 1.370 1_545 S
C372 C373 1.403 . S
C373 C372 1.403 . S
C373 C374 1.404 . S
C373 C376 1.539 . S
C374 C370 1.408 . S
C374 C373 1.404 . S
C374 H386 0.930 . S
C375 C371 1.524 . S
C375 H387 0.956 . S
C375 H388 0.961 . S
C375 H389 0.961 . S
C376 C373 1.539 . S
C376 H390 0.958 . S
C376 H391 0.961 . S
C376 H392 0.960 . S
H377 C361 0.931 . S
H378 C366 0.929 . S
H379 C367 0.960 . S
H380 C367 0.962 1_565 S
H381 C367 0.960 . S
H382 C368 0.961 . S
H383 C368 0.961 . S
H384 C368 0.961 . S
H385 C369 0.931 . S
H386 C374 0.930 . S
H387 C375 0.956 . S
H388 C375 0.961 . S
H389 C375 0.961 . S
H390 C376 0.958 . S
H391 C376 0.961 . S
H392 C376 0.960 . S
C138 C30 1.274 . S
C146 C53 1.327 . S
C170 C1 1.593 . S
C178 C123 1.661 . S
C202 C0 1.409 1_455 S
C210 C69 1.461 . S
C234 C29 1.542 . S
C242 C113 1.555 . S
C266 C19 1.250 . S
C274 C60 1.336 . S
C298 C20 1.589 . S
C306 C122 1.651 . S
C338 C70 1.451 . S
C330 C10 1.416 . S
C362 C2 1.536 . S
C370 C106 1.564 . S
