# Generated by pormake.
# Topology dag, (6,3)-cn, num edge types: 1
# Building blocks:
#     Node 0, Type 0, BuildingBlock: MIDCAF_clean_sbu_0, # of connection points: 6
#     Node 1, Type 0, BuildingBlock: MIDCAF_clean_sbu_0, # of connection points: 6
#     Node 2, Type 0, BuildingBlock: MIDCAF_clean_sbu_0, # of connection points: 6
#     Node 3, Type 0, BuildingBlock: MIDCAF_clean_sbu_0, # of connection points: 6
#     Node 4, Type 1, BuildingBlock: OLANEW_clean_sbu_2, # of connection points: 3
#     Node 5, Type 1, BuildingBlock: OLANEW_clean_sbu_2, # of connection points: 3
#     Node 6, Type 1, BuildingBlock: OLANEW_clean_sbu_2, # of connection points: 3
#     Node 7, Type 1, BuildingBlock: OLANEW_clean_sbu_2, # of connection points: 3
#     Node 8, Type 1, BuildingBlock: OLANEW_clean_sbu_2, # of connection points: 3
#     Node 9, Type 1, BuildingBlock: OLANEW_clean_sbu_2, # of connection points: 3
#     Node 10, Type 1, BuildingBlock: OLANEW_clean_sbu_2, # of connection points: 3
#     Node 11, Type 1, BuildingBlock: OLANEW_clean_sbu_2, # of connection points: 3
#     Edge 12, Type (0, 1), BuildingBlock: MIFKUJ_clean_linker_0, # of connection points: 2
#     Edge 13, Type (0, 1), BuildingBlock: MIFKUJ_clean_linker_0, # of connection points: 2
#     Edge 14, Type (0, 1), BuildingBlock: MIFKUJ_clean_linker_0, # of connection points: 2
#     Edge 15, Type (0, 1), BuildingBlock: MIFKUJ_clean_linker_0, # of connection points: 2
#     Edge 16, Type (0, 1), BuildingBlock: MIFKUJ_clean_linker_0, # of connection points: 2
#     Edge 17, Type (0, 1), BuildingBlock: MIFKUJ_clean_linker_0, # of connection points: 2
#     Edge 18, Type (0, 1), BuildingBlock: MIFKUJ_clean_linker_0, # of connection points: 2
#     Edge 19, Type (0, 1), BuildingBlock: MIFKUJ_clean_linker_0, # of connection points: 2
#     Edge 20, Type (0, 1), BuildingBlock: MIFKUJ_clean_linker_0, # of connection points: 2
#     Edge 21, Type (0, 1), BuildingBlock: MIFKUJ_clean_linker_0, # of connection points: 2
#     Edge 22, Type (0, 1), BuildingBlock: MIFKUJ_clean_linker_0, # of connection points: 2
#     Edge 23, Type (0, 1), BuildingBlock: MIFKUJ_clean_linker_0, # of connection points: 2
#     Edge 24, Type (0, 1), BuildingBlock: MIFKUJ_clean_linker_0, # of connection points: 2
#     Edge 25, Type (0, 1), BuildingBlock: MIFKUJ_clean_linker_0, # of connection points: 2
#     Edge 26, Type (0, 1), BuildingBlock: MIFKUJ_clean_linker_0, # of connection points: 2
#     Edge 27, Type (0, 1), BuildingBlock: MIFKUJ_clean_linker_0, # of connection points: 2
#     Edge 28, Type (0, 1), BuildingBlock: MIFKUJ_clean_linker_0, # of connection points: 2
#     Edge 29, Type (0, 1), BuildingBlock: MIFKUJ_clean_linker_0, # of connection points: 2
#     Edge 30, Type (0, 1), BuildingBlock: MIFKUJ_clean_linker_0, # of connection points: 2
#     Edge 31, Type (0, 1), BuildingBlock: MIFKUJ_clean_linker_0, # of connection points: 2
#     Edge 32, Type (0, 1), BuildingBlock: MIFKUJ_clean_linker_0, # of connection points: 2
#     Edge 33, Type (0, 1), BuildingBlock: MIFKUJ_clean_linker_0, # of connection points: 2
#     Edge 34, Type (0, 1), BuildingBlock: MIFKUJ_clean_linker_0, # of connection points: 2
#     Edge 35, Type (0, 1), BuildingBlock: MIFKUJ_clean_linker_0, # of connection points: 2
# Relax obj value: 0.173
# Max RMSD: 0.156
# Mean RMSD: 0.135
data_MOF--net-dag--node1-MIDCAF_clean_sbu_0--node2-OLANEW_clean_sbu_2--edge1-MIFKUJ_clean_linker_0
_symmetry_space_group_name_H-M    P1
_symmetry_Int_Tables_number       1
_symmetry_cell_setting            triclinic
loop_
_symmetry_equiv_pos_as_xyz
'x, y, z'
_cell_length_a     56.474877
_cell_length_b     54.177219
_cell_length_c     42.923862
_cell_angle_alpha  91.501019
_cell_angle_beta   92.950494
_cell_angle_gamma 90.854515
loop_
_atom_site_label
_atom_site_type_symbol
_atom_site_fract_x
_atom_site_fract_y
_atom_site_fract_z
_atom_type_partial_charge
Zn0 Zn 0.12199 0.84524 0.07665 0.0
Zn1 Zn 0.12337 0.8893 0.94393 0.0
Zn2 Zn 0.12696 0.87369 0.00433 0.0
C3 C 0.13012 0.93136 0.97468 0.0
C4 C 0.0982 0.85138 0.95808 0.0
O5 O 0.15173 0.84253 0.01931 0.0
O6 O 0.12421 0.82013 0.04016 0.0
C7 C 0.15304 0.8795 0.06793 0.0
O8 O 0.13215 0.91557 0.99685 0.0
O9 O 0.12513 0.92418 0.94701 0.0
O10 O 0.0931 0.87384 0.95699 0.0
O11 O 0.11823 0.8458 0.97001 0.0
O12 O 0.15105 0.8678 0.09273 0.0
O13 O 0.14537 0.86798 0.04358 0.0
O14 O 0.08913 0.86677 0.01929 0.0
O15 O 0.08967 0.86062 0.07065 0.0
C16 C 0.0782 0.86331 0.04465 0.0
O17 O 0.15255 0.85049 0.97891 0.0
O18 O 0.15401 0.87193 0.93617 0.0
C19 C 0.14431 0.82127 0.02873 0.0
C20 C 0.16269 0.85558 0.95365 0.0
Zn21 Zn 0.62815 0.59797 0.40853 0.0
Zn22 Zn 0.63391 0.62033 0.54421 0.0
Zn23 Zn 0.62805 0.61593 0.4786 0.0
C24 C 0.63534 0.57442 0.54081 0.0
C25 C 0.60441 0.644 0.50833 0.0
O26 O 0.64888 0.64029 0.44887 0.0
O27 O 0.65932 0.61547 0.41037 0.0
C28 C 0.64481 0.57507 0.4566 0.0
O29 O 0.6347 0.58197 0.51229 0.0
O30 O 0.63371 0.58951 0.56346 0.0
O31 O 0.60283 0.623 0.51976 0.0
O32 O 0.6246 0.65117 0.50058 0.0
O33 O 0.62447 0.57728 0.4438 0.0
O34 O 0.64833 0.58439 0.4839 0.0
O35 O 0.592 0.61299 0.45238 0.0
O36 O 0.59921 0.61789 0.40254 0.0
C37 C 0.58455 0.61606 0.4238 0.0
O38 O 0.65373 0.64644 0.48682 0.0
O39 O 0.66678 0.62793 0.52938 0.0
C40 C 0.66001 0.63651 0.42383 0.0
C41 C 0.67064 0.64207 0.50724 0.0
Zn42 Zn 0.87447 0.14496 0.96433 0.0
Zn43 Zn 0.86393 0.12824 0.07582 0.0
Zn44 Zn 0.86464 0.12968 0.02218 0.0
C45 C 0.90719 0.12425 0.06387 0.0
C46 C 0.83654 0.09468 0.04489 0.0
O47 O 0.83122 0.13115 0.9942 0.0
O48 O 0.84728 0.16501 0.97578 0.0
C49 C 0.89902 0.16067 0.01052 0.0
O50 O 0.89538 0.11061 0.04358 0.0
O51 O 0.89687 0.14211 0.07633 0.0
O52 O 0.85486 0.09434 0.06308 0.0
O53 O 0.83225 0.11302 0.02771 0.0
O54 O 0.90143 0.14068 0.99545 0.0
O55 O 0.87913 0.16526 0.02179 0.0
O56 O 0.86931 0.10064 0.98581 0.0
O57 O 0.86495 0.11569 0.93876 0.0
C58 C 0.86664 0.09736 0.95616 0.0
O59 O 0.85868 0.16765 0.03937 0.0
O60 O 0.83726 0.14974 0.07406 0.0
C61 C 0.82916 0.15172 0.9798 0.0
C62 C 0.84213 0.16849 0.05884 0.0
Zn63 Zn 0.34629 0.38888 0.61678 0.0
Zn64 Zn 0.34671 0.35341 0.46745 0.0
Zn65 Zn 0.35718 0.37438 0.54431 0.0
C66 C 0.39554 0.36803 0.49126 0.0
C67 C 0.32019 0.38411 0.49482 0.0
O68 O 0.33395 0.34991 0.57042 0.0
O69 O 0.31583 0.38117 0.591 0.0
C70 C 0.37589 0.34783 0.60163 0.0
O71 O 0.38983 0.36866 0.51994 0.0
O72 O 0.37993 0.36744 0.46874 0.0
O73 O 0.31612 0.37494 0.46772 0.0
O74 O 0.3298 0.36964 0.51396 0.0
O75 O 0.37269 0.36498 0.62134 0.0
O76 O 0.36335 0.34621 0.57624 0.0
O77 O 0.35729 0.41484 0.55828 0.0
O78 O 0.35911 0.4213 0.60981 0.0
C79 C 0.35998 0.42937 0.58258 0.0
O80 O 0.33282 0.34147 0.53243 0.0
O81 O 0.35179 0.32384 0.49427 0.0
C82 C 0.3163 0.35833 0.58502 0.0
C83 C 0.33843 0.32187 0.51671 0.0
O84 O 0.17453 0.05579 0.32714 0.0
Cd85 Cd 0.16576 0.09465 0.35275 0.0
O86 O 0.17848 0.082 0.29024 0.0
Cd87 Cd 0.16987 0.08895 0.2422 0.0
O88 O 0.13375 0.10049 0.23333 0.0
C89 C 0.11642 0.09466 0.24971 0.0
O90 O 0.11973 0.07967 0.27308 0.0
C91 C 0.17756 0.05984 0.29877 0.0
C92 C 0.20411 0.12628 0.36583 0.0
O93 O 0.20024 0.10767 0.3827 0.0
O94 O 0.19037 0.12956 0.34163 0.0
O95 O 0.35927 0.69499 0.69784 0.0
Cd96 Cd 0.36899 0.73782 0.71512 0.0
O97 O 0.39169 0.68258 0.7237 0.0
Cd98 Cd 0.41811 0.70142 0.75601 0.0
O99 O 0.43852 0.72602 0.72829 0.0
C100 C 0.43858 0.71484 0.702 0.0
O101 O 0.43195 0.69152 0.69992 0.0
C102 C 0.37377 0.67804 0.70516 0.0
C103 C 0.33986 0.76043 0.75792 0.0
O104 O 0.33466 0.76038 0.72849 0.0
O105 O 0.35868 0.74929 0.76734 0.0
O106 O 0.8268 0.78898 0.11627 0.0
Cd107 Cd 0.78502 0.79373 0.13264 0.0
O108 O 0.83194 0.81539 0.15479 0.0
Cd109 Cd 0.84146 0.8497 0.17966 0.0
O110 O 0.81039 0.87044 0.16426 0.0
C111 C 0.80353 0.8656 0.13603 0.0
O112 O 0.8161 0.85041 0.11968 0.0
C113 C 0.84036 0.80448 0.13136 0.0
C114 C 0.76592 0.77029 0.18368 0.0
O115 O 0.76427 0.76055 0.15608 0.0
O116 O 0.77763 0.79071 0.18769 0.0
O117 O 0.64449 0.34991 0.733 0.0
Cd118 Cd 0.6325 0.31546 0.76242 0.0
O119 O 0.63025 0.37812 0.7655 0.0
Cd120 Cd 0.61367 0.37151 0.80978 0.0
O121 O 0.5897 0.3423 0.79223 0.0
C122 C 0.58093 0.34885 0.76602 0.0
O123 O 0.58332 0.37196 0.75794 0.0
C124 C 0.64036 0.37218 0.74062 0.0
C125 C 0.66785 0.2972 0.80178 0.0
O126 O 0.66614 0.29091 0.77275 0.0
O127 O 0.6531 0.31278 0.81217 0.0
O128 O 0.68433 0.32882 0.32309 0.0
Cd129 Cd 0.67833 0.28546 0.33002 0.0
O130 O 0.69286 0.31908 0.37059 0.0
Cd131 Cd 0.68221 0.32139 0.41748 0.0
O132 O 0.64416 0.31673 0.41899 0.0
C133 C 0.62932 0.32032 0.3962 0.0
O134 O 0.63687 0.32786 0.36954 0.0
C135 C 0.68961 0.33586 0.35081 0.0
C136 C 0.70849 0.27135 0.28746 0.0
O137 O 0.68622 0.27299 0.28052 0.0
O138 O 0.71614 0.27399 0.31603 0.0
O139 O 0.17081 0.19628 0.89107 0.0
Cd140 Cd 0.16102 0.23964 0.87846 0.0
O141 O 0.14153 0.19104 0.85699 0.0
Cd142 Cd 0.1077 0.17914 0.83644 0.0
O143 O 0.08989 0.21144 0.85454 0.0
C144 C 0.09725 0.22243 0.87995 0.0
O145 O 0.11552 0.21363 0.8959 0.0
C146 C 0.15499 0.18198 0.87817 0.0
C147 C 0.18328 0.26172 0.82961 0.0
O148 O 0.19245 0.26251 0.85758 0.0
O149 O 0.16356 0.24991 0.82437 0.0
O150 O 0.33872 0.62013 0.26969 0.0
Cd151 Cd 0.29757 0.61143 0.24794 0.0
O152 O 0.34714 0.58572 0.24576 0.0
Cd153 Cd 0.33622 0.55552 0.21392 0.0
O154 O 0.31344 0.53091 0.23798 0.0
C155 C 0.30256 0.54006 0.26068 0.0
O156 O 0.30319 0.56409 0.26568 0.0
C157 C 0.35359 0.60335 0.26441 0.0
C158 C 0.27425 0.64108 0.20396 0.0
O159 O 0.27954 0.64884 0.23193 0.0
O160 O 0.28068 0.61934 0.19587 0.0
O161 O 0.93104 0.80647 0.69681 0.0
Cd162 Cd 0.90384 0.77247 0.69762 0.0
O163 O 0.9015 0.81272 0.7262 0.0
Cd164 Cd 0.88135 0.82511 0.7646 0.0
O165 O 0.87328 0.86224 0.77787 0.0
C166 C 0.88674 0.87941 0.76899 0.0
O167 O 0.90517 0.87373 0.75287 0.0
C168 C 0.92307 0.817 0.72061 0.0
C169 C 0.86703 0.77255 0.65446 0.0
O170 O 0.88771 0.765 0.6483 0.0
O171 O 0.864 0.78265 0.68131 0.0
H172 H 0.11448 0.90564 0.07871 0.0
H173 H 0.11669 0.94045 0.11533 0.0
H174 H 0.19137 0.94962 0.10017 0.0
H175 H 0.18943 0.91266 0.06601 0.0
H176 H 0.18649 0.94089 0.1576 0.0
H177 H 0.1439 0.99141 0.08495 0.0
H178 H 0.111 0.00143 0.04784 0.0
H179 H 0.06255 0.00045 0.12166 0.0
H180 H 0.0951 0.98988 0.15919 0.0
H181 H 0.2095 0.04575 0.25719 0.0
H182 H 0.20332 0.01525 0.21414 0.0
H183 H 0.13275 -0.00021 0.24343 0.0
H184 H 0.13919 0.02993 0.28694 0.0
H185 H 0.13352 0.0103 0.18142 0.0
H186 H 0.17372 0.95693 0.25236 0.0
H187 H 0.20564 0.94647 0.29089 0.0
H188 H 0.25685 0.95182 0.22075 0.0
H189 H 0.22529 0.9627 0.18187 0.0
C190 C 0.13106 0.91594 0.08194 0.0
C191 C 0.15193 0.90628 0.07066 0.0
C192 C 0.13238 0.93587 0.10306 0.0
C193 C 0.15437 0.94734 0.11123 0.0
C194 C 0.17434 0.94059 0.09483 0.0
C195 C 0.17318 0.91985 0.0748 0.0
C196 C 0.15736 0.96295 0.14012 0.0
C197 C 0.1752 0.95642 0.16241 0.0
C198 C 0.14164 0.98224 0.14729 0.0
C199 C 0.12211 0.98981 0.12499 0.0
C200 C 0.12627 0.99337 0.09337 0.0
C201 C 0.10763 -0.00095 0.07219 0.0
C202 C 0.08469 0.00158 0.08238 0.0
C203 C 0.08035 -0.0015 0.1138 0.0
C204 C 0.09893 0.99267 0.13505 0.0
C205 C 0.19291 0.03541 0.25468 0.0
C206 C 0.17489 0.03979 0.27527 0.0
C207 C 0.18939 0.01803 0.23024 0.0
C208 C 0.16762 0.00519 0.22577 0.0
C209 C 0.14969 0.00941 0.24664 0.0
C210 C 0.1534 0.02646 0.27146 0.0
C211 C 0.16315 0.9888 0.19794 0.0
C212 C 0.14482 -0.00514 0.17624 0.0
C213 C 0.17822 0.96895 0.19132 0.0
C214 C 0.19711 0.96098 0.21424 0.0
C215 C 0.19179 0.95598 0.24514 0.0
C216 C 0.20983 0.94998 0.26707 0.0
C217 C 0.23328 0.94863 0.25833 0.0
C218 C 0.23869 0.95296 0.22752 0.0
C219 C 0.2207 0.95899 0.2055 0.0
H220 H 0.24724 0.94414 0.27538 0.0
H221 H 0.07027 0.00595 0.06594 0.0
H222 H 0.55889 0.63348 0.50026 0.0
H223 H 0.52814 0.65126 0.5308 0.0
H224 H 0.57787 0.70719 0.56818 0.0
H225 H 0.60904 0.68904 0.53731 0.0
H226 H 0.55195 0.68039 0.61314 0.0
H227 H 0.53882 0.7228 0.5154 0.0
H228 H 0.53402 0.72011 0.45803 0.0
H229 H 0.4712 0.67519 0.46408 0.0
H230 H 0.47598 0.67713 0.52165 0.0
H231 H 0.4769 0.74626 0.70033 0.0
H232 H 0.50447 0.74267 0.65831 0.0
H233 H 0.45124 0.7013 0.60189 0.0
H234 H 0.42342 0.70674 0.64245 0.0
H235 H 0.4792 0.71763 0.56591 0.0
H236 H 0.49042 0.67395 0.66201 0.0
H237 H 0.49876 0.66623 0.7179 0.0
H238 H 0.56558 0.70484 0.71544 0.0
H239 H 0.55754 0.71301 0.65971 0.0
C240 C 0.56276 0.65051 0.5134 0.0
C241 C 0.58579 0.66057 0.51578 0.0
C242 C 0.54552 0.6601 0.53155 0.0
C243 C 0.55104 0.68029 0.55161 0.0
C244 C 0.57365 0.69143 0.55272 0.0
C245 C 0.59109 0.68164 0.53453 0.0
C246 C 0.53279 0.69016 0.57086 0.0
C247 C 0.53617 0.68902 0.60318 0.0
C248 C 0.51186 0.69978 0.55715 0.0
C249 C 0.5077 0.70022 0.52277 0.0
C250 C 0.52393 0.71242 0.50448 0.0
C251 C 0.5213 0.71092 0.47196 0.0
C252 C 0.50229 0.69752 0.45742 0.0
C253 C 0.48587 0.68562 0.47541 0.0
C254 C 0.48852 0.68692 0.50801 0.0
C255 C 0.47072 0.7379 0.67814 0.0
C256 C 0.44879 0.72549 0.67485 0.0
C257 C 0.48657 0.73535 0.65445 0.0
C258 C 0.48036 0.72014 0.62816 0.0
C259 C 0.45671 0.71238 0.62247 0.0
C260 C 0.44076 0.7156 0.64562 0.0
C261 C 0.49867 0.70943 0.60904 0.0
C262 C 0.49501 0.70948 0.57643 0.0
C263 C 0.51914 0.69812 0.62268 0.0
C264 C 0.52317 0.69447 0.65676 0.0
C265 C 0.50672 0.6811 0.67349 0.0
C266 C 0.51146 0.67654 0.70513 0.0
C267 C 0.53264 0.68511 0.72024 0.0
C268 C 0.54914 0.69827 0.70377 0.0
C269 C 0.54449 0.7029 0.67218 0.0
H270 H 0.5363 0.6815 0.74468 0.0
H271 H 0.5003 0.69637 0.43221 0.0
H272 H 0.84251 0.05748 0.00568 0.0
H273 H 0.83277 0.01456 0.0167 0.0
H274 H 0.79499 0.03947 0.09638 0.0
H275 H 0.80384 0.08244 0.0841 0.0
H276 H 0.83092 0.00084 0.10619 0.0
H277 H 0.76372 0.02468 0.03967 0.0
H278 H 0.74869 0.04361 0.99116 0.0
H279 H 0.78031 0.98621 0.93711 0.0
H280 H 0.7963 0.96742 0.98544 0.0
H281 H 0.77551 0.90155 0.16022 0.0
H282 H 0.77387 0.94168 0.1358 0.0
H283 H 0.79532 0.9083 0.04953 0.0
H284 H 0.79539 0.86808 0.07305 0.0
H285 H 0.77362 0.94991 0.03928 0.0
H286 H 0.83727 0.92322 0.10925 0.0
H287 H 0.85948 0.91038 0.15694 0.0
H288 H 0.83833 0.97601 0.20566 0.0
H289 H 0.81538 0.98887 0.15868 0.0
C290 C 0.83048 0.05364 0.02377 0.0
C291 C 0.82239 0.07273 0.04276 0.0
C292 C 0.82591 0.02936 0.03096 0.0
C293 C 0.81345 0.02431 0.0574 0.0
C294 C 0.80476 0.04341 0.07596 0.0
C295 C 0.80902 0.0677 0.0684 0.0
C296 C 0.80804 -0.00102 0.06469 0.0
C297 C 0.81821 0.98957 0.09204 0.0
C298 C 0.79229 0.98462 0.04505 0.0
C299 C 0.78127 -0.0053 0.0161 0.0
C300 C 0.76755 0.01614 0.01743 0.0
C301 C 0.75895 0.02692 0.98999 0.0
C302 C 0.76356 0.01612 0.96106 0.0
C303 C 0.77677 -0.00547 0.95955 0.0
C304 C 0.78565 0.98383 0.98696 0.0
C305 C 0.77846 0.90255 0.13555 0.0
C306 C 0.78779 0.88251 0.11919 0.0
C307 C 0.77788 0.92549 0.1218 0.0
C308 C 0.78642 0.92787 0.09194 0.0
C309 C 0.78976 0.90679 0.07321 0.0
C310 C 0.78966 0.88379 0.08672 0.0
C311 C 0.79527 0.95182 0.08228 0.0
C312 C 0.78628 0.96088 0.05385 0.0
C313 C 0.81218 0.96593 0.10126 0.0
C314 C 0.82427 0.95686 0.1304 0.0
C315 C 0.83695 0.93469 0.13026 0.0
C316 C 0.84981 0.92747 0.15718 0.0
C317 C 0.85039 0.9424 0.18428 0.0
C318 C 0.83788 0.96444 0.18467 0.0
C319 C 0.82485 0.97164 0.15795 0.0
H320 H 0.86051 0.93687 0.20497 0.0
H321 H 0.75685 0.02446 0.93981 0.0
H322 H 0.41437 0.36661 0.57749 0.0
H323 H 0.45499 0.35943 0.59764 0.0
H324 H 0.42933 0.2998 0.65228 0.0
H325 H 0.38873 0.30691 0.63188 0.0
H326 H 0.45231 0.34492 0.68464 0.0
H327 H 0.45946 0.2846 0.5998 0.0
H328 H 0.45818 0.27369 0.54369 0.0
H329 H 0.51554 0.32472 0.53086 0.0
H330 H 0.5165 0.33676 0.58681 0.0
H331 H 0.54674 0.31438 0.77804 0.0
H332 H 0.51424 0.30351 0.73982 0.0
H333 H 0.55377 0.33612 0.66731 0.0
H334 H 0.58668 0.34451 0.7047 0.0
H335 H 0.52411 0.30931 0.64035 0.0
H336 H 0.51778 0.37147 0.72244 0.0
H337 H 0.51516 0.39022 0.7752 0.0
H338 H 0.45539 0.34322 0.79133 0.0
H339 H 0.4578 0.32402 0.73891 0.0
C340 C 0.41778 0.35101 0.59229 0.0
C341 C 0.39896 0.33692 0.60302 0.0
C342 C 0.44075 0.34725 0.60412 0.0
C343 C 0.44474 0.32935 0.62657 0.0
C344 C 0.42622 0.31375 0.63497 0.0
C345 C 0.40327 0.31751 0.62311 0.0
C346 C 0.46744 0.32859 0.64422 0.0
C347 C 0.46808 0.33691 0.67534 0.0
C348 C 0.48792 0.31948 0.63096 0.0
C349 C 0.4879 0.31176 0.5975 0.0
C350 C 0.47162 0.29375 0.58499 0.0
C351 C 0.47092 0.28737 0.55319 0.0
C352 C 0.48675 0.29854 0.53372 0.0
C353 C 0.50331 0.31609 0.54602 0.0
C354 C 0.50386 0.32279 0.57776 0.0
C355 C 0.54892 0.31775 0.75359 0.0
C356 C 0.56828 0.3316 0.74418 0.0
C357 C 0.53025 0.31202 0.73188 0.0
C358 C 0.53094 0.32083 0.70137 0.0
C359 C 0.5524 0.32999 0.69098 0.0
C360 C 0.57122 0.33488 0.71237 0.0
C361 C 0.50892 0.32417 0.68203 0.0
C362 C 0.50851 0.31722 0.65014 0.0
C363 C 0.48867 0.33529 0.69448 0.0
C364 C 0.4882 0.34602 0.7268 0.0
C365 C 0.50427 0.36491 0.73737 0.0
C366 C 0.50276 0.3757 0.7672 0.0
C367 C 0.48516 0.36787 0.78663 0.0
C368 C 0.46905 0.34923 0.77631 0.0
C369 C 0.4705 0.33838 0.74656 0.0
H370 H 0.48398 0.37628 0.80965 0.0
H371 H 0.4862 0.29358 0.50909 0.0
H372 H 0.67025 0.54119 0.48841 0.0
H373 H 0.68079 0.50133 0.46545 0.0
H374 H 0.66369 0.52803 0.37319 0.0
H375 H 0.65316 0.56758 0.39583 0.0
H376 H 0.63717 0.48507 0.38901 0.0
H377 H 0.7172 0.51646 0.38866 0.0
H378 H 0.75055 0.53979 0.41528 0.0
H379 H 0.75614 0.48498 0.48563 0.0
H380 H 0.72253 0.46153 0.45972 0.0
H381 H 0.67332 0.37275 0.31396 0.0
H382 H 0.66663 0.41563 0.32934 0.0
H383 H 0.69102 0.4006 0.42374 0.0
H384 H 0.69985 0.35847 0.408 0.0
H385 H 0.71252 0.43965 0.40224 0.0
H386 H 0.63172 0.40784 0.40138 0.0
H387 H 0.59521 0.3878 0.37824 0.0
H388 H 0.58828 0.44503 0.31124 0.0
H389 H 0.625 0.4652 0.33354 0.0
C390 C 0.66977 0.53881 0.46324 0.0
C391 C 0.66014 0.55677 0.44383 0.0
C392 C 0.67542 0.51608 0.45019 0.0
C393 C 0.67204 0.51183 0.41784 0.0
C394 C 0.66562 0.53101 0.39826 0.0
C395 C 0.65991 0.5536 0.41126 0.0
C396 C 0.67409 0.48694 0.40472 0.0
C397 C 0.65364 0.47503 0.3912 0.0
C398 C 0.69558 0.4744 0.40832 0.0
C399 C 0.7174 0.4871 0.42212 0.0
C400 C 0.72565 0.50928 0.4097 0.0
C401 C 0.74452 0.52261 0.42475 0.0
C402 C 0.75549 0.51386 0.4521 0.0
C403 C 0.74768 0.49169 0.46435 0.0
C404 C 0.72876 0.47831 0.44944 0.0
C405 C 0.67721 0.37852 0.33805 0.0
C406 C 0.68624 0.36185 0.36012 0.0
C407 C 0.67308 0.40294 0.34681 0.0
C408 C 0.67771 0.41097 0.37781 0.0
C409 C 0.6869 0.3945 0.3998 0.0
C410 C 0.6916 0.37028 0.39088 0.0
C411 C 0.67545 0.43713 0.38678 0.0
C412 C 0.69598 0.44948 0.3995 0.0
C413 C 0.65392 0.45001 0.38216 0.0
C414 C 0.6315 0.43789 0.36891 0.0
C415 C 0.62261 0.41606 0.3815 0.0
C416 C 0.60181 0.40467 0.36856 0.0
C417 C 0.5895 0.41506 0.34319 0.0
C418 C 0.59788 0.43694 0.33083 0.0
C419 C 0.6187 0.44836 0.34364 0.0
H420 H 0.57344 0.40622 0.33318 0.0
H421 H 0.77003 0.52424 0.46381 0.0
H422 H 0.93762 0.17405 0.0442 0.0
H423 H 0.9736 0.18701 0.0197 0.0
H424 H 0.93283 0.20016 0.93391 0.0
H425 H 0.89683 0.18611 0.95824 0.0
H426 H 0.97743 0.17478 0.92707 0.0
H427 H 0.9447 0.24741 0.97557 0.0
H428 H 0.92554 0.26634 0.02046 0.0
H429 H 0.98739 0.25264 0.07952 0.0
H430 H 0.00675 0.23318 0.035 0.0
H431 H 0.05831 0.24582 0.85534 0.0
H432 H 0.02147 0.24068 0.8818 0.0
H433 H 0.0614 0.22941 0.96852 0.0
H434 H 0.09824 0.23478 0.9423 0.0
H435 H 0.01758 0.25 0.9747 0.0
H436 H 0.05089 0.17798 0.92378 0.0
H437 H 0.0654 0.15007 0.88274 0.0
H438 H 0.00062 0.15883 0.82765 0.0
H439 H 0.98571 0.1867 0.8683 0.0
C440 C 0.93633 0.18084 0.02065 0.0
C441 C 0.91489 0.17996 0.00318 0.0
C442 C 0.95677 0.18732 0.0064 0.0
C443 C 0.95553 0.19411 0.97513 0.0
C444 C 0.93384 0.1946 0.95801 0.0
C445 C 0.91337 0.18772 0.97221 0.0
C446 C 0.97663 0.20396 0.96198 0.0
C447 C 0.98617 0.19144 0.9368 0.0
C448 C 0.98781 0.2252 0.97584 0.0
C449 C 0.97725 0.23903 0.00193 0.0
C450 C 0.95427 0.2486 0.9981 0.0
C451 C 0.94332 0.25928 0.0235 0.0
C452 C 0.95526 0.26073 0.05282 0.0
C453 C 0.9782 0.25157 0.05676 0.0
C454 C 0.98921 0.24077 0.03143 0.0
C455 C 0.05922 0.24363 0.88038 0.0
C456 C 0.08069 0.23804 0.89633 0.0
C457 C 0.03823 0.24017 0.89523 0.0
C458 C 0.03922 0.23262 0.92614 0.0
C459 C 0.06066 0.23394 0.94404 0.0
C460 C 0.08164 0.23743 0.9291 0.0
C461 C 0.0184 0.22142 0.93878 0.0
C462 C 0.00893 0.23348 0.96441 0.0
C463 C 0.00728 0.1998 0.92487 0.0
C464 C 0.01732 0.1849 0.899 0.0
C465 C 0.0399 0.17434 0.9027 0.0
C466 C 0.04812 0.15832 0.87958 0.0
C467 C 0.03398 0.15274 0.85256 0.0
C468 C 0.0116 0.16319 0.84854 0.0
C469 C 0.00326 0.17909 0.87163 0.0
H470 H 0.04034 0.14031 0.83478 0.0
H471 H 0.94674 0.26896 0.07249 0.0
H472 H 0.29271 0.4221 0.51328 0.0
H473 H 0.28872 0.45658 0.47792 0.0
H474 H 0.35537 0.43738 0.43926 0.0
H475 H 0.36082 0.40614 0.47804 0.0
H476 H 0.34821 0.4788 0.42344 0.0
H477 H 0.29569 0.40721 0.41088 0.0
H478 H 0.26433 0.37614 0.41934 0.0
H479 H 0.21486 0.43396 0.43539 0.0
H480 H 0.24585 0.4653 0.42695 0.0
H481 H 0.31368 0.49187 0.26715 0.0
H482 H 0.31409 0.46938 0.31535 0.0
H483 H 0.2774 0.5287 0.36006 0.0
H484 H 0.27728 0.55195 0.3117 0.0
H485 H 0.2679 0.46856 0.3714 0.0
H486 H 0.32684 0.53922 0.38156 0.0
H487 H 0.35572 0.56432 0.35418 0.0
H488 H 0.39302 0.49875 0.32943 0.0
H489 H 0.36444 0.47331 0.35693 0.0
C490 C 0.3073 0.4266 0.49891 0.0
C491 C 0.32617 0.41041 0.49622 0.0
C492 C 0.30465 0.4457 0.47793 0.0
C493 C 0.32062 0.44793 0.45409 0.0
C494 C 0.34216 0.43537 0.45649 0.0
C495 C 0.34538 0.41749 0.47888 0.0
C496 C 0.31377 0.46091 0.42527 0.0
C497 C 0.33063 0.4764 0.41227 0.0
C498 C 0.29094 0.45749 0.40994 0.0
C499 C 0.27321 0.43864 0.41874 0.0
C500 C 0.27824 0.41329 0.41674 0.0
C501 C 0.26046 0.39562 0.42127 0.0
C502 C 0.23762 0.40307 0.42791 0.0
C503 C 0.23255 0.42819 0.43028 0.0
C504 C 0.2502 0.4459 0.42564 0.0
C505 C 0.30495 0.49989 0.28679 0.0
C506 C 0.29592 0.5239 0.2859 0.0
C507 C 0.30526 0.48699 0.31428 0.0
C508 C 0.29616 0.49773 0.34098 0.0
C509 C 0.28463 0.5204 0.33943 0.0
C510 C 0.28459 0.53357 0.3119 0.0
C511 C 0.3019 0.48667 0.37105 0.0
C512 C 0.28516 0.47112 0.38349 0.0
C513 C 0.32499 0.4891 0.38508 0.0
C514 C 0.34346 0.50443 0.37111 0.0
C515 C 0.3413 0.53022 0.37043 0.0
C516 C 0.35755 0.54448 0.35482 0.0
C517 C 0.37596 0.53309 0.33968 0.0
C518 C 0.37858 0.5075 0.34087 0.0
C519 C 0.36247 0.49317 0.35668 0.0
H520 H 0.38836 0.54415 0.32733 0.0
H521 H 0.22386 0.38939 0.43121 0.0
H522 H 0.05477 0.83389 0.96492 0.0
H523 H 0.02568 0.83037 0.92104 0.0
H524 H 0.08196 0.83374 0.85676 0.0
H525 H 0.11115 0.83798 0.90104 0.0
H526 H 0.04417 0.86755 0.84463 0.0
H527 H 0.05596 0.78122 0.86666 0.0
H528 H 0.05941 0.74771 0.90431 0.0
H529 H 0.98738 0.75858 0.92843 0.0
H530 H 0.98369 0.79262 0.89152 0.0
H531 H 0.96695 0.83586 0.71185 0.0
H532 H -0.00063 0.84023 0.75155 0.0
H533 H 0.9507 0.82475 0.8231 0.0
H534 H 0.91898 0.81823 0.78365 0.0
H535 H 0.9873 0.79697 0.82947 0.0
H536 H 0.97438 0.88288 0.81009 0.0
H537 H 0.97 0.91867 0.77612 0.0
H538 H 0.04217 0.9116 0.75068 0.0
H539 H 0.04682 0.8753 0.78384 0.0
C540 C 0.06093 0.83235 0.94144 0.0
C541 C 0.08496 0.8355 0.93601 0.0
C542 C 0.04437 0.83109 0.91647 0.0
C543 C 0.05183 0.83209 0.88588 0.0
C544 C 0.07604 0.83315 0.88035 0.0
C545 C 0.09266 0.83462 0.90546 0.0
C546 C 0.03405 0.83143 0.85984 0.0
C547 C 0.03191 0.85203 0.84076 0.0
C548 C 0.01791 0.81136 0.85586 0.0
C549 C 0.01952 0.7895 0.8762 0.0
C550 C 0.04083 0.77645 0.87994 0.0
C551 C 0.04287 0.75743 0.90128 0.0
C552 C 0.02362 0.75102 0.91875 0.0
C553 C 0.00227 0.76354 0.91483 0.0
C554 C 0.00018 0.7827 0.89368 0.0
C555 C 0.96305 0.83412 0.73616 0.0
C556 C 0.94016 0.82736 0.7446 0.0
C557 C 0.98159 0.83654 0.75877 0.0
C558 C 0.97734 0.83295 0.79023 0.0
C559 C 0.95428 0.82766 0.7989 0.0
C560 C 0.93589 0.82467 0.77628 0.0
C561 C -0.00295 0.83324 0.81406 0.0
C562 C -0.00039 0.81249 0.83288 0.0
C563 C 0.01331 0.85338 0.81799 0.0
C564 C 0.01088 0.87609 0.79926 0.0
C565 C 0.9893 0.88882 0.79713 0.0
C566 C 0.98674 0.9092 0.77795 0.0
C567 C 0.00577 0.91734 0.76115 0.0
C568 C 0.02743 0.90522 0.76365 0.0
C569 C 0.03003 0.88473 0.78263 0.0
H570 H 0.00375 0.9331 0.74629 0.0
H571 H 0.02524 0.73633 0.93532 0.0
H572 H 0.90287 0.08563 0.92184 0.0
H573 H 0.90682 0.04912 0.88802 0.0
H574 H 0.84199 0.01857 0.9209 0.0
H575 H 0.83723 0.05606 0.95347 0.0
H576 H 0.88107 0.98381 0.91474 0.0
H577 H 0.83717 0.044 0.85704 0.0
H578 H 0.82835 0.08458 0.83493 0.0
H579 H 0.89174 0.08157 0.78399 0.0
H580 H 0.90119 0.04111 0.80623 0.0
H581 H 0.84969 0.89653 0.80039 0.0
H582 H 0.84793 0.93546 0.82955 0.0
H583 H 0.91372 0.95948 0.79252 0.0
H584 H 0.91587 0.92006 0.76318 0.0
H585 H 0.87716 -0.0023 0.80069 0.0
H586 H 0.92015 0.93609 0.8581 0.0
H587 H 0.92837 0.89582 0.88156 0.0
H588 H 0.86538 0.90132 0.93301 0.0
H589 H 0.8566 0.94148 0.90959 0.0
C590 C 0.88974 0.07086 0.92233 0.0
C591 C 0.87024 0.0732 0.94102 0.0
C592 C 0.89195 0.05012 0.90295 0.0
C593 C 0.8747 0.03125 0.90197 0.0
C594 C 0.8556 0.03292 0.92164 0.0
C595 C 0.85312 0.05407 0.94068 0.0
C596 C 0.87615 0.01062 0.87895 0.0
C597 C 0.87993 0.98673 0.88981 0.0
C598 C 0.87535 0.01481 0.84646 0.0
C599 C 0.87005 0.03955 0.83362 0.0
C600 C 0.84943 0.0521 0.84147 0.0
C601 C 0.84425 0.07507 0.82881 0.0
C602 C 0.85948 0.08567 0.80809 0.0
C603 C 0.87996 0.07334 0.80006 0.0
C604 C 0.88523 0.05038 0.81269 0.0
C605 C 0.86365 0.91017 0.79798 0.0
C606 C 0.88335 0.90491 0.78043 0.0
C607 C 0.86258 0.93242 0.81464 0.0
C608 C 0.88106 0.94987 0.81389 0.0
C609 C 0.89951 0.94594 0.79372 0.0
C610 C 0.9007 0.92346 0.77704 0.0
C611 C 0.88179 0.97087 0.83652 0.0
C612 C 0.87849 -0.00517 0.82563 0.0
C613 C 0.88297 0.96674 0.86902 0.0
C614 C 0.88764 0.94186 0.88194 0.0
C615 C 0.90787 0.9286 0.8741 0.0
C616 C 0.9127 0.90582 0.88751 0.0
C617 C 0.89744 0.89604 0.90882 0.0
C618 C 0.87722 0.90893 0.91656 0.0
C619 C 0.87232 0.93172 0.90323 0.0
H620 H 0.90126 0.87848 0.91931 0.0
H621 H 0.85541 0.10339 0.79823 0.0
H622 H 0.4361 0.36099 0.5294 0.0
H623 H 0.47562 0.35031 0.51229 0.0
H624 H 0.45026 0.35521 0.41624 0.0
H625 H 0.41153 0.36641 0.43269 0.0
H626 H 0.4739 0.31339 0.42413 0.0
H627 H 0.484 0.40005 0.45433 0.0
H628 H 0.48513 0.43653 0.49001 0.0
H629 H 0.53905 0.40314 0.54831 0.0
H630 H 0.53791 0.36622 0.51335 0.0
H631 H 0.59113 0.32748 0.35437 0.0
H632 H 0.5493 0.33129 0.36748 0.0
H633 H 0.56841 0.31364 0.46276 0.0
H634 H 0.60944 0.30943 0.45013 0.0
H635 H 0.54765 0.36088 0.45377 0.0
H636 H 0.53836 0.27461 0.42365 0.0
H637 H 0.5377 0.238 0.38828 0.0
H638 H 0.48316 0.27024 0.32988 0.0
H639 H 0.48381 0.30734 0.36454 0.0
C640 C 0.43906 0.36015 0.50471 0.0
C641 C 0.42048 0.36461 0.48257 0.0
C642 C 0.4616 0.35378 0.49492 0.0
C643 C 0.46579 0.35153 0.46291 0.0
C644 C 0.44742 0.35646 0.44101 0.0
C645 C 0.42521 0.36309 0.45064 0.0
C646 C 0.48916 0.34426 0.45152 0.0
C647 C 0.49005 0.32385 0.43043 0.0
C648 C 0.5102 0.35785 0.46004 0.0
C649 C 0.5106 0.38009 0.48135 0.0
C650 C 0.49588 0.4003 0.47495 0.0
C651 C 0.49657 0.42112 0.49503 0.0
C652 C 0.51209 0.42212 0.52147 0.0
C653 C 0.52698 0.40232 0.52786 0.0
C654 C 0.5263 0.38143 0.50793 0.0
C655 C 0.58625 0.32394 0.37794 0.0
C656 C 0.60369 0.31875 0.40145 0.0
C657 C 0.5624 0.32603 0.38532 0.0
C658 C 0.55596 0.32305 0.41622 0.0
C659 C 0.5731 0.31618 0.43888 0.0
C660 C 0.59662 0.31385 0.43156 0.0
C661 C 0.53238 0.33001 0.42663 0.0
C662 C 0.53148 0.35044 0.44746 0.0
C663 C 0.51145 0.31638 0.4179 0.0
C664 C 0.51143 0.29411 0.39657 0.0
C665 C 0.52649 0.27416 0.40302 0.0
C666 C 0.52605 0.25322 0.38313 0.0
C667 C 0.51047 0.25182 0.35678 0.0
C668 C 0.49528 0.27136 0.35027 0.0
C669 C 0.49569 0.29237 0.37004 0.0
H670 H 0.5101 0.23559 0.34147 0.0
H671 H 0.51263 0.43826 0.53694 0.0
H672 H 0.17056 0.95948 0.97814 0.0
H673 H 0.17325 0.00266 0.96269 0.0
H674 H 0.09699 0.00702 0.95935 0.0
H675 H 0.09442 0.96378 0.97445 0.0
H676 H 0.11409 0.02682 0.90746 0.0
H677 H 0.13146 0.0395 0.01912 0.0
H678 H 0.15282 0.03147 0.06931 0.0
H679 H 0.21935 0.04576 0.02882 0.0
H680 H 0.19834 0.05517 0.97873 0.0
H681 H 0.11228 0.1579 0.88554 0.0
H682 H 0.10602 0.11664 0.90621 0.0
H683 H 0.18175 0.10897 0.92051 0.0
H684 H 0.18787 0.15033 0.9008 0.0
H685 H 0.1628 0.09076 0.96691 0.0
H686 H 0.14668 0.0824 0.85688 0.0
H687 H 0.12664 0.09227 0.8065 0.0
H688 H 0.06004 0.06752 0.83942 0.0
H689 H 0.0796 0.05806 0.89037 0.0
C690 C 0.15447 0.97007 0.97582 0.0
C691 C 0.13234 0.95851 0.97914 0.0
C692 C 0.15595 -0.00531 0.96632 0.0
C693 C 0.1353 0.00841 0.95989 0.0
C694 C 0.11321 -0.00294 0.96414 0.0
C695 C 0.11177 0.97249 0.97364 0.0
C696 C 0.13676 0.03446 0.94865 0.0
C697 C 0.12448 0.04089 0.92066 0.0
C698 C 0.15074 0.05286 0.96516 0.0
C699 C 0.16339 0.04776 0.99523 0.0
C700 C 0.15065 0.04083 0.02093 0.0
C701 C 0.16267 0.03597 0.0493 0.0
C702 C 0.18741 0.03746 0.05205 0.0
C703 C 0.20019 0.04442 0.02659 0.0
C704 C 0.18823 0.04979 0.99831 0.0
C705 C 0.12758 0.14722 0.89262 0.0
C706 C 0.15068 0.15703 0.89055 0.0
C707 C 0.12398 0.12362 0.90464 0.0
C708 C 0.14344 0.10916 0.91432 0.0
C709 C 0.16639 0.11946 0.91311 0.0
C710 C 0.16993 0.14311 0.90164 0.0
C711 C 0.1403 0.08332 0.92554 0.0
C712 C 0.1523 0.07684 0.95358 0.0
C713 C 0.12635 0.0649 0.90863 0.0
C714 C 0.11458 0.06983 0.87767 0.0
C715 C 0.12773 0.07923 0.8535 0.0
C716 C 0.11645 0.08477 0.82484 0.0
C717 C 0.09206 0.08062 0.81981 0.0
C718 C 0.07892 0.0708 0.8434 0.0
C719 C 0.0901 0.06536 0.8722 0.0
H720 H 0.08336 0.08493 0.79759 0.0
H721 H 0.19665 0.03351 0.07403 0.0
H722 H 0.56859 0.59242 0.37066 0.0
H723 H 0.52843 0.58876 0.34787 0.0
H724 H 0.50228 0.62714 0.42807 0.0
H725 H 0.54303 0.63099 0.4512 0.0
H726 H 0.47248 0.58911 0.40752 0.0
H727 H 0.51 0.65712 0.36098 0.0
H728 H 0.54125 0.67924 0.33433 0.0
H729 H 0.53085 0.62993 0.25469 0.0
H730 H 0.49984 0.60717 0.28109 0.0
H731 H 0.36292 0.62038 0.32426 0.0
H732 H 0.40008 0.61809 0.35602 0.0
H733 H 0.43253 0.58031 0.2799 0.0
H734 H 0.39517 0.58219 0.24823 0.0
H735 H 0.45846 0.62 0.30054 0.0
H736 H 0.43621 0.54398 0.35931 0.0
H737 H 0.41316 0.51753 0.39314 0.0
H738 H 0.39643 0.58099 0.44936 0.0
H739 H 0.42018 0.60761 0.41653 0.0
C740 C 0.55437 0.60013 0.38366 0.0
C741 C 0.55921 0.61232 0.41278 0.0
C742 C 0.53132 0.59801 0.37046 0.0
C743 C 0.51229 0.60825 0.38575 0.0
C744 C 0.51671 0.61928 0.41564 0.0
C745 C 0.54002 0.62135 0.42903 0.0
C746 C 0.4881 0.60773 0.36982 0.0
C747 C 0.46931 0.5963 0.38435 0.0
C748 C 0.48401 0.61656 0.33921 0.0
C749 C 0.50266 0.63029 0.32315 0.0
C750 C 0.51449 0.65083 0.33789 0.0
C751 C 0.53217 0.66352 0.32281 0.0
C752 C 0.53805 0.65598 0.29285 0.0
C753 C 0.52628 0.63574 0.27791 0.0
C754 C 0.50864 0.62294 0.29292 0.0
C755 C 0.378 0.61158 0.3143 0.0
C756 C 0.3763 0.60203 0.28344 0.0
C757 C 0.39914 0.60988 0.33272 0.0
C758 C 0.41922 0.59891 0.32057 0.0
C759 C 0.41734 0.58881 0.28994 0.0
C760 C 0.39604 0.59006 0.27174 0.0
C761 C 0.44283 0.60093 0.33804 0.0
C762 C 0.46156 0.61288 0.32376 0.0
C763 C 0.44689 0.59262 0.36887 0.0
C764 C 0.42929 0.57784 0.38494 0.0
C765 C 0.42715 0.55233 0.37847 0.0
C766 C 0.41428 0.53727 0.39774 0.0
C767 C 0.40307 0.54761 0.42312 0.0
C768 C 0.40489 0.57303 0.42947 0.0
C769 C 0.41812 0.5881 0.41063 0.0
H770 H 0.39311 0.53591 0.43797 0.0
H771 H 0.55171 0.66584 0.2812 0.0
H772 H 0.326 0.45823 0.60218 0.0
H773 H 0.33067 0.50062 0.62118 0.0
H774 H 0.39946 0.50508 0.58212 0.0
H775 H 0.39553 0.46112 0.56548 0.0
H776 H 0.40147 0.52636 0.63883 0.0
H777 H 0.34713 0.53299 0.54952 0.0
H778 H 0.31158 0.51861 0.51807 0.0
H779 H 0.2676 0.53879 0.59301 0.0
H780 H 0.30295 0.5527 0.62528 0.0
H781 H 0.40774 0.65649 0.67189 0.0
H782 H 0.4068 0.61566 0.64632 0.0
H783 H 0.3363 0.60297 0.67761 0.0
H784 H 0.33696 0.64452 0.70209 0.0
H785 H 0.33714 0.58659 0.62132 0.0
H786 H 0.39021 0.57876 0.71133 0.0
H787 H 0.42526 0.58819 0.74646 0.0
H788 H 0.47111 0.56775 0.67369 0.0
H789 H 0.43635 0.55883 0.63778 0.0
C790 C 0.34175 0.4685 0.5965 0.0
C791 C 0.36001 0.45658 0.58129 0.0
C792 C 0.34453 0.49281 0.60767 0.0
C793 C 0.3652 0.50658 0.60261 0.0
C794 C 0.38322 0.49505 0.58617 0.0
C795 C 0.38075 0.47014 0.57586 0.0
C796 C 0.36768 0.53272 0.61511 0.0
C797 C 0.38768 0.53974 0.63447 0.0
C798 C 0.34931 0.55004 0.61031 0.0
C799 C 0.32778 0.5439 0.58988 0.0
C800 C 0.32988 0.53447 0.55928 0.0
C801 C 0.30977 0.52625 0.54136 0.0
C802 C 0.28735 0.52776 0.55354 0.0
C803 C 0.28499 0.53764 0.58361 0.0
C804 C 0.30507 0.54572 0.60172 0.0
C805 C 0.39205 0.64496 0.67333 0.0
C806 C 0.37237 0.65361 0.68898 0.0
C807 C 0.39157 0.6215 0.65879 0.0
C808 C 0.37162 0.60578 0.66031 0.0
C809 C 0.35192 0.61459 0.67595 0.0
C810 C 0.35223 0.63833 0.68995 0.0
C811 C 0.37097 0.5804 0.64523 0.0
C812 C 0.3512 0.57345 0.62542 0.0
C813 C 0.38954 0.56315 0.64985 0.0
C814 C 0.41056 0.56846 0.67161 0.0
C815 C 0.40774 0.57654 0.70263 0.0
C816 C 0.42758 0.58179 0.72272 0.0
C817 C 0.4504 0.57868 0.71228 0.0
C818 C 0.45342 0.57025 0.68173 0.0
C819 C 0.43364 0.56513 0.66147 0.0
H820 H 0.46572 0.58272 0.72788 0.0
H821 H 0.27182 0.52133 0.53967 0.0
H822 H 0.05838 0.82778 0.07784 0.0
H823 H 0.01702 0.81846 0.08498 0.0
H824 H 0.99649 0.874 0.01918 0.0
H825 H 0.03885 0.88387 0.01219 0.0
H826 H 0.97103 0.87836 0.07002 0.0
H827 H 0.98798 0.8085 0.00358 0.0
H828 H 0.00901 0.77179 0.98502 0.0
H829 H -0.00209 0.73606 0.07123 0.0
H830 H 0.97712 0.77267 0.09057 0.0
H831 H 0.84899 0.83729 0.08506 0.0
H832 H 0.88746 0.84915 0.06526 0.0
H833 H 0.92228 0.79908 0.12856 0.0
H834 H 0.88391 0.78796 0.1491 0.0
H835 H 0.93811 0.79311 0.07179 0.0
H836 H 0.92456 0.86218 0.14043 0.0
H837 H 0.90526 0.89883 0.16224 0.0
H838 H 0.91093 0.93561 0.07556 0.0
H839 H 0.93001 0.89905 0.05301 0.0
C840 C 0.04519 0.83805 0.06456 0.0
C841 C 0.05219 0.85685 0.04465 0.0
C842 C 0.02131 0.83241 0.06847 0.0
C843 C 0.00322 0.84518 0.05246 0.0
C844 C 0.00997 0.8637 0.03183 0.0
C845 C 0.03423 0.8693 0.02768 0.0
C846 C 0.97766 0.84005 0.05943 0.0
C847 C 0.96363 0.85977 0.06962 0.0
C848 C 0.96806 0.8156 0.06007 0.0
C849 C 0.98107 0.79358 0.04865 0.0
C850 C 0.99017 0.79294 0.01873 0.0
C851 C 0.002 0.77207 0.00801 0.0
C852 C 0.00478 0.75159 0.0269 0.0
C853 C 0.99574 0.75193 0.05659 0.0
C854 C 0.9839 0.77274 0.06742 0.0
C855 C 0.8649 0.82923 0.09524 0.0
C856 C 0.86351 0.81205 0.11921 0.0
C857 C 0.88695 0.83598 0.08378 0.0
C858 C 0.90804 0.82529 0.09557 0.0
C859 C 0.90643 0.80778 0.11911 0.0
C860 C 0.8845 0.80143 0.13094 0.0
C861 C 0.9317 0.83134 0.08278 0.0
C862 C 0.94537 0.81176 0.07164 0.0
C863 C 0.94099 0.85584 0.08164 0.0
C864 C 0.92846 0.87756 0.09478 0.0
C865 C 0.92138 0.87788 0.12578 0.0
C866 C 0.91057 0.89873 0.13836 0.0
C867 C 0.9068 0.91952 0.12027 0.0
C868 C 0.91381 0.91948 0.08954 0.0
C869 C 0.92463 0.89868 0.07685 0.0
H870 H 0.89854 0.93566 0.13008 0.0
H871 H 0.01393 0.73549 0.01854 0.0
H872 H 0.66977 0.55949 0.5801 0.0
H873 H 0.66973 0.52191 0.60922 0.0
H874 H 0.61074 0.4932 0.55041 0.0
H875 H 0.60967 0.53244 0.52241 0.0
H876 H 0.60216 0.48702 0.60908 0.0
H877 H 0.67037 0.46891 0.54989 0.0
H878 H 0.70803 0.48106 0.52744 0.0
H879 H 0.73987 0.49436 0.61947 0.0
H880 H 0.70234 0.48259 0.64247 0.0
H881 H 0.61323 0.37266 0.68757 0.0
H882 H 0.61112 0.40516 0.6492 0.0
H883 H 0.66549 0.44676 0.70318 0.0
H884 H 0.6671 0.41422 0.74213 0.0
H885 H 0.67507 0.44266 0.64225 0.0
H886 H 0.60804 0.46258 0.70178 0.0
H887 H 0.57016 0.45447 0.72598 0.0
H888 H 0.53588 0.44022 0.63558 0.0
H889 H 0.5737 0.44764 0.6108 0.0
C890 C 0.65731 0.54482 0.57262 0.0
C891 C 0.63989 0.54869 0.54889 0.0
C892 C 0.65731 0.52322 0.58929 0.0
C893 C 0.64052 0.50436 0.58179 0.0
C894 C 0.62396 0.50744 0.55654 0.0
C895 C 0.62362 0.52958 0.54016 0.0
C896 C 0.63946 0.4826 0.60217 0.0
C897 C 0.61795 0.47685 0.61573 0.0
C898 C 0.66027 0.46985 0.61162 0.0
C899 C 0.68348 0.47485 0.5979 0.0
C900 C 0.68543 0.4743 0.56535 0.0
C901 C 0.70674 0.48122 0.55252 0.0
C902 C 0.72631 0.48852 0.57202 0.0
C903 C 0.7247 0.48868 0.60439 0.0
C904 C 0.70343 0.48179 0.61734 0.0
C905 C 0.62479 0.38869 0.69103 0.0
C906 C 0.6409 0.39083 0.71694 0.0
C907 C 0.6234 0.40733 0.66936 0.0
C908 C 0.63818 0.42831 0.67334 0.0
C909 C 0.65405 0.4306 0.69965 0.0
C910 C 0.65511 0.41208 0.72167 0.0
C911 C 0.63789 0.44733 0.6493 0.0
C912 C 0.65917 0.45249 0.63512 0.0
C913 C 0.61687 0.45952 0.63946 0.0
C914 C 0.59391 0.45535 0.65439 0.0
C915 C 0.59252 0.45745 0.68702 0.0
C916 C 0.57102 0.453 0.70086 0.0
C917 C 0.55064 0.44673 0.68234 0.0
C918 C 0.5517 0.44501 0.64992 0.0
C919 C 0.57319 0.44932 0.63596 0.0
H920 H 0.53403 0.44329 0.69311 0.0
H921 H 0.74274 0.494 0.56203 0.0
H922 H 0.9537 0.12984 0.05023 0.0
H923 H 0.98771 0.12597 0.08804 0.0
H924 H 0.94053 0.09984 0.15647 0.0
H925 H 0.90694 0.10346 0.11886 0.0
H926 H 0.97124 0.13576 0.1807 0.0
H927 H 0.97357 0.05969 0.11963 0.0
H928 H 0.97428 0.03542 0.07026 0.0
H929 H 0.04029 0.07034 0.05008 0.0
H930 H 0.03979 0.09513 0.0991 0.0
H931 H 0.07348 0.08369 0.27517 0.0
H932 H 0.03388 0.09021 0.25006 0.0
H933 H 0.06602 0.1296 0.17672 0.0
H934 H 0.10493 0.12384 0.2014 0.0
H935 H 0.04006 0.08321 0.15943 0.0
H936 H 0.03726 0.16047 0.21872 0.0
H937 H 0.03604 0.18665 0.26639 0.0
H938 H 0.97089 0.15122 0.28909 0.0
H939 H 0.97202 0.12432 0.24189 0.0
C940 C 0.95093 0.12233 0.07292 0.0
C941 C 0.92809 0.11577 0.0814 0.0
C942 C 0.97014 0.12054 0.09461 0.0
C943 C 0.9665 0.11247 0.12493 0.0
C944 C 0.94366 0.10598 0.13319 0.0
C945 C 0.92465 0.10751 0.11155 0.0
C946 C 0.98649 0.11031 0.14807 0.0
C947 C 0.9862 0.12405 0.17636 0.0
C948 C 0.00583 0.09499 0.14209 0.0
C949 C 0.00656 0.07943 0.11302 0.0
C950 C 0.98819 0.06229 0.10462 0.0
C951 C 0.98854 0.04844 0.07667 0.0
C952 C 0.00729 0.05138 0.057 0.0
C953 C 0.02577 0.0681 0.06532 0.0
C954 C 0.02548 0.08203 0.09321 0.0
C955 C 0.07197 0.09423 0.25408 0.0
C956 C 0.09238 0.10249 0.23958 0.0
C957 C 0.04941 0.09797 0.2399 0.0
C958 C 0.04731 0.10993 0.2113 0.0
C959 C 0.06744 0.12008 0.19861 0.0
C960 C 0.0897 0.11666 0.21276 0.0
C961 C 0.02515 0.10914 0.19175 0.0
C962 C 0.02494 0.09465 0.16408 0.0
C963 C 0.0055 0.12388 0.19832 0.0
C964 C 0.00501 0.13993 0.227 0.0
C965 C 0.0229 0.15788 0.23413 0.0
C966 C 0.02217 0.17296 0.26103 0.0
C967 C 0.00348 0.1705 0.28086 0.0
C968 C 0.98543 0.15302 0.27378 0.0
C969 C 0.98612 0.13783 0.24696 0.0
H970 H 0.00292 0.18222 0.30163 0.0
H971 H 0.00752 0.04067 0.03537 0.0
H972 H 0.13461 0.77228 0.02663 0.0
H973 H 0.15524 0.74051 0.05643 0.0
H974 H 0.20975 0.79383 0.0865 0.0
H975 H 0.18911 0.82572 0.05634 0.0
H976 H 0.22858 0.7517 0.07086 0.0
H977 H 0.16571 0.77466 0.13594 0.0
H978 H 0.1251 0.78193 0.15228 0.0
H979 H 0.10647 0.70589 0.13182 0.0
H980 H 0.14691 0.69818 0.11511 0.0
H981 H 0.28246 0.68952 0.19587 0.0
H982 H 0.25942 0.71779 0.16346 0.0
H983 H 0.21257 0.65775 0.13125 0.0
H984 H 0.23608 0.62909 0.16374 0.0
H985 H 0.18814 0.70134 0.14773 0.0
H986 H 0.2515 0.67928 0.08221 0.0
H987 H 0.29265 0.67284 0.06746 0.0
H988 H 0.30994 0.7488 0.09067 0.0
H989 H 0.26895 0.75564 0.10582 0.0
C990 C 0.15139 0.77704 0.0389 0.0
C991 C 0.1605 0.80141 0.03871 0.0
C992 C 0.16287 0.75898 0.05649 0.0
C993 C 0.18371 0.76487 0.0745 0.0
C994 C 0.19354 0.78888 0.07305 0.0
C995 C 0.18203 0.807 0.05534 0.0
C996 C 0.19591 0.74562 0.09341 0.0
C997 C 0.21975 0.74099 0.08799 0.0
C998 C 0.18417 0.73101 0.11517 0.0
C999 C 0.1594 0.73589 0.12389 0.0
C1000 C 0.15291 0.75954 0.13452 0.0
C1001 C 0.12992 0.76372 0.14402 0.0
C1002 C 0.1132 0.7444 0.14305 0.0
C1003 C 0.11942 0.72086 0.13254 0.0
C1004 C 0.1424 0.71657 0.12309 0.0
C1005 C 0.26739 0.68231 0.18165 0.0
C1006 C 0.26116 0.65718 0.18205 0.0
C1007 C 0.25421 0.69846 0.16314 0.0
C1008 C 0.23431 0.68995 0.14476 0.0
C1009 C 0.22788 0.66475 0.14519 0.0
C1010 C 0.24142 0.64838 0.16344 0.0
C1011 C 0.22074 0.7077 0.12507 0.0
C1012 C 0.19676 0.71205 0.13042 0.0
C1013 C 0.23224 0.72226 0.10329 0.0
C1014 C 0.25716 0.71793 0.09531 0.0
C1015 C 0.26413 0.69454 0.08447 0.0
C1016 C 0.28741 0.69084 0.07593 0.0
C1017 C 0.30389 0.7104 0.07811 0.0
C1018 C 0.29715 0.73368 0.08896 0.0
C1019 C 0.27389 0.73748 0.09749 0.0
H1020 H 0.32188 0.70752 0.0714 0.0
H1021 H 0.09545 0.74765 0.15047 0.0
H1022 H 0.71607 0.62672 0.50917 0.0
H1023 H 0.74999 0.64907 0.53536 0.0
H1024 H 0.70576 0.71254 0.54823 0.0
H1025 H 0.67255 0.69069 0.52068 0.0
H1026 H 0.74476 0.72732 0.53066 0.0
H1027 H 0.7238 0.66889 0.61007 0.0
H1028 H 0.71856 0.62957 0.6369 0.0
H1029 H 0.79062 0.61068 0.6213 0.0
H1030 H 0.79629 0.64982 0.5943 0.0
H1031 H 0.82171 0.79138 0.64921 0.0
H1032 H 0.78711 0.77057 0.62174 0.0
H1033 H 0.8325 0.71298 0.58925 0.0
H1034 H 0.86655 0.7336 0.61501 0.0
H1035 H 0.79355 0.69508 0.6193 0.0
H1036 H 0.81424 0.75222 0.54017 0.0
H1037 H 0.82163 0.79336 0.51904 0.0
H1038 H 0.75049 0.81432 0.53708 0.0
H1039 H 0.7428 0.7734 0.55882 0.0
C1040 C 0.71409 0.64587 0.51638 0.0
C1041 C 0.69207 0.65746 0.51188 0.0
C1042 C 0.7332 0.65833 0.5322 0.0
C1043 C 0.73033 0.68235 0.54439 0.0
C1044 C 0.70847 0.69405 0.53901 0.0
C1045 C 0.68962 0.68182 0.52264 0.0
C1046 C 0.75026 0.69635 0.56081 0.0
C1047 C 0.75506 0.72029 0.55043 0.0
C1048 C 0.76444 0.68689 0.58598 0.0
C1049 C 0.76032 0.66222 0.5996 0.0
C1050 C 0.7384 0.65618 0.61183 0.0
C1051 C 0.73542 0.63398 0.62732 0.0
C1052 C 0.75422 0.61761 0.63073 0.0
C1053 C 0.77604 0.62334 0.61859 0.0
C1054 C 0.77914 0.64554 0.60319 0.0
C1055 C 0.82421 0.77462 0.63552 0.0
C1056 C 0.84676 0.76412 0.63407 0.0
C1057 C 0.80454 0.7627 0.62014 0.0
C1058 C 0.8074 0.74005 0.60405 0.0
C1059 C 0.82999 0.73026 0.60185 0.0
C1060 C 0.84948 0.74233 0.6163 0.0
C1061 C 0.78714 0.72588 0.58949 0.0
C1062 C 0.78274 0.70193 0.59984 0.0
C1063 C 0.77332 0.73513 0.56436 0.0
C1064 C 0.77803 0.75983 0.55148 0.0
C1065 C 0.80026 0.76568 0.53997 0.0
C1066 C 0.80448 0.78895 0.52781 0.0
C1067 C 0.78656 0.80647 0.52679 0.0
C1068 C 0.76437 0.80075 0.53793 0.0
C1069 C 0.76007 0.77752 0.55018 0.0
H1070 H 0.78985 0.82445 0.51731 0.0
H1071 H 0.75188 0.60051 0.64282 0.0
H1072 H 0.86282 0.19915 0.10199 0.0
H1073 H 0.83967 0.21381 0.14535 0.0
H1074 H 0.77501 0.19825 0.08998 0.0
H1075 H 0.79807 0.18379 0.04697 0.0
H1076 H 0.78053 0.24535 0.11558 0.0
H1077 H 0.78454 0.16103 0.14738 0.0
H1078 H 0.80063 0.12108 0.1641 0.0
H1079 H 0.83965 0.1575 0.24097 0.0
H1080 H 0.82391 0.19764 0.22473 0.0
H1081 H 0.69662 0.26368 0.2263 0.0
H1082 H 0.7224 0.2509 0.18592 0.0
H1083 H 0.78309 0.2574 0.2513 0.0
H1084 H 0.75694 0.2694 0.29277 0.0
H1085 H 0.78007 0.21279 0.22238 0.0
H1086 H 0.77602 0.29747 0.1886 0.0
H1087 H 0.75703 0.33625 0.17273 0.0
H1088 H 0.71673 0.29709 0.0991 0.0
H1089 H 0.73536 0.25808 0.1146 0.0
C1090 C 0.84373 0.20033 0.09852 0.0
C1091 C 0.83214 0.19082 0.07096 0.0
C1092 C 0.83057 0.20741 0.12373 0.0
C1093 C 0.8058 0.20587 0.12105 0.0
C1094 C 0.79422 0.19877 0.09257 0.0
C1095 C 0.80736 0.19168 0.06752 0.0
C1096 C 0.792 0.21622 0.14582 0.0
C1097 C 0.78015 0.23807 0.13888 0.0
C1098 C 0.79227 0.20667 0.17619 0.0
C1099 C 0.80324 0.18258 0.18449 0.0
C1100 C 0.79685 0.16064 0.16754 0.0
C1101 C 0.80578 0.13788 0.1771 0.0
C1102 C 0.82119 0.13675 0.20354 0.0
C1103 C 0.82774 0.15837 0.22046 0.0
C1104 C 0.81879 0.18113 0.2111 0.0
C1105 C 0.71546 0.26259 0.23216 0.0
C1106 C 0.72475 0.26663 0.26279 0.0
C1107 C 0.73022 0.25562 0.20892 0.0
C1108 C 0.75456 0.25327 0.21577 0.0
C1109 C 0.76423 0.25901 0.24585 0.0
C1110 C 0.74934 0.26573 0.26939 0.0
C1111 C 0.76915 0.24222 0.19214 0.0
C1112 C 0.78083 0.22013 0.19916 0.0
C1113 C 0.76878 0.25136 0.16166 0.0
C1114 C 0.75705 0.2748 0.15288 0.0
C1115 C 0.76297 0.29709 0.16918 0.0
C1116 C 0.75232 0.31914 0.16018 0.0
C1117 C 0.73569 0.31914 0.13492 0.0
C1118 C 0.72964 0.29708 0.11863 0.0
C1119 C 0.74028 0.27502 0.12747 0.0
H1120 H 0.72749 0.33621 0.12797 0.0
H1121 H 0.82803 0.11915 0.21094 0.0
H1122 H 0.33155 0.34958 0.64369 0.0
H1123 H 0.3081 0.33368 0.68497 0.0
H1124 H 0.25 0.31753 0.61778 0.0
H1125 H 0.27338 0.33482 0.57643 0.0
H1126 H 0.23456 0.34079 0.66745 0.0
H1127 H 0.28618 0.27136 0.65197 0.0
H1128 H 0.32516 0.25208 0.64702 0.0
H1129 H 0.34668 0.27715 0.74003 0.0
H1130 H 0.30793 0.29687 0.74543 0.0
H1131 H 0.16794 0.26568 0.76815 0.0
H1132 H 0.18972 0.28373 0.72612 0.0
H1133 H 0.24768 0.30344 0.79192 0.0
H1134 H 0.22623 0.28537 0.83379 0.0
H1135 H 0.26308 0.27884 0.74306 0.0
H1136 H 0.21288 0.34814 0.75956 0.0
H1137 H 0.17565 0.37081 0.76473 0.0
H1138 H 0.1525 0.34821 0.67137 0.0
H1139 H 0.1895 0.32524 0.66569 0.0
C1140 C 0.31407 0.34188 0.63759 0.0
C1141 C 0.30441 0.34271 0.60689 0.0
C1142 C 0.30061 0.3329 0.66122 0.0
C1143 C 0.27737 0.32407 0.65446 0.0
C1144 C 0.26793 0.32417 0.62348 0.0
C1145 C 0.28134 0.33362 0.59984 0.0
C1146 C 0.26267 0.31582 0.68002 0.0
C1147 C 0.24054 0.32689 0.68367 0.0
C1148 C 0.27102 0.29841 0.70187 0.0
C1149 C 0.29411 0.28575 0.69904 0.0
C1150 C 0.29923 0.27284 0.67136 0.0
C1151 C 0.32131 0.26184 0.66846 0.0
C1152 C 0.33841 0.26344 0.69317 0.0
C1153 C 0.33342 0.27593 0.7209 0.0
C1154 C 0.31137 0.28699 0.72391 0.0
C1155 C 0.18524 0.27403 0.77367 0.0
C1156 C 0.19548 0.27384 0.80425 0.0
C1157 C 0.19759 0.28452 0.74969 0.0
C1158 C 0.22032 0.29498 0.75593 0.0
C1159 C 0.2302 0.29542 0.78658 0.0
C1160 C 0.2179 0.28504 0.81049 0.0
C1161 C 0.23474 0.30349 0.73026 0.0
C1162 C 0.25695 0.2926 0.72672 0.0
C1163 C 0.22651 0.32117 0.7087 0.0
C1164 C 0.20393 0.33465 0.71233 0.0
C1165 C 0.19976 0.34776 0.74023 0.0
C1166 C 0.17872 0.36077 0.74322 0.0
C1167 C 0.16168 0.36089 0.71844 0.0
C1168 C 0.16569 0.34807 0.69058 0.0
C1169 C 0.18672 0.33509 0.68745 0.0
H1170 H 0.14541 0.37095 0.72079 0.0
H1171 H 0.35549 0.25496 0.69085 0.0
H1172 H 0.68842 0.67842 0.4373 0.0
H1173 H 0.7039 0.7062 0.39785 0.0
H1174 H 0.66087 0.66746 0.3258 0.0
H1175 H 0.64515 0.64068 0.36439 0.0
H1176 H 0.71007 0.66711 0.3168 0.0
H1177 H 0.64697 0.72133 0.33905 0.0
H1178 H 0.62246 0.7471 0.37243 0.0
H1179 H 0.68264 0.79424 0.39722 0.0
H1180 H 0.70767 0.76848 0.36434 0.0
H1181 H 0.73491 0.73101 0.18021 0.0
H1182 H 0.71496 0.71172 0.22261 0.0
H1183 H 0.7499 0.76336 0.28873 0.0
H1184 H 0.76946 0.78328 0.24612 0.0
H1185 H 0.70521 0.75743 0.30226 0.0
H1186 H 0.76797 0.70106 0.27691 0.0
H1187 H 0.79086 0.67281 0.24445 0.0
H1188 H 0.72868 0.62745 0.22444 0.0
H1189 H 0.70532 0.65558 0.25647 0.0
C1190 C 0.6819 0.67643 0.41318 0.0
C1191 C 0.66619 0.65703 0.40367 0.0
C1192 C 0.69074 0.69215 0.3907 0.0
C1193 C 0.68384 0.68844 0.35886 0.0
C1194 C 0.66669 0.67039 0.3501 0.0
C1195 C 0.6578 0.65508 0.37224 0.0
C1196 C 0.69595 0.70128 0.33396 0.0
C1197 C 0.70893 0.68685 0.3134 0.0
C1198 C 0.69439 0.72699 0.32987 0.0
C1199 C 0.67933 0.74271 0.34953 0.0
C1200 C 0.65508 0.73702 0.35187 0.0
C1201 C 0.64106 0.75167 0.37066 0.0
C1202 C 0.65101 0.77224 0.38705 0.0
C1203 C 0.67498 0.77826 0.38457 0.0
C1204 C 0.68909 0.76364 0.36584 0.0
C1205 C 0.73847 0.73824 0.20378 0.0
C1206 C 0.75408 0.7585 0.20978 0.0
C1207 C 0.72707 0.7271 0.22807 0.0
C1208 C 0.73128 0.73568 0.25905 0.0
C1209 C 0.74647 0.75625 0.26507 0.0
C1210 C 0.75774 0.76758 0.2407 0.0
C1211 C 0.71973 0.7233 0.28506 0.0
C1212 C 0.70662 0.73773 0.30572 0.0
C1213 C 0.72084 0.69737 0.28898 0.0
C1214 C 0.73478 0.68072 0.26885 0.0
C1215 C 0.75908 0.68525 0.26532 0.0
C1216 C 0.77217 0.66919 0.24706 0.0
C1217 C 0.76122 0.6484 0.23231 0.0
C1218 C 0.73714 0.64359 0.23581 0.0
C1219 C 0.72397 0.6596 0.25404 0.0
H1220 H 0.77139 0.63599 0.21824 0.0
H1221 H 0.64013 0.78356 0.40158 0.0
H1222 H 0.82531 0.15811 0.91841 0.0
H1223 H 0.79941 0.18773 0.89245 0.0
H1224 H 0.76073 0.196 0.97607 0.0
H1225 H 0.78654 0.16561 0.00188 0.0
H1226 H 0.73261 0.18971 0.92379 0.0
H1227 H 0.79837 0.2441 0.95621 0.0
H1228 H 0.83957 0.26013 0.9617 0.0
H1229 H 0.84334 0.25945 0.86207 0.0
H1230 H 0.80218 0.24343 0.85597 0.0
H1231 H 0.66494 0.28946 0.86403 0.0
H1232 H 0.69177 0.26492 0.89712 0.0
H1233 H 0.7367 0.25344 0.81987 0.0
H1234 H 0.70989 0.27769 0.78673 0.0
H1235 H 0.7624 0.26434 0.87291 0.0
H1236 H 0.69945 0.20755 0.83933 0.0
H1237 H 0.65964 0.18826 0.83177 0.0
H1238 H 0.65218 0.19013 0.93081 0.0
H1239 H 0.69183 0.20964 0.93896 0.0
C1240 C 0.81068 0.16556 0.93087 0.0
C1241 C 0.80782 0.15964 0.96223 0.0
C1242 C 0.79644 0.18308 0.91635 0.0
C1243 C 0.77885 0.19485 0.93278 0.0
C1244 C 0.77472 0.1876 0.96331 0.0
C1245 C 0.78912 0.17001 0.97791 0.0
C1246 C 0.76317 0.21266 0.91676 0.0
C1247 C 0.739 0.20642 0.91333 0.0
C1248 C 0.7719 0.23384 0.90202 0.0
C1249 C 0.79719 0.24223 0.90566 0.0
C1250 C 0.80806 0.24707 0.93547 0.0
C1251 C 0.83138 0.25632 0.93869 0.0
C1252 C 0.84409 0.26076 0.91226 0.0
C1253 C 0.83349 0.25599 0.88254 0.0
C1254 C 0.81014 0.24687 0.8792 0.0
C1255 C 0.68072 0.28195 0.8543 0.0
C1256 C 0.68535 0.28531 0.82283 0.0
C1257 C 0.69587 0.26775 0.87308 0.0
C1258 C 0.71599 0.25704 0.86076 0.0
C1259 C 0.72117 0.26138 0.82975 0.0
C1260 C 0.70588 0.27523 0.81087 0.0
C1261 C 0.73178 0.24135 0.8801 0.0
C1262 C 0.75597 0.24789 0.88388 0.0
C1263 C 0.72321 0.22017 0.89483 0.0
C1264 C 0.69848 0.21054 0.88971 0.0
C1265 C 0.68914 0.20431 0.85946 0.0
C1266 C 0.66666 0.19316 0.85508 0.0
C1267 C 0.65335 0.18805 0.88078 0.0
C1268 C 0.66246 0.19416 0.91091 0.0
C1269 C 0.68492 0.2053 0.91541 0.0
H1270 H 0.63601 0.17932 0.87735 0.0
H1271 H 0.86211 0.26791 0.91481 0.0
H1272 H 0.29025 0.31803 0.5148 0.0
H1273 H 0.2676 0.28369 0.48857 0.0
H1274 H 0.33158 0.24146 0.48423 0.0
H1275 H 0.35409 0.27552 0.51056 0.0
H1276 H 0.3063 0.2442 0.42557 0.0
H1277 H 0.29302 0.22614 0.53306 0.0
H1278 H 0.28084 0.23764 0.58576 0.0
H1279 H 0.2105 0.2522 0.54869 0.0
H1280 H 0.22244 0.24136 0.49558 0.0
H1281 H 0.25262 0.12665 0.37509 0.0
H1282 H 0.27687 0.15896 0.40383 0.0
H1283 H 0.21388 0.20156 0.41634 0.0
H1284 H 0.19007 0.16988 0.38724 0.0
H1285 H 0.23982 0.19849 0.47028 0.0
H1286 H 0.25128 0.21661 0.36373 0.0
H1287 H 0.26202 0.20629 0.31011 0.0
H1288 H 0.33386 0.19384 0.34287 0.0
H1289 H 0.32339 0.20345 0.39695 0.0
C1290 C 0.29917 0.30095 0.50963 0.0
C1291 C 0.32379 0.29927 0.51487 0.0
C1292 C 0.2864 0.2816 0.49398 0.0
C1293 C 0.29811 0.26032 0.48376 0.0
C1294 C 0.32235 0.2579 0.49134 0.0
C1295 C 0.33503 0.27708 0.50708 0.0
C1296 C 0.28513 0.24026 0.46565 0.0
C1297 C 0.29192 0.23398 0.43538 0.0
C1298 C 0.26613 0.22737 0.47829 0.0
C1299 C 0.25865 0.23304 0.51032 0.0
C1300 C 0.27498 0.23191 0.53611 0.0
C1301 C 0.26814 0.23835 0.56605 0.0
C1302 C 0.24492 0.24566 0.57057 0.0
C1303 C 0.22849 0.24653 0.54514 0.0
C1304 C 0.23528 0.24025 0.51511 0.0
C1305 C 0.24424 0.14324 0.38349 0.0
C1306 C 0.21971 0.1463 0.37852 0.0
C1307 C 0.25797 0.16151 0.40003 0.0
C1308 C 0.24711 0.18266 0.41223 0.0
C1309 C 0.22259 0.18544 0.40718 0.0
C1310 C 0.20908 0.16756 0.39021 0.0
C1311 C 0.26094 0.20224 0.43015 0.0
C1312 C 0.25427 0.20855 0.4604 0.0
C1313 C 0.27981 0.21531 0.41723 0.0
C1314 C 0.28646 0.21045 0.38455 0.0
C1315 C 0.26933 0.21147 0.3596 0.0
C1316 C 0.27536 0.20572 0.3291 0.0
C1317 C 0.29859 0.19931 0.3231 0.0
C1318 C 0.31585 0.19874 0.34759 0.0
C1319 C 0.30987 0.20432 0.37819 0.0
H1320 H 0.30323 0.19488 0.29947 0.0
H1321 H 0.23965 0.25062 0.59377 0.0
H1322 H 0.16173 0.8334 0.8976 0.0
H1323 H 0.19498 0.81954 0.86881 0.0
H1324 H 0.24169 0.83095 0.95087 0.0
H1325 H 0.20791 0.84692 0.97959 0.0
H1326 H 0.2632 0.84684 0.90021 0.0
H1327 H 0.22293 0.76973 0.921 0.0
H1328 H 0.1874 0.74292 0.92362 0.0
H1329 H 0.17223 0.75034 0.82531 0.0
H1330 H 0.20761 0.77727 0.82212 0.0
H1331 H 0.35018 0.7739 0.81939 0.0
H1332 H 0.32332 0.79238 0.85642 0.0
H1333 H 0.26771 0.79317 0.78375 0.0
H1334 H 0.29433 0.77494 0.74681 0.0
H1335 H 0.25398 0.77018 0.8346 0.0
H1336 H 0.29249 0.84652 0.81205 0.0
H1337 H 0.32647 0.87497 0.80692 0.0
H1338 H 0.34456 0.87039 0.90491 0.0
H1339 H 0.31079 0.84167 0.91061 0.0
C1340 C 0.17895 0.83239 0.90986 0.0
C1341 C 0.18205 0.84077 0.94099 0.0
C1342 C 0.19808 0.8244 0.89332 0.0
C1343 C 0.22098 0.82349 0.90762 0.0
C1344 C 0.22421 0.83121 0.93925 0.0
C1345 C 0.20485 0.83985 0.95585 0.0
C1346 C 0.24101 0.81473 0.8887 0.0
C1347 C 0.26147 0.82979 0.88642 0.0
C1348 C 0.23859 0.79281 0.86982 0.0
C1349 C 0.21792 0.77558 0.87138 0.0
C1350 C 0.21205 0.7656 0.89994 0.0
C1351 C 0.19191 0.7504 0.90152 0.0
C1352 C 0.17754 0.74497 0.87467 0.0
C1353 C 0.18338 0.75455 0.8461 0.0
C1354 C 0.20353 0.76969 0.84437 0.0
C1355 C 0.33227 0.7782 0.8113 0.0
C1356 C 0.3243 0.77272 0.78023 0.0
C1357 C 0.31702 0.78899 0.83241 0.0
C1358 C 0.29348 0.79427 0.82288 0.0
C1359 C 0.28578 0.78934 0.79166 0.0
C1360 C 0.30103 0.77885 0.77055 0.0
C1361 C 0.27601 0.80228 0.84585 0.0
C1362 C 0.25597 0.78705 0.84877 0.0
C1363 C 0.27892 0.82402 0.86494 0.0
C1364 C 0.2992 0.84159 0.86169 0.0
C1365 C 0.3038 0.85137 0.83249 0.0
C1366 C 0.32302 0.86762 0.82948 0.0
C1367 C 0.33774 0.8744 0.85554 0.0
C1368 C 0.33318 0.86507 0.88471 0.0
C1369 C 0.31396 0.84883 0.88785 0.0
H1370 H 0.35262 0.88694 0.85316 0.0
H1371 H 0.16191 0.73331 0.87599 0.0
loop_
_geom_bond_atom_site_label_1
_geom_bond_atom_site_label_2
_geom_bond_distance
_geom_bond_site_symmetry_2
_ccdc_geom_bond_type
Zn0 O6 1.920 . S
Zn0 O12 1.898 . S
Zn0 O15 1.905 . S
Zn1 O9 1.905 . S
Zn1 O10 1.898 . S
Zn1 O18 1.920 . S
Zn2 O5 2.090 . S
Zn2 O8 2.104 1_554 S
Zn2 O11 2.102 1_554 S
Zn2 O13 2.138 . S
Zn2 O14 2.126 . S
Zn2 O17 2.069 1_554 S
C3 O8 1.166 . S
C3 O9 1.182 . S
C4 O10 1.167 . S
C4 O11 1.299 . S
O5 Zn2 2.090 . S
O5 C19 1.305 . S
O6 Zn0 1.920 . S
O6 C19 1.234 . S
C7 O12 1.167 . S
C7 O13 1.299 . S
O8 Zn2 2.104 1_556 S
O8 C3 1.166 . S
O9 Zn1 1.905 . S
O9 C3 1.182 . S
O10 Zn1 1.898 . S
O10 C4 1.167 . S
O11 Zn2 2.102 1_556 S
O11 C4 1.299 . S
O12 Zn0 1.898 . S
O12 C7 1.167 . S
O13 Zn2 2.138 . S
O13 C7 1.299 . S
O14 Zn2 2.126 . S
O14 C16 1.166 . S
O15 Zn0 1.905 . S
O15 C16 1.182 . S
C16 O14 1.166 . S
C16 O15 1.182 . S
O17 Zn2 2.069 1_556 S
O17 C20 1.305 . S
O18 Zn1 1.920 . S
O18 C20 1.234 . S
C19 O5 1.305 . S
C19 O6 1.234 . S
C20 O17 1.305 . S
C20 O18 1.234 . S
Zn21 O27 1.920 . S
Zn21 O33 1.898 . S
Zn21 O36 1.905 . S
Zn22 O30 1.905 . S
Zn22 O31 1.898 . S
Zn22 O39 1.920 . S
Zn23 O26 2.080 . S
Zn23 O29 2.114 . S
Zn23 O32 2.120 . S
Zn23 O34 2.120 . S
Zn23 O35 2.114 . S
Zn23 O38 2.080 . S
C24 O29 1.166 . S
C24 O30 1.182 . S
C25 O31 1.167 . S
C25 O32 1.299 . S
O26 Zn23 2.080 . S
O26 C40 1.305 . S
O27 Zn21 1.920 . S
O27 C40 1.234 . S
C28 O33 1.167 . S
C28 O34 1.299 . S
O29 Zn23 2.114 . S
O29 C24 1.166 . S
O30 Zn22 1.905 . S
O30 C24 1.182 . S
O31 Zn22 1.898 . S
O31 C25 1.167 . S
O32 Zn23 2.120 . S
O32 C25 1.299 . S
O33 Zn21 1.898 . S
O33 C28 1.167 . S
O34 Zn23 2.120 . S
O34 C28 1.299 . S
O35 Zn23 2.114 . S
O35 C37 1.166 . S
O36 Zn21 1.905 . S
O36 C37 1.182 . S
C37 O35 1.166 . S
C37 O36 1.182 . S
O38 Zn23 2.080 . S
O38 C41 1.305 . S
O39 Zn22 1.920 . S
O39 C41 1.234 . S
C40 O26 1.305 . S
C40 O27 1.234 . S
C41 O38 1.305 . S
C41 O39 1.234 . S
Zn42 O48 1.920 . S
Zn42 O54 1.898 . S
Zn42 O57 1.905 . S
Zn43 O51 1.905 . S
Zn43 O52 1.898 . S
Zn43 O60 1.920 . S
Zn44 O47 2.080 1_554 S
Zn44 O50 2.114 . S
Zn44 O53 2.120 . S
Zn44 O55 2.132 . S
Zn44 O56 2.114 1_554 S
Zn44 O59 2.080 . S
C45 O50 1.166 . S
C45 O51 1.182 . S
C46 O52 1.167 . S
C46 O53 1.299 . S
O47 Zn44 2.080 1_556 S
O47 C61 1.305 . S
O48 Zn42 1.920 . S
O48 C61 1.234 . S
C49 O54 1.167 . S
C49 O55 1.277 1_556 S
O50 Zn44 2.114 . S
O50 C45 1.166 . S
O51 Zn43 1.905 . S
O51 C45 1.182 . S
O52 Zn43 1.898 . S
O52 C46 1.167 . S
O53 Zn44 2.120 . S
O53 C46 1.299 . S
O54 Zn42 1.898 . S
O54 C49 1.167 . S
O55 Zn44 2.132 . S
O55 C49 1.277 1_554 S
O56 Zn44 2.114 1_556 S
O56 C58 1.166 . S
O57 Zn42 1.905 . S
O57 C58 1.182 . S
C58 O56 1.166 . S
C58 O57 1.182 . S
O59 Zn44 2.080 . S
O59 C62 1.305 . S
O60 Zn43 1.920 . S
O60 C62 1.234 . S
C61 O47 1.305 . S
C61 O48 1.234 . S
C62 O59 1.305 . S
C62 O60 1.234 . S
Zn63 O69 1.920 . S
Zn63 O75 1.898 . S
Zn63 O78 1.905 . S
Zn64 O72 1.905 . S
Zn64 O73 1.898 . S
Zn64 O81 1.920 . S
Zn65 O68 2.080 . S
Zn65 O71 2.114 . S
Zn65 O74 2.120 . S
Zn65 O76 2.120 . S
Zn65 O77 2.114 . S
Zn65 O80 2.080 . S
C66 O71 1.166 . S
C66 O72 1.182 . S
C67 O73 1.167 . S
C67 O74 1.299 . S
O68 Zn65 2.080 . S
O68 C82 1.305 . S
O69 Zn63 1.920 . S
O69 C82 1.234 . S
C70 O75 1.167 . S
C70 O76 1.299 . S
O71 Zn65 2.114 . S
O71 C66 1.166 . S
O72 Zn64 1.905 . S
O72 C66 1.182 . S
O73 Zn64 1.898 . S
O73 C67 1.167 . S
O74 Zn65 2.120 . S
O74 C67 1.299 . S
O75 Zn63 1.898 . S
O75 C70 1.167 . S
O76 Zn65 2.120 . S
O76 C70 1.299 . S
O77 Zn65 2.114 . S
O77 C79 1.166 . S
O78 Zn63 1.905 . S
O78 C79 1.182 . S
C79 O77 1.166 . S
C79 O78 1.182 . S
O80 Zn65 2.080 . S
O80 C83 1.305 . S
O81 Zn64 1.920 . S
O81 C83 1.234 . S
C82 O68 1.305 . S
C82 O69 1.234 . S
C83 O80 1.305 . S
C83 O81 1.234 . S
O84 Cd85 2.300 . S
O84 C91 1.275 . S
Cd85 O84 2.300 . S
Cd85 O93 2.381 . S
Cd85 O94 2.378 . S
O86 Cd87 2.385 . S
O86 C91 1.255 . S
Cd87 O86 2.385 . S
Cd87 O88 2.317 . S
O88 Cd87 2.317 . S
O88 C89 1.232 . S
C89 O88 1.232 . S
C89 O90 1.218 . S
O90 C89 1.218 . S
C91 O84 1.275 . S
C91 O86 1.255 . S
C92 O93 1.258 . S
C92 O94 1.256 . S
O93 Cd85 2.381 . S
O93 C92 1.258 . S
O94 Cd85 2.378 . S
O94 C92 1.256 . S
O95 Cd96 2.300 . S
O95 C102 1.275 . S
Cd96 O95 2.300 . S
Cd96 O104 2.381 . S
Cd96 O105 2.378 . S
O97 Cd98 2.385 . S
O97 C102 1.255 . S
Cd98 O97 2.385 . S
Cd98 O99 2.317 . S
O99 Cd98 2.317 . S
O99 C100 1.232 . S
C100 O99 1.232 . S
C100 O101 1.218 . S
O101 C100 1.218 . S
C102 O95 1.275 . S
C102 O97 1.255 . S
C103 O104 1.258 . S
C103 O105 1.256 . S
O104 Cd96 2.381 . S
O104 C103 1.258 . S
O105 Cd96 2.378 . S
O105 C103 1.256 . S
O106 Cd107 2.300 . S
O106 C113 1.275 . S
Cd107 O106 2.300 . S
Cd107 O115 2.381 . S
Cd107 O116 2.378 . S
O108 Cd109 2.385 . S
O108 C113 1.255 . S
Cd109 O108 2.385 . S
Cd109 O110 2.317 . S
O110 Cd109 2.317 . S
O110 C111 1.232 . S
C111 O110 1.232 . S
C111 O112 1.218 . S
O112 C111 1.218 . S
C113 O106 1.275 . S
C113 O108 1.255 . S
C114 O115 1.258 . S
C114 O116 1.256 . S
O115 Cd107 2.381 . S
O115 C114 1.258 . S
O116 Cd107 2.378 . S
O116 C114 1.256 . S
O117 Cd118 2.300 . S
O117 C124 1.275 . S
Cd118 O117 2.300 . S
Cd118 O126 2.381 . S
Cd118 O127 2.378 . S
O119 Cd120 2.385 . S
O119 C124 1.255 . S
Cd120 O119 2.385 . S
Cd120 O121 2.317 . S
O121 Cd120 2.317 . S
O121 C122 1.232 . S
C122 O121 1.232 . S
C122 O123 1.218 . S
O123 C122 1.218 . S
C124 O117 1.275 . S
C124 O119 1.255 . S
C125 O126 1.258 . S
C125 O127 1.256 . S
O126 Cd118 2.381 . S
O126 C125 1.258 . S
O127 Cd118 2.378 . S
O127 C125 1.256 . S
O128 Cd129 2.300 . S
O128 C135 1.275 . S
Cd129 O128 2.300 . S
Cd129 O137 2.381 . S
Cd129 O138 2.378 . S
O130 Cd131 2.385 . S
O130 C135 1.255 . S
Cd131 O130 2.385 . S
Cd131 O132 2.317 . S
O132 Cd131 2.317 . S
O132 C133 1.232 . S
C133 O132 1.232 . S
C133 O134 1.218 . S
O134 C133 1.218 . S
C135 O128 1.275 . S
C135 O130 1.255 . S
C136 O137 1.258 . S
C136 O138 1.256 . S
O137 Cd129 2.381 . S
O137 C136 1.258 . S
O138 Cd129 2.378 . S
O138 C136 1.256 . S
O139 Cd140 2.300 . S
O139 C146 1.275 . S
Cd140 O139 2.300 . S
Cd140 O148 2.381 . S
Cd140 O149 2.378 . S
O141 Cd142 2.385 . S
O141 C146 1.255 . S
Cd142 O141 2.385 . S
Cd142 O143 2.317 . S
O143 Cd142 2.317 . S
O143 C144 1.232 . S
C144 O143 1.232 . S
C144 O145 1.218 . S
O145 C144 1.218 . S
C146 O139 1.275 . S
C146 O141 1.255 . S
C147 O148 1.258 . S
C147 O149 1.256 . S
O148 Cd140 2.381 . S
O148 C147 1.258 . S
O149 Cd140 2.378 . S
O149 C147 1.256 . S
O150 Cd151 2.300 . S
O150 C157 1.275 . S
Cd151 O150 2.300 . S
Cd151 O159 2.381 . S
Cd151 O160 2.378 . S
O152 Cd153 2.385 . S
O152 C157 1.255 . S
Cd153 O152 2.385 . S
Cd153 O154 2.317 . S
O154 Cd153 2.317 . S
O154 C155 1.232 . S
C155 O154 1.232 . S
C155 O156 1.218 . S
O156 C155 1.218 . S
C157 O150 1.275 . S
C157 O152 1.255 . S
C158 O159 1.258 . S
C158 O160 1.256 . S
O159 Cd151 2.381 . S
O159 C158 1.258 . S
O160 Cd151 2.378 . S
O160 C158 1.256 . S
O161 Cd162 2.300 . S
O161 C168 1.275 . S
Cd162 O161 2.300 . S
Cd162 O170 2.381 . S
Cd162 O171 2.378 . S
O163 Cd164 2.385 . S
O163 C168 1.255 . S
Cd164 O163 2.385 . S
Cd164 O165 2.317 . S
O165 Cd164 2.317 . S
O165 C166 1.232 . S
C166 O165 1.232 . S
C166 O167 1.218 . S
O167 C166 1.218 . S
C168 O161 1.275 . S
C168 O163 1.255 . S
C169 O170 1.258 . S
C169 O171 1.256 . S
O170 Cd162 2.381 . S
O170 C169 1.258 . S
O171 Cd162 2.378 . S
O171 C169 1.256 . S
H172 C190 0.951 . S
H173 C192 0.951 . S
H174 C194 0.950 . S
H175 C195 0.950 . S
H176 C197 0.950 . S
H177 C200 0.950 . S
H178 C201 0.950 . S
H179 C203 0.950 . S
H180 C204 0.950 . S
H181 C205 0.951 . S
H182 C207 0.951 . S
H183 C209 0.950 . S
H184 C210 0.950 . S
H185 C212 0.964 . S
H186 C215 0.950 . S
H187 C216 0.950 . S
H188 C218 0.950 . S
H189 C219 0.950 . S
C190 H172 0.951 . S
C190 C191 1.366 . S
C190 C192 1.388 . S
C191 C190 1.366 . S
C191 C195 1.385 . S
C192 H173 0.951 . S
C192 C190 1.388 . S
C192 C193 1.366 . S
C193 C192 1.366 . S
C193 C194 1.414 . S
C193 C196 1.499 . S
C194 H174 0.950 . S
C194 C193 1.414 . S
C194 C195 1.374 . S
C195 H175 0.950 . S
C195 C191 1.385 . S
C195 C194 1.374 . S
C196 C193 1.499 . S
C196 C197 1.373 . S
C196 C198 1.389 . S
C197 H176 0.950 . S
C197 C196 1.373 . S
C197 C213 1.377 . S
C198 C196 1.389 . S
C198 C199 1.524 . S
C198 C212 1.366 1_565 S
C199 C198 1.524 . S
C199 C200 1.397 . S
C199 C204 1.363 . S
C200 H177 0.950 . S
C200 C199 1.397 . S
C200 C201 1.334 1_565 S
C201 H178 0.950 . S
C201 C200 1.334 1_545 S
C201 C202 1.287 . S
C202 C201 1.287 . S
C202 C203 1.524 . S
C202 H221 0.913 . S
C203 H179 0.950 . S
C203 C202 1.524 . S
C203 C204 1.415 1_545 S
C204 H180 0.950 . S
C204 C199 1.363 . S
C204 C203 1.415 1_565 S
C205 H181 0.951 . S
C205 C206 1.366 . S
C205 C207 1.388 . S
C206 C205 1.366 . S
C206 C210 1.385 . S
C207 H182 0.951 . S
C207 C205 1.388 . S
C207 C208 1.366 . S
C208 C207 1.366 . S
C208 C209 1.414 . S
C208 C211 1.499 1_545 S
C209 H183 0.950 . S
C209 C208 1.414 . S
C209 C210 1.374 . S
C210 H184 0.950 . S
C210 C206 1.385 . S
C210 C209 1.374 . S
C211 C208 1.499 1_565 S
C211 C212 1.370 1_565 S
C211 C213 1.389 . S
C212 H185 0.964 . S
C212 C198 1.366 1_545 S
C212 C211 1.370 1_545 S
C213 C197 1.377 . S
C213 C211 1.389 . S
C213 C214 1.524 . S
C214 C213 1.524 . S
C214 C215 1.397 . S
C214 C219 1.363 . S
C215 H186 0.950 . S
C215 C214 1.397 . S
C215 C216 1.334 . S
C216 H187 0.950 . S
C216 C215 1.334 . S
C216 C217 1.287 . S
C217 C216 1.287 . S
C217 C218 1.524 . S
C217 H220 0.999 . S
C218 H188 0.950 . S
C218 C217 1.524 . S
C218 C219 1.415 . S
C219 H189 0.950 . S
C219 C214 1.363 . S
C219 C218 1.415 . S
H220 C217 0.999 . S
H221 C202 0.913 . S
H222 C240 0.951 . S
H223 C242 0.951 . S
H224 C244 0.950 . S
H225 C245 0.950 . S
H226 C247 0.950 . S
H227 C250 0.950 . S
H228 C251 0.950 . S
H229 C253 0.950 . S
H230 C254 0.950 . S
H231 C255 0.951 . S
H232 C257 0.951 . S
H233 C259 0.950 . S
H234 C260 0.950 . S
H235 C262 0.950 . S
H236 C265 0.950 . S
H237 C266 0.950 . S
H238 C268 0.950 . S
H239 C269 0.950 . S
C240 H222 0.951 . S
C240 C241 1.366 . S
C240 C242 1.388 . S
C241 C240 1.366 . S
C241 C245 1.385 . S
C242 H223 0.951 . S
C242 C240 1.388 . S
C242 C243 1.366 . S
C243 C242 1.366 . S
C243 C244 1.414 . S
C243 C246 1.499 . S
C244 H224 0.950 . S
C244 C243 1.414 . S
C244 C245 1.374 . S
C245 H225 0.950 . S
C245 C241 1.385 . S
C245 C244 1.374 . S
C246 C243 1.499 . S
C246 C247 1.373 . S
C246 C248 1.389 . S
C247 H226 0.950 . S
C247 C246 1.373 . S
C247 C263 1.377 . S
C248 C246 1.389 . S
C248 C249 1.524 . S
C248 C262 1.377 . S
C249 C248 1.524 . S
C249 C250 1.397 . S
C249 C254 1.363 . S
C250 H227 0.950 . S
C250 C249 1.397 . S
C250 C251 1.334 . S
C251 H228 0.950 . S
C251 C250 1.334 . S
C251 C252 1.287 . S
C252 C251 1.287 . S
C252 C253 1.524 . S
C252 H271 0.913 . S
C253 H229 0.950 . S
C253 C252 1.524 . S
C253 C254 1.415 . S
C254 H230 0.950 . S
C254 C249 1.363 . S
C254 C253 1.415 . S
C255 H231 0.951 . S
C255 C256 1.366 . S
C255 C257 1.388 . S
C256 C255 1.366 . S
C256 C260 1.385 . S
C257 H232 0.951 . S
C257 C255 1.388 . S
C257 C258 1.366 . S
C258 C257 1.366 . S
C258 C259 1.414 . S
C258 C261 1.499 . S
C259 H233 0.950 . S
C259 C258 1.414 . S
C259 C260 1.374 . S
C260 H234 0.950 . S
C260 C256 1.385 . S
C260 C259 1.374 . S
C261 C258 1.499 . S
C261 C262 1.373 . S
C261 C263 1.389 . S
C262 H235 0.950 . S
C262 C248 1.377 . S
C262 C261 1.373 . S
C263 C247 1.377 . S
C263 C261 1.389 . S
C263 C264 1.524 . S
C264 C263 1.524 . S
C264 C265 1.397 . S
C264 C269 1.363 . S
C265 H236 0.950 . S
C265 C264 1.397 . S
C265 C266 1.334 . S
C266 H237 0.950 . S
C266 C265 1.334 . S
C266 C267 1.287 . S
C267 C266 1.287 . S
C267 C268 1.524 . S
C267 H270 0.999 . S
C268 H238 0.950 . S
C268 C267 1.524 . S
C268 C269 1.415 . S
C269 H239 0.950 . S
C269 C264 1.363 . S
C269 C268 1.415 . S
H270 C267 0.999 . S
H271 C252 0.913 . S
H272 C290 0.951 . S
H273 C292 0.951 . S
H274 C294 0.950 . S
H275 C295 0.950 . S
H276 C297 0.950 . S
H277 C300 0.950 . S
H278 C301 0.950 . S
H279 C303 0.949 . S
H280 C304 0.950 . S
H281 C305 0.951 . S
H282 C307 0.951 . S
H283 C309 0.950 . S
H284 C310 0.950 . S
H285 C312 0.950 . S
H286 C315 0.950 . S
H287 C316 0.950 . S
H288 C318 0.950 . S
H289 C319 0.950 . S
C290 H272 0.951 . S
C290 C291 1.366 . S
C290 C292 1.388 . S
C291 C290 1.366 . S
C291 C295 1.385 . S
C292 H273 0.951 . S
C292 C290 1.388 . S
C292 C293 1.366 . S
C293 C292 1.366 . S
C293 C294 1.414 . S
C293 C296 1.499 . S
C294 H274 0.950 . S
C294 C293 1.414 . S
C294 C295 1.374 . S
C295 H275 0.950 . S
C295 C291 1.385 . S
C295 C294 1.374 . S
C296 C293 1.499 . S
C296 C297 1.373 . S
C296 C298 1.389 1_545 S
C297 H276 0.950 . S
C297 C296 1.373 . S
C297 C313 1.377 1_545 S
C298 C296 1.389 1_565 S
C298 C299 1.524 1_565 S
C298 C312 1.377 . S
C299 C298 1.524 1_545 S
C299 C300 1.397 . S
C299 C304 1.363 1_544 S
C300 H277 0.950 . S
C300 C299 1.397 . S
C300 C301 1.334 1_554 S
C301 H278 0.950 . S
C301 C300 1.334 1_556 S
C301 C302 1.287 . S
C302 C301 1.287 . S
C302 C303 1.525 1_545 S
C302 H321 0.913 . S
C303 H279 0.949 . S
C303 C302 1.525 1_565 S
C303 C304 1.414 . S
C304 H280 0.950 . S
C304 C299 1.363 1_566 S
C304 C303 1.414 . S
C305 H281 0.951 . S
C305 C306 1.366 . S
C305 C307 1.388 . S
C306 C305 1.366 . S
C306 C310 1.385 . S
C307 H282 0.951 . S
C307 C305 1.388 . S
C307 C308 1.366 . S
C308 C307 1.366 . S
C308 C309 1.414 . S
C308 C311 1.499 . S
C309 H283 0.950 . S
C309 C308 1.414 . S
C309 C310 1.374 . S
C310 H284 0.950 . S
C310 C306 1.385 . S
C310 C309 1.374 . S
C311 C308 1.499 . S
C311 C312 1.373 . S
C311 C313 1.389 . S
C312 H285 0.950 . S
C312 C298 1.377 . S
C312 C311 1.373 . S
C313 C297 1.377 1_565 S
C313 C311 1.389 . S
C313 C314 1.524 . S
C314 C313 1.524 . S
C314 C315 1.397 . S
C314 C319 1.363 . S
C315 H286 0.950 . S
C315 C314 1.397 . S
C315 C316 1.334 . S
C316 H287 0.950 . S
C316 C315 1.334 . S
C316 C317 1.287 . S
C317 C316 1.287 . S
C317 C318 1.524 . S
C317 H320 0.999 . S
C318 H288 0.950 . S
C318 C317 1.524 . S
C318 C319 1.415 . S
C319 H289 0.950 . S
C319 C314 1.363 . S
C319 C318 1.415 . S
H320 C317 0.999 . S
H321 C302 0.913 . S
H322 C340 0.951 . S
H323 C342 0.951 . S
H324 C344 0.950 . S
H325 C345 0.950 . S
H326 C347 0.950 . S
H327 C350 0.950 . S
H328 C351 0.950 . S
H329 C353 0.950 . S
H330 C354 0.950 . S
H331 C355 0.951 . S
H332 C357 0.951 . S
H333 C359 0.950 . S
H334 C360 0.950 . S
H335 C362 0.950 . S
H336 C365 0.950 . S
H337 C366 0.950 . S
H338 C368 0.950 . S
H339 C369 0.950 . S
C340 H322 0.951 . S
C340 C341 1.366 . S
C340 C342 1.388 . S
C341 C340 1.366 . S
C341 C345 1.385 . S
C342 H323 0.951 . S
C342 C340 1.388 . S
C342 C343 1.366 . S
C343 C342 1.366 . S
C343 C344 1.414 . S
C343 C346 1.499 . S
C344 H324 0.950 . S
C344 C343 1.414 . S
C344 C345 1.374 . S
C345 H325 0.950 . S
C345 C341 1.385 . S
C345 C344 1.374 . S
C346 C343 1.499 . S
C346 C347 1.373 . S
C346 C348 1.389 . S
C347 H326 0.950 . S
C347 C346 1.373 . S
C347 C363 1.377 . S
C348 C346 1.389 . S
C348 C349 1.524 . S
C348 C362 1.377 . S
C349 C348 1.524 . S
C349 C350 1.397 . S
C349 C354 1.363 . S
C350 H327 0.950 . S
C350 C349 1.397 . S
C350 C351 1.334 . S
C351 H328 0.950 . S
C351 C350 1.334 . S
C351 C352 1.287 . S
C352 C351 1.287 . S
C352 C353 1.524 . S
C352 H371 0.913 . S
C353 H329 0.950 . S
C353 C352 1.524 . S
C353 C354 1.415 . S
C354 H330 0.950 . S
C354 C349 1.363 . S
C354 C353 1.415 . S
C355 H331 0.951 . S
C355 C356 1.366 . S
C355 C357 1.388 . S
C356 C355 1.366 . S
C356 C360 1.385 . S
C357 H332 0.951 . S
C357 C355 1.388 . S
C357 C358 1.366 . S
C358 C357 1.366 . S
C358 C359 1.414 . S
C358 C361 1.499 . S
C359 H333 0.950 . S
C359 C358 1.414 . S
C359 C360 1.374 . S
C360 H334 0.950 . S
C360 C356 1.385 . S
C360 C359 1.374 . S
C361 C358 1.499 . S
C361 C362 1.373 . S
C361 C363 1.389 . S
C362 H335 0.950 . S
C362 C348 1.377 . S
C362 C361 1.373 . S
C363 C347 1.377 . S
C363 C361 1.389 . S
C363 C364 1.524 . S
C364 C363 1.524 . S
C364 C365 1.397 . S
C364 C369 1.363 . S
C365 H336 0.950 . S
C365 C364 1.397 . S
C365 C366 1.334 . S
C366 H337 0.950 . S
C366 C365 1.334 . S
C366 C367 1.287 . S
C367 C366 1.287 . S
C367 C368 1.524 . S
C367 H370 0.999 . S
C368 H338 0.950 . S
C368 C367 1.524 . S
C368 C369 1.415 . S
C369 H339 0.950 . S
C369 C364 1.363 . S
C369 C368 1.415 . S
H370 C367 0.999 . S
H371 C352 0.913 . S
H372 C390 0.951 . S
H373 C392 0.951 . S
H374 C394 0.950 . S
H375 C395 0.950 . S
H376 C397 0.950 . S
H377 C400 0.950 . S
H378 C401 0.950 . S
H379 C403 0.950 . S
H380 C404 0.950 . S
H381 C405 0.951 . S
H382 C407 0.951 . S
H383 C409 0.950 . S
H384 C410 0.950 . S
H385 C412 0.950 . S
H386 C415 0.950 . S
H387 C416 0.950 . S
H388 C418 0.950 . S
H389 C419 0.950 . S
C390 H372 0.951 . S
C390 C391 1.366 . S
C390 C392 1.388 . S
C391 C390 1.366 . S
C391 C395 1.385 . S
C392 H373 0.951 . S
C392 C390 1.388 . S
C392 C393 1.366 . S
C393 C392 1.366 . S
C393 C394 1.414 . S
C393 C396 1.499 . S
C394 H374 0.950 . S
C394 C393 1.414 . S
C394 C395 1.374 . S
C395 H375 0.950 . S
C395 C391 1.385 . S
C395 C394 1.374 . S
C396 C393 1.499 . S
C396 C397 1.373 . S
C396 C398 1.389 . S
C397 H376 0.950 . S
C397 C396 1.373 . S
C397 C413 1.377 . S
C398 C396 1.389 . S
C398 C399 1.524 . S
C398 C412 1.377 . S
C399 C398 1.524 . S
C399 C400 1.397 . S
C399 C404 1.363 . S
C400 H377 0.950 . S
C400 C399 1.397 . S
C400 C401 1.334 . S
C401 H378 0.950 . S
C401 C400 1.334 . S
C401 C402 1.287 . S
C402 C401 1.287 . S
C402 C403 1.524 . S
C402 H421 0.913 . S
C403 H379 0.950 . S
C403 C402 1.524 . S
C403 C404 1.415 . S
C404 H380 0.950 . S
C404 C399 1.363 . S
C404 C403 1.415 . S
C405 H381 0.951 . S
C405 C406 1.366 . S
C405 C407 1.388 . S
C406 C405 1.366 . S
C406 C410 1.385 . S
C407 H382 0.951 . S
C407 C405 1.388 . S
C407 C408 1.366 . S
C408 C407 1.366 . S
C408 C409 1.414 . S
C408 C411 1.499 . S
C409 H383 0.950 . S
C409 C408 1.414 . S
C409 C410 1.374 . S
C410 H384 0.950 . S
C410 C406 1.385 . S
C410 C409 1.374 . S
C411 C408 1.499 . S
C411 C412 1.373 . S
C411 C413 1.389 . S
C412 H385 0.950 . S
C412 C398 1.377 . S
C412 C411 1.373 . S
C413 C397 1.377 . S
C413 C411 1.389 . S
C413 C414 1.524 . S
C414 C413 1.524 . S
C414 C415 1.397 . S
C414 C419 1.363 . S
C415 H386 0.950 . S
C415 C414 1.397 . S
C415 C416 1.334 . S
C416 H387 0.950 . S
C416 C415 1.334 . S
C416 C417 1.287 . S
C417 C416 1.287 . S
C417 C418 1.524 . S
C417 H420 0.999 . S
C418 H388 0.950 . S
C418 C417 1.524 . S
C418 C419 1.415 . S
C419 H389 0.950 . S
C419 C414 1.363 . S
C419 C418 1.415 . S
H420 C417 0.999 . S
H421 C402 0.913 . S
H422 C440 0.951 . S
H423 C442 0.951 . S
H424 C444 0.950 . S
H425 C445 0.950 . S
H426 C447 0.950 . S
H427 C450 0.950 . S
H428 C451 0.950 . S
H429 C453 0.950 . S
H430 C454 0.950 1_455 S
H431 C455 0.951 . S
H432 C457 0.951 . S
H433 C459 0.950 . S
H434 C460 0.950 . S
H435 C462 0.950 . S
H436 C465 0.950 . S
H437 C466 0.950 . S
H438 C468 0.950 . S
H439 C469 0.950 1_655 S
C440 H422 0.951 . S
C440 C441 1.366 1_554 S
C440 C442 1.388 . S
C441 C440 1.366 1_556 S
C441 C445 1.385 . S
C442 H423 0.951 . S
C442 C440 1.388 . S
C442 C443 1.366 1_554 S
C443 C442 1.366 1_556 S
C443 C444 1.414 . S
C443 C446 1.499 . S
C444 H424 0.950 . S
C444 C443 1.414 . S
C444 C445 1.374 . S
C445 H425 0.950 . S
C445 C441 1.385 . S
C445 C444 1.374 . S
C446 C443 1.499 . S
C446 C447 1.373 . S
C446 C448 1.389 . S
C447 H426 0.950 . S
C447 C446 1.373 . S
C447 C463 1.377 1_655 S
C448 C446 1.389 . S
C448 C449 1.524 1_556 S
C448 C462 1.377 1_655 S
C449 C448 1.524 1_554 S
C449 C450 1.397 1_554 S
C449 C454 1.363 . S
C450 H427 0.950 . S
C450 C449 1.397 1_556 S
C450 C451 1.334 1_556 S
C451 H428 0.950 . S
C451 C450 1.334 1_554 S
C451 C452 1.287 . S
C452 C451 1.287 . S
C452 C453 1.524 . S
C452 H471 0.913 . S
C453 H429 0.950 . S
C453 C452 1.524 . S
C453 C454 1.415 . S
C454 H430 0.950 1_655 S
C454 C449 1.363 . S
C454 C453 1.415 . S
C455 H431 0.951 . S
C455 C456 1.366 . S
C455 C457 1.388 . S
C456 C455 1.366 . S
C456 C460 1.385 . S
C457 H432 0.951 . S
C457 C455 1.388 . S
C457 C458 1.366 . S
C458 C457 1.366 . S
C458 C459 1.414 . S
C458 C461 1.499 . S
C459 H433 0.950 . S
C459 C458 1.414 . S
C459 C460 1.374 . S
C460 H434 0.950 . S
C460 C456 1.385 . S
C460 C459 1.374 . S
C461 C458 1.499 . S
C461 C462 1.373 . S
C461 C463 1.389 . S
C462 H435 0.950 . S
C462 C448 1.377 1_455 S
C462 C461 1.373 . S
C463 C447 1.377 1_455 S
C463 C461 1.389 . S
C463 C464 1.524 . S
C464 C463 1.524 . S
C464 C465 1.397 . S
C464 C469 1.363 . S
C465 H436 0.950 . S
C465 C464 1.397 . S
C465 C466 1.334 . S
C466 H437 0.950 . S
C466 C465 1.334 . S
C466 C467 1.287 . S
C467 C466 1.287 . S
C467 C468 1.524 . S
C467 H470 0.999 . S
C468 H438 0.950 . S
C468 C467 1.524 . S
C468 C469 1.415 . S
C469 H439 0.950 1_455 S
C469 C464 1.363 . S
C469 C468 1.415 . S
H470 C467 0.999 . S
H471 C452 0.913 . S
H472 C490 0.951 . S
H473 C492 0.951 . S
H474 C494 0.950 . S
H475 C495 0.950 . S
H476 C497 0.950 . S
H477 C500 0.950 . S
H478 C501 0.950 . S
H479 C503 0.950 . S
H480 C504 0.950 . S
H481 C505 0.951 . S
H482 C507 0.951 . S
H483 C509 0.950 . S
H484 C510 0.950 . S
H485 C512 0.950 . S
H486 C515 0.950 . S
H487 C516 0.950 . S
H488 C518 0.950 . S
H489 C519 0.950 . S
C490 H472 0.951 . S
C490 C491 1.366 . S
C490 C492 1.388 . S
C491 C490 1.366 . S
C491 C495 1.385 . S
C492 H473 0.951 . S
C492 C490 1.388 . S
C492 C493 1.366 . S
C493 C492 1.366 . S
C493 C494 1.414 . S
C493 C496 1.499 . S
C494 H474 0.950 . S
C494 C493 1.414 . S
C494 C495 1.374 . S
C495 H475 0.950 . S
C495 C491 1.385 . S
C495 C494 1.374 . S
C496 C493 1.499 . S
C496 C497 1.373 . S
C496 C498 1.389 . S
C497 H476 0.950 . S
C497 C496 1.373 . S
C497 C513 1.377 . S
C498 C496 1.389 . S
C498 C499 1.524 . S
C498 C512 1.377 . S
C499 C498 1.524 . S
C499 C500 1.397 . S
C499 C504 1.363 . S
C500 H477 0.950 . S
C500 C499 1.397 . S
C500 C501 1.334 . S
C501 H478 0.950 . S
C501 C500 1.334 . S
C501 C502 1.287 . S
C502 C501 1.287 . S
C502 C503 1.524 . S
C502 H521 0.913 . S
C503 H479 0.950 . S
C503 C502 1.524 . S
C503 C504 1.415 . S
C504 H480 0.950 . S
C504 C499 1.363 . S
C504 C503 1.415 . S
C505 H481 0.951 . S
C505 C506 1.366 . S
C505 C507 1.388 . S
C506 C505 1.366 . S
C506 C510 1.385 . S
C507 H482 0.951 . S
C507 C505 1.388 . S
C507 C508 1.366 . S
C508 C507 1.366 . S
C508 C509 1.414 . S
C508 C511 1.499 . S
C509 H483 0.950 . S
C509 C508 1.414 . S
C509 C510 1.374 . S
C510 H484 0.950 . S
C510 C506 1.385 . S
C510 C509 1.374 . S
C511 C508 1.499 . S
C511 C512 1.373 . S
C511 C513 1.389 . S
C512 H485 0.950 . S
C512 C498 1.377 . S
C512 C511 1.373 . S
C513 C497 1.377 . S
C513 C511 1.389 . S
C513 C514 1.524 . S
C514 C513 1.524 . S
C514 C515 1.397 . S
C514 C519 1.363 . S
C515 H486 0.950 . S
C515 C514 1.397 . S
C515 C516 1.334 . S
C516 H487 0.950 . S
C516 C515 1.334 . S
C516 C517 1.287 . S
C517 C516 1.287 . S
C517 C518 1.524 . S
C517 H520 0.999 . S
C518 H488 0.950 . S
C518 C517 1.524 . S
C518 C519 1.415 . S
C519 H489 0.950 . S
C519 C514 1.363 . S
C519 C518 1.415 . S
H520 C517 0.999 . S
H521 C502 0.913 . S
H522 C540 0.951 . S
H523 C542 0.951 . S
H524 C544 0.950 . S
H525 C545 0.950 . S
H526 C547 0.950 . S
H527 C550 0.950 . S
H528 C551 0.950 . S
H529 C553 0.950 1_655 S
H530 C554 0.950 1_655 S
H531 C555 0.951 . S
H532 C557 0.951 1_455 S
H533 C559 0.950 . S
H534 C560 0.950 . S
H535 C562 0.950 1_655 S
H536 C565 0.950 . S
H537 C566 0.950 . S
H538 C568 0.950 . S
H539 C569 0.950 . S
C540 H522 0.951 . S
C540 C541 1.366 . S
C540 C542 1.388 . S
C541 C540 1.366 . S
C541 C545 1.385 . S
C542 H523 0.951 . S
C542 C540 1.388 . S
C542 C543 1.366 . S
C543 C542 1.366 . S
C543 C544 1.414 . S
C543 C546 1.499 . S
C544 H524 0.950 . S
C544 C543 1.414 . S
C544 C545 1.374 . S
C545 H525 0.950 . S
C545 C541 1.385 . S
C545 C544 1.374 . S
C546 C543 1.499 . S
C546 C547 1.373 . S
C546 C548 1.389 . S
C547 H526 0.950 . S
C547 C546 1.373 . S
C547 C563 1.377 . S
C548 C546 1.389 . S
C548 C549 1.524 . S
C548 C562 1.377 . S
C549 C548 1.524 . S
C549 C550 1.397 . S
C549 C554 1.363 . S
C550 H527 0.950 . S
C550 C549 1.397 . S
C550 C551 1.334 . S
C551 H528 0.950 . S
C551 C550 1.334 . S
C551 C552 1.287 . S
C552 C551 1.287 . S
C552 C553 1.524 . S
C552 H571 0.913 . S
C553 H529 0.950 1_455 S
C553 C552 1.524 . S
C553 C554 1.415 . S
C554 H530 0.950 1_455 S
C554 C549 1.363 . S
C554 C553 1.415 . S
C555 H531 0.951 . S
C555 C556 1.366 . S
C555 C557 1.388 . S
C556 C555 1.366 . S
C556 C560 1.385 . S
C557 H532 0.951 1_655 S
C557 C555 1.388 . S
C557 C558 1.366 . S
C558 C557 1.366 . S
C558 C559 1.414 . S
C558 C561 1.503 . S
C559 H533 0.950 . S
C559 C558 1.414 . S
C559 C560 1.374 . S
C560 H534 0.950 . S
C560 C556 1.385 . S
C560 C559 1.374 . S
C561 C558 1.503 . S
C561 C562 1.373 1_655 S
C561 C563 1.385 1_655 S
C562 H535 0.950 1_455 S
C562 C548 1.377 . S
C562 C561 1.373 1_455 S
C563 C547 1.377 . S
C563 C561 1.385 1_455 S
C563 C564 1.524 . S
C564 C563 1.524 . S
C564 C565 1.397 1_455 S
C564 C569 1.363 . S
C565 H536 0.950 . S
C565 C564 1.397 1_655 S
C565 C566 1.334 . S
C566 H537 0.950 . S
C566 C565 1.334 . S
C566 C567 1.287 1_655 S
C567 C566 1.287 1_455 S
C567 C568 1.524 . S
C567 H570 0.999 . S
C568 H538 0.950 . S
C568 C567 1.524 . S
C568 C569 1.415 . S
C569 H539 0.950 . S
C569 C564 1.363 . S
C569 C568 1.415 . S
H570 C567 0.999 . S
H571 C552 0.913 . S
H572 C590 0.951 . S
H573 C592 0.951 . S
H574 C594 0.950 . S
H575 C595 0.950 . S
H576 C597 0.950 . S
H577 C600 0.950 . S
H578 C601 0.950 . S
H579 C603 0.950 . S
H580 C604 0.950 . S
H581 C605 0.951 . S
H582 C607 0.951 . S
H583 C609 0.950 . S
H584 C610 0.950 . S
H585 C612 0.950 . S
H586 C615 0.950 . S
H587 C616 0.950 . S
H588 C618 0.950 . S
H589 C619 0.950 . S
C590 H572 0.951 . S
C590 C591 1.366 . S
C590 C592 1.388 . S
C591 C590 1.366 . S
C591 C595 1.385 . S
C592 H573 0.951 . S
C592 C590 1.388 . S
C592 C593 1.366 . S
C593 C592 1.366 . S
C593 C594 1.414 . S
C593 C596 1.499 . S
C594 H574 0.950 . S
C594 C593 1.414 . S
C594 C595 1.374 . S
C595 H575 0.950 . S
C595 C591 1.385 . S
C595 C594 1.374 . S
C596 C593 1.499 . S
C596 C597 1.373 1_545 S
C596 C598 1.389 . S
C597 H576 0.950 . S
C597 C596 1.373 1_565 S
C597 C613 1.377 . S
C598 C596 1.389 . S
C598 C599 1.524 . S
C598 C612 1.377 . S
C599 C598 1.524 . S
C599 C600 1.397 . S
C599 C604 1.363 . S
C600 H577 0.950 . S
C600 C599 1.397 . S
C600 C601 1.334 . S
C601 H578 0.950 . S
C601 C600 1.334 . S
C601 C602 1.287 . S
C602 C601 1.287 . S
C602 C603 1.524 . S
C602 H621 0.913 . S
C603 H579 0.950 . S
C603 C602 1.524 . S
C603 C604 1.415 . S
C604 H580 0.950 . S
C604 C599 1.363 . S
C604 C603 1.415 . S
C605 H581 0.951 . S
C605 C606 1.366 . S
C605 C607 1.388 . S
C606 C605 1.366 . S
C606 C610 1.385 . S
C607 H582 0.951 . S
C607 C605 1.388 . S
C607 C608 1.366 . S
C608 C607 1.366 . S
C608 C609 1.414 . S
C608 C611 1.499 . S
C609 H583 0.950 . S
C609 C608 1.414 . S
C609 C610 1.374 . S
C610 H584 0.950 . S
C610 C606 1.385 . S
C610 C609 1.374 . S
C611 C608 1.499 . S
C611 C612 1.373 1_565 S
C611 C613 1.389 . S
C612 H585 0.950 . S
C612 C598 1.377 . S
C612 C611 1.373 1_545 S
C613 C597 1.377 . S
C613 C611 1.389 . S
C613 C614 1.524 . S
C614 C613 1.524 . S
C614 C615 1.397 . S
C614 C619 1.363 . S
C615 H586 0.950 . S
C615 C614 1.397 . S
C615 C616 1.334 . S
C616 H587 0.950 . S
C616 C615 1.334 . S
C616 C617 1.287 . S
C617 C616 1.287 . S
C617 C618 1.524 . S
C617 H620 0.999 . S
C618 H588 0.950 . S
C618 C617 1.524 . S
C618 C619 1.415 . S
C619 H589 0.950 . S
C619 C614 1.363 . S
C619 C618 1.415 . S
H620 C617 0.999 . S
H621 C602 0.913 . S
H622 C640 0.951 . S
H623 C642 0.951 . S
H624 C644 0.950 . S
H625 C645 0.950 . S
H626 C647 0.950 . S
H627 C650 0.950 . S
H628 C651 0.950 . S
H629 C653 0.950 . S
H630 C654 0.950 . S
H631 C655 0.951 . S
H632 C657 0.951 . S
H633 C659 0.950 . S
H634 C660 0.950 . S
H635 C662 0.950 . S
H636 C665 0.950 . S
H637 C666 0.950 . S
H638 C668 0.950 . S
H639 C669 0.950 . S
C640 H622 0.951 . S
C640 C641 1.366 . S
C640 C642 1.388 . S
C641 C640 1.366 . S
C641 C645 1.385 . S
C642 H623 0.951 . S
C642 C640 1.388 . S
C642 C643 1.366 . S
C643 C642 1.366 . S
C643 C644 1.414 . S
C643 C646 1.499 . S
C644 H624 0.950 . S
C644 C643 1.414 . S
C644 C645 1.374 . S
C645 H625 0.950 . S
C645 C641 1.385 . S
C645 C644 1.374 . S
C646 C643 1.499 . S
C646 C647 1.373 . S
C646 C648 1.389 . S
C647 H626 0.950 . S
C647 C646 1.373 . S
C647 C663 1.377 . S
C648 C646 1.389 . S
C648 C649 1.524 . S
C648 C662 1.377 . S
C649 C648 1.524 . S
C649 C650 1.397 . S
C649 C654 1.363 . S
C650 H627 0.950 . S
C650 C649 1.397 . S
C650 C651 1.334 . S
C651 H628 0.950 . S
C651 C650 1.334 . S
C651 C652 1.287 . S
C652 C651 1.287 . S
C652 C653 1.524 . S
C652 H671 0.913 . S
C653 H629 0.950 . S
C653 C652 1.524 . S
C653 C654 1.415 . S
C654 H630 0.950 . S
C654 C649 1.363 . S
C654 C653 1.415 . S
C655 H631 0.951 . S
C655 C656 1.366 . S
C655 C657 1.388 . S
C656 C655 1.366 . S
C656 C660 1.385 . S
C657 H632 0.951 . S
C657 C655 1.388 . S
C657 C658 1.366 . S
C658 C657 1.366 . S
C658 C659 1.414 . S
C658 C661 1.499 . S
C659 H633 0.950 . S
C659 C658 1.414 . S
C659 C660 1.374 . S
C660 H634 0.950 . S
C660 C656 1.385 . S
C660 C659 1.374 . S
C661 C658 1.499 . S
C661 C662 1.373 . S
C661 C663 1.389 . S
C662 H635 0.950 . S
C662 C648 1.377 . S
C662 C661 1.373 . S
C663 C647 1.377 . S
C663 C661 1.389 . S
C663 C664 1.524 . S
C664 C663 1.524 . S
C664 C665 1.397 . S
C664 C669 1.363 . S
C665 H636 0.950 . S
C665 C664 1.397 . S
C665 C666 1.334 . S
C666 H637 0.950 . S
C666 C665 1.334 . S
C666 C667 1.287 . S
C667 C666 1.287 . S
C667 C668 1.524 . S
C667 H670 0.999 . S
C668 H638 0.950 . S
C668 C667 1.524 . S
C668 C669 1.415 . S
C669 H639 0.950 . S
C669 C664 1.363 . S
C669 C668 1.415 . S
H670 C667 0.999 . S
H671 C652 0.913 . S
H672 C690 0.951 . S
H673 C692 0.951 1_545 S
H674 C694 0.936 1_545 S
H675 C695 0.950 . S
H676 C697 0.950 . S
H677 C700 0.950 . S
H678 C701 0.950 . S
H679 C703 0.950 . S
H680 C704 0.950 . S
H681 C705 0.951 . S
H682 C707 0.951 . S
H683 C709 0.950 . S
H684 C710 0.950 . S
H685 C712 0.950 . S
H686 C715 0.950 . S
H687 C716 0.950 . S
H688 C718 0.950 . S
H689 C719 0.950 . S
C690 H672 0.951 . S
C690 C691 1.366 . S
C690 C692 1.388 . S
C691 C690 1.366 . S
C691 C695 1.385 . S
C692 H673 0.951 1_565 S
C692 C690 1.388 . S
C692 C693 1.366 1_565 S
C693 C692 1.366 1_545 S
C693 C694 1.402 1_545 S
C693 C696 1.499 . S
C694 H674 0.936 1_565 S
C694 C693 1.402 1_565 S
C694 C695 1.401 . S
C695 H675 0.950 . S
C695 C691 1.385 . S
C695 C694 1.401 . S
C696 C693 1.499 . S
C696 C697 1.373 . S
C696 C698 1.389 . S
C697 H676 0.950 . S
C697 C696 1.373 . S
C697 C713 1.377 . S
C698 C696 1.389 . S
C698 C699 1.524 . S
C698 C712 1.377 . S
C699 C698 1.524 . S
C699 C700 1.397 1_556 S
C699 C704 1.363 . S
C700 H677 0.950 . S
C700 C699 1.397 1_554 S
C700 C701 1.334 . S
C701 H678 0.950 . S
C701 C700 1.334 . S
C701 C702 1.287 . S
C702 C701 1.287 . S
C702 C703 1.524 . S
C702 H721 0.913 . S
C703 H679 0.950 . S
C703 C702 1.524 . S
C703 C704 1.415 1_554 S
C704 H680 0.950 . S
C704 C699 1.363 . S
C704 C703 1.415 1_556 S
C705 H681 0.951 . S
C705 C706 1.366 . S
C705 C707 1.388 . S
C706 C705 1.366 . S
C706 C710 1.385 . S
C707 H682 0.951 . S
C707 C705 1.388 . S
C707 C708 1.366 . S
C708 C707 1.366 . S
C708 C709 1.414 . S
C708 C711 1.499 . S
C709 H683 0.950 . S
C709 C708 1.414 . S
C709 C710 1.374 . S
C710 H684 0.950 . S
C710 C706 1.385 . S
C710 C709 1.374 . S
C711 C708 1.499 . S
C711 C712 1.373 . S
C711 C713 1.389 . S
C712 H685 0.950 . S
C712 C698 1.377 . S
C712 C711 1.373 . S
C713 C697 1.377 . S
C713 C711 1.389 . S
C713 C714 1.524 . S
C714 C713 1.524 . S
C714 C715 1.397 . S
C714 C719 1.363 . S
C715 H686 0.950 . S
C715 C714 1.397 . S
C715 C716 1.334 . S
C716 H687 0.950 . S
C716 C715 1.334 . S
C716 C717 1.287 . S
C717 C716 1.287 . S
C717 C718 1.524 . S
C717 H720 0.999 . S
C718 H688 0.950 . S
C718 C717 1.524 . S
C718 C719 1.415 . S
C719 H689 0.950 . S
C719 C714 1.363 . S
C719 C718 1.415 . S
H720 C717 0.999 . S
H721 C702 0.913 . S
H722 C740 0.951 . S
H723 C742 0.951 . S
H724 C744 0.950 . S
H725 C745 0.950 . S
H726 C747 0.950 . S
H727 C750 0.950 . S
H728 C751 0.950 . S
H729 C753 0.950 . S
H730 C754 0.950 . S
H731 C755 0.951 . S
H732 C757 0.951 . S
H733 C759 0.950 . S
H734 C760 0.950 . S
H735 C762 0.950 . S
H736 C765 0.950 . S
H737 C766 0.950 . S
H738 C768 0.950 . S
H739 C769 0.950 . S
C740 H722 0.951 . S
C740 C741 1.366 . S
C740 C742 1.388 . S
C741 C740 1.366 . S
C741 C745 1.385 . S
C742 H723 0.951 . S
C742 C740 1.388 . S
C742 C743 1.366 . S
C743 C742 1.366 . S
C743 C744 1.414 . S
C743 C746 1.499 . S
C744 H724 0.950 . S
C744 C743 1.414 . S
C744 C745 1.374 . S
C745 H725 0.950 . S
C745 C741 1.385 . S
C745 C744 1.374 . S
C746 C743 1.499 . S
C746 C747 1.373 . S
C746 C748 1.389 . S
C747 H726 0.950 . S
C747 C746 1.373 . S
C747 C763 1.377 . S
C748 C746 1.389 . S
C748 C749 1.524 . S
C748 C762 1.377 . S
C749 C748 1.524 . S
C749 C750 1.397 . S
C749 C754 1.363 . S
C750 H727 0.950 . S
C750 C749 1.397 . S
C750 C751 1.334 . S
C751 H728 0.950 . S
C751 C750 1.334 . S
C751 C752 1.287 . S
C752 C751 1.287 . S
C752 C753 1.524 . S
C752 H771 0.913 . S
C753 H729 0.950 . S
C753 C752 1.524 . S
C753 C754 1.415 . S
C754 H730 0.950 . S
C754 C749 1.363 . S
C754 C753 1.415 . S
C755 H731 0.951 . S
C755 C756 1.366 . S
C755 C757 1.388 . S
C756 C755 1.366 . S
C756 C760 1.385 . S
C757 H732 0.951 . S
C757 C755 1.388 . S
C757 C758 1.366 . S
C758 C757 1.366 . S
C758 C759 1.414 . S
C758 C761 1.499 . S
C759 H733 0.950 . S
C759 C758 1.414 . S
C759 C760 1.374 . S
C760 H734 0.950 . S
C760 C756 1.385 . S
C760 C759 1.374 . S
C761 C758 1.499 . S
C761 C762 1.373 . S
C761 C763 1.389 . S
C762 H735 0.950 . S
C762 C748 1.377 . S
C762 C761 1.373 . S
C763 C747 1.377 . S
C763 C761 1.389 . S
C763 C764 1.524 . S
C764 C763 1.524 . S
C764 C765 1.397 . S
C764 C769 1.363 . S
C765 H736 0.950 . S
C765 C764 1.397 . S
C765 C766 1.334 . S
C766 H737 0.950 . S
C766 C765 1.334 . S
C766 C767 1.287 . S
C767 C766 1.287 . S
C767 C768 1.524 . S
C767 H770 0.999 . S
C768 H738 0.950 . S
C768 C767 1.524 . S
C768 C769 1.415 . S
C769 H739 0.950 . S
C769 C764 1.363 . S
C769 C768 1.415 . S
H770 C767 0.999 . S
H771 C752 0.913 . S
H772 C790 0.951 . S
H773 C792 0.951 . S
H774 C794 0.950 . S
H775 C795 0.950 . S
H776 C797 0.950 . S
H777 C800 0.950 . S
H778 C801 0.950 . S
H779 C803 0.950 . S
H780 C804 0.950 . S
H781 C805 0.951 . S
H782 C807 0.951 . S
H783 C809 0.950 . S
H784 C810 0.950 . S
H785 C812 0.950 . S
H786 C815 0.950 . S
H787 C816 0.950 . S
H788 C818 0.950 . S
H789 C819 0.950 . S
C790 H772 0.951 . S
C790 C791 1.366 . S
C790 C792 1.388 . S
C791 C790 1.366 . S
C791 C795 1.385 . S
C792 H773 0.951 . S
C792 C790 1.388 . S
C792 C793 1.366 . S
C793 C792 1.366 . S
C793 C794 1.414 . S
C793 C796 1.499 . S
C794 H774 0.950 . S
C794 C793 1.414 . S
C794 C795 1.374 . S
C795 H775 0.950 . S
C795 C791 1.385 . S
C795 C794 1.374 . S
C796 C793 1.499 . S
C796 C797 1.373 . S
C796 C798 1.389 . S
C797 H776 0.950 . S
C797 C796 1.373 . S
C797 C813 1.377 . S
C798 C796 1.389 . S
C798 C799 1.524 . S
C798 C812 1.377 . S
C799 C798 1.524 . S
C799 C800 1.397 . S
C799 C804 1.363 . S
C800 H777 0.950 . S
C800 C799 1.397 . S
C800 C801 1.334 . S
C801 H778 0.950 . S
C801 C800 1.334 . S
C801 C802 1.287 . S
C802 C801 1.287 . S
C802 C803 1.524 . S
C802 H821 0.913 . S
C803 H779 0.950 . S
C803 C802 1.524 . S
C803 C804 1.415 . S
C804 H780 0.950 . S
C804 C799 1.363 . S
C804 C803 1.415 . S
C805 H781 0.951 . S
C805 C806 1.366 . S
C805 C807 1.388 . S
C806 C805 1.366 . S
C806 C810 1.385 . S
C807 H782 0.951 . S
C807 C805 1.388 . S
C807 C808 1.366 . S
C808 C807 1.366 . S
C808 C809 1.414 . S
C808 C811 1.499 . S
C809 H783 0.950 . S
C809 C808 1.414 . S
C809 C810 1.374 . S
C810 H784 0.950 . S
C810 C806 1.385 . S
C810 C809 1.374 . S
C811 C808 1.499 . S
C811 C812 1.373 . S
C811 C813 1.389 . S
C812 H785 0.950 . S
C812 C798 1.377 . S
C812 C811 1.373 . S
C813 C797 1.377 . S
C813 C811 1.389 . S
C813 C814 1.524 . S
C814 C813 1.524 . S
C814 C815 1.397 . S
C814 C819 1.363 . S
C815 H786 0.950 . S
C815 C814 1.397 . S
C815 C816 1.334 . S
C816 H787 0.950 . S
C816 C815 1.334 . S
C816 C817 1.287 . S
C817 C816 1.287 . S
C817 C818 1.524 . S
C817 H820 0.999 . S
C818 H788 0.950 . S
C818 C817 1.524 . S
C818 C819 1.415 . S
C819 H789 0.950 . S
C819 C814 1.363 . S
C819 C818 1.415 . S
H820 C817 0.999 . S
H821 C802 0.913 . S
H822 C840 0.951 . S
H823 C842 0.951 . S
H824 C844 0.950 1_655 S
H825 C845 0.950 . S
H826 C847 0.950 . S
H827 C850 0.950 . S
H828 C851 0.950 1_556 S
H829 C853 0.946 1_455 S
H830 C854 0.950 . S
H831 C855 0.951 . S
H832 C857 0.951 . S
H833 C859 0.950 . S
H834 C860 0.950 . S
H835 C862 0.950 . S
H836 C865 0.950 . S
H837 C866 0.950 . S
H838 C868 0.950 . S
H839 C869 0.950 . S
C840 H822 0.951 . S
C840 C841 1.366 . S
C840 C842 1.388 . S
C841 C840 1.366 . S
C841 C845 1.385 . S
C842 H823 0.951 . S
C842 C840 1.388 . S
C842 C843 1.366 . S
C843 C842 1.366 . S
C843 C844 1.414 . S
C843 C846 1.499 1_455 S
C844 H824 0.950 1_455 S
C844 C843 1.414 . S
C844 C845 1.374 . S
C845 H825 0.950 . S
C845 C841 1.385 . S
C845 C844 1.374 . S
C846 C843 1.499 1_655 S
C846 C847 1.373 . S
C846 C848 1.389 . S
C847 H826 0.950 . S
C847 C846 1.373 . S
C847 C863 1.377 . S
C848 C846 1.389 . S
C848 C849 1.524 . S
C848 C862 1.377 . S
C849 C848 1.524 . S
C849 C850 1.397 . S
C849 C854 1.363 . S
C850 H827 0.950 . S
C850 C849 1.397 . S
C850 C851 1.334 1_655 S
C851 H828 0.950 1_554 S
C851 C850 1.334 1_455 S
C851 C852 1.287 . S
C852 C851 1.287 . S
C852 C853 1.524 1_455 S
C852 H871 0.913 . S
C853 H829 0.946 1_655 S
C853 C852 1.524 1_655 S
C853 C854 1.415 . S
C854 H830 0.950 . S
C854 C849 1.363 . S
C854 C853 1.415 . S
C855 H831 0.951 . S
C855 C856 1.366 . S
C855 C857 1.388 . S
C856 C855 1.366 . S
C856 C860 1.385 . S
C857 H832 0.951 . S
C857 C855 1.388 . S
C857 C858 1.366 . S
C858 C857 1.366 . S
C858 C859 1.414 . S
C858 C861 1.499 . S
C859 H833 0.950 . S
C859 C858 1.414 . S
C859 C860 1.374 . S
C860 H834 0.950 . S
C860 C856 1.385 . S
C860 C859 1.374 . S
C861 C858 1.499 . S
C861 C862 1.373 . S
C861 C863 1.389 . S
C862 H835 0.950 . S
C862 C848 1.377 . S
C862 C861 1.373 . S
C863 C847 1.377 . S
C863 C861 1.389 . S
C863 C864 1.524 . S
C864 C863 1.524 . S
C864 C865 1.397 . S
C864 C869 1.363 . S
C865 H836 0.950 . S
C865 C864 1.397 . S
C865 C866 1.334 . S
C866 H837 0.950 . S
C866 C865 1.334 . S
C866 C867 1.287 . S
C867 C866 1.287 . S
C867 C868 1.524 . S
C867 H870 0.999 . S
C868 H838 0.950 . S
C868 C867 1.524 . S
C868 C869 1.415 . S
C869 H839 0.950 . S
C869 C864 1.363 . S
C869 C868 1.415 . S
H870 C867 0.999 . S
H871 C852 0.913 . S
H872 C890 0.951 . S
H873 C892 0.951 . S
H874 C894 0.950 . S
H875 C895 0.950 . S
H876 C897 0.950 . S
H877 C900 0.950 . S
H878 C901 0.950 . S
H879 C903 0.950 . S
H880 C904 0.950 . S
H881 C905 0.951 . S
H882 C907 0.951 . S
H883 C909 0.950 . S
H884 C910 0.950 . S
H885 C912 0.950 . S
H886 C915 0.950 . S
H887 C916 0.950 . S
H888 C918 0.950 . S
H889 C919 0.950 . S
C890 H872 0.951 . S
C890 C891 1.366 . S
C890 C892 1.388 . S
C891 C890 1.366 . S
C891 C895 1.385 . S
C892 H873 0.951 . S
C892 C890 1.388 . S
C892 C893 1.366 . S
C893 C892 1.366 . S
C893 C894 1.414 . S
C893 C896 1.499 . S
C894 H874 0.950 . S
C894 C893 1.414 . S
C894 C895 1.374 . S
C895 H875 0.950 . S
C895 C891 1.385 . S
C895 C894 1.374 . S
C896 C893 1.499 . S
C896 C897 1.373 . S
C896 C898 1.389 . S
C897 H876 0.950 . S
C897 C896 1.373 . S
C897 C913 1.377 . S
C898 C896 1.389 . S
C898 C899 1.524 . S
C898 C912 1.377 . S
C899 C898 1.524 . S
C899 C900 1.397 . S
C899 C904 1.363 . S
C900 H877 0.950 . S
C900 C899 1.397 . S
C900 C901 1.334 . S
C901 H878 0.950 . S
C901 C900 1.334 . S
C901 C902 1.287 . S
C902 C901 1.287 . S
C902 C903 1.524 . S
C902 H921 0.913 . S
C903 H879 0.950 . S
C903 C902 1.524 . S
C903 C904 1.415 . S
C904 H880 0.950 . S
C904 C899 1.363 . S
C904 C903 1.415 . S
C905 H881 0.951 . S
C905 C906 1.366 . S
C905 C907 1.388 . S
C906 C905 1.366 . S
C906 C910 1.385 . S
C907 H882 0.951 . S
C907 C905 1.388 . S
C907 C908 1.366 . S
C908 C907 1.366 . S
C908 C909 1.414 . S
C908 C911 1.499 . S
C909 H883 0.950 . S
C909 C908 1.414 . S
C909 C910 1.374 . S
C910 H884 0.950 . S
C910 C906 1.385 . S
C910 C909 1.374 . S
C911 C908 1.499 . S
C911 C912 1.373 . S
C911 C913 1.389 . S
C912 H885 0.950 . S
C912 C898 1.377 . S
C912 C911 1.373 . S
C913 C897 1.377 . S
C913 C911 1.389 . S
C913 C914 1.524 . S
C914 C913 1.524 . S
C914 C915 1.397 . S
C914 C919 1.363 . S
C915 H886 0.950 . S
C915 C914 1.397 . S
C915 C916 1.334 . S
C916 H887 0.950 . S
C916 C915 1.334 . S
C916 C917 1.287 . S
C917 C916 1.287 . S
C917 C918 1.524 . S
C917 H920 0.999 . S
C918 H888 0.950 . S
C918 C917 1.524 . S
C918 C919 1.415 . S
C919 H889 0.950 . S
C919 C914 1.363 . S
C919 C918 1.415 . S
H920 C917 0.999 . S
H921 C902 0.913 . S
H922 C940 0.951 . S
H923 C942 0.951 . S
H924 C944 0.950 . S
H925 C945 0.950 . S
H926 C947 0.950 . S
H927 C950 0.950 . S
H928 C951 0.950 . S
H929 C953 0.950 . S
H930 C954 0.950 . S
H931 C955 0.951 . S
H932 C957 0.951 . S
H933 C959 0.950 . S
H934 C960 0.950 . S
H935 C962 0.950 . S
H936 C965 0.950 . S
H937 C966 0.950 . S
H938 C968 0.950 . S
H939 C969 0.950 . S
C940 H922 0.951 . S
C940 C941 1.366 . S
C940 C942 1.388 . S
C941 C940 1.366 . S
C941 C945 1.385 . S
C942 H923 0.951 . S
C942 C940 1.388 . S
C942 C943 1.366 . S
C943 C942 1.366 . S
C943 C944 1.414 . S
C943 C946 1.499 . S
C944 H924 0.950 . S
C944 C943 1.414 . S
C944 C945 1.374 . S
C945 H925 0.950 . S
C945 C941 1.385 . S
C945 C944 1.374 . S
C946 C943 1.499 . S
C946 C947 1.373 . S
C946 C948 1.389 1_655 S
C947 H926 0.950 . S
C947 C946 1.373 . S
C947 C963 1.377 1_655 S
C948 C946 1.389 1_455 S
C948 C949 1.524 . S
C948 C962 1.377 . S
C949 C948 1.524 . S
C949 C950 1.397 1_455 S
C949 C954 1.363 . S
C950 H927 0.950 . S
C950 C949 1.397 1_655 S
C950 C951 1.334 . S
C951 H928 0.950 . S
C951 C950 1.334 . S
C951 C952 1.287 1_655 S
C952 C951 1.287 1_455 S
C952 C953 1.524 . S
C952 H971 0.913 . S
C953 H929 0.950 . S
C953 C952 1.524 . S
C953 C954 1.415 . S
C954 H930 0.950 . S
C954 C949 1.363 . S
C954 C953 1.415 . S
C955 H931 0.951 . S
C955 C956 1.366 . S
C955 C957 1.388 . S
C956 C955 1.366 . S
C956 C960 1.385 . S
C957 H932 0.951 . S
C957 C955 1.388 . S
C957 C958 1.366 . S
C958 C957 1.366 . S
C958 C959 1.414 . S
C958 C961 1.499 . S
C959 H933 0.950 . S
C959 C958 1.414 . S
C959 C960 1.374 . S
C960 H934 0.950 . S
C960 C956 1.385 . S
C960 C959 1.374 . S
C961 C958 1.499 . S
C961 C962 1.373 . S
C961 C963 1.389 . S
C962 H935 0.950 . S
C962 C948 1.377 . S
C962 C961 1.373 . S
C963 C947 1.377 1_455 S
C963 C961 1.389 . S
C963 C964 1.524 . S
C964 C963 1.524 . S
C964 C965 1.397 . S
C964 C969 1.363 1_455 S
C965 H936 0.950 . S
C965 C964 1.397 . S
C965 C966 1.334 . S
C966 H937 0.950 . S
C966 C965 1.334 . S
C966 C967 1.287 . S
C967 C966 1.287 . S
C967 C968 1.524 1_455 S
C967 H970 0.999 . S
C968 H938 0.950 . S
C968 C967 1.524 1_655 S
C968 C969 1.415 . S
C969 H939 0.950 . S
C969 C964 1.363 1_655 S
C969 C968 1.415 . S
H970 C967 0.999 . S
H971 C952 0.913 . S
H972 C990 0.951 . S
H973 C992 0.951 . S
H974 C994 0.950 . S
H975 C995 0.950 . S
H976 C997 0.950 . S
H977 C1000 0.950 . S
H978 C1001 0.950 . S
H979 C1003 0.950 . S
H980 C1004 0.950 . S
H981 C1005 0.951 . S
H982 C1007 0.951 . S
H983 C1009 0.950 . S
H984 C1010 0.950 . S
H985 C1012 0.950 . S
H986 C1015 0.950 . S
H987 C1016 0.950 . S
H988 C1018 0.950 . S
H989 C1019 0.950 . S
C990 H972 0.951 . S
C990 C991 1.366 . S
C990 C992 1.388 . S
C991 C990 1.366 . S
C991 C995 1.385 . S
C992 H973 0.951 . S
C992 C990 1.388 . S
C992 C993 1.366 . S
C993 C992 1.366 . S
C993 C994 1.414 . S
C993 C996 1.499 . S
C994 H974 0.950 . S
C994 C993 1.414 . S
C994 C995 1.374 . S
C995 H975 0.950 . S
C995 C991 1.385 . S
C995 C994 1.374 . S
C996 C993 1.499 . S
C996 C997 1.373 . S
C996 C998 1.389 . S
C997 H976 0.950 . S
C997 C996 1.373 . S
C997 C1013 1.377 . S
C998 C996 1.389 . S
C998 C999 1.524 . S
C998 C1012 1.377 . S
C999 C998 1.524 . S
C999 C1000 1.397 . S
C999 C1004 1.363 . S
C1000 H977 0.950 . S
C1000 C999 1.397 . S
C1000 C1001 1.334 . S
C1001 H978 0.950 . S
C1001 C1000 1.334 . S
C1001 C1002 1.287 . S
C1002 C1001 1.287 . S
C1002 C1003 1.524 . S
C1002 H1021 0.913 . S
C1003 H979 0.950 . S
C1003 C1002 1.524 . S
C1003 C1004 1.415 . S
C1004 H980 0.950 . S
C1004 C999 1.363 . S
C1004 C1003 1.415 . S
C1005 H981 0.951 . S
C1005 C1006 1.366 . S
C1005 C1007 1.388 . S
C1006 C1005 1.366 . S
C1006 C1010 1.385 . S
C1007 H982 0.951 . S
C1007 C1005 1.388 . S
C1007 C1008 1.366 . S
C1008 C1007 1.366 . S
C1008 C1009 1.414 . S
C1008 C1011 1.499 . S
C1009 H983 0.950 . S
C1009 C1008 1.414 . S
C1009 C1010 1.374 . S
C1010 H984 0.950 . S
C1010 C1006 1.385 . S
C1010 C1009 1.374 . S
C1011 C1008 1.499 . S
C1011 C1012 1.373 . S
C1011 C1013 1.389 . S
C1012 H985 0.950 . S
C1012 C998 1.377 . S
C1012 C1011 1.373 . S
C1013 C997 1.377 . S
C1013 C1011 1.389 . S
C1013 C1014 1.524 . S
C1014 C1013 1.524 . S
C1014 C1015 1.397 . S
C1014 C1019 1.363 . S
C1015 H986 0.950 . S
C1015 C1014 1.397 . S
C1015 C1016 1.334 . S
C1016 H987 0.950 . S
C1016 C1015 1.334 . S
C1016 C1017 1.287 . S
C1017 C1016 1.287 . S
C1017 C1018 1.524 . S
C1017 H1020 0.999 . S
C1018 H988 0.950 . S
C1018 C1017 1.524 . S
C1018 C1019 1.415 . S
C1019 H989 0.950 . S
C1019 C1014 1.363 . S
C1019 C1018 1.415 . S
H1020 C1017 0.999 . S
H1021 C1002 0.913 . S
H1022 C1040 0.951 . S
H1023 C1042 0.951 . S
H1024 C1044 0.950 . S
H1025 C1045 0.950 . S
H1026 C1047 0.950 . S
H1027 C1050 0.950 . S
H1028 C1051 0.950 . S
H1029 C1053 0.950 . S
H1030 C1054 0.950 . S
H1031 C1055 0.951 . S
H1032 C1057 0.951 . S
H1033 C1059 0.950 . S
H1034 C1060 0.950 . S
H1035 C1062 0.950 . S
H1036 C1065 0.950 . S
H1037 C1066 0.950 . S
H1038 C1068 0.950 . S
H1039 C1069 0.950 . S
C1040 H1022 0.951 . S
C1040 C1041 1.366 . S
C1040 C1042 1.388 . S
C1041 C1040 1.366 . S
C1041 C1045 1.385 . S
C1042 H1023 0.951 . S
C1042 C1040 1.388 . S
C1042 C1043 1.366 . S
C1043 C1042 1.366 . S
C1043 C1044 1.414 . S
C1043 C1046 1.499 . S
C1044 H1024 0.950 . S
C1044 C1043 1.414 . S
C1044 C1045 1.374 . S
C1045 H1025 0.950 . S
C1045 C1041 1.385 . S
C1045 C1044 1.374 . S
C1046 C1043 1.499 . S
C1046 C1047 1.373 . S
C1046 C1048 1.389 . S
C1047 H1026 0.950 . S
C1047 C1046 1.373 . S
C1047 C1063 1.377 . S
C1048 C1046 1.389 . S
C1048 C1049 1.524 . S
C1048 C1062 1.377 . S
C1049 C1048 1.524 . S
C1049 C1050 1.397 . S
C1049 C1054 1.363 . S
C1050 H1027 0.950 . S
C1050 C1049 1.397 . S
C1050 C1051 1.334 . S
C1051 H1028 0.950 . S
C1051 C1050 1.334 . S
C1051 C1052 1.287 . S
C1052 C1051 1.287 . S
C1052 C1053 1.524 . S
C1052 H1071 0.913 . S
C1053 H1029 0.950 . S
C1053 C1052 1.524 . S
C1053 C1054 1.415 . S
C1054 H1030 0.950 . S
C1054 C1049 1.363 . S
C1054 C1053 1.415 . S
C1055 H1031 0.951 . S
C1055 C1056 1.366 . S
C1055 C1057 1.388 . S
C1056 C1055 1.366 . S
C1056 C1060 1.385 . S
C1057 H1032 0.951 . S
C1057 C1055 1.388 . S
C1057 C1058 1.366 . S
C1058 C1057 1.366 . S
C1058 C1059 1.414 . S
C1058 C1061 1.499 . S
C1059 H1033 0.950 . S
C1059 C1058 1.414 . S
C1059 C1060 1.374 . S
C1060 H1034 0.950 . S
C1060 C1056 1.385 . S
C1060 C1059 1.374 . S
C1061 C1058 1.499 . S
C1061 C1062 1.373 . S
C1061 C1063 1.389 . S
C1062 H1035 0.950 . S
C1062 C1048 1.377 . S
C1062 C1061 1.373 . S
C1063 C1047 1.377 . S
C1063 C1061 1.389 . S
C1063 C1064 1.524 . S
C1064 C1063 1.524 . S
C1064 C1065 1.397 . S
C1064 C1069 1.363 . S
C1065 H1036 0.950 . S
C1065 C1064 1.397 . S
C1065 C1066 1.334 . S
C1066 H1037 0.950 . S
C1066 C1065 1.334 . S
C1066 C1067 1.287 . S
C1067 C1066 1.287 . S
C1067 C1068 1.524 . S
C1067 H1070 0.999 . S
C1068 H1038 0.950 . S
C1068 C1067 1.524 . S
C1068 C1069 1.415 . S
C1069 H1039 0.950 . S
C1069 C1064 1.363 . S
C1069 C1068 1.415 . S
H1070 C1067 0.999 . S
H1071 C1052 0.913 . S
H1072 C1090 0.951 . S
H1073 C1092 0.951 . S
H1074 C1094 0.950 . S
H1075 C1095 0.950 . S
H1076 C1097 0.950 . S
H1077 C1100 0.950 . S
H1078 C1101 0.950 . S
H1079 C1103 0.950 . S
H1080 C1104 0.950 . S
H1081 C1105 0.951 . S
H1082 C1107 0.951 . S
H1083 C1109 0.950 . S
H1084 C1110 0.950 . S
H1085 C1112 0.950 . S
H1086 C1115 0.950 . S
H1087 C1116 0.950 . S
H1088 C1118 0.950 . S
H1089 C1119 0.950 . S
C1090 H1072 0.951 . S
C1090 C1091 1.366 . S
C1090 C1092 1.388 . S
C1091 C1090 1.366 . S
C1091 C1095 1.385 . S
C1092 H1073 0.951 . S
C1092 C1090 1.388 . S
C1092 C1093 1.366 . S
C1093 C1092 1.366 . S
C1093 C1094 1.414 . S
C1093 C1096 1.499 . S
C1094 H1074 0.950 . S
C1094 C1093 1.414 . S
C1094 C1095 1.374 . S
C1095 H1075 0.950 . S
C1095 C1091 1.385 . S
C1095 C1094 1.374 . S
C1096 C1093 1.499 . S
C1096 C1097 1.373 . S
C1096 C1098 1.389 . S
C1097 H1076 0.950 . S
C1097 C1096 1.373 . S
C1097 C1113 1.377 . S
C1098 C1096 1.389 . S
C1098 C1099 1.524 . S
C1098 C1112 1.377 . S
C1099 C1098 1.524 . S
C1099 C1100 1.397 . S
C1099 C1104 1.363 . S
C1100 H1077 0.950 . S
C1100 C1099 1.397 . S
C1100 C1101 1.334 . S
C1101 H1078 0.950 . S
C1101 C1100 1.334 . S
C1101 C1102 1.287 . S
C1102 C1101 1.287 . S
C1102 C1103 1.524 . S
C1102 H1121 0.913 . S
C1103 H1079 0.950 . S
C1103 C1102 1.524 . S
C1103 C1104 1.415 . S
C1104 H1080 0.950 . S
C1104 C1099 1.363 . S
C1104 C1103 1.415 . S
C1105 H1081 0.951 . S
C1105 C1106 1.366 . S
C1105 C1107 1.388 . S
C1106 C1105 1.366 . S
C1106 C1110 1.385 . S
C1107 H1082 0.951 . S
C1107 C1105 1.388 . S
C1107 C1108 1.366 . S
C1108 C1107 1.366 . S
C1108 C1109 1.414 . S
C1108 C1111 1.499 . S
C1109 H1083 0.950 . S
C1109 C1108 1.414 . S
C1109 C1110 1.374 . S
C1110 H1084 0.950 . S
C1110 C1106 1.385 . S
C1110 C1109 1.374 . S
C1111 C1108 1.499 . S
C1111 C1112 1.373 . S
C1111 C1113 1.389 . S
C1112 H1085 0.950 . S
C1112 C1098 1.377 . S
C1112 C1111 1.373 . S
C1113 C1097 1.377 . S
C1113 C1111 1.389 . S
C1113 C1114 1.524 . S
C1114 C1113 1.524 . S
C1114 C1115 1.397 . S
C1114 C1119 1.363 . S
C1115 H1086 0.950 . S
C1115 C1114 1.397 . S
C1115 C1116 1.334 . S
C1116 H1087 0.950 . S
C1116 C1115 1.334 . S
C1116 C1117 1.287 . S
C1117 C1116 1.287 . S
C1117 C1118 1.524 . S
C1117 H1120 0.999 . S
C1118 H1088 0.950 . S
C1118 C1117 1.524 . S
C1118 C1119 1.415 . S
C1119 H1089 0.950 . S
C1119 C1114 1.363 . S
C1119 C1118 1.415 . S
H1120 C1117 0.999 . S
H1121 C1102 0.913 . S
H1122 C1140 0.951 . S
H1123 C1142 0.951 . S
H1124 C1144 0.950 . S
H1125 C1145 0.950 . S
H1126 C1147 0.950 . S
H1127 C1150 0.950 . S
H1128 C1151 0.950 . S
H1129 C1153 0.950 . S
H1130 C1154 0.950 . S
H1131 C1155 0.951 . S
H1132 C1157 0.951 . S
H1133 C1159 0.950 . S
H1134 C1160 0.950 . S
H1135 C1162 0.950 . S
H1136 C1165 0.950 . S
H1137 C1166 0.950 . S
H1138 C1168 0.950 . S
H1139 C1169 0.950 . S
C1140 H1122 0.951 . S
C1140 C1141 1.366 . S
C1140 C1142 1.388 . S
C1141 C1140 1.366 . S
C1141 C1145 1.385 . S
C1142 H1123 0.951 . S
C1142 C1140 1.388 . S
C1142 C1143 1.366 . S
C1143 C1142 1.366 . S
C1143 C1144 1.414 . S
C1143 C1146 1.499 . S
C1144 H1124 0.950 . S
C1144 C1143 1.414 . S
C1144 C1145 1.374 . S
C1145 H1125 0.950 . S
C1145 C1141 1.385 . S
C1145 C1144 1.374 . S
C1146 C1143 1.499 . S
C1146 C1147 1.373 . S
C1146 C1148 1.389 . S
C1147 H1126 0.950 . S
C1147 C1146 1.373 . S
C1147 C1163 1.377 . S
C1148 C1146 1.389 . S
C1148 C1149 1.524 . S
C1148 C1162 1.377 . S
C1149 C1148 1.524 . S
C1149 C1150 1.397 . S
C1149 C1154 1.363 . S
C1150 H1127 0.950 . S
C1150 C1149 1.397 . S
C1150 C1151 1.334 . S
C1151 H1128 0.950 . S
C1151 C1150 1.334 . S
C1151 C1152 1.287 . S
C1152 C1151 1.287 . S
C1152 C1153 1.524 . S
C1152 H1171 0.913 . S
C1153 H1129 0.950 . S
C1153 C1152 1.524 . S
C1153 C1154 1.415 . S
C1154 H1130 0.950 . S
C1154 C1149 1.363 . S
C1154 C1153 1.415 . S
C1155 H1131 0.951 . S
C1155 C1156 1.366 . S
C1155 C1157 1.388 . S
C1156 C1155 1.366 . S
C1156 C1160 1.385 . S
C1157 H1132 0.951 . S
C1157 C1155 1.388 . S
C1157 C1158 1.366 . S
C1158 C1157 1.366 . S
C1158 C1159 1.414 . S
C1158 C1161 1.499 . S
C1159 H1133 0.950 . S
C1159 C1158 1.414 . S
C1159 C1160 1.374 . S
C1160 H1134 0.950 . S
C1160 C1156 1.385 . S
C1160 C1159 1.374 . S
C1161 C1158 1.499 . S
C1161 C1162 1.373 . S
C1161 C1163 1.389 . S
C1162 H1135 0.950 . S
C1162 C1148 1.377 . S
C1162 C1161 1.373 . S
C1163 C1147 1.377 . S
C1163 C1161 1.389 . S
C1163 C1164 1.524 . S
C1164 C1163 1.524 . S
C1164 C1165 1.397 . S
C1164 C1169 1.363 . S
C1165 H1136 0.950 . S
C1165 C1164 1.397 . S
C1165 C1166 1.334 . S
C1166 H1137 0.950 . S
C1166 C1165 1.334 . S
C1166 C1167 1.287 . S
C1167 C1166 1.287 . S
C1167 C1168 1.524 . S
C1167 H1170 0.999 . S
C1168 H1138 0.950 . S
C1168 C1167 1.524 . S
C1168 C1169 1.415 . S
C1169 H1139 0.950 . S
C1169 C1164 1.363 . S
C1169 C1168 1.415 . S
H1170 C1167 0.999 . S
H1171 C1152 0.913 . S
H1172 C1190 0.951 . S
H1173 C1192 0.951 . S
H1174 C1194 0.950 . S
H1175 C1195 0.950 . S
H1176 C1197 0.950 . S
H1177 C1200 0.950 . S
H1178 C1201 0.950 . S
H1179 C1203 0.950 . S
H1180 C1204 0.950 . S
H1181 C1205 0.951 . S
H1182 C1207 0.951 . S
H1183 C1209 0.950 . S
H1184 C1210 0.950 . S
H1185 C1212 0.950 . S
H1186 C1215 0.950 . S
H1187 C1216 0.950 . S
H1188 C1218 0.950 . S
H1189 C1219 0.950 . S
C1190 H1172 0.951 . S
C1190 C1191 1.366 . S
C1190 C1192 1.388 . S
C1191 C1190 1.366 . S
C1191 C1195 1.385 . S
C1192 H1173 0.951 . S
C1192 C1190 1.388 . S
C1192 C1193 1.366 . S
C1193 C1192 1.366 . S
C1193 C1194 1.414 . S
C1193 C1196 1.499 . S
C1194 H1174 0.950 . S
C1194 C1193 1.414 . S
C1194 C1195 1.374 . S
C1195 H1175 0.950 . S
C1195 C1191 1.385 . S
C1195 C1194 1.374 . S
C1196 C1193 1.499 . S
C1196 C1197 1.373 . S
C1196 C1198 1.389 . S
C1197 H1176 0.950 . S
C1197 C1196 1.373 . S
C1197 C1213 1.377 . S
C1198 C1196 1.389 . S
C1198 C1199 1.524 . S
C1198 C1212 1.377 . S
C1199 C1198 1.524 . S
C1199 C1200 1.397 . S
C1199 C1204 1.363 . S
C1200 H1177 0.950 . S
C1200 C1199 1.397 . S
C1200 C1201 1.334 . S
C1201 H1178 0.950 . S
C1201 C1200 1.334 . S
C1201 C1202 1.287 . S
C1202 C1201 1.287 . S
C1202 C1203 1.524 . S
C1202 H1221 0.913 . S
C1203 H1179 0.950 . S
C1203 C1202 1.524 . S
C1203 C1204 1.415 . S
C1204 H1180 0.950 . S
C1204 C1199 1.363 . S
C1204 C1203 1.415 . S
C1205 H1181 0.951 . S
C1205 C1206 1.366 . S
C1205 C1207 1.388 . S
C1206 C1205 1.366 . S
C1206 C1210 1.385 . S
C1207 H1182 0.951 . S
C1207 C1205 1.388 . S
C1207 C1208 1.366 . S
C1208 C1207 1.366 . S
C1208 C1209 1.414 . S
C1208 C1211 1.499 . S
C1209 H1183 0.950 . S
C1209 C1208 1.414 . S
C1209 C1210 1.374 . S
C1210 H1184 0.950 . S
C1210 C1206 1.385 . S
C1210 C1209 1.374 . S
C1211 C1208 1.499 . S
C1211 C1212 1.373 . S
C1211 C1213 1.389 . S
C1212 H1185 0.950 . S
C1212 C1198 1.377 . S
C1212 C1211 1.373 . S
C1213 C1197 1.377 . S
C1213 C1211 1.389 . S
C1213 C1214 1.524 . S
C1214 C1213 1.524 . S
C1214 C1215 1.397 . S
C1214 C1219 1.363 . S
C1215 H1186 0.950 . S
C1215 C1214 1.397 . S
C1215 C1216 1.334 . S
C1216 H1187 0.950 . S
C1216 C1215 1.334 . S
C1216 C1217 1.287 . S
C1217 C1216 1.287 . S
C1217 C1218 1.524 . S
C1217 H1220 0.999 . S
C1218 H1188 0.950 . S
C1218 C1217 1.524 . S
C1218 C1219 1.415 . S
C1219 H1189 0.950 . S
C1219 C1214 1.363 . S
C1219 C1218 1.415 . S
H1220 C1217 0.999 . S
H1221 C1202 0.913 . S
H1222 C1240 0.951 . S
H1223 C1242 0.951 . S
H1224 C1244 0.950 . S
H1225 C1245 0.950 1_554 S
H1226 C1247 0.950 . S
H1227 C1250 0.950 . S
H1228 C1251 0.950 . S
H1229 C1253 0.950 . S
H1230 C1254 0.950 . S
H1231 C1255 0.951 . S
H1232 C1257 0.951 . S
H1233 C1259 0.950 . S
H1234 C1260 0.950 . S
H1235 C1262 0.950 . S
H1236 C1265 0.950 . S
H1237 C1266 0.950 . S
H1238 C1268 0.950 . S
H1239 C1269 0.950 . S
C1240 H1222 0.951 . S
C1240 C1241 1.366 . S
C1240 C1242 1.388 . S
C1241 C1240 1.366 . S
C1241 C1245 1.385 . S
C1242 H1223 0.951 . S
C1242 C1240 1.388 . S
C1242 C1243 1.366 . S
C1243 C1242 1.366 . S
C1243 C1244 1.414 . S
C1243 C1246 1.499 . S
C1244 H1224 0.950 . S
C1244 C1243 1.414 . S
C1244 C1245 1.374 . S
C1245 H1225 0.950 1_556 S
C1245 C1241 1.385 . S
C1245 C1244 1.374 . S
C1246 C1243 1.499 . S
C1246 C1247 1.373 . S
C1246 C1248 1.389 . S
C1247 H1226 0.950 . S
C1247 C1246 1.373 . S
C1247 C1263 1.377 . S
C1248 C1246 1.389 . S
C1248 C1249 1.524 . S
C1248 C1262 1.377 . S
C1249 C1248 1.524 . S
C1249 C1250 1.397 . S
C1249 C1254 1.363 . S
C1250 H1227 0.950 . S
C1250 C1249 1.397 . S
C1250 C1251 1.334 . S
C1251 H1228 0.950 . S
C1251 C1250 1.334 . S
C1251 C1252 1.287 . S
C1252 C1251 1.287 . S
C1252 C1253 1.524 . S
C1252 H1271 0.913 . S
C1253 H1229 0.950 . S
C1253 C1252 1.524 . S
C1253 C1254 1.415 . S
C1254 H1230 0.950 . S
C1254 C1249 1.363 . S
C1254 C1253 1.415 . S
C1255 H1231 0.951 . S
C1255 C1256 1.366 . S
C1255 C1257 1.388 . S
C1256 C1255 1.366 . S
C1256 C1260 1.385 . S
C1257 H1232 0.951 . S
C1257 C1255 1.388 . S
C1257 C1258 1.366 . S
C1258 C1257 1.366 . S
C1258 C1259 1.414 . S
C1258 C1261 1.499 . S
C1259 H1233 0.950 . S
C1259 C1258 1.414 . S
C1259 C1260 1.374 . S
C1260 H1234 0.950 . S
C1260 C1256 1.385 . S
C1260 C1259 1.374 . S
C1261 C1258 1.499 . S
C1261 C1262 1.373 . S
C1261 C1263 1.389 . S
C1262 H1235 0.950 . S
C1262 C1248 1.377 . S
C1262 C1261 1.373 . S
C1263 C1247 1.377 . S
C1263 C1261 1.389 . S
C1263 C1264 1.524 . S
C1264 C1263 1.524 . S
C1264 C1265 1.397 . S
C1264 C1269 1.363 . S
C1265 H1236 0.950 . S
C1265 C1264 1.397 . S
C1265 C1266 1.334 . S
C1266 H1237 0.950 . S
C1266 C1265 1.334 . S
C1266 C1267 1.287 . S
C1267 C1266 1.287 . S
C1267 C1268 1.524 . S
C1267 H1270 0.999 . S
C1268 H1238 0.950 . S
C1268 C1267 1.524 . S
C1268 C1269 1.415 . S
C1269 H1239 0.950 . S
C1269 C1264 1.363 . S
C1269 C1268 1.415 . S
H1270 C1267 0.999 . S
H1271 C1252 0.913 . S
H1272 C1290 0.951 . S
H1273 C1292 0.951 . S
H1274 C1294 0.950 . S
H1275 C1295 0.950 . S
H1276 C1297 0.950 . S
H1277 C1300 0.950 . S
H1278 C1301 0.950 . S
H1279 C1303 0.950 . S
H1280 C1304 0.950 . S
H1281 C1305 0.951 . S
H1282 C1307 0.951 . S
H1283 C1309 0.950 . S
H1284 C1310 0.950 . S
H1285 C1312 0.950 . S
H1286 C1315 0.950 . S
H1287 C1316 0.950 . S
H1288 C1318 0.950 . S
H1289 C1319 0.950 . S
C1290 H1272 0.951 . S
C1290 C1291 1.366 . S
C1290 C1292 1.388 . S
C1291 C1290 1.366 . S
C1291 C1295 1.385 . S
C1292 H1273 0.951 . S
C1292 C1290 1.388 . S
C1292 C1293 1.366 . S
C1293 C1292 1.366 . S
C1293 C1294 1.414 . S
C1293 C1296 1.499 . S
C1294 H1274 0.950 . S
C1294 C1293 1.414 . S
C1294 C1295 1.374 . S
C1295 H1275 0.950 . S
C1295 C1291 1.385 . S
C1295 C1294 1.374 . S
C1296 C1293 1.499 . S
C1296 C1297 1.373 . S
C1296 C1298 1.389 . S
C1297 H1276 0.950 . S
C1297 C1296 1.373 . S
C1297 C1313 1.377 . S
C1298 C1296 1.389 . S
C1298 C1299 1.524 . S
C1298 C1312 1.377 . S
C1299 C1298 1.524 . S
C1299 C1300 1.397 . S
C1299 C1304 1.363 . S
C1300 H1277 0.950 . S
C1300 C1299 1.397 . S
C1300 C1301 1.334 . S
C1301 H1278 0.950 . S
C1301 C1300 1.334 . S
C1301 C1302 1.287 . S
C1302 C1301 1.287 . S
C1302 C1303 1.524 . S
C1302 H1321 0.913 . S
C1303 H1279 0.950 . S
C1303 C1302 1.524 . S
C1303 C1304 1.415 . S
C1304 H1280 0.950 . S
C1304 C1299 1.363 . S
C1304 C1303 1.415 . S
C1305 H1281 0.951 . S
C1305 C1306 1.366 . S
C1305 C1307 1.388 . S
C1306 C1305 1.366 . S
C1306 C1310 1.385 . S
C1307 H1282 0.951 . S
C1307 C1305 1.388 . S
C1307 C1308 1.366 . S
C1308 C1307 1.366 . S
C1308 C1309 1.414 . S
C1308 C1311 1.499 . S
C1309 H1283 0.950 . S
C1309 C1308 1.414 . S
C1309 C1310 1.374 . S
C1310 H1284 0.950 . S
C1310 C1306 1.385 . S
C1310 C1309 1.374 . S
C1311 C1308 1.499 . S
C1311 C1312 1.373 . S
C1311 C1313 1.389 . S
C1312 H1285 0.950 . S
C1312 C1298 1.377 . S
C1312 C1311 1.373 . S
C1313 C1297 1.377 . S
C1313 C1311 1.389 . S
C1313 C1314 1.524 . S
C1314 C1313 1.524 . S
C1314 C1315 1.397 . S
C1314 C1319 1.363 . S
C1315 H1286 0.950 . S
C1315 C1314 1.397 . S
C1315 C1316 1.334 . S
C1316 H1287 0.950 . S
C1316 C1315 1.334 . S
C1316 C1317 1.287 . S
C1317 C1316 1.287 . S
C1317 C1318 1.524 . S
C1317 H1320 0.999 . S
C1318 H1288 0.950 . S
C1318 C1317 1.524 . S
C1318 C1319 1.415 . S
C1319 H1289 0.950 . S
C1319 C1314 1.363 . S
C1319 C1318 1.415 . S
H1320 C1317 0.999 . S
H1321 C1302 0.913 . S
H1322 C1340 0.951 . S
H1323 C1342 0.951 . S
H1324 C1344 0.950 . S
H1325 C1345 0.950 . S
H1326 C1347 0.950 . S
H1327 C1350 0.950 . S
H1328 C1351 0.950 . S
H1329 C1353 0.950 . S
H1330 C1354 0.950 . S
H1331 C1355 0.951 . S
H1332 C1357 0.951 . S
H1333 C1359 0.950 . S
H1334 C1360 0.950 . S
H1335 C1362 0.950 . S
H1336 C1365 0.950 . S
H1337 C1366 0.950 . S
H1338 C1368 0.950 . S
H1339 C1369 0.950 . S
C1340 H1322 0.951 . S
C1340 C1341 1.366 . S
C1340 C1342 1.388 . S
C1341 C1340 1.366 . S
C1341 C1345 1.385 . S
C1342 H1323 0.951 . S
C1342 C1340 1.388 . S
C1342 C1343 1.366 . S
C1343 C1342 1.366 . S
C1343 C1344 1.414 . S
C1343 C1346 1.499 . S
C1344 H1324 0.950 . S
C1344 C1343 1.414 . S
C1344 C1345 1.374 . S
C1345 H1325 0.950 . S
C1345 C1341 1.385 . S
C1345 C1344 1.374 . S
C1346 C1343 1.499 . S
C1346 C1347 1.373 . S
C1346 C1348 1.389 . S
C1347 H1326 0.950 . S
C1347 C1346 1.373 . S
C1347 C1363 1.377 . S
C1348 C1346 1.389 . S
C1348 C1349 1.524 . S
C1348 C1362 1.377 . S
C1349 C1348 1.524 . S
C1349 C1350 1.397 . S
C1349 C1354 1.363 . S
C1350 H1327 0.950 . S
C1350 C1349 1.397 . S
C1350 C1351 1.334 . S
C1351 H1328 0.950 . S
C1351 C1350 1.334 . S
C1351 C1352 1.287 . S
C1352 C1351 1.287 . S
C1352 C1353 1.524 . S
C1352 H1371 0.913 . S
C1353 H1329 0.950 . S
C1353 C1352 1.524 . S
C1353 C1354 1.415 . S
C1354 H1330 0.950 . S
C1354 C1349 1.363 . S
C1354 C1353 1.415 . S
C1355 H1331 0.951 . S
C1355 C1356 1.366 . S
C1355 C1357 1.388 . S
C1356 C1355 1.366 . S
C1356 C1360 1.385 . S
C1357 H1332 0.951 . S
C1357 C1355 1.388 . S
C1357 C1358 1.366 . S
C1358 C1357 1.366 . S
C1358 C1359 1.414 . S
C1358 C1361 1.499 . S
C1359 H1333 0.950 . S
C1359 C1358 1.414 . S
C1359 C1360 1.374 . S
C1360 H1334 0.950 . S
C1360 C1356 1.385 . S
C1360 C1359 1.374 . S
C1361 C1358 1.499 . S
C1361 C1362 1.373 . S
C1361 C1363 1.389 . S
C1362 H1335 0.950 . S
C1362 C1348 1.377 . S
C1362 C1361 1.373 . S
C1363 C1347 1.377 . S
C1363 C1361 1.389 . S
C1363 C1364 1.524 . S
C1364 C1363 1.524 . S
C1364 C1365 1.397 . S
C1364 C1369 1.363 . S
C1365 H1336 0.950 . S
C1365 C1364 1.397 . S
C1365 C1366 1.334 . S
C1366 H1337 0.950 . S
C1366 C1365 1.334 . S
C1366 C1367 1.287 . S
C1367 C1366 1.287 . S
C1367 C1368 1.524 . S
C1367 H1370 0.999 . S
C1368 H1338 0.950 . S
C1368 C1367 1.524 . S
C1368 C1369 1.415 . S
C1369 H1339 0.950 . S
C1369 C1364 1.363 . S
C1369 C1368 1.415 . S
H1370 C1367 0.999 . S
H1371 C1352 0.913 . S
C191 C7 0.749 . S
C206 C91 0.749 . S
C241 C25 0.796 . S
C256 C100 0.773 . S
C291 C46 0.582 . S
C306 C111 0.761 . S
C356 C122 0.716 . S
C341 C70 0.551 . S
C406 C135 0.327 . S
C391 C28 0.533 . S
C441 C49 0.557 . S
C456 C144 0.796 . S
C491 C67 0.628 . S
C506 C155 0.656 . S
C541 C4 0.765 . S
C556 C168 0.770 . S
C591 C58 1.454 . S
C606 C166 1.256 . S
C656 C133 1.435 . S
C641 C66 1.547 . S
C706 C146 2.061 . S
C691 C3 2.009 . S
C741 C37 2.031 . S
C756 C157 2.163 . S
C806 C102 1.920 . S
C791 C79 1.833 . S
C841 C16 1.965 . S
C856 C113 2.002 . S
C906 C124 1.798 . S
C891 C24 1.690 . S
C956 C89 1.261 . S
C941 C45 1.450 . S
C1006 C158 1.443 . S
C991 C19 1.306 . S
C1056 C169 1.404 . S
C1041 C41 1.324 . S
C1091 C62 1.010 . S
C1106 C136 1.120 . S
C1156 C147 1.327 . S
C1141 C82 1.200 . S
C1206 C114 1.365 . S
C1191 C40 1.242 . S
C1241 C61 0.969 . S
C1256 C125 1.045 . S
C1306 C92 1.343 . S
C1291 C83 1.252 . S
C1356 C103 1.499 . S
C1341 C20 1.355 . S
