# Generated by pormake.
# Topology pyr, (3,6)-cn, num edge types: 1
# Building blocks:
#     Node 0, Type 0, BuildingBlock: WUSLED_clean_sbu_0, # of connection points: 3
#     Node 1, Type 0, BuildingBlock: WUSLED_clean_sbu_0, # of connection points: 3
#     Node 2, Type 0, BuildingBlock: WUSLED_clean_sbu_0, # of connection points: 3
#     Node 3, Type 0, BuildingBlock: WUSLED_clean_sbu_0, # of connection points: 3
#     Node 4, Type 0, BuildingBlock: WUSLED_clean_sbu_0, # of connection points: 3
#     Node 5, Type 0, BuildingBlock: WUSLED_clean_sbu_0, # of connection points: 3
#     Node 6, Type 0, BuildingBlock: WUSLED_clean_sbu_0, # of connection points: 3
#     Node 7, Type 0, BuildingBlock: WUSLED_clean_sbu_0, # of connection points: 3
#     Node 8, Type 1, BuildingBlock: MIDCAF_clean_sbu_0, # of connection points: 6
#     Node 9, Type 1, BuildingBlock: MIDCAF_clean_sbu_0, # of connection points: 6
#     Node 10, Type 1, BuildingBlock: MIDCAF_clean_sbu_0, # of connection points: 6
#     Node 11, Type 1, BuildingBlock: MIDCAF_clean_sbu_0, # of connection points: 6
#     Edge 12, Type (0, 1), BuildingBlock: MIFKUJ_clean_linker_0, # of connection points: 2
#     Edge 13, Type (0, 1), BuildingBlock: MIFKUJ_clean_linker_0, # of connection points: 2
#     Edge 14, Type (0, 1), BuildingBlock: MIFKUJ_clean_linker_0, # of connection points: 2
#     Edge 15, Type (0, 1), BuildingBlock: MIFKUJ_clean_linker_0, # of connection points: 2
#     Edge 16, Type (0, 1), BuildingBlock: MIFKUJ_clean_linker_0, # of connection points: 2
#     Edge 17, Type (0, 1), BuildingBlock: MIFKUJ_clean_linker_0, # of connection points: 2
#     Edge 18, Type (0, 1), BuildingBlock: MIFKUJ_clean_linker_0, # of connection points: 2
#     Edge 19, Type (0, 1), BuildingBlock: MIFKUJ_clean_linker_0, # of connection points: 2
#     Edge 20, Type (0, 1), BuildingBlock: MIFKUJ_clean_linker_0, # of connection points: 2
#     Edge 21, Type (0, 1), BuildingBlock: MIFKUJ_clean_linker_0, # of connection points: 2
#     Edge 22, Type (0, 1), BuildingBlock: MIFKUJ_clean_linker_0, # of connection points: 2
#     Edge 23, Type (0, 1), BuildingBlock: MIFKUJ_clean_linker_0, # of connection points: 2
#     Edge 24, Type (0, 1), BuildingBlock: MIFKUJ_clean_linker_0, # of connection points: 2
#     Edge 25, Type (0, 1), BuildingBlock: MIFKUJ_clean_linker_0, # of connection points: 2
#     Edge 26, Type (0, 1), BuildingBlock: MIFKUJ_clean_linker_0, # of connection points: 2
#     Edge 27, Type (0, 1), BuildingBlock: MIFKUJ_clean_linker_0, # of connection points: 2
#     Edge 28, Type (0, 1), BuildingBlock: MIFKUJ_clean_linker_0, # of connection points: 2
#     Edge 29, Type (0, 1), BuildingBlock: MIFKUJ_clean_linker_0, # of connection points: 2
#     Edge 30, Type (0, 1), BuildingBlock: MIFKUJ_clean_linker_0, # of connection points: 2
#     Edge 31, Type (0, 1), BuildingBlock: MIFKUJ_clean_linker_0, # of connection points: 2
#     Edge 32, Type (0, 1), BuildingBlock: MIFKUJ_clean_linker_0, # of connection points: 2
#     Edge 33, Type (0, 1), BuildingBlock: MIFKUJ_clean_linker_0, # of connection points: 2
#     Edge 34, Type (0, 1), BuildingBlock: MIFKUJ_clean_linker_0, # of connection points: 2
#     Edge 35, Type (0, 1), BuildingBlock: MIFKUJ_clean_linker_0, # of connection points: 2
# Relax obj value: 0.020
# Max RMSD: 0.063
# Mean RMSD: 0.028
data_MOF--net-pyr--node1-WUSLED_clean_sbu_0--node2-MIDCAF_clean_sbu_0--edge1-MIFKUJ_clean_linker_0
_symmetry_space_group_name_H-M    P1
_symmetry_Int_Tables_number       1
_symmetry_cell_setting            triclinic
loop_
_symmetry_equiv_pos_as_xyz
'x, y, z'
_cell_length_a     57.205888
_cell_length_b     57.519673
_cell_length_c     57.377077
_cell_angle_alpha  89.69469
_cell_angle_beta   90.365741
_cell_angle_gamma 90.565681
loop_
_atom_site_label
_atom_site_type_symbol
_atom_site_fract_x
_atom_site_fract_y
_atom_site_fract_z
_atom_type_partial_charge
C0 C 0.20489 0.25991 0.16429 0.0
C1 C 0.18569 0.26853 0.17653 0.0
C2 C 0.18028 0.29888 0.1471 0.0
C3 C 0.17349 0.28784 0.16801 0.0
C4 C 0.19949 0.29001 0.1349 0.0
C5 C 0.21164 0.27073 0.14343 0.0
U6 U 0.21542 0.21065 0.20837 0.0
O7 O 0.22659 0.17468 0.20255 0.0
O8 O 0.24866 0.19821 0.22335 0.0
C9 C 0.24679 0.17784 0.2132 0.0
C10 C 0.21817 0.23984 0.17303 0.0
C11 C 0.26769 0.16993 0.20059 0.0
C12 C 0.28924 0.16403 0.16468 0.0
C13 C 0.26963 0.17249 0.17632 0.0
C14 C 0.3055 0.1509 0.20147 0.0
C15 C 0.30738 0.15301 0.1771 0.0
C16 C 0.28584 0.15923 0.21306 0.0
C17 C 0.17259 0.20327 0.25979 0.0
C18 C 0.17359 0.1719 0.28838 0.0
C19 C 0.14482 0.20229 0.29169 0.0
C20 C 0.15377 0.21301 0.27166 0.0
C21 C 0.15453 0.18154 0.30029 0.0
C22 C 0.18254 0.18268 0.26829 0.0
C23 C 0.18122 0.21478 0.23847 0.0
O24 O 0.2293 0.24299 0.19289 0.0
O25 O 0.20739 0.21959 0.17184 0.0
O26 O 0.17937 0.20267 0.21917 0.0
O27 O 0.20127 0.22598 0.24037 0.0
H28 H 0.18025 0.26041 0.19272 0.0
H29 H 0.15896 0.29434 0.17799 0.0
H30 H 0.205 0.2978 0.11859 0.0
H31 H 0.22637 0.26426 0.1337 0.0
H32 H 0.29026 0.16621 0.14596 0.0
H33 H 0.25593 0.18087 0.16634 0.0
H34 H 0.319 0.14232 0.21155 0.0
H35 H 0.28468 0.15708 0.23179 0.0
H36 H 0.18135 0.15582 0.29434 0.0
H37 H 0.1304 0.21041 0.30055 0.0
H38 H 0.14591 0.22895 0.26539 0.0
H39 H 0.19708 0.17487 0.25931 0.0
C40 C 0.27786 0.84099 0.68178 0.0
C41 C 0.26112 0.84759 0.69827 0.0
C42 C 0.2396 0.86914 0.66841 0.0
C43 C 0.24214 0.86146 0.69162 0.0
C44 C 0.25661 0.86276 0.65209 0.0
C45 C 0.27545 0.84882 0.6587 0.0
U46 U 0.33006 0.82074 0.71984 0.0
O47 O 0.34035 0.78518 0.72974 0.0
O48 O 0.36395 0.80695 0.70875 0.0
C49 C 0.35997 0.78634 0.71799 0.0
C50 C 0.29735 0.8252 0.68775 0.0
C51 C 0.36529 0.76608 0.70332 0.0
C52 C 0.36381 0.74526 0.66646 0.0
C53 C 0.35772 0.7645 0.68004 0.0
C54 C 0.38477 0.72894 0.69939 0.0
C55 C 0.37746 0.72723 0.67598 0.0
C56 C 0.37875 0.74813 0.71286 0.0
C57 C 0.34775 0.85538 0.77496 0.0
C58 C 0.38574 0.8594 0.79405 0.0
C59 C 0.35057 0.86896 0.81502 0.0
C60 C 0.33709 0.86302 0.79546 0.0
C61 C 0.3751 0.86752 0.81449 0.0
C62 C 0.37221 0.85332 0.7745 0.0
C63 C 0.33305 0.85086 0.75411 0.0
O64 O 0.31857 0.83387 0.68548 0.0
O65 O 0.29491 0.81214 0.70648 0.0
O66 O 0.31959 0.83222 0.75488 0.0
O67 O 0.34298 0.85407 0.73372 0.0
H68 H 0.26255 0.84189 0.71624 0.0
H69 H 0.2295 0.86624 0.70468 0.0
H70 H 0.25506 0.86807 0.63401 0.0
H71 H 0.28802 0.84385 0.64563 0.0
H72 H 0.35772 0.74443 0.64858 0.0
H73 H 0.34724 0.77816 0.67236 0.0
H74 H 0.39564 0.71567 0.70722 0.0
H75 H 0.38486 0.74907 0.73075 0.0
H76 H 0.40456 0.8578 0.79313 0.0
H77 H 0.3418 0.87539 0.83033 0.0
H78 H 0.31827 0.86483 0.79619 0.0
H79 H 0.3809 0.84734 0.75896 0.0
C80 C 0.67131 0.34061 0.77834 0.0
C81 C 0.68263 0.35982 0.76813 0.0
C82 C 0.65378 0.36028 0.73657 0.0
C83 C 0.67395 0.36957 0.74742 0.0
C84 C 0.64259 0.34097 0.74694 0.0
C85 C 0.65129 0.33125 0.7676 0.0
U86 U 0.71471 0.33721 0.82963 0.0
O87 O 0.70819 0.32957 0.86663 0.0
O88 O 0.73021 0.30629 0.84625 0.0
C89 C 0.71952 0.3098 0.86611 0.0
C90 C 0.68006 0.33005 0.8001 0.0
C91 C 0.70734 0.28941 0.87619 0.0
C92 C 0.67194 0.26688 0.8837 0.0
C93 C 0.68312 0.28615 0.87352 0.0
C94 C 0.70909 0.25371 0.899 0.0
C95 C 0.68477 0.2504 0.89662 0.0
C96 C 0.72021 0.27303 0.88892 0.0
C97 C 0.76554 0.38068 0.83482 0.0
C98 C 0.79272 0.38046 0.86757 0.0
C99 C 0.79833 0.40787 0.83585 0.0
C100 C 0.77842 0.39889 0.82467 0.0
C101 C 0.80576 0.39879 0.85747 0.0
C102 C 0.77281 0.37149 0.85634 0.0
C103 C 0.74466 0.37148 0.82274 0.0
O104 O 0.70033 0.3196 0.79866 0.0
O105 O 0.67816 0.34279 0.81892 0.0
O106 O 0.72478 0.37398 0.83377 0.0
O107 O 0.74689 0.35079 0.81346 0.0
H108 H 0.6981 0.36731 0.77623 0.0
H109 H 0.68284 0.38461 0.7401 0.0
H110 H 0.62723 0.33317 0.73894 0.0
H111 H 0.64237 0.31636 0.7752 0.0
H112 H 0.65317 0.2651 0.88171 0.0
H113 H 0.67282 0.29856 0.8637 0.0
H114 H 0.71964 0.24123 0.90843 0.0
H115 H 0.73894 0.27517 0.89109 0.0
H116 H 0.79773 0.37324 0.88432 0.0
H117 H 0.80807 0.42173 0.8274 0.0
H118 H 0.7731 0.40614 0.80801 0.0
H119 H 0.76303 0.35743 0.86446 0.0
C120 C 0.781 0.67253 0.33206 0.0
C121 C 0.77629 0.67897 0.35509 0.0
C122 C 0.74067 0.65519 0.35484 0.0
C123 C 0.75636 0.67034 0.3664 0.0
C124 C 0.7454 0.64907 0.33163 0.0
C125 C 0.76537 0.65764 0.32039 0.0
U126 U 0.83236 0.71534 0.3246 0.0
O127 O 0.86902 0.70851 0.3158 0.0
O128 O 0.84757 0.72993 0.29245 0.0
C129 C 0.86764 0.71943 0.29566 0.0
C130 C 0.80218 0.68087 0.32001 0.0
C131 C 0.87672 0.70684 0.27538 0.0
C132 C 0.87852 0.67239 0.25107 0.0
C133 C 0.86942 0.68404 0.27034 0.0
C134 C 0.9021 0.70629 0.24157 0.0
C135 C 0.89503 0.68335 0.23644 0.0
C136 C 0.89304 0.71787 0.26084 0.0
C137 C 0.8395 0.76697 0.36653 0.0
C138 C 0.87523 0.78868 0.37512 0.0
C139 C 0.83768 0.80516 0.38446 0.0
C140 C 0.82647 0.78531 0.37563 0.0
C141 C 0.86224 0.80708 0.38448 0.0
C142 C 0.86399 0.76889 0.36616 0.0
C143 C 0.82721 0.74594 0.358 0.0
O144 O 0.80024 0.70075 0.3088 0.0
O145 O 0.82186 0.67916 0.33183 0.0
O146 O 0.83812 0.72611 0.36091 0.0
O147 O 0.81701 0.74783 0.33749 0.0
H148 H 0.78814 0.69049 0.3644 0.0
H149 H 0.75349 0.67522 0.38435 0.0
H150 H 0.73358 0.63778 0.32203 0.0
H151 H 0.76866 0.65256 0.30256 0.0
H152 H 0.87286 0.65467 0.24783 0.0
H153 H 0.85679 0.67523 0.28137 0.0
H154 H 0.91445 0.71545 0.23053 0.0
H155 H 0.89879 0.73551 0.26439 0.0
H156 H 0.89415 0.78932 0.3751 0.0
H157 H 0.82706 0.81907 0.39114 0.0
H158 H 0.80756 0.78423 0.37599 0.0
H159 H 0.87445 0.75499 0.35918 0.0
C160 C 0.89642 0.83718 0.93187 0.0
C161 C 0.91072 0.82296 0.91833 0.0
C162 C 0.91592 0.79642 0.95124 0.0
C163 C 0.92032 0.80272 0.92791 0.0
C164 C 0.90198 0.81104 0.96484 0.0
C165 C 0.89229 0.83119 0.95521 0.0
U166 U 0.89182 0.88588 0.88605 0.0
O167 O 0.86062 0.89968 0.86839 0.0
O168 O 0.88211 0.92255 0.89044 0.0
C169 C 0.86271 0.92018 0.87823 0.0
C170 C 0.88517 0.85793 0.92185 0.0
C171 C 0.84139 0.92893 0.88926 0.0
C172 C 0.81168 0.92656 0.91931 0.0
C173 C 0.83226 0.9183 0.90933 0.0
C174 C 0.8092 0.9562 0.88927 0.0
C175 C 0.79983 0.94559 0.90935 0.0
C176 C 0.82978 0.94794 0.87934 0.0
C177 C 0.9368 0.89011 0.83674 0.0
C178 C 0.93919 0.92235 0.80922 0.0
C179 C 0.96271 0.8881 0.8034 0.0
C180 C 0.95331 0.87811 0.82361 0.0
C181 C 0.9558 0.91036 0.79595 0.0
C182 C 0.92972 0.91228 0.8294 0.0
C183 C 0.92723 0.8792 0.85796 0.0
O184 O 0.89725 0.87744 0.92322 0.0
O185 O 0.87491 0.85503 0.90149 0.0
O186 O 0.90688 0.86867 0.8555 0.0
O187 O 0.92876 0.89164 0.87708 0.0
H188 H 0.91425 0.82738 0.90031 0.0
H189 H 0.93125 0.79203 0.91707 0.0
H190 H 0.89807 0.8066 0.98278 0.0
H191 H 0.88129 0.84196 0.96592 0.0
H192 H 0.80483 0.91779 0.93459 0.0
H193 H 0.84096 0.90352 0.91717 0.0
H194 H 0.80075 0.97106 0.88132 0.0
H195 H 0.83661 0.95638 0.86385 0.0
H196 H 0.93325 0.93938 0.80383 0.0
H197 H 0.97564 0.8785 0.79379 0.0
H198 H 0.959 0.86099 0.82903 0.0
H199 H 0.91688 0.92177 0.83926 0.0
C200 C 0.61656 0.15439 0.3376 0.0
C201 C 0.63075 0.14426 0.32062 0.0
C202 C 0.59651 0.13622 0.29625 0.0
C203 C 0.62083 0.13534 0.3001 0.0
C204 C 0.58235 0.14591 0.31357 0.0
C205 C 0.5923 0.15495 0.33399 0.0
U206 U 0.66199 0.1583 0.38739 0.0
O207 O 0.67952 0.18921 0.40205 0.0
O208 O 0.65689 0.16762 0.42419 0.0
C209 C 0.66923 0.18694 0.42236 0.0
C210 C 0.62664 0.16519 0.35876 0.0
C211 C 0.65806 0.20807 0.43129 0.0
C212 C 0.62869 0.23825 0.4283 0.0
C213 C 0.63883 0.21793 0.41977 0.0
C214 C 0.65683 0.239 0.46 0.0
C215 C 0.6376 0.2491 0.44851 0.0
C216 C 0.66693 0.21869 0.45146 0.0
C217 C 0.71094 0.11265 0.39127 0.0
C218 C 0.74264 0.11327 0.41972 0.0
C219 C 0.73979 0.08187 0.39187 0.0
C220 C 0.71968 0.09188 0.38229 0.0
C221 C 0.7516 0.09244 0.41068 0.0
C222 C 0.72249 0.12329 0.4101 0.0
C223 C 0.6899 0.1229 0.38058 0.0
O224 O 0.62482 0.15304 0.37814 0.0
O225 O 0.64716 0.17539 0.35639 0.0
O226 O 0.69281 0.14332 0.37056 0.0
O227 O 0.67065 0.12144 0.39291 0.0
H228 H 0.64952 0.14345 0.32308 0.0
H229 H 0.63219 0.1277 0.28727 0.0
H230 H 0.56361 0.14705 0.31108 0.0
H231 H 0.58105 0.16272 0.34685 0.0
H232 H 0.61411 0.24567 0.41881 0.0
H233 H 0.63178 0.21001 0.40411 0.0
H234 H 0.66396 0.24665 0.47575 0.0
H235 H 0.68174 0.21129 0.46062 0.0
H236 H 0.75141 0.12205 0.434 0.0
H237 H 0.74593 0.06569 0.38467 0.0
H238 H 0.71094 0.08338 0.36781 0.0
H239 H 0.71601 0.13937 0.41724 0.0
C240 C 0.34785 0.61408 0.14885 0.0
C241 C 0.3274 0.62704 0.15211 0.0
C242 C 0.30436 0.59809 0.13096 0.0
C243 C 0.30592 0.61912 0.14328 0.0
C244 C 0.32481 0.58518 0.12764 0.0
C245 C 0.34627 0.59303 0.1366 0.0
U246 U 0.40175 0.65454 0.15033 0.0
O247 O 0.41981 0.67092 0.17998 0.0
O248 O 0.4387 0.64662 0.15776 0.0
C249 C 0.4391 0.65913 0.17686 0.0
C250 C 0.37063 0.62176 0.15887 0.0
C251 C 0.44866 0.64765 0.19782 0.0
C252 C 0.44339 0.62478 0.23318 0.0
C253 C 0.43426 0.63444 0.21265 0.0
C254 C 0.48156 0.64079 0.22391 0.0
C255 C 0.46711 0.62802 0.23917 0.0
C256 C 0.47238 0.65054 0.20345 0.0
C257 C 0.40642 0.7039 0.10522 0.0
C258 C 0.43123 0.73821 0.10922 0.0
C259 C 0.4111 0.73077 0.0727 0.0
C260 C 0.40145 0.71038 0.08214 0.0
C261 C 0.42582 0.74512 0.08624 0.0
C262 C 0.42167 0.71774 0.1186 0.0
C263 C 0.39472 0.6833 0.1153 0.0
O264 O 0.38917 0.61847 0.14588 0.0
O265 O 0.37101 0.64193 0.16956 0.0
O266 O 0.38574 0.68616 0.13611 0.0
O267 O 0.40567 0.66346 0.1131 0.0
H268 H 0.32788 0.64329 0.16156 0.0
H269 H 0.29054 0.6296 0.14592 0.0
H270 H 0.32415 0.56877 0.11849 0.0
H271 H 0.36165 0.58251 0.13407 0.0
H272 H 0.43187 0.61478 0.24439 0.0
H273 H 0.41591 0.63187 0.20851 0.0
H274 H 0.49982 0.64379 0.22809 0.0
H275 H 0.48375 0.6607 0.19221 0.0
H276 H 0.44277 0.7487 0.11999 0.0
H277 H 0.40643 0.73568 0.05503 0.0
H278 H 0.3897 0.69991 0.07156 0.0
H279 H 0.42586 0.71294 0.13642 0.0
C280 C 0.12605 0.33317 0.63738 0.0
C281 C 0.14289 0.32485 0.62188 0.0
C282 C 0.11559 0.29487 0.60839 0.0
C283 C 0.13773 0.30577 0.60755 0.0
C284 C 0.09883 0.30346 0.62391 0.0
C285 C 0.10402 0.3224 0.63822 0.0
U286 U 0.1615 0.38702 0.6568 0.0
O287 O 0.14847 0.42012 0.67062 0.0
O288 O 0.17134 0.39818 0.69212 0.0
C289 C 0.15763 0.4164 0.69137 0.0
C290 C 0.13094 0.35284 0.65301 0.0
C291 C 0.14172 0.41947 0.71131 0.0
C292 C 0.1221 0.40476 0.74603 0.0
C293 C 0.13637 0.40107 0.72668 0.0
C294 C 0.11768 0.44506 0.73455 0.0
C295 C 0.11271 0.42683 0.75024 0.0
C296 C 0.13211 0.44142 0.71535 0.0
C297 C 0.21514 0.40749 0.6221 0.0
C298 C 0.24041 0.43976 0.63367 0.0
C299 C 0.2478 0.41916 0.59778 0.0
C300 C 0.22858 0.40463 0.60205 0.0
C301 C 0.25398 0.43693 0.6135 0.0
C302 C 0.22109 0.42517 0.63791 0.0
C303 C 0.19523 0.39166 0.62622 0.0
O304 O 0.15011 0.35146 0.66568 0.0
O305 O 0.12761 0.37362 0.64404 0.0
O306 O 0.17439 0.40068 0.6233 0.0
O307 O 0.19681 0.37838 0.64487 0.0
H308 H 0.16 0.33304 0.62094 0.0
H309 H 0.15095 0.29969 0.59568 0.0
H310 H 0.08177 0.29526 0.62534 0.0
H311 H 0.09084 0.32855 0.65012 0.0
H312 H 0.11842 0.39034 0.7577 0.0
H313 H 0.14337 0.38388 0.72392 0.0
H314 H 0.11095 0.46233 0.73748 0.0
H315 H 0.13601 0.45587 0.70377 0.0
H316 H 0.2446 0.45334 0.64605 0.0
H317 H 0.25809 0.41617 0.58232 0.0
H318 H 0.2243 0.39101 0.58972 0.0
H319 H 0.21085 0.42762 0.65351 0.0
Zn320 Zn 0.99542 0.05044 0.55098 0.0
Zn321 Zn 0.05094 1.00019 0.49784 0.0
Zn322 Zn 0.02195 0.02418 0.52471 0.0
C323 C 0.05973 0.04638 0.48753 0.0
C324 C 1.00425 0.98694 0.48654 0.0
O325 O 0.02572 0.01204 0.56157 0.0
O326 O 1.0038 0.03641 0.58147 0.0
C327 C 0.02617 0.0808 0.52938 0.0
O328 O 0.04443 0.04855 0.50381 0.0
O329 O 0.06583 0.02647 0.48093 0.0
O330 O 0.02531 0.98211 0.48223 0.0
O331 O 0.99945 1.00292 0.50139 0.0
O332 O 0.00884 0.08121 0.54286 0.0
O333 O 0.03326 0.06131 0.52106 0.0
O334 O 0.98506 0.01938 0.51235 0.0
O335 O 0.96521 0.04152 0.53647 0.0
C336 C 0.96552 0.02792 0.51927 0.0
O337 O 0.04331 1.00139 0.54818 0.0
O338 O 0.06907 0.98638 0.52399 0.0
C339 C 0.01714 0.01906 0.58105 0.0
C340 C 0.0616 0.98899 0.54446 0.0
Zn341 Zn 0.50763 0.04312 0.99491 0.0
Zn342 Zn 0.55573 0.99902 0.05627 0.0
Zn343 Zn 0.53188 0.02124 0.02498 0.0
C344 C 0.58712 0.01212 0.02119 0.0
C345 C 0.5229 0.96763 0.03897 0.0
O346 O 0.50894 0.04524 0.0448 0.0
O347 O 0.48414 0.05553 0.01702 0.0
C348 C 0.55336 0.05808 0.98797 0.0
O349 O 0.56907 0.02337 0.01386 0.0
O350 O 0.58561 0.9993 0.03906 0.0
O351 O 0.53627 0.97033 0.05634 0.0
O352 O 0.52019 0.98423 0.02402 0.0
O353 O 0.53268 0.0637 0.98281 0.0
O354 O 0.55701 0.04122 1.00245 0.0
O355 O 0.51005 0.9953 1.00478 0.0
O356 O 0.49819 0.01675 0.97499 0.0
C357 C 0.49978 0.99713 0.98474 0.0
O358 O 0.52641 0.03764 0.06006 0.0
O359 O 0.55274 0.02044 0.0826 0.0
C360 C 0.48994 0.05541 0.03829 0.0
C361 C 0.53726 0.03565 0.07979 0.0
Zn362 Zn 0.55081 0.54408 0.54388 0.0
Zn363 Zn 0.49103 0.49447 0.48805 0.0
Zn364 Zn 0.52193 0.51809 0.51513 0.0
C365 C 0.52476 0.46273 0.50604 0.0
C366 C 0.51387 0.52802 0.46007 0.0
O367 O 0.50058 0.53885 0.5394 0.0
O368 O 0.52507 0.55985 0.561 0.0
C369 C 0.55976 0.49578 0.55052 0.0
O370 O 0.5323 0.48104 0.51669 0.0
O371 O 0.50718 0.46398 0.49262 0.0
O372 O 0.49725 0.51342 0.45958 0.0
O373 O 0.52571 0.53142 0.47895 0.0
O374 O 0.56597 0.51574 0.55748 0.0
O375 O 0.544 0.49341 0.53454 0.0
O376 O 0.54347 0.54146 0.49287 0.0
O377 O 0.5661 0.56107 0.51756 0.0
C378 C 0.55978 0.55658 0.4969 0.0
O379 O 0.48582 0.52262 0.5286 0.0
O380 O 0.46242 0.50146 0.50612 0.0
C381 C 0.50444 0.55415 0.55534 0.0
C382 C 0.46528 0.51469 0.52341 0.0
Zn383 Zn 0.05789 0.55238 0.99051 0.0
Zn384 Zn 0.99913 0.50186 0.04196 0.0
Zn385 Zn 0.03043 0.5272 0.0186 0.0
C386 C 0.04521 0.48953 0.0573 0.0
C387 C 0.99259 0.48996 0.99579 0.0
O388 O 0.01913 0.56386 0.02049 0.0
O389 O 0.03923 0.58118 0.99231 0.0
C390 C 0.08543 0.53433 0.02768 0.0
O391 O 0.05169 0.50591 0.04322 0.0
O392 O 0.02369 0.48495 0.05977 0.0
O393 O 0.98402 0.48519 0.01547 0.0
O394 O 0.00982 0.50454 0.9941 0.0
O395 O 0.08588 0.5482 0.01053 0.0
O396 O 0.06634 0.52357 0.03319 0.0
O397 O 0.02879 0.51389 0.98225 0.0
O398 O 0.05537 0.53353 0.96199 0.0
C399 C 0.04014 0.5176 0.96321 0.0
O400 O 0.00696 0.55137 0.03772 0.0
O401 O 0.98237 0.52824 0.05666 0.0
C402 C 0.02375 0.5819 0.00785 0.0
C403 C 0.98967 0.54849 0.05183 0.0
H404 H 0.17821 0.16053 0.33633 0.0
H405 H 0.16186 0.1412 0.37071 0.0
H406 H 0.09219 0.1572 0.34684 0.0
H407 H 0.10838 0.17644 0.31235 0.0
H408 H 0.09623 0.16431 0.39319 0.0
H409 H 0.11395 0.10313 0.34003 0.0
H410 H 0.13869 0.08056 0.31355 0.0
H411 H 0.18586 0.06543 0.37001 0.0
H412 H 0.16156 0.08819 0.39677 0.0
H413 H 0.03573 0.08066 0.46522 0.0
H414 H 0.05148 0.10756 0.4359 0.0
H415 H 0.12139 0.08482 0.45258 0.0
H416 H 0.10535 0.05679 0.48051 0.0
H417 H 0.11654 0.08221 0.40946 0.0
H418 H 0.09709 0.1438 0.46327 0.0
H419 H 0.07096 0.16617 0.48855 0.0
H420 H 0.02543 0.17976 0.43053 0.0
H421 H 0.05121 0.15746 0.4048 0.0
C422 C 0.1594 0.1598 0.33828 0.0
C423 C 0.14464 0.16997 0.32146 0.0
C424 C 0.15006 0.14882 0.35802 0.0
C425 C 0.12575 0.14755 0.3613 0.0
C426 C 0.11099 0.15802 0.34476 0.0
C427 C 0.12031 0.16904 0.32504 0.0
C428 C 0.11573 0.13475 0.38163 0.0
C429 C 0.10053 0.1463 0.39672 0.0
C430 C 0.12146 0.11133 0.38638 0.0
C431 C 0.13606 0.09756 0.37034 0.0
C432 C 0.1297 0.09514 0.34676 0.0
C433 C 0.14362 0.08228 0.3317 0.0
C434 C 0.16387 0.07162 0.34008 0.0
C435 C 0.17019 0.07373 0.36354 0.0
C436 C 0.15634 0.08659 0.37866 0.0
C437 C 0.05449 0.08198 0.46303 0.0
C438 C 0.06938 0.06676 0.47506 0.0
C439 C 0.06355 0.09742 0.44628 0.0
C440 C 0.08776 0.09841 0.44188 0.0
C441 C 0.10268 0.08435 0.45536 0.0
C442 C 0.09356 0.06847 0.4715 0.0
C443 C 0.09743 0.11189 0.42168 0.0
C444 C 0.11243 0.10034 0.40632 0.0
C445 C 0.09137 0.13525 0.4167 0.0
C446 C 0.07599 0.14879 0.43215 0.0
C447 C 0.08144 0.15145 0.45592 0.0
C448 C 0.06671 0.16412 0.47034 0.0
C449 C 0.04651 0.17426 0.46123 0.0
C450 C 0.04106 0.17187 0.4376 0.0
C451 C 0.05576 0.15927 0.42306 0.0
H452 H 0.03513 0.18401 0.47248 0.0
H453 H 0.17462 0.06167 0.3284 0.0
H454 H 0.41539 0.8936 0.81401 0.0
H455 H 0.43778 0.90836 0.8472 0.0
H456 H 0.38984 0.87435 0.89437 0.0
H457 H 0.36716 0.85968 0.86111 0.0
H458 H 0.39809 0.91652 0.90891 0.0
H459 H 0.44676 0.85435 0.88646 0.0
H460 H 0.46936 0.82972 0.85993 0.0
H461 H 0.51412 0.88769 0.84313 0.0
H462 H 0.49159 0.91278 0.8693 0.0
H463 H 0.47096 0.96178 1.00055 0.0
H464 H 0.45133 0.93197 0.97646 0.0
H465 H 0.48708 0.95834 0.91572 0.0
H466 H 0.50683 0.9875 0.9396 0.0
H467 H 0.48453 0.9124 0.91384 0.0
H468 H 0.43059 0.97525 0.93184 0.0
H469 H 0.40766 0.99929 0.95866 0.0
H470 H 0.37267 0.93815 0.98466 0.0
H471 H 0.39572 0.91371 0.95827 0.0
C472 C 0.4098 0.88892 0.83143 0.0
C473 C 0.38949 0.87537 0.83484 0.0
C474 C 0.42266 0.89737 0.85045 0.0
C475 C 0.41577 0.89223 0.87341 0.0
C476 C 0.39558 0.87856 0.87689 0.0
C477 C 0.3826 0.87022 0.85783 0.0
C478 C 0.42904 0.90214 0.89362 0.0
C479 C 0.41695 0.91516 0.91024 0.0
C480 C 0.45369 0.90052 0.89547 0.0
C481 C 0.46738 0.88549 0.87976 0.0
C482 C 0.46133 0.86189 0.87699 0.0
C483 C 0.47414 0.84784 0.86203 0.0
C484 C 0.49314 0.85714 0.84983 0.0
C485 C 0.49939 0.88051 0.85259 0.0
C486 C 0.48663 0.89465 0.86752 0.0
C487 C 0.47508 0.96066 0.98219 0.0
C488 C 0.49056 0.97675 0.97193 0.0
C489 C 0.46371 0.94381 0.96841 0.0
C490 C 0.46753 0.943 0.94419 0.0
C491 C 0.48382 0.95847 0.9343 0.0
C492 C 0.49507 0.9752 0.94796 0.0
C493 C 0.45366 0.92744 0.9285 0.0
C494 C 0.46563 0.91331 0.91274 0.0
C495 C 0.42891 0.92793 0.92752 0.0
C496 C 0.41505 0.94265 0.94329 0.0
C497 C 0.41812 0.96693 0.9434 0.0
C498 C 0.4051 0.98063 0.95852 0.0
C499 C 0.38875 0.97025 0.9734 0.0
C500 C 0.38534 0.94617 0.97313 0.0
C501 C 0.39841 0.93238 0.95814 0.0
H502 H 0.3787 0.98088 0.9851 0.0
H503 H 0.50303 0.84623 0.83825 0.0
H504 H 0.67817 0.37654 0.6987 0.0
H505 H 0.66261 0.39491 0.66341 0.0
H506 H 0.59248 0.386 0.68933 0.0
H507 H 0.60789 0.36771 0.72472 0.0
H508 H 0.59436 0.37657 0.64298 0.0
H509 H 0.62013 0.43786 0.69399 0.0
H510 H 0.64833 0.45898 0.71897 0.0
H511 H 0.69426 0.46835 0.66069 0.0
H512 H 0.66645 0.447 0.63542 0.0
H513 H 0.53568 0.46323 0.57506 0.0
H514 H 0.55192 0.43565 0.60325 0.0
H515 H 0.6217 0.45467 0.58134 0.0
H516 H 0.60529 0.48367 0.55465 0.0
H517 H 0.62099 0.4568 0.62453 0.0
H518 H 0.59048 0.39848 0.57188 0.0
H519 H 0.55954 0.37918 0.54859 0.0
H520 H 0.52057 0.36461 0.6106 0.0
H521 H 0.5507 0.38448 0.63428 0.0
C522 C 0.65943 0.37857 0.69696 0.0
C523 C 0.64431 0.37078 0.71467 0.0
C524 C 0.65055 0.38898 0.6767 0.0
C525 C 0.62636 0.39203 0.67378 0.0
C526 C 0.61119 0.38375 0.69113 0.0
C527 C 0.62005 0.37329 0.71137 0.0
C528 C 0.61698 0.40487 0.65321 0.0
C529 C 0.60006 0.39416 0.6389 0.0
C530 C 0.62464 0.4277 0.64775 0.0
C531 C 0.64133 0.44062 0.66289 0.0
C532 C 0.63633 0.44427 0.68655 0.0
C533 C 0.65223 0.45631 0.70075 0.0
C534 C 0.67311 0.46494 0.69144 0.0
C535 C 0.6781 0.46161 0.66788 0.0
C536 C 0.66227 0.44956 0.65362 0.0
C537 C 0.55445 0.461 0.57591 0.0
C538 C 0.5693 0.47539 0.56273 0.0
C539 C 0.56379 0.44513 0.59197 0.0
C540 C 0.58816 0.44276 0.59444 0.0
C541 C 0.60288 0.45615 0.57996 0.0
C542 C 0.59355 0.47258 0.56456 0.0
C543 C 0.59843 0.42849 0.61374 0.0
C544 C 0.61548 0.43904 0.62808 0.0
C545 C 0.59069 0.40558 0.61921 0.0
C546 C 0.57286 0.39313 0.60489 0.0
C547 C 0.57527 0.39128 0.58057 0.0
C548 C 0.55788 0.38025 0.56728 0.0
C549 C 0.53822 0.37063 0.57809 0.0
C550 C 0.53584 0.37205 0.60224 0.0
C551 C 0.55304 0.38323 0.61561 0.0
H552 H 0.52481 0.3621 0.56774 0.0
H553 H 0.68539 0.47426 0.70246 0.0
H554 H 0.8722 0.65427 0.20584 0.0
H555 H 0.88837 0.6342 0.17224 0.0
H556 H 0.9561 0.66465 0.18651 0.0
H557 H 0.94017 0.68455 0.22035 0.0
H558 H 0.94563 0.667 0.14044 0.0
H559 H 0.94531 0.60835 0.19986 0.0
H560 H 0.92836 0.58375 0.23089 0.0
H561 H 0.87901 0.55492 0.18203 0.0
H562 H 0.89546 0.5796 0.15075 0.0
H563 H 0.01147 0.58668 0.07048 0.0
H564 H 0.99469 0.61433 0.09797 0.0
H565 H 0.92691 0.58201 0.08867 0.0
H566 H 0.94375 0.55426 0.06158 0.0
H567 H 0.93842 0.58145 0.13254 0.0
H568 H 0.93255 0.64732 0.07663 0.0
H569 H 0.94611 0.67634 0.0477 0.0
H570 H 0.00686 0.69075 0.08966 0.0
H571 H 0.99311 0.66255 0.11931 0.0
C572 C 0.8906 0.65651 0.20203 0.0
C573 C 0.90486 0.67102 0.21592 0.0
C574 C 0.89981 0.64508 0.18273 0.0
C575 C 0.92352 0.64776 0.17692 0.0
C576 C 0.93775 0.66237 0.19059 0.0
C577 C 0.92857 0.67379 0.20992 0.0
C578 C 0.93342 0.6353 0.1566 0.0
C579 C 0.9443 0.64825 0.13884 0.0
C580 C 0.93138 0.6109 0.15426 0.0
C581 C 0.92147 0.596 0.17302 0.0
C582 C 0.93072 0.59691 0.19577 0.0
C583 C 0.92122 0.58292 0.2134 0.0
C584 C 0.90258 0.56783 0.20845 0.0
C585 C 0.89343 0.56665 0.18584 0.0
C586 C 0.90284 0.58061 0.16815 0.0
C587 C 0.99283 0.58614 0.07362 0.0
C588 C 0.97891 0.56839 0.06388 0.0
C589 C 0.98321 0.60195 0.08938 0.0
C590 C 0.95946 0.60031 0.09553 0.0
C591 C 0.94527 0.58361 0.08438 0.0
C592 C 0.9549 0.56775 0.06886 0.0
C593 C 0.95021 0.61318 0.11597 0.0
C594 C 0.93964 0.60023 0.13399 0.0
C595 C 0.95258 0.63753 0.11856 0.0
C596 C 0.96203 0.65263 0.09991 0.0
C597 C 0.94895 0.65648 0.0795 0.0
C598 C 0.95654 0.67292 0.06311 0.0
C599 C 0.97741 0.68523 0.06676 0.0
C600 C 0.99072 0.68118 0.08684 0.0
C601 C 0.98296 0.6651 0.10352 0.0
H602 H 0.98323 0.69792 0.05404 0.0
H603 H 0.89526 0.55701 0.22212 0.0
H604 H 0.35373 0.15537 0.1898 0.0
H605 H 0.38719 0.13853 0.16972 0.0
H606 H 0.34102 0.11195 0.11625 0.0
H607 H 0.30749 0.12836 0.13641 0.0
H608 H 0.37237 0.07931 0.13082 0.0
H609 H 0.37443 0.16002 0.10675 0.0
H610 H 0.37621 0.20237 0.11314 0.0
H611 H 0.44177 0.19514 0.1492 0.0
H612 H 0.44021 0.15268 0.14328 0.0
H613 H 0.4428 0.05595 0.03517 0.0
H614 H 0.41495 0.07215 0.06245 0.0
H615 H 0.47174 0.09396 0.10735 0.0
H616 H 0.4999 0.0784 0.0793 0.0
H617 H 0.43854 0.12786 0.10228 0.0
H618 H 0.4389 0.04789 0.12293 0.0
H619 H 0.43778 0.00561 0.11617 0.0
H620 H 0.36853 0.01097 0.08747 0.0
H621 H 0.36935 0.05337 0.09373 0.0
C622 C 0.35069 0.14585 0.17381 0.0
C623 C 0.3279 0.14328 0.16468 0.0
C624 C 0.36986 0.13636 0.16228 0.0
C625 C 0.36667 0.12408 0.14138 0.0
C626 C 0.34394 0.12137 0.13232 0.0
C627 C 0.3248 0.13095 0.14376 0.0
C628 C 0.38688 0.11394 0.12888 0.0
C629 C 0.38675 0.08996 0.12444 0.0
C630 C 0.40611 0.12766 0.12128 0.0
C631 C 0.40706 0.15316 0.12482 0.0
C632 C 0.38912 0.16744 0.11622 0.0
C633 C 0.39011 0.19147 0.11972 0.0
C634 C 0.40905 0.20143 0.13164 0.0
C635 C 0.42708 0.18739 0.14002 0.0
C636 C 0.42616 0.16335 0.13658 0.0
C637 C 0.44942 0.06419 0.05084 0.0
C638 C 0.47358 0.06541 0.05539 0.0
C639 C 0.43345 0.07331 0.06653 0.0
C640 C 0.44117 0.08387 0.08722 0.0
C641 C 0.46534 0.08561 0.09164 0.0
C642 C 0.48142 0.0764 0.07584 0.0
C643 C 0.42371 0.09333 0.10372 0.0
C644 C 0.42435 0.11714 0.10895 0.0
C645 C 0.40499 0.07944 0.11219 0.0
C646 C 0.40425 0.05387 0.10868 0.0
C647 C 0.42348 0.04009 0.11505 0.0
C648 C 0.42289 0.01609 0.11132 0.0
C649 C 0.40311 0.00562 0.10136 0.0
C650 C 0.38384 0.01911 0.09518 0.0
C651 C 0.38435 0.04313 0.09885 0.0
H652 H 0.4027 0.98704 0.09846 0.0
H653 H 0.40979 0.22003 0.13433 0.0
H654 H 0.19353 0.86334 0.68061 0.0
H655 H 0.15974 0.88525 0.66639 0.0
H656 H 0.20538 0.92851 0.6248 0.0
H657 H 0.23922 0.90704 0.63927 0.0
H658 H 0.17144 0.95405 0.64613 0.0
H659 H 0.17556 0.88296 0.60082 0.0
H660 H 0.17619 0.84038 0.59606 0.0
H661 H 0.10941 0.83443 0.62944 0.0
H662 H 0.10853 0.87698 0.63466 0.0
H663 H 0.1072 0.99764 0.55192 0.0
H664 H 0.13334 0.97893 0.57983 0.0
H665 H 0.07514 0.93979 0.60791 0.0
H666 H 0.04907 0.95794 0.57891 0.0
H667 H 0.1106 0.91201 0.60044 0.0
H668 H 0.10306 0.9833 0.64012 0.0
H669 H 0.10168 0.02582 0.64494 0.0
H670 H 0.17339 0.03177 0.62386 0.0
H671 H 0.17511 0.98931 0.61855 0.0
C672 C 0.19641 0.87774 0.6687 0.0
C673 C 0.21911 0.88331 0.66096 0.0
C674 C 0.17705 0.89015 0.66046 0.0
C675 C 0.17996 0.9084 0.64432 0.0
C676 C 0.20266 0.91449 0.63719 0.0
C677 C 0.22199 0.90205 0.64533 0.0
C678 C 0.15946 0.92063 0.63402 0.0
C679 C 0.15817 0.9449 0.63606 0.0
C680 C 0.14162 0.90862 0.62162 0.0
C681 C 0.14211 0.88309 0.61837 0.0
C682 C 0.1611 0.87255 0.6073 0.0
C683 C 0.16148 0.84843 0.60449 0.0
C684 C 0.14288 0.8347 0.61251 0.0
C685 C 0.12382 0.84508 0.62328 0.0
C686 C 0.12336 0.86919 0.62616 0.0
C687 C 0.09991 0.98538 0.56438 0.0
C688 C 0.07599 0.97973 0.56378 0.0
C689 C 0.11484 0.97477 0.58044 0.0
C690 C 0.10623 0.95824 0.59641 0.0
C691 C 0.08218 0.95272 0.59602 0.0
C692 C 0.06718 0.96338 0.57978 0.0
C693 C 0.12289 0.9456 0.61195 0.0
C694 C 0.12352 0.92122 0.6109 0.0
C695 C 0.14001 0.95751 0.62544 0.0
C696 C 0.13917 0.98308 0.62883 0.0
C697 C 0.1185 0.99367 0.63638 0.0
C698 C 0.11766 0.01777 0.63921 0.0
C699 C 0.13743 0.03149 0.63469 0.0
C700 C 0.15809 0.02112 0.62737 0.0
C701 C 0.15902 0.99703 0.62448 0.0
H702 H 0.13674 0.05015 0.63688 0.0
H703 H 0.14321 0.81603 0.61032 0.0
H704 H 0.83985 0.37487 0.88106 0.0
H705 H 0.87433 0.39062 0.90102 0.0
H706 H 0.85468 0.46002 0.88058 0.0
H707 H 0.81999 0.44442 0.86073 0.0
H708 H 0.9013 0.45347 0.87501 0.0
H709 H 0.84518 0.44126 0.93554 0.0
H710 H 0.81639 0.41904 0.9587 0.0
H711 H 0.86937 0.37027 0.9785 0.0
H712 H 0.89842 0.39203 0.95518 0.0
H713 H 0.97491 0.51301 0.95816 0.0
H714 H 0.9466 0.49753 0.92997 0.0
H715 H 0.95676 0.42851 0.95805 0.0
H716 H 0.98363 0.44442 0.9873 0.0
H717 H 0.91413 0.43603 0.95879 0.0
H718 H 0.96752 0.44375 0.89144 0.0
H719 H 0.99528 0.46441 0.86541 0.0
H720 H 0.9476 0.52125 0.85893 0.0
H721 H 0.91946 0.50067 0.88441 0.0
C722 C 0.84271 0.39351 0.88097 0.0
C723 C 0.827 0.40836 0.86938 0.0
C724 C 0.8625 0.40249 0.89232 0.0
C725 C 0.867 0.42655 0.89251 0.0
C726 C 0.85162 0.4414 0.88063 0.0
C727 C 0.8318 0.43243 0.86925 0.0
C728 C 0.88755 0.43616 0.90542 0.0
C729 C 0.90404 0.44983 0.8934 0.0
C730 C 0.89134 0.43122 0.92931 0.0
C731 C 0.87392 0.41816 0.94343 0.0
C732 C 0.85065 0.4257 0.94469 0.0
C733 C 0.83429 0.4132 0.95787 0.0
C734 C 0.84104 0.39322 0.97002 0.0
C735 C 0.86417 0.38573 0.96906 0.0
C736 C 0.88059 0.39815 0.95588 0.0
C737 C 0.97158 0.49444 0.95776 0.0
C738 C 0.98129 0.47989 0.97491 0.0
C739 C 0.95545 0.4855 0.9415 0.0
C740 C 0.9493 0.46172 0.94172 0.0
C741 C 0.96085 0.44694 0.95758 0.0
C742 C 0.97635 0.45598 0.97422 0.0
C743 C 0.92861 0.45278 0.92827 0.0
C744 C 0.91174 0.43947 0.94032 0.0
C745 C 0.92452 0.45806 0.90444 0.0
C746 C 0.94172 0.47092 0.89011 0.0
C747 C 0.9632 0.46079 0.88467 0.0
C748 C 0.97887 0.47237 0.8699 0.0
C749 C 0.9733 0.4942 0.86073 0.0
C750 C 0.95195 0.50439 0.86612 0.0
C751 C 0.93608 0.49272 0.88058 0.0
H752 H 0.98551 0.50316 0.84939 0.0
H753 H 0.82835 0.38357 0.98021 0.0
H754 H 0.72181 0.61115 0.35201 0.0
H755 H 0.68789 0.59535 0.37263 0.0
H756 H 0.67818 0.66138 0.40625 0.0
H757 H 0.7118 0.67748 0.38538 0.0
H758 H 0.67724 0.62551 0.43709 0.0
H759 H 0.64152 0.64322 0.36301 0.0
H760 H 0.63702 0.64165 0.32028 0.0
H761 H 0.62835 0.56748 0.32378 0.0
H762 H 0.63315 0.56856 0.36652 0.0
H763 H 0.57241 0.602 0.49362 0.0
H764 H 0.59962 0.61963 0.4658 0.0
H765 H 0.60483 0.55403 0.43013 0.0
H766 H 0.57708 0.53654 0.45778 0.0
H767 H 0.60775 0.58912 0.39942 0.0
H768 H 0.64501 0.57013 0.47186 0.0
H769 H 0.65029 0.57002 0.51455 0.0
H770 H 0.65769 0.64438 0.51396 0.0
H771 H 0.65211 0.64496 0.47128 0.0
C772 C 0.71226 0.62247 0.36348 0.0
C773 C 0.71963 0.64564 0.367 0.0
C774 C 0.69285 0.61336 0.3753 0.0
C775 C 0.68035 0.62722 0.39086 0.0
C776 C 0.68757 0.65035 0.39434 0.0
C777 C 0.70691 0.65949 0.38249 0.0
C778 C 0.66047 0.61733 0.40442 0.0
C779 C 0.66189 0.6179 0.42882 0.0
C780 C 0.64079 0.60662 0.39366 0.0
C781 C 0.63795 0.60595 0.36796 0.0
C782 C 0.63887 0.62655 0.35466 0.0
C783 C 0.63622 0.62575 0.33044 0.0
C784 C 0.63247 0.60447 0.31932 0.0
C785 C 0.6313 0.58395 0.33241 0.0
C786 C 0.63397 0.58464 0.35664 0.0
C787 C 0.57895 0.59153 0.47948 0.0
C788 C 0.57258 0.56798 0.47767 0.0
C789 C 0.5946 0.60155 0.46368 0.0
C790 C 0.60476 0.58803 0.44619 0.0
C791 C 0.59731 0.56482 0.4435 0.0
C792 C 0.58134 0.55486 0.45917 0.0
C793 C 0.62441 0.59763 0.43207 0.0
C794 C 0.62306 0.59686 0.40764 0.0
C795 C 0.64437 0.6079 0.44276 0.0
C796 C 0.64793 0.6076 0.4684 0.0
C797 C 0.64761 0.58647 0.48085 0.0
C798 C 0.65067 0.58632 0.50505 0.0
C799 C 0.65427 0.60719 0.51697 0.0
C800 C 0.65487 0.62824 0.50471 0.0
C801 C 0.65178 0.62849 0.48051 0.0
H802 H 0.65663 0.60704 0.5357 0.0
H803 H 0.63041 0.60389 0.30057 0.0
H804 H 0.19864 0.33832 0.12689 0.0
H805 H 0.17768 0.37192 0.1115 0.0
H806 H 0.11214 0.34044 0.13186 0.0
H807 H 0.13294 0.30637 0.14661 0.0
H808 H 0.1086 0.35903 0.08908 0.0
H809 H 0.13676 0.38533 0.16408 0.0
H810 H 0.16645 0.39316 0.1945 0.0
H811 H 0.20411 0.43769 0.14724 0.0
H812 H 0.17489 0.42972 0.11643 0.0
H813 H 0.03584 0.45735 0.09092 0.0
H814 H 0.06114 0.42677 0.10553 0.0
H815 H 0.11851 0.45493 0.06573 0.0
H816 H 0.09286 0.48536 0.05003 0.0
H817 H 0.12672 0.43852 0.11717 0.0
H818 H 0.09687 0.41367 0.04202 0.0
H819 H 0.06531 0.40691 0.0133 0.0
H820 H 0.03094 0.36032 0.06104 0.0
H821 H 0.06212 0.36711 0.09021 0.0
C822 C 0.17975 0.33841 0.12793 0.0
C823 C 0.1675 0.31958 0.13804 0.0
C824 C 0.16779 0.35778 0.11931 0.0
C825 C 0.14332 0.35886 0.12072 0.0
C826 C 0.13102 0.34004 0.13062 0.0
C827 C 0.14297 0.32065 0.13925 0.0
C828 C 0.13054 0.37958 0.11186 0.0
C829 C 0.11269 0.37642 0.09521 0.0
C830 C 0.13595 0.40238 0.11956 0.0
C831 C 0.15369 0.4069 0.13796 0.0
C832 C 0.15146 0.39666 0.16015 0.0
C833 C 0.16821 0.40112 0.17745 0.0
C834 C 0.18716 0.4159 0.1728 0.0
C835 C 0.18943 0.42624 0.15083 0.0
C836 C 0.17277 0.42177 0.13345 0.0
C837 C 0.0539 0.45736 0.08536 0.0
C838 C 0.06223 0.47393 0.06915 0.0
C839 C 0.06832 0.43977 0.09378 0.0
C840 C 0.09156 0.43841 0.08649 0.0
C841 C 0.10054 0.45568 0.0715 0.0
C842 C 0.08591 0.47319 0.06268 0.0
C843 C 0.10579 0.41815 0.09374 0.0
C844 C 0.12347 0.4213 0.11042 0.0
C845 C 0.10034 0.39541 0.08598 0.0
C846 C 0.08173 0.39108 0.06837 0.0
C847 C 0.08248 0.40215 0.04647 0.0
C848 C 0.06468 0.39828 0.0301 0.0
C849 C 0.0461 0.38324 0.03537 0.0
C850 C 0.04533 0.37198 0.057 0.0
C851 C 0.06307 0.37582 0.07344 0.0
H852 H 0.03234 0.38027 0.02267 0.0
H853 H 0.20009 0.41936 0.18623 0.0
H854 H 0.64872 0.22397 0.87879 0.0
H855 H 0.6293 0.19042 0.89664 0.0
H856 H 0.67476 0.19601 0.95661 0.0
H857 H 0.694 0.22998 0.93912 0.0
H858 H 0.67038 0.15089 0.94133 0.0
H859 H 0.61952 0.21295 0.96112 0.0
H860 H 0.59522 0.24744 0.95391 0.0
H861 H 0.55102 0.20785 0.90782 0.0
H862 H 0.57527 0.17319 0.9145 0.0
H863 H 0.59619 0.06998 0.00724 0.0
H864 H 0.62279 0.1008 0.99303 0.0
H865 H 0.5801 0.1085 0.93126 0.0
H866 H 0.55358 0.07839 0.94547 0.0
H867 H 0.58451 0.14866 0.95239 0.0
H868 H 0.63851 0.08973 0.92661 0.0
H869 H 0.66546 0.05672 0.92886 0.0
H870 H 0.70338 0.09006 0.98449 0.0
H871 H 0.67682 0.12359 0.98213 0.0
C872 C 0.65443 0.21832 0.89591 0.0
C873 C 0.67292 0.22983 0.90751 0.0
C874 C 0.64334 0.19904 0.90607 0.0
C875 C 0.65043 0.19081 0.92807 0.0
C876 C 0.66902 0.20204 0.93961 0.0
C877 C 0.68006 0.22142 0.92951 0.0
C878 C 0.6385 0.17034 0.9388 0.0
C879 C 0.65164 0.15052 0.94418 0.0
C880 C 0.61403 0.16972 0.94217 0.0
C881 C 0.59934 0.19051 0.93818 0.0
C882 C 0.60473 0.21164 0.94931 0.0
C883 C 0.59094 0.23122 0.94534 0.0
C884 C 0.57162 0.22985 0.93038 0.0
C885 C 0.56601 0.20889 0.9194 0.0
C886 C 0.57975 0.18926 0.92329 0.0
C887 C 0.59294 0.07784 0.99035 0.0
C888 C 0.57263 0.07204 0.97762 0.0
C889 C 0.60812 0.09547 0.98223 0.0
C890 C 0.60328 0.10726 0.96118 0.0
C891 C 0.58406 0.09998 0.94769 0.0
C892 C 0.56892 0.08267 0.95581 0.0
C893 C 0.61626 0.1288 0.9542 0.0
C894 C 0.60328 0.14901 0.94976 0.0
C895 C 0.64082 0.12972 0.95162 0.0
C896 C 0.65553 0.10893 0.95443 0.0
C897 C 0.65239 0.08984 0.93955 0.0
C898 C 0.66771 0.07111 0.94075 0.0
C899 C 0.68608 0.07118 0.95695 0.0
C900 C 0.68912 0.08999 0.972 0.0
C901 C 0.67401 0.1089 0.97067 0.0
H902 H 0.69809 0.05679 0.95777 0.0
H903 H 0.56097 0.24503 0.92733 0.0
H904 H 0.85019 0.83228 0.42319 0.0
H905 H 0.8707 0.86577 0.44003 0.0
H906 H 0.92235 0.86248 0.38579 0.0
H907 H 0.90168 0.82943 0.36847 0.0
H908 H 0.94201 0.86484 0.42912 0.0
H909 H 0.88203 0.9044 0.38592 0.0
H910 H 0.84153 0.91342 0.37439 0.0
H911 H 0.82665 0.93502 0.4442 0.0
H912 H 0.86695 0.92564 0.45631 0.0
H913 H 0.00638 0.96639 0.44422 0.0
H914 H 0.97863 0.93884 0.42709 0.0
H915 H 0.93246 0.94786 0.4854 0.0
H916 H 0.96037 0.97566 0.50274 0.0
H917 H 0.90826 0.94274 0.44273 0.0
H918 H 0.96724 0.90301 0.48629 0.0
H919 H 0.00746 0.89374 0.4986 0.0
H920 H 0.0236 0.87227 0.42902 0.0
H921 H 0.98354 0.88175 0.4162 0.0
C922 C 0.86567 0.8389 0.41456 0.0
C923 C 0.87427 0.828 0.39444 0.0
C924 C 0.87742 0.85805 0.42428 0.0
C925 C 0.89802 0.86672 0.41413 0.0
C926 C 0.90652 0.85605 0.39397 0.0
C927 C 0.89474 0.83702 0.38417 0.0
C928 C 0.91147 0.8861 0.42508 0.0
C929 C 0.93467 0.88194 0.43182 0.0
C930 C 0.90165 0.9082 0.42939 0.0
C931 C 0.87743 0.91393 0.42212 0.0
C932 C 0.87006 0.9108 0.3989 0.0
C933 C 0.84715 0.91601 0.39225 0.0
C934 C 0.83148 0.92458 0.4086 0.0
C935 C 0.83877 0.9282 0.4316 0.0
C936 C 0.86164 0.92294 0.43837 0.0
C937 C 0.99017 0.9628 0.45327 0.0
C938 C 0.9856 0.97315 0.47487 0.0
C939 C 0.97432 0.94703 0.44345 0.0
C940 C 0.95366 0.94096 0.45515 0.0
C941 C 0.94833 0.95226 0.47609 0.0
C942 C 0.96424 0.9682 0.48594 0.0
C943 C 0.93886 0.92151 0.44626 0.0
C944 C 0.91547 0.92559 0.44007 0.0
C945 C 0.94838 0.8992 0.44256 0.0
C946 C 0.97244 0.89328 0.45024 0.0
C947 C 0.97941 0.89647 0.47357 0.0
C948 C 1.00218 0.89116 0.48065 0.0
C949 C 0.01809 0.88247 0.46459 0.0
C950 C 0.01125 0.87902 0.44143 0.0
C951 C 0.98852 0.88434 0.43425 0.0
H952 H 0.03571 0.87836 0.47011 0.0
H953 H 0.81373 0.92849 0.40343 0.0
H954 H 0.37943 0.68132 0.689 0.0
H955 H 0.39527 0.64887 0.66701 0.0
H956 H 0.40769 0.69444 0.60839 0.0
H957 H 0.39202 0.72712 0.63038 0.0
H958 H 0.39176 0.65066 0.59464 0.0
H959 H 0.45147 0.68281 0.64504 0.0
H960 H 0.46802 0.69566 0.68266 0.0
H961 H 0.45927 0.62674 0.7106 0.0
H962 H 0.44234 0.61355 0.6732 0.0
H963 H 0.48287 0.59121 0.53642 0.0
H964 H 0.45558 0.61736 0.55552 0.0
H965 H 0.45511 0.57249 0.61612 0.0
H966 H 0.48345 0.54702 0.59727 0.0
H967 H 0.46183 0.61383 0.62956 0.0
H968 H 0.40848 0.58014 0.5754 0.0
H969 H 0.39114 0.56817 0.53801 0.0
H970 H 0.38825 0.63937 0.51565 0.0
H971 H 0.40553 0.65195 0.55299 0.0
C972 C 0.38548 0.68449 0.67141 0.0
C973 C 0.38473 0.70697 0.66162 0.0
C974 C 0.39443 0.66586 0.65881 0.0
C975 C 0.40298 0.66925 0.63615 0.0
C976 C 0.40119 0.69138 0.62585 0.0
C977 C 0.39219 0.71006 0.63845 0.0
C978 C 0.41535 0.65021 0.62394 0.0
C979 C 0.40724 0.6427 0.60206 0.0
C980 C 0.43515 0.6394 0.63398 0.0
C981 C 0.44541 0.64726 0.65642 0.0
C982 C 0.4529 0.67044 0.65927 0.0
C983 C 0.46238 0.67778 0.68054 0.0
C984 C 0.46463 0.66204 0.69903 0.0
C985 C 0.45747 0.63892 0.69627 0.0
C986 C 0.44795 0.6315 0.67504 0.0
C987 C 0.47647 0.58676 0.55363 0.0
C988 C 0.48497 0.56714 0.56539 0.0
C989 C 0.46079 0.60163 0.56452 0.0
C990 C 0.45293 0.59687 0.58725 0.0
C991 C 0.4608 0.5766 0.59861 0.0
C992 C 0.47687 0.56198 0.58784 0.0
C993 C 0.43844 0.6141 0.59994 0.0
C994 C 0.44622 0.62143 0.62201 0.0
C995 C 0.4184 0.62469 0.58991 0.0
C996 C 0.40833 0.61704 0.56719 0.0
C997 C 0.40423 0.59332 0.56259 0.0
C998 C 0.39439 0.58639 0.54135 0.0
C999 C 0.38865 0.60296 0.52445 0.0
C1000 C 0.39268 0.62654 0.52878 0.0
C1001 C 0.40242 0.63359 0.55003 0.0
H1002 H 0.38105 0.59754 0.50801 0.0
H1003 H 0.47198 0.66776 0.71548 0.0
H1004 H 0.96407 0.88925 0.75411 0.0
H1005 H 0.98002 0.90674 0.71863 0.0
H1006 H 0.98621 0.97285 0.7534 0.0
H1007 H 0.97017 0.95546 0.78893 0.0
H1008 H 0.96731 0.97863 0.71218 0.0
H1009 H 0.03457 0.93886 0.74092 0.0
H1010 H 0.05743 0.90568 0.75558 0.0
H1011 H 0.04517 0.8693 0.69143 0.0
H1012 H 0.02192 0.90213 0.67651 0.0
H1013 H 0.02773 0.03658 0.62362 0.0
H1014 H 0.02333 0.0167 0.66121 0.0
H1015 H 0.00742 0.95255 0.62563 0.0
H1016 H 0.0116 0.97256 0.58797 0.0
H1017 H 0.03336 0.94601 0.66765 0.0
H1018 H 0.96401 0.98519 0.64046 0.0
H1019 H 0.94197 0.01892 0.62576 0.0
H1020 H 0.95918 0.05684 0.68791 0.0
H1021 H 0.98165 0.02344 0.70282 0.0
C1022 C 0.96909 0.90745 0.7543 0.0
C1023 C 0.96583 0.92095 0.7744 0.0
C1024 C 0.97826 0.91744 0.73399 0.0
C1025 C 0.98463 0.94108 0.73335 0.0
C1026 C 0.98145 0.95458 0.75341 0.0
C1027 C 0.97217 0.94463 0.7737 0.0
C1028 C 0.99354 0.95202 0.71149 0.0
C1029 C 0.98202 0.97167 0.70272 0.0
C1030 C 0.01241 0.9427 0.69874 0.0
C1031 C 0.02629 0.92288 0.70769 0.0
C1032 C 0.03656 0.9237 0.73002 0.0
C1033 C 0.04963 0.90497 0.73836 0.0
C1034 C 0.05269 0.88537 0.72447 0.0
C1035 C 0.04274 0.88448 0.70218 0.0
C1036 C 0.02964 0.90316 0.69377 0.0
C1037 C 0.02408 0.01806 0.62387 0.0
C1038 C 0.02045 0.00594 0.60295 0.0
C1039 C 0.02147 0.00675 0.64532 0.0
C1040 C 0.01478 0.9832 0.64622 0.0
C1041 C 0.01272 0.97068 0.62534 0.0
C1042 C 0.01534 0.98204 0.60383 0.0
C1043 C 0.00717 0.97255 0.66862 0.0
C1044 C 0.0188 0.95296 0.67733 0.0
C1045 C 0.98844 0.98192 0.68144 0.0
C1046 C 0.9747 1.00191 0.67264 0.0
C1047 C 0.96323 1.00078 0.65091 0.0
C1048 C 0.95065 0.01983 0.64255 0.0
C1049 C 0.94923 0.04003 0.65587 0.0
C1050 C 0.96033 0.0412 0.6776 0.0
C1051 C 0.97298 0.02221 0.68602 0.0
H1052 H 0.93948 0.05476 0.64937 0.0
H1053 H 0.06283 0.87089 0.73095 0.0
H1054 H 0.61263 0.14287 0.25187 0.0
H1055 H 0.59539 0.12882 0.21542 0.0
H1056 H 0.53917 0.09628 0.2537 0.0
H1057 H 0.55656 0.11 0.29035 0.0
H1058 H 0.55701 0.06735 0.22094 0.0
H1059 H 0.52881 0.14502 0.223 0.0
H1060 H 0.53156 0.1876 0.2271 0.0
H1061 H 0.57681 0.19156 0.16776 0.0
H1062 H 0.57461 0.14895 0.1635 0.0
H1063 H 0.5053 0.0326 0.11473 0.0
H1064 H 0.50726 0.05358 0.15194 0.0
H1065 H 0.56521 0.09457 0.12602 0.0
H1066 H 0.56277 0.07406 0.08884 0.0
H1067 H 0.53984 0.12019 0.15449 0.0
H1068 H 0.57325 0.04297 0.15654 0.0
H1069 H 0.57205 1.00031 0.15244 0.0
H1070 H 0.5183 0.99566 0.20421 0.0
H1071 H 0.51899 0.03836 0.20839 0.0
C1072 C 0.59667 0.13261 0.25257 0.0
C1073 C 0.586 0.12755 0.27405 0.0
C1074 C 0.58669 0.12479 0.23168 0.0
C1075 C 0.5658 0.11174 0.23177 0.0
C1076 C 0.55521 0.10644 0.25319 0.0
C1077 C 0.56511 0.1144 0.2741 0.0
C1078 C 0.55556 0.10302 0.20951 0.0
C1079 C 0.55278 0.07895 0.20658 0.0
C1080 C 0.55037 0.11809 0.19061 0.0
C1081 C 0.55168 0.14375 0.19304 0.0
C1082 C 0.53949 0.15494 0.21093 0.0
C1083 C 0.54093 0.1791 0.21326 0.0
C1084 C 0.55439 0.19228 0.19773 0.0
C1085 C 0.5664 0.18133 0.17979 0.0
C1086 C 0.56504 0.15718 0.17739 0.0
C1087 C 0.5178 0.04672 0.11679 0.0
C1088 C 0.53373 0.05199 0.099 0.0
C1089 C 0.5191 0.05854 0.13808 0.0
C1090 C 0.53673 0.07535 0.142 0.0
C1091 C 0.55148 0.08171 0.1235 0.0
C1092 C 0.55005 0.07005 0.10223 0.0
C1093 C 0.54173 0.0845 0.16579 0.0
C1094 C 0.54363 0.10863 0.16901 0.0
C1095 C 0.54627 0.06949 0.18494 0.0
C1096 C 0.54598 0.04384 0.18257 0.0
C1097 C 0.56108 0.03285 0.16694 0.0
C1098 C 0.5605 0.00867 0.16461 0.0
C1099 C 0.54506 0.99529 0.17801 0.0
C1100 C 0.53021 0.00605 0.19381 0.0
C1101 C 0.53069 0.03024 0.19617 0.0
H1102 H 0.54464 0.97657 0.17618 0.0
H1103 H 0.55548 0.21097 0.19957 0.0
H1104 H 0.44665 0.62919 0.28205 0.0
H1105 H 0.46218 0.61474 0.31907 0.0
H1106 H 0.52461 0.5921 0.28448 0.0
H1107 H 0.50894 0.60621 0.24715 0.0
H1108 H 0.50745 0.55906 0.31491 0.0
H1109 H 0.52762 0.63949 0.31753 0.0
H1110 H 0.52099 0.68166 0.31405 0.0
H1111 H 0.47003 0.6778 0.36859 0.0
H1112 H 0.4761 0.63553 0.37217 0.0
H1113 H 0.54872 0.52654 0.4276 0.0
H1114 H 0.5494 0.54715 0.38992 0.0
H1115 H 0.48526 0.58155 0.40779 0.0
H1116 H 0.48522 0.56175 0.44555 0.0
H1117 H 0.51211 0.61045 0.38401 0.0
H1118 H 0.48665 0.52969 0.37582 0.0
H1119 H 0.49197 0.48727 0.37904 0.0
H1120 H 0.55213 0.49185 0.33481 0.0
H1121 H 0.5473 0.53436 0.33156 0.0
C1122 C 0.4636 0.62097 0.28224 0.0
C1123 C 0.47654 0.61885 0.26162 0.0
C1124 C 0.47258 0.61293 0.30347 0.0
C1125 C 0.49471 0.60262 0.30461 0.0
C1126 C 0.50756 0.60013 0.28403 0.0
C1127 C 0.49864 0.60831 0.26275 0.0
C1128 C 0.50402 0.59411 0.32733 0.0
C1129 C 0.50897 0.57039 0.32991 0.0
C1130 C 0.50582 0.60884 0.34697 0.0
C1131 C 0.50223 0.6343 0.34502 0.0
C1132 C 0.51489 0.6476 0.32868 0.0
C1133 C 0.51124 0.67153 0.32671 0.0
C1134 C 0.49507 0.68239 0.34107 0.0
C1135 C 0.48255 0.66936 0.35747 0.0
C1136 C 0.48611 0.64542 0.35951 0.0
C1137 C 0.53536 0.53921 0.42373 0.0
C1138 C 0.51716 0.54299 0.43949 0.0
C1139 C 0.53553 0.55072 0.40211 0.0
C1140 C 0.51718 0.56569 0.39583 0.0
C1141 C 0.49964 0.57019 0.41217 0.0
C1142 C 0.4996 0.55888 0.43373 0.0
C1143 C 0.51475 0.57525 0.37177 0.0
C1144 C 0.51109 0.5992 0.36891 0.0
C1145 C 0.51402 0.56072 0.35189 0.0
C1146 C 0.51678 0.53519 0.35367 0.0
C1147 C 0.50108 0.52165 0.3669 0.0
C1148 C 0.504 0.4976 0.36872 0.0
C1149 C 0.52242 0.48689 0.3572 0.0
C1150 C 0.5379 0.50019 0.34376 0.0
C1151 C 0.53508 0.52425 0.34192 0.0
H1152 H 0.52465 0.46827 0.35863 0.0
H1153 H 0.49227 0.70092 0.33951 0.0
H1154 H 0.0718 0.45091 0.75358 0.0
H1155 H 0.05085 0.4612 0.78908 0.0
H1156 H 0.10123 0.42343 0.83035 0.0
H1157 H 0.12196 0.41276 0.79489 0.0
H1158 H 0.05851 0.41811 0.84844 0.0
H1159 H 0.10607 0.4827 0.82121 0.0
H1160 H 0.11921 0.51207 0.79255 0.0
H1161 H 0.04991 0.53994 0.78907 0.0
H1162 H 0.03628 0.51051 0.8175 0.0
H1163 H 0.06286 0.47759 0.95631 0.0
H1164 H 0.06685 0.45718 0.91934 0.0
H1165 H 0.01632 0.50317 0.88782 0.0
H1166 H 0.01301 0.524 0.92479 0.0
H1167 H 0.05231 0.50275 0.86273 0.0
H1168 H 0.00863 0.4427 0.89945 0.0
H1169 H 0.99749 0.41366 0.92899 0.0
H1170 H 0.06128 0.37696 0.91718 0.0
H1171 H 0.07294 0.406 0.88767 0.0
C1172 C 0.07828 0.44466 0.77022 0.0
C1173 C 0.09866 0.43122 0.77146 0.0
C1174 C 0.06628 0.45051 0.79049 0.0
C1175 C 0.07467 0.44341 0.81246 0.0
C1176 C 0.09439 0.42909 0.81363 0.0
C1177 C 0.10625 0.42302 0.79334 0.0
C1178 C 0.06418 0.45238 0.83427 0.0
C1179 C 0.05722 0.4366 0.85174 0.0
C1180 C 0.06192 0.47651 0.83826 0.0
C1181 C 0.07011 0.49424 0.82123 0.0
C1182 C 0.0936 0.49499 0.81419 0.0
C1183 C 0.10114 0.51166 0.79801 0.0
C1184 C 0.08539 0.52782 0.78894 0.0
C1185 C 0.06207 0.52738 0.79607 0.0
C1186 C 0.05444 0.51071 0.81221 0.0
C1187 C 0.05199 0.48269 0.94165 0.0
C1188 C 0.0374 0.50203 0.94326 0.0
C1189 C 0.05422 0.47103 0.92052 0.0
C1190 C 0.04161 0.47833 0.90072 0.0
C1191 C 0.02603 0.49698 0.90282 0.0
C1192 C 0.02403 0.50882 0.92393 0.0
C1193 C 0.04696 0.46852 0.8774 0.0
C1194 C 0.05305 0.4842 0.85954 0.0
C1195 C 0.04863 0.44428 0.87331 0.0
C1196 C 0.04161 0.42663 0.89112 0.0
C1197 C 0.02028 0.42847 0.90303 0.0
C1198 C 0.01389 0.412 0.91987 0.0
C1199 C 0.02865 0.39343 0.92494 0.0
C1200 C 0.04982 0.39133 0.91319 0.0
C1201 C 0.05631 0.4078 0.89635 0.0
H1202 H 0.02369 0.38069 0.938 0.0
H1203 H 0.09126 0.54071 0.77642 0.0
H1204 H 0.76008 0.95988 0.88664 0.0
H1205 H 0.72377 0.97369 0.90376 0.0
H1206 H 0.75306 0.96453 0.97262 0.0
H1207 H 0.78945 0.95078 0.95563 0.0
H1208 H 0.71001 0.94722 0.97081 0.0
H1209 H 0.74667 0.01898 0.94745 0.0
H1210 H 0.76501 0.04749 0.92087 0.0
H1211 H 0.70307 0.04774 0.87821 0.0
H1212 H 0.68449 0.01893 0.90435 0.0
H1213 H 0.63051 0.00579 0.03905 0.0
H1214 H 0.66601 0.99686 0.01783 0.0
H1215 H 0.6297 0.00796 0.95264 0.0
H1216 H 0.59397 0.01757 0.97403 0.0
H1217 H 0.67381 0.02237 0.94961 0.0
H1218 H 0.63667 0.95279 0.97491 0.0
H1219 H 0.61787 0.92578 1.00271 0.0
H1220 H 0.68127 0.92291 0.04303 0.0
H1221 H 0.70037 0.9502 0.01566 0.0
C1222 C 0.75891 0.96106 0.90543 0.0
C1223 C 0.77774 0.95423 0.91975 0.0
C1224 C 0.73811 0.96896 0.9152 0.0
C1225 C 0.7357 0.97038 0.9395 0.0
C1226 C 0.75445 0.96354 0.95382 0.0
C1227 C 0.77524 0.9556 0.94408 0.0
C1228 C 0.71349 0.97837 0.95006 0.0
C1229 C 0.70237 0.96389 0.96646 0.0
C1230 C 0.70295 0.99971 0.94378 0.0
C1231 C 0.71432 0.01654 0.92767 0.0
C1232 C 0.73707 0.02488 0.93223 0.0
C1233 C 0.74749 0.04115 0.91728 0.0
C1234 C 0.73525 0.04936 0.89781 0.0
C1235 C 0.71256 0.04131 0.89325 0.0
C1236 C 0.70209 0.025 0.90812 0.0
C1237 C 0.63017 0.00678 0.02019 0.0
C1238 C 0.60938 0.01207 0.00819 0.0
C1239 C 0.65044 1.00146 0.00806 0.0
C1240 C 0.65031 1.00084 0.98363 0.0
C1241 C 0.63011 0.00794 0.97152 0.0
C1242 C 0.60975 0.01357 0.98373 0.0
C1243 C 0.67105 0.99191 0.97106 0.0
C1244 C 0.68168 0.00594 0.95407 0.0
C1245 C 0.68125 0.97027 0.9769 0.0
C1246 C 0.6699 0.95369 0.99331 0.0
C1247 C 0.64656 0.94652 0.98979 0.0
C1248 C 0.63585 0.93115 0.00546 0.0
C1249 C 0.64835 0.92267 0.02465 0.0
C1250 C 0.67161 0.92951 0.02817 0.0
C1251 C 0.68239 0.94491 0.01257 0.0
H1252 H 0.64003 0.91077 0.03677 0.0
H1253 H 0.74333 0.062 0.88629 0.0
H1254 H 0.7877 0.07179 0.38742 0.0
H1255 H 0.82337 0.05512 0.40388 0.0
H1256 H 0.80029 0.07244 0.47301 0.0
H1257 H 0.76454 0.08901 0.4567 0.0
H1258 H 0.84404 0.0858 0.46712 0.0
H1259 H 0.80006 0.0161 0.45247 0.0
H1260 H 0.77738 0.98787 0.42911 0.0
H1261 H 0.83654 0.97757 0.38481 0.0
H1262 H 0.85947 0.00607 0.40766 0.0
H1263 H 0.92191 0.02706 0.53723 0.0
H1264 H 0.88522 0.03184 0.51598 0.0
H1265 H 0.92178 0.02643 0.4508 0.0
H1266 H 0.9589 0.02169 0.47215 0.0
H1267 H 0.87279 0.00611 0.4523 0.0
H1268 H 0.91617 0.07695 0.46727 0.0
H1269 H 0.93862 0.10402 0.4922 0.0
H1270 H 0.87946 0.11096 0.53723 0.0
H1271 H 0.85679 0.08359 0.51278 0.0
C1272 C 0.79004 0.07178 0.40616 0.0
C1273 C 0.77319 0.08182 0.42071 0.0
C1274 C 0.81048 0.0622 0.41555 0.0
C1275 C 0.8145 0.06232 0.43973 0.0
C1276 C 0.79765 0.07218 0.45429 0.0
C1277 C 0.77724 0.08177 0.44492 0.0
C1278 C 0.83675 0.05333 0.44985 0.0
C1279 C 0.8501 0.06828 0.46401 0.0
C1280 C 0.84513 0.03064 0.44537 0.0
C1281 C 0.83137 0.01352 0.43157 0.0
C1282 C 0.80816 0.00803 0.43759 0.0
C1283 C 0.79527 0.99194 0.42446 0.0
C1284 C 0.80545 0.98108 0.40538 0.0
C1285 C 0.82862 0.98613 0.3995 0.0
C1286 C 0.84158 1.00224 0.41254 0.0
C1287 C 0.9221 0.02619 0.51838 0.0
C1288 C 0.94331 0.02423 0.50635 0.0
C1289 C 0.90109 0.02891 0.50626 0.0
C1290 C 0.90084 0.02987 0.48184 0.0
C1291 C 0.92163 0.02575 0.46967 0.0
C1292 C 0.94281 0.02299 0.48187 0.0
C1293 C 0.87964 0.03854 0.46964 0.0
C1294 C 0.86663 0.02363 0.45516 0.0
C1295 C 0.87141 0.06126 0.47382 0.0
C1296 C 0.88486 0.07806 0.48831 0.0
C1297 C 0.90801 0.08411 0.48258 0.0
C1298 C 0.92077 0.09952 0.49661 0.0
C1299 C 0.91049 0.10917 0.51631 0.0
C1300 C 0.88741 0.10346 0.52198 0.0
C1301 C 0.87459 0.08801 0.50803 0.0
H1302 H 0.9204 0.12109 0.52716 0.0
H1303 H 0.79542 0.96867 0.39522 0.0
H1304 H 0.29504 0.579 0.08823 0.0
H1305 H 0.25734 0.56534 0.07297 0.0
H1306 H 0.22413 0.58461 0.13721 0.0
H1307 H 0.26189 0.59794 0.15277 0.0
H1308 H 0.20948 0.54161 0.12187 0.0
H1309 H 0.21804 0.61854 0.09023 0.0
H1310 H 0.2381 0.6504 0.06922 0.0
H1311 H 0.2395 0.60904 0.00717 0.0
H1312 H 0.21973 0.57679 0.02791 0.0
H1313 H 0.09148 0.53675 0.07508 0.0
H1314 H 0.12878 0.54422 0.09539 0.0
H1315 H 0.16571 0.53467 0.03082 0.0
H1316 H 0.12863 0.52812 0.01059 0.0
H1317 H 0.17778 0.57415 0.04814 0.0
H1318 H 0.17087 0.49697 0.07901 0.0
H1319 H 0.15351 0.46372 0.09973 0.0
H1320 H 0.15027 0.50389 0.16257 0.0
H1321 H 0.16746 0.53764 0.14195 0.0
C1322 C 0.27975 0.58017 0.09919 0.0
C1323 C 0.28146 0.58964 0.12169 0.0
C1324 C 0.25818 0.57252 0.09037 0.0
C1325 C 0.23786 0.57418 0.10386 0.0
C1326 C 0.23956 0.58325 0.12647 0.0
C1327 C 0.26111 0.59102 0.13526 0.0
C1328 C 0.21486 0.56653 0.09429 0.0
C1329 C 0.20232 0.54893 0.10592 0.0
C1330 C 0.2058 0.57576 0.07324 0.0
C1331 C 0.2176 0.59517 0.06069 0.0
C1332 C 0.22279 0.61617 0.07215 0.0
C1333 C 0.23408 0.63431 0.06029 0.0
C1334 C 0.24012 0.63172 0.03689 0.0
C1335 C 0.23483 0.61101 0.0253 0.0
C1336 C 0.22357 0.5928 0.0371 0.0
C1337 C 0.10767 0.53551 0.0655 0.0
C1338 C 0.10726 0.53194 0.0413 0.0
C1339 C 0.12899 0.53985 0.07706 0.0
C1340 C 0.15015 0.54028 0.0646 0.0
C1341 C 0.14969 0.53478 0.04079 0.0
C1342 C 0.1285 0.53082 0.02927 0.0
C1343 C 0.17243 0.54874 0.07542 0.0
C1344 C 0.18481 0.56673 0.0641 0.0
C1345 C 0.18136 0.53977 0.09667 0.0
C1346 C 0.17017 0.51989 0.10887 0.0
C1347 C 0.16616 0.49883 0.09716 0.0
C1348 C 0.15639 0.47984 0.10895 0.0
C1349 C 0.15069 0.48165 0.13253 0.0
C1350 C 0.15466 0.50252 0.14431 0.0
C1351 C 0.16442 0.52158 0.13257 0.0
H1352 H 0.14333 0.4669 0.14179 0.0
H1353 H 0.24886 0.64579 0.02773 0.0
H1354 H 0.26764 0.45584 0.57188 0.0
H1355 H 0.30425 0.47615 0.56316 0.0
H1356 H 0.32413 0.47288 0.63569 0.0
H1357 H 0.28756 0.4521 0.64458 0.0
H1358 H 0.33687 0.51642 0.61204 0.0
H1359 H 0.3452 0.4336 0.6042 0.0
H1360 H 0.33348 0.39466 0.59035 0.0
H1361 H 0.33951 0.41788 0.51938 0.0
H1362 H 0.35091 0.45709 0.53282 0.0
H1363 H 0.46375 0.51153 0.57076 0.0
H1364 H 0.42836 0.50646 0.59418 0.0
H1365 H 0.38589 0.52142 0.53374 0.0
H1366 H 0.42114 0.52545 0.51011 0.0
H1367 H 0.38725 0.47226 0.55828 0.0
H1368 H 0.34654 0.55727 0.58569 0.0
H1369 H 0.35591 0.59556 0.60286 0.0
H1370 H 0.41576 0.56665 0.63748 0.0
H1371 H 0.40642 0.52815 0.62096 0.0
C1372 C 0.27972 0.4595 0.58604 0.0
C1373 C 0.27483 0.45196 0.60887 0.0
C1374 C 0.30055 0.47129 0.58104 0.0
C1375 C 0.31699 0.47581 0.59874 0.0
C1376 C 0.31163 0.46961 0.6218 0.0
C1377 C 0.29073 0.45772 0.62683 0.0
C1378 C 0.34058 0.48477 0.59255 0.0
C1379 C 0.34802 0.50673 0.60044 0.0
C1380 C 0.35521 0.47199 0.57767 0.0
C1381 C 0.34874 0.44832 0.56952 0.0
C1382 C 0.34388 0.43044 0.58564 0.0
C1383 C 0.3373 0.40832 0.57787 0.0
C1384 C 0.33571 0.40381 0.554 0.0
C1385 C 0.34074 0.42141 0.53786 0.0
C1386 C 0.34728 0.44358 0.54555 0.0
C1387 C 0.44688 0.5148 0.56278 0.0
C1388 C 0.44509 0.51887 0.53867 0.0
C1389 C 0.42665 0.51208 0.57623 0.0
C1390 C 0.40444 0.51414 0.56586 0.0
C1391 C 0.40284 0.52023 0.5422 0.0
C1392 C 0.42296 0.52243 0.52869 0.0
C1393 C 0.38346 0.50415 0.57731 0.0
C1394 C 0.37632 0.4819 0.57015 0.0
C1395 C 0.36939 0.5166 0.59302 0.0
C1396 C 0.3761 0.53996 0.60162 0.0
C1397 C 0.3618 0.55915 0.59682 0.0
C1398 C 0.36698 0.58084 0.6066 0.0
C1399 C 0.38641 0.58351 0.62126 0.0
C1400 C 0.4008 0.56457 0.62602 0.0
C1401 C 0.39563 0.54283 0.61635 0.0
H1402 H 0.3903 0.60025 0.62897 0.0
H1403 H 0.33061 0.38667 0.54802 0.0
H1404 H 0.93566 0.78925 0.99443 0.0
H1405 H 0.95098 0.75288 0.01057 0.0
H1406 H 0.93298 0.71759 0.9467 0.0
H1407 H 0.91728 0.75369 0.93065 0.0
H1408 H 0.92096 0.69183 0.98526 0.0
H1409 H 0.98839 0.73507 0.95729 0.0
H1410 H 0.01501 0.769 0.95541 0.0
H1411 H 0.02959 0.76226 0.02863 0.0
H1412 H 1.00281 0.72847 0.03099 0.0
H1413 H 0.99292 0.5947 0.9751 0.0
H1414 H 0.97167 0.63122 0.97229 0.0
H1415 H 1.00075 0.65254 0.03852 0.0
H1416 H 0.02247 0.61592 0.04101 0.0
H1417 H 1.0048 0.68637 0.00695 0.0
H1418 H 0.94379 0.63627 0.03165 0.0
H1419 H 0.91776 0.60209 0.0323 0.0
H1420 H 0.89101 0.62031 0.96462 0.0
H1421 H 0.91714 0.65457 0.96336 0.0
C1422 C 0.9348 0.7737 0.9839 0.0
C1423 C 0.92536 0.77442 0.96118 0.0
C1424 C 0.94367 0.75295 0.99311 0.0
C1425 C 0.94324 0.73252 0.97981 0.0
C1426 C 0.93349 0.73312 0.9573 0.0
C1427 C 0.92474 0.75384 0.94805 0.0
C1428 C 0.95348 0.71058 0.9889 0.0
C1429 C 0.93931 0.69053 0.98989 0.0
C1430 C 0.97723 0.70914 0.99578 0.0
C1431 C 0.99335 0.72943 0.99438 0.0
C1432 C 0.99711 0.74095 0.97303 0.0
C1433 C 0.01226 0.76014 0.97187 0.0
C1434 C 0.02392 0.76783 0.99191 0.0
C1435 C 0.0205 0.75632 0.01313 0.0
C1436 C 0.00534 0.73714 0.01439 0.0
C1437 C 0.9943 0.60701 0.98928 0.0
C1438 C 0.00878 0.60244 0.00852 0.0
C1439 C 0.98214 0.62784 0.98772 0.0
C1440 C 0.98419 0.64451 0.00542 0.0
C1441 C 0.99857 0.63983 0.02484 0.0
C1442 C 0.01078 0.61886 0.0264 0.0
C1443 C 0.97248 0.66731 1.00253 0.0
C1444 C 0.98634 0.68759 1.00274 0.0
C1445 C 0.94842 0.66888 0.99669 0.0
C1446 C 0.93249 0.64822 0.99746 0.0
C1447 C 0.93241 0.63312 0.01687 0.0
C1448 C 0.91763 0.61364 0.01734 0.0
C1449 C 0.9027 0.60905 0.99853 0.0
C1450 C 0.90254 0.62393 0.97922 0.0
C1451 C 0.91733 0.64343 0.97864 0.0
H1452 H 0.89127 0.59394 0.99891 0.0
H1453 H 0.03565 0.78268 0.99097 0.0
H1454 H 0.44374 0.75422 0.04279 0.0
H1455 H 0.45763 0.79169 0.02733 0.0
H1456 H 0.44183 0.82425 0.09283 0.0
H1457 H 0.42762 0.78708 0.10821 0.0
H1458 H 0.42678 0.85021 0.05541 0.0
H1459 H 0.49714 0.80969 0.07958 0.0
H1460 H 0.52505 0.77729 0.07906 0.0
H1461 H 0.53571 0.78785 0.00573 0.0
H1462 H 0.5076 0.82014 0.00577 0.0
H1463 H 0.4976 0.94758 0.07295 0.0
H1464 H 0.4783 0.90955 0.07264 0.0
H1465 H 0.49957 0.89952 1.00141 0.0
H1466 H 0.51903 0.93804 1.00171 0.0
H1467 H 0.50949 0.86138 0.03189 0.0
H1468 H 0.44514 0.90678 0.00954 0.0
H1469 H 0.41926 0.94073 0.01068 0.0
H1470 H 0.397 0.92131 0.07946 0.0
H1471 H 0.42346 0.88771 0.07907 0.0
C1472 C 0.44312 0.7694 0.05384 0.0
C1473 C 0.4347 0.76764 0.07679 0.0
C1474 C 0.45116 0.79076 0.04501 0.0
C1475 C 0.45084 0.81075 0.05896 0.0
C1476 C 0.44221 0.80907 0.08175 0.0
C1477 C 0.43432 0.78775 0.09061 0.0
C1478 C 0.45983 0.83347 0.05018 0.0
C1479 C 0.44486 0.85267 0.0503 0.0
C1480 C 0.4832 0.83651 0.04263 0.0
C1481 C 0.50005 0.81711 0.04262 0.0
C1482 C 0.50528 0.80496 0.06331 0.0
C1483 C 0.52116 0.78665 0.06311 0.0
C1484 C 0.53208 0.78046 0.04236 0.0
C1485 C 0.52719 0.79262 0.02178 0.0
C1486 C 0.51129 0.81093 0.02188 0.0
C1487 C 0.49787 0.93739 0.05712 0.0
C1488 C 0.50948 0.94573 0.03726 0.0
C1489 C 0.48683 0.91571 0.05694 0.0
C1490 C 0.48736 0.90178 0.03696 0.0
C1491 C 0.49889 0.91008 0.01696 0.0
C1492 C 0.5098 0.93205 0.01708 0.0
C1493 C 0.47664 0.8782 0.03791 0.0
C1494 C 0.49124 0.85883 0.03639 0.0
C1495 C 0.45291 0.87498 0.04407 0.0
C1496 C 0.43642 0.89478 0.04429 0.0
C1497 C 0.43485 0.90985 0.02497 0.0
C1498 C 0.42006 0.92903 0.02547 0.0
C1499 C 0.40641 0.93313 0.04509 0.0
C1500 C 0.40756 0.91808 0.06426 0.0
C1501 C 0.42249 0.89897 0.06391 0.0
H1502 H 0.39494 0.94799 0.04545 0.0
H1503 H 0.54439 0.76629 0.04224 0.0
H1504 H 0.14327 0.25735 0.59882 0.0
H1505 H 0.13198 0.22169 0.57824 0.0
H1506 H 0.06372 0.25004 0.56452 0.0
H1507 H 0.07491 0.2857 0.58478 0.0
H1508 H 0.06108 0.20796 0.58506 0.0
H1509 H 0.10263 0.2423 0.52081 0.0
H1510 H 0.13643 0.26013 0.50086 0.0
H1511 H 0.17674 0.1988 0.51399 0.0
H1512 H 0.14327 0.18072 0.53433 0.0
H1513 H 0.00806 0.12324 0.52062 0.0
H1514 H 0.02786 0.16059 0.52637 0.0
H1515 H 0.09321 0.12532 0.53747 0.0
H1516 H 0.07349 0.08778 0.53061 0.0
H1517 H 0.1003 0.16932 0.51903 0.0
H1518 H 0.05951 0.1354 0.58325 0.0
H1519 H 0.02606 0.11691 0.60321 0.0
H1520 H 0.98475 0.17769 0.5907 0.0
H1521 H 0.01786 0.19642 0.5703 0.0
C1522 C 0.12603 0.25619 0.59097 0.0
C1523 C 0.1099 0.27428 0.59368 0.0
C1524 C 0.11961 0.23578 0.57921 0.0
C1525 C 0.09698 0.23317 0.56986 0.0
C1526 C 0.08122 0.2516 0.57172 0.0
C1527 C 0.08761 0.27194 0.58342 0.0
C1528 C 0.08887 0.2106 0.56003 0.0
C1529 C 0.06941 0.19978 0.57032 0.0
C1530 C 0.10033 0.19938 0.54144 0.0
C1531 C 0.12053 0.21027 0.52935 0.0
C1532 C 0.11878 0.2327 0.51967 0.0
C1533 C 0.13786 0.24283 0.50823 0.0
C1534 C 0.15875 0.23064 0.50623 0.0
C1535 C 0.16057 0.20825 0.5156 0.0
C1536 C 0.14154 0.19805 0.52707 0.0
C1537 C 0.02682 0.12353 0.5234 0.0
C1538 C 0.03922 0.1027 0.52553 0.0
C1539 C 0.03809 0.14485 0.52684 0.0
C1540 C 0.06182 0.14566 0.53325 0.0
C1541 C 0.07483 0.12506 0.53285 0.0
C1542 C 0.06357 0.10364 0.52888 0.0
C1543 C 0.07183 0.16737 0.54337 0.0
C1544 C 0.09181 0.17774 0.53352 0.0
C1545 C 0.06094 0.17827 0.56248 0.0
C1546 C 0.0411 0.16723 0.57508 0.0
C1547 C 0.04325 0.14477 0.58464 0.0
C1548 C 0.02435 0.13425 0.59603 0.0
C1549 C 1.00328 0.1461 0.59818 0.0
C1550 C 1.00108 0.16853 0.589 0.0
C1551 C 0.01991 0.17911 0.57753 0.0
H1552 H 0.98867 0.13792 0.60701 0.0
H1553 H 0.1735 0.2385 0.49736 0.0
H1554 H 0.65999 0.28754 0.46659 0.0
H1555 H 0.64257 0.32356 0.48036 0.0
H1556 H 0.57385 0.29634 0.46432 0.0
H1557 H 0.59112 0.26024 0.45066 0.0
H1558 H 0.57856 0.3392 0.44794 0.0
H1559 H 0.59445 0.30134 0.52091 0.0
H1560 H 0.61834 0.28204 0.5511 0.0
H1561 H 0.66184 0.34303 0.55684 0.0
H1562 H 0.63842 0.36258 0.52641 0.0
H1563 H 0.50662 0.41941 0.49976 0.0
H1564 H 0.5279 0.38336 0.49427 0.0
H1565 H 0.59289 0.4191 0.50904 0.0
H1566 H 0.5715 0.45543 0.51487 0.0
H1567 H 0.59341 0.37408 0.5256 0.0
H1568 H 0.57642 0.41191 0.45357 0.0
H1569 H 0.55191 0.43152 0.42409 0.0
H1570 H 0.50939 0.36996 0.41729 0.0
H1571 H 0.53345 0.35008 0.447 0.0
C1572 C 0.64114 0.28906 0.46628 0.0
C1573 C 0.62699 0.27092 0.45745 0.0
C1574 C 0.63119 0.30972 0.47418 0.0
C1575 C 0.60685 0.31267 0.47358 0.0
C1576 C 0.59268 0.29454 0.46491 0.0
C1577 C 0.6026 0.27392 0.45699 0.0
C1578 C 0.59611 0.33495 0.48098 0.0
C1579 C 0.58148 0.34654 0.46511 0.0
C1580 C 0.60058 0.34512 0.50305 0.0
C1581 C 0.61487 0.33331 0.52114 0.0
C1582 C 0.60927 0.31055 0.52842 0.0
C1583 C 0.62269 0.29958 0.54562 0.0
C1584 C 0.64165 0.31127 0.55582 0.0
C1585 C 0.64719 0.33397 0.54888 0.0
C1586 C 0.63385 0.345 0.53165 0.0
C1587 C 0.5254 0.41955 0.50229 0.0
C1588 C 0.53739 0.44035 0.50753 0.0
C1589 C 0.53757 0.39892 0.49905 0.0
C1590 C 0.56207 0.39865 0.50054 0.0
C1591 C 0.57401 0.41895 0.50756 0.0
C1592 C 0.56175 0.43968 0.51101 0.0
C1593 C 0.57496 0.37762 0.49298 0.0
C1594 C 0.59025 0.36651 0.50859 0.0
C1595 C 0.57103 0.36775 0.4707 0.0
C1596 C 0.55663 0.37957 0.45266 0.0
C1597 C 0.56175 0.4026 0.4459 0.0
C1598 C 0.54795 0.41376 0.42914 0.0
C1599 C 0.52908 0.40201 0.41886 0.0
C1600 C 0.52401 0.37905 0.42528 0.0
C1601 C 0.53773 0.36782 0.44207 0.0
H1602 H 0.51841 0.41068 0.40588 0.0
H1603 H 0.652 0.30276 0.56915 0.0
loop_
_geom_bond_atom_site_label_1
_geom_bond_atom_site_label_2
_geom_bond_distance
_geom_bond_site_symmetry_2
_ccdc_geom_bond_type
C0 C1 1.264 . S
C0 C5 1.479 . S
C0 C10 1.465 . S
C1 C0 1.264 . S
C1 C3 1.339 . S
C1 H28 0.931 . S
C2 C3 1.395 . S
C2 C4 1.320 . S
C3 C1 1.339 . S
C3 C2 1.395 . S
C3 H29 0.929 . S
C4 C2 1.320 . S
C4 C5 1.405 . S
C4 H30 0.930 . S
C5 C0 1.479 . S
C5 C4 1.405 . S
C5 H31 0.931 . S
U6 O7 2.454 . S
U6 O8 2.458 . S
U6 C9 2.984 . S
U6 C10 2.847 . S
U6 C23 2.882 . S
U6 O24 2.441 . S
U6 O25 2.420 . S
U6 O26 2.455 . S
U6 O27 2.449 . S
O7 U6 2.454 . S
O7 C9 1.353 . S
O8 U6 2.458 . S
O8 C9 1.286 . S
C9 U6 2.984 . S
C9 O7 1.353 . S
C9 O8 1.286 . S
C9 C11 1.363 . S
C10 C0 1.465 . S
C10 U6 2.847 . S
C10 O24 1.249 . S
C10 O25 1.202 . S
C11 C9 1.363 . S
C11 C13 1.408 . S
C11 C16 1.342 . S
C12 C13 1.310 . S
C12 C15 1.461 . S
C12 H32 0.932 . S
C13 C11 1.408 . S
C13 C12 1.310 . S
C13 H33 0.930 . S
C14 C15 1.474 . S
C14 C16 1.285 . S
C14 H34 0.929 . S
C15 C12 1.461 . S
C15 C14 1.474 . S
C16 C11 1.342 . S
C16 C14 1.285 . S
C16 H35 0.930 . S
C17 C20 1.424 . S
C17 C22 1.245 . S
C17 C23 1.428 . S
C18 C21 1.260 . S
C18 C22 1.477 . S
C18 H36 0.932 . S
C19 C20 1.384 . S
C19 C21 1.479 . S
C19 H37 0.929 . S
C20 C17 1.424 . S
C20 C19 1.384 . S
C20 H38 0.928 . S
C21 C18 1.260 . S
C21 C19 1.479 . S
C22 C17 1.245 . S
C22 C18 1.477 . S
C22 H39 0.932 . S
C23 U6 2.882 . S
C23 C17 1.428 . S
C23 O26 1.301 . S
C23 O27 1.282 . S
O24 U6 2.441 . S
O24 C10 1.249 . S
O25 U6 2.420 . S
O25 C10 1.202 . S
O26 U6 2.455 . S
O26 C23 1.301 . S
O27 U6 2.449 . S
O27 C23 1.282 . S
H28 C1 0.931 . S
H29 C3 0.929 . S
H30 C4 0.930 . S
H31 C5 0.931 . S
H32 C12 0.932 . S
H33 C13 0.930 . S
H34 C14 0.929 . S
H35 C16 0.930 . S
H36 C18 0.932 . S
H37 C19 0.929 . S
H38 C20 0.928 . S
H39 C22 0.932 . S
C40 C41 1.264 . S
C40 C45 1.479 . S
C40 C50 1.465 . S
C41 C40 1.264 . S
C41 C43 1.339 . S
C41 H68 0.931 . S
C42 C43 1.395 . S
C42 C44 1.320 . S
C43 C41 1.339 . S
C43 C42 1.395 . S
C43 H69 0.929 . S
C44 C42 1.320 . S
C44 C45 1.405 . S
C44 H70 0.930 . S
C45 C40 1.479 . S
C45 C44 1.405 . S
C45 H71 0.931 . S
U46 O47 2.454 . S
U46 O48 2.458 . S
U46 C49 2.984 . S
U46 C50 2.847 . S
U46 C63 2.882 . S
U46 O64 2.441 . S
U46 O65 2.420 . S
U46 O66 2.455 . S
U46 O67 2.449 . S
O47 U46 2.454 . S
O47 C49 1.353 . S
O48 U46 2.458 . S
O48 C49 1.286 . S
C49 U46 2.984 . S
C49 O47 1.353 . S
C49 O48 1.286 . S
C49 C51 1.363 . S
C50 C40 1.465 . S
C50 U46 2.847 . S
C50 O64 1.249 . S
C50 O65 1.202 . S
C51 C49 1.363 . S
C51 C53 1.408 . S
C51 C56 1.342 . S
C52 C53 1.310 . S
C52 C55 1.461 . S
C52 H72 0.932 . S
C53 C51 1.408 . S
C53 C52 1.310 . S
C53 H73 0.930 . S
C54 C55 1.474 . S
C54 C56 1.285 . S
C54 H74 0.929 . S
C55 C52 1.461 . S
C55 C54 1.474 . S
C56 C51 1.342 . S
C56 C54 1.285 . S
C56 H75 0.930 . S
C57 C60 1.424 . S
C57 C62 1.245 . S
C57 C63 1.428 . S
C58 C61 1.260 . S
C58 C62 1.477 . S
C58 H76 0.932 . S
C59 C60 1.384 . S
C59 C61 1.479 . S
C59 H77 0.929 . S
C60 C57 1.424 . S
C60 C59 1.384 . S
C60 H78 0.928 . S
C61 C58 1.260 . S
C61 C59 1.479 . S
C62 C57 1.245 . S
C62 C58 1.477 . S
C62 H79 0.932 . S
C63 U46 2.882 . S
C63 C57 1.428 . S
C63 O66 1.301 . S
C63 O67 1.282 . S
O64 U46 2.441 . S
O64 C50 1.249 . S
O65 U46 2.420 . S
O65 C50 1.202 . S
O66 U46 2.455 . S
O66 C63 1.301 . S
O67 U46 2.449 . S
O67 C63 1.282 . S
H68 C41 0.931 . S
H69 C43 0.929 . S
H70 C44 0.930 . S
H71 C45 0.931 . S
H72 C52 0.932 . S
H73 C53 0.930 . S
H74 C54 0.929 . S
H75 C56 0.930 . S
H76 C58 0.932 . S
H77 C59 0.929 . S
H78 C60 0.928 . S
H79 C62 0.932 . S
C80 C81 1.264 . S
C80 C85 1.479 . S
C80 C90 1.465 . S
C81 C80 1.264 . S
C81 C83 1.339 . S
C81 H108 0.931 . S
C82 C83 1.395 . S
C82 C84 1.320 . S
C83 C81 1.339 . S
C83 C82 1.395 . S
C83 H109 0.929 . S
C84 C82 1.320 . S
C84 C85 1.405 . S
C84 H110 0.930 . S
C85 C80 1.479 . S
C85 C84 1.405 . S
C85 H111 0.931 . S
U86 O87 2.454 . S
U86 O88 2.458 . S
U86 C89 2.984 . S
U86 C90 2.847 . S
U86 C103 2.882 . S
U86 O104 2.441 . S
U86 O105 2.420 . S
U86 O106 2.455 . S
U86 O107 2.449 . S
O87 U86 2.454 . S
O87 C89 1.353 . S
O88 U86 2.458 . S
O88 C89 1.286 . S
C89 U86 2.984 . S
C89 O87 1.353 . S
C89 O88 1.286 . S
C89 C91 1.363 . S
C90 C80 1.465 . S
C90 U86 2.847 . S
C90 O104 1.249 . S
C90 O105 1.202 . S
C91 C89 1.363 . S
C91 C93 1.408 . S
C91 C96 1.342 . S
C92 C93 1.310 . S
C92 C95 1.461 . S
C92 H112 0.932 . S
C93 C91 1.408 . S
C93 C92 1.310 . S
C93 H113 0.930 . S
C94 C95 1.474 . S
C94 C96 1.285 . S
C94 H114 0.929 . S
C95 C92 1.461 . S
C95 C94 1.474 . S
C96 C91 1.342 . S
C96 C94 1.285 . S
C96 H115 0.930 . S
C97 C100 1.424 . S
C97 C102 1.245 . S
C97 C103 1.428 . S
C98 C101 1.260 . S
C98 C102 1.477 . S
C98 H116 0.932 . S
C99 C100 1.384 . S
C99 C101 1.479 . S
C99 H117 0.929 . S
C100 C97 1.424 . S
C100 C99 1.384 . S
C100 H118 0.928 . S
C101 C98 1.260 . S
C101 C99 1.479 . S
C102 C97 1.245 . S
C102 C98 1.477 . S
C102 H119 0.932 . S
C103 U86 2.882 . S
C103 C97 1.428 . S
C103 O106 1.301 . S
C103 O107 1.282 . S
O104 U86 2.441 . S
O104 C90 1.249 . S
O105 U86 2.420 . S
O105 C90 1.202 . S
O106 U86 2.455 . S
O106 C103 1.301 . S
O107 U86 2.449 . S
O107 C103 1.282 . S
H108 C81 0.931 . S
H109 C83 0.929 . S
H110 C84 0.930 . S
H111 C85 0.931 . S
H112 C92 0.932 . S
H113 C93 0.930 . S
H114 C94 0.929 . S
H115 C96 0.930 . S
H116 C98 0.932 . S
H117 C99 0.929 . S
H118 C100 0.928 . S
H119 C102 0.932 . S
C120 C121 1.264 . S
C120 C125 1.479 . S
C120 C130 1.465 . S
C121 C120 1.264 . S
C121 C123 1.339 . S
C121 H148 0.931 . S
C122 C123 1.395 . S
C122 C124 1.320 . S
C123 C121 1.339 . S
C123 C122 1.395 . S
C123 H149 0.929 . S
C124 C122 1.320 . S
C124 C125 1.405 . S
C124 H150 0.930 . S
C125 C120 1.479 . S
C125 C124 1.405 . S
C125 H151 0.931 . S
U126 O127 2.454 . S
U126 O128 2.458 . S
U126 C129 2.984 . S
U126 C130 2.847 . S
U126 C143 2.882 . S
U126 O144 2.441 . S
U126 O145 2.420 . S
U126 O146 2.455 . S
U126 O147 2.449 . S
O127 U126 2.454 . S
O127 C129 1.353 . S
O128 U126 2.458 . S
O128 C129 1.286 . S
C129 U126 2.984 . S
C129 O127 1.353 . S
C129 O128 1.286 . S
C129 C131 1.363 . S
C130 C120 1.465 . S
C130 U126 2.847 . S
C130 O144 1.249 . S
C130 O145 1.202 . S
C131 C129 1.363 . S
C131 C133 1.408 . S
C131 C136 1.342 . S
C132 C133 1.310 . S
C132 C135 1.461 . S
C132 H152 0.932 . S
C133 C131 1.408 . S
C133 C132 1.310 . S
C133 H153 0.930 . S
C134 C135 1.474 . S
C134 C136 1.285 . S
C134 H154 0.929 . S
C135 C132 1.461 . S
C135 C134 1.474 . S
C136 C131 1.342 . S
C136 C134 1.285 . S
C136 H155 0.930 . S
C137 C140 1.424 . S
C137 C142 1.245 . S
C137 C143 1.428 . S
C138 C141 1.260 . S
C138 C142 1.477 . S
C138 H156 0.932 . S
C139 C140 1.384 . S
C139 C141 1.479 . S
C139 H157 0.929 . S
C140 C137 1.424 . S
C140 C139 1.384 . S
C140 H158 0.928 . S
C141 C138 1.260 . S
C141 C139 1.479 . S
C142 C137 1.245 . S
C142 C138 1.477 . S
C142 H159 0.932 . S
C143 U126 2.882 . S
C143 C137 1.428 . S
C143 O146 1.301 . S
C143 O147 1.282 . S
O144 U126 2.441 . S
O144 C130 1.249 . S
O145 U126 2.420 . S
O145 C130 1.202 . S
O146 U126 2.455 . S
O146 C143 1.301 . S
O147 U126 2.449 . S
O147 C143 1.282 . S
H148 C121 0.931 . S
H149 C123 0.929 . S
H150 C124 0.930 . S
H151 C125 0.931 . S
H152 C132 0.932 . S
H153 C133 0.930 . S
H154 C134 0.929 . S
H155 C136 0.930 . S
H156 C138 0.932 . S
H157 C139 0.929 . S
H158 C140 0.928 . S
H159 C142 0.932 . S
C160 C161 1.264 . S
C160 C165 1.479 . S
C160 C170 1.465 . S
C161 C160 1.264 . S
C161 C163 1.339 . S
C161 H188 0.931 . S
C162 C163 1.395 . S
C162 C164 1.320 . S
C163 C161 1.339 . S
C163 C162 1.395 . S
C163 H189 0.929 1_655 S
C164 C162 1.320 . S
C164 C165 1.405 . S
C164 H190 0.930 . S
C165 C160 1.479 . S
C165 C164 1.405 . S
C165 H191 0.931 . S
U166 O167 2.454 . S
U166 O168 2.458 . S
U166 C169 2.984 . S
U166 C170 2.847 . S
U166 C183 2.882 . S
U166 O184 2.441 . S
U166 O185 2.420 . S
U166 O186 2.455 . S
U166 O187 2.449 . S
O167 U166 2.454 . S
O167 C169 1.353 . S
O168 U166 2.458 . S
O168 C169 1.286 . S
C169 U166 2.984 . S
C169 O167 1.353 . S
C169 O168 1.286 . S
C169 C171 1.363 . S
C170 C160 1.465 . S
C170 U166 2.847 . S
C170 O184 1.249 . S
C170 O185 1.202 . S
C171 C169 1.363 . S
C171 C173 1.408 . S
C171 C176 1.342 . S
C172 C173 1.310 . S
C172 C175 1.461 . S
C172 H192 0.932 1_556 S
C173 C171 1.408 . S
C173 C172 1.310 . S
C173 H193 0.930 . S
C174 C175 1.474 . S
C174 C176 1.285 . S
C174 H194 0.919 1_565 S
C175 C172 1.461 . S
C175 C174 1.474 . S
C176 C171 1.342 . S
C176 C174 1.285 . S
C176 H195 0.930 . S
C177 C180 1.424 . S
C177 C182 1.245 . S
C177 C183 1.428 . S
C178 C181 1.260 . S
C178 C182 1.477 . S
C178 H196 0.932 . S
C179 C180 1.384 . S
C179 C181 1.479 . S
C179 H197 0.929 . S
C180 C177 1.424 . S
C180 C179 1.384 . S
C180 H198 0.928 . S
C181 C178 1.260 . S
C181 C179 1.479 . S
C182 C177 1.245 . S
C182 C178 1.477 . S
C182 H199 0.932 . S
C183 U166 2.882 . S
C183 C177 1.428 . S
C183 O186 1.301 . S
C183 O187 1.282 . S
O184 U166 2.441 . S
O184 C170 1.249 . S
O185 U166 2.420 . S
O185 C170 1.202 . S
O186 U166 2.455 . S
O186 C183 1.301 . S
O187 U166 2.449 . S
O187 C183 1.282 . S
H188 C161 0.931 . S
H189 C163 0.929 1_455 S
H190 C164 0.930 . S
H191 C165 0.931 . S
H192 C172 0.932 1_554 S
H193 C173 0.930 . S
H194 C174 0.919 1_545 S
H195 C176 0.930 . S
H196 C178 0.932 . S
H197 C179 0.929 . S
H198 C180 0.928 . S
H199 C182 0.932 . S
C200 C201 1.264 . S
C200 C205 1.479 . S
C200 C210 1.465 . S
C201 C200 1.264 . S
C201 C203 1.339 . S
C201 H228 0.931 . S
C202 C203 1.395 . S
C202 C204 1.320 . S
C203 C201 1.339 . S
C203 C202 1.395 . S
C203 H229 0.929 . S
C204 C202 1.320 . S
C204 C205 1.405 . S
C204 H230 0.930 . S
C205 C200 1.479 . S
C205 C204 1.405 . S
C205 H231 0.931 . S
U206 O207 2.454 . S
U206 O208 2.458 . S
U206 C209 2.984 . S
U206 C210 2.847 . S
U206 C223 2.882 . S
U206 O224 2.441 . S
U206 O225 2.420 . S
U206 O226 2.455 . S
U206 O227 2.449 . S
O207 U206 2.454 . S
O207 C209 1.353 . S
O208 U206 2.458 . S
O208 C209 1.286 . S
C209 U206 2.984 . S
C209 O207 1.353 . S
C209 O208 1.286 . S
C209 C211 1.363 . S
C210 C200 1.465 . S
C210 U206 2.847 . S
C210 O224 1.249 . S
C210 O225 1.202 . S
C211 C209 1.363 . S
C211 C213 1.408 . S
C211 C216 1.342 . S
C212 C213 1.310 . S
C212 C215 1.461 . S
C212 H232 0.932 . S
C213 C211 1.408 . S
C213 C212 1.310 . S
C213 H233 0.930 . S
C214 C215 1.474 . S
C214 C216 1.285 . S
C214 H234 0.929 . S
C215 C212 1.461 . S
C215 C214 1.474 . S
C216 C211 1.342 . S
C216 C214 1.285 . S
C216 H235 0.930 . S
C217 C220 1.424 . S
C217 C222 1.245 . S
C217 C223 1.428 . S
C218 C221 1.260 . S
C218 C222 1.477 . S
C218 H236 0.932 . S
C219 C220 1.384 . S
C219 C221 1.479 . S
C219 H237 0.929 . S
C220 C217 1.424 . S
C220 C219 1.384 . S
C220 H238 0.928 . S
C221 C218 1.260 . S
C221 C219 1.479 . S
C222 C217 1.245 . S
C222 C218 1.477 . S
C222 H239 0.932 . S
C223 U206 2.882 . S
C223 C217 1.428 . S
C223 O226 1.301 . S
C223 O227 1.282 . S
O224 U206 2.441 . S
O224 C210 1.249 . S
O225 U206 2.420 . S
O225 C210 1.202 . S
O226 U206 2.455 . S
O226 C223 1.301 . S
O227 U206 2.449 . S
O227 C223 1.282 . S
H228 C201 0.931 . S
H229 C203 0.929 . S
H230 C204 0.930 . S
H231 C205 0.931 . S
H232 C212 0.932 . S
H233 C213 0.930 . S
H234 C214 0.929 . S
H235 C216 0.930 . S
H236 C218 0.932 . S
H237 C219 0.929 . S
H238 C220 0.928 . S
H239 C222 0.932 . S
C240 C241 1.264 . S
C240 C245 1.479 . S
C240 C250 1.465 . S
C241 C240 1.264 . S
C241 C243 1.339 . S
C241 H268 0.931 . S
C242 C243 1.395 . S
C242 C244 1.320 . S
C243 C241 1.339 . S
C243 C242 1.395 . S
C243 H269 0.929 . S
C244 C242 1.320 . S
C244 C245 1.405 . S
C244 H270 0.930 . S
C245 C240 1.479 . S
C245 C244 1.405 . S
C245 H271 0.931 . S
U246 O247 2.454 . S
U246 O248 2.458 . S
U246 C249 2.984 . S
U246 C250 2.847 . S
U246 C263 2.882 . S
U246 O264 2.441 . S
U246 O265 2.420 . S
U246 O266 2.455 . S
U246 O267 2.449 . S
O247 U246 2.454 . S
O247 C249 1.353 . S
O248 U246 2.458 . S
O248 C249 1.286 . S
C249 U246 2.984 . S
C249 O247 1.353 . S
C249 O248 1.286 . S
C249 C251 1.363 . S
C250 C240 1.465 . S
C250 U246 2.847 . S
C250 O264 1.249 . S
C250 O265 1.202 . S
C251 C249 1.363 . S
C251 C253 1.408 . S
C251 C256 1.342 . S
C252 C253 1.310 . S
C252 C255 1.461 . S
C252 H272 0.932 . S
C253 C251 1.408 . S
C253 C252 1.310 . S
C253 H273 0.930 . S
C254 C255 1.474 . S
C254 C256 1.285 . S
C254 H274 0.929 . S
C255 C252 1.461 . S
C255 C254 1.474 . S
C256 C251 1.342 . S
C256 C254 1.285 . S
C256 H275 0.930 . S
C257 C260 1.424 . S
C257 C262 1.245 . S
C257 C263 1.428 . S
C258 C261 1.260 . S
C258 C262 1.477 . S
C258 H276 0.932 . S
C259 C260 1.384 . S
C259 C261 1.479 . S
C259 H277 0.929 . S
C260 C257 1.424 . S
C260 C259 1.384 . S
C260 H278 0.928 . S
C261 C258 1.260 . S
C261 C259 1.479 . S
C262 C257 1.245 . S
C262 C258 1.477 . S
C262 H279 0.932 . S
C263 U246 2.882 . S
C263 C257 1.428 . S
C263 O266 1.301 . S
C263 O267 1.282 . S
O264 U246 2.441 . S
O264 C250 1.249 . S
O265 U246 2.420 . S
O265 C250 1.202 . S
O266 U246 2.455 . S
O266 C263 1.301 . S
O267 U246 2.449 . S
O267 C263 1.282 . S
H268 C241 0.931 . S
H269 C243 0.929 . S
H270 C244 0.930 . S
H271 C245 0.931 . S
H272 C252 0.932 . S
H273 C253 0.930 . S
H274 C254 0.929 . S
H275 C256 0.930 . S
H276 C258 0.932 . S
H277 C259 0.929 . S
H278 C260 0.928 . S
H279 C262 0.932 . S
C280 C281 1.264 . S
C280 C285 1.479 . S
C280 C290 1.465 . S
C281 C280 1.264 . S
C281 C283 1.339 . S
C281 H308 0.931 . S
C282 C283 1.395 . S
C282 C284 1.320 . S
C283 C281 1.339 . S
C283 C282 1.395 . S
C283 H309 0.929 . S
C284 C282 1.320 . S
C284 C285 1.405 . S
C284 H310 0.930 . S
C285 C280 1.479 . S
C285 C284 1.405 . S
C285 H311 0.931 . S
U286 O287 2.454 . S
U286 O288 2.458 . S
U286 C289 2.984 . S
U286 C290 2.847 . S
U286 C303 2.882 . S
U286 O304 2.441 . S
U286 O305 2.420 . S
U286 O306 2.455 . S
U286 O307 2.449 . S
O287 U286 2.454 . S
O287 C289 1.353 . S
O288 U286 2.458 . S
O288 C289 1.286 . S
C289 U286 2.984 . S
C289 O287 1.353 . S
C289 O288 1.286 . S
C289 C291 1.363 . S
C290 C280 1.465 . S
C290 U286 2.847 . S
C290 O304 1.249 . S
C290 O305 1.202 . S
C291 C289 1.363 . S
C291 C293 1.408 . S
C291 C296 1.342 . S
C292 C293 1.310 . S
C292 C295 1.461 . S
C292 H312 0.932 . S
C293 C291 1.408 . S
C293 C292 1.310 . S
C293 H313 0.930 . S
C294 C295 1.474 . S
C294 C296 1.285 . S
C294 H314 0.929 . S
C295 C292 1.461 . S
C295 C294 1.474 . S
C296 C291 1.342 . S
C296 C294 1.285 . S
C296 H315 0.930 . S
C297 C300 1.424 . S
C297 C302 1.245 . S
C297 C303 1.428 . S
C298 C301 1.260 . S
C298 C302 1.477 . S
C298 H316 0.932 . S
C299 C300 1.384 . S
C299 C301 1.479 . S
C299 H317 0.929 . S
C300 C297 1.424 . S
C300 C299 1.384 . S
C300 H318 0.928 . S
C301 C298 1.260 . S
C301 C299 1.479 . S
C302 C297 1.245 . S
C302 C298 1.477 . S
C302 H319 0.932 . S
C303 U286 2.882 . S
C303 C297 1.428 . S
C303 O306 1.301 . S
C303 O307 1.282 . S
O304 U286 2.441 . S
O304 C290 1.249 . S
O305 U286 2.420 . S
O305 C290 1.202 . S
O306 U286 2.455 . S
O306 C303 1.301 . S
O307 U286 2.449 . S
O307 C303 1.282 . S
H308 C281 0.931 . S
H309 C283 0.929 . S
H310 C284 0.930 . S
H311 C285 0.931 . S
H312 C292 0.932 . S
H313 C293 0.930 . S
H314 C294 0.929 . S
H315 C296 0.930 . S
H316 C298 0.932 . S
H317 C299 0.929 . S
H318 C300 0.928 . S
H319 C302 0.932 . S
Zn320 O326 1.920 . S
Zn320 O332 1.898 . S
Zn320 O335 1.905 . S
Zn321 O329 1.905 1_565 S
Zn321 O330 1.898 . S
Zn321 O338 1.920 . S
Zn322 O325 2.080 1_455 S
Zn322 O328 2.114 . S
Zn322 O331 2.120 1_445 S
Zn322 O333 2.120 . S
Zn322 O334 2.114 1_455 S
Zn322 O337 2.080 . S
C323 O328 1.166 . S
C323 O329 1.182 . S
C324 O330 1.167 1_655 S
C324 O331 1.299 . S
O325 Zn322 2.080 1_655 S
O325 C339 1.305 . S
O326 Zn320 1.920 . S
O326 C339 1.234 . S
C327 O332 1.167 1_455 S
C327 O333 1.299 . S
O328 Zn322 2.114 . S
O328 C323 1.166 . S
O329 Zn321 1.905 1_545 S
O329 C323 1.182 . S
O330 Zn321 1.898 . S
O330 C324 1.167 1_455 S
O331 Zn322 2.120 1_665 S
O331 C324 1.299 . S
O332 Zn320 1.898 . S
O332 C327 1.167 1_655 S
O333 Zn322 2.120 . S
O333 C327 1.299 . S
O334 Zn322 2.114 1_655 S
O334 C336 1.166 . S
O335 Zn320 1.905 . S
O335 C336 1.182 . S
C336 O334 1.166 . S
C336 O335 1.182 . S
O337 Zn322 2.080 . S
O337 C340 1.305 . S
O338 Zn321 1.920 . S
O338 C340 1.234 1_565 S
C339 O325 1.305 . S
C339 O326 1.234 . S
C340 O337 1.305 . S
C340 O338 1.234 1_545 S
Zn341 O347 1.920 1_556 S
Zn341 O353 1.898 . S
Zn341 O356 1.905 . S
Zn342 O350 1.905 . S
Zn342 O351 1.898 . S
Zn342 O359 1.920 . S
Zn343 O346 2.080 . S
Zn343 O349 2.114 1_545 S
Zn343 O352 2.120 1_545 S
Zn343 O354 2.120 . S
Zn343 O355 2.114 1_544 S
Zn343 O358 2.080 . S
C344 O349 1.166 . S
C344 O350 1.182 . S
C345 O351 1.167 . S
C345 O352 1.299 . S
O346 Zn343 2.080 . S
O346 C360 1.305 . S
O347 Zn341 1.920 1_554 S
O347 C360 1.234 . S
C348 O353 1.167 . S
C348 O354 1.299 1_556 S
O349 Zn343 2.114 1_565 S
O349 C344 1.166 . S
O350 Zn342 1.905 . S
O350 C344 1.182 . S
O351 Zn342 1.898 . S
O351 C345 1.167 . S
O352 Zn343 2.120 1_565 S
O352 C345 1.299 . S
O353 Zn341 1.898 . S
O353 C348 1.167 . S
O354 Zn343 2.120 . S
O354 C348 1.299 1_554 S
O355 Zn343 2.114 1_566 S
O355 C357 1.166 . S
O356 Zn341 1.905 . S
O356 C357 1.182 1_545 S
C357 O355 1.166 . S
C357 O356 1.182 1_565 S
O358 Zn343 2.080 . S
O358 C361 1.305 . S
O359 Zn342 1.920 . S
O359 C361 1.234 1_565 S
C360 O346 1.305 . S
C360 O347 1.234 . S
C361 O358 1.305 . S
C361 O359 1.234 1_545 S
Zn362 O368 1.920 . S
Zn362 O374 1.898 . S
Zn362 O377 1.905 . S
Zn363 O371 1.905 . S
Zn363 O372 1.898 . S
Zn363 O380 1.920 . S
Zn364 O367 2.080 . S
Zn364 O370 2.114 . S
Zn364 O373 2.120 . S
Zn364 O375 2.120 . S
Zn364 O376 2.114 . S
Zn364 O379 2.080 . S
C365 O370 1.166 . S
C365 O371 1.182 . S
C366 O372 1.167 . S
C366 O373 1.299 . S
O367 Zn364 2.080 . S
O367 C381 1.305 . S
O368 Zn362 1.920 . S
O368 C381 1.234 . S
C369 O374 1.167 . S
C369 O375 1.299 . S
O370 Zn364 2.114 . S
O370 C365 1.166 . S
O371 Zn363 1.905 . S
O371 C365 1.182 . S
O372 Zn363 1.898 . S
O372 C366 1.167 . S
O373 Zn364 2.120 . S
O373 C366 1.299 . S
O374 Zn362 1.898 . S
O374 C369 1.167 . S
O375 Zn364 2.120 . S
O375 C369 1.299 . S
O376 Zn364 2.114 . S
O376 C378 1.166 . S
O377 Zn362 1.905 . S
O377 C378 1.182 . S
C378 O376 1.166 . S
C378 O377 1.182 . S
O379 Zn364 2.080 . S
O379 C382 1.305 . S
O380 Zn363 1.920 . S
O380 C382 1.234 . S
C381 O367 1.305 . S
C381 O368 1.234 . S
C382 O379 1.305 . S
C382 O380 1.234 . S
Zn383 O389 1.920 . S
Zn383 O395 1.898 . S
Zn383 O398 1.905 . S
Zn384 O392 1.905 1_655 S
Zn384 O393 1.898 . S
Zn384 O401 1.920 . S
Zn385 O388 2.080 1_554 S
Zn385 O391 2.114 . S
Zn385 O394 2.095 1_454 S
Zn385 O396 2.120 . S
Zn385 O397 2.114 1_554 S
Zn385 O400 2.080 . S
C386 O391 1.166 . S
C386 O392 1.182 . S
C387 O393 1.167 1_556 S
C387 O394 1.312 . S
O388 Zn385 2.080 1_556 S
O388 C402 1.305 . S
O389 Zn383 1.920 . S
O389 C402 1.234 . S
C390 O395 1.167 1_554 S
C390 O396 1.299 . S
O391 Zn385 2.114 . S
O391 C386 1.166 . S
O392 Zn384 1.905 1_455 S
O392 C386 1.182 . S
O393 Zn384 1.898 . S
O393 C387 1.167 1_554 S
O394 Zn385 2.095 1_656 S
O394 C387 1.312 . S
O395 Zn383 1.898 . S
O395 C390 1.167 1_556 S
O396 Zn385 2.120 . S
O396 C390 1.299 . S
O397 Zn385 2.114 1_556 S
O397 C399 1.166 . S
O398 Zn383 1.905 . S
O398 C399 1.182 . S
C399 O397 1.166 . S
C399 O398 1.182 . S
O400 Zn385 2.080 . S
O400 C403 1.305 . S
O401 Zn384 1.920 . S
O401 C403 1.234 1_655 S
C402 O388 1.305 . S
C402 O389 1.234 . S
C403 O400 1.305 . S
C403 O401 1.234 1_455 S
H404 C422 0.951 . S
H405 C424 0.951 . S
H406 C426 0.950 . S
H407 C427 0.950 . S
H408 C429 0.950 . S
H409 C432 0.950 . S
H410 C433 0.950 . S
H411 C435 0.950 . S
H412 C436 0.950 . S
H413 C437 0.951 . S
H414 C439 0.951 . S
H415 C441 0.950 . S
H416 C442 0.950 . S
H417 C444 0.950 . S
H418 C447 0.950 . S
H419 C448 0.950 . S
H420 C450 0.950 . S
H421 C451 0.950 . S
C422 H404 0.951 . S
C422 C423 1.366 . S
C422 C424 1.388 . S
C423 C422 1.366 . S
C423 C427 1.385 . S
C424 H405 0.951 . S
C424 C422 1.388 . S
C424 C425 1.366 . S
C425 C424 1.366 . S
C425 C426 1.414 . S
C425 C428 1.499 . S
C426 H406 0.950 . S
C426 C425 1.414 . S
C426 C427 1.374 . S
C427 H407 0.950 . S
C427 C423 1.385 . S
C427 C426 1.374 . S
C428 C425 1.499 . S
C428 C429 1.373 . S
C428 C430 1.389 . S
C429 H408 0.950 . S
C429 C428 1.373 . S
C429 C445 1.377 . S
C430 C428 1.389 . S
C430 C431 1.524 . S
C430 C444 1.377 . S
C431 C430 1.524 . S
C431 C432 1.397 . S
C431 C436 1.363 . S
C432 H409 0.950 . S
C432 C431 1.397 . S
C432 C433 1.334 . S
C433 H410 0.950 . S
C433 C432 1.334 . S
C433 C434 1.287 . S
C434 C433 1.287 . S
C434 C435 1.524 . S
C434 H453 0.913 . S
C435 H411 0.950 . S
C435 C434 1.524 . S
C435 C436 1.415 . S
C436 H412 0.950 . S
C436 C431 1.363 . S
C436 C435 1.415 . S
C437 H413 0.951 . S
C437 C438 1.366 . S
C437 C439 1.388 . S
C438 C437 1.366 . S
C438 C442 1.385 . S
C439 H414 0.951 . S
C439 C437 1.388 . S
C439 C440 1.366 . S
C440 C439 1.366 . S
C440 C441 1.414 . S
C440 C443 1.499 . S
C441 H415 0.950 . S
C441 C440 1.414 . S
C441 C442 1.374 . S
C442 H416 0.950 . S
C442 C438 1.385 . S
C442 C441 1.374 . S
C443 C440 1.499 . S
C443 C444 1.373 . S
C443 C445 1.389 . S
C444 H417 0.950 . S
C444 C430 1.377 . S
C444 C443 1.373 . S
C445 C429 1.377 . S
C445 C443 1.389 . S
C445 C446 1.524 . S
C446 C445 1.524 . S
C446 C447 1.397 . S
C446 C451 1.363 . S
C447 H418 0.950 . S
C447 C446 1.397 . S
C447 C448 1.334 . S
C448 H419 0.950 . S
C448 C447 1.334 . S
C448 C449 1.287 . S
C449 C448 1.287 . S
C449 C450 1.524 . S
C449 H452 0.999 . S
C450 H420 0.950 . S
C450 C449 1.524 . S
C450 C451 1.415 . S
C451 H421 0.950 . S
C451 C446 1.363 . S
C451 C450 1.415 . S
H452 C449 0.999 . S
H453 C434 0.913 . S
H454 C472 0.951 . S
H455 C474 0.951 . S
H456 C476 0.950 . S
H457 C477 0.950 . S
H458 C479 0.950 . S
H459 C482 0.950 . S
H460 C483 0.950 . S
H461 C485 0.950 . S
H462 C486 0.950 . S
H463 C487 0.951 . S
H464 C489 0.951 . S
H465 C491 0.950 . S
H466 C492 0.950 . S
H467 C494 0.950 . S
H468 C497 0.950 . S
H469 C498 0.950 . S
H470 C500 0.950 . S
H471 C501 0.950 . S
C472 H454 0.951 . S
C472 C473 1.366 . S
C472 C474 1.388 . S
C473 C472 1.366 . S
C473 C477 1.385 . S
C474 H455 0.951 . S
C474 C472 1.388 . S
C474 C475 1.366 . S
C475 C474 1.366 . S
C475 C476 1.414 . S
C475 C478 1.499 . S
C476 H456 0.950 . S
C476 C475 1.414 . S
C476 C477 1.374 . S
C477 H457 0.950 . S
C477 C473 1.385 . S
C477 C476 1.374 . S
C478 C475 1.499 . S
C478 C479 1.373 . S
C478 C480 1.389 . S
C479 H458 0.950 . S
C479 C478 1.373 . S
C479 C495 1.377 . S
C480 C478 1.389 . S
C480 C481 1.524 . S
C480 C494 1.377 . S
C481 C480 1.524 . S
C481 C482 1.397 . S
C481 C486 1.363 . S
C482 H459 0.950 . S
C482 C481 1.397 . S
C482 C483 1.334 . S
C483 H460 0.950 . S
C483 C482 1.334 . S
C483 C484 1.287 . S
C484 C483 1.287 . S
C484 C485 1.524 . S
C484 H503 0.913 . S
C485 H461 0.950 . S
C485 C484 1.524 . S
C485 C486 1.415 . S
C486 H462 0.950 . S
C486 C481 1.363 . S
C486 C485 1.415 . S
C487 H463 0.951 . S
C487 C488 1.366 . S
C487 C489 1.388 . S
C488 C487 1.366 . S
C488 C492 1.385 . S
C489 H464 0.951 . S
C489 C487 1.388 . S
C489 C490 1.366 . S
C490 C489 1.366 . S
C490 C491 1.414 . S
C490 C493 1.499 . S
C491 H465 0.950 . S
C491 C490 1.414 . S
C491 C492 1.374 . S
C492 H466 0.950 . S
C492 C488 1.385 . S
C492 C491 1.374 . S
C493 C490 1.499 . S
C493 C494 1.373 . S
C493 C495 1.389 . S
C494 H467 0.950 . S
C494 C480 1.377 . S
C494 C493 1.373 . S
C495 C479 1.377 . S
C495 C493 1.389 . S
C495 C496 1.524 . S
C496 C495 1.524 . S
C496 C497 1.397 . S
C496 C501 1.363 . S
C497 H468 0.950 . S
C497 C496 1.397 . S
C497 C498 1.334 1_565 S
C498 H469 0.950 . S
C498 C497 1.334 1_545 S
C498 C499 1.287 1_545 S
C499 C498 1.287 1_565 S
C499 C500 1.524 . S
C499 H502 0.999 1_565 S
C500 H470 0.950 . S
C500 C499 1.524 . S
C500 C501 1.415 . S
C501 H471 0.950 . S
C501 C496 1.363 . S
C501 C500 1.415 . S
H502 C499 0.999 1_545 S
H503 C484 0.913 . S
H504 C522 0.951 . S
H505 C524 0.951 . S
H506 C526 0.950 . S
H507 C527 0.950 . S
H508 C529 0.950 . S
H509 C532 0.950 . S
H510 C533 0.950 . S
H511 C535 0.950 . S
H512 C536 0.950 . S
H513 C537 0.951 . S
H514 C539 0.951 . S
H515 C541 0.950 . S
H516 C542 0.950 . S
H517 C544 0.950 . S
H518 C547 0.950 . S
H519 C548 0.950 . S
H520 C550 0.950 . S
H521 C551 0.950 . S
C522 H504 0.951 . S
C522 C523 1.366 . S
C522 C524 1.388 . S
C523 C522 1.366 . S
C523 C527 1.385 . S
C524 H505 0.951 . S
C524 C522 1.388 . S
C524 C525 1.366 . S
C525 C524 1.366 . S
C525 C526 1.414 . S
C525 C528 1.499 . S
C526 H506 0.950 . S
C526 C525 1.414 . S
C526 C527 1.374 . S
C527 H507 0.950 . S
C527 C523 1.385 . S
C527 C526 1.374 . S
C528 C525 1.499 . S
C528 C529 1.373 . S
C528 C530 1.389 . S
C529 H508 0.950 . S
C529 C528 1.373 . S
C529 C545 1.377 . S
C530 C528 1.389 . S
C530 C531 1.524 . S
C530 C544 1.377 . S
C531 C530 1.524 . S
C531 C532 1.397 . S
C531 C536 1.363 . S
C532 H509 0.950 . S
C532 C531 1.397 . S
C532 C533 1.334 . S
C533 H510 0.950 . S
C533 C532 1.334 . S
C533 C534 1.287 . S
C534 C533 1.287 . S
C534 C535 1.524 . S
C534 H553 0.913 . S
C535 H511 0.950 . S
C535 C534 1.524 . S
C535 C536 1.415 . S
C536 H512 0.950 . S
C536 C531 1.363 . S
C536 C535 1.415 . S
C537 H513 0.951 . S
C537 C538 1.366 . S
C537 C539 1.388 . S
C538 C537 1.366 . S
C538 C542 1.385 . S
C539 H514 0.951 . S
C539 C537 1.388 . S
C539 C540 1.366 . S
C540 C539 1.366 . S
C540 C541 1.414 . S
C540 C543 1.499 . S
C541 H515 0.950 . S
C541 C540 1.414 . S
C541 C542 1.374 . S
C542 H516 0.950 . S
C542 C538 1.385 . S
C542 C541 1.374 . S
C543 C540 1.499 . S
C543 C544 1.373 . S
C543 C545 1.389 . S
C544 H517 0.950 . S
C544 C530 1.377 . S
C544 C543 1.373 . S
C545 C529 1.377 . S
C545 C543 1.389 . S
C545 C546 1.524 . S
C546 C545 1.524 . S
C546 C547 1.397 . S
C546 C551 1.363 . S
C547 H518 0.950 . S
C547 C546 1.397 . S
C547 C548 1.334 . S
C548 H519 0.950 . S
C548 C547 1.334 . S
C548 C549 1.287 . S
C549 C548 1.287 . S
C549 C550 1.524 . S
C549 H552 0.999 . S
C550 H520 0.950 . S
C550 C549 1.524 . S
C550 C551 1.415 . S
C551 H521 0.950 . S
C551 C546 1.363 . S
C551 C550 1.415 . S
H552 C549 0.999 . S
H553 C534 0.913 . S
H554 C572 0.951 . S
H555 C574 0.951 . S
H556 C576 0.950 . S
H557 C577 0.950 . S
H558 C579 0.950 . S
H559 C582 0.950 . S
H560 C583 0.950 . S
H561 C585 0.950 . S
H562 C586 0.950 . S
H563 C587 0.951 . S
H564 C589 0.925 1_455 S
H565 C591 0.950 . S
H566 C592 0.950 . S
H567 C594 0.950 . S
H568 C597 0.950 . S
H569 C598 0.950 . S
H570 C600 0.950 . S
H571 C601 0.950 . S
C572 H554 0.951 . S
C572 C573 1.366 . S
C572 C574 1.388 . S
C573 C572 1.366 . S
C573 C577 1.385 . S
C574 H555 0.951 . S
C574 C572 1.388 . S
C574 C575 1.366 . S
C575 C574 1.366 . S
C575 C576 1.414 . S
C575 C578 1.499 . S
C576 H556 0.950 . S
C576 C575 1.414 . S
C576 C577 1.374 . S
C577 H557 0.950 . S
C577 C573 1.385 . S
C577 C576 1.374 . S
C578 C575 1.499 . S
C578 C579 1.373 . S
C578 C580 1.389 . S
C579 H558 0.950 . S
C579 C578 1.373 . S
C579 C595 1.377 . S
C580 C578 1.389 . S
C580 C581 1.524 . S
C580 C594 1.377 . S
C581 C580 1.524 . S
C581 C582 1.397 . S
C581 C586 1.363 . S
C582 H559 0.950 . S
C582 C581 1.397 . S
C582 C583 1.334 . S
C583 H560 0.950 . S
C583 C582 1.334 . S
C583 C584 1.287 . S
C584 C583 1.287 . S
C584 C585 1.524 . S
C584 H603 0.913 . S
C585 H561 0.950 . S
C585 C584 1.524 . S
C585 C586 1.415 . S
C586 H562 0.950 . S
C586 C581 1.363 . S
C586 C585 1.415 . S
C587 H563 0.951 . S
C587 C588 1.366 1_455 S
C587 C589 1.366 1_455 S
C588 C587 1.366 1_655 S
C588 C592 1.385 . S
C589 H564 0.925 1_655 S
C589 C587 1.366 1_655 S
C589 C590 1.414 . S
C590 C589 1.414 . S
C590 C591 1.414 . S
C590 C593 1.499 . S
C591 H565 0.950 . S
C591 C590 1.414 . S
C591 C592 1.374 . S
C592 H566 0.950 . S
C592 C588 1.385 . S
C592 C591 1.374 . S
C593 C590 1.499 . S
C593 C594 1.373 . S
C593 C595 1.389 . S
C594 H567 0.950 . S
C594 C580 1.377 . S
C594 C593 1.373 . S
C595 C579 1.377 . S
C595 C593 1.389 . S
C595 C596 1.524 . S
C596 C595 1.524 . S
C596 C597 1.397 . S
C596 C601 1.363 . S
C597 H568 0.950 . S
C597 C596 1.397 . S
C597 C598 1.334 . S
C598 H569 0.950 . S
C598 C597 1.334 . S
C598 C599 1.287 . S
C599 C598 1.287 . S
C599 C600 1.524 1_655 S
C599 H602 0.999 . S
C600 H570 0.950 . S
C600 C599 1.524 1_455 S
C600 C601 1.415 1_455 S
C601 H571 0.950 . S
C601 C596 1.363 . S
C601 C600 1.415 1_655 S
H602 C599 0.999 . S
H603 C584 0.913 . S
H604 C622 0.951 . S
H605 C624 0.951 . S
H606 C626 0.950 . S
H607 C627 0.950 . S
H608 C629 0.950 . S
H609 C632 0.950 . S
H610 C633 0.950 . S
H611 C635 0.950 . S
H612 C636 0.950 . S
H613 C637 0.951 . S
H614 C639 0.951 . S
H615 C641 0.950 . S
H616 C642 0.950 . S
H617 C644 0.950 . S
H618 C647 0.950 . S
H619 C648 0.950 . S
H620 C650 0.950 . S
H621 C651 0.950 . S
C622 H604 0.951 . S
C622 C623 1.366 . S
C622 C624 1.388 . S
C623 C622 1.366 . S
C623 C627 1.385 . S
C624 H605 0.951 . S
C624 C622 1.388 . S
C624 C625 1.366 . S
C625 C624 1.366 . S
C625 C626 1.414 . S
C625 C628 1.499 . S
C626 H606 0.950 . S
C626 C625 1.414 . S
C626 C627 1.374 . S
C627 H607 0.950 . S
C627 C623 1.385 . S
C627 C626 1.374 . S
C628 C625 1.499 . S
C628 C629 1.373 . S
C628 C630 1.389 . S
C629 H608 0.950 . S
C629 C628 1.373 . S
C629 C645 1.377 . S
C630 C628 1.389 . S
C630 C631 1.524 . S
C630 C644 1.377 . S
C631 C630 1.524 . S
C631 C632 1.397 . S
C631 C636 1.363 . S
C632 H609 0.950 . S
C632 C631 1.397 . S
C632 C633 1.334 . S
C633 H610 0.950 . S
C633 C632 1.334 . S
C633 C634 1.287 . S
C634 C633 1.287 . S
C634 C635 1.524 . S
C634 H653 0.913 . S
C635 H611 0.950 . S
C635 C634 1.524 . S
C635 C636 1.415 . S
C636 H612 0.950 . S
C636 C631 1.363 . S
C636 C635 1.415 . S
C637 H613 0.951 . S
C637 C638 1.366 . S
C637 C639 1.388 . S
C638 C637 1.366 . S
C638 C642 1.385 . S
C639 H614 0.951 . S
C639 C637 1.388 . S
C639 C640 1.366 . S
C640 C639 1.366 . S
C640 C641 1.414 . S
C640 C643 1.499 . S
C641 H615 0.950 . S
C641 C640 1.414 . S
C641 C642 1.374 . S
C642 H616 0.950 . S
C642 C638 1.385 . S
C642 C641 1.374 . S
C643 C640 1.499 . S
C643 C644 1.373 . S
C643 C645 1.389 . S
C644 H617 0.950 . S
C644 C630 1.377 . S
C644 C643 1.373 . S
C645 C629 1.377 . S
C645 C643 1.389 . S
C645 C646 1.524 . S
C646 C645 1.524 . S
C646 C647 1.397 . S
C646 C651 1.363 . S
C647 H618 0.950 . S
C647 C646 1.397 . S
C647 C648 1.334 1_545 S
C648 H619 0.950 . S
C648 C647 1.334 1_565 S
C648 C649 1.287 . S
C649 C648 1.287 . S
C649 C650 1.524 . S
C649 H652 0.999 . S
C650 H620 0.950 . S
C650 C649 1.524 . S
C650 C651 1.415 1_565 S
C651 H621 0.950 . S
C651 C646 1.363 . S
C651 C650 1.415 1_545 S
H652 C649 0.999 . S
H653 C634 0.913 . S
H654 C672 0.951 . S
H655 C674 0.951 . S
H656 C676 0.950 . S
H657 C677 0.950 . S
H658 C679 0.950 . S
H659 C682 0.950 . S
H660 C683 0.950 . S
H661 C685 0.950 . S
H662 C686 0.950 . S
H663 C687 0.951 1_545 S
H664 C689 0.951 . S
H665 C691 0.950 . S
H666 C692 0.950 . S
H667 C694 0.950 . S
H668 C697 0.950 . S
H669 C698 0.950 . S
H670 C700 0.950 . S
H671 C701 0.950 1_565 S
C672 H654 0.951 . S
C672 C673 1.366 . S
C672 C674 1.388 . S
C673 C672 1.366 . S
C673 C677 1.385 . S
C674 H655 0.951 . S
C674 C672 1.388 . S
C674 C675 1.366 . S
C675 C674 1.366 . S
C675 C676 1.414 . S
C675 C678 1.499 . S
C676 H656 0.950 . S
C676 C675 1.414 . S
C676 C677 1.374 . S
C677 H657 0.950 . S
C677 C673 1.385 . S
C677 C676 1.374 . S
C678 C675 1.499 . S
C678 C679 1.373 . S
C678 C680 1.389 . S
C679 H658 0.950 . S
C679 C678 1.373 . S
C679 C695 1.377 . S
C680 C678 1.389 . S
C680 C681 1.524 . S
C680 C694 1.377 . S
C681 C680 1.524 . S
C681 C682 1.397 . S
C681 C686 1.363 . S
C682 H659 0.950 . S
C682 C681 1.397 . S
C682 C683 1.334 . S
C683 H660 0.950 . S
C683 C682 1.334 . S
C683 C684 1.287 . S
C684 C683 1.287 . S
C684 C685 1.524 . S
C684 H703 0.913 . S
C685 H661 0.950 . S
C685 C684 1.524 . S
C685 C686 1.415 . S
C686 H662 0.950 . S
C686 C681 1.363 . S
C686 C685 1.415 . S
C687 H663 0.951 1_565 S
C687 C688 1.366 . S
C687 C689 1.388 . S
C688 C687 1.366 . S
C688 C692 1.385 . S
C689 H664 0.951 . S
C689 C687 1.388 . S
C689 C690 1.366 . S
C690 C689 1.366 . S
C690 C691 1.414 . S
C690 C693 1.499 . S
C691 H665 0.950 . S
C691 C690 1.414 . S
C691 C692 1.374 . S
C692 H666 0.950 . S
C692 C688 1.385 . S
C692 C691 1.374 . S
C693 C690 1.499 . S
C693 C694 1.373 . S
C693 C695 1.389 . S
C694 H667 0.950 . S
C694 C680 1.377 . S
C694 C693 1.373 . S
C695 C679 1.377 . S
C695 C693 1.389 . S
C695 C696 1.524 1_565 S
C696 C695 1.524 1_545 S
C696 C697 1.397 . S
C696 C701 1.363 . S
C697 H668 0.950 . S
C697 C696 1.397 . S
C697 C698 1.334 . S
C698 H669 0.950 . S
C698 C697 1.334 . S
C698 C699 1.287 . S
C699 C698 1.287 . S
C699 C700 1.524 . S
C699 H702 0.999 . S
C700 H670 0.950 . S
C700 C699 1.524 . S
C700 C701 1.415 . S
C701 H671 0.950 1_545 S
C701 C696 1.363 . S
C701 C700 1.415 . S
H702 C699 0.999 . S
H703 C684 0.913 . S
H704 C722 0.951 . S
H705 C724 0.951 . S
H706 C726 0.950 . S
H707 C727 0.950 . S
H708 C729 0.950 . S
H709 C732 0.950 . S
H710 C733 0.950 . S
H711 C735 0.950 . S
H712 C736 0.950 . S
H713 C737 0.951 . S
H714 C739 0.951 . S
H715 C741 0.950 . S
H716 C742 0.950 . S
H717 C744 0.950 . S
H718 C747 0.950 . S
H719 C748 0.950 . S
H720 C750 0.950 . S
H721 C751 0.950 . S
C722 H704 0.951 . S
C722 C723 1.366 . S
C722 C724 1.388 . S
C723 C722 1.366 . S
C723 C727 1.385 . S
C724 H705 0.951 . S
C724 C722 1.388 . S
C724 C725 1.366 . S
C725 C724 1.366 . S
C725 C726 1.414 . S
C725 C728 1.499 . S
C726 H706 0.950 . S
C726 C725 1.414 . S
C726 C727 1.374 . S
C727 H707 0.950 . S
C727 C723 1.385 . S
C727 C726 1.374 . S
C728 C725 1.499 . S
C728 C729 1.373 . S
C728 C730 1.389 . S
C729 H708 0.950 . S
C729 C728 1.373 . S
C729 C745 1.377 . S
C730 C728 1.389 . S
C730 C731 1.524 . S
C730 C744 1.377 . S
C731 C730 1.524 . S
C731 C732 1.397 . S
C731 C736 1.363 . S
C732 H709 0.950 . S
C732 C731 1.397 . S
C732 C733 1.334 . S
C733 H710 0.950 . S
C733 C732 1.334 . S
C733 C734 1.287 . S
C734 C733 1.287 . S
C734 C735 1.524 1_556 S
C734 H753 0.913 1_556 S
C735 H711 0.950 . S
C735 C734 1.524 1_554 S
C735 C736 1.415 1_554 S
C736 H712 0.950 . S
C736 C731 1.363 . S
C736 C735 1.415 1_556 S
C737 H713 0.951 . S
C737 C738 1.366 . S
C737 C739 1.388 . S
C738 C737 1.366 . S
C738 C742 1.385 . S
C739 H714 0.951 . S
C739 C737 1.388 . S
C739 C740 1.366 . S
C740 C739 1.366 . S
C740 C741 1.414 . S
C740 C743 1.499 . S
C741 H715 0.950 . S
C741 C740 1.414 . S
C741 C742 1.374 . S
C742 H716 0.950 . S
C742 C738 1.385 . S
C742 C741 1.374 . S
C743 C740 1.499 . S
C743 C744 1.373 . S
C743 C745 1.389 . S
C744 H717 0.950 . S
C744 C730 1.377 . S
C744 C743 1.373 . S
C745 C729 1.377 . S
C745 C743 1.389 . S
C745 C746 1.524 . S
C746 C745 1.524 . S
C746 C747 1.397 . S
C746 C751 1.363 . S
C747 H718 0.950 . S
C747 C746 1.397 . S
C747 C748 1.334 . S
C748 H719 0.950 . S
C748 C747 1.334 . S
C748 C749 1.287 . S
C749 C748 1.287 . S
C749 C750 1.524 . S
C749 H752 0.999 . S
C750 H720 0.950 . S
C750 C749 1.524 . S
C750 C751 1.415 . S
C751 H721 0.950 . S
C751 C746 1.363 . S
C751 C750 1.415 . S
H752 C749 0.999 . S
H753 C734 0.913 1_554 S
H754 C772 0.951 . S
H755 C774 0.951 . S
H756 C776 0.950 . S
H757 C777 0.950 . S
H758 C779 0.950 . S
H759 C782 0.950 . S
H760 C783 0.950 . S
H761 C785 0.950 . S
H762 C786 0.950 . S
H763 C787 0.951 . S
H764 C789 0.951 . S
H765 C791 0.950 . S
H766 C792 0.950 . S
H767 C794 0.950 . S
H768 C797 0.950 . S
H769 C798 0.950 . S
H770 C800 0.950 . S
H771 C801 0.950 . S
C772 H754 0.951 . S
C772 C773 1.366 . S
C772 C774 1.388 . S
C773 C772 1.366 . S
C773 C777 1.385 . S
C774 H755 0.951 . S
C774 C772 1.388 . S
C774 C775 1.366 . S
C775 C774 1.366 . S
C775 C776 1.414 . S
C775 C778 1.499 . S
C776 H756 0.950 . S
C776 C775 1.414 . S
C776 C777 1.374 . S
C777 H757 0.950 . S
C777 C773 1.385 . S
C777 C776 1.374 . S
C778 C775 1.499 . S
C778 C779 1.373 . S
C778 C780 1.389 . S
C779 H758 0.950 . S
C779 C778 1.373 . S
C779 C795 1.377 . S
C780 C778 1.389 . S
C780 C781 1.524 . S
C780 C794 1.377 . S
C781 C780 1.524 . S
C781 C782 1.397 . S
C781 C786 1.363 . S
C782 H759 0.950 . S
C782 C781 1.397 . S
C782 C783 1.334 . S
C783 H760 0.950 . S
C783 C782 1.334 . S
C783 C784 1.287 . S
C784 C783 1.287 . S
C784 C785 1.524 . S
C784 H803 0.913 . S
C785 H761 0.950 . S
C785 C784 1.524 . S
C785 C786 1.415 . S
C786 H762 0.950 . S
C786 C781 1.363 . S
C786 C785 1.415 . S
C787 H763 0.951 . S
C787 C788 1.366 . S
C787 C789 1.388 . S
C788 C787 1.366 . S
C788 C792 1.385 . S
C789 H764 0.951 . S
C789 C787 1.388 . S
C789 C790 1.366 . S
C790 C789 1.366 . S
C790 C791 1.414 . S
C790 C793 1.499 . S
C791 H765 0.950 . S
C791 C790 1.414 . S
C791 C792 1.374 . S
C792 H766 0.950 . S
C792 C788 1.385 . S
C792 C791 1.374 . S
C793 C790 1.499 . S
C793 C794 1.373 . S
C793 C795 1.389 . S
C794 H767 0.950 . S
C794 C780 1.377 . S
C794 C793 1.373 . S
C795 C779 1.377 . S
C795 C793 1.389 . S
C795 C796 1.524 . S
C796 C795 1.524 . S
C796 C797 1.397 . S
C796 C801 1.363 . S
C797 H768 0.950 . S
C797 C796 1.397 . S
C797 C798 1.334 . S
C798 H769 0.950 . S
C798 C797 1.334 . S
C798 C799 1.287 . S
C799 C798 1.287 . S
C799 C800 1.524 . S
C799 H802 0.999 . S
C800 H770 0.950 . S
C800 C799 1.524 . S
C800 C801 1.415 . S
C801 H771 0.950 . S
C801 C796 1.363 . S
C801 C800 1.415 . S
H802 C799 0.999 . S
H803 C784 0.913 . S
H804 C822 0.951 . S
H805 C824 0.951 . S
H806 C826 0.950 . S
H807 C827 0.950 . S
H808 C829 0.950 . S
H809 C832 0.950 . S
H810 C833 0.950 . S
H811 C835 0.950 . S
H812 C836 0.950 . S
H813 C837 0.951 . S
H814 C839 0.951 . S
H815 C841 0.950 . S
H816 C842 0.950 . S
H817 C844 0.950 . S
H818 C847 0.950 . S
H819 C848 0.950 . S
H820 C850 0.950 1_655 S
H821 C851 0.950 . S
C822 H804 0.951 . S
C822 C823 1.366 . S
C822 C824 1.388 . S
C823 C822 1.366 . S
C823 C827 1.385 . S
C824 H805 0.951 . S
C824 C822 1.388 . S
C824 C825 1.366 . S
C825 C824 1.366 . S
C825 C826 1.414 . S
C825 C828 1.499 . S
C826 H806 0.950 . S
C826 C825 1.414 . S
C826 C827 1.374 . S
C827 H807 0.950 . S
C827 C823 1.385 . S
C827 C826 1.374 . S
C828 C825 1.499 . S
C828 C829 1.373 . S
C828 C830 1.389 . S
C829 H808 0.950 . S
C829 C828 1.373 . S
C829 C845 1.377 . S
C830 C828 1.389 . S
C830 C831 1.524 . S
C830 C844 1.377 . S
C831 C830 1.524 . S
C831 C832 1.397 . S
C831 C836 1.363 . S
C832 H809 0.950 . S
C832 C831 1.397 . S
C832 C833 1.334 . S
C833 H810 0.950 . S
C833 C832 1.334 . S
C833 C834 1.287 . S
C834 C833 1.287 . S
C834 C835 1.524 . S
C834 H853 0.913 . S
C835 H811 0.950 . S
C835 C834 1.524 . S
C835 C836 1.415 . S
C836 H812 0.950 . S
C836 C831 1.363 . S
C836 C835 1.415 . S
C837 H813 0.951 . S
C837 C838 1.366 . S
C837 C839 1.388 . S
C838 C837 1.366 . S
C838 C842 1.385 . S
C839 H814 0.951 . S
C839 C837 1.388 . S
C839 C840 1.366 . S
C840 C839 1.366 . S
C840 C841 1.414 . S
C840 C843 1.499 . S
C841 H815 0.950 . S
C841 C840 1.414 . S
C841 C842 1.374 . S
C842 H816 0.950 . S
C842 C838 1.385 . S
C842 C841 1.374 . S
C843 C840 1.499 . S
C843 C844 1.373 . S
C843 C845 1.389 . S
C844 H817 0.950 . S
C844 C830 1.377 . S
C844 C843 1.373 . S
C845 C829 1.377 . S
C845 C843 1.389 . S
C845 C846 1.524 . S
C846 C845 1.524 . S
C846 C847 1.397 . S
C846 C851 1.363 . S
C847 H818 0.950 . S
C847 C846 1.397 . S
C847 C848 1.334 . S
C848 H819 0.950 . S
C848 C847 1.334 . S
C848 C849 1.287 . S
C849 C848 1.287 . S
C849 C850 1.524 . S
C849 H852 0.998 . S
C850 H820 0.950 1_455 S
C850 C849 1.524 . S
C850 C851 1.415 . S
C851 H821 0.950 . S
C851 C846 1.363 . S
C851 C850 1.415 . S
H852 C849 0.998 . S
H853 C834 0.913 . S
H854 C872 0.951 . S
H855 C874 0.951 . S
H856 C876 0.950 . S
H857 C877 0.950 . S
H858 C879 0.950 . S
H859 C882 0.950 . S
H860 C883 0.950 . S
H861 C885 0.950 . S
H862 C886 0.950 . S
H863 C887 0.951 . S
H864 C889 0.963 . S
H865 C891 0.950 . S
H866 C892 0.950 . S
H867 C894 0.950 . S
H868 C897 0.950 . S
H869 C898 0.950 . S
H870 C900 0.950 . S
H871 C901 0.950 . S
C872 H854 0.951 . S
C872 C873 1.366 . S
C872 C874 1.388 . S
C873 C872 1.366 . S
C873 C877 1.385 . S
C874 H855 0.951 . S
C874 C872 1.388 . S
C874 C875 1.366 . S
C875 C874 1.366 . S
C875 C876 1.414 . S
C875 C878 1.499 . S
C876 H856 0.950 . S
C876 C875 1.414 . S
C876 C877 1.374 . S
C877 H857 0.950 . S
C877 C873 1.385 . S
C877 C876 1.374 . S
C878 C875 1.499 . S
C878 C879 1.373 . S
C878 C880 1.389 . S
C879 H858 0.950 . S
C879 C878 1.373 . S
C879 C895 1.377 . S
C880 C878 1.389 . S
C880 C881 1.524 . S
C880 C894 1.377 . S
C881 C880 1.524 . S
C881 C882 1.397 . S
C881 C886 1.363 . S
C882 H859 0.950 . S
C882 C881 1.397 . S
C882 C883 1.334 . S
C883 H860 0.950 . S
C883 C882 1.334 . S
C883 C884 1.287 . S
C884 C883 1.287 . S
C884 C885 1.524 . S
C884 H903 0.913 . S
C885 H861 0.950 . S
C885 C884 1.524 . S
C885 C886 1.415 . S
C886 H862 0.950 . S
C886 C881 1.363 . S
C886 C885 1.415 . S
C887 H863 0.951 . S
C887 C888 1.366 1_554 S
C887 C889 1.388 1_554 S
C888 C887 1.366 1_556 S
C888 C892 1.385 . S
C889 H864 0.963 . S
C889 C887 1.388 1_556 S
C889 C890 1.366 . S
C890 C889 1.366 . S
C890 C891 1.414 . S
C890 C893 1.499 . S
C891 H865 0.950 . S
C891 C890 1.414 . S
C891 C892 1.374 . S
C892 H866 0.950 . S
C892 C888 1.385 . S
C892 C891 1.374 . S
C893 C890 1.499 . S
C893 C894 1.373 . S
C893 C895 1.389 . S
C894 H867 0.950 . S
C894 C880 1.377 . S
C894 C893 1.373 . S
C895 C879 1.377 . S
C895 C893 1.389 . S
C895 C896 1.524 . S
C896 C895 1.524 . S
C896 C897 1.397 . S
C896 C901 1.363 . S
C897 H868 0.950 . S
C897 C896 1.397 . S
C897 C898 1.334 . S
C898 H869 0.950 . S
C898 C897 1.334 . S
C898 C899 1.287 . S
C899 C898 1.287 . S
C899 C900 1.524 . S
C899 H902 0.999 . S
C900 H870 0.950 . S
C900 C899 1.524 . S
C900 C901 1.415 . S
C901 H871 0.950 . S
C901 C896 1.363 . S
C901 C900 1.415 . S
H902 C899 0.999 . S
H903 C884 0.913 . S
H904 C922 0.951 . S
H905 C924 0.951 . S
H906 C926 0.950 . S
H907 C927 0.950 . S
H908 C929 0.950 . S
H909 C932 0.950 . S
H910 C933 0.950 . S
H911 C935 0.950 . S
H912 C936 0.950 . S
H913 C937 0.951 1_455 S
H914 C939 0.951 . S
H915 C941 0.950 . S
H916 C942 0.950 . S
H917 C944 0.950 . S
H918 C947 0.950 . S
H919 C948 0.950 . S
H920 C950 0.950 . S
H921 C951 0.952 . S
C922 H904 0.951 . S
C922 C923 1.366 . S
C922 C924 1.388 . S
C923 C922 1.366 . S
C923 C927 1.385 . S
C924 H905 0.951 . S
C924 C922 1.388 . S
C924 C925 1.366 . S
C925 C924 1.366 . S
C925 C926 1.414 . S
C925 C928 1.499 . S
C926 H906 0.950 . S
C926 C925 1.414 . S
C926 C927 1.374 . S
C927 H907 0.950 . S
C927 C923 1.385 . S
C927 C926 1.374 . S
C928 C925 1.499 . S
C928 C929 1.373 . S
C928 C930 1.389 . S
C929 H908 0.950 . S
C929 C928 1.373 . S
C929 C945 1.377 . S
C930 C928 1.389 . S
C930 C931 1.524 . S
C930 C944 1.377 . S
C931 C930 1.524 . S
C931 C932 1.397 . S
C931 C936 1.363 . S
C932 H909 0.950 . S
C932 C931 1.397 . S
C932 C933 1.334 . S
C933 H910 0.950 . S
C933 C932 1.334 . S
C933 C934 1.287 . S
C934 C933 1.287 . S
C934 C935 1.524 . S
C934 H953 0.913 . S
C935 H911 0.950 . S
C935 C934 1.524 . S
C935 C936 1.415 . S
C936 H912 0.950 . S
C936 C931 1.363 . S
C936 C935 1.415 . S
C937 H913 0.951 1_655 S
C937 C938 1.366 . S
C937 C939 1.388 . S
C938 C937 1.366 . S
C938 C942 1.385 . S
C939 H914 0.951 . S
C939 C937 1.388 . S
C939 C940 1.366 . S
C940 C939 1.366 . S
C940 C941 1.414 . S
C940 C943 1.499 . S
C941 H915 0.950 . S
C941 C940 1.414 . S
C941 C942 1.374 . S
C942 H916 0.950 . S
C942 C938 1.385 . S
C942 C941 1.374 . S
C943 C940 1.499 . S
C943 C944 1.373 . S
C943 C945 1.389 . S
C944 H917 0.950 . S
C944 C930 1.377 . S
C944 C943 1.373 . S
C945 C929 1.377 . S
C945 C943 1.389 . S
C945 C946 1.524 . S
C946 C945 1.524 . S
C946 C947 1.397 . S
C946 C951 1.363 1_655 S
C947 H918 0.950 . S
C947 C946 1.397 . S
C947 C948 1.334 1_655 S
C948 H919 0.950 . S
C948 C947 1.334 1_455 S
C948 C949 1.287 . S
C949 C948 1.287 . S
C949 C950 1.524 . S
C949 H952 0.999 . S
C950 H920 0.950 . S
C950 C949 1.524 . S
C950 C951 1.415 . S
C951 H921 0.952 . S
C951 C946 1.363 1_455 S
C951 C950 1.415 . S
H952 C949 0.999 . S
H953 C934 0.913 . S
H954 C972 0.951 . S
H955 C974 0.951 . S
H956 C976 0.950 . S
H957 C977 0.950 . S
H958 C979 0.950 . S
H959 C982 0.950 . S
H960 C983 0.950 . S
H961 C985 0.950 . S
H962 C986 0.950 . S
H963 C987 0.951 . S
H964 C989 0.951 . S
H965 C991 0.950 . S
H966 C992 0.950 . S
H967 C994 0.950 . S
H968 C997 0.950 . S
H969 C998 0.950 . S
H970 C1000 0.950 . S
H971 C1001 0.950 . S
C972 H954 0.951 . S
C972 C973 1.366 . S
C972 C974 1.388 . S
C973 C972 1.366 . S
C973 C977 1.385 . S
C974 H955 0.951 . S
C974 C972 1.388 . S
C974 C975 1.366 . S
C975 C974 1.366 . S
C975 C976 1.414 . S
C975 C978 1.499 . S
C976 H956 0.950 . S
C976 C975 1.414 . S
C976 C977 1.374 . S
C977 H957 0.950 . S
C977 C973 1.385 . S
C977 C976 1.374 . S
C978 C975 1.499 . S
C978 C979 1.373 . S
C978 C980 1.389 . S
C979 H958 0.950 . S
C979 C978 1.373 . S
C979 C995 1.377 . S
C980 C978 1.389 . S
C980 C981 1.524 . S
C980 C994 1.377 . S
C981 C980 1.524 . S
C981 C982 1.397 . S
C981 C986 1.363 . S
C982 H959 0.950 . S
C982 C981 1.397 . S
C982 C983 1.334 . S
C983 H960 0.950 . S
C983 C982 1.334 . S
C983 C984 1.287 . S
C984 C983 1.287 . S
C984 C985 1.524 . S
C984 H1003 0.913 . S
C985 H961 0.950 . S
C985 C984 1.524 . S
C985 C986 1.415 . S
C986 H962 0.950 . S
C986 C981 1.363 . S
C986 C985 1.415 . S
C987 H963 0.951 . S
C987 C988 1.366 . S
C987 C989 1.388 . S
C988 C987 1.366 . S
C988 C992 1.385 . S
C989 H964 0.951 . S
C989 C987 1.388 . S
C989 C990 1.366 . S
C990 C989 1.366 . S
C990 C991 1.414 . S
C990 C993 1.499 . S
C991 H965 0.950 . S
C991 C990 1.414 . S
C991 C992 1.374 . S
C992 H966 0.950 . S
C992 C988 1.385 . S
C992 C991 1.374 . S
C993 C990 1.499 . S
C993 C994 1.373 . S
C993 C995 1.389 . S
C994 H967 0.950 . S
C994 C980 1.377 . S
C994 C993 1.373 . S
C995 C979 1.377 . S
C995 C993 1.389 . S
C995 C996 1.524 . S
C996 C995 1.524 . S
C996 C997 1.397 . S
C996 C1001 1.363 . S
C997 H968 0.950 . S
C997 C996 1.397 . S
C997 C998 1.334 . S
C998 H969 0.950 . S
C998 C997 1.334 . S
C998 C999 1.287 . S
C999 C998 1.287 . S
C999 C1000 1.524 . S
C999 H1002 0.999 . S
C1000 H970 0.950 . S
C1000 C999 1.524 . S
C1000 C1001 1.415 . S
C1001 H971 0.950 . S
C1001 C996 1.363 . S
C1001 C1000 1.415 . S
H1002 C999 0.999 . S
H1003 C984 0.913 . S
H1004 C1022 0.951 . S
H1005 C1024 0.951 . S
H1006 C1026 0.950 . S
H1007 C1027 0.950 . S
H1008 C1029 0.950 . S
H1009 C1032 0.950 . S
H1010 C1033 0.950 . S
H1011 C1035 0.950 . S
H1012 C1036 0.950 . S
H1013 C1037 0.944 1_455 S
H1014 C1039 0.953 . S
H1015 C1041 0.950 . S
H1016 C1042 0.950 . S
H1017 C1044 0.950 . S
H1018 C1047 0.950 . S
H1019 C1048 0.950 . S
H1020 C1050 0.950 . S
H1021 C1051 0.950 . S
C1022 H1004 0.951 . S
C1022 C1023 1.366 . S
C1022 C1024 1.388 . S
C1023 C1022 1.366 . S
C1023 C1027 1.385 1_565 S
C1024 H1005 0.951 . S
C1024 C1022 1.388 . S
C1024 C1025 1.366 . S
C1025 C1024 1.366 . S
C1025 C1026 1.414 1_565 S
C1025 C1028 1.495 1_565 S
C1026 H1006 0.950 . S
C1026 C1025 1.414 1_545 S
C1026 C1027 1.374 . S
C1027 H1007 0.950 . S
C1027 C1023 1.385 1_545 S
C1027 C1026 1.374 . S
C1028 C1025 1.495 1_545 S
C1028 C1029 1.394 . S
C1028 C1030 1.372 1_645 S
C1029 H1008 0.950 . S
C1029 C1028 1.394 . S
C1029 C1045 1.377 . S
C1030 C1028 1.372 1_465 S
C1030 C1031 1.524 . S
C1030 C1044 1.377 . S
C1031 C1030 1.524 . S
C1031 C1032 1.397 . S
C1031 C1036 1.363 . S
C1032 H1009 0.950 . S
C1032 C1031 1.397 . S
C1032 C1033 1.334 . S
C1033 H1010 0.950 . S
C1033 C1032 1.334 . S
C1033 C1034 1.287 . S
C1034 C1033 1.287 . S
C1034 C1035 1.524 . S
C1034 H1053 0.913 . S
C1035 H1011 0.950 . S
C1035 C1034 1.524 . S
C1035 C1036 1.415 . S
C1036 H1012 0.950 . S
C1036 C1031 1.363 . S
C1036 C1035 1.415 . S
C1037 H1013 0.944 1_655 S
C1037 C1038 1.370 . S
C1037 C1039 1.391 . S
C1038 C1037 1.370 . S
C1038 C1042 1.385 1_545 S
C1039 H1014 0.953 . S
C1039 C1037 1.391 . S
C1039 C1040 1.366 . S
C1040 C1039 1.366 . S
C1040 C1041 1.414 1_545 S
C1040 C1043 1.499 . S
C1041 H1015 0.950 . S
C1041 C1040 1.414 1_565 S
C1041 C1042 1.374 . S
C1042 H1016 0.950 . S
C1042 C1038 1.385 1_565 S
C1042 C1041 1.374 . S
C1043 C1040 1.499 . S
C1043 C1044 1.373 1_645 S
C1043 C1045 1.389 . S
C1044 H1017 0.950 . S
C1044 C1030 1.377 . S
C1044 C1043 1.373 1_465 S
C1045 C1029 1.377 . S
C1045 C1043 1.389 . S
C1045 C1046 1.524 . S
C1046 C1045 1.524 . S
C1046 C1047 1.397 . S
C1046 C1051 1.363 . S
C1047 H1018 0.950 . S
C1047 C1046 1.397 . S
C1047 C1048 1.334 . S
C1048 H1019 0.950 . S
C1048 C1047 1.334 . S
C1048 C1049 1.287 . S
C1049 C1048 1.287 . S
C1049 C1050 1.524 . S
C1049 H1052 0.999 . S
C1050 H1020 0.950 . S
C1050 C1049 1.524 . S
C1050 C1051 1.415 . S
C1051 H1021 0.950 . S
C1051 C1046 1.363 . S
C1051 C1050 1.415 . S
H1052 C1049 0.999 . S
H1053 C1034 0.913 . S
H1054 C1072 0.951 . S
H1055 C1074 0.951 . S
H1056 C1076 0.950 . S
H1057 C1077 0.950 . S
H1058 C1079 0.950 . S
H1059 C1082 0.950 . S
H1060 C1083 0.950 . S
H1061 C1085 0.950 . S
H1062 C1086 0.950 . S
H1063 C1087 0.951 . S
H1064 C1089 0.951 . S
H1065 C1091 0.950 . S
H1066 C1092 0.950 . S
H1067 C1094 0.950 . S
H1068 C1097 0.950 . S
H1069 C1098 0.950 . S
H1070 C1100 0.950 . S
H1071 C1101 0.950 . S
C1072 H1054 0.951 . S
C1072 C1073 1.366 . S
C1072 C1074 1.388 . S
C1073 C1072 1.366 . S
C1073 C1077 1.385 . S
C1074 H1055 0.951 . S
C1074 C1072 1.388 . S
C1074 C1075 1.366 . S
C1075 C1074 1.366 . S
C1075 C1076 1.414 . S
C1075 C1078 1.499 . S
C1076 H1056 0.950 . S
C1076 C1075 1.414 . S
C1076 C1077 1.374 . S
C1077 H1057 0.950 . S
C1077 C1073 1.385 . S
C1077 C1076 1.374 . S
C1078 C1075 1.499 . S
C1078 C1079 1.373 . S
C1078 C1080 1.389 . S
C1079 H1058 0.950 . S
C1079 C1078 1.373 . S
C1079 C1095 1.377 . S
C1080 C1078 1.389 . S
C1080 C1081 1.524 . S
C1080 C1094 1.377 . S
C1081 C1080 1.524 . S
C1081 C1082 1.397 . S
C1081 C1086 1.363 . S
C1082 H1059 0.950 . S
C1082 C1081 1.397 . S
C1082 C1083 1.334 . S
C1083 H1060 0.950 . S
C1083 C1082 1.334 . S
C1083 C1084 1.287 . S
C1084 C1083 1.287 . S
C1084 C1085 1.524 . S
C1084 H1103 0.913 . S
C1085 H1061 0.950 . S
C1085 C1084 1.524 . S
C1085 C1086 1.415 . S
C1086 H1062 0.950 . S
C1086 C1081 1.363 . S
C1086 C1085 1.415 . S
C1087 H1063 0.951 . S
C1087 C1088 1.366 . S
C1087 C1089 1.388 . S
C1088 C1087 1.366 . S
C1088 C1092 1.385 . S
C1089 H1064 0.951 . S
C1089 C1087 1.388 . S
C1089 C1090 1.366 . S
C1090 C1089 1.366 . S
C1090 C1091 1.414 . S
C1090 C1093 1.499 . S
C1091 H1065 0.950 . S
C1091 C1090 1.414 . S
C1091 C1092 1.374 . S
C1092 H1066 0.950 . S
C1092 C1088 1.385 . S
C1092 C1091 1.374 . S
C1093 C1090 1.499 . S
C1093 C1094 1.373 . S
C1093 C1095 1.389 . S
C1094 H1067 0.950 . S
C1094 C1080 1.377 . S
C1094 C1093 1.373 . S
C1095 C1079 1.377 . S
C1095 C1093 1.389 . S
C1095 C1096 1.524 1_545 S
C1096 C1095 1.524 1_565 S
C1096 C1097 1.397 . S
C1096 C1101 1.363 . S
C1097 H1068 0.950 . S
C1097 C1096 1.397 . S
C1097 C1098 1.334 . S
C1098 H1069 0.950 . S
C1098 C1097 1.334 . S
C1098 C1099 1.287 . S
C1099 C1098 1.287 . S
C1099 C1100 1.524 . S
C1099 H1102 0.999 . S
C1100 H1070 0.950 . S
C1100 C1099 1.524 . S
C1100 C1101 1.415 . S
C1101 H1071 0.950 . S
C1101 C1096 1.363 . S
C1101 C1100 1.415 . S
H1102 C1099 0.999 . S
H1103 C1084 0.913 . S
H1104 C1122 0.951 . S
H1105 C1124 0.951 . S
H1106 C1126 0.950 . S
H1107 C1127 0.950 . S
H1108 C1129 0.950 . S
H1109 C1132 0.950 . S
H1110 C1133 0.950 . S
H1111 C1135 0.950 . S
H1112 C1136 0.950 . S
H1113 C1137 0.951 . S
H1114 C1139 0.951 . S
H1115 C1141 0.950 . S
H1116 C1142 0.950 . S
H1117 C1144 0.950 . S
H1118 C1147 0.950 . S
H1119 C1148 0.950 . S
H1120 C1150 0.950 . S
H1121 C1151 0.950 . S
C1122 H1104 0.951 . S
C1122 C1123 1.366 . S
C1122 C1124 1.388 . S
C1123 C1122 1.366 . S
C1123 C1127 1.385 . S
C1124 H1105 0.951 . S
C1124 C1122 1.388 . S
C1124 C1125 1.366 . S
C1125 C1124 1.366 . S
C1125 C1126 1.414 . S
C1125 C1128 1.499 . S
C1126 H1106 0.950 . S
C1126 C1125 1.414 . S
C1126 C1127 1.374 . S
C1127 H1107 0.950 . S
C1127 C1123 1.385 . S
C1127 C1126 1.374 . S
C1128 C1125 1.499 . S
C1128 C1129 1.373 . S
C1128 C1130 1.389 . S
C1129 H1108 0.950 . S
C1129 C1128 1.373 . S
C1129 C1145 1.377 . S
C1130 C1128 1.389 . S
C1130 C1131 1.524 . S
C1130 C1144 1.377 . S
C1131 C1130 1.524 . S
C1131 C1132 1.397 . S
C1131 C1136 1.363 . S
C1132 H1109 0.950 . S
C1132 C1131 1.397 . S
C1132 C1133 1.334 . S
C1133 H1110 0.950 . S
C1133 C1132 1.334 . S
C1133 C1134 1.287 . S
C1134 C1133 1.287 . S
C1134 C1135 1.524 . S
C1134 H1153 0.913 . S
C1135 H1111 0.950 . S
C1135 C1134 1.524 . S
C1135 C1136 1.415 . S
C1136 H1112 0.950 . S
C1136 C1131 1.363 . S
C1136 C1135 1.415 . S
C1137 H1113 0.951 . S
C1137 C1138 1.366 . S
C1137 C1139 1.388 . S
C1138 C1137 1.366 . S
C1138 C1142 1.385 . S
C1139 H1114 0.951 . S
C1139 C1137 1.388 . S
C1139 C1140 1.366 . S
C1140 C1139 1.366 . S
C1140 C1141 1.414 . S
C1140 C1143 1.499 . S
C1141 H1115 0.950 . S
C1141 C1140 1.414 . S
C1141 C1142 1.374 . S
C1142 H1116 0.950 . S
C1142 C1138 1.385 . S
C1142 C1141 1.374 . S
C1143 C1140 1.499 . S
C1143 C1144 1.373 . S
C1143 C1145 1.389 . S
C1144 H1117 0.950 . S
C1144 C1130 1.377 . S
C1144 C1143 1.373 . S
C1145 C1129 1.377 . S
C1145 C1143 1.389 . S
C1145 C1146 1.524 . S
C1146 C1145 1.524 . S
C1146 C1147 1.397 . S
C1146 C1151 1.363 . S
C1147 H1118 0.950 . S
C1147 C1146 1.397 . S
C1147 C1148 1.334 . S
C1148 H1119 0.950 . S
C1148 C1147 1.334 . S
C1148 C1149 1.287 . S
C1149 C1148 1.287 . S
C1149 C1150 1.524 . S
C1149 H1152 0.999 . S
C1150 H1120 0.950 . S
C1150 C1149 1.524 . S
C1150 C1151 1.415 . S
C1151 H1121 0.950 . S
C1151 C1146 1.363 . S
C1151 C1150 1.415 . S
H1152 C1149 0.999 . S
H1153 C1134 0.913 . S
H1154 C1172 0.951 . S
H1155 C1174 0.951 . S
H1156 C1176 0.950 . S
H1157 C1177 0.950 . S
H1158 C1179 0.950 . S
H1159 C1182 0.950 . S
H1160 C1183 0.950 . S
H1161 C1185 0.950 . S
H1162 C1186 0.950 . S
H1163 C1187 0.951 . S
H1164 C1189 0.951 . S
H1165 C1191 0.950 . S
H1166 C1192 0.950 . S
H1167 C1194 0.950 . S
H1168 C1197 0.950 . S
H1169 C1198 0.950 . S
H1170 C1200 0.949 . S
H1171 C1201 0.950 . S
C1172 H1154 0.951 . S
C1172 C1173 1.366 . S
C1172 C1174 1.388 . S
C1173 C1172 1.366 . S
C1173 C1177 1.385 . S
C1174 H1155 0.951 . S
C1174 C1172 1.388 . S
C1174 C1175 1.366 . S
C1175 C1174 1.366 . S
C1175 C1176 1.414 . S
C1175 C1178 1.499 . S
C1176 H1156 0.950 . S
C1176 C1175 1.414 . S
C1176 C1177 1.374 . S
C1177 H1157 0.950 . S
C1177 C1173 1.385 . S
C1177 C1176 1.374 . S
C1178 C1175 1.499 . S
C1178 C1179 1.373 . S
C1178 C1180 1.389 . S
C1179 H1158 0.950 . S
C1179 C1178 1.373 . S
C1179 C1195 1.377 . S
C1180 C1178 1.389 . S
C1180 C1181 1.524 . S
C1180 C1194 1.377 . S
C1181 C1180 1.524 . S
C1181 C1182 1.397 . S
C1181 C1186 1.363 . S
C1182 H1159 0.950 . S
C1182 C1181 1.397 . S
C1182 C1183 1.334 . S
C1183 H1160 0.950 . S
C1183 C1182 1.334 . S
C1183 C1184 1.287 . S
C1184 C1183 1.287 . S
C1184 C1185 1.524 . S
C1184 H1203 0.913 . S
C1185 H1161 0.950 . S
C1185 C1184 1.524 . S
C1185 C1186 1.415 . S
C1186 H1162 0.950 . S
C1186 C1181 1.363 . S
C1186 C1185 1.415 . S
C1187 H1163 0.951 . S
C1187 C1188 1.366 . S
C1187 C1189 1.388 . S
C1188 C1187 1.366 . S
C1188 C1192 1.385 . S
C1189 H1164 0.951 . S
C1189 C1187 1.388 . S
C1189 C1190 1.366 . S
C1190 C1189 1.366 . S
C1190 C1191 1.414 . S
C1190 C1193 1.499 . S
C1191 H1165 0.950 . S
C1191 C1190 1.414 . S
C1191 C1192 1.374 . S
C1192 H1166 0.950 . S
C1192 C1188 1.385 . S
C1192 C1191 1.374 . S
C1193 C1190 1.499 . S
C1193 C1194 1.373 . S
C1193 C1195 1.389 . S
C1194 H1167 0.950 . S
C1194 C1180 1.377 . S
C1194 C1193 1.373 . S
C1195 C1179 1.377 . S
C1195 C1193 1.389 . S
C1195 C1196 1.524 . S
C1196 C1195 1.524 . S
C1196 C1197 1.413 . S
C1196 C1201 1.363 . S
C1197 H1168 0.950 . S
C1197 C1196 1.413 . S
C1197 C1198 1.318 1_455 S
C1198 H1169 0.950 . S
C1198 C1197 1.318 1_655 S
C1198 C1199 1.287 . S
C1199 C1198 1.287 . S
C1199 C1200 1.504 1_655 S
C1199 H1202 0.999 . S
C1200 H1170 0.949 . S
C1200 C1199 1.504 1_455 S
C1200 C1201 1.436 . S
C1201 H1171 0.950 . S
C1201 C1196 1.363 . S
C1201 C1200 1.436 . S
H1202 C1199 0.999 . S
H1203 C1184 0.913 . S
H1204 C1222 0.951 . S
H1205 C1224 0.951 . S
H1206 C1226 0.950 . S
H1207 C1227 0.950 . S
H1208 C1229 0.950 . S
H1209 C1232 0.950 . S
H1210 C1233 0.950 . S
H1211 C1235 0.950 . S
H1212 C1236 0.950 . S
H1213 C1237 0.962 . S
H1214 C1239 0.951 . S
H1215 C1241 0.950 . S
H1216 C1242 0.950 . S
H1217 C1244 0.942 1_545 S
H1218 C1247 0.950 . S
H1219 C1248 0.950 . S
H1220 C1250 0.950 . S
H1221 C1251 0.950 . S
C1222 H1204 0.951 . S
C1222 C1223 1.366 . S
C1222 C1224 1.388 . S
C1223 C1222 1.366 . S
C1223 C1227 1.385 1_556 S
C1224 H1205 0.951 . S
C1224 C1222 1.388 . S
C1224 C1225 1.366 . S
C1225 C1224 1.366 . S
C1225 C1226 1.414 1_556 S
C1225 C1228 1.500 1_556 S
C1226 H1206 0.950 . S
C1226 C1225 1.414 1_554 S
C1226 C1227 1.374 . S
C1227 H1207 0.950 . S
C1227 C1223 1.385 1_554 S
C1227 C1226 1.374 . S
C1228 C1225 1.500 1_554 S
C1228 C1229 1.369 . S
C1228 C1230 1.394 1_564 S
C1229 H1208 0.950 . S
C1229 C1228 1.369 . S
C1229 C1245 1.377 . S
C1230 C1228 1.394 1_546 S
C1230 C1231 1.523 . S
C1230 C1244 1.377 1_545 S
C1231 C1230 1.523 . S
C1231 C1232 1.397 . S
C1231 C1236 1.363 . S
C1232 H1209 0.950 . S
C1232 C1231 1.397 . S
C1232 C1233 1.334 . S
C1233 H1210 0.950 . S
C1233 C1232 1.334 . S
C1233 C1234 1.287 . S
C1234 C1233 1.287 . S
C1234 C1235 1.524 . S
C1234 H1253 0.913 . S
C1235 H1211 0.950 . S
C1235 C1234 1.524 . S
C1235 C1236 1.415 . S
C1236 H1212 0.950 . S
C1236 C1231 1.363 . S
C1236 C1235 1.415 . S
C1237 H1213 0.962 . S
C1237 C1238 1.366 . S
C1237 C1239 1.388 . S
C1238 C1237 1.366 . S
C1238 C1242 1.385 1_554 S
C1239 H1214 0.951 . S
C1239 C1237 1.388 . S
C1239 C1240 1.366 . S
C1240 C1239 1.366 . S
C1240 C1241 1.414 1_554 S
C1240 C1243 1.499 . S
C1241 H1215 0.950 . S
C1241 C1240 1.414 1_556 S
C1241 C1242 1.374 . S
C1242 H1216 0.950 . S
C1242 C1238 1.385 1_556 S
C1242 C1241 1.374 . S
C1243 C1240 1.499 . S
C1243 C1244 1.382 1_554 S
C1243 C1245 1.389 . S
C1244 H1217 0.942 1_565 S
C1244 C1230 1.377 1_565 S
C1244 C1243 1.382 1_556 S
C1245 C1229 1.377 . S
C1245 C1243 1.389 . S
C1245 C1246 1.524 . S
C1246 C1245 1.524 . S
C1246 C1247 1.397 . S
C1246 C1251 1.363 . S
C1247 H1218 0.950 . S
C1247 C1246 1.397 . S
C1247 C1248 1.334 . S
C1248 H1219 0.950 . S
C1248 C1247 1.334 . S
C1248 C1249 1.287 . S
C1249 C1248 1.287 . S
C1249 C1250 1.524 . S
C1249 H1252 0.999 . S
C1250 H1220 0.950 . S
C1250 C1249 1.524 . S
C1250 C1251 1.415 . S
C1251 H1221 0.950 . S
C1251 C1246 1.363 . S
C1251 C1250 1.415 . S
H1252 C1249 0.999 . S
H1253 C1234 0.913 . S
H1254 C1272 0.951 . S
H1255 C1274 0.951 . S
H1256 C1276 0.950 . S
H1257 C1277 0.950 . S
H1258 C1279 0.950 . S
H1259 C1282 0.950 1_545 S
H1260 C1283 0.950 . S
H1261 C1285 0.950 . S
H1262 C1286 0.950 . S
H1263 C1287 0.951 . S
H1264 C1289 0.951 . S
H1265 C1291 0.950 . S
H1266 C1292 0.950 . S
H1267 C1294 0.950 . S
H1268 C1297 0.950 . S
H1269 C1298 0.950 . S
H1270 C1300 0.950 . S
H1271 C1301 0.950 . S
C1272 H1254 0.951 . S
C1272 C1273 1.366 . S
C1272 C1274 1.388 . S
C1273 C1272 1.366 . S
C1273 C1277 1.385 . S
C1274 H1255 0.951 . S
C1274 C1272 1.388 . S
C1274 C1275 1.366 . S
C1275 C1274 1.366 . S
C1275 C1276 1.414 . S
C1275 C1278 1.499 . S
C1276 H1256 0.950 . S
C1276 C1275 1.414 . S
C1276 C1277 1.374 . S
C1277 H1257 0.950 . S
C1277 C1273 1.385 . S
C1277 C1276 1.374 . S
C1278 C1275 1.499 . S
C1278 C1279 1.373 . S
C1278 C1280 1.389 . S
C1279 H1258 0.950 . S
C1279 C1278 1.373 . S
C1279 C1295 1.377 . S
C1280 C1278 1.389 . S
C1280 C1281 1.524 . S
C1280 C1294 1.377 . S
C1281 C1280 1.524 . S
C1281 C1282 1.397 1_545 S
C1281 C1286 1.363 . S
C1282 H1259 0.950 1_565 S
C1282 C1281 1.397 1_565 S
C1282 C1283 1.334 . S
C1283 H1260 0.950 . S
C1283 C1282 1.334 . S
C1283 C1284 1.287 . S
C1284 C1283 1.287 . S
C1284 C1285 1.524 . S
C1284 H1303 0.913 . S
C1285 H1261 0.950 . S
C1285 C1284 1.524 . S
C1285 C1286 1.415 1_565 S
C1286 H1262 0.950 . S
C1286 C1281 1.363 . S
C1286 C1285 1.415 1_545 S
C1287 H1263 0.951 . S
C1287 C1288 1.366 . S
C1287 C1289 1.388 . S
C1288 C1287 1.366 . S
C1288 C1292 1.385 . S
C1289 H1264 0.951 . S
C1289 C1287 1.388 . S
C1289 C1290 1.366 . S
C1290 C1289 1.366 . S
C1290 C1291 1.414 . S
C1290 C1293 1.499 . S
C1291 H1265 0.950 . S
C1291 C1290 1.414 . S
C1291 C1292 1.374 . S
C1292 H1266 0.950 . S
C1292 C1288 1.385 . S
C1292 C1291 1.374 . S
C1293 C1290 1.499 . S
C1293 C1294 1.373 . S
C1293 C1295 1.389 . S
C1294 H1267 0.950 . S
C1294 C1280 1.377 . S
C1294 C1293 1.373 . S
C1295 C1279 1.377 . S
C1295 C1293 1.389 . S
C1295 C1296 1.524 . S
C1296 C1295 1.524 . S
C1296 C1297 1.397 . S
C1296 C1301 1.363 . S
C1297 H1268 0.950 . S
C1297 C1296 1.397 . S
C1297 C1298 1.334 . S
C1298 H1269 0.950 . S
C1298 C1297 1.334 . S
C1298 C1299 1.287 . S
C1299 C1298 1.287 . S
C1299 C1300 1.524 . S
C1299 H1302 0.999 . S
C1300 H1270 0.950 . S
C1300 C1299 1.524 . S
C1300 C1301 1.415 . S
C1301 H1271 0.950 . S
C1301 C1296 1.363 . S
C1301 C1300 1.415 . S
H1302 C1299 0.999 . S
H1303 C1284 0.913 . S
H1304 C1322 0.951 . S
H1305 C1324 0.951 . S
H1306 C1326 0.950 . S
H1307 C1327 0.950 . S
H1308 C1329 0.950 . S
H1309 C1332 0.915 1_554 S
H1310 C1333 0.950 . S
H1311 C1335 0.950 . S
H1312 C1336 0.950 . S
H1313 C1337 0.951 . S
H1314 C1339 0.951 . S
H1315 C1341 0.950 1_556 S
H1316 C1342 0.950 . S
H1317 C1344 0.950 1_556 S
H1318 C1347 0.950 . S
H1319 C1348 0.950 . S
H1320 C1350 0.950 . S
H1321 C1351 0.950 . S
C1322 H1304 0.951 . S
C1322 C1323 1.366 . S
C1322 C1324 1.388 . S
C1323 C1322 1.366 . S
C1323 C1327 1.385 . S
C1324 H1305 0.951 . S
C1324 C1322 1.388 . S
C1324 C1325 1.366 . S
C1325 C1324 1.366 . S
C1325 C1326 1.414 . S
C1325 C1328 1.499 . S
C1326 H1306 0.950 . S
C1326 C1325 1.414 . S
C1326 C1327 1.374 . S
C1327 H1307 0.950 . S
C1327 C1323 1.385 . S
C1327 C1326 1.374 . S
C1328 C1325 1.499 . S
C1328 C1329 1.373 . S
C1328 C1330 1.389 . S
C1329 H1308 0.950 . S
C1329 C1328 1.373 . S
C1329 C1345 1.377 . S
C1330 C1328 1.389 . S
C1330 C1331 1.524 1_554 S
C1330 C1344 1.377 . S
C1331 C1330 1.524 1_556 S
C1331 C1332 1.408 . S
C1331 C1336 1.363 . S
C1332 H1309 0.915 1_556 S
C1332 C1331 1.408 . S
C1332 C1333 1.358 . S
C1333 H1310 0.950 . S
C1333 C1332 1.358 . S
C1333 C1334 1.287 . S
C1334 C1333 1.287 . S
C1334 C1335 1.524 . S
C1334 H1353 0.913 . S
C1335 H1311 0.950 . S
C1335 C1334 1.524 . S
C1335 C1336 1.415 . S
C1336 H1312 0.950 . S
C1336 C1331 1.363 . S
C1336 C1335 1.415 . S
C1337 H1313 0.951 . S
C1337 C1338 1.366 . S
C1337 C1339 1.388 . S
C1338 C1337 1.366 . S
C1338 C1342 1.385 1_554 S
C1339 H1314 0.951 . S
C1339 C1337 1.388 . S
C1339 C1340 1.366 . S
C1340 C1339 1.366 . S
C1340 C1341 1.414 . S
C1340 C1343 1.499 . S
C1341 H1315 0.950 1_554 S
C1341 C1340 1.414 . S
C1341 C1342 1.374 1_554 S
C1342 H1316 0.950 . S
C1342 C1338 1.385 1_556 S
C1342 C1341 1.374 1_556 S
C1343 C1340 1.499 . S
C1343 C1344 1.373 . S
C1343 C1345 1.389 . S
C1344 H1317 0.950 1_554 S
C1344 C1330 1.377 . S
C1344 C1343 1.373 . S
C1345 C1329 1.377 . S
C1345 C1343 1.389 . S
C1345 C1346 1.524 . S
C1346 C1345 1.524 . S
C1346 C1347 1.397 . S
C1346 C1351 1.363 . S
C1347 H1318 0.950 . S
C1347 C1346 1.397 . S
C1347 C1348 1.334 . S
C1348 H1319 0.950 . S
C1348 C1347 1.334 . S
C1348 C1349 1.287 . S
C1349 C1348 1.287 . S
C1349 C1350 1.524 . S
C1349 H1352 0.999 . S
C1350 H1320 0.950 . S
C1350 C1349 1.524 . S
C1350 C1351 1.415 . S
C1351 H1321 0.950 . S
C1351 C1346 1.363 . S
C1351 C1350 1.415 . S
H1352 C1349 0.999 . S
H1353 C1334 0.913 . S
H1354 C1372 0.951 . S
H1355 C1374 0.951 . S
H1356 C1376 0.950 . S
H1357 C1377 0.950 . S
H1358 C1379 0.950 . S
H1359 C1382 0.950 . S
H1360 C1383 0.950 . S
H1361 C1385 0.950 . S
H1362 C1386 0.950 . S
H1363 C1387 0.951 . S
H1364 C1389 0.951 . S
H1365 C1391 0.950 . S
H1366 C1392 0.950 . S
H1367 C1394 0.950 . S
H1368 C1397 0.950 . S
H1369 C1398 0.950 . S
H1370 C1400 0.950 . S
H1371 C1401 0.950 . S
C1372 H1354 0.951 . S
C1372 C1373 1.366 . S
C1372 C1374 1.388 . S
C1373 C1372 1.366 . S
C1373 C1377 1.385 . S
C1374 H1355 0.951 . S
C1374 C1372 1.388 . S
C1374 C1375 1.366 . S
C1375 C1374 1.366 . S
C1375 C1376 1.414 . S
C1375 C1378 1.499 . S
C1376 H1356 0.950 . S
C1376 C1375 1.414 . S
C1376 C1377 1.374 . S
C1377 H1357 0.950 . S
C1377 C1373 1.385 . S
C1377 C1376 1.374 . S
C1378 C1375 1.499 . S
C1378 C1379 1.373 . S
C1378 C1380 1.389 . S
C1379 H1358 0.950 . S
C1379 C1378 1.373 . S
C1379 C1395 1.377 . S
C1380 C1378 1.389 . S
C1380 C1381 1.524 . S
C1380 C1394 1.377 . S
C1381 C1380 1.524 . S
C1381 C1382 1.397 . S
C1381 C1386 1.363 . S
C1382 H1359 0.950 . S
C1382 C1381 1.397 . S
C1382 C1383 1.334 . S
C1383 H1360 0.950 . S
C1383 C1382 1.334 . S
C1383 C1384 1.287 . S
C1384 C1383 1.287 . S
C1384 C1385 1.524 . S
C1384 H1403 0.913 . S
C1385 H1361 0.950 . S
C1385 C1384 1.524 . S
C1385 C1386 1.415 . S
C1386 H1362 0.950 . S
C1386 C1381 1.363 . S
C1386 C1385 1.415 . S
C1387 H1363 0.951 . S
C1387 C1388 1.366 . S
C1387 C1389 1.388 . S
C1388 C1387 1.366 . S
C1388 C1392 1.385 . S
C1389 H1364 0.951 . S
C1389 C1387 1.388 . S
C1389 C1390 1.366 . S
C1390 C1389 1.366 . S
C1390 C1391 1.414 . S
C1390 C1393 1.499 . S
C1391 H1365 0.950 . S
C1391 C1390 1.414 . S
C1391 C1392 1.374 . S
C1392 H1366 0.950 . S
C1392 C1388 1.385 . S
C1392 C1391 1.374 . S
C1393 C1390 1.499 . S
C1393 C1394 1.373 . S
C1393 C1395 1.389 . S
C1394 H1367 0.950 . S
C1394 C1380 1.377 . S
C1394 C1393 1.373 . S
C1395 C1379 1.377 . S
C1395 C1393 1.389 . S
C1395 C1396 1.524 . S
C1396 C1395 1.524 . S
C1396 C1397 1.397 . S
C1396 C1401 1.363 . S
C1397 H1368 0.950 . S
C1397 C1396 1.397 . S
C1397 C1398 1.334 . S
C1398 H1369 0.950 . S
C1398 C1397 1.334 . S
C1398 C1399 1.287 . S
C1399 C1398 1.287 . S
C1399 C1400 1.524 . S
C1399 H1402 0.999 . S
C1400 H1370 0.950 . S
C1400 C1399 1.524 . S
C1400 C1401 1.415 . S
C1401 H1371 0.950 . S
C1401 C1396 1.363 . S
C1401 C1400 1.415 . S
H1402 C1399 0.999 . S
H1403 C1384 0.913 . S
H1404 C1422 0.951 1_554 S
H1405 C1424 0.967 . S
H1406 C1426 0.950 . S
H1407 C1427 0.953 . S
H1408 C1429 0.950 . S
H1409 C1432 0.950 1_556 S
H1410 C1433 0.950 . S
H1411 C1435 0.950 . S
H1412 C1436 0.950 . S
H1413 C1437 0.951 . S
H1414 C1439 0.951 . S
H1415 C1441 0.950 . S
H1416 C1442 0.950 . S
H1417 C1444 0.979 . S
H1418 C1447 0.950 . S
H1419 C1448 0.950 . S
H1420 C1450 0.950 . S
H1421 C1451 0.950 . S
C1422 H1404 0.951 1_556 S
C1422 C1423 1.366 . S
C1422 C1424 1.387 1_556 S
C1423 C1422 1.366 . S
C1423 C1427 1.378 1_655 S
C1424 H1405 0.967 . S
C1424 C1422 1.387 1_554 S
C1424 C1425 1.351 1_654 S
C1425 C1424 1.351 1_456 S
C1425 C1426 1.414 . S
C1425 C1428 1.499 . S
C1426 H1406 0.950 . S
C1426 C1425 1.414 . S
C1426 C1427 1.380 . S
C1427 H1407 0.953 . S
C1427 C1423 1.378 1_455 S
C1427 C1426 1.380 . S
C1428 C1425 1.499 . S
C1428 C1429 1.373 1_455 S
C1428 C1430 1.389 . S
C1429 H1408 0.950 . S
C1429 C1428 1.373 1_655 S
C1429 C1445 1.377 . S
C1430 C1428 1.389 . S
C1430 C1431 1.524 1_556 S
C1430 C1444 1.374 1_556 S
C1431 C1430 1.524 1_554 S
C1431 C1432 1.397 . S
C1431 C1436 1.363 . S
C1432 H1409 0.950 1_554 S
C1432 C1431 1.397 . S
C1432 C1433 1.334 . S
C1433 H1410 0.950 . S
C1433 C1432 1.334 . S
C1433 C1434 1.287 . S
C1434 C1433 1.287 . S
C1434 C1435 1.524 . S
C1434 H1453 0.913 . S
C1435 H1411 0.950 . S
C1435 C1434 1.524 . S
C1435 C1436 1.415 . S
C1436 H1412 0.950 . S
C1436 C1431 1.363 . S
C1436 C1435 1.415 . S
C1437 H1413 0.951 . S
C1437 C1438 1.366 . S
C1437 C1439 1.388 . S
C1438 C1437 1.366 . S
C1438 C1442 1.385 1_556 S
C1439 H1414 0.951 . S
C1439 C1437 1.388 . S
C1439 C1440 1.366 . S
C1440 C1439 1.366 . S
C1440 C1441 1.414 1_556 S
C1440 C1443 1.499 . S
C1441 H1415 0.950 . S
C1441 C1440 1.414 1_554 S
C1441 C1442 1.374 . S
C1442 H1416 0.950 . S
C1442 C1438 1.385 1_554 S
C1442 C1441 1.374 . S
C1443 C1440 1.499 . S
C1443 C1444 1.349 1_556 S
C1443 C1445 1.389 1_455 S
C1444 H1417 0.979 . S
C1444 C1430 1.374 1_554 S
C1444 C1443 1.349 1_554 S
C1445 C1429 1.377 . S
C1445 C1443 1.389 1_655 S
C1445 C1446 1.524 . S
C1446 C1445 1.524 . S
C1446 C1447 1.397 . S
C1446 C1451 1.363 . S
C1447 H1418 0.950 . S
C1447 C1446 1.397 . S
C1447 C1448 1.334 . S
C1448 H1419 0.950 . S
C1448 C1447 1.334 . S
C1448 C1449 1.287 . S
C1449 C1448 1.287 . S
C1449 C1450 1.524 . S
C1449 H1452 0.999 . S
C1450 H1420 0.950 . S
C1450 C1449 1.524 . S
C1450 C1451 1.415 . S
C1451 H1421 0.950 . S
C1451 C1446 1.363 . S
C1451 C1450 1.415 . S
H1452 C1449 0.999 . S
H1453 C1434 0.913 . S
H1454 C1472 0.951 . S
H1455 C1474 0.951 . S
H1456 C1476 0.950 . S
H1457 C1477 0.950 . S
H1458 C1479 0.950 . S
H1459 C1482 0.950 . S
H1460 C1483 0.950 . S
H1461 C1485 0.950 . S
H1462 C1486 0.950 1_556 S
H1463 C1487 0.951 . S
H1464 C1489 0.951 . S
H1465 C1491 0.950 . S
H1466 C1492 0.950 . S
H1467 C1494 0.950 . S
H1468 C1497 0.950 . S
H1469 C1498 0.950 . S
H1470 C1500 0.950 . S
H1471 C1501 0.950 . S
C1472 H1454 0.951 . S
C1472 C1473 1.366 . S
C1472 C1474 1.388 . S
C1473 C1472 1.366 . S
C1473 C1477 1.385 . S
C1474 H1455 0.951 . S
C1474 C1472 1.388 . S
C1474 C1475 1.366 . S
C1475 C1474 1.366 . S
C1475 C1476 1.414 . S
C1475 C1478 1.499 . S
C1476 H1456 0.950 . S
C1476 C1475 1.414 . S
C1476 C1477 1.374 . S
C1477 H1457 0.950 . S
C1477 C1473 1.385 . S
C1477 C1476 1.374 . S
C1478 C1475 1.499 . S
C1478 C1479 1.373 . S
C1478 C1480 1.389 . S
C1479 H1458 0.950 . S
C1479 C1478 1.373 . S
C1479 C1495 1.377 . S
C1480 C1478 1.389 . S
C1480 C1481 1.524 . S
C1480 C1494 1.377 . S
C1481 C1480 1.524 . S
C1481 C1482 1.397 . S
C1481 C1486 1.363 . S
C1482 H1459 0.950 . S
C1482 C1481 1.397 . S
C1482 C1483 1.334 . S
C1483 H1460 0.950 . S
C1483 C1482 1.334 . S
C1483 C1484 1.287 . S
C1484 C1483 1.287 . S
C1484 C1485 1.524 1_554 S
C1484 H1503 0.913 . S
C1485 H1461 0.950 . S
C1485 C1484 1.524 1_556 S
C1485 C1486 1.415 1_556 S
C1486 H1462 0.950 1_554 S
C1486 C1481 1.363 . S
C1486 C1485 1.415 1_554 S
C1487 H1463 0.951 . S
C1487 C1488 1.366 . S
C1487 C1489 1.388 . S
C1488 C1487 1.366 . S
C1488 C1492 1.385 . S
C1489 H1464 0.951 . S
C1489 C1487 1.388 . S
C1489 C1490 1.366 . S
C1490 C1489 1.366 . S
C1490 C1491 1.414 . S
C1490 C1493 1.499 . S
C1491 H1465 0.950 . S
C1491 C1490 1.414 . S
C1491 C1492 1.374 . S
C1492 H1466 0.950 . S
C1492 C1488 1.385 . S
C1492 C1491 1.374 . S
C1493 C1490 1.499 . S
C1493 C1494 1.373 . S
C1493 C1495 1.389 . S
C1494 H1467 0.950 . S
C1494 C1480 1.377 . S
C1494 C1493 1.373 . S
C1495 C1479 1.377 . S
C1495 C1493 1.389 . S
C1495 C1496 1.524 . S
C1496 C1495 1.524 . S
C1496 C1497 1.397 . S
C1496 C1501 1.363 . S
C1497 H1468 0.950 . S
C1497 C1496 1.397 . S
C1497 C1498 1.334 . S
C1498 H1469 0.950 . S
C1498 C1497 1.334 . S
C1498 C1499 1.287 . S
C1499 C1498 1.287 . S
C1499 C1500 1.524 . S
C1499 H1502 0.999 . S
C1500 H1470 0.950 . S
C1500 C1499 1.524 . S
C1500 C1501 1.415 . S
C1501 H1471 0.950 . S
C1501 C1496 1.363 . S
C1501 C1500 1.415 . S
H1502 C1499 0.999 . S
H1503 C1484 0.913 . S
H1504 C1522 0.951 . S
H1505 C1524 0.951 . S
H1506 C1526 0.950 . S
H1507 C1527 0.950 . S
H1508 C1529 0.950 . S
H1509 C1532 0.950 . S
H1510 C1533 0.950 . S
H1511 C1535 0.950 . S
H1512 C1536 0.950 . S
H1513 C1537 0.951 1_655 S
H1514 C1539 0.951 1_655 S
H1515 C1541 0.950 . S
H1516 C1542 0.950 . S
H1517 C1544 0.950 . S
H1518 C1547 0.950 . S
H1519 C1548 0.950 . S
H1520 C1550 0.950 . S
H1521 C1551 0.950 . S
C1522 H1504 0.951 . S
C1522 C1523 1.366 . S
C1522 C1524 1.388 . S
C1523 C1522 1.366 . S
C1523 C1527 1.385 . S
C1524 H1505 0.951 . S
C1524 C1522 1.388 . S
C1524 C1525 1.366 . S
C1525 C1524 1.366 . S
C1525 C1526 1.414 . S
C1525 C1528 1.499 . S
C1526 H1506 0.950 . S
C1526 C1525 1.414 . S
C1526 C1527 1.374 . S
C1527 H1507 0.950 . S
C1527 C1523 1.385 . S
C1527 C1526 1.374 . S
C1528 C1525 1.499 . S
C1528 C1529 1.373 . S
C1528 C1530 1.389 . S
C1529 H1508 0.950 . S
C1529 C1528 1.373 . S
C1529 C1545 1.377 . S
C1530 C1528 1.389 . S
C1530 C1531 1.524 . S
C1530 C1544 1.377 . S
C1531 C1530 1.524 . S
C1531 C1532 1.397 . S
C1531 C1536 1.363 . S
C1532 H1509 0.950 . S
C1532 C1531 1.397 . S
C1532 C1533 1.334 . S
C1533 H1510 0.950 . S
C1533 C1532 1.334 . S
C1533 C1534 1.287 . S
C1534 C1533 1.287 . S
C1534 C1535 1.524 . S
C1534 H1553 0.913 . S
C1535 H1511 0.950 . S
C1535 C1534 1.524 . S
C1535 C1536 1.415 . S
C1536 H1512 0.950 . S
C1536 C1531 1.363 . S
C1536 C1535 1.415 . S
C1537 H1513 0.951 1_455 S
C1537 C1538 1.366 . S
C1537 C1539 1.388 . S
C1538 C1537 1.366 . S
C1538 C1542 1.385 . S
C1539 H1514 0.951 1_455 S
C1539 C1537 1.388 . S
C1539 C1540 1.366 . S
C1540 C1539 1.366 . S
C1540 C1541 1.414 . S
C1540 C1543 1.499 . S
C1541 H1515 0.950 . S
C1541 C1540 1.414 . S
C1541 C1542 1.374 . S
C1542 H1516 0.950 . S
C1542 C1538 1.385 . S
C1542 C1541 1.374 . S
C1543 C1540 1.499 . S
C1543 C1544 1.373 . S
C1543 C1545 1.389 . S
C1544 H1517 0.950 . S
C1544 C1530 1.377 . S
C1544 C1543 1.373 . S
C1545 C1529 1.377 . S
C1545 C1543 1.389 . S
C1545 C1546 1.524 . S
C1546 C1545 1.524 . S
C1546 C1547 1.397 . S
C1546 C1551 1.363 1_455 S
C1547 H1518 0.950 . S
C1547 C1546 1.397 . S
C1547 C1548 1.334 . S
C1548 H1519 0.950 . S
C1548 C1547 1.334 . S
C1548 C1549 1.287 1_455 S
C1549 C1548 1.287 1_655 S
C1549 C1550 1.524 . S
C1549 H1552 0.999 . S
C1550 H1520 0.950 . S
C1550 C1549 1.524 . S
C1550 C1551 1.415 . S
C1551 H1521 0.950 . S
C1551 C1546 1.363 1_655 S
C1551 C1550 1.415 . S
H1552 C1549 0.999 . S
H1553 C1534 0.913 . S
H1554 C1572 0.951 . S
H1555 C1574 0.951 . S
H1556 C1576 0.950 . S
H1557 C1577 0.950 . S
H1558 C1579 0.950 . S
H1559 C1582 0.950 . S
H1560 C1583 0.950 . S
H1561 C1585 0.950 . S
H1562 C1586 0.950 . S
H1563 C1587 0.951 . S
H1564 C1589 0.951 . S
H1565 C1591 0.950 . S
H1566 C1592 0.950 . S
H1567 C1594 0.950 . S
H1568 C1597 0.950 . S
H1569 C1598 0.950 . S
H1570 C1600 0.950 . S
H1571 C1601 0.950 . S
C1572 H1554 0.951 . S
C1572 C1573 1.366 . S
C1572 C1574 1.388 . S
C1573 C1572 1.366 . S
C1573 C1577 1.385 . S
C1574 H1555 0.951 . S
C1574 C1572 1.388 . S
C1574 C1575 1.366 . S
C1575 C1574 1.366 . S
C1575 C1576 1.414 . S
C1575 C1578 1.499 . S
C1576 H1556 0.950 . S
C1576 C1575 1.414 . S
C1576 C1577 1.374 . S
C1577 H1557 0.950 . S
C1577 C1573 1.385 . S
C1577 C1576 1.374 . S
C1578 C1575 1.499 . S
C1578 C1579 1.373 . S
C1578 C1580 1.389 . S
C1579 H1558 0.950 . S
C1579 C1578 1.373 . S
C1579 C1595 1.377 . S
C1580 C1578 1.389 . S
C1580 C1581 1.524 . S
C1580 C1594 1.377 . S
C1581 C1580 1.524 . S
C1581 C1582 1.397 . S
C1581 C1586 1.363 . S
C1582 H1559 0.950 . S
C1582 C1581 1.397 . S
C1582 C1583 1.334 . S
C1583 H1560 0.950 . S
C1583 C1582 1.334 . S
C1583 C1584 1.287 . S
C1584 C1583 1.287 . S
C1584 C1585 1.524 . S
C1584 H1603 0.913 . S
C1585 H1561 0.950 . S
C1585 C1584 1.524 . S
C1585 C1586 1.415 . S
C1586 H1562 0.950 . S
C1586 C1581 1.363 . S
C1586 C1585 1.415 . S
C1587 H1563 0.951 . S
C1587 C1588 1.366 . S
C1587 C1589 1.388 . S
C1588 C1587 1.366 . S
C1588 C1592 1.385 . S
C1589 H1564 0.951 . S
C1589 C1587 1.388 . S
C1589 C1590 1.366 . S
C1590 C1589 1.366 . S
C1590 C1591 1.414 . S
C1590 C1593 1.499 . S
C1591 H1565 0.950 . S
C1591 C1590 1.414 . S
C1591 C1592 1.374 . S
C1592 H1566 0.950 . S
C1592 C1588 1.385 . S
C1592 C1591 1.374 . S
C1593 C1590 1.499 . S
C1593 C1594 1.373 . S
C1593 C1595 1.389 . S
C1594 H1567 0.950 . S
C1594 C1580 1.377 . S
C1594 C1593 1.373 . S
C1595 C1579 1.377 . S
C1595 C1593 1.389 . S
C1595 C1596 1.524 . S
C1596 C1595 1.524 . S
C1596 C1597 1.397 . S
C1596 C1601 1.363 . S
C1597 H1568 0.950 . S
C1597 C1596 1.397 . S
C1597 C1598 1.334 . S
C1598 H1569 0.950 . S
C1598 C1597 1.334 . S
C1598 C1599 1.287 . S
C1599 C1598 1.287 . S
C1599 C1600 1.524 . S
C1599 H1602 0.999 . S
C1600 H1570 0.950 . S
C1600 C1599 1.524 . S
C1600 C1601 1.415 . S
C1601 H1571 0.950 . S
C1601 C1596 1.363 . S
C1601 C1600 1.415 . S
H1602 C1599 0.999 . S
H1603 C1584 0.913 . S
C423 C21 1.566 . S
C438 C323 1.466 . S
C473 C61 1.527 . S
C488 C357 1.429 . S
C538 C369 1.337 . S
C523 C82 1.428 . S
C573 C135 1.525 . S
C588 C403 1.418 1_655 S
C638 C360 1.432 . S
C623 C15 1.544 . S
C688 C340 1.433 1_565 S
C673 C42 1.528 . S
C738 C387 1.386 . S
C723 C101 1.483 . S
C788 C378 1.382 . S
C773 C122 1.468 . S
C823 C2 1.565 . S
C838 C386 1.465 . S
C888 C348 1.348 . S
C873 C95 1.453 . S
C923 C141 1.519 . S
C938 C324 1.413 . S
C973 C55 1.510 . S
C988 C381 1.401 . S
C1038 C339 1.712 . S
C1023 C181 1.744 . S
C1073 C202 1.696 . S
C1088 C361 1.662 . S
C1123 C255 1.751 . S
C1138 C366 1.660 . S
C1173 C295 1.768 . S
C1188 C399 1.675 . S
C1223 C175 1.769 . S
C1238 C344 1.691 . S
C1288 C336 1.732 . S
C1273 C221 1.760 . S
C1338 C390 1.648 . S
C1323 C242 1.681 . S
C1388 C382 1.693 . S
C1373 C301 1.831 . S
C1423 C162 1.671 . S
C1438 C402 1.640 . S
C1488 C345 1.675 . S
C1473 C261 1.706 . S
C1538 C327 1.666 . S
C1523 C282 1.794 . S
C1573 C215 1.787 . S
C1588 C365 1.704 . S
