# Generated by pormake.
# Topology pth, (4,4)-cn, num edge types: 1
# Building blocks:
#     Node 0, Type 0, BuildingBlock: UXUYUI_clean_sbu_0, # of connection points: 4
#     Node 1, Type 0, BuildingBlock: UXUYUI_clean_sbu_0, # of connection points: 4
#     Node 2, Type 0, BuildingBlock: UXUYUI_clean_sbu_0, # of connection points: 4
#     Node 3, Type 1, BuildingBlock: KOZSID_clean_sbu_0, # of connection points: 4
#     Node 4, Type 1, BuildingBlock: KOZSID_clean_sbu_0, # of connection points: 4
#     Node 5, Type 1, BuildingBlock: KOZSID_clean_sbu_0, # of connection points: 4
#     Edge 6, Type (0, 1), BuildingBlock: OJICUG_clean_linker_0, # of connection points: 2
#     Edge 7, Type (0, 1), BuildingBlock: OJICUG_clean_linker_0, # of connection points: 2
#     Edge 8, Type (0, 1), BuildingBlock: OJICUG_clean_linker_0, # of connection points: 2
#     Edge 9, Type (0, 1), BuildingBlock: OJICUG_clean_linker_0, # of connection points: 2
#     Edge 10, Type (0, 1), BuildingBlock: OJICUG_clean_linker_0, # of connection points: 2
#     Edge 11, Type (0, 1), BuildingBlock: OJICUG_clean_linker_0, # of connection points: 2
#     Edge 12, Type (0, 1), BuildingBlock: OJICUG_clean_linker_0, # of connection points: 2
#     Edge 13, Type (0, 1), BuildingBlock: OJICUG_clean_linker_0, # of connection points: 2
#     Edge 14, Type (0, 1), BuildingBlock: OJICUG_clean_linker_0, # of connection points: 2
#     Edge 15, Type (0, 1), BuildingBlock: OJICUG_clean_linker_0, # of connection points: 2
#     Edge 16, Type (0, 1), BuildingBlock: OJICUG_clean_linker_0, # of connection points: 2
#     Edge 17, Type (0, 1), BuildingBlock: OJICUG_clean_linker_0, # of connection points: 2
# Relax obj value: 0.074
# Max RMSD: 0.214
# Mean RMSD: 0.112
data_MOF--net-pth--node1-UXUYUI_clean_sbu_0--node2-KOZSID_clean_sbu_0--edge1-OJICUG_clean_linker_0
_symmetry_space_group_name_H-M    P1
_symmetry_Int_Tables_number       1
_symmetry_cell_setting            triclinic
loop_
_symmetry_equiv_pos_as_xyz
'x, y, z'
_cell_length_a     25.704022
_cell_length_b     25.713004
_cell_length_c     58.411596
_cell_angle_alpha  87.278996
_cell_angle_beta   87.265532
_cell_angle_gamma 120.03948
loop_
_atom_site_label
_atom_site_type_symbol
_atom_site_fract_x
_atom_site_fract_y
_atom_site_fract_z
_atom_type_partial_charge
Li0 Li 0.1216 0.09897 0.0217 0.0
Li1 Li 0.04846 0.0964 0.05063 0.0
Li2 Li 0.07694 0.01519 0.0517 0.0
Li3 Li 0.01242 0.01585 0.02303 0.0
C4 C 0.18526 0.14659 0.05812 0.0
N5 N 0.30248 0.23647 0.06242 0.0
C6 C 0.19786 0.20475 0.06219 0.0
C7 C 0.23216 0.13393 0.05661 0.0
C8 C 0.25744 0.24964 0.06421 0.0
C9 C 0.29114 0.18003 0.05873 0.0
C10 C 0.01678 0.12836 0.0067 0.0
C11 C 0.9221 0.12063 0.99854 0.0
N12 N 0.95253 0.17541 0.98638 0.0
C13 C 0.04707 0.18417 0.99379 0.0
C14 C 0.95375 0.09599 0.00882 0.0
C15 C 0.01381 0.20736 0.9838 0.0
C16 C 0.22199 0.14571 0.98679 0.0
N17 N 0.19008 0.15854 0.00247 0.0
C18 C 0.24922 0.26373 0.99045 0.0
C19 C 0.20291 0.21612 0.00452 0.0
C20 C 0.28288 0.25222 0.97392 0.0
C21 C 0.26896 0.19217 0.97229 0.0
H22 H 0.21038 0.09947 0.98524 0.0
H23 H 0.17595 0.22491 0.01678 0.0
C24 C 0.0295 0.14017 0.09185 0.0
N25 N 0.03647 0.15056 0.06856 0.0
C26 C 0.03061 0.18356 0.10573 0.0
C27 C 0.04452 0.2468 0.07139 0.0
C28 C 0.04353 0.20245 0.05821 0.0
C29 C 0.03903 0.23816 0.09551 0.0
H30 H 0.02519 0.09904 0.09965 0.0
H31 H 0.05122 0.21082 0.03976 0.0
C32 C 0.10688 0.97149 0.01598 0.0
N33 N 0.14561 0.88907 0.01335 0.0
C34 C 0.06649 0.91198 0.01167 0.0
C35 C 0.16716 0.98932 0.01856 0.0
C36 C 0.08688 0.87091 0.01052 0.0
C37 C 0.18583 0.94693 0.01727 0.0
C38 C 0.93676 0.9816 0.06542 0.0
C39 C 0.90572 0.92254 0.07566 0.0
C40 C 0.90768 0.01521 0.06461 0.0
C41 C 0.84556 0.89746 0.08418 0.0
C42 C 0.84752 0.98859 0.07333 0.0
N43 N 0.81791 0.9307 0.08281 0.0
C44 C 0.1258 0.97145 0.08652 0.0
C45 C 0.04088 0.89888 0.06902 0.0
C46 C 0.12514 0.92598 0.10097 0.0
N47 N 0.08389 0.95707 0.07097 0.0
C48 C 0.03844 0.85221 0.08307 0.0
C49 C 0.08072 0.86529 0.09945 0.0
H50 H 0.15911 0.01813 0.08796 0.0
H51 H 0.00761 0.8888 0.05672 0.0
C52 C 0.94921 0.97768 0.98275 0.0
N53 N 0.95034 0.9613 0.00512 0.0
C54 C 0.90898 0.93546 0.96874 0.0
C55 C 0.87185 0.86036 1.00103 0.0
C56 C 0.91269 0.90398 0.01438 0.0
C57 C 0.87002 0.87558 0.97777 0.0
H58 H 0.98086 0.02309 0.97558 0.0
H59 H 0.91601 0.89138 0.0319 0.0
O60 O 0.12727 0.1022 0.05582 0.0
O61 O 0.04878 0.10481 0.01645 0.0
O62 O 0.08754 0.01213 0.01756 0.0
O63 O 0.99607 0.00717 0.05731 0.0
H64 H 0.16217 0.21537 0.06355 0.0
H65 H 0.22315 0.08899 0.0539 0.0
H66 H 0.26788 0.29495 0.06717 0.0
H67 H 0.3279 0.1709 0.05749 0.0
H68 H 0.87331 0.09601 1.0001 0.0
H69 H 0.09574 0.20952 0.99155 0.0
H70 H 0.92938 0.0518 0.01792 0.0
H71 H 0.03674 0.25069 0.97393 0.0
H72 H 0.25731 0.3089 0.99208 0.0
H73 H 0.29398 0.18117 0.95992 0.0
H74 H 0.02572 0.17479 0.12426 0.0
H75 H 0.05212 0.28854 0.06277 0.0
H76 H 0.0198 0.89749 0.00944 0.0
H77 H 0.19921 0.03539 0.02148 0.0
H78 H 0.05599 0.82459 0.00738 0.0
H79 H 0.23231 0.96007 0.01936 0.0
H80 H 0.92766 0.89614 0.07698 0.0
H81 H 0.93128 0.06155 0.0575 0.0
H82 H 0.82092 0.85163 0.09194 0.0
H83 H 0.82447 0.01407 0.07266 0.0
H84 H 0.15903 0.93825 0.11317 0.0
H85 H 0.00271 0.80647 0.08148 0.0
H86 H 0.90991 0.94911 0.95083 0.0
H87 H 0.84248 0.81499 0.00881 0.0
Li88 Li 0.03824 0.02419 0.3557 0.0
Li89 Li 0.10512 0.09268 0.38287 0.0
Li90 Li 0.99409 0.06299 0.38498 0.0
Li91 Li 0.06442 0.13268 0.35409 0.0
C92 C 0.00717 0.95916 0.40316 0.0
N93 N 0.95804 0.85252 0.43084 0.0
C94 C 0.04455 0.93965 0.41214 0.0
C95 C 0.94484 0.9248 0.40857 0.0
C96 C 0.01884 0.8855 0.426 0.0
C97 C 0.92087 0.87093 0.4225 0.0
C98 C 0.17691 0.11947 0.34212 0.0
C99 C 0.28123 0.19833 0.33942 0.0
N100 N 0.2971 0.16071 0.3297 0.0
C101 C 0.19416 0.08167 0.33196 0.0
C102 C 0.22066 0.17835 0.34577 0.0
C103 C 0.2552 0.10334 0.32585 0.0
C104 C 0.02426 0.96354 0.3152 0.0
N105 N 0.0305 0.96018 0.33812 0.0
C106 C 0.04101 0.87343 0.33498 0.0
C107 C 0.03855 0.9162 0.34814 0.0
C108 C 0.03597 0.87636 0.31117 0.0
C109 C 0.02688 0.92188 0.30132 0.0
H110 H 0.01898 0.99966 0.3076 0.0
H111 H 0.04522 0.91546 0.36621 0.0
C112 C 0.18187 0.1303 0.42009 0.0
N113 N 0.1698 0.10164 0.4004 0.0
C114 C 0.2242 0.12924 0.43408 0.0
C115 C 0.24185 0.07068 0.40692 0.0
C116 C 0.1989 0.07232 0.39367 0.0
C117 C 0.25438 0.09837 0.42771 0.0
H118 H 0.15716 0.15221 0.42533 0.0
H119 H 0.18705 0.04801 0.37841 0.0
C120 C 0.92879 0.0194 0.34486 0.0
N121 N 0.81573 0.93883 0.33196 0.0
C122 C 0.89821 0.03978 0.33129 0.0
C123 C 0.90224 0.95797 0.3516 0.0
C124 C 0.84096 0.99836 0.32503 0.0
C125 C 0.84498 0.91796 0.34497 0.0
C126 C 0.08104 0.20081 0.38947 0.0
C127 C 0.03488 0.21439 0.39193 0.0
C128 C 0.14114 0.24702 0.38869 0.0
C129 C 0.04975 0.27437 0.39308 0.0
C130 C 0.15417 0.30644 0.38992 0.0
N131 N 0.10859 0.31878 0.39203 0.0
C132 C 0.93941 0.06222 0.42783 0.0
C133 C 0.87538 0.04232 0.39762 0.0
C134 C 0.8973 0.06482 0.4431 0.0
N135 N 0.92814 0.0518 0.4055 0.0
C136 C 0.83193 0.04419 0.4123 0.0
C137 C 0.843 0.05677 0.4353 0.0
H138 H 0.98229 0.07096 0.43354 0.0
H139 H 0.86755 0.03535 0.37978 0.0
C140 C 0.12225 0.23481 0.31959 0.0
N141 N 0.07345 0.199 0.33457 0.0
C142 C 0.12283 0.28026 0.30515 0.0
C143 C 0.02335 0.25113 0.32198 0.0
C144 C 0.02457 0.20628 0.33592 0.0
C145 C 0.07276 0.28877 0.30621 0.0
H146 H 0.16028 0.22768 0.3186 0.0
H147 H 0.98599 0.1765 0.34772 0.0
O148 O 0.03167 0.01255 0.38981 0.0
O149 O 0.11744 0.09878 0.34843 0.0
O150 O 0.98493 0.05941 0.35107 0.0
O151 O 0.06741 0.14248 0.38802 0.0
H152 H 0.09285 0.96573 0.40831 0.0
H153 H 0.91518 0.93963 0.40223 0.0
H154 H 0.04724 0.86972 0.43292 0.0
H155 H 0.8727 0.84386 0.42676 0.0
H156 H 0.31561 0.24374 0.34222 0.0
H157 H 0.16081 0.03597 0.32898 0.0
H158 H 0.20796 0.20822 0.35346 0.0
H159 H 0.26925 0.07452 0.31808 0.0
H160 H 0.04901 0.83975 0.34324 0.0
H161 H 0.02231 0.92553 0.28307 0.0
H162 H 0.23155 0.15057 0.45008 0.0
H163 H 0.26435 0.04712 0.40102 0.0
H164 H 0.91835 0.0871 0.3257 0.0
H165 H 0.9258 0.94123 0.36162 0.0
H166 H 0.81663 0.01354 0.31463 0.0
H167 H 0.82388 0.8703 0.3501 0.0
H168 H 0.98809 0.17906 0.3927 0.0
H169 H 0.17733 0.23708 0.38725 0.0
H170 H 0.01452 0.28563 0.39478 0.0
H171 H 0.20051 0.34273 0.38924 0.0
H172 H 0.90829 0.07537 0.46058 0.0
H173 H 0.79042 0.03671 0.40555 0.0
H174 H 0.16203 0.30848 0.29333 0.0
H175 H 0.98341 0.25524 0.32315 0.0
Li176 Li 0.11231 0.0499 0.68675 0.0
Li177 Li 0.11349 0.1148 0.7156 0.0
Li178 Li 0.03147 0.00645 0.71838 0.0
Li179 Li 0.03343 0.0778 0.68867 0.0
C180 C 0.17766 0.05661 0.72499 0.0
N181 N 0.29408 0.09017 0.73455 0.0
C182 C 0.22667 0.10394 0.71168 0.0
C183 C 0.18783 0.02638 0.74317 0.0
C184 C 0.28518 0.12022 0.71678 0.0
C185 C 0.24705 0.04401 0.74772 0.0
C186 C 0.14321 0.18984 0.67386 0.0
C187 C 0.13278 0.27801 0.67136 0.0
N188 N 0.18668 0.30889 0.6586 0.0
C189 C 0.19826 0.22226 0.66054 0.0
C190 C 0.10999 0.21776 0.67918 0.0
C191 C 0.21958 0.28248 0.65306 0.0
C192 C 0.181 0.07131 0.64524 0.0
N193 N 0.1652 0.03889 0.66599 0.0
C194 C 0.23737 0.00792 0.65809 0.0
C195 C 0.19131 0.00632 0.67242 0.0
C196 C 0.25645 0.04311 0.63692 0.0
C197 C 0.22664 0.07404 0.63037 0.0
H198 H 0.15962 0.09695 0.64061 0.0
H199 H 0.17803 0.98094 0.68903 0.0
C200 C 0.15598 0.16859 0.75699 0.0
N201 N 0.16716 0.17764 0.73372 0.0
C202 C 0.19806 0.20851 0.77115 0.0
C203 C 0.26189 0.26686 0.73714 0.0
C204 C 0.21881 0.22581 0.7237 0.0
C205 C 0.25225 0.25819 0.76124 0.0
H206 H 0.11511 0.12931 0.76457 0.0
H207 H 0.22814 0.23113 0.7053 0.0
C208 C 0.01237 0.94121 0.67957 0.0
N209 N 0.98928 0.82847 0.66887 0.0
C210 C 0.97724 0.91388 0.66149 0.0
C211 C 0.03572 0.91122 0.69225 0.0
C212 C 0.96606 0.85684 0.65634 0.0
C213 C 0.02356 0.85426 0.68655 0.0
C214 C 0.99312 0.10129 0.73278 0.0
C215 C 0.93341 0.06211 0.74139 0.0
C216 C 0.01952 0.16293 0.73547 0.0
C217 C 0.90048 0.0855 0.75192 0.0
C218 C 0.98513 0.18458 0.74613 0.0
N219 N 0.92679 0.14576 0.75402 0.0
C220 C 0.98414 0.92614 0.75962 0.0
C221 C 0.91785 0.90686 0.7302 0.0
C222 C 0.93749 0.87987 0.77428 0.0
N223 N 0.97333 0.93878 0.7381 0.0
C224 C 0.87009 0.86042 0.74422 0.0
C225 C 0.87927 0.84662 0.7667 0.0
H226 H 0.02856 0.95281 0.76555 0.0
H227 H 0.91024 0.91885 0.7132 0.0
C228 C 0.99455 0.11655 0.64957 0.0
N229 N 0.97799 0.08863 0.67119 0.0
C230 C 0.95131 0.11661 0.63588 0.0
C231 C 0.875 0.05955 0.66702 0.0
C232 C 0.91955 0.06026 0.67999 0.0
C233 C 0.89031 0.0872 0.64447 0.0
H234 H 0.04097 0.13697 0.64263 0.0
H235 H 0.90707 0.03626 0.69682 0.0
O236 O 0.1199 0.0401 0.72048 0.0
O237 O 0.12186 0.13084 0.68128 0.0
O238 O 0.0236 0.99704 0.68475 0.0
O239 O 0.02631 0.07901 0.72274 0.0
H240 H 0.21964 0.12783 0.69753 0.0
H241 H 0.15032 0.98971 0.75365 0.0
H242 H 0.32351 0.15675 0.70661 0.0
H243 H 0.25561 0.02102 0.76174 0.0
H244 H 0.10749 0.30016 0.67537 0.0
H245 H 0.22456 0.20131 0.65624 0.0
H246 H 0.06671 0.19297 0.68896 0.0
H247 H 0.26229 0.30822 0.64288 0.0
H248 H 0.25841 0.98259 0.66367 0.0
H249 H 0.24005 0.1021 0.61434 0.0
H250 H 0.18847 0.20028 0.78963 0.0
H251 H 0.30342 0.30375 0.72873 0.0
H252 H 0.9588 0.93655 0.65154 0.0
H253 H 0.06285 0.93152 0.70635 0.0
H254 H 0.93894 0.83512 0.64238 0.0
H255 H 0.04136 0.83054 0.69621 0.0
H256 H 0.91257 0.01414 0.73985 0.0
H257 H 0.06622 0.19377 0.72958 0.0
H258 H 0.85407 0.05573 0.75847 0.0
H259 H 0.00493 0.23222 0.74821 0.0
H260 H 0.94685 0.87045 0.79138 0.0
H261 H 0.82595 0.83692 0.73773 0.0
H262 H 0.96528 0.13755 0.61848 0.0
H263 H 0.82887 0.03683 0.67454 0.0
C264 C 0.12161 0.67574 0.16585 0.0
C265 C 0.17741 0.71883 0.15523 0.0
C266 C 0.21953 0.71084 0.16566 0.0
C267 C 0.18717 0.66331 0.18185 0.0
N268 N 0.12686 0.64009 0.18232 0.0
Co269 Co 0.06334 0.56985 0.20287 0.0
N270 N 0.12575 0.56271 0.21987 0.0
C271 C 0.18615 0.60005 0.21693 0.0
C272 C 0.21762 0.58504 0.23152 0.0
C273 C 0.17482 0.53475 0.24447 0.0
C274 C 0.11951 0.52164 0.23682 0.0
N275 N 0.99995 0.49751 0.22268 0.0
C276 C 0.00565 0.46052 0.23846 0.0
C277 C 0.94987 0.41233 0.24685 0.0
C278 C 0.90747 0.41902 0.236 0.0
C279 C 0.93957 0.47038 0.22151 0.0
N280 N 1.00103 0.57924 0.18662 0.0
C281 C 0.9405 0.5457 0.19112 0.0
C282 C 0.9093 0.56517 0.17829 0.0
C283 C 0.9525 0.61477 0.16506 0.0
C284 C 0.00776 0.62248 0.17052 0.0
N285 N 0.06329 0.5142 0.1803 0.0
C286 C 0.05942 0.42808 0.15109 0.0
C287 C 0.00809 0.43184 0.15668 0.0
C288 C 0.01098 0.47469 0.17114 0.0
C289 C 0.11328 0.46925 0.15995 0.0
C290 C 0.11433 0.51197 0.17426 0.0
N291 N 0.06265 0.62513 0.22545 0.0
C292 C 0.00668 0.65189 0.25217 0.0
C293 C 0.058 0.70716 0.25479 0.0
C294 C 0.11222 0.72012 0.2429 0.0
C295 C 0.11366 0.67854 0.22858 0.0
C296 C 0.00995 0.61204 0.23758 0.0
H297 H 0.15638 0.69083 0.22004 0.0
H298 H 0.96878 0.57134 0.23616 0.0
H299 H 0.96982 0.47409 0.1749 0.0
H300 H 0.15678 0.54233 0.18041 0.0
C301 C 0.2122 0.64447 0.19867 0.0
C302 C 0.06536 0.67244 0.16042 0.0
C303 C 0.06278 0.46825 0.24549 0.0
C304 C 0.91443 0.4952 0.20703 0.0
H305 H 0.18678 0.75351 0.14177 0.0
H306 H 0.26805 0.73796 0.16244 0.0
H307 H 0.26604 0.60682 0.23212 0.0
H308 H 0.18347 0.5097 0.25767 0.0
H309 H 0.94068 0.37569 0.25933 0.0
H310 H 0.85902 0.38967 0.23826 0.0
H311 H 0.86092 0.54582 0.17862 0.0
H312 H 0.9443 0.64248 0.15292 0.0
H313 H 0.96516 0.40072 0.15043 0.0
H314 H 0.15454 0.46875 0.15579 0.0
H315 H 0.9635 0.63989 0.26086 0.0
H316 H 0.15346 0.76203 0.24468 0.0
C317 C 0.456 0.01134 0.57372 0.0
C318 C 0.41296 0.95506 0.58396 0.0
C319 C 0.42119 0.91368 0.57305 0.0
C320 C 0.46873 0.94692 0.55694 0.0
N321 N 0.49171 0.00708 0.55698 0.0
Co322 Co 0.56185 0.07167 0.5367 0.0
N323 N 0.56951 0.01045 0.51911 0.0
C324 C 0.53181 0.95011 0.52137 0.0
C325 C 0.54732 0.91961 0.50646 0.0
C326 C 0.59838 0.96302 0.49406 0.0
C327 C 0.61144 0.01767 0.50236 0.0
N328 N 0.63449 0.13604 0.51732 0.0
C329 C 0.67268 0.13123 0.50181 0.0
C330 C 0.72109 0.18737 0.49395 0.0
C331 C 0.71336 0.22907 0.50488 0.0
C332 C 0.66122 0.19621 0.51892 0.0
N333 N 0.55167 0.13281 0.55344 0.0
C334 C 0.58466 0.19341 0.54922 0.0
C335 C 0.56448 0.2237 0.56227 0.0
C336 C 0.5149 0.17977 0.57532 0.0
C337 C 0.50791 0.12506 0.5695 0.0
N338 N 0.61729 0.07085 0.55914 0.0
C339 C 0.70407 0.07379 0.58785 0.0
C340 C 0.69902 0.1248 0.58316 0.0
C341 C 0.65595 0.12241 0.56892 0.0
C342 C 0.6632 0.0205 0.57851 0.0
C343 C 0.62027 0.01992 0.56445 0.0
N344 N 0.50664 0.07325 0.51423 0.0
C345 C 0.4804 0.12992 0.48761 0.0
C346 C 0.42393 0.07945 0.48552 0.0
C347 C 0.41055 0.02512 0.4975 0.0
C348 C 0.45235 0.02292 0.51147 0.0
C349 C 0.52048 0.12594 0.50191 0.0
H350 H 0.43929 0.98016 0.52013 0.0
H351 H 0.56214 0.16653 0.50285 0.0
H352 H 0.65545 0.16328 0.56588 0.0
H353 H 0.59054 0.978 0.55777 0.0
C354 C 0.48739 0.92299 0.53961 0.0
C355 C 0.45841 0.06699 0.57939 0.0
C356 C 0.66586 0.07456 0.49466 0.0
C357 C 0.63552 0.22035 0.53349 0.0
H358 H 0.37796 0.9449 0.5974 0.0
H359 H 0.39404 0.86508 0.57584 0.0
H360 H 0.52557 0.87136 0.5054 0.0
H361 H 0.62411 0.95514 0.48089 0.0
H362 H 0.75861 0.19724 0.4818 0.0
H363 H 0.74267 0.27753 0.50304 0.0
H364 H 0.58341 0.27196 0.56224 0.0
H365 H 0.48679 0.18704 0.58761 0.0
H366 H 0.72822 0.16678 0.59045 0.0
H367 H 0.66505 0.97961 0.58155 0.0
H368 H 0.49404 0.17273 0.47823 0.0
H369 H 0.36747 0.98453 0.49659 0.0
C370 C 0.68238 0.60676 0.83403 0.0
C371 C 0.7271 0.5959 0.82545 0.0
C372 C 0.71783 0.54449 0.83718 0.0
C373 C 0.66829 0.52694 0.85219 0.0
N374 N 0.64497 0.56377 0.8507 0.0
Co375 Co 0.57309 0.55477 0.86952 0.0
N376 N 0.5638 0.48289 0.88837 0.0
C377 C 0.60071 0.45964 0.88707 0.0
C378 C 0.5836 0.41086 0.90245 0.0
C379 C 0.53235 0.40203 0.91421 0.0
C380 C 0.52095 0.4459 0.90513 0.0
N381 N 0.49947 0.54393 0.88768 0.0
C382 C 0.46118 0.49958 0.90383 0.0
C383 C 0.41299 0.50675 0.91092 0.0
C384 C 0.42087 0.55717 0.89875 0.0
C385 C 0.47298 0.57766 0.88487 0.0
N386 N 0.5843 0.62846 0.85134 0.0
C387 C 0.55035 0.6548 0.85392 0.0
C388 C 0.57098 0.70681 0.83997 0.0
C389 C 0.62177 0.71483 0.82803 0.0
C390 C 0.62917 0.66701 0.83541 0.0
N391 N 0.51949 0.5015 0.84696 0.0
C392 C 0.43604 0.42198 0.81771 0.0
C393 C 0.4384 0.47588 0.82228 0.0
C394 C 0.47998 0.51451 0.83673 0.0
C395 C 0.47726 0.40917 0.82765 0.0
C396 C 0.51861 0.44947 0.84197 0.0
N397 N 0.62631 0.60838 0.89206 0.0
C398 C 0.65258 0.6906 0.91619 0.0
C399 C 0.70651 0.69303 0.92079 0.0
C400 C 0.71852 0.65062 0.91143 0.0
C401 C 0.67802 0.60889 0.89728 0.0
C402 C 0.61359 0.64841 0.902 0.0
H403 H 0.68993 0.57812 0.89045 0.0
H404 H 0.57378 0.64978 0.89914 0.0
H405 H 0.47845 0.55421 0.83961 0.0
H406 H 0.54905 0.43735 0.84898 0.0
C407 C 0.6472 0.48058 0.86966 0.0
C408 C 0.67972 0.66044 0.82685 0.0
C409 C 0.46755 0.44891 0.91237 0.0
C410 C 0.49883 0.62894 0.86934 0.0
H411 H 0.76386 0.62328 0.81257 0.0
H412 H 0.74545 0.52381 0.83562 0.0
H413 H 0.60473 0.38373 0.90436 0.0
H414 H 0.50559 0.36643 0.92758 0.0
H415 H 0.37561 0.47809 0.9234 0.0
H416 H 0.39177 0.57629 0.89975 0.0
H417 H 0.55161 0.73566 0.83874 0.0
H418 H 0.65037 0.75187 0.81541 0.0
H419 H 0.40718 0.48776 0.81519 0.0
H420 H 0.47792 0.36842 0.82432 0.0
H421 H 0.64023 0.72123 0.92351 0.0
H422 H 0.75966 0.65048 0.91451 0.0
C423 C 0.01647 0.32018 0.10394 0.0
C424 C 0.04429 0.28678 0.10979 0.0
H425 H 1.00005 0.39124 0.11213 0.0
C426 C 0.07836 0.30118 0.12907 0.0
H427 H 0.9897 0.31011 0.08928 0.0
C428 C 0.08428 0.34774 0.1422 0.0
C429 C 0.05591 0.38069 0.13647 0.0
H430 H 0.10106 0.27689 0.13386 0.0
H431 H 0.11016 0.35719 0.15711 0.0
C432 C 0.02208 0.36643 0.11714 0.0
C433 C 0.78789 0.04172 0.47414 0.0
C434 C 0.79899 0.06319 0.45078 0.0
H435 H 0.7373 0.02914 0.50631 0.0
C436 C 0.76758 0.09091 0.44228 0.0
H437 H 0.81064 0.01958 0.48125 0.0
C438 C 0.72539 0.09588 0.45663 0.0
C439 C 0.71411 0.0738 0.47981 0.0
H440 H 0.77567 0.10897 0.42452 0.0
H441 H 0.70095 0.11629 0.44958 0.0
C442 C 0.74588 0.04699 0.48849 0.0
C443 C 0.78422 0.74536 0.77353 0.0
C444 C 0.82795 0.79888 0.78218 0.0
H445 H 0.70279 0.6599 0.78095 0.0
C446 C 0.82144 0.80687 0.80562 0.0
H447 H 0.78807 0.73731 0.75566 0.0
C448 C 0.77268 0.76235 0.82002 0.0
C449 C 0.72961 0.70905 0.81128 0.0
H450 H 0.85362 0.84785 0.8128 0.0
H451 H 0.7688 0.76923 0.83803 0.0
C452 C 0.73551 0.70097 0.78793 0.0
C453 C 0.08871 0.82423 0.13837 0.0
C454 C 0.07723 0.81587 0.1151 0.0
H455 H 0.09334 0.78483 0.17094 0.0
C456 C 0.06091 0.7593 0.10703 0.0
H457 H 0.10051 0.86675 0.14529 0.0
C458 C 0.05601 0.71239 0.12184 0.0
C459 C 0.06744 0.72112 0.14496 0.0
H460 H 0.05264 0.75141 0.08917 0.0
H461 H 0.04397 0.66947 0.11521 0.0
C462 C 0.084 0.77731 0.15313 0.0
C463 C 0.33516 0.14131 0.45557 0.0
C464 C 0.29723 0.09336 0.44283 0.0
H465 H 0.40343 0.17421 0.47928 0.0
C466 C 0.30062 0.04031 0.44463 0.0
H467 H 0.33431 0.18302 0.45456 0.0
C468 C 0.34143 0.03574 0.45841 0.0
C469 C 0.37969 0.08384 0.47102 0.0
H470 H 0.27141 0.00186 0.43548 0.0
H471 H 0.34345 0.99465 0.45889 0.0
C472 C 0.3756 0.13652 0.46953 0.0
C473 C 0.33141 0.36239 0.76968 0.0
C474 C 0.29928 0.29995 0.77579 0.0
H475 H 0.40011 0.44945 0.77778 0.0
C476 C 0.31344 0.27776 0.79559 0.0
H477 H 0.32147 0.38111 0.75464 0.0
C478 C 0.3585 0.3171 0.80896 0.0
C479 C 0.39021 0.37959 0.80293 0.0
H480 H 0.29015 0.22985 0.80062 0.0
H481 H 0.36772 0.29864 0.82427 0.0
C482 C 0.37621 0.40166 0.78307 0.0
C483 C 0.78541 0.03118 0.63118 0.0
C484 C 0.8427 0.08363 0.62985 0.0
H485 H 0.69682 0.98712 0.61942 0.0
C486 C 0.85409 0.13239 0.61435 0.0
H487 H 0.77515 0.99224 0.6426 0.0
C488 C 0.80943 0.12891 0.60066 0.0
C489 C 0.75191 0.07673 0.60218 0.0
H490 H 0.89738 0.17368 0.61294 0.0
H491 H 0.8203 0.16716 0.58873 0.0
C492 C 0.7406 0.02784 0.61759 0.0
C493 C 0.8195 0.77003 0.96508 0.0
C494 C 0.82884 0.82895 0.96295 0.0
H495 H 0.77364 0.68102 0.95364 0.0
C496 C 0.7986 0.84294 0.9465 0.0
H497 H 0.84275 0.75786 0.97732 0.0
C498 C 0.75958 0.79906 0.93274 0.0
C499 C 0.74965 0.73995 0.93505 0.0
H500 H 0.80436 0.88765 0.94446 0.0
H501 H 0.73734 0.81164 0.92017 0.0
C502 C 0.78045 0.7261 0.95129 0.0
C503 C 0.01395 0.77172 0.30434 0.0
C504 C 0.04186 0.83314 0.29671 0.0
H505 H 0.99772 0.6841 0.29728 0.0
C506 C 0.07636 0.8531 0.27538 0.0
H507 H 0.98683 0.75481 0.32062 0.0
C508 C 0.08264 0.81252 0.26199 0.0
C509 C 0.05414 0.75098 0.26953 0.0
H510 H 0.09907 0.90026 0.26914 0.0
H511 H 0.10887 0.82915 0.24552 0.0
C512 C 0.01987 0.73113 0.29089 0.0
C513 C 0.36023 0.05608 0.63195 0.0
C514 C 0.30847 0.04946 0.62212 0.0
H515 H 0.44872 0.06761 0.62594 0.0
C516 C 0.30746 0.05039 0.59803 0.0
H517 H 0.36293 0.05651 0.65039 0.0
C518 C 0.35676 0.0573 0.58415 0.0
C519 C 0.40799 0.06368 0.59409 0.0
H520 H 0.26818 0.04483 0.58991 0.0
H521 H 0.35468 0.05694 0.56567 0.0
C522 C 0.40955 0.06312 0.61803 0.0
C523 C 0.33826 0.29484 0.93476 0.0
C524 C 0.33081 0.30255 0.95815 0.0
H525 H 0.38721 0.33571 0.90194 0.0
C526 C 0.36845 0.35935 0.96623 0.0
H527 H 0.30961 0.25211 0.92786 0.0
C528 C 0.41219 0.40716 0.9513 0.0
C529 C 0.41916 0.39915 0.92803 0.0
H530 H 0.36462 0.36673 0.98418 0.0
H531 H 0.44103 0.45026 0.95793 0.0
C532 C 0.3821 0.3427 0.91986 0.0
C533 C 0.04668 0.37002 0.29899 0.0
C534 C 0.07098 0.33542 0.2907 0.0
H535 H 0.02519 0.43926 0.2911 0.0
C536 C 0.09194 0.34461 0.26734 0.0
H537 H 0.0308 0.36461 0.31693 0.0
C538 C 0.08837 0.38709 0.25263 0.0
C539 C 0.06397 0.4213 0.26099 0.0
H540 H 0.1102 0.31828 0.26033 0.0
H541 H 0.10477 0.39341 0.2347 0.0
C542 C 0.04339 0.41267 0.28428 0.0
loop_
_geom_bond_atom_site_label_1
_geom_bond_atom_site_label_2
_geom_bond_distance
_geom_bond_site_symmetry_2
_ccdc_geom_bond_type
Li0 N17 1.991 1_554 S
Li0 O60 1.956 . S
Li0 O61 1.970 . S
Li0 O62 1.961 . S
Li1 N25 1.990 . S
Li1 O60 1.970 . S
Li1 O61 1.956 . S
Li1 O63 1.961 . S
Li2 N47 1.990 1_545 S
Li2 O60 1.961 . S
Li2 O62 1.956 . S
Li2 O63 1.970 . S
Li3 N53 1.990 1_445 S
Li3 O61 1.961 . S
Li3 O62 1.970 . S
Li3 O63 1.956 . S
C4 C6 1.348 . S
C4 C7 1.356 . S
C4 O60 1.325 . S
N5 C8 1.314 . S
N5 C9 1.279 . S
C6 C4 1.348 . S
C6 C8 1.353 . S
C6 H64 0.929 . S
C7 C4 1.356 . S
C7 C9 1.358 . S
C7 H65 0.930 . S
C8 N5 1.314 . S
C8 C6 1.353 . S
C8 H66 0.930 . S
C9 N5 1.279 . S
C9 C7 1.358 . S
C9 H67 0.930 . S
C10 C13 1.348 1_554 S
C10 C14 1.356 . S
C10 O61 1.325 . S
C11 N12 1.279 1_655 S
C11 C14 1.358 1_656 S
C11 H68 0.930 . S
N12 C11 1.279 1_455 S
N12 C15 1.314 . S
C13 C10 1.348 1_556 S
C13 C15 1.353 . S
C13 H69 0.929 . S
C14 C10 1.356 . S
C14 C11 1.358 1_454 S
C14 H70 0.930 1_455 S
C15 N12 1.314 . S
C15 C13 1.353 . S
C15 H71 0.930 . S
C16 N17 1.312 . S
C16 C21 1.353 . S
C16 H22 0.930 . S
N17 Li0 1.991 1_556 S
N17 C16 1.312 . S
N17 C19 1.280 1_556 S
C18 C19 1.358 1_556 S
C18 C20 1.356 . S
C18 H72 0.930 . S
C19 N17 1.280 1_554 S
C19 C18 1.358 1_554 S
C19 H23 0.930 . S
C20 C18 1.356 . S
C20 C21 1.348 . S
C21 C16 1.353 . S
C21 C20 1.348 . S
C21 H73 0.929 . S
H22 C16 0.930 . S
H23 C19 0.930 . S
C24 N25 1.314 . S
C24 C26 1.353 . S
C24 H30 0.930 . S
N25 Li1 1.990 . S
N25 C24 1.314 . S
N25 C28 1.279 . S
C26 C24 1.353 . S
C26 C29 1.348 . S
C26 H74 0.929 1_455 S
C27 C28 1.358 . S
C27 C29 1.356 . S
C27 H75 0.930 . S
C28 N25 1.279 . S
C28 C27 1.358 . S
C28 H31 0.930 . S
C29 C26 1.348 . S
C29 C27 1.356 . S
H30 C24 0.930 . S
H31 C28 0.930 . S
C32 C34 1.348 1_554 S
C32 C35 1.356 . S
C32 O62 1.325 1_565 S
N33 C36 1.314 . S
N33 C37 1.279 . S
C34 C32 1.348 1_556 S
C34 C36 1.353 . S
C34 H76 0.929 . S
C35 C32 1.356 . S
C35 C37 1.358 1_554 S
C35 H77 0.930 1_565 S
C36 N33 1.314 . S
C36 C34 1.353 . S
C36 H78 0.930 . S
C37 N33 1.279 . S
C37 C35 1.358 1_556 S
C37 H79 0.930 . S
C38 C39 1.348 . S
C38 C40 1.356 . S
C38 O63 1.325 1_665 S
C39 C38 1.348 . S
C39 C41 1.353 . S
C39 H80 0.929 . S
C40 C38 1.356 . S
C40 C42 1.358 . S
C40 H81 0.930 1_565 S
C41 C39 1.353 . S
C41 N43 1.314 . S
C41 H82 0.930 . S
C42 C40 1.358 . S
C42 N43 1.279 . S
C42 H83 0.930 . S
N43 C41 1.314 . S
N43 C42 1.279 . S
C44 C46 1.353 . S
C44 N47 1.314 . S
C44 H50 0.928 1_565 S
C45 N47 1.279 . S
C45 C48 1.358 . S
C45 H51 0.930 . S
C46 C44 1.353 . S
C46 C49 1.348 . S
C46 H84 0.929 . S
N47 Li2 1.990 1_565 S
N47 C44 1.314 . S
N47 C45 1.279 . S
C48 C45 1.358 . S
C48 C49 1.356 . S
C48 H85 0.930 . S
C49 C46 1.348 . S
C49 C48 1.356 . S
H50 C44 0.928 1_545 S
H51 C45 0.930 . S
C52 N53 1.314 1_556 S
C52 C54 1.353 . S
C52 H58 0.930 1_565 S
N53 Li3 1.990 1_665 S
N53 C52 1.314 1_554 S
N53 C56 1.279 . S
C54 C52 1.353 . S
C54 C57 1.348 . S
C54 H86 0.929 . S
C55 C56 1.358 1_556 S
C55 C57 1.356 . S
C55 H87 0.930 1_556 S
C56 N53 1.279 . S
C56 C55 1.358 1_554 S
C56 H59 0.930 . S
C57 C54 1.348 . S
C57 C55 1.356 . S
H58 C52 0.930 1_545 S
H59 C56 0.930 . S
O60 Li0 1.956 . S
O60 Li1 1.970 . S
O60 Li2 1.961 . S
O60 C4 1.325 . S
O61 Li0 1.970 . S
O61 Li1 1.956 . S
O61 Li3 1.961 . S
O61 C10 1.325 . S
O62 Li0 1.961 . S
O62 Li2 1.956 . S
O62 Li3 1.970 . S
O62 C32 1.325 1_545 S
O63 Li1 1.961 . S
O63 Li2 1.970 . S
O63 Li3 1.956 . S
O63 C38 1.325 1_445 S
H64 C6 0.929 . S
H65 C7 0.930 . S
H66 C8 0.930 . S
H67 C9 0.930 . S
H68 C11 0.930 . S
H69 C13 0.929 . S
H70 C14 0.930 1_655 S
H71 C15 0.930 . S
H72 C18 0.930 . S
H73 C21 0.929 . S
H74 C26 0.929 1_655 S
H75 C27 0.930 . S
H76 C34 0.929 . S
H77 C35 0.930 1_545 S
H78 C36 0.930 . S
H79 C37 0.930 . S
H80 C39 0.929 . S
H81 C40 0.930 1_545 S
H82 C41 0.930 . S
H83 C42 0.930 . S
H84 C46 0.929 . S
H85 C48 0.930 . S
H86 C54 0.929 . S
H87 C55 0.930 1_554 S
Li88 N105 1.990 1_545 S
Li88 O148 1.956 . S
Li88 O149 1.970 . S
Li88 O150 1.961 1_455 S
Li89 N113 1.990 . S
Li89 O148 1.970 . S
Li89 O149 1.956 . S
Li89 O151 1.961 . S
Li90 N135 1.990 . S
Li90 O148 1.961 1_655 S
Li90 O150 1.956 . S
Li90 O151 1.970 1_655 S
Li91 N141 1.990 . S
Li91 O149 1.961 . S
Li91 O150 1.970 1_455 S
Li91 O151 1.956 . S
C92 C94 1.348 . S
C92 C95 1.356 1_455 S
C92 O148 1.325 1_565 S
N93 C96 1.314 1_655 S
N93 C97 1.279 . S
C94 C92 1.348 . S
C94 C96 1.353 . S
C94 H152 0.929 . S
C95 C92 1.356 1_655 S
C95 C97 1.358 . S
C95 H153 0.930 . S
C96 N93 1.314 1_455 S
C96 C94 1.353 . S
C96 H154 0.930 . S
C97 N93 1.279 . S
C97 C95 1.358 . S
C97 H155 0.930 . S
C98 C101 1.348 . S
C98 C102 1.356 . S
C98 O149 1.325 . S
C99 N100 1.279 . S
C99 C102 1.358 . S
C99 H156 0.930 . S
N100 C99 1.279 . S
N100 C103 1.314 . S
C101 C98 1.348 . S
C101 C103 1.353 . S
C101 H157 0.929 . S
C102 C98 1.356 . S
C102 C99 1.358 . S
C102 H158 0.930 . S
C103 N100 1.314 . S
C103 C101 1.353 . S
C103 H159 0.930 . S
C104 N105 1.314 1_655 S
C104 C109 1.353 . S
C104 H110 0.930 . S
N105 Li88 1.990 1_565 S
N105 C104 1.314 1_455 S
N105 C107 1.279 . S
C106 C107 1.358 1_655 S
C106 C108 1.356 . S
C106 H160 0.930 . S
C107 N105 1.279 . S
C107 C106 1.358 1_455 S
C107 H111 0.930 . S
C108 C106 1.356 . S
C108 C109 1.348 . S
C109 C104 1.353 . S
C109 C108 1.348 . S
C109 H161 0.929 . S
H110 C104 0.930 . S
H111 C107 0.930 . S
C112 N113 1.314 . S
C112 C114 1.353 . S
C112 H118 0.930 . S
N113 Li89 1.990 . S
N113 C112 1.314 . S
N113 C116 1.279 . S
C114 C112 1.353 . S
C114 C117 1.348 . S
C114 H162 0.929 . S
C115 C116 1.358 . S
C115 C117 1.356 . S
C115 H163 0.930 . S
C116 N113 1.279 . S
C116 C115 1.358 . S
C116 H119 0.930 . S
C117 C114 1.348 . S
C117 C115 1.356 . S
H118 C112 0.930 . S
H119 C116 0.930 . S
C120 C122 1.348 . S
C120 C123 1.356 1_545 S
C120 O150 1.325 . S
N121 C124 1.314 . S
N121 C125 1.279 1_545 S
C122 C120 1.348 . S
C122 C124 1.353 . S
C122 H164 0.929 . S
C123 C120 1.356 1_565 S
C123 C125 1.358 . S
C123 H165 0.930 . S
C124 N121 1.314 . S
C124 C122 1.353 . S
C124 H166 0.930 . S
C125 N121 1.279 1_565 S
C125 C123 1.358 . S
C125 H167 0.930 . S
C126 C127 1.348 . S
C126 C128 1.356 . S
C126 O151 1.325 . S
C127 C126 1.348 . S
C127 C129 1.353 . S
C127 H168 0.929 1_455 S
C128 C126 1.356 . S
C128 C130 1.358 . S
C128 H169 0.930 . S
C129 C127 1.353 . S
C129 N131 1.314 . S
C129 H170 0.930 . S
C130 C128 1.358 . S
C130 N131 1.279 . S
C130 H171 0.930 . S
N131 C129 1.314 . S
N131 C130 1.279 . S
C132 C134 1.353 . S
C132 N135 1.314 . S
C132 H138 0.930 . S
C133 N135 1.279 . S
C133 C136 1.358 . S
C133 H139 0.930 . S
C134 C132 1.353 . S
C134 C137 1.348 . S
C134 H172 0.929 . S
N135 Li90 1.990 . S
N135 C132 1.314 . S
N135 C133 1.279 . S
C136 C133 1.358 . S
C136 C137 1.356 . S
C136 H173 0.930 . S
C137 C134 1.348 . S
C137 C136 1.356 . S
H138 C132 0.930 . S
H139 C133 0.930 . S
C140 N141 1.314 . S
C140 C142 1.353 . S
C140 H146 0.930 . S
N141 Li91 1.990 . S
N141 C140 1.314 . S
N141 C144 1.279 . S
C142 C140 1.353 . S
C142 C145 1.348 . S
C142 H174 0.929 . S
C143 C144 1.358 . S
C143 C145 1.356 . S
C143 H175 0.930 . S
C144 N141 1.279 . S
C144 C143 1.358 . S
C144 H147 0.930 . S
C145 C142 1.348 . S
C145 C143 1.356 . S
H146 C140 0.930 . S
H147 C144 0.930 . S
O148 Li88 1.956 . S
O148 Li89 1.970 . S
O148 Li90 1.961 1_455 S
O148 C92 1.325 1_545 S
O149 Li88 1.970 . S
O149 Li89 1.956 . S
O149 Li91 1.961 . S
O149 C98 1.325 . S
O150 Li88 1.961 1_655 S
O150 Li90 1.956 . S
O150 Li91 1.970 1_655 S
O150 C120 1.325 . S
O151 Li89 1.961 . S
O151 Li90 1.970 1_455 S
O151 Li91 1.956 . S
O151 C126 1.325 . S
H152 C94 0.929 . S
H153 C95 0.930 . S
H154 C96 0.930 . S
H155 C97 0.930 . S
H156 C99 0.930 . S
H157 C101 0.929 . S
H158 C102 0.930 . S
H159 C103 0.930 . S
H160 C106 0.930 . S
H161 C109 0.929 . S
H162 C114 0.929 . S
H163 C115 0.930 . S
H164 C122 0.929 . S
H165 C123 0.930 . S
H166 C124 0.930 . S
H167 C125 0.930 . S
H168 C127 0.929 1_655 S
H169 C128 0.930 . S
H170 C129 0.930 . S
H171 C130 0.930 . S
H172 C134 0.929 . S
H173 C136 0.930 . S
H174 C142 0.929 . S
H175 C143 0.930 . S
Li176 N193 1.990 . S
Li176 O236 1.956 . S
Li176 O237 1.970 . S
Li176 O238 1.961 1_545 S
Li177 N201 1.990 . S
Li177 O236 1.970 . S
Li177 O237 1.956 . S
Li177 O239 1.961 . S
Li178 N223 1.990 1_455 S
Li178 O236 1.961 1_565 S
Li178 O238 1.956 . S
Li178 O239 1.970 1_565 S
Li179 N229 1.990 1_455 S
Li179 O237 1.961 . S
Li179 O238 1.970 1_545 S
Li179 O239 1.956 . S
C180 C182 1.348 . S
C180 C183 1.356 1_545 S
C180 O236 1.325 . S
N181 C184 1.314 1_565 S
N181 C185 1.279 . S
C182 C180 1.348 . S
C182 C184 1.353 . S
C182 H240 0.929 . S
C183 C180 1.356 1_565 S
C183 C185 1.358 . S
C183 H241 0.930 . S
C184 N181 1.314 1_545 S
C184 C182 1.353 . S
C184 H242 0.930 . S
C185 N181 1.279 . S
C185 C183 1.358 . S
C185 H243 0.930 . S
C186 C189 1.348 . S
C186 C190 1.356 . S
C186 O237 1.325 . S
C187 N188 1.279 . S
C187 C190 1.358 . S
C187 H244 0.930 . S
N188 C187 1.279 . S
N188 C191 1.314 . S
C189 C186 1.348 . S
C189 C191 1.353 . S
C189 H245 0.929 . S
C190 C186 1.356 . S
C190 C187 1.358 . S
C190 H246 0.930 . S
C191 N188 1.314 . S
C191 C189 1.353 . S
C191 H247 0.930 . S
C192 N193 1.314 . S
C192 C197 1.353 1_545 S
C192 H198 0.930 . S
N193 Li176 1.990 . S
N193 C192 1.314 . S
N193 C195 1.279 . S
C194 C195 1.358 . S
C194 C196 1.356 1_545 S
C194 H248 0.934 . S
C195 N193 1.279 . S
C195 C194 1.358 . S
C195 H199 0.930 . S
C196 C194 1.356 1_565 S
C196 C197 1.348 . S
C197 C192 1.353 1_565 S
C197 C196 1.348 . S
C197 H249 0.929 . S
H198 C192 0.930 . S
H199 C195 0.930 . S
C200 N201 1.314 . S
C200 C202 1.353 . S
C200 H206 0.930 . S
N201 Li177 1.990 . S
N201 C200 1.314 . S
N201 C204 1.279 . S
C202 C200 1.353 . S
C202 C205 1.348 . S
C202 H250 0.929 . S
C203 C204 1.358 . S
C203 C205 1.356 . S
C203 H251 0.930 . S
C204 N201 1.279 . S
C204 C203 1.358 . S
C204 H207 0.930 . S
C205 C202 1.348 . S
C205 C203 1.356 . S
H206 C200 0.930 . S
H207 C204 0.930 . S
C208 C210 1.348 . S
C208 C211 1.356 1_655 S
C208 O238 1.325 1_655 S
N209 C212 1.314 . S
N209 C213 1.279 . S
C210 C208 1.348 . S
C210 C212 1.353 . S
C210 H252 0.929 . S
C211 C208 1.356 1_455 S
C211 C213 1.358 1_455 S
C211 H253 0.930 . S
C212 N209 1.314 . S
C212 C210 1.353 . S
C212 H254 0.930 . S
C213 N209 1.279 . S
C213 C211 1.358 1_655 S
C213 H255 0.930 . S
C214 C215 1.348 . S
C214 C216 1.356 . S
C214 O239 1.325 1_655 S
C215 C214 1.348 . S
C215 C217 1.353 . S
C215 H256 0.929 1_545 S
C216 C214 1.356 . S
C216 C218 1.358 . S
C216 H257 0.930 1_655 S
C217 C215 1.353 . S
C217 N219 1.314 . S
C217 H258 0.930 . S
C218 C216 1.358 . S
C218 N219 1.279 . S
C218 H259 0.930 . S
N219 C217 1.314 . S
N219 C218 1.279 . S
C220 C222 1.353 . S
C220 N223 1.314 . S
C220 H226 0.930 1_655 S
C221 N223 1.279 . S
C221 C224 1.358 . S
C221 H227 0.930 . S
C222 C220 1.353 . S
C222 C225 1.348 . S
C222 H260 0.929 . S
N223 Li178 1.990 1_655 S
N223 C220 1.314 . S
N223 C221 1.279 . S
C224 C221 1.358 . S
C224 C225 1.356 . S
C224 H261 0.930 . S
C225 C222 1.348 . S
C225 C224 1.356 . S
H226 C220 0.930 1_455 S
H227 C221 0.930 . S
C228 N229 1.314 . S
C228 C230 1.353 . S
C228 H234 0.930 1_655 S
N229 Li179 1.990 1_655 S
N229 C228 1.314 . S
N229 C232 1.279 . S
C230 C228 1.353 . S
C230 C233 1.348 . S
C230 H262 0.929 . S
C231 C232 1.358 . S
C231 C233 1.356 . S
C231 H263 0.930 . S
C232 N229 1.279 . S
C232 C231 1.358 . S
C232 H235 0.930 . S
C233 C230 1.348 . S
C233 C231 1.356 . S
H234 C228 0.930 1_455 S
H235 C232 0.930 . S
O236 Li176 1.956 . S
O236 Li177 1.970 . S
O236 Li178 1.961 1_545 S
O236 C180 1.325 . S
O237 Li176 1.970 . S
O237 Li177 1.956 . S
O237 Li179 1.961 . S
O237 C186 1.325 . S
O238 Li176 1.961 1_565 S
O238 Li178 1.956 . S
O238 Li179 1.970 1_565 S
O238 C208 1.325 1_455 S
O239 Li177 1.961 . S
O239 Li178 1.970 1_545 S
O239 Li179 1.956 . S
O239 C214 1.325 1_455 S
H240 C182 0.929 . S
H241 C183 0.930 . S
H242 C184 0.930 . S
H243 C185 0.930 . S
H244 C187 0.930 . S
H245 C189 0.929 . S
H246 C190 0.930 . S
H247 C191 0.930 . S
H248 C194 0.934 . S
H249 C197 0.929 . S
H250 C202 0.929 . S
H251 C203 0.930 . S
H252 C210 0.929 . S
H253 C211 0.930 . S
H254 C212 0.930 . S
H255 C213 0.930 . S
H256 C215 0.929 1_565 S
H257 C216 0.930 1_455 S
H258 C217 0.930 . S
H259 C218 0.930 . S
H260 C222 0.929 . S
H261 C224 0.930 . S
H262 C230 0.929 . S
H263 C231 0.930 . S
C264 C265 1.443 . S
C264 N268 1.376 . S
C264 C302 1.389 . S
C265 C264 1.443 . S
C265 C266 1.340 . S
C265 H305 0.951 . S
C266 C265 1.340 . S
C266 C267 1.439 . S
C266 H306 0.950 . S
C267 C266 1.439 . S
C267 N268 1.374 . S
C267 C301 1.395 . S
N268 C264 1.376 . S
N268 C267 1.374 . S
N268 Co269 2.008 . S
Co269 N268 2.008 . S
Co269 N270 1.995 . S
Co269 N275 2.008 1_455 S
Co269 N280 1.995 1_455 S
Co269 N285 2.282 . S
Co269 N291 2.282 . S
N270 Co269 1.995 . S
N270 C271 1.376 . S
N270 C274 1.383 . S
C271 N270 1.376 . S
C271 C272 1.446 . S
C271 C301 1.391 . S
C272 C271 1.446 . S
C272 C273 1.339 . S
C272 H307 0.949 . S
C273 C272 1.339 . S
C273 C274 1.439 . S
C273 H308 0.950 . S
C274 N270 1.383 . S
C274 C273 1.439 . S
C274 C303 1.392 . S
N275 Co269 2.008 1_655 S
N275 C276 1.376 . S
N275 C279 1.374 . S
C276 N275 1.376 . S
C276 C277 1.443 . S
C276 C303 1.389 1_655 S
C277 C276 1.443 . S
C277 C278 1.340 . S
C277 H309 0.951 . S
C278 C277 1.340 . S
C278 C279 1.439 . S
C278 H310 0.950 . S
C279 N275 1.374 . S
C279 C278 1.439 . S
C279 C304 1.395 . S
N280 Co269 1.995 1_655 S
N280 C281 1.376 . S
N280 C284 1.383 . S
C281 N280 1.376 . S
C281 C282 1.446 . S
C281 C304 1.391 . S
C282 C281 1.446 . S
C282 C283 1.339 . S
C282 H311 0.949 . S
C283 C282 1.339 . S
C283 C284 1.439 . S
C283 H312 0.950 . S
C284 N280 1.383 . S
C284 C283 1.439 . S
C284 C302 1.392 1_655 S
N285 Co269 2.282 . S
N285 C288 1.332 1_455 S
N285 C290 1.332 . S
C286 C287 1.386 1_455 S
C286 C289 1.388 . S
C287 C286 1.386 1_655 S
C287 C288 1.382 . S
C287 H313 0.950 . S
C288 N285 1.332 1_655 S
C288 C287 1.382 . S
C288 H299 0.952 . S
C289 C286 1.388 . S
C289 C290 1.382 . S
C289 H314 0.950 . S
C290 N285 1.332 . S
C290 C289 1.382 . S
C290 H300 0.948 . S
N291 Co269 2.282 . S
N291 C295 1.332 . S
N291 C296 1.332 1_455 S
C292 C293 1.388 1_655 S
C292 C296 1.382 . S
C292 H315 0.950 . S
C293 C292 1.388 1_455 S
C293 C294 1.386 . S
C294 C293 1.386 . S
C294 C295 1.382 . S
C294 H316 0.950 . S
C295 N291 1.332 . S
C295 C294 1.382 . S
C295 H297 0.952 . S
C296 N291 1.332 1_655 S
C296 C292 1.382 . S
C296 H298 0.948 . S
H297 C295 0.952 . S
H298 C296 0.948 . S
H299 C288 0.952 . S
H300 C290 0.948 . S
C301 C267 1.395 . S
C301 C271 1.391 . S
C302 C264 1.389 . S
C302 C284 1.392 1_455 S
C303 C274 1.392 . S
C303 C276 1.389 1_455 S
C304 C279 1.395 . S
C304 C281 1.391 . S
H305 C265 0.951 . S
H306 C266 0.950 . S
H307 C272 0.949 . S
H308 C273 0.950 . S
H309 C277 0.951 . S
H310 C278 0.950 . S
H311 C282 0.949 . S
H312 C283 0.950 . S
H313 C287 0.950 . S
H314 C289 0.950 . S
H315 C292 0.950 . S
H316 C294 0.950 . S
C317 C318 1.443 1_545 S
C317 N321 1.376 . S
C317 C355 1.389 . S
C318 C317 1.443 1_565 S
C318 C319 1.340 . S
C318 H358 0.951 . S
C319 C318 1.340 . S
C319 C320 1.439 . S
C319 H359 0.950 . S
C320 C319 1.439 . S
C320 N321 1.374 1_565 S
C320 C354 1.395 . S
N321 C317 1.376 . S
N321 C320 1.374 1_545 S
N321 Co322 2.008 . S
Co322 N321 2.008 . S
Co322 N323 1.995 . S
Co322 N328 2.008 . S
Co322 N333 1.995 . S
Co322 N338 2.282 . S
Co322 N344 2.282 . S
N323 Co322 1.995 . S
N323 C324 1.376 1_545 S
N323 C327 1.383 . S
C324 N323 1.376 1_565 S
C324 C325 1.446 . S
C324 C354 1.391 . S
C325 C324 1.446 . S
C325 C326 1.339 . S
C325 H360 0.949 . S
C326 C325 1.339 . S
C326 C327 1.439 1_565 S
C326 H361 0.950 . S
C327 N323 1.383 . S
C327 C326 1.439 1_545 S
C327 C356 1.392 . S
N328 Co322 2.008 . S
N328 C329 1.376 . S
N328 C332 1.374 . S
C329 N328 1.376 . S
C329 C330 1.443 . S
C329 C356 1.389 . S
C330 C329 1.443 . S
C330 C331 1.340 . S
C330 H362 0.951 . S
C331 C330 1.340 . S
C331 C332 1.439 . S
C331 H363 0.950 . S
C332 N328 1.374 . S
C332 C331 1.439 . S
C332 C357 1.395 . S
N333 Co322 1.995 . S
N333 C334 1.376 . S
N333 C337 1.383 . S
C334 N333 1.376 . S
C334 C335 1.446 . S
C334 C357 1.391 . S
C335 C334 1.446 . S
C335 C336 1.339 . S
C335 H364 0.949 . S
C336 C335 1.339 . S
C336 C337 1.439 . S
C336 H365 0.950 . S
C337 N333 1.383 . S
C337 C336 1.439 . S
C337 C355 1.392 . S
N338 Co322 2.282 . S
N338 C341 1.332 . S
N338 C343 1.332 . S
C339 C340 1.386 . S
C339 C342 1.388 . S
C340 C339 1.386 . S
C340 C341 1.382 . S
C340 H366 0.950 . S
C341 N338 1.332 . S
C341 C340 1.382 . S
C341 H352 0.952 . S
C342 C339 1.388 . S
C342 C343 1.382 . S
C342 H367 0.961 . S
C343 N338 1.332 . S
C343 C342 1.382 . S
C343 H353 0.948 . S
N344 Co322 2.282 . S
N344 C348 1.332 . S
N344 C349 1.332 . S
C345 C346 1.388 . S
C345 C349 1.382 . S
C345 H368 0.950 . S
C346 C345 1.388 . S
C346 C347 1.386 . S
C347 C346 1.386 . S
C347 C348 1.382 . S
C347 H369 0.950 . S
C348 N344 1.332 . S
C348 C347 1.382 . S
C348 H350 0.952 . S
C349 N344 1.332 . S
C349 C345 1.382 . S
C349 H351 0.948 . S
H350 C348 0.952 . S
H351 C349 0.948 . S
H352 C341 0.952 . S
H353 C343 0.948 . S
C354 C320 1.395 . S
C354 C324 1.391 . S
C355 C317 1.389 . S
C355 C337 1.392 . S
C356 C327 1.392 . S
C356 C329 1.389 . S
C357 C332 1.395 . S
C357 C334 1.391 . S
H358 C318 0.951 . S
H359 C319 0.950 . S
H360 C325 0.949 . S
H361 C326 0.950 . S
H362 C330 0.951 . S
H363 C331 0.950 . S
H364 C335 0.949 . S
H365 C336 0.950 . S
H366 C340 0.950 . S
H367 C342 0.961 . S
H368 C345 0.950 . S
H369 C347 0.950 . S
C370 C371 1.443 . S
C370 N374 1.376 . S
C370 C408 1.389 . S
C371 C370 1.443 . S
C371 C372 1.340 . S
C371 H411 0.951 . S
C372 C371 1.340 . S
C372 C373 1.439 . S
C372 H412 0.950 . S
C373 C372 1.439 . S
C373 N374 1.374 . S
C373 C407 1.395 . S
N374 C370 1.376 . S
N374 C373 1.374 . S
N374 Co375 2.008 . S
Co375 N374 2.008 . S
Co375 N376 1.995 . S
Co375 N381 2.008 . S
Co375 N386 1.995 . S
Co375 N391 2.282 . S
Co375 N397 2.282 . S
N376 Co375 1.995 . S
N376 C377 1.376 . S
N376 C380 1.383 . S
C377 N376 1.376 . S
C377 C378 1.446 . S
C377 C407 1.391 . S
C378 C377 1.446 . S
C378 C379 1.339 . S
C378 H413 0.949 . S
C379 C378 1.339 . S
C379 C380 1.439 . S
C379 H414 0.950 . S
C380 N376 1.383 . S
C380 C379 1.439 . S
C380 C409 1.392 . S
N381 Co375 2.008 . S
N381 C382 1.376 . S
N381 C385 1.374 . S
C382 N381 1.376 . S
C382 C383 1.443 . S
C382 C409 1.389 . S
C383 C382 1.443 . S
C383 C384 1.340 . S
C383 H415 0.951 . S
C384 C383 1.340 . S
C384 C385 1.439 . S
C384 H416 0.950 . S
C385 N381 1.374 . S
C385 C384 1.439 . S
C385 C410 1.395 . S
N386 Co375 1.995 . S
N386 C387 1.376 . S
N386 C390 1.383 . S
C387 N386 1.376 . S
C387 C388 1.446 . S
C387 C410 1.391 . S
C388 C387 1.446 . S
C388 C389 1.339 . S
C388 H417 0.949 . S
C389 C388 1.339 . S
C389 C390 1.439 . S
C389 H418 0.950 . S
C390 N386 1.383 . S
C390 C389 1.439 . S
C390 C408 1.392 . S
N391 Co375 2.282 . S
N391 C394 1.332 . S
N391 C396 1.332 . S
C392 C393 1.386 . S
C392 C395 1.388 . S
C393 C392 1.386 . S
C393 C394 1.382 . S
C393 H419 0.950 . S
C394 N391 1.332 . S
C394 C393 1.382 . S
C394 H405 0.952 . S
C395 C392 1.388 . S
C395 C396 1.382 . S
C395 H420 0.950 . S
C396 N391 1.332 . S
C396 C395 1.382 . S
C396 H406 0.948 . S
N397 Co375 2.282 . S
N397 C401 1.332 . S
N397 C402 1.332 . S
C398 C399 1.388 . S
C398 C402 1.382 . S
C398 H421 0.950 . S
C399 C398 1.388 . S
C399 C400 1.386 . S
C400 C399 1.386 . S
C400 C401 1.382 . S
C400 H422 0.950 . S
C401 N397 1.332 . S
C401 C400 1.382 . S
C401 H403 0.952 . S
C402 N397 1.332 . S
C402 C398 1.382 . S
C402 H404 0.948 . S
H403 C401 0.952 . S
H404 C402 0.948 . S
H405 C394 0.952 . S
H406 C396 0.948 . S
C407 C373 1.395 . S
C407 C377 1.391 . S
C408 C370 1.389 . S
C408 C390 1.392 . S
C409 C380 1.392 . S
C409 C382 1.389 . S
C410 C385 1.395 . S
C410 C387 1.391 . S
H411 C371 0.951 . S
H412 C372 0.950 . S
H413 C378 0.949 . S
H414 C379 0.950 . S
H415 C383 0.951 . S
H416 C384 0.950 . S
H417 C388 0.949 . S
H418 C389 0.950 . S
H419 C393 0.950 . S
H420 C395 0.950 . S
H421 C398 0.950 . S
H422 C400 0.950 . S
C423 C424 1.387 1_655 S
C423 H427 0.950 . S
C423 C432 1.390 . S
C424 C423 1.387 1_455 S
C424 C426 1.387 . S
H425 C432 0.950 . S
C426 C424 1.387 . S
C426 C428 1.390 . S
C426 H430 0.950 . S
H427 C423 0.950 . S
C428 C426 1.390 . S
C428 C429 1.387 . S
C428 H431 0.950 . S
C429 C428 1.387 . S
C429 C432 1.387 1_455 S
H430 C426 0.950 . S
H431 C428 0.950 . S
C432 C423 1.390 . S
C432 H425 0.950 . S
C432 C429 1.387 1_655 S
C433 C434 1.387 1_565 S
C433 H437 0.950 . S
C433 C442 1.390 1_565 S
C434 C433 1.387 1_545 S
C434 C436 1.387 . S
H435 C442 0.950 1_565 S
C436 C434 1.387 . S
C436 C438 1.390 . S
C436 H440 0.950 . S
H437 C433 0.950 . S
C438 C436 1.390 . S
C438 C439 1.387 . S
C438 H441 0.950 . S
C439 C438 1.387 . S
C439 C442 1.387 . S
H440 C436 0.950 . S
H441 C438 0.950 . S
C442 C433 1.390 1_545 S
C442 H435 0.950 1_545 S
C442 C439 1.387 . S
C443 C444 1.387 . S
C443 H447 0.950 . S
C443 C452 1.390 . S
C444 C443 1.387 . S
C444 C446 1.387 . S
H445 C452 0.950 . S
C446 C444 1.387 . S
C446 C448 1.390 . S
C446 H450 0.950 . S
H447 C443 0.950 . S
C448 C446 1.390 . S
C448 C449 1.387 . S
C448 H451 0.950 . S
C449 C448 1.387 . S
C449 C452 1.387 . S
H450 C446 0.950 . S
H451 C448 0.950 . S
C452 C443 1.390 . S
C452 H445 0.950 . S
C452 C449 1.387 . S
C453 C454 1.387 . S
C453 H457 0.950 . S
C453 C462 1.390 . S
C454 C453 1.387 . S
C454 C456 1.387 . S
H455 C462 0.950 1_655 S
C456 C454 1.387 . S
C456 C458 1.390 . S
C456 H460 0.950 . S
H457 C453 0.950 . S
C458 C456 1.390 . S
C458 C459 1.387 . S
C458 H461 0.950 . S
C459 C458 1.387 . S
C459 C462 1.387 . S
H460 C456 0.950 . S
H461 C458 0.950 . S
C462 C453 1.390 . S
C462 H455 0.950 1_455 S
C462 C459 1.387 . S
C463 C464 1.387 . S
C463 H467 0.950 . S
C463 C472 1.390 . S
C464 C463 1.387 . S
C464 C466 1.387 . S
H465 C472 0.950 . S
C466 C464 1.387 . S
C466 C468 1.390 . S
C466 H470 0.950 . S
H467 C463 0.950 . S
C468 C466 1.390 . S
C468 C469 1.387 . S
C468 H471 0.950 . S
C469 C468 1.387 . S
C469 C472 1.387 . S
H470 C466 0.950 . S
H471 C468 0.950 . S
C472 C463 1.390 . S
C472 H465 0.950 . S
C472 C469 1.387 . S
C473 C474 1.387 . S
C473 H477 0.950 . S
C473 C482 1.390 . S
C474 C473 1.387 . S
C474 C476 1.387 . S
H475 C482 0.950 . S
C476 C474 1.387 . S
C476 C478 1.390 . S
C476 H480 0.950 . S
H477 C473 0.950 . S
C478 C476 1.390 . S
C478 C479 1.387 . S
C478 H481 0.950 . S
C479 C478 1.387 . S
C479 C482 1.387 . S
H480 C476 0.950 . S
H481 C478 0.950 . S
C482 C473 1.390 . S
C482 H475 0.950 . S
C482 C479 1.387 . S
C483 C484 1.387 . S
C483 H487 0.950 . S
C483 C492 1.390 . S
C484 C483 1.387 . S
C484 C486 1.387 . S
H485 C492 0.950 . S
C486 C484 1.387 . S
C486 C488 1.390 . S
C486 H490 0.950 . S
H487 C483 0.950 . S
C488 C486 1.390 . S
C488 C489 1.387 . S
C488 H491 0.950 . S
C489 C488 1.387 . S
C489 C492 1.387 . S
H490 C486 0.950 . S
H491 C488 0.950 . S
C492 C483 1.390 . S
C492 H485 0.950 . S
C492 C489 1.387 . S
C493 C494 1.387 . S
C493 H497 0.950 . S
C493 C502 1.390 . S
C494 C493 1.387 . S
C494 C496 1.387 . S
H495 C502 0.950 . S
C496 C494 1.387 . S
C496 C498 1.390 . S
C496 H500 0.950 . S
H497 C493 0.950 . S
C498 C496 1.390 . S
C498 C499 1.387 . S
C498 H501 0.950 . S
C499 C498 1.387 . S
C499 C502 1.387 . S
H500 C496 0.950 . S
H501 C498 0.950 . S
C502 C493 1.390 . S
C502 H495 0.950 . S
C502 C499 1.387 . S
C503 C504 1.387 . S
C503 H507 0.950 . S
C503 C512 1.390 . S
C504 C503 1.387 . S
C504 C506 1.387 1_655 S
H505 C512 0.950 . S
C506 C504 1.387 1_455 S
C506 C508 1.390 . S
C506 H510 0.950 . S
H507 C503 0.950 . S
C508 C506 1.390 . S
C508 C509 1.387 . S
C508 H511 0.950 . S
C509 C508 1.387 . S
C509 C512 1.387 1_455 S
H510 C506 0.950 . S
H511 C508 0.950 . S
C512 C503 1.390 . S
C512 H505 0.950 . S
C512 C509 1.387 1_655 S
C513 C514 1.387 . S
C513 H517 0.950 . S
C513 C522 1.390 . S
C514 C513 1.387 . S
C514 C516 1.387 1_545 S
H515 C522 0.950 . S
C516 C514 1.387 1_565 S
C516 C518 1.390 1_565 S
C516 H520 0.950 . S
H517 C513 0.950 . S
C518 C516 1.390 1_545 S
C518 C519 1.387 . S
C518 H521 0.950 1_545 S
C519 C518 1.387 . S
C519 C522 1.387 . S
H520 C516 0.950 . S
H521 C518 0.950 1_565 S
C522 C513 1.390 . S
C522 H515 0.950 . S
C522 C519 1.387 . S
C523 C524 1.387 . S
C523 H527 0.950 . S
C523 C532 1.390 . S
C524 C523 1.387 . S
C524 C526 1.387 . S
H525 C532 0.950 . S
C526 C524 1.387 . S
C526 C528 1.390 . S
C526 H530 0.950 . S
H527 C523 0.950 . S
C528 C526 1.390 . S
C528 C529 1.387 . S
C528 H531 0.950 . S
C529 C528 1.387 . S
C529 C532 1.387 . S
H530 C526 0.950 . S
H531 C528 0.950 . S
C532 C523 1.390 . S
C532 H525 0.950 . S
C532 C529 1.387 . S
C533 C534 1.387 . S
C533 H537 0.950 . S
C533 C542 1.390 . S
C534 C533 1.387 . S
C534 C536 1.387 . S
H535 C542 0.950 . S
C536 C534 1.387 . S
C536 C538 1.390 . S
C536 H540 0.950 . S
H537 C533 0.950 . S
C538 C536 1.390 . S
C538 C539 1.387 . S
C538 H541 0.950 . S
C539 C538 1.387 . S
C539 C542 1.387 . S
H540 C536 0.950 . S
H541 C538 0.950 . S
C542 C533 1.390 . S
C542 H535 0.950 . S
C542 C539 1.387 . S
C429 C286 1.502 . S
C424 C29 1.478 . S
C434 C137 1.553 . S
C439 C356 1.589 . S
C444 C225 1.557 . S
C449 C408 1.591 . S
C454 C49 1.575 . S
C459 C302 1.605 . S
C469 C346 1.516 . S
C464 C117 1.492 . S
C474 C205 1.486 . S
C479 C392 1.511 . S
C489 C339 1.502 . S
C484 C233 1.478 . S
C494 C57 1.487 . S
C499 C399 1.508 . S
C509 C293 1.516 . S
C504 C108 1.491 . S
C519 C355 1.605 . S
C514 C196 1.574 1_545 S
C529 C409 1.598 . S
C524 C20 1.558 . S
C534 C145 1.552 . S
C539 C303 1.587 . S
