# Generated by pormake.
# Topology zzz, (3,6)-cn, num edge types: 1
# Building blocks:
#     Node 0, Type 0, BuildingBlock: OLANEW_clean_sbu_2, # of connection points: 3
#     Node 1, Type 0, BuildingBlock: OLANEW_clean_sbu_2, # of connection points: 3
#     Node 2, Type 0, BuildingBlock: OLANEW_clean_sbu_2, # of connection points: 3
#     Node 3, Type 0, BuildingBlock: OLANEW_clean_sbu_2, # of connection points: 3
#     Node 4, Type 0, BuildingBlock: OLANEW_clean_sbu_2, # of connection points: 3
#     Node 5, Type 0, BuildingBlock: OLANEW_clean_sbu_2, # of connection points: 3
#     Node 6, Type 0, BuildingBlock: OLANEW_clean_sbu_2, # of connection points: 3
#     Node 7, Type 0, BuildingBlock: OLANEW_clean_sbu_2, # of connection points: 3
#     Node 8, Type 1, BuildingBlock: JUFBIX_clean_sbu_0, # of connection points: 6
#     Node 9, Type 1, BuildingBlock: JUFBIX_clean_sbu_0, # of connection points: 6
#     Node 10, Type 1, BuildingBlock: JUFBIX_clean_sbu_0, # of connection points: 6
#     Node 11, Type 1, BuildingBlock: JUFBIX_clean_sbu_0, # of connection points: 6
#     Edge 12, Type (0, 1), BuildingBlock: TEMPAE_clean_linker_10, # of connection points: 2
#     Edge 13, Type (0, 1), BuildingBlock: TEMPAE_clean_linker_10, # of connection points: 2
#     Edge 14, Type (0, 1), BuildingBlock: TEMPAE_clean_linker_10, # of connection points: 2
#     Edge 15, Type (0, 1), BuildingBlock: TEMPAE_clean_linker_10, # of connection points: 2
#     Edge 16, Type (0, 1), BuildingBlock: TEMPAE_clean_linker_10, # of connection points: 2
#     Edge 17, Type (0, 1), BuildingBlock: TEMPAE_clean_linker_10, # of connection points: 2
#     Edge 18, Type (0, 1), BuildingBlock: TEMPAE_clean_linker_10, # of connection points: 2
#     Edge 19, Type (0, 1), BuildingBlock: TEMPAE_clean_linker_10, # of connection points: 2
#     Edge 20, Type (0, 1), BuildingBlock: TEMPAE_clean_linker_10, # of connection points: 2
#     Edge 21, Type (0, 1), BuildingBlock: TEMPAE_clean_linker_10, # of connection points: 2
#     Edge 22, Type (0, 1), BuildingBlock: TEMPAE_clean_linker_10, # of connection points: 2
#     Edge 23, Type (0, 1), BuildingBlock: TEMPAE_clean_linker_10, # of connection points: 2
#     Edge 24, Type (0, 1), BuildingBlock: TEMPAE_clean_linker_10, # of connection points: 2
#     Edge 25, Type (0, 1), BuildingBlock: TEMPAE_clean_linker_10, # of connection points: 2
#     Edge 26, Type (0, 1), BuildingBlock: TEMPAE_clean_linker_10, # of connection points: 2
#     Edge 27, Type (0, 1), BuildingBlock: TEMPAE_clean_linker_10, # of connection points: 2
#     Edge 28, Type (0, 1), BuildingBlock: TEMPAE_clean_linker_10, # of connection points: 2
#     Edge 29, Type (0, 1), BuildingBlock: TEMPAE_clean_linker_10, # of connection points: 2
#     Edge 30, Type (0, 1), BuildingBlock: TEMPAE_clean_linker_10, # of connection points: 2
#     Edge 31, Type (0, 1), BuildingBlock: TEMPAE_clean_linker_10, # of connection points: 2
#     Edge 32, Type (0, 1), BuildingBlock: TEMPAE_clean_linker_10, # of connection points: 2
#     Edge 33, Type (0, 1), BuildingBlock: TEMPAE_clean_linker_10, # of connection points: 2
#     Edge 34, Type (0, 1), BuildingBlock: TEMPAE_clean_linker_10, # of connection points: 2
#     Edge 35, Type (0, 1), BuildingBlock: TEMPAE_clean_linker_10, # of connection points: 2
# Relax obj value: 0.116
# Max RMSD: 0.177
# Mean RMSD: 0.088
data_MOF--net-zzz--node1-OLANEW_clean_sbu_2--node2-JUFBIX_clean_sbu_0--edge1-TEMPAE_clean_linker_10
_symmetry_space_group_name_H-M    P1
_symmetry_Int_Tables_number       1
_symmetry_cell_setting            triclinic
loop_
_symmetry_equiv_pos_as_xyz
'x, y, z'
_cell_length_a     55.64761
_cell_length_b     55.095837
_cell_length_c     19.468775
_cell_angle_alpha  82.007753
_cell_angle_beta   89.944803
_cell_angle_gamma 91.835251
loop_
_atom_site_label
_atom_site_type_symbol
_atom_site_fract_x
_atom_site_fract_y
_atom_site_fract_z
_atom_type_partial_charge
O0 O 0.81945 0.61841 0.95577 0.0
Cd1 Cd 0.784 0.63995 0.98235 0.0
O2 O 0.82222 0.60678 0.06749 0.0
Cd3 Cd 0.83977 0.58971 0.16138 0.0
O4 O 0.86041 0.57602 0.25267 0.0
C5 C 0.88213 0.57025 0.24605 0.0
O6 O 0.89162 0.57231 0.1836 0.0
C7 C 0.82981 0.6059 0.00625 0.0
C8 C 0.74532 0.60743 0.97382 0.0
O9 O 0.75658 0.60785 0.03106 0.0
O10 O 0.75189 0.623 0.92149 0.0
O11 O 0.8871 0.78799 0.01353 0.0
Cd12 Cd 0.90601 0.794 0.89824 0.0
O13 O 0.88267 0.80104 0.11441 0.0
Cd14 Cd 0.89367 0.82577 0.18822 0.0
O15 O 0.9102 0.84914 0.25816 0.0
C16 C 0.89845 0.86518 0.28371 0.0
O17 O 0.87566 0.86781 0.26764 0.0
C18 C 0.89283 0.80297 0.05533 0.0
C19 C 0.93085 0.75329 0.87053 0.0
O20 O 0.90914 0.75647 0.85007 0.0
O21 O 0.94077 0.76934 0.904 0.0
O22 O 0.72808 0.95302 0.96849 0.0
Cd23 Cd 0.76219 0.93541 0.03326 0.0
O24 O 0.72472 0.97435 0.05472 0.0
Cd25 Cd 0.70293 0.99613 0.11495 0.0
O26 O 0.6754 0.00399 0.1878 0.0
C27 C 0.6645 0.98547 0.22167 0.0
O28 O 0.67039 0.96344 0.21044 0.0
C29 C 0.71714 0.96885 0.99713 0.0
C30 C 0.80566 0.95637 0.98101 0.0
O31 O 0.79752 0.93612 0.96334 0.0
O32 O 0.79316 0.96677 0.0232 0.0
O33 O 0.61254 0.71967 0.97992 0.0
Cd34 Cd 0.63078 0.75626 0.01861 0.0
O35 O 0.60817 0.70616 0.09042 0.0
Cd36 Cd 0.59574 0.6807 0.1807 0.0
O37 O 0.586 0.65093 0.26278 0.0
C38 C 0.5914 0.65281 0.32523 0.0
O39 O 0.60263 0.6729 0.33906 0.0
C40 C 0.60536 0.70283 0.02747 0.0
C41 C 0.60629 0.79845 0.96997 0.0
O42 O 0.62549 0.79316 0.9396 0.0
O43 O 0.59868 0.7838 0.02297 0.0
O44 O 0.20987 0.43289 0.59769 0.0
Cd45 Cd 0.24761 0.41572 0.5687 0.0
O46 O 0.19923 0.43388 0.48927 0.0
Cd47 Cd 0.1747 0.43926 0.40156 0.0
O48 O 0.15146 0.44744 0.31218 0.0
C49 C 0.12923 0.45091 0.32004 0.0
O50 O 0.1203 0.44915 0.38311 0.0
C51 C 0.1946 0.43837 0.55015 0.0
C52 C 0.28539 0.44346 0.61443 0.0
O53 O 0.2767 0.44894 0.5535 0.0
O54 O 0.27638 0.42465 0.65317 0.0
O55 O 0.11071 0.21145 0.62344 0.0
Cd56 Cd 0.12876 0.25207 0.58834 0.0
O57 O 0.12202 0.19664 0.52975 0.0
Cd58 Cd 0.12089 0.16813 0.46158 0.0
O59 O 0.11443 0.14041 0.39281 0.0
C60 C 0.09292 0.13284 0.38502 0.0
O61 O 0.07562 0.1417 0.41921 0.0
C62 C 0.11121 0.19378 0.58805 0.0
C63 C 0.09862 0.28641 0.63195 0.0
O64 O 0.09706 0.28063 0.57053 0.0
O65 O 0.11474 0.27629 0.67219 0.0
O66 O 0.2953 0.89803 0.72912 0.0
Cd67 Cd 0.25949 0.8799 0.68233 0.0
O68 O 0.29699 0.9237 0.63239 0.0
Cd69 Cd 0.31656 0.95069 0.55799 0.0
O70 O 0.34223 0.96741 0.47906 0.0
C71 C 0.35995 0.95449 0.46775 0.0
O72 O 0.36181 0.93279 0.5047 0.0
C73 C 0.30569 0.916 0.6915 0.0
C74 C 0.21812 0.90231 0.71822 0.0
O75 O 0.22523 0.88268 0.75466 0.0
O76 O 0.23062 0.9113 0.66481 0.0
O77 O 0.4321 0.29445 0.70095 0.0
Cd78 Cd 0.4108 0.26042 0.65707 0.0
O79 O 0.42798 0.31334 0.59538 0.0
Cd80 Cd 0.43071 0.3446 0.51283 0.0
O81 O 0.44104 0.37396 0.4302 0.0
C82 C 0.44223 0.36893 0.3686 0.0
O83 O 0.43662 0.3465 0.3571 0.0
C84 C 0.43599 0.31336 0.65659 0.0
C85 C 0.43064 0.21528 0.70219 0.0
O86 O 0.43986 0.22976 0.65109 0.0
O87 O 0.41209 0.22219 0.73241 0.0
Co88 Co 0.0224 0.99159 0.88213 0.0
C89 C 0.97489 0.00241 0.84672 0.0
Co90 Co 0.0121 0.98624 0.77537 0.0
C91 C 0.04417 0.01303 0.99682 0.0
C92 C 0.01835 0.98427 0.03078 0.0
N93 N 0.02929 0.99616 0.97328 0.0
N94 N 0.04286 0.01212 0.06649 0.0
C95 C 0.0267 0.99393 0.08791 0.0
H96 H 0.05538 0.02611 0.96342 0.0
H97 H 0.00439 0.97014 0.03119 0.0
C98 C 0.05927 0.97415 0.81192 0.0
N99 N 0.00503 0.98168 0.68503 0.0
C100 C 0.98662 0.96855 0.66175 0.0
C101 C 0.01829 0.99 0.62811 0.0
N102 N 0.98792 0.96826 0.59254 0.0
C103 C 0.00782 0.98183 0.57128 0.0
C104 C 0.03161 0.03255 0.78528 0.0
O105 O 0.054 0.98113 0.86952 0.0
O106 O 0.04349 0.97486 0.76454 0.0
O107 O 0.02304 0.0187 0.74384 0.0
O108 O 0.03267 0.02448 0.84957 0.0
O109 O 0.9808 0.99728 0.78746 0.0
H110 H 0.03486 0.00082 0.6282 0.0
H111 H 0.97267 0.9592 0.69517 0.0
O112 O 0.9906 0.00167 0.89429 0.0
O113 O 0.01196 0.95858 0.9129 0.0
O114 O 0.00092 0.95388 0.80753 0.0
C115 C 0.00225 0.94538 0.87138 0.0
H116 H 0.02039 0.98882 0.14071 0.0
H117 H 0.01487 0.98489 0.51885 0.0
Co118 Co 0.50507 0.00119 0.88636 0.0
C119 C 0.52386 0.95847 0.84886 0.0
Co120 Co 0.51369 0.00296 0.77488 0.0
C121 C 0.47817 0.00089 0.01456 0.0
C122 C 0.51507 0.99214 0.03178 0.0
N123 N 0.49904 0.99847 0.98098 0.0
N124 N 0.48063 0.99638 0.0842 0.0
C125 C 0.50386 0.99096 0.09508 0.0
H126 H 0.46144 0.00552 0.98842 0.0
H127 H 0.53357 0.98785 0.02341 0.0
C128 C 0.49532 0.04586 0.81298 0.0
N129 N 0.51986 0.00564 0.68071 0.0
C130 C 0.53986 -0.0003 0.64841 0.0
C131 C 0.5052 0.01492 0.62921 0.0
N132 N 0.53832 0.00496 0.57866 0.0
C133 C 0.51647 0.01451 0.56653 0.0
C134 C 0.46694 0.98655 0.80938 0.0
O135 O 0.49467 0.03391 0.87373 0.0
O136 O 0.50314 0.03574 0.76291 0.0
O137 O 0.48204 0.99147 0.76009 0.0
O138 O 0.47319 0.98959 0.87049 0.0
O139 O 0.52413 0.97018 0.7878 0.0
H140 H 0.48759 0.02189 0.63685 0.0
H141 H 0.55522 0.99163 0.67577 0.0
O142 O 0.51581 0.96858 0.89862 0.0
O143 O 0.53687 0.01241 0.90077 0.0
O144 O 0.54565 0.01403 0.79059 0.0
C145 C 0.55226 0.01614 0.85197 0.0
H146 H 0.51193 0.98541 0.14516 0.0
H147 H 0.50932 0.02134 0.5161 0.0
Co148 Co 0.5374 0.50054 0.85316 0.0
C149 C 0.50489 0.48666 0.96124 0.0
Co150 Co 0.50145 0.5159 0.83498 0.0
C151 C 0.58763 0.50542 0.86979 0.0
C152 C 0.57588 0.46846 0.90477 0.0
N153 N 0.56819 0.49016 0.87299 0.0
N154 N 0.60691 0.49459 0.90031 0.0
C155 C 0.59985 0.47117 0.92185 0.0
H156 H 0.58728 0.52476 0.84997 0.0
H157 H 0.5644 0.45234 0.91933 0.0
C158 C 0.53375 0.52997 0.72688 0.0
N159 N 0.47073 0.52684 0.81449 0.0
C160 C 0.45125 0.51277 0.80319 0.0
C161 C 0.46344 0.55012 0.79947 0.0
N162 N 0.43235 0.52622 0.78047 0.0
C163 C 0.43974 0.54978 0.77873 0.0
C164 C 0.53084 0.54689 0.89551 0.0
O165 O 0.54791 0.5162 0.7644 0.0
O166 O 0.51245 0.53218 0.74822 0.0
O167 O 0.50924 0.54464 0.87591 0.0
O168 O 0.54511 0.52974 0.89072 0.0
O169 O 0.49056 0.49957 0.92184 0.0
H170 H 0.47491 0.56631 0.80017 0.0
H171 H 0.45103 0.49295 0.8093 0.0
O172 O 0.52654 0.48506 0.94169 0.0
O173 O 0.52963 0.4715 0.81565 0.0
O174 O 0.49421 0.48693 0.79416 0.0
C175 C 0.50852 0.46951 0.79209 0.0
H176 H 0.61056 0.45771 0.95269 0.0
H177 H 0.42925 0.56553 0.75994 0.0
Co178 Co 0.01181 0.52893 0.78271 0.0
C179 C 0.02895 0.4985 0.89433 0.0
Co180 Co 0.99814 0.49073 0.78575 0.0
C181 C 0.00438 0.5797 0.78592 0.0
C182 C 0.04198 0.57294 0.78324 0.0
N183 N 0.02007 0.56175 0.78263 0.0
N184 N 0.01548 0.60154 0.78957 0.0
C185 C 0.03919 0.59753 0.78724 0.0
H186 H 0.98504 0.57681 0.78645 0.0
H187 H 0.05884 0.56373 0.78269 0.0
C188 C 0.98094 0.52117 0.67421 0.0
N189 N 0.9902 0.4579 0.78531 0.0
C190 C 0.00655 0.44024 0.79067 0.0
C191 C 0.96973 0.44703 0.76604 0.0
N192 N 0.99757 0.41899 0.77286 0.0
C193 C 0.97422 0.42304 0.75833 0.0
C194 C 0.96862 0.51616 0.85724 0.0
O195 O 0.99334 0.53726 0.7008 0.0
O196 O 0.98063 0.49907 0.70335 0.0
O197 O 0.97024 0.49503 0.83883 0.0
O198 O 0.98471 0.53256 0.83847 0.0
O199 O 0.01591 0.48264 0.86886 0.0
H200 H 0.9532 0.45641 0.75322 0.0
H201 H 0.02521 0.4435 0.80316 0.0
O202 O 0.03002 0.52047 0.86396 0.0
O203 O 0.0391 0.52482 0.72783 0.0
O204 O 0.02595 0.48678 0.73189 0.0
C205 C 0.04161 0.5035 0.71175 0.0
H206 H 0.05342 0.61114 0.79095 0.0
H207 H 0.96179 0.41029 0.73819 0.0
C208 C 0.17931 0.90111 0.7834 0.0
C209 C 0.19587 0.91398 0.7364 0.0
C210 C 0.15754 0.91146 0.79837 0.0
C211 C 0.15241 0.93539 0.76635 0.0
C212 C 0.16939 0.94877 0.72053 0.0
C213 C 0.19086 0.93782 0.70565 0.0
C214 C 0.13971 0.89651 0.84679 0.0
C215 C 0.16469 0.97447 0.68622 0.0
C216 C 0.087 0.95179 0.74407 0.0
C217 C 0.08328 0.96474 0.8001 0.0
C218 C 0.10941 0.94214 0.73266 0.0
C219 C 0.1287 0.94585 0.77776 0.0
C220 C 0.1252 0.95922 0.83384 0.0
C221 C 0.10244 0.96836 0.8447 0.0
C222 C 0.11236 0.92773 0.67276 0.0
C223 C 0.14548 0.96383 0.88231 0.0
H224 H 0.18307 0.88266 0.80722 0.0
H225 H 0.20369 0.94793 0.66972 0.0
H226 H 0.13487 0.90675 0.88972 0.0
H227 H 0.12293 0.89317 0.81833 0.0
H228 H 0.1468 0.87853 0.86935 0.0
H229 H 0.18042 0.98301 0.65578 0.0
H230 H 0.14909 0.97413 0.65089 0.0
H231 H 0.16004 0.98622 0.72587 0.0
H232 H 0.07224 0.94882 0.70957 0.0
H233 H 0.09969 0.97847 0.88785 0.0
H234 H 0.11804 0.90891 0.69234 0.0
H235 H 0.12666 0.93648 0.63705 0.0
H236 H 0.0955 0.92639 0.64279 0.0
H237 H 0.15196 0.94614 0.90887 0.0
H238 H 0.13997 0.97515 0.92226 0.0
H239 H 0.16086 0.97331 0.85237 0.0
C240 C 0.42608 0.17163 0.75685 0.0
C241 C 0.44076 0.19101 0.72431 0.0
C242 C 0.43506 0.14805 0.77394 0.0
C243 C 0.45946 0.14398 0.75986 0.0
C244 C 0.47458 0.16372 0.72932 0.0
C245 C 0.46494 0.18694 0.71095 0.0
C246 C 0.41823 0.12734 0.80487 0.0
C247 C 0.50084 0.16023 0.71514 0.0
C248 C 0.48652 0.08595 0.85252 0.0
C249 C 0.48643 0.07101 0.79982 0.0
C250 C 0.47815 0.10993 0.84002 0.0
C251 C 0.46887 0.11884 0.7739 0.0
C252 C 0.46848 0.10367 0.72085 0.0
C253 C 0.47758 0.08006 0.7342 0.0
C254 C 0.47942 0.12581 0.89726 0.0
C255 C 0.4582 0.11227 0.65018 0.0
H256 H 0.40733 0.17471 0.76682 0.0
H257 H 0.47638 0.20197 0.68632 0.0
H258 H 0.41692 0.11317 0.76958 0.0
H259 H 0.42539 0.1184 0.85491 0.0
H260 H 0.39988 0.13366 0.81385 0.0
H261 H 0.51056 0.17783 0.69624 0.0
H262 H 0.50971 0.15156 0.76297 0.0
H263 H 0.50261 0.14773 0.67555 0.0
H264 H 0.4935 0.07901 0.90319 0.0
H265 H 0.47729 0.06845 0.69354 0.0
H266 H 0.4611 0.13114 0.91037 0.0
H267 H 0.48998 0.14297 0.8795 0.0
H268 H 0.4878 0.11638 0.94503 0.0
H269 H 0.43932 0.11766 0.65555 0.0
H270 H 0.45859 0.09793 0.61534 0.0
H271 H 0.46851 0.12871 0.62518 0.0
C272 C 0.31467 0.47926 0.59729 0.0
C273 C 0.3054 0.45824 0.63916 0.0
C274 C 0.33431 0.49281 0.61911 0.0
C275 C 0.34494 0.48509 0.68416 0.0
C276 C 0.33525 0.46431 0.72742 0.0
C277 C 0.31557 0.45115 0.70445 0.0
C278 C 0.34431 0.51477 0.57138 0.0
C279 C 0.34619 0.45546 0.79703 0.0
C280 C 0.41104 0.49807 0.71259 0.0
C281 C 0.4104 0.51708 0.75337 0.0
C282 C 0.38988 0.48829 0.68714 0.0
C283 C 0.36747 0.4973 0.70458 0.0
C284 C 0.36672 0.51692 0.74441 0.0
C285 C 0.38832 0.52678 0.76783 0.0
C286 C 0.39156 0.46781 0.64335 0.0
C287 C 0.34314 0.52697 0.76388 0.0
H288 H 0.30682 0.48493 0.54691 0.0
H289 H 0.30846 0.43501 0.73724 0.0
H290 H 0.34622 0.5309 0.59951 0.0
H291 H 0.36251 0.51083 0.55328 0.0
H292 H 0.33277 0.51962 0.52528 0.0
H293 H 0.33543 0.44016 0.82667 0.0
H294 H 0.36458 0.44906 0.78939 0.0
H295 H 0.34783 0.47071 0.82858 0.0
H296 H 0.4282 0.49092 0.70033 0.0
H297 H 0.38796 0.54152 0.79927 0.0
H298 H 0.37891 0.47028 0.59916 0.0
H299 H 0.38668 0.4501 0.67553 0.0
H300 H 0.40999 0.46667 0.62231 0.0
H301 H 0.3322 0.53218 0.71685 0.0
H302 H 0.34571 0.54323 0.79136 0.0
H303 H 0.33269 0.51259 0.79803 0.0
C304 C 0.06778 0.31851 0.6082 0.0
C305 C 0.08226 0.30423 0.65578 0.0
C306 C 0.05277 0.33603 0.62975 0.0
C307 C 0.05201 0.33911 0.70071 0.0
C308 C 0.06606 0.32426 0.74931 0.0
C309 C 0.08113 0.30708 0.72619 0.0
C310 C 0.03829 0.35176 0.57626 0.0
C311 C 0.06569 0.32701 0.82539 0.0
C312 C 0.03567 0.40203 0.73918 0.0
C313 C 0.01133 0.3985 0.75836 0.0
C314 C 0.04918 0.3827 0.72213 0.0
C315 C 0.03805 0.35924 0.72299 0.0
C316 C 0.01358 0.35536 0.74291 0.0
C317 C 0.0005 0.37507 0.76039 0.0
C318 C 0.07522 0.38765 0.70127 0.0
C319 C 0.0012 0.3305 0.7449 0.0
H320 H 0.06855 0.31639 0.55373 0.0
H321 H 0.09213 0.29596 0.76335 0.0
H322 H 0.01905 0.35083 0.59165 0.0
H323 H 0.0446 0.3712 0.57317 0.0
H324 H 0.0398 0.34611 0.52387 0.0
H325 H 0.07621 0.31279 0.85719 0.0
H326 H 0.07332 0.34533 0.83264 0.0
H327 H 0.04692 0.32585 0.84514 0.0
H328 H 0.04416 0.42012 0.73544 0.0
H329 H 0.98178 0.37218 0.77553 0.0
H330 H 0.07729 0.38669 0.64503 0.0
H331 H 0.08679 0.37359 0.72948 0.0
H332 H 0.08188 0.40597 0.71179 0.0
H333 H 0.00107 0.32502 0.69217 0.0
H334 H 0.98237 0.33028 0.76403 0.0
H335 H 0.01124 0.31651 0.77891 0.0
C336 C 0.83502 0.99187 0.95714 0.0
C337 C 0.82921 0.96701 0.95528 0.0
C338 C 0.85776 0.00187 0.93555 0.0
C339 C 0.87519 0.98647 0.91342 0.0
C340 C 0.86928 0.96142 0.9106 0.0
C341 C 0.84624 0.95208 0.93073 0.0
C342 C 0.86326 0.02877 0.93756 0.0
C343 C 0.88751 0.94432 0.88805 0.0
C344 C 0.93191 0.00738 0.8118 0.0
C345 C 0.94925 0.00426 0.86422 0.0
C346 C 0.90735 0.00357 0.82766 0.0
C347 C 0.90014 0.99588 0.89724 0.0
C348 C 0.91745 0.99431 0.95076 0.0
C349 C 0.94178 0.99885 0.93364 0.0
C350 C 0.88933 0.00617 0.76944 0.0
C351 C 0.9106 0.98565 0.02547 0.0
H352 H 0.82179 0.00352 0.97549 0.0
H353 H 0.84183 0.93285 0.92936 0.0
H354 H 0.87717 0.03094 0.97721 0.0
H355 H 0.87066 0.03753 0.88682 0.0
H356 H 0.8471 0.03869 0.95003 0.0
H357 H 0.88051 0.92504 0.89294 0.0
H358 H 0.89273 0.95033 0.8332 0.0
H359 H 0.90405 0.94492 0.91964 0.0
H360 H 0.93759 0.01171 0.75808 0.0
H361 H 0.95508 0.99627 0.97446 0.0
H362 H 0.8732 0.01562 0.78427 0.0
H363 H 0.88332 0.98771 0.75846 0.0
H364 H 0.8971 0.01652 0.72103 0.0
H365 H 0.89513 0.99583 0.04124 0.0
H366 H 0.92574 0.98786 0.0615 0.0
H367 H 0.90501 0.96594 0.03123 0.0
C368 C 0.60604 0.84167 0.91084 0.0
C369 C 0.59353 0.82111 0.94572 0.0
C370 C 0.59445 0.86385 0.89187 0.0
C371 C 0.56962 0.8652 0.90639 0.0
C372 C 0.55672 0.84419 0.93922 0.0
C373 C 0.56892 0.82248 0.95941 0.0
C374 C 0.60894 0.88606 0.85862 0.0
C375 C 0.53013 0.84479 0.95424 0.0
C376 C 0.54463 0.92683 0.92877 0.0
C377 C 0.53468 0.93422 0.86339 0.0
C378 C 0.55629 0.90455 0.94303 0.0
C379 C 0.55747 0.88897 0.8912 0.0
C380 C 0.5471 0.89615 0.82536 0.0
C381 C 0.5361 0.91891 0.81187 0.0
C382 C 0.56768 0.89788 0.01324 0.0
C383 C 0.54759 0.87977 0.76937 0.0
H384 H 0.62511 0.84068 0.90059 0.0
H385 H 0.55917 0.80652 0.98586 0.0
H386 H 0.60097 0.89343 0.80812 0.0
H387 H 0.60846 0.90076 0.89217 0.0
H388 H 0.62801 0.88187 0.84993 0.0
H389 H 0.52237 0.82638 0.97477 0.0
H390 H 0.52698 0.85738 0.99287 0.0
H391 H 0.52036 0.85194 0.90639 0.0
H392 H 0.54389 0.93882 0.96837 0.0
H393 H 0.52841 0.92463 0.76129 0.0
H394 H 0.58715 0.89496 0.00688 0.0
H395 H 0.5595 0.88044 0.03972 0.0
H396 H 0.56558 0.91229 0.04726 0.0
H397 H 0.56645 0.87663 0.75539 0.0
H398 H 0.53805 0.8877 0.72179 0.0
H399 H 0.53911 0.8616 0.78881 0.0
C400 C 0.72052 0.57028 0.02246 0.0
C401 C 0.72574 0.58908 0.96764 0.0
C402 C 0.70224 0.55255 0.01655 0.0
C403 C 0.68884 0.55378 0.95453 0.0
C404 C 0.69414 0.57261 0.89889 0.0
C405 C 0.71256 0.59 0.90606 0.0
C406 C 0.69703 0.53273 0.07693 0.0
C407 C 0.68 0.5747 0.83221 0.0
C408 C 0.65086 0.50007 0.90707 0.0
C409 C 0.62781 0.50746 0.9213 0.0
C410 C 0.6712 0.51452 0.92008 0.0
C411 C 0.66815 0.5365 0.94889 0.0
C412 C 0.6449 0.54315 0.96705 0.0
C413 C 0.625 0.52862 0.95251 0.0
C414 C 0.69575 0.50694 0.89994 0.0
C415 C 0.64092 0.56609 0.99939 0.0
H416 H 0.73075 0.56937 0.07005 0.0
H417 H 0.71651 0.60445 0.86345 0.0
H418 H 0.67859 0.53452 0.09687 0.0
H419 H 0.69778 0.51439 0.05979 0.0
H420 H 0.70992 0.53358 0.12014 0.0
H421 H 0.68718 0.58967 0.79266 0.0
H422 H 0.68026 0.55719 0.81019 0.0
H423 H 0.66094 0.5783 0.84285 0.0
H424 H 0.65283 0.48366 0.88294 0.0
H425 H 0.60706 0.534 0.96438 0.0
H426 H 0.70849 0.50738 0.94358 0.0
H427 H 0.70287 0.52012 0.85578 0.0
H428 H 0.6953 0.48826 0.88447 0.0
H429 H 0.65184 0.56594 0.04705 0.0
H430 H 0.62175 0.56799 0.01304 0.0
H431 H 0.64689 0.58246 0.96292 0.0
C432 C 0.96413 0.72412 0.8963 0.0
C433 C 0.94403 0.73163 0.85649 0.0
C434 C 0.97642 0.70316 0.88503 0.0
C435 C 0.96873 0.68976 0.83162 0.0
C436 C 0.94876 0.69756 0.79027 0.0
C437 C 0.93647 0.71827 0.80373 0.0
C438 C 0.99724 0.69502 0.93139 0.0
C439 C 0.94029 0.68397 0.73208 0.0
C440 C 0.0129 0.64652 0.76762 0.0
C441 C 0.00408 0.62375 0.80039 0.0
C442 C 0.00141 0.66821 0.77664 0.0
C443 C 0.98102 0.66702 0.82078 0.0
C444 C 0.97233 0.64405 0.85492 0.0
C445 C 0.98382 0.62268 0.84369 0.0
C446 C 0.01088 0.69232 0.73832 0.0
C447 C 0.9509 0.64201 0.90331 0.0
H448 H 0.96995 0.73431 0.93743 0.0
H449 H 0.92104 0.72412 0.7725 0.0
H450 H 0.99321 0.67637 0.95937 0.0
H451 H 0.01366 0.69394 0.8998 0.0
H452 H 0.00111 0.70762 0.97016 0.0
H453 H 0.92546 0.69332 0.70196 0.0
H454 H 0.95544 0.68217 0.6962 0.0
H455 H 0.93389 0.66516 0.75344 0.0
H456 H 0.02844 0.64725 0.73376 0.0
H457 H 0.97719 0.60507 0.86977 0.0
H458 H 0.01619 0.70493 0.77579 0.0
H459 H 0.99653 0.70124 0.70525 0.0
H460 H 0.02665 0.69005 0.70503 0.0
H461 H 0.9533 0.65477 0.9423 0.0
H462 H 0.948 0.62313 0.931 0.0
H463 H 0.93445 0.64722 0.87344 0.0
C464 C 0.07675 0.17054 0.64999 0.0
C465 C 0.09865 0.1704 0.61454 0.0
C466 C 0.06481 0.14855 0.67766 0.0
C467 C 0.07534 0.12596 0.6709 0.0
C468 C 0.09754 0.12574 0.63534 0.0
C469 C 0.10891 0.14803 0.60731 0.0
C470 C 0.04096 0.1495 0.71411 0.0
C471 C 0.10947 0.102 0.62797 0.0
C472 C 0.05674 0.07002 0.79859 0.0
C473 C 0.0415 0.05721 0.75786 0.0
C474 C 0.06781 0.09252 0.77103 0.0
C475 C 0.06322 0.10254 0.70146 0.0
C476 C 0.04734 0.09002 0.66072 0.0
C477 C 0.03679 0.06741 0.68928 0.0
C478 C 0.08488 0.10523 0.81578 0.0
C479 C 0.04172 0.10035 0.58668 0.0
H480 H 0.06885 0.1879 0.65559 0.0
H481 H 0.12618 0.14795 0.58159 0.0
H482 H 0.02701 0.13885 0.68924 0.0
H483 H 0.04232 0.14092 0.76892 0.0
H484 H 0.0349 0.16856 0.71316 0.0
H485 H 0.12675 0.10502 0.59891 0.0
H486 H 0.11298 0.09178 0.68004 0.0
H487 H 0.09736 0.09021 0.60056 0.0
H488 H 0.06055 0.06216 0.85148 0.0
H489 H 0.02495 0.05763 0.6576 0.0
H490 H 0.07897 0.12408 0.81901 0.0
H491 H 0.10309 0.10691 0.79198 0.0
H492 H 0.08614 0.09523 0.86922 0.0
H493 H 0.03491 0.11915 0.58454 0.0
H494 H 0.02813 0.08886 0.56307 0.0
H495 H 0.05834 0.10175 0.55469 0.0
C496 C 0.33298 0.95218 0.70037 0.0
C497 C 0.32833 0.92684 0.71444 0.0
C498 C 0.35486 0.96263 0.71946 0.0
C499 C 0.37251 0.94728 0.75284 0.0
C500 C 0.36764 0.92172 0.76862 0.0
C501 C 0.34546 0.91183 0.74982 0.0
C502 C 0.35925 0.99 0.70277 0.0
C503 C 0.38617 0.90473 0.80324 0.0
C504 C 0.43756 0.96947 0.73059 0.0
C505 C 0.44261 0.97691 0.79526 0.0
C506 C 0.41482 0.95978 0.71627 0.0
C507 C 0.39657 0.95775 0.76761 0.0
C508 C 0.40142 0.9655 0.83272 0.0
C509 C 0.42447 0.97486 0.84598 0.0
C510 C 0.41041 0.9515 0.64639 0.0
C511 C 0.38225 0.96395 0.88825 0.0
H512 H 0.31943 0.96386 0.67473 0.0
H513 H 0.34179 0.89222 0.76082 0.0
H514 H 0.36487 0.99776 0.75009 0.0
H515 H 0.37409 0.99398 0.66438 0.0
H516 H 0.34304 0.99953 0.6812 0.0
H517 H 0.37922 0.88545 0.81431 0.0
H518 H 0.40227 0.90532 0.76931 0.0
H519 H 0.39209 0.91084 0.85264 0.0
H520 H 0.45151 0.97092 0.69118 0.0
H521 H 0.42823 0.98069 0.89593 0.0
H522 H 0.39556 0.96185 0.61944 0.0
H523 H 0.40479 0.9318 0.65338 0.0
H524 H 0.4266 0.95412 0.61243 0.0
H525 H 0.36651 0.97452 0.86808 0.0
H526 H 0.38881 0.97113 0.93567 0.0
H527 H 0.37591 0.94463 0.90277 0.0
C528 C 0.46301 0.35059 0.62814 0.0
C529 C 0.44891 0.33516 0.67667 0.0
C530 C 0.47391 0.37226 0.64516 0.0
C531 C 0.47137 0.37814 0.7132 0.0
C532 C 0.45822 0.36194 0.76356 0.0
C533 C 0.44707 0.34065 0.74459 0.0
C534 C 0.48767 0.38911 0.58993 0.0
C535 C 0.45522 0.36755 0.83677 0.0
C536 C 0.5141 0.42583 0.77443 0.0
C537 C 0.49985 0.44657 0.7674 0.0
C538 C 0.50516 0.40344 0.75644 0.0
C539 C 0.48144 0.4018 0.73084 0.0
C540 C 0.46711 0.42275 0.72285 0.0
C541 C 0.47654 0.4449 0.74073 0.0
C542 C 0.52086 0.38139 0.76637 0.0
C543 C 0.44176 0.42191 0.69545 0.0
H544 H 0.46572 0.34568 0.57686 0.0
H545 H 0.43643 0.32859 0.78254 0.0
H546 H 0.47909 0.40718 0.58102 0.0
H547 H 0.50633 0.39235 0.60737 0.0
H548 H 0.48836 0.38163 0.53986 0.0
H549 H 0.44584 0.3523 0.87087 0.0
H550 H 0.47302 0.37122 0.85948 0.0
H551 H 0.44469 0.38434 0.83626 0.0
H552 H 0.53209 0.42693 0.79533 0.0
H553 H 0.46544 0.46086 0.73471 0.0
H554 H 0.52274 0.37385 0.71677 0.0
H555 H 0.51232 0.36674 0.80428 0.0
H556 H 0.53909 0.38584 0.78531 0.0
H557 H 0.44236 0.42134 0.63872 0.0
H558 H 0.43171 0.43818 0.70507 0.0
H559 H 0.43164 0.40524 0.71977 0.0
C560 C 0.16019 0.46594 0.51768 0.0
C561 C 0.17177 0.4493 0.56683 0.0
C562 C 0.13867 0.47654 0.5341 0.0
C563 C 0.12884 0.47067 0.60164 0.0
C564 C 0.14071 0.45422 0.6518 0.0
C565 C 0.16203 0.44376 0.63377 0.0
C566 C 0.12655 0.4941 0.47946 0.0
C567 C 0.13082 0.44757 0.72452 0.0
C568 C 0.0847 0.5111 0.67684 0.0
C569 C 0.06321 0.49729 0.67466 0.0
C570 C 0.10615 0.50322 0.65043 0.0
C571 C 0.1059 0.48123 0.62034 0.0
C572 C 0.08394 0.46804 0.6143 0.0
C573 C 0.06288 0.47615 0.64198 0.0
C574 C 0.12926 0.51766 0.6583 0.0
C575 C 0.08278 0.44502 0.58019 0.0
H576 H 0.16822 0.47121 0.46697 0.0
H577 H 0.17104 0.43107 0.67212 0.0
H578 H 0.10794 0.48733 0.47098 0.0
H579 H 0.12522 0.51227 0.49732 0.0
H580 H 0.13637 0.49652 0.42914 0.0
H581 H 0.14211 0.43429 0.75713 0.0
H582 H 0.12961 0.46433 0.74987 0.0
H583 H 0.11236 0.43948 0.72271 0.0
H584 H 0.08502 0.52741 0.70227 0.0
H585 H 0.04619 0.4656 0.63936 0.0
H586 H 0.1393 0.52094 0.60848 0.0
H587 H 0.14089 0.50695 0.69678 0.0
H588 H 0.12604 0.53561 0.67599 0.0
H589 H 0.08688 0.44978 0.52407 0.0
H590 H 0.06481 0.43556 0.58599 0.0
H591 H 0.09649 0.43203 0.60237 0.0
C592 C 0.90612 0.84696 0.04161 0.0
C593 C 0.91096 0.82266 0.0346 0.0
C594 C 0.92249 0.8661 0.017 0.0
C595 C 0.94431 0.86065 0.98565 0.0
C596 C 0.94961 0.83599 0.98088 0.0
C597 C 0.93277 0.81727 0.0052 0.0
C598 C 0.91612 0.89219 0.02261 0.0
C599 C 0.97281 0.82942 0.94879 0.0
C600 C 0.97285 0.91138 0.85695 0.0
C601 C 0.98979 0.92187 0.89832 0.0
C602 C 0.95825 0.89115 0.88446 0.0
C603 C 0.96094 0.88089 0.95474 0.0
C604 C 0.97875 0.89069 0.99593 0.0
C605 C 0.99285 0.91122 0.96736 0.0
C606 C 0.93919 0.8815 0.83914 0.0
C607 C 0.9824 0.87997 0.07072 0.0
H608 H 0.88916 0.85105 0.0642 0.0
H609 H 0.9366 0.79837 0.00124 0.0
H610 H 0.92971 0.90066 0.05439 0.0
H611 H 0.9164 0.90318 0.97037 0.0
H612 H 0.8981 0.89339 0.04628 0.0
H613 H 0.97494 0.80927 0.95359 0.0
H614 H 0.97333 0.83703 0.89296 0.0
H615 H 0.98838 0.83767 0.97377 0.0
H616 H 0.97022 0.91963 0.80372 0.0
H617 H 0.00592 0.91924 0.99958 0.0
H618 H 0.92111 0.88445 0.86003 0.0
H619 H 0.94083 0.86147 0.83946 0.0
H620 H 0.94031 0.89066 0.7846 0.0
H621 H 0.96628 0.88293 0.10172 0.0
H622 H 0.99833 0.88835 0.09383 0.0
H623 H 0.98465 0.85988 0.075 0.0
C624 C 0.67718 0.96405 0.94277 0.0
C625 C 0.69487 0.97928 0.96709 0.0
C626 C 0.65496 0.97334 0.91994 0.0
C627 C 0.65076 0.99862 0.91945 0.0
C628 C 0.66913 0.0143 0.94054 0.0
C629 C 0.69089 0.00433 0.96516 0.0
C630 C 0.63561 0.95589 0.89943 0.0
C631 C 0.66558 0.04142 0.93882 0.0
C632 C 0.59562 0.01962 0.81638 0.0
C633 C 0.57813 0.01764 0.86897 0.0
C634 C 0.61983 0.01513 0.83232 0.0
C635 C 0.62648 0.00804 0.90224 0.0
C636 C 0.6092 0.00768 0.95577 0.0
C637 C 0.58531 0.01283 0.93849 0.0
C638 C 0.63794 0.01647 0.77405 0.0
C639 C 0.61548 -9e-05 0.03099 0.0
H640 H 0.68034 0.94466 0.94452 0.0
H641 H 0.70482 0.01612 0.98313 0.0
H642 H 0.62004 0.95531 0.93535 0.0
H643 H 0.62905 0.96237 0.8465 0.0
H644 H 0.64205 0.93696 0.90058 0.0
H645 H 0.68254 0.05148 0.94886 0.0
H646 H 0.65845 0.04939 0.88769 0.0
H647 H 0.65215 0.0444 0.9787 0.0
H648 H 0.59025 0.02347 0.76254 0.0
H649 H 0.57197 0.01138 0.97956 0.0
H650 H 0.64274 0.99765 0.76626 0.0
H651 H 0.6547 0.02624 0.78713 0.0
H652 H 0.63083 0.02589 0.72441 0.0
H653 H 0.62016 0.98029 0.03863 0.0
H654 H 0.6004 0.00231 0.06661 0.0
H655 H 0.63142 0.01057 0.04583 0.0
C656 C 0.59514 0.65787 0.05307 0.0
C657 C 0.59341 0.6802 0.00935 0.0
C658 C 0.58334 0.63649 0.03725 0.0
C659 C 0.57041 0.63719 0.97448 0.0
C660 C 0.56913 0.65953 0.92907 0.0
C661 C 0.58052 0.68082 0.94731 0.0
C662 C 0.58526 0.613 0.08691 0.0
C663 C 0.55613 0.66084 0.86067 0.0
C664 C 0.56447 0.5771 0.90145 0.0
C665 C 0.54043 0.56995 0.91677 0.0
C666 C 0.57425 0.59914 0.91881 0.0
C667 C 0.55981 0.61415 0.95406 0.0
C668 C 0.53555 0.60695 0.97031 0.0
C669 C 0.52598 0.58505 0.9504 0.0
C670 C 0.5999 0.60657 0.89793 0.0
C671 C 0.51984 0.62223 0.00944 0.0
H672 H 0.6063 0.65685 0.09872 0.0
H673 H 0.57936 0.69798 0.91288 0.0
H674 H 0.56719 0.60421 0.0979 0.0
H675 H 0.59624 0.59992 0.06301 0.0
H676 H 0.59368 0.61612 0.13681 0.0
H677 H 0.55638 0.67973 0.83191 0.0
H678 H 0.56462 0.64859 0.82769 0.0
H679 H 0.53717 0.65432 0.86933 0.0
H680 H 0.57556 0.5657 0.87418 0.0
H681 H 0.5074 0.5795 0.96222 0.0
H682 H 0.61031 0.61112 0.94322 0.0
H683 H 0.60004 0.62332 0.85901 0.0
H684 H 0.6092 0.59198 0.87524 0.0
H685 H 0.52813 0.62432 0.06022 0.0
H686 H 0.50145 0.61398 0.0187 0.0
H687 H 0.51843 0.64089 0.98016 0.0
C688 C 0.85424 0.56853 0.03584 0.0
C689 C 0.85023 0.59067 0.99305 0.0
C690 C 0.87311 0.55357 0.02206 0.0
C691 C 0.88787 0.56066 0.96306 0.0
C692 C 0.88374 0.58289 0.91923 0.0
C693 C 0.86495 0.5976 0.93478 0.0
C694 C 0.87709 0.53011 0.07019 0.0
C695 C 0.89921 0.59117 0.85594 0.0
C696 C 0.95106 0.53961 0.94339 0.0
C697 C 0.94772 0.52296 0.89574 0.0
C698 C 0.93145 0.55066 0.97 0.0
C699 C 0.90802 0.54529 0.94704 0.0
C700 C 0.90443 0.52731 0.90221 0.0
C701 C 0.92442 0.51612 0.87752 0.0
C702 C 0.9359 0.56899 0.0199 0.0
C703 C 0.87973 0.52133 0.87601 0.0
H704 H 0.84221 0.56248 0.07898 0.0
H705 H 0.86178 0.61461 0.90126 0.0
H706 H 0.87419 0.51415 0.04184 0.0
H707 H 0.89593 0.52972 0.08883 0.0
H708 H 0.86484 0.52792 0.1159 0.0
H709 H 0.89351 0.60884 0.82702 0.0
H710 H 0.91825 0.59336 0.87149 0.0
H711 H 0.89844 0.57704 0.82046 0.0
H712 H 0.96917 0.54471 0.95777 0.0
H713 H 0.92193 0.50341 0.84009 0.0
H714 H 0.92637 0.56265 0.06955 0.0
H715 H 0.92857 0.58696 0.99876 0.0
H716 H 0.95532 0.57168 0.03083 0.0
H717 H 0.86659 0.51806 0.91943 0.0
H718 H 0.8796 0.50494 0.84856 0.0
H719 H 0.87356 0.53716 0.8395 0.0
C720 C 0.06328 0.10828 0.3242 0.0
C721 C 0.08727 0.1148 0.33696 0.0
C722 C 0.05752 0.09152 0.2782 0.0
C723 C 0.07619 0.08084 0.24439 0.0
C724 C 0.10045 0.08723 0.25718 0.0
C725 C 0.10572 0.10419 0.30317 0.0
C726 C 0.0314 0.08525 0.26581 0.0
C727 C 0.12084 0.07607 0.2225 0.0
C728 C 0.05861 0.02099 0.17902 0.0
C729 C 0.05378 0.02888 0.10891 0.0
C730 C 0.0668 0.03756 0.2231 0.0
C731 C 0.07014 0.06269 0.19653 0.0
C732 C 0.0662 0.07063 0.12517 0.0
C733 C 0.05813 0.05361 0.08216 0.0
C734 C 0.07106 0.02828 0.29867 0.0
C735 C 0.06948 0.09729 0.09488 0.0
H736 H 0.04891 0.11639 0.34993 0.0
H737 H 0.12431 0.10908 0.31279 0.0
H738 H 0.02727 0.08944 0.20975 0.0
H739 H 0.02775 0.06532 0.28128 0.0
H740 H 0.01902 0.09549 0.29521 0.0
H741 H 0.13873 0.08303 0.23777 0.0
H742 H 0.11993 0.05583 0.23621 0.0
H743 H 0.11918 0.08014 0.16531 0.0
H744 H 0.05563 0.00184 0.19966 0.0
H745 H 0.05423 0.05989 0.02824 0.0
H746 H 0.05783 0.0362 0.33125 0.0
H747 H 0.08923 0.03426 0.3143 0.0
H748 H 0.06939 0.00797 0.30997 0.0
H749 H 0.05588 0.10822 0.11749 0.0
H750 H 0.06756 0.10017 0.03754 0.0
H751 H 0.08745 0.1045 0.10827 0.0
C752 C 0.37684 0.98683 0.3751 0.0
C753 C 0.37755 0.96305 0.41173 0.0
C754 C 0.39309 0.9947 0.3206 0.0
C755 C 0.41028 0.97834 0.30201 0.0
C756 C 0.41116 0.95439 0.3391 0.0
C757 C 0.39489 0.94709 0.39365 0.0
C758 C 0.39181 0.02047 0.28274 0.0
C759 C 0.42916 0.93634 0.32068 0.0
C760 C 0.4388 0.98622 0.12268 0.0
C761 C 0.46207 0.99472 0.13643 0.0
C762 C 0.4214 0.9817 0.1756 0.0
C763 C 0.42739 0.986 0.24368 0.0
C764 C 0.45049 0.99576 0.25701 0.0
C765 C 0.46757 -9e-05 0.20326 0.0
C766 C 0.39702 0.97115 0.15937 0.0
C767 C 0.4575 0.0009 0.32864 0.0
H768 H 0.36355 0.9993 0.38891 0.0
H769 H 0.39558 0.92868 0.42156 0.0
H770 H 0.40942 0.0303 0.28541 0.0
H771 H 0.38792 0.01991 0.2271 0.0
H772 H 0.37775 0.03112 0.30452 0.0
H773 H 0.42741 0.91836 0.3544 0.0
H774 H 0.42673 0.93328 0.26595 0.0
H775 H 0.44771 0.94389 0.32546 0.0
H776 H 0.43452 0.98197 0.07132 0.0
H777 H 0.48543 0.00684 0.21375 0.0
H778 H 0.38256 0.98198 0.17825 0.0
H779 H 0.39484 0.95214 0.18671 0.0
H780 H 0.39454 0.97075 0.1029 0.0
H781 H 0.44389 0.01227 0.34943 0.0
H782 H 0.47537 0.01048 0.329 0.0
H783 H 0.4581 0.98339 0.36438 0.0
C784 C 0.45151 0.38208 0.24305 0.0
C785 C 0.45065 0.38774 0.31103 0.0
C786 C 0.46016 0.39937 0.18818 0.0
C787 C 0.46819 0.42289 0.2016 0.0
C788 C 0.46714 0.42884 0.26993 0.0
C789 C 0.45836 0.41119 0.32388 0.0
C790 C 0.46094 0.39237 0.1159 0.0
C791 C 0.47553 0.45374 0.28613 0.0
C792 C 0.51148 0.45691 0.06834 0.0
C793 C 0.49601 0.47221 0.02665 0.0
C794 C 0.50279 0.44132 0.12682 0.0
C795 C 0.47804 0.44102 0.14398 0.0
C796 C 0.4625 0.45704 0.10359 0.0
C797 C 0.47167 0.47246 0.0454 0.0
C798 C 0.51994 0.42455 0.16882 0.0
C799 C 0.43601 0.45728 0.12035 0.0
H800 H 0.44555 0.36404 0.23259 0.0
H801 H 0.45777 0.41571 0.37628 0.0
H802 H 0.45046 0.40536 0.07993 0.0
H803 H 0.47975 0.39358 0.09651 0.0
H804 H 0.45361 0.37348 0.11397 0.0
H805 H 0.47302 0.45567 0.34171 0.0
H806 H 0.49487 0.45691 0.27274 0.0
H807 H 0.46556 0.46832 0.25413 0.0
H808 H 0.53032 0.45663 0.05434 0.0
H809 H 0.45959 0.48425 0.01356 0.0
H810 H 0.51491 0.40518 0.16441 0.0
H811 H 0.51871 0.42673 0.22449 0.0
H812 H 0.53889 0.42815 0.15135 0.0
H813 H 0.42735 0.43936 0.11344 0.0
H814 H 0.4267 0.472 0.08677 0.0
H815 H 0.43338 0.45985 0.17533 0.0
C816 C 0.12314 0.45764 0.19169 0.0
C817 C 0.11378 0.45731 0.25877 0.0
C818 C 0.10892 0.46407 0.13299 0.0
C819 C 0.08476 0.4704 0.14151 0.0
C820 C 0.07513 0.46998 0.20901 0.0
C821 C 0.08975 0.46339 0.2669 0.0
C822 C 0.1198 0.46422 0.06179 0.0
C823 C 0.04944 0.47668 0.22001 0.0
C824 C 0.0561 0.50913 0.98879 0.0
C825 C 0.04277 0.4914 0.95847 0.0
C826 C 0.06955 0.50259 0.04905 0.0
C827 C 0.06972 0.47773 0.07954 0.0
C828 C 0.05614 0.45978 0.04959 0.0
C829 C 0.0428 0.46683 0.98943 0.0
C830 C 0.08378 0.52225 0.07965 0.0
C831 C 0.05595 0.43307 0.08057 0.0
H832 H 0.14167 0.45291 0.18491 0.0
H833 H 0.08239 0.46322 0.31854 0.0
H834 H 0.10919 0.45172 0.03251 0.0
H835 H 0.11918 0.48289 0.03208 0.0
H836 H 0.13876 0.45846 0.06412 0.0
H837 H 0.04461 0.47517 0.27586 0.0
H838 H 0.04659 0.49575 0.19534 0.0
H839 H 0.03698 0.46454 0.19485 0.0
H840 H 0.05611 0.52816 0.96532 0.0
H841 H 0.03255 0.45302 0.96632 0.0
H842 H 0.10322 0.51838 0.07903 0.0
H843 H 0.07847 0.52224 0.1346 0.0
H844 H 0.08114 0.54083 0.05088 0.0
H845 H 0.07442 0.42609 0.08002 0.0
H846 H 0.04394 0.4215 0.05202 0.0
H847 H 0.04998 0.43097 0.13552 0.0
C848 C 0.89739 0.89807 0.36066 0.0
C849 C 0.91037 0.88069 0.33095 0.0
C850 C 0.90858 0.91291 0.40522 0.0
C851 C 0.93332 0.91032 0.42032 0.0
C852 C 0.94648 0.89276 0.39073 0.0
C853 C 0.93486 0.87817 0.34646 0.0
C854 C 0.89398 0.93144 0.43583 0.0
C855 C 0.97292 0.88949 0.40545 0.0
C856 C 0.97032 0.96261 0.47931 0.0
C857 C 0.97261 0.95469 0.55059 0.0
C858 C 0.95703 0.94868 0.43664 0.0
C859 C 0.9457 0.92626 0.46596 0.0
C860 C 0.94726 0.91852 0.53824 0.0
C861 C 0.9607 0.93282 0.57969 0.0
C862 C 0.95568 0.95764 0.35986 0.0
C863 C 0.93541 0.89472 0.57146 0.0
H864 H 0.87847 0.90013 0.34905 0.0
H865 H 0.94505 0.86481 0.32378 0.0
H866 H 0.8948 0.92802 0.49328 0.0
H867 H 0.90165 0.95018 0.41933 0.0
H868 H 0.87483 0.9309 0.41987 0.0
H869 H 0.98048 0.87476 0.37918 0.0
H870 H 0.98312 0.90688 0.38792 0.0
H871 H 0.97579 0.88496 0.46211 0.0
H872 H 0.97909 0.97969 0.45668 0.0
H873 H 0.96255 0.92642 0.63451 0.0
H874 H 0.93665 0.95851 0.34306 0.0
H875 H 0.96455 0.94455 0.33036 0.0
H876 H 0.96447 0.97606 0.3458 0.0
H877 H 0.91609 0.89408 0.55756 0.0
H878 H 0.93694 0.89215 0.6289 0.0
H879 H 0.94387 0.8791 0.55155 0.0
C880 C 0.63838 0.0119 0.28321 0.0
C881 C 0.64579 0.98849 0.27374 0.0
C882 C 0.62079 0.01487 0.33288 0.0
C883 C 0.61045 0.99394 0.37416 0.0
C884 C 0.61783 0.97028 0.36479 0.0
C885 C 0.63537 0.96784 0.31461 0.0
C886 C 0.61326 0.04039 0.34117 0.0
C887 C 0.60726 0.94754 0.40794 0.0
C888 C 0.58087 0.00193 0.54522 0.0
C889 C 0.55642 0.00187 0.52773 0.0
C890 C 0.59865 0.99937 0.49578 0.0
C891 C 0.59183 0.99676 0.42708 0.0
C892 C 0.5672 0.99665 0.40904 0.0
C893 C 0.54981 0.99913 0.4596 0.0
C894 C 0.62475 0.99954 0.51701 0.0
C895 C 0.5592 0.99386 0.33634 0.0
H896 H 0.6463 0.02794 0.25174 0.0
H897 H 0.641 0.94967 0.30773 0.0
H898 H 0.59367 0.04202 0.33185 0.0
H899 H 0.61664 0.04397 0.39507 0.0
H900 H 0.623 0.05475 0.30493 0.0
H901 H 0.61499 0.93047 0.39432 0.0
H902 H 0.61052 0.9484 0.46378 0.0
H903 H 0.5875 0.94649 0.40068 0.0
H904 H 0.5862 0.00439 0.59733 0.0
H905 H 0.53098 0.99869 0.44582 0.0
H906 H 0.63479 0.01482 0.48508 0.0
H907 H 0.63301 0.98225 0.5075 0.0
H908 H 0.62705 0.00161 0.57261 0.0
H909 H 0.56765 0.00864 0.29867 0.0
H910 H 0.53937 0.99451 0.33048 0.0
H911 H 0.5652 0.97615 0.32242 0.0
C912 C 0.58716 0.63658 0.45127 0.0
C913 C 0.58455 0.63294 0.38177 0.0
C914 C 0.57974 0.61837 0.50542 0.0
C915 C 0.56966 0.59588 0.48969 0.0
C916 C 0.56762 0.59179 0.41974 0.0
C917 C 0.57499 0.61042 0.36655 0.0
C918 C 0.58207 0.62346 0.57944 0.0
C919 C 0.55719 0.56794 0.40105 0.0
C920 C 0.56612 0.54351 0.63896 0.0
C921 C 0.54238 0.54495 0.66201 0.0
C922 C 0.57508 0.55944 0.58136 0.0
C923 C 0.55997 0.5773 0.54649 0.0
C924 C 0.5358 0.57832 0.5682 0.0
C925 C 0.52728 0.56208 0.62548 0.0
C926 C 0.60089 0.55766 0.5592 0.0
C927 C 0.51915 0.59718 0.53254 0.0
H928 H 0.59456 0.6539 0.46349 0.0
H929 H 0.57309 0.60739 0.31296 0.0
H930 H 0.56397 0.62324 0.60353 0.0
H931 H 0.59239 0.60891 0.61034 0.0
H932 H 0.59116 0.64149 0.58301 0.0
H933 H 0.55837 0.56701 0.34451 0.0
H934 H 0.56673 0.55223 0.42931 0.0
H935 H 0.53802 0.56576 0.4171 0.0
H936 H 0.5779 0.5303 0.66685 0.0
H937 H 0.5089 0.56334 0.64286 0.0
H938 H 0.61125 0.57446 0.56821 0.0
H939 H 0.6019 0.55645 0.50286 0.0
H940 H 0.60966 0.5415 0.58802 0.0
H941 H 0.52609 0.61586 0.53863 0.0
H942 H 0.50056 0.59482 0.55384 0.0
H943 H 0.51847 0.59603 0.47614 0.0
C944 C 0.88678 0.56103 0.37475 0.0
C945 C 0.89674 0.56218 0.30809 0.0
C946 C 0.90056 0.5541 0.43411 0.0
C947 C 0.92488 0.54813 0.42666 0.0
C948 C 0.935 0.549 0.35959 0.0
C949 C 0.9208 0.55602 0.30106 0.0
C950 C 0.88913 0.55334 0.50483 0.0
C951 C 0.96086 0.54267 0.34969 0.0
C952 C 0.96623 0.55263 0.57973 0.0
C953 C 0.96694 0.52806 0.61026 0.0
C954 C 0.95276 0.5594 0.5196 0.0
C955 C 0.93975 0.54114 0.48925 0.0
C956 C 0.94053 0.5163 0.51948 0.0
C957 C 0.9541 0.51005 0.57967 0.0
C958 C 0.95229 0.5861 0.48888 0.0
C959 C 0.9269 0.49632 0.48853 0.0
H960 H 0.8682 0.56573 0.38071 0.0
H961 H 0.92863 0.55682 0.24976 0.0
H962 H 0.89035 0.53471 0.53447 0.0
H963 H 0.89897 0.56622 0.53466 0.0
H964 H 0.86993 0.55828 0.50167 0.0
H965 H 0.9659 0.54392 0.29405 0.0
H966 H 0.97297 0.55526 0.37446 0.0
H967 H 0.96401 0.52379 0.37539 0.0
H968 H 0.97608 0.56666 0.60306 0.0
H969 H 0.95457 0.49101 0.60285 0.0
H970 H 0.93359 0.5925 0.4886 0.0
H971 H 0.95861 0.58845 0.43422 0.0
H972 H 0.96372 0.59798 0.51811 0.0
H973 H 0.90737 0.49978 0.48834 0.0
H974 H 0.9298 0.47783 0.51755 0.0
H975 H 0.93253 0.4964 0.43382 0.0
loop_
_geom_bond_atom_site_label_1
_geom_bond_atom_site_label_2
_geom_bond_distance
_geom_bond_site_symmetry_2
_ccdc_geom_bond_type
O0 Cd1 2.300 . S
O0 C7 1.275 . S
Cd1 O0 2.300 . S
Cd1 O9 2.381 . S
Cd1 O10 2.378 . S
O2 Cd3 2.385 . S
O2 C7 1.255 . S
Cd3 O2 2.385 . S
Cd3 O4 2.317 . S
O4 Cd3 2.317 . S
O4 C5 1.232 . S
C5 O4 1.232 . S
C5 O6 1.218 . S
O6 C5 1.218 . S
C7 O0 1.275 . S
C7 O2 1.255 . S
C8 O9 1.258 . S
C8 O10 1.256 . S
O9 Cd1 2.381 . S
O9 C8 1.258 . S
O10 Cd1 2.378 . S
O10 C8 1.256 . S
O11 Cd12 2.300 . S
O11 C18 1.275 . S
Cd12 O11 2.300 . S
Cd12 O20 2.381 . S
Cd12 O21 2.378 . S
O13 Cd14 2.385 1_655 S
O13 C18 1.255 . S
Cd14 O13 2.385 1_455 S
Cd14 O15 2.317 1_455 S
O15 Cd14 2.317 1_655 S
O15 C16 1.232 . S
C16 O15 1.232 . S
C16 O17 1.218 . S
O17 C16 1.218 . S
C18 O11 1.275 . S
C18 O13 1.255 . S
C19 O20 1.258 . S
C19 O21 1.256 . S
O20 Cd12 2.381 . S
O20 C19 1.258 . S
O21 Cd12 2.378 . S
O21 C19 1.256 . S
O22 Cd23 2.300 1_566 S
O22 C29 1.275 1_566 S
Cd23 O22 2.300 1_544 S
Cd23 O31 2.384 1_545 S
Cd23 O32 2.378 . S
O24 Cd25 2.385 . S
O24 C29 1.255 . S
Cd25 O24 2.385 . S
Cd25 O26 2.317 . S
O26 Cd25 2.317 . S
O26 C27 1.232 . S
C27 O26 1.232 . S
C27 O28 1.218 . S
O28 C27 1.218 . S
C29 O22 1.275 1_544 S
C29 O24 1.255 . S
C30 O31 1.260 1_545 S
C30 O32 1.256 . S
O31 Cd23 2.384 1_565 S
O31 C30 1.260 1_565 S
O32 Cd23 2.378 . S
O32 C30 1.256 . S
O33 Cd34 2.300 . S
O33 C40 1.275 . S
Cd34 O33 2.300 . S
Cd34 O42 2.381 . S
Cd34 O43 2.378 . S
O35 Cd36 2.385 . S
O35 C40 1.255 . S
Cd36 O35 2.385 . S
Cd36 O37 2.317 . S
O37 Cd36 2.317 . S
O37 C38 1.232 . S
C38 O37 1.232 . S
C38 O39 1.218 . S
O39 C38 1.218 . S
C40 O33 1.275 . S
C40 O35 1.255 . S
C41 O42 1.258 . S
C41 O43 1.256 . S
O42 Cd34 2.381 . S
O42 C41 1.258 . S
O43 Cd34 2.378 . S
O43 C41 1.256 . S
O44 Cd45 2.300 . S
O44 C51 1.275 . S
Cd45 O44 2.300 . S
Cd45 O53 2.381 . S
Cd45 O54 2.378 . S
O46 Cd47 2.385 . S
O46 C51 1.255 . S
Cd47 O46 2.385 . S
Cd47 O48 2.317 . S
O48 Cd47 2.317 . S
O48 C49 1.232 . S
C49 O48 1.232 . S
C49 O50 1.218 . S
O50 C49 1.218 . S
C51 O44 1.275 . S
C51 O46 1.255 . S
C52 O53 1.258 . S
C52 O54 1.256 . S
O53 Cd45 2.381 . S
O53 C52 1.258 . S
O54 Cd45 2.378 . S
O54 C52 1.256 . S
O55 Cd56 2.300 . S
O55 C62 1.275 . S
Cd56 O55 2.300 . S
Cd56 O64 2.381 . S
Cd56 O65 2.378 . S
O57 Cd58 2.385 . S
O57 C62 1.255 . S
Cd58 O57 2.385 . S
Cd58 O59 2.317 . S
O59 Cd58 2.317 . S
O59 C60 1.232 . S
C60 O59 1.232 . S
C60 O61 1.218 . S
O61 C60 1.218 . S
C62 O55 1.275 . S
C62 O57 1.255 . S
C63 O64 1.258 . S
C63 O65 1.256 . S
O64 Cd56 2.381 . S
O64 C63 1.258 . S
O65 Cd56 2.378 . S
O65 C63 1.256 . S
O66 Cd67 2.300 1_565 S
O66 C73 1.275 1_565 S
Cd67 O66 2.300 1_545 S
Cd67 O75 2.381 1_545 S
Cd67 O76 2.378 . S
O68 Cd69 2.385 . S
O68 C73 1.255 . S
Cd69 O68 2.385 . S
Cd69 O70 2.317 . S
O70 Cd69 2.317 . S
O70 C71 1.232 . S
C71 O70 1.232 . S
C71 O72 1.218 . S
O72 C71 1.218 . S
C73 O66 1.275 1_545 S
C73 O68 1.255 . S
C74 O75 1.258 1_545 S
C74 O76 1.256 . S
O75 Cd67 2.381 1_565 S
O75 C74 1.258 1_565 S
O76 Cd67 2.378 . S
O76 C74 1.256 . S
O77 Cd78 2.300 . S
O77 C84 1.275 . S
Cd78 O77 2.300 . S
Cd78 O86 2.381 . S
Cd78 O87 2.378 . S
O79 Cd80 2.385 . S
O79 C84 1.255 . S
Cd80 O79 2.385 . S
Cd80 O81 2.317 . S
O81 Cd80 2.317 . S
O81 C82 1.232 . S
C82 O81 1.232 . S
C82 O83 1.218 . S
O83 C82 1.218 . S
C84 O77 1.275 . S
C84 O79 1.255 . S
C85 O86 1.258 . S
C85 O87 1.256 . S
O86 Cd78 2.381 . S
O86 C85 1.258 . S
O87 Cd78 2.378 . S
O87 C85 1.256 . S
Co88 N93 2.057 . S
Co88 O105 2.021 . S
Co88 O108 2.062 . S
Co88 O112 2.117 1_455 S
Co88 O113 2.020 1_545 S
C89 O109 1.259 1_545 S
C89 O112 1.258 . S
Co90 N99 2.057 . S
Co90 O106 2.117 . S
Co90 O107 2.020 1_565 S
Co90 O109 2.021 1_455 S
Co90 O114 2.062 . S
C91 N93 1.316 . S
C91 N94 1.347 1_556 S
C91 H96 0.931 . S
C92 N93 1.375 1_554 S
C92 C95 1.350 . S
C92 H97 0.930 1_454 S
N93 Co88 2.057 . S
N93 C91 1.316 . S
N93 C92 1.375 1_556 S
N94 C91 1.347 1_554 S
N94 C95 1.373 . S
C95 C92 1.350 . S
C95 N94 1.373 . S
C95 H116 0.931 . S
H96 C91 0.931 . S
H97 C92 0.930 1_656 S
C98 O105 1.259 1_565 S
C98 O106 1.258 . S
N99 Co90 2.057 . S
N99 C100 1.316 1_455 S
N99 C101 1.375 . S
C100 N99 1.316 1_655 S
C100 N102 1.347 . S
C100 H111 0.931 . S
C101 N99 1.375 . S
C101 C103 1.350 . S
C101 H110 0.930 . S
N102 C100 1.347 . S
N102 C103 1.373 1_655 S
C103 C101 1.350 . S
C103 N102 1.373 1_455 S
C103 H117 0.931 . S
C104 O107 1.256 . S
C104 O108 1.255 . S
O105 Co88 2.021 . S
O105 C98 1.259 1_545 S
O106 Co90 2.117 . S
O106 C98 1.258 . S
O107 Co90 2.020 1_545 S
O107 C104 1.256 . S
O108 Co88 2.062 . S
O108 C104 1.255 . S
O109 C89 1.259 1_565 S
O109 Co90 2.021 1_655 S
H110 C101 0.930 . S
H111 C100 0.931 . S
O112 Co88 2.117 1_655 S
O112 C89 1.258 . S
O113 Co88 2.020 1_565 S
O113 C115 1.256 . S
O114 Co90 2.062 . S
O114 C115 1.255 . S
C115 O113 1.256 . S
C115 O114 1.255 . S
H116 C95 0.931 . S
H117 C103 0.931 . S
Co118 N123 2.057 1_545 S
Co118 O135 2.021 . S
Co118 O138 2.063 . S
Co118 O142 2.117 1_545 S
Co118 O143 2.020 . S
C119 O139 1.259 . S
C119 O142 1.258 . S
Co120 N129 2.057 1_565 S
Co120 O136 2.117 1_565 S
Co120 O137 2.020 . S
Co120 O139 2.021 . S
Co120 O144 2.061 . S
C121 N123 1.290 1_545 S
C121 N124 1.347 1_556 S
C121 H126 0.931 . S
C122 N123 1.403 1_554 S
C122 C125 1.350 . S
C122 H127 0.930 . S
N123 Co118 2.057 1_565 S
N123 C121 1.290 1_565 S
N123 C122 1.403 1_556 S
N124 C121 1.347 1_554 S
N124 C125 1.373 1_545 S
C125 C122 1.350 . S
C125 N124 1.373 1_565 S
C125 H146 0.931 . S
H126 C121 0.931 . S
H127 C122 0.930 . S
C128 O135 1.259 . S
C128 O136 1.258 . S
N129 Co120 2.057 1_545 S
N129 C130 1.282 1_545 S
N129 C131 1.412 . S
C130 N129 1.282 1_565 S
C130 N132 1.347 . S
C130 H141 0.931 . S
C131 N129 1.412 . S
C131 C133 1.350 . S
C131 H140 0.930 . S
N132 C130 1.347 . S
N132 C133 1.373 1_565 S
C133 C131 1.350 . S
C133 N132 1.373 1_545 S
C133 H147 0.931 . S
C134 O137 1.256 . S
C134 O138 1.252 1_565 S
O135 Co118 2.021 . S
O135 C128 1.259 . S
O136 Co120 2.117 1_545 S
O136 C128 1.258 . S
O137 Co120 2.020 . S
O137 C134 1.256 . S
O138 Co118 2.063 . S
O138 C134 1.252 1_545 S
O139 C119 1.259 . S
O139 Co120 2.021 . S
H140 C131 0.930 . S
H141 C130 0.931 . S
O142 Co118 2.117 1_565 S
O142 C119 1.258 . S
O143 Co118 2.020 . S
O143 C145 1.256 . S
O144 Co120 2.061 . S
O144 C145 1.256 1_565 S
C145 O143 1.256 . S
C145 O144 1.256 1_545 S
H146 C125 0.931 . S
H147 C133 0.931 . S
Co148 N153 2.057 . S
Co148 O165 2.021 . S
Co148 O168 2.062 . S
Co148 O172 2.117 . S
Co148 O173 2.020 . S
C149 O169 1.259 . S
C149 O172 1.258 . S
Co150 N159 2.057 . S
Co150 O166 2.117 . S
Co150 O167 2.020 . S
Co150 O169 2.021 . S
Co150 O174 2.062 . S
C151 N153 1.316 . S
C151 N154 1.347 . S
C151 H156 0.931 . S
C152 N153 1.375 . S
C152 C155 1.350 . S
C152 H157 0.930 . S
N153 Co148 2.057 . S
N153 C151 1.316 . S
N153 C152 1.375 . S
N154 C151 1.347 . S
N154 C155 1.373 . S
C155 C152 1.350 . S
C155 N154 1.373 . S
C155 H176 0.931 . S
H156 C151 0.931 . S
H157 C152 0.930 . S
C158 O165 1.259 . S
C158 O166 1.258 . S
N159 Co150 2.057 . S
N159 C160 1.316 . S
N159 C161 1.375 . S
C160 N159 1.316 . S
C160 N162 1.347 . S
C160 H171 0.931 . S
C161 N159 1.375 . S
C161 C163 1.350 . S
C161 H170 0.930 . S
N162 C160 1.347 . S
N162 C163 1.373 . S
C163 C161 1.350 . S
C163 N162 1.373 . S
C163 H177 0.931 . S
C164 O167 1.256 . S
C164 O168 1.255 . S
O165 Co148 2.021 . S
O165 C158 1.259 . S
O166 Co150 2.117 . S
O166 C158 1.258 . S
O167 Co150 2.020 . S
O167 C164 1.256 . S
O168 Co148 2.062 . S
O168 C164 1.255 . S
O169 C149 1.259 . S
O169 Co150 2.021 . S
H170 C161 0.930 . S
H171 C160 0.931 . S
O172 Co148 2.117 . S
O172 C149 1.258 . S
O173 Co148 2.020 . S
O173 C175 1.256 . S
O174 Co150 2.062 . S
O174 C175 1.255 . S
C175 O173 1.256 . S
C175 O174 1.255 . S
H176 C155 0.931 . S
H177 C163 0.931 . S
Co178 N183 2.057 . S
Co178 O195 2.021 1_455 S
Co178 O198 2.062 1_455 S
Co178 O202 2.117 . S
Co178 O203 2.020 . S
C179 O199 1.259 . S
C179 O202 1.258 . S
Co180 N189 2.057 . S
Co180 O196 2.117 1_455 S
Co180 O197 2.020 1_455 S
Co180 O199 2.021 . S
Co180 O204 2.062 . S
C181 N183 1.316 . S
C181 N184 1.347 . S
C181 H186 0.931 1_455 S
C182 N183 1.375 . S
C182 C185 1.350 . S
C182 H187 0.930 . S
N183 Co178 2.057 . S
N183 C181 1.316 . S
N183 C182 1.375 . S
N184 C181 1.347 . S
N184 C185 1.373 . S
C185 C182 1.350 . S
C185 N184 1.373 . S
C185 H206 0.931 . S
H186 C181 0.931 1_655 S
H187 C182 0.930 . S
C188 O195 1.259 . S
C188 O196 1.258 . S
N189 Co180 2.057 . S
N189 C190 1.316 . S
N189 C191 1.375 1_455 S
C190 N189 1.316 . S
C190 N192 1.347 . S
C190 H201 0.931 . S
C191 N189 1.375 1_655 S
C191 C193 1.350 1_655 S
C191 H200 0.930 . S
N192 C190 1.347 . S
N192 C193 1.373 . S
C193 C191 1.350 1_455 S
C193 N192 1.373 . S
C193 H207 0.931 1_455 S
C194 O197 1.256 . S
C194 O198 1.255 . S
O195 Co178 2.021 1_655 S
O195 C188 1.259 . S
O196 Co180 2.117 1_655 S
O196 C188 1.258 . S
O197 Co180 2.020 1_655 S
O197 C194 1.256 . S
O198 Co178 2.062 1_655 S
O198 C194 1.255 . S
O199 C179 1.259 . S
O199 Co180 2.021 . S
H200 C191 0.930 . S
H201 C190 0.931 . S
O202 Co178 2.117 . S
O202 C179 1.258 . S
O203 Co178 2.020 . S
O203 C205 1.256 . S
O204 Co180 2.062 . S
O204 C205 1.255 . S
C205 O203 1.256 . S
C205 O204 1.255 . S
H206 C185 0.931 . S
H207 C193 0.931 1_655 S
C208 C209 1.433 . S
C208 C210 1.394 . S
C208 H224 0.931 . S
C209 C208 1.433 . S
C209 C213 1.334 1_565 S
C210 C208 1.394 . S
C210 C211 1.369 . S
C210 C214 1.531 . S
C211 C210 1.369 . S
C211 C212 1.410 1_565 S
C211 C219 1.503 . S
C212 C211 1.410 1_545 S
C212 C213 1.392 . S
C212 C215 1.511 . S
C213 C209 1.334 1_545 S
C213 C212 1.392 . S
C213 H225 0.929 . S
C214 C210 1.531 . S
C214 H226 0.960 . S
C214 H227 0.962 . S
C214 H228 0.960 . S
C215 C212 1.511 . S
C215 H229 0.961 . S
C215 H230 0.961 . S
C215 H231 0.961 . S
C216 C217 1.370 . S
C216 C218 1.363 . S
C216 H232 0.931 1_565 S
C217 C216 1.370 . S
C217 C221 1.408 . S
C218 C216 1.363 . S
C218 C219 1.372 . S
C218 C222 1.523 1_565 S
C219 C211 1.503 . S
C219 C218 1.372 . S
C219 C220 1.403 . S
C220 C219 1.403 . S
C220 C221 1.404 . S
C220 C223 1.539 . S
C221 C217 1.408 . S
C221 C220 1.404 . S
C221 H233 0.930 . S
C222 C218 1.523 1_545 S
C222 H234 0.956 1_545 S
C222 H235 0.961 . S
C222 H236 0.961 . S
C223 C220 1.539 . S
C223 H237 0.958 . S
C223 H238 0.961 . S
C223 H239 0.960 . S
H224 C208 0.931 . S
H225 C213 0.929 . S
H226 C214 0.960 . S
H227 C214 0.962 . S
H228 C214 0.960 . S
H229 C215 0.961 . S
H230 C215 0.961 . S
H231 C215 0.961 . S
H232 C216 0.931 1_545 S
H233 C221 0.930 . S
H234 C222 0.956 1_565 S
H235 C222 0.961 . S
H236 C222 0.961 . S
H237 C223 0.958 . S
H238 C223 0.961 . S
H239 C223 0.960 . S
C240 C241 1.391 . S
C240 C242 1.394 . S
C240 H256 0.931 . S
C241 C240 1.391 . S
C241 C245 1.376 . S
C242 C240 1.394 . S
C242 C243 1.369 . S
C242 C246 1.531 . S
C243 C242 1.369 . S
C243 C244 1.410 . S
C243 C251 1.503 . S
C244 C243 1.410 . S
C244 C245 1.392 . S
C244 C247 1.511 . S
C245 C241 1.376 . S
C245 C244 1.392 . S
C245 H257 0.929 . S
C246 C242 1.531 . S
C246 H258 0.960 . S
C246 H259 0.962 . S
C246 H260 0.960 . S
C247 C244 1.511 . S
C247 H261 0.961 . S
C247 H262 0.961 . S
C247 H263 0.961 . S
C248 C249 1.370 . S
C248 C250 1.363 . S
C248 H264 0.931 . S
C249 C248 1.370 . S
C249 C253 1.408 . S
C250 C248 1.363 . S
C250 C251 1.370 . S
C250 C254 1.524 . S
C251 C243 1.503 . S
C251 C250 1.370 . S
C251 C252 1.403 . S
C252 C251 1.403 . S
C252 C253 1.404 . S
C252 C255 1.539 . S
C253 C249 1.408 . S
C253 C252 1.404 . S
C253 H265 0.930 . S
C254 C250 1.524 . S
C254 H266 0.956 . S
C254 H267 0.961 . S
C254 H268 0.961 . S
C255 C252 1.539 . S
C255 H269 0.958 . S
C255 H270 0.961 . S
C255 H271 0.960 . S
H256 C240 0.931 . S
H257 C245 0.929 . S
H258 C246 0.960 . S
H259 C246 0.962 . S
H260 C246 0.960 . S
H261 C247 0.961 . S
H262 C247 0.961 . S
H263 C247 0.961 . S
H264 C248 0.931 . S
H265 C253 0.930 . S
H266 C254 0.956 . S
H267 C254 0.961 . S
H268 C254 0.961 . S
H269 C255 0.958 . S
H270 C255 0.961 . S
H271 C255 0.960 . S
C272 C273 1.391 . S
C272 C274 1.394 . S
C272 H288 0.931 . S
C273 C272 1.391 . S
C273 C277 1.376 . S
C274 C272 1.394 . S
C274 C275 1.369 . S
C274 C278 1.531 . S
C275 C274 1.369 . S
C275 C276 1.410 . S
C275 C283 1.503 . S
C276 C275 1.410 . S
C276 C277 1.392 . S
C276 C279 1.511 . S
C277 C273 1.376 . S
C277 C276 1.392 . S
C277 H289 0.929 . S
C278 C274 1.531 . S
C278 H290 0.960 . S
C278 H291 0.962 . S
C278 H292 0.960 . S
C279 C276 1.511 . S
C279 H293 0.961 . S
C279 H294 0.961 . S
C279 H295 0.961 . S
C280 C281 1.370 . S
C280 C282 1.363 . S
C280 H296 0.931 . S
C281 C280 1.370 . S
C281 C285 1.408 . S
C282 C280 1.363 . S
C282 C283 1.370 . S
C282 C286 1.524 . S
C283 C275 1.503 . S
C283 C282 1.370 . S
C283 C284 1.403 . S
C284 C283 1.403 . S
C284 C285 1.404 . S
C284 C287 1.539 . S
C285 C281 1.408 . S
C285 C284 1.404 . S
C285 H297 0.930 . S
C286 C282 1.524 . S
C286 H298 0.956 . S
C286 H299 0.961 . S
C286 H300 0.961 . S
C287 C284 1.539 . S
C287 H301 0.958 . S
C287 H302 0.961 . S
C287 H303 0.960 . S
H288 C272 0.931 . S
H289 C277 0.929 . S
H290 C278 0.960 . S
H291 C278 0.962 . S
H292 C278 0.960 . S
H293 C279 0.961 . S
H294 C279 0.961 . S
H295 C279 0.961 . S
H296 C280 0.931 . S
H297 C285 0.930 . S
H298 C286 0.956 . S
H299 C286 0.961 . S
H300 C286 0.961 . S
H301 C287 0.958 . S
H302 C287 0.961 . S
H303 C287 0.960 . S
C304 C305 1.391 . S
C304 C306 1.394 . S
C304 H320 0.931 . S
C305 C304 1.391 . S
C305 C309 1.376 . S
C306 C304 1.394 . S
C306 C307 1.369 . S
C306 C310 1.531 . S
C307 C306 1.369 . S
C307 C308 1.410 . S
C307 C315 1.503 . S
C308 C307 1.410 . S
C308 C309 1.392 . S
C308 C311 1.511 . S
C309 C305 1.376 . S
C309 C308 1.392 . S
C309 H321 0.929 . S
C310 C306 1.531 . S
C310 H322 0.960 . S
C310 H323 0.962 . S
C310 H324 0.960 . S
C311 C308 1.511 . S
C311 H325 0.961 . S
C311 H326 0.961 . S
C311 H327 0.961 . S
C312 C313 1.370 . S
C312 C314 1.363 . S
C312 H328 0.931 . S
C313 C312 1.370 . S
C313 C317 1.408 . S
C314 C312 1.363 . S
C314 C315 1.370 . S
C314 C318 1.524 . S
C315 C307 1.503 . S
C315 C314 1.370 . S
C315 C316 1.403 . S
C316 C315 1.403 . S
C316 C317 1.404 . S
C316 C319 1.539 . S
C317 C313 1.408 . S
C317 C316 1.404 . S
C317 H329 0.930 . S
C318 C314 1.524 . S
C318 H330 0.956 . S
C318 H331 0.961 . S
C318 H332 0.961 . S
C319 C316 1.539 . S
C319 H333 0.958 . S
C319 H334 0.961 . S
C319 H335 0.960 . S
H320 C304 0.931 . S
H321 C309 0.929 . S
H322 C310 0.960 . S
H323 C310 0.962 . S
H324 C310 0.960 . S
H325 C311 0.961 . S
H326 C311 0.961 . S
H327 C311 0.961 . S
H328 C312 0.931 . S
H329 C317 0.930 . S
H330 C318 0.956 . S
H331 C318 0.961 . S
H332 C318 0.961 . S
H333 C319 0.958 . S
H334 C319 0.961 . S
H335 C319 0.960 . S
C336 C337 1.383 1_556 S
C336 C338 1.394 . S
C336 H352 0.931 . S
C337 C336 1.383 1_554 S
C337 C341 1.381 1_545 S
C338 C336 1.394 . S
C338 C339 1.369 . S
C338 C342 1.531 . S
C339 C338 1.369 . S
C339 C340 1.410 1_546 S
C339 C347 1.503 . S
C340 C339 1.410 1_564 S
C340 C341 1.392 . S
C340 C343 1.511 . S
C341 C337 1.381 1_565 S
C341 C340 1.392 . S
C341 H353 0.929 . S
C342 C338 1.531 . S
C342 H354 0.960 . S
C342 H355 0.962 . S
C342 H356 0.960 . S
C343 C340 1.511 . S
C343 H357 0.961 . S
C343 H358 0.961 . S
C343 H359 0.961 . S
C344 C345 1.370 1_565 S
C344 C346 1.363 . S
C344 H360 0.931 . S
C345 C344 1.370 1_545 S
C345 C349 1.408 . S
C346 C344 1.363 . S
C346 C347 1.370 1_565 S
C346 C350 1.524 . S
C347 C339 1.503 . S
C347 C346 1.370 1_545 S
C347 C348 1.403 . S
C348 C347 1.403 . S
C348 C349 1.404 . S
C348 C351 1.539 . S
C349 C345 1.408 . S
C349 C348 1.404 . S
C349 H361 0.930 . S
C350 C346 1.524 . S
C350 H362 0.956 . S
C350 H363 0.961 . S
C350 H364 0.961 . S
C351 C348 1.539 . S
C351 H365 0.958 . S
C351 H366 0.961 1_556 S
C351 H367 0.960 1_556 S
H352 C336 0.931 . S
H353 C341 0.929 . S
H354 C342 0.960 . S
H355 C342 0.962 . S
H356 C342 0.960 . S
H357 C343 0.961 . S
H358 C343 0.961 . S
H359 C343 0.961 . S
H360 C344 0.931 . S
H361 C349 0.930 . S
H362 C350 0.956 . S
H363 C350 0.961 . S
H364 C350 0.961 . S
H365 C351 0.958 . S
H366 C351 0.961 1_554 S
H367 C351 0.960 1_554 S
C368 C369 1.391 1_556 S
C368 C370 1.394 . S
C368 H384 0.931 . S
C369 C368 1.391 1_554 S
C369 C373 1.376 . S
C370 C368 1.394 . S
C370 C371 1.369 . S
C370 C374 1.531 . S
C371 C370 1.369 . S
C371 C372 1.410 1_556 S
C371 C379 1.503 . S
C372 C371 1.410 1_554 S
C372 C373 1.392 . S
C372 C375 1.511 . S
C373 C369 1.376 . S
C373 C372 1.392 . S
C373 H385 0.929 . S
C374 C370 1.531 . S
C374 H386 0.960 . S
C374 H387 0.962 . S
C374 H388 0.960 . S
C375 C372 1.511 . S
C375 H389 0.961 . S
C375 H390 0.961 . S
C375 H391 0.961 . S
C376 C377 1.370 . S
C376 C378 1.363 . S
C376 H392 0.931 . S
C377 C376 1.370 . S
C377 C381 1.408 . S
C378 C376 1.363 . S
C378 C379 1.370 . S
C378 C382 1.524 1_556 S
C379 C371 1.503 . S
C379 C378 1.370 . S
C379 C380 1.403 . S
C380 C379 1.403 . S
C380 C381 1.404 . S
C380 C383 1.539 . S
C381 C377 1.408 . S
C381 C380 1.404 . S
C381 H393 0.930 . S
C382 C378 1.524 1_554 S
C382 H394 0.950 1_554 S
C382 H395 0.961 . S
C382 H396 0.961 . S
C383 C380 1.539 . S
C383 H397 0.958 . S
C383 H398 0.961 . S
C383 H399 0.960 . S
H384 C368 0.931 . S
H385 C373 0.929 . S
H386 C374 0.960 . S
H387 C374 0.962 . S
H388 C374 0.960 . S
H389 C375 0.961 . S
H390 C375 0.961 . S
H391 C375 0.961 . S
H392 C376 0.931 . S
H393 C381 0.930 . S
H394 C382 0.950 1_556 S
H395 C382 0.961 . S
H396 C382 0.961 . S
H397 C383 0.958 . S
H398 C383 0.961 . S
H399 C383 0.960 . S
C400 C401 1.391 . S
C400 C402 1.394 . S
C400 H416 0.931 . S
C401 C400 1.391 . S
C401 C405 1.376 . S
C402 C400 1.394 . S
C402 C403 1.369 . S
C402 C406 1.531 1_554 S
C403 C402 1.369 . S
C403 C404 1.410 . S
C403 C411 1.503 1_554 S
C404 C403 1.410 . S
C404 C405 1.392 . S
C404 C407 1.511 . S
C405 C401 1.376 . S
C405 C404 1.392 . S
C405 H417 0.929 . S
C406 C402 1.531 1_556 S
C406 H418 0.960 . S
C406 H419 0.962 . S
C406 H420 0.960 . S
C407 C404 1.511 . S
C407 H421 0.961 . S
C407 H422 0.961 . S
C407 H423 0.961 . S
C408 C409 1.370 . S
C408 C410 1.363 . S
C408 H424 0.931 . S
C409 C408 1.370 . S
C409 C413 1.408 . S
C410 C408 1.363 . S
C410 C411 1.370 . S
C410 C414 1.524 . S
C411 C403 1.503 1_556 S
C411 C410 1.370 . S
C411 C412 1.403 1_556 S
C412 C411 1.403 1_554 S
C412 C413 1.404 1_554 S
C412 C415 1.539 . S
C413 C409 1.408 . S
C413 C412 1.404 1_556 S
C413 H425 0.930 . S
C414 C410 1.524 . S
C414 H426 0.956 . S
C414 H427 0.961 . S
C414 H428 0.961 . S
C415 C412 1.539 . S
C415 H429 0.958 . S
C415 H430 0.961 . S
C415 H431 0.960 . S
H416 C400 0.931 . S
H417 C405 0.929 . S
H418 C406 0.960 . S
H419 C406 0.962 . S
H420 C406 0.960 . S
H421 C407 0.961 . S
H422 C407 0.961 . S
H423 C407 0.961 . S
H424 C408 0.931 . S
H425 C413 0.930 . S
H426 C414 0.956 . S
H427 C414 0.961 . S
H428 C414 0.961 . S
H429 C415 0.958 . S
H430 C415 0.961 . S
H431 C415 0.960 . S
C432 C433 1.391 . S
C432 C434 1.394 . S
C432 H448 0.931 . S
C433 C432 1.391 . S
C433 C437 1.376 1_554 S
C434 C432 1.394 . S
C434 C435 1.369 1_554 S
C434 C438 1.531 1_655 S
C435 C434 1.369 1_556 S
C435 C436 1.410 . S
C435 C443 1.503 . S
C436 C435 1.410 . S
C436 C437 1.392 . S
C436 C439 1.511 . S
C437 C433 1.376 1_556 S
C437 C436 1.392 . S
C437 H449 0.929 . S
C438 C434 1.531 1_455 S
C438 H450 0.960 1_455 S
C438 H451 0.962 . S
C438 H452 0.960 . S
C439 C436 1.511 . S
C439 H453 0.961 . S
C439 H454 0.961 . S
C439 H455 0.961 . S
C440 C441 1.370 1_455 S
C440 C442 1.363 1_455 S
C440 H456 0.931 . S
C441 C440 1.370 1_655 S
C441 C445 1.408 . S
C442 C440 1.363 1_655 S
C442 C443 1.370 . S
C442 C446 1.524 1_655 S
C443 C435 1.503 . S
C443 C442 1.370 . S
C443 C444 1.403 . S
C444 C443 1.403 . S
C444 C445 1.404 . S
C444 C447 1.539 1_556 S
C445 C441 1.408 . S
C445 C444 1.404 . S
C445 H457 0.930 . S
C446 C442 1.524 1_455 S
C446 H458 0.956 . S
C446 H459 0.961 1_455 S
C446 H460 0.961 . S
C447 C444 1.539 1_554 S
C447 H461 0.958 . S
C447 H462 0.961 . S
C447 H463 0.960 . S
H448 C432 0.931 . S
H449 C437 0.929 . S
H450 C438 0.960 1_655 S
H451 C438 0.962 . S
H452 C438 0.960 . S
H453 C439 0.961 . S
H454 C439 0.961 . S
H455 C439 0.961 . S
H456 C440 0.931 . S
H457 C445 0.930 . S
H458 C446 0.956 . S
H459 C446 0.961 1_655 S
H460 C446 0.961 . S
H461 C447 0.958 . S
H462 C447 0.961 . S
H463 C447 0.960 . S
C464 C465 1.391 . S
C464 C466 1.394 . S
C464 H480 0.931 . S
C465 C464 1.391 . S
C465 C469 1.376 . S
C466 C464 1.394 . S
C466 C467 1.369 . S
C466 C470 1.531 . S
C467 C466 1.369 . S
C467 C468 1.410 . S
C467 C475 1.503 . S
C468 C467 1.410 . S
C468 C469 1.392 . S
C468 C471 1.511 . S
C469 C465 1.376 . S
C469 C468 1.392 . S
C469 H481 0.929 . S
C470 C466 1.531 . S
C470 H482 0.960 . S
C470 H483 0.962 . S
C470 H484 0.960 . S
C471 C468 1.511 . S
C471 H485 0.961 . S
C471 H486 0.961 . S
C471 H487 0.961 . S
C472 C473 1.370 . S
C472 C474 1.363 . S
C472 H488 0.931 . S
C473 C472 1.370 . S
C473 C477 1.408 . S
C474 C472 1.363 . S
C474 C475 1.370 . S
C474 C478 1.524 . S
C475 C467 1.503 . S
C475 C474 1.370 . S
C475 C476 1.403 . S
C476 C475 1.403 . S
C476 C477 1.404 . S
C476 C479 1.539 . S
C477 C473 1.408 . S
C477 C476 1.404 . S
C477 H489 0.930 . S
C478 C474 1.524 . S
C478 H490 0.956 . S
C478 H491 0.961 . S
C478 H492 0.961 . S
C479 C476 1.539 . S
C479 H493 0.958 . S
C479 H494 0.961 . S
C479 H495 0.960 . S
H480 C464 0.931 . S
H481 C469 0.929 . S
H482 C470 0.960 . S
H483 C470 0.962 . S
H484 C470 0.960 . S
H485 C471 0.961 . S
H486 C471 0.961 . S
H487 C471 0.961 . S
H488 C472 0.931 . S
H489 C477 0.930 . S
H490 C478 0.956 . S
H491 C478 0.961 . S
H492 C478 0.961 . S
H493 C479 0.958 . S
H494 C479 0.961 . S
H495 C479 0.960 . S
C496 C497 1.391 . S
C496 C498 1.394 . S
C496 H512 0.931 . S
C497 C496 1.391 . S
C497 C501 1.376 . S
C498 C496 1.394 . S
C498 C499 1.369 . S
C498 C502 1.531 . S
C499 C498 1.369 . S
C499 C500 1.410 . S
C499 C507 1.503 . S
C500 C499 1.410 . S
C500 C501 1.392 . S
C500 C503 1.511 . S
C501 C497 1.376 . S
C501 C500 1.392 . S
C501 H513 0.929 . S
C502 C498 1.531 . S
C502 H514 0.960 . S
C502 H515 0.962 1_565 S
C502 H516 0.960 . S
C503 C500 1.511 . S
C503 H517 0.961 . S
C503 H518 0.961 . S
C503 H519 0.961 . S
C504 C505 1.370 1_545 S
C504 C506 1.363 . S
C504 H520 0.931 . S
C505 C504 1.370 1_565 S
C505 C509 1.408 . S
C506 C504 1.363 . S
C506 C507 1.370 1_545 S
C506 C510 1.524 . S
C507 C499 1.503 . S
C507 C506 1.370 1_565 S
C507 C508 1.403 . S
C508 C507 1.403 . S
C508 C509 1.404 . S
C508 C511 1.539 . S
C509 C505 1.408 . S
C509 C508 1.404 . S
C509 H521 0.930 . S
C510 C506 1.524 . S
C510 H522 0.956 . S
C510 H523 0.961 . S
C510 H524 0.961 . S
C511 C508 1.539 . S
C511 H525 0.958 . S
C511 H526 0.961 . S
C511 H527 0.960 . S
H512 C496 0.931 . S
H513 C501 0.929 . S
H514 C502 0.960 . S
H515 C502 0.962 1_545 S
H516 C502 0.960 . S
H517 C503 0.961 . S
H518 C503 0.961 . S
H519 C503 0.961 . S
H520 C504 0.931 . S
H521 C509 0.930 . S
H522 C510 0.956 . S
H523 C510 0.961 . S
H524 C510 0.961 . S
H525 C511 0.958 . S
H526 C511 0.961 . S
H527 C511 0.960 . S
C528 C529 1.391 . S
C528 C530 1.394 . S
C528 H544 0.931 . S
C529 C528 1.391 . S
C529 C533 1.376 . S
C530 C528 1.394 . S
C530 C531 1.369 . S
C530 C534 1.531 . S
C531 C530 1.369 . S
C531 C532 1.410 . S
C531 C539 1.503 . S
C532 C531 1.410 . S
C532 C533 1.392 . S
C532 C535 1.511 . S
C533 C529 1.376 . S
C533 C532 1.392 . S
C533 H545 0.929 . S
C534 C530 1.531 . S
C534 H546 0.960 . S
C534 H547 0.962 . S
C534 H548 0.960 . S
C535 C532 1.511 . S
C535 H549 0.961 . S
C535 H550 0.961 . S
C535 H551 0.961 . S
C536 C537 1.370 . S
C536 C538 1.363 . S
C536 H552 0.931 . S
C537 C536 1.370 . S
C537 C541 1.408 . S
C538 C536 1.363 . S
C538 C539 1.370 . S
C538 C542 1.524 . S
C539 C531 1.503 . S
C539 C538 1.370 . S
C539 C540 1.403 . S
C540 C539 1.403 . S
C540 C541 1.404 . S
C540 C543 1.539 . S
C541 C537 1.408 . S
C541 C540 1.404 . S
C541 H553 0.930 . S
C542 C538 1.524 . S
C542 H554 0.956 . S
C542 H555 0.961 . S
C542 H556 0.961 . S
C543 C540 1.539 . S
C543 H557 0.958 . S
C543 H558 0.961 . S
C543 H559 0.960 . S
H544 C528 0.931 . S
H545 C533 0.929 . S
H546 C534 0.960 . S
H547 C534 0.962 . S
H548 C534 0.960 . S
H549 C535 0.961 . S
H550 C535 0.961 . S
H551 C535 0.961 . S
H552 C536 0.931 . S
H553 C541 0.930 . S
H554 C542 0.956 . S
H555 C542 0.961 . S
H556 C542 0.961 . S
H557 C543 0.958 . S
H558 C543 0.961 . S
H559 C543 0.960 . S
C560 C561 1.391 . S
C560 C562 1.394 . S
C560 H576 0.931 . S
C561 C560 1.391 . S
C561 C565 1.376 . S
C562 C560 1.394 . S
C562 C563 1.369 . S
C562 C566 1.531 . S
C563 C562 1.369 . S
C563 C564 1.410 . S
C563 C571 1.503 . S
C564 C563 1.410 . S
C564 C565 1.392 . S
C564 C567 1.511 . S
C565 C561 1.376 . S
C565 C564 1.392 . S
C565 H577 0.929 . S
C566 C562 1.531 . S
C566 H578 0.960 . S
C566 H579 0.962 . S
C566 H580 0.960 . S
C567 C564 1.511 . S
C567 H581 0.961 . S
C567 H582 0.961 . S
C567 H583 0.961 . S
C568 C569 1.370 . S
C568 C570 1.363 . S
C568 H584 0.931 . S
C569 C568 1.370 . S
C569 C573 1.408 . S
C570 C568 1.363 . S
C570 C571 1.370 . S
C570 C574 1.524 . S
C571 C563 1.503 . S
C571 C570 1.370 . S
C571 C572 1.403 . S
C572 C571 1.403 . S
C572 C573 1.404 . S
C572 C575 1.539 . S
C573 C569 1.408 . S
C573 C572 1.404 . S
C573 H585 0.930 . S
C574 C570 1.524 . S
C574 H586 0.956 . S
C574 H587 0.961 . S
C574 H588 0.961 . S
C575 C572 1.539 . S
C575 H589 0.958 . S
C575 H590 0.961 . S
C575 H591 0.960 . S
H576 C560 0.931 . S
H577 C565 0.929 . S
H578 C566 0.960 . S
H579 C566 0.962 . S
H580 C566 0.960 . S
H581 C567 0.961 . S
H582 C567 0.961 . S
H583 C567 0.961 . S
H584 C568 0.931 . S
H585 C573 0.930 . S
H586 C574 0.956 . S
H587 C574 0.961 . S
H588 C574 0.961 . S
H589 C575 0.958 . S
H590 C575 0.961 . S
H591 C575 0.960 . S
C592 C593 1.391 . S
C592 C594 1.394 . S
C592 H608 0.931 . S
C593 C592 1.391 . S
C593 C597 1.376 . S
C594 C592 1.394 . S
C594 C595 1.369 . S
C594 C598 1.531 . S
C595 C594 1.369 . S
C595 C596 1.410 1_554 S
C595 C603 1.503 1_554 S
C596 C595 1.410 1_556 S
C596 C597 1.392 1_556 S
C596 C599 1.511 1_655 S
C597 C593 1.376 . S
C597 C596 1.392 1_554 S
C597 H609 0.929 . S
C598 C594 1.531 . S
C598 H610 0.960 . S
C598 H611 0.962 . S
C598 H612 0.960 . S
C599 C596 1.511 1_455 S
C599 H613 0.961 . S
C599 H614 0.961 . S
C599 H615 0.961 . S
C600 C601 1.370 1_655 S
C600 C602 1.363 . S
C600 H616 0.931 . S
C601 C600 1.370 1_455 S
C601 C605 1.408 . S
C602 C600 1.363 . S
C602 C603 1.370 . S
C602 C606 1.524 . S
C603 C595 1.503 1_556 S
C603 C602 1.370 . S
C603 C604 1.403 1_656 S
C604 C603 1.403 1_454 S
C604 C605 1.404 1_554 S
C604 C607 1.539 . S
C605 C601 1.408 . S
C605 C604 1.404 1_556 S
C605 H617 0.930 . S
C606 C602 1.524 . S
C606 H618 0.956 . S
C606 H619 0.961 . S
C606 H620 0.961 . S
C607 C604 1.539 . S
C607 H621 0.958 . S
C607 H622 0.961 . S
C607 H623 0.960 . S
H608 C592 0.931 . S
H609 C597 0.929 . S
H610 C598 0.960 . S
H611 C598 0.962 . S
H612 C598 0.960 . S
H613 C599 0.961 . S
H614 C599 0.961 . S
H615 C599 0.961 . S
H616 C600 0.931 . S
H617 C605 0.930 . S
H618 C606 0.956 . S
H619 C606 0.961 . S
H620 C606 0.961 . S
H621 C607 0.958 . S
H622 C607 0.961 . S
H623 C607 0.960 . S
C624 C625 1.403 1_556 S
C624 C626 1.394 . S
C624 H640 0.931 . S
C625 C624 1.403 1_554 S
C625 C629 1.364 1_565 S
C626 C624 1.394 . S
C626 C627 1.369 1_565 S
C626 C630 1.531 . S
C627 C626 1.369 1_545 S
C627 C628 1.410 . S
C627 C635 1.503 . S
C628 C627 1.410 . S
C628 C629 1.392 1_556 S
C628 C631 1.511 . S
C629 C625 1.364 1_545 S
C629 C628 1.392 1_554 S
C629 H641 0.929 . S
C630 C626 1.531 . S
C630 H642 0.960 . S
C630 H643 0.962 . S
C630 H644 0.960 . S
C631 C628 1.511 . S
C631 H645 0.961 . S
C631 H646 0.961 . S
C631 H647 0.961 1_556 S
C632 C633 1.370 . S
C632 C634 1.363 . S
C632 H648 0.931 . S
C633 C632 1.370 . S
C633 C637 1.413 . S
C634 C632 1.363 . S
C634 C635 1.370 . S
C634 C638 1.524 . S
C635 C627 1.503 . S
C635 C634 1.370 . S
C635 C636 1.403 1_545 S
C636 C635 1.403 1_565 S
C636 C637 1.402 1_565 S
C636 C639 1.539 1_556 S
C637 C633 1.413 . S
C637 C636 1.402 1_545 S
C637 H649 0.929 1_546 S
C638 C634 1.524 . S
C638 H650 0.956 1_545 S
C638 H651 0.961 . S
C638 H652 0.961 . S
C639 C636 1.539 1_554 S
C639 H653 0.958 . S
C639 H654 0.942 1_565 S
C639 H655 0.960 1_565 S
H640 C624 0.931 . S
H641 C629 0.929 . S
H642 C630 0.960 . S
H643 C630 0.962 . S
H644 C630 0.960 . S
H645 C631 0.961 . S
H646 C631 0.961 . S
H647 C631 0.961 1_554 S
H648 C632 0.931 . S
H649 C637 0.929 1_564 S
H650 C638 0.956 1_565 S
H651 C638 0.961 . S
H652 C638 0.961 . S
H653 C639 0.958 . S
H654 C639 0.942 1_545 S
H655 C639 0.960 1_545 S
C656 C657 1.391 . S
C656 C658 1.394 . S
C656 H672 0.931 . S
C657 C656 1.391 . S
C657 C661 1.376 1_554 S
C658 C656 1.394 . S
C658 C659 1.369 . S
C658 C662 1.531 . S
C659 C658 1.369 . S
C659 C660 1.410 1_554 S
C659 C667 1.503 1_554 S
C660 C659 1.410 1_556 S
C660 C661 1.392 . S
C660 C663 1.511 . S
C661 C657 1.376 1_556 S
C661 C660 1.392 . S
C661 H673 0.929 . S
C662 C658 1.531 . S
C662 H674 0.960 . S
C662 H675 0.962 . S
C662 H676 0.960 . S
C663 C660 1.511 . S
C663 H677 0.961 . S
C663 H678 0.961 . S
C663 H679 0.961 . S
C664 C665 1.370 . S
C664 C666 1.363 . S
C664 H680 0.931 . S
C665 C664 1.370 . S
C665 C669 1.408 . S
C666 C664 1.363 . S
C666 C667 1.370 . S
C666 C670 1.524 . S
C667 C659 1.503 1_556 S
C667 C666 1.370 . S
C667 C668 1.403 . S
C668 C667 1.403 . S
C668 C669 1.404 . S
C668 C671 1.539 . S
C669 C665 1.408 . S
C669 C668 1.404 . S
C669 H681 0.930 . S
C670 C666 1.524 . S
C670 H682 0.956 1_556 S
C670 H683 0.961 . S
C670 H684 0.961 . S
C671 C668 1.539 . S
C671 H685 0.958 1_556 S
C671 H686 0.961 . S
C671 H687 0.960 . S
H672 C656 0.931 . S
H673 C661 0.929 . S
H674 C662 0.960 . S
H675 C662 0.962 . S
H676 C662 0.960 . S
H677 C663 0.961 . S
H678 C663 0.961 . S
H679 C663 0.961 . S
H680 C664 0.931 . S
H681 C669 0.930 . S
H682 C670 0.956 1_554 S
H683 C670 0.961 . S
H684 C670 0.961 . S
H685 C671 0.958 1_554 S
H686 C671 0.961 . S
H687 C671 0.960 . S
C688 C689 1.391 . S
C688 C690 1.394 . S
C688 H704 0.931 . S
C689 C688 1.391 . S
C689 C693 1.376 . S
C690 C688 1.394 . S
C690 C691 1.369 . S
C690 C694 1.531 1_554 S
C691 C690 1.369 . S
C691 C692 1.410 . S
C691 C699 1.503 1_554 S
C692 C691 1.410 . S
C692 C693 1.392 . S
C692 C695 1.511 . S
C693 C689 1.376 . S
C693 C692 1.392 . S
C693 H705 0.929 . S
C694 C690 1.531 1_556 S
C694 H706 0.960 . S
C694 H707 0.962 . S
C694 H708 0.960 . S
C695 C692 1.511 . S
C695 H709 0.961 . S
C695 H710 0.961 . S
C695 H711 0.961 . S
C696 C697 1.370 . S
C696 C698 1.365 . S
C696 H712 0.931 . S
C697 C696 1.370 . S
C697 C701 1.408 . S
C698 C696 1.365 . S
C698 C699 1.371 . S
C698 C702 1.522 1_556 S
C699 C691 1.503 1_556 S
C699 C698 1.371 . S
C699 C700 1.403 . S
C700 C699 1.403 . S
C700 C701 1.404 . S
C700 C703 1.539 . S
C701 C697 1.408 . S
C701 C700 1.404 . S
C701 H713 0.930 . S
C702 C698 1.522 1_554 S
C702 H714 0.956 . S
C702 H715 0.961 . S
C702 H716 0.961 . S
C703 C700 1.539 . S
C703 H717 0.958 . S
C703 H718 0.961 . S
C703 H719 0.960 . S
H704 C688 0.931 . S
H705 C693 0.929 . S
H706 C694 0.960 . S
H707 C694 0.962 . S
H708 C694 0.960 . S
H709 C695 0.961 . S
H710 C695 0.961 . S
H711 C695 0.961 . S
H712 C696 0.931 . S
H713 C701 0.930 . S
H714 C702 0.956 . S
H715 C702 0.961 . S
H716 C702 0.961 . S
H717 C703 0.958 . S
H718 C703 0.961 . S
H719 C703 0.960 . S
C720 C721 1.391 . S
C720 C722 1.394 . S
C720 H736 0.931 . S
C721 C720 1.391 . S
C721 C725 1.376 . S
C722 C720 1.394 . S
C722 C723 1.369 . S
C722 C726 1.531 . S
C723 C722 1.369 . S
C723 C724 1.410 . S
C723 C731 1.503 . S
C724 C723 1.410 . S
C724 C725 1.392 . S
C724 C727 1.511 . S
C725 C721 1.376 . S
C725 C724 1.392 . S
C725 H737 0.929 . S
C726 C722 1.531 . S
C726 H738 0.960 . S
C726 H739 0.962 . S
C726 H740 0.960 . S
C727 C724 1.511 . S
C727 H741 0.961 . S
C727 H742 0.961 . S
C727 H743 0.961 . S
C728 C729 1.370 . S
C728 C730 1.363 . S
C728 H744 0.931 . S
C729 C728 1.370 . S
C729 C733 1.408 . S
C730 C728 1.363 . S
C730 C731 1.370 . S
C730 C734 1.524 . S
C731 C723 1.503 . S
C731 C730 1.370 . S
C731 C732 1.403 . S
C732 C731 1.403 . S
C732 C733 1.404 . S
C732 C735 1.539 . S
C733 C729 1.408 . S
C733 C732 1.404 . S
C733 H745 0.930 . S
C734 C730 1.524 . S
C734 H746 0.956 . S
C734 H747 0.961 . S
C734 H748 0.961 . S
C735 C732 1.539 . S
C735 H749 0.958 . S
C735 H750 0.961 . S
C735 H751 0.960 . S
H736 C720 0.931 . S
H737 C725 0.929 . S
H738 C726 0.960 . S
H739 C726 0.962 . S
H740 C726 0.960 . S
H741 C727 0.961 . S
H742 C727 0.961 . S
H743 C727 0.961 . S
H744 C728 0.931 . S
H745 C733 0.930 . S
H746 C734 0.956 . S
H747 C734 0.961 . S
H748 C734 0.961 . S
H749 C735 0.958 . S
H750 C735 0.961 . S
H751 C735 0.960 . S
C752 C753 1.391 . S
C752 C754 1.394 . S
C752 H768 0.931 . S
C753 C752 1.391 . S
C753 C757 1.376 1_545 S
C754 C752 1.394 . S
C754 C755 1.369 . S
C754 C758 1.531 . S
C755 C754 1.369 . S
C755 C756 1.410 1_545 S
C755 C763 1.503 . S
C756 C755 1.410 1_565 S
C756 C757 1.392 . S
C756 C759 1.511 . S
C757 C753 1.376 1_565 S
C757 C756 1.392 . S
C757 H769 0.929 . S
C758 C754 1.531 . S
C758 H770 0.960 . S
C758 H771 0.962 . S
C758 H772 0.960 . S
C759 C756 1.511 . S
C759 H773 0.961 . S
C759 H774 0.961 . S
C759 H775 0.961 . S
C760 C761 1.370 1_565 S
C760 C762 1.363 . S
C760 H776 0.931 . S
C761 C760 1.370 1_545 S
C761 C765 1.408 . S
C762 C760 1.363 . S
C762 C763 1.370 1_565 S
C762 C766 1.524 . S
C763 C755 1.503 . S
C763 C762 1.370 1_545 S
C763 C764 1.403 . S
C764 C763 1.403 . S
C764 C765 1.404 . S
C764 C767 1.539 . S
C765 C761 1.408 . S
C765 C764 1.404 . S
C765 H777 0.930 . S
C766 C762 1.524 . S
C766 H778 0.956 . S
C766 H779 0.961 . S
C766 H780 0.961 . S
C767 C764 1.539 . S
C767 H781 0.958 . S
C767 H782 0.961 . S
C767 H783 0.960 . S
H768 C752 0.931 . S
H769 C757 0.929 . S
H770 C758 0.960 . S
H771 C758 0.962 . S
H772 C758 0.960 . S
H773 C759 0.961 . S
H774 C759 0.961 . S
H775 C759 0.961 . S
H776 C760 0.931 . S
H777 C765 0.930 . S
H778 C766 0.956 . S
H779 C766 0.961 . S
H780 C766 0.961 . S
H781 C767 0.958 . S
H782 C767 0.961 . S
H783 C767 0.960 . S
C784 C785 1.391 . S
C784 C786 1.394 . S
C784 H800 0.931 . S
C785 C784 1.391 . S
C785 C789 1.376 . S
C786 C784 1.394 . S
C786 C787 1.369 . S
C786 C790 1.531 . S
C787 C786 1.369 . S
C787 C788 1.410 . S
C787 C795 1.503 . S
C788 C787 1.410 . S
C788 C789 1.392 . S
C788 C791 1.511 . S
C789 C785 1.376 . S
C789 C788 1.392 . S
C789 H801 0.929 . S
C790 C786 1.531 . S
C790 H802 0.960 . S
C790 H803 0.962 . S
C790 H804 0.960 . S
C791 C788 1.511 . S
C791 H805 0.961 . S
C791 H806 0.961 . S
C791 H807 0.961 . S
C792 C793 1.370 1_554 S
C792 C794 1.363 . S
C792 H808 0.931 . S
C793 C792 1.370 1_556 S
C793 C797 1.408 . S
C794 C792 1.363 . S
C794 C795 1.370 . S
C794 C798 1.524 . S
C795 C787 1.503 . S
C795 C794 1.370 . S
C795 C796 1.403 . S
C796 C795 1.403 . S
C796 C797 1.404 1_554 S
C796 C799 1.539 . S
C797 C793 1.408 . S
C797 C796 1.404 1_556 S
C797 H809 0.930 . S
C798 C794 1.524 . S
C798 H810 0.956 . S
C798 H811 0.961 . S
C798 H812 0.961 . S
C799 C796 1.539 . S
C799 H813 0.955 1_554 S
C799 H814 0.961 1_554 S
C799 H815 0.960 . S
H800 C784 0.931 . S
H801 C789 0.929 . S
H802 C790 0.960 . S
H803 C790 0.962 . S
H804 C790 0.960 . S
H805 C791 0.961 . S
H806 C791 0.961 . S
H807 C791 0.961 . S
H808 C792 0.931 . S
H809 C797 0.930 . S
H810 C798 0.956 . S
H811 C798 0.961 . S
H812 C798 0.961 . S
H813 C799 0.955 1_556 S
H814 C799 0.961 1_556 S
H815 C799 0.960 . S
C816 C817 1.391 . S
C816 C818 1.394 . S
C816 H832 0.931 . S
C817 C816 1.391 . S
C817 C821 1.376 . S
C818 C816 1.394 . S
C818 C819 1.369 . S
C818 C822 1.531 . S
C819 C818 1.369 . S
C819 C820 1.410 . S
C819 C827 1.503 . S
C820 C819 1.410 . S
C820 C821 1.392 . S
C820 C823 1.511 . S
C821 C817 1.376 . S
C821 C820 1.392 . S
C821 H833 0.929 . S
C822 C818 1.531 . S
C822 H834 0.960 . S
C822 H835 0.962 . S
C822 H836 0.960 . S
C823 C820 1.511 . S
C823 H837 0.961 . S
C823 H838 0.961 . S
C823 H839 0.961 . S
C824 C825 1.370 . S
C824 C826 1.363 1_556 S
C824 H840 0.931 . S
C825 C824 1.370 . S
C825 C829 1.408 1_556 S
C826 C824 1.363 1_554 S
C826 C827 1.370 . S
C826 C830 1.524 . S
C827 C819 1.503 . S
C827 C826 1.370 . S
C827 C828 1.403 . S
C828 C827 1.403 . S
C828 C829 1.404 . S
C828 C831 1.539 . S
C829 C825 1.408 1_554 S
C829 C828 1.404 . S
C829 H841 0.930 . S
C830 C826 1.524 . S
C830 H842 0.956 . S
C830 H843 0.961 . S
C830 H844 0.961 1_554 S
C831 C828 1.539 . S
C831 H845 0.958 . S
C831 H846 0.961 . S
C831 H847 0.960 . S
H832 C816 0.931 . S
H833 C821 0.929 . S
H834 C822 0.960 . S
H835 C822 0.962 . S
H836 C822 0.960 . S
H837 C823 0.961 . S
H838 C823 0.961 . S
H839 C823 0.961 . S
H840 C824 0.931 . S
H841 C829 0.930 . S
H842 C830 0.956 . S
H843 C830 0.961 . S
H844 C830 0.961 1_556 S
H845 C831 0.958 . S
H846 C831 0.961 . S
H847 C831 0.960 . S
C848 C849 1.391 . S
C848 C850 1.394 . S
C848 H864 0.931 . S
C849 C848 1.391 . S
C849 C853 1.376 . S
C850 C848 1.394 . S
C850 C851 1.369 . S
C850 C854 1.531 . S
C851 C850 1.369 . S
C851 C852 1.410 . S
C851 C859 1.503 . S
C852 C851 1.410 . S
C852 C853 1.392 . S
C852 C855 1.511 1_655 S
C853 C849 1.376 . S
C853 C852 1.392 . S
C853 H865 0.929 . S
C854 C850 1.531 . S
C854 H866 0.960 . S
C854 H867 0.962 . S
C854 H868 0.960 . S
C855 C852 1.511 1_455 S
C855 H869 0.961 . S
C855 H870 0.961 . S
C855 H871 0.961 . S
C856 C857 1.370 . S
C856 C858 1.363 . S
C856 H872 0.931 . S
C857 C856 1.370 . S
C857 C861 1.408 . S
C858 C856 1.363 . S
C858 C859 1.370 . S
C858 C862 1.524 . S
C859 C851 1.503 . S
C859 C858 1.370 . S
C859 C860 1.403 . S
C860 C859 1.403 . S
C860 C861 1.404 . S
C860 C863 1.539 . S
C861 C857 1.408 . S
C861 C860 1.404 . S
C861 H873 0.930 . S
C862 C858 1.524 . S
C862 H874 0.956 . S
C862 H875 0.961 . S
C862 H876 0.961 . S
C863 C860 1.539 . S
C863 H877 0.958 . S
C863 H878 0.961 . S
C863 H879 0.960 . S
H864 C848 0.931 . S
H865 C853 0.929 . S
H866 C854 0.960 . S
H867 C854 0.962 . S
H868 C854 0.960 . S
H869 C855 0.961 . S
H870 C855 0.961 . S
H871 C855 0.961 . S
H872 C856 0.931 . S
H873 C861 0.930 . S
H874 C862 0.956 . S
H875 C862 0.961 . S
H876 C862 0.961 . S
H877 C863 0.958 . S
H878 C863 0.961 . S
H879 C863 0.960 . S
C880 C881 1.402 . S
C880 C882 1.394 . S
C880 H896 0.931 . S
C881 C880 1.402 . S
C881 C885 1.367 1_545 S
C882 C880 1.394 . S
C882 C883 1.337 1_545 S
C882 C886 1.531 . S
C883 C882 1.337 1_565 S
C883 C884 1.445 . S
C883 C891 1.503 . S
C884 C883 1.445 . S
C884 C885 1.392 . S
C884 C887 1.511 . S
C885 C881 1.367 1_565 S
C885 C884 1.392 . S
C885 H897 0.929 . S
C886 C882 1.531 . S
C886 H898 0.960 . S
C886 H899 0.962 . S
C886 H900 0.960 . S
C887 C884 1.511 . S
C887 H901 0.961 . S
C887 H902 0.961 . S
C887 H903 0.961 . S
C888 C889 1.370 . S
C888 C890 1.363 . S
C888 H904 0.931 . S
C889 C888 1.370 . S
C889 C893 1.408 1_565 S
C890 C888 1.363 . S
C890 C891 1.370 . S
C890 C894 1.524 . S
C891 C883 1.503 . S
C891 C890 1.370 . S
C891 C892 1.403 1_565 S
C892 C891 1.403 1_545 S
C892 C893 1.404 . S
C892 C895 1.539 . S
C893 C889 1.408 1_545 S
C893 C892 1.404 . S
C893 H905 0.930 . S
C894 C890 1.524 . S
C894 H906 0.956 . S
C894 H907 0.961 . S
C894 H908 0.961 . S
C895 C892 1.539 . S
C895 H909 0.958 . S
C895 H910 0.961 . S
C895 H911 0.960 . S
H896 C880 0.931 . S
H897 C885 0.929 . S
H898 C886 0.960 . S
H899 C886 0.962 . S
H900 C886 0.960 . S
H901 C887 0.961 . S
H902 C887 0.961 . S
H903 C887 0.961 . S
H904 C888 0.931 . S
H905 C893 0.930 . S
H906 C894 0.956 . S
H907 C894 0.961 . S
H908 C894 0.961 . S
H909 C895 0.958 . S
H910 C895 0.961 . S
H911 C895 0.960 . S
C912 C913 1.391 . S
C912 C914 1.394 . S
C912 H928 0.931 . S
C913 C912 1.391 . S
C913 C917 1.376 . S
C914 C912 1.394 . S
C914 C915 1.369 . S
C914 C918 1.531 . S
C915 C914 1.369 . S
C915 C916 1.410 . S
C915 C923 1.503 . S
C916 C915 1.410 . S
C916 C917 1.392 . S
C916 C919 1.511 . S
C917 C913 1.376 . S
C917 C916 1.392 . S
C917 H929 0.929 . S
C918 C914 1.531 . S
C918 H930 0.960 . S
C918 H931 0.962 . S
C918 H932 0.960 . S
C919 C916 1.511 . S
C919 H933 0.961 . S
C919 H934 0.961 . S
C919 H935 0.961 . S
C920 C921 1.370 . S
C920 C922 1.363 . S
C920 H936 0.931 . S
C921 C920 1.370 . S
C921 C925 1.408 . S
C922 C920 1.363 . S
C922 C923 1.370 . S
C922 C926 1.524 . S
C923 C915 1.503 . S
C923 C922 1.370 . S
C923 C924 1.403 . S
C924 C923 1.403 . S
C924 C925 1.404 . S
C924 C927 1.539 . S
C925 C921 1.408 . S
C925 C924 1.404 . S
C925 H937 0.930 . S
C926 C922 1.524 . S
C926 H938 0.956 . S
C926 H939 0.961 . S
C926 H940 0.961 . S
C927 C924 1.539 . S
C927 H941 0.958 . S
C927 H942 0.961 . S
C927 H943 0.960 . S
H928 C912 0.931 . S
H929 C917 0.929 . S
H930 C918 0.960 . S
H931 C918 0.962 . S
H932 C918 0.960 . S
H933 C919 0.961 . S
H934 C919 0.961 . S
H935 C919 0.961 . S
H936 C920 0.931 . S
H937 C925 0.930 . S
H938 C926 0.956 . S
H939 C926 0.961 . S
H940 C926 0.961 . S
H941 C927 0.958 . S
H942 C927 0.961 . S
H943 C927 0.960 . S
C944 C945 1.391 . S
C944 C946 1.394 . S
C944 H960 0.931 . S
C945 C944 1.391 . S
C945 C949 1.376 . S
C946 C944 1.394 . S
C946 C947 1.369 . S
C946 C950 1.531 . S
C947 C946 1.369 . S
C947 C948 1.410 . S
C947 C955 1.503 . S
C948 C947 1.410 . S
C948 C949 1.392 . S
C948 C951 1.511 . S
C949 C945 1.376 . S
C949 C948 1.392 . S
C949 H961 0.929 . S
C950 C946 1.531 . S
C950 H962 0.960 . S
C950 H963 0.962 . S
C950 H964 0.960 . S
C951 C948 1.511 . S
C951 H965 0.961 . S
C951 H966 0.961 . S
C951 H967 0.961 . S
C952 C953 1.370 . S
C952 C954 1.363 . S
C952 H968 0.931 . S
C953 C952 1.370 . S
C953 C957 1.408 . S
C954 C952 1.363 . S
C954 C955 1.370 . S
C954 C958 1.524 . S
C955 C947 1.503 . S
C955 C954 1.370 . S
C955 C956 1.403 . S
C956 C955 1.403 . S
C956 C957 1.404 . S
C956 C959 1.539 . S
C957 C953 1.408 . S
C957 C956 1.404 . S
C957 H969 0.930 . S
C958 C954 1.524 . S
C958 H970 0.956 . S
C958 H971 0.961 . S
C958 H972 0.961 . S
C959 C956 1.539 . S
C959 H973 0.958 . S
C959 H974 0.961 . S
C959 H975 0.960 . S
H960 C944 0.931 . S
H961 C949 0.929 . S
H962 C950 0.960 . S
H963 C950 0.962 . S
H964 C950 0.960 . S
H965 C951 0.961 . S
H966 C951 0.961 . S
H967 C951 0.961 . S
H968 C952 0.931 . S
H969 C957 0.930 . S
H970 C958 0.956 . S
H971 C958 0.961 . S
H972 C958 0.961 . S
H973 C959 0.958 . S
H974 C959 0.961 . S
H975 C959 0.960 . S
C209 C74 1.622 1_565 S
C217 C98 1.637 . S
C249 C128 1.782 . S
C241 C85 1.779 . S
C281 N162 1.344 . S
C273 C52 1.373 . S
C313 N192 1.436 . S
C305 C63 1.436 . S
C345 C89 1.638 . S
C337 C30 1.616 . S
C369 C41 1.722 . S
C377 C119 1.789 . S
C401 C8 1.364 . S
C409 N154 1.327 . S
C433 C19 1.439 . S
C441 N184 1.421 1_655 S
C473 C104 0.482 . S
C465 C62 0.437 . S
C505 C134 0.792 . S
C497 C73 0.813 1_565 S
C537 C175 1.077 . S
C529 C84 1.089 . S
C561 C51 0.627 . S
C569 C205 0.593 . S
C593 C18 0.516 . S
C601 C115 0.508 . S
C633 C145 0.790 . S
C625 C29 0.776 1_565 S
C665 C164 1.088 . S
C657 C40 0.996 . S
C689 C7 0.670 . S
C697 C194 0.565 . S
C721 C60 1.328 . S
C729 N94 1.485 . S
C753 C71 1.122 . S
C761 N124 1.415 . S
C793 C149 1.651 . S
C785 C82 1.467 . S
C825 C179 1.575 . S
C817 C49 1.280 . S
C849 C16 1.216 . S
C857 N102 1.483 . S
C889 N132 1.402 . S
C881 C27 1.184 . S
C921 C158 1.652 . S
C913 C38 1.335 . S
C945 C5 1.259 . S
C953 C188 1.575 . S
