# Generated by pormake.
# Topology iac, (4,6)-cn, num edge types: 1
# Building blocks:
#     Node 0, Type 0, BuildingBlock: QUQFOY_clean_sbu_3, # of connection points: 4
#     Node 1, Type 0, BuildingBlock: QUQFOY_clean_sbu_3, # of connection points: 4
#     Node 2, Type 0, BuildingBlock: QUQFOY_clean_sbu_3, # of connection points: 4
#     Node 3, Type 0, BuildingBlock: QUQFOY_clean_sbu_3, # of connection points: 4
#     Node 4, Type 0, BuildingBlock: QUQFOY_clean_sbu_3, # of connection points: 4
#     Node 5, Type 0, BuildingBlock: QUQFOY_clean_sbu_3, # of connection points: 4
#     Node 6, Type 0, BuildingBlock: QUQFOY_clean_sbu_3, # of connection points: 4
#     Node 7, Type 0, BuildingBlock: QUQFOY_clean_sbu_3, # of connection points: 4
#     Node 8, Type 0, BuildingBlock: QUQFOY_clean_sbu_3, # of connection points: 4
#     Node 9, Type 0, BuildingBlock: QUQFOY_clean_sbu_3, # of connection points: 4
#     Node 10, Type 0, BuildingBlock: QUQFOY_clean_sbu_3, # of connection points: 4
#     Node 11, Type 0, BuildingBlock: QUQFOY_clean_sbu_3, # of connection points: 4
#     Node 12, Type 0, BuildingBlock: QUQFOY_clean_sbu_3, # of connection points: 4
#     Node 13, Type 0, BuildingBlock: QUQFOY_clean_sbu_3, # of connection points: 4
#     Node 14, Type 0, BuildingBlock: QUQFOY_clean_sbu_3, # of connection points: 4
#     Node 15, Type 0, BuildingBlock: QUQFOY_clean_sbu_3, # of connection points: 4
#     Node 16, Type 0, BuildingBlock: QUQFOY_clean_sbu_3, # of connection points: 4
#     Node 17, Type 0, BuildingBlock: QUQFOY_clean_sbu_3, # of connection points: 4
#     Node 18, Type 0, BuildingBlock: QUQFOY_clean_sbu_3, # of connection points: 4
#     Node 19, Type 0, BuildingBlock: QUQFOY_clean_sbu_3, # of connection points: 4
#     Node 20, Type 0, BuildingBlock: QUQFOY_clean_sbu_3, # of connection points: 4
#     Node 21, Type 0, BuildingBlock: QUQFOY_clean_sbu_3, # of connection points: 4
#     Node 22, Type 0, BuildingBlock: QUQFOY_clean_sbu_3, # of connection points: 4
#     Node 23, Type 0, BuildingBlock: QUQFOY_clean_sbu_3, # of connection points: 4
#     Node 24, Type 1, BuildingBlock: JUFBIX_clean_sbu_0, # of connection points: 6
#     Node 25, Type 1, BuildingBlock: JUFBIX_clean_sbu_0, # of connection points: 6
#     Node 26, Type 1, BuildingBlock: JUFBIX_clean_sbu_0, # of connection points: 6
#     Node 27, Type 1, BuildingBlock: JUFBIX_clean_sbu_0, # of connection points: 6
#     Node 28, Type 1, BuildingBlock: JUFBIX_clean_sbu_0, # of connection points: 6
#     Node 29, Type 1, BuildingBlock: JUFBIX_clean_sbu_0, # of connection points: 6
#     Node 30, Type 1, BuildingBlock: JUFBIX_clean_sbu_0, # of connection points: 6
#     Node 31, Type 1, BuildingBlock: JUFBIX_clean_sbu_0, # of connection points: 6
#     Node 32, Type 1, BuildingBlock: JUFBIX_clean_sbu_0, # of connection points: 6
#     Node 33, Type 1, BuildingBlock: JUFBIX_clean_sbu_0, # of connection points: 6
#     Node 34, Type 1, BuildingBlock: JUFBIX_clean_sbu_0, # of connection points: 6
#     Node 35, Type 1, BuildingBlock: JUFBIX_clean_sbu_0, # of connection points: 6
#     Node 36, Type 1, BuildingBlock: JUFBIX_clean_sbu_0, # of connection points: 6
#     Node 37, Type 1, BuildingBlock: JUFBIX_clean_sbu_0, # of connection points: 6
#     Node 38, Type 1, BuildingBlock: JUFBIX_clean_sbu_0, # of connection points: 6
#     Node 39, Type 1, BuildingBlock: JUFBIX_clean_sbu_0, # of connection points: 6
#     Edge 40, Type (0, 1), None
#     Edge 41, Type (0, 1), None
#     Edge 42, Type (0, 1), None
#     Edge 43, Type (0, 1), None
#     Edge 44, Type (0, 1), None
#     Edge 45, Type (0, 1), None
#     Edge 46, Type (0, 1), None
#     Edge 47, Type (0, 1), None
#     Edge 48, Type (0, 1), None
#     Edge 49, Type (0, 1), None
#     Edge 50, Type (0, 1), None
#     Edge 51, Type (0, 1), None
#     Edge 52, Type (0, 1), None
#     Edge 53, Type (0, 1), None
#     Edge 54, Type (0, 1), None
#     Edge 55, Type (0, 1), None
#     Edge 56, Type (0, 1), None
#     Edge 57, Type (0, 1), None
#     Edge 58, Type (0, 1), None
#     Edge 59, Type (0, 1), None
#     Edge 60, Type (0, 1), None
#     Edge 61, Type (0, 1), None
#     Edge 62, Type (0, 1), None
#     Edge 63, Type (0, 1), None
#     Edge 64, Type (0, 1), None
#     Edge 65, Type (0, 1), None
#     Edge 66, Type (0, 1), None
#     Edge 67, Type (0, 1), None
#     Edge 68, Type (0, 1), None
#     Edge 69, Type (0, 1), None
#     Edge 70, Type (0, 1), None
#     Edge 71, Type (0, 1), None
#     Edge 72, Type (0, 1), None
#     Edge 73, Type (0, 1), None
#     Edge 74, Type (0, 1), None
#     Edge 75, Type (0, 1), None
#     Edge 76, Type (0, 1), None
#     Edge 77, Type (0, 1), None
#     Edge 78, Type (0, 1), None
#     Edge 79, Type (0, 1), None
#     Edge 80, Type (0, 1), None
#     Edge 81, Type (0, 1), None
#     Edge 82, Type (0, 1), None
#     Edge 83, Type (0, 1), None
#     Edge 84, Type (0, 1), None
#     Edge 85, Type (0, 1), None
#     Edge 86, Type (0, 1), None
#     Edge 87, Type (0, 1), None
#     Edge 88, Type (0, 1), None
#     Edge 89, Type (0, 1), None
#     Edge 90, Type (0, 1), None
#     Edge 91, Type (0, 1), None
#     Edge 92, Type (0, 1), None
#     Edge 93, Type (0, 1), None
#     Edge 94, Type (0, 1), None
#     Edge 95, Type (0, 1), None
#     Edge 96, Type (0, 1), None
#     Edge 97, Type (0, 1), None
#     Edge 98, Type (0, 1), None
#     Edge 99, Type (0, 1), None
#     Edge 100, Type (0, 1), None
#     Edge 101, Type (0, 1), None
#     Edge 102, Type (0, 1), None
#     Edge 103, Type (0, 1), None
#     Edge 104, Type (0, 1), None
#     Edge 105, Type (0, 1), None
#     Edge 106, Type (0, 1), None
#     Edge 107, Type (0, 1), None
#     Edge 108, Type (0, 1), None
#     Edge 109, Type (0, 1), None
#     Edge 110, Type (0, 1), None
#     Edge 111, Type (0, 1), None
#     Edge 112, Type (0, 1), None
#     Edge 113, Type (0, 1), None
#     Edge 114, Type (0, 1), None
#     Edge 115, Type (0, 1), None
#     Edge 116, Type (0, 1), None
#     Edge 117, Type (0, 1), None
#     Edge 118, Type (0, 1), None
#     Edge 119, Type (0, 1), None
#     Edge 120, Type (0, 1), None
#     Edge 121, Type (0, 1), None
#     Edge 122, Type (0, 1), None
#     Edge 123, Type (0, 1), None
#     Edge 124, Type (0, 1), None
#     Edge 125, Type (0, 1), None
#     Edge 126, Type (0, 1), None
#     Edge 127, Type (0, 1), None
#     Edge 128, Type (0, 1), None
#     Edge 129, Type (0, 1), None
#     Edge 130, Type (0, 1), None
#     Edge 131, Type (0, 1), None
#     Edge 132, Type (0, 1), None
#     Edge 133, Type (0, 1), None
#     Edge 134, Type (0, 1), None
#     Edge 135, Type (0, 1), None
# Relax obj value: 0.319
# Max RMSD: 0.266
# Mean RMSD: 0.125
data_MOF--net-iac--node1-QUQFOY_clean_sbu_3--node2-JUFBIX_clean_sbu_0--edge1-none
_symmetry_space_group_name_H-M    P1
_symmetry_Int_Tables_number       1
_symmetry_cell_setting            triclinic
loop_
_symmetry_equiv_pos_as_xyz
'x, y, z'
_cell_length_a     26.035379
_cell_length_b     27.22033
_cell_length_c     27.340683
_cell_angle_alpha  89.575792
_cell_angle_beta   87.911528
_cell_angle_gamma 88.415059
loop_
_atom_site_label
_atom_site_type_symbol
_atom_site_fract_x
_atom_site_fract_y
_atom_site_fract_z
_atom_type_partial_charge
C0 C 0.94031 0.29813 0.24213 0.0
O1 O 0.96443 0.26058 0.25807 0.0
Cd2 Cd 0.05416 0.24432 0.23698 0.0
O3 O 0.9633 0.3274 0.21196 0.0
Cd4 Cd 0.05412 0.32729 0.16485 0.0
C5 C 0.04641 0.19644 0.12443 0.0
O6 O 0.10638 0.31775 0.24751 0.0
O7 O 0.15035 0.3344 0.18252 0.0
O8 O 0.01223 0.41357 0.1442 0.0
C9 C 0.15049 0.32726 0.22847 0.0
O10 O 0.05471 0.18641 0.16894 0.0
C11 C 0.04202 0.42557 0.10849 0.0
O12 O 0.04383 0.24235 0.11132 0.0
O13 O 0.07701 0.3933 0.09818 0.0
C14 C 0.0221 0.85298 0.342 0.0
O15 O 0.06298 0.87464 0.32884 0.0
Cd16 Cd 0.12647 0.84756 0.37858 0.0
O17 O 0.0224 0.81664 0.37217 0.0
Cd18 Cd 0.07481 0.76366 0.42534 0.0
C19 C 0.03486 0.86226 0.47579 0.0
O20 O 0.12604 0.76279 0.35329 0.0
O21 O 0.16477 0.76617 0.42178 0.0
O22 O 0.05237 0.67816 0.43102 0.0
C23 C 0.16688 0.75723 0.37604 0.0
O24 O 0.06565 0.8772 0.44209 0.0
C25 C 0.07454 0.67412 0.47198 0.0
O26 O 0.03311 0.81698 0.48579 0.0
O27 O 0.09209 0.71227 0.49093 0.0
C28 C 0.44031 0.79813 0.74213 0.0
O29 O 0.46443 0.76057 0.75807 0.0
Cd30 Cd 0.55416 0.74432 0.73698 0.0
O31 O 0.46329 0.8274 0.71196 0.0
Cd32 Cd 0.55412 0.82729 0.66485 0.0
C33 C 0.54641 0.69644 0.62443 0.0
O34 O 0.60638 0.81775 0.74751 0.0
O35 O 0.65035 0.8344 0.68252 0.0
O36 O 0.51223 0.91357 0.6442 0.0
C37 C 0.65049 0.82726 0.72847 0.0
O38 O 0.55471 0.68641 0.66894 0.0
C39 C 0.54202 0.92557 0.60849 0.0
O40 O 0.54383 0.74235 0.61132 0.0
O41 O 0.57701 0.89329 0.59818 0.0
C42 C 0.5221 0.35298 0.842 0.0
O43 O 0.56298 0.37464 0.82884 0.0
Cd44 Cd 0.62647 0.34756 0.87857 0.0
O45 O 0.5224 0.31663 0.87217 0.0
Cd46 Cd 0.57481 0.26366 0.92534 0.0
C47 C 0.53486 0.36226 0.97579 0.0
O48 O 0.62604 0.26279 0.85329 0.0
O49 O 0.66477 0.26616 0.92178 0.0
O50 O 0.55237 0.17816 0.93102 0.0
C51 C 0.66689 0.25723 0.87604 0.0
O52 O 0.56565 0.3772 0.94209 0.0
C53 C 0.57454 0.17412 0.97198 0.0
O54 O 0.53311 0.31697 0.98579 0.0
O55 O 0.59209 0.21227 -0.00907 0.0
C56 C 0.09218 0.05513 0.40662 0.0
O57 O 0.06979 0.07773 0.37251 0.0
Cd58 Cd 0.10409 0.07196 0.29277 0.0
O59 O 0.13133 0.0273 0.39885 0.0
Cd60 Cd 0.1826 1.00677 0.32733 0.0
C61 C 0.2159 0.11825 0.32994 0.0
O62 O 0.11319 0.98441 0.27889 0.0
O63 O 0.17309 0.02322 0.23934 0.0
O64 O 0.20193 0.92832 0.3626 0.0
C65 C 0.13286 0.99779 0.23823 0.0
O66 O 0.17896 0.12353 0.30084 0.0
C67 C 0.24538 0.92464 0.34023 0.0
O68 O 0.22527 0.07723 0.34991 0.0
O69 O 0.25987 0.96014 0.31334 0.0
C70 C 0.31213 0.00918 0.52701 0.0
O71 O 0.28097 1.00018 0.49392 0.0
Cd72 Cd 0.21199 0.9535 0.5205 0.0
O73 O 0.30573 0.99085 0.56986 0.0
Cd74 Cd 0.24017 0.9318 0.59452 0.0
C75 C 0.28446 0.85945 0.52076 0.0
O76 O 0.18534 0.99935 0.59503 0.0
O77 O 0.14492 0.93393 0.57715 0.0
O78 O 0.2554 0.92298 0.67795 0.0
C79 C 0.14348 0.97993 0.58596 0.0
O80 O 0.23661 0.86555 0.51431 0.0
C81 C 0.24757 0.87689 0.67867 0.0
O82 O 0.30609 0.89119 0.54515 0.0
O83 O 0.23448 0.85633 0.6397 0.0
C84 C 0.51787 0.01864 0.83395 0.0
O85 O 0.52729 0.9921 0.79664 0.0
Cd86 Cd 0.49162 0.01834 0.72346 0.0
O87 O 0.49466 0.06041 0.83069 0.0
Cd88 Cd 0.4507 0.10796 0.76967 0.0
C89 C 0.3795 0.01535 0.7889 0.0
O90 O 0.51802 0.10179 0.71129 0.0
O91 O 0.44082 0.09481 0.68546 0.0
O92 O 0.44214 0.19482 0.78538 0.0
C93 C 0.48782 0.1039 0.6762 0.0
O94 O 0.40221 1.0018 0.74887 0.0
C95 C 0.39692 0.195 0.76845 0.0
O96 O 0.39265 0.05396 0.80972 0.0
O97 O 0.37762 0.15452 0.75735 0.0
C98 C 0.40418 0.10707 0.05782 0.0
O99 O 0.37992 0.09256 0.09609 0.0
Cd100 Cd 0.29344 0.11868 0.11848 0.0
O101 O 0.38374 0.14007 0.03 0.0
Cd102 Cd 0.29626 0.19256 0.03041 0.0
C103 C 0.30607 0.23573 0.16074 0.0
O104 O 0.24428 0.11129 0.04433 0.0
O105 O 0.19917 0.17625 0.03064 0.0
O106 O 0.29516 0.20225 0.93539 0.0
C107 C 0.19985 0.12987 0.0372 0.0
O108 O 0.29889 0.19091 0.17174 0.0
C109 C 0.30323 0.24789 0.93044 0.0
O110 O 0.3068 0.24811 0.11472 0.0
O111 O 0.30862 0.26964 0.97094 0.0
C112 C 0.81213 0.50919 0.02701 0.0
O113 O 0.78097 0.50019 -0.00607 0.0
Cd114 Cd 0.71199 0.45351 0.0205 0.0
O115 O 0.80572 0.49085 0.06986 0.0
Cd116 Cd 0.74017 0.4318 0.09452 0.0
C117 C 0.78446 0.35945 0.02076 0.0
O118 O 0.68534 0.49935 0.09504 0.0
O119 O 0.64492 0.43393 0.07716 0.0
O120 O 0.7554 0.42298 0.17795 0.0
C121 C 0.64348 0.47993 0.08597 0.0
O122 O 0.73661 0.36555 0.01431 0.0
C123 C 0.74757 0.37689 0.17867 0.0
O124 O 0.80609 0.39119 0.04515 0.0
O125 O 0.73448 0.35633 0.13971 0.0
C126 C 0.01788 0.51864 0.33395 0.0
O127 O 0.02729 0.4921 0.29664 0.0
Cd128 Cd -0.00838 0.51834 0.22346 0.0
O129 O -0.00534 0.56041 0.33069 0.0
Cd130 Cd 0.9507 0.60796 0.26967 0.0
C131 C 0.8795 0.51535 0.2889 0.0
O132 O 0.01802 0.60179 0.21129 0.0
O133 O 0.94082 0.59482 0.18546 0.0
O134 O 0.94214 0.69482 0.28537 0.0
C135 C 0.98782 0.6039 0.1762 0.0
O136 O 0.90221 0.5018 0.24887 0.0
C137 C 0.89692 0.695 0.26845 0.0
O138 O 0.89265 0.55396 0.30972 0.0
O139 O 0.87762 0.65452 0.25735 0.0
C140 C 0.90419 0.60707 0.55782 0.0
O141 O 0.87992 0.59256 0.59609 0.0
Cd142 Cd 0.79345 0.61868 0.61848 0.0
O143 O 0.88374 0.64007 0.53 0.0
Cd144 Cd 0.79626 0.69256 0.53041 0.0
C145 C 0.80607 0.73573 0.66074 0.0
O146 O 0.74428 0.61129 0.54433 0.0
O147 O 0.69917 0.67625 0.53064 0.0
O148 O 0.79516 0.70225 0.43539 0.0
C149 C 0.69986 0.62987 0.5372 0.0
O150 O 0.79889 0.69091 0.67174 0.0
C151 C 0.80323 0.74789 0.43044 0.0
O152 O 0.8068 0.74811 0.61472 0.0
O153 O 0.80862 0.76964 0.47094 0.0
C154 C 0.59218 0.55513 0.90663 0.0
O155 O 0.56979 0.57774 0.87251 0.0
Cd156 Cd 0.60408 0.57197 0.79277 0.0
O157 O 0.63133 0.5273 0.89885 0.0
Cd158 Cd 0.68259 0.50677 0.82733 0.0
C159 C 0.71589 0.61825 0.82994 0.0
O160 O 0.61318 0.48441 0.77889 0.0
O161 O 0.67309 0.52323 0.73934 0.0
O162 O 0.70193 0.42832 0.8626 0.0
C163 C 0.63285 0.4978 0.73823 0.0
O164 O 0.67895 0.62353 0.80084 0.0
C165 C 0.74538 0.42465 0.84023 0.0
O166 O 0.72526 0.57724 0.84992 0.0
O167 O 0.75987 0.46015 0.81334 0.0
C168 C 0.94515 0.82574 0.8365 0.0
O169 O 0.97075 0.86034 0.81708 0.0
Cd170 Cd 0.0547 0.88244 0.84512 0.0
O171 O 0.96319 0.80387 0.87469 0.0
Cd172 Cd 0.0511 0.80845 0.92777 0.0
C173 C 0.06111 0.9415 0.95538 0.0
O174 O 0.10858 0.80844 0.84944 0.0
O175 O 0.14741 0.82041 0.91565 0.0
O176 O 0.0157 0.72132 0.94945 0.0
C177 C 0.15087 0.81517 0.8697 0.0
O178 O 0.06371 0.94662 0.90899 0.0
C179 C 0.04407 0.70877 0.98443 0.0
O180 O 0.05236 0.89804 0.97343 0.0
O181 O 0.07567 0.74158 -0.00487 0.0
C182 C 0.93704 0.31579 0.77426 0.0
O183 O 0.96517 0.28051 0.78928 0.0
Cd184 Cd 0.04846 0.25565 0.76901 0.0
O185 O 0.94984 0.34345 0.73837 0.0
Cd186 Cd 0.02799 0.35591 0.68972 0.0
C187 C 0.06607 0.24567 0.64323 0.0
O188 O 0.06969 0.33752 0.76157 0.0
O189 O 0.12033 0.35041 0.69899 0.0
O190 O 0.03037 0.44192 0.67431 0.0
C191 C 0.1136 0.33244 0.74163 0.0
O192 O 0.06791 0.22654 0.68591 0.0
C193 C 0.01972 0.43796 0.62943 0.0
O194 O 0.04892 0.28922 0.63674 0.0
O195 O 0.0099 0.39579 0.61343 0.0
C196 C 0.44515 0.32574 0.3365 0.0
O197 O 0.47076 0.36034 0.31708 0.0
Cd198 Cd 0.5547 0.38244 0.34512 0.0
O199 O 0.46319 0.30387 0.37469 0.0
Cd200 Cd 0.5511 0.30845 0.42777 0.0
C201 C 0.56111 0.4415 0.45538 0.0
O202 O 0.60858 0.30843 0.34944 0.0
O203 O 0.64741 0.32041 0.41565 0.0
O204 O 0.51571 0.22132 0.44945 0.0
C205 C 0.65087 0.31517 0.3697 0.0
O206 O 0.56371 0.44662 0.40899 0.0
C207 C 0.54407 0.20877 0.48443 0.0
O208 O 0.55236 0.39804 0.47343 0.0
O209 O 0.57567 0.24158 0.49513 0.0
C210 C 0.43704 0.81578 0.27426 0.0
O211 O 0.46518 0.78051 0.28928 0.0
Cd212 Cd 0.54847 0.75565 0.26902 0.0
O213 O 0.44983 0.84344 0.23838 0.0
Cd214 Cd 0.52799 0.85591 0.18973 0.0
C215 C 0.56607 0.74567 0.14324 0.0
O216 O 0.56969 0.83752 0.26157 0.0
O217 O 0.62033 0.85041 0.199 0.0
O218 O 0.53037 0.94192 0.17431 0.0
C219 C 0.6136 0.83245 0.24164 0.0
O220 O 0.56791 0.72654 0.18591 0.0
C221 C 0.51972 0.93796 0.12943 0.0
O222 O 0.54892 0.78922 0.13675 0.0
O223 O 0.5099 0.89579 0.11344 0.0
C224 C 0.03392 0.11693 0.8231 0.0
O225 O 0.04812 0.07228 0.81575 0.0
Cd226 Cd 0.03743 0.0317 0.73863 0.0
O227 O 0.00546 0.13881 0.79293 0.0
Cd228 Cd 0.9362 0.09348 0.76288 0.0
C229 C 0.926 0.98376 0.76338 0.0
O230 O -0.00564 0.09737 0.69742 0.0
O231 O 0.91936 0.06798 0.68123 0.0
O232 O 0.8901 0.13882 0.82464 0.0
C233 C 0.96419 0.08034 0.66686 0.0
O234 O 0.96568 0.97536 0.73595 0.0
C235 C 0.86031 0.15978 0.79495 0.0
O236 O 0.92748 0.01572 0.79666 0.0
O237 O 0.8638 0.14725 0.75026 0.0
C238 C 0.91635 0.15056 0.50334 0.0
O239 O 0.87705 0.14181 0.48 0.0
Cd240 Cd 0.82606 0.20846 0.52197 0.0
O241 O 0.91459 0.18746 0.53138 0.0
Cd242 Cd 0.82359 0.21059 0.51596 0.0
C243 C 0.79996 0.27697 0.59713 0.0
O244 O 0.79092 0.15057 0.57544 0.0
O245 O 0.75978 0.1466 0.50351 0.0
O246 O 0.82064 0.20885 0.42839 0.0
C247 C 0.7602 0.13099 0.5476 0.0
O248 O 0.84459 0.25679 0.59394 0.0
C249 C 0.82949 0.2544 0.42355 0.0
O250 O 0.77147 0.27275 0.56122 0.0
O251 O 0.83523 0.27973 0.46167 0.0
C252 C 0.58149 0.04037 0.41505 0.0
O253 O 0.55956 0.07504 0.39171 0.0
Cd254 Cd 0.56056 0.10217 0.31032 0.0
O255 O 0.61488 0.01116 0.39603 0.0
Cd256 Cd 0.6489 1.00193 0.31573 0.0
C257 C 0.69019 0.11587 0.28551 0.0
O258 O 0.5704 0.0234 0.28135 0.0
O259 O 0.63212 1.00133 0.23052 0.0
O260 O 0.6662 0.91567 0.31559 0.0
C261 C 0.59027 0.02542 0.23879 0.0
O262 O 0.64433 0.13375 0.28681 0.0
C263 C 0.71416 0.92172 0.31979 0.0
O264 O 0.70004 0.07168 0.29803 0.0
O265 O 0.73048 0.96501 0.32276 0.0
C266 C 0.90518 0.02441 0.02939 0.0
O267 O 0.87918 0.0439 -0.00446 0.0
Cd268 Cd 0.79484 0.01404 0.97573 0.0
O269 O 0.88726 0.98596 0.05151 0.0
Cd270 Cd 0.79906 0.93273 0.04975 0.0
C271 C 0.78846 0.90355 0.91695 0.0
O272 O 0.7405 0.01115 0.05018 0.0
O273 O 0.70205 0.9436 0.04216 0.0
O274 O 0.82549 0.91751 0.14046 0.0
C275 C 0.69811 0.98988 0.04628 0.0
O276 O 0.78582 0.95008 0.91149 0.0
C277 C 0.80834 0.8748 0.14805 0.0
O278 O 0.79703 0.88607 0.96041 0.0
O279 O 0.78664 0.8574 0.11114 0.0
C280 C 0.41635 0.65056 0.00334 0.0
O281 O 0.37705 0.64181 0.98 0.0
Cd282 Cd 0.32606 0.70846 0.02197 0.0
O283 O 0.41459 0.68746 0.03138 0.0
Cd284 Cd 0.32358 0.71059 0.01595 0.0
C285 C 0.29996 0.77697 0.09713 0.0
O286 O 0.29092 0.65057 0.07544 0.0
O287 O 0.25978 0.6466 0.00351 0.0
O288 O 0.32064 0.70885 0.92839 0.0
C289 C 0.2602 0.63099 0.0476 0.0
O290 O 0.34459 0.75678 0.09394 0.0
C291 C 0.32949 0.7544 0.92355 0.0
O292 O 0.27147 0.77275 0.06122 0.0
O293 O 0.33523 0.77973 0.96167 0.0
C294 C 0.08149 0.54037 0.91505 0.0
O295 O 0.05956 0.57504 0.89171 0.0
Cd296 Cd 0.06056 0.60216 0.81032 0.0
O297 O 0.11488 0.51116 0.89603 0.0
Cd298 Cd 0.1489 0.50193 0.81573 0.0
C299 C 0.19018 0.61587 0.78551 0.0
O300 O 0.07039 0.5234 0.78135 0.0
O301 O 0.13212 0.50133 0.73052 0.0
O302 O 0.1662 0.41567 0.81559 0.0
C303 C 0.09027 0.52542 0.73879 0.0
O304 O 0.14433 0.63375 0.78681 0.0
C305 C 0.21416 0.42172 0.81979 0.0
O306 O 0.20004 0.57168 0.79803 0.0
O307 O 0.23048 0.46501 0.82276 0.0
C308 C 0.40518 0.52441 0.52939 0.0
O309 O 0.37918 0.5439 0.49554 0.0
Cd310 Cd 0.29484 0.51404 0.47573 0.0
O311 O 0.38726 0.48596 0.55151 0.0
Cd312 Cd 0.29906 0.43273 0.54975 0.0
C313 C 0.28846 0.40355 0.41695 0.0
O314 O 0.2405 0.51115 0.55018 0.0
O315 O 0.20205 0.4436 0.54216 0.0
O316 O 0.32549 0.41751 0.64046 0.0
C317 C 0.19812 0.48988 0.54628 0.0
O318 O 0.28582 0.45008 0.41149 0.0
C319 C 0.30834 0.3748 0.64805 0.0
O320 O 0.29703 0.38607 0.46041 0.0
O321 O 0.28664 0.35741 0.61114 0.0
C322 C 0.53391 0.61693 0.3231 0.0
O323 O 0.54812 0.57227 0.31575 0.0
Cd324 Cd 0.53743 0.53169 0.23863 0.0
O325 O 0.50545 0.63881 0.29293 0.0
Cd326 Cd 0.43619 0.59348 0.26288 0.0
C327 C 0.42601 0.48375 0.26338 0.0
O328 O 0.49436 0.59737 0.19742 0.0
O329 O 0.41935 0.56797 0.18123 0.0
O330 O 0.39009 0.63882 0.32464 0.0
C331 C 0.46418 0.58034 0.16687 0.0
O332 O 0.46569 0.47535 0.23595 0.0
C333 C 0.3603 0.65977 0.29495 0.0
O334 O 0.42748 0.51571 0.29667 0.0
O335 O 0.36379 0.64724 0.25027 0.0
Co336 Co 0.04763 0.09492 0.00612 0.0
C337 C 0.04274 0.15262 0.08984 0.0
Co338 Co 0.06245 0.04754 0.06825 0.0
C339 C 0.05854 0.11233 0.90573 0.0
C340 C 0.00726 0.1667 0.9382 0.0
N341 N 0.03855 0.12815 0.94892 0.0
N342 N 0.03789 0.13639 0.86808 0.0
C343 C 0.0071 0.17222 0.88804 0.0
H344 H 0.0842 0.08059 0.90147 0.0
H345 H 0.98295 0.18661 0.96462 0.0
C346 C 0.06564 0.98777 0.98679 0.0
N347 N 0.07385 0.0137 0.12518 0.0
C348 C 0.11082 0.02232 0.15696 0.0
C349 C 0.04611 0.97728 0.14574 0.0
N350 N 0.10635 0.99375 0.19701 0.0
C351 C 0.06572 0.96533 0.19042 0.0
C352 C 0.95777 0.04561 0.03847 0.0
O353 O 0.05834 0.03088 0.96859 0.0
O354 O 0.07479 0.98575 0.03208 0.0
O355 O 0.98792 0.02916 0.0711 0.0
O356 O 0.97499 0.07891 0.00963 0.0
O357 O 0.0495 0.1089 0.10672 0.0
H358 H 0.01311 0.96114 0.12994 0.0
H359 H 0.13824 0.05135 0.15258 0.0
O360 O 0.03641 0.15682 0.04392 0.0
O361 O 0.11919 0.11287 0.00098 0.0
O362 O 0.13731 0.06692 0.06359 0.0
C363 C 0.15143 0.09988 0.03254 0.0
H364 H 0.98138 0.19636 0.86811 0.0
H365 H 0.05113 0.93827 0.21614 0.0
Co366 Co 0.31549 0.78737 0.3588 0.0
C367 C 0.33213 0.7039 0.30929 0.0
Co368 Co 0.28488 0.79302 0.28501 0.0
C369 C 0.29436 0.80124 0.45727 0.0
C370 C 0.37597 0.79886 0.44503 0.0
N371 N 0.3316 0.78739 0.42428 0.0
N372 N 0.31271 0.82548 0.49479 0.0
C373 C 0.36435 0.82251 0.48879 0.0
H374 H 0.25401 0.80317 0.44939 0.0
H375 H 0.4134 0.79742 0.4265 0.0
C376 C 0.26886 0.87698 0.33286 0.0
N377 N 0.26744 0.79625 0.22111 0.0
C378 C 0.30042 0.78463 0.18376 0.0
C379 C 0.22449 0.81374 0.20017 0.0
N380 N 0.28002 0.7937 0.14028 0.0
C381 C 0.23197 0.8117 0.15001 0.0
C382 C 0.21536 0.76077 0.35017 0.0
O383 O 0.28841 0.85289 0.36759 0.0
O384 O 0.26409 0.8573 0.29186 0.0
O385 O 0.21877 0.77319 0.30538 0.0
O386 O 0.25376 0.76216 0.37632 0.0
O387 O 0.30683 0.72715 0.2773 0.0
H388 H 0.1902 0.82693 0.22001 0.0
H389 H 0.33809 0.76768 0.1884 0.0
O390 O 0.34145 0.72385 0.34977 0.0
O391 O 0.37877 0.81115 0.33992 0.0
O392 O 0.35008 0.8132 0.26558 0.0
C393 C 0.38595 0.81852 0.29452 0.0
H394 H 0.3912 0.84203 0.51033 0.0
H395 H 0.20387 0.82107 0.12297 0.0
Co396 Co 0.50022 0.06431 0.5362 0.0
C397 C 0.54133 0.15812 0.50944 0.0
Co398 Co 0.57887 0.06964 0.55753 0.0
C399 C 0.39593 0.03813 0.54275 0.0
C400 C 0.41573 0.07181 0.47369 0.0
N401 N 0.43455 0.05945 0.51759 0.0
N402 N 0.35423 0.03511 0.51561 0.0
C403 C 0.36608 0.05648 0.47223 0.0
H404 H 0.39957 0.02216 0.57892 0.0
H405 H 0.43756 0.08857 0.44388 0.0
C406 C 0.54027 0.97637 0.58428 0.0
N407 N 0.64471 0.07472 0.57423 0.0
C408 C 0.68043 0.09284 0.54326 0.0
C409 C 0.66753 0.06889 0.61746 0.0
N410 N 0.72397 0.10105 0.56563 0.0
C411 C 0.71687 0.08567 0.61231 0.0
C412 C 0.50806 0.09797 0.62731 0.0
O413 O 0.49923 0.99624 0.56729 0.0
O414 O 0.58061 1.00172 0.58176 0.0
O415 O 0.55591 0.09111 0.61934 0.0
O416 O 0.47685 0.09066 0.59421 0.0
O417 O 0.57889 0.13952 0.53278 0.0
H418 H 0.64849 0.05664 0.65102 0.0
H419 H 0.67267 0.10511 0.5064 0.0
O420 O 0.50214 0.13132 0.50584 0.0
O421 O 0.52158 0.03814 0.47764 0.0
O422 O 0.60145 0.04808 0.49582 0.0
C423 C 0.56857 0.03654 0.46567 0.0
H424 H 0.34152 0.05877 0.44112 0.0
H425 H 0.74371 0.08985 0.64126 0.0
Co426 Co 0.33773 0.33511 0.7993 0.0
C427 C 0.31107 0.34863 0.69799 0.0
Co428 Co 0.27768 0.2861 0.77864 0.0
C429 C 0.43258 0.34686 0.83504 0.0
C430 C 0.41417 0.40871 0.78955 0.0
N431 N 0.39415 0.36859 0.81159 0.0
N432 N 0.47666 0.36965 0.82635 0.0
C433 C 0.46581 0.40943 0.79872 0.0
H434 H 0.42943 0.31192 0.85401 0.0
H435 H 0.39376 0.43335 0.76534 0.0
C436 C 0.30458 0.2734 0.88014 0.0
N437 N 0.21794 0.25307 0.76554 0.0
C438 C 0.18808 0.27923 0.73504 0.0
C439 C 0.18586 0.24388 0.80449 0.0
N440 N 0.14557 0.29683 0.75814 0.0
C441 C 0.14251 0.27315 0.80136 0.0
C442 C 0.36438 0.23863 0.76719 0.0
O443 O 0.33364 0.30931 0.86917 0.0
O444 O 0.27738 0.25781 0.84606 0.0
O445 O 0.31742 0.23385 0.75879 0.0
O446 O 0.38048 0.27935 0.78152 0.0
O447 O 0.28105 0.31425 0.71029 0.0
H448 H 0.19612 0.22349 0.83693 0.0
H449 H 0.19961 0.29056 0.69842 0.0
O450 O 0.34118 0.36226 0.73071 0.0
O451 O 0.29771 0.38857 0.81749 0.0
O452 O 0.23544 0.34031 0.80007 0.0
C453 C 0.25043 0.38122 0.81455 0.0
H454 H 0.49322 0.43584 0.78509 0.0
H455 H 0.11277 0.27876 0.82968 0.0
Co456 Co 0.00422 0.0315 0.5326 0.0
C457 C 0.9844 0.07051 0.61865 0.0
Co458 Co 0.05462 0.09488 0.54294 0.0
C459 C -0.00323 0.94233 0.48443 0.0
C460 C 0.95921 0.93836 0.55463 0.0
N461 N 0.97437 0.97105 0.51958 0.0
N462 N 0.00234 0.89529 0.4985 0.0
C463 C 0.97619 0.89148 0.54151 0.0
H464 H 0.01416 0.95577 0.45067 0.0
H465 H 0.94439 0.94816 0.5908 0.0
C466 C 0.07216 0.06019 0.45548 0.0
N467 N 0.08651 0.15232 0.55716 0.0
C468 C 0.08828 0.16983 0.60296 0.0
C469 C 0.08547 0.19249 0.52786 0.0
N470 N 0.08138 0.2188 0.6037 0.0
C471 C 0.0817 0.23367 0.5566 0.0
C472 C 0.10053 0.01175 0.57311 0.0
O473 O 0.03785 0.03157 0.47074 0.0
O474 O 0.0882 0.09316 0.48264 0.0
O475 O 0.10733 0.05757 0.56933 0.0
O476 O 0.05931 0.99369 0.55915 0.0
O477 O 0.02034 0.09698 0.60304 0.0
H478 H 0.07893 0.19183 0.48902 0.0
H479 H 0.0857 0.14689 0.63546 0.0
O480 O 0.97011 0.03477 0.59382 0.0
O481 O 0.95032 0.06966 0.5068 0.0
O482 O 0.00107 0.13194 0.51762 0.0
C483 C 0.95858 0.1156 0.50526 0.0
H484 H 0.97498 0.85886 0.5644 0.0
H485 H 0.07403 0.27089 0.54402 0.0
Co486 Co 0.30032 0.84796 0.81558 0.0
C487 C 0.20133 0.81776 0.84168 0.0
Co488 Co 0.28485 0.77739 0.7822 0.0
C489 C 0.3363 0.93995 0.79615 0.0
C490 C 0.30753 0.94072 0.87041 0.0
N491 N 0.3134 0.91178 0.83066 0.0
N492 N 0.34692 0.98446 0.81244 0.0
C493 C 0.32839 0.98597 0.85921 0.0
H494 H 0.3475 0.92711 0.7598 0.0
H495 H 0.29116 0.92917 0.90542 0.0
C496 C 0.38505 0.80548 0.75829 0.0
N497 N 0.2727 0.71403 0.76448 0.0
C498 C 0.22616 0.69377 0.76507 0.0
C499 C 0.30664 0.67575 0.76738 0.0
N500 N 0.22954 0.645 0.77222 0.0
C501 C 0.28005 0.633 0.77209 0.0
C502 C 0.25867 0.84865 0.72207 0.0
O503 O 0.36969 0.8427 0.78313 0.0
O504 O 0.35382 0.77097 0.75362 0.0
O505 O 0.26111 0.8021 0.72241 0.0
O506 O 0.27219 0.87218 0.75863 0.0
O507 O 0.21538 0.78381 0.81204 0.0
H508 H 0.34747 0.67899 0.77205 0.0
H509 H 0.19019 0.71469 0.76597 0.0
O510 O 0.23272 0.8519 0.8491 0.0
O511 O 0.32731 0.82422 0.87282 0.0
O512 O 0.30808 0.75288 0.84197 0.0
C513 C 0.32439 0.77798 0.87669 0.0
H514 H 0.33261 0.01608 0.88428 0.0
H515 H 0.29636 0.59678 0.7795 0.0
Co516 Co 0.54247 0.03095 0.01646 0.0
C517 C 0.64696 0.01688 0.04429 0.0
Co518 Co 0.56247 0.07559 0.07844 0.0
C519 C 0.51679 0.02499 0.9203 0.0
C520 C 0.55501 0.95796 0.94137 0.0
N521 N 0.53386 1.00039 0.95911 0.0
N522 N 0.5285 1.0012 0.87865 0.0
C523 C 0.55155 0.95828 0.89116 0.0
H524 H 0.49916 0.06149 0.92229 0.0
H525 H 0.57508 0.93057 0.96292 0.0
C526 C 0.45841 0.08871 0.0501 0.0
N527 N 0.57354 0.10389 0.13868 0.0
C528 C 0.60244 0.07491 0.16751 0.0
C529 C 0.5334 0.11863 0.16852 0.0
N530 N 0.57694 0.06278 0.20883 0.0
C531 C 0.5345 0.09193 0.21132 0.0
C532 C 0.57452 0.12913 0.00041 0.0
O533 O 0.47177 0.05819 0.01661 0.0
O534 O 0.49111 0.09858 0.08167 0.0
O535 O 0.57898 0.13193 0.04613 0.0
O536 O 0.56419 0.08856 0.98102 0.0
O537 O 0.63491 0.05226 0.07277 0.0
H538 H 0.50078 0.14083 0.1573 0.0
H539 H 0.63727 0.05553 0.15548 0.0
O540 O 0.61264 1.00246 0.0163 0.0
O541 O 0.51981 0.9754 0.05094 0.0
O542 O 0.5442 0.01794 0.11284 0.0
C543 C 0.52588 0.97931 0.09638 0.0
H544 H 0.56652 0.93046 0.86594 0.0
H545 H 0.50424 0.09062 0.2395 0.0
Co546 Co 0.28852 0.2913 0.31025 0.0
C547 C 0.39271 0.31619 0.31544 0.0
Co548 Co 0.30461 0.35379 0.26314 0.0
C549 C 0.24087 0.20159 0.32001 0.0
C550 C 0.29737 0.20731 0.3746 0.0
N551 N 0.27358 0.23287 0.33908 0.0
N552 N 0.24377 0.1573 0.34133 0.0
C553 C 0.27909 0.16028 0.37594 0.0
H554 H 0.21766 0.21 0.28882 0.0
H555 H 0.32757 0.22111 0.39644 0.0
C556 C 0.2001 0.33142 0.25699 0.0
N557 N 0.32104 0.4132 0.23357 0.0
C558 C 0.37084 0.42532 0.22748 0.0
C559 C 0.29698 0.45412 0.25163 0.0
N560 N 0.37984 0.46754 0.25028 0.0
C561 C 0.33343 0.48679 0.26403 0.0
C562 C 0.30978 0.27135 0.20406 0.0
O563 O 0.21388 0.29988 0.28951 0.0
O564 O 0.23348 0.36236 0.24312 0.0
O565 O 0.31689 0.3175 0.19999 0.0
O566 O 0.30225 0.2547 0.24764 0.0
O567 O 0.37627 0.34516 0.28256 0.0
H568 H 0.25739 0.45576 0.26513 0.0
H569 H 0.40117 0.39934 0.21616 0.0
O570 O 0.3617 0.28383 0.33129 0.0
O571 O 0.2756 0.32583 0.37295 0.0
O572 O 0.29241 0.38992 0.328 0.0
C573 C 0.28462 0.37154 0.37096 0.0
H574 H 0.29106 0.13065 0.39997 0.0
H575 H 0.32669 0.52 0.28518 0.0
Co576 Co 0.50422 0.5315 0.03261 0.0
C577 C 0.4844 0.5705 0.11865 0.0
Co578 Co 0.55462 0.59488 0.04295 0.0
C579 C 0.49677 0.44233 0.98443 0.0
C580 C 0.45921 0.43835 0.05463 0.0
N581 N 0.47437 0.47105 0.01958 0.0
N582 N 0.50234 0.39529 -0.0015 0.0
C583 C 0.47619 0.39147 0.04151 0.0
H584 H 0.51416 0.45577 0.95067 0.0
H585 H 0.44439 0.44815 0.0908 0.0
C586 C 0.57216 0.56019 0.95549 0.0
N587 N 0.58651 0.65232 0.05717 0.0
C588 C 0.58827 0.66983 0.10297 0.0
C589 C 0.58547 0.69249 0.02787 0.0
N590 N 0.58138 0.7188 0.10371 0.0
C591 C 0.5817 0.73366 0.05661 0.0
C592 C 0.60053 0.51175 0.07312 0.0
O593 O 0.53785 0.53157 0.97074 0.0
O594 O 0.5882 0.59316 0.98265 0.0
O595 O 0.60733 0.55757 0.06933 0.0
O596 O 0.55931 0.49369 0.05915 0.0
O597 O 0.52033 0.59698 0.10304 0.0
H598 H 0.57893 0.69183 0.98903 0.0
H599 H 0.5857 0.64689 0.13546 0.0
O600 O 0.47011 0.53477 0.09382 0.0
O601 O 0.45032 0.56966 0.0068 0.0
O602 O 0.50107 0.63194 0.01762 0.0
C603 C 0.45857 0.6156 0.00527 0.0
H604 H 0.47499 0.35885 0.0644 0.0
H605 H 0.57403 0.77089 0.04403 0.0
Co606 Co 0.80033 0.34796 0.31558 0.0
C607 C 0.70133 0.31776 0.34168 0.0
Co608 Co 0.78485 0.27739 0.2822 0.0
C609 C 0.8363 0.43995 0.29615 0.0
C610 C 0.80753 0.44072 0.37041 0.0
N611 N 0.8134 0.41178 0.33066 0.0
N612 N 0.84692 0.48446 0.31244 0.0
C613 C 0.82839 0.48597 0.35921 0.0
H614 H 0.84751 0.42711 0.2598 0.0
H615 H 0.79116 0.42917 0.40542 0.0
C616 C 0.88505 0.30548 0.25829 0.0
N617 N 0.7727 0.21404 0.26448 0.0
C618 C 0.72617 0.19377 0.26507 0.0
C619 C 0.80664 0.17575 0.26738 0.0
N620 N 0.72954 0.145 0.27222 0.0
C621 C 0.78005 0.133 0.27209 0.0
C622 C 0.75867 0.34866 0.22207 0.0
O623 O 0.86969 0.3427 0.28313 0.0
O624 O 0.85382 0.27097 0.25362 0.0
O625 O 0.76111 0.3021 0.22241 0.0
O626 O 0.77219 0.37218 0.25863 0.0
O627 O 0.71538 0.28381 0.31204 0.0
H628 H 0.84747 0.17899 0.27205 0.0
H629 H 0.69019 0.21469 0.26597 0.0
O630 O 0.73272 0.3519 0.3491 0.0
O631 O 0.82731 0.32422 0.37282 0.0
O632 O 0.80808 0.25288 0.34197 0.0
C633 C 0.82439 0.27798 0.3767 0.0
H634 H 0.83261 0.51608 0.38428 0.0
H635 H 0.79636 0.09679 0.2795 0.0
Co636 Co 0.04247 0.53096 0.51646 0.0
C637 C 0.14696 0.51688 0.54429 0.0
Co638 Co 0.06247 0.57559 0.57844 0.0
C639 C 0.01679 0.52499 0.4203 0.0
C640 C 0.05502 0.45796 0.44137 0.0
N641 N 0.03386 0.50039 0.4591 0.0
N642 N 0.0285 0.5012 0.37864 0.0
C643 C 0.05155 0.45829 0.39116 0.0
H644 H -0.00084 0.56149 0.42229 0.0
H645 H 0.07508 0.43057 0.46292 0.0
C646 C 0.95841 0.58871 0.5501 0.0
N647 N 0.07354 0.60389 0.63868 0.0
C648 C 0.10244 0.57491 0.66751 0.0
C649 C 0.0334 0.61863 0.66851 0.0
N650 N 0.07693 0.56278 0.70883 0.0
C651 C 0.03449 0.59193 0.71132 0.0
C652 C 0.07452 0.62913 0.50041 0.0
O653 O 0.97177 0.55819 0.51661 0.0
O654 O -0.00889 0.59858 0.58167 0.0
O655 O 0.07898 0.63193 0.54613 0.0
O656 O 0.06419 0.58856 0.48102 0.0
O657 O 0.13491 0.55226 0.57277 0.0
H658 H 0.00078 0.64083 0.6573 0.0
H659 H 0.13727 0.55553 0.65548 0.0
O660 O 0.11264 0.50246 0.5163 0.0
O661 O 0.01981 0.4754 0.55094 0.0
O662 O 0.04421 0.51794 0.61284 0.0
C663 C 0.02588 0.47931 0.59638 0.0
H664 H 0.06652 0.43046 0.36594 0.0
H665 H 0.00424 0.59062 0.7395 0.0
Co666 Co 0.83773 0.83511 0.2993 0.0
C667 C 0.81107 0.84863 0.19799 0.0
Co668 Co 0.77768 0.78611 0.27864 0.0
C669 C 0.93258 0.84686 0.33504 0.0
C670 C 0.91417 0.90871 0.28955 0.0
N671 N 0.89415 0.86859 0.31159 0.0
N672 N 0.97666 0.86965 0.32634 0.0
C673 C 0.96581 0.90943 0.29872 0.0
H674 H 0.92943 0.81192 0.354 0.0
H675 H 0.89376 0.93335 0.26534 0.0
C676 C 0.80458 0.7734 0.38014 0.0
N677 N 0.71794 0.75307 0.26554 0.0
C678 C 0.68808 0.77923 0.23504 0.0
C679 C 0.68586 0.74388 0.3045 0.0
N680 N 0.64557 0.79683 0.25814 0.0
C681 C 0.64251 0.77315 0.30137 0.0
C682 C 0.86438 0.73863 0.26719 0.0
O683 O 0.83364 0.80931 0.36917 0.0
O684 O 0.77738 0.75781 0.34606 0.0
O685 O 0.81742 0.73385 0.25879 0.0
O686 O 0.88048 0.77935 0.28152 0.0
O687 O 0.78105 0.81425 0.21029 0.0
H688 H 0.69612 0.72349 0.33693 0.0
H689 H 0.69961 0.79056 0.19842 0.0
O690 O 0.84118 0.86226 0.23071 0.0
O691 O 0.79771 0.88857 0.31749 0.0
O692 O 0.73544 0.84031 0.30007 0.0
C693 C 0.75043 0.88122 0.31455 0.0
H694 H -0.00678 0.93584 0.28509 0.0
H695 H 0.61278 0.77877 0.32968 0.0
Co696 Co 0.8155 0.28738 0.85879 0.0
C697 C 0.83213 0.20391 0.80928 0.0
Co698 Co 0.78488 0.29303 0.785 0.0
C699 C 0.79436 0.30124 0.95727 0.0
C700 C 0.87597 0.29887 0.94503 0.0
N701 N 0.8316 0.28739 0.92427 0.0
N702 N 0.81271 0.32549 -0.00522 0.0
C703 C 0.86435 0.32251 0.98878 0.0
H704 H 0.75401 0.30318 0.94939 0.0
H705 H 0.9134 0.29743 0.9265 0.0
C706 C 0.76886 0.37699 0.83286 0.0
N707 N 0.76744 0.29626 0.72111 0.0
C708 C 0.80042 0.28464 0.68376 0.0
C709 C 0.72449 0.31375 0.70016 0.0
N710 N 0.78002 0.29371 0.64028 0.0
C711 C 0.73197 0.3117 0.65 0.0
C712 C 0.71536 0.26078 0.85017 0.0
O713 O 0.78841 0.3529 0.86759 0.0
O714 O 0.76409 0.35731 0.79185 0.0
O715 O 0.71877 0.2732 0.80537 0.0
O716 O 0.75376 0.26217 0.87631 0.0
O717 O 0.80683 0.22716 0.7773 0.0
H718 H 0.69019 0.32693 0.72001 0.0
H719 H 0.8381 0.26769 0.6884 0.0
O720 O 0.84146 0.22386 0.84976 0.0
O721 O 0.87877 0.31116 0.83991 0.0
O722 O 0.85008 0.31321 0.76558 0.0
C723 C 0.88595 0.31852 0.79451 0.0
H724 H 0.8912 0.34203 0.01033 0.0
H725 H 0.70387 0.32108 0.62297 0.0
Co726 Co 0.78852 0.7913 0.81025 0.0
C727 C 0.89271 0.81619 0.81544 0.0
Co728 Co 0.80461 0.85379 0.76314 0.0
C729 C 0.74087 0.70159 0.82001 0.0
C730 C 0.79736 0.70731 0.8746 0.0
N731 N 0.77358 0.73287 0.83908 0.0
N732 N 0.74377 0.6573 0.84133 0.0
C733 C 0.77908 0.66028 0.87594 0.0
H734 H 0.71767 0.71 0.78882 0.0
H735 H 0.82757 0.72111 0.89644 0.0
C736 C 0.70009 0.83142 0.75699 0.0
N737 N 0.82104 0.9132 0.73357 0.0
C738 C 0.87084 0.92532 0.72748 0.0
C739 C 0.79697 0.95412 0.75162 0.0
N740 N 0.87983 0.96754 0.75027 0.0
C741 C 0.83342 0.98679 0.76403 0.0
C742 C 0.80978 0.77135 0.70406 0.0
O743 O 0.71388 0.79988 0.78951 0.0
O744 O 0.73348 0.86236 0.74312 0.0
O745 O 0.81689 0.81751 0.69999 0.0
O746 O 0.80225 0.7547 0.74764 0.0
O747 O 0.87627 0.84516 0.78256 0.0
H748 H 0.75739 0.95576 0.76513 0.0
H749 H 0.90117 0.89935 0.71616 0.0
O750 O 0.8617 0.78383 0.83129 0.0
O751 O 0.7756 0.82583 0.87295 0.0
O752 O 0.79241 0.88992 0.828 0.0
C753 C 0.78462 0.87154 0.87096 0.0
H754 H 0.79106 0.63065 0.89998 0.0
H755 H 0.82668 0.02 0.78517 0.0
Co756 Co 0.54763 0.59493 0.50612 0.0
C757 C 0.54274 0.65262 0.58984 0.0
Co758 Co 0.56245 0.54754 0.56825 0.0
C759 C 0.55854 0.61233 0.40573 0.0
C760 C 0.50726 0.6667 0.4382 0.0
N761 N 0.53855 0.62815 0.44892 0.0
N762 N 0.53789 0.63639 0.36808 0.0
C763 C 0.5071 0.67222 0.38803 0.0
H764 H 0.5842 0.58059 0.40147 0.0
H765 H 0.48295 0.68661 0.46462 0.0
C766 C 0.56564 0.48777 0.48679 0.0
N767 N 0.57385 0.5137 0.62517 0.0
C768 C 0.61082 0.52233 0.65696 0.0
C769 C 0.54611 0.47728 0.64574 0.0
N770 N 0.60634 0.49375 0.69701 0.0
C771 C 0.56572 0.46534 0.69042 0.0
C772 C 0.45777 0.54561 0.53847 0.0
O773 O 0.55834 0.53088 0.46859 0.0
O774 O 0.57479 0.48575 0.53208 0.0
O775 O 0.48792 0.52917 0.5711 0.0
O776 O 0.47499 0.57891 0.50963 0.0
O777 O 0.5495 0.6089 0.60672 0.0
H778 H 0.51311 0.46114 0.62994 0.0
H779 H 0.63823 0.55135 0.65258 0.0
O780 O 0.53641 0.65682 0.54392 0.0
O781 O 0.61919 0.61287 0.50097 0.0
O782 O 0.63731 0.56692 0.56359 0.0
C783 C 0.65143 0.59988 0.53254 0.0
H784 H 0.48137 0.69636 0.36811 0.0
H785 H 0.55113 0.43828 0.71614 0.0
Co786 Co 0.00021 0.56431 0.0362 0.0
C787 C 0.04133 0.65812 0.00944 0.0
Co788 Co 0.07887 0.56964 0.05753 0.0
C789 C 0.89593 0.53813 0.04275 0.0
C790 C 0.91572 0.57181 0.97369 0.0
N791 N 0.93455 0.55945 0.01759 0.0
N792 N 0.85423 0.53511 0.01561 0.0
C793 C 0.86608 0.55648 0.97224 0.0
H794 H 0.89957 0.52216 0.07892 0.0
H795 H 0.93756 0.58857 0.94388 0.0
C796 C 0.04027 0.47637 0.08428 0.0
N797 N 0.14471 0.57472 0.07422 0.0
C798 C 0.18043 0.59284 0.04326 0.0
C799 C 0.16753 0.56888 0.11745 0.0
N800 N 0.22397 0.60105 0.06563 0.0
C801 C 0.21687 0.58566 0.11231 0.0
C802 C 0.00806 0.59797 0.12731 0.0
O803 O -0.00077 0.49624 0.06729 0.0
O804 O 0.08061 0.50172 0.08176 0.0
O805 O 0.05591 0.59111 0.11934 0.0
O806 O 0.97685 0.59066 0.09421 0.0
O807 O 0.07888 0.63951 0.03278 0.0
H808 H 0.14849 0.55664 0.15102 0.0
H809 H 0.17267 0.60511 0.00639 0.0
O810 O 0.00214 0.63132 0.00584 0.0
O811 O 0.02158 0.53814 0.97764 0.0
O812 O 0.10145 0.54808 -0.00418 0.0
C813 C 0.06857 0.53654 0.96567 0.0
H814 H 0.84152 0.55877 0.94112 0.0
H815 H 0.24371 0.58984 0.14125 0.0
loop_
_geom_bond_atom_site_label_1
_geom_bond_atom_site_label_2
_geom_bond_distance
_geom_bond_site_symmetry_2
_ccdc_geom_bond_type
C0 O1 1.306 . S
C0 O3 1.160 . S
O1 C0 1.306 . S
O1 Cd2 2.228 1_655 S
Cd2 O1 2.228 1_455 S
Cd2 O6 2.273 . S
Cd2 O10 2.277 . S
O3 C0 1.160 . S
O3 Cd4 2.203 1_655 S
Cd4 O3 2.203 1_455 S
Cd4 O6 2.411 . S
Cd4 O7 2.333 . S
Cd4 O8 2.352 . S
Cd4 O12 2.277 . S
Cd4 O13 2.356 . S
C5 O10 1.209 . S
C5 O12 1.226 . S
O6 Cd2 2.273 . S
O6 Cd4 2.411 . S
O6 C9 1.320 . S
O7 Cd4 2.333 . S
O7 C9 1.214 . S
O8 Cd4 2.352 . S
O8 C11 1.258 . S
C9 O6 1.320 . S
C9 O7 1.214 . S
O10 Cd2 2.277 . S
O10 C5 1.209 . S
C11 O8 1.258 . S
C11 O13 1.282 . S
O12 Cd4 2.277 . S
O12 C5 1.226 . S
O13 Cd4 2.356 . S
O13 C11 1.282 . S
C14 O15 1.306 . S
C14 O17 1.160 . S
O15 C14 1.306 . S
O15 Cd16 2.228 . S
Cd16 O15 2.228 . S
Cd16 O20 2.273 . S
Cd16 O24 2.277 . S
O17 C14 1.160 . S
O17 Cd18 2.203 . S
Cd18 O17 2.203 . S
Cd18 O20 2.411 . S
Cd18 O21 2.333 . S
Cd18 O22 2.352 . S
Cd18 O26 2.277 . S
Cd18 O27 2.356 . S
C19 O24 1.209 . S
C19 O26 1.226 . S
O20 Cd16 2.273 . S
O20 Cd18 2.411 . S
O20 C23 1.320 . S
O21 Cd18 2.333 . S
O21 C23 1.214 . S
O22 Cd18 2.352 . S
O22 C25 1.258 . S
C23 O20 1.320 . S
C23 O21 1.214 . S
O24 Cd16 2.277 . S
O24 C19 1.209 . S
C25 O22 1.258 . S
C25 O27 1.282 . S
O26 Cd18 2.277 . S
O26 C19 1.226 . S
O27 Cd18 2.356 . S
O27 C25 1.282 . S
C28 O29 1.306 . S
C28 O31 1.160 . S
O29 C28 1.306 . S
O29 Cd30 2.228 . S
Cd30 O29 2.228 . S
Cd30 O34 2.273 . S
Cd30 O38 2.277 . S
O31 C28 1.160 . S
O31 Cd32 2.203 . S
Cd32 O31 2.203 . S
Cd32 O34 2.411 . S
Cd32 O35 2.333 . S
Cd32 O36 2.352 . S
Cd32 O40 2.277 . S
Cd32 O41 2.356 . S
C33 O38 1.209 . S
C33 O40 1.226 . S
O34 Cd30 2.273 . S
O34 Cd32 2.411 . S
O34 C37 1.320 . S
O35 Cd32 2.333 . S
O35 C37 1.214 . S
O36 Cd32 2.352 . S
O36 C39 1.258 . S
C37 O34 1.320 . S
C37 O35 1.214 . S
O38 Cd30 2.277 . S
O38 C33 1.209 . S
C39 O36 1.258 . S
C39 O41 1.282 . S
O40 Cd32 2.277 . S
O40 C33 1.226 . S
O41 Cd32 2.356 . S
O41 C39 1.282 . S
C42 O43 1.306 . S
C42 O45 1.160 . S
O43 C42 1.306 . S
O43 Cd44 2.228 . S
Cd44 O43 2.228 . S
Cd44 O48 2.273 . S
Cd44 O52 2.277 . S
O45 C42 1.160 . S
O45 Cd46 2.203 . S
Cd46 O45 2.203 . S
Cd46 O48 2.411 . S
Cd46 O49 2.333 . S
Cd46 O50 2.352 . S
Cd46 O54 2.277 . S
Cd46 O55 2.356 1_556 S
C47 O52 1.209 . S
C47 O54 1.226 . S
O48 Cd44 2.273 . S
O48 Cd46 2.411 . S
O48 C51 1.320 . S
O49 Cd46 2.333 . S
O49 C51 1.214 . S
O50 Cd46 2.352 . S
O50 C53 1.258 . S
C51 O48 1.320 . S
C51 O49 1.214 . S
O52 Cd44 2.277 . S
O52 C47 1.209 . S
C53 O50 1.258 . S
C53 O55 1.282 1_556 S
O54 Cd46 2.277 . S
O54 C47 1.226 . S
O55 Cd46 2.356 1_554 S
O55 C53 1.282 1_554 S
C56 O57 1.306 . S
C56 O59 1.160 . S
O57 C56 1.306 . S
O57 Cd58 2.228 . S
Cd58 O57 2.228 . S
Cd58 O62 2.273 . S
Cd58 O66 2.277 . S
O59 C56 1.160 . S
O59 Cd60 2.203 1_545 S
Cd60 O59 2.203 1_565 S
Cd60 O62 2.411 1_565 S
Cd60 O63 2.333 . S
Cd60 O64 2.352 . S
Cd60 O68 2.277 1_565 S
Cd60 O69 2.356 . S
C61 O66 1.209 . S
C61 O68 1.226 . S
O62 Cd58 2.273 . S
O62 Cd60 2.411 1_545 S
O62 C65 1.320 . S
O63 Cd60 2.333 . S
O63 C65 1.212 1_565 S
O64 Cd60 2.352 . S
O64 C67 1.258 . S
C65 O62 1.320 . S
C65 O63 1.212 1_545 S
O66 Cd58 2.277 . S
O66 C61 1.209 . S
C67 O64 1.258 . S
C67 O69 1.282 . S
O68 Cd60 2.277 1_545 S
O68 C61 1.226 . S
O69 Cd60 2.356 . S
O69 C67 1.282 . S
C70 O71 1.306 1_565 S
C70 O73 1.160 . S
O71 C70 1.306 1_545 S
O71 Cd72 2.228 . S
Cd72 O71 2.228 . S
Cd72 O76 2.273 1_545 S
Cd72 O80 2.277 1_545 S
O73 C70 1.160 . S
O73 Cd74 2.203 . S
Cd74 O73 2.203 . S
Cd74 O76 2.411 . S
Cd74 O77 2.333 . S
Cd74 O78 2.352 . S
Cd74 O82 2.277 . S
Cd74 O83 2.356 . S
C75 O80 1.209 . S
C75 O82 1.226 . S
O76 Cd72 2.273 1_565 S
O76 Cd74 2.411 . S
O76 C79 1.320 . S
O77 Cd74 2.333 . S
O77 C79 1.214 . S
O78 Cd74 2.352 . S
O78 C81 1.258 . S
C79 O76 1.320 . S
C79 O77 1.214 . S
O80 Cd72 2.277 1_565 S
O80 C75 1.209 . S
C81 O78 1.258 . S
C81 O83 1.282 . S
O82 Cd74 2.277 . S
O82 C75 1.226 . S
O83 Cd74 2.356 . S
O83 C81 1.282 . S
C84 O85 1.306 . S
C84 O87 1.160 . S
O85 C84 1.306 . S
O85 Cd86 2.228 . S
Cd86 O85 2.228 . S
Cd86 O90 2.273 . S
Cd86 O94 2.277 . S
O87 C84 1.160 . S
O87 Cd88 2.203 . S
Cd88 O87 2.203 . S
Cd88 O90 2.411 . S
Cd88 O91 2.333 . S
Cd88 O92 2.352 . S
Cd88 O96 2.277 . S
Cd88 O97 2.356 . S
C89 O94 1.209 . S
C89 O96 1.226 . S
O90 Cd86 2.273 . S
O90 Cd88 2.411 . S
O90 C93 1.320 . S
O91 Cd88 2.333 . S
O91 C93 1.214 . S
O92 Cd88 2.352 . S
O92 C95 1.258 . S
C93 O90 1.320 . S
C93 O91 1.214 . S
O94 Cd86 2.277 . S
O94 C89 1.209 . S
C95 O92 1.258 . S
C95 O97 1.282 . S
O96 Cd88 2.277 . S
O96 C89 1.226 . S
O97 Cd88 2.356 . S
O97 C95 1.282 . S
C98 O99 1.306 . S
C98 O101 1.160 . S
O99 C98 1.306 . S
O99 Cd100 2.228 . S
Cd100 O99 2.228 . S
Cd100 O104 2.273 . S
Cd100 O108 2.277 . S
O101 C98 1.160 . S
O101 Cd102 2.203 . S
Cd102 O101 2.203 . S
Cd102 O104 2.411 . S
Cd102 O105 2.333 . S
Cd102 O106 2.352 1_554 S
Cd102 O110 2.277 . S
Cd102 O111 2.356 1_554 S
C103 O108 1.209 . S
C103 O110 1.226 . S
O104 Cd100 2.273 . S
O104 Cd102 2.411 . S
O104 C107 1.320 . S
O105 Cd102 2.333 . S
O105 C107 1.214 . S
O106 Cd102 2.352 1_556 S
O106 C109 1.258 . S
C107 O104 1.320 . S
C107 O105 1.214 . S
O108 Cd100 2.277 . S
O108 C103 1.209 . S
C109 O106 1.258 . S
C109 O111 1.282 . S
O110 Cd102 2.277 . S
O110 C103 1.226 . S
O111 Cd102 2.356 1_556 S
O111 C109 1.282 . S
C112 O113 1.306 . S
C112 O115 1.160 . S
O113 C112 1.306 . S
O113 Cd114 2.228 . S
Cd114 O113 2.228 . S
Cd114 O118 2.273 . S
Cd114 O122 2.277 . S
O115 C112 1.160 . S
O115 Cd116 2.203 . S
Cd116 O115 2.203 . S
Cd116 O118 2.411 . S
Cd116 O119 2.333 . S
Cd116 O120 2.352 . S
Cd116 O124 2.277 . S
Cd116 O125 2.356 . S
C117 O122 1.209 . S
C117 O124 1.226 . S
O118 Cd114 2.273 . S
O118 Cd116 2.411 . S
O118 C121 1.320 . S
O119 Cd116 2.333 . S
O119 C121 1.214 . S
O120 Cd116 2.352 . S
O120 C123 1.258 . S
C121 O118 1.320 . S
C121 O119 1.214 . S
O122 Cd114 2.277 . S
O122 C117 1.209 . S
C123 O120 1.258 . S
C123 O125 1.282 . S
O124 Cd116 2.277 . S
O124 C117 1.226 . S
O125 Cd116 2.356 . S
O125 C123 1.282 . S
C126 O127 1.306 1_655 S
C126 O129 1.160 . S
O127 C126 1.306 1_455 S
O127 Cd128 2.228 . S
Cd128 O127 2.228 . S
Cd128 O132 2.273 . S
Cd128 O136 2.277 1_455 S
O129 C126 1.160 . S
O129 Cd130 2.203 . S
Cd130 O129 2.203 . S
Cd130 O132 2.411 1_655 S
Cd130 O133 2.333 . S
Cd130 O134 2.352 . S
Cd130 O138 2.277 . S
Cd130 O139 2.356 . S
C131 O136 1.209 . S
C131 O138 1.226 . S
O132 Cd128 2.273 . S
O132 Cd130 2.411 1_455 S
O132 C135 1.320 1_455 S
O133 Cd130 2.333 . S
O133 C135 1.214 . S
O134 Cd130 2.352 . S
O134 C137 1.258 . S
C135 O132 1.320 1_655 S
C135 O133 1.214 . S
O136 Cd128 2.277 1_655 S
O136 C131 1.209 . S
C137 O134 1.258 . S
C137 O139 1.282 . S
O138 Cd130 2.277 . S
O138 C131 1.226 . S
O139 Cd130 2.356 . S
O139 C137 1.282 . S
C140 O141 1.306 . S
C140 O143 1.160 . S
O141 C140 1.306 . S
O141 Cd142 2.228 . S
Cd142 O141 2.228 . S
Cd142 O146 2.273 . S
Cd142 O150 2.277 . S
O143 C140 1.160 . S
O143 Cd144 2.203 . S
Cd144 O143 2.203 . S
Cd144 O146 2.411 . S
Cd144 O147 2.333 . S
Cd144 O148 2.352 . S
Cd144 O152 2.277 . S
Cd144 O153 2.356 . S
C145 O150 1.209 . S
C145 O152 1.226 . S
O146 Cd142 2.273 . S
O146 Cd144 2.411 . S
O146 C149 1.320 . S
O147 Cd144 2.333 . S
O147 C149 1.214 . S
O148 Cd144 2.352 . S
O148 C151 1.258 . S
C149 O146 1.320 . S
C149 O147 1.214 . S
O150 Cd142 2.277 . S
O150 C145 1.209 . S
C151 O148 1.258 . S
C151 O153 1.282 . S
O152 Cd144 2.277 . S
O152 C145 1.226 . S
O153 Cd144 2.356 . S
O153 C151 1.282 . S
C154 O155 1.306 . S
C154 O157 1.160 . S
O155 C154 1.306 . S
O155 Cd156 2.228 . S
Cd156 O155 2.228 . S
Cd156 O160 2.273 . S
Cd156 O164 2.277 . S
O157 C154 1.160 . S
O157 Cd158 2.203 . S
Cd158 O157 2.203 . S
Cd158 O160 2.411 . S
Cd158 O161 2.333 . S
Cd158 O162 2.352 . S
Cd158 O166 2.277 . S
Cd158 O167 2.356 . S
C159 O164 1.209 . S
C159 O166 1.226 . S
O160 Cd156 2.273 . S
O160 Cd158 2.411 . S
O160 C163 1.320 . S
O161 Cd158 2.333 . S
O161 C163 1.214 . S
O162 Cd158 2.352 . S
O162 C165 1.258 . S
C163 O160 1.320 . S
C163 O161 1.214 . S
O164 Cd156 2.277 . S
O164 C159 1.209 . S
C165 O162 1.258 . S
C165 O167 1.282 . S
O166 Cd158 2.277 . S
O166 C159 1.226 . S
O167 Cd158 2.356 . S
O167 C165 1.282 . S
C168 O169 1.306 . S
C168 O171 1.160 . S
O169 C168 1.306 . S
O169 Cd170 2.228 1_655 S
Cd170 O169 2.228 1_455 S
Cd170 O174 2.273 . S
Cd170 O178 2.277 . S
O171 C168 1.160 . S
O171 Cd172 2.203 1_655 S
Cd172 O171 2.203 1_455 S
Cd172 O174 2.411 . S
Cd172 O175 2.333 . S
Cd172 O176 2.352 . S
Cd172 O180 2.277 1_556 S
Cd172 O181 2.356 1_556 S
C173 O178 1.209 . S
C173 O180 1.226 1_556 S
O174 Cd170 2.273 . S
O174 Cd172 2.411 . S
O174 C177 1.320 . S
O175 Cd172 2.333 . S
O175 C177 1.214 . S
O176 Cd172 2.352 . S
O176 C179 1.258 . S
C177 O174 1.320 . S
C177 O175 1.214 . S
O178 Cd170 2.277 . S
O178 C173 1.209 . S
C179 O176 1.258 . S
C179 O181 1.282 1_556 S
O180 Cd172 2.277 1_554 S
O180 C173 1.226 1_554 S
O181 Cd172 2.356 1_554 S
O181 C179 1.282 1_554 S
C182 O183 1.306 . S
C182 O185 1.160 . S
O183 C182 1.306 . S
O183 Cd184 2.228 1_655 S
Cd184 O183 2.228 1_455 S
Cd184 O188 2.273 . S
Cd184 O192 2.277 . S
O185 C182 1.160 . S
O185 Cd186 2.203 1_655 S
Cd186 O185 2.203 1_455 S
Cd186 O188 2.411 . S
Cd186 O189 2.333 . S
Cd186 O190 2.352 1_455 S
Cd186 O194 2.277 . S
Cd186 O195 2.356 . S
C187 O192 1.209 . S
C187 O194 1.226 . S
O188 Cd184 2.273 . S
O188 Cd186 2.411 . S
O188 C191 1.320 . S
O189 Cd186 2.333 . S
O189 C191 1.214 . S
O190 Cd186 2.352 1_655 S
O190 C193 1.258 1_655 S
C191 O188 1.320 . S
C191 O189 1.214 . S
O192 Cd184 2.277 . S
O192 C187 1.209 . S
C193 O190 1.258 1_455 S
C193 O195 1.282 . S
O194 Cd186 2.277 . S
O194 C187 1.226 . S
O195 Cd186 2.356 . S
O195 C193 1.282 . S
C196 O197 1.306 . S
C196 O199 1.160 . S
O197 C196 1.306 . S
O197 Cd198 2.228 . S
Cd198 O197 2.228 . S
Cd198 O202 2.273 . S
Cd198 O206 2.277 . S
O199 C196 1.160 . S
O199 Cd200 2.203 . S
Cd200 O199 2.203 . S
Cd200 O202 2.411 . S
Cd200 O203 2.333 . S
Cd200 O204 2.352 . S
Cd200 O208 2.277 . S
Cd200 O209 2.356 . S
C201 O206 1.209 . S
C201 O208 1.226 . S
O202 Cd198 2.273 . S
O202 Cd200 2.411 . S
O202 C205 1.320 . S
O203 Cd200 2.333 . S
O203 C205 1.214 . S
O204 Cd200 2.352 . S
O204 C207 1.258 . S
C205 O202 1.320 . S
C205 O203 1.214 . S
O206 Cd198 2.277 . S
O206 C201 1.209 . S
C207 O204 1.258 . S
C207 O209 1.282 . S
O208 Cd200 2.277 . S
O208 C201 1.226 . S
O209 Cd200 2.356 . S
O209 C207 1.282 . S
C210 O211 1.306 . S
C210 O213 1.160 . S
O211 C210 1.306 . S
O211 Cd212 2.228 . S
Cd212 O211 2.228 . S
Cd212 O216 2.273 . S
Cd212 O220 2.277 . S
O213 C210 1.160 . S
O213 Cd214 2.203 . S
Cd214 O213 2.203 . S
Cd214 O216 2.411 . S
Cd214 O217 2.333 . S
Cd214 O218 2.352 . S
Cd214 O222 2.277 . S
Cd214 O223 2.356 . S
C215 O220 1.209 . S
C215 O222 1.226 . S
O216 Cd212 2.273 . S
O216 Cd214 2.411 . S
O216 C219 1.320 . S
O217 Cd214 2.333 . S
O217 C219 1.214 . S
O218 Cd214 2.352 . S
O218 C221 1.258 . S
C219 O216 1.320 . S
C219 O217 1.214 . S
O220 Cd212 2.277 . S
O220 C215 1.209 . S
C221 O218 1.258 . S
C221 O223 1.282 . S
O222 Cd214 2.277 . S
O222 C215 1.226 . S
O223 Cd214 2.356 . S
O223 C221 1.282 . S
C224 O225 1.306 1_655 S
C224 O227 1.160 . S
O225 C224 1.306 1_455 S
O225 Cd226 2.228 . S
Cd226 O225 2.228 . S
Cd226 O230 2.273 1_455 S
Cd226 O234 2.277 1_455 S
O227 C224 1.160 . S
O227 Cd228 2.203 . S
Cd228 O227 2.203 . S
Cd228 O230 2.411 . S
Cd228 O231 2.333 . S
Cd228 O232 2.352 . S
Cd228 O236 2.277 . S
Cd228 O237 2.356 . S
C229 O234 1.209 . S
C229 O236 1.226 . S
O230 Cd226 2.273 1_655 S
O230 Cd228 2.411 . S
O230 C233 1.320 . S
O231 Cd228 2.333 . S
O231 C233 1.214 . S
O232 Cd228 2.352 . S
O232 C235 1.258 . S
C233 O230 1.320 . S
C233 O231 1.214 . S
O234 Cd226 2.277 1_655 S
O234 C229 1.209 . S
C235 O232 1.258 . S
C235 O237 1.282 . S
O236 Cd228 2.277 . S
O236 C229 1.226 . S
O237 Cd228 2.356 . S
O237 C235 1.282 . S
C238 O239 1.306 . S
C238 O241 1.160 . S
O239 C238 1.306 . S
O239 Cd240 2.228 . S
Cd240 O239 2.228 . S
Cd240 O244 2.273 . S
Cd240 O248 2.277 . S
O241 C238 1.160 . S
O241 Cd242 2.203 . S
Cd242 O241 2.203 . S
Cd242 O244 2.411 . S
Cd242 O245 2.333 . S
Cd242 O246 2.352 . S
Cd242 O250 2.277 . S
Cd242 O251 2.356 . S
C243 O248 1.209 . S
C243 O250 1.226 . S
O244 Cd240 2.273 . S
O244 Cd242 2.411 . S
O244 C247 1.320 . S
O245 Cd242 2.333 . S
O245 C247 1.214 . S
O246 Cd242 2.352 . S
O246 C249 1.258 . S
C247 O244 1.320 . S
C247 O245 1.214 . S
O248 Cd240 2.277 . S
O248 C243 1.209 . S
C249 O246 1.258 . S
C249 O251 1.282 . S
O250 Cd242 2.277 . S
O250 C243 1.226 . S
O251 Cd242 2.356 . S
O251 C249 1.282 . S
C252 O253 1.306 . S
C252 O255 1.160 . S
O253 C252 1.306 . S
O253 Cd254 2.228 . S
Cd254 O253 2.228 . S
Cd254 O258 2.273 . S
Cd254 O262 2.277 . S
O255 C252 1.160 . S
O255 Cd256 2.204 . S
Cd256 O255 2.204 . S
Cd256 O258 2.413 . S
Cd256 O259 2.333 . S
Cd256 O260 2.330 1_545 S
Cd256 O264 2.294 . S
Cd256 O265 2.342 1_545 S
C257 O262 1.209 . S
C257 O264 1.226 . S
O258 Cd254 2.273 . S
O258 Cd256 2.413 . S
O258 C261 1.320 . S
O259 Cd256 2.333 . S
O259 C261 1.214 . S
O260 Cd256 2.330 1_565 S
O260 C263 1.258 . S
C261 O258 1.320 . S
C261 O259 1.214 . S
O262 Cd254 2.277 . S
O262 C257 1.209 . S
C263 O260 1.258 . S
C263 O265 1.282 . S
O264 Cd256 2.294 . S
O264 C257 1.226 . S
O265 Cd256 2.342 1_565 S
O265 C263 1.282 . S
C266 O267 1.306 1_565 S
C266 O269 1.160 . S
O267 C266 1.306 1_545 S
O267 Cd268 2.228 1_554 S
Cd268 O267 2.228 1_556 S
Cd268 O272 2.273 1_546 S
Cd268 O276 2.277 1_545 S
O269 C266 1.160 . S
O269 Cd270 2.203 . S
Cd270 O269 2.203 . S
Cd270 O272 2.411 . S
Cd270 O273 2.333 . S
Cd270 O274 2.352 . S
Cd270 O278 2.277 1_554 S
Cd270 O279 2.356 . S
C271 O276 1.209 . S
C271 O278 1.226 . S
O272 Cd268 2.273 1_564 S
O272 Cd270 2.411 . S
O272 C275 1.320 . S
O273 Cd270 2.333 . S
O273 C275 1.214 . S
O274 Cd270 2.352 . S
O274 C277 1.258 . S
C275 O272 1.320 . S
C275 O273 1.214 . S
O276 Cd268 2.277 1_565 S
O276 C271 1.209 . S
C277 O274 1.258 . S
C277 O279 1.282 . S
O278 Cd270 2.277 1_556 S
O278 C271 1.226 . S
O279 Cd270 2.356 . S
O279 C277 1.282 . S
C280 O281 1.306 . S
C280 O283 1.160 1_554 S
O281 C280 1.306 . S
O281 Cd282 2.228 . S
Cd282 O281 2.228 . S
Cd282 O286 2.273 . S
Cd282 O290 2.277 . S
O283 C280 1.160 1_556 S
O283 Cd284 2.203 . S
Cd284 O283 2.203 . S
Cd284 O286 2.411 1_556 S
Cd284 O287 2.333 . S
Cd284 O288 2.352 . S
Cd284 O292 2.277 1_556 S
Cd284 O293 2.356 . S
C285 O290 1.209 . S
C285 O292 1.226 . S
O286 Cd282 2.273 . S
O286 Cd284 2.411 1_554 S
O286 C289 1.320 . S
O287 Cd284 2.333 . S
O287 C289 1.214 1_556 S
O288 Cd284 2.352 . S
O288 C291 1.258 . S
C289 O286 1.320 . S
C289 O287 1.214 1_554 S
O290 Cd282 2.277 . S
O290 C285 1.209 . S
C291 O288 1.258 . S
C291 O293 1.282 . S
O292 Cd284 2.277 1_554 S
O292 C285 1.226 . S
O293 Cd284 2.356 . S
O293 C291 1.282 . S
C294 O295 1.306 . S
C294 O297 1.160 . S
O295 C294 1.306 . S
O295 Cd296 2.228 . S
Cd296 O295 2.228 . S
Cd296 O300 2.273 . S
Cd296 O304 2.277 . S
O297 C294 1.160 . S
O297 Cd298 2.203 . S
Cd298 O297 2.203 . S
Cd298 O300 2.411 . S
Cd298 O301 2.333 . S
Cd298 O302 2.352 . S
Cd298 O306 2.277 . S
Cd298 O307 2.356 . S
C299 O304 1.209 . S
C299 O306 1.226 . S
O300 Cd296 2.273 . S
O300 Cd298 2.411 . S
O300 C303 1.320 . S
O301 Cd298 2.333 . S
O301 C303 1.214 . S
O302 Cd298 2.352 . S
O302 C305 1.258 . S
C303 O300 1.320 . S
C303 O301 1.214 . S
O304 Cd296 2.277 . S
O304 C299 1.209 . S
C305 O302 1.258 . S
C305 O307 1.282 . S
O306 Cd298 2.277 . S
O306 C299 1.226 . S
O307 Cd298 2.356 . S
O307 C305 1.282 . S
C308 O309 1.306 . S
C308 O311 1.160 . S
O309 C308 1.306 . S
O309 Cd310 2.228 . S
Cd310 O309 2.228 . S
Cd310 O314 2.273 . S
Cd310 O318 2.277 . S
O311 C308 1.160 . S
O311 Cd312 2.203 . S
Cd312 O311 2.203 . S
Cd312 O314 2.411 . S
Cd312 O315 2.333 . S
Cd312 O316 2.352 . S
Cd312 O320 2.277 . S
Cd312 O321 2.356 . S
C313 O318 1.209 . S
C313 O320 1.226 . S
O314 Cd310 2.273 . S
O314 Cd312 2.411 . S
O314 C317 1.320 . S
O315 Cd312 2.333 . S
O315 C317 1.214 . S
O316 Cd312 2.352 . S
O316 C319 1.258 . S
C317 O314 1.320 . S
C317 O315 1.214 . S
O318 Cd310 2.277 . S
O318 C313 1.209 . S
C319 O316 1.258 . S
C319 O321 1.282 . S
O320 Cd312 2.277 . S
O320 C313 1.226 . S
O321 Cd312 2.356 . S
O321 C319 1.282 . S
C322 O323 1.306 . S
C322 O325 1.160 . S
O323 C322 1.306 . S
O323 Cd324 2.228 . S
Cd324 O323 2.228 . S
Cd324 O328 2.273 . S
Cd324 O332 2.277 . S
O325 C322 1.160 . S
O325 Cd326 2.203 . S
Cd326 O325 2.203 . S
Cd326 O328 2.411 . S
Cd326 O329 2.333 . S
Cd326 O330 2.352 . S
Cd326 O334 2.277 . S
Cd326 O335 2.356 . S
C327 O332 1.209 . S
C327 O334 1.226 . S
O328 Cd324 2.273 . S
O328 Cd326 2.411 . S
O328 C331 1.320 . S
O329 Cd326 2.333 . S
O329 C331 1.214 . S
O330 Cd326 2.352 . S
O330 C333 1.258 . S
C331 O328 1.320 . S
C331 O329 1.214 . S
O332 Cd324 2.277 . S
O332 C327 1.209 . S
C333 O330 1.258 . S
C333 O335 1.282 . S
O334 Cd326 2.277 . S
O334 C327 1.226 . S
O335 Cd326 2.356 . S
O335 C333 1.282 . S
Co336 N341 2.057 1_554 S
Co336 O353 2.021 1_544 S
Co336 O356 2.062 1_455 S
Co336 O360 2.117 . S
Co336 O361 2.020 . S
C337 O357 1.259 . S
C337 O360 1.258 . S
Co338 N347 2.057 . S
Co338 O354 2.117 1_545 S
Co338 O355 2.020 1_455 S
Co338 O357 2.021 . S
Co338 O362 2.062 . S
C339 N341 1.316 . S
C339 N342 1.347 1_455 S
C339 H344 0.931 . S
C340 N341 1.375 . S
C340 C343 1.350 1_455 S
C340 H345 0.930 . S
N341 Co336 2.057 1_556 S
N341 C339 1.316 . S
N341 C340 1.375 . S
N342 C339 1.347 1_655 S
N342 C343 1.373 . S
C343 C340 1.350 1_655 S
C343 N342 1.373 . S
C343 H364 0.931 . S
H344 C339 0.931 . S
H345 C340 0.930 . S
C346 O353 1.259 1_554 S
C346 O354 1.258 . S
N347 Co338 2.057 . S
N347 C348 1.316 . S
N347 C349 1.375 1_545 S
C348 N347 1.316 . S
C348 N350 1.347 1_545 S
C348 H359 0.931 . S
C349 N347 1.375 1_565 S
C349 C351 1.350 . S
C349 H358 0.930 . S
N350 C348 1.347 1_565 S
N350 C351 1.373 . S
C351 C349 1.350 . S
C351 N350 1.373 . S
C351 H365 0.931 . S
C352 O355 1.256 . S
C352 O356 1.255 . S
O353 Co336 2.021 1_566 S
O353 C346 1.259 1_556 S
O354 Co338 2.117 1_565 S
O354 C346 1.258 . S
O355 Co338 2.020 1_655 S
O355 C352 1.256 . S
O356 Co336 2.062 1_655 S
O356 C352 1.255 . S
O357 C337 1.259 . S
O357 Co338 2.021 . S
H358 C349 0.930 . S
H359 C348 0.931 . S
O360 Co336 2.117 . S
O360 C337 1.258 . S
O361 Co336 2.020 . S
O361 C363 1.256 . S
O362 Co338 2.062 . S
O362 C363 1.255 . S
C363 O361 1.256 . S
C363 O362 1.255 . S
H364 C343 0.931 . S
H365 C351 0.931 . S
Co366 N371 2.057 . S
Co366 O383 2.021 . S
Co366 O386 2.062 . S
Co366 O390 2.117 . S
Co366 O391 2.020 . S
C367 O387 1.259 . S
C367 O390 1.258 . S
Co368 N377 2.057 . S
Co368 O384 2.117 . S
Co368 O385 2.020 . S
Co368 O387 2.021 . S
Co368 O392 2.062 . S
C369 N371 1.316 . S
C369 N372 1.347 . S
C369 H374 0.931 . S
C370 N371 1.375 . S
C370 C373 1.350 . S
C370 H375 0.930 . S
N371 Co366 2.057 . S
N371 C369 1.316 . S
N371 C370 1.375 . S
N372 C369 1.347 . S
N372 C373 1.373 . S
C373 C370 1.350 . S
C373 N372 1.373 . S
C373 H394 0.931 . S
H374 C369 0.931 . S
H375 C370 0.930 . S
C376 O383 1.259 . S
C376 O384 1.258 . S
N377 Co368 2.057 . S
N377 C378 1.316 . S
N377 C379 1.375 . S
C378 N377 1.316 . S
C378 N380 1.347 . S
C378 H389 0.931 . S
C379 N377 1.375 . S
C379 C381 1.350 . S
C379 H388 0.930 . S
N380 C378 1.347 . S
N380 C381 1.373 . S
C381 C379 1.350 . S
C381 N380 1.373 . S
C381 H395 0.931 . S
C382 O385 1.256 . S
C382 O386 1.255 . S
O383 Co366 2.021 . S
O383 C376 1.259 . S
O384 Co368 2.117 . S
O384 C376 1.258 . S
O385 Co368 2.020 . S
O385 C382 1.256 . S
O386 Co366 2.062 . S
O386 C382 1.255 . S
O387 C367 1.259 . S
O387 Co368 2.021 . S
H388 C379 0.930 . S
H389 C378 0.931 . S
O390 Co366 2.117 . S
O390 C367 1.258 . S
O391 Co366 2.020 . S
O391 C393 1.256 . S
O392 Co368 2.062 . S
O392 C393 1.255 . S
C393 O391 1.256 . S
C393 O392 1.255 . S
H394 C373 0.931 . S
H395 C381 0.931 . S
Co396 N401 2.057 . S
Co396 O413 2.021 1_545 S
Co396 O416 2.062 . S
Co396 O420 2.117 . S
Co396 O421 2.020 . S
C397 O417 1.259 . S
C397 O420 1.258 . S
Co398 N407 2.057 . S
Co398 O414 2.117 . S
Co398 O415 2.020 . S
Co398 O417 2.021 . S
Co398 O422 2.062 . S
C399 N401 1.316 1_565 S
C399 N402 1.347 1_565 S
C399 H404 0.931 . S
C400 N401 1.375 . S
C400 C403 1.350 . S
C400 H405 0.930 . S
N401 Co396 2.057 . S
N401 C399 1.316 1_545 S
N401 C400 1.375 . S
N402 C399 1.347 1_545 S
N402 C403 1.373 . S
C403 C400 1.350 . S
C403 N402 1.373 . S
C403 H424 0.931 . S
H404 C399 0.931 . S
H405 C400 0.930 . S
C406 O413 1.259 . S
C406 O414 1.258 1_565 S
N407 Co398 2.057 . S
N407 C408 1.316 . S
N407 C409 1.375 . S
C408 N407 1.316 . S
C408 N410 1.347 . S
C408 H419 0.931 . S
C409 N407 1.375 . S
C409 C411 1.350 . S
C409 H418 0.930 . S
N410 C408 1.347 . S
N410 C411 1.373 . S
C411 C409 1.350 . S
C411 N410 1.373 . S
C411 H425 0.931 . S
C412 O415 1.256 . S
C412 O416 1.255 . S
O413 Co396 2.021 1_565 S
O413 C406 1.259 . S
O414 Co398 2.117 . S
O414 C406 1.258 1_545 S
O415 Co398 2.020 . S
O415 C412 1.256 . S
O416 Co396 2.062 . S
O416 C412 1.255 . S
O417 C397 1.259 . S
O417 Co398 2.021 . S
H418 C409 0.930 . S
H419 C408 0.931 . S
O420 Co396 2.117 . S
O420 C397 1.258 . S
O421 Co396 2.020 . S
O421 C423 1.256 . S
O422 Co398 2.062 . S
O422 C423 1.255 . S
C423 O421 1.256 . S
C423 O422 1.255 . S
H424 C403 0.931 . S
H425 C411 0.931 . S
Co426 N431 2.057 . S
Co426 O443 2.021 . S
Co426 O446 2.062 . S
Co426 O450 2.117 . S
Co426 O451 2.020 . S
C427 O447 1.259 . S
C427 O450 1.258 . S
Co428 N437 2.057 . S
Co428 O444 2.117 . S
Co428 O445 2.020 . S
Co428 O447 2.021 . S
Co428 O452 2.062 . S
C429 N431 1.316 . S
C429 N432 1.347 . S
C429 H434 0.931 . S
C430 N431 1.375 . S
C430 C433 1.350 . S
C430 H435 0.930 . S
N431 Co426 2.057 . S
N431 C429 1.316 . S
N431 C430 1.375 . S
N432 C429 1.347 . S
N432 C433 1.373 . S
C433 C430 1.350 . S
C433 N432 1.373 . S
C433 H454 0.931 . S
H434 C429 0.931 . S
H435 C430 0.930 . S
C436 O443 1.259 . S
C436 O444 1.258 . S
N437 Co428 2.057 . S
N437 C438 1.316 . S
N437 C439 1.375 . S
C438 N437 1.316 . S
C438 N440 1.347 . S
C438 H449 0.931 . S
C439 N437 1.375 . S
C439 C441 1.350 . S
C439 H448 0.930 . S
N440 C438 1.347 . S
N440 C441 1.373 . S
C441 C439 1.350 . S
C441 N440 1.373 . S
C441 H455 0.931 . S
C442 O445 1.256 . S
C442 O446 1.255 . S
O443 Co426 2.021 . S
O443 C436 1.259 . S
O444 Co428 2.117 . S
O444 C436 1.258 . S
O445 Co428 2.020 . S
O445 C442 1.256 . S
O446 Co426 2.062 . S
O446 C442 1.255 . S
O447 C427 1.259 . S
O447 Co428 2.021 . S
H448 C439 0.930 . S
H449 C438 0.931 . S
O450 Co426 2.117 . S
O450 C427 1.258 . S
O451 Co426 2.020 . S
O451 C453 1.256 . S
O452 Co428 2.062 . S
O452 C453 1.255 . S
C453 O451 1.256 . S
C453 O452 1.255 . S
H454 C433 0.931 . S
H455 C441 0.931 . S
Co456 N461 2.057 1_545 S
Co456 O473 2.021 . S
Co456 O476 2.062 1_545 S
Co456 O480 2.117 . S
Co456 O481 2.020 1_455 S
C457 O477 1.259 . S
C457 O480 1.258 . S
Co458 N467 2.057 . S
Co458 O474 2.117 . S
Co458 O475 2.020 . S
Co458 O477 2.021 . S
Co458 O482 2.060 . S
C459 N461 1.316 . S
C459 N462 1.347 . S
C459 H464 0.931 . S
C460 N461 1.375 1_655 S
C460 C463 1.350 . S
C460 H465 0.930 . S
N461 Co456 2.057 1_565 S
N461 C459 1.316 . S
N461 C460 1.375 1_455 S
N462 C459 1.347 . S
N462 C463 1.373 1_455 S
C463 C460 1.350 . S
C463 N462 1.373 1_655 S
C463 H484 0.931 . S
H464 C459 0.931 . S
H465 C460 0.930 . S
C466 O473 1.259 . S
C466 O474 1.258 . S
N467 Co458 2.057 . S
N467 C468 1.316 . S
N467 C469 1.375 . S
C468 N467 1.316 . S
C468 N470 1.347 . S
C468 H479 0.931 . S
C469 N467 1.375 . S
C469 C471 1.350 . S
C469 H478 0.930 . S
N470 C468 1.347 . S
N470 C471 1.373 . S
C471 C469 1.350 . S
C471 N470 1.373 . S
C471 H485 0.931 . S
C472 O475 1.256 . S
C472 O476 1.255 1_545 S
O473 Co456 2.021 . S
O473 C466 1.259 . S
O474 Co458 2.117 . S
O474 C466 1.258 . S
O475 Co458 2.020 . S
O475 C472 1.256 . S
O476 Co456 2.062 1_565 S
O476 C472 1.255 1_565 S
O477 C457 1.259 . S
O477 Co458 2.021 . S
H478 C469 0.930 . S
H479 C468 0.931 . S
O480 Co456 2.117 . S
O480 C457 1.258 . S
O481 Co456 2.020 1_655 S
O481 C483 1.256 . S
O482 Co458 2.060 . S
O482 C483 1.256 1_455 S
C483 O481 1.256 . S
C483 O482 1.256 1_655 S
H484 C463 0.931 . S
H485 C471 0.931 . S
Co486 N491 2.057 . S
Co486 O503 2.021 . S
Co486 O506 2.062 . S
Co486 O510 2.117 . S
Co486 O511 2.020 . S
C487 O507 1.259 . S
C487 O510 1.258 . S
Co488 N497 2.057 . S
Co488 O504 2.117 . S
Co488 O505 2.020 . S
Co488 O507 2.021 . S
Co488 O512 2.062 . S
C489 N491 1.316 . S
C489 N492 1.347 . S
C489 H494 0.931 . S
C490 N491 1.375 . S
C490 C493 1.350 . S
C490 H495 0.930 . S
N491 Co486 2.057 . S
N491 C489 1.316 . S
N491 C490 1.375 . S
N492 C489 1.347 . S
N492 C493 1.373 . S
C493 C490 1.350 . S
C493 N492 1.373 . S
C493 H514 0.931 1_565 S
H494 C489 0.931 . S
H495 C490 0.930 . S
C496 O503 1.259 . S
C496 O504 1.258 . S
N497 Co488 2.057 . S
N497 C498 1.316 . S
N497 C499 1.375 . S
C498 N497 1.316 . S
C498 N500 1.347 . S
C498 H509 0.931 . S
C499 N497 1.375 . S
C499 C501 1.350 . S
C499 H508 0.930 . S
N500 C498 1.347 . S
N500 C501 1.373 . S
C501 C499 1.350 . S
C501 N500 1.373 . S
C501 H515 0.931 . S
C502 O505 1.256 . S
C502 O506 1.255 . S
O503 Co486 2.021 . S
O503 C496 1.259 . S
O504 Co488 2.117 . S
O504 C496 1.258 . S
O505 Co488 2.020 . S
O505 C502 1.256 . S
O506 Co486 2.062 . S
O506 C502 1.255 . S
O507 C487 1.259 . S
O507 Co488 2.021 . S
H508 C499 0.930 . S
H509 C498 0.931 . S
O510 Co486 2.117 . S
O510 C487 1.258 . S
O511 Co486 2.020 . S
O511 C513 1.256 . S
O512 Co488 2.062 . S
O512 C513 1.255 . S
C513 O511 1.256 . S
C513 O512 1.255 . S
H514 C493 0.931 1_545 S
H515 C501 0.931 . S
Co516 N521 2.057 1_554 S
Co516 O533 2.021 . S
Co516 O536 2.062 1_554 S
Co516 O540 2.117 . S
Co516 O541 2.020 1_545 S
C517 O537 1.259 . S
C517 O540 1.258 . S
Co518 N527 2.057 . S
Co518 O534 2.117 . S
Co518 O535 2.020 . S
Co518 O537 2.021 . S
Co518 O542 2.062 1_545 S
C519 N521 1.316 . S
C519 N522 1.347 . S
C519 H524 0.931 . S
C520 N521 1.375 1_565 S
C520 C523 1.350 . S
C520 H525 0.930 . S
N521 Co516 2.057 1_556 S
N521 C519 1.316 . S
N521 C520 1.375 1_545 S
N522 C519 1.347 . S
N522 C523 1.373 1_545 S
C523 C520 1.350 . S
C523 N522 1.373 1_565 S
C523 H544 0.931 . S
H524 C519 0.931 . S
H525 C520 0.930 . S
C526 O533 1.259 . S
C526 O534 1.258 . S
N527 Co518 2.057 . S
N527 C528 1.316 . S
N527 C529 1.375 . S
C528 N527 1.316 . S
C528 N530 1.347 . S
C528 H539 0.931 . S
C529 N527 1.375 . S
C529 C531 1.350 . S
C529 H538 0.930 . S
N530 C528 1.347 . S
N530 C531 1.373 . S
C531 C529 1.350 . S
C531 N530 1.373 . S
C531 H545 0.931 . S
C532 O535 1.256 . S
C532 O536 1.255 1_554 S
O533 Co516 2.021 . S
O533 C526 1.259 . S
O534 Co518 2.117 . S
O534 C526 1.258 . S
O535 Co518 2.020 . S
O535 C532 1.256 . S
O536 Co516 2.062 1_556 S
O536 C532 1.255 1_556 S
O537 C517 1.259 . S
O537 Co518 2.021 . S
H538 C529 0.930 . S
H539 C528 0.931 . S
O540 Co516 2.117 . S
O540 C517 1.258 . S
O541 Co516 2.020 1_565 S
O541 C543 1.256 . S
O542 Co518 2.062 1_565 S
O542 C543 1.255 . S
C543 O541 1.256 . S
C543 O542 1.255 . S
H544 C523 0.931 . S
H545 C531 0.931 . S
Co546 N551 2.057 . S
Co546 O563 2.021 . S
Co546 O566 2.062 . S
Co546 O570 2.117 . S
Co546 O571 2.020 . S
C547 O567 1.259 . S
C547 O570 1.258 . S
Co548 N557 2.057 . S
Co548 O564 2.117 . S
Co548 O565 2.020 . S
Co548 O567 2.021 . S
Co548 O572 2.062 . S
C549 N551 1.316 . S
C549 N552 1.347 . S
C549 H554 0.931 . S
C550 N551 1.375 . S
C550 C553 1.350 . S
C550 H555 0.930 . S
N551 Co546 2.057 . S
N551 C549 1.316 . S
N551 C550 1.375 . S
N552 C549 1.347 . S
N552 C553 1.373 . S
C553 C550 1.350 . S
C553 N552 1.373 . S
C553 H574 0.931 . S
H554 C549 0.931 . S
H555 C550 0.930 . S
C556 O563 1.259 . S
C556 O564 1.258 . S
N557 Co548 2.057 . S
N557 C558 1.316 . S
N557 C559 1.375 . S
C558 N557 1.316 . S
C558 N560 1.347 . S
C558 H569 0.931 . S
C559 N557 1.375 . S
C559 C561 1.350 . S
C559 H568 0.930 . S
N560 C558 1.347 . S
N560 C561 1.373 . S
C561 C559 1.350 . S
C561 N560 1.373 . S
C561 H575 0.931 . S
C562 O565 1.256 . S
C562 O566 1.255 . S
O563 Co546 2.021 . S
O563 C556 1.259 . S
O564 Co548 2.117 . S
O564 C556 1.258 . S
O565 Co548 2.020 . S
O565 C562 1.256 . S
O566 Co546 2.062 . S
O566 C562 1.255 . S
O567 C547 1.259 . S
O567 Co548 2.021 . S
H568 C559 0.930 . S
H569 C558 0.931 . S
O570 Co546 2.117 . S
O570 C547 1.258 . S
O571 Co546 2.020 . S
O571 C573 1.256 . S
O572 Co548 2.062 . S
O572 C573 1.255 . S
C573 O571 1.256 . S
C573 O572 1.255 . S
H574 C553 0.931 . S
H575 C561 0.931 . S
Co576 N581 2.057 . S
Co576 O593 2.021 1_554 S
Co576 O596 2.062 . S
Co576 O600 2.117 . S
Co576 O601 2.020 . S
C577 O597 1.259 . S
C577 O600 1.258 . S
Co578 N587 2.057 . S
Co578 O594 2.117 . S
Co578 O595 2.020 . S
Co578 O597 2.021 . S
Co578 O602 2.062 . S
C579 N581 1.316 . S
C579 N582 1.347 . S
C579 H584 0.931 1_554 S
C580 N581 1.375 . S
C580 C583 1.350 . S
C580 H585 0.930 . S
N581 Co576 2.057 . S
N581 C579 1.316 . S
N581 C580 1.375 . S
N582 C579 1.347 . S
N582 C583 1.373 . S
C583 C580 1.350 . S
C583 N582 1.373 . S
C583 H604 0.931 . S
H584 C579 0.931 1_556 S
H585 C580 0.930 . S
C586 O593 1.259 . S
C586 O594 1.258 1_556 S
N587 Co578 2.057 . S
N587 C588 1.316 . S
N587 C589 1.375 . S
C588 N587 1.316 . S
C588 N590 1.347 . S
C588 H599 0.931 . S
C589 N587 1.375 . S
C589 C591 1.350 . S
C589 H598 0.930 . S
N590 C588 1.347 . S
N590 C591 1.373 . S
C591 C589 1.350 . S
C591 N590 1.373 . S
C591 H605 0.931 . S
C592 O595 1.256 . S
C592 O596 1.255 . S
O593 Co576 2.021 1_556 S
O593 C586 1.259 . S
O594 Co578 2.117 . S
O594 C586 1.258 1_554 S
O595 Co578 2.020 . S
O595 C592 1.256 . S
O596 Co576 2.062 . S
O596 C592 1.255 . S
O597 C577 1.259 . S
O597 Co578 2.021 . S
H598 C589 0.930 . S
H599 C588 0.931 . S
O600 Co576 2.117 . S
O600 C577 1.258 . S
O601 Co576 2.020 . S
O601 C603 1.256 . S
O602 Co578 2.062 . S
O602 C603 1.255 . S
C603 O601 1.256 . S
C603 O602 1.255 . S
H604 C583 0.931 . S
H605 C591 0.931 . S
Co606 N611 2.057 . S
Co606 O623 2.021 . S
Co606 O626 2.062 . S
Co606 O630 2.117 . S
Co606 O631 2.020 . S
C607 O627 1.259 . S
C607 O630 1.258 . S
Co608 N617 2.057 . S
Co608 O624 2.117 . S
Co608 O625 2.020 . S
Co608 O627 2.021 . S
Co608 O632 2.062 . S
C609 N611 1.316 . S
C609 N612 1.347 . S
C609 H614 0.931 . S
C610 N611 1.375 . S
C610 C613 1.350 . S
C610 H615 0.930 . S
N611 Co606 2.057 . S
N611 C609 1.316 . S
N611 C610 1.375 . S
N612 C609 1.347 . S
N612 C613 1.373 . S
C613 C610 1.350 . S
C613 N612 1.373 . S
C613 H634 0.931 . S
H614 C609 0.931 . S
H615 C610 0.930 . S
C616 O623 1.259 . S
C616 O624 1.258 . S
N617 Co608 2.057 . S
N617 C618 1.316 . S
N617 C619 1.375 . S
C618 N617 1.316 . S
C618 N620 1.347 . S
C618 H629 0.931 . S
C619 N617 1.375 . S
C619 C621 1.350 . S
C619 H628 0.930 . S
N620 C618 1.347 . S
N620 C621 1.373 . S
C621 C619 1.350 . S
C621 N620 1.373 . S
C621 H635 0.931 . S
C622 O625 1.256 . S
C622 O626 1.255 . S
O623 Co606 2.021 . S
O623 C616 1.259 . S
O624 Co608 2.117 . S
O624 C616 1.258 . S
O625 Co608 2.020 . S
O625 C622 1.256 . S
O626 Co606 2.062 . S
O626 C622 1.255 . S
O627 C607 1.259 . S
O627 Co608 2.021 . S
H628 C619 0.930 . S
H629 C618 0.931 . S
O630 Co606 2.117 . S
O630 C607 1.258 . S
O631 Co606 2.020 . S
O631 C633 1.256 . S
O632 Co608 2.062 . S
O632 C633 1.255 . S
C633 O631 1.256 . S
C633 O632 1.255 . S
H634 C613 0.931 . S
H635 C621 0.931 . S
Co636 N641 2.057 . S
Co636 O653 2.021 1_455 S
Co636 O656 2.062 . S
Co636 O660 2.117 . S
Co636 O661 2.020 . S
C637 O657 1.259 . S
C637 O660 1.258 . S
Co638 N647 2.057 . S
Co638 O654 2.117 . S
Co638 O655 2.020 . S
Co638 O657 2.021 . S
Co638 O662 2.062 . S
C639 N641 1.316 1_655 S
C639 N642 1.347 1_655 S
C639 H644 0.931 . S
C640 N641 1.375 . S
C640 C643 1.350 . S
C640 H645 0.930 . S
N641 Co636 2.057 . S
N641 C639 1.316 1_455 S
N641 C640 1.375 . S
N642 C639 1.347 1_455 S
N642 C643 1.373 . S
C643 C640 1.350 . S
C643 N642 1.373 . S
C643 H664 0.931 . S
H644 C639 0.931 . S
H645 C640 0.930 . S
C646 O653 1.259 . S
C646 O654 1.258 1_655 S
N647 Co638 2.057 . S
N647 C648 1.316 . S
N647 C649 1.375 . S
C648 N647 1.316 . S
C648 N650 1.347 . S
C648 H659 0.931 . S
C649 N647 1.375 . S
C649 C651 1.350 . S
C649 H658 0.930 . S
N650 C648 1.347 . S
N650 C651 1.373 . S
C651 C649 1.350 . S
C651 N650 1.373 . S
C651 H665 0.931 . S
C652 O655 1.256 . S
C652 O656 1.255 . S
O653 Co636 2.021 1_655 S
O653 C646 1.259 . S
O654 Co638 2.117 . S
O654 C646 1.258 1_455 S
O655 Co638 2.020 . S
O655 C652 1.256 . S
O656 Co636 2.062 . S
O656 C652 1.255 . S
O657 C637 1.259 . S
O657 Co638 2.021 . S
H658 C649 0.930 . S
H659 C648 0.931 . S
O660 Co636 2.117 . S
O660 C637 1.258 . S
O661 Co636 2.020 . S
O661 C663 1.256 . S
O662 Co638 2.062 . S
O662 C663 1.255 . S
C663 O661 1.256 . S
C663 O662 1.255 . S
H664 C643 0.931 . S
H665 C651 0.931 . S
Co666 N671 2.057 . S
Co666 O683 2.021 . S
Co666 O686 2.062 . S
Co666 O690 2.117 . S
Co666 O691 2.020 . S
C667 O687 1.259 . S
C667 O690 1.258 . S
Co668 N677 2.057 . S
Co668 O684 2.117 . S
Co668 O685 2.020 . S
Co668 O687 2.021 . S
Co668 O692 2.062 . S
C669 N671 1.316 . S
C669 N672 1.347 1_655 S
C669 H674 0.931 . S
C670 N671 1.375 . S
C670 C673 1.350 1_655 S
C670 H675 0.930 . S
N671 Co666 2.057 . S
N671 C669 1.316 . S
N671 C670 1.375 . S
N672 C669 1.347 1_455 S
N672 C673 1.373 . S
C673 C670 1.350 1_455 S
C673 N672 1.373 . S
C673 H694 0.931 . S
H674 C669 0.931 . S
H675 C670 0.930 . S
C676 O683 1.259 . S
C676 O684 1.258 . S
N677 Co668 2.057 . S
N677 C678 1.316 . S
N677 C679 1.375 . S
C678 N677 1.316 . S
C678 N680 1.347 . S
C678 H689 0.931 . S
C679 N677 1.375 . S
C679 C681 1.350 . S
C679 H688 0.930 . S
N680 C678 1.347 . S
N680 C681 1.373 . S
C681 C679 1.350 . S
C681 N680 1.373 . S
C681 H695 0.931 . S
C682 O685 1.256 . S
C682 O686 1.255 . S
O683 Co666 2.021 . S
O683 C676 1.259 . S
O684 Co668 2.117 . S
O684 C676 1.258 . S
O685 Co668 2.020 . S
O685 C682 1.256 . S
O686 Co666 2.062 . S
O686 C682 1.255 . S
O687 C667 1.259 . S
O687 Co668 2.021 . S
H688 C679 0.930 . S
H689 C678 0.931 . S
O690 Co666 2.117 . S
O690 C667 1.258 . S
O691 Co666 2.020 . S
O691 C693 1.256 . S
O692 Co668 2.062 . S
O692 C693 1.255 . S
C693 O691 1.256 . S
C693 O692 1.255 . S
H694 C673 0.931 . S
H695 C681 0.931 . S
Co696 N701 2.057 . S
Co696 O713 2.021 . S
Co696 O716 2.062 . S
Co696 O720 2.117 . S
Co696 O721 2.020 . S
C697 O717 1.259 . S
C697 O720 1.258 . S
Co698 N707 2.057 . S
Co698 O714 2.117 . S
Co698 O715 2.020 . S
Co698 O717 2.021 . S
Co698 O722 2.062 . S
C699 N701 1.316 . S
C699 N702 1.347 1_556 S
C699 H704 0.931 . S
C700 N701 1.375 . S
C700 C703 1.350 . S
C700 H705 0.930 . S
N701 Co696 2.057 . S
N701 C699 1.316 . S
N701 C700 1.375 . S
N702 C699 1.347 1_554 S
N702 C703 1.373 1_554 S
C703 C700 1.350 . S
C703 N702 1.373 1_556 S
C703 H724 0.931 1_556 S
H704 C699 0.931 . S
H705 C700 0.930 . S
C706 O713 1.259 . S
C706 O714 1.258 . S
N707 Co698 2.057 . S
N707 C708 1.316 . S
N707 C709 1.375 . S
C708 N707 1.316 . S
C708 N710 1.347 . S
C708 H719 0.931 . S
C709 N707 1.375 . S
C709 C711 1.350 . S
C709 H718 0.930 . S
N710 C708 1.347 . S
N710 C711 1.373 . S
C711 C709 1.350 . S
C711 N710 1.373 . S
C711 H725 0.931 . S
C712 O715 1.256 . S
C712 O716 1.255 . S
O713 Co696 2.021 . S
O713 C706 1.259 . S
O714 Co698 2.117 . S
O714 C706 1.258 . S
O715 Co698 2.020 . S
O715 C712 1.256 . S
O716 Co696 2.062 . S
O716 C712 1.255 . S
O717 C697 1.259 . S
O717 Co698 2.021 . S
H718 C709 0.930 . S
H719 C708 0.931 . S
O720 Co696 2.117 . S
O720 C697 1.258 . S
O721 Co696 2.020 . S
O721 C723 1.256 . S
O722 Co698 2.062 . S
O722 C723 1.255 . S
C723 O721 1.256 . S
C723 O722 1.255 . S
H724 C703 0.931 1_554 S
H725 C711 0.931 . S
Co726 N731 2.057 . S
Co726 O743 2.021 . S
Co726 O746 2.062 . S
Co726 O750 2.117 . S
Co726 O751 2.020 . S
C727 O747 1.259 . S
C727 O750 1.258 . S
Co728 N737 2.057 . S
Co728 O744 2.117 . S
Co728 O745 2.020 . S
Co728 O747 2.021 . S
Co728 O752 2.062 . S
C729 N731 1.316 . S
C729 N732 1.347 . S
C729 H734 0.931 . S
C730 N731 1.375 . S
C730 C733 1.350 . S
C730 H735 0.930 . S
N731 Co726 2.057 . S
N731 C729 1.316 . S
N731 C730 1.375 . S
N732 C729 1.347 . S
N732 C733 1.373 . S
C733 C730 1.350 . S
C733 N732 1.373 . S
C733 H754 0.931 . S
H734 C729 0.931 . S
H735 C730 0.930 . S
C736 O743 1.259 . S
C736 O744 1.258 . S
N737 Co728 2.057 . S
N737 C738 1.316 . S
N737 C739 1.375 . S
C738 N737 1.316 . S
C738 N740 1.347 . S
C738 H749 0.931 . S
C739 N737 1.375 . S
C739 C741 1.350 . S
C739 H748 0.930 . S
N740 C738 1.347 . S
N740 C741 1.373 . S
C741 C739 1.350 . S
C741 N740 1.373 . S
C741 H755 0.931 1_565 S
C742 O745 1.256 . S
C742 O746 1.255 . S
O743 Co726 2.021 . S
O743 C736 1.259 . S
O744 Co728 2.117 . S
O744 C736 1.258 . S
O745 Co728 2.020 . S
O745 C742 1.256 . S
O746 Co726 2.062 . S
O746 C742 1.255 . S
O747 C727 1.259 . S
O747 Co728 2.021 . S
H748 C739 0.930 . S
H749 C738 0.931 . S
O750 Co726 2.117 . S
O750 C727 1.258 . S
O751 Co726 2.020 . S
O751 C753 1.256 . S
O752 Co728 2.062 . S
O752 C753 1.255 . S
C753 O751 1.256 . S
C753 O752 1.255 . S
H754 C733 0.931 . S
H755 C741 0.931 1_545 S
Co756 N761 2.057 . S
Co756 O773 2.021 . S
Co756 O776 2.062 . S
Co756 O780 2.117 . S
Co756 O781 2.020 . S
C757 O777 1.259 . S
C757 O780 1.258 . S
Co758 N767 2.057 . S
Co758 O774 2.117 . S
Co758 O775 2.020 . S
Co758 O777 2.021 . S
Co758 O782 2.062 . S
C759 N761 1.316 . S
C759 N762 1.347 . S
C759 H764 0.931 . S
C760 N761 1.375 . S
C760 C763 1.350 . S
C760 H765 0.930 . S
N761 Co756 2.057 . S
N761 C759 1.316 . S
N761 C760 1.375 . S
N762 C759 1.347 . S
N762 C763 1.373 . S
C763 C760 1.350 . S
C763 N762 1.373 . S
C763 H784 0.931 . S
H764 C759 0.931 . S
H765 C760 0.930 . S
C766 O773 1.259 . S
C766 O774 1.258 . S
N767 Co758 2.057 . S
N767 C768 1.316 . S
N767 C769 1.375 . S
C768 N767 1.316 . S
C768 N770 1.347 . S
C768 H779 0.931 . S
C769 N767 1.375 . S
C769 C771 1.350 . S
C769 H778 0.930 . S
N770 C768 1.347 . S
N770 C771 1.373 . S
C771 C769 1.350 . S
C771 N770 1.373 . S
C771 H785 0.931 . S
C772 O775 1.256 . S
C772 O776 1.255 . S
O773 Co756 2.021 . S
O773 C766 1.259 . S
O774 Co758 2.117 . S
O774 C766 1.258 . S
O775 Co758 2.020 . S
O775 C772 1.256 . S
O776 Co756 2.062 . S
O776 C772 1.255 . S
O777 C757 1.259 . S
O777 Co758 2.021 . S
H778 C769 0.930 . S
H779 C768 0.931 . S
O780 Co756 2.117 . S
O780 C757 1.258 . S
O781 Co756 2.020 . S
O781 C783 1.256 . S
O782 Co758 2.062 . S
O782 C783 1.255 . S
C783 O781 1.256 . S
C783 O782 1.255 . S
H784 C763 0.931 . S
H785 C771 0.931 . S
Co786 N791 2.057 1_455 S
Co786 O803 2.021 . S
Co786 O806 2.062 1_455 S
Co786 O810 2.117 . S
Co786 O811 2.020 1_554 S
C787 O807 1.259 . S
C787 O810 1.258 . S
Co788 N797 2.057 . S
Co788 O804 2.117 . S
Co788 O805 2.020 . S
Co788 O807 2.021 . S
Co788 O812 2.062 1_554 S
C789 N791 1.316 . S
C789 N792 1.347 . S
C789 H794 0.931 . S
C790 N791 1.375 . S
C790 C793 1.350 . S
C790 H795 0.930 1_554 S
N791 Co786 2.057 1_655 S
N791 C789 1.316 . S
N791 C790 1.375 . S
N792 C789 1.347 . S
N792 C793 1.373 . S
C793 C790 1.350 . S
C793 N792 1.373 . S
C793 H814 0.931 1_554 S
H794 C789 0.931 . S
H795 C790 0.930 1_556 S
C796 O803 1.259 . S
C796 O804 1.258 . S
N797 Co788 2.057 . S
N797 C798 1.316 . S
N797 C799 1.375 . S
C798 N797 1.316 . S
C798 N800 1.347 . S
C798 H809 0.931 . S
C799 N797 1.375 . S
C799 C801 1.350 . S
C799 H808 0.930 . S
N800 C798 1.347 . S
N800 C801 1.373 . S
C801 C799 1.350 . S
C801 N800 1.373 . S
C801 H815 0.931 . S
C802 O805 1.256 . S
C802 O806 1.255 1_455 S
O803 Co786 2.021 . S
O803 C796 1.259 . S
O804 Co788 2.117 . S
O804 C796 1.258 . S
O805 Co788 2.020 . S
O805 C802 1.256 . S
O806 Co786 2.062 1_655 S
O806 C802 1.255 1_655 S
O807 C787 1.259 . S
O807 Co788 2.021 . S
H808 C799 0.930 . S
H809 C798 0.931 . S
O810 Co786 2.117 . S
O810 C787 1.258 . S
O811 Co786 2.020 1_556 S
O811 C813 1.256 . S
O812 Co788 2.062 1_556 S
O812 C813 1.255 . S
C813 O811 1.256 . S
C813 O812 1.255 . S
H814 C793 0.931 1_556 S
H815 C801 0.931 . S
C337 C5 2.576 . S
C23 C382 1.300 . S
C39 C406 2.105 . S
N432 C42 1.902 . S
C19 N462 2.567 . S
C496 C28 1.949 . S
C532 C53 1.423 1_554 S
C9 C556 2.536 . S
C65 N350 1.108 1_545 S
C75 N372 2.594 . S
C412 C93 1.218 . S
C436 C109 2.165 . S
C56 C466 1.413 . S
C502 C81 1.497 . S
N522 C84 1.938 . S
C562 C103 2.474 . S
C363 C107 2.422 . S
C592 C121 1.365 . S
C131 N612 2.289 . S
C646 C140 1.985 . S
C61 N552 1.092 . S
N402 C70 1.907 1_545 S
C137 C682 1.141 . S
C706 C165 1.368 . S
C173 C346 2.566 1_556 S
C723 C182 1.028 . S
C207 C397 2.103 . S
C219 N680 2.137 . S
N470 C187 2.493 . S
C607 C205 1.994 . S
C543 C221 1.339 . S
C727 C168 2.503 . S
N342 C224 1.187 . S
C243 N710 2.580 . S
C423 C252 0.999 . S
C277 C667 2.148 . S
C233 C457 1.668 1_655 S
C249 C633 1.412 . S
N530 C261 2.131 . S
C271 C753 2.464 . S
C266 C352 2.405 1_565 S
C280 C603 1.140 . S
C299 N500 2.212 . S
C317 C637 2.009 . S
N740 C229 1.092 1_565 S
N410 C247 2.166 . S
C453 C305 1.044 . S
C367 C333 1.537 . S
C33 C757 2.576 . S
C712 C51 1.300 . S
C796 C11 2.105 . S
C14 N672 1.902 . S
C47 N582 2.567 1_556 S
C616 C0 1.949 . S
C652 C25 1.423 . S
C736 C37 2.537 . S
N770 C163 1.108 . S
C117 N702 2.594 . S
C135 C802 1.219 1_655 S
C676 C151 2.165 . S
C586 C154 1.412 . S
C123 C622 1.497 . S
N642 C126 1.938 1_455 S
C145 C742 2.474 . S
C783 C149 2.421 . S
C472 C79 1.365 1_545 S
N492 C89 2.290 1_565 S
C98 C526 1.986 . S
N732 C159 1.092 . S
C112 N792 1.907 . S
C442 C95 1.141 . S
C376 C67 1.368 . S
C201 C766 2.567 . S
C393 C210 1.027 . S
C787 C179 2.103 1_554 S
C191 N440 2.137 . S
C215 N590 2.496 . S
C177 C487 1.994 . S
C193 C663 1.338 . S
C196 C547 2.503 . S
N762 C322 1.187 . S
C285 N380 2.580 . S
C813 C294 0.999 . S
C319 C427 2.147 . S
C331 C577 1.668 . S
C513 C291 1.412 . S
C303 N650 2.132 . S
C573 C313 2.465 . S
C772 C308 2.405 . S
C483 C238 1.140 . S
C257 N620 2.213 . S
C517 C275 2.008 1_545 S
N560 C327 1.092 . S
C289 N800 2.166 . S
C693 C263 1.045 . S
C697 C235 1.537 . S
