# Generated by pormake.
# Topology gar, (4,6)-cn, num edge types: 1
# Building blocks:
#     Node 0, Type 0, BuildingBlock: UXUYUI_clean_sbu_0, # of connection points: 4
#     Node 1, Type 0, BuildingBlock: UXUYUI_clean_sbu_0, # of connection points: 4
#     Node 2, Type 0, BuildingBlock: UXUYUI_clean_sbu_0, # of connection points: 4
#     Node 3, Type 0, BuildingBlock: UXUYUI_clean_sbu_0, # of connection points: 4
#     Node 4, Type 0, BuildingBlock: UXUYUI_clean_sbu_0, # of connection points: 4
#     Node 5, Type 0, BuildingBlock: UXUYUI_clean_sbu_0, # of connection points: 4
#     Node 6, Type 0, BuildingBlock: UXUYUI_clean_sbu_0, # of connection points: 4
#     Node 7, Type 0, BuildingBlock: UXUYUI_clean_sbu_0, # of connection points: 4
#     Node 8, Type 0, BuildingBlock: UXUYUI_clean_sbu_0, # of connection points: 4
#     Node 9, Type 0, BuildingBlock: UXUYUI_clean_sbu_0, # of connection points: 4
#     Node 10, Type 0, BuildingBlock: UXUYUI_clean_sbu_0, # of connection points: 4
#     Node 11, Type 0, BuildingBlock: UXUYUI_clean_sbu_0, # of connection points: 4
#     Node 12, Type 0, BuildingBlock: UXUYUI_clean_sbu_0, # of connection points: 4
#     Node 13, Type 0, BuildingBlock: UXUYUI_clean_sbu_0, # of connection points: 4
#     Node 14, Type 0, BuildingBlock: UXUYUI_clean_sbu_0, # of connection points: 4
#     Node 15, Type 0, BuildingBlock: UXUYUI_clean_sbu_0, # of connection points: 4
#     Node 16, Type 0, BuildingBlock: UXUYUI_clean_sbu_0, # of connection points: 4
#     Node 17, Type 0, BuildingBlock: UXUYUI_clean_sbu_0, # of connection points: 4
#     Node 18, Type 0, BuildingBlock: UXUYUI_clean_sbu_0, # of connection points: 4
#     Node 19, Type 0, BuildingBlock: UXUYUI_clean_sbu_0, # of connection points: 4
#     Node 20, Type 0, BuildingBlock: UXUYUI_clean_sbu_0, # of connection points: 4
#     Node 21, Type 0, BuildingBlock: UXUYUI_clean_sbu_0, # of connection points: 4
#     Node 22, Type 0, BuildingBlock: UXUYUI_clean_sbu_0, # of connection points: 4
#     Node 23, Type 0, BuildingBlock: UXUYUI_clean_sbu_0, # of connection points: 4
#     Node 24, Type 1, BuildingBlock: INOVEN_clean_sbu_0, # of connection points: 6
#     Node 25, Type 1, BuildingBlock: INOVEN_clean_sbu_0, # of connection points: 6
#     Node 26, Type 1, BuildingBlock: INOVEN_clean_sbu_0, # of connection points: 6
#     Node 27, Type 1, BuildingBlock: INOVEN_clean_sbu_0, # of connection points: 6
#     Node 28, Type 1, BuildingBlock: INOVEN_clean_sbu_0, # of connection points: 6
#     Node 29, Type 1, BuildingBlock: INOVEN_clean_sbu_0, # of connection points: 6
#     Node 30, Type 1, BuildingBlock: INOVEN_clean_sbu_0, # of connection points: 6
#     Node 31, Type 1, BuildingBlock: INOVEN_clean_sbu_0, # of connection points: 6
#     Node 32, Type 1, BuildingBlock: INOVEN_clean_sbu_0, # of connection points: 6
#     Node 33, Type 1, BuildingBlock: INOVEN_clean_sbu_0, # of connection points: 6
#     Node 34, Type 1, BuildingBlock: INOVEN_clean_sbu_0, # of connection points: 6
#     Node 35, Type 1, BuildingBlock: INOVEN_clean_sbu_0, # of connection points: 6
#     Node 36, Type 1, BuildingBlock: INOVEN_clean_sbu_0, # of connection points: 6
#     Node 37, Type 1, BuildingBlock: INOVEN_clean_sbu_0, # of connection points: 6
#     Node 38, Type 1, BuildingBlock: INOVEN_clean_sbu_0, # of connection points: 6
#     Node 39, Type 1, BuildingBlock: INOVEN_clean_sbu_0, # of connection points: 6
#     Edge 40, Type (0, 1), BuildingBlock: XUDNAN_clean_linker_2, # of connection points: 2
#     Edge 41, Type (0, 1), BuildingBlock: XUDNAN_clean_linker_2, # of connection points: 2
#     Edge 42, Type (0, 1), BuildingBlock: XUDNAN_clean_linker_2, # of connection points: 2
#     Edge 43, Type (0, 1), BuildingBlock: XUDNAN_clean_linker_2, # of connection points: 2
#     Edge 44, Type (0, 1), BuildingBlock: XUDNAN_clean_linker_2, # of connection points: 2
#     Edge 45, Type (0, 1), BuildingBlock: XUDNAN_clean_linker_2, # of connection points: 2
#     Edge 46, Type (0, 1), BuildingBlock: XUDNAN_clean_linker_2, # of connection points: 2
#     Edge 47, Type (0, 1), BuildingBlock: XUDNAN_clean_linker_2, # of connection points: 2
#     Edge 48, Type (0, 1), BuildingBlock: XUDNAN_clean_linker_2, # of connection points: 2
#     Edge 49, Type (0, 1), BuildingBlock: XUDNAN_clean_linker_2, # of connection points: 2
#     Edge 50, Type (0, 1), BuildingBlock: XUDNAN_clean_linker_2, # of connection points: 2
#     Edge 51, Type (0, 1), BuildingBlock: XUDNAN_clean_linker_2, # of connection points: 2
#     Edge 52, Type (0, 1), BuildingBlock: XUDNAN_clean_linker_2, # of connection points: 2
#     Edge 53, Type (0, 1), BuildingBlock: XUDNAN_clean_linker_2, # of connection points: 2
#     Edge 54, Type (0, 1), BuildingBlock: XUDNAN_clean_linker_2, # of connection points: 2
#     Edge 55, Type (0, 1), BuildingBlock: XUDNAN_clean_linker_2, # of connection points: 2
#     Edge 56, Type (0, 1), BuildingBlock: XUDNAN_clean_linker_2, # of connection points: 2
#     Edge 57, Type (0, 1), BuildingBlock: XUDNAN_clean_linker_2, # of connection points: 2
#     Edge 58, Type (0, 1), BuildingBlock: XUDNAN_clean_linker_2, # of connection points: 2
#     Edge 59, Type (0, 1), BuildingBlock: XUDNAN_clean_linker_2, # of connection points: 2
#     Edge 60, Type (0, 1), BuildingBlock: XUDNAN_clean_linker_2, # of connection points: 2
#     Edge 61, Type (0, 1), BuildingBlock: XUDNAN_clean_linker_2, # of connection points: 2
#     Edge 62, Type (0, 1), BuildingBlock: XUDNAN_clean_linker_2, # of connection points: 2
#     Edge 63, Type (0, 1), BuildingBlock: XUDNAN_clean_linker_2, # of connection points: 2
#     Edge 64, Type (0, 1), BuildingBlock: XUDNAN_clean_linker_2, # of connection points: 2
#     Edge 65, Type (0, 1), BuildingBlock: XUDNAN_clean_linker_2, # of connection points: 2
#     Edge 66, Type (0, 1), BuildingBlock: XUDNAN_clean_linker_2, # of connection points: 2
#     Edge 67, Type (0, 1), BuildingBlock: XUDNAN_clean_linker_2, # of connection points: 2
#     Edge 68, Type (0, 1), BuildingBlock: XUDNAN_clean_linker_2, # of connection points: 2
#     Edge 69, Type (0, 1), BuildingBlock: XUDNAN_clean_linker_2, # of connection points: 2
#     Edge 70, Type (0, 1), BuildingBlock: XUDNAN_clean_linker_2, # of connection points: 2
#     Edge 71, Type (0, 1), BuildingBlock: XUDNAN_clean_linker_2, # of connection points: 2
#     Edge 72, Type (0, 1), BuildingBlock: XUDNAN_clean_linker_2, # of connection points: 2
#     Edge 73, Type (0, 1), BuildingBlock: XUDNAN_clean_linker_2, # of connection points: 2
#     Edge 74, Type (0, 1), BuildingBlock: XUDNAN_clean_linker_2, # of connection points: 2
#     Edge 75, Type (0, 1), BuildingBlock: XUDNAN_clean_linker_2, # of connection points: 2
#     Edge 76, Type (0, 1), BuildingBlock: XUDNAN_clean_linker_2, # of connection points: 2
#     Edge 77, Type (0, 1), BuildingBlock: XUDNAN_clean_linker_2, # of connection points: 2
#     Edge 78, Type (0, 1), BuildingBlock: XUDNAN_clean_linker_2, # of connection points: 2
#     Edge 79, Type (0, 1), BuildingBlock: XUDNAN_clean_linker_2, # of connection points: 2
#     Edge 80, Type (0, 1), BuildingBlock: XUDNAN_clean_linker_2, # of connection points: 2
#     Edge 81, Type (0, 1), BuildingBlock: XUDNAN_clean_linker_2, # of connection points: 2
#     Edge 82, Type (0, 1), BuildingBlock: XUDNAN_clean_linker_2, # of connection points: 2
#     Edge 83, Type (0, 1), BuildingBlock: XUDNAN_clean_linker_2, # of connection points: 2
#     Edge 84, Type (0, 1), BuildingBlock: XUDNAN_clean_linker_2, # of connection points: 2
#     Edge 85, Type (0, 1), BuildingBlock: XUDNAN_clean_linker_2, # of connection points: 2
#     Edge 86, Type (0, 1), BuildingBlock: XUDNAN_clean_linker_2, # of connection points: 2
#     Edge 87, Type (0, 1), BuildingBlock: XUDNAN_clean_linker_2, # of connection points: 2
#     Edge 88, Type (0, 1), BuildingBlock: XUDNAN_clean_linker_2, # of connection points: 2
#     Edge 89, Type (0, 1), BuildingBlock: XUDNAN_clean_linker_2, # of connection points: 2
#     Edge 90, Type (0, 1), BuildingBlock: XUDNAN_clean_linker_2, # of connection points: 2
#     Edge 91, Type (0, 1), BuildingBlock: XUDNAN_clean_linker_2, # of connection points: 2
#     Edge 92, Type (0, 1), BuildingBlock: XUDNAN_clean_linker_2, # of connection points: 2
#     Edge 93, Type (0, 1), BuildingBlock: XUDNAN_clean_linker_2, # of connection points: 2
#     Edge 94, Type (0, 1), BuildingBlock: XUDNAN_clean_linker_2, # of connection points: 2
#     Edge 95, Type (0, 1), BuildingBlock: XUDNAN_clean_linker_2, # of connection points: 2
#     Edge 96, Type (0, 1), BuildingBlock: XUDNAN_clean_linker_2, # of connection points: 2
#     Edge 97, Type (0, 1), BuildingBlock: XUDNAN_clean_linker_2, # of connection points: 2
#     Edge 98, Type (0, 1), BuildingBlock: XUDNAN_clean_linker_2, # of connection points: 2
#     Edge 99, Type (0, 1), BuildingBlock: XUDNAN_clean_linker_2, # of connection points: 2
#     Edge 100, Type (0, 1), BuildingBlock: XUDNAN_clean_linker_2, # of connection points: 2
#     Edge 101, Type (0, 1), BuildingBlock: XUDNAN_clean_linker_2, # of connection points: 2
#     Edge 102, Type (0, 1), BuildingBlock: XUDNAN_clean_linker_2, # of connection points: 2
#     Edge 103, Type (0, 1), BuildingBlock: XUDNAN_clean_linker_2, # of connection points: 2
#     Edge 104, Type (0, 1), BuildingBlock: XUDNAN_clean_linker_2, # of connection points: 2
#     Edge 105, Type (0, 1), BuildingBlock: XUDNAN_clean_linker_2, # of connection points: 2
#     Edge 106, Type (0, 1), BuildingBlock: XUDNAN_clean_linker_2, # of connection points: 2
#     Edge 107, Type (0, 1), BuildingBlock: XUDNAN_clean_linker_2, # of connection points: 2
#     Edge 108, Type (0, 1), BuildingBlock: XUDNAN_clean_linker_2, # of connection points: 2
#     Edge 109, Type (0, 1), BuildingBlock: XUDNAN_clean_linker_2, # of connection points: 2
#     Edge 110, Type (0, 1), BuildingBlock: XUDNAN_clean_linker_2, # of connection points: 2
#     Edge 111, Type (0, 1), BuildingBlock: XUDNAN_clean_linker_2, # of connection points: 2
#     Edge 112, Type (0, 1), BuildingBlock: XUDNAN_clean_linker_2, # of connection points: 2
#     Edge 113, Type (0, 1), BuildingBlock: XUDNAN_clean_linker_2, # of connection points: 2
#     Edge 114, Type (0, 1), BuildingBlock: XUDNAN_clean_linker_2, # of connection points: 2
#     Edge 115, Type (0, 1), BuildingBlock: XUDNAN_clean_linker_2, # of connection points: 2
#     Edge 116, Type (0, 1), BuildingBlock: XUDNAN_clean_linker_2, # of connection points: 2
#     Edge 117, Type (0, 1), BuildingBlock: XUDNAN_clean_linker_2, # of connection points: 2
#     Edge 118, Type (0, 1), BuildingBlock: XUDNAN_clean_linker_2, # of connection points: 2
#     Edge 119, Type (0, 1), BuildingBlock: XUDNAN_clean_linker_2, # of connection points: 2
#     Edge 120, Type (0, 1), BuildingBlock: XUDNAN_clean_linker_2, # of connection points: 2
#     Edge 121, Type (0, 1), BuildingBlock: XUDNAN_clean_linker_2, # of connection points: 2
#     Edge 122, Type (0, 1), BuildingBlock: XUDNAN_clean_linker_2, # of connection points: 2
#     Edge 123, Type (0, 1), BuildingBlock: XUDNAN_clean_linker_2, # of connection points: 2
#     Edge 124, Type (0, 1), BuildingBlock: XUDNAN_clean_linker_2, # of connection points: 2
#     Edge 125, Type (0, 1), BuildingBlock: XUDNAN_clean_linker_2, # of connection points: 2
#     Edge 126, Type (0, 1), BuildingBlock: XUDNAN_clean_linker_2, # of connection points: 2
#     Edge 127, Type (0, 1), BuildingBlock: XUDNAN_clean_linker_2, # of connection points: 2
#     Edge 128, Type (0, 1), BuildingBlock: XUDNAN_clean_linker_2, # of connection points: 2
#     Edge 129, Type (0, 1), BuildingBlock: XUDNAN_clean_linker_2, # of connection points: 2
#     Edge 130, Type (0, 1), BuildingBlock: XUDNAN_clean_linker_2, # of connection points: 2
#     Edge 131, Type (0, 1), BuildingBlock: XUDNAN_clean_linker_2, # of connection points: 2
#     Edge 132, Type (0, 1), BuildingBlock: XUDNAN_clean_linker_2, # of connection points: 2
#     Edge 133, Type (0, 1), BuildingBlock: XUDNAN_clean_linker_2, # of connection points: 2
#     Edge 134, Type (0, 1), BuildingBlock: XUDNAN_clean_linker_2, # of connection points: 2
#     Edge 135, Type (0, 1), BuildingBlock: XUDNAN_clean_linker_2, # of connection points: 2
# Relax obj value: 0.188
# Max RMSD: 0.287
# Mean RMSD: 0.196
data_MOF--net-gar--node1-UXUYUI_clean_sbu_0--node2-INOVEN_clean_sbu_0--edge1-XUDNAN_clean_linker_2
_symmetry_space_group_name_H-M    P1
_symmetry_Int_Tables_number       1
_symmetry_cell_setting            triclinic
loop_
_symmetry_equiv_pos_as_xyz
'x, y, z'
_cell_length_a     74.672738
_cell_length_b     70.129976
_cell_length_c     70.195484
_cell_angle_alpha  98.973918
_cell_angle_beta   95.122605
_cell_angle_gamma 102.93508
loop_
_atom_site_label
_atom_site_type_symbol
_atom_site_fract_x
_atom_site_fract_y
_atom_site_fract_z
_atom_type_partial_charge
Li0 Li 0.07801 0.31658 0.36769 0.0
Li1 Li 0.09765 0.33756 0.39664 0.0
Li2 Li 0.11079 0.31981 0.37005 0.0
Li3 Li 0.09183 0.30087 0.39259 0.0
C4 C 0.09672 0.35355 0.35646 0.0
N5 N 0.09358 0.37858 0.33026 0.0
C6 C 0.09115 0.37113 0.36212 0.0
C7 C 0.10073 0.34871 0.33749 0.0
C8 C 0.08964 0.38358 0.34865 0.0
C9 C 0.09905 0.36157 0.32446 0.0
C10 C 0.05892 0.31782 0.4043 0.0
C11 C 0.04135 0.30993 0.43043 0.0
N12 N 0.028 0.31814 0.42306 0.0
C13 C 0.04509 0.32626 0.39703 0.0
C14 C 0.05708 0.3096 0.42113 0.0
C15 C 0.02953 0.32623 0.40671 0.0
C16 C 0.04548 0.29348 0.34602 0.0
N17 N 0.05663 0.3122 0.35008 0.0
C18 C 0.03664 0.32351 0.32856 0.0
C19 C 0.05248 0.32715 0.34175 0.0
C20 C 0.02502 0.30435 0.32407 0.0
C21 C 0.02955 0.2891 0.33269 0.0
H22 H 0.04881 0.28206 0.35341 0.0
H23 H 0.06099 0.34203 0.34577 0.0
C24 C 0.11122 0.37851 0.41076 0.0
N25 N 0.10067 0.36137 0.41456 0.0
C26 C 0.10934 0.39686 0.42026 0.0
C27 C 0.0871 0.37938 0.4385 0.0
C28 C 0.0895 0.36145 0.42879 0.0
C29 C 0.09651 0.39722 0.43362 0.0
H30 H 0.11989 0.3779 0.39924 0.0
H31 H 0.08151 0.34763 0.43169 0.0
C32 C 0.08456 0.28017 0.34817 0.0
N33 N 0.07231 0.2503 0.31595 0.0
C34 C 0.08057 0.26023 0.35031 0.0
C35 C 0.08256 0.28492 0.32961 0.0
C36 C 0.07437 0.24535 0.33386 0.0
C37 C 0.07623 0.2696 0.31351 0.0
C38 C 0.13025 0.32793 0.4135 0.0
C39 C 0.14857 0.33029 0.40962 0.0
C40 C 0.12651 0.33202 0.43265 0.0
C41 C 0.16293 0.33672 0.42505 0.0
C42 C 0.14128 0.33855 0.44768 0.0
N43 N 0.15902 0.3407 0.4436 0.0
C44 C 0.14381 0.33679 0.35582 0.0
C45 C 0.13051 0.30219 0.34542 0.0
C46 C 0.15906 0.33535 0.34602 0.0
N47 N 0.1303 0.32014 0.3557 0.0
C48 C 0.14502 0.30019 0.33509 0.0
C49 C 0.15982 0.31667 0.3361 0.0
H50 H 0.14313 0.35086 0.36423 0.0
H51 H 0.11993 0.28916 0.34601 0.0
C52 C 0.07071 0.26598 0.40099 0.0
N53 N 0.08754 0.27914 0.40527 0.0
C54 C 0.06627 0.25057 0.41142 0.0
C55 C 0.09668 0.26259 0.4302 0.0
C56 C 0.1006 0.27759 0.41927 0.0
C57 C 0.07922 0.24912 0.42652 0.0
H58 H 0.06059 0.26784 0.38984 0.0
H59 H 0.11383 0.28832 0.4223 0.0
O60 O 0.09811 0.34114 0.36944 0.0
O61 O 0.07411 0.31737 0.39488 0.0
O62 O 0.09102 0.29487 0.36416 0.0
O63 O 0.11608 0.32094 0.39859 0.0
H64 H 0.08765 0.37492 0.37661 0.0
H65 H 0.10501 0.33516 0.33286 0.0
H66 H 0.08524 0.39716 0.3528 0.0
H67 H 0.10206 0.35801 0.30971 0.0
H68 H 0.03977 0.30366 0.44349 0.0
H69 H 0.04635 0.33276 0.38406 0.0
H70 H 0.06776 0.30318 0.42705 0.0
H71 H 0.01866 0.33264 0.40122 0.0
H72 H 0.03303 0.3357 0.32255 0.0
H73 H 0.02039 0.27434 0.32996 0.0
H74 H 0.11665 0.41046 0.41611 0.0
H75 H 0.07709 0.37929 0.44878 0.0
H76 H 0.08247 0.25626 0.3645 0.0
H77 H 0.08576 0.30027 0.32768 0.0
H78 H 0.07126 0.22986 0.33532 0.0
H79 H 0.07448 0.27305 0.29907 0.0
H80 H 0.15165 0.3269 0.39487 0.0
H81 H 0.11237 0.33008 0.43587 0.0
H82 H 0.17718 0.33848 0.42228 0.0
H83 H 0.13863 0.34181 0.46259 0.0
H84 H 0.1705 0.34824 0.34712 0.0
H85 H 0.14537 0.28558 0.32755 0.0
H86 H 0.05261 0.24054 0.40839 0.0
H87 H 0.10698 0.2618 0.44176 0.0
Li88 Li 1.00359 0.77128 0.63571 0.0
Li89 Li 0.01668 0.75826 0.66279 0.0
Li90 Li 0.99729 0.73595 0.63424 0.0
Li91 Li 0.98338 0.75489 0.65846 0.0
C92 C 0.03432 0.75537 0.62344 0.0
N93 N 0.06081 0.75528 0.59843 0.0
C94 C 0.05312 0.76138 0.63076 0.0
C95 C 0.02894 0.74935 0.60343 0.0
C96 C 0.06632 0.76124 0.61787 0.0
C97 C 0.04257 0.74939 0.59102 0.0
C98 C 0.00818 0.79444 0.67997 0.0
C99 C 0.00945 0.80553 0.71445 0.0
N100 N 0.01855 0.82409 0.71252 0.0
C101 C 0.01738 0.81366 0.67828 0.0
C102 C 1.00402 0.79034 0.69814 0.0
C103 C 0.02256 0.82844 0.69492 0.0
C104 C 0.99345 0.79527 0.61133 0.0
N105 N 0.00818 0.79159 0.62156 0.0
C106 C 0.02878 0.81934 0.61322 0.0
C107 C 0.02566 0.80292 0.62247 0.0
C108 C 0.01368 0.82396 0.60314 0.0
C109 C 0.99593 0.81139 0.60178 0.0
H110 H 0.97972 0.78601 0.61109 0.0
H111 H 0.03703 0.79959 0.63094 0.0
C112 C 0.0432 0.74455 0.68254 0.0
N113 N 0.03792 0.76145 0.68028 0.0
C114 C 0.05886 0.74549 0.69522 0.0
C115 C 0.06409 0.78137 0.70201 0.0
C116 C 0.04816 0.77969 0.68933 0.0
C117 C 0.06937 0.76407 0.70519 0.0
H118 H 0.0353 0.73035 0.67436 0.0
H119 H 0.04418 0.79295 0.68653 0.0
C120 C 0.96509 0.74226 0.61518 0.0
N121 N 0.93662 0.72286 0.58602 0.0
C122 C 0.94822 0.73201 0.61984 0.0
C123 C 0.96749 0.74274 0.59573 0.0
C124 C 0.93399 0.72227 0.60487 0.0
C125 C 0.95293 0.7328 0.58118 0.0
C126 C 0.99723 0.72155 0.67454 0.0
C127 C 0.99398 0.70111 0.66765 0.0
C128 C 1.00161 0.7289 0.69451 0.0
C129 C 0.99538 0.68837 0.68084 0.0
C130 C 1.0029 0.71566 0.70723 0.0
N131 N 0.9998 0.69584 0.70019 0.0
C132 C 0.01193 0.70583 0.62234 0.0
C133 C 0.98119 0.69991 0.6065 0.0
C134 C 0.01339 0.68726 0.61354 0.0
N135 N 0.99601 0.71167 0.6188 0.0
C136 C 0.98215 0.68123 0.5971 0.0
C137 C 0.99831 0.67482 0.60098 0.0
H138 H 0.02328 0.71541 0.63254 0.0
H139 H 0.96852 0.70463 0.60435 0.0
C140 C 0.95672 0.77208 0.67222 0.0
N141 N 0.96346 0.75567 0.67215 0.0
C142 C 0.94387 0.77566 0.68458 0.0
C143 C 0.94454 0.74484 0.69584 0.0
C144 C 0.95739 0.74183 0.68317 0.0
C145 C 0.93813 0.76225 0.69699 0.0
H146 H 0.96196 0.78276 0.66325 0.0
H147 H 0.96304 0.72889 0.6827 0.0
O148 O 0.02131 0.75473 0.63596 0.0
O149 O 1.00332 0.77978 0.66385 0.0
O150 O 0.97899 0.75227 0.62963 0.0
O151 O 0.9964 0.73426 0.66171 0.0
H152 H 0.05747 0.76597 0.64624 0.0
H153 H 0.01441 0.74453 0.5976 0.0
H154 H 0.08093 0.76581 0.62333 0.0
H155 H 0.03864 0.74468 0.57549 0.0
H156 H 1.00641 0.80256 0.72863 0.0
H157 H 0.02062 0.81707 0.66428 0.0
H158 H 0.9967 0.77561 0.69965 0.0
H159 H 0.0298 0.84336 0.69386 0.0
H160 H 0.04264 0.8288 0.6147 0.0
H161 H 0.98399 0.81432 0.59388 0.0
H162 H 0.06293 0.7319 0.69694 0.0
H163 H 0.07214 0.79594 0.70928 0.0
H164 H 0.94614 0.7316 0.63485 0.0
H165 H 0.98048 0.75065 0.59192 0.0
H166 H 0.92085 0.71425 0.60823 0.0
H167 H 0.95458 0.73299 0.56606 0.0
H168 H 0.99035 0.69511 0.65229 0.0
H169 H 1.00427 0.74466 0.70009 0.0
H170 H 0.99295 0.67252 0.67569 0.0
H171 H 1.00644 0.72115 0.7227 0.0
H172 H 0.02602 0.68252 0.61668 0.0
H173 H 0.97032 0.67169 0.58746 0.0
H174 H 0.93891 0.78907 0.68489 0.0
H175 H 0.94038 0.73423 0.70525 0.0
Li176 Li 0.57842 0.81458 0.86581 0.0
Li177 Li 0.59678 0.83666 0.89543 0.0
Li178 Li 0.61097 0.81769 0.87022 0.0
Li179 Li 0.59117 0.80001 0.89239 0.0
C180 C 0.59567 0.85204 0.85589 0.0
N181 N 0.59071 0.87867 0.83193 0.0
C182 C 0.5892 0.86869 0.86288 0.0
C183 C 0.59956 0.84889 0.83669 0.0
C184 C 0.58681 0.882 0.85055 0.0
C185 C 0.59695 0.86253 0.82481 0.0
C186 C 0.55786 0.8147 0.90232 0.0
C187 C 0.5427 0.80785 0.93028 0.0
N188 N 0.52709 0.81167 0.9218 0.0
C189 C 0.5417 0.81861 0.89389 0.0
C190 C 0.55841 0.8093 0.92067 0.0
C191 C 0.52627 0.81695 0.90395 0.0
C192 C 0.54608 0.79101 0.84687 0.0
N193 N 0.55734 0.8093 0.84764 0.0
C194 C 0.53443 0.81874 0.82787 0.0
C195 C 0.55217 0.82292 0.83792 0.0
C196 C 0.52214 0.80057 0.82822 0.0
C197 C 0.52825 0.78625 0.83708 0.0
H198 H 0.55049 0.78071 0.85513 0.0
H199 H 0.56109 0.8375 0.83911 0.0
C200 C 0.61282 0.87716 0.91164 0.0
N201 N 0.59925 0.86095 0.91277 0.0
C202 C 0.61227 0.89601 0.92128 0.0
C203 C 0.58458 0.88077 0.93399 0.0
C204 C 0.58567 0.86234 0.92419 0.0
C205 C 0.59765 0.89784 0.93207 0.0
H206 H 0.62333 0.87561 0.90225 0.0
H207 H 0.57506 0.84936 0.92487 0.0
C208 C 0.58727 0.77873 0.84778 0.0
N209 N 0.57856 0.74985 0.81459 0.0
C210 C 0.58292 0.75861 0.84923 0.0
C211 C 0.58728 0.7842 0.82949 0.0
C212 C 0.57857 0.74423 0.83228 0.0
C213 C 0.58277 0.76936 0.81286 0.0
C214 C 0.62943 0.82704 0.91376 0.0
C215 C 0.6476 0.82786 0.90992 0.0
C216 C 0.62593 0.83265 0.93278 0.0
C217 C 0.66205 0.83424 0.92527 0.0
C218 C 0.64077 0.83906 0.94772 0.0
N219 N 0.65836 0.83967 0.94369 0.0
C220 C 0.63961 0.83526 0.85201 0.0
C221 C 0.63525 0.80038 0.85017 0.0
C222 C 0.65381 0.83573 0.84051 0.0
N223 N 0.63075 0.81777 0.8565 0.0
C224 C 0.64958 0.80018 0.83885 0.0
C225 C 0.65912 0.81808 0.83405 0.0
H226 H 0.63554 0.84878 0.8573 0.0
H227 H 0.62778 0.78674 0.85404 0.0
C228 C 0.57003 0.76509 0.90108 0.0
N229 N 0.5866 0.77867 0.90568 0.0
C230 C 0.56566 0.74971 0.9116 0.0
C231 C 0.59569 0.76253 0.93101 0.0
C232 C 0.59951 0.77753 0.92006 0.0
C233 C 0.57847 0.74863 0.92703 0.0
H234 H 0.56007 0.76652 0.88954 0.0
H235 H 0.61259 0.7885 0.92327 0.0
O236 O 0.59851 0.83913 0.86791 0.0
O237 O 0.57317 0.81648 0.89278 0.0
O238 O 0.5914 0.79292 0.86429 0.0
O239 O 0.61516 0.82029 0.89895 0.0
H240 H 0.58596 0.87128 0.87764 0.0
H241 H 0.60449 0.83604 0.83101 0.0
H242 H 0.58184 0.89497 0.85577 0.0
H243 H 0.5999 0.86028 0.80993 0.0
H244 H 0.54294 0.80376 0.94452 0.0
H245 H 0.5411 0.82303 0.8798 0.0
H246 H 0.5709 0.80649 0.92751 0.0
H247 H 0.51366 0.81993 0.89761 0.0
H248 H 0.52979 0.83025 0.82159 0.0
H249 H 0.5188 0.7723 0.83792 0.0
H250 H 0.62239 0.90905 0.91936 0.0
H251 H 0.573 0.88184 0.94204 0.0
H252 H 0.58296 0.75416 0.86332 0.0
H253 H 0.59059 0.79973 0.82816 0.0
H254 H 0.57519 0.72859 0.83318 0.0
H255 H 0.58262 0.77335 0.79858 0.0
H256 H 0.65049 0.82342 0.89526 0.0
H257 H 0.6119 0.83199 0.93595 0.0
H258 H 0.67617 0.83484 0.92253 0.0
H259 H 0.63831 0.84347 0.96253 0.0
H260 H 0.6607 0.84978 0.83691 0.0
H261 H 0.65348 0.78634 0.83443 0.0
H262 H 0.55219 0.73934 0.90826 0.0
H263 H 0.60595 0.76201 0.94273 0.0
Li264 Li 0.50371 0.27118 0.13717 0.0
Li265 Li 0.51503 0.25617 0.16471 0.0
Li266 Li 0.49655 0.23466 0.13545 0.0
Li267 Li 0.4824 0.25411 0.15887 0.0
C268 C 0.53393 0.251 0.12621 0.0
N269 N 0.5607 0.24663 0.10229 0.0
C270 C 0.55249 0.25475 0.13414 0.0
C271 C 0.52896 0.24512 0.10612 0.0
C272 C 0.56583 0.2525 0.1218 0.0
C273 C 0.54271 0.2429 0.09428 0.0
C274 C 0.50485 0.29361 0.18055 0.0
C275 C 0.50382 0.3055 0.21446 0.0
N276 N 0.51143 0.32436 0.21204 0.0
C277 C 0.51251 0.31311 0.17835 0.0
C278 C 0.50038 0.28974 0.1987 0.0
C279 C 0.51579 0.32845 0.19447 0.0
C280 C 0.49755 0.30303 0.11901 0.0
N281 N 0.51013 0.29273 0.124 0.0
C282 C 0.53337 0.3129 0.10967 0.0
C283 C 0.52786 0.29767 0.11999 0.0
C284 C 0.52061 0.32344 0.10386 0.0
C285 C 0.5026 0.31873 0.10893 0.0
H286 H 0.4836 0.29889 0.12265 0.0
H287 H 0.53775 0.28971 0.12467 0.0
C288 C 0.54406 0.24497 0.18516 0.0
N289 N 0.53614 0.26024 0.18273 0.0
C290 C 0.56168 0.24889 0.19556 0.0
C291 C 0.56217 0.28396 0.20122 0.0
C292 C 0.54473 0.2794 0.19065 0.0
C293 C 0.57107 0.26869 0.20312 0.0
H294 H 0.53722 0.22996 0.17801 0.0
H295 H 0.53873 0.29136 0.1877 0.0
C296 C 0.46487 0.24364 0.1157 0.0
N297 N 0.43582 0.22632 0.08656 0.0
C298 C 0.44845 0.23204 0.12002 0.0
C299 C 0.46649 0.24661 0.09664 0.0
C300 C 0.43392 0.22339 0.10506 0.0
C301 C 0.45166 0.23764 0.08209 0.0
C302 C 0.49701 0.22039 0.17572 0.0
C303 C 0.4949 0.20002 0.16926 0.0
C304 C 0.50164 0.22829 0.19556 0.0
C305 C 0.49775 0.18794 0.18272 0.0
C306 C 0.50442 0.21573 0.20856 0.0
N307 N 0.50244 0.19598 0.20193 0.0
C308 C 0.5096 0.20229 0.12278 0.0
C309 C 0.4814 0.20184 0.10399 0.0
C310 C 0.51103 0.185 0.11095 0.0
N311 N 0.4951 0.21045 0.11896 0.0
C312 C 0.48245 0.18473 0.09157 0.0
C313 C 0.49752 0.17639 0.09496 0.0
H314 H 0.52023 0.2095 0.13486 0.0
H315 H 0.46989 0.20832 0.10133 0.0
C316 C 0.45398 0.27055 0.16902 0.0
N317 N 0.46222 0.25566 0.17173 0.0
C318 C 0.44121 0.27514 0.18108 0.0
C319 C 0.44514 0.24831 0.19779 0.0
C320 C 0.4578 0.24418 0.18532 0.0
C321 C 0.43721 0.26438 0.19608 0.0
H322 H 0.45805 0.27941 0.15811 0.0
H323 H 0.46474 0.23251 0.18712 0.0
O324 O 0.52079 0.25355 0.13809 0.0
O325 O 0.50268 0.27835 0.16517 0.0
O326 O 0.47925 0.25219 0.13008 0.0
O327 O 0.49404 0.23232 0.16268 0.0
H328 H 0.55658 0.25957 0.14963 0.0
H329 H 0.51465 0.2423 0.09978 0.0
H330 H 0.58026 0.25544 0.12772 0.0
H331 H 0.53909 0.23827 0.07871 0.0
H332 H 0.50053 0.30273 0.22863 0.0
H333 H 0.51622 0.3163 0.16442 0.0
H334 H 0.49451 0.27473 0.20066 0.0
H335 H 0.52189 0.3436 0.19304 0.0
H336 H 0.54741 0.31629 0.10606 0.0
H337 H 0.49243 0.32658 0.10456 0.0
H338 H 0.56837 0.2368 0.19646 0.0
H339 H 0.56912 0.29939 0.2068 0.0
H340 H 0.447 0.22966 0.13473 0.0
H341 H 0.47914 0.25559 0.09314 0.0
H342 H 0.42114 0.21431 0.10814 0.0
H343 H 0.45274 0.23967 0.06723 0.0
H344 H 0.49083 0.19353 0.15404 0.0
H345 H 0.50321 0.24398 0.20083 0.0
H346 H 0.49614 0.17216 0.1779 0.0
H347 H 0.50814 0.22167 0.22394 0.0
H348 H 0.52293 0.17891 0.11373 0.0
H349 H 0.47185 0.1783 0.07925 0.0
H350 H 0.43504 0.28741 0.17915 0.0
H351 H 0.44236 0.23977 0.20925 0.0
Li352 Li 0.07715 0.82254 0.10274 0.0
Li353 Li 0.0966 0.80632 0.12766 0.0
Li354 Li 0.07443 0.78573 0.0982 0.0
Li355 Li 0.06023 0.80114 0.126 0.0
C356 C 0.10695 0.80182 0.08425 0.0
N357 N 0.12601 0.78951 0.05456 0.0
C358 C 0.12544 0.80114 0.08828 0.0
C359 C 0.09821 0.79649 0.06508 0.0
C360 C 0.13483 0.79484 0.07309 0.0
C361 C 0.10806 0.7902 0.05029 0.0
C362 C 0.08286 0.84268 0.14686 0.0
C363 C 0.08128 0.85698 0.17998 0.0
N364 N 0.08689 0.87549 0.1757 0.0
C365 C 0.08861 0.86181 0.14276 0.0
C366 C 0.07917 0.84018 0.16558 0.0
C367 C 0.09057 0.87823 0.15756 0.0
C368 C 0.0589 0.85129 0.08907 0.0
N369 N 0.07524 0.8456 0.08991 0.0
C370 C 0.08772 0.87102 0.07194 0.0
C371 C 0.08955 0.85522 0.08154 0.0
C372 C 0.07092 0.87715 0.07057 0.0
C373 C 0.05645 0.86696 0.07951 0.0
H374 H 0.04757 0.84345 0.09563 0.0
H375 H 0.10243 0.85058 0.08223 0.0
C376 C 0.12682 0.78921 0.13658 0.0
N377 N 0.12016 0.80508 0.1437 0.0
C378 C 0.14268 0.78533 0.14605 0.0
C379 C 0.14491 0.81392 0.17074 0.0
C380 C 0.129 0.81746 0.16053 0.0
C381 C 0.15205 0.79744 0.16372 0.0
H382 H 0.11972 0.77935 0.12334 0.0
H383 H 0.1236 0.82995 0.16631 0.0
C384 C 0.04025 0.79379 0.08271 0.0
N385 N 0.01182 0.77965 0.0523 0.0
C386 C 0.0234 0.78183 0.08561 0.0
C387 C 0.04257 0.79877 0.06441 0.0
C388 C 0.0092 0.77481 0.07004 0.0
C389 C 0.02805 0.79138 0.04919 0.0
C390 C 0.07356 0.76632 0.13495 0.0
C391 C 0.06298 0.74765 0.12542 0.0
C392 C 0.08132 0.76882 0.15429 0.0
C393 C 0.06036 0.73174 0.13545 0.0
C394 C 0.07838 0.75254 0.16382 0.0
N395 N 0.06806 0.7345 0.15428 0.0
C396 C 0.08573 0.75118 0.0835 0.0
C397 C 0.05625 0.75123 0.0681 0.0
C398 C 0.08416 0.73173 0.0738 0.0
N399 N 0.07181 0.7605 0.08071 0.0
C400 C 0.05413 0.73181 0.05804 0.0
C401 C 0.06809 0.72165 0.06102 0.0
H402 H 0.09787 0.75866 0.09377 0.0
H403 H 0.04513 0.75849 0.06621 0.0
C404 C 0.03077 0.81248 0.14655 0.0
N405 N 0.03827 0.79708 0.13988 0.0
C406 C 0.01387 0.809 0.15442 0.0
C407 C 0.01272 0.77395 0.14862 0.0
C408 C 0.02955 0.77808 0.1409 0.0
C409 C 1.00439 0.78944 0.15532 0.0
H410 H 0.03762 0.82746 0.14528 0.0
H411 H 0.03532 0.76594 0.13514 0.0
O412 O 0.09759 0.80797 0.099 0.0
O413 O 0.08056 0.8265 0.13247 0.0
O414 O 0.05437 0.80059 0.09772 0.0
O415 O 0.07645 0.78205 0.12538 0.0
H416 H 0.13254 0.80568 0.10296 0.0
H417 H 0.08394 0.79701 0.0617 0.0
H418 H 0.14915 0.79424 0.07602 0.0
H419 H 0.10144 0.78587 0.0354 0.0
H420 H 0.07843 0.85531 0.19455 0.0
H421 H 0.09152 0.86396 0.12831 0.0
H422 H 0.07464 0.82542 0.1689 0.0
H423 H 0.09501 0.89314 0.15461 0.0
H424 H 0.09954 0.87842 0.06575 0.0
H425 H 0.04314 0.8707 0.0788 0.0
H426 H 0.1475 0.77281 0.1393 0.0
H427 H 0.15124 0.8238 0.18424 0.0
H428 H 0.02135 0.77788 0.09968 0.0
H429 H 0.05545 0.80816 0.06196 0.0
H430 H 0.99612 0.76547 0.07205 0.0
H431 H 0.02969 0.79498 0.03491 0.0
H432 H 0.05664 0.74549 0.11054 0.0
H433 H 0.08952 0.7832 0.16186 0.0
H434 H 0.05217 0.71723 0.12828 0.0
H435 H 0.08431 0.75426 0.1788 0.0
H436 H 0.09538 0.72461 0.07641 0.0
H437 H 0.04139 0.7246 0.04853 0.0
H438 H 0.008 0.82146 0.15912 0.0
H439 H 1.00623 0.75864 0.14915 0.0
Li440 Li 0.51845 0.78596 0.43215 0.0
Li441 Li 0.49562 0.76619 0.40277 0.0
Li442 Li 0.51505 0.74901 0.42731 0.0
Li443 Li 0.53167 0.76997 0.40373 0.0
C444 C 0.48489 0.76974 0.44576 0.0
N445 N 0.46466 0.78154 0.47453 0.0
C446 C 0.46934 0.77692 0.44106 0.0
C447 C 0.48996 0.76822 0.46501 0.0
C448 C 0.45932 0.78286 0.45583 0.0
C449 C 0.47962 0.7744 0.47937 0.0
C450 C 0.51952 0.80584 0.3955 0.0
C451 C 0.52774 0.81997 0.36738 0.0
N452 N 0.52642 0.83803 0.37672 0.0
C453 C 0.51807 0.82449 0.40475 0.0
C454 C 0.52426 0.8035 0.37662 0.0
C455 C 0.52167 0.84059 0.39504 0.0
C456 C 0.54118 0.82273 0.45056 0.0
N457 N 0.52389 0.81106 0.45024 0.0
C458 C 0.51459 0.83848 0.46813 0.0
C459 C 0.51083 0.81843 0.45932 0.0
C460 C 0.53183 0.8511 0.46726 0.0
C461 C 0.54548 0.84283 0.45908 0.0
H462 H 0.5512 0.81683 0.44281 0.0
H463 H 0.49704 0.80934 0.45853 0.0
C464 C 0.45848 0.75114 0.37701 0.0
N465 N 0.47187 0.76726 0.38668 0.0
C466 C 0.44203 0.75352 0.36684 0.0
C467 C 0.45331 0.78892 0.37637 0.0
C468 C 0.46942 0.7859 0.38629 0.0
C469 C 0.43901 0.77268 0.36654 0.0
H470 H 0.46037 0.73634 0.37735 0.0
H471 H 0.47992 0.79865 0.39399 0.0
C472 C 0.55215 0.77751 0.44684 0.0
N473 N 0.58078 0.79111 0.4771 0.0
C474 C 0.57054 0.78143 0.44301 0.0
C475 C 0.54832 0.78038 0.46606 0.0
C476 C 0.58482 0.78829 0.4585 0.0
C477 C 0.56299 0.78735 0.48116 0.0
C478 C 0.51201 0.73017 0.38309 0.0
C479 C 0.51965 0.71473 0.38766 0.0
C480 C 0.50617 0.73057 0.36373 0.0
C481 C 0.52146 0.69993 0.37266 0.0
C482 C 0.50823 0.7155 0.34915 0.0
N483 N 0.51577 0.70063 0.35388 0.0
C484 C 0.5029 0.71113 0.44236 0.0
C485 C 0.53504 0.72589 0.44747 0.0
C486 C 0.50578 0.69547 0.45181 0.0
N487 N 0.51747 0.72608 0.44037 0.0
C488 C 0.53848 0.71076 0.4572 0.0
C489 C 0.52379 0.69522 0.45947 0.0
H490 H 0.48901 0.71131 0.43666 0.0
H491 H 0.54658 0.73751 0.44558 0.0
C492 C 0.56612 0.7914 0.39204 0.0
N493 N 0.55363 0.77339 0.38943 0.0
C494 C 0.58299 0.79332 0.38405 0.0
C495 C 0.57362 0.75843 0.37019 0.0
C496 C 0.55711 0.75716 0.37847 0.0
C497 C 0.58719 0.77653 0.37329 0.0
H498 H 0.56335 0.80417 0.401 0.0
H499 H 0.54738 0.74294 0.37655 0.0
O500 O 0.49501 0.76418 0.43153 0.0
O501 O 0.51661 0.79 0.40496 0.0
O502 O 0.53801 0.7707 0.43181 0.0
O503 O 0.51023 0.74482 0.39754 0.0
H504 H 0.46517 0.77807 0.42621 0.0
H505 H 0.5018 0.76243 0.46882 0.0
H506 H 0.44734 0.78858 0.45244 0.0
H507 H 0.48348 0.77351 0.49437 0.0
H508 H 0.53153 0.81841 0.3528 0.0
H509 H 0.51408 0.82653 0.41921 0.0
H510 H 0.52537 0.78913 0.36924 0.0
H511 H 0.52068 0.85512 0.40206 0.0
H512 H 0.5036 0.8444 0.47397 0.0
H513 H 0.55891 0.85216 0.45802 0.0
H514 H 0.43158 0.7404 0.3597 0.0
H515 H 0.45215 0.80404 0.37646 0.0
H516 H 0.57377 0.77903 0.42825 0.0
H517 H 0.53417 0.77742 0.46928 0.0
H518 H 0.59912 0.79134 0.45575 0.0
H519 H 0.56023 0.78976 0.4961 0.0
H520 H 0.52428 0.71426 0.40259 0.0
H521 H 0.50022 0.74245 0.36002 0.0
H522 H 0.52742 0.68793 0.37595 0.0
H523 H 0.50385 0.71562 0.33407 0.0
H524 H 0.49403 0.68383 0.45337 0.0
H525 H 0.55256 0.71119 0.4629 0.0
H526 H 0.59296 0.80759 0.38698 0.0
H527 H 0.57588 0.74509 0.36172 0.0
Li528 Li 0.57696 0.32146 0.59932 0.0
Li529 Li 0.59653 0.30525 0.62424 0.0
Li530 Li 0.57471 0.28476 0.59446 0.0
Li531 Li 0.56041 0.29912 0.6223 0.0
C532 C 0.60812 0.30333 0.58135 0.0
N533 N 0.62918 0.29435 0.55236 0.0
C534 C 0.62615 0.3015 0.58615 0.0
C535 C 0.60084 0.30079 0.56183 0.0
C536 C 0.63658 0.29694 0.57128 0.0
C537 C 0.61169 0.29616 0.54738 0.0
C538 C 0.58246 0.34052 0.64387 0.0
C539 C 0.58106 0.35349 0.67742 0.0
N540 N 0.58662 0.37231 0.67388 0.0
C541 C 0.58816 0.35996 0.64054 0.0
C542 C 0.57889 0.33719 0.66242 0.0
C543 C 0.59019 0.37585 0.65592 0.0
C544 C 0.5566 0.3478 0.58693 0.0
N545 N 0.57396 0.34467 0.58721 0.0
C546 C 0.58338 0.37325 0.57183 0.0
C547 C 0.58725 0.35689 0.57954 0.0
C548 C 0.56567 0.3772 0.572 0.0
C549 C 0.55217 0.36379 0.57937 0.0
H550 H 0.54611 0.3379 0.59281 0.0
H551 H 0.60096 0.35418 0.57964 0.0
C552 C 0.62707 0.28912 0.63834 0.0
N553 N 0.62016 0.30569 0.64112 0.0
C554 C 0.64355 0.28821 0.64941 0.0
C555 C 0.64562 0.32123 0.66653 0.0
C556 C 0.62913 0.32154 0.65511 0.0
C557 C 0.65339 0.30448 0.66376 0.0
H558 H 0.61985 0.27652 0.62729 0.0
H559 H 0.62353 0.33455 0.65749 0.0
C560 C 0.54016 0.291 0.57946 0.0
N561 N 0.51133 0.27474 0.54979 0.0
C562 C 0.52343 0.27961 0.58334 0.0
C563 C 0.54217 0.29432 0.56057 0.0
C564 C 0.50902 0.27149 0.56812 0.0
C565 C 0.52746 0.28589 0.54574 0.0
C566 C 0.5733 0.26556 0.63223 0.0
C567 C 0.56356 0.24636 0.62329 0.0
C568 C 0.57951 0.26958 0.65214 0.0
C569 C 0.5602 0.23142 0.63446 0.0
C570 C 0.57585 0.25423 0.66282 0.0
N571 N 0.56636 0.23562 0.65383 0.0
C572 C 0.58846 0.25403 0.576 0.0
C573 C 0.55587 0.24738 0.5685 0.0
C574 C 0.58828 0.23456 0.56784 0.0
N575 N 0.57241 0.26002 0.57664 0.0
C576 C 0.55503 0.22752 0.56043 0.0
C577 C 0.57135 0.22074 0.56087 0.0
H578 H 0.60132 0.26386 0.58322 0.0
H579 H 0.54316 0.25206 0.56968 0.0
C580 C 0.53142 0.3121 0.63937 0.0
N581 N 0.53876 0.29596 0.6366 0.0
C582 C 0.51567 0.31171 0.64887 0.0
C583 C 0.51464 0.27781 0.6522 0.0
C584 C 0.5305 0.27884 0.64251 0.0
C585 C 0.50715 0.29455 0.65584 0.0
H586 H 0.53785 0.32538 0.63414 0.0
H587 H 0.53615 0.26592 0.63978 0.0
O588 O 0.59768 0.30751 0.59576 0.0
O589 O 0.58012 0.32485 0.62891 0.0
O590 O 0.55438 0.29908 0.59418 0.0
O591 O 0.57695 0.28032 0.62152 0.0
H592 H 0.63201 0.30355 0.6012 0.0
H593 H 0.58692 0.30218 0.5579 0.0
H594 H 0.65054 0.29543 0.57478 0.0
H595 H 0.60621 0.29401 0.5322 0.0
H596 H 0.5783 0.35118 0.69186 0.0
H597 H 0.59096 0.36273 0.62623 0.0
H598 H 0.5744 0.32219 0.66515 0.0
H599 H 0.59458 0.39099 0.65356 0.0
H600 H 0.59432 0.38304 0.56638 0.0
H601 H 0.53818 0.36568 0.57949 0.0
H602 H 0.64871 0.27496 0.64636 0.0
H603 H 0.65213 0.33411 0.67757 0.0
H604 H 0.52162 0.27698 0.59791 0.0
H605 H 0.55494 0.30333 0.5574 0.0
H606 H 0.49602 0.26258 0.57088 0.0
H607 H 0.52884 0.28825 0.53103 0.0
H608 H 0.5586 0.24302 0.60792 0.0
H609 H 0.58708 0.28439 0.65925 0.0
H610 H 0.55269 0.21648 0.62773 0.0
H611 H 0.58057 0.25709 0.67825 0.0
H612 H 0.60121 0.22996 0.56837 0.0
H613 H 0.54167 0.21726 0.55543 0.0
H614 H 0.51025 0.32487 0.65079 0.0
H615 H 0.50863 0.26424 0.65721 0.0
Li616 Li 0.01839 0.28616 0.93227 0.0
Li617 Li 0.99546 0.26627 0.90269 0.0
Li618 Li 0.01497 0.249 0.92739 0.0
Li619 Li 0.03161 0.27006 0.9041 0.0
C620 C 0.98494 0.26997 0.94582 0.0
N621 N 0.9649 0.28185 0.97473 0.0
C622 C 0.96946 0.27728 0.94122 0.0
C623 C 0.99012 0.26844 0.96505 0.0
C624 C 0.95952 0.28323 0.95606 0.0
C625 C 0.97985 0.27464 0.97948 0.0
C626 C 0.02048 0.30615 0.89607 0.0
C627 C 0.0304 0.3207 0.86869 0.0
N628 N 0.02884 0.3387 0.87793 0.0
C629 C 0.0187 0.32473 0.90517 0.0
C630 C 0.02614 0.30404 0.87758 0.0
C631 C 0.0231 0.34102 0.89581 0.0
C632 C 0.04091 0.32337 0.94981 0.0
N633 N 0.02382 0.31157 0.95012 0.0
C634 C 0.01475 0.33903 0.96829 0.0
C635 C 0.01098 0.3189 0.95966 0.0
C636 C 0.03176 0.35176 0.96681 0.0
C637 C 0.04522 0.34353 0.95815 0.0
H638 H 0.05077 0.31749 0.94176 0.0
H639 H 0.99734 0.30968 0.95944 0.0
C640 C 0.9557 0.25272 0.88208 0.0
N641 N 0.9716 0.26761 0.88654 0.0
C642 C 0.93937 0.25566 0.8721 0.0
C643 C 0.95585 0.28895 0.87108 0.0
C644 C 0.97172 0.28542 0.88096 0.0
C645 C 0.93907 0.27418 0.86666 0.0
H646 H 0.95545 0.23862 0.88662 0.0
H647 H 0.98409 0.2973 0.8845 0.0
C648 C 0.05222 0.27849 0.94697 0.0
N649 N 0.08112 0.29331 0.97686 0.0
C650 C 0.07056 0.2807 0.94314 0.0
C651 C 0.04859 0.28362 0.96606 0.0
C652 C 0.08497 0.28826 0.95843 0.0
C653 C 0.06339 0.29116 0.98095 0.0
C654 C 0.01353 0.23092 0.88321 0.0
C655 C 0.02276 0.21674 0.88807 0.0
C656 C 1.00732 0.23058 0.86377 0.0
C657 C 0.02562 0.20233 0.8733 0.0
C658 C 0.01052 0.21598 0.84941 0.0
N659 N 0.0195 0.20226 0.85443 0.0
C660 C 1.00495 0.20769 0.93672 0.0
C661 C 0.03282 0.22892 0.95344 0.0
C662 C 0.00815 0.19202 0.94606 0.0
N663 N 0.01723 0.22588 0.94055 0.0
C664 C 0.03646 0.21387 0.96309 0.0
C665 C 0.02409 0.19499 0.95964 0.0
H666 H 0.99271 0.2052 0.92631 0.0
H667 H 0.04277 0.24302 0.9562 0.0
C668 C 0.06563 0.29297 0.89611 0.0
N669 N 0.05372 0.27476 0.89019 0.0
C670 C 0.08231 0.29796 0.88823 0.0
C671 C 0.07441 0.26553 0.86791 0.0
C672 C 0.05789 0.26106 0.87637 0.0
C673 C 0.08701 0.28428 0.87373 0.0
H674 H 0.0623 0.3036 0.90731 0.0
H675 H 0.04851 0.24658 0.87184 0.0
O676 O 0.99493 0.26429 0.93152 0.0
O677 O 0.01647 0.29004 0.90508 0.0
O678 O 0.03793 0.27085 0.93217 0.0
O679 O 0.01023 0.24484 0.89747 0.0
H680 H 0.96527 0.27849 0.92638 0.0
H681 H 1.00199 0.26266 0.96878 0.0
H682 H 0.94757 0.28903 0.95275 0.0
H683 H 0.98376 0.27372 0.99446 0.0
H684 H 0.03493 0.31932 0.85443 0.0
H685 H 0.01376 0.32655 0.91918 0.0
H686 H 0.02726 0.2897 0.87018 0.0
H687 H 0.02187 0.35549 0.90273 0.0
H688 H 1.0039 0.34489 0.97454 0.0
H689 H 0.05848 0.3529 0.95663 0.0
H690 H 0.92692 0.24371 0.86927 0.0
H691 H 0.9568 0.30339 0.86704 0.0
H692 H 0.07364 0.27634 0.92858 0.0
H693 H 0.03449 0.28181 0.96933 0.0
H694 H 0.09921 0.29003 0.95566 0.0
H695 H 0.06077 0.29526 0.99576 0.0
H696 H 0.02766 0.21685 0.90308 0.0
H697 H 1.00013 0.24149 0.85984 0.0
H698 H 0.0327 0.19122 0.87682 0.0
H699 H 1.00584 0.21553 0.83428 0.0
H700 H 0.99809 0.17781 0.94284 0.0
H701 H 0.04916 0.217 0.973 0.0
H702 H 0.09153 0.31242 0.89378 0.0
H703 H 0.07707 0.25442 0.85671 0.0
Li704 Li 0.44011 0.02938 0.30284 0.0
Li705 Li 0.41606 0.00915 0.27767 0.0
Li706 Li 0.44321 0.02882 0.26876 0.0
Li707 Li 0.41966 0.04405 0.28217 0.0
C708 C 0.45022 0.99218 0.28329 0.0
N709 N 0.46801 0.96153 0.28146 0.0
C710 C 0.44066 0.97323 0.2854 0.0
C711 C 0.46896 0.99568 0.28077 0.0
C712 C 0.44988 0.9579 0.28432 0.0
C713 C 0.47767 0.97994 0.27973 0.0
C714 C 0.40047 0.02158 0.31339 0.0
C715 C 0.37056 0.02105 0.32402 0.0
N716 N 0.37451 0.01033 0.33772 0.0
C717 C 0.40425 0.01059 0.32758 0.0
C718 C 0.38356 0.02699 0.31164 0.0
C719 C 0.39095 1.00508 0.33977 0.0
C720 C 0.45415 0.04907 0.33967 0.0
N721 N 0.45288 0.03198 0.32703 0.0
C722 C 0.47262 0.02095 0.34904 0.0
C723 C 0.46151 0.01783 0.33139 0.0
C724 C 0.47457 0.03869 0.36229 0.0
C725 C 0.46494 0.05274 0.35762 0.0
H726 H 0.44701 0.05995 0.33559 0.0
H727 H 0.46011 1.00432 0.3211 0.0
C728 C 0.40306 0.97271 0.25421 0.0
N729 N 0.39936 0.98496 0.26959 0.0
C730 C 0.39041 0.95489 0.24635 0.0
C731 C 0.37034 0.96316 0.27005 0.0
C732 C 0.38334 0.98068 0.27745 0.0
C733 C 0.37406 0.95015 0.25455 0.0
H734 H 0.41581 0.9768 0.2481 0.0
H735 H 0.38049 0.9908 0.28924 0.0
C736 C 0.46133 0.06722 0.28722 0.0
N737 N 0.49057 0.09737 0.28268 0.0
C738 C 0.45807 0.08247 0.27777 0.0
C739 C 0.47938 0.06731 0.29447 0.0
C740 C 0.47307 0.0976 0.27561 0.0
C741 C 0.49401 0.08267 0.29197 0.0
C742 C 0.40396 0.01557 0.24262 0.0
C743 C 0.40844 0.00921 0.22415 0.0
C744 C 0.38538 0.01139 0.24592 0.0
C745 C 0.39435 0.99833 0.20947 0.0
C746 C 0.37171 1.00034 0.2309 0.0
N747 N 0.37644 0.99409 0.21314 0.0
C748 C 0.45433 0.00775 0.24118 0.0
C749 C 0.4724 0.04091 0.24497 0.0
C750 C 0.46331 1.00156 0.22598 0.0
N751 N 0.45898 0.02697 0.25033 0.0
C752 C 0.48171 0.03539 0.22943 0.0
C753 C 0.477 0.01546 0.2198 0.0
H754 H 0.44316 0.99731 0.24539 0.0
H755 H 0.47548 0.05623 0.25222 0.0
C756 C 0.40702 0.07655 0.29775 0.0
N757 N 0.40684 0.06306 0.28163 0.0
C758 C 0.39552 0.08959 0.29728 0.0
C759 C 0.38357 0.07364 0.26396 0.0
C760 C 0.39582 0.06167 0.26484 0.0
C761 C 0.38349 0.08803 0.2802 0.0
H762 H 0.41598 0.07701 0.3109 0.0
H763 H 0.39633 0.05111 0.25217 0.0
O764 O 0.44115 0.00712 0.28326 0.0
O765 O 0.41326 0.02712 0.3013 0.0
O766 O 0.44683 0.05263 0.28994 0.0
O767 O 0.41764 0.0262 0.25725 0.0
H768 H 0.42628 0.97035 0.28783 0.0
H769 H 0.47662 0.01034 0.27938 0.0
H770 H 0.4426 0.94311 0.28574 0.0
H771 H 0.49209 0.98236 0.2775 0.0
H772 H 0.35734 0.02495 0.32272 0.0
H773 H 0.41729 1.00632 0.32911 0.0
H774 H 0.38042 0.03544 0.30067 0.0
H775 H 0.39367 0.99658 0.35083 0.0
H776 H 0.47999 0.00986 0.35202 0.0
H777 H 0.46586 0.06643 0.36763 0.0
H778 H 0.39358 0.94471 0.23459 0.0
H779 H 0.3578 0.95941 0.27677 0.0
H780 H 0.44411 0.08264 0.27223 0.0
H781 H 0.48203 0.05562 0.30192 0.0
H782 H 0.47079 0.10953 0.26835 0.0
H783 H 0.50808 0.08293 0.29743 0.0
H784 H 0.42261 0.01276 0.2211 0.0
H785 H 0.3816 0.01639 0.26005 0.0
H786 H 0.39765 0.99328 0.19514 0.0
H787 H 0.35734 0.99674 0.23337 0.0
H788 H 0.45875 0.98627 0.21842 0.0
H789 H 0.49198 0.04653 0.22462 0.0
H790 H 0.39615 0.10074 0.31002 0.0
H791 H 0.37425 0.07151 0.25065 0.0
Li792 Li 0.29079 0.20631 0.51834 0.0
Li793 Li 0.30303 0.17887 0.50133 0.0
Li794 Li 0.28927 0.20217 0.48105 0.0
Li795 Li 0.26724 0.17589 0.4983 0.0
C796 C 0.32663 0.22334 0.50933 0.0
N797 N 0.35731 0.25386 0.52467 0.0
C798 C 0.34167 0.21949 0.52011 0.0
C799 C 0.32723 0.24267 0.50624 0.0
C800 C 0.35706 0.23513 0.52775 0.0
C801 C 0.34284 0.25792 0.51419 0.0
C802 C 0.28697 0.16751 0.53586 0.0
C803 C 0.27872 0.13693 0.54819 0.0
N804 N 0.28958 0.14591 0.56526 0.0
C805 C 0.29813 0.17641 0.55346 0.0
C806 C 0.27722 0.14761 0.53315 0.0
C807 C 0.29922 0.16525 0.56817 0.0
C808 C 0.2766 0.22453 0.55047 0.0
N809 N 0.29298 0.22383 0.54366 0.0
C810 C 0.30955 0.24242 0.57441 0.0
C811 C 0.30935 0.2326 0.55527 0.0
C812 C 0.29276 0.24344 0.58167 0.0
C813 C 0.27617 0.23442 0.56927 0.0
H814 H 0.26373 0.21678 0.5415 0.0
H815 H 0.32227 0.23139 0.55004 0.0
C816 C 0.33648 0.16912 0.49111 0.0
N817 N 0.3233 0.16505 0.50308 0.0
C818 C 0.35251 0.16188 0.49277 0.0
C819 C 0.3411 0.14569 0.51865 0.0
C820 C 0.32529 0.15333 0.51655 0.0
C821 C 0.3552 0.15022 0.5069 0.0
H822 H 0.33478 0.17852 0.48056 0.0
H823 H 0.31489 0.15022 0.52608 0.0
C824 C 0.25966 0.21923 0.50212 0.0
N825 N 0.2404 0.2481 0.51083 0.0
C826 C 0.24052 0.2138 0.50234 0.0
C827 C 0.26904 0.2393 0.50633 0.0
C828 C 0.23101 0.22863 0.50673 0.0
C829 C 0.25905 0.25368 0.51075 0.0
C830 C 0.28168 0.15684 0.4619 0.0
C831 C 0.27568 0.15947 0.44328 0.0
C832 C 0.28576 0.13887 0.46457 0.0
C833 C 0.27394 0.14403 0.42752 0.0
C834 C 0.28383 0.12378 0.44844 0.0
N835 N 0.27803 0.12666 0.4304 0.0
C836 C 0.30222 0.21039 0.44348 0.0
C837 C 0.28009 0.22755 0.45405 0.0
C838 C 0.30313 0.21923 0.42665 0.0
N839 N 0.29086 0.21467 0.45695 0.0
C840 C 0.28067 0.23677 0.4376 0.0
C841 C 0.29241 0.23292 0.42351 0.0
H842 H 0.31071 0.2001 0.44578 0.0
H843 H 0.27097 0.23078 0.46458 0.0
C844 C 0.23433 0.15656 0.51469 0.0
N845 N 0.24181 0.15866 0.49782 0.0
C846 C 0.21641 0.14435 0.51448 0.0
C847 C 0.21377 0.13725 0.47957 0.0
C848 C 0.2317 0.14939 0.48044 0.0
C849 C 0.2058 0.1341 0.49672 0.0
H850 H 0.24234 0.16423 0.52844 0.0
H851 H 0.23756 0.15139 0.46713 0.0
O852 O 0.31159 0.20817 0.50144 0.0
O853 O 0.28552 0.1782 0.52135 0.0
O854 O 0.26913 0.20487 0.49794 0.0
O855 O 0.28404 0.17202 0.47735 0.0
H856 H 0.34144 0.20462 0.52264 0.0
H857 H 0.31578 0.24584 0.49774 0.0
H858 H 0.36879 0.23239 0.53614 0.0
H859 H 0.34348 0.27297 0.51196 0.0
H860 H 0.27126 0.12151 0.5463 0.0
H861 H 0.30592 0.19172 0.55573 0.0
H862 H 0.26866 0.14047 0.51953 0.0
H863 H 0.30776 0.17195 0.58189 0.0
H864 H 0.32268 0.24906 0.58344 0.0
H865 H 0.26286 0.23436 0.57429 0.0
H866 H 0.36281 0.16558 0.48315 0.0
H867 H 0.34255 0.13694 0.52985 0.0
H868 H 0.23309 0.19829 0.49911 0.0
H869 H 0.28389 0.24368 0.50633 0.0
H870 H 0.21617 0.22467 0.50689 0.0
H871 H 0.26612 0.26928 0.51413 0.0
H872 H 0.27243 0.1733 0.44102 0.0
H873 H 0.29047 0.13667 0.47893 0.0
H874 H 0.26937 0.14587 0.41301 0.0
H875 H 0.287 0.1098 0.45024 0.0
H876 H 0.31252 0.21579 0.41647 0.0
H877 H 0.27188 0.24693 0.43595 0.0
H878 H 0.21116 0.14258 0.52815 0.0
H879 H 0.20622 0.13036 0.46538 0.0
Li880 Li 0.1792 0.03496 0.77273 0.0
Li881 Li 0.15151 0.01202 0.79042 0.0
Li882 Li 0.17592 0.99254 0.76917 0.0
Li883 Li 0.1505 0.00938 0.75057 0.0
C884 C 0.19309 0.0206 0.80972 0.0
N885 N 0.21833 0.02875 0.84287 0.0
C886 C 0.18848 0.02879 0.82752 0.0
C887 C 0.21051 0.01661 0.80871 0.0
C888 C 0.20143 0.03278 0.84414 0.0
C889 C 0.2231 0.02084 0.82566 0.0
C890 C 0.13861 0.04358 0.77027 0.0
C891 C 0.10681 0.04514 0.76345 0.0
N892 N 0.11247 0.06522 0.76505 0.0
C893 C 0.14413 0.06421 0.77181 0.0
C894 C 0.11982 0.03393 0.76609 0.0
C895 C 0.13069 0.0749 0.76916 0.0
C896 C 0.19925 0.07139 0.75617 0.0
N897 N 0.19533 0.06476 0.77312 0.0
C898 C 0.20967 0.09865 0.79044 0.0
C899 C 0.20062 0.07833 0.7901 0.0
C900 C 0.21385 0.10604 0.7732 0.0
C901 C 0.20854 0.09158 0.75592 0.0
H902 H 0.1948 0.06116 0.74249 0.0
H903 H 0.19749 0.0736 0.80364 0.0
C904 C 0.13482 0.99707 0.82638 0.0
N905 N 0.13701 0.01281 0.8167 0.0
C906 C 0.12605 0.99681 0.84374 0.0
C907 C 0.1213 0.02894 0.84199 0.0
C908 C 0.13026 0.02865 0.82457 0.0
C909 C 0.11873 0.01279 0.85233 0.0
H910 H 0.14007 0.98441 0.82078 0.0
H911 H 0.13179 0.04142 0.81743 0.0
C912 C 0.18639 0.01064 0.73298 0.0
N913 N 0.20243 0.00744 0.69904 0.0
C914 C 0.17713 0.99686 0.71657 0.0
C915 C 0.20394 0.02254 0.73227 0.0
C916 C 0.18541 0.99557 0.69948 0.0
C917 C 0.2118 0.02073 0.71496 0.0
C918 C 0.13226 0.97125 0.76043 0.0
C919 C 0.13515 0.95431 0.74896 0.0
C920 C 0.11439 0.97191 0.76442 0.0
C921 C 0.12003 0.93825 0.74164 0.0
C922 C 0.09962 0.95558 0.75674 0.0
N923 N 0.10273 0.93922 0.74564 0.0
C924 C 0.19913 0.96206 0.78337 0.0
C925 C 0.19079 0.95584 0.74976 0.0
C926 C 0.20801 0.94559 0.78188 0.0
N927 N 0.19045 0.96729 0.76745 0.0
C928 C 0.19936 0.93927 0.7477 0.0
C929 C 0.20832 0.93328 0.7638 0.0
H930 H 0.1992 0.97054 0.79765 0.0
H931 H 0.18426 0.95936 0.7368 0.0
C932 C 0.13285 0.02709 0.71836 0.0
N933 N 0.13466 0.00937 0.72339 0.0
C934 C 0.12389 0.02817 0.69982 0.0
C935 C 0.11847 0.99286 0.69118 0.0
C936 C 0.12718 0.99236 0.70999 0.0
C937 C 0.11675 0.01096 0.68541 0.0
H938 H 0.13881 0.04076 0.72857 0.0
H939 H 0.12838 0.9782 0.71355 0.0
O940 O 0.1804 0.016 0.79345 0.0
O941 O 0.15156 0.03283 0.77261 0.0
O942 O 0.17834 0.0125 0.74969 0.0
O943 O 0.14693 0.98698 0.76797 0.0
H944 H 0.17501 0.03192 0.8285 0.0
H945 H 0.21422 0.0102 0.795 0.0
H946 H 0.19805 0.03905 0.85805 0.0
H947 H 0.23663 0.01778 0.82513 0.0
H948 H 0.09222 0.03787 0.7601 0.0
H949 H 0.15864 0.07188 0.77502 0.0
H950 H 0.11537 0.01795 0.7647 0.0
H951 H 0.13474 0.09089 0.77035 0.0
H952 H 0.21338 0.10855 0.80439 0.0
H953 H 0.21094 0.09592 0.74205 0.0
H954 H 0.12542 0.98388 0.85046 0.0
H955 H 0.11626 0.04187 0.84716 0.0
H956 H 0.16371 0.98726 0.71703 0.0
H957 H 0.2114 0.03305 0.74498 0.0
H958 H 0.17832 0.9851 0.6866 0.0
H959 H 0.22536 0.02989 0.71417 0.0
H960 H 0.14892 0.95356 0.74581 0.0
H961 H 0.11196 0.98485 0.77343 0.0
H962 H 0.12205 0.92501 0.7328 0.0
H963 H 0.0857 0.95589 0.75968 0.0
H964 H 0.2143 0.94233 0.7951 0.0
H965 H 0.199 0.93129 0.73313 0.0
H966 H 0.12331 0.04262 0.69653 0.0
H967 H 0.11324 0.97894 0.68108 0.0
Li968 Li 0.29537 0.93428 0.0059 0.0
Li969 Li 0.31165 0.91142 0.01893 0.0
Li970 Li 0.32879 0.94179 0.01033 0.0
Li971 Li 0.31224 0.91314 0.98503 0.0
C972 C 0.31512 0.95305 0.04609 0.0
N973 N 0.32502 0.98266 0.07873 0.0
C974 C 0.3178 0.94817 0.06454 0.0
C975 C 0.3172 0.97295 0.04426 0.0
C976 C 0.32285 0.96336 0.08085 0.0
C977 C 0.32229 0.98772 0.06094 0.0
C978 C 0.2772 0.88844 1.00098 0.0
C979 C 0.26672 0.85296 0.99866 0.0
N980 N 0.25125 0.85559 0.00654 0.0
C981 C 0.2611 0.89078 0.00884 0.0
C982 C 0.27996 0.86938 0.99565 0.0
C983 C 0.24819 0.874 0.01162 0.0
C984 C 0.27013 0.95566 0.99473 0.0
N985 N 0.27571 0.94602 0.00861 0.0
C986 C 0.25491 0.95644 0.02946 0.0
C987 C 0.26847 0.94614 0.0257 0.0
C988 C 0.24921 0.96692 0.01559 0.0
C989 C 0.25678 0.9664 0.99799 0.0
H990 H 0.27645 0.95545 0.98144 0.0
H991 H 0.27355 0.93856 0.03654 0.0
C992 C 0.331 0.9 0.04734 0.0
N993 N 0.31337 0.89704 0.03864 0.0
C994 C 0.33433 0.8938 0.06477 0.0
C995 C 0.30118 0.88206 0.06437 0.0
C996 C 0.2985 0.88813 0.04661 0.0
C997 C 0.31928 0.88531 0.07364 0.0
H998 H 0.34244 0.90861 0.04164 0.0
H999 H 0.28463 0.887 0.03999 0.0
C1000 C 0.32075 0.95596 0.97653 0.0
N1001 N 0.33831 0.98428 0.9567 0.0
C1002 C 0.33071 0.95057 0.96148 0.0
C1003 C 0.31956 0.97569 0.9814 0.0
C1004 C 0.33952 0.96512 0.95164 0.0
C1005 C 0.3286 0.98981 0.97123 0.0
C1006 C 0.34567 0.90386 1.00473 0.0
C1007 C 0.36464 0.91287 0.00836 0.0
C1008 C 0.33965 0.88315 1.00192 0.0
C1009 C 0.37729 0.90098 0.00916 0.0
C1010 C 0.35274 0.87178 1.00287 0.0
N1011 N 0.37113 0.88085 0.00644 0.0
C1012 C 0.35762 0.96101 0.0383 0.0
C1013 C 0.36096 0.9725 0.00853 0.0
C1014 C 0.37501 0.97255 0.04645 0.0
N1015 N 0.35095 0.96114 0.01968 0.0
C1016 C 0.37878 0.98369 0.01582 0.0
C1017 C 0.38628 0.98316 0.03481 0.0
H1018 H 0.34998 0.95091 0.04649 0.0
H1019 H 0.35587 0.9718 0.99356 0.0
C1020 C 0.29639 0.8884 0.94961 0.0
N1021 N 0.31265 0.8974 0.96106 0.0
C1022 C 0.29624 0.87518 0.93253 0.0
C1023 C 0.32953 0.88072 0.93961 0.0
C1024 C 0.32907 0.89408 0.95631 0.0
C1025 C 0.31296 0.87107 0.9276 0.0
H1026 H 0.28355 0.89125 0.95395 0.0
H1027 H 0.34181 0.90169 0.96556 0.0
O1028 O 0.31163 0.93846 0.02989 0.0
O1029 O 0.2899 0.9047 0.99802 0.0
O1030 O 0.31193 0.94192 0.98621 0.0
O1031 O 0.33312 0.9154 1.0046 0.0
H1032 H 0.31632 0.93285 0.06623 0.0
H1033 H 0.31533 0.97697 0.03006 0.0
H1034 H 0.32516 0.9598 0.09519 0.0
H1035 H 0.3242 1.00321 0.05974 0.0
H1036 H 0.2687 0.83811 0.99468 0.0
H1037 H 0.25859 0.90537 0.01276 0.0
H1038 H 0.29217 0.86729 0.98921 0.0
H1039 H 0.23573 0.87562 0.0178 0.0
H1040 H 0.24945 0.95686 0.04327 0.0
H1041 H 0.25262 0.97446 0.98709 0.0
H1042 H 0.34841 0.89696 0.07196 0.0
H1043 H 0.28933 0.87574 0.07118 0.0
H1044 H 0.33173 0.93538 0.9575 0.0
H1045 H 0.31184 0.98005 0.99298 0.0
H1046 H 0.34735 0.96118 0.94002 0.0
H1047 H 0.32791 1.00517 0.9749 0.0
H1048 H 0.36952 0.9289 0.01064 0.0
H1049 H 0.32502 0.87599 0.99927 0.0
H1050 H 0.39201 0.90775 0.01201 0.0
H1051 H 0.34829 0.85574 1.00083 0.0
H1052 H 0.38015 0.97177 0.06116 0.0
H1053 H 0.38706 0.99112 0.00602 0.0
H1054 H 0.28321 0.86787 0.92355 0.0
H1055 H 0.34268 0.87803 0.93604 0.0
Li1056 Li 0.29122 0.39418 0.02898 0.0
Li1057 Li 0.30551 0.37175 0.04829 0.0
Li1058 Li 0.32704 0.39854 0.03114 0.0
Li1059 Li 0.30446 0.36712 0.01091 0.0
C1060 C 0.30854 0.41611 0.06732 0.0
N1061 N 0.30428 0.44463 0.09727 0.0
C1062 C 0.29894 0.41044 0.08252 0.0
C1063 C 0.31601 0.43623 0.06731 0.0
C1064 C 0.29692 0.42511 0.09754 0.0
C1065 C 0.31368 0.45044 0.08259 0.0
C1066 C 0.26807 0.3498 0.02281 0.0
C1067 C 0.25306 0.31521 0.01112 0.0
N1068 N 0.23631 0.31941 0.01299 0.0
C1069 C 0.25071 0.35379 0.02462 0.0
C1070 C 0.2693 0.33037 0.01605 0.0
C1071 C 0.23481 0.33821 0.0196 0.0
C1072 C 0.26118 0.40455 0.00801 0.0
N1073 N 0.27046 0.40711 0.02622 0.0
C1074 C 0.25038 0.42709 0.03892 0.0
C1075 C 0.26509 0.41789 0.04163 0.0
C1076 C 0.241 0.42514 0.02022 0.0
C1077 C 0.24649 0.4136 1.00466 0.0
H1078 H 0.2654 0.39571 0.99597 0.0
H1079 H 0.27231 0.41961 0.05604 0.0
C1080 C 0.31833 0.36223 0.08572 0.0
N1081 N 0.30338 0.35899 0.0719 0.0
C1082 C 0.31693 0.35363 0.10259 0.0
C1083 C 0.2848 0.33846 0.09099 0.0
C1084 C 0.28674 0.34745 0.07443 0.0
C1085 C 0.29999 0.34153 0.10544 0.0
H1086 H 0.33145 0.37141 0.08362 0.0
H1087 H 0.27491 0.34506 0.06351 0.0
C1088 C 0.30772 0.40639 0.99402 0.0
N1089 N 0.30632 0.42838 0.96478 0.0
C1090 C 0.3108 0.39881 0.9753 0.0
C1091 C 0.30417 0.42524 0.99796 0.0
C1092 C 0.31 0.41015 0.9607 0.0
C1093 C 0.30342 0.43609 0.98294 0.0
C1094 C 0.3361 0.35563 0.02819 0.0
C1095 C 0.35341 0.36076 0.02174 0.0
C1096 C 0.3288 0.33607 0.03044 0.0
C1097 C 0.36306 0.34606 0.01732 0.0
C1098 C 0.3389 0.32181 0.02587 0.0
N1099 N 0.35565 0.32705 0.01942 0.0
C1100 C 0.36473 0.42496 0.04643 0.0
C1101 C 0.3565 0.41865 0.01241 0.0
C1102 C 0.3826 0.43609 0.04452 0.0
N1103 N 0.35204 0.4163 0.03044 0.0
C1104 C 0.37403 0.42967 0.00988 0.0
C1105 C 0.3877 0.43839 0.02596 0.0
H1106 H 0.36118 0.42291 0.06071 0.0
H1107 H 0.34653 0.41161 0.99978 0.0
C1108 C 0.28667 0.34846 0.97198 0.0
N1109 N 0.30146 0.34953 0.98536 0.0
C1110 C 0.28568 0.33874 0.95263 0.0
C1111 C 0.31472 0.33074 0.96124 0.0
C1112 C 0.31525 0.34072 0.98023 0.0
C1113 C 0.29995 0.32981 0.94695 0.0
H1114 H 0.27598 0.35585 0.97612 0.0
H1115 H 0.32715 0.34201 0.99054 0.0
O1116 O 0.31104 0.40198 0.05275 0.0
O1117 O 0.28374 0.36493 0.02741 0.0
O1118 O 0.30791 0.39527 0.00836 0.0
O1119 O 0.32615 0.36962 0.03179 0.0
H1120 H 0.29308 0.39491 0.08271 0.0
H1121 H 0.32355 0.44078 0.05565 0.0
H1122 H 0.28953 0.42097 0.10942 0.0
H1123 H 0.31938 0.46609 0.08281 0.0
H1124 H 0.25378 0.3001 0.00579 0.0
H1125 H 0.24953 0.36874 0.02989 0.0
H1126 H 0.28264 0.32708 0.01452 0.0
H1127 H 0.22129 0.34107 0.02094 0.0
H1128 H 0.24672 0.43611 0.05125 0.0
H1129 H 0.23975 0.41195 0.98997 0.0
H1130 H 0.32912 0.35601 0.11308 0.0
H1131 H 0.27156 0.32896 0.09238 0.0
H1132 H 0.31393 0.38442 0.97207 0.0
H1133 H 0.30186 0.43135 0.01242 0.0
H1134 H 0.31233 0.40445 0.94613 0.0
H1135 H 0.30052 0.45064 0.98572 0.0
H1136 H 0.35918 0.37585 0.01987 0.0
H1137 H 0.31539 0.33193 0.03541 0.0
H1138 H 0.37639 0.34974 0.01212 0.0
H1139 H 0.33338 0.30656 0.02736 0.0
H1140 H 0.3925 0.44228 0.05745 0.0
H1141 H 0.37682 0.43118 0.99525 0.0
H1142 H 0.27395 0.33839 0.94222 0.0
H1143 H 0.32628 0.32452 0.95764 0.0
Li1144 Li 0.78426 0.15998 0.04729 0.0
Li1145 Li 0.79997 0.13864 0.02471 0.0
Li1146 Li 0.78341 0.16183 0.01346 0.0
Li1147 Li 0.76684 0.1312 0.02225 0.0
C1148 C 0.81761 0.18463 0.02939 0.0
N1149 N 0.84171 0.21824 0.02257 0.0
C1150 C 0.83541 0.1839 0.02516 0.0
C1151 C 0.81215 0.20253 0.03046 0.0
C1152 C 0.84737 0.20102 0.0217 0.0
C1153 C 0.82451 0.21933 0.02683 0.0
C1154 C 0.77643 0.1166 0.05483 0.0
C1155 C 0.7643 0.08195 0.05577 0.0
N1156 N 0.76013 0.0871 0.07406 0.0
C1157 C 0.77209 0.12156 0.07363 0.0
C1158 C 0.77268 0.09665 0.04585 0.0
C1159 C 0.76386 0.10643 0.08312 0.0
C1160 C 0.76975 0.17573 0.08028 0.0
N1161 N 0.78522 0.17614 0.07136 0.0
C1162 C 0.80228 0.20441 0.09437 0.0
C1163 C 0.80135 0.18989 0.07814 0.0
C1164 C 0.78648 0.20459 0.10373 0.0
C1165 C 0.77013 0.18985 0.0968 0.0
H1166 H 0.75701 0.16483 0.0742 0.0
H1167 H 0.81334 0.18992 0.07058 0.0
C1168 C 0.82776 0.13141 1.00457 0.0
N1169 N 0.81913 0.12678 0.02002 0.0
C1170 C 0.84097 0.12161 0.99833 0.0
C1171 C 0.83569 0.10206 0.02378 0.0
C1172 C 0.82266 0.11243 0.02965 0.0
C1173 C 0.845 0.10663 0.0079 0.0
H1174 H 0.82408 0.14251 0.99692 0.0
H1175 H 0.81502 0.10873 0.04149 0.0
C1176 C 0.74921 0.16832 0.02735 0.0
N1177 N 0.72277 0.18987 0.02324 0.0
C1178 C 0.73222 0.15947 0.01583 0.0
C1179 C 0.7527 0.18809 0.03689 0.0
C1180 C 0.71904 0.17063 0.01392 0.0
C1181 C 0.73916 0.19874 0.03459 0.0
C1182 C 0.78025 0.12249 0.98406 0.0
C1183 C 0.77266 0.12796 0.96737 0.0
C1184 C 0.78446 0.10391 0.98274 0.0
C1185 C 0.76953 0.11479 0.94963 0.0
C1186 C 0.78103 0.09113 0.96473 0.0
N1187 N 0.77371 0.09679 0.94869 0.0
C1188 C 0.79751 0.17685 0.98292 0.0
C1189 C 0.76954 0.18562 0.98981 0.0
C1190 C 0.79655 0.1837 0.96541 0.0
N1191 N 0.78381 0.17743 0.99435 0.0
C1192 C 0.768 0.19256 0.9725 0.0
C1193 C 0.78129 0.19102 0.95983 0.0
H1194 H 0.80846 0.16982 0.9868 0.0
H1195 H 0.75868 0.18568 0.9988 0.0
C1196 C 0.73393 0.10878 0.03011 0.0
N1197 N 0.74502 0.11083 0.01592 0.0
C1198 C 0.71623 0.09636 0.02581 0.0
C1199 C 0.72197 0.08785 0.99254 0.0
C1200 C 0.73953 0.10039 0.9975 0.0
C1201 C 0.70991 0.08634 0.00662 0.0
H1202 H 0.73843 0.1177 0.04447 0.0
H1203 H 0.74808 0.10254 0.98621 0.0
O1204 O 0.80588 0.16804 0.03313 0.0
O1205 O 0.78493 0.13123 0.0456 0.0
O1206 O 0.76241 0.15775 0.02901 0.0
O1207 O 0.78254 0.1348 1.00173 0.0
H1208 H 0.84005 0.17034 0.02484 0.0
H1209 H 0.79849 0.20338 0.03392 0.0
H1210 H 0.86119 0.20065 0.01842 0.0
H1211 H 0.82045 0.23326 0.02746 0.0
H1212 H 0.76116 0.06644 0.04897 0.0
H1213 H 0.77526 0.1369 0.08092 0.0
H1214 H 0.77608 0.0926 0.03133 0.0
H1215 H 0.7605 0.11005 0.09772 0.0
H1216 H 0.81515 0.21548 0.09948 0.0
H1217 H 0.75768 0.18969 0.10366 0.0
H1218 H 0.84796 0.12579 0.9862 0.0
H1219 H 0.83817 0.09036 0.03131 0.0
H1220 H 0.72932 0.1442 0.00829 0.0
H1221 H 0.76584 0.19523 0.0457 0.0
H1222 H 0.70587 0.16402 1.00498 0.0
H1223 H 0.74173 0.21409 0.04176 0.0
H1224 H 0.76881 0.142 0.96815 0.0
H1225 H 0.7899 0.09922 0.99557 0.0
H1226 H 0.7636 0.11881 0.93664 0.0
H1227 H 0.78407 0.07665 0.96353 0.0
H1228 H 0.80711 0.18246 0.95598 0.0
H1229 H 0.75586 0.19785 0.96854 0.0
H1230 H 0.70712 0.09599 0.03699 0.0
H1231 H 0.71742 0.0805 0.97756 0.0
Li1232 Li 0.17992 0.56764 0.24781 0.0
Li1233 Li 0.1531 0.5477 0.25751 0.0
Li1234 Li 0.17691 0.53241 0.24565 0.0
Li1235 Li 0.15572 0.54497 0.22405 0.0
C1236 C 0.192 0.55671 0.28465 0.0
N1237 N 0.21939 0.5679 0.31624 0.0
C1238 C 0.18757 0.56231 0.30332 0.0
C1239 C 0.21033 0.55654 0.28211 0.0
C1240 C 0.20162 0.56798 0.31909 0.0
C1241 C 0.22398 0.5623 0.29825 0.0
C1242 C 0.14435 0.58243 0.24152 0.0
C1243 C 0.11578 0.59134 0.23272 0.0
N1244 N 0.12339 0.61029 0.24224 0.0
C1245 C 0.15191 0.60198 0.25119 0.0
C1246 C 0.12616 0.57703 0.23217 0.0
C1247 C 0.14108 0.61585 0.25139 0.0
C1248 C 0.20456 0.59927 0.23841 0.0
N1249 N 0.19681 0.59167 0.25316 0.0
C1250 C 0.21978 0.61366 0.27687 0.0
C1251 C 0.2031 0.59961 0.27208 0.0
C1252 C 0.22935 0.62019 0.2619 0.0
C1253 C 0.22105 0.61379 0.24249 0.0
H1254 H 0.19856 0.5932 0.22351 0.0
H1255 H 0.19573 0.59427 0.28345 0.0
C1256 C 0.13654 0.5328 0.28673 0.0
N1257 N 0.1375 0.5475 0.27611 0.0
C1258 C 0.12642 0.53279 0.30232 0.0
C1259 C 0.11886 0.56323 0.29579 0.0
C1260 C 0.12899 0.56255 0.28028 0.0
C1261 C 0.11773 0.54833 0.30702 0.0
H1262 H 0.14416 0.52154 0.28346 0.0
H1263 H 0.13056 0.57444 0.27218 0.0
C1264 C 0.19687 0.55257 0.21421 0.0
N1265 N 0.22509 0.56225 0.19188 0.0
C1266 C 0.19282 0.55121 0.19414 0.0
C1267 C 0.21531 0.55856 0.22286 0.0
C1268 C 0.20727 0.55618 0.18311 0.0
C1269 C 0.22936 0.56354 0.21136 0.0
C1270 C 0.1355 0.50876 0.24244 0.0
C1271 C 0.13859 0.49129 0.24781 0.0
C1272 C 0.11758 0.51174 0.24088 0.0
C1273 C 0.12368 0.47712 0.25176 0.0
C1274 C 0.10305 0.49726 0.24507 0.0
N1275 N 0.10637 0.48039 0.25035 0.0
C1276 C 0.18973 0.50868 0.26692 0.0
C1277 C 0.20113 0.5082 0.23628 0.0
C1278 C 0.20142 0.49729 0.27266 0.0
N1279 N 0.19012 0.51411 0.24923 0.0
C1280 C 0.21282 0.49638 0.24128 0.0
C1281 C 0.21317 0.49127 0.2598 0.0
H1282 H 0.18072 0.51375 0.27675 0.0
H1283 H 0.2011 0.51305 0.2224 0.0
C1284 C 0.14492 0.55693 0.19065 0.0
N1285 N 0.14277 0.54149 0.20037 0.0
C1286 C 0.13506 0.55445 0.17237 0.0
C1287 C 0.12057 0.52056 0.17525 0.0
C1288 C 0.13089 0.52363 0.1933 0.0
C1289 C 0.12288 0.53599 0.16449 0.0
H1290 H 0.15446 0.57097 0.19705 0.0
H1291 H 0.12949 0.51182 0.20168 0.0
O1292 O 0.1785 0.55208 0.26897 0.0
O1293 O 0.15459 0.56857 0.24169 0.0
O1294 O 0.18276 0.54814 0.22519 0.0
O1295 O 0.14989 0.52256 0.2381 0.0
H1296 H 0.17346 0.5626 0.30554 0.0
H1297 H 0.21399 0.55206 0.26786 0.0
H1298 H 0.19841 0.57253 0.33358 0.0
H1299 H 0.23823 0.56237 0.29645 0.0
H1300 H 0.10164 0.58738 0.22564 0.0
H1301 H 0.1659 0.60636 0.25866 0.0
H1302 H 0.12006 0.56189 0.2248 0.0
H1303 H 0.14672 0.63101 0.25888 0.0
H1304 H 0.22543 0.61862 0.29205 0.0
H1305 H 0.22749 0.61941 0.2306 0.0
H1306 H 0.12615 0.52137 0.31114 0.0
H1307 H 0.11242 0.57551 0.29931 0.0
H1308 H 0.17868 0.54629 0.18712 0.0
H1309 H 0.21873 0.5598 0.23834 0.0
H1310 H 0.20431 0.55522 0.16757 0.0
H1311 H 0.24367 0.56848 0.21792 0.0
H1312 H 0.15233 0.48861 0.24876 0.0
H1313 H 0.11498 0.52516 0.23661 0.0
H1314 H 0.12585 0.4635 0.2559 0.0
H1315 H 0.08912 0.49941 0.24407 0.0
H1316 H 0.2013 0.4932 0.28692 0.0
H1317 H 0.22176 0.49168 0.23111 0.0
H1318 H 0.13718 0.56664 0.16441 0.0
H1319 H 0.11092 0.50632 0.1698 0.0
Li1320 Li 0.7935 0.8925 0.52921 0.0
Li1321 Li 0.80752 0.86978 0.54845 0.0
Li1322 Li 0.82923 0.89629 0.53085 0.0
Li1323 Li 0.80578 0.86493 0.51152 0.0
C1324 C 0.8098 0.91422 0.56673 0.0
N1325 N 0.8029 0.9425 0.59529 0.0
C1326 C 0.79988 0.90836 0.58166 0.0
C1327 C 0.81622 0.93442 0.56628 0.0
C1328 C 0.79654 0.9229 0.59598 0.0
C1329 C 0.81257 0.94851 0.58086 0.0
C1330 C 0.76951 0.84863 0.52363 0.0
C1331 C 0.75396 0.81402 0.5129 0.0
N1332 N 0.73732 0.81878 0.51372 0.0
C1333 C 0.75226 0.85318 0.52436 0.0
C1334 C 0.7704 0.8289 0.51791 0.0
C1335 C 0.73614 0.83787 0.51931 0.0
C1336 C 0.76505 0.90409 0.50735 0.0
N1337 N 0.77292 0.90575 0.52599 0.0
C1338 C 0.75114 0.92412 0.53756 0.0
C1339 C 0.76601 0.91527 0.54105 0.0
C1340 C 0.74333 0.92334 0.51837 0.0
C1341 C 0.75042 0.91294 0.5032 0.0
H1342 H 0.77017 0.89588 0.49556 0.0
H1343 H 0.77196 0.91607 0.55582 0.0
C1344 C 0.82061 0.86226 0.58615 0.0
N1345 N 0.80566 0.85722 0.57214 0.0
C1346 C 0.81957 0.85545 0.60395 0.0
C1347 C 0.78802 0.83751 0.59261 0.0
C1348 C 0.78957 0.84487 0.57504 0.0
C1349 C 0.80308 0.84305 0.60754 0.0
H1350 H 0.83326 0.8721 0.58375 0.0
H1351 H 0.77769 0.84111 0.56396 0.0
C1352 C 0.80933 0.90434 0.49432 0.0
N1353 N 0.80678 0.92698 0.46579 0.0
C1354 C 0.80957 0.89625 0.47487 0.0
C1355 C 0.80807 0.92403 0.49932 0.0
C1356 C 0.80823 0.90792 0.46065 0.0
C1357 C 0.80669 0.93521 0.48465 0.0
C1358 C 0.83697 0.85276 0.52589 0.0
C1359 C 0.85385 0.85781 0.51855 0.0
C1360 C 0.82926 0.83297 0.52707 0.0
C1361 C 0.86267 0.84282 0.51224 0.0
C1362 C 0.8385 0.81842 0.52057 0.0
N1363 N 0.85486 0.8236 0.51333 0.0
C1364 C 0.86704 0.92337 0.54546 0.0
C1365 C 0.85847 0.91658 0.5115 0.0
C1366 C 0.88442 0.93554 0.54335 0.0
N1367 N 0.85429 0.91421 0.52963 0.0
C1368 C 0.87552 0.9286 0.50876 0.0
C1369 C 0.88895 0.93859 0.52476 0.0
H1370 H 0.86377 0.92132 0.55983 0.0
H1371 H 0.84855 0.909 0.49896 0.0
C1372 C 0.78482 0.84608 0.4752 0.0
N1373 N 0.80119 0.84723 0.48611 0.0
C1374 C 0.782 0.83827 0.45523 0.0
C1375 C 0.81221 0.83132 0.45816 0.0
C1376 C 0.81459 0.83955 0.47804 0.0
C1377 C 0.79607 0.83139 0.44633 0.0
H1378 H 0.77449 0.85263 0.48168 0.0
H1379 H 0.82769 0.84099 0.48654 0.0
O1380 O 0.81356 0.90025 0.55285 0.0
O1381 O 0.7854 0.86348 0.52836 0.0
O1382 O 0.80995 0.89291 0.50836 0.0
O1383 O 0.82797 0.86715 0.53171 0.0
H1384 H 0.7948 0.89277 0.58218 0.0
H1385 H 0.82397 0.93914 0.55482 0.0
H1386 H 0.7889 0.9186 0.60765 0.0
H1387 H 0.81745 0.96421 0.58073 0.0
H1388 H 0.75443 0.7987 0.50835 0.0
H1389 H 0.75131 0.86835 0.52884 0.0
H1390 H 0.78364 0.82514 0.51718 0.0
H1391 H 0.7227 0.84118 0.51984 0.0
H1392 H 0.74614 0.93195 0.54974 0.0
H1393 H 0.74467 0.9116 0.4882 0.0
H1394 H 0.83151 0.86018 0.61502 0.0
H1395 H 0.77494 0.82825 0.5948 0.0
H1396 H 0.81086 0.88117 0.47075 0.0
H1397 H 0.80787 0.9305 0.51432 0.0
H1398 H 0.80833 0.90182 0.44553 0.0
H1399 H 0.80549 0.9504 0.48826 0.0
H1400 H 0.85995 0.87309 0.51756 0.0
H1401 H 0.81624 0.8289 0.53281 0.0
H1402 H 0.87568 0.84646 0.5064 0.0
H1403 H 0.83266 0.803 0.52124 0.0
H1404 H 0.89405 0.94281 0.55624 0.0
H1405 H 0.87818 0.92982 0.49404 0.0
H1406 H 0.76936 0.83869 0.44661 0.0
H1407 H 0.82353 0.82649 0.45184 0.0
Li1408 Li 0.94413 0.06258 0.27893 0.0
Li1409 Li 0.91514 0.03721 0.25736 0.0
Li1410 Li 0.94265 0.06024 0.23915 0.0
Li1411 Li 0.91841 0.07947 0.25987 0.0
C1412 C 0.95583 0.02869 0.25977 0.0
N1413 N 0.98232 0.00781 0.26641 0.0
C1414 C 0.95073 0.00985 0.2647 0.0
C1415 C 0.97433 0.03684 0.25799 0.0
C1416 C 0.96435 0.99954 0.26806 0.0
C1417 C 0.98755 0.02606 0.26148 0.0
C1418 C 0.90724 0.05996 0.29612 0.0
C1419 C 0.88307 0.06831 0.31395 0.0
N1420 N 0.88916 0.06003 0.32878 0.0
C1421 C 0.91319 0.05144 0.31148 0.0
C1422 C 0.89205 0.06845 0.29732 0.0
C1423 C 0.90391 0.05167 0.3279 0.0
C1424 C 0.96868 0.08028 0.31852 0.0
N1425 N 0.96035 0.063 0.30587 0.0
C1426 C 0.97092 0.04475 0.33005 0.0
C1427 C 0.96171 0.04543 0.31153 0.0
C1428 C 0.97917 0.06229 0.34371 0.0
C1429 C 0.97807 0.08025 0.33713 0.0
H1430 H 0.96785 0.09433 0.31442 0.0
H1431 H 0.955 0.03156 0.30198 0.0
C1432 C 0.89557 0.99203 0.24228 0.0
N1433 N 0.89889 0.00758 0.25774 0.0
C1434 C 0.88631 0.97212 0.24374 0.0
C1435 C 0.88366 0.9838 0.2769 0.0
C1436 C 0.89282 1.0034 0.27483 0.0
C1437 C 0.88025 0.96729 0.26138 0.0
H1438 H 0.90045 0.99481 0.22868 0.0
H1439 H 0.8953 0.01525 0.28729 0.0
C1440 C 0.96194 0.10132 0.26619 0.0
N1441 N 0.99132 0.13447 0.27576 0.0
C1442 C 0.95906 0.12023 0.26549 0.0
C1443 C 0.97974 0.09926 0.27182 0.0
C1444 C 0.9741 0.13681 0.27035 0.0
C1445 C 0.99442 0.11621 0.2766 0.0
C1446 C 0.90142 0.05466 0.22022 0.0
C1447 C 0.90771 0.06227 0.20413 0.0
C1448 C 0.88257 0.04636 0.22006 0.0
C1449 C 0.89495 0.06135 0.188 0.0
C1450 C 0.87024 0.04577 0.20368 0.0
N1451 N 0.87663 0.05319 0.18812 0.0
C1452 C 0.95924 0.04196 0.2024 0.0
C1453 C 0.96454 0.07659 0.20652 0.0
C1454 C 0.96812 0.04136 0.18498 0.0
N1455 N 0.95724 0.05941 0.21309 0.0
C1456 C 0.97339 0.0766 0.1892 0.0
C1457 C 0.97532 0.05882 0.17751 0.0
H1458 H 0.95373 0.02811 0.20716 0.0
H1459 H 0.96341 0.09063 0.21462 0.0
C1460 C 0.90248 0.11723 0.27747 0.0
N1461 N 0.90386 0.10464 0.26072 0.0
C1462 C 0.89333 0.13344 0.27744 0.0
C1463 C 0.88667 0.12429 0.2431 0.0
C1464 C 0.89583 0.10834 0.24372 0.0
C1465 C 0.88512 0.13779 0.26002 0.0
H1466 H 0.90859 0.11498 0.29125 0.0
H1467 H 0.89645 0.09887 0.23019 0.0
O1468 O 0.94277 0.03915 0.25672 0.0
O1469 O 0.91638 0.06038 0.2801 0.0
O1470 O 0.94732 0.08498 0.26176 0.0
O1471 O 0.91371 0.05533 0.23605 0.0
H1472 H 0.93644 1.00335 0.26612 0.0
H1473 H 0.97844 0.05132 0.25397 0.0
H1474 H 0.96064 0.98499 0.272 0.0
H1475 H 1.00195 0.03221 0.26025 0.0
H1476 H 0.87128 0.07482 0.31507 0.0
H1477 H 0.9247 0.04453 0.31066 0.0
H1478 H 0.88724 0.07505 0.28551 0.0
H1479 H 0.90839 0.04515 0.33991 0.0
H1480 H 0.97095 0.03037 0.33379 0.0
H1481 H 0.9844 0.0945 0.34629 0.0
H1482 H 0.88445 0.96046 0.23114 0.0
H1483 H 0.87926 0.98175 0.29087 0.0
H1484 H 0.94533 0.12207 0.26125 0.0
H1485 H 0.98216 0.08475 0.27267 0.0
H1486 H 0.97209 0.15153 0.26985 0.0
H1487 H 0.00826 0.11485 0.28103 0.0
H1488 H 0.92227 0.06881 0.2041 0.0
H1489 H 0.87755 0.04044 0.23247 0.0
H1490 H 0.8996 0.06713 0.17541 0.0
H1491 H 0.85559 0.03939 0.20333 0.0
H1492 H 0.96886 0.02705 0.17713 0.0
H1493 H 0.9788 0.09082 0.18512 0.0
H1494 H 0.89305 0.14273 0.29119 0.0
H1495 H 0.88059 0.12569 0.22898 0.0
Li1496 Li 0.28418 0.66127 0.54055 0.0
Li1497 Li 0.30084 0.63907 0.52043 0.0
Li1498 Li 0.2838 0.66064 0.50626 0.0
Li1499 Li 0.26785 0.63101 0.51728 0.0
C1500 C 0.31858 0.68581 0.5257 0.0
N1501 N 0.34451 0.72038 0.52437 0.0
C1502 C 0.33718 0.68559 0.52507 0.0
C1503 C 0.31319 0.70367 0.52587 0.0
C1504 C 0.35008 0.7032 0.52437 0.0
C1505 C 0.3265 0.72097 0.52509 0.0
C1506 C 0.2769 0.61941 0.55166 0.0
C1507 C 0.26383 0.58538 0.55437 0.0
N1508 N 0.26021 0.59169 0.57263 0.0
C1509 C 0.27325 0.62552 0.57054 0.0
C1510 C 0.2724 0.59914 0.54359 0.0
C1511 C 0.26475 0.6113 0.58088 0.0
C1512 C 0.26651 0.67473 0.57053 0.0
N1513 N 0.28318 0.67774 0.56374 0.0
C1514 C 0.29659 0.70388 0.59057 0.0
C1515 C 0.29804 0.69217 0.57306 0.0
C1516 C 0.27971 0.70046 0.59832 0.0
C1517 C 0.26444 0.68601 0.58791 0.0
H1518 H 0.25494 0.6632 0.56261 0.0
H1519 H 0.31107 0.69428 0.56711 0.0
C1520 C 0.3328 0.63158 0.50628 0.0
N1521 N 0.32021 0.62708 0.51869 0.0
C1522 C 0.34694 0.62163 0.50481 0.0
C1523 C 0.33368 0.60168 0.52766 0.0
C1524 C 0.32019 0.61234 0.52905 0.0
C1525 C 0.34762 0.60669 0.51589 0.0
H1526 H 0.33191 0.64298 0.49773 0.0
H1527 H 0.30967 0.60883 0.53838 0.0
C1528 C 0.2496 0.66823 0.52209 0.0
N1529 N 0.2233 0.69044 0.52273 0.0
C1530 C 0.23092 0.65898 0.5158 0.0
C1531 C 0.25488 0.68879 0.5287 0.0
C1532 C 0.21785 0.67046 0.51624 0.0
C1533 C 0.24138 0.69976 0.52892 0.0
C1534 C 0.28 0.62003 0.47938 0.0
C1535 C 0.26986 0.6241 0.46342 0.0
C1536 C 0.28583 0.6023 0.4777 0.0
C1537 C 0.26557 0.61027 0.44606 0.0
C1538 C 0.28115 0.58879 0.46012 0.0
N1539 N 0.27121 0.59302 0.4448 0.0
C1540 C 0.298 0.68409 0.4794 0.0
C1541 C 0.26549 0.67683 0.48055 0.0
C1542 C 0.29617 0.69525 0.46489 0.0
N1543 N 0.28275 0.67558 0.48708 0.0
C1544 C 0.26305 0.68793 0.4664 0.0
C1545 C 0.27851 0.6973 0.45865 0.0
H1546 H 0.31146 0.68211 0.48446 0.0
H1547 H 0.25355 0.66878 0.48591 0.0
C1548 C 0.23537 0.61126 0.52712 0.0
N1549 N 0.24642 0.61031 0.51286 0.0
C1550 C 0.21802 0.59832 0.52472 0.0
C1551 C 0.22392 0.58323 0.4932 0.0
C1552 C 0.24132 0.5963 0.49637 0.0
C1553 C 0.21192 0.58464 0.50725 0.0
H1554 H 0.23972 0.62278 0.53992 0.0
H1555 H 0.25017 0.59574 0.48519 0.0
O1556 O 0.30587 0.66864 0.52649 0.0
O1557 O 0.28542 0.63321 0.54147 0.0
O1558 O 0.2626 0.65719 0.52127 0.0
O1559 O 0.28403 0.6332 0.49661 0.0
H1560 H 0.34167 0.672 0.52534 0.0
H1561 H 0.29889 0.70415 0.52635 0.0
H1562 H 0.36452 0.70322 0.52389 0.0
H1563 H 0.3225 0.73487 0.52506 0.0
H1564 H 0.26006 0.56967 0.54822 0.0
H1565 H 0.27719 0.64104 0.57727 0.0
H1566 H 0.27529 0.59413 0.52905 0.0
H1567 H 0.26185 0.61584 0.5955 0.0
H1568 H 0.30867 0.71484 0.59835 0.0
H1569 H 0.25118 0.68312 0.59342 0.0
H1570 H 0.35743 0.62594 0.49556 0.0
H1571 H 0.33333 0.58983 0.53594 0.0
H1572 H 0.22659 0.64313 0.51037 0.0
H1573 H 0.2692 0.69622 0.53367 0.0
H1574 H 0.20337 0.66349 0.51135 0.0
H1575 H 0.24529 0.71567 0.53401 0.0
H1576 H 0.26517 0.63768 0.46445 0.0
H1577 H 0.29355 0.59883 0.48995 0.0
H1578 H 0.25768 0.61321 0.43362 0.0
H1579 H 0.28536 0.5749 0.45867 0.0
H1580 H 0.30821 0.70213 0.45867 0.0
H1581 H 0.24922 0.68895 0.46129 0.0
H1582 H 0.20891 0.6002 0.53568 0.0
H1583 H 0.21947 0.57299 0.47948 0.0
Li1584 Li 0.4155 0.53755 0.75742 0.0
Li1585 Li 0.44456 0.56347 0.77914 0.0
Li1586 Li 0.41848 0.58007 0.75989 0.0
Li1587 Li 0.44268 0.56089 0.73897 0.0
C1588 C 0.40806 0.55994 0.79648 0.0
N1589 N 0.39101 0.55905 0.82978 0.0
C1590 C 0.41462 0.55116 0.81136 0.0
C1591 C 0.39272 0.56806 0.79843 0.0
C1592 C 0.40586 0.55094 0.82813 0.0
C1593 C 0.38429 0.56749 0.81539 0.0
C1594 C 0.4559 0.52894 0.75869 0.0
C1595 C 0.48715 0.52511 0.75812 0.0
N1596 N 0.48196 0.50715 0.76368 0.0
C1597 C 0.45084 0.5104 0.76429 0.0
C1598 C 0.47415 0.53634 0.75546 0.0
C1599 C 0.46423 0.49961 0.76675 0.0
C1600 C 0.39727 0.49141 0.74343 0.0
N1601 N 0.39935 0.50763 0.75803 0.0
C1602 C 0.38238 0.48483 0.77706 0.0
C1603 C 0.392 0.50417 0.7747 0.0
C1604 C 0.37953 0.46773 0.7622 0.0
C1605 C 0.38755 0.47168 0.74518 0.0
H1606 H 0.40327 0.49354 0.73022 0.0
H1607 H 0.3937 0.51644 0.78663 0.0
C1608 C 0.46067 0.57808 0.82281 0.0
N1609 N 0.46071 0.56435 0.80657 0.0
C1610 C 0.46904 0.57689 0.84161 0.0
C1611 C 0.47836 0.54805 0.82736 0.0
C1612 C 0.46975 0.54967 0.8089 0.0
C1613 C 0.47807 0.56161 0.84436 0.0
H1614 H 0.45343 0.58965 0.8215 0.0
H1615 H 0.46988 0.53848 0.79659 0.0
C1616 C 0.40138 0.55478 0.72022 0.0
N1617 N 0.37658 0.55248 0.68787 0.0
C1618 C 0.40755 0.56259 0.70418 0.0
C1619 C 0.38263 0.54588 0.7199 0.0
C1620 C 0.39479 0.56122 0.68793 0.0
C1621 C 0.37029 0.54488 0.70339 0.0
C1622 C 0.46207 0.60198 0.76591 0.0
C1623 C 0.45921 0.62093 0.76542 0.0
C1624 C 0.4799 0.5998 0.77114 0.0
C1625 C 0.47432 0.63745 0.77009 0.0
C1626 C 0.49465 0.61669 0.77574 0.0
N1627 N 0.49158 0.635 0.77511 0.0
C1628 C 0.40192 0.61555 0.77936 0.0
C1629 C 0.39733 0.61229 0.74561 0.0
C1630 C 0.39286 0.63174 0.78147 0.0
N1631 N 0.40408 0.60551 0.76158 0.0
C1632 C 0.38825 0.62862 0.74714 0.0
C1633 C 0.3854 0.63896 0.76534 0.0
H1634 H 0.40727 0.61112 0.79238 0.0
H1635 H 0.39884 0.60504 0.73126 0.0
C1636 C 0.45987 0.54269 0.70248 0.0
N1637 N 0.45705 0.56004 0.71258 0.0
C1638 C 0.46853 0.54195 0.6849 0.0
C1639 C 0.47186 0.57685 0.68767 0.0
C1640 C 0.46328 0.57699 0.70519 0.0
C1641 C 0.47465 0.55914 0.6766 0.0
H1642 H 0.45522 0.529 0.70785 0.0
H1643 H 0.46148 0.59097 0.71277 0.0
O1644 O 0.41671 0.56086 0.78017 0.0
O1645 O 0.44317 0.53999 0.75676 0.0
O1646 O 0.41368 0.55577 0.73614 0.0
O1647 O 0.4474 0.58569 0.76168 0.0
H1648 H 0.42625 0.54446 0.80993 0.0
H1649 H 0.38736 0.57471 0.78694 0.0
H1650 H 0.41084 0.54429 0.8398 0.0
H1651 H 0.37243 0.57376 0.81711 0.0
H1652 H 0.50136 0.5307 0.75581 0.0
H1653 H 0.43678 0.50454 0.76694 0.0
H1654 H 0.47825 0.55067 0.75111 0.0
H1655 H 0.46056 0.4853 0.77119 0.0
H1656 H 0.37745 0.48349 0.79092 0.0
H1657 H 0.3862 0.45963 0.73305 0.0
H1658 H 0.46792 0.58759 0.85407 0.0
H1659 H 0.48458 0.53565 0.82839 0.0
H1660 H 0.42203 0.56958 0.70428 0.0
H1661 H 0.37769 0.53981 0.73226 0.0
H1662 H 0.39936 0.56712 0.67536 0.0
H1663 H 0.35572 0.53803 0.7029 0.0
H1664 H 0.44545 0.62285 0.76149 0.0
H1665 H 0.4823 0.58523 0.77176 0.0
H1666 H 0.47233 0.65221 0.76975 0.0
H1667 H 0.50853 0.61526 0.77985 0.0
H1668 H 0.39201 0.63871 0.79612 0.0
H1669 H 0.38317 0.63282 0.73387 0.0
H1670 H 0.46997 0.5277 0.67759 0.0
H1671 H 0.47638 0.59091 0.68293 0.0
Li1672 Li 0.65381 0.04407 0.7591 0.0
Li1673 Li 0.67972 0.0647 0.74843 0.0
Li1674 Li 0.65579 0.04222 0.72488 0.0
Li1675 Li 0.67781 0.03042 0.7461 0.0
C1676 C 0.64319 0.07825 0.74409 0.0
N1677 N 0.62145 0.10546 0.74502 0.0
C1678 C 0.65051 0.09804 0.75333 0.0
C1679 C 0.62479 0.07235 0.73535 0.0
C1680 C 0.6393 0.11154 0.75367 0.0
C1681 C 0.61404 0.08633 0.73595 0.0
C1682 C 0.69256 0.05211 0.78539 0.0
C1683 C 0.72426 0.05656 0.79936 0.0
N1684 N 0.71933 0.06099 0.81742 0.0
C1685 C 0.68778 0.05651 0.80411 0.0
C1686 C 0.71094 0.05207 0.78299 0.0
C1687 C 0.70152 0.06104 0.82011 0.0
C1688 C 0.63143 0.02863 0.78595 0.0
N1689 N 0.63942 0.04483 0.77867 0.0
C1690 C 0.63043 0.0667 0.80321 0.0
C1691 C 0.6395 0.06358 0.78716 0.0
C1692 C 0.62176 0.05029 0.81085 0.0
C1693 C 0.62224 0.03104 0.80216 0.0
H1694 H 0.63267 0.01401 0.77962 0.0
H1695 H 0.64725 0.07617 0.78195 0.0
C1696 C 0.69602 0.10114 0.7397 0.0
N1697 N 0.69418 0.0898 0.75371 0.0
C1698 C 0.70684 0.1205 0.74427 0.0
C1699 C 0.71274 0.1159 0.77758 0.0
C1700 C 0.70138 0.09711 0.77249 0.0
C1701 C 0.71603 0.12768 0.76329 0.0
H1702 H 0.68912 0.09509 0.72508 0.0
H1703 H 0.69844 0.08845 0.78361 0.0
C1704 C 0.63502 1.00577 0.74052 0.0
N1705 N 0.6035 0.97764 0.74356 0.0
C1706 C 0.63638 0.98721 0.74452 0.0
C1707 C 0.61765 0.01002 0.73795 0.0
C1708 C 0.62027 0.97317 0.74598 0.0
C1709 C 0.60188 0.99562 0.73964 0.0
C1710 C 0.69663 0.0551 0.71566 0.0
C1711 C 0.69269 0.05634 0.69612 0.0
C1712 C 0.71481 0.06215 0.72496 0.0
C1713 C 0.70699 0.06478 0.68623 0.0
C1714 C 0.72871 0.07057 0.71459 0.0
N1715 N 0.72456 0.07168 0.69559 0.0
C1716 C 0.64395 0.05829 0.6956 0.0
C1717 C 0.6303 0.02364 0.69209 0.0
C1718 C 0.63237 0.05969 0.67962 0.0
N1719 N 0.64243 0.04057 0.70156 0.0
C1720 C 0.61854 0.0243 0.67585 0.0
C1721 C 0.61937 0.0426 0.66982 0.0
H1722 H 0.65378 0.07141 0.70373 0.0
H1723 H 0.62942 0.00989 0.69752 0.0
C1724 C 0.6893 1.00289 0.76405 0.0
N1725 N 0.69133 0.0125 0.74876 0.0
C1726 C 0.69943 0.98894 0.76657 0.0
C1727 C 0.7139 0.99598 0.73797 0.0
C1728 C 0.70348 0.00973 0.73601 0.0
C1729 C 0.71149 0.98512 0.75309 0.0
H1730 H 0.67958 1.00587 0.77399 0.0
H1731 H 0.70481 0.01796 0.72421 0.0
O1732 O 0.65407 0.06485 0.74348 0.0
O1733 O 0.67952 0.04943 0.76956 0.0
O1734 O 0.65066 0.01961 0.73902 0.0
O1735 O 0.6829 0.046 0.72522 0.0
H1736 H 0.66457 0.10292 0.7605 0.0
H1737 H 0.61888 0.05717 0.72806 0.0
H1738 H 0.64479 0.12683 0.76085 0.0
H1739 H 0.59979 0.08197 0.72918 0.0
H1740 H 0.73854 0.05668 0.7977 0.0
H1741 H 0.67369 0.05688 0.80625 0.0
H1742 H 0.71493 0.04883 0.76865 0.0
H1743 H 0.69806 0.06473 0.83465 0.0
H1744 H 0.6304 0.08176 0.80971 0.0
H1745 H 0.61604 0.01815 0.80814 0.0
H1746 H 0.70845 0.1294 0.73297 0.0
H1747 H 0.71951 0.12058 0.7924 0.0
H1748 H 0.64974 0.98368 0.74643 0.0
H1749 H 0.61641 0.02433 0.73488 0.0
H1750 H 0.6211 0.95872 0.74904 0.0
H1751 H 0.58834 0.99874 0.73783 0.0
H1752 H 0.67881 0.05051 0.68855 0.0
H1753 H 0.71814 0.06116 0.74001 0.0
H1754 H 0.70414 0.06574 0.67107 0.0
H1755 H 0.74283 0.07615 0.72163 0.0
H1756 H 0.63339 0.07394 0.67511 0.0
H1757 H 0.60851 0.01091 0.6685 0.0
H1758 H 0.69724 0.98064 0.77829 0.0
H1759 H 0.7233 0.9934 0.72749 0.0
Li1760 Li 0.78995 0.70537 0.01838 0.0
Li1761 Li 0.80257 0.67802 1.0016 0.0
Li1762 Li 0.78837 0.7007 0.98169 0.0
Li1763 Li 0.76674 0.67424 0.99847 0.0
C1764 C 0.82584 0.72257 0.00903 0.0
N1765 N 0.85664 0.75332 0.02323 0.0
C1766 C 0.84106 0.71904 0.0198 0.0
C1767 C 0.82633 0.74168 0.00534 0.0
C1768 C 0.8565 0.7348 0.02686 0.0
C1769 C 0.842 0.75706 0.01273 0.0
C1770 C 0.78649 0.66702 0.03643 0.0
C1771 C 0.77842 0.63673 0.04927 0.0
N1772 N 0.78891 0.64614 0.06643 0.0
C1773 C 0.79725 0.67638 0.05414 0.0
C1774 C 0.777 0.64705 0.03393 0.0
C1775 C 0.79825 0.66558 0.06916 0.0
C1776 C 0.77566 0.72157 0.05093 0.0
N1777 N 0.79202 0.72291 0.0435 0.0
C1778 C 0.80859 0.74077 0.07447 0.0
C1779 C 0.80833 0.7328 0.05472 0.0
C1780 C 0.79192 0.73843 0.08267 0.0
C1781 C 0.7753 0.72932 0.07044 0.0
H1782 H 0.76292 0.71321 0.04204 0.0
H1783 H 0.82127 0.73331 0.04887 0.0
C1784 C 0.83546 0.66784 0.99069 0.0
N1785 N 0.8229 0.66462 1.00345 0.0
C1786 C 0.85155 0.66074 0.99224 0.0
C1787 C 0.84146 0.64651 0.01972 0.0
C1788 C 0.82556 0.65397 0.01769 0.0
C1789 C 0.85493 0.65013 0.0071 0.0
H1790 H 0.8332 0.67643 0.97955 0.0
H1791 H 0.81565 0.6516 0.02785 0.0
C1792 C 0.75885 0.71783 1.00212 0.0
N1793 N 0.7402 0.74738 0.01009 0.0
C1794 C 0.73976 0.71285 1.0028 0.0
C1795 C 0.76849 0.73781 0.00548 0.0
C1796 C 0.73057 0.72801 0.00681 0.0
C1797 C 0.7588 0.75254 0.00954 0.0
C1798 C 0.78174 0.65594 0.96189 0.0
C1799 C 0.77627 0.6592 0.94335 0.0
C1800 C 0.78578 0.63785 0.96414 0.0
C1801 C 0.77496 0.64423 0.92727 0.0
C1802 C 0.78431 0.62325 0.94769 0.0
N1803 N 0.77898 0.62672 0.92975 0.0
C1804 C 0.80431 0.71352 0.94759 0.0
C1805 C 0.77566 0.72119 0.95253 0.0
C1806 C 0.805 0.72231 0.93079 0.0
N1807 N 0.78981 0.71317 0.95818 0.0
C1808 C 0.77578 0.73006 0.93592 0.0
C1809 C 0.79065 0.73096 0.92471 0.0
H1810 H 0.81544 0.70701 0.95217 0.0
H1811 H 0.76414 0.72064 0.96089 0.0
C1812 C 0.73472 0.66001 0.01616 0.0
N1813 N 0.7418 0.65664 0.99908 0.0
C1814 C 0.71742 0.64862 0.01893 0.0
C1815 C 0.71444 0.63028 0.98639 0.0
C1816 C 0.73191 0.64213 0.98421 0.0
C1817 C 0.7069 0.63321 1.00408 0.0
H1818 H 0.7426 0.67164 0.0278 0.0
H1819 H 0.7376 0.63956 0.97066 0.0
O1820 O 0.81074 0.70726 1.00169 0.0
O1821 O 0.78518 0.67733 0.02159 0.0
O1822 O 0.76802 0.70316 0.99822 0.0
O1823 O 0.78355 0.67061 0.97769 0.0
H1824 H 0.84093 0.70432 0.02273 0.0
H1825 H 0.81477 0.74458 0.99679 0.0
H1826 H 0.86837 0.7323 0.03523 0.0
H1827 H 0.84256 0.77194 0.01005 0.0
H1828 H 0.77119 0.62125 0.04754 0.0
H1829 H 0.80483 0.69176 0.05626 0.0
H1830 H 0.76871 0.63958 0.02024 0.0
H1831 H 0.80649 0.67263 0.08296 0.0
H1832 H 0.82173 0.74733 0.08352 0.0
H1833 H 0.76218 0.72702 0.07626 0.0
H1834 H 0.86136 0.6637 0.98196 0.0
H1835 H 0.84348 0.6386 0.03151 0.0
H1836 H 0.73213 0.69742 1.00016 0.0
H1837 H 0.78328 0.74186 1.00509 0.0
H1838 H 0.71577 0.72438 0.00732 0.0
H1839 H 0.76607 0.76808 0.01226 0.0
H1840 H 0.77309 0.67314 0.9414 0.0
H1841 H 0.79011 0.63518 0.97843 0.0
H1842 H 0.77078 0.64654 0.91282 0.0
H1843 H 0.78743 0.60918 0.94917 0.0
H1844 H 0.81684 0.72263 0.9229 0.0
H1845 H 0.7641 0.73598 0.93183 0.0
H1846 H 0.71235 0.65209 0.0327 0.0
H1847 H 0.70714 0.61865 0.97445 0.0
Li1848 Li 0.91462 0.51084 0.77855 0.0
Li1849 Li 0.93815 0.53065 0.80357 0.0
Li1850 Li 0.91741 0.5455 0.78335 0.0
Li1851 Li 0.94141 0.53079 0.76956 0.0
C1852 C 0.89881 0.52172 0.81442 0.0
N1853 N 0.87382 0.50892 0.83918 0.0
C1854 C 0.90296 0.50961 0.82737 0.0
C1855 C 0.882 0.52738 0.81408 0.0
C1856 C 0.89015 0.50333 0.83982 0.0
C1857 C 0.86951 0.52067 0.82665 0.0
C1858 C 0.94924 0.4945 0.78515 0.0
C1859 C 0.97723 0.48295 0.78326 0.0
N1860 N 0.96783 0.46462 0.78552 0.0
C1861 C 0.93994 0.47564 0.78779 0.0
C1862 C 0.96811 0.4983 0.78318 0.0
C1863 C 0.94956 0.4607 0.78784 0.0
C1864 C 0.90335 0.47409 0.75582 0.0
N1865 N 0.89858 0.48665 0.77021 0.0
C1866 C 0.87031 0.46382 0.77092 0.0
C1867 C 0.88227 0.48216 0.77746 0.0
C1868 C 0.87532 0.45028 0.75682 0.0
C1869 C 0.89172 0.45546 0.74876 0.0
H1870 H 0.91628 0.47852 0.75008 0.0
H1871 H 0.87848 0.49273 0.78816 0.0
C1872 C 0.95542 0.55083 0.83921 0.0
N1873 N 0.95105 0.53267 0.82763 0.0
C1874 C 0.96672 0.55399 0.85677 0.0
C1875 C 0.96845 0.51953 0.85008 0.0
C1876 C 0.95683 0.51697 0.83285 0.0
C1877 C 0.97376 0.53833 0.8621 0.0
H1878 H 0.95042 0.56291 0.83455 0.0
H1879 H 0.95277 0.50259 0.82353 0.0
C1880 C 0.90228 0.51719 0.74383 0.0
N1881 N 0.87493 0.49487 0.71464 0.0
C1882 C 0.90697 0.50936 0.72591 0.0
C1883 C 0.88363 0.51406 0.74673 0.0
C1884 C 0.89294 0.49809 0.71136 0.0
C1885 C 0.87003 0.50254 0.73187 0.0
C1886 C 0.9595 0.56845 0.78812 0.0
C1887 C 0.95665 0.58483 0.7803 0.0
C1888 C 0.97751 0.56678 0.79331 0.0
C1889 C 0.97197 0.5993 0.77766 0.0
C1890 C 0.99246 0.58154 0.79039 0.0
N1891 N 0.98941 0.59736 0.78269 0.0
C1892 C 0.90129 0.57657 0.7976 0.0
C1893 C 0.89945 0.5665 0.76336 0.0
C1894 C 0.89229 0.59152 0.79491 0.0
N1895 N 0.9048 0.56474 0.78184 0.0
C1896 C 0.89038 0.58098 0.76002 0.0
C1897 C 0.88715 0.59384 0.77589 0.0
H1898 H 0.90583 0.57463 0.8121 0.0
H1899 H 0.9027 0.55704 0.75118 0.0
C1900 C 0.95482 0.5103 0.74261 0.0
N1901 N 0.95689 0.52966 0.7506 0.0
C1902 C 0.964 0.50517 0.72719 0.0
C1903 C 0.97668 0.54022 0.72755 0.0
C1904 C 0.96744 0.5447 0.74347 0.0
C1905 C 0.97492 0.52019 0.71945 0.0
H1906 H 0.94537 0.49879 0.74772 0.0
H1907 H 0.96814 0.56 0.74955 0.0
O1908 O 0.9112 0.52832 0.8023 0.0
O1909 O 0.93975 0.50891 0.78366 0.0
O1910 O 0.91587 0.52797 0.75841 0.0
O1911 O 0.94472 0.55433 0.79108 0.0
H1912 H 0.91589 0.50507 0.82778 0.0
H1913 H 0.87858 0.53669 0.80407 0.0
H1914 H 0.89318 0.494 0.84997 0.0
H1915 H 0.85639 0.52481 0.82646 0.0
H1916 H 0.99176 0.48559 0.78145 0.0
H1917 H 0.92545 0.47253 0.78979 0.0
H1918 H 0.97555 0.51286 0.78125 0.0
H1919 H 0.94249 0.44599 0.7897 0.0
H1920 H 0.85748 0.45999 0.77714 0.0
H1921 H 0.8957 0.44507 0.7378 0.0
H1922 H 0.97013 0.56858 0.8659 0.0
H1923 H 0.97365 0.5071 0.85361 0.0
H1924 H 0.92126 0.51199 0.72322 0.0
H1925 H 0.87976 0.52013 0.76048 0.0
H1926 H 0.89639 0.49189 0.69745 0.0
H1927 H 0.85557 0.49969 0.73404 0.0
H1928 H 0.94275 0.58634 0.77634 0.0
H1929 H 0.97986 0.55418 0.79946 0.0
H1930 H 0.97 0.61207 0.77161 0.0
H1931 H 1.0065 0.58044 0.79424 0.0
H1932 H 0.88993 0.60149 0.80734 0.0
H1933 H 0.88647 0.5826 0.74522 0.0
H1934 H 0.96173 0.48961 0.72068 0.0
H1935 H 0.98466 0.55209 0.72136 0.0
Li1936 Li 0.80955 0.41341 0.52057 0.0
Li1937 Li 0.79337 0.43577 0.50651 0.0
Li1938 Li 0.81074 0.41413 0.48615 0.0
Li1939 Li 0.82622 0.44303 0.5116 0.0
C1940 C 0.77557 0.3897 0.50135 0.0
N1941 N 0.74972 0.35636 0.50594 0.0
C1942 C 0.75915 0.39165 0.50868 0.0
C1943 C 0.77875 0.3708 0.49609 0.0
C1944 C 0.74627 0.3746 0.51095 0.0
C1945 C 0.76553 0.35412 0.49861 0.0
C1946 C 0.81683 0.45495 0.54721 0.0
C1947 C 0.82872 0.48953 0.56185 0.0
N1948 N 0.83346 0.48407 0.57901 0.0
C1949 C 0.82157 0.44972 0.56509 0.0
C1950 C 0.82017 0.47504 0.54565 0.0
C1951 C 0.83004 0.46464 0.58095 0.0
C1952 C 0.8282 0.40102 0.54873 0.0
N1953 N 0.81074 0.39852 0.53975 0.0
C1954 C 0.79806 0.37752 0.56111 0.0
C1955 C 0.79569 0.38753 0.54587 0.0
C1956 C 0.81598 0.37966 0.57025 0.0
C1957 C 0.83117 0.39168 0.56425 0.0
H1958 H 0.83977 0.41053 0.54401 0.0
H1959 H 0.78194 0.38663 0.53916 0.0
C1960 C 0.76131 0.44501 0.49138 0.0
N1961 N 0.7733 0.44701 0.50763 0.0
C1962 C 0.74684 0.45451 0.49206 0.0
C1963 C 0.75749 0.4678 0.52617 0.0
C1964 C 0.7715 0.45774 0.5249 0.0
C1965 C 0.74504 0.46643 0.50954 0.0
H1966 H 0.76314 0.4362 0.47793 0.0
H1967 H 0.78113 0.45878 0.53764 0.0
C1968 C 0.84351 0.40504 0.50504 0.0
N1969 N 0.86902 0.38192 0.50393 0.0
C1970 C 0.86231 0.4138 0.50536 0.0
C1971 C 0.83764 0.38449 0.50399 0.0
C1972 C 0.875 0.40188 0.50484 0.0
C1973 C 0.85077 0.37306 0.50346 0.0
C1974 C 0.81868 0.45639 0.47678 0.0
C1975 C 0.83177 0.45196 0.46487 0.0
C1976 C 0.81384 0.47461 0.47773 0.0
C1977 C 0.83989 0.46594 0.45408 0.0
C1978 C 0.82233 0.48822 0.46676 0.0
N1979 N 0.83505 0.48363 0.45525 0.0
C1980 C 0.79371 0.38703 0.45284 0.0
C1981 C 0.8265 0.39473 0.455 0.0
C1982 C 0.79218 0.37268 0.43625 0.0
N1983 N 0.81066 0.39748 0.462 0.0
C1984 C 0.82559 0.38069 0.43818 0.0
C1985 C 0.80825 0.36924 0.42887 0.0
H1986 H 0.78137 0.38948 0.45877 0.0
H1987 H 0.83983 0.40307 0.4627 0.0
C1988 C 0.85774 0.4572 0.53586 0.0
N1989 N 0.84834 0.46221 0.52068 0.0
C1990 C 0.87622 0.46656 0.54183 0.0
C1991 C 0.8745 0.48747 0.51768 0.0
C1992 C 0.85588 0.47785 0.51236 0.0
C1993 C 0.88498 0.48071 0.53159 0.0
H1994 H 0.85135 0.44464 0.5421 0.0
H1995 H 0.84808 0.48177 0.50054 0.0
O1996 O 0.78832 0.40623 0.49909 0.0
O1997 O 0.80878 0.44048 0.5314 0.0
O1998 O 0.83109 0.41674 0.50653 0.0
O1999 O 0.81018 0.44274 0.48701 0.0
H2000 H 0.75647 0.40619 0.51273 0.0
H2001 H 0.79128 0.36903 0.49016 0.0
H2002 H 0.73355 0.37588 0.51674 0.0
H2003 H 0.76784 0.3394 0.49471 0.0
H2004 H 0.83161 0.50511 0.56078 0.0
H2005 H 0.81866 0.43432 0.56677 0.0
H2006 H 0.81645 0.47935 0.53196 0.0
H2007 H 0.83387 0.46077 0.59482 0.0
H2008 H 0.78616 0.36823 0.56569 0.0
H2009 H 0.84515 0.39339 0.57116 0.0
H2010 H 0.73727 0.45262 0.479 0.0
H2011 H 0.75676 0.47691 0.53989 0.0
H2012 H 0.86703 0.42966 0.50606 0.0
H2013 H 0.82318 0.37751 0.50391 0.0
H2014 H 0.88961 0.4085 0.5052 0.0
H2015 H 0.84645 0.35715 0.50279 0.0
H2016 H 0.83563 0.43792 0.46401 0.0
H2017 H 0.80367 0.47817 0.48686 0.0
H2018 H 0.85003 0.46272 0.44477 0.0
H2019 H 0.81879 0.50242 0.46738 0.0
H2020 H 0.77857 0.36419 0.42935 0.0
H2021 H 0.83826 0.37829 0.43293 0.0
H2022 H 0.88412 0.46084 0.55235 0.0
H2023 H 0.88113 0.49819 0.50935 0.0
Li2024 Li 0.65202 0.51202 0.28991 0.0
Li2025 Li 0.67975 0.53524 0.27228 0.0
Li2026 Li 0.651 0.50949 0.25031 0.0
Li2027 Li 0.67623 0.49254 0.26864 0.0
C2028 C 0.63904 0.54349 0.26977 0.0
N2029 N 0.6126 0.56477 0.26448 0.0
C2030 C 0.64434 0.56416 0.27161 0.0
C2031 C 0.62033 0.53361 0.26523 0.0
C2032 C 0.63075 0.57467 0.26893 0.0
C2033 C 0.60717 0.54464 0.26257 0.0
C2034 C 0.69346 0.52044 0.30927 0.0
C2035 C 0.72314 0.51988 0.32541 0.0
N2036 N 0.7184 0.52797 0.34258 0.0
C2037 C 0.68888 0.52881 0.32701 0.0
C2038 C 0.7107 0.51597 0.30839 0.0
C2039 C 0.70169 0.53249 0.34371 0.0
C2040 C 0.63216 0.49789 0.32565 0.0
N2041 N 0.63756 0.51351 0.31604 0.0
C2042 C 0.62535 0.53381 0.34116 0.0
C2043 C 0.63389 0.53124 0.32376 0.0
C2044 C 0.61997 0.51818 0.35177 0.0
C2045 C 0.62344 0.49985 0.34315 0.0
H2046 H 0.63478 0.48365 0.31999 0.0
H2047 H 0.63778 0.54382 0.31654 0.0
C2048 C 0.70018 0.5721 0.2561 0.0
N2049 N 0.69574 0.56534 0.27287 0.0
C2050 C 0.70927 0.59243 0.25605 0.0
C2051 C 0.70916 0.59941 0.29039 0.0
C2052 C 0.70033 0.57897 0.28987 0.0
C2053 C 0.71384 0.60694 0.27334 0.0
H2054 H 0.69632 0.56185 0.24238 0.0
H2055 H 0.6968 0.57418 0.30327 0.0
C2056 C 0.63269 0.4713 0.26004 0.0
N2057 N 0.60322 0.4392 0.24525 0.0
C2058 C 0.63562 0.45436 0.24861 0.0
C2059 C 0.61479 0.47191 0.264 0.0
C2060 C 0.62054 0.43826 0.24129 0.0
C2061 C 0.60006 0.45555 0.25632 0.0
C2062 C 0.68645 0.51067 0.23224 0.0
C2063 C 0.67674 0.49701 0.21594 0.0
C2064 C 0.70401 0.52233 0.23114 0.0
C2065 C 0.68463 0.49554 0.19862 0.0
C2066 C 0.71147 0.52034 0.2136 0.0
N2067 N 0.70169 0.50714 0.19782 0.0
C2068 C 0.63447 0.52736 0.21779 0.0
C2069 C 0.62575 0.49247 0.21094 0.0
C2070 C 0.62511 0.5284 0.19944 0.0
N2071 N 0.63495 0.50956 0.22345 0.0
C2072 C 0.61645 0.49287 0.1924 0.0
C2073 C 0.61607 0.51101 0.18592 0.0
H2074 H 0.64173 0.54106 0.22737 0.0
H2075 H 0.62589 0.47826 0.21505 0.0
C2076 C 0.69712 0.46243 0.28487 0.0
N2077 N 0.69058 0.46723 0.26777 0.0
C2078 C 0.70641 0.4466 0.28554 0.0
C2079 C 0.70235 0.43937 0.25103 0.0
C2080 C 0.69313 0.45552 0.25095 0.0
C2081 C 0.70964 0.4344 0.26855 0.0
H2082 H 0.6952 0.47092 0.29846 0.0
H2083 H 0.68809 0.45857 0.23709 0.0
O2084 O 0.65212 0.53293 0.27222 0.0
O2085 O 0.6809 0.51614 0.29291 0.0
O2086 O 0.64732 0.48705 0.2676 0.0
O2087 O 0.67885 0.51264 0.24922 0.0
H2088 H 0.65878 0.57201 0.27511 0.0
H2089 H 0.61605 0.51759 0.2636 0.0
H2090 H 0.63463 0.59069 0.27037 0.0
H2091 H 0.59264 0.53719 0.25896 0.0
H2092 H 0.73652 0.51643 0.32499 0.0
H2093 H 0.67557 0.53234 0.32789 0.0
H2094 H 0.71438 0.50942 0.29472 0.0
H2095 H 0.69833 0.53889 0.35758 0.0
H2096 H 0.62296 0.5483 0.34621 0.0
H2097 H 0.6199 0.48706 0.35016 0.0
H2098 H 0.71209 0.59683 0.2423 0.0
H2099 H 0.71229 0.6093 0.30435 0.0
H2100 H 0.64942 0.45364 0.2455 0.0
H2101 H 0.61233 0.48484 0.273 0.0
H2102 H 0.6226 0.42502 0.23248 0.0
H2103 H 0.58613 0.45582 0.25924 0.0
H2104 H 0.66326 0.48765 0.21667 0.0
H2105 H 0.71179 0.53278 0.24374 0.0
H2106 H 0.67721 0.48515 0.18583 0.0
H2107 H 0.72504 0.5293 0.21252 0.0
H2108 H 0.6256 0.54286 0.19562 0.0
H2109 H 0.60961 0.47881 0.18314 0.0
H2110 H 0.71093 0.44393 0.29974 0.0
H2111 H 0.70405 0.43108 0.23723 0.0
Gd2112 Gd 0.02904 0.02717 1.00315 0.0
Gd2113 Gd 0.06455 0.04363 0.0264 0.0
C2114 C 0.04487 0.07456 0.00857 0.0
C2115 C 0.99362 0.01462 0.99246 0.0
C2116 C 0.97827 0.02473 0.99281 0.0
C2117 C 0.9631 0.01787 0.97824 0.0
C2118 C 0.97894 0.04169 0.00684 0.0
C2119 C 0.94939 0.0447 0.9914 0.0
C2120 C 0.96455 0.05155 0.00619 0.0
C2121 C 0.94881 0.0277 0.97754 0.0
C2122 C 0.05661 0.02873 0.97827 0.0
C2123 C 0.04957 0.99625 0.02044 0.0
C2124 C 0.09961 0.05487 0.03882 0.0
C2125 C 0.11559 0.04598 0.03795 0.0
C2126 C 0.1307 0.05316 0.0526 0.0
C2127 C 0.11552 0.02973 0.02342 0.0
C2128 C 0.14634 0.02917 0.0373 0.0
C2129 C 0.13086 0.02134 0.0231 0.0
C2130 C 0.14599 0.04485 0.05226 0.0
C2131 C 0.03908 0.04639 0.05329 0.0
O2132 O 0.03003 0.05972 1.00413 0.0
O2133 O 0.0606 0.07184 0.01643 0.0
O2134 O 1.00548 0.0196 0.9805 0.0
O2135 O 1.00166 0.01308 0.00923 0.0
O2136 O 0.03994 0.03077 0.97432 0.0
O2137 O 0.05764 0.02449 0.99563 0.0
O2138 O 0.06394 0.01148 0.02596 0.0
O2139 O 0.03398 0.99833 0.0114 0.0
O2140 O 0.08718 0.04674 0.04894 0.0
O2141 O 0.09239 0.05888 0.02263 0.0
O2142 O 0.05686 0.0521 0.05703 0.0
O2143 O 0.03542 0.03937 0.03496 0.0
H2144 H 0.96237 1.00493 0.96726 0.0
H2145 H 0.99065 0.04742 0.01814 0.0
H2146 H 0.96545 0.06469 0.01698 0.0
H2147 H 0.9372 0.02185 0.96617 0.0
H2148 H 0.13076 0.06535 0.0642 0.0
H2149 H 0.10375 0.02373 0.01224 0.0
H2150 H 0.13094 0.00932 0.01138 0.0
H2151 H 0.15778 0.05098 0.06341 0.0
Gd2152 Gd 0.30719 0.77978 0.2449 0.0
Gd2153 Gd 0.28531 0.78764 0.2814 0.0
C2154 C 0.30219 0.82331 0.26243 0.0
C2155 C 0.31933 0.77772 0.21194 0.0
C2156 C 0.32228 0.79254 0.19948 0.0
C2157 C 0.33997 0.79843 0.19397 0.0
C2158 C 0.30936 0.804 0.19713 0.0
C2159 C 0.33201 0.82743 0.18424 0.0
C2160 C 0.31413 0.82121 0.18937 0.0
C2161 C 0.34488 0.81586 0.18656 0.0
C2162 C 0.33006 0.78339 0.27921 0.0
C2163 C 0.29011 0.74357 0.26376 0.0
C2164 C 0.2742 0.7907 0.31483 0.0
C2165 C 0.26495 0.77508 0.32462 0.0
C2166 C 0.24706 0.7748 0.3293 0.0
C2167 C 0.2733 0.75976 0.32831 0.0
C2168 C 0.24766 0.74669 0.34516 0.0
C2169 C 0.26472 0.74567 0.33856 0.0
C2170 C 0.23833 0.7605 0.3393 0.0
C2171 C 0.26209 0.78377 0.24749 0.0
O2172 O 0.3042 0.81095 0.24701 0.0
O2173 O 0.29897 0.81821 0.27923 0.0
O2174 O 0.33012 0.78372 0.2285 0.0
O2175 O 0.30212 0.76921 0.21371 0.0
O2176 O 0.3345 0.77933 0.26198 0.0
O2177 O 0.31354 0.78533 0.27687 0.0
O2178 O 0.28568 0.75555 0.27815 0.0
O2179 O 0.29536 0.74898 0.24762 0.0
O2180 O 0.26432 0.79276 0.29935 0.0
O2181 O 0.29162 0.79167 0.31265 0.0
O2182 O 0.25748 0.7868 0.26477 0.0
O2183 O 0.27886 0.78245 0.24927 0.0
H2184 H 0.3503 0.79008 0.19636 0.0
H2185 H 0.29582 0.80006 0.20188 0.0
H2186 H 0.30374 0.82952 0.18726 0.0
H2187 H 0.35877 0.82037 0.18282 0.0
H2188 H 0.24011 0.78608 0.32584 0.0
H2189 H 0.28679 0.75914 0.32409 0.0
H2190 H 0.27233 0.73523 0.34285 0.0
H2191 H 0.22504 0.76133 0.34397 0.0
Gd2192 Gd 0.56844 0.03432 0.51521 0.0
Gd2193 Gd 0.52635 0.03498 0.51333 0.0
C2194 C 0.53631 0.99284 0.50514 0.0
C2195 C 0.6015 0.02841 0.52131 0.0
C2196 C 0.61317 0.01388 0.51713 0.0
C2197 C 0.6174 0.00807 0.49827 0.0
C2198 C 0.622 0.00752 0.53264 0.0
C2199 C 0.64006 0.99112 0.51089 0.0
C2200 C 0.63518 0.99628 0.52959 0.0
C2201 C 0.63061 0.9968 0.4952 0.0
C2202 C 0.55184 0.03816 0.48119 0.0
C2203 C 0.55855 0.07646 0.52386 0.0
C2204 C 0.49343 0.0412 0.50698 0.0
C2205 C 0.48252 0.05655 0.51076 0.0
C2206 C 0.46886 0.05439 0.52343 0.0
C2207 C 0.48429 0.07239 0.50047 0.0
C2208 C 0.45868 0.08319 0.51492 0.0
C2209 C 0.47257 0.08546 0.5025 0.0
C2210 C 0.45712 0.06753 0.5255 0.0
C2211 C 0.5433 0.03179 0.54765 0.0
O2212 O 0.55361 1.00195 0.51251 0.0
O2213 O 0.52369 1.00271 0.50105 0.0
O2214 O 0.59603 0.03661 0.50703 0.0
O2215 O 0.58905 0.02492 0.53319 0.0
O2216 O 0.56892 0.04701 0.48774 0.0
O2217 O 0.54469 0.02707 0.49226 0.0
O2218 O 0.54132 0.06753 0.51588 0.0
O2219 O 0.57088 0.06627 0.52813 0.0
O2220 O 0.49878 0.03353 0.5217 0.0
O2221 O 0.5058 0.04363 0.49485 0.0
O2222 O 0.52582 0.02418 0.54196 0.0
O2223 O 0.55021 0.04234 0.5361 0.0
H2224 H 0.61094 0.01269 0.48592 0.0
H2225 H 0.61928 0.01197 0.54735 0.0
H2226 H 0.64219 0.99248 0.54212 0.0
H2227 H 0.63362 0.99285 0.4805 0.0
H2228 H 0.467 0.04226 0.53148 0.0
H2229 H 0.49445 0.07447 0.49042 0.0
H2230 H 0.4741 0.09705 0.4938 0.0
H2231 H 0.44681 0.06537 0.53537 0.0
Gd2232 Gd 0.27771 0.29139 0.76511 0.0
Gd2233 Gd 0.31598 0.27886 0.76338 0.0
C2234 C 0.30358 0.29308 0.80562 0.0
C2235 C 0.24286 0.28701 0.76997 0.0
C2236 C 0.22958 0.29134 0.78393 0.0
C2237 C 0.21979 0.30598 0.78182 0.0
C2238 C 0.2248 0.27926 0.7979 0.0
C2239 C 0.20044 0.29603 0.80682 0.0
C2240 C 0.21051 0.2816 0.80918 0.0
C2241 C 0.2055 0.30831 0.79306 0.0
C2242 C 0.3051 0.32597 0.76532 0.0
C2243 C 0.29126 0.27975 0.72318 0.0
C2244 C 0.35 0.27709 0.75939 0.0
C2245 C 0.36417 0.27898 0.74565 0.0
C2246 C 0.37394 0.26403 0.7422 0.0
C2247 C 0.36882 0.29567 0.73668 0.0
C2248 C 0.39404 0.28336 0.72284 0.0
C2249 C 0.38355 0.29781 0.72543 0.0
C2250 C 0.38864 0.26614 0.73088 0.0
C2251 C 0.28729 0.24528 0.76393 0.0
O2252 O 0.28836 0.29623 0.79686 0.0
O2253 O 0.31626 0.28653 0.79604 0.0
O2254 O 0.25199 0.30135 0.76205 0.0
O2255 O 0.25271 0.27447 0.77366 0.0
O2256 O 0.28753 0.32455 0.76623 0.0
O2257 O 0.30747 0.30809 0.76449 0.0
O2258 O 0.30769 0.28015 0.73218 0.0
O2259 O 0.277 0.28193 0.73263 0.0
O2260 O 0.33576 0.26186 0.75455 0.0
O2261 O 0.34556 0.29312 0.76789 0.0
O2262 O 0.30457 0.24531 0.76334 0.0
O2263 O 0.28675 0.26342 0.76412 0.0
H2264 H 0.22277 0.31529 0.77099 0.0
H2265 H 0.23181 0.26762 0.79985 0.0
H2266 H 0.20734 0.27201 0.81972 0.0
H2267 H 0.198 0.31938 0.79043 0.0
H2268 H 0.37059 0.25095 0.74884 0.0
H2269 H 0.36142 0.30732 0.73879 0.0
H2270 H 0.38713 0.31114 0.71921 0.0
H2271 H 0.3964 0.25478 0.72932 0.0
Gd2272 Gd 0.04579 0.05655 0.52461 0.0
Gd2273 Gd 0.05091 0.01516 0.50342 0.0
C2274 C 0.034 0.04223 0.47597 0.0
C2275 C 0.04949 0.0943 0.53292 0.0
C2276 C 0.04959 0.10949 0.52062 0.0
C2277 C 0.03821 0.12272 0.52409 0.0
C2278 C 0.06015 0.1105 0.50499 0.0
C2279 C 0.04967 0.13945 0.49824 0.0
C2280 C 0.06021 0.12545 0.49387 0.0
C2281 C 0.03822 0.13753 0.51299 0.0
C2282 C 0.01462 0.02648 0.52454 0.0
C2283 C 0.06319 0.03023 0.55231 0.0
C2284 C 0.04616 0.97721 0.49526 0.0
C2285 C 0.04333 0.96294 0.50849 0.0
C2286 C 0.04649 0.94396 0.50345 0.0
C2287 C 0.03872 0.96897 0.52702 0.0
C2288 C 0.03913 0.93667 0.53503 0.0
C2289 C 0.03691 0.95609 0.54026 0.0
C2290 C 0.0443 0.93081 0.51663 0.0
C2291 C 0.08176 0.04396 0.5012 0.0
O2292 O 0.03735 0.05618 0.49207 0.0
O2293 O 0.03726 0.02436 0.47661 0.0
O2294 O 0.03358 0.08149 0.53174 0.0
O2295 O 0.0637 0.08617 0.53351 0.0
O2296 O 0.01633 0.04503 0.53198 0.0
O2297 O 0.02979 0.02568 0.51816 0.0
O2298 O 0.06061 0.01646 0.5361 0.0
O2299 O 0.059 0.04766 0.55172 0.0
O2300 O 0.06253 0.98951 0.49864 0.0
O2301 O 0.03266 0.98607 0.4924 0.0
O2302 O 0.07851 0.02533 0.49327 0.0
O2303 O 0.06767 0.04643 0.50942 0.0
H2304 H 0.02958 0.12184 0.5357 0.0
H2305 H 0.06866 0.10008 0.50167 0.0
H2306 H 0.06919 0.1267 0.4826 0.0
H2307 H 0.02983 0.14805 0.51644 0.0
H2308 H 0.05043 0.93927 0.48931 0.0
H2309 H 0.03636 0.98363 0.53124 0.0
H2310 H 0.03335 0.96121 0.55448 0.0
H2311 H 0.04603 0.9159 0.51218 0.0
Gd2312 Gd 0.31335 0.80091 0.76272 0.0
Gd2313 Gd 0.27952 0.77054 0.76403 0.0
C2314 C 0.31675 0.75338 0.76573 0.0
C2315 C 0.34632 0.82323 0.77039 0.0
C2316 C 0.36363 0.81792 0.77586 0.0
C2317 C 0.37997 0.82658 0.76893 0.0
C2318 C 0.3637 0.80355 0.78771 0.0
C2319 C 0.39662 0.80796 0.7873 0.0
C2320 C 0.38004 0.79854 0.79328 0.0
C2321 C 0.39648 0.82162 0.77466 0.0
C2322 C 0.29639 0.78036 0.72797 0.0
C2323 C 0.27596 0.818 0.76173 0.0
C2324 C 0.24649 0.74844 0.75539 0.0
C2325 C 0.22809 0.7527 0.7549 0.0
C2326 C 0.22035 0.75687 0.77214 0.0
C2327 C 0.21834 0.75327 0.73701 0.0
C2328 C 0.19318 0.76139 0.75354 0.0
C2329 C 0.20106 0.7577 0.73635 0.0
C2330 C 0.20302 0.76116 0.77144 0.0
C2331 C 0.29717 0.78868 0.79908 0.0
O2332 O 0.32524 0.77289 0.76795 0.0
O2333 O 0.29829 0.74834 0.76265 0.0
O2334 O 0.33847 0.81573 0.75258 0.0
O2335 O 0.33464 0.8218 0.78324 0.0
O2336 O 0.30367 0.7994 0.73073 0.0
O2337 O 0.299 0.77369 0.74321 0.0
O2338 O 0.26766 0.79858 0.76012 0.0
O2339 O 0.29442 0.82316 0.7638 0.0
O2340 O 0.25609 0.75096 0.77254 0.0
O2341 O 0.25644 0.75519 0.74235 0.0
O2342 O 0.28918 0.76983 0.795 0.0
O2343 O 0.29451 0.7971 0.78485 0.0
H2344 H 0.38002 0.83744 0.7595 0.0
H2345 H 0.35121 0.7965 0.79309 0.0
H2346 H 0.37984 0.78777 0.80283 0.0
H2347 H 0.40921 0.82907 0.76994 0.0
H2348 H 0.22759 0.75672 0.78616 0.0
H2349 H 0.22402 0.75016 0.72351 0.0
H2350 H 0.19358 0.75753 0.72234 0.0
H2351 H 0.19718 0.76407 0.78487 0.0
Gd2352 Gd 0.55306 0.03361 0.03433 0.0
Gd2353 Gd 0.53962 0.0379 0.99484 0.0
C2354 C 0.51205 0.0086 0.01216 0.0
C2355 C 0.55272 0.02875 0.06952 0.0
C2356 C 0.53745 0.01703 0.07748 0.0
C2357 C 0.54099 1.00362 0.08922 0.0
C2358 C 0.51907 0.01788 0.07208 0.0
C2359 C 0.50827 0.99417 0.09255 0.0
C2360 C 0.50455 1.0063 0.07936 0.0
C2361 C 0.52651 0.99226 0.09674 0.0
C2362 C 0.56424 0.01044 0.00611 0.0
C2363 C 0.58076 0.0623 0.01645 0.0
C2364 C 0.54032 0.04633 0.96107 0.0
C2365 C 0.55578 0.05987 0.95494 0.0
C2366 C 0.5533 0.07767 0.94967 0.0
C2367 C 0.57338 0.05573 0.95506 0.0
C2368 C 0.58256 0.08196 0.93697 0.0
C2369 C 0.58706 0.06731 0.94666 0.0
C2370 C 0.5671 0.08921 0.94136 0.0
C2371 C 0.52773 0.06042 0.02299 0.0
O2372 O 0.52322 0.01663 0.02843 0.0
O2373 O 0.51607 0.01269 0.9952 0.0
O2374 O 0.56046 0.01829 0.05714 0.0
O2375 O 0.54979 0.04486 0.06391 0.0
O2376 O 0.57471 0.01911 0.0223 0.0
O2377 O 0.54833 0.01367 0.00605 0.0
O2378 O 0.56971 0.0539 1.00021 0.0
O2379 O 0.57646 0.05865 0.03341 0.0
O2380 O 0.53154 0.05486 0.97383 0.0
O2381 O 0.54332 0.02948 0.96478 0.0
O2382 O 0.5175 0.05054 0.00712 0.0
O2383 O 0.54399 0.05798 0.02311 0.0
H2384 H 0.55503 1.00242 0.09306 0.0
H2385 H 0.51592 0.02791 0.06273 0.0
H2386 H 0.49062 0.008 0.0759 0.0
H2387 H 0.5299 0.98328 0.10712 0.0
H2388 H 0.54023 0.08182 0.95057 0.0
H2389 H 0.5762 0.04284 0.96033 0.0
H2390 H 0.59945 0.06214 0.94424 0.0
H2391 H 0.56383 0.10113 0.93463 0.0
Gd2392 Gd 0.30296 0.31004 0.26943 0.0
Gd2393 Gd 0.29122 0.26287 0.2576 0.0
C2394 C 0.26081 0.28723 0.2691 0.0
C2395 C 0.30949 0.34674 0.26637 0.0
C2396 C 0.29985 0.36244 0.2711 0.0
C2397 C 0.29636 0.36859 0.29015 0.0
C2398 C 0.2927 0.37027 0.25577 0.0
C2399 C 0.27872 0.39036 0.27832 0.0
C2400 C 0.28218 0.38406 0.25933 0.0
C2401 C 0.28591 0.38262 0.29376 0.0
C2402 C 0.30122 0.29329 0.30254 0.0
C2403 C 0.33418 0.28586 0.26125 0.0
C2404 C 0.28399 0.22559 0.25748 0.0
C2405 C 0.29436 0.21118 0.25092 0.0
C2406 C 0.28511 0.1913 0.24418 0.0
C2407 C 0.31381 0.21692 0.25326 0.0
C2408 C 0.31451 0.18252 0.24743 0.0
C2409 C 0.3239 0.20257 0.25156 0.0
C2410 C 0.29525 0.17688 0.24238 0.0
C2411 C 0.29265 0.27976 0.22468 0.0
O2412 O 0.27227 0.30447 0.26875 0.0
O2413 O 0.2653 0.26998 0.26602 0.0
O2414 O 0.31748 0.3406 0.28088 0.0
O2415 O 0.30042 0.3323 0.25238 0.0
O2416 O 0.3054 0.31225 0.30224 0.0
O2417 O 0.29826 0.28449 0.2849 0.0
O2418 O 0.32211 0.26862 0.26007 0.0
O2419 O 0.32968 0.30312 0.26348 0.0
O2420 O 0.27635 0.23304 0.24381 0.0
O2421 O 0.29231 0.23884 0.27283 0.0
O2422 O 0.28847 0.26085 0.22485 0.0
O2423 O 0.29575 0.28837 0.24233 0.0
H2424 H 0.30152 0.36249 0.30218 0.0
H2425 H 0.2951 0.36552 0.24096 0.0
H2426 H 0.27706 0.39009 0.24722 0.0
H2427 H 0.28334 0.38731 0.3085 0.0
H2428 H 0.27011 0.18681 0.24195 0.0
H2429 H 0.32117 0.23226 0.25826 0.0
H2430 H 0.33878 0.20699 0.25573 0.0
H2431 H 0.28797 0.16131 0.23931 0.0
Gd2432 Gd 0.54394 0.554 0.02366 0.0
Gd2433 Gd 0.55051 0.51726 0.00533 0.0
C2434 C 0.5339 0.54042 0.97505 0.0
C2435 C 0.54442 0.59132 0.03038 0.0
C2436 C 0.54375 0.60604 0.01765 0.0
C2437 C 0.53366 0.62034 0.02214 0.0
C2438 C 0.55367 0.6065 1.0015 0.0
C2439 C 0.54548 0.6371 0.99637 0.0
C2440 C 0.55452 0.62196 0.99091 0.0
C2441 C 0.53448 0.63572 0.01157 0.0
C2442 C 0.51455 0.52289 0.02338 0.0
C2443 C 0.55944 0.52979 0.05391 0.0
C2444 C 0.551 0.48019 0.99873 0.0
C2445 C 0.5512 0.46549 0.01166 0.0
C2446 C 0.56478 0.4546 0.01102 0.0
C2447 C 0.53784 0.46198 0.02448 0.0
C2448 C 0.55033 0.43511 0.03387 0.0
C2449 C 0.53738 0.44687 0.03544 0.0
C2450 C 0.56444 0.43967 0.0221 0.0
C2451 C 0.57985 0.54876 0.00602 0.0
O2452 O 0.53725 0.55488 0.99063 0.0
O2453 O 0.53681 0.52289 0.97714 0.0
O2454 O 0.52929 0.5774 0.02946 0.0
O2455 O 0.55941 0.58464 0.03125 0.0
O2456 O 0.52042 0.53768 0.03789 0.0
O2457 O 0.52421 0.52569 0.00964 0.0
O2458 O 0.55587 0.51583 0.03795 0.0
O2459 O 0.55666 0.54757 0.05241 0.0
O2460 O 0.56598 0.49448 1.00045 0.0
O2461 O 0.53583 0.48641 0.99664 0.0
O2462 O 0.57357 0.53453 0.99106 0.0
O2463 O 0.57027 0.54537 0.0197 0.0
H2464 H 0.52569 0.62005 0.03431 0.0
H2465 H 0.56135 0.5954 0.99753 0.0
H2466 H 0.56314 0.62272 0.97929 0.0
H2467 H 0.52719 0.64711 0.01588 0.0
H2468 H 0.57543 0.45732 1.00157 0.0
H2469 H 0.52739 0.47047 0.02563 0.0
H2470 H 0.52634 0.44379 0.04436 0.0
H2471 H 0.57492 0.43123 0.02097 0.0
Gd2472 Gd 0.81452 0.30134 0.26956 0.0
Gd2473 Gd 0.7804 0.27122 0.26276 0.0
C2474 C 0.81757 0.25342 0.26636 0.0
C2475 C 0.84667 0.32348 0.28316 0.0
C2476 C 0.86499 0.31918 0.28359 0.0
C2477 C 0.87426 0.31869 0.26698 0.0
C2478 C 0.87266 0.31387 0.30035 0.0
C2479 C 0.89857 0.30778 0.28407 0.0
C2480 C 0.88917 0.30798 0.30051 0.0
C2481 C 0.89098 0.31299 0.26723 0.0
C2482 C 0.80247 0.28763 0.23172 0.0
C2483 C 0.77776 0.31936 0.26601 0.0
C2484 C 0.74862 0.24821 0.24836 0.0
C2485 C 0.72993 0.25139 0.24553 0.0
C2486 C 0.72102 0.2574 0.26143 0.0
C2487 C 0.72169 0.25038 0.22654 0.0
C2488 C 0.6968 0.26303 0.23935 0.0
C2489 C 0.70529 0.25633 0.22347 0.0
C2490 C 0.70443 0.26307 0.25832 0.0
C2491 C 0.79244 0.28509 0.3008 0.0
O2492 O 0.82625 0.2728 0.27112 0.0
O2493 O 0.79933 0.24893 0.26094 0.0
O2494 O 0.83835 0.32386 0.26605 0.0
O2495 O 0.83563 0.31402 0.29394 0.0
O2496 O 0.80972 0.30626 0.23879 0.0
O2497 O 0.80255 0.27726 0.24479 0.0
O2498 O 0.76893 0.30006 0.26007 0.0
O2499 O 0.79578 0.32338 0.27232 0.0
O2500 O 0.75594 0.24948 0.2663 0.0
O2501 O 0.7602 0.25721 0.2378 0.0
O2502 O 0.785 0.2665 0.29367 0.0
O2503 O 0.7924 0.29539 0.28767 0.0
H2504 H 0.86861 0.32263 0.2538 0.0
H2505 H 0.86577 0.314 0.31331 0.0
H2506 H 0.89476 0.30384 0.31362 0.0
H2507 H 0.89819 0.31318 0.25451 0.0
H2508 H 0.7271 0.25835 0.27625 0.0
H2509 H 0.72831 0.2457 0.21409 0.0
H2510 H 0.69934 0.25591 0.20871 0.0
H2511 H 0.69792 0.26813 0.2707 0.0
Gd2512 Gd 0.05634 0.53422 0.53556 0.0
Gd2513 Gd 0.04187 0.54258 0.49766 0.0
C2514 C 0.01452 0.51312 0.51538 0.0
C2515 C 0.05774 0.52473 0.56914 0.0
C2516 C 0.04195 0.51578 0.57853 0.0
C2517 C 0.0345 0.49507 0.57464 0.0
C2518 C 0.03314 0.52805 0.59008 0.0
C2519 C 0.01081 0.49902 0.59528 0.0
C2520 C 0.01768 0.51979 0.59827 0.0
C2521 C 0.01898 0.48677 0.58288 0.0
C2522 C 0.06602 0.51354 0.50422 0.0
C2523 C 0.08365 0.56499 0.5195 0.0
C2524 C 0.04053 0.55188 0.46407 0.0
C2525 C 0.05626 0.56268 0.4561 0.0
C2526 C 0.05413 0.57715 0.44505 0.0
C2527 C 0.07383 0.55899 0.46007 0.0
C2528 C 0.08486 0.57834 0.43638 0.0
C2529 C 0.08845 0.56776 0.45101 0.0
C2530 C 0.06867 0.58534 0.43539 0.0
C2531 C 0.03036 0.56182 0.52784 0.0
O2532 O 0.02564 0.52108 0.53169 0.0
O2533 O 0.01901 0.51666 0.49838 0.0
O2534 O 0.0611 0.5134 0.5539 0.0
O2535 O 0.05886 0.5431 0.56674 0.0
O2536 O 0.07721 0.52099 0.52019 0.0
O2537 O 0.05038 0.51693 0.50588 0.0
O2538 O 0.07215 0.55807 0.50326 0.0
O2539 O 0.07964 0.5598 0.53603 0.0
O2540 O 0.03551 0.56237 0.47877 0.0
O2541 O 0.04121 0.53392 0.46668 0.0
O2542 O 0.02017 0.55489 0.5112 0.0
O2543 O 0.04661 0.55955 0.52743 0.0
H2544 H 0.04078 0.48522 0.56546 0.0
H2545 H 0.03838 0.54407 0.59314 0.0
H2546 H 0.01199 0.52971 0.60808 0.0
H2547 H 0.01395 0.47074 0.58036 0.0
H2548 H 0.04088 0.58085 0.44263 0.0
H2549 H 0.07599 0.54813 0.46886 0.0
H2550 H 0.10108 0.5626 0.4522 0.0
H2551 H 0.06594 0.59405 0.42449 0.0
Gd2552 Gd 0.77663 0.79375 0.26423 0.0
Gd2553 Gd 0.81542 0.78052 0.26521 0.0
C2554 C 0.80082 0.79475 0.30559 0.0
C2555 C 0.74287 0.79656 0.26832 0.0
C2556 C 0.72851 0.79362 0.28172 0.0
C2557 C 0.71271 0.80107 0.2787 0.0
C2558 C 0.73066 0.78455 0.29797 0.0
C2559 C 0.70084 0.78957 0.3074 0.0
C2560 C 0.71703 0.78258 0.31064 0.0
C2561 C 0.69907 0.79907 0.29131 0.0
C2562 C 0.80595 0.8262 0.26204 0.0
C2563 C 0.79032 0.77787 0.22368 0.0
C2564 C 0.8501 0.78112 0.26195 0.0
C2565 C 0.86333 0.78014 0.24717 0.0
C2566 C 0.8671 0.76187 0.23956 0.0
C2567 C 0.87363 0.79752 0.24187 0.0
C2568 C 0.89123 0.77833 0.22198 0.0
C2569 C 0.88735 0.79662 0.22945 0.0
C2570 C 0.88076 0.76097 0.22716 0.0
C2571 C 0.78639 0.74761 0.26674 0.0
O2572 O 0.78451 0.79326 0.29571 0.0
O2573 O 0.81555 0.79214 0.29721 0.0
O2574 O 0.75761 0.81094 0.27475 0.0
O2575 O 0.74677 0.78083 0.25845 0.0
O2576 O 0.78854 0.82627 0.2607 0.0
O2577 O 0.80623 0.80829 0.26348 0.0
O2578 O 0.80657 0.77818 0.23317 0.0
O2579 O 0.77609 0.78167 0.23236 0.0
O2580 O 0.83742 0.76497 0.26223 0.0
O2581 O 0.84392 0.79719 0.26567 0.0
O2582 O 0.80377 0.74753 0.26663 0.0
O2583 O 0.78561 0.76562 0.26597 0.0
H2584 H 0.71086 0.80841 0.26644 0.0
H2585 H 0.74288 0.77903 0.30088 0.0
H2586 H 0.71927 0.77558 0.32305 0.0
H2587 H 0.68689 0.80454 0.28808 0.0
H2588 H 0.85976 0.74819 0.24353 0.0
H2589 H 0.87131 0.81191 0.24756 0.0
H2590 H 0.8949 0.8103 0.22569 0.0
H2591 H 0.88344 0.74661 0.22205 0.0
Gd2592 Gd 0.80687 0.28327 0.74953 0.0
Gd2593 Gd 0.78213 0.28999 0.7824 0.0
C2594 C 0.79887 0.32608 0.76311 0.0
C2595 C 0.82178 0.27918 0.71824 0.0
C2596 C 0.82726 0.29242 0.70485 0.0
C2597 C 0.84343 0.2917 0.69647 0.0
C2598 C 0.81809 0.30743 0.70241 0.0
C2599 C 0.83935 0.31855 0.6802 0.0
C2600 C 0.82412 0.3205 0.69003 0.0
C2601 C 0.84954 0.30482 0.68424 0.0
C2602 C 0.8285 0.28809 0.78464 0.0
C2603 C 0.79251 0.24787 0.76952 0.0
C2604 C 0.7677 0.29278 0.81408 0.0
C2605 C 0.76641 0.27976 0.82825 0.0
C2606 C 0.74994 0.27527 0.8365 0.0
C2607 C 0.77927 0.26806 0.82955 0.0
C2608 C 0.75903 0.24718 0.84702 0.0
C2609 C 0.77559 0.25184 0.83889 0.0
C2610 C 0.74628 0.25906 0.84591 0.0
C2611 C 0.76039 0.2846 0.74711 0.0
O2612 O 0.8038 0.3139 0.74947 0.0
O2613 O 0.79315 0.32113 0.77925 0.0
O2614 O 0.83126 0.28566 0.73542 0.0
O2615 O 0.80397 0.27223 0.71852 0.0
O2616 O 0.83391 0.28517 0.7678 0.0
O2617 O 0.81151 0.28872 0.78205 0.0
O2618 O 0.7878 0.2602 0.78328 0.0
O2619 O 0.79612 0.25232 0.75261 0.0
O2620 O 0.75835 0.28354 0.79731 0.0
O2621 O 0.78424 0.30352 0.81274 0.0
O2622 O 0.75491 0.28734 0.76394 0.0
O2623 O 0.77739 0.2841 0.74999 0.0
H2624 H 0.85107 0.28072 0.69905 0.0
H2625 H 0.80603 0.30866 0.70958 0.0
H2626 H 0.81603 0.33096 0.68693 0.0
H2627 H 0.86133 0.30324 0.67672 0.0
H2628 H 0.73962 0.2838 0.83494 0.0
H2629 H 0.79184 0.27105 0.82277 0.0
H2630 H 0.78583 0.24317 0.84006 0.0
H2631 H 0.73351 0.25575 0.85231 0.0
Gd2632 Gd 0.80854 0.81142 0.77608 0.0
Gd2633 Gd 0.78995 0.76457 0.75815 0.0
C2634 C 0.76475 0.79341 0.77118 0.0
C2635 C 0.8169 0.84957 0.78209 0.0
C2636 C 0.80484 0.86252 0.7781 0.0
C2637 C 0.80869 0.88225 0.78786 0.0
C2638 C 0.78785 0.85404 0.76651 0.0
C2639 C 0.77876 0.88499 0.77349 0.0
C2640 C 0.77469 0.86489 0.76477 0.0
C2641 C 0.79577 0.89361 0.78533 0.0
C2642 C 0.80514 0.78854 0.80472 0.0
C2643 C 0.83506 0.78376 0.76274 0.0
C2644 C 0.78043 0.72663 0.75447 0.0
C2645 C 0.79227 0.71269 0.75297 0.0
C2646 C 0.78608 0.6941 0.74075 0.0
C2647 C 0.81058 0.7188 0.76229 0.0
C2648 C 0.81628 0.68765 0.74759 0.0
C2649 C 0.82254 0.70637 0.75954 0.0
C2650 C 0.79803 0.68149 0.73821 0.0
C2651 C 0.79189 0.78756 0.72958 0.0
O2652 O 0.7783 0.80776 0.7682 0.0
O2653 O 0.76582 0.77471 0.76924 0.0
O2654 O 0.81159 0.83925 0.79544 0.0
O2655 O 0.82114 0.83887 0.76683 0.0
O2656 O 0.81175 0.80759 0.8077 0.0
O2657 O 0.80158 0.78313 0.78648 0.0
O2658 O 0.82104 0.76758 0.75942 0.0
O2659 O 0.83329 0.80205 0.76806 0.0
O2660 O 0.77959 0.73575 0.73966 0.0
O2661 O 0.78261 0.73852 0.77133 0.0
O2662 O 0.78482 0.76852 0.72647 0.0
O2663 O 0.79676 0.79287 0.74772 0.0
H2664 H 0.82161 0.88883 0.7973 0.0
H2665 H 0.78462 0.83898 0.75875 0.0
H2666 H 0.76151 0.85765 0.75602 0.0
H2667 H 0.79927 0.90915 0.79217 0.0
H2668 H 0.77211 0.68944 0.73315 0.0
H2669 H 0.81568 0.7332 0.77164 0.0
H2670 H 0.83653 0.71116 0.76714 0.0
H2671 H 0.7931 0.66697 0.729 0.0
Gd2672 Gd 0.53173 0.52931 0.50264 0.0
Gd2673 Gd 0.56254 0.54291 0.52546 0.0
C2674 C 0.54584 0.57652 0.50973 0.0
C2675 C 0.49767 0.5205 0.48651 0.0
C2676 C 0.48289 0.53062 0.4902 0.0
C2677 C 0.46588 0.52466 0.4782 0.0
C2678 C 0.48583 0.54642 0.50599 0.0
C2679 C 0.45437 0.54939 0.49853 0.0
C2680 C 0.47166 0.55573 0.51013 0.0
C2681 C 0.45166 0.53405 0.48231 0.0
C2682 C 0.55947 0.52477 0.47896 0.0
C2683 C 0.54778 0.49743 0.52003 0.0
C2684 C 0.59676 0.55555 0.54133 0.0
C2685 C 0.6121 0.54599 0.53831 0.0
C2686 C 0.62849 0.55159 0.55138 0.0
C2687 C 0.61006 0.5306 0.5223 0.0
C2688 C 0.64128 0.52772 0.53138 0.0
C2689 C 0.62451 0.52153 0.51888 0.0
C2690 C 0.64305 0.54245 0.54794 0.0
C2691 C 0.53445 0.53998 0.54972 0.0
O2692 O 0.53362 0.5611 0.49951 0.0
O2693 O 0.55841 0.5737 0.52274 0.0
O2694 O 0.51136 0.53047 0.4791 0.0
O2695 O 0.5033 0.51252 0.50079 0.0
O2696 O 0.54442 0.51138 0.47923 0.0
O2697 O 0.55973 0.53939 0.4925 0.0
O2698 O 0.563 0.51027 0.51843 0.0
O2699 O 0.53243 0.50334 0.51791 0.0
O2700 O 0.58375 0.54588 0.54974 0.0
O2701 O 0.59009 0.5617 0.52627 0.0
O2702 O 0.54914 0.53328 0.55174 0.0
O2703 O 0.53459 0.54677 0.5337 0.0
H2704 H 0.46351 0.51255 0.46591 0.0
H2705 H 0.49898 0.55131 0.5153 0.0
H2706 H 0.47411 0.56768 0.52259 0.0
H2707 H 0.43838 0.52885 0.47326 0.0
H2708 H 0.63013 0.56324 0.56397 0.0
H2709 H 0.59742 0.52589 0.51218 0.0
H2710 H 0.62279 0.51004 0.50613 0.0
H2711 H 0.65593 0.54747 0.55771 0.0
Gd2712 Gd 0.06748 0.53719 0.01634 0.0
Gd2713 Gd 0.02497 0.53477 0.01321 0.0
C2714 C 0.03681 0.49395 0.00522 0.0
C2715 C 0.10058 0.53179 0.02389 0.0
C2716 C 0.11229 0.51741 0.01869 0.0
C2717 C 0.1216 0.51786 1.00211 0.0
C2718 C 0.11606 0.50472 0.03144 0.0
C2719 C 0.13949 0.495 0.01226 0.0
C2720 C 0.1294 0.49359 0.02822 0.0
C2721 C 0.13492 0.5068 0.99893 0.0
C2722 C 0.05139 0.53904 0.9814 0.0
C2723 C 0.05506 0.57779 0.02086 0.0
C2724 C 0.99137 0.53943 0.00854 0.0
C2725 C 0.98063 0.55498 0.01133 0.0
C2726 C 0.96771 0.55416 0.02481 0.0
C2727 C 0.98209 0.56984 0.99985 0.0
C2728 C 0.95755 0.58233 0.01483 0.0
C2729 C 0.97071 0.58328 1.00156 0.0
C2730 C 0.95634 0.56765 0.02656 0.0
C2731 C 0.04217 0.53353 0.04795 0.0
O2732 O 0.05389 0.50411 0.01252 0.0
O2733 O 0.02339 0.50281 1.00119 0.0
O2734 O 0.09604 0.5417 0.01063 0.0
O2735 O 0.08729 0.5269 0.03453 0.0
O2736 O 0.06836 0.54826 0.98812 0.0
O2737 O 0.04424 0.52812 0.99265 0.0
O2738 O 0.0384 0.56701 0.01287 0.0
O2739 O 0.06829 0.56952 0.02715 0.0
O2740 O 0.99872 0.53476 0.02424 0.0
O2741 O 1.00206 0.53951 0.99467 0.0
O2742 O 0.02607 0.52214 0.04077 0.0
O2743 O 0.04835 0.54463 0.03653 0.0
H2744 H 0.11915 0.52737 0.99189 0.0
H2745 H 0.10926 0.50403 0.0444 0.0
H2746 H 0.13253 0.48476 0.03885 0.0
H2747 H 0.14211 0.50801 0.98627 0.0
H2748 H 0.96619 0.54283 0.03382 0.0
H2749 H 0.99178 0.57089 0.98925 0.0
H2750 H 0.97193 0.59411 0.99202 0.0
H2751 H 0.94661 0.56656 0.03712 0.0
H2752 H 0.01833 0.15408 0.94616 0.0
H2753 H 0.03882 0.19934 0.99788 0.0
H2754 H 0.0469 0.17407 0.01554 0.0
H2755 H 0.99783 0.11432 0.9703 0.0
H2756 H 1.00475 0.09528 0.95434 0.0
H2757 H 1.00086 0.117 0.94557 0.0
H2758 H 0.03395 0.12413 0.93558 0.0
H2759 H 0.03798 0.10248 0.94446 0.0
H2760 H 0.05353 0.12649 0.95352 0.0
H2761 H 0.05396 0.14364 0.02763 0.0
H2762 H 0.05698 0.11042 0.03342 0.0
H2763 H 0.0302 0.08426 0.97494 0.0
C2764 C 0.02433 0.15868 0.96126 0.0
C2765 C 0.028 0.17897 0.97044 0.0
C2766 C 0.03611 0.18413 0.99023 0.0
C2767 C 0.04072 0.1698 1.00049 0.0
C2768 C 0.03716 0.15008 0.99095 0.0
C2769 C 0.02906 0.14447 0.97179 0.0
C2770 C 0.0268 0.12225 0.96496 0.0
C2771 C 1.00634 0.11159 0.95841 0.0
C2772 C 0.03877 0.11862 0.94866 0.0
C2773 C 0.03423 0.11613 0.98341 0.0
C2774 C 0.04057 0.13251 0.99812 0.0
C2775 C 0.04887 0.13073 0.01622 0.0
C2776 C 0.0506 0.1118 0.01939 0.0
C2777 C 0.04367 0.09469 1.00475 0.0
C2778 C 0.03537 0.097 0.98653 0.0
H2779 H 0.18257 0.82233 0.18991 0.0
H2780 H 0.15931 0.76033 0.16343 0.0
H2781 H 0.18627 0.75139 0.17867 0.0
H2782 H 0.23112 0.82268 0.18773 0.0
H2783 H 0.23921 0.83796 0.21139 0.0
H2784 H 0.21856 0.84032 0.19751 0.0
H2785 H 0.19989 0.83349 0.22604 0.0
H2786 H 0.22053 0.83144 0.2401 0.0
H2787 H 0.19996 0.81138 0.23611 0.0
H2788 H 0.21659 0.74853 0.19647 0.0
H2789 H 0.24478 0.75166 0.21942 0.0
H2790 H 0.24772 0.81431 0.23737 0.0
C2791 C 0.183 0.80683 0.18727 0.0
C2792 C 0.1686 0.79229 0.17456 0.0
C2793 C 0.17014 0.77219 0.17208 0.0
C2794 C 0.18552 0.7668 0.18092 0.0
C2795 C 0.19955 0.78146 0.19277 0.0
C2796 C 0.19828 0.80104 0.19634 0.0
C2797 C 0.21488 0.81361 0.21072 0.0
C2798 C 0.22663 0.82959 0.20127 0.0
C2799 C 0.20842 0.82303 0.22935 0.0
C2800 C 0.22548 0.79802 0.21471 0.0
C2801 C 0.21656 0.77963 0.20385 0.0
C2802 C 0.2237 0.76292 0.20495 0.0
C2803 C 0.23995 0.76486 0.21784 0.0
C2804 C 0.24899 0.78331 0.22978 0.0
C2805 C 0.24157 0.8001 0.228 0.0
H2806 H 0.52667 0.87585 0.5003 0.0
H2807 H 0.54167 0.87547 0.44192 0.0
H2808 H 0.54268 0.91113 0.44527 0.0
H2809 H 0.49791 0.91025 0.49953 0.0
H2810 H 0.50586 0.92352 0.52404 0.0
H2811 H 0.5064 0.89777 0.51773 0.0
H2812 H 0.5415 0.9066 0.53006 0.0
H2813 H 0.54094 0.93231 0.53676 0.0
H2814 H 0.55697 0.92558 0.52074 0.0
H2815 H 0.53982 0.94547 0.45326 0.0
H2816 H 0.53876 0.97945 0.46807 0.0
H2817 H 0.52821 0.95972 0.52243 0.0
C2818 C 0.53034 0.88342 0.48837 0.0
C2819 C 0.53417 0.87296 0.47085 0.0
C2820 C 0.53893 0.88326 0.45552 0.0
C2821 C 0.53937 0.90347 0.45721 0.0
C2822 C 0.53524 0.91329 0.47442 0.0
C2823 C 0.53127 0.90388 0.48998 0.0
C2824 C 0.52811 0.91847 0.50706 0.0
C2825 C 0.50839 0.91211 0.51239 0.0
C2826 C 0.54276 0.92088 0.52469 0.0
C2827 C 0.53066 0.93734 0.49844 0.0
C2828 C 0.53445 0.93378 0.47947 0.0
C2829 C 0.53697 0.94854 0.46813 0.0
C2830 C 0.53618 0.96768 0.47656 0.0
C2831 C 0.53316 0.97191 0.49616 0.0
C2832 C 0.53024 0.95661 0.50728 0.0
H2833 H 0.47465 0.26499 0.65624 0.0
H2834 H 0.50423 0.32517 0.68339 0.0
H2835 H 0.47873 0.32807 0.70242 0.0
H2836 H 0.4286 0.27372 0.65333 0.0
H2837 H 0.41741 0.25034 0.65951 0.0
H2838 H 0.43799 0.25226 0.64764 0.0
H2839 H 0.45387 0.23922 0.67542 0.0
H2840 H 0.4333 0.23721 0.68734 0.0
H2841 H 0.45532 0.25165 0.70021 0.0
H2842 H 0.45044 0.32586 0.71776 0.0
H2843 H 0.42068 0.31778 0.73059 0.0
H2844 H 0.40804 0.25846 0.69563 0.0
C2845 C 0.47579 0.2787 0.6663 0.0
C2846 C 0.4915 0.29504 0.66789 0.0
C2847 C 0.4923 0.31265 0.68133 0.0
C2848 C 0.47788 0.31442 0.69239 0.0
C2849 C 0.46257 0.2984 0.6902 0.0
C2850 C 0.46135 0.28075 0.67768 0.0
C2851 C 0.44306 0.26596 0.67851 0.0
C2852 C 0.43106 0.26024 0.65856 0.0
C2853 C 0.44661 0.24741 0.68581 0.0
C2854 C 0.43434 0.27825 0.69333 0.0
C2855 C 0.44596 0.29692 0.69968 0.0
C2856 C 0.44119 0.31129 0.71294 0.0
C2857 C 0.42412 0.30659 0.72004 0.0
C2858 C 0.4118 0.2876 0.71405 0.0
C2859 C 0.41711 0.27313 0.70054 0.0
H2860 H 0.04117 0.84055 0.58269 0.0
H2861 H 0.99148 0.84968 0.60676 0.0
H2862 H 0.99408 0.88038 0.59342 0.0
H2863 H 0.06542 0.89393 0.59158 0.0
H2864 H 0.07576 0.89177 0.56934 0.0
H2865 H 0.07084 0.87088 0.58172 0.0
H2866 H 0.05141 0.84902 0.5503 0.0
H2867 H 0.05622 0.86981 0.53784 0.0
H2868 H 0.03257 0.85702 0.53867 0.0
H2869 H 1.00021 0.90804 0.57625 0.0
H2870 H 0.00986 0.93261 0.55562 0.0
H2871 H 0.05669 0.90748 0.54324 0.0
C2872 C 0.03101 0.84919 0.58532 0.0
C2873 C 0.01598 0.84266 0.59551 0.0
C2874 C 1.00286 0.85422 0.59862 0.0
C2875 C 1.00432 0.87176 0.59129 0.0
C2876 C 0.01908 0.87767 0.5811 0.0
C2877 C 0.0323 0.8669 0.57814 0.0
C2878 C 0.04638 0.87649 0.56603 0.0
C2879 C 0.06575 0.8837 0.57788 0.0
C2880 C 0.04664 0.86223 0.54709 0.0
C2881 C 0.0385 0.89386 0.56212 0.0
C2882 C 0.02291 0.89427 0.57123 0.0
C2883 C 0.01259 0.9082 0.5693 0.0
C2884 C 0.01828 0.92217 0.55763 0.0
C2885 C 0.03421 0.92219 0.54807 0.0
C2886 C 0.0445 0.90786 0.55043 0.0
H2887 H 0.50041 0.79543 0.79324 0.0
H2888 H 0.50008 0.80342 0.85573 0.0
H2889 H 0.46717 0.80422 0.85154 0.0
H2890 H 0.47225 0.82723 0.78345 0.0
H2891 H 0.45934 0.81189 0.7613 0.0
H2892 H 0.48251 0.81013 0.76877 0.0
H2893 H 0.47064 0.77224 0.76753 0.0
H2894 H 0.4474 0.77387 0.75994 0.0
H2895 H 0.45213 0.7634 0.78117 0.0
H2896 H 0.4362 0.80694 0.84149 0.0
H2897 H 0.40678 0.81054 0.8256 0.0
H2898 H 0.42589 0.79988 0.76914 0.0
C2899 C 0.49315 0.79693 0.80587 0.0
C2900 C 0.50234 0.79905 0.82475 0.0
C2901 C 0.49288 0.80139 0.84117 0.0
C2902 C 0.47431 0.80189 0.83894 0.0
C2903 C 0.46552 0.7998 0.82019 0.0
C2904 C 0.47443 0.79716 0.80388 0.0
C2905 C 0.46162 0.79591 0.7855 0.0
C2906 C 0.4694 0.81228 0.7741 0.0
C2907 C 0.45772 0.77512 0.77279 0.0
C2908 C 0.44454 0.79934 0.79424 0.0
C2909 C 0.44712 0.80121 0.81425 0.0
C2910 C 0.43377 0.80514 0.82582 0.0
C2911 C 0.41715 0.80711 0.81667 0.0
C2912 C 0.41413 0.8052 0.79621 0.0
C2913 C 0.42796 0.80129 0.78482 0.0
H2914 H 0.49932 0.13936 0.10098 0.0
H2915 H 0.50235 0.17722 0.0575 0.0
H2916 H 0.51052 0.15123 0.03421 0.0
H2917 H 0.53659 0.11879 0.09079 0.0
H2918 H 0.52587 0.09387 0.09369 0.0
H2919 H 0.51898 0.11471 0.10671 0.0
H2920 H 0.48473 0.09928 0.09182 0.0
H2921 H 0.49151 0.0782 0.07904 0.0
H2922 H 0.47906 0.09226 0.06578 0.0
H2923 H 0.5205 0.12287 0.0169 0.0
H2924 H 0.5289 0.09143 1.00479 0.0
H2925 H 0.5186 0.07132 0.05903 0.0
C2926 C 0.50144 0.14191 0.08643 0.0
C2927 C 0.50023 0.16003 0.08078 0.0
C2928 C 0.50309 0.1632 0.06179 0.0
C2929 C 0.50779 0.14864 0.04859 0.0
C2930 C 0.50923 0.13102 0.05466 0.0
C2931 C 0.50579 0.12737 0.07295 0.0
C2932 C 0.50831 0.1071 0.07568 0.0
C2933 C 0.52334 0.10873 0.09273 0.0
C2934 C 0.4898 0.09341 0.07823 0.0
C2935 C 0.51448 0.10036 0.05638 0.0
C2936 C 0.51479 0.11437 0.04447 0.0
C2937 C 0.52017 0.11169 0.02598 0.0
C2938 C 0.52498 0.09396 0.0193 0.0
C2939 C 0.52439 0.07937 0.03117 0.0
C2940 C 0.51925 0.08254 0.04993 0.0
H2941 H 0.17847 0.33128 0.30737 0.0
H2942 H 0.17897 0.29312 0.35043 0.0
H2943 H 0.20375 0.28031 0.33614 0.0
H2944 H 0.18624 0.29775 0.26773 0.0
H2945 H 0.20181 0.31584 0.25752 0.0
H2946 H 0.18452 0.32327 0.27134 0.0
H2947 H 0.20991 0.35024 0.29465 0.0
H2948 H 0.22722 0.34324 0.28059 0.0
H2949 H 0.22934 0.34326 0.30638 0.0
H2950 H 0.22464 0.26861 0.31569 0.0
H2951 H 0.24807 0.26408 0.2943 0.0
H2952 H 0.23714 0.31171 0.26562 0.0
C2953 C 0.18426 0.32067 0.31399 0.0
C2954 C 0.17695 0.31293 0.32977 0.0
C2955 C 0.18452 0.29897 0.33819 0.0
C2956 C 0.19842 0.29155 0.33015 0.0
C2957 C 0.20473 0.29859 0.31397 0.0
C2958 C 0.19848 0.31327 0.30628 0.0
C2959 C 0.20818 0.31824 0.28899 0.0
C2960 C 0.19436 0.31349 0.2703 0.0
C2961 C 0.21933 0.34004 0.2929 0.0
C2962 C 0.22073 0.30401 0.28833 0.0
C2963 C 0.21801 0.2925 0.30258 0.0
C2964 C 0.22717 0.27765 0.30459 0.0
C2965 C 0.24024 0.27503 0.29219 0.0
C2966 C 0.24422 0.28754 0.27835 0.0
C2967 C 0.23419 0.302 0.27612 0.0
H2968 H 0.99514 0.03246 0.15666 0.0
H2969 H 0.97507 0.0852 0.15175 0.0
H2970 H 0.98751 0.08656 0.12066 0.0
H2971 H 0.03829 0.04842 0.1353 0.0
H2972 H 0.03781 0.02396 0.12237 0.0
H2973 H 0.02723 0.02667 0.14441 0.0
H2974 H 0.9964 1.00424 0.12605 0.0
H2975 H 1.0069 1.00161 0.10393 0.0
H2976 H 0.98615 0.01066 0.10445 0.0
H2977 H 1.00133 0.08183 0.08779 0.0
H2978 H 0.01779 0.07358 0.05967 0.0
H2979 H 0.0316 0.0252 0.08462 0.0
C2980 C 0.99324 0.04433 0.14913 0.0
C2981 C 0.98377 0.05883 0.15766 0.0
C2982 C 0.98219 0.07395 0.14659 0.0
C2983 C 0.9892 0.07479 0.12844 0.0
C2984 C 0.99823 0.06045 0.1206 0.0
C2985 C 1.00052 0.04558 0.13074 0.0
C2986 C 0.01134 0.03238 0.11904 0.0
C2987 C 0.02977 0.03289 0.131 0.0
C2988 C 0.9995 0.01094 0.11301 0.0
C2989 C 0.01477 0.04214 0.10091 0.0
C2990 C 1.00674 0.05816 0.10205 0.0
C2991 C 0.00759 0.06928 0.08697 0.0
C2992 C 0.01693 0.06433 0.07071 0.0
C2993 C 0.02591 0.04842 0.06908 0.0
C2994 C 0.02471 0.03725 0.08478 0.0
H2995 H 0.275 0.6841 0.42005 0.0
H2996 H 0.27324 0.7343 0.46388 0.0
H2997 H 0.25868 0.74918 0.43879 0.0
H2998 H 0.28605 0.71162 0.38163 0.0
H2999 H 0.27184 0.69218 0.36295 0.0
H3000 H 0.28201 0.686 0.38465 0.0
H3001 H 0.24921 0.6675 0.39018 0.0
H3002 H 0.23892 0.6745 0.36892 0.0
H3003 H 0.23122 0.68081 0.39218 0.0
H3004 H 0.24396 0.75783 0.41018 0.0
H3005 H 0.23804 0.76551 0.37785 0.0
H3006 H 0.24866 0.70939 0.35178 0.0
C3007 C 0.27202 0.69852 0.42409 0.0
C3008 C 0.27536 0.70844 0.44353 0.0
C3009 C 0.27097 0.72692 0.4488 0.0
C3010 C 0.2624 0.73518 0.4348 0.0
C3011 C 0.25828 0.72451 0.41586 0.0
C3012 C 0.26342 0.70692 0.41031 0.0
C3013 C 0.25829 0.69914 0.38875 0.0
C3014 C 0.27558 0.69715 0.37892 0.0
C3015 C 0.24353 0.67931 0.38478 0.0
C3016 C 0.25027 0.71569 0.38294 0.0
C3017 C 0.24973 0.72967 0.39899 0.0
C3018 C 0.24412 0.74698 0.39745 0.0
C3019 C 0.24051 0.75106 0.37893 0.0
C3020 C 0.24296 0.73802 0.36233 0.0
C3021 C 0.24658 0.71948 0.36428 0.0
H3022 H 0.61282 0.01988 0.6339 0.0
H3023 H 0.5973 0.06856 0.66932 0.0
H3024 H 0.57537 0.07074 0.64161 0.0
H3025 H 0.61137 0.03961 0.58959 0.0
H3026 H 0.60236 0.01551 0.57439 0.0
H3027 H 0.61678 0.01783 0.597 0.0
H3028 H 0.59107 0.99195 0.60803 0.0
H3029 H 0.57667 0.98954 0.58538 0.0
H3030 H 0.56807 0.99601 0.6081 0.0
H3031 H 0.55504 0.06713 0.61056 0.0
H3032 H 0.53824 0.05882 0.57709 0.0
H3033 H 0.56759 0.01296 0.56218 0.0
C3034 C 0.60469 0.03088 0.63576 0.0
C3035 C 0.60648 0.04399 0.65351 0.0
C3036 C 0.59599 0.05848 0.65561 0.0
C3037 C 0.58353 0.05977 0.64007 0.0
C3038 C 0.582 0.04654 0.6227 0.0
C3039 C 0.59237 0.03249 0.62041 0.0
C3040 C 0.5884 0.02032 0.60015 0.0
C3041 C 0.60578 0.02353 0.58967 0.0
C3042 C 0.58058 0.99814 0.60045 0.0
C3043 C 0.57389 0.02947 0.59149 0.0
C3044 C 0.5704 0.04458 0.60473 0.0
C3045 C 0.55753 0.05527 0.60007 0.0
C3046 C 0.548 0.0504 0.58124 0.0
C3047 C 0.55153 0.03505 0.56764 0.0
C3048 C 0.56459 0.02451 0.57268 0.0
H3049 H 0.28932 0.34198 0.91272 0.0
H3050 H 0.3111 0.29578 0.93416 0.0
H3051 H 0.31499 0.28192 0.90072 0.0
H3052 H 0.26362 0.31032 0.86732 0.0
H3053 H 0.26869 0.33 0.85344 0.0
H3054 H 0.26703 0.33587 0.87904 0.0
H3055 H 0.29991 0.35935 0.88424 0.0
H3056 H 0.30177 0.35326 0.85871 0.0
H3057 H 0.31906 0.34971 0.87654 0.0
H3058 H 0.3189 0.27448 0.86503 0.0
H3059 H 0.31869 0.27166 0.82937 0.0
H3060 H 0.29269 0.32119 0.83065 0.0
C3061 C 0.29458 0.32872 0.91038 0.0
C3062 C 0.30012 0.32019 0.9263 0.0
C3063 C 0.30711 0.30293 0.92241 0.0
C3064 C 0.30932 0.29486 0.9034 0.0
C3065 C 0.30432 0.30401 0.88819 0.0
C3066 C 0.29677 0.32035 0.8914 0.0
C3067 C 0.2926 0.32737 0.87243 0.0
C3068 C 0.27175 0.32579 0.86779 0.0
C3069 C 0.30401 0.34869 0.87303 0.0
C3070 C 0.29901 0.31248 0.85814 0.0
C3071 C 0.30594 0.29927 0.86756 0.0
C3072 C 0.31335 0.28465 0.8575 0.0
C3073 C 0.31333 0.28325 0.83727 0.0
C3074 C 0.30569 0.29617 0.82722 0.0
C3075 C 0.29855 0.31103 0.83791 0.0
H3076 H 0.99549 0.03342 0.35938 0.0
H3077 H 0.98252 0.09046 0.37721 0.0
H3078 H 0.99561 0.09127 0.4106 0.0
H3079 H 0.98437 0.01342 0.40274 0.0
H3080 H 1.00323 1.00132 0.40427 0.0
H3081 H 0.99376 1.00514 0.38102 0.0
H3082 H 0.0263 0.0237 0.3754 0.0
H3083 H 0.03583 0.01986 0.39862 0.0
H3084 H 0.03929 0.04465 0.39332 0.0
H3085 H 0.00965 0.08644 0.44311 0.0
H3086 H 0.0228 0.07609 0.47189 0.0
H3087 H 0.02684 0.02118 0.43609 0.0
C3088 C 0.99533 0.04615 0.37021 0.0
C3089 C 0.98786 0.06209 0.36471 0.0
C3090 C 0.98832 0.07822 0.38002 0.0
C3091 C 0.9957 0.07878 0.39944 0.0
C3092 C 1.00282 0.06306 0.4042 0.0
C3093 C 1.00277 0.04698 0.39006 0.0
C3094 C 0.01129 0.03204 0.39957 0.0
C3095 C 0.99733 0.01177 0.39673 0.0
C3096 C 0.02924 0.02993 0.39122 0.0
C3097 C 0.01553 0.04197 0.42125 0.0
C3098 C 0.0107 0.06002 0.42331 0.0
C3099 C 0.01338 0.07228 0.44154 0.0
C3100 C 0.02099 0.06614 0.45804 0.0
C3101 C 0.02603 0.04762 0.45695 0.0
C3102 C 0.02318 0.03538 0.43793 0.0
H3103 H 0.29138 0.7403 0.6144 0.0
H3104 H 0.26586 0.68236 0.62691 0.0
H3105 H 0.26497 0.69759 0.66069 0.0
H3106 H 0.32053 0.75826 0.65883 0.0
H3107 H 0.31794 0.78345 0.66143 0.0
H3108 H 0.31526 0.7685 0.63758 0.0
H3109 H 0.2826 0.77462 0.63014 0.0
H3110 H 0.28518 0.78961 0.654 0.0
H3111 H 0.26557 0.76862 0.64631 0.0
H3112 H 0.26996 0.71737 0.69296 0.0
H3113 H 0.27931 0.7416 0.72319 0.0
H3114 H 0.29986 0.78818 0.69087 0.0
C3115 C 0.28543 0.73096 0.62427 0.0
C3116 C 0.27847 0.71023 0.61811 0.0
C3117 C 0.2709 0.69833 0.63132 0.0
C3118 C 0.27038 0.70682 0.65051 0.0
C3119 C 0.27733 0.72723 0.65617 0.0
C3120 C 0.2846 0.73927 0.64353 0.0
C3121 C 0.29176 0.76071 0.65385 0.0
C3122 C 0.31261 0.76816 0.65286 0.0
C3123 C 0.28061 0.77418 0.64558 0.0
C3124 C 0.28795 0.7586 0.67437 0.0
C3125 C 0.27954 0.73911 0.67517 0.0
C3126 C 0.276 0.73281 0.69251 0.0
C3127 C 0.28125 0.74678 0.70961 0.0
C3128 C 0.28963 0.76693 0.70928 0.0
C3129 C 0.29291 0.773 0.69141 0.0
H3130 H 0.63533 0.07743 0.84397 0.0
H3131 H 0.58772 0.03017 0.81632 0.0
H3132 H 0.57182 0.03602 0.84518 0.0
H3133 H 0.63487 0.06709 0.89106 0.0
H3134 H 0.64117 0.09268 0.90334 0.0
H3135 H 0.64839 0.08601 0.87995 0.0
H3136 H 0.6328 0.11149 0.86644 0.0
H3137 H 0.62551 0.11828 0.88983 0.0
H3138 H 0.60865 0.1101 0.86839 0.0
H3139 H 0.56156 0.04595 0.87579 0.0
H3140 H 0.55781 0.05725 0.90962 0.0
H3141 H 0.61237 0.09776 0.91877 0.0
C3142 C 0.62145 0.06854 0.84396 0.0
C3143 C 0.61255 0.05346 0.82807 0.0
C3144 C 0.59464 0.04172 0.82852 0.0
C3145 C 0.58549 0.04508 0.84467 0.0
C3146 C 0.59452 0.06024 0.85999 0.0
C3147 C 0.61212 0.0717 0.85995 0.0
C3148 C 0.619 0.0862 0.8789 0.0
C3149 C 0.63691 0.08276 0.8889 0.0
C3150 C 0.62165 0.1078 0.87569 0.0
C3151 C 0.60274 0.0804 0.8899 0.0
C3152 C 0.58866 0.0658 0.87835 0.0
C3153 C 0.57229 0.05755 0.88495 0.0
C3154 C 0.57029 0.06416 0.90408 0.0
C3155 C 0.58467 0.07867 0.91641 0.0
C3156 C 0.60111 0.08703 0.90935 0.0
H3157 H 0.29748 0.35416 0.14494 0.0
H3158 H 0.29967 0.30266 0.10293 0.0
H3159 H 0.29852 0.28258 0.12893 0.0
H3160 H 0.32514 0.34456 0.18574 0.0
H3161 H 0.31117 0.35197 0.20387 0.0
H3162 H 0.31207 0.36272 0.18217 0.0
H3163 H 0.27636 0.35151 0.17459 0.0
H3164 H 0.27542 0.34086 0.19637 0.0
H3165 H 0.26496 0.32571 0.17319 0.0
H3166 H 0.2979 0.26808 0.15872 0.0
H3167 H 0.29627 0.25872 0.19073 0.0
H3168 H 0.29334 0.31851 0.2156 0.0
C3169 C 0.29772 0.33864 0.14132 0.0
C3170 C 0.2988 0.32996 0.12181 0.0
C3171 C 0.2989 0.3096 0.11765 0.0
C3172 C 0.29826 0.29809 0.13237 0.0
C3173 C 0.29732 0.30698 0.15137 0.0
C3174 C 0.29682 0.32671 0.15598 0.0
C3175 C 0.2953 0.33211 0.17773 0.0
C3176 C 0.31192 0.34884 0.18798 0.0
C3177 C 0.27692 0.33789 0.18064 0.0
C3178 C 0.29558 0.31248 0.18462 0.0
C3179 C 0.29667 0.29832 0.16895 0.0
C3180 C 0.29702 0.27904 0.17107 0.0
C3181 C 0.29608 0.27388 0.18949 0.0
C3182 C 0.29482 0.28777 0.20605 0.0
C3183 C 0.29463 0.30752 0.20351 0.0
H3184 H 0.21384 0.9553 0.02404 0.0
H3185 H 0.25582 1.00656 0.01686 0.0
H3186 H 0.23426 0.02809 0.02366 0.0
H3187 H 0.17607 0.96849 0.99998 0.0
H3188 H 0.15963 0.95969 0.01586 0.0
H3189 H 0.17886 0.94852 0.01244 0.0
H3190 H 0.18903 0.95611 0.04959 0.0
H3191 H 0.16975 0.96722 0.0532 0.0
H3192 H 0.193 0.98124 0.06267 0.0
H3193 H 0.20873 0.04368 0.03017 0.0
H3194 H 0.17921 0.05296 0.03436 0.0
H3195 H 0.15248 0.99154 0.03549 0.0
C3196 C 0.21842 0.97111 0.02413 0.0
C3197 C 0.23633 0.97947 0.01999 0.0
C3198 C 0.24203 1.00006 0.01994 0.0
C3199 C 0.22997 0.01234 0.02388 0.0
C3200 C 0.21229 1.00368 0.02768 0.0
C3201 C 0.20642 0.98356 0.02775 0.0
C3202 C 0.18627 0.978 0.03108 0.0
C3203 C 0.17452 0.96278 0.0138 0.0
C3204 C 0.18441 0.97019 0.05028 0.0
C3205 C 0.18166 0.99812 0.03233 0.0
C3206 C 0.19706 0.0127 0.03074 0.0
C3207 C 0.19655 0.03248 0.0315 0.0
C3208 C 0.17979 0.0376 0.0339 0.0
C3209 C 0.16375 0.02297 0.03528 0.0
C3210 C 0.16463 1.00294 0.03443 0.0
H3211 H 0.67461 0.6146 0.97776 0.0
H3212 H 0.69741 0.62149 0.03828 0.0
H3213 H 0.6678 0.60196 0.04505 0.0
H3214 H 0.62796 0.61698 0.98653 0.0
H3215 H 0.61672 0.59823 0.96576 0.0
H3216 H 0.63963 0.61324 0.96535 0.0
H3217 H 0.65172 0.58145 0.95759 0.0
H3218 H 0.62883 0.56634 0.95788 0.0
H3219 H 0.64822 0.56334 0.97339 0.0
H3220 H 0.63506 0.58266 0.04604 0.0
H3221 H 0.60277 0.56247 0.04032 0.0
H3222 H 0.60088 0.56496 0.97886 0.0
C3223 C 0.6735 0.61192 0.99243 0.0
C3224 C 0.68864 0.62022 0.00752 0.0
C3225 C 0.68618 0.61611 0.02646 0.0
C3226 C 0.66932 0.60479 0.03048 0.0
C3227 C 0.65472 0.59722 0.01546 0.0
C3228 C 0.65665 0.6004 0.99674 0.0
C3229 C 0.63871 0.59017 0.98325 0.0
C3230 C 0.63026 0.60557 0.97471 0.0
C3231 C 0.64208 0.57438 0.96707 0.0
C3232 C 0.62655 0.5806 0.99726 0.0
C3233 C 0.63603 0.58519 0.01585 0.0
C3234 C 0.6276 0.57885 0.03149 0.0
C3235 C 0.60914 0.56741 0.02811 0.0
C3236 C 0.59917 0.56193 0.00914 0.0
C3237 C 0.60812 0.5687 0.99351 0.0
H3238 H 0.70893 0.39629 0.24306 0.0
H3239 H 0.73797 0.43415 0.29686 0.0
H3240 H 0.75631 0.40991 0.30122 0.0
H3241 H 0.70776 0.34821 0.25921 0.0
H3242 H 0.71226 0.33535 0.2365 0.0
H3243 H 0.70092 0.35553 0.23668 0.0
H3244 H 0.72594 0.37345 0.21821 0.0
H3245 H 0.73732 0.35329 0.21798 0.0
H3246 H 0.75002 0.37843 0.228 0.0
H3247 H 0.77331 0.38166 0.30032 0.0
H3248 H 0.786 0.3521 0.2948 0.0
H3249 H 0.74702 0.32871 0.24229 0.0
C3250 C 0.71913 0.39962 0.25581 0.0
C3251 C 0.72119 0.41795 0.26977 0.0
C3252 C 0.7351 0.42075 0.28598 0.0
C3253 C 0.74598 0.40682 0.28859 0.0
C3254 C 0.74345 0.38921 0.27499 0.0
C3255 C 0.73031 0.38541 0.25883 0.0
C3256 C 0.73071 0.36493 0.24662 0.0
C3257 C 0.71178 0.35013 0.24463 0.0
C3258 C 0.73632 0.36769 0.2265 0.0
C3259 C 0.7458 0.35785 0.25855 0.0
C3260 C 0.75304 0.37247 0.27473 0.0
C3261 C 0.76749 0.3702 0.28772 0.0
C3262 C 0.77475 0.35301 0.28438 0.0
C3263 C 0.76783 0.33714 0.26824 0.0
C3264 C 0.75282 0.33991 0.2551 0.0
H3265 H 0.91578 0.51011 0.54852 0.0
H3266 H 0.89694 0.45331 0.5093 0.0
H3267 H 0.92884 0.45426 0.50252 0.0
H3268 H 0.94841 0.53222 0.52072 0.0
H3269 H 0.9658 0.54523 0.54082 0.0
H3270 H 0.94173 0.53955 0.54431 0.0
H3271 H 0.94895 0.52111 0.57229 0.0
H3272 H 0.9731 0.52695 0.56897 0.0
H3273 H 0.96089 0.50148 0.56792 0.0
H3274 H 0.96093 0.4631 0.49635 0.0
H3275 H 0.99385 0.47822 0.49417 0.0
H3276 H 0.99278 0.52789 0.53903 0.0
C3277 C 0.91861 0.49784 0.53882 0.0
C3278 C 0.90428 0.48162 0.52939 0.0
C3279 C 0.90805 0.46575 0.51662 0.0
C3280 C 0.92601 0.46614 0.51271 0.0
C3281 C 0.93993 0.48242 0.52191 0.0
C3282 C 0.93663 0.49787 0.53494 0.0
C3283 C 0.95418 0.5139 0.5421 0.0
C3284 C 0.95242 0.5339 0.53665 0.0
C3285 C 0.95959 0.51597 0.56413 0.0
C3286 C 0.96756 0.50514 0.53067 0.0
C3287 C 0.95901 0.48705 0.51903 0.0
C3288 C 0.96804 0.47697 0.50577 0.0
C3289 C 0.98656 0.48559 0.50454 0.0
C3290 C 0.99556 0.50372 0.5168 0.0
C3291 C 0.98608 0.5136 0.53001 0.0
H3292 H 0.37376 0.10301 0.24826 0.0
H3293 H 0.36581 0.10404 0.30907 0.0
H3294 H 0.34687 0.12838 0.30678 0.0
H3295 H 0.3769 0.15186 0.24582 0.0
H3296 H 0.36326 0.14761 0.22235 0.0
H3297 H 0.37576 0.12974 0.22832 0.0
H3298 H 0.34549 0.10174 0.22093 0.0
H3299 H 0.3329 0.11941 0.21448 0.0
H3300 H 0.32568 0.10502 0.23279 0.0
H3301 H 0.33122 0.15387 0.2987 0.0
H3302 H 0.31661 0.17749 0.28425 0.0
H3303 H 0.33237 0.15716 0.22808 0.0
C3304 C 0.36767 0.10782 0.26103 0.0
C3305 C 0.37136 0.1017 0.27889 0.0
C3306 C 0.36351 0.10889 0.29535 0.0
C3307 C 0.35259 0.1225 0.29415 0.0
C3308 C 0.34935 0.12819 0.2763 0.0
C3309 C 0.35631 0.12079 0.25994 0.0
C3310 C 0.35068 0.12922 0.24247 0.0
C3311 C 0.36767 0.14027 0.23428 0.0
C3312 C 0.33793 0.11287 0.22674 0.0
C3313 C 0.34017 0.14331 0.25185 0.0
C3314 C 0.33952 0.14237 0.27136 0.0
C3315 C 0.33128 0.15451 0.2834 0.0
C3316 C 0.32314 0.16781 0.27515 0.0
C3317 C 0.3234 0.16861 0.25519 0.0
C3318 C 0.33199 0.1564 0.24334 0.0
H3319 H 0.36054 0.11368 0.51396 0.0
H3320 H 0.39039 0.17224 0.50673 0.0
H3321 H 0.41982 0.16204 0.51034 0.0
H3322 H 0.39672 0.10615 0.54992 0.0
H3323 H 0.39282 0.08001 0.54014 0.0
H3324 H 0.37401 0.09217 0.53846 0.0
H3325 H 0.36839 0.08031 0.50112 0.0
H3326 H 0.38712 0.0681 0.50274 0.0
H3327 H 0.38727 0.08616 0.48703 0.0
H3328 H 0.44602 0.14554 0.51356 0.0
H3329 H 0.46717 0.12329 0.51455 0.0
H3330 H 0.42094 0.07459 0.51867 0.0
C3331 C 0.37329 0.12443 0.51339 0.0
C3332 C 0.373 0.1438 0.50988 0.0
C3333 C 0.39008 0.15727 0.50905 0.0
C3334 C 0.40694 0.15166 0.51127 0.0
C3335 C 0.40672 0.13248 0.51441 0.0
C3336 C 0.39037 0.11902 0.51548 0.0
C3337 C 0.3941 0.09902 0.51808 0.0
C3338 C 0.38912 0.09405 0.53782 0.0
C3339 C 0.3836 0.08242 0.50124 0.0
C3340 C 0.41496 0.1032 0.51762 0.0
C3341 C 0.42194 0.12273 0.51586 0.0
C3342 C 0.4407 0.13019 0.51487 0.0
C3343 C 0.45262 0.11732 0.51528 0.0
C3344 C 0.44585 0.09698 0.51639 0.0
C3345 C 0.42672 0.09002 0.51794 0.0
H3346 H 0.73981 0.62696 0.25051 0.0
H3347 H 0.70753 0.63968 0.29719 0.0
H3348 H 0.72049 0.67557 0.2992 0.0
H3349 H 0.78098 0.66606 0.26984 0.0
H3350 H 0.78606 0.67228 0.24661 0.0
H3351 H 0.77359 0.64749 0.24802 0.0
H3352 H 0.74708 0.65031 0.22318 0.0
H3353 H 0.75944 0.6752 0.22182 0.0
H3354 H 0.73614 0.67071 0.22801 0.0
H3355 H 0.73705 0.7122 0.29572 0.0
H3356 H 0.75755 0.7433 0.28972 0.0
H3357 H 0.78144 0.70819 0.24731 0.0
C3358 C 0.73531 0.6372 0.26114 0.0
C3359 C 0.72236 0.62958 0.27379 0.0
C3360 C 0.7174 0.64426 0.28741 0.0
C3361 C 0.72469 0.66505 0.28859 0.0
C3362 C 0.73736 0.67192 0.27614 0.0
C3363 C 0.74278 0.65833 0.26274 0.0
C3364 C 0.75715 0.66975 0.2515 0.0
C3365 C 0.77554 0.66352 0.25416 0.0
C3366 C 0.7495 0.66627 0.22984 0.0
C3367 C 0.75938 0.69167 0.261 0.0
C3368 C 0.7474 0.69264 0.27482 0.0
C3369 C 0.74648 0.71134 0.28495 0.0
C3370 C 0.75817 0.72919 0.28132 0.0
C3371 C 0.77129 0.7288 0.26789 0.0
C3372 C 0.77163 0.70945 0.25763 0.0
H3373 H 0.87053 0.42553 0.78187 0.0
H3374 H 0.85422 0.4314 0.72266 0.0
H3375 H 0.82837 0.40134 0.71925 0.0
H3376 H 0.8586 0.37152 0.77469 0.0
H3377 H 0.85094 0.37185 0.79835 0.0
H3378 H 0.86879 0.39212 0.79423 0.0
H3379 H 0.84884 0.41624 0.80689 0.0
H3380 H 0.83043 0.39579 0.80973 0.0
H3381 H 0.8258 0.41325 0.79475 0.0
H3382 H 0.80579 0.37114 0.72247 0.0
H3383 H 0.79011 0.33929 0.73027 0.0
H3384 H 0.81758 0.35721 0.7895 0.0
C3385 C 0.86174 0.42006 0.76805 0.0
C3386 C 0.86399 0.43026 0.75245 0.0
C3387 C 0.85249 0.42326 0.73455 0.0
C3388 C 0.83774 0.40659 0.73267 0.0
C3389 C 0.83493 0.39777 0.74898 0.0
C3390 C 0.84681 0.40399 0.76617 0.0
C3391 C 0.84083 0.39211 0.78154 0.0
C3392 C 0.85565 0.38125 0.78753 0.0
C3393 C 0.8362 0.40514 0.79927 0.0
C3394 C 0.82369 0.37796 0.77021 0.0
C3395 C 0.82054 0.38153 0.75147 0.0
C3396 C 0.80754 0.3685 0.73723 0.0
C3397 C 0.79847 0.35061 0.74188 0.0
C3398 C 0.80219 0.34648 0.76071 0.0
C3399 C 0.81396 0.36071 0.77537 0.0
H3400 H 0.04927 0.90499 0.07733 0.0
H3401 H 0.08679 0.88686 0.03821 0.0
H3402 H 0.08424 0.91411 0.02079 0.0
H3403 H 0.01906 0.9185 0.03985 0.0
H3404 H 0.01519 0.9394 0.05601 0.0
H3405 H 0.01959 0.91822 0.06554 0.0
H3406 H 0.04705 0.94136 0.08953 0.0
H3407 H 0.04265 0.96253 0.08003 0.0
H3408 H 0.06527 0.95744 0.0802 0.0
H3409 H 0.07931 0.94469 0.00847 0.0
H3410 H 0.07122 0.97553 1.00164 0.0
H3411 H 0.03527 0.97328 0.04677 0.0
C3412 C 0.05681 0.9065 0.06497 0.0
C3413 C 0.06852 0.8936 0.05955 0.0
C3414 C 0.07815 0.89658 0.04326 0.0
C3415 C 0.07664 0.91201 0.03303 0.0
C3416 C 0.06523 0.92447 0.03891 0.0
C3417 C 0.05533 0.92183 0.0544 0.0
C3418 C 0.04415 0.93754 0.05773 0.0
C3419 C 0.02326 0.92783 0.0546 0.0
C3420 C 0.05014 0.95048 0.07808 0.0
C3421 C 0.04954 0.94952 0.0419 0.0
C3422 C 0.06174 0.94168 0.03122 0.0
C3423 C 0.06949 0.95069 0.01649 0.0
C3424 C 0.06475 0.96816 0.01263 0.0
C3425 C 0.05214 0.97637 0.02316 0.0
C3426 C 0.04442 0.96689 0.03799 0.0
H3427 H 0.91004 0.24996 0.8386 0.0
H3428 H 0.92785 0.30916 0.87371 0.0
H3429 H 0.90039 0.31797 0.8589 0.0
H3430 H 0.89263 0.26498 0.79533 0.0
H3431 H 0.87306 0.2438 0.78866 0.0
H3432 H 0.89371 0.24169 0.80266 0.0
H3433 H 0.87422 0.22966 0.82908 0.0
H3434 H 0.85352 0.23195 0.81522 0.0
H3435 H 0.85998 0.24481 0.84005 0.0
H3436 H 0.87035 0.3209 0.83983 0.0
H3437 H 0.84287 0.31829 0.81597 0.0
H3438 H 0.84442 0.25798 0.7923 0.0
C3439 C 0.9081 0.26472 0.84336 0.0
C3440 C 0.92153 0.2788 0.8575 0.0
C3441 C 0.91823 0.29802 0.86286 0.0
C3442 C 0.90244 0.30319 0.85459 0.0
C3443 C 0.88961 0.28909 0.84077 0.0
C3444 C 0.89232 0.27025 0.83506 0.0
C3445 C 0.87673 0.25819 0.81925 0.0
C3446 C 0.8845 0.2518 0.80036 0.0
C3447 C 0.86545 0.24008 0.82632 0.0
C3448 C 0.86508 0.27325 0.81678 0.0
C3449 C 0.87255 0.29088 0.82961 0.0
C3450 C 0.86432 0.30704 0.82989 0.0
C3451 C 0.84846 0.30536 0.81645 0.0
C3452 C 0.84088 0.28772 0.80266 0.0
C3453 C 0.84938 0.27146 0.80308 0.0
H3454 H 0.55286 0.19061 0.52988 0.0
H3455 H 0.58823 0.20197 0.58504 0.0
H3456 H 0.58925 0.16688 0.58059 0.0
H3457 H 0.52601 0.14169 0.53429 0.0
H3458 H 0.5248 0.13094 0.50901 0.0
H3459 H 0.52669 0.15721 0.51603 0.0
H3460 H 0.55584 0.16471 0.49848 0.0
H3461 H 0.55412 0.13844 0.49159 0.0
H3462 H 0.57523 0.15458 0.50491 0.0
H3463 H 0.58805 0.13176 0.5704 0.0
H3464 H 0.5817 0.09622 0.55616 0.0
H3465 H 0.54572 0.10541 0.50807 0.0
C3466 C 0.56075 0.1856 0.54097 0.0
C3467 C 0.57085 0.19915 0.55762 0.0
C3468 C 0.58086 0.19203 0.57192 0.0
C3469 C 0.58147 0.17209 0.56959 0.0
C3470 C 0.57188 0.15925 0.55291 0.0
C3471 C 0.56152 0.16549 0.53888 0.0
C3472 C 0.55247 0.14814 0.52246 0.0
C3473 C 0.53123 0.14427 0.52034 0.0
C3474 C 0.55985 0.15169 0.50322 0.0
C3475 C 0.5591 0.1313 0.52985 0.0
C3476 C 0.57058 0.13829 0.54726 0.0
C3477 C 0.57901 0.12601 0.55682 0.0
C3478 C 0.57541 0.10587 0.54855 0.0
C3479 C 0.56323 0.09811 0.53108 0.0
C3480 C 0.55501 0.111 0.52154 0.0
H3481 H 0.60984 0.8058 0.35691 0.0
H3482 H 0.60723 0.74855 0.3743 0.0
H3483 H 0.63622 0.74692 0.36096 0.0
H3484 H 0.62731 0.79554 0.31231 0.0
H3485 H 0.6432 0.81947 0.31429 0.0
H3486 H 0.62278 0.81734 0.32642 0.0
H3487 H 0.64305 0.83361 0.35924 0.0
H3488 H 0.66355 0.83591 0.34716 0.0
H3489 H 0.66163 0.82314 0.36754 0.0
H3490 H 0.66394 0.7496 0.34378 0.0
H3491 H 0.68957 0.757 0.32444 0.0
H3492 H 0.67652 0.81336 0.31863 0.0
C3493 C 0.61551 0.79306 0.35814 0.0
C3494 C 0.60582 0.77707 0.36639 0.0
C3495 C 0.61389 0.76074 0.36764 0.0
C3496 C 0.63054 0.75973 0.36024 0.0
C3497 C 0.6394 0.77531 0.35175 0.0
C3498 C 0.63238 0.79182 0.35082 0.0
C3499 C 0.64477 0.80621 0.34045 0.0
C3500 C 0.63386 0.80984 0.32229 0.0
C3501 C 0.65378 0.82588 0.35443 0.0
C3502 C 0.65925 0.79469 0.335 0.0
C3503 C 0.65593 0.77706 0.34199 0.0
C3504 C 0.66688 0.76352 0.33849 0.0
C3505 C 0.68159 0.76798 0.32753 0.0
C3506 C 0.68549 0.7859 0.32001 0.0
C3507 C 0.67406 0.79947 0.32399 0.0
H3508 H 0.06469 0.2086 0.41713 0.0
H3509 H 0.08205 0.25816 0.4656 0.0
H3510 H 0.07426 0.23527 0.48851 0.0
H3511 H 0.02625 0.17993 0.43874 0.0
H3512 H 0.03066 0.15626 0.4292 0.0
H3513 H 0.03598 0.17664 0.41621 0.0
H3514 H 0.06979 0.17321 0.41671 0.0
H3515 H 0.06462 0.1529 0.42977 0.0
H3516 H 0.08333 0.17433 0.43963 0.0
H3517 H 0.066 0.20812 0.50609 0.0
H3518 H 0.05901 0.17678 0.5185 0.0
H3519 H 0.04792 0.14343 0.45941 0.0
C3520 C 0.06661 0.21453 0.43257 0.0
C3521 C 0.07401 0.23505 0.43974 0.0
C3522 C 0.07657 0.24242 0.45995 0.0
C3523 C 0.07206 0.22959 0.47303 0.0
C3524 C 0.06504 0.20944 0.46562 0.0
C3525 C 0.06235 0.20181 0.44594 0.0
C3526 C 0.05559 0.17928 0.44218 0.0
C3527 C 0.03595 0.17264 0.43092 0.0
C3528 C 0.06915 0.16935 0.43145 0.0
C3529 C 0.05555 0.17555 0.46293 0.0
C3530 C 0.06066 0.1933 0.47606 0.0
C3531 C 0.06184 0.19409 0.49603 0.0
C3532 C 0.05779 0.17624 0.50292 0.0
C3533 C 0.05279 0.1578 0.48991 0.0
C3534 C 0.05166 0.15739 0.46962 0.0
H3535 H 0.58898 0.25225 0.22962 0.0
H3536 H 0.59776 0.29585 0.19167 0.0
H3537 H 0.63144 0.30262 0.20086 0.0
H3538 H 0.62931 0.27902 0.26775 0.0
H3539 H 0.63451 0.25599 0.27187 0.0
H3540 H 0.6109 0.25681 0.26486 0.0
H3541 H 0.60817 0.22831 0.23557 0.0
H3542 H 0.63169 0.22743 0.24246 0.0
H3543 H 0.62467 0.23115 0.21834 0.0
H3544 H 0.66341 0.30122 0.2099 0.0
H3545 H 0.69255 0.2918 0.21892 0.0
H3546 H 0.66358 0.24968 0.25158 0.0
C3547 C 0.59805 0.26353 0.22367 0.0
C3548 C 0.59092 0.27379 0.21025 0.0
C3549 C 0.60305 0.28823 0.20238 0.0
C3550 C 0.62215 0.29216 0.20748 0.0
C3551 C 0.62882 0.28169 0.22061 0.0
C3552 C 0.6172 0.26779 0.22875 0.0
C3553 C 0.62808 0.25741 0.24116 0.0
C3554 C 0.62555 0.26262 0.26269 0.0
C3555 C 0.62284 0.23474 0.23393 0.0
C3556 C 0.64751 0.26678 0.23766 0.0
C3557 C 0.64762 0.28103 0.22608 0.0
C3558 C 0.66364 0.29045 0.21934 0.0
C3559 C 0.68002 0.28495 0.22439 0.0
C3560 C 0.68007 0.27018 0.23596 0.0
C3561 C 0.66378 0.26131 0.24304 0.0
H3562 H 0.61234 0.92469 0.96565 0.0
H3563 H 0.57348 0.91366 0.9132 0.0
H3564 H 0.56254 0.94341 0.92553 0.0
H3565 H 0.583 0.93901 0.99768 0.0
H3566 H 0.60018 0.95837 0.01377 0.0
H3567 H 0.60697 0.93787 1.00001 0.0
H3568 H 0.63071 0.96242 0.98514 0.0
H3569 H 0.62411 0.98303 0.99906 0.0
H3570 H 0.62306 0.98059 0.97302 0.0
H3571 H 0.55224 0.96995 0.94526 0.0
H3572 H 0.5454 0.99513 0.97022 0.0
H3573 H 0.5925 0.99165 0.00925 0.0
C3574 C 0.602 0.92906 0.9566 0.0
C3575 C 0.59384 0.91729 0.93843 0.0
C3576 C 0.57995 0.92283 0.92705 0.0
C3577 C 0.57367 0.93961 0.93393 0.0
C3578 C 0.58159 0.95071 0.95212 0.0
C3579 C 0.59566 0.94595 0.96322 0.0
C3580 C 0.60079 0.95973 0.98283 0.0
C3581 C 0.59754 0.94804 0.99955 0.0
C3582 C 0.62086 0.97218 0.98514 0.0
C3583 C 0.58711 0.97258 0.9811 0.0
C3584 C 0.57613 0.96699 0.96328 0.0
C3585 C 0.56116 0.97503 0.95898 0.0
C3586 C 0.55742 0.98937 0.97321 0.0
C3587 C 0.56886 0.99583 0.99127 0.0
C3588 C 0.58394 0.98739 0.99526 0.0
H3589 H 0.90685 0.73833 0.70605 0.0
H3590 H 0.94332 0.79756 0.72127 0.0
H3591 H 0.92261 0.80756 0.74418 0.0
H3592 H 0.86584 0.75138 0.70435 0.0
H3593 H 0.85328 0.73197 0.71562 0.0
H3594 H 0.87251 0.72808 0.70316 0.0
H3595 H 0.88714 0.71936 0.73419 0.0
H3596 H 0.86911 0.72493 0.74806 0.0
H3597 H 0.89289 0.73751 0.7564 0.0
H3598 H 0.89698 0.81261 0.76154 0.0
H3599 H 0.86674 0.8132 0.77189 0.0
H3600 H 0.84579 0.75078 0.74552 0.0
C3601 C 0.91065 0.7532 0.71466 0.0
C3602 C 0.92652 0.76726 0.71192 0.0
C3603 C 0.93105 0.7867 0.72308 0.0
C3604 C 0.91953 0.79243 0.73627 0.0
C3605 C 0.90372 0.77843 0.7383 0.0
C3606 C 0.89926 0.75918 0.72796 0.0
C3607 C 0.88047 0.74781 0.73161 0.0
C3608 C 0.86725 0.73933 0.71255 0.0
C3609 C 0.88254 0.7314 0.74322 0.0
C3610 C 0.87444 0.76425 0.74406 0.0
C3611 C 0.88842 0.78151 0.74835 0.0
C3612 C 0.88601 0.79911 0.75861 0.0
C3613 C 0.86866 0.79926 0.76432 0.0
C3614 C 0.85381 0.782 0.75939 0.0
C3615 C 0.85691 0.76411 0.74962 0.0
H3616 H 0.10983 0.04382 0.88038 0.0
H3617 H 0.10298 0.97977 0.86861 0.0
H3618 H 0.08883 0.97726 0.89846 0.0
H3619 H 0.11932 0.05134 0.9332 0.0
H3620 H 0.10568 0.06932 0.93809 0.0
H3621 H 0.11576 0.06685 0.9157 0.0
H3622 H 0.08352 0.06073 0.89599 0.0
H3623 H 0.07336 0.06336 0.91832 0.0
H3624 H 0.06484 0.04118 0.90013 0.0
H3625 H 0.07509 0.98125 0.93211 0.0
H3626 H 0.06201 0.99143 0.96235 0.0
H3627 H 0.07476 0.05227 0.95293 0.0
C3628 C 0.10542 0.02915 0.88388 0.0
C3629 C 0.10867 0.01208 0.87133 0.0
C3630 C 0.10196 0.99348 0.87738 0.0
C3631 C 0.09349 0.99177 0.89467 0.0
C3632 C 0.09104 0.00869 0.90669 0.0
C3633 C 0.09656 0.02708 0.90133 0.0
C3634 C 0.09159 0.04283 0.91668 0.0
C3635 C 0.10914 0.05853 0.9265 0.0
C3636 C 0.0775 0.05261 0.90721 0.0
C3637 C 0.08283 0.0306 0.93153 0.0
C3638 C 0.08271 0.01087 0.92548 0.0
C3639 C 0.07538 0.99677 0.93682 0.0
C3640 C 0.06803 1.00278 0.95437 0.0
C3641 C 0.0676 0.02292 0.9611 0.0
C3642 C 0.07511 0.03683 0.94899 0.0
H3643 H 0.82767 0.39295 0.60877 0.0
H3644 H 0.81181 0.34024 0.56366 0.0
H3645 H 0.82065 0.32004 0.58705 0.0
H3646 H 0.86668 0.38018 0.6346 0.0
H3647 H 0.86157 0.3895 0.65839 0.0
H3648 H 0.85547 0.40049 0.63793 0.0
H3649 H 0.82127 0.39375 0.64472 0.0
H3650 H 0.82738 0.38312 0.66537 0.0
H3651 H 0.80923 0.36888 0.6465 0.0
H3652 H 0.83121 0.30604 0.61373 0.0
H3653 H 0.83671 0.29618 0.64526 0.0
H3654 H 0.84362 0.35714 0.67459 0.0
C3655 C 0.82607 0.37713 0.60404 0.0
C3656 C 0.81922 0.36784 0.58472 0.0
C3657 C 0.81704 0.34726 0.5786 0.0
C3658 C 0.82222 0.33585 0.59163 0.0
C3659 C 0.82936 0.34541 0.61054 0.0
C3660 C 0.83086 0.36542 0.61698 0.0
C3661 C 0.83734 0.3714 0.63858 0.0
C3662 C 0.8564 0.38627 0.6426 0.0
C3663 C 0.82294 0.37976 0.64943 0.0
C3664 C 0.83869 0.35139 0.64323 0.0
C3665 C 0.83468 0.3369 0.62662 0.0
C3666 C 0.83455 0.31716 0.62688 0.0
C3667 C 0.83787 0.31178 0.6448 0.0
C3668 C 0.84089 0.32605 0.66209 0.0
C3669 C 0.8417 0.34618 0.6614 0.0
H3670 H 0.47928 0.01238 0.38614 0.0
H3671 H 0.49824 0.074 0.37958 0.0
H3672 H 0.51934 0.08074 0.41019 0.0
H3673 H 0.48045 0.02022 0.43746 0.0
H3674 H 0.48941 0.99889 0.44046 0.0
H3675 H 0.47546 0.99882 0.41816 0.0
H3676 H 0.50157 0.99136 0.39839 0.0
H3677 H 0.51552 0.99115 0.42062 0.0
H3678 H 0.52454 0.00744 0.40442 0.0
H3679 H 0.53903 0.08059 0.44032 0.0
H3680 H 0.55636 0.07347 0.46903 0.0
H3681 H 0.52432 0.01219 0.45612 0.0
C3682 C 0.48792 0.02727 0.39109 0.0
C3683 C 0.48702 0.04274 0.38066 0.0
C3684 C 0.49845 0.06206 0.38763 0.0
C3685 C 0.51055 0.06599 0.40488 0.0
C3686 C 0.51107 0.05041 0.4148 0.0
C3687 C 0.50016 0.03142 0.40816 0.0
C3688 C 0.5038 0.01722 0.42131 0.0
C3689 C 0.48623 0.00828 0.42986 0.0
C3690 C 0.51183 1.00083 0.41054 0.0
C3691 C 0.51818 0.03139 0.43663 0.0
C3692 C 0.52234 0.05039 0.43244 0.0
C3693 C 0.53591 0.06583 0.44387 0.0
C3694 C 0.54568 0.06167 0.45999 0.0
C3695 C 0.54152 0.04237 0.46448 0.0
C3696 C 0.5275 0.02711 0.4529 0.0
H3697 H 0.80264 0.77381 0.1101 0.0
H3698 H 0.78061 0.7101 0.10358 0.0
H3699 H 0.77726 0.71384 0.13846 0.0
H3700 H 0.82844 0.78085 0.15896 0.0
H3701 H 0.82301 0.80426 0.16745 0.0
H3702 H 0.8245 0.79679 0.14201 0.0
H3703 H 0.79137 0.80111 0.13356 0.0
H3704 H 0.78969 0.80827 0.15901 0.0
H3705 H 0.77253 0.78777 0.14435 0.0
H3706 H 0.77446 0.72391 0.17304 0.0
H3707 H 0.77543 0.73983 0.20722 0.0
H3708 H 0.7999 0.79723 0.19318 0.0
C3709 C 0.79732 0.76071 0.11617 0.0
C3710 C 0.79172 0.74161 0.10412 0.0
C3711 C 0.78476 0.72482 0.11251 0.0
C3712 C 0.78281 0.7268 0.1323 0.0
C3713 C 0.78786 0.74573 0.14369 0.0
C3714 C 0.79519 0.76244 0.13613 0.0
C3715 C 0.79928 0.78101 0.15192 0.0
C3716 C 0.82004 0.79133 0.15528 0.0
C3717 C 0.78752 0.79539 0.1469 0.0
C3718 C 0.79321 0.77197 0.1694 0.0
C3719 C 0.78647 0.75162 0.16412 0.0
C3720 C 0.77972 0.73983 0.17739 0.0
C3721 C 0.78017 0.74899 0.19671 0.0
C3722 C 0.78743 0.76968 0.20265 0.0
C3723 C 0.79401 0.78138 0.18884 0.0
H3724 H 0.09294 0.03385 0.67021 0.0
H3725 H 0.12346 0.98991 0.65152 0.0
H3726 H 0.11304 0.99031 0.61738 0.0
H3727 H 0.05338 0.01245 0.62992 0.0
H3728 H 0.04927 0.03627 0.62713 0.0
H3729 H 0.05861 0.03258 0.6505 0.0
H3730 H 0.08638 0.06241 0.65168 0.0
H3731 H 0.07715 0.06609 0.62829 0.0
H3732 H 0.10037 0.06271 0.63202 0.0
H3733 H 0.09977 0.99516 0.58445 0.0
H3734 H 0.0848 1.004 0.5556 0.0
H3735 H 0.06193 0.04543 0.59282 0.0
C3736 C 0.09748 0.0243 0.65896 0.0
C3737 C 0.10927 0.01172 0.66422 0.0
C3738 C 0.11443 0.99949 0.64855 0.0
C3739 C 0.10857 0.99968 0.62884 0.0
C3740 C 0.09711 0.01204 0.62423 0.0
C3741 C 0.09139 0.02404 0.63881 0.0
C3742 C 0.07854 0.03544 0.62938 0.0
C3743 C 0.05878 0.0288 0.63455 0.0
C3744 C 0.08607 0.05801 0.63572 0.0
C3745 C 0.07891 0.02886 0.60738 0.0
C3746 C 0.08945 0.01498 0.60496 0.0
C3747 C 0.09154 1.00605 0.58631 0.0
C3748 C 0.08284 0.01123 0.56979 0.0
C3749 C 0.07206 0.02561 0.5713 0.0
C3750 C 0.07017 0.03457 0.59071 0.0
H3751 H 0.82238 0.3717 0.39425 0.0
H3752 H 0.79004 0.33059 0.42561 0.0
H3753 H 0.78495 0.30378 0.39692 0.0
H3754 H 0.79385 0.35548 0.3498 0.0
H3755 H 0.81218 0.35805 0.33463 0.0
H3756 H 0.8156 0.37338 0.35835 0.0
H3757 H 0.84482 0.36105 0.36773 0.0
H3758 H 0.84152 0.34571 0.34395 0.0
H3759 H 0.84314 0.33473 0.36541 0.0
H3760 H 0.78196 0.28198 0.36475 0.0
H3761 H 0.77943 0.26694 0.33008 0.0
H3762 H 0.81164 0.32263 0.31854 0.0
C3763 C 0.81458 0.35692 0.39512 0.0
C3764 C 0.80667 0.35307 0.41209 0.0
C3765 C 0.79619 0.33373 0.41269 0.0
C3766 C 0.79332 0.31842 0.39653 0.0
C3767 C 0.80098 0.32272 0.37987 0.0
C3768 C 0.81136 0.34148 0.37897 0.0
C3769 C 0.81667 0.34245 0.35871 0.0
C3770 C 0.80911 0.35827 0.34986 0.0
C3771 C 0.83779 0.34621 0.35897 0.0
C3772 C 0.80702 0.32156 0.34826 0.0
C3773 C 0.79852 0.3103 0.3609 0.0
C3774 C 0.78865 0.29059 0.35471 0.0
C3775 C 0.78729 0.28217 0.33502 0.0
C3776 C 0.79538 0.29361 0.32171 0.0
C3777 C 0.80544 0.31352 0.32846 0.0
H3778 H 0.47821 0.03446 0.18906 0.0
H3779 H 0.48939 0.98219 0.20891 0.0
H3780 H 0.49138 0.96726 0.17512 0.0
H3781 H 0.4506 0.0101 0.14425 0.0
H3782 H 0.46031 0.02893 0.13077 0.0
H3783 H 0.45936 0.03556 0.15645 0.0
H3784 H 0.49489 0.05072 0.16295 0.0
H3785 H 0.49563 0.04526 0.13722 0.0
H3786 H 0.51026 0.0361 0.15361 0.0
H3787 H 0.49174 0.95801 0.13976 0.0
H3788 H 0.50002 0.95928 0.10667 0.0
H3789 H 0.48834 0.01753 0.11035 0.0
C3790 C 0.48158 0.02012 0.18635 0.0
C3791 C 0.48355 0.00934 0.20137 0.0
C3792 C 0.48777 0.99053 0.19738 0.0
C3793 C 0.4886 0.98184 0.17829 0.0
C3794 C 0.48526 0.99226 0.16359 0.0
C3795 C 0.48249 0.01125 0.16747 0.0
C3796 C 0.48094 0.01999 0.14929 0.0
C3797 C 0.46165 0.02386 0.14494 0.0
C3798 C 0.49635 0.03912 0.15085 0.0
C3799 C 0.48373 1.00307 0.13462 0.0
C3800 C 0.48563 0.98697 0.14307 0.0
C3801 C 0.49018 0.97042 0.13287 0.0
C3802 C 0.49469 0.97116 0.11406 0.0
C3803 C 0.49502 0.98858 0.10616 0.0
C3804 C 0.4879 1.00387 0.11586 0.0
H3805 H 0.80495 0.7222 0.88936 0.0
H3806 H 0.77805 0.76414 0.92052 0.0
H3807 H 0.77654 0.78038 0.89213 0.0
H3808 H 0.83331 0.75884 0.86558 0.0
H3809 H 0.83169 0.74171 0.84314 0.0
H3810 H 0.83028 0.73263 0.86572 0.0
H3811 H 0.79884 0.70835 0.85115 0.0
H3812 H 0.80002 0.71762 0.82862 0.0
H3813 H 0.78021 0.71799 0.84146 0.0
H3814 H 0.77697 0.79202 0.86062 0.0
H3815 H 0.78334 0.80155 0.82919 0.0
H3816 H 0.81173 0.75422 0.8174 0.0
C3817 C 0.79881 0.73485 0.89029 0.0
C3818 C 0.79112 0.74137 0.90732 0.0
C3819 C 0.78341 0.75817 0.90766 0.0
C3820 C 0.78258 0.76767 0.89154 0.0
C3821 C 0.7897 0.76053 0.87494 0.0
C3822 C 0.798 0.74476 0.87421 0.0
C3823 C 0.80524 0.74083 0.8546 0.0
C3824 C 0.82639 0.74368 0.85743 0.0
C3825 C 0.7955 0.71995 0.84329 0.0
C3826 C 0.79973 0.75688 0.84456 0.0
C3827 C 0.79054 0.76782 0.85663 0.0
C3828 C 0.78412 0.78354 0.85106 0.0
C3829 C 0.78768 0.78874 0.83304 0.0
C3830 C 0.7977 0.77845 0.82057 0.0
C3831 C 0.80356 0.76201 0.8263 0.0
H3832 H 0.87089 0.09524 0.03076 0.0
H3833 H 0.85094 0.09435 0.97048 0.0
H3834 H 0.87624 0.07959 0.95994 0.0
H3835 H 0.91865 0.1073 0.02728 0.0
H3836 H 0.92443 0.09112 0.04319 0.0
H3837 H 0.90457 0.10135 0.0461 0.0
H3838 H 0.88332 0.06601 0.04254 0.0
H3839 H 0.90311 0.05557 0.03998 0.0
H3840 H 0.88323 0.04754 0.02155 0.0
H3841 H 0.90438 0.06662 0.95613 0.0
H3842 H 0.93181 0.05267 0.95875 0.0
H3843 H 0.93227 0.05997 0.0214 0.0
C3844 C 0.87163 0.09164 0.01532 0.0
C3845 C 0.8591 0.09617 1.00145 0.0
C3846 C 0.86066 0.09142 0.98139 0.0
C3847 C 0.87492 0.08295 0.97526 0.0
C3848 C 0.8873 0.07913 0.98936 0.0
C3849 C 0.88562 0.083 0.00893 0.0
C3850 C 0.90057 0.07715 0.02108 0.0
C3851 C 0.91278 0.09532 0.03524 0.0
C3852 C 0.89205 0.06058 0.03192 0.0
C3853 C 0.91111 0.0696 0.00525 0.0
C3854 C 0.90323 0.07099 0.9871 0.0
C3855 C 0.91055 0.06518 0.97022 0.0
C3856 C 0.92608 0.05722 0.97187 0.0
C3857 C 0.93405 0.05496 0.99024 0.0
C3858 C 0.92659 0.06158 0.00717 0.0
H3859 H 0.41293 0.4717 0.04923 0.0
H3860 H 0.40729 0.42872 0.99598 0.0
H3861 H 0.43819 0.44556 0.98979 0.0
H3862 H 0.43789 0.51435 0.03109 0.0
H3863 H 0.45303 0.52509 0.05349 0.0
H3864 H 0.43023 0.50989 0.05399 0.0
H3865 H 0.44452 0.48696 0.07302 0.0
H3866 H 0.46737 0.50212 0.07262 0.0
H3867 H 0.46204 0.47579 0.0632 0.0
H3868 H 0.46988 0.46731 0.98864 0.0
H3869 H 0.50009 0.49177 0.99335 0.0
H3870 H 0.4869 0.52046 0.04784 0.0
C3871 C 0.41819 0.46571 0.03632 0.0
C3872 C 0.40715 0.44884 0.02299 0.0
C3873 C 0.41489 0.44179 0.00627 0.0
C3874 C 0.43265 0.45121 1.00265 0.0
C3875 C 0.44297 0.46781 0.01587 0.0
C3876 C 0.4361 0.47499 0.03244 0.0
C3877 C 0.45025 0.49314 0.04424 0.0
C3878 C 0.44238 0.51172 0.04579 0.0
C3879 C 0.45641 0.48927 0.06447 0.0
C3880 C 0.46612 0.49488 0.0318 0.0
C3881 C 0.46151 0.48014 0.01542 0.0
C3882 C 0.47364 0.47881 1.00149 0.0
C3883 C 0.49087 0.49281 1.00432 0.0
C3884 C 0.49615 0.50801 0.02104 0.0
C3885 C 0.48347 0.50895 0.03496 0.0
H3886 H 0.37833 0.66756 0.74067 0.0
H3887 H 0.36643 0.65079 0.79602 0.0
H3888 H 0.34972 0.67707 0.80176 0.0
H3889 H 0.38441 0.72185 0.757 0.0
H3890 H 0.37332 0.72591 0.73461 0.0
H3891 H 0.38476 0.70581 0.73439 0.0
H3892 H 0.35461 0.68089 0.71738 0.0
H3893 H 0.34311 0.70094 0.7176 0.0
H3894 H 0.33355 0.6798 0.72834 0.0
H3895 H 0.33227 0.70584 0.80184 0.0
H3896 H 0.31766 0.73321 0.79627 0.0
H3897 H 0.33998 0.73424 0.7415 0.0
C3898 C 0.37225 0.66925 0.75407 0.0
C3899 C 0.37454 0.65624 0.7679 0.0
C3900 C 0.3659 0.65996 0.78505 0.0
C3901 C 0.35598 0.67513 0.78849 0.0
C3902 C 0.35418 0.68747 0.77485 0.0
C3903 C 0.36217 0.68476 0.75791 0.0
C3904 C 0.35805 0.70039 0.74572 0.0
C3905 C 0.37622 0.71431 0.74274 0.0
C3906 C 0.34666 0.68988 0.72608 0.0
C3907 C 0.34656 0.71214 0.7583 0.0
C3908 C 0.34448 0.70423 0.77506 0.0
C3909 C 0.33411 0.71204 0.78876 0.0
C3910 C 0.32574 0.72789 0.78546 0.0
C3911 C 0.32753 0.73686 0.76865 0.0
C3912 C 0.33832 0.72849 0.75484 0.0
H3913 H 0.18894 0.56464 0.52932 0.0
H3914 H 0.1904 0.58645 0.47482 0.0
H3915 H 0.157 0.58456 0.47281 0.0
H3916 H 0.13946 0.53185 0.51747 0.0
H3917 H 0.13573 0.53818 0.54245 0.0
H3918 H 0.15844 0.53658 0.53671 0.0
H3919 H 0.17132 0.5724 0.55632 0.0
H3920 H 0.14851 0.57466 0.56093 0.0
H3921 H 0.16254 0.59249 0.54907 0.0
H3922 H 0.12645 0.58851 0.48072 0.0
H3923 H 0.096 0.58662 0.49241 0.0
H3924 H 0.1143 0.56193 0.54152 0.0
C3925 C 0.18196 0.56797 0.5165 0.0
C3926 C 0.19205 0.57572 0.50228 0.0
C3927 C 0.18275 0.58025 0.48574 0.0
C3928 C 0.16387 0.57951 0.48461 0.0
C3929 C 0.1547 0.5739 0.49997 0.0
C3930 C 0.16314 0.56732 0.51517 0.0
C3931 C 0.15045 0.56339 0.53045 0.0
C3932 C 0.14573 0.54118 0.53184 0.0
C3933 C 0.15871 0.57652 0.55036 0.0
C3934 C 0.1339 0.56955 0.52178 0.0
C3935 C 0.13673 0.57576 0.50432 0.0
C3936 C 0.12376 0.58303 0.49402 0.0
C3937 C 0.10668 0.58213 0.50085 0.0
C3938 C 0.10282 0.57366 0.51747 0.0
C3939 C 0.11693 0.56847 0.52874 0.0
H3940 H 0.7305 0.97592 0.7842 0.0
H3941 H 0.71069 0.95637 0.72257 0.0
H3942 H 0.724 0.92737 0.72231 0.0
H3943 H 0.77342 0.96262 0.78293 0.0
H3944 H 0.77345 0.95396 0.8058 0.0
H3945 H 0.76141 0.97278 0.80169 0.0
H3946 H 0.73121 0.95097 0.80977 0.0
H3947 H 0.74314 0.93199 0.81383 0.0
H3948 H 0.72246 0.9259 0.79652 0.0
H3949 H 0.74044 0.90274 0.72746 0.0
H3950 H 0.76059 0.88226 0.73767 0.0
H3951 H 0.76913 0.91571 0.79678 0.0
C3952 C 0.72892 0.96538 0.77076 0.0
C3953 C 0.71983 0.96826 0.75335 0.0
C3954 C 0.71797 0.95444 0.73593 0.0
C3955 C 0.72526 0.93787 0.73569 0.0
C3956 C 0.7342 0.93542 0.75301 0.0
C3957 C 0.73615 0.94867 0.77025 0.0
C3958 C 0.7472 0.9427 0.78648 0.0
C3959 C 0.76492 0.95898 0.7947 0.0
C3960 C 0.73529 0.93758 0.8026 0.0
C3961 C 0.75156 0.92435 0.77535 0.0
C3962 C 0.74365 0.92046 0.75617 0.0
C3963 C 0.74643 0.90524 0.74252 0.0
C3964 C 0.75781 0.89361 0.74855 0.0
C3965 C 0.7661 0.89712 0.76813 0.0
C3966 C 0.76285 0.91264 0.78176 0.0
H3967 H 0.7112 0.92419 0.53557 0.0
H3968 H 0.74217 0.94703 0.49115 0.0
H3969 H 0.71869 0.96544 0.4836 0.0
H3970 H 0.66516 0.91838 0.5082 0.0
H3971 H 0.65479 0.92542 0.5296 0.0
H3972 H 0.67371 0.91344 0.53132 0.0
H3973 H 0.69213 0.94279 0.55802 0.0
H3974 H 0.67327 0.95482 0.55635 0.0
H3975 H 0.69621 0.96779 0.55313 0.0
H3976 H 0.69274 0.98282 0.48181 0.0
H3977 H 0.66596 0.99748 0.48555 0.0
H3978 H 0.65043 0.96254 0.53007 0.0
C3979 C 0.71302 0.93308 0.52426 0.0
C3980 C 0.72863 0.93411 0.51394 0.0
C3981 C 0.73033 0.94579 0.49913 0.0
C3982 C 0.71705 0.95637 0.49476 0.0
C3983 C 0.70189 0.95505 0.50514 0.0
C3984 C 0.69967 0.94357 0.51948 0.0
C3985 C 0.68195 0.94473 0.52831 0.0
C3986 C 0.66808 0.92428 0.52411 0.0
C3987 C 0.68615 0.95303 0.55026 0.0
C3988 C 0.67501 0.95922 0.51723 0.0
C3989 C 0.68665 0.96481 0.5038 0.0
C3990 C 0.68341 0.97835 0.49212 0.0
C3991 C 0.66798 0.9865 0.49427 0.0
C3992 C 0.65577 0.98117 0.508 0.0
C3993 C 0.65942 0.96715 0.51951 0.0
H3994 H 0.3794 0.42706 0.74433 0.0
H3995 H 0.3516 0.4594 0.78538 0.0
H3996 H 0.33344 0.42797 0.7915 0.0
H3997 H 0.33818 0.38677 0.72395 0.0
H3998 H 0.35021 0.36709 0.7215 0.0
H3999 H 0.36232 0.39215 0.7205 0.0
H4000 H 0.38687 0.39103 0.74829 0.0
H4001 H 0.37475 0.366 0.74947 0.0
H4002 H 0.37966 0.38509 0.77093 0.0
H4003 H 0.31749 0.39305 0.7942 0.0
H4004 H 0.3028 0.3576 0.79084 0.0
H4005 H 0.33738 0.34371 0.74668 0.0
C4006 C 0.36952 0.42767 0.75464 0.0
C4007 C 0.36788 0.44679 0.7647 0.0
C4008 C 0.35432 0.44589 0.77784 0.0
C4009 C 0.34354 0.42773 0.78138 0.0
C4010 C 0.34575 0.40957 0.77168 0.0
C4011 C 0.35826 0.40922 0.75837 0.0
C4012 C 0.35712 0.38711 0.74972 0.0
C4013 C 0.35163 0.38304 0.7276 0.0
C4014 C 0.37571 0.382 0.7549 0.0
C4015 C 0.34177 0.3753 0.75989 0.0
C4016 C 0.33585 0.38891 0.77275 0.0
C4017 C 0.32209 0.3824 0.78411 0.0
C4018 C 0.31379 0.36187 0.78212 0.0
C4019 C 0.31866 0.34698 0.76874 0.0
C4020 C 0.33327 0.35411 0.7575 0.0
H4021 H 0.24067 0.65093 0.2921 0.0
H4022 H 0.25894 0.62063 0.2416 0.0
H4023 H 0.28626 0.64835 0.24481 0.0
H4024 H 0.24423 0.69131 0.28225 0.0
H4025 H 0.25385 0.70791 0.30496 0.0
H4026 H 0.24174 0.68308 0.30522 0.0
H4027 H 0.27032 0.6773 0.32502 0.0
H4028 H 0.2826 0.70254 0.32491 0.0
H4029 H 0.29257 0.68217 0.31627 0.0
H4030 H 0.301 0.68161 0.24375 0.0
H4031 H 0.30346 0.71631 0.24054 0.0
H4032 H 0.27857 0.72626 0.29356 0.0
C4033 C 0.25108 0.64961 0.28254 0.0
C4034 C 0.24768 0.63399 0.26649 0.0
C4035 C 0.26118 0.63283 0.25378 0.0
C4036 C 0.27695 0.64831 0.25577 0.0
C4037 C 0.27915 0.66453 0.27077 0.0
C4038 C 0.26689 0.66497 0.2845 0.0
C4039 C 0.26964 0.68559 0.29627 0.0
C4040 C 0.25129 0.69233 0.29714 0.0
C4041 C 0.27938 0.68697 0.31683 0.0
C4042 C 0.28247 0.69709 0.28442 0.0
C4043 C 0.28872 0.68467 0.27054 0.0
C4044 C 0.29692 0.69154 0.25502 0.0
C4045 C 0.29788 0.71118 0.25307 0.0
C4046 C 0.29069 0.72362 0.26662 0.0
C4047 C 0.28404 0.71686 0.28301 0.0
H4048 H 0.52636 0.65694 0.44515 0.0
H4049 H 0.52985 0.69822 0.49884 0.0
H4050 H 0.53706 0.67314 0.51769 0.0
H4051 H 0.50513 0.61211 0.46122 0.0
H4052 H 0.51844 0.59708 0.44832 0.0
H4053 H 0.51386 0.6184 0.43928 0.0
H4054 H 0.5491 0.63245 0.43973 0.0
H4055 H 0.55375 0.61122 0.44896 0.0
H4056 H 0.56442 0.63599 0.46201 0.0
H4057 H 0.54473 0.64321 0.53081 0.0
H4058 H 0.54947 0.61057 0.53678 0.0
H4059 H 0.53985 0.58829 0.47471 0.0
C4060 C 0.52852 0.66059 0.46088 0.0
C4061 C 0.52737 0.67951 0.47056 0.0
C4062 C 0.53056 0.68382 0.49115 0.0
C4063 C 0.53474 0.66966 0.50196 0.0
C4064 C 0.53589 0.65118 0.49203 0.0
C4065 C 0.53283 0.6466 0.47192 0.0
C4066 C 0.53494 0.62568 0.46479 0.0
C4067 C 0.51702 0.61254 0.45269 0.0
C4068 C 0.55153 0.62638 0.45318 0.0
C4069 C 0.53882 0.61887 0.48397 0.0
C4070 C 0.53982 0.63396 0.49954 0.0
C4071 C 0.54388 0.63131 0.51868 0.0
C4072 C 0.54665 0.61274 0.52197 0.0
C4073 C 0.54493 0.59683 0.50627 0.0
C4074 C 0.54108 0.60011 0.48704 0.0
H4075 H 0.6659 0.27258 0.67606 0.0
H4076 H 0.68341 0.33626 0.67766 0.0
H4077 H 0.71311 0.33705 0.69627 0.0
H4078 H 0.6869 0.27268 0.72423 0.0
H4079 H 0.69402 0.24985 0.71774 0.0
H4080 H 0.67413 0.25401 0.70405 0.0
H4081 H 0.68892 0.24791 0.6724 0.0
H4082 H 0.70896 0.24393 0.68607 0.0
H4083 H 0.71171 0.26254 0.67081 0.0
H4084 H 0.74117 0.33153 0.71585 0.0
H4085 H 0.76376 0.32026 0.73648 0.0
H4086 H 0.7298 0.26023 0.72237 0.0
C4087 C 0.67599 0.28671 0.68011 0.0
C4088 C 0.67179 0.30442 0.67522 0.0
C4089 C 0.68567 0.32247 0.68129 0.0
C4090 C 0.70286 0.32307 0.69179 0.0
C4091 C 0.70648 0.30548 0.69628 0.0
C4092 C 0.6934 0.28761 0.69073 0.0
C4093 C 0.70077 0.27098 0.698 0.0
C4094 C 0.68821 0.26131 0.71183 0.0
C4095 C 0.70269 0.25541 0.68079 0.0
C4096 C 0.71982 0.28236 0.70877 0.0
C4097 C 0.72288 0.30221 0.70728 0.0
C4098 C 0.73908 0.31589 0.71656 0.0
C4099 C 0.75224 0.30929 0.72788 0.0
C4100 C 0.7496 0.28913 0.72994 0.0
C4101 C 0.73295 0.27552 0.72021 0.0
H4102 H 0.0273 0.37667 1.00016 0.0
H4103 H 0.04087 0.37609 0.94124 0.0
H4104 H 0.04238 0.41187 0.94486 0.0
H4105 H 0.99905 0.41175 1.0004 0.0
H4106 H 0.00761 0.4249 0.02484 0.0
H4107 H 0.00771 0.39904 0.01829 0.0
H4108 H 0.04293 0.40731 0.02982 0.0
H4109 H 0.04284 0.43314 0.0367 0.0
H4110 H 0.05836 0.42607 0.02019 0.0
H4111 H 0.04042 0.44647 0.95329 0.0
H4112 H 0.0397 0.48051 0.96826 0.0
H4113 H 0.0297 0.46083 0.02276 0.0
C4114 C 0.03073 0.38421 0.98815 0.0
C4115 C 0.03406 0.37365 0.97041 0.0
C4116 C 0.03852 0.38394 0.955 0.0
C4117 C 0.03927 0.40422 0.95685 0.0
C4118 C 0.03572 0.41417 0.97431 0.0
C4119 C 0.03194 0.40475 0.9899 0.0
C4120 C 0.02932 0.41947 0.00721 0.0
C4121 C 0.00976 0.41342 0.01302 0.0
C4122 C 0.04426 0.42162 0.0245 0.0
C4123 C 0.03193 0.4384 0.99866 0.0
C4124 C 0.03537 0.43478 0.97957 0.0
C4125 C 0.03788 0.44958 0.96826 0.0
C4126 C 0.03733 0.46878 0.9768 0.0
C4127 C 0.03451 0.47304 0.99646 0.0
C4128 C 0.03169 0.45773 0.00759 0.0
H4129 H 0.99139 0.81094 0.18565 0.0
H4130 H 0.97464 0.75776 0.14102 0.0
H4131 H 0.94428 0.74952 0.15286 0.0
H4132 H 0.96882 0.78986 0.22324 0.0
H4133 H 0.96183 0.81201 0.23301 0.0
H4134 H 0.98228 0.81397 0.22092 0.0
H4135 H 0.96899 0.83377 0.19727 0.0
H4136 H 0.94849 0.83187 0.2093 0.0
H4137 H 0.94644 0.82321 0.18345 0.0
H4138 H 0.9155 0.74671 0.16972 0.0
H4139 H 0.89077 0.74958 0.19025 0.0
H4140 H 0.92572 0.80451 0.22419 0.0
C4141 C 0.9813 0.79765 0.17822 0.0
C4142 C 0.9857 0.78495 0.16242 0.0
C4143 C 0.97197 0.76761 0.15335 0.0
C4144 C 0.95454 0.76284 0.15989 0.0
C4145 C 0.95077 0.77555 0.17555 0.0
C4146 C 0.96374 0.79263 0.18459 0.0
C4147 C 0.95617 0.8036 0.20128 0.0
C4148 C 0.96798 0.80493 0.22077 0.0
C4149 C 0.95495 0.82435 0.1976 0.0
C4150 C 0.93698 0.79002 0.20025 0.0
C4151 C 0.93416 0.77393 0.18526 0.0
C4152 C 0.91761 0.75925 0.18151 0.0
C4153 C 0.90363 0.76096 0.1934 0.0
C4154 C 0.90614 0.77722 0.20903 0.0
C4155 C 0.92313 0.79199 0.2123 0.0
H4156 H 0.52118 0.36334 0.11059 0.0
H4157 H 0.53198 0.31621 0.06869 0.0
H4158 H 0.54162 0.34009 0.04702 0.0
H4159 H 0.5032 0.38981 0.07672 0.0
H4160 H 0.51441 0.41423 0.09032 0.0
H4161 H 0.50848 0.39356 0.1028 0.0
H4162 H 0.5426 0.4006 0.11834 0.0
H4163 H 0.54866 0.4213 0.10588 0.0
H4164 H 0.56072 0.40167 0.10291 0.0
H4165 H 0.54916 0.36796 0.02972 0.0
H4166 H 0.55441 0.39905 0.01688 0.0
H4167 H 0.54017 0.4295 0.07013 0.0
C4168 C 0.52552 0.35818 0.09679 0.0
C4169 C 0.52584 0.33803 0.09114 0.0
C4170 C 0.53174 0.33165 0.07317 0.0
C4171 C 0.53723 0.34507 0.06083 0.0
C4172 C 0.53694 0.36485 0.06681 0.0
C4173 C 0.53134 0.37151 0.08435 0.0
C4174 C 0.5326 0.39371 0.08714 0.0
C4175 C 0.51353 0.39808 0.08937 0.0
C4176 C 0.547 0.40498 0.1046 0.0
C4177 C 0.53916 0.39823 0.06809 0.0
C4178 C 0.54173 0.38133 0.05678 0.0
C4179 C 0.54744 0.3814 0.03849 0.0
C4180 C 0.55053 0.39921 0.0314 0.0
C4181 C 0.54799 0.41684 0.04257 0.0
C4182 C 0.54226 0.4163 0.06124 0.0
H4183 H 0.9992 0.32204 0.33653 0.0
H4184 H 0.00962 0.28002 0.2892 0.0
H4185 H 0.97772 0.27612 0.27267 0.0
H4186 H 0.95237 0.29646 0.33775 0.0
H4187 H 0.94492 0.31912 0.34401 0.0
H4188 H 0.96846 0.31848 0.35142 0.0
H4189 H 0.98045 0.34822 0.33425 0.0
H4190 H 0.95696 0.34896 0.32683 0.0
H4191 H 0.9725 0.34649 0.30887 0.0
H4192 H 0.94457 0.27775 0.26168 0.0
H4193 H 0.91287 0.28352 0.25796 0.0
H4194 H 0.92602 0.3243 0.31326 0.0
C4195 C 0.99475 0.31214 0.32259 0.0
C4196 C 1.00657 0.30152 0.3138 0.0
C4197 C 1.00048 0.28832 0.29587 0.0
C4198 C 0.98254 0.28607 0.28648 0.0
C4199 C 0.97116 0.29697 0.29555 0.0
C4200 C 0.97706 0.30961 0.31329 0.0
C4201 C 0.96232 0.31929 0.32045 0.0
C4202 C 0.95669 0.31295 0.33953 0.0
C4203 C 0.96843 0.34209 0.32271 0.0
C4204 C 0.94719 0.31046 0.3038 0.0
C4205 C 0.95236 0.29758 0.28954 0.0
C4206 C 0.94035 0.28775 0.27278 0.0
C4207 C 0.92251 0.29115 0.27075 0.0
C4208 C 0.91714 0.30413 0.28548 0.0
C4209 C 0.92971 0.31398 0.302 0.0
H4210 H 1.00134 0.6616 0.56343 0.0
H4211 H 0.99935 0.64455 0.62007 0.0
H4212 H 1.00656 0.61264 0.60704 0.0
H4213 H 0.9822 0.6117 0.53363 0.0
H4214 H 0.99781 0.6163 0.51579 0.0
H4215 H 0.99035 0.6366 0.52911 0.0
H4216 H 0.02471 0.65525 0.54017 0.0
H4217 H 0.03224 0.63483 0.52724 0.0
H4218 H 0.03991 0.64337 0.55286 0.0
H4219 H 0.01698 0.5847 0.58905 0.0
H4220 H 0.02747 0.56038 0.5657 0.0
H4221 H 0.02254 0.59579 0.52103 0.0
C4222 C 1.00188 0.65079 0.5728 0.0
C4223 C 0.99958 0.65499 0.59252 0.0
C4224 C 1.0009 0.64111 0.6048 0.0
C4225 C 1.00502 0.62312 0.59758 0.0
C4226 C 0.00781 0.61955 0.57815 0.0
C4227 C 1.00612 0.63286 0.56585 0.0
C4228 C 0.01102 0.62599 0.54595 0.0
C4229 C 0.99434 0.62242 0.5302 0.0
C4230 C 0.02797 0.64074 0.5413 0.0
C4231 C 0.01565 0.60675 0.54906 0.0
C4232 C 0.01387 0.60338 0.56776 0.0
C4233 C 0.01826 0.587 0.5743 0.0
C4234 C 0.02432 0.57345 0.56115 0.0
C4235 C 0.02567 0.57655 0.54194 0.0
C4236 C 0.0214 0.5933 0.53578 0.0
H4237 H 0.66441 0.79082 0.80357 0.0
H4238 H 0.69145 0.84632 0.84267 0.0
H4239 H 0.7202 0.84644 0.82846 0.0
H4240 H 0.70141 0.76842 0.8074 0.0
H4241 H 0.6986 0.7564 0.78229 0.0
H4242 H 0.67888 0.76167 0.79313 0.0
H4243 H 0.67218 0.78147 0.76622 0.0
H4244 H 0.69175 0.776 0.75512 0.0
H4245 H 0.69025 0.80143 0.76171 0.0
H4246 H 0.74602 0.83986 0.81331 0.0
H4247 H 0.76929 0.82707 0.7966 0.0
H4248 H 0.72732 0.77449 0.76751 0.0
C4249 C 0.67634 0.80309 0.80892 0.0
C4250 C 0.67565 0.81872 0.82403 0.0
C4251 C 0.69151 0.8345 0.83075 0.0
C4252 C 0.70795 0.83465 0.82287 0.0
C4253 C 0.70828 0.81891 0.80833 0.0
C4254 C 0.69301 0.80343 0.80126 0.0
C4255 C 0.69779 0.78779 0.78638 0.0
C4256 C 0.69395 0.76737 0.7927 0.0
C4257 C 0.68737 0.78661 0.76616 0.0
C4258 C 0.71836 0.79659 0.78703 0.0
C4259 C 0.72382 0.81474 0.79956 0.0
C4260 C 0.74197 0.82587 0.80319 0.0
C4261 C 0.75504 0.81845 0.79355 0.0
C4262 C 0.74994 0.8 0.7805 0.0
C4263 C 0.73142 0.78871 0.77731 0.0
H4264 H 0.4956 0.5335 0.65672 0.0
H4265 H 0.47287 0.58407 0.64947 0.0
H4266 H 0.48498 0.58471 0.61809 0.0
H4267 H 0.5381 0.55042 0.63447 0.0
H4268 H 0.53864 0.52585 0.62268 0.0
H4269 H 0.52825 0.52907 0.64481 0.0
H4270 H 0.49785 0.5047 0.62758 0.0
H4271 H 0.50817 0.50147 0.6054 0.0
H4272 H 0.4868 0.50936 0.60545 0.0
H4273 H 0.49888 0.579 0.58474 0.0
H4274 H 0.51441 0.56911 0.55627 0.0
H4275 H 0.53022 0.52335 0.58411 0.0
C4276 C 0.49304 0.54476 0.64863 0.0
C4277 C 0.48292 0.55885 0.6566 0.0
C4278 C 0.48052 0.57317 0.64478 0.0
C4279 C 0.48736 0.57359 0.62646 0.0
C4280 C 0.49709 0.55966 0.6192 0.0
C4281 C 0.50011 0.54558 0.6301 0.0
C4282 C 0.51141 0.53255 0.61897 0.0
C4283 C 0.53022 0.53459 0.63095 0.0
C4284 C 0.50041 0.51072 0.61407 0.0
C4285 C 0.51407 0.54126 0.60018 0.0
C4286 C 0.50552 0.55685 0.60056 0.0
C4287 C 0.50562 0.56684 0.58461 0.0
C4288 C 0.51452 0.56101 0.5682 0.0
C4289 C 0.52381 0.54531 0.56726 0.0
C4290 C 0.52343 0.53544 0.58388 0.0
H4291 H 0.76956 0.22255 0.95034 0.0
H4292 H 0.78535 0.16903 0.92541 0.0
H4293 H 0.7765 0.17482 0.89238 0.0
H4294 H 0.72922 0.21644 0.91474 0.0
H4295 H 0.73326 0.24278 0.91486 0.0
H4296 H 0.74023 0.23397 0.93646 0.0
H4297 H 0.77406 0.25452 0.9377 0.0
H4298 H 0.76699 0.26382 0.91655 0.0
H4299 H 0.78578 0.25155 0.91646 0.0
H4300 H 0.76793 0.18785 0.86252 0.0
H4301 H 0.76335 0.20912 0.83836 0.0
H4302 H 0.751 0.25211 0.88354 0.0
C4303 C 0.771 0.21195 0.93792 0.0
C4304 C 0.77806 0.19538 0.94027 0.0
C4305 C 0.78016 0.182 0.92378 0.0
C4306 C 0.77488 0.18495 0.90505 0.0
C4307 C 0.76735 0.20114 0.90328 0.0
C4308 C 0.76554 0.21446 0.91929 0.0
C4309 C 0.75818 0.23134 0.91364 0.0
C4310 C 0.73909 0.2311 0.92032 0.0
C4311 C 0.77209 0.25148 0.92154 0.0
C4312 C 0.75669 0.22582 0.89188 0.0
C4313 C 0.76177 0.20821 0.88609 0.0
C4314 C 0.76355 0.20142 0.86678 0.0
C4315 C 0.76093 0.21351 0.85321 0.0
C4316 C 0.75664 0.23199 0.85925 0.0
C4317 C 0.75367 0.23771 0.87854 0.0
H4318 H 0.10582 0.56158 0.14885 0.0
H4319 H 0.11689 0.50294 0.13647 0.0
H4320 H 0.0976 0.49622 0.10471 0.0
H4321 H 0.05955 0.54836 0.12777 0.0
H4322 H 0.06053 0.57059 0.11762 0.0
H4323 H 0.07584 0.57126 0.13915 0.0
H4324 H 0.1042 0.58485 0.12221 0.0
H4325 H 0.089 0.58434 0.10062 0.0
H4326 H 0.10728 0.57139 0.09916 0.0
H4327 H 0.07476 0.4944 0.07659 0.0
H4328 H 0.05207 0.49925 0.05095 0.0
H4329 H 0.05875 0.56019 0.07985 0.0
C4330 C 0.1045 0.5475 0.13927 0.0
C4331 C 0.11261 0.53267 0.14505 0.0
C4332 C 0.11041 0.5143 0.13235 0.0
C4333 C 0.09964 0.51041 0.11429 0.0
C4334 C 0.09153 0.52519 0.10918 0.0
C4335 C 0.09406 0.54349 0.12109 0.0
C4336 C 0.08352 0.55664 0.11218 0.0
C4337 C 0.06901 0.56201 0.12494 0.0
C4338 C 0.0968 0.57541 0.1083 0.0
C4339 C 0.07446 0.54265 0.09355 0.0
C4340 C 0.07909 0.52452 0.09224 0.0
C4341 C 0.07121 0.50859 0.07719 0.0
C4342 C 0.05828 0.51137 0.06291 0.0
C4343 C 0.05394 0.53001 0.06379 0.0
C4344 C 0.06211 0.54586 0.07909 0.0
H4345 H 0.80193 0.79886 0.42134 0.0
H4346 H 0.78912 0.8564 0.42256 0.0
H4347 H 0.79057 0.85333 0.38736 0.0
H4348 H 0.83353 0.80235 0.38607 0.0
H4349 H 0.82528 0.77706 0.37322 0.0
H4350 H 0.82295 0.78306 0.39865 0.0
H4351 H 0.7876 0.76782 0.3913 0.0
H4352 H 0.7899 0.76148 0.3659 0.0
H4353 H 0.77404 0.77631 0.37331 0.0
H4354 H 0.79493 0.84556 0.35303 0.0
H4355 H 0.79786 0.83126 0.31945 0.0
H4356 H 0.80651 0.77765 0.33835 0.0
C4357 C 0.79929 0.81068 0.41408 0.0
C4358 C 0.79535 0.82789 0.42472 0.0
C4359 C 0.79192 0.84302 0.41473 0.0
C4360 C 0.79286 0.84148 0.39474 0.0
C4361 C 0.79702 0.82458 0.38474 0.0
C4362 C 0.79978 0.80919 0.39385 0.0
C4363 C 0.80333 0.79239 0.37917 0.0
C4364 C 0.82241 0.78849 0.38461 0.0
C4365 C 0.78779 0.77338 0.37731 0.0
C4366 C 0.80273 0.80113 0.36063 0.0
C4367 C 0.79911 0.81975 0.36438 0.0
C4368 C 0.79773 0.83098 0.34988 0.0
C4369 C 0.79954 0.82281 0.33089 0.0
C4370 C 0.80272 0.80357 0.32641 0.0
C4371 C 0.80454 0.79259 0.3415 0.0
H4372 H 0.51391 0.57103 0.86712 0.0
H4373 H 0.45616 0.54318 0.86835 0.0
H4374 H 0.46423 0.53506 0.90056 0.0
H4375 H 0.53355 0.53648 0.89158 0.0
H4376 H 0.55272 0.55508 0.90578 0.0
H4377 H 0.5429 0.55895 0.8827 0.0
H4378 H 0.53731 0.59227 0.89932 0.0
H4379 H 0.54721 0.58851 0.9224 0.0
H4380 H 0.52425 0.59271 0.91972 0.0
H4381 H 0.47844 0.5285 0.93273 0.0
H4382 H 0.49718 0.52606 0.96273 0.0
H4383 H 0.54636 0.55933 0.94358 0.0
C4384 C 0.50294 0.5633 0.87421 0.0
C4385 C 0.48414 0.5578 0.86476 0.0
C4386 C 0.4705 0.54767 0.8749 0.0
C4387 C 0.47502 0.54293 0.89336 0.0
C4388 C 0.49345 0.54842 0.9022 0.0
C4389 C 0.50727 0.55859 0.89308 0.0
C4390 C 0.52595 0.56292 0.90625 0.0
C4391 C 0.53959 0.55275 0.89596 0.0
C4392 C 0.53417 0.58544 0.91227 0.0
C4393 C 0.52047 0.55358 0.92402 0.0
C4394 C 0.50161 0.54518 0.92115 0.0
C4395 C 0.49317 0.53523 0.93506 0.0
C4396 C 0.504 0.53389 0.95222 0.0
C4397 C 0.52333 0.54259 0.95603 0.0
C4398 C 0.53163 0.55262 0.94148 0.0
H4399 H 0.77677 0.2002 0.13967 0.0
H4400 H 0.79834 0.24444 0.10538 0.0
H4401 H 0.8022 0.27102 0.1341 0.0
H4402 H 0.75254 0.23109 0.17105 0.0
H4403 H 0.75878 0.22131 0.19228 0.0
H4404 H 0.75548 0.20603 0.16848 0.0
H4405 H 0.7884 0.20023 0.17481 0.0
H4406 H 0.79185 0.21554 0.19854 0.0
H4407 H 0.80803 0.22135 0.18149 0.0
H4408 H 0.80568 0.29236 0.16664 0.0
H4409 H 0.80974 0.30715 0.20156 0.0
H4410 H 0.78723 0.24888 0.21502 0.0
C4411 C 0.78188 0.21554 0.13819 0.0
C4412 C 0.78717 0.22042 0.12043 0.0
C4413 C 0.79424 0.24054 0.11897 0.0
C4414 C 0.79638 0.25569 0.13512 0.0
C4415 C 0.79139 0.25041 0.15257 0.0
C4416 C 0.78429 0.23084 0.15424 0.0
C4417 C 0.78149 0.22906 0.17505 0.0
C4418 C 0.76085 0.22142 0.17681 0.0
C4419 C 0.79315 0.21577 0.18293 0.0
C4420 C 0.78863 0.25061 0.18484 0.0
C4421 C 0.79393 0.26271 0.17156 0.0
C4422 C 0.80142 0.2831 0.1772 0.0
C4423 C 0.80369 0.29136 0.19701 0.0
C4424 C 0.79873 0.27914 0.21086 0.0
C4425 C 0.79099 0.25856 0.20467 0.0
H4426 H 0.12384 0.58103 0.33519 0.0
H4427 H 0.09297 0.51933 0.31868 0.0
H4428 H 0.08159 0.52105 0.35067 0.0
H4429 H 0.13854 0.57952 0.38325 0.0
H4430 H 0.13602 0.60384 0.39352 0.0
H4431 H 0.14067 0.59879 0.36874 0.0
H4432 H 0.11134 0.60968 0.35665 0.0
H4433 H 0.10683 0.61524 0.38144 0.0
H4434 H 0.08926 0.5984 0.3635 0.0
H4435 H 0.07632 0.52794 0.38398 0.0
H4436 H 0.07316 0.54105 0.41756 0.0
H4437 H 0.10645 0.59908 0.41292 0.0
C4438 C 0.11426 0.5681 0.33818 0.0
C4439 C 0.10911 0.55004 0.32474 0.0
C4440 C 0.09699 0.53319 0.32905 0.0
C4441 C 0.0905 0.53406 0.34704 0.0
C4442 C 0.0963 0.55189 0.36022 0.0
C4443 C 0.10761 0.56873 0.35601 0.0
C4444 C 0.11212 0.58577 0.37316 0.0
C4445 C 0.13308 0.59235 0.38007 0.0
C4446 C 0.10442 0.6033 0.3684 0.0
C4447 C 0.10177 0.57564 0.38775 0.0
C4448 C 0.09294 0.55607 0.37986 0.0
C4449 C 0.083 0.54324 0.39036 0.0
C4450 C 0.08153 0.55076 0.40942 0.0
C4451 C 0.08991 0.57092 0.41765 0.0
C4452 C 0.10022 0.58359 0.40684 0.0
H4453 H 0.79539 0.80569 0.61868 0.0
H4454 H 0.80681 0.86885 0.64156 0.0
H4455 H 0.80486 0.86177 0.67483 0.0
H4456 H 0.76324 0.78841 0.65184 0.0
H4457 H 0.7721 0.76699 0.65467 0.0
H4458 H 0.77375 0.77683 0.6325 0.0
H4459 H 0.80915 0.78028 0.63679 0.0
H4460 H 0.80759 0.77053 0.65903 0.0
H4461 H 0.82295 0.79434 0.65903 0.0
H4462 H 0.8026 0.84801 0.70621 0.0
H4463 H 0.79967 0.82841 0.73273 0.0
H4464 H 0.78967 0.77407 0.69028 0.0
C4465 C 0.79733 0.81798 0.63072 0.0
C4466 C 0.80124 0.83792 0.62744 0.0
C4467 C 0.8039 0.85353 0.64366 0.0
C4468 C 0.80279 0.84963 0.66265 0.0
C4469 C 0.79919 0.82995 0.66548 0.0
C4470 C 0.79654 0.81433 0.64997 0.0
C4471 C 0.79353 0.79459 0.65726 0.0
C4472 C 0.77452 0.7809 0.64855 0.0
C4473 C 0.80924 0.78433 0.65276 0.0
C4474 C 0.79442 0.80157 0.67912 0.0
C4475 C 0.79788 0.82204 0.68357 0.0
C4476 C 0.79982 0.83196 0.70283 0.0
C4477 C 0.79815 0.82073 0.7179 0.0
C4478 C 0.79431 0.79973 0.71377 0.0
C4479 C 0.79245 0.79013 0.69401 0.0
H4480 H 0.72488 0.47435 0.53968 0.0
H4481 H 0.73278 0.48468 0.48115 0.0
H4482 H 0.70756 0.50187 0.48117 0.0
H4483 H 0.67671 0.46571 0.53522 0.0
H4484 H 0.67553 0.47934 0.55889 0.0
H4485 H 0.69477 0.46831 0.55496 0.0
H4486 H 0.71781 0.50246 0.56722 0.0
H4487 H 0.69869 0.51364 0.57149 0.0
H4488 H 0.71533 0.52346 0.55624 0.0
H4489 H 0.68061 0.51531 0.48602 0.0
H4490 H 0.65411 0.52761 0.4967 0.0
H4491 H 0.66451 0.5113 0.5531 0.0
C4492 C 0.72154 0.48051 0.52698 0.0
C4493 C 0.73058 0.47777 0.51023 0.0
C4494 C 0.72568 0.48598 0.4939 0.0
C4495 C 0.71151 0.49598 0.49384 0.0
C4496 C 0.70268 0.49806 0.51037 0.0
C4497 C 0.70764 0.49092 0.5268 0.0
C4498 C 0.69577 0.49532 0.54259 0.0
C4499 C 0.68506 0.47602 0.54823 0.0
C4500 C 0.70761 0.50957 0.56044 0.0
C4501 C 0.68294 0.50539 0.53209 0.0
C4502 C 0.68731 0.50678 0.51355 0.0
C4503 C 0.67714 0.51461 0.50057 0.0
C4504 C 0.66208 0.52142 0.50672 0.0
C4505 C 0.65738 0.52039 0.52567 0.0
C4506 C 0.668 0.5124 0.5386 0.0
H4507 H 0.1769 0.13416 0.52079 0.0
H4508 H 0.19234 0.09941 0.47074 0.0
H4509 H 0.16226 0.07576 0.46652 0.0
H4510 H 0.15199 0.09061 0.53927 0.0
H4511 H 0.13388 0.10184 0.54739 0.0
H4512 H 0.15659 0.11722 0.54675 0.0
H4513 H 0.14207 0.13784 0.52509 0.0
H4514 H 0.11933 0.1224 0.52552 0.0
H4515 H 0.1277 0.12543 0.50261 0.0
H4516 H 0.13102 0.05638 0.46587 0.0
H4517 H 0.10058 0.03853 0.47132 0.0
H4518 H 0.10283 0.08195 0.52354 0.0
C4519 C 0.17397 0.12155 0.50897 0.0
C4520 C 0.1872 0.11933 0.49567 0.0
C4521 C 0.18257 0.1023 0.48066 0.0
C4522 C 0.1654 0.08852 0.47819 0.0
C4523 C 0.15265 0.09143 0.49098 0.0
C4524 C 0.15663 0.10722 0.50633 0.0
C4525 C 0.14012 0.10583 0.51817 0.0
C4526 C 0.146 0.10375 0.53914 0.0
C4527 C 0.13182 0.12396 0.51783 0.0
C4528 C 0.12645 0.08674 0.50699 0.0
C4529 C 0.13421 0.07914 0.49124 0.0
C4530 C 0.12486 0.06207 0.47825 0.0
C4531 C 0.10738 0.052 0.48154 0.0
C4532 C 0.09896 0.05852 0.49789 0.0
C4533 C 0.10861 0.07652 0.51076 0.0
H4534 H 0.23823 0.92258 0.7869 0.0
H4535 H 0.19832 0.89897 0.73509 0.0
H4536 H 0.21067 0.86924 0.72961 0.0
H4537 H 0.27664 0.90389 0.76798 0.0
H4538 H 0.2849 0.8973 0.79039 0.0
H4539 H 0.27289 0.91697 0.79094 0.0
H4540 H 0.24937 0.899 0.81098 0.0
H4541 H 0.26135 0.87929 0.81045 0.0
H4542 H 0.23696 0.87358 0.80179 0.0
H4543 H 0.2268 0.83944 0.72988 0.0
H4544 H 0.24598 0.8156 0.73467 0.0
H4545 H 0.2781 0.8571 0.78474 0.0
C4546 C 0.23194 0.91124 0.77435 0.0
C4547 C 0.21691 0.91428 0.76139 0.0
C4548 C 0.20977 0.89827 0.74531 0.0
C4549 C 0.21674 0.88081 0.74207 0.0
C4550 C 0.23138 0.87849 0.75483 0.0
C4551 C 0.23902 0.89339 0.77068 0.0
C4552 C 0.25493 0.88698 0.78197 0.0
C4553 C 0.27344 0.9022 0.78288 0.0
C4554 C 0.25039 0.88459 0.80252 0.0
C4555 C 0.25527 0.86653 0.76986 0.0
C4556 C 0.24118 0.86181 0.75448 0.0
C4557 C 0.23793 0.84336 0.74184 0.0
C4558 C 0.24905 0.82963 0.74472 0.0
C4559 C 0.26413 0.83384 0.75989 0.0
C4560 C 0.26709 0.85297 0.77265 0.0
H4561 H 0.41078 0.01506 0.02601 0.0
H4562 H 0.4077 0.96421 0.05502 0.0
H4563 H 0.44067 0.96695 0.05402 0.0
H4564 H 0.43394 1.00015 0.992 0.0
H4565 H 0.4494 0.02338 0.99021 0.0
H4566 H 0.42758 0.02333 0.99912 0.0
H4567 H 0.44378 0.04672 0.03125 0.0
H4568 H 0.46568 0.04785 0.02201 0.0
H4569 H 0.46246 0.04053 0.04519 0.0
H4570 H 0.47133 0.96961 0.04357 0.0
H4571 H 0.50057 0.97684 0.02909 0.0
H4572 H 0.48256 0.02264 1.00311 0.0
C4573 C 0.41722 1.00503 0.03284 0.0
C4574 C 0.40655 0.98938 0.04043 0.0
C4575 C 0.41548 0.97658 0.04938 0.0
C4576 C 0.43429 0.97786 0.04873 0.0
C4577 C 0.44391 0.992 0.03918 0.0
C4578 C 0.43592 1.00582 0.0319 0.0
C4579 C 0.4486 0.01762 0.01997 0.0
C4580 C 0.43931 0.01599 0.9991 0.0
C4581 C 0.45554 0.03947 0.03022 0.0
C4582 C 0.46404 0.00695 0.02029 0.0
C4583 C 0.46132 0.99266 0.03192 0.0
C4584 C 0.47373 0.98086 0.03452 0.0
C4585 C 0.49 0.98467 0.02593 0.0
C4586 C 0.49322 0.99968 0.01454 0.0
C4587 C 0.4799 0.01052 0.01116 0.0
H4588 H 0.85255 0.59867 0.77966 0.0
H4589 H 0.90535 0.62534 0.76235 0.0
H4590 H 0.89199 0.65123 0.75054 0.0
H4591 H 0.82423 0.60642 0.73907 0.0
H4592 H 0.80631 0.61212 0.75294 0.0
H4593 H 0.81999 0.59585 0.76055 0.0
H4594 H 0.82948 0.61846 0.79452 0.0
H4595 H 0.81554 0.63457 0.78719 0.0
H4596 H 0.83973 0.64462 0.79626 0.0
H4597 H 0.87321 0.67353 0.74049 0.0
H4598 H 0.8502 0.69335 0.73531 0.0
H4599 H 0.80968 0.652 0.75888 0.0
C4600 C 0.86126 0.61028 0.77375 0.0
C4601 C 0.87989 0.61055 0.77205 0.0
C4602 C 0.89105 0.62541 0.76389 0.0
C4603 C 0.88357 0.63993 0.75702 0.0
C4604 C 0.86497 0.63907 0.7584 0.0
C4605 C 0.85398 0.62481 0.76672 0.0
C4606 C 0.83446 0.62743 0.76653 0.0
C4607 C 0.82043 0.60938 0.75402 0.0
C4608 C 0.82952 0.63153 0.78736 0.0
C4609 C 0.83633 0.64555 0.75706 0.0
C4610 C 0.85399 0.65188 0.7523 0.0
C4611 C 0.8593 0.66875 0.74406 0.0
C4612 C 0.84628 0.67988 0.74121 0.0
C4613 C 0.82842 0.674 0.74671 0.0
C4614 C 0.82321 0.65642 0.75423 0.0
H4615 H 0.86053 0.61447 0.01611 0.0
H4616 H 0.88982 0.6714 1.00436 0.0
H4617 H 0.9192 0.66103 0.00748 0.0
H4618 H 0.89815 0.60892 0.05162 0.0
H4619 H 0.89373 0.58244 0.04337 0.0
H4620 H 0.87504 0.59476 0.04176 0.0
H4621 H 0.86755 0.5805 1.00486 0.0
H4622 H 0.88617 0.56813 0.0064 0.0
H4623 H 0.88557 0.5849 0.98946 0.0
H4624 H 0.94529 0.64433 0.01052 0.0
H4625 H 0.9662 0.62183 0.01178 0.0
H4626 H 0.9204 0.57496 0.02064 0.0
C4627 C 0.87316 0.62486 0.01446 0.0
C4628 C 0.87273 0.64376 0.00982 0.0
C4629 C 0.88962 0.65676 0.00758 0.0
C4630 C 0.90646 0.65106 0.00951 0.0
C4631 C 0.90636 0.6323 0.01379 0.0
C4632 C 0.89018 0.61936 0.01627 0.0
C4633 C 0.89393 0.59967 0.01989 0.0
C4634 C 0.88998 0.59625 0.04038 0.0
C4635 C 0.88264 0.58228 1.00421 0.0
C4636 C 0.91458 0.60337 0.01831 0.0
C4637 C 0.92148 0.62244 0.01518 0.0
C4638 C 0.94003 0.62933 0.01292 0.0
C4639 C 0.95179 0.61633 0.01349 0.0
C4640 C 0.94504 0.59642 0.01603 0.0
C4641 C 0.92616 0.59007 0.01882 0.0
H4642 H 0.23911 0.12529 0.74939 0.0
H4643 H 0.20886 0.13914 0.79757 0.0
H4644 H 0.22235 0.17487 0.79925 0.0
H4645 H 0.28113 0.16363 0.76732 0.0
H4646 H 0.2855 0.1696 0.74383 0.0
H4647 H 0.27282 0.14502 0.74565 0.0
H4648 H 0.24576 0.14831 0.72177 0.0
H4649 H 0.25835 0.17298 0.72 0.0
H4650 H 0.2354 0.16908 0.72711 0.0
H4651 H 0.23929 0.2111 0.79535 0.0
H4652 H 0.25985 0.24176 0.7886 0.0
H4653 H 0.28134 0.20573 0.74468 0.0
C4654 C 0.23517 0.13575 0.76028 0.0
C4655 C 0.22264 0.12853 0.77346 0.0
C4656 C 0.2184 0.14344 0.7874 0.0
C4657 C 0.22599 0.16414 0.78839 0.0
C4658 C 0.23824 0.17061 0.77541 0.0
C4659 C 0.24294 0.15676 0.76168 0.0
C4660 C 0.25696 0.16777 0.74985 0.0
C4661 C 0.27519 0.16111 0.75178 0.0
C4662 C 0.24863 0.16432 0.72841 0.0
C4663 C 0.25981 0.18977 0.75937 0.0
C4664 C 0.24846 0.19113 0.77376 0.0
C4665 C 0.2482 0.20995 0.7841 0.0
C4666 C 0.25991 0.22754 0.78003 0.0
C4667 C 0.27234 0.22674 0.76591 0.0
C4668 C 0.27205 0.20727 0.75551 0.0
H4669 H 0.37444 0.92275 0.27625 0.0
H4670 H 0.34697 0.9345 0.22387 0.0
H4671 H 0.32208 0.90381 0.22212 0.0
H4672 H 0.36273 0.86887 0.2641 0.0
H4673 H 0.35993 0.86668 0.28896 0.0
H4674 H 0.37585 0.88797 0.28375 0.0
H4675 H 0.35868 0.91053 0.30436 0.0
H4676 H 0.34201 0.88918 0.3085 0.0
H4677 H 0.33429 0.90807 0.29761 0.0
H4678 H 0.30126 0.87212 0.22629 0.0
H4679 H 0.28733 0.83926 0.23412 0.0
H4680 H 0.32636 0.85234 0.28664 0.0
C4681 C 0.3634 0.91844 0.26413 0.0
C4682 C 0.36235 0.93032 0.25 0.0
C4683 C 0.34781 0.92497 0.2345 0.0
C4684 C 0.33363 0.90792 0.23363 0.0
C4685 C 0.33441 0.89714 0.24864 0.0
C4686 C 0.34905 0.90204 0.26343 0.0
C4687 C 0.34658 0.88846 0.27805 0.0
C4688 C 0.36218 0.87733 0.27873 0.0
C4689 C 0.34531 0.89975 0.29832 0.0
C4690 C 0.32828 0.87485 0.26902 0.0
C4691 C 0.32146 0.88007 0.25206 0.0
C4692 C 0.30612 0.86807 0.23973 0.0
C4693 C 0.2983 0.84963 0.24428 0.0
C4694 C 0.30582 0.84395 0.26106 0.0
C4695 C 0.32015 0.857 0.27414 0.0
H4696 H 0.57683 0.39662 0.54105 0.0
H4697 H 0.54481 0.40042 0.58964 0.0
H4698 H 0.53632 0.42988 0.58053 0.0
H4699 H 0.59511 0.44937 0.54436 0.0
H4700 H 0.59298 0.4489 0.51849 0.0
H4701 H 0.59616 0.42726 0.52793 0.0
H4702 H 0.56639 0.40602 0.5062 0.0
H4703 H 0.56311 0.42765 0.49675 0.0
H4704 H 0.54494 0.41353 0.50777 0.0
H4705 H 0.53041 0.45853 0.56646 0.0
H4706 H 0.5296 0.48666 0.54959 0.0
H4707 H 0.56691 0.46756 0.51091 0.0
C4708 C 0.56809 0.40369 0.54981 0.0
C4709 C 0.56129 0.39568 0.566 0.0
C4710 C 0.54987 0.40561 0.57692 0.0
C4711 C 0.545 0.42256 0.57192 0.0
C4712 C 0.55165 0.42984 0.55589 0.0
C4713 C 0.56303 0.42088 0.54498 0.0
C4714 C 0.56828 0.43223 0.52855 0.0
C4715 C 0.58939 0.4399 0.52993 0.0
C4716 C 0.56021 0.41908 0.50864 0.0
C4717 C 0.55877 0.44937 0.53259 0.0
C4718 C 0.54885 0.44722 0.54814 0.0
C4719 C 0.53822 0.46043 0.55434 0.0
C4720 C 0.53779 0.47637 0.54459 0.0
C4721 C 0.54823 0.47948 0.52899 0.0
C4722 C 0.55892 0.46573 0.52292 0.0
H4723 H 0.41623 0.75162 0.33207 0.0
H4724 H 0.42057 0.80147 0.37884 0.0
H4725 H 0.39229 0.80818 0.36329 0.0
H4726 H 0.40067 0.77409 0.29357 0.0
H4727 H 0.38473 0.75171 0.28039 0.0
H4728 H 0.40479 0.7501 0.29572 0.0
H4729 H 0.38364 0.72726 0.31449 0.0
H4730 H 0.36348 0.72893 0.29927 0.0
H4731 H 0.36512 0.73565 0.32532 0.0
H4732 H 0.36251 0.80979 0.34201 0.0
H4733 H 0.33701 0.80768 0.31577 0.0
H4734 H 0.3524 0.75781 0.28248 0.0
C4735 C 0.41117 0.76382 0.33922 0.0
C4736 C 0.42107 0.77601 0.35686 0.0
C4737 C 0.41375 0.79196 0.3653 0.0
C4738 C 0.39743 0.79584 0.35661 0.0
C4739 C 0.38814 0.78368 0.33928 0.0
C4740 C 0.39483 0.76802 0.33062 0.0
C4741 C 0.38261 0.75767 0.31158 0.0
C4742 C 0.39387 0.75845 0.29429 0.0
C4743 C 0.37316 0.7361 0.31274 0.0
C4744 C 0.36839 0.77024 0.31063 0.0
C4745 C 0.37151 0.78492 0.32695 0.0
C4746 C 0.36 0.79825 0.32923 0.0
C4747 C 0.34535 0.79686 0.31432 0.0
C4748 C 0.3424 0.78245 0.29709 0.0
C4749 C 0.35407 0.76889 0.29553 0.0
H4750 H 0.07705 0.69063 0.0765 0.0
H4751 H 0.05349 0.70488 0.02325 0.0
H4752 H 0.04913 0.67002 0.00695 0.0
H4753 H 0.10196 0.65626 0.05446 0.0
H4754 H 0.09688 0.63943 0.0713 0.0
H4755 H 0.09829 0.66554 0.07887 0.0
H4756 H 0.0652 0.65719 0.08882 0.0
H4757 H 0.06382 0.63106 0.08146 0.0
H4758 H 0.04634 0.64195 0.07127 0.0
H4759 H 0.04642 0.63351 0.99668 0.0
H4760 H 0.04495 0.59759 0.99331 0.0
H4761 H 0.07141 0.60685 0.05266 0.0
C4762 C 0.07121 0.6865 0.06133 0.0
C4763 C 0.06572 0.70061 0.05114 0.0
C4764 C 0.0577 0.69439 0.03143 0.0
C4765 C 0.05527 0.67463 0.022 0.0
C4766 C 0.0609 0.66117 0.03245 0.0
C4767 C 0.06863 0.66679 0.05169 0.0
C4768 C 0.07292 0.64919 0.05976 0.0
C4769 C 0.09376 0.65283 0.06649 0.0
C4770 C 0.06138 0.64458 0.07631 0.0
C4771 C 0.06671 0.63287 0.04194 0.0
C4772 C 0.05968 0.64012 0.02639 0.0
C4773 C 0.05207 0.62773 0.00868 0.0
C4774 C 0.05131 0.60738 0.00689 0.0
C4775 C 0.05833 0.59959 0.02262 0.0
C4776 C 0.0664 0.61255 0.04027 0.0
H4777 H 0.10934 0.25986 0.85857 0.0
H4778 H 0.10501 0.32133 0.86758 0.0
H4779 H 0.13384 0.33085 0.85337 0.0
H4780 H 0.15951 0.27009 0.86794 0.0
H4781 H 0.1613 0.25026 0.84905 0.0
H4782 H 0.14073 0.24814 0.86098 0.0
H4783 H 0.12056 0.2422 0.82764 0.0
H4784 H 0.14106 0.24423 0.81564 0.0
H4785 H 0.12559 0.26005 0.81176 0.0
H4786 H 0.1633 0.33409 0.83785 0.0
H4787 H 0.19008 0.3304 0.82082 0.0
H4788 H 0.17466 0.26661 0.81931 0.0
C4789 C 0.1143 0.27533 0.8575 0.0
C4790 C 0.10467 0.28979 0.86464 0.0
C4791 C 0.11208 0.30988 0.8629 0.0
C4792 C 0.1285 0.31549 0.85464 0.0
C4793 C 0.13756 0.30093 0.84788 0.0
C4794 C 0.13069 0.28122 0.84908 0.0
C4795 C 0.1429 0.26846 0.84009 0.0
C4796 C 0.15162 0.25866 0.85543 0.0
C4797 C 0.13187 0.25281 0.82275 0.0
C4798 C 0.15755 0.28404 0.83346 0.0
C4799 C 0.15427 0.3027 0.8383 0.0
C4800 C 0.16588 0.3195 0.83384 0.0
C4801 C 0.18106 0.3172 0.82397 0.0
C4802 C 0.18461 0.29818 0.81833 0.0
C4803 C 0.17263 0.28143 0.82342 0.0
H4804 H 0.56336 0.70818 0.91706 0.0
H4805 H 0.58215 0.75678 0.96629 0.0
H4806 H 0.57447 0.73337 0.98873 0.0
H4807 H 0.52495 0.68012 0.93838 0.0
H4808 H 0.52854 0.65622 0.92828 0.0
H4809 H 0.53452 0.67686 0.91574 0.0
H4810 H 0.5679 0.67215 0.91585 0.0
H4811 H 0.56207 0.65156 0.92845 0.0
H4812 H 0.58131 0.67235 0.93858 0.0
H4813 H 0.56557 0.70577 0.00579 0.0
H4814 H 0.55687 0.67413 0.01745 0.0
H4815 H 0.5444 0.6421 0.95784 0.0
C4816 C 0.56568 0.7138 0.93257 0.0
C4817 C 0.57343 0.73422 0.94004 0.0
C4818 C 0.57644 0.74115 0.96036 0.0
C4819 C 0.57201 0.72801 0.97319 0.0
C4820 C 0.5646 0.70799 0.96546 0.0
C4821 C 0.56147 0.70078 0.94569 0.0
C4822 C 0.55399 0.67833 0.9415 0.0
C4823 C 0.53433 0.67255 0.93031 0.0
C4824 C 0.56711 0.66799 0.93045 0.0
C4825 C 0.55379 0.67415 0.96209 0.0
C4826 C 0.55971 0.69162 0.97555 0.0
C4827 C 0.56079 0.69196 0.99546 0.0
C4828 C 0.55573 0.67394 1.00193 0.0
C4829 C 0.54976 0.65576 0.98856 0.0
C4830 C 0.54885 0.65583 0.96834 0.0
H4831 H 0.10401 0.78673 0.70477 0.0
H4832 H 0.07238 0.74321 0.73428 0.0
H4833 H 0.10116 0.74186 0.75366 0.0
H4834 H 0.13953 0.76443 0.69851 0.0
H4835 H 0.15801 0.7867 0.70255 0.0
H4836 H 0.13489 0.78754 0.69383 0.0
H4837 H 0.1355 0.81559 0.72282 0.0
H4838 H 0.15878 0.81498 0.73156 0.0
H4839 H 0.14096 0.81191 0.74731 0.0
H4840 H 0.13265 0.7417 0.76634 0.0
H4841 H 0.16572 0.74174 0.77105 0.0
H4842 H 0.17745 0.78496 0.73302 0.0
C4843 C 0.10317 0.77749 0.71583 0.0
C4844 C 0.08614 0.76523 0.71833 0.0
C4845 C 0.08542 0.75275 0.73235 0.0
C4846 C 0.10162 0.75201 0.74348 0.0
C4847 C 0.1183 0.76392 0.74038 0.0
C4848 C 0.11926 0.77648 0.72696 0.0
C4849 C 0.13914 0.78581 0.7248 0.0
C4850 C 0.14311 0.7808 0.70368 0.0
C4851 C 0.14387 0.80842 0.73206 0.0
C4852 C 0.14911 0.77561 0.73829 0.0
C4853 C 0.13682 0.7635 0.74751 0.0
C4854 C 0.1425 0.75147 0.75962 0.0
C4855 C 0.16128 0.75163 0.76224 0.0
C4856 C 0.17402 0.76353 0.75257 0.0
C4857 C 0.16792 0.77589 0.74069 0.0
H4858 H 0.11531 0.43062 0.45964 0.0
H4859 H 0.06374 0.4041 0.42176 0.0
H4860 H 0.0517 0.43335 0.43323 0.0
H4861 H 0.09521 0.44909 0.4993 0.0
H4862 H 0.11288 0.47189 0.5071 0.0
H4863 H 0.11861 0.45034 0.49404 0.0
H4864 H 0.13128 0.47072 0.46823 0.0
H4865 H 0.12559 0.49237 0.4813 0.0
H4866 H 0.11661 0.4835 0.456 0.0
H4867 H 0.04429 0.46344 0.45032 0.0
H4868 H 0.04116 0.49238 0.47348 0.0
H4869 H 0.09717 0.49945 0.50124 0.0
C4870 C 0.10167 0.43131 0.45355 0.0
C4871 C 0.0904 0.41542 0.43979 0.0
C4872 C 0.07248 0.41635 0.43229 0.0
C4873 C 0.06561 0.43287 0.43862 0.0
C4874 C 0.07689 0.44826 0.45243 0.0
C4875 C 0.09452 0.4477 0.45987 0.0
C4876 C 0.10301 0.46543 0.47587 0.0
C4877 C 0.10769 0.45878 0.49522 0.0
C4878 C 0.12014 0.47879 0.46999 0.0
C4879 C 0.08716 0.47561 0.47665 0.0
C4880 C 0.07239 0.46564 0.46273 0.0
C4881 C 0.05583 0.47157 0.46113 0.0
C4882 C 0.05419 0.488 0.47433 0.0
C4883 C 0.06897 0.49808 0.48904 0.0
C4884 C 0.08576 0.49205 0.48999 0.0
H4885 H 0.40878 0.24114 0.21018 0.0
H4886 H 0.43991 0.30216 0.21434 0.0
H4887 H 0.41929 0.31366 0.2366 0.0
H4888 H 0.36592 0.24971 0.20718 0.0
H4889 H 0.35585 0.23229 0.22193 0.0
H4890 H 0.37499 0.22827 0.2094 0.0
H4891 H 0.39354 0.22701 0.24204 0.0
H4892 H 0.37433 0.23107 0.25466 0.0
H4893 H 0.39702 0.24745 0.26214 0.0
H4894 H 0.39353 0.31908 0.25396 0.0
H4895 H 0.36309 0.31836 0.2648 0.0
H4896 H 0.34839 0.2538 0.24974 0.0
C4897 C 0.41152 0.25683 0.21628 0.0
C4898 C 0.42577 0.27082 0.21057 0.0
C4899 C 0.42884 0.29129 0.21842 0.0
C4900 C 0.4174 0.29793 0.23125 0.0
C4901 C 0.40318 0.28385 0.23627 0.0
C4902 C 0.40022 0.26371 0.22917 0.0
C4903 C 0.38269 0.25201 0.23516 0.0
C4904 C 0.36907 0.23988 0.21736 0.0
C4905 C 0.38717 0.23859 0.24934 0.0
C4906 C 0.37562 0.26891 0.24543 0.0
C4907 C 0.38797 0.28705 0.24644 0.0
C4908 C 0.38389 0.30497 0.25371 0.0
C4909 C 0.36651 0.30437 0.25974 0.0
C4910 C 0.35338 0.28598 0.25816 0.0
C4911 C 0.35823 0.26803 0.25144 0.0
H4912 H 0.59387 0.49217 0.37081 0.0
H4913 H 0.62775 0.55258 0.37973 0.0
H4914 H 0.61622 0.56003 0.41102 0.0
H4915 H 0.55422 0.50557 0.3934 0.0
H4916 H 0.54897 0.48398 0.40476 0.0
H4917 H 0.55962 0.48279 0.38268 0.0
H4918 H 0.58635 0.47121 0.39956 0.0
H4919 H 0.57574 0.47235 0.42167 0.0
H4920 H 0.59931 0.48601 0.42194 0.0
H4921 H 0.60162 0.56158 0.44327 0.0
H4922 H 0.58481 0.55711 0.47162 0.0
H4923 H 0.55861 0.49629 0.444 0.0
C4924 C 0.59897 0.50701 0.37927 0.0
C4925 C 0.612 0.52174 0.37177 0.0
C4926 C 0.61776 0.54084 0.38405 0.0
C4927 C 0.61127 0.54529 0.40229 0.0
C4928 C 0.5986 0.5307 0.40905 0.0
C4929 C 0.59236 0.51189 0.39784 0.0
C4930 C 0.57842 0.49914 0.40874 0.0
C4931 C 0.55916 0.49247 0.39667 0.0
C4932 C 0.58537 0.48109 0.41323 0.0
C4933 C 0.57807 0.51355 0.42778 0.0
C4934 C 0.58993 0.5317 0.42752 0.0
C4935 C 0.59232 0.54736 0.4434 0.0
C4936 C 0.5826 0.54464 0.45972 0.0
C4937 C 0.5701 0.52638 0.4608 0.0
C4938 C 0.56793 0.51058 0.44419 0.0
H4939 H 0.3405 0.86214 0.08614 0.0
H4940 H 0.30576 0.90137 0.10522 0.0
H4941 H 0.31294 0.8972 0.13919 0.0
H4942 H 0.32513 0.82759 0.11344 0.0
H4943 H 0.34703 0.82143 0.11861 0.0
H4944 H 0.34242 0.83127 0.09712 0.0
H4945 H 0.3724 0.85943 0.10809 0.0
H4946 H 0.37669 0.84988 0.13003 0.0
H4947 H 0.37529 0.87539 0.13148 0.0
H4948 H 0.32049 0.88588 0.16951 0.0
H4949 H 0.32217 0.86298 0.19251 0.0
H4950 H 0.35067 0.8299 0.15307 0.0
C4951 C 0.33474 0.87007 0.09763 0.0
C4952 C 0.3227 0.88204 0.09345 0.0
C4953 C 0.31496 0.89202 0.10845 0.0
C4954 C 0.31926 0.89007 0.12771 0.0
C4955 C 0.33133 0.87818 0.1315 0.0
C4956 C 0.33873 0.86809 0.11683 0.0
C4957 C 0.3485 0.85352 0.1241 0.0
C4958 C 0.34025 0.83221 0.11266 0.0
C4959 C 0.36947 0.85995 0.12338 0.0
C4960 C 0.34418 0.85587 0.14481 0.0
C4961 C 0.3351 0.87088 0.14907 0.0
C4962 C 0.3278 0.87428 0.16651 0.0
C4963 C 0.32868 0.86112 0.17938 0.0
C4964 C 0.33631 0.84456 0.17434 0.0
C4965 C 0.34511 0.84266 0.15746 0.0
H4966 H 0.97617 0.51317 0.88802 0.0
H4967 H 1.00188 0.5712 0.87563 0.0
H4968 H 0.0239 0.57767 0.90541 0.0
H4969 H 0.98 0.52605 0.93909 0.0
H4970 H 0.98617 0.50369 0.94396 0.0
H4971 H 0.97221 0.50325 0.92154 0.0
H4972 H 0.99582 0.48971 0.90179 0.0
H4973 H 0.00973 0.48982 0.92416 0.0
H4974 H 0.01987 0.50297 0.90613 0.0
H4975 H 0.04285 0.57816 0.93577 0.0
H4976 H 0.05902 0.57211 0.96562 0.0
H4977 H 0.02154 0.5137 0.95842 0.0
C4978 C 0.98652 0.52717 0.89148 0.0
C4979 C 0.98713 0.54185 0.87973 0.0
C4980 C 1.00084 0.55999 0.88474 0.0
C4981 C 0.0135 0.56374 0.9015 0.0
C4982 C 0.01238 0.54909 0.91286 0.0
C4983 C 0.99943 0.53108 0.90804 0.0
C4984 C 1.0016 0.51775 0.92265 0.0
C4985 C 0.98394 0.51239 0.93239 0.0
C4986 C 1.00708 0.49896 0.91311 0.0
C4987 C 0.01745 0.53145 0.93673 0.0
C4988 C 0.02353 0.54933 0.93061 0.0
C4989 C 0.03833 0.56424 0.94076 0.0
C4990 C 0.04741 0.56067 0.95758 0.0
C4991 C 0.04144 0.54249 0.96403 0.0
C4992 C 0.02618 0.52777 0.95368 0.0
H4993 H 0.31306 0.24085 0.61595 0.0
H4994 H 0.27077 0.26813 0.59371 0.0
H4995 H 0.26649 0.28119 0.62726 0.0
H4996 H 0.29123 0.22537 0.65512 0.0
H4997 H 0.31199 0.23069 0.6722 0.0
H4998 H 0.31319 0.22483 0.64652 0.0
H4999 H 0.33772 0.2579 0.64851 0.0
H5000 H 0.33677 0.2637 0.67427 0.0
H5001 H 0.33274 0.28103 0.6589 0.0
H5002 H 0.26433 0.28842 0.66318 0.0
H5003 H 0.26676 0.29195 0.69904 0.0
H5004 H 0.31119 0.26128 0.69837 0.0
C5005 C 0.30321 0.24995 0.61814 0.0
C5006 C 0.29213 0.2533 0.60207 0.0
C5007 C 0.27922 0.26508 0.60569 0.0
C5008 C 0.27673 0.27265 0.62474 0.0
C5009 C 0.28735 0.2685 0.64021 0.0
C5010 C 0.30056 0.2577 0.63717 0.0
C5011 C 0.30964 0.25483 0.65645 0.0
C5012 C 0.30631 0.23261 0.65763 0.0
C5013 C 0.33045 0.26498 0.65972 0.0
C5014 C 0.29924 0.26538 0.67065 0.0
C5015 C 0.2864 0.27312 0.66098 0.0
C5016 C 0.27451 0.28263 0.67093 0.0
C5017 C 0.27588 0.28446 0.69129 0.0
C5018 C 0.28919 0.27701 0.70157 0.0
C5019 C 0.30099 0.26736 0.69099 0.0
H5020 H 0.59695 0.53818 0.17095 0.0
H5021 H 0.61586 0.4849 0.15215 0.0
H5022 H 0.60323 0.48426 0.1185 0.0
H5023 H 0.55351 0.52258 0.13551 0.0
H5024 H 0.55406 0.54734 0.13116 0.0
H5025 H 0.56401 0.54376 0.15432 0.0
H5026 H 0.59512 0.56686 0.15043 0.0
H5027 H 0.58525 0.57041 0.12724 0.0
H5028 H 0.60607 0.56146 0.12901 0.0
H5029 H 0.58888 0.4888 0.08609 0.0
H5030 H 0.57441 0.49832 0.0575 0.0
H5031 H 0.56408 0.54957 0.09424 0.0
C5032 C 0.59848 0.52635 0.1598 0.0
C5033 C 0.60757 0.5114 0.16496 0.0
C5034 C 0.60887 0.49634 0.14938 0.0
C5035 C 0.60175 0.4959 0.1299 0.0
C5036 C 0.59297 0.51059 0.12543 0.0
C5037 C 0.59116 0.52555 0.1399 0.0
C5038 C 0.58073 0.53928 0.13065 0.0
C5039 C 0.56197 0.53819 0.13838 0.0
C5040 C 0.5925 0.56079 0.13457 0.0
C5041 C 0.57782 0.5302 0.10875 0.0
C5042 C 0.58476 0.51341 0.10636 0.0
C5043 C 0.58347 0.50196 0.08791 0.0
C5044 C 0.57505 0.50758 0.07154 0.0
C5045 C 0.56786 0.52485 0.07295 0.0
C5046 C 0.56938 0.53634 0.09217 0.0
H5047 H 0.29794 0.87081 0.89077 0.0
H5048 H 0.32857 0.83933 0.92497 0.0
H5049 H 0.32892 0.81521 0.8953 0.0
H5050 H 0.26956 0.82801 0.85837 0.0
H5051 H 0.27024 0.84006 0.83747 0.0
H5052 H 0.27241 0.85457 0.86146 0.0
H5053 H 0.30344 0.87677 0.85555 0.0
H5054 H 0.3014 0.86219 0.83159 0.0
H5055 H 0.32186 0.86541 0.84863 0.0
H5056 H 0.32412 0.79354 0.86243 0.0
H5057 H 0.31602 0.77672 0.82794 0.0
H5058 H 0.29082 0.82401 0.81501 0.0
C5059 C 0.30466 0.85878 0.89195 0.0
C5060 C 0.31317 0.85674 0.90999 0.0
C5061 C 0.32204 0.84105 0.91114 0.0
C5062 C 0.32228 0.82733 0.89443 0.0
C5063 C 0.31379 0.82977 0.87679 0.0
C5064 C 0.30527 0.84518 0.8754 0.0
C5065 C 0.2973 0.84458 0.8547 0.0
C5066 C 0.27612 0.84162 0.8529 0.0
C5067 C 0.30657 0.86335 0.84718 0.0
C5068 C 0.30262 0.82636 0.84465 0.0
C5069 C 0.31194 0.8179 0.85767 0.0
C5070 C 0.3171 0.80017 0.85202 0.0
C5071 C 0.31247 0.79074 0.83251 0.0
C5072 C 0.30314 0.79935 0.81903 0.0
C5073 C 0.29838 0.81747 0.82507 0.0
H5074 H 0.96744 0.53159 0.68516 0.0
H5075 H 0.997 0.49467 0.71312 0.0
H5076 H 1.00231 0.47835 0.68101 0.0
H5077 H 0.94533 0.49426 0.64258 0.0
H5078 H 0.94804 0.51178 0.62616 0.0
H5079 H 0.94551 0.5199 0.65122 0.0
H5080 H 0.9764 0.54699 0.65581 0.0
H5081 H 0.97838 0.53958 0.63058 0.0
H5082 H 0.99702 0.53992 0.64892 0.0
H5083 H 1.00577 0.46764 0.64717 0.0
H5084 H 0.01465 0.46932 0.61471 0.0
H5085 H 0.98076 0.51114 0.60741 0.0
C5086 C 0.97534 0.52033 0.68443 0.0
C5087 C 0.98197 0.51432 0.70132 0.0
C5088 C 0.992 0.49941 0.7001 0.0
C5089 C 0.99471 0.48985 0.68201 0.0
C5090 C 0.9871 0.49532 0.66548 0.0
C5091 C 0.97804 0.51054 0.6665 0.0
C5092 C 0.97281 0.51482 0.64662 0.0
C5093 C 0.95166 0.50989 0.64134 0.0
C5094 C 0.9817 0.5366 0.64541 0.0
C5095 C 0.98124 0.50029 0.63434 0.0
C5096 C 0.98883 0.48873 0.64549 0.0
C5097 C 0.99963 0.47626 0.63812 0.0
C5098 C 1.00441 0.47713 0.61948 0.0
C5099 C 0.99856 0.49062 0.60874 0.0
C5100 C 0.98536 0.50074 0.61545 0.0
H5101 H 0.2955 0.21975 0.3838 0.0
H5102 H 0.29352 0.27223 0.42479 0.0
H5103 H 0.29491 0.29151 0.39843 0.0
H5104 H 0.32753 0.24623 0.35419 0.0
H5105 H 0.31629 0.23101 0.33129 0.0
H5106 H 0.31535 0.22075 0.35329 0.0
H5107 H 0.2796 0.21093 0.34661 0.0
H5108 H 0.28044 0.22127 0.32465 0.0
H5109 H 0.26723 0.2297 0.3431 0.0
H5110 H 0.2962 0.30564 0.3686 0.0
H5111 H 0.29811 0.31468 0.33652 0.0
H5112 H 0.29941 0.25424 0.31195 0.0
C5113 C 0.29545 0.23533 0.38722 0.0
C5114 C 0.29409 0.24424 0.40667 0.0
C5115 C 0.29409 0.26473 0.41024 0.0
C5116 C 0.295 0.27593 0.39527 0.0
C5117 C 0.29595 0.26672 0.37642 0.0
C5118 C 0.29626 0.24692 0.37219 0.0
C5119 C 0.29728 0.24107 0.35033 0.0
C5120 C 0.31518 0.23437 0.34708 0.0
C5121 C 0.28011 0.22477 0.3406 0.0
C5122 C 0.29747 0.2607 0.34308 0.0
C5123 C 0.2967 0.27512 0.35865 0.0
C5124 C 0.29681 0.29446 0.35633 0.0
C5125 C 0.29791 0.29945 0.33783 0.0
C5126 C 0.29888 0.28535 0.32131 0.0
C5127 C 0.29852 0.26547 0.32404 0.0
H5128 H 0.36641 0.59558 0.48557 0.0
H5129 H 0.36483 0.59713 0.54758 0.0
H5130 H 0.39122 0.58182 0.54915 0.0
H5131 H 0.38002 0.54941 0.47457 0.0
H5132 H 0.3957 0.55799 0.45791 0.0
H5133 H 0.3759 0.56827 0.46114 0.0
H5134 H 0.39738 0.6037 0.46992 0.0
H5135 H 0.41731 0.59362 0.46678 0.0
H5136 H 0.41622 0.60921 0.48942 0.0
H5137 H 0.41776 0.5676 0.54486 0.0
H5138 H 0.44389 0.55432 0.53455 0.0
H5139 H 0.4298 0.56287 0.47561 0.0
C5140 C 0.37166 0.59273 0.49947 0.0
C5141 C 0.36337 0.59726 0.51639 0.0
C5142 C 0.3706 0.59327 0.5343 0.0
C5143 C 0.3857 0.58475 0.53542 0.0
C5144 C 0.39356 0.58053 0.51856 0.0
C5145 C 0.38693 0.58439 0.50092 0.0
C5146 C 0.39852 0.57895 0.48523 0.0
C5147 C 0.38683 0.56268 0.46875 0.0
C5148 C 0.40792 0.59747 0.47738 0.0
C5149 C 0.41253 0.57123 0.49689 0.0
C5150 C 0.40937 0.57242 0.51608 0.0
C5151 C 0.42047 0.56656 0.52989 0.0
C5152 C 0.43531 0.55918 0.52393 0.0
C5153 C 0.43883 0.5577 0.50436 0.0
C5154 C 0.42728 0.56376 0.49064 0.0
H5155 H 0.92492 0.94652 0.54542 0.0
H5156 H 0.89438 0.96284 0.49742 0.0
H5157 H 0.92315 0.98441 0.49103 0.0
H5158 H 0.95564 0.99549 0.56246 0.0
H5159 H 0.97564 0.98629 0.56886 0.0
H5160 H 0.95272 0.97142 0.56945 0.0
H5161 H 0.95982 0.9424 0.54617 0.0
H5162 H 0.9827 0.95728 0.54532 0.0
H5163 H 0.9673 0.94651 0.52311 0.0
H5164 H 0.9554 1.00492 0.4896 0.0
H5165 H 0.98803 0.02431 0.49493 0.0
H5166 H 0.99877 0.99638 0.54417 0.0
C5167 C 0.92421 0.95465 0.53359 0.0
C5168 C 0.90701 0.95239 0.52175 0.0
C5169 C 0.90712 0.96355 0.50647 0.0
C5170 C 0.92352 0.97607 0.50274 0.0
C5171 C 0.94013 0.97764 0.51438 0.0
C5172 C 0.94063 0.96737 0.52961 0.0
C5173 C 0.96041 0.97225 0.54015 0.0
C5174 C 0.96114 0.98194 0.5615 0.0
C5175 C 0.968 0.95349 0.5386 0.0
C5176 C 0.97082 0.98702 0.52863 0.0
C5177 C 0.95879 0.9897 0.51369 0.0
C5178 C 0.96491 1.00277 0.50119 0.0
C5179 C 0.98358 0.01365 0.50421 0.0
C5180 C 0.99622 0.01156 0.51958 0.0
C5181 C 0.98966 0.99792 0.53192 0.0
H5182 H 0.86821 0.16162 0.28848 0.0
H5183 H 0.88039 0.15743 0.22884 0.0
H5184 H 0.86537 0.1844 0.22481 0.0
H5185 H 0.82293 0.17364 0.27986 0.0
H5186 H 0.82585 0.19157 0.30199 0.0
H5187 H 0.83762 0.17168 0.30094 0.0
H5188 H 0.86893 0.19728 0.31172 0.0
H5189 H 0.85723 0.21722 0.31284 0.0
H5190 H 0.87577 0.2169 0.29811 0.0
H5191 H 0.84808 0.21311 0.22618 0.0
H5192 H 0.83132 0.23956 0.23335 0.0
H5193 H 0.82928 0.22816 0.29209 0.0
C5194 C 0.86783 0.16625 0.27448 0.0
C5195 C 0.8757 0.15599 0.25886 0.0
C5196 C 0.87443 0.16358 0.24114 0.0
C5197 C 0.86588 0.17946 0.23865 0.0
C5198 C 0.85818 0.18876 0.25396 0.0
C5199 C 0.85913 0.1825 0.27167 0.0
C5200 C 0.84968 0.19546 0.2857 0.0
C5201 C 0.83303 0.1823 0.29254 0.0
C5202 C 0.86374 0.20742 0.30314 0.0
C5203 C 0.84319 0.20969 0.27312 0.0
C5204 C 0.84841 0.20547 0.25483 0.0
C5205 C 0.84411 0.21637 0.24056 0.0
C5206 C 0.83445 0.23165 0.24481 0.0
C5207 C 0.8287 0.23676 0.26333 0.0
C5208 C 0.83332 0.22522 0.2777 0.0
H5209 H 0.68596 0.06258 0.02501 0.0
H5210 H 0.68914 0.09346 0.97598 0.0
H5211 H 0.65556 0.09036 0.97314 0.0
H5212 H 0.63672 0.02989 0.00836 0.0
H5213 H 0.63207 0.0323 0.03326 0.0
H5214 H 0.6551 0.03205 0.02764 0.0
H5215 H 0.66731 0.06548 0.05182 0.0
H5216 H 0.64425 0.06656 0.0565 0.0
H5217 H 0.6587 0.08677 0.04779 0.0
H5218 H 0.62368 0.09024 0.97966 0.0
H5219 H 0.59271 0.08569 0.99066 0.0
H5220 H 0.61104 0.05706 0.0367 0.0
C5221 C 0.67938 0.06784 0.01316 0.0
C5222 C 0.68998 0.07825 1.00078 0.0
C5223 C 0.68115 0.08516 0.98546 0.0
C5224 C 0.66212 0.08368 0.98385 0.0
C5225 C 0.65234 0.07509 0.99753 0.0
C5226 C 0.66046 0.06663 0.01147 0.0
C5227 C 0.64725 0.06001 0.02555 0.0
C5228 C 0.6425 0.03721 0.02357 0.0
C5229 C 0.65484 0.07033 0.04665 0.0
C5230 C 0.63089 0.06717 0.018 0.0
C5231 C 0.63402 0.07563 1.00173 0.0
C5232 C 0.6209 0.08337 0.9922 0.0
C5233 C 0.60356 0.08104 0.99869 0.0
C5234 C 0.5998 0.07119 0.0145 0.0
C5235 C 0.61382 0.06504 0.02484 0.0
H5236 H 0.21189 0.45362 0.24324 0.0
H5237 H 0.24076 0.5016 0.28998 0.0
H5238 H 0.25923 0.47958 0.30196 0.0
H5239 H 0.20863 0.41469 0.27143 0.0
H5240 H 0.212 0.39656 0.25172 0.0
H5241 H 0.20135 0.41618 0.24663 0.0
H5242 H 0.22609 0.4272 0.22428 0.0
H5243 H 0.23655 0.40736 0.22895 0.0
H5244 H 0.25032 0.43264 0.23365 0.0
H5245 H 0.27482 0.4529 0.30795 0.0
H5246 H 0.28821 0.42362 0.30647 0.0
H5247 H 0.24713 0.3925 0.25732 0.0
C5248 C 0.22228 0.45943 0.25584 0.0
C5249 C 0.22525 0.47908 0.26573 0.0
C5250 C 0.23859 0.48643 0.28234 0.0
C5251 C 0.24897 0.47408 0.28925 0.0
C5252 C 0.24543 0.45452 0.27945 0.0
C5253 C 0.23248 0.44725 0.26309 0.0
C5254 C 0.23139 0.42572 0.2552 0.0
C5255 C 0.2122 0.41252 0.25632 0.0
C5256 C 0.2364 0.42309 0.23429 0.0
C5257 C 0.24608 0.42216 0.26946 0.0
C5258 C 0.25393 0.43888 0.2834 0.0
C5259 C 0.26866 0.43957 0.29732 0.0
C5260 C 0.27604 0.42287 0.29649 0.0
C5261 C 0.26861 0.40595 0.28182 0.0
C5262 C 0.25303 0.40534 0.26866 0.0
H5263 H 0.20331 0.41687 0.02373 0.0
H5264 H 0.24806 0.4607 0.00869 0.0
H5265 H 0.22662 0.48218 1.00351 0.0
H5266 H 0.16697 0.42492 0.98796 0.0
H5267 H 0.14924 0.42124 1.00375 0.0
H5268 H 0.16772 0.40862 0.00533 0.0
H5269 H 0.17588 0.4236 0.042 0.0
H5270 H 0.15746 0.43626 0.04053 0.0
H5271 H 0.18079 0.4502 0.04977 0.0
H5272 H 0.2011 0.4996 1.00129 0.0
H5273 H 0.17309 0.51243 1.00255 0.0
H5274 H 0.1437 0.45773 0.01873 0.0
C5275 C 0.20846 0.43094 0.01922 0.0
C5276 C 0.22737 0.43721 0.01659 0.0
C5277 C 0.23366 0.45567 0.01071 0.0
C5278 C 0.22156 0.46794 0.00771 0.0
C5279 C 0.20306 0.46149 0.01047 0.0
C5280 C 0.19643 0.44339 0.01598 0.0
C5281 C 0.17587 0.44034 0.01814 0.0
C5282 C 0.16426 0.42273 1.00289 0.0
C5283 C 0.1723 0.43744 0.03885 0.0
C5284 C 0.17231 0.45996 0.01396 0.0
C5285 C 0.18816 0.47169 0.00919 0.0
C5286 C 0.18856 0.49047 1.00483 0.0
C5287 C 0.17246 0.4976 0.00548 0.0
C5288 C 0.15599 0.48613 0.01057 0.0
C5289 C 0.156 0.46695 0.01482 0.0
H5290 H 0.8573 0.93344 0.23457 0.0
H5291 H 0.8826 0.95061 0.29473 0.0
H5292 H 0.86858 0.91715 0.30052 0.0
H5293 H 0.81402 0.90279 0.24323 0.0
H5294 H 0.81187 0.8839 0.22198 0.0
H5295 H 0.8245 0.90904 0.22213 0.0
H5296 H 0.85317 0.89626 0.21348 0.0
H5297 H 0.84065 0.87108 0.21346 0.0
H5298 H 0.86246 0.88144 0.22873 0.0
H5299 H 0.85156 0.87987 0.30008 0.0
H5300 H 0.83133 0.84567 0.29402 0.0
H5301 H 0.81485 0.85182 0.23505 0.0
C5302 C 0.86006 0.93027 0.24899 0.0
C5303 C 0.87131 0.94563 0.26416 0.0
C5304 C 0.87403 0.94001 0.2827 0.0
C5305 C 0.86614 0.92063 0.28618 0.0
C5306 C 0.85517 0.90611 0.27109 0.0
C5307 C 0.85202 0.91075 0.25283 0.0
C5308 C 0.83923 0.89241 0.23928 0.0
C5309 C 0.82134 0.89733 0.23118 0.0
C5310 C 0.84948 0.88486 0.22275 0.0
C5311 C 0.8352 0.87706 0.25282 0.0
C5312 C 0.84501 0.88512 0.27101 0.0
C5313 C 0.84394 0.87362 0.28579 0.0
C5314 C 0.83247 0.85388 0.28215 0.0
C5315 C 0.82159 0.84526 0.26389 0.0
C5316 C 0.82315 0.85739 0.2491 0.0
H5317 H 0.73944 0.14308 0.73873 0.0
H5318 H 0.72629 0.15401 0.79796 0.0
H5319 H 0.75566 0.17894 0.80739 0.0
H5320 H 0.79124 0.15807 0.74826 0.0
H5321 H 0.79261 0.17161 0.7284 0.0
H5322 H 0.77418 0.14966 0.72699 0.0
H5323 H 0.7493 0.16944 0.72083 0.0
H5324 H 0.76771 0.19075 0.72099 0.0
H5325 H 0.75044 0.19233 0.7372 0.0
H5326 H 0.78361 0.20366 0.81051 0.0
H5327 H 0.79651 0.23716 0.80476 0.0
H5328 H 0.78982 0.21488 0.7428 0.0
C5329 C 0.74264 0.15066 0.75371 0.0
C5330 C 0.73104 0.14578 0.76785 0.0
C5331 C 0.73554 0.15662 0.78711 0.0
C5332 C 0.75234 0.17059 0.79268 0.0
C5333 C 0.76411 0.1741 0.77866 0.0
C5334 C 0.75889 0.16534 0.75932 0.0
C5335 C 0.77079 0.17601 0.74618 0.0
C5336 C 0.78293 0.16306 0.73692 0.0
C5337 C 0.75885 0.18254 0.73042 0.0
C5338 C 0.7823 0.19333 0.76108 0.0
C5339 C 0.77948 0.19075 0.77989 0.0
C5340 C 0.78598 0.2059 0.79595 0.0
C5341 C 0.79307 0.2249 0.79254 0.0
C5342 C 0.79301 0.22827 0.77327 0.0
C5343 C 0.78966 0.2123 0.7576 0.0
loop_
_geom_bond_atom_site_label_1
_geom_bond_atom_site_label_2
_geom_bond_distance
_geom_bond_site_symmetry_2
_ccdc_geom_bond_type
Li0 N17 1.990 . S
Li0 O60 1.956 . S
Li0 O61 1.970 . S
Li0 O62 1.961 . S
Li1 N25 1.990 . S
Li1 O60 1.970 . S
Li1 O61 1.956 . S
Li1 O63 1.961 . S
Li2 N47 1.990 . S
Li2 O60 1.961 . S
Li2 O62 1.956 . S
Li2 O63 1.970 . S
Li3 N53 1.990 . S
Li3 O61 1.961 . S
Li3 O62 1.970 . S
Li3 O63 1.956 . S
C4 C6 1.348 . S
C4 C7 1.356 . S
C4 O60 1.325 . S
N5 C8 1.314 . S
N5 C9 1.279 . S
C6 C4 1.348 . S
C6 C8 1.353 . S
C6 H64 0.929 . S
C7 C4 1.356 . S
C7 C9 1.358 . S
C7 H65 0.930 . S
C8 N5 1.314 . S
C8 C6 1.353 . S
C8 H66 0.930 . S
C9 N5 1.279 . S
C9 C7 1.358 . S
C9 H67 0.930 . S
C10 C13 1.348 . S
C10 C14 1.356 . S
C10 O61 1.325 . S
C11 N12 1.279 . S
C11 C14 1.358 . S
C11 H68 0.930 . S
N12 C11 1.279 . S
N12 C15 1.314 . S
C13 C10 1.348 . S
C13 C15 1.353 . S
C13 H69 0.929 . S
C14 C10 1.356 . S
C14 C11 1.358 . S
C14 H70 0.930 . S
C15 N12 1.314 . S
C15 C13 1.353 . S
C15 H71 0.930 . S
C16 N17 1.314 . S
C16 C21 1.353 . S
C16 H22 0.930 . S
N17 Li0 1.990 . S
N17 C16 1.314 . S
N17 C19 1.279 . S
C18 C19 1.358 . S
C18 C20 1.356 . S
C18 H72 0.930 . S
C19 N17 1.279 . S
C19 C18 1.358 . S
C19 H23 0.930 . S
C20 C18 1.356 . S
C20 C21 1.348 . S
C21 C16 1.353 . S
C21 C20 1.348 . S
C21 H73 0.929 . S
H22 C16 0.930 . S
H23 C19 0.930 . S
C24 N25 1.314 . S
C24 C26 1.353 . S
C24 H30 0.930 . S
N25 Li1 1.990 . S
N25 C24 1.314 . S
N25 C28 1.279 . S
C26 C24 1.353 . S
C26 C29 1.348 . S
C26 H74 0.929 . S
C27 C28 1.358 . S
C27 C29 1.356 . S
C27 H75 0.930 . S
C28 N25 1.279 . S
C28 C27 1.358 . S
C28 H31 0.930 . S
C29 C26 1.348 . S
C29 C27 1.356 . S
H30 C24 0.930 . S
H31 C28 0.930 . S
C32 C34 1.348 . S
C32 C35 1.356 . S
C32 O62 1.325 . S
N33 C36 1.314 . S
N33 C37 1.279 . S
C34 C32 1.348 . S
C34 C36 1.353 . S
C34 H76 0.929 . S
C35 C32 1.356 . S
C35 C37 1.358 . S
C35 H77 0.930 . S
C36 N33 1.314 . S
C36 C34 1.353 . S
C36 H78 0.930 . S
C37 N33 1.279 . S
C37 C35 1.358 . S
C37 H79 0.930 . S
C38 C39 1.348 . S
C38 C40 1.356 . S
C38 O63 1.325 . S
C39 C38 1.348 . S
C39 C41 1.353 . S
C39 H80 0.929 . S
C40 C38 1.356 . S
C40 C42 1.358 . S
C40 H81 0.930 . S
C41 C39 1.353 . S
C41 N43 1.314 . S
C41 H82 0.930 . S
C42 C40 1.358 . S
C42 N43 1.279 . S
C42 H83 0.930 . S
N43 C41 1.314 . S
N43 C42 1.279 . S
C44 C46 1.353 . S
C44 N47 1.314 . S
C44 H50 0.930 . S
C45 N47 1.279 . S
C45 C48 1.358 . S
C45 H51 0.930 . S
C46 C44 1.353 . S
C46 C49 1.348 . S
C46 H84 0.929 . S
N47 Li2 1.990 . S
N47 C44 1.314 . S
N47 C45 1.279 . S
C48 C45 1.358 . S
C48 C49 1.356 . S
C48 H85 0.930 . S
C49 C46 1.348 . S
C49 C48 1.356 . S
H50 C44 0.930 . S
H51 C45 0.930 . S
C52 N53 1.314 . S
C52 C54 1.353 . S
C52 H58 0.930 . S
N53 Li3 1.990 . S
N53 C52 1.314 . S
N53 C56 1.279 . S
C54 C52 1.353 . S
C54 C57 1.348 . S
C54 H86 0.929 . S
C55 C56 1.358 . S
C55 C57 1.356 . S
C55 H87 0.930 . S
C56 N53 1.279 . S
C56 C55 1.358 . S
C56 H59 0.930 . S
C57 C54 1.348 . S
C57 C55 1.356 . S
H58 C52 0.930 . S
H59 C56 0.930 . S
O60 Li0 1.956 . S
O60 Li1 1.970 . S
O60 Li2 1.961 . S
O60 C4 1.325 . S
O61 Li0 1.970 . S
O61 Li1 1.956 . S
O61 Li3 1.961 . S
O61 C10 1.325 . S
O62 Li0 1.961 . S
O62 Li2 1.956 . S
O62 Li3 1.970 . S
O62 C32 1.325 . S
O63 Li1 1.961 . S
O63 Li2 1.970 . S
O63 Li3 1.956 . S
O63 C38 1.325 . S
H64 C6 0.929 . S
H65 C7 0.930 . S
H66 C8 0.930 . S
H67 C9 0.930 . S
H68 C11 0.930 . S
H69 C13 0.929 . S
H70 C14 0.930 . S
H71 C15 0.930 . S
H72 C18 0.930 . S
H73 C21 0.929 . S
H74 C26 0.929 . S
H75 C27 0.930 . S
H76 C34 0.929 . S
H77 C35 0.930 . S
H78 C36 0.930 . S
H79 C37 0.930 . S
H80 C39 0.929 . S
H81 C40 0.930 . S
H82 C41 0.930 . S
H83 C42 0.930 . S
H84 C46 0.929 . S
H85 C48 0.930 . S
H86 C54 0.929 . S
H87 C55 0.930 . S
Li88 N105 1.990 . S
Li88 O148 1.956 . S
Li88 O149 1.970 . S
Li88 O150 1.961 1_455 S
Li89 N113 1.990 . S
Li89 O148 1.970 . S
Li89 O149 1.956 . S
Li89 O151 1.930 1_455 S
Li90 N135 1.990 . S
Li90 O148 1.961 1_655 S
Li90 O150 1.956 . S
Li90 O151 1.972 . S
Li91 N141 1.990 . S
Li91 O149 1.961 1_655 S
Li91 O150 1.970 . S
Li91 O151 2.000 . S
C92 C94 1.348 . S
C92 C95 1.356 . S
C92 O148 1.325 . S
N93 C96 1.314 . S
N93 C97 1.279 . S
C94 C92 1.348 . S
C94 C96 1.353 . S
C94 H152 0.929 . S
C95 C92 1.356 . S
C95 C97 1.358 . S
C95 H153 0.930 . S
C96 N93 1.314 . S
C96 C94 1.353 . S
C96 H154 0.930 . S
C97 N93 1.279 . S
C97 C95 1.358 . S
C97 H155 0.930 . S
C98 C101 1.348 . S
C98 C102 1.356 . S
C98 O149 1.325 . S
C99 N100 1.279 . S
C99 C102 1.358 . S
C99 H156 0.930 . S
N100 C99 1.279 . S
N100 C103 1.314 . S
C101 C98 1.348 . S
C101 C103 1.353 . S
C101 H157 0.929 . S
C102 C98 1.356 . S
C102 C99 1.358 . S
C102 H158 0.936 . S
C103 N100 1.314 . S
C103 C101 1.353 . S
C103 H159 0.930 . S
C104 N105 1.314 1_655 S
C104 C109 1.353 . S
C104 H110 0.930 . S
N105 Li88 1.990 . S
N105 C104 1.314 1_455 S
N105 C107 1.279 . S
C106 C107 1.358 . S
C106 C108 1.356 . S
C106 H160 0.930 . S
C107 N105 1.279 . S
C107 C106 1.358 . S
C107 H111 0.930 . S
C108 C106 1.356 . S
C108 C109 1.348 1_455 S
C109 C104 1.353 . S
C109 C108 1.348 1_655 S
C109 H161 0.929 . S
H110 C104 0.930 . S
H111 C107 0.930 . S
C112 N113 1.314 . S
C112 C114 1.353 . S
C112 H118 0.930 . S
N113 Li89 1.990 . S
N113 C112 1.314 . S
N113 C116 1.279 . S
C114 C112 1.353 . S
C114 C117 1.348 . S
C114 H162 0.929 . S
C115 C116 1.358 . S
C115 C117 1.356 . S
C115 H163 0.930 . S
C116 N113 1.279 . S
C116 C115 1.358 . S
C116 H119 0.930 . S
C117 C114 1.348 . S
C117 C115 1.356 . S
H118 C112 0.930 . S
H119 C116 0.930 . S
C120 C122 1.348 . S
C120 C123 1.356 . S
C120 O150 1.325 . S
N121 C124 1.314 . S
N121 C125 1.279 . S
C122 C120 1.348 . S
C122 C124 1.353 . S
C122 H164 0.929 . S
C123 C120 1.356 . S
C123 C125 1.358 . S
C123 H165 0.930 . S
C124 N121 1.314 . S
C124 C122 1.353 . S
C124 H166 0.930 . S
C125 N121 1.279 . S
C125 C123 1.358 . S
C125 H167 0.930 . S
C126 C127 1.348 . S
C126 C128 1.356 1_655 S
C126 O151 1.323 . S
C127 C126 1.348 . S
C127 C129 1.353 . S
C127 H168 0.929 . S
C128 C126 1.356 1_455 S
C128 C130 1.357 . S
C128 H169 0.930 . S
C129 C127 1.353 . S
C129 N131 1.314 . S
C129 H170 0.930 . S
C130 C128 1.357 . S
C130 N131 1.274 1_455 S
C130 H171 0.942 . S
N131 C129 1.314 . S
N131 C130 1.274 1_655 S
C132 C134 1.353 . S
C132 N135 1.314 1_455 S
C132 H138 0.930 . S
C133 N135 1.279 . S
C133 C136 1.358 . S
C133 H139 0.930 . S
C134 C132 1.353 . S
C134 C137 1.348 1_455 S
C134 H172 0.929 . S
N135 Li90 1.990 . S
N135 C132 1.314 1_655 S
N135 C133 1.279 . S
C136 C133 1.358 . S
C136 C137 1.356 . S
C136 H173 0.930 . S
C137 C134 1.348 1_655 S
C137 C136 1.356 . S
H138 C132 0.930 . S
H139 C133 0.930 . S
C140 N141 1.314 . S
C140 C142 1.353 . S
C140 H146 0.930 . S
N141 Li91 1.990 . S
N141 C140 1.314 . S
N141 C144 1.279 . S
C142 C140 1.353 . S
C142 C145 1.348 . S
C142 H174 0.929 . S
C143 C144 1.358 . S
C143 C145 1.356 . S
C143 H175 0.930 . S
C144 N141 1.279 . S
C144 C143 1.358 . S
C144 H147 0.930 . S
C145 C142 1.348 . S
C145 C143 1.356 . S
H146 C140 0.930 . S
H147 C144 0.930 . S
O148 Li88 1.956 . S
O148 Li89 1.970 . S
O148 Li90 1.961 1_455 S
O148 C92 1.325 . S
O149 Li88 1.970 . S
O149 Li89 1.956 . S
O149 Li91 1.961 1_455 S
O149 C98 1.325 . S
O150 Li88 1.961 1_655 S
O150 Li90 1.956 . S
O150 Li91 1.970 . S
O150 C120 1.325 . S
O151 Li89 1.930 1_655 S
O151 Li90 1.972 . S
O151 Li91 2.000 . S
O151 C126 1.323 . S
H152 C94 0.929 . S
H153 C95 0.930 . S
H154 C96 0.930 . S
H155 C97 0.930 . S
H156 C99 0.930 . S
H157 C101 0.929 . S
H158 C102 0.936 . S
H159 C103 0.930 . S
H160 C106 0.930 . S
H161 C109 0.929 . S
H162 C114 0.929 . S
H163 C115 0.930 . S
H164 C122 0.929 . S
H165 C123 0.930 . S
H166 C124 0.930 . S
H167 C125 0.930 . S
H168 C127 0.929 . S
H169 C128 0.930 . S
H170 C129 0.930 . S
H171 C130 0.942 . S
H172 C134 0.929 . S
H173 C136 0.930 . S
H174 C142 0.929 . S
H175 C143 0.930 . S
Li176 N193 1.990 . S
Li176 O236 1.956 . S
Li176 O237 1.970 . S
Li176 O238 1.961 . S
Li177 N201 1.990 . S
Li177 O236 1.970 . S
Li177 O237 1.956 . S
Li177 O239 1.961 . S
Li178 N223 1.990 . S
Li178 O236 1.961 . S
Li178 O238 1.956 . S
Li178 O239 1.970 . S
Li179 N229 1.990 . S
Li179 O237 1.961 . S
Li179 O238 1.970 . S
Li179 O239 1.956 . S
C180 C182 1.348 . S
C180 C183 1.356 . S
C180 O236 1.325 . S
N181 C184 1.314 . S
N181 C185 1.279 . S
C182 C180 1.348 . S
C182 C184 1.353 . S
C182 H240 0.929 . S
C183 C180 1.356 . S
C183 C185 1.358 . S
C183 H241 0.930 . S
C184 N181 1.314 . S
C184 C182 1.353 . S
C184 H242 0.930 . S
C185 N181 1.279 . S
C185 C183 1.358 . S
C185 H243 0.930 . S
C186 C189 1.348 . S
C186 C190 1.356 . S
C186 O237 1.325 . S
C187 N188 1.279 . S
C187 C190 1.358 . S
C187 H244 0.930 . S
N188 C187 1.279 . S
N188 C191 1.314 . S
C189 C186 1.348 . S
C189 C191 1.353 . S
C189 H245 0.929 . S
C190 C186 1.356 . S
C190 C187 1.358 . S
C190 H246 0.930 . S
C191 N188 1.314 . S
C191 C189 1.353 . S
C191 H247 0.930 . S
C192 N193 1.314 . S
C192 C197 1.353 . S
C192 H198 0.930 . S
N193 Li176 1.990 . S
N193 C192 1.314 . S
N193 C195 1.279 . S
C194 C195 1.358 . S
C194 C196 1.356 . S
C194 H248 0.930 . S
C195 N193 1.279 . S
C195 C194 1.358 . S
C195 H199 0.930 . S
C196 C194 1.356 . S
C196 C197 1.348 . S
C197 C192 1.353 . S
C197 C196 1.348 . S
C197 H249 0.929 . S
H198 C192 0.930 . S
H199 C195 0.930 . S
C200 N201 1.314 . S
C200 C202 1.353 . S
C200 H206 0.930 . S
N201 Li177 1.990 . S
N201 C200 1.314 . S
N201 C204 1.279 . S
C202 C200 1.353 . S
C202 C205 1.348 . S
C202 H250 0.929 . S
C203 C204 1.358 . S
C203 C205 1.356 . S
C203 H251 0.930 . S
C204 N201 1.279 . S
C204 C203 1.358 . S
C204 H207 0.930 . S
C205 C202 1.348 . S
C205 C203 1.356 . S
H206 C200 0.930 . S
H207 C204 0.930 . S
C208 C210 1.348 . S
C208 C211 1.356 . S
C208 O238 1.325 . S
N209 C212 1.314 . S
N209 C213 1.279 . S
C210 C208 1.348 . S
C210 C212 1.353 . S
C210 H252 0.929 . S
C211 C208 1.356 . S
C211 C213 1.358 . S
C211 H253 0.930 . S
C212 N209 1.314 . S
C212 C210 1.353 . S
C212 H254 0.930 . S
C213 N209 1.279 . S
C213 C211 1.358 . S
C213 H255 0.930 . S
C214 C215 1.348 . S
C214 C216 1.356 . S
C214 O239 1.325 . S
C215 C214 1.348 . S
C215 C217 1.353 . S
C215 H256 0.929 . S
C216 C214 1.356 . S
C216 C218 1.358 . S
C216 H257 0.930 . S
C217 C215 1.353 . S
C217 N219 1.314 . S
C217 H258 0.930 . S
C218 C216 1.358 . S
C218 N219 1.279 . S
C218 H259 0.930 . S
N219 C217 1.314 . S
N219 C218 1.279 . S
C220 C222 1.353 . S
C220 N223 1.314 . S
C220 H226 0.930 . S
C221 N223 1.279 . S
C221 C224 1.358 . S
C221 H227 0.930 . S
C222 C220 1.353 . S
C222 C225 1.348 . S
C222 H260 0.929 . S
N223 Li178 1.990 . S
N223 C220 1.314 . S
N223 C221 1.279 . S
C224 C221 1.358 . S
C224 C225 1.356 . S
C224 H261 0.930 . S
C225 C222 1.348 . S
C225 C224 1.356 . S
H226 C220 0.930 . S
H227 C221 0.930 . S
C228 N229 1.314 . S
C228 C230 1.353 . S
C228 H234 0.930 . S
N229 Li179 1.990 . S
N229 C228 1.314 . S
N229 C232 1.279 . S
C230 C228 1.353 . S
C230 C233 1.348 . S
C230 H262 0.929 . S
C231 C232 1.358 . S
C231 C233 1.356 . S
C231 H263 0.930 . S
C232 N229 1.279 . S
C232 C231 1.358 . S
C232 H235 0.930 . S
C233 C230 1.348 . S
C233 C231 1.356 . S
H234 C228 0.930 . S
H235 C232 0.930 . S
O236 Li176 1.956 . S
O236 Li177 1.970 . S
O236 Li178 1.961 . S
O236 C180 1.325 . S
O237 Li176 1.970 . S
O237 Li177 1.956 . S
O237 Li179 1.961 . S
O237 C186 1.325 . S
O238 Li176 1.961 . S
O238 Li178 1.956 . S
O238 Li179 1.970 . S
O238 C208 1.325 . S
O239 Li177 1.961 . S
O239 Li178 1.970 . S
O239 Li179 1.956 . S
O239 C214 1.325 . S
H240 C182 0.929 . S
H241 C183 0.930 . S
H242 C184 0.930 . S
H243 C185 0.930 . S
H244 C187 0.930 . S
H245 C189 0.929 . S
H246 C190 0.930 . S
H247 C191 0.930 . S
H248 C194 0.930 . S
H249 C197 0.929 . S
H250 C202 0.929 . S
H251 C203 0.930 . S
H252 C210 0.929 . S
H253 C211 0.930 . S
H254 C212 0.930 . S
H255 C213 0.930 . S
H256 C215 0.929 . S
H257 C216 0.930 . S
H258 C217 0.930 . S
H259 C218 0.930 . S
H260 C222 0.929 . S
H261 C224 0.930 . S
H262 C230 0.929 . S
H263 C231 0.930 . S
Li264 N281 1.990 . S
Li264 O324 1.956 . S
Li264 O325 1.970 . S
Li264 O326 1.961 . S
Li265 N289 1.990 . S
Li265 O324 1.970 . S
Li265 O325 1.956 . S
Li265 O327 1.961 . S
Li266 N311 1.990 . S
Li266 O324 1.961 . S
Li266 O326 1.956 . S
Li266 O327 1.970 . S
Li267 N317 1.990 . S
Li267 O325 1.961 . S
Li267 O326 1.970 . S
Li267 O327 1.956 . S
C268 C270 1.348 . S
C268 C271 1.356 . S
C268 O324 1.325 . S
N269 C272 1.314 . S
N269 C273 1.279 . S
C270 C268 1.348 . S
C270 C272 1.353 . S
C270 H328 0.929 . S
C271 C268 1.356 . S
C271 C273 1.358 . S
C271 H329 0.930 . S
C272 N269 1.314 . S
C272 C270 1.353 . S
C272 H330 0.930 . S
C273 N269 1.279 . S
C273 C271 1.358 . S
C273 H331 0.930 . S
C274 C277 1.348 . S
C274 C278 1.356 . S
C274 O325 1.325 . S
C275 N276 1.279 . S
C275 C278 1.358 . S
C275 H332 0.930 . S
N276 C275 1.279 . S
N276 C279 1.314 . S
C277 C274 1.348 . S
C277 C279 1.353 . S
C277 H333 0.929 . S
C278 C274 1.356 . S
C278 C275 1.358 . S
C278 H334 0.930 . S
C279 N276 1.314 . S
C279 C277 1.353 . S
C279 H335 0.930 . S
C280 N281 1.314 . S
C280 C285 1.353 . S
C280 H286 0.930 . S
N281 Li264 1.990 . S
N281 C280 1.314 . S
N281 C283 1.279 . S
C282 C283 1.358 . S
C282 C284 1.356 . S
C282 H336 0.930 . S
C283 N281 1.279 . S
C283 C282 1.358 . S
C283 H287 0.930 . S
C284 C282 1.356 . S
C284 C285 1.348 . S
C285 C280 1.353 . S
C285 C284 1.348 . S
C285 H337 0.929 . S
H286 C280 0.930 . S
H287 C283 0.930 . S
C288 N289 1.314 . S
C288 C290 1.353 . S
C288 H294 0.930 . S
N289 Li265 1.990 . S
N289 C288 1.314 . S
N289 C292 1.279 . S
C290 C288 1.353 . S
C290 C293 1.348 . S
C290 H338 0.929 . S
C291 C292 1.358 . S
C291 C293 1.356 . S
C291 H339 0.930 . S
C292 N289 1.279 . S
C292 C291 1.358 . S
C292 H295 0.930 . S
C293 C290 1.348 . S
C293 C291 1.356 . S
H294 C288 0.930 . S
H295 C292 0.930 . S
C296 C298 1.348 . S
C296 C299 1.356 . S
C296 O326 1.325 . S
N297 C300 1.314 . S
N297 C301 1.279 . S
C298 C296 1.348 . S
C298 C300 1.353 . S
C298 H340 0.929 . S
C299 C296 1.356 . S
C299 C301 1.358 . S
C299 H341 0.930 . S
C300 N297 1.314 . S
C300 C298 1.353 . S
C300 H342 0.930 . S
C301 N297 1.279 . S
C301 C299 1.358 . S
C301 H343 0.930 . S
C302 C303 1.348 . S
C302 C304 1.356 . S
C302 O327 1.325 . S
C303 C302 1.348 . S
C303 C305 1.353 . S
C303 H344 0.929 . S
C304 C302 1.356 . S
C304 C306 1.358 . S
C304 H345 0.930 . S
C305 C303 1.353 . S
C305 N307 1.314 . S
C305 H346 0.930 . S
C306 C304 1.358 . S
C306 N307 1.279 . S
C306 H347 0.930 . S
N307 C305 1.314 . S
N307 C306 1.279 . S
C308 C310 1.353 . S
C308 N311 1.314 . S
C308 H314 0.930 . S
C309 N311 1.279 . S
C309 C312 1.358 . S
C309 H315 0.930 . S
C310 C308 1.353 . S
C310 C313 1.348 . S
C310 H348 0.929 . S
N311 Li266 1.990 . S
N311 C308 1.314 . S
N311 C309 1.279 . S
C312 C309 1.358 . S
C312 C313 1.356 . S
C312 H349 0.930 . S
C313 C310 1.348 . S
C313 C312 1.356 . S
H314 C308 0.930 . S
H315 C309 0.930 . S
C316 N317 1.314 . S
C316 C318 1.353 . S
C316 H322 0.930 . S
N317 Li267 1.990 . S
N317 C316 1.314 . S
N317 C320 1.279 . S
C318 C316 1.353 . S
C318 C321 1.348 . S
C318 H350 0.929 . S
C319 C320 1.358 . S
C319 C321 1.356 . S
C319 H351 0.930 . S
C320 N317 1.279 . S
C320 C319 1.358 . S
C320 H323 0.930 . S
C321 C318 1.348 . S
C321 C319 1.356 . S
H322 C316 0.930 . S
H323 C320 0.930 . S
O324 Li264 1.956 . S
O324 Li265 1.970 . S
O324 Li266 1.961 . S
O324 C268 1.325 . S
O325 Li264 1.970 . S
O325 Li265 1.956 . S
O325 Li267 1.961 . S
O325 C274 1.325 . S
O326 Li264 1.961 . S
O326 Li266 1.956 . S
O326 Li267 1.970 . S
O326 C296 1.325 . S
O327 Li265 1.961 . S
O327 Li266 1.970 . S
O327 Li267 1.956 . S
O327 C302 1.325 . S
H328 C270 0.929 . S
H329 C271 0.930 . S
H330 C272 0.930 . S
H331 C273 0.930 . S
H332 C275 0.930 . S
H333 C277 0.929 . S
H334 C278 0.930 . S
H335 C279 0.930 . S
H336 C282 0.930 . S
H337 C285 0.929 . S
H338 C290 0.929 . S
H339 C291 0.930 . S
H340 C298 0.929 . S
H341 C299 0.930 . S
H342 C300 0.930 . S
H343 C301 0.930 . S
H344 C303 0.929 . S
H345 C304 0.930 . S
H346 C305 0.930 . S
H347 C306 0.930 . S
H348 C310 0.929 . S
H349 C312 0.930 . S
H350 C318 0.929 . S
H351 C319 0.930 . S
Li352 N369 1.990 . S
Li352 O412 1.956 . S
Li352 O413 1.970 . S
Li352 O414 1.961 . S
Li353 N377 1.990 . S
Li353 O412 1.970 . S
Li353 O413 1.956 . S
Li353 O415 1.961 . S
Li354 N399 1.990 . S
Li354 O412 1.961 . S
Li354 O414 1.956 . S
Li354 O415 1.970 . S
Li355 N405 1.990 . S
Li355 O413 1.961 . S
Li355 O414 1.970 . S
Li355 O415 1.956 . S
C356 C358 1.348 . S
C356 C359 1.356 . S
C356 O412 1.325 . S
N357 C360 1.314 . S
N357 C361 1.279 . S
C358 C356 1.348 . S
C358 C360 1.353 . S
C358 H416 0.929 . S
C359 C356 1.356 . S
C359 C361 1.358 . S
C359 H417 0.930 . S
C360 N357 1.314 . S
C360 C358 1.353 . S
C360 H418 0.930 . S
C361 N357 1.279 . S
C361 C359 1.358 . S
C361 H419 0.930 . S
C362 C365 1.348 . S
C362 C366 1.356 . S
C362 O413 1.325 . S
C363 N364 1.279 . S
C363 C366 1.358 . S
C363 H420 0.930 . S
N364 C363 1.279 . S
N364 C367 1.314 . S
C365 C362 1.348 . S
C365 C367 1.353 . S
C365 H421 0.929 . S
C366 C362 1.356 . S
C366 C363 1.358 . S
C366 H422 0.930 . S
C367 N364 1.314 . S
C367 C365 1.353 . S
C367 H423 0.930 . S
C368 N369 1.314 . S
C368 C373 1.353 . S
C368 H374 0.930 . S
N369 Li352 1.990 . S
N369 C368 1.314 . S
N369 C371 1.279 . S
C370 C371 1.358 . S
C370 C372 1.356 . S
C370 H424 0.930 . S
C371 N369 1.279 . S
C371 C370 1.358 . S
C371 H375 0.930 . S
C372 C370 1.356 . S
C372 C373 1.348 . S
C373 C368 1.353 . S
C373 C372 1.348 . S
C373 H425 0.929 . S
H374 C368 0.930 . S
H375 C371 0.930 . S
C376 N377 1.314 . S
C376 C378 1.353 . S
C376 H382 0.930 . S
N377 Li353 1.990 . S
N377 C376 1.314 . S
N377 C380 1.279 . S
C378 C376 1.353 . S
C378 C381 1.348 . S
C378 H426 0.929 . S
C379 C380 1.358 . S
C379 C381 1.356 . S
C379 H427 0.930 . S
C380 N377 1.279 . S
C380 C379 1.358 . S
C380 H383 0.930 . S
C381 C378 1.348 . S
C381 C379 1.356 . S
H382 C376 0.930 . S
H383 C380 0.930 . S
C384 C386 1.348 . S
C384 C387 1.356 . S
C384 O414 1.325 . S
N385 C388 1.314 . S
N385 C389 1.279 1_655 S
C386 C384 1.348 . S
C386 C388 1.353 1_455 S
C386 H428 0.929 . S
C387 C384 1.356 . S
C387 C389 1.358 . S
C387 H429 0.930 . S
C388 N385 1.314 . S
C388 C386 1.353 1_655 S
C388 H430 0.930 . S
C389 N385 1.279 1_455 S
C389 C387 1.358 . S
C389 H431 0.930 . S
C390 C391 1.348 . S
C390 C392 1.356 . S
C390 O415 1.325 . S
C391 C390 1.348 . S
C391 C393 1.353 . S
C391 H432 0.929 . S
C392 C390 1.356 . S
C392 C394 1.358 . S
C392 H433 0.930 . S
C393 C391 1.353 . S
C393 N395 1.314 . S
C393 H434 0.930 . S
C394 C392 1.358 . S
C394 N395 1.279 . S
C394 H435 0.930 . S
N395 C393 1.314 . S
N395 C394 1.279 . S
C396 C398 1.353 . S
C396 N399 1.314 . S
C396 H402 0.930 . S
C397 N399 1.279 . S
C397 C400 1.358 . S
C397 H403 0.930 . S
C398 C396 1.353 . S
C398 C401 1.348 . S
C398 H436 0.929 . S
N399 Li354 1.990 . S
N399 C396 1.314 . S
N399 C397 1.279 . S
C400 C397 1.358 . S
C400 C401 1.356 . S
C400 H437 0.930 . S
C401 C398 1.348 . S
C401 C400 1.356 . S
H402 C396 0.930 . S
H403 C397 0.930 . S
C404 N405 1.314 . S
C404 C406 1.353 . S
C404 H410 0.930 . S
N405 Li355 1.990 . S
N405 C404 1.314 . S
N405 C408 1.279 . S
C406 C404 1.353 . S
C406 C409 1.348 1_455 S
C406 H438 0.958 . S
C407 C408 1.358 . S
C407 C409 1.356 1_455 S
C407 H439 0.930 . S
C408 N405 1.279 . S
C408 C407 1.358 . S
C408 H411 0.930 . S
C409 C406 1.348 1_655 S
C409 C407 1.356 1_655 S
H410 C404 0.930 . S
H411 C408 0.930 . S
O412 Li352 1.956 . S
O412 Li353 1.970 . S
O412 Li354 1.961 . S
O412 C356 1.325 . S
O413 Li352 1.970 . S
O413 Li353 1.956 . S
O413 Li355 1.961 . S
O413 C362 1.325 . S
O414 Li352 1.961 . S
O414 Li354 1.956 . S
O414 Li355 1.970 . S
O414 C384 1.325 . S
O415 Li353 1.961 . S
O415 Li354 1.970 . S
O415 Li355 1.956 . S
O415 C390 1.325 . S
H416 C358 0.929 . S
H417 C359 0.930 . S
H418 C360 0.930 . S
H419 C361 0.930 . S
H420 C363 0.930 . S
H421 C365 0.929 . S
H422 C366 0.930 . S
H423 C367 0.930 . S
H424 C370 0.930 . S
H425 C373 0.929 . S
H426 C378 0.929 . S
H427 C379 0.930 . S
H428 C386 0.929 . S
H429 C387 0.930 . S
H430 C388 0.930 . S
H431 C389 0.930 . S
H432 C391 0.929 . S
H433 C392 0.930 . S
H434 C393 0.930 . S
H435 C394 0.930 . S
H436 C398 0.929 . S
H437 C400 0.930 . S
H438 C406 0.958 . S
H439 C407 0.930 . S
Li440 N457 1.990 . S
Li440 O500 1.956 . S
Li440 O501 1.970 . S
Li440 O502 1.961 . S
Li441 N465 1.990 . S
Li441 O500 1.970 . S
Li441 O501 1.956 . S
Li441 O503 1.961 . S
Li442 N487 1.990 . S
Li442 O500 1.961 . S
Li442 O502 1.956 . S
Li442 O503 1.970 . S
Li443 N493 1.990 . S
Li443 O501 1.961 . S
Li443 O502 1.970 . S
Li443 O503 1.956 . S
C444 C446 1.348 . S
C444 C447 1.356 . S
C444 O500 1.325 . S
N445 C448 1.314 . S
N445 C449 1.279 . S
C446 C444 1.348 . S
C446 C448 1.353 . S
C446 H504 0.929 . S
C447 C444 1.356 . S
C447 C449 1.358 . S
C447 H505 0.930 . S
C448 N445 1.314 . S
C448 C446 1.353 . S
C448 H506 0.930 . S
C449 N445 1.279 . S
C449 C447 1.358 . S
C449 H507 0.930 . S
C450 C453 1.348 . S
C450 C454 1.356 . S
C450 O501 1.325 . S
C451 N452 1.279 . S
C451 C454 1.358 . S
C451 H508 0.930 . S
N452 C451 1.279 . S
N452 C455 1.314 . S
C453 C450 1.348 . S
C453 C455 1.353 . S
C453 H509 0.929 . S
C454 C450 1.356 . S
C454 C451 1.358 . S
C454 H510 0.930 . S
C455 N452 1.314 . S
C455 C453 1.353 . S
C455 H511 0.930 . S
C456 N457 1.314 . S
C456 C461 1.353 . S
C456 H462 0.930 . S
N457 Li440 1.990 . S
N457 C456 1.314 . S
N457 C459 1.279 . S
C458 C459 1.358 . S
C458 C460 1.356 . S
C458 H512 0.930 . S
C459 N457 1.279 . S
C459 C458 1.358 . S
C459 H463 0.930 . S
C460 C458 1.356 . S
C460 C461 1.348 . S
C461 C456 1.353 . S
C461 C460 1.348 . S
C461 H513 0.929 . S
H462 C456 0.930 . S
H463 C459 0.930 . S
C464 N465 1.314 . S
C464 C466 1.353 . S
C464 H470 0.930 . S
N465 Li441 1.990 . S
N465 C464 1.314 . S
N465 C468 1.279 . S
C466 C464 1.353 . S
C466 C469 1.348 . S
C466 H514 0.929 . S
C467 C468 1.358 . S
C467 C469 1.356 . S
C467 H515 0.930 . S
C468 N465 1.279 . S
C468 C467 1.358 . S
C468 H471 0.930 . S
C469 C466 1.348 . S
C469 C467 1.356 . S
H470 C464 0.930 . S
H471 C468 0.930 . S
C472 C474 1.348 . S
C472 C475 1.356 . S
C472 O502 1.325 . S
N473 C476 1.314 . S
N473 C477 1.279 . S
C474 C472 1.348 . S
C474 C476 1.353 . S
C474 H516 0.929 . S
C475 C472 1.356 . S
C475 C477 1.358 . S
C475 H517 0.930 . S
C476 N473 1.314 . S
C476 C474 1.353 . S
C476 H518 0.930 . S
C477 N473 1.279 . S
C477 C475 1.358 . S
C477 H519 0.930 . S
C478 C479 1.348 . S
C478 C480 1.356 . S
C478 O503 1.325 . S
C479 C478 1.348 . S
C479 C481 1.353 . S
C479 H520 0.929 . S
C480 C478 1.356 . S
C480 C482 1.358 . S
C480 H521 0.930 . S
C481 C479 1.353 . S
C481 N483 1.314 . S
C481 H522 0.930 . S
C482 C480 1.358 . S
C482 N483 1.279 . S
C482 H523 0.930 . S
N483 C481 1.314 . S
N483 C482 1.279 . S
C484 C486 1.353 . S
C484 N487 1.314 . S
C484 H490 0.930 . S
C485 N487 1.279 . S
C485 C488 1.358 . S
C485 H491 0.930 . S
C486 C484 1.353 . S
C486 C489 1.348 . S
C486 H524 0.929 . S
N487 Li442 1.990 . S
N487 C484 1.314 . S
N487 C485 1.279 . S
C488 C485 1.358 . S
C488 C489 1.356 . S
C488 H525 0.930 . S
C489 C486 1.348 . S
C489 C488 1.356 . S
H490 C484 0.930 . S
H491 C485 0.930 . S
C492 N493 1.314 . S
C492 C494 1.353 . S
C492 H498 0.930 . S
N493 Li443 1.990 . S
N493 C492 1.314 . S
N493 C496 1.279 . S
C494 C492 1.353 . S
C494 C497 1.348 . S
C494 H526 0.929 . S
C495 C496 1.358 . S
C495 C497 1.356 . S
C495 H527 0.930 . S
C496 N493 1.279 . S
C496 C495 1.358 . S
C496 H499 0.930 . S
C497 C494 1.348 . S
C497 C495 1.356 . S
H498 C492 0.930 . S
H499 C496 0.930 . S
O500 Li440 1.956 . S
O500 Li441 1.970 . S
O500 Li442 1.961 . S
O500 C444 1.325 . S
O501 Li440 1.970 . S
O501 Li441 1.956 . S
O501 Li443 1.961 . S
O501 C450 1.325 . S
O502 Li440 1.961 . S
O502 Li442 1.956 . S
O502 Li443 1.970 . S
O502 C472 1.325 . S
O503 Li441 1.961 . S
O503 Li442 1.970 . S
O503 Li443 1.956 . S
O503 C478 1.325 . S
H504 C446 0.929 . S
H505 C447 0.930 . S
H506 C448 0.930 . S
H507 C449 0.930 . S
H508 C451 0.930 . S
H509 C453 0.929 . S
H510 C454 0.930 . S
H511 C455 0.930 . S
H512 C458 0.930 . S
H513 C461 0.929 . S
H514 C466 0.929 . S
H515 C467 0.930 . S
H516 C474 0.929 . S
H517 C475 0.930 . S
H518 C476 0.930 . S
H519 C477 0.930 . S
H520 C479 0.929 . S
H521 C480 0.930 . S
H522 C481 0.930 . S
H523 C482 0.930 . S
H524 C486 0.929 . S
H525 C488 0.930 . S
H526 C494 0.929 . S
H527 C495 0.930 . S
Li528 N545 1.990 . S
Li528 O588 1.956 . S
Li528 O589 1.970 . S
Li528 O590 1.961 . S
Li529 N553 1.990 . S
Li529 O588 1.970 . S
Li529 O589 1.956 . S
Li529 O591 1.961 . S
Li530 N575 1.990 . S
Li530 O588 1.961 . S
Li530 O590 1.956 . S
Li530 O591 1.970 . S
Li531 N581 1.990 . S
Li531 O589 1.961 . S
Li531 O590 1.970 . S
Li531 O591 1.956 . S
C532 C534 1.348 . S
C532 C535 1.356 . S
C532 O588 1.325 . S
N533 C536 1.314 . S
N533 C537 1.279 . S
C534 C532 1.348 . S
C534 C536 1.353 . S
C534 H592 0.929 . S
C535 C532 1.356 . S
C535 C537 1.358 . S
C535 H593 0.930 . S
C536 N533 1.314 . S
C536 C534 1.353 . S
C536 H594 0.930 . S
C537 N533 1.279 . S
C537 C535 1.358 . S
C537 H595 0.930 . S
C538 C541 1.348 . S
C538 C542 1.356 . S
C538 O589 1.325 . S
C539 N540 1.279 . S
C539 C542 1.358 . S
C539 H596 0.930 . S
N540 C539 1.279 . S
N540 C543 1.314 . S
C541 C538 1.348 . S
C541 C543 1.353 . S
C541 H597 0.929 . S
C542 C538 1.356 . S
C542 C539 1.358 . S
C542 H598 0.930 . S
C543 N540 1.314 . S
C543 C541 1.353 . S
C543 H599 0.930 . S
C544 N545 1.314 . S
C544 C549 1.353 . S
C544 H550 0.930 . S
N545 Li528 1.990 . S
N545 C544 1.314 . S
N545 C547 1.279 . S
C546 C547 1.358 . S
C546 C548 1.356 . S
C546 H600 0.930 . S
C547 N545 1.279 . S
C547 C546 1.358 . S
C547 H551 0.930 . S
C548 C546 1.356 . S
C548 C549 1.348 . S
C549 C544 1.353 . S
C549 C548 1.348 . S
C549 H601 0.929 . S
H550 C544 0.930 . S
H551 C547 0.930 . S
C552 N553 1.314 . S
C552 C554 1.353 . S
C552 H558 0.930 . S
N553 Li529 1.990 . S
N553 C552 1.314 . S
N553 C556 1.279 . S
C554 C552 1.353 . S
C554 C557 1.348 . S
C554 H602 0.929 . S
C555 C556 1.358 . S
C555 C557 1.356 . S
C555 H603 0.930 . S
C556 N553 1.279 . S
C556 C555 1.358 . S
C556 H559 0.930 . S
C557 C554 1.348 . S
C557 C555 1.356 . S
H558 C552 0.930 . S
H559 C556 0.930 . S
C560 C562 1.348 . S
C560 C563 1.356 . S
C560 O590 1.325 . S
N561 C564 1.314 . S
N561 C565 1.279 . S
C562 C560 1.348 . S
C562 C564 1.353 . S
C562 H604 0.929 . S
C563 C560 1.356 . S
C563 C565 1.358 . S
C563 H605 0.930 . S
C564 N561 1.314 . S
C564 C562 1.353 . S
C564 H606 0.930 . S
C565 N561 1.279 . S
C565 C563 1.358 . S
C565 H607 0.930 . S
C566 C567 1.348 . S
C566 C568 1.356 . S
C566 O591 1.325 . S
C567 C566 1.348 . S
C567 C569 1.353 . S
C567 H608 0.929 . S
C568 C566 1.356 . S
C568 C570 1.358 . S
C568 H609 0.930 . S
C569 C567 1.353 . S
C569 N571 1.314 . S
C569 H610 0.930 . S
C570 C568 1.358 . S
C570 N571 1.279 . S
C570 H611 0.930 . S
N571 C569 1.314 . S
N571 C570 1.279 . S
C572 C574 1.353 . S
C572 N575 1.314 . S
C572 H578 0.930 . S
C573 N575 1.279 . S
C573 C576 1.358 . S
C573 H579 0.930 . S
C574 C572 1.353 . S
C574 C577 1.348 . S
C574 H612 0.929 . S
N575 Li530 1.990 . S
N575 C572 1.314 . S
N575 C573 1.279 . S
C576 C573 1.358 . S
C576 C577 1.356 . S
C576 H613 0.930 . S
C577 C574 1.348 . S
C577 C576 1.356 . S
H578 C572 0.930 . S
H579 C573 0.930 . S
C580 N581 1.314 . S
C580 C582 1.353 . S
C580 H586 0.930 . S
N581 Li531 1.990 . S
N581 C580 1.314 . S
N581 C584 1.279 . S
C582 C580 1.353 . S
C582 C585 1.348 . S
C582 H614 0.929 . S
C583 C584 1.358 . S
C583 C585 1.356 . S
C583 H615 0.930 . S
C584 N581 1.279 . S
C584 C583 1.358 . S
C584 H587 0.930 . S
C585 C582 1.348 . S
C585 C583 1.356 . S
H586 C580 0.930 . S
H587 C584 0.930 . S
O588 Li528 1.956 . S
O588 Li529 1.970 . S
O588 Li530 1.961 . S
O588 C532 1.325 . S
O589 Li528 1.970 . S
O589 Li529 1.956 . S
O589 Li531 1.961 . S
O589 C538 1.325 . S
O590 Li528 1.961 . S
O590 Li530 1.956 . S
O590 Li531 1.970 . S
O590 C560 1.325 . S
O591 Li529 1.961 . S
O591 Li530 1.970 . S
O591 Li531 1.956 . S
O591 C566 1.325 . S
H592 C534 0.929 . S
H593 C535 0.930 . S
H594 C536 0.930 . S
H595 C537 0.930 . S
H596 C539 0.930 . S
H597 C541 0.929 . S
H598 C542 0.930 . S
H599 C543 0.930 . S
H600 C546 0.930 . S
H601 C549 0.929 . S
H602 C554 0.929 . S
H603 C555 0.930 . S
H604 C562 0.929 . S
H605 C563 0.930 . S
H606 C564 0.930 . S
H607 C565 0.930 . S
H608 C567 0.929 . S
H609 C568 0.930 . S
H610 C569 0.930 . S
H611 C570 0.930 . S
H612 C574 0.929 . S
H613 C576 0.930 . S
H614 C582 0.929 . S
H615 C583 0.930 . S
Li616 N633 1.990 . S
Li616 O676 1.956 1_455 S
Li616 O677 1.970 . S
Li616 O678 1.961 . S
Li617 N641 1.990 . S
Li617 O676 1.970 . S
Li617 O677 1.956 1_655 S
Li617 O679 1.961 1_655 S
Li618 N663 1.990 . S
Li618 O676 1.961 1_455 S
Li618 O678 1.956 . S
Li618 O679 1.970 . S
Li619 N669 1.990 . S
Li619 O677 1.961 . S
Li619 O678 1.970 . S
Li619 O679 1.956 . S
C620 C622 1.348 . S
C620 C623 1.356 . S
C620 O676 1.325 . S
N621 C624 1.314 . S
N621 C625 1.279 . S
C622 C620 1.348 . S
C622 C624 1.353 . S
C622 H680 0.929 . S
C623 C620 1.356 . S
C623 C625 1.358 . S
C623 H681 0.930 . S
C624 N621 1.314 . S
C624 C622 1.353 . S
C624 H682 0.930 . S
C625 N621 1.279 . S
C625 C623 1.358 . S
C625 H683 0.930 . S
C626 C629 1.348 . S
C626 C630 1.356 . S
C626 O677 1.325 . S
C627 N628 1.279 . S
C627 C630 1.358 . S
C627 H684 0.930 . S
N628 C627 1.279 . S
N628 C631 1.314 . S
C629 C626 1.348 . S
C629 C631 1.353 . S
C629 H685 0.929 . S
C630 C626 1.356 . S
C630 C627 1.358 . S
C630 H686 0.930 . S
C631 N628 1.314 . S
C631 C629 1.353 . S
C631 H687 0.930 . S
C632 N633 1.314 . S
C632 C637 1.353 . S
C632 H638 0.930 . S
N633 Li616 1.990 . S
N633 C632 1.314 . S
N633 C635 1.279 . S
C634 C635 1.358 . S
C634 C636 1.356 . S
C634 H688 0.930 . S
C635 N633 1.279 . S
C635 C634 1.358 . S
C635 H639 0.930 1_455 S
C636 C634 1.356 . S
C636 C637 1.348 . S
C637 C632 1.353 . S
C637 C636 1.348 . S
C637 H689 0.929 . S
H638 C632 0.930 . S
H639 C635 0.930 1_655 S
C640 N641 1.314 . S
C640 C642 1.353 . S
C640 H646 0.930 . S
N641 Li617 1.990 . S
N641 C640 1.314 . S
N641 C644 1.279 . S
C642 C640 1.353 . S
C642 C645 1.348 . S
C642 H690 0.929 . S
C643 C644 1.358 . S
C643 C645 1.356 . S
C643 H691 0.930 . S
C644 N641 1.279 . S
C644 C643 1.358 . S
C644 H647 0.930 . S
C645 C642 1.348 . S
C645 C643 1.356 . S
H646 C640 0.930 . S
H647 C644 0.930 . S
C648 C650 1.348 . S
C648 C651 1.356 . S
C648 O678 1.325 . S
N649 C652 1.314 . S
N649 C653 1.279 . S
C650 C648 1.348 . S
C650 C652 1.353 . S
C650 H692 0.929 . S
C651 C648 1.356 . S
C651 C653 1.358 . S
C651 H693 0.930 . S
C652 N649 1.314 . S
C652 C650 1.353 . S
C652 H694 0.930 . S
C653 N649 1.279 . S
C653 C651 1.358 . S
C653 H695 0.930 . S
C654 C655 1.348 . S
C654 C656 1.356 . S
C654 O679 1.325 . S
C655 C654 1.348 . S
C655 C657 1.353 . S
C655 H696 0.929 . S
C656 C654 1.356 . S
C656 C658 1.358 . S
C656 H697 0.930 . S
C657 C655 1.353 . S
C657 N659 1.314 . S
C657 H698 0.930 . S
C658 C656 1.358 . S
C658 N659 1.279 . S
C658 H699 0.930 1_455 S
N659 C657 1.314 . S
N659 C658 1.279 . S
C660 C662 1.353 . S
C660 N663 1.314 1_655 S
C660 H666 0.930 . S
C661 N663 1.279 . S
C661 C664 1.358 . S
C661 H667 0.930 . S
C662 C660 1.353 . S
C662 C665 1.348 1_655 S
C662 H700 0.929 . S
N663 Li618 1.990 . S
N663 C660 1.314 1_455 S
N663 C661 1.279 . S
C664 C661 1.358 . S
C664 C665 1.356 . S
C664 H701 0.930 . S
C665 C662 1.348 1_455 S
C665 C664 1.356 . S
H666 C660 0.930 . S
H667 C661 0.930 . S
C668 N669 1.314 . S
C668 C670 1.353 . S
C668 H674 0.930 . S
N669 Li619 1.990 . S
N669 C668 1.314 . S
N669 C672 1.279 . S
C670 C668 1.353 . S
C670 C673 1.348 . S
C670 H702 0.929 . S
C671 C672 1.358 . S
C671 C673 1.356 . S
C671 H703 0.930 . S
C672 N669 1.279 . S
C672 C671 1.358 . S
C672 H675 0.930 . S
C673 C670 1.348 . S
C673 C671 1.356 . S
H674 C668 0.930 . S
H675 C672 0.930 . S
O676 Li616 1.956 1_655 S
O676 Li617 1.970 . S
O676 Li618 1.961 1_655 S
O676 C620 1.325 . S
O677 Li616 1.970 . S
O677 Li617 1.956 1_455 S
O677 Li619 1.961 . S
O677 C626 1.325 . S
O678 Li616 1.961 . S
O678 Li618 1.956 . S
O678 Li619 1.970 . S
O678 C648 1.325 . S
O679 Li617 1.961 1_455 S
O679 Li618 1.970 . S
O679 Li619 1.956 . S
O679 C654 1.325 . S
H680 C622 0.929 . S
H681 C623 0.930 . S
H682 C624 0.930 . S
H683 C625 0.930 . S
H684 C627 0.930 . S
H685 C629 0.929 . S
H686 C630 0.930 . S
H687 C631 0.930 . S
H688 C634 0.930 . S
H689 C637 0.929 . S
H690 C642 0.929 . S
H691 C643 0.930 . S
H692 C650 0.929 . S
H693 C651 0.930 . S
H694 C652 0.930 . S
H695 C653 0.930 . S
H696 C655 0.929 . S
H697 C656 0.930 . S
H698 C657 0.930 . S
H699 C658 0.930 1_655 S
H700 C662 0.929 . S
H701 C664 0.930 . S
H702 C670 0.929 . S
H703 C671 0.930 . S
Li704 N721 1.990 . S
Li704 O764 1.956 1_545 S
Li704 O765 1.970 . S
Li704 O766 1.961 . S
Li705 N729 1.990 . S
Li705 O764 1.970 . S
Li705 O765 1.956 1_565 S
Li705 O767 1.961 1_565 S
Li706 N751 1.990 . S
Li706 O764 1.961 1_545 S
Li706 O766 1.956 . S
Li706 O767 1.970 . S
Li707 N757 1.990 . S
Li707 O765 1.961 . S
Li707 O766 1.970 . S
Li707 O767 1.956 . S
C708 C710 1.348 . S
C708 C711 1.356 . S
C708 O764 1.325 . S
N709 C712 1.314 . S
N709 C713 1.279 . S
C710 C708 1.348 . S
C710 C712 1.353 . S
C710 H768 0.929 . S
C711 C708 1.356 . S
C711 C713 1.358 . S
C711 H769 0.930 . S
C712 N709 1.314 . S
C712 C710 1.353 . S
C712 H770 0.930 . S
C713 N709 1.279 . S
C713 C711 1.358 . S
C713 H771 0.930 . S
C714 C717 1.348 . S
C714 C718 1.356 . S
C714 O765 1.325 . S
C715 N716 1.279 . S
C715 C718 1.358 . S
C715 H772 0.930 . S
N716 C715 1.279 . S
N716 C719 1.314 . S
C717 C714 1.348 . S
C717 C719 1.353 . S
C717 H773 0.945 . S
C718 C714 1.356 . S
C718 C715 1.358 . S
C718 H774 0.930 . S
C719 N716 1.314 . S
C719 C717 1.353 . S
C719 H775 0.936 . S
C720 N721 1.314 . S
C720 C725 1.353 . S
C720 H726 0.930 . S
N721 Li704 1.990 . S
N721 C720 1.314 . S
N721 C723 1.279 . S
C722 C723 1.358 . S
C722 C724 1.356 . S
C722 H776 0.930 1_545 S
C723 N721 1.279 . S
C723 C722 1.358 . S
C723 H727 0.930 1_545 S
C724 C722 1.356 . S
C724 C725 1.348 . S
C725 C720 1.353 . S
C725 C724 1.348 . S
C725 H777 0.929 . S
H726 C720 0.930 . S
H727 C723 0.930 1_565 S
C728 N729 1.314 . S
C728 C730 1.353 . S
C728 H734 0.930 . S
N729 Li705 1.990 . S
N729 C728 1.314 . S
N729 C732 1.279 . S
C730 C728 1.353 . S
C730 C733 1.348 . S
C730 H778 0.929 . S
C731 C732 1.358 . S
C731 C733 1.356 . S
C731 H779 0.930 . S
C732 N729 1.279 . S
C732 C731 1.358 . S
C732 H735 0.930 . S
C733 C730 1.348 . S
C733 C731 1.356 . S
H734 C728 0.930 . S
H735 C732 0.930 . S
C736 C738 1.348 . S
C736 C739 1.356 . S
C736 O766 1.325 . S
N737 C740 1.314 . S
N737 C741 1.279 . S
C738 C736 1.348 . S
C738 C740 1.353 . S
C738 H780 0.929 . S
C739 C736 1.356 . S
C739 C741 1.358 . S
C739 H781 0.930 . S
C740 N737 1.314 . S
C740 C738 1.353 . S
C740 H782 0.930 . S
C741 N737 1.279 . S
C741 C739 1.358 . S
C741 H783 0.930 . S
C742 C743 1.348 1_565 S
C742 C744 1.356 . S
C742 O767 1.325 1_565 S
C743 C742 1.348 1_545 S
C743 C745 1.353 . S
C743 H784 0.929 . S
C744 C742 1.356 . S
C744 C746 1.358 . S
C744 H785 0.930 . S
C745 C743 1.353 . S
C745 N747 1.314 1_545 S
C745 H786 0.929 . S
C746 C744 1.358 . S
C746 N747 1.279 . S
C746 H787 0.930 . S
N747 C745 1.314 1_565 S
N747 C746 1.279 . S
C748 C750 1.353 . S
C748 N751 1.314 1_565 S
C748 H754 0.930 . S
C749 N751 1.279 . S
C749 C752 1.358 . S
C749 H755 0.930 . S
C750 C748 1.353 . S
C750 C753 1.348 1_565 S
C750 H788 0.929 . S
N751 Li706 1.990 . S
N751 C748 1.314 1_545 S
N751 C749 1.279 . S
C752 C749 1.358 . S
C752 C753 1.356 . S
C752 H789 0.930 . S
C753 C750 1.348 1_545 S
C753 C752 1.356 . S
H754 C748 0.930 . S
H755 C749 0.930 . S
C756 N757 1.314 . S
C756 C758 1.353 . S
C756 H762 0.930 . S
N757 Li707 1.990 . S
N757 C756 1.314 . S
N757 C760 1.279 . S
C758 C756 1.353 . S
C758 C761 1.348 . S
C758 H790 0.929 . S
C759 C760 1.358 . S
C759 C761 1.356 . S
C759 H791 0.930 . S
C760 N757 1.279 . S
C760 C759 1.358 . S
C760 H763 0.930 . S
C761 C758 1.348 . S
C761 C759 1.356 . S
H762 C756 0.930 . S
H763 C760 0.930 . S
O764 Li704 1.956 1_565 S
O764 Li705 1.970 . S
O764 Li706 1.961 1_565 S
O764 C708 1.325 . S
O765 Li704 1.970 . S
O765 Li705 1.956 1_545 S
O765 Li707 1.961 . S
O765 C714 1.325 . S
O766 Li704 1.961 . S
O766 Li706 1.956 . S
O766 Li707 1.970 . S
O766 C736 1.325 . S
O767 Li705 1.961 1_545 S
O767 Li706 1.970 . S
O767 Li707 1.956 . S
O767 C742 1.325 1_545 S
H768 C710 0.929 . S
H769 C711 0.930 . S
H770 C712 0.930 . S
H771 C713 0.930 . S
H772 C715 0.930 . S
H773 C717 0.945 . S
H774 C718 0.930 . S
H775 C719 0.936 . S
H776 C722 0.930 1_565 S
H777 C725 0.929 . S
H778 C730 0.929 . S
H779 C731 0.930 . S
H780 C738 0.929 . S
H781 C739 0.930 . S
H782 C740 0.930 . S
H783 C741 0.930 . S
H784 C743 0.929 . S
H785 C744 0.930 . S
H786 C745 0.929 . S
H787 C746 0.930 . S
H788 C750 0.929 . S
H789 C752 0.930 . S
H790 C758 0.929 . S
H791 C759 0.930 . S
Li792 N809 1.990 . S
Li792 O852 1.956 . S
Li792 O853 1.970 . S
Li792 O854 1.961 . S
Li793 N817 1.990 . S
Li793 O852 1.970 . S
Li793 O853 1.956 . S
Li793 O855 1.961 . S
Li794 N839 1.990 . S
Li794 O852 1.961 . S
Li794 O854 1.956 . S
Li794 O855 1.970 . S
Li795 N845 1.990 . S
Li795 O853 1.961 . S
Li795 O854 1.970 . S
Li795 O855 1.956 . S
C796 C798 1.348 . S
C796 C799 1.356 . S
C796 O852 1.325 . S
N797 C800 1.314 . S
N797 C801 1.279 . S
C798 C796 1.348 . S
C798 C800 1.353 . S
C798 H856 0.929 . S
C799 C796 1.356 . S
C799 C801 1.358 . S
C799 H857 0.930 . S
C800 N797 1.314 . S
C800 C798 1.353 . S
C800 H858 0.930 . S
C801 N797 1.279 . S
C801 C799 1.358 . S
C801 H859 0.930 . S
C802 C805 1.348 . S
C802 C806 1.356 . S
C802 O853 1.325 . S
C803 N804 1.279 . S
C803 C806 1.358 . S
C803 H860 0.930 . S
N804 C803 1.279 . S
N804 C807 1.314 . S
C805 C802 1.348 . S
C805 C807 1.353 . S
C805 H861 0.929 . S
C806 C802 1.356 . S
C806 C803 1.358 . S
C806 H862 0.930 . S
C807 N804 1.314 . S
C807 C805 1.353 . S
C807 H863 0.930 . S
C808 N809 1.314 . S
C808 C813 1.353 . S
C808 H814 0.930 . S
N809 Li792 1.990 . S
N809 C808 1.314 . S
N809 C811 1.279 . S
C810 C811 1.358 . S
C810 C812 1.356 . S
C810 H864 0.930 . S
C811 N809 1.279 . S
C811 C810 1.358 . S
C811 H815 0.930 . S
C812 C810 1.356 . S
C812 C813 1.348 . S
C813 C808 1.353 . S
C813 C812 1.348 . S
C813 H865 0.929 . S
H814 C808 0.930 . S
H815 C811 0.930 . S
C816 N817 1.314 . S
C816 C818 1.353 . S
C816 H822 0.930 . S
N817 Li793 1.990 . S
N817 C816 1.314 . S
N817 C820 1.279 . S
C818 C816 1.353 . S
C818 C821 1.348 . S
C818 H866 0.929 . S
C819 C820 1.358 . S
C819 C821 1.356 . S
C819 H867 0.930 . S
C820 N817 1.279 . S
C820 C819 1.358 . S
C820 H823 0.930 . S
C821 C818 1.348 . S
C821 C819 1.356 . S
H822 C816 0.930 . S
H823 C820 0.930 . S
C824 C826 1.348 . S
C824 C827 1.356 . S
C824 O854 1.325 . S
N825 C828 1.314 . S
N825 C829 1.279 . S
C826 C824 1.348 . S
C826 C828 1.353 . S
C826 H868 0.929 . S
C827 C824 1.356 . S
C827 C829 1.358 . S
C827 H869 0.930 . S
C828 N825 1.314 . S
C828 C826 1.353 . S
C828 H870 0.930 . S
C829 N825 1.279 . S
C829 C827 1.358 . S
C829 H871 0.930 . S
C830 C831 1.348 . S
C830 C832 1.356 . S
C830 O855 1.325 . S
C831 C830 1.348 . S
C831 C833 1.353 . S
C831 H872 0.929 . S
C832 C830 1.356 . S
C832 C834 1.358 . S
C832 H873 0.930 . S
C833 C831 1.353 . S
C833 N835 1.314 . S
C833 H874 0.930 . S
C834 C832 1.358 . S
C834 N835 1.279 . S
C834 H875 0.930 . S
N835 C833 1.314 . S
N835 C834 1.279 . S
C836 C838 1.353 . S
C836 N839 1.314 . S
C836 H842 0.930 . S
C837 N839 1.279 . S
C837 C840 1.358 . S
C837 H843 0.930 . S
C838 C836 1.353 . S
C838 C841 1.348 . S
C838 H876 0.929 . S
N839 Li794 1.990 . S
N839 C836 1.314 . S
N839 C837 1.279 . S
C840 C837 1.358 . S
C840 C841 1.356 . S
C840 H877 0.930 . S
C841 C838 1.348 . S
C841 C840 1.356 . S
H842 C836 0.930 . S
H843 C837 0.930 . S
C844 N845 1.314 . S
C844 C846 1.353 . S
C844 H850 0.930 . S
N845 Li795 1.990 . S
N845 C844 1.314 . S
N845 C848 1.279 . S
C846 C844 1.353 . S
C846 C849 1.348 . S
C846 H878 0.929 . S
C847 C848 1.358 . S
C847 C849 1.356 . S
C847 H879 0.930 . S
C848 N845 1.279 . S
C848 C847 1.358 . S
C848 H851 0.930 . S
C849 C846 1.348 . S
C849 C847 1.356 . S
H850 C844 0.930 . S
H851 C848 0.930 . S
O852 Li792 1.956 . S
O852 Li793 1.970 . S
O852 Li794 1.961 . S
O852 C796 1.325 . S
O853 Li792 1.970 . S
O853 Li793 1.956 . S
O853 Li795 1.961 . S
O853 C802 1.325 . S
O854 Li792 1.961 . S
O854 Li794 1.956 . S
O854 Li795 1.970 . S
O854 C824 1.325 . S
O855 Li793 1.961 . S
O855 Li794 1.970 . S
O855 Li795 1.956 . S
O855 C830 1.325 . S
H856 C798 0.929 . S
H857 C799 0.930 . S
H858 C800 0.930 . S
H859 C801 0.930 . S
H860 C803 0.930 . S
H861 C805 0.929 . S
H862 C806 0.930 . S
H863 C807 0.930 . S
H864 C810 0.930 . S
H865 C813 0.929 . S
H866 C818 0.929 . S
H867 C819 0.930 . S
H868 C826 0.929 . S
H869 C827 0.930 . S
H870 C828 0.930 . S
H871 C829 0.930 . S
H872 C831 0.929 . S
H873 C832 0.930 . S
H874 C833 0.930 . S
H875 C834 0.930 . S
H876 C838 0.929 . S
H877 C840 0.930 . S
H878 C846 0.929 . S
H879 C847 0.930 . S
Li880 N897 1.990 . S
Li880 O940 1.956 . S
Li880 O941 1.970 . S
Li880 O942 1.994 . S
Li881 N905 1.990 1_545 S
Li881 O940 1.969 . S
Li881 O941 1.961 . S
Li881 O943 1.956 1_545 S
Li882 N927 1.990 . S
Li882 O940 1.961 1_565 S
Li882 O942 1.914 1_565 S
Li882 O943 1.970 . S
Li883 N933 1.990 . S
Li883 O941 1.961 1_565 S
Li883 O942 1.974 1_565 S
Li883 O943 1.956 . S
C884 C886 1.348 . S
C884 C887 1.356 . S
C884 O940 1.325 . S
N885 C888 1.314 . S
N885 C889 1.279 . S
C886 C884 1.348 . S
C886 C888 1.353 . S
C886 H944 0.929 . S
C887 C884 1.356 . S
C887 C889 1.358 . S
C887 H945 0.930 . S
C888 N885 1.314 . S
C888 C886 1.353 . S
C888 H946 0.930 . S
C889 N885 1.279 . S
C889 C887 1.358 . S
C889 H947 0.930 . S
C890 C893 1.348 . S
C890 C894 1.356 . S
C890 O941 1.325 . S
C891 N892 1.279 . S
C891 C894 1.358 . S
C891 H948 0.930 . S
N892 C891 1.279 . S
N892 C895 1.314 . S
C893 C890 1.348 . S
C893 C895 1.353 . S
C893 H949 0.929 . S
C894 C890 1.356 . S
C894 C891 1.358 . S
C894 H950 0.930 . S
C895 N892 1.314 . S
C895 C893 1.353 . S
C895 H951 0.930 . S
C896 N897 1.314 . S
C896 C901 1.353 . S
C896 H902 0.930 . S
N897 Li880 1.990 . S
N897 C896 1.314 . S
N897 C899 1.279 . S
C898 C899 1.358 . S
C898 C900 1.356 . S
C898 H952 0.930 . S
C899 N897 1.279 . S
C899 C898 1.358 . S
C899 H903 0.930 . S
C900 C898 1.356 . S
C900 C901 1.348 . S
C901 C896 1.353 . S
C901 C900 1.348 . S
C901 H953 0.929 . S
H902 C896 0.930 . S
H903 C899 0.930 . S
C904 N905 1.318 . S
C904 C906 1.353 . S
C904 H910 0.930 . S
N905 Li881 1.990 1_565 S
N905 C904 1.318 . S
N905 C908 1.276 1_565 S
C906 C904 1.353 . S
C906 C909 1.348 . S
C906 H954 0.929 . S
C907 C908 1.358 . S
C907 C909 1.356 1_545 S
C907 H955 0.930 . S
C908 N905 1.276 1_545 S
C908 C907 1.358 . S
C908 H911 0.930 . S
C909 C906 1.348 . S
C909 C907 1.356 1_565 S
H910 C904 0.930 . S
H911 C908 0.930 . S
C912 C914 1.340 1_545 S
C912 C915 1.361 . S
C912 O942 1.325 . S
N913 C916 1.314 1_545 S
N913 C917 1.280 . S
C914 C912 1.340 1_565 S
C914 C916 1.353 . S
C914 H956 0.929 . S
C915 C912 1.361 . S
C915 C917 1.358 . S
C915 H957 0.930 . S
C916 N913 1.314 1_565 S
C916 C914 1.353 . S
C916 H958 0.930 . S
C917 N913 1.280 . S
C917 C915 1.358 . S
C917 H959 0.930 . S
C918 C919 1.348 . S
C918 C920 1.356 . S
C918 O943 1.325 . S
C919 C918 1.348 . S
C919 C921 1.353 . S
C919 H960 0.929 . S
C920 C918 1.356 . S
C920 C922 1.358 . S
C920 H961 0.930 . S
C921 C919 1.353 . S
C921 N923 1.314 . S
C921 H962 0.930 . S
C922 C920 1.358 . S
C922 N923 1.279 . S
C922 H963 0.930 . S
N923 C921 1.314 . S
N923 C922 1.279 . S
C924 C926 1.353 . S
C924 N927 1.314 . S
C924 H930 0.930 . S
C925 N927 1.279 . S
C925 C928 1.358 . S
C925 H931 0.930 . S
C926 C924 1.353 . S
C926 C929 1.348 . S
C926 H964 0.929 . S
N927 Li882 1.990 . S
N927 C924 1.314 . S
N927 C925 1.279 . S
C928 C925 1.358 . S
C928 C929 1.356 . S
C928 H965 0.930 . S
C929 C926 1.348 . S
C929 C928 1.356 . S
H930 C924 0.930 . S
H931 C925 0.930 . S
C932 N933 1.314 1_545 S
C932 C934 1.353 . S
C932 H938 0.930 . S
N933 Li883 1.990 . S
N933 C932 1.314 1_565 S
N933 C936 1.279 . S
C934 C932 1.353 . S
C934 C937 1.348 1_545 S
C934 H966 0.929 . S
C935 C936 1.358 . S
C935 C937 1.356 . S
C935 H967 0.930 . S
C936 N933 1.279 . S
C936 C935 1.358 . S
C936 H939 0.930 . S
C937 C934 1.348 1_565 S
C937 C935 1.356 . S
H938 C932 0.930 . S
H939 C936 0.930 . S
O940 Li880 1.956 . S
O940 Li881 1.969 . S
O940 Li882 1.961 1_545 S
O940 C884 1.325 . S
O941 Li880 1.970 . S
O941 Li881 1.961 . S
O941 Li883 1.961 1_545 S
O941 C890 1.325 . S
O942 Li880 1.994 . S
O942 Li882 1.914 1_545 S
O942 Li883 1.974 1_545 S
O942 C912 1.325 . S
O943 Li881 1.956 1_565 S
O943 Li882 1.970 . S
O943 Li883 1.956 . S
O943 C918 1.325 . S
H944 C886 0.929 . S
H945 C887 0.930 . S
H946 C888 0.930 . S
H947 C889 0.930 . S
H948 C891 0.930 . S
H949 C893 0.929 . S
H950 C894 0.930 . S
H951 C895 0.930 . S
H952 C898 0.930 . S
H953 C901 0.929 . S
H954 C906 0.929 . S
H955 C907 0.930 . S
H956 C914 0.929 . S
H957 C915 0.930 . S
H958 C916 0.930 . S
H959 C917 0.930 . S
H960 C919 0.929 . S
H961 C920 0.930 . S
H962 C921 0.930 . S
H963 C922 0.930 . S
H964 C926 0.929 . S
H965 C928 0.930 . S
H966 C934 0.929 . S
H967 C935 0.930 . S
Li968 N985 1.990 . S
Li968 O1028 1.956 . S
Li968 O1029 1.970 . S
Li968 O1030 1.961 1_554 S
Li969 N993 1.990 . S
Li969 O1028 1.970 . S
Li969 O1029 1.956 . S
Li969 O1031 1.961 . S
Li970 N1015 1.990 . S
Li970 O1028 1.961 . S
Li970 O1030 1.956 1_554 S
Li970 O1031 1.970 . S
Li971 N1021 1.990 . S
Li971 O1029 1.961 1_556 S
Li971 O1030 1.970 . S
Li971 O1031 1.956 1_556 S
C972 C974 1.348 . S
C972 C975 1.356 . S
C972 O1028 1.325 . S
N973 C976 1.314 . S
N973 C977 1.279 . S
C974 C972 1.348 . S
C974 C976 1.353 . S
C974 H1032 0.929 . S
C975 C972 1.356 . S
C975 C977 1.358 . S
C975 H1033 0.930 . S
C976 N973 1.314 . S
C976 C974 1.353 . S
C976 H1034 0.930 . S
C977 N973 1.279 . S
C977 C975 1.358 . S
C977 H1035 0.930 . S
C978 C981 1.348 . S
C978 C982 1.356 1_554 S
C978 O1029 1.325 . S
C979 N980 1.279 1_556 S
C979 C982 1.358 . S
C979 H1036 0.930 . S
N980 C979 1.279 1_554 S
N980 C983 1.314 . S
C981 C978 1.348 . S
C981 C983 1.353 . S
C981 H1037 0.929 . S
C982 C978 1.356 1_556 S
C982 C979 1.358 . S
C982 H1038 0.930 . S
C983 N980 1.314 . S
C983 C981 1.353 . S
C983 H1039 0.930 . S
C984 N985 1.314 1_556 S
C984 C989 1.353 . S
C984 H990 0.930 . S
N985 Li968 1.990 . S
N985 C984 1.314 1_554 S
N985 C987 1.279 . S
C986 C987 1.358 . S
C986 C988 1.356 . S
C986 H1040 0.930 . S
C987 N985 1.279 . S
C987 C986 1.358 . S
C987 H991 0.930 . S
C988 C986 1.356 . S
C988 C989 1.348 1_554 S
C989 C984 1.353 . S
C989 C988 1.348 1_556 S
C989 H1041 0.929 . S
H990 C984 0.930 . S
H991 C987 0.930 . S
C992 N993 1.314 . S
C992 C994 1.353 . S
C992 H998 0.930 . S
N993 Li969 1.990 . S
N993 C992 1.314 . S
N993 C996 1.279 . S
C994 C992 1.353 . S
C994 C997 1.348 . S
C994 H1042 0.929 . S
C995 C996 1.358 . S
C995 C997 1.356 . S
C995 H1043 0.930 . S
C996 N993 1.279 . S
C996 C995 1.358 . S
C996 H999 0.930 . S
C997 C994 1.348 . S
C997 C995 1.356 . S
H998 C992 0.930 . S
H999 C996 0.930 . S
C1000 C1002 1.348 . S
C1000 C1003 1.356 . S
C1000 O1030 1.325 . S
N1001 C1004 1.314 . S
N1001 C1005 1.279 . S
C1002 C1000 1.348 . S
C1002 C1004 1.353 . S
C1002 H1044 0.929 . S
C1003 C1000 1.356 . S
C1003 C1005 1.358 . S
C1003 H1045 0.930 . S
C1004 N1001 1.314 . S
C1004 C1002 1.353 . S
C1004 H1046 0.930 . S
C1005 N1001 1.279 . S
C1005 C1003 1.358 . S
C1005 H1047 0.930 . S
C1006 C1007 1.348 . S
C1006 C1008 1.356 . S
C1006 O1031 1.325 . S
C1007 C1006 1.348 . S
C1007 C1009 1.353 . S
C1007 H1048 0.929 . S
C1008 C1006 1.356 . S
C1008 C1010 1.358 . S
C1008 H1049 0.930 . S
C1009 C1007 1.353 . S
C1009 N1011 1.314 . S
C1009 H1050 0.930 . S
C1010 C1008 1.358 . S
C1010 N1011 1.279 . S
C1010 H1051 0.930 . S
N1011 C1009 1.314 . S
N1011 C1010 1.279 . S
C1012 C1014 1.353 . S
C1012 N1015 1.314 . S
C1012 H1018 0.930 . S
C1013 N1015 1.279 . S
C1013 C1016 1.358 . S
C1013 H1019 0.930 1_554 S
C1014 C1012 1.353 . S
C1014 C1017 1.348 . S
C1014 H1052 0.929 . S
N1015 Li970 1.990 . S
N1015 C1012 1.314 . S
N1015 C1013 1.279 . S
C1016 C1013 1.358 . S
C1016 C1017 1.356 . S
C1016 H1053 0.930 1_554 S
C1017 C1014 1.348 . S
C1017 C1016 1.356 . S
H1018 C1012 0.930 . S
H1019 C1013 0.930 1_556 S
C1020 N1021 1.314 . S
C1020 C1022 1.353 . S
C1020 H1026 0.930 . S
N1021 Li971 1.990 . S
N1021 C1020 1.314 . S
N1021 C1024 1.279 . S
C1022 C1020 1.353 . S
C1022 C1025 1.348 . S
C1022 H1054 0.929 . S
C1023 C1024 1.358 . S
C1023 C1025 1.356 . S
C1023 H1055 0.930 . S
C1024 N1021 1.279 . S
C1024 C1023 1.358 . S
C1024 H1027 0.930 . S
C1025 C1022 1.348 . S
C1025 C1023 1.356 . S
H1026 C1020 0.930 . S
H1027 C1024 0.930 . S
O1028 Li968 1.956 . S
O1028 Li969 1.970 . S
O1028 Li970 1.961 . S
O1028 C972 1.325 . S
O1029 Li968 1.970 . S
O1029 Li969 1.956 . S
O1029 Li971 1.961 1_554 S
O1029 C978 1.325 . S
O1030 Li968 1.961 1_556 S
O1030 Li970 1.956 1_556 S
O1030 Li971 1.970 . S
O1030 C1000 1.325 . S
O1031 Li969 1.961 . S
O1031 Li970 1.970 . S
O1031 Li971 1.956 1_554 S
O1031 C1006 1.325 . S
H1032 C974 0.929 . S
H1033 C975 0.930 . S
H1034 C976 0.930 . S
H1035 C977 0.930 . S
H1036 C979 0.930 . S
H1037 C981 0.929 . S
H1038 C982 0.930 . S
H1039 C983 0.930 . S
H1040 C986 0.930 . S
H1041 C989 0.929 . S
H1042 C994 0.929 . S
H1043 C995 0.930 . S
H1044 C1002 0.929 . S
H1045 C1003 0.930 . S
H1046 C1004 0.930 . S
H1047 C1005 0.930 . S
H1048 C1007 0.929 . S
H1049 C1008 0.930 . S
H1050 C1009 0.930 . S
H1051 C1010 0.930 . S
H1052 C1014 0.929 . S
H1053 C1016 0.930 1_556 S
H1054 C1022 0.929 . S
H1055 C1023 0.930 . S
Li1056 N1073 1.990 . S
Li1056 O1116 1.956 . S
Li1056 O1117 1.970 . S
Li1056 O1118 1.961 1_554 S
Li1057 N1081 1.990 . S
Li1057 O1116 1.970 . S
Li1057 O1117 1.956 . S
Li1057 O1119 1.961 . S
Li1058 N1103 1.990 . S
Li1058 O1116 1.961 . S
Li1058 O1118 1.956 1_554 S
Li1058 O1119 1.970 . S
Li1059 N1109 1.990 . S
Li1059 O1117 1.961 1_556 S
Li1059 O1118 1.970 . S
Li1059 O1119 1.956 1_556 S
C1060 C1062 1.348 . S
C1060 C1063 1.356 . S
C1060 O1116 1.325 . S
N1061 C1064 1.314 . S
N1061 C1065 1.279 . S
C1062 C1060 1.348 . S
C1062 C1064 1.353 . S
C1062 H1120 0.929 . S
C1063 C1060 1.356 . S
C1063 C1065 1.358 . S
C1063 H1121 0.930 . S
C1064 N1061 1.314 . S
C1064 C1062 1.353 . S
C1064 H1122 0.930 . S
C1065 N1061 1.279 . S
C1065 C1063 1.358 . S
C1065 H1123 0.930 . S
C1066 C1069 1.348 . S
C1066 C1070 1.356 . S
C1066 O1117 1.325 . S
C1067 N1068 1.279 . S
C1067 C1070 1.358 . S
C1067 H1124 0.930 1_554 S
N1068 C1067 1.279 . S
N1068 C1071 1.314 . S
C1069 C1066 1.348 . S
C1069 C1071 1.353 . S
C1069 H1125 0.929 . S
C1070 C1066 1.356 . S
C1070 C1067 1.358 . S
C1070 H1126 0.930 . S
C1071 N1068 1.314 . S
C1071 C1069 1.353 . S
C1071 H1127 0.930 . S
C1072 N1073 1.314 . S
C1072 C1077 1.353 . S
C1072 H1078 0.930 1_554 S
N1073 Li1056 1.990 . S
N1073 C1072 1.314 . S
N1073 C1075 1.279 . S
C1074 C1075 1.358 . S
C1074 C1076 1.356 . S
C1074 H1128 0.930 . S
C1075 N1073 1.279 . S
C1075 C1074 1.358 . S
C1075 H1079 0.930 . S
C1076 C1074 1.356 . S
C1076 C1077 1.348 . S
C1077 C1072 1.353 . S
C1077 C1076 1.348 . S
C1077 H1129 0.929 1_554 S
H1078 C1072 0.930 1_556 S
H1079 C1075 0.930 . S
C1080 N1081 1.314 . S
C1080 C1082 1.353 . S
C1080 H1086 0.930 . S
N1081 Li1057 1.990 . S
N1081 C1080 1.314 . S
N1081 C1084 1.279 . S
C1082 C1080 1.353 . S
C1082 C1085 1.348 . S
C1082 H1130 0.929 . S
C1083 C1084 1.358 . S
C1083 C1085 1.356 . S
C1083 H1131 0.930 . S
C1084 N1081 1.279 . S
C1084 C1083 1.358 . S
C1084 H1087 0.930 . S
C1085 C1082 1.348 . S
C1085 C1083 1.356 . S
H1086 C1080 0.930 . S
H1087 C1084 0.930 . S
C1088 C1090 1.348 . S
C1088 C1091 1.356 . S
C1088 O1118 1.325 . S
N1089 C1092 1.314 . S
N1089 C1093 1.279 . S
C1090 C1088 1.348 . S
C1090 C1092 1.353 . S
C1090 H1132 0.929 . S
C1091 C1088 1.356 . S
C1091 C1093 1.358 . S
C1091 H1133 0.930 . S
C1092 N1089 1.314 . S
C1092 C1090 1.353 . S
C1092 H1134 0.930 . S
C1093 N1089 1.279 . S
C1093 C1091 1.358 . S
C1093 H1135 0.930 . S
C1094 C1095 1.348 . S
C1094 C1096 1.356 . S
C1094 O1119 1.325 . S
C1095 C1094 1.348 . S
C1095 C1097 1.353 . S
C1095 H1136 0.929 . S
C1096 C1094 1.356 . S
C1096 C1098 1.358 . S
C1096 H1137 0.930 . S
C1097 C1095 1.353 . S
C1097 N1099 1.314 . S
C1097 H1138 0.930 . S
C1098 C1096 1.358 . S
C1098 N1099 1.279 . S
C1098 H1139 0.930 . S
N1099 C1097 1.314 . S
N1099 C1098 1.279 . S
C1100 C1102 1.353 . S
C1100 N1103 1.314 . S
C1100 H1106 0.930 . S
C1101 N1103 1.279 . S
C1101 C1104 1.358 . S
C1101 H1107 0.930 1_554 S
C1102 C1100 1.353 . S
C1102 C1105 1.348 . S
C1102 H1140 0.929 . S
N1103 Li1058 1.990 . S
N1103 C1100 1.314 . S
N1103 C1101 1.279 . S
C1104 C1101 1.358 . S
C1104 C1105 1.356 . S
C1104 H1141 0.902 1_554 S
C1105 C1102 1.348 . S
C1105 C1104 1.356 . S
H1106 C1100 0.930 . S
H1107 C1101 0.930 1_556 S
C1108 N1109 1.314 . S
C1108 C1110 1.353 . S
C1108 H1114 0.930 . S
N1109 Li1059 1.990 . S
N1109 C1108 1.314 . S
N1109 C1112 1.279 . S
C1110 C1108 1.353 . S
C1110 C1113 1.348 . S
C1110 H1142 0.929 . S
C1111 C1112 1.358 . S
C1111 C1113 1.356 . S
C1111 H1143 0.930 . S
C1112 N1109 1.279 . S
C1112 C1111 1.358 . S
C1112 H1115 0.930 . S
C1113 C1110 1.348 . S
C1113 C1111 1.356 . S
H1114 C1108 0.930 . S
H1115 C1112 0.930 . S
O1116 Li1056 1.956 . S
O1116 Li1057 1.970 . S
O1116 Li1058 1.961 . S
O1116 C1060 1.325 . S
O1117 Li1056 1.970 . S
O1117 Li1057 1.956 . S
O1117 Li1059 1.961 1_554 S
O1117 C1066 1.325 . S
O1118 Li1056 1.961 1_556 S
O1118 Li1058 1.956 1_556 S
O1118 Li1059 1.970 . S
O1118 C1088 1.325 . S
O1119 Li1057 1.961 . S
O1119 Li1058 1.970 . S
O1119 Li1059 1.956 1_554 S
O1119 C1094 1.325 . S
H1120 C1062 0.929 . S
H1121 C1063 0.930 . S
H1122 C1064 0.930 . S
H1123 C1065 0.930 . S
H1124 C1067 0.930 1_556 S
H1125 C1069 0.929 . S
H1126 C1070 0.930 . S
H1127 C1071 0.930 . S
H1128 C1074 0.930 . S
H1129 C1077 0.929 1_556 S
H1130 C1082 0.929 . S
H1131 C1083 0.930 . S
H1132 C1090 0.929 . S
H1133 C1091 0.930 . S
H1134 C1092 0.930 . S
H1135 C1093 0.930 . S
H1136 C1095 0.929 . S
H1137 C1096 0.930 . S
H1138 C1097 0.930 . S
H1139 C1098 0.930 . S
H1140 C1102 0.929 . S
H1141 C1104 0.902 1_556 S
H1142 C1110 0.929 . S
H1143 C1111 0.930 . S
Li1144 N1161 1.990 . S
Li1144 O1204 1.956 . S
Li1144 O1205 1.970 . S
Li1144 O1206 1.961 . S
Li1145 N1169 1.990 . S
Li1145 O1204 1.970 . S
Li1145 O1205 1.956 . S
Li1145 O1207 1.961 1_554 S
Li1146 N1191 1.990 . S
Li1146 O1204 1.961 1_556 S
Li1146 O1206 1.956 1_556 S
Li1146 O1207 1.970 . S
Li1147 N1197 1.990 . S
Li1147 O1205 1.961 . S
Li1147 O1206 1.970 . S
Li1147 O1207 1.956 1_554 S
C1148 C1150 1.348 . S
C1148 C1151 1.356 . S
C1148 O1204 1.325 . S
N1149 C1152 1.314 . S
N1149 C1153 1.279 . S
C1150 C1148 1.348 . S
C1150 C1152 1.353 . S
C1150 H1208 0.929 . S
C1151 C1148 1.356 . S
C1151 C1153 1.358 . S
C1151 H1209 0.930 . S
C1152 N1149 1.314 . S
C1152 C1150 1.353 . S
C1152 H1210 0.930 . S
C1153 N1149 1.279 . S
C1153 C1151 1.358 . S
C1153 H1211 0.930 . S
C1154 C1157 1.348 . S
C1154 C1158 1.356 . S
C1154 O1205 1.325 . S
C1155 N1156 1.279 . S
C1155 C1158 1.358 . S
C1155 H1212 0.930 . S
N1156 C1155 1.279 . S
N1156 C1159 1.314 . S
C1157 C1154 1.348 . S
C1157 C1159 1.353 . S
C1157 H1213 0.929 . S
C1158 C1154 1.356 . S
C1158 C1155 1.358 . S
C1158 H1214 0.930 . S
C1159 N1156 1.314 . S
C1159 C1157 1.353 . S
C1159 H1215 0.930 . S
C1160 N1161 1.314 . S
C1160 C1165 1.353 . S
C1160 H1166 0.930 . S
N1161 Li1144 1.990 . S
N1161 C1160 1.314 . S
N1161 C1163 1.279 . S
C1162 C1163 1.358 . S
C1162 C1164 1.356 . S
C1162 H1216 0.930 . S
C1163 N1161 1.279 . S
C1163 C1162 1.358 . S
C1163 H1167 0.930 . S
C1164 C1162 1.356 . S
C1164 C1165 1.348 . S
C1165 C1160 1.353 . S
C1165 C1164 1.348 . S
C1165 H1217 0.929 . S
H1166 C1160 0.930 . S
H1167 C1163 0.930 . S
C1168 N1169 1.314 1_556 S
C1168 C1170 1.353 . S
C1168 H1174 0.930 . S
N1169 Li1145 1.990 . S
N1169 C1168 1.314 1_554 S
N1169 C1172 1.279 . S
C1170 C1168 1.353 . S
C1170 C1173 1.348 1_556 S
C1170 H1218 0.929 . S
C1171 C1172 1.358 . S
C1171 C1173 1.356 . S
C1171 H1219 0.930 . S
C1172 N1169 1.279 . S
C1172 C1171 1.358 . S
C1172 H1175 0.930 . S
C1173 C1170 1.348 1_554 S
C1173 C1171 1.356 . S
H1174 C1168 0.930 . S
H1175 C1172 0.930 . S
C1176 C1178 1.348 . S
C1176 C1179 1.356 . S
C1176 O1206 1.325 . S
N1177 C1180 1.314 . S
N1177 C1181 1.279 . S
C1178 C1176 1.348 . S
C1178 C1180 1.353 . S
C1178 H1220 0.929 1_554 S
C1179 C1176 1.356 . S
C1179 C1181 1.358 . S
C1179 H1221 0.930 . S
C1180 N1177 1.314 . S
C1180 C1178 1.353 . S
C1180 H1222 0.924 1_554 S
C1181 N1177 1.279 . S
C1181 C1179 1.358 . S
C1181 H1223 0.930 . S
C1182 C1183 1.348 . S
C1182 C1184 1.356 . S
C1182 O1207 1.325 . S
C1183 C1182 1.348 . S
C1183 C1185 1.353 . S
C1183 H1224 0.929 . S
C1184 C1182 1.356 . S
C1184 C1186 1.358 . S
C1184 H1225 0.930 . S
C1185 C1183 1.353 . S
C1185 N1187 1.314 . S
C1185 H1226 0.930 . S
C1186 C1184 1.358 . S
C1186 N1187 1.279 . S
C1186 H1227 0.930 . S
N1187 C1185 1.314 . S
N1187 C1186 1.279 . S
C1188 C1190 1.353 . S
C1188 N1191 1.314 . S
C1188 H1194 0.930 . S
C1189 N1191 1.279 . S
C1189 C1192 1.358 . S
C1189 H1195 0.930 . S
C1190 C1188 1.353 . S
C1190 C1193 1.348 . S
C1190 H1228 0.929 . S
N1191 Li1146 1.990 . S
N1191 C1188 1.314 . S
N1191 C1189 1.279 . S
C1192 C1189 1.358 . S
C1192 C1193 1.356 . S
C1192 H1229 0.930 . S
C1193 C1190 1.348 . S
C1193 C1192 1.356 . S
H1194 C1188 0.930 . S
H1195 C1189 0.930 . S
C1196 N1197 1.314 . S
C1196 C1198 1.353 . S
C1196 H1202 0.930 . S
N1197 Li1147 1.990 . S
N1197 C1196 1.314 . S
N1197 C1200 1.279 1_554 S
C1198 C1196 1.353 . S
C1198 C1201 1.348 1_554 S
C1198 H1230 0.929 . S
C1199 C1200 1.358 . S
C1199 C1201 1.356 . S
C1199 H1231 0.930 . S
C1200 N1197 1.279 1_556 S
C1200 C1199 1.358 . S
C1200 H1203 0.930 . S
C1201 C1198 1.348 1_556 S
C1201 C1199 1.356 . S
H1202 C1196 0.930 . S
H1203 C1200 0.930 . S
O1204 Li1144 1.956 . S
O1204 Li1145 1.970 . S
O1204 Li1146 1.961 1_554 S
O1204 C1148 1.325 . S
O1205 Li1144 1.970 . S
O1205 Li1145 1.956 . S
O1205 Li1147 1.961 . S
O1205 C1154 1.325 . S
O1206 Li1144 1.961 . S
O1206 Li1146 1.956 1_554 S
O1206 Li1147 1.970 . S
O1206 C1176 1.325 . S
O1207 Li1145 1.961 1_556 S
O1207 Li1146 1.970 . S
O1207 Li1147 1.956 1_556 S
O1207 C1182 1.325 . S
H1208 C1150 0.929 . S
H1209 C1151 0.930 . S
H1210 C1152 0.930 . S
H1211 C1153 0.930 . S
H1212 C1155 0.930 . S
H1213 C1157 0.929 . S
H1214 C1158 0.930 . S
H1215 C1159 0.930 . S
H1216 C1162 0.930 . S
H1217 C1165 0.929 . S
H1218 C1170 0.929 . S
H1219 C1171 0.930 . S
H1220 C1178 0.929 1_556 S
H1221 C1179 0.930 . S
H1222 C1180 0.924 1_556 S
H1223 C1181 0.930 . S
H1224 C1183 0.929 . S
H1225 C1184 0.930 . S
H1226 C1185 0.930 . S
H1227 C1186 0.930 . S
H1228 C1190 0.929 . S
H1229 C1192 0.930 . S
H1230 C1198 0.929 . S
H1231 C1199 0.930 . S
Li1232 N1249 1.990 . S
Li1232 O1292 1.956 . S
Li1232 O1293 1.970 . S
Li1232 O1294 1.961 . S
Li1233 N1257 1.990 . S
Li1233 O1292 1.970 . S
Li1233 O1293 1.956 . S
Li1233 O1295 1.961 . S
Li1234 N1279 1.990 . S
Li1234 O1292 1.961 . S
Li1234 O1294 1.956 . S
Li1234 O1295 1.970 . S
Li1235 N1285 1.990 . S
Li1235 O1293 1.961 . S
Li1235 O1294 1.970 . S
Li1235 O1295 1.956 . S
C1236 C1238 1.348 . S
C1236 C1239 1.356 . S
C1236 O1292 1.325 . S
N1237 C1240 1.314 . S
N1237 C1241 1.279 . S
C1238 C1236 1.348 . S
C1238 C1240 1.353 . S
C1238 H1296 0.929 . S
C1239 C1236 1.356 . S
C1239 C1241 1.358 . S
C1239 H1297 0.930 . S
C1240 N1237 1.314 . S
C1240 C1238 1.353 . S
C1240 H1298 0.930 . S
C1241 N1237 1.279 . S
C1241 C1239 1.358 . S
C1241 H1299 0.930 . S
C1242 C1245 1.348 . S
C1242 C1246 1.356 . S
C1242 O1293 1.325 . S
C1243 N1244 1.279 . S
C1243 C1246 1.358 . S
C1243 H1300 0.930 . S
N1244 C1243 1.279 . S
N1244 C1247 1.314 . S
C1245 C1242 1.348 . S
C1245 C1247 1.353 . S
C1245 H1301 0.929 . S
C1246 C1242 1.356 . S
C1246 C1243 1.358 . S
C1246 H1302 0.930 . S
C1247 N1244 1.314 . S
C1247 C1245 1.353 . S
C1247 H1303 0.930 . S
C1248 N1249 1.314 . S
C1248 C1253 1.353 . S
C1248 H1254 0.930 . S
N1249 Li1232 1.990 . S
N1249 C1248 1.314 . S
N1249 C1251 1.279 . S
C1250 C1251 1.358 . S
C1250 C1252 1.356 . S
C1250 H1304 0.930 . S
C1251 N1249 1.279 . S
C1251 C1250 1.358 . S
C1251 H1255 0.930 . S
C1252 C1250 1.356 . S
C1252 C1253 1.348 . S
C1253 C1248 1.353 . S
C1253 C1252 1.348 . S
C1253 H1305 0.929 . S
H1254 C1248 0.930 . S
H1255 C1251 0.930 . S
C1256 N1257 1.314 . S
C1256 C1258 1.353 . S
C1256 H1262 0.930 . S
N1257 Li1233 1.990 . S
N1257 C1256 1.314 . S
N1257 C1260 1.279 . S
C1258 C1256 1.353 . S
C1258 C1261 1.348 . S
C1258 H1306 0.929 . S
C1259 C1260 1.358 . S
C1259 C1261 1.356 . S
C1259 H1307 0.930 . S
C1260 N1257 1.279 . S
C1260 C1259 1.358 . S
C1260 H1263 0.930 . S
C1261 C1258 1.348 . S
C1261 C1259 1.356 . S
H1262 C1256 0.930 . S
H1263 C1260 0.930 . S
C1264 C1266 1.348 . S
C1264 C1267 1.356 . S
C1264 O1294 1.325 . S
N1265 C1268 1.314 . S
N1265 C1269 1.279 . S
C1266 C1264 1.348 . S
C1266 C1268 1.353 . S
C1266 H1308 0.929 . S
C1267 C1264 1.356 . S
C1267 C1269 1.358 . S
C1267 H1309 0.930 . S
C1268 N1265 1.314 . S
C1268 C1266 1.353 . S
C1268 H1310 0.930 . S
C1269 N1265 1.279 . S
C1269 C1267 1.358 . S
C1269 H1311 0.930 . S
C1270 C1271 1.348 . S
C1270 C1272 1.356 . S
C1270 O1295 1.325 . S
C1271 C1270 1.348 . S
C1271 C1273 1.353 . S
C1271 H1312 0.929 . S
C1272 C1270 1.356 . S
C1272 C1274 1.358 . S
C1272 H1313 0.930 . S
C1273 C1271 1.353 . S
C1273 N1275 1.314 . S
C1273 H1314 0.930 . S
C1274 C1272 1.358 . S
C1274 N1275 1.279 . S
C1274 H1315 0.930 . S
N1275 C1273 1.314 . S
N1275 C1274 1.279 . S
C1276 C1278 1.353 . S
C1276 N1279 1.314 . S
C1276 H1282 0.930 . S
C1277 N1279 1.279 . S
C1277 C1280 1.358 . S
C1277 H1283 0.930 . S
C1278 C1276 1.353 . S
C1278 C1281 1.348 . S
C1278 H1316 0.929 . S
N1279 Li1234 1.990 . S
N1279 C1276 1.314 . S
N1279 C1277 1.279 . S
C1280 C1277 1.358 . S
C1280 C1281 1.356 . S
C1280 H1317 0.930 . S
C1281 C1278 1.348 . S
C1281 C1280 1.356 . S
H1282 C1276 0.930 . S
H1283 C1277 0.930 . S
C1284 N1285 1.314 . S
C1284 C1286 1.353 . S
C1284 H1290 0.930 . S
N1285 Li1235 1.990 . S
N1285 C1284 1.314 . S
N1285 C1288 1.279 . S
C1286 C1284 1.353 . S
C1286 C1289 1.348 . S
C1286 H1318 0.929 . S
C1287 C1288 1.358 . S
C1287 C1289 1.356 . S
C1287 H1319 0.930 . S
C1288 N1285 1.279 . S
C1288 C1287 1.358 . S
C1288 H1291 0.930 . S
C1289 C1286 1.348 . S
C1289 C1287 1.356 . S
H1290 C1284 0.930 . S
H1291 C1288 0.930 . S
O1292 Li1232 1.956 . S
O1292 Li1233 1.970 . S
O1292 Li1234 1.961 . S
O1292 C1236 1.325 . S
O1293 Li1232 1.970 . S
O1293 Li1233 1.956 . S
O1293 Li1235 1.961 . S
O1293 C1242 1.325 . S
O1294 Li1232 1.961 . S
O1294 Li1234 1.956 . S
O1294 Li1235 1.970 . S
O1294 C1264 1.325 . S
O1295 Li1233 1.961 . S
O1295 Li1234 1.970 . S
O1295 Li1235 1.956 . S
O1295 C1270 1.325 . S
H1296 C1238 0.929 . S
H1297 C1239 0.930 . S
H1298 C1240 0.930 . S
H1299 C1241 0.930 . S
H1300 C1243 0.930 . S
H1301 C1245 0.929 . S
H1302 C1246 0.930 . S
H1303 C1247 0.930 . S
H1304 C1250 0.930 . S
H1305 C1253 0.929 . S
H1306 C1258 0.929 . S
H1307 C1259 0.930 . S
H1308 C1266 0.929 . S
H1309 C1267 0.930 . S
H1310 C1268 0.930 . S
H1311 C1269 0.930 . S
H1312 C1271 0.929 . S
H1313 C1272 0.930 . S
H1314 C1273 0.930 . S
H1315 C1274 0.930 . S
H1316 C1278 0.929 . S
H1317 C1280 0.930 . S
H1318 C1286 0.929 . S
H1319 C1287 0.930 . S
Li1320 N1337 1.990 . S
Li1320 O1380 1.956 . S
Li1320 O1381 1.970 . S
Li1320 O1382 1.961 . S
Li1321 N1345 1.990 . S
Li1321 O1380 1.970 . S
Li1321 O1381 1.956 . S
Li1321 O1383 1.961 . S
Li1322 N1367 1.990 . S
Li1322 O1380 1.961 . S
Li1322 O1382 1.956 . S
Li1322 O1383 1.970 . S
Li1323 N1373 1.990 . S
Li1323 O1381 1.961 . S
Li1323 O1382 1.970 . S
Li1323 O1383 1.956 . S
C1324 C1326 1.348 . S
C1324 C1327 1.356 . S
C1324 O1380 1.325 . S
N1325 C1328 1.314 . S
N1325 C1329 1.279 . S
C1326 C1324 1.348 . S
C1326 C1328 1.353 . S
C1326 H1384 0.929 . S
C1327 C1324 1.356 . S
C1327 C1329 1.358 . S
C1327 H1385 0.930 . S
C1328 N1325 1.314 . S
C1328 C1326 1.353 . S
C1328 H1386 0.930 . S
C1329 N1325 1.279 . S
C1329 C1327 1.358 . S
C1329 H1387 0.930 . S
C1330 C1333 1.348 . S
C1330 C1334 1.356 . S
C1330 O1381 1.325 . S
C1331 N1332 1.279 . S
C1331 C1334 1.358 . S
C1331 H1388 0.930 . S
N1332 C1331 1.279 . S
N1332 C1335 1.314 . S
C1333 C1330 1.348 . S
C1333 C1335 1.353 . S
C1333 H1389 0.929 . S
C1334 C1330 1.356 . S
C1334 C1331 1.358 . S
C1334 H1390 0.930 . S
C1335 N1332 1.314 . S
C1335 C1333 1.353 . S
C1335 H1391 0.930 . S
C1336 N1337 1.314 . S
C1336 C1341 1.353 . S
C1336 H1342 0.930 . S
N1337 Li1320 1.990 . S
N1337 C1336 1.314 . S
N1337 C1339 1.279 . S
C1338 C1339 1.358 . S
C1338 C1340 1.356 . S
C1338 H1392 0.930 . S
C1339 N1337 1.279 . S
C1339 C1338 1.358 . S
C1339 H1343 0.930 . S
C1340 C1338 1.356 . S
C1340 C1341 1.348 . S
C1341 C1336 1.353 . S
C1341 C1340 1.348 . S
C1341 H1393 0.929 . S
H1342 C1336 0.930 . S
H1343 C1339 0.930 . S
C1344 N1345 1.314 . S
C1344 C1346 1.353 . S
C1344 H1350 0.930 . S
N1345 Li1321 1.990 . S
N1345 C1344 1.314 . S
N1345 C1348 1.279 . S
C1346 C1344 1.353 . S
C1346 C1349 1.348 . S
C1346 H1394 0.929 . S
C1347 C1348 1.358 . S
C1347 C1349 1.356 . S
C1347 H1395 0.930 . S
C1348 N1345 1.279 . S
C1348 C1347 1.358 . S
C1348 H1351 0.930 . S
C1349 C1346 1.348 . S
C1349 C1347 1.356 . S
H1350 C1344 0.930 . S
H1351 C1348 0.930 . S
C1352 C1354 1.348 . S
C1352 C1355 1.356 . S
C1352 O1382 1.325 . S
N1353 C1356 1.314 . S
N1353 C1357 1.279 . S
C1354 C1352 1.348 . S
C1354 C1356 1.353 . S
C1354 H1396 0.929 . S
C1355 C1352 1.356 . S
C1355 C1357 1.358 . S
C1355 H1397 0.930 . S
C1356 N1353 1.314 . S
C1356 C1354 1.353 . S
C1356 H1398 0.930 . S
C1357 N1353 1.279 . S
C1357 C1355 1.358 . S
C1357 H1399 0.930 . S
C1358 C1359 1.348 . S
C1358 C1360 1.356 . S
C1358 O1383 1.325 . S
C1359 C1358 1.348 . S
C1359 C1361 1.353 . S
C1359 H1400 0.929 . S
C1360 C1358 1.356 . S
C1360 C1362 1.358 . S
C1360 H1401 0.930 . S
C1361 C1359 1.353 . S
C1361 N1363 1.314 . S
C1361 H1402 0.930 . S
C1362 C1360 1.358 . S
C1362 N1363 1.279 . S
C1362 H1403 0.930 . S
N1363 C1361 1.314 . S
N1363 C1362 1.279 . S
C1364 C1366 1.353 . S
C1364 N1367 1.314 . S
C1364 H1370 0.930 . S
C1365 N1367 1.279 . S
C1365 C1368 1.358 . S
C1365 H1371 0.930 . S
C1366 C1364 1.353 . S
C1366 C1369 1.348 . S
C1366 H1404 0.929 . S
N1367 Li1322 1.990 . S
N1367 C1364 1.314 . S
N1367 C1365 1.279 . S
C1368 C1365 1.358 . S
C1368 C1369 1.356 . S
C1368 H1405 0.930 . S
C1369 C1366 1.348 . S
C1369 C1368 1.356 . S
H1370 C1364 0.930 . S
H1371 C1365 0.930 . S
C1372 N1373 1.314 . S
C1372 C1374 1.353 . S
C1372 H1378 0.930 . S
N1373 Li1323 1.990 . S
N1373 C1372 1.314 . S
N1373 C1376 1.279 . S
C1374 C1372 1.353 . S
C1374 C1377 1.348 . S
C1374 H1406 0.929 . S
C1375 C1376 1.358 . S
C1375 C1377 1.356 . S
C1375 H1407 0.930 . S
C1376 N1373 1.279 . S
C1376 C1375 1.358 . S
C1376 H1379 0.930 . S
C1377 C1374 1.348 . S
C1377 C1375 1.356 . S
H1378 C1372 0.930 . S
H1379 C1376 0.930 . S
O1380 Li1320 1.956 . S
O1380 Li1321 1.970 . S
O1380 Li1322 1.961 . S
O1380 C1324 1.325 . S
O1381 Li1320 1.970 . S
O1381 Li1321 1.956 . S
O1381 Li1323 1.961 . S
O1381 C1330 1.325 . S
O1382 Li1320 1.961 . S
O1382 Li1322 1.956 . S
O1382 Li1323 1.970 . S
O1382 C1352 1.325 . S
O1383 Li1321 1.961 . S
O1383 Li1322 1.970 . S
O1383 Li1323 1.956 . S
O1383 C1358 1.325 . S
H1384 C1326 0.929 . S
H1385 C1327 0.930 . S
H1386 C1328 0.930 . S
H1387 C1329 0.930 . S
H1388 C1331 0.930 . S
H1389 C1333 0.929 . S
H1390 C1334 0.930 . S
H1391 C1335 0.930 . S
H1392 C1338 0.930 . S
H1393 C1341 0.929 . S
H1394 C1346 0.929 . S
H1395 C1347 0.930 . S
H1396 C1354 0.929 . S
H1397 C1355 0.930 . S
H1398 C1356 0.930 . S
H1399 C1357 0.930 . S
H1400 C1359 0.929 . S
H1401 C1360 0.930 . S
H1402 C1361 0.930 . S
H1403 C1362 0.930 . S
H1404 C1366 0.929 . S
H1405 C1368 0.930 . S
H1406 C1374 0.929 . S
H1407 C1375 0.930 . S
Li1408 N1425 1.990 . S
Li1408 O1468 1.956 . S
Li1408 O1469 1.970 . S
Li1408 O1470 1.961 . S
Li1409 N1433 1.990 . S
Li1409 O1468 1.970 . S
Li1409 O1469 1.956 . S
Li1409 O1471 1.961 . S
Li1410 N1455 1.990 . S
Li1410 O1468 1.961 . S
Li1410 O1470 1.956 . S
Li1410 O1471 1.970 . S
Li1411 N1461 1.990 . S
Li1411 O1469 1.961 . S
Li1411 O1470 1.970 . S
Li1411 O1471 1.956 . S
C1412 C1414 1.348 . S
C1412 C1415 1.356 . S
C1412 O1468 1.325 . S
N1413 C1416 1.314 . S
N1413 C1417 1.279 1_565 S
C1414 C1412 1.348 . S
C1414 C1416 1.353 1_545 S
C1414 H1472 0.929 . S
C1415 C1412 1.356 . S
C1415 C1417 1.358 . S
C1415 H1473 0.930 . S
C1416 N1413 1.314 . S
C1416 C1414 1.353 1_565 S
C1416 H1474 0.930 . S
C1417 N1413 1.279 1_545 S
C1417 C1415 1.358 . S
C1417 H1475 0.930 . S
C1418 C1421 1.348 . S
C1418 C1422 1.356 . S
C1418 O1469 1.325 . S
C1419 N1420 1.279 . S
C1419 C1422 1.358 . S
C1419 H1476 0.930 . S
N1420 C1419 1.279 . S
N1420 C1423 1.314 . S
C1421 C1418 1.348 . S
C1421 C1423 1.353 . S
C1421 H1477 0.929 . S
C1422 C1418 1.356 . S
C1422 C1419 1.358 . S
C1422 H1478 0.930 . S
C1423 N1420 1.314 . S
C1423 C1421 1.353 . S
C1423 H1479 0.930 . S
C1424 N1425 1.314 . S
C1424 C1429 1.353 . S
C1424 H1430 0.930 . S
N1425 Li1408 1.990 . S
N1425 C1424 1.314 . S
N1425 C1427 1.279 . S
C1426 C1427 1.358 . S
C1426 C1428 1.356 . S
C1426 H1480 0.930 . S
C1427 N1425 1.279 . S
C1427 C1426 1.358 . S
C1427 H1431 0.930 . S
C1428 C1426 1.356 . S
C1428 C1429 1.348 . S
C1429 C1424 1.353 . S
C1429 C1428 1.348 . S
C1429 H1481 0.929 . S
H1430 C1424 0.930 . S
H1431 C1427 0.930 . S
C1432 N1433 1.317 . S
C1432 C1434 1.349 1_545 S
C1432 H1438 0.931 . S
N1433 Li1409 1.990 . S
N1433 C1432 1.317 . S
N1433 C1436 1.279 . S
C1434 C1432 1.349 1_565 S
C1434 C1437 1.348 . S
C1434 H1482 0.929 . S
C1435 C1436 1.358 1_565 S
C1435 C1437 1.356 . S
C1435 H1483 0.930 . S
C1436 N1433 1.279 . S
C1436 C1435 1.358 1_545 S
C1436 H1439 0.930 . S
C1437 C1434 1.348 . S
C1437 C1435 1.356 . S
H1438 C1432 0.931 . S
H1439 C1436 0.930 . S
C1440 C1442 1.348 . S
C1440 C1443 1.356 . S
C1440 O1470 1.325 . S
N1441 C1444 1.314 . S
N1441 C1445 1.279 . S
C1442 C1440 1.348 . S
C1442 C1444 1.353 . S
C1442 H1484 0.929 . S
C1443 C1440 1.356 . S
C1443 C1445 1.358 . S
C1443 H1485 0.930 . S
C1444 N1441 1.314 . S
C1444 C1442 1.353 . S
C1444 H1486 0.930 . S
C1445 N1441 1.279 . S
C1445 C1443 1.358 . S
C1445 H1487 0.930 1_655 S
C1446 C1447 1.348 . S
C1446 C1448 1.356 . S
C1446 O1471 1.325 . S
C1447 C1446 1.348 . S
C1447 C1449 1.353 . S
C1447 H1488 0.929 . S
C1448 C1446 1.356 . S
C1448 C1450 1.358 . S
C1448 H1489 0.930 . S
C1449 C1447 1.353 . S
C1449 N1451 1.314 . S
C1449 H1490 0.930 . S
C1450 C1448 1.358 . S
C1450 N1451 1.279 . S
C1450 H1491 0.930 . S
N1451 C1449 1.314 . S
N1451 C1450 1.279 . S
C1452 C1454 1.353 . S
C1452 N1455 1.314 . S
C1452 H1458 0.930 . S
C1453 N1455 1.279 . S
C1453 C1456 1.358 . S
C1453 H1459 0.930 . S
C1454 C1452 1.353 . S
C1454 C1457 1.348 . S
C1454 H1492 0.929 . S
N1455 Li1410 1.990 . S
N1455 C1452 1.314 . S
N1455 C1453 1.279 . S
C1456 C1453 1.358 . S
C1456 C1457 1.356 . S
C1456 H1493 0.930 . S
C1457 C1454 1.348 . S
C1457 C1456 1.356 . S
H1458 C1452 0.930 . S
H1459 C1453 0.930 . S
C1460 N1461 1.314 . S
C1460 C1462 1.353 . S
C1460 H1466 0.930 . S
N1461 Li1411 1.990 . S
N1461 C1460 1.314 . S
N1461 C1464 1.279 . S
C1462 C1460 1.353 . S
C1462 C1465 1.348 . S
C1462 H1494 0.929 . S
C1463 C1464 1.358 . S
C1463 C1465 1.356 . S
C1463 H1495 0.930 . S
C1464 N1461 1.279 . S
C1464 C1463 1.358 . S
C1464 H1467 0.930 . S
C1465 C1462 1.348 . S
C1465 C1463 1.356 . S
H1466 C1460 0.930 . S
H1467 C1464 0.930 . S
O1468 Li1408 1.956 . S
O1468 Li1409 1.970 . S
O1468 Li1410 1.961 . S
O1468 C1412 1.325 . S
O1469 Li1408 1.970 . S
O1469 Li1409 1.956 . S
O1469 Li1411 1.961 . S
O1469 C1418 1.325 . S
O1470 Li1408 1.961 . S
O1470 Li1410 1.956 . S
O1470 Li1411 1.970 . S
O1470 C1440 1.325 . S
O1471 Li1409 1.961 . S
O1471 Li1410 1.970 . S
O1471 Li1411 1.956 . S
O1471 C1446 1.325 . S
H1472 C1414 0.929 . S
H1473 C1415 0.930 . S
H1474 C1416 0.930 . S
H1475 C1417 0.930 . S
H1476 C1419 0.930 . S
H1477 C1421 0.929 . S
H1478 C1422 0.930 . S
H1479 C1423 0.930 . S
H1480 C1426 0.930 . S
H1481 C1429 0.929 . S
H1482 C1434 0.929 . S
H1483 C1435 0.930 . S
H1484 C1442 0.929 . S
H1485 C1443 0.930 . S
H1486 C1444 0.930 . S
H1487 C1445 0.930 1_455 S
H1488 C1447 0.929 . S
H1489 C1448 0.930 . S
H1490 C1449 0.930 . S
H1491 C1450 0.930 . S
H1492 C1454 0.929 . S
H1493 C1456 0.930 . S
H1494 C1462 0.929 . S
H1495 C1463 0.930 . S
Li1496 N1513 1.990 . S
Li1496 O1556 1.956 . S
Li1496 O1557 1.970 . S
Li1496 O1558 1.961 . S
Li1497 N1521 1.990 . S
Li1497 O1556 1.970 . S
Li1497 O1557 1.956 . S
Li1497 O1559 1.961 . S
Li1498 N1543 1.990 . S
Li1498 O1556 1.961 . S
Li1498 O1558 1.956 . S
Li1498 O1559 1.970 . S
Li1499 N1549 1.990 . S
Li1499 O1557 1.961 . S
Li1499 O1558 1.970 . S
Li1499 O1559 1.956 . S
C1500 C1502 1.348 . S
C1500 C1503 1.356 . S
C1500 O1556 1.325 . S
N1501 C1504 1.314 . S
N1501 C1505 1.279 . S
C1502 C1500 1.348 . S
C1502 C1504 1.353 . S
C1502 H1560 0.929 . S
C1503 C1500 1.356 . S
C1503 C1505 1.358 . S
C1503 H1561 0.930 . S
C1504 N1501 1.314 . S
C1504 C1502 1.353 . S
C1504 H1562 0.930 . S
C1505 N1501 1.279 . S
C1505 C1503 1.358 . S
C1505 H1563 0.930 . S
C1506 C1509 1.348 . S
C1506 C1510 1.356 . S
C1506 O1557 1.325 . S
C1507 N1508 1.279 . S
C1507 C1510 1.358 . S
C1507 H1564 0.930 . S
N1508 C1507 1.279 . S
N1508 C1511 1.314 . S
C1509 C1506 1.348 . S
C1509 C1511 1.353 . S
C1509 H1565 0.929 . S
C1510 C1506 1.356 . S
C1510 C1507 1.358 . S
C1510 H1566 0.930 . S
C1511 N1508 1.314 . S
C1511 C1509 1.353 . S
C1511 H1567 0.930 . S
C1512 N1513 1.314 . S
C1512 C1517 1.353 . S
C1512 H1518 0.930 . S
N1513 Li1496 1.990 . S
N1513 C1512 1.314 . S
N1513 C1515 1.279 . S
C1514 C1515 1.358 . S
C1514 C1516 1.356 . S
C1514 H1568 0.930 . S
C1515 N1513 1.279 . S
C1515 C1514 1.358 . S
C1515 H1519 0.930 . S
C1516 C1514 1.356 . S
C1516 C1517 1.348 . S
C1517 C1512 1.353 . S
C1517 C1516 1.348 . S
C1517 H1569 0.929 . S
H1518 C1512 0.930 . S
H1519 C1515 0.930 . S
C1520 N1521 1.314 . S
C1520 C1522 1.353 . S
C1520 H1526 0.930 . S
N1521 Li1497 1.990 . S
N1521 C1520 1.314 . S
N1521 C1524 1.279 . S
C1522 C1520 1.353 . S
C1522 C1525 1.348 . S
C1522 H1570 0.929 . S
C1523 C1524 1.358 . S
C1523 C1525 1.356 . S
C1523 H1571 0.930 . S
C1524 N1521 1.279 . S
C1524 C1523 1.358 . S
C1524 H1527 0.930 . S
C1525 C1522 1.348 . S
C1525 C1523 1.356 . S
H1526 C1520 0.930 . S
H1527 C1524 0.930 . S
C1528 C1530 1.348 . S
C1528 C1531 1.356 . S
C1528 O1558 1.325 . S
N1529 C1532 1.314 . S
N1529 C1533 1.279 . S
C1530 C1528 1.348 . S
C1530 C1532 1.353 . S
C1530 H1572 0.929 . S
C1531 C1528 1.356 . S
C1531 C1533 1.358 . S
C1531 H1573 0.930 . S
C1532 N1529 1.314 . S
C1532 C1530 1.353 . S
C1532 H1574 0.930 . S
C1533 N1529 1.279 . S
C1533 C1531 1.358 . S
C1533 H1575 0.930 . S
C1534 C1535 1.348 . S
C1534 C1536 1.356 . S
C1534 O1559 1.325 . S
C1535 C1534 1.348 . S
C1535 C1537 1.353 . S
C1535 H1576 0.929 . S
C1536 C1534 1.356 . S
C1536 C1538 1.358 . S
C1536 H1577 0.930 . S
C1537 C1535 1.353 . S
C1537 N1539 1.314 . S
C1537 H1578 0.930 . S
C1538 C1536 1.358 . S
C1538 N1539 1.279 . S
C1538 H1579 0.930 . S
N1539 C1537 1.314 . S
N1539 C1538 1.279 . S
C1540 C1542 1.353 . S
C1540 N1543 1.314 . S
C1540 H1546 0.930 . S
C1541 N1543 1.279 . S
C1541 C1544 1.358 . S
C1541 H1547 0.930 . S
C1542 C1540 1.353 . S
C1542 C1545 1.348 . S
C1542 H1580 0.929 . S
N1543 Li1498 1.990 . S
N1543 C1540 1.314 . S
N1543 C1541 1.279 . S
C1544 C1541 1.358 . S
C1544 C1545 1.356 . S
C1544 H1581 0.930 . S
C1545 C1542 1.348 . S
C1545 C1544 1.356 . S
H1546 C1540 0.930 . S
H1547 C1541 0.930 . S
C1548 N1549 1.314 . S
C1548 C1550 1.353 . S
C1548 H1554 0.930 . S
N1549 Li1499 1.990 . S
N1549 C1548 1.314 . S
N1549 C1552 1.279 . S
C1550 C1548 1.353 . S
C1550 C1553 1.348 . S
C1550 H1582 0.929 . S
C1551 C1552 1.358 . S
C1551 C1553 1.356 . S
C1551 H1583 0.930 . S
C1552 N1549 1.279 . S
C1552 C1551 1.358 . S
C1552 H1555 0.930 . S
C1553 C1550 1.348 . S
C1553 C1551 1.356 . S
H1554 C1548 0.930 . S
H1555 C1552 0.930 . S
O1556 Li1496 1.956 . S
O1556 Li1497 1.970 . S
O1556 Li1498 1.961 . S
O1556 C1500 1.325 . S
O1557 Li1496 1.970 . S
O1557 Li1497 1.956 . S
O1557 Li1499 1.961 . S
O1557 C1506 1.325 . S
O1558 Li1496 1.961 . S
O1558 Li1498 1.956 . S
O1558 Li1499 1.970 . S
O1558 C1528 1.325 . S
O1559 Li1497 1.961 . S
O1559 Li1498 1.970 . S
O1559 Li1499 1.956 . S
O1559 C1534 1.325 . S
H1560 C1502 0.929 . S
H1561 C1503 0.930 . S
H1562 C1504 0.930 . S
H1563 C1505 0.930 . S
H1564 C1507 0.930 . S
H1565 C1509 0.929 . S
H1566 C1510 0.930 . S
H1567 C1511 0.930 . S
H1568 C1514 0.930 . S
H1569 C1517 0.929 . S
H1570 C1522 0.929 . S
H1571 C1523 0.930 . S
H1572 C1530 0.929 . S
H1573 C1531 0.930 . S
H1574 C1532 0.930 . S
H1575 C1533 0.930 . S
H1576 C1535 0.929 . S
H1577 C1536 0.930 . S
H1578 C1537 0.930 . S
H1579 C1538 0.930 . S
H1580 C1542 0.929 . S
H1581 C1544 0.930 . S
H1582 C1550 0.929 . S
H1583 C1551 0.930 . S
Li1584 N1601 1.990 . S
Li1584 O1644 1.956 . S
Li1584 O1645 1.970 . S
Li1584 O1646 1.961 . S
Li1585 N1609 1.990 . S
Li1585 O1644 1.970 . S
Li1585 O1645 1.956 . S
Li1585 O1647 1.961 . S
Li1586 N1631 1.990 . S
Li1586 O1644 1.961 . S
Li1586 O1646 1.956 . S
Li1586 O1647 1.970 . S
Li1587 N1637 1.990 . S
Li1587 O1645 1.961 . S
Li1587 O1646 1.970 . S
Li1587 O1647 1.956 . S
C1588 C1590 1.348 . S
C1588 C1591 1.356 . S
C1588 O1644 1.325 . S
N1589 C1592 1.314 . S
N1589 C1593 1.279 . S
C1590 C1588 1.348 . S
C1590 C1592 1.353 . S
C1590 H1648 0.929 . S
C1591 C1588 1.356 . S
C1591 C1593 1.358 . S
C1591 H1649 0.930 . S
C1592 N1589 1.314 . S
C1592 C1590 1.353 . S
C1592 H1650 0.930 . S
C1593 N1589 1.279 . S
C1593 C1591 1.358 . S
C1593 H1651 0.930 . S
C1594 C1597 1.348 . S
C1594 C1598 1.356 . S
C1594 O1645 1.325 . S
C1595 N1596 1.279 . S
C1595 C1598 1.358 . S
C1595 H1652 0.930 . S
N1596 C1595 1.279 . S
N1596 C1599 1.314 . S
C1597 C1594 1.348 . S
C1597 C1599 1.353 . S
C1597 H1653 0.929 . S
C1598 C1594 1.356 . S
C1598 C1595 1.358 . S
C1598 H1654 0.930 . S
C1599 N1596 1.314 . S
C1599 C1597 1.353 . S
C1599 H1655 0.930 . S
C1600 N1601 1.314 . S
C1600 C1605 1.353 . S
C1600 H1606 0.930 . S
N1601 Li1584 1.990 . S
N1601 C1600 1.314 . S
N1601 C1603 1.279 . S
C1602 C1603 1.358 . S
C1602 C1604 1.356 . S
C1602 H1656 0.930 . S
C1603 N1601 1.279 . S
C1603 C1602 1.358 . S
C1603 H1607 0.930 . S
C1604 C1602 1.356 . S
C1604 C1605 1.348 . S
C1605 C1600 1.353 . S
C1605 C1604 1.348 . S
C1605 H1657 0.929 . S
H1606 C1600 0.930 . S
H1607 C1603 0.930 . S
C1608 N1609 1.314 . S
C1608 C1610 1.353 . S
C1608 H1614 0.930 . S
N1609 Li1585 1.990 . S
N1609 C1608 1.314 . S
N1609 C1612 1.279 . S
C1610 C1608 1.353 . S
C1610 C1613 1.348 . S
C1610 H1658 0.929 . S
C1611 C1612 1.358 . S
C1611 C1613 1.356 . S
C1611 H1659 0.930 . S
C1612 N1609 1.279 . S
C1612 C1611 1.358 . S
C1612 H1615 0.930 . S
C1613 C1610 1.348 . S
C1613 C1611 1.356 . S
H1614 C1608 0.930 . S
H1615 C1612 0.930 . S
C1616 C1618 1.348 . S
C1616 C1619 1.356 . S
C1616 O1646 1.325 . S
N1617 C1620 1.314 . S
N1617 C1621 1.279 . S
C1618 C1616 1.348 . S
C1618 C1620 1.353 . S
C1618 H1660 0.929 . S
C1619 C1616 1.356 . S
C1619 C1621 1.358 . S
C1619 H1661 0.930 . S
C1620 N1617 1.314 . S
C1620 C1618 1.353 . S
C1620 H1662 0.930 . S
C1621 N1617 1.279 . S
C1621 C1619 1.358 . S
C1621 H1663 0.930 . S
C1622 C1623 1.348 . S
C1622 C1624 1.356 . S
C1622 O1647 1.325 . S
C1623 C1622 1.348 . S
C1623 C1625 1.353 . S
C1623 H1664 0.929 . S
C1624 C1622 1.356 . S
C1624 C1626 1.358 . S
C1624 H1665 0.930 . S
C1625 C1623 1.353 . S
C1625 N1627 1.314 . S
C1625 H1666 0.930 . S
C1626 C1624 1.358 . S
C1626 N1627 1.279 . S
C1626 H1667 0.930 . S
N1627 C1625 1.314 . S
N1627 C1626 1.279 . S
C1628 C1630 1.353 . S
C1628 N1631 1.314 . S
C1628 H1634 0.930 . S
C1629 N1631 1.279 . S
C1629 C1632 1.358 . S
C1629 H1635 0.930 . S
C1630 C1628 1.353 . S
C1630 C1633 1.348 . S
C1630 H1668 0.929 . S
N1631 Li1586 1.990 . S
N1631 C1628 1.314 . S
N1631 C1629 1.279 . S
C1632 C1629 1.358 . S
C1632 C1633 1.356 . S
C1632 H1669 0.930 . S
C1633 C1630 1.348 . S
C1633 C1632 1.356 . S
H1634 C1628 0.930 . S
H1635 C1629 0.930 . S
C1636 N1637 1.314 . S
C1636 C1638 1.353 . S
C1636 H1642 0.930 . S
N1637 Li1587 1.990 . S
N1637 C1636 1.314 . S
N1637 C1640 1.279 . S
C1638 C1636 1.353 . S
C1638 C1641 1.348 . S
C1638 H1670 0.929 . S
C1639 C1640 1.358 . S
C1639 C1641 1.356 . S
C1639 H1671 0.930 . S
C1640 N1637 1.279 . S
C1640 C1639 1.358 . S
C1640 H1643 0.930 . S
C1641 C1638 1.348 . S
C1641 C1639 1.356 . S
H1642 C1636 0.930 . S
H1643 C1640 0.930 . S
O1644 Li1584 1.956 . S
O1644 Li1585 1.970 . S
O1644 Li1586 1.961 . S
O1644 C1588 1.325 . S
O1645 Li1584 1.970 . S
O1645 Li1585 1.956 . S
O1645 Li1587 1.961 . S
O1645 C1594 1.325 . S
O1646 Li1584 1.961 . S
O1646 Li1586 1.956 . S
O1646 Li1587 1.970 . S
O1646 C1616 1.325 . S
O1647 Li1585 1.961 . S
O1647 Li1586 1.970 . S
O1647 Li1587 1.956 . S
O1647 C1622 1.325 . S
H1648 C1590 0.929 . S
H1649 C1591 0.930 . S
H1650 C1592 0.930 . S
H1651 C1593 0.930 . S
H1652 C1595 0.930 . S
H1653 C1597 0.929 . S
H1654 C1598 0.930 . S
H1655 C1599 0.930 . S
H1656 C1602 0.930 . S
H1657 C1605 0.929 . S
H1658 C1610 0.929 . S
H1659 C1611 0.930 . S
H1660 C1618 0.929 . S
H1661 C1619 0.930 . S
H1662 C1620 0.930 . S
H1663 C1621 0.930 . S
H1664 C1623 0.929 . S
H1665 C1624 0.930 . S
H1666 C1625 0.930 . S
H1667 C1626 0.930 . S
H1668 C1630 0.929 . S
H1669 C1632 0.930 . S
H1670 C1638 0.929 . S
H1671 C1639 0.930 . S
Li1672 N1689 1.990 . S
Li1672 O1732 1.956 . S
Li1672 O1733 1.970 . S
Li1672 O1734 1.961 . S
Li1673 N1697 1.990 . S
Li1673 O1732 1.970 . S
Li1673 O1733 1.956 . S
Li1673 O1735 1.961 . S
Li1674 N1719 1.990 . S
Li1674 O1732 1.961 . S
Li1674 O1734 1.956 . S
Li1674 O1735 1.970 . S
Li1675 N1725 1.990 . S
Li1675 O1733 1.961 . S
Li1675 O1734 1.970 . S
Li1675 O1735 1.956 . S
C1676 C1678 1.348 . S
C1676 C1679 1.356 . S
C1676 O1732 1.325 . S
N1677 C1680 1.314 . S
N1677 C1681 1.279 . S
C1678 C1676 1.348 . S
C1678 C1680 1.353 . S
C1678 H1736 0.929 . S
C1679 C1676 1.356 . S
C1679 C1681 1.358 . S
C1679 H1737 0.930 . S
C1680 N1677 1.314 . S
C1680 C1678 1.353 . S
C1680 H1738 0.930 . S
C1681 N1677 1.279 . S
C1681 C1679 1.358 . S
C1681 H1739 0.930 . S
C1682 C1685 1.348 . S
C1682 C1686 1.356 . S
C1682 O1733 1.325 . S
C1683 N1684 1.279 . S
C1683 C1686 1.358 . S
C1683 H1740 0.930 . S
N1684 C1683 1.279 . S
N1684 C1687 1.314 . S
C1685 C1682 1.348 . S
C1685 C1687 1.353 . S
C1685 H1741 0.929 . S
C1686 C1682 1.356 . S
C1686 C1683 1.358 . S
C1686 H1742 0.930 . S
C1687 N1684 1.314 . S
C1687 C1685 1.353 . S
C1687 H1743 0.930 . S
C1688 N1689 1.314 . S
C1688 C1693 1.353 . S
C1688 H1694 0.930 . S
N1689 Li1672 1.990 . S
N1689 C1688 1.314 . S
N1689 C1691 1.279 . S
C1690 C1691 1.358 . S
C1690 C1692 1.356 . S
C1690 H1744 0.930 . S
C1691 N1689 1.279 . S
C1691 C1690 1.358 . S
C1691 H1695 0.930 . S
C1692 C1690 1.356 . S
C1692 C1693 1.348 . S
C1693 C1688 1.353 . S
C1693 C1692 1.348 . S
C1693 H1745 0.929 . S
H1694 C1688 0.930 . S
H1695 C1691 0.930 . S
C1696 N1697 1.314 . S
C1696 C1698 1.353 . S
C1696 H1702 0.930 . S
N1697 Li1673 1.990 . S
N1697 C1696 1.314 . S
N1697 C1700 1.279 . S
C1698 C1696 1.353 . S
C1698 C1701 1.348 . S
C1698 H1746 0.929 . S
C1699 C1700 1.358 . S
C1699 C1701 1.356 . S
C1699 H1747 0.930 . S
C1700 N1697 1.279 . S
C1700 C1699 1.358 . S
C1700 H1703 0.930 . S
C1701 C1698 1.348 . S
C1701 C1699 1.356 . S
H1702 C1696 0.930 . S
H1703 C1700 0.930 . S
C1704 C1706 1.348 1_545 S
C1704 C1707 1.356 . S
C1704 O1734 1.325 . S
N1705 C1708 1.314 . S
N1705 C1709 1.279 . S
C1706 C1704 1.348 1_565 S
C1706 C1708 1.353 . S
C1706 H1748 0.929 . S
C1707 C1704 1.356 . S
C1707 C1709 1.358 1_545 S
C1707 H1749 0.930 . S
C1708 N1705 1.314 . S
C1708 C1706 1.353 . S
C1708 H1750 0.930 . S
C1709 N1705 1.279 . S
C1709 C1707 1.358 1_565 S
C1709 H1751 0.930 . S
C1710 C1711 1.348 . S
C1710 C1712 1.356 . S
C1710 O1735 1.325 . S
C1711 C1710 1.348 . S
C1711 C1713 1.353 . S
C1711 H1752 0.929 . S
C1712 C1710 1.356 . S
C1712 C1714 1.358 . S
C1712 H1753 0.930 . S
C1713 C1711 1.353 . S
C1713 N1715 1.314 . S
C1713 H1754 0.930 . S
C1714 C1712 1.358 . S
C1714 N1715 1.279 . S
C1714 H1755 0.930 . S
N1715 C1713 1.314 . S
N1715 C1714 1.279 . S
C1716 C1718 1.353 . S
C1716 N1719 1.314 . S
C1716 H1722 0.930 . S
C1717 N1719 1.279 . S
C1717 C1720 1.358 . S
C1717 H1723 0.930 . S
C1718 C1716 1.353 . S
C1718 C1721 1.348 . S
C1718 H1756 0.929 . S
N1719 Li1674 1.990 . S
N1719 C1716 1.314 . S
N1719 C1717 1.279 . S
C1720 C1717 1.358 . S
C1720 C1721 1.356 . S
C1720 H1757 0.930 . S
C1721 C1718 1.348 . S
C1721 C1720 1.356 . S
H1722 C1716 0.930 . S
H1723 C1717 0.930 . S
C1724 N1725 1.314 . S
C1724 C1726 1.353 1_545 S
C1724 H1730 0.930 . S
N1725 Li1675 1.990 . S
N1725 C1724 1.314 . S
N1725 C1728 1.279 . S
C1726 C1724 1.353 1_565 S
C1726 C1729 1.348 . S
C1726 H1758 0.929 . S
C1727 C1728 1.358 1_565 S
C1727 C1729 1.356 . S
C1727 H1759 0.930 . S
C1728 N1725 1.279 . S
C1728 C1727 1.358 1_545 S
C1728 H1731 0.930 . S
C1729 C1726 1.348 . S
C1729 C1727 1.356 . S
H1730 C1724 0.930 . S
H1731 C1728 0.930 . S
O1732 Li1672 1.956 . S
O1732 Li1673 1.970 . S
O1732 Li1674 1.961 . S
O1732 C1676 1.325 . S
O1733 Li1672 1.970 . S
O1733 Li1673 1.956 . S
O1733 Li1675 1.961 . S
O1733 C1682 1.325 . S
O1734 Li1672 1.961 . S
O1734 Li1674 1.956 . S
O1734 Li1675 1.970 . S
O1734 C1704 1.325 . S
O1735 Li1673 1.961 . S
O1735 Li1674 1.970 . S
O1735 Li1675 1.956 . S
O1735 C1710 1.325 . S
H1736 C1678 0.929 . S
H1737 C1679 0.930 . S
H1738 C1680 0.930 . S
H1739 C1681 0.930 . S
H1740 C1683 0.930 . S
H1741 C1685 0.929 . S
H1742 C1686 0.930 . S
H1743 C1687 0.930 . S
H1744 C1690 0.930 . S
H1745 C1693 0.929 . S
H1746 C1698 0.929 . S
H1747 C1699 0.930 . S
H1748 C1706 0.929 . S
H1749 C1707 0.930 . S
H1750 C1708 0.930 . S
H1751 C1709 0.930 . S
H1752 C1711 0.929 . S
H1753 C1712 0.930 . S
H1754 C1713 0.930 . S
H1755 C1714 0.930 . S
H1756 C1718 0.929 . S
H1757 C1720 0.930 . S
H1758 C1726 0.929 . S
H1759 C1727 0.930 . S
Li1760 N1777 1.990 . S
Li1760 O1820 1.956 . S
Li1760 O1821 1.970 . S
Li1760 O1822 1.961 . S
Li1761 N1785 1.990 . S
Li1761 O1820 1.970 . S
Li1761 O1821 1.956 . S
Li1761 O1823 1.961 1_554 S
Li1762 N1807 1.990 . S
Li1762 O1820 1.961 1_556 S
Li1762 O1822 1.956 1_556 S
Li1762 O1823 1.970 . S
Li1763 N1813 1.991 1_554 S
Li1763 O1821 1.974 . S
Li1763 O1822 1.970 . S
Li1763 O1823 1.943 1_554 S
C1764 C1766 1.348 . S
C1764 C1767 1.356 . S
C1764 O1820 1.325 . S
N1765 C1768 1.314 . S
N1765 C1769 1.279 . S
C1766 C1764 1.348 . S
C1766 C1768 1.353 . S
C1766 H1824 0.929 . S
C1767 C1764 1.356 . S
C1767 C1769 1.358 . S
C1767 H1825 0.930 . S
C1768 N1765 1.314 . S
C1768 C1766 1.353 . S
C1768 H1826 0.930 . S
C1769 N1765 1.279 . S
C1769 C1767 1.358 . S
C1769 H1827 0.930 . S
C1770 C1773 1.348 . S
C1770 C1774 1.356 . S
C1770 O1821 1.325 . S
C1771 N1772 1.279 . S
C1771 C1774 1.358 . S
C1771 H1828 0.930 . S
N1772 C1771 1.279 . S
N1772 C1775 1.314 . S
C1773 C1770 1.348 . S
C1773 C1775 1.353 . S
C1773 H1829 0.929 . S
C1774 C1770 1.356 . S
C1774 C1771 1.358 . S
C1774 H1830 0.930 . S
C1775 N1772 1.314 . S
C1775 C1773 1.353 . S
C1775 H1831 0.930 . S
C1776 N1777 1.314 . S
C1776 C1781 1.353 . S
C1776 H1782 0.930 . S
N1777 Li1760 1.990 . S
N1777 C1776 1.314 . S
N1777 C1779 1.279 . S
C1778 C1779 1.358 . S
C1778 C1780 1.356 . S
C1778 H1832 0.930 . S
C1779 N1777 1.279 . S
C1779 C1778 1.358 . S
C1779 H1783 0.930 . S
C1780 C1778 1.356 . S
C1780 C1781 1.348 . S
C1781 C1776 1.353 . S
C1781 C1780 1.348 . S
C1781 H1833 0.929 . S
H1782 C1776 0.930 . S
H1783 C1779 0.930 . S
C1784 N1785 1.314 1_556 S
C1784 C1786 1.353 . S
C1784 H1790 0.930 . S
N1785 Li1761 1.990 . S
N1785 C1784 1.314 1_554 S
N1785 C1788 1.279 . S
C1786 C1784 1.353 . S
C1786 C1789 1.348 1_556 S
C1786 H1834 0.929 . S
C1787 C1788 1.358 . S
C1787 C1789 1.356 . S
C1787 H1835 0.930 . S
C1788 N1785 1.279 . S
C1788 C1787 1.358 . S
C1788 H1791 0.930 . S
C1789 C1786 1.348 1_554 S
C1789 C1787 1.356 . S
H1790 C1784 0.930 . S
H1791 C1788 0.930 . S
C1792 C1794 1.348 1_554 S
C1792 C1795 1.356 . S
C1792 O1822 1.325 . S
N1793 C1796 1.314 1_554 S
N1793 C1797 1.279 . S
C1794 C1792 1.348 1_556 S
C1794 C1796 1.353 . S
C1794 H1836 0.929 . S
C1795 C1792 1.356 . S
C1795 C1797 1.358 . S
C1795 H1837 0.930 . S
C1796 N1793 1.314 1_556 S
C1796 C1794 1.353 . S
C1796 H1838 0.930 . S
C1797 N1793 1.279 . S
C1797 C1795 1.358 . S
C1797 H1839 0.930 . S
C1798 C1799 1.348 . S
C1798 C1800 1.356 . S
C1798 O1823 1.325 . S
C1799 C1798 1.348 . S
C1799 C1801 1.353 . S
C1799 H1840 0.929 . S
C1800 C1798 1.356 . S
C1800 C1802 1.358 . S
C1800 H1841 0.930 . S
C1801 C1799 1.353 . S
C1801 N1803 1.314 . S
C1801 H1842 0.930 . S
C1802 C1800 1.358 . S
C1802 N1803 1.279 . S
C1802 H1843 0.930 . S
N1803 C1801 1.314 . S
N1803 C1802 1.279 . S
C1804 C1806 1.353 . S
C1804 N1807 1.314 . S
C1804 H1810 0.930 . S
C1805 N1807 1.279 . S
C1805 C1808 1.358 . S
C1805 H1811 0.930 . S
C1806 C1804 1.353 . S
C1806 C1809 1.348 . S
C1806 H1844 0.929 . S
N1807 Li1762 1.990 . S
N1807 C1804 1.314 . S
N1807 C1805 1.279 . S
C1808 C1805 1.358 . S
C1808 C1809 1.356 . S
C1808 H1845 0.930 . S
C1809 C1806 1.348 . S
C1809 C1808 1.356 . S
H1810 C1804 0.930 . S
H1811 C1805 0.930 . S
C1812 N1813 1.314 1_554 S
C1812 C1814 1.353 . S
C1812 H1818 0.930 . S
N1813 Li1763 1.991 1_556 S
N1813 C1812 1.314 1_556 S
N1813 C1816 1.279 . S
C1814 C1812 1.353 . S
C1814 C1817 1.348 1_554 S
C1814 H1846 0.929 . S
C1815 C1816 1.358 . S
C1815 C1817 1.356 . S
C1815 H1847 0.930 . S
C1816 N1813 1.279 . S
C1816 C1815 1.358 . S
C1816 H1819 0.930 . S
C1817 C1814 1.348 1_556 S
C1817 C1815 1.356 . S
H1818 C1812 0.930 . S
H1819 C1816 0.930 . S
O1820 Li1760 1.956 . S
O1820 Li1761 1.970 . S
O1820 Li1762 1.961 1_554 S
O1820 C1764 1.325 . S
O1821 Li1760 1.970 . S
O1821 Li1761 1.956 . S
O1821 Li1763 1.974 . S
O1821 C1770 1.325 . S
O1822 Li1760 1.961 . S
O1822 Li1762 1.956 1_554 S
O1822 Li1763 1.970 . S
O1822 C1792 1.325 . S
O1823 Li1761 1.961 1_556 S
O1823 Li1762 1.970 . S
O1823 Li1763 1.943 1_556 S
O1823 C1798 1.325 . S
H1824 C1766 0.929 . S
H1825 C1767 0.930 . S
H1826 C1768 0.930 . S
H1827 C1769 0.930 . S
H1828 C1771 0.930 . S
H1829 C1773 0.929 . S
H1830 C1774 0.930 . S
H1831 C1775 0.930 . S
H1832 C1778 0.930 . S
H1833 C1781 0.929 . S
H1834 C1786 0.929 . S
H1835 C1787 0.930 . S
H1836 C1794 0.929 . S
H1837 C1795 0.930 . S
H1838 C1796 0.930 . S
H1839 C1797 0.930 . S
H1840 C1799 0.929 . S
H1841 C1800 0.930 . S
H1842 C1801 0.930 . S
H1843 C1802 0.930 . S
H1844 C1806 0.929 . S
H1845 C1808 0.930 . S
H1846 C1814 0.929 . S
H1847 C1815 0.930 . S
Li1848 N1865 1.990 . S
Li1848 O1908 1.956 . S
Li1848 O1909 1.970 . S
Li1848 O1910 1.961 . S
Li1849 N1873 1.990 . S
Li1849 O1908 1.970 . S
Li1849 O1909 1.956 . S
Li1849 O1911 1.961 . S
Li1850 N1895 1.990 . S
Li1850 O1908 1.961 . S
Li1850 O1910 1.956 . S
Li1850 O1911 1.970 . S
Li1851 N1901 1.990 . S
Li1851 O1909 1.961 . S
Li1851 O1910 1.970 . S
Li1851 O1911 1.956 . S
C1852 C1854 1.348 . S
C1852 C1855 1.356 . S
C1852 O1908 1.325 . S
N1853 C1856 1.314 . S
N1853 C1857 1.279 . S
C1854 C1852 1.348 . S
C1854 C1856 1.353 . S
C1854 H1912 0.929 . S
C1855 C1852 1.356 . S
C1855 C1857 1.358 . S
C1855 H1913 0.930 . S
C1856 N1853 1.314 . S
C1856 C1854 1.353 . S
C1856 H1914 0.930 . S
C1857 N1853 1.279 . S
C1857 C1855 1.358 . S
C1857 H1915 0.930 . S
C1858 C1861 1.348 . S
C1858 C1862 1.356 . S
C1858 O1909 1.325 . S
C1859 N1860 1.279 . S
C1859 C1862 1.358 . S
C1859 H1916 0.930 . S
N1860 C1859 1.279 . S
N1860 C1863 1.314 . S
C1861 C1858 1.348 . S
C1861 C1863 1.353 . S
C1861 H1917 0.929 . S
C1862 C1858 1.356 . S
C1862 C1859 1.358 . S
C1862 H1918 0.930 . S
C1863 N1860 1.314 . S
C1863 C1861 1.353 . S
C1863 H1919 0.930 . S
C1864 N1865 1.314 . S
C1864 C1869 1.353 . S
C1864 H1870 0.930 . S
N1865 Li1848 1.990 . S
N1865 C1864 1.314 . S
N1865 C1867 1.279 . S
C1866 C1867 1.358 . S
C1866 C1868 1.356 . S
C1866 H1920 0.930 . S
C1867 N1865 1.279 . S
C1867 C1866 1.358 . S
C1867 H1871 0.930 . S
C1868 C1866 1.356 . S
C1868 C1869 1.348 . S
C1869 C1864 1.353 . S
C1869 C1868 1.348 . S
C1869 H1921 0.929 . S
H1870 C1864 0.930 . S
H1871 C1867 0.930 . S
C1872 N1873 1.314 . S
C1872 C1874 1.353 . S
C1872 H1878 0.930 . S
N1873 Li1849 1.990 . S
N1873 C1872 1.314 . S
N1873 C1876 1.279 . S
C1874 C1872 1.353 . S
C1874 C1877 1.348 . S
C1874 H1922 0.929 . S
C1875 C1876 1.358 . S
C1875 C1877 1.356 . S
C1875 H1923 0.930 . S
C1876 N1873 1.279 . S
C1876 C1875 1.358 . S
C1876 H1879 0.930 . S
C1877 C1874 1.348 . S
C1877 C1875 1.356 . S
H1878 C1872 0.930 . S
H1879 C1876 0.930 . S
C1880 C1882 1.348 . S
C1880 C1883 1.356 . S
C1880 O1910 1.325 . S
N1881 C1884 1.314 . S
N1881 C1885 1.279 . S
C1882 C1880 1.348 . S
C1882 C1884 1.353 . S
C1882 H1924 0.929 . S
C1883 C1880 1.356 . S
C1883 C1885 1.358 . S
C1883 H1925 0.930 . S
C1884 N1881 1.314 . S
C1884 C1882 1.353 . S
C1884 H1926 0.930 . S
C1885 N1881 1.279 . S
C1885 C1883 1.358 . S
C1885 H1927 0.930 . S
C1886 C1887 1.348 . S
C1886 C1888 1.356 . S
C1886 O1911 1.325 . S
C1887 C1886 1.348 . S
C1887 C1889 1.353 . S
C1887 H1928 0.929 . S
C1888 C1886 1.356 . S
C1888 C1890 1.358 . S
C1888 H1929 0.930 . S
C1889 C1887 1.353 . S
C1889 N1891 1.314 . S
C1889 H1930 0.930 . S
C1890 C1888 1.358 . S
C1890 N1891 1.279 . S
C1890 H1931 0.930 . S
N1891 C1889 1.314 . S
N1891 C1890 1.279 . S
C1892 C1894 1.353 . S
C1892 N1895 1.314 . S
C1892 H1898 0.930 . S
C1893 N1895 1.279 . S
C1893 C1896 1.358 . S
C1893 H1899 0.930 . S
C1894 C1892 1.353 . S
C1894 C1897 1.348 . S
C1894 H1932 0.929 . S
N1895 Li1850 1.990 . S
N1895 C1892 1.314 . S
N1895 C1893 1.279 . S
C1896 C1893 1.358 . S
C1896 C1897 1.356 . S
C1896 H1933 0.930 . S
C1897 C1894 1.348 . S
C1897 C1896 1.356 . S
H1898 C1892 0.930 . S
H1899 C1893 0.930 . S
C1900 N1901 1.314 . S
C1900 C1902 1.353 . S
C1900 H1906 0.930 . S
N1901 Li1851 1.990 . S
N1901 C1900 1.314 . S
N1901 C1904 1.279 . S
C1902 C1900 1.353 . S
C1902 C1905 1.348 . S
C1902 H1934 0.929 . S
C1903 C1904 1.358 . S
C1903 C1905 1.356 . S
C1903 H1935 0.930 . S
C1904 N1901 1.279 . S
C1904 C1903 1.358 . S
C1904 H1907 0.930 . S
C1905 C1902 1.348 . S
C1905 C1903 1.356 . S
H1906 C1900 0.930 . S
H1907 C1904 0.930 . S
O1908 Li1848 1.956 . S
O1908 Li1849 1.970 . S
O1908 Li1850 1.961 . S
O1908 C1852 1.325 . S
O1909 Li1848 1.970 . S
O1909 Li1849 1.956 . S
O1909 Li1851 1.961 . S
O1909 C1858 1.325 . S
O1910 Li1848 1.961 . S
O1910 Li1850 1.956 . S
O1910 Li1851 1.970 . S
O1910 C1880 1.325 . S
O1911 Li1849 1.961 . S
O1911 Li1850 1.970 . S
O1911 Li1851 1.956 . S
O1911 C1886 1.325 . S
H1912 C1854 0.929 . S
H1913 C1855 0.930 . S
H1914 C1856 0.930 . S
H1915 C1857 0.930 . S
H1916 C1859 0.930 . S
H1917 C1861 0.929 . S
H1918 C1862 0.930 . S
H1919 C1863 0.930 . S
H1920 C1866 0.930 . S
H1921 C1869 0.929 . S
H1922 C1874 0.929 . S
H1923 C1875 0.930 . S
H1924 C1882 0.929 . S
H1925 C1883 0.930 . S
H1926 C1884 0.930 . S
H1927 C1885 0.930 . S
H1928 C1887 0.929 . S
H1929 C1888 0.930 . S
H1930 C1889 0.930 . S
H1931 C1890 0.930 . S
H1932 C1894 0.929 . S
H1933 C1896 0.930 . S
H1934 C1902 0.929 . S
H1935 C1903 0.930 . S
Li1936 N1953 1.990 . S
Li1936 O1996 1.956 . S
Li1936 O1997 1.970 . S
Li1936 O1998 1.961 . S
Li1937 N1961 1.990 . S
Li1937 O1996 1.970 . S
Li1937 O1997 1.956 . S
Li1937 O1999 1.961 . S
Li1938 N1983 1.990 . S
Li1938 O1996 1.961 . S
Li1938 O1998 1.956 . S
Li1938 O1999 1.970 . S
Li1939 N1989 1.990 . S
Li1939 O1997 1.961 . S
Li1939 O1998 1.970 . S
Li1939 O1999 1.956 . S
C1940 C1942 1.348 . S
C1940 C1943 1.356 . S
C1940 O1996 1.325 . S
N1941 C1944 1.314 . S
N1941 C1945 1.279 . S
C1942 C1940 1.348 . S
C1942 C1944 1.353 . S
C1942 H2000 0.929 . S
C1943 C1940 1.356 . S
C1943 C1945 1.358 . S
C1943 H2001 0.930 . S
C1944 N1941 1.314 . S
C1944 C1942 1.353 . S
C1944 H2002 0.930 . S
C1945 N1941 1.279 . S
C1945 C1943 1.358 . S
C1945 H2003 0.930 . S
C1946 C1949 1.348 . S
C1946 C1950 1.356 . S
C1946 O1997 1.325 . S
C1947 N1948 1.279 . S
C1947 C1950 1.358 . S
C1947 H2004 0.930 . S
N1948 C1947 1.279 . S
N1948 C1951 1.314 . S
C1949 C1946 1.348 . S
C1949 C1951 1.353 . S
C1949 H2005 0.929 . S
C1950 C1946 1.356 . S
C1950 C1947 1.358 . S
C1950 H2006 0.930 . S
C1951 N1948 1.314 . S
C1951 C1949 1.353 . S
C1951 H2007 0.930 . S
C1952 N1953 1.314 . S
C1952 C1957 1.353 . S
C1952 H1958 0.930 . S
N1953 Li1936 1.990 . S
N1953 C1952 1.314 . S
N1953 C1955 1.279 . S
C1954 C1955 1.358 . S
C1954 C1956 1.356 . S
C1954 H2008 0.930 . S
C1955 N1953 1.279 . S
C1955 C1954 1.358 . S
C1955 H1959 0.930 . S
C1956 C1954 1.356 . S
C1956 C1957 1.348 . S
C1957 C1952 1.353 . S
C1957 C1956 1.348 . S
C1957 H2009 0.929 . S
H1958 C1952 0.930 . S
H1959 C1955 0.930 . S
C1960 N1961 1.314 . S
C1960 C1962 1.353 . S
C1960 H1966 0.930 . S
N1961 Li1937 1.990 . S
N1961 C1960 1.314 . S
N1961 C1964 1.279 . S
C1962 C1960 1.353 . S
C1962 C1965 1.348 . S
C1962 H2010 0.929 . S
C1963 C1964 1.358 . S
C1963 C1965 1.356 . S
C1963 H2011 0.930 . S
C1964 N1961 1.279 . S
C1964 C1963 1.358 . S
C1964 H1967 0.930 . S
C1965 C1962 1.348 . S
C1965 C1963 1.356 . S
H1966 C1960 0.930 . S
H1967 C1964 0.930 . S
C1968 C1970 1.348 . S
C1968 C1971 1.356 . S
C1968 O1998 1.325 . S
N1969 C1972 1.314 . S
N1969 C1973 1.279 . S
C1970 C1968 1.348 . S
C1970 C1972 1.353 . S
C1970 H2012 0.929 . S
C1971 C1968 1.356 . S
C1971 C1973 1.358 . S
C1971 H2013 0.930 . S
C1972 N1969 1.314 . S
C1972 C1970 1.353 . S
C1972 H2014 0.930 . S
C1973 N1969 1.279 . S
C1973 C1971 1.358 . S
C1973 H2015 0.930 . S
C1974 C1975 1.348 . S
C1974 C1976 1.356 . S
C1974 O1999 1.325 . S
C1975 C1974 1.348 . S
C1975 C1977 1.353 . S
C1975 H2016 0.929 . S
C1976 C1974 1.356 . S
C1976 C1978 1.358 . S
C1976 H2017 0.930 . S
C1977 C1975 1.353 . S
C1977 N1979 1.314 . S
C1977 H2018 0.930 . S
C1978 C1976 1.358 . S
C1978 N1979 1.279 . S
C1978 H2019 0.930 . S
N1979 C1977 1.314 . S
N1979 C1978 1.279 . S
C1980 C1982 1.353 . S
C1980 N1983 1.314 . S
C1980 H1986 0.930 . S
C1981 N1983 1.279 . S
C1981 C1984 1.358 . S
C1981 H1987 0.930 . S
C1982 C1980 1.353 . S
C1982 C1985 1.348 . S
C1982 H2020 0.929 . S
N1983 Li1938 1.990 . S
N1983 C1980 1.314 . S
N1983 C1981 1.279 . S
C1984 C1981 1.358 . S
C1984 C1985 1.356 . S
C1984 H2021 0.930 . S
C1985 C1982 1.348 . S
C1985 C1984 1.356 . S
H1986 C1980 0.930 . S
H1987 C1981 0.930 . S
C1988 N1989 1.314 . S
C1988 C1990 1.353 . S
C1988 H1994 0.930 . S
N1989 Li1939 1.990 . S
N1989 C1988 1.314 . S
N1989 C1992 1.279 . S
C1990 C1988 1.353 . S
C1990 C1993 1.348 . S
C1990 H2022 0.929 . S
C1991 C1992 1.358 . S
C1991 C1993 1.356 . S
C1991 H2023 0.930 . S
C1992 N1989 1.279 . S
C1992 C1991 1.358 . S
C1992 H1995 0.930 . S
C1993 C1990 1.348 . S
C1993 C1991 1.356 . S
H1994 C1988 0.930 . S
H1995 C1992 0.930 . S
O1996 Li1936 1.956 . S
O1996 Li1937 1.970 . S
O1996 Li1938 1.961 . S
O1996 C1940 1.325 . S
O1997 Li1936 1.970 . S
O1997 Li1937 1.956 . S
O1997 Li1939 1.961 . S
O1997 C1946 1.325 . S
O1998 Li1936 1.961 . S
O1998 Li1938 1.956 . S
O1998 Li1939 1.970 . S
O1998 C1968 1.325 . S
O1999 Li1937 1.961 . S
O1999 Li1938 1.970 . S
O1999 Li1939 1.956 . S
O1999 C1974 1.325 . S
H2000 C1942 0.929 . S
H2001 C1943 0.930 . S
H2002 C1944 0.930 . S
H2003 C1945 0.930 . S
H2004 C1947 0.930 . S
H2005 C1949 0.929 . S
H2006 C1950 0.930 . S
H2007 C1951 0.930 . S
H2008 C1954 0.930 . S
H2009 C1957 0.929 . S
H2010 C1962 0.929 . S
H2011 C1963 0.930 . S
H2012 C1970 0.929 . S
H2013 C1971 0.930 . S
H2014 C1972 0.930 . S
H2015 C1973 0.930 . S
H2016 C1975 0.929 . S
H2017 C1976 0.930 . S
H2018 C1977 0.930 . S
H2019 C1978 0.930 . S
H2020 C1982 0.929 . S
H2021 C1984 0.930 . S
H2022 C1990 0.929 . S
H2023 C1991 0.930 . S
Li2024 N2041 1.990 . S
Li2024 O2084 1.956 . S
Li2024 O2085 1.970 . S
Li2024 O2086 1.961 . S
Li2025 N2049 1.990 . S
Li2025 O2084 1.970 . S
Li2025 O2085 1.956 . S
Li2025 O2087 1.961 . S
Li2026 N2071 1.990 . S
Li2026 O2084 1.961 . S
Li2026 O2086 1.956 . S
Li2026 O2087 1.970 . S
Li2027 N2077 1.990 . S
Li2027 O2085 1.961 . S
Li2027 O2086 1.970 . S
Li2027 O2087 1.956 . S
C2028 C2030 1.348 . S
C2028 C2031 1.356 . S
C2028 O2084 1.325 . S
N2029 C2032 1.314 . S
N2029 C2033 1.279 . S
C2030 C2028 1.348 . S
C2030 C2032 1.353 . S
C2030 H2088 0.929 . S
C2031 C2028 1.356 . S
C2031 C2033 1.358 . S
C2031 H2089 0.930 . S
C2032 N2029 1.314 . S
C2032 C2030 1.353 . S
C2032 H2090 0.930 . S
C2033 N2029 1.279 . S
C2033 C2031 1.358 . S
C2033 H2091 0.930 . S
C2034 C2037 1.348 . S
C2034 C2038 1.356 . S
C2034 O2085 1.325 . S
C2035 N2036 1.279 . S
C2035 C2038 1.358 . S
C2035 H2092 0.930 . S
N2036 C2035 1.279 . S
N2036 C2039 1.314 . S
C2037 C2034 1.348 . S
C2037 C2039 1.353 . S
C2037 H2093 0.929 . S
C2038 C2034 1.356 . S
C2038 C2035 1.358 . S
C2038 H2094 0.930 . S
C2039 N2036 1.314 . S
C2039 C2037 1.353 . S
C2039 H2095 0.930 . S
C2040 N2041 1.314 . S
C2040 C2045 1.353 . S
C2040 H2046 0.930 . S
N2041 Li2024 1.990 . S
N2041 C2040 1.314 . S
N2041 C2043 1.279 . S
C2042 C2043 1.358 . S
C2042 C2044 1.356 . S
C2042 H2096 0.930 . S
C2043 N2041 1.279 . S
C2043 C2042 1.358 . S
C2043 H2047 0.930 . S
C2044 C2042 1.356 . S
C2044 C2045 1.348 . S
C2045 C2040 1.353 . S
C2045 C2044 1.348 . S
C2045 H2097 0.929 . S
H2046 C2040 0.930 . S
H2047 C2043 0.930 . S
C2048 N2049 1.314 . S
C2048 C2050 1.353 . S
C2048 H2054 0.930 . S
N2049 Li2025 1.990 . S
N2049 C2048 1.314 . S
N2049 C2052 1.279 . S
C2050 C2048 1.353 . S
C2050 C2053 1.348 . S
C2050 H2098 0.929 . S
C2051 C2052 1.358 . S
C2051 C2053 1.356 . S
C2051 H2099 0.930 . S
C2052 N2049 1.279 . S
C2052 C2051 1.358 . S
C2052 H2055 0.930 . S
C2053 C2050 1.348 . S
C2053 C2051 1.356 . S
H2054 C2048 0.930 . S
H2055 C2052 0.930 . S
C2056 C2058 1.348 . S
C2056 C2059 1.356 . S
C2056 O2086 1.325 . S
N2057 C2060 1.314 . S
N2057 C2061 1.279 . S
C2058 C2056 1.348 . S
C2058 C2060 1.353 . S
C2058 H2100 0.929 . S
C2059 C2056 1.356 . S
C2059 C2061 1.358 . S
C2059 H2101 0.930 . S
C2060 N2057 1.314 . S
C2060 C2058 1.353 . S
C2060 H2102 0.930 . S
C2061 N2057 1.279 . S
C2061 C2059 1.358 . S
C2061 H2103 0.930 . S
C2062 C2063 1.348 . S
C2062 C2064 1.356 . S
C2062 O2087 1.325 . S
C2063 C2062 1.348 . S
C2063 C2065 1.353 . S
C2063 H2104 0.929 . S
C2064 C2062 1.356 . S
C2064 C2066 1.358 . S
C2064 H2105 0.930 . S
C2065 C2063 1.353 . S
C2065 N2067 1.314 . S
C2065 H2106 0.930 . S
C2066 C2064 1.358 . S
C2066 N2067 1.279 . S
C2066 H2107 0.930 . S
N2067 C2065 1.314 . S
N2067 C2066 1.279 . S
C2068 C2070 1.353 . S
C2068 N2071 1.314 . S
C2068 H2074 0.930 . S
C2069 N2071 1.279 . S
C2069 C2072 1.358 . S
C2069 H2075 0.930 . S
C2070 C2068 1.353 . S
C2070 C2073 1.348 . S
C2070 H2108 0.929 . S
N2071 Li2026 1.990 . S
N2071 C2068 1.314 . S
N2071 C2069 1.279 . S
C2072 C2069 1.358 . S
C2072 C2073 1.356 . S
C2072 H2109 0.930 . S
C2073 C2070 1.348 . S
C2073 C2072 1.356 . S
H2074 C2068 0.930 . S
H2075 C2069 0.930 . S
C2076 N2077 1.314 . S
C2076 C2078 1.353 . S
C2076 H2082 0.930 . S
N2077 Li2027 1.990 . S
N2077 C2076 1.314 . S
N2077 C2080 1.279 . S
C2078 C2076 1.353 . S
C2078 C2081 1.348 . S
C2078 H2110 0.929 . S
C2079 C2080 1.358 . S
C2079 C2081 1.356 . S
C2079 H2111 0.930 . S
C2080 N2077 1.279 . S
C2080 C2079 1.358 . S
C2080 H2083 0.930 . S
C2081 C2078 1.348 . S
C2081 C2079 1.356 . S
H2082 C2076 0.930 . S
H2083 C2080 0.930 . S
O2084 Li2024 1.956 . S
O2084 Li2025 1.970 . S
O2084 Li2026 1.961 . S
O2084 C2028 1.325 . S
O2085 Li2024 1.970 . S
O2085 Li2025 1.956 . S
O2085 Li2027 1.961 . S
O2085 C2034 1.325 . S
O2086 Li2024 1.961 . S
O2086 Li2026 1.956 . S
O2086 Li2027 1.970 . S
O2086 C2056 1.325 . S
O2087 Li2025 1.961 . S
O2087 Li2026 1.970 . S
O2087 Li2027 1.956 . S
O2087 C2062 1.325 . S
H2088 C2030 0.929 . S
H2089 C2031 0.930 . S
H2090 C2032 0.930 . S
H2091 C2033 0.930 . S
H2092 C2035 0.930 . S
H2093 C2037 0.929 . S
H2094 C2038 0.930 . S
H2095 C2039 0.930 . S
H2096 C2042 0.930 . S
H2097 C2045 0.929 . S
H2098 C2050 0.929 . S
H2099 C2051 0.930 . S
H2100 C2058 0.929 . S
H2101 C2059 0.930 . S
H2102 C2060 0.930 . S
H2103 C2061 0.930 . S
H2104 C2063 0.929 . S
H2105 C2064 0.930 . S
H2106 C2065 0.930 . S
H2107 C2066 0.930 . S
H2108 C2070 0.929 . S
H2109 C2072 0.930 . S
H2110 C2078 0.929 . S
H2111 C2079 0.930 . S
Gd2112 C2115 2.818 1_455 S
Gd2112 O2132 2.377 . S
Gd2112 O2134 2.448 1_455 S
Gd2112 O2135 2.506 1_456 S
Gd2112 O2136 2.435 . S
Gd2112 O2137 2.717 . S
Gd2112 O2139 2.395 1_546 S
Gd2112 O2143 2.327 1_556 S
Gd2113 C2124 2.818 . S
Gd2113 O2133 2.395 . S
Gd2113 O2137 2.327 1_554 S
Gd2113 O2138 2.377 . S
Gd2113 O2140 2.448 . S
Gd2113 O2141 2.506 . S
Gd2113 O2142 2.435 . S
Gd2113 O2143 2.717 . S
C2114 O2132 1.240 1_554 S
C2114 O2133 1.240 . S
C2115 Gd2112 2.818 1_655 S
C2115 C2116 1.510 . S
C2115 O2134 1.249 . S
C2115 O2135 1.252 1_556 S
C2116 C2115 1.510 . S
C2116 C2117 1.404 . S
C2116 C2118 1.352 1_556 S
C2117 C2116 1.404 . S
C2117 C2121 1.389 . S
C2117 H2144 0.930 . S
C2118 C2116 1.352 1_554 S
C2118 C2120 1.374 1_554 S
C2118 H2145 0.931 . S
C2119 C2120 1.359 . S
C2119 C2121 1.364 . S
C2120 C2118 1.374 1_556 S
C2120 C2119 1.359 . S
C2120 H2146 0.931 1_556 S
C2121 C2117 1.389 . S
C2121 C2119 1.364 . S
C2121 H2147 0.931 . S
C2122 O2136 1.256 . S
C2122 O2137 1.257 . S
C2123 O2138 1.240 1_565 S
C2123 O2139 1.240 . S
C2124 Gd2113 2.818 . S
C2124 C2125 1.510 . S
C2124 O2140 1.249 . S
C2124 O2141 1.252 . S
C2125 C2124 1.510 . S
C2125 C2126 1.404 . S
C2125 C2127 1.352 . S
C2126 C2125 1.404 . S
C2126 C2130 1.389 . S
C2126 H2148 0.930 . S
C2127 C2125 1.352 . S
C2127 C2129 1.374 1_545 S
C2127 H2149 0.932 1_545 S
C2128 C2129 1.359 1_545 S
C2128 C2130 1.376 . S
C2129 C2127 1.374 1_565 S
C2129 C2128 1.359 1_565 S
C2129 H2150 0.931 . S
C2130 C2126 1.389 . S
C2130 C2128 1.376 . S
C2130 H2151 0.931 . S
C2131 O2142 1.256 . S
C2131 O2143 1.257 . S
O2132 Gd2112 2.377 . S
O2132 C2114 1.240 1_556 S
O2133 Gd2113 2.395 . S
O2133 C2114 1.240 . S
O2134 Gd2112 2.448 1_655 S
O2134 C2115 1.249 . S
O2135 Gd2112 2.506 1_654 S
O2135 C2115 1.252 1_554 S
O2136 Gd2112 2.435 . S
O2136 C2122 1.256 . S
O2137 Gd2112 2.717 . S
O2137 Gd2113 2.327 1_556 S
O2137 C2122 1.257 . S
O2138 Gd2113 2.377 . S
O2138 C2123 1.240 1_545 S
O2139 Gd2112 2.395 1_564 S
O2139 C2123 1.240 . S
O2140 Gd2113 2.448 . S
O2140 C2124 1.249 . S
O2141 Gd2113 2.506 . S
O2141 C2124 1.252 . S
O2142 Gd2113 2.435 . S
O2142 C2131 1.256 . S
O2143 Gd2112 2.327 1_554 S
O2143 Gd2113 2.717 . S
O2143 C2131 1.257 . S
H2144 C2117 0.930 . S
H2145 C2118 0.931 . S
H2146 C2120 0.931 1_554 S
H2147 C2121 0.931 . S
H2148 C2126 0.930 . S
H2149 C2127 0.932 1_565 S
H2150 C2129 0.931 . S
H2151 C2130 0.931 . S
Gd2152 C2155 2.818 . S
Gd2152 O2172 2.377 . S
Gd2152 O2174 2.448 . S
Gd2152 O2175 2.506 . S
Gd2152 O2176 2.435 . S
Gd2152 O2177 2.717 . S
Gd2152 O2179 2.395 . S
Gd2152 O2183 2.327 . S
Gd2153 C2164 2.818 . S
Gd2153 O2173 2.395 . S
Gd2153 O2177 2.327 . S
Gd2153 O2178 2.377 . S
Gd2153 O2180 2.448 . S
Gd2153 O2181 2.506 . S
Gd2153 O2182 2.435 . S
Gd2153 O2183 2.717 . S
C2154 O2172 1.240 . S
C2154 O2173 1.240 . S
C2155 Gd2152 2.818 . S
C2155 C2156 1.510 . S
C2155 O2174 1.249 . S
C2155 O2175 1.252 . S
C2156 C2155 1.510 . S
C2156 C2157 1.404 . S
C2156 C2158 1.352 . S
C2157 C2156 1.404 . S
C2157 C2161 1.389 . S
C2157 H2184 0.930 . S
C2158 C2156 1.352 . S
C2158 C2160 1.374 . S
C2158 H2185 0.931 . S
C2159 C2160 1.359 . S
C2159 C2161 1.364 . S
C2160 C2158 1.374 . S
C2160 C2159 1.359 . S
C2160 H2186 0.931 . S
C2161 C2157 1.389 . S
C2161 C2159 1.364 . S
C2161 H2187 0.931 . S
C2162 O2176 1.256 . S
C2162 O2177 1.257 . S
C2163 O2178 1.240 . S
C2163 O2179 1.240 . S
C2164 Gd2153 2.818 . S
C2164 C2165 1.510 . S
C2164 O2180 1.249 . S
C2164 O2181 1.252 . S
C2165 C2164 1.510 . S
C2165 C2166 1.404 . S
C2165 C2167 1.352 . S
C2166 C2165 1.404 . S
C2166 C2170 1.389 . S
C2166 H2188 0.930 . S
C2167 C2165 1.352 . S
C2167 C2169 1.374 . S
C2167 H2189 0.931 . S
C2168 C2169 1.359 . S
C2168 C2170 1.364 . S
C2169 C2167 1.374 . S
C2169 C2168 1.359 . S
C2169 H2190 0.931 . S
C2170 C2166 1.389 . S
C2170 C2168 1.364 . S
C2170 H2191 0.931 . S
C2171 O2182 1.256 . S
C2171 O2183 1.257 . S
O2172 Gd2152 2.377 . S
O2172 C2154 1.240 . S
O2173 Gd2153 2.395 . S
O2173 C2154 1.240 . S
O2174 Gd2152 2.448 . S
O2174 C2155 1.249 . S
O2175 Gd2152 2.506 . S
O2175 C2155 1.252 . S
O2176 Gd2152 2.435 . S
O2176 C2162 1.256 . S
O2177 Gd2152 2.717 . S
O2177 Gd2153 2.327 . S
O2177 C2162 1.257 . S
O2178 Gd2153 2.377 . S
O2178 C2163 1.240 . S
O2179 Gd2152 2.395 . S
O2179 C2163 1.240 . S
O2180 Gd2153 2.448 . S
O2180 C2164 1.249 . S
O2181 Gd2153 2.506 . S
O2181 C2164 1.252 . S
O2182 Gd2153 2.435 . S
O2182 C2171 1.256 . S
O2183 Gd2152 2.327 . S
O2183 Gd2153 2.717 . S
O2183 C2171 1.257 . S
H2184 C2157 0.930 . S
H2185 C2158 0.931 . S
H2186 C2160 0.931 . S
H2187 C2161 0.931 . S
H2188 C2166 0.930 . S
H2189 C2167 0.931 . S
H2190 C2169 0.931 . S
H2191 C2170 0.931 . S
Gd2192 C2195 2.818 . S
Gd2192 O2212 2.411 . S
Gd2192 O2214 2.448 . S
Gd2192 O2215 2.506 . S
Gd2192 O2216 2.435 . S
Gd2192 O2217 2.717 . S
Gd2192 O2219 2.395 . S
Gd2192 O2223 2.327 . S
Gd2193 C2204 2.818 . S
Gd2193 O2213 2.395 1_545 S
Gd2193 O2217 2.327 . S
Gd2193 O2218 2.377 . S
Gd2193 O2220 2.448 . S
Gd2193 O2221 2.506 . S
Gd2193 O2222 2.435 . S
Gd2193 O2223 2.717 . S
C2194 O2212 1.220 1_565 S
C2194 O2213 1.240 . S
C2195 Gd2192 2.818 . S
C2195 C2196 1.510 1_545 S
C2195 O2214 1.249 . S
C2195 O2215 1.252 . S
C2196 C2195 1.510 1_565 S
C2196 C2197 1.404 . S
C2196 C2198 1.352 . S
C2197 C2196 1.404 . S
C2197 C2201 1.389 . S
C2197 H2224 0.930 1_565 S
C2198 C2196 1.352 . S
C2198 C2200 1.374 . S
C2198 H2225 0.931 . S
C2199 C2200 1.359 . S
C2199 C2201 1.364 . S
C2200 C2198 1.374 . S
C2200 C2199 1.359 . S
C2200 H2226 0.931 . S
C2201 C2197 1.389 . S
C2201 C2199 1.364 . S
C2201 H2227 0.931 . S
C2202 O2216 1.256 . S
C2202 O2217 1.257 . S
C2203 O2218 1.240 . S
C2203 O2219 1.240 . S
C2204 Gd2193 2.818 . S
C2204 C2205 1.510 . S
C2204 O2220 1.249 . S
C2204 O2221 1.252 . S
C2205 C2204 1.510 . S
C2205 C2206 1.404 . S
C2205 C2207 1.352 . S
C2206 C2205 1.404 . S
C2206 C2210 1.389 . S
C2206 H2228 0.930 . S
C2207 C2205 1.352 . S
C2207 C2209 1.374 . S
C2207 H2229 0.931 . S
C2208 C2209 1.359 . S
C2208 C2210 1.364 . S
C2209 C2207 1.374 . S
C2209 C2208 1.359 . S
C2209 H2230 0.931 . S
C2210 C2206 1.389 . S
C2210 C2208 1.364 . S
C2210 H2231 0.931 . S
C2211 O2222 1.256 . S
C2211 O2223 1.257 . S
O2212 Gd2192 2.411 . S
O2212 C2194 1.220 1_545 S
O2213 Gd2193 2.395 1_565 S
O2213 C2194 1.240 . S
O2214 Gd2192 2.448 . S
O2214 C2195 1.249 . S
O2215 Gd2192 2.506 . S
O2215 C2195 1.252 . S
O2216 Gd2192 2.435 . S
O2216 C2202 1.256 . S
O2217 Gd2192 2.717 . S
O2217 Gd2193 2.327 . S
O2217 C2202 1.257 . S
O2218 Gd2193 2.377 . S
O2218 C2203 1.240 . S
O2219 Gd2192 2.395 . S
O2219 C2203 1.240 . S
O2220 Gd2193 2.448 . S
O2220 C2204 1.249 . S
O2221 Gd2193 2.506 . S
O2221 C2204 1.252 . S
O2222 Gd2193 2.435 . S
O2222 C2211 1.256 . S
O2223 Gd2192 2.327 . S
O2223 Gd2193 2.717 . S
O2223 C2211 1.257 . S
H2224 C2197 0.930 1_545 S
H2225 C2198 0.931 . S
H2226 C2200 0.931 . S
H2227 C2201 0.931 . S
H2228 C2206 0.930 . S
H2229 C2207 0.931 . S
H2230 C2209 0.931 . S
H2231 C2210 0.931 . S
Gd2232 C2235 2.818 . S
Gd2232 O2252 2.377 . S
Gd2232 O2254 2.448 . S
Gd2232 O2255 2.506 . S
Gd2232 O2256 2.435 . S
Gd2232 O2257 2.717 . S
Gd2232 O2259 2.395 . S
Gd2232 O2263 2.327 . S
Gd2233 C2244 2.818 . S
Gd2233 O2253 2.395 . S
Gd2233 O2257 2.327 . S
Gd2233 O2258 2.377 . S
Gd2233 O2260 2.448 . S
Gd2233 O2261 2.506 . S
Gd2233 O2262 2.435 . S
Gd2233 O2263 2.717 . S
C2234 O2252 1.240 . S
C2234 O2253 1.240 . S
C2235 Gd2232 2.818 . S
C2235 C2236 1.510 . S
C2235 O2254 1.249 . S
C2235 O2255 1.252 . S
C2236 C2235 1.510 . S
C2236 C2237 1.404 . S
C2236 C2238 1.352 . S
C2237 C2236 1.404 . S
C2237 C2241 1.389 . S
C2237 H2264 0.930 . S
C2238 C2236 1.352 . S
C2238 C2240 1.374 . S
C2238 H2265 0.931 . S
C2239 C2240 1.359 . S
C2239 C2241 1.364 . S
C2240 C2238 1.374 . S
C2240 C2239 1.359 . S
C2240 H2266 0.931 . S
C2241 C2237 1.389 . S
C2241 C2239 1.364 . S
C2241 H2267 0.931 . S
C2242 O2256 1.256 . S
C2242 O2257 1.257 . S
C2243 O2258 1.240 . S
C2243 O2259 1.240 . S
C2244 Gd2233 2.818 . S
C2244 C2245 1.510 . S
C2244 O2260 1.249 . S
C2244 O2261 1.252 . S
C2245 C2244 1.510 . S
C2245 C2246 1.404 . S
C2245 C2247 1.352 . S
C2246 C2245 1.404 . S
C2246 C2250 1.389 . S
C2246 H2268 0.930 . S
C2247 C2245 1.352 . S
C2247 C2249 1.374 . S
C2247 H2269 0.931 . S
C2248 C2249 1.359 . S
C2248 C2250 1.364 . S
C2249 C2247 1.374 . S
C2249 C2248 1.359 . S
C2249 H2270 0.931 . S
C2250 C2246 1.389 . S
C2250 C2248 1.364 . S
C2250 H2271 0.931 . S
C2251 O2262 1.256 . S
C2251 O2263 1.257 . S
O2252 Gd2232 2.377 . S
O2252 C2234 1.240 . S
O2253 Gd2233 2.395 . S
O2253 C2234 1.240 . S
O2254 Gd2232 2.448 . S
O2254 C2235 1.249 . S
O2255 Gd2232 2.506 . S
O2255 C2235 1.252 . S
O2256 Gd2232 2.435 . S
O2256 C2242 1.256 . S
O2257 Gd2232 2.717 . S
O2257 Gd2233 2.327 . S
O2257 C2242 1.257 . S
O2258 Gd2233 2.377 . S
O2258 C2243 1.240 . S
O2259 Gd2232 2.395 . S
O2259 C2243 1.240 . S
O2260 Gd2233 2.448 . S
O2260 C2244 1.249 . S
O2261 Gd2233 2.506 . S
O2261 C2244 1.252 . S
O2262 Gd2233 2.435 . S
O2262 C2251 1.256 . S
O2263 Gd2232 2.327 . S
O2263 Gd2233 2.717 . S
O2263 C2251 1.257 . S
H2264 C2237 0.930 . S
H2265 C2238 0.931 . S
H2266 C2240 0.931 . S
H2267 C2241 0.931 . S
H2268 C2246 0.930 . S
H2269 C2247 0.931 . S
H2270 C2249 0.931 . S
H2271 C2250 0.931 . S
Gd2272 C2275 2.818 . S
Gd2272 O2292 2.377 . S
Gd2272 O2294 2.448 . S
Gd2272 O2295 2.506 . S
Gd2272 O2296 2.435 . S
Gd2272 O2297 2.717 . S
Gd2272 O2299 2.395 . S
Gd2272 O2303 2.327 . S
Gd2273 C2284 2.818 1_545 S
Gd2273 O2293 2.395 . S
Gd2273 O2297 2.327 . S
Gd2273 O2298 2.377 . S
Gd2273 O2300 2.448 1_545 S
Gd2273 O2301 2.506 1_545 S
Gd2273 O2302 2.435 . S
Gd2273 O2303 2.717 . S
C2274 O2292 1.240 . S
C2274 O2293 1.240 . S
C2275 Gd2272 2.818 . S
C2275 C2276 1.510 . S
C2275 O2294 1.249 . S
C2275 O2295 1.252 . S
C2276 C2275 1.510 . S
C2276 C2277 1.404 . S
C2276 C2278 1.352 . S
C2277 C2276 1.404 . S
C2277 C2281 1.389 . S
C2277 H2304 0.930 . S
C2278 C2276 1.352 . S
C2278 C2280 1.374 . S
C2278 H2305 0.931 . S
C2279 C2280 1.359 . S
C2279 C2281 1.364 . S
C2280 C2278 1.374 . S
C2280 C2279 1.359 . S
C2280 H2306 0.931 . S
C2281 C2277 1.389 . S
C2281 C2279 1.364 . S
C2281 H2307 0.931 . S
C2282 O2296 1.256 . S
C2282 O2297 1.257 . S
C2283 O2298 1.240 . S
C2283 O2299 1.240 . S
C2284 Gd2273 2.818 1_565 S
C2284 C2285 1.510 . S
C2284 O2300 1.249 . S
C2284 O2301 1.252 . S
C2285 C2284 1.510 . S
C2285 C2286 1.404 . S
C2285 C2287 1.352 . S
C2286 C2285 1.404 . S
C2286 C2290 1.389 . S
C2286 H2308 0.930 . S
C2287 C2285 1.352 . S
C2287 C2289 1.374 . S
C2287 H2309 0.931 . S
C2288 C2289 1.359 . S
C2288 C2290 1.364 . S
C2289 C2287 1.374 . S
C2289 C2288 1.359 . S
C2289 H2310 0.931 . S
C2290 C2286 1.389 . S
C2290 C2288 1.364 . S
C2290 H2311 0.931 . S
C2291 O2302 1.256 . S
C2291 O2303 1.257 . S
O2292 Gd2272 2.377 . S
O2292 C2274 1.240 . S
O2293 Gd2273 2.395 . S
O2293 C2274 1.240 . S
O2294 Gd2272 2.448 . S
O2294 C2275 1.249 . S
O2295 Gd2272 2.506 . S
O2295 C2275 1.252 . S
O2296 Gd2272 2.435 . S
O2296 C2282 1.256 . S
O2297 Gd2272 2.717 . S
O2297 Gd2273 2.327 . S
O2297 C2282 1.257 . S
O2298 Gd2273 2.377 . S
O2298 C2283 1.240 . S
O2299 Gd2272 2.395 . S
O2299 C2283 1.240 . S
O2300 Gd2273 2.448 1_565 S
O2300 C2284 1.249 . S
O2301 Gd2273 2.506 1_565 S
O2301 C2284 1.252 . S
O2302 Gd2273 2.435 . S
O2302 C2291 1.256 . S
O2303 Gd2272 2.327 . S
O2303 Gd2273 2.717 . S
O2303 C2291 1.257 . S
H2304 C2277 0.930 . S
H2305 C2278 0.931 . S
H2306 C2280 0.931 . S
H2307 C2281 0.931 . S
H2308 C2286 0.930 . S
H2309 C2287 0.931 . S
H2310 C2289 0.931 . S
H2311 C2290 0.931 . S
Gd2312 C2315 2.818 . S
Gd2312 O2332 2.377 . S
Gd2312 O2334 2.448 . S
Gd2312 O2335 2.506 . S
Gd2312 O2336 2.435 . S
Gd2312 O2337 2.717 . S
Gd2312 O2339 2.395 . S
Gd2312 O2343 2.327 . S
Gd2313 C2324 2.818 . S
Gd2313 O2333 2.395 . S
Gd2313 O2337 2.327 . S
Gd2313 O2338 2.377 . S
Gd2313 O2340 2.448 . S
Gd2313 O2341 2.506 . S
Gd2313 O2342 2.435 . S
Gd2313 O2343 2.717 . S
C2314 O2332 1.240 . S
C2314 O2333 1.240 . S
C2315 Gd2312 2.818 . S
C2315 C2316 1.510 . S
C2315 O2334 1.249 . S
C2315 O2335 1.252 . S
C2316 C2315 1.510 . S
C2316 C2317 1.404 . S
C2316 C2318 1.352 . S
C2317 C2316 1.404 . S
C2317 C2321 1.389 . S
C2317 H2344 0.930 . S
C2318 C2316 1.352 . S
C2318 C2320 1.374 . S
C2318 H2345 0.931 . S
C2319 C2320 1.359 . S
C2319 C2321 1.364 . S
C2320 C2318 1.374 . S
C2320 C2319 1.359 . S
C2320 H2346 0.931 . S
C2321 C2317 1.389 . S
C2321 C2319 1.364 . S
C2321 H2347 0.931 . S
C2322 O2336 1.256 . S
C2322 O2337 1.257 . S
C2323 O2338 1.240 . S
C2323 O2339 1.240 . S
C2324 Gd2313 2.818 . S
C2324 C2325 1.510 . S
C2324 O2340 1.249 . S
C2324 O2341 1.252 . S
C2325 C2324 1.510 . S
C2325 C2326 1.404 . S
C2325 C2327 1.352 . S
C2326 C2325 1.404 . S
C2326 C2330 1.389 . S
C2326 H2348 0.930 . S
C2327 C2325 1.352 . S
C2327 C2329 1.374 . S
C2327 H2349 0.931 . S
C2328 C2329 1.359 . S
C2328 C2330 1.364 . S
C2329 C2327 1.374 . S
C2329 C2328 1.359 . S
C2329 H2350 0.931 . S
C2330 C2326 1.389 . S
C2330 C2328 1.364 . S
C2330 H2351 0.931 . S
C2331 O2342 1.256 . S
C2331 O2343 1.257 . S
O2332 Gd2312 2.377 . S
O2332 C2314 1.240 . S
O2333 Gd2313 2.395 . S
O2333 C2314 1.240 . S
O2334 Gd2312 2.448 . S
O2334 C2315 1.249 . S
O2335 Gd2312 2.506 . S
O2335 C2315 1.252 . S
O2336 Gd2312 2.435 . S
O2336 C2322 1.256 . S
O2337 Gd2312 2.717 . S
O2337 Gd2313 2.327 . S
O2337 C2322 1.257 . S
O2338 Gd2313 2.377 . S
O2338 C2323 1.240 . S
O2339 Gd2312 2.395 . S
O2339 C2323 1.240 . S
O2340 Gd2313 2.448 . S
O2340 C2324 1.249 . S
O2341 Gd2313 2.506 . S
O2341 C2324 1.252 . S
O2342 Gd2313 2.435 . S
O2342 C2331 1.256 . S
O2343 Gd2312 2.327 . S
O2343 Gd2313 2.717 . S
O2343 C2331 1.257 . S
H2344 C2317 0.930 . S
H2345 C2318 0.931 . S
H2346 C2320 0.931 . S
H2347 C2321 0.931 . S
H2348 C2326 0.930 . S
H2349 C2327 0.931 . S
H2350 C2329 0.931 . S
H2351 C2330 0.931 . S
Gd2352 C2355 2.818 . S
Gd2352 O2372 2.377 . S
Gd2352 O2374 2.448 . S
Gd2352 O2375 2.506 . S
Gd2352 O2376 2.435 1_545 S
Gd2352 O2377 2.717 1_554 S
Gd2352 O2379 2.395 . S
Gd2352 O2383 2.327 . S
Gd2353 C2364 2.818 . S
Gd2353 O2373 2.395 . S
Gd2353 O2377 2.327 . S
Gd2353 O2378 2.377 . S
Gd2353 O2380 2.448 . S
Gd2353 O2381 2.506 . S
Gd2353 O2382 2.435 1_556 S
Gd2353 O2383 2.717 1_556 S
C2354 O2372 1.240 . S
C2354 O2373 1.240 1_554 S
C2355 Gd2352 2.818 . S
C2355 C2356 1.510 . S
C2355 O2374 1.249 . S
C2355 O2375 1.252 . S
C2356 C2355 1.510 . S
C2356 C2357 1.404 1_545 S
C2356 C2358 1.352 . S
C2357 C2356 1.404 1_565 S
C2357 C2361 1.389 . S
C2357 H2384 0.930 . S
C2358 C2356 1.352 . S
C2358 C2360 1.374 . S
C2358 H2385 0.931 . S
C2359 C2360 1.359 1_565 S
C2359 C2361 1.364 . S
C2360 C2358 1.374 . S
C2360 C2359 1.359 1_545 S
C2360 H2386 0.931 . S
C2361 C2357 1.389 . S
C2361 C2359 1.364 . S
C2361 H2387 0.931 . S
C2362 O2376 1.255 . S
C2362 O2377 1.258 1_564 S
C2363 O2378 1.240 1_554 S
C2363 O2379 1.240 . S
C2364 Gd2353 2.818 . S
C2364 C2365 1.510 . S
C2364 O2380 1.249 . S
C2364 O2381 1.252 . S
C2365 C2364 1.510 . S
C2365 C2366 1.404 . S
C2365 C2367 1.352 . S
C2366 C2365 1.404 . S
C2366 C2370 1.389 . S
C2366 H2388 0.930 . S
C2367 C2365 1.352 . S
C2367 C2369 1.374 . S
C2367 H2389 0.931 . S
C2368 C2369 1.359 . S
C2368 C2370 1.364 . S
C2369 C2367 1.374 . S
C2369 C2368 1.359 . S
C2369 H2390 0.931 . S
C2370 C2366 1.389 . S
C2370 C2368 1.364 . S
C2370 H2391 0.931 . S
C2371 O2382 1.256 . S
C2371 O2383 1.257 . S
O2372 Gd2352 2.377 . S
O2372 C2354 1.240 . S
O2373 Gd2353 2.395 . S
O2373 C2354 1.240 1_556 S
O2374 Gd2352 2.448 . S
O2374 C2355 1.249 . S
O2375 Gd2352 2.506 . S
O2375 C2355 1.252 . S
O2376 Gd2352 2.435 1_565 S
O2376 C2362 1.255 . S
O2377 Gd2352 2.717 1_556 S
O2377 Gd2353 2.327 . S
O2377 C2362 1.258 1_546 S
O2378 Gd2353 2.377 . S
O2378 C2363 1.240 1_556 S
O2379 Gd2352 2.395 . S
O2379 C2363 1.240 . S
O2380 Gd2353 2.448 . S
O2380 C2364 1.249 . S
O2381 Gd2353 2.506 . S
O2381 C2364 1.252 . S
O2382 Gd2353 2.435 1_554 S
O2382 C2371 1.256 . S
O2383 Gd2352 2.327 . S
O2383 Gd2353 2.717 1_554 S
O2383 C2371 1.257 . S
H2384 C2357 0.930 . S
H2385 C2358 0.931 . S
H2386 C2360 0.931 . S
H2387 C2361 0.931 . S
H2388 C2366 0.930 . S
H2389 C2367 0.931 . S
H2390 C2369 0.931 . S
H2391 C2370 0.931 . S
Gd2392 C2395 2.818 . S
Gd2392 O2412 2.377 . S
Gd2392 O2414 2.448 . S
Gd2392 O2415 2.506 . S
Gd2392 O2416 2.435 . S
Gd2392 O2417 2.717 . S
Gd2392 O2419 2.395 . S
Gd2392 O2423 2.327 . S
Gd2393 C2404 2.818 . S
Gd2393 O2413 2.395 . S
Gd2393 O2417 2.327 . S
Gd2393 O2418 2.377 . S
Gd2393 O2420 2.448 . S
Gd2393 O2421 2.506 . S
Gd2393 O2422 2.435 . S
Gd2393 O2423 2.717 . S
C2394 O2412 1.240 . S
C2394 O2413 1.240 . S
C2395 Gd2392 2.818 . S
C2395 C2396 1.510 . S
C2395 O2414 1.249 . S
C2395 O2415 1.252 . S
C2396 C2395 1.510 . S
C2396 C2397 1.404 . S
C2396 C2398 1.352 . S
C2397 C2396 1.404 . S
C2397 C2401 1.389 . S
C2397 H2424 0.930 . S
C2398 C2396 1.352 . S
C2398 C2400 1.374 . S
C2398 H2425 0.931 . S
C2399 C2400 1.359 . S
C2399 C2401 1.364 . S
C2400 C2398 1.374 . S
C2400 C2399 1.359 . S
C2400 H2426 0.931 . S
C2401 C2397 1.389 . S
C2401 C2399 1.364 . S
C2401 H2427 0.931 . S
C2402 O2416 1.256 . S
C2402 O2417 1.257 . S
C2403 O2418 1.240 . S
C2403 O2419 1.240 . S
C2404 Gd2393 2.818 . S
C2404 C2405 1.510 . S
C2404 O2420 1.249 . S
C2404 O2421 1.252 . S
C2405 C2404 1.510 . S
C2405 C2406 1.404 . S
C2405 C2407 1.352 . S
C2406 C2405 1.404 . S
C2406 C2410 1.389 . S
C2406 H2428 0.930 . S
C2407 C2405 1.352 . S
C2407 C2409 1.374 . S
C2407 H2429 0.931 . S
C2408 C2409 1.359 . S
C2408 C2410 1.364 . S
C2409 C2407 1.374 . S
C2409 C2408 1.359 . S
C2409 H2430 0.931 . S
C2410 C2406 1.389 . S
C2410 C2408 1.364 . S
C2410 H2431 0.931 . S
C2411 O2422 1.256 . S
C2411 O2423 1.257 . S
O2412 Gd2392 2.377 . S
O2412 C2394 1.240 . S
O2413 Gd2393 2.395 . S
O2413 C2394 1.240 . S
O2414 Gd2392 2.448 . S
O2414 C2395 1.249 . S
O2415 Gd2392 2.506 . S
O2415 C2395 1.252 . S
O2416 Gd2392 2.435 . S
O2416 C2402 1.256 . S
O2417 Gd2392 2.717 . S
O2417 Gd2393 2.327 . S
O2417 C2402 1.257 . S
O2418 Gd2393 2.377 . S
O2418 C2403 1.240 . S
O2419 Gd2392 2.395 . S
O2419 C2403 1.240 . S
O2420 Gd2393 2.448 . S
O2420 C2404 1.249 . S
O2421 Gd2393 2.506 . S
O2421 C2404 1.252 . S
O2422 Gd2393 2.435 . S
O2422 C2411 1.256 . S
O2423 Gd2392 2.327 . S
O2423 Gd2393 2.717 . S
O2423 C2411 1.257 . S
H2424 C2397 0.930 . S
H2425 C2398 0.931 . S
H2426 C2400 0.931 . S
H2427 C2401 0.931 . S
H2428 C2406 0.930 . S
H2429 C2407 0.931 . S
H2430 C2409 0.931 . S
H2431 C2410 0.931 . S
Gd2432 C2435 2.830 . S
Gd2432 O2452 2.377 1_554 S
Gd2432 O2454 2.448 . S
Gd2432 O2455 2.507 1_554 S
Gd2432 O2456 2.435 . S
Gd2432 O2457 2.717 . S
Gd2432 O2459 2.395 . S
Gd2432 O2463 2.327 . S
Gd2433 C2444 2.847 . S
Gd2433 O2453 2.355 1_554 S
Gd2433 O2457 2.345 . S
Gd2433 O2458 2.421 . S
Gd2433 O2460 2.466 . S
Gd2433 O2461 2.539 . S
Gd2433 O2462 2.428 . S
Gd2433 O2463 2.715 . S
C2434 O2452 1.240 . S
C2434 O2453 1.240 . S
C2435 Gd2432 2.830 . S
C2435 C2436 1.499 1_554 S
C2435 O2454 1.261 . S
C2435 O2455 1.251 1_554 S
C2436 C2435 1.499 1_556 S
C2436 C2437 1.404 . S
C2436 C2438 1.352 . S
C2437 C2436 1.404 . S
C2437 C2441 1.389 . S
C2437 H2464 0.905 1_556 S
C2438 C2436 1.352 . S
C2438 C2440 1.374 . S
C2438 H2465 0.931 . S
C2439 C2440 1.359 . S
C2439 C2441 1.364 . S
C2440 C2438 1.374 . S
C2440 C2439 1.359 . S
C2440 H2466 0.931 . S
C2441 C2437 1.389 . S
C2441 C2439 1.364 . S
C2441 H2467 0.931 . S
C2442 O2456 1.256 . S
C2442 O2457 1.257 . S
C2443 O2458 1.240 . S
C2443 O2459 1.240 . S
C2444 Gd2433 2.847 . S
C2444 C2445 1.510 . S
C2444 O2460 1.249 . S
C2444 O2461 1.252 . S
C2445 C2444 1.510 . S
C2445 C2446 1.404 . S
C2445 C2447 1.352 . S
C2446 C2445 1.404 . S
C2446 C2450 1.389 . S
C2446 H2468 0.930 . S
C2447 C2445 1.352 . S
C2447 C2449 1.374 . S
C2447 H2469 0.931 . S
C2448 C2449 1.359 . S
C2448 C2450 1.364 . S
C2449 C2447 1.374 . S
C2449 C2448 1.359 . S
C2449 H2470 0.931 . S
C2450 C2446 1.389 . S
C2450 C2448 1.364 . S
C2450 H2471 0.931 . S
C2451 O2462 1.256 . S
C2451 O2463 1.257 . S
O2452 Gd2432 2.377 1_556 S
O2452 C2434 1.240 . S
O2453 Gd2433 2.355 1_556 S
O2453 C2434 1.240 . S
O2454 Gd2432 2.448 . S
O2454 C2435 1.261 . S
O2455 Gd2432 2.507 1_556 S
O2455 C2435 1.251 1_556 S
O2456 Gd2432 2.435 . S
O2456 C2442 1.256 . S
O2457 Gd2432 2.717 . S
O2457 Gd2433 2.345 . S
O2457 C2442 1.257 . S
O2458 Gd2433 2.421 . S
O2458 C2443 1.240 . S
O2459 Gd2432 2.395 . S
O2459 C2443 1.240 . S
O2460 Gd2433 2.466 . S
O2460 C2444 1.249 . S
O2461 Gd2433 2.539 . S
O2461 C2444 1.252 . S
O2462 Gd2433 2.428 . S
O2462 C2451 1.256 . S
O2463 Gd2432 2.327 . S
O2463 Gd2433 2.715 . S
O2463 C2451 1.257 . S
H2464 C2437 0.905 1_554 S
H2465 C2438 0.931 . S
H2466 C2440 0.931 . S
H2467 C2441 0.931 . S
H2468 C2446 0.930 . S
H2469 C2447 0.931 . S
H2470 C2449 0.931 . S
H2471 C2450 0.931 . S
Gd2472 C2475 2.818 . S
Gd2472 O2492 2.377 . S
Gd2472 O2494 2.448 . S
Gd2472 O2495 2.506 . S
Gd2472 O2496 2.435 . S
Gd2472 O2497 2.717 . S
Gd2472 O2499 2.395 . S
Gd2472 O2503 2.327 . S
Gd2473 C2484 2.818 . S
Gd2473 O2493 2.395 . S
Gd2473 O2497 2.327 . S
Gd2473 O2498 2.377 . S
Gd2473 O2500 2.448 . S
Gd2473 O2501 2.506 . S
Gd2473 O2502 2.435 . S
Gd2473 O2503 2.717 . S
C2474 O2492 1.240 . S
C2474 O2493 1.240 . S
C2475 Gd2472 2.818 . S
C2475 C2476 1.510 . S
C2475 O2494 1.249 . S
C2475 O2495 1.252 . S
C2476 C2475 1.510 . S
C2476 C2477 1.404 . S
C2476 C2478 1.352 . S
C2477 C2476 1.404 . S
C2477 C2481 1.389 . S
C2477 H2504 0.930 . S
C2478 C2476 1.352 . S
C2478 C2480 1.374 . S
C2478 H2505 0.931 . S
C2479 C2480 1.359 . S
C2479 C2481 1.364 . S
C2480 C2478 1.374 . S
C2480 C2479 1.359 . S
C2480 H2506 0.931 . S
C2481 C2477 1.389 . S
C2481 C2479 1.364 . S
C2481 H2507 0.931 . S
C2482 O2496 1.256 . S
C2482 O2497 1.257 . S
C2483 O2498 1.240 . S
C2483 O2499 1.240 . S
C2484 Gd2473 2.818 . S
C2484 C2485 1.510 . S
C2484 O2500 1.249 . S
C2484 O2501 1.252 . S
C2485 C2484 1.510 . S
C2485 C2486 1.404 . S
C2485 C2487 1.352 . S
C2486 C2485 1.404 . S
C2486 C2490 1.389 . S
C2486 H2508 0.930 . S
C2487 C2485 1.352 . S
C2487 C2489 1.374 . S
C2487 H2509 0.931 . S
C2488 C2489 1.359 . S
C2488 C2490 1.364 . S
C2489 C2487 1.374 . S
C2489 C2488 1.359 . S
C2489 H2510 0.931 . S
C2490 C2486 1.389 . S
C2490 C2488 1.364 . S
C2490 H2511 0.931 . S
C2491 O2502 1.256 . S
C2491 O2503 1.257 . S
O2492 Gd2472 2.377 . S
O2492 C2474 1.240 . S
O2493 Gd2473 2.395 . S
O2493 C2474 1.240 . S
O2494 Gd2472 2.448 . S
O2494 C2475 1.249 . S
O2495 Gd2472 2.506 . S
O2495 C2475 1.252 . S
O2496 Gd2472 2.435 . S
O2496 C2482 1.256 . S
O2497 Gd2472 2.717 . S
O2497 Gd2473 2.327 . S
O2497 C2482 1.257 . S
O2498 Gd2473 2.377 . S
O2498 C2483 1.240 . S
O2499 Gd2472 2.395 . S
O2499 C2483 1.240 . S
O2500 Gd2473 2.448 . S
O2500 C2484 1.249 . S
O2501 Gd2473 2.506 . S
O2501 C2484 1.252 . S
O2502 Gd2473 2.435 . S
O2502 C2491 1.256 . S
O2503 Gd2472 2.327 . S
O2503 Gd2473 2.717 . S
O2503 C2491 1.257 . S
H2504 C2477 0.930 . S
H2505 C2478 0.931 . S
H2506 C2480 0.931 . S
H2507 C2481 0.931 . S
H2508 C2486 0.930 . S
H2509 C2487 0.931 . S
H2510 C2489 0.931 . S
H2511 C2490 0.931 . S
Gd2512 C2515 2.818 . S
Gd2512 O2532 2.377 . S
Gd2512 O2534 2.448 . S
Gd2512 O2535 2.506 . S
Gd2512 O2536 2.435 . S
Gd2512 O2537 2.717 . S
Gd2512 O2539 2.395 . S
Gd2512 O2543 2.327 . S
Gd2513 C2524 2.818 . S
Gd2513 O2533 2.395 . S
Gd2513 O2537 2.327 . S
Gd2513 O2538 2.377 . S
Gd2513 O2540 2.448 . S
Gd2513 O2541 2.506 . S
Gd2513 O2542 2.435 . S
Gd2513 O2543 2.717 . S
C2514 O2532 1.240 . S
C2514 O2533 1.240 . S
C2515 Gd2512 2.818 . S
C2515 C2516 1.510 . S
C2515 O2534 1.249 . S
C2515 O2535 1.252 . S
C2516 C2515 1.510 . S
C2516 C2517 1.404 . S
C2516 C2518 1.352 . S
C2517 C2516 1.404 . S
C2517 C2521 1.389 . S
C2517 H2544 0.930 . S
C2518 C2516 1.352 . S
C2518 C2520 1.374 1_455 S
C2518 H2545 0.932 . S
C2519 C2520 1.359 . S
C2519 C2521 1.364 1_655 S
C2520 C2518 1.374 1_655 S
C2520 C2519 1.359 . S
C2520 H2546 0.931 . S
C2521 C2517 1.389 . S
C2521 C2519 1.364 1_455 S
C2521 H2547 0.931 . S
C2522 O2536 1.256 . S
C2522 O2537 1.257 . S
C2523 O2538 1.240 . S
C2523 O2539 1.240 . S
C2524 Gd2513 2.818 . S
C2524 C2525 1.510 . S
C2524 O2540 1.249 . S
C2524 O2541 1.252 . S
C2525 C2524 1.510 . S
C2525 C2526 1.404 . S
C2525 C2527 1.352 . S
C2526 C2525 1.404 . S
C2526 C2530 1.389 . S
C2526 H2548 0.930 . S
C2527 C2525 1.352 . S
C2527 C2529 1.374 . S
C2527 H2549 0.931 . S
C2528 C2529 1.359 . S
C2528 C2530 1.364 . S
C2529 C2527 1.374 . S
C2529 C2528 1.359 . S
C2529 H2550 0.931 . S
C2530 C2526 1.389 . S
C2530 C2528 1.364 . S
C2530 H2551 0.931 . S
C2531 O2542 1.256 . S
C2531 O2543 1.257 . S
O2532 Gd2512 2.377 . S
O2532 C2514 1.240 . S
O2533 Gd2513 2.395 . S
O2533 C2514 1.240 . S
O2534 Gd2512 2.448 . S
O2534 C2515 1.249 . S
O2535 Gd2512 2.506 . S
O2535 C2515 1.252 . S
O2536 Gd2512 2.435 . S
O2536 C2522 1.256 . S
O2537 Gd2512 2.717 . S
O2537 Gd2513 2.327 . S
O2537 C2522 1.257 . S
O2538 Gd2513 2.377 . S
O2538 C2523 1.240 . S
O2539 Gd2512 2.395 . S
O2539 C2523 1.240 . S
O2540 Gd2513 2.448 . S
O2540 C2524 1.249 . S
O2541 Gd2513 2.506 . S
O2541 C2524 1.252 . S
O2542 Gd2513 2.435 . S
O2542 C2531 1.256 . S
O2543 Gd2512 2.327 . S
O2543 Gd2513 2.717 . S
O2543 C2531 1.257 . S
H2544 C2517 0.930 . S
H2545 C2518 0.932 . S
H2546 C2520 0.931 . S
H2547 C2521 0.931 . S
H2548 C2526 0.930 . S
H2549 C2527 0.931 . S
H2550 C2529 0.931 . S
H2551 C2530 0.931 . S
Gd2552 C2555 2.818 . S
Gd2552 O2572 2.377 . S
Gd2552 O2574 2.448 . S
Gd2552 O2575 2.506 . S
Gd2552 O2576 2.435 . S
Gd2552 O2577 2.717 . S
Gd2552 O2579 2.395 . S
Gd2552 O2583 2.327 . S
Gd2553 C2564 2.818 . S
Gd2553 O2573 2.395 . S
Gd2553 O2577 2.327 . S
Gd2553 O2578 2.377 . S
Gd2553 O2580 2.448 . S
Gd2553 O2581 2.506 . S
Gd2553 O2582 2.435 . S
Gd2553 O2583 2.717 . S
C2554 O2572 1.240 . S
C2554 O2573 1.240 . S
C2555 Gd2552 2.818 . S
C2555 C2556 1.510 . S
C2555 O2574 1.249 . S
C2555 O2575 1.252 . S
C2556 C2555 1.510 . S
C2556 C2557 1.404 . S
C2556 C2558 1.352 . S
C2557 C2556 1.404 . S
C2557 C2561 1.389 . S
C2557 H2584 0.930 . S
C2558 C2556 1.352 . S
C2558 C2560 1.374 . S
C2558 H2585 0.931 . S
C2559 C2560 1.359 . S
C2559 C2561 1.364 . S
C2560 C2558 1.374 . S
C2560 C2559 1.359 . S
C2560 H2586 0.931 . S
C2561 C2557 1.389 . S
C2561 C2559 1.364 . S
C2561 H2587 0.931 . S
C2562 O2576 1.256 . S
C2562 O2577 1.257 . S
C2563 O2578 1.240 . S
C2563 O2579 1.240 . S
C2564 Gd2553 2.818 . S
C2564 C2565 1.510 . S
C2564 O2580 1.249 . S
C2564 O2581 1.252 . S
C2565 C2564 1.510 . S
C2565 C2566 1.404 . S
C2565 C2567 1.352 . S
C2566 C2565 1.404 . S
C2566 C2570 1.389 . S
C2566 H2588 0.930 . S
C2567 C2565 1.352 . S
C2567 C2569 1.374 . S
C2567 H2589 0.931 . S
C2568 C2569 1.359 . S
C2568 C2570 1.364 . S
C2569 C2567 1.374 . S
C2569 C2568 1.359 . S
C2569 H2590 0.931 . S
C2570 C2566 1.389 . S
C2570 C2568 1.364 . S
C2570 H2591 0.931 . S
C2571 O2582 1.256 . S
C2571 O2583 1.257 . S
O2572 Gd2552 2.377 . S
O2572 C2554 1.240 . S
O2573 Gd2553 2.395 . S
O2573 C2554 1.240 . S
O2574 Gd2552 2.448 . S
O2574 C2555 1.249 . S
O2575 Gd2552 2.506 . S
O2575 C2555 1.252 . S
O2576 Gd2552 2.435 . S
O2576 C2562 1.256 . S
O2577 Gd2552 2.717 . S
O2577 Gd2553 2.327 . S
O2577 C2562 1.257 . S
O2578 Gd2553 2.377 . S
O2578 C2563 1.240 . S
O2579 Gd2552 2.395 . S
O2579 C2563 1.240 . S
O2580 Gd2553 2.448 . S
O2580 C2564 1.249 . S
O2581 Gd2553 2.506 . S
O2581 C2564 1.252 . S
O2582 Gd2553 2.435 . S
O2582 C2571 1.256 . S
O2583 Gd2552 2.327 . S
O2583 Gd2553 2.717 . S
O2583 C2571 1.257 . S
H2584 C2557 0.930 . S
H2585 C2558 0.931 . S
H2586 C2560 0.931 . S
H2587 C2561 0.931 . S
H2588 C2566 0.930 . S
H2589 C2567 0.931 . S
H2590 C2569 0.931 . S
H2591 C2570 0.931 . S
Gd2592 C2595 2.818 . S
Gd2592 O2612 2.377 . S
Gd2592 O2614 2.448 . S
Gd2592 O2615 2.506 . S
Gd2592 O2616 2.435 . S
Gd2592 O2617 2.717 . S
Gd2592 O2619 2.395 . S
Gd2592 O2623 2.327 . S
Gd2593 C2604 2.818 . S
Gd2593 O2613 2.395 . S
Gd2593 O2617 2.327 . S
Gd2593 O2618 2.377 . S
Gd2593 O2620 2.448 . S
Gd2593 O2621 2.506 . S
Gd2593 O2622 2.435 . S
Gd2593 O2623 2.717 . S
C2594 O2612 1.240 . S
C2594 O2613 1.240 . S
C2595 Gd2592 2.818 . S
C2595 C2596 1.510 . S
C2595 O2614 1.249 . S
C2595 O2615 1.252 . S
C2596 C2595 1.510 . S
C2596 C2597 1.404 . S
C2596 C2598 1.352 . S
C2597 C2596 1.404 . S
C2597 C2601 1.389 . S
C2597 H2624 0.930 . S
C2598 C2596 1.352 . S
C2598 C2600 1.374 . S
C2598 H2625 0.931 . S
C2599 C2600 1.359 . S
C2599 C2601 1.364 . S
C2600 C2598 1.374 . S
C2600 C2599 1.359 . S
C2600 H2626 0.931 . S
C2601 C2597 1.389 . S
C2601 C2599 1.364 . S
C2601 H2627 0.931 . S
C2602 O2616 1.256 . S
C2602 O2617 1.257 . S
C2603 O2618 1.240 . S
C2603 O2619 1.240 . S
C2604 Gd2593 2.818 . S
C2604 C2605 1.510 . S
C2604 O2620 1.249 . S
C2604 O2621 1.252 . S
C2605 C2604 1.510 . S
C2605 C2606 1.404 . S
C2605 C2607 1.352 . S
C2606 C2605 1.404 . S
C2606 C2610 1.389 . S
C2606 H2628 0.930 . S
C2607 C2605 1.352 . S
C2607 C2609 1.374 . S
C2607 H2629 0.931 . S
C2608 C2609 1.359 . S
C2608 C2610 1.364 . S
C2609 C2607 1.374 . S
C2609 C2608 1.359 . S
C2609 H2630 0.931 . S
C2610 C2606 1.389 . S
C2610 C2608 1.364 . S
C2610 H2631 0.931 . S
C2611 O2622 1.256 . S
C2611 O2623 1.257 . S
O2612 Gd2592 2.377 . S
O2612 C2594 1.240 . S
O2613 Gd2593 2.395 . S
O2613 C2594 1.240 . S
O2614 Gd2592 2.448 . S
O2614 C2595 1.249 . S
O2615 Gd2592 2.506 . S
O2615 C2595 1.252 . S
O2616 Gd2592 2.435 . S
O2616 C2602 1.256 . S
O2617 Gd2592 2.717 . S
O2617 Gd2593 2.327 . S
O2617 C2602 1.257 . S
O2618 Gd2593 2.377 . S
O2618 C2603 1.240 . S
O2619 Gd2592 2.395 . S
O2619 C2603 1.240 . S
O2620 Gd2593 2.448 . S
O2620 C2604 1.249 . S
O2621 Gd2593 2.506 . S
O2621 C2604 1.252 . S
O2622 Gd2593 2.435 . S
O2622 C2611 1.256 . S
O2623 Gd2592 2.327 . S
O2623 Gd2593 2.717 . S
O2623 C2611 1.257 . S
H2624 C2597 0.930 . S
H2625 C2598 0.931 . S
H2626 C2600 0.931 . S
H2627 C2601 0.931 . S
H2628 C2606 0.930 . S
H2629 C2607 0.931 . S
H2630 C2609 0.931 . S
H2631 C2610 0.931 . S
Gd2632 C2635 2.818 . S
Gd2632 O2652 2.377 . S
Gd2632 O2654 2.448 . S
Gd2632 O2655 2.506 . S
Gd2632 O2656 2.435 . S
Gd2632 O2657 2.717 . S
Gd2632 O2659 2.395 . S
Gd2632 O2663 2.327 . S
Gd2633 C2644 2.818 . S
Gd2633 O2653 2.395 . S
Gd2633 O2657 2.327 . S
Gd2633 O2658 2.377 . S
Gd2633 O2660 2.448 . S
Gd2633 O2661 2.506 . S
Gd2633 O2662 2.435 . S
Gd2633 O2663 2.717 . S
C2634 O2652 1.240 . S
C2634 O2653 1.240 . S
C2635 Gd2632 2.818 . S
C2635 C2636 1.510 . S
C2635 O2654 1.249 . S
C2635 O2655 1.252 . S
C2636 C2635 1.510 . S
C2636 C2637 1.404 . S
C2636 C2638 1.352 . S
C2637 C2636 1.404 . S
C2637 C2641 1.389 . S
C2637 H2664 0.930 . S
C2638 C2636 1.352 . S
C2638 C2640 1.374 . S
C2638 H2665 0.931 . S
C2639 C2640 1.359 . S
C2639 C2641 1.364 . S
C2640 C2638 1.374 . S
C2640 C2639 1.359 . S
C2640 H2666 0.931 . S
C2641 C2637 1.389 . S
C2641 C2639 1.364 . S
C2641 H2667 0.931 . S
C2642 O2656 1.256 . S
C2642 O2657 1.257 . S
C2643 O2658 1.240 . S
C2643 O2659 1.240 . S
C2644 Gd2633 2.818 . S
C2644 C2645 1.510 . S
C2644 O2660 1.249 . S
C2644 O2661 1.252 . S
C2645 C2644 1.510 . S
C2645 C2646 1.404 . S
C2645 C2647 1.352 . S
C2646 C2645 1.404 . S
C2646 C2650 1.389 . S
C2646 H2668 0.930 . S
C2647 C2645 1.352 . S
C2647 C2649 1.374 . S
C2647 H2669 0.931 . S
C2648 C2649 1.359 . S
C2648 C2650 1.364 . S
C2649 C2647 1.374 . S
C2649 C2648 1.359 . S
C2649 H2670 0.931 . S
C2650 C2646 1.389 . S
C2650 C2648 1.364 . S
C2650 H2671 0.931 . S
C2651 O2662 1.256 . S
C2651 O2663 1.257 . S
O2652 Gd2632 2.377 . S
O2652 C2634 1.240 . S
O2653 Gd2633 2.395 . S
O2653 C2634 1.240 . S
O2654 Gd2632 2.448 . S
O2654 C2635 1.249 . S
O2655 Gd2632 2.506 . S
O2655 C2635 1.252 . S
O2656 Gd2632 2.435 . S
O2656 C2642 1.256 . S
O2657 Gd2632 2.717 . S
O2657 Gd2633 2.327 . S
O2657 C2642 1.257 . S
O2658 Gd2633 2.377 . S
O2658 C2643 1.240 . S
O2659 Gd2632 2.395 . S
O2659 C2643 1.240 . S
O2660 Gd2633 2.448 . S
O2660 C2644 1.249 . S
O2661 Gd2633 2.506 . S
O2661 C2644 1.252 . S
O2662 Gd2633 2.435 . S
O2662 C2651 1.256 . S
O2663 Gd2632 2.327 . S
O2663 Gd2633 2.717 . S
O2663 C2651 1.257 . S
H2664 C2637 0.930 . S
H2665 C2638 0.931 . S
H2666 C2640 0.931 . S
H2667 C2641 0.931 . S
H2668 C2646 0.930 . S
H2669 C2647 0.931 . S
H2670 C2649 0.931 . S
H2671 C2650 0.931 . S
Gd2672 C2675 2.818 . S
Gd2672 O2692 2.377 . S
Gd2672 O2694 2.448 . S
Gd2672 O2695 2.506 . S
Gd2672 O2696 2.435 . S
Gd2672 O2697 2.717 . S
Gd2672 O2699 2.395 . S
Gd2672 O2703 2.327 . S
Gd2673 C2684 2.818 . S
Gd2673 O2693 2.395 . S
Gd2673 O2697 2.327 . S
Gd2673 O2698 2.377 . S
Gd2673 O2700 2.448 . S
Gd2673 O2701 2.506 . S
Gd2673 O2702 2.435 . S
Gd2673 O2703 2.717 . S
C2674 O2692 1.240 . S
C2674 O2693 1.240 . S
C2675 Gd2672 2.818 . S
C2675 C2676 1.510 . S
C2675 O2694 1.249 . S
C2675 O2695 1.252 . S
C2676 C2675 1.510 . S
C2676 C2677 1.404 . S
C2676 C2678 1.352 . S
C2677 C2676 1.404 . S
C2677 C2681 1.389 . S
C2677 H2704 0.930 . S
C2678 C2676 1.352 . S
C2678 C2680 1.374 . S
C2678 H2705 0.931 . S
C2679 C2680 1.359 . S
C2679 C2681 1.364 . S
C2680 C2678 1.374 . S
C2680 C2679 1.359 . S
C2680 H2706 0.931 . S
C2681 C2677 1.389 . S
C2681 C2679 1.364 . S
C2681 H2707 0.931 . S
C2682 O2696 1.256 . S
C2682 O2697 1.257 . S
C2683 O2698 1.240 . S
C2683 O2699 1.240 . S
C2684 Gd2673 2.818 . S
C2684 C2685 1.510 . S
C2684 O2700 1.249 . S
C2684 O2701 1.252 . S
C2685 C2684 1.510 . S
C2685 C2686 1.404 . S
C2685 C2687 1.352 . S
C2686 C2685 1.404 . S
C2686 C2690 1.389 . S
C2686 H2708 0.930 . S
C2687 C2685 1.352 . S
C2687 C2689 1.374 . S
C2687 H2709 0.931 . S
C2688 C2689 1.359 . S
C2688 C2690 1.364 . S
C2689 C2687 1.374 . S
C2689 C2688 1.359 . S
C2689 H2710 0.931 . S
C2690 C2686 1.389 . S
C2690 C2688 1.364 . S
C2690 H2711 0.931 . S
C2691 O2702 1.256 . S
C2691 O2703 1.257 . S
O2692 Gd2672 2.377 . S
O2692 C2674 1.240 . S
O2693 Gd2673 2.395 . S
O2693 C2674 1.240 . S
O2694 Gd2672 2.448 . S
O2694 C2675 1.249 . S
O2695 Gd2672 2.506 . S
O2695 C2675 1.252 . S
O2696 Gd2672 2.435 . S
O2696 C2682 1.256 . S
O2697 Gd2672 2.717 . S
O2697 Gd2673 2.327 . S
O2697 C2682 1.257 . S
O2698 Gd2673 2.377 . S
O2698 C2683 1.240 . S
O2699 Gd2672 2.395 . S
O2699 C2683 1.240 . S
O2700 Gd2673 2.448 . S
O2700 C2684 1.249 . S
O2701 Gd2673 2.506 . S
O2701 C2684 1.252 . S
O2702 Gd2673 2.435 . S
O2702 C2691 1.256 . S
O2703 Gd2672 2.327 . S
O2703 Gd2673 2.717 . S
O2703 C2691 1.257 . S
H2704 C2677 0.930 . S
H2705 C2678 0.931 . S
H2706 C2680 0.931 . S
H2707 C2681 0.931 . S
H2708 C2686 0.930 . S
H2709 C2687 0.931 . S
H2710 C2689 0.931 . S
H2711 C2690 0.931 . S
Gd2712 C2715 2.818 1_554 S
Gd2712 O2732 2.377 1_554 S
Gd2712 O2734 2.448 1_554 S
Gd2712 O2735 2.506 . S
Gd2712 O2736 2.435 1_554 S
Gd2712 O2737 2.717 1_554 S
Gd2712 O2739 2.395 . S
Gd2712 O2743 2.327 . S
Gd2713 C2724 2.818 1_455 S
Gd2713 O2733 2.395 . S
Gd2713 O2737 2.327 1_554 S
Gd2713 O2738 2.377 . S
Gd2713 O2740 2.448 1_455 S
Gd2713 O2741 2.506 1_455 S
Gd2713 O2742 2.435 . S
Gd2713 O2743 2.717 . S
C2714 O2732 1.240 1_554 S
C2714 O2733 1.240 . S
C2715 Gd2712 2.818 1_556 S
C2715 C2716 1.510 . S
C2715 O2734 1.249 . S
C2715 O2735 1.252 1_556 S
C2716 C2715 1.510 . S
C2716 C2717 1.404 . S
C2716 C2718 1.352 1_556 S
C2717 C2716 1.404 . S
C2717 C2721 1.389 . S
C2717 H2744 0.930 . S
C2718 C2716 1.352 1_554 S
C2718 C2720 1.374 . S
C2718 H2745 0.931 . S
C2719 C2720 1.359 1_556 S
C2719 C2721 1.364 . S
C2720 C2718 1.374 . S
C2720 C2719 1.359 1_554 S
C2720 H2746 0.931 . S
C2721 C2717 1.389 . S
C2721 C2719 1.364 . S
C2721 H2747 0.931 . S
C2722 O2736 1.256 . S
C2722 O2737 1.257 . S
C2723 O2738 1.240 . S
C2723 O2739 1.240 . S
C2724 Gd2713 2.818 1_655 S
C2724 C2725 1.510 . S
C2724 O2740 1.249 . S
C2724 O2741 1.252 . S
C2725 C2724 1.510 . S
C2725 C2726 1.404 . S
C2725 C2727 1.352 . S
C2726 C2725 1.404 . S
C2726 C2730 1.389 . S
C2726 H2748 0.930 . S
C2727 C2725 1.352 . S
C2727 C2729 1.374 . S
C2727 H2749 0.931 . S
C2728 C2729 1.359 . S
C2728 C2730 1.364 . S
C2729 C2727 1.374 . S
C2729 C2728 1.359 . S
C2729 H2750 0.931 . S
C2730 C2726 1.389 . S
C2730 C2728 1.364 . S
C2730 H2751 0.931 . S
C2731 O2742 1.256 . S
C2731 O2743 1.257 . S
O2732 Gd2712 2.377 1_556 S
O2732 C2714 1.240 1_556 S
O2733 Gd2713 2.395 . S
O2733 C2714 1.240 . S
O2734 Gd2712 2.448 1_556 S
O2734 C2715 1.249 . S
O2735 Gd2712 2.506 . S
O2735 C2715 1.252 1_554 S
O2736 Gd2712 2.435 1_556 S
O2736 C2722 1.256 . S
O2737 Gd2712 2.717 1_556 S
O2737 Gd2713 2.327 1_556 S
O2737 C2722 1.257 . S
O2738 Gd2713 2.377 . S
O2738 C2723 1.240 . S
O2739 Gd2712 2.395 . S
O2739 C2723 1.240 . S
O2740 Gd2713 2.448 1_655 S
O2740 C2724 1.249 . S
O2741 Gd2713 2.506 1_655 S
O2741 C2724 1.252 . S
O2742 Gd2713 2.435 . S
O2742 C2731 1.256 . S
O2743 Gd2712 2.327 . S
O2743 Gd2713 2.717 . S
O2743 C2731 1.257 . S
H2744 C2717 0.930 . S
H2745 C2718 0.931 . S
H2746 C2720 0.931 . S
H2747 C2721 0.931 . S
H2748 C2726 0.930 . S
H2749 C2727 0.931 . S
H2750 C2729 0.931 . S
H2751 C2730 0.931 . S
H2752 C2764 0.930 . S
H2753 C2766 0.930 1_554 S
H2754 C2767 0.930 . S
H2755 C2771 0.959 1_655 S
H2756 C2771 0.959 . S
H2757 C2771 0.969 . S
H2758 C2772 0.960 . S
H2759 C2772 0.961 . S
H2760 C2772 0.959 . S
H2761 C2775 0.929 . S
H2762 C2776 0.931 . S
H2763 C2778 0.930 . S
C2764 H2752 0.930 . S
C2764 C2765 1.399 . S
C2764 C2769 1.399 . S
C2765 C2764 1.399 . S
C2765 C2766 1.376 . S
C2766 H2753 0.930 1_556 S
C2766 C2765 1.376 . S
C2766 C2767 1.388 1_556 S
C2767 H2754 0.930 . S
C2767 C2766 1.388 1_554 S
C2767 C2768 1.390 1_554 S
C2768 C2767 1.390 1_556 S
C2768 C2769 1.394 . S
C2768 C2774 1.466 1_556 S
C2769 C2764 1.399 . S
C2769 C2768 1.394 . S
C2769 C2770 1.516 . S
C2770 C2769 1.516 . S
C2770 C2771 1.502 . S
C2770 C2772 1.561 . S
C2770 C2773 1.526 . S
C2771 H2755 0.959 1_455 S
C2771 H2756 0.959 . S
C2771 H2757 0.969 . S
C2771 C2770 1.502 . S
C2772 H2758 0.960 . S
C2772 H2759 0.961 . S
C2772 H2760 0.959 . S
C2772 C2770 1.561 . S
C2773 C2770 1.526 . S
C2773 C2774 1.397 1_556 S
C2773 C2778 1.390 . S
C2774 C2768 1.466 1_554 S
C2774 C2773 1.397 1_554 S
C2774 C2775 1.398 . S
C2775 H2761 0.929 . S
C2775 C2774 1.398 . S
C2775 C2776 1.385 . S
C2776 H2762 0.931 . S
C2776 C2775 1.385 . S
C2776 C2777 1.389 . S
C2777 C2776 1.389 . S
C2777 C2778 1.387 1_554 S
C2778 H2763 0.930 . S
C2778 C2773 1.390 . S
C2778 C2777 1.387 1_556 S
H2779 C2791 0.930 . S
H2780 C2793 0.930 . S
H2781 C2794 0.930 . S
H2782 C2798 0.959 . S
H2783 C2798 0.959 . S
H2784 C2798 0.961 . S
H2785 C2799 0.960 . S
H2786 C2799 0.961 . S
H2787 C2799 0.959 . S
H2788 C2802 0.929 . S
H2789 C2803 0.931 . S
H2790 C2805 0.930 . S
C2791 H2779 0.930 . S
C2791 C2792 1.399 . S
C2791 C2796 1.399 . S
C2792 C2791 1.399 . S
C2792 C2793 1.376 . S
C2793 H2780 0.930 . S
C2793 C2792 1.376 . S
C2793 C2794 1.388 . S
C2794 H2781 0.930 . S
C2794 C2793 1.388 . S
C2794 C2795 1.390 . S
C2795 C2794 1.390 . S
C2795 C2796 1.394 . S
C2795 C2801 1.465 . S
C2796 C2791 1.399 . S
C2796 C2795 1.394 . S
C2796 C2797 1.516 . S
C2797 C2796 1.516 . S
C2797 C2798 1.502 . S
C2797 C2799 1.561 . S
C2797 C2800 1.526 . S
C2798 H2782 0.959 . S
C2798 H2783 0.959 . S
C2798 H2784 0.961 . S
C2798 C2797 1.502 . S
C2799 H2785 0.960 . S
C2799 H2786 0.961 . S
C2799 H2787 0.959 . S
C2799 C2797 1.561 . S
C2800 C2797 1.526 . S
C2800 C2801 1.396 . S
C2800 C2805 1.390 . S
C2801 C2795 1.465 . S
C2801 C2800 1.396 . S
C2801 C2802 1.399 . S
C2802 H2788 0.929 . S
C2802 C2801 1.399 . S
C2802 C2803 1.385 . S
C2803 H2789 0.931 . S
C2803 C2802 1.385 . S
C2803 C2804 1.389 . S
C2804 C2803 1.389 . S
C2804 C2805 1.387 . S
C2805 H2790 0.930 . S
C2805 C2800 1.390 . S
C2805 C2804 1.387 . S
H2806 C2818 0.930 . S
H2807 C2820 0.930 . S
H2808 C2821 0.930 . S
H2809 C2825 0.959 . S
H2810 C2825 0.959 . S
H2811 C2825 0.961 . S
H2812 C2826 0.960 . S
H2813 C2826 0.961 . S
H2814 C2826 0.959 . S
H2815 C2829 0.929 . S
H2816 C2830 0.931 . S
H2817 C2832 0.930 . S
C2818 H2806 0.930 . S
C2818 C2819 1.399 . S
C2818 C2823 1.399 . S
C2819 C2818 1.399 . S
C2819 C2820 1.376 . S
C2820 H2807 0.930 . S
C2820 C2819 1.376 . S
C2820 C2821 1.388 . S
C2821 H2808 0.930 . S
C2821 C2820 1.388 . S
C2821 C2822 1.390 . S
C2822 C2821 1.390 . S
C2822 C2823 1.394 . S
C2822 C2828 1.465 . S
C2823 C2818 1.399 . S
C2823 C2822 1.394 . S
C2823 C2824 1.516 . S
C2824 C2823 1.516 . S
C2824 C2825 1.502 . S
C2824 C2826 1.561 . S
C2824 C2827 1.526 . S
C2825 H2809 0.959 . S
C2825 H2810 0.959 . S
C2825 H2811 0.961 . S
C2825 C2824 1.502 . S
C2826 H2812 0.960 . S
C2826 H2813 0.961 . S
C2826 H2814 0.959 . S
C2826 C2824 1.561 . S
C2827 C2824 1.526 . S
C2827 C2828 1.396 . S
C2827 C2832 1.390 . S
C2828 C2822 1.465 . S
C2828 C2827 1.396 . S
C2828 C2829 1.399 . S
C2829 H2815 0.929 . S
C2829 C2828 1.399 . S
C2829 C2830 1.385 . S
C2830 H2816 0.931 . S
C2830 C2829 1.385 . S
C2830 C2831 1.389 . S
C2831 C2830 1.389 . S
C2831 C2832 1.387 . S
C2832 H2817 0.930 . S
C2832 C2827 1.390 . S
C2832 C2831 1.387 . S
H2833 C2845 0.930 . S
H2834 C2847 0.930 . S
H2835 C2848 0.930 . S
H2836 C2852 0.959 . S
H2837 C2852 0.959 . S
H2838 C2852 0.961 . S
H2839 C2853 0.960 . S
H2840 C2853 0.961 . S
H2841 C2853 0.959 . S
H2842 C2856 0.929 . S
H2843 C2857 0.931 . S
H2844 C2859 0.930 . S
C2845 H2833 0.930 . S
C2845 C2846 1.399 . S
C2845 C2850 1.399 . S
C2846 C2845 1.399 . S
C2846 C2847 1.376 . S
C2847 H2834 0.930 . S
C2847 C2846 1.376 . S
C2847 C2848 1.388 . S
C2848 H2835 0.930 . S
C2848 C2847 1.388 . S
C2848 C2849 1.390 . S
C2849 C2848 1.390 . S
C2849 C2850 1.394 . S
C2849 C2855 1.465 . S
C2850 C2845 1.399 . S
C2850 C2849 1.394 . S
C2850 C2851 1.516 . S
C2851 C2850 1.516 . S
C2851 C2852 1.502 . S
C2851 C2853 1.561 . S
C2851 C2854 1.526 . S
C2852 H2836 0.959 . S
C2852 H2837 0.959 . S
C2852 H2838 0.961 . S
C2852 C2851 1.502 . S
C2853 H2839 0.960 . S
C2853 H2840 0.961 . S
C2853 H2841 0.959 . S
C2853 C2851 1.561 . S
C2854 C2851 1.526 . S
C2854 C2855 1.396 . S
C2854 C2859 1.390 . S
C2855 C2849 1.465 . S
C2855 C2854 1.396 . S
C2855 C2856 1.399 . S
C2856 H2842 0.929 . S
C2856 C2855 1.399 . S
C2856 C2857 1.385 . S
C2857 H2843 0.931 . S
C2857 C2856 1.385 . S
C2857 C2858 1.389 . S
C2858 C2857 1.389 . S
C2858 C2859 1.387 . S
C2859 H2844 0.930 . S
C2859 C2854 1.390 . S
C2859 C2858 1.387 . S
H2860 C2872 0.930 . S
H2861 C2874 0.930 . S
H2862 C2875 0.890 1_655 S
H2863 C2879 0.959 . S
H2864 C2879 0.959 . S
H2865 C2879 0.961 . S
H2866 C2880 0.960 . S
H2867 C2880 0.961 . S
H2868 C2880 0.959 . S
H2869 C2883 0.929 . S
H2870 C2884 0.931 . S
H2871 C2886 0.930 . S
C2872 H2860 0.930 . S
C2872 C2873 1.399 . S
C2872 C2877 1.399 . S
C2873 C2872 1.399 . S
C2873 C2874 1.376 1_455 S
C2874 H2861 0.930 . S
C2874 C2873 1.376 1_655 S
C2874 C2875 1.384 1_655 S
C2875 H2862 0.890 1_455 S
C2875 C2874 1.384 1_455 S
C2875 C2876 1.436 . S
C2876 C2875 1.436 . S
C2876 C2877 1.394 . S
C2876 C2882 1.465 . S
C2877 C2872 1.399 . S
C2877 C2876 1.394 . S
C2877 C2878 1.516 . S
C2878 C2877 1.516 . S
C2878 C2879 1.502 . S
C2878 C2880 1.561 . S
C2878 C2881 1.526 . S
C2879 H2863 0.959 . S
C2879 H2864 0.959 . S
C2879 H2865 0.961 . S
C2879 C2878 1.502 . S
C2880 H2866 0.960 . S
C2880 H2867 0.961 . S
C2880 H2868 0.959 . S
C2880 C2878 1.561 . S
C2881 C2878 1.526 . S
C2881 C2882 1.396 . S
C2881 C2886 1.390 . S
C2882 C2876 1.465 . S
C2882 C2881 1.396 . S
C2882 C2883 1.399 . S
C2883 H2869 0.929 . S
C2883 C2882 1.399 . S
C2883 C2884 1.385 . S
C2884 H2870 0.931 . S
C2884 C2883 1.385 . S
C2884 C2885 1.389 . S
C2885 C2884 1.389 . S
C2885 C2886 1.387 . S
C2886 H2871 0.930 . S
C2886 C2881 1.390 . S
C2886 C2885 1.387 . S
H2887 C2899 0.930 . S
H2888 C2901 0.930 . S
H2889 C2902 0.930 . S
H2890 C2906 0.959 . S
H2891 C2906 0.959 . S
H2892 C2906 0.961 . S
H2893 C2907 0.960 . S
H2894 C2907 0.961 . S
H2895 C2907 0.959 . S
H2896 C2910 0.929 . S
H2897 C2911 0.931 . S
H2898 C2913 0.930 . S
C2899 H2887 0.930 . S
C2899 C2900 1.399 . S
C2899 C2904 1.399 . S
C2900 C2899 1.399 . S
C2900 C2901 1.376 . S
C2901 H2888 0.930 . S
C2901 C2900 1.376 . S
C2901 C2902 1.388 . S
C2902 H2889 0.930 . S
C2902 C2901 1.388 . S
C2902 C2903 1.390 . S
C2903 C2902 1.390 . S
C2903 C2904 1.394 . S
C2903 C2909 1.465 . S
C2904 C2899 1.399 . S
C2904 C2903 1.394 . S
C2904 C2905 1.516 . S
C2905 C2904 1.516 . S
C2905 C2906 1.502 . S
C2905 C2907 1.561 . S
C2905 C2908 1.526 . S
C2906 H2890 0.959 . S
C2906 H2891 0.959 . S
C2906 H2892 0.961 . S
C2906 C2905 1.502 . S
C2907 H2893 0.960 . S
C2907 H2894 0.961 . S
C2907 H2895 0.959 . S
C2907 C2905 1.561 . S
C2908 C2905 1.526 . S
C2908 C2909 1.396 . S
C2908 C2913 1.390 . S
C2909 C2903 1.465 . S
C2909 C2908 1.396 . S
C2909 C2910 1.399 . S
C2910 H2896 0.929 . S
C2910 C2909 1.399 . S
C2910 C2911 1.385 . S
C2911 H2897 0.931 . S
C2911 C2910 1.385 . S
C2911 C2912 1.389 . S
C2912 C2911 1.389 . S
C2912 C2913 1.387 . S
C2913 H2898 0.930 . S
C2913 C2908 1.390 . S
C2913 C2912 1.387 . S
H2914 C2926 0.930 . S
H2915 C2928 0.930 . S
H2916 C2929 0.930 . S
H2917 C2933 0.959 . S
H2918 C2933 0.959 . S
H2919 C2933 0.961 . S
H2920 C2934 0.960 . S
H2921 C2934 0.961 . S
H2922 C2934 0.959 . S
H2923 C2937 0.929 . S
H2924 C2938 0.931 . S
H2925 C2940 0.930 . S
C2926 H2914 0.930 . S
C2926 C2927 1.399 . S
C2926 C2931 1.399 . S
C2927 C2926 1.399 . S
C2927 C2928 1.376 . S
C2928 H2915 0.930 . S
C2928 C2927 1.376 . S
C2928 C2929 1.388 . S
C2929 H2916 0.930 . S
C2929 C2928 1.388 . S
C2929 C2930 1.390 . S
C2930 C2929 1.390 . S
C2930 C2931 1.394 . S
C2930 C2936 1.465 . S
C2931 C2926 1.399 . S
C2931 C2930 1.394 . S
C2931 C2932 1.516 . S
C2932 C2931 1.516 . S
C2932 C2933 1.502 . S
C2932 C2934 1.561 . S
C2932 C2935 1.526 . S
C2933 H2917 0.959 . S
C2933 H2918 0.959 . S
C2933 H2919 0.961 . S
C2933 C2932 1.502 . S
C2934 H2920 0.960 . S
C2934 H2921 0.961 . S
C2934 H2922 0.959 . S
C2934 C2932 1.561 . S
C2935 C2932 1.526 . S
C2935 C2936 1.396 . S
C2935 C2940 1.390 . S
C2936 C2930 1.465 . S
C2936 C2935 1.396 . S
C2936 C2937 1.399 . S
C2937 H2923 0.929 . S
C2937 C2936 1.399 . S
C2937 C2938 1.385 . S
C2938 H2924 0.931 . S
C2938 C2937 1.385 . S
C2938 C2939 1.389 . S
C2939 C2938 1.389 . S
C2939 C2940 1.387 . S
C2940 H2925 0.930 . S
C2940 C2935 1.390 . S
C2940 C2939 1.387 . S
H2941 C2953 0.930 . S
H2942 C2955 0.930 . S
H2943 C2956 0.930 . S
H2944 C2960 0.959 . S
H2945 C2960 0.959 . S
H2946 C2960 0.961 . S
H2947 C2961 0.960 . S
H2948 C2961 0.961 . S
H2949 C2961 0.959 . S
H2950 C2964 0.929 . S
H2951 C2965 0.931 . S
H2952 C2967 0.930 . S
C2953 H2941 0.930 . S
C2953 C2954 1.399 . S
C2953 C2958 1.399 . S
C2954 C2953 1.399 . S
C2954 C2955 1.376 . S
C2955 H2942 0.930 . S
C2955 C2954 1.376 . S
C2955 C2956 1.388 . S
C2956 H2943 0.930 . S
C2956 C2955 1.388 . S
C2956 C2957 1.390 . S
C2957 C2956 1.390 . S
C2957 C2958 1.394 . S
C2957 C2963 1.465 . S
C2958 C2953 1.399 . S
C2958 C2957 1.394 . S
C2958 C2959 1.516 . S
C2959 C2958 1.516 . S
C2959 C2960 1.502 . S
C2959 C2961 1.561 . S
C2959 C2962 1.526 . S
C2960 H2944 0.959 . S
C2960 H2945 0.959 . S
C2960 H2946 0.961 . S
C2960 C2959 1.502 . S
C2961 H2947 0.960 . S
C2961 H2948 0.961 . S
C2961 H2949 0.959 . S
C2961 C2959 1.561 . S
C2962 C2959 1.526 . S
C2962 C2963 1.396 . S
C2962 C2967 1.390 . S
C2963 C2957 1.465 . S
C2963 C2962 1.396 . S
C2963 C2964 1.399 . S
C2964 H2950 0.929 . S
C2964 C2963 1.399 . S
C2964 C2965 1.385 . S
C2965 H2951 0.931 . S
C2965 C2964 1.385 . S
C2965 C2966 1.389 . S
C2966 C2965 1.389 . S
C2966 C2967 1.387 . S
C2967 H2952 0.930 . S
C2967 C2962 1.390 . S
C2967 C2966 1.387 . S
H2968 C2980 0.930 . S
H2969 C2982 0.930 . S
H2970 C2983 0.930 . S
H2971 C2987 0.959 . S
H2972 C2987 0.959 . S
H2973 C2987 0.961 . S
H2974 C2988 0.960 . S
H2975 C2988 0.995 . S
H2976 C2988 0.959 . S
H2977 C2991 0.929 . S
H2978 C2992 0.931 . S
H2979 C2994 0.930 . S
C2980 H2968 0.930 . S
C2980 C2981 1.399 . S
C2980 C2985 1.399 1_655 S
C2981 C2980 1.399 . S
C2981 C2982 1.376 . S
C2982 H2969 0.930 . S
C2982 C2981 1.376 . S
C2982 C2983 1.388 . S
C2983 H2970 0.930 . S
C2983 C2982 1.388 . S
C2983 C2984 1.357 1_655 S
C2984 C2983 1.357 1_455 S
C2984 C2985 1.408 . S
C2984 C2990 1.493 . S
C2985 C2980 1.399 1_455 S
C2985 C2984 1.408 . S
C2985 C2986 1.516 . S
C2986 C2985 1.516 . S
C2986 C2987 1.502 . S
C2986 C2988 1.561 1_455 S
C2986 C2989 1.526 . S
C2987 H2971 0.959 . S
C2987 H2972 0.959 . S
C2987 H2973 0.961 . S
C2987 C2986 1.502 . S
C2988 H2974 0.960 . S
C2988 H2975 0.995 . S
C2988 H2976 0.959 . S
C2988 C2986 1.561 1_655 S
C2989 C2986 1.526 . S
C2989 C2990 1.396 . S
C2989 C2994 1.390 . S
C2990 C2984 1.493 . S
C2990 C2989 1.396 . S
C2990 C2991 1.399 . S
C2991 H2977 0.929 . S
C2991 C2990 1.399 . S
C2991 C2992 1.385 . S
C2992 H2978 0.931 . S
C2992 C2991 1.385 . S
C2992 C2993 1.389 . S
C2993 C2992 1.389 . S
C2993 C2994 1.387 . S
C2994 H2979 0.930 . S
C2994 C2989 1.390 . S
C2994 C2993 1.387 . S
H2995 C3007 0.930 . S
H2996 C3009 0.930 . S
H2997 C3010 0.930 . S
H2998 C3014 0.959 . S
H2999 C3014 0.959 . S
H3000 C3014 0.961 . S
H3001 C3015 0.960 . S
H3002 C3015 0.961 . S
H3003 C3015 0.959 . S
H3004 C3018 0.929 . S
H3005 C3019 0.931 . S
H3006 C3021 0.930 . S
C3007 H2995 0.930 . S
C3007 C3008 1.399 . S
C3007 C3012 1.399 . S
C3008 C3007 1.399 . S
C3008 C3009 1.376 . S
C3009 H2996 0.930 . S
C3009 C3008 1.376 . S
C3009 C3010 1.388 . S
C3010 H2997 0.930 . S
C3010 C3009 1.388 . S
C3010 C3011 1.390 . S
C3011 C3010 1.390 . S
C3011 C3012 1.394 . S
C3011 C3017 1.465 . S
C3012 C3007 1.399 . S
C3012 C3011 1.394 . S
C3012 C3013 1.516 . S
C3013 C3012 1.516 . S
C3013 C3014 1.502 . S
C3013 C3015 1.561 . S
C3013 C3016 1.526 . S
C3014 H2998 0.959 . S
C3014 H2999 0.959 . S
C3014 H3000 0.961 . S
C3014 C3013 1.502 . S
C3015 H3001 0.960 . S
C3015 H3002 0.961 . S
C3015 H3003 0.959 . S
C3015 C3013 1.561 . S
C3016 C3013 1.526 . S
C3016 C3017 1.396 . S
C3016 C3021 1.390 . S
C3017 C3011 1.465 . S
C3017 C3016 1.396 . S
C3017 C3018 1.399 . S
C3018 H3004 0.929 . S
C3018 C3017 1.399 . S
C3018 C3019 1.385 . S
C3019 H3005 0.931 . S
C3019 C3018 1.385 . S
C3019 C3020 1.389 . S
C3020 C3019 1.389 . S
C3020 C3021 1.387 . S
C3021 H3006 0.930 . S
C3021 C3016 1.390 . S
C3021 C3020 1.387 . S
H3022 C3034 0.930 . S
H3023 C3036 0.930 . S
H3024 C3037 0.930 . S
H3025 C3041 0.959 . S
H3026 C3041 0.959 . S
H3027 C3041 0.961 . S
H3028 C3042 0.960 . S
H3029 C3042 0.961 . S
H3030 C3042 0.959 . S
H3031 C3045 0.929 . S
H3032 C3046 0.931 . S
H3033 C3048 0.930 . S
C3034 H3022 0.930 . S
C3034 C3035 1.399 . S
C3034 C3039 1.399 . S
C3035 C3034 1.399 . S
C3035 C3036 1.376 . S
C3036 H3023 0.930 . S
C3036 C3035 1.376 . S
C3036 C3037 1.388 . S
C3037 H3024 0.930 . S
C3037 C3036 1.388 . S
C3037 C3038 1.390 . S
C3038 C3037 1.390 . S
C3038 C3039 1.394 . S
C3038 C3044 1.465 . S
C3039 C3034 1.399 . S
C3039 C3038 1.394 . S
C3039 C3040 1.516 . S
C3040 C3039 1.516 . S
C3040 C3041 1.502 . S
C3040 C3042 1.561 1_545 S
C3040 C3043 1.526 . S
C3041 H3025 0.959 . S
C3041 H3026 0.959 . S
C3041 H3027 0.961 . S
C3041 C3040 1.502 . S
C3042 H3028 0.960 . S
C3042 H3029 0.961 . S
C3042 H3030 0.959 . S
C3042 C3040 1.561 1_565 S
C3043 C3040 1.526 . S
C3043 C3044 1.396 . S
C3043 C3048 1.390 . S
C3044 C3038 1.465 . S
C3044 C3043 1.396 . S
C3044 C3045 1.399 . S
C3045 H3031 0.929 . S
C3045 C3044 1.399 . S
C3045 C3046 1.385 . S
C3046 H3032 0.931 . S
C3046 C3045 1.385 . S
C3046 C3047 1.389 . S
C3047 C3046 1.389 . S
C3047 C3048 1.387 . S
C3048 H3033 0.930 . S
C3048 C3043 1.390 . S
C3048 C3047 1.387 . S
H3049 C3061 0.930 . S
H3050 C3063 0.930 . S
H3051 C3064 0.930 . S
H3052 C3068 0.959 . S
H3053 C3068 0.959 . S
H3054 C3068 0.961 . S
H3055 C3069 0.960 . S
H3056 C3069 0.961 . S
H3057 C3069 0.959 . S
H3058 C3072 0.929 . S
H3059 C3073 0.931 . S
H3060 C3075 0.930 . S
C3061 H3049 0.930 . S
C3061 C3062 1.399 . S
C3061 C3066 1.399 . S
C3062 C3061 1.399 . S
C3062 C3063 1.376 . S
C3063 H3050 0.930 . S
C3063 C3062 1.376 . S
C3063 C3064 1.388 . S
C3064 H3051 0.930 . S
C3064 C3063 1.388 . S
C3064 C3065 1.390 . S
C3065 C3064 1.390 . S
C3065 C3066 1.394 . S
C3065 C3071 1.465 . S
C3066 C3061 1.399 . S
C3066 C3065 1.394 . S
C3066 C3067 1.516 . S
C3067 C3066 1.516 . S
C3067 C3068 1.502 . S
C3067 C3069 1.561 . S
C3067 C3070 1.526 . S
C3068 H3052 0.959 . S
C3068 H3053 0.959 . S
C3068 H3054 0.961 . S
C3068 C3067 1.502 . S
C3069 H3055 0.960 . S
C3069 H3056 0.961 . S
C3069 H3057 0.959 . S
C3069 C3067 1.561 . S
C3070 C3067 1.526 . S
C3070 C3071 1.396 . S
C3070 C3075 1.390 . S
C3071 C3065 1.465 . S
C3071 C3070 1.396 . S
C3071 C3072 1.399 . S
C3072 H3058 0.929 . S
C3072 C3071 1.399 . S
C3072 C3073 1.385 . S
C3073 H3059 0.931 . S
C3073 C3072 1.385 . S
C3073 C3074 1.389 . S
C3074 C3073 1.389 . S
C3074 C3075 1.387 . S
C3075 H3060 0.930 . S
C3075 C3070 1.390 . S
C3075 C3074 1.387 . S
H3076 C3088 0.926 . S
H3077 C3090 0.908 1_655 S
H3078 C3091 0.930 . S
H3079 C3095 0.964 1_655 S
H3080 C3095 0.957 . S
H3081 C3095 0.961 1_655 S
H3082 C3096 0.960 . S
H3083 C3096 0.961 . S
H3084 C3096 0.959 . S
H3085 C3099 0.929 . S
H3086 C3100 0.931 . S
H3087 C3102 0.930 . S
C3088 H3076 0.926 . S
C3088 C3089 1.399 1_455 S
C3088 C3093 1.399 . S
C3089 C3088 1.399 1_655 S
C3089 C3090 1.386 1_655 S
C3090 H3077 0.908 1_455 S
C3090 C3089 1.386 1_455 S
C3090 C3091 1.405 . S
C3091 H3078 0.930 . S
C3091 C3090 1.405 . S
C3091 C3092 1.390 . S
C3092 C3091 1.390 . S
C3092 C3093 1.394 . S
C3092 C3098 1.465 . S
C3093 C3088 1.399 . S
C3093 C3092 1.394 . S
C3093 C3094 1.516 . S
C3094 C3093 1.516 . S
C3094 C3095 1.500 . S
C3094 C3096 1.561 . S
C3094 C3097 1.526 . S
C3095 H3079 0.964 1_455 S
C3095 H3080 0.957 . S
C3095 H3081 0.961 1_455 S
C3095 C3094 1.500 . S
C3096 H3082 0.960 . S
C3096 H3083 0.961 . S
C3096 H3084 0.959 . S
C3096 C3094 1.561 . S
C3097 C3094 1.526 . S
C3097 C3098 1.396 . S
C3097 C3102 1.390 . S
C3098 C3092 1.465 . S
C3098 C3097 1.396 . S
C3098 C3099 1.399 . S
C3099 H3085 0.929 . S
C3099 C3098 1.399 . S
C3099 C3100 1.385 . S
C3100 H3086 0.931 . S
C3100 C3099 1.385 . S
C3100 C3101 1.389 . S
C3101 C3100 1.389 . S
C3101 C3102 1.387 . S
C3102 H3087 0.930 . S
C3102 C3097 1.390 . S
C3102 C3101 1.387 . S
H3103 C3115 0.930 . S
H3104 C3117 0.930 . S
H3105 C3118 0.930 . S
H3106 C3122 0.959 . S
H3107 C3122 0.959 . S
H3108 C3122 0.961 . S
H3109 C3123 0.960 . S
H3110 C3123 0.961 . S
H3111 C3123 0.959 . S
H3112 C3126 0.929 . S
H3113 C3127 0.931 . S
H3114 C3129 0.930 . S
C3115 H3103 0.930 . S
C3115 C3116 1.399 . S
C3115 C3120 1.399 . S
C3116 C3115 1.399 . S
C3116 C3117 1.376 . S
C3117 H3104 0.930 . S
C3117 C3116 1.376 . S
C3117 C3118 1.388 . S
C3118 H3105 0.930 . S
C3118 C3117 1.388 . S
C3118 C3119 1.390 . S
C3119 C3118 1.390 . S
C3119 C3120 1.394 . S
C3119 C3125 1.465 . S
C3120 C3115 1.399 . S
C3120 C3119 1.394 . S
C3120 C3121 1.516 . S
C3121 C3120 1.516 . S
C3121 C3122 1.502 . S
C3121 C3123 1.561 . S
C3121 C3124 1.526 . S
C3122 H3106 0.959 . S
C3122 H3107 0.959 . S
C3122 H3108 0.961 . S
C3122 C3121 1.502 . S
C3123 H3109 0.960 . S
C3123 H3110 0.961 . S
C3123 H3111 0.959 . S
C3123 C3121 1.561 . S
C3124 C3121 1.526 . S
C3124 C3125 1.396 . S
C3124 C3129 1.390 . S
C3125 C3119 1.465 . S
C3125 C3124 1.396 . S
C3125 C3126 1.399 . S
C3126 H3112 0.929 . S
C3126 C3125 1.399 . S
C3126 C3127 1.385 . S
C3127 H3113 0.931 . S
C3127 C3126 1.385 . S
C3127 C3128 1.389 . S
C3128 C3127 1.389 . S
C3128 C3129 1.387 . S
C3129 H3114 0.930 . S
C3129 C3124 1.390 . S
C3129 C3128 1.387 . S
H3130 C3142 0.930 . S
H3131 C3144 0.930 . S
H3132 C3145 0.930 . S
H3133 C3149 0.959 . S
H3134 C3149 0.959 . S
H3135 C3149 0.961 . S
H3136 C3150 0.960 . S
H3137 C3150 0.961 . S
H3138 C3150 0.959 . S
H3139 C3153 0.929 . S
H3140 C3154 0.931 . S
H3141 C3156 0.930 . S
C3142 H3130 0.930 . S
C3142 C3143 1.399 . S
C3142 C3147 1.399 . S
C3143 C3142 1.399 . S
C3143 C3144 1.376 . S
C3144 H3131 0.930 . S
C3144 C3143 1.376 . S
C3144 C3145 1.388 . S
C3145 H3132 0.930 . S
C3145 C3144 1.388 . S
C3145 C3146 1.390 . S
C3146 C3145 1.390 . S
C3146 C3147 1.394 . S
C3146 C3152 1.465 . S
C3147 C3142 1.399 . S
C3147 C3146 1.394 . S
C3147 C3148 1.516 . S
C3148 C3147 1.516 . S
C3148 C3149 1.502 . S
C3148 C3150 1.561 . S
C3148 C3151 1.526 . S
C3149 H3133 0.959 . S
C3149 H3134 0.959 . S
C3149 H3135 0.961 . S
C3149 C3148 1.502 . S
C3150 H3136 0.960 . S
C3150 H3137 0.961 . S
C3150 H3138 0.959 . S
C3150 C3148 1.561 . S
C3151 C3148 1.526 . S
C3151 C3152 1.396 . S
C3151 C3156 1.390 . S
C3152 C3146 1.465 . S
C3152 C3151 1.396 . S
C3152 C3153 1.399 . S
C3153 H3139 0.929 . S
C3153 C3152 1.399 . S
C3153 C3154 1.385 . S
C3154 H3140 0.931 . S
C3154 C3153 1.385 . S
C3154 C3155 1.389 . S
C3155 C3154 1.389 . S
C3155 C3156 1.387 . S
C3156 H3141 0.930 . S
C3156 C3151 1.390 . S
C3156 C3155 1.387 . S
H3157 C3169 0.930 . S
H3158 C3171 0.930 . S
H3159 C3172 0.930 . S
H3160 C3176 0.959 . S
H3161 C3176 0.959 . S
H3162 C3176 0.961 . S
H3163 C3177 0.960 . S
H3164 C3177 0.961 . S
H3165 C3177 0.959 . S
H3166 C3180 0.929 . S
H3167 C3181 0.931 . S
H3168 C3183 0.930 . S
C3169 H3157 0.930 . S
C3169 C3170 1.399 . S
C3169 C3174 1.399 . S
C3170 C3169 1.399 . S
C3170 C3171 1.376 . S
C3171 H3158 0.930 . S
C3171 C3170 1.376 . S
C3171 C3172 1.388 . S
C3172 H3159 0.930 . S
C3172 C3171 1.388 . S
C3172 C3173 1.390 . S
C3173 C3172 1.390 . S
C3173 C3174 1.394 . S
C3173 C3179 1.465 . S
C3174 C3169 1.399 . S
C3174 C3173 1.394 . S
C3174 C3175 1.516 . S
C3175 C3174 1.516 . S
C3175 C3176 1.502 . S
C3175 C3177 1.561 . S
C3175 C3178 1.526 . S
C3176 H3160 0.959 . S
C3176 H3161 0.959 . S
C3176 H3162 0.961 . S
C3176 C3175 1.502 . S
C3177 H3163 0.960 . S
C3177 H3164 0.961 . S
C3177 H3165 0.959 . S
C3177 C3175 1.561 . S
C3178 C3175 1.526 . S
C3178 C3179 1.396 . S
C3178 C3183 1.390 . S
C3179 C3173 1.465 . S
C3179 C3178 1.396 . S
C3179 C3180 1.399 . S
C3180 H3166 0.929 . S
C3180 C3179 1.399 . S
C3180 C3181 1.385 . S
C3181 H3167 0.931 . S
C3181 C3180 1.385 . S
C3181 C3182 1.389 . S
C3182 C3181 1.389 . S
C3182 C3183 1.387 . S
C3183 H3168 0.930 . S
C3183 C3178 1.390 . S
C3183 C3182 1.387 . S
H3184 C3196 0.930 . S
H3185 C3198 0.930 1_545 S
H3186 C3199 0.930 . S
H3187 C3203 0.959 . S
H3188 C3203 0.959 . S
H3189 C3203 0.961 . S
H3190 C3204 0.960 . S
H3191 C3204 0.961 . S
H3192 C3204 0.959 . S
H3193 C3207 0.929 . S
H3194 C3208 0.931 . S
H3195 C3210 0.930 . S
C3196 H3184 0.930 . S
C3196 C3197 1.399 . S
C3196 C3201 1.399 . S
C3197 C3196 1.399 . S
C3197 C3198 1.376 . S
C3198 H3185 0.930 1_565 S
C3198 C3197 1.376 . S
C3198 C3199 1.388 1_565 S
C3199 H3186 0.930 . S
C3199 C3198 1.388 1_545 S
C3199 C3200 1.390 1_545 S
C3200 C3199 1.390 1_565 S
C3200 C3201 1.394 . S
C3200 C3206 1.465 . S
C3201 C3196 1.399 . S
C3201 C3200 1.394 . S
C3201 C3202 1.516 . S
C3202 C3201 1.516 . S
C3202 C3203 1.502 . S
C3202 C3204 1.561 . S
C3202 C3205 1.526 . S
C3203 H3187 0.959 . S
C3203 H3188 0.959 . S
C3203 H3189 0.961 . S
C3203 C3202 1.502 . S
C3204 H3190 0.960 . S
C3204 H3191 0.961 . S
C3204 H3192 0.959 . S
C3204 C3202 1.561 . S
C3205 C3202 1.526 . S
C3205 C3206 1.396 . S
C3205 C3210 1.390 . S
C3206 C3200 1.465 . S
C3206 C3205 1.396 . S
C3206 C3207 1.399 1_565 S
C3207 H3193 0.929 . S
C3207 C3206 1.399 1_545 S
C3207 C3208 1.385 . S
C3208 H3194 0.931 . S
C3208 C3207 1.385 . S
C3208 C3209 1.389 1_545 S
C3209 C3208 1.389 1_565 S
C3209 C3210 1.387 . S
C3210 H3195 0.930 . S
C3210 C3205 1.390 . S
C3210 C3209 1.387 . S
H3211 C3223 0.930 . S
H3212 C3225 0.930 . S
H3213 C3226 0.930 . S
H3214 C3230 0.959 . S
H3215 C3230 0.959 . S
H3216 C3230 0.961 . S
H3217 C3231 0.960 . S
H3218 C3231 0.961 . S
H3219 C3231 0.959 . S
H3220 C3234 0.929 . S
H3221 C3235 0.931 . S
H3222 C3237 0.930 . S
C3223 H3211 0.930 . S
C3223 C3224 1.399 . S
C3223 C3228 1.399 . S
C3224 C3223 1.399 . S
C3224 C3225 1.376 1_556 S
C3225 H3212 0.930 . S
C3225 C3224 1.376 1_554 S
C3225 C3226 1.388 . S
C3226 H3213 0.930 . S
C3226 C3225 1.388 . S
C3226 C3227 1.390 . S
C3227 C3226 1.390 . S
C3227 C3228 1.394 1_554 S
C3227 C3233 1.465 . S
C3228 C3223 1.399 . S
C3228 C3227 1.394 1_556 S
C3228 C3229 1.516 . S
C3229 C3228 1.516 . S
C3229 C3230 1.502 . S
C3229 C3231 1.561 . S
C3229 C3232 1.526 . S
C3230 H3214 0.959 . S
C3230 H3215 0.959 . S
C3230 H3216 0.961 . S
C3230 C3229 1.502 . S
C3231 H3217 0.960 . S
C3231 H3218 0.961 . S
C3231 H3219 0.959 . S
C3231 C3229 1.561 . S
C3232 C3229 1.526 . S
C3232 C3233 1.396 1_556 S
C3232 C3237 1.390 . S
C3233 C3227 1.465 . S
C3233 C3232 1.396 1_554 S
C3233 C3234 1.399 . S
C3234 H3220 0.929 . S
C3234 C3233 1.399 . S
C3234 C3235 1.385 . S
C3235 H3221 0.931 . S
C3235 C3234 1.385 . S
C3235 C3236 1.389 . S
C3236 C3235 1.389 . S
C3236 C3237 1.387 1_554 S
C3237 H3222 0.930 . S
C3237 C3232 1.390 . S
C3237 C3236 1.387 1_556 S
H3238 C3250 0.930 . S
H3239 C3252 0.930 . S
H3240 C3253 0.930 . S
H3241 C3257 0.959 . S
H3242 C3257 0.959 . S
H3243 C3257 0.961 . S
H3244 C3258 0.960 . S
H3245 C3258 0.961 . S
H3246 C3258 0.959 . S
H3247 C3261 0.929 . S
H3248 C3262 0.931 . S
H3249 C3264 0.930 . S
C3250 H3238 0.930 . S
C3250 C3251 1.399 . S
C3250 C3255 1.399 . S
C3251 C3250 1.399 . S
C3251 C3252 1.376 . S
C3252 H3239 0.930 . S
C3252 C3251 1.376 . S
C3252 C3253 1.388 . S
C3253 H3240 0.930 . S
C3253 C3252 1.388 . S
C3253 C3254 1.390 . S
C3254 C3253 1.390 . S
C3254 C3255 1.394 . S
C3254 C3260 1.465 . S
C3255 C3250 1.399 . S
C3255 C3254 1.394 . S
C3255 C3256 1.516 . S
C3256 C3255 1.516 . S
C3256 C3257 1.502 . S
C3256 C3258 1.561 . S
C3256 C3259 1.526 . S
C3257 H3241 0.959 . S
C3257 H3242 0.959 . S
C3257 H3243 0.961 . S
C3257 C3256 1.502 . S
C3258 H3244 0.960 . S
C3258 H3245 0.961 . S
C3258 H3246 0.959 . S
C3258 C3256 1.561 . S
C3259 C3256 1.526 . S
C3259 C3260 1.396 . S
C3259 C3264 1.390 . S
C3260 C3254 1.465 . S
C3260 C3259 1.396 . S
C3260 C3261 1.399 . S
C3261 H3247 0.929 . S
C3261 C3260 1.399 . S
C3261 C3262 1.385 . S
C3262 H3248 0.931 . S
C3262 C3261 1.385 . S
C3262 C3263 1.389 . S
C3263 C3262 1.389 . S
C3263 C3264 1.387 . S
C3264 H3249 0.930 . S
C3264 C3259 1.390 . S
C3264 C3263 1.387 . S
H3265 C3277 0.930 . S
H3266 C3279 0.930 . S
H3267 C3280 0.930 . S
H3268 C3284 0.959 . S
H3269 C3284 0.959 . S
H3270 C3284 0.961 . S
H3271 C3285 0.960 . S
H3272 C3285 0.961 . S
H3273 C3285 0.959 . S
H3274 C3288 0.929 . S
H3275 C3289 0.931 . S
H3276 C3291 0.930 . S
C3277 H3265 0.930 . S
C3277 C3278 1.399 . S
C3277 C3282 1.399 . S
C3278 C3277 1.399 . S
C3278 C3279 1.376 . S
C3279 H3266 0.930 . S
C3279 C3278 1.376 . S
C3279 C3280 1.388 . S
C3280 H3267 0.930 . S
C3280 C3279 1.388 . S
C3280 C3281 1.390 . S
C3281 C3280 1.390 . S
C3281 C3282 1.394 . S
C3281 C3287 1.465 . S
C3282 C3277 1.399 . S
C3282 C3281 1.394 . S
C3282 C3283 1.516 . S
C3283 C3282 1.516 . S
C3283 C3284 1.502 . S
C3283 C3285 1.561 . S
C3283 C3286 1.526 . S
C3284 H3268 0.959 . S
C3284 H3269 0.959 . S
C3284 H3270 0.961 . S
C3284 C3283 1.502 . S
C3285 H3271 0.960 . S
C3285 H3272 0.961 . S
C3285 H3273 0.959 . S
C3285 C3283 1.561 . S
C3286 C3283 1.526 . S
C3286 C3287 1.396 . S
C3286 C3291 1.390 . S
C3287 C3281 1.465 . S
C3287 C3286 1.396 . S
C3287 C3288 1.399 . S
C3288 H3274 0.929 . S
C3288 C3287 1.399 . S
C3288 C3289 1.385 . S
C3289 H3275 0.931 . S
C3289 C3288 1.385 . S
C3289 C3290 1.389 . S
C3290 C3289 1.389 . S
C3290 C3291 1.387 . S
C3291 H3276 0.930 . S
C3291 C3286 1.390 . S
C3291 C3290 1.387 . S
H3292 C3304 0.930 . S
H3293 C3306 0.930 . S
H3294 C3307 0.930 . S
H3295 C3311 0.959 . S
H3296 C3311 0.959 . S
H3297 C3311 0.961 . S
H3298 C3312 0.960 . S
H3299 C3312 0.961 . S
H3300 C3312 0.959 . S
H3301 C3315 0.929 . S
H3302 C3316 0.931 . S
H3303 C3318 0.930 . S
C3304 H3292 0.930 . S
C3304 C3305 1.399 . S
C3304 C3309 1.399 . S
C3305 C3304 1.399 . S
C3305 C3306 1.376 . S
C3306 H3293 0.930 . S
C3306 C3305 1.376 . S
C3306 C3307 1.388 . S
C3307 H3294 0.930 . S
C3307 C3306 1.388 . S
C3307 C3308 1.390 . S
C3308 C3307 1.390 . S
C3308 C3309 1.394 . S
C3308 C3314 1.465 . S
C3309 C3304 1.399 . S
C3309 C3308 1.394 . S
C3309 C3310 1.516 . S
C3310 C3309 1.516 . S
C3310 C3311 1.502 . S
C3310 C3312 1.561 . S
C3310 C3313 1.526 . S
C3311 H3295 0.959 . S
C3311 H3296 0.959 . S
C3311 H3297 0.961 . S
C3311 C3310 1.502 . S
C3312 H3298 0.960 . S
C3312 H3299 0.961 . S
C3312 H3300 0.959 . S
C3312 C3310 1.561 . S
C3313 C3310 1.526 . S
C3313 C3314 1.396 . S
C3313 C3318 1.390 . S
C3314 C3308 1.465 . S
C3314 C3313 1.396 . S
C3314 C3315 1.399 . S
C3315 H3301 0.929 . S
C3315 C3314 1.399 . S
C3315 C3316 1.385 . S
C3316 H3302 0.931 . S
C3316 C3315 1.385 . S
C3316 C3317 1.389 . S
C3317 C3316 1.389 . S
C3317 C3318 1.387 . S
C3318 H3303 0.930 . S
C3318 C3313 1.390 . S
C3318 C3317 1.387 . S
H3319 C3331 0.930 . S
H3320 C3333 0.930 . S
H3321 C3334 0.930 . S
H3322 C3338 0.959 . S
H3323 C3338 0.959 . S
H3324 C3338 0.961 . S
H3325 C3339 0.960 . S
H3326 C3339 0.961 . S
H3327 C3339 0.959 . S
H3328 C3342 0.929 . S
H3329 C3343 0.931 . S
H3330 C3345 0.930 . S
C3331 H3319 0.930 . S
C3331 C3332 1.399 . S
C3331 C3336 1.399 . S
C3332 C3331 1.399 . S
C3332 C3333 1.376 . S
C3333 H3320 0.930 . S
C3333 C3332 1.376 . S
C3333 C3334 1.388 . S
C3334 H3321 0.930 . S
C3334 C3333 1.388 . S
C3334 C3335 1.390 . S
C3335 C3334 1.390 . S
C3335 C3336 1.394 . S
C3335 C3341 1.465 . S
C3336 C3331 1.399 . S
C3336 C3335 1.394 . S
C3336 C3337 1.516 . S
C3337 C3336 1.516 . S
C3337 C3338 1.502 . S
C3337 C3339 1.561 . S
C3337 C3340 1.526 . S
C3338 H3322 0.959 . S
C3338 H3323 0.959 . S
C3338 H3324 0.961 . S
C3338 C3337 1.502 . S
C3339 H3325 0.960 . S
C3339 H3326 0.961 . S
C3339 H3327 0.959 . S
C3339 C3337 1.561 . S
C3340 C3337 1.526 . S
C3340 C3341 1.396 . S
C3340 C3345 1.390 . S
C3341 C3335 1.465 . S
C3341 C3340 1.396 . S
C3341 C3342 1.399 . S
C3342 H3328 0.929 . S
C3342 C3341 1.399 . S
C3342 C3343 1.385 . S
C3343 H3329 0.931 . S
C3343 C3342 1.385 . S
C3343 C3344 1.389 . S
C3344 C3343 1.389 . S
C3344 C3345 1.387 . S
C3345 H3330 0.930 . S
C3345 C3340 1.390 . S
C3345 C3344 1.387 . S
H3346 C3358 0.930 . S
H3347 C3360 0.930 . S
H3348 C3361 0.930 . S
H3349 C3365 0.959 . S
H3350 C3365 0.959 . S
H3351 C3365 0.961 . S
H3352 C3366 0.960 . S
H3353 C3366 0.961 . S
H3354 C3366 0.959 . S
H3355 C3369 0.929 . S
H3356 C3370 0.931 . S
H3357 C3372 0.930 . S
C3358 H3346 0.930 . S
C3358 C3359 1.399 . S
C3358 C3363 1.399 . S
C3359 C3358 1.399 . S
C3359 C3360 1.376 . S
C3360 H3347 0.930 . S
C3360 C3359 1.376 . S
C3360 C3361 1.388 . S
C3361 H3348 0.930 . S
C3361 C3360 1.388 . S
C3361 C3362 1.390 . S
C3362 C3361 1.390 . S
C3362 C3363 1.394 . S
C3362 C3368 1.465 . S
C3363 C3358 1.399 . S
C3363 C3362 1.394 . S
C3363 C3364 1.516 . S
C3364 C3363 1.516 . S
C3364 C3365 1.502 . S
C3364 C3366 1.561 . S
C3364 C3367 1.526 . S
C3365 H3349 0.959 . S
C3365 H3350 0.959 . S
C3365 H3351 0.961 . S
C3365 C3364 1.502 . S
C3366 H3352 0.960 . S
C3366 H3353 0.961 . S
C3366 H3354 0.959 . S
C3366 C3364 1.561 . S
C3367 C3364 1.526 . S
C3367 C3368 1.396 . S
C3367 C3372 1.390 . S
C3368 C3362 1.465 . S
C3368 C3367 1.396 . S
C3368 C3369 1.399 . S
C3369 H3355 0.929 . S
C3369 C3368 1.399 . S
C3369 C3370 1.385 . S
C3370 H3356 0.931 . S
C3370 C3369 1.385 . S
C3370 C3371 1.389 . S
C3371 C3370 1.389 . S
C3371 C3372 1.387 . S
C3372 H3357 0.930 . S
C3372 C3367 1.390 . S
C3372 C3371 1.387 . S
H3373 C3385 0.930 . S
H3374 C3387 0.930 . S
H3375 C3388 0.930 . S
H3376 C3392 0.959 . S
H3377 C3392 0.959 . S
H3378 C3392 0.961 . S
H3379 C3393 0.960 . S
H3380 C3393 0.961 . S
H3381 C3393 0.959 . S
H3382 C3396 0.929 . S
H3383 C3397 0.931 . S
H3384 C3399 0.930 . S
C3385 H3373 0.930 . S
C3385 C3386 1.399 . S
C3385 C3390 1.399 . S
C3386 C3385 1.399 . S
C3386 C3387 1.376 . S
C3387 H3374 0.930 . S
C3387 C3386 1.376 . S
C3387 C3388 1.388 . S
C3388 H3375 0.930 . S
C3388 C3387 1.388 . S
C3388 C3389 1.390 . S
C3389 C3388 1.390 . S
C3389 C3390 1.394 . S
C3389 C3395 1.465 . S
C3390 C3385 1.399 . S
C3390 C3389 1.394 . S
C3390 C3391 1.516 . S
C3391 C3390 1.516 . S
C3391 C3392 1.502 . S
C3391 C3393 1.561 . S
C3391 C3394 1.526 . S
C3392 H3376 0.959 . S
C3392 H3377 0.959 . S
C3392 H3378 0.961 . S
C3392 C3391 1.502 . S
C3393 H3379 0.960 . S
C3393 H3380 0.961 . S
C3393 H3381 0.959 . S
C3393 C3391 1.561 . S
C3394 C3391 1.526 . S
C3394 C3395 1.396 . S
C3394 C3399 1.390 . S
C3395 C3389 1.465 . S
C3395 C3394 1.396 . S
C3395 C3396 1.399 . S
C3396 H3382 0.929 . S
C3396 C3395 1.399 . S
C3396 C3397 1.385 . S
C3397 H3383 0.931 . S
C3397 C3396 1.385 . S
C3397 C3398 1.389 . S
C3398 C3397 1.389 . S
C3398 C3399 1.387 . S
C3399 H3384 0.930 . S
C3399 C3394 1.390 . S
C3399 C3398 1.387 . S
H3400 C3412 0.930 . S
H3401 C3414 0.930 . S
H3402 C3415 0.930 . S
H3403 C3419 0.959 . S
H3404 C3419 0.959 . S
H3405 C3419 0.961 . S
H3406 C3420 0.960 . S
H3407 C3420 0.961 . S
H3408 C3420 0.959 . S
H3409 C3423 0.929 . S
H3410 C3424 0.931 1_556 S
H3411 C3426 0.930 . S
C3412 H3400 0.930 . S
C3412 C3413 1.399 . S
C3412 C3417 1.399 . S
C3413 C3412 1.399 . S
C3413 C3414 1.376 . S
C3414 H3401 0.930 . S
C3414 C3413 1.376 . S
C3414 C3415 1.388 . S
C3415 H3402 0.930 . S
C3415 C3414 1.388 . S
C3415 C3416 1.390 . S
C3416 C3415 1.390 . S
C3416 C3417 1.394 . S
C3416 C3422 1.465 . S
C3417 C3412 1.399 . S
C3417 C3416 1.394 . S
C3417 C3418 1.516 . S
C3418 C3417 1.516 . S
C3418 C3419 1.502 . S
C3418 C3420 1.561 . S
C3418 C3421 1.526 . S
C3419 H3403 0.959 . S
C3419 H3404 0.959 . S
C3419 H3405 0.961 . S
C3419 C3418 1.502 . S
C3420 H3406 0.960 . S
C3420 H3407 0.961 . S
C3420 H3408 0.959 . S
C3420 C3418 1.561 . S
C3421 C3418 1.526 . S
C3421 C3422 1.396 . S
C3421 C3426 1.390 . S
C3422 C3416 1.465 . S
C3422 C3421 1.396 . S
C3422 C3423 1.399 . S
C3423 H3409 0.929 . S
C3423 C3422 1.399 . S
C3423 C3424 1.385 . S
C3424 H3410 0.931 1_554 S
C3424 C3423 1.385 . S
C3424 C3425 1.389 . S
C3425 C3424 1.389 . S
C3425 C3426 1.387 . S
C3426 H3411 0.930 . S
C3426 C3421 1.390 . S
C3426 C3425 1.387 . S
H3427 C3439 0.930 . S
H3428 C3441 0.930 . S
H3429 C3442 0.930 . S
H3430 C3446 0.959 . S
H3431 C3446 0.959 . S
H3432 C3446 0.961 . S
H3433 C3447 0.960 . S
H3434 C3447 0.961 . S
H3435 C3447 0.959 . S
H3436 C3450 0.929 . S
H3437 C3451 0.931 . S
H3438 C3453 0.930 . S
C3439 H3427 0.930 . S
C3439 C3440 1.399 . S
C3439 C3444 1.399 . S
C3440 C3439 1.399 . S
C3440 C3441 1.376 . S
C3441 H3428 0.930 . S
C3441 C3440 1.376 . S
C3441 C3442 1.388 . S
C3442 H3429 0.930 . S
C3442 C3441 1.388 . S
C3442 C3443 1.390 . S
C3443 C3442 1.390 . S
C3443 C3444 1.394 . S
C3443 C3449 1.465 . S
C3444 C3439 1.399 . S
C3444 C3443 1.394 . S
C3444 C3445 1.516 . S
C3445 C3444 1.516 . S
C3445 C3446 1.502 . S
C3445 C3447 1.561 . S
C3445 C3448 1.526 . S
C3446 H3430 0.959 . S
C3446 H3431 0.959 . S
C3446 H3432 0.961 . S
C3446 C3445 1.502 . S
C3447 H3433 0.960 . S
C3447 H3434 0.961 . S
C3447 H3435 0.959 . S
C3447 C3445 1.561 . S
C3448 C3445 1.526 . S
C3448 C3449 1.396 . S
C3448 C3453 1.390 . S
C3449 C3443 1.465 . S
C3449 C3448 1.396 . S
C3449 C3450 1.399 . S
C3450 H3436 0.929 . S
C3450 C3449 1.399 . S
C3450 C3451 1.385 . S
C3451 H3437 0.931 . S
C3451 C3450 1.385 . S
C3451 C3452 1.389 . S
C3452 C3451 1.389 . S
C3452 C3453 1.387 . S
C3453 H3438 0.930 . S
C3453 C3448 1.390 . S
C3453 C3452 1.387 . S
H3454 C3466 0.930 . S
H3455 C3468 0.930 . S
H3456 C3469 0.930 . S
H3457 C3473 0.959 . S
H3458 C3473 0.959 . S
H3459 C3473 0.961 . S
H3460 C3474 0.960 . S
H3461 C3474 0.961 . S
H3462 C3474 0.959 . S
H3463 C3477 0.929 . S
H3464 C3478 0.931 . S
H3465 C3480 0.930 . S
C3466 H3454 0.930 . S
C3466 C3467 1.399 . S
C3466 C3471 1.399 . S
C3467 C3466 1.399 . S
C3467 C3468 1.376 . S
C3468 H3455 0.930 . S
C3468 C3467 1.376 . S
C3468 C3469 1.388 . S
C3469 H3456 0.930 . S
C3469 C3468 1.388 . S
C3469 C3470 1.390 . S
C3470 C3469 1.390 . S
C3470 C3471 1.394 . S
C3470 C3476 1.465 . S
C3471 C3466 1.399 . S
C3471 C3470 1.394 . S
C3471 C3472 1.516 . S
C3472 C3471 1.516 . S
C3472 C3473 1.502 . S
C3472 C3474 1.561 . S
C3472 C3475 1.526 . S
C3473 H3457 0.959 . S
C3473 H3458 0.959 . S
C3473 H3459 0.961 . S
C3473 C3472 1.502 . S
C3474 H3460 0.960 . S
C3474 H3461 0.961 . S
C3474 H3462 0.959 . S
C3474 C3472 1.561 . S
C3475 C3472 1.526 . S
C3475 C3476 1.396 . S
C3475 C3480 1.390 . S
C3476 C3470 1.465 . S
C3476 C3475 1.396 . S
C3476 C3477 1.399 . S
C3477 H3463 0.929 . S
C3477 C3476 1.399 . S
C3477 C3478 1.385 . S
C3478 H3464 0.931 . S
C3478 C3477 1.385 . S
C3478 C3479 1.389 . S
C3479 C3478 1.389 . S
C3479 C3480 1.387 . S
C3480 H3465 0.930 . S
C3480 C3475 1.390 . S
C3480 C3479 1.387 . S
H3481 C3493 0.930 . S
H3482 C3495 0.930 . S
H3483 C3496 0.930 . S
H3484 C3500 0.959 . S
H3485 C3500 0.959 . S
H3486 C3500 0.961 . S
H3487 C3501 0.960 . S
H3488 C3501 0.961 . S
H3489 C3501 0.959 . S
H3490 C3504 0.929 . S
H3491 C3505 0.931 . S
H3492 C3507 0.930 . S
C3493 H3481 0.930 . S
C3493 C3494 1.399 . S
C3493 C3498 1.399 . S
C3494 C3493 1.399 . S
C3494 C3495 1.376 . S
C3495 H3482 0.930 . S
C3495 C3494 1.376 . S
C3495 C3496 1.388 . S
C3496 H3483 0.930 . S
C3496 C3495 1.388 . S
C3496 C3497 1.390 . S
C3497 C3496 1.390 . S
C3497 C3498 1.394 . S
C3497 C3503 1.465 . S
C3498 C3493 1.399 . S
C3498 C3497 1.394 . S
C3498 C3499 1.516 . S
C3499 C3498 1.516 . S
C3499 C3500 1.502 . S
C3499 C3501 1.561 . S
C3499 C3502 1.526 . S
C3500 H3484 0.959 . S
C3500 H3485 0.959 . S
C3500 H3486 0.961 . S
C3500 C3499 1.502 . S
C3501 H3487 0.960 . S
C3501 H3488 0.961 . S
C3501 H3489 0.959 . S
C3501 C3499 1.561 . S
C3502 C3499 1.526 . S
C3502 C3503 1.396 . S
C3502 C3507 1.390 . S
C3503 C3497 1.465 . S
C3503 C3502 1.396 . S
C3503 C3504 1.399 . S
C3504 H3490 0.929 . S
C3504 C3503 1.399 . S
C3504 C3505 1.385 . S
C3505 H3491 0.931 . S
C3505 C3504 1.385 . S
C3505 C3506 1.389 . S
C3506 C3505 1.389 . S
C3506 C3507 1.387 . S
C3507 H3492 0.930 . S
C3507 C3502 1.390 . S
C3507 C3506 1.387 . S
H3508 C3520 0.930 . S
H3509 C3522 0.930 . S
H3510 C3523 0.930 . S
H3511 C3527 0.959 . S
H3512 C3527 0.959 . S
H3513 C3527 0.961 . S
H3514 C3528 0.960 . S
H3515 C3528 0.961 . S
H3516 C3528 0.959 . S
H3517 C3531 0.929 . S
H3518 C3532 0.931 . S
H3519 C3534 0.930 . S
C3520 H3508 0.930 . S
C3520 C3521 1.399 . S
C3520 C3525 1.399 . S
C3521 C3520 1.399 . S
C3521 C3522 1.376 . S
C3522 H3509 0.930 . S
C3522 C3521 1.376 . S
C3522 C3523 1.388 . S
C3523 H3510 0.930 . S
C3523 C3522 1.388 . S
C3523 C3524 1.390 . S
C3524 C3523 1.390 . S
C3524 C3525 1.394 . S
C3524 C3530 1.465 . S
C3525 C3520 1.399 . S
C3525 C3524 1.394 . S
C3525 C3526 1.516 . S
C3526 C3525 1.516 . S
C3526 C3527 1.502 . S
C3526 C3528 1.561 . S
C3526 C3529 1.526 . S
C3527 H3511 0.959 . S
C3527 H3512 0.959 . S
C3527 H3513 0.961 . S
C3527 C3526 1.502 . S
C3528 H3514 0.960 . S
C3528 H3515 0.961 . S
C3528 H3516 0.959 . S
C3528 C3526 1.561 . S
C3529 C3526 1.526 . S
C3529 C3530 1.396 . S
C3529 C3534 1.390 . S
C3530 C3524 1.465 . S
C3530 C3529 1.396 . S
C3530 C3531 1.399 . S
C3531 H3517 0.929 . S
C3531 C3530 1.399 . S
C3531 C3532 1.385 . S
C3532 H3518 0.931 . S
C3532 C3531 1.385 . S
C3532 C3533 1.389 . S
C3533 C3532 1.389 . S
C3533 C3534 1.387 . S
C3534 H3519 0.930 . S
C3534 C3529 1.390 . S
C3534 C3533 1.387 . S
H3535 C3547 0.930 . S
H3536 C3549 0.930 . S
H3537 C3550 0.930 . S
H3538 C3554 0.959 . S
H3539 C3554 0.959 . S
H3540 C3554 0.961 . S
H3541 C3555 0.960 . S
H3542 C3555 0.961 . S
H3543 C3555 0.959 . S
H3544 C3558 0.929 . S
H3545 C3559 0.931 . S
H3546 C3561 0.930 . S
C3547 H3535 0.930 . S
C3547 C3548 1.399 . S
C3547 C3552 1.399 . S
C3548 C3547 1.399 . S
C3548 C3549 1.376 . S
C3549 H3536 0.930 . S
C3549 C3548 1.376 . S
C3549 C3550 1.388 . S
C3550 H3537 0.930 . S
C3550 C3549 1.388 . S
C3550 C3551 1.390 . S
C3551 C3550 1.390 . S
C3551 C3552 1.394 . S
C3551 C3557 1.465 . S
C3552 C3547 1.399 . S
C3552 C3551 1.394 . S
C3552 C3553 1.516 . S
C3553 C3552 1.516 . S
C3553 C3554 1.502 . S
C3553 C3555 1.561 . S
C3553 C3556 1.526 . S
C3554 H3538 0.959 . S
C3554 H3539 0.959 . S
C3554 H3540 0.961 . S
C3554 C3553 1.502 . S
C3555 H3541 0.960 . S
C3555 H3542 0.961 . S
C3555 H3543 0.959 . S
C3555 C3553 1.561 . S
C3556 C3553 1.526 . S
C3556 C3557 1.396 . S
C3556 C3561 1.390 . S
C3557 C3551 1.465 . S
C3557 C3556 1.396 . S
C3557 C3558 1.399 . S
C3558 H3544 0.929 . S
C3558 C3557 1.399 . S
C3558 C3559 1.385 . S
C3559 H3545 0.931 . S
C3559 C3558 1.385 . S
C3559 C3560 1.389 . S
C3560 C3559 1.389 . S
C3560 C3561 1.387 . S
C3561 H3546 0.930 . S
C3561 C3556 1.390 . S
C3561 C3560 1.387 . S
H3562 C3574 0.930 . S
H3563 C3576 0.930 . S
H3564 C3577 0.930 . S
H3565 C3581 0.955 . S
H3566 C3581 0.959 . S
H3567 C3581 0.961 . S
H3568 C3582 0.960 . S
H3569 C3582 0.961 . S
H3570 C3582 0.959 . S
H3571 C3585 0.929 . S
H3572 C3586 0.931 . S
H3573 C3588 0.930 1_554 S
C3574 H3562 0.930 . S
C3574 C3575 1.399 . S
C3574 C3579 1.399 . S
C3575 C3574 1.399 . S
C3575 C3576 1.376 . S
C3576 H3563 0.930 . S
C3576 C3575 1.376 . S
C3576 C3577 1.388 . S
C3577 H3564 0.930 . S
C3577 C3576 1.388 . S
C3577 C3578 1.390 . S
C3578 C3577 1.390 . S
C3578 C3579 1.394 . S
C3578 C3584 1.465 . S
C3579 C3574 1.399 . S
C3579 C3578 1.394 . S
C3579 C3580 1.516 . S
C3580 C3579 1.516 . S
C3580 C3581 1.502 1_556 S
C3580 C3582 1.561 . S
C3580 C3583 1.526 . S
C3581 H3565 0.955 . S
C3581 H3566 0.959 . S
C3581 H3567 0.961 . S
C3581 C3580 1.502 1_554 S
C3582 H3568 0.960 . S
C3582 H3569 0.961 . S
C3582 H3570 0.959 . S
C3582 C3580 1.561 . S
C3583 C3580 1.526 . S
C3583 C3584 1.396 . S
C3583 C3588 1.390 . S
C3584 C3578 1.465 . S
C3584 C3583 1.396 . S
C3584 C3585 1.399 . S
C3585 H3571 0.929 . S
C3585 C3584 1.399 . S
C3585 C3586 1.385 . S
C3586 H3572 0.931 . S
C3586 C3585 1.385 . S
C3586 C3587 1.389 . S
C3587 C3586 1.389 . S
C3587 C3588 1.387 . S
C3588 H3573 0.930 1_556 S
C3588 C3583 1.390 . S
C3588 C3587 1.387 . S
H3589 C3601 0.930 . S
H3590 C3603 0.930 . S
H3591 C3604 0.930 . S
H3592 C3608 0.959 . S
H3593 C3608 0.959 . S
H3594 C3608 0.961 . S
H3595 C3609 0.960 . S
H3596 C3609 0.961 . S
H3597 C3609 0.959 . S
H3598 C3612 0.929 . S
H3599 C3613 0.931 . S
H3600 C3615 0.930 . S
C3601 H3589 0.930 . S
C3601 C3602 1.399 . S
C3601 C3606 1.399 . S
C3602 C3601 1.399 . S
C3602 C3603 1.376 . S
C3603 H3590 0.930 . S
C3603 C3602 1.376 . S
C3603 C3604 1.388 . S
C3604 H3591 0.930 . S
C3604 C3603 1.388 . S
C3604 C3605 1.390 . S
C3605 C3604 1.390 . S
C3605 C3606 1.394 . S
C3605 C3611 1.465 . S
C3606 C3601 1.399 . S
C3606 C3605 1.394 . S
C3606 C3607 1.516 . S
C3607 C3606 1.516 . S
C3607 C3608 1.502 . S
C3607 C3609 1.561 . S
C3607 C3610 1.526 . S
C3608 H3592 0.959 . S
C3608 H3593 0.959 . S
C3608 H3594 0.961 . S
C3608 C3607 1.502 . S
C3609 H3595 0.960 . S
C3609 H3596 0.961 . S
C3609 H3597 0.959 . S
C3609 C3607 1.561 . S
C3610 C3607 1.526 . S
C3610 C3611 1.396 . S
C3610 C3615 1.390 . S
C3611 C3605 1.465 . S
C3611 C3610 1.396 . S
C3611 C3612 1.399 . S
C3612 H3598 0.929 . S
C3612 C3611 1.399 . S
C3612 C3613 1.385 . S
C3613 H3599 0.931 . S
C3613 C3612 1.385 . S
C3613 C3614 1.389 . S
C3614 C3613 1.389 . S
C3614 C3615 1.387 . S
C3615 H3600 0.930 . S
C3615 C3610 1.390 . S
C3615 C3614 1.387 . S
H3616 C3628 0.930 . S
H3617 C3630 0.930 . S
H3618 C3631 0.930 . S
H3619 C3635 0.959 . S
H3620 C3635 0.959 . S
H3621 C3635 0.961 . S
H3622 C3636 0.960 . S
H3623 C3636 0.961 . S
H3624 C3636 0.959 . S
H3625 C3639 0.929 . S
H3626 C3640 0.931 . S
H3627 C3642 0.930 . S
C3628 H3616 0.930 . S
C3628 C3629 1.391 1_545 S
C3628 C3633 1.399 . S
C3629 C3628 1.391 1_565 S
C3629 C3630 1.386 . S
C3630 H3617 0.930 . S
C3630 C3629 1.386 . S
C3630 C3631 1.388 . S
C3631 H3618 0.930 . S
C3631 C3630 1.388 . S
C3631 C3632 1.390 . S
C3632 C3631 1.390 . S
C3632 C3633 1.394 1_565 S
C3632 C3638 1.467 . S
C3633 C3628 1.399 . S
C3633 C3632 1.394 1_545 S
C3633 C3634 1.516 . S
C3634 C3633 1.516 . S
C3634 C3635 1.502 . S
C3634 C3636 1.561 . S
C3634 C3637 1.526 . S
C3635 H3619 0.959 . S
C3635 H3620 0.959 . S
C3635 H3621 0.961 . S
C3635 C3634 1.502 . S
C3636 H3622 0.960 . S
C3636 H3623 0.961 . S
C3636 H3624 0.959 . S
C3636 C3634 1.561 . S
C3637 C3634 1.526 . S
C3637 C3638 1.374 1_545 S
C3637 C3642 1.390 . S
C3638 C3632 1.467 . S
C3638 C3637 1.374 1_565 S
C3638 C3639 1.416 . S
C3639 H3625 0.929 . S
C3639 C3638 1.416 . S
C3639 C3640 1.385 . S
C3640 H3626 0.931 . S
C3640 C3639 1.385 . S
C3640 C3641 1.389 1_565 S
C3641 C3640 1.389 1_545 S
C3641 C3642 1.387 . S
C3642 H3627 0.930 . S
C3642 C3637 1.390 . S
C3642 C3641 1.387 . S
H3643 C3655 0.930 . S
H3644 C3657 0.930 . S
H3645 C3658 0.930 . S
H3646 C3662 0.959 . S
H3647 C3662 0.959 . S
H3648 C3662 0.961 . S
H3649 C3663 0.960 . S
H3650 C3663 0.961 . S
H3651 C3663 0.959 . S
H3652 C3666 0.929 . S
H3653 C3667 0.931 . S
H3654 C3669 0.930 . S
C3655 H3643 0.930 . S
C3655 C3656 1.399 . S
C3655 C3660 1.399 . S
C3656 C3655 1.399 . S
C3656 C3657 1.376 . S
C3657 H3644 0.930 . S
C3657 C3656 1.376 . S
C3657 C3658 1.388 . S
C3658 H3645 0.930 . S
C3658 C3657 1.388 . S
C3658 C3659 1.390 . S
C3659 C3658 1.390 . S
C3659 C3660 1.394 . S
C3659 C3665 1.465 . S
C3660 C3655 1.399 . S
C3660 C3659 1.394 . S
C3660 C3661 1.516 . S
C3661 C3660 1.516 . S
C3661 C3662 1.502 . S
C3661 C3663 1.561 . S
C3661 C3664 1.526 . S
C3662 H3646 0.959 . S
C3662 H3647 0.959 . S
C3662 H3648 0.961 . S
C3662 C3661 1.502 . S
C3663 H3649 0.960 . S
C3663 H3650 0.961 . S
C3663 H3651 0.959 . S
C3663 C3661 1.561 . S
C3664 C3661 1.526 . S
C3664 C3665 1.396 . S
C3664 C3669 1.390 . S
C3665 C3659 1.465 . S
C3665 C3664 1.396 . S
C3665 C3666 1.399 . S
C3666 H3652 0.929 . S
C3666 C3665 1.399 . S
C3666 C3667 1.385 . S
C3667 H3653 0.931 . S
C3667 C3666 1.385 . S
C3667 C3668 1.389 . S
C3668 C3667 1.389 . S
C3668 C3669 1.387 . S
C3669 H3654 0.930 . S
C3669 C3664 1.390 . S
C3669 C3668 1.387 . S
H3670 C3682 0.930 1_565 S
H3671 C3684 0.930 . S
H3672 C3685 0.930 . S
H3673 C3689 0.959 . S
H3674 C3689 0.959 . S
H3675 C3689 0.961 . S
H3676 C3690 0.960 . S
H3677 C3690 0.961 . S
H3678 C3690 0.959 . S
H3679 C3693 0.929 . S
H3680 C3694 0.931 . S
H3681 C3696 0.930 . S
C3682 H3670 0.930 1_545 S
C3682 C3683 1.399 . S
C3682 C3687 1.399 . S
C3683 C3682 1.399 . S
C3683 C3684 1.376 . S
C3684 H3671 0.930 . S
C3684 C3683 1.376 . S
C3684 C3685 1.388 . S
C3685 H3672 0.930 . S
C3685 C3684 1.388 . S
C3685 C3686 1.390 . S
C3686 C3685 1.390 . S
C3686 C3687 1.394 . S
C3686 C3692 1.465 . S
C3687 C3682 1.399 . S
C3687 C3686 1.394 . S
C3687 C3688 1.516 . S
C3688 C3687 1.516 . S
C3688 C3689 1.502 1_545 S
C3688 C3690 1.561 1_545 S
C3688 C3691 1.526 . S
C3689 H3673 0.959 . S
C3689 H3674 0.959 . S
C3689 H3675 0.961 . S
C3689 C3688 1.502 1_565 S
C3690 H3676 0.960 . S
C3690 H3677 0.961 . S
C3690 H3678 0.959 . S
C3690 C3688 1.561 1_565 S
C3691 C3688 1.526 . S
C3691 C3692 1.396 . S
C3691 C3696 1.390 . S
C3692 C3686 1.465 . S
C3692 C3691 1.396 . S
C3692 C3693 1.399 . S
C3693 H3679 0.929 . S
C3693 C3692 1.399 . S
C3693 C3694 1.385 . S
C3694 H3680 0.931 . S
C3694 C3693 1.385 . S
C3694 C3695 1.389 . S
C3695 C3694 1.389 . S
C3695 C3696 1.387 . S
C3696 H3681 0.930 . S
C3696 C3691 1.390 . S
C3696 C3695 1.387 . S
H3697 C3709 0.930 . S
H3698 C3711 0.930 . S
H3699 C3712 0.930 . S
H3700 C3716 0.959 . S
H3701 C3716 0.959 . S
H3702 C3716 0.961 . S
H3703 C3717 0.960 . S
H3704 C3717 0.961 . S
H3705 C3717 0.959 . S
H3706 C3720 0.929 . S
H3707 C3721 0.931 . S
H3708 C3723 0.930 . S
C3709 H3697 0.930 . S
C3709 C3710 1.399 . S
C3709 C3714 1.399 . S
C3710 C3709 1.399 . S
C3710 C3711 1.376 . S
C3711 H3698 0.930 . S
C3711 C3710 1.376 . S
C3711 C3712 1.388 . S
C3712 H3699 0.930 . S
C3712 C3711 1.388 . S
C3712 C3713 1.390 . S
C3713 C3712 1.390 . S
C3713 C3714 1.394 . S
C3713 C3719 1.465 . S
C3714 C3709 1.399 . S
C3714 C3713 1.394 . S
C3714 C3715 1.516 . S
C3715 C3714 1.516 . S
C3715 C3716 1.502 . S
C3715 C3717 1.561 . S
C3715 C3718 1.526 . S
C3716 H3700 0.959 . S
C3716 H3701 0.959 . S
C3716 H3702 0.961 . S
C3716 C3715 1.502 . S
C3717 H3703 0.960 . S
C3717 H3704 0.961 . S
C3717 H3705 0.959 . S
C3717 C3715 1.561 . S
C3718 C3715 1.526 . S
C3718 C3719 1.396 . S
C3718 C3723 1.390 . S
C3719 C3713 1.465 . S
C3719 C3718 1.396 . S
C3719 C3720 1.399 . S
C3720 H3706 0.929 . S
C3720 C3719 1.399 . S
C3720 C3721 1.385 . S
C3721 H3707 0.931 . S
C3721 C3720 1.385 . S
C3721 C3722 1.389 . S
C3722 C3721 1.389 . S
C3722 C3723 1.387 . S
C3723 H3708 0.930 . S
C3723 C3718 1.390 . S
C3723 C3722 1.387 . S
H3724 C3736 0.918 1_545 S
H3725 C3738 0.930 . S
H3726 C3739 0.930 . S
H3727 C3743 0.959 1_565 S
H3728 C3743 0.959 . S
H3729 C3743 0.961 . S
H3730 C3744 0.960 . S
H3731 C3744 0.961 . S
H3732 C3744 0.959 . S
H3733 C3747 0.929 1_565 S
H3734 C3748 0.931 . S
H3735 C3750 0.930 . S
C3736 H3724 0.918 1_565 S
C3736 C3737 1.431 . S
C3736 C3741 1.381 1_565 S
C3737 C3736 1.431 . S
C3737 C3738 1.376 . S
C3738 H3725 0.930 . S
C3738 C3737 1.376 . S
C3738 C3739 1.388 . S
C3739 H3726 0.930 . S
C3739 C3738 1.388 . S
C3739 C3740 1.390 . S
C3740 C3739 1.390 . S
C3740 C3741 1.394 1_565 S
C3740 C3746 1.465 1_565 S
C3741 C3736 1.381 1_545 S
C3741 C3740 1.394 1_545 S
C3741 C3742 1.516 . S
C3742 C3741 1.516 . S
C3742 C3743 1.502 . S
C3742 C3744 1.561 . S
C3742 C3745 1.526 . S
C3743 H3727 0.959 1_545 S
C3743 H3728 0.959 . S
C3743 H3729 0.961 . S
C3743 C3742 1.502 . S
C3744 H3730 0.960 . S
C3744 H3731 0.961 . S
C3744 H3732 0.959 . S
C3744 C3742 1.561 . S
C3745 C3742 1.526 . S
C3745 C3746 1.396 . S
C3745 C3750 1.390 . S
C3746 C3740 1.465 1_545 S
C3746 C3745 1.396 . S
C3746 C3747 1.399 . S
C3747 H3733 0.929 1_545 S
C3747 C3746 1.399 . S
C3747 C3748 1.385 . S
C3748 H3734 0.931 . S
C3748 C3747 1.385 . S
C3748 C3749 1.389 . S
C3749 C3748 1.389 . S
C3749 C3750 1.387 . S
C3750 H3735 0.930 . S
C3750 C3745 1.390 . S
C3750 C3749 1.387 . S
H3751 C3763 0.930 . S
H3752 C3765 0.930 . S
H3753 C3766 0.930 . S
H3754 C3770 0.959 . S
H3755 C3770 0.959 . S
H3756 C3770 0.961 . S
H3757 C3771 0.960 . S
H3758 C3771 0.961 . S
H3759 C3771 0.959 . S
H3760 C3774 0.929 . S
H3761 C3775 0.931 . S
H3762 C3777 0.930 . S
C3763 H3751 0.930 . S
C3763 C3764 1.399 . S
C3763 C3768 1.399 . S
C3764 C3763 1.399 . S
C3764 C3765 1.376 . S
C3765 H3752 0.930 . S
C3765 C3764 1.376 . S
C3765 C3766 1.388 . S
C3766 H3753 0.930 . S
C3766 C3765 1.388 . S
C3766 C3767 1.390 . S
C3767 C3766 1.390 . S
C3767 C3768 1.394 . S
C3767 C3773 1.465 . S
C3768 C3763 1.399 . S
C3768 C3767 1.394 . S
C3768 C3769 1.516 . S
C3769 C3768 1.516 . S
C3769 C3770 1.502 . S
C3769 C3771 1.561 . S
C3769 C3772 1.526 . S
C3770 H3754 0.959 . S
C3770 H3755 0.959 . S
C3770 H3756 0.961 . S
C3770 C3769 1.502 . S
C3771 H3757 0.960 . S
C3771 H3758 0.961 . S
C3771 H3759 0.959 . S
C3771 C3769 1.561 . S
C3772 C3769 1.526 . S
C3772 C3773 1.396 . S
C3772 C3777 1.390 . S
C3773 C3767 1.465 . S
C3773 C3772 1.396 . S
C3773 C3774 1.399 . S
C3774 H3760 0.929 . S
C3774 C3773 1.399 . S
C3774 C3775 1.385 . S
C3775 H3761 0.931 . S
C3775 C3774 1.385 . S
C3775 C3776 1.389 . S
C3776 C3775 1.389 . S
C3776 C3777 1.387 . S
C3777 H3762 0.930 . S
C3777 C3772 1.390 . S
C3777 C3776 1.387 . S
H3778 C3790 0.930 . S
H3779 C3792 0.930 . S
H3780 C3793 0.930 . S
H3781 C3797 0.959 . S
H3782 C3797 0.959 . S
H3783 C3797 0.961 . S
H3784 C3798 0.960 . S
H3785 C3798 0.961 . S
H3786 C3798 0.959 . S
H3787 C3801 0.929 . S
H3788 C3802 0.931 . S
H3789 C3804 0.930 . S
C3790 H3778 0.930 . S
C3790 C3791 1.399 . S
C3790 C3795 1.399 . S
C3791 C3790 1.399 . S
C3791 C3792 1.376 1_545 S
C3792 H3779 0.930 . S
C3792 C3791 1.376 1_565 S
C3792 C3793 1.388 . S
C3793 H3780 0.930 . S
C3793 C3792 1.388 . S
C3793 C3794 1.390 . S
C3794 C3793 1.390 . S
C3794 C3795 1.394 1_565 S
C3794 C3800 1.465 . S
C3795 C3790 1.399 . S
C3795 C3794 1.394 1_545 S
C3795 C3796 1.516 . S
C3796 C3795 1.516 . S
C3796 C3797 1.502 . S
C3796 C3798 1.561 . S
C3796 C3799 1.526 . S
C3797 H3781 0.959 . S
C3797 H3782 0.959 . S
C3797 H3783 0.961 . S
C3797 C3796 1.502 . S
C3798 H3784 0.960 . S
C3798 H3785 0.961 . S
C3798 H3786 0.959 . S
C3798 C3796 1.561 . S
C3799 C3796 1.526 . S
C3799 C3800 1.396 1_545 S
C3799 C3804 1.390 . S
C3800 C3794 1.465 . S
C3800 C3799 1.396 1_565 S
C3800 C3801 1.399 . S
C3801 H3787 0.929 . S
C3801 C3800 1.399 . S
C3801 C3802 1.385 . S
C3802 H3788 0.931 . S
C3802 C3801 1.385 . S
C3802 C3803 1.389 . S
C3803 C3802 1.389 . S
C3803 C3804 1.387 1_565 S
C3804 H3789 0.930 . S
C3804 C3799 1.390 . S
C3804 C3803 1.387 1_545 S
H3805 C3817 0.930 . S
H3806 C3819 0.930 . S
H3807 C3820 0.930 . S
H3808 C3824 0.959 . S
H3809 C3824 0.959 . S
H3810 C3824 0.961 . S
H3811 C3825 0.960 . S
H3812 C3825 0.961 . S
H3813 C3825 0.959 . S
H3814 C3828 0.929 . S
H3815 C3829 0.931 . S
H3816 C3831 0.930 . S
C3817 H3805 0.930 . S
C3817 C3818 1.399 . S
C3817 C3822 1.399 . S
C3818 C3817 1.399 . S
C3818 C3819 1.376 . S
C3819 H3806 0.930 . S
C3819 C3818 1.376 . S
C3819 C3820 1.388 . S
C3820 H3807 0.930 . S
C3820 C3819 1.388 . S
C3820 C3821 1.390 . S
C3821 C3820 1.390 . S
C3821 C3822 1.394 . S
C3821 C3827 1.465 . S
C3822 C3817 1.399 . S
C3822 C3821 1.394 . S
C3822 C3823 1.516 . S
C3823 C3822 1.516 . S
C3823 C3824 1.502 . S
C3823 C3825 1.561 . S
C3823 C3826 1.526 . S
C3824 H3808 0.959 . S
C3824 H3809 0.959 . S
C3824 H3810 0.961 . S
C3824 C3823 1.502 . S
C3825 H3811 0.960 . S
C3825 H3812 0.961 . S
C3825 H3813 0.959 . S
C3825 C3823 1.561 . S
C3826 C3823 1.526 . S
C3826 C3827 1.396 . S
C3826 C3831 1.390 . S
C3827 C3821 1.465 . S
C3827 C3826 1.396 . S
C3827 C3828 1.399 . S
C3828 H3814 0.929 . S
C3828 C3827 1.399 . S
C3828 C3829 1.385 . S
C3829 H3815 0.931 . S
C3829 C3828 1.385 . S
C3829 C3830 1.389 . S
C3830 C3829 1.389 . S
C3830 C3831 1.387 . S
C3831 H3816 0.930 . S
C3831 C3826 1.390 . S
C3831 C3830 1.387 . S
H3832 C3844 0.930 . S
H3833 C3846 0.930 . S
H3834 C3847 0.930 . S
H3835 C3851 0.959 . S
H3836 C3851 0.959 . S
H3837 C3851 0.961 . S
H3838 C3852 0.960 . S
H3839 C3852 0.961 . S
H3840 C3852 0.959 . S
H3841 C3855 0.929 . S
H3842 C3856 0.931 . S
H3843 C3858 0.930 1_554 S
C3844 H3832 0.930 . S
C3844 C3845 1.399 . S
C3844 C3849 1.399 . S
C3845 C3844 1.399 . S
C3845 C3846 1.376 1_554 S
C3846 H3833 0.930 . S
C3846 C3845 1.376 1_556 S
C3846 C3847 1.388 . S
C3847 H3834 0.930 . S
C3847 C3846 1.388 . S
C3847 C3848 1.390 . S
C3848 C3847 1.390 . S
C3848 C3849 1.394 1_556 S
C3848 C3854 1.465 . S
C3849 C3844 1.399 . S
C3849 C3848 1.394 1_554 S
C3849 C3850 1.516 . S
C3850 C3849 1.516 . S
C3850 C3851 1.502 . S
C3850 C3852 1.561 . S
C3850 C3853 1.526 1_554 S
C3851 H3835 0.959 . S
C3851 H3836 0.959 . S
C3851 H3837 0.961 . S
C3851 C3850 1.502 . S
C3852 H3838 0.960 . S
C3852 H3839 0.961 . S
C3852 H3840 0.959 . S
C3852 C3850 1.561 . S
C3853 C3850 1.526 1_556 S
C3853 C3854 1.396 . S
C3853 C3858 1.390 . S
C3854 C3848 1.465 . S
C3854 C3853 1.396 . S
C3854 C3855 1.399 . S
C3855 H3841 0.929 . S
C3855 C3854 1.399 . S
C3855 C3856 1.385 . S
C3856 H3842 0.931 . S
C3856 C3855 1.385 . S
C3856 C3857 1.389 . S
C3857 C3856 1.389 . S
C3857 C3858 1.387 . S
C3858 H3843 0.930 1_556 S
C3858 C3853 1.390 . S
C3858 C3857 1.387 . S
H3859 C3871 0.930 . S
H3860 C3873 0.930 . S
H3861 C3874 0.930 1_556 S
H3862 C3878 0.959 . S
H3863 C3878 0.959 . S
H3864 C3878 0.961 . S
H3865 C3879 0.960 . S
H3866 C3879 0.961 . S
H3867 C3879 0.959 . S
H3868 C3882 0.927 1_556 S
H3869 C3883 0.931 1_556 S
H3870 C3885 0.930 . S
C3871 H3859 0.930 . S
C3871 C3872 1.399 . S
C3871 C3876 1.399 . S
C3872 C3871 1.399 . S
C3872 C3873 1.376 . S
C3873 H3860 0.930 . S
C3873 C3872 1.376 . S
C3873 C3874 1.388 . S
C3874 H3861 0.930 1_554 S
C3874 C3873 1.388 . S
C3874 C3875 1.390 . S
C3875 C3874 1.390 . S
C3875 C3876 1.394 . S
C3875 C3881 1.465 . S
C3876 C3871 1.399 . S
C3876 C3875 1.394 . S
C3876 C3877 1.516 . S
C3877 C3876 1.516 . S
C3877 C3878 1.502 . S
C3877 C3879 1.561 . S
C3877 C3880 1.526 . S
C3878 H3862 0.959 . S
C3878 H3863 0.959 . S
C3878 H3864 0.961 . S
C3878 C3877 1.502 . S
C3879 H3865 0.960 . S
C3879 H3866 0.961 . S
C3879 H3867 0.959 . S
C3879 C3877 1.561 . S
C3880 C3877 1.526 . S
C3880 C3881 1.396 . S
C3880 C3885 1.390 . S
C3881 C3875 1.465 . S
C3881 C3880 1.396 . S
C3881 C3882 1.401 . S
C3882 H3868 0.927 1_554 S
C3882 C3881 1.401 . S
C3882 C3883 1.385 . S
C3883 H3869 0.931 1_554 S
C3883 C3882 1.385 . S
C3883 C3884 1.389 . S
C3884 C3883 1.389 . S
C3884 C3885 1.387 . S
C3885 H3870 0.930 . S
C3885 C3880 1.390 . S
C3885 C3884 1.387 . S
H3886 C3898 0.930 . S
H3887 C3900 0.930 . S
H3888 C3901 0.930 . S
H3889 C3905 0.959 . S
H3890 C3905 0.959 . S
H3891 C3905 0.961 . S
H3892 C3906 0.960 . S
H3893 C3906 0.961 . S
H3894 C3906 0.959 . S
H3895 C3909 0.929 . S
H3896 C3910 0.931 . S
H3897 C3912 0.930 . S
C3898 H3886 0.930 . S
C3898 C3899 1.399 . S
C3898 C3903 1.399 . S
C3899 C3898 1.399 . S
C3899 C3900 1.376 . S
C3900 H3887 0.930 . S
C3900 C3899 1.376 . S
C3900 C3901 1.388 . S
C3901 H3888 0.930 . S
C3901 C3900 1.388 . S
C3901 C3902 1.390 . S
C3902 C3901 1.390 . S
C3902 C3903 1.394 . S
C3902 C3908 1.465 . S
C3903 C3898 1.399 . S
C3903 C3902 1.394 . S
C3903 C3904 1.516 . S
C3904 C3903 1.516 . S
C3904 C3905 1.502 . S
C3904 C3906 1.561 . S
C3904 C3907 1.526 . S
C3905 H3889 0.959 . S
C3905 H3890 0.959 . S
C3905 H3891 0.961 . S
C3905 C3904 1.502 . S
C3906 H3892 0.960 . S
C3906 H3893 0.961 . S
C3906 H3894 0.959 . S
C3906 C3904 1.561 . S
C3907 C3904 1.526 . S
C3907 C3908 1.396 . S
C3907 C3912 1.390 . S
C3908 C3902 1.465 . S
C3908 C3907 1.396 . S
C3908 C3909 1.399 . S
C3909 H3895 0.929 . S
C3909 C3908 1.399 . S
C3909 C3910 1.385 . S
C3910 H3896 0.931 . S
C3910 C3909 1.385 . S
C3910 C3911 1.389 . S
C3911 C3910 1.389 . S
C3911 C3912 1.387 . S
C3912 H3897 0.930 . S
C3912 C3907 1.390 . S
C3912 C3911 1.387 . S
H3913 C3925 0.930 . S
H3914 C3927 0.930 . S
H3915 C3928 0.930 . S
H3916 C3932 0.959 . S
H3917 C3932 0.959 . S
H3918 C3932 0.961 . S
H3919 C3933 0.960 . S
H3920 C3933 0.961 . S
H3921 C3933 0.959 . S
H3922 C3936 0.929 . S
H3923 C3937 0.931 . S
H3924 C3939 0.930 . S
C3925 H3913 0.930 . S
C3925 C3926 1.399 . S
C3925 C3930 1.399 . S
C3926 C3925 1.399 . S
C3926 C3927 1.376 . S
C3927 H3914 0.930 . S
C3927 C3926 1.376 . S
C3927 C3928 1.388 . S
C3928 H3915 0.930 . S
C3928 C3927 1.388 . S
C3928 C3929 1.390 . S
C3929 C3928 1.390 . S
C3929 C3930 1.394 . S
C3929 C3935 1.465 . S
C3930 C3925 1.399 . S
C3930 C3929 1.394 . S
C3930 C3931 1.516 . S
C3931 C3930 1.516 . S
C3931 C3932 1.502 . S
C3931 C3933 1.561 . S
C3931 C3934 1.526 . S
C3932 H3916 0.959 . S
C3932 H3917 0.959 . S
C3932 H3918 0.961 . S
C3932 C3931 1.502 . S
C3933 H3919 0.960 . S
C3933 H3920 0.961 . S
C3933 H3921 0.959 . S
C3933 C3931 1.561 . S
C3934 C3931 1.526 . S
C3934 C3935 1.396 . S
C3934 C3939 1.390 . S
C3935 C3929 1.465 . S
C3935 C3934 1.396 . S
C3935 C3936 1.399 . S
C3936 H3922 0.929 . S
C3936 C3935 1.399 . S
C3936 C3937 1.385 . S
C3937 H3923 0.931 . S
C3937 C3936 1.385 . S
C3937 C3938 1.389 . S
C3938 C3937 1.389 . S
C3938 C3939 1.387 . S
C3939 H3924 0.930 . S
C3939 C3934 1.390 . S
C3939 C3938 1.387 . S
H3940 C3952 0.930 . S
H3941 C3954 0.930 . S
H3942 C3955 0.930 . S
H3943 C3959 0.959 . S
H3944 C3959 0.959 . S
H3945 C3959 0.961 . S
H3946 C3960 0.960 . S
H3947 C3960 0.961 . S
H3948 C3960 0.959 . S
H3949 C3963 0.929 . S
H3950 C3964 0.931 . S
H3951 C3966 0.930 . S
C3952 H3940 0.930 . S
C3952 C3953 1.399 . S
C3952 C3957 1.399 . S
C3953 C3952 1.399 . S
C3953 C3954 1.376 . S
C3954 H3941 0.930 . S
C3954 C3953 1.376 . S
C3954 C3955 1.388 . S
C3955 H3942 0.930 . S
C3955 C3954 1.388 . S
C3955 C3956 1.390 . S
C3956 C3955 1.390 . S
C3956 C3957 1.394 . S
C3956 C3962 1.465 . S
C3957 C3952 1.399 . S
C3957 C3956 1.394 . S
C3957 C3958 1.516 . S
C3958 C3957 1.516 . S
C3958 C3959 1.502 . S
C3958 C3960 1.561 . S
C3958 C3961 1.526 . S
C3959 H3943 0.959 . S
C3959 H3944 0.959 . S
C3959 H3945 0.961 . S
C3959 C3958 1.502 . S
C3960 H3946 0.960 . S
C3960 H3947 0.961 . S
C3960 H3948 0.959 . S
C3960 C3958 1.561 . S
C3961 C3958 1.526 . S
C3961 C3962 1.396 . S
C3961 C3966 1.390 . S
C3962 C3956 1.465 . S
C3962 C3961 1.396 . S
C3962 C3963 1.399 . S
C3963 H3949 0.929 . S
C3963 C3962 1.399 . S
C3963 C3964 1.385 . S
C3964 H3950 0.931 . S
C3964 C3963 1.385 . S
C3964 C3965 1.389 . S
C3965 C3964 1.389 . S
C3965 C3966 1.387 . S
C3966 H3951 0.930 . S
C3966 C3961 1.390 . S
C3966 C3965 1.387 . S
H3967 C3979 0.930 . S
H3968 C3981 0.930 . S
H3969 C3982 0.930 . S
H3970 C3986 0.959 . S
H3971 C3986 0.959 . S
H3972 C3986 0.961 . S
H3973 C3987 0.960 . S
H3974 C3987 0.961 . S
H3975 C3987 0.959 . S
H3976 C3990 0.929 . S
H3977 C3991 0.931 . S
H3978 C3993 0.930 . S
C3979 H3967 0.930 . S
C3979 C3980 1.399 . S
C3979 C3984 1.399 . S
C3980 C3979 1.399 . S
C3980 C3981 1.376 . S
C3981 H3968 0.930 . S
C3981 C3980 1.376 . S
C3981 C3982 1.388 . S
C3982 H3969 0.930 . S
C3982 C3981 1.388 . S
C3982 C3983 1.390 . S
C3983 C3982 1.390 . S
C3983 C3984 1.394 . S
C3983 C3989 1.465 . S
C3984 C3979 1.399 . S
C3984 C3983 1.394 . S
C3984 C3985 1.516 . S
C3985 C3984 1.516 . S
C3985 C3986 1.502 . S
C3985 C3987 1.561 . S
C3985 C3988 1.526 . S
C3986 H3970 0.959 . S
C3986 H3971 0.959 . S
C3986 H3972 0.961 . S
C3986 C3985 1.502 . S
C3987 H3973 0.960 . S
C3987 H3974 0.961 . S
C3987 H3975 0.959 . S
C3987 C3985 1.561 . S
C3988 C3985 1.526 . S
C3988 C3989 1.396 . S
C3988 C3993 1.390 . S
C3989 C3983 1.465 . S
C3989 C3988 1.396 . S
C3989 C3990 1.399 . S
C3990 H3976 0.929 . S
C3990 C3989 1.399 . S
C3990 C3991 1.385 . S
C3991 H3977 0.931 . S
C3991 C3990 1.385 . S
C3991 C3992 1.389 . S
C3992 C3991 1.389 . S
C3992 C3993 1.387 . S
C3993 H3978 0.930 . S
C3993 C3988 1.390 . S
C3993 C3992 1.387 . S
H3994 C4006 0.930 . S
H3995 C4008 0.930 . S
H3996 C4009 0.930 . S
H3997 C4013 0.959 . S
H3998 C4013 0.959 . S
H3999 C4013 0.961 . S
H4000 C4014 0.960 . S
H4001 C4014 0.961 . S
H4002 C4014 0.959 . S
H4003 C4017 0.929 . S
H4004 C4018 0.931 . S
H4005 C4020 0.930 . S
C4006 H3994 0.930 . S
C4006 C4007 1.399 . S
C4006 C4011 1.399 . S
C4007 C4006 1.399 . S
C4007 C4008 1.376 . S
C4008 H3995 0.930 . S
C4008 C4007 1.376 . S
C4008 C4009 1.388 . S
C4009 H3996 0.930 . S
C4009 C4008 1.388 . S
C4009 C4010 1.390 . S
C4010 C4009 1.390 . S
C4010 C4011 1.394 . S
C4010 C4016 1.465 . S
C4011 C4006 1.399 . S
C4011 C4010 1.394 . S
C4011 C4012 1.516 . S
C4012 C4011 1.516 . S
C4012 C4013 1.502 . S
C4012 C4014 1.561 . S
C4012 C4015 1.526 . S
C4013 H3997 0.959 . S
C4013 H3998 0.959 . S
C4013 H3999 0.961 . S
C4013 C4012 1.502 . S
C4014 H4000 0.960 . S
C4014 H4001 0.961 . S
C4014 H4002 0.959 . S
C4014 C4012 1.561 . S
C4015 C4012 1.526 . S
C4015 C4016 1.396 . S
C4015 C4020 1.390 . S
C4016 C4010 1.465 . S
C4016 C4015 1.396 . S
C4016 C4017 1.399 . S
C4017 H4003 0.929 . S
C4017 C4016 1.399 . S
C4017 C4018 1.385 . S
C4018 H4004 0.931 . S
C4018 C4017 1.385 . S
C4018 C4019 1.389 . S
C4019 C4018 1.389 . S
C4019 C4020 1.387 . S
C4020 H4005 0.930 . S
C4020 C4015 1.390 . S
C4020 C4019 1.387 . S
H4021 C4033 0.930 . S
H4022 C4035 0.930 . S
H4023 C4036 0.930 . S
H4024 C4040 0.959 . S
H4025 C4040 0.959 . S
H4026 C4040 0.961 . S
H4027 C4041 0.960 . S
H4028 C4041 0.961 . S
H4029 C4041 0.959 . S
H4030 C4044 0.929 . S
H4031 C4045 0.931 . S
H4032 C4047 0.930 . S
C4033 H4021 0.930 . S
C4033 C4034 1.399 . S
C4033 C4038 1.399 . S
C4034 C4033 1.399 . S
C4034 C4035 1.376 . S
C4035 H4022 0.930 . S
C4035 C4034 1.376 . S
C4035 C4036 1.388 . S
C4036 H4023 0.930 . S
C4036 C4035 1.388 . S
C4036 C4037 1.390 . S
C4037 C4036 1.390 . S
C4037 C4038 1.394 . S
C4037 C4043 1.465 . S
C4038 C4033 1.399 . S
C4038 C4037 1.394 . S
C4038 C4039 1.516 . S
C4039 C4038 1.516 . S
C4039 C4040 1.502 . S
C4039 C4041 1.561 . S
C4039 C4042 1.526 . S
C4040 H4024 0.959 . S
C4040 H4025 0.959 . S
C4040 H4026 0.961 . S
C4040 C4039 1.502 . S
C4041 H4027 0.960 . S
C4041 H4028 0.961 . S
C4041 H4029 0.959 . S
C4041 C4039 1.561 . S
C4042 C4039 1.526 . S
C4042 C4043 1.396 . S
C4042 C4047 1.390 . S
C4043 C4037 1.465 . S
C4043 C4042 1.396 . S
C4043 C4044 1.399 . S
C4044 H4030 0.929 . S
C4044 C4043 1.399 . S
C4044 C4045 1.385 . S
C4045 H4031 0.931 . S
C4045 C4044 1.385 . S
C4045 C4046 1.389 . S
C4046 C4045 1.389 . S
C4046 C4047 1.387 . S
C4047 H4032 0.930 . S
C4047 C4042 1.390 . S
C4047 C4046 1.387 . S
H4048 C4060 0.930 . S
H4049 C4062 0.930 . S
H4050 C4063 0.930 . S
H4051 C4067 0.959 . S
H4052 C4067 0.959 . S
H4053 C4067 0.961 . S
H4054 C4068 0.960 . S
H4055 C4068 0.961 . S
H4056 C4068 0.959 . S
H4057 C4071 0.929 . S
H4058 C4072 0.931 . S
H4059 C4074 0.930 . S
C4060 H4048 0.930 . S
C4060 C4061 1.399 . S
C4060 C4065 1.399 . S
C4061 C4060 1.399 . S
C4061 C4062 1.376 . S
C4062 H4049 0.930 . S
C4062 C4061 1.376 . S
C4062 C4063 1.388 . S
C4063 H4050 0.930 . S
C4063 C4062 1.388 . S
C4063 C4064 1.390 . S
C4064 C4063 1.390 . S
C4064 C4065 1.394 . S
C4064 C4070 1.465 . S
C4065 C4060 1.399 . S
C4065 C4064 1.394 . S
C4065 C4066 1.516 . S
C4066 C4065 1.516 . S
C4066 C4067 1.502 . S
C4066 C4068 1.561 . S
C4066 C4069 1.526 . S
C4067 H4051 0.959 . S
C4067 H4052 0.959 . S
C4067 H4053 0.961 . S
C4067 C4066 1.502 . S
C4068 H4054 0.960 . S
C4068 H4055 0.961 . S
C4068 H4056 0.959 . S
C4068 C4066 1.561 . S
C4069 C4066 1.526 . S
C4069 C4070 1.396 . S
C4069 C4074 1.390 . S
C4070 C4064 1.465 . S
C4070 C4069 1.396 . S
C4070 C4071 1.399 . S
C4071 H4057 0.929 . S
C4071 C4070 1.399 . S
C4071 C4072 1.385 . S
C4072 H4058 0.931 . S
C4072 C4071 1.385 . S
C4072 C4073 1.389 . S
C4073 C4072 1.389 . S
C4073 C4074 1.387 . S
C4074 H4059 0.930 . S
C4074 C4069 1.390 . S
C4074 C4073 1.387 . S
H4075 C4087 0.930 . S
H4076 C4089 0.930 . S
H4077 C4090 0.930 . S
H4078 C4094 0.959 . S
H4079 C4094 0.959 . S
H4080 C4094 0.961 . S
H4081 C4095 0.960 . S
H4082 C4095 0.961 . S
H4083 C4095 0.959 . S
H4084 C4098 0.929 . S
H4085 C4099 0.931 . S
H4086 C4101 0.930 . S
C4087 H4075 0.930 . S
C4087 C4088 1.399 . S
C4087 C4092 1.399 . S
C4088 C4087 1.399 . S
C4088 C4089 1.376 . S
C4089 H4076 0.930 . S
C4089 C4088 1.376 . S
C4089 C4090 1.388 . S
C4090 H4077 0.930 . S
C4090 C4089 1.388 . S
C4090 C4091 1.390 . S
C4091 C4090 1.390 . S
C4091 C4092 1.394 . S
C4091 C4097 1.465 . S
C4092 C4087 1.399 . S
C4092 C4091 1.394 . S
C4092 C4093 1.516 . S
C4093 C4092 1.516 . S
C4093 C4094 1.502 . S
C4093 C4095 1.561 . S
C4093 C4096 1.526 . S
C4094 H4078 0.959 . S
C4094 H4079 0.959 . S
C4094 H4080 0.961 . S
C4094 C4093 1.502 . S
C4095 H4081 0.960 . S
C4095 H4082 0.961 . S
C4095 H4083 0.959 . S
C4095 C4093 1.561 . S
C4096 C4093 1.526 . S
C4096 C4097 1.396 . S
C4096 C4101 1.390 . S
C4097 C4091 1.465 . S
C4097 C4096 1.396 . S
C4097 C4098 1.399 . S
C4098 H4084 0.929 . S
C4098 C4097 1.399 . S
C4098 C4099 1.385 . S
C4099 H4085 0.931 . S
C4099 C4098 1.385 . S
C4099 C4100 1.389 . S
C4100 C4099 1.389 . S
C4100 C4101 1.387 . S
C4101 H4086 0.930 . S
C4101 C4096 1.390 . S
C4101 C4100 1.387 . S
H4102 C4114 0.890 1_554 S
H4103 C4116 0.930 . S
H4104 C4117 0.930 . S
H4105 C4121 0.959 . S
H4106 C4121 0.959 . S
H4107 C4121 0.961 . S
H4108 C4122 0.960 . S
H4109 C4122 0.961 . S
H4110 C4122 0.959 . S
H4111 C4125 0.929 . S
H4112 C4126 0.931 . S
H4113 C4128 0.930 . S
C4114 H4102 0.890 1_556 S
C4114 C4115 1.431 . S
C4114 C4119 1.396 . S
C4115 C4114 1.431 . S
C4115 C4116 1.376 . S
C4116 H4103 0.930 . S
C4116 C4115 1.376 . S
C4116 C4117 1.388 . S
C4117 H4104 0.930 . S
C4117 C4116 1.388 . S
C4117 C4118 1.390 . S
C4118 C4117 1.390 . S
C4118 C4119 1.447 . S
C4118 C4124 1.465 . S
C4119 C4114 1.396 . S
C4119 C4118 1.447 . S
C4119 C4120 1.482 1_556 S
C4120 C4119 1.482 1_554 S
C4120 C4121 1.502 . S
C4120 C4122 1.561 . S
C4120 C4123 1.526 . S
C4121 H4105 0.959 . S
C4121 H4106 0.959 . S
C4121 H4107 0.961 . S
C4121 C4120 1.502 . S
C4122 H4108 0.960 . S
C4122 H4109 0.961 . S
C4122 H4110 0.959 . S
C4122 C4120 1.561 . S
C4123 C4120 1.526 . S
C4123 C4124 1.396 1_554 S
C4123 C4128 1.390 . S
C4124 C4118 1.465 . S
C4124 C4123 1.396 1_556 S
C4124 C4125 1.399 . S
C4125 H4111 0.929 . S
C4125 C4124 1.399 . S
C4125 C4126 1.385 . S
C4126 H4112 0.931 . S
C4126 C4125 1.385 . S
C4126 C4127 1.389 . S
C4127 C4126 1.389 . S
C4127 C4128 1.387 1_556 S
C4128 H4113 0.930 . S
C4128 C4123 1.390 . S
C4128 C4127 1.387 1_554 S
H4129 C4141 0.930 . S
H4130 C4143 0.930 . S
H4131 C4144 0.930 . S
H4132 C4148 0.959 . S
H4133 C4148 0.959 . S
H4134 C4148 0.961 . S
H4135 C4149 0.960 . S
H4136 C4149 0.961 . S
H4137 C4149 0.959 . S
H4138 C4152 0.929 . S
H4139 C4153 0.931 . S
H4140 C4155 0.930 . S
C4141 H4129 0.930 . S
C4141 C4142 1.399 . S
C4141 C4146 1.399 . S
C4142 C4141 1.399 . S
C4142 C4143 1.376 . S
C4143 H4130 0.930 . S
C4143 C4142 1.376 . S
C4143 C4144 1.388 . S
C4144 H4131 0.930 . S
C4144 C4143 1.388 . S
C4144 C4145 1.390 . S
C4145 C4144 1.390 . S
C4145 C4146 1.394 . S
C4145 C4151 1.465 . S
C4146 C4141 1.399 . S
C4146 C4145 1.394 . S
C4146 C4147 1.516 . S
C4147 C4146 1.516 . S
C4147 C4148 1.502 . S
C4147 C4149 1.561 . S
C4147 C4150 1.526 . S
C4148 H4132 0.959 . S
C4148 H4133 0.959 . S
C4148 H4134 0.961 . S
C4148 C4147 1.502 . S
C4149 H4135 0.960 . S
C4149 H4136 0.961 . S
C4149 H4137 0.959 . S
C4149 C4147 1.561 . S
C4150 C4147 1.526 . S
C4150 C4151 1.396 . S
C4150 C4155 1.390 . S
C4151 C4145 1.465 . S
C4151 C4150 1.396 . S
C4151 C4152 1.399 . S
C4152 H4138 0.929 . S
C4152 C4151 1.399 . S
C4152 C4153 1.385 . S
C4153 H4139 0.931 . S
C4153 C4152 1.385 . S
C4153 C4154 1.389 . S
C4154 C4153 1.389 . S
C4154 C4155 1.387 . S
C4155 H4140 0.930 . S
C4155 C4150 1.390 . S
C4155 C4154 1.387 . S
H4156 C4168 0.930 . S
H4157 C4170 0.930 . S
H4158 C4171 0.930 . S
H4159 C4175 0.959 . S
H4160 C4175 0.959 . S
H4161 C4175 0.961 . S
H4162 C4176 0.960 . S
H4163 C4176 0.961 . S
H4164 C4176 0.959 . S
H4165 C4179 0.929 . S
H4166 C4180 0.931 . S
H4167 C4182 0.930 . S
C4168 H4156 0.930 . S
C4168 C4169 1.399 . S
C4168 C4173 1.399 . S
C4169 C4168 1.399 . S
C4169 C4170 1.376 . S
C4170 H4157 0.930 . S
C4170 C4169 1.376 . S
C4170 C4171 1.388 . S
C4171 H4158 0.930 . S
C4171 C4170 1.388 . S
C4171 C4172 1.390 . S
C4172 C4171 1.390 . S
C4172 C4173 1.394 . S
C4172 C4178 1.465 . S
C4173 C4168 1.399 . S
C4173 C4172 1.394 . S
C4173 C4174 1.516 . S
C4174 C4173 1.516 . S
C4174 C4175 1.502 . S
C4174 C4176 1.561 . S
C4174 C4177 1.526 . S
C4175 H4159 0.959 . S
C4175 H4160 0.959 . S
C4175 H4161 0.961 . S
C4175 C4174 1.502 . S
C4176 H4162 0.960 . S
C4176 H4163 0.961 . S
C4176 H4164 0.959 . S
C4176 C4174 1.561 . S
C4177 C4174 1.526 . S
C4177 C4178 1.396 . S
C4177 C4182 1.390 . S
C4178 C4172 1.465 . S
C4178 C4177 1.396 . S
C4178 C4179 1.399 . S
C4179 H4165 0.929 . S
C4179 C4178 1.399 . S
C4179 C4180 1.385 . S
C4180 H4166 0.931 . S
C4180 C4179 1.385 . S
C4180 C4181 1.389 . S
C4181 C4180 1.389 . S
C4181 C4182 1.387 . S
C4182 H4167 0.930 . S
C4182 C4177 1.390 . S
C4182 C4181 1.387 . S
H4183 C4195 0.930 . S
H4184 C4197 0.930 1_455 S
H4185 C4198 0.930 . S
H4186 C4202 0.959 . S
H4187 C4202 0.959 . S
H4188 C4202 0.961 . S
H4189 C4203 0.960 . S
H4190 C4203 0.961 . S
H4191 C4203 0.959 . S
H4192 C4206 0.929 . S
H4193 C4207 0.931 . S
H4194 C4209 0.930 . S
C4195 H4183 0.930 . S
C4195 C4196 1.399 1_655 S
C4195 C4200 1.399 . S
C4196 C4195 1.399 1_455 S
C4196 C4197 1.376 1_455 S
C4197 H4184 0.930 1_655 S
C4197 C4196 1.376 1_655 S
C4197 C4198 1.388 . S
C4198 H4185 0.930 . S
C4198 C4197 1.388 . S
C4198 C4199 1.390 . S
C4199 C4198 1.390 . S
C4199 C4200 1.394 . S
C4199 C4205 1.465 . S
C4200 C4195 1.399 . S
C4200 C4199 1.394 . S
C4200 C4201 1.516 . S
C4201 C4200 1.516 . S
C4201 C4202 1.502 . S
C4201 C4203 1.561 . S
C4201 C4204 1.526 . S
C4202 H4186 0.959 . S
C4202 H4187 0.959 . S
C4202 H4188 0.961 . S
C4202 C4201 1.502 . S
C4203 H4189 0.960 . S
C4203 H4190 0.961 . S
C4203 H4191 0.959 . S
C4203 C4201 1.561 . S
C4204 C4201 1.526 . S
C4204 C4205 1.396 . S
C4204 C4209 1.390 . S
C4205 C4199 1.465 . S
C4205 C4204 1.396 . S
C4205 C4206 1.399 . S
C4206 H4192 0.929 . S
C4206 C4205 1.399 . S
C4206 C4207 1.385 . S
C4207 H4193 0.931 . S
C4207 C4206 1.385 . S
C4207 C4208 1.389 . S
C4208 C4207 1.389 . S
C4208 C4209 1.387 . S
C4209 H4194 0.930 . S
C4209 C4204 1.390 . S
C4209 C4208 1.387 . S
H4210 C4222 0.930 . S
H4211 C4224 0.930 . S
H4212 C4225 0.930 . S
H4213 C4229 0.959 . S
H4214 C4229 0.959 1_455 S
H4215 C4229 0.961 . S
H4216 C4230 0.960 . S
H4217 C4230 0.961 . S
H4218 C4230 0.959 . S
H4219 C4233 0.929 . S
H4220 C4234 0.931 . S
H4221 C4236 0.930 . S
C4222 H4210 0.930 . S
C4222 C4223 1.399 . S
C4222 C4227 1.399 1_655 S
C4223 C4222 1.399 . S
C4223 C4224 1.376 . S
C4224 H4211 0.930 . S
C4224 C4223 1.376 . S
C4224 C4225 1.388 1_655 S
C4225 H4212 0.930 . S
C4225 C4224 1.388 1_455 S
C4225 C4226 1.390 . S
C4226 C4225 1.390 . S
C4226 C4227 1.394 . S
C4226 C4232 1.465 . S
C4227 C4222 1.399 1_455 S
C4227 C4226 1.394 . S
C4227 C4228 1.516 . S
C4228 C4227 1.516 . S
C4228 C4229 1.502 1_455 S
C4228 C4230 1.561 . S
C4228 C4231 1.526 . S
C4229 H4213 0.959 . S
C4229 H4214 0.959 1_655 S
C4229 H4215 0.961 . S
C4229 C4228 1.502 1_655 S
C4230 H4216 0.960 . S
C4230 H4217 0.961 . S
C4230 H4218 0.959 . S
C4230 C4228 1.561 . S
C4231 C4228 1.526 . S
C4231 C4232 1.396 . S
C4231 C4236 1.390 . S
C4232 C4226 1.465 . S
C4232 C4231 1.396 . S
C4232 C4233 1.399 . S
C4233 H4219 0.929 . S
C4233 C4232 1.399 . S
C4233 C4234 1.385 . S
C4234 H4220 0.931 . S
C4234 C4233 1.385 . S
C4234 C4235 1.389 . S
C4235 C4234 1.389 . S
C4235 C4236 1.387 . S
C4236 H4221 0.930 . S
C4236 C4231 1.390 . S
C4236 C4235 1.387 . S
H4237 C4249 0.930 . S
H4238 C4251 0.930 . S
H4239 C4252 0.930 . S
H4240 C4256 0.959 . S
H4241 C4256 0.959 . S
H4242 C4256 0.961 . S
H4243 C4257 0.960 . S
H4244 C4257 0.961 . S
H4245 C4257 0.959 . S
H4246 C4260 0.929 . S
H4247 C4261 0.931 . S
H4248 C4263 0.930 . S
C4249 H4237 0.930 . S
C4249 C4250 1.399 . S
C4249 C4254 1.399 . S
C4250 C4249 1.399 . S
C4250 C4251 1.376 . S
C4251 H4238 0.930 . S
C4251 C4250 1.376 . S
C4251 C4252 1.388 . S
C4252 H4239 0.930 . S
C4252 C4251 1.388 . S
C4252 C4253 1.390 . S
C4253 C4252 1.390 . S
C4253 C4254 1.394 . S
C4253 C4259 1.465 . S
C4254 C4249 1.399 . S
C4254 C4253 1.394 . S
C4254 C4255 1.516 . S
C4255 C4254 1.516 . S
C4255 C4256 1.502 . S
C4255 C4257 1.561 . S
C4255 C4258 1.526 . S
C4256 H4240 0.959 . S
C4256 H4241 0.959 . S
C4256 H4242 0.961 . S
C4256 C4255 1.502 . S
C4257 H4243 0.960 . S
C4257 H4244 0.961 . S
C4257 H4245 0.959 . S
C4257 C4255 1.561 . S
C4258 C4255 1.526 . S
C4258 C4259 1.396 . S
C4258 C4263 1.390 . S
C4259 C4253 1.465 . S
C4259 C4258 1.396 . S
C4259 C4260 1.399 . S
C4260 H4246 0.929 . S
C4260 C4259 1.399 . S
C4260 C4261 1.385 . S
C4261 H4247 0.931 . S
C4261 C4260 1.385 . S
C4261 C4262 1.389 . S
C4262 C4261 1.389 . S
C4262 C4263 1.387 . S
C4263 H4248 0.930 . S
C4263 C4258 1.390 . S
C4263 C4262 1.387 . S
H4264 C4276 0.930 . S
H4265 C4278 0.930 . S
H4266 C4279 0.930 . S
H4267 C4283 0.959 . S
H4268 C4283 0.959 . S
H4269 C4283 0.961 . S
H4270 C4284 0.960 . S
H4271 C4284 0.961 . S
H4272 C4284 0.959 . S
H4273 C4287 0.929 . S
H4274 C4288 0.931 . S
H4275 C4290 0.930 . S
C4276 H4264 0.930 . S
C4276 C4277 1.399 . S
C4276 C4281 1.399 . S
C4277 C4276 1.399 . S
C4277 C4278 1.376 . S
C4278 H4265 0.930 . S
C4278 C4277 1.376 . S
C4278 C4279 1.388 . S
C4279 H4266 0.930 . S
C4279 C4278 1.388 . S
C4279 C4280 1.390 . S
C4280 C4279 1.390 . S
C4280 C4281 1.394 . S
C4280 C4286 1.465 . S
C4281 C4276 1.399 . S
C4281 C4280 1.394 . S
C4281 C4282 1.516 . S
C4282 C4281 1.516 . S
C4282 C4283 1.502 . S
C4282 C4284 1.561 . S
C4282 C4285 1.526 . S
C4283 H4267 0.959 . S
C4283 H4268 0.959 . S
C4283 H4269 0.961 . S
C4283 C4282 1.502 . S
C4284 H4270 0.960 . S
C4284 H4271 0.961 . S
C4284 H4272 0.959 . S
C4284 C4282 1.561 . S
C4285 C4282 1.526 . S
C4285 C4286 1.396 . S
C4285 C4290 1.390 . S
C4286 C4280 1.465 . S
C4286 C4285 1.396 . S
C4286 C4287 1.399 . S
C4287 H4273 0.929 . S
C4287 C4286 1.399 . S
C4287 C4288 1.385 . S
C4288 H4274 0.931 . S
C4288 C4287 1.385 . S
C4288 C4289 1.389 . S
C4289 C4288 1.389 . S
C4289 C4290 1.387 . S
C4290 H4275 0.930 . S
C4290 C4285 1.390 . S
C4290 C4289 1.387 . S
H4291 C4303 0.930 . S
H4292 C4305 0.930 . S
H4293 C4306 0.930 . S
H4294 C4310 0.959 . S
H4295 C4310 0.959 . S
H4296 C4310 0.961 . S
H4297 C4311 0.960 . S
H4298 C4311 0.961 . S
H4299 C4311 0.959 . S
H4300 C4314 0.929 . S
H4301 C4315 0.931 . S
H4302 C4317 0.930 . S
C4303 H4291 0.930 . S
C4303 C4304 1.399 . S
C4303 C4308 1.399 . S
C4304 C4303 1.399 . S
C4304 C4305 1.376 . S
C4305 H4292 0.930 . S
C4305 C4304 1.376 . S
C4305 C4306 1.388 . S
C4306 H4293 0.930 . S
C4306 C4305 1.388 . S
C4306 C4307 1.390 . S
C4307 C4306 1.390 . S
C4307 C4308 1.394 . S
C4307 C4313 1.465 . S
C4308 C4303 1.399 . S
C4308 C4307 1.394 . S
C4308 C4309 1.516 . S
C4309 C4308 1.516 . S
C4309 C4310 1.502 . S
C4309 C4311 1.561 . S
C4309 C4312 1.526 . S
C4310 H4294 0.959 . S
C4310 H4295 0.959 . S
C4310 H4296 0.961 . S
C4310 C4309 1.502 . S
C4311 H4297 0.960 . S
C4311 H4298 0.961 . S
C4311 H4299 0.959 . S
C4311 C4309 1.561 . S
C4312 C4309 1.526 . S
C4312 C4313 1.396 . S
C4312 C4317 1.390 . S
C4313 C4307 1.465 . S
C4313 C4312 1.396 . S
C4313 C4314 1.399 . S
C4314 H4300 0.929 . S
C4314 C4313 1.399 . S
C4314 C4315 1.385 . S
C4315 H4301 0.931 . S
C4315 C4314 1.385 . S
C4315 C4316 1.389 . S
C4316 C4315 1.389 . S
C4316 C4317 1.387 . S
C4317 H4302 0.930 . S
C4317 C4312 1.390 . S
C4317 C4316 1.387 . S
H4318 C4330 0.930 . S
H4319 C4332 0.930 . S
H4320 C4333 0.930 . S
H4321 C4337 0.959 . S
H4322 C4337 0.959 . S
H4323 C4337 0.961 . S
H4324 C4338 0.960 . S
H4325 C4338 0.961 . S
H4326 C4338 0.959 . S
H4327 C4341 0.929 . S
H4328 C4342 0.931 . S
H4329 C4344 0.930 . S
C4330 H4318 0.930 . S
C4330 C4331 1.399 . S
C4330 C4335 1.399 . S
C4331 C4330 1.399 . S
C4331 C4332 1.376 . S
C4332 H4319 0.930 . S
C4332 C4331 1.376 . S
C4332 C4333 1.388 . S
C4333 H4320 0.930 . S
C4333 C4332 1.388 . S
C4333 C4334 1.390 . S
C4334 C4333 1.390 . S
C4334 C4335 1.394 . S
C4334 C4340 1.465 . S
C4335 C4330 1.399 . S
C4335 C4334 1.394 . S
C4335 C4336 1.516 . S
C4336 C4335 1.516 . S
C4336 C4337 1.502 . S
C4336 C4338 1.561 . S
C4336 C4339 1.526 . S
C4337 H4321 0.959 . S
C4337 H4322 0.959 . S
C4337 H4323 0.961 . S
C4337 C4336 1.502 . S
C4338 H4324 0.960 . S
C4338 H4325 0.961 . S
C4338 H4326 0.959 . S
C4338 C4336 1.561 . S
C4339 C4336 1.526 . S
C4339 C4340 1.396 . S
C4339 C4344 1.390 . S
C4340 C4334 1.465 . S
C4340 C4339 1.396 . S
C4340 C4341 1.399 . S
C4341 H4327 0.929 . S
C4341 C4340 1.399 . S
C4341 C4342 1.385 . S
C4342 H4328 0.931 . S
C4342 C4341 1.385 . S
C4342 C4343 1.389 . S
C4343 C4342 1.389 . S
C4343 C4344 1.387 . S
C4344 H4329 0.930 . S
C4344 C4339 1.390 . S
C4344 C4343 1.387 . S
H4345 C4357 0.930 . S
H4346 C4359 0.930 . S
H4347 C4360 0.930 . S
H4348 C4364 0.959 . S
H4349 C4364 0.959 . S
H4350 C4364 0.961 . S
H4351 C4365 0.960 . S
H4352 C4365 0.961 . S
H4353 C4365 0.959 . S
H4354 C4368 0.929 . S
H4355 C4369 0.931 . S
H4356 C4371 0.930 . S
C4357 H4345 0.930 . S
C4357 C4358 1.399 . S
C4357 C4362 1.399 . S
C4358 C4357 1.399 . S
C4358 C4359 1.376 . S
C4359 H4346 0.930 . S
C4359 C4358 1.376 . S
C4359 C4360 1.388 . S
C4360 H4347 0.930 . S
C4360 C4359 1.388 . S
C4360 C4361 1.390 . S
C4361 C4360 1.390 . S
C4361 C4362 1.394 . S
C4361 C4367 1.465 . S
C4362 C4357 1.399 . S
C4362 C4361 1.394 . S
C4362 C4363 1.516 . S
C4363 C4362 1.516 . S
C4363 C4364 1.502 . S
C4363 C4365 1.561 . S
C4363 C4366 1.526 . S
C4364 H4348 0.959 . S
C4364 H4349 0.959 . S
C4364 H4350 0.961 . S
C4364 C4363 1.502 . S
C4365 H4351 0.960 . S
C4365 H4352 0.961 . S
C4365 H4353 0.959 . S
C4365 C4363 1.561 . S
C4366 C4363 1.526 . S
C4366 C4367 1.396 . S
C4366 C4371 1.390 . S
C4367 C4361 1.465 . S
C4367 C4366 1.396 . S
C4367 C4368 1.399 . S
C4368 H4354 0.929 . S
C4368 C4367 1.399 . S
C4368 C4369 1.385 . S
C4369 H4355 0.931 . S
C4369 C4368 1.385 . S
C4369 C4370 1.389 . S
C4370 C4369 1.389 . S
C4370 C4371 1.387 . S
C4371 H4356 0.930 . S
C4371 C4366 1.390 . S
C4371 C4370 1.387 . S
H4372 C4384 0.930 . S
H4373 C4386 0.930 . S
H4374 C4387 0.930 . S
H4375 C4391 0.959 . S
H4376 C4391 0.959 . S
H4377 C4391 0.961 . S
H4378 C4392 0.960 . S
H4379 C4392 0.961 . S
H4380 C4392 0.959 . S
H4381 C4395 0.929 . S
H4382 C4396 0.931 . S
H4383 C4398 0.930 . S
C4384 H4372 0.930 . S
C4384 C4385 1.399 . S
C4384 C4389 1.399 . S
C4385 C4384 1.399 . S
C4385 C4386 1.376 . S
C4386 H4373 0.930 . S
C4386 C4385 1.376 . S
C4386 C4387 1.388 . S
C4387 H4374 0.930 . S
C4387 C4386 1.388 . S
C4387 C4388 1.390 . S
C4388 C4387 1.390 . S
C4388 C4389 1.394 . S
C4388 C4394 1.465 . S
C4389 C4384 1.399 . S
C4389 C4388 1.394 . S
C4389 C4390 1.516 . S
C4390 C4389 1.516 . S
C4390 C4391 1.502 . S
C4390 C4392 1.561 . S
C4390 C4393 1.526 . S
C4391 H4375 0.959 . S
C4391 H4376 0.959 . S
C4391 H4377 0.961 . S
C4391 C4390 1.502 . S
C4392 H4378 0.960 . S
C4392 H4379 0.961 . S
C4392 H4380 0.959 . S
C4392 C4390 1.561 . S
C4393 C4390 1.526 . S
C4393 C4394 1.396 . S
C4393 C4398 1.390 . S
C4394 C4388 1.465 . S
C4394 C4393 1.396 . S
C4394 C4395 1.399 . S
C4395 H4381 0.929 . S
C4395 C4394 1.399 . S
C4395 C4396 1.385 . S
C4396 H4382 0.931 . S
C4396 C4395 1.385 . S
C4396 C4397 1.389 . S
C4397 C4396 1.389 . S
C4397 C4398 1.387 . S
C4398 H4383 0.930 . S
C4398 C4393 1.390 . S
C4398 C4397 1.387 . S
H4399 C4411 0.930 . S
H4400 C4413 0.930 . S
H4401 C4414 0.930 . S
H4402 C4418 0.959 . S
H4403 C4418 0.959 . S
H4404 C4418 0.961 . S
H4405 C4419 0.960 . S
H4406 C4419 0.961 . S
H4407 C4419 0.959 . S
H4408 C4422 0.929 . S
H4409 C4423 0.931 . S
H4410 C4425 0.930 . S
C4411 H4399 0.930 . S
C4411 C4412 1.399 . S
C4411 C4416 1.399 . S
C4412 C4411 1.399 . S
C4412 C4413 1.376 . S
C4413 H4400 0.930 . S
C4413 C4412 1.376 . S
C4413 C4414 1.388 . S
C4414 H4401 0.930 . S
C4414 C4413 1.388 . S
C4414 C4415 1.390 . S
C4415 C4414 1.390 . S
C4415 C4416 1.394 . S
C4415 C4421 1.465 . S
C4416 C4411 1.399 . S
C4416 C4415 1.394 . S
C4416 C4417 1.516 . S
C4417 C4416 1.516 . S
C4417 C4418 1.502 . S
C4417 C4419 1.561 . S
C4417 C4420 1.526 . S
C4418 H4402 0.959 . S
C4418 H4403 0.959 . S
C4418 H4404 0.961 . S
C4418 C4417 1.502 . S
C4419 H4405 0.960 . S
C4419 H4406 0.961 . S
C4419 H4407 0.959 . S
C4419 C4417 1.561 . S
C4420 C4417 1.526 . S
C4420 C4421 1.396 . S
C4420 C4425 1.390 . S
C4421 C4415 1.465 . S
C4421 C4420 1.396 . S
C4421 C4422 1.399 . S
C4422 H4408 0.929 . S
C4422 C4421 1.399 . S
C4422 C4423 1.385 . S
C4423 H4409 0.931 . S
C4423 C4422 1.385 . S
C4423 C4424 1.389 . S
C4424 C4423 1.389 . S
C4424 C4425 1.387 . S
C4425 H4410 0.930 . S
C4425 C4420 1.390 . S
C4425 C4424 1.387 . S
H4426 C4438 0.930 . S
H4427 C4440 0.930 . S
H4428 C4441 0.930 . S
H4429 C4445 0.959 . S
H4430 C4445 0.959 . S
H4431 C4445 0.961 . S
H4432 C4446 0.960 . S
H4433 C4446 0.961 . S
H4434 C4446 0.959 . S
H4435 C4449 0.929 . S
H4436 C4450 0.931 . S
H4437 C4452 0.930 . S
C4438 H4426 0.930 . S
C4438 C4439 1.399 . S
C4438 C4443 1.399 . S
C4439 C4438 1.399 . S
C4439 C4440 1.376 . S
C4440 H4427 0.930 . S
C4440 C4439 1.376 . S
C4440 C4441 1.388 . S
C4441 H4428 0.930 . S
C4441 C4440 1.388 . S
C4441 C4442 1.390 . S
C4442 C4441 1.390 . S
C4442 C4443 1.394 . S
C4442 C4448 1.465 . S
C4443 C4438 1.399 . S
C4443 C4442 1.394 . S
C4443 C4444 1.516 . S
C4444 C4443 1.516 . S
C4444 C4445 1.502 . S
C4444 C4446 1.561 . S
C4444 C4447 1.526 . S
C4445 H4429 0.959 . S
C4445 H4430 0.959 . S
C4445 H4431 0.961 . S
C4445 C4444 1.502 . S
C4446 H4432 0.960 . S
C4446 H4433 0.961 . S
C4446 H4434 0.959 . S
C4446 C4444 1.561 . S
C4447 C4444 1.526 . S
C4447 C4448 1.396 . S
C4447 C4452 1.390 . S
C4448 C4442 1.465 . S
C4448 C4447 1.396 . S
C4448 C4449 1.399 . S
C4449 H4435 0.929 . S
C4449 C4448 1.399 . S
C4449 C4450 1.385 . S
C4450 H4436 0.931 . S
C4450 C4449 1.385 . S
C4450 C4451 1.389 . S
C4451 C4450 1.389 . S
C4451 C4452 1.387 . S
C4452 H4437 0.930 . S
C4452 C4447 1.390 . S
C4452 C4451 1.387 . S
H4453 C4465 0.930 . S
H4454 C4467 0.930 . S
H4455 C4468 0.930 . S
H4456 C4472 0.959 . S
H4457 C4472 0.959 . S
H4458 C4472 0.961 . S
H4459 C4473 0.960 . S
H4460 C4473 0.961 . S
H4461 C4473 0.959 . S
H4462 C4476 0.929 . S
H4463 C4477 0.931 . S
H4464 C4479 0.930 . S
C4465 H4453 0.930 . S
C4465 C4466 1.399 . S
C4465 C4470 1.399 . S
C4466 C4465 1.399 . S
C4466 C4467 1.376 . S
C4467 H4454 0.930 . S
C4467 C4466 1.376 . S
C4467 C4468 1.388 . S
C4468 H4455 0.930 . S
C4468 C4467 1.388 . S
C4468 C4469 1.390 . S
C4469 C4468 1.390 . S
C4469 C4470 1.394 . S
C4469 C4475 1.465 . S
C4470 C4465 1.399 . S
C4470 C4469 1.394 . S
C4470 C4471 1.516 . S
C4471 C4470 1.516 . S
C4471 C4472 1.502 . S
C4471 C4473 1.561 . S
C4471 C4474 1.526 . S
C4472 H4456 0.959 . S
C4472 H4457 0.959 . S
C4472 H4458 0.961 . S
C4472 C4471 1.502 . S
C4473 H4459 0.960 . S
C4473 H4460 0.961 . S
C4473 H4461 0.959 . S
C4473 C4471 1.561 . S
C4474 C4471 1.526 . S
C4474 C4475 1.396 . S
C4474 C4479 1.390 . S
C4475 C4469 1.465 . S
C4475 C4474 1.396 . S
C4475 C4476 1.399 . S
C4476 H4462 0.929 . S
C4476 C4475 1.399 . S
C4476 C4477 1.385 . S
C4477 H4463 0.931 . S
C4477 C4476 1.385 . S
C4477 C4478 1.389 . S
C4478 C4477 1.389 . S
C4478 C4479 1.387 . S
C4479 H4464 0.930 . S
C4479 C4474 1.390 . S
C4479 C4478 1.387 . S
H4480 C4492 0.930 . S
H4481 C4494 0.930 . S
H4482 C4495 0.930 . S
H4483 C4499 0.959 . S
H4484 C4499 0.959 . S
H4485 C4499 0.961 . S
H4486 C4500 0.960 . S
H4487 C4500 0.961 . S
H4488 C4500 0.959 . S
H4489 C4503 0.929 . S
H4490 C4504 0.931 . S
H4491 C4506 0.930 . S
C4492 H4480 0.930 . S
C4492 C4493 1.399 . S
C4492 C4497 1.399 . S
C4493 C4492 1.399 . S
C4493 C4494 1.376 . S
C4494 H4481 0.930 . S
C4494 C4493 1.376 . S
C4494 C4495 1.388 . S
C4495 H4482 0.930 . S
C4495 C4494 1.388 . S
C4495 C4496 1.390 . S
C4496 C4495 1.390 . S
C4496 C4497 1.394 . S
C4496 C4502 1.465 . S
C4497 C4492 1.399 . S
C4497 C4496 1.394 . S
C4497 C4498 1.516 . S
C4498 C4497 1.516 . S
C4498 C4499 1.502 . S
C4498 C4500 1.561 . S
C4498 C4501 1.526 . S
C4499 H4483 0.959 . S
C4499 H4484 0.959 . S
C4499 H4485 0.961 . S
C4499 C4498 1.502 . S
C4500 H4486 0.960 . S
C4500 H4487 0.961 . S
C4500 H4488 0.959 . S
C4500 C4498 1.561 . S
C4501 C4498 1.526 . S
C4501 C4502 1.396 . S
C4501 C4506 1.390 . S
C4502 C4496 1.465 . S
C4502 C4501 1.396 . S
C4502 C4503 1.399 . S
C4503 H4489 0.929 . S
C4503 C4502 1.399 . S
C4503 C4504 1.385 . S
C4504 H4490 0.931 . S
C4504 C4503 1.385 . S
C4504 C4505 1.389 . S
C4505 C4504 1.389 . S
C4505 C4506 1.387 . S
C4506 H4491 0.930 . S
C4506 C4501 1.390 . S
C4506 C4505 1.387 . S
H4507 C4519 0.930 . S
H4508 C4521 0.930 . S
H4509 C4522 0.930 . S
H4510 C4526 0.959 . S
H4511 C4526 0.959 . S
H4512 C4526 0.961 . S
H4513 C4527 0.960 . S
H4514 C4527 0.961 . S
H4515 C4527 0.959 . S
H4516 C4530 0.929 . S
H4517 C4531 0.931 . S
H4518 C4533 0.930 . S
C4519 H4507 0.930 . S
C4519 C4520 1.399 . S
C4519 C4524 1.399 . S
C4520 C4519 1.399 . S
C4520 C4521 1.376 . S
C4521 H4508 0.930 . S
C4521 C4520 1.376 . S
C4521 C4522 1.388 . S
C4522 H4509 0.930 . S
C4522 C4521 1.388 . S
C4522 C4523 1.390 . S
C4523 C4522 1.390 . S
C4523 C4524 1.394 . S
C4523 C4529 1.465 . S
C4524 C4519 1.399 . S
C4524 C4523 1.394 . S
C4524 C4525 1.516 . S
C4525 C4524 1.516 . S
C4525 C4526 1.502 . S
C4525 C4527 1.561 . S
C4525 C4528 1.526 . S
C4526 H4510 0.959 . S
C4526 H4511 0.959 . S
C4526 H4512 0.961 . S
C4526 C4525 1.502 . S
C4527 H4513 0.960 . S
C4527 H4514 0.961 . S
C4527 H4515 0.959 . S
C4527 C4525 1.561 . S
C4528 C4525 1.526 . S
C4528 C4529 1.396 . S
C4528 C4533 1.390 . S
C4529 C4523 1.465 . S
C4529 C4528 1.396 . S
C4529 C4530 1.399 . S
C4530 H4516 0.929 . S
C4530 C4529 1.399 . S
C4530 C4531 1.385 . S
C4531 H4517 0.931 . S
C4531 C4530 1.385 . S
C4531 C4532 1.389 . S
C4532 C4531 1.389 . S
C4532 C4533 1.387 . S
C4533 H4518 0.930 . S
C4533 C4528 1.390 . S
C4533 C4532 1.387 . S
H4534 C4546 0.930 . S
H4535 C4548 0.930 . S
H4536 C4549 0.930 . S
H4537 C4553 0.959 . S
H4538 C4553 0.959 . S
H4539 C4553 0.961 . S
H4540 C4554 0.960 . S
H4541 C4554 0.961 . S
H4542 C4554 0.959 . S
H4543 C4557 0.929 . S
H4544 C4558 0.931 . S
H4545 C4560 0.930 . S
C4546 H4534 0.930 . S
C4546 C4547 1.399 . S
C4546 C4551 1.399 . S
C4547 C4546 1.399 . S
C4547 C4548 1.376 . S
C4548 H4535 0.930 . S
C4548 C4547 1.376 . S
C4548 C4549 1.388 . S
C4549 H4536 0.930 . S
C4549 C4548 1.388 . S
C4549 C4550 1.390 . S
C4550 C4549 1.390 . S
C4550 C4551 1.394 . S
C4550 C4556 1.465 . S
C4551 C4546 1.399 . S
C4551 C4550 1.394 . S
C4551 C4552 1.516 . S
C4552 C4551 1.516 . S
C4552 C4553 1.502 . S
C4552 C4554 1.561 . S
C4552 C4555 1.526 . S
C4553 H4537 0.959 . S
C4553 H4538 0.959 . S
C4553 H4539 0.961 . S
C4553 C4552 1.502 . S
C4554 H4540 0.960 . S
C4554 H4541 0.961 . S
C4554 H4542 0.959 . S
C4554 C4552 1.561 . S
C4555 C4552 1.526 . S
C4555 C4556 1.396 . S
C4555 C4560 1.390 . S
C4556 C4550 1.465 . S
C4556 C4555 1.396 . S
C4556 C4557 1.399 . S
C4557 H4543 0.929 . S
C4557 C4556 1.399 . S
C4557 C4558 1.385 . S
C4558 H4544 0.931 . S
C4558 C4557 1.385 . S
C4558 C4559 1.389 . S
C4559 C4558 1.389 . S
C4559 C4560 1.387 . S
C4560 H4545 0.930 . S
C4560 C4555 1.390 . S
C4560 C4559 1.387 . S
H4561 C4573 0.951 . S
H4562 C4575 0.930 . S
H4563 C4576 0.930 . S
H4564 C4580 0.959 . S
H4565 C4580 0.959 . S
H4566 C4580 0.961 . S
H4567 C4581 0.960 . S
H4568 C4581 0.961 . S
H4569 C4581 0.959 . S
H4570 C4584 0.929 . S
H4571 C4585 0.931 . S
H4572 C4587 0.930 . S
C4573 H4561 0.951 . S
C4573 C4574 1.381 1_545 S
C4573 C4578 1.396 . S
C4574 C4573 1.381 1_565 S
C4574 C4575 1.376 . S
C4575 H4562 0.930 . S
C4575 C4574 1.376 . S
C4575 C4576 1.388 . S
C4576 H4563 0.930 . S
C4576 C4575 1.388 . S
C4576 C4577 1.390 . S
C4577 C4576 1.390 . S
C4577 C4578 1.394 1_565 S
C4577 C4583 1.465 . S
C4578 C4573 1.396 . S
C4578 C4577 1.394 1_545 S
C4578 C4579 1.516 . S
C4579 C4578 1.516 . S
C4579 C4580 1.502 1_554 S
C4579 C4581 1.561 . S
C4579 C4582 1.526 . S
C4580 H4564 0.959 . S
C4580 H4565 0.959 . S
C4580 H4566 0.961 . S
C4580 C4579 1.502 1_556 S
C4581 H4567 0.960 . S
C4581 H4568 0.961 . S
C4581 H4569 0.959 . S
C4581 C4579 1.561 . S
C4582 C4579 1.526 . S
C4582 C4583 1.396 1_545 S
C4582 C4587 1.390 . S
C4583 C4577 1.465 . S
C4583 C4582 1.396 1_565 S
C4583 C4584 1.399 . S
C4584 H4570 0.929 . S
C4584 C4583 1.399 . S
C4584 C4585 1.385 . S
C4585 H4571 0.931 . S
C4585 C4584 1.385 . S
C4585 C4586 1.389 1_565 S
C4586 C4585 1.389 1_545 S
C4586 C4587 1.387 . S
C4587 H4572 0.930 . S
C4587 C4582 1.390 . S
C4587 C4586 1.387 . S
H4588 C4600 0.930 . S
H4589 C4602 0.930 . S
H4590 C4603 0.930 . S
H4591 C4607 0.959 . S
H4592 C4607 0.959 . S
H4593 C4607 0.961 . S
H4594 C4608 0.960 . S
H4595 C4608 0.961 . S
H4596 C4608 0.959 . S
H4597 C4611 0.929 . S
H4598 C4612 0.931 . S
H4599 C4614 0.930 . S
C4600 H4588 0.930 . S
C4600 C4601 1.399 . S
C4600 C4605 1.399 . S
C4601 C4600 1.399 . S
C4601 C4602 1.376 . S
C4602 H4589 0.930 . S
C4602 C4601 1.376 . S
C4602 C4603 1.388 . S
C4603 H4590 0.930 . S
C4603 C4602 1.388 . S
C4603 C4604 1.390 . S
C4604 C4603 1.390 . S
C4604 C4605 1.394 . S
C4604 C4610 1.465 . S
C4605 C4600 1.399 . S
C4605 C4604 1.394 . S
C4605 C4606 1.516 . S
C4606 C4605 1.516 . S
C4606 C4607 1.502 . S
C4606 C4608 1.561 . S
C4606 C4609 1.526 . S
C4607 H4591 0.959 . S
C4607 H4592 0.959 . S
C4607 H4593 0.961 . S
C4607 C4606 1.502 . S
C4608 H4594 0.960 . S
C4608 H4595 0.961 . S
C4608 H4596 0.959 . S
C4608 C4606 1.561 . S
C4609 C4606 1.526 . S
C4609 C4610 1.396 . S
C4609 C4614 1.390 . S
C4610 C4604 1.465 . S
C4610 C4609 1.396 . S
C4610 C4611 1.399 . S
C4611 H4597 0.929 . S
C4611 C4610 1.399 . S
C4611 C4612 1.385 . S
C4612 H4598 0.931 . S
C4612 C4611 1.385 . S
C4612 C4613 1.389 . S
C4613 C4612 1.389 . S
C4613 C4614 1.387 . S
C4614 H4599 0.930 . S
C4614 C4609 1.390 . S
C4614 C4613 1.387 . S
H4615 C4627 0.930 . S
H4616 C4629 0.930 1_556 S
H4617 C4630 0.930 . S
H4618 C4634 0.959 . S
H4619 C4634 0.959 . S
H4620 C4634 0.961 . S
H4621 C4635 0.960 1_556 S
H4622 C4635 0.961 . S
H4623 C4635 0.959 1_556 S
H4624 C4638 0.929 . S
H4625 C4639 0.931 . S
H4626 C4641 0.930 . S
C4627 H4615 0.930 . S
C4627 C4628 1.399 . S
C4627 C4632 1.399 . S
C4628 C4627 1.399 . S
C4628 C4629 1.376 . S
C4629 H4616 0.930 1_554 S
C4629 C4628 1.376 . S
C4629 C4630 1.388 . S
C4630 H4617 0.930 . S
C4630 C4629 1.388 . S
C4630 C4631 1.390 . S
C4631 C4630 1.390 . S
C4631 C4632 1.394 . S
C4631 C4637 1.465 . S
C4632 C4627 1.399 . S
C4632 C4631 1.394 . S
C4632 C4633 1.516 . S
C4633 C4632 1.516 . S
C4633 C4634 1.502 . S
C4633 C4635 1.561 . S
C4633 C4636 1.526 . S
C4634 H4618 0.959 . S
C4634 H4619 0.959 . S
C4634 H4620 0.961 . S
C4634 C4633 1.502 . S
C4635 H4621 0.960 1_554 S
C4635 H4622 0.961 . S
C4635 H4623 0.959 1_554 S
C4635 C4633 1.561 . S
C4636 C4633 1.526 . S
C4636 C4637 1.396 . S
C4636 C4641 1.390 . S
C4637 C4631 1.465 . S
C4637 C4636 1.396 . S
C4637 C4638 1.399 . S
C4638 H4624 0.929 . S
C4638 C4637 1.399 . S
C4638 C4639 1.385 . S
C4639 H4625 0.931 . S
C4639 C4638 1.385 . S
C4639 C4640 1.389 . S
C4640 C4639 1.389 . S
C4640 C4641 1.387 . S
C4641 H4626 0.930 . S
C4641 C4636 1.390 . S
C4641 C4640 1.387 . S
H4642 C4654 0.930 . S
H4643 C4656 0.930 . S
H4644 C4657 0.930 . S
H4645 C4661 0.959 . S
H4646 C4661 0.959 . S
H4647 C4661 0.961 . S
H4648 C4662 0.960 . S
H4649 C4662 0.961 . S
H4650 C4662 0.959 . S
H4651 C4665 0.929 . S
H4652 C4666 0.931 . S
H4653 C4668 0.930 . S
C4654 H4642 0.930 . S
C4654 C4655 1.399 . S
C4654 C4659 1.399 . S
C4655 C4654 1.399 . S
C4655 C4656 1.376 . S
C4656 H4643 0.930 . S
C4656 C4655 1.376 . S
C4656 C4657 1.388 . S
C4657 H4644 0.930 . S
C4657 C4656 1.388 . S
C4657 C4658 1.390 . S
C4658 C4657 1.390 . S
C4658 C4659 1.394 . S
C4658 C4664 1.465 . S
C4659 C4654 1.399 . S
C4659 C4658 1.394 . S
C4659 C4660 1.516 . S
C4660 C4659 1.516 . S
C4660 C4661 1.502 . S
C4660 C4662 1.561 . S
C4660 C4663 1.526 . S
C4661 H4645 0.959 . S
C4661 H4646 0.959 . S
C4661 H4647 0.961 . S
C4661 C4660 1.502 . S
C4662 H4648 0.960 . S
C4662 H4649 0.961 . S
C4662 H4650 0.959 . S
C4662 C4660 1.561 . S
C4663 C4660 1.526 . S
C4663 C4664 1.396 . S
C4663 C4668 1.390 . S
C4664 C4658 1.465 . S
C4664 C4663 1.396 . S
C4664 C4665 1.399 . S
C4665 H4651 0.929 . S
C4665 C4664 1.399 . S
C4665 C4666 1.385 . S
C4666 H4652 0.931 . S
C4666 C4665 1.385 . S
C4666 C4667 1.389 . S
C4667 C4666 1.389 . S
C4667 C4668 1.387 . S
C4668 H4653 0.930 . S
C4668 C4663 1.390 . S
C4668 C4667 1.387 . S
H4669 C4681 0.930 . S
H4670 C4683 0.930 . S
H4671 C4684 0.930 . S
H4672 C4688 0.959 . S
H4673 C4688 0.959 . S
H4674 C4688 0.961 . S
H4675 C4689 0.960 . S
H4676 C4689 0.961 . S
H4677 C4689 0.959 . S
H4678 C4692 0.929 . S
H4679 C4693 0.931 . S
H4680 C4695 0.930 . S
C4681 H4669 0.930 . S
C4681 C4682 1.399 . S
C4681 C4686 1.399 . S
C4682 C4681 1.399 . S
C4682 C4683 1.376 . S
C4683 H4670 0.930 . S
C4683 C4682 1.376 . S
C4683 C4684 1.388 . S
C4684 H4671 0.930 . S
C4684 C4683 1.388 . S
C4684 C4685 1.390 . S
C4685 C4684 1.390 . S
C4685 C4686 1.394 . S
C4685 C4691 1.465 . S
C4686 C4681 1.399 . S
C4686 C4685 1.394 . S
C4686 C4687 1.516 . S
C4687 C4686 1.516 . S
C4687 C4688 1.502 . S
C4687 C4689 1.561 . S
C4687 C4690 1.526 . S
C4688 H4672 0.959 . S
C4688 H4673 0.959 . S
C4688 H4674 0.961 . S
C4688 C4687 1.502 . S
C4689 H4675 0.960 . S
C4689 H4676 0.961 . S
C4689 H4677 0.959 . S
C4689 C4687 1.561 . S
C4690 C4687 1.526 . S
C4690 C4691 1.396 . S
C4690 C4695 1.390 . S
C4691 C4685 1.465 . S
C4691 C4690 1.396 . S
C4691 C4692 1.399 . S
C4692 H4678 0.929 . S
C4692 C4691 1.399 . S
C4692 C4693 1.385 . S
C4693 H4679 0.931 . S
C4693 C4692 1.385 . S
C4693 C4694 1.389 . S
C4694 C4693 1.389 . S
C4694 C4695 1.387 . S
C4695 H4680 0.930 . S
C4695 C4690 1.390 . S
C4695 C4694 1.387 . S
H4696 C4708 0.930 . S
H4697 C4710 0.930 . S
H4698 C4711 0.930 . S
H4699 C4715 0.959 . S
H4700 C4715 0.959 . S
H4701 C4715 0.961 . S
H4702 C4716 0.960 . S
H4703 C4716 0.961 . S
H4704 C4716 0.959 . S
H4705 C4719 0.929 . S
H4706 C4720 0.931 . S
H4707 C4722 0.930 . S
C4708 H4696 0.930 . S
C4708 C4709 1.399 . S
C4708 C4713 1.399 . S
C4709 C4708 1.399 . S
C4709 C4710 1.376 . S
C4710 H4697 0.930 . S
C4710 C4709 1.376 . S
C4710 C4711 1.388 . S
C4711 H4698 0.930 . S
C4711 C4710 1.388 . S
C4711 C4712 1.390 . S
C4712 C4711 1.390 . S
C4712 C4713 1.394 . S
C4712 C4718 1.465 . S
C4713 C4708 1.399 . S
C4713 C4712 1.394 . S
C4713 C4714 1.516 . S
C4714 C4713 1.516 . S
C4714 C4715 1.502 . S
C4714 C4716 1.561 . S
C4714 C4717 1.526 . S
C4715 H4699 0.959 . S
C4715 H4700 0.959 . S
C4715 H4701 0.961 . S
C4715 C4714 1.502 . S
C4716 H4702 0.960 . S
C4716 H4703 0.961 . S
C4716 H4704 0.959 . S
C4716 C4714 1.561 . S
C4717 C4714 1.526 . S
C4717 C4718 1.396 . S
C4717 C4722 1.390 . S
C4718 C4712 1.465 . S
C4718 C4717 1.396 . S
C4718 C4719 1.399 . S
C4719 H4705 0.929 . S
C4719 C4718 1.399 . S
C4719 C4720 1.385 . S
C4720 H4706 0.931 . S
C4720 C4719 1.385 . S
C4720 C4721 1.389 . S
C4721 C4720 1.389 . S
C4721 C4722 1.387 . S
C4722 H4707 0.930 . S
C4722 C4717 1.390 . S
C4722 C4721 1.387 . S
H4723 C4735 0.930 . S
H4724 C4737 0.930 . S
H4725 C4738 0.930 . S
H4726 C4742 0.959 . S
H4727 C4742 0.959 . S
H4728 C4742 0.961 . S
H4729 C4743 0.960 . S
H4730 C4743 0.961 . S
H4731 C4743 0.959 . S
H4732 C4746 0.929 . S
H4733 C4747 0.931 . S
H4734 C4749 0.930 . S
C4735 H4723 0.930 . S
C4735 C4736 1.399 . S
C4735 C4740 1.399 . S
C4736 C4735 1.399 . S
C4736 C4737 1.376 . S
C4737 H4724 0.930 . S
C4737 C4736 1.376 . S
C4737 C4738 1.388 . S
C4738 H4725 0.930 . S
C4738 C4737 1.388 . S
C4738 C4739 1.390 . S
C4739 C4738 1.390 . S
C4739 C4740 1.394 . S
C4739 C4745 1.465 . S
C4740 C4735 1.399 . S
C4740 C4739 1.394 . S
C4740 C4741 1.516 . S
C4741 C4740 1.516 . S
C4741 C4742 1.502 . S
C4741 C4743 1.561 . S
C4741 C4744 1.526 . S
C4742 H4726 0.959 . S
C4742 H4727 0.959 . S
C4742 H4728 0.961 . S
C4742 C4741 1.502 . S
C4743 H4729 0.960 . S
C4743 H4730 0.961 . S
C4743 H4731 0.959 . S
C4743 C4741 1.561 . S
C4744 C4741 1.526 . S
C4744 C4745 1.396 . S
C4744 C4749 1.390 . S
C4745 C4739 1.465 . S
C4745 C4744 1.396 . S
C4745 C4746 1.399 . S
C4746 H4732 0.929 . S
C4746 C4745 1.399 . S
C4746 C4747 1.385 . S
C4747 H4733 0.931 . S
C4747 C4746 1.385 . S
C4747 C4748 1.389 . S
C4748 C4747 1.389 . S
C4748 C4749 1.387 . S
C4749 H4734 0.930 . S
C4749 C4744 1.390 . S
C4749 C4748 1.387 . S
H4750 C4762 0.930 . S
H4751 C4764 0.930 . S
H4752 C4765 0.930 1_556 S
H4753 C4769 0.959 . S
H4754 C4769 0.959 . S
H4755 C4769 0.961 . S
H4756 C4770 0.960 . S
H4757 C4770 0.961 . S
H4758 C4770 0.959 . S
H4759 C4773 0.948 . S
H4760 C4774 0.926 1_556 S
H4761 C4776 0.930 . S
C4762 H4750 0.930 . S
C4762 C4763 1.399 . S
C4762 C4767 1.399 . S
C4763 C4762 1.399 . S
C4763 C4764 1.376 . S
C4764 H4751 0.930 . S
C4764 C4763 1.376 . S
C4764 C4765 1.388 . S
C4765 H4752 0.930 1_554 S
C4765 C4764 1.388 . S
C4765 C4766 1.390 . S
C4766 C4765 1.390 . S
C4766 C4767 1.394 . S
C4766 C4772 1.465 . S
C4767 C4762 1.399 . S
C4767 C4766 1.394 . S
C4767 C4768 1.516 . S
C4768 C4767 1.516 . S
C4768 C4769 1.502 . S
C4768 C4770 1.561 . S
C4768 C4771 1.526 . S
C4769 H4753 0.959 . S
C4769 H4754 0.959 . S
C4769 H4755 0.961 . S
C4769 C4768 1.502 . S
C4770 H4756 0.960 . S
C4770 H4757 0.961 . S
C4770 H4758 0.959 . S
C4770 C4768 1.561 . S
C4771 C4768 1.526 . S
C4771 C4772 1.396 . S
C4771 C4776 1.390 . S
C4772 C4766 1.465 . S
C4772 C4771 1.396 . S
C4772 C4773 1.384 1_554 S
C4773 H4759 0.948 . S
C4773 C4772 1.384 1_556 S
C4773 C4774 1.380 1_556 S
C4774 H4760 0.926 1_554 S
C4774 C4773 1.380 1_554 S
C4774 C4775 1.395 . S
C4775 C4774 1.395 . S
C4775 C4776 1.387 . S
C4776 H4761 0.930 . S
C4776 C4771 1.390 . S
C4776 C4775 1.387 . S
H4777 C4789 0.930 . S
H4778 C4791 0.930 . S
H4779 C4792 0.930 . S
H4780 C4796 0.959 . S
H4781 C4796 0.959 . S
H4782 C4796 0.961 . S
H4783 C4797 0.960 . S
H4784 C4797 0.961 . S
H4785 C4797 0.959 . S
H4786 C4800 0.929 . S
H4787 C4801 0.931 . S
H4788 C4803 0.930 . S
C4789 H4777 0.930 . S
C4789 C4790 1.399 . S
C4789 C4794 1.399 . S
C4790 C4789 1.399 . S
C4790 C4791 1.376 . S
C4791 H4778 0.930 . S
C4791 C4790 1.376 . S
C4791 C4792 1.388 . S
C4792 H4779 0.930 . S
C4792 C4791 1.388 . S
C4792 C4793 1.390 . S
C4793 C4792 1.390 . S
C4793 C4794 1.394 . S
C4793 C4799 1.465 . S
C4794 C4789 1.399 . S
C4794 C4793 1.394 . S
C4794 C4795 1.516 . S
C4795 C4794 1.516 . S
C4795 C4796 1.502 . S
C4795 C4797 1.561 . S
C4795 C4798 1.526 . S
C4796 H4780 0.959 . S
C4796 H4781 0.959 . S
C4796 H4782 0.961 . S
C4796 C4795 1.502 . S
C4797 H4783 0.960 . S
C4797 H4784 0.961 . S
C4797 H4785 0.959 . S
C4797 C4795 1.561 . S
C4798 C4795 1.526 . S
C4798 C4799 1.396 . S
C4798 C4803 1.390 . S
C4799 C4793 1.465 . S
C4799 C4798 1.396 . S
C4799 C4800 1.399 . S
C4800 H4786 0.929 . S
C4800 C4799 1.399 . S
C4800 C4801 1.385 . S
C4801 H4787 0.931 . S
C4801 C4800 1.385 . S
C4801 C4802 1.389 . S
C4802 C4801 1.389 . S
C4802 C4803 1.387 . S
C4803 H4788 0.930 . S
C4803 C4798 1.390 . S
C4803 C4802 1.387 . S
H4804 C4816 0.930 . S
H4805 C4818 0.930 . S
H4806 C4819 0.930 . S
H4807 C4823 0.959 . S
H4808 C4823 0.959 . S
H4809 C4823 0.961 . S
H4810 C4824 0.960 . S
H4811 C4824 0.961 . S
H4812 C4824 0.959 . S
H4813 C4827 0.929 . S
H4814 C4828 0.931 . S
H4815 C4830 0.930 . S
C4816 H4804 0.930 . S
C4816 C4817 1.399 . S
C4816 C4821 1.399 . S
C4817 C4816 1.399 . S
C4817 C4818 1.376 . S
C4818 H4805 0.930 . S
C4818 C4817 1.376 . S
C4818 C4819 1.388 . S
C4819 H4806 0.930 . S
C4819 C4818 1.388 . S
C4819 C4820 1.390 . S
C4820 C4819 1.390 . S
C4820 C4821 1.394 . S
C4820 C4826 1.465 . S
C4821 C4816 1.399 . S
C4821 C4820 1.394 . S
C4821 C4822 1.516 . S
C4822 C4821 1.516 . S
C4822 C4823 1.502 . S
C4822 C4824 1.561 . S
C4822 C4825 1.526 . S
C4823 H4807 0.959 . S
C4823 H4808 0.959 . S
C4823 H4809 0.961 . S
C4823 C4822 1.502 . S
C4824 H4810 0.960 . S
C4824 H4811 0.961 . S
C4824 H4812 0.959 . S
C4824 C4822 1.561 . S
C4825 C4822 1.526 . S
C4825 C4826 1.396 . S
C4825 C4830 1.390 . S
C4826 C4820 1.465 . S
C4826 C4825 1.396 . S
C4826 C4827 1.399 . S
C4827 H4813 0.929 . S
C4827 C4826 1.399 . S
C4827 C4828 1.385 . S
C4828 H4814 0.931 . S
C4828 C4827 1.385 . S
C4828 C4829 1.389 . S
C4829 C4828 1.389 . S
C4829 C4830 1.387 . S
C4830 H4815 0.930 . S
C4830 C4825 1.390 . S
C4830 C4829 1.387 . S
H4831 C4843 0.930 . S
H4832 C4845 0.930 . S
H4833 C4846 0.930 . S
H4834 C4850 0.959 . S
H4835 C4850 0.959 . S
H4836 C4850 0.961 . S
H4837 C4851 0.960 . S
H4838 C4851 0.961 . S
H4839 C4851 0.959 . S
H4840 C4854 0.929 . S
H4841 C4855 0.931 . S
H4842 C4857 0.930 . S
C4843 H4831 0.930 . S
C4843 C4844 1.399 . S
C4843 C4848 1.399 . S
C4844 C4843 1.399 . S
C4844 C4845 1.376 . S
C4845 H4832 0.930 . S
C4845 C4844 1.376 . S
C4845 C4846 1.388 . S
C4846 H4833 0.930 . S
C4846 C4845 1.388 . S
C4846 C4847 1.390 . S
C4847 C4846 1.390 . S
C4847 C4848 1.394 . S
C4847 C4853 1.465 . S
C4848 C4843 1.399 . S
C4848 C4847 1.394 . S
C4848 C4849 1.516 . S
C4849 C4848 1.516 . S
C4849 C4850 1.502 . S
C4849 C4851 1.561 . S
C4849 C4852 1.526 . S
C4850 H4834 0.959 . S
C4850 H4835 0.959 . S
C4850 H4836 0.961 . S
C4850 C4849 1.502 . S
C4851 H4837 0.960 . S
C4851 H4838 0.961 . S
C4851 H4839 0.959 . S
C4851 C4849 1.561 . S
C4852 C4849 1.526 . S
C4852 C4853 1.396 . S
C4852 C4857 1.390 . S
C4853 C4847 1.465 . S
C4853 C4852 1.396 . S
C4853 C4854 1.399 . S
C4854 H4840 0.929 . S
C4854 C4853 1.399 . S
C4854 C4855 1.385 . S
C4855 H4841 0.931 . S
C4855 C4854 1.385 . S
C4855 C4856 1.389 . S
C4856 C4855 1.389 . S
C4856 C4857 1.387 . S
C4857 H4842 0.930 . S
C4857 C4852 1.390 . S
C4857 C4856 1.387 . S
H4858 C4870 0.930 . S
H4859 C4872 0.930 . S
H4860 C4873 0.930 . S
H4861 C4877 0.959 . S
H4862 C4877 0.959 . S
H4863 C4877 0.961 . S
H4864 C4878 0.960 . S
H4865 C4878 0.961 . S
H4866 C4878 0.959 . S
H4867 C4881 0.929 . S
H4868 C4882 0.931 . S
H4869 C4884 0.930 . S
C4870 H4858 0.930 . S
C4870 C4871 1.399 . S
C4870 C4875 1.399 . S
C4871 C4870 1.399 . S
C4871 C4872 1.376 . S
C4872 H4859 0.930 . S
C4872 C4871 1.376 . S
C4872 C4873 1.388 . S
C4873 H4860 0.930 . S
C4873 C4872 1.388 . S
C4873 C4874 1.390 . S
C4874 C4873 1.390 . S
C4874 C4875 1.394 . S
C4874 C4880 1.465 . S
C4875 C4870 1.399 . S
C4875 C4874 1.394 . S
C4875 C4876 1.516 . S
C4876 C4875 1.516 . S
C4876 C4877 1.502 . S
C4876 C4878 1.561 . S
C4876 C4879 1.526 . S
C4877 H4861 0.959 . S
C4877 H4862 0.959 . S
C4877 H4863 0.961 . S
C4877 C4876 1.502 . S
C4878 H4864 0.960 . S
C4878 H4865 0.961 . S
C4878 H4866 0.959 . S
C4878 C4876 1.561 . S
C4879 C4876 1.526 . S
C4879 C4880 1.396 . S
C4879 C4884 1.390 . S
C4880 C4874 1.465 . S
C4880 C4879 1.396 . S
C4880 C4881 1.399 . S
C4881 H4867 0.929 . S
C4881 C4880 1.399 . S
C4881 C4882 1.385 . S
C4882 H4868 0.931 . S
C4882 C4881 1.385 . S
C4882 C4883 1.389 . S
C4883 C4882 1.389 . S
C4883 C4884 1.387 . S
C4884 H4869 0.930 . S
C4884 C4879 1.390 . S
C4884 C4883 1.387 . S
H4885 C4897 0.930 . S
H4886 C4899 0.930 . S
H4887 C4900 0.930 . S
H4888 C4904 0.959 . S
H4889 C4904 0.959 . S
H4890 C4904 0.961 . S
H4891 C4905 0.960 . S
H4892 C4905 0.961 . S
H4893 C4905 0.959 . S
H4894 C4908 0.929 . S
H4895 C4909 0.931 . S
H4896 C4911 0.930 . S
C4897 H4885 0.930 . S
C4897 C4898 1.399 . S
C4897 C4902 1.399 . S
C4898 C4897 1.399 . S
C4898 C4899 1.376 . S
C4899 H4886 0.930 . S
C4899 C4898 1.376 . S
C4899 C4900 1.388 . S
C4900 H4887 0.930 . S
C4900 C4899 1.388 . S
C4900 C4901 1.390 . S
C4901 C4900 1.390 . S
C4901 C4902 1.394 . S
C4901 C4907 1.465 . S
C4902 C4897 1.399 . S
C4902 C4901 1.394 . S
C4902 C4903 1.516 . S
C4903 C4902 1.516 . S
C4903 C4904 1.502 . S
C4903 C4905 1.561 . S
C4903 C4906 1.526 . S
C4904 H4888 0.959 . S
C4904 H4889 0.959 . S
C4904 H4890 0.961 . S
C4904 C4903 1.502 . S
C4905 H4891 0.960 . S
C4905 H4892 0.961 . S
C4905 H4893 0.959 . S
C4905 C4903 1.561 . S
C4906 C4903 1.526 . S
C4906 C4907 1.396 . S
C4906 C4911 1.390 . S
C4907 C4901 1.465 . S
C4907 C4906 1.396 . S
C4907 C4908 1.399 . S
C4908 H4894 0.929 . S
C4908 C4907 1.399 . S
C4908 C4909 1.385 . S
C4909 H4895 0.931 . S
C4909 C4908 1.385 . S
C4909 C4910 1.389 . S
C4910 C4909 1.389 . S
C4910 C4911 1.387 . S
C4911 H4896 0.930 . S
C4911 C4906 1.390 . S
C4911 C4910 1.387 . S
H4912 C4924 0.930 . S
H4913 C4926 0.930 . S
H4914 C4927 0.930 . S
H4915 C4931 0.959 . S
H4916 C4931 0.959 . S
H4917 C4931 0.961 . S
H4918 C4932 0.960 . S
H4919 C4932 0.961 . S
H4920 C4932 0.959 . S
H4921 C4935 0.929 . S
H4922 C4936 0.931 . S
H4923 C4938 0.930 . S
C4924 H4912 0.930 . S
C4924 C4925 1.399 . S
C4924 C4929 1.399 . S
C4925 C4924 1.399 . S
C4925 C4926 1.376 . S
C4926 H4913 0.930 . S
C4926 C4925 1.376 . S
C4926 C4927 1.388 . S
C4927 H4914 0.930 . S
C4927 C4926 1.388 . S
C4927 C4928 1.390 . S
C4928 C4927 1.390 . S
C4928 C4929 1.394 . S
C4928 C4934 1.465 . S
C4929 C4924 1.399 . S
C4929 C4928 1.394 . S
C4929 C4930 1.516 . S
C4930 C4929 1.516 . S
C4930 C4931 1.502 . S
C4930 C4932 1.561 . S
C4930 C4933 1.526 . S
C4931 H4915 0.959 . S
C4931 H4916 0.959 . S
C4931 H4917 0.961 . S
C4931 C4930 1.502 . S
C4932 H4918 0.960 . S
C4932 H4919 0.961 . S
C4932 H4920 0.959 . S
C4932 C4930 1.561 . S
C4933 C4930 1.526 . S
C4933 C4934 1.396 . S
C4933 C4938 1.390 . S
C4934 C4928 1.465 . S
C4934 C4933 1.396 . S
C4934 C4935 1.399 . S
C4935 H4921 0.929 . S
C4935 C4934 1.399 . S
C4935 C4936 1.385 . S
C4936 H4922 0.931 . S
C4936 C4935 1.385 . S
C4936 C4937 1.389 . S
C4937 C4936 1.389 . S
C4937 C4938 1.387 . S
C4938 H4923 0.930 . S
C4938 C4933 1.390 . S
C4938 C4937 1.387 . S
H4939 C4951 0.930 . S
H4940 C4953 0.930 . S
H4941 C4954 0.930 . S
H4942 C4958 0.959 . S
H4943 C4958 0.959 . S
H4944 C4958 0.961 . S
H4945 C4959 0.960 . S
H4946 C4959 0.961 . S
H4947 C4959 0.959 . S
H4948 C4962 0.929 . S
H4949 C4963 0.931 . S
H4950 C4965 0.930 . S
C4951 H4939 0.930 . S
C4951 C4952 1.399 . S
C4951 C4956 1.399 . S
C4952 C4951 1.399 . S
C4952 C4953 1.376 . S
C4953 H4940 0.930 . S
C4953 C4952 1.376 . S
C4953 C4954 1.388 . S
C4954 H4941 0.930 . S
C4954 C4953 1.388 . S
C4954 C4955 1.390 . S
C4955 C4954 1.390 . S
C4955 C4956 1.394 . S
C4955 C4961 1.465 . S
C4956 C4951 1.399 . S
C4956 C4955 1.394 . S
C4956 C4957 1.516 . S
C4957 C4956 1.516 . S
C4957 C4958 1.502 . S
C4957 C4959 1.561 . S
C4957 C4960 1.526 . S
C4958 H4942 0.959 . S
C4958 H4943 0.959 . S
C4958 H4944 0.961 . S
C4958 C4957 1.502 . S
C4959 H4945 0.960 . S
C4959 H4946 0.961 . S
C4959 H4947 0.959 . S
C4959 C4957 1.561 . S
C4960 C4957 1.526 . S
C4960 C4961 1.396 . S
C4960 C4965 1.390 . S
C4961 C4955 1.465 . S
C4961 C4960 1.396 . S
C4961 C4962 1.399 . S
C4962 H4948 0.929 . S
C4962 C4961 1.399 . S
C4962 C4963 1.385 . S
C4963 H4949 0.931 . S
C4963 C4962 1.385 . S
C4963 C4964 1.389 . S
C4964 C4963 1.389 . S
C4964 C4965 1.387 . S
C4965 H4950 0.930 . S
C4965 C4960 1.390 . S
C4965 C4964 1.387 . S
H4966 C4978 0.930 . S
H4967 C4980 0.930 . S
H4968 C4981 0.930 . S
H4969 C4985 0.959 . S
H4970 C4985 0.959 . S
H4971 C4985 0.961 . S
H4972 C4986 0.960 1_655 S
H4973 C4986 0.961 . S
H4974 C4986 0.959 . S
H4975 C4989 0.929 . S
H4976 C4990 0.931 . S
H4977 C4992 0.930 . S
C4978 H4966 0.930 . S
C4978 C4979 1.399 . S
C4978 C4983 1.399 . S
C4979 C4978 1.399 . S
C4979 C4980 1.376 . S
C4980 H4967 0.930 . S
C4980 C4979 1.376 . S
C4980 C4981 1.388 1_655 S
C4981 H4968 0.930 . S
C4981 C4980 1.388 1_455 S
C4981 C4982 1.390 . S
C4982 C4981 1.390 . S
C4982 C4983 1.394 1_455 S
C4982 C4988 1.465 . S
C4983 C4978 1.399 . S
C4983 C4982 1.394 1_655 S
C4983 C4984 1.516 . S
C4984 C4983 1.516 . S
C4984 C4985 1.502 . S
C4984 C4986 1.561 1_655 S
C4984 C4987 1.526 1_655 S
C4985 H4969 0.959 . S
C4985 H4970 0.959 . S
C4985 H4971 0.961 . S
C4985 C4984 1.502 . S
C4986 H4972 0.960 1_455 S
C4986 H4973 0.961 . S
C4986 H4974 0.959 . S
C4986 C4984 1.561 1_455 S
C4987 C4984 1.526 1_455 S
C4987 C4988 1.396 . S
C4987 C4992 1.390 . S
C4988 C4982 1.465 . S
C4988 C4987 1.396 . S
C4988 C4989 1.399 . S
C4989 H4975 0.929 . S
C4989 C4988 1.399 . S
C4989 C4990 1.385 . S
C4990 H4976 0.931 . S
C4990 C4989 1.385 . S
C4990 C4991 1.389 . S
C4991 C4990 1.389 . S
C4991 C4992 1.387 . S
C4992 H4977 0.930 . S
C4992 C4987 1.390 . S
C4992 C4991 1.387 . S
H4993 C5005 0.930 . S
H4994 C5007 0.930 . S
H4995 C5008 0.930 . S
H4996 C5012 0.959 . S
H4997 C5012 0.959 . S
H4998 C5012 0.961 . S
H4999 C5013 0.960 . S
H5000 C5013 0.961 . S
H5001 C5013 0.959 . S
H5002 C5016 0.929 . S
H5003 C5017 0.931 . S
H5004 C5019 0.930 . S
C5005 H4993 0.930 . S
C5005 C5006 1.399 . S
C5005 C5010 1.399 . S
C5006 C5005 1.399 . S
C5006 C5007 1.376 . S
C5007 H4994 0.930 . S
C5007 C5006 1.376 . S
C5007 C5008 1.388 . S
C5008 H4995 0.930 . S
C5008 C5007 1.388 . S
C5008 C5009 1.390 . S
C5009 C5008 1.390 . S
C5009 C5010 1.394 . S
C5009 C5015 1.465 . S
C5010 C5005 1.399 . S
C5010 C5009 1.394 . S
C5010 C5011 1.516 . S
C5011 C5010 1.516 . S
C5011 C5012 1.502 . S
C5011 C5013 1.561 . S
C5011 C5014 1.526 . S
C5012 H4996 0.959 . S
C5012 H4997 0.959 . S
C5012 H4998 0.961 . S
C5012 C5011 1.502 . S
C5013 H4999 0.960 . S
C5013 H5000 0.961 . S
C5013 H5001 0.959 . S
C5013 C5011 1.561 . S
C5014 C5011 1.526 . S
C5014 C5015 1.396 . S
C5014 C5019 1.390 . S
C5015 C5009 1.465 . S
C5015 C5014 1.396 . S
C5015 C5016 1.399 . S
C5016 H5002 0.929 . S
C5016 C5015 1.399 . S
C5016 C5017 1.385 . S
C5017 H5003 0.931 . S
C5017 C5016 1.385 . S
C5017 C5018 1.389 . S
C5018 C5017 1.389 . S
C5018 C5019 1.387 . S
C5019 H5004 0.930 . S
C5019 C5014 1.390 . S
C5019 C5018 1.387 . S
H5020 C5032 0.930 . S
H5021 C5034 0.930 . S
H5022 C5035 0.930 . S
H5023 C5039 0.959 . S
H5024 C5039 0.959 . S
H5025 C5039 0.961 . S
H5026 C5040 0.960 . S
H5027 C5040 0.961 . S
H5028 C5040 0.959 . S
H5029 C5043 0.929 . S
H5030 C5044 0.931 . S
H5031 C5046 0.930 . S
C5032 H5020 0.930 . S
C5032 C5033 1.399 . S
C5032 C5037 1.399 . S
C5033 C5032 1.399 . S
C5033 C5034 1.376 . S
C5034 H5021 0.930 . S
C5034 C5033 1.376 . S
C5034 C5035 1.388 . S
C5035 H5022 0.930 . S
C5035 C5034 1.388 . S
C5035 C5036 1.390 . S
C5036 C5035 1.390 . S
C5036 C5037 1.394 . S
C5036 C5042 1.465 . S
C5037 C5032 1.399 . S
C5037 C5036 1.394 . S
C5037 C5038 1.516 . S
C5038 C5037 1.516 . S
C5038 C5039 1.502 . S
C5038 C5040 1.561 . S
C5038 C5041 1.526 . S
C5039 H5023 0.959 . S
C5039 H5024 0.959 . S
C5039 H5025 0.961 . S
C5039 C5038 1.502 . S
C5040 H5026 0.960 . S
C5040 H5027 0.961 . S
C5040 H5028 0.959 . S
C5040 C5038 1.561 . S
C5041 C5038 1.526 . S
C5041 C5042 1.396 . S
C5041 C5046 1.390 . S
C5042 C5036 1.465 . S
C5042 C5041 1.396 . S
C5042 C5043 1.399 . S
C5043 H5029 0.929 . S
C5043 C5042 1.399 . S
C5043 C5044 1.385 . S
C5044 H5030 0.931 . S
C5044 C5043 1.385 . S
C5044 C5045 1.389 . S
C5045 C5044 1.389 . S
C5045 C5046 1.387 . S
C5046 H5031 0.930 . S
C5046 C5041 1.390 . S
C5046 C5045 1.387 . S
H5047 C5059 0.930 . S
H5048 C5061 0.930 . S
H5049 C5062 0.930 . S
H5050 C5066 0.959 . S
H5051 C5066 0.959 . S
H5052 C5066 0.961 . S
H5053 C5067 0.960 . S
H5054 C5067 0.961 . S
H5055 C5067 0.959 . S
H5056 C5070 0.929 . S
H5057 C5071 0.931 . S
H5058 C5073 0.930 . S
C5059 H5047 0.930 . S
C5059 C5060 1.399 . S
C5059 C5064 1.399 . S
C5060 C5059 1.399 . S
C5060 C5061 1.376 . S
C5061 H5048 0.930 . S
C5061 C5060 1.376 . S
C5061 C5062 1.388 . S
C5062 H5049 0.930 . S
C5062 C5061 1.388 . S
C5062 C5063 1.390 . S
C5063 C5062 1.390 . S
C5063 C5064 1.394 . S
C5063 C5069 1.465 . S
C5064 C5059 1.399 . S
C5064 C5063 1.394 . S
C5064 C5065 1.516 . S
C5065 C5064 1.516 . S
C5065 C5066 1.502 . S
C5065 C5067 1.561 . S
C5065 C5068 1.526 . S
C5066 H5050 0.959 . S
C5066 H5051 0.959 . S
C5066 H5052 0.961 . S
C5066 C5065 1.502 . S
C5067 H5053 0.960 . S
C5067 H5054 0.961 . S
C5067 H5055 0.959 . S
C5067 C5065 1.561 . S
C5068 C5065 1.526 . S
C5068 C5069 1.396 . S
C5068 C5073 1.390 . S
C5069 C5063 1.465 . S
C5069 C5068 1.396 . S
C5069 C5070 1.399 . S
C5070 H5056 0.929 . S
C5070 C5069 1.399 . S
C5070 C5071 1.385 . S
C5071 H5057 0.931 . S
C5071 C5070 1.385 . S
C5071 C5072 1.389 . S
C5072 C5071 1.389 . S
C5072 C5073 1.387 . S
C5073 H5058 0.930 . S
C5073 C5068 1.390 . S
C5073 C5072 1.387 . S
H5074 C5086 0.930 . S
H5075 C5088 0.930 . S
H5076 C5089 0.930 . S
H5077 C5093 0.959 . S
H5078 C5093 0.959 . S
H5079 C5093 0.961 . S
H5080 C5094 0.960 . S
H5081 C5094 0.961 . S
H5082 C5094 0.959 . S
H5083 C5097 0.929 1_455 S
H5084 C5098 0.931 1_455 S
H5085 C5100 0.930 . S
C5086 H5074 0.930 . S
C5086 C5087 1.399 . S
C5086 C5091 1.399 . S
C5087 C5086 1.399 . S
C5087 C5088 1.376 . S
C5088 H5075 0.930 . S
C5088 C5087 1.376 . S
C5088 C5089 1.388 . S
C5089 H5076 0.930 . S
C5089 C5088 1.388 . S
C5089 C5090 1.390 . S
C5090 C5089 1.390 . S
C5090 C5091 1.394 . S
C5090 C5096 1.465 . S
C5091 C5086 1.399 . S
C5091 C5090 1.394 . S
C5091 C5092 1.516 . S
C5092 C5091 1.516 . S
C5092 C5093 1.502 . S
C5092 C5094 1.561 . S
C5092 C5095 1.526 . S
C5093 H5077 0.959 . S
C5093 H5078 0.959 . S
C5093 H5079 0.961 . S
C5093 C5092 1.502 . S
C5094 H5080 0.960 . S
C5094 H5081 0.961 . S
C5094 H5082 0.959 . S
C5094 C5092 1.561 . S
C5095 C5092 1.526 . S
C5095 C5096 1.396 . S
C5095 C5100 1.390 . S
C5096 C5090 1.465 . S
C5096 C5095 1.396 . S
C5096 C5097 1.399 . S
C5097 H5083 0.929 1_655 S
C5097 C5096 1.399 . S
C5097 C5098 1.385 . S
C5098 H5084 0.931 1_655 S
C5098 C5097 1.385 . S
C5098 C5099 1.389 . S
C5099 C5098 1.389 . S
C5099 C5100 1.387 . S
C5100 H5085 0.930 . S
C5100 C5095 1.390 . S
C5100 C5099 1.387 . S
H5101 C5113 0.930 . S
H5102 C5115 0.930 . S
H5103 C5116 0.930 . S
H5104 C5120 0.959 . S
H5105 C5120 0.959 . S
H5106 C5120 0.961 . S
H5107 C5121 0.960 . S
H5108 C5121 0.961 . S
H5109 C5121 0.959 . S
H5110 C5124 0.929 . S
H5111 C5125 0.931 . S
H5112 C5127 0.930 . S
C5113 H5101 0.930 . S
C5113 C5114 1.399 . S
C5113 C5118 1.399 . S
C5114 C5113 1.399 . S
C5114 C5115 1.376 . S
C5115 H5102 0.930 . S
C5115 C5114 1.376 . S
C5115 C5116 1.388 . S
C5116 H5103 0.930 . S
C5116 C5115 1.388 . S
C5116 C5117 1.390 . S
C5117 C5116 1.390 . S
C5117 C5118 1.394 . S
C5117 C5123 1.465 . S
C5118 C5113 1.399 . S
C5118 C5117 1.394 . S
C5118 C5119 1.516 . S
C5119 C5118 1.516 . S
C5119 C5120 1.502 . S
C5119 C5121 1.561 . S
C5119 C5122 1.526 . S
C5120 H5104 0.959 . S
C5120 H5105 0.959 . S
C5120 H5106 0.961 . S
C5120 C5119 1.502 . S
C5121 H5107 0.960 . S
C5121 H5108 0.961 . S
C5121 H5109 0.959 . S
C5121 C5119 1.561 . S
C5122 C5119 1.526 . S
C5122 C5123 1.396 . S
C5122 C5127 1.390 . S
C5123 C5117 1.465 . S
C5123 C5122 1.396 . S
C5123 C5124 1.399 . S
C5124 H5110 0.929 . S
C5124 C5123 1.399 . S
C5124 C5125 1.385 . S
C5125 H5111 0.931 . S
C5125 C5124 1.385 . S
C5125 C5126 1.389 . S
C5126 C5125 1.389 . S
C5126 C5127 1.387 . S
C5127 H5112 0.930 . S
C5127 C5122 1.390 . S
C5127 C5126 1.387 . S
H5128 C5140 0.930 . S
H5129 C5142 0.930 . S
H5130 C5143 0.930 . S
H5131 C5147 0.959 . S
H5132 C5147 0.959 . S
H5133 C5147 0.961 . S
H5134 C5148 0.960 . S
H5135 C5148 0.961 . S
H5136 C5148 0.959 . S
H5137 C5151 0.929 . S
H5138 C5152 0.931 . S
H5139 C5154 0.930 . S
C5140 H5128 0.930 . S
C5140 C5141 1.399 . S
C5140 C5145 1.399 . S
C5141 C5140 1.399 . S
C5141 C5142 1.376 . S
C5142 H5129 0.930 . S
C5142 C5141 1.376 . S
C5142 C5143 1.388 . S
C5143 H5130 0.930 . S
C5143 C5142 1.388 . S
C5143 C5144 1.390 . S
C5144 C5143 1.390 . S
C5144 C5145 1.394 . S
C5144 C5150 1.465 . S
C5145 C5140 1.399 . S
C5145 C5144 1.394 . S
C5145 C5146 1.516 . S
C5146 C5145 1.516 . S
C5146 C5147 1.502 . S
C5146 C5148 1.561 . S
C5146 C5149 1.526 . S
C5147 H5131 0.959 . S
C5147 H5132 0.959 . S
C5147 H5133 0.961 . S
C5147 C5146 1.502 . S
C5148 H5134 0.960 . S
C5148 H5135 0.961 . S
C5148 H5136 0.959 . S
C5148 C5146 1.561 . S
C5149 C5146 1.526 . S
C5149 C5150 1.396 . S
C5149 C5154 1.390 . S
C5150 C5144 1.465 . S
C5150 C5149 1.396 . S
C5150 C5151 1.399 . S
C5151 H5137 0.929 . S
C5151 C5150 1.399 . S
C5151 C5152 1.385 . S
C5152 H5138 0.931 . S
C5152 C5151 1.385 . S
C5152 C5153 1.389 . S
C5153 C5152 1.389 . S
C5153 C5154 1.387 . S
C5154 H5139 0.930 . S
C5154 C5149 1.390 . S
C5154 C5153 1.387 . S
H5155 C5167 0.930 . S
H5156 C5169 0.930 . S
H5157 C5170 0.930 . S
H5158 C5174 0.959 . S
H5159 C5174 0.959 . S
H5160 C5174 0.961 . S
H5161 C5175 0.960 . S
H5162 C5175 0.961 . S
H5163 C5175 0.959 . S
H5164 C5178 0.929 . S
H5165 C5179 0.931 . S
H5166 C5181 0.930 . S
C5167 H5155 0.930 . S
C5167 C5168 1.399 . S
C5167 C5172 1.399 . S
C5168 C5167 1.399 . S
C5168 C5169 1.376 . S
C5169 H5156 0.930 . S
C5169 C5168 1.376 . S
C5169 C5170 1.388 . S
C5170 H5157 0.930 . S
C5170 C5169 1.388 . S
C5170 C5171 1.390 . S
C5171 C5170 1.390 . S
C5171 C5172 1.394 . S
C5171 C5177 1.465 . S
C5172 C5167 1.399 . S
C5172 C5171 1.394 . S
C5172 C5173 1.516 . S
C5173 C5172 1.516 . S
C5173 C5174 1.502 . S
C5173 C5175 1.561 . S
C5173 C5176 1.526 . S
C5174 H5158 0.959 . S
C5174 H5159 0.959 . S
C5174 H5160 0.961 . S
C5174 C5173 1.502 . S
C5175 H5161 0.960 . S
C5175 H5162 0.961 . S
C5175 H5163 0.959 . S
C5175 C5173 1.561 . S
C5176 C5173 1.526 . S
C5176 C5177 1.396 . S
C5176 C5181 1.390 . S
C5177 C5171 1.465 . S
C5177 C5176 1.396 . S
C5177 C5178 1.399 . S
C5178 H5164 0.929 . S
C5178 C5177 1.399 . S
C5178 C5179 1.385 1_565 S
C5179 H5165 0.931 . S
C5179 C5178 1.385 1_545 S
C5179 C5180 1.389 . S
C5180 C5179 1.389 . S
C5180 C5181 1.387 1_545 S
C5181 H5166 0.930 . S
C5181 C5176 1.390 . S
C5181 C5180 1.387 1_565 S
H5182 C5194 0.930 . S
H5183 C5196 0.930 . S
H5184 C5197 0.930 . S
H5185 C5201 0.959 . S
H5186 C5201 0.959 . S
H5187 C5201 0.961 . S
H5188 C5202 0.960 . S
H5189 C5202 0.961 . S
H5190 C5202 0.959 . S
H5191 C5205 0.929 . S
H5192 C5206 0.931 . S
H5193 C5208 0.930 . S
C5194 H5182 0.930 . S
C5194 C5195 1.399 . S
C5194 C5199 1.399 . S
C5195 C5194 1.399 . S
C5195 C5196 1.376 . S
C5196 H5183 0.930 . S
C5196 C5195 1.376 . S
C5196 C5197 1.388 . S
C5197 H5184 0.930 . S
C5197 C5196 1.388 . S
C5197 C5198 1.390 . S
C5198 C5197 1.390 . S
C5198 C5199 1.394 . S
C5198 C5204 1.465 . S
C5199 C5194 1.399 . S
C5199 C5198 1.394 . S
C5199 C5200 1.516 . S
C5200 C5199 1.516 . S
C5200 C5201 1.502 . S
C5200 C5202 1.561 . S
C5200 C5203 1.526 . S
C5201 H5185 0.959 . S
C5201 H5186 0.959 . S
C5201 H5187 0.961 . S
C5201 C5200 1.502 . S
C5202 H5188 0.960 . S
C5202 H5189 0.961 . S
C5202 H5190 0.959 . S
C5202 C5200 1.561 . S
C5203 C5200 1.526 . S
C5203 C5204 1.396 . S
C5203 C5208 1.390 . S
C5204 C5198 1.465 . S
C5204 C5203 1.396 . S
C5204 C5205 1.399 . S
C5205 H5191 0.929 . S
C5205 C5204 1.399 . S
C5205 C5206 1.385 . S
C5206 H5192 0.931 . S
C5206 C5205 1.385 . S
C5206 C5207 1.389 . S
C5207 C5206 1.389 . S
C5207 C5208 1.387 . S
C5208 H5193 0.930 . S
C5208 C5203 1.390 . S
C5208 C5207 1.387 . S
H5209 C5221 0.930 . S
H5210 C5223 0.930 . S
H5211 C5224 0.930 . S
H5212 C5228 0.959 . S
H5213 C5228 0.959 . S
H5214 C5228 0.961 . S
H5215 C5229 0.960 . S
H5216 C5229 0.961 . S
H5217 C5229 0.959 . S
H5218 C5232 0.929 . S
H5219 C5233 0.931 . S
H5220 C5235 0.930 . S
C5221 H5209 0.930 . S
C5221 C5222 1.399 1_554 S
C5221 C5226 1.399 . S
C5222 C5221 1.399 1_556 S
C5222 C5223 1.376 . S
C5223 H5210 0.930 . S
C5223 C5222 1.376 . S
C5223 C5224 1.388 . S
C5224 H5211 0.930 . S
C5224 C5223 1.388 . S
C5224 C5225 1.390 . S
C5225 C5224 1.390 . S
C5225 C5226 1.394 1_556 S
C5225 C5231 1.465 . S
C5226 C5221 1.399 . S
C5226 C5225 1.394 1_554 S
C5226 C5227 1.516 . S
C5227 C5226 1.516 . S
C5227 C5228 1.502 . S
C5227 C5229 1.561 . S
C5227 C5230 1.526 . S
C5228 H5212 0.959 . S
C5228 H5213 0.959 . S
C5228 H5214 0.961 . S
C5228 C5227 1.502 . S
C5229 H5215 0.960 . S
C5229 H5216 0.961 . S
C5229 H5217 0.959 . S
C5229 C5227 1.561 . S
C5230 C5227 1.526 . S
C5230 C5231 1.396 1_554 S
C5230 C5235 1.390 . S
C5231 C5225 1.465 . S
C5231 C5230 1.396 1_556 S
C5231 C5232 1.399 . S
C5232 H5218 0.929 . S
C5232 C5231 1.399 . S
C5232 C5233 1.385 . S
C5233 H5219 0.931 . S
C5233 C5232 1.385 . S
C5233 C5234 1.389 1_556 S
C5234 C5233 1.389 1_554 S
C5234 C5235 1.387 . S
C5235 H5220 0.930 . S
C5235 C5230 1.390 . S
C5235 C5234 1.387 . S
H5236 C5248 0.930 . S
H5237 C5250 0.930 . S
H5238 C5251 0.930 . S
H5239 C5255 0.959 . S
H5240 C5255 0.959 . S
H5241 C5255 0.961 . S
H5242 C5256 0.960 . S
H5243 C5256 0.961 . S
H5244 C5256 0.959 . S
H5245 C5259 0.929 . S
H5246 C5260 0.931 . S
H5247 C5262 0.930 . S
C5248 H5236 0.930 . S
C5248 C5249 1.399 . S
C5248 C5253 1.399 . S
C5249 C5248 1.399 . S
C5249 C5250 1.376 . S
C5250 H5237 0.930 . S
C5250 C5249 1.376 . S
C5250 C5251 1.388 . S
C5251 H5238 0.930 . S
C5251 C5250 1.388 . S
C5251 C5252 1.390 . S
C5252 C5251 1.390 . S
C5252 C5253 1.394 . S
C5252 C5258 1.465 . S
C5253 C5248 1.399 . S
C5253 C5252 1.394 . S
C5253 C5254 1.516 . S
C5254 C5253 1.516 . S
C5254 C5255 1.502 . S
C5254 C5256 1.561 . S
C5254 C5257 1.526 . S
C5255 H5239 0.959 . S
C5255 H5240 0.959 . S
C5255 H5241 0.961 . S
C5255 C5254 1.502 . S
C5256 H5242 0.960 . S
C5256 H5243 0.961 . S
C5256 H5244 0.959 . S
C5256 C5254 1.561 . S
C5257 C5254 1.526 . S
C5257 C5258 1.396 . S
C5257 C5262 1.390 . S
C5258 C5252 1.465 . S
C5258 C5257 1.396 . S
C5258 C5259 1.399 . S
C5259 H5245 0.929 . S
C5259 C5258 1.399 . S
C5259 C5260 1.385 . S
C5260 H5246 0.931 . S
C5260 C5259 1.385 . S
C5260 C5261 1.389 . S
C5261 C5260 1.389 . S
C5261 C5262 1.387 . S
C5262 H5247 0.930 . S
C5262 C5257 1.390 . S
C5262 C5261 1.387 . S
H5263 C5275 0.930 . S
H5264 C5277 0.930 . S
H5265 C5278 0.930 . S
H5266 C5282 0.959 . S
H5267 C5282 0.959 . S
H5268 C5282 0.961 . S
H5269 C5283 0.960 . S
H5270 C5283 0.961 . S
H5271 C5283 0.959 . S
H5272 C5286 0.929 . S
H5273 C5287 0.931 . S
H5274 C5289 0.930 . S
C5275 H5263 0.930 . S
C5275 C5276 1.399 . S
C5275 C5280 1.399 . S
C5276 C5275 1.399 . S
C5276 C5277 1.376 . S
C5277 H5264 0.930 . S
C5277 C5276 1.376 . S
C5277 C5278 1.388 . S
C5278 H5265 0.930 . S
C5278 C5277 1.388 . S
C5278 C5279 1.390 . S
C5279 C5278 1.390 . S
C5279 C5280 1.394 . S
C5279 C5285 1.465 1_554 S
C5280 C5275 1.399 . S
C5280 C5279 1.394 . S
C5280 C5281 1.516 . S
C5281 C5280 1.516 . S
C5281 C5282 1.502 1_554 S
C5281 C5283 1.561 . S
C5281 C5284 1.526 1_554 S
C5282 H5266 0.959 . S
C5282 H5267 0.959 . S
C5282 H5268 0.961 . S
C5282 C5281 1.502 1_556 S
C5283 H5269 0.960 . S
C5283 H5270 0.961 . S
C5283 H5271 0.959 . S
C5283 C5281 1.561 . S
C5284 C5281 1.526 1_556 S
C5284 C5285 1.396 . S
C5284 C5289 1.390 . S
C5285 C5279 1.465 1_556 S
C5285 C5284 1.396 . S
C5285 C5286 1.399 . S
C5286 H5272 0.929 . S
C5286 C5285 1.399 . S
C5286 C5287 1.385 . S
C5287 H5273 0.931 . S
C5287 C5286 1.385 . S
C5287 C5288 1.389 . S
C5288 C5287 1.389 . S
C5288 C5289 1.387 . S
C5289 H5274 0.930 . S
C5289 C5284 1.390 . S
C5289 C5288 1.387 . S
H5290 C5302 0.930 . S
H5291 C5304 0.930 . S
H5292 C5305 0.930 . S
H5293 C5309 0.959 . S
H5294 C5309 0.959 . S
H5295 C5309 0.961 . S
H5296 C5310 0.960 . S
H5297 C5310 0.961 . S
H5298 C5310 0.959 . S
H5299 C5313 0.929 . S
H5300 C5314 0.931 . S
H5301 C5316 0.930 . S
C5302 H5290 0.930 . S
C5302 C5303 1.399 . S
C5302 C5307 1.399 . S
C5303 C5302 1.399 . S
C5303 C5304 1.376 . S
C5304 H5291 0.930 . S
C5304 C5303 1.376 . S
C5304 C5305 1.388 . S
C5305 H5292 0.930 . S
C5305 C5304 1.388 . S
C5305 C5306 1.390 . S
C5306 C5305 1.390 . S
C5306 C5307 1.394 . S
C5306 C5312 1.465 . S
C5307 C5302 1.399 . S
C5307 C5306 1.394 . S
C5307 C5308 1.516 . S
C5308 C5307 1.516 . S
C5308 C5309 1.502 . S
C5308 C5310 1.561 . S
C5308 C5311 1.526 . S
C5309 H5293 0.959 . S
C5309 H5294 0.959 . S
C5309 H5295 0.961 . S
C5309 C5308 1.502 . S
C5310 H5296 0.960 . S
C5310 H5297 0.961 . S
C5310 H5298 0.959 . S
C5310 C5308 1.561 . S
C5311 C5308 1.526 . S
C5311 C5312 1.396 . S
C5311 C5316 1.390 . S
C5312 C5306 1.465 . S
C5312 C5311 1.396 . S
C5312 C5313 1.399 . S
C5313 H5299 0.929 . S
C5313 C5312 1.399 . S
C5313 C5314 1.385 . S
C5314 H5300 0.931 . S
C5314 C5313 1.385 . S
C5314 C5315 1.389 . S
C5315 C5314 1.389 . S
C5315 C5316 1.387 . S
C5316 H5301 0.930 . S
C5316 C5311 1.390 . S
C5316 C5315 1.387 . S
H5317 C5329 0.930 . S
H5318 C5331 0.930 . S
H5319 C5332 0.930 . S
H5320 C5336 0.959 . S
H5321 C5336 0.959 . S
H5322 C5336 0.961 . S
H5323 C5337 0.960 . S
H5324 C5337 0.961 . S
H5325 C5337 0.959 . S
H5326 C5340 0.929 . S
H5327 C5341 0.931 . S
H5328 C5343 0.930 . S
C5329 H5317 0.930 . S
C5329 C5330 1.399 . S
C5329 C5334 1.399 . S
C5330 C5329 1.399 . S
C5330 C5331 1.376 . S
C5331 H5318 0.930 . S
C5331 C5330 1.376 . S
C5331 C5332 1.388 . S
C5332 H5319 0.930 . S
C5332 C5331 1.388 . S
C5332 C5333 1.390 . S
C5333 C5332 1.390 . S
C5333 C5334 1.394 . S
C5333 C5339 1.465 . S
C5334 C5329 1.399 . S
C5334 C5333 1.394 . S
C5334 C5335 1.516 . S
C5335 C5334 1.516 . S
C5335 C5336 1.502 . S
C5335 C5337 1.561 . S
C5335 C5338 1.526 . S
C5336 H5320 0.959 . S
C5336 H5321 0.959 . S
C5336 H5322 0.961 . S
C5336 C5335 1.502 . S
C5337 H5323 0.960 . S
C5337 H5324 0.961 . S
C5337 H5325 0.959 . S
C5337 C5335 1.561 . S
C5338 C5335 1.526 . S
C5338 C5339 1.396 . S
C5338 C5343 1.390 . S
C5339 C5333 1.465 . S
C5339 C5338 1.396 . S
C5339 C5340 1.399 . S
C5340 H5326 0.929 . S
C5340 C5339 1.399 . S
C5340 C5341 1.385 . S
C5341 H5327 0.931 . S
C5341 C5340 1.385 . S
C5341 C5342 1.389 . S
C5342 C5341 1.389 . S
C5342 C5343 1.387 . S
C5343 H5328 0.930 . S
C5343 C5338 1.390 . S
C5343 C5342 1.387 . S
C2765 C665 2.169 . S
C2777 C2114 2.202 . S
C2792 C381 2.042 . S
C2804 C2171 2.060 . S
C2819 C460 1.124 . S
C2831 C2194 1.174 . S
C2858 C2248 1.365 . S
C2846 C585 1.423 . S
C2873 C108 1.318 . S
C2885 C2288 1.191 . S
C2912 C2319 0.304 . S
C2900 C196 0.306 . S
C2939 C2371 1.240 . S
C2927 C313 1.252 . S
C2954 C49 1.657 . S
C2966 C2394 1.634 . S
C2993 C2131 2.386 . S
C2981 C1457 2.397 . S
C3008 C1545 0.308 . S
C3020 C2168 0.486 . S
C3047 C2211 1.283 . S
C3035 C1721 1.335 . S
C3074 C2234 1.426 . S
C3062 C1113 1.392 . S
C3089 C1428 1.904 . S
C3101 C2274 1.915 . S
C3128 C2322 1.428 . S
C3116 C1516 1.428 . S
C3155 C2368 0.261 . S
C3143 C1692 0.373 . S
C3182 C2411 1.943 . S
C3170 C1085 2.007 . S
C3209 C2128 1.431 1_565 S
C3197 C988 1.492 . S
C3224 C1817 1.956 . S
C3236 C2451 1.948 . S
C3263 C2483 2.494 . S
C3251 C2081 2.554 . S
C3290 C2514 0.549 1_655 S
C3278 C1993 0.495 . S
C3305 C761 1.357 . S
C3317 C2408 1.233 . S
C3332 C821 1.509 . S
C3344 C2208 1.462 . S
C3359 C2053 2.299 . S
C3371 C2571 2.288 . S
C3398 C2594 0.439 . S
C3386 C1868 0.408 . S
C3425 C2123 2.196 . S
C3413 C372 2.181 . S
C3452 C2602 2.062 . S
C3440 C645 2.037 . S
C3467 C577 1.111 . S
C3479 C2203 1.158 . S
C3494 C497 1.407 . S
C3506 C2559 1.367 . S
C3533 C2279 1.229 . S
C3521 C57 1.309 . S
C3548 C293 0.281 . S
C3560 C2488 0.293 . S
C3587 C2362 1.294 1_556 S
C3575 C205 1.209 . S
C3614 C2643 1.663 . S
C3602 C145 1.664 . S
C3641 C2122 2.371 . S
C3629 C909 2.404 . S
C3668 C2599 0.394 . S
C3656 C1956 0.389 . S
C3683 C724 1.336 . S
C3695 C2202 1.303 . S
C3710 C1780 1.333 . S
C3722 C2563 1.416 . S
C3737 C937 1.867 . S
C3749 C2283 1.900 . S
C3776 C2491 1.390 . S
C3764 C1985 1.447 . S
C3791 C753 0.296 . S
C3803 C2359 0.485 . S
C3818 C1809 2.001 . S
C3830 C2642 1.937 . S
C3845 C1173 1.469 . S
C3857 C2119 1.483 . S
C3872 C1105 1.947 . S
C3884 C2442 1.962 . S
C3899 C1633 2.552 . S
C3911 C2314 2.521 . S
C3926 C1553 0.548 . S
C3938 C2523 0.553 . S
C3965 C2639 1.235 . S
C3953 C1729 1.344 . S
C3980 C1340 1.495 . S
C3992 C2199 1.485 . S
C4019 C2242 2.257 . S
C4007 C1604 2.296 . S
C4046 C2163 0.406 . S
C4034 C1252 0.349 . S
C4061 C489 2.173 . S
C4073 C2674 2.203 . S
C4100 C2611 2.059 . S
C4088 C557 2.069 . S
C4115 C636 1.122 . S
C4127 C2714 1.173 1_556 S
C4142 C409 1.397 . S
C4154 C2568 1.414 . S
C4169 C284 1.265 . S
C4181 C2448 1.272 . S
C4208 C2479 0.355 . S
C4196 C20 0.482 . S
C4235 C2531 1.288 . S
C4223 C137 1.214 . S
C4262 C2634 1.641 . S
C4250 C225 1.689 . S
C4289 C2691 2.387 . S
C4277 C1641 2.397 . S
C4304 C1193 0.373 . S
C4316 C2608 0.390 . S
C4343 C2731 1.329 . S
C4331 C1289 1.320 . S
C4370 C2554 1.426 . S
C4358 C1377 1.358 . S
C4397 C2434 1.912 . S
C4385 C1613 1.867 . S
C4412 C1164 1.446 . S
C4424 C2482 1.390 . S
C4451 C2528 0.237 . S
C4439 C1261 0.372 . S
C4466 C1349 1.978 . S
C4478 C2651 1.986 . S
C4505 C2688 1.409 . S
C4493 C1965 1.505 . S
C4520 C849 1.971 . S
C4532 C2291 1.941 . S
C4559 C2323 2.524 . S
C4547 C929 2.565 . S
C4586 C2354 0.559 . S
C4574 C1017 0.563 . S
C4613 C2648 1.296 . S
C4601 C1897 1.316 . S
C4628 C1789 1.511 . S
C4640 C2728 1.458 . S
C4667 C2251 2.285 . S
C4655 C900 2.291 . S
C4694 C2154 0.457 . S
C4682 C733 0.404 . S
C4709 C548 2.145 . S
C4721 C2683 2.177 . S
C4748 C2162 2.066 . S
C4736 C469 2.042 . S
C4763 C401 1.176 . S
C4775 C2723 1.185 . S
C4790 C673 1.405 . S
C4802 C2239 1.413 . S
C4817 C233 1.310 . S
C4829 C2439 1.228 . S
C4856 C2328 0.361 . S
C4844 C117 0.446 . S
C4871 C29 1.188 . S
C4883 C2522 1.290 . S
C4898 C321 1.653 . S
C4910 C2403 1.655 . S
C4937 C2682 2.381 . S
C4925 C2044 2.386 . S
C4952 C997 0.327 . S
C4964 C2159 0.359 . S
C4991 C2722 1.298 . S
C4979 C1877 1.336 . S
C5006 C812 1.405 . S
C5018 C2243 1.420 . S
C5033 C2073 1.876 . S
C5045 C2443 1.905 . S
C5072 C2331 1.427 . S
C5060 C1025 1.436 . S
C5087 C1905 0.324 . S
C5099 C2519 0.454 . S
C5126 C2402 1.937 . S
C5114 C841 2.005 . S
C5153 C2679 1.406 . S
C5141 C1525 1.490 . S
C5180 C2282 1.945 1_655 S
C5168 C1369 1.945 . S
C5195 C1465 2.554 . S
C5207 C2474 2.490 . S
C5234 C2363 0.551 . S
C5222 C1201 0.524 . S
C5249 C1281 1.315 . S
C5261 C2399 1.321 . S
C5276 C1076 1.508 . S
C5288 C2719 1.463 . S
C5315 C2562 2.276 . S
C5303 C1437 2.287 . S
C5342 C2603 0.360 . S
C5330 C1701 0.347 . S
