# Generated by pormake.
# Topology pyr, (3,6)-cn, num edge types: 1
# Building blocks:
#     Node 0, Type 0, BuildingBlock: WUSLED_clean_sbu_0, # of connection points: 3
#     Node 1, Type 0, BuildingBlock: WUSLED_clean_sbu_0, # of connection points: 3
#     Node 2, Type 0, BuildingBlock: WUSLED_clean_sbu_0, # of connection points: 3
#     Node 3, Type 0, BuildingBlock: WUSLED_clean_sbu_0, # of connection points: 3
#     Node 4, Type 0, BuildingBlock: WUSLED_clean_sbu_0, # of connection points: 3
#     Node 5, Type 0, BuildingBlock: WUSLED_clean_sbu_0, # of connection points: 3
#     Node 6, Type 0, BuildingBlock: WUSLED_clean_sbu_0, # of connection points: 3
#     Node 7, Type 0, BuildingBlock: WUSLED_clean_sbu_0, # of connection points: 3
#     Node 8, Type 1, BuildingBlock: BETDEL_clean_sbu_0, # of connection points: 6
#     Node 9, Type 1, BuildingBlock: BETDEL_clean_sbu_0, # of connection points: 6
#     Node 10, Type 1, BuildingBlock: BETDEL_clean_sbu_0, # of connection points: 6
#     Node 11, Type 1, BuildingBlock: BETDEL_clean_sbu_0, # of connection points: 6
#     Edge 12, Type (0, 1), BuildingBlock: EZIPEK_clean_linker_0, # of connection points: 2
#     Edge 13, Type (0, 1), BuildingBlock: EZIPEK_clean_linker_0, # of connection points: 2
#     Edge 14, Type (0, 1), BuildingBlock: EZIPEK_clean_linker_0, # of connection points: 2
#     Edge 15, Type (0, 1), BuildingBlock: EZIPEK_clean_linker_0, # of connection points: 2
#     Edge 16, Type (0, 1), BuildingBlock: EZIPEK_clean_linker_0, # of connection points: 2
#     Edge 17, Type (0, 1), BuildingBlock: EZIPEK_clean_linker_0, # of connection points: 2
#     Edge 18, Type (0, 1), BuildingBlock: EZIPEK_clean_linker_0, # of connection points: 2
#     Edge 19, Type (0, 1), BuildingBlock: EZIPEK_clean_linker_0, # of connection points: 2
#     Edge 20, Type (0, 1), BuildingBlock: EZIPEK_clean_linker_0, # of connection points: 2
#     Edge 21, Type (0, 1), BuildingBlock: EZIPEK_clean_linker_0, # of connection points: 2
#     Edge 22, Type (0, 1), BuildingBlock: EZIPEK_clean_linker_0, # of connection points: 2
#     Edge 23, Type (0, 1), BuildingBlock: EZIPEK_clean_linker_0, # of connection points: 2
#     Edge 24, Type (0, 1), BuildingBlock: EZIPEK_clean_linker_0, # of connection points: 2
#     Edge 25, Type (0, 1), BuildingBlock: EZIPEK_clean_linker_0, # of connection points: 2
#     Edge 26, Type (0, 1), BuildingBlock: EZIPEK_clean_linker_0, # of connection points: 2
#     Edge 27, Type (0, 1), BuildingBlock: EZIPEK_clean_linker_0, # of connection points: 2
#     Edge 28, Type (0, 1), BuildingBlock: EZIPEK_clean_linker_0, # of connection points: 2
#     Edge 29, Type (0, 1), BuildingBlock: EZIPEK_clean_linker_0, # of connection points: 2
#     Edge 30, Type (0, 1), BuildingBlock: EZIPEK_clean_linker_0, # of connection points: 2
#     Edge 31, Type (0, 1), BuildingBlock: EZIPEK_clean_linker_0, # of connection points: 2
#     Edge 32, Type (0, 1), BuildingBlock: EZIPEK_clean_linker_0, # of connection points: 2
#     Edge 33, Type (0, 1), BuildingBlock: EZIPEK_clean_linker_0, # of connection points: 2
#     Edge 34, Type (0, 1), BuildingBlock: EZIPEK_clean_linker_0, # of connection points: 2
#     Edge 35, Type (0, 1), BuildingBlock: EZIPEK_clean_linker_0, # of connection points: 2
# Relax obj value: 0.029
# Max RMSD: 0.093
# Mean RMSD: 0.039
data_MOF--net-pyr--node1-WUSLED_clean_sbu_0--node2-BETDEL_clean_sbu_0--edge1-EZIPEK_clean_linker_0
_symmetry_space_group_name_H-M    P1
_symmetry_Int_Tables_number       1
_symmetry_cell_setting            triclinic
loop_
_symmetry_equiv_pos_as_xyz
'x, y, z'
_cell_length_a     37.170339
_cell_length_b     38.689558
_cell_length_c     35.518217
_cell_angle_alpha  90.341831
_cell_angle_beta   88.478187
_cell_angle_gamma 96.403607
loop_
_atom_site_label
_atom_site_type_symbol
_atom_site_fract_x
_atom_site_fract_y
_atom_site_fract_z
_atom_type_partial_charge
C0 C 0.22959 0.30859 0.12395 0.0
C1 C 0.19593 0.3094 0.14217 0.0
C2 C 0.18949 0.36616 0.11473 0.0
C3 C 0.17586 0.33712 0.1369 0.0
C4 C 0.22194 0.36309 0.0935 0.0
C5 C 0.24217 0.3351 0.09885 0.0
U6 U 0.23432 0.23166 0.18268 0.0
O7 O 0.27785 0.20982 0.21216 0.0
O8 O 0.24499 0.17781 0.17161 0.0
C9 C 0.27279 0.18005 0.19394 0.0
C10 C 0.2506 0.2797 0.13183 0.0
C11 C 0.30524 0.16676 0.17795 0.0
C12 C 0.35975 0.17338 0.13836 0.0
C13 C 0.33023 0.18758 0.15513 0.0
C14 C 0.33954 0.11773 0.16744 0.0
C15 C 0.36417 0.13822 0.14402 0.0
C16 C 0.31026 0.13195 0.18434 0.0
C17 C 0.15749 0.21228 0.25318 0.0
C18 C 0.15263 0.15827 0.28813 0.0
C19 C 0.1126 0.20205 0.30372 0.0
C20 C 0.12911 0.22339 0.27517 0.0
C21 C 0.12438 0.16946 0.31029 0.0
C22 C 0.1692 0.17964 0.25974 0.0
C23 C 0.17516 0.23476 0.22365 0.0
O24 O 0.26496 0.2812 0.16533 0.0
O25 O 0.23397 0.24884 0.1238 0.0
O26 O 0.17537 0.22047 0.19002 0.0
O27 O 0.2066 0.25133 0.23254 0.0
H28 H 0.18498 0.28836 0.16056 0.0
H29 H 0.14925 0.33505 0.15022 0.0
H30 H 0.23205 0.38127 0.07193 0.0
H31 H 0.26745 0.33406 0.08321 0.0
H32 H 0.3786 0.18946 0.12029 0.0
H33 H 0.32655 0.21449 0.14982 0.0
H34 H 0.34262 0.09056 0.17199 0.0
H35 H 0.29109 0.11558 0.20182 0.0
H36 H 0.16211 0.13327 0.29321 0.0
H37 H 0.09095 0.211 0.32092 0.0
H38 H 0.11994 0.24859 0.27042 0.0
H39 H 0.19126 0.17083 0.24304 0.0
C40 C 0.24984 0.87806 0.601 0.0
C41 C 0.25178 0.91307 0.61233 0.0
C42 C 0.19547 0.9192 0.58141 0.0
C43 C 0.22492 0.93352 0.6024 0.0
C44 C 0.19322 0.88409 0.57039 0.0
C45 C 0.22036 0.86364 0.58007 0.0
U46 U 0.32036 0.86345 0.67021 0.0
O47 O 0.37642 0.85093 0.66425 0.0
O48 O 0.33645 0.81666 0.6972 0.0
C49 C 0.36961 0.82151 0.68282 0.0
C50 C 0.27777 0.85649 0.61257 0.0
C51 C 0.3846 0.7907 0.66642 0.0
C52 C 0.42811 0.76565 0.62496 0.0
C53 C 0.41165 0.79442 0.63777 0.0
C54 C 0.39086 0.72876 0.66899 0.0
C55 C 0.41795 0.73272 0.64064 0.0
C56 C 0.37445 0.75755 0.68192 0.0
C57 C 0.33346 0.9263 0.75116 0.0
C58 C 0.38245 0.92096 0.79373 0.0
C59 C 0.34124 0.96453 0.80534 0.0
C60 C 0.3223 0.95353 0.77315 0.0
C61 C 0.37146 0.94835 0.81561 0.0
C62 C 0.36349 0.90992 0.76168 0.0
C63 C 0.31398 0.91497 0.71721 0.0
O64 O 0.31117 0.87183 0.61027 0.0
O65 O 0.27037 0.83952 0.6443 0.0
O66 O 0.29417 0.88474 0.72008 0.0
O67 O 0.33355 0.91834 0.68581 0.0
H68 H 0.27404 0.92457 0.629 0.0
H69 H 0.22699 0.96052 0.61122 0.0
H70 H 0.17055 0.87266 0.55426 0.0
H71 H 0.21825 0.8366 0.57145 0.0
H72 H 0.44901 0.76908 0.60304 0.0
H73 H 0.4206 0.81963 0.62564 0.0
H74 H 0.38275 0.70346 0.68134 0.0
H75 H 0.35423 0.75394 0.7045 0.0
H76 H 0.4058 0.90834 0.80137 0.0
H77 H 0.33262 0.9858 0.82201 0.0
H78 H 0.29913 0.96634 0.76533 0.0
H79 H 0.37234 0.88878 0.74494 0.0
C80 C 0.62081 0.38879 0.78307 0.0
C81 C 0.63771 0.42309 0.78048 0.0
C82 C 0.60089 0.43384 0.72682 0.0
C83 C 0.62773 0.44551 0.75258 0.0
C84 C 0.58398 0.39962 0.72966 0.0
C85 C 0.59386 0.37732 0.75752 0.0
U86 U 0.68221 0.36094 0.86084 0.0
O87 O 0.66765 0.33365 0.91415 0.0
O88 O 0.70013 0.30941 0.87107 0.0
C89 C 0.68342 0.30612 0.90414 0.0
C90 C 0.63088 0.36434 0.81176 0.0
C91 C 0.66313 0.27199 0.91266 0.0
C92 C 0.60721 0.23277 0.91627 0.0
C93 C 0.62622 0.26451 0.90484 0.0
C94 C 0.66195 0.21541 0.94251 0.0
C95 C 0.62489 0.20824 0.93563 0.0
C96 C 0.6809 0.24703 0.93109 0.0
C97 C 0.76626 0.41952 0.89093 0.0
C98 C 0.8084 0.40098 0.93606 0.0
C99 C 0.81777 0.45925 0.91027 0.0
C100 C 0.78666 0.45221 0.889 0.0
C101 C 0.82894 0.4337 0.93385 0.0
C102 C 0.77716 0.39395 0.91477 0.0
C103 C 0.73405 0.41247 0.86761 0.0
O104 O 0.66059 0.34979 0.80436 0.0
O105 O 0.62798 0.37424 0.84709 0.0
O106 O 0.70268 0.41135 0.88578 0.0
O107 O 0.73526 0.38737 0.84267 0.0
H108 H 0.65863 0.43242 0.7999 0.0
H109 H 0.64109 0.47182 0.75086 0.0
H110 H 0.56325 0.39011 0.7101 0.0
H111 H 0.58052 0.35098 0.75903 0.0
H112 H 0.57856 0.22767 0.91086 0.0
H113 H 0.61201 0.28344 0.89067 0.0
H114 H 0.67599 0.19685 0.9575 0.0
H115 H 0.70934 0.25236 0.93744 0.0
H116 H 0.81674 0.3809 0.95393 0.0
H117 H 0.83339 0.48457 0.90807 0.0
H118 H 0.77868 0.47223 0.87079 0.0
H119 H 0.76169 0.36854 0.91662 0.0
C120 C 0.78878 0.62893 0.39967 0.0
C121 C 0.76702 0.65416 0.41297 0.0
C122 C 0.72466 0.60901 0.44227 0.0
C123 C 0.73512 0.64422 0.43405 0.0
C124 C 0.74725 0.58405 0.43043 0.0
C125 C 0.77898 0.59394 0.40926 0.0
U126 U 0.87265 0.68856 0.36293 0.0
O127 O 0.92477 0.67449 0.34018 0.0
O128 O 0.88969 0.70131 0.3043 0.0
C129 C 0.91936 0.68591 0.30623 0.0
C130 C 0.82014 0.63788 0.37364 0.0
C131 C 0.9265 0.66241 0.27469 0.0
C132 C 0.91556 0.60709 0.24154 0.0
C133 C 0.90738 0.62913 0.27136 0.0
C134 C 0.96156 0.65153 0.21787 0.0
C135 C 0.94287 0.61811 0.21469 0.0
C136 C 0.95342 0.67348 0.24761 0.0
C137 C 0.90084 0.77546 0.41497 0.0
C138 C 0.95949 0.81064 0.4145 0.0
C139 C 0.90631 0.83453 0.43975 0.0
C140 C 0.8851 0.80338 0.43149 0.0
C141 C 0.94368 0.83828 0.43173 0.0
C142 C 0.93819 0.7794 0.40612 0.0
C143 C 0.87787 0.74227 0.40904 0.0
O144 O 0.81799 0.66408 0.35071 0.0
O145 O 0.85242 0.63768 0.38782 0.0
O146 O 0.89275 0.71362 0.41521 0.0
O147 O 0.85771 0.74035 0.37909 0.0
H148 H 0.77405 0.68135 0.4061 0.0
H149 H 0.71796 0.66383 0.44279 0.0
H150 H 0.73955 0.55675 0.43633 0.0
H151 H 0.79531 0.57406 0.3993 0.0
H152 H 0.90098 0.58131 0.23965 0.0
H153 H 0.88648 0.62014 0.29197 0.0
H154 H 0.9828 0.66043 0.19757 0.0
H155 H 0.96844 0.69905 0.24968 0.0
H156 H 0.9883 0.81314 0.40802 0.0
H157 H 0.89365 0.85557 0.45298 0.0
H158 H 0.8564 0.80089 0.43858 0.0
H159 H 0.95092 0.75823 0.39329 0.0
C160 C 0.82015 0.7597 0.94481 0.0
C161 C 0.84354 0.7456 0.91865 0.0
C162 C 0.86515 0.71063 0.96767 0.0
C163 C 0.86574 0.72109 0.92998 0.0
C164 C 0.8415 0.72426 0.99386 0.0
C165 C 0.81905 0.74877 0.98244 0.0
U166 U 0.81551 0.83265 0.87861 0.0
O167 O 0.77128 0.85217 0.84804 0.0
O168 O 0.80395 0.88668 0.88647 0.0
C169 C 0.77538 0.8825 0.8652 0.0
C170 C 0.80002 0.78823 0.93333 0.0
C171 C 0.74228 0.89357 0.88233 0.0
C172 C 0.69691 0.89045 0.93279 0.0
C173 C 0.72847 0.87967 0.91663 0.0
C174 C 0.6934 0.92986 0.88101 0.0
C175 C 0.67695 0.91407 0.91407 0.0
C176 C 0.72503 0.91917 0.86498 0.0
C177 C 0.89158 0.84808 0.80618 0.0
C178 C 0.89013 0.89313 0.75927 0.0
C179 C 0.94522 0.8661 0.76784 0.0
C180 C 0.9278 0.84503 0.79613 0.0
C181 C 0.92647 0.89031 0.74944 0.0
C182 C 0.87278 0.87218 0.78762 0.0
C183 C 0.87415 0.82754 0.83739 0.0
O184 O 0.81731 0.81933 0.93859 0.0
O185 O 0.78532 0.78437 0.90005 0.0
O186 O 0.84265 0.81017 0.83007 0.0
O187 O 0.87433 0.84407 0.86979 0.0
H188 H 0.84526 0.75415 0.8896 0.0
H189 H 0.88392 0.71076 0.90954 0.0
H190 H 0.84086 0.7163 1.02308 0.0
H191 H 0.80152 0.75977 1.00304 0.0
H192 H 0.68963 0.88065 0.96056 0.0
H193 H 0.7425 0.8609 0.93132 0.0
H194 H 0.68291 0.95139 0.86751 0.0
H195 H 0.73633 0.93134 0.83924 0.0
H196 H 0.8754 0.91173 0.74522 0.0
H197 H 0.9733 0.86373 0.76044 0.0
H198 H 0.94266 0.8267 0.81045 0.0
H199 H 0.84487 0.87503 0.79538 0.0
C200 C 0.66657 0.17817 0.31419 0.0
C201 C 0.69273 0.16619 0.28954 0.0
C202 C 0.64508 0.13744 0.25127 0.0
C203 C 0.68201 0.14614 0.25807 0.0
C204 C 0.61905 0.14885 0.27636 0.0
C205 C 0.62974 0.16914 0.30755 0.0
U206 U 0.72815 0.20278 0.39648 0.0
O207 O 0.74818 0.2544 0.41858 0.0
O208 O 0.71391 0.21742 0.45443 0.0
C209 C 0.72845 0.24975 0.44976 0.0
C210 C 0.67693 0.19995 0.347 0.0
C211 C 0.70382 0.27635 0.45698 0.0
C212 C 0.64643 0.29882 0.44641 0.0
C213 C 0.66921 0.27271 0.44144 0.0
C214 C 0.69268 0.3327 0.4822 0.0
C215 C 0.65813 0.32907 0.46658 0.0
C216 C 0.71541 0.30644 0.47743 0.0
C217 C 0.80789 0.14916 0.41234 0.0
C218 C 0.8338 0.12904 0.46925 0.0
C219 C 0.86811 0.13025 0.41017 0.0
C220 C 0.83971 0.14361 0.39214 0.0
C221 C 0.86485 0.12198 0.4486 0.0
C222 C 0.80553 0.14267 0.4513 0.0
C223 C 0.77654 0.15848 0.39162 0.0
O224 O 0.67284 0.18404 0.37965 0.0
O225 O 0.70741 0.22062 0.34352 0.0
O226 O 0.74462 0.15139 0.40839 0.0
O227 O 0.78059 0.18867 0.37431 0.0
H228 H 0.72135 0.1726 0.2944 0.0
H229 H 0.70241 0.13767 0.23885 0.0
H230 H 0.59043 0.1424 0.27146 0.0
H231 H 0.60923 0.17799 0.32639 0.0
H232 H 0.61984 0.29562 0.43425 0.0
H233 H 0.65997 0.24982 0.42514 0.0
H234 H 0.70204 0.35593 0.4979 0.0
H235 H 0.74214 0.30978 0.48928 0.0
H236 H 0.8309 0.12274 0.49894 0.0
H237 H 0.8919 0.12487 0.39385 0.0
H238 H 0.84205 0.14838 0.36209 0.0
H239 H 0.78137 0.14689 0.46763 0.0
C240 C 0.27726 0.63906 0.17012 0.0
C241 C 0.27284 0.65864 0.13768 0.0
C242 C 0.21511 0.62438 0.12665 0.0
C243 C 0.24192 0.65129 0.11601 0.0
C244 C 0.21941 0.60518 0.15929 0.0
C245 C 0.25029 0.61245 0.18084 0.0
U246 U 0.36421 0.69506 0.19727 0.0
O247 O 0.38676 0.70669 0.2532 0.0
O248 O 0.41744 0.67919 0.21127 0.0
C249 C 0.41483 0.68942 0.24653 0.0
C250 C 0.30983 0.64574 0.19291 0.0
C251 C 0.42334 0.66436 0.27582 0.0
C252 C 0.41424 0.63944 0.33888 0.0
C253 C 0.40352 0.66059 0.31023 0.0
C254 C 0.46407 0.62447 0.29909 0.0
C255 C 0.44491 0.62162 0.33375 0.0
C256 C 0.4535 0.64573 0.27053 0.0
C257 C 0.3868 0.78201 0.14147 0.0
C258 C 0.44345 0.82002 0.13578 0.0
C259 C 0.38846 0.83854 0.11135 0.0
C260 C 0.36919 0.80727 0.12336 0.0
C261 C 0.42575 0.84511 0.11728 0.0
C262 C 0.42409 0.78862 0.14783 0.0
C263 C 0.3656 0.74871 0.15177 0.0
O264 O 0.34089 0.64471 0.17462 0.0
O265 O 0.31007 0.67197 0.2166 0.0
O266 O 0.34911 0.7473 0.18501 0.0
O267 O 0.38005 0.72012 0.14296 0.0
H268 H 0.29336 0.67938 0.12906 0.0
H269 H 0.23895 0.66638 0.09092 0.0
H270 H 0.19896 0.58435 0.16788 0.0
H271 H 0.25322 0.59714 0.2058 0.0
H272 H 0.39922 0.63777 0.36549 0.0
H273 H 0.38026 0.67463 0.31547 0.0
H274 H 0.48797 0.61114 0.29464 0.0
H275 H 0.46955 0.64831 0.24458 0.0
H276 H 0.47224 0.82469 0.14061 0.0
H277 H 0.37437 0.85754 0.09715 0.0
H278 H 0.34047 0.80261 0.11808 0.0
H279 H 0.43821 0.76946 0.16171 0.0
C280 C 0.1248 0.28509 0.68877 0.0
C281 C 0.14955 0.26831 0.66659 0.0
C282 C 0.10245 0.22122 0.65285 0.0
C283 C 0.13845 0.23656 0.64881 0.0
C284 C 0.07777 0.23807 0.67492 0.0
C285 C 0.08888 0.2697 0.69275 0.0
U286 U 0.18581 0.3718 0.70203 0.0
O287 O 0.17085 0.42317 0.71891 0.0
O288 O 0.20619 0.39647 0.75471 0.0
C289 C 0.18782 0.42332 0.75094 0.0
C290 C 0.13573 0.31823 0.70849 0.0
C291 C 0.16805 0.43432 0.7849 0.0
C292 C 0.11212 0.44346 0.819 0.0
C293 C 0.13001 0.4299 0.78792 0.0
C294 C 0.16994 0.46502 0.84503 0.0
C295 C 0.13195 0.46155 0.84752 0.0
C296 C 0.18779 0.45161 0.81394 0.0
C297 C 0.26589 0.3973 0.63222 0.0
C298 C 0.31919 0.43864 0.64249 0.0
C299 C 0.30701 0.41583 0.57989 0.0
C300 C 0.27557 0.39628 0.5938 0.0
C301 C 0.32936 0.43671 0.6042 0.0
C302 C 0.2876 0.41909 0.65643 0.0
C303 C 0.2342 0.37408 0.6464 0.0
O304 O 0.16672 0.32043 0.72582 0.0
O305 O 0.13092 0.3468 0.69035 0.0
O306 O 0.20245 0.38559 0.64342 0.0
O307 O 0.23793 0.35853 0.67866 0.0
H308 H 0.17738 0.27975 0.66304 0.0
H309 H 0.15781 0.22406 0.63167 0.0
H310 H 0.04987 0.22676 0.6782 0.0
H311 H 0.06937 0.28218 0.70972 0.0
H312 H 0.08279 0.44041 0.82049 0.0
H313 H 0.11412 0.41661 0.76596 0.0
H314 H 0.18571 0.47875 0.8668 0.0
H315 H 0.21711 0.45538 0.81219 0.0
H316 H 0.33618 0.45454 0.66169 0.0
H317 H 0.31448 0.41391 0.55032 0.0
H318 H 0.25922 0.37967 0.57466 0.0
H319 H 0.2806 0.42038 0.68616 0.0
Dy320 Dy 0.04989 0.04713 0.49833 0.0
C321 C 0.99088 0.98051 0.63167 0.0
C322 C 0.06931 0.08006 0.43241 0.0
Dy323 Dy 1.01141 1.01462 0.56659 0.0
O324 O 0.09152 0.06809 0.45524 0.0
O325 O 0.03618 0.07343 0.44505 0.0
O326 O 0.10341 0.04121 0.52357 0.0
O327 O 0.05947 1.00388 0.53465 0.0
C328 C 0.09197 1.01327 0.54235 0.0
C329 C 0.9683 0.04502 0.52151 0.0
O330 O 0.0399 0.06403 0.59199 0.0
O331 O 0.05763 0.09303 0.53648 0.0
O332 O 0.97186 1.00148 0.61465 0.0
O333 O 1.02153 0.9789 0.61385 0.0
O334 O 0.95781 1.0172 0.54083 0.0
O335 O 1.0004 0.05676 0.52936 0.0
O336 O 0.02578 0.99699 0.4719 0.0
O337 O 1.00272 0.96952 0.52661 0.0
C338 C 0.05409 0.09243 0.57359 0.0
C339 C 1.00894 0.96948 0.48963 0.0
Dy340 Dy 0.54968 0.03508 0.06189 0.0
C341 C 0.45453 0.99707 0.94403 0.0
C342 C 0.59063 0.0631 0.11952 0.0
Dy343 Dy 0.49878 1.02259 0.99991 0.0
O344 O 0.56659 0.03629 0.12225 0.0
O345 O 0.59294 0.07434 0.08511 0.0
O346 O 0.54246 0.97864 0.07669 0.0
O347 O 0.49803 1.00161 0.05672 0.0
C348 C 0.50904 0.97329 0.06658 0.0
C349 C 0.53991 0.08445 0.99489 0.0
O350 O 0.46068 0.04123 0.04275 0.0
O351 O 0.507 0.07052 0.0758 0.0
O352 O 0.46586 0.02959 0.94907 0.0
O353 O 0.46704 0.97825 0.96968 0.0
O354 O 0.50648 0.07906 0.98505 0.0
O355 O 0.55064 0.05597 1.0046 0.0
O356 O 0.58745 1.01017 1.02303 0.0
O357 O 0.54249 0.99016 0.98162 0.0
C358 C 0.47229 0.06475 0.06799 0.0
C359 C 0.57594 0.99107 0.99378 0.0
Dy360 Dy 0.53431 0.49641 0.51093 0.0
C361 C 0.48727 0.61476 0.58583 0.0
C362 C 0.56739 0.44022 0.48783 0.0
Dy363 Dy 0.51884 0.56368 0.5491 0.0
O364 O 0.53875 0.43898 0.50968 0.0
O365 O 0.57704 0.47202 0.47713 0.0
O366 O 0.47499 0.48022 0.50523 0.0
O367 O 0.49288 0.51027 0.55149 0.0
C368 C 0.46501 0.4967 0.53504 0.0
C369 C 0.58036 0.56917 0.50582 0.0
O370 O 0.53925 0.53812 0.59975 0.0
O371 O 0.55551 0.4888 0.56857 0.0
O372 O 0.52187 0.61189 0.58529 0.0
O373 O 0.4701 0.58925 0.56735 0.0
O374 O 0.56084 0.59448 0.51224 0.0
O375 O 0.56813 0.54379 0.52628 0.0
O376 O 0.51868 0.52592 0.4605 0.0
O377 O 0.4906 0.56716 0.49435 0.0
C378 C 0.55326 0.508 0.59939 0.0
C379 C 0.49862 0.55213 0.46215 0.0
Dy380 Dy 0.03442 0.49559 0.05129 0.0
C381 C 0.96571 0.61321 1.00332 0.0
C382 C 0.07832 0.44914 0.07548 0.0
Dy383 Dy 1.00866 0.56199 1.01251 0.0
O384 O 0.06578 0.47308 0.09608 0.0
O385 O 0.06532 0.44923 0.04183 0.0
O386 O 0.99098 0.49789 0.09612 0.0
O387 O 1.0139 0.54367 0.06995 0.0
C388 C 0.98932 0.5312 0.09284 0.0
C389 C 0.04741 0.5261 0.96294 0.0
O390 O 0.05794 0.58734 0.04075 0.0
O391 O 0.08279 0.53599 0.05401 0.0
O392 O 0.99891 0.61436 0.99019 0.0
O393 O 0.95647 0.58462 1.02178 0.0
O394 O 0.0337 0.55453 0.95428 0.0
O395 O 0.0382 0.5194 0.99671 0.0
O396 O 0.98535 0.46975 1.02271 0.0
O397 O 0.9623 0.52062 1.00367 0.0
C398 C 0.0847 0.57045 0.05266 0.0
C399 C 0.96005 0.48636 1.00727 0.0
C400 C 0.08123 0.11974 0.33458 0.0
C401 C 0.10841 0.14758 0.34172 0.0
C402 C 0.10469 0.13437 0.40892 0.0
C403 C 0.08095 0.10398 0.40122 0.0
N404 N 0.04866 0.06554 0.35683 0.0
N405 N 0.14976 0.17905 0.38438 0.0
C406 C 0.06946 0.09615 0.3641 0.0
C407 C 0.12119 0.15428 0.37855 0.0
N408 N 0.06639 0.11625 0.29977 0.0
N409 N 0.11015 0.14512 0.44531 0.0
H410 H 0.16221 0.19477 0.36294 0.0
H411 H 0.16299 0.18214 0.40987 0.0
H412 H 0.09737 0.13206 0.46846 0.0
H413 H 0.12425 0.16894 0.45243 0.0
H414 H 0.0439 0.09875 0.2938 0.0
H415 H 0.07485 0.1328 0.27738 0.0
H416 H 0.0427 0.05654 0.32978 0.0
H417 H 0.03941 0.04775 0.37782 0.0
C418 C 0.42498 0.98323 0.84337 0.0
C419 C 0.39249 0.96074 0.84876 0.0
C420 C 0.39968 0.96315 0.91711 0.0
C421 C 0.43356 0.98347 0.91145 0.0
N422 N 0.48224 1.00659 0.86923 0.0
N423 N 0.35124 0.92478 0.88954 0.0
C424 C 0.44727 0.99187 0.87458 0.0
C425 C 0.38049 0.94934 0.88532 0.0
N426 N 0.43415 0.99692 0.80856 0.0
N427 N 0.38511 0.95834 0.95271 0.0
H428 H 0.3361 0.91461 0.8669 0.0
H429 H 0.3436 0.91256 0.915 0.0
H430 H 0.39827 0.96818 0.9767 0.0
H431 H 0.35878 0.94705 0.95833 0.0
H432 H 0.45533 1.01651 0.80381 0.0
H433 H 0.41873 0.99081 0.78482 0.0
H434 H 0.49489 1.00995 0.84279 0.0
H435 H 0.49996 1.01227 0.89126 0.0
C436 C 0.61379 0.46436 0.66441 0.0
C437 C 0.59046 0.45701 0.69636 0.0
C438 C 0.54289 0.48531 0.66583 0.0
C439 C 0.56687 0.49413 0.63469 0.0
N440 N 0.62759 0.49926 0.60826 0.0
N441 N 0.53608 0.46713 0.73116 0.0
C442 C 0.60312 0.48588 0.63525 0.0
C443 C 0.55604 0.46968 0.69822 0.0
N444 N 0.64539 0.44947 0.661 0.0
N445 N 0.50704 0.48986 0.6637 0.0
H446 H 0.54492 0.45587 0.75537 0.0
H447 H 0.51249 0.47899 0.7355 0.0
H448 H 0.49613 0.50085 0.64047 0.0
H449 H 0.48751 0.4801 0.68361 0.0
H450 H 0.66136 0.4505 0.63641 0.0
H451 H 0.65428 0.43364 0.68168 0.0
H452 H 0.65521 0.49701 0.60913 0.0
H453 H 0.62084 0.51566 0.58694 0.0
C454 C 0.98588 0.57833 0.18733 0.0
C455 C 0.95345 0.59419 0.18422 0.0
C456 C 0.94214 0.56481 0.12337 0.0
C457 C 0.9764 0.55208 0.12468 0.0
N458 N 0.03294 0.54938 0.15595 0.0
N459 N 0.90256 0.60609 0.14764 0.0
C460 C 0.99884 0.55955 0.15616 0.0
C461 C 0.93196 0.58829 0.15182 0.0
N462 N 1.00372 0.58034 0.2206 0.0
N463 N 0.91901 0.55384 0.09536 0.0
H464 H 0.89408 0.62313 0.16806 0.0
H465 H 0.88816 0.606 0.12289 0.0
H466 H 0.92579 0.53687 0.07405 0.0
H467 H 0.89222 0.55927 0.09481 0.0
H468 H 0.02522 0.56621 0.22618 0.0
H469 H 0.99509 0.59386 0.24405 0.0
H470 H 0.05221 0.55778 0.17572 0.0
H471 H 0.04317 0.53458 0.1344 0.0
C472 C 0.3915 0.11542 0.08493 0.0
C473 C 0.39357 0.12203 0.12413 0.0
C474 C 0.44635 0.08968 0.12725 0.0
C475 C 0.44606 0.08545 0.08742 0.0
N476 N 0.42415 0.10306 0.02772 0.0
N477 N 0.42729 0.12243 0.18116 0.0
C478 C 0.4203 0.10084 0.06603 0.0
C479 C 0.42243 0.11138 0.14484 0.0
N480 N 0.36148 0.12187 0.06588 0.0
N481 N 0.46787 0.07161 0.14864 0.0
H482 H 0.41026 0.13844 0.19487 0.0
H483 H 0.45009 0.11852 0.19635 0.0
H484 H 0.48507 0.0545 0.13743 0.0
H485 H 0.4661 0.07095 0.17795 0.0
H486 H 0.35691 0.1138 0.0382 0.0
H487 H 0.33958 0.13245 0.07861 0.0
H488 H 0.40816 0.11716 1.01128 0.0
H489 H 0.44577 0.09427 1.01269 0.0
C490 C 0.16475 0.95204 0.53308 0.0
C491 C 0.16713 0.94135 0.57098 0.0
C492 C 0.12072 0.97865 0.59047 0.0
C493 C 0.11691 0.98771 0.5523 0.0
N494 N 0.12855 0.97628 0.48642 0.0
N495 N 0.14247 0.93857 0.63452 0.0
C496 C 0.1369 0.97237 0.52331 0.0
C497 C 0.14362 0.95292 0.59937 0.0
N498 N 0.18998 0.94404 0.50668 0.0
N499 N 0.10329 0.99534 0.61829 0.0
H500 H 0.1586 0.9194 0.64189 0.0
H501 H 0.12332 0.94331 0.6553 0.0
H502 H 0.08566 1.01367 0.61265 0.0
H503 H 0.10816 0.99284 0.64683 0.0
H504 H 0.19197 0.9545 0.47965 0.0
H505 H 0.211 0.92935 0.51266 0.0
H506 H 0.13962 0.96262 0.46443 0.0
H507 H 0.10795 0.99052 0.47799 0.0
C508 C 0.86234 0.44973 0.99367 0.0
C509 C 0.86322 0.4412 0.95471 0.0
C510 C 0.92874 0.45829 0.95146 0.0
C511 C 0.92808 0.46621 0.99053 0.0
N512 N 0.89635 0.46311 0.05051 0.0
N513 N 0.89792 0.42888 0.89897 0.0
C514 C 0.89549 0.45968 1.01222 0.0
C515 C 0.89673 0.44269 0.93444 0.0
N516 N 0.82978 0.44995 1.01243 0.0
N517 N 0.95949 0.46729 0.93016 0.0
H518 H 0.87491 0.41726 0.88569 0.0
H519 H 0.92195 0.42599 0.88415 0.0
H520 H 0.98353 0.4786 0.94158 0.0
H521 H 0.96048 0.46598 0.90087 0.0
H522 H 0.82702 0.4597 0.0396 0.0
H523 H 0.80507 0.44237 0.9999 0.0
H524 H 0.87422 0.45586 0.06843 0.0
H525 H 0.92027 0.47045 0.06465 0.0
C526 C 0.68146 0.60244 0.49881 0.0
C527 C 0.6883 0.5977 0.45969 0.0
C528 C 0.62744 0.56691 0.45372 0.0
C529 C 0.61872 0.57556 0.49149 0.0
N530 N 0.63698 0.60278 0.55023 0.0
N531 N 0.66566 0.58072 0.39848 0.0
C532 C 0.64569 0.59365 0.51417 0.0
C533 C 0.66069 0.58135 0.43677 0.0
N534 N 0.70939 0.61445 0.52137 0.0
N535 N 0.60445 0.54393 0.43423 0.0
H536 H 0.6895 0.59122 0.38474 0.0
H537 H 0.64494 0.57275 0.38011 0.0
H538 H 0.58081 0.53182 0.44646 0.0
H539 H 0.61083 0.53388 0.40791 0.0
H540 H 0.70724 0.61515 0.55064 0.0
H541 H 0.73569 0.62136 0.51091 0.0
H542 H 0.6539 0.6195 0.56678 0.0
H543 H 0.61191 0.59489 0.56316 0.0
C544 C 0.17295 0.42139 0.08207 0.0
C545 C 0.16721 0.39666 0.11139 0.0
C546 C 0.10615 0.413 0.12227 0.0
C547 C 0.10873 0.43044 0.08712 0.0
N548 N 0.14664 0.4546 0.03479 0.0
N549 N 0.14011 0.39364 0.17366 0.0
C550 C 0.14266 0.43548 0.06714 0.0
C551 C 0.13718 0.39969 0.13612 0.0
N552 N 0.20709 0.43687 0.07439 0.0
N553 N 0.07385 0.40779 0.1418 0.0
H554 H 0.16442 0.38775 0.1848 0.0
H555 H 0.12032 0.3986 0.1937 0.0
H556 H 0.05006 0.41626 0.13218 0.0
H557 H 0.07014 0.39227 0.16579 0.0
H558 H 0.21284 0.45741 0.05555 0.0
H559 H 0.22848 0.43315 0.09185 0.0
H560 H 0.16976 0.45538 1.01739 0.0
H561 H 0.12659 0.46841 1.02436 0.0
C562 C 0.59231 0.17487 0.98921 0.0
C563 C 0.60422 0.17591 0.9509 0.0
C564 C 0.57432 0.11671 0.94131 0.0
C565 C 0.56423 0.11488 0.98022 0.0
N566 N 0.56723 0.14023 0.04224 0.0
N567 N 0.6118 0.14652 0.89176 0.0
C568 C 0.57446 0.14337 1.00447 0.0
C569 C 0.59675 0.1464 0.92731 0.0
N570 N 0.59689 0.20446 1.01066 0.0
N571 N 0.5615 0.09057 0.91748 0.0
H572 H 0.62774 0.16805 0.88039 0.0
H573 H 0.61087 0.12459 0.87455 0.0
H574 H 0.54582 0.06803 0.92667 0.0
H575 H 0.56427 0.09211 0.88828 0.0
H576 H 0.58523 0.20671 0.0374 0.0
H577 H 0.61025 0.2279 1.0007 0.0
H578 H 0.57757 0.15823 0.06218 0.0
H579 H 0.5529 0.11814 0.05395 0.0
C580 C 0.96561 0.90132 0.42005 0.0
C581 C 0.96605 0.87112 0.44239 0.0
C582 C 1.00585 0.90456 0.48659 0.0
C583 C 0.99912 0.93599 0.46892 0.0
N584 N 0.97383 0.96416 0.41646 0.0
N585 N 0.98517 0.84394 0.49828 0.0
C586 C 0.97991 0.93439 0.43457 0.0
C587 C 0.98607 0.87264 0.47587 0.0
N588 N 0.95193 0.89819 0.38468 0.0
N589 N 0.03228 0.90511 0.51271 0.0
H590 H 0.97154 0.81985 0.49115 0.0
H591 H 0.99568 0.84472 0.52521 0.0
H592 H 0.04894 0.92773 0.51939 0.0
H593 H 0.04059 0.8827 0.52422 0.0
H594 H 0.95425 0.91835 0.36518 0.0
H595 H 0.94106 0.8744 0.3735 0.0
H596 H 0.95571 0.96473 0.39468 0.0
H597 H 0.98535 0.98882 0.42402 0.0
C598 C 0.42768 0.68829 0.59091 0.0
C599 C 0.43569 0.70229 0.62705 0.0
C600 C 0.4758 0.65721 0.6376 0.0
C601 C 0.47032 0.64531 0.60011 0.0
N602 N 0.44815 0.6553 0.53813 0.0
N603 N 0.472 0.70422 0.68249 0.0
C604 C 0.44815 0.66237 0.57591 0.0
C605 C 0.46112 0.68794 0.6498 0.0
N606 N 0.39995 0.69918 0.57119 0.0
N607 N 0.49371 0.63845 0.66202 0.0
H608 H 0.4618 0.72673 0.69237 0.0
H609 H 0.49331 0.69716 0.69815 0.0
H610 H 0.50443 0.61558 0.6543 0.0
H611 H 0.49517 0.64383 0.69074 0.0
H612 H 0.39038 0.68713 0.54653 0.0
H613 H 0.38424 0.71816 0.58123 0.0
H614 H 0.4353 0.66952 0.51875 0.0
H615 H 0.46426 0.63793 0.5254 0.0
C616 C 0.95035 0.89928 0.68327 0.0
C617 C 0.94489 0.91302 0.7198 0.0
C618 C 0.96931 0.97126 0.69845 0.0
C619 C 0.97668 0.95716 0.66251 0.0
N620 N 0.97826 0.90746 0.62109 0.0
N621 N 0.95409 0.96016 0.76444 0.0
C622 C 0.9687 0.92101 0.65512 0.0
C623 C 0.95575 0.94852 0.72805 0.0
N624 N 0.93636 0.86595 0.67501 0.0
N625 N 0.97491 1.00643 0.70412 0.0
H626 H 0.94427 0.94419 0.78685 0.0
H627 H 0.96504 0.98478 0.77304 0.0
H628 H 0.98672 1.02372 0.68373 0.0
H629 H 0.96598 1.01877 0.72817 0.0
H630 H 0.93557 0.8556 0.64789 0.0
H631 H 0.9229 0.84915 0.69493 0.0
H632 H 0.97747 0.8809 0.61577 0.0
H633 H 0.98905 0.92259 0.59847 0.0
C634 C 0.63901 0.08275 0.21146 0.0
C635 C 0.63323 0.1181 0.21675 0.0
C636 C 0.59771 0.11647 0.15978 0.0
C637 C 0.60647 0.08228 0.15226 0.0
N638 N 0.63936 0.03422 0.16786 0.0
N639 N 0.61438 0.17052 0.19371 0.0
C640 C 0.62829 0.06576 0.17723 0.0
C641 C 0.61475 0.13549 0.18985 0.0
N642 N 0.65324 0.06511 0.23967 0.0
N643 N 0.57109 0.12963 0.14035 0.0
H644 H 0.60393 0.18629 0.17406 0.0
H645 H 0.60393 0.18629 0.17406 0.0
H646 H 0.55609 0.11546 0.11997 0.0
H647 H 0.56081 0.15285 0.14748 0.0
H648 H 0.65463 0.03835 0.23905 0.0
H649 H 0.66094 0.07671 0.26522 0.0
H650 H 0.65821 1.02248 0.18304 0.0
H651 H 0.63192 1.0211 0.14302 0.0
C652 C 0.49102 0.61681 0.38345 0.0
C653 C 0.45895 0.60249 0.36572 0.0
C654 C 0.45291 0.5539 0.41082 0.0
C655 C 0.48632 0.56715 0.42674 0.0
N656 N 0.54132 0.60634 0.4219 0.0
N657 N 0.41233 0.55462 0.3583 0.0
C658 C 0.5066 0.59715 0.41112 0.0
C659 C 0.44069 0.57018 0.37822 0.0
N660 N 0.50589 0.64988 0.37501 0.0
N661 N 0.43253 0.52624 0.42731 0.0
H662 H 0.40271 0.56586 0.33447 0.0
H663 H 0.40018 0.52949 0.36353 0.0
H664 H 0.44146 0.51285 0.45004 0.0
H665 H 0.40605 0.51782 0.41996 0.0
H666 H 0.52684 0.6631 0.3901 0.0
H667 H 0.49515 0.66547 0.35528 0.0
H668 H 0.55879 0.62585 0.40886 0.0
H669 H 0.55394 0.59177 0.44099 0.0
C670 C 0.11343 0.51438 0.88163 0.0
C671 C 0.11291 0.47773 0.8795 0.0
C672 C 0.07172 0.47159 0.93491 0.0
C673 C 0.0731 0.50851 0.93781 0.0
N674 N 0.10622 0.56399 0.92164 0.0
N675 N 0.09917 0.42203 0.90951 0.0
C676 C 0.09725 0.52959 0.91345 0.0
C677 C 0.09443 0.45652 0.90788 0.0
N678 N 0.12829 0.53477 0.85267 0.0
N679 N 0.04762 0.45066 0.95647 0.0
H680 H 0.11546 0.41015 0.89012 0.0
H681 H 0.08976 0.40602 0.93196 0.0
H682 H 0.03147 0.46021 0.9773 0.0
H683 H 0.04194 0.424 0.95199 0.0
H684 H 0.12578 0.56127 0.85093 0.0
H685 H 0.14027 0.52475 0.8287 0.0
H686 H 0.1262 0.57975 0.90674 0.0
H687 H 0.09719 0.57565 0.94615 0.0
C688 C 0.62929 0.91596 0.96764 0.0
C689 C 0.64223 0.92581 0.93099 0.0
C690 C 0.60581 0.97458 0.93352 0.0
C691 C 0.60055 0.96972 0.97297 0.0
N692 N 0.60757 0.93467 0.02807 0.0
N693 N 0.61705 0.94588 0.87457 0.0
C694 C 0.61247 0.94016 0.99029 0.0
C695 C 0.62309 0.94988 0.91213 0.0
N696 N 0.6265 0.88184 0.97787 0.0
N697 N 0.59565 1.00341 0.91658 0.0
H698 H 0.62513 0.92462 0.85958 0.0
H699 H 0.60026 0.96067 0.85996 0.0
H700 H 0.58424 1.02289 0.93157 0.0
H701 H 0.6019 1.00945 0.88842 0.0
H702 H 0.61397 0.87252 1.00298 0.0
H703 H 0.63172 0.8625 0.95847 0.0
H704 H 0.61884 0.91496 0.04198 0.0
H705 H 0.59479 0.95123 0.04582 0.0
C706 C 0.915 0.11917 0.49414 0.0
C707 C 0.89219 0.1027 0.46648 0.0
C708 C 0.92073 0.04902 0.47347 0.0
C709 C 0.94215 0.06499 0.50264 0.0
N710 N 0.95006 0.11086 0.54899 0.0
N711 N 0.86775 0.04993 0.43532 0.0
C712 C 0.93684 0.09895 0.51524 0.0
C713 C 0.89354 0.06704 0.45755 0.0
N714 N 0.91618 0.1542 0.49999 0.0
N715 N 0.92647 1.01665 0.46075 0.0
H716 H 0.8471 0.06202 0.42339 0.0
H717 H 0.86475 1.0231 0.43131 0.0
H718 H 0.94456 1.00174 0.47312 0.0
H719 H 0.91499 1.00543 0.43654 0.0
H720 H 0.93507 0.16803 0.51716 0.0
H721 H 0.90046 0.16987 0.48508 0.0
H722 H 0.94374 0.134 0.56133 0.0
H723 H 0.96429 0.09601 0.56653 0.0
C724 C 0.14911 0.6271 0.11551 0.0
C725 C 0.18249 0.6156 0.10359 0.0
C726 C 0.15216 0.58303 0.05173 0.0
C727 C 0.11812 0.59014 0.06713 0.0
N728 N 0.08368 0.61629 0.11622 0.0
N729 N 0.21614 0.5809 0.0619 0.0
C730 C 0.11639 0.61193 0.09938 0.0
C731 C 0.18421 0.59336 0.07184 0.0
N732 N 0.14877 0.65263 0.14225 0.0
N733 N 0.1538 0.56679 1.01753 0.0
H734 H 0.24036 0.58851 0.07536 0.0
H735 H 0.21822 0.5613 0.04201 0.0
H736 H 0.13082 0.55916 1.00199 0.0
H737 H 0.17793 0.56377 1.00296 0.0
H738 H 0.12586 0.66473 0.14939 0.0
H739 H 0.17225 0.66398 0.15489 0.0
H740 H 0.08102 0.62814 0.1424 0.0
H741 H 0.05897 0.60573 0.10567 0.0
C742 C 0.36605 0.48598 0.56955 0.0
C743 C 0.36478 0.4543 0.58976 0.0
C744 C 0.43042 0.45409 0.57958 0.0
C745 C 0.43102 0.48378 0.55602 0.0
N746 N 0.39962 0.52711 0.52649 0.0
N747 N 0.39457 0.40607 0.61124 0.0
C748 C 0.39889 0.49959 0.55057 0.0
C749 C 0.39673 0.43796 0.59434 0.0
N750 N 0.33596 0.50331 0.56917 0.0
N751 N 0.4621 0.44129 0.588 0.0
H752 H 0.37064 0.39363 0.6231 0.0
H753 H 0.4158 0.39066 0.61125 0.0
H754 H 0.48716 0.45075 0.57615 0.0
H755 H 0.46407 0.42284 0.60884 0.0
H756 H 0.33579 0.52818 0.55822 0.0
H757 H 0.31153 0.49385 0.58252 0.0
H758 H 0.37657 0.53738 0.51766 0.0
H759 H 0.42344 0.53863 0.51355 0.0
C760 C 0.92415 0.69814 0.99425 0.0
C761 C 0.89006 0.68568 0.97938 0.0
C762 C 0.90723 0.62653 0.97696 0.0
C763 C 0.94017 0.63846 0.99464 0.0
N764 N 0.97771 0.68418 1.02587 0.0
N765 N 0.84625 0.63778 0.96259 0.0
C766 C 0.9481 0.67391 1.00483 0.0
C767 C 0.88068 0.64974 0.97267 0.0
N768 N 0.93401 0.73314 0.9973 0.0
N769 N 0.90211 0.5936 0.96233 0.0
H770 H 0.82621 0.65419 0.95869 0.0
H771 H 0.83666 0.61148 0.96131 0.0
H772 H 0.92144 0.57609 0.96344 0.0
H773 H 0.8803 0.58471 0.94572 0.0
H774 H 0.96006 0.74392 1.00373 0.0
H775 H 0.91679 0.75167 0.99082 0.0
H776 H 0.98276 0.7089 0.03765 0.0
H777 H 0.99577 0.66712 0.03429 0.0
C778 C 0.46785 0.87831 0.07011 0.0
C779 C 0.4462 0.87824 0.10362 0.0
C780 C 0.46092 0.94163 0.10929 0.0
C781 C 0.48522 0.9412 0.07768 0.0
N782 N 0.51482 0.90873 0.0302 0.0
N783 N 0.42518 0.90856 0.15788 0.0
C784 C 0.48953 0.90938 0.05876 0.0
C785 C 0.44336 0.90963 0.12383 0.0
N786 N 0.46676 0.84888 0.04844 0.0
N787 N 0.45474 0.97255 0.12566 0.0
H788 H 0.41191 0.8857 0.16935 0.0
H789 H 0.42549 0.92965 0.17624 0.0
H790 H 0.46869 0.9963 0.11773 0.0
H791 H 0.43413 0.9751 0.14555 0.0
H792 H 0.4786 0.84819 1.0216 0.0
H793 H 0.45148 0.82557 0.05598 0.0
H794 H 0.52277 0.88592 1.01857 0.0
H795 H 0.52958 0.93112 1.01948 0.0
C796 C 0.09841 0.1558 0.6469 0.0
C797 C 0.0901 0.18813 0.63282 0.0
C798 C 0.05486 0.15752 0.58278 0.0
C799 C 0.06593 0.12526 0.59467 0.0
N800 N 0.1056 0.09562 0.63286 0.0
N801 N 0.06597 0.22048 0.58348 0.0
C802 C 0.08958 0.12486 0.62549 0.0
C803 C 0.06991 0.18917 0.59964 0.0
N804 N 0.11431 0.15452 0.68103 0.0
N805 N 0.02889 0.15805 0.55633 0.0
H806 H 0.07627 0.24425 0.59509 0.0
H807 H 0.05534 0.22283 0.55689 0.0
H808 H 1.01711 0.13587 0.54288 0.0
H809 H 1.01659 0.18016 0.55008 0.0
H810 H 0.11737 0.13132 0.69469 0.0
H811 H 0.12167 0.17666 0.6972 0.0
H812 H 0.12574 0.09481 0.65257 0.0
H813 H 0.10184 0.07327 0.61634 0.0
C814 C 0.62711 0.37802 0.44054 0.0
C815 C 0.63404 0.35696 0.47157 0.0
C816 C 0.59996 0.39244 0.51357 0.0
C817 C 0.5897 0.41114 0.48198 0.0
N818 N 0.5886 0.41802 0.41458 0.0
N819 N 0.62091 0.33947 0.53601 0.0
C820 C 0.60193 0.40293 0.44518 0.0
C821 C 0.61854 0.36274 0.5076 0.0
N822 N 0.64548 0.37503 0.40704 0.0
N823 N 0.59413 0.40418 0.54938 0.0
H824 H 0.63422 0.31725 0.53272 0.0
H825 H 0.60675 0.34049 0.56164 0.0
H826 H 0.58255 0.42696 0.55535 0.0
H827 H 0.60453 0.3935 0.57307 0.0
H828 H 0.64447 0.39221 0.38472 0.0
H829 H 0.66424 0.35719 0.40259 0.0
H830 H 0.59365 0.41037 0.38695 0.0
H831 H 0.56972 0.436 0.41683 0.0
loop_
_geom_bond_atom_site_label_1
_geom_bond_atom_site_label_2
_geom_bond_distance
_geom_bond_site_symmetry_2
_ccdc_geom_bond_type
C0 C1 1.264 . S
C0 C5 1.479 . S
C0 C10 1.465 . S
C1 C0 1.264 . S
C1 C3 1.339 . S
C1 H28 0.931 . S
C2 C3 1.395 . S
C2 C4 1.320 . S
C3 C1 1.339 . S
C3 C2 1.395 . S
C3 H29 0.929 . S
C4 C2 1.320 . S
C4 C5 1.405 . S
C4 H30 0.930 . S
C5 C0 1.479 . S
C5 C4 1.405 . S
C5 H31 0.931 . S
U6 O7 2.454 . S
U6 O8 2.458 . S
U6 C9 2.984 . S
U6 C10 2.847 . S
U6 C23 2.882 . S
U6 O24 2.441 . S
U6 O25 2.420 . S
U6 O26 2.455 . S
U6 O27 2.449 . S
O7 U6 2.454 . S
O7 C9 1.353 . S
O8 U6 2.458 . S
O8 C9 1.286 . S
C9 U6 2.984 . S
C9 O7 1.353 . S
C9 O8 1.286 . S
C9 C11 1.363 . S
C10 C0 1.465 . S
C10 U6 2.847 . S
C10 O24 1.249 . S
C10 O25 1.202 . S
C11 C9 1.363 . S
C11 C13 1.408 . S
C11 C16 1.342 . S
C12 C13 1.310 . S
C12 C15 1.461 . S
C12 H32 0.932 . S
C13 C11 1.408 . S
C13 C12 1.310 . S
C13 H33 0.930 . S
C14 C15 1.474 . S
C14 C16 1.285 . S
C14 H34 0.929 . S
C15 C12 1.461 . S
C15 C14 1.474 . S
C16 C11 1.342 . S
C16 C14 1.285 . S
C16 H35 0.930 . S
C17 C20 1.424 . S
C17 C22 1.245 . S
C17 C23 1.428 . S
C18 C21 1.260 . S
C18 C22 1.477 . S
C18 H36 0.932 . S
C19 C20 1.384 . S
C19 C21 1.479 . S
C19 H37 0.929 . S
C20 C17 1.424 . S
C20 C19 1.384 . S
C20 H38 0.928 . S
C21 C18 1.260 . S
C21 C19 1.479 . S
C22 C17 1.245 . S
C22 C18 1.477 . S
C22 H39 0.932 . S
C23 U6 2.882 . S
C23 C17 1.428 . S
C23 O26 1.301 . S
C23 O27 1.282 . S
O24 U6 2.441 . S
O24 C10 1.249 . S
O25 U6 2.420 . S
O25 C10 1.202 . S
O26 U6 2.455 . S
O26 C23 1.301 . S
O27 U6 2.449 . S
O27 C23 1.282 . S
H28 C1 0.931 . S
H29 C3 0.929 . S
H30 C4 0.930 . S
H31 C5 0.931 . S
H32 C12 0.932 . S
H33 C13 0.930 . S
H34 C14 0.929 . S
H35 C16 0.930 . S
H36 C18 0.932 . S
H37 C19 0.929 . S
H38 C20 0.928 . S
H39 C22 0.932 . S
C40 C41 1.264 . S
C40 C45 1.479 . S
C40 C50 1.465 . S
C41 C40 1.264 . S
C41 C43 1.339 . S
C41 H68 0.931 . S
C42 C43 1.395 . S
C42 C44 1.320 . S
C43 C41 1.339 . S
C43 C42 1.395 . S
C43 H69 0.929 . S
C44 C42 1.320 . S
C44 C45 1.405 . S
C44 H70 0.930 . S
C45 C40 1.479 . S
C45 C44 1.405 . S
C45 H71 0.931 . S
U46 O47 2.454 . S
U46 O48 2.458 . S
U46 C49 2.984 . S
U46 C50 2.847 . S
U46 C63 2.882 . S
U46 O64 2.441 . S
U46 O65 2.420 . S
U46 O66 2.455 . S
U46 O67 2.449 . S
O47 U46 2.454 . S
O47 C49 1.353 . S
O48 U46 2.458 . S
O48 C49 1.286 . S
C49 U46 2.984 . S
C49 O47 1.353 . S
C49 O48 1.286 . S
C49 C51 1.363 . S
C50 C40 1.465 . S
C50 U46 2.847 . S
C50 O64 1.249 . S
C50 O65 1.202 . S
C51 C49 1.363 . S
C51 C53 1.408 . S
C51 C56 1.342 . S
C52 C53 1.310 . S
C52 C55 1.461 . S
C52 H72 0.932 . S
C53 C51 1.408 . S
C53 C52 1.310 . S
C53 H73 0.930 . S
C54 C55 1.474 . S
C54 C56 1.285 . S
C54 H74 0.929 . S
C55 C52 1.461 . S
C55 C54 1.474 . S
C56 C51 1.342 . S
C56 C54 1.285 . S
C56 H75 0.930 . S
C57 C60 1.424 . S
C57 C62 1.245 . S
C57 C63 1.428 . S
C58 C61 1.260 . S
C58 C62 1.477 . S
C58 H76 0.932 . S
C59 C60 1.384 . S
C59 C61 1.479 . S
C59 H77 0.929 . S
C60 C57 1.424 . S
C60 C59 1.384 . S
C60 H78 0.928 . S
C61 C58 1.260 . S
C61 C59 1.479 . S
C62 C57 1.245 . S
C62 C58 1.477 . S
C62 H79 0.932 . S
C63 U46 2.882 . S
C63 C57 1.428 . S
C63 O66 1.301 . S
C63 O67 1.282 . S
O64 U46 2.441 . S
O64 C50 1.249 . S
O65 U46 2.420 . S
O65 C50 1.202 . S
O66 U46 2.455 . S
O66 C63 1.301 . S
O67 U46 2.449 . S
O67 C63 1.282 . S
H68 C41 0.931 . S
H69 C43 0.929 . S
H70 C44 0.930 . S
H71 C45 0.931 . S
H72 C52 0.932 . S
H73 C53 0.930 . S
H74 C54 0.929 . S
H75 C56 0.930 . S
H76 C58 0.932 . S
H77 C59 0.929 . S
H78 C60 0.928 . S
H79 C62 0.932 . S
C80 C81 1.264 . S
C80 C85 1.479 . S
C80 C90 1.465 . S
C81 C80 1.264 . S
C81 C83 1.339 . S
C81 H108 0.931 . S
C82 C83 1.395 . S
C82 C84 1.320 . S
C83 C81 1.339 . S
C83 C82 1.395 . S
C83 H109 0.929 . S
C84 C82 1.320 . S
C84 C85 1.405 . S
C84 H110 0.930 . S
C85 C80 1.479 . S
C85 C84 1.405 . S
C85 H111 0.931 . S
U86 O87 2.454 . S
U86 O88 2.458 . S
U86 C89 2.984 . S
U86 C90 2.847 . S
U86 C103 2.882 . S
U86 O104 2.441 . S
U86 O105 2.420 . S
U86 O106 2.455 . S
U86 O107 2.449 . S
O87 U86 2.454 . S
O87 C89 1.353 . S
O88 U86 2.458 . S
O88 C89 1.286 . S
C89 U86 2.984 . S
C89 O87 1.353 . S
C89 O88 1.286 . S
C89 C91 1.363 . S
C90 C80 1.465 . S
C90 U86 2.847 . S
C90 O104 1.249 . S
C90 O105 1.202 . S
C91 C89 1.363 . S
C91 C93 1.408 . S
C91 C96 1.342 . S
C92 C93 1.310 . S
C92 C95 1.461 . S
C92 H112 0.932 . S
C93 C91 1.408 . S
C93 C92 1.310 . S
C93 H113 0.930 . S
C94 C95 1.474 . S
C94 C96 1.285 . S
C94 H114 0.929 . S
C95 C92 1.461 . S
C95 C94 1.474 . S
C96 C91 1.342 . S
C96 C94 1.285 . S
C96 H115 0.930 . S
C97 C100 1.424 . S
C97 C102 1.245 . S
C97 C103 1.428 . S
C98 C101 1.260 . S
C98 C102 1.477 . S
C98 H116 0.932 . S
C99 C100 1.384 . S
C99 C101 1.479 . S
C99 H117 0.929 . S
C100 C97 1.424 . S
C100 C99 1.384 . S
C100 H118 0.928 . S
C101 C98 1.260 . S
C101 C99 1.479 . S
C102 C97 1.245 . S
C102 C98 1.477 . S
C102 H119 0.932 . S
C103 U86 2.882 . S
C103 C97 1.428 . S
C103 O106 1.301 . S
C103 O107 1.282 . S
O104 U86 2.441 . S
O104 C90 1.249 . S
O105 U86 2.420 . S
O105 C90 1.202 . S
O106 U86 2.455 . S
O106 C103 1.301 . S
O107 U86 2.449 . S
O107 C103 1.282 . S
H108 C81 0.931 . S
H109 C83 0.929 . S
H110 C84 0.930 . S
H111 C85 0.931 . S
H112 C92 0.932 . S
H113 C93 0.930 . S
H114 C94 0.929 . S
H115 C96 0.930 . S
H116 C98 0.932 . S
H117 C99 0.929 . S
H118 C100 0.928 . S
H119 C102 0.932 . S
C120 C121 1.264 . S
C120 C125 1.479 . S
C120 C130 1.465 . S
C121 C120 1.264 . S
C121 C123 1.339 . S
C121 H148 0.931 . S
C122 C123 1.395 . S
C122 C124 1.320 . S
C123 C121 1.339 . S
C123 C122 1.395 . S
C123 H149 0.929 . S
C124 C122 1.320 . S
C124 C125 1.405 . S
C124 H150 0.930 . S
C125 C120 1.479 . S
C125 C124 1.405 . S
C125 H151 0.931 . S
U126 O127 2.454 . S
U126 O128 2.458 . S
U126 C129 2.984 . S
U126 C130 2.847 . S
U126 C143 2.882 . S
U126 O144 2.441 . S
U126 O145 2.420 . S
U126 O146 2.455 . S
U126 O147 2.449 . S
O127 U126 2.454 . S
O127 C129 1.353 . S
O128 U126 2.458 . S
O128 C129 1.286 . S
C129 U126 2.984 . S
C129 O127 1.353 . S
C129 O128 1.286 . S
C129 C131 1.363 . S
C130 C120 1.465 . S
C130 U126 2.847 . S
C130 O144 1.249 . S
C130 O145 1.202 . S
C131 C129 1.363 . S
C131 C133 1.408 . S
C131 C136 1.342 . S
C132 C133 1.310 . S
C132 C135 1.461 . S
C132 H152 0.932 . S
C133 C131 1.408 . S
C133 C132 1.310 . S
C133 H153 0.930 . S
C134 C135 1.474 . S
C134 C136 1.285 . S
C134 H154 0.929 . S
C135 C132 1.461 . S
C135 C134 1.474 . S
C136 C131 1.342 . S
C136 C134 1.285 . S
C136 H155 0.930 . S
C137 C140 1.424 . S
C137 C142 1.245 . S
C137 C143 1.428 . S
C138 C141 1.260 . S
C138 C142 1.477 . S
C138 H156 0.932 . S
C139 C140 1.384 . S
C139 C141 1.479 . S
C139 H157 0.929 . S
C140 C137 1.424 . S
C140 C139 1.384 . S
C140 H158 0.928 . S
C141 C138 1.260 . S
C141 C139 1.479 . S
C142 C137 1.245 . S
C142 C138 1.477 . S
C142 H159 0.932 . S
C143 U126 2.882 . S
C143 C137 1.428 . S
C143 O146 1.301 . S
C143 O147 1.282 . S
O144 U126 2.441 . S
O144 C130 1.249 . S
O145 U126 2.420 . S
O145 C130 1.202 . S
O146 U126 2.455 . S
O146 C143 1.301 . S
O147 U126 2.449 . S
O147 C143 1.282 . S
H148 C121 0.931 . S
H149 C123 0.929 . S
H150 C124 0.930 . S
H151 C125 0.931 . S
H152 C132 0.932 . S
H153 C133 0.930 . S
H154 C134 0.929 . S
H155 C136 0.930 . S
H156 C138 0.932 . S
H157 C139 0.929 . S
H158 C140 0.928 . S
H159 C142 0.932 . S
C160 C161 1.264 . S
C160 C165 1.479 . S
C160 C170 1.465 . S
C161 C160 1.264 . S
C161 C163 1.339 . S
C161 H188 0.931 . S
C162 C163 1.395 . S
C162 C164 1.320 . S
C163 C161 1.339 . S
C163 C162 1.395 . S
C163 H189 0.929 . S
C164 C162 1.320 . S
C164 C165 1.405 . S
C164 H190 0.930 . S
C165 C160 1.479 . S
C165 C164 1.405 . S
C165 H191 0.931 . S
U166 O167 2.454 . S
U166 O168 2.458 . S
U166 C169 2.984 . S
U166 C170 2.847 . S
U166 C183 2.882 . S
U166 O184 2.441 . S
U166 O185 2.420 . S
U166 O186 2.455 . S
U166 O187 2.449 . S
O167 U166 2.454 . S
O167 C169 1.353 . S
O168 U166 2.458 . S
O168 C169 1.286 . S
C169 U166 2.984 . S
C169 O167 1.353 . S
C169 O168 1.286 . S
C169 C171 1.363 . S
C170 C160 1.465 . S
C170 U166 2.847 . S
C170 O184 1.249 . S
C170 O185 1.202 . S
C171 C169 1.363 . S
C171 C173 1.408 . S
C171 C176 1.342 . S
C172 C173 1.310 . S
C172 C175 1.461 . S
C172 H192 0.932 . S
C173 C171 1.408 . S
C173 C172 1.310 . S
C173 H193 0.930 . S
C174 C175 1.474 . S
C174 C176 1.285 . S
C174 H194 0.929 . S
C175 C172 1.461 . S
C175 C174 1.474 . S
C176 C171 1.342 . S
C176 C174 1.285 . S
C176 H195 0.930 . S
C177 C180 1.424 . S
C177 C182 1.245 . S
C177 C183 1.428 . S
C178 C181 1.260 . S
C178 C182 1.477 . S
C178 H196 0.932 . S
C179 C180 1.384 . S
C179 C181 1.479 . S
C179 H197 0.929 . S
C180 C177 1.424 . S
C180 C179 1.384 . S
C180 H198 0.928 . S
C181 C178 1.260 . S
C181 C179 1.479 . S
C182 C177 1.245 . S
C182 C178 1.477 . S
C182 H199 0.932 . S
C183 U166 2.882 . S
C183 C177 1.428 . S
C183 O186 1.301 . S
C183 O187 1.282 . S
O184 U166 2.441 . S
O184 C170 1.249 . S
O185 U166 2.420 . S
O185 C170 1.202 . S
O186 U166 2.455 . S
O186 C183 1.301 . S
O187 U166 2.449 . S
O187 C183 1.282 . S
H188 C161 0.931 . S
H189 C163 0.929 . S
H190 C164 0.930 . S
H191 C165 0.931 . S
H192 C172 0.932 . S
H193 C173 0.930 . S
H194 C174 0.929 . S
H195 C176 0.930 . S
H196 C178 0.932 . S
H197 C179 0.929 . S
H198 C180 0.928 . S
H199 C182 0.932 . S
C200 C201 1.264 . S
C200 C205 1.479 . S
C200 C210 1.465 . S
C201 C200 1.264 . S
C201 C203 1.339 . S
C201 H228 0.931 . S
C202 C203 1.395 . S
C202 C204 1.320 . S
C203 C201 1.339 . S
C203 C202 1.395 . S
C203 H229 0.929 . S
C204 C202 1.320 . S
C204 C205 1.405 . S
C204 H230 0.930 . S
C205 C200 1.479 . S
C205 C204 1.405 . S
C205 H231 0.931 . S
U206 O207 2.454 . S
U206 O208 2.458 . S
U206 C209 2.984 . S
U206 C210 2.847 . S
U206 C223 2.882 . S
U206 O224 2.441 . S
U206 O225 2.420 . S
U206 O226 2.455 . S
U206 O227 2.449 . S
O207 U206 2.454 . S
O207 C209 1.353 . S
O208 U206 2.458 . S
O208 C209 1.286 . S
C209 U206 2.984 . S
C209 O207 1.353 . S
C209 O208 1.286 . S
C209 C211 1.363 . S
C210 C200 1.465 . S
C210 U206 2.847 . S
C210 O224 1.249 . S
C210 O225 1.202 . S
C211 C209 1.363 . S
C211 C213 1.408 . S
C211 C216 1.342 . S
C212 C213 1.310 . S
C212 C215 1.461 . S
C212 H232 0.932 . S
C213 C211 1.408 . S
C213 C212 1.310 . S
C213 H233 0.930 . S
C214 C215 1.474 . S
C214 C216 1.285 . S
C214 H234 0.929 . S
C215 C212 1.461 . S
C215 C214 1.474 . S
C216 C211 1.342 . S
C216 C214 1.285 . S
C216 H235 0.930 . S
C217 C220 1.424 . S
C217 C222 1.245 . S
C217 C223 1.428 . S
C218 C221 1.260 . S
C218 C222 1.477 . S
C218 H236 0.932 . S
C219 C220 1.384 . S
C219 C221 1.479 . S
C219 H237 0.929 . S
C220 C217 1.424 . S
C220 C219 1.384 . S
C220 H238 0.928 . S
C221 C218 1.260 . S
C221 C219 1.479 . S
C222 C217 1.245 . S
C222 C218 1.477 . S
C222 H239 0.932 . S
C223 U206 2.882 . S
C223 C217 1.428 . S
C223 O226 1.301 . S
C223 O227 1.282 . S
O224 U206 2.441 . S
O224 C210 1.249 . S
O225 U206 2.420 . S
O225 C210 1.202 . S
O226 U206 2.455 . S
O226 C223 1.301 . S
O227 U206 2.449 . S
O227 C223 1.282 . S
H228 C201 0.931 . S
H229 C203 0.929 . S
H230 C204 0.930 . S
H231 C205 0.931 . S
H232 C212 0.932 . S
H233 C213 0.930 . S
H234 C214 0.929 . S
H235 C216 0.930 . S
H236 C218 0.932 . S
H237 C219 0.929 . S
H238 C220 0.928 . S
H239 C222 0.932 . S
C240 C241 1.264 . S
C240 C245 1.479 . S
C240 C250 1.465 . S
C241 C240 1.264 . S
C241 C243 1.339 . S
C241 H268 0.931 . S
C242 C243 1.395 . S
C242 C244 1.320 . S
C243 C241 1.339 . S
C243 C242 1.395 . S
C243 H269 0.929 . S
C244 C242 1.320 . S
C244 C245 1.405 . S
C244 H270 0.930 . S
C245 C240 1.479 . S
C245 C244 1.405 . S
C245 H271 0.931 . S
U246 O247 2.454 . S
U246 O248 2.458 . S
U246 C249 2.984 . S
U246 C250 2.847 . S
U246 C263 2.882 . S
U246 O264 2.441 . S
U246 O265 2.420 . S
U246 O266 2.455 . S
U246 O267 2.449 . S
O247 U246 2.454 . S
O247 C249 1.353 . S
O248 U246 2.458 . S
O248 C249 1.286 . S
C249 U246 2.984 . S
C249 O247 1.353 . S
C249 O248 1.286 . S
C249 C251 1.363 . S
C250 C240 1.465 . S
C250 U246 2.847 . S
C250 O264 1.249 . S
C250 O265 1.202 . S
C251 C249 1.363 . S
C251 C253 1.408 . S
C251 C256 1.342 . S
C252 C253 1.310 . S
C252 C255 1.461 . S
C252 H272 0.932 . S
C253 C251 1.408 . S
C253 C252 1.310 . S
C253 H273 0.930 . S
C254 C255 1.474 . S
C254 C256 1.285 . S
C254 H274 0.929 . S
C255 C252 1.461 . S
C255 C254 1.474 . S
C256 C251 1.342 . S
C256 C254 1.285 . S
C256 H275 0.930 . S
C257 C260 1.424 . S
C257 C262 1.245 . S
C257 C263 1.428 . S
C258 C261 1.260 . S
C258 C262 1.477 . S
C258 H276 0.932 . S
C259 C260 1.384 . S
C259 C261 1.479 . S
C259 H277 0.929 . S
C260 C257 1.424 . S
C260 C259 1.384 . S
C260 H278 0.928 . S
C261 C258 1.260 . S
C261 C259 1.479 . S
C262 C257 1.245 . S
C262 C258 1.477 . S
C262 H279 0.932 . S
C263 U246 2.882 . S
C263 C257 1.428 . S
C263 O266 1.301 . S
C263 O267 1.282 . S
O264 U246 2.441 . S
O264 C250 1.249 . S
O265 U246 2.420 . S
O265 C250 1.202 . S
O266 U246 2.455 . S
O266 C263 1.301 . S
O267 U246 2.449 . S
O267 C263 1.282 . S
H268 C241 0.931 . S
H269 C243 0.929 . S
H270 C244 0.930 . S
H271 C245 0.931 . S
H272 C252 0.932 . S
H273 C253 0.930 . S
H274 C254 0.929 . S
H275 C256 0.930 . S
H276 C258 0.932 . S
H277 C259 0.929 . S
H278 C260 0.928 . S
H279 C262 0.932 . S
C280 C281 1.264 . S
C280 C285 1.479 . S
C280 C290 1.465 . S
C281 C280 1.264 . S
C281 C283 1.339 . S
C281 H308 0.931 . S
C282 C283 1.395 . S
C282 C284 1.320 . S
C283 C281 1.339 . S
C283 C282 1.395 . S
C283 H309 0.929 . S
C284 C282 1.320 . S
C284 C285 1.405 . S
C284 H310 0.930 . S
C285 C280 1.479 . S
C285 C284 1.405 . S
C285 H311 0.931 . S
U286 O287 2.454 . S
U286 O288 2.458 . S
U286 C289 2.984 . S
U286 C290 2.847 . S
U286 C303 2.882 . S
U286 O304 2.441 . S
U286 O305 2.420 . S
U286 O306 2.455 . S
U286 O307 2.449 . S
O287 U286 2.454 . S
O287 C289 1.353 . S
O288 U286 2.458 . S
O288 C289 1.286 . S
C289 U286 2.984 . S
C289 O287 1.353 . S
C289 O288 1.286 . S
C289 C291 1.363 . S
C290 C280 1.465 . S
C290 U286 2.847 . S
C290 O304 1.249 . S
C290 O305 1.202 . S
C291 C289 1.363 . S
C291 C293 1.408 . S
C291 C296 1.342 . S
C292 C293 1.310 . S
C292 C295 1.461 . S
C292 H312 0.932 . S
C293 C291 1.408 . S
C293 C292 1.310 . S
C293 H313 0.930 . S
C294 C295 1.474 . S
C294 C296 1.285 . S
C294 H314 0.929 . S
C295 C292 1.461 . S
C295 C294 1.474 . S
C296 C291 1.342 . S
C296 C294 1.285 . S
C296 H315 0.930 . S
C297 C300 1.424 . S
C297 C302 1.245 . S
C297 C303 1.428 . S
C298 C301 1.260 . S
C298 C302 1.477 . S
C298 H316 0.932 . S
C299 C300 1.384 . S
C299 C301 1.479 . S
C299 H317 0.929 . S
C300 C297 1.424 . S
C300 C299 1.384 . S
C300 H318 0.928 . S
C301 C298 1.260 . S
C301 C299 1.479 . S
C302 C297 1.245 . S
C302 C298 1.477 . S
C302 H319 0.932 . S
C303 U286 2.882 . S
C303 C297 1.428 . S
C303 O306 1.301 . S
C303 O307 1.282 . S
O304 U286 2.441 . S
O304 C290 1.249 . S
O305 U286 2.420 . S
O305 C290 1.202 . S
O306 U286 2.455 . S
O306 C303 1.301 . S
O307 U286 2.449 . S
O307 C303 1.282 . S
H308 C281 0.931 . S
H309 C283 0.929 . S
H310 C284 0.930 . S
H311 C285 0.931 . S
H312 C292 0.932 . S
H313 C293 0.930 . S
H314 C294 0.929 . S
H315 C296 0.930 . S
H316 C298 0.932 . S
H317 C299 0.929 . S
H318 C300 0.928 . S
H319 C302 0.932 . S
Dy320 O324 2.398 . S
Dy320 O325 2.491 . S
Dy320 O326 2.403 1_545 S
Dy320 O327 2.664 1_545 S
Dy320 O331 2.326 . S
Dy320 O335 2.310 1_455 S
Dy320 O336 2.351 1_445 S
C321 O332 1.185 . S
C321 O333 1.355 . S
C322 O324 1.185 . S
C322 O325 1.355 . S
Dy323 O327 2.310 1_655 S
Dy323 O330 2.351 1_665 S
Dy323 O332 2.398 . S
Dy323 O333 2.491 . S
Dy323 O334 2.403 1_565 S
Dy323 O335 2.664 1_565 S
Dy323 O337 2.326 . S
O324 Dy320 2.398 . S
O324 C322 1.185 . S
O325 Dy320 2.491 . S
O325 C322 1.355 . S
O326 Dy320 2.403 1_565 S
O326 C328 1.254 . S
O327 Dy320 2.664 1_565 S
O327 Dy323 2.310 1_455 S
O327 C328 1.268 . S
C328 O326 1.254 . S
C328 O327 1.268 . S
C329 O334 1.254 . S
C329 O335 1.268 . S
O330 Dy323 2.351 1_445 S
O330 C338 1.249 . S
O331 Dy320 2.326 . S
O331 C338 1.267 . S
O332 C321 1.185 . S
O332 Dy323 2.398 . S
O333 C321 1.355 . S
O333 Dy323 2.491 . S
O334 Dy323 2.403 1_545 S
O334 C329 1.254 . S
O335 Dy320 2.310 1_655 S
O335 Dy323 2.664 1_545 S
O335 C329 1.268 . S
O336 Dy320 2.351 1_665 S
O336 C339 1.249 . S
O337 Dy323 2.326 . S
O337 C339 1.267 . S
C338 O330 1.249 . S
C338 O331 1.267 . S
C339 O336 1.249 . S
C339 O337 1.267 . S
Dy340 O344 2.398 . S
Dy340 O345 2.491 . S
Dy340 O346 2.403 1_545 S
Dy340 O347 2.664 1_545 S
Dy340 O351 2.326 . S
Dy340 O355 2.287 1_554 S
Dy340 O356 2.351 1_544 S
C341 O352 1.185 . S
C341 O353 1.355 . S
C342 O344 1.185 . S
C342 O345 1.355 . S
Dy343 O347 2.310 1_546 S
Dy343 O350 2.351 1_556 S
Dy343 O352 2.398 1_545 S
Dy343 O353 2.491 1_545 S
Dy343 O354 2.403 . S
Dy343 O355 2.678 . S
Dy343 O357 2.326 1_545 S
O344 Dy340 2.398 . S
O344 C342 1.185 . S
O345 Dy340 2.491 . S
O345 C342 1.355 . S
O346 Dy340 2.403 1_565 S
O346 C348 1.254 . S
O347 Dy340 2.664 1_565 S
O347 Dy343 2.310 1_564 S
O347 C348 1.268 . S
C348 O346 1.254 . S
C348 O347 1.268 . S
C349 O354 1.254 . S
C349 O355 1.292 . S
O350 Dy343 2.351 1_554 S
O350 C358 1.249 . S
O351 Dy340 2.326 . S
O351 C358 1.267 . S
O352 C341 1.185 . S
O352 Dy343 2.398 1_565 S
O353 C341 1.355 . S
O353 Dy343 2.491 1_565 S
O354 Dy343 2.403 . S
O354 C349 1.254 . S
O355 Dy340 2.287 1_556 S
O355 Dy343 2.678 . S
O355 C349 1.292 . S
O356 Dy340 2.351 1_566 S
O356 C359 1.249 . S
O357 Dy343 2.326 1_565 S
O357 C359 1.267 . S
C358 O350 1.249 . S
C358 O351 1.267 . S
C359 O356 1.249 . S
C359 O357 1.267 . S
Dy360 O364 2.398 . S
Dy360 O365 2.491 . S
Dy360 O366 2.403 . S
Dy360 O367 2.664 . S
Dy360 O371 2.326 . S
Dy360 O375 2.310 . S
Dy360 O376 2.351 . S
C361 O372 1.185 . S
C361 O373 1.355 . S
C362 O364 1.185 . S
C362 O365 1.355 . S
Dy363 O367 2.310 . S
Dy363 O370 2.351 . S
Dy363 O372 2.398 . S
Dy363 O373 2.491 . S
Dy363 O374 2.403 . S
Dy363 O375 2.664 . S
Dy363 O377 2.326 . S
O364 Dy360 2.398 . S
O364 C362 1.185 . S
O365 Dy360 2.491 . S
O365 C362 1.355 . S
O366 Dy360 2.403 . S
O366 C368 1.254 . S
O367 Dy360 2.664 . S
O367 Dy363 2.310 . S
O367 C368 1.268 . S
C368 O366 1.254 . S
C368 O367 1.268 . S
C369 O374 1.254 . S
C369 O375 1.268 . S
O370 Dy363 2.351 . S
O370 C378 1.249 . S
O371 Dy360 2.326 . S
O371 C378 1.267 . S
O372 C361 1.185 . S
O372 Dy363 2.398 . S
O373 C361 1.355 . S
O373 Dy363 2.491 . S
O374 Dy363 2.403 . S
O374 C369 1.254 . S
O375 Dy360 2.310 . S
O375 Dy363 2.664 . S
O375 C369 1.268 . S
O376 Dy360 2.351 . S
O376 C379 1.249 . S
O377 Dy363 2.326 . S
O377 C379 1.267 . S
C378 O370 1.249 . S
C378 O371 1.267 . S
C379 O376 1.249 . S
C379 O377 1.267 . S
Dy380 O384 2.398 . S
Dy380 O385 2.491 . S
Dy380 O386 2.403 1_455 S
Dy380 O387 2.664 1_455 S
Dy380 O391 2.326 . S
Dy380 O395 2.310 1_554 S
Dy380 O396 2.341 1_454 S
C381 O392 1.185 . S
C381 O393 1.355 . S
C382 O384 1.185 . S
C382 O385 1.355 . S
Dy383 O387 2.310 1_556 S
Dy383 O390 2.350 1_656 S
Dy383 O392 2.398 . S
Dy383 O393 2.492 . S
Dy383 O394 2.403 1_655 S
Dy383 O395 2.664 1_655 S
Dy383 O397 2.327 . S
O384 Dy380 2.398 . S
O384 C382 1.185 . S
O385 Dy380 2.491 . S
O385 C382 1.355 . S
O386 Dy380 2.403 1_655 S
O386 C388 1.254 . S
O387 Dy380 2.664 1_655 S
O387 Dy383 2.310 1_554 S
O387 C388 1.268 . S
C388 O386 1.254 . S
C388 O387 1.268 . S
C389 O394 1.254 . S
C389 O395 1.268 . S
O390 Dy383 2.350 1_454 S
O390 C398 1.249 . S
O391 Dy380 2.326 . S
O391 C398 1.267 . S
O392 C381 1.185 . S
O392 Dy383 2.398 . S
O393 C381 1.355 . S
O393 Dy383 2.492 . S
O394 Dy383 2.403 1_455 S
O394 C389 1.254 . S
O395 Dy380 2.310 1_556 S
O395 Dy383 2.664 1_455 S
O395 C389 1.268 . S
O396 Dy380 2.341 1_656 S
O396 C399 1.263 . S
O397 Dy383 2.327 . S
O397 C399 1.267 . S
C398 O390 1.249 . S
C398 O391 1.267 . S
C399 O396 1.263 . S
C399 O397 1.267 . S
C400 C401 1.363 . S
C400 C406 1.379 . S
C400 N408 1.356 . S
C401 C400 1.363 . S
C401 C407 1.363 . S
C402 C403 1.363 . S
C402 C407 1.379 . S
C402 N409 1.356 . S
C403 C402 1.363 . S
C403 C406 1.363 . S
N404 C406 1.356 . S
N404 H416 0.984 . S
N404 H417 0.985 . S
N405 C407 1.356 . S
N405 H410 0.984 . S
N405 H411 0.985 . S
C406 C400 1.379 . S
C406 C403 1.363 . S
C406 N404 1.356 . S
C407 C401 1.363 . S
C407 C402 1.379 . S
C407 N405 1.356 . S
N408 C400 1.356 . S
N408 H414 0.984 . S
N408 H415 0.984 . S
N409 C402 1.356 . S
N409 H412 0.984 . S
N409 H413 0.985 . S
H410 N405 0.984 . S
H411 N405 0.985 . S
H412 N409 0.984 . S
H413 N409 0.985 . S
H414 N408 0.984 . S
H415 N408 0.984 . S
H416 N404 0.984 . S
H417 N404 0.985 . S
C418 C419 1.363 . S
C418 C424 1.379 . S
C418 N426 1.356 . S
C419 C418 1.363 . S
C419 C425 1.363 . S
C420 C421 1.363 . S
C420 C425 1.379 . S
C420 N427 1.356 . S
C421 C420 1.363 . S
C421 C424 1.363 . S
N422 C424 1.356 . S
N422 H434 0.984 1_565 S
N422 H435 0.985 . S
N423 C425 1.356 . S
N423 H428 0.984 . S
N423 H429 0.985 . S
C424 C418 1.379 . S
C424 C421 1.363 . S
C424 N422 1.356 . S
C425 C419 1.363 . S
C425 C420 1.379 . S
C425 N423 1.356 . S
N426 C418 1.356 . S
N426 H432 0.984 1_565 S
N426 H433 0.984 . S
N427 C420 1.356 . S
N427 H430 0.984 . S
N427 H431 0.985 . S
H428 N423 0.984 . S
H429 N423 0.985 . S
H430 N427 0.984 . S
H431 N427 0.985 . S
H432 N426 0.984 1_545 S
H433 N426 0.984 . S
H434 N422 0.984 1_545 S
H435 N422 0.985 . S
C436 C437 1.363 . S
C436 C442 1.379 . S
C436 N444 1.356 . S
C437 C436 1.363 . S
C437 C443 1.363 . S
C438 C439 1.363 . S
C438 C443 1.379 . S
C438 N445 1.356 . S
C439 C438 1.363 . S
C439 C442 1.363 . S
N440 C442 1.356 . S
N440 H452 0.984 . S
N440 H453 0.985 . S
N441 C443 1.356 . S
N441 H446 0.984 . S
N441 H447 0.985 . S
C442 C436 1.379 . S
C442 C439 1.363 . S
C442 N440 1.356 . S
C443 C437 1.363 . S
C443 C438 1.379 . S
C443 N441 1.356 . S
N444 C436 1.356 . S
N444 H450 0.984 . S
N444 H451 0.984 . S
N445 C438 1.356 . S
N445 H448 0.984 . S
N445 H449 0.985 . S
H446 N441 0.984 . S
H447 N441 0.985 . S
H448 N445 0.984 . S
H449 N445 0.985 . S
H450 N444 0.984 . S
H451 N444 0.984 . S
H452 N440 0.984 . S
H453 N440 0.985 . S
C454 C455 1.363 . S
C454 C460 1.379 . S
C454 N462 1.356 . S
C455 C454 1.363 . S
C455 C461 1.363 . S
C456 C457 1.363 . S
C456 C461 1.379 . S
C456 N463 1.356 . S
C457 C456 1.363 . S
C457 C460 1.363 . S
N458 C460 1.356 . S
N458 H470 0.984 1_655 S
N458 H471 0.985 . S
N459 C461 1.356 . S
N459 H464 0.984 . S
N459 H465 0.985 . S
C460 C454 1.379 . S
C460 C457 1.363 . S
C460 N458 1.356 . S
C461 C455 1.363 . S
C461 C456 1.379 . S
C461 N459 1.356 . S
N462 C454 1.356 . S
N462 H468 0.984 . S
N462 H469 0.984 . S
N463 C456 1.356 . S
N463 H466 0.984 . S
N463 H467 0.985 . S
H464 N459 0.984 . S
H465 N459 0.985 . S
H466 N463 0.984 . S
H467 N463 0.985 . S
H468 N462 0.984 . S
H469 N462 0.984 . S
H470 N458 0.984 1_455 S
H471 N458 0.985 . S
C472 C473 1.363 . S
C472 C478 1.379 . S
C472 N480 1.356 . S
C473 C472 1.363 . S
C473 C479 1.363 . S
C474 C475 1.363 . S
C474 C479 1.379 . S
C474 N481 1.356 . S
C475 C474 1.363 . S
C475 C478 1.363 . S
N476 C478 1.356 . S
N476 H488 0.984 . S
N476 H489 0.985 . S
N477 C479 1.356 . S
N477 H482 0.984 . S
N477 H483 0.985 . S
C478 C472 1.379 . S
C478 C475 1.363 . S
C478 N476 1.356 . S
C479 C473 1.363 . S
C479 C474 1.379 . S
C479 N477 1.356 . S
N480 C472 1.356 . S
N480 H486 0.984 . S
N480 H487 0.984 . S
N481 C474 1.356 . S
N481 H484 0.984 . S
N481 H485 0.985 . S
H482 N477 0.984 . S
H483 N477 0.985 . S
H484 N481 0.984 . S
H485 N481 0.985 . S
H486 N480 0.984 . S
H487 N480 0.984 . S
H488 N476 0.984 . S
H489 N476 0.985 . S
C490 C491 1.363 . S
C490 C496 1.379 . S
C490 N498 1.356 . S
C491 C490 1.363 . S
C491 C497 1.363 . S
C492 C493 1.363 . S
C492 C497 1.379 . S
C492 N499 1.356 . S
C493 C492 1.363 . S
C493 C496 1.363 . S
N494 C496 1.356 . S
N494 H506 0.984 . S
N494 H507 0.985 . S
N495 C497 1.356 . S
N495 H500 0.984 . S
N495 H501 0.985 . S
C496 C490 1.379 . S
C496 C493 1.363 . S
C496 N494 1.356 . S
C497 C491 1.363 . S
C497 C492 1.379 . S
C497 N495 1.356 . S
N498 C490 1.356 . S
N498 H504 0.984 . S
N498 H505 0.984 . S
N499 C492 1.356 . S
N499 H502 0.984 . S
N499 H503 0.985 . S
H500 N495 0.984 . S
H501 N495 0.985 . S
H502 N499 0.984 . S
H503 N499 0.985 . S
H504 N498 0.984 . S
H505 N498 0.984 . S
H506 N494 0.984 . S
H507 N494 0.985 . S
C508 C509 1.363 . S
C508 C514 1.379 . S
C508 N516 1.356 . S
C509 C508 1.363 . S
C509 C515 1.363 . S
C510 C511 1.363 . S
C510 C515 1.379 . S
C510 N517 1.356 . S
C511 C510 1.363 . S
C511 C514 1.363 . S
N512 C514 1.356 1_554 S
N512 H524 0.984 . S
N512 H525 0.985 . S
N513 C515 1.356 . S
N513 H518 0.984 . S
N513 H519 0.985 . S
C514 C508 1.379 . S
C514 C511 1.363 . S
C514 N512 1.356 1_556 S
C515 C509 1.363 . S
C515 C510 1.379 . S
C515 N513 1.356 . S
N516 C508 1.356 . S
N516 H522 0.984 . S
N516 H523 0.984 . S
N517 C510 1.356 . S
N517 H520 0.984 . S
N517 H521 0.985 . S
H518 N513 0.984 . S
H519 N513 0.985 . S
H520 N517 0.984 . S
H521 N517 0.985 . S
H522 N516 0.984 . S
H523 N516 0.984 . S
H524 N512 0.984 . S
H525 N512 0.985 . S
C526 C527 1.363 . S
C526 C532 1.379 . S
C526 N534 1.356 . S
C527 C526 1.363 . S
C527 C533 1.363 . S
C528 C529 1.363 . S
C528 C533 1.379 . S
C528 N535 1.356 . S
C529 C528 1.363 . S
C529 C532 1.363 . S
N530 C532 1.356 . S
N530 H542 0.984 . S
N530 H543 0.985 . S
N531 C533 1.356 . S
N531 H536 0.984 . S
N531 H537 0.985 . S
C532 C526 1.379 . S
C532 C529 1.363 . S
C532 N530 1.356 . S
C533 C527 1.363 . S
C533 C528 1.379 . S
C533 N531 1.356 . S
N534 C526 1.356 . S
N534 H540 0.984 . S
N534 H541 0.984 . S
N535 C528 1.356 . S
N535 H538 0.984 . S
N535 H539 0.985 . S
H536 N531 0.984 . S
H537 N531 0.985 . S
H538 N535 0.984 . S
H539 N535 0.985 . S
H540 N534 0.984 . S
H541 N534 0.984 . S
H542 N530 0.984 . S
H543 N530 0.985 . S
C544 C545 1.363 . S
C544 C550 1.379 . S
C544 N552 1.356 . S
C545 C544 1.363 . S
C545 C551 1.363 . S
C546 C547 1.363 . S
C546 C551 1.379 . S
C546 N553 1.356 . S
C547 C546 1.363 . S
C547 C550 1.363 . S
N548 C550 1.356 . S
N548 H560 0.984 . S
N548 H561 0.985 . S
N549 C551 1.356 . S
N549 H554 0.984 . S
N549 H555 0.985 . S
C550 C544 1.379 . S
C550 C547 1.363 . S
C550 N548 1.356 . S
C551 C545 1.363 . S
C551 C546 1.379 . S
C551 N549 1.356 . S
N552 C544 1.356 . S
N552 H558 0.984 . S
N552 H559 0.984 . S
N553 C546 1.356 . S
N553 H556 0.984 . S
N553 H557 0.985 . S
H554 N549 0.984 . S
H555 N549 0.985 . S
H556 N553 0.984 . S
H557 N553 0.985 . S
H558 N552 0.984 . S
H559 N552 0.984 . S
H560 N548 0.984 . S
H561 N548 0.985 . S
C562 C563 1.363 . S
C562 C568 1.379 . S
C562 N570 1.356 . S
C563 C562 1.363 . S
C563 C569 1.363 . S
C564 C565 1.363 . S
C564 C569 1.379 . S
C564 N571 1.356 . S
C565 C564 1.363 . S
C565 C568 1.363 . S
N566 C568 1.356 1_554 S
N566 H578 0.984 . S
N566 H579 0.985 . S
N567 C569 1.356 . S
N567 H572 0.984 . S
N567 H573 0.985 . S
C568 C562 1.379 . S
C568 C565 1.363 . S
C568 N566 1.356 1_556 S
C569 C563 1.363 . S
C569 C564 1.379 . S
C569 N567 1.356 . S
N570 C562 1.356 . S
N570 H576 0.984 . S
N570 H577 0.984 . S
N571 C564 1.356 . S
N571 H574 0.984 . S
N571 H575 0.985 . S
H572 N567 0.984 . S
H573 N567 0.985 . S
H574 N571 0.984 . S
H575 N571 0.985 . S
H576 N570 0.984 . S
H577 N570 0.984 . S
H578 N566 0.984 . S
H579 N566 0.985 . S
C580 C581 1.363 . S
C580 C586 1.379 . S
C580 N588 1.356 . S
C581 C580 1.363 . S
C581 C587 1.363 . S
C582 C583 1.363 . S
C582 C587 1.379 . S
C582 N589 1.356 . S
C583 C582 1.363 . S
C583 C586 1.363 . S
N584 C586 1.356 . S
N584 H596 0.984 . S
N584 H597 0.985 . S
N585 C587 1.356 . S
N585 H590 0.984 . S
N585 H591 0.985 . S
C586 C580 1.379 . S
C586 C583 1.363 . S
C586 N584 1.356 . S
C587 C581 1.363 . S
C587 C582 1.379 . S
C587 N585 1.356 . S
N588 C580 1.356 . S
N588 H594 0.984 . S
N588 H595 0.984 . S
N589 C582 1.356 . S
N589 H592 0.984 . S
N589 H593 0.985 . S
H590 N585 0.984 . S
H591 N585 0.985 . S
H592 N589 0.984 . S
H593 N589 0.985 . S
H594 N588 0.984 . S
H595 N588 0.984 . S
H596 N584 0.984 . S
H597 N584 0.985 . S
C598 C599 1.363 . S
C598 C604 1.379 . S
C598 N606 1.356 . S
C599 C598 1.363 . S
C599 C605 1.363 . S
C600 C601 1.363 . S
C600 C605 1.379 . S
C600 N607 1.356 . S
C601 C600 1.363 . S
C601 C604 1.363 . S
N602 C604 1.356 . S
N602 H614 0.984 . S
N602 H615 0.985 . S
N603 C605 1.356 . S
N603 H608 0.984 . S
N603 H609 0.985 . S
C604 C598 1.379 . S
C604 C601 1.363 . S
C604 N602 1.356 . S
C605 C599 1.363 . S
C605 C600 1.379 . S
C605 N603 1.356 . S
N606 C598 1.356 . S
N606 H612 0.984 . S
N606 H613 0.984 . S
N607 C600 1.356 . S
N607 H610 0.984 . S
N607 H611 0.985 . S
H608 N603 0.984 . S
H609 N603 0.985 . S
H610 N607 0.984 . S
H611 N607 0.985 . S
H612 N606 0.984 . S
H613 N606 0.984 . S
H614 N602 0.984 . S
H615 N602 0.985 . S
C616 C617 1.363 . S
C616 C622 1.379 . S
C616 N624 1.356 . S
C617 C616 1.363 . S
C617 C623 1.363 . S
C618 C619 1.363 . S
C618 C623 1.379 . S
C618 N625 1.356 . S
C619 C618 1.363 . S
C619 C622 1.363 . S
N620 C622 1.356 . S
N620 H632 0.984 . S
N620 H633 0.985 . S
N621 C623 1.356 . S
N621 H626 0.984 . S
N621 H627 0.985 . S
C622 C616 1.379 . S
C622 C619 1.363 . S
C622 N620 1.356 . S
C623 C617 1.363 . S
C623 C618 1.379 . S
C623 N621 1.356 . S
N624 C616 1.356 . S
N624 H630 0.984 . S
N624 H631 0.984 . S
N625 C618 1.356 . S
N625 H628 0.984 . S
N625 H629 0.985 . S
H626 N621 0.984 . S
H627 N621 0.985 . S
H628 N625 0.984 . S
H629 N625 0.985 . S
H630 N624 0.984 . S
H631 N624 0.984 . S
H632 N620 0.984 . S
H633 N620 0.985 . S
C634 C635 1.363 . S
C634 C640 1.379 . S
C634 N642 1.356 . S
C635 C634 1.363 . S
C635 C641 1.363 . S
C636 C637 1.363 . S
C636 C641 1.379 . S
C636 N643 1.356 . S
C637 C636 1.363 . S
C637 C640 1.363 . S
N638 C640 1.356 . S
N638 H650 0.984 1_545 S
N638 H651 0.985 . S
N639 C641 1.356 . S
N639 H644 0.984 . S
N639 H645 0.985 . S
C640 C634 1.379 . S
C640 C637 1.363 . S
C640 N638 1.356 . S
C641 C635 1.363 . S
C641 C636 1.379 . S
C641 N639 1.356 . S
N642 C634 1.356 . S
N642 H648 0.984 1_545 S
N642 H649 0.984 . S
N643 C636 1.356 . S
N643 H646 0.984 . S
N643 H647 0.985 . S
H644 N639 0.984 . S
H645 N639 0.985 . S
H646 N643 0.984 . S
H647 N643 0.985 . S
H648 N642 0.984 1_565 S
H649 N642 0.984 . S
H650 N638 0.984 1_565 S
H651 N638 0.985 . S
C652 C653 1.363 . S
C652 C658 1.379 . S
C652 N660 1.356 . S
C653 C652 1.363 . S
C653 C659 1.363 . S
C654 C655 1.363 . S
C654 C659 1.379 . S
C654 N661 1.356 . S
C655 C654 1.363 . S
C655 C658 1.363 . S
N656 C658 1.356 . S
N656 H668 0.984 . S
N656 H669 0.985 . S
N657 C659 1.356 . S
N657 H662 0.984 . S
N657 H663 0.985 . S
C658 C652 1.379 . S
C658 C655 1.363 . S
C658 N656 1.356 . S
C659 C653 1.363 . S
C659 C654 1.379 . S
C659 N657 1.356 . S
N660 C652 1.356 . S
N660 H666 0.984 . S
N660 H667 0.984 . S
N661 C654 1.356 . S
N661 H664 0.984 . S
N661 H665 0.985 . S
H662 N657 0.984 . S
H663 N657 0.985 . S
H664 N661 0.984 . S
H665 N661 0.985 . S
H666 N660 0.984 . S
H667 N660 0.984 . S
H668 N656 0.984 . S
H669 N656 0.985 . S
C670 C671 1.363 . S
C670 C676 1.379 . S
C670 N678 1.356 . S
C671 C670 1.363 . S
C671 C677 1.363 . S
C672 C673 1.363 . S
C672 C677 1.379 . S
C672 N679 1.356 . S
C673 C672 1.363 . S
C673 C676 1.363 . S
N674 C676 1.356 . S
N674 H686 0.984 . S
N674 H687 0.985 . S
N675 C677 1.356 . S
N675 H680 0.984 . S
N675 H681 0.985 . S
C676 C670 1.379 . S
C676 C673 1.363 . S
C676 N674 1.356 . S
C677 C671 1.363 . S
C677 C672 1.379 . S
C677 N675 1.356 . S
N678 C670 1.356 . S
N678 H684 0.984 . S
N678 H685 0.984 . S
N679 C672 1.356 . S
N679 H682 0.984 . S
N679 H683 0.985 1_455 S
H680 N675 0.984 . S
H681 N675 0.985 . S
H682 N679 0.984 . S
H683 N679 0.985 1_655 S
H684 N678 0.984 . S
H685 N678 0.984 . S
H686 N674 0.984 . S
H687 N674 0.985 . S
C688 C689 1.363 . S
C688 C694 1.379 . S
C688 N696 1.356 . S
C689 C688 1.363 . S
C689 C695 1.363 . S
C690 C691 1.363 . S
C690 C695 1.379 . S
C690 N697 1.356 . S
C691 C690 1.363 . S
C691 C694 1.363 . S
N692 C694 1.356 . S
N692 H704 0.988 . S
N692 H705 0.985 . S
N693 C695 1.356 . S
N693 H698 0.984 . S
N693 H699 0.985 . S
C694 C688 1.379 . S
C694 C691 1.363 . S
C694 N692 1.356 . S
C695 C689 1.363 . S
C695 C690 1.379 . S
C695 N693 1.356 . S
N696 C688 1.356 . S
N696 H702 0.984 . S
N696 H703 0.984 . S
N697 C690 1.356 . S
N697 H700 0.984 . S
N697 H701 0.985 . S
H698 N693 0.984 . S
H699 N693 0.985 . S
H700 N697 0.984 . S
H701 N697 0.985 . S
H702 N696 0.984 . S
H703 N696 0.984 . S
H704 N692 0.988 . S
H705 N692 0.985 . S
C706 C707 1.363 . S
C706 C712 1.379 . S
C706 N714 1.356 . S
C707 C706 1.363 . S
C707 C713 1.363 . S
C708 C709 1.363 . S
C708 C713 1.379 . S
C708 N715 1.356 . S
C709 C708 1.363 . S
C709 C712 1.363 . S
N710 C712 1.356 . S
N710 H722 0.984 . S
N710 H723 0.985 . S
N711 C713 1.356 . S
N711 H716 0.984 . S
N711 H717 0.985 . S
C712 C706 1.379 . S
C712 C709 1.363 . S
C712 N710 1.356 . S
C713 C707 1.363 . S
C713 C708 1.379 . S
C713 N711 1.356 . S
N714 C706 1.356 . S
N714 H720 0.984 . S
N714 H721 0.984 . S
N715 C708 1.356 . S
N715 H718 0.984 . S
N715 H719 0.985 . S
H716 N711 0.984 . S
H717 N711 0.985 . S
H718 N715 0.984 . S
H719 N715 0.985 . S
H720 N714 0.984 . S
H721 N714 0.984 . S
H722 N710 0.984 . S
H723 N710 0.985 . S
C724 C725 1.363 . S
C724 C730 1.379 . S
C724 N732 1.356 . S
C725 C724 1.363 . S
C725 C731 1.363 . S
C726 C727 1.363 . S
C726 C731 1.379 . S
C726 N733 1.356 1_554 S
C727 C726 1.363 . S
C727 C730 1.363 . S
N728 C730 1.356 . S
N728 H740 0.984 . S
N728 H741 0.985 . S
N729 C731 1.356 . S
N729 H734 0.984 . S
N729 H735 0.985 . S
C730 C724 1.379 . S
C730 C727 1.363 . S
C730 N728 1.356 . S
C731 C725 1.363 . S
C731 C726 1.379 . S
C731 N729 1.356 . S
N732 C724 1.356 . S
N732 H738 0.984 . S
N732 H739 0.984 . S
N733 C726 1.356 1_556 S
N733 H736 0.984 . S
N733 H737 0.985 . S
H734 N729 0.984 . S
H735 N729 0.985 . S
H736 N733 0.984 . S
H737 N733 0.985 . S
H738 N732 0.984 . S
H739 N732 0.984 . S
H740 N728 0.984 . S
H741 N728 0.985 . S
C742 C743 1.363 . S
C742 C748 1.379 . S
C742 N750 1.356 . S
C743 C742 1.363 . S
C743 C749 1.363 . S
C744 C745 1.363 . S
C744 C749 1.379 . S
C744 N751 1.356 . S
C745 C744 1.363 . S
C745 C748 1.363 . S
N746 C748 1.356 . S
N746 H758 0.984 . S
N746 H759 0.985 . S
N747 C749 1.356 . S
N747 H752 0.984 . S
N747 H753 0.985 . S
C748 C742 1.379 . S
C748 C745 1.363 . S
C748 N746 1.356 . S
C749 C743 1.363 . S
C749 C744 1.379 . S
C749 N747 1.356 . S
N750 C742 1.356 . S
N750 H756 0.984 . S
N750 H757 0.984 . S
N751 C744 1.356 . S
N751 H754 0.984 . S
N751 H755 0.985 . S
H752 N747 0.984 . S
H753 N747 0.985 . S
H754 N751 0.984 . S
H755 N751 0.985 . S
H756 N750 0.984 . S
H757 N750 0.984 . S
H758 N746 0.984 . S
H759 N746 0.985 . S
C760 C761 1.363 . S
C760 C766 1.379 . S
C760 N768 1.356 . S
C761 C760 1.363 . S
C761 C767 1.363 . S
C762 C763 1.363 . S
C762 C767 1.379 . S
C762 N769 1.356 . S
C763 C762 1.363 . S
C763 C766 1.363 . S
N764 C766 1.356 . S
N764 H776 0.984 . S
N764 H777 0.985 . S
N765 C767 1.356 . S
N765 H770 0.984 . S
N765 H771 0.985 . S
C766 C760 1.379 . S
C766 C763 1.363 . S
C766 N764 1.356 . S
C767 C761 1.363 . S
C767 C762 1.379 . S
C767 N765 1.356 . S
N768 C760 1.356 . S
N768 H774 0.984 . S
N768 H775 0.984 . S
N769 C762 1.356 . S
N769 H772 0.984 . S
N769 H773 0.985 . S
H770 N765 0.984 . S
H771 N765 0.985 . S
H772 N769 0.984 . S
H773 N769 0.985 . S
H774 N768 0.984 . S
H775 N768 0.984 . S
H776 N764 0.984 . S
H777 N764 0.985 . S
C778 C779 1.363 . S
C778 C784 1.379 . S
C778 N786 1.356 . S
C779 C778 1.363 . S
C779 C785 1.363 . S
C780 C781 1.363 . S
C780 C785 1.379 . S
C780 N787 1.356 . S
C781 C780 1.363 . S
C781 C784 1.363 . S
N782 C784 1.356 . S
N782 H794 0.984 . S
N782 H795 0.985 . S
N783 C785 1.356 . S
N783 H788 0.984 . S
N783 H789 0.985 . S
C784 C778 1.379 . S
C784 C781 1.363 . S
C784 N782 1.356 . S
C785 C779 1.363 . S
C785 C780 1.379 . S
C785 N783 1.356 . S
N786 C778 1.356 . S
N786 H792 0.984 . S
N786 H793 0.984 . S
N787 C780 1.356 . S
N787 H790 0.984 . S
N787 H791 0.985 . S
H788 N783 0.984 . S
H789 N783 0.985 . S
H790 N787 0.984 . S
H791 N787 0.985 . S
H792 N786 0.984 . S
H793 N786 0.984 . S
H794 N782 0.984 . S
H795 N782 0.985 . S
C796 C797 1.363 . S
C796 C802 1.379 . S
C796 N804 1.356 . S
C797 C796 1.363 . S
C797 C803 1.363 . S
C798 C799 1.363 . S
C798 C803 1.379 . S
C798 N805 1.356 . S
C799 C798 1.363 . S
C799 C802 1.363 . S
N800 C802 1.356 . S
N800 H812 0.994 . S
N800 H813 0.985 . S
N801 C803 1.356 . S
N801 H806 0.984 . S
N801 H807 0.985 . S
C802 C796 1.379 . S
C802 C799 1.363 . S
C802 N800 1.356 . S
C803 C797 1.363 . S
C803 C798 1.379 . S
C803 N801 1.356 . S
N804 C796 1.356 . S
N804 H810 0.984 . S
N804 H811 0.984 . S
N805 C798 1.356 . S
N805 H808 0.984 . S
N805 H809 0.985 . S
H806 N801 0.984 . S
H807 N801 0.985 . S
H808 N805 0.984 . S
H809 N805 0.985 . S
H810 N804 0.984 . S
H811 N804 0.984 . S
H812 N800 0.994 . S
H813 N800 0.985 . S
C814 C815 1.363 . S
C814 C820 1.379 . S
C814 N822 1.356 . S
C815 C814 1.363 . S
C815 C821 1.363 . S
C816 C817 1.363 . S
C816 C821 1.379 . S
C816 N823 1.356 . S
C817 C816 1.363 . S
C817 C820 1.363 . S
N818 C820 1.356 . S
N818 H830 0.984 . S
N818 H831 0.985 . S
N819 C821 1.356 . S
N819 H824 0.984 . S
N819 H825 0.985 . S
C820 C814 1.379 . S
C820 C817 1.363 . S
C820 N818 1.356 . S
C821 C815 1.363 . S
C821 C816 1.379 . S
C821 N819 1.356 . S
N822 C814 1.356 . S
N822 H828 0.984 . S
N822 H829 0.984 . S
N823 C816 1.356 . S
N823 H826 0.984 . S
N823 H827 0.985 . S
H824 N819 0.984 . S
H825 N819 0.985 . S
H826 N823 0.984 . S
H827 N823 0.985 . S
H828 N822 0.984 . S
H829 N822 0.984 . S
H830 N818 0.984 . S
H831 N818 0.985 . S
C401 C21 1.551 . S
C403 C322 1.710 . S
C419 C61 1.376 . S
C421 C341 1.370 . S
C439 C378 1.702 . S
C437 C82 1.733 . S
C455 C135 1.757 . S
C457 C388 1.692 . S
C475 C358 2.139 . S
C473 C15 2.026 . S
C493 C328 1.437 . S
C491 C42 1.499 . S
C511 C399 1.519 . S
C509 C101 1.533 . S
C529 C369 1.427 . S
C527 C122 1.452 . S
C545 C2 1.740 . S
C547 C382 1.890 . S
C565 C349 1.651 . S
C563 C95 1.708 . S
C581 C141 1.791 . S
C583 C339 1.790 . S
C599 C55 1.291 . S
C601 C361 1.321 . S
C619 C321 1.722 . S
C617 C181 1.706 . S
C635 C202 1.345 . S
C637 C342 1.355 . S
C653 C255 1.757 . S
C655 C379 1.722 . S
C671 C295 1.737 . S
C673 C389 1.670 . S
C689 C175 2.022 . S
C691 C359 2.120 . S
C709 C329 1.458 . S
C707 C221 1.506 . S
C727 C398 1.469 . S
C725 C242 1.489 . S
C745 C368 1.483 . S
C743 C301 1.514 . S
C761 C162 1.842 . S
C763 C381 1.872 . S
C781 C348 1.681 . S
C779 C261 1.725 . S
C799 C338 1.772 . S
C797 C282 1.766 . S
C815 C215 1.329 . S
C817 C362 1.365 . S
