# Generated by pormake.
# Topology zzz, (3,6)-cn, num edge types: 1
# Building blocks:
#     Node 0, Type 0, BuildingBlock: OLANEW_clean_sbu_2, # of connection points: 3
#     Node 1, Type 0, BuildingBlock: OLANEW_clean_sbu_2, # of connection points: 3
#     Node 2, Type 0, BuildingBlock: OLANEW_clean_sbu_2, # of connection points: 3
#     Node 3, Type 0, BuildingBlock: OLANEW_clean_sbu_2, # of connection points: 3
#     Node 4, Type 0, BuildingBlock: OLANEW_clean_sbu_2, # of connection points: 3
#     Node 5, Type 0, BuildingBlock: OLANEW_clean_sbu_2, # of connection points: 3
#     Node 6, Type 0, BuildingBlock: OLANEW_clean_sbu_2, # of connection points: 3
#     Node 7, Type 0, BuildingBlock: OLANEW_clean_sbu_2, # of connection points: 3
#     Node 8, Type 1, BuildingBlock: PAMTUU_clean_sbu_0, # of connection points: 6
#     Node 9, Type 1, BuildingBlock: PAMTUU_clean_sbu_0, # of connection points: 6
#     Node 10, Type 1, BuildingBlock: PAMTUU_clean_sbu_0, # of connection points: 6
#     Node 11, Type 1, BuildingBlock: PAMTUU_clean_sbu_0, # of connection points: 6
#     Edge 12, Type (0, 1), BuildingBlock: XUDNAN_clean_linker_2, # of connection points: 2
#     Edge 13, Type (0, 1), BuildingBlock: XUDNAN_clean_linker_2, # of connection points: 2
#     Edge 14, Type (0, 1), BuildingBlock: XUDNAN_clean_linker_2, # of connection points: 2
#     Edge 15, Type (0, 1), BuildingBlock: XUDNAN_clean_linker_2, # of connection points: 2
#     Edge 16, Type (0, 1), BuildingBlock: XUDNAN_clean_linker_2, # of connection points: 2
#     Edge 17, Type (0, 1), BuildingBlock: XUDNAN_clean_linker_2, # of connection points: 2
#     Edge 18, Type (0, 1), BuildingBlock: XUDNAN_clean_linker_2, # of connection points: 2
#     Edge 19, Type (0, 1), BuildingBlock: XUDNAN_clean_linker_2, # of connection points: 2
#     Edge 20, Type (0, 1), BuildingBlock: XUDNAN_clean_linker_2, # of connection points: 2
#     Edge 21, Type (0, 1), BuildingBlock: XUDNAN_clean_linker_2, # of connection points: 2
#     Edge 22, Type (0, 1), BuildingBlock: XUDNAN_clean_linker_2, # of connection points: 2
#     Edge 23, Type (0, 1), BuildingBlock: XUDNAN_clean_linker_2, # of connection points: 2
#     Edge 24, Type (0, 1), BuildingBlock: XUDNAN_clean_linker_2, # of connection points: 2
#     Edge 25, Type (0, 1), BuildingBlock: XUDNAN_clean_linker_2, # of connection points: 2
#     Edge 26, Type (0, 1), BuildingBlock: XUDNAN_clean_linker_2, # of connection points: 2
#     Edge 27, Type (0, 1), BuildingBlock: XUDNAN_clean_linker_2, # of connection points: 2
#     Edge 28, Type (0, 1), BuildingBlock: XUDNAN_clean_linker_2, # of connection points: 2
#     Edge 29, Type (0, 1), BuildingBlock: XUDNAN_clean_linker_2, # of connection points: 2
#     Edge 30, Type (0, 1), BuildingBlock: XUDNAN_clean_linker_2, # of connection points: 2
#     Edge 31, Type (0, 1), BuildingBlock: XUDNAN_clean_linker_2, # of connection points: 2
#     Edge 32, Type (0, 1), BuildingBlock: XUDNAN_clean_linker_2, # of connection points: 2
#     Edge 33, Type (0, 1), BuildingBlock: XUDNAN_clean_linker_2, # of connection points: 2
#     Edge 34, Type (0, 1), BuildingBlock: XUDNAN_clean_linker_2, # of connection points: 2
#     Edge 35, Type (0, 1), BuildingBlock: XUDNAN_clean_linker_2, # of connection points: 2
# Relax obj value: 0.201
# Max RMSD: 0.228
# Mean RMSD: 0.130
data_MOF--net-zzz--node1-OLANEW_clean_sbu_2--node2-PAMTUU_clean_sbu_0--edge1-XUDNAN_clean_linker_2
_symmetry_space_group_name_H-M    P1
_symmetry_Int_Tables_number       1
_symmetry_cell_setting            triclinic
loop_
_symmetry_equiv_pos_as_xyz
'x, y, z'
_cell_length_a     55.396368
_cell_length_b     57.251777
_cell_length_c     17.500446
_cell_angle_alpha  100.68763
_cell_angle_beta   90.026666
_cell_angle_gamma 90.677531
loop_
_atom_site_label
_atom_site_type_symbol
_atom_site_fract_x
_atom_site_fract_y
_atom_site_fract_z
_atom_type_partial_charge
O0 O 0.72658 0.56784 0.29335 0.0
Cd1 Cd 0.69011 0.58991 0.33655 0.0
O2 O 0.74249 0.58126 0.40795 0.0
Cd3 Cd 0.77297 0.58549 0.48851 0.0
O4 O 0.80808 0.58294 0.54187 0.0
C5 C 0.81299 0.56453 0.56945 0.0
O6 O 0.79637 0.54787 0.56768 0.0
C7 C 0.74413 0.56857 0.34036 0.0
C8 C 0.65014 0.56675 0.25975 0.0
O9 O 0.66216 0.58233 0.2311 0.0
O10 O 0.65679 0.56237 0.32578 0.0
O11 O 0.90384 0.74943 0.20153 0.0
Cd12 Cd 0.89279 0.71715 0.26853 0.0
O13 O 0.93335 0.75446 0.28574 0.0
Cd14 Cd 0.9649 0.77101 0.34887 0.0
O15 O 0.97535 0.80095 0.43832 0.0
C16 C 0.96843 0.8007 0.50732 0.0
O17 O 0.95737 0.78165 0.52239 0.0
C18 C 0.92245 0.76112 0.22955 0.0
C19 C 0.92156 0.67787 0.21784 0.0
O20 O 0.90045 0.6794 0.18925 0.0
O21 O 0.92903 0.69486 0.27115 0.0
O22 O 0.77886 0.00192 0.47796 0.0
Cd23 Cd 0.81797 0.01793 0.5269 0.0
O24 O 0.77056 0.03913 0.47495 0.0
Cd25 Cd 0.74238 0.0646 0.46471 0.0
O26 O 0.70431 0.06047 0.48944 0.0
C27 C 0.69931 0.05744 0.55778 0.0
O28 O 0.71669 0.05959 0.60985 0.0
C29 C 0.76429 0.01729 0.46205 0.0
C30 C 0.84667 0.02267 0.40036 0.0
O31 O 0.84883 0.00472 0.43392 0.0
O32 O 0.83133 0.03862 0.4277 0.0
O33 O 0.59061 0.69596 0.76726 0.0
Cd34 Cd 0.61161 0.73259 0.7505 0.0
O35 O 0.59679 0.70252 0.89366 0.0
Cd36 Cd 0.59403 0.69378 0.01143 0.0
O37 O 0.59616 0.67152 0.10137 0.0
C38 C 0.57884 0.65778 0.1129 0.0
O39 O 0.55874 0.65788 0.07308 0.0
C40 C 0.58894 0.68905 0.83206 0.0
C41 C 0.58872 0.77579 0.80304 0.0
O42 O 0.5851 0.76425 0.73383 0.0
O43 O 0.60242 0.76646 0.84798 0.0
O44 O 0.26929 0.52232 0.26526 0.0
Cd45 Cd 0.30521 0.5267 0.18844 0.0
O46 O 0.26303 0.48851 0.1858 0.0
Cd47 Cd 0.23996 0.45858 0.13442 0.0
O48 O 0.20525 0.44653 0.08318 0.0
C49 C 0.18924 0.43754 0.12127 0.0
O50 O 0.19457 0.43342 0.19065 0.0
C51 C 0.25677 0.50346 0.24547 0.0
C52 C 0.34394 0.51179 0.26708 0.0
O53 O 0.33772 0.53365 0.27899 0.0
O54 O 0.33236 0.49704 0.21551 0.0
O55 O 0.95185 0.23425 0.33073 0.0
Cd56 Cd 0.93956 0.26731 0.27024 0.0
O57 O 0.98988 0.24441 0.32051 0.0
Cd58 Cd 0.0279 0.23473 0.31906 0.0
O59 O 0.04793 0.20366 0.26488 0.0
C60 C 0.05485 0.20273 0.19525 0.0
O61 O 0.05244 0.22167 0.16359 0.0
C62 C 0.97406 0.23065 0.34169 0.0
C63 C 0.95939 0.30954 0.35114 0.0
O64 O 0.93957 0.30103 0.37281 0.0
O65 O 0.96979 0.29821 0.2902 0.0
O66 O 0.23476 0.99928 0.36218 0.0
Cd67 Cd 0.19839 0.00396 0.28858 0.0
O68 O 0.25471 0.02395 0.30327 0.0
Cd69 Cd 0.28667 0.04277 0.27369 0.0
O70 O 0.31906 0.03542 0.20473 0.0
C71 C 0.31639 0.01856 0.14692 0.0
O72 O 0.29483 0.00894 0.13209 0.0
C73 C 0.25439 0.00981 0.35139 0.0
C74 C 0.1595 0.99481 0.37861 0.0
O75 O 0.17006 0.97787 0.33325 0.0
O76 O 0.16683 0.01617 0.37926 0.0
O77 O 0.47255 0.25899 0.70251 0.0
Cd78 Cd 0.45504 0.22109 0.63573 0.0
O79 O 0.4619 0.27335 0.59988 0.0
Cd80 Cd 0.45498 0.30316 0.54089 0.0
O81 O 0.44976 0.33579 0.49538 0.0
C82 C 0.43484 0.33768 0.44179 0.0
O83 O 0.42155 0.31916 0.41102 0.0
C84 C 0.47135 0.27648 0.66733 0.0
C85 C 0.46377 0.18168 0.70456 0.0
O86 O 0.47693 0.18599 0.64842 0.0
O87 O 0.44687 0.19623 0.72917 0.0
Tb88 Tb 0.98432 0.01532 0.80953 0.0
Tb89 Tb 0.01292 0.99028 0.93975 0.0
C90 C 0.96156 0.01215 0.97047 0.0
C91 C 0.96918 0.05305 0.66547 0.0
C92 C 0.98022 0.09057 0.58674 0.0
C93 C 0.95607 0.0845 0.59993 0.0
C94 C 0.95063 0.06589 0.6388 0.0
C95 C 0.99332 0.05882 0.65205 0.0
C96 C 0.99879 0.07735 0.6127 0.0
C97 C 0.96306 0.03427 0.70931 0.0
O98 O 0.00339 0.04396 0.88591 0.0
O99 O 0.03131 0.02431 0.94961 0.0
O100 O 0.03289 0.98266 0.83071 0.0
O101 O 0.02185 0.01454 0.7766 0.0
O102 O 0.02155 0.98765 0.05499 0.0
O103 O 0.03318 0.96112 0.95883 0.0
O104 O 0.98307 0.96754 0.89189 0.0
O105 O 0.98305 0.97694 0.77136 0.0
O106 O 0.95758 0.00991 0.89553 0.0
O107 O 0.98314 0.01 0.99882 0.0
C108 C 0.0227 0.04367 0.9298 0.0
O109 O 0.97547 0.01478 0.69266 0.0
O110 O 0.96053 0.04118 0.78411 0.0
C111 C 0.03625 0.9968 0.78034 0.0
C112 C 0.01737 0.94743 0.06572 0.0
C113 C 0.99346 0.90677 0.09807 0.0
C114 C 0.01846 0.90978 0.11075 0.0
C115 C 0.03041 0.92995 0.0939 0.0
C116 C 0.99219 0.94503 0.05769 0.0
C117 C 0.98037 0.92481 0.0732 0.0
C118 C 0.02989 0.96623 0.03369 0.0
C119 C 0.97935 0.96156 0.81712 0.0
H120 H 0.94131 0.09454 0.58214 0.0
H121 H 0.93191 0.06176 0.64918 0.0
H122 H 0.00792 0.04912 0.6725 0.0
H123 H 0.01756 0.08135 0.6028 0.0
H124 H 0.02889 0.89599 0.12961 0.0
H125 H 0.04987 0.93139 0.09965 0.0
H126 H 0.98178 0.95831 0.03595 0.0
H127 H 0.96106 0.92291 0.0635 0.0
Tb128 Tb 0.50428 0.9718 0.75039 0.0
Tb129 Tb 0.52646 0.99264 0.92693 0.0
C130 C 0.53108 0.93914 0.84945 0.0
C131 C 0.46077 0.96529 0.59286 0.0
C132 C 0.41357 0.97568 0.55106 0.0
C133 C 0.42755 0.95926 0.50035 0.0
C134 C 0.45099 0.95395 0.52147 0.0
C135 C 0.44719 0.98242 0.64183 0.0
C136 C 0.42378 0.98748 0.62133 0.0
C137 C 0.48422 0.95826 0.62003 0.0
O138 O 0.47353 0.98018 0.82486 0.0
O139 O 0.4904 0.97877 0.9439 0.0
O140 O 0.50286 0.02005 0.90093 0.0
O141 O 0.50502 0.0106 0.76773 0.0
O142 O 0.53081 0.98801 0.04235 0.0
O143 O 0.5454 0.01905 0.00419 0.0
O144 O 0.55207 0.00159 0.84128 0.0
O145 O 0.5429 0.97196 0.73719 0.0
O146 O 0.51334 0.94092 0.80094 0.0
O147 O 0.54192 0.95788 0.89017 0.0
C148 C 0.47158 0.97829 0.89789 0.0
O149 O 0.50069 0.975 0.63309 0.0
O150 O 0.48288 0.9466 0.67716 0.0
C151 C 0.50042 0.02575 0.83214 0.0
C152 C 0.56621 0.00484 0.10464 0.0
C153 C 0.60808 0.99997 0.19188 0.0
C154 C 0.6095 0.99907 0.11104 0.0
C155 C 0.5887 0.00137 0.06765 0.0
C156 C 0.56473 0.00567 0.18504 0.0
C157 C 0.58545 0.00323 0.22829 0.0
C158 C 0.54394 0.00724 0.06106 0.0
C159 C 0.55704 0.98921 0.77192 0.0
H160 H 0.42002 0.94989 0.44593 0.0
H161 H 0.46122 0.94063 0.48314 0.0
H162 H 0.45449 0.99148 0.69696 0.0
H163 H 0.41351 0.00043 0.66097 0.0
H164 H 0.62666 0.99635 0.08124 0.0
H165 H 0.59018 0.00044 0.00542 0.0
H166 H 0.5475 0.00828 0.21451 0.0
H167 H 0.58379 0.00431 0.29052 0.0
Tb168 Tb 0.46993 0.49732 0.84562 0.0
Tb169 Tb 0.51196 0.4905 0.70926 0.0
C170 C 0.45807 0.48888 0.67251 0.0
C171 C 0.43107 0.48729 0.00691 0.0
C172 C 0.42559 0.46175 0.12875 0.0
C173 C 0.42269 0.48653 0.14272 0.0
C174 C 0.42535 0.4992 0.08208 0.0
C175 C 0.43328 0.46245 0.99254 0.0
C176 C 0.43044 0.4498 0.05282 0.0
C177 C 0.43685 0.501 0.94588 0.0
O178 O 0.47548 0.45921 0.8131 0.0
O179 O 0.51187 0.45626 0.74627 0.0
O180 O 0.53 0.50264 0.82034 0.0
O181 O 0.50283 0.48961 0.90309 0.0
O182 O 0.51882 0.48316 0.58941 0.0
O183 O 0.54781 0.49338 0.67092 0.0
O184 O 0.49915 0.52692 0.72512 0.0
O185 O 0.48746 0.53146 0.85207 0.0
O186 O 0.45502 0.50412 0.73719 0.0
O187 O 0.47756 0.47612 0.66226 0.0
C188 C 0.49426 0.447 0.78227 0.0
O189 O 0.45703 0.51311 0.95582 0.0
O190 O 0.43422 0.48989 0.87412 0.0
C191 C 0.52435 0.49766 0.88865 0.0
C192 C 0.54894 0.50837 0.55379 0.0
C193 C 0.56307 0.54267 0.46492 0.0
C194 C 0.57869 0.52416 0.47405 0.0
C195 C 0.57163 0.50711 0.5179 0.0
C196 C 0.53349 0.5271 0.54599 0.0
C197 C 0.54044 0.544 0.50162 0.0
C198 C 0.54129 0.49 0.59816 0.0
C199 C 0.4963 0.54027 0.79394 0.0
H200 H 0.41884 0.49612 0.20075 0.0
H201 H 0.4237 0.51837 0.09434 0.0
H202 H 0.43797 0.45284 0.93528 0.0
H203 H 0.43314 0.43075 0.04064 0.0
H204 H 0.59619 0.52262 0.44604 0.0
H205 H 0.58381 0.49284 0.52328 0.0
H206 H 0.51595 0.52857 0.57366 0.0
H207 H 0.52816 0.55822 0.4965 0.0
Tb208 Tb 0.01993 0.50595 0.79407 0.0
Tb209 Tb 0.97931 0.47752 0.88319 0.0
C210 C 0.99332 0.53047 0.94564 0.0
C211 C 0.07271 0.52026 0.67619 0.0
C212 C 0.11308 0.50889 0.57844 0.0
C213 C 0.09745 0.52723 0.56789 0.0
C214 C 0.07751 0.53287 0.6164 0.0
C215 C 0.08807 0.50176 0.68669 0.0
C216 C 0.10812 0.49619 0.63841 0.0
C217 C 0.05166 0.52681 0.72662 0.0
O218 O 0.03888 0.478 0.83602 0.0
O219 O 0.01411 0.47524 0.93859 0.0
O220 O 0.99463 0.45061 0.79416 0.0
O221 O 0.00855 0.47454 0.71085 0.0
O222 O 0.9677 0.46862 0.98822 0.0
O223 O 0.94806 0.45621 0.88175 0.0
O224 O 0.96017 0.49165 0.79343 0.0
O225 O 0.98571 0.52245 0.77868 0.0
O226 O 0.01421 0.52728 0.90976 0.0
O227 O 0.97579 0.51473 0.93148 0.0
C228 C 0.03501 0.47177 0.90335 0.0
O229 O 0.03065 0.52001 0.69639 0.0
O230 O 0.05339 0.52371 0.79843 0.0
C231 C 0.00163 0.45368 0.72499 0.0
C232 C 0.9257 0.46727 0.99704 0.0
C233 C 0.88565 0.48609 0.08597 0.0
C234 C 0.89378 0.46304 0.08847 0.0
C235 C 0.91368 0.45374 0.04445 0.0
C236 C 0.91733 0.49003 0.99266 0.0
C237 C 0.89744 0.49936 0.03667 0.0
C238 C 0.94799 0.45839 0.95725 0.0
C239 C 0.96448 0.51183 0.76999 0.0
H240 H 0.10043 0.5371 0.52154 0.0
H241 H 0.06578 0.5471 0.60712 0.0
H242 H 0.08466 0.49172 0.73238 0.0
H243 H 0.1199 0.48214 0.64883 0.0
H244 H 0.88488 0.45223 0.12495 0.0
H245 H 0.91997 0.43617 0.04862 0.0
H246 H 0.92655 0.5008 0.95669 0.0
H247 H 0.89182 0.51725 0.034 0.0
H248 H 0.12758 0.02621 0.45934 0.0
H249 H 0.14868 0.95216 0.41991 0.0
H250 H 0.11942 0.94453 0.51914 0.0
H251 H 0.12024 0.03407 0.66258 0.0
H252 H 0.09405 0.05264 0.66615 0.0
H253 H 0.1159 0.05217 0.58976 0.0
H254 H 0.08229 0.0407 0.48596 0.0
H255 H 0.06029 0.0414 0.5621 0.0
H256 H 0.06339 0.01502 0.48867 0.0
H257 H 0.09007 0.94571 0.62932 0.0
H258 H 0.05947 0.95469 0.7331 0.0
H259 H 0.05659 0.02753 0.69616 0.0
C260 C 0.12587 0.00834 0.47104 0.0
C261 C 0.14042 0.98978 0.43222 0.0
C262 C 0.13762 0.96662 0.44883 0.0
C263 C 0.12114 0.96213 0.50528 0.0
C264 C 0.10742 0.98093 0.54364 0.0
C265 C 0.10931 0.00349 0.52636 0.0
C266 C 0.09241 0.02056 0.57579 0.0
C267 C 0.1065 0.04106 0.62658 0.0
C268 C 0.07347 0.02997 0.5251 0.0
C269 C 0.08105 0.00418 0.6245 0.0
C270 C 0.09003 0.98144 0.60544 0.0
C271 C 0.08274 0.96341 0.64431 0.0
C272 C 0.06551 0.96871 0.70347 0.0
C273 C 0.05567 0.99177 0.72241 0.0
C274 C 0.06368 0.00969 0.68254 0.0
H275 H 0.48761 0.14112 0.63986 0.0
H276 H 0.44797 0.17353 0.8454 0.0
H277 H 0.45327 0.13725 0.90098 0.0
H278 H 0.46223 0.08263 0.62856 0.0
H279 H 0.48973 0.06757 0.59531 0.0
H280 H 0.48374 0.09644 0.57311 0.0
H281 H 0.5244 0.11241 0.63668 0.0
H282 H 0.53055 0.08357 0.65883 0.0
H283 H 0.53073 0.1094 0.73543 0.0
H284 H 0.46343 0.09763 0.93483 0.0
H285 H 0.47612 0.05687 0.94209 0.0
H286 H 0.50723 0.04956 0.71137 0.0
C287 C 0.48024 0.14066 0.69687 0.0
C288 C 0.46754 0.16021 0.73867 0.0
C289 C 0.4578 0.15877 0.81249 0.0
C290 C 0.46074 0.13826 0.84454 0.0
C291 C 0.47322 0.11925 0.80161 0.0
C292 C 0.48268 0.12019 0.72916 0.0
C293 C 0.49459 0.097 0.69389 0.0
C294 C 0.4818 0.08522 0.61825 0.0
C295 C 0.52167 0.10083 0.68045 0.0
C296 C 0.49049 0.08292 0.75802 0.0
C297 C 0.47829 0.09613 0.81988 0.0
C298 C 0.47291 0.08709 0.88662 0.0
C299 C 0.48024 0.06395 0.89026 0.0
C300 C 0.49257 0.05002 0.82721 0.0
C301 C 0.49761 0.05968 0.76019 0.0
H302 H 0.36995 0.53878 0.38461 0.0
H303 H 0.35989 0.46624 0.26079 0.0
H304 H 0.38776 0.45227 0.35248 0.0
H305 H 0.43377 0.53383 0.4292 0.0
H306 H 0.43119 0.55269 0.52343 0.0
H307 H 0.41145 0.55688 0.44538 0.0
H308 H 0.37433 0.55228 0.53183 0.0
H309 H 0.39391 0.54777 0.60977 0.0
H310 H 0.37104 0.52586 0.57337 0.0
H311 H 0.41538 0.44619 0.4618 0.0
H312 H 0.44352 0.44884 0.57319 0.0
H313 H 0.4339 0.52515 0.62744 0.0
C314 C 0.37386 0.51999 0.37591 0.0
C315 C 0.3627 0.5036 0.31567 0.0
C316 C 0.36825 0.47914 0.30656 0.0
C317 C 0.38403 0.47102 0.35837 0.0
C318 C 0.39425 0.48763 0.41834 0.0
C319 C 0.38956 0.51162 0.42681 0.0
C320 C 0.40243 0.5258 0.49691 0.0
C321 C 0.4208 0.54333 0.47223 0.0
C322 C 0.38434 0.53868 0.55647 0.0
C323 C 0.4149 0.50602 0.52721 0.0
C324 C 0.41004 0.48414 0.481 0.0
C325 C 0.41971 0.46325 0.49736 0.0
C326 C 0.43547 0.4649 0.56087 0.0
C327 C 0.44064 0.48717 0.60853 0.0
C328 C 0.42996 0.5079 0.59214 0.0
H329 H 0.94868 0.33058 0.49983 0.0
H330 H 0.99405 0.33835 0.30383 0.0
H331 H 0.01101 0.37585 0.37923 0.0
H332 H 0.93498 0.39157 0.56167 0.0
H333 H 0.93617 0.39039 0.66381 0.0
H334 H 0.92801 0.36419 0.59435 0.0
H335 H 0.96245 0.34101 0.64612 0.0
H336 H 0.97075 0.36717 0.71568 0.0
H337 H 0.99293 0.35251 0.6487 0.0
H338 H 0.02122 0.41381 0.47487 0.0
H339 H 0.02523 0.44782 0.58474 0.0
H340 H 0.97456 0.41335 0.71848 0.0
C341 C 0.96218 0.34016 0.47267 0.0
C342 C 0.96996 0.33169 0.39589 0.0
C343 C 0.98785 0.34458 0.36269 0.0
C344 C 0.99756 0.36587 0.40499 0.0
C345 C 0.9894 0.37376 0.48062 0.0
C346 C 0.97227 0.36115 0.5143 0.0
C347 C 0.9666 0.37326 0.59648 0.0
C348 C 0.93986 0.38027 0.6045 0.0
C349 C 0.97361 0.35755 0.6552 0.0
C350 C 0.98294 0.39487 0.60355 0.0
C351 C 0.99591 0.39496 0.53619 0.0
C352 C 0.01135 0.41378 0.52821 0.0
C353 C 0.01347 0.43302 0.59074 0.0
C354 C 0.0004 0.43309 0.66031 0.0
C355 C 0.98513 0.41364 0.66659 0.0
H356 H 0.8902 0.00235 0.35779 0.0
H357 H 0.8353 0.04727 0.28599 0.0
H358 H 0.85834 0.04902 0.16608 0.0
H359 H 0.94079 0.03323 0.28998 0.0
H360 H 0.95795 0.00654 0.26018 0.0
H361 H 0.93679 0.00843 0.33912 0.0
H362 H 0.91516 0.97014 0.26763 0.0
H363 H 0.93618 0.96823 0.1883 0.0
H364 H 0.90421 0.96886 0.1699 0.0
H365 H 0.88648 0.04398 0.05062 0.0
H366 H 0.91988 0.03615 0.95534 0.0
H367 H 0.95741 0.99711 0.10839 0.0
C368 C 0.88304 0.01254 0.31678 0.0
C369 C 0.86095 0.02457 0.33067 0.0
C370 C 0.85226 0.03798 0.27631 0.0
C371 C 0.86514 0.03898 0.20799 0.0
C372 C 0.88682 0.02678 0.19572 0.0
C373 C 0.89589 0.01412 0.24917 0.0
C374 C 0.92003 0.00332 0.22364 0.0
C375 C 0.94007 0.0135 0.28168 0.0
C376 C 0.91881 0.97602 0.21165 0.0
C377 C 0.92302 0.01171 0.14716 0.0
C378 C 0.90356 0.02496 0.13148 0.0
C379 C 0.90194 0.03384 0.06263 0.0
C380 C 0.92087 0.02924 0.00883 0.0
C381 C 0.94122 0.01628 0.02514 0.0
C382 C 0.9422 0.00739 0.09507 0.0
H383 H 0.5595 0.80089 0.72071 0.0
H384 H 0.59598 0.80547 0.94279 0.0
H385 H 0.58314 0.84707 0.98108 0.0
H386 H 0.57518 0.85791 0.69046 0.0
H387 H 0.54678 0.86375 0.64779 0.0
H388 H 0.55689 0.83364 0.63988 0.0
H389 H 0.51714 0.8223 0.70272 0.0
H390 H 0.50681 0.85238 0.71033 0.0
H391 H 0.50807 0.83901 0.79571 0.0
H392 H 0.57006 0.88901 0.99029 0.0
H393 H 0.55521 0.92816 0.97349 0.0
H394 H 0.5259 0.89651 0.74731 0.0
C395 C 0.56442 0.8105 0.77795 0.0
C396 C 0.57875 0.79988 0.82878 0.0
C397 C 0.58497 0.81316 0.90291 0.0
C398 C 0.57777 0.83683 0.92522 0.0
C399 C 0.56414 0.84692 0.87311 0.0
C400 C 0.55726 0.83414 0.80139 0.0
C401 C 0.54333 0.84954 0.7553 0.0
C402 C 0.55633 0.85131 0.67885 0.0
C403 C 0.51729 0.84025 0.74015 0.0
C404 C 0.54401 0.87311 0.81159 0.0
C405 C 0.55609 0.87114 0.8792 0.0
C406 C 0.56027 0.89071 0.93811 0.0
C407 C 0.55188 0.91291 0.92778 0.0
C408 C 0.53931 0.91537 0.85924 0.0
C409 C 0.53517 0.89512 0.80075 0.0
H410 H 0.63589 0.56813 0.11136 0.0
H411 H 0.6182 0.53589 0.31033 0.0
H412 H 0.58403 0.51427 0.2371 0.0
H413 H 0.57584 0.57527 0.04517 0.0
H414 H 0.58422 0.56769 0.94404 0.0
H415 H 0.60611 0.58099 0.01535 0.0
H416 H 0.63436 0.54537 0.96703 0.0
H417 H 0.61187 0.53192 0.89776 0.0
H418 H 0.62369 0.51554 0.96776 0.0
H419 H 0.5514 0.49656 0.14131 0.0
H420 H 0.5234 0.48384 0.03081 0.0
H421 H 0.56438 0.52628 0.89361 0.0
C422 C 0.62484 0.55655 0.13971 0.0
C423 C 0.62956 0.55386 0.21679 0.0
C424 C 0.6148 0.53835 0.25144 0.0
C425 C 0.59542 0.52592 0.21021 0.0
C426 C 0.59145 0.5288 0.13386 0.0
C427 C 0.60583 0.54368 0.09896 0.0
C428 C 0.59813 0.54341 0.01594 0.0
C429 C 0.5906 0.56831 0.00457 0.0
C430 C 0.61821 0.53346 0.95878 0.0
C431 C 0.5768 0.52644 0.00991 0.0
C432 C 0.57321 0.51816 0.07841 0.0
C433 C 0.55418 0.50273 0.0871 0.0
C434 C 0.53839 0.4956 0.02407 0.0
C435 C 0.54186 0.50381 0.95326 0.0
C436 C 0.56144 0.51932 0.94639 0.0
H437 H 0.90715 0.63442 0.1381 0.0
H438 H 0.97064 0.67489 0.23192 0.0
H439 H 0.99646 0.64093 0.17667 0.0
H440 H 0.92779 0.5772 0.17398 0.0
H441 H 0.9143 0.56097 0.08593 0.0
H442 H 0.90098 0.58821 0.13498 0.0
H443 H 0.90383 0.60544 0.0082 0.0
H444 H 0.91714 0.57827 0.95891 0.0
H445 H 0.93262 0.60623 0.96069 0.0
H446 H 0.01545 0.6033 0.1012 0.0
H447 H 0.02548 0.5643 0.02017 0.0
H448 H 0.94902 0.54863 0.98411 0.0
C449 C 0.92647 0.6361 0.14745 0.0
C450 C 0.93694 0.65727 0.18891 0.0
C451 C 0.96227 0.65875 0.20042 0.0
C452 C 0.97706 0.6396 0.16918 0.0
C453 C 0.96616 0.61902 0.12781 0.0
C454 C 0.94139 0.61709 0.11787 0.0
C455 C 0.93405 0.59319 0.07091 0.0
C456 C 0.91836 0.57906 0.11937 0.0
C457 C 0.92116 0.59596 0.9952 0.0
C458 C 0.95857 0.58213 0.05472 0.0
C459 C 0.97694 0.59724 0.08755 0.0
C460 C 0.00119 0.59118 0.0762 0.0
C461 C 0.00673 0.56908 0.03004 0.0
C462 C 0.98805 0.55335 0.99678 0.0
C463 C 0.96374 0.56003 0.00997 0.0
H464 H 0.95205 0.18699 0.32478 0.0
H465 H 0.01128 0.22908 0.44277 0.0
H466 H 0.02202 0.19593 0.50814 0.0
H467 H 0.93326 0.16207 0.48239 0.0
H468 H 0.92563 0.1332 0.42656 0.0
H469 H 0.92439 0.15903 0.38184 0.0
H470 H 0.95366 0.13928 0.27392 0.0
H471 H 0.95488 0.11331 0.31827 0.0
H472 H 0.98235 0.12862 0.30075 0.0
H473 H 0.02379 0.15995 0.57024 0.0
H474 H 0.01641 0.12385 0.62507 0.0
H475 H 0.95642 0.10464 0.465 0.0
C476 C 0.96752 0.18902 0.3634 0.0
C477 C 0.98127 0.21032 0.37721 0.0
C478 C 0.00111 0.21257 0.42915 0.0
C479 C 0.00722 0.19391 0.46698 0.0
C480 C 0.99331 0.17312 0.45213 0.0
C481 C 0.97394 0.17051 0.4013 0.0
C482 C 0.96107 0.14691 0.3991 0.0
C483 C 0.93452 0.15054 0.42398 0.0
C484 C 0.96312 0.1311 0.3182 0.0
C485 C 0.97564 0.13708 0.4589 0.0
C486 C 0.99434 0.15232 0.48806 0.0
C487 C 0.00946 0.14767 0.54693 0.0
C488 C 0.00519 0.12702 0.57745 0.0
C489 C 0.98589 0.11128 0.54925 0.0
C490 C 0.97123 0.11632 0.48826 0.0
H491 H 0.30157 0.00659 0.30026 0.0
H492 H 0.2563 0.00088 0.4981 0.0
H493 H 0.29208 0.99124 0.57 0.0
H494 H 0.3412 0.96014 0.31307 0.0
H495 H 0.36812 0.97513 0.28848 0.0
H496 H 0.3392 0.9825 0.25314 0.0
H497 H 0.34606 0.02698 0.31648 0.0
H498 H 0.37525 0.01938 0.34896 0.0
H499 H 0.35385 0.03455 0.41786 0.0
H500 H 0.3324 0.98257 0.62065 0.0
H501 H 0.37505 0.97465 0.64663 0.0
H502 H 0.39453 0.98609 0.41619 0.0
C503 C 0.29932 0.0042 0.35958 0.0
C504 C 0.27625 0.00519 0.39446 0.0
C505 C 0.27385 0.00042 0.47063 0.0
C506 C 0.29405 0.99498 0.51193 0.0
C507 C 0.31654 0.99433 0.47612 0.0
C508 C 0.31937 0.9989 0.40183 0.0
C509 C 0.3456 0.99673 0.37669 0.0
C510 C 0.3487 0.97746 0.30353 0.0
C511 C 0.35579 0.02083 0.36427 0.0
C512 C 0.35688 0.98954 0.44762 0.0
C513 C 0.33982 0.98862 0.50464 0.0
C514 C 0.34593 0.98322 0.5765 0.0
C515 C 0.37017 0.97884 0.59079 0.0
C516 C 0.38799 0.97975 0.53338 0.0
C517 C 0.38119 0.985 0.46067 0.0
H518 H 0.49741 0.30953 0.60652 0.0
H519 H 0.4615 0.29764 0.81608 0.0
H520 H 0.46872 0.33975 0.87659 0.0
H521 H 0.54351 0.35402 0.71105 0.0
H522 H 0.54286 0.37107 0.63422 0.0
H523 H 0.53811 0.33931 0.61209 0.0
H524 H 0.49727 0.34532 0.54585 0.0
H525 H 0.50212 0.37695 0.56749 0.0
H526 H 0.47506 0.36428 0.60094 0.0
H527 H 0.47272 0.38398 0.9033 0.0
H528 H 0.47641 0.42673 0.89951 0.0
H529 H 0.51255 0.40999 0.6767 0.0
C530 C 0.49159 0.31575 0.6658 0.0
C531 C 0.47877 0.30054 0.70673 0.0
C532 C 0.47145 0.30909 0.78414 0.0
C533 C 0.47551 0.33293 0.81888 0.0
C534 C 0.48759 0.34773 0.77619 0.0
C535 C 0.49609 0.33935 0.70203 0.0
C536 C 0.50727 0.35927 0.66709 0.0
C537 C 0.53456 0.3557 0.65545 0.0
C538 C 0.49469 0.36157 0.59068 0.0
C539 C 0.50211 0.38041 0.73066 0.0
C540 C 0.49103 0.37331 0.79356 0.0
C541 C 0.48197 0.38972 0.8554 0.0
C542 C 0.48396 0.41395 0.8524 0.0
C543 C 0.49495 0.4216 0.78808 0.0
C544 C 0.50464 0.40462 0.72741 0.0
H545 H 0.22635 0.53677 0.32475 0.0
H546 H 0.23932 0.46093 0.27289 0.0
H547 H 0.20362 0.45395 0.35042 0.0
H548 H 0.20815 0.53881 0.5226 0.0
H549 H 0.18553 0.56109 0.52095 0.0
H550 H 0.21159 0.56004 0.45896 0.0
H551 H 0.18369 0.55688 0.33844 0.0
H552 H 0.15754 0.55792 0.40008 0.0
H553 H 0.16118 0.53351 0.31974 0.0
H554 H 0.16642 0.45521 0.43326 0.0
H555 H 0.13103 0.46474 0.51851 0.0
H556 H 0.14347 0.53994 0.52141 0.0
C557 C 0.22153 0.51869 0.32923 0.0
C558 C 0.23511 0.4993 0.29068 0.0
C559 C 0.22854 0.47594 0.29904 0.0
C560 C 0.20846 0.47183 0.34372 0.0
C561 C 0.19521 0.49128 0.37994 0.0
C562 C 0.20152 0.51426 0.37352 0.0
C563 C 0.18459 0.53208 0.41987 0.0
C564 C 0.19829 0.549 0.48442 0.0
C565 C 0.17094 0.54591 0.36632 0.0
C566 C 0.1678 0.51551 0.45335 0.0
C567 C 0.1742 0.49205 0.42951 0.0
C568 C 0.1613 0.47353 0.45267 0.0
C569 C 0.14131 0.47914 0.50156 0.0
C570 C 0.13443 0.50309 0.52702 0.0
C571 C 0.148 0.52143 0.50238 0.0
H572 H 0.94703 0.80134 0.30348 0.0
H573 H 0.9159 0.76838 0.0816 0.0
H574 H 0.93027 0.80233 0.02435 0.0
H575 H 0.93567 0.86116 0.29275 0.0
H576 H 0.96401 0.87276 0.33505 0.0
H577 H 0.951 0.84628 0.36071 0.0
H578 H 0.98993 0.82296 0.31834 0.0
H579 H 0.0034 0.84948 0.29464 0.0
H580 H 0.00189 0.82259 0.22239 0.0
H581 H 0.94767 0.83988 0.99171 0.0
H582 H 0.9682 0.87801 0.98455 0.0
H583 H 0.99126 0.88467 0.22445 0.0
C584 C 0.94403 0.80068 0.24225 0.0
C585 C 0.93104 0.78172 0.19644 0.0
C586 C 0.92597 0.78262 0.1177 0.0
C587 C 0.93412 0.80178 0.08462 0.0
C588 C 0.94741 0.81986 0.13097 0.0
C589 C 0.95247 0.81942 0.20796 0.0
C590 C 0.96737 0.84097 0.24483 0.0
C591 C 0.95368 0.85618 0.31234 0.0
C592 C 0.99211 0.83355 0.2716 0.0
C593 C 0.96986 0.85361 0.17649 0.0
C594 C 0.95799 0.84123 0.11161 0.0
C595 C 0.95713 0.84966 0.04196 0.0
C596 C 0.96875 0.8713 0.03847 0.0
C597 C 0.98128 0.88408 0.10386 0.0
C598 C 0.98194 0.87506 0.17357 0.0
H599 H 0.74268 0.03187 0.34025 0.0
H600 H 0.73198 0.98645 0.50997 0.0
H601 H 0.69083 0.97596 0.4572 0.0
H602 H 0.68282 0.05479 0.34325 0.0
H603 H 0.6825 0.05487 0.24047 0.0
H604 H 0.71067 0.05809 0.29291 0.0
H605 H 0.72712 0.02195 0.19498 0.0
H606 H 0.69857 0.01852 0.14454 0.0
H607 H 0.71102 0.99392 0.18182 0.0
H608 H 0.6501 0.97231 0.38915 0.0
H609 H 0.6138 0.97426 0.30832 0.0
H610 H 0.65203 0.02167 0.18207 0.0
C611 C 0.73162 0.01972 0.36621 0.0
C612 C 0.74021 0.01012 0.42955 0.0
C613 C 0.72556 0.99395 0.46138 0.0
C614 C 0.70224 0.98796 0.43186 0.0
C615 C 0.69417 0.99798 0.36971 0.0
C616 C 0.70851 0.0134 0.33699 0.0
C617 C 0.69569 0.02183 0.2709 0.0
C618 C 0.69276 0.049 0.28798 0.0
C619 C 0.70889 0.01356 0.19349 0.0
C620 C 0.67166 0.00913 0.27231 0.0
C621 C 0.6711 0.99543 0.32958 0.0
C622 C 0.65045 0.98276 0.34359 0.0
C623 C 0.62988 0.98411 0.29775 0.0
C624 C 0.63014 0.99799 0.23853 0.0
C625 C 0.6514 0.01055 0.2258 0.0
H626 H 0.55586 0.66366 0.73059 0.0
H627 H 0.60001 0.65901 0.93158 0.0
H628 H 0.57796 0.62291 0.94892 0.0
H629 H 0.50053 0.63927 0.78228 0.0
H630 H 0.49481 0.62056 0.68913 0.0
H631 H 0.51241 0.6475 0.69495 0.0
H632 H 0.54776 0.62359 0.62284 0.0
H633 H 0.53005 0.59667 0.61573 0.0
H634 H 0.55958 0.59865 0.65982 0.0
H635 H 0.54717 0.59176 0.95616 0.0
H636 H 0.52062 0.5566 0.92671 0.0
H637 H 0.50226 0.57491 0.70385 0.0
C638 C 0.56072 0.65513 0.77862 0.0
C639 C 0.5779 0.66558 0.8351 0.0
C640 C 0.58491 0.65304 0.89376 0.0
C641 C 0.57291 0.63215 0.90276 0.0
C642 C 0.55484 0.62331 0.84982 0.0
C643 C 0.54967 0.63353 0.78633 0.0
C644 C 0.53159 0.61837 0.73279 0.0
C645 C 0.50846 0.63226 0.72432 0.0
C646 C 0.54293 0.60875 0.65309 0.0
C647 C 0.52691 0.59857 0.77797 0.0
C648 C 0.54009 0.60232 0.8463 0.0
C649 C 0.53754 0.5879 0.90143 0.0
C650 C 0.52207 0.56823 0.88461 0.0
C651 C 0.50955 0.563 0.81275 0.0
C652 C 0.51184 0.57846 0.75883 0.0
H653 H 0.76578 0.56145 0.19761 0.0
H654 H 0.77135 0.54393 0.42748 0.0
H655 H 0.80853 0.52146 0.38826 0.0
H656 H 0.78549 0.50491 0.09214 0.0
H657 H 0.80204 0.51746 0.02048 0.0
H658 H 0.7762 0.53265 0.06736 0.0
H659 H 0.80244 0.57055 0.11158 0.0
H660 H 0.82835 0.55545 0.06483 0.0
H661 H 0.82966 0.56869 0.16657 0.0
H662 H 0.84474 0.50059 0.32351 0.0
H663 H 0.87781 0.48296 0.23825 0.0
H664 H 0.84817 0.51316 0.04891 0.0
C665 C 0.7749 0.55289 0.23956 0.0
C666 C 0.76617 0.55494 0.31628 0.0
C667 C 0.77835 0.54334 0.36945 0.0
C668 C 0.79928 0.5303 0.34737 0.0
C669 C 0.80765 0.52889 0.2716 0.0
C670 C 0.79585 0.53984 0.21843 0.0
C671 C 0.80859 0.53546 0.14056 0.0
C672 C 0.79209 0.5218 0.07636 0.0
C673 C 0.81781 0.55894 0.11969 0.0
C674 C 0.82931 0.52025 0.15818 0.0
C675 C 0.82841 0.51667 0.23406 0.0
C676 C 0.84559 0.50319 0.26387 0.0
C677 C 0.86421 0.49311 0.21481 0.0
C678 C 0.86553 0.49655 0.13673 0.0
C679 C 0.84778 0.51035 0.10841 0.0
H680 H 0.05326 0.15885 0.23664 0.0
H681 H 0.06688 0.194 0.04116 0.0
H682 H 0.06645 0.15515 0.95277 0.0
H683 H 0.08764 0.1023 0.1574 0.0
H684 H 0.06547 0.08446 0.19653 0.0
H685 H 0.07215 0.11432 0.24634 0.0
H686 H 0.02684 0.1245 0.24214 0.0
H687 H 0.01998 0.09494 0.19141 0.0
H688 H 0.01139 0.12016 0.14979 0.0
H689 H 0.05544 0.11468 0.8837 0.0
H690 H 0.0384 0.0743 0.83971 0.0
H691 H 0.03382 0.06441 0.07872 0.0
C692 C 0.05711 0.15832 0.1757 0.0
C693 C 0.06011 0.17948 0.14582 0.0
C694 C 0.06461 0.17805 0.06547 0.0
C695 C 0.06445 0.15603 0.01475 0.0
C696 C 0.06016 0.13559 0.04547 0.0
C697 C 0.05706 0.13645 0.12433 0.0
C698 C 0.05011 0.11226 0.14143 0.0
C699 C 0.07004 0.10277 0.18818 0.0
C700 C 0.02564 0.11303 0.18361 0.0
C701 C 0.04844 0.09798 0.05956 0.0
C702 C 0.05455 0.11174 0.00511 0.0
C703 C 0.05142 0.10348 0.92562 0.0
C704 C 0.04163 0.08065 0.90118 0.0
C705 C 0.03539 0.06634 0.95601 0.0
C706 C 0.03927 0.07488 0.03591 0.0
H707 H 0.36442 0.02527 0.18391 0.0
H708 H 0.31546 0.98935 0.00505 0.0
H709 H 0.35022 0.97208 0.92735 0.0
H710 H 0.40978 0.04022 0.05903 0.0
H711 H 0.43461 0.03487 0.11989 0.0
H712 H 0.4058 0.04355 0.16274 0.0
H713 H 0.40491 0.00608 0.22614 0.0
H714 H 0.43367 0.99714 0.18294 0.0
H715 H 0.40805 0.97713 0.16588 0.0
H716 H 0.38973 0.96144 0.86497 0.0
H717 H 0.43205 0.95778 0.82118 0.0
H718 H 0.45573 0.99859 0.04313 0.0
C719 C 0.36101 0.01374 0.12848 0.0
C720 C 0.33727 0.0087 0.10024 0.0
C721 C 0.33352 0.99343 0.0277 0.0
C722 C 0.35313 0.98347 0.98332 0.0
C723 C 0.37629 0.9887 0.01296 0.0
C724 C 0.38036 0.00337 0.08393 0.0
C725 C 0.40711 0.00653 0.10142 0.0
C726 C 0.41476 0.03285 0.11131 0.0
C727 C 0.41383 0.99609 0.17336 0.0
C728 C 0.41745 0.99195 0.02789 0.0
C729 C 0.39929 0.98172 0.97795 0.0
C730 C 0.40414 0.96897 0.90398 0.0
C731 C 0.42819 0.96701 0.87964 0.0
C732 C 0.44704 0.9776 0.92934 0.0
C733 C 0.44165 0.98979 0.00497 0.0
H734 H 0.40902 0.34643 0.31619 0.0
H735 H 0.45748 0.38006 0.50008 0.0
H736 H 0.4574 0.41679 0.44621 0.0
H737 H 0.43563 0.37031 0.16644 0.0
H738 H 0.40777 0.37462 0.11795 0.0
H739 H 0.40971 0.35165 0.17518 0.0
H740 H 0.37312 0.36947 0.2576 0.0
H741 H 0.37107 0.39249 0.20026 0.0
H742 H 0.37401 0.40031 0.30447 0.0
H743 H 0.45473 0.44878 0.36682 0.0
H744 H 0.44958 0.47364 0.26691 0.0
H745 H 0.40281 0.41944 0.13495 0.0
C746 C 0.41932 0.36162 0.34588 0.0
C747 C 0.43334 0.36026 0.41235 0.0
C748 C 0.44671 0.38053 0.44897 0.0
C749 C 0.44669 0.40157 0.41899 0.0
C750 C 0.43303 0.40217 0.35268 0.0
C751 C 0.41946 0.3828 0.31678 0.0
C752 C 0.40738 0.38771 0.24386 0.0
C753 C 0.41563 0.37002 0.17161 0.0
C754 C 0.37976 0.38748 0.25208 0.0
C755 C 0.41689 0.41256 0.24318 0.0
C756 C 0.43141 0.4207 0.30695 0.0
C757 C 0.44309 0.44276 0.31724 0.0
C758 C 0.43997 0.4568 0.26045 0.0
C759 C 0.42571 0.44847 0.19359 0.0
C760 C 0.41374 0.42624 0.18571 0.0
H761 H 0.17223 0.44696 0.98364 0.0
H762 H 0.14917 0.4245 0.19614 0.0
H763 H 0.10661 0.42706 0.15683 0.0
H764 H 0.12941 0.48996 0.98505 0.0
H765 H 0.12469 0.48489 0.88133 0.0
H766 H 0.1532 0.47779 0.91989 0.0
H767 H 0.14928 0.43445 0.84441 0.0
H768 H 0.1208 0.44153 0.80493 0.0
H769 H 0.12264 0.41715 0.85668 0.0
H770 H 0.06681 0.43711 0.10262 0.0
H771 H 0.03289 0.45234 0.03524 0.0
H772 H 0.08233 0.46807 0.85848 0.0
C773 C 0.15828 0.44196 0.02107 0.0
C774 C 0.16403 0.43545 0.09286 0.0
C775 C 0.1452 0.42939 0.14061 0.0
C776 C 0.12097 0.43079 0.11878 0.0
C777 C 0.11593 0.43805 0.04878 0.0
C778 C 0.13407 0.44328 0.00021 0.0
C779 C 0.12396 0.45247 0.93124 0.0
C780 C 0.13337 0.47778 0.92935 0.0
C781 C 0.1295 0.43537 0.85479 0.0
C782 C 0.09734 0.45236 0.94991 0.0
C783 C 0.09301 0.44378 0.01748 0.0
C784 C 0.06993 0.44349 0.04895 0.0
C785 C 0.0508 0.45228 0.01045 0.0
C786 C 0.05493 0.46131 0.94141 0.0
C787 C 0.07849 0.46103 0.91058 0.0
H788 H 0.97953 0.84578 0.48616 0.0
H789 H 0.96037 0.80495 0.6635 0.0
H790 H 0.95994 0.84195 0.76205 0.0
H791 H 0.01843 0.88875 0.60565 0.0
H792 H 0.00855 0.91307 0.56163 0.0
H793 H 0.00811 0.88326 0.50612 0.0
H794 H 0.96264 0.88725 0.47696 0.0
H795 H 0.96289 0.91701 0.53277 0.0
H796 H 0.94182 0.89518 0.55631 0.0
H797 H 0.96124 0.88341 0.84069 0.0
H798 H 0.96547 0.92627 0.89471 0.0
H799 H 0.98247 0.93983 0.66451 0.0
C800 C 0.97551 0.84455 0.54587 0.0
C801 C 0.97008 0.82249 0.56734 0.0
C802 C 0.96462 0.82168 0.64588 0.0
C803 C 0.96429 0.84258 0.70218 0.0
C804 C 0.96929 0.86409 0.67875 0.0
C805 C 0.97486 0.86522 0.60255 0.0
C806 C 0.97915 0.89059 0.59222 0.0
C807 C 0.00511 0.89412 0.56481 0.0
C808 C 0.9605 0.89794 0.53626 0.0
C809 C 0.97524 0.90357 0.67463 0.0
C810 C 0.96955 0.88799 0.72368 0.0
C811 C 0.96562 0.8958 0.80285 0.0
C812 C 0.968 0.92018 0.8329 0.0
C813 C 0.97414 0.93641 0.7837 0.0
C814 C 0.97744 0.92793 0.70342 0.0
H815 H 0.68039 0.05561 0.70113 0.0
H816 H 0.6644 0.03785 0.45418 0.0
H817 H 0.62684 0.01755 0.4826 0.0
H818 H 0.65873 0.00243 0.75351 0.0
H819 H 0.64553 0.01658 0.84424 0.0
H820 H 0.67102 0.03021 0.80517 0.0
H821 H 0.64687 0.06893 0.80935 0.0
H822 H 0.62142 0.05553 0.84948 0.0
H823 H 0.61784 0.06754 0.76201 0.0
H824 H 0.59296 0.99662 0.53705 0.0
H825 H 0.56152 0.98114 0.6144 0.0
H826 H 0.59783 0.01479 0.82717 0.0
C827 C 0.66885 0.04767 0.6531 0.0
C828 C 0.67542 0.04808 0.57534 0.0
C829 C 0.65978 0.03765 0.5141 0.0
C830 C 0.63846 0.02601 0.52967 0.0
C831 C 0.63284 0.0254 0.60687 0.0
C832 C 0.64728 0.03638 0.66771 0.0
C833 C 0.63678 0.03354 0.74549 0.0
C834 C 0.65405 0.01987 0.78967 0.0
C835 C 0.63034 0.05783 0.79445 0.0
C836 C 0.61435 0.01894 0.71877 0.0
C837 C 0.61262 0.01423 0.63855 0.0
C838 C 0.59397 0.00039 0.59991 0.0
C839 C 0.57631 0.99153 0.64446 0.0
C840 C 0.57724 0.99679 0.72685 0.0
C841 C 0.59661 0.01059 0.76433 0.0
H842 H 0.54532 0.62585 0.1496 0.0
H843 H 0.61836 0.65234 0.2024 0.0
H844 H 0.62257 0.62523 0.2961 0.0
H845 H 0.52932 0.62067 0.34377 0.0
H846 H 0.51167 0.59384 0.31473 0.0
H847 H 0.51464 0.61478 0.25006 0.0
H848 H 0.53081 0.58149 0.14222 0.0
H849 H 0.52803 0.56036 0.20646 0.0
H850 H 0.55661 0.56478 0.1621 0.0
H851 H 0.61811 0.59661 0.38888 0.0
H852 H 0.60611 0.56687 0.46826 0.0
H853 H 0.5362 0.55887 0.35405 0.0
C854 C 0.56222 0.62599 0.18079 0.0
C855 C 0.58146 0.64139 0.16891 0.0
C856 C 0.60331 0.64084 0.21073 0.0
C857 C 0.60589 0.62548 0.26406 0.0
C858 C 0.58647 0.61076 0.275 0.0
C859 C 0.56509 0.61081 0.2343 0.0
C860 C 0.54687 0.59346 0.25757 0.0
C861 C 0.52429 0.60647 0.29368 0.0
C862 C 0.54017 0.57386 0.18796 0.0
C863 C 0.56131 0.58369 0.31788 0.0
C864 C 0.58408 0.59396 0.32731 0.0
C865 C 0.60043 0.58826 0.38137 0.0
C866 C 0.59348 0.57134 0.42609 0.0
C867 C 0.5703 0.56049 0.41704 0.0
C868 C 0.55404 0.56689 0.36233 0.0
H869 H 0.82921 0.52737 0.63348 0.0
H870 H 0.85211 0.59444 0.57299 0.0
H871 H 0.89333 0.58835 0.61852 0.0
H872 H 0.86568 0.53243 0.8083 0.0
H873 H 0.87225 0.50115 0.79214 0.0
H874 H 0.84437 0.51112 0.75679 0.0
H875 H 0.85455 0.48909 0.61752 0.0
H876 H 0.8825 0.47915 0.65238 0.0
H877 H 0.88273 0.49549 0.57371 0.0
H878 H 0.93224 0.57451 0.66737 0.0
H879 H 0.96597 0.55427 0.71887 0.0
H880 H 0.91749 0.49631 0.74754 0.0
C881 C 0.84283 0.54087 0.6302 0.0
C882 C 0.83742 0.56139 0.59969 0.0
C883 C 0.85581 0.57859 0.59628 0.0
C884 C 0.87928 0.57529 0.62193 0.0
C885 C 0.88404 0.55477 0.65104 0.0
C886 C 0.86632 0.5379 0.65569 0.0
C887 C 0.87622 0.5173 0.68865 0.0
C888 C 0.8639 0.5154 0.76606 0.0
C889 C 0.87386 0.49388 0.62952 0.0
C890 C 0.90233 0.52511 0.70102 0.0
C891 C 0.90646 0.54679 0.67916 0.0
C892 C 0.92923 0.55754 0.68485 0.0
C893 C 0.94828 0.54587 0.71403 0.0
C894 C 0.94443 0.52365 0.73709 0.0
C895 C 0.9211 0.51322 0.73026 0.0
loop_
_geom_bond_atom_site_label_1
_geom_bond_atom_site_label_2
_geom_bond_distance
_geom_bond_site_symmetry_2
_ccdc_geom_bond_type
O0 Cd1 2.300 . S
O0 C7 1.275 . S
Cd1 O0 2.300 . S
Cd1 O9 2.381 . S
Cd1 O10 2.378 . S
O2 Cd3 2.385 . S
O2 C7 1.255 . S
Cd3 O2 2.385 . S
Cd3 O4 2.317 . S
O4 Cd3 2.317 . S
O4 C5 1.232 . S
C5 O4 1.232 . S
C5 O6 1.218 . S
O6 C5 1.218 . S
C7 O0 1.275 . S
C7 O2 1.255 . S
C8 O9 1.258 . S
C8 O10 1.256 . S
O9 Cd1 2.381 . S
O9 C8 1.258 . S
O10 Cd1 2.378 . S
O10 C8 1.256 . S
O11 Cd12 2.300 1_655 S
O11 C18 1.275 . S
Cd12 O11 2.300 1_455 S
Cd12 O20 2.381 1_455 S
Cd12 O21 2.378 . S
O13 Cd14 2.385 . S
O13 C18 1.255 1_455 S
Cd14 O13 2.385 . S
Cd14 O15 2.317 . S
O15 Cd14 2.317 . S
O15 C16 1.232 1_455 S
C16 O15 1.232 1_655 S
C16 O17 1.218 1_655 S
O17 C16 1.218 1_455 S
C18 O11 1.275 . S
C18 O13 1.255 1_655 S
C19 O20 1.258 . S
C19 O21 1.256 1_655 S
O20 Cd12 2.381 1_655 S
O20 C19 1.258 . S
O21 Cd12 2.378 . S
O21 C19 1.256 1_455 S
O22 Cd23 2.300 1_565 S
O22 C29 1.275 1_565 S
Cd23 O22 2.300 1_545 S
Cd23 O31 2.381 1_545 S
Cd23 O32 2.378 . S
O24 Cd25 2.385 . S
O24 C29 1.255 . S
Cd25 O24 2.385 . S
Cd25 O26 2.317 . S
O26 Cd25 2.317 . S
O26 C27 1.232 . S
C27 O26 1.232 . S
C27 O28 1.218 . S
O28 C27 1.218 . S
C29 O22 1.275 1_545 S
C29 O24 1.255 . S
C30 O31 1.258 1_545 S
C30 O32 1.256 . S
O31 Cd23 2.381 1_565 S
O31 C30 1.258 1_565 S
O32 Cd23 2.378 . S
O32 C30 1.256 . S
O33 Cd34 2.300 . S
O33 C40 1.275 . S
Cd34 O33 2.300 . S
Cd34 O42 2.381 . S
Cd34 O43 2.378 . S
O35 Cd36 2.385 1_556 S
O35 C40 1.255 . S
Cd36 O35 2.385 1_554 S
Cd36 O37 2.317 . S
O37 Cd36 2.317 . S
O37 C38 1.232 . S
C38 O37 1.232 . S
C38 O39 1.218 . S
O39 C38 1.218 . S
C40 O33 1.275 . S
C40 O35 1.255 . S
C41 O42 1.258 . S
C41 O43 1.256 . S
O42 Cd34 2.381 . S
O42 C41 1.258 . S
O43 Cd34 2.378 . S
O43 C41 1.256 . S
O44 Cd45 2.300 . S
O44 C51 1.275 . S
Cd45 O44 2.300 . S
Cd45 O53 2.381 . S
Cd45 O54 2.378 . S
O46 Cd47 2.385 . S
O46 C51 1.255 . S
Cd47 O46 2.385 . S
Cd47 O48 2.317 . S
O48 Cd47 2.317 . S
O48 C49 1.232 . S
C49 O48 1.232 . S
C49 O50 1.218 . S
O50 C49 1.218 . S
C51 O44 1.275 . S
C51 O46 1.255 . S
C52 O53 1.258 . S
C52 O54 1.256 . S
O53 Cd45 2.381 . S
O53 C52 1.258 . S
O54 Cd45 2.378 . S
O54 C52 1.256 . S
O55 Cd56 2.300 . S
O55 C62 1.275 . S
Cd56 O55 2.300 . S
Cd56 O64 2.381 . S
Cd56 O65 2.378 . S
O57 Cd58 2.385 . S
O57 C62 1.255 . S
Cd58 O57 2.385 . S
Cd58 O59 2.317 . S
O59 Cd58 2.317 . S
O59 C60 1.232 . S
C60 O59 1.232 . S
C60 O61 1.218 . S
O61 C60 1.218 . S
C62 O55 1.275 . S
C62 O57 1.255 . S
C63 O64 1.258 . S
C63 O65 1.256 . S
O64 Cd56 2.381 . S
O64 C63 1.258 . S
O65 Cd56 2.378 . S
O65 C63 1.256 . S
O66 Cd67 2.300 1_565 S
O66 C73 1.275 1_565 S
Cd67 O66 2.300 1_545 S
Cd67 O75 2.381 1_545 S
Cd67 O76 2.378 . S
O68 Cd69 2.385 . S
O68 C73 1.255 . S
Cd69 O68 2.385 . S
Cd69 O70 2.317 . S
O70 Cd69 2.317 . S
O70 C71 1.232 . S
C71 O70 1.232 . S
C71 O72 1.218 . S
O72 C71 1.218 . S
C73 O66 1.275 1_545 S
C73 O68 1.255 . S
C74 O75 1.258 1_545 S
C74 O76 1.256 . S
O75 Cd67 2.381 1_565 S
O75 C74 1.258 1_565 S
O76 Cd67 2.378 . S
O76 C74 1.256 . S
O77 Cd78 2.300 . S
O77 C84 1.275 . S
Cd78 O77 2.300 . S
Cd78 O86 2.381 . S
Cd78 O87 2.378 . S
O79 Cd80 2.385 . S
O79 C84 1.255 . S
Cd80 O79 2.385 . S
Cd80 O81 2.317 . S
O81 Cd80 2.317 . S
O81 C82 1.232 . S
C82 O81 1.232 . S
C82 O83 1.218 . S
O83 C82 1.218 . S
C84 O77 1.275 . S
C84 O79 1.255 . S
C85 O86 1.258 . S
C85 O87 1.256 . S
O86 Cd78 2.381 . S
O86 C85 1.258 . S
O87 Cd78 2.378 . S
O87 C85 1.256 . S
Tb88 C97 2.764 . S
Tb88 O98 2.325 . S
Tb88 O101 2.303 1_655 S
Tb88 O105 2.322 1_545 S
Tb88 O106 2.349 . S
Tb88 O109 2.415 . S
Tb88 O110 2.399 . S
Tb89 O99 2.322 1_565 S
Tb89 O100 2.349 . S
Tb89 O102 2.415 . S
Tb89 O103 2.399 . S
Tb89 O104 2.325 . S
Tb89 O107 2.303 1_455 S
Tb89 C118 2.764 . S
C90 O106 1.261 . S
C90 O107 1.257 1_545 S
C91 C94 1.358 . S
C91 C95 1.332 . S
C91 C97 1.504 . S
C92 C93 1.373 . S
C92 C96 1.308 . S
C93 C92 1.373 . S
C93 C94 1.429 . S
C93 H120 0.932 . S
C94 C91 1.358 . S
C94 C93 1.429 . S
C94 H121 0.930 . S
C95 C91 1.332 . S
C95 C96 1.394 . S
C95 H122 0.932 1_655 S
C96 C92 1.308 . S
C96 C95 1.394 . S
C96 H123 0.929 1_655 S
C97 Tb88 2.764 . S
C97 C91 1.504 . S
C97 O109 1.239 . S
C97 O110 1.263 . S
O98 Tb88 2.325 . S
O98 C108 1.236 1_655 S
O99 Tb89 2.322 1_545 S
O99 C108 1.257 . S
O100 Tb89 2.349 . S
O100 C111 1.261 . S
O101 Tb88 2.303 1_455 S
O101 C111 1.257 1_545 S
O102 Tb89 2.415 . S
O102 C118 1.239 . S
O103 Tb89 2.399 . S
O103 C118 1.263 . S
O104 Tb89 2.325 . S
O104 C119 1.236 1_455 S
O105 Tb88 2.322 1_565 S
O105 C119 1.257 . S
O106 Tb88 2.349 . S
O106 C90 1.261 . S
O107 Tb89 2.303 1_655 S
O107 C90 1.257 1_565 S
C108 O98 1.236 1_455 S
C108 O99 1.257 . S
O109 Tb88 2.415 . S
O109 C97 1.239 . S
O110 Tb88 2.399 . S
O110 C97 1.263 . S
C111 O100 1.261 . S
C111 O101 1.257 1_565 S
C112 C115 1.356 1_556 S
C112 C116 1.329 1_556 S
C112 C118 1.509 . S
C113 C114 1.373 . S
C113 C117 1.308 . S
C114 C113 1.373 . S
C114 C115 1.429 . S
C114 H124 0.932 . S
C115 C112 1.356 1_554 S
C115 C114 1.429 . S
C115 H125 0.930 1_554 S
C116 C112 1.329 1_554 S
C116 C117 1.394 . S
C116 H126 0.932 1_455 S
C117 C113 1.308 . S
C117 C116 1.394 . S
C117 H127 0.929 1_455 S
C118 Tb89 2.764 . S
C118 O102 1.239 . S
C118 O103 1.263 . S
C118 C112 1.509 . S
C119 O104 1.236 1_655 S
C119 O105 1.257 . S
H120 C93 0.932 . S
H121 C94 0.930 . S
H122 C95 0.932 1_455 S
H123 C96 0.929 1_455 S
H124 C114 0.932 . S
H125 C115 0.930 1_556 S
H126 C116 0.932 1_655 S
H127 C117 0.929 1_655 S
Tb128 C137 2.764 . S
Tb128 O138 2.325 . S
Tb128 O141 2.303 1_565 S
Tb128 O145 2.322 . S
Tb128 O146 2.349 . S
Tb128 O149 2.415 1_565 S
Tb128 O150 2.399 . S
Tb129 O139 2.322 . S
Tb129 O140 2.349 . S
Tb129 O142 2.415 1_545 S
Tb129 O143 2.399 . S
Tb129 O144 2.325 . S
Tb129 O147 2.303 1_545 S
Tb129 C158 2.764 1_556 S
C130 O146 1.261 . S
C130 O147 1.257 . S
C131 C134 1.358 . S
C131 C135 1.332 1_565 S
C131 C137 1.504 . S
C132 C133 1.373 . S
C132 C136 1.308 1_565 S
C133 C132 1.373 . S
C133 C134 1.429 . S
C133 H160 0.932 . S
C134 C131 1.358 . S
C134 C133 1.429 . S
C134 H161 0.930 . S
C135 C131 1.332 1_545 S
C135 C136 1.394 . S
C135 H162 0.932 . S
C136 C132 1.308 1_545 S
C136 C135 1.394 . S
C136 H163 0.929 . S
C137 Tb128 2.764 . S
C137 C131 1.504 . S
C137 O149 1.239 1_565 S
C137 O150 1.263 . S
O138 Tb128 2.325 . S
O138 C148 1.236 1_565 S
O139 Tb129 2.322 . S
O139 C148 1.257 . S
O140 Tb129 2.349 . S
O140 C151 1.261 . S
O141 Tb128 2.303 1_545 S
O141 C151 1.257 . S
O142 Tb129 2.415 1_565 S
O142 C158 1.239 1_566 S
O143 Tb129 2.399 . S
O143 C158 1.263 1_556 S
O144 Tb129 2.325 . S
O144 C159 1.236 1_545 S
O145 Tb128 2.322 . S
O145 C159 1.257 . S
O146 Tb128 2.349 . S
O146 C130 1.261 . S
O147 Tb129 2.303 1_565 S
O147 C130 1.257 . S
C148 O138 1.236 1_545 S
C148 O139 1.257 . S
O149 Tb128 2.415 1_545 S
O149 C137 1.239 1_545 S
O150 Tb128 2.399 . S
O150 C137 1.263 . S
C151 O140 1.261 . S
C151 O141 1.257 . S
C152 C155 1.358 . S
C152 C156 1.332 1_545 S
C152 C158 1.503 . S
C153 C154 1.373 . S
C153 C157 1.308 1_545 S
C154 C153 1.373 . S
C154 C155 1.429 . S
C154 H164 0.932 . S
C155 C152 1.358 . S
C155 C154 1.429 . S
C155 H165 0.930 . S
C156 C152 1.332 1_565 S
C156 C157 1.394 . S
C156 H166 0.932 . S
C157 C153 1.308 1_565 S
C157 C156 1.394 . S
C157 H167 0.929 . S
C158 Tb129 2.764 1_554 S
C158 O142 1.239 1_544 S
C158 O143 1.263 1_554 S
C158 C152 1.503 . S
C159 O144 1.236 1_565 S
C159 O145 1.257 . S
H160 C133 0.932 . S
H161 C134 0.930 . S
H162 C135 0.932 . S
H163 C136 0.929 . S
H164 C154 0.932 . S
H165 C155 0.930 . S
H166 C156 0.932 . S
H167 C157 0.929 . S
Tb168 C177 2.764 1_556 S
Tb168 O178 2.325 . S
Tb168 O181 2.303 . S
Tb168 O185 2.322 . S
Tb168 O186 2.349 . S
Tb168 O189 2.415 1_556 S
Tb168 O190 2.399 . S
Tb169 O179 2.322 . S
Tb169 O180 2.349 . S
Tb169 O182 2.415 . S
Tb169 O183 2.399 . S
Tb169 O184 2.325 . S
Tb169 O187 2.303 . S
Tb169 C198 2.764 . S
C170 O186 1.261 . S
C170 O187 1.257 . S
C171 C174 1.358 . S
C171 C175 1.332 . S
C171 C177 1.504 . S
C172 C173 1.373 . S
C172 C176 1.308 . S
C173 C172 1.373 . S
C173 C174 1.429 . S
C173 H200 0.932 . S
C174 C171 1.358 . S
C174 C173 1.429 . S
C174 H201 0.930 . S
C175 C171 1.332 . S
C175 C176 1.394 . S
C175 H202 0.932 . S
C176 C172 1.308 . S
C176 C175 1.394 . S
C176 H203 0.929 . S
C177 Tb168 2.764 1_554 S
C177 C171 1.504 . S
C177 O189 1.239 . S
C177 O190 1.263 1_554 S
O178 Tb168 2.325 . S
O178 C188 1.236 . S
O179 Tb169 2.322 . S
O179 C188 1.257 . S
O180 Tb169 2.349 . S
O180 C191 1.261 . S
O181 Tb168 2.303 . S
O181 C191 1.257 . S
O182 Tb169 2.415 . S
O182 C198 1.239 . S
O183 Tb169 2.399 . S
O183 C198 1.263 . S
O184 Tb169 2.325 . S
O184 C199 1.236 . S
O185 Tb168 2.322 . S
O185 C199 1.257 . S
O186 Tb168 2.349 . S
O186 C170 1.261 . S
O187 Tb169 2.303 . S
O187 C170 1.257 . S
C188 O178 1.236 . S
C188 O179 1.257 . S
O189 Tb168 2.415 1_554 S
O189 C177 1.239 . S
O190 Tb168 2.399 . S
O190 C177 1.263 1_556 S
C191 O180 1.261 . S
C191 O181 1.257 . S
C192 C195 1.358 . S
C192 C196 1.332 . S
C192 C198 1.504 . S
C193 C194 1.373 . S
C193 C197 1.308 . S
C194 C193 1.373 . S
C194 C195 1.429 . S
C194 H204 0.932 . S
C195 C192 1.358 . S
C195 C194 1.429 . S
C195 H205 0.930 . S
C196 C192 1.332 . S
C196 C197 1.394 . S
C196 H206 0.932 . S
C197 C193 1.308 . S
C197 C196 1.394 . S
C197 H207 0.929 . S
C198 Tb169 2.764 . S
C198 O182 1.239 . S
C198 O183 1.263 . S
C198 C192 1.504 . S
C199 O184 1.236 . S
C199 O185 1.257 . S
H200 C173 0.932 . S
H201 C174 0.930 . S
H202 C175 0.932 . S
H203 C176 0.929 . S
H204 C194 0.932 . S
H205 C195 0.930 . S
H206 C196 0.932 . S
H207 C197 0.929 . S
Tb208 C217 2.764 . S
Tb208 O218 2.325 . S
Tb208 O221 2.303 . S
Tb208 O225 2.322 1_455 S
Tb208 O226 2.349 . S
Tb208 O229 2.415 . S
Tb208 O230 2.399 . S
Tb209 O219 2.322 1_655 S
Tb209 O220 2.349 . S
Tb209 O222 2.415 . S
Tb209 O223 2.399 . S
Tb209 O224 2.325 . S
Tb209 O227 2.303 . S
Tb209 C238 2.764 . S
C210 O226 1.261 . S
C210 O227 1.257 1_455 S
C211 C214 1.358 . S
C211 C215 1.332 . S
C211 C217 1.504 . S
C212 C213 1.373 . S
C212 C216 1.308 . S
C213 C212 1.373 . S
C213 C214 1.429 . S
C213 H240 0.932 . S
C214 C211 1.358 . S
C214 C213 1.429 . S
C214 H241 0.930 . S
C215 C211 1.332 . S
C215 C216 1.394 . S
C215 H242 0.932 . S
C216 C212 1.308 . S
C216 C215 1.394 . S
C216 H243 0.929 . S
C217 Tb208 2.764 . S
C217 C211 1.504 . S
C217 O229 1.239 . S
C217 O230 1.263 . S
O218 Tb208 2.325 . S
O218 C228 1.236 . S
O219 Tb209 2.322 1_455 S
O219 C228 1.257 . S
O220 Tb209 2.349 . S
O220 C231 1.271 . S
O221 Tb208 2.303 . S
O221 C231 1.253 1_455 S
O222 Tb209 2.415 . S
O222 C238 1.239 . S
O223 Tb209 2.399 . S
O223 C238 1.263 . S
O224 Tb209 2.325 . S
O224 C239 1.236 . S
O225 Tb208 2.322 1_655 S
O225 C239 1.257 . S
O226 Tb208 2.349 . S
O226 C210 1.261 . S
O227 Tb209 2.303 . S
O227 C210 1.257 1_655 S
C228 O218 1.236 . S
C228 O219 1.257 . S
O229 Tb208 2.415 . S
O229 C217 1.239 . S
O230 Tb208 2.399 . S
O230 C217 1.263 . S
C231 O220 1.271 . S
C231 O221 1.253 1_655 S
C232 C235 1.358 . S
C232 C236 1.332 . S
C232 C238 1.504 1_554 S
C233 C234 1.373 . S
C233 C237 1.308 . S
C234 C233 1.373 . S
C234 C235 1.429 . S
C234 H244 0.932 . S
C235 C232 1.358 . S
C235 C234 1.429 . S
C235 H245 0.930 . S
C236 C232 1.332 . S
C236 C237 1.394 . S
C236 H246 0.932 . S
C237 C233 1.308 . S
C237 C236 1.394 . S
C237 H247 0.929 . S
C238 Tb209 2.764 . S
C238 O222 1.239 . S
C238 O223 1.263 . S
C238 C232 1.504 1_556 S
C239 O224 1.236 . S
C239 O225 1.257 . S
H240 C213 0.932 . S
H241 C214 0.930 . S
H242 C215 0.932 . S
H243 C216 0.929 . S
H244 C234 0.932 . S
H245 C235 0.930 . S
H246 C236 0.932 . S
H247 C237 0.929 . S
H248 C260 0.930 . S
H249 C262 0.930 . S
H250 C263 0.930 . S
H251 C267 0.959 . S
H252 C267 0.959 . S
H253 C267 0.961 . S
H254 C268 0.960 . S
H255 C268 0.961 . S
H256 C268 0.959 . S
H257 C271 0.929 . S
H258 C272 0.931 . S
H259 C274 0.930 . S
C260 H248 0.930 . S
C260 C261 1.399 1_545 S
C260 C265 1.399 . S
C261 C260 1.399 1_565 S
C261 C262 1.376 . S
C262 H249 0.930 . S
C262 C261 1.376 . S
C262 C263 1.388 . S
C263 H250 0.930 . S
C263 C262 1.388 . S
C263 C264 1.390 . S
C264 C263 1.390 . S
C264 C265 1.394 1_565 S
C264 C270 1.465 . S
C265 C260 1.399 . S
C265 C264 1.394 1_545 S
C265 C266 1.516 . S
C266 C265 1.516 . S
C266 C267 1.502 . S
C266 C268 1.561 . S
C266 C269 1.526 . S
C267 H251 0.959 . S
C267 H252 0.959 . S
C267 H253 0.961 . S
C267 C266 1.502 . S
C268 H254 0.960 . S
C268 H255 0.961 . S
C268 H256 0.959 . S
C268 C266 1.561 . S
C269 C266 1.526 . S
C269 C270 1.396 1_545 S
C269 C274 1.390 . S
C270 C264 1.465 . S
C270 C269 1.396 1_565 S
C270 C271 1.399 . S
C271 H257 0.929 . S
C271 C270 1.399 . S
C271 C272 1.385 . S
C272 H258 0.931 . S
C272 C271 1.385 . S
C272 C273 1.392 1_565 S
C273 C272 1.392 1_545 S
C273 C274 1.384 . S
C274 H259 0.930 . S
C274 C269 1.390 . S
C274 C273 1.384 . S
H275 C287 0.930 . S
H276 C289 0.930 . S
H277 C290 0.930 . S
H278 C294 0.959 . S
H279 C294 0.959 . S
H280 C294 0.961 . S
H281 C295 0.960 . S
H282 C295 0.961 . S
H283 C295 0.959 . S
H284 C298 0.929 . S
H285 C299 0.931 . S
H286 C301 0.930 . S
C287 H275 0.930 . S
C287 C288 1.399 . S
C287 C292 1.399 . S
C288 C287 1.399 . S
C288 C289 1.376 . S
C289 H276 0.930 . S
C289 C288 1.376 . S
C289 C290 1.388 . S
C290 H277 0.930 . S
C290 C289 1.388 . S
C290 C291 1.390 . S
C291 C290 1.390 . S
C291 C292 1.394 . S
C291 C297 1.465 . S
C292 C287 1.399 . S
C292 C291 1.394 . S
C292 C293 1.516 . S
C293 C292 1.516 . S
C293 C294 1.502 . S
C293 C295 1.561 . S
C293 C296 1.526 . S
C294 H278 0.959 . S
C294 H279 0.959 . S
C294 H280 0.961 . S
C294 C293 1.502 . S
C295 H281 0.960 . S
C295 H282 0.961 . S
C295 H283 0.959 . S
C295 C293 1.561 . S
C296 C293 1.526 . S
C296 C297 1.396 . S
C296 C301 1.390 . S
C297 C291 1.465 . S
C297 C296 1.396 . S
C297 C298 1.399 . S
C298 H284 0.929 . S
C298 C297 1.399 . S
C298 C299 1.385 . S
C299 H285 0.931 . S
C299 C298 1.385 . S
C299 C300 1.389 . S
C300 C299 1.389 . S
C300 C301 1.387 . S
C301 H286 0.930 . S
C301 C296 1.390 . S
C301 C300 1.387 . S
H302 C314 0.930 . S
H303 C316 0.930 . S
H304 C317 0.930 . S
H305 C321 0.959 . S
H306 C321 0.959 . S
H307 C321 0.961 . S
H308 C322 0.960 . S
H309 C322 0.961 . S
H310 C322 0.959 . S
H311 C325 0.929 . S
H312 C326 0.931 . S
H313 C328 0.930 . S
C314 H302 0.930 . S
C314 C315 1.399 . S
C314 C319 1.399 . S
C315 C314 1.399 . S
C315 C316 1.376 . S
C316 H303 0.930 . S
C316 C315 1.376 . S
C316 C317 1.388 . S
C317 H304 0.930 . S
C317 C316 1.388 . S
C317 C318 1.390 . S
C318 C317 1.390 . S
C318 C319 1.394 . S
C318 C324 1.465 . S
C319 C314 1.399 . S
C319 C318 1.394 . S
C319 C320 1.516 . S
C320 C319 1.516 . S
C320 C321 1.502 . S
C320 C322 1.561 . S
C320 C323 1.526 . S
C321 H305 0.959 . S
C321 H306 0.959 . S
C321 H307 0.961 . S
C321 C320 1.502 . S
C322 H308 0.960 . S
C322 H309 0.961 . S
C322 H310 0.959 . S
C322 C320 1.561 . S
C323 C320 1.526 . S
C323 C324 1.396 . S
C323 C328 1.390 . S
C324 C318 1.465 . S
C324 C323 1.396 . S
C324 C325 1.399 . S
C325 H311 0.929 . S
C325 C324 1.399 . S
C325 C326 1.385 . S
C326 H312 0.931 . S
C326 C325 1.385 . S
C326 C327 1.389 . S
C327 C326 1.389 . S
C327 C328 1.387 . S
C328 H313 0.930 . S
C328 C323 1.390 . S
C328 C327 1.387 . S
H329 C341 0.930 . S
H330 C343 0.930 . S
H331 C344 0.930 . S
H332 C348 0.959 . S
H333 C348 0.959 . S
H334 C348 0.961 . S
H335 C349 0.960 . S
H336 C349 0.961 . S
H337 C349 0.959 . S
H338 C352 0.929 . S
H339 C353 0.931 . S
H340 C355 0.930 . S
C341 H329 0.930 . S
C341 C342 1.399 . S
C341 C346 1.399 . S
C342 C341 1.399 . S
C342 C343 1.376 . S
C343 H330 0.930 . S
C343 C342 1.376 . S
C343 C344 1.388 . S
C344 H331 0.930 . S
C344 C343 1.388 . S
C344 C345 1.390 . S
C345 C344 1.390 . S
C345 C346 1.394 . S
C345 C351 1.465 . S
C346 C341 1.399 . S
C346 C345 1.394 . S
C346 C347 1.516 . S
C347 C346 1.516 . S
C347 C348 1.502 1_455 S
C347 C349 1.561 . S
C347 C350 1.526 . S
C348 H332 0.959 . S
C348 H333 0.959 . S
C348 H334 0.961 . S
C348 C347 1.502 1_655 S
C349 H335 0.960 . S
C349 H336 0.961 . S
C349 H337 0.959 . S
C349 C347 1.561 . S
C350 C347 1.526 . S
C350 C351 1.396 . S
C350 C355 1.390 . S
C351 C345 1.465 . S
C351 C350 1.396 . S
C351 C352 1.399 . S
C352 H338 0.929 . S
C352 C351 1.399 . S
C352 C353 1.385 . S
C353 H339 0.931 . S
C353 C352 1.385 . S
C353 C354 1.389 . S
C354 C353 1.389 . S
C354 C355 1.387 . S
C355 H340 0.930 . S
C355 C350 1.390 . S
C355 C354 1.387 . S
H356 C368 0.930 . S
H357 C370 0.930 . S
H358 C371 0.930 . S
H359 C375 0.959 . S
H360 C375 0.959 . S
H361 C375 0.961 . S
H362 C376 0.960 . S
H363 C376 0.961 . S
H364 C376 0.959 . S
H365 C379 0.929 . S
H366 C380 0.931 . S
H367 C382 0.930 1_556 S
C368 H356 0.930 . S
C368 C369 1.399 1_565 S
C368 C373 1.399 . S
C369 C368 1.399 1_545 S
C369 C370 1.376 . S
C370 H357 0.930 . S
C370 C369 1.376 . S
C370 C371 1.388 . S
C371 H358 0.930 . S
C371 C370 1.388 . S
C371 C372 1.390 . S
C372 C371 1.390 . S
C372 C373 1.394 1_545 S
C372 C378 1.465 . S
C373 C368 1.399 . S
C373 C372 1.394 1_565 S
C373 C374 1.516 . S
C374 C373 1.516 . S
C374 C375 1.502 . S
C374 C376 1.561 . S
C374 C377 1.526 . S
C375 H359 0.959 . S
C375 H360 0.959 . S
C375 H361 0.961 . S
C375 C374 1.502 . S
C376 H362 0.960 . S
C376 H363 0.961 . S
C376 H364 0.959 . S
C376 C374 1.561 . S
C377 C374 1.526 . S
C377 C378 1.396 1_565 S
C377 C382 1.390 . S
C378 C372 1.465 . S
C378 C377 1.396 1_545 S
C378 C379 1.399 . S
C379 H365 0.929 . S
C379 C378 1.399 . S
C379 C380 1.385 1_554 S
C380 H366 0.931 . S
C380 C379 1.385 1_556 S
C380 C381 1.392 . S
C381 C380 1.392 . S
C381 C382 1.384 1_546 S
C382 H367 0.930 1_554 S
C382 C377 1.390 . S
C382 C381 1.384 1_564 S
H383 C395 0.930 . S
H384 C397 0.930 1_554 S
H385 C398 0.930 1_554 S
H386 C402 0.959 . S
H387 C402 0.959 . S
H388 C402 0.961 . S
H389 C403 0.960 . S
H390 C403 0.961 . S
H391 C403 0.959 . S
H392 C406 0.942 . S
H393 C407 0.931 . S
H394 C409 0.930 . S
C395 H383 0.930 . S
C395 C396 1.399 . S
C395 C400 1.399 . S
C396 C395 1.399 . S
C396 C397 1.376 . S
C397 H384 0.930 1_556 S
C397 C396 1.376 . S
C397 C398 1.388 . S
C398 H385 0.930 1_556 S
C398 C397 1.388 . S
C398 C399 1.390 . S
C399 C398 1.390 . S
C399 C400 1.394 . S
C399 C405 1.465 . S
C400 C395 1.399 . S
C400 C399 1.394 . S
C400 C401 1.516 . S
C401 C400 1.516 . S
C401 C402 1.502 . S
C401 C403 1.561 . S
C401 C404 1.526 . S
C402 H386 0.959 . S
C402 H387 0.959 . S
C402 H388 0.961 . S
C402 C401 1.502 . S
C403 H389 0.960 . S
C403 H390 0.961 . S
C403 H391 0.959 . S
C403 C401 1.561 . S
C404 C401 1.526 . S
C404 C405 1.396 . S
C404 C409 1.390 . S
C405 C399 1.465 . S
C405 C404 1.396 . S
C405 C406 1.399 . S
C406 H392 0.942 . S
C406 C405 1.399 . S
C406 C407 1.385 . S
C407 H393 0.931 . S
C407 C406 1.385 . S
C407 C408 1.389 . S
C408 C407 1.389 . S
C408 C409 1.387 . S
C409 H394 0.930 . S
C409 C404 1.390 . S
C409 C408 1.387 . S
H410 C422 0.930 . S
H411 C424 0.930 . S
H412 C425 0.930 . S
H413 C429 0.959 . S
H414 C429 0.959 . S
H415 C429 0.961 . S
H416 C430 0.960 . S
H417 C430 0.961 . S
H418 C430 0.959 . S
H419 C433 0.929 . S
H420 C434 0.931 . S
H421 C436 0.930 1_556 S
C422 H410 0.930 . S
C422 C423 1.399 . S
C422 C427 1.399 . S
C423 C422 1.399 . S
C423 C424 1.376 . S
C424 H411 0.930 . S
C424 C423 1.376 . S
C424 C425 1.388 . S
C425 H412 0.930 . S
C425 C424 1.388 . S
C425 C426 1.390 . S
C426 C425 1.390 . S
C426 C427 1.394 . S
C426 C432 1.465 . S
C427 C422 1.399 . S
C427 C426 1.394 . S
C427 C428 1.516 . S
C428 C427 1.516 . S
C428 C429 1.502 . S
C428 C430 1.561 . S
C428 C431 1.526 . S
C429 H413 0.959 . S
C429 H414 0.959 . S
C429 H415 0.961 . S
C429 C428 1.502 . S
C430 H416 0.960 . S
C430 H417 0.961 . S
C430 H418 0.959 . S
C430 C428 1.561 . S
C431 C428 1.526 . S
C431 C432 1.396 . S
C431 C436 1.390 . S
C432 C426 1.465 . S
C432 C431 1.396 . S
C432 C433 1.399 . S
C433 H419 0.929 . S
C433 C432 1.399 . S
C433 C434 1.385 . S
C434 H420 0.931 . S
C434 C433 1.385 . S
C434 C435 1.389 1_554 S
C435 C434 1.389 1_556 S
C435 C436 1.387 1_556 S
C436 H421 0.930 1_554 S
C436 C431 1.390 . S
C436 C435 1.387 1_554 S
H437 C449 0.930 . S
H438 C451 0.930 . S
H439 C452 0.930 . S
H440 C456 0.959 . S
H441 C456 0.959 . S
H442 C456 0.961 . S
H443 C457 0.960 . S
H444 C457 0.961 . S
H445 C457 0.959 . S
H446 C460 0.929 . S
H447 C461 0.931 . S
H448 C463 0.930 . S
C449 H437 0.930 . S
C449 C450 1.399 . S
C449 C454 1.399 . S
C450 C449 1.399 . S
C450 C451 1.376 1_655 S
C451 H438 0.930 . S
C451 C450 1.376 1_455 S
C451 C452 1.388 . S
C452 H439 0.930 . S
C452 C451 1.388 . S
C452 C453 1.379 1_455 S
C453 C452 1.379 1_655 S
C453 C454 1.409 . S
C453 C459 1.463 1_655 S
C454 C449 1.399 . S
C454 C453 1.409 . S
C454 C455 1.516 . S
C455 C454 1.516 . S
C455 C456 1.502 . S
C455 C457 1.561 . S
C455 C458 1.526 . S
C456 H440 0.959 . S
C456 H441 0.959 . S
C456 H442 0.961 . S
C456 C455 1.502 . S
C457 H443 0.960 . S
C457 H444 0.961 . S
C457 H445 0.959 . S
C457 C455 1.561 . S
C458 C455 1.526 . S
C458 C459 1.396 1_655 S
C458 C463 1.390 . S
C459 C453 1.463 1_455 S
C459 C458 1.396 1_455 S
C459 C460 1.399 1_554 S
C460 H446 0.929 . S
C460 C459 1.399 1_556 S
C460 C461 1.385 . S
C461 H447 0.931 . S
C461 C460 1.385 . S
C461 C462 1.389 1_455 S
C462 C461 1.389 1_655 S
C462 C463 1.387 1_556 S
C463 H448 0.930 . S
C463 C458 1.390 . S
C463 C462 1.387 1_554 S
H464 C476 0.930 . S
H465 C478 0.930 . S
H466 C479 0.930 . S
H467 C483 0.959 . S
H468 C483 0.959 . S
H469 C483 0.961 . S
H470 C484 0.960 . S
H471 C484 0.961 . S
H472 C484 0.959 . S
H473 C487 0.929 . S
H474 C488 0.931 . S
H475 C490 0.930 . S
C476 H464 0.930 . S
C476 C477 1.399 1_655 S
C476 C481 1.399 . S
C477 C476 1.399 1_455 S
C477 C478 1.376 . S
C478 H465 0.930 . S
C478 C477 1.376 . S
C478 C479 1.388 . S
C479 H466 0.930 . S
C479 C478 1.388 . S
C479 C480 1.390 . S
C480 C479 1.390 . S
C480 C481 1.394 1_455 S
C480 C486 1.465 1_455 S
C481 C476 1.399 . S
C481 C480 1.394 1_655 S
C481 C482 1.516 . S
C482 C481 1.516 . S
C482 C483 1.502 . S
C482 C484 1.561 . S
C482 C485 1.526 . S
C483 H467 0.959 . S
C483 H468 0.959 . S
C483 H469 0.961 . S
C483 C482 1.502 . S
C484 H470 0.960 . S
C484 H471 0.961 . S
C484 H472 0.959 . S
C484 C482 1.561 . S
C485 C482 1.526 . S
C485 C486 1.396 . S
C485 C490 1.390 . S
C486 C480 1.465 1_655 S
C486 C485 1.396 . S
C486 C487 1.399 1_655 S
C487 H473 0.929 . S
C487 C486 1.399 1_455 S
C487 C488 1.385 1_455 S
C488 H474 0.931 . S
C488 C487 1.385 1_655 S
C488 C489 1.389 . S
C489 C488 1.389 . S
C489 C490 1.387 . S
C490 H475 0.930 . S
C490 C485 1.390 . S
C490 C489 1.387 . S
H491 C503 0.930 . S
H492 C505 0.930 . S
H493 C506 0.930 . S
H494 C510 0.959 . S
H495 C510 0.959 . S
H496 C510 0.961 . S
H497 C511 0.960 . S
H498 C511 0.961 . S
H499 C511 0.959 . S
H500 C514 0.929 . S
H501 C515 0.931 . S
H502 C517 0.930 . S
C503 H491 0.930 . S
C503 C504 1.399 1_565 S
C503 C508 1.399 . S
C504 C503 1.399 1_545 S
C504 C505 1.376 . S
C505 H492 0.930 . S
C505 C504 1.376 . S
C505 C506 1.388 . S
C506 H493 0.930 . S
C506 C505 1.388 . S
C506 C507 1.390 1_545 S
C507 C506 1.390 1_565 S
C507 C508 1.394 . S
C507 C513 1.465 . S
C508 C503 1.399 . S
C508 C507 1.394 . S
C508 C509 1.516 . S
C509 C508 1.516 . S
C509 C510 1.502 . S
C509 C511 1.561 1_565 S
C509 C512 1.526 . S
C510 H494 0.959 . S
C510 H495 0.959 . S
C510 H496 0.961 . S
C510 C509 1.502 . S
C511 H497 0.960 . S
C511 H498 0.961 . S
C511 H499 0.959 . S
C511 C509 1.561 1_545 S
C512 C509 1.526 . S
C512 C513 1.396 . S
C512 C517 1.390 . S
C513 C507 1.465 . S
C513 C512 1.396 . S
C513 C514 1.399 . S
C514 H500 0.929 . S
C514 C513 1.399 . S
C514 C515 1.385 . S
C515 H501 0.931 . S
C515 C514 1.385 . S
C515 C516 1.389 . S
C516 C515 1.389 . S
C516 C517 1.387 . S
C517 H502 0.930 . S
C517 C512 1.390 . S
C517 C516 1.387 . S
H518 C530 0.930 . S
H519 C532 0.930 . S
H520 C533 0.930 . S
H521 C537 0.959 . S
H522 C537 0.959 . S
H523 C537 0.961 . S
H524 C538 0.960 . S
H525 C538 0.961 . S
H526 C538 0.959 . S
H527 C541 0.929 . S
H528 C542 0.931 . S
H529 C544 0.930 . S
C530 H518 0.930 . S
C530 C531 1.399 . S
C530 C535 1.399 . S
C531 C530 1.399 . S
C531 C532 1.376 . S
C532 H519 0.930 . S
C532 C531 1.376 . S
C532 C533 1.388 . S
C533 H520 0.930 . S
C533 C532 1.388 . S
C533 C534 1.390 . S
C534 C533 1.390 . S
C534 C535 1.394 . S
C534 C540 1.465 . S
C535 C530 1.399 . S
C535 C534 1.394 . S
C535 C536 1.516 . S
C536 C535 1.516 . S
C536 C537 1.502 . S
C536 C538 1.561 . S
C536 C539 1.526 . S
C537 H521 0.959 . S
C537 H522 0.959 . S
C537 H523 0.961 . S
C537 C536 1.502 . S
C538 H524 0.960 . S
C538 H525 0.961 . S
C538 H526 0.959 . S
C538 C536 1.561 . S
C539 C536 1.526 . S
C539 C540 1.396 . S
C539 C544 1.390 . S
C540 C534 1.465 . S
C540 C539 1.396 . S
C540 C541 1.399 . S
C541 H527 0.929 . S
C541 C540 1.399 . S
C541 C542 1.385 . S
C542 H528 0.931 . S
C542 C541 1.385 . S
C542 C543 1.389 . S
C543 C542 1.389 . S
C543 C544 1.387 . S
C544 H529 0.930 . S
C544 C539 1.390 . S
C544 C543 1.387 . S
H545 C557 0.930 . S
H546 C559 0.930 . S
H547 C560 0.930 . S
H548 C564 0.959 . S
H549 C564 0.959 . S
H550 C564 0.961 . S
H551 C565 0.960 . S
H552 C565 0.961 . S
H553 C565 0.959 . S
H554 C568 0.929 . S
H555 C569 0.931 . S
H556 C571 0.930 . S
C557 H545 0.930 . S
C557 C558 1.399 . S
C557 C562 1.399 . S
C558 C557 1.399 . S
C558 C559 1.376 . S
C559 H546 0.930 . S
C559 C558 1.376 . S
C559 C560 1.388 . S
C560 H547 0.930 . S
C560 C559 1.388 . S
C560 C561 1.390 . S
C561 C560 1.390 . S
C561 C562 1.394 . S
C561 C567 1.465 . S
C562 C557 1.399 . S
C562 C561 1.394 . S
C562 C563 1.516 . S
C563 C562 1.516 . S
C563 C564 1.502 . S
C563 C565 1.561 . S
C563 C566 1.526 . S
C564 H548 0.959 . S
C564 H549 0.959 . S
C564 H550 0.961 . S
C564 C563 1.502 . S
C565 H551 0.960 . S
C565 H552 0.961 . S
C565 H553 0.959 . S
C565 C563 1.561 . S
C566 C563 1.526 . S
C566 C567 1.396 . S
C566 C571 1.390 . S
C567 C561 1.465 . S
C567 C566 1.396 . S
C567 C568 1.399 . S
C568 H554 0.929 . S
C568 C567 1.399 . S
C568 C569 1.385 . S
C569 H555 0.931 . S
C569 C568 1.385 . S
C569 C570 1.389 . S
C570 C569 1.389 . S
C570 C571 1.387 . S
C571 H556 0.930 . S
C571 C566 1.390 . S
C571 C570 1.387 . S
H572 C584 0.930 . S
H573 C586 0.930 . S
H574 C587 0.930 . S
H575 C591 0.959 . S
H576 C591 0.959 . S
H577 C591 0.961 . S
H578 C592 0.960 . S
H579 C592 0.961 . S
H580 C592 0.959 . S
H581 C595 0.942 . S
H582 C596 0.931 1_556 S
H583 C598 0.930 . S
C584 H572 0.930 . S
C584 C585 1.399 1_455 S
C584 C589 1.399 . S
C585 C584 1.399 1_655 S
C585 C586 1.376 . S
C586 H573 0.930 . S
C586 C585 1.376 . S
C586 C587 1.388 . S
C587 H574 0.930 . S
C587 C586 1.388 . S
C587 C588 1.390 . S
C588 C587 1.390 . S
C588 C589 1.394 1_655 S
C588 C594 1.465 1_655 S
C589 C584 1.399 . S
C589 C588 1.394 1_455 S
C589 C590 1.516 . S
C590 C589 1.516 . S
C590 C591 1.502 . S
C590 C592 1.561 . S
C590 C593 1.526 . S
C591 H575 0.959 . S
C591 H576 0.959 . S
C591 H577 0.961 . S
C591 C590 1.502 . S
C592 H578 0.960 . S
C592 H579 0.961 . S
C592 H580 0.959 . S
C592 C590 1.561 . S
C593 C590 1.526 . S
C593 C594 1.396 . S
C593 C598 1.390 . S
C594 C588 1.465 1_455 S
C594 C593 1.396 . S
C594 C595 1.393 1_455 S
C595 H581 0.942 . S
C595 C594 1.393 1_655 S
C595 C596 1.378 1_655 S
C596 H582 0.931 1_554 S
C596 C595 1.378 1_455 S
C596 C597 1.389 . S
C597 C596 1.389 . S
C597 C598 1.387 . S
C598 H583 0.930 . S
C598 C593 1.390 . S
C598 C597 1.387 . S
H599 C611 0.930 . S
H600 C613 0.930 . S
H601 C614 0.930 . S
H602 C618 0.959 . S
H603 C618 0.959 . S
H604 C618 0.961 . S
H605 C619 0.960 . S
H606 C619 0.961 . S
H607 C619 0.959 . S
H608 C622 0.929 . S
H609 C623 0.931 . S
H610 C625 0.930 . S
C611 H599 0.930 . S
C611 C612 1.399 1_545 S
C611 C616 1.399 . S
C612 C611 1.399 1_565 S
C612 C613 1.376 . S
C613 H600 0.930 . S
C613 C612 1.376 . S
C613 C614 1.388 . S
C614 H601 0.930 . S
C614 C613 1.388 . S
C614 C615 1.390 . S
C615 C614 1.390 . S
C615 C616 1.394 1_565 S
C615 C621 1.465 1_565 S
C616 C611 1.399 . S
C616 C615 1.394 1_545 S
C616 C617 1.516 . S
C617 C616 1.516 . S
C617 C618 1.502 . S
C617 C619 1.561 . S
C617 C620 1.526 . S
C618 H602 0.959 . S
C618 H603 0.959 . S
C618 H604 0.961 . S
C618 C617 1.502 . S
C619 H605 0.960 . S
C619 H606 0.961 . S
C619 H607 0.959 . S
C619 C617 1.561 . S
C620 C617 1.526 . S
C620 C621 1.396 . S
C620 C625 1.390 . S
C621 C615 1.465 1_545 S
C621 C620 1.396 . S
C621 C622 1.399 1_545 S
C622 H608 0.929 . S
C622 C621 1.399 1_565 S
C622 C623 1.385 . S
C623 H609 0.931 . S
C623 C622 1.385 . S
C623 C624 1.389 1_565 S
C624 C623 1.389 1_545 S
C624 C625 1.387 . S
C625 H610 0.930 . S
C625 C620 1.390 . S
C625 C624 1.387 . S
H626 C638 0.930 . S
H627 C640 0.930 . S
H628 C641 0.930 1_554 S
H629 C645 0.959 . S
H630 C645 0.959 . S
H631 C645 0.961 . S
H632 C646 0.960 . S
H633 C646 0.961 . S
H634 C646 0.959 . S
H635 C649 0.929 1_554 S
H636 C650 0.931 . S
H637 C652 0.930 . S
C638 H626 0.930 . S
C638 C639 1.399 . S
C638 C643 1.399 . S
C639 C638 1.399 . S
C639 C640 1.376 . S
C640 H627 0.930 . S
C640 C639 1.376 . S
C640 C641 1.388 . S
C641 H628 0.930 1_556 S
C641 C640 1.388 . S
C641 C642 1.390 . S
C642 C641 1.390 . S
C642 C643 1.394 . S
C642 C648 1.465 . S
C643 C638 1.399 . S
C643 C642 1.394 . S
C643 C644 1.516 . S
C644 C643 1.516 . S
C644 C645 1.502 . S
C644 C646 1.561 . S
C644 C647 1.526 . S
C645 H629 0.959 . S
C645 H630 0.959 . S
C645 H631 0.961 . S
C645 C644 1.502 . S
C646 H632 0.960 . S
C646 H633 0.961 . S
C646 H634 0.959 . S
C646 C644 1.561 . S
C647 C644 1.526 . S
C647 C648 1.396 . S
C647 C652 1.390 . S
C648 C642 1.465 . S
C648 C647 1.396 . S
C648 C649 1.399 . S
C649 H635 0.929 1_556 S
C649 C648 1.399 . S
C649 C650 1.385 . S
C650 H636 0.931 . S
C650 C649 1.385 . S
C650 C651 1.389 . S
C651 C650 1.389 . S
C651 C652 1.387 . S
C652 H637 0.930 . S
C652 C647 1.390 . S
C652 C651 1.387 . S
H653 C665 0.930 . S
H654 C667 0.930 . S
H655 C668 0.930 . S
H656 C672 0.959 . S
H657 C672 0.959 . S
H658 C672 0.961 . S
H659 C673 0.960 . S
H660 C673 0.961 . S
H661 C673 0.959 . S
H662 C676 0.929 . S
H663 C677 0.931 . S
H664 C679 0.930 . S
C665 H653 0.930 . S
C665 C666 1.399 . S
C665 C670 1.399 . S
C666 C665 1.399 . S
C666 C667 1.376 . S
C667 H654 0.930 . S
C667 C666 1.376 . S
C667 C668 1.388 . S
C668 H655 0.930 . S
C668 C667 1.388 . S
C668 C669 1.390 . S
C669 C668 1.390 . S
C669 C670 1.394 . S
C669 C675 1.465 . S
C670 C665 1.399 . S
C670 C669 1.394 . S
C670 C671 1.516 . S
C671 C670 1.516 . S
C671 C672 1.502 . S
C671 C673 1.561 . S
C671 C674 1.526 . S
C672 H656 0.959 . S
C672 H657 0.959 . S
C672 H658 0.961 . S
C672 C671 1.502 . S
C673 H659 0.960 . S
C673 H660 0.961 . S
C673 H661 0.959 . S
C673 C671 1.561 . S
C674 C671 1.526 . S
C674 C675 1.396 . S
C674 C679 1.390 . S
C675 C669 1.465 . S
C675 C674 1.396 . S
C675 C676 1.399 . S
C676 H662 0.929 . S
C676 C675 1.399 . S
C676 C677 1.385 . S
C677 H663 0.931 . S
C677 C676 1.385 . S
C677 C678 1.389 . S
C678 C677 1.389 . S
C678 C679 1.387 . S
C679 H664 0.930 . S
C679 C674 1.390 . S
C679 C678 1.387 . S
H680 C692 0.930 . S
H681 C694 0.937 . S
H682 C695 0.930 1_655 S
H683 C699 0.959 . S
H684 C699 0.959 . S
H685 C699 0.961 . S
H686 C700 0.962 . S
H687 C700 0.961 1_455 S
H688 C700 0.959 . S
H689 C703 0.929 1_655 S
H690 C704 0.931 . S
H691 C706 0.930 1_554 S
C692 H680 0.930 . S
C692 C693 1.399 . S
C692 C697 1.399 . S
C693 C692 1.399 . S
C693 C694 1.376 1_554 S
C694 H681 0.937 . S
C694 C693 1.376 1_556 S
C694 C695 1.388 . S
C695 H682 0.930 1_455 S
C695 C694 1.388 . S
C695 C696 1.390 . S
C696 C695 1.390 . S
C696 C697 1.394 1_556 S
C696 C702 1.465 . S
C697 C692 1.399 . S
C697 C696 1.394 1_554 S
C697 C698 1.516 . S
C698 C697 1.516 . S
C698 C699 1.502 . S
C698 C700 1.561 1_455 S
C698 C701 1.526 . S
C699 H683 0.959 . S
C699 H684 0.959 . S
C699 H685 0.961 . S
C699 C698 1.502 . S
C700 H686 0.962 . S
C700 H687 0.961 1_655 S
C700 H688 0.959 . S
C700 C698 1.561 1_655 S
C701 C698 1.526 . S
C701 C702 1.396 1_554 S
C701 C706 1.390 1_554 S
C702 C696 1.465 . S
C702 C701 1.396 1_556 S
C702 C703 1.399 . S
C703 H689 0.929 1_455 S
C703 C702 1.399 . S
C703 C704 1.385 . S
C704 H690 0.931 . S
C704 C703 1.385 . S
C704 C705 1.389 . S
C705 C704 1.389 . S
C705 C706 1.387 . S
C706 H691 0.930 1_556 S
C706 C701 1.390 1_556 S
C706 C705 1.387 . S
H707 C719 0.930 . S
H708 C721 0.930 . S
H709 C722 0.930 . S
H710 C726 0.959 . S
H711 C726 0.959 . S
H712 C726 0.961 1_554 S
H713 C727 0.960 . S
H714 C727 0.961 . S
H715 C727 0.959 . S
H716 C730 0.929 . S
H717 C731 0.931 . S
H718 C733 0.930 . S
C719 H707 0.930 . S
C719 C720 1.399 1_545 S
C719 C724 1.399 . S
C720 C719 1.399 1_565 S
C720 C721 1.376 1_554 S
C721 H708 0.930 . S
C721 C720 1.376 1_556 S
C721 C722 1.388 . S
C722 H709 0.930 . S
C722 C721 1.388 . S
C722 C723 1.390 . S
C723 C722 1.390 . S
C723 C724 1.394 1_566 S
C723 C729 1.465 . S
C724 C719 1.399 . S
C724 C723 1.394 1_544 S
C724 C725 1.516 . S
C725 C724 1.516 . S
C725 C726 1.502 1_554 S
C725 C727 1.561 . S
C725 C728 1.526 1_554 S
C726 H710 0.959 . S
C726 H711 0.959 . S
C726 H712 0.961 1_556 S
C726 C725 1.502 1_556 S
C727 H713 0.960 . S
C727 H714 0.961 . S
C727 H715 0.959 . S
C727 C725 1.561 . S
C728 C725 1.526 1_556 S
C728 C729 1.396 1_545 S
C728 C733 1.390 . S
C729 C723 1.465 . S
C729 C728 1.396 1_565 S
C729 C730 1.399 . S
C730 H716 0.929 . S
C730 C729 1.399 . S
C730 C731 1.385 . S
C731 H717 0.931 . S
C731 C730 1.385 . S
C731 C732 1.389 1_565 S
C732 C731 1.389 1_545 S
C732 C733 1.387 . S
C733 H718 0.930 . S
C733 C728 1.390 . S
C733 C732 1.387 . S
H734 C746 0.930 . S
H735 C748 0.930 . S
H736 C749 0.930 . S
H737 C753 0.959 . S
H738 C753 0.959 . S
H739 C753 0.961 . S
H740 C754 0.960 . S
H741 C754 0.961 . S
H742 C754 0.959 . S
H743 C757 0.929 . S
H744 C758 0.931 . S
H745 C760 0.930 . S
C746 H734 0.930 . S
C746 C747 1.399 . S
C746 C751 1.399 . S
C747 C746 1.399 . S
C747 C748 1.376 . S
C748 H735 0.930 . S
C748 C747 1.376 . S
C748 C749 1.388 . S
C749 H736 0.930 . S
C749 C748 1.388 . S
C749 C750 1.390 . S
C750 C749 1.390 . S
C750 C751 1.394 . S
C750 C756 1.465 . S
C751 C746 1.399 . S
C751 C750 1.394 . S
C751 C752 1.516 . S
C752 C751 1.516 . S
C752 C753 1.502 . S
C752 C754 1.561 . S
C752 C755 1.526 . S
C753 H737 0.959 . S
C753 H738 0.959 . S
C753 H739 0.961 . S
C753 C752 1.502 . S
C754 H740 0.960 . S
C754 H741 0.961 . S
C754 H742 0.959 . S
C754 C752 1.561 . S
C755 C752 1.526 . S
C755 C756 1.396 . S
C755 C760 1.390 . S
C756 C750 1.465 . S
C756 C755 1.396 . S
C756 C757 1.399 . S
C757 H743 0.929 . S
C757 C756 1.399 . S
C757 C758 1.385 . S
C758 H744 0.931 . S
C758 C757 1.385 . S
C758 C759 1.389 . S
C759 C758 1.389 . S
C759 C760 1.387 . S
C760 H745 0.930 . S
C760 C755 1.390 . S
C760 C759 1.387 . S
H761 C773 0.930 . S
H762 C775 0.930 . S
H763 C776 0.930 . S
H764 C780 0.959 . S
H765 C780 0.959 . S
H766 C780 0.961 . S
H767 C781 0.960 . S
H768 C781 0.961 . S
H769 C781 0.959 1_554 S
H770 C784 0.929 1_554 S
H771 C785 0.931 . S
H772 C787 0.930 . S
C773 H761 0.930 . S
C773 C774 1.399 1_556 S
C773 C778 1.399 . S
C774 C773 1.399 1_554 S
C774 C775 1.376 . S
C775 H762 0.930 . S
C775 C774 1.376 . S
C775 C776 1.388 . S
C776 H763 0.930 . S
C776 C775 1.388 . S
C776 C777 1.390 1_554 S
C777 C776 1.390 1_556 S
C777 C778 1.394 . S
C777 C783 1.465 . S
C778 C773 1.399 . S
C778 C777 1.394 . S
C778 C779 1.516 . S
C779 C778 1.516 . S
C779 C780 1.502 . S
C779 C781 1.561 . S
C779 C782 1.526 . S
C780 H764 0.959 . S
C780 H765 0.959 . S
C780 H766 0.961 . S
C780 C779 1.502 . S
C781 H767 0.960 . S
C781 H768 0.961 . S
C781 H769 0.959 1_556 S
C781 C779 1.561 . S
C782 C779 1.526 . S
C782 C783 1.396 . S
C782 C787 1.390 . S
C783 C777 1.465 . S
C783 C782 1.396 . S
C783 C784 1.399 . S
C784 H770 0.929 1_556 S
C784 C783 1.399 . S
C784 C785 1.385 . S
C785 H771 0.931 . S
C785 C784 1.385 . S
C785 C786 1.389 . S
C786 C785 1.389 . S
C786 C787 1.387 . S
C787 H772 0.930 . S
C787 C782 1.390 . S
C787 C786 1.387 . S
H788 C800 0.930 . S
H789 C802 0.930 . S
H790 C803 0.930 . S
H791 C807 0.959 . S
H792 C807 0.959 . S
H793 C807 0.961 . S
H794 C808 0.960 . S
H795 C808 0.961 . S
H796 C808 0.959 . S
H797 C811 0.929 . S
H798 C812 0.931 . S
H799 C814 0.930 . S
C800 H788 0.930 . S
C800 C801 1.399 . S
C800 C805 1.399 . S
C801 C800 1.399 . S
C801 C802 1.376 . S
C802 H789 0.930 . S
C802 C801 1.376 . S
C802 C803 1.388 . S
C803 H790 0.930 . S
C803 C802 1.388 . S
C803 C804 1.390 . S
C804 C803 1.390 . S
C804 C805 1.394 . S
C804 C810 1.465 . S
C805 C800 1.399 . S
C805 C804 1.394 . S
C805 C806 1.516 . S
C806 C805 1.516 . S
C806 C807 1.502 1_655 S
C806 C808 1.561 . S
C806 C809 1.526 . S
C807 H791 0.959 . S
C807 H792 0.959 . S
C807 H793 0.961 . S
C807 C806 1.502 1_455 S
C808 H794 0.960 . S
C808 H795 0.961 . S
C808 H796 0.959 . S
C808 C806 1.561 . S
C809 C806 1.526 . S
C809 C810 1.396 . S
C809 C814 1.390 . S
C810 C804 1.465 . S
C810 C809 1.396 . S
C810 C811 1.399 . S
C811 H797 0.929 . S
C811 C810 1.399 . S
C811 C812 1.385 . S
C812 H798 0.931 . S
C812 C811 1.385 . S
C812 C813 1.389 . S
C813 C812 1.389 . S
C813 C814 1.387 . S
C814 H799 0.930 . S
C814 C809 1.390 . S
C814 C813 1.387 . S
H815 C827 0.930 . S
H816 C829 0.930 . S
H817 C830 0.930 . S
H818 C834 0.969 . S
H819 C834 0.959 . S
H820 C834 0.961 . S
H821 C835 0.960 . S
H822 C835 0.961 . S
H823 C835 0.959 . S
H824 C838 0.929 . S
H825 C839 0.931 . S
H826 C841 0.930 . S
C827 H815 0.930 . S
C827 C828 1.399 1_545 S
C827 C832 1.399 . S
C828 C827 1.399 1_565 S
C828 C829 1.376 . S
C829 H816 0.930 . S
C829 C828 1.376 . S
C829 C830 1.388 . S
C830 H817 0.930 . S
C830 C829 1.388 . S
C830 C831 1.390 . S
C831 C830 1.390 . S
C831 C832 1.394 1_565 S
C831 C837 1.465 . S
C832 C827 1.399 . S
C832 C831 1.394 1_545 S
C832 C833 1.516 . S
C833 C832 1.516 . S
C833 C834 1.502 . S
C833 C835 1.561 . S
C833 C836 1.526 . S
C834 H818 0.969 . S
C834 H819 0.959 . S
C834 H820 0.961 . S
C834 C833 1.502 . S
C835 H821 0.960 . S
C835 H822 0.961 . S
C835 H823 0.959 . S
C835 C833 1.561 . S
C836 C833 1.526 . S
C836 C837 1.396 1_545 S
C836 C841 1.390 . S
C837 C831 1.465 . S
C837 C836 1.396 1_565 S
C837 C838 1.399 . S
C838 H824 0.929 . S
C838 C837 1.399 . S
C838 C839 1.385 . S
C839 H825 0.931 . S
C839 C838 1.385 . S
C839 C840 1.389 . S
C840 C839 1.389 . S
C840 C841 1.387 1_565 S
C841 H826 0.930 . S
C841 C836 1.390 . S
C841 C840 1.387 1_545 S
H842 C854 0.930 . S
H843 C856 0.930 . S
H844 C857 0.930 . S
H845 C861 0.959 . S
H846 C861 0.959 . S
H847 C861 0.961 . S
H848 C862 0.960 . S
H849 C862 0.961 . S
H850 C862 0.959 . S
H851 C865 0.929 . S
H852 C866 0.931 . S
H853 C868 0.930 . S
C854 H842 0.930 . S
C854 C855 1.399 . S
C854 C859 1.399 . S
C855 C854 1.399 . S
C855 C856 1.376 . S
C856 H843 0.930 . S
C856 C855 1.376 . S
C856 C857 1.388 . S
C857 H844 0.930 . S
C857 C856 1.388 . S
C857 C858 1.390 . S
C858 C857 1.390 . S
C858 C859 1.394 . S
C858 C864 1.465 . S
C859 C854 1.399 . S
C859 C858 1.394 . S
C859 C860 1.516 . S
C860 C859 1.516 . S
C860 C861 1.502 . S
C860 C862 1.561 . S
C860 C863 1.526 . S
C861 H845 0.959 . S
C861 H846 0.959 . S
C861 H847 0.961 . S
C861 C860 1.502 . S
C862 H848 0.960 . S
C862 H849 0.961 . S
C862 H850 0.959 . S
C862 C860 1.561 . S
C863 C860 1.526 . S
C863 C864 1.396 . S
C863 C868 1.390 . S
C864 C858 1.465 . S
C864 C863 1.396 . S
C864 C865 1.399 . S
C865 H851 0.929 . S
C865 C864 1.399 . S
C865 C866 1.385 . S
C866 H852 0.931 . S
C866 C865 1.385 . S
C866 C867 1.389 . S
C867 C866 1.389 . S
C867 C868 1.387 . S
C868 H853 0.930 . S
C868 C863 1.390 . S
C868 C867 1.387 . S
H869 C881 0.930 . S
H870 C883 0.930 . S
H871 C884 0.930 . S
H872 C888 0.959 . S
H873 C888 0.959 . S
H874 C888 0.961 . S
H875 C889 0.960 . S
H876 C889 0.961 . S
H877 C889 0.959 . S
H878 C892 0.929 . S
H879 C893 0.931 . S
H880 C895 0.930 . S
C881 H869 0.930 . S
C881 C882 1.399 . S
C881 C886 1.399 . S
C882 C881 1.399 . S
C882 C883 1.376 . S
C883 H870 0.930 . S
C883 C882 1.376 . S
C883 C884 1.388 . S
C884 H871 0.930 . S
C884 C883 1.388 . S
C884 C885 1.390 . S
C885 C884 1.390 . S
C885 C886 1.394 . S
C885 C891 1.465 . S
C886 C881 1.399 . S
C886 C885 1.394 . S
C886 C887 1.516 . S
C887 C886 1.516 . S
C887 C888 1.502 . S
C887 C889 1.561 . S
C887 C890 1.526 . S
C888 H872 0.959 . S
C888 H873 0.959 . S
C888 H874 0.961 . S
C888 C887 1.502 . S
C889 H875 0.960 . S
C889 H876 0.961 . S
C889 H877 0.959 . S
C889 C887 1.561 . S
C890 C887 1.526 . S
C890 C891 1.396 . S
C890 C895 1.390 . S
C891 C885 1.465 . S
C891 C890 1.396 . S
C891 C892 1.399 . S
C892 H878 0.929 . S
C892 C891 1.399 . S
C892 C893 1.385 . S
C893 H879 0.931 . S
C893 C892 1.385 . S
C893 C894 1.389 . S
C894 C893 1.389 . S
C894 C895 1.387 . S
C895 H880 0.930 . S
C895 C890 1.390 . S
C895 C894 1.387 . S
C261 C74 1.853 1_565 S
C273 C111 1.899 1_545 S
C300 C151 1.688 . S
C288 C85 1.718 . S
C327 C170 1.930 . S
C315 C52 1.826 . S
C354 C231 1.356 1_455 S
C342 C63 1.341 . S
C381 C90 1.905 . S
C369 C30 1.783 . S
C396 C41 1.667 . S
C408 C130 1.713 . S
C423 C8 1.872 . S
C435 C191 1.928 . S
C450 C19 1.247 . S
C462 C210 1.344 1_655 S
C489 C92 0.885 . S
C477 C62 0.942 . S
C516 C132 0.402 . S
C504 C73 0.362 . S
C543 C188 0.973 . S
C531 C84 1.042 . S
C558 C51 0.531 . S
C570 C212 0.452 . S
C585 C18 0.923 . S
C597 C113 0.902 . S
C624 C153 0.365 . S
C612 C29 0.520 1_565 S
C651 C199 0.984 . S
C639 C40 1.004 . S
C666 C7 0.586 . S
C678 C233 0.593 . S
C693 C60 1.334 . S
C705 C108 1.604 . S
C720 C71 1.867 1_565 S
C732 C148 2.305 . S
C759 C172 1.512 . S
C747 C82 1.146 . S
C786 C228 2.308 . S
C774 C49 1.888 . S
C801 C16 1.342 . S
C813 C119 1.628 . S
C840 C159 2.328 . S
C828 C27 1.841 1_565 S
C867 C193 1.469 . S
C855 C38 1.354 . S
C882 C5 1.869 . S
C894 C239 2.330 . S
