# Generated by pormake.
# Topology gar, (4,6)-cn, num edge types: 1
# Building blocks:
#     Node 0, Type 0, BuildingBlock: TATPOV_clean_sbu_0, # of connection points: 4
#     Node 1, Type 0, BuildingBlock: TATPOV_clean_sbu_0, # of connection points: 4
#     Node 2, Type 0, BuildingBlock: TATPOV_clean_sbu_0, # of connection points: 4
#     Node 3, Type 0, BuildingBlock: TATPOV_clean_sbu_0, # of connection points: 4
#     Node 4, Type 0, BuildingBlock: TATPOV_clean_sbu_0, # of connection points: 4
#     Node 5, Type 0, BuildingBlock: TATPOV_clean_sbu_0, # of connection points: 4
#     Node 6, Type 0, BuildingBlock: TATPOV_clean_sbu_0, # of connection points: 4
#     Node 7, Type 0, BuildingBlock: TATPOV_clean_sbu_0, # of connection points: 4
#     Node 8, Type 0, BuildingBlock: TATPOV_clean_sbu_0, # of connection points: 4
#     Node 9, Type 0, BuildingBlock: TATPOV_clean_sbu_0, # of connection points: 4
#     Node 10, Type 0, BuildingBlock: TATPOV_clean_sbu_0, # of connection points: 4
#     Node 11, Type 0, BuildingBlock: TATPOV_clean_sbu_0, # of connection points: 4
#     Node 12, Type 0, BuildingBlock: TATPOV_clean_sbu_0, # of connection points: 4
#     Node 13, Type 0, BuildingBlock: TATPOV_clean_sbu_0, # of connection points: 4
#     Node 14, Type 0, BuildingBlock: TATPOV_clean_sbu_0, # of connection points: 4
#     Node 15, Type 0, BuildingBlock: TATPOV_clean_sbu_0, # of connection points: 4
#     Node 16, Type 0, BuildingBlock: TATPOV_clean_sbu_0, # of connection points: 4
#     Node 17, Type 0, BuildingBlock: TATPOV_clean_sbu_0, # of connection points: 4
#     Node 18, Type 0, BuildingBlock: TATPOV_clean_sbu_0, # of connection points: 4
#     Node 19, Type 0, BuildingBlock: TATPOV_clean_sbu_0, # of connection points: 4
#     Node 20, Type 0, BuildingBlock: TATPOV_clean_sbu_0, # of connection points: 4
#     Node 21, Type 0, BuildingBlock: TATPOV_clean_sbu_0, # of connection points: 4
#     Node 22, Type 0, BuildingBlock: TATPOV_clean_sbu_0, # of connection points: 4
#     Node 23, Type 0, BuildingBlock: TATPOV_clean_sbu_0, # of connection points: 4
#     Node 24, Type 1, BuildingBlock: GEDQOX_clean_sbu_0, # of connection points: 6
#     Node 25, Type 1, BuildingBlock: GEDQOX_clean_sbu_0, # of connection points: 6
#     Node 26, Type 1, BuildingBlock: GEDQOX_clean_sbu_0, # of connection points: 6
#     Node 27, Type 1, BuildingBlock: GEDQOX_clean_sbu_0, # of connection points: 6
#     Node 28, Type 1, BuildingBlock: GEDQOX_clean_sbu_0, # of connection points: 6
#     Node 29, Type 1, BuildingBlock: GEDQOX_clean_sbu_0, # of connection points: 6
#     Node 30, Type 1, BuildingBlock: GEDQOX_clean_sbu_0, # of connection points: 6
#     Node 31, Type 1, BuildingBlock: GEDQOX_clean_sbu_0, # of connection points: 6
#     Node 32, Type 1, BuildingBlock: GEDQOX_clean_sbu_0, # of connection points: 6
#     Node 33, Type 1, BuildingBlock: GEDQOX_clean_sbu_0, # of connection points: 6
#     Node 34, Type 1, BuildingBlock: GEDQOX_clean_sbu_0, # of connection points: 6
#     Node 35, Type 1, BuildingBlock: GEDQOX_clean_sbu_0, # of connection points: 6
#     Node 36, Type 1, BuildingBlock: GEDQOX_clean_sbu_0, # of connection points: 6
#     Node 37, Type 1, BuildingBlock: GEDQOX_clean_sbu_0, # of connection points: 6
#     Node 38, Type 1, BuildingBlock: GEDQOX_clean_sbu_0, # of connection points: 6
#     Node 39, Type 1, BuildingBlock: GEDQOX_clean_sbu_0, # of connection points: 6
#     Edge 40, Type (0, 1), BuildingBlock: ZUJKAS_clean_linker_0, # of connection points: 2
#     Edge 41, Type (0, 1), BuildingBlock: ZUJKAS_clean_linker_0, # of connection points: 2
#     Edge 42, Type (0, 1), BuildingBlock: ZUJKAS_clean_linker_0, # of connection points: 2
#     Edge 43, Type (0, 1), BuildingBlock: ZUJKAS_clean_linker_0, # of connection points: 2
#     Edge 44, Type (0, 1), BuildingBlock: ZUJKAS_clean_linker_0, # of connection points: 2
#     Edge 45, Type (0, 1), BuildingBlock: ZUJKAS_clean_linker_0, # of connection points: 2
#     Edge 46, Type (0, 1), BuildingBlock: ZUJKAS_clean_linker_0, # of connection points: 2
#     Edge 47, Type (0, 1), BuildingBlock: ZUJKAS_clean_linker_0, # of connection points: 2
#     Edge 48, Type (0, 1), BuildingBlock: ZUJKAS_clean_linker_0, # of connection points: 2
#     Edge 49, Type (0, 1), BuildingBlock: ZUJKAS_clean_linker_0, # of connection points: 2
#     Edge 50, Type (0, 1), BuildingBlock: ZUJKAS_clean_linker_0, # of connection points: 2
#     Edge 51, Type (0, 1), BuildingBlock: ZUJKAS_clean_linker_0, # of connection points: 2
#     Edge 52, Type (0, 1), BuildingBlock: ZUJKAS_clean_linker_0, # of connection points: 2
#     Edge 53, Type (0, 1), BuildingBlock: ZUJKAS_clean_linker_0, # of connection points: 2
#     Edge 54, Type (0, 1), BuildingBlock: ZUJKAS_clean_linker_0, # of connection points: 2
#     Edge 55, Type (0, 1), BuildingBlock: ZUJKAS_clean_linker_0, # of connection points: 2
#     Edge 56, Type (0, 1), BuildingBlock: ZUJKAS_clean_linker_0, # of connection points: 2
#     Edge 57, Type (0, 1), BuildingBlock: ZUJKAS_clean_linker_0, # of connection points: 2
#     Edge 58, Type (0, 1), BuildingBlock: ZUJKAS_clean_linker_0, # of connection points: 2
#     Edge 59, Type (0, 1), BuildingBlock: ZUJKAS_clean_linker_0, # of connection points: 2
#     Edge 60, Type (0, 1), BuildingBlock: ZUJKAS_clean_linker_0, # of connection points: 2
#     Edge 61, Type (0, 1), BuildingBlock: ZUJKAS_clean_linker_0, # of connection points: 2
#     Edge 62, Type (0, 1), BuildingBlock: ZUJKAS_clean_linker_0, # of connection points: 2
#     Edge 63, Type (0, 1), BuildingBlock: ZUJKAS_clean_linker_0, # of connection points: 2
#     Edge 64, Type (0, 1), BuildingBlock: ZUJKAS_clean_linker_0, # of connection points: 2
#     Edge 65, Type (0, 1), BuildingBlock: ZUJKAS_clean_linker_0, # of connection points: 2
#     Edge 66, Type (0, 1), BuildingBlock: ZUJKAS_clean_linker_0, # of connection points: 2
#     Edge 67, Type (0, 1), BuildingBlock: ZUJKAS_clean_linker_0, # of connection points: 2
#     Edge 68, Type (0, 1), BuildingBlock: ZUJKAS_clean_linker_0, # of connection points: 2
#     Edge 69, Type (0, 1), BuildingBlock: ZUJKAS_clean_linker_0, # of connection points: 2
#     Edge 70, Type (0, 1), BuildingBlock: ZUJKAS_clean_linker_0, # of connection points: 2
#     Edge 71, Type (0, 1), BuildingBlock: ZUJKAS_clean_linker_0, # of connection points: 2
#     Edge 72, Type (0, 1), BuildingBlock: ZUJKAS_clean_linker_0, # of connection points: 2
#     Edge 73, Type (0, 1), BuildingBlock: ZUJKAS_clean_linker_0, # of connection points: 2
#     Edge 74, Type (0, 1), BuildingBlock: ZUJKAS_clean_linker_0, # of connection points: 2
#     Edge 75, Type (0, 1), BuildingBlock: ZUJKAS_clean_linker_0, # of connection points: 2
#     Edge 76, Type (0, 1), BuildingBlock: ZUJKAS_clean_linker_0, # of connection points: 2
#     Edge 77, Type (0, 1), BuildingBlock: ZUJKAS_clean_linker_0, # of connection points: 2
#     Edge 78, Type (0, 1), BuildingBlock: ZUJKAS_clean_linker_0, # of connection points: 2
#     Edge 79, Type (0, 1), BuildingBlock: ZUJKAS_clean_linker_0, # of connection points: 2
#     Edge 80, Type (0, 1), BuildingBlock: ZUJKAS_clean_linker_0, # of connection points: 2
#     Edge 81, Type (0, 1), BuildingBlock: ZUJKAS_clean_linker_0, # of connection points: 2
#     Edge 82, Type (0, 1), BuildingBlock: ZUJKAS_clean_linker_0, # of connection points: 2
#     Edge 83, Type (0, 1), BuildingBlock: ZUJKAS_clean_linker_0, # of connection points: 2
#     Edge 84, Type (0, 1), BuildingBlock: ZUJKAS_clean_linker_0, # of connection points: 2
#     Edge 85, Type (0, 1), BuildingBlock: ZUJKAS_clean_linker_0, # of connection points: 2
#     Edge 86, Type (0, 1), BuildingBlock: ZUJKAS_clean_linker_0, # of connection points: 2
#     Edge 87, Type (0, 1), BuildingBlock: ZUJKAS_clean_linker_0, # of connection points: 2
#     Edge 88, Type (0, 1), BuildingBlock: ZUJKAS_clean_linker_0, # of connection points: 2
#     Edge 89, Type (0, 1), BuildingBlock: ZUJKAS_clean_linker_0, # of connection points: 2
#     Edge 90, Type (0, 1), BuildingBlock: ZUJKAS_clean_linker_0, # of connection points: 2
#     Edge 91, Type (0, 1), BuildingBlock: ZUJKAS_clean_linker_0, # of connection points: 2
#     Edge 92, Type (0, 1), BuildingBlock: ZUJKAS_clean_linker_0, # of connection points: 2
#     Edge 93, Type (0, 1), BuildingBlock: ZUJKAS_clean_linker_0, # of connection points: 2
#     Edge 94, Type (0, 1), BuildingBlock: ZUJKAS_clean_linker_0, # of connection points: 2
#     Edge 95, Type (0, 1), BuildingBlock: ZUJKAS_clean_linker_0, # of connection points: 2
#     Edge 96, Type (0, 1), BuildingBlock: ZUJKAS_clean_linker_0, # of connection points: 2
#     Edge 97, Type (0, 1), BuildingBlock: ZUJKAS_clean_linker_0, # of connection points: 2
#     Edge 98, Type (0, 1), BuildingBlock: ZUJKAS_clean_linker_0, # of connection points: 2
#     Edge 99, Type (0, 1), BuildingBlock: ZUJKAS_clean_linker_0, # of connection points: 2
#     Edge 100, Type (0, 1), BuildingBlock: ZUJKAS_clean_linker_0, # of connection points: 2
#     Edge 101, Type (0, 1), BuildingBlock: ZUJKAS_clean_linker_0, # of connection points: 2
#     Edge 102, Type (0, 1), BuildingBlock: ZUJKAS_clean_linker_0, # of connection points: 2
#     Edge 103, Type (0, 1), BuildingBlock: ZUJKAS_clean_linker_0, # of connection points: 2
#     Edge 104, Type (0, 1), BuildingBlock: ZUJKAS_clean_linker_0, # of connection points: 2
#     Edge 105, Type (0, 1), BuildingBlock: ZUJKAS_clean_linker_0, # of connection points: 2
#     Edge 106, Type (0, 1), BuildingBlock: ZUJKAS_clean_linker_0, # of connection points: 2
#     Edge 107, Type (0, 1), BuildingBlock: ZUJKAS_clean_linker_0, # of connection points: 2
#     Edge 108, Type (0, 1), BuildingBlock: ZUJKAS_clean_linker_0, # of connection points: 2
#     Edge 109, Type (0, 1), BuildingBlock: ZUJKAS_clean_linker_0, # of connection points: 2
#     Edge 110, Type (0, 1), BuildingBlock: ZUJKAS_clean_linker_0, # of connection points: 2
#     Edge 111, Type (0, 1), BuildingBlock: ZUJKAS_clean_linker_0, # of connection points: 2
#     Edge 112, Type (0, 1), BuildingBlock: ZUJKAS_clean_linker_0, # of connection points: 2
#     Edge 113, Type (0, 1), BuildingBlock: ZUJKAS_clean_linker_0, # of connection points: 2
#     Edge 114, Type (0, 1), BuildingBlock: ZUJKAS_clean_linker_0, # of connection points: 2
#     Edge 115, Type (0, 1), BuildingBlock: ZUJKAS_clean_linker_0, # of connection points: 2
#     Edge 116, Type (0, 1), BuildingBlock: ZUJKAS_clean_linker_0, # of connection points: 2
#     Edge 117, Type (0, 1), BuildingBlock: ZUJKAS_clean_linker_0, # of connection points: 2
#     Edge 118, Type (0, 1), BuildingBlock: ZUJKAS_clean_linker_0, # of connection points: 2
#     Edge 119, Type (0, 1), BuildingBlock: ZUJKAS_clean_linker_0, # of connection points: 2
#     Edge 120, Type (0, 1), BuildingBlock: ZUJKAS_clean_linker_0, # of connection points: 2
#     Edge 121, Type (0, 1), BuildingBlock: ZUJKAS_clean_linker_0, # of connection points: 2
#     Edge 122, Type (0, 1), BuildingBlock: ZUJKAS_clean_linker_0, # of connection points: 2
#     Edge 123, Type (0, 1), BuildingBlock: ZUJKAS_clean_linker_0, # of connection points: 2
#     Edge 124, Type (0, 1), BuildingBlock: ZUJKAS_clean_linker_0, # of connection points: 2
#     Edge 125, Type (0, 1), BuildingBlock: ZUJKAS_clean_linker_0, # of connection points: 2
#     Edge 126, Type (0, 1), BuildingBlock: ZUJKAS_clean_linker_0, # of connection points: 2
#     Edge 127, Type (0, 1), BuildingBlock: ZUJKAS_clean_linker_0, # of connection points: 2
#     Edge 128, Type (0, 1), BuildingBlock: ZUJKAS_clean_linker_0, # of connection points: 2
#     Edge 129, Type (0, 1), BuildingBlock: ZUJKAS_clean_linker_0, # of connection points: 2
#     Edge 130, Type (0, 1), BuildingBlock: ZUJKAS_clean_linker_0, # of connection points: 2
#     Edge 131, Type (0, 1), BuildingBlock: ZUJKAS_clean_linker_0, # of connection points: 2
#     Edge 132, Type (0, 1), BuildingBlock: ZUJKAS_clean_linker_0, # of connection points: 2
#     Edge 133, Type (0, 1), BuildingBlock: ZUJKAS_clean_linker_0, # of connection points: 2
#     Edge 134, Type (0, 1), BuildingBlock: ZUJKAS_clean_linker_0, # of connection points: 2
#     Edge 135, Type (0, 1), BuildingBlock: ZUJKAS_clean_linker_0, # of connection points: 2
# Relax obj value: 0.231
# Max RMSD: 0.381
# Mean RMSD: 0.181
data_MOF--net-gar--node1-TATPOV_clean_sbu_0--node2-GEDQOX_clean_sbu_0--edge1-ZUJKAS_clean_linker_0
_symmetry_space_group_name_H-M    P1
_symmetry_Int_Tables_number       1
_symmetry_cell_setting            triclinic
loop_
_symmetry_equiv_pos_as_xyz
'x, y, z'
_cell_length_a     76.980188
_cell_length_b     74.936584
_cell_length_c     69.865127
_cell_angle_alpha  97.306116
_cell_angle_beta   97.599495
_cell_angle_gamma 101.80063
loop_
_atom_site_label
_atom_site_type_symbol
_atom_site_fract_x
_atom_site_fract_y
_atom_site_fract_z
_atom_type_partial_charge
Zn0 Zn 0.06169 0.36175 0.49654 0.0
Zn1 Zn 0.08411 0.35325 0.47446 0.0
O2 O 0.09708 0.37936 0.48981 0.0
O3 O 0.08035 0.38213 0.51275 0.0
O4 O 0.10023 0.34645 0.45544 0.0
O5 O 0.05735 0.33701 0.50428 0.0
O6 O 0.07933 0.3309 0.48924 0.0
C7 C 0.09418 0.38814 0.50552 0.0
C8 C 0.04741 0.35933 0.45724 0.0
O9 O 0.0615 0.35326 0.45561 0.0
O10 O 0.04477 0.36599 0.47389 0.0
C11 C 0.10135 0.35493 0.44082 0.0
O12 O 0.09331 0.36871 0.43965 0.0
C13 C 0.06717 0.32613 0.49955 0.0
Zn14 Zn 0.98759 0.73319 0.66058 0.0
Zn15 Zn 0.98576 0.76238 0.642 0.0
O16 O 0.96551 0.76195 0.65841 0.0
O17 O 0.96546 0.73673 0.67157 0.0
O18 O 0.98671 0.78452 0.62859 0.0
O19 O 0.01158 0.74737 0.67612 0.0
O20 O 0.01062 0.76982 0.65874 0.0
C21 C 0.95901 0.75071 0.66928 0.0
C22 C 0.983 0.7242 0.61865 0.0
O23 O 0.98213 0.74103 0.61942 0.0
O24 O 0.98575 0.71757 0.63428 0.0
C25 C 0.99792 0.78613 0.61675 0.0
O26 O 1.00645 0.77286 0.61324 0.0
C27 C 0.01867 0.76288 0.67196 0.0
Zn28 Zn 0.54575 0.84174 0.99707 0.0
Zn29 Zn 0.59411 0.84485 0.96546 0.0
O30 O 0.59803 0.86845 0.98605 0.0
O31 O 0.57211 0.85385 0.9914 0.0
O32 O 0.61357 0.8452 0.94885 0.0
O33 O 0.56866 0.83299 0.98793 0.0
O34 O 0.58972 0.82087 0.97759 0.0
C35 C 0.58478 0.86851 0.9952 0.0
C36 C 0.55705 0.84235 0.95368 0.0
O37 O 0.57121 0.8434 0.94604 0.0
O38 O 0.55895 0.84288 0.97222 0.0
C39 C 0.61317 0.85518 0.93544 0.0
O40 O 0.60202 0.86632 0.93511 0.0
C41 C 0.57614 0.8192 0.98636 0.0
Zn42 Zn 0.48777 0.23176 0.15465 0.0
Zn43 Zn 0.48781 0.26424 0.14067 0.0
O44 O 0.46913 0.26362 0.15904 0.0
O45 O 0.46916 0.23769 0.17082 0.0
O46 O 0.49022 0.28887 0.13142 0.0
O47 O 0.51431 0.24144 0.16592 0.0
O48 O 0.51301 0.26767 0.15543 0.0
C49 C 0.46344 0.25234 0.17024 0.0
C50 C 0.47916 0.22723 0.11268 0.0
O51 O 0.48183 0.24476 0.11582 0.0
O52 O 0.48033 0.21835 0.12688 0.0
C53 C 0.49253 0.29097 0.1141 0.0
O54 O 0.49154 0.2764 0.10106 0.0
C55 C 0.5218 0.25782 0.16448 0.0
Zn56 Zn 0.04942 0.79879 0.19438 0.0
Zn57 Zn 0.02387 0.7954 0.21519 0.0
O58 O 0.02241 0.81806 0.19975 0.0
O59 O 0.04642 0.82214 0.18548 0.0
O60 O 1.0014 0.79437 0.23007 0.0
O61 O 0.03807 0.77488 0.17691 0.0
O62 O 0.018 0.76962 0.19645 0.0
C63 C 0.03238 0.8271 0.1893 0.0
C64 C 0.06488 0.79952 0.23335 0.0
O65 O 0.04844 0.79845 0.23598 0.0
O66 O 0.0688 0.79953 0.21637 0.0
C67 C 0.98691 0.79751 0.22116 0.0
O68 O 0.98676 0.80099 0.20319 0.0
C69 C 0.02483 0.76427 0.18157 0.0
Zn70 Zn 0.51522 0.81728 0.40825 0.0
Zn71 Zn 0.53941 0.8182 0.38612 0.0
O72 O 0.54573 0.84512 0.40253 0.0
O73 O 0.52583 0.84257 0.42257 0.0
O74 O 0.56141 0.81801 0.37076 0.0
O75 O 0.52002 0.79661 0.42114 0.0
O76 O 0.54177 0.79703 0.40365 0.0
C77 C 0.53905 0.8521 0.41676 0.0
C78 C 0.49786 0.81246 0.36933 0.0
O79 O 0.51418 0.81402 0.36604 0.0
O80 O 0.49467 0.81313 0.38664 0.0
C81 C 0.57696 0.81978 0.38103 0.0
O82 O 0.57804 0.82183 0.40015 0.0
C83 C 0.53323 0.79037 0.41666 0.0
Zn84 Zn 0.55033 0.29802 0.69499 0.0
Zn85 Zn 0.52405 0.29563 0.71557 0.0
O86 O 0.52244 0.31779 0.69956 0.0
O87 O 0.54496 0.31925 0.68301 0.0
O88 O 0.50089 0.29357 0.72941 0.0
O89 O 0.54117 0.27229 0.68061 0.0
O90 O 0.51856 0.26979 0.69722 0.0
C91 C 0.53165 0.32531 0.68752 0.0
C92 C 0.5653 0.30185 0.7347 0.0
O93 O 0.54858 0.29915 0.73678 0.0
O94 O 0.56959 0.30253 0.71794 0.0
C95 C 0.49355 0.30708 0.734 0.0
O96 O 0.50168 0.32367 0.73165 0.0
C97 C 0.5268 0.2629 0.6844 0.0
Zn98 Zn 0.01499 0.31496 0.90681 0.0
Zn99 Zn 0.03917 0.31775 0.88578 0.0
O100 O 0.04438 0.34473 0.90205 0.0
O101 O 0.01971 0.34208 0.91519 0.0
O102 O 0.06103 0.31716 0.87012 0.0
O103 O 0.02454 0.29985 0.92509 0.0
O104 O 0.04265 0.29717 0.90359 0.0
C105 C 0.03412 0.352 0.91211 0.0
C106 C 0.99731 0.30658 0.86871 0.0
O107 O 0.01357 0.31282 0.86601 0.0
O108 O 0.99444 0.30363 0.88554 0.0
C109 C 0.07581 0.3295 0.87394 0.0
O110 O 0.0769 0.34415 0.88693 0.0
C111 C 0.03667 0.29271 0.919 0.0
Zn112 Zn 0.44825 0.09341 0.29219 0.0
Zn113 Zn 0.43054 0.11802 0.29083 0.0
O114 O 0.4454 0.12279 0.32006 0.0
O115 O 0.46273 0.10282 0.3184 0.0
O116 O 0.41701 0.13927 0.28886 0.0
O117 O 0.45922 0.09627 0.26877 0.0
O118 O 0.44407 0.11787 0.26561 0.0
C119 C 0.45767 0.11558 0.32822 0.0
C120 C 0.4108 0.07777 0.28769 0.0
O121 O 0.40985 0.0946 0.28787 0.0
O122 O 0.42598 0.07361 0.28943 0.0
C123 C 0.40279 0.13974 0.29633 0.0
O124 O 0.39699 0.12671 0.30639 0.0
C125 C 0.45453 0.10807 0.25906 0.0
Zn126 Zn 0.23502 0.16617 0.4933 0.0
Zn127 Zn 0.26023 0.14698 0.49018 0.0
O128 O 0.26443 0.16299 0.46869 0.0
O129 O 0.24587 0.18116 0.47441 0.0
O130 O 0.27954 0.13271 0.49142 0.0
O131 O 0.24456 0.17495 0.52201 0.0
O132 O 0.26731 0.16232 0.51727 0.0
C133 C 0.25811 0.17697 0.46548 0.0
C134 C 0.22023 0.1277 0.48369 0.0
O135 O 0.23674 0.12707 0.48664 0.0
O136 O 0.21572 0.14304 0.48426 0.0
C137 C 0.27917 0.12254 0.50467 0.0
O138 O 0.26572 0.121 0.51458 0.0
C139 C 0.25979 0.17211 0.52828 0.0
Zn140 Zn 0.14799 0.06035 0.81794 0.0
Zn141 Zn 0.17043 0.03982 0.81919 0.0
O142 O 0.15593 0.0378 0.84525 0.0
O143 O 0.13942 0.05848 0.84335 0.0
O144 O 0.18679 0.01847 0.81857 0.0
O145 O 0.13185 0.04747 0.79311 0.0
O146 O 0.15389 0.0332 0.79024 0.0
C147 C 0.14477 0.0466 0.85246 0.0
C148 C 0.18296 0.08292 0.81737 0.0
O149 O 0.18791 0.06775 0.81998 0.0
O150 O 0.16638 0.08287 0.81578 0.0
C151 C 0.18065 1.00101 0.81842 0.0
O152 O 0.16347 0.99559 0.81931 0.0
C153 C 0.13911 0.03698 0.78277 0.0
Zn154 Zn 0.24868 0.89281 0.0571 0.0
Zn155 Zn 0.22183 0.90846 0.05547 0.0
O156 O 0.21897 0.89297 0.02678 0.0
O157 O 0.24331 0.88158 0.02907 0.0
O158 O 0.20026 0.92146 0.0557 0.0
O159 O 0.24168 0.87739 0.07684 0.0
O160 O 0.22139 0.89397 0.08011 0.0
C161 C 0.22917 0.88357 0.01898 0.0
C162 C 0.26053 0.93168 0.06425 0.0
O163 O 0.24378 0.93068 0.05928 0.0
O164 O 0.26626 0.91718 0.06578 0.0
C165 C 0.20171 0.93604 0.06808 0.0
O166 O 0.21672 0.94207 0.08063 0.0
C167 C 0.22965 0.88185 0.08585 0.0
Zn168 Zn 0.32963 0.45475 0.12125 0.0
Zn169 Zn 0.30223 0.47213 0.11535 0.0
O170 O 0.29718 0.45203 0.09182 0.0
O171 O 0.31937 0.43773 0.09536 0.0
O172 O 0.28167 0.48442 0.1096 0.0
O173 O 0.32091 0.44755 0.14547 0.0
O174 O 0.29798 0.46073 0.14007 0.0
C175 C 0.30484 0.43946 0.08569 0.0
C176 C 0.34159 0.49307 0.11922 0.0
O177 O 0.32482 0.49257 0.1158 0.0
O178 O 0.34713 0.47882 0.12254 0.0
C179 C 0.27852 0.48783 0.09227 0.0
O180 O 0.28931 0.48428 0.07993 0.0
C181 C 0.30655 0.45127 0.1501 0.0
Zn182 Zn 0.82443 0.23043 0.05517 0.0
Zn183 Zn 0.84579 0.20938 0.05404 0.0
O184 O 0.8473 0.22338 0.02897 0.0
O185 O 0.82897 0.24216 0.03231 0.0
O186 O 0.86563 0.19401 0.05373 0.0
O187 O 0.83351 0.24511 0.0811 0.0
O188 O 0.85008 0.22455 0.08353 0.0
C189 C 0.83977 0.23583 0.02277 0.0
C190 C 0.80599 0.19235 0.04981 0.0
O191 O 0.82177 0.18956 0.04944 0.0
O192 O 0.80375 0.2087 0.05241 0.0
C193 C 0.86714 0.18369 0.03827 0.0
O194 O 0.85597 0.18305 0.02212 0.0
C195 C 0.84444 0.23832 0.09136 0.0
Zn196 Zn 0.10717 0.51927 0.29488 0.0
Zn197 Zn 0.12624 0.49474 0.29558 0.0
O198 O 0.11162 0.49227 0.31933 0.0
O199 O 0.09438 0.51218 0.31631 0.0
O200 O 0.14003 0.47376 0.29548 0.0
O201 O 0.09476 0.51075 0.26767 0.0
O202 O 0.11212 0.49075 0.26642 0.0
C203 C 0.09948 0.50004 0.3252 0.0
C204 C 0.14507 0.53562 0.30274 0.0
O205 O 0.14636 0.51879 0.30118 0.0
O206 O 0.1297 0.53938 0.3007 0.0
C207 C 0.1475 0.46947 0.31113 0.0
O208 O 0.14624 0.47862 0.32803 0.0
C209 C 0.10008 0.49806 0.25807 0.0
Zn210 Zn 0.82923 0.95382 0.62602 0.0
Zn211 Zn 0.80341 0.97287 0.61956 0.0
O212 O 0.79838 0.95361 0.59533 0.0
O213 O 0.81917 0.93762 0.59955 0.0
O214 O 0.78384 0.98626 0.61347 0.0
O215 O 0.81917 0.94655 0.64963 0.0
O216 O 0.79723 0.96087 0.64342 0.0
C217 C 0.80549 0.94055 0.58928 0.0
C218 C 0.84354 0.99201 0.6251 0.0
O219 O 0.82697 0.99243 0.62142 0.0
O220 O 0.84805 0.9772 0.62827 0.0
C221 C 0.78195 0.9911 0.59666 0.0
O222 O 0.79362 0.98849 0.58506 0.0
C223 C 0.80482 0.9508 0.6536 0.0
Zn224 Zn 0.918 0.05369 0.28651 0.0
Zn225 Zn 0.89698 0.07506 0.28583 0.0
O226 O 0.91351 0.08096 0.31487 0.0
O227 O 0.93453 0.06547 0.31122 0.0
O228 O 0.88142 0.09713 0.28611 0.0
O229 O 0.92696 0.05504 0.26142 0.0
O230 O 0.91163 0.07668 0.25969 0.0
C231 C 0.92792 0.07625 0.32201 0.0
C232 C 0.88302 0.03203 0.28721 0.0
O233 O 0.87863 0.04752 0.28492 0.0
O234 O 0.89943 0.03146 0.2885 0.0
C235 C 0.88747 0.11397 0.29501 0.0
O236 O 0.90403 0.11822 0.30457 0.0
C237 C 0.92232 0.06729 0.25238 0.0
Zn238 Zn 0.32319 0.72908 0.55214 0.0
Zn239 Zn 0.34599 0.70907 0.55275 0.0
O240 O 0.34763 0.72328 0.52788 0.0
O241 O 0.33051 0.74324 0.53171 0.0
O242 O 0.36659 0.69453 0.55242 0.0
O243 O 0.32954 0.7414 0.57941 0.0
O244 O 0.34954 0.72422 0.58202 0.0
C245 C 0.3411 0.73653 0.52215 0.0
C246 C 0.30608 0.6907 0.54445 0.0
O247 O 0.32227 0.68885 0.54786 0.0
O248 O 0.30295 0.70666 0.54482 0.0
C249 C 0.36391 0.67781 0.54391 0.0
O250 O 0.34757 0.66939 0.53522 0.0
C251 C 0.34176 0.73631 0.58976 0.0
Zn252 Zn 0.41886 0.55463 0.78623 0.0
Zn253 Zn 0.3971 0.5755 0.78482 0.0
O254 O 0.41324 0.58172 0.81396 0.0
O255 O 0.43433 0.56604 0.81171 0.0
O256 O 0.38144 0.59739 0.78536 0.0
O257 O 0.42884 0.55724 0.76191 0.0
O258 O 0.41192 0.5774 0.75888 0.0
C259 C 0.42744 0.5771 0.82178 0.0
C260 C 0.38358 0.53208 0.78459 0.0
O261 O 0.37904 0.54769 0.78336 0.0
O262 O 0.40008 0.53184 0.7861 0.0
C263 C 0.38848 0.61482 0.79099 0.0
O264 O 0.40602 0.61965 0.79636 0.0
C265 C 0.42347 0.56877 0.75227 0.0
Zn266 Zn 0.60509 0.01706 0.79653 0.0
Zn267 Zn 0.62514 0.9934 0.79501 0.0
O268 O 0.61147 0.98996 0.81938 0.0
O269 O 0.59233 0.00808 0.81733 0.0
O270 O 0.63941 0.97279 0.79388 0.0
O271 O 0.59293 0.01001 0.76901 0.0
O272 O 0.61061 0.99046 0.76609 0.0
C273 C 0.59877 0.99641 0.82579 0.0
C274 C 0.64296 0.03434 0.80417 0.0
O275 O 0.64471 0.01771 0.8008 0.0
O276 O 0.62741 0.03762 0.80364 0.0
C277 C 0.64925 0.97021 0.80902 0.0
O278 O 0.65016 0.98094 0.8257 0.0
C279 C 0.59843 0.99804 0.7585 0.0
Zn280 Zn 0.73195 0.66202 0.9771 0.0
Zn281 Zn 0.75933 0.64514 0.98409 0.0
O282 O 0.76405 0.65544 0.95881 0.0
O283 O 0.7407 0.6679 0.9526 0.0
O284 O 0.78064 0.63474 0.99204 0.0
O285 O 0.74118 0.67989 0.00251 0.0
O286 O 0.76305 0.66536 0.00732 0.0
C287 C 0.755 0.66398 0.94807 0.0
C288 C 0.72024 0.6236 0.97937 0.0
O289 O 0.737 0.62405 0.98301 0.0
O290 O 0.71482 0.63795 0.97616 0.0
C291 C 0.78141 0.61788 0.99054 0.0
O292 O 0.76731 0.60504 0.98178 0.0
C293 C 0.75531 0.67806 0.01287 0.0
Zn294 Zn 0.94773 0.59032 0.78881 0.0
Zn295 Zn 0.93102 0.61656 0.79106 0.0
O296 O 0.94596 0.6199 0.8199 0.0
O297 O 0.95917 0.5965 0.81671 0.0
O298 O 0.9178 0.63797 0.79005 0.0
O299 O 0.96192 0.59795 0.76849 0.0
O300 O 0.94485 0.61808 0.7664 0.0
C301 C 0.95619 0.61014 0.82735 0.0
C302 C 0.90987 0.57636 0.78254 0.0
O303 O 0.91005 0.59344 0.78705 0.0
O304 O 0.92442 0.57131 0.7811 0.0
C305 C 0.90517 0.63991 0.79972 0.0
O306 O 0.90088 0.62835 0.81189 0.0
C307 C 0.95679 0.6103 0.76 0.0
Zn308 Zn 0.74582 0.38896 0.55694 0.0
Zn309 Zn 0.72157 0.4076 0.55566 0.0
O310 O 0.7184 0.39241 0.52661 0.0
O311 O 0.73968 0.37675 0.52943 0.0
O312 O 0.7009 0.42184 0.55572 0.0
O313 O 0.73852 0.37466 0.57731 0.0
O314 O 0.71998 0.39326 0.58042 0.0
C315 C 0.72694 0.381 0.519 0.0
C316 C 0.7611 0.42769 0.56408 0.0
O317 O 0.74465 0.42854 0.56015 0.0
O318 O 0.76516 0.41219 0.56449 0.0
C319 C 0.7026 0.43646 0.56812 0.0
O320 O 0.71752 0.44209 0.58086 0.0
C321 C 0.72716 0.38049 0.58638 0.0
Zn322 Zn 0.64767 0.56075 0.3187 0.0
Zn323 Zn 0.67034 0.54032 0.31952 0.0
O324 O 0.6555 0.53753 0.34523 0.0
O325 O 0.63549 0.55452 0.34106 0.0
O326 O 0.68606 0.51843 0.31738 0.0
O327 O 0.63438 0.55195 0.29171 0.0
O328 O 0.65423 0.53462 0.29031 0.0
C329 C 0.64224 0.54391 0.35095 0.0
C330 C 0.68309 0.58399 0.32165 0.0
O331 O 0.68789 0.56836 0.32131 0.0
O332 O 0.66666 0.58401 0.3217 0.0
C333 C 0.68623 0.50511 0.32748 0.0
O334 O 0.67673 0.50458 0.34178 0.0
C335 C 0.64093 0.54037 0.28195 0.0
Nd336 Nd 0.04628 0.07702 0.05853 0.0
Nd337 Nd 0.02032 0.03964 0.04599 0.0
C338 C 0.06221 0.1115 0.07373 0.0
C339 C 0.06546 0.12806 0.06391 0.0
C340 C 0.05807 0.14315 0.06973 0.0
C341 C 0.05824 0.15744 0.05855 0.0
C342 C 0.0658 0.15697 0.04125 0.0
C343 C 0.07391 0.14226 0.03596 0.0
C344 C 0.07373 0.12798 0.04712 0.0
C345 C 0.05053 0.06573 0.02002 0.0
C346 C 1.00436 0.07564 0.03887 0.0
C347 C 1.00489 0.00508 0.03066 0.0
C348 C 1.00351 0.98812 0.03998 0.0
C349 C 0.01674 0.97769 0.03904 0.0
C350 C 0.01721 0.96348 0.05017 0.0
C351 C 1.00439 0.95917 0.06246 0.0
C352 C 0.99061 0.96894 0.06263 0.0
C353 C 0.99018 0.98324 0.05155 0.0
C354 C 0.01642 0.05085 0.08463 0.0
C355 C 0.06197 0.0409 0.0661 0.0
O356 O 0.04531 0.10441 0.07414 0.0
O357 O 0.07121 0.09882 0.06962 0.0
O358 O 0.05789 0.08152 0.03055 0.0
O359 O 0.0397 0.05645 0.02943 0.0
O360 O 0.01987 0.08537 0.0488 0.0
O361 O 1.00167 0.05756 0.03354 0.0
O362 O 0.02108 0.01311 0.02839 0.0
O363 O 0.99572 0.01704 0.0366 0.0
O364 O 1.00903 0.035 0.07419 0.0
O365 O 0.02713 0.06014 0.07512 0.0
O366 O 0.04654 0.03121 0.05602 0.0
O367 O 0.06465 0.05898 0.07147 0.0
H368 H 0.05145 0.14348 0.08249 0.0
H369 H 0.05174 0.16844 0.06304 0.0
H370 H 0.08016 0.14158 0.02296 0.0
H371 H 0.07954 0.11659 0.04215 0.0
H372 H 0.02715 0.98092 0.03018 0.0
H373 H 0.02782 0.95601 0.04935 0.0
H374 H 0.98054 0.96607 0.07197 0.0
H375 H 0.97975 0.9909 0.05263 0.0
Nd376 Nd 0.28216 0.82816 0.31609 0.0
Nd377 Nd 0.28025 0.78679 0.29283 0.0
C378 C 0.27485 0.85967 0.33008 0.0
C379 C 0.28282 0.87902 0.32862 0.0
C380 C 0.27172 0.89042 0.32197 0.0
C381 C 0.27924 0.90799 0.31813 0.0
C382 C 0.29803 0.91446 0.32086 0.0
C383 C 0.30907 0.90322 0.32817 0.0
C384 C 0.30156 0.88567 0.33191 0.0
C385 C 0.31634 0.82389 0.30971 0.0
C386 C 0.27644 0.82024 0.26758 0.0
C387 C 0.28764 0.75522 0.27914 0.0
C388 C 0.28058 0.73581 0.28155 0.0
C389 C 0.28968 0.72781 0.2958 0.0
C390 C 0.28216 0.71025 0.29962 0.0
C391 C 0.26539 0.70025 0.2892 0.0
C392 C 0.25667 0.70791 0.27437 0.0
C393 C 0.26417 0.72546 0.27056 0.0
C394 C 0.24601 0.79097 0.29897 0.0
C395 C 0.28589 0.79466 0.34133 0.0
O396 O 0.2662 0.84948 0.31363 0.0
O397 O 0.28485 0.85102 0.34054 0.0
O398 O 0.31315 0.83908 0.31815 0.0
O399 O 0.30139 0.81255 0.3043 0.0
O400 O 0.27509 0.83076 0.28379 0.0
O401 O 0.2808 0.80397 0.26758 0.0
O402 O 0.29701 0.76618 0.29483 0.0
O403 O 0.27674 0.76318 0.26895 0.0
O404 O 0.24938 0.77586 0.29056 0.0
O405 O 0.26089 0.80244 0.30453 0.0
O406 O 0.28692 0.78395 0.32512 0.0
O407 O 0.28184 0.81107 0.34137 0.0
H408 H 0.25723 0.88549 0.31915 0.0
H409 H 0.27036 0.91623 0.31238 0.0
H410 H 0.32357 0.90791 0.33081 0.0
H411 H 0.31049 0.87716 0.33689 0.0
H412 H 0.30241 0.73536 0.30444 0.0
H413 H 0.28919 0.70478 0.31118 0.0
H414 H 0.24391 0.70039 0.2658 0.0
H415 H 0.25688 0.73106 0.25931 0.0
Nd416 Nd 0.54763 0.06934 0.54189 0.0
Nd417 Nd 0.51079 0.04946 0.54799 0.0
C418 C 0.57856 0.08053 0.53001 0.0
C419 C 0.59375 0.07147 0.53116 0.0
C420 C 0.60953 0.07864 0.52417 0.0
C421 C 0.62415 0.07019 0.52649 0.0
C422 C 0.62312 0.05456 0.53593 0.0
C423 C 0.60704 0.04718 0.54236 0.0
C424 C 0.5925 0.05556 0.54 0.0
C425 C 0.54758 0.05549 0.57672 0.0
C426 C 0.53281 0.02507 0.52299 0.0
C427 C 0.48327 0.03492 0.56391 0.0
C428 C 0.46554 0.03963 0.56307 0.0
C429 C 0.45895 0.04443 0.58037 0.0
C430 C 0.44365 0.0519 0.57974 0.0
C431 C 0.43493 0.05483 0.56181 0.0
C432 C 0.44111 0.04926 0.5445 0.0
C433 C 0.45622 0.04175 0.54511 0.0
C434 C 0.50517 0.06711 0.5158 0.0
C435 C 0.52481 0.09393 0.56332 0.0
O436 O 0.56408 0.07124 0.51813 0.0
O437 O 0.57509 0.08719 0.54694 0.0
O438 O 0.55698 0.07139 0.57485 0.0
O439 O 0.53876 0.04722 0.56036 0.0
O440 O 0.54496 0.04056 0.52411 0.0
O441 O 0.51874 0.02442 0.53204 0.0
O442 O 0.49679 0.04783 0.57371 0.0
O443 O 0.48684 0.02719 0.54739 0.0
O444 O 0.49254 0.05694 0.52268 0.0
O445 O 0.5202 0.06748 0.52571 0.0
O446 O 0.51607 0.07804 0.56717 0.0
O447 O 0.53612 0.09442 0.55067 0.0
H448 H 0.61067 0.0909 0.51729 0.0
H449 H 0.63644 0.07622 0.5215 0.0
H450 H 0.60575 0.03502 0.54942 0.0
H451 H 0.58035 0.0498 0.54542 0.0
H452 H 0.46602 0.04307 0.59439 0.0
H453 H 0.43908 0.05606 0.59328 0.0
H454 H 0.43441 0.05102 0.53045 0.0
H455 H 0.46093 0.03823 0.5315 0.0
Nd456 Nd 0.29014 0.30976 0.81988 0.0
Nd457 Nd 0.27386 0.30668 0.78286 0.0
C458 C 0.29951 0.30895 0.85756 0.0
C459 C 0.29266 0.31357 0.8757 0.0
C460 C 0.27412 0.31014 0.87629 0.0
C461 C 0.26791 0.31601 0.89338 0.0
C462 C 0.28018 0.32537 0.91009 0.0
C463 C 0.29873 0.32848 0.90944 0.0
C464 C 0.3049 0.3226 0.8924 0.0
C465 C 0.29946 0.34338 0.80614 0.0
C466 C 0.24828 0.31529 0.81294 0.0
C467 C 0.26693 0.30803 0.74514 0.0
C468 C 0.27473 0.30003 0.72904 0.0
C469 C 0.2768 0.30892 0.71277 0.0
C470 C 0.2852 0.30175 0.69798 0.0
C471 C 0.2916 0.28556 0.69929 0.0
C472 C 0.28976 0.27695 0.71588 0.0
C473 C 0.2815 0.28418 0.73066 0.0
C474 C 0.26457 0.27272 0.7959 0.0
C475 C 0.31564 0.30062 0.78962 0.0
O476 O 0.28998 0.29471 0.8452 0.0
O477 O 0.30561 0.32289 0.84906 0.0
O478 O 0.31073 0.33496 0.81449 0.0
O479 O 0.28355 0.33357 0.80426 0.0
O480 O 0.26066 0.31023 0.8247 0.0
O481 O 0.25136 0.31788 0.79534 0.0
O482 O 0.27815 0.32114 0.75753 0.0
O483 O 0.257 0.29627 0.75377 0.0
O484 O 0.25345 0.28073 0.7866 0.0
O485 O 0.28044 0.28284 0.79851 0.0
O486 O 0.30281 0.30455 0.7775 0.0
O487 O 0.31321 0.29943 0.8077 0.0
H488 H 0.26446 0.30318 0.86349 0.0
H489 H 0.25356 0.31333 0.89349 0.0
H490 H 0.30852 0.33601 0.92191 0.0
H491 H 0.31923 0.3255 0.89211 0.0
H492 H 0.27201 0.32142 0.71157 0.0
H493 H 0.28661 0.30882 0.68549 0.0
H494 H 0.29423 0.2643 0.71723 0.0
H495 H 0.28037 0.27734 0.74335 0.0
Nd496 Nd 0.02824 0.06984 0.56172 0.0
Nd497 Nd 0.03266 0.03381 0.54136 0.0
C498 C 0.01581 0.09903 0.57277 0.0
C499 C 0.01336 0.11383 0.56167 0.0
C500 C 1.00689 0.12881 0.56959 0.0
C501 C 1.00669 0.14377 0.55952 0.0
C502 C 0.01297 0.14381 0.54148 0.0
C503 C 0.01841 0.12824 0.53316 0.0
C504 C 0.01875 0.11347 0.54325 0.0
C505 C 0.05989 0.07164 0.54737 0.0
C506 C 0.01313 0.05741 0.51358 0.0
C507 C 0.04562 0.00524 0.52927 0.0
C508 C 0.04964 0.99014 0.53915 0.0
C509 C 0.06098 0.97932 0.5322 0.0
C510 C 0.06385 0.96428 0.54116 0.0
C511 C 0.05526 0.95983 0.55709 0.0
C512 C 0.04455 0.97134 0.56447 0.0
C513 C 0.04188 0.98641 0.55567 0.0
C514 C 1.00071 0.03226 0.55485 0.0
C515 C 0.04759 0.04633 0.58973 0.0
O516 O 1.00529 0.08286 0.5656 0.0
O517 O 0.0326 0.09823 0.57767 0.0
O518 O 0.05881 0.08106 0.5639 0.0
O519 O 0.04466 0.06283 0.53872 0.0
O520 O 0.01176 0.06711 0.53035 0.0
O521 O 0.02294 0.04484 0.5135 0.0
O522 O 0.05587 0.02154 0.53645 0.0
O523 O 0.02853 0.00542 0.5256 0.0
O524 O 1.00197 0.02338 0.53807 0.0
O525 O 0.01589 0.0407 0.56411 0.0
O526 O 0.04833 0.03586 0.57313 0.0
O527 O 0.03833 0.05935 0.58964 0.0
H528 H 1.00271 0.12925 0.58381 0.0
H529 H 1.00258 0.1557 0.56633 0.0
H530 H 0.02313 0.12782 0.5192 0.0
H531 H 0.02398 0.10209 0.53702 0.0
H532 H 0.06731 0.98228 0.51965 0.0
H533 H 0.07243 0.9559 0.53533 0.0
H534 H 0.03747 0.96826 0.57648 0.0
H535 H 0.03326 0.99484 0.56138 0.0
Nd536 Nd 0.30386 0.82141 0.81341 0.0
Nd537 Nd 0.26989 0.7977 0.7972 0.0
C538 C 0.335 0.8457 0.82128 0.0
C539 C 0.35393 0.845 0.82585 0.0
C540 C 0.3602 0.82971 0.81814 0.0
C541 C 0.37734 0.82768 0.82557 0.0
C542 C 0.38812 0.84075 0.84095 0.0
C543 C 0.38213 0.85641 0.84798 0.0
C544 C 0.36517 0.85857 0.8404 0.0
C545 C 0.28342 0.81367 0.84219 0.0
C546 C 0.30365 0.77709 0.80905 0.0
C547 C 0.23816 0.77462 0.7892 0.0
C548 C 0.22003 0.77803 0.78676 0.0
C549 C 0.21705 0.79495 0.79522 0.0
C550 C 0.20102 0.80012 0.78921 0.0
C551 C 0.18787 0.78846 0.77458 0.0
C552 C 0.19048 0.77106 0.76706 0.0
C553 C 0.20648 0.7659 0.77308 0.0
C554 C 0.29089 0.80512 0.76874 0.0
C555 C 0.26988 0.84176 0.80167 0.0
O556 O 0.32667 0.83911 0.80344 0.0
O557 O 0.32541 0.84075 0.83457 0.0
O558 O 0.30031 0.8132 0.8435 0.0
O559 O 0.27774 0.8174 0.82569 0.0
O560 O 0.31414 0.79393 0.81156 0.0
O561 O 0.28592 0.7753 0.80565 0.0
O562 O 0.24753 0.77909 0.80685 0.0
O563 O 0.24737 0.78007 0.77579 0.0
O564 O 0.2741 0.80602 0.76713 0.0
O565 O 0.2961 0.80135 0.78532 0.0
O566 O 0.25956 0.82501 0.8 0.0
O567 O 0.28761 0.84355 0.8042 0.0
H568 H 0.35157 0.81895 0.80709 0.0
H569 H 0.38177 0.81546 0.8201 0.0
H570 H 0.39033 0.86661 0.85986 0.0
H571 H 0.36044 0.87033 0.84662 0.0
H572 H 0.22747 0.80459 0.80568 0.0
H573 H 0.19934 0.8136 0.79523 0.0
H574 H 0.18037 0.76166 0.75604 0.0
H575 H 0.20866 0.75289 0.76629 0.0
Nd576 Nd 0.50887 0.051 0.03153 0.0
Nd577 Nd 0.54669 0.07281 0.0476 0.0
C578 C 0.47573 0.03774 0.01245 0.0
C579 C 0.45767 0.03664 0.01751 0.0
C580 C 0.45528 0.04672 0.03494 0.0
C581 C 0.43829 0.0443 0.04057 0.0
C582 C 0.42342 0.03175 0.02887 0.0
C583 C 0.42585 0.02209 0.01113 0.0
C584 C 0.44284 0.02451 0.00553 0.0
C585 C 0.52993 0.03156 0.05138 0.0
C586 C 0.51498 0.0727 0.07564 0.0
C587 C 0.57967 0.08757 0.06635 0.0
C588 C 0.59817 0.08963 0.06231 0.0
C589 C 0.60287 0.07667 0.04874 0.0
C590 C 0.62048 0.07938 0.04467 0.0
C591 C 0.6336 0.09511 0.05406 0.0
C592 C 0.6287 0.10807 0.06752 0.0
C593 C 0.61117 0.10533 0.0716 0.0
C594 C 0.5257 0.09129 0.02643 0.0
C595 C 0.54081 0.05017 0.00403 0.0
O596 O 0.48508 0.05426 0.01177 0.0
O597 O 0.48524 0.02772 0.02131 0.0
O598 O 0.51299 0.03026 0.05239 0.0
O599 O 0.53487 0.04245 0.03983 0.0
O600 O 0.50279 0.06465 0.06025 0.0
O601 O 0.53242 0.07568 0.0748 0.0
O602 O 0.57091 0.07092 0.06757 0.0
O603 O 0.56977 0.09681 0.05678 0.0
O604 O 0.54251 0.09207 0.02513 0.0
O605 O 0.52081 0.08136 0.03887 0.0
O606 O 0.55284 0.05759 0.01978 0.0
O607 O 0.52334 0.0482 0.00442 0.0
H608 H 0.46661 0.05614 0.04439 0.0
H609 H 0.43685 0.05207 0.05421 0.0
H610 H 0.41475 0.01211 0.00193 0.0
H611 H 0.4445 0.01653 0.9921 0.0
H612 H 0.59294 0.06454 0.04125 0.0
H613 H 0.62384 0.06912 0.0343 0.0
H614 H 0.63834 0.12053 0.07468 0.0
H615 H 0.6077 0.1156 0.08189 0.0
Nd616 Nd 0.25678 0.28858 0.27872 0.0
Nd617 Nd 0.28685 0.3143 0.30785 0.0
C618 C 0.22621 0.27539 0.25471 0.0
C619 C 0.20841 0.27828 0.25872 0.0
C620 C 0.20476 0.29599 0.25989 0.0
C621 C 0.19154 0.3005 0.27035 0.0
C622 C 0.1814 0.28725 0.27951 0.0
C623 C 0.18342 0.26892 0.27601 0.0
C624 C 0.19682 0.26449 0.26578 0.0
C625 C 0.26161 0.27857 0.31485 0.0
C626 C 0.25003 0.32708 0.30417 0.0
C627 C 0.31674 0.32756 0.33303 0.0
C628 C 0.33483 0.3245 0.33072 0.0
C629 C 0.33884 0.30717 0.33221 0.0
C630 C 0.3529 0.30207 0.32366 0.0
C631 C 0.36317 0.31426 0.31359 0.0
C632 C 0.36057 0.33232 0.31421 0.0
C633 C 0.34661 0.33745 0.32283 0.0
C634 C 0.28255 0.32416 0.27145 0.0
C635 C 0.29378 0.27566 0.28322 0.0
O636 O 0.23791 0.28994 0.2522 0.0
O637 O 0.23351 0.26544 0.2661 0.0
O638 O 0.25738 0.26696 0.2987 0.0
O639 O 0.26202 0.29486 0.31179 0.0
O640 O 0.24565 0.31432 0.28833 0.0
O641 O 0.26467 0.32822 0.31691 0.0
O642 O 0.30469 0.31315 0.3352 0.0
O643 O 0.31019 0.33722 0.32072 0.0
O644 O 0.28624 0.33577 0.2876 0.0
O645 O 0.28184 0.30784 0.27459 0.0
O646 O 0.29803 0.28859 0.2989 0.0
O647 O 0.2792 0.27439 0.27023 0.0
H648 H 0.21309 0.30681 0.25412 0.0
H649 H 0.19032 0.31472 0.27248 0.0
H650 H 0.17538 0.25816 0.28216 0.0
H651 H 0.19904 0.25061 0.2648 0.0
H652 H 0.33023 0.29695 0.3385 0.0
H653 H 0.3547 0.28809 0.32348 0.0
H654 H 0.36859 0.3421 0.30688 0.0
H655 H 0.34408 0.35102 0.32176 0.0
Nd656 Nd 0.52961 0.5756 0.06245 0.0
Nd657 Nd 0.53493 0.53905 0.04214 0.0
C658 C 0.51557 0.60361 0.0739 0.0
C659 C 0.51142 0.61852 0.06373 0.0
C660 C 0.50191 0.63084 0.07178 0.0
C661 C 0.49924 0.6458 0.06253 0.0
C662 C 0.50609 0.64857 0.04515 0.0
C663 C 0.5149 0.6356 0.03676 0.0
C664 C 0.51753 0.62073 0.04597 0.0
C665 C 0.56163 0.57762 0.04913 0.0
C666 C 0.51532 0.56268 0.01406 0.0
C667 C 0.54868 0.51093 0.03017 0.0
C668 C 0.55304 0.49576 0.03971 0.0
C669 C 0.56095 0.48272 0.03016 0.0
C670 C 0.56322 0.46717 0.03851 0.0
C671 C 0.55749 0.46449 0.05647 0.0
C672 C 0.55046 0.47821 0.06642 0.0
C673 C 0.54827 0.4937 0.05811 0.0
C674 C 0.50301 0.53724 0.05587 0.0
C675 C 0.54939 0.55199 0.09043 0.0
O676 O 0.5058 0.58712 0.06655 0.0
O677 O 0.53273 0.60391 0.07811 0.0
O678 O 0.56 0.58755 0.06515 0.0
O679 O 0.5466 0.5684 0.04014 0.0
O680 O 0.51449 0.57328 0.03051 0.0
O681 O 0.52446 0.54954 0.01427 0.0
O682 O 0.55856 0.52735 0.03762 0.0
O683 O 0.53151 0.51069 0.02652 0.0
O684 O 0.5044 0.5273 0.03975 0.0
O685 O 0.51816 0.54629 0.06457 0.0
O686 O 0.55061 0.54179 0.07386 0.0
O687 O 0.53976 0.56475 0.09029 0.0
H688 H 0.49697 0.62917 0.0854 0.0
H689 H 0.49225 0.65546 0.06925 0.0
H690 H 0.52063 0.63744 0.0236 0.0
H691 H 0.52492 0.6113 0.03957 0.0
H692 H 0.56483 0.48424 0.016 0.0
H693 H 0.5689 0.45697 0.03061 0.0
H694 H 0.54564 0.4765 0.0801 0.0
H695 H 0.54211 0.50369 0.06567 0.0
Nd696 Nd 0.80306 0.3206 0.31401 0.0
Nd697 Nd 0.76865 0.29786 0.29672 0.0
C698 C 0.83446 0.34431 0.32073 0.0
C699 C 0.85311 0.34318 0.32028 0.0
C700 C 0.85724 0.32661 0.31261 0.0
C701 C 0.87504 0.32475 0.3151 0.0
C702 C 0.88889 0.33942 0.32539 0.0
C703 C 0.88468 0.3563 0.3321 0.0
C704 C 0.86691 0.35814 0.32956 0.0
C705 C 0.78129 0.31402 0.34189 0.0
C706 C 0.80185 0.27603 0.3084 0.0
C707 C 0.73661 0.27541 0.29056 0.0
C708 C 0.71873 0.2792 0.29066 0.0
C709 C 0.71707 0.29717 0.29726 0.0
C710 C 0.7006 0.30206 0.29326 0.0
C711 C 0.68554 0.28892 0.28291 0.0
C712 C 0.68693 0.27057 0.27773 0.0
C713 C 0.7035 0.26576 0.28146 0.0
C714 C 0.79039 0.30459 0.26884 0.0
C715 C 0.76994 0.3424 0.30184 0.0
O716 O 0.82377 0.34071 0.30384 0.0
O717 O 0.82719 0.33657 0.33438 0.0
O718 O 0.79814 0.31323 0.34418 0.0
O719 O 0.77654 0.31768 0.32512 0.0
O720 O 0.81262 0.29276 0.31218 0.0
O721 O 0.78421 0.27459 0.30381 0.0
O722 O 0.74726 0.27904 0.30748 0.0
O723 O 0.74461 0.28143 0.27648 0.0
O724 O 0.77351 0.30525 0.26653 0.0
O725 O 0.79517 0.30087 0.28559 0.0
O726 O 0.75922 0.3257 0.29784 0.0
O727 O 0.78752 0.34385 0.30679 0.0
H728 H 0.84663 0.3149 0.30543 0.0
H729 H 0.87789 0.31165 0.30962 0.0
H730 H 0.89494 0.36777 0.34039 0.0
H731 H 0.86386 0.37095 0.33569 0.0
H732 H 0.72872 0.30768 0.30451 0.0
H733 H 0.6998 0.31627 0.29742 0.0
H734 H 0.67552 0.26025 0.26953 0.0
H735 H 0.70462 0.25188 0.27616 0.0
Nd736 Nd 1.00821 0.55637 0.52938 0.0
Nd737 Nd 0.04785 0.57323 0.54878 0.0
C738 C 0.97499 0.54784 0.51005 0.0
C739 C 0.95707 0.54187 0.51561 0.0
C740 C 0.94442 0.55289 0.51356 0.0
C741 C 0.92782 0.54797 0.51987 0.0
C742 C 0.92357 0.5319 0.52835 0.0
C743 C 0.93616 0.52075 0.53007 0.0
C744 C 0.95273 0.5257 0.52385 0.0
C745 C 0.02492 0.53348 0.54925 0.0
C746 C 0.01517 0.57412 0.57527 0.0
C747 C 0.08096 0.58256 0.56852 0.0
C748 C 0.09949 0.58598 0.564 0.0
C749 C 0.10703 0.57141 0.55674 0.0
C750 C 0.12448 0.57502 0.55229 0.0
C751 C 0.13467 0.59325 0.55491 0.0
C752 C 0.12719 0.60774 0.56241 0.0
C753 C 0.10984 0.60413 0.56698 0.0
C754 C 0.03202 0.59505 0.52667 0.0
C755 C 0.04087 0.55367 0.50364 0.0
O756 O 0.98358 0.56481 0.5172 0.0
O757 O 0.98551 0.53615 0.5104 0.0
O758 O 1.00778 0.53279 0.54791 0.0
O759 O 0.03176 0.54458 0.53887 0.0
O760 O 1.00317 0.56901 0.55912 0.0
O761 O 0.03248 0.57474 0.57514 0.0
O762 O 0.07146 0.56555 0.56449 0.0
O763 O 0.07153 0.59464 0.56431 0.0
O764 O 0.04896 0.59481 0.52811 0.0
O765 O 0.02465 0.58529 0.53806 0.0
O766 O 0.05248 0.55794 0.52016 0.0
O767 O 0.02385 0.55488 0.50315 0.0
H768 H 0.94748 0.56547 0.50733 0.0
H769 H 0.91847 0.55691 0.51843 0.0
H770 H 0.93318 0.50808 0.53614 0.0
H771 H 0.96217 0.51689 0.52568 0.0
H772 H 0.09945 0.55723 0.55437 0.0
H773 H 0.12989 0.5636 0.54649 0.0
H774 H 0.13484 0.6219 0.56492 0.0
H775 H 0.10447 0.6156 0.57279 0.0
Nd776 Nd 0.79099 0.80933 0.32161 0.0
Nd777 Nd 0.77452 0.8063 0.28462 0.0
C778 C 0.79985 0.80795 0.35921 0.0
C779 C 0.79355 0.81421 0.37727 0.0
C780 C 0.7751 0.81183 0.37818 0.0
C781 C 0.76942 0.81916 0.39503 0.0
C782 C 0.78211 0.8289 0.41122 0.0
C783 C 0.80055 0.83096 0.41032 0.0
C784 C 0.8062 0.82366 0.39349 0.0
C785 C 0.80005 0.84323 0.30836 0.0
C786 C 0.74913 0.81519 0.31487 0.0
C787 C 0.76683 0.80715 0.24683 0.0
C788 C 0.77375 0.79945 0.22967 0.0
C789 C 0.78462 0.81127 0.21974 0.0
C790 C 0.79186 0.80405 0.20397 0.0
C791 C 0.78829 0.78488 0.19783 0.0
C792 C 0.77746 0.7731 0.20785 0.0
C793 C 0.77029 0.78028 0.22361 0.0
C794 C 0.76578 0.77241 0.29795 0.0
C795 C 0.81626 0.80051 0.29109 0.0
O796 O 0.78889 0.7945 0.34696 0.0
O797 O 0.80781 0.82097 0.35054 0.0
O798 O 0.81132 0.83509 0.3172 0.0
O799 O 0.7842 0.83316 0.30605 0.0
O800 O 0.76177 0.81068 0.32679 0.0
O801 O 0.75185 0.81716 0.29702 0.0
O802 O 0.77817 0.82042 0.25893 0.0
O803 O 0.75734 0.79541 0.25582 0.0
O804 O 0.75436 0.7804 0.28916 0.0
O805 O 0.78155 0.78256 0.30005 0.0
O806 O 0.80372 0.80531 0.27939 0.0
O807 O 0.81351 0.79829 0.30887 0.0
H808 H 0.76509 0.80453 0.36581 0.0
H809 H 0.75514 0.81725 0.39538 0.0
H810 H 0.81065 0.83868 0.42244 0.0
H811 H 0.82047 0.82573 0.39298 0.0
H812 H 0.78757 0.8261 0.22422 0.0
H813 H 0.80018 0.81346 0.19653 0.0
H814 H 0.77407 0.75828 0.20318 0.0
H815 H 0.76201 0.77077 0.23096 0.0
Nd816 Nd 0.78291 0.32814 0.81637 0.0
Nd817 Nd 0.77983 0.28655 0.79285 0.0
C818 C 0.77612 0.35977 0.83088 0.0
C819 C 0.78317 0.37926 0.82892 0.0
C820 C 0.77204 0.3888 0.81869 0.0
C821 C 0.77895 0.40658 0.81502 0.0
C822 C 0.79713 0.41526 0.82168 0.0
C823 C 0.80812 0.40593 0.83244 0.0
C824 C 0.80125 0.38812 0.83598 0.0
C825 C 0.81663 0.32296 0.80935 0.0
C826 C 0.77642 0.32038 0.76783 0.0
C827 C 0.78646 0.25487 0.77835 0.0
C828 C 0.78032 0.2357 0.78188 0.0
C829 C 0.78408 0.23086 0.80056 0.0
C830 C 0.7768 0.21316 0.80414 0.0
C831 C 0.76554 0.1999 0.78917 0.0
C832 C 0.76222 0.20461 0.77036 0.0
C833 C 0.76957 0.22229 0.76676 0.0
C834 C 0.74606 0.29152 0.79984 0.0
C835 C 0.78605 0.29414 0.84132 0.0
O836 O 0.76657 0.34921 0.81505 0.0
O837 O 0.78702 0.3515 0.84063 0.0
O838 O 0.81392 0.33838 0.81784 0.0
O839 O 0.80147 0.31193 0.80416 0.0
O840 O 0.77595 0.33121 0.78419 0.0
O841 O 0.77995 0.30372 0.76759 0.0
O842 O 0.79722 0.26645 0.79276 0.0
O843 O 0.77421 0.26217 0.76943 0.0
O844 O 0.74899 0.27617 0.79151 0.0
O845 O 0.76112 0.3028 0.80502 0.0
O846 O 0.78654 0.28329 0.82499 0.0
O847 O 0.78259 0.31083 0.84154 0.0
H848 H 0.75805 0.38232 0.81313 0.0
H849 H 0.77011 0.4135 0.80686 0.0
H850 H 0.82223 0.41214 0.83757 0.0
H851 H 0.81025 0.38116 0.84384 0.0
H852 H 0.79236 0.24084 0.81257 0.0
H853 H 0.77987 0.20993 0.81871 0.0
H854 H 0.75342 0.19485 0.75853 0.0
H855 H 0.76643 0.22566 0.75226 0.0
Nd856 Nd 0.75691 0.78821 0.78031 0.0
Nd857 Nd 0.79155 0.8163 0.80722 0.0
C858 C 0.72902 0.76877 0.7554 0.0
C859 C 0.71009 0.76926 0.75704 0.0
C860 C 0.7022 0.78244 0.74871 0.0
C861 C 0.68781 0.78811 0.75603 0.0
C862 C 0.68103 0.78069 0.77177 0.0
C863 C 0.68731 0.76574 0.77815 0.0
C864 C 0.70159 0.76 0.77077 0.0
C865 C 0.75893 0.78961 0.82018 0.0
C866 C 0.75345 0.82926 0.80006 0.0
C867 C 0.82002 0.83154 0.83373 0.0
C868 C 0.83885 0.83128 0.83161 0.0
C869 C 0.84671 0.81763 0.83893 0.0
C870 C 0.86115 0.81251 0.83123 0.0
C871 C 0.86809 0.82111 0.81625 0.0
C872 C 0.86176 0.83635 0.81082 0.0
C873 C 0.8473 0.84143 0.81846 0.0
C874 C 0.78887 0.82134 0.76837 0.0
C875 C 0.79608 0.77579 0.78567 0.0
O876 O 0.73892 0.78408 0.75182 0.0
O877 O 0.73749 0.76157 0.76898 0.0
O878 O 0.74396 0.78687 0.80811 0.0
O879 O 0.77185 0.7907 0.81076 0.0
O880 O 0.74803 0.8157 0.78496 0.0
O881 O 0.76828 0.83059 0.81282 0.0
O882 O 0.80981 0.81538 0.83414 0.0
O883 O 0.8119 0.8412 0.82259 0.0
O884 O 0.80175 0.8309 0.7819 0.0
O885 O 0.77938 0.80956 0.77601 0.0
O886 O 0.80328 0.79141 0.79783 0.0
O887 O 0.77922 0.77191 0.77624 0.0
H888 H 0.70818 0.78961 0.73783 0.0
H889 H 0.6829 0.79926 0.75033 0.0
H890 H 0.68243 0.75958 0.79018 0.0
H891 H 0.70708 0.74956 0.7773 0.0
H892 H 0.84065 0.80972 0.84926 0.0
H893 H 0.86603 0.80098 0.83601 0.0
H894 H 0.86681 0.8433 0.79933 0.0
H895 H 0.84176 0.85217 0.81264 0.0
Nd896 Nd 0.54743 0.57769 0.55915 0.0
Nd897 Nd 0.521 0.53957 0.54627 0.0
C898 C 0.56272 0.61231 0.5743 0.0
C899 C 0.56399 0.62922 0.56491 0.0
C900 C 0.54913 0.63742 0.56209 0.0
C901 C 0.54929 0.65159 0.55083 0.0
C902 C 0.56436 0.65812 0.54215 0.0
C903 C 0.57954 0.65052 0.54572 0.0
C904 C 0.57936 0.63626 0.55697 0.0
C905 C 0.55164 0.56524 0.52076 0.0
C906 C 0.50561 0.57592 0.53844 0.0
C907 C 0.50538 0.50501 0.53112 0.0
C908 C 0.50265 0.48831 0.54079 0.0
C909 C 0.51168 0.47428 0.5359 0.0
C910 C 0.51167 0.45992 0.54693 0.0
C911 C 0.50253 0.45916 0.56309 0.0
C912 C 0.49283 0.47276 0.56744 0.0
C913 C 0.49294 0.48719 0.55648 0.0
C914 C 0.51731 0.55138 0.58486 0.0
C915 C 0.56301 0.54149 0.56637 0.0
O916 O 0.54664 0.60417 0.57682 0.0
O917 O 0.57193 0.60045 0.56821 0.0
O918 O 0.55962 0.58102 0.53108 0.0
O919 O 0.5407 0.5568 0.53064 0.0
O920 O 0.52116 0.58582 0.54816 0.0
O921 O 0.50277 0.55775 0.53356 0.0
O922 O 0.52212 0.5124 0.53025 0.0
O923 O 0.49623 0.51745 0.53564 0.0
O924 O 0.50974 0.53546 0.57464 0.0
O925 O 0.528 0.56028 0.57506 0.0
O926 O 0.54768 0.53178 0.55596 0.0
O927 O 0.56552 0.55951 0.57223 0.0
H928 H 0.53705 0.63246 0.56801 0.0
H929 H 0.53726 0.65691 0.5483 0.0
H930 H 0.59152 0.65541 0.53962 0.0
H931 H 0.59108 0.63039 0.55896 0.0
H932 H 0.51932 0.47479 0.52394 0.0
H933 H 0.51905 0.44954 0.54298 0.0
H934 H 0.48577 0.47272 0.57986 0.0
H935 H 0.48595 0.49782 0.56081 0.0
Nd936 Nd 0.04578 0.56843 0.04312 0.0
Nd937 Nd 0.01161 0.54818 0.048 0.0
C938 C 0.07653 0.58122 0.03142 0.0
C939 C 0.09216 0.57292 0.03097 0.0
C940 C 0.10872 0.58327 0.02826 0.0
C941 C 0.12394 0.5757 0.02985 0.0
C942 C 0.12275 0.55768 0.03419 0.0
C943 C 0.10597 0.54724 0.03638 0.0
C944 C 0.09084 0.55481 0.03485 0.0
C945 C 0.04753 0.55348 0.07738 0.0
C946 C 0.03364 0.52428 0.02476 0.0
C947 C 0.98168 0.53539 0.06122 0.0
C948 C 0.96673 0.54427 0.06396 0.0
C949 C 0.95289 0.53652 0.07358 0.0
C950 C 0.93834 0.54487 0.0752 0.0
C951 C 0.93748 0.56105 0.06714 0.0
C952 C 0.95178 0.56902 0.0581 0.0
C953 C 0.96627 0.56075 0.0566 0.0
C954 C 0.00976 0.56266 0.01345 0.0
C955 C 0.02375 0.5925 0.06611 0.0
O956 O 0.06199 0.57237 0.01936 0.0
O957 O 0.07329 0.58624 0.04894 0.0
O958 O 0.05554 0.57007 0.07599 0.0
O959 O 0.03896 0.54513 0.06099 0.0
O960 O 0.04254 0.54071 0.02258 0.0
O961 O 0.02201 0.52292 0.037 0.0
O962 O 0.99684 0.54326 0.07271 0.0
O963 O 0.98374 0.53131 0.04304 0.0
O964 O 1.0018 0.5461 0.01512 0.0
O965 O 0.01833 0.57132 0.0298 0.0
O966 O 0.01459 0.57612 0.06811 0.0
O967 O 0.03545 0.59377 0.05395 0.0
H968 H 0.10997 0.5973 0.02537 0.0
H969 H 0.13667 0.58401 0.02793 0.0
H970 H 0.10464 0.53346 0.04004 0.0
H971 H 0.0782 0.54672 0.03731 0.0
H972 H 0.9532 0.52391 0.07954 0.0
H973 H 0.92766 0.53852 0.08245 0.0
H974 H 0.95147 0.58123 0.0514 0.0
H975 H 0.97694 0.56696 0.04921 0.0
H976 H 0.04451 0.29623 0.95826 0.0
H977 H 0.05197 0.27331 0.97786 0.0
H978 H 0.05031 0.23571 0.9251 0.0
H979 H 0.04375 0.25923 0.90541 0.0
H980 H 0.03167 0.24175 0.97955 0.0
H981 H 0.0944 0.22792 0.95631 0.0
H982 H 0.08534 0.24713 0.94986 0.0
H983 H 0.0762 0.22427 0.93633 0.0
C984 C 0.04617 0.28322 0.95085 0.0
C985 C 0.04368 0.27954 0.93033 0.0
C986 C 0.05036 0.27007 0.96207 0.0
C987 C 0.05185 0.25271 0.95308 0.0
C988 C 0.04973 0.24911 0.9325 0.0
H989 H 0.05875 0.15186 0.00114 0.0
H990 H 0.05566 0.17493 0.97989 0.0
C991 C 0.04592 0.26253 0.92122 0.0
C992 C 0.05425 0.23817 0.9654 0.0
H993 H 0.08032 0.20771 0.9762 0.0
C994 C 0.04241 0.23443 0.97885 0.0
C995 C 0.06816 0.22843 0.96451 0.0
C996 C 0.08185 0.23224 0.95111 0.0
C997 C 0.04405 0.22134 0.99132 0.0
C998 C 0.05798 0.21169 0.99048 0.0
C999 C 0.06967 0.21516 0.97687 0.0
C1000 C 0.06053 0.19786 0.00354 0.0
C1001 C 0.03065 0.21776 0.00511 0.0
C1002 C 0.06458 0.20308 0.02396 0.0
C1003 C 0.06647 0.18992 0.0362 0.0
C1004 C 0.06445 0.17123 0.02829 0.0
C1005 C 0.06068 0.16613 0.00779 0.0
C1006 C 0.0588 0.1793 0.99558 0.0
H1007 H 0.01836 0.22281 1.00066 0.0
H1008 H 0.02665 0.20279 0.00585 0.0
H1009 H 0.0369 0.2251 0.02001 0.0
H1010 H 0.06631 0.21738 0.03044 0.0
H1011 H 0.06963 0.19442 0.05186 0.0
H1012 H 0.08817 0.82975 0.25556 0.0
H1013 H 0.11883 0.83064 0.27168 0.0
H1014 H 0.10779 0.77123 0.26033 0.0
H1015 H 0.07721 0.77035 0.24434 0.0
H1016 H 0.13571 0.81188 0.30336 0.0
H1017 H 0.14903 0.79051 0.22866 0.0
H1018 H 0.12977 0.79978 0.233 0.0
H1019 H 0.12978 0.77621 0.23543 0.0
C1020 C 0.09199 0.81686 0.25743 0.0
C1021 C 0.07999 0.79995 0.24922 0.0
C1022 C 0.10963 0.81739 0.26644 0.0
C1023 C 0.1158 0.80101 0.26711 0.0
C1024 C 0.10346 0.78408 0.26001 0.0
H1025 H 0.21495 0.76528 0.2872 0.0
H1026 H 0.18427 0.76948 0.2812 0.0
C1027 C 0.08583 0.78356 0.25112 0.0
C1028 C 0.13543 0.80155 0.27313 0.0
H1029 H 0.17198 0.79108 0.25495 0.0
C1030 C 0.14369 0.80746 0.29277 0.0
C1031 C 0.14602 0.79599 0.25934 0.0
C1032 C 0.13832 0.7904 0.23788 0.0
C1033 C 0.16191 0.8072 0.29902 0.0
C1034 C 0.17232 0.80112 0.28528 0.0
C1035 C 0.16413 0.79569 0.26559 0.0
C1036 C 0.19127 0.79896 0.29095 0.0
C1037 C 0.16973 0.81276 0.32042 0.0
C1038 C 0.20576 0.81411 0.29878 0.0
C1039 C 0.22361 0.81172 0.30228 0.0
C1040 C 0.22732 0.79413 0.29798 0.0
C1041 C 0.21271 0.77904 0.29072 0.0
C1042 C 0.19504 0.78142 0.28721 0.0
H1043 H 0.1592 0.814 0.32964 0.0
H1044 H 0.17718 0.80255 0.32548 0.0
H1045 H 0.1794 0.82632 0.32261 0.0
H1046 H 0.20336 0.82788 0.30158 0.0
H1047 H 0.2345 0.82367 0.30772 0.0
H1048 H 0.54549 0.88334 0.39981 0.0
H1049 H 0.54861 0.91519 0.41632 0.0
H1050 H 0.54935 0.89592 0.47194 0.0
H1051 H 0.546 0.86432 0.45557 0.0
H1052 H 0.52173 0.92409 0.43904 0.0
H1053 H 0.59008 0.94358 0.48315 0.0
H1054 H 0.5839 0.92567 0.46196 0.0
H1055 H 0.57757 0.92099 0.48498 0.0
C1056 C 0.54701 0.88608 0.41561 0.0
C1057 C 0.54568 0.87146 0.42646 0.0
C1058 C 0.54862 0.90421 0.42501 0.0
C1059 C 0.54932 0.90794 0.44539 0.0
C1060 C 0.54911 0.89345 0.45628 0.0
H1061 H 0.51207 0.98978 0.51832 0.0
H1062 H 0.5164 0.96193 0.49889 0.0
C1063 C 0.54721 0.8754 0.44691 0.0
C1064 C 0.54812 0.92636 0.45518 0.0
H1065 H 0.56914 0.96131 0.49243 0.0
C1066 C 0.53219 0.93238 0.45052 0.0
C1067 C 0.56176 0.93713 0.47016 0.0
C1068 C 0.57938 0.93164 0.47529 0.0
C1069 C 0.52931 0.9486 0.46087 0.0
C1070 C 0.54263 0.95897 0.47646 0.0
C1071 C 0.55883 0.95327 0.48064 0.0
C1072 C 0.54007 0.97581 0.48854 0.0
C1073 C 0.512 0.95445 0.45496 0.0
C1074 C 0.55222 0.99279 0.48973 0.0
C1075 C 0.54989 0.00871 0.50097 0.0
C1076 C 0.53534 0.008 0.51136 0.0
C1077 C 0.52332 0.99089 0.51039 0.0
C1078 C 0.52572 0.97495 0.49918 0.0
H1079 H 0.50569 0.94818 0.43971 0.0
H1080 H 0.50235 0.94979 0.46476 0.0
H1081 H 0.5143 0.9697 0.45623 0.0
H1082 H 0.56346 0.99379 0.48177 0.0
H1083 H 0.55948 0.02159 0.5014 0.0
H1084 H 0.47808 0.3336 0.75084 0.0
H1085 H 0.44822 0.33036 0.75993 0.0
H1086 H 0.43721 0.27164 0.74045 0.0
H1087 H 0.46754 0.27477 0.73194 0.0
H1088 H 0.41646 0.32077 0.73988 0.0
H1089 H 0.41928 0.2704 0.79098 0.0
H1090 H 0.43892 0.28143 0.78189 0.0
H1091 H 0.42317 0.26184 0.76714 0.0
C1092 C 0.46945 0.3199 0.74869 0.0
C1093 C 0.47548 0.30444 0.74073 0.0
C1094 C 0.4522 0.31806 0.75386 0.0
C1095 C 0.44018 0.30071 0.75122 0.0
C1096 C 0.44615 0.28518 0.74326 0.0
H1097 H 0.32391 0.29678 0.75222 0.0
H1098 H 0.35302 0.29553 0.7422 0.0
C1099 C 0.46358 0.28699 0.73826 0.0
C1100 C 0.42137 0.29928 0.75618 0.0
H1101 H 0.3908 0.27718 0.78194 0.0
C1102 C 0.41094 0.31121 0.74912 0.0
C1103 C 0.4139 0.28703 0.76844 0.0
C1104 C 0.42445 0.27458 0.77772 0.0
C1105 C 0.39365 0.31134 0.75391 0.0
C1106 C 0.38595 0.29872 0.7657 0.0
C1107 C 0.39637 0.28677 0.77276 0.0
C1108 C 0.36759 0.29826 0.77156 0.0
C1109 C 0.38418 0.3256 0.74682 0.0
C1110 C 0.3654 0.29921 0.79136 0.0
C1111 C 0.34856 0.29947 0.7971 0.0
C1112 C 0.33327 0.29889 0.78325 0.0
C1113 C 0.33532 0.29746 0.76339 0.0
C1114 C 0.35213 0.29694 0.75763 0.0
H1115 H 0.39381 0.33753 0.74341 0.0
H1116 H 0.37462 0.31927 0.73318 0.0
H1117 H 0.37655 0.33087 0.75786 0.0
H1118 H 0.37687 0.30014 0.80254 0.0
H1119 H 0.34764 0.30059 0.81252 0.0
H1120 H 0.98986 0.81937 0.62829 0.0
H1121 H 1.00183 0.84899 0.61815 0.0
H1122 H 0.03013 0.82202 0.57827 0.0
H1123 H 0.01837 0.79237 0.58829 0.0
H1124 H 0.04732 0.86066 0.61575 0.0
H1125 H 0.99435 0.85809 0.55207 0.0
H1126 H 0.98884 0.84802 0.57329 0.0
H1127 H 1.00127 0.83731 0.5571 0.0
C1128 C 0.99843 0.81969 0.61717 0.0
C1129 C 1.00324 0.80357 0.60913 0.0
C1130 C 1.0053 0.8366 0.6115 0.0
C1131 C 0.0169 0.83754 0.59763 0.0
C1132 C 0.02125 0.82144 0.58909 0.0
H1133 H 0.05492 0.9263 0.53617 0.0
H1134 H 0.04925 0.89645 0.54719 0.0
C1135 C 0.01448 0.80456 0.59481 0.0
C1136 C 0.02487 0.85541 0.59232 0.0
H1137 H 0.01852 0.88399 0.55921 0.0
C1138 C 0.04111 0.86586 0.6034 0.0
C1139 C 0.01671 0.86185 0.57612 0.0
C1140 C 0.9993 0.85084 0.56386 0.0
C1141 C 0.04952 0.88278 0.5986 0.0
C1142 C 0.0412 0.88942 0.58252 0.0
C1143 C 0.02494 0.87883 0.57145 0.0
C1144 C 0.04857 0.90759 0.57714 0.0
C1145 C 0.06731 0.89316 0.61057 0.0
C1146 C 0.05091 0.92383 0.59056 0.0
C1147 C 0.05465 0.94101 0.58441 0.0
C1148 C 0.05562 0.94223 0.56463 0.0
C1149 C 0.05443 0.92597 0.55154 0.0
C1150 C 0.051 0.90883 0.55777 0.0
H1151 H 0.0745 0.88373 0.61777 0.0
H1152 H 0.07614 0.90062 0.60143 0.0
H1153 H 0.06487 0.90341 0.62225 0.0
H1154 H 0.04883 0.92322 0.60551 0.0
H1155 H 0.05586 0.95329 0.59497 0.0
H1156 H 0.52424 0.837 0.9656 0.0
H1157 H 0.49488 0.83342 0.94538 0.0
H1158 H 0.52048 0.83915 0.89448 0.0
H1159 H 0.54983 0.84251 0.91449 0.0
H1160 H 0.48495 0.85966 0.92361 0.0
H1161 H 0.47968 0.79297 0.87582 0.0
H1162 H 0.49545 0.80045 0.89838 0.0
H1163 H 0.50018 0.80982 0.87671 0.0
C1164 C 0.52361 0.8374 0.95009 0.0
C1165 C 0.53931 0.84005 0.94162 0.0
C1166 C 0.50685 0.83529 0.93857 0.0
C1167 C 0.50555 0.83572 0.91843 0.0
C1168 C 0.52119 0.83835 0.90993 0.0
H1169 H 0.41903 0.83873 0.82651 0.0
H1170 H 0.44772 0.8364 0.8452 0.0
C1171 C 0.53795 0.84042 0.92141 0.0
C1172 C 0.48797 0.83479 0.90656 0.0
H1173 H 0.45791 0.81019 0.86703 0.0
C1174 C 0.47895 0.84878 0.91132 0.0
C1175 C 0.48036 0.82065 0.89046 0.0
C1176 C 0.48932 0.80502 0.88509 0.0
C1177 C 0.46258 0.84922 0.90021 0.0
C1178 C 0.45487 0.83502 0.88417 0.0
C1179 C 0.46389 0.82102 0.87936 0.0
C1180 C 0.43735 0.83453 0.8724 0.0
C1181 C 0.45394 0.86515 0.90548 0.0
C1182 C 0.42202 0.8336 0.8814 0.0
C1183 C 0.4059 0.83521 0.8709 0.0
C1184 C 0.40477 0.83735 0.85116 0.0
C1185 C 0.41975 0.83715 0.84178 0.0
C1186 C 0.43603 0.83581 0.85239 0.0
H1187 H 0.46383 0.87724 0.91436 0.0
H1188 H 0.44764 0.86957 0.89218 0.0
H1189 H 0.44331 0.86078 0.91429 0.0
H1190 H 0.42268 0.83212 0.89668 0.0
H1191 H 0.39434 0.83508 0.87827 0.0
H1192 H 0.4651 0.19067 0.09998 0.0
H1193 H 0.46844 0.17283 0.06957 0.0
H1194 H 0.49203 0.22296 0.04952 0.0
H1195 H 0.48879 0.24105 0.08013 0.0
H1196 H 0.4602 0.1728 0.0269 0.0
H1197 H 0.53317 0.19486 0.05888 0.0
H1198 H 0.51617 0.19849 0.07345 0.0
H1199 H 0.52056 0.2121 0.05454 0.0
C1200 C 0.47054 0.19797 0.0889 0.0
C1201 C 0.47699 0.21722 0.09259 0.0
C1202 C 0.47233 0.18776 0.07145 0.0
C1203 C 0.4807 0.19658 0.05745 0.0
C1204 C 0.48564 0.21593 0.06024 0.0
H1205 H 0.53763 0.11966 0.00696 0.0
H1206 H 0.52502 0.14692 0.00453 0.0
C1207 C 0.48373 0.22622 0.07772 0.0
C1208 C 0.48701 0.18512 0.0422 0.0
H1209 H 0.52387 0.1677 0.0366 0.0
C1210 C 0.47422 0.172 0.02849 0.0
C1211 C 0.50534 0.18429 0.04407 0.0
C1212 C 0.51969 0.19811 0.05852 0.0
C1213 C 0.47905 0.15699 0.01803 0.0
C1214 C 0.49696 0.15487 0.02187 0.0
C1215 C 0.51008 0.16919 0.03378 0.0
C1216 C 0.50169 0.13671 0.01757 0.0
C1217 C 0.46471 0.14302 0.00385 0.0
C1218 C 0.49242 0.12159 0.02495 0.0
C1219 C 0.49956 0.10605 0.02631 0.0
C1220 C 0.51625 0.10546 0.02057 0.0
C1221 C 0.52479 0.11984 0.01162 0.0
C1222 C 0.51757 0.13539 0.01017 0.0
H1223 H 0.45515 0.14997 0.99602 0.0
H1224 H 0.47055 0.13496 0.99293 0.0
H1225 H 0.45688 0.13336 0.01204 0.0
H1226 H 0.48042 0.12237 0.03124 0.0
H1227 H 0.49265 0.09511 0.03317 0.0
H1228 H 0.10508 0.36958 0.40735 0.0
H1229 H 0.11733 0.35748 0.37918 0.0
H1230 H 0.12942 0.31327 0.40871 0.0
H1231 H 0.11696 0.32513 0.43692 0.0
H1232 H 0.15149 0.35186 0.3767 0.0
H1233 H 0.10035 0.28578 0.35611 0.0
H1234 H 0.09745 0.30486 0.37302 0.0
H1235 H 0.1115 0.28992 0.38105 0.0
C1236 C 0.11038 0.3573 0.40792 0.0
C1237 C 0.10997 0.34828 0.42438 0.0
C1238 C 0.11736 0.3504 0.39177 0.0
C1239 C 0.12398 0.33429 0.3917 0.0
C1240 C 0.12401 0.32549 0.40829 0.0
H1241 H 0.1774 0.27407 0.31386 0.0
H1242 H 0.1624 0.28535 0.33992 0.0
C1243 C 0.11703 0.33239 0.42447 0.0
C1244 C 0.13112 0.32693 0.37436 0.0
H1245 H 0.12549 0.28903 0.33937 0.0
C1246 C 0.14576 0.33816 0.36848 0.0
C1247 C 0.12354 0.30908 0.36358 0.0
C1248 C 0.10723 0.29675 0.36861 0.0
C1249 C 0.15334 0.33186 0.35243 0.0
C1250 C 0.14588 0.31396 0.34178 0.0
C1251 C 0.13115 0.30276 0.34755 0.0
C1252 C 0.15365 0.30634 0.32508 0.0
C1253 C 0.16944 0.34436 0.34724 0.0
C1254 C 0.15326 0.31409 0.30781 0.0
C1255 C 0.1616 0.30746 0.29261 0.0
C1256 C 0.17054 0.29297 0.29444 0.0
C1257 C 0.17037 0.28495 0.31162 0.0
C1258 C 0.16194 0.2915 0.32669 0.0
H1259 H 0.17656 0.35511 0.35982 0.0
H1260 H 0.17914 0.33644 0.34218 0.0
H1261 H 0.16476 0.35147 0.33524 0.0
H1262 H 0.14668 0.3254 0.30619 0.0
H1263 H 0.16122 0.31385 0.27956 0.0
H1264 H 0.92849 0.04001 0.22659 0.0
H1265 H 0.94446 0.04182 0.19888 0.0
H1266 H 0.94974 0.10073 0.20664 0.0
H1267 H 0.93367 0.09896 0.23503 0.0
H1268 H 0.93825 0.05201 0.16401 0.0
H1269 H 1.00166 0.09865 0.2041 0.0
H1270 H 0.98416 0.088 0.21658 0.0
H1271 H 0.98173 0.10754 0.20483 0.0
C1272 C 0.93283 0.05345 0.22242 0.0
C1273 C 0.92956 0.06932 0.23333 0.0
C1274 C 0.94212 0.05445 0.2064 0.0
C1275 C 0.94888 0.07142 0.20048 0.0
C1276 C 0.94518 0.08739 0.2109 0.0
H1277 H 0.01471 0.08607 0.10307 0.0
H1278 H 0.99877 0.09291 0.13075 0.0
C1279 C 0.93564 0.08636 0.22705 0.0
C1280 C 0.95951 0.07177 0.18345 0.0
H1281 H 1.00102 0.08792 0.17073 0.0
C1282 C 0.95194 0.06001 0.1656 0.0
C1283 C 0.97747 0.08217 0.18498 0.0
C1284 C 0.98687 0.09472 0.20366 0.0
C1285 C 0.96158 0.05816 0.14976 0.0
C1286 C 0.97977 0.06796 0.15152 0.0
C1287 C 0.98721 0.08025 0.16909 0.0
C1288 C 0.99128 0.06461 0.13576 0.0
C1289 C 0.95197 0.04565 0.13109 0.0
C1290 C 0.99332 0.04664 0.12955 0.0
C1291 C 1.00243 0.04278 0.11386 0.0
C1292 C 0.01025 0.0567 0.10374 0.0
C1293 C 1.00917 0.07496 0.11055 0.0
C1294 C 0.99986 0.07885 0.12637 0.0
H1295 H 0.93717 0.04415 0.12958 0.0
H1296 H 0.9566 0.05092 0.11805 0.0
H1297 H 0.95473 0.03171 0.13133 0.0
H1298 H 0.98746 0.03535 0.13662 0.0
H1299 H 1.00288 0.02854 0.10922 0.0
H1300 H 0.34438 0.77138 0.51431 0.0
H1301 H 0.33775 0.78044 0.48226 0.0
H1302 H 0.3344 0.72478 0.45454 0.0
H1303 H 0.34094 0.71558 0.48684 0.0
H1304 H 0.35145 0.77913 0.44702 0.0
H1305 H 0.28353 0.73296 0.43857 0.0
H1306 H 0.2989 0.73864 0.46144 0.0
H1307 H 0.30208 0.72192 0.44216 0.0
C1308 C 0.34284 0.76119 0.50136 0.0
C1309 C 0.34318 0.74276 0.5031 0.0
C1310 C 0.33895 0.76638 0.48302 0.0
C1311 C 0.33511 0.75322 0.46599 0.0
C1312 C 0.33697 0.73511 0.46752 0.0
H1313 H 0.28932 0.76 0.34694 0.0
H1314 H 0.30129 0.7502 0.37698 0.0
C1315 C 0.34101 0.72992 0.48596 0.0
C1316 C 0.32767 0.75826 0.4471 0.0
H1317 H 0.28943 0.74992 0.4131 0.0
C1318 C 0.33793 0.77268 0.43955 0.0
C1319 C 0.30992 0.75001 0.43744 0.0
C1320 C 0.29785 0.73513 0.44533 0.0
C1321 C 0.33102 0.77891 0.42256 0.0
C1322 C 0.31322 0.77076 0.41302 0.0
C1323 C 0.30303 0.75622 0.42045 0.0
C1324 C 0.30507 0.77679 0.39505 0.0
C1325 C 0.34292 0.79398 0.41478 0.0
C1326 C 0.30262 0.79491 0.39525 0.0
C1327 C 0.29562 0.8006 0.37801 0.0
C1328 C 0.29096 0.78827 0.36022 0.0
C1329 C 0.29282 0.76995 0.3603 0.0
C1330 C 0.29971 0.76428 0.3775 0.0
H1331 H 0.35735 0.79565 0.42089 0.0
H1332 H 0.34126 0.79107 0.39858 0.0
H1333 H 0.33911 0.80727 0.41893 0.0
H1334 H 0.3063 0.80472 0.4087 0.0
H1335 H 0.29442 0.81479 0.37853 0.0
H1336 H 0.61799 0.9983 0.72844 0.0
H1337 H 0.60769 1.00362 0.69521 0.0
H1338 H 0.55354 0.99715 0.70755 0.0
H1339 H 0.56388 0.99251 0.7408 0.0
H1340 H 0.58154 0.98678 0.66213 0.0
H1341 H 0.56562 0.05042 0.69828 0.0
H1342 H 0.57805 0.03663 0.7115 0.0
H1343 H 0.55392 0.0297 0.70546 0.0
C1344 C 0.6038 0.99733 0.72378 0.0
C1345 C 0.59173 0.995 0.73719 0.0
C1346 C 0.59792 1.00053 0.70484 0.0
C1347 C 0.5799 1.00131 0.69903 0.0
C1348 C 0.56757 0.99709 0.71181 0.0
H1349 H 0.53281 0.02027 0.5827 0.0
H1350 H 0.53992 0.00593 0.61169 0.0
C1351 C 0.57346 0.99422 0.73075 0.0
C1352 C 0.57433 0.00839 0.68066 0.0
H1353 H 0.55719 0.04326 0.664 0.0
C1354 C 0.57619 0.99911 0.66251 0.0
C1355 C 0.56761 0.02468 0.68112 0.0
C1356 C 0.56633 0.03606 0.70013 0.0
C1357 C 0.57138 0.00559 0.64488 0.0
C1358 C 0.56425 0.02163 0.64536 0.0
C1359 C 0.56245 0.03087 0.66353 0.0
C1360 C 0.55968 0.02991 0.62748 0.0
C1361 C 0.57451 0.99552 0.62599 0.0
C1362 C 0.56792 0.04832 0.62684 0.0
C1363 C 0.5637 0.05656 0.61048 0.0
C1364 C 0.55111 0.04662 0.59427 0.0
C1365 C 0.54263 0.02825 0.59492 0.0
C1366 C 0.54682 0.01999 0.61142 0.0
H1367 H 0.58403 0.98643 0.62859 0.0
H1368 H 0.56154 0.98674 0.61801 0.0
H1369 H 0.57989 0.0054 0.61648 0.0
H1370 H 0.5778 0.05634 0.639 0.0
H1371 H 0.57047 0.07073 0.6105 0.0
H1372 H 0.27506 0.44087 0.06037 0.0
H1373 H 0.26079 0.41922 0.03056 0.0
H1374 H 0.30098 0.38739 0.04024 0.0
H1375 H 0.31534 0.40885 0.07006 0.0
H1376 H 0.27798 0.41123 0.99822 0.0
H1377 H 0.25288 0.34827 0.02903 0.0
H1378 H 0.25847 0.37114 0.04333 0.0
H1379 H 0.27588 0.35906 0.03908 0.0
C1380 C 0.28082 0.4292 0.05623 0.0
C1381 C 0.29635 0.42655 0.06758 0.0
C1382 C 0.27258 0.41684 0.03925 0.0
C1383 C 0.27962 0.40155 0.03352 0.0
C1384 C 0.29511 0.39889 0.04476 0.0
H1385 H 0.29391 0.32497 0.94797 0.0
H1386 H 0.28761 0.34243 0.97708 0.0
C1387 C 0.3034 0.41126 0.06167 0.0
C1388 C 0.27191 0.38917 0.01489 0.0
H1389 H 0.25836 0.34353 0.99563 0.0
C1390 C 0.2732 0.39646 0.99751 0.0
C1391 C 0.26551 0.37001 0.01417 0.0
C1392 C 0.26292 0.36167 0.03241 0.0
C1393 C 0.27007 0.38483 0.97945 0.0
C1394 C 0.26512 0.36547 0.97889 0.0
C1395 C 0.26223 0.35836 0.99613 0.0
C1396 C 0.26628 0.35254 0.96156 0.0
C1397 C 0.2736 0.3933 0.96145 0.0
C1398 C 0.25586 0.35183 0.94331 0.0
C1399 C 0.25971 0.34213 0.92653 0.0
C1400 C 0.27389 0.33287 0.92789 0.0
C1401 C 0.28321 0.33235 0.94642 0.0
C1402 C 0.27949 0.34216 0.96308 0.0
H1403 H 0.27979 0.40833 0.96501 0.0
H1404 H 0.28268 0.38641 0.95359 0.0
H1405 H 0.26072 0.39144 0.95139 0.0
H1406 H 0.24535 0.35945 0.94192 0.0
H1407 H 0.25227 0.34275 0.91244 0.0
H1408 H 0.9111 0.07898 0.35458 0.0
H1409 H 0.92441 0.0788 0.38864 0.0
H1410 H 0.97648 0.08211 0.37126 0.0
H1411 H 0.96332 0.08217 0.33749 0.0
H1412 H 0.94226 0.05137 0.40107 0.0
H1413 H 0.98808 0.12056 0.4213 0.0
H1414 H 0.96974 0.11511 0.40096 0.0
H1415 H 0.99047 0.10826 0.39836 0.0
C1416 C 0.92548 0.08033 0.35816 0.0
C1417 C 0.93614 0.08086 0.34324 0.0
C1418 C 0.93308 0.07999 0.37764 0.0
C1419 C 0.95157 0.08055 0.38274 0.0
C1420 C 0.96229 0.08196 0.36798 0.0
H1421 H 0.00979 0.03811 0.47643 0.0
H1422 H 0.99439 0.04394 0.44562 0.0
C1423 C 0.95471 0.08203 0.34858 0.0
C1424 C 0.95953 0.07823 0.40295 0.0
H1425 H 0.99313 0.09819 0.44166 0.0
C1426 C 0.95327 0.06171 0.40999 0.0
C1427 C 0.9739 0.09165 0.41482 0.0
C1428 C 0.98087 0.10998 0.4086 0.0
C1429 C 0.96125 0.05805 0.42809 0.0
C1430 C 0.97607 0.07118 0.43961 0.0
C1431 C 0.98195 0.08796 0.43287 0.0
C1432 C 0.98565 0.06769 0.45858 0.0
C1433 C 0.95366 0.04013 0.43477 0.0
C1434 C 0.98635 0.07925 0.47632 0.0
C1435 C 0.99515 0.0759 0.49408 0.0
C1436 C 1.00376 0.06102 0.49461 0.0
C1437 C 1.0033 0.04965 0.47675 0.0
C1438 C 0.99437 0.05292 0.45904 0.0
H1439 H 0.93975 0.03382 0.42707 0.0
H1440 H 0.9622 0.03021 0.43157 0.0
H1441 H 0.95354 0.04224 0.45077 0.0
H1442 H 0.97988 0.09081 0.4765 0.0
H1443 H 0.99521 0.08506 0.50741 0.0
H1444 H 0.34321 0.7174 0.62103 0.0
H1445 H 0.3389 0.72892 0.65431 0.0
H1446 H 0.34179 0.78329 0.63901 0.0
H1447 H 0.34617 0.7719 0.60609 0.0
H1448 H 0.35779 0.78469 0.67734 0.0
H1449 H 0.28937 0.73869 0.66138 0.0
H1450 H 0.30764 0.72729 0.6598 0.0
H1451 H 0.30323 0.74247 0.64273 0.0
C1452 C 0.34367 0.73195 0.62507 0.0
C1453 C 0.34517 0.74377 0.61099 0.0
C1454 C 0.34088 0.73848 0.64399 0.0
C1455 C 0.33958 0.75693 0.6491 0.0
C1456 C 0.34262 0.76901 0.6355 0.0
H1457 H 0.27812 0.80379 0.72984 0.0
H1458 H 0.29097 0.79254 0.70158 0.0
C1459 C 0.34526 0.7625 0.61667 0.0
C1460 C 0.33359 0.76351 0.66775 0.0
H1461 H 0.29731 0.75823 0.69176 0.0
C1462 C 0.34464 0.77878 0.6806 0.0
C1463 C 0.31625 0.75611 0.67184 0.0
C1464 C 0.30332 0.74034 0.65819 0.0
C1465 C 0.33884 0.78685 0.69728 0.0
C1466 C 0.32156 0.77934 0.70145 0.0
C1467 C 0.31057 0.764 0.68866 0.0
C1468 C 0.31443 0.78733 0.71875 0.0
C1469 C 0.35107 0.80375 0.7099 0.0
C1470 C 0.32333 0.78835 0.7379 0.0
C1471 C 0.31607 0.79491 0.75407 0.0
C1472 C 0.2996 0.80045 0.75151 0.0
C1473 C 0.29085 0.79975 0.73235 0.0
C1474 C 0.29816 0.79321 0.71617 0.0
H1475 H 0.36148 0.81064 0.70199 0.0
H1476 H 0.34329 0.81388 0.71496 0.0
H1477 H 0.35807 0.79959 0.72296 0.0
H1478 H 0.33568 0.78359 0.7404 0.0
H1479 H 0.32309 0.79511 0.76862 0.0
H1480 H 0.56479 0.99098 0.83374 0.0
H1481 H 0.55609 0.99542 0.86614 0.0
H1482 H 0.61094 1.00033 0.89294 0.0
H1483 H 0.61971 0.99557 0.86038 0.0
H1484 H 0.56401 0.97865 0.90493 0.0
H1485 H 0.5949 0.05274 0.90488 0.0
H1486 H 0.58757 0.03639 0.88251 0.0
H1487 H 0.60753 0.0357 0.89856 0.0
C1488 C 0.57486 0.99222 0.84654 0.0
C1489 C 0.59291 0.99286 0.84455 0.0
C1490 C 0.56987 0.99483 0.86504 0.0
C1491 C 0.58289 0.99839 0.88191 0.0
C1492 C 0.60069 0.99758 0.88006 0.0
H1493 H 0.57554 0.05263 0.99783 0.0
H1494 H 0.58605 0.0391 0.96908 0.0
C1495 C 0.60566 0.99469 0.86147 0.0
C1496 C 0.57819 0.00544 0.90095 0.0
H1497 H 0.58018 0.04567 0.93118 0.0
C1498 C 0.56767 0.99326 0.91081 0.0
C1499 C 0.58289 0.02453 0.90848 0.0
C1500 C 0.59378 0.03822 0.89812 0.0
C1501 C 0.56172 0.99972 0.92807 0.0
C1502 C 0.56604 0.0189 0.93533 0.0
C1503 C 0.57683 0.03099 0.9256 0.0
C1504 C 0.55943 0.02681 0.95289 0.0
C1505 C 0.55105 0.98594 0.9385 0.0
C1506 C 0.54091 0.02472 0.95328 0.0
C1507 C 0.53481 0.03253 0.96971 0.0
C1508 C 0.54711 0.04265 0.9861 0.0
C1509 C 0.56564 0.04492 0.98552 0.0
C1510 C 0.57171 0.03715 0.96909 0.0
H1511 H 0.55308 0.9718 0.93428 0.0
H1512 H 0.55484 0.9899 0.95462 0.0
H1513 H 0.53652 0.98555 0.93454 0.0
H1514 H 0.53117 0.01717 0.94078 0.0
H1515 H 0.52046 0.03051 0.96961 0.0
H1516 H 0.27086 0.4387 0.15085 0.0
H1517 H 0.258 0.41518 0.16965 0.0
H1518 H 0.311 0.41761 0.20047 0.0
H1519 H 0.32394 0.44081 0.18163 0.0
H1520 H 0.27243 0.37978 0.16836 0.0
H1521 H 0.27584 0.41822 0.24268 0.0
H1522 H 0.27429 0.42892 0.22092 0.0
H1523 H 0.29537 0.42467 0.23136 0.0
C1524 C 0.27966 0.43469 0.16214 0.0
C1525 C 0.29838 0.44155 0.16485 0.0
C1526 C 0.27232 0.42115 0.17268 0.0
C1527 C 0.28361 0.41471 0.1863 0.0
C1528 C 0.30211 0.42253 0.19004 0.0
H1529 H 0.29785 0.324 0.23853 0.0
H1530 H 0.29257 0.34306 0.21323 0.0
C1531 C 0.30947 0.43581 0.17935 0.0
C1532 C 0.27663 0.39863 0.19542 0.0
H1533 H 0.27405 0.38585 0.2401 0.0
C1534 C 0.27233 0.38102 0.18399 0.0
C1535 C 0.27651 0.40041 0.21571 0.0
C1536 C 0.28061 0.41907 0.22843 0.0
C1537 C 0.26892 0.365 0.19263 0.0
C1538 C 0.26999 0.3668 0.21314 0.0
C1539 C 0.27323 0.38446 0.22434 0.0
C1540 C 0.26956 0.35095 0.22383 0.0
C1541 C 0.26469 0.34637 0.17985 0.0
C1542 C 0.25798 0.34848 0.23763 0.0
C1543 C 0.26125 0.33798 0.25219 0.0
C1544 C 0.27586 0.32944 0.25292 0.0
C1545 C 0.2863 0.33022 0.23795 0.0
C1546 C 0.28323 0.34105 0.22349 0.0
H1547 H 0.25873 0.34712 0.16468 0.0
H1548 H 0.27733 0.34153 0.17918 0.0
H1549 H 0.25528 0.33601 0.18582 0.0
H1550 H 0.24743 0.35606 0.23822 0.0
H1551 H 0.25327 0.3378 0.2638 0.0
H1552 H 0.20308 0.96921 0.09034 0.0
H1553 H 0.1798 0.98691 0.09134 0.0
H1554 H 0.14385 0.94502 0.0478 0.0
H1555 H 0.16724 0.92708 0.04665 0.0
H1556 H 0.1617 1.00111 0.06014 0.0
H1557 H 0.11398 0.9522 0.0925 0.0
H1558 H 0.1373 0.95119 0.09323 0.0
H1559 H 0.12149 0.94244 0.07107 0.0
C1560 C 0.19023 0.96363 0.08096 0.0
C1561 C 0.18711 0.94658 0.06844 0.0
C1562 C 0.17689 0.97387 0.08155 0.0
C1563 C 0.15993 0.96731 0.06982 0.0
C1564 C 0.15672 0.95031 0.05723 0.0
H1565 H 0.06061 0.00453 0.05361 0.0
H1566 H 0.08469 0.98817 0.05548 0.0
C1567 C 0.17015 0.94008 0.05651 0.0
C1568 C 0.14584 0.97846 0.07068 0.0
H1569 H 0.10416 0.97806 0.08291 0.0
C1570 C 0.14912 0.9961 0.06515 0.0
C1571 C 0.12942 0.97202 0.07729 0.0
C1572 C 0.1253 0.9535 0.08403 0.0
C1573 C 0.13629 0.00715 0.06542 0.0
C1574 C 0.11981 1.00073 0.07205 0.0
C1575 C 0.1167 0.98316 0.07786 0.0
C1576 C 0.10508 0.01128 0.07183 0.0
C1577 C 0.14031 0.02527 0.05782 0.0
C1578 C 0.1081 0.0299 0.08076 0.0
C1579 C 0.09417 0.03959 0.07947 0.0
C1580 C 0.07678 0.03079 0.06955 0.0
C1581 C 0.07372 0.01197 0.06139 0.0
C1582 C 0.0876 1.00246 0.06245 0.0
H1583 H 0.15087 0.02571 0.04837 0.0
H1584 H 0.12807 0.0278 0.04928 0.0
H1585 H 0.14531 0.03666 0.07036 0.0
H1586 H 0.12125 0.037 0.08867 0.0
H1587 H 0.09708 0.05399 0.08602 0.0
H1588 H 0.72067 0.60328 0.00896 0.0
H1589 H 0.69357 0.58638 0.01918 0.0
H1590 H 0.66184 0.59162 0.96537 0.0
H1591 H 0.68872 0.60885 0.95538 0.0
H1592 H 0.65635 0.6123 1.00056 0.0
H1593 H 0.65184 0.53817 0.00654 0.0
H1594 H 0.6734 0.55386 0.01481 0.0
H1595 H 0.66401 0.54947 0.98933 0.0
C1596 C 0.70807 0.59989 0.99887 0.0
C1597 C 0.70663 0.60745 0.9815 0.0
C1598 C 0.6926 0.59024 0.00472 0.0
C1599 C 0.67573 0.58787 0.99305 0.0
C1600 C 0.67476 0.59329 0.97453 0.0
H1601 H 0.56664 0.5585 0.01524 0.0
H1602 H 0.59503 0.55929 0.00276 0.0
C1603 C 0.6901 0.60311 0.96883 0.0
C1604 C 0.6592 0.58445 0.00188 0.0
H1605 H 0.63061 0.55254 0.0205 0.0
C1606 C 0.65067 0.5992 0.00484 0.0
C1607 C 0.65199 0.56741 0.00752 0.0
C1608 C 0.66065 0.55121 0.00434 0.0
C1609 C 0.63504 0.59737 0.01323 0.0
C1610 C 0.62788 0.58041 0.0191 0.0
C1611 C 0.6363 0.56556 0.01609 0.0
C1612 C 0.61129 0.57798 0.02784 0.0
C1613 C 0.62615 0.61355 0.01553 0.0
C1614 C 0.61119 0.58801 0.04619 0.0
C1615 C 0.59502 0.58771 0.05327 0.0
C1616 C 0.57877 0.57732 0.0421 0.0
C1617 C 0.57899 0.56672 0.02407 0.0
C1618 C 0.59518 0.56704 0.017 0.0
H1619 H 0.63135 0.62427 0.0068 0.0
H1620 H 0.61136 0.60893 0.01099 0.0
H1621 H 0.62883 0.62 0.03114 0.0
H1622 H 0.62357 0.59648 0.05475 0.0
H1623 H 0.59521 0.59584 0.0673 0.0
H1624 H 0.70126 0.49355 0.29441 0.0
H1625 H 0.71515 0.4668 0.28856 0.0
H1626 H 0.70871 0.45494 0.34623 0.0
H1627 H 0.69445 0.48085 0.35176 0.0
H1628 H 0.74355 0.45511 0.30195 0.0
H1629 H 0.68731 0.40468 0.31899 0.0
H1630 H 0.68574 0.42802 0.31689 0.0
H1631 H 0.69608 0.42262 0.33952 0.0
C1632 C 0.70279 0.48527 0.30587 0.0
C1633 C 0.69636 0.48965 0.32356 0.0
C1634 C 0.7108 0.46977 0.3025 0.0
C1635 C 0.71273 0.45794 0.31663 0.0
C1636 C 0.70695 0.46289 0.33452 0.0
H1637 H 0.78663 0.37926 0.31611 0.0
H1638 H 0.77346 0.40639 0.31928 0.0
C1639 C 0.69884 0.47813 0.33779 0.0
C1640 C 0.7208 0.44075 0.31303 0.0
H1641 H 0.71487 0.39483 0.3185 0.0
C1642 C 0.73712 0.44196 0.30552 0.0
C1643 C 0.71264 0.42302 0.31708 0.0
C1644 C 0.69439 0.41942 0.32335 0.0
C1645 C 0.74547 0.42665 0.30256 0.0
C1646 C 0.73783 0.40921 0.30772 0.0
C1647 C 0.72127 0.40791 0.31473 0.0
C1648 C 0.74636 0.39218 0.30566 0.0
C1649 C 0.76221 0.42937 0.29327 0.0
C1650 C 0.73589 0.37428 0.29764 0.0
C1651 C 0.74347 0.35845 0.29617 0.0
C1652 C 0.76197 0.35965 0.30256 0.0
C1653 C 0.77245 0.37749 0.31063 0.0
C1654 C 0.76483 0.39329 0.31231 0.0
H1655 H 0.76273 0.44054 0.28417 0.0
H1656 H 0.7742 0.4335 0.30492 0.0
H1657 H 0.76301 0.41654 0.2839 0.0
H1658 H 0.72167 0.37245 0.29238 0.0
H1659 H 0.73469 0.34516 0.29003 0.0
H1660 H 0.79462 0.433 0.58463 0.0
H1661 H 0.82096 0.45663 0.58257 0.0
H1662 H 0.78772 0.48293 0.54591 0.0
H1663 H 0.76107 0.45938 0.54826 0.0
H1664 H 0.83006 0.45852 0.5456 0.0
H1665 H 0.82394 0.52714 0.58138 0.0
H1666 H 0.81168 0.50568 0.58701 0.0
H1667 H 0.80446 0.51364 0.56477 0.0
C1668 C 0.79281 0.44412 0.57659 0.0
C1669 C 0.77584 0.44426 0.56641 0.0
C1670 C 0.80788 0.45763 0.57546 0.0
C1671 C 0.80631 0.4715 0.56406 0.0
C1672 C 0.78918 0.47249 0.55502 0.0
H1673 H 0.89012 0.53377 0.51054 0.0
H1674 H 0.86105 0.52157 0.52016 0.0
C1675 C 0.77398 0.45901 0.55632 0.0
C1676 C 0.82283 0.4828 0.55924 0.0
H1677 H 0.84807 0.52673 0.56342 0.0
C1678 C 0.83399 0.47343 0.54953 0.0
C1679 C 0.82783 0.50224 0.56426 0.0
C1680 C 0.81646 0.51284 0.57506 0.0
C1681 C 0.85009 0.48294 0.54484 0.0
C1682 C 0.85523 0.50232 0.55006 0.0
C1683 C 0.844 0.51183 0.55948 0.0
C1684 C 0.87258 0.51256 0.54615 0.0
C1685 C 0.86162 0.47221 0.53441 0.0
C1686 C 0.88858 0.51186 0.55788 0.0
C1687 C 0.90516 0.51881 0.55248 0.0
C1688 C 0.90603 0.5265 0.53518 0.0
C1689 C 0.88994 0.52802 0.52399 0.0
C1690 C 0.87332 0.52108 0.52945 0.0
H1691 H 0.85457 0.45758 0.52905 0.0
H1692 H 0.86571 0.47871 0.5218 0.0
H1693 H 0.87404 0.47243 0.5446 0.0
H1694 H 0.88821 0.50529 0.57081 0.0
H1695 H 0.9173 0.51778 0.56164 0.0
H1696 H 0.37266 0.1445 0.31135 0.0
H1697 H 0.35486 0.16737 0.30591 0.0
H1698 H 0.39082 0.19073 0.26868 0.0
H1699 H 0.40899 0.16792 0.27432 0.0
H1700 H 0.3825 0.21756 0.29355 0.0
H1701 H 0.31939 0.16813 0.25816 0.0
H1702 H 0.32768 0.16318 0.28166 0.0
H1703 H 0.34064 0.16141 0.26213 0.0
C1704 C 0.37684 0.15444 0.30194 0.0
C1705 C 0.3923 0.15421 0.2932 0.0
C1706 C 0.36649 0.16748 0.29871 0.0
C1707 C 0.37114 0.18061 0.28649 0.0
C1708 C 0.38677 0.18068 0.27802 0.0
H1709 H 0.29515 0.24985 0.25137 0.0
H1710 H 0.31447 0.22735 0.25025 0.0
C1711 C 0.39719 0.1676 0.28128 0.0
C1712 C 0.35999 0.19454 0.28314 0.0
H1713 H 0.31684 0.19893 0.26939 0.0
C1714 C 0.36818 0.21344 0.28807 0.0
C1715 C 0.3413 0.18936 0.27568 0.0
C1716 C 0.33176 0.16942 0.26891 0.0
C1717 C 0.35817 0.22715 0.28656 0.0
C1718 C 0.33928 0.22195 0.28017 0.0
C1719 C 0.33122 0.20307 0.27445 0.0
C1720 C 0.32759 0.23574 0.2804 0.0
C1721 C 0.36812 0.2471 0.29194 0.0
C1722 C 0.32815 0.24777 0.29771 0.0
C1723 C 0.3173 0.26063 0.2983 0.0
C1724 C 0.30529 0.26182 0.28167 0.0
C1725 C 0.30434 0.24949 0.26439 0.0
C1726 C 0.31538 0.23659 0.26377 0.0
H1727 H 0.38193 0.24893 0.28832 0.0
H1728 H 0.3611 0.2564 0.28436 0.0
H1729 H 0.36938 0.25139 0.30796 0.0
H1730 H 0.33689 0.24711 0.31096 0.0
H1731 H 0.31813 0.26944 0.31207 0.0
H1732 H 0.28117 0.09801 0.53005 0.0
H1733 H 0.30773 0.08739 0.54286 0.0
H1734 H 0.33882 0.11874 0.50636 0.0
H1735 H 0.31232 0.12949 0.49342 0.0
H1736 H 0.33003 0.06828 0.52102 0.0
H1737 H 0.3671 0.1363 0.56355 0.0
H1738 H 0.34313 0.13097 0.55507 0.0
H1739 H 0.35851 0.1364 0.53835 0.0
C1740 C 0.29362 0.10256 0.52463 0.0
C1741 C 0.29468 0.11465 0.51078 0.0
C1742 C 0.30876 0.09651 0.532 0.0
C1743 C 0.32523 0.10258 0.52579 0.0
C1744 C 0.32625 0.11419 0.51155 0.0
H1745 H 0.4307 0.08312 0.54229 0.0
H1746 H 0.40377 0.09544 0.53639 0.0
C1747 C 0.31108 0.12017 0.50406 0.0
C1748 C 0.34131 0.09657 0.53408 0.0
H1749 H 0.38318 0.11242 0.56125 0.0
C1750 C 0.3416 0.07785 0.52998 0.0
C1751 C 0.35628 0.10917 0.54577 0.0
C1752 C 0.35629 0.12933 0.55113 0.0
C1753 C 0.35682 0.07146 0.53669 0.0
C1754 C 0.37192 0.08409 0.54817 0.0
C1755 C 0.37149 0.10278 0.55258 0.0
C1756 C 0.38881 0.07837 0.55415 0.0
C1757 C 0.35691 0.05139 0.53078 0.0
C1758 C 0.3895 0.06522 0.56671 0.0
C1759 C 0.40487 0.05809 0.57004 0.0
C1760 C 0.41966 0.06404 0.5608 0.0
C1761 C 0.41931 0.07806 0.54926 0.0
C1762 C 0.40402 0.08518 0.546 0.0
H1763 H 0.34559 0.04434 0.51891 0.0
H1764 H 0.36974 0.05002 0.52576 0.0
H1765 H 0.35565 0.04415 0.5436 0.0
H1766 H 0.37794 0.06003 0.57336 0.0
H1767 H 0.40486 0.04735 0.57906 0.0
H1768 H 0.72101 0.59459 0.32295 0.0
H1769 H 0.73897 0.62566 0.32107 0.0
H1770 H 0.69056 0.64621 0.31512 0.0
H1771 H 0.67304 0.61625 0.31748 0.0
H1772 H 0.73953 0.64961 0.29353 0.0
H1773 H 0.71968 0.68428 0.35875 0.0
H1774 H 0.71541 0.65946 0.35302 0.0
H1775 H 0.70013 0.67189 0.34182 0.0
C1776 C 0.71423 0.60578 0.32145 0.0
C1777 C 0.69539 0.60255 0.32076 0.0
C1778 C 0.72455 0.62365 0.32029 0.0
C1779 C 0.71635 0.63881 0.31846 0.0
C1780 C 0.69758 0.63529 0.31722 0.0
H1781 H 0.73196 0.75161 0.29647 0.0
H1782 H 0.72239 0.71979 0.30204 0.0
C1783 C 0.68744 0.61778 0.3185 0.0
C1784 C 0.72677 0.65828 0.31757 0.0
H1785 H 0.73004 0.70392 0.33591 0.0
C1786 C 0.73769 0.66142 0.30307 0.0
C1787 C 0.72468 0.67408 0.32993 0.0
C1788 C 0.7145 0.67226 0.34687 0.0
C1789 C 0.74558 0.67957 0.30002 0.0
C1790 C 0.74266 0.6953 0.31177 0.0
C1791 C 0.73228 0.69212 0.32666 0.0
C1792 C 0.74918 0.71504 0.30821 0.0
C1793 C 0.75634 0.68179 0.28362 0.0
C1794 C 0.76762 0.72361 0.30999 0.0
C1795 C 0.77323 0.74218 0.30697 0.0
C1796 C 0.76057 0.75273 0.30191 0.0
C1797 C 0.7422 0.7441 0.30024 0.0
C1798 C 0.73665 0.72574 0.30346 0.0
H1799 H 0.75479 0.66854 0.27371 0.0
H1800 H 0.75222 0.69207 0.27491 0.0
H1801 H 0.7708 0.68694 0.28988 0.0
H1802 H 0.77774 0.71601 0.31395 0.0
H1803 H 0.78747 0.74823 0.30846 0.0
H1804 H 0.88153 0.57772 0.8021 0.0
H1805 H 0.85823 0.55123 0.80586 0.0
H1806 H 0.87751 0.51618 0.76361 0.0
H1807 H 0.90113 0.54236 0.76031 0.0
H1808 H 0.83045 0.52344 0.78198 0.0
H1809 H 0.88681 0.49489 0.81396 0.0
H1810 H 0.89004 0.51824 0.80892 0.0
H1811 H 0.88789 0.49933 0.78946 0.0
C1812 C 0.88047 0.56446 0.79324 0.0
C1813 C 0.89328 0.56199 0.78116 0.0
C1814 C 0.86719 0.54935 0.79542 0.0
C1815 C 0.86648 0.53167 0.7854 0.0
C1816 C 0.87813 0.52962 0.77185 0.0
H1817 H 0.79186 0.42739 0.78647 0.0
H1818 H 0.80704 0.45651 0.77766 0.0
C1819 C 0.89155 0.54459 0.76992 0.0
C1820 C 0.8551 0.51513 0.79068 0.0
H1821 H 0.85767 0.47582 0.80972 0.0
C1822 C 0.83635 0.51301 0.78806 0.0
C1823 C 0.86289 0.50171 0.79892 0.0
C1824 C 0.88301 0.50368 0.80318 0.0
C1825 C 0.82516 0.49763 0.79321 0.0
C1826 C 0.83296 0.484 0.80096 0.0
C1827 C 0.85171 0.48625 0.80371 0.0
C1828 C 0.82216 0.46732 0.80664 0.0
C1829 C 0.80514 0.49627 0.79068 0.0
C1830 C 0.82564 0.46369 0.82583 0.0
C1831 C 0.81709 0.44704 0.83087 0.0
C1832 C 0.80489 0.43365 0.81679 0.0
C1833 C 0.801 0.43754 0.79771 0.0
C1834 C 0.80963 0.45419 0.79266 0.0
H1835 H 0.80181 0.50986 0.78937 0.0
H1836 H 0.79856 0.48656 0.77712 0.0
H1837 H 0.79943 0.49092 0.80316 0.0
H1838 H 0.83529 0.47361 0.83684 0.0
H1839 H 0.82022 0.44454 0.84573 0.0
H1840 H 0.05519 0.85633 0.18039 0.0
H1841 H 0.04798 0.87893 0.16026 0.0
H1842 H 0.99139 0.85504 0.15606 0.0
H1843 H 0.99862 0.83254 0.17684 0.0
H1844 H 0.03167 0.87031 0.1229 0.0
H1845 H 0.99187 0.90956 0.16567 0.0
H1846 H 1.00499 0.89484 0.17634 0.0
H1847 H 0.98347 0.88497 0.16135 0.0
C1848 C 0.04117 0.85613 0.17557 0.0
C1849 C 0.02747 0.84264 0.18023 0.0
C1850 C 0.03707 0.86904 0.16399 0.0
C1851 C 0.01914 0.86878 0.15659 0.0
C1852 C 1.00532 0.85579 0.16184 0.0
H1853 H 0.97732 0.9329 0.07143 0.0
H1854 H 0.98009 0.91043 0.09365 0.0
C1855 C 1.00945 0.84292 0.17373 0.0
C1856 C 0.01533 0.88114 0.14217 0.0
H1857 H 0.99417 0.916 0.13364 0.0
C1858 C 0.02347 0.8803 0.1253 0.0
C1859 C 1.0045 0.8941 0.14513 0.0
C1860 C 0.99581 0.8961 0.16317 0.0
C1861 C 0.02126 0.89208 0.11149 0.0
C1862 C 0.01079 0.90532 0.11466 0.0
C1863 C 1.00225 0.90589 0.13124 0.0
C1864 C 1.00905 0.91904 0.10123 0.0
C1865 C 0.0301 0.89012 0.09353 0.0
C1866 C 0.02436 0.93153 0.09825 0.0
C1867 C 0.02283 0.94437 0.08558 0.0
C1868 C 1.00591 0.94516 0.07566 0.0
C1869 C 0.99055 0.93277 0.07888 0.0
C1870 C 0.99211 0.91988 0.09155 0.0
H1871 H 0.0331 0.87624 0.09046 0.0
H1872 H 0.02146 0.89244 0.08046 0.0
H1873 H 0.04301 0.90053 0.09592 0.0
H1874 H 0.03754 0.93148 0.1059 0.0
H1875 H 0.03491 0.95394 0.08384 0.0
H1876 H 0.98798 0.3334 0.84867 0.0
H1877 H 0.95729 0.33429 0.83423 0.0
H1878 H 0.93851 0.27785 0.84208 0.0
H1879 H 0.96888 0.27726 0.85719 0.0
H1880 H 0.93069 0.31677 0.80453 0.0
H1881 H 0.9077 0.30186 0.87379 0.0
H1882 H 0.93114 0.30659 0.87135 0.0
H1883 H 0.91706 0.28387 0.86276 0.0
C1884 C 0.97743 0.32097 0.84663 0.0
C1885 C 0.981 0.30517 0.85389 0.0
C1886 C 0.95976 0.32155 0.83859 0.0
C1887 C 0.94524 0.30634 0.8376 0.0
C1888 C 0.94918 0.29003 0.84323 0.0
H1889 H 0.82693 0.2896 0.80916 0.0
H1890 H 0.85778 0.28471 0.8141 0.0
C1891 C 0.9667 0.28956 0.85153 0.0
C1892 C 0.926 0.30778 0.83184 0.0
H1893 H 0.885 0.30203 0.84742 0.0
C1894 C 0.92076 0.31356 0.81397 0.0
C1895 C 0.9128 0.30376 0.84408 0.0
C1896 C 0.91747 0.29887 0.86414 0.0
C1897 C 0.90289 0.3151 0.80797 0.0
C1898 C 0.88972 0.31088 0.82012 0.0
C1899 C 0.89492 0.30505 0.83791 0.0
C1900 C 0.8708 0.3134 0.81526 0.0
C1901 C 0.89817 0.32107 0.7885 0.0
C1902 C 0.86761 0.33109 0.81417 0.0
C1903 C 0.84999 0.33386 0.81142 0.0
C1904 C 0.83496 0.31903 0.80946 0.0
C1905 C 0.83809 0.30124 0.81007 0.0
C1906 C 0.85579 0.29848 0.8131 0.0
H1907 H 0.9082 0.31922 0.77878 0.0
H1908 H 0.88466 0.31319 0.78095 0.0
H1909 H 0.8979 0.33593 0.79091 0.0
H1910 H 0.8788 0.34293 0.81616 0.0
H1911 H 0.84814 0.34779 0.8113 0.0
H1912 H 0.50016 0.24924 0.65304 0.0
H1913 H 0.49514 0.21915 0.63188 0.0
H1914 H 0.53614 0.20417 0.67092 0.0
H1915 H 0.54098 0.23403 0.69198 0.0
H1916 H 0.51996 0.20732 0.61252 0.0
H1917 H 0.49743 0.15712 0.66053 0.0
H1918 H 0.49744 0.1813 0.66621 0.0
H1919 H 0.51779 0.17336 0.67195 0.0
C1920 C 0.50755 0.23917 0.65742 0.0
C1921 C 0.52061 0.24366 0.67435 0.0
C1922 C 0.50483 0.22209 0.64525 0.0
C1923 C 0.51509 0.20923 0.6499 0.0
C1924 C 0.52773 0.21358 0.66722 0.0
H1925 H 0.54792 0.12801 0.57094 0.0
H1926 H 0.54448 0.15594 0.59098 0.0
C1927 C 0.53048 0.23064 0.67928 0.0
C1928 C 0.51397 0.1921 0.63589 0.0
H1929 H 0.50978 0.14552 0.63291 0.0
C1930 C 0.51749 0.19376 0.61689 0.0
C1931 C 0.51052 0.17435 0.64142 0.0
C1932 C 0.50539 0.17138 0.66107 0.0
C1933 C 0.51828 0.17831 0.60355 0.0
C1934 C 0.516 0.16071 0.60953 0.0
C1935 C 0.51182 0.15898 0.62831 0.0
C1936 C 0.51795 0.14391 0.5967 0.0
C1937 C 0.5214 0.18109 0.58315 0.0
C1938 C 0.50448 0.12757 0.5936 0.0
C1939 C 0.50665 0.11146 0.58255 0.0
C1940 C 0.52226 0.11133 0.57414 0.0
C1941 C 0.53563 0.12773 0.57698 0.0
C1942 C 0.5336 0.14377 0.58835 0.0
H1943 H 0.51675 0.19336 0.57896 0.0
H1944 H 0.53602 0.1835 0.58262 0.0
H1945 H 0.51433 0.16884 0.57219 0.0
H1946 H 0.49229 0.12722 0.59985 0.0
H1947 H 0.49606 0.09906 0.58061 0.0
H1948 H 0.61083 0.82256 0.40054 0.0
H1949 H 0.63859 0.8219 0.38764 0.0
H1950 H 0.61001 0.81521 0.32892 0.0
H1951 H 0.58186 0.81603 0.34188 0.0
H1952 H 0.64782 0.7949 0.36388 0.0
H1953 H 0.65267 0.8572 0.32786 0.0
H1954 H 0.63726 0.85201 0.34479 0.0
H1955 H 0.63209 0.83998 0.32007 0.0
C1956 C 0.61029 0.82102 0.38483 0.0
C1957 C 0.59386 0.81942 0.37233 0.0
C1958 C 0.62634 0.82062 0.37744 0.0
C1959 C 0.62673 0.81874 0.35725 0.0
C1960 C 0.61035 0.81706 0.3446 0.0
H1961 H 0.71752 0.81663 0.292 0.0
H1962 H 0.68818 0.81708 0.3018 0.0
C1963 C 0.59415 0.81741 0.35203 0.0
C1964 C 0.64424 0.81811 0.34981 0.0
H1965 H 0.67501 0.84018 0.32428 0.0
C1966 C 0.65372 0.80483 0.3552 0.0
C1967 C 0.65213 0.83094 0.33839 0.0
C1968 C 0.64314 0.84596 0.33253 0.0
C1969 C 0.67053 0.80392 0.3495 0.0
C1970 C 0.67866 0.81702 0.33845 0.0
C1971 C 0.66905 0.83015 0.3328 0.0
C1972 C 0.69698 0.81728 0.33258 0.0
C1973 C 0.67913 0.78853 0.35502 0.0
C1974 C 0.71218 0.81769 0.34649 0.0
C1975 C 0.72904 0.81727 0.34085 0.0
C1976 C 0.73141 0.81677 0.32113 0.0
C1977 C 0.71636 0.81702 0.30732 0.0
C1978 C 0.69946 0.81726 0.31294 0.0
H1979 H 0.66897 0.77659 0.35758 0.0
H1980 H 0.68645 0.7836 0.34349 0.0
H1981 H 0.68882 0.79362 0.36882 0.0
H1982 H 0.71107 0.81837 0.36183 0.0
H1983 H 0.74025 0.81736 0.352 0.0
H1984 H 0.08621 0.29887 0.49528 0.0
H1985 H 0.07653 0.2667 0.50027 0.0
H1986 H 0.02776 0.27849 0.5176 0.0
H1987 H 0.03755 0.31041 0.51358 0.0
H1988 H 0.04194 0.25895 0.54133 0.0
H1989 H 0.03895 0.22665 0.46452 0.0
H1990 H 0.0607 0.24041 0.47575 0.0
H1991 H 0.04203 0.25125 0.4716 0.0
C1992 C 0.07353 0.29458 0.50034 0.0
C1993 C 0.06268 0.30718 0.50404 0.0
C1994 C 0.06792 0.27619 0.50295 0.0
C1995 C 0.05123 0.27016 0.50887 0.0
C1996 C 0.04064 0.28284 0.51294 0.0
H1997 H 0.99053 0.16752 0.53628 0.0
H1998 H 0.99801 0.19778 0.52564 0.0
C1999 C 0.04633 0.30114 0.51068 0.0
C2000 C 0.04471 0.25078 0.51138 0.0
H2001 H 0.03351 0.2063 0.48762 0.0
C2002 C 0.04001 0.24745 0.52955 0.0
C2003 C 0.04209 0.23585 0.49592 0.0
C2004 C 0.04604 0.23868 0.47579 0.0
C2005 C 0.03302 0.22956 0.53282 0.0
C2006 C 0.03059 0.21463 0.51745 0.0
C2007 C 0.03528 0.21788 0.49927 0.0
C2008 C 0.02469 0.19545 0.52067 0.0
C2009 C 0.02872 0.22675 0.55285 0.0
C2010 C 0.03691 0.18397 0.52046 0.0
C2011 C 0.03268 0.16681 0.52643 0.0
C2012 C 0.01612 0.16083 0.53264 0.0
C2013 C 1.00347 0.17193 0.5318 0.0
C2014 C 1.0077 0.18913 0.52572 0.0
H2015 H 0.03458 0.23923 0.564 0.0
H2016 H 0.01391 0.22358 0.55223 0.0
H2017 H 0.03381 0.21494 0.55768 0.0
H2018 H 0.05009 0.18868 0.51665 0.0
H2019 H 0.04279 0.15866 0.52714 0.0
H2020 H 0.53928 0.29418 0.17091 0.0
H2021 H 0.56916 0.30803 0.18988 0.0
H2022 H 0.57625 0.25403 0.19927 0.0
H2023 H 0.54636 0.24002 0.18054 0.0
H2024 H 0.57912 0.30196 0.23116 0.0
H2025 H 0.62354 0.28095 0.18028 0.0
H2026 H 0.60078 0.28278 0.17203 0.0
H2027 H 0.6048 0.2629 0.18229 0.0
C2028 C 0.54728 0.28521 0.1768 0.0
C2029 C 0.54044 0.26599 0.17432 0.0
C2030 C 0.56431 0.29317 0.18762 0.0
C2031 C 0.57483 0.28201 0.19578 0.0
C2032 C 0.56831 0.26281 0.19285 0.0
H2033 H 0.65071 0.27358 0.28508 0.0
H2034 H 0.62393 0.27855 0.26526 0.0
C2035 C 0.55123 0.25484 0.18223 0.0
C2036 C 0.59207 0.29028 0.2087 0.0
H2037 H 0.63631 0.28874 0.21432 0.0
C2038 C 0.59174 0.2995 0.22739 0.0
C2039 C 0.60846 0.28724 0.20356 0.0
C2040 C 0.60953 0.27807 0.18338 0.0
C2041 C 0.60723 0.30439 0.24166 0.0
C2042 C 0.62325 0.29988 0.237 0.0
C2043 C 0.62392 0.29209 0.21783 0.0
C2044 C 0.6386 0.30041 0.25221 0.0
C2045 C 0.60623 0.31353 0.26186 0.0
C2046 C 0.65554 0.31144 0.25176 0.0
C2047 C 0.67079 0.30873 0.26319 0.0
C2048 C 0.66926 0.2947 0.27487 0.0
C2049 C 0.65216 0.28447 0.2762 0.0
C2050 C 0.6369 0.28738 0.26499 0.0
H2051 H 0.59473 0.3204 0.26174 0.0
H2052 H 0.60439 0.30291 0.27159 0.0
H2053 H 0.61888 0.3239 0.26811 0.0
H2054 H 0.65707 0.32139 0.24178 0.0
H2055 H 0.68388 0.31664 0.26176 0.0
H2056 H 0.60819 0.90233 0.00376 0.0
H2057 H 0.60302 0.93098 0.0207 0.0
H2058 H 0.55178 0.90139 0.03112 0.0
H2059 H 0.55698 0.87276 0.01463 0.0
H2060 H 0.57493 0.9456 0.00716 0.0
H2061 H 0.57115 0.93438 0.0835 0.0
H2062 H 0.58087 0.92017 0.067 0.0
H2063 H 0.55685 0.91616 0.06566 0.0
C2064 C 0.59601 0.90185 0.01005 0.0
C2065 C 0.58295 0.88528 0.00774 0.0
C2066 C 0.59308 0.91823 0.01973 0.0
C2067 C 0.5771 0.9183 0.02737 0.0
C2068 C 0.56438 0.90162 0.02576 0.0
H2069 H 0.51521 0.99714 0.05869 0.0
H2070 H 0.52874 0.97025 0.0557 0.0
C2071 C 0.56732 0.88526 0.01614 0.0
C2072 C 0.57267 0.93602 0.03468 0.0
H2073 H 0.559 0.9593 0.07314 0.0
C2074 C 0.57175 0.94875 0.0217 0.0
C2075 C 0.56826 0.93994 0.05356 0.0
C2076 C 0.56948 0.92701 0.0683 0.0
C2077 C 0.56597 0.96501 0.02681 0.0
C2078 C 0.56145 0.96892 0.04566 0.0
C2079 C 0.5626 0.95633 0.05877 0.0
C2080 C 0.5546 0.98559 0.05141 0.0
C2081 C 0.564 0.97743 0.0116 0.0
C2082 C 0.56498 1.00324 0.05109 0.0
C2083 C 0.55723 0.01856 0.05255 0.0
C2084 C 0.53908 0.01649 0.05472 0.0
C2085 C 0.52922 0.99912 0.05699 0.0
C2086 C 0.53693 0.98375 0.05526 0.0
H2087 H 0.56371 0.97021 0.9966 0.0
H2088 H 0.55151 0.98263 0.01182 0.0
H2089 H 0.57562 0.98948 0.01476 0.0
H2090 H 0.57878 0.00502 0.04861 0.0
H2091 H 0.56516 0.03183 0.05092 0.0
H2092 H 0.94431 0.78114 0.67136 0.0
H2093 H 0.92736 0.79124 0.69639 0.0
H2094 H 0.9275 0.74108 0.72044 0.0
H2095 H 0.94425 0.73073 0.69552 0.0
H2096 H 0.89213 0.7683 0.71045 0.0
H2097 H 0.95669 0.79034 0.76279 0.0
H2098 H 0.95597 0.78868 0.73666 0.0
H2099 H 0.95184 0.76809 0.74747 0.0
C2100 C 0.94037 0.77205 0.68167 0.0
C2101 C 0.9458 0.75523 0.68157 0.0
C2102 C 0.93073 0.77786 0.69595 0.0
C2103 C 0.92645 0.76695 0.71028 0.0
C2104 C 0.93082 0.74967 0.7095 0.0
H2105 H 0.86429 0.78448 0.80309 0.0
H2106 H 0.87924 0.7706 0.77833 0.0
C2107 C 0.94036 0.74381 0.69521 0.0
C2108 C 0.91881 0.77426 0.72701 0.0
H2109 H 0.93039 0.79446 0.77488 0.0
C2110 C 0.90041 0.77399 0.72457 0.0
C2111 C 0.9298 0.78169 0.74528 0.0
C2112 C 0.94971 0.78237 0.74836 0.0
C2113 C 0.89264 0.78105 0.74008 0.0
C2114 C 0.90363 0.78842 0.75843 0.0
C2115 C 0.92205 0.78872 0.76081 0.0
C2116 C 0.89626 0.79644 0.77512 0.0
C2117 C 0.87284 0.7809 0.73663 0.0
C2118 C 0.90163 0.81543 0.78219 0.0
C2119 C 0.89327 0.82342 0.79654 0.0
C2120 C 0.87949 0.81249 0.80408 0.0
C2121 C 0.87498 0.79327 0.79777 0.0
C2122 C 0.88332 0.78533 0.78343 0.0
H2123 H 0.86721 0.77845 0.7208 0.0
H2124 H 0.86545 0.76968 0.74341 0.0
H2125 H 0.87037 0.79417 0.74345 0.0
H2126 H 0.91176 0.82418 0.77604 0.0
H2127 H 0.89715 0.83822 0.80124 0.0
H2128 H 0.12635 0.01507 0.86525 0.0
H2129 H 0.10911 0.01446 0.89276 0.0
H2130 H 0.12943 0.07308 0.90992 0.0
H2131 H 0.14616 0.07374 0.88258 0.0
H2132 H 0.11585 0.02476 0.93431 0.0
H2133 H 0.07593 0.07016 0.90207 0.0
H2134 H 0.09053 0.05929 0.88873 0.0
H2135 H 0.09961 0.08014 0.90606 0.0
C2136 C 0.12758 0.02772 0.87524 0.0
C2137 C 0.13799 0.04443 0.87166 0.0
C2138 C 0.1175 0.02742 0.89096 0.0
C2139 C 0.11739 0.04383 0.90346 0.0
C2140 C 0.12866 0.06023 0.90046 0.0
H2141 H 0.06967 0.08816 0.99908 0.0
H2142 H 0.08428 0.08075 0.97134 0.0
C2143 C 0.13854 0.06055 0.88484 0.0
C2144 C 0.10518 0.04431 0.91903 0.0
H2145 H 0.07363 0.06659 0.93506 0.0
C2146 C 0.10648 0.03377 0.93431 0.0
C2147 C 0.09268 0.05591 0.91935 0.0
C2148 C 0.08943 0.06688 0.90308 0.0
C2149 C 0.09655 0.03523 0.9501 0.0
C2150 C 0.08448 0.04734 0.95072 0.0
C2151 C 0.0828 0.05736 0.93504 0.0
C2152 C 0.07463 0.05115 0.96798 0.0
C2153 C 0.09975 0.02436 0.96644 0.0
C2154 C 0.06364 0.03716 0.97579 0.0
C2155 C 0.05502 0.04147 0.9921 0.0
C2156 C 0.05704 0.05993 0.00104 0.0
C2157 C 0.0676 0.07376 0.99279 0.0
C2158 C 0.07611 0.0695 0.97671 0.0
H2159 H 0.11238 0.01937 0.96633 0.0
H2160 H 0.10047 0.03282 0.98089 0.0
H2161 H 0.08844 0.01213 0.96468 0.0
H2162 H 0.06166 0.02285 0.96931 0.0
H2163 H 0.04719 0.03035 0.99797 0.0
H2164 H 0.72543 0.34561 0.59347 0.0
H2165 H 0.73042 0.33577 0.62527 0.0
H2166 H 0.72955 0.39006 0.65372 0.0
H2167 H 0.72464 0.40007 0.62159 0.0
H2168 H 0.76048 0.37868 0.66665 0.0
H2169 H 0.70127 0.32299 0.66774 0.0
H2170 H 0.71088 0.31964 0.64589 0.0
H2171 H 0.7011 0.33927 0.65079 0.0
C2172 C 0.72561 0.35528 0.60647 0.0
C2173 C 0.72449 0.37358 0.605 0.0
C2174 C 0.72846 0.34961 0.6247 0.0
C2175 C 0.73027 0.36209 0.64199 0.0
C2176 C 0.7281 0.38013 0.64059 0.0
H2177 H 0.77056 0.35444 0.7629 0.0
H2178 H 0.75964 0.3647 0.73282 0.0
C2179 C 0.72508 0.38579 0.62222 0.0
C2180 C 0.73659 0.35682 0.66118 0.0
H2181 H 0.72789 0.32367 0.69026 0.0
C2182 C 0.75321 0.36681 0.67196 0.0
C2183 C 0.72728 0.34117 0.66802 0.0
C2184 C 0.70906 0.33025 0.6576 0.0
C2185 C 0.761 0.3613 0.68899 0.0
C2186 C 0.75179 0.34552 0.6957 0.0
C2187 C 0.73505 0.33567 0.68507 0.0
C2188 C 0.75909 0.33929 0.71396 0.0
C2189 C 0.77933 0.3721 0.69925 0.0
C2190 C 0.76227 0.32142 0.71357 0.0
C2191 C 0.76851 0.3154 0.7309 0.0
C2192 C 0.77156 0.32708 0.74904 0.0
C2193 C 0.76851 0.34503 0.74928 0.0
C2194 C 0.76231 0.351 0.73201 0.0
H2195 H 0.78668 0.38026 0.68942 0.0
H2196 H 0.77772 0.3819 0.71186 0.0
H2197 H 0.78764 0.36281 0.70486 0.0
H2198 H 0.75982 0.31208 0.69983 0.0
H2199 H 0.77054 0.30146 0.73012 0.0
H2200 H 0.49112 0.11568 0.34636 0.0
H2201 H 0.49988 0.11252 0.38047 0.0
H2202 H 0.44803 0.11945 0.39272 0.0
H2203 H 0.43917 0.1227 0.35839 0.0
H2204 H 0.50033 0.13377 0.41904 0.0
H2205 H 0.45101 0.06608 0.40285 0.0
H2206 H 0.4584 0.07848 0.38379 0.0
H2207 H 0.44249 0.08591 0.39777 0.0
C2208 C 0.48178 0.11717 0.35646 0.0
C2209 C 0.46444 0.11948 0.34964 0.0
C2210 C 0.4868 0.11528 0.37597 0.0
C2211 C 0.47454 0.11541 0.38913 0.0
C2212 C 0.45767 0.11911 0.38278 0.0
H2213 H 0.47341 0.07323 0.49956 0.0
H2214 H 0.46677 0.08663 0.47014 0.0
C2215 C 0.45269 0.12121 0.36321 0.0
C2216 C 0.47885 0.10979 0.40867 0.0
H2217 H 0.46793 0.07432 0.43435 0.0
C2218 C 0.49317 0.12085 0.42249 0.0
C2219 C 0.46966 0.09282 0.41311 0.0
C2220 C 0.45461 0.08 0.39861 0.0
C2221 C 0.49831 0.11557 0.44073 0.0
C2222 C 0.48925 0.09845 0.44509 0.0
C2223 C 0.47492 0.08745 0.43118 0.0
C2224 C 0.49403 0.09164 0.46397 0.0
C2225 C 0.51313 0.12864 0.45526 0.0
C2226 C 0.51166 0.09001 0.47068 0.0
C2227 C 0.51557 0.0826 0.48786 0.0
C2228 C 0.50185 0.07626 0.49842 0.0
C2229 C 0.4843 0.07795 0.49174 0.0
C2230 C 0.48047 0.0856 0.47485 0.0
H2231 H 0.51466 0.14308 0.45238 0.0
H2232 H 0.51057 0.12824 0.47048 0.0
H2233 H 0.52606 0.12459 0.45398 0.0
H2234 H 0.52233 0.09402 0.46238 0.0
H2235 H 0.52918 0.0813 0.49254 0.0
H2236 H 0.74318 0.70746 0.02896 0.0
H2237 H 0.7553 0.72737 0.0604 0.0
H2238 H 0.79649 0.69676 0.07041 0.0
H2239 H 0.78465 0.6769 0.03894 0.0
H2240 H 0.75779 0.71357 0.09623 0.0
H2241 H 0.82445 0.75146 0.08381 0.0
H2242 H 0.80658 0.73993 0.06395 0.0
H2243 H 0.81946 0.72673 0.0773 0.0
C2244 C 0.75491 0.70506 0.03775 0.0
C2245 C 0.7629 0.69057 0.03149 0.0
C2246 C 0.76184 0.71647 0.05565 0.0
C2247 C 0.7769 0.71363 0.06751 0.0
C2248 C 0.78508 0.69937 0.06123 0.0
H2249 H 0.80165 0.75382 0.19193 0.0
H2250 H 0.80343 0.73678 0.16021 0.0
C2251 C 0.77818 0.68796 0.04332 0.0
C2252 C 0.78296 0.72457 0.08721 0.0
H2253 H 0.81767 0.75663 0.11594 0.0
C2254 C 0.77089 0.72295 0.10057 0.0
C2255 C 0.80012 0.73666 0.09273 0.0
C2256 C 0.81341 0.73897 0.0787 0.0
C2257 C 0.7754 0.73334 0.1193 0.0
C2258 C 0.79245 0.74556 0.12479 0.0
C2259 C 0.80468 0.74708 0.11158 0.0
C2260 C 0.79685 0.75775 0.14378 0.0
C2261 C 0.76175 0.73153 0.13302 0.0
C2262 C 0.79343 0.77547 0.14492 0.0
C2263 C 0.79211 0.78509 0.16291 0.0
C2264 C 0.79423 0.77706 0.17995 0.0
C2265 C 0.79956 0.76014 0.17895 0.0
C2266 C 0.80079 0.75049 0.16093 0.0
H2267 H 0.74855 0.72257 0.12585 0.0
H2268 H 0.76686 0.72551 0.14576 0.0
H2269 H 0.75966 0.74534 0.13865 0.0
H2270 H 0.79024 0.78115 0.13172 0.0
H2271 H 0.78794 0.79806 0.16318 0.0
H2272 H 0.1553 0.04445 0.75109 0.0
H2273 H 0.14017 0.04407 0.71774 0.0
H2274 H 0.08977 0.01774 0.73305 0.0
H2275 H 0.10468 0.01935 0.76662 0.0
H2276 H 0.12241 0.02223 0.68713 0.0
H2277 H 0.07383 0.05982 0.71467 0.0
H2278 H 0.09233 0.05562 0.73074 0.0
H2279 H 0.07179 0.03807 0.7232 0.0
C2280 C 0.14107 0.03816 0.74718 0.0
C2281 C 0.13126 0.03176 0.76153 0.0
C2282 C 0.13233 0.03809 0.72807 0.0
C2283 C 0.11354 0.03149 0.72273 0.0
C2284 C 0.10406 0.02369 0.73672 0.0
H2285 H 0.05945 0.01556 0.59897 0.0
H2286 H 0.07502 0.01124 0.63041 0.0
C2287 C 0.11269 0.02422 0.75591 0.0
C2288 C 0.10384 0.03335 0.70297 0.0
H2289 H 0.0677 0.04762 0.68083 0.0
C2290 C 0.11048 0.02786 0.68583 0.0
C2291 C 0.08843 0.04111 0.7009 0.0
C2292 C 0.08131 0.04918 0.71837 0.0
C2293 C 0.10221 0.02969 0.66703 0.0
C2294 C 0.08625 0.03654 0.66491 0.0
C2295 C 0.07971 0.04213 0.68208 0.0
C2296 C 0.07647 0.03883 0.64535 0.0
C2297 C 0.11118 0.02486 0.64976 0.0
C2298 C 0.07114 0.05544 0.643 0.0
C2299 C 0.06168 0.05771 0.62514 0.0
C2300 C 0.05738 0.04353 0.60883 0.0
C2301 C 0.06267 0.02688 0.61108 0.0
C2302 C 0.07181 0.02447 0.62913 0.0
H2303 H 0.12578 0.02587 0.65433 0.0
H2304 H 0.10504 0.01039 0.6428 0.0
H2305 H 0.1096 0.03407 0.6387 0.0
H2306 H 0.07439 0.06684 0.65503 0.0
H2307 H 0.05795 0.07076 0.62406 0.0
H2308 H 0.72567 0.3999 0.48785 0.0
H2309 H 0.73012 0.38852 0.45459 0.0
H2310 H 0.7274 0.33413 0.46974 0.0
H2311 H 0.72311 0.34544 0.50275 0.0
H2312 H 0.76011 0.37418 0.44803 0.0
H2313 H 0.6977 0.32255 0.41474 0.0
H2314 H 0.69861 0.34001 0.43545 0.0
H2315 H 0.70635 0.31939 0.43892 0.0
C2316 C 0.7252 0.38535 0.48376 0.0
C2317 C 0.72372 0.37349 0.4978 0.0
C2318 C 0.72797 0.37888 0.46483 0.0
C2319 C 0.72899 0.36039 0.45952 0.0
C2320 C 0.72634 0.34833 0.47323 0.0
H2321 H 0.79281 0.31466 0.38091 0.0
H2322 H 0.77939 0.32588 0.40867 0.0
C2323 C 0.72383 0.35482 0.49213 0.0
C2324 C 0.73494 0.35408 0.44077 0.0
H2325 H 0.72402 0.3204 0.40039 0.0
C2326 C 0.7521 0.36257 0.4375 0.0
C2327 C 0.72454 0.33896 0.4269 0.0
C2328 C 0.7057 0.32979 0.42904 0.0
C2329 C 0.75936 0.35599 0.42123 0.0
C2330 C 0.74933 0.34028 0.40788 0.0
C2331 C 0.73188 0.33224 0.41072 0.0
C2332 C 0.75678 0.33209 0.39095 0.0
C2333 C 0.77774 0.36601 0.41847 0.0
C2334 C 0.74816 0.33097 0.37165 0.0
C2335 C 0.75574 0.32438 0.35573 0.0
C2336 C 0.77209 0.31867 0.35873 0.0
C2337 C 0.78028 0.31903 0.37805 0.0
C2338 C 0.77268 0.32561 0.39396 0.0
H2339 H 0.78139 0.38038 0.42652 0.0
H2340 H 0.78793 0.35864 0.42421 0.0
H2341 H 0.7784 0.36646 0.40275 0.0
H2342 H 0.73582 0.33572 0.36888 0.0
H2343 H 0.74905 0.32427 0.34105 0.0
H2344 H 0.46895 0.08279 0.23938 0.0
H2345 H 0.47894 0.08249 0.20805 0.0
H2346 H 0.4638 0.13406 0.2022 0.0
H2347 H 0.45311 0.13432 0.2341 0.0
H2348 H 0.45426 0.1081 0.16715 0.0
H2349 H 0.52525 0.11397 0.19812 0.0
H2350 H 0.51092 0.09563 0.20656 0.0
H2351 H 0.50892 0.1191 0.21305 0.0
C2352 C 0.46778 0.09427 0.23169 0.0
C2353 C 0.46046 0.1088 0.2396 0.0
C2354 C 0.4736 0.09405 0.21366 0.0
C2355 C 0.47264 0.10847 0.20293 0.0
C2356 C 0.4649 0.12287 0.21035 0.0
H2357 H 0.53274 0.10113 0.10467 0.0
H2358 H 0.52211 0.11286 0.13424 0.0
C2359 C 0.45884 0.12303 0.22858 0.0
C2360 C 0.47969 0.10786 0.184 0.0
H2361 H 0.51616 0.0996 0.16434 0.0
C2362 C 0.4679 0.10662 0.16649 0.0
C2363 C 0.4976 0.10629 0.18305 0.0
C2364 C 0.51145 0.10903 0.20123 0.0
C2365 C 0.47323 0.10274 0.14812 0.0
C2366 C 0.49064 0.09939 0.14721 0.0
C2367 C 0.50271 0.10177 0.16479 0.0
C2368 C 0.49658 0.0929 0.12845 0.0
C2369 C 0.46007 0.10236 0.12996 0.0
C2370 C 0.48597 0.07762 0.11521 0.0
C2371 C 0.49189 0.07115 0.09806 0.0
C2372 C 0.50886 0.07938 0.09401 0.0
C2373 C 0.51966 0.09438 0.10742 0.0
C2374 C 0.51354 0.10114 0.12433 0.0
H2375 H 0.45091 0.11173 0.13285 0.0
H2376 H 0.46706 0.10648 0.11776 0.0
H2377 H 0.45161 0.08818 0.12533 0.0
H2378 H 0.47318 0.07044 0.11825 0.0
H2379 H 0.4833 0.05946 0.08811 0.0
H2380 H 0.73715 0.66228 0.91181 0.0
H2381 H 0.74373 0.6858 0.89099 0.0
H2382 H 0.79449 0.70959 0.9286 0.0
H2383 H 0.78808 0.68571 0.94932 0.0
H2384 H 0.7496 0.72369 0.91531 0.0
H2385 H 0.80247 0.71527 0.86963 0.0
H2386 H 0.78799 0.69545 0.87602 0.0
H2387 H 0.80494 0.71048 0.89439 0.0
C2388 C 0.75015 0.67189 0.91498 0.0
C2389 C 0.76214 0.67228 0.93205 0.0
C2390 C 0.75384 0.68537 0.90318 0.0
C2391 C 0.76949 0.69944 0.90843 0.0
C2392 C 0.78242 0.69869 0.92428 0.0
H2393 H 0.788 0.79488 0.84859 0.0
H2394 H 0.79178 0.7763 0.87443 0.0
C2395 C 0.77881 0.685 0.936 0.0
C2396 C 0.77025 0.71646 0.89983 0.0
H2397 H 0.78827 0.73989 0.86588 0.0
C2398 C 0.75818 0.7274 0.90463 0.0
C2399 C 0.78174 0.72137 0.88634 0.0
C2400 C 0.79506 0.7101 0.88116 0.0
C2401 C 0.75669 0.74273 0.89554 0.0
C2402 C 0.76728 0.74693 0.88098 0.0
C2403 C 0.78009 0.73658 0.87699 0.0
C2404 C 0.76416 0.76076 0.86839 0.0
C2405 C 0.74362 0.75407 0.90145 0.0
C2406 C 0.7472 0.75874 0.85701 0.0
C2407 C 0.74499 0.76958 0.84243 0.0
C2408 C 0.75982 0.78227 0.83875 0.0
C2409 C 0.77643 0.78516 0.85105 0.0
C2410 C 0.7786 0.7745 0.86577 0.0
H2411 H 0.74179 0.75352 0.91689 0.0
H2412 H 0.74816 0.76873 0.89969 0.0
H2413 H 0.7303 0.74834 0.89213 0.0
H2414 H 0.73595 0.74796 0.85849 0.0
H2415 H 0.73205 0.76693 0.83306 0.0
H2416 H 0.89126 0.17872 0.06922 0.0
H2417 H 0.91382 0.15978 0.06823 0.0
H2418 H 0.897 0.14366 0.00602 0.0
H2419 H 0.87464 0.1625 0.00684 0.0
H2420 H 0.90998 0.12145 0.05559 0.0
H2421 H 0.95137 0.16264 0.01049 0.0
H2422 H 0.93457 0.17106 0.02248 0.0
H2423 H 0.92801 0.15507 0.99994 0.0
C2424 C 0.8924 0.17121 0.05531 0.0
C2425 C 0.8811 0.17232 0.03811 0.0
C2426 C 0.9053 0.1603 0.05477 0.0
C2427 C 0.90738 0.1504 0.03699 0.0
C2428 C 0.89599 0.15137 0.01988 0.0
H2429 H 0.9678 0.06142 0.02579 0.0
H2430 H 0.9437 0.07855 0.0243 0.0
C2431 C 0.88309 0.16215 0.02042 0.0
C2432 C 0.92133 0.13902 0.03622 0.0
H2433 H 0.95837 0.13406 0.01553 0.0
C2434 C 0.92057 0.12422 0.04685 0.0
C2435 C 0.93532 0.14263 0.02495 0.0
C2436 C 0.93754 0.15881 0.01395 0.0
C2437 C 0.93322 0.11294 0.0464 0.0
C2438 C 0.94697 0.1163 0.03476 0.0
C2439 C 0.94777 0.1312 0.02426 0.0
C2440 C 0.96145 0.10549 0.03437 0.0
C2441 C 0.93201 0.09785 0.05887 0.0
C2442 C 0.97959 0.11481 0.03961 0.0
C2443 C 0.99334 0.1051 0.04019 0.0
C2444 C 0.98949 0.08566 0.03548 0.0
C2445 C 0.97135 0.07632 0.0295 0.0
C2446 C 0.95751 0.08613 0.0289 0.0
H2447 H 0.92368 0.09996 0.07044 0.0
H2448 H 0.92568 0.08439 0.0495 0.0
H2449 H 0.94558 0.0971 0.06594 0.0
H2450 H 0.98315 0.12968 0.04378 0.0
H2451 H 1.00707 0.11292 0.04482 0.0
H2452 H 0.36981 0.51355 0.14556 0.0
H2453 H 0.3972 0.53186 0.13743 0.0
H2454 H 0.37163 0.52404 0.07717 0.0
H2455 H 0.34395 0.50695 0.08568 0.0
H2456 H 0.41392 0.51378 0.11591 0.0
H2457 H 0.40397 0.57277 0.07928 0.0
H2458 H 0.38788 0.56202 0.09332 0.0
H2459 H 0.38728 0.55247 0.06814 0.0
C2460 C 0.36978 0.51675 0.13086 0.0
C2461 C 0.35488 0.50905 0.11624 0.0
C2462 C 0.38544 0.52709 0.12617 0.0
C2463 C 0.38658 0.5293 0.10665 0.0
C2464 C 0.37107 0.52299 0.0924 0.0
H2465 H 0.46889 0.52063 0.03768 0.0
H2466 H 0.4408 0.5216 0.05044 0.0
C2467 C 0.35522 0.51313 0.09724 0.0
C2468 C 0.40452 0.53416 0.1006 0.0
H2469 H 0.42822 0.55843 0.0705 0.0
C2470 C 0.41714 0.5239 0.10638 0.0
C2471 C 0.40873 0.54716 0.08792 0.0
C2472 C 0.39627 0.55934 0.08199 0.0
C2473 C 0.43348 0.52579 0.09934 0.0
C2474 C 0.43732 0.53817 0.08607 0.0
C2475 C 0.42506 0.54884 0.0806 0.0
C2476 C 0.45389 0.53956 0.07742 0.0
C2477 C 0.44636 0.5141 0.10558 0.0
C2478 C 0.47038 0.54942 0.08841 0.0
C2479 C 0.48636 0.54878 0.08126 0.0
C2480 C 0.48605 0.53824 0.06304 0.0
C2481 C 0.46947 0.52875 0.05183 0.0
C2482 C 0.45347 0.52943 0.05899 0.0
H2483 H 0.44078 0.50417 0.11495 0.0
H2484 H 0.44974 0.50627 0.09252 0.0
H2485 H 0.45907 0.52316 0.11388 0.0
H2486 H 0.47089 0.55718 0.10274 0.0
H2487 H 0.49898 0.55629 0.09016 0.0
H2488 H 0.4019 0.65232 0.80015 0.0
H2489 H 0.38654 0.67763 0.80281 0.0
H2490 H 0.3354 0.63886 0.78661 0.0
H2491 H 0.35092 0.61309 0.78415 0.0
H2492 H 0.36633 0.69164 0.77836 0.0
H2493 H 0.32377 0.66909 0.83262 0.0
H2494 H 0.34156 0.65808 0.82669 0.0
H2495 H 0.32021 0.65257 0.81071 0.0
C2496 C 0.38734 0.6489 0.79716 0.0
C2497 C 0.37789 0.63018 0.79197 0.0
C2498 C 0.37845 0.66368 0.79868 0.0
C2499 C 0.35954 0.66071 0.79529 0.0
C2500 C 0.34993 0.64201 0.78988 0.0
H2501 H 0.28638 0.73978 0.8012 0.0
H2502 H 0.29937 0.71245 0.79766 0.0
C2503 C 0.3589 0.62707 0.78826 0.0
C2504 C 0.35039 0.67725 0.7971 0.0
H2505 H 0.31924 0.69572 0.8196 0.0
C2506 C 0.35606 0.6924 0.78746 0.0
C2507 C 0.3368 0.67882 0.80884 0.0
C2508 C 0.3303 0.66389 0.82047 0.0
C2509 C 0.34866 0.70841 0.78895 0.0
C2510 C 0.33528 0.71015 0.80095 0.0
C2511 C 0.32944 0.69491 0.81042 0.0
C2512 C 0.32721 0.7274 0.80372 0.0
C2513 C 0.35501 0.72311 0.77697 0.0
C2514 C 0.3381 0.74553 0.80884 0.0
C2515 C 0.33059 0.76138 0.81085 0.0
C2516 C 0.31177 0.75995 0.80811 0.0
C2517 C 0.30088 0.7418 0.80351 0.0
C2518 C 0.3084 0.72595 0.80145 0.0
H2519 H 0.36033 0.71736 0.76409 0.0
H2520 H 0.344 0.7297 0.77172 0.0
H2521 H 0.36609 0.73389 0.78611 0.0
H2522 H 0.35258 0.74755 0.81141 0.0
H2523 H 0.33965 0.77488 0.81446 0.0
H2524 H 0.27174 0.68974 0.52859 0.0
H2525 H 0.24521 0.66517 0.52669 0.0
H2526 H 0.27836 0.63056 0.55011 0.0
H2527 H 0.3053 0.65542 0.55228 0.0
H2528 H 0.23488 0.6277 0.50833 0.0
H2529 H 0.24347 0.63576 0.58974 0.0
H2530 H 0.25593 0.65252 0.57732 0.0
H2531 H 0.2618 0.63063 0.57817 0.0
C2532 C 0.2735 0.67686 0.53318 0.0
C2533 C 0.29061 0.67463 0.54089 0.0
C2534 C 0.25829 0.66278 0.53197 0.0
C2535 C 0.25979 0.64616 0.53851 0.0
C2536 C 0.27693 0.64341 0.54523 0.0
H2537 H 0.16187 0.5756 0.56372 0.0
H2538 H 0.19293 0.58405 0.55757 0.0
C2539 C 0.29228 0.65756 0.54638 0.0
C2540 C 0.2431 0.63267 0.53959 0.0
H2541 H 0.21613 0.61807 0.57219 0.0
C2542 C 0.2309 0.62523 0.52226 0.0
C2543 C 0.23795 0.6295 0.55779 0.0
C2544 C 0.25036 0.63755 0.57688 0.0
C2545 C 0.21336 0.6155 0.52272 0.0
C2546 C 0.20785 0.61341 0.54098 0.0
C2547 C 0.22041 0.61974 0.55821 0.0
C2548 C 0.18872 0.60683 0.54274 0.0
C2549 C 0.20071 0.60809 0.50368 0.0
C2550 C 0.1761 0.61684 0.53644 0.0
C2551 C 0.15846 0.6121 0.53996 0.0
C2552 C 0.15307 0.5973 0.54995 0.0
C2553 C 0.1656 0.58698 0.55584 0.0
C2554 C 0.18333 0.5918 0.55239 0.0
H2555 H 0.2082 0.60525 0.4915 0.0
H2556 H 0.191 0.59521 0.50473 0.0
H2557 H 0.19303 0.61854 0.49999 0.0
H2558 H 0.18006 0.62873 0.52935 0.0
H2559 H 0.14906 0.6202 0.53509 0.0
H2560 H 0.67091 0.9613 0.83902 0.0
H2561 H 0.68853 0.93764 0.83777 0.0
H2562 H 0.66886 0.92156 0.77598 0.0
H2563 H 0.65139 0.9455 0.77704 0.0
H2564 H 0.6789 0.90051 0.8283 0.0
H2565 H 0.72244 0.92855 0.77701 0.0
H2566 H 0.70824 0.9415 0.78855 0.0
H2567 H 0.69891 0.92417 0.76738 0.0
C2568 C 0.67034 0.95281 0.8251 0.0
C2569 C 0.65976 0.95547 0.80809 0.0
C2570 C 0.68044 0.9392 0.82444 0.0
C2571 C 0.68034 0.92791 0.80674 0.0
C2572 C 0.66956 0.93032 0.78976 0.0
H2573 H 0.72311 0.83144 0.77588 0.0
H2574 H 0.70568 0.8552 0.77841 0.0
C2575 C 0.65945 0.94397 0.79041 0.0
C2576 C 0.69133 0.91354 0.8062 0.0
H2577 H 0.72409 0.89863 0.78406 0.0
C2578 C 0.68881 0.90018 0.81865 0.0
C2579 C 0.7045 0.91312 0.79383 0.0
C2580 C 0.70886 0.9277 0.78108 0.0
C2581 C 0.69871 0.88628 0.81871 0.0
C2582 C 0.71152 0.88568 0.80603 0.0
C2583 C 0.71418 0.89906 0.7937 0.0
C2584 C 0.72204 0.87104 0.80506 0.0
C2585 C 0.69544 0.87229 0.83232 0.0
C2586 C 0.73706 0.87196 0.81928 0.0
C2587 C 0.74723 0.85839 0.81785 0.0
C2588 C 0.74252 0.84354 0.8022 0.0
C2589 C 0.72727 0.84262 0.78814 0.0
C2590 C 0.71723 0.85623 0.78952 0.0
H2591 H 0.68289 0.87242 0.83853 0.0
H2592 H 0.69466 0.85818 0.82463 0.0
H2593 H 0.70693 0.87546 0.84456 0.0
H2594 H 0.74104 0.88331 0.83138 0.0
H2595 H 0.75884 0.8596 0.82894 0.0
H2596 H 0.75516 0.99795 0.61668 0.0
H2597 H 0.72776 0.00723 0.604 0.0
H2598 H 0.74474 0.00811 0.54765 0.0
H2599 H 0.77231 0.99912 0.56026 0.0
H2600 H 0.73216 0.03885 0.56041 0.0
H2601 H 0.68425 0.9745 0.56677 0.0
H2602 H 0.69914 0.98498 0.58916 0.0
H2603 H 0.70814 0.97609 0.56841 0.0
C2604 C 0.7531 1.00017 0.60161 0.0
C2605 C 0.76589 0.99776 0.58946 0.0
C2606 C 0.73737 0.00531 0.59434 0.0
C2607 C 0.73408 0.00796 0.57478 0.0
C2608 C 0.74698 0.00596 0.56275 0.0
H2609 H 0.64638 0.0468 0.5112 0.0
H2610 H 0.67308 0.03422 0.51878 0.0
C2611 C 0.76274 1.00088 0.57 0.0
C2612 C 0.71741 0.01335 0.56704 0.0
H2613 H 0.67162 1.00012 0.56045 0.0
C2614 C 0.71891 0.03032 0.56022 0.0
C2615 C 0.70018 1.00211 0.56675 0.0
C2616 C 0.69777 0.98332 0.57298 0.0
C2617 C 0.70361 0.03676 0.55384 0.0
C2618 C 0.68637 0.02573 0.554 0.0
C2619 C 0.68487 0.00854 0.56038 0.0
C2620 C 0.66978 0.03232 0.5488 0.0
C2621 C 0.70604 0.05561 0.54774 0.0
C2622 C 0.65884 0.03485 0.56298 0.0
C2623 C 0.64361 0.04189 0.55867 0.0
C2624 C 0.639 0.04651 0.54006 0.0
C2625 C 0.64978 0.04362 0.52574 0.0
C2626 C 0.665 0.03645 0.53004 0.0
H2627 H 0.72001 0.0639 0.55255 0.0
H2628 H 0.70305 0.054 0.53156 0.0
H2629 H 0.69667 0.06339 0.55386 0.0
H2630 H 0.66231 0.03175 0.57754 0.0
H2631 H 0.63566 0.04413 0.57007 0.0
H2632 H 0.39118 0.49801 0.78031 0.0
H2633 H 0.37338 0.46834 0.78373 0.0
H2634 H 0.3287 0.49298 0.7928 0.0
H2635 H 0.34688 0.52353 0.78961 0.0
H2636 H 0.35803 0.45975 0.81794 0.0
H2637 H 0.30585 0.44452 0.75133 0.0
H2638 H 0.32699 0.46092 0.753 0.0
H2639 H 0.31015 0.46682 0.76646 0.0
C2640 C 0.37754 0.49743 0.78294 0.0
C2641 C 0.37073 0.51366 0.78474 0.0
C2642 C 0.36728 0.48016 0.78489 0.0
C2643 C 0.34954 0.47801 0.78853 0.0
C2644 C 0.34229 0.49398 0.78982 0.0
H2645 H 0.27867 0.3693 0.79916 0.0
H2646 H 0.28934 0.40195 0.7956 0.0
C2647 C 0.35273 0.51157 0.78797 0.0
C2648 C 0.33956 0.45918 0.79185 0.0
H2649 H 0.306 0.42117 0.7709 0.0
C2650 C 0.34654 0.45145 0.80769 0.0
C2651 C 0.32443 0.44806 0.77871 0.0
C2652 C 0.31634 0.45533 0.76132 0.0
C2653 C 0.33916 0.43324 0.81064 0.0
C2654 C 0.3246 0.42167 0.79695 0.0
C2655 C 0.3172 0.42963 0.78141 0.0
C2656 C 0.31756 0.4013 0.79824 0.0
C2657 C 0.34702 0.42678 0.82877 0.0
C2658 C 0.32948 0.38941 0.80034 0.0
C2659 C 0.32341 0.37086 0.80262 0.0
C2660 C 0.30506 0.36311 0.80245 0.0
C2661 C 0.2929 0.37465 0.79946 0.0
C2662 C 0.29905 0.39344 0.79741 0.0
H2663 H 0.35289 0.43859 0.84075 0.0
H2664 H 0.33674 0.41681 0.83414 0.0
H2665 H 0.35804 0.42001 0.8254 0.0
H2666 H 0.34368 0.39449 0.80028 0.0
H2667 H 0.33325 0.36249 0.80456 0.0
H2668 H 0.18079 0.53397 0.3051 0.0
H2669 H 0.20687 0.5601 0.30898 0.0
H2670 H 0.17164 0.59799 0.31175 0.0
H2671 H 0.14589 0.57237 0.3083 0.0
H2672 H 0.21281 0.58523 0.28422 0.0
H2673 H 0.21084 0.6224 0.35694 0.0
H2674 H 0.19877 0.59875 0.34864 0.0
H2675 H 0.18913 0.61754 0.34198 0.0
C2676 C 0.17869 0.5479 0.30685 0.0
C2677 C 0.16124 0.55104 0.30638 0.0
C2678 C 0.19358 0.5628 0.30907 0.0
C2679 C 0.19125 0.58104 0.31106 0.0
C2680 C 0.17388 0.58412 0.31083 0.0
H2681 H 0.23011 0.68822 0.29233 0.0
H2682 H 0.21535 0.65842 0.29976 0.0
C2683 C 0.15909 0.56936 0.30864 0.0
C2684 C 0.20647 0.59694 0.31149 0.0
H2685 H 0.22403 0.64131 0.33426 0.0
C2686 C 0.21567 0.59733 0.29542 0.0
C2687 C 0.21026 0.6127 0.32618 0.0
C2688 C 0.20184 0.61274 0.34449 0.0
C2689 C 0.22739 0.61355 0.29284 0.0
C2690 C 0.23004 0.62969 0.30677 0.0
C2691 C 0.22182 0.62895 0.3235 0.0
C2692 C 0.23955 0.64791 0.3031 0.0
C2693 C 0.23594 0.61367 0.27462 0.0
C2694 C 0.25811 0.65193 0.30272 0.0
C2695 C 0.2666 0.66897 0.29833 0.0
C2696 C 0.25663 0.68222 0.29421 0.0
C2697 C 0.23811 0.6782 0.29502 0.0
C2698 C 0.22968 0.66125 0.29946 0.0
H2699 H 0.23087 0.60057 0.26418 0.0
H2700 H 0.23333 0.6253 0.26711 0.0
H2701 H 0.25072 0.61572 0.2787 0.0
H2702 H 0.26598 0.64186 0.3057 0.0
H2703 H 0.28088 0.67164 0.29782 0.0
H2704 H 0.52143 0.77994 0.4493 0.0
H2705 H 0.52953 0.75695 0.46794 0.0
H2706 H 0.56528 0.74469 0.42805 0.0
H2707 H 0.55749 0.76847 0.40926 0.0
H2708 H 0.5242 0.72061 0.45677 0.0
H2709 H 0.59736 0.75065 0.48055 0.0
H2710 H 0.58229 0.76352 0.46973 0.0
H2711 H 0.58977 0.74633 0.45459 0.0
C2712 C 0.53107 0.77247 0.44435 0.0
C2713 C 0.53875 0.77609 0.42763 0.0
C2714 C 0.5357 0.75925 0.45513 0.0
C2715 C 0.54811 0.74909 0.44957 0.0
C2716 C 0.5559 0.75257 0.43288 0.0
H2717 H 0.57838 0.65987 0.508 0.0
H2718 H 0.57555 0.68155 0.48495 0.0
C2719 C 0.55136 0.76607 0.42205 0.0
C2720 C 0.55213 0.73465 0.46126 0.0
H2721 H 0.58534 0.72283 0.49137 0.0
C2722 C 0.53761 0.72106 0.46421 0.0
C2723 C 0.56962 0.73517 0.47102 0.0
C2724 C 0.58567 0.74976 0.469 0.0
C2725 C 0.53998 0.70836 0.47693 0.0
C2726 C 0.55735 0.70921 0.48709 0.0
C2727 C 0.57202 0.72228 0.48363 0.0
C2728 C 0.56029 0.69695 0.50179 0.0
C2729 C 0.52382 0.69421 0.47957 0.0
C2730 C 0.55304 0.6987 0.51916 0.0
C2731 C 0.55479 0.68647 0.53249 0.0
C2732 C 0.56381 0.67215 0.52875 0.0
C2733 C 0.57153 0.67082 0.51155 0.0
C2734 C 0.56985 0.68314 0.49827 0.0
H2735 H 0.51232 0.69262 0.46759 0.0
H2736 H 0.5272 0.68055 0.48019 0.0
H2737 H 0.51947 0.69865 0.49359 0.0
H2738 H 0.54585 0.70945 0.52231 0.0
H2739 H 0.54897 0.6882 0.54571 0.0
H2740 H 0.57516 0.27353 0.75106 0.0
H2741 H 0.60553 0.27355 0.7672 0.0
H2742 H 0.62138 0.33226 0.76817 0.0
H2743 H 0.59111 0.33217 0.75192 0.0
H2744 H 0.63576 0.28449 0.74901 0.0
H2745 H 0.64584 0.32654 0.82258 0.0
H2746 H 0.62376 0.31618 0.80868 0.0
H2747 H 0.63688 0.33684 0.80273 0.0
C2748 C 0.58482 0.28659 0.75569 0.0
C2749 C 0.58043 0.30297 0.75084 0.0
C2750 C 0.60233 0.28657 0.76465 0.0
C2751 C 0.61591 0.30294 0.76915 0.0
C2752 C 0.61122 0.31948 0.76533 0.0
H2753 H 0.73477 0.32468 0.80158 0.0
H2754 H 0.70347 0.32837 0.79506 0.0
C2755 C 0.59378 0.31946 0.75617 0.0
C2756 C 0.63526 0.30235 0.77548 0.0
H2757 H 0.67183 0.31887 0.81186 0.0
C2758 C 0.64355 0.29192 0.76283 0.0
C2759 C 0.64573 0.3123 0.79334 0.0
C2760 C 0.63763 0.32351 0.80774 0.0
C2761 C 0.6618 0.29122 0.7674 0.0
C2762 C 0.67221 0.30079 0.78547 0.0
C2763 C 0.66401 0.31145 0.79805 0.0
C2764 C 0.6913 0.29917 0.79162 0.0
C2765 C 0.66987 0.28052 0.75248 0.0
C2766 C 0.69506 0.28172 0.79273 0.0
C2767 C 0.71283 0.27964 0.79642 0.0
C2768 C 0.72752 0.29495 0.79947 0.0
C2769 C 0.72383 0.31261 0.79952 0.0
C2770 C 0.7059 0.3147 0.79566 0.0
H2771 H 0.6622 0.27898 0.7375 0.0
H2772 H 0.68409 0.28735 0.75239 0.0
H2773 H 0.66949 0.26647 0.75612 0.0
H2774 H 0.6842 0.26953 0.79022 0.0
H2775 H 0.7151 0.26583 0.79633 0.0
H2776 H 0.06724 0.37521 0.92734 0.0
H2777 H 0.07253 0.40662 0.94615 0.0
H2778 H 0.01566 0.40447 0.93497 0.0
H2779 H 0.01032 0.37342 0.91661 0.0
H2780 H 0.04196 0.43981 0.93029 0.0
H2781 H 0.05242 0.41416 0.00147 0.0
H2782 H 0.064 0.40691 0.98208 0.0
H2783 H 0.0401 0.39903 0.97957 0.0
C2784 C 0.05598 0.38165 0.92861 0.0
C2785 C 0.03837 0.37186 0.92058 0.0
C2786 C 0.05898 0.39949 0.93944 0.0
C2787 C 0.04443 0.40777 0.94206 0.0
C2788 C 0.02704 0.39833 0.93318 0.0
H2789 H 0.01503 0.48839 0.02171 0.0
H2790 H 0.01993 0.46096 0.00199 0.0
C2791 C 0.02403 0.38058 0.92268 0.0
C2792 C 0.04676 0.42581 0.95481 0.0
H2793 H 0.04954 0.44486 0.00255 0.0
C2794 C 0.04399 0.44109 0.94611 0.0
C2795 C 0.04903 0.42726 0.9754 0.0
C2796 C 0.05152 0.41102 0.98534 0.0
C2797 C 0.04296 0.45765 0.95744 0.0
C2798 C 0.04492 0.45902 0.97807 0.0
C2799 C 0.04812 0.44385 0.98677 0.0
C2800 C 0.04262 0.47568 0.99072 0.0
C2801 C 0.03891 0.47321 0.94714 0.0
C2802 C 0.05393 0.49307 0.99126 0.0
C2803 C 0.05108 0.50879 0.00241 0.0
C2804 C 0.03695 0.50746 0.01344 0.0
C2805 C 0.02598 0.48994 0.01335 0.0
C2806 C 0.0288 0.47423 0.0021 0.0
H2807 H 0.03378 0.46849 0.93129 0.0
H2808 H 0.02881 0.47954 0.95377 0.0
H2809 H 0.05142 0.48406 0.94859 0.0
H2810 H 0.06494 0.4945 0.98298 0.0
H2811 H 0.05995 0.52201 0.00234 0.0
H2812 H 0.97827 0.78565 0.25581 0.0
H2813 H 0.94982 0.78466 0.26876 0.0
H2814 H 0.92938 0.80875 0.22019 0.0
H2815 H 0.95721 0.80941 0.20713 0.0
H2816 H 0.9317 0.81128 0.28066 0.0
H2817 H 0.88885 0.76462 0.21661 0.0
H2818 H 0.91306 0.76857 0.2203 0.0
H2819 H 0.90191 0.78485 0.20987 0.0
C2820 C 0.9677 0.7907 0.24788 0.0
C2821 C 0.97014 0.7974 0.23022 0.0
C2822 C 0.95137 0.79013 0.25531 0.0
C2823 C 0.93703 0.79618 0.24526 0.0
C2824 C 0.93978 0.8034 0.22801 0.0
H2825 H 0.82826 0.80866 0.25706 0.0
H2826 H 0.85735 0.80729 0.24713 0.0
C2827 C 0.95592 0.80388 0.22058 0.0
C2828 C 0.9193 0.79527 0.25265 0.0
H2829 H 0.8736 0.78029 0.23854 0.0
C2830 C 0.91902 0.80432 0.27151 0.0
C2831 C 0.90255 0.78626 0.24084 0.0
C2832 C 0.90156 0.77537 0.22086 0.0
C2833 C 0.9027 0.80523 0.2785 0.0
C2834 C 0.88592 0.79647 0.26654 0.0
C2835 C 0.88626 0.78714 0.24782 0.0
C2836 C 0.86793 0.79712 0.27285 0.0
C2837 C 0.90367 0.81626 0.29839 0.0
C2838 C 0.86364 0.79154 0.29051 0.0
C2839 C 0.84693 0.79245 0.29633 0.0
C2840 C 0.83381 0.79869 0.28453 0.0
C2841 C 0.83791 0.80378 0.26661 0.0
C2842 C 0.85466 0.80301 0.26089 0.0
H2843 H 0.91673 0.82642 0.30305 0.0
H2844 H 0.89267 0.8238 0.29854 0.0
H2845 H 0.90237 0.80675 0.30932 0.0
H2846 H 0.87318 0.78635 0.29984 0.0
H2847 H 0.84431 0.78825 0.31013 0.0
H2848 H 0.49476 0.30066 0.07805 0.0
H2849 H 0.50809 0.33098 0.07053 0.0
H2850 H 0.51825 0.35367 0.13187 0.0
H2851 H 0.50487 0.3234 0.1396 0.0
H2852 H 0.49761 0.36636 0.0821 0.0
H2853 H 0.56832 0.36567 0.11163 0.0
H2854 H 0.5508 0.34481 0.10498 0.0
H2855 H 0.55157 0.36031 0.12701 0.0
C2856 C 0.4997 0.31212 0.08994 0.0
C2857 C 0.49881 0.30963 0.10941 0.0
C2858 C 0.50733 0.32939 0.08562 0.0
C2859 C 0.51437 0.34438 0.10069 0.0
C2860 C 0.51309 0.34213 0.1201 0.0
H2861 H 0.56441 0.45821 0.09437 0.0
H2862 H 0.55561 0.42876 0.10613 0.0
C2863 C 0.50531 0.32488 0.12444 0.0
C2864 C 0.52291 0.36239 0.09593 0.0
H2865 H 0.56354 0.39198 0.09819 0.0
C2866 C 0.51201 0.37201 0.08564 0.0
C2867 C 0.54167 0.36967 0.10076 0.0
C2868 C 0.55388 0.3596 0.11161 0.0
C2869 C 0.51941 0.38875 0.07988 0.0
C2870 C 0.53824 0.39577 0.08412 0.0
C2871 C 0.54913 0.3864 0.09484 0.0
C2872 C 0.54665 0.41275 0.0772 0.0
C2873 C 0.50699 0.39888 0.06938 0.0
C2874 C 0.54536 0.41322 0.05708 0.0
C2875 C 0.55015 0.42997 0.05032 0.0
C2876 C 0.55645 0.44653 0.0636 0.0
C2877 C 0.55925 0.44574 0.08378 0.0
C2878 C 0.55435 0.42894 0.09053 0.0
H2879 H 0.49284 0.39411 0.07155 0.0
H2880 H 0.51129 0.414 0.0745 0.0
H2881 H 0.50738 0.39632 0.05346 0.0
H2882 H 0.53967 0.40076 0.0466 0.0
H2883 H 0.5477 0.43004 0.03471 0.0
H2884 H 0.01905 0.37598 0.45327 0.0
H2885 H 0.99371 0.3687 0.42636 0.0
H2886 H 0.01797 0.32877 0.39614 0.0
H2887 H 0.04368 0.33645 0.42264 0.0
H2888 H 1.00315 0.3478 0.37122 0.0
H2889 H 0.95448 0.32257 0.41866 0.0
H2890 H 0.96635 0.34593 0.42774 0.0
H2891 H 0.97846 0.32774 0.42671 0.0
C2892 C 0.01907 0.3658 0.44079 0.0
C2893 C 0.03325 0.35668 0.44011 0.0
C2894 C 1.00453 0.36153 0.42553 0.0
C2895 C 1.00375 0.3478 0.40957 0.0
C2896 C 0.01826 0.33928 0.40843 0.0
H2897 H 0.89803 0.30918 0.33835 0.0
H2898 H 0.92738 0.30725 0.35486 0.0
C2899 C 0.03294 0.34373 0.42355 0.0
C2900 C 0.98768 0.34224 0.39422 0.0
H2901 H 0.94199 0.32918 0.38772 0.0
C2902 C 0.98977 0.34349 0.37475 0.0
C2903 C 0.97031 0.33603 0.39876 0.0
C2904 C 0.96727 0.33278 0.41907 0.0
C2905 C 0.97481 0.33977 0.35985 0.0
C2906 C 0.95737 0.33517 0.36471 0.0
C2907 C 0.95536 0.33288 0.384 0.0
C2908 C 0.94097 0.33443 0.35071 0.0
C2909 C 0.97784 0.34095 0.33912 0.0
C2910 C 0.93904 0.35004 0.3422 0.0
C2911 C 0.92235 0.35106 0.33245 0.0
C2912 C 0.90721 0.33662 0.33137 0.0
C2913 C 0.90944 0.32047 0.33873 0.0
C2914 C 0.9262 0.31939 0.34831 0.0
H2915 H 0.99083 0.33751 0.3367 0.0
H2916 H 0.96684 0.33152 0.32836 0.0
H2917 H 0.97845 0.35531 0.33635 0.0
H2918 H 0.95014 0.36197 0.3442 0.0
H2919 H 0.92109 0.36358 0.32671 0.0
H2920 H 0.97821 0.73373 0.58187 0.0
H2921 H 0.97809 0.71442 0.55067 0.0
H2922 H 0.98554 0.66949 0.58154 0.0
H2923 H 0.98523 0.68827 0.61232 0.0
H2924 H 1.00431 0.69982 0.53882 0.0
H2925 H 0.9472 0.64241 0.53729 0.0
H2926 H 0.9499 0.66433 0.55284 0.0
H2927 H 0.96015 0.64649 0.56128 0.0
C2928 C 0.97948 0.7196 0.5819 0.0
C2929 C 0.98164 0.71249 0.59958 0.0
C2930 C 0.97939 0.70861 0.56408 0.0
C2931 C 0.98131 0.69036 0.5637 0.0
C2932 C 0.98335 0.6833 0.58134 0.0
H2933 H 0.04739 0.63121 0.53732 0.0
H2934 H 0.03224 0.65645 0.53562 0.0
C2935 C 0.98337 0.69416 0.59902 0.0
C2936 C 0.98321 0.67893 0.54553 0.0
H2937 H 0.97459 0.63331 0.52721 0.0
C2938 C 0.99741 0.68537 0.53568 0.0
C2939 C 0.97362 0.66035 0.54043 0.0
C2940 C 0.95672 0.65313 0.5484 0.0
C2941 C 1.0041 0.673 0.5234 0.0
C2942 C 0.99689 0.6538 0.5218 0.0
C2943 C 0.98076 0.6479 0.52891 0.0
C2944 C 1.0077 0.63988 0.51746 0.0
C2945 C 0.01948 0.68058 0.51328 0.0
C2946 C 0.9993 0.62199 0.50761 0.0
C2947 C 1.00778 0.60734 0.50942 0.0
C2948 C 0.02496 0.6105 0.52052 0.0
C2949 C 0.03417 0.62856 0.52851 0.0
C2950 C 0.02552 0.64309 0.52727 0.0
H2951 H 0.01696 0.69286 0.50695 0.0
H2952 H 0.03204 0.68527 0.52414 0.0
H2953 H 0.02147 0.6702 0.50142 0.0
H2954 H 0.98563 0.61908 0.49986 0.0
H2955 H 1.00058 0.59345 0.50297 0.0
H2956 H 0.636 0.83193 0.9303 0.0
H2957 H 0.64731 0.82293 0.90024 0.0
H2958 H 0.62199 0.86106 0.8719 0.0
H2959 H 0.61064 0.8702 0.90184 0.0
H2960 H 0.61309 0.82381 0.85153 0.0
H2961 H 0.68674 0.85135 0.87276 0.0
H2962 H 0.67643 0.83828 0.8898 0.0
H2963 H 0.67054 0.85969 0.88592 0.0
C2964 C 0.63313 0.83868 0.91781 0.0
C2965 C 0.62238 0.85176 0.91847 0.0
C2966 C 0.63963 0.83354 0.90065 0.0
C2967 C 0.63551 0.84139 0.8839 0.0
C2968 C 0.62532 0.85488 0.8847 0.0
H2969 H 0.68418 0.81792 0.78096 0.0
H2970 H 0.67055 0.83386 0.80545 0.0
C2971 C 0.61891 0.86012 0.90187 0.0
C2972 C 0.6407 0.8345 0.86517 0.0
H2973 H 0.67695 0.82947 0.84352 0.0
C2974 C 0.62705 0.82519 0.84966 0.0
C2975 C 0.65889 0.83654 0.86274 0.0
C2976 C 0.67403 0.84715 0.87861 0.0
C2977 C 0.63113 0.81725 0.83198 0.0
C2978 C 0.64934 0.8185 0.8299 0.0
C2979 C 0.66298 0.82842 0.84517 0.0
C2980 C 0.65472 0.80896 0.81247 0.0
C2981 C 0.61593 0.80761 0.81573 0.0
C2982 C 0.64972 0.78964 0.80765 0.0
C2983 C 0.65716 0.78042 0.79325 0.0
C2984 C 0.66999 0.79033 0.78364 0.0
C2985 C 0.67416 0.80977 0.78777 0.0
C2986 C 0.66657 0.81896 0.80201 0.0
H2987 H 0.60353 0.81275 0.81717 0.0
H2988 H 0.61962 0.80952 0.80117 0.0
H2989 H 0.61279 0.7926 0.81642 0.0
H2990 H 0.64078 0.7816 0.81572 0.0
H2991 H 0.65348 0.76547 0.79031 0.0
H2992 H 0.43315 0.5999 0.73349 0.0
H2993 H 0.44905 0.60145 0.70487 0.0
H2994 H 0.44713 0.54321 0.70011 0.0
H2995 H 0.4314 0.54158 0.72796 0.0
H2996 H 0.48281 0.59266 0.69855 0.0
H2997 H 0.42842 0.54663 0.64418 0.0
H2998 H 0.42446 0.55677 0.66759 0.0
H2999 H 0.43326 0.53623 0.66541 0.0
C3000 C 0.43573 0.58737 0.72604 0.0
C3001 C 0.43065 0.57056 0.73316 0.0
C3002 C 0.44507 0.58828 0.70972 0.0
C3003 C 0.44932 0.57238 0.69985 0.0
C3004 C 0.44392 0.55569 0.70688 0.0
H3005 H 0.50285 0.52951 0.60926 0.0
H3006 H 0.48756 0.53693 0.63655 0.0
C3007 C 0.43484 0.55481 0.72305 0.0
C3008 C 0.4596 0.57273 0.68259 0.0
H3009 H 0.45811 0.55025 0.63611 0.0
C3010 C 0.47726 0.58361 0.68479 0.0
C3011 C 0.45267 0.56098 0.66438 0.0
C3012 C 0.4336 0.54964 0.66013 0.0
C3013 C 0.48824 0.58231 0.66996 0.0
C3014 C 0.48151 0.56995 0.65207 0.0
C3015 C 0.46362 0.55964 0.64968 0.0
C3016 C 0.49283 0.56634 0.63619 0.0
C3017 C 0.50731 0.59359 0.674 0.0
C3018 C 0.50162 0.58032 0.62659 0.0
C3019 C 0.51075 0.57602 0.61073 0.0
C3020 C 0.51128 0.5576 0.60393 0.0
C3021 C 0.50295 0.54388 0.61398 0.0
C3022 C 0.49399 0.54812 0.62968 0.0
H3023 H 0.5118 0.59913 0.6898 0.0
H3024 H 0.51668 0.58522 0.669 0.0
H3025 H 0.50818 0.60546 0.66588 0.0
H3026 H 0.50084 0.5945 0.6308 0.0
H3027 H 0.51656 0.58698 0.6032 0.0
H3028 H 0.83976 0.21501 0.98736 0.0
H3029 H 0.83359 0.22437 0.95505 0.0
H3030 H 0.83591 0.27972 0.98299 0.0
H3031 H 0.84213 0.27051 0.01494 0.0
H3032 H 0.80298 0.23705 0.94349 0.0
H3033 H 0.86315 0.28998 0.93841 0.0
H3034 H 0.86347 0.274 0.95567 0.0
H3035 H 0.85484 0.29435 0.96094 0.0
C3036 C 0.83974 0.22934 0.98652 0.0
C3037 C 0.84163 0.24207 0.00368 0.0
C3038 C 0.836 0.23465 0.96807 0.0
C3039 C 0.83438 0.25282 0.9665 0.0
C3040 C 0.83742 0.26575 0.98366 0.0
H3041 H 0.79356 0.31363 0.87885 0.0
H3042 H 0.80465 0.30308 0.90904 0.0
C3043 C 0.84099 0.26045 0.00198 0.0
C3044 C 0.82751 0.25793 0.94741 0.0
H3045 H 0.83603 0.29005 0.91714 0.0
C3046 C 0.81033 0.24847 0.93757 0.0
C3047 C 0.83694 0.273 0.93978 0.0
C3048 C 0.85569 0.28331 0.94915 0.0
C3049 C 0.80215 0.25397 0.92073 0.0
C3050 C 0.8115 0.26918 0.91324 0.0
C3051 C 0.82877 0.2785 0.92292 0.0
C3052 C 0.80379 0.27534 0.89511 0.0
C3053 C 0.7833 0.2438 0.9115 0.0
C3054 C 0.7995 0.2633 0.87721 0.0
C3055 C 0.7931 0.26925 0.86 0.0
C3056 C 0.7909 0.28748 0.86014 0.0
C3057 C 0.79491 0.29947 0.87815 0.0
C3058 C 0.80138 0.29348 0.89543 0.0
H3059 H 0.77621 0.23619 0.92191 0.0
H3060 H 0.77525 0.25344 0.90621 0.0
H3061 H 0.78394 0.23358 0.8988 0.0
H3062 H 0.80154 0.24936 0.87645 0.0
H3063 H 0.79025 0.25958 0.84646 0.0
H3064 H 0.0654 0.4904 0.24052 0.0
H3065 H 0.05448 0.4934 0.20689 0.0
H3066 H 0.10875 0.50171 0.19452 0.0
H3067 H 0.11956 0.49794 0.22809 0.0
H3068 H 0.0635 0.52498 0.19471 0.0
H3069 H 0.0818 0.47209 0.1433 0.0
H3070 H 0.08191 0.47041 0.16887 0.0
H3071 H 0.10066 0.48471 0.16116 0.0
C3072 C 0.07486 0.49197 0.23033 0.0
C3073 C 0.09329 0.49371 0.23682 0.0
C3074 C 0.06864 0.49386 0.21114 0.0
C3075 C 0.08074 0.49783 0.19804 0.0
C3076 C 0.09904 0.49828 0.20412 0.0
H3077 H 0.06975 0.56901 0.1116 0.0
H3078 H 0.07708 0.55443 0.14003 0.0
C3079 C 0.10524 0.49607 0.22332 0.0
C3080 C 0.07457 0.50422 0.17943 0.0
H3081 H 0.07485 0.49841 0.13008 0.0
C3082 C 0.06583 0.51897 0.18057 0.0
C3083 C 0.07743 0.49639 0.16087 0.0
C3084 C 0.0858 0.4799 0.15841 0.0
C3085 C 0.06029 0.52636 0.16393 0.0
C3086 C 0.06397 0.51919 0.14554 0.0
C3087 C 0.07221 0.50407 0.1442 0.0
C3088 C 0.05985 0.52769 0.12779 0.0
C3089 C 0.05044 0.54179 0.16623 0.0
C3090 C 0.04806 0.51742 0.11114 0.0
C3091 C 0.0439 0.52575 0.09472 0.0
C3092 C 0.05156 0.54447 0.09465 0.0
C3093 C 0.06352 0.55461 0.11124 0.0
C3094 C 0.06768 0.5463 0.12755 0.0
H3095 H 0.04396 0.54182 0.17953 0.0
H3096 H 0.06018 0.55523 0.16774 0.0
H3097 H 0.03995 0.54066 0.15332 0.0
H3098 H 0.04189 0.50303 0.11094 0.0
H3099 H 0.0347 0.51756 0.08212 0.0
H3100 H 0.77762 0.94456 0.56277 0.0
H3101 H 0.76391 0.9244 0.53181 0.0
H3102 H 0.80113 0.88947 0.54229 0.0
H3103 H 0.8149 0.90942 0.57325 0.0
H3104 H 0.78199 0.91607 0.50033 0.0
H3105 H 0.75155 0.85292 0.52785 0.0
H3106 H 0.75785 0.87545 0.54289 0.0
H3107 H 0.77451 0.86221 0.53917 0.0
C3108 C 0.78284 0.93252 0.55855 0.0
C3109 C 0.79735 0.92854 0.57048 0.0
C3110 C 0.77493 0.92102 0.54091 0.0
C3111 C 0.78127 0.90529 0.53506 0.0
C3112 C 0.79578 0.90133 0.54685 0.0
H3113 H 0.79571 0.82916 0.44925 0.0
H3114 H 0.78959 0.84725 0.47808 0.0
C3115 C 0.80374 0.91284 0.56443 0.0
C3116 C 0.77382 0.89363 0.51594 0.0
H3117 H 0.75875 0.84851 0.49508 0.0
C3118 C 0.77643 0.90136 0.49901 0.0
C3119 C 0.76634 0.87457 0.51441 0.0
C3120 C 0.76221 0.86582 0.53205 0.0
C3121 C 0.77355 0.89015 0.48072 0.0
C3122 C 0.76762 0.8708 0.47947 0.0
C3123 C 0.76341 0.86334 0.49615 0.0
C3124 C 0.76902 0.85804 0.46213 0.0
C3125 C 0.77832 0.89891 0.46325 0.0
C3126 C 0.75905 0.85768 0.44371 0.0
C3127 C 0.76274 0.84752 0.42711 0.0
C3128 C 0.77635 0.83755 0.42882 0.0
C3129 C 0.78542 0.83702 0.44746 0.0
C3130 C 0.78181 0.8472 0.46395 0.0
H3131 H 0.78479 0.91384 0.46731 0.0
H3132 H 0.7876 0.89186 0.45592 0.0
H3133 H 0.76593 0.89747 0.45253 0.0
H3134 H 0.74893 0.86574 0.44209 0.0
H3135 H 0.75554 0.84818 0.4129 0.0
H3136 H 0.41042 0.57152 0.85331 0.0
H3137 H 0.42477 0.57142 0.88677 0.0
H3138 H 0.47659 0.59338 0.87163 0.0
H3139 H 0.46229 0.59227 0.83796 0.0
H3140 H 0.48047 0.56745 0.88931 0.0
H3141 H 0.4434 0.60656 0.93507 0.0
H3142 H 0.42825 0.58743 0.91927 0.0
H3143 H 0.44085 0.60585 0.90895 0.0
C3144 C 0.42478 0.57698 0.85735 0.0
C3145 C 0.43514 0.58232 0.84303 0.0
C3146 C 0.43308 0.5769 0.8766 0.0
C3147 C 0.45193 0.5826 0.88219 0.0
C3148 C 0.46209 0.58884 0.868 0.0
H3149 H 0.50556 0.59432 0.00468 0.0
H3150 H 0.49095 0.59943 0.97311 0.0
C3151 C 0.45387 0.58847 0.84872 0.0
C3152 C 0.46129 0.58053 0.90201 0.0
H3153 H 0.46051 0.58789 0.95136 0.0
C3154 C 0.47612 0.57214 0.90284 0.0
C3155 C 0.45606 0.58676 0.91999 0.0
C3156 C 0.4414 0.59733 0.92081 0.0
C3157 C 0.4856 0.56969 0.9207 0.0
C3158 C 0.47969 0.57489 0.93859 0.0
C3159 C 0.46504 0.58354 0.93784 0.0
C3160 C 0.48862 0.57168 0.95812 0.0
C3161 C 0.50225 0.56206 0.92005 0.0
C3162 C 0.49212 0.55433 0.96074 0.0
C3163 C 0.50094 0.55154 0.97871 0.0
C3164 C 0.50602 0.56582 0.9949 0.0
C3165 C 0.50194 0.58299 0.99256 0.0
C3166 C 0.49349 0.58591 0.97443 0.0
H3167 H 0.50841 0.56508 0.90697 0.0
H3168 H 0.51252 0.5679 0.93326 0.0
H3169 H 0.49853 0.54683 0.91906 0.0
H3170 H 0.48794 0.54278 0.9489 0.0
H3171 H 0.50352 0.53803 0.97999 0.0
H3172 H 0.84511 0.21854 0.12201 0.0
H3173 H 0.84075 0.22956 0.15539 0.0
H3174 H 0.84553 0.28468 0.1417 0.0
H3175 H 0.85014 0.27384 0.10873 0.0
H3176 H 0.86008 0.28534 0.17983 0.0
H3177 H 0.79158 0.2396 0.16185 0.0
H3178 H 0.80975 0.22801 0.16076 0.0
H3179 H 0.80598 0.24342 0.14372 0.0
C3180 C 0.846 0.23313 0.12643 0.0
C3181 C 0.848 0.24532 0.11273 0.0
C3182 C 0.84317 0.23939 0.14541 0.0
C3183 C 0.84229 0.2579 0.15097 0.0
C3184 C 0.84599 0.27033 0.13784 0.0
H3185 H 0.77879 0.30361 0.22977 0.0
H3186 H 0.79255 0.29277 0.20211 0.0
C3187 C 0.84873 0.26412 0.11897 0.0
C3188 C 0.83594 0.26422 0.16951 0.0
H3189 H 0.79904 0.25859 0.19254 0.0
C3190 C 0.8468 0.27936 0.18271 0.0
C3191 C 0.81844 0.25674 0.17313 0.0
C3192 C 0.80565 0.24116 0.15908 0.0
C3193 C 0.84065 0.28724 0.19924 0.0
C3194 C 0.8232 0.27965 0.20292 0.0
C3195 C 0.81242 0.26442 0.18982 0.0
C3196 C 0.81562 0.2875 0.21993 0.0
C3197 C 0.85268 0.30404 0.21222 0.0
C3198 C 0.82401 0.2884 0.23928 0.0
C3199 C 0.8162 0.29472 0.25513 0.0
C3200 C 0.79971 0.30014 0.25205 0.0
C3201 C 0.79152 0.29962 0.23269 0.0
C3202 C 0.79935 0.29332 0.21685 0.0
H3203 H 0.86337 0.311 0.2047 0.0
H3204 H 0.8448 0.31416 0.21705 0.0
H3205 H 0.85931 0.29977 0.22542 0.0
H3206 H 0.83635 0.28369 0.24216 0.0
H3207 H 0.82283 0.2948 0.26984 0.0
H3208 H 0.06608 0.50119 0.3325 0.0
H3209 H 0.05668 0.50531 0.36444 0.0
H3210 H 0.10746 0.49709 0.39166 0.0
H3211 H 0.11708 0.49311 0.35945 0.0
H3212 H 0.0535 0.48577 0.39607 0.0
H3213 H 0.10723 0.55029 0.41526 0.0
H3214 H 0.10087 0.53772 0.39068 0.0
H3215 H 0.11451 0.52933 0.40882 0.0
C3216 C 0.07508 0.49973 0.34522 0.0
C3217 C 0.09238 0.49697 0.34349 0.0
C3218 C 0.06968 0.50212 0.36349 0.0
C3219 C 0.08151 0.50195 0.3805 0.0
C3220 C 0.09824 0.49761 0.37873 0.0
H3221 H 0.07328 0.54499 0.50038 0.0
H3222 H 0.08293 0.53114 0.47127 0.0
C3223 C 0.10364 0.4951 0.36031 0.0
C3224 C 0.07679 0.50816 0.39986 0.0
H3225 H 0.08777 0.54411 0.43788 0.0
C3226 C 0.06109 0.49842 0.40534 0.0
C3227 C 0.0866 0.52477 0.41186 0.0
C3228 C 0.10317 0.53627 0.40638 0.0
C3229 C 0.05491 0.50485 0.42242 0.0
C3230 C 0.06447 0.52172 0.43414 0.0
C3231 C 0.0804 0.53122 0.42889 0.0
C3232 C 0.05823 0.5299 0.45185 0.0
C3233 C 0.03827 0.49343 0.42781 0.0
C3234 C 0.04119 0.53416 0.45065 0.0
C3235 C 0.03555 0.54207 0.46737 0.0
C3236 C 0.04694 0.54611 0.48559 0.0
C3237 C 0.06412 0.54215 0.48662 0.0
C3238 C 0.06968 0.53416 0.46997 0.0
H3239 H 0.03577 0.47874 0.42093 0.0
H3240 H 0.03937 0.49409 0.44391 0.0
H3241 H 0.02644 0.49884 0.42251 0.0
H3242 H 0.03228 0.5315 0.43675 0.0
H3243 H 0.02228 0.54501 0.46599 0.0
H3244 H 0.82008 0.93987 0.68599 0.0
H3245 H 0.80562 0.91589 0.703 0.0
H3246 H 0.75424 0.91427 0.66886 0.0
H3247 H 0.76864 0.93863 0.65189 0.0
H3248 H 0.76928 0.91028 0.72193 0.0
H3249 H 0.77266 0.8626 0.65504 0.0
H3250 H 0.78791 0.885 0.66102 0.0
H3251 H 0.7644 0.88331 0.65337 0.0
C3252 C 0.8056 0.93494 0.68264 0.0
C3253 C 0.79548 0.94102 0.66761 0.0
C3254 C 0.79737 0.92124 0.69233 0.0
C3255 C 0.77895 0.91327 0.68698 0.0
C3256 C 0.76848 0.92034 0.67313 0.0
H3257 H 0.75473 0.81822 0.74929 0.0
H3258 H 0.74598 0.83737 0.72535 0.0
C3259 C 0.77671 0.93431 0.66358 0.0
C3260 C 0.77173 0.89601 0.69406 0.0
H3261 H 0.77138 0.85014 0.6843 0.0
C3262 C 0.76895 0.89697 0.71353 0.0
C3263 C 0.77144 0.87876 0.68297 0.0
C3264 C 0.77422 0.87717 0.6619 0.0
C3265 C 0.7674 0.88127 0.72273 0.0
C3266 C 0.76892 0.86442 0.71217 0.0
C3267 C 0.77015 0.86311 0.69224 0.0
C3268 C 0.77333 0.84968 0.72267 0.0
C3269 C 0.76587 0.88312 0.74417 0.0
C3270 C 0.79152 0.84975 0.72827 0.0
C3271 C 0.79652 0.83905 0.74203 0.0
C3272 C 0.78338 0.82795 0.75012 0.0
C3273 C 0.76509 0.82652 0.7431 0.0
C3274 C 0.76007 0.8375 0.72952 0.0
H3275 H 0.76387 0.89692 0.75 0.0
H3276 H 0.75442 0.87239 0.74652 0.0
H3277 H 0.7783 0.8809 0.75265 0.0
H3278 H 0.80191 0.85914 0.72311 0.0
H3279 H 0.81069 0.8404 0.74728 0.0
H3280 H 0.70409 0.46936 0.59106 0.0
H3281 H 0.68103 0.48734 0.59216 0.0
H3282 H 0.64542 0.44669 0.54712 0.0
H3283 H 0.66855 0.42846 0.54592 0.0
H3284 H 0.66377 0.50291 0.56209 0.0
H3285 H 0.61452 0.45226 0.59065 0.0
H3286 H 0.63777 0.45096 0.59148 0.0
H3287 H 0.62219 0.44327 0.569 0.0
C3288 C 0.69136 0.46413 0.58136 0.0
C3289 C 0.68825 0.44731 0.56843 0.0
C3290 C 0.67815 0.47452 0.58201 0.0
C3291 C 0.66133 0.46837 0.56991 0.0
C3292 C 0.65816 0.45165 0.55686 0.0
H3293 H 0.5624 0.50572 0.55204 0.0
H3294 H 0.58665 0.4896 0.55397 0.0
C3295 C 0.67145 0.44125 0.55611 0.0
C3296 C 0.64729 0.47957 0.57093 0.0
H3297 H 0.60497 0.47845 0.58155 0.0
C3298 C 0.65092 0.49759 0.5664 0.0
C3299 C 0.63052 0.47275 0.57665 0.0
C3300 C 0.62599 0.45382 0.5824 0.0
C3301 C 0.63809 0.50865 0.56672 0.0
C3302 C 0.62122 0.5018 0.57236 0.0
C3303 C 0.61779 0.48387 0.57724 0.0
C3304 C 0.60644 0.51227 0.57195 0.0
C3305 C 0.64254 0.52727 0.56022 0.0
C3306 C 0.60908 0.53057 0.58169 0.0
C3307 C 0.59505 0.54014 0.58038 0.0
C3308 C 0.57794 0.53151 0.56962 0.0
C3309 C 0.57527 0.51301 0.56053 0.0
C3310 C 0.58925 0.50363 0.56161 0.0
H3311 H 0.65359 0.52827 0.5514 0.0
H3312 H 0.63061 0.53012 0.5514 0.0
H3313 H 0.64702 0.53815 0.5733 0.0
H3314 H 0.62198 0.5375 0.59031 0.0
H3315 H 0.59765 0.5543 0.58765 0.0
H3316 H 0.19192 0.1104 0.45528 0.0
H3317 H 0.16394 0.09087 0.46096 0.0
H3318 H 0.18834 0.09165 0.52047 0.0
H3319 H 0.21662 0.10963 0.51418 0.0
H3320 H 0.16305 0.0617 0.50952 0.0
H3321 H 0.13592 0.12123 0.48892 0.0
H3322 H 0.14307 0.10847 0.46914 0.0
H3323 H 0.15932 0.12091 0.48999 0.0
C3324 C 0.19147 0.10555 0.4692 0.0
C3325 C 0.20624 0.11143 0.48434 0.0
C3326 C 0.17546 0.09466 0.47256 0.0
C3327 C 0.1738 0.09056 0.49141 0.0
C3328 C 0.1892 0.0948 0.50586 0.0
H3329 H 0.09423 0.08815 0.56485 0.0
H3330 H 0.12171 0.08936 0.5503 0.0
C3331 C 0.20539 0.10504 0.50226 0.0
C3332 C 0.15587 0.08464 0.49712 0.0
H3333 H 0.11663 0.09849 0.5008 0.0
C3334 C 0.15282 0.06962 0.5074 0.0
C3335 C 0.14262 0.09523 0.49471 0.0
C3336 C 0.14542 0.11245 0.48528 0.0
C3337 C 0.1371 0.06517 0.51561 0.0
C3338 C 0.12407 0.07581 0.51317 0.0
C3339 C 0.12674 0.09036 0.50242 0.0
C3340 C 0.10799 0.07295 0.52267 0.0
C3341 C 0.13461 0.04954 0.52732 0.0
C3342 C 0.09136 0.06333 0.51185 0.0
C3343 C 0.07572 0.06263 0.52008 0.0
C3344 C 0.07653 0.07177 0.53915 0.0
C3345 C 0.09327 0.08109 0.55009 0.0
C3346 C 0.10893 0.08168 0.54188 0.0
H3347 H 0.14526 0.04158 0.52652 0.0
H3348 H 0.1349 0.05519 0.54287 0.0
H3349 H 0.12127 0.04004 0.52198 0.0
H3350 H 0.09044 0.05673 0.4969 0.0
H3351 H 0.06297 0.05529 0.51135 0.0
H3352 H 0.17023 0.96425 0.82137 0.0
H3353 H 0.18636 0.93958 0.81823 0.0
H3354 H 0.23279 0.97805 0.80824 0.0
H3355 H 0.21659 1.0032 0.81179 0.0
H3356 H 0.19875 0.92309 0.78977 0.0
H3357 H 0.25861 0.95327 0.84631 0.0
H3358 H 0.23927 0.96341 0.84391 0.0
H3359 H 0.25549 0.96724 0.82767 0.0
C3360 C 0.18394 0.96775 0.81864 0.0
C3361 C 0.19187 0.98619 0.81698 0.0
C3362 C 0.19328 0.95333 0.81677 0.0
C3363 C 0.21118 0.95642 0.8132 0.0
C3364 C 0.21925 0.97487 0.81149 0.0
H3365 H 0.28551 0.87869 0.80034 0.0
H3366 H 0.27178 0.90563 0.80223 0.0
C3367 C 0.20984 0.98944 0.81341 0.0
C3368 C 0.2207 0.94017 0.81075 0.0
H3369 H 0.25858 0.9249 0.82713 0.0
C3370 C 0.21184 0.92364 0.79806 0.0
C3371 C 0.23795 0.94029 0.82122 0.0
C3372 C 0.24836 0.95691 0.83568 0.0
C3373 C 0.21947 0.90784 0.79544 0.0
C3374 C 0.23656 0.90776 0.80624 0.0
C3375 C 0.24555 0.9244 0.81875 0.0
C3376 C 0.24516 0.89077 0.80487 0.0
C3377 C 0.20916 0.89156 0.78043 0.0
C3378 C 0.23534 0.87283 0.80591 0.0
C3379 C 0.24318 0.85721 0.80444 0.0
C3380 C 0.26143 0.85869 0.80233 0.0
C3381 C 0.27144 0.87665 0.80177 0.0
C3382 C 0.26349 0.89227 0.80296 0.0
H3383 H 0.20027 0.89592 0.76892 0.0
H3384 H 0.21832 0.88424 0.77324 0.0
H3385 H 0.20044 0.88177 0.7877 0.0
H3386 H 0.22149 0.8708 0.80819 0.0
H3387 H 0.23489 0.84391 0.80537 0.0
H3388 H 0.26354 0.95542 0.03796 0.0
H3389 H 0.29061 0.97872 0.03644 0.0
H3390 H 0.31448 0.97063 0.09322 0.0
H3391 H 0.28793 0.94653 0.09414 0.0
H3392 H 0.3122 0.01066 0.05661 0.0
H3393 H 0.34797 0.95352 0.05952 0.0
H3394 H 0.32389 0.94969 0.05751 0.0
H3395 H 0.33807 0.95834 0.08086 0.0
C3396 C 0.27438 0.95906 0.05034 0.0
C3397 C 0.27384 0.94916 0.06608 0.0
C3398 C 0.28985 0.97231 0.04945 0.0
C3399 C 0.3048 0.97596 0.06444 0.0
C3400 C 0.30335 0.96758 0.0812 0.0
H3401 H 0.4171 0.02725 0.06573 0.0
H3402 H 0.38811 0.017 0.07615 0.0
C3403 C 0.28813 0.95398 0.08183 0.0
C3404 C 0.32246 0.98665 0.06145 0.0
H3405 H 0.36544 0.98278 0.05812 0.0
C3406 C 0.32387 0.00461 0.05703 0.0
C3407 C 0.33765 0.97864 0.06175 0.0
C3408 C 0.33683 0.95894 0.06497 0.0
C3409 C 0.34009 0.0148 0.053 0.0
C3410 C 0.3552 0.00676 0.05336 0.0
C3411 C 0.35386 0.98896 0.05806 0.0
C3412 C 0.37233 0.01594 0.04785 0.0
C3413 C 0.34098 0.03404 0.04836 0.0
C3414 C 0.37303 0.01895 0.02853 0.0
C3415 C 0.3896 0.02482 0.02251 0.0
C3416 C 0.40576 0.02772 0.0357 0.0
C3417 C 0.40493 0.02538 0.05525 0.0
C3418 C 0.38837 0.01946 0.06123 0.0
H3419 H 0.32994 0.03991 0.05341 0.0
H3420 H 0.35408 0.04338 0.05521 0.0
H3421 H 0.33972 0.03359 0.03229 0.0
H3422 H 0.36083 0.01598 0.01788 0.0
H3423 H 0.38978 0.02664 0.0074 0.0
H3424 H 0.90543 0.66202 0.771 0.0
H3425 H 0.88692 0.68445 0.76542 0.0
H3426 H 0.86279 0.67317 0.81616 0.0
H3427 H 0.88074 0.65035 0.82139 0.0
H3428 H 0.83765 0.67472 0.78762 0.0
H3429 H 0.89322 0.73602 0.79244 0.0
H3430 H 0.89376 0.71753 0.77367 0.0
H3431 H 0.8971 0.71447 0.79894 0.0
C3432 C 0.89628 0.66441 0.78107 0.0
C3433 C 0.8947 0.65438 0.79673 0.0
C3434 C 0.88574 0.67737 0.77791 0.0
C3435 C 0.87356 0.68087 0.79053 0.0
C3436 C 0.87203 0.67085 0.80618 0.0
H3437 H 0.82795 0.77624 0.80841 0.0
H3438 H 0.84557 0.75282 0.80774 0.0
C3439 C 0.8824 0.65779 0.80921 0.0
C3440 C 0.86212 0.6946 0.7874 0.0
H3441 H 0.86377 0.73985 0.78294 0.0
C3442 C 0.8434 0.68897 0.7866 0.0
C3443 C 0.86949 0.7133 0.78616 0.0
C3444 C 0.8895 0.72077 0.78804 0.0
C3445 C 0.83198 0.70142 0.78495 0.0
C3446 C 0.83933 0.72006 0.78345 0.0
C3447 C 0.85801 0.7256 0.78391 0.0
C3448 C 0.82828 0.73443 0.78307 0.0
C3449 C 0.81227 0.69456 0.78569 0.0
C3450 C 0.81258 0.73225 0.76925 0.0
C3451 C 0.80213 0.74565 0.76979 0.0
C3452 C 0.80736 0.76176 0.7839 0.0
C3453 C 0.82339 0.76412 0.79725 0.0
C3454 C 0.8336 0.75066 0.79689 0.0
H3455 H 0.80974 0.68161 0.79208 0.0
H3456 H 0.80701 0.70507 0.79446 0.0
H3457 H 0.80459 0.6916 0.77062 0.0
H3458 H 0.80836 0.72017 0.75803 0.0
H3459 H 0.78998 0.74338 0.75919 0.0
H3460 H 0.80984 0.64074 0.01534 0.0
H3461 H 0.83645 0.63263 0.0319 0.0
H3462 H 0.81666 0.576 0.0041 0.0
H3463 H 0.78978 0.5839 0.98749 0.0
H3464 H 0.83563 0.6006 0.0569 0.0
H3465 H 0.87046 0.59711 0.99194 0.0
H3466 H 0.85377 0.61068 0.99451 0.0
H3467 H 0.84692 0.58603 0.98839 0.0
C3468 C 0.81113 0.62655 0.01265 0.0
C3469 C 0.79772 0.61295 1.00002 0.0
C3470 C 0.8263 0.62196 0.02222 0.0
C3471 C 0.82842 0.60377 0.01917 0.0
C3472 C 0.81517 0.59014 0.00656 0.0
H3473 H 0.9024 0.54189 0.06038 0.0
H3474 H 0.87569 0.55408 0.05255 0.0
C3475 C 0.79987 0.59467 0.99709 0.0
C3476 C 0.84466 0.59909 0.02896 0.0
H3477 H 0.884 0.58797 0.02032 0.0
C3478 C 0.84627 0.59789 0.04898 0.0
C3479 C 0.8585 0.59583 0.01855 0.0
C3480 C 0.85752 0.59756 0.99717 0.0
C3481 C 0.86127 0.59291 0.05874 0.0
C3482 C 0.87484 0.58917 0.04816 0.0
C3483 C 0.87345 0.59085 0.0283 0.0
C3484 C 0.89027 0.58256 0.05704 0.0
C3485 C 0.86258 0.59146 0.08018 0.0
C3486 C 0.90712 0.5947 0.06278 0.0
C3487 C 0.92242 0.58784 0.06756 0.0
C3488 C 0.92108 0.56868 0.06629 0.0
C3489 C 0.90394 0.55671 0.06172 0.0
C3490 C 0.88865 0.56362 0.05713 0.0
H3491 H 0.85157 0.59618 0.08669 0.0
H3492 H 0.86198 0.57688 0.08212 0.0
H3493 H 0.87571 0.59982 0.08825 0.0
H3494 H 0.90854 0.60938 0.06272 0.0
H3495 H 0.93537 0.59746 0.07141 0.0
H3496 H 0.17383 0.10989 0.79838 0.0
H3497 H 0.19097 0.14047 0.79687 0.0
H3498 H 0.23753 0.12911 0.83025 0.0
H3499 H 0.22012 0.09775 0.83168 0.0
H3500 H 0.20493 0.16846 0.82567 0.0
H3501 H 0.26094 0.15345 0.78851 0.0
H3502 H 0.24126 0.13581 0.78919 0.0
H3503 H 0.25842 0.14357 0.81039 0.0
C3504 C 0.18778 0.11362 0.80537 0.0
C3505 C 0.19536 0.10097 0.81525 0.0
C3506 C 0.19766 0.13138 0.80447 0.0
C3507 C 0.21575 0.13758 0.81335 0.0
C3508 C 0.22371 0.12489 0.82291 0.0
H3509 H 0.28469 0.2509 0.81497 0.0
H3510 H 0.27433 0.21878 0.82056 0.0
C3511 C 0.2137 0.10682 0.82377 0.0
C3512 C 0.22537 0.15752 0.81311 0.0
H3513 H 0.26072 0.18486 0.79743 0.0
C3514 C 0.21718 0.17191 0.81953 0.0
C3515 C 0.24154 0.16255 0.80535 0.0
C3516 C 0.25106 0.14809 0.79781 0.0
C3517 C 0.22429 0.19064 0.81819 0.0
C3518 C 0.24002 0.19563 0.80964 0.0
C3519 C 0.24864 0.18137 0.80384 0.0
C3520 C 0.24698 0.21528 0.80584 0.0
C3521 C 0.21481 0.20497 0.82625 0.0
C3522 C 0.23546 0.22434 0.79533 0.0
C3523 C 0.24134 0.2427 0.79228 0.0
C3524 C 0.25912 0.25285 0.79928 0.0
C3525 C 0.27091 0.24371 0.80936 0.0
C3526 C 0.26494 0.22521 0.81254 0.0
H3527 H 0.20741 0.2003 0.83799 0.0
H3528 H 0.22441 0.21832 0.83226 0.0
H3529 H 0.20481 0.20725 0.81438 0.0
H3530 H 0.22175 0.21718 0.78936 0.0
H3531 H 0.23179 0.24897 0.78428 0.0
H3532 H 0.4076 0.04119 0.27627 0.0
H3533 H 0.38343 0.01589 0.2799 0.0
H3534 H 0.35335 0.05483 0.30077 0.0
H3535 H 0.37771 0.08056 0.29711 0.0
H3536 H 0.373 0.01644 0.32081 0.0
H3537 H 0.31703 0.00978 0.25901 0.0
H3538 H 0.34017 0.01848 0.25648 0.0
H3539 H 0.32925 0.03233 0.27155 0.0
C3540 C 0.39572 0.04445 0.28129 0.0
C3541 C 0.39464 0.06288 0.28663 0.0
C3542 C 0.3819 0.02995 0.28329 0.0
C3543 C 0.36669 0.03353 0.29062 0.0
C3544 C 0.36498 0.05185 0.29493 0.0
H3545 H 0.28728 0.94729 0.32692 0.0
H3546 H 0.302 0.97732 0.31947 0.0
C3547 C 0.37887 0.06649 0.29284 0.0
C3548 C 0.35398 0.01805 0.29592 0.0
H3549 H 0.31398 0.98698 0.2796 0.0
C3550 C 0.35996 0.01016 0.312 0.0
C3551 C 0.33705 0.00995 0.28434 0.0
C3552 C 0.33035 0.01795 0.26682 0.0
C3553 C 0.3497 0.99398 0.31645 0.0
C3554 C 0.33311 0.9854 0.3044 0.0
C3555 C 0.32673 0.99366 0.28877 0.0
C3556 C 0.32308 0.96712 0.30715 0.0
C3557 C 0.35689 0.98584 0.33369 0.0
C3558 C 0.32993 0.95149 0.30231 0.0
C3559 C 0.32158 0.93438 0.30644 0.0
C3560 C 0.30622 0.93257 0.31558 0.0
C3561 C 0.29904 0.94819 0.31982 0.0
C3562 C 0.30741 0.96535 0.31561 0.0
H3563 H 0.36791 0.99597 0.34376 0.0
H3564 H 0.34599 0.9809 0.342 0.0
H3565 H 0.36225 0.97381 0.32831 0.0
H3566 H 0.34196 0.95261 0.29563 0.0
H3567 H 0.32722 0.92258 0.30253 0.0
H3568 H 0.55385 0.35008 0.67156 0.0
H3569 H 0.54614 0.37268 0.65181 0.0
H3570 H 0.49104 0.35781 0.66089 0.0
H3571 H 0.49882 0.3351 0.68117 0.0
H3572 H 0.52224 0.36405 0.61738 0.0
H3573 H 0.50146 0.4144 0.67024 0.0
H3574 H 0.51391 0.3979 0.67801 0.0
H3575 H 0.49027 0.39061 0.66872 0.0
C3576 C 0.5401 0.35174 0.66964 0.0
C3577 C 0.52692 0.34068 0.6779 0.0
C3578 C 0.53572 0.3647 0.65829 0.0
C3579 C 0.51802 0.36701 0.65481 0.0
C3580 C 0.50486 0.35648 0.66357 0.0
H3581 H 0.47581 0.43943 0.57968 0.0
H3582 H 0.4784 0.41647 0.60135 0.0
C3583 C 0.5093 0.34349 0.67515 0.0
C3584 C 0.51349 0.37957 0.64092 0.0
H3585 H 0.49932 0.41961 0.63747 0.0
C3586 C 0.51716 0.37616 0.62178 0.0
C3587 C 0.50676 0.39532 0.64657 0.0
C3588 C 0.50297 0.39995 0.66703 0.0
C3589 C 0.51453 0.38812 0.60826 0.0
C3590 C 0.50834 0.40419 0.61407 0.0
C3591 C 0.50415 0.40734 0.63303 0.0
C3592 C 0.50673 0.41815 0.60089 0.0
C3593 C 0.51834 0.38332 0.58782 0.0
C3594 C 0.52182 0.42694 0.59357 0.0
C3595 C 0.52037 0.44001 0.58115 0.0
C3596 C 0.50383 0.44479 0.5759 0.0
C3597 C 0.48877 0.43615 0.58347 0.0
C3598 C 0.49022 0.423 0.59584 0.0
H3599 H 0.51756 0.36829 0.58399 0.0
H3600 H 0.50877 0.38743 0.57682 0.0
H3601 H 0.53217 0.39075 0.5869 0.0
H3602 H 0.53482 0.42384 0.59764 0.0
H3603 H 0.53234 0.44667 0.57599 0.0
H3604 H 0.47113 0.78209 0.35513 0.0
H3605 H 0.44063 0.7817 0.33938 0.0
H3606 H 0.45698 0.8397 0.33635 0.0
H3607 H 0.48761 0.83983 0.35147 0.0
H3608 H 0.41833 0.79868 0.35446 0.0
H3609 H 0.42579 0.82397 0.28446 0.0
H3610 H 0.44372 0.81671 0.29857 0.0
H3611 H 0.44004 0.8396 0.30466 0.0
C3612 C 0.46845 0.79451 0.35011 0.0
C3613 C 0.48205 0.81081 0.35386 0.0
C3614 C 0.45086 0.79438 0.34138 0.0
C3615 C 0.44623 0.81062 0.33637 0.0
C3616 C 0.46004 0.82679 0.33941 0.0
H3617 H 0.34779 0.8496 0.31599 0.0
H3618 H 0.37856 0.84508 0.32084 0.0
C3619 C 0.47771 0.82685 0.34798 0.0
C3620 C 0.42677 0.81104 0.33004 0.0
H3621 H 0.39815 0.82542 0.29639 0.0
C3622 C 0.41395 0.80429 0.34157 0.0
C3623 C 0.42076 0.8184 0.31326 0.0
C3624 C 0.43327 0.8249 0.29942 0.0
C3625 C 0.39572 0.80518 0.33721 0.0
C3626 C 0.38983 0.8129 0.32071 0.0
C3627 C 0.40253 0.81947 0.30903 0.0
C3628 C 0.37083 0.81526 0.3161 0.0
C3629 C 0.38299 0.79845 0.35077 0.0
C3630 C 0.35598 0.80003 0.31127 0.0
C3631 C 0.33821 0.8026 0.30825 0.0
C3632 C 0.33488 0.82047 0.31011 0.0
C3633 C 0.3498 0.83563 0.31439 0.0
C3634 C 0.36747 0.83306 0.31719 0.0
H3635 H 0.39023 0.79616 0.36477 0.0
H3636 H 0.37458 0.8085 0.35406 0.0
H3637 H 0.37386 0.78517 0.34356 0.0
H3638 H 0.35811 0.78611 0.31009 0.0
H3639 H 0.32712 0.79065 0.30516 0.0
H3640 H 0.01043 0.7316 0.19379 0.0
H3641 H 1.00565 0.70022 0.17529 0.0
H3642 H 0.02065 0.72332 0.12482 0.0
H3643 H 0.02554 0.7544 0.14308 0.0
H3644 H 0.98964 0.69105 0.11703 0.0
H3645 H 0.05134 0.68082 0.16168 0.0
H3646 H 0.03441 0.68795 0.17439 0.0
H3647 H 0.04682 0.70344 0.16087 0.0
C3648 C 0.01227 0.72994 0.17862 0.0
C3649 C 0.01845 0.74547 0.16993 0.0
C3650 C 0.00968 0.71203 0.16811 0.0
C3651 C 0.013 0.70944 0.14873 0.0
C3652 C 0.01805 0.72496 0.13974 0.0
H3653 H 0.04442 0.62773 0.07156 0.0
H3654 H 0.04037 0.65519 0.09204 0.0
C3655 C 0.02085 0.74273 0.15023 0.0
C3656 C 0.01268 0.69084 0.13805 0.0
H3657 H 0.03736 0.65776 0.13498 0.0
C3658 C 0.99988 0.68359 0.12112 0.0
C3659 C 0.02624 0.68129 0.14322 0.0
C3660 C 0.0406 0.68871 0.16095 0.0
C3661 C 1.00045 0.66719 0.10911 0.0
C3662 C 0.0142 0.65786 0.11412 0.0
C3663 C 0.02682 0.66493 0.1312 0.0
C3664 C 0.01623 0.64118 0.10136 0.0
C3665 C 0.98675 0.66026 0.09077 0.0
C3666 C 1.00399 0.62417 0.0998 0.0
C3667 C 1.00633 0.60841 0.0882 0.0
C3668 C 0.02092 0.60937 0.07783 0.0
C3669 C 0.03301 0.6265 0.07926 0.0
C3670 C 0.03075 0.6422 0.09101 0.0
H3671 H 0.97833 0.67029 0.08765 0.0
H3672 H 0.99356 0.65739 0.07804 0.0
H3673 H 0.97777 0.64712 0.09239 0.0
H3674 H 0.99276 0.62304 0.10775 0.0
H3675 H 0.99673 0.59546 0.08742 0.0
H3676 H 0.08433 0.29761 0.85637 0.0
H3677 H 0.11303 0.29441 0.84594 0.0
H3678 H 0.13333 0.35326 0.86107 0.0
H3679 H 0.10519 0.3564 0.87207 0.0
H3680 H 0.13217 0.30596 0.81933 0.0
H3681 H 0.17343 0.33754 0.89097 0.0
H3682 H 0.1492 0.33171 0.88757 0.0
H3683 H 0.16095 0.35308 0.88142 0.0
C3684 C 0.09488 0.30988 0.85738 0.0
C3685 C 0.09234 0.32725 0.86529 0.0
C3686 C 0.1114 0.30804 0.85144 0.0
C3687 C 0.12585 0.32351 0.85319 0.0
C3688 C 0.1229 0.34093 0.86018 0.0
H3689 H 0.22042 0.3273 0.79326 0.0
H3690 H 0.19122 0.32897 0.80274 0.0
C3691 C 0.10658 0.34273 0.86632 0.0
C3692 C 0.1439 0.32161 0.84773 0.0
H3693 H 0.18943 0.33426 0.86418 0.0
C3694 C 0.14465 0.31209 0.82923 0.0
C3695 C 0.16044 0.3292 0.86061 0.0
C3696 C 0.16099 0.33827 0.88131 0.0
C3697 C 0.16119 0.31041 0.82316 0.0
C3698 C 0.17775 0.31889 0.83564 0.0
C3699 C 0.17696 0.32798 0.85432 0.0
C3700 C 0.19597 0.31825 0.82985 0.0
C3701 C 0.16062 0.29909 0.80353 0.0
C3702 C 0.20907 0.31244 0.84214 0.0
C3703 C 0.22602 0.31178 0.83686 0.0
C3704 C 0.23052 0.31693 0.8191 0.0
C3705 C 0.21754 0.32307 0.80697 0.0
C3706 C 0.20063 0.32384 0.81233 0.0
H3707 H 0.14759 0.28889 0.79879 0.0
H3708 H 0.1621 0.30839 0.7924 0.0
H3709 H 0.17164 0.29157 0.80384 0.0
H3710 H 0.20611 0.30814 0.85581 0.0
H3711 H 0.23551 0.30695 0.84663 0.0
H3712 H 0.5824 0.7852 0.97494 0.0
H3713 H 0.56642 0.75551 0.98169 0.0
H3714 H 0.53514 0.78352 0.01702 0.0
H3715 H 0.5507 0.81316 0.0099 0.0
H3716 H 0.56503 0.7431 0.01543 0.0
H3717 H 0.49595 0.74438 0.98226 0.0
H3718 H 0.51558 0.76044 0.97828 0.0
H3719 H 0.50611 0.76437 1.00024 0.0
C3720 C 0.57215 0.78502 0.9842 0.0
C3721 C 0.56774 0.80147 0.99184 0.0
C3722 C 0.56296 0.76806 0.98793 0.0
C3723 C 0.54926 0.76727 0.99944 0.0
C3724 C 0.54522 0.78374 0.00756 0.0
H3725 H 0.51265 0.68347 0.06547 0.0
H3726 H 0.52001 0.71231 0.05252 0.0
C3727 C 0.55427 0.80069 0.00366 0.0
C3728 C 0.53996 0.74931 0.00389 0.0
H3729 H 0.4985 0.72184 0.00348 0.0
C3730 C 0.5505 0.73839 0.01262 0.0
C3731 C 0.52098 0.74307 1.0 0.0
C3732 C 0.50901 0.75359 0.98949 0.0
C3733 C 0.54257 0.72173 0.01818 0.0
C3734 C 0.52364 0.71601 0.01524 0.0
C3735 C 0.51303 0.72651 0.00594 0.0
C3736 C 0.51495 0.69925 0.0223 0.0
C3737 C 0.55448 0.71037 0.02737 0.0
C3738 C 0.5088 0.68255 0.0094 0.0
C3739 C 0.50442 0.66598 0.01674 0.0
C3740 C 0.50626 0.66597 0.03706 0.0
C3741 C 0.51095 0.68295 0.04976 0.0
C3742 C 0.51526 0.69946 0.04241 0.0
H3743 H 0.56878 0.7152 0.02578 0.0
H3744 H 0.55368 0.7113 0.0432 0.0
H3745 H 0.54985 0.69561 0.02064 0.0
H3746 H 0.50847 0.68221 0.99381 0.0
H3747 H 0.50055 0.65313 0.00657 0.0
H3748 H 0.02449 0.77534 0.71059 0.0
H3749 H 0.05309 0.79122 0.73116 0.0
H3750 H 0.07947 0.78922 0.6803 0.0
H3751 H 0.05051 0.7745 0.65959 0.0
H3752 H 0.07865 0.77513 0.73681 0.0
H3753 H 0.10645 0.83839 0.70832 0.0
H3754 H 0.08321 0.82623 0.70113 0.0
H3755 H 0.10048 0.81905 0.68896 0.0
C3756 C 0.03639 0.77872 0.70385 0.0
C3757 C 0.03557 0.77363 0.6837 0.0
C3758 C 0.05266 0.78786 0.71552 0.0
C3759 C 0.06846 0.79159 0.7073 0.0
C3760 C 0.06744 0.78703 0.68696 0.0
H3761 H 0.17422 0.78573 0.73619 0.0
H3762 H 0.14575 0.79217 0.7224 0.0
C3763 C 0.051 0.77837 0.67517 0.0
C3764 C 0.08614 0.79712 0.72028 0.0
H3765 H 0.12848 0.82422 0.72572 0.0
C3766 C 0.08937 0.78626 0.73475 0.0
C3767 C 0.10018 0.81158 0.71759 0.0
C3768 C 0.09731 0.82457 0.70328 0.0
C3769 C 0.10646 0.7886 0.74568 0.0
C3770 C 0.12073 0.80225 0.74212 0.0
C3771 C 0.11743 0.81379 0.72839 0.0
C3772 C 0.13943 0.80256 0.75036 0.0
C3773 C 0.10939 0.77556 0.76 0.0
C3774 C 0.1455 0.80689 0.7706 0.0
C3775 C 0.16167 0.80297 0.77856 0.0
C3776 C 0.17187 0.79467 0.76633 0.0
C3777 C 0.16635 0.79166 0.74597 0.0
C3778 C 0.15026 0.79559 0.73806 0.0
H3779 H 0.09729 0.76432 0.75925 0.0
H3780 H 0.12083 0.76923 0.75715 0.0
H3781 H 0.11274 0.78337 0.77509 0.0
H3782 H 0.13728 0.81235 0.78027 0.0
H3783 H 0.16572 0.80555 0.79429 0.0
H3784 H 0.09816 0.41632 0.48479 0.0
H3785 H 0.09455 0.44664 0.49853 0.0
H3786 H 0.10566 0.43379 0.55672 0.0
H3787 H 0.1087 0.40323 0.54292 0.0
H3788 H 0.07037 0.43481 0.54514 0.0
H3789 H 0.11518 0.49799 0.53082 0.0
H3790 H 0.10811 0.47997 0.51 0.0
H3791 H 0.12212 0.47637 0.53123 0.0
C3792 C 0.10115 0.42047 0.50053 0.0
C3793 C 0.10342 0.40742 0.51283 0.0
C3794 C 0.09897 0.43784 0.50841 0.0
C3795 C 0.09951 0.44234 0.52866 0.0
C3796 C 0.10507 0.43053 0.54105 0.0
H3797 H 0.05556 0.53477 0.57362 0.0
H3798 H 0.07422 0.51194 0.5714 0.0
C3799 C 0.10701 0.41312 0.53316 0.0
C3800 C 0.08957 0.45602 0.53606 0.0
H3801 H 0.08583 0.50068 0.53719 0.0
C3802 C 0.07399 0.44932 0.54379 0.0
C3803 C 0.09414 0.47483 0.53404 0.0
C3804 C 0.11089 0.48279 0.52622 0.0
C3805 C 0.0626 0.4608 0.54912 0.0
C3806 C 0.06678 0.47945 0.54642 0.0
C3807 C 0.08264 0.48633 0.53924 0.0
C3808 C 0.05449 0.49188 0.5501 0.0
C3809 C 0.04609 0.45274 0.55736 0.0
C3810 C 0.03698 0.48785 0.53942 0.0
C3811 C 0.02627 0.50079 0.54088 0.0
C3812 C 0.03306 0.51796 0.55286 0.0
C3813 C 0.05011 0.52155 0.56437 0.0
C3814 C 0.06077 0.5086 0.56301 0.0
H3815 H 0.04772 0.44034 0.56398 0.0
H3816 H 0.04306 0.46302 0.56861 0.0
H3817 H 0.03439 0.44844 0.54536 0.0
H3818 H 0.03199 0.4752 0.52906 0.0
H3819 H 0.01335 0.49799 0.53144 0.0
H3820 H 0.45384 0.28531 0.17863 0.0
H3821 H 0.4368 0.294 0.20414 0.0
H3822 H 0.42915 0.23904 0.2187 0.0
H3823 H 0.44619 0.23016 0.1933 0.0
H3824 H 0.39715 0.25581 0.21474 0.0
H3825 H 0.45739 0.29934 0.2646 0.0
H3826 H 0.45485 0.30343 0.23966 0.0
H3827 H 0.45886 0.2817 0.24506 0.0
C3828 C 0.44837 0.275 0.18709 0.0
C3829 C 0.45144 0.25707 0.184 0.0
C3830 C 0.43876 0.28003 0.20173 0.0
C3831 C 0.43202 0.26721 0.21341 0.0
C3832 C 0.4344 0.24912 0.20988 0.0
H3833 H 0.38874 0.29415 0.32091 0.0
H3834 H 0.40577 0.2813 0.29727 0.0
C3835 C 0.44411 0.2441 0.19535 0.0
C3836 C 0.4226 0.27277 0.22946 0.0
H3837 H 0.42893 0.30092 0.27339 0.0
C3838 C 0.40407 0.26556 0.22764 0.0
C3839 C 0.4318 0.28527 0.24634 0.0
C3840 C 0.45186 0.29282 0.24922 0.0
C3841 C 0.39431 0.27112 0.242 0.0
C3842 C 0.40338 0.28426 0.2585 0.0
C3843 C 0.42204 0.2909 0.26068 0.0
C3844 C 0.39353 0.29218 0.27295 0.0
C3845 C 0.37434 0.2631 0.23923 0.0
C3846 C 0.38148 0.30292 0.26715 0.0
C3847 C 0.37206 0.31047 0.28059 0.0
C3848 C 0.37448 0.30739 0.3001 0.0
C3849 C 0.38671 0.29677 0.30598 0.0
C3850 C 0.39637 0.28943 0.29253 0.0
H3851 H 0.37046 0.24969 0.22917 0.0
H3852 H 0.36988 0.26101 0.25339 0.0
H3853 H 0.36706 0.27282 0.23279 0.0
H3854 H 0.37933 0.30543 0.25218 0.0
H3855 H 0.36251 0.31835 0.27559 0.0
H3856 H 0.65825 0.54782 0.39006 0.0
H3857 H 0.64291 0.54806 0.41898 0.0
H3858 H 0.59155 0.5326 0.38117 0.0
H3859 H 0.60673 0.53243 0.35259 0.0
H3860 H 0.61966 0.57057 0.42952 0.0
H3861 H 0.58225 0.49792 0.42061 0.0
H3862 H 0.6006 0.50503 0.40761 0.0
H3863 H 0.57855 0.50833 0.39912 0.0
C3864 C 0.64371 0.54378 0.38791 0.0
C3865 C 0.63385 0.5396 0.36877 0.0
C3866 C 0.63485 0.54416 0.40454 0.0
C3867 C 0.61584 0.54011 0.40261 0.0
C3868 C 0.6061 0.53538 0.38347 0.0
H3869 H 0.53501 0.54664 0.48307 0.0
H3870 H 0.55011 0.54015 0.4546 0.0
C3871 C 0.61489 0.53524 0.36697 0.0
C3872 C 0.60614 0.54211 0.42023 0.0
H3873 H 0.57337 0.51944 0.44339 0.0
C3874 C 0.60969 0.55927 0.43259 0.0
C3875 C 0.59273 0.52764 0.42441 0.0
C3876 C 0.58838 0.50864 0.41236 0.0
C3877 C 0.60024 0.56243 0.44839 0.0
C3878 C 0.58699 0.5479 0.45278 0.0
C3879 C 0.58338 0.53072 0.44037 0.0
C3880 C 0.57729 0.55025 0.47041 0.0
C3881 C 0.60419 0.58172 0.45978 0.0
C3882 C 0.58715 0.5573 0.48925 0.0
C3883 C 0.57854 0.56104 0.5054 0.0
C3884 C 0.55962 0.55747 0.50371 0.0
C3885 C 0.54956 0.54938 0.48515 0.0
C3886 C 0.55828 0.54579 0.46876 0.0
H3887 H 0.60955 0.59221 0.45087 0.0
H3888 H 0.59198 0.58508 0.4648 0.0
H3889 H 0.61458 0.58286 0.47277 0.0
H3890 H 0.6017 0.5603 0.49151 0.0
H3891 H 0.58685 0.56722 0.51936 0.0
H3892 H 0.23144 0.84739 0.09224 0.0
H3893 H 0.23602 0.83681 0.12369 0.0
H3894 H 0.22851 0.88833 0.15273 0.0
H3895 H 0.22398 0.89912 0.12096 0.0
H3896 H 0.26074 0.87972 0.16743 0.0
H3897 H 0.20472 0.81907 0.16294 0.0
H3898 H 0.216 0.81802 0.14208 0.0
H3899 H 0.20404 0.83598 0.14675 0.0
C3900 C 0.23014 0.85626 0.10524 0.0
C3901 C 0.22723 0.87406 0.10408 0.0
C3902 C 0.23274 0.85015 0.12326 0.0
C3903 C 0.2325 0.86167 0.14065 0.0
C3904 C 0.22864 0.87913 0.1395 0.0
H3905 H 0.26805 0.85324 0.26243 0.0
H3906 H 0.25758 0.86327 0.23208 0.0
C3907 C 0.22586 0.88522 0.12133 0.0
C3908 C 0.23838 0.8562 0.15988 0.0
H3909 H 0.23053 0.82149 0.18724 0.0
C3910 C 0.25398 0.86712 0.1719 0.0
C3911 C 0.22975 0.83961 0.16561 0.0
C3912 C 0.21261 0.82757 0.15376 0.0
C3913 C 0.26145 0.86169 0.18912 0.0
C3914 C 0.25291 0.84502 0.19479 0.0
C3915 C 0.23719 0.83419 0.18288 0.0
C3916 C 0.2598 0.83886 0.21328 0.0
C3917 C 0.27879 0.8736 0.20074 0.0
C3918 C 0.2643 0.82156 0.21301 0.0
C3919 C 0.27026 0.81563 0.23053 0.0
C3920 C 0.2717 0.82684 0.24869 0.0
C3921 C 0.26727 0.84421 0.2488 0.0
C3922 C 0.26133 0.85007 0.23137 0.0
H3923 H 0.28629 0.88256 0.19165 0.0
H3924 H 0.27568 0.8827 0.21302 0.0
H3925 H 0.28764 0.86505 0.20693 0.0
H3926 H 0.26315 0.8126 0.19924 0.0
H3927 H 0.27338 0.80214 0.22983 0.0
H3928 H 0.94325 0.6257 0.85917 0.0
H3929 H 0.95322 0.62433 0.89388 0.0
H3930 H 0.9955 0.59853 0.87772 0.0
H3931 H 0.98601 0.60026 0.84361 0.0
H3932 H 0.95299 0.5938 0.91002 0.0
H3933 H 0.02297 0.63412 0.92436 0.0
H3934 H 1.00737 0.63534 0.90313 0.0
H3935 H 0.01959 0.6172 0.90288 0.0
C3936 C 0.95504 0.62034 0.86316 0.0
C3937 C 0.96385 0.61316 0.84857 0.0
C3938 C 0.96065 0.6194 0.88298 0.0
C3939 C 0.97532 0.61153 0.8886 0.0
C3940 C 0.98449 0.60511 0.87404 0.0
H3941 H 0.99183 0.5453 0.97762 0.0
H3942 H 0.98325 0.55899 0.94892 0.0
C3943 C 0.97892 0.606 0.8544 0.0
C3944 C 0.98007 0.60812 0.90911 0.0
H3945 H 0.01606 0.61025 0.94452 0.0
C3946 C 0.96674 0.59772 0.9177 0.0
C3947 C 0.99794 0.61339 0.91948 0.0
C3948 C 0.01271 0.62581 0.91205 0.0
C3949 C 0.97093 0.59158 0.93563 0.0
C3950 C 0.98906 0.59549 0.94512 0.0
C3951 C 1.00221 0.60685 0.93716 0.0
C3952 C 0.99473 0.58726 0.96274 0.0
C3953 C 0.9558 0.58087 0.94415 0.0
C3954 C 1.00484 0.59842 0.97997 0.0
C3955 C 0.01006 0.59052 0.99641 0.0
C3956 C 1.00528 0.5713 0.99594 0.0
C3957 C 0.99555 0.56016 0.97856 0.0
C3958 C 0.99048 0.56802 0.96215 0.0
H3959 H 0.94286 0.5846 0.93928 0.0
H3960 H 0.95412 0.5659 0.93899 0.0
H3961 H 0.95858 0.58338 0.96039 0.0
H3962 H 1.0085 0.61327 0.98079 0.0
H3963 H 0.01759 0.59947 0.00956 0.0
H3964 H 0.24722 0.19256 0.55613 0.0
H3965 H 0.264 0.20984 0.58733 0.0
H3966 H 0.3109 0.1898 0.57601 0.0
H3967 H 0.2942 0.17228 0.54462 0.0
H3968 H 0.28679 0.19365 0.61964 0.0
H3969 H 0.32236 0.25072 0.58535 0.0
H3970 H 0.30082 0.23688 0.57303 0.0
H3971 H 0.32004 0.22677 0.57526 0.0
C3972 C 0.26103 0.19164 0.56031 0.0
C3973 C 0.2694 0.18114 0.54788 0.0
C3974 C 0.27057 0.20149 0.57812 0.0
C3975 C 0.28862 0.20107 0.58376 0.0
C3976 C 0.29696 0.19024 0.57175 0.0
H3977 H 0.31971 0.26801 0.70068 0.0
H3978 H 0.32656 0.24771 0.67366 0.0
C3979 C 0.28738 0.18027 0.5539 0.0
C3980 C 0.29856 0.21277 0.60196 0.0
H3981 H 0.31961 0.25772 0.61862 0.0
C3982 C 0.29461 0.20745 0.61967 0.0
C3983 C 0.30872 0.23067 0.60169 0.0
C3984 C 0.31336 0.23673 0.58286 0.0
C3985 C 0.299 0.22025 0.63697 0.0
C3986 C 0.30758 0.23872 0.63633 0.0
C3987 C 0.31311 0.24352 0.61898 0.0
C3988 C 0.3068 0.25365 0.65184 0.0
C3989 C 0.29277 0.21446 0.65531 0.0
C3990 C 0.29401 0.26421 0.64821 0.0
C3991 C 0.28989 0.27555 0.66352 0.0
C3992 C 0.29859 0.27659 0.68274 0.0
C3993 C 0.3125 0.26716 0.68606 0.0
C3994 C 0.31654 0.25568 0.67069 0.0
H3995 H 0.28565 0.19969 0.65305 0.0
H3996 H 0.30452 0.21669 0.6671 0.0
H3997 H 0.28356 0.22302 0.66039 0.0
H3998 H 0.28629 0.2627 0.63371 0.0
H3999 H 0.27902 0.28245 0.66043 0.0
H4000 H 0.65104 0.56243 0.25588 0.0
H4001 H 0.63577 0.5615 0.22263 0.0
H4002 H 0.60039 0.5098 0.22613 0.0
H4003 H 0.61544 0.51111 0.25984 0.0
H4004 H 0.62971 0.54006 0.18832 0.0
H4005 H 0.56386 0.53912 0.21256 0.0
H4006 H 0.58441 0.54254 0.22963 0.0
H4007 H 0.57298 0.51969 0.21754 0.0
C4008 C 0.64034 0.55058 0.24934 0.0
C4009 C 0.63475 0.53663 0.26038 0.0
C4010 C 0.63147 0.55012 0.23031 0.0
C4011 C 0.61655 0.5358 0.22174 0.0
C4012 C 0.61152 0.5213 0.2324 0.0
H4013 H 0.56912 0.52583 0.09694 0.0
H4014 H 0.5849 0.52098 0.12797 0.0
C4015 C 0.62037 0.52182 0.25158 0.0
C4016 C 0.60609 0.53664 0.20209 0.0
H4017 H 0.56423 0.53748 0.17864 0.0
C4018 C 0.61537 0.5394 0.18625 0.0
C4019 C 0.58737 0.53616 0.1992 0.0
C4020 C 0.57657 0.5344 0.21565 0.0
C4021 C 0.60661 0.54165 0.16789 0.0
C4022 C 0.58783 0.54077 0.16488 0.0
C4023 C 0.57854 0.53801 0.1807 0.0
C4024 C 0.57772 0.54334 0.14575 0.0
C4025 C 0.61778 0.54564 0.15209 0.0
C4026 C 0.56776 0.55712 0.14513 0.0
C4027 C 0.55853 0.55985 0.12732 0.0
C4028 C 0.55889 0.5488 0.10953 0.0
C4029 C 0.56859 0.53477 0.11021 0.0
C4030 C 0.57779 0.53204 0.12804 0.0
H4031 H 0.63227 0.55096 0.15822 0.0
H4032 H 0.61646 0.5327 0.1418 0.0
H4033 H 0.61317 0.55591 0.14369 0.0
H4034 H 0.56731 0.56602 0.15846 0.0
H4035 H 0.55121 0.57075 0.12753 0.0
H4036 H 0.23593 0.9018 0.98865 0.0
H4037 H 0.24095 0.88809 0.95671 0.0
H4038 H 0.22189 0.83366 0.97039 0.0
H4039 H 0.21776 0.84749 0.00271 0.0
H4040 H 0.2519 0.83459 0.95888 0.0
H4041 H 0.21291 0.86492 0.90489 0.0
H4042 H 0.2277 0.88274 0.9227 0.0
H4043 H 0.20983 0.8669 0.93015 0.0
C4044 C 0.23202 0.88693 0.98444 0.0
C4045 C 0.22592 0.87572 0.99794 0.0
C4046 C 0.23496 0.87904 0.96613 0.0
C4047 C 0.23164 0.85972 0.96079 0.0
C4048 C 0.22455 0.84856 0.97396 0.0
H4049 H 0.24784 0.8123 0.84389 0.0
H4050 H 0.23442 0.82168 0.87246 0.0
C4051 C 0.2219 0.85646 0.99235 0.0
C4052 C 0.23748 0.85121 0.94275 0.0
H4053 H 0.23707 0.85257 0.89389 0.0
C4054 C 0.2484 0.83838 0.94463 0.0
C4055 C 0.23286 0.8558 0.92394 0.0
C4056 C 0.22002 0.86818 0.92025 0.0
C4057 C 0.25511 0.83044 0.9286 0.0
C4058 C 0.25151 0.83599 0.91006 0.0
C4059 C 0.24016 0.84842 0.90803 0.0
C4060 C 0.25954 0.82932 0.89276 0.0
C4061 C 0.26569 0.81589 0.93178 0.0
C4062 C 0.27817 0.83036 0.89438 0.0
C4063 C 0.28574 0.82446 0.8782 0.0
C4064 C 0.27501 0.81793 0.85974 0.0
C4065 C 0.25644 0.81709 0.85796 0.0
C4066 C 0.24878 0.82259 0.8743 0.0
H4067 H 0.26161 0.80853 0.94387 0.0
H4068 H 0.26387 0.80554 0.91839 0.0
H4069 H 0.28019 0.82261 0.93599 0.0
H4070 H 0.287 0.83614 0.90811 0.0
H4071 H 0.30015 0.82569 0.88001 0.0
H4072 H 0.93814 0.61524 0.7254 0.0
H4073 H 0.94792 0.61194 0.69321 0.0
H4074 H 1.00055 0.60916 0.72096 0.0
H4075 H 0.99072 0.61187 0.75283 0.0
H4076 H 0.97584 0.62947 0.67493 0.0
H4077 H 0.98359 0.55936 0.68572 0.0
H4078 H 0.97261 0.57279 0.70149 0.0
H4079 H 0.99678 0.57703 0.70487 0.0
C4080 C 0.95194 0.61448 0.72463 0.0
C4081 C 0.96364 0.61371 0.74161 0.0
C4082 C 0.95749 0.61245 0.70623 0.0
C4083 C 0.97483 0.60972 0.70459 0.0
C4084 C 0.98696 0.61069 0.72175 0.0
H4085 H 0.03462 0.58177 0.61243 0.0
H4086 H 0.02445 0.5911 0.64316 0.0
C4087 C 0.98138 0.61244 0.74 0.0
C4088 C 0.97995 0.60449 0.6851 0.0
H4089 H 0.99509 0.57084 0.65865 0.0
C4090 C 0.97993 0.61661 0.67132 0.0
C4091 C 0.98517 0.5876 0.68025 0.0
C4092 C 0.98438 0.57336 0.69377 0.0
C4093 C 0.98554 0.61256 0.65314 0.0
C4094 C 0.99118 0.59589 0.64856 0.0
C4095 C 0.99094 0.58369 0.66223 0.0
C4096 C 0.99739 0.59075 0.62971 0.0
C4097 C 0.98584 0.62634 0.63916 0.0
C4098 C 0.98551 0.58719 0.61189 0.0
C4099 C 0.99124 0.5817 0.59428 0.0
C4100 C 1.00902 0.57967 0.59406 0.0
C4101 C 0.02087 0.58322 0.61197 0.0
C4102 C 0.01508 0.58858 0.62959 0.0
H4103 H 0.98486 0.64009 0.64645 0.0
H4104 H 0.99833 0.62796 0.6326 0.0
H4105 H 0.97423 0.62127 0.62712 0.0
H4106 H 0.97171 0.58843 0.61162 0.0
H4107 H 0.98171 0.57909 0.58082 0.0
H4108 H 0.25791 0.21309 0.46696 0.0
H4109 H 0.26701 0.23311 0.4435 0.0
H4110 H 0.28379 0.1889 0.41041 0.0
H4111 H 0.2749 0.16858 0.43422 0.0
H4112 H 0.30539 0.23696 0.42073 0.0
H4113 H 0.23478 0.20925 0.38221 0.0
H4114 H 0.2394 0.21236 0.40855 0.0
H4115 H 0.24722 0.19482 0.39446 0.0
C4116 C 0.26376 0.20764 0.45485 0.0
C4117 C 0.2654 0.18918 0.45215 0.0
C4118 C 0.26915 0.21918 0.44164 0.0
C4119 C 0.2761 0.21243 0.42542 0.0
C4120 C 0.27862 0.1943 0.42307 0.0
H4121 H 0.28116 0.25285 0.31795 0.0
H4122 H 0.28985 0.24008 0.34725 0.0
C4123 C 0.27343 0.18273 0.43653 0.0
C4124 C 0.27774 0.22348 0.40959 0.0
H4125 H 0.25204 0.23418 0.37107 0.0
C4126 C 0.29386 0.23629 0.4097 0.0
C4127 C 0.26252 0.22259 0.39551 0.0
C4128 C 0.24495 0.20903 0.395 0.0
C4129 C 0.29504 0.24838 0.39587 0.0
C4130 C 0.27969 0.24765 0.38208 0.0
C4131 C 0.26368 0.23476 0.38195 0.0
C4132 C 0.27988 0.2591 0.36655 0.0
C4133 C 0.31247 0.26196 0.39603 0.0
C4134 C 0.27199 0.27444 0.36801 0.0
C4135 C 0.26711 0.28188 0.35127 0.0
C4136 C 0.26967 0.27363 0.33302 0.0
C4137 C 0.27879 0.2592 0.3319 0.0
C4138 C 0.28396 0.25205 0.3486 0.0
H4139 H 0.32302 0.26135 0.40826 0.0
H4140 H 0.3174 0.25902 0.38199 0.0
H4141 H 0.31016 0.27618 0.39726 0.0
H4142 H 0.26853 0.2798 0.3818 0.0
H4143 H 0.26017 0.29308 0.35235 0.0
H4144 H 0.36101 0.64111 0.53104 0.0
H4145 H 0.3848 0.62417 0.52944 0.0
H4146 H 0.42459 0.67426 0.55307 0.0
H4147 H 0.40066 0.69129 0.55526 0.0
H4148 H 0.41167 0.6265 0.50939 0.0
H4149 H 0.44101 0.64063 0.58801 0.0
H4150 H 0.41994 0.64609 0.57911 0.0
H4151 H 0.44093 0.66131 0.57764 0.0
C4152 C 0.3748 0.6486 0.53606 0.0
C4153 C 0.3788 0.66765 0.54341 0.0
C4154 C 0.38847 0.63882 0.53508 0.0
C4155 C 0.40664 0.64772 0.54139 0.0
C4156 C 0.41073 0.66682 0.54857 0.0
H4157 H 0.50817 0.61323 0.54318 0.0
H4158 H 0.48403 0.6298 0.54276 0.0
C4159 C 0.397 0.67663 0.54971 0.0
C4160 C 0.42111 0.63699 0.53998 0.0
H4161 H 0.45734 0.62634 0.56643 0.0
C4162 C 0.42158 0.62643 0.52193 0.0
C4163 C 0.43412 0.63668 0.55627 0.0
C4164 C 0.43391 0.64662 0.57639 0.0
C4165 C 0.43476 0.61601 0.51966 0.0
C4166 C 0.44786 0.6159 0.53589 0.0
C4167 C 0.44738 0.6264 0.55393 0.0
C4168 C 0.46245 0.60541 0.53448 0.0
C4169 C 0.4348 0.60554 0.49976 0.0
C4170 C 0.45857 0.586 0.52965 0.0
C4171 C 0.47249 0.57633 0.52986 0.0
C4172 C 0.49066 0.58583 0.53499 0.0
C4173 C 0.49443 0.6053 0.53918 0.0
C4174 C 0.48057 0.61489 0.53902 0.0
H4175 H 0.42663 0.61035 0.48798 0.0
H4176 H 0.44873 0.60699 0.49656 0.0
H4177 H 0.42902 0.59066 0.49947 0.0
H4178 H 0.44473 0.57826 0.52636 0.0
H4179 H 0.46899 0.56139 0.52679 0.0
H4180 H 0.87797 1.00225 0.64415 0.0
H4181 H 0.90331 0.0203 0.63231 0.0
H4182 H 0.86672 0.03364 0.5869 0.0
H4183 H 0.84119 0.01583 0.59898 0.0
H4184 H 0.89066 0.01006 0.57534 0.0
H4185 H 0.92773 0.074 0.62506 0.0
H4186 H 0.9203 0.05466 0.63709 0.0
H4187 H 0.90395 0.06457 0.62397 0.0
C4188 C 0.87528 0.00976 0.63223 0.0
C4189 C 0.85768 0.00754 0.62236 0.0
C4190 C 0.88977 0.02015 0.62554 0.0
C4191 C 0.88686 0.02831 0.60876 0.0
C4192 C 0.86919 0.02759 0.60001 0.0
H4193 H 0.96955 0.03374 0.5325 0.0
H4194 H 0.94129 0.03689 0.54366 0.0
C4195 C 0.85463 0.01745 0.60694 0.0
C4196 C 0.902 0.0333 0.59806 0.0
H4197 H 0.94451 0.05975 0.60343 0.0
C4198 C 0.90233 0.02119 0.58114 0.0
C4199 C 0.91717 0.04764 0.60592 0.0
C4200 C 0.91729 0.06108 0.62394 0.0
C4201 C 0.91794 0.0221 0.57269 0.0
C4202 C 0.93345 0.03612 0.58091 0.0
C4203 C 0.93268 0.04898 0.59714 0.0
C4204 C 0.95101 0.03653 0.57415 0.0
C4205 C 0.91795 0.0071 0.55604 0.0
C4206 C 0.96624 0.0365 0.58768 0.0
C4207 C 0.98253 0.03545 0.5814 0.0
C4208 C 0.98372 0.03391 0.56144 0.0
C4209 C 0.96872 0.03441 0.54792 0.0
C4210 C 0.95259 0.03614 0.55429 0.0
H4211 H 0.90675 0.99487 0.55513 0.0
H4212 H 0.9162 0.01249 0.54201 0.0
H4213 H 0.93078 1.00243 0.55762 0.0
H4214 H 0.96544 0.03687 0.60309 0.0
H4215 H 0.99406 0.03529 0.59207 0.0
H4216 H 0.89871 0.15005 0.31323 0.0
H4217 H 0.88321 0.17528 0.31444 0.0
H4218 H 0.83632 0.13934 0.27838 0.0
H4219 H 0.85192 0.1136 0.27731 0.0
H4220 H 0.87089 0.19402 0.28845 0.0
H4221 H 0.81147 0.16179 0.31887 0.0
H4222 H 0.83066 0.15153 0.31792 0.0
H4223 H 0.81426 0.14912 0.29632 0.0
C4224 C 0.88504 0.14723 0.30552 0.0
C4225 C 0.8768 0.12929 0.2952 0.0
C4226 C 0.87608 0.16196 0.30623 0.0
C4227 C 0.85823 0.15972 0.29681 0.0
C4228 C 0.84985 0.14183 0.28632 0.0
H4229 H 0.78536 0.23939 0.29269 0.0
H4230 H 0.79857 0.2122 0.28936 0.0
C4231 C 0.85892 0.12693 0.28556 0.0
C4232 C 0.84903 0.17627 0.29779 0.0
H4233 H 0.81192 0.19135 0.31031 0.0
C4234 C 0.85798 0.19329 0.29329 0.0
C4235 C 0.83203 0.17591 0.30393 0.0
C4236 C 0.82157 0.15869 0.30971 0.0
C4237 C 0.85064 0.20935 0.29445 0.0
C4238 C 0.83383 0.20918 0.30107 0.0
C4239 C 0.82476 0.19207 0.30535 0.0
C4240 C 0.82549 0.22633 0.30352 0.0
C4241 C 0.86092 0.22619 0.28777 0.0
C4242 C 0.83564 0.24395 0.313 0.0
C4243 C 0.82806 0.25976 0.31467 0.0
C4244 C 0.80977 0.25875 0.30745 0.0
C4245 C 0.79943 0.24105 0.29857 0.0
C4246 C 0.80709 0.22528 0.29664 0.0
H4247 H 0.86949 0.22237 0.27702 0.0
H4248 H 0.85175 0.2341 0.28094 0.0
H4249 H 0.86997 0.23527 0.30054 0.0
H4250 H 0.84958 0.2456 0.31933 0.0
H4251 H 0.83664 0.27288 0.32177 0.0
H4252 H 0.80186 0.15571 0.0338 0.0
H4253 H 0.77382 0.13146 0.02771 0.0
H4254 H 0.74634 0.17032 0.0543 0.0
H4255 H 0.77377 0.19428 0.06024 0.0
H4256 H 0.75043 0.11795 0.05526 0.0
H4257 H 0.71561 0.15036 0.99954 0.0
H4258 H 0.73982 0.15555 0.00615 0.0
H4259 H 0.72645 0.16674 0.02092 0.0
C4260 C 0.78982 0.15897 0.03841 0.0
C4261 C 0.78996 0.17697 0.04725 0.0
C4262 C 0.77386 0.14516 0.03487 0.0
C4263 C 0.75794 0.14928 0.04012 0.0
C4264 C 0.75835 0.167 0.04965 0.0
H4265 H 0.66479 0.10816 0.08005 0.0
H4266 H 0.69526 0.11655 0.07295 0.0
C4267 C 0.7741 0.18068 0.05308 0.0
C4268 C 0.74066 0.13541 0.03616 0.0
H4269 H 0.69652 0.1315 0.01778 0.0
C4270 C 0.73868 0.12054 0.04662 0.0
C4271 C 0.72541 0.13854 0.02456 0.0
C4272 C 0.72694 0.15356 0.01198 0.0
C4273 C 0.72155 0.10986 0.04729 0.0
C4274 C 0.70612 0.11447 0.03756 0.0
C4275 C 0.7083 0.12813 0.02552 0.0
C4276 C 0.68781 0.10724 0.04174 0.0
C4277 C 0.72012 0.09422 0.05902 0.0
C4278 C 0.67334 0.09949 0.02652 0.0
C4279 C 0.65575 0.09496 0.03053 0.0
C4280 C 0.65232 0.09829 0.04981 0.0
C4281 C 0.66692 0.1056 0.06502 0.0
C4282 C 0.68442 0.11013 0.06101 0.0
H4283 H 0.73209 0.08808 0.05905 0.0
H4284 H 0.71954 0.09961 0.07441 0.0
H4285 H 0.70784 0.08321 0.05318 0.0
H4286 H 0.67561 0.09738 0.01151 0.0
H4287 H 0.64479 0.08953 0.01845 0.0
H4288 H 0.16428 0.45692 0.34208 0.0
H4289 H 0.18143 0.43281 0.34141 0.0
H4290 H 0.17123 0.42376 0.27842 0.0
H4291 H 0.15402 0.44801 0.27889 0.0
H4292 H 0.16469 0.39011 0.29965 0.0
H4293 H 0.23242 0.43702 0.32246 0.0
H4294 H 0.21475 0.44168 0.33549 0.0
H4295 H 0.21353 0.44436 0.31024 0.0
C4296 C 0.16567 0.44988 0.32803 0.0
C4297 C 0.15775 0.45453 0.31052 0.0
C4298 C 0.17555 0.43609 0.3277 0.0
C4299 C 0.17777 0.42657 0.30988 0.0
C4300 C 0.16974 0.43096 0.29235 0.0
H4301 H 0.22517 0.33406 0.27625 0.0
H4302 H 0.20785 0.35761 0.27824 0.0
C4303 C 0.1599 0.44484 0.29265 0.0
C4304 C 0.18831 0.4119 0.30966 0.0
H4305 H 0.23098 0.40506 0.31959 0.0
C4306 C 0.17919 0.39335 0.30396 0.0
C4307 C 0.2072 0.41613 0.31544 0.0
C4308 C 0.21768 0.43586 0.32117 0.0
C4309 C 0.1884 0.37892 0.30405 0.0
C4310 C 0.20739 0.38312 0.30965 0.0
C4311 C 0.21647 0.40173 0.31544 0.0
C4312 C 0.21812 0.36852 0.30874 0.0
C4313 C 0.17757 0.35929 0.29847 0.0
C4314 C 0.2304 0.36703 0.32499 0.0
C4315 C 0.2407 0.35351 0.32379 0.0
C4316 C 0.23886 0.34115 0.30631 0.0
C4317 C 0.22667 0.34287 0.29012 0.0
C4318 C 0.21661 0.35642 0.29125 0.0
H4319 H 0.16344 0.35817 0.3009 0.0
H4320 H 0.1772 0.35462 0.28267 0.0
H4321 H 0.18356 0.3498 0.30689 0.0
H4322 H 0.23202 0.37631 0.33864 0.0
H4323 H 0.25007 0.35275 0.3365 0.0
H4324 H 0.25569 0.50092 0.11452 0.0
H4325 H 0.22874 0.5116 0.10302 0.0
H4326 H 0.23756 0.49994 0.04345 0.0
H4327 H 0.26473 0.48978 0.05483 0.0
H4328 H 0.22997 0.533 0.0508 0.0
H4329 H 0.17996 0.48119 0.07673 0.0
H4330 H 0.1976 0.49381 0.096 0.0
H4331 H 0.20282 0.47904 0.07621 0.0
C4332 C 0.25187 0.50062 0.09897 0.0
C4333 C 0.26234 0.49453 0.08558 0.0
C4334 C 0.23638 0.50657 0.09241 0.0
C4335 C 0.23096 0.50624 0.07234 0.0
C4336 C 0.24146 0.50024 0.05899 0.0
H4337 H 0.12654 0.52269 0.02184 0.0
H4338 H 0.15288 0.50977 0.02979 0.0
C4339 C 0.25701 0.49447 0.06553 0.0
C4340 C 0.21478 0.51285 0.06526 0.0
H4341 H 0.16977 0.50699 0.06628 0.0
C4342 C 0.21678 0.52723 0.05408 0.0
C4343 C 0.19753 0.50508 0.06923 0.0
C4344 C 0.19427 0.4888 0.08002 0.0
C4345 C 0.2021 0.53438 0.04722 0.0
C4346 C 0.18506 0.52728 0.05208 0.0
C4347 C 0.18292 0.51256 0.06278 0.0
C4348 C 0.16938 0.53525 0.04662 0.0
C4349 C 0.20495 0.54936 0.03467 0.0
C4350 C 0.16995 0.55381 0.0535 0.0
C4351 C 0.15496 0.56122 0.04899 0.0
C4352 C 0.13906 0.55013 0.03765 0.0
C4353 C 0.13857 0.53154 0.0307 0.0
C4354 C 0.15359 0.52416 0.03519 0.0
H4355 H 0.21703 0.54932 0.02756 0.0
H4356 H 0.19309 0.54777 0.02314 0.0
H4357 H 0.20702 0.56301 0.04399 0.0
H4358 H 0.18186 0.56248 0.06274 0.0
H4359 H 0.15565 0.57546 0.05492 0.0
H4360 H 0.89143 0.00486 0.30628 0.0
H4361 H 0.87354 0.97481 0.30836 0.0
H4362 H 0.8273 0.98756 0.27582 0.0
H4363 H 0.84563 0.01824 0.27337 0.0
H4364 H 0.84518 0.96364 0.32498 0.0
H4365 H 0.82594 0.93721 0.24544 0.0
H4366 H 0.84285 0.95811 0.25488 0.0
H4367 H 0.81942 0.9582 0.25375 0.0
C4368 C 0.87744 1.0015 0.29946 0.0
C4369 C 0.87021 0.01432 0.2895 0.0
C4370 C 0.8671 0.98406 0.30074 0.0
C4371 C 0.84894 0.97832 0.29202 0.0
C4372 C 0.84135 0.99119 0.28239 0.0
H4373 H 0.77926 0.86556 0.29133 0.0
H4374 H 0.78913 0.89813 0.28697 0.0
C4375 C 0.85181 0.00896 0.28119 0.0
C4376 C 0.83854 0.95902 0.29358 0.0
H4377 H 0.81629 0.91675 0.26687 0.0
C4378 C 0.83878 0.95352 0.31218 0.0
C4379 C 0.82998 0.94543 0.27709 0.0
C4380 C 0.82958 0.94988 0.25662 0.0
C4381 C 0.83121 0.93523 0.31471 0.0
C4382 C 0.82324 0.92147 0.29822 0.0
C4383 C 0.82236 0.92704 0.27963 0.0
C4384 C 0.81689 0.90121 0.30011 0.0
C4385 C 0.83187 0.93082 0.33523 0.0
C4386 C 0.82902 0.89158 0.3086 0.0
C4387 C 0.82341 0.87299 0.31102 0.0
C4388 C 0.80539 0.86313 0.30508 0.0
C4389 C 0.7932 0.87259 0.29624 0.0
C4390 C 0.79889 0.8913 0.29369 0.0
H4391 H 0.83317 0.9434 0.3461 0.0
H4392 H 0.81963 0.92055 0.33657 0.0
H4393 H 0.84376 0.92494 0.33898 0.0
H4394 H 0.84302 0.89846 0.31338 0.0
H4395 H 0.83335 0.86634 0.31771 0.0
H4396 H 0.64403 0.07031 0.81773 0.0
H4397 H 0.6683 0.0971 0.81838 0.0
H4398 H 0.70179 0.06139 0.79842 0.0
H4399 H 0.67745 0.03426 0.79776 0.0
H4400 H 0.71899 0.0958 0.83042 0.0
H4401 H 0.68 0.10853 0.7625 0.0
H4402 H 0.66786 0.10483 0.78247 0.0
H4403 H 0.67614 0.08633 0.77064 0.0
C4404 C 0.65663 0.06806 0.81373 0.0
C4405 C 0.65871 0.05014 0.80739 0.0
C4406 C 0.67049 0.08341 0.81418 0.0
C4407 C 0.6867 0.08119 0.80824 0.0
C4408 C 0.68932 0.06333 0.80304 0.0
H4409 H 0.75955 0.16616 0.7659 0.0
H4410 H 0.74224 0.13658 0.77143 0.0
C4411 C 0.67542 0.04787 0.80265 0.0
C4412 C 0.7 0.09758 0.80559 0.0
H4413 H 0.70585 0.13145 0.77716 0.0
C4414 C 0.71624 0.10356 0.81872 0.0
C4415 C 0.69633 0.10757 0.79025 0.0
C4416 C 0.67921 0.10148 0.77553 0.0
C4417 C 0.72878 0.11962 0.81712 0.0
C4418 C 0.72488 0.12982 0.80203 0.0
C4419 C 0.7088 0.12358 0.7887 0.0
C4420 C 0.73703 0.14725 0.79984 0.0
C4421 C 0.74611 0.12552 0.83148 0.0
C4422 C 0.73988 0.16303 0.81402 0.0
C4423 C 0.74958 0.18001 0.81081 0.0
C4424 C 0.75658 0.18154 0.79331 0.0
C4425 C 0.75412 0.16555 0.7794 0.0
C4426 C 0.74437 0.1486 0.78259 0.0
H4427 H 0.74891 0.11412 0.83926 0.0
H4428 H 0.75761 0.13041 0.82395 0.0
H4429 H 0.74514 0.13714 0.84254 0.0
H4430 H 0.734 0.16236 0.82724 0.0
H4431 H 0.75094 0.19207 0.82171 0.0
loop_
_geom_bond_atom_site_label_1
_geom_bond_atom_site_label_2
_geom_bond_distance
_geom_bond_site_symmetry_2
_ccdc_geom_bond_type
Zn0 O3 2.031 . S
Zn0 O5 2.049 . S
Zn0 O10 2.067 . S
Zn1 O2 1.962 . S
Zn1 O4 1.986 . S
Zn1 O6 1.996 . S
Zn1 O9 1.943 . S
O2 Zn1 1.962 . S
O2 C7 1.254 . S
O3 Zn0 2.031 . S
O3 C7 1.269 . S
O4 Zn1 1.986 . S
O4 C11 1.262 . S
O5 Zn0 2.049 . S
O5 C13 1.260 . S
O6 Zn1 1.996 . S
O6 C13 1.257 . S
C7 O2 1.254 . S
C7 O3 1.269 . S
C8 O9 1.249 . S
C8 O10 1.270 . S
O9 Zn1 1.943 . S
O9 C8 1.249 . S
O10 Zn0 2.067 . S
O10 C8 1.270 . S
C11 O4 1.262 . S
C11 O12 1.232 . S
O12 C11 1.232 . S
C13 O5 1.260 . S
C13 O6 1.257 . S
Zn14 O17 2.031 1_455 S
Zn14 O19 2.049 . S
Zn14 O24 2.067 . S
Zn15 O16 1.937 1_455 S
Zn15 O18 1.997 . S
Zn15 O20 2.015 . S
Zn15 O23 1.948 1_455 S
O16 Zn15 1.937 1_655 S
O16 C21 1.254 . S
O17 Zn14 2.031 1_655 S
O17 C21 1.269 . S
O18 Zn15 1.997 . S
O18 C25 1.262 . S
O19 Zn14 2.049 . S
O19 C27 1.260 . S
O20 Zn15 2.015 . S
O20 C27 1.257 . S
C21 O16 1.254 . S
C21 O17 1.269 . S
C22 O23 1.249 . S
C22 O24 1.270 1_655 S
O23 Zn15 1.948 1_655 S
O23 C22 1.249 . S
O24 Zn14 2.067 . S
O24 C22 1.270 1_455 S
C25 O18 1.262 . S
C25 O26 1.232 1_455 S
O26 C25 1.232 1_655 S
C27 O19 1.260 . S
C27 O20 1.257 . S
Zn28 O31 2.031 . S
Zn28 O33 2.049 . S
Zn28 O38 2.067 . S
Zn29 O30 1.962 . S
Zn29 O32 1.986 . S
Zn29 O34 1.996 . S
Zn29 O37 1.943 . S
O30 Zn29 1.962 . S
O30 C35 1.254 . S
O31 Zn28 2.031 . S
O31 C35 1.269 . S
O32 Zn29 1.986 . S
O32 C39 1.262 . S
O33 Zn28 2.049 . S
O33 C41 1.260 . S
O34 Zn29 1.996 . S
O34 C41 1.257 . S
C35 O30 1.254 . S
C35 O31 1.269 . S
C36 O37 1.249 . S
C36 O38 1.270 . S
O37 Zn29 1.943 . S
O37 C36 1.249 . S
O38 Zn28 2.067 . S
O38 C36 1.270 . S
C39 O32 1.262 . S
C39 O40 1.232 . S
O40 C39 1.232 . S
C41 O33 1.260 . S
C41 O34 1.257 . S
Zn42 O45 2.031 . S
Zn42 O47 2.049 . S
Zn42 O52 2.067 . S
Zn43 O44 1.962 . S
Zn43 O46 1.986 . S
Zn43 O48 1.996 . S
Zn43 O51 1.943 . S
O44 Zn43 1.962 . S
O44 C49 1.254 . S
O45 Zn42 2.031 . S
O45 C49 1.269 . S
O46 Zn43 1.986 . S
O46 C53 1.262 . S
O47 Zn42 2.049 . S
O47 C55 1.260 . S
O48 Zn43 1.996 . S
O48 C55 1.257 . S
C49 O44 1.254 . S
C49 O45 1.269 . S
C50 O51 1.249 . S
C50 O52 1.270 . S
O51 Zn43 1.943 . S
O51 C50 1.249 . S
O52 Zn42 2.067 . S
O52 C50 1.270 . S
C53 O46 1.262 . S
C53 O54 1.232 . S
O54 C53 1.232 . S
C55 O47 1.260 . S
C55 O48 1.257 . S
Zn56 O59 2.031 . S
Zn56 O61 2.049 . S
Zn56 O66 2.067 . S
Zn57 O58 1.962 . S
Zn57 O60 1.986 1_455 S
Zn57 O62 1.996 . S
Zn57 O65 1.943 . S
O58 Zn57 1.962 . S
O58 C63 1.254 . S
O59 Zn56 2.031 . S
O59 C63 1.269 . S
O60 Zn57 1.986 1_655 S
O60 C67 1.262 . S
O61 Zn56 2.049 . S
O61 C69 1.260 . S
O62 Zn57 1.996 . S
O62 C69 1.257 . S
C63 O58 1.254 . S
C63 O59 1.269 . S
C64 O65 1.249 . S
C64 O66 1.270 . S
O65 Zn57 1.943 . S
O65 C64 1.249 . S
O66 Zn56 2.067 . S
O66 C64 1.270 . S
C67 O60 1.262 . S
C67 O68 1.232 . S
O68 C67 1.232 . S
C69 O61 1.260 . S
C69 O62 1.257 . S
Zn70 O73 2.031 . S
Zn70 O75 2.049 . S
Zn70 O80 2.067 . S
Zn71 O72 1.962 . S
Zn71 O74 1.986 . S
Zn71 O76 1.996 . S
Zn71 O79 1.943 . S
O72 Zn71 1.962 . S
O72 C77 1.254 . S
O73 Zn70 2.031 . S
O73 C77 1.269 . S
O74 Zn71 1.986 . S
O74 C81 1.262 . S
O75 Zn70 2.049 . S
O75 C83 1.260 . S
O76 Zn71 1.996 . S
O76 C83 1.257 . S
C77 O72 1.254 . S
C77 O73 1.269 . S
C78 O79 1.249 . S
C78 O80 1.270 . S
O79 Zn71 1.943 . S
O79 C78 1.249 . S
O80 Zn70 2.067 . S
O80 C78 1.270 . S
C81 O74 1.262 . S
C81 O82 1.232 . S
O82 C81 1.232 . S
C83 O75 1.260 . S
C83 O76 1.257 . S
Zn84 O87 2.031 . S
Zn84 O89 2.049 . S
Zn84 O94 2.067 . S
Zn85 O86 1.962 . S
Zn85 O88 1.986 . S
Zn85 O90 1.996 . S
Zn85 O93 1.943 . S
O86 Zn85 1.962 . S
O86 C91 1.254 . S
O87 Zn84 2.031 . S
O87 C91 1.269 . S
O88 Zn85 1.986 . S
O88 C95 1.262 . S
O89 Zn84 2.049 . S
O89 C97 1.260 . S
O90 Zn85 1.996 . S
O90 C97 1.257 . S
C91 O86 1.254 . S
C91 O87 1.269 . S
C92 O93 1.249 . S
C92 O94 1.270 . S
O93 Zn85 1.943 . S
O93 C92 1.249 . S
O94 Zn84 2.067 . S
O94 C92 1.270 . S
C95 O88 1.262 . S
C95 O96 1.232 . S
O96 C95 1.232 . S
C97 O89 1.260 . S
C97 O90 1.257 . S
Zn98 O101 2.031 . S
Zn98 O103 2.049 . S
Zn98 O108 2.067 1_455 S
Zn99 O100 1.962 . S
Zn99 O102 1.986 . S
Zn99 O104 1.996 . S
Zn99 O107 1.943 . S
O100 Zn99 1.962 . S
O100 C105 1.254 . S
O101 Zn98 2.031 . S
O101 C105 1.269 . S
O102 Zn99 1.986 . S
O102 C109 1.262 . S
O103 Zn98 2.049 . S
O103 C111 1.260 . S
O104 Zn99 1.996 . S
O104 C111 1.257 . S
C105 O100 1.254 . S
C105 O101 1.269 . S
C106 O107 1.249 1_655 S
C106 O108 1.270 . S
O107 Zn99 1.943 . S
O107 C106 1.249 1_455 S
O108 Zn98 2.067 1_655 S
O108 C106 1.270 . S
C109 O102 1.262 . S
C109 O110 1.232 . S
O110 C109 1.232 . S
C111 O103 1.260 . S
C111 O104 1.257 . S
Zn112 O115 2.031 . S
Zn112 O117 2.049 . S
Zn112 O122 2.067 . S
Zn113 O114 1.962 . S
Zn113 O116 1.986 . S
Zn113 O118 1.996 . S
Zn113 O121 1.943 . S
O114 Zn113 1.962 . S
O114 C119 1.254 . S
O115 Zn112 2.031 . S
O115 C119 1.269 . S
O116 Zn113 1.986 . S
O116 C123 1.262 . S
O117 Zn112 2.049 . S
O117 C125 1.260 . S
O118 Zn113 1.996 . S
O118 C125 1.257 . S
C119 O114 1.254 . S
C119 O115 1.269 . S
C120 O121 1.249 . S
C120 O122 1.270 . S
O121 Zn113 1.943 . S
O121 C120 1.249 . S
O122 Zn112 2.067 . S
O122 C120 1.270 . S
C123 O116 1.262 . S
C123 O124 1.232 . S
O124 C123 1.232 . S
C125 O117 1.260 . S
C125 O118 1.257 . S
Zn126 O129 2.031 . S
Zn126 O131 2.049 . S
Zn126 O136 2.067 . S
Zn127 O128 1.962 . S
Zn127 O130 1.986 . S
Zn127 O132 1.996 . S
Zn127 O135 1.943 . S
O128 Zn127 1.962 . S
O128 C133 1.254 . S
O129 Zn126 2.031 . S
O129 C133 1.269 . S
O130 Zn127 1.986 . S
O130 C137 1.262 . S
O131 Zn126 2.049 . S
O131 C139 1.260 . S
O132 Zn127 1.996 . S
O132 C139 1.257 . S
C133 O128 1.254 . S
C133 O129 1.269 . S
C134 O135 1.249 . S
C134 O136 1.270 . S
O135 Zn127 1.943 . S
O135 C134 1.249 . S
O136 Zn126 2.067 . S
O136 C134 1.270 . S
C137 O130 1.262 . S
C137 O138 1.232 . S
O138 C137 1.232 . S
C139 O131 1.260 . S
C139 O132 1.257 . S
Zn140 O143 2.031 . S
Zn140 O145 2.049 . S
Zn140 O150 2.067 . S
Zn141 O142 1.962 . S
Zn141 O144 1.986 . S
Zn141 O146 1.996 . S
Zn141 O149 1.943 . S
O142 Zn141 1.962 . S
O142 C147 1.254 . S
O143 Zn140 2.031 . S
O143 C147 1.269 . S
O144 Zn141 1.986 . S
O144 C151 1.251 1_545 S
O145 Zn140 2.049 . S
O145 C153 1.260 . S
O146 Zn141 1.996 . S
O146 C153 1.257 . S
C147 O142 1.254 . S
C147 O143 1.269 . S
C148 O149 1.249 . S
C148 O150 1.270 . S
O149 Zn141 1.943 . S
O149 C148 1.249 . S
O150 Zn140 2.067 . S
O150 C148 1.270 . S
C151 O144 1.251 1_565 S
C151 O152 1.218 1_565 S
O152 C151 1.218 1_545 S
C153 O145 1.260 . S
C153 O146 1.257 . S
Zn154 O157 2.031 . S
Zn154 O159 2.049 . S
Zn154 O164 2.067 . S
Zn155 O156 1.962 . S
Zn155 O158 1.986 . S
Zn155 O160 1.996 . S
Zn155 O163 1.943 . S
O156 Zn155 1.962 . S
O156 C161 1.254 . S
O157 Zn154 2.031 . S
O157 C161 1.269 . S
O158 Zn155 1.986 . S
O158 C165 1.262 . S
O159 Zn154 2.049 . S
O159 C167 1.260 . S
O160 Zn155 1.996 . S
O160 C167 1.257 . S
C161 O156 1.254 . S
C161 O157 1.269 . S
C162 O163 1.249 . S
C162 O164 1.270 . S
O163 Zn155 1.943 . S
O163 C162 1.249 . S
O164 Zn154 2.067 . S
O164 C162 1.270 . S
C165 O158 1.262 . S
C165 O166 1.232 . S
O166 C165 1.232 . S
C167 O159 1.260 . S
C167 O160 1.257 . S
Zn168 O171 2.031 . S
Zn168 O173 2.049 . S
Zn168 O178 2.067 . S
Zn169 O170 1.962 . S
Zn169 O172 1.986 . S
Zn169 O174 1.996 . S
Zn169 O177 1.943 . S
O170 Zn169 1.962 . S
O170 C175 1.254 . S
O171 Zn168 2.031 . S
O171 C175 1.269 . S
O172 Zn169 1.986 . S
O172 C179 1.262 . S
O173 Zn168 2.049 . S
O173 C181 1.260 . S
O174 Zn169 1.996 . S
O174 C181 1.257 . S
C175 O170 1.254 . S
C175 O171 1.269 . S
C176 O177 1.249 . S
C176 O178 1.270 . S
O177 Zn169 1.943 . S
O177 C176 1.249 . S
O178 Zn168 2.067 . S
O178 C176 1.270 . S
C179 O172 1.262 . S
C179 O180 1.232 . S
O180 C179 1.232 . S
C181 O173 1.260 . S
C181 O174 1.257 . S
Zn182 O185 2.031 . S
Zn182 O187 2.049 . S
Zn182 O192 2.067 . S
Zn183 O184 1.962 . S
Zn183 O186 1.986 . S
Zn183 O188 1.996 . S
Zn183 O191 1.943 . S
O184 Zn183 1.962 . S
O184 C189 1.254 . S
O185 Zn182 2.031 . S
O185 C189 1.269 . S
O186 Zn183 1.986 . S
O186 C193 1.262 . S
O187 Zn182 2.049 . S
O187 C195 1.260 . S
O188 Zn183 1.996 . S
O188 C195 1.257 . S
C189 O184 1.254 . S
C189 O185 1.269 . S
C190 O191 1.249 . S
C190 O192 1.270 . S
O191 Zn183 1.943 . S
O191 C190 1.249 . S
O192 Zn182 2.067 . S
O192 C190 1.270 . S
C193 O186 1.262 . S
C193 O194 1.232 . S
O194 C193 1.232 . S
C195 O187 1.260 . S
C195 O188 1.257 . S
Zn196 O199 2.031 . S
Zn196 O201 2.049 . S
Zn196 O206 2.067 . S
Zn197 O198 1.962 . S
Zn197 O200 1.986 . S
Zn197 O202 1.996 . S
Zn197 O205 1.943 . S
O198 Zn197 1.962 . S
O198 C203 1.254 . S
O199 Zn196 2.031 . S
O199 C203 1.269 . S
O200 Zn197 1.986 . S
O200 C207 1.262 . S
O201 Zn196 2.049 . S
O201 C209 1.260 . S
O202 Zn197 1.996 . S
O202 C209 1.257 . S
C203 O198 1.254 . S
C203 O199 1.269 . S
C204 O205 1.249 . S
C204 O206 1.270 . S
O205 Zn197 1.943 . S
O205 C204 1.249 . S
O206 Zn196 2.067 . S
O206 C204 1.270 . S
C207 O200 1.262 . S
C207 O208 1.232 . S
O208 C207 1.232 . S
C209 O201 1.260 . S
C209 O202 1.257 . S
Zn210 O213 2.031 . S
Zn210 O215 2.049 . S
Zn210 O220 2.067 . S
Zn211 O212 1.962 . S
Zn211 O214 1.986 . S
Zn211 O216 1.996 . S
Zn211 O219 1.943 . S
O212 Zn211 1.962 . S
O212 C217 1.254 . S
O213 Zn210 2.031 . S
O213 C217 1.269 . S
O214 Zn211 1.986 . S
O214 C221 1.262 . S
O215 Zn210 2.049 . S
O215 C223 1.260 . S
O216 Zn211 1.996 . S
O216 C223 1.257 . S
C217 O212 1.254 . S
C217 O213 1.269 . S
C218 O219 1.249 . S
C218 O220 1.270 . S
O219 Zn211 1.943 . S
O219 C218 1.249 . S
O220 Zn210 2.067 . S
O220 C218 1.270 . S
C221 O214 1.262 . S
C221 O222 1.232 . S
O222 C221 1.232 . S
C223 O215 1.260 . S
C223 O216 1.257 . S
Zn224 O227 2.031 . S
Zn224 O229 2.049 . S
Zn224 O234 2.067 . S
Zn225 O226 1.962 . S
Zn225 O228 1.986 . S
Zn225 O230 1.996 . S
Zn225 O233 1.943 . S
O226 Zn225 1.962 . S
O226 C231 1.254 . S
O227 Zn224 2.031 . S
O227 C231 1.269 . S
O228 Zn225 1.986 . S
O228 C235 1.262 . S
O229 Zn224 2.049 . S
O229 C237 1.260 . S
O230 Zn225 1.996 . S
O230 C237 1.257 . S
C231 O226 1.254 . S
C231 O227 1.269 . S
C232 O233 1.249 . S
C232 O234 1.270 . S
O233 Zn225 1.943 . S
O233 C232 1.249 . S
O234 Zn224 2.067 . S
O234 C232 1.270 . S
C235 O228 1.262 . S
C235 O236 1.232 . S
O236 C235 1.232 . S
C237 O229 1.260 . S
C237 O230 1.257 . S
Zn238 O241 2.031 . S
Zn238 O243 2.049 . S
Zn238 O248 2.067 . S
Zn239 O240 1.962 . S
Zn239 O242 1.986 . S
Zn239 O244 1.996 . S
Zn239 O247 1.943 . S
O240 Zn239 1.962 . S
O240 C245 1.254 . S
O241 Zn238 2.031 . S
O241 C245 1.269 . S
O242 Zn239 1.986 . S
O242 C249 1.262 . S
O243 Zn238 2.049 . S
O243 C251 1.260 . S
O244 Zn239 1.996 . S
O244 C251 1.257 . S
C245 O240 1.254 . S
C245 O241 1.269 . S
C246 O247 1.249 . S
C246 O248 1.270 . S
O247 Zn239 1.943 . S
O247 C246 1.249 . S
O248 Zn238 2.067 . S
O248 C246 1.270 . S
C249 O242 1.262 . S
C249 O250 1.232 . S
O250 C249 1.232 . S
C251 O243 1.260 . S
C251 O244 1.257 . S
Zn252 O255 2.031 . S
Zn252 O257 2.049 . S
Zn252 O262 2.067 . S
Zn253 O254 1.962 . S
Zn253 O256 1.986 . S
Zn253 O258 1.996 . S
Zn253 O261 1.943 . S
O254 Zn253 1.962 . S
O254 C259 1.254 . S
O255 Zn252 2.031 . S
O255 C259 1.269 . S
O256 Zn253 1.986 . S
O256 C263 1.262 . S
O257 Zn252 2.049 . S
O257 C265 1.260 . S
O258 Zn253 1.996 . S
O258 C265 1.257 . S
C259 O254 1.254 . S
C259 O255 1.269 . S
C260 O261 1.249 . S
C260 O262 1.270 . S
O261 Zn253 1.943 . S
O261 C260 1.249 . S
O262 Zn252 2.067 . S
O262 C260 1.270 . S
C263 O256 1.262 . S
C263 O264 1.232 . S
O264 C263 1.232 . S
C265 O257 1.260 . S
C265 O258 1.257 . S
Zn266 O269 2.031 . S
Zn266 O271 2.049 . S
Zn266 O276 2.067 . S
Zn267 O268 1.962 . S
Zn267 O270 1.986 . S
Zn267 O272 1.996 . S
Zn267 O275 1.943 1_565 S
O268 Zn267 1.962 . S
O268 C273 1.254 1_565 S
O269 Zn266 2.031 . S
O269 C273 1.269 . S
O270 Zn267 1.986 . S
O270 C277 1.262 . S
O271 Zn266 2.049 . S
O271 C279 1.260 . S
O272 Zn267 1.996 . S
O272 C279 1.257 1_565 S
C273 O268 1.254 1_545 S
C273 O269 1.269 . S
C274 O275 1.249 . S
C274 O276 1.270 . S
O275 Zn267 1.943 1_545 S
O275 C274 1.249 . S
O276 Zn266 2.067 . S
O276 C274 1.270 . S
C277 O270 1.262 . S
C277 O278 1.232 . S
O278 C277 1.232 . S
C279 O271 1.260 . S
C279 O272 1.257 1_545 S
Zn280 O283 2.031 1_554 S
Zn280 O285 2.049 . S
Zn280 O290 2.067 . S
Zn281 O282 1.974 . S
Zn281 O284 1.980 1_556 S
Zn281 O286 1.987 1_556 S
Zn281 O289 1.941 . S
O282 Zn281 1.974 . S
O282 C287 1.254 . S
O283 Zn280 2.031 1_556 S
O283 C287 1.269 . S
O284 Zn281 1.980 1_554 S
O284 C291 1.236 1_554 S
O285 Zn280 2.049 . S
O285 C293 1.260 . S
O286 Zn281 1.987 1_554 S
O286 C293 1.257 . S
C287 O282 1.254 . S
C287 O283 1.269 . S
C288 O289 1.249 . S
C288 O290 1.270 1_556 S
O289 Zn281 1.941 . S
O289 C288 1.249 . S
O290 Zn280 2.067 . S
O290 C288 1.270 1_554 S
C291 O284 1.236 1_556 S
C291 O292 1.263 . S
O292 C291 1.263 . S
C293 O285 1.260 . S
C293 O286 1.257 . S
Zn294 O297 2.031 . S
Zn294 O299 2.049 . S
Zn294 O304 2.067 . S
Zn295 O296 1.962 . S
Zn295 O298 1.986 . S
Zn295 O300 1.996 . S
Zn295 O303 1.943 . S
O296 Zn295 1.962 . S
O296 C301 1.254 . S
O297 Zn294 2.031 . S
O297 C301 1.269 . S
O298 Zn295 1.986 . S
O298 C305 1.262 . S
O299 Zn294 2.049 . S
O299 C307 1.260 . S
O300 Zn295 1.996 . S
O300 C307 1.257 . S
C301 O296 1.254 . S
C301 O297 1.269 . S
C302 O303 1.249 . S
C302 O304 1.270 . S
O303 Zn295 1.943 . S
O303 C302 1.249 . S
O304 Zn294 2.067 . S
O304 C302 1.270 . S
C305 O298 1.262 . S
C305 O306 1.232 . S
O306 C305 1.232 . S
C307 O299 1.260 . S
C307 O300 1.257 . S
Zn308 O311 2.031 . S
Zn308 O313 2.049 . S
Zn308 O318 2.067 . S
Zn309 O310 1.962 . S
Zn309 O312 1.986 . S
Zn309 O314 1.996 . S
Zn309 O317 1.943 . S
O310 Zn309 1.962 . S
O310 C315 1.254 . S
O311 Zn308 2.031 . S
O311 C315 1.269 . S
O312 Zn309 1.986 . S
O312 C319 1.262 . S
O313 Zn308 2.049 . S
O313 C321 1.260 . S
O314 Zn309 1.996 . S
O314 C321 1.257 . S
C315 O310 1.254 . S
C315 O311 1.269 . S
C316 O317 1.249 . S
C316 O318 1.270 . S
O317 Zn309 1.943 . S
O317 C316 1.249 . S
O318 Zn308 2.067 . S
O318 C316 1.270 . S
C319 O312 1.262 . S
C319 O320 1.232 . S
O320 C319 1.232 . S
C321 O313 1.260 . S
C321 O314 1.257 . S
Zn322 O325 2.031 . S
Zn322 O327 2.049 . S
Zn322 O332 2.067 . S
Zn323 O324 1.962 . S
Zn323 O326 1.986 . S
Zn323 O328 1.996 . S
Zn323 O331 1.943 . S
O324 Zn323 1.962 . S
O324 C329 1.254 . S
O325 Zn322 2.031 . S
O325 C329 1.269 . S
O326 Zn323 1.986 . S
O326 C333 1.262 . S
O327 Zn322 2.049 . S
O327 C335 1.260 . S
O328 Zn323 1.996 . S
O328 C335 1.257 . S
C329 O324 1.254 . S
C329 O325 1.269 . S
C330 O331 1.249 . S
C330 O332 1.270 . S
O331 Zn323 1.943 . S
O331 C330 1.249 . S
O332 Zn322 2.067 . S
O332 C330 1.270 . S
C333 O326 1.262 . S
C333 O334 1.232 . S
O334 C333 1.232 . S
C335 O327 1.260 . S
C335 O328 1.257 . S
Nd336 C338 2.836 . S
Nd336 O356 2.500 . S
Nd336 O357 2.492 . S
Nd336 O358 2.487 . S
Nd336 O359 2.682 . S
Nd336 O360 2.410 . S
Nd336 O365 2.414 . S
Nd336 O367 2.424 . S
Nd337 C347 2.836 1_545 S
Nd337 O359 2.414 . S
Nd337 O361 2.424 1_455 S
Nd337 O362 2.500 . S
Nd337 O363 2.492 . S
Nd337 O364 2.487 . S
Nd337 O365 2.682 . S
Nd337 O366 2.410 . S
C338 Nd336 2.836 . S
C338 C339 1.498 . S
C338 O356 1.258 . S
C338 O357 1.239 . S
C339 C338 1.498 . S
C339 C340 1.366 . S
C339 C344 1.407 . S
C340 C339 1.366 . S
C340 C341 1.392 . S
C340 H368 0.930 . S
C341 C340 1.392 . S
C341 C342 1.398 . S
C341 H369 0.929 . S
C342 C341 1.398 . S
C342 C343 1.352 . S
C343 C342 1.352 . S
C343 C344 1.384 . S
C343 H370 0.930 . S
C344 C339 1.407 . S
C344 C343 1.384 . S
C344 H371 0.929 . S
C345 O358 1.241 . S
C345 O359 1.273 . S
C346 O360 1.251 1_655 S
C346 O361 1.268 . S
C347 Nd337 2.836 1_565 S
C347 C348 1.498 . S
C347 O362 1.258 1_565 S
C347 O363 1.239 1_565 S
C348 C347 1.498 . S
C348 C349 1.366 . S
C348 C353 1.407 . S
C349 C348 1.366 . S
C349 C350 1.392 . S
C349 H372 0.930 . S
C350 C349 1.392 . S
C350 C351 1.398 . S
C350 H373 0.929 . S
C351 C350 1.398 . S
C351 C352 1.352 . S
C352 C351 1.352 . S
C352 C353 1.384 . S
C352 H374 0.930 . S
C353 C348 1.407 . S
C353 C352 1.384 . S
C353 H375 0.929 . S
C354 O364 1.241 . S
C354 O365 1.273 . S
C355 O366 1.251 . S
C355 O367 1.268 . S
O356 Nd336 2.500 . S
O356 C338 1.258 . S
O357 Nd336 2.492 . S
O357 C338 1.239 . S
O358 Nd336 2.487 . S
O358 C345 1.241 . S
O359 Nd336 2.682 . S
O359 Nd337 2.414 . S
O359 C345 1.273 . S
O360 Nd336 2.410 . S
O360 C346 1.251 1_455 S
O361 Nd337 2.424 1_655 S
O361 C346 1.268 . S
O362 Nd337 2.500 . S
O362 C347 1.258 1_545 S
O363 Nd337 2.492 . S
O363 C347 1.239 1_545 S
O364 Nd337 2.487 . S
O364 C354 1.241 . S
O365 Nd336 2.414 . S
O365 Nd337 2.682 . S
O365 C354 1.273 . S
O366 Nd337 2.410 . S
O366 C355 1.251 . S
O367 Nd336 2.424 . S
O367 C355 1.268 . S
H368 C340 0.930 . S
H369 C341 0.929 . S
H370 C343 0.930 . S
H371 C344 0.929 . S
H372 C349 0.930 . S
H373 C350 0.929 . S
H374 C352 0.930 . S
H375 C353 0.929 . S
Nd376 C378 2.836 . S
Nd376 O396 2.500 . S
Nd376 O397 2.492 . S
Nd376 O398 2.487 . S
Nd376 O399 2.682 . S
Nd376 O400 2.410 . S
Nd376 O405 2.414 . S
Nd376 O407 2.424 . S
Nd377 C387 2.836 . S
Nd377 O399 2.414 . S
Nd377 O401 2.424 . S
Nd377 O402 2.500 . S
Nd377 O403 2.492 . S
Nd377 O404 2.487 . S
Nd377 O405 2.682 . S
Nd377 O406 2.410 . S
C378 Nd376 2.836 . S
C378 C379 1.498 . S
C378 O396 1.258 . S
C378 O397 1.239 . S
C379 C378 1.498 . S
C379 C380 1.366 . S
C379 C384 1.407 . S
C380 C379 1.366 . S
C380 C381 1.392 . S
C380 H408 0.930 . S
C381 C380 1.392 . S
C381 C382 1.398 . S
C381 H409 0.929 . S
C382 C381 1.398 . S
C382 C383 1.352 . S
C383 C382 1.352 . S
C383 C384 1.384 . S
C383 H410 0.930 . S
C384 C379 1.407 . S
C384 C383 1.384 . S
C384 H411 0.929 . S
C385 O398 1.241 . S
C385 O399 1.273 . S
C386 O400 1.251 . S
C386 O401 1.268 . S
C387 Nd377 2.836 . S
C387 C388 1.498 . S
C387 O402 1.258 . S
C387 O403 1.239 . S
C388 C387 1.498 . S
C388 C389 1.366 . S
C388 C393 1.407 . S
C389 C388 1.366 . S
C389 C390 1.392 . S
C389 H412 0.930 . S
C390 C389 1.392 . S
C390 C391 1.398 . S
C390 H413 0.929 . S
C391 C390 1.398 . S
C391 C392 1.352 . S
C392 C391 1.352 . S
C392 C393 1.384 . S
C392 H414 0.930 . S
C393 C388 1.407 . S
C393 C392 1.384 . S
C393 H415 0.929 . S
C394 O404 1.241 . S
C394 O405 1.273 . S
C395 O406 1.251 . S
C395 O407 1.268 . S
O396 Nd376 2.500 . S
O396 C378 1.258 . S
O397 Nd376 2.492 . S
O397 C378 1.239 . S
O398 Nd376 2.487 . S
O398 C385 1.241 . S
O399 Nd376 2.682 . S
O399 Nd377 2.414 . S
O399 C385 1.273 . S
O400 Nd376 2.410 . S
O400 C386 1.251 . S
O401 Nd377 2.424 . S
O401 C386 1.268 . S
O402 Nd377 2.500 . S
O402 C387 1.258 . S
O403 Nd377 2.492 . S
O403 C387 1.239 . S
O404 Nd377 2.487 . S
O404 C394 1.241 . S
O405 Nd376 2.414 . S
O405 Nd377 2.682 . S
O405 C394 1.273 . S
O406 Nd377 2.410 . S
O406 C395 1.251 . S
O407 Nd376 2.424 . S
O407 C395 1.268 . S
H408 C380 0.930 . S
H409 C381 0.929 . S
H410 C383 0.930 . S
H411 C384 0.929 . S
H412 C389 0.930 . S
H413 C390 0.929 . S
H414 C392 0.930 . S
H415 C393 0.929 . S
Nd416 C418 2.836 . S
Nd416 O436 2.500 . S
Nd416 O437 2.492 . S
Nd416 O438 2.487 . S
Nd416 O439 2.682 . S
Nd416 O440 2.410 . S
Nd416 O445 2.414 . S
Nd416 O447 2.424 . S
Nd417 C427 2.836 . S
Nd417 O439 2.414 . S
Nd417 O441 2.424 . S
Nd417 O442 2.500 . S
Nd417 O443 2.492 . S
Nd417 O444 2.487 . S
Nd417 O445 2.682 . S
Nd417 O446 2.410 . S
C418 Nd416 2.836 . S
C418 C419 1.498 . S
C418 O436 1.258 . S
C418 O437 1.239 . S
C419 C418 1.498 . S
C419 C420 1.366 . S
C419 C424 1.407 . S
C420 C419 1.366 . S
C420 C421 1.392 . S
C420 H448 0.930 . S
C421 C420 1.392 . S
C421 C422 1.398 . S
C421 H449 0.929 . S
C422 C421 1.398 . S
C422 C423 1.352 . S
C423 C422 1.352 . S
C423 C424 1.384 . S
C423 H450 0.930 . S
C424 C419 1.407 . S
C424 C423 1.384 . S
C424 H451 0.929 . S
C425 O438 1.241 . S
C425 O439 1.273 . S
C426 O440 1.251 . S
C426 O441 1.268 . S
C427 Nd417 2.836 . S
C427 C428 1.498 . S
C427 O442 1.258 . S
C427 O443 1.239 . S
C428 C427 1.498 . S
C428 C429 1.366 . S
C428 C433 1.407 . S
C429 C428 1.366 . S
C429 C430 1.392 . S
C429 H452 0.930 . S
C430 C429 1.392 . S
C430 C431 1.398 . S
C430 H453 0.929 . S
C431 C430 1.398 . S
C431 C432 1.352 . S
C432 C431 1.352 . S
C432 C433 1.384 . S
C432 H454 0.930 . S
C433 C428 1.407 . S
C433 C432 1.384 . S
C433 H455 0.929 . S
C434 O444 1.241 . S
C434 O445 1.273 . S
C435 O446 1.251 . S
C435 O447 1.268 . S
O436 Nd416 2.500 . S
O436 C418 1.258 . S
O437 Nd416 2.492 . S
O437 C418 1.239 . S
O438 Nd416 2.487 . S
O438 C425 1.241 . S
O439 Nd416 2.682 . S
O439 Nd417 2.414 . S
O439 C425 1.273 . S
O440 Nd416 2.410 . S
O440 C426 1.251 . S
O441 Nd417 2.424 . S
O441 C426 1.268 . S
O442 Nd417 2.500 . S
O442 C427 1.258 . S
O443 Nd417 2.492 . S
O443 C427 1.239 . S
O444 Nd417 2.487 . S
O444 C434 1.241 . S
O445 Nd416 2.414 . S
O445 Nd417 2.682 . S
O445 C434 1.273 . S
O446 Nd417 2.410 . S
O446 C435 1.251 . S
O447 Nd416 2.424 . S
O447 C435 1.268 . S
H448 C420 0.930 . S
H449 C421 0.929 . S
H450 C423 0.930 . S
H451 C424 0.929 . S
H452 C429 0.930 . S
H453 C430 0.929 . S
H454 C432 0.930 . S
H455 C433 0.929 . S
Nd456 C458 2.836 . S
Nd456 O476 2.500 . S
Nd456 O477 2.492 . S
Nd456 O478 2.487 . S
Nd456 O479 2.682 . S
Nd456 O480 2.410 . S
Nd456 O485 2.414 . S
Nd456 O487 2.424 . S
Nd457 C467 2.836 . S
Nd457 O479 2.414 . S
Nd457 O481 2.424 . S
Nd457 O482 2.500 . S
Nd457 O483 2.492 . S
Nd457 O484 2.487 . S
Nd457 O485 2.682 . S
Nd457 O486 2.410 . S
C458 Nd456 2.836 . S
C458 C459 1.498 . S
C458 O476 1.258 . S
C458 O477 1.239 . S
C459 C458 1.498 . S
C459 C460 1.366 . S
C459 C464 1.407 . S
C460 C459 1.366 . S
C460 C461 1.392 . S
C460 H488 0.930 . S
C461 C460 1.392 . S
C461 C462 1.398 . S
C461 H489 0.929 . S
C462 C461 1.398 . S
C462 C463 1.352 . S
C463 C462 1.352 . S
C463 C464 1.384 . S
C463 H490 0.930 . S
C464 C459 1.407 . S
C464 C463 1.384 . S
C464 H491 0.929 . S
C465 O478 1.241 . S
C465 O479 1.273 . S
C466 O480 1.251 . S
C466 O481 1.268 . S
C467 Nd457 2.836 . S
C467 C468 1.498 . S
C467 O482 1.258 . S
C467 O483 1.239 . S
C468 C467 1.498 . S
C468 C469 1.366 . S
C468 C473 1.407 . S
C469 C468 1.366 . S
C469 C470 1.392 . S
C469 H492 0.930 . S
C470 C469 1.392 . S
C470 C471 1.398 . S
C470 H493 0.929 . S
C471 C470 1.398 . S
C471 C472 1.352 . S
C472 C471 1.352 . S
C472 C473 1.384 . S
C472 H494 0.930 . S
C473 C468 1.407 . S
C473 C472 1.384 . S
C473 H495 0.929 . S
C474 O484 1.241 . S
C474 O485 1.273 . S
C475 O486 1.251 . S
C475 O487 1.268 . S
O476 Nd456 2.500 . S
O476 C458 1.258 . S
O477 Nd456 2.492 . S
O477 C458 1.239 . S
O478 Nd456 2.487 . S
O478 C465 1.241 . S
O479 Nd456 2.682 . S
O479 Nd457 2.414 . S
O479 C465 1.273 . S
O480 Nd456 2.410 . S
O480 C466 1.251 . S
O481 Nd457 2.424 . S
O481 C466 1.268 . S
O482 Nd457 2.500 . S
O482 C467 1.258 . S
O483 Nd457 2.492 . S
O483 C467 1.239 . S
O484 Nd457 2.487 . S
O484 C474 1.241 . S
O485 Nd456 2.414 . S
O485 Nd457 2.682 . S
O485 C474 1.273 . S
O486 Nd457 2.410 . S
O486 C475 1.251 . S
O487 Nd456 2.424 . S
O487 C475 1.268 . S
H488 C460 0.930 . S
H489 C461 0.929 . S
H490 C463 0.930 . S
H491 C464 0.929 . S
H492 C469 0.930 . S
H493 C470 0.929 . S
H494 C472 0.930 . S
H495 C473 0.929 . S
Nd496 C498 2.836 . S
Nd496 O516 2.500 . S
Nd496 O517 2.492 . S
Nd496 O518 2.487 . S
Nd496 O519 2.682 . S
Nd496 O520 2.410 . S
Nd496 O525 2.414 . S
Nd496 O527 2.424 . S
Nd497 C507 2.836 1_545 S
Nd497 O519 2.414 . S
Nd497 O521 2.424 . S
Nd497 O522 2.500 . S
Nd497 O523 2.492 1_545 S
Nd497 O524 2.487 1_455 S
Nd497 O525 2.682 . S
Nd497 O526 2.410 . S
C498 Nd496 2.836 . S
C498 C499 1.498 . S
C498 O516 1.258 . S
C498 O517 1.239 . S
C499 C498 1.498 . S
C499 C500 1.366 1_455 S
C499 C504 1.407 . S
C500 C499 1.366 1_655 S
C500 C501 1.392 . S
C500 H528 0.930 . S
C501 C500 1.392 . S
C501 C502 1.398 1_655 S
C501 H529 0.929 . S
C502 C501 1.398 1_455 S
C502 C503 1.352 . S
C503 C502 1.352 . S
C503 C504 1.384 . S
C503 H530 0.930 . S
C504 C499 1.407 . S
C504 C503 1.384 . S
C504 H531 0.929 . S
C505 O518 1.241 . S
C505 O519 1.273 . S
C506 O520 1.251 . S
C506 O521 1.268 . S
C507 Nd497 2.836 1_565 S
C507 C508 1.498 . S
C507 O522 1.258 1_565 S
C507 O523 1.239 . S
C508 C507 1.498 . S
C508 C509 1.366 . S
C508 C513 1.407 . S
C509 C508 1.366 . S
C509 C510 1.392 . S
C509 H532 0.930 . S
C510 C509 1.392 . S
C510 C511 1.398 . S
C510 H533 0.929 . S
C511 C510 1.398 . S
C511 C512 1.352 . S
C512 C511 1.352 . S
C512 C513 1.384 . S
C512 H534 0.930 . S
C513 C508 1.407 . S
C513 C512 1.384 . S
C513 H535 0.929 . S
C514 O524 1.241 . S
C514 O525 1.273 1_655 S
C515 O526 1.251 . S
C515 O527 1.268 . S
O516 Nd496 2.500 . S
O516 C498 1.258 . S
O517 Nd496 2.492 . S
O517 C498 1.239 . S
O518 Nd496 2.487 . S
O518 C505 1.241 . S
O519 Nd496 2.682 . S
O519 Nd497 2.414 . S
O519 C505 1.273 . S
O520 Nd496 2.410 . S
O520 C506 1.251 . S
O521 Nd497 2.424 . S
O521 C506 1.268 . S
O522 Nd497 2.500 . S
O522 C507 1.258 1_545 S
O523 Nd497 2.492 1_565 S
O523 C507 1.239 . S
O524 Nd497 2.487 1_655 S
O524 C514 1.241 . S
O525 Nd496 2.414 . S
O525 Nd497 2.682 . S
O525 C514 1.273 1_455 S
O526 Nd497 2.410 . S
O526 C515 1.251 . S
O527 Nd496 2.424 . S
O527 C515 1.268 . S
H528 C500 0.930 . S
H529 C501 0.929 . S
H530 C503 0.930 . S
H531 C504 0.929 . S
H532 C509 0.930 . S
H533 C510 0.929 . S
H534 C512 0.930 . S
H535 C513 0.929 . S
Nd536 C538 2.836 . S
Nd536 O556 2.500 . S
Nd536 O557 2.492 . S
Nd536 O558 2.487 . S
Nd536 O559 2.682 . S
Nd536 O560 2.410 . S
Nd536 O565 2.414 . S
Nd536 O567 2.424 . S
Nd537 C547 2.836 . S
Nd537 O559 2.414 . S
Nd537 O561 2.424 . S
Nd537 O562 2.500 . S
Nd537 O563 2.492 . S
Nd537 O564 2.487 . S
Nd537 O565 2.682 . S
Nd537 O566 2.410 . S
C538 Nd536 2.836 . S
C538 C539 1.498 . S
C538 O556 1.258 . S
C538 O557 1.239 . S
C539 C538 1.498 . S
C539 C540 1.366 . S
C539 C544 1.407 . S
C540 C539 1.366 . S
C540 C541 1.392 . S
C540 H568 0.930 . S
C541 C540 1.392 . S
C541 C542 1.398 . S
C541 H569 0.929 . S
C542 C541 1.398 . S
C542 C543 1.352 . S
C543 C542 1.352 . S
C543 C544 1.384 . S
C543 H570 0.930 . S
C544 C539 1.407 . S
C544 C543 1.384 . S
C544 H571 0.929 . S
C545 O558 1.241 . S
C545 O559 1.273 . S
C546 O560 1.251 . S
C546 O561 1.268 . S
C547 Nd537 2.836 . S
C547 C548 1.498 . S
C547 O562 1.258 . S
C547 O563 1.239 . S
C548 C547 1.498 . S
C548 C549 1.366 . S
C548 C553 1.407 . S
C549 C548 1.366 . S
C549 C550 1.392 . S
C549 H572 0.930 . S
C550 C549 1.392 . S
C550 C551 1.398 . S
C550 H573 0.929 . S
C551 C550 1.398 . S
C551 C552 1.352 . S
C552 C551 1.352 . S
C552 C553 1.384 . S
C552 H574 0.930 . S
C553 C548 1.407 . S
C553 C552 1.384 . S
C553 H575 0.929 . S
C554 O564 1.241 . S
C554 O565 1.273 . S
C555 O566 1.251 . S
C555 O567 1.268 . S
O556 Nd536 2.500 . S
O556 C538 1.258 . S
O557 Nd536 2.492 . S
O557 C538 1.239 . S
O558 Nd536 2.487 . S
O558 C545 1.241 . S
O559 Nd536 2.682 . S
O559 Nd537 2.414 . S
O559 C545 1.273 . S
O560 Nd536 2.410 . S
O560 C546 1.251 . S
O561 Nd537 2.424 . S
O561 C546 1.268 . S
O562 Nd537 2.500 . S
O562 C547 1.258 . S
O563 Nd537 2.492 . S
O563 C547 1.239 . S
O564 Nd537 2.487 . S
O564 C554 1.241 . S
O565 Nd536 2.414 . S
O565 Nd537 2.682 . S
O565 C554 1.273 . S
O566 Nd537 2.410 . S
O566 C555 1.251 . S
O567 Nd536 2.424 . S
O567 C555 1.268 . S
H568 C540 0.930 . S
H569 C541 0.929 . S
H570 C543 0.930 . S
H571 C544 0.929 . S
H572 C549 0.930 . S
H573 C550 0.929 . S
H574 C552 0.930 . S
H575 C553 0.929 . S
Nd576 C578 2.836 . S
Nd576 O596 2.500 . S
Nd576 O597 2.492 . S
Nd576 O598 2.487 . S
Nd576 O599 2.682 . S
Nd576 O600 2.410 . S
Nd576 O605 2.414 . S
Nd576 O607 2.424 . S
Nd577 C587 2.836 . S
Nd577 O599 2.414 . S
Nd577 O601 2.424 . S
Nd577 O602 2.500 . S
Nd577 O603 2.492 . S
Nd577 O604 2.487 . S
Nd577 O605 2.682 . S
Nd577 O606 2.410 . S
C578 Nd576 2.836 . S
C578 C579 1.498 . S
C578 O596 1.258 . S
C578 O597 1.239 . S
C579 C578 1.498 . S
C579 C580 1.366 . S
C579 C584 1.407 . S
C580 C579 1.366 . S
C580 C581 1.392 . S
C580 H608 0.930 . S
C581 C580 1.392 . S
C581 C582 1.398 . S
C581 H609 0.929 . S
C582 C581 1.398 . S
C582 C583 1.352 . S
C583 C582 1.352 . S
C583 C584 1.384 . S
C583 H610 0.930 1_545 S
C584 C579 1.407 . S
C584 C583 1.384 . S
C584 H611 0.929 . S
C585 O598 1.241 . S
C585 O599 1.273 . S
C586 O600 1.251 . S
C586 O601 1.268 . S
C587 Nd577 2.836 . S
C587 C588 1.498 . S
C587 O602 1.258 . S
C587 O603 1.239 . S
C588 C587 1.498 . S
C588 C589 1.366 . S
C588 C593 1.407 . S
C589 C588 1.366 . S
C589 C590 1.392 . S
C589 H612 0.930 . S
C590 C589 1.392 . S
C590 C591 1.398 . S
C590 H613 0.929 . S
C591 C590 1.398 . S
C591 C592 1.352 . S
C592 C591 1.352 . S
C592 C593 1.384 . S
C592 H614 0.930 . S
C593 C588 1.407 . S
C593 C592 1.384 . S
C593 H615 0.929 . S
C594 O604 1.241 . S
C594 O605 1.273 . S
C595 O606 1.251 . S
C595 O607 1.268 . S
O596 Nd576 2.500 . S
O596 C578 1.258 . S
O597 Nd576 2.492 . S
O597 C578 1.239 . S
O598 Nd576 2.487 . S
O598 C585 1.241 . S
O599 Nd576 2.682 . S
O599 Nd577 2.414 . S
O599 C585 1.273 . S
O600 Nd576 2.410 . S
O600 C586 1.251 . S
O601 Nd577 2.424 . S
O601 C586 1.268 . S
O602 Nd577 2.500 . S
O602 C587 1.258 . S
O603 Nd577 2.492 . S
O603 C587 1.239 . S
O604 Nd577 2.487 . S
O604 C594 1.241 . S
O605 Nd576 2.414 . S
O605 Nd577 2.682 . S
O605 C594 1.273 . S
O606 Nd577 2.410 . S
O606 C595 1.251 . S
O607 Nd576 2.424 . S
O607 C595 1.268 . S
H608 C580 0.930 . S
H609 C581 0.929 . S
H610 C583 0.930 1_565 S
H611 C584 0.929 . S
H612 C589 0.930 . S
H613 C590 0.929 . S
H614 C592 0.930 . S
H615 C593 0.929 . S
Nd616 C618 2.836 . S
Nd616 O636 2.500 . S
Nd616 O637 2.492 . S
Nd616 O638 2.487 . S
Nd616 O639 2.682 . S
Nd616 O640 2.410 . S
Nd616 O645 2.414 . S
Nd616 O647 2.424 . S
Nd617 C627 2.836 . S
Nd617 O639 2.414 . S
Nd617 O641 2.424 . S
Nd617 O642 2.500 . S
Nd617 O643 2.492 . S
Nd617 O644 2.487 . S
Nd617 O645 2.682 . S
Nd617 O646 2.410 . S
C618 Nd616 2.836 . S
C618 C619 1.498 . S
C618 O636 1.258 . S
C618 O637 1.239 . S
C619 C618 1.498 . S
C619 C620 1.366 . S
C619 C624 1.407 . S
C620 C619 1.366 . S
C620 C621 1.392 . S
C620 H648 0.930 . S
C621 C620 1.392 . S
C621 C622 1.398 . S
C621 H649 0.929 . S
C622 C621 1.398 . S
C622 C623 1.352 . S
C623 C622 1.352 . S
C623 C624 1.384 . S
C623 H650 0.930 . S
C624 C619 1.407 . S
C624 C623 1.384 . S
C624 H651 0.929 . S
C625 O638 1.241 . S
C625 O639 1.273 . S
C626 O640 1.251 . S
C626 O641 1.268 . S
C627 Nd617 2.836 . S
C627 C628 1.498 . S
C627 O642 1.258 . S
C627 O643 1.239 . S
C628 C627 1.498 . S
C628 C629 1.366 . S
C628 C633 1.407 . S
C629 C628 1.366 . S
C629 C630 1.392 . S
C629 H652 0.930 . S
C630 C629 1.392 . S
C630 C631 1.398 . S
C630 H653 0.929 . S
C631 C630 1.398 . S
C631 C632 1.352 . S
C632 C631 1.352 . S
C632 C633 1.384 . S
C632 H654 0.930 . S
C633 C628 1.407 . S
C633 C632 1.384 . S
C633 H655 0.929 . S
C634 O644 1.241 . S
C634 O645 1.273 . S
C635 O646 1.251 . S
C635 O647 1.268 . S
O636 Nd616 2.500 . S
O636 C618 1.258 . S
O637 Nd616 2.492 . S
O637 C618 1.239 . S
O638 Nd616 2.487 . S
O638 C625 1.241 . S
O639 Nd616 2.682 . S
O639 Nd617 2.414 . S
O639 C625 1.273 . S
O640 Nd616 2.410 . S
O640 C626 1.251 . S
O641 Nd617 2.424 . S
O641 C626 1.268 . S
O642 Nd617 2.500 . S
O642 C627 1.258 . S
O643 Nd617 2.492 . S
O643 C627 1.239 . S
O644 Nd617 2.487 . S
O644 C634 1.241 . S
O645 Nd616 2.414 . S
O645 Nd617 2.682 . S
O645 C634 1.273 . S
O646 Nd617 2.410 . S
O646 C635 1.251 . S
O647 Nd616 2.424 . S
O647 C635 1.268 . S
H648 C620 0.930 . S
H649 C621 0.929 . S
H650 C623 0.930 . S
H651 C624 0.929 . S
H652 C629 0.930 . S
H653 C630 0.929 . S
H654 C632 0.930 . S
H655 C633 0.929 . S
Nd656 C658 2.836 . S
Nd656 O676 2.500 . S
Nd656 O677 2.492 . S
Nd656 O678 2.487 . S
Nd656 O679 2.682 . S
Nd656 O680 2.410 . S
Nd656 O685 2.414 . S
Nd656 O687 2.424 . S
Nd657 C667 2.836 . S
Nd657 O679 2.414 . S
Nd657 O681 2.424 . S
Nd657 O682 2.500 . S
Nd657 O683 2.492 . S
Nd657 O684 2.487 . S
Nd657 O685 2.682 . S
Nd657 O686 2.410 . S
C658 Nd656 2.836 . S
C658 C659 1.498 . S
C658 O676 1.258 . S
C658 O677 1.239 . S
C659 C658 1.498 . S
C659 C660 1.366 . S
C659 C664 1.407 . S
C660 C659 1.366 . S
C660 C661 1.392 . S
C660 H688 0.930 . S
C661 C660 1.392 . S
C661 C662 1.398 . S
C661 H689 0.929 . S
C662 C661 1.398 . S
C662 C663 1.352 . S
C663 C662 1.352 . S
C663 C664 1.384 . S
C663 H690 0.930 . S
C664 C659 1.407 . S
C664 C663 1.384 . S
C664 H691 0.929 . S
C665 O678 1.241 . S
C665 O679 1.273 . S
C666 O680 1.251 . S
C666 O681 1.268 . S
C667 Nd657 2.836 . S
C667 C668 1.498 . S
C667 O682 1.258 . S
C667 O683 1.239 . S
C668 C667 1.498 . S
C668 C669 1.366 . S
C668 C673 1.407 . S
C669 C668 1.366 . S
C669 C670 1.392 . S
C669 H692 0.930 . S
C670 C669 1.392 . S
C670 C671 1.398 . S
C670 H693 0.929 . S
C671 C670 1.398 . S
C671 C672 1.352 . S
C672 C671 1.352 . S
C672 C673 1.384 . S
C672 H694 0.930 . S
C673 C668 1.407 . S
C673 C672 1.384 . S
C673 H695 0.929 . S
C674 O684 1.241 . S
C674 O685 1.273 . S
C675 O686 1.251 . S
C675 O687 1.268 . S
O676 Nd656 2.500 . S
O676 C658 1.258 . S
O677 Nd656 2.492 . S
O677 C658 1.239 . S
O678 Nd656 2.487 . S
O678 C665 1.241 . S
O679 Nd656 2.682 . S
O679 Nd657 2.414 . S
O679 C665 1.273 . S
O680 Nd656 2.410 . S
O680 C666 1.251 . S
O681 Nd657 2.424 . S
O681 C666 1.268 . S
O682 Nd657 2.500 . S
O682 C667 1.258 . S
O683 Nd657 2.492 . S
O683 C667 1.239 . S
O684 Nd657 2.487 . S
O684 C674 1.241 . S
O685 Nd656 2.414 . S
O685 Nd657 2.682 . S
O685 C674 1.273 . S
O686 Nd657 2.410 . S
O686 C675 1.251 . S
O687 Nd656 2.424 . S
O687 C675 1.268 . S
H688 C660 0.930 . S
H689 C661 0.929 . S
H690 C663 0.930 . S
H691 C664 0.929 . S
H692 C669 0.930 . S
H693 C670 0.929 . S
H694 C672 0.930 . S
H695 C673 0.929 . S
Nd696 C698 2.836 . S
Nd696 O716 2.500 . S
Nd696 O717 2.492 . S
Nd696 O718 2.487 . S
Nd696 O719 2.682 . S
Nd696 O720 2.410 . S
Nd696 O725 2.414 . S
Nd696 O727 2.424 . S
Nd697 C707 2.836 . S
Nd697 O719 2.414 . S
Nd697 O721 2.424 . S
Nd697 O722 2.500 . S
Nd697 O723 2.492 . S
Nd697 O724 2.487 . S
Nd697 O725 2.682 . S
Nd697 O726 2.410 . S
C698 Nd696 2.836 . S
C698 C699 1.498 . S
C698 O716 1.258 . S
C698 O717 1.239 . S
C699 C698 1.498 . S
C699 C700 1.366 . S
C699 C704 1.407 . S
C700 C699 1.366 . S
C700 C701 1.392 . S
C700 H728 0.930 . S
C701 C700 1.392 . S
C701 C702 1.398 . S
C701 H729 0.929 . S
C702 C701 1.398 . S
C702 C703 1.352 . S
C703 C702 1.352 . S
C703 C704 1.384 . S
C703 H730 0.930 . S
C704 C699 1.407 . S
C704 C703 1.384 . S
C704 H731 0.929 . S
C705 O718 1.241 . S
C705 O719 1.273 . S
C706 O720 1.251 . S
C706 O721 1.268 . S
C707 Nd697 2.836 . S
C707 C708 1.498 . S
C707 O722 1.258 . S
C707 O723 1.239 . S
C708 C707 1.498 . S
C708 C709 1.366 . S
C708 C713 1.407 . S
C709 C708 1.366 . S
C709 C710 1.392 . S
C709 H732 0.930 . S
C710 C709 1.392 . S
C710 C711 1.398 . S
C710 H733 0.929 . S
C711 C710 1.398 . S
C711 C712 1.352 . S
C712 C711 1.352 . S
C712 C713 1.384 . S
C712 H734 0.930 . S
C713 C708 1.407 . S
C713 C712 1.384 . S
C713 H735 0.929 . S
C714 O724 1.241 . S
C714 O725 1.273 . S
C715 O726 1.251 . S
C715 O727 1.268 . S
O716 Nd696 2.500 . S
O716 C698 1.258 . S
O717 Nd696 2.492 . S
O717 C698 1.239 . S
O718 Nd696 2.487 . S
O718 C705 1.241 . S
O719 Nd696 2.682 . S
O719 Nd697 2.414 . S
O719 C705 1.273 . S
O720 Nd696 2.410 . S
O720 C706 1.251 . S
O721 Nd697 2.424 . S
O721 C706 1.268 . S
O722 Nd697 2.500 . S
O722 C707 1.258 . S
O723 Nd697 2.492 . S
O723 C707 1.239 . S
O724 Nd697 2.487 . S
O724 C714 1.241 . S
O725 Nd696 2.414 . S
O725 Nd697 2.682 . S
O725 C714 1.273 . S
O726 Nd697 2.410 . S
O726 C715 1.251 . S
O727 Nd696 2.424 . S
O727 C715 1.268 . S
H728 C700 0.930 . S
H729 C701 0.929 . S
H730 C703 0.930 . S
H731 C704 0.929 . S
H732 C709 0.930 . S
H733 C710 0.929 . S
H734 C712 0.930 . S
H735 C713 0.929 . S
Nd736 C738 2.836 . S
Nd736 O756 2.500 . S
Nd736 O757 2.492 . S
Nd736 O758 2.487 1_655 S
Nd736 O759 2.682 1_655 S
Nd736 O760 2.410 . S
Nd736 O765 2.414 1_655 S
Nd736 O767 2.424 1_655 S
Nd737 C747 2.836 . S
Nd737 O759 2.414 . S
Nd737 O761 2.424 . S
Nd737 O762 2.500 . S
Nd737 O763 2.492 . S
Nd737 O764 2.487 . S
Nd737 O765 2.682 . S
Nd737 O766 2.410 . S
C738 Nd736 2.836 . S
C738 C739 1.498 . S
C738 O756 1.258 . S
C738 O757 1.239 . S
C739 C738 1.498 . S
C739 C740 1.366 . S
C739 C744 1.407 . S
C740 C739 1.366 . S
C740 C741 1.392 . S
C740 H768 0.930 . S
C741 C740 1.392 . S
C741 C742 1.398 . S
C741 H769 0.929 . S
C742 C741 1.398 . S
C742 C743 1.352 . S
C743 C742 1.352 . S
C743 C744 1.384 . S
C743 H770 0.930 . S
C744 C739 1.407 . S
C744 C743 1.384 . S
C744 H771 0.929 . S
C745 O758 1.241 . S
C745 O759 1.273 . S
C746 O760 1.251 1_455 S
C746 O761 1.268 . S
C747 Nd737 2.836 . S
C747 C748 1.498 . S
C747 O762 1.258 . S
C747 O763 1.239 . S
C748 C747 1.498 . S
C748 C749 1.366 . S
C748 C753 1.407 . S
C749 C748 1.366 . S
C749 C750 1.392 . S
C749 H772 0.930 . S
C750 C749 1.392 . S
C750 C751 1.398 . S
C750 H773 0.929 . S
C751 C750 1.398 . S
C751 C752 1.352 . S
C752 C751 1.352 . S
C752 C753 1.384 . S
C752 H774 0.930 . S
C753 C748 1.407 . S
C753 C752 1.384 . S
C753 H775 0.929 . S
C754 O764 1.241 . S
C754 O765 1.273 . S
C755 O766 1.251 . S
C755 O767 1.268 . S
O756 Nd736 2.500 . S
O756 C738 1.258 . S
O757 Nd736 2.492 . S
O757 C738 1.239 . S
O758 Nd736 2.487 1_455 S
O758 C745 1.241 . S
O759 Nd736 2.682 1_455 S
O759 Nd737 2.414 . S
O759 C745 1.273 . S
O760 Nd736 2.410 . S
O760 C746 1.251 1_655 S
O761 Nd737 2.424 . S
O761 C746 1.268 . S
O762 Nd737 2.500 . S
O762 C747 1.258 . S
O763 Nd737 2.492 . S
O763 C747 1.239 . S
O764 Nd737 2.487 . S
O764 C754 1.241 . S
O765 Nd736 2.414 1_455 S
O765 Nd737 2.682 . S
O765 C754 1.273 . S
O766 Nd737 2.410 . S
O766 C755 1.251 . S
O767 Nd736 2.424 1_455 S
O767 C755 1.268 . S
H768 C740 0.930 . S
H769 C741 0.929 . S
H770 C743 0.930 . S
H771 C744 0.929 . S
H772 C749 0.930 . S
H773 C750 0.929 . S
H774 C752 0.930 . S
H775 C753 0.929 . S
Nd776 C778 2.836 . S
Nd776 O796 2.500 . S
Nd776 O797 2.492 . S
Nd776 O798 2.487 . S
Nd776 O799 2.682 . S
Nd776 O800 2.410 . S
Nd776 O805 2.414 . S
Nd776 O807 2.424 . S
Nd777 C787 2.836 . S
Nd777 O799 2.414 . S
Nd777 O801 2.424 . S
Nd777 O802 2.500 . S
Nd777 O803 2.492 . S
Nd777 O804 2.487 . S
Nd777 O805 2.682 . S
Nd777 O806 2.410 . S
C778 Nd776 2.836 . S
C778 C779 1.498 . S
C778 O796 1.258 . S
C778 O797 1.239 . S
C779 C778 1.498 . S
C779 C780 1.366 . S
C779 C784 1.407 . S
C780 C779 1.366 . S
C780 C781 1.392 . S
C780 H808 0.930 . S
C781 C780 1.392 . S
C781 C782 1.398 . S
C781 H809 0.929 . S
C782 C781 1.398 . S
C782 C783 1.352 . S
C783 C782 1.352 . S
C783 C784 1.384 . S
C783 H810 0.930 . S
C784 C779 1.407 . S
C784 C783 1.384 . S
C784 H811 0.929 . S
C785 O798 1.241 . S
C785 O799 1.273 . S
C786 O800 1.251 . S
C786 O801 1.268 . S
C787 Nd777 2.836 . S
C787 C788 1.498 . S
C787 O802 1.258 . S
C787 O803 1.239 . S
C788 C787 1.498 . S
C788 C789 1.366 . S
C788 C793 1.407 . S
C789 C788 1.366 . S
C789 C790 1.392 . S
C789 H812 0.930 . S
C790 C789 1.392 . S
C790 C791 1.398 . S
C790 H813 0.929 . S
C791 C790 1.398 . S
C791 C792 1.352 . S
C792 C791 1.352 . S
C792 C793 1.384 . S
C792 H814 0.930 . S
C793 C788 1.407 . S
C793 C792 1.384 . S
C793 H815 0.929 . S
C794 O804 1.241 . S
C794 O805 1.273 . S
C795 O806 1.251 . S
C795 O807 1.268 . S
O796 Nd776 2.500 . S
O796 C778 1.258 . S
O797 Nd776 2.492 . S
O797 C778 1.239 . S
O798 Nd776 2.487 . S
O798 C785 1.241 . S
O799 Nd776 2.682 . S
O799 Nd777 2.414 . S
O799 C785 1.273 . S
O800 Nd776 2.410 . S
O800 C786 1.251 . S
O801 Nd777 2.424 . S
O801 C786 1.268 . S
O802 Nd777 2.500 . S
O802 C787 1.258 . S
O803 Nd777 2.492 . S
O803 C787 1.239 . S
O804 Nd777 2.487 . S
O804 C794 1.241 . S
O805 Nd776 2.414 . S
O805 Nd777 2.682 . S
O805 C794 1.273 . S
O806 Nd777 2.410 . S
O806 C795 1.251 . S
O807 Nd776 2.424 . S
O807 C795 1.268 . S
H808 C780 0.930 . S
H809 C781 0.929 . S
H810 C783 0.930 . S
H811 C784 0.929 . S
H812 C789 0.930 . S
H813 C790 0.929 . S
H814 C792 0.930 . S
H815 C793 0.929 . S
Nd816 C818 2.836 . S
Nd816 O836 2.500 . S
Nd816 O837 2.492 . S
Nd816 O838 2.487 . S
Nd816 O839 2.682 . S
Nd816 O840 2.410 . S
Nd816 O845 2.414 . S
Nd816 O847 2.424 . S
Nd817 C827 2.836 . S
Nd817 O839 2.414 . S
Nd817 O841 2.424 . S
Nd817 O842 2.500 . S
Nd817 O843 2.492 . S
Nd817 O844 2.487 . S
Nd817 O845 2.682 . S
Nd817 O846 2.410 . S
C818 Nd816 2.836 . S
C818 C819 1.498 . S
C818 O836 1.258 . S
C818 O837 1.239 . S
C819 C818 1.498 . S
C819 C820 1.366 . S
C819 C824 1.407 . S
C820 C819 1.366 . S
C820 C821 1.392 . S
C820 H848 0.930 . S
C821 C820 1.392 . S
C821 C822 1.398 . S
C821 H849 0.929 . S
C822 C821 1.398 . S
C822 C823 1.352 . S
C823 C822 1.352 . S
C823 C824 1.384 . S
C823 H850 0.930 . S
C824 C819 1.407 . S
C824 C823 1.384 . S
C824 H851 0.929 . S
C825 O838 1.241 . S
C825 O839 1.273 . S
C826 O840 1.251 . S
C826 O841 1.268 . S
C827 Nd817 2.836 . S
C827 C828 1.498 . S
C827 O842 1.258 . S
C827 O843 1.239 . S
C828 C827 1.498 . S
C828 C829 1.366 . S
C828 C833 1.407 . S
C829 C828 1.366 . S
C829 C830 1.392 . S
C829 H852 0.930 . S
C830 C829 1.392 . S
C830 C831 1.398 . S
C830 H853 0.929 . S
C831 C830 1.398 . S
C831 C832 1.352 . S
C832 C831 1.352 . S
C832 C833 1.384 . S
C832 H854 0.930 . S
C833 C828 1.407 . S
C833 C832 1.384 . S
C833 H855 0.929 . S
C834 O844 1.241 . S
C834 O845 1.273 . S
C835 O846 1.251 . S
C835 O847 1.268 . S
O836 Nd816 2.500 . S
O836 C818 1.258 . S
O837 Nd816 2.492 . S
O837 C818 1.239 . S
O838 Nd816 2.487 . S
O838 C825 1.241 . S
O839 Nd816 2.682 . S
O839 Nd817 2.414 . S
O839 C825 1.273 . S
O840 Nd816 2.410 . S
O840 C826 1.251 . S
O841 Nd817 2.424 . S
O841 C826 1.268 . S
O842 Nd817 2.500 . S
O842 C827 1.258 . S
O843 Nd817 2.492 . S
O843 C827 1.239 . S
O844 Nd817 2.487 . S
O844 C834 1.241 . S
O845 Nd816 2.414 . S
O845 Nd817 2.682 . S
O845 C834 1.273 . S
O846 Nd817 2.410 . S
O846 C835 1.251 . S
O847 Nd816 2.424 . S
O847 C835 1.268 . S
H848 C820 0.930 . S
H849 C821 0.929 . S
H850 C823 0.930 . S
H851 C824 0.929 . S
H852 C829 0.930 . S
H853 C830 0.929 . S
H854 C832 0.930 . S
H855 C833 0.929 . S
Nd856 C858 2.836 . S
Nd856 O876 2.500 . S
Nd856 O877 2.492 . S
Nd856 O878 2.487 . S
Nd856 O879 2.682 . S
Nd856 O880 2.410 . S
Nd856 O885 2.414 . S
Nd856 O887 2.424 . S
Nd857 C867 2.836 . S
Nd857 O879 2.414 . S
Nd857 O881 2.424 . S
Nd857 O882 2.500 . S
Nd857 O883 2.492 . S
Nd857 O884 2.487 . S
Nd857 O885 2.682 . S
Nd857 O886 2.410 . S
C858 Nd856 2.836 . S
C858 C859 1.498 . S
C858 O876 1.258 . S
C858 O877 1.239 . S
C859 C858 1.498 . S
C859 C860 1.366 . S
C859 C864 1.407 . S
C860 C859 1.366 . S
C860 C861 1.392 . S
C860 H888 0.930 . S
C861 C860 1.392 . S
C861 C862 1.398 . S
C861 H889 0.929 . S
C862 C861 1.398 . S
C862 C863 1.352 . S
C863 C862 1.352 . S
C863 C864 1.384 . S
C863 H890 0.930 . S
C864 C859 1.407 . S
C864 C863 1.384 . S
C864 H891 0.929 . S
C865 O878 1.241 . S
C865 O879 1.273 . S
C866 O880 1.251 . S
C866 O881 1.268 . S
C867 Nd857 2.836 . S
C867 C868 1.498 . S
C867 O882 1.258 . S
C867 O883 1.239 . S
C868 C867 1.498 . S
C868 C869 1.366 . S
C868 C873 1.407 . S
C869 C868 1.366 . S
C869 C870 1.392 . S
C869 H892 0.930 . S
C870 C869 1.392 . S
C870 C871 1.398 . S
C870 H893 0.929 . S
C871 C870 1.398 . S
C871 C872 1.352 . S
C872 C871 1.352 . S
C872 C873 1.384 . S
C872 H894 0.930 . S
C873 C868 1.407 . S
C873 C872 1.384 . S
C873 H895 0.929 . S
C874 O884 1.241 . S
C874 O885 1.273 . S
C875 O886 1.251 . S
C875 O887 1.268 . S
O876 Nd856 2.500 . S
O876 C858 1.258 . S
O877 Nd856 2.492 . S
O877 C858 1.239 . S
O878 Nd856 2.487 . S
O878 C865 1.241 . S
O879 Nd856 2.682 . S
O879 Nd857 2.414 . S
O879 C865 1.273 . S
O880 Nd856 2.410 . S
O880 C866 1.251 . S
O881 Nd857 2.424 . S
O881 C866 1.268 . S
O882 Nd857 2.500 . S
O882 C867 1.258 . S
O883 Nd857 2.492 . S
O883 C867 1.239 . S
O884 Nd857 2.487 . S
O884 C874 1.241 . S
O885 Nd856 2.414 . S
O885 Nd857 2.682 . S
O885 C874 1.273 . S
O886 Nd857 2.410 . S
O886 C875 1.251 . S
O887 Nd856 2.424 . S
O887 C875 1.268 . S
H888 C860 0.930 . S
H889 C861 0.929 . S
H890 C863 0.930 . S
H891 C864 0.929 . S
H892 C869 0.930 . S
H893 C870 0.929 . S
H894 C872 0.930 . S
H895 C873 0.929 . S
Nd896 C898 2.836 . S
Nd896 O916 2.500 . S
Nd896 O917 2.492 . S
Nd896 O918 2.487 . S
Nd896 O919 2.682 . S
Nd896 O920 2.410 . S
Nd896 O925 2.414 . S
Nd896 O927 2.424 . S
Nd897 C907 2.836 . S
Nd897 O919 2.414 . S
Nd897 O921 2.424 . S
Nd897 O922 2.500 . S
Nd897 O923 2.492 . S
Nd897 O924 2.487 . S
Nd897 O925 2.682 . S
Nd897 O926 2.410 . S
C898 Nd896 2.836 . S
C898 C899 1.498 . S
C898 O916 1.258 . S
C898 O917 1.239 . S
C899 C898 1.498 . S
C899 C900 1.366 . S
C899 C904 1.407 . S
C900 C899 1.366 . S
C900 C901 1.392 . S
C900 H928 0.930 . S
C901 C900 1.392 . S
C901 C902 1.398 . S
C901 H929 0.929 . S
C902 C901 1.398 . S
C902 C903 1.352 . S
C903 C902 1.352 . S
C903 C904 1.384 . S
C903 H930 0.930 . S
C904 C899 1.407 . S
C904 C903 1.384 . S
C904 H931 0.929 . S
C905 O918 1.241 . S
C905 O919 1.273 . S
C906 O920 1.251 . S
C906 O921 1.268 . S
C907 Nd897 2.836 . S
C907 C908 1.498 . S
C907 O922 1.258 . S
C907 O923 1.239 . S
C908 C907 1.498 . S
C908 C909 1.366 . S
C908 C913 1.407 . S
C909 C908 1.366 . S
C909 C910 1.392 . S
C909 H932 0.930 . S
C910 C909 1.392 . S
C910 C911 1.398 . S
C910 H933 0.929 . S
C911 C910 1.398 . S
C911 C912 1.352 . S
C912 C911 1.352 . S
C912 C913 1.384 . S
C912 H934 0.930 . S
C913 C908 1.407 . S
C913 C912 1.384 . S
C913 H935 0.929 . S
C914 O924 1.241 . S
C914 O925 1.273 . S
C915 O926 1.251 . S
C915 O927 1.268 . S
O916 Nd896 2.500 . S
O916 C898 1.258 . S
O917 Nd896 2.492 . S
O917 C898 1.239 . S
O918 Nd896 2.487 . S
O918 C905 1.241 . S
O919 Nd896 2.682 . S
O919 Nd897 2.414 . S
O919 C905 1.273 . S
O920 Nd896 2.410 . S
O920 C906 1.251 . S
O921 Nd897 2.424 . S
O921 C906 1.268 . S
O922 Nd897 2.500 . S
O922 C907 1.258 . S
O923 Nd897 2.492 . S
O923 C907 1.239 . S
O924 Nd897 2.487 . S
O924 C914 1.241 . S
O925 Nd896 2.414 . S
O925 Nd897 2.682 . S
O925 C914 1.273 . S
O926 Nd897 2.410 . S
O926 C915 1.251 . S
O927 Nd896 2.424 . S
O927 C915 1.268 . S
H928 C900 0.930 . S
H929 C901 0.929 . S
H930 C903 0.930 . S
H931 C904 0.929 . S
H932 C909 0.930 . S
H933 C910 0.929 . S
H934 C912 0.930 . S
H935 C913 0.929 . S
Nd936 C938 2.836 . S
Nd936 O956 2.500 . S
Nd936 O957 2.492 . S
Nd936 O958 2.487 . S
Nd936 O959 2.682 . S
Nd936 O960 2.410 . S
Nd936 O965 2.414 . S
Nd936 O967 2.424 . S
Nd937 C947 2.836 . S
Nd937 O959 2.414 1_655 S
Nd937 O961 2.424 1_655 S
Nd937 O962 2.500 . S
Nd937 O963 2.492 . S
Nd937 O964 2.487 . S
Nd937 O965 2.682 1_655 S
Nd937 O966 2.410 1_655 S
C938 Nd936 2.836 . S
C938 C939 1.498 . S
C938 O956 1.258 . S
C938 O957 1.239 . S
C939 C938 1.498 . S
C939 C940 1.366 . S
C939 C944 1.407 . S
C940 C939 1.366 . S
C940 C941 1.392 . S
C940 H968 0.930 . S
C941 C940 1.392 . S
C941 C942 1.398 . S
C941 H969 0.929 1_554 S
C942 C941 1.398 . S
C942 C943 1.352 . S
C943 C942 1.352 . S
C943 C944 1.384 . S
C943 H970 0.930 . S
C944 C939 1.407 . S
C944 C943 1.384 . S
C944 H971 0.929 . S
C945 O958 1.241 . S
C945 O959 1.273 . S
C946 O960 1.251 . S
C946 O961 1.268 . S
C947 Nd937 2.836 . S
C947 C948 1.498 . S
C947 O962 1.258 . S
C947 O963 1.239 . S
C948 C947 1.498 . S
C948 C949 1.366 . S
C948 C953 1.407 . S
C949 C948 1.366 . S
C949 C950 1.392 . S
C949 H972 0.930 . S
C950 C949 1.392 . S
C950 C951 1.398 . S
C950 H973 0.929 . S
C951 C950 1.398 . S
C951 C952 1.352 . S
C952 C951 1.352 . S
C952 C953 1.384 . S
C952 H974 0.930 . S
C953 C948 1.407 . S
C953 C952 1.384 . S
C953 H975 0.929 . S
C954 O964 1.241 1_455 S
C954 O965 1.273 . S
C955 O966 1.251 . S
C955 O967 1.268 . S
O956 Nd936 2.500 . S
O956 C938 1.258 . S
O957 Nd936 2.492 . S
O957 C938 1.239 . S
O958 Nd936 2.487 . S
O958 C945 1.241 . S
O959 Nd936 2.682 . S
O959 Nd937 2.414 1_455 S
O959 C945 1.273 . S
O960 Nd936 2.410 . S
O960 C946 1.251 . S
O961 Nd937 2.424 1_455 S
O961 C946 1.268 . S
O962 Nd937 2.500 . S
O962 C947 1.258 . S
O963 Nd937 2.492 . S
O963 C947 1.239 . S
O964 Nd937 2.487 . S
O964 C954 1.241 1_655 S
O965 Nd936 2.414 . S
O965 Nd937 2.682 1_455 S
O965 C954 1.273 . S
O966 Nd937 2.410 1_455 S
O966 C955 1.251 . S
O967 Nd936 2.424 . S
O967 C955 1.268 . S
H968 C940 0.930 . S
H969 C941 0.929 1_556 S
H970 C943 0.930 . S
H971 C944 0.929 . S
H972 C949 0.930 . S
H973 C950 0.929 . S
H974 C952 0.930 . S
H975 C953 0.929 . S
H976 C984 0.929 . S
H977 C986 0.930 . S
H978 C988 0.930 . S
H979 C991 0.929 . S
H980 C994 0.930 . S
H981 C996 0.960 . S
H982 C996 0.960 . S
H983 C996 0.960 . S
C984 H976 0.929 . S
C984 C985 1.377 . S
C984 C986 1.384 . S
C985 C984 1.377 . S
C985 C991 1.390 . S
C986 H977 0.930 . S
C986 C984 1.384 . S
C986 C987 1.372 . S
C987 C986 1.372 . S
C987 C988 1.400 . S
C987 C992 1.490 . S
C988 H978 0.930 . S
C988 C987 1.400 . S
C988 C991 1.386 . S
H989 C1005 0.930 . S
H990 C1006 0.931 1_556 S
C991 H979 0.929 . S
C991 C985 1.390 . S
C991 C988 1.386 . S
C992 C987 1.490 . S
C992 C994 1.395 . S
C992 C995 1.403 . S
H993 C999 0.930 . S
C994 H980 0.930 . S
C994 C992 1.395 . S
C994 C997 1.403 1_556 S
C995 C992 1.403 . S
C995 C996 1.524 . S
C995 C999 1.400 . S
C996 H981 0.960 . S
C996 H982 0.960 . S
C996 H983 0.960 . S
C996 C995 1.524 . S
C997 C994 1.403 1_554 S
C997 C998 1.392 1_554 S
C997 C1001 1.495 . S
C998 C997 1.392 1_556 S
C998 C999 1.385 . S
C998 C1000 1.478 1_556 S
C999 H993 0.930 . S
C999 C995 1.400 . S
C999 C998 1.385 . S
C1000 C998 1.478 1_554 S
C1000 C1002 1.381 . S
C1000 C1006 1.383 . S
C1001 C997 1.495 . S
C1001 H1007 0.959 . S
C1001 H1008 0.961 . S
C1001 H1009 0.960 . S
C1002 C1000 1.381 . S
C1002 C1003 1.394 . S
C1002 H1010 0.930 . S
C1003 C1002 1.394 . S
C1003 C1004 1.383 . S
C1003 H1011 0.929 . S
C1004 C1003 1.383 . S
C1004 C1005 1.377 . S
C1005 H989 0.930 . S
C1005 C1004 1.377 . S
C1005 C1006 1.379 . S
C1006 H990 0.931 1_554 S
C1006 C1000 1.383 . S
C1006 C1005 1.379 . S
H1007 C1001 0.959 . S
H1008 C1001 0.961 . S
H1009 C1001 0.960 . S
H1010 C1002 0.930 . S
H1011 C1003 0.929 . S
H1012 C1020 0.929 . S
H1013 C1022 0.930 . S
H1014 C1024 0.930 . S
H1015 C1027 0.929 . S
H1016 C1030 0.930 . S
H1017 C1032 0.960 . S
H1018 C1032 0.960 . S
H1019 C1032 0.960 . S
C1020 H1012 0.929 . S
C1020 C1021 1.377 . S
C1020 C1022 1.384 . S
C1021 C1020 1.377 . S
C1021 C1027 1.390 . S
C1022 H1013 0.930 . S
C1022 C1020 1.384 . S
C1022 C1023 1.372 . S
C1023 C1022 1.372 . S
C1023 C1024 1.400 . S
C1023 C1028 1.490 . S
C1024 H1014 0.930 . S
C1024 C1023 1.400 . S
C1024 C1027 1.386 . S
H1025 C1041 0.930 . S
H1026 C1042 0.931 . S
C1027 H1015 0.929 . S
C1027 C1021 1.390 . S
C1027 C1024 1.386 . S
C1028 C1023 1.490 . S
C1028 C1030 1.395 . S
C1028 C1031 1.403 . S
H1029 C1035 0.930 . S
C1030 H1016 0.930 . S
C1030 C1028 1.395 . S
C1030 C1033 1.403 . S
C1031 C1028 1.403 . S
C1031 C1032 1.524 . S
C1031 C1035 1.400 . S
C1032 H1017 0.960 . S
C1032 H1018 0.960 . S
C1032 H1019 0.960 . S
C1032 C1031 1.524 . S
C1033 C1030 1.403 . S
C1033 C1034 1.392 . S
C1033 C1037 1.495 . S
C1034 C1033 1.392 . S
C1034 C1035 1.385 . S
C1034 C1036 1.478 . S
C1035 H1029 0.930 . S
C1035 C1031 1.400 . S
C1035 C1034 1.385 . S
C1036 C1034 1.478 . S
C1036 C1038 1.381 . S
C1036 C1042 1.383 . S
C1037 C1033 1.495 . S
C1037 H1043 0.959 . S
C1037 H1044 0.961 . S
C1037 H1045 0.960 . S
C1038 C1036 1.381 . S
C1038 C1039 1.394 . S
C1038 H1046 0.930 . S
C1039 C1038 1.394 . S
C1039 C1040 1.383 . S
C1039 H1047 0.929 . S
C1040 C1039 1.383 . S
C1040 C1041 1.377 . S
C1041 H1025 0.930 . S
C1041 C1040 1.377 . S
C1041 C1042 1.379 . S
C1042 H1026 0.931 . S
C1042 C1036 1.383 . S
C1042 C1041 1.379 . S
H1043 C1037 0.959 . S
H1044 C1037 0.961 . S
H1045 C1037 0.960 . S
H1046 C1038 0.930 . S
H1047 C1039 0.929 . S
H1048 C1056 0.929 . S
H1049 C1058 0.930 . S
H1050 C1060 0.930 . S
H1051 C1063 0.929 . S
H1052 C1066 0.930 . S
H1053 C1068 0.960 . S
H1054 C1068 0.960 . S
H1055 C1068 0.960 . S
C1056 H1048 0.929 . S
C1056 C1057 1.377 . S
C1056 C1058 1.384 . S
C1057 C1056 1.377 . S
C1057 C1063 1.390 . S
C1058 H1049 0.930 . S
C1058 C1056 1.384 . S
C1058 C1059 1.372 . S
C1059 C1058 1.372 . S
C1059 C1060 1.400 . S
C1059 C1064 1.490 . S
C1060 H1050 0.930 . S
C1060 C1059 1.400 . S
C1060 C1063 1.386 . S
H1061 C1077 0.930 . S
H1062 C1078 0.931 . S
C1063 H1051 0.929 . S
C1063 C1057 1.390 . S
C1063 C1060 1.386 . S
C1064 C1059 1.490 . S
C1064 C1066 1.395 . S
C1064 C1067 1.403 . S
H1065 C1071 0.930 . S
C1066 H1052 0.930 . S
C1066 C1064 1.395 . S
C1066 C1069 1.403 . S
C1067 C1064 1.403 . S
C1067 C1068 1.524 . S
C1067 C1071 1.400 . S
C1068 H1053 0.960 . S
C1068 H1054 0.960 . S
C1068 H1055 0.960 . S
C1068 C1067 1.524 . S
C1069 C1066 1.403 . S
C1069 C1070 1.392 . S
C1069 C1073 1.495 . S
C1070 C1069 1.392 . S
C1070 C1071 1.385 . S
C1070 C1072 1.478 . S
C1071 H1065 0.930 . S
C1071 C1067 1.400 . S
C1071 C1070 1.385 . S
C1072 C1070 1.478 . S
C1072 C1074 1.381 . S
C1072 C1078 1.383 . S
C1073 C1069 1.495 . S
C1073 H1079 0.959 . S
C1073 H1080 0.961 . S
C1073 H1081 0.960 . S
C1074 C1072 1.381 . S
C1074 C1075 1.398 . S
C1074 H1082 0.930 . S
C1075 C1074 1.398 . S
C1075 C1076 1.384 1_565 S
C1075 H1083 0.925 1_565 S
C1076 C1075 1.384 1_545 S
C1076 C1077 1.377 1_545 S
C1077 H1061 0.930 . S
C1077 C1076 1.377 1_565 S
C1077 C1078 1.379 . S
C1078 H1062 0.931 . S
C1078 C1072 1.383 . S
C1078 C1077 1.379 . S
H1079 C1073 0.959 . S
H1080 C1073 0.961 . S
H1081 C1073 0.960 . S
H1082 C1074 0.930 . S
H1083 C1075 0.925 1_545 S
H1084 C1092 0.929 . S
H1085 C1094 0.930 . S
H1086 C1096 0.930 . S
H1087 C1099 0.929 . S
H1088 C1102 0.930 . S
H1089 C1104 0.960 . S
H1090 C1104 0.960 . S
H1091 C1104 0.960 . S
C1092 H1084 0.929 . S
C1092 C1093 1.377 . S
C1092 C1094 1.384 . S
C1093 C1092 1.377 . S
C1093 C1099 1.390 . S
C1094 H1085 0.930 . S
C1094 C1092 1.384 . S
C1094 C1095 1.372 . S
C1095 C1094 1.372 . S
C1095 C1096 1.400 . S
C1095 C1100 1.490 . S
C1096 H1086 0.930 . S
C1096 C1095 1.400 . S
C1096 C1099 1.386 . S
H1097 C1113 0.930 . S
H1098 C1114 0.931 . S
C1099 H1087 0.929 . S
C1099 C1093 1.390 . S
C1099 C1096 1.386 . S
C1100 C1095 1.490 . S
C1100 C1102 1.395 . S
C1100 C1103 1.403 . S
H1101 C1107 0.930 . S
C1102 H1088 0.930 . S
C1102 C1100 1.395 . S
C1102 C1105 1.403 . S
C1103 C1100 1.403 . S
C1103 C1104 1.524 . S
C1103 C1107 1.400 . S
C1104 H1089 0.960 . S
C1104 H1090 0.960 . S
C1104 H1091 0.960 . S
C1104 C1103 1.524 . S
C1105 C1102 1.403 . S
C1105 C1106 1.392 . S
C1105 C1109 1.495 . S
C1106 C1105 1.392 . S
C1106 C1107 1.385 . S
C1106 C1108 1.478 . S
C1107 H1101 0.930 . S
C1107 C1103 1.400 . S
C1107 C1106 1.385 . S
C1108 C1106 1.478 . S
C1108 C1110 1.381 . S
C1108 C1114 1.383 . S
C1109 C1105 1.495 . S
C1109 H1115 0.959 . S
C1109 H1116 0.961 . S
C1109 H1117 0.960 . S
C1110 C1108 1.381 . S
C1110 C1111 1.394 . S
C1110 H1118 0.930 . S
C1111 C1110 1.394 . S
C1111 C1112 1.383 . S
C1111 H1119 0.929 . S
C1112 C1111 1.383 . S
C1112 C1113 1.377 . S
C1113 H1097 0.930 . S
C1113 C1112 1.377 . S
C1113 C1114 1.379 . S
C1114 H1098 0.931 . S
C1114 C1108 1.383 . S
C1114 C1113 1.379 . S
H1115 C1109 0.959 . S
H1116 C1109 0.961 . S
H1117 C1109 0.960 . S
H1118 C1110 0.930 . S
H1119 C1111 0.929 . S
H1120 C1128 0.915 1_655 S
H1121 C1130 0.930 . S
H1122 C1132 0.930 . S
H1123 C1135 0.929 . S
H1124 C1138 0.930 . S
H1125 C1140 0.960 . S
H1126 C1140 0.960 . S
H1127 C1140 0.960 . S
C1128 H1120 0.915 1_455 S
C1128 C1129 1.377 . S
C1128 C1130 1.384 . S
C1129 C1128 1.377 . S
C1129 C1135 1.390 . S
C1130 H1121 0.930 . S
C1130 C1128 1.384 . S
C1130 C1131 1.372 . S
C1131 C1130 1.372 . S
C1131 C1132 1.400 . S
C1131 C1136 1.490 . S
C1132 H1122 0.930 . S
C1132 C1131 1.400 . S
C1132 C1135 1.386 . S
H1133 C1149 0.930 . S
H1134 C1150 0.931 . S
C1135 H1123 0.929 . S
C1135 C1129 1.390 . S
C1135 C1132 1.386 . S
C1136 C1131 1.490 . S
C1136 C1138 1.395 . S
C1136 C1139 1.403 . S
H1137 C1143 0.930 . S
C1138 H1124 0.930 . S
C1138 C1136 1.395 . S
C1138 C1141 1.403 . S
C1139 C1136 1.403 . S
C1139 C1140 1.524 1_455 S
C1139 C1143 1.400 . S
C1140 H1125 0.960 . S
C1140 H1126 0.960 . S
C1140 H1127 0.960 . S
C1140 C1139 1.524 1_655 S
C1141 C1138 1.403 . S
C1141 C1142 1.392 . S
C1141 C1145 1.495 . S
C1142 C1141 1.392 . S
C1142 C1143 1.385 . S
C1142 C1144 1.478 . S
C1143 H1137 0.930 . S
C1143 C1139 1.400 . S
C1143 C1142 1.385 . S
C1144 C1142 1.478 . S
C1144 C1146 1.381 . S
C1144 C1150 1.383 . S
C1145 C1141 1.495 . S
C1145 H1151 0.959 . S
C1145 H1152 0.961 . S
C1145 H1153 0.960 . S
C1146 C1144 1.381 . S
C1146 C1147 1.394 . S
C1146 H1154 0.930 . S
C1147 C1146 1.394 . S
C1147 C1148 1.383 . S
C1147 H1155 0.929 . S
C1148 C1147 1.383 . S
C1148 C1149 1.377 . S
C1149 H1133 0.930 . S
C1149 C1148 1.377 . S
C1149 C1150 1.379 . S
C1150 H1134 0.931 . S
C1150 C1144 1.383 . S
C1150 C1149 1.379 . S
H1151 C1145 0.959 . S
H1152 C1145 0.961 . S
H1153 C1145 0.960 . S
H1154 C1146 0.930 . S
H1155 C1147 0.929 . S
H1156 C1164 0.929 . S
H1157 C1166 0.930 . S
H1158 C1168 0.930 . S
H1159 C1171 0.929 . S
H1160 C1174 0.930 . S
H1161 C1176 0.960 . S
H1162 C1176 0.960 . S
H1163 C1176 0.960 . S
C1164 H1156 0.929 . S
C1164 C1165 1.377 . S
C1164 C1166 1.384 . S
C1165 C1164 1.377 . S
C1165 C1171 1.390 . S
C1166 H1157 0.930 . S
C1166 C1164 1.384 . S
C1166 C1167 1.372 . S
C1167 C1166 1.372 . S
C1167 C1168 1.400 . S
C1167 C1172 1.490 . S
C1168 H1158 0.930 . S
C1168 C1167 1.400 . S
C1168 C1171 1.386 . S
H1169 C1185 0.930 . S
H1170 C1186 0.931 . S
C1171 H1159 0.929 . S
C1171 C1165 1.390 . S
C1171 C1168 1.386 . S
C1172 C1167 1.490 . S
C1172 C1174 1.395 . S
C1172 C1175 1.403 . S
H1173 C1179 0.930 . S
C1174 H1160 0.930 . S
C1174 C1172 1.395 . S
C1174 C1177 1.403 . S
C1175 C1172 1.403 . S
C1175 C1176 1.524 . S
C1175 C1179 1.400 . S
C1176 H1161 0.960 . S
C1176 H1162 0.960 . S
C1176 H1163 0.960 . S
C1176 C1175 1.524 . S
C1177 C1174 1.403 . S
C1177 C1178 1.392 . S
C1177 C1181 1.495 . S
C1178 C1177 1.392 . S
C1178 C1179 1.385 . S
C1178 C1180 1.478 . S
C1179 H1173 0.930 . S
C1179 C1175 1.400 . S
C1179 C1178 1.385 . S
C1180 C1178 1.478 . S
C1180 C1182 1.381 . S
C1180 C1186 1.383 . S
C1181 C1177 1.495 . S
C1181 H1187 0.959 . S
C1181 H1188 0.961 . S
C1181 H1189 0.960 . S
C1182 C1180 1.381 . S
C1182 C1183 1.394 . S
C1182 H1190 0.930 . S
C1183 C1182 1.394 . S
C1183 C1184 1.383 . S
C1183 H1191 0.929 . S
C1184 C1183 1.383 . S
C1184 C1185 1.377 . S
C1185 H1169 0.930 . S
C1185 C1184 1.377 . S
C1185 C1186 1.379 . S
C1186 H1170 0.931 . S
C1186 C1180 1.383 . S
C1186 C1185 1.379 . S
H1187 C1181 0.959 . S
H1188 C1181 0.961 . S
H1189 C1181 0.960 . S
H1190 C1182 0.930 . S
H1191 C1183 0.929 . S
H1192 C1200 0.929 . S
H1193 C1202 0.930 . S
H1194 C1204 0.930 . S
H1195 C1207 0.929 . S
H1196 C1210 0.930 . S
H1197 C1212 0.960 . S
H1198 C1212 0.960 . S
H1199 C1212 0.960 . S
C1200 H1192 0.929 . S
C1200 C1201 1.377 . S
C1200 C1202 1.384 . S
C1201 C1200 1.377 . S
C1201 C1207 1.390 . S
C1202 H1193 0.930 . S
C1202 C1200 1.384 . S
C1202 C1203 1.372 . S
C1203 C1202 1.372 . S
C1203 C1204 1.400 . S
C1203 C1208 1.490 . S
C1204 H1194 0.930 . S
C1204 C1203 1.400 . S
C1204 C1207 1.386 . S
H1205 C1221 0.930 . S
H1206 C1222 0.931 . S
C1207 H1195 0.929 . S
C1207 C1201 1.390 . S
C1207 C1204 1.386 . S
C1208 C1203 1.490 . S
C1208 C1210 1.395 . S
C1208 C1211 1.403 . S
H1209 C1215 0.930 . S
C1210 H1196 0.930 . S
C1210 C1208 1.395 . S
C1210 C1213 1.403 . S
C1211 C1208 1.403 . S
C1211 C1212 1.524 . S
C1211 C1215 1.400 . S
C1212 H1197 0.960 . S
C1212 H1198 0.960 . S
C1212 H1199 0.960 . S
C1212 C1211 1.524 . S
C1213 C1210 1.403 . S
C1213 C1214 1.392 . S
C1213 C1217 1.495 . S
C1214 C1213 1.392 . S
C1214 C1215 1.385 . S
C1214 C1216 1.478 . S
C1215 H1209 0.930 . S
C1215 C1211 1.400 . S
C1215 C1214 1.385 . S
C1216 C1214 1.478 . S
C1216 C1218 1.381 . S
C1216 C1222 1.383 . S
C1217 C1213 1.495 . S
C1217 H1223 0.959 . S
C1217 H1224 0.961 . S
C1217 H1225 0.960 . S
C1218 C1216 1.381 . S
C1218 C1219 1.394 . S
C1218 H1226 0.930 . S
C1219 C1218 1.394 . S
C1219 C1220 1.383 . S
C1219 H1227 0.929 . S
C1220 C1219 1.383 . S
C1220 C1221 1.377 . S
C1221 H1205 0.930 . S
C1221 C1220 1.377 . S
C1221 C1222 1.379 . S
C1222 H1206 0.931 . S
C1222 C1216 1.383 . S
C1222 C1221 1.379 . S
H1223 C1217 0.959 . S
H1224 C1217 0.961 . S
H1225 C1217 0.960 . S
H1226 C1218 0.930 . S
H1227 C1219 0.929 . S
H1228 C1236 0.929 . S
H1229 C1238 0.930 . S
H1230 C1240 0.930 . S
H1231 C1243 0.929 . S
H1232 C1246 0.930 . S
H1233 C1248 0.960 . S
H1234 C1248 0.960 . S
H1235 C1248 0.960 . S
C1236 H1228 0.929 . S
C1236 C1237 1.377 . S
C1236 C1238 1.384 . S
C1237 C1236 1.377 . S
C1237 C1243 1.390 . S
C1238 H1229 0.930 . S
C1238 C1236 1.384 . S
C1238 C1239 1.372 . S
C1239 C1238 1.372 . S
C1239 C1240 1.400 . S
C1239 C1244 1.490 . S
C1240 H1230 0.930 . S
C1240 C1239 1.400 . S
C1240 C1243 1.386 . S
H1241 C1257 0.930 . S
H1242 C1258 0.931 . S
C1243 H1231 0.929 . S
C1243 C1237 1.390 . S
C1243 C1240 1.386 . S
C1244 C1239 1.490 . S
C1244 C1246 1.395 . S
C1244 C1247 1.403 . S
H1245 C1251 0.930 . S
C1246 H1232 0.930 . S
C1246 C1244 1.395 . S
C1246 C1249 1.403 . S
C1247 C1244 1.403 . S
C1247 C1248 1.524 . S
C1247 C1251 1.400 . S
C1248 H1233 0.960 . S
C1248 H1234 0.960 . S
C1248 H1235 0.960 . S
C1248 C1247 1.524 . S
C1249 C1246 1.403 . S
C1249 C1250 1.392 . S
C1249 C1253 1.495 . S
C1250 C1249 1.392 . S
C1250 C1251 1.385 . S
C1250 C1252 1.478 . S
C1251 H1245 0.930 . S
C1251 C1247 1.400 . S
C1251 C1250 1.385 . S
C1252 C1250 1.478 . S
C1252 C1254 1.381 . S
C1252 C1258 1.383 . S
C1253 C1249 1.495 . S
C1253 H1259 0.959 . S
C1253 H1260 0.961 . S
C1253 H1261 0.960 . S
C1254 C1252 1.381 . S
C1254 C1255 1.394 . S
C1254 H1262 0.930 . S
C1255 C1254 1.394 . S
C1255 C1256 1.383 . S
C1255 H1263 0.929 . S
C1256 C1255 1.383 . S
C1256 C1257 1.377 . S
C1257 H1241 0.930 . S
C1257 C1256 1.377 . S
C1257 C1258 1.379 . S
C1258 H1242 0.931 . S
C1258 C1252 1.383 . S
C1258 C1257 1.379 . S
H1259 C1253 0.959 . S
H1260 C1253 0.961 . S
H1261 C1253 0.960 . S
H1262 C1254 0.930 . S
H1263 C1255 0.929 . S
H1264 C1272 0.929 . S
H1265 C1274 0.930 . S
H1266 C1276 0.930 . S
H1267 C1279 0.929 . S
H1268 C1282 0.930 . S
H1269 C1284 0.960 . S
H1270 C1284 0.960 . S
H1271 C1284 0.960 . S
C1272 H1264 0.929 . S
C1272 C1273 1.377 . S
C1272 C1274 1.384 . S
C1273 C1272 1.377 . S
C1273 C1279 1.390 . S
C1274 H1265 0.930 . S
C1274 C1272 1.384 . S
C1274 C1275 1.372 . S
C1275 C1274 1.372 . S
C1275 C1276 1.400 . S
C1275 C1280 1.490 . S
C1276 H1266 0.930 . S
C1276 C1275 1.400 . S
C1276 C1279 1.386 . S
H1277 C1293 0.929 . S
H1278 C1294 0.931 . S
C1279 H1267 0.929 . S
C1279 C1273 1.390 . S
C1279 C1276 1.386 . S
C1280 C1275 1.490 . S
C1280 C1282 1.395 . S
C1280 C1283 1.403 . S
H1281 C1287 0.930 . S
C1282 H1268 0.930 . S
C1282 C1280 1.395 . S
C1282 C1285 1.403 . S
C1283 C1280 1.403 . S
C1283 C1284 1.524 . S
C1283 C1287 1.400 . S
C1284 H1269 0.960 . S
C1284 H1270 0.960 . S
C1284 H1271 0.960 . S
C1284 C1283 1.524 . S
C1285 C1282 1.403 . S
C1285 C1286 1.392 . S
C1285 C1289 1.495 . S
C1286 C1285 1.392 . S
C1286 C1287 1.385 . S
C1286 C1288 1.478 . S
C1287 H1281 0.930 . S
C1287 C1283 1.400 . S
C1287 C1286 1.385 . S
C1288 C1286 1.478 . S
C1288 C1290 1.381 . S
C1288 C1294 1.383 . S
C1289 C1285 1.495 . S
C1289 H1295 0.959 . S
C1289 H1296 0.961 . S
C1289 H1297 0.960 . S
C1290 C1288 1.381 . S
C1290 C1291 1.394 1_655 S
C1290 H1298 0.930 . S
C1291 C1290 1.394 1_455 S
C1291 C1292 1.383 . S
C1291 H1299 0.929 . S
C1292 C1291 1.383 . S
C1292 C1293 1.377 1_455 S
C1293 H1277 0.929 . S
C1293 C1292 1.377 1_655 S
C1293 C1294 1.379 . S
C1294 H1278 0.931 . S
C1294 C1288 1.383 . S
C1294 C1293 1.379 . S
H1295 C1289 0.959 . S
H1296 C1289 0.961 . S
H1297 C1289 0.960 . S
H1298 C1290 0.930 . S
H1299 C1291 0.929 . S
H1300 C1308 0.929 . S
H1301 C1310 0.930 . S
H1302 C1312 0.930 . S
H1303 C1315 0.929 . S
H1304 C1318 0.930 . S
H1305 C1320 0.960 . S
H1306 C1320 0.960 . S
H1307 C1320 0.960 . S
C1308 H1300 0.929 . S
C1308 C1309 1.377 . S
C1308 C1310 1.384 . S
C1309 C1308 1.377 . S
C1309 C1315 1.390 . S
C1310 H1301 0.930 . S
C1310 C1308 1.384 . S
C1310 C1311 1.372 . S
C1311 C1310 1.372 . S
C1311 C1312 1.400 . S
C1311 C1316 1.490 . S
C1312 H1302 0.930 . S
C1312 C1311 1.400 . S
C1312 C1315 1.386 . S
H1313 C1329 0.930 . S
H1314 C1330 0.931 . S
C1315 H1303 0.929 . S
C1315 C1309 1.390 . S
C1315 C1312 1.386 . S
C1316 C1311 1.490 . S
C1316 C1318 1.395 . S
C1316 C1319 1.403 . S
H1317 C1323 0.930 . S
C1318 H1304 0.930 . S
C1318 C1316 1.395 . S
C1318 C1321 1.403 . S
C1319 C1316 1.403 . S
C1319 C1320 1.524 . S
C1319 C1323 1.400 . S
C1320 H1305 0.960 . S
C1320 H1306 0.960 . S
C1320 H1307 0.960 . S
C1320 C1319 1.524 . S
C1321 C1318 1.403 . S
C1321 C1322 1.392 . S
C1321 C1325 1.495 . S
C1322 C1321 1.392 . S
C1322 C1323 1.385 . S
C1322 C1324 1.478 . S
C1323 H1317 0.930 . S
C1323 C1319 1.400 . S
C1323 C1322 1.385 . S
C1324 C1322 1.478 . S
C1324 C1326 1.381 . S
C1324 C1330 1.383 . S
C1325 C1321 1.495 . S
C1325 H1331 0.959 . S
C1325 H1332 0.961 . S
C1325 H1333 0.960 . S
C1326 C1324 1.381 . S
C1326 C1327 1.394 . S
C1326 H1334 0.930 . S
C1327 C1326 1.394 . S
C1327 C1328 1.383 . S
C1327 H1335 0.929 . S
C1328 C1327 1.383 . S
C1328 C1329 1.377 . S
C1329 H1313 0.930 . S
C1329 C1328 1.377 . S
C1329 C1330 1.379 . S
C1330 H1314 0.931 . S
C1330 C1324 1.383 . S
C1330 C1329 1.379 . S
H1331 C1325 0.959 . S
H1332 C1325 0.961 . S
H1333 C1325 0.960 . S
H1334 C1326 0.930 . S
H1335 C1327 0.929 . S
H1336 C1344 0.929 . S
H1337 C1346 0.930 . S
H1338 C1348 0.931 1_565 S
H1339 C1351 0.929 . S
H1340 C1354 0.934 1_565 S
H1341 C1356 0.960 . S
H1342 C1356 0.960 . S
H1343 C1356 0.960 . S
C1344 H1336 0.929 . S
C1344 C1345 1.388 . S
C1344 C1346 1.384 . S
C1345 C1344 1.388 . S
C1345 C1351 1.390 1_545 S
C1346 H1337 0.930 . S
C1346 C1344 1.384 . S
C1346 C1347 1.372 . S
C1347 C1346 1.372 . S
C1347 C1348 1.413 . S
C1347 C1352 1.490 . S
C1348 H1338 0.931 1_545 S
C1348 C1347 1.413 . S
C1348 C1351 1.372 1_545 S
H1349 C1365 0.930 . S
H1350 C1366 0.931 . S
C1351 H1339 0.929 . S
C1351 C1345 1.390 1_565 S
C1351 C1348 1.372 1_565 S
C1352 C1347 1.490 . S
C1352 C1354 1.395 . S
C1352 C1355 1.403 . S
H1353 C1359 0.930 . S
C1354 H1340 0.934 1_545 S
C1354 C1352 1.395 . S
C1354 C1357 1.403 . S
C1355 C1352 1.403 . S
C1355 C1356 1.524 . S
C1355 C1359 1.400 . S
C1356 H1341 0.960 . S
C1356 H1342 0.960 . S
C1356 H1343 0.960 . S
C1356 C1355 1.524 . S
C1357 C1354 1.403 . S
C1357 C1358 1.392 . S
C1357 C1361 1.495 . S
C1358 C1357 1.392 . S
C1358 C1359 1.385 . S
C1358 C1360 1.478 . S
C1359 H1353 0.930 . S
C1359 C1355 1.400 . S
C1359 C1358 1.385 . S
C1360 C1358 1.478 . S
C1360 C1362 1.381 . S
C1360 C1366 1.383 . S
C1361 C1357 1.495 . S
C1361 H1367 0.959 1_545 S
C1361 H1368 0.961 1_545 S
C1361 H1369 0.960 . S
C1362 C1360 1.381 . S
C1362 C1363 1.394 . S
C1362 H1370 0.930 . S
C1363 C1362 1.394 . S
C1363 C1364 1.383 . S
C1363 H1371 0.929 . S
C1364 C1363 1.383 . S
C1364 C1365 1.377 . S
C1365 H1349 0.930 . S
C1365 C1364 1.377 . S
C1365 C1366 1.379 . S
C1366 H1350 0.931 . S
C1366 C1360 1.383 . S
C1366 C1365 1.379 . S
H1367 C1361 0.959 1_565 S
H1368 C1361 0.961 1_565 S
H1369 C1361 0.960 . S
H1370 C1362 0.930 . S
H1371 C1363 0.929 . S
H1372 C1380 0.929 . S
H1373 C1382 0.930 . S
H1374 C1384 0.930 . S
H1375 C1387 0.929 . S
H1376 C1390 0.930 . S
H1377 C1392 0.960 . S
H1378 C1392 0.960 . S
H1379 C1392 0.960 . S
C1380 H1372 0.929 . S
C1380 C1381 1.377 . S
C1380 C1382 1.384 . S
C1381 C1380 1.377 . S
C1381 C1387 1.390 . S
C1382 H1373 0.930 . S
C1382 C1380 1.384 . S
C1382 C1383 1.372 . S
C1383 C1382 1.372 . S
C1383 C1384 1.400 . S
C1383 C1388 1.490 . S
C1384 H1374 0.930 . S
C1384 C1383 1.400 . S
C1384 C1387 1.386 . S
H1385 C1401 0.930 . S
H1386 C1402 0.931 . S
C1387 H1375 0.929 . S
C1387 C1381 1.390 . S
C1387 C1384 1.386 . S
C1388 C1383 1.490 . S
C1388 C1390 1.395 1_554 S
C1388 C1391 1.403 . S
H1389 C1395 0.930 . S
C1390 H1376 0.930 . S
C1390 C1388 1.395 1_556 S
C1390 C1393 1.403 . S
C1391 C1388 1.403 . S
C1391 C1392 1.524 . S
C1391 C1395 1.400 1_554 S
C1392 H1377 0.960 . S
C1392 H1378 0.960 . S
C1392 H1379 0.960 . S
C1392 C1391 1.524 . S
C1393 C1390 1.403 . S
C1393 C1394 1.392 . S
C1393 C1397 1.495 . S
C1394 C1393 1.392 . S
C1394 C1395 1.385 . S
C1394 C1396 1.478 . S
C1395 H1389 0.930 . S
C1395 C1391 1.400 1_556 S
C1395 C1394 1.385 . S
C1396 C1394 1.478 . S
C1396 C1398 1.381 . S
C1396 C1402 1.383 . S
C1397 C1393 1.495 . S
C1397 H1403 0.959 . S
C1397 H1404 0.961 . S
C1397 H1405 0.960 . S
C1398 C1396 1.381 . S
C1398 C1399 1.394 . S
C1398 H1406 0.930 . S
C1399 C1398 1.394 . S
C1399 C1400 1.383 . S
C1399 H1407 0.929 . S
C1400 C1399 1.383 . S
C1400 C1401 1.377 . S
C1401 H1385 0.930 . S
C1401 C1400 1.377 . S
C1401 C1402 1.379 . S
C1402 H1386 0.931 . S
C1402 C1396 1.383 . S
C1402 C1401 1.379 . S
H1403 C1397 0.959 . S
H1404 C1397 0.961 . S
H1405 C1397 0.960 . S
H1406 C1398 0.930 . S
H1407 C1399 0.929 . S
H1408 C1416 0.929 . S
H1409 C1418 0.930 . S
H1410 C1420 0.930 . S
H1411 C1423 0.929 . S
H1412 C1426 0.930 . S
H1413 C1428 0.960 . S
H1414 C1428 0.960 . S
H1415 C1428 0.960 . S
C1416 H1408 0.929 . S
C1416 C1417 1.377 . S
C1416 C1418 1.384 . S
C1417 C1416 1.377 . S
C1417 C1423 1.390 . S
C1418 H1409 0.930 . S
C1418 C1416 1.384 . S
C1418 C1419 1.372 . S
C1419 C1418 1.372 . S
C1419 C1420 1.400 . S
C1419 C1424 1.490 . S
C1420 H1410 0.930 . S
C1420 C1419 1.400 . S
C1420 C1423 1.386 . S
H1421 C1437 0.930 . S
H1422 C1438 0.931 1_455 S
C1423 H1411 0.929 . S
C1423 C1417 1.390 . S
C1423 C1420 1.386 . S
C1424 C1419 1.490 . S
C1424 C1426 1.395 . S
C1424 C1427 1.403 . S
H1425 C1431 0.930 . S
C1426 H1412 0.930 . S
C1426 C1424 1.395 . S
C1426 C1429 1.403 . S
C1427 C1424 1.403 . S
C1427 C1428 1.524 . S
C1427 C1431 1.400 . S
C1428 H1413 0.960 . S
C1428 H1414 0.960 . S
C1428 H1415 0.960 . S
C1428 C1427 1.524 . S
C1429 C1426 1.403 . S
C1429 C1430 1.392 . S
C1429 C1433 1.495 . S
C1430 C1429 1.392 . S
C1430 C1431 1.385 . S
C1430 C1432 1.478 . S
C1431 H1425 0.930 . S
C1431 C1427 1.400 . S
C1431 C1430 1.385 . S
C1432 C1430 1.478 . S
C1432 C1434 1.381 . S
C1432 C1438 1.383 . S
C1433 C1429 1.495 . S
C1433 H1439 0.959 . S
C1433 H1440 0.961 . S
C1433 H1441 0.960 . S
C1434 C1432 1.381 . S
C1434 C1435 1.394 . S
C1434 H1442 0.930 . S
C1435 C1434 1.394 . S
C1435 C1436 1.383 . S
C1435 H1443 0.929 . S
C1436 C1435 1.383 . S
C1436 C1437 1.377 1_655 S
C1437 H1421 0.930 . S
C1437 C1436 1.377 1_455 S
C1437 C1438 1.379 1_455 S
C1438 H1422 0.931 1_655 S
C1438 C1432 1.383 . S
C1438 C1437 1.379 1_655 S
H1439 C1433 0.959 . S
H1440 C1433 0.961 . S
H1441 C1433 0.960 . S
H1442 C1434 0.930 . S
H1443 C1435 0.929 . S
H1444 C1452 0.929 . S
H1445 C1454 0.930 . S
H1446 C1456 0.930 . S
H1447 C1459 0.929 . S
H1448 C1462 0.930 . S
H1449 C1464 0.960 . S
H1450 C1464 0.960 . S
H1451 C1464 0.960 . S
C1452 H1444 0.929 . S
C1452 C1453 1.377 . S
C1452 C1454 1.384 . S
C1453 C1452 1.377 . S
C1453 C1459 1.390 . S
C1454 H1445 0.930 . S
C1454 C1452 1.384 . S
C1454 C1455 1.372 . S
C1455 C1454 1.372 . S
C1455 C1456 1.400 . S
C1455 C1460 1.490 . S
C1456 H1446 0.930 . S
C1456 C1455 1.400 . S
C1456 C1459 1.386 . S
H1457 C1473 0.930 . S
H1458 C1474 0.931 . S
C1459 H1447 0.929 . S
C1459 C1453 1.390 . S
C1459 C1456 1.386 . S
C1460 C1455 1.490 . S
C1460 C1462 1.395 . S
C1460 C1463 1.403 . S
H1461 C1467 0.930 . S
C1462 H1448 0.930 . S
C1462 C1460 1.395 . S
C1462 C1465 1.403 . S
C1463 C1460 1.403 . S
C1463 C1464 1.524 . S
C1463 C1467 1.400 . S
C1464 H1449 0.960 . S
C1464 H1450 0.960 . S
C1464 H1451 0.960 . S
C1464 C1463 1.524 . S
C1465 C1462 1.403 . S
C1465 C1466 1.392 . S
C1465 C1469 1.495 . S
C1466 C1465 1.392 . S
C1466 C1467 1.385 . S
C1466 C1468 1.478 . S
C1467 H1461 0.930 . S
C1467 C1463 1.400 . S
C1467 C1466 1.385 . S
C1468 C1466 1.478 . S
C1468 C1470 1.381 . S
C1468 C1474 1.383 . S
C1469 C1465 1.495 . S
C1469 H1475 0.959 . S
C1469 H1476 0.961 . S
C1469 H1477 0.960 . S
C1470 C1468 1.381 . S
C1470 C1471 1.394 . S
C1470 H1478 0.930 . S
C1471 C1470 1.394 . S
C1471 C1472 1.383 . S
C1471 H1479 0.929 . S
C1472 C1471 1.383 . S
C1472 C1473 1.377 . S
C1473 H1457 0.930 . S
C1473 C1472 1.377 . S
C1473 C1474 1.379 . S
C1474 H1458 0.931 . S
C1474 C1468 1.383 . S
C1474 C1473 1.379 . S
H1475 C1469 0.959 . S
H1476 C1469 0.961 . S
H1477 C1469 0.960 . S
H1478 C1470 0.930 . S
H1479 C1471 0.929 . S
H1480 C1488 0.973 . S
H1481 C1490 0.930 1_565 S
H1482 C1492 0.930 . S
H1483 C1495 0.929 . S
H1484 C1498 0.930 . S
H1485 C1500 0.960 . S
H1486 C1500 0.960 . S
H1487 C1500 0.960 . S
C1488 H1480 0.973 . S
C1488 C1489 1.358 1_565 S
C1488 C1490 1.365 1_565 S
C1489 C1488 1.358 1_545 S
C1489 C1495 1.390 . S
C1490 H1481 0.930 1_545 S
C1490 C1488 1.365 1_545 S
C1490 C1491 1.372 . S
C1491 C1490 1.372 . S
C1491 C1492 1.400 . S
C1491 C1496 1.490 . S
C1492 H1482 0.930 . S
C1492 C1491 1.400 . S
C1492 C1495 1.386 . S
H1493 C1509 0.930 . S
H1494 C1510 0.931 . S
C1495 H1483 0.929 . S
C1495 C1489 1.390 . S
C1495 C1492 1.386 . S
C1496 C1491 1.490 . S
C1496 C1498 1.395 . S
C1496 C1499 1.403 . S
H1497 C1503 0.930 . S
C1498 H1484 0.930 . S
C1498 C1496 1.395 . S
C1498 C1501 1.403 . S
C1499 C1496 1.403 . S
C1499 C1500 1.524 . S
C1499 C1503 1.400 . S
C1500 H1485 0.960 . S
C1500 H1486 0.960 . S
C1500 H1487 0.960 . S
C1500 C1499 1.524 . S
C1501 C1498 1.403 . S
C1501 C1502 1.392 . S
C1501 C1505 1.495 . S
C1502 C1501 1.392 . S
C1502 C1503 1.385 . S
C1502 C1504 1.478 . S
C1503 H1497 0.930 . S
C1503 C1499 1.400 . S
C1503 C1502 1.385 . S
C1504 C1502 1.478 . S
C1504 C1506 1.381 . S
C1504 C1510 1.383 . S
C1505 C1501 1.495 . S
C1505 H1511 0.959 1_545 S
C1505 H1512 0.961 . S
C1505 H1513 0.960 . S
C1506 C1504 1.381 . S
C1506 C1507 1.394 . S
C1506 H1514 0.930 . S
C1507 C1506 1.394 . S
C1507 C1508 1.383 . S
C1507 H1515 0.929 . S
C1508 C1507 1.383 . S
C1508 C1509 1.377 . S
C1509 H1493 0.930 . S
C1509 C1508 1.377 . S
C1509 C1510 1.379 . S
C1510 H1494 0.931 . S
C1510 C1504 1.383 . S
C1510 C1509 1.379 . S
H1511 C1505 0.959 1_565 S
H1512 C1505 0.961 . S
H1513 C1505 0.960 . S
H1514 C1506 0.930 . S
H1515 C1507 0.929 . S
H1516 C1524 0.929 . S
H1517 C1526 0.930 . S
H1518 C1528 0.930 . S
H1519 C1531 0.929 . S
H1520 C1534 0.930 . S
H1521 C1536 0.960 . S
H1522 C1536 0.960 . S
H1523 C1536 0.960 . S
C1524 H1516 0.929 . S
C1524 C1525 1.377 . S
C1524 C1526 1.384 . S
C1525 C1524 1.377 . S
C1525 C1531 1.390 . S
C1526 H1517 0.930 . S
C1526 C1524 1.384 . S
C1526 C1527 1.372 . S
C1527 C1526 1.372 . S
C1527 C1528 1.400 . S
C1527 C1532 1.490 . S
C1528 H1518 0.930 . S
C1528 C1527 1.400 . S
C1528 C1531 1.386 . S
H1529 C1545 0.930 . S
H1530 C1546 0.931 . S
C1531 H1519 0.929 . S
C1531 C1525 1.390 . S
C1531 C1528 1.386 . S
C1532 C1527 1.490 . S
C1532 C1534 1.395 . S
C1532 C1535 1.403 . S
H1533 C1539 0.930 . S
C1534 H1520 0.930 . S
C1534 C1532 1.395 . S
C1534 C1537 1.403 . S
C1535 C1532 1.403 . S
C1535 C1536 1.524 . S
C1535 C1539 1.400 . S
C1536 H1521 0.960 . S
C1536 H1522 0.960 . S
C1536 H1523 0.960 . S
C1536 C1535 1.524 . S
C1537 C1534 1.403 . S
C1537 C1538 1.392 . S
C1537 C1541 1.495 . S
C1538 C1537 1.392 . S
C1538 C1539 1.385 . S
C1538 C1540 1.478 . S
C1539 H1533 0.930 . S
C1539 C1535 1.400 . S
C1539 C1538 1.385 . S
C1540 C1538 1.478 . S
C1540 C1542 1.381 . S
C1540 C1546 1.383 . S
C1541 C1537 1.495 . S
C1541 H1547 0.959 . S
C1541 H1548 0.961 . S
C1541 H1549 0.960 . S
C1542 C1540 1.381 . S
C1542 C1543 1.394 . S
C1542 H1550 0.930 . S
C1543 C1542 1.394 . S
C1543 C1544 1.383 . S
C1543 H1551 0.929 . S
C1544 C1543 1.383 . S
C1544 C1545 1.377 . S
C1545 H1529 0.930 . S
C1545 C1544 1.377 . S
C1545 C1546 1.379 . S
C1546 H1530 0.931 . S
C1546 C1540 1.383 . S
C1546 C1545 1.379 . S
H1547 C1541 0.959 . S
H1548 C1541 0.961 . S
H1549 C1541 0.960 . S
H1550 C1542 0.930 . S
H1551 C1543 0.929 . S
H1552 C1560 0.929 . S
H1553 C1562 0.930 . S
H1554 C1564 0.930 . S
H1555 C1567 0.929 . S
H1556 C1570 0.930 . S
H1557 C1572 0.960 . S
H1558 C1572 0.960 . S
H1559 C1572 0.960 . S
C1560 H1552 0.929 . S
C1560 C1561 1.377 . S
C1560 C1562 1.384 . S
C1561 C1560 1.377 . S
C1561 C1567 1.390 . S
C1562 H1553 0.930 . S
C1562 C1560 1.384 . S
C1562 C1563 1.372 . S
C1563 C1562 1.372 . S
C1563 C1564 1.400 . S
C1563 C1568 1.490 . S
C1564 H1554 0.930 . S
C1564 C1563 1.400 . S
C1564 C1567 1.386 . S
H1565 C1581 0.930 . S
H1566 C1582 0.931 1_565 S
C1567 H1555 0.929 . S
C1567 C1561 1.390 . S
C1567 C1564 1.386 . S
C1568 C1563 1.490 . S
C1568 C1570 1.395 . S
C1568 C1571 1.403 . S
H1569 C1575 0.930 . S
C1570 H1556 0.930 . S
C1570 C1568 1.395 . S
C1570 C1573 1.403 1_565 S
C1571 C1568 1.403 . S
C1571 C1572 1.524 . S
C1571 C1575 1.400 . S
C1572 H1557 0.960 . S
C1572 H1558 0.960 . S
C1572 H1559 0.960 . S
C1572 C1571 1.524 . S
C1573 C1570 1.403 1_545 S
C1573 C1574 1.392 1_545 S
C1573 C1577 1.495 . S
C1574 C1573 1.392 1_565 S
C1574 C1575 1.385 . S
C1574 C1576 1.478 1_565 S
C1575 H1569 0.930 . S
C1575 C1571 1.400 . S
C1575 C1574 1.385 . S
C1576 C1574 1.478 1_545 S
C1576 C1578 1.381 . S
C1576 C1582 1.383 . S
C1577 C1573 1.495 . S
C1577 H1583 0.959 . S
C1577 H1584 0.961 . S
C1577 H1585 0.960 . S
C1578 C1576 1.381 . S
C1578 C1579 1.394 . S
C1578 H1586 0.930 . S
C1579 C1578 1.394 . S
C1579 C1580 1.383 . S
C1579 H1587 0.929 . S
C1580 C1579 1.383 . S
C1580 C1581 1.377 . S
C1581 H1565 0.930 . S
C1581 C1580 1.377 . S
C1581 C1582 1.379 . S
C1582 H1566 0.931 1_545 S
C1582 C1576 1.383 . S
C1582 C1581 1.379 . S
H1583 C1577 0.959 . S
H1584 C1577 0.961 . S
H1585 C1577 0.960 . S
H1586 C1578 0.930 . S
H1587 C1579 0.929 . S
H1588 C1596 0.929 . S
H1589 C1598 0.930 . S
H1590 C1600 0.930 . S
H1591 C1603 0.929 . S
H1592 C1606 0.930 . S
H1593 C1608 0.960 . S
H1594 C1608 0.960 . S
H1595 C1608 0.960 1_556 S
C1596 H1588 0.929 . S
C1596 C1597 1.377 1_554 S
C1596 C1598 1.384 . S
C1597 C1596 1.377 1_556 S
C1597 C1603 1.390 . S
C1598 H1589 0.930 . S
C1598 C1596 1.384 . S
C1598 C1599 1.372 . S
C1599 C1598 1.372 . S
C1599 C1600 1.400 1_554 S
C1599 C1604 1.490 . S
C1600 H1590 0.930 . S
C1600 C1599 1.400 1_556 S
C1600 C1603 1.386 . S
H1601 C1617 0.930 . S
H1602 C1618 0.928 . S
C1603 H1591 0.929 . S
C1603 C1597 1.390 . S
C1603 C1600 1.386 . S
C1604 C1599 1.490 . S
C1604 C1606 1.395 . S
C1604 C1607 1.403 . S
H1605 C1611 0.930 . S
C1606 H1592 0.930 . S
C1606 C1604 1.395 . S
C1606 C1609 1.403 . S
C1607 C1604 1.403 . S
C1607 C1608 1.524 . S
C1607 C1611 1.400 . S
C1608 H1593 0.960 . S
C1608 H1594 0.960 . S
C1608 H1595 0.960 1_554 S
C1608 C1607 1.524 . S
C1609 C1606 1.403 . S
C1609 C1610 1.392 . S
C1609 C1613 1.495 . S
C1610 C1609 1.392 . S
C1610 C1611 1.385 . S
C1610 C1612 1.478 . S
C1611 H1605 0.930 . S
C1611 C1607 1.400 . S
C1611 C1610 1.385 . S
C1612 C1610 1.478 . S
C1612 C1614 1.381 . S
C1612 C1618 1.383 . S
C1613 C1609 1.495 . S
C1613 H1619 0.959 . S
C1613 H1620 0.961 . S
C1613 H1621 0.960 . S
C1614 C1612 1.381 . S
C1614 C1615 1.394 . S
C1614 H1622 0.930 . S
C1615 C1614 1.394 . S
C1615 C1616 1.383 . S
C1615 H1623 0.929 . S
C1616 C1615 1.383 . S
C1616 C1617 1.377 . S
C1617 H1601 0.930 . S
C1617 C1616 1.377 . S
C1617 C1618 1.379 . S
C1618 H1602 0.928 . S
C1618 C1612 1.383 . S
C1618 C1617 1.379 . S
H1619 C1613 0.959 . S
H1620 C1613 0.961 . S
H1621 C1613 0.960 . S
H1622 C1614 0.930 . S
H1623 C1615 0.929 . S
H1624 C1632 0.929 . S
H1625 C1634 0.930 . S
H1626 C1636 0.930 . S
H1627 C1639 0.929 . S
H1628 C1642 0.930 . S
H1629 C1644 0.960 . S
H1630 C1644 0.960 . S
H1631 C1644 0.960 . S
C1632 H1624 0.929 . S
C1632 C1633 1.377 . S
C1632 C1634 1.384 . S
C1633 C1632 1.377 . S
C1633 C1639 1.390 . S
C1634 H1625 0.930 . S
C1634 C1632 1.384 . S
C1634 C1635 1.372 . S
C1635 C1634 1.372 . S
C1635 C1636 1.400 . S
C1635 C1640 1.490 . S
C1636 H1626 0.930 . S
C1636 C1635 1.400 . S
C1636 C1639 1.386 . S
H1637 C1653 0.930 . S
H1638 C1654 0.931 . S
C1639 H1627 0.929 . S
C1639 C1633 1.390 . S
C1639 C1636 1.386 . S
C1640 C1635 1.490 . S
C1640 C1642 1.395 . S
C1640 C1643 1.403 . S
H1641 C1647 0.930 . S
C1642 H1628 0.930 . S
C1642 C1640 1.395 . S
C1642 C1645 1.403 . S
C1643 C1640 1.403 . S
C1643 C1644 1.524 . S
C1643 C1647 1.400 . S
C1644 H1629 0.960 . S
C1644 H1630 0.960 . S
C1644 H1631 0.960 . S
C1644 C1643 1.524 . S
C1645 C1642 1.403 . S
C1645 C1646 1.392 . S
C1645 C1649 1.495 . S
C1646 C1645 1.392 . S
C1646 C1647 1.385 . S
C1646 C1648 1.478 . S
C1647 H1641 0.930 . S
C1647 C1643 1.400 . S
C1647 C1646 1.385 . S
C1648 C1646 1.478 . S
C1648 C1650 1.381 . S
C1648 C1654 1.383 . S
C1649 C1645 1.495 . S
C1649 H1655 0.959 . S
C1649 H1656 0.961 . S
C1649 H1657 0.960 . S
C1650 C1648 1.381 . S
C1650 C1651 1.394 . S
C1650 H1658 0.930 . S
C1651 C1650 1.394 . S
C1651 C1652 1.383 . S
C1651 H1659 0.929 . S
C1652 C1651 1.383 . S
C1652 C1653 1.377 . S
C1653 H1637 0.930 . S
C1653 C1652 1.377 . S
C1653 C1654 1.379 . S
C1654 H1638 0.931 . S
C1654 C1648 1.383 . S
C1654 C1653 1.379 . S
H1655 C1649 0.959 . S
H1656 C1649 0.961 . S
H1657 C1649 0.960 . S
H1658 C1650 0.930 . S
H1659 C1651 0.929 . S
H1660 C1668 0.929 . S
H1661 C1670 0.930 . S
H1662 C1672 0.930 . S
H1663 C1675 0.929 . S
H1664 C1678 0.930 . S
H1665 C1680 0.960 . S
H1666 C1680 0.960 . S
H1667 C1680 0.960 . S
C1668 H1660 0.929 . S
C1668 C1669 1.377 . S
C1668 C1670 1.384 . S
C1669 C1668 1.377 . S
C1669 C1675 1.390 . S
C1670 H1661 0.930 . S
C1670 C1668 1.384 . S
C1670 C1671 1.372 . S
C1671 C1670 1.372 . S
C1671 C1672 1.400 . S
C1671 C1676 1.490 . S
C1672 H1662 0.930 . S
C1672 C1671 1.400 . S
C1672 C1675 1.386 . S
H1673 C1689 0.930 . S
H1674 C1690 0.931 . S
C1675 H1663 0.929 . S
C1675 C1669 1.390 . S
C1675 C1672 1.386 . S
C1676 C1671 1.490 . S
C1676 C1678 1.395 . S
C1676 C1679 1.403 . S
H1677 C1683 0.930 . S
C1678 H1664 0.930 . S
C1678 C1676 1.395 . S
C1678 C1681 1.403 . S
C1679 C1676 1.403 . S
C1679 C1680 1.524 . S
C1679 C1683 1.400 . S
C1680 H1665 0.960 . S
C1680 H1666 0.960 . S
C1680 H1667 0.960 . S
C1680 C1679 1.524 . S
C1681 C1678 1.403 . S
C1681 C1682 1.392 . S
C1681 C1685 1.495 . S
C1682 C1681 1.392 . S
C1682 C1683 1.385 . S
C1682 C1684 1.478 . S
C1683 H1677 0.930 . S
C1683 C1679 1.400 . S
C1683 C1682 1.385 . S
C1684 C1682 1.478 . S
C1684 C1686 1.381 . S
C1684 C1690 1.383 . S
C1685 C1681 1.495 . S
C1685 H1691 0.959 . S
C1685 H1692 0.961 . S
C1685 H1693 0.960 . S
C1686 C1684 1.381 . S
C1686 C1687 1.394 . S
C1686 H1694 0.930 . S
C1687 C1686 1.394 . S
C1687 C1688 1.383 . S
C1687 H1695 0.929 . S
C1688 C1687 1.383 . S
C1688 C1689 1.377 . S
C1689 H1673 0.930 . S
C1689 C1688 1.377 . S
C1689 C1690 1.379 . S
C1690 H1674 0.931 . S
C1690 C1684 1.383 . S
C1690 C1689 1.379 . S
H1691 C1685 0.959 . S
H1692 C1685 0.961 . S
H1693 C1685 0.960 . S
H1694 C1686 0.930 . S
H1695 C1687 0.929 . S
H1696 C1704 0.929 . S
H1697 C1706 0.930 . S
H1698 C1708 0.930 . S
H1699 C1711 0.929 . S
H1700 C1714 0.930 . S
H1701 C1716 0.960 . S
H1702 C1716 0.960 . S
H1703 C1716 0.960 . S
C1704 H1696 0.929 . S
C1704 C1705 1.377 . S
C1704 C1706 1.384 . S
C1705 C1704 1.377 . S
C1705 C1711 1.390 . S
C1706 H1697 0.930 . S
C1706 C1704 1.384 . S
C1706 C1707 1.372 . S
C1707 C1706 1.372 . S
C1707 C1708 1.400 . S
C1707 C1712 1.490 . S
C1708 H1698 0.930 . S
C1708 C1707 1.400 . S
C1708 C1711 1.386 . S
H1709 C1725 0.930 . S
H1710 C1726 0.931 . S
C1711 H1699 0.929 . S
C1711 C1705 1.390 . S
C1711 C1708 1.386 . S
C1712 C1707 1.490 . S
C1712 C1714 1.395 . S
C1712 C1715 1.403 . S
H1713 C1719 0.930 . S
C1714 H1700 0.930 . S
C1714 C1712 1.395 . S
C1714 C1717 1.403 . S
C1715 C1712 1.403 . S
C1715 C1716 1.524 . S
C1715 C1719 1.400 . S
C1716 H1701 0.960 . S
C1716 H1702 0.960 . S
C1716 H1703 0.960 . S
C1716 C1715 1.524 . S
C1717 C1714 1.403 . S
C1717 C1718 1.392 . S
C1717 C1721 1.495 . S
C1718 C1717 1.392 . S
C1718 C1719 1.385 . S
C1718 C1720 1.478 . S
C1719 H1713 0.930 . S
C1719 C1715 1.400 . S
C1719 C1718 1.385 . S
C1720 C1718 1.478 . S
C1720 C1722 1.381 . S
C1720 C1726 1.383 . S
C1721 C1717 1.495 . S
C1721 H1727 0.959 . S
C1721 H1728 0.961 . S
C1721 H1729 0.960 . S
C1722 C1720 1.381 . S
C1722 C1723 1.394 . S
C1722 H1730 0.930 . S
C1723 C1722 1.394 . S
C1723 C1724 1.383 . S
C1723 H1731 0.929 . S
C1724 C1723 1.383 . S
C1724 C1725 1.377 . S
C1725 H1709 0.930 . S
C1725 C1724 1.377 . S
C1725 C1726 1.379 . S
C1726 H1710 0.931 . S
C1726 C1720 1.383 . S
C1726 C1725 1.379 . S
H1727 C1721 0.959 . S
H1728 C1721 0.961 . S
H1729 C1721 0.960 . S
H1730 C1722 0.930 . S
H1731 C1723 0.929 . S
H1732 C1740 0.929 . S
H1733 C1742 0.930 . S
H1734 C1744 0.930 . S
H1735 C1747 0.929 . S
H1736 C1750 0.930 . S
H1737 C1752 0.960 . S
H1738 C1752 0.960 . S
H1739 C1752 0.960 . S
C1740 H1732 0.929 . S
C1740 C1741 1.377 . S
C1740 C1742 1.384 . S
C1741 C1740 1.377 . S
C1741 C1747 1.390 . S
C1742 H1733 0.930 . S
C1742 C1740 1.384 . S
C1742 C1743 1.372 . S
C1743 C1742 1.372 . S
C1743 C1744 1.400 . S
C1743 C1748 1.490 . S
C1744 H1734 0.930 . S
C1744 C1743 1.400 . S
C1744 C1747 1.386 . S
H1745 C1761 0.930 . S
H1746 C1762 0.931 . S
C1747 H1735 0.929 . S
C1747 C1741 1.390 . S
C1747 C1744 1.386 . S
C1748 C1743 1.490 . S
C1748 C1750 1.395 . S
C1748 C1751 1.403 . S
H1749 C1755 0.930 . S
C1750 H1736 0.930 . S
C1750 C1748 1.395 . S
C1750 C1753 1.403 . S
C1751 C1748 1.403 . S
C1751 C1752 1.524 . S
C1751 C1755 1.400 . S
C1752 H1737 0.960 . S
C1752 H1738 0.960 . S
C1752 H1739 0.960 . S
C1752 C1751 1.524 . S
C1753 C1750 1.403 . S
C1753 C1754 1.392 . S
C1753 C1757 1.495 . S
C1754 C1753 1.392 . S
C1754 C1755 1.385 . S
C1754 C1756 1.478 . S
C1755 H1749 0.930 . S
C1755 C1751 1.400 . S
C1755 C1754 1.385 . S
C1756 C1754 1.478 . S
C1756 C1758 1.381 . S
C1756 C1762 1.383 . S
C1757 C1753 1.495 . S
C1757 H1763 0.959 . S
C1757 H1764 0.961 . S
C1757 H1765 0.960 . S
C1758 C1756 1.381 . S
C1758 C1759 1.394 . S
C1758 H1766 0.930 . S
C1759 C1758 1.394 . S
C1759 C1760 1.383 . S
C1759 H1767 0.929 . S
C1760 C1759 1.383 . S
C1760 C1761 1.377 . S
C1761 H1745 0.930 . S
C1761 C1760 1.377 . S
C1761 C1762 1.379 . S
C1762 H1746 0.931 . S
C1762 C1756 1.383 . S
C1762 C1761 1.379 . S
H1763 C1757 0.959 . S
H1764 C1757 0.961 . S
H1765 C1757 0.960 . S
H1766 C1758 0.930 . S
H1767 C1759 0.929 . S
H1768 C1776 0.929 . S
H1769 C1778 0.930 . S
H1770 C1780 0.930 . S
H1771 C1783 0.929 . S
H1772 C1786 0.930 . S
H1773 C1788 0.960 . S
H1774 C1788 0.960 . S
H1775 C1788 0.960 . S
C1776 H1768 0.929 . S
C1776 C1777 1.377 . S
C1776 C1778 1.384 . S
C1777 C1776 1.377 . S
C1777 C1783 1.390 . S
C1778 H1769 0.930 . S
C1778 C1776 1.384 . S
C1778 C1779 1.372 . S
C1779 C1778 1.372 . S
C1779 C1780 1.400 . S
C1779 C1784 1.490 . S
C1780 H1770 0.930 . S
C1780 C1779 1.400 . S
C1780 C1783 1.386 . S
H1781 C1797 0.930 . S
H1782 C1798 0.931 . S
C1783 H1771 0.929 . S
C1783 C1777 1.390 . S
C1783 C1780 1.386 . S
C1784 C1779 1.490 . S
C1784 C1786 1.395 . S
C1784 C1787 1.403 . S
H1785 C1791 0.930 . S
C1786 H1772 0.930 . S
C1786 C1784 1.395 . S
C1786 C1789 1.403 . S
C1787 C1784 1.403 . S
C1787 C1788 1.524 . S
C1787 C1791 1.400 . S
C1788 H1773 0.960 . S
C1788 H1774 0.960 . S
C1788 H1775 0.960 . S
C1788 C1787 1.524 . S
C1789 C1786 1.403 . S
C1789 C1790 1.392 . S
C1789 C1793 1.495 . S
C1790 C1789 1.392 . S
C1790 C1791 1.385 . S
C1790 C1792 1.478 . S
C1791 H1785 0.930 . S
C1791 C1787 1.400 . S
C1791 C1790 1.385 . S
C1792 C1790 1.478 . S
C1792 C1794 1.381 . S
C1792 C1798 1.383 . S
C1793 C1789 1.495 . S
C1793 H1799 0.959 . S
C1793 H1800 0.961 . S
C1793 H1801 0.960 . S
C1794 C1792 1.381 . S
C1794 C1795 1.394 . S
C1794 H1802 0.930 . S
C1795 C1794 1.394 . S
C1795 C1796 1.383 . S
C1795 H1803 0.929 . S
C1796 C1795 1.383 . S
C1796 C1797 1.377 . S
C1797 H1781 0.930 . S
C1797 C1796 1.377 . S
C1797 C1798 1.379 . S
C1798 H1782 0.931 . S
C1798 C1792 1.383 . S
C1798 C1797 1.379 . S
H1799 C1793 0.959 . S
H1800 C1793 0.961 . S
H1801 C1793 0.960 . S
H1802 C1794 0.930 . S
H1803 C1795 0.929 . S
H1804 C1812 0.929 . S
H1805 C1814 0.930 . S
H1806 C1816 0.930 . S
H1807 C1819 0.929 . S
H1808 C1822 0.930 . S
H1809 C1824 0.960 . S
H1810 C1824 0.960 . S
H1811 C1824 0.960 . S
C1812 H1804 0.929 . S
C1812 C1813 1.377 . S
C1812 C1814 1.384 . S
C1813 C1812 1.377 . S
C1813 C1819 1.390 . S
C1814 H1805 0.930 . S
C1814 C1812 1.384 . S
C1814 C1815 1.372 . S
C1815 C1814 1.372 . S
C1815 C1816 1.400 . S
C1815 C1820 1.490 . S
C1816 H1806 0.930 . S
C1816 C1815 1.400 . S
C1816 C1819 1.386 . S
H1817 C1833 0.930 . S
H1818 C1834 0.931 . S
C1819 H1807 0.929 . S
C1819 C1813 1.390 . S
C1819 C1816 1.386 . S
C1820 C1815 1.490 . S
C1820 C1822 1.395 . S
C1820 C1823 1.403 . S
H1821 C1827 0.930 . S
C1822 H1808 0.930 . S
C1822 C1820 1.395 . S
C1822 C1825 1.403 . S
C1823 C1820 1.403 . S
C1823 C1824 1.524 . S
C1823 C1827 1.400 . S
C1824 H1809 0.960 . S
C1824 H1810 0.960 . S
C1824 H1811 0.960 . S
C1824 C1823 1.524 . S
C1825 C1822 1.403 . S
C1825 C1826 1.392 . S
C1825 C1829 1.495 . S
C1826 C1825 1.392 . S
C1826 C1827 1.385 . S
C1826 C1828 1.478 . S
C1827 H1821 0.930 . S
C1827 C1823 1.400 . S
C1827 C1826 1.385 . S
C1828 C1826 1.478 . S
C1828 C1830 1.381 . S
C1828 C1834 1.383 . S
C1829 C1825 1.495 . S
C1829 H1835 0.959 . S
C1829 H1836 0.961 . S
C1829 H1837 0.960 . S
C1830 C1828 1.381 . S
C1830 C1831 1.394 . S
C1830 H1838 0.930 . S
C1831 C1830 1.394 . S
C1831 C1832 1.383 . S
C1831 H1839 0.929 . S
C1832 C1831 1.383 . S
C1832 C1833 1.377 . S
C1833 H1817 0.930 . S
C1833 C1832 1.377 . S
C1833 C1834 1.379 . S
C1834 H1818 0.931 . S
C1834 C1828 1.383 . S
C1834 C1833 1.379 . S
H1835 C1829 0.959 . S
H1836 C1829 0.961 . S
H1837 C1829 0.960 . S
H1838 C1830 0.930 . S
H1839 C1831 0.929 . S
H1840 C1848 0.929 . S
H1841 C1850 0.930 . S
H1842 C1852 0.930 1_655 S
H1843 C1855 0.929 1_655 S
H1844 C1858 0.930 . S
H1845 C1860 0.960 . S
H1846 C1860 0.960 1_455 S
H1847 C1860 0.960 . S
C1848 H1840 0.929 . S
C1848 C1849 1.377 . S
C1848 C1850 1.384 . S
C1849 C1848 1.377 . S
C1849 C1855 1.390 . S
C1850 H1841 0.930 . S
C1850 C1848 1.384 . S
C1850 C1851 1.372 . S
C1851 C1850 1.372 . S
C1851 C1852 1.400 . S
C1851 C1856 1.490 . S
C1852 H1842 0.930 1_455 S
C1852 C1851 1.400 . S
C1852 C1855 1.386 . S
H1853 C1869 0.930 1_655 S
H1854 C1870 0.953 . S
C1855 H1843 0.929 1_455 S
C1855 C1849 1.390 . S
C1855 C1852 1.386 . S
C1856 C1851 1.490 . S
C1856 C1858 1.395 . S
C1856 C1859 1.403 . S
H1857 C1863 0.930 . S
C1858 H1844 0.930 . S
C1858 C1856 1.395 . S
C1858 C1861 1.403 . S
C1859 C1856 1.403 . S
C1859 C1860 1.524 1_455 S
C1859 C1863 1.400 . S
C1860 H1845 0.960 . S
C1860 H1846 0.960 1_655 S
C1860 H1847 0.960 . S
C1860 C1859 1.524 1_655 S
C1861 C1858 1.403 . S
C1861 C1862 1.392 . S
C1861 C1865 1.495 . S
C1862 C1861 1.392 . S
C1862 C1863 1.385 . S
C1862 C1864 1.478 . S
C1863 H1857 0.930 . S
C1863 C1859 1.400 . S
C1863 C1862 1.385 . S
C1864 C1862 1.478 . S
C1864 C1866 1.381 . S
C1864 C1870 1.383 . S
C1865 C1861 1.495 . S
C1865 H1871 0.959 . S
C1865 H1872 0.961 . S
C1865 H1873 0.960 . S
C1866 C1864 1.381 . S
C1866 C1867 1.394 . S
C1866 H1874 0.930 . S
C1867 C1866 1.394 . S
C1867 C1868 1.383 . S
C1867 H1875 0.929 . S
C1868 C1867 1.383 . S
C1868 C1869 1.377 . S
C1869 H1853 0.930 1_455 S
C1869 C1868 1.377 . S
C1869 C1870 1.379 . S
C1870 H1854 0.953 . S
C1870 C1864 1.383 . S
C1870 C1869 1.379 . S
H1871 C1865 0.959 . S
H1872 C1865 0.961 . S
H1873 C1865 0.960 . S
H1874 C1866 0.930 . S
H1875 C1867 0.929 . S
H1876 C1884 0.929 . S
H1877 C1886 0.930 . S
H1878 C1888 0.930 . S
H1879 C1891 0.929 . S
H1880 C1894 0.930 . S
H1881 C1896 0.960 . S
H1882 C1896 0.960 . S
H1883 C1896 0.960 . S
C1884 H1876 0.929 . S
C1884 C1885 1.377 . S
C1884 C1886 1.384 . S
C1885 C1884 1.377 . S
C1885 C1891 1.390 . S
C1886 H1877 0.930 . S
C1886 C1884 1.384 . S
C1886 C1887 1.372 . S
C1887 C1886 1.372 . S
C1887 C1888 1.400 . S
C1887 C1892 1.490 . S
C1888 H1878 0.930 . S
C1888 C1887 1.400 . S
C1888 C1891 1.386 . S
H1889 C1905 0.930 . S
H1890 C1906 0.931 . S
C1891 H1879 0.929 . S
C1891 C1885 1.390 . S
C1891 C1888 1.386 . S
C1892 C1887 1.490 . S
C1892 C1894 1.395 . S
C1892 C1895 1.403 . S
H1893 C1899 0.930 . S
C1894 H1880 0.930 . S
C1894 C1892 1.395 . S
C1894 C1897 1.403 . S
C1895 C1892 1.403 . S
C1895 C1896 1.524 . S
C1895 C1899 1.400 . S
C1896 H1881 0.960 . S
C1896 H1882 0.960 . S
C1896 H1883 0.960 . S
C1896 C1895 1.524 . S
C1897 C1894 1.403 . S
C1897 C1898 1.392 . S
C1897 C1901 1.495 . S
C1898 C1897 1.392 . S
C1898 C1899 1.385 . S
C1898 C1900 1.478 . S
C1899 H1893 0.930 . S
C1899 C1895 1.400 . S
C1899 C1898 1.385 . S
C1900 C1898 1.478 . S
C1900 C1902 1.381 . S
C1900 C1906 1.383 . S
C1901 C1897 1.495 . S
C1901 H1907 0.959 . S
C1901 H1908 0.961 . S
C1901 H1909 0.960 . S
C1902 C1900 1.381 . S
C1902 C1903 1.394 . S
C1902 H1910 0.930 . S
C1903 C1902 1.394 . S
C1903 C1904 1.383 . S
C1903 H1911 0.929 . S
C1904 C1903 1.383 . S
C1904 C1905 1.377 . S
C1905 H1889 0.930 . S
C1905 C1904 1.377 . S
C1905 C1906 1.379 . S
C1906 H1890 0.931 . S
C1906 C1900 1.383 . S
C1906 C1905 1.379 . S
H1907 C1901 0.959 . S
H1908 C1901 0.961 . S
H1909 C1901 0.960 . S
H1910 C1902 0.930 . S
H1911 C1903 0.929 . S
H1912 C1920 0.929 . S
H1913 C1922 0.930 . S
H1914 C1924 0.930 . S
H1915 C1927 0.929 . S
H1916 C1930 0.930 . S
H1917 C1932 0.960 . S
H1918 C1932 0.960 . S
H1919 C1932 0.960 . S
C1920 H1912 0.929 . S
C1920 C1921 1.377 . S
C1920 C1922 1.384 . S
C1921 C1920 1.377 . S
C1921 C1927 1.390 . S
C1922 H1913 0.930 . S
C1922 C1920 1.384 . S
C1922 C1923 1.372 . S
C1923 C1922 1.372 . S
C1923 C1924 1.400 . S
C1923 C1928 1.490 . S
C1924 H1914 0.930 . S
C1924 C1923 1.400 . S
C1924 C1927 1.386 . S
H1925 C1941 0.930 . S
H1926 C1942 0.931 . S
C1927 H1915 0.929 . S
C1927 C1921 1.390 . S
C1927 C1924 1.386 . S
C1928 C1923 1.490 . S
C1928 C1930 1.395 . S
C1928 C1931 1.403 . S
H1929 C1935 0.930 . S
C1930 H1916 0.930 . S
C1930 C1928 1.395 . S
C1930 C1933 1.403 . S
C1931 C1928 1.403 . S
C1931 C1932 1.524 . S
C1931 C1935 1.400 . S
C1932 H1917 0.960 . S
C1932 H1918 0.960 . S
C1932 H1919 0.960 . S
C1932 C1931 1.524 . S
C1933 C1930 1.403 . S
C1933 C1934 1.392 . S
C1933 C1937 1.495 . S
C1934 C1933 1.392 . S
C1934 C1935 1.385 . S
C1934 C1936 1.478 . S
C1935 H1929 0.930 . S
C1935 C1931 1.400 . S
C1935 C1934 1.385 . S
C1936 C1934 1.478 . S
C1936 C1938 1.381 . S
C1936 C1942 1.383 . S
C1937 C1933 1.495 . S
C1937 H1943 0.959 . S
C1937 H1944 0.961 . S
C1937 H1945 0.960 . S
C1938 C1936 1.381 . S
C1938 C1939 1.394 . S
C1938 H1946 0.930 . S
C1939 C1938 1.394 . S
C1939 C1940 1.383 . S
C1939 H1947 0.929 . S
C1940 C1939 1.383 . S
C1940 C1941 1.377 . S
C1941 H1925 0.930 . S
C1941 C1940 1.377 . S
C1941 C1942 1.379 . S
C1942 H1926 0.931 . S
C1942 C1936 1.383 . S
C1942 C1941 1.379 . S
H1943 C1937 0.959 . S
H1944 C1937 0.961 . S
H1945 C1937 0.960 . S
H1946 C1938 0.930 . S
H1947 C1939 0.929 . S
H1948 C1956 0.929 . S
H1949 C1958 0.930 . S
H1950 C1960 0.930 . S
H1951 C1963 0.929 . S
H1952 C1966 0.930 . S
H1953 C1968 0.960 . S
H1954 C1968 0.960 . S
H1955 C1968 0.960 . S
C1956 H1948 0.929 . S
C1956 C1957 1.377 . S
C1956 C1958 1.384 . S
C1957 C1956 1.377 . S
C1957 C1963 1.390 . S
C1958 H1949 0.930 . S
C1958 C1956 1.384 . S
C1958 C1959 1.372 . S
C1959 C1958 1.372 . S
C1959 C1960 1.400 . S
C1959 C1964 1.490 . S
C1960 H1950 0.930 . S
C1960 C1959 1.400 . S
C1960 C1963 1.386 . S
H1961 C1977 0.930 . S
H1962 C1978 0.931 . S
C1963 H1951 0.929 . S
C1963 C1957 1.390 . S
C1963 C1960 1.386 . S
C1964 C1959 1.490 . S
C1964 C1966 1.395 . S
C1964 C1967 1.403 . S
H1965 C1971 0.930 . S
C1966 H1952 0.930 . S
C1966 C1964 1.395 . S
C1966 C1969 1.403 . S
C1967 C1964 1.403 . S
C1967 C1968 1.524 . S
C1967 C1971 1.400 . S
C1968 H1953 0.960 . S
C1968 H1954 0.960 . S
C1968 H1955 0.960 . S
C1968 C1967 1.524 . S
C1969 C1966 1.403 . S
C1969 C1970 1.392 . S
C1969 C1973 1.495 . S
C1970 C1969 1.392 . S
C1970 C1971 1.385 . S
C1970 C1972 1.478 . S
C1971 H1965 0.930 . S
C1971 C1967 1.400 . S
C1971 C1970 1.385 . S
C1972 C1970 1.478 . S
C1972 C1974 1.381 . S
C1972 C1978 1.383 . S
C1973 C1969 1.495 . S
C1973 H1979 0.959 . S
C1973 H1980 0.961 . S
C1973 H1981 0.960 . S
C1974 C1972 1.381 . S
C1974 C1975 1.394 . S
C1974 H1982 0.930 . S
C1975 C1974 1.394 . S
C1975 C1976 1.383 . S
C1975 H1983 0.929 . S
C1976 C1975 1.383 . S
C1976 C1977 1.377 . S
C1977 H1961 0.930 . S
C1977 C1976 1.377 . S
C1977 C1978 1.379 . S
C1978 H1962 0.931 . S
C1978 C1972 1.383 . S
C1978 C1977 1.379 . S
H1979 C1973 0.959 . S
H1980 C1973 0.961 . S
H1981 C1973 0.960 . S
H1982 C1974 0.930 . S
H1983 C1975 0.929 . S
H1984 C1992 0.929 . S
H1985 C1994 0.930 . S
H1986 C1996 0.930 . S
H1987 C1999 0.929 . S
H1988 C2002 0.930 . S
H1989 C2004 0.960 . S
H1990 C2004 0.960 . S
H1991 C2004 0.960 . S
C1992 H1984 0.929 . S
C1992 C1993 1.377 . S
C1992 C1994 1.384 . S
C1993 C1992 1.377 . S
C1993 C1999 1.390 . S
C1994 H1985 0.930 . S
C1994 C1992 1.384 . S
C1994 C1995 1.372 . S
C1995 C1994 1.372 . S
C1995 C1996 1.400 . S
C1995 C2000 1.490 . S
C1996 H1986 0.930 . S
C1996 C1995 1.400 . S
C1996 C1999 1.386 . S
H1997 C2013 0.930 . S
H1998 C2014 0.931 . S
C1999 H1987 0.929 . S
C1999 C1993 1.390 . S
C1999 C1996 1.386 . S
C2000 C1995 1.490 . S
C2000 C2002 1.395 . S
C2000 C2003 1.403 . S
H2001 C2007 0.930 . S
C2002 H1988 0.930 . S
C2002 C2000 1.395 . S
C2002 C2005 1.403 . S
C2003 C2000 1.403 . S
C2003 C2004 1.524 . S
C2003 C2007 1.400 . S
C2004 H1989 0.960 . S
C2004 H1990 0.960 . S
C2004 H1991 0.960 . S
C2004 C2003 1.524 . S
C2005 C2002 1.403 . S
C2005 C2006 1.392 . S
C2005 C2009 1.495 . S
C2006 C2005 1.392 . S
C2006 C2007 1.385 . S
C2006 C2008 1.478 . S
C2007 H2001 0.930 . S
C2007 C2003 1.400 . S
C2007 C2006 1.385 . S
C2008 C2006 1.478 . S
C2008 C2010 1.381 . S
C2008 C2014 1.383 1_455 S
C2009 C2005 1.495 . S
C2009 H2015 0.959 . S
C2009 H2016 0.961 1_455 S
C2009 H2017 0.960 . S
C2010 C2008 1.381 . S
C2010 C2011 1.394 . S
C2010 H2018 0.930 . S
C2011 C2010 1.394 . S
C2011 C2012 1.383 . S
C2011 H2019 0.929 . S
C2012 C2011 1.383 . S
C2012 C2013 1.377 1_455 S
C2013 H1997 0.930 . S
C2013 C2012 1.377 1_655 S
C2013 C2014 1.379 . S
C2014 H1998 0.931 . S
C2014 C2008 1.383 1_655 S
C2014 C2013 1.379 . S
H2015 C2009 0.959 . S
H2016 C2009 0.961 1_655 S
H2017 C2009 0.960 . S
H2018 C2010 0.930 . S
H2019 C2011 0.929 . S
H2020 C2028 0.929 . S
H2021 C2030 0.930 . S
H2022 C2032 0.930 . S
H2023 C2035 0.929 . S
H2024 C2038 0.930 . S
H2025 C2040 0.960 . S
H2026 C2040 0.960 . S
H2027 C2040 0.960 . S
C2028 H2020 0.929 . S
C2028 C2029 1.377 . S
C2028 C2030 1.384 . S
C2029 C2028 1.377 . S
C2029 C2035 1.390 . S
C2030 H2021 0.930 . S
C2030 C2028 1.384 . S
C2030 C2031 1.372 . S
C2031 C2030 1.372 . S
C2031 C2032 1.400 . S
C2031 C2036 1.490 . S
C2032 H2022 0.930 . S
C2032 C2031 1.400 . S
C2032 C2035 1.386 . S
H2033 C2049 0.930 . S
H2034 C2050 0.931 . S
C2035 H2023 0.929 . S
C2035 C2029 1.390 . S
C2035 C2032 1.386 . S
C2036 C2031 1.490 . S
C2036 C2038 1.395 . S
C2036 C2039 1.403 . S
H2037 C2043 0.930 . S
C2038 H2024 0.930 . S
C2038 C2036 1.395 . S
C2038 C2041 1.403 . S
C2039 C2036 1.403 . S
C2039 C2040 1.524 . S
C2039 C2043 1.400 . S
C2040 H2025 0.960 . S
C2040 H2026 0.960 . S
C2040 H2027 0.960 . S
C2040 C2039 1.524 . S
C2041 C2038 1.403 . S
C2041 C2042 1.392 . S
C2041 C2045 1.495 . S
C2042 C2041 1.392 . S
C2042 C2043 1.385 . S
C2042 C2044 1.478 . S
C2043 H2037 0.930 . S
C2043 C2039 1.400 . S
C2043 C2042 1.385 . S
C2044 C2042 1.478 . S
C2044 C2046 1.381 . S
C2044 C2050 1.383 . S
C2045 C2041 1.495 . S
C2045 H2051 0.959 . S
C2045 H2052 0.961 . S
C2045 H2053 0.960 . S
C2046 C2044 1.381 . S
C2046 C2047 1.394 . S
C2046 H2054 0.930 . S
C2047 C2046 1.394 . S
C2047 C2048 1.383 . S
C2047 H2055 0.929 . S
C2048 C2047 1.383 . S
C2048 C2049 1.377 . S
C2049 H2033 0.930 . S
C2049 C2048 1.377 . S
C2049 C2050 1.379 . S
C2050 H2034 0.931 . S
C2050 C2044 1.383 . S
C2050 C2049 1.379 . S
H2051 C2045 0.959 . S
H2052 C2045 0.961 . S
H2053 C2045 0.960 . S
H2054 C2046 0.930 . S
H2055 C2047 0.929 . S
H2056 C2064 0.929 . S
H2057 C2066 0.930 . S
H2058 C2068 0.930 . S
H2059 C2071 0.929 . S
H2060 C2074 0.930 1_556 S
H2061 C2076 0.960 . S
H2062 C2076 0.960 . S
H2063 C2076 0.960 . S
C2064 H2056 0.929 . S
C2064 C2065 1.377 1_554 S
C2064 C2066 1.384 . S
C2065 C2064 1.377 1_556 S
C2065 C2071 1.390 . S
C2066 H2057 0.930 . S
C2066 C2064 1.384 . S
C2066 C2067 1.372 . S
C2067 C2066 1.372 . S
C2067 C2068 1.400 1_554 S
C2067 C2072 1.490 . S
C2068 H2058 0.930 . S
C2068 C2067 1.400 1_556 S
C2068 C2071 1.386 . S
H2069 C2085 0.930 . S
H2070 C2086 0.931 . S
C2071 H2059 0.929 . S
C2071 C2065 1.390 . S
C2071 C2068 1.386 . S
C2072 C2067 1.490 . S
C2072 C2074 1.395 . S
C2072 C2075 1.403 . S
H2073 C2079 0.930 . S
C2074 H2060 0.930 1_554 S
C2074 C2072 1.395 . S
C2074 C2077 1.403 . S
C2075 C2072 1.403 . S
C2075 C2076 1.524 . S
C2075 C2079 1.400 . S
C2076 H2061 0.960 . S
C2076 H2062 0.960 . S
C2076 H2063 0.960 . S
C2076 C2075 1.524 . S
C2077 C2074 1.403 . S
C2077 C2078 1.392 . S
C2077 C2081 1.495 . S
C2078 C2077 1.392 . S
C2078 C2079 1.385 . S
C2078 C2080 1.478 . S
C2079 H2073 0.930 . S
C2079 C2075 1.400 . S
C2079 C2078 1.385 . S
C2080 C2078 1.478 . S
C2080 C2082 1.381 1_565 S
C2080 C2086 1.383 . S
C2081 C2077 1.495 . S
C2081 H2087 0.959 1_554 S
C2081 H2088 0.961 1_554 S
C2081 H2089 0.960 . S
C2082 C2080 1.381 1_545 S
C2082 C2083 1.394 . S
C2082 H2090 0.930 . S
C2083 C2082 1.394 . S
C2083 C2084 1.383 . S
C2083 H2091 0.929 . S
C2084 C2083 1.383 . S
C2084 C2085 1.377 . S
C2085 H2069 0.930 . S
C2085 C2084 1.377 . S
C2085 C2086 1.379 1_545 S
C2086 H2070 0.931 . S
C2086 C2080 1.383 . S
C2086 C2085 1.379 1_565 S
H2087 C2081 0.959 1_556 S
H2088 C2081 0.961 1_556 S
H2089 C2081 0.960 . S
H2090 C2082 0.930 . S
H2091 C2083 0.929 . S
H2092 C2100 0.929 . S
H2093 C2102 0.930 . S
H2094 C2104 0.930 . S
H2095 C2107 0.929 . S
H2096 C2110 0.930 . S
H2097 C2112 0.960 . S
H2098 C2112 0.960 . S
H2099 C2112 0.960 . S
C2100 H2092 0.929 . S
C2100 C2101 1.377 . S
C2100 C2102 1.384 . S
C2101 C2100 1.377 . S
C2101 C2107 1.390 . S
C2102 H2093 0.930 . S
C2102 C2100 1.384 . S
C2102 C2103 1.372 . S
C2103 C2102 1.372 . S
C2103 C2104 1.400 . S
C2103 C2108 1.490 . S
C2104 H2094 0.930 . S
C2104 C2103 1.400 . S
C2104 C2107 1.386 . S
H2105 C2121 0.930 . S
H2106 C2122 0.931 . S
C2107 H2095 0.929 . S
C2107 C2101 1.390 . S
C2107 C2104 1.386 . S
C2108 C2103 1.490 . S
C2108 C2110 1.395 . S
C2108 C2111 1.403 . S
H2109 C2115 0.930 . S
C2110 H2096 0.930 . S
C2110 C2108 1.395 . S
C2110 C2113 1.403 . S
C2111 C2108 1.403 . S
C2111 C2112 1.524 . S
C2111 C2115 1.400 . S
C2112 H2097 0.960 . S
C2112 H2098 0.960 . S
C2112 H2099 0.960 . S
C2112 C2111 1.524 . S
C2113 C2110 1.403 . S
C2113 C2114 1.392 . S
C2113 C2117 1.495 . S
C2114 C2113 1.392 . S
C2114 C2115 1.385 . S
C2114 C2116 1.478 . S
C2115 H2109 0.930 . S
C2115 C2111 1.400 . S
C2115 C2114 1.385 . S
C2116 C2114 1.478 . S
C2116 C2118 1.381 . S
C2116 C2122 1.383 . S
C2117 C2113 1.495 . S
C2117 H2123 0.959 . S
C2117 H2124 0.961 . S
C2117 H2125 0.960 . S
C2118 C2116 1.381 . S
C2118 C2119 1.394 . S
C2118 H2126 0.930 . S
C2119 C2118 1.394 . S
C2119 C2120 1.383 . S
C2119 H2127 0.929 . S
C2120 C2119 1.383 . S
C2120 C2121 1.377 . S
C2121 H2105 0.930 . S
C2121 C2120 1.377 . S
C2121 C2122 1.379 . S
C2122 H2106 0.931 . S
C2122 C2116 1.383 . S
C2122 C2121 1.379 . S
H2123 C2117 0.959 . S
H2124 C2117 0.961 . S
H2125 C2117 0.960 . S
H2126 C2118 0.930 . S
H2127 C2119 0.929 . S
H2128 C2136 0.929 . S
H2129 C2138 0.930 . S
H2130 C2140 0.930 . S
H2131 C2143 0.929 . S
H2132 C2146 0.930 . S
H2133 C2148 0.960 . S
H2134 C2148 0.960 . S
H2135 C2148 0.960 . S
C2136 H2128 0.929 . S
C2136 C2137 1.377 . S
C2136 C2138 1.384 . S
C2137 C2136 1.377 . S
C2137 C2143 1.390 . S
C2138 H2129 0.930 . S
C2138 C2136 1.384 . S
C2138 C2139 1.372 . S
C2139 C2138 1.372 . S
C2139 C2140 1.400 . S
C2139 C2144 1.490 . S
C2140 H2130 0.930 . S
C2140 C2139 1.400 . S
C2140 C2143 1.386 . S
H2141 C2157 0.930 1_554 S
H2142 C2158 0.931 . S
C2143 H2131 0.929 . S
C2143 C2137 1.390 . S
C2143 C2140 1.386 . S
C2144 C2139 1.490 . S
C2144 C2146 1.395 . S
C2144 C2147 1.403 . S
H2145 C2151 0.930 . S
C2146 H2132 0.930 . S
C2146 C2144 1.395 . S
C2146 C2149 1.403 . S
C2147 C2144 1.403 . S
C2147 C2148 1.524 . S
C2147 C2151 1.400 . S
C2148 H2133 0.960 . S
C2148 H2134 0.960 . S
C2148 H2135 0.960 . S
C2148 C2147 1.524 . S
C2149 C2146 1.403 . S
C2149 C2150 1.392 . S
C2149 C2153 1.495 . S
C2150 C2149 1.392 . S
C2150 C2151 1.385 . S
C2150 C2152 1.478 . S
C2151 H2145 0.930 . S
C2151 C2147 1.400 . S
C2151 C2150 1.385 . S
C2152 C2150 1.478 . S
C2152 C2154 1.381 . S
C2152 C2158 1.383 . S
C2153 C2149 1.495 . S
C2153 H2159 0.959 1_545 S
C2153 H2160 0.961 . S
C2153 H2161 0.960 . S
C2154 C2152 1.381 . S
C2154 C2155 1.394 . S
C2154 H2162 0.930 . S
C2155 C2154 1.394 . S
C2155 C2156 1.383 . S
C2155 H2163 0.929 . S
C2156 C2155 1.383 . S
C2156 C2157 1.377 . S
C2157 H2141 0.930 1_556 S
C2157 C2156 1.377 . S
C2157 C2158 1.379 . S
C2158 H2142 0.931 . S
C2158 C2152 1.383 . S
C2158 C2157 1.379 . S
H2159 C2153 0.959 1_565 S
H2160 C2153 0.961 . S
H2161 C2153 0.960 . S
H2162 C2154 0.930 . S
H2163 C2155 0.929 . S
H2164 C2172 0.929 . S
H2165 C2174 0.930 . S
H2166 C2176 0.930 . S
H2167 C2179 0.929 . S
H2168 C2182 0.930 . S
H2169 C2184 0.960 . S
H2170 C2184 0.960 . S
H2171 C2184 0.960 . S
C2172 H2164 0.929 . S
C2172 C2173 1.377 . S
C2172 C2174 1.384 . S
C2173 C2172 1.377 . S
C2173 C2179 1.390 . S
C2174 H2165 0.930 . S
C2174 C2172 1.384 . S
C2174 C2175 1.372 . S
C2175 C2174 1.372 . S
C2175 C2176 1.400 . S
C2175 C2180 1.490 . S
C2176 H2166 0.930 . S
C2176 C2175 1.400 . S
C2176 C2179 1.386 . S
H2177 C2193 0.930 . S
H2178 C2194 0.931 . S
C2179 H2167 0.929 . S
C2179 C2173 1.390 . S
C2179 C2176 1.386 . S
C2180 C2175 1.490 . S
C2180 C2182 1.395 . S
C2180 C2183 1.403 . S
H2181 C2187 0.930 . S
C2182 H2168 0.930 . S
C2182 C2180 1.395 . S
C2182 C2185 1.403 . S
C2183 C2180 1.403 . S
C2183 C2184 1.524 . S
C2183 C2187 1.400 . S
C2184 H2169 0.960 . S
C2184 H2170 0.960 . S
C2184 H2171 0.960 . S
C2184 C2183 1.524 . S
C2185 C2182 1.403 . S
C2185 C2186 1.392 . S
C2185 C2189 1.495 . S
C2186 C2185 1.392 . S
C2186 C2187 1.385 . S
C2186 C2188 1.478 . S
C2187 H2181 0.930 . S
C2187 C2183 1.400 . S
C2187 C2186 1.385 . S
C2188 C2186 1.478 . S
C2188 C2190 1.381 . S
C2188 C2194 1.383 . S
C2189 C2185 1.495 . S
C2189 H2195 0.959 . S
C2189 H2196 0.961 . S
C2189 H2197 0.960 . S
C2190 C2188 1.381 . S
C2190 C2191 1.394 . S
C2190 H2198 0.930 . S
C2191 C2190 1.394 . S
C2191 C2192 1.383 . S
C2191 H2199 0.929 . S
C2192 C2191 1.383 . S
C2192 C2193 1.377 . S
C2193 H2177 0.930 . S
C2193 C2192 1.377 . S
C2193 C2194 1.379 . S
C2194 H2178 0.931 . S
C2194 C2188 1.383 . S
C2194 C2193 1.379 . S
H2195 C2189 0.959 . S
H2196 C2189 0.961 . S
H2197 C2189 0.960 . S
H2198 C2190 0.930 . S
H2199 C2191 0.929 . S
H2200 C2208 0.929 . S
H2201 C2210 0.930 . S
H2202 C2212 0.930 . S
H2203 C2215 0.929 . S
H2204 C2218 0.930 . S
H2205 C2220 0.960 . S
H2206 C2220 0.960 . S
H2207 C2220 0.960 . S
C2208 H2200 0.929 . S
C2208 C2209 1.377 . S
C2208 C2210 1.384 . S
C2209 C2208 1.377 . S
C2209 C2215 1.390 . S
C2210 H2201 0.930 . S
C2210 C2208 1.384 . S
C2210 C2211 1.372 . S
C2211 C2210 1.372 . S
C2211 C2212 1.400 . S
C2211 C2216 1.490 . S
C2212 H2202 0.930 . S
C2212 C2211 1.400 . S
C2212 C2215 1.386 . S
H2213 C2229 0.930 . S
H2214 C2230 0.931 . S
C2215 H2203 0.929 . S
C2215 C2209 1.390 . S
C2215 C2212 1.386 . S
C2216 C2211 1.490 . S
C2216 C2218 1.395 . S
C2216 C2219 1.403 . S
H2217 C2223 0.930 . S
C2218 H2204 0.930 . S
C2218 C2216 1.395 . S
C2218 C2221 1.403 . S
C2219 C2216 1.403 . S
C2219 C2220 1.524 . S
C2219 C2223 1.400 . S
C2220 H2205 0.960 . S
C2220 H2206 0.960 . S
C2220 H2207 0.960 . S
C2220 C2219 1.524 . S
C2221 C2218 1.403 . S
C2221 C2222 1.392 . S
C2221 C2225 1.495 . S
C2222 C2221 1.392 . S
C2222 C2223 1.385 . S
C2222 C2224 1.478 . S
C2223 H2217 0.930 . S
C2223 C2219 1.400 . S
C2223 C2222 1.385 . S
C2224 C2222 1.478 . S
C2224 C2226 1.381 . S
C2224 C2230 1.383 . S
C2225 C2221 1.495 . S
C2225 H2231 0.959 . S
C2225 H2232 0.961 . S
C2225 H2233 0.960 . S
C2226 C2224 1.381 . S
C2226 C2227 1.394 . S
C2226 H2234 0.930 . S
C2227 C2226 1.394 . S
C2227 C2228 1.383 . S
C2227 H2235 0.929 . S
C2228 C2227 1.383 . S
C2228 C2229 1.377 . S
C2229 H2213 0.930 . S
C2229 C2228 1.377 . S
C2229 C2230 1.379 . S
C2230 H2214 0.931 . S
C2230 C2224 1.383 . S
C2230 C2229 1.379 . S
H2231 C2225 0.959 . S
H2232 C2225 0.961 . S
H2233 C2225 0.960 . S
H2234 C2226 0.930 . S
H2235 C2227 0.929 . S
H2236 C2244 0.929 . S
H2237 C2246 0.930 . S
H2238 C2248 0.930 . S
H2239 C2251 0.929 . S
H2240 C2254 0.930 . S
H2241 C2256 0.960 . S
H2242 C2256 0.960 . S
H2243 C2256 0.960 . S
C2244 H2236 0.929 . S
C2244 C2245 1.377 . S
C2244 C2246 1.384 . S
C2245 C2244 1.377 . S
C2245 C2251 1.390 . S
C2246 H2237 0.930 . S
C2246 C2244 1.384 . S
C2246 C2247 1.372 . S
C2247 C2246 1.372 . S
C2247 C2248 1.400 . S
C2247 C2252 1.490 . S
C2248 H2238 0.930 . S
C2248 C2247 1.400 . S
C2248 C2251 1.386 . S
H2249 C2265 0.930 . S
H2250 C2266 0.931 . S
C2251 H2239 0.929 . S
C2251 C2245 1.390 . S
C2251 C2248 1.386 . S
C2252 C2247 1.490 . S
C2252 C2254 1.395 . S
C2252 C2255 1.403 . S
H2253 C2259 0.930 . S
C2254 H2240 0.930 . S
C2254 C2252 1.395 . S
C2254 C2257 1.403 . S
C2255 C2252 1.403 . S
C2255 C2256 1.524 . S
C2255 C2259 1.400 . S
C2256 H2241 0.960 . S
C2256 H2242 0.960 . S
C2256 H2243 0.960 . S
C2256 C2255 1.524 . S
C2257 C2254 1.403 . S
C2257 C2258 1.392 . S
C2257 C2261 1.495 . S
C2258 C2257 1.392 . S
C2258 C2259 1.385 . S
C2258 C2260 1.478 . S
C2259 H2253 0.930 . S
C2259 C2255 1.400 . S
C2259 C2258 1.385 . S
C2260 C2258 1.478 . S
C2260 C2262 1.381 . S
C2260 C2266 1.383 . S
C2261 C2257 1.495 . S
C2261 H2267 0.959 . S
C2261 H2268 0.961 . S
C2261 H2269 0.960 . S
C2262 C2260 1.381 . S
C2262 C2263 1.394 . S
C2262 H2270 0.930 . S
C2263 C2262 1.394 . S
C2263 C2264 1.383 . S
C2263 H2271 0.929 . S
C2264 C2263 1.383 . S
C2264 C2265 1.377 . S
C2265 H2249 0.930 . S
C2265 C2264 1.377 . S
C2265 C2266 1.379 . S
C2266 H2250 0.931 . S
C2266 C2260 1.383 . S
C2266 C2265 1.379 . S
H2267 C2261 0.959 . S
H2268 C2261 0.961 . S
H2269 C2261 0.960 . S
H2270 C2262 0.930 . S
H2271 C2263 0.929 . S
H2272 C2280 0.929 . S
H2273 C2282 0.930 . S
H2274 C2284 0.930 . S
H2275 C2287 0.929 . S
H2276 C2290 0.930 . S
H2277 C2292 0.960 . S
H2278 C2292 0.960 . S
H2279 C2292 0.960 . S
C2280 H2272 0.929 . S
C2280 C2281 1.377 . S
C2280 C2282 1.384 . S
C2281 C2280 1.377 . S
C2281 C2287 1.390 . S
C2282 H2273 0.930 . S
C2282 C2280 1.384 . S
C2282 C2283 1.372 . S
C2283 C2282 1.372 . S
C2283 C2284 1.400 . S
C2283 C2288 1.490 . S
C2284 H2274 0.930 . S
C2284 C2283 1.400 . S
C2284 C2287 1.386 . S
H2285 C2301 0.930 . S
H2286 C2302 0.931 . S
C2287 H2275 0.929 . S
C2287 C2281 1.390 . S
C2287 C2284 1.386 . S
C2288 C2283 1.490 . S
C2288 C2290 1.395 . S
C2288 C2291 1.403 . S
H2289 C2295 0.930 . S
C2290 H2276 0.930 . S
C2290 C2288 1.395 . S
C2290 C2293 1.403 . S
C2291 C2288 1.403 . S
C2291 C2292 1.524 . S
C2291 C2295 1.400 . S
C2292 H2277 0.960 . S
C2292 H2278 0.960 . S
C2292 H2279 0.960 . S
C2292 C2291 1.524 . S
C2293 C2290 1.403 . S
C2293 C2294 1.392 . S
C2293 C2297 1.495 . S
C2294 C2293 1.392 . S
C2294 C2295 1.385 . S
C2294 C2296 1.478 . S
C2295 H2289 0.930 . S
C2295 C2291 1.400 . S
C2295 C2294 1.385 . S
C2296 C2294 1.478 . S
C2296 C2298 1.381 . S
C2296 C2302 1.383 . S
C2297 C2293 1.495 . S
C2297 H2303 0.959 . S
C2297 H2304 0.961 . S
C2297 H2305 0.960 . S
C2298 C2296 1.381 . S
C2298 C2299 1.394 . S
C2298 H2306 0.930 . S
C2299 C2298 1.394 . S
C2299 C2300 1.383 . S
C2299 H2307 0.929 . S
C2300 C2299 1.383 . S
C2300 C2301 1.377 . S
C2301 H2285 0.930 . S
C2301 C2300 1.377 . S
C2301 C2302 1.379 . S
C2302 H2286 0.931 . S
C2302 C2296 1.383 . S
C2302 C2301 1.379 . S
H2303 C2297 0.959 . S
H2304 C2297 0.961 . S
H2305 C2297 0.960 . S
H2306 C2298 0.930 . S
H2307 C2299 0.929 . S
H2308 C2316 0.929 . S
H2309 C2318 0.930 . S
H2310 C2320 0.930 . S
H2311 C2323 0.929 . S
H2312 C2326 0.930 . S
H2313 C2328 0.960 . S
H2314 C2328 0.960 . S
H2315 C2328 0.960 . S
C2316 H2308 0.929 . S
C2316 C2317 1.377 . S
C2316 C2318 1.384 . S
C2317 C2316 1.377 . S
C2317 C2323 1.390 . S
C2318 H2309 0.930 . S
C2318 C2316 1.384 . S
C2318 C2319 1.372 . S
C2319 C2318 1.372 . S
C2319 C2320 1.400 . S
C2319 C2324 1.490 . S
C2320 H2310 0.930 . S
C2320 C2319 1.400 . S
C2320 C2323 1.386 . S
H2321 C2337 0.930 . S
H2322 C2338 0.931 . S
C2323 H2311 0.929 . S
C2323 C2317 1.390 . S
C2323 C2320 1.386 . S
C2324 C2319 1.490 . S
C2324 C2326 1.395 . S
C2324 C2327 1.403 . S
H2325 C2331 0.930 . S
C2326 H2312 0.930 . S
C2326 C2324 1.395 . S
C2326 C2329 1.403 . S
C2327 C2324 1.403 . S
C2327 C2328 1.524 . S
C2327 C2331 1.400 . S
C2328 H2313 0.960 . S
C2328 H2314 0.960 . S
C2328 H2315 0.960 . S
C2328 C2327 1.524 . S
C2329 C2326 1.403 . S
C2329 C2330 1.392 . S
C2329 C2333 1.495 . S
C2330 C2329 1.392 . S
C2330 C2331 1.385 . S
C2330 C2332 1.478 . S
C2331 H2325 0.930 . S
C2331 C2327 1.400 . S
C2331 C2330 1.385 . S
C2332 C2330 1.478 . S
C2332 C2334 1.381 . S
C2332 C2338 1.383 . S
C2333 C2329 1.495 . S
C2333 H2339 0.959 . S
C2333 H2340 0.961 . S
C2333 H2341 0.960 . S
C2334 C2332 1.381 . S
C2334 C2335 1.394 . S
C2334 H2342 0.930 . S
C2335 C2334 1.394 . S
C2335 C2336 1.383 . S
C2335 H2343 0.929 . S
C2336 C2335 1.383 . S
C2336 C2337 1.377 . S
C2337 H2321 0.930 . S
C2337 C2336 1.377 . S
C2337 C2338 1.379 . S
C2338 H2322 0.931 . S
C2338 C2332 1.383 . S
C2338 C2337 1.379 . S
H2339 C2333 0.959 . S
H2340 C2333 0.961 . S
H2341 C2333 0.960 . S
H2342 C2334 0.930 . S
H2343 C2335 0.929 . S
H2344 C2352 0.929 . S
H2345 C2354 0.930 . S
H2346 C2356 0.930 . S
H2347 C2359 0.929 . S
H2348 C2362 0.930 . S
H2349 C2364 0.960 . S
H2350 C2364 0.960 . S
H2351 C2364 0.960 . S
C2352 H2344 0.929 . S
C2352 C2353 1.377 . S
C2352 C2354 1.384 . S
C2353 C2352 1.377 . S
C2353 C2359 1.390 . S
C2354 H2345 0.930 . S
C2354 C2352 1.384 . S
C2354 C2355 1.372 . S
C2355 C2354 1.372 . S
C2355 C2356 1.400 . S
C2355 C2360 1.490 . S
C2356 H2346 0.930 . S
C2356 C2355 1.400 . S
C2356 C2359 1.386 . S
H2357 C2373 0.930 . S
H2358 C2374 0.931 . S
C2359 H2347 0.929 . S
C2359 C2353 1.390 . S
C2359 C2356 1.386 . S
C2360 C2355 1.490 . S
C2360 C2362 1.395 . S
C2360 C2363 1.403 . S
H2361 C2367 0.930 . S
C2362 H2348 0.930 . S
C2362 C2360 1.395 . S
C2362 C2365 1.403 . S
C2363 C2360 1.403 . S
C2363 C2364 1.524 . S
C2363 C2367 1.400 . S
C2364 H2349 0.960 . S
C2364 H2350 0.960 . S
C2364 H2351 0.960 . S
C2364 C2363 1.524 . S
C2365 C2362 1.403 . S
C2365 C2366 1.392 . S
C2365 C2369 1.495 . S
C2366 C2365 1.392 . S
C2366 C2367 1.385 . S
C2366 C2368 1.478 . S
C2367 H2361 0.930 . S
C2367 C2363 1.400 . S
C2367 C2366 1.385 . S
C2368 C2366 1.478 . S
C2368 C2370 1.381 . S
C2368 C2374 1.383 . S
C2369 C2365 1.495 . S
C2369 H2375 0.959 . S
C2369 H2376 0.961 . S
C2369 H2377 0.960 . S
C2370 C2368 1.381 . S
C2370 C2371 1.394 . S
C2370 H2378 0.930 . S
C2371 C2370 1.394 . S
C2371 C2372 1.383 . S
C2371 H2379 0.929 . S
C2372 C2371 1.383 . S
C2372 C2373 1.377 . S
C2373 H2357 0.930 . S
C2373 C2372 1.377 . S
C2373 C2374 1.379 . S
C2374 H2358 0.931 . S
C2374 C2368 1.383 . S
C2374 C2373 1.379 . S
H2375 C2369 0.959 . S
H2376 C2369 0.961 . S
H2377 C2369 0.960 . S
H2378 C2370 0.930 . S
H2379 C2371 0.929 . S
H2380 C2388 0.929 . S
H2381 C2390 0.930 . S
H2382 C2392 0.930 . S
H2383 C2395 0.929 . S
H2384 C2398 0.930 . S
H2385 C2400 0.960 . S
H2386 C2400 0.960 . S
H2387 C2400 0.960 . S
C2388 H2380 0.929 . S
C2388 C2389 1.377 . S
C2388 C2390 1.384 . S
C2389 C2388 1.377 . S
C2389 C2395 1.390 . S
C2390 H2381 0.930 . S
C2390 C2388 1.384 . S
C2390 C2391 1.372 . S
C2391 C2390 1.372 . S
C2391 C2392 1.400 . S
C2391 C2396 1.490 . S
C2392 H2382 0.930 . S
C2392 C2391 1.400 . S
C2392 C2395 1.386 . S
H2393 C2409 0.930 . S
H2394 C2410 0.931 . S
C2395 H2383 0.929 . S
C2395 C2389 1.390 . S
C2395 C2392 1.386 . S
C2396 C2391 1.490 . S
C2396 C2398 1.395 . S
C2396 C2399 1.403 . S
H2397 C2403 0.930 . S
C2398 H2384 0.930 . S
C2398 C2396 1.395 . S
C2398 C2401 1.403 . S
C2399 C2396 1.403 . S
C2399 C2400 1.524 . S
C2399 C2403 1.400 . S
C2400 H2385 0.960 . S
C2400 H2386 0.960 . S
C2400 H2387 0.960 . S
C2400 C2399 1.524 . S
C2401 C2398 1.403 . S
C2401 C2402 1.392 . S
C2401 C2405 1.495 . S
C2402 C2401 1.392 . S
C2402 C2403 1.385 . S
C2402 C2404 1.478 . S
C2403 H2397 0.930 . S
C2403 C2399 1.400 . S
C2403 C2402 1.385 . S
C2404 C2402 1.478 . S
C2404 C2406 1.381 . S
C2404 C2410 1.383 . S
C2405 C2401 1.495 . S
C2405 H2411 0.959 . S
C2405 H2412 0.961 . S
C2405 H2413 0.960 . S
C2406 C2404 1.381 . S
C2406 C2407 1.394 . S
C2406 H2414 0.930 . S
C2407 C2406 1.394 . S
C2407 C2408 1.383 . S
C2407 H2415 0.929 . S
C2408 C2407 1.383 . S
C2408 C2409 1.377 . S
C2409 H2393 0.930 . S
C2409 C2408 1.377 . S
C2409 C2410 1.379 . S
C2410 H2394 0.931 . S
C2410 C2404 1.383 . S
C2410 C2409 1.379 . S
H2411 C2405 0.959 . S
H2412 C2405 0.961 . S
H2413 C2405 0.960 . S
H2414 C2406 0.930 . S
H2415 C2407 0.929 . S
H2416 C2424 0.929 . S
H2417 C2426 0.930 . S
H2418 C2428 0.930 . S
H2419 C2431 0.929 . S
H2420 C2434 0.930 . S
H2421 C2436 0.960 . S
H2422 C2436 0.960 . S
H2423 C2436 0.960 . S
C2424 H2416 0.929 . S
C2424 C2425 1.377 . S
C2424 C2426 1.384 . S
C2425 C2424 1.377 . S
C2425 C2431 1.390 . S
C2426 H2417 0.930 . S
C2426 C2424 1.384 . S
C2426 C2427 1.372 . S
C2427 C2426 1.372 . S
C2427 C2428 1.400 . S
C2427 C2432 1.490 . S
C2428 H2418 0.930 . S
C2428 C2427 1.400 . S
C2428 C2431 1.386 . S
H2429 C2445 0.930 . S
H2430 C2446 0.931 . S
C2431 H2419 0.929 . S
C2431 C2425 1.390 . S
C2431 C2428 1.386 . S
C2432 C2427 1.490 . S
C2432 C2434 1.395 . S
C2432 C2435 1.403 . S
H2433 C2439 0.930 . S
C2434 H2420 0.930 . S
C2434 C2432 1.395 . S
C2434 C2437 1.403 . S
C2435 C2432 1.403 . S
C2435 C2436 1.524 . S
C2435 C2439 1.400 . S
C2436 H2421 0.960 . S
C2436 H2422 0.960 . S
C2436 H2423 0.960 . S
C2436 C2435 1.524 . S
C2437 C2434 1.403 . S
C2437 C2438 1.392 . S
C2437 C2441 1.495 . S
C2438 C2437 1.392 . S
C2438 C2439 1.385 . S
C2438 C2440 1.478 . S
C2439 H2433 0.930 . S
C2439 C2435 1.400 . S
C2439 C2438 1.385 . S
C2440 C2438 1.478 . S
C2440 C2442 1.381 . S
C2440 C2446 1.383 . S
C2441 C2437 1.495 . S
C2441 H2447 0.959 . S
C2441 H2448 0.961 . S
C2441 H2449 0.960 . S
C2442 C2440 1.381 . S
C2442 C2443 1.394 . S
C2442 H2450 0.930 . S
C2443 C2442 1.394 . S
C2443 C2444 1.383 . S
C2443 H2451 0.929 . S
C2444 C2443 1.383 . S
C2444 C2445 1.377 . S
C2445 H2429 0.930 . S
C2445 C2444 1.377 . S
C2445 C2446 1.379 . S
C2446 H2430 0.931 . S
C2446 C2440 1.383 . S
C2446 C2445 1.379 . S
H2447 C2441 0.959 . S
H2448 C2441 0.961 . S
H2449 C2441 0.960 . S
H2450 C2442 0.930 . S
H2451 C2443 0.929 . S
H2452 C2460 0.929 . S
H2453 C2462 0.930 . S
H2454 C2464 0.930 . S
H2455 C2467 0.929 . S
H2456 C2470 0.930 . S
H2457 C2472 0.960 . S
H2458 C2472 0.960 . S
H2459 C2472 0.960 . S
C2460 H2452 0.929 . S
C2460 C2461 1.377 . S
C2460 C2462 1.384 . S
C2461 C2460 1.377 . S
C2461 C2467 1.390 . S
C2462 H2453 0.930 . S
C2462 C2460 1.384 . S
C2462 C2463 1.372 . S
C2463 C2462 1.372 . S
C2463 C2464 1.400 . S
C2463 C2468 1.490 . S
C2464 H2454 0.930 . S
C2464 C2463 1.400 . S
C2464 C2467 1.386 . S
H2465 C2481 0.930 . S
H2466 C2482 0.931 . S
C2467 H2455 0.929 . S
C2467 C2461 1.390 . S
C2467 C2464 1.386 . S
C2468 C2463 1.490 . S
C2468 C2470 1.395 . S
C2468 C2471 1.403 . S
H2469 C2475 0.930 . S
C2470 H2456 0.930 . S
C2470 C2468 1.395 . S
C2470 C2473 1.403 . S
C2471 C2468 1.403 . S
C2471 C2472 1.524 . S
C2471 C2475 1.400 . S
C2472 H2457 0.960 . S
C2472 H2458 0.960 . S
C2472 H2459 0.960 . S
C2472 C2471 1.524 . S
C2473 C2470 1.403 . S
C2473 C2474 1.392 . S
C2473 C2477 1.495 . S
C2474 C2473 1.392 . S
C2474 C2475 1.385 . S
C2474 C2476 1.478 . S
C2475 H2469 0.930 . S
C2475 C2471 1.400 . S
C2475 C2474 1.385 . S
C2476 C2474 1.478 . S
C2476 C2478 1.381 . S
C2476 C2482 1.383 . S
C2477 C2473 1.495 . S
C2477 H2483 0.959 . S
C2477 H2484 0.961 . S
C2477 H2485 0.960 . S
C2478 C2476 1.381 . S
C2478 C2479 1.394 . S
C2478 H2486 0.930 . S
C2479 C2478 1.394 . S
C2479 C2480 1.383 . S
C2479 H2487 0.929 . S
C2480 C2479 1.383 . S
C2480 C2481 1.377 . S
C2481 H2465 0.930 . S
C2481 C2480 1.377 . S
C2481 C2482 1.379 . S
C2482 H2466 0.931 . S
C2482 C2476 1.383 . S
C2482 C2481 1.379 . S
H2483 C2477 0.959 . S
H2484 C2477 0.961 . S
H2485 C2477 0.960 . S
H2486 C2478 0.930 . S
H2487 C2479 0.929 . S
H2488 C2496 0.929 . S
H2489 C2498 0.930 . S
H2490 C2500 0.930 . S
H2491 C2503 0.929 . S
H2492 C2506 0.930 . S
H2493 C2508 0.960 . S
H2494 C2508 0.960 . S
H2495 C2508 0.960 . S
C2496 H2488 0.929 . S
C2496 C2497 1.377 . S
C2496 C2498 1.384 . S
C2497 C2496 1.377 . S
C2497 C2503 1.390 . S
C2498 H2489 0.930 . S
C2498 C2496 1.384 . S
C2498 C2499 1.372 . S
C2499 C2498 1.372 . S
C2499 C2500 1.400 . S
C2499 C2504 1.490 . S
C2500 H2490 0.930 . S
C2500 C2499 1.400 . S
C2500 C2503 1.386 . S
H2501 C2517 0.930 . S
H2502 C2518 0.931 . S
C2503 H2491 0.929 . S
C2503 C2497 1.390 . S
C2503 C2500 1.386 . S
C2504 C2499 1.490 . S
C2504 C2506 1.395 . S
C2504 C2507 1.403 . S
H2505 C2511 0.930 . S
C2506 H2492 0.930 . S
C2506 C2504 1.395 . S
C2506 C2509 1.403 . S
C2507 C2504 1.403 . S
C2507 C2508 1.524 . S
C2507 C2511 1.400 . S
C2508 H2493 0.960 . S
C2508 H2494 0.960 . S
C2508 H2495 0.960 . S
C2508 C2507 1.524 . S
C2509 C2506 1.403 . S
C2509 C2510 1.392 . S
C2509 C2513 1.495 . S
C2510 C2509 1.392 . S
C2510 C2511 1.385 . S
C2510 C2512 1.478 . S
C2511 H2505 0.930 . S
C2511 C2507 1.400 . S
C2511 C2510 1.385 . S
C2512 C2510 1.478 . S
C2512 C2514 1.381 . S
C2512 C2518 1.383 . S
C2513 C2509 1.495 . S
C2513 H2519 0.959 . S
C2513 H2520 0.961 . S
C2513 H2521 0.960 . S
C2514 C2512 1.381 . S
C2514 C2515 1.394 . S
C2514 H2522 0.930 . S
C2515 C2514 1.394 . S
C2515 C2516 1.383 . S
C2515 H2523 0.929 . S
C2516 C2515 1.383 . S
C2516 C2517 1.377 . S
C2517 H2501 0.930 . S
C2517 C2516 1.377 . S
C2517 C2518 1.379 . S
C2518 H2502 0.931 . S
C2518 C2512 1.383 . S
C2518 C2517 1.379 . S
H2519 C2513 0.959 . S
H2520 C2513 0.961 . S
H2521 C2513 0.960 . S
H2522 C2514 0.930 . S
H2523 C2515 0.929 . S
H2524 C2532 0.929 . S
H2525 C2534 0.930 . S
H2526 C2536 0.930 . S
H2527 C2539 0.929 . S
H2528 C2542 0.930 . S
H2529 C2544 0.960 . S
H2530 C2544 0.960 . S
H2531 C2544 0.960 . S
C2532 H2524 0.929 . S
C2532 C2533 1.377 . S
C2532 C2534 1.384 . S
C2533 C2532 1.377 . S
C2533 C2539 1.390 . S
C2534 H2525 0.930 . S
C2534 C2532 1.384 . S
C2534 C2535 1.372 . S
C2535 C2534 1.372 . S
C2535 C2536 1.400 . S
C2535 C2540 1.490 . S
C2536 H2526 0.930 . S
C2536 C2535 1.400 . S
C2536 C2539 1.386 . S
H2537 C2553 0.930 . S
H2538 C2554 0.931 . S
C2539 H2527 0.929 . S
C2539 C2533 1.390 . S
C2539 C2536 1.386 . S
C2540 C2535 1.490 . S
C2540 C2542 1.395 . S
C2540 C2543 1.403 . S
H2541 C2547 0.930 . S
C2542 H2528 0.930 . S
C2542 C2540 1.395 . S
C2542 C2545 1.403 . S
C2543 C2540 1.403 . S
C2543 C2544 1.524 . S
C2543 C2547 1.400 . S
C2544 H2529 0.960 . S
C2544 H2530 0.960 . S
C2544 H2531 0.960 . S
C2544 C2543 1.524 . S
C2545 C2542 1.403 . S
C2545 C2546 1.392 . S
C2545 C2549 1.495 . S
C2546 C2545 1.392 . S
C2546 C2547 1.385 . S
C2546 C2548 1.478 . S
C2547 H2541 0.930 . S
C2547 C2543 1.400 . S
C2547 C2546 1.385 . S
C2548 C2546 1.478 . S
C2548 C2550 1.381 . S
C2548 C2554 1.383 . S
C2549 C2545 1.495 . S
C2549 H2555 0.959 . S
C2549 H2556 0.961 . S
C2549 H2557 0.960 . S
C2550 C2548 1.381 . S
C2550 C2551 1.394 . S
C2550 H2558 0.930 . S
C2551 C2550 1.394 . S
C2551 C2552 1.383 . S
C2551 H2559 0.929 . S
C2552 C2551 1.383 . S
C2552 C2553 1.377 . S
C2553 H2537 0.930 . S
C2553 C2552 1.377 . S
C2553 C2554 1.379 . S
C2554 H2538 0.931 . S
C2554 C2548 1.383 . S
C2554 C2553 1.379 . S
H2555 C2549 0.959 . S
H2556 C2549 0.961 . S
H2557 C2549 0.960 . S
H2558 C2550 0.930 . S
H2559 C2551 0.929 . S
H2560 C2568 0.929 . S
H2561 C2570 0.930 . S
H2562 C2572 0.930 . S
H2563 C2575 0.929 . S
H2564 C2578 0.930 . S
H2565 C2580 0.960 . S
H2566 C2580 0.960 . S
H2567 C2580 0.960 . S
C2568 H2560 0.929 . S
C2568 C2569 1.377 . S
C2568 C2570 1.384 . S
C2569 C2568 1.377 . S
C2569 C2575 1.390 . S
C2570 H2561 0.930 . S
C2570 C2568 1.384 . S
C2570 C2571 1.372 . S
C2571 C2570 1.372 . S
C2571 C2572 1.400 . S
C2571 C2576 1.490 . S
C2572 H2562 0.930 . S
C2572 C2571 1.400 . S
C2572 C2575 1.386 . S
H2573 C2589 0.930 . S
H2574 C2590 0.931 . S
C2575 H2563 0.929 . S
C2575 C2569 1.390 . S
C2575 C2572 1.386 . S
C2576 C2571 1.490 . S
C2576 C2578 1.395 . S
C2576 C2579 1.403 . S
H2577 C2583 0.930 . S
C2578 H2564 0.930 . S
C2578 C2576 1.395 . S
C2578 C2581 1.403 . S
C2579 C2576 1.403 . S
C2579 C2580 1.524 . S
C2579 C2583 1.400 . S
C2580 H2565 0.960 . S
C2580 H2566 0.960 . S
C2580 H2567 0.960 . S
C2580 C2579 1.524 . S
C2581 C2578 1.403 . S
C2581 C2582 1.392 . S
C2581 C2585 1.495 . S
C2582 C2581 1.392 . S
C2582 C2583 1.385 . S
C2582 C2584 1.478 . S
C2583 H2577 0.930 . S
C2583 C2579 1.400 . S
C2583 C2582 1.385 . S
C2584 C2582 1.478 . S
C2584 C2586 1.381 . S
C2584 C2590 1.383 . S
C2585 C2581 1.495 . S
C2585 H2591 0.959 . S
C2585 H2592 0.961 . S
C2585 H2593 0.960 . S
C2586 C2584 1.381 . S
C2586 C2587 1.394 . S
C2586 H2594 0.930 . S
C2587 C2586 1.394 . S
C2587 C2588 1.383 . S
C2587 H2595 0.929 . S
C2588 C2587 1.383 . S
C2588 C2589 1.377 . S
C2589 H2573 0.930 . S
C2589 C2588 1.377 . S
C2589 C2590 1.379 . S
C2590 H2574 0.931 . S
C2590 C2584 1.383 . S
C2590 C2589 1.379 . S
H2591 C2585 0.959 . S
H2592 C2585 0.961 . S
H2593 C2585 0.960 . S
H2594 C2586 0.930 . S
H2595 C2587 0.929 . S
H2596 C2604 0.929 1_545 S
H2597 C2606 0.960 . S
H2598 C2608 0.930 . S
H2599 C2611 0.929 . S
H2600 C2614 0.930 . S
H2601 C2616 0.960 . S
H2602 C2616 0.960 . S
H2603 C2616 0.960 . S
C2604 H2596 0.929 1_565 S
C2604 C2605 1.377 . S
C2604 C2606 1.366 1_565 S
C2605 C2604 1.377 . S
C2605 C2611 1.390 . S
C2606 H2597 0.960 . S
C2606 C2604 1.366 1_545 S
C2606 C2607 1.361 1_545 S
C2607 C2606 1.361 1_565 S
C2607 C2608 1.400 . S
C2607 C2612 1.490 . S
C2608 H2598 0.930 . S
C2608 C2607 1.400 . S
C2608 C2611 1.386 . S
H2609 C2625 0.930 1_565 S
H2610 C2626 0.931 1_565 S
C2611 H2599 0.929 . S
C2611 C2605 1.390 . S
C2611 C2608 1.386 . S
C2612 C2607 1.490 . S
C2612 C2614 1.395 1_565 S
C2612 C2615 1.403 . S
H2613 C2619 0.930 . S
C2614 H2600 0.930 . S
C2614 C2612 1.395 1_545 S
C2614 C2617 1.403 . S
C2615 C2612 1.403 . S
C2615 C2616 1.524 . S
C2615 C2619 1.400 . S
C2616 H2601 0.960 . S
C2616 H2602 0.960 . S
C2616 H2603 0.960 . S
C2616 C2615 1.524 . S
C2617 C2614 1.403 . S
C2617 C2618 1.392 . S
C2617 C2621 1.495 . S
C2618 C2617 1.392 . S
C2618 C2619 1.385 1_545 S
C2618 C2620 1.478 . S
C2619 H2613 0.930 . S
C2619 C2615 1.400 . S
C2619 C2618 1.385 1_565 S
C2620 C2618 1.478 . S
C2620 C2622 1.381 . S
C2620 C2626 1.382 . S
C2621 C2617 1.495 . S
C2621 H2627 0.959 . S
C2621 H2628 0.961 . S
C2621 H2629 0.960 . S
C2622 C2620 1.381 . S
C2622 C2623 1.394 . S
C2622 H2630 0.930 . S
C2623 C2622 1.394 . S
C2623 C2624 1.383 . S
C2623 H2631 0.929 . S
C2624 C2623 1.383 . S
C2624 C2625 1.377 . S
C2625 H2609 0.930 1_545 S
C2625 C2624 1.377 . S
C2625 C2626 1.379 . S
C2626 H2610 0.931 1_545 S
C2626 C2620 1.382 . S
C2626 C2625 1.379 . S
H2627 C2621 0.959 . S
H2628 C2621 0.961 . S
H2629 C2621 0.960 . S
H2630 C2622 0.930 . S
H2631 C2623 0.929 . S
H2632 C2640 0.929 . S
H2633 C2642 0.930 . S
H2634 C2644 0.930 . S
H2635 C2647 0.929 . S
H2636 C2650 0.930 . S
H2637 C2652 0.960 . S
H2638 C2652 0.960 . S
H2639 C2652 0.960 . S
C2640 H2632 0.929 . S
C2640 C2641 1.377 . S
C2640 C2642 1.384 . S
C2641 C2640 1.377 . S
C2641 C2647 1.390 . S
C2642 H2633 0.930 . S
C2642 C2640 1.384 . S
C2642 C2643 1.372 . S
C2643 C2642 1.372 . S
C2643 C2644 1.400 . S
C2643 C2648 1.490 . S
C2644 H2634 0.930 . S
C2644 C2643 1.400 . S
C2644 C2647 1.386 . S
H2645 C2661 0.930 . S
H2646 C2662 0.931 . S
C2647 H2635 0.929 . S
C2647 C2641 1.390 . S
C2647 C2644 1.386 . S
C2648 C2643 1.490 . S
C2648 C2650 1.395 . S
C2648 C2651 1.403 . S
H2649 C2655 0.930 . S
C2650 H2636 0.930 . S
C2650 C2648 1.395 . S
C2650 C2653 1.403 . S
C2651 C2648 1.403 . S
C2651 C2652 1.524 . S
C2651 C2655 1.400 . S
C2652 H2637 0.960 . S
C2652 H2638 0.960 . S
C2652 H2639 0.960 . S
C2652 C2651 1.524 . S
C2653 C2650 1.403 . S
C2653 C2654 1.392 . S
C2653 C2657 1.495 . S
C2654 C2653 1.392 . S
C2654 C2655 1.385 . S
C2654 C2656 1.478 . S
C2655 H2649 0.930 . S
C2655 C2651 1.400 . S
C2655 C2654 1.385 . S
C2656 C2654 1.478 . S
C2656 C2658 1.381 . S
C2656 C2662 1.383 . S
C2657 C2653 1.495 . S
C2657 H2663 0.959 . S
C2657 H2664 0.961 . S
C2657 H2665 0.960 . S
C2658 C2656 1.381 . S
C2658 C2659 1.394 . S
C2658 H2666 0.930 . S
C2659 C2658 1.394 . S
C2659 C2660 1.383 . S
C2659 H2667 0.929 . S
C2660 C2659 1.383 . S
C2660 C2661 1.377 . S
C2661 H2645 0.930 . S
C2661 C2660 1.377 . S
C2661 C2662 1.379 . S
C2662 H2646 0.931 . S
C2662 C2656 1.383 . S
C2662 C2661 1.379 . S
H2663 C2657 0.959 . S
H2664 C2657 0.961 . S
H2665 C2657 0.960 . S
H2666 C2658 0.930 . S
H2667 C2659 0.929 . S
H2668 C2676 0.929 . S
H2669 C2678 0.930 . S
H2670 C2680 0.930 . S
H2671 C2683 0.929 . S
H2672 C2686 0.930 . S
H2673 C2688 0.960 . S
H2674 C2688 0.960 . S
H2675 C2688 0.960 . S
C2676 H2668 0.929 . S
C2676 C2677 1.377 . S
C2676 C2678 1.384 . S
C2677 C2676 1.377 . S
C2677 C2683 1.390 . S
C2678 H2669 0.930 . S
C2678 C2676 1.384 . S
C2678 C2679 1.372 . S
C2679 C2678 1.372 . S
C2679 C2680 1.400 . S
C2679 C2684 1.490 . S
C2680 H2670 0.930 . S
C2680 C2679 1.400 . S
C2680 C2683 1.386 . S
H2681 C2697 0.930 . S
H2682 C2698 0.931 . S
C2683 H2671 0.929 . S
C2683 C2677 1.390 . S
C2683 C2680 1.386 . S
C2684 C2679 1.490 . S
C2684 C2686 1.395 . S
C2684 C2687 1.403 . S
H2685 C2691 0.930 . S
C2686 H2672 0.930 . S
C2686 C2684 1.395 . S
C2686 C2689 1.403 . S
C2687 C2684 1.403 . S
C2687 C2688 1.524 . S
C2687 C2691 1.400 . S
C2688 H2673 0.960 . S
C2688 H2674 0.960 . S
C2688 H2675 0.960 . S
C2688 C2687 1.524 . S
C2689 C2686 1.403 . S
C2689 C2690 1.392 . S
C2689 C2693 1.495 . S
C2690 C2689 1.392 . S
C2690 C2691 1.385 . S
C2690 C2692 1.478 . S
C2691 H2685 0.930 . S
C2691 C2687 1.400 . S
C2691 C2690 1.385 . S
C2692 C2690 1.478 . S
C2692 C2694 1.381 . S
C2692 C2698 1.383 . S
C2693 C2689 1.495 . S
C2693 H2699 0.959 . S
C2693 H2700 0.961 . S
C2693 H2701 0.960 . S
C2694 C2692 1.381 . S
C2694 C2695 1.394 . S
C2694 H2702 0.930 . S
C2695 C2694 1.394 . S
C2695 C2696 1.383 . S
C2695 H2703 0.929 . S
C2696 C2695 1.383 . S
C2696 C2697 1.377 . S
C2697 H2681 0.930 . S
C2697 C2696 1.377 . S
C2697 C2698 1.379 . S
C2698 H2682 0.931 . S
C2698 C2692 1.383 . S
C2698 C2697 1.379 . S
H2699 C2693 0.959 . S
H2700 C2693 0.961 . S
H2701 C2693 0.960 . S
H2702 C2694 0.930 . S
H2703 C2695 0.929 . S
H2704 C2712 0.929 . S
H2705 C2714 0.930 . S
H2706 C2716 0.930 . S
H2707 C2719 0.929 . S
H2708 C2722 0.930 . S
H2709 C2724 0.960 . S
H2710 C2724 0.960 . S
H2711 C2724 0.960 . S
C2712 H2704 0.929 . S
C2712 C2713 1.377 . S
C2712 C2714 1.384 . S
C2713 C2712 1.377 . S
C2713 C2719 1.390 . S
C2714 H2705 0.930 . S
C2714 C2712 1.384 . S
C2714 C2715 1.372 . S
C2715 C2714 1.372 . S
C2715 C2716 1.400 . S
C2715 C2720 1.490 . S
C2716 H2706 0.930 . S
C2716 C2715 1.400 . S
C2716 C2719 1.386 . S
H2717 C2733 0.930 . S
H2718 C2734 0.931 . S
C2719 H2707 0.929 . S
C2719 C2713 1.390 . S
C2719 C2716 1.386 . S
C2720 C2715 1.490 . S
C2720 C2722 1.395 . S
C2720 C2723 1.403 . S
H2721 C2727 0.930 . S
C2722 H2708 0.930 . S
C2722 C2720 1.395 . S
C2722 C2725 1.403 . S
C2723 C2720 1.403 . S
C2723 C2724 1.524 . S
C2723 C2727 1.400 . S
C2724 H2709 0.960 . S
C2724 H2710 0.960 . S
C2724 H2711 0.960 . S
C2724 C2723 1.524 . S
C2725 C2722 1.403 . S
C2725 C2726 1.392 . S
C2725 C2729 1.495 . S
C2726 C2725 1.392 . S
C2726 C2727 1.385 . S
C2726 C2728 1.478 . S
C2727 H2721 0.930 . S
C2727 C2723 1.400 . S
C2727 C2726 1.385 . S
C2728 C2726 1.478 . S
C2728 C2730 1.381 . S
C2728 C2734 1.383 . S
C2729 C2725 1.495 . S
C2729 H2735 0.959 . S
C2729 H2736 0.961 . S
C2729 H2737 0.960 . S
C2730 C2728 1.381 . S
C2730 C2731 1.394 . S
C2730 H2738 0.930 . S
C2731 C2730 1.394 . S
C2731 C2732 1.383 . S
C2731 H2739 0.929 . S
C2732 C2731 1.383 . S
C2732 C2733 1.377 . S
C2733 H2717 0.930 . S
C2733 C2732 1.377 . S
C2733 C2734 1.379 . S
C2734 H2718 0.931 . S
C2734 C2728 1.383 . S
C2734 C2733 1.379 . S
H2735 C2729 0.959 . S
H2736 C2729 0.961 . S
H2737 C2729 0.960 . S
H2738 C2730 0.930 . S
H2739 C2731 0.929 . S
H2740 C2748 0.929 . S
H2741 C2750 0.930 . S
H2742 C2752 0.930 . S
H2743 C2755 0.929 . S
H2744 C2758 0.930 . S
H2745 C2760 0.960 . S
H2746 C2760 0.960 . S
H2747 C2760 0.960 . S
C2748 H2740 0.929 . S
C2748 C2749 1.377 . S
C2748 C2750 1.384 . S
C2749 C2748 1.377 . S
C2749 C2755 1.390 . S
C2750 H2741 0.930 . S
C2750 C2748 1.384 . S
C2750 C2751 1.372 . S
C2751 C2750 1.372 . S
C2751 C2752 1.400 . S
C2751 C2756 1.490 . S
C2752 H2742 0.930 . S
C2752 C2751 1.400 . S
C2752 C2755 1.386 . S
H2753 C2769 0.930 . S
H2754 C2770 0.931 . S
C2755 H2743 0.929 . S
C2755 C2749 1.390 . S
C2755 C2752 1.386 . S
C2756 C2751 1.490 . S
C2756 C2758 1.395 . S
C2756 C2759 1.403 . S
H2757 C2763 0.930 . S
C2758 H2744 0.930 . S
C2758 C2756 1.395 . S
C2758 C2761 1.403 . S
C2759 C2756 1.403 . S
C2759 C2760 1.524 . S
C2759 C2763 1.400 . S
C2760 H2745 0.960 . S
C2760 H2746 0.960 . S
C2760 H2747 0.960 . S
C2760 C2759 1.524 . S
C2761 C2758 1.403 . S
C2761 C2762 1.392 . S
C2761 C2765 1.495 . S
C2762 C2761 1.392 . S
C2762 C2763 1.385 . S
C2762 C2764 1.478 . S
C2763 H2757 0.930 . S
C2763 C2759 1.400 . S
C2763 C2762 1.385 . S
C2764 C2762 1.478 . S
C2764 C2766 1.381 . S
C2764 C2770 1.383 . S
C2765 C2761 1.495 . S
C2765 H2771 0.959 . S
C2765 H2772 0.961 . S
C2765 H2773 0.960 . S
C2766 C2764 1.381 . S
C2766 C2767 1.394 . S
C2766 H2774 0.930 . S
C2767 C2766 1.394 . S
C2767 C2768 1.383 . S
C2767 H2775 0.929 . S
C2768 C2767 1.383 . S
C2768 C2769 1.377 . S
C2769 H2753 0.930 . S
C2769 C2768 1.377 . S
C2769 C2770 1.379 . S
C2770 H2754 0.931 . S
C2770 C2764 1.383 . S
C2770 C2769 1.379 . S
H2771 C2765 0.959 . S
H2772 C2765 0.961 . S
H2773 C2765 0.960 . S
H2774 C2766 0.930 . S
H2775 C2767 0.929 . S
H2776 C2784 0.929 . S
H2777 C2786 0.930 . S
H2778 C2788 0.930 . S
H2779 C2791 0.929 . S
H2780 C2794 0.930 . S
H2781 C2796 0.960 1_554 S
H2782 C2796 0.960 . S
H2783 C2796 0.960 . S
C2784 H2776 0.929 . S
C2784 C2785 1.377 . S
C2784 C2786 1.384 . S
C2785 C2784 1.377 . S
C2785 C2791 1.390 . S
C2786 H2777 0.930 . S
C2786 C2784 1.384 . S
C2786 C2787 1.372 . S
C2787 C2786 1.372 . S
C2787 C2788 1.400 . S
C2787 C2792 1.490 . S
C2788 H2778 0.930 . S
C2788 C2787 1.400 . S
C2788 C2791 1.386 . S
H2789 C2805 0.930 1_655 S
H2790 C2806 0.931 1_656 S
C2791 H2779 0.929 . S
C2791 C2785 1.390 . S
C2791 C2788 1.386 . S
C2792 C2787 1.490 . S
C2792 C2794 1.395 . S
C2792 C2795 1.403 . S
H2793 C2799 0.930 1_554 S
C2794 H2780 0.930 . S
C2794 C2792 1.395 . S
C2794 C2797 1.403 . S
C2795 C2792 1.403 . S
C2795 C2796 1.524 . S
C2795 C2799 1.400 . S
C2796 H2781 0.960 1_556 S
C2796 H2782 0.960 . S
C2796 H2783 0.960 . S
C2796 C2795 1.524 . S
C2797 C2794 1.403 . S
C2797 C2798 1.392 . S
C2797 C2801 1.495 . S
C2798 C2797 1.392 . S
C2798 C2799 1.385 . S
C2798 C2800 1.478 . S
C2799 H2793 0.930 1_556 S
C2799 C2795 1.400 . S
C2799 C2798 1.385 . S
C2800 C2798 1.478 . S
C2800 C2802 1.381 1_556 S
C2800 C2806 1.383 1_556 S
C2801 C2797 1.495 . S
C2801 H2807 0.959 . S
C2801 H2808 0.961 . S
C2801 H2809 0.960 . S
C2802 C2800 1.381 1_554 S
C2802 C2803 1.394 . S
C2802 H2810 0.930 . S
C2803 C2802 1.394 . S
C2803 C2804 1.383 . S
C2803 H2811 0.929 . S
C2804 C2803 1.383 . S
C2804 C2805 1.377 . S
C2805 H2789 0.930 1_455 S
C2805 C2804 1.377 . S
C2805 C2806 1.379 . S
C2806 H2790 0.931 1_454 S
C2806 C2800 1.383 1_554 S
C2806 C2805 1.379 . S
H2807 C2801 0.959 . S
H2808 C2801 0.961 . S
H2809 C2801 0.960 . S
H2810 C2802 0.930 . S
H2811 C2803 0.929 . S
H2812 C2820 0.929 . S
H2813 C2822 0.930 . S
H2814 C2824 0.930 . S
H2815 C2827 0.929 . S
H2816 C2830 0.930 . S
H2817 C2832 0.960 . S
H2818 C2832 0.960 . S
H2819 C2832 0.960 . S
C2820 H2812 0.929 . S
C2820 C2821 1.377 . S
C2820 C2822 1.384 . S
C2821 C2820 1.377 . S
C2821 C2827 1.390 . S
C2822 H2813 0.930 . S
C2822 C2820 1.384 . S
C2822 C2823 1.372 . S
C2823 C2822 1.372 . S
C2823 C2824 1.400 . S
C2823 C2828 1.490 . S
C2824 H2814 0.930 . S
C2824 C2823 1.400 . S
C2824 C2827 1.386 . S
H2825 C2841 0.930 . S
H2826 C2842 0.931 . S
C2827 H2815 0.929 . S
C2827 C2821 1.390 . S
C2827 C2824 1.386 . S
C2828 C2823 1.490 . S
C2828 C2830 1.395 . S
C2828 C2831 1.403 . S
H2829 C2835 0.930 . S
C2830 H2816 0.930 . S
C2830 C2828 1.395 . S
C2830 C2833 1.403 . S
C2831 C2828 1.403 . S
C2831 C2832 1.524 . S
C2831 C2835 1.400 . S
C2832 H2817 0.960 . S
C2832 H2818 0.960 . S
C2832 H2819 0.960 . S
C2832 C2831 1.524 . S
C2833 C2830 1.403 . S
C2833 C2834 1.392 . S
C2833 C2837 1.495 . S
C2834 C2833 1.392 . S
C2834 C2835 1.385 . S
C2834 C2836 1.478 . S
C2835 H2829 0.930 . S
C2835 C2831 1.400 . S
C2835 C2834 1.385 . S
C2836 C2834 1.478 . S
C2836 C2838 1.381 . S
C2836 C2842 1.383 . S
C2837 C2833 1.495 . S
C2837 H2843 0.959 . S
C2837 H2844 0.961 . S
C2837 H2845 0.960 . S
C2838 C2836 1.381 . S
C2838 C2839 1.394 . S
C2838 H2846 0.930 . S
C2839 C2838 1.394 . S
C2839 C2840 1.383 . S
C2839 H2847 0.929 . S
C2840 C2839 1.383 . S
C2840 C2841 1.377 . S
C2841 H2825 0.930 . S
C2841 C2840 1.377 . S
C2841 C2842 1.379 . S
C2842 H2826 0.931 . S
C2842 C2836 1.383 . S
C2842 C2841 1.379 . S
H2843 C2837 0.959 . S
H2844 C2837 0.961 . S
H2845 C2837 0.960 . S
H2846 C2838 0.930 . S
H2847 C2839 0.929 . S
H2848 C2856 0.929 . S
H2849 C2858 0.930 . S
H2850 C2860 0.930 . S
H2851 C2863 0.929 . S
H2852 C2866 0.930 . S
H2853 C2868 0.960 . S
H2854 C2868 0.960 . S
H2855 C2868 0.960 . S
C2856 H2848 0.929 . S
C2856 C2857 1.377 . S
C2856 C2858 1.384 . S
C2857 C2856 1.377 . S
C2857 C2863 1.390 . S
C2858 H2849 0.930 . S
C2858 C2856 1.384 . S
C2858 C2859 1.372 . S
C2859 C2858 1.372 . S
C2859 C2860 1.400 . S
C2859 C2864 1.490 . S
C2860 H2850 0.930 . S
C2860 C2859 1.400 . S
C2860 C2863 1.386 . S
H2861 C2877 0.930 . S
H2862 C2878 0.931 . S
C2863 H2851 0.929 . S
C2863 C2857 1.390 . S
C2863 C2860 1.386 . S
C2864 C2859 1.490 . S
C2864 C2866 1.395 . S
C2864 C2867 1.403 . S
H2865 C2871 0.930 . S
C2866 H2852 0.930 . S
C2866 C2864 1.395 . S
C2866 C2869 1.403 . S
C2867 C2864 1.403 . S
C2867 C2868 1.524 . S
C2867 C2871 1.400 . S
C2868 H2853 0.960 . S
C2868 H2854 0.960 . S
C2868 H2855 0.960 . S
C2868 C2867 1.524 . S
C2869 C2866 1.403 . S
C2869 C2870 1.392 . S
C2869 C2873 1.495 . S
C2870 C2869 1.392 . S
C2870 C2871 1.385 . S
C2870 C2872 1.478 . S
C2871 H2865 0.930 . S
C2871 C2867 1.400 . S
C2871 C2870 1.385 . S
C2872 C2870 1.478 . S
C2872 C2874 1.381 . S
C2872 C2878 1.383 . S
C2873 C2869 1.495 . S
C2873 H2879 0.959 . S
C2873 H2880 0.961 . S
C2873 H2881 0.960 . S
C2874 C2872 1.381 . S
C2874 C2875 1.394 . S
C2874 H2882 0.930 . S
C2875 C2874 1.394 . S
C2875 C2876 1.383 . S
C2875 H2883 0.929 . S
C2876 C2875 1.383 . S
C2876 C2877 1.377 . S
C2877 H2861 0.930 . S
C2877 C2876 1.377 . S
C2877 C2878 1.379 . S
C2878 H2862 0.931 . S
C2878 C2872 1.383 . S
C2878 C2877 1.379 . S
H2879 C2873 0.959 . S
H2880 C2873 0.961 . S
H2881 C2873 0.960 . S
H2882 C2874 0.930 . S
H2883 C2875 0.929 . S
H2884 C2892 0.929 . S
H2885 C2894 0.923 1_655 S
H2886 C2896 0.930 . S
H2887 C2899 0.929 . S
H2888 C2902 0.930 . S
H2889 C2904 0.960 . S
H2890 C2904 0.960 . S
H2891 C2904 0.960 . S
C2892 H2884 0.929 . S
C2892 C2893 1.377 . S
C2892 C2894 1.384 . S
C2893 C2892 1.377 . S
C2893 C2899 1.390 . S
C2894 H2885 0.923 1_455 S
C2894 C2892 1.384 . S
C2894 C2895 1.372 1_455 S
C2895 C2894 1.372 1_655 S
C2895 C2896 1.400 . S
C2895 C2900 1.490 . S
C2896 H2886 0.930 . S
C2896 C2895 1.400 . S
C2896 C2899 1.386 1_655 S
H2897 C2913 0.930 . S
H2898 C2914 0.931 . S
C2899 H2887 0.929 . S
C2899 C2893 1.390 . S
C2899 C2896 1.386 1_455 S
C2900 C2895 1.490 . S
C2900 C2902 1.395 . S
C2900 C2903 1.403 . S
H2901 C2907 0.930 . S
C2902 H2888 0.930 . S
C2902 C2900 1.395 . S
C2902 C2905 1.403 . S
C2903 C2900 1.403 . S
C2903 C2904 1.524 . S
C2903 C2907 1.400 . S
C2904 H2889 0.960 . S
C2904 H2890 0.960 . S
C2904 H2891 0.960 . S
C2904 C2903 1.524 . S
C2905 C2902 1.403 . S
C2905 C2906 1.392 . S
C2905 C2909 1.495 . S
C2906 C2905 1.392 . S
C2906 C2907 1.385 . S
C2906 C2908 1.478 . S
C2907 H2901 0.930 . S
C2907 C2903 1.400 . S
C2907 C2906 1.385 . S
C2908 C2906 1.478 . S
C2908 C2910 1.381 . S
C2908 C2914 1.383 . S
C2909 C2905 1.495 . S
C2909 H2915 0.959 . S
C2909 H2916 0.961 . S
C2909 H2917 0.960 . S
C2910 C2908 1.381 . S
C2910 C2911 1.394 . S
C2910 H2918 0.930 . S
C2911 C2910 1.394 . S
C2911 C2912 1.383 . S
C2911 H2919 0.929 . S
C2912 C2911 1.383 . S
C2912 C2913 1.377 . S
C2913 H2897 0.930 . S
C2913 C2912 1.377 . S
C2913 C2914 1.379 . S
C2914 H2898 0.931 . S
C2914 C2908 1.383 . S
C2914 C2913 1.379 . S
H2915 C2909 0.959 . S
H2916 C2909 0.961 . S
H2917 C2909 0.960 . S
H2918 C2910 0.930 . S
H2919 C2911 0.929 . S
H2920 C2928 0.929 . S
H2921 C2930 0.930 . S
H2922 C2932 0.930 . S
H2923 C2935 0.927 1_455 S
H2924 C2938 0.930 . S
H2925 C2940 0.960 . S
H2926 C2940 0.960 . S
H2927 C2940 0.960 . S
C2928 H2920 0.929 . S
C2928 C2929 1.377 . S
C2928 C2930 1.384 . S
C2929 C2928 1.377 . S
C2929 C2935 1.401 . S
C2930 H2921 0.930 . S
C2930 C2928 1.384 . S
C2930 C2931 1.372 . S
C2931 C2930 1.372 . S
C2931 C2932 1.400 1_655 S
C2931 C2936 1.490 . S
C2932 H2922 0.930 . S
C2932 C2931 1.400 1_455 S
C2932 C2935 1.378 1_455 S
H2933 C2949 0.930 . S
H2934 C2950 0.931 . S
C2935 H2923 0.927 1_655 S
C2935 C2929 1.401 . S
C2935 C2932 1.378 1_655 S
C2936 C2931 1.490 . S
C2936 C2938 1.395 1_655 S
C2936 C2939 1.403 . S
H2937 C2943 0.930 . S
C2938 H2924 0.930 . S
C2938 C2936 1.395 1_455 S
C2938 C2941 1.403 . S
C2939 C2936 1.403 . S
C2939 C2940 1.524 . S
C2939 C2943 1.400 . S
C2940 H2925 0.960 . S
C2940 H2926 0.960 . S
C2940 H2927 0.960 . S
C2940 C2939 1.524 . S
C2941 C2938 1.403 . S
C2941 C2942 1.392 . S
C2941 C2945 1.495 . S
C2942 C2941 1.392 . S
C2942 C2943 1.385 1_455 S
C2942 C2944 1.478 . S
C2943 H2937 0.930 . S
C2943 C2939 1.400 . S
C2943 C2942 1.385 1_655 S
C2944 C2942 1.478 . S
C2944 C2946 1.383 . S
C2944 C2950 1.383 . S
C2945 C2941 1.495 . S
C2945 H2951 0.959 . S
C2945 H2952 0.961 . S
C2945 H2953 0.960 . S
C2946 C2944 1.383 . S
C2946 C2947 1.398 . S
C2946 H2954 0.924 1_455 S
C2947 C2946 1.398 . S
C2947 C2948 1.383 . S
C2947 H2955 0.929 1_455 S
C2948 C2947 1.383 . S
C2948 C2949 1.377 . S
C2949 H2933 0.930 . S
C2949 C2948 1.377 . S
C2949 C2950 1.379 . S
C2950 H2934 0.931 . S
C2950 C2944 1.383 . S
C2950 C2949 1.379 . S
H2951 C2945 0.959 . S
H2952 C2945 0.961 . S
H2953 C2945 0.960 . S
H2954 C2946 0.924 1_655 S
H2955 C2947 0.929 1_655 S
H2956 C2964 0.929 . S
H2957 C2966 0.930 . S
H2958 C2968 0.930 . S
H2959 C2971 0.929 . S
H2960 C2974 0.930 . S
H2961 C2976 0.960 . S
H2962 C2976 0.960 . S
H2963 C2976 0.960 . S
C2964 H2956 0.929 . S
C2964 C2965 1.377 . S
C2964 C2966 1.384 . S
C2965 C2964 1.377 . S
C2965 C2971 1.390 . S
C2966 H2957 0.930 . S
C2966 C2964 1.384 . S
C2966 C2967 1.372 . S
C2967 C2966 1.372 . S
C2967 C2968 1.400 . S
C2967 C2972 1.490 . S
C2968 H2958 0.930 . S
C2968 C2967 1.400 . S
C2968 C2971 1.386 . S
H2969 C2985 0.930 . S
H2970 C2986 0.931 . S
C2971 H2959 0.929 . S
C2971 C2965 1.390 . S
C2971 C2968 1.386 . S
C2972 C2967 1.490 . S
C2972 C2974 1.395 . S
C2972 C2975 1.403 . S
H2973 C2979 0.930 . S
C2974 H2960 0.930 . S
C2974 C2972 1.395 . S
C2974 C2977 1.403 . S
C2975 C2972 1.403 . S
C2975 C2976 1.524 . S
C2975 C2979 1.400 . S
C2976 H2961 0.960 . S
C2976 H2962 0.960 . S
C2976 H2963 0.960 . S
C2976 C2975 1.524 . S
C2977 C2974 1.403 . S
C2977 C2978 1.392 . S
C2977 C2981 1.495 . S
C2978 C2977 1.392 . S
C2978 C2979 1.385 . S
C2978 C2980 1.478 . S
C2979 H2973 0.930 . S
C2979 C2975 1.400 . S
C2979 C2978 1.385 . S
C2980 C2978 1.478 . S
C2980 C2982 1.381 . S
C2980 C2986 1.383 . S
C2981 C2977 1.495 . S
C2981 H2987 0.959 . S
C2981 H2988 0.961 . S
C2981 H2989 0.960 . S
C2982 C2980 1.381 . S
C2982 C2983 1.394 . S
C2982 H2990 0.930 . S
C2983 C2982 1.394 . S
C2983 C2984 1.383 . S
C2983 H2991 0.929 . S
C2984 C2983 1.383 . S
C2984 C2985 1.377 . S
C2985 H2969 0.930 . S
C2985 C2984 1.377 . S
C2985 C2986 1.379 . S
C2986 H2970 0.931 . S
C2986 C2980 1.383 . S
C2986 C2985 1.379 . S
H2987 C2981 0.959 . S
H2988 C2981 0.961 . S
H2989 C2981 0.960 . S
H2990 C2982 0.930 . S
H2991 C2983 0.929 . S
H2992 C3000 0.929 . S
H2993 C3002 0.930 . S
H2994 C3004 0.930 . S
H2995 C3007 0.929 . S
H2996 C3010 0.930 . S
H2997 C3012 0.960 . S
H2998 C3012 0.960 . S
H2999 C3012 0.960 . S
C3000 H2992 0.929 . S
C3000 C3001 1.377 . S
C3000 C3002 1.384 . S
C3001 C3000 1.377 . S
C3001 C3007 1.390 . S
C3002 H2993 0.930 . S
C3002 C3000 1.384 . S
C3002 C3003 1.372 . S
C3003 C3002 1.372 . S
C3003 C3004 1.400 . S
C3003 C3008 1.490 . S
C3004 H2994 0.930 . S
C3004 C3003 1.400 . S
C3004 C3007 1.386 . S
H3005 C3021 0.930 . S
H3006 C3022 0.931 . S
C3007 H2995 0.929 . S
C3007 C3001 1.390 . S
C3007 C3004 1.386 . S
C3008 C3003 1.490 . S
C3008 C3010 1.395 . S
C3008 C3011 1.403 . S
H3009 C3015 0.930 . S
C3010 H2996 0.930 . S
C3010 C3008 1.395 . S
C3010 C3013 1.403 . S
C3011 C3008 1.403 . S
C3011 C3012 1.524 . S
C3011 C3015 1.400 . S
C3012 H2997 0.960 . S
C3012 H2998 0.960 . S
C3012 H2999 0.960 . S
C3012 C3011 1.524 . S
C3013 C3010 1.403 . S
C3013 C3014 1.392 . S
C3013 C3017 1.495 . S
C3014 C3013 1.392 . S
C3014 C3015 1.385 . S
C3014 C3016 1.478 . S
C3015 H3009 0.930 . S
C3015 C3011 1.400 . S
C3015 C3014 1.385 . S
C3016 C3014 1.478 . S
C3016 C3018 1.381 . S
C3016 C3022 1.383 . S
C3017 C3013 1.495 . S
C3017 H3023 0.959 . S
C3017 H3024 0.961 . S
C3017 H3025 0.960 . S
C3018 C3016 1.381 . S
C3018 C3019 1.394 . S
C3018 H3026 0.930 . S
C3019 C3018 1.394 . S
C3019 C3020 1.383 . S
C3019 H3027 0.929 . S
C3020 C3019 1.383 . S
C3020 C3021 1.377 . S
C3021 H3005 0.930 . S
C3021 C3020 1.377 . S
C3021 C3022 1.379 . S
C3022 H3006 0.931 . S
C3022 C3016 1.383 . S
C3022 C3021 1.379 . S
H3023 C3017 0.959 . S
H3024 C3017 0.961 . S
H3025 C3017 0.960 . S
H3026 C3018 0.930 . S
H3027 C3019 0.929 . S
H3028 C3036 0.929 . S
H3029 C3038 0.930 . S
H3030 C3040 0.930 . S
H3031 C3043 0.929 1_554 S
H3032 C3046 0.930 . S
H3033 C3048 0.960 . S
H3034 C3048 0.960 . S
H3035 C3048 0.960 . S
C3036 H3028 0.929 . S
C3036 C3037 1.377 . S
C3036 C3038 1.384 . S
C3037 C3036 1.377 . S
C3037 C3043 1.390 . S
C3038 H3029 0.930 . S
C3038 C3036 1.384 . S
C3038 C3039 1.372 . S
C3039 C3038 1.372 . S
C3039 C3040 1.400 . S
C3039 C3044 1.490 . S
C3040 H3030 0.930 . S
C3040 C3039 1.400 . S
C3040 C3043 1.386 . S
H3041 C3057 0.930 . S
H3042 C3058 0.931 . S
C3043 H3031 0.929 1_556 S
C3043 C3037 1.390 . S
C3043 C3040 1.386 . S
C3044 C3039 1.490 . S
C3044 C3046 1.395 . S
C3044 C3047 1.403 . S
H3045 C3051 0.930 . S
C3046 H3032 0.930 . S
C3046 C3044 1.395 . S
C3046 C3049 1.403 . S
C3047 C3044 1.403 . S
C3047 C3048 1.524 . S
C3047 C3051 1.400 . S
C3048 H3033 0.960 . S
C3048 H3034 0.960 . S
C3048 H3035 0.960 . S
C3048 C3047 1.524 . S
C3049 C3046 1.403 . S
C3049 C3050 1.392 . S
C3049 C3053 1.495 . S
C3050 C3049 1.392 . S
C3050 C3051 1.385 . S
C3050 C3052 1.478 . S
C3051 H3045 0.930 . S
C3051 C3047 1.400 . S
C3051 C3050 1.385 . S
C3052 C3050 1.478 . S
C3052 C3054 1.381 . S
C3052 C3058 1.383 . S
C3053 C3049 1.495 . S
C3053 H3059 0.959 . S
C3053 H3060 0.961 . S
C3053 H3061 0.960 . S
C3054 C3052 1.381 . S
C3054 C3055 1.394 . S
C3054 H3062 0.930 . S
C3055 C3054 1.394 . S
C3055 C3056 1.383 . S
C3055 H3063 0.929 . S
C3056 C3055 1.383 . S
C3056 C3057 1.377 . S
C3057 H3041 0.930 . S
C3057 C3056 1.377 . S
C3057 C3058 1.379 . S
C3058 H3042 0.931 . S
C3058 C3052 1.383 . S
C3058 C3057 1.379 . S
H3059 C3053 0.959 . S
H3060 C3053 0.961 . S
H3061 C3053 0.960 . S
H3062 C3054 0.930 . S
H3063 C3055 0.929 . S
H3064 C3072 0.929 . S
H3065 C3074 0.930 . S
H3066 C3076 0.930 . S
H3067 C3079 0.929 . S
H3068 C3082 0.930 . S
H3069 C3084 0.960 . S
H3070 C3084 0.960 . S
H3071 C3084 0.960 . S
C3072 H3064 0.929 . S
C3072 C3073 1.377 . S
C3072 C3074 1.384 . S
C3073 C3072 1.377 . S
C3073 C3079 1.390 . S
C3074 H3065 0.930 . S
C3074 C3072 1.384 . S
C3074 C3075 1.372 . S
C3075 C3074 1.372 . S
C3075 C3076 1.400 . S
C3075 C3080 1.490 . S
C3076 H3066 0.930 . S
C3076 C3075 1.400 . S
C3076 C3079 1.386 . S
H3077 C3093 0.930 . S
H3078 C3094 0.931 . S
C3079 H3067 0.929 . S
C3079 C3073 1.390 . S
C3079 C3076 1.386 . S
C3080 C3075 1.490 . S
C3080 C3082 1.395 . S
C3080 C3083 1.403 . S
H3081 C3087 0.930 . S
C3082 H3068 0.930 . S
C3082 C3080 1.395 . S
C3082 C3085 1.403 . S
C3083 C3080 1.403 . S
C3083 C3084 1.524 . S
C3083 C3087 1.400 . S
C3084 H3069 0.960 . S
C3084 H3070 0.960 . S
C3084 H3071 0.960 . S
C3084 C3083 1.524 . S
C3085 C3082 1.403 . S
C3085 C3086 1.392 . S
C3085 C3089 1.495 . S
C3086 C3085 1.392 . S
C3086 C3087 1.385 . S
C3086 C3088 1.478 . S
C3087 H3081 0.930 . S
C3087 C3083 1.400 . S
C3087 C3086 1.385 . S
C3088 C3086 1.478 . S
C3088 C3090 1.381 . S
C3088 C3094 1.383 . S
C3089 C3085 1.495 . S
C3089 H3095 0.959 . S
C3089 H3096 0.961 . S
C3089 H3097 0.960 . S
C3090 C3088 1.381 . S
C3090 C3091 1.394 . S
C3090 H3098 0.930 . S
C3091 C3090 1.394 . S
C3091 C3092 1.383 . S
C3091 H3099 0.929 . S
C3092 C3091 1.383 . S
C3092 C3093 1.377 . S
C3093 H3077 0.930 . S
C3093 C3092 1.377 . S
C3093 C3094 1.379 . S
C3094 H3078 0.931 . S
C3094 C3088 1.383 . S
C3094 C3093 1.379 . S
H3095 C3089 0.959 . S
H3096 C3089 0.961 . S
H3097 C3089 0.960 . S
H3098 C3090 0.930 . S
H3099 C3091 0.929 . S
H3100 C3108 0.929 . S
H3101 C3110 0.930 . S
H3102 C3112 0.930 . S
H3103 C3115 0.929 . S
H3104 C3118 0.930 . S
H3105 C3120 0.960 . S
H3106 C3120 0.960 . S
H3107 C3120 0.960 . S
C3108 H3100 0.929 . S
C3108 C3109 1.377 . S
C3108 C3110 1.384 . S
C3109 C3108 1.377 . S
C3109 C3115 1.390 . S
C3110 H3101 0.930 . S
C3110 C3108 1.384 . S
C3110 C3111 1.372 . S
C3111 C3110 1.372 . S
C3111 C3112 1.400 . S
C3111 C3116 1.490 . S
C3112 H3102 0.930 . S
C3112 C3111 1.400 . S
C3112 C3115 1.386 . S
H3113 C3129 0.930 . S
H3114 C3130 0.931 . S
C3115 H3103 0.929 . S
C3115 C3109 1.390 . S
C3115 C3112 1.386 . S
C3116 C3111 1.490 . S
C3116 C3118 1.395 . S
C3116 C3119 1.403 . S
H3117 C3123 0.930 . S
C3118 H3104 0.930 . S
C3118 C3116 1.395 . S
C3118 C3121 1.403 . S
C3119 C3116 1.403 . S
C3119 C3120 1.524 . S
C3119 C3123 1.400 . S
C3120 H3105 0.960 . S
C3120 H3106 0.960 . S
C3120 H3107 0.960 . S
C3120 C3119 1.524 . S
C3121 C3118 1.403 . S
C3121 C3122 1.392 . S
C3121 C3125 1.495 . S
C3122 C3121 1.392 . S
C3122 C3123 1.385 . S
C3122 C3124 1.478 . S
C3123 H3117 0.930 . S
C3123 C3119 1.400 . S
C3123 C3122 1.385 . S
C3124 C3122 1.478 . S
C3124 C3126 1.381 . S
C3124 C3130 1.383 . S
C3125 C3121 1.495 . S
C3125 H3131 0.959 . S
C3125 H3132 0.961 . S
C3125 H3133 0.960 . S
C3126 C3124 1.381 . S
C3126 C3127 1.394 . S
C3126 H3134 0.930 . S
C3127 C3126 1.394 . S
C3127 C3128 1.383 . S
C3127 H3135 0.929 . S
C3128 C3127 1.383 . S
C3128 C3129 1.377 . S
C3129 H3113 0.930 . S
C3129 C3128 1.377 . S
C3129 C3130 1.379 . S
C3130 H3114 0.931 . S
C3130 C3124 1.383 . S
C3130 C3129 1.379 . S
H3131 C3125 0.959 . S
H3132 C3125 0.961 . S
H3133 C3125 0.960 . S
H3134 C3126 0.930 . S
H3135 C3127 0.929 . S
H3136 C3144 0.929 . S
H3137 C3146 0.930 . S
H3138 C3148 0.930 . S
H3139 C3151 0.929 . S
H3140 C3154 0.930 . S
H3141 C3156 0.960 . S
H3142 C3156 0.960 . S
H3143 C3156 0.960 . S
C3144 H3136 0.929 . S
C3144 C3145 1.377 . S
C3144 C3146 1.384 . S
C3145 C3144 1.377 . S
C3145 C3151 1.390 . S
C3146 H3137 0.930 . S
C3146 C3144 1.384 . S
C3146 C3147 1.372 . S
C3147 C3146 1.372 . S
C3147 C3148 1.400 . S
C3147 C3152 1.490 . S
C3148 H3138 0.930 . S
C3148 C3147 1.400 . S
C3148 C3151 1.386 . S
H3149 C3165 0.930 . S
H3150 C3166 0.931 . S
C3151 H3139 0.929 . S
C3151 C3145 1.390 . S
C3151 C3148 1.386 . S
C3152 C3147 1.490 . S
C3152 C3154 1.395 . S
C3152 C3155 1.403 . S
H3153 C3159 0.930 . S
C3154 H3140 0.930 . S
C3154 C3152 1.395 . S
C3154 C3157 1.403 . S
C3155 C3152 1.403 . S
C3155 C3156 1.524 . S
C3155 C3159 1.400 . S
C3156 H3141 0.960 . S
C3156 H3142 0.960 . S
C3156 H3143 0.960 . S
C3156 C3155 1.524 . S
C3157 C3154 1.403 . S
C3157 C3158 1.392 . S
C3157 C3161 1.495 . S
C3158 C3157 1.392 . S
C3158 C3159 1.385 . S
C3158 C3160 1.478 . S
C3159 H3153 0.930 . S
C3159 C3155 1.400 . S
C3159 C3158 1.385 . S
C3160 C3158 1.478 . S
C3160 C3162 1.381 . S
C3160 C3166 1.383 . S
C3161 C3157 1.495 . S
C3161 H3167 0.959 . S
C3161 H3168 0.961 . S
C3161 H3169 0.960 . S
C3162 C3160 1.381 . S
C3162 C3163 1.394 . S
C3162 H3170 0.930 . S
C3163 C3162 1.394 . S
C3163 C3164 1.383 . S
C3163 H3171 0.929 . S
C3164 C3163 1.383 . S
C3164 C3165 1.377 . S
C3165 H3149 0.930 . S
C3165 C3164 1.377 . S
C3165 C3166 1.379 . S
C3166 H3150 0.931 . S
C3166 C3160 1.383 . S
C3166 C3165 1.379 . S
H3167 C3161 0.959 . S
H3168 C3161 0.961 . S
H3169 C3161 0.960 . S
H3170 C3162 0.930 . S
H3171 C3163 0.929 . S
H3172 C3180 0.929 . S
H3173 C3182 0.930 . S
H3174 C3184 0.930 . S
H3175 C3187 0.929 . S
H3176 C3190 0.930 . S
H3177 C3192 0.960 . S
H3178 C3192 0.960 . S
H3179 C3192 0.960 . S
C3180 H3172 0.929 . S
C3180 C3181 1.377 . S
C3180 C3182 1.384 . S
C3181 C3180 1.377 . S
C3181 C3187 1.390 . S
C3182 H3173 0.930 . S
C3182 C3180 1.384 . S
C3182 C3183 1.372 . S
C3183 C3182 1.372 . S
C3183 C3184 1.400 . S
C3183 C3188 1.490 . S
C3184 H3174 0.930 . S
C3184 C3183 1.400 . S
C3184 C3187 1.386 . S
H3185 C3201 0.930 . S
H3186 C3202 0.931 . S
C3187 H3175 0.929 . S
C3187 C3181 1.390 . S
C3187 C3184 1.386 . S
C3188 C3183 1.490 . S
C3188 C3190 1.395 . S
C3188 C3191 1.403 . S
H3189 C3195 0.930 . S
C3190 H3176 0.930 . S
C3190 C3188 1.395 . S
C3190 C3193 1.403 . S
C3191 C3188 1.403 . S
C3191 C3192 1.524 . S
C3191 C3195 1.400 . S
C3192 H3177 0.960 . S
C3192 H3178 0.960 . S
C3192 H3179 0.960 . S
C3192 C3191 1.524 . S
C3193 C3190 1.403 . S
C3193 C3194 1.392 . S
C3193 C3197 1.495 . S
C3194 C3193 1.392 . S
C3194 C3195 1.385 . S
C3194 C3196 1.478 . S
C3195 H3189 0.930 . S
C3195 C3191 1.400 . S
C3195 C3194 1.385 . S
C3196 C3194 1.478 . S
C3196 C3198 1.381 . S
C3196 C3202 1.383 . S
C3197 C3193 1.495 . S
C3197 H3203 0.959 . S
C3197 H3204 0.961 . S
C3197 H3205 0.960 . S
C3198 C3196 1.381 . S
C3198 C3199 1.394 . S
C3198 H3206 0.930 . S
C3199 C3198 1.394 . S
C3199 C3200 1.383 . S
C3199 H3207 0.929 . S
C3200 C3199 1.383 . S
C3200 C3201 1.377 . S
C3201 H3185 0.930 . S
C3201 C3200 1.377 . S
C3201 C3202 1.379 . S
C3202 H3186 0.931 . S
C3202 C3196 1.383 . S
C3202 C3201 1.379 . S
H3203 C3197 0.959 . S
H3204 C3197 0.961 . S
H3205 C3197 0.960 . S
H3206 C3198 0.930 . S
H3207 C3199 0.929 . S
H3208 C3216 0.929 . S
H3209 C3218 0.930 . S
H3210 C3220 0.930 . S
H3211 C3223 0.929 . S
H3212 C3226 0.930 . S
H3213 C3228 0.960 . S
H3214 C3228 0.960 . S
H3215 C3228 0.960 . S
C3216 H3208 0.929 . S
C3216 C3217 1.377 . S
C3216 C3218 1.384 . S
C3217 C3216 1.377 . S
C3217 C3223 1.390 . S
C3218 H3209 0.930 . S
C3218 C3216 1.384 . S
C3218 C3219 1.372 . S
C3219 C3218 1.372 . S
C3219 C3220 1.400 . S
C3219 C3224 1.490 . S
C3220 H3210 0.930 . S
C3220 C3219 1.400 . S
C3220 C3223 1.386 . S
H3221 C3237 0.930 . S
H3222 C3238 0.931 . S
C3223 H3211 0.929 . S
C3223 C3217 1.390 . S
C3223 C3220 1.386 . S
C3224 C3219 1.490 . S
C3224 C3226 1.395 . S
C3224 C3227 1.403 . S
H3225 C3231 0.930 . S
C3226 H3212 0.930 . S
C3226 C3224 1.395 . S
C3226 C3229 1.403 . S
C3227 C3224 1.403 . S
C3227 C3228 1.524 . S
C3227 C3231 1.400 . S
C3228 H3213 0.960 . S
C3228 H3214 0.960 . S
C3228 H3215 0.960 . S
C3228 C3227 1.524 . S
C3229 C3226 1.403 . S
C3229 C3230 1.392 . S
C3229 C3233 1.495 . S
C3230 C3229 1.392 . S
C3230 C3231 1.385 . S
C3230 C3232 1.478 . S
C3231 H3225 0.930 . S
C3231 C3227 1.400 . S
C3231 C3230 1.385 . S
C3232 C3230 1.478 . S
C3232 C3234 1.381 . S
C3232 C3238 1.383 . S
C3233 C3229 1.495 . S
C3233 H3239 0.959 . S
C3233 H3240 0.961 . S
C3233 H3241 0.960 . S
C3234 C3232 1.381 . S
C3234 C3235 1.394 . S
C3234 H3242 0.930 . S
C3235 C3234 1.394 . S
C3235 C3236 1.383 . S
C3235 H3243 0.929 . S
C3236 C3235 1.383 . S
C3236 C3237 1.377 . S
C3237 H3221 0.930 . S
C3237 C3236 1.377 . S
C3237 C3238 1.379 . S
C3238 H3222 0.931 . S
C3238 C3232 1.383 . S
C3238 C3237 1.379 . S
H3239 C3233 0.959 . S
H3240 C3233 0.961 . S
H3241 C3233 0.960 . S
H3242 C3234 0.930 . S
H3243 C3235 0.929 . S
H3244 C3252 0.929 . S
H3245 C3254 0.930 . S
H3246 C3256 0.930 . S
H3247 C3259 0.929 . S
H3248 C3262 0.930 . S
H3249 C3264 0.960 . S
H3250 C3264 0.960 . S
H3251 C3264 0.960 . S
C3252 H3244 0.929 . S
C3252 C3253 1.377 . S
C3252 C3254 1.384 . S
C3253 C3252 1.377 . S
C3253 C3259 1.390 . S
C3254 H3245 0.930 . S
C3254 C3252 1.384 . S
C3254 C3255 1.372 . S
C3255 C3254 1.372 . S
C3255 C3256 1.400 . S
C3255 C3260 1.490 . S
C3256 H3246 0.930 . S
C3256 C3255 1.400 . S
C3256 C3259 1.386 . S
H3257 C3273 0.930 . S
H3258 C3274 0.931 . S
C3259 H3247 0.929 . S
C3259 C3253 1.390 . S
C3259 C3256 1.386 . S
C3260 C3255 1.490 . S
C3260 C3262 1.395 . S
C3260 C3263 1.403 . S
H3261 C3267 0.930 . S
C3262 H3248 0.930 . S
C3262 C3260 1.395 . S
C3262 C3265 1.403 . S
C3263 C3260 1.403 . S
C3263 C3264 1.524 . S
C3263 C3267 1.400 . S
C3264 H3249 0.960 . S
C3264 H3250 0.960 . S
C3264 H3251 0.960 . S
C3264 C3263 1.524 . S
C3265 C3262 1.403 . S
C3265 C3266 1.392 . S
C3265 C3269 1.495 . S
C3266 C3265 1.392 . S
C3266 C3267 1.385 . S
C3266 C3268 1.478 . S
C3267 H3261 0.930 . S
C3267 C3263 1.400 . S
C3267 C3266 1.385 . S
C3268 C3266 1.478 . S
C3268 C3270 1.381 . S
C3268 C3274 1.383 . S
C3269 C3265 1.495 . S
C3269 H3275 0.959 . S
C3269 H3276 0.961 . S
C3269 H3277 0.960 . S
C3270 C3268 1.381 . S
C3270 C3271 1.394 . S
C3270 H3278 0.930 . S
C3271 C3270 1.394 . S
C3271 C3272 1.383 . S
C3271 H3279 0.929 . S
C3272 C3271 1.383 . S
C3272 C3273 1.377 . S
C3273 H3257 0.930 . S
C3273 C3272 1.377 . S
C3273 C3274 1.379 . S
C3274 H3258 0.931 . S
C3274 C3268 1.383 . S
C3274 C3273 1.379 . S
H3275 C3269 0.959 . S
H3276 C3269 0.961 . S
H3277 C3269 0.960 . S
H3278 C3270 0.930 . S
H3279 C3271 0.929 . S
H3280 C3288 0.929 . S
H3281 C3290 0.930 . S
H3282 C3292 0.930 . S
H3283 C3295 0.929 . S
H3284 C3298 0.930 . S
H3285 C3300 0.960 . S
H3286 C3300 0.960 . S
H3287 C3300 0.960 . S
C3288 H3280 0.929 . S
C3288 C3289 1.377 . S
C3288 C3290 1.384 . S
C3289 C3288 1.377 . S
C3289 C3295 1.390 . S
C3290 H3281 0.930 . S
C3290 C3288 1.384 . S
C3290 C3291 1.372 . S
C3291 C3290 1.372 . S
C3291 C3292 1.400 . S
C3291 C3296 1.490 . S
C3292 H3282 0.930 . S
C3292 C3291 1.400 . S
C3292 C3295 1.386 . S
H3293 C3309 0.930 . S
H3294 C3310 0.931 . S
C3295 H3283 0.929 . S
C3295 C3289 1.390 . S
C3295 C3292 1.386 . S
C3296 C3291 1.490 . S
C3296 C3298 1.395 . S
C3296 C3299 1.403 . S
H3297 C3303 0.930 . S
C3298 H3284 0.930 . S
C3298 C3296 1.395 . S
C3298 C3301 1.403 . S
C3299 C3296 1.403 . S
C3299 C3300 1.524 . S
C3299 C3303 1.400 . S
C3300 H3285 0.960 . S
C3300 H3286 0.960 . S
C3300 H3287 0.960 . S
C3300 C3299 1.524 . S
C3301 C3298 1.403 . S
C3301 C3302 1.392 . S
C3301 C3305 1.495 . S
C3302 C3301 1.392 . S
C3302 C3303 1.385 . S
C3302 C3304 1.478 . S
C3303 H3297 0.930 . S
C3303 C3299 1.400 . S
C3303 C3302 1.385 . S
C3304 C3302 1.478 . S
C3304 C3306 1.381 . S
C3304 C3310 1.383 . S
C3305 C3301 1.495 . S
C3305 H3311 0.959 . S
C3305 H3312 0.961 . S
C3305 H3313 0.960 . S
C3306 C3304 1.381 . S
C3306 C3307 1.394 . S
C3306 H3314 0.930 . S
C3307 C3306 1.394 . S
C3307 C3308 1.383 . S
C3307 H3315 0.929 . S
C3308 C3307 1.383 . S
C3308 C3309 1.377 . S
C3309 H3293 0.930 . S
C3309 C3308 1.377 . S
C3309 C3310 1.379 . S
C3310 H3294 0.931 . S
C3310 C3304 1.383 . S
C3310 C3309 1.379 . S
H3311 C3305 0.959 . S
H3312 C3305 0.961 . S
H3313 C3305 0.960 . S
H3314 C3306 0.930 . S
H3315 C3307 0.929 . S
H3316 C3324 0.929 . S
H3317 C3326 0.930 . S
H3318 C3328 0.930 . S
H3319 C3331 0.929 . S
H3320 C3334 0.930 . S
H3321 C3336 0.960 . S
H3322 C3336 0.960 . S
H3323 C3336 0.960 . S
C3324 H3316 0.929 . S
C3324 C3325 1.377 . S
C3324 C3326 1.384 . S
C3325 C3324 1.377 . S
C3325 C3331 1.390 . S
C3326 H3317 0.930 . S
C3326 C3324 1.384 . S
C3326 C3327 1.372 . S
C3327 C3326 1.372 . S
C3327 C3328 1.400 . S
C3327 C3332 1.490 . S
C3328 H3318 0.930 . S
C3328 C3327 1.400 . S
C3328 C3331 1.386 . S
H3329 C3345 0.930 . S
H3330 C3346 0.931 . S
C3331 H3319 0.929 . S
C3331 C3325 1.390 . S
C3331 C3328 1.386 . S
C3332 C3327 1.490 . S
C3332 C3334 1.395 . S
C3332 C3335 1.403 . S
H3333 C3339 0.930 . S
C3334 H3320 0.930 . S
C3334 C3332 1.395 . S
C3334 C3337 1.403 . S
C3335 C3332 1.403 . S
C3335 C3336 1.524 . S
C3335 C3339 1.400 . S
C3336 H3321 0.960 . S
C3336 H3322 0.960 . S
C3336 H3323 0.960 . S
C3336 C3335 1.524 . S
C3337 C3334 1.403 . S
C3337 C3338 1.392 . S
C3337 C3341 1.495 . S
C3338 C3337 1.392 . S
C3338 C3339 1.385 . S
C3338 C3340 1.478 . S
C3339 H3333 0.930 . S
C3339 C3335 1.400 . S
C3339 C3338 1.385 . S
C3340 C3338 1.478 . S
C3340 C3342 1.381 . S
C3340 C3346 1.383 . S
C3341 C3337 1.495 . S
C3341 H3347 0.959 . S
C3341 H3348 0.961 . S
C3341 H3349 0.960 . S
C3342 C3340 1.381 . S
C3342 C3343 1.394 . S
C3342 H3350 0.930 . S
C3343 C3342 1.394 . S
C3343 C3344 1.383 . S
C3343 H3351 0.929 . S
C3344 C3343 1.383 . S
C3344 C3345 1.377 . S
C3345 H3329 0.930 . S
C3345 C3344 1.377 . S
C3345 C3346 1.379 . S
C3346 H3330 0.931 . S
C3346 C3340 1.383 . S
C3346 C3345 1.379 . S
H3347 C3341 0.959 . S
H3348 C3341 0.961 . S
H3349 C3341 0.960 . S
H3350 C3342 0.930 . S
H3351 C3343 0.929 . S
H3352 C3360 0.929 . S
H3353 C3362 0.930 . S
H3354 C3364 0.930 . S
H3355 C3367 0.929 . S
H3356 C3370 0.930 . S
H3357 C3372 0.960 . S
H3358 C3372 0.960 . S
H3359 C3372 0.960 . S
C3360 H3352 0.929 . S
C3360 C3361 1.377 . S
C3360 C3362 1.384 . S
C3361 C3360 1.377 . S
C3361 C3367 1.390 . S
C3362 H3353 0.930 . S
C3362 C3360 1.384 . S
C3362 C3363 1.372 . S
C3363 C3362 1.372 . S
C3363 C3364 1.400 . S
C3363 C3368 1.490 . S
C3364 H3354 0.930 . S
C3364 C3363 1.400 . S
C3364 C3367 1.386 . S
H3365 C3381 0.930 . S
H3366 C3382 0.931 . S
C3367 H3355 0.929 . S
C3367 C3361 1.390 . S
C3367 C3364 1.386 . S
C3368 C3363 1.490 . S
C3368 C3370 1.395 . S
C3368 C3371 1.403 . S
H3369 C3375 0.930 . S
C3370 H3356 0.930 . S
C3370 C3368 1.395 . S
C3370 C3373 1.403 . S
C3371 C3368 1.403 . S
C3371 C3372 1.524 . S
C3371 C3375 1.400 . S
C3372 H3357 0.960 . S
C3372 H3358 0.960 . S
C3372 H3359 0.960 . S
C3372 C3371 1.524 . S
C3373 C3370 1.403 . S
C3373 C3374 1.392 . S
C3373 C3377 1.495 . S
C3374 C3373 1.392 . S
C3374 C3375 1.385 . S
C3374 C3376 1.478 . S
C3375 H3369 0.930 . S
C3375 C3371 1.400 . S
C3375 C3374 1.385 . S
C3376 C3374 1.478 . S
C3376 C3378 1.381 . S
C3376 C3382 1.383 . S
C3377 C3373 1.495 . S
C3377 H3383 0.959 . S
C3377 H3384 0.961 . S
C3377 H3385 0.960 . S
C3378 C3376 1.381 . S
C3378 C3379 1.394 . S
C3378 H3386 0.930 . S
C3379 C3378 1.394 . S
C3379 C3380 1.383 . S
C3379 H3387 0.929 . S
C3380 C3379 1.383 . S
C3380 C3381 1.377 . S
C3381 H3365 0.930 . S
C3381 C3380 1.377 . S
C3381 C3382 1.379 . S
C3382 H3366 0.931 . S
C3382 C3376 1.383 . S
C3382 C3381 1.379 . S
H3383 C3377 0.959 . S
H3384 C3377 0.961 . S
H3385 C3377 0.960 . S
H3386 C3378 0.930 . S
H3387 C3379 0.929 . S
H3388 C3396 0.929 . S
H3389 C3398 0.930 . S
H3390 C3400 0.930 . S
H3391 C3403 0.929 . S
H3392 C3406 0.930 . S
H3393 C3408 0.960 . S
H3394 C3408 0.960 . S
H3395 C3408 0.960 . S
C3396 H3388 0.929 . S
C3396 C3397 1.377 . S
C3396 C3398 1.384 . S
C3397 C3396 1.377 . S
C3397 C3403 1.390 . S
C3398 H3389 0.930 . S
C3398 C3396 1.384 . S
C3398 C3399 1.372 . S
C3399 C3398 1.372 . S
C3399 C3400 1.400 . S
C3399 C3404 1.490 . S
C3400 H3390 0.930 . S
C3400 C3399 1.400 . S
C3400 C3403 1.386 . S
H3401 C3417 0.930 . S
H3402 C3418 0.931 . S
C3403 H3391 0.929 . S
C3403 C3397 1.390 . S
C3403 C3400 1.386 . S
C3404 C3399 1.490 . S
C3404 C3406 1.395 . S
C3404 C3407 1.403 . S
H3405 C3411 0.930 . S
C3406 H3392 0.930 . S
C3406 C3404 1.395 . S
C3406 C3409 1.403 . S
C3407 C3404 1.403 . S
C3407 C3408 1.524 . S
C3407 C3411 1.400 . S
C3408 H3393 0.960 . S
C3408 H3394 0.960 . S
C3408 H3395 0.960 . S
C3408 C3407 1.524 . S
C3409 C3406 1.403 . S
C3409 C3410 1.392 . S
C3409 C3413 1.495 . S
C3410 C3409 1.392 . S
C3410 C3411 1.385 . S
C3410 C3412 1.478 . S
C3411 H3405 0.930 . S
C3411 C3407 1.400 . S
C3411 C3410 1.385 . S
C3412 C3410 1.478 . S
C3412 C3414 1.381 . S
C3412 C3418 1.383 1_565 S
C3413 C3409 1.495 . S
C3413 H3419 0.959 . S
C3413 H3420 0.961 1_565 S
C3413 H3421 0.960 . S
C3414 C3412 1.381 . S
C3414 C3415 1.394 1_565 S
C3414 H3422 0.930 . S
C3415 C3414 1.394 1_545 S
C3415 C3416 1.383 . S
C3415 H3423 0.929 . S
C3416 C3415 1.383 . S
C3416 C3417 1.377 . S
C3417 H3401 0.930 . S
C3417 C3416 1.377 . S
C3417 C3418 1.379 . S
C3418 H3402 0.931 . S
C3418 C3412 1.383 1_545 S
C3418 C3417 1.379 . S
H3419 C3413 0.959 . S
H3420 C3413 0.961 1_545 S
H3421 C3413 0.960 . S
H3422 C3414 0.930 . S
H3423 C3415 0.929 . S
H3424 C3432 0.929 . S
H3425 C3434 0.930 . S
H3426 C3436 0.930 . S
H3427 C3439 0.929 . S
H3428 C3442 0.930 . S
H3429 C3444 0.960 . S
H3430 C3444 0.960 . S
H3431 C3444 0.960 . S
C3432 H3424 0.929 . S
C3432 C3433 1.377 . S
C3432 C3434 1.384 . S
C3433 C3432 1.377 . S
C3433 C3439 1.390 . S
C3434 H3425 0.930 . S
C3434 C3432 1.384 . S
C3434 C3435 1.372 . S
C3435 C3434 1.372 . S
C3435 C3436 1.400 . S
C3435 C3440 1.490 . S
C3436 H3426 0.930 . S
C3436 C3435 1.400 . S
C3436 C3439 1.386 . S
H3437 C3453 0.930 . S
H3438 C3454 0.931 . S
C3439 H3427 0.929 . S
C3439 C3433 1.390 . S
C3439 C3436 1.386 . S
C3440 C3435 1.490 . S
C3440 C3442 1.395 . S
C3440 C3443 1.403 . S
H3441 C3447 0.930 . S
C3442 H3428 0.930 . S
C3442 C3440 1.395 . S
C3442 C3445 1.403 . S
C3443 C3440 1.403 . S
C3443 C3444 1.524 . S
C3443 C3447 1.400 . S
C3444 H3429 0.960 . S
C3444 H3430 0.960 . S
C3444 H3431 0.960 . S
C3444 C3443 1.524 . S
C3445 C3442 1.403 . S
C3445 C3446 1.392 . S
C3445 C3449 1.495 . S
C3446 C3445 1.392 . S
C3446 C3447 1.385 . S
C3446 C3448 1.478 . S
C3447 H3441 0.930 . S
C3447 C3443 1.400 . S
C3447 C3446 1.385 . S
C3448 C3446 1.478 . S
C3448 C3450 1.381 . S
C3448 C3454 1.383 . S
C3449 C3445 1.495 . S
C3449 H3455 0.959 . S
C3449 H3456 0.961 . S
C3449 H3457 0.960 . S
C3450 C3448 1.381 . S
C3450 C3451 1.394 . S
C3450 H3458 0.930 . S
C3451 C3450 1.394 . S
C3451 C3452 1.383 . S
C3451 H3459 0.929 . S
C3452 C3451 1.383 . S
C3452 C3453 1.377 . S
C3453 H3437 0.930 . S
C3453 C3452 1.377 . S
C3453 C3454 1.379 . S
C3454 H3438 0.931 . S
C3454 C3448 1.383 . S
C3454 C3453 1.379 . S
H3455 C3449 0.959 . S
H3456 C3449 0.961 . S
H3457 C3449 0.960 . S
H3458 C3450 0.930 . S
H3459 C3451 0.929 . S
H3460 C3468 0.929 . S
H3461 C3470 0.930 . S
H3462 C3472 0.930 . S
H3463 C3475 0.929 . S
H3464 C3478 0.930 . S
H3465 C3480 0.960 . S
H3466 C3480 0.960 . S
H3467 C3480 0.960 . S
C3468 H3460 0.929 . S
C3468 C3469 1.377 . S
C3468 C3470 1.384 . S
C3469 C3468 1.377 . S
C3469 C3475 1.390 1_554 S
C3470 H3461 0.930 . S
C3470 C3468 1.384 . S
C3470 C3471 1.372 . S
C3471 C3470 1.372 . S
C3471 C3472 1.400 . S
C3471 C3476 1.490 . S
C3472 H3462 0.930 . S
C3472 C3471 1.400 . S
C3472 C3475 1.386 1_554 S
H3473 C3489 0.930 . S
H3474 C3490 0.931 . S
C3475 H3463 0.929 . S
C3475 C3469 1.390 1_556 S
C3475 C3472 1.386 1_556 S
C3476 C3471 1.490 . S
C3476 C3478 1.395 . S
C3476 C3479 1.403 . S
H3477 C3483 0.930 . S
C3478 H3464 0.930 . S
C3478 C3476 1.395 . S
C3478 C3481 1.403 . S
C3479 C3476 1.403 . S
C3479 C3480 1.524 1_554 S
C3479 C3483 1.400 . S
C3480 H3465 0.960 . S
C3480 H3466 0.960 . S
C3480 H3467 0.960 . S
C3480 C3479 1.524 1_556 S
C3481 C3478 1.403 . S
C3481 C3482 1.392 . S
C3481 C3485 1.495 . S
C3482 C3481 1.392 . S
C3482 C3483 1.385 . S
C3482 C3484 1.478 . S
C3483 H3477 0.930 . S
C3483 C3479 1.400 . S
C3483 C3482 1.385 . S
C3484 C3482 1.478 . S
C3484 C3486 1.381 . S
C3484 C3490 1.383 . S
C3485 C3481 1.495 . S
C3485 H3491 0.959 . S
C3485 H3492 0.961 . S
C3485 H3493 0.960 . S
C3486 C3484 1.381 . S
C3486 C3487 1.394 . S
C3486 H3494 0.930 . S
C3487 C3486 1.394 . S
C3487 C3488 1.383 . S
C3487 H3495 0.929 . S
C3488 C3487 1.383 . S
C3488 C3489 1.377 . S
C3489 H3473 0.930 . S
C3489 C3488 1.377 . S
C3489 C3490 1.379 . S
C3490 H3474 0.931 . S
C3490 C3484 1.383 . S
C3490 C3489 1.379 . S
H3491 C3485 0.959 . S
H3492 C3485 0.961 . S
H3493 C3485 0.960 . S
H3494 C3486 0.930 . S
H3495 C3487 0.929 . S
H3496 C3504 0.929 . S
H3497 C3506 0.930 . S
H3498 C3508 0.930 . S
H3499 C3511 0.929 . S
H3500 C3514 0.930 . S
H3501 C3516 0.960 . S
H3502 C3516 0.960 . S
H3503 C3516 0.960 . S
C3504 H3496 0.929 . S
C3504 C3505 1.377 . S
C3504 C3506 1.384 . S
C3505 C3504 1.377 . S
C3505 C3511 1.390 . S
C3506 H3497 0.930 . S
C3506 C3504 1.384 . S
C3506 C3507 1.372 . S
C3507 C3506 1.372 . S
C3507 C3508 1.400 . S
C3507 C3512 1.490 . S
C3508 H3498 0.930 . S
C3508 C3507 1.400 . S
C3508 C3511 1.386 . S
H3509 C3525 0.930 . S
H3510 C3526 0.931 . S
C3511 H3499 0.929 . S
C3511 C3505 1.390 . S
C3511 C3508 1.386 . S
C3512 C3507 1.490 . S
C3512 C3514 1.395 . S
C3512 C3515 1.403 . S
H3513 C3519 0.930 . S
C3514 H3500 0.930 . S
C3514 C3512 1.395 . S
C3514 C3517 1.403 . S
C3515 C3512 1.403 . S
C3515 C3516 1.524 . S
C3515 C3519 1.400 . S
C3516 H3501 0.960 . S
C3516 H3502 0.960 . S
C3516 H3503 0.960 . S
C3516 C3515 1.524 . S
C3517 C3514 1.403 . S
C3517 C3518 1.392 . S
C3517 C3521 1.495 . S
C3518 C3517 1.392 . S
C3518 C3519 1.385 . S
C3518 C3520 1.478 . S
C3519 H3513 0.930 . S
C3519 C3515 1.400 . S
C3519 C3518 1.385 . S
C3520 C3518 1.478 . S
C3520 C3522 1.381 . S
C3520 C3526 1.383 . S
C3521 C3517 1.495 . S
C3521 H3527 0.959 . S
C3521 H3528 0.961 . S
C3521 H3529 0.960 . S
C3522 C3520 1.381 . S
C3522 C3523 1.394 . S
C3522 H3530 0.930 . S
C3523 C3522 1.394 . S
C3523 C3524 1.383 . S
C3523 H3531 0.929 . S
C3524 C3523 1.383 . S
C3524 C3525 1.377 . S
C3525 H3509 0.930 . S
C3525 C3524 1.377 . S
C3525 C3526 1.379 . S
C3526 H3510 0.931 . S
C3526 C3520 1.383 . S
C3526 C3525 1.379 . S
H3527 C3521 0.959 . S
H3528 C3521 0.961 . S
H3529 C3521 0.960 . S
H3530 C3522 0.930 . S
H3531 C3523 0.929 . S
H3532 C3540 0.929 . S
H3533 C3542 0.930 . S
H3534 C3544 0.930 . S
H3535 C3547 0.929 . S
H3536 C3550 0.930 . S
H3537 C3552 0.960 . S
H3538 C3552 0.960 . S
H3539 C3552 0.960 . S
C3540 H3532 0.929 . S
C3540 C3541 1.377 . S
C3540 C3542 1.384 . S
C3541 C3540 1.377 . S
C3541 C3547 1.390 . S
C3542 H3533 0.930 . S
C3542 C3540 1.384 . S
C3542 C3543 1.372 . S
C3543 C3542 1.372 . S
C3543 C3544 1.400 . S
C3543 C3548 1.490 . S
C3544 H3534 0.930 . S
C3544 C3543 1.400 . S
C3544 C3547 1.386 . S
H3545 C3561 0.930 . S
H3546 C3562 0.931 . S
C3547 H3535 0.929 . S
C3547 C3541 1.390 . S
C3547 C3544 1.386 . S
C3548 C3543 1.490 . S
C3548 C3550 1.395 . S
C3548 C3551 1.403 . S
H3549 C3555 0.930 . S
C3550 H3536 0.930 . S
C3550 C3548 1.395 . S
C3550 C3553 1.403 1_545 S
C3551 C3548 1.403 . S
C3551 C3552 1.524 . S
C3551 C3555 1.400 1_545 S
C3552 H3537 0.960 . S
C3552 H3538 0.960 . S
C3552 H3539 0.960 . S
C3552 C3551 1.524 . S
C3553 C3550 1.403 1_565 S
C3553 C3554 1.392 . S
C3553 C3557 1.495 . S
C3554 C3553 1.392 . S
C3554 C3555 1.385 . S
C3554 C3556 1.478 . S
C3555 H3549 0.930 . S
C3555 C3551 1.400 1_565 S
C3555 C3554 1.385 . S
C3556 C3554 1.478 . S
C3556 C3558 1.381 . S
C3556 C3562 1.383 . S
C3557 C3553 1.495 . S
C3557 H3563 0.959 . S
C3557 H3564 0.961 . S
C3557 H3565 0.960 . S
C3558 C3556 1.381 . S
C3558 C3559 1.394 . S
C3558 H3566 0.930 . S
C3559 C3558 1.394 . S
C3559 C3560 1.383 . S
C3559 H3567 0.929 . S
C3560 C3559 1.383 . S
C3560 C3561 1.377 . S
C3561 H3545 0.930 . S
C3561 C3560 1.377 . S
C3561 C3562 1.379 . S
C3562 H3546 0.931 . S
C3562 C3556 1.383 . S
C3562 C3561 1.379 . S
H3563 C3557 0.959 . S
H3564 C3557 0.961 . S
H3565 C3557 0.960 . S
H3566 C3558 0.930 . S
H3567 C3559 0.929 . S
H3568 C3576 0.929 . S
H3569 C3578 0.930 . S
H3570 C3580 0.930 . S
H3571 C3583 0.929 . S
H3572 C3586 0.930 . S
H3573 C3588 0.960 . S
H3574 C3588 0.960 . S
H3575 C3588 0.960 . S
C3576 H3568 0.929 . S
C3576 C3577 1.377 . S
C3576 C3578 1.384 . S
C3577 C3576 1.377 . S
C3577 C3583 1.390 . S
C3578 H3569 0.930 . S
C3578 C3576 1.384 . S
C3578 C3579 1.372 . S
C3579 C3578 1.372 . S
C3579 C3580 1.400 . S
C3579 C3584 1.490 . S
C3580 H3570 0.930 . S
C3580 C3579 1.400 . S
C3580 C3583 1.386 . S
H3581 C3597 0.930 . S
H3582 C3598 0.931 . S
C3583 H3571 0.929 . S
C3583 C3577 1.390 . S
C3583 C3580 1.386 . S
C3584 C3579 1.490 . S
C3584 C3586 1.395 . S
C3584 C3587 1.403 . S
H3585 C3591 0.930 . S
C3586 H3572 0.930 . S
C3586 C3584 1.395 . S
C3586 C3589 1.403 . S
C3587 C3584 1.403 . S
C3587 C3588 1.524 . S
C3587 C3591 1.400 . S
C3588 H3573 0.960 . S
C3588 H3574 0.960 . S
C3588 H3575 0.960 . S
C3588 C3587 1.524 . S
C3589 C3586 1.403 . S
C3589 C3590 1.392 . S
C3589 C3593 1.495 . S
C3590 C3589 1.392 . S
C3590 C3591 1.385 . S
C3590 C3592 1.478 . S
C3591 H3585 0.930 . S
C3591 C3587 1.400 . S
C3591 C3590 1.385 . S
C3592 C3590 1.478 . S
C3592 C3594 1.381 . S
C3592 C3598 1.383 . S
C3593 C3589 1.495 . S
C3593 H3599 0.959 . S
C3593 H3600 0.961 . S
C3593 H3601 0.960 . S
C3594 C3592 1.381 . S
C3594 C3595 1.394 . S
C3594 H3602 0.930 . S
C3595 C3594 1.394 . S
C3595 C3596 1.383 . S
C3595 H3603 0.929 . S
C3596 C3595 1.383 . S
C3596 C3597 1.377 . S
C3597 H3581 0.930 . S
C3597 C3596 1.377 . S
C3597 C3598 1.379 . S
C3598 H3582 0.931 . S
C3598 C3592 1.383 . S
C3598 C3597 1.379 . S
H3599 C3593 0.959 . S
H3600 C3593 0.961 . S
H3601 C3593 0.960 . S
H3602 C3594 0.930 . S
H3603 C3595 0.929 . S
H3604 C3612 0.929 . S
H3605 C3614 0.930 . S
H3606 C3616 0.930 . S
H3607 C3619 0.929 . S
H3608 C3622 0.930 . S
H3609 C3624 0.960 . S
H3610 C3624 0.960 . S
H3611 C3624 0.960 . S
C3612 H3604 0.929 . S
C3612 C3613 1.377 . S
C3612 C3614 1.384 . S
C3613 C3612 1.377 . S
C3613 C3619 1.390 . S
C3614 H3605 0.930 . S
C3614 C3612 1.384 . S
C3614 C3615 1.372 . S
C3615 C3614 1.372 . S
C3615 C3616 1.400 . S
C3615 C3620 1.490 . S
C3616 H3606 0.930 . S
C3616 C3615 1.400 . S
C3616 C3619 1.386 . S
H3617 C3633 0.930 . S
H3618 C3634 0.931 . S
C3619 H3607 0.929 . S
C3619 C3613 1.390 . S
C3619 C3616 1.386 . S
C3620 C3615 1.490 . S
C3620 C3622 1.395 . S
C3620 C3623 1.403 . S
H3621 C3627 0.930 . S
C3622 H3608 0.930 . S
C3622 C3620 1.395 . S
C3622 C3625 1.403 . S
C3623 C3620 1.403 . S
C3623 C3624 1.524 . S
C3623 C3627 1.400 . S
C3624 H3609 0.960 . S
C3624 H3610 0.960 . S
C3624 H3611 0.960 . S
C3624 C3623 1.524 . S
C3625 C3622 1.403 . S
C3625 C3626 1.392 . S
C3625 C3629 1.495 . S
C3626 C3625 1.392 . S
C3626 C3627 1.385 . S
C3626 C3628 1.478 . S
C3627 H3621 0.930 . S
C3627 C3623 1.400 . S
C3627 C3626 1.385 . S
C3628 C3626 1.478 . S
C3628 C3630 1.381 . S
C3628 C3634 1.383 . S
C3629 C3625 1.495 . S
C3629 H3635 0.959 . S
C3629 H3636 0.961 . S
C3629 H3637 0.960 . S
C3630 C3628 1.381 . S
C3630 C3631 1.394 . S
C3630 H3638 0.930 . S
C3631 C3630 1.394 . S
C3631 C3632 1.383 . S
C3631 H3639 0.929 . S
C3632 C3631 1.383 . S
C3632 C3633 1.377 . S
C3633 H3617 0.930 . S
C3633 C3632 1.377 . S
C3633 C3634 1.379 . S
C3634 H3618 0.931 . S
C3634 C3628 1.383 . S
C3634 C3633 1.379 . S
H3635 C3629 0.959 . S
H3636 C3629 0.961 . S
H3637 C3629 0.960 . S
H3638 C3630 0.930 . S
H3639 C3631 0.929 . S
H3640 C3648 0.929 . S
H3641 C3650 0.930 . S
H3642 C3652 0.930 . S
H3643 C3655 0.929 . S
H3644 C3658 0.930 . S
H3645 C3660 0.960 . S
H3646 C3660 0.960 . S
H3647 C3660 0.960 . S
C3648 H3640 0.929 . S
C3648 C3649 1.377 1_655 S
C3648 C3650 1.384 . S
C3649 C3648 1.377 1_455 S
C3649 C3655 1.390 . S
C3650 H3641 0.930 . S
C3650 C3648 1.384 . S
C3650 C3651 1.372 1_655 S
C3651 C3650 1.372 1_455 S
C3651 C3652 1.400 . S
C3651 C3656 1.490 . S
C3652 H3642 0.930 . S
C3652 C3651 1.400 . S
C3652 C3655 1.386 . S
H3653 C3669 0.930 . S
H3654 C3670 0.931 . S
C3655 H3643 0.929 . S
C3655 C3649 1.390 . S
C3655 C3652 1.386 . S
C3656 C3651 1.490 . S
C3656 C3658 1.395 1_455 S
C3656 C3659 1.403 . S
H3657 C3663 0.930 . S
C3658 H3644 0.930 . S
C3658 C3656 1.395 1_655 S
C3658 C3661 1.403 . S
C3659 C3656 1.403 . S
C3659 C3660 1.524 . S
C3659 C3663 1.400 . S
C3660 H3645 0.960 . S
C3660 H3646 0.960 . S
C3660 H3647 0.960 . S
C3660 C3659 1.524 . S
C3661 C3658 1.403 . S
C3661 C3662 1.392 1_655 S
C3661 C3665 1.495 . S
C3662 C3661 1.392 1_455 S
C3662 C3663 1.385 . S
C3662 C3664 1.478 . S
C3663 H3657 0.930 . S
C3663 C3659 1.400 . S
C3663 C3662 1.385 . S
C3664 C3662 1.478 . S
C3664 C3666 1.381 1_455 S
C3664 C3670 1.383 . S
C3665 C3661 1.495 . S
C3665 H3671 0.959 . S
C3665 H3672 0.961 . S
C3665 H3673 0.960 . S
C3666 C3664 1.381 1_655 S
C3666 C3667 1.417 . S
C3666 H3674 0.930 . S
C3667 C3666 1.417 . S
C3667 C3668 1.328 1_655 S
C3667 H3675 0.964 . S
C3668 C3667 1.328 1_455 S
C3668 C3669 1.377 . S
C3669 H3653 0.930 . S
C3669 C3668 1.377 . S
C3669 C3670 1.379 . S
C3670 H3654 0.931 . S
C3670 C3664 1.383 . S
C3670 C3669 1.379 . S
H3671 C3665 0.959 . S
H3672 C3665 0.961 . S
H3673 C3665 0.960 . S
H3674 C3666 0.930 . S
H3675 C3667 0.964 . S
H3676 C3684 0.929 . S
H3677 C3686 0.930 . S
H3678 C3688 0.930 . S
H3679 C3691 0.929 . S
H3680 C3694 0.930 . S
H3681 C3696 0.960 . S
H3682 C3696 0.960 . S
H3683 C3696 0.960 . S
C3684 H3676 0.929 . S
C3684 C3685 1.377 . S
C3684 C3686 1.384 . S
C3685 C3684 1.377 . S
C3685 C3691 1.390 . S
C3686 H3677 0.930 . S
C3686 C3684 1.384 . S
C3686 C3687 1.372 . S
C3687 C3686 1.372 . S
C3687 C3688 1.400 . S
C3687 C3692 1.490 . S
C3688 H3678 0.930 . S
C3688 C3687 1.400 . S
C3688 C3691 1.386 . S
H3689 C3705 0.930 . S
H3690 C3706 0.931 . S
C3691 H3679 0.929 . S
C3691 C3685 1.390 . S
C3691 C3688 1.386 . S
C3692 C3687 1.490 . S
C3692 C3694 1.395 . S
C3692 C3695 1.403 . S
H3693 C3699 0.930 . S
C3694 H3680 0.930 . S
C3694 C3692 1.395 . S
C3694 C3697 1.403 . S
C3695 C3692 1.403 . S
C3695 C3696 1.524 . S
C3695 C3699 1.400 . S
C3696 H3681 0.960 . S
C3696 H3682 0.960 . S
C3696 H3683 0.960 . S
C3696 C3695 1.524 . S
C3697 C3694 1.403 . S
C3697 C3698 1.392 . S
C3697 C3701 1.495 . S
C3698 C3697 1.392 . S
C3698 C3699 1.385 . S
C3698 C3700 1.478 . S
C3699 H3693 0.930 . S
C3699 C3695 1.400 . S
C3699 C3698 1.385 . S
C3700 C3698 1.478 . S
C3700 C3702 1.381 . S
C3700 C3706 1.383 . S
C3701 C3697 1.495 . S
C3701 H3707 0.959 . S
C3701 H3708 0.961 . S
C3701 H3709 0.960 . S
C3702 C3700 1.381 . S
C3702 C3703 1.394 . S
C3702 H3710 0.930 . S
C3703 C3702 1.394 . S
C3703 C3704 1.383 . S
C3703 H3711 0.929 . S
C3704 C3703 1.383 . S
C3704 C3705 1.377 . S
C3705 H3689 0.930 . S
C3705 C3704 1.377 . S
C3705 C3706 1.379 . S
C3706 H3690 0.931 . S
C3706 C3700 1.383 . S
C3706 C3705 1.379 . S
H3707 C3701 0.959 . S
H3708 C3701 0.961 . S
H3709 C3701 0.960 . S
H3710 C3702 0.930 . S
H3711 C3703 0.929 . S
H3712 C3720 0.929 . S
H3713 C3722 0.930 . S
H3714 C3724 0.930 . S
H3715 C3727 0.929 . S
H3716 C3730 0.926 . S
H3717 C3732 0.960 . S
H3718 C3732 0.960 . S
H3719 C3732 0.960 1_554 S
C3720 H3712 0.929 . S
C3720 C3721 1.377 . S
C3720 C3722 1.384 . S
C3721 C3720 1.377 . S
C3721 C3727 1.390 1_556 S
C3722 H3713 0.930 . S
C3722 C3720 1.384 . S
C3722 C3723 1.372 . S
C3723 C3722 1.372 . S
C3723 C3724 1.400 1_556 S
C3723 C3728 1.490 . S
C3724 H3714 0.930 . S
C3724 C3723 1.400 1_554 S
C3724 C3727 1.386 . S
H3725 C3741 0.930 . S
H3726 C3742 0.931 . S
C3727 H3715 0.929 . S
C3727 C3721 1.390 1_554 S
C3727 C3724 1.386 . S
C3728 C3723 1.490 . S
C3728 C3730 1.390 1_556 S
C3728 C3731 1.403 . S
H3729 C3735 0.930 . S
C3730 H3716 0.926 . S
C3730 C3728 1.390 1_554 S
C3730 C3733 1.424 . S
C3731 C3728 1.403 . S
C3731 C3732 1.524 . S
C3731 C3735 1.400 1_556 S
C3732 H3717 0.960 . S
C3732 H3718 0.960 . S
C3732 H3719 0.960 1_556 S
C3732 C3731 1.524 . S
C3733 C3730 1.424 . S
C3733 C3734 1.392 . S
C3733 C3737 1.495 . S
C3734 C3733 1.392 . S
C3734 C3735 1.385 . S
C3734 C3736 1.478 . S
C3735 H3729 0.930 . S
C3735 C3731 1.400 1_554 S
C3735 C3734 1.385 . S
C3736 C3734 1.478 . S
C3736 C3738 1.381 1_554 S
C3736 C3742 1.383 . S
C3737 C3733 1.495 . S
C3737 H3743 0.959 . S
C3737 H3744 0.961 . S
C3737 H3745 0.960 1_554 S
C3738 C3736 1.381 1_556 S
C3738 C3739 1.394 . S
C3738 H3746 0.930 . S
C3739 C3738 1.394 . S
C3739 C3740 1.383 1_556 S
C3739 H3747 0.929 . S
C3740 C3739 1.383 1_554 S
C3740 C3741 1.377 . S
C3741 H3725 0.930 . S
C3741 C3740 1.377 . S
C3741 C3742 1.379 . S
C3742 H3726 0.931 . S
C3742 C3736 1.383 . S
C3742 C3741 1.379 . S
H3743 C3737 0.959 . S
H3744 C3737 0.961 . S
H3745 C3737 0.960 1_556 S
H3746 C3738 0.930 . S
H3747 C3739 0.929 . S
H3748 C3756 0.929 . S
H3749 C3758 0.930 . S
H3750 C3760 0.930 . S
H3751 C3763 0.929 . S
H3752 C3766 0.930 . S
H3753 C3768 0.960 . S
H3754 C3768 0.960 . S
H3755 C3768 0.960 . S
C3756 H3748 0.929 . S
C3756 C3757 1.377 . S
C3756 C3758 1.384 . S
C3757 C3756 1.377 . S
C3757 C3763 1.390 . S
C3758 H3749 0.930 . S
C3758 C3756 1.384 . S
C3758 C3759 1.372 . S
C3759 C3758 1.372 . S
C3759 C3760 1.400 . S
C3759 C3764 1.490 . S
C3760 H3750 0.930 . S
C3760 C3759 1.400 . S
C3760 C3763 1.386 . S
H3761 C3777 0.930 . S
H3762 C3778 0.931 . S
C3763 H3751 0.929 . S
C3763 C3757 1.390 . S
C3763 C3760 1.386 . S
C3764 C3759 1.490 . S
C3764 C3766 1.395 . S
C3764 C3767 1.403 . S
H3765 C3771 0.930 . S
C3766 H3752 0.930 . S
C3766 C3764 1.395 . S
C3766 C3769 1.403 . S
C3767 C3764 1.403 . S
C3767 C3768 1.524 . S
C3767 C3771 1.400 . S
C3768 H3753 0.960 . S
C3768 H3754 0.960 . S
C3768 H3755 0.960 . S
C3768 C3767 1.524 . S
C3769 C3766 1.403 . S
C3769 C3770 1.392 . S
C3769 C3773 1.495 . S
C3770 C3769 1.392 . S
C3770 C3771 1.385 . S
C3770 C3772 1.478 . S
C3771 H3765 0.930 . S
C3771 C3767 1.400 . S
C3771 C3770 1.385 . S
C3772 C3770 1.478 . S
C3772 C3774 1.381 . S
C3772 C3778 1.383 . S
C3773 C3769 1.495 . S
C3773 H3779 0.959 . S
C3773 H3780 0.961 . S
C3773 H3781 0.960 . S
C3774 C3772 1.381 . S
C3774 C3775 1.394 . S
C3774 H3782 0.930 . S
C3775 C3774 1.394 . S
C3775 C3776 1.383 . S
C3775 H3783 0.929 . S
C3776 C3775 1.383 . S
C3776 C3777 1.377 . S
C3777 H3761 0.930 . S
C3777 C3776 1.377 . S
C3777 C3778 1.379 . S
C3778 H3762 0.931 . S
C3778 C3772 1.383 . S
C3778 C3777 1.379 . S
H3779 C3773 0.959 . S
H3780 C3773 0.961 . S
H3781 C3773 0.960 . S
H3782 C3774 0.930 . S
H3783 C3775 0.929 . S
H3784 C3792 0.929 . S
H3785 C3794 0.930 . S
H3786 C3796 0.930 . S
H3787 C3799 0.929 . S
H3788 C3802 0.930 . S
H3789 C3804 0.960 . S
H3790 C3804 0.960 . S
H3791 C3804 0.960 . S
C3792 H3784 0.929 . S
C3792 C3793 1.377 . S
C3792 C3794 1.384 . S
C3793 C3792 1.377 . S
C3793 C3799 1.390 . S
C3794 H3785 0.930 . S
C3794 C3792 1.384 . S
C3794 C3795 1.372 . S
C3795 C3794 1.372 . S
C3795 C3796 1.400 . S
C3795 C3800 1.490 . S
C3796 H3786 0.930 . S
C3796 C3795 1.400 . S
C3796 C3799 1.386 . S
H3797 C3813 0.930 . S
H3798 C3814 0.931 . S
C3799 H3787 0.929 . S
C3799 C3793 1.390 . S
C3799 C3796 1.386 . S
C3800 C3795 1.490 . S
C3800 C3802 1.395 . S
C3800 C3803 1.403 . S
H3801 C3807 0.930 . S
C3802 H3788 0.930 . S
C3802 C3800 1.395 . S
C3802 C3805 1.403 . S
C3803 C3800 1.403 . S
C3803 C3804 1.524 . S
C3803 C3807 1.400 . S
C3804 H3789 0.960 . S
C3804 H3790 0.960 . S
C3804 H3791 0.960 . S
C3804 C3803 1.524 . S
C3805 C3802 1.403 . S
C3805 C3806 1.392 . S
C3805 C3809 1.495 1_455 S
C3806 C3805 1.392 . S
C3806 C3807 1.385 . S
C3806 C3808 1.478 . S
C3807 H3801 0.930 . S
C3807 C3803 1.400 . S
C3807 C3806 1.385 . S
C3808 C3806 1.478 . S
C3808 C3810 1.381 . S
C3808 C3814 1.383 . S
C3809 C3805 1.495 1_655 S
C3809 H3815 0.959 . S
C3809 H3816 0.961 . S
C3809 H3817 0.960 . S
C3810 C3808 1.381 . S
C3810 C3811 1.394 . S
C3810 H3818 0.930 . S
C3811 C3810 1.394 . S
C3811 C3812 1.383 . S
C3811 H3819 0.929 . S
C3812 C3811 1.383 . S
C3812 C3813 1.377 . S
C3813 H3797 0.930 . S
C3813 C3812 1.377 . S
C3813 C3814 1.379 . S
C3814 H3798 0.931 . S
C3814 C3808 1.383 . S
C3814 C3813 1.379 . S
H3815 C3809 0.959 . S
H3816 C3809 0.961 . S
H3817 C3809 0.960 . S
H3818 C3810 0.930 . S
H3819 C3811 0.929 . S
H3820 C3828 0.929 . S
H3821 C3830 0.930 . S
H3822 C3832 0.930 . S
H3823 C3835 0.929 . S
H3824 C3838 0.930 . S
H3825 C3840 0.960 . S
H3826 C3840 0.960 . S
H3827 C3840 0.960 . S
C3828 H3820 0.929 . S
C3828 C3829 1.377 . S
C3828 C3830 1.384 . S
C3829 C3828 1.377 . S
C3829 C3835 1.390 . S
C3830 H3821 0.930 . S
C3830 C3828 1.384 . S
C3830 C3831 1.372 . S
C3831 C3830 1.372 . S
C3831 C3832 1.400 . S
C3831 C3836 1.490 . S
C3832 H3822 0.930 . S
C3832 C3831 1.400 . S
C3832 C3835 1.386 . S
H3833 C3849 0.930 . S
H3834 C3850 0.931 . S
C3835 H3823 0.929 . S
C3835 C3829 1.390 . S
C3835 C3832 1.386 . S
C3836 C3831 1.490 . S
C3836 C3838 1.395 . S
C3836 C3839 1.403 . S
H3837 C3843 0.930 . S
C3838 H3824 0.930 . S
C3838 C3836 1.395 . S
C3838 C3841 1.403 . S
C3839 C3836 1.403 . S
C3839 C3840 1.524 . S
C3839 C3843 1.400 . S
C3840 H3825 0.960 . S
C3840 H3826 0.960 . S
C3840 H3827 0.960 . S
C3840 C3839 1.524 . S
C3841 C3838 1.403 . S
C3841 C3842 1.392 . S
C3841 C3845 1.495 . S
C3842 C3841 1.392 . S
C3842 C3843 1.385 . S
C3842 C3844 1.478 . S
C3843 H3837 0.930 . S
C3843 C3839 1.400 . S
C3843 C3842 1.385 . S
C3844 C3842 1.478 . S
C3844 C3846 1.381 . S
C3844 C3850 1.383 . S
C3845 C3841 1.495 . S
C3845 H3851 0.959 . S
C3845 H3852 0.961 . S
C3845 H3853 0.960 . S
C3846 C3844 1.381 . S
C3846 C3847 1.394 . S
C3846 H3854 0.930 . S
C3847 C3846 1.394 . S
C3847 C3848 1.383 . S
C3847 H3855 0.929 . S
C3848 C3847 1.383 . S
C3848 C3849 1.377 . S
C3849 H3833 0.930 . S
C3849 C3848 1.377 . S
C3849 C3850 1.379 . S
C3850 H3834 0.931 . S
C3850 C3844 1.383 . S
C3850 C3849 1.379 . S
H3851 C3845 0.959 . S
H3852 C3845 0.961 . S
H3853 C3845 0.960 . S
H3854 C3846 0.930 . S
H3855 C3847 0.929 . S
H3856 C3864 0.929 . S
H3857 C3866 0.930 . S
H3858 C3868 0.930 . S
H3859 C3871 0.929 . S
H3860 C3874 0.930 . S
H3861 C3876 0.960 . S
H3862 C3876 0.960 . S
H3863 C3876 0.960 . S
C3864 H3856 0.929 . S
C3864 C3865 1.377 . S
C3864 C3866 1.384 . S
C3865 C3864 1.377 . S
C3865 C3871 1.390 . S
C3866 H3857 0.930 . S
C3866 C3864 1.384 . S
C3866 C3867 1.372 . S
C3867 C3866 1.372 . S
C3867 C3868 1.400 . S
C3867 C3872 1.490 . S
C3868 H3858 0.930 . S
C3868 C3867 1.400 . S
C3868 C3871 1.386 . S
H3869 C3885 0.930 . S
H3870 C3886 0.931 . S
C3871 H3859 0.929 . S
C3871 C3865 1.390 . S
C3871 C3868 1.386 . S
C3872 C3867 1.490 . S
C3872 C3874 1.395 . S
C3872 C3875 1.403 . S
H3873 C3879 0.930 . S
C3874 H3860 0.930 . S
C3874 C3872 1.395 . S
C3874 C3877 1.403 . S
C3875 C3872 1.403 . S
C3875 C3876 1.524 . S
C3875 C3879 1.400 . S
C3876 H3861 0.960 . S
C3876 H3862 0.960 . S
C3876 H3863 0.960 . S
C3876 C3875 1.524 . S
C3877 C3874 1.403 . S
C3877 C3878 1.392 . S
C3877 C3881 1.495 . S
C3878 C3877 1.392 . S
C3878 C3879 1.385 . S
C3878 C3880 1.478 . S
C3879 H3873 0.930 . S
C3879 C3875 1.400 . S
C3879 C3878 1.385 . S
C3880 C3878 1.478 . S
C3880 C3882 1.381 . S
C3880 C3886 1.383 . S
C3881 C3877 1.495 . S
C3881 H3887 0.959 . S
C3881 H3888 0.961 . S
C3881 H3889 0.960 . S
C3882 C3880 1.381 . S
C3882 C3883 1.394 . S
C3882 H3890 0.930 . S
C3883 C3882 1.394 . S
C3883 C3884 1.383 . S
C3883 H3891 0.929 . S
C3884 C3883 1.383 . S
C3884 C3885 1.377 . S
C3885 H3869 0.930 . S
C3885 C3884 1.377 . S
C3885 C3886 1.379 . S
C3886 H3870 0.931 . S
C3886 C3880 1.383 . S
C3886 C3885 1.379 . S
H3887 C3881 0.959 . S
H3888 C3881 0.961 . S
H3889 C3881 0.960 . S
H3890 C3882 0.930 . S
H3891 C3883 0.929 . S
H3892 C3900 0.929 . S
H3893 C3902 0.930 . S
H3894 C3904 0.930 . S
H3895 C3907 0.929 . S
H3896 C3910 0.930 . S
H3897 C3912 0.960 . S
H3898 C3912 0.960 . S
H3899 C3912 0.960 . S
C3900 H3892 0.929 . S
C3900 C3901 1.377 . S
C3900 C3902 1.384 . S
C3901 C3900 1.377 . S
C3901 C3907 1.390 . S
C3902 H3893 0.930 . S
C3902 C3900 1.384 . S
C3902 C3903 1.372 . S
C3903 C3902 1.372 . S
C3903 C3904 1.400 . S
C3903 C3908 1.490 . S
C3904 H3894 0.930 . S
C3904 C3903 1.400 . S
C3904 C3907 1.386 . S
H3905 C3921 0.930 . S
H3906 C3922 0.931 . S
C3907 H3895 0.929 . S
C3907 C3901 1.390 . S
C3907 C3904 1.386 . S
C3908 C3903 1.490 . S
C3908 C3910 1.395 . S
C3908 C3911 1.403 . S
H3909 C3915 0.930 . S
C3910 H3896 0.930 . S
C3910 C3908 1.395 . S
C3910 C3913 1.403 . S
C3911 C3908 1.403 . S
C3911 C3912 1.524 . S
C3911 C3915 1.400 . S
C3912 H3897 0.960 . S
C3912 H3898 0.960 . S
C3912 H3899 0.960 . S
C3912 C3911 1.524 . S
C3913 C3910 1.403 . S
C3913 C3914 1.392 . S
C3913 C3917 1.495 . S
C3914 C3913 1.392 . S
C3914 C3915 1.385 . S
C3914 C3916 1.478 . S
C3915 H3909 0.930 . S
C3915 C3911 1.400 . S
C3915 C3914 1.385 . S
C3916 C3914 1.478 . S
C3916 C3918 1.381 . S
C3916 C3922 1.383 . S
C3917 C3913 1.495 . S
C3917 H3923 0.959 . S
C3917 H3924 0.961 . S
C3917 H3925 0.960 . S
C3918 C3916 1.381 . S
C3918 C3919 1.394 . S
C3918 H3926 0.930 . S
C3919 C3918 1.394 . S
C3919 C3920 1.383 . S
C3919 H3927 0.929 . S
C3920 C3919 1.383 . S
C3920 C3921 1.377 . S
C3921 H3905 0.930 . S
C3921 C3920 1.377 . S
C3921 C3922 1.379 . S
C3922 H3906 0.931 . S
C3922 C3916 1.383 . S
C3922 C3921 1.379 . S
H3923 C3917 0.959 . S
H3924 C3917 0.961 . S
H3925 C3917 0.960 . S
H3926 C3918 0.930 . S
H3927 C3919 0.929 . S
H3928 C3936 0.929 . S
H3929 C3938 0.930 . S
H3930 C3940 0.930 . S
H3931 C3943 0.929 . S
H3932 C3946 0.930 . S
H3933 C3948 0.960 . S
H3934 C3948 0.960 . S
H3935 C3948 0.960 . S
C3936 H3928 0.929 . S
C3936 C3937 1.377 . S
C3936 C3938 1.384 . S
C3937 C3936 1.377 . S
C3937 C3943 1.390 . S
C3938 H3929 0.930 . S
C3938 C3936 1.384 . S
C3938 C3939 1.372 . S
C3939 C3938 1.372 . S
C3939 C3940 1.400 . S
C3939 C3944 1.490 . S
C3940 H3930 0.930 . S
C3940 C3939 1.400 . S
C3940 C3943 1.386 . S
H3941 C3957 0.930 . S
H3942 C3958 0.931 . S
C3943 H3931 0.929 . S
C3943 C3937 1.390 . S
C3943 C3940 1.386 . S
C3944 C3939 1.490 . S
C3944 C3946 1.395 . S
C3944 C3947 1.403 . S
H3945 C3951 0.930 1_455 S
C3946 H3932 0.930 . S
C3946 C3944 1.395 . S
C3946 C3949 1.403 . S
C3947 C3944 1.403 . S
C3947 C3948 1.524 1_655 S
C3947 C3951 1.400 . S
C3948 H3933 0.960 . S
C3948 H3934 0.960 . S
C3948 H3935 0.960 . S
C3948 C3947 1.524 1_455 S
C3949 C3946 1.403 . S
C3949 C3950 1.392 . S
C3949 C3953 1.495 . S
C3950 C3949 1.392 . S
C3950 C3951 1.385 . S
C3950 C3952 1.478 . S
C3951 H3945 0.930 1_655 S
C3951 C3947 1.400 . S
C3951 C3950 1.385 . S
C3952 C3950 1.478 . S
C3952 C3954 1.381 . S
C3952 C3958 1.383 1_655 S
C3953 C3949 1.495 . S
C3953 H3959 0.959 . S
C3953 H3960 0.961 . S
C3953 H3961 0.960 . S
C3954 C3952 1.381 . S
C3954 C3955 1.394 . S
C3954 H3962 0.930 . S
C3955 C3954 1.394 . S
C3955 C3956 1.383 1_655 S
C3955 H3963 0.982 . S
C3956 C3955 1.383 1_455 S
C3956 C3957 1.377 . S
C3957 H3941 0.930 . S
C3957 C3956 1.377 . S
C3957 C3958 1.379 . S
C3958 H3942 0.931 . S
C3958 C3952 1.383 1_455 S
C3958 C3957 1.379 . S
H3959 C3953 0.959 . S
H3960 C3953 0.961 . S
H3961 C3953 0.960 . S
H3962 C3954 0.930 . S
H3963 C3955 0.982 . S
H3964 C3972 0.929 . S
H3965 C3974 0.930 . S
H3966 C3976 0.930 . S
H3967 C3979 0.929 . S
H3968 C3982 0.930 . S
H3969 C3984 0.960 . S
H3970 C3984 0.960 . S
H3971 C3984 0.960 . S
C3972 H3964 0.929 . S
C3972 C3973 1.377 . S
C3972 C3974 1.384 . S
C3973 C3972 1.377 . S
C3973 C3979 1.390 . S
C3974 H3965 0.930 . S
C3974 C3972 1.384 . S
C3974 C3975 1.372 . S
C3975 C3974 1.372 . S
C3975 C3976 1.400 . S
C3975 C3980 1.490 . S
C3976 H3966 0.930 . S
C3976 C3975 1.400 . S
C3976 C3979 1.386 . S
H3977 C3993 0.930 . S
H3978 C3994 0.931 . S
C3979 H3967 0.929 . S
C3979 C3973 1.390 . S
C3979 C3976 1.386 . S
C3980 C3975 1.490 . S
C3980 C3982 1.395 . S
C3980 C3983 1.403 . S
H3981 C3987 0.930 . S
C3982 H3968 0.930 . S
C3982 C3980 1.395 . S
C3982 C3985 1.403 . S
C3983 C3980 1.403 . S
C3983 C3984 1.524 . S
C3983 C3987 1.400 . S
C3984 H3969 0.960 . S
C3984 H3970 0.960 . S
C3984 H3971 0.960 . S
C3984 C3983 1.524 . S
C3985 C3982 1.403 . S
C3985 C3986 1.392 . S
C3985 C3989 1.495 . S
C3986 C3985 1.392 . S
C3986 C3987 1.385 . S
C3986 C3988 1.478 . S
C3987 H3981 0.930 . S
C3987 C3983 1.400 . S
C3987 C3986 1.385 . S
C3988 C3986 1.478 . S
C3988 C3990 1.381 . S
C3988 C3994 1.383 . S
C3989 C3985 1.495 . S
C3989 H3995 0.959 . S
C3989 H3996 0.961 . S
C3989 H3997 0.960 . S
C3990 C3988 1.381 . S
C3990 C3991 1.394 . S
C3990 H3998 0.930 . S
C3991 C3990 1.394 . S
C3991 C3992 1.383 . S
C3991 H3999 0.929 . S
C3992 C3991 1.383 . S
C3992 C3993 1.377 . S
C3993 H3977 0.930 . S
C3993 C3992 1.377 . S
C3993 C3994 1.379 . S
C3994 H3978 0.931 . S
C3994 C3988 1.383 . S
C3994 C3993 1.379 . S
H3995 C3989 0.959 . S
H3996 C3989 0.961 . S
H3997 C3989 0.960 . S
H3998 C3990 0.930 . S
H3999 C3991 0.929 . S
H4000 C4008 0.929 . S
H4001 C4010 0.930 . S
H4002 C4012 0.930 . S
H4003 C4015 0.929 . S
H4004 C4018 0.930 . S
H4005 C4020 0.960 . S
H4006 C4020 0.960 . S
H4007 C4020 0.960 . S
C4008 H4000 0.929 . S
C4008 C4009 1.377 . S
C4008 C4010 1.384 . S
C4009 C4008 1.377 . S
C4009 C4015 1.390 . S
C4010 H4001 0.930 . S
C4010 C4008 1.384 . S
C4010 C4011 1.372 . S
C4011 C4010 1.372 . S
C4011 C4012 1.400 . S
C4011 C4016 1.490 . S
C4012 H4002 0.930 . S
C4012 C4011 1.400 . S
C4012 C4015 1.386 . S
H4013 C4029 0.930 . S
H4014 C4030 0.931 . S
C4015 H4003 0.929 . S
C4015 C4009 1.390 . S
C4015 C4012 1.386 . S
C4016 C4011 1.490 . S
C4016 C4018 1.395 . S
C4016 C4019 1.403 . S
H4017 C4023 0.930 . S
C4018 H4004 0.930 . S
C4018 C4016 1.395 . S
C4018 C4021 1.403 . S
C4019 C4016 1.403 . S
C4019 C4020 1.524 . S
C4019 C4023 1.400 . S
C4020 H4005 0.960 . S
C4020 H4006 0.960 . S
C4020 H4007 0.960 . S
C4020 C4019 1.524 . S
C4021 C4018 1.403 . S
C4021 C4022 1.392 . S
C4021 C4025 1.495 . S
C4022 C4021 1.392 . S
C4022 C4023 1.385 . S
C4022 C4024 1.478 . S
C4023 H4017 0.930 . S
C4023 C4019 1.400 . S
C4023 C4022 1.385 . S
C4024 C4022 1.478 . S
C4024 C4026 1.381 . S
C4024 C4030 1.383 . S
C4025 C4021 1.495 . S
C4025 H4031 0.959 . S
C4025 H4032 0.961 . S
C4025 H4033 0.960 . S
C4026 C4024 1.381 . S
C4026 C4027 1.394 . S
C4026 H4034 0.930 . S
C4027 C4026 1.394 . S
C4027 C4028 1.383 . S
C4027 H4035 0.929 . S
C4028 C4027 1.383 . S
C4028 C4029 1.377 . S
C4029 H4013 0.930 . S
C4029 C4028 1.377 . S
C4029 C4030 1.379 . S
C4030 H4014 0.931 . S
C4030 C4024 1.383 . S
C4030 C4029 1.379 . S
H4031 C4025 0.959 . S
H4032 C4025 0.961 . S
H4033 C4025 0.960 . S
H4034 C4026 0.930 . S
H4035 C4027 0.929 . S
H4036 C4044 0.929 1_554 S
H4037 C4046 0.930 . S
H4038 C4048 0.930 . S
H4039 C4051 0.922 1_554 S
H4040 C4054 0.930 . S
H4041 C4056 0.960 . S
H4042 C4056 0.960 . S
H4043 C4056 0.960 . S
C4044 H4036 0.929 1_556 S
C4044 C4045 1.377 1_556 S
C4044 C4046 1.384 . S
C4045 C4044 1.377 1_554 S
C4045 C4051 1.390 1_554 S
C4046 H4037 0.930 . S
C4046 C4044 1.384 . S
C4046 C4047 1.372 . S
C4047 C4046 1.372 . S
C4047 C4048 1.400 . S
C4047 C4052 1.490 . S
C4048 H4038 0.930 . S
C4048 C4047 1.400 . S
C4048 C4051 1.386 . S
H4049 C4065 0.930 . S
H4050 C4066 0.931 . S
C4051 H4039 0.922 1_556 S
C4051 C4045 1.390 1_556 S
C4051 C4048 1.386 . S
C4052 C4047 1.490 . S
C4052 C4054 1.395 . S
C4052 C4055 1.403 . S
H4053 C4059 0.930 . S
C4054 H4040 0.930 . S
C4054 C4052 1.395 . S
C4054 C4057 1.403 . S
C4055 C4052 1.403 . S
C4055 C4056 1.524 . S
C4055 C4059 1.400 . S
C4056 H4041 0.960 . S
C4056 H4042 0.960 . S
C4056 H4043 0.960 . S
C4056 C4055 1.524 . S
C4057 C4054 1.403 . S
C4057 C4058 1.392 . S
C4057 C4061 1.495 . S
C4058 C4057 1.392 . S
C4058 C4059 1.385 . S
C4058 C4060 1.478 . S
C4059 H4053 0.930 . S
C4059 C4055 1.400 . S
C4059 C4058 1.385 . S
C4060 C4058 1.478 . S
C4060 C4062 1.381 . S
C4060 C4066 1.383 . S
C4061 C4057 1.495 . S
C4061 H4067 0.959 . S
C4061 H4068 0.961 . S
C4061 H4069 0.960 . S
C4062 C4060 1.381 . S
C4062 C4063 1.394 . S
C4062 H4070 0.930 . S
C4063 C4062 1.394 . S
C4063 C4064 1.383 . S
C4063 H4071 0.929 . S
C4064 C4063 1.383 . S
C4064 C4065 1.377 . S
C4065 H4049 0.930 . S
C4065 C4064 1.377 . S
C4065 C4066 1.379 . S
C4066 H4050 0.931 . S
C4066 C4060 1.383 . S
C4066 C4065 1.379 . S
H4067 C4061 0.959 . S
H4068 C4061 0.961 . S
H4069 C4061 0.960 . S
H4070 C4062 0.930 . S
H4071 C4063 0.929 . S
H4072 C4080 0.929 . S
H4073 C4082 0.930 . S
H4074 C4084 0.930 . S
H4075 C4087 0.929 . S
H4076 C4090 0.930 . S
H4077 C4092 0.960 . S
H4078 C4092 0.960 . S
H4079 C4092 0.960 . S
C4080 H4072 0.929 . S
C4080 C4081 1.377 . S
C4080 C4082 1.384 . S
C4081 C4080 1.377 . S
C4081 C4087 1.390 . S
C4082 H4073 0.930 . S
C4082 C4080 1.384 . S
C4082 C4083 1.372 . S
C4083 C4082 1.372 . S
C4083 C4084 1.400 . S
C4083 C4088 1.490 . S
C4084 H4074 0.930 . S
C4084 C4083 1.400 . S
C4084 C4087 1.386 . S
H4085 C4101 0.930 . S
H4086 C4102 0.931 . S
C4087 H4075 0.929 . S
C4087 C4081 1.390 . S
C4087 C4084 1.386 . S
C4088 C4083 1.490 . S
C4088 C4090 1.395 . S
C4088 C4091 1.403 . S
H4089 C4095 0.930 . S
C4090 H4076 0.930 . S
C4090 C4088 1.395 . S
C4090 C4093 1.403 . S
C4091 C4088 1.403 . S
C4091 C4092 1.524 . S
C4091 C4095 1.400 . S
C4092 H4077 0.960 . S
C4092 H4078 0.960 . S
C4092 H4079 0.960 . S
C4092 C4091 1.524 . S
C4093 C4090 1.403 . S
C4093 C4094 1.392 . S
C4093 C4097 1.495 . S
C4094 C4093 1.392 . S
C4094 C4095 1.385 . S
C4094 C4096 1.478 . S
C4095 H4089 0.930 . S
C4095 C4091 1.400 . S
C4095 C4094 1.385 . S
C4096 C4094 1.478 . S
C4096 C4098 1.381 . S
C4096 C4102 1.383 1_655 S
C4097 C4093 1.495 . S
C4097 H4103 0.959 . S
C4097 H4104 0.961 . S
C4097 H4105 0.960 . S
C4098 C4096 1.381 . S
C4098 C4099 1.394 . S
C4098 H4106 0.930 . S
C4099 C4098 1.394 . S
C4099 C4100 1.383 . S
C4099 H4107 0.929 . S
C4100 C4099 1.383 . S
C4100 C4101 1.377 1_655 S
C4101 H4085 0.930 . S
C4101 C4100 1.377 1_455 S
C4101 C4102 1.379 . S
C4102 H4086 0.931 . S
C4102 C4096 1.383 1_455 S
C4102 C4101 1.379 . S
H4103 C4097 0.959 . S
H4104 C4097 0.961 . S
H4105 C4097 0.960 . S
H4106 C4098 0.930 . S
H4107 C4099 0.929 . S
H4108 C4116 0.929 . S
H4109 C4118 0.930 . S
H4110 C4120 0.930 . S
H4111 C4123 0.929 . S
H4112 C4126 0.930 . S
H4113 C4128 0.960 . S
H4114 C4128 0.960 . S
H4115 C4128 0.960 . S
C4116 H4108 0.929 . S
C4116 C4117 1.377 . S
C4116 C4118 1.384 . S
C4117 C4116 1.377 . S
C4117 C4123 1.390 . S
C4118 H4109 0.930 . S
C4118 C4116 1.384 . S
C4118 C4119 1.372 . S
C4119 C4118 1.372 . S
C4119 C4120 1.400 . S
C4119 C4124 1.490 . S
C4120 H4110 0.930 . S
C4120 C4119 1.400 . S
C4120 C4123 1.386 . S
H4121 C4137 0.930 . S
H4122 C4138 0.931 . S
C4123 H4111 0.929 . S
C4123 C4117 1.390 . S
C4123 C4120 1.386 . S
C4124 C4119 1.490 . S
C4124 C4126 1.395 . S
C4124 C4127 1.403 . S
H4125 C4131 0.930 . S
C4126 H4112 0.930 . S
C4126 C4124 1.395 . S
C4126 C4129 1.403 . S
C4127 C4124 1.403 . S
C4127 C4128 1.524 . S
C4127 C4131 1.400 . S
C4128 H4113 0.960 . S
C4128 H4114 0.960 . S
C4128 H4115 0.960 . S
C4128 C4127 1.524 . S
C4129 C4126 1.403 . S
C4129 C4130 1.392 . S
C4129 C4133 1.495 . S
C4130 C4129 1.392 . S
C4130 C4131 1.385 . S
C4130 C4132 1.478 . S
C4131 H4125 0.930 . S
C4131 C4127 1.400 . S
C4131 C4130 1.385 . S
C4132 C4130 1.478 . S
C4132 C4134 1.381 . S
C4132 C4138 1.383 . S
C4133 C4129 1.495 . S
C4133 H4139 0.959 . S
C4133 H4140 0.961 . S
C4133 H4141 0.960 . S
C4134 C4132 1.381 . S
C4134 C4135 1.394 . S
C4134 H4142 0.930 . S
C4135 C4134 1.394 . S
C4135 C4136 1.383 . S
C4135 H4143 0.929 . S
C4136 C4135 1.383 . S
C4136 C4137 1.377 . S
C4137 H4121 0.930 . S
C4137 C4136 1.377 . S
C4137 C4138 1.379 . S
C4138 H4122 0.931 . S
C4138 C4132 1.383 . S
C4138 C4137 1.379 . S
H4139 C4133 0.959 . S
H4140 C4133 0.961 . S
H4141 C4133 0.960 . S
H4142 C4134 0.930 . S
H4143 C4135 0.929 . S
H4144 C4152 0.929 . S
H4145 C4154 0.930 . S
H4146 C4156 0.930 . S
H4147 C4159 0.929 . S
H4148 C4162 0.930 . S
H4149 C4164 0.960 . S
H4150 C4164 0.960 . S
H4151 C4164 0.960 . S
C4152 H4144 0.929 . S
C4152 C4153 1.377 . S
C4152 C4154 1.384 . S
C4153 C4152 1.377 . S
C4153 C4159 1.390 . S
C4154 H4145 0.930 . S
C4154 C4152 1.384 . S
C4154 C4155 1.372 . S
C4155 C4154 1.372 . S
C4155 C4156 1.400 . S
C4155 C4160 1.490 . S
C4156 H4146 0.930 . S
C4156 C4155 1.400 . S
C4156 C4159 1.386 . S
H4157 C4173 0.930 . S
H4158 C4174 0.931 . S
C4159 H4147 0.929 . S
C4159 C4153 1.390 . S
C4159 C4156 1.386 . S
C4160 C4155 1.490 . S
C4160 C4162 1.395 . S
C4160 C4163 1.403 . S
H4161 C4167 0.930 . S
C4162 H4148 0.930 . S
C4162 C4160 1.395 . S
C4162 C4165 1.403 . S
C4163 C4160 1.403 . S
C4163 C4164 1.524 . S
C4163 C4167 1.400 . S
C4164 H4149 0.960 . S
C4164 H4150 0.960 . S
C4164 H4151 0.960 . S
C4164 C4163 1.524 . S
C4165 C4162 1.403 . S
C4165 C4166 1.392 . S
C4165 C4169 1.495 . S
C4166 C4165 1.392 . S
C4166 C4167 1.385 . S
C4166 C4168 1.478 . S
C4167 H4161 0.930 . S
C4167 C4163 1.400 . S
C4167 C4166 1.385 . S
C4168 C4166 1.478 . S
C4168 C4170 1.381 . S
C4168 C4174 1.383 . S
C4169 C4165 1.495 . S
C4169 H4175 0.959 . S
C4169 H4176 0.961 . S
C4169 H4177 0.960 . S
C4170 C4168 1.381 . S
C4170 C4171 1.394 . S
C4170 H4178 0.930 . S
C4171 C4170 1.394 . S
C4171 C4172 1.383 . S
C4171 H4179 0.929 . S
C4172 C4171 1.383 . S
C4172 C4173 1.377 . S
C4173 H4157 0.930 . S
C4173 C4172 1.377 . S
C4173 C4174 1.379 . S
C4174 H4158 0.931 . S
C4174 C4168 1.383 . S
C4174 C4173 1.379 . S
H4175 C4169 0.959 . S
H4176 C4169 0.961 . S
H4177 C4169 0.960 . S
H4178 C4170 0.930 . S
H4179 C4171 0.929 . S
H4180 C4188 0.929 . S
H4181 C4190 0.930 . S
H4182 C4192 0.930 . S
H4183 C4195 0.929 . S
H4184 C4198 0.930 . S
H4185 C4200 0.960 . S
H4186 C4200 0.960 . S
H4187 C4200 0.960 . S
C4188 H4180 0.929 . S
C4188 C4189 1.377 . S
C4188 C4190 1.384 . S
C4189 C4188 1.377 . S
C4189 C4195 1.390 1_565 S
C4190 H4181 0.930 . S
C4190 C4188 1.384 . S
C4190 C4191 1.421 . S
C4191 C4190 1.421 . S
C4191 C4192 1.360 1_565 S
C4191 C4196 1.482 1_565 S
C4192 H4182 0.930 . S
C4192 C4191 1.360 1_545 S
C4192 C4195 1.386 . S
H4193 C4209 0.930 . S
H4194 C4210 0.931 . S
C4195 H4183 0.929 . S
C4195 C4189 1.390 1_545 S
C4195 C4192 1.386 . S
C4196 C4191 1.482 1_545 S
C4196 C4198 1.395 1_545 S
C4196 C4199 1.403 . S
H4197 C4203 0.930 . S
C4198 H4184 0.930 . S
C4198 C4196 1.395 1_565 S
C4198 C4201 1.405 . S
C4199 C4196 1.403 . S
C4199 C4200 1.524 . S
C4199 C4203 1.400 . S
C4200 H4185 0.960 . S
C4200 H4186 0.960 . S
C4200 H4187 0.960 . S
C4200 C4199 1.524 . S
C4201 C4198 1.405 . S
C4201 C4202 1.385 1_565 S
C4201 C4205 1.501 . S
C4202 C4201 1.385 1_545 S
C4202 C4203 1.385 . S
C4202 C4204 1.478 . S
C4203 H4197 0.930 . S
C4203 C4199 1.400 . S
C4203 C4202 1.385 . S
C4204 C4202 1.478 . S
C4204 C4206 1.381 . S
C4204 C4210 1.383 . S
C4205 C4201 1.501 . S
C4205 H4211 0.959 . S
C4205 H4212 0.961 . S
C4205 H4213 0.960 . S
C4206 C4204 1.381 . S
C4206 C4207 1.394 . S
C4206 H4214 0.930 . S
C4207 C4206 1.394 . S
C4207 C4208 1.383 . S
C4207 H4215 0.929 . S
C4208 C4207 1.383 . S
C4208 C4209 1.377 . S
C4209 H4193 0.930 . S
C4209 C4208 1.377 . S
C4209 C4210 1.379 . S
C4210 H4194 0.931 . S
C4210 C4204 1.383 . S
C4210 C4209 1.379 . S
H4211 C4205 0.959 . S
H4212 C4205 0.961 . S
H4213 C4205 0.960 . S
H4214 C4206 0.930 . S
H4215 C4207 0.929 . S
H4216 C4224 0.929 . S
H4217 C4226 0.930 . S
H4218 C4228 0.930 . S
H4219 C4231 0.929 . S
H4220 C4234 0.930 . S
H4221 C4236 0.960 . S
H4222 C4236 0.960 . S
H4223 C4236 0.960 . S
C4224 H4216 0.929 . S
C4224 C4225 1.377 . S
C4224 C4226 1.384 . S
C4225 C4224 1.377 . S
C4225 C4231 1.390 . S
C4226 H4217 0.930 . S
C4226 C4224 1.384 . S
C4226 C4227 1.372 . S
C4227 C4226 1.372 . S
C4227 C4228 1.400 . S
C4227 C4232 1.490 . S
C4228 H4218 0.930 . S
C4228 C4227 1.400 . S
C4228 C4231 1.386 . S
H4229 C4245 0.930 . S
H4230 C4246 0.931 . S
C4231 H4219 0.929 . S
C4231 C4225 1.390 . S
C4231 C4228 1.386 . S
C4232 C4227 1.490 . S
C4232 C4234 1.395 . S
C4232 C4235 1.403 . S
H4233 C4239 0.930 . S
C4234 H4220 0.930 . S
C4234 C4232 1.395 . S
C4234 C4237 1.403 . S
C4235 C4232 1.403 . S
C4235 C4236 1.524 . S
C4235 C4239 1.400 . S
C4236 H4221 0.960 . S
C4236 H4222 0.960 . S
C4236 H4223 0.960 . S
C4236 C4235 1.524 . S
C4237 C4234 1.403 . S
C4237 C4238 1.392 . S
C4237 C4241 1.495 . S
C4238 C4237 1.392 . S
C4238 C4239 1.385 . S
C4238 C4240 1.478 . S
C4239 H4233 0.930 . S
C4239 C4235 1.400 . S
C4239 C4238 1.385 . S
C4240 C4238 1.478 . S
C4240 C4242 1.381 . S
C4240 C4246 1.383 . S
C4241 C4237 1.495 . S
C4241 H4247 0.959 . S
C4241 H4248 0.961 . S
C4241 H4249 0.960 . S
C4242 C4240 1.381 . S
C4242 C4243 1.394 . S
C4242 H4250 0.930 . S
C4243 C4242 1.394 . S
C4243 C4244 1.383 . S
C4243 H4251 0.929 . S
C4244 C4243 1.383 . S
C4244 C4245 1.377 . S
C4245 H4229 0.930 . S
C4245 C4244 1.377 . S
C4245 C4246 1.379 . S
C4246 H4230 0.931 . S
C4246 C4240 1.383 . S
C4246 C4245 1.379 . S
H4247 C4241 0.959 . S
H4248 C4241 0.961 . S
H4249 C4241 0.960 . S
H4250 C4242 0.930 . S
H4251 C4243 0.929 . S
H4252 C4260 0.929 . S
H4253 C4262 0.930 . S
H4254 C4264 0.930 . S
H4255 C4267 0.929 . S
H4256 C4270 0.930 . S
H4257 C4272 0.960 . S
H4258 C4272 0.960 . S
H4259 C4272 0.960 . S
C4260 H4252 0.929 . S
C4260 C4261 1.377 . S
C4260 C4262 1.384 . S
C4261 C4260 1.377 . S
C4261 C4267 1.390 . S
C4262 H4253 0.930 . S
C4262 C4260 1.384 . S
C4262 C4263 1.372 . S
C4263 C4262 1.372 . S
C4263 C4264 1.400 . S
C4263 C4268 1.490 . S
C4264 H4254 0.930 . S
C4264 C4263 1.400 . S
C4264 C4267 1.386 . S
H4265 C4281 0.930 . S
H4266 C4282 0.931 . S
C4267 H4255 0.929 . S
C4267 C4261 1.390 . S
C4267 C4264 1.386 . S
C4268 C4263 1.490 . S
C4268 C4270 1.395 . S
C4268 C4271 1.403 . S
H4269 C4275 0.930 . S
C4270 H4256 0.930 . S
C4270 C4268 1.395 . S
C4270 C4273 1.403 . S
C4271 C4268 1.403 . S
C4271 C4272 1.524 . S
C4271 C4275 1.400 . S
C4272 H4257 0.960 . S
C4272 H4258 0.960 . S
C4272 H4259 0.960 . S
C4272 C4271 1.524 . S
C4273 C4270 1.403 . S
C4273 C4274 1.392 . S
C4273 C4277 1.495 . S
C4274 C4273 1.392 . S
C4274 C4275 1.385 . S
C4274 C4276 1.478 . S
C4275 H4269 0.930 . S
C4275 C4271 1.400 . S
C4275 C4274 1.385 . S
C4276 C4274 1.478 . S
C4276 C4278 1.381 . S
C4276 C4282 1.383 . S
C4277 C4273 1.495 . S
C4277 H4283 0.959 . S
C4277 H4284 0.961 . S
C4277 H4285 0.960 . S
C4278 C4276 1.381 . S
C4278 C4279 1.394 . S
C4278 H4286 0.930 . S
C4279 C4278 1.394 . S
C4279 C4280 1.383 . S
C4279 H4287 0.929 . S
C4280 C4279 1.383 . S
C4280 C4281 1.377 . S
C4281 H4265 0.930 . S
C4281 C4280 1.377 . S
C4281 C4282 1.379 . S
C4282 H4266 0.931 . S
C4282 C4276 1.383 . S
C4282 C4281 1.379 . S
H4283 C4277 0.959 . S
H4284 C4277 0.961 . S
H4285 C4277 0.960 . S
H4286 C4278 0.930 . S
H4287 C4279 0.929 . S
H4288 C4296 0.929 . S
H4289 C4298 0.930 . S
H4290 C4300 0.930 . S
H4291 C4303 0.929 . S
H4292 C4306 0.930 . S
H4293 C4308 0.960 . S
H4294 C4308 0.960 . S
H4295 C4308 0.960 . S
C4296 H4288 0.929 . S
C4296 C4297 1.377 . S
C4296 C4298 1.384 . S
C4297 C4296 1.377 . S
C4297 C4303 1.390 . S
C4298 H4289 0.930 . S
C4298 C4296 1.384 . S
C4298 C4299 1.372 . S
C4299 C4298 1.372 . S
C4299 C4300 1.400 . S
C4299 C4304 1.490 . S
C4300 H4290 0.930 . S
C4300 C4299 1.400 . S
C4300 C4303 1.386 . S
H4301 C4317 0.930 . S
H4302 C4318 0.931 . S
C4303 H4291 0.929 . S
C4303 C4297 1.390 . S
C4303 C4300 1.386 . S
C4304 C4299 1.490 . S
C4304 C4306 1.395 . S
C4304 C4307 1.403 . S
H4305 C4311 0.930 . S
C4306 H4292 0.930 . S
C4306 C4304 1.395 . S
C4306 C4309 1.403 . S
C4307 C4304 1.403 . S
C4307 C4308 1.524 . S
C4307 C4311 1.400 . S
C4308 H4293 0.960 . S
C4308 H4294 0.960 . S
C4308 H4295 0.960 . S
C4308 C4307 1.524 . S
C4309 C4306 1.403 . S
C4309 C4310 1.392 . S
C4309 C4313 1.495 . S
C4310 C4309 1.392 . S
C4310 C4311 1.385 . S
C4310 C4312 1.478 . S
C4311 H4305 0.930 . S
C4311 C4307 1.400 . S
C4311 C4310 1.385 . S
C4312 C4310 1.478 . S
C4312 C4314 1.381 . S
C4312 C4318 1.383 . S
C4313 C4309 1.495 . S
C4313 H4319 0.959 . S
C4313 H4320 0.961 . S
C4313 H4321 0.960 . S
C4314 C4312 1.381 . S
C4314 C4315 1.394 . S
C4314 H4322 0.930 . S
C4315 C4314 1.394 . S
C4315 C4316 1.383 . S
C4315 H4323 0.929 . S
C4316 C4315 1.383 . S
C4316 C4317 1.377 . S
C4317 H4301 0.930 . S
C4317 C4316 1.377 . S
C4317 C4318 1.379 . S
C4318 H4302 0.931 . S
C4318 C4312 1.383 . S
C4318 C4317 1.379 . S
H4319 C4313 0.959 . S
H4320 C4313 0.961 . S
H4321 C4313 0.960 . S
H4322 C4314 0.930 . S
H4323 C4315 0.929 . S
H4324 C4332 0.929 . S
H4325 C4334 0.930 . S
H4326 C4336 0.930 . S
H4327 C4339 0.929 . S
H4328 C4342 0.930 . S
H4329 C4344 0.960 . S
H4330 C4344 0.960 . S
H4331 C4344 0.960 . S
C4332 H4324 0.929 . S
C4332 C4333 1.377 . S
C4332 C4334 1.384 . S
C4333 C4332 1.377 . S
C4333 C4339 1.390 . S
C4334 H4325 0.930 . S
C4334 C4332 1.384 . S
C4334 C4335 1.372 . S
C4335 C4334 1.372 . S
C4335 C4336 1.400 . S
C4335 C4340 1.490 . S
C4336 H4326 0.930 . S
C4336 C4335 1.400 . S
C4336 C4339 1.386 . S
H4337 C4353 0.930 . S
H4338 C4354 0.931 . S
C4339 H4327 0.929 . S
C4339 C4333 1.390 . S
C4339 C4336 1.386 . S
C4340 C4335 1.490 . S
C4340 C4342 1.395 . S
C4340 C4343 1.403 . S
H4341 C4347 0.930 . S
C4342 H4328 0.930 . S
C4342 C4340 1.395 . S
C4342 C4345 1.403 . S
C4343 C4340 1.403 . S
C4343 C4344 1.524 . S
C4343 C4347 1.400 . S
C4344 H4329 0.960 . S
C4344 H4330 0.960 . S
C4344 H4331 0.960 . S
C4344 C4343 1.524 . S
C4345 C4342 1.403 . S
C4345 C4346 1.392 . S
C4345 C4349 1.495 . S
C4346 C4345 1.392 . S
C4346 C4347 1.385 . S
C4346 C4348 1.478 . S
C4347 H4341 0.930 . S
C4347 C4343 1.400 . S
C4347 C4346 1.385 . S
C4348 C4346 1.478 . S
C4348 C4350 1.381 . S
C4348 C4354 1.383 . S
C4349 C4345 1.495 . S
C4349 H4355 0.959 . S
C4349 H4356 0.961 . S
C4349 H4357 0.960 . S
C4350 C4348 1.381 . S
C4350 C4351 1.394 . S
C4350 H4358 0.930 . S
C4351 C4350 1.394 . S
C4351 C4352 1.383 . S
C4351 H4359 0.929 . S
C4352 C4351 1.383 . S
C4352 C4353 1.377 . S
C4353 H4337 0.930 . S
C4353 C4352 1.377 . S
C4353 C4354 1.379 . S
C4354 H4338 0.931 . S
C4354 C4348 1.383 . S
C4354 C4353 1.379 . S
H4355 C4349 0.959 . S
H4356 C4349 0.961 . S
H4357 C4349 0.960 . S
H4358 C4350 0.930 . S
H4359 C4351 0.929 . S
H4360 C4368 0.929 . S
H4361 C4370 0.930 . S
H4362 C4372 0.930 . S
H4363 C4375 0.929 . S
H4364 C4378 0.930 . S
H4365 C4380 0.960 . S
H4366 C4380 0.960 . S
H4367 C4380 0.960 . S
C4368 H4360 0.929 . S
C4368 C4369 1.377 . S
C4368 C4370 1.384 1_545 S
C4369 C4368 1.377 . S
C4369 C4375 1.390 . S
C4370 H4361 0.930 . S
C4370 C4368 1.384 1_565 S
C4370 C4371 1.372 . S
C4371 C4370 1.372 . S
C4371 C4372 1.400 . S
C4371 C4376 1.490 . S
C4372 H4362 0.930 . S
C4372 C4371 1.400 . S
C4372 C4375 1.386 1_565 S
H4373 C4389 0.930 . S
H4374 C4390 0.931 . S
C4375 H4363 0.929 . S
C4375 C4369 1.390 . S
C4375 C4372 1.386 1_545 S
C4376 C4371 1.490 . S
C4376 C4378 1.395 . S
C4376 C4379 1.403 . S
H4377 C4383 0.930 . S
C4378 H4364 0.930 . S
C4378 C4376 1.395 . S
C4378 C4381 1.403 . S
C4379 C4376 1.403 . S
C4379 C4380 1.524 . S
C4379 C4383 1.400 . S
C4380 H4365 0.960 . S
C4380 H4366 0.960 . S
C4380 H4367 0.960 . S
C4380 C4379 1.524 . S
C4381 C4378 1.403 . S
C4381 C4382 1.392 . S
C4381 C4385 1.495 . S
C4382 C4381 1.392 . S
C4382 C4383 1.385 . S
C4382 C4384 1.478 . S
C4383 H4377 0.930 . S
C4383 C4379 1.400 . S
C4383 C4382 1.385 . S
C4384 C4382 1.478 . S
C4384 C4386 1.381 . S
C4384 C4390 1.383 . S
C4385 C4381 1.495 . S
C4385 H4391 0.959 . S
C4385 H4392 0.961 . S
C4385 H4393 0.960 . S
C4386 C4384 1.381 . S
C4386 C4387 1.394 . S
C4386 H4394 0.930 . S
C4387 C4386 1.394 . S
C4387 C4388 1.383 . S
C4387 H4395 0.929 . S
C4388 C4387 1.383 . S
C4388 C4389 1.377 . S
C4389 H4373 0.930 . S
C4389 C4388 1.377 . S
C4389 C4390 1.379 . S
C4390 H4374 0.931 . S
C4390 C4384 1.383 . S
C4390 C4389 1.379 . S
H4391 C4385 0.959 . S
H4392 C4385 0.961 . S
H4393 C4385 0.960 . S
H4394 C4386 0.930 . S
H4395 C4387 0.929 . S
H4396 C4404 0.929 . S
H4397 C4406 0.930 . S
H4398 C4408 0.930 . S
H4399 C4411 0.929 . S
H4400 C4414 0.930 . S
H4401 C4416 0.960 . S
H4402 C4416 0.960 . S
H4403 C4416 0.960 . S
C4404 H4396 0.929 . S
C4404 C4405 1.377 . S
C4404 C4406 1.384 . S
C4405 C4404 1.377 . S
C4405 C4411 1.390 . S
C4406 H4397 0.930 . S
C4406 C4404 1.384 . S
C4406 C4407 1.372 . S
C4407 C4406 1.372 . S
C4407 C4408 1.400 . S
C4407 C4412 1.490 . S
C4408 H4398 0.930 . S
C4408 C4407 1.400 . S
C4408 C4411 1.386 . S
H4409 C4425 0.930 . S
H4410 C4426 0.931 . S
C4411 H4399 0.929 . S
C4411 C4405 1.390 . S
C4411 C4408 1.386 . S
C4412 C4407 1.490 . S
C4412 C4414 1.395 . S
C4412 C4415 1.403 . S
H4413 C4419 0.930 . S
C4414 H4400 0.930 . S
C4414 C4412 1.395 . S
C4414 C4417 1.403 . S
C4415 C4412 1.403 . S
C4415 C4416 1.524 . S
C4415 C4419 1.400 . S
C4416 H4401 0.960 . S
C4416 H4402 0.960 . S
C4416 H4403 0.960 . S
C4416 C4415 1.524 . S
C4417 C4414 1.403 . S
C4417 C4418 1.392 . S
C4417 C4421 1.495 . S
C4418 C4417 1.392 . S
C4418 C4419 1.385 . S
C4418 C4420 1.478 . S
C4419 H4413 0.930 . S
C4419 C4415 1.400 . S
C4419 C4418 1.385 . S
C4420 C4418 1.478 . S
C4420 C4422 1.381 . S
C4420 C4426 1.383 . S
C4421 C4417 1.495 . S
C4421 H4427 0.959 . S
C4421 H4428 0.961 . S
C4421 H4429 0.960 . S
C4422 C4420 1.381 . S
C4422 C4423 1.394 . S
C4422 H4430 0.930 . S
C4423 C4422 1.394 . S
C4423 C4424 1.383 . S
C4423 H4431 0.929 . S
C4424 C4423 1.383 . S
C4424 C4425 1.377 . S
C4425 H4409 0.930 . S
C4425 C4424 1.377 . S
C4425 C4426 1.379 . S
C4426 H4410 0.931 . S
C4426 C4420 1.383 . S
C4426 C4425 1.379 . S
H4427 C4421 0.959 . S
H4428 C4421 0.961 . S
H4429 C4421 0.960 . S
H4430 C4422 0.930 . S
H4431 C4423 0.929 . S
C985 C111 1.055 . S
C1004 C342 1.117 . S
C1021 C64 1.855 . S
C1040 C394 1.820 . S
C1057 C77 1.124 . S
C1076 C426 1.124 . S
C1112 C475 2.312 . S
C1093 C95 2.272 . S
C1129 C25 0.633 . S
C1148 C511 0.694 . S
C1184 C542 0.198 . S
C1165 C36 0.315 . S
C1220 C594 0.565 . S
C1201 C50 0.501 . S
C1237 C11 0.999 . S
C1256 C622 0.918 . S
C1292 C354 1.717 . S
C1273 C237 1.752 . S
C1309 C245 1.431 . S
C1328 C395 1.437 . S
C1364 C425 1.743 . S
C1345 C279 1.722 . S
C1400 C462 0.301 . S
C1381 C175 0.222 . S
C1417 C231 1.622 . S
C1436 C506 1.625 1_655 S
C1472 C554 1.915 . S
C1453 C251 1.794 . S
C1508 C595 1.370 1_556 S
C1489 C273 1.368 . S
C1544 C634 1.452 . S
C1525 C181 1.464 . S
C1580 C355 2.090 . S
C1561 C165 2.098 . S
C1597 C288 1.523 . S
C1616 C665 1.531 . S
C1652 C715 2.318 . S
C1633 C333 2.326 . S
C1688 C742 0.890 . S
C1669 C316 0.910 . S
C1705 C123 2.327 . S
C1724 C635 2.290 . S
C1741 C137 0.727 . S
C1760 C431 0.692 . S
C1777 C330 2.414 . S
C1796 C794 2.394 . S
C1832 C822 0.924 . S
C1813 C302 0.901 . S
C1868 C351 1.172 . S
C1849 C63 1.178 . S
C1904 C825 1.865 . S
C1885 C106 1.876 . S
C1921 C97 1.183 . S
C1940 C435 1.269 . S
C1957 C81 2.442 . S
C1976 C786 2.461 . S
C2012 C502 0.853 . S
C1993 C13 0.846 . S
C2029 C55 0.526 . S
C2048 C711 0.386 . S
C2084 C585 0.431 . S
C2065 C35 0.357 . S
C2120 C871 0.832 . S
C2101 C21 0.889 . S
C2156 C345 1.904 1_556 S
C2137 C147 2.021 . S
C2192 C826 1.508 . S
C2173 C321 1.359 . S
C2209 C119 1.989 . S
C2228 C434 1.914 . S
C2245 C293 0.508 . S
C2264 C791 0.240 . S
C2281 C153 1.725 . S
C2300 C515 1.884 . S
C2336 C705 1.919 . S
C2317 C315 1.977 . S
C2353 C125 1.304 . S
C2372 C586 1.435 . S
C2389 C287 1.584 . S
C2408 C865 1.432 . S
C2425 C193 2.206 . S
C2444 C346 2.201 . S
C2461 C176 1.719 . S
C2480 C674 1.658 . S
C2497 C263 2.316 . S
C2516 C546 2.327 . S
C2533 C246 1.012 . S
C2552 C751 1.064 . S
C2588 C866 2.406 . S
C2569 C277 2.423 . S
C2605 C221 0.834 . S
C2624 C422 0.833 . S
C2660 C465 2.459 . S
C2641 C260 2.519 . S
C2696 C391 0.993 . S
C2677 C204 0.990 . S
C2713 C83 1.044 . S
C2732 C902 1.082 . S
C2768 C834 1.791 . S
C2749 C92 1.855 . S
C2785 C105 1.121 . S
C2804 C946 1.134 . S
C2821 C67 2.271 . S
C2840 C795 2.301 . S
C2857 C53 0.643 . S
C2876 C671 0.589 . S
C2912 C702 0.383 . S
C2893 C8 0.343 . S
C2948 C754 0.466 . S
C2929 C22 0.532 . S
C2984 C862 1.007 . S
C2965 C39 1.003 . S
C3020 C914 1.777 . S
C3001 C265 1.764 . S
C3037 C189 1.439 1_556 S
C3056 C835 1.459 . S
C3092 C945 1.774 . S
C3073 C209 1.734 . S
C3128 C782 0.285 . S
C3109 C217 0.226 . S
C3164 C666 1.619 1_556 S
C3145 C259 1.620 . S
C3181 C195 1.797 . S
C3200 C714 1.916 . S
C3236 C755 1.372 . S
C3217 C203 1.366 . S
C3253 C223 1.448 . S
C3272 C874 1.375 . S
C3308 C915 2.092 . S
C3289 C319 2.098 . S
C3325 C134 1.532 . S
C3344 C505 1.588 . S
C3380 C555 2.322 . S
C3361 C151 2.353 . S
C3416 C582 0.928 . S
C3397 C162 0.908 . S
C3452 C875 2.310 . S
C3433 C305 2.330 . S
C3469 C291 0.725 1_554 S
C3488 C951 0.804 . S
C3524 C474 2.399 . S
C3505 C148 2.409 . S
C3560 C382 0.863 . S
C3541 C120 0.898 . S
C3577 C91 1.177 . S
C3596 C911 1.179 . S
C3632 C385 1.843 . S
C3613 C78 1.877 . S
C3649 C69 1.182 . S
C3668 C955 1.276 . S
C3685 C109 2.441 . S
C3704 C466 2.451 . S
C3721 C41 0.832 . S
C3740 C662 0.799 . S
C3776 C551 0.302 . S
C3757 C27 0.514 . S
C3793 C7 0.354 . S
C3812 C745 0.320 . S
C3829 C49 0.892 . S
C3848 C631 0.845 . S
C3884 C905 1.860 . S
C3865 C329 2.024 . S
C3901 C167 1.359 . S
C3920 C386 1.508 . S
C3956 C954 1.862 1_556 S
C3937 C301 1.996 . S
C3973 C139 0.498 . S
C3992 C471 0.213 . S
C4009 C335 1.725 . S
C4028 C675 1.883 . S
C4064 C545 1.923 . S
C4045 C161 1.976 . S
C4081 C307 1.310 . S
C4100 C746 1.417 1_655 S
C4136 C625 1.499 . S
C4117 C133 1.579 . S
C4172 C906 2.208 . S
C4153 C249 2.206 . S
C4208 C514 1.647 . S
C4189 C218 1.713 . S
C4225 C235 2.317 . S
C4244 C706 2.333 . S
C4280 C591 1.059 . S
C4261 C190 1.025 . S
C4297 C207 2.423 . S
C4316 C626 2.408 . S
C4333 C179 0.835 . S
C4352 C942 0.848 . S
C4388 C785 2.458 . S
C4369 C232 2.518 . S
C4424 C831 1.016 . S
C4405 C274 0.980 . S
