# Generated by pormake.
# Topology cml, (3,6)-cn, num edge types: 1
# Building blocks:
#     Node 0, Type 0, BuildingBlock: WUSLED_clean_sbu_0, # of connection points: 3
#     Node 1, Type 0, BuildingBlock: WUSLED_clean_sbu_0, # of connection points: 3
#     Node 2, Type 0, BuildingBlock: WUSLED_clean_sbu_0, # of connection points: 3
#     Node 3, Type 0, BuildingBlock: WUSLED_clean_sbu_0, # of connection points: 3
#     Node 4, Type 0, BuildingBlock: WUSLED_clean_sbu_0, # of connection points: 3
#     Node 5, Type 0, BuildingBlock: WUSLED_clean_sbu_0, # of connection points: 3
#     Node 6, Type 0, BuildingBlock: WUSLED_clean_sbu_0, # of connection points: 3
#     Node 7, Type 0, BuildingBlock: WUSLED_clean_sbu_0, # of connection points: 3
#     Node 8, Type 1, BuildingBlock: OJICUG_clean_sbu_0, # of connection points: 6
#     Node 9, Type 1, BuildingBlock: OJICUG_clean_sbu_0, # of connection points: 6
#     Node 10, Type 1, BuildingBlock: OJICUG_clean_sbu_0, # of connection points: 6
#     Node 11, Type 1, BuildingBlock: OJICUG_clean_sbu_0, # of connection points: 6
#     Edge 12, Type (0, 1), BuildingBlock: OJICUG_clean_linker_0, # of connection points: 2
#     Edge 13, Type (0, 1), BuildingBlock: OJICUG_clean_linker_0, # of connection points: 2
#     Edge 14, Type (0, 1), BuildingBlock: OJICUG_clean_linker_0, # of connection points: 2
#     Edge 15, Type (0, 1), BuildingBlock: OJICUG_clean_linker_0, # of connection points: 2
#     Edge 16, Type (0, 1), BuildingBlock: OJICUG_clean_linker_0, # of connection points: 2
#     Edge 17, Type (0, 1), BuildingBlock: OJICUG_clean_linker_0, # of connection points: 2
#     Edge 18, Type (0, 1), BuildingBlock: OJICUG_clean_linker_0, # of connection points: 2
#     Edge 19, Type (0, 1), BuildingBlock: OJICUG_clean_linker_0, # of connection points: 2
#     Edge 20, Type (0, 1), BuildingBlock: OJICUG_clean_linker_0, # of connection points: 2
#     Edge 21, Type (0, 1), BuildingBlock: OJICUG_clean_linker_0, # of connection points: 2
#     Edge 22, Type (0, 1), BuildingBlock: OJICUG_clean_linker_0, # of connection points: 2
#     Edge 23, Type (0, 1), BuildingBlock: OJICUG_clean_linker_0, # of connection points: 2
#     Edge 24, Type (0, 1), BuildingBlock: OJICUG_clean_linker_0, # of connection points: 2
#     Edge 25, Type (0, 1), BuildingBlock: OJICUG_clean_linker_0, # of connection points: 2
#     Edge 26, Type (0, 1), BuildingBlock: OJICUG_clean_linker_0, # of connection points: 2
#     Edge 27, Type (0, 1), BuildingBlock: OJICUG_clean_linker_0, # of connection points: 2
#     Edge 28, Type (0, 1), BuildingBlock: OJICUG_clean_linker_0, # of connection points: 2
#     Edge 29, Type (0, 1), BuildingBlock: OJICUG_clean_linker_0, # of connection points: 2
#     Edge 30, Type (0, 1), BuildingBlock: OJICUG_clean_linker_0, # of connection points: 2
#     Edge 31, Type (0, 1), BuildingBlock: OJICUG_clean_linker_0, # of connection points: 2
#     Edge 32, Type (0, 1), BuildingBlock: OJICUG_clean_linker_0, # of connection points: 2
#     Edge 33, Type (0, 1), BuildingBlock: OJICUG_clean_linker_0, # of connection points: 2
#     Edge 34, Type (0, 1), BuildingBlock: OJICUG_clean_linker_0, # of connection points: 2
#     Edge 35, Type (0, 1), BuildingBlock: OJICUG_clean_linker_0, # of connection points: 2
# Relax obj value: 0.068
# Max RMSD: 0.082
# Mean RMSD: 0.078
data_MOF--net-cml--node1-WUSLED_clean_sbu_0--node2-OJICUG_clean_sbu_0--edge1-OJICUG_clean_linker_0
_symmetry_space_group_name_H-M    P1
_symmetry_Int_Tables_number       1
_symmetry_cell_setting            triclinic
loop_
_symmetry_equiv_pos_as_xyz
'x, y, z'
_cell_length_a     40.067244
_cell_length_b     40.56046
_cell_length_c     37.745438
_cell_angle_alpha  90.641584
_cell_angle_beta   89.813118
_cell_angle_gamma 90.449991
loop_
_atom_site_label
_atom_site_type_symbol
_atom_site_fract_x
_atom_site_fract_y
_atom_site_fract_z
_atom_type_partial_charge
C0 C 0.29583 0.48522 0.96037 0.0
C1 C 0.32141 0.49389 0.9842 0.0
C2 C 0.34513 0.53192 0.94109 0.0
C3 C 0.34583 0.51718 0.97467 0.0
C4 C 0.31856 0.5241 0.91809 0.0
C5 C 0.29425 0.50094 0.92761 0.0
U6 U 0.26563 0.41469 0.01855 0.0
O7 O 0.21465 0.39694 0.03094 0.0
O8 O 0.25038 0.36428 1.00396 0.0
C9 C 0.21974 0.36806 0.01575 0.0
C10 C 0.27214 0.45825 0.96798 0.0
C11 C 0.19288 0.35425 0.9932 0.0
C12 C 0.16842 0.34155 0.93543 0.0
C13 C 0.19135 0.35948 0.95644 0.0
C14 C 0.1475 0.31453 0.98797 0.0
C15 C 0.14703 0.31798 0.95091 0.0
C16 C 0.17018 0.33235 1.00876 0.0
C17 C 0.32136 0.40444 0.10399 0.0
C18 C 0.33217 0.35886 0.14388 0.0
C19 C 0.35889 0.41192 0.15376 0.0
C20 C 0.34262 0.42446 0.12435 0.0
C21 C 0.35421 0.37892 0.16384 0.0
C22 C 0.31577 0.37157 0.11409 0.0
C23 C 0.3087 0.41838 0.0708 0.0
O24 O 0.28487 0.42854 0.96616 0.0
O25 O 0.25244 0.46258 0.99554 0.0
O26 O 0.27978 0.43346 0.07163 0.0
O27 O 0.31397 0.40147 0.04146 0.0
H28 H 0.32306 0.48192 0.00964 0.0
H29 H 0.36602 0.5225 0.99291 0.0
H30 H 0.31695 0.53539 0.89229 0.0
H31 H 0.27468 0.49462 0.90893 0.0
H32 H 0.16856 0.34495 0.90701 0.0
H33 H 0.20865 0.3764 0.94389 0.0
H34 H 0.13086 0.29724 1.00093 0.0
H35 H 0.17084 0.32801 0.03703 0.0
H36 H 0.32789 0.33341 0.1511 0.0
H37 H 0.37617 0.42794 0.16788 0.0
H38 H 0.34762 0.44972 0.11675 0.0
H39 H 0.29947 0.35566 0.09858 0.0
C40 C 0.70322 0.64225 0.6075 0.0
C41 C 0.67687 0.61915 0.60869 0.0
C42 C 0.65502 0.64564 0.66235 0.0
C43 C 0.65301 0.62075 0.63604 0.0
C44 C 0.68203 0.66793 0.66143 0.0
C45 C 0.70582 0.66621 0.63434 0.0
U46 U 0.73852 0.6093 0.51933 0.0
O47 O 0.755 0.63564 0.47176 0.0
O48 O 0.79075 0.60532 0.501 0.0
C49 C 0.78572 0.62477 0.4739 0.0
C50 C 0.72748 0.64304 0.57798 0.0
C51 C 0.81247 0.64777 0.46345 0.0
C52 C 0.85187 0.69285 0.47376 0.0
C53 C 0.82719 0.67107 0.48651 0.0
C54 C 0.84679 0.66812 0.4153 0.0
C55 C 0.86188 0.69163 0.43783 0.0
C56 C 0.82267 0.64643 0.42803 0.0
C57 C 0.68802 0.53154 0.48302 0.0
C58 C 0.6675 0.50956 0.42676 0.0
C59 C 0.65721 0.47997 0.48117 0.0
C60 C 0.67496 0.50386 0.50007 0.0
C61 C 0.65189 0.48327 0.44464 0.0
C62 C 0.68537 0.5338 0.44594 0.0
C63 C 0.69873 0.55915 0.50604 0.0
O64 O 0.74858 0.61842 0.57599 0.0
O65 O 0.71536 0.6513 0.54704 0.0
O66 O 0.72672 0.55628 0.52377 0.0
O67 O 0.69251 0.58931 0.49572 0.0
H68 H 0.67444 0.60036 0.5882 0.0
H69 H 0.63249 0.6032 0.63598 0.0
H70 H 0.68471 0.68692 0.68164 0.0
H71 H 0.72607 0.68407 0.63404 0.0
H72 H 0.86313 0.71045 0.49199 0.0
H73 H 0.81957 0.67252 0.51404 0.0
H74 H 0.85296 0.66681 0.38739 0.0
H75 H 0.81145 0.62876 0.4098 0.0
H76 H 0.66407 0.51254 0.39853 0.0
H77 H 0.64619 0.45964 0.49558 0.0
H78 H 0.67666 0.5017 0.5286 0.0
H79 H 0.69544 0.55497 0.43219 0.0
C80 C 0.70817 0.47376 0.95229 0.0
C81 C 0.68173 0.48176 0.97531 0.0
C82 C 0.6615 0.52236 0.93346 0.0
C83 C 0.65863 0.50596 0.96602 0.0
C84 C 0.68862 0.51481 0.91107 0.0
C85 C 0.71167 0.49074 0.92041 0.0
U86 U 0.73693 0.40497 0.01241 0.0
O87 O 0.75363 0.3547 1.0001 0.0
O88 O 0.78762 0.38934 0.02732 0.0
C89 C 0.78382 0.36005 0.01253 0.0
C90 C 0.73152 0.44704 0.96046 0.0
C91 C 0.81165 0.34765 0.99054 0.0
C92 C 0.83662 0.33429 0.93316 0.0
C93 C 0.81238 0.3509 0.95346 0.0
C94 C 0.86055 0.31286 0.98695 0.0
C95 C 0.86022 0.31408 0.9497 0.0
C96 C 0.8365 0.32935 1.00706 0.0
C97 C 0.68074 0.3959 0.09754 0.0
C98 C 0.66784 0.35064 0.13733 0.0
C99 C 0.64697 0.40545 0.14994 0.0
C100 C 0.66274 0.41719 0.11967 0.0
C101 C 0.64893 0.372 0.15904 0.0
C102 C 0.68372 0.36255 0.1067 0.0
C103 C 0.6928 0.40928 0.06374 0.0
O104 O 0.7509 0.45219 0.98803 0.0
O105 O 0.71863 0.41716 0.95932 0.0
O106 O 0.68834 0.39106 0.03511 0.0
O107 O 0.72125 0.42563 0.06407 0.0
H108 H 0.67862 0.46884 1.00009 0.0
H109 H 0.6379 0.51098 0.98371 0.0
H110 H 0.69185 0.5273 0.88607 0.0
H111 H 0.73198 0.485 0.9024 0.0
H112 H 0.83583 0.3359 0.90455 0.0
H113 H 0.79348 0.36514 0.94019 0.0
H114 H 0.87886 0.29819 1.0006 0.0
H115 H 0.83654 0.3267 0.0356 0.0
H116 H 0.66995 0.32479 0.14377 0.0
H117 H 0.63205 0.42249 0.16545 0.0
H118 H 0.65981 0.44289 0.11282 0.0
H119 H 0.69752 0.34568 0.08983 0.0
C120 C 0.30511 0.62774 0.61205 0.0
C121 C 0.32898 0.60331 0.61811 0.0
C122 C 0.35236 0.63651 0.66671 0.0
C123 C 0.35243 0.60764 0.64544 0.0
C124 C 0.32788 0.66035 0.66071 0.0
C125 C 0.3046 0.65597 0.63372 0.0
U126 U 0.26014 0.59937 0.52322 0.0
O127 O 0.20591 0.60301 0.51287 0.0
O128 O 0.24224 0.63503 0.48455 0.0
C129 C 0.2112 0.62511 0.4882 0.0
C130 C 0.28088 0.62613 0.58291 0.0
C131 C 0.18435 0.64533 0.47445 0.0
C132 C 0.1519 0.69543 0.47424 0.0
C133 C 0.174 0.67436 0.49142 0.0
C134 C 0.15043 0.6582 0.42354 0.0
C135 C 0.14054 0.68794 0.43966 0.0
C136 C 0.17197 0.63708 0.44089 0.0
C137 C 0.3096 0.52319 0.4786 0.0
C138 C 0.32337 0.48414 0.43184 0.0
C139 C 0.36155 0.49339 0.48079 0.0
C140 C 0.33955 0.51623 0.49576 0.0
C141 C 0.35393 0.47767 0.44833 0.0
C142 C 0.30134 0.50671 0.44696 0.0
C143 C 0.2882 0.55003 0.49051 0.0
O144 O 0.29146 0.63556 0.55162 0.0
O145 O 0.25944 0.60139 0.58171 0.0
O146 O 0.29855 0.58062 0.48689 0.0
O147 O 0.26492 0.5455 0.51466 0.0
H148 H 0.32978 0.58134 0.60156 0.0
H149 H 0.37107 0.58885 0.64936 0.0
H150 H 0.32666 0.68249 0.67695 0.0
H151 H 0.28626 0.67501 0.62947 0.0
H152 H 0.14423 0.7178 0.48778 0.0
H153 H 0.18362 0.68112 0.51731 0.0
H154 H 0.14274 0.65177 0.39687 0.0
H155 H 0.18022 0.61488 0.42731 0.0
H156 H 0.31675 0.47211 0.40704 0.0
H157 H 0.38509 0.48899 0.49388 0.0
H158 H 0.3463 0.52913 0.52001 0.0
H159 H 0.2783 0.51213 0.43329 0.0
C160 C 0.7948 0.98347 0.95868 0.0
C161 C 0.82022 0.99262 0.98251 0.0
C162 C 0.84469 0.02928 0.93843 0.0
C163 C 0.84491 0.01547 0.97251 0.0
C164 C 0.81834 0.02094 0.91536 0.0
C165 C 0.79373 0.99825 0.92538 0.0
U166 U 0.7641 0.91345 0.01763 0.0
O167 O 0.71308 0.89546 0.0293 0.0
O168 O 0.74944 0.86272 1.00349 0.0
C169 C 0.71865 0.86634 0.01484 0.0
C170 C 0.77083 0.95678 0.9668 0.0
C171 C 0.69242 0.8517 0.99207 0.0
C172 C 0.6587 0.84937 0.93835 0.0
C173 C 0.68171 0.86614 0.96037 0.0
C174 C 0.65699 0.80413 0.97967 0.0
C175 C 0.64675 0.81788 0.9476 0.0
C176 C 0.67943 0.82092 1.00168 0.0
C177 C 0.82254 0.90444 0.10202 0.0
C178 C 0.82929 0.86377 0.14859 0.0
C179 C 0.86722 0.91039 0.1448 0.0
C180 C 0.85012 0.92175 0.11542 0.0
C181 C 0.85713 0.88136 0.16192 0.0
C182 C 0.81196 0.87532 0.11874 0.0
C183 C 0.80771 0.91725 0.06932 0.0
O184 O 0.78322 0.92693 0.96508 0.0
O185 O 0.75134 0.96143 0.99448 0.0
O186 O 0.77839 0.93155 0.07097 0.0
O187 O 0.8128 0.90047 0.03988 0.0
H188 H 0.82153 0.98136 1.00836 0.0
H189 H 0.8649 0.02122 0.99086 0.0
H190 H 0.81705 0.03154 0.88919 0.0
H191 H 0.77432 0.99155 0.90666 0.0
H192 H 0.65111 0.86043 0.91368 0.0
H193 H 0.6916 0.88986 0.95237 0.0
H194 H 0.64789 0.78006 0.98753 0.0
H195 H 0.68733 0.80937 0.02598 0.0
H196 H 0.82089 0.84137 0.16131 0.0
H197 H 0.88891 0.9242 0.15377 0.0
H198 H 0.85893 0.944 0.10265 0.0
H199 H 0.79075 0.86149 0.10861 0.0
C200 C 0.20547 0.14801 0.60825 0.0
C201 C 0.17952 0.12454 0.60972 0.0
C202 C 0.15724 0.15104 0.66307 0.0
C203 C 0.15566 0.12598 0.63695 0.0
C204 C 0.18374 0.17399 0.66176 0.0
C205 C 0.20757 0.17247 0.63463 0.0
U206 U 0.23542 0.11158 0.52115 0.0
O207 O 0.25142 0.13451 0.47144 0.0
O208 O 0.28579 0.10212 0.49979 0.0
C209 C 0.28132 0.12147 0.47252 0.0
C210 C 0.22958 0.14806 0.57864 0.0
C211 C 0.30918 0.14323 0.46248 0.0
C212 C 0.34232 0.19338 0.46894 0.0
C213 C 0.31741 0.17199 0.48163 0.0
C214 C 0.35083 0.1572 0.41828 0.0
C215 C 0.35901 0.18651 0.43669 0.0
C216 C 0.32641 0.1358 0.43118 0.0
C217 C 0.18 0.03714 0.48967 0.0
C218 C 0.17711 0.00772 0.43322 0.0
C219 C 0.14225 0.99081 0.48253 0.0
C220 C 0.15587 0.01581 0.50345 0.0
C221 C 0.15256 0.98643 0.44721 0.0
C222 C 0.19092 0.033 0.45448 0.0
C223 C 0.1914 0.06407 0.51291 0.0
O224 O 0.24933 0.12237 0.57652 0.0
O225 O 0.21717 0.15643 0.54786 0.0
O226 O 0.18669 0.09423 0.50175 0.0
O227 O 0.21994 0.06004 0.52928 0.0
H228 H 0.17742 0.10546 0.58951 0.0
H229 H 0.1355 0.10804 0.637 0.0
H230 H 0.18606 0.19321 0.68176 0.0
H231 H 0.22747 0.19069 0.63401 0.0
H232 H 0.34826 0.21535 0.48429 0.0
H233 H 0.30428 0.17811 0.50593 0.0
H234 H 0.36238 0.15114 0.39311 0.0
H235 H 0.32022 0.11378 0.41597 0.0
H236 H 0.18539 0.00492 0.40601 0.0
H237 H 0.12275 0.97551 0.49382 0.0
H238 H 0.14693 0.01893 0.53041 0.0
H239 H 0.20956 0.04945 0.44342 0.0
C240 C 0.20749 0.97387 0.95085 0.0
C241 C 0.17867 0.97833 0.97165 0.0
C242 C 0.16095 0.02318 0.93371 0.0
C243 C 0.1556 1.00281 0.96318 0.0
C244 C 0.19048 0.01927 0.91382 0.0
C245 C 0.21347 0.99484 0.92229 0.0
U246 U 0.23578 0.90454 0.00963 0.0
O247 O 0.25061 0.85361 0.99741 0.0
O248 O 0.28586 0.88728 0.02425 0.0
C249 C 0.28082 0.85784 0.0102 0.0
C250 C 0.23081 0.94682 0.95789 0.0
C251 C 0.30822 0.84356 0.9891 0.0
C252 C 0.34452 0.84108 0.93716 0.0
C253 C 0.31894 0.85665 0.95662 0.0
C254 C 0.34842 0.79956 0.98255 0.0
C255 C 0.35966 0.81236 0.95008 0.0
C256 C 0.32318 0.81504 1.00179 0.0
C257 C 0.17953 0.89751 0.09476 0.0
C258 C 0.17143 0.85418 0.13817 0.0
C259 C 0.14265 0.90625 0.14476 0.0
C260 C 0.15772 0.91761 0.114 0.0
C261 C 0.14915 0.87444 0.15724 0.0
C262 C 0.18669 0.86573 0.10701 0.0
C263 C 0.19199 0.91041 0.06103 0.0
O264 O 0.25082 0.95141 0.98506 0.0
O265 O 0.21757 0.91708 0.95665 0.0
O266 O 0.18684 0.89223 0.03252 0.0
O267 O 0.22104 0.92568 0.06133 0.0
H268 H 0.17368 0.9624 0.99394 0.0
H269 H 0.13304 0.00497 0.97888 0.0
H270 H 0.19565 0.03488 0.89132 0.0
H271 H 0.23566 0.99194 0.90612 0.0
H272 H 0.35264 0.85164 0.91233 0.0
H273 H 0.3075 0.87866 0.94633 0.0
H274 H 0.3588 0.77711 0.993 0.0
H275 H 0.31504 0.8044 0.02661 0.0
H276 H 0.17688 0.82957 0.14725 0.0
H277 H 0.12503 0.9222 0.15827 0.0
H278 H 0.15162 0.94202 0.1047 0.0
H279 H 0.20349 0.84984 0.0923 0.0
C280 C 0.8072 0.12683 0.61193 0.0
C281 C 0.83163 0.10313 0.61835 0.0
C282 C 0.8536 0.13723 0.66688 0.0
C283 C 0.85466 0.10826 0.64582 0.0
C284 C 0.82852 0.16035 0.66059 0.0
C285 C 0.80559 0.15515 0.63342 0.0
U286 U 0.76148 0.09889 0.52281 0.0
O287 O 0.70748 0.10563 0.51481 0.0
O288 O 0.7444 0.13672 0.48565 0.0
C289 C 0.71304 0.1293 0.49197 0.0
C290 C 0.78381 0.12451 0.58226 0.0
C291 C 0.68582 0.14639 0.47468 0.0
C292 C 0.64563 0.19056 0.47575 0.0
C293 C 0.66795 0.17037 0.49347 0.0
C294 C 0.65799 0.1619 0.42056 0.0
C295 C 0.64097 0.18704 0.43892 0.0
C296 C 0.68042 0.14182 0.43833 0.0
C297 C 0.80881 0.02176 0.47842 0.0
C298 C 0.82469 0.98266 0.43248 0.0
C299 C 0.86089 0.99222 0.48302 0.0
C300 C 0.8381 0.01495 0.49701 0.0
C301 C 0.85475 0.9766 0.45012 0.0
C302 C 0.80192 0.00501 0.4466 0.0
C303 C 0.78674 0.04883 0.48838 0.0
O304 O 0.79494 0.13328 0.55096 0.0
O305 O 0.76185 0.10022 0.58133 0.0
O306 O 0.79786 0.07917 0.4848 0.0
O307 O 0.76388 0.04501 0.51314 0.0
H308 H 0.83322 0.08115 0.60188 0.0
H309 H 0.87381 0.09002 0.64998 0.0
H310 H 0.8266 0.18254 0.67669 0.0
H311 H 0.78677 0.17366 0.6288 0.0
H312 H 0.63248 0.20931 0.49079 0.0
H313 H 0.67224 0.17433 0.52154 0.0
H314 H 0.65514 0.15868 0.39221 0.0
H315 H 0.69438 0.12348 0.42351 0.0
H316 H 0.81915 0.97069 0.40735 0.0
H317 H 0.88399 0.98806 0.49704 0.0
H318 H 0.84384 0.02798 0.52147 0.0
H319 H 0.77944 0.01024 0.43184 0.0
Sc320 Sc 1.00337 0.80088 0.30958 0.0
Sc321 Sc 0.00651 0.88792 0.318 0.0
Sc322 Sc 0.00917 0.83977 0.3939 0.0
O323 O 1.00624 0.84268 0.34043 0.0
C324 C 0.95677 0.78258 0.37545 0.0
C325 C 0.95319 0.84936 0.26974 0.0
C326 C 0.95924 0.89966 0.38471 0.0
C327 C 0.05476 0.84647 0.26707 0.0
C328 C 0.05506 0.78018 0.36986 0.0
C329 C 0.06013 0.8987 0.37895 0.0
O330 O 0.96549 0.77895 0.34313 0.0
O331 O 0.96672 0.87498 0.28304 0.0
O332 O 0.97186 0.87651 0.40243 0.0
O333 O 0.04228 0.8182 0.27377 0.0
O334 O 0.04635 0.80272 0.39137 0.0
O335 O 0.04676 0.90681 0.34996 0.0
O336 O 0.04169 0.77579 0.33955 0.0
O337 O 0.04375 0.87304 0.28068 0.0
O338 O 0.0491 0.87515 0.39762 0.0
O339 O 0.96367 0.82039 0.27609 0.0
O340 O 0.97013 0.80352 0.39637 0.0
O341 O 0.96911 0.90695 0.35371 0.0
Sc342 Sc 1.00474 0.20875 0.81632 0.0
Sc343 Sc 1.00553 0.12168 0.82273 0.0
Sc344 Sc 1.00573 0.16982 0.90014 0.0
O345 O 1.00538 0.16691 0.84634 0.0
C346 C 0.0551 0.22902 0.87904 0.0
C347 C 0.0545 0.16208 0.77183 0.0
C348 C 0.05605 0.11008 0.88626 0.0
C349 C 0.95472 0.16021 0.77393 0.0
C350 C 0.95566 0.22834 0.87988 0.0
C351 C 0.95529 0.10974 0.88767 0.0
O352 O 0.04319 0.23341 0.84813 0.0
O353 O 0.04306 0.13551 0.78481 0.0
O354 O 0.04419 0.13274 0.90611 0.0
O355 O 0.96587 0.18905 0.78134 0.0
O356 O 0.96776 0.20706 0.90066 0.0
O357 O 0.96746 0.10246 0.85746 0.0
O358 O 0.96602 0.23207 0.84821 0.0
O359 O 0.96663 0.13433 0.7873 0.0
O360 O 0.96633 0.13361 0.90645 0.0
O361 O 0.04357 0.19043 0.78091 0.0
O362 O 0.04447 0.20663 0.89964 0.0
O363 O 0.04479 0.10389 0.8555 0.0
Sc364 Sc 0.50147 0.29688 0.30974 0.0
Sc365 Sc 0.50359 0.38397 0.31747 0.0
Sc366 Sc 0.50384 0.33644 0.394 0.0
O367 O 0.50294 0.33895 0.34036 0.0
C368 C 0.45367 0.27764 0.37428 0.0
C369 C 0.45089 0.34446 0.26942 0.0
C370 C 0.4545 0.39607 0.38298 0.0
C371 C 0.55246 0.34269 0.26704 0.0
C372 C 0.55221 0.278 0.3716 0.0
C373 C 0.55426 0.39634 0.38047 0.0
O374 O 0.46351 0.27391 0.34238 0.0
O375 O 0.46378 0.37046 0.28266 0.0
O376 O 0.4654 0.37206 0.40064 0.0
O377 O 0.54041 0.31437 0.27416 0.0
O378 O 0.54222 0.30034 0.39282 0.0
O379 O 0.54371 0.40264 0.34969 0.0
O380 O 0.53987 0.27325 0.34084 0.0
O381 O 0.5411 0.36923 0.28031 0.0
O382 O 0.54182 0.37389 0.39974 0.0
O383 O 0.46199 0.31569 0.27566 0.0
O384 O 0.46577 0.29909 0.3954 0.0
O385 O 0.46612 0.40383 0.35278 0.0
Sc386 Sc 0.50355 0.70773 0.81551 0.0
Sc387 Sc 0.50477 0.62111 0.82369 0.0
Sc388 Sc 0.50833 0.67082 0.90012 0.0
O389 O 0.50558 0.66671 0.84642 0.0
C390 C 0.55551 0.72995 0.87632 0.0
C391 C 0.55305 0.66049 0.77136 0.0
C392 C 0.55672 0.60954 0.8859 0.0
C393 C 0.4534 0.65836 0.77448 0.0
C394 C 0.45819 0.72983 0.8806 0.0
C395 C 0.45614 0.61158 0.89026 0.0
O396 O 0.541 0.73414 0.84672 0.0
O397 O 0.54119 0.6342 0.78452 0.0
O398 O 0.54557 0.63255 0.90574 0.0
O399 O 0.46513 0.68713 0.78083 0.0
O400 O 0.4725 0.71011 0.90159 0.0
O401 O 0.46791 0.60332 0.86018 0.0
O402 O 0.46457 0.73054 0.8475 0.0
O403 O 0.46478 0.63276 0.78892 0.0
O404 O 0.46764 0.63587 0.90826 0.0
O405 O 0.54276 0.68915 0.78041 0.0
O406 O 0.54833 0.70655 0.89726 0.0
O407 O 0.54485 0.60343 0.85541 0.0
C408 C 0.12389 0.26168 0.93817 0.0
C409 C 0.12584 0.29515 0.92909 0.0
H410 H 0.10066 0.21485 0.92928 0.0
C411 C 0.10673 0.30615 0.90033 0.0
H412 H 0.13896 0.25205 0.9594 0.0
C413 C 0.08475 0.28441 0.8825 0.0
C414 C 0.08155 0.25137 0.89322 0.0
H415 H 0.10775 0.33177 0.89257 0.0
H416 H 0.06923 0.29379 0.8615 0.0
C417 C 0.10203 0.24022 0.92067 0.0
C418 C 0.90867 0.70467 0.39545 0.0
C419 C 0.88713 0.71498 0.42298 0.0
H420 H 0.94667 0.71815 0.3582 0.0
C421 C 0.88876 0.74806 0.43452 0.0
H422 H 0.90897 0.67924 0.38647 0.0
C423 C 0.91108 0.77019 0.4187 0.0
C424 C 0.93176 0.75989 0.3906 0.0
H425 H 0.87239 0.75708 0.45528 0.0
H426 H 0.91192 0.79549 0.4282 0.0
C427 C 0.93033 0.72695 0.37913 0.0
C428 C 0.88686 0.2593 0.93988 0.0
C429 C 0.88273 0.29199 0.92891 0.0
H430 H 0.91252 0.21382 0.93284 0.0
C431 C 0.9007 0.30294 0.89907 0.0
H432 H 0.8727 0.24969 0.96202 0.0
C433 C 0.92359 0.28197 0.88185 0.0
C434 C 0.92885 0.2498 0.89429 0.0
H435 H 0.89794 0.32797 0.88988 0.0
H436 H 0.93806 0.29133 0.8598 0.0
C437 C 0.90962 0.23861 0.92297 0.0
C438 C 0.09476 0.70031 0.39621 0.0
C439 C 0.11975 0.71157 0.41973 0.0
H440 H 0.05519 0.7134 0.361 0.0
C441 C 0.12521 0.74569 0.42352 0.0
H442 H 0.08958 0.67423 0.39287 0.0
C443 C 0.10525 0.76796 0.40559 0.0
C444 C 0.07977 0.75667 0.38296 0.0
H445 H 0.1448 0.75531 0.44051 0.0
H446 H 0.10925 0.79414 0.41003 0.0
C447 C 0.07515 0.72268 0.37775 0.0
C448 C 0.63538 0.76685 0.91199 0.0
C449 C 0.62479 0.79806 0.92383 0.0
H450 H 0.62161 0.72085 0.88719 0.0
C451 C 0.59204 0.80801 0.91649 0.0
H452 H 0.66052 0.75868 0.91735 0.0
C453 C 0.56987 0.7864 0.89898 0.0
C454 C 0.58019 0.75463 0.88867 0.0
H455 H 0.58314 0.83169 0.92593 0.0
H456 H 0.54421 0.7938 0.89523 0.0
C457 C 0.61324 0.74527 0.89475 0.0
C458 C 0.41056 0.19858 0.4003 0.0
C459 C 0.38378 0.21011 0.42126 0.0
H460 H 0.45293 0.21103 0.3681 0.0
C461 C 0.38013 0.24441 0.42595 0.0
H462 H 0.41498 0.17246 0.39682 0.0
C463 C 0.40263 0.2664 0.41025 0.0
C464 C 0.42866 0.25466 0.38872 0.0
H465 H 0.35963 0.25442 0.44128 0.0
H466 H 0.39951 0.29265 0.41462 0.0
C467 C 0.43241 0.22063 0.38378 0.0
C468 C 0.41333 0.78129 0.94964 0.0
C469 C 0.38695 0.79505 0.9305 0.0
H470 H 0.45582 0.75011 0.94911 0.0
C471 C 0.3858 0.78966 0.89356 0.0
H472 H 0.41574 0.78576 0.97787 0.0
C473 C 0.40941 0.76923 0.87669 0.0
C474 C 0.43431 0.75368 0.89659 0.0
H475 H 0.3659 0.80003 0.87797 0.0
H476 H 0.40742 0.76467 0.84845 0.0
C477 C 0.43641 0.76076 0.93305 0.0
C478 C 0.59873 0.19975 0.39187 0.0
C479 C 0.61969 0.21053 0.41959 0.0
H480 H 0.56111 0.21289 0.35437 0.0
C481 C 0.62034 0.24416 0.42883 0.0
H482 H 0.59756 0.17395 0.38424 0.0
C483 C 0.59945 0.26625 0.41195 0.0
C484 C 0.57765 0.25534 0.38514 0.0
H485 H 0.63688 0.25347 0.44934 0.0
H486 H 0.59992 0.29188 0.42039 0.0
C487 C 0.57797 0.22202 0.37466 0.0
C488 C 0.38571 0.54888 0.89417 0.0
C489 C 0.3732 0.55319 0.92868 0.0
H490 H 0.42116 0.5636 0.8552 0.0
C491 C 0.38816 0.57717 0.95087 0.0
H492 H 0.37525 0.53027 0.87655 0.0
C493 C 0.41497 0.59649 0.93859 0.0
C494 C 0.42751 0.59192 0.90401 0.0
H495 H 0.37898 0.58118 0.97757 0.0
H496 H 0.42595 0.6148 0.9562 0.0
C497 C 0.41239 0.56791 0.88202 0.0
C498 C 0.59708 0.4538 0.44449 0.0
C499 C 0.62718 0.46123 0.42689 0.0
H500 H 0.55092 0.42701 0.44366 0.0
C501 C 0.63297 0.44743 0.39308 0.0
H502 H 0.5913 0.46486 0.47002 0.0
C503 C 0.60923 0.42617 0.37761 0.0
C504 C 0.57976 0.41819 0.39602 0.0
H505 H 0.65593 0.45267 0.37894 0.0
H506 H 0.61406 0.41556 0.35164 0.0
C507 C 0.57388 0.43222 0.42944 0.0
C508 C 0.62131 0.56912 0.94503 0.0
C509 C 0.63534 0.54569 0.92167 0.0
H510 H 0.58575 0.60802 0.95213 0.0
C511 C 0.62371 0.54406 0.88663 0.0
H512 H 0.62991 0.57114 0.97214 0.0
C513 C 0.5986 0.56501 0.87521 0.0
C514 C 0.5843 0.58834 0.89847 0.0
H515 H 0.63354 0.52602 0.86806 0.0
H516 H 0.59025 0.56265 0.84803 0.0
C517 C 0.59615 0.59034 0.93351 0.0
C518 C 0.39538 0.4322 0.45092 0.0
C519 C 0.37842 0.45569 0.43102 0.0
H520 H 0.43254 0.3949 0.45134 0.0
C521 C 0.3858 0.45883 0.39475 0.0
H522 H 0.38989 0.42905 0.4788 0.0
C523 C 0.41035 0.43932 0.3789 0.0
C524 C 0.42773 0.41616 0.399 0.0
H525 H 0.37319 0.47695 0.37885 0.0
H526 H 0.41581 0.44252 0.35101 0.0
C527 C 0.41968 0.41255 0.43507 0.0
C528 C 0.88724 0.07495 0.94779 0.0
C529 C 0.8728 0.05049 0.92586 0.0
H530 H 0.92437 0.1131 0.95298 0.0
C531 C 0.88576 0.04584 0.89153 0.0
H532 H 0.87771 0.07931 0.9743 0.0
C533 C 0.91237 0.06505 0.87934 0.0
C534 C 0.92689 0.08955 0.90111 0.0
H535 H 0.87566 0.02687 0.87411 0.0
H536 H 0.92156 0.06055 0.85272 0.0
C537 C 0.9139 0.09439 0.93549 0.0
C538 C 0.12208 0.96883 0.39214 0.0
C539 C 0.13544 0.96096 0.42531 0.0
H540 H 0.0876 0.95517 0.3512 0.0
C541 C 0.12766 0.93023 0.44019 0.0
H542 H 0.12774 0.99229 0.37998 0.0
C543 C 0.10438 0.90929 0.42416 0.0
C544 C 0.08857 0.91846 0.39266 0.0
H545 H 0.13819 0.92321 0.46539 0.0
H546 H 0.09773 0.8866 0.4374 0.0
C547 C 0.09883 0.94769 0.37588 0.0
C548 C 0.12716 0.04913 0.886 0.0
C549 C 0.13496 0.0468 0.92213 0.0
H550 H 0.09662 0.07079 0.84653 0.0
C551 C 0.11716 0.06639 0.94665 0.0
H552 H 0.13996 0.03411 0.86641 0.0
C553 C 0.09202 0.08766 0.93517 0.0
C554 C 0.08391 0.08941 0.899 0.0
H555 H 0.12272 0.06532 0.97467 0.0
H556 H 0.07852 0.10219 0.95465 0.0
C557 C 0.10201 0.07005 0.87462 0.0
C558 C 0.88862 0.96018 0.39712 0.0
C559 C 0.88047 0.9558 0.43304 0.0
H560 H 0.91998 0.94607 0.35368 0.0
C561 C 0.89775 0.93229 0.45263 0.0
H562 H 0.87582 0.97834 0.38144 0.0
C563 C 0.92307 0.91384 0.43679 0.0
C564 C 0.93183 0.91873 0.40107 0.0
H565 H 0.89166 0.92817 0.48022 0.0
H566 H 0.93602 0.89599 0.45273 0.0
C567 C 0.9141 0.94189 0.38131 0.0
C568 C 0.37913 0.38616 0.22411 0.0
C569 C 0.37388 0.36601 0.19411 0.0
H570 H 0.40722 0.39499 0.27117 0.0
C571 C 0.39089 0.33577 0.1917 0.0
H572 H 0.36586 0.40918 0.22735 0.0
C573 C 0.41471 0.32734 0.21732 0.0
C574 C 0.42194 0.34914 0.24555 0.0
H575 H 0.38734 0.31964 0.16895 0.0
H576 H 0.42879 0.30484 0.21387 0.0
C577 C 0.4029 0.37796 0.24929 0.0
C578 C 0.61613 0.6217 0.70813 0.0
C579 C 0.62877 0.64926 0.69019 0.0
H580 H 0.58294 0.60362 0.74799 0.0
C581 C 0.61646 0.68067 0.69933 0.0
H582 H 0.6253 0.59722 0.70202 0.0
C583 C 0.59215 0.68448 0.72577 0.0
C584 C 0.57952 0.65694 0.7438 0.0
H585 H 0.62537 0.70239 0.68568 0.0
H586 H 0.58311 0.709 0.73185 0.0
C587 C 0.59192 0.62549 0.73466 0.0
C588 C 0.6267 0.37985 0.22045 0.0
C589 C 0.62926 0.35996 0.18987 0.0
H590 H 0.60044 0.38988 0.26857 0.0
C591 C 0.60947 0.33117 0.1874 0.0
H592 H 0.64219 0.40168 0.22369 0.0
C593 C 0.5856 0.32409 0.21362 0.0
C594 C 0.58104 0.3459 0.24238 0.0
H595 H 0.61089 0.3153 0.16419 0.0
H596 H 0.56939 0.30279 0.21023 0.0
C597 C 0.60274 0.37307 0.24619 0.0
C598 C 0.38728 0.61679 0.71728 0.0
C599 C 0.37782 0.64233 0.69476 0.0
H600 H 0.41788 0.60196 0.76035 0.0
C601 C 0.39254 0.67373 0.69951 0.0
H602 H 0.37602 0.59252 0.71477 0.0
C603 C 0.41649 0.67934 0.72588 0.0
C604 C 0.42633 0.65362 0.74805 0.0
H605 H 0.38601 0.69391 0.68238 0.0
H606 H 0.42773 0.70362 0.72837 0.0
C607 C 0.41116 0.62236 0.7436 0.0
C608 C 0.88678 0.89402 0.21847 0.0
C609 C 0.87654 0.87039 0.19325 0.0
H610 H 0.9184 0.90594 0.26192 0.0
C611 C 0.88854 0.83797 0.1961 0.0
H612 H 0.8775 0.91902 0.21755 0.0
C613 C 0.91242 0.83021 0.222 0.0
C614 C 0.92458 0.8548 0.24536 0.0
H615 H 0.88097 0.81917 0.17712 0.0
H616 H 0.92244 0.80551 0.22262 0.0
C617 C 0.91042 0.88642 0.24397 0.0
C618 C 0.11843 0.18483 0.7012 0.0
C619 C 0.13107 0.15381 0.69113 0.0
H620 H 0.08454 0.2119 0.73428 0.0
C621 C 0.11846 0.12562 0.70803 0.0
H622 H 0.12721 0.20703 0.68836 0.0
C623 C 0.09392 0.1284 0.73435 0.0
C624 C 0.08121 0.15945 0.74442 0.0
H625 H 0.12784 0.10138 0.70122 0.0
H626 H 0.08491 0.10607 0.74677 0.0
C627 C 0.09383 0.18763 0.72747 0.0
C628 C 0.12679 0.88481 0.21786 0.0
C629 C 0.13098 0.86294 0.18916 0.0
H630 H 0.09953 0.89669 0.26471 0.0
C631 C 0.11354 0.83268 0.18918 0.0
H632 H 0.14048 0.90795 0.21904 0.0
C633 C 0.08988 0.82601 0.21575 0.0
C634 C 0.08334 0.84965 0.24236 0.0
H635 H 0.11645 0.81526 0.16745 0.0
H636 H 0.07536 0.80341 0.2142 0.0
C637 C 0.10317 0.87837 0.24397 0.0
C638 C 0.8885 0.1183 0.71752 0.0
C639 C 0.87868 0.14369 0.69505 0.0
H640 H 0.91949 0.10376 0.76024 0.0
C641 C 0.89293 0.17532 0.69974 0.0
H642 H 0.87754 0.09389 0.71509 0.0
C643 C 0.91704 0.18119 0.72589 0.0
C644 C 0.92741 0.15552 0.74784 0.0
H645 H 0.886 0.19539 0.68263 0.0
H646 H 0.92806 0.20558 0.72834 0.0
C647 C 0.91247 0.12413 0.74358 0.0
loop_
_geom_bond_atom_site_label_1
_geom_bond_atom_site_label_2
_geom_bond_distance
_geom_bond_site_symmetry_2
_ccdc_geom_bond_type
C0 C1 1.264 . S
C0 C5 1.479 . S
C0 C10 1.465 . S
C1 C0 1.264 . S
C1 C3 1.339 . S
C1 H28 0.931 . S
C2 C3 1.395 . S
C2 C4 1.320 . S
C3 C1 1.339 . S
C3 C2 1.395 . S
C3 H29 0.929 . S
C4 C2 1.320 . S
C4 C5 1.405 . S
C4 H30 0.930 . S
C5 C0 1.479 . S
C5 C4 1.405 . S
C5 H31 0.931 . S
U6 O7 2.454 1_554 S
U6 O8 2.458 . S
U6 C9 2.984 1_554 S
U6 C10 2.847 1_554 S
U6 C23 2.882 . S
U6 O24 2.441 1_554 S
U6 O25 2.420 . S
U6 O26 2.455 . S
U6 O27 2.449 . S
O7 U6 2.454 1_556 S
O7 C9 1.353 . S
O8 U6 2.458 . S
O8 C9 1.286 1_554 S
C9 U6 2.984 1_556 S
C9 O7 1.353 . S
C9 O8 1.286 1_556 S
C9 C11 1.363 . S
C10 C0 1.465 . S
C10 U6 2.847 1_556 S
C10 O24 1.249 . S
C10 O25 1.202 1_556 S
C11 C9 1.363 . S
C11 C13 1.408 . S
C11 C16 1.342 . S
C12 C13 1.310 . S
C12 C15 1.461 . S
C12 H32 0.932 . S
C13 C11 1.408 . S
C13 C12 1.310 . S
C13 H33 0.930 . S
C14 C15 1.474 . S
C14 C16 1.285 . S
C14 H34 0.929 . S
C15 C12 1.461 . S
C15 C14 1.474 . S
C16 C11 1.342 . S
C16 C14 1.285 . S
C16 H35 0.930 1_556 S
C17 C20 1.424 . S
C17 C22 1.245 . S
C17 C23 1.428 . S
C18 C21 1.260 . S
C18 C22 1.477 . S
C18 H36 0.932 . S
C19 C20 1.384 . S
C19 C21 1.479 . S
C19 H37 0.929 . S
C20 C17 1.424 . S
C20 C19 1.384 . S
C20 H38 0.928 . S
C21 C18 1.260 . S
C21 C19 1.479 . S
C22 C17 1.245 . S
C22 C18 1.477 . S
C22 H39 0.932 . S
C23 U6 2.882 . S
C23 C17 1.428 . S
C23 O26 1.301 . S
C23 O27 1.282 . S
O24 U6 2.441 1_556 S
O24 C10 1.249 . S
O25 U6 2.420 . S
O25 C10 1.202 1_554 S
O26 U6 2.455 . S
O26 C23 1.301 . S
O27 U6 2.449 . S
O27 C23 1.282 . S
H28 C1 0.931 . S
H29 C3 0.929 . S
H30 C4 0.930 . S
H31 C5 0.931 . S
H32 C12 0.932 . S
H33 C13 0.930 . S
H34 C14 0.929 . S
H35 C16 0.930 1_554 S
H36 C18 0.932 . S
H37 C19 0.929 . S
H38 C20 0.928 . S
H39 C22 0.932 . S
C40 C41 1.264 . S
C40 C45 1.479 . S
C40 C50 1.465 . S
C41 C40 1.264 . S
C41 C43 1.339 . S
C41 H68 0.931 . S
C42 C43 1.395 . S
C42 C44 1.320 . S
C43 C41 1.339 . S
C43 C42 1.395 . S
C43 H69 0.929 . S
C44 C42 1.320 . S
C44 C45 1.405 . S
C44 H70 0.930 . S
C45 C40 1.479 . S
C45 C44 1.405 . S
C45 H71 0.931 . S
U46 O47 2.454 . S
U46 O48 2.458 . S
U46 C49 2.984 . S
U46 C50 2.847 . S
U46 C63 2.882 . S
U46 O64 2.441 . S
U46 O65 2.420 . S
U46 O66 2.455 . S
U46 O67 2.449 . S
O47 U46 2.454 . S
O47 C49 1.353 . S
O48 U46 2.458 . S
O48 C49 1.286 . S
C49 U46 2.984 . S
C49 O47 1.353 . S
C49 O48 1.286 . S
C49 C51 1.363 . S
C50 C40 1.465 . S
C50 U46 2.847 . S
C50 O64 1.249 . S
C50 O65 1.202 . S
C51 C49 1.363 . S
C51 C53 1.408 . S
C51 C56 1.342 . S
C52 C53 1.310 . S
C52 C55 1.461 . S
C52 H72 0.932 . S
C53 C51 1.408 . S
C53 C52 1.310 . S
C53 H73 0.930 . S
C54 C55 1.474 . S
C54 C56 1.285 . S
C54 H74 0.929 . S
C55 C52 1.461 . S
C55 C54 1.474 . S
C56 C51 1.342 . S
C56 C54 1.285 . S
C56 H75 0.930 . S
C57 C60 1.424 . S
C57 C62 1.245 . S
C57 C63 1.428 . S
C58 C61 1.260 . S
C58 C62 1.477 . S
C58 H76 0.932 . S
C59 C60 1.384 . S
C59 C61 1.479 . S
C59 H77 0.929 . S
C60 C57 1.424 . S
C60 C59 1.384 . S
C60 H78 0.928 . S
C61 C58 1.260 . S
C61 C59 1.479 . S
C62 C57 1.245 . S
C62 C58 1.477 . S
C62 H79 0.932 . S
C63 U46 2.882 . S
C63 C57 1.428 . S
C63 O66 1.301 . S
C63 O67 1.282 . S
O64 U46 2.441 . S
O64 C50 1.249 . S
O65 U46 2.420 . S
O65 C50 1.202 . S
O66 U46 2.455 . S
O66 C63 1.301 . S
O67 U46 2.449 . S
O67 C63 1.282 . S
H68 C41 0.931 . S
H69 C43 0.929 . S
H70 C44 0.930 . S
H71 C45 0.931 . S
H72 C52 0.932 . S
H73 C53 0.930 . S
H74 C54 0.929 . S
H75 C56 0.930 . S
H76 C58 0.932 . S
H77 C59 0.929 . S
H78 C60 0.928 . S
H79 C62 0.932 . S
C80 C81 1.264 . S
C80 C85 1.479 . S
C80 C90 1.465 . S
C81 C80 1.264 . S
C81 C83 1.339 . S
C81 H108 0.931 . S
C82 C83 1.395 . S
C82 C84 1.320 . S
C83 C81 1.339 . S
C83 C82 1.395 . S
C83 H109 0.929 . S
C84 C82 1.320 . S
C84 C85 1.405 . S
C84 H110 0.930 . S
C85 C80 1.479 . S
C85 C84 1.405 . S
C85 H111 0.931 . S
U86 O87 2.454 . S
U86 O88 2.458 1_556 S
U86 C89 2.984 . S
U86 C90 2.847 . S
U86 C103 2.882 1_556 S
U86 O104 2.441 . S
U86 O105 2.420 . S
U86 O106 2.455 1_556 S
U86 O107 2.449 1_556 S
O87 U86 2.454 . S
O87 C89 1.353 . S
O88 U86 2.458 1_554 S
O88 C89 1.286 1_554 S
C89 U86 2.984 . S
C89 O87 1.353 . S
C89 O88 1.286 1_556 S
C89 C91 1.363 . S
C90 C80 1.465 . S
C90 U86 2.847 . S
C90 O104 1.249 . S
C90 O105 1.202 . S
C91 C89 1.363 . S
C91 C93 1.408 . S
C91 C96 1.342 . S
C92 C93 1.310 . S
C92 C95 1.461 . S
C92 H112 0.932 . S
C93 C91 1.408 . S
C93 C92 1.310 . S
C93 H113 0.930 . S
C94 C95 1.474 . S
C94 C96 1.285 . S
C94 H114 0.929 . S
C95 C92 1.461 . S
C95 C94 1.474 . S
C96 C91 1.342 . S
C96 C94 1.285 . S
C96 H115 0.930 1_556 S
C97 C100 1.424 . S
C97 C102 1.245 . S
C97 C103 1.428 . S
C98 C101 1.260 . S
C98 C102 1.477 . S
C98 H116 0.932 . S
C99 C100 1.384 . S
C99 C101 1.479 . S
C99 H117 0.929 . S
C100 C97 1.424 . S
C100 C99 1.384 . S
C100 H118 0.928 . S
C101 C98 1.260 . S
C101 C99 1.479 . S
C102 C97 1.245 . S
C102 C98 1.477 . S
C102 H119 0.932 . S
C103 U86 2.882 1_554 S
C103 C97 1.428 . S
C103 O106 1.301 . S
C103 O107 1.282 . S
O104 U86 2.441 . S
O104 C90 1.249 . S
O105 U86 2.420 . S
O105 C90 1.202 . S
O106 U86 2.455 1_554 S
O106 C103 1.301 . S
O107 U86 2.449 1_554 S
O107 C103 1.282 . S
H108 C81 0.931 . S
H109 C83 0.929 . S
H110 C84 0.930 . S
H111 C85 0.931 . S
H112 C92 0.932 . S
H113 C93 0.930 . S
H114 C94 0.929 . S
H115 C96 0.930 1_554 S
H116 C98 0.932 . S
H117 C99 0.929 . S
H118 C100 0.928 . S
H119 C102 0.932 . S
C120 C121 1.264 . S
C120 C125 1.479 . S
C120 C130 1.465 . S
C121 C120 1.264 . S
C121 C123 1.339 . S
C121 H148 0.931 . S
C122 C123 1.395 . S
C122 C124 1.320 . S
C123 C121 1.339 . S
C123 C122 1.395 . S
C123 H149 0.929 . S
C124 C122 1.320 . S
C124 C125 1.405 . S
C124 H150 0.930 . S
C125 C120 1.479 . S
C125 C124 1.405 . S
C125 H151 0.931 . S
U126 O127 2.454 . S
U126 O128 2.458 . S
U126 C129 2.984 . S
U126 C130 2.847 . S
U126 C143 2.882 . S
U126 O144 2.441 . S
U126 O145 2.420 . S
U126 O146 2.455 . S
U126 O147 2.449 . S
O127 U126 2.454 . S
O127 C129 1.353 . S
O128 U126 2.458 . S
O128 C129 1.286 . S
C129 U126 2.984 . S
C129 O127 1.353 . S
C129 O128 1.286 . S
C129 C131 1.363 . S
C130 C120 1.465 . S
C130 U126 2.847 . S
C130 O144 1.249 . S
C130 O145 1.202 . S
C131 C129 1.363 . S
C131 C133 1.408 . S
C131 C136 1.342 . S
C132 C133 1.310 . S
C132 C135 1.461 . S
C132 H152 0.932 . S
C133 C131 1.408 . S
C133 C132 1.310 . S
C133 H153 0.930 . S
C134 C135 1.474 . S
C134 C136 1.285 . S
C134 H154 0.929 . S
C135 C132 1.461 . S
C135 C134 1.474 . S
C136 C131 1.342 . S
C136 C134 1.285 . S
C136 H155 0.930 . S
C137 C140 1.424 . S
C137 C142 1.245 . S
C137 C143 1.428 . S
C138 C141 1.260 . S
C138 C142 1.477 . S
C138 H156 0.932 . S
C139 C140 1.384 . S
C139 C141 1.479 . S
C139 H157 0.929 . S
C140 C137 1.424 . S
C140 C139 1.384 . S
C140 H158 0.928 . S
C141 C138 1.260 . S
C141 C139 1.479 . S
C142 C137 1.245 . S
C142 C138 1.477 . S
C142 H159 0.932 . S
C143 U126 2.882 . S
C143 C137 1.428 . S
C143 O146 1.301 . S
C143 O147 1.282 . S
O144 U126 2.441 . S
O144 C130 1.249 . S
O145 U126 2.420 . S
O145 C130 1.202 . S
O146 U126 2.455 . S
O146 C143 1.301 . S
O147 U126 2.449 . S
O147 C143 1.282 . S
H148 C121 0.931 . S
H149 C123 0.929 . S
H150 C124 0.930 . S
H151 C125 0.931 . S
H152 C132 0.932 . S
H153 C133 0.930 . S
H154 C134 0.929 . S
H155 C136 0.930 . S
H156 C138 0.932 . S
H157 C139 0.929 . S
H158 C140 0.928 . S
H159 C142 0.932 . S
C160 C161 1.264 1_565 S
C160 C165 1.479 1_565 S
C160 C170 1.465 . S
C161 C160 1.264 1_545 S
C161 C163 1.339 . S
C161 H188 0.931 . S
C162 C163 1.395 . S
C162 C164 1.320 . S
C163 C161 1.339 . S
C163 C162 1.395 . S
C163 H189 0.929 . S
C164 C162 1.320 . S
C164 C165 1.405 . S
C164 H190 0.930 . S
C165 C160 1.479 1_545 S
C165 C164 1.405 . S
C165 H191 0.931 1_545 S
U166 O167 2.454 1_554 S
U166 O168 2.458 . S
U166 C169 2.984 1_554 S
U166 C170 2.847 1_554 S
U166 C183 2.882 . S
U166 O184 2.441 1_554 S
U166 O185 2.420 . S
U166 O186 2.455 . S
U166 O187 2.449 . S
O167 U166 2.454 1_556 S
O167 C169 1.353 . S
O168 U166 2.458 . S
O168 C169 1.286 1_554 S
C169 U166 2.984 1_556 S
C169 O167 1.353 . S
C169 O168 1.286 1_556 S
C169 C171 1.363 . S
C170 C160 1.465 . S
C170 U166 2.847 1_556 S
C170 O184 1.249 . S
C170 O185 1.202 1_556 S
C171 C169 1.363 . S
C171 C173 1.408 . S
C171 C176 1.342 . S
C172 C173 1.310 . S
C172 C175 1.461 . S
C172 H192 0.932 . S
C173 C171 1.408 . S
C173 C172 1.310 . S
C173 H193 0.930 . S
C174 C175 1.474 . S
C174 C176 1.285 . S
C174 H194 0.929 . S
C175 C172 1.461 . S
C175 C174 1.474 . S
C176 C171 1.342 . S
C176 C174 1.285 . S
C176 H195 0.930 1_556 S
C177 C180 1.424 . S
C177 C182 1.245 . S
C177 C183 1.428 . S
C178 C181 1.260 . S
C178 C182 1.477 . S
C178 H196 0.932 . S
C179 C180 1.384 . S
C179 C181 1.479 . S
C179 H197 0.929 . S
C180 C177 1.424 . S
C180 C179 1.384 . S
C180 H198 0.928 . S
C181 C178 1.260 . S
C181 C179 1.479 . S
C182 C177 1.245 . S
C182 C178 1.477 . S
C182 H199 0.932 . S
C183 U166 2.882 . S
C183 C177 1.428 . S
C183 O186 1.301 . S
C183 O187 1.282 . S
O184 U166 2.441 1_556 S
O184 C170 1.249 . S
O185 U166 2.420 . S
O185 C170 1.202 1_554 S
O186 U166 2.455 . S
O186 C183 1.301 . S
O187 U166 2.449 . S
O187 C183 1.282 . S
H188 C161 0.931 . S
H189 C163 0.929 . S
H190 C164 0.930 . S
H191 C165 0.931 1_565 S
H192 C172 0.932 . S
H193 C173 0.930 . S
H194 C174 0.929 . S
H195 C176 0.930 1_554 S
H196 C178 0.932 . S
H197 C179 0.929 . S
H198 C180 0.928 . S
H199 C182 0.932 . S
C200 C201 1.264 . S
C200 C205 1.479 . S
C200 C210 1.465 . S
C201 C200 1.264 . S
C201 C203 1.339 . S
C201 H228 0.931 . S
C202 C203 1.395 . S
C202 C204 1.320 . S
C203 C201 1.339 . S
C203 C202 1.395 . S
C203 H229 0.929 . S
C204 C202 1.320 . S
C204 C205 1.405 . S
C204 H230 0.930 . S
C205 C200 1.479 . S
C205 C204 1.405 . S
C205 H231 0.931 . S
U206 O207 2.454 . S
U206 O208 2.458 . S
U206 C209 2.984 . S
U206 C210 2.847 . S
U206 C223 2.882 . S
U206 O224 2.441 . S
U206 O225 2.420 . S
U206 O226 2.455 . S
U206 O227 2.449 . S
O207 U206 2.454 . S
O207 C209 1.353 . S
O208 U206 2.458 . S
O208 C209 1.286 . S
C209 U206 2.984 . S
C209 O207 1.353 . S
C209 O208 1.286 . S
C209 C211 1.363 . S
C210 C200 1.465 . S
C210 U206 2.847 . S
C210 O224 1.249 . S
C210 O225 1.202 . S
C211 C209 1.363 . S
C211 C213 1.408 . S
C211 C216 1.342 . S
C212 C213 1.310 . S
C212 C215 1.461 . S
C212 H232 0.932 . S
C213 C211 1.408 . S
C213 C212 1.310 . S
C213 H233 0.930 . S
C214 C215 1.474 . S
C214 C216 1.285 . S
C214 H234 0.929 . S
C215 C212 1.461 . S
C215 C214 1.474 . S
C216 C211 1.342 . S
C216 C214 1.285 . S
C216 H235 0.930 . S
C217 C220 1.424 . S
C217 C222 1.245 . S
C217 C223 1.428 . S
C218 C221 1.260 . S
C218 C222 1.477 1_565 S
C218 H236 0.932 . S
C219 C220 1.384 1_565 S
C219 C221 1.479 . S
C219 H237 0.929 . S
C220 C217 1.424 . S
C220 C219 1.384 1_545 S
C220 H238 0.928 . S
C221 C218 1.260 . S
C221 C219 1.479 . S
C222 C217 1.245 . S
C222 C218 1.477 1_545 S
C222 H239 0.932 . S
C223 U206 2.882 . S
C223 C217 1.428 . S
C223 O226 1.301 . S
C223 O227 1.282 . S
O224 U206 2.441 . S
O224 C210 1.249 . S
O225 U206 2.420 . S
O225 C210 1.202 . S
O226 U206 2.455 . S
O226 C223 1.301 . S
O227 U206 2.449 . S
O227 C223 1.282 . S
H228 C201 0.931 . S
H229 C203 0.929 . S
H230 C204 0.930 . S
H231 C205 0.931 . S
H232 C212 0.932 . S
H233 C213 0.930 . S
H234 C214 0.929 . S
H235 C216 0.930 . S
H236 C218 0.932 . S
H237 C219 0.929 . S
H238 C220 0.928 . S
H239 C222 0.932 . S
C240 C241 1.264 . S
C240 C245 1.479 . S
C240 C250 1.465 . S
C241 C240 1.264 . S
C241 C243 1.339 1_565 S
C241 H268 0.931 . S
C242 C243 1.395 . S
C242 C244 1.320 . S
C243 C241 1.339 1_545 S
C243 C242 1.395 . S
C243 H269 0.929 . S
C244 C242 1.320 . S
C244 C245 1.405 1_545 S
C244 H270 0.930 . S
C245 C240 1.479 . S
C245 C244 1.405 1_565 S
C245 H271 0.931 . S
U246 O247 2.454 . S
U246 O248 2.458 1_556 S
U246 C249 2.984 . S
U246 C250 2.847 . S
U246 C263 2.882 1_556 S
U246 O264 2.441 . S
U246 O265 2.420 . S
U246 O266 2.455 1_556 S
U246 O267 2.449 1_556 S
O247 U246 2.454 . S
O247 C249 1.353 . S
O248 U246 2.458 1_554 S
O248 C249 1.286 1_554 S
C249 U246 2.984 . S
C249 O247 1.353 . S
C249 O248 1.286 1_556 S
C249 C251 1.363 . S
C250 C240 1.465 . S
C250 U246 2.847 . S
C250 O264 1.249 . S
C250 O265 1.202 . S
C251 C249 1.363 . S
C251 C253 1.408 . S
C251 C256 1.342 . S
C252 C253 1.310 . S
C252 C255 1.461 . S
C252 H272 0.932 . S
C253 C251 1.408 . S
C253 C252 1.310 . S
C253 H273 0.930 . S
C254 C255 1.474 . S
C254 C256 1.285 . S
C254 H274 0.929 . S
C255 C252 1.461 . S
C255 C254 1.474 . S
C256 C251 1.342 . S
C256 C254 1.285 . S
C256 H275 0.930 1_556 S
C257 C260 1.424 . S
C257 C262 1.245 . S
C257 C263 1.428 . S
C258 C261 1.260 . S
C258 C262 1.477 . S
C258 H276 0.932 . S
C259 C260 1.384 . S
C259 C261 1.479 . S
C259 H277 0.929 . S
C260 C257 1.424 . S
C260 C259 1.384 . S
C260 H278 0.928 . S
C261 C258 1.260 . S
C261 C259 1.479 . S
C262 C257 1.245 . S
C262 C258 1.477 . S
C262 H279 0.932 . S
C263 U246 2.882 1_554 S
C263 C257 1.428 . S
C263 O266 1.301 . S
C263 O267 1.282 . S
O264 U246 2.441 . S
O264 C250 1.249 . S
O265 U246 2.420 . S
O265 C250 1.202 . S
O266 U246 2.455 1_554 S
O266 C263 1.301 . S
O267 U246 2.449 1_554 S
O267 C263 1.282 . S
H268 C241 0.931 . S
H269 C243 0.929 . S
H270 C244 0.930 . S
H271 C245 0.931 . S
H272 C252 0.932 . S
H273 C253 0.930 . S
H274 C254 0.929 . S
H275 C256 0.930 1_554 S
H276 C258 0.932 . S
H277 C259 0.929 . S
H278 C260 0.928 . S
H279 C262 0.932 . S
C280 C281 1.264 . S
C280 C285 1.479 . S
C280 C290 1.465 . S
C281 C280 1.264 . S
C281 C283 1.339 . S
C281 H308 0.931 . S
C282 C283 1.395 . S
C282 C284 1.320 . S
C283 C281 1.339 . S
C283 C282 1.395 . S
C283 H309 0.929 . S
C284 C282 1.320 . S
C284 C285 1.405 . S
C284 H310 0.930 . S
C285 C280 1.479 . S
C285 C284 1.405 . S
C285 H311 0.931 . S
U286 O287 2.454 . S
U286 O288 2.458 . S
U286 C289 2.984 . S
U286 C290 2.847 . S
U286 C303 2.882 . S
U286 O304 2.441 . S
U286 O305 2.420 . S
U286 O306 2.455 . S
U286 O307 2.449 . S
O287 U286 2.454 . S
O287 C289 1.353 . S
O288 U286 2.458 . S
O288 C289 1.286 . S
C289 U286 2.984 . S
C289 O287 1.353 . S
C289 O288 1.286 . S
C289 C291 1.363 . S
C290 C280 1.465 . S
C290 U286 2.847 . S
C290 O304 1.249 . S
C290 O305 1.202 . S
C291 C289 1.363 . S
C291 C293 1.408 . S
C291 C296 1.342 . S
C292 C293 1.310 . S
C292 C295 1.461 . S
C292 H312 0.932 . S
C293 C291 1.408 . S
C293 C292 1.310 . S
C293 H313 0.930 . S
C294 C295 1.474 . S
C294 C296 1.285 . S
C294 H314 0.929 . S
C295 C292 1.461 . S
C295 C294 1.474 . S
C296 C291 1.342 . S
C296 C294 1.285 . S
C296 H315 0.930 . S
C297 C300 1.424 1_545 S
C297 C302 1.246 . S
C297 C303 1.428 . S
C298 C301 1.260 . S
C298 C302 1.475 1_565 S
C298 H316 0.932 . S
C299 C300 1.384 . S
C299 C301 1.479 . S
C299 H317 0.929 . S
C300 C297 1.424 1_565 S
C300 C299 1.384 . S
C300 H318 0.928 1_565 S
C301 C298 1.260 . S
C301 C299 1.479 . S
C302 C297 1.246 . S
C302 C298 1.475 1_545 S
C302 H319 0.933 . S
C303 U286 2.882 . S
C303 C297 1.428 . S
C303 O306 1.301 . S
C303 O307 1.282 . S
O304 U286 2.441 . S
O304 C290 1.249 . S
O305 U286 2.420 . S
O305 C290 1.202 . S
O306 U286 2.455 . S
O306 C303 1.301 . S
O307 U286 2.449 . S
O307 C303 1.282 . S
H308 C281 0.931 . S
H309 C283 0.929 . S
H310 C284 0.930 . S
H311 C285 0.931 . S
H312 C292 0.932 . S
H313 C293 0.930 . S
H314 C294 0.929 . S
H315 C296 0.930 . S
H316 C298 0.932 . S
H317 C299 0.929 . S
H318 C300 0.928 1_545 S
H319 C302 0.933 . S
Sc320 O323 2.025 . S
Sc320 O330 2.105 1_455 S
Sc320 O333 2.105 . S
Sc320 O336 2.105 . S
Sc320 O339 2.105 1_455 S
Sc321 O323 2.025 . S
Sc321 O331 2.105 1_455 S
Sc321 O335 2.105 . S
Sc321 O337 2.105 . S
Sc321 O341 2.105 1_455 S
Sc322 O323 2.025 . S
Sc322 O332 2.105 1_455 S
Sc322 O334 2.105 . S
Sc322 O338 2.105 . S
Sc322 O340 2.105 1_455 S
O323 Sc320 2.025 . S
O323 Sc321 2.025 . S
O323 Sc322 2.025 . S
C324 O330 1.268 . S
C324 O340 1.268 . S
C325 O331 1.268 . S
C325 O339 1.268 . S
C326 O332 1.268 . S
C326 O341 1.268 . S
C327 O333 1.268 . S
C327 O337 1.268 . S
C328 O334 1.268 . S
C328 O336 1.268 . S
C329 O335 1.268 . S
C329 O338 1.268 . S
O330 Sc320 2.105 1_655 S
O330 C324 1.268 . S
O331 Sc321 2.105 1_655 S
O331 C325 1.268 . S
O332 Sc322 2.105 1_655 S
O332 C326 1.268 . S
O333 Sc320 2.105 . S
O333 C327 1.268 . S
O334 Sc322 2.105 . S
O334 C328 1.268 . S
O335 Sc321 2.105 . S
O335 C329 1.268 . S
O336 Sc320 2.105 . S
O336 C328 1.268 . S
O337 Sc321 2.105 . S
O337 C327 1.268 . S
O338 Sc322 2.105 . S
O338 C329 1.268 . S
O339 Sc320 2.105 1_655 S
O339 C325 1.268 . S
O340 Sc322 2.105 1_655 S
O340 C324 1.268 . S
O341 Sc321 2.105 1_655 S
O341 C326 1.268 . S
Sc342 O345 2.025 . S
Sc342 O352 2.105 . S
Sc342 O355 2.105 1_455 S
Sc342 O358 2.105 1_455 S
Sc342 O361 2.105 . S
Sc343 O345 2.025 . S
Sc343 O353 2.105 . S
Sc343 O357 2.105 1_455 S
Sc343 O359 2.105 1_455 S
Sc343 O363 2.105 . S
Sc344 O345 2.025 . S
Sc344 O354 2.105 . S
Sc344 O356 2.105 1_455 S
Sc344 O360 2.105 1_455 S
Sc344 O362 2.105 . S
O345 Sc342 2.025 . S
O345 Sc343 2.025 . S
O345 Sc344 2.025 . S
C346 O352 1.268 . S
C346 O362 1.268 . S
C347 O353 1.268 . S
C347 O361 1.268 . S
C348 O354 1.268 . S
C348 O363 1.268 . S
C349 O355 1.268 . S
C349 O359 1.268 . S
C350 O356 1.268 . S
C350 O358 1.268 . S
C351 O357 1.268 . S
C351 O360 1.268 . S
O352 Sc342 2.105 . S
O352 C346 1.268 . S
O353 Sc343 2.105 . S
O353 C347 1.268 . S
O354 Sc344 2.105 . S
O354 C348 1.268 . S
O355 Sc342 2.105 1_655 S
O355 C349 1.268 . S
O356 Sc344 2.105 1_655 S
O356 C350 1.268 . S
O357 Sc343 2.105 1_655 S
O357 C351 1.268 . S
O358 Sc342 2.105 1_655 S
O358 C350 1.268 . S
O359 Sc343 2.105 1_655 S
O359 C349 1.268 . S
O360 Sc344 2.105 1_655 S
O360 C351 1.268 . S
O361 Sc342 2.105 . S
O361 C347 1.268 . S
O362 Sc344 2.105 . S
O362 C346 1.268 . S
O363 Sc343 2.105 . S
O363 C348 1.268 . S
Sc364 O367 2.025 . S
Sc364 O374 2.105 . S
Sc364 O377 2.105 . S
Sc364 O380 2.105 . S
Sc364 O383 2.105 . S
Sc365 O367 2.025 . S
Sc365 O375 2.105 . S
Sc365 O379 2.105 . S
Sc365 O381 2.105 . S
Sc365 O385 2.105 . S
Sc366 O367 2.025 . S
Sc366 O376 2.105 . S
Sc366 O378 2.105 . S
Sc366 O382 2.105 . S
Sc366 O384 2.105 . S
O367 Sc364 2.025 . S
O367 Sc365 2.025 . S
O367 Sc366 2.025 . S
C368 O374 1.268 . S
C368 O384 1.268 . S
C369 O375 1.268 . S
C369 O383 1.268 . S
C370 O376 1.268 . S
C370 O385 1.268 . S
C371 O377 1.268 . S
C371 O381 1.268 . S
C372 O378 1.268 . S
C372 O380 1.268 . S
C373 O379 1.268 . S
C373 O382 1.268 . S
O374 Sc364 2.105 . S
O374 C368 1.268 . S
O375 Sc365 2.105 . S
O375 C369 1.268 . S
O376 Sc366 2.105 . S
O376 C370 1.268 . S
O377 Sc364 2.105 . S
O377 C371 1.268 . S
O378 Sc366 2.105 . S
O378 C372 1.268 . S
O379 Sc365 2.105 . S
O379 C373 1.268 . S
O380 Sc364 2.105 . S
O380 C372 1.268 . S
O381 Sc365 2.105 . S
O381 C371 1.268 . S
O382 Sc366 2.105 . S
O382 C373 1.268 . S
O383 Sc364 2.105 . S
O383 C369 1.268 . S
O384 Sc366 2.105 . S
O384 C368 1.268 . S
O385 Sc365 2.105 . S
O385 C370 1.268 . S
Sc386 O389 2.025 . S
Sc386 O396 2.105 . S
Sc386 O399 2.105 . S
Sc386 O402 2.105 . S
Sc386 O405 2.105 . S
Sc387 O389 2.025 . S
Sc387 O397 2.105 . S
Sc387 O401 2.105 . S
Sc387 O403 2.105 . S
Sc387 O407 2.105 . S
Sc388 O389 2.025 . S
Sc388 O398 2.105 . S
Sc388 O400 2.105 . S
Sc388 O404 2.105 . S
Sc388 O406 2.105 . S
O389 Sc386 2.025 . S
O389 Sc387 2.025 . S
O389 Sc388 2.025 . S
C390 O396 1.268 . S
C390 O406 1.268 . S
C391 O397 1.268 . S
C391 O405 1.268 . S
C392 O398 1.268 . S
C392 O407 1.268 . S
C393 O399 1.268 . S
C393 O403 1.268 . S
C394 O400 1.268 . S
C394 O402 1.268 . S
C395 O401 1.268 . S
C395 O404 1.268 . S
O396 Sc386 2.105 . S
O396 C390 1.268 . S
O397 Sc387 2.105 . S
O397 C391 1.268 . S
O398 Sc388 2.105 . S
O398 C392 1.268 . S
O399 Sc386 2.105 . S
O399 C393 1.268 . S
O400 Sc388 2.105 . S
O400 C394 1.268 . S
O401 Sc387 2.105 . S
O401 C395 1.268 . S
O402 Sc386 2.105 . S
O402 C394 1.268 . S
O403 Sc387 2.105 . S
O403 C393 1.268 . S
O404 Sc388 2.105 . S
O404 C395 1.268 . S
O405 Sc386 2.105 . S
O405 C391 1.268 . S
O406 Sc388 2.105 . S
O406 C390 1.268 . S
O407 Sc387 2.105 . S
O407 C392 1.268 . S
C408 C409 1.387 . S
C408 H412 0.950 . S
C408 C417 1.390 . S
C409 C408 1.387 . S
C409 C411 1.387 . S
H410 C417 0.950 . S
C411 C409 1.387 . S
C411 C413 1.390 . S
C411 H415 0.950 . S
H412 C408 0.950 . S
C413 C411 1.390 . S
C413 C414 1.387 . S
C413 H416 0.950 . S
C414 C413 1.387 . S
C414 C417 1.387 . S
H415 C411 0.950 . S
H416 C413 0.950 . S
C417 C408 1.390 . S
C417 H410 0.950 . S
C417 C414 1.387 . S
C418 C419 1.387 . S
C418 H422 0.950 . S
C418 C427 1.390 . S
C419 C418 1.387 . S
C419 C421 1.387 . S
H420 C427 0.950 . S
C421 C419 1.387 . S
C421 C423 1.390 . S
C421 H425 0.950 . S
H422 C418 0.950 . S
C423 C421 1.390 . S
C423 C424 1.387 . S
C423 H426 0.950 . S
C424 C423 1.387 . S
C424 C427 1.387 . S
H425 C421 0.950 . S
H426 C423 0.950 . S
C427 C418 1.390 . S
C427 H420 0.950 . S
C427 C424 1.387 . S
C428 C429 1.387 . S
C428 H432 0.950 . S
C428 C437 1.390 . S
C429 C428 1.387 . S
C429 C431 1.387 . S
H430 C437 0.950 . S
C431 C429 1.387 . S
C431 C433 1.390 . S
C431 H435 0.950 . S
H432 C428 0.950 . S
C433 C431 1.390 . S
C433 C434 1.387 . S
C433 H436 0.950 . S
C434 C433 1.387 . S
C434 C437 1.387 . S
H435 C431 0.950 . S
H436 C433 0.950 . S
C437 C428 1.390 . S
C437 H430 0.950 . S
C437 C434 1.387 . S
C438 C439 1.387 . S
C438 H442 0.950 . S
C438 C447 1.390 . S
C439 C438 1.387 . S
C439 C441 1.387 . S
H440 C447 0.950 . S
C441 C439 1.387 . S
C441 C443 1.390 . S
C441 H445 0.950 . S
H442 C438 0.950 . S
C443 C441 1.390 . S
C443 C444 1.387 . S
C443 H446 0.950 . S
C444 C443 1.387 . S
C444 C447 1.387 . S
H445 C441 0.950 . S
H446 C443 0.950 . S
C447 C438 1.390 . S
C447 H440 0.950 . S
C447 C444 1.387 . S
C448 C449 1.387 . S
C448 H452 0.950 . S
C448 C457 1.390 . S
C449 C448 1.387 . S
C449 C451 1.387 . S
H450 C457 0.950 . S
C451 C449 1.387 . S
C451 C453 1.390 . S
C451 H455 0.950 . S
H452 C448 0.950 . S
C453 C451 1.390 . S
C453 C454 1.387 . S
C453 H456 0.950 . S
C454 C453 1.387 . S
C454 C457 1.387 . S
H455 C451 0.950 . S
H456 C453 0.950 . S
C457 C448 1.390 . S
C457 H450 0.950 . S
C457 C454 1.387 . S
C458 C459 1.387 . S
C458 H462 0.950 . S
C458 C467 1.390 . S
C459 C458 1.387 . S
C459 C461 1.387 . S
H460 C467 0.950 . S
C461 C459 1.387 . S
C461 C463 1.390 . S
C461 H465 0.950 . S
H462 C458 0.950 . S
C463 C461 1.390 . S
C463 C464 1.387 . S
C463 H466 0.950 . S
C464 C463 1.387 . S
C464 C467 1.387 . S
H465 C461 0.950 . S
H466 C463 0.950 . S
C467 C458 1.390 . S
C467 H460 0.950 . S
C467 C464 1.387 . S
C468 C469 1.387 . S
C468 H472 0.950 . S
C468 C477 1.390 . S
C469 C468 1.387 . S
C469 C471 1.387 . S
H470 C477 0.950 . S
C471 C469 1.387 . S
C471 C473 1.390 . S
C471 H475 0.950 . S
H472 C468 0.950 . S
C473 C471 1.390 . S
C473 C474 1.387 . S
C473 H476 0.950 . S
C474 C473 1.387 . S
C474 C477 1.387 . S
H475 C471 0.950 . S
H476 C473 0.950 . S
C477 C468 1.390 . S
C477 H470 0.950 . S
C477 C474 1.387 . S
C478 C479 1.387 . S
C478 H482 0.950 . S
C478 C487 1.390 . S
C479 C478 1.387 . S
C479 C481 1.387 . S
H480 C487 0.950 . S
C481 C479 1.387 . S
C481 C483 1.390 . S
C481 H485 0.950 . S
H482 C478 0.950 . S
C483 C481 1.390 . S
C483 C484 1.387 . S
C483 H486 0.950 . S
C484 C483 1.387 . S
C484 C487 1.387 . S
H485 C481 0.950 . S
H486 C483 0.950 . S
C487 C478 1.390 . S
C487 H480 0.950 . S
C487 C484 1.387 . S
C488 C489 1.387 . S
C488 H492 0.950 . S
C488 C497 1.390 . S
C489 C488 1.387 . S
C489 C491 1.387 . S
H490 C497 0.950 . S
C491 C489 1.387 . S
C491 C493 1.390 . S
C491 H495 0.950 . S
H492 C488 0.950 . S
C493 C491 1.390 . S
C493 C494 1.387 . S
C493 H496 0.950 . S
C494 C493 1.387 . S
C494 C497 1.387 . S
H495 C491 0.950 . S
H496 C493 0.950 . S
C497 C488 1.390 . S
C497 H490 0.950 . S
C497 C494 1.387 . S
C498 C499 1.387 . S
C498 H502 0.950 . S
C498 C507 1.390 . S
C499 C498 1.387 . S
C499 C501 1.387 . S
H500 C507 0.950 . S
C501 C499 1.387 . S
C501 C503 1.390 . S
C501 H505 0.950 . S
H502 C498 0.950 . S
C503 C501 1.390 . S
C503 C504 1.387 . S
C503 H506 0.950 . S
C504 C503 1.387 . S
C504 C507 1.387 . S
H505 C501 0.950 . S
H506 C503 0.950 . S
C507 C498 1.390 . S
C507 H500 0.950 . S
C507 C504 1.387 . S
C508 C509 1.387 . S
C508 H512 0.950 . S
C508 C517 1.390 . S
C509 C508 1.387 . S
C509 C511 1.387 . S
H510 C517 0.950 . S
C511 C509 1.387 . S
C511 C513 1.390 . S
C511 H515 0.950 . S
H512 C508 0.950 . S
C513 C511 1.390 . S
C513 C514 1.387 . S
C513 H516 0.950 . S
C514 C513 1.387 . S
C514 C517 1.387 . S
H515 C511 0.950 . S
H516 C513 0.950 . S
C517 C508 1.390 . S
C517 H510 0.950 . S
C517 C514 1.387 . S
C518 C519 1.387 . S
C518 H522 0.950 . S
C518 C527 1.390 . S
C519 C518 1.387 . S
C519 C521 1.387 . S
H520 C527 0.950 . S
C521 C519 1.387 . S
C521 C523 1.390 . S
C521 H525 0.950 . S
H522 C518 0.950 . S
C523 C521 1.390 . S
C523 C524 1.387 . S
C523 H526 0.950 . S
C524 C523 1.387 . S
C524 C527 1.387 . S
H525 C521 0.950 . S
H526 C523 0.950 . S
C527 C518 1.390 . S
C527 H520 0.950 . S
C527 C524 1.387 . S
C528 C529 1.387 . S
C528 H532 0.950 . S
C528 C537 1.390 . S
C529 C528 1.387 . S
C529 C531 1.387 . S
H530 C537 0.950 . S
C531 C529 1.387 . S
C531 C533 1.390 . S
C531 H535 0.950 . S
H532 C528 0.950 . S
C533 C531 1.390 . S
C533 C534 1.387 . S
C533 H536 0.950 . S
C534 C533 1.387 . S
C534 C537 1.387 . S
H535 C531 0.950 . S
H536 C533 0.950 . S
C537 C528 1.390 . S
C537 H530 0.950 . S
C537 C534 1.387 . S
C538 C539 1.387 . S
C538 H542 0.950 . S
C538 C547 1.390 . S
C539 C538 1.387 . S
C539 C541 1.387 . S
H540 C547 0.950 . S
C541 C539 1.387 . S
C541 C543 1.390 . S
C541 H545 0.950 . S
H542 C538 0.950 . S
C543 C541 1.390 . S
C543 C544 1.387 . S
C543 H546 0.950 . S
C544 C543 1.387 . S
C544 C547 1.387 . S
H545 C541 0.950 . S
H546 C543 0.950 . S
C547 C538 1.390 . S
C547 H540 0.950 . S
C547 C544 1.387 . S
C548 C549 1.387 . S
C548 H552 0.950 . S
C548 C557 1.390 . S
C549 C548 1.387 . S
C549 C551 1.387 . S
H550 C557 0.950 . S
C551 C549 1.387 . S
C551 C553 1.390 . S
C551 H555 0.950 . S
H552 C548 0.950 . S
C553 C551 1.390 . S
C553 C554 1.387 . S
C553 H556 0.950 . S
C554 C553 1.387 . S
C554 C557 1.387 . S
H555 C551 0.950 . S
H556 C553 0.950 . S
C557 C548 1.390 . S
C557 H550 0.950 . S
C557 C554 1.387 . S
C558 C559 1.387 . S
C558 H562 0.950 . S
C558 C567 1.390 . S
C559 C558 1.387 . S
C559 C561 1.387 . S
H560 C567 0.950 . S
C561 C559 1.387 . S
C561 C563 1.390 . S
C561 H565 0.950 . S
H562 C558 0.950 . S
C563 C561 1.390 . S
C563 C564 1.387 . S
C563 H566 0.950 . S
C564 C563 1.387 . S
C564 C567 1.387 . S
H565 C561 0.950 . S
H566 C563 0.950 . S
C567 C558 1.390 . S
C567 H560 0.950 . S
C567 C564 1.387 . S
C568 C569 1.387 . S
C568 H572 0.950 . S
C568 C577 1.390 . S
C569 C568 1.387 . S
C569 C571 1.387 . S
H570 C577 0.950 . S
C571 C569 1.387 . S
C571 C573 1.390 . S
C571 H575 0.950 . S
H572 C568 0.950 . S
C573 C571 1.390 . S
C573 C574 1.387 . S
C573 H576 0.950 . S
C574 C573 1.387 . S
C574 C577 1.387 . S
H575 C571 0.950 . S
H576 C573 0.950 . S
C577 C568 1.390 . S
C577 H570 0.950 . S
C577 C574 1.387 . S
C578 C579 1.387 . S
C578 H582 0.950 . S
C578 C587 1.390 . S
C579 C578 1.387 . S
C579 C581 1.387 . S
H580 C587 0.950 . S
C581 C579 1.387 . S
C581 C583 1.390 . S
C581 H585 0.950 . S
H582 C578 0.950 . S
C583 C581 1.390 . S
C583 C584 1.387 . S
C583 H586 0.950 . S
C584 C583 1.387 . S
C584 C587 1.387 . S
H585 C581 0.950 . S
H586 C583 0.950 . S
C587 C578 1.390 . S
C587 H580 0.950 . S
C587 C584 1.387 . S
C588 C589 1.387 . S
C588 H592 0.950 . S
C588 C597 1.390 . S
C589 C588 1.387 . S
C589 C591 1.387 . S
H590 C597 0.950 . S
C591 C589 1.387 . S
C591 C593 1.390 . S
C591 H595 0.950 . S
H592 C588 0.950 . S
C593 C591 1.390 . S
C593 C594 1.387 . S
C593 H596 0.950 . S
C594 C593 1.387 . S
C594 C597 1.387 . S
H595 C591 0.950 . S
H596 C593 0.950 . S
C597 C588 1.390 . S
C597 H590 0.950 . S
C597 C594 1.387 . S
C598 C599 1.387 . S
C598 H602 0.950 . S
C598 C607 1.390 . S
C599 C598 1.387 . S
C599 C601 1.387 . S
H600 C607 0.950 . S
C601 C599 1.387 . S
C601 C603 1.390 . S
C601 H605 0.950 . S
H602 C598 0.950 . S
C603 C601 1.390 . S
C603 C604 1.387 . S
C603 H606 0.950 . S
C604 C603 1.387 . S
C604 C607 1.387 . S
H605 C601 0.950 . S
H606 C603 0.950 . S
C607 C598 1.390 . S
C607 H600 0.950 . S
C607 C604 1.387 . S
C608 C609 1.387 . S
C608 H612 0.950 . S
C608 C617 1.390 . S
C609 C608 1.387 . S
C609 C611 1.387 . S
H610 C617 0.950 . S
C611 C609 1.387 . S
C611 C613 1.390 . S
C611 H615 0.950 . S
H612 C608 0.950 . S
C613 C611 1.390 . S
C613 C614 1.387 . S
C613 H616 0.950 . S
C614 C613 1.387 . S
C614 C617 1.387 . S
H615 C611 0.950 . S
H616 C613 0.950 . S
C617 C608 1.390 . S
C617 H610 0.950 . S
C617 C614 1.387 . S
C618 C619 1.387 . S
C618 H622 0.950 . S
C618 C627 1.390 . S
C619 C618 1.387 . S
C619 C621 1.387 . S
H620 C627 0.950 . S
C621 C619 1.387 . S
C621 C623 1.390 . S
C621 H625 0.950 . S
H622 C618 0.950 . S
C623 C621 1.390 . S
C623 C624 1.387 . S
C623 H626 0.950 . S
C624 C623 1.387 . S
C624 C627 1.387 . S
H625 C621 0.950 . S
H626 C623 0.950 . S
C627 C618 1.390 . S
C627 H620 0.950 . S
C627 C624 1.387 . S
C628 C629 1.387 . S
C628 H632 0.950 . S
C628 C637 1.390 . S
C629 C628 1.387 . S
C629 C631 1.387 . S
H630 C637 0.950 . S
C631 C629 1.387 . S
C631 C633 1.390 . S
C631 H635 0.950 . S
H632 C628 0.950 . S
C633 C631 1.390 . S
C633 C634 1.387 . S
C633 H636 0.950 . S
C634 C633 1.387 . S
C634 C637 1.387 . S
H635 C631 0.950 . S
H636 C633 0.950 . S
C637 C628 1.390 . S
C637 H630 0.950 . S
C637 C634 1.387 . S
C638 C639 1.387 . S
C638 H642 0.950 . S
C638 C647 1.390 . S
C639 C638 1.387 . S
C639 C641 1.387 . S
H640 C647 0.950 . S
C641 C639 1.387 . S
C641 C643 1.390 . S
C641 H645 0.950 . S
H642 C638 0.950 . S
C643 C641 1.390 . S
C643 C644 1.387 . S
C643 H646 0.950 . S
C644 C643 1.387 . S
C644 C647 1.387 . S
H645 C641 0.950 . S
H646 C643 0.950 . S
C647 C638 1.390 . S
C647 H640 0.950 . S
C647 C644 1.387 . S
C409 C15 1.583 . S
C414 C346 1.537 . S
C424 C324 1.578 . S
C419 C55 1.618 . S
C434 C350 1.543 . S
C429 C95 1.580 . S
C444 C328 1.575 . S
C439 C135 1.620 . S
C454 C390 1.540 . S
C449 C175 1.584 . S
C464 C368 1.578 . S
C459 C215 1.616 . S
C469 C255 1.578 . S
C474 C394 1.542 . S
C484 C372 1.575 . S
C479 C295 1.622 . S
C489 C2 1.629 . S
C494 C395 1.650 . S
C504 C373 1.721 . S
C499 C61 1.600 . S
C509 C82 1.560 . S
C514 C392 1.650 . S
C519 C141 1.674 . S
C524 C370 1.721 . S
C534 C351 1.649 . S
C529 C162 1.633 . S
C539 C221 1.597 . S
C544 C329 1.719 . S
C554 C348 1.649 . S
C549 C242 1.562 . S
C564 C326 1.721 . S
C559 C301 1.677 . S
C574 C369 1.676 . S
C569 C21 1.641 . S
C584 C391 1.661 . S
C579 C42 1.563 . S
C589 C101 1.550 . S
C594 C371 1.675 . S
C604 C393 1.660 . S
C599 C122 1.649 . S
C614 C325 1.676 . S
C609 C181 1.644 . S
C619 C202 1.566 . S
C624 C347 1.658 . S
C629 C261 1.551 . S
C634 C327 1.673 . S
C639 C282 1.649 . S
C644 C349 1.663 . S
