# Generated by pormake.
# Topology anh, (6,3)-cn, num edge types: 1
# Building blocks:
#     Node 0, Type 0, BuildingBlock: BETFEN_clean_sbu_0, # of connection points: 6
#     Node 1, Type 0, BuildingBlock: BETFEN_clean_sbu_0, # of connection points: 6
#     Node 2, Type 0, BuildingBlock: BETFEN_clean_sbu_0, # of connection points: 6
#     Node 3, Type 1, BuildingBlock: OLANEW_clean_sbu_2, # of connection points: 3
#     Node 4, Type 1, BuildingBlock: OLANEW_clean_sbu_2, # of connection points: 3
#     Node 5, Type 1, BuildingBlock: OLANEW_clean_sbu_2, # of connection points: 3
#     Node 6, Type 1, BuildingBlock: OLANEW_clean_sbu_2, # of connection points: 3
#     Node 7, Type 1, BuildingBlock: OLANEW_clean_sbu_2, # of connection points: 3
#     Node 8, Type 1, BuildingBlock: OLANEW_clean_sbu_2, # of connection points: 3
#     Edge 9, Type (0, 1), BuildingBlock: MIFKUJ_clean_linker_0, # of connection points: 2
#     Edge 10, Type (0, 1), BuildingBlock: MIFKUJ_clean_linker_0, # of connection points: 2
#     Edge 11, Type (0, 1), BuildingBlock: MIFKUJ_clean_linker_0, # of connection points: 2
#     Edge 12, Type (0, 1), BuildingBlock: MIFKUJ_clean_linker_0, # of connection points: 2
#     Edge 13, Type (0, 1), BuildingBlock: MIFKUJ_clean_linker_0, # of connection points: 2
#     Edge 14, Type (0, 1), BuildingBlock: MIFKUJ_clean_linker_0, # of connection points: 2
#     Edge 15, Type (0, 1), BuildingBlock: MIFKUJ_clean_linker_0, # of connection points: 2
#     Edge 16, Type (0, 1), BuildingBlock: MIFKUJ_clean_linker_0, # of connection points: 2
#     Edge 17, Type (0, 1), BuildingBlock: MIFKUJ_clean_linker_0, # of connection points: 2
#     Edge 18, Type (0, 1), BuildingBlock: MIFKUJ_clean_linker_0, # of connection points: 2
#     Edge 19, Type (0, 1), BuildingBlock: MIFKUJ_clean_linker_0, # of connection points: 2
#     Edge 20, Type (0, 1), BuildingBlock: MIFKUJ_clean_linker_0, # of connection points: 2
#     Edge 21, Type (0, 1), BuildingBlock: MIFKUJ_clean_linker_0, # of connection points: 2
#     Edge 22, Type (0, 1), BuildingBlock: MIFKUJ_clean_linker_0, # of connection points: 2
#     Edge 23, Type (0, 1), BuildingBlock: MIFKUJ_clean_linker_0, # of connection points: 2
#     Edge 24, Type (0, 1), BuildingBlock: MIFKUJ_clean_linker_0, # of connection points: 2
#     Edge 25, Type (0, 1), BuildingBlock: MIFKUJ_clean_linker_0, # of connection points: 2
#     Edge 26, Type (0, 1), BuildingBlock: MIFKUJ_clean_linker_0, # of connection points: 2
# Relax obj value: 0.113
# Max RMSD: 0.153
# Mean RMSD: 0.109
data_MOF--net-anh--node1-BETFEN_clean_sbu_0--node2-OLANEW_clean_sbu_2--edge1-MIFKUJ_clean_linker_0
_symmetry_space_group_name_H-M    P1
_symmetry_Int_Tables_number       1
_symmetry_cell_setting            triclinic
loop_
_symmetry_equiv_pos_as_xyz
'x, y, z'
_cell_length_a     42.32003
_cell_length_b     46.49761
_cell_length_c     65.569388
_cell_angle_alpha  89.620417
_cell_angle_beta   92.411394
_cell_angle_gamma 110.46911
loop_
_atom_site_label
_atom_site_type_symbol
_atom_site_fract_x
_atom_site_fract_y
_atom_site_fract_z
_atom_type_partial_charge
Pr0 Pr 1.00331 0.50129 0.16849 0.0
Pr1 Pr 0.02967 0.57274 0.15402 0.0
C2 C 0.97747 0.45081 0.19119 0.0
C3 C 0.94616 0.42341 0.19152 0.0
C4 C 0.9469 0.39445 0.1862 0.0
C5 C 0.9176 0.36838 0.18647 0.0
C6 C 0.88687 0.37059 0.19225 0.0
C7 C 0.88623 0.39961 0.19768 0.0
C8 C 0.91548 0.4257 0.1973 0.0
C9 C 0.99926 0.50485 0.12573 0.0
C10 C 0.94842 0.53604 0.15491 0.0
C11 C 0.06068 0.62789 0.13703 0.0
C12 C 0.09361 0.65264 0.13968 0.0
C13 C 0.11719 0.65078 0.15484 0.0
C14 C 0.14814 0.67481 0.15767 0.0
C15 C 0.15607 0.70111 0.14535 0.0
C16 C 0.13242 0.70257 0.12998 0.0
C17 C 0.10146 0.67854 0.1272 0.0
C18 C 0.02122 0.56189 0.19565 0.0
C19 C 0.08539 0.5363 0.16277 0.0
O20 O 0.97511 0.47741 0.1958 0.0
O21 O 0.99784 0.45234 0.17633 0.0
O22 O 0.0088 0.52648 0.13849 0.0
O23 O 0.99025 0.47883 0.13531 0.0
O24 O 0.97219 0.55758 0.14531 0.0
O25 O 0.95511 0.51559 0.16685 0.0
O26 O 0.06099 0.60211 0.12934 0.0
O27 O 0.04056 0.62387 0.15224 0.0
O28 O 0.03334 0.54764 0.18379 0.0
O29 O 0.01476 0.58408 0.18631 0.0
O30 O 0.06164 0.51156 0.1696 0.0
O31 O 0.07911 0.56077 0.15603 0.0
H32 H 0.97018 0.39194 0.18176 0.0
H33 H 0.91901 0.34652 0.18194 0.0
H34 H 0.8632 0.40216 0.20254 0.0
H35 H 0.91398 0.44761 0.20163 0.0
H36 H 0.11148 0.63089 0.16463 0.0
H37 H 0.16552 0.67304 0.1698 0.0
H38 H 0.13788 0.72224 0.12003 0.0
H39 H 0.08357 0.68025 0.11536 0.0
Pr40 Pr 0.54265 0.02528 0.51847 0.0
Pr41 Pr 0.46811 1.00168 0.52666 0.0
C42 C 0.60375 0.05543 0.50358 0.0
C43 C 0.62685 0.08741 0.50184 0.0
C44 C 0.62978 0.10932 0.51715 0.0
C45 C 0.65159 0.13967 0.51504 0.0
C46 C 0.67049 0.1487 0.49748 0.0
C47 C 0.66726 0.12671 0.48215 0.0
C48 C 0.6457 0.09635 0.48435 0.0
C49 C 0.52881 0.0159 0.55954 0.0
C50 C 0.50326 0.07594 0.52627 0.0
C51 C 0.40545 0.96967 0.53853 0.0
C52 C 0.38051 0.93871 0.53401 0.0
C53 C 0.36996 0.92888 0.51381 0.0
C54 C 0.34681 0.89938 0.50976 0.0
C55 C 0.33393 0.87896 0.52579 0.0
C56 C 0.34479 0.88868 0.54597 0.0
C57 C 0.36775 0.91832 0.55003 0.0
C58 C 0.4826 0.01029 0.48549 0.0
C59 C 0.50866 0.95119 0.52263 0.0
O60 O 0.5757 0.04777 0.49237 0.0
O61 O 0.59962 0.04373 0.52191 0.0
O62 O 0.51397 0.02815 0.54705 0.0
O63 O 0.55295 0.00948 0.55127 0.0
O64 O 0.47836 0.05336 0.53418 0.0
O65 O 0.52817 0.07035 0.51747 0.0
O66 O 0.43268 0.97074 0.54918 0.0
O67 O 0.41153 0.98968 0.52375 0.0
O68 O 0.49681 0.99791 0.49824 0.0
O69 O 0.4591 0.0177 0.49364 0.0
O70 O 0.53384 0.97295 0.51428 0.0
O71 O 0.48318 0.9574 0.53006 0.0
H72 H 0.6151 0.10301 0.53068 0.0
H73 H 0.65327 0.15619 0.52698 0.0
H74 H 0.68171 0.13291 0.46854 0.0
H75 H 0.64367 0.07982 0.47235 0.0
H76 H 0.37966 0.94389 0.50108 0.0
H77 H 0.33926 0.89241 0.49405 0.0
H78 H 0.33511 0.87354 0.55864 0.0
H79 H 0.3756 0.92531 0.56572 0.0
Pr80 Pr 0.49304 0.49795 0.80518 0.0
Pr81 Pr 0.52169 0.56881 0.822 0.0
C82 C 0.48009 0.44415 0.7858 0.0
C83 C 0.4867 0.41594 0.79114 0.0
C84 C 0.48131 0.40388 0.81091 0.0
C85 C 0.48923 0.37802 0.81619 0.0
C86 C 0.50313 0.36392 0.80192 0.0
C87 C 0.50848 0.37608 0.78211 0.0
C88 C 0.50025 0.40184 0.77677 0.0
C89 C 0.49599 0.50553 0.8474 0.0
C90 C 0.57693 0.53429 0.81418 0.0
C91 C 0.53573 0.61815 0.84635 0.0
C92 C 0.52431 0.64444 0.84701 0.0
C93 C 0.5107 0.65365 0.82935 0.0
C94 C 0.49777 0.67739 0.83031 0.0
C95 C 0.4979 0.69212 0.84901 0.0
C96 C 0.51166 0.68277 0.86666 0.0
C97 C 0.52475 0.65911 0.86565 0.0
C98 C 0.51063 0.56606 0.7792 0.0
C99 C 0.43952 0.5333 0.81151 0.0
O100 O 0.50672 0.46829 0.78236 0.0
O101 O 0.45781 0.45033 0.79654 0.0
O102 O 0.51733 0.52177 0.83536 0.0
O103 O 0.47372 0.48233 0.83791 0.0
O104 O 0.57167 0.55808 0.82242 0.0
O105 O 0.55216 0.51048 0.80598 0.0
O106 O 0.51268 0.59159 0.85033 0.0
O107 O 0.55441 0.61716 0.83105 0.0
O108 O 0.50545 0.54467 0.79168 0.0
O109 O 0.52247 0.59202 0.78914 0.0
O110 O 0.44629 0.51339 0.79968 0.0
O111 O 0.46291 0.55286 0.82361 0.0
H112 H 0.47121 0.41454 0.82237 0.0
H113 H 0.48427 0.36901 0.83146 0.0
H114 H 0.51959 0.36606 0.77083 0.0
H115 H 0.50496 0.41104 0.76152 0.0
H116 H 0.50978 0.64229 0.81484 0.0
H117 H 0.48782 0.68429 0.81638 0.0
H118 H 0.51172 0.69333 0.88135 0.0
H119 H 0.53472 0.65192 0.87948 0.0
O120 O 0.5275 0.04861 0.25864 0.0
Cd121 Cd 0.53328 0.0504 0.22164 0.0
O122 O 0.52823 1.00161 0.26157 0.0
Cd123 Cd 0.51586 0.98901 0.22937 0.0
O124 O 0.48002 0.95471 0.20894 0.0
C125 C 0.45227 0.95776 0.20326 0.0
O126 O 0.4469 0.98286 0.20845 0.0
C127 C 0.52874 0.02649 0.26976 0.0
C128 C 0.58934 0.10156 0.21197 0.0
O129 O 0.55972 0.10319 0.21203 0.0
O130 O 0.59235 0.07565 0.21614 0.0
O131 O 0.49769 0.47874 0.56062 0.0
Cd132 Cd 0.49361 0.44646 0.52958 0.0
O133 O 0.49698 0.5234 0.549 0.0
Cd134 Cd 0.49881 0.57242 0.5477 0.0
O135 O 0.49775 0.61965 0.54137 0.0
C136 C 0.50814 0.64166 0.55435 0.0
O137 O 0.51997 0.63652 0.57232 0.0
C138 C 0.49825 0.50604 0.56403 0.0
C139 C 0.49828 0.38691 0.53388 0.0
O140 O 0.52439 0.41065 0.53076 0.0
O141 O 0.47022 0.39124 0.53573 0.0
O142 O 0.03898 0.52659 0.89715 0.0
Cd143 Cd 0.04265 0.53078 0.85992 0.0
O144 O 0.98379 0.50297 0.89875 0.0
Cd145 Cd 0.96632 0.50588 0.86716 0.0
O146 O 0.92187 0.50858 0.84982 0.0
C147 C 0.90982 0.5282 0.85626 0.0
O148 O 0.92569 0.5462 0.87162 0.0
C149 C 0.01302 0.51375 0.90748 0.0
C150 C 0.1053 0.5304 0.84758 0.0
O151 O 0.10139 0.55536 0.85294 0.0
O152 O 0.07957 0.50555 0.8479 0.0
O153 O 0.03162 0.52817 0.4247 0.0
Cd154 Cd 0.03209 0.52975 0.462 0.0
O155 O 0.97805 0.52367 0.42124 0.0
Cd156 Cd 0.96431 0.50568 0.45182 0.0
O157 O 0.92915 0.46569 0.46694 0.0
C158 C 0.90279 0.45122 0.45609 0.0
O159 O 0.89883 0.46193 0.43792 0.0
C160 C 0.0064 0.52823 0.41345 0.0
C161 C 0.08115 0.58472 0.47613 0.0
O162 O 0.08773 0.55986 0.47546 0.0
O163 O 0.05134 0.58349 0.47047 0.0
O164 O 0.46802 0.02258 0.78275 0.0
Cd165 Cd 0.45597 0.02833 0.81853 0.0
O166 O 0.5089 1.00359 0.78693 0.0
Cd167 Cd 0.51816 0.01916 0.81842 0.0
O168 O 0.52919 0.06075 0.8364 0.0
C169 C 0.55559 0.08271 0.83173 0.0
O170 O 0.57562 0.07738 0.81863 0.0
C171 C 0.48799 0.01068 0.77529 0.0
C172 C 0.43945 0.97086 0.83662 0.0
O173 O 0.41768 0.97754 0.82525 0.0
O174 O 0.46817 0.99184 0.8403 0.0
O175 O 0.53228 0.51877 0.07749 0.0
Cd176 Cd 0.53834 0.51902 0.11473 0.0
O177 O 0.49315 0.54007 0.07467 0.0
Cd178 Cd 0.47851 0.5377 0.10641 0.0
O179 O 0.43461 0.5347 0.12408 0.0
C180 C 0.42114 0.55467 0.11988 0.0
O181 O 0.4356 0.57619 0.10669 0.0
C182 C 0.51386 0.52982 0.0665 0.0
C183 C 0.60404 0.52194 0.12582 0.0
O184 O 0.57978 0.49608 0.12396 0.0
O185 O 0.59712 0.54641 0.12286 0.0
H186 H 0.14023 0.58272 0.14942 0.0
H187 H 0.1969 0.58231 0.14523 0.0
H188 H 0.16782 0.49105 0.17 0.0
H189 H 0.1105 0.49109 0.1743 0.0
H190 H 0.23364 0.53142 0.18401 0.0
H191 H 0.17 0.49578 0.12154 0.0
H192 H 0.13143 0.49728 0.09265 0.0
H193 H 0.20206 0.58364 0.07385 0.0
H194 H 0.24082 0.58297 0.10288 0.0
H195 H 0.37963 0.50899 0.14346 0.0
H196 H 0.32267 0.50317 0.15368 0.0
H197 H 0.33103 0.5889 0.12465 0.0
H198 H 0.38751 0.59469 0.11421 0.0
H199 H 0.27315 0.54496 0.1132 0.0
H200 H 0.33504 0.58218 0.17686 0.0
H201 H 0.37288 0.58166 0.20639 0.0
H202 H 0.3056 0.49247 0.22303 0.0
H203 H 0.26755 0.49229 0.19341 0.0
C204 C 0.14573 0.56255 0.15417 0.0
C205 C 0.12057 0.53677 0.16202 0.0
C206 C 0.17824 0.56241 0.15174 0.0
C207 C 0.18641 0.53652 0.15707 0.0
C208 C 0.16193 0.51122 0.16575 0.0
C209 C 0.12919 0.51127 0.16813 0.0
C210 C 0.22005 0.53564 0.15243 0.0
C211 C 0.24218 0.53384 0.16851 0.0
C212 C 0.23119 0.53917 0.13221 0.0
C213 C 0.20822 0.53943 0.1145 0.0
C214 C 0.17722 0.5152 0.11133 0.0
C215 C 0.15533 0.51589 0.09492 0.0
C216 C 0.16426 0.54055 0.08143 0.0
C217 C 0.19516 0.56455 0.08431 0.0
C218 C 0.21712 0.56403 0.10074 0.0
C219 C 0.36947 0.52677 0.13947 0.0
C220 C 0.38809 0.55225 0.12794 0.0
C221 C 0.33692 0.52343 0.14535 0.0
C222 C 0.32256 0.54561 0.13994 0.0
C223 C 0.3415 0.57141 0.12891 0.0
C224 C 0.37388 0.57472 0.12301 0.0
C225 C 0.28728 0.54155 0.14484 0.0
C226 C 0.26467 0.54228 0.12872 0.0
C227 C 0.2758 0.537 0.16501 0.0
C228 C 0.29866 0.53707 0.18278 0.0
C229 C 0.32847 0.56234 0.18671 0.0
C230 C 0.34992 0.5622 0.20348 0.0
C231 C 0.34171 0.53701 0.21654 0.0
C232 C 0.31196 0.51194 0.21288 0.0
C233 C 0.29044 0.51196 0.19611 0.0
H234 H 0.35834 0.53695 0.22953 0.0
H235 H 0.14725 0.54103 0.06874 0.0
H236 H 0.71616 0.18546 0.52565 0.0
H237 H 0.75563 0.2378 0.52097 0.0
H238 H 0.71579 0.23709 0.45922 0.0
H239 H 0.67684 0.18463 0.46372 0.0
H240 H 0.78144 0.25883 0.45965 0.0
H241 H 0.69759 0.27798 0.49947 0.0
H242 H 0.6617 0.27166 0.52906 0.0
H243 H 0.74996 0.30498 0.56913 0.0
H244 H 0.78638 0.31115 0.53981 0.0
H245 H 0.84601 0.4148 0.43523 0.0
H246 H 0.80704 0.36468 0.44493 0.0
H247 H 0.86381 0.37032 0.50186 0.0
H248 H 0.90322 0.4209 0.49226 0.0
H249 H 0.79277 0.34629 0.50586 0.0
H250 H 0.87624 0.32871 0.4654 0.0
H251 H 0.91153 0.33511 0.43554 0.0
H252 H 0.82259 0.29879 0.39629 0.0
H253 H 0.78673 0.29258 0.4259 0.0
C254 C 0.71563 0.19662 0.51116 0.0
C255 C 0.69347 0.18093 0.49503 0.0
C256 C 0.73815 0.22657 0.5085 0.0
C257 C 0.73853 0.24158 0.48979 0.0
C258 C 0.7161 0.226 0.47377 0.0
C259 C 0.69387 0.19601 0.47635 0.0
C260 C 0.76299 0.27307 0.48652 0.0
C261 C 0.78354 0.27797 0.46964 0.0
C262 C 0.76658 0.29798 0.49987 0.0
C263 C 0.74471 0.29472 0.51747 0.0
C264 C 0.70934 0.28378 0.51461 0.0
C265 C 0.6889 0.28025 0.53133 0.0
C266 C 0.70355 0.28779 0.55097 0.0
C267 C 0.73866 0.29908 0.55392 0.0
C268 C 0.75921 0.30263 0.53725 0.0
C269 C 0.85021 0.40559 0.4499 0.0
C270 C 0.87796 0.4218 0.4629 0.0
C271 C 0.82787 0.37687 0.4554 0.0
C272 C 0.83277 0.36361 0.47399 0.0
C273 C 0.85965 0.38014 0.48741 0.0
C274 C 0.88218 0.40897 0.48187 0.0
C275 C 0.81052 0.33194 0.47881 0.0
C276 C 0.79059 0.32703 0.49596 0.0
C277 C 0.80729 0.30697 0.46567 0.0
C278 C 0.8288 0.31042 0.44785 0.0
C279 C 0.8642 0.32229 0.45038 0.0
C280 C 0.88431 0.32585 0.43351 0.0
C281 C 0.86931 0.31742 0.41403 0.0
C282 C 0.83417 0.30533 0.41139 0.0
C283 C 0.81394 0.30176 0.42822 0.0
H284 H 0.88493 0.32021 0.40098 0.0
H285 H 0.68771 0.28493 0.56391 0.0
H286 H 0.52313 0.74563 0.87109 0.0
H287 H 0.50105 0.78754 0.87191 0.0
H288 H 0.41946 0.73789 0.82974 0.0
H289 H 0.44098 0.69545 0.82914 0.0
H290 H 0.45155 0.79707 0.81808 0.0
H291 H 0.40229 0.74547 0.87803 0.0
H292 H 0.40078 0.7199 0.91121 0.0
H293 H 0.47102 0.80324 0.93755 0.0
H294 H 0.47336 0.82922 0.90444 0.0
H295 H 0.38887 0.91859 0.8234 0.0
H296 H 0.38671 0.86579 0.82867 0.0
H297 H 0.47481 0.89851 0.86943 0.0
H298 H 0.47716 0.95124 0.86427 0.0
H299 H 0.42866 0.84261 0.88156 0.0
H300 H 0.48492 0.89072 0.82076 0.0
H301 H 0.48858 0.91669 0.78757 0.0
H302 H 0.40652 0.83957 0.76285 0.0
H303 H 0.40198 0.81337 0.79606 0.0
C304 C 0.50015 0.74332 0.86227 0.0
C305 C 0.48386 0.71718 0.85003 0.0
C306 C 0.48757 0.76732 0.86275 0.0
C307 C 0.45845 0.76565 0.85104 0.0
C308 C 0.44196 0.73956 0.8389 0.0
C309 C 0.45443 0.71546 0.83848 0.0
C310 C 0.44657 0.79205 0.8506 0.0
C311 C 0.44572 0.8066 0.83189 0.0
C312 C 0.43956 0.80472 0.86869 0.0
C313 C 0.43816 0.78924 0.88869 0.0
C314 C 0.41761 0.7583 0.89085 0.0
C315 C 0.41657 0.74374 0.90966 0.0
C316 C 0.43583 0.75992 0.92647 0.0
C317 C 0.45612 0.79073 0.92451 0.0
C318 C 0.45728 0.8054 0.90573 0.0
C319 C 0.40721 0.91447 0.83392 0.0
C320 C 0.43348 0.93906 0.84321 0.0
C321 C 0.40599 0.88431 0.83686 0.0
C322 C 0.43092 0.8784 0.84918 0.0
C323 C 0.4554 0.90266 0.85982 0.0
C324 C 0.45678 0.93278 0.8568 0.0
C325 C 0.43422 0.84778 0.84913 0.0
C326 C 0.43365 0.83258 0.86772 0.0
C327 C 0.44008 0.83453 0.83094 0.0
C328 C 0.44279 0.85027 0.81097 0.0
C329 C 0.46743 0.87943 0.80831 0.0
C330 C 0.46971 0.89417 0.78949 0.0
C331 C 0.44772 0.87983 0.77313 0.0
C332 C 0.42347 0.85069 0.77556 0.0
C333 C 0.42102 0.83589 0.79438 0.0
H334 H 0.44956 0.89126 0.75855 0.0
H335 H 0.43499 0.74861 0.94102 0.0
H336 H 0.89116 0.48823 0.16367 0.0
H337 H 0.83264 0.48604 0.15947 0.0
H338 H 0.86674 0.57856 0.13663 0.0
H339 H 0.92542 0.58089 0.14053 0.0
H340 H 0.81664 0.5662 0.16713 0.0
H341 H 0.83611 0.52465 0.10362 0.0
H342 H 0.85366 0.48965 0.0825 0.0
H343 H 0.77787 0.41196 0.10815 0.0
H344 H 0.76019 0.44651 0.12967 0.0
H345 H 0.66167 0.57261 0.12603 0.0
H346 H 0.71976 0.57475 0.13212 0.0
H347 H 0.68416 0.47713 0.14275 0.0
H348 H 0.62598 0.47471 0.1361 0.0
H349 H 0.7354 0.49156 0.11922 0.0
H350 H 0.71464 0.53082 0.1823 0.0
H351 H 0.69713 0.56407 0.205 0.0
H352 H 0.77451 0.6436 0.18251 0.0
H353 H 0.7922 0.61085 0.15946 0.0
C354 C 0.88627 0.50815 0.15776 0.0
C355 C 0.91297 0.53472 0.15237 0.0
C356 C 0.8528 0.50681 0.15534 0.0
C357 C 0.84541 0.5321 0.14769 0.0
C358 C 0.87197 0.55881 0.14257 0.0
C359 C 0.90545 0.56003 0.14471 0.0
C360 C 0.80989 0.53053 0.14487 0.0
C361 C 0.79891 0.55019 0.15647 0.0
C362 C 0.78664 0.50895 0.13144 0.0
C363 C 0.79706 0.48816 0.1184 0.0
C364 C 0.82337 0.50009 0.10488 0.0
C365 C 0.83331 0.48034 0.09282 0.0
C366 C 0.81695 0.4486 0.09402 0.0
C367 C 0.79055 0.43655 0.10726 0.0
C368 C 0.78054 0.45621 0.11938 0.0
C369 C 0.66616 0.55162 0.1298 0.0
C370 C 0.63916 0.52349 0.13061 0.0
C371 C 0.69943 0.55289 0.13337 0.0
C372 C 0.70642 0.52616 0.13814 0.0
C373 C 0.67946 0.49808 0.1391 0.0
C374 C 0.64618 0.49674 0.13536 0.0
C375 C 0.74188 0.52734 0.14147 0.0
C376 C 0.75295 0.50759 0.12994 0.0
C377 C 0.7651 0.54859 0.15519 0.0
C378 C 0.75452 0.56839 0.169 0.0
C379 C 0.72774 0.55542 0.18207 0.0
C380 C 0.71782 0.57418 0.19502 0.0
C381 C 0.73464 0.60594 0.19516 0.0
C382 C 0.76147 0.619 0.18237 0.0
C383 C 0.77148 0.60035 0.16937 0.0
H384 H 0.72693 0.62042 0.2052 0.0
H385 H 0.82468 0.43334 0.08467 0.0
H386 H 0.33274 0.82415 0.54203 0.0
H387 H 0.29112 0.77288 0.53467 0.0
H388 H 0.23679 0.81233 0.49265 0.0
H389 H 0.27836 0.8635 0.49978 0.0
H390 H 0.19587 0.77104 0.52129 0.0
H391 H 0.2807 0.77482 0.47252 0.0
H392 H 0.33813 0.78128 0.46211 0.0
H393 H 0.3412 0.70964 0.50294 0.0
H394 H 0.28371 0.70272 0.51355 0.0
H395 H 0.08085 0.64262 0.46957 0.0
H396 H 0.12469 0.69121 0.47938 0.0
H397 H 0.18415 0.64215 0.50808 0.0
H398 H 0.1409 0.59337 0.49739 0.0
H399 H 0.224 0.68741 0.48889 0.0
H400 H 0.13876 0.67956 0.53597 0.0
H401 H 0.08166 0.67191 0.54744 0.0
H402 H 0.08014 0.75064 0.51338 0.0
H403 H 0.13708 0.75853 0.50148 0.0
C404 C 0.31187 0.82185 0.53125 0.0
C405 C 0.30886 0.84782 0.52143 0.0
C406 C 0.28827 0.79258 0.52698 0.0
C407 C 0.26097 0.78884 0.51305 0.0
C408 C 0.25773 0.81474 0.50339 0.0
C409 C 0.28158 0.84391 0.50741 0.0
C410 C 0.23523 0.75807 0.50885 0.0
C411 C 0.20186 0.75279 0.51402 0.0
C412 C 0.24339 0.73401 0.50009 0.0
C413 C 0.27806 0.73841 0.49392 0.0
C414 C 0.2937 0.76056 0.47935 0.0
C415 C 0.32616 0.76417 0.47332 0.0
C416 C 0.34325 0.74582 0.48181 0.0
C417 C 0.32789 0.72378 0.49633 0.0
C418 C 0.29534 0.71993 0.50231 0.0
C419 C 0.10318 0.64216 0.47806 0.0
C420 C 0.10733 0.61414 0.48279 0.0
C421 C 0.12821 0.67001 0.48379 0.0
C422 C 0.15758 0.6705 0.49488 0.0
C423 C 0.16176 0.64248 0.4996 0.0
C424 C 0.13697 0.61458 0.49353 0.0
C425 C 0.18417 0.70026 0.50104 0.0
C426 C 0.21781 0.70543 0.49631 0.0
C427 C 0.17634 0.72411 0.51055 0.0
C428 C 0.14209 0.71948 0.5177 0.0
C429 C 0.12616 0.69512 0.53081 0.0
C430 C 0.09383 0.69076 0.5374 0.0
C431 C 0.07725 0.71073 0.5311 0.0
C432 C 0.093 0.73516 0.51823 0.0
C433 C 0.12532 0.73962 0.51157 0.0
H434 H 0.05222 0.70732 0.53623 0.0
H435 H 0.36846 0.74879 0.47722 0.0
H436 H 0.53117 0.35305 0.83832 0.0
H437 H 0.54352 0.30726 0.84819 0.0
H438 H 0.50913 0.26799 0.78832 0.0
H439 H 0.49487 0.31287 0.77872 0.0
H440 H 0.48475 0.22668 0.81581 0.0
H441 H 0.59451 0.30029 0.8032 0.0
H442 H 0.64166 0.34962 0.80759 0.0
H443 H 0.65259 0.33073 0.87116 0.0
H444 H 0.60519 0.28145 0.86721 0.0
H445 H 0.60076 0.1354 0.81696 0.0
H446 H 0.59669 0.18635 0.818 0.0
H447 H 0.51479 0.15367 0.85904 0.0
H448 H 0.51801 0.10225 0.85762 0.0
H449 H 0.59753 0.23151 0.84345 0.0
H450 H 0.45255 0.17858 0.84182 0.0
H451 H 0.40729 0.12904 0.83379 0.0
H452 H 0.47054 0.10682 0.79171 0.0
H453 H 0.51592 0.1564 0.79926 0.0
C454 C 0.52588 0.33453 0.82731 0.0
C455 C 0.51194 0.33663 0.80772 0.0
C456 C 0.53336 0.30852 0.83291 0.0
C457 C 0.52757 0.28433 0.81893 0.0
C458 C 0.51383 0.28641 0.79935 0.0
C459 C 0.50603 0.31225 0.79381 0.0
C460 C 0.53513 0.25648 0.82472 0.0
C461 C 0.50938 0.22782 0.82195 0.0
C462 C 0.56733 0.25789 0.83261 0.0
C463 C 0.59606 0.28735 0.83496 0.0
C464 C 0.60682 0.30676 0.81814 0.0
C465 C 0.63361 0.33469 0.82055 0.0
C466 C 0.65002 0.34335 0.83966 0.0
C467 C 0.6398 0.32402 0.85638 0.0
C468 C 0.613 0.29607 0.85406 0.0
C469 C 0.58242 0.13917 0.82664 0.0
C470 C 0.5591 0.11462 0.83679 0.0
C471 C 0.58025 0.1684 0.82728 0.0
C472 C 0.55489 0.17356 0.83818 0.0
C473 C 0.5341 0.14995 0.8502 0.0
C474 C 0.53601 0.1206 0.84939 0.0
C475 C 0.54717 0.20189 0.83447 0.0
C476 C 0.5728 0.23055 0.83761 0.0
C477 C 0.51513 0.20054 0.82635 0.0
C478 C 0.48771 0.17101 0.8213 0.0
C479 C 0.4567 0.16316 0.83079 0.0
C480 C 0.43105 0.13508 0.82633 0.0
C481 C 0.43609 0.11475 0.81231 0.0
C482 C 0.46671 0.12254 0.80261 0.0
C483 C 0.49239 0.15062 0.80698 0.0
H484 H 0.41624 0.09299 0.80892 0.0
H485 H 0.67065 0.36502 0.84151 0.0
H486 H 0.5505 0.92579 0.50441 0.0
H487 H 0.54967 0.87288 0.50704 0.0
H488 H 0.46712 0.85145 0.54765 0.0
H489 H 0.46704 0.90368 0.54452 0.0
H490 H 0.56089 0.84003 0.53641 0.0
H491 H 0.41708 0.77699 0.54445 0.0
H492 H 0.36389 0.78453 0.53387 0.0
H493 H 0.41132 0.83665 0.48224 0.0
H494 H 0.4646 0.82892 0.49224 0.0
H495 H 0.53006 0.69317 0.57861 0.0
H496 H 0.52964 0.74442 0.57084 0.0
H497 H 0.48433 0.71301 0.51121 0.0
H498 H 0.48434 0.66128 0.51899 0.0
H499 H 0.4551 0.74995 0.52756 0.0
H500 H 0.56827 0.7565 0.51704 0.0
H501 H 0.62301 0.75069 0.52562 0.0
H502 H 0.63839 0.81175 0.5769 0.0
H503 H 0.5835 0.8176 0.56878 0.0
C504 C 0.53204 0.90976 0.5138 0.0
C505 C 0.50868 0.9191 0.5241 0.0
C506 C 0.53163 0.87944 0.51535 0.0
C507 C 0.50796 0.85772 0.52729 0.0
C508 C 0.48509 0.86727 0.53789 0.0
C509 C 0.48521 0.89738 0.53616 0.0
C510 C 0.50751 0.82533 0.52901 0.0
C511 C 0.53771 0.82041 0.53441 0.0
C512 C 0.47746 0.79938 0.52607 0.0
C513 C 0.44499 0.80269 0.51927 0.0
C514 C 0.41611 0.78987 0.53075 0.0
C515 C 0.38598 0.79428 0.5249 0.0
C516 C 0.38439 0.81142 0.50756 0.0
C517 C 0.41271 0.82366 0.49579 0.0
C518 C 0.44286 0.81923 0.50153 0.0
C519 C 0.51996 0.69702 0.56381 0.0
C520 C 0.50738 0.67292 0.54941 0.0
C521 C 0.51986 0.72652 0.55934 0.0
C522 C 0.50736 0.73293 0.54031 0.0
C523 C 0.49421 0.70882 0.52599 0.0
C524 C 0.49434 0.6792 0.53045 0.0
C525 C 0.50833 0.76482 0.53545 0.0
C526 C 0.47825 0.76961 0.52946 0.0
C527 C 0.53858 0.79067 0.53749 0.0
C528 C 0.57164 0.78728 0.5424 0.0
C529 C 0.58321 0.76851 0.53023 0.0
C530 C 0.61428 0.76524 0.535 0.0
C531 C 0.63413 0.78079 0.55182 0.0
C532 C 0.62297 0.7997 0.56388 0.0
C533 C 0.5919 0.80302 0.5592 0.0
H534 H 0.65818 0.77823 0.55548 0.0
H535 H 0.36114 0.81499 0.50311 0.0
H536 H 0.63311 0.57497 0.83365 0.0
H537 H 0.68981 0.57283 0.83644 0.0
H538 H 0.65706 0.49023 0.79965 0.0
H539 H 0.59982 0.49178 0.79714 0.0
H540 H 0.69451 0.48392 0.83127 0.0
H541 H 0.70736 0.55994 0.78029 0.0
H542 H 0.70283 0.6067 0.76452 0.0
H543 H 0.766 0.66165 0.8131 0.0
H544 H 0.77053 0.61516 0.82934 0.0
H545 H 0.86554 0.48951 0.82803 0.0
H546 H 0.8097 0.48966 0.81654 0.0
H547 H 0.82413 0.56908 0.85444 0.0
H548 H 0.87983 0.5693 0.86579 0.0
H549 H 0.79601 0.57446 0.81752 0.0
H550 H 0.77669 0.49658 0.87007 0.0
H551 H 0.78089 0.44937 0.88539 0.0
H552 H 0.73032 0.39763 0.83214 0.0
H553 H 0.72589 0.44457 0.8165 0.0
C554 C 0.63789 0.55642 0.826 0.0
C555 C 0.6118 0.53361 0.8151 0.0
C556 C 0.67047 0.55531 0.82754 0.0
C557 C 0.67794 0.53163 0.81799 0.0
C558 C 0.65198 0.50879 0.80709 0.0
C559 C 0.61926 0.50978 0.80563 0.0
C560 C 0.71257 0.53028 0.82006 0.0
C561 C 0.71666 0.50354 0.82787 0.0
C562 C 0.7416 0.55594 0.81586 0.0
C563 C 0.73907 0.58401 0.80611 0.0
C564 C 0.72009 0.58197 0.7877 0.0
C565 C 0.71756 0.60844 0.77866 0.0
C566 C 0.73406 0.63712 0.78782 0.0
C567 C 0.75321 0.63941 0.80603 0.0
C568 C 0.75581 0.61301 0.81514 0.0
C569 C 0.85694 0.50717 0.83377 0.0
C570 C 0.87711 0.5293 0.84792 0.0
C571 C 0.82494 0.50713 0.82726 0.0
C572 C 0.81254 0.52918 0.83482 0.0
C573 C 0.83312 0.55183 0.84842 0.0
C574 C 0.86497 0.55185 0.85494 0.0
C575 C 0.77785 0.52841 0.82914 0.0
C576 C 0.77379 0.55475 0.82064 0.0
C577 C 0.74887 0.50234 0.83258 0.0
C578 C 0.75127 0.47411 0.84204 0.0
C579 C 0.76662 0.47515 0.8616 0.0
C580 C 0.76896 0.44843 0.87036 0.0
C581 C 0.75589 0.42051 0.85974 0.0
C582 C 0.74036 0.41925 0.84036 0.0
C583 C 0.73788 0.44589 0.83156 0.0
H584 H 0.75776 0.39986 0.86653 0.0
H585 H 0.73207 0.65759 0.7808 0.0
H586 H 0.16669 0.7627 0.14421 0.0
H587 H 0.21956 0.80542 0.15078 0.0
H588 H 0.27174 0.74158 0.16139 0.0
H589 H 0.21895 0.69863 0.15459 0.0
H590 H 0.28793 0.78493 0.1908 0.0
H591 H 0.28274 0.78335 0.11793 0.0
H592 H 0.25701 0.78279 0.08343 0.0
H593 H 0.24759 0.8701 0.09523 0.0
H594 H 0.27284 0.87098 0.12994 0.0
H595 H 0.45089 0.89928 0.19629 0.0
H596 H 0.40299 0.8553 0.18344 0.0
H597 H 0.34336 0.91337 0.17499 0.0
H598 H 0.39113 0.95752 0.18778 0.0
H599 H 0.33317 0.87169 0.14316 0.0
H600 H 0.33467 0.87127 0.21664 0.0
H601 H 0.36004 0.87176 0.25125 0.0
H602 H 0.37615 0.78773 0.23804 0.0
H603 H 0.35129 0.78698 0.20323 0.0
C604 C 0.18948 0.7577 0.14761 0.0
C605 C 0.18853 0.72717 0.14882 0.0
C606 C 0.21972 0.78219 0.1514 0.0
C607 C 0.24971 0.77673 0.15639 0.0
C608 C 0.2489 0.74633 0.15758 0.0
C609 C 0.21867 0.7218 0.15377 0.0
C610 C 0.2816 0.80276 0.1611 0.0
C611 C 0.29814 0.80361 0.18021 0.0
C612 C 0.29455 0.8275 0.14749 0.0
C613 C 0.27941 0.82709 0.12661 0.0
C614 C 0.27493 0.80232 0.11324 0.0
C615 C 0.26048 0.80196 0.09363 0.0
C616 C 0.2506 0.82636 0.08716 0.0
C617 C 0.25523 0.8512 0.10027 0.0
C618 C 0.26964 0.85165 0.11991 0.0
C619 C 0.42776 0.90282 0.19145 0.0
C620 C 0.42476 0.9319 0.19324 0.0
C621 C 0.40036 0.87762 0.18417 0.0
C622 C 0.36948 0.88099 0.17852 0.0
C623 C 0.36693 0.91025 0.17932 0.0
C624 C 0.39425 0.93544 0.1867 0.0
C625 C 0.33931 0.8538 0.17284 0.0
C626 C 0.32307 0.85281 0.15362 0.0
C627 C 0.3266 0.82889 0.18633 0.0
C628 C 0.34149 0.82926 0.20726 0.0
C629 C 0.34389 0.85304 0.22106 0.0
C630 C 0.35813 0.85334 0.24072 0.0
C631 C 0.36979 0.82985 0.24682 0.0
C632 C 0.36716 0.80595 0.23328 0.0
C633 C 0.35299 0.80557 0.21359 0.0
H634 H 0.3808 0.83011 0.26205 0.0
H635 H 0.23942 0.82604 0.07197 0.0
H636 H 0.45446 0.09618 0.54054 0.0
H637 H 0.45493 0.14886 0.54223 0.0
H638 H 0.55327 0.1818 0.51662 0.0
H639 H 0.55312 0.12914 0.515 0.0
H640 H 0.55055 0.21866 0.54769 0.0
H641 H 0.48262 0.1765 0.48752 0.0
H642 H 0.43637 0.13889 0.46722 0.0
H643 H 0.36355 0.15547 0.50465 0.0
H644 H 0.40942 0.19288 0.52537 0.0
H645 H 0.55149 0.36922 0.52448 0.0
H646 H 0.55338 0.3173 0.52349 0.0
H647 H 0.45146 0.28101 0.5439 0.0
H648 H 0.44908 0.33284 0.54421 0.0
H649 H 0.45701 0.24584 0.51504 0.0
H650 H 0.52531 0.28698 0.57595 0.0
H651 H 0.57179 0.32472 0.59607 0.0
H652 H 0.64394 0.31064 0.5569 0.0
H653 H 0.59789 0.27277 0.53655 0.0
C654 C 0.47624 0.11457 0.53526 0.0
C655 C 0.50366 0.1082 0.52752 0.0
C656 C 0.47642 0.14479 0.53616 0.0
C657 C 0.50397 0.1695 0.52934 0.0
C658 C 0.53165 0.16327 0.52195 0.0
C659 C 0.53145 0.13302 0.52095 0.0
C660 C 0.50379 0.20171 0.52983 0.0
C661 C 0.53028 0.22465 0.54033 0.0
C662 C 0.47713 0.20968 0.52058 0.0
C663 C 0.44948 0.18726 0.50812 0.0
C664 C 0.45676 0.17194 0.49153 0.0
C665 C 0.43061 0.15069 0.47992 0.0
C666 C 0.39704 0.14473 0.48467 0.0
C667 C 0.38956 0.16008 0.50101 0.0
C668 C 0.41563 0.18132 0.51268 0.0
C669 C 0.52954 0.35024 0.52891 0.0
C670 C 0.50017 0.35538 0.53451 0.0
C671 C 0.5307 0.32042 0.52844 0.0
C672 C 0.50274 0.29491 0.53391 0.0
C673 C 0.47345 0.30008 0.5396 0.0
C674 C 0.47216 0.32986 0.53987 0.0
C675 C 0.50357 0.26286 0.53314 0.0
C676 C 0.47725 0.23991 0.52249 0.0
C677 C 0.53038 0.25489 0.54227 0.0
C678 C 0.55814 0.27725 0.55465 0.0
C679 C 0.55109 0.292 0.5716 0.0
C680 C 0.57736 0.31335 0.58307 0.0
C681 C 0.6108 0.32005 0.57777 0.0
C682 C 0.61805 0.30532 0.56103 0.0
C683 C 0.59188 0.28387 0.54956 0.0
H684 H 0.6311 0.33665 0.58663 0.0
H685 H 0.37683 0.12828 0.47567 0.0
H686 H 0.38086 0.48973 0.79622 0.0
H687 H 0.32299 0.4883 0.80011 0.0
H688 H 0.36124 0.57541 0.83191 0.0
H689 H 0.41878 0.57671 0.82848 0.0
H690 H 0.31263 0.537 0.85215 0.0
H691 H 0.32748 0.56769 0.78224 0.0
H692 H 0.34151 0.56343 0.74653 0.0
H693 H 0.26051 0.47662 0.74032 0.0
H694 H 0.24632 0.48012 0.77612 0.0
H695 H 0.16624 0.57712 0.85151 0.0
H696 H 0.22165 0.57624 0.8431 0.0
H697 H 0.17567 0.48282 0.82158 0.0
H698 H 0.12 0.48338 0.83013 0.0
H699 H 0.22638 0.52156 0.79567 0.0
H700 H 0.21192 0.49246 0.86617 0.0
H701 H 0.19904 0.49805 0.90194 0.0
H702 H 0.28087 0.58451 0.90661 0.0
H703 H 0.29393 0.57965 0.87075 0.0
C704 C 0.37693 0.50872 0.80385 0.0
C705 C 0.40449 0.53325 0.81211 0.0
C706 C 0.34382 0.50791 0.80603 0.0
C707 C 0.33768 0.53181 0.81626 0.0
C708 C 0.36524 0.55661 0.82407 0.0
C709 C 0.39821 0.55733 0.82204 0.0
C710 C 0.30267 0.53063 0.81967 0.0
C711 C 0.29397 0.53401 0.83972 0.0
C712 C 0.27795 0.52598 0.80357 0.0
C713 C 0.28606 0.52402 0.78194 0.0
C714 C 0.3128 0.54758 0.7733 0.0
C715 C 0.32077 0.54532 0.75304 0.0
C716 C 0.30198 0.51973 0.74118 0.0
C717 C 0.27509 0.49641 0.74954 0.0
C718 C 0.26705 0.49853 0.76981 0.0
C719 C 0.16782 0.55642 0.84489 0.0
C720 C 0.13869 0.53025 0.8416 0.0
C721 C 0.19953 0.55595 0.8401 0.0
C722 C 0.20279 0.52941 0.83182 0.0
C723 C 0.1737 0.50354 0.82794 0.0
C724 C 0.14195 0.50386 0.83294 0.0
C725 C 0.23677 0.52842 0.82806 0.0
C726 C 0.24516 0.52452 0.80802 0.0
C727 C 0.26142 0.53288 0.84413 0.0
C728 C 0.25368 0.53583 0.86571 0.0
C729 C 0.22698 0.51279 0.87477 0.0
C730 C 0.21968 0.51581 0.89507 0.0
C731 C 0.23907 0.54166 0.90652 0.0
C732 C 0.26585 0.56452 0.89771 0.0
C733 C 0.27322 0.56163 0.8774 0.0
H734 H 0.23339 0.54394 0.92224 0.0
H735 H 0.30823 0.518 0.7255 0.0
H736 H 0.82178 0.3654 0.18108 0.0
H737 H 0.77064 0.32001 0.18291 0.0
H738 H 0.83002 0.26715 0.20594 0.0
H739 H 0.88121 0.31254 0.20465 0.0
H740 H 0.78277 0.23635 0.17566 0.0
H741 H 0.78623 0.29205 0.23806 0.0
H742 H 0.78948 0.33746 0.25844 0.0
H743 H 0.6985 0.33962 0.228 0.0
H744 H 0.69496 0.29444 0.20723 0.0
H745 H 0.65579 0.10686 0.21496 0.0
H746 H 0.70519 0.15261 0.20963 0.0
H747 H 0.64028 0.20395 0.19394 0.0
H748 H 0.59069 0.1584 0.19977 0.0
H749 H 0.68938 0.2365 0.21888 0.0
H750 H 0.68372 0.18057 0.15731 0.0
H751 H 0.67989 0.13595 0.13593 0.0
H752 H 0.77364 0.13497 0.16305 0.0
H753 H 0.77782 0.17935 0.18481 0.0
C754 C 0.824 0.34423 0.18674 0.0
C755 C 0.85571 0.34275 0.19281 0.0
C756 C 0.79472 0.31825 0.18767 0.0
C757 C 0.7965 0.29025 0.19469 0.0
C758 C 0.8281 0.28851 0.20041 0.0
C759 C 0.85737 0.3145 0.19958 0.0
C760 C 0.76541 0.26283 0.19633 0.0
C761 C 0.76247 0.23622 0.18528 0.0
C762 C 0.73853 0.26301 0.2084 0.0
C763 C 0.74053 0.29007 0.22095 0.0
C764 C 0.76706 0.30236 0.2356 0.0
C765 C 0.76893 0.32803 0.24724 0.0
C766 C 0.74426 0.34147 0.24447 0.0
C767 C 0.71762 0.32921 0.2301 0.0
C768 C 0.71566 0.30356 0.2184 0.0
C769 C 0.65198 0.12782 0.21024 0.0
C770 C 0.61927 0.12895 0.20776 0.0
C771 C 0.68029 0.15397 0.2071 0.0
C772 C 0.67653 0.18171 0.20112 0.0
C773 C 0.64387 0.18284 0.19853 0.0
C774 C 0.61552 0.15674 0.20181 0.0
C775 C 0.70669 0.20977 0.1983 0.0
C776 C 0.7095 0.23656 0.20915 0.0
C777 C 0.73332 0.20982 0.18588 0.0
C778 C 0.73092 0.18312 0.17282 0.0
C779 C 0.70339 0.17069 0.15883 0.0
C780 C 0.70118 0.14547 0.14663 0.0
C781 C 0.72647 0.13259 0.14817 0.0
C782 C 0.75406 0.14495 0.16189 0.0
C783 C 0.75638 0.17016 0.17415 0.0
H784 H 0.72471 0.11306 0.1387 0.0
H785 H 0.74575 0.36134 0.2535 0.0
H786 H 0.96764 0.46153 0.09703 0.0
H787 H 0.97401 0.46496 0.06014 0.0
H788 H 0.04419 0.55788 0.06731 0.0
H789 H 0.03651 0.55483 0.10421 0.0
H790 H 0.00661 0.5554 0.03518 0.0
H791 H 0.07055 0.49486 0.05878 0.0
H792 H 0.08229 0.45315 0.07735 0.0
H793 H 0.00496 0.38608 0.04099 0.0
H794 H 0.99236 0.42734 0.02238 0.0
H795 H 0.06293 0.55148 0.93308 0.0
H796 H 0.06502 0.55174 0.97057 0.0
H797 H 0.97279 0.47326 0.97014 0.0
H798 H 0.97005 0.47325 0.93279 0.0
H799 H 0.02849 0.47144 0.99878 0.0
H800 H 0.96393 0.536 0.97728 0.0
H801 H 0.95647 0.57963 0.95871 0.0
H802 H 0.04289 0.64203 0.9916 0.0
H803 H 0.05114 0.59865 0.01016 0.0
C804 C 0.98422 0.48275 0.09068 0.0
C805 C 1.00166 0.50792 0.10341 0.0
C806 C 0.9881 0.48463 0.06962 0.0
C807 C 0.01028 0.51142 0.06092 0.0
C808 C 0.02708 0.5369 0.07362 0.0
C809 C 0.02267 0.53519 0.09469 0.0
C810 C 0.01569 0.51273 0.03859 0.0
C811 C 0.01199 0.53727 0.02734 0.0
C812 C 0.02271 0.48913 0.02819 0.0
C813 C 0.03033 0.46421 0.03928 0.0
C814 C 0.05588 0.47121 0.05483 0.0
C815 C 0.06272 0.44766 0.06535 0.0
C816 C 0.04435 0.41701 0.06038 0.0
C817 C 0.01915 0.40984 0.04483 0.0
C818 C 0.01217 0.43329 0.03427 0.0
C819 C 0.04331 0.53409 0.94099 0.0
C820 C 0.01625 0.5124 0.93001 0.0
C821 C 0.04449 0.53434 0.96236 0.0
C822 C 0.01899 0.51258 0.97304 0.0
C823 C 0.99269 0.49022 0.96213 0.0
C824 C 0.99112 0.49032 0.94082 0.0
C825 C 0.01877 0.51368 0.99559 0.0
C826 C 0.0235 0.48964 0.0068 0.0
C827 C 0.01348 0.53804 0.00599 0.0
C828 C 0.0084 0.56407 0.99491 0.0
C829 C 0.98154 0.55899 0.9804 0.0
C830 C 0.97712 0.58368 0.96991 0.0
C831 C 0.99926 0.61358 0.97392 0.0
C832 C 0.0258 0.61885 0.98848 0.0
C833 C 0.03035 0.59423 0.99899 0.0
H834 H 0.99579 0.63266 0.96579 0.0
H835 H 0.04969 0.39881 0.06855 0.0
H836 H 0.46005 0.04287 0.4576 0.0
H837 H 0.47161 0.04891 0.42132 0.0
H838 H 0.53328 0.99224 0.42781 0.0
H839 H 0.52274 0.98711 0.46437 0.0
H840 H 0.56215 0.0379 0.40361 0.0
H841 H 0.45078 0.96405 0.40719 0.0
H842 H 0.39166 0.94322 0.41737 0.0
H843 H 0.37077 0.01631 0.38591 0.0
H844 H 0.42993 0.03783 0.37578 0.0
H845 H 0.54836 0.99198 0.29802 0.0
H846 H 0.54469 0.99335 0.33514 0.0
H847 H 0.50504 0.06688 0.3295 0.0
H848 H 0.50923 0.06612 0.29235 0.0
H849 H 0.46587 0.01386 0.35291 0.0
H850 H 0.57925 0.08553 0.34824 0.0
H851 H 0.63808 0.10288 0.33753 0.0
H852 H 0.65441 0.02876 0.3704 0.0
H853 H 0.59548 0.01069 0.38106 0.0
C854 C 0.47612 0.03175 0.45128 0.0
C855 C 0.49022 0.01426 0.4637 0.0
C856 C 0.48261 0.03511 0.43053 0.0
C857 C 0.50277 0.02052 0.42171 0.0
C858 C 0.51754 1.00361 0.43424 0.0
C859 C 0.5114 1.00058 0.45508 0.0
C860 C 0.50796 0.02254 0.39939 0.0
C861 C 0.54105 0.03229 0.39254 0.0
C862 C 0.48049 0.01562 0.38488 0.0
C863 C 0.44487 1.00272 0.39091 0.0
C864 C 0.43365 0.97581 0.40258 0.0
C865 C 0.40012 0.96386 0.40832 0.0
C866 C 0.3775 0.97848 0.40234 0.0
C867 C 0.38834 0.00504 0.39056 0.0
C868 C 0.42186 0.01711 0.3848 0.0
C869 C 0.5392 0.00868 0.30469 0.0
C870 C 0.52902 0.02891 0.29226 0.0
C871 C 0.53723 0.00948 0.32589 0.0
C872 C 0.52464 0.03024 0.335 0.0
C873 C 0.51487 0.05074 0.3227 0.0
C874 C 0.5174 0.05034 0.30152 0.0
C875 C 0.51992 0.0293 0.35726 0.0
C876 C 0.4869 0.0196 0.36404 0.0
C877 C 0.54738 0.03572 0.37164 0.0
C878 C 0.58283 0.04657 0.36527 0.0
C879 C 0.59528 0.07274 0.35302 0.0
C880 C 0.62867 0.08275 0.347 0.0
C881 C 0.64995 0.06688 0.35323 0.0
C882 C 0.63789 0.04101 0.36555 0.0
C883 C 0.6045 0.03089 0.3716 0.0
H884 H 0.6758 0.07467 0.34856 0.0
H885 H 0.35155 0.96919 0.40679 0.0
H886 H 0.51146 0.60929 0.75062 0.0
H887 H 0.50833 0.6031 0.71326 0.0
H888 H 0.50063 0.50864 0.72017 0.0
H889 H 0.50266 0.51441 0.75736 0.0
H890 H 0.55453 0.55046 0.69314 0.0
H891 H 0.43478 0.51472 0.70661 0.0
H892 H 0.3841 0.52073 0.72043 0.0
H893 H 0.39727 0.59952 0.68265 0.0
H894 H 0.44839 0.59427 0.66886 0.0
H895 H 0.51634 0.47969 0.59749 0.0
H896 H 0.51822 0.4943 0.6331 0.0
H897 H 0.48787 0.57078 0.61576 0.0
H898 H 0.48361 0.55492 0.58001 0.0
H899 H 0.45578 0.54527 0.64778 0.0
H900 H 0.57148 0.58047 0.63198 0.0
H901 H 0.62402 0.5782 0.6184 0.0
H902 H 0.62201 0.50644 0.66044 0.0
H903 H 0.56919 0.50797 0.67409 0.0
C904 C 0.5088 0.58717 0.74411 0.0
C905 C 0.50734 0.56232 0.75681 0.0
C906 C 0.50699 0.58368 0.72284 0.0
C907 C 0.50429 0.55544 0.71405 0.0
C908 C 0.50272 0.5306 0.72672 0.0
C909 C 0.50381 0.5339 0.74792 0.0
C910 C 0.50425 0.55186 0.69164 0.0
C911 C 0.5329 0.54907 0.68318 0.0
C912 C 0.47649 0.55132 0.6787 0.0
C913 C 0.44566 0.55434 0.6869 0.0
C914 C 0.4271 0.53353 0.70142 0.0
C915 C 0.39824 0.53675 0.70921 0.0
C916 C 0.38754 0.56055 0.70247 0.0
C917 C 0.40563 0.58113 0.68789 0.0
C918 C 0.43453 0.57804 0.68007 0.0
C919 C 0.51012 0.49972 0.60112 0.0
C920 C 0.50065 0.51657 0.58562 0.0
C921 C 0.51151 0.50823 0.62159 0.0
C922 C 0.5041 0.53418 0.62719 0.0
C923 C 0.4942 0.55091 0.61184 0.0
C924 C 0.49235 0.54211 0.59127 0.0
C925 C 0.50591 0.54304 0.64913 0.0
C926 C 0.47767 0.54696 0.65758 0.0
C927 C 0.53436 0.54517 0.66208 0.0
C928 C 0.56621 0.5442 0.65396 0.0
C929 C 0.58211 0.56406 0.63824 0.0
C930 C 0.61196 0.56292 0.63054 0.0
C931 C 0.6263 0.54215 0.63853 0.0
C932 C 0.61086 0.52251 0.65426 0.0
C933 C 0.58098 0.52353 0.662 0.0
H934 H 0.64942 0.54131 0.63255 0.0
H935 H 0.36519 0.56299 0.7085 0.0
H936 H 0.48026 0.02942 0.57919 0.0
H937 H 0.46922 0.02417 0.61561 0.0
H938 H 0.5493 0.98762 0.6254 0.0
H939 H 0.56019 0.99247 0.5889 0.0
H940 H 0.49382 0.95648 0.64726 0.0
H941 H 0.56385 0.06141 0.63598 0.0
H942 H 0.57942 0.11188 0.61931 0.0
H943 H 0.48837 0.12229 0.63879 0.0
H944 H 0.47202 0.07165 0.65535 0.0
H945 H 0.52721 0.98652 0.75393 0.0
H946 H 0.52979 0.98335 0.7169 0.0
H947 H 0.45115 0.02203 0.709 0.0
H948 H 0.44867 0.02568 0.74598 0.0
H949 H 0.50374 0.05083 0.68595 0.0
H950 H 0.43534 0.94681 0.69919 0.0
H951 H 0.42092 0.89691 0.71651 0.0
H952 H 0.50919 0.88477 0.69384 0.0
H953 H 0.52449 0.93488 0.67668 0.0
C954 C 0.49541 0.02016 0.58911 0.0
C955 C 0.52134 0.01168 0.58132 0.0
C956 C 0.48909 0.01718 0.60988 0.0
C957 C 0.50872 0.00585 0.62322 0.0
C958 C 0.53391 0.99644 0.61536 0.0
C959 C 0.54022 0.99938 0.59456 0.0
C960 C 0.50401 0.00516 0.6455 0.0
C961 C 0.49628 0.97712 0.65579 0.0
C962 C 0.50663 0.03203 0.6565 0.0
C963 C 0.51655 0.06261 0.64672 0.0
C964 C 0.54703 0.07437 0.63658 0.0
C965 C 0.55601 0.10302 0.62717 0.0
C966 C 0.53485 0.12025 0.62794 0.0
C967 C 0.50471 0.1089 0.63818 0.0
C968 C 0.49559 0.08024 0.64759 0.0
C969 C 0.51026 0.99411 0.74434 0.0
C970 C 0.48784 0.00647 0.75293 0.0
C971 C 0.51166 0.99215 0.72316 0.0
C972 C 0.49052 1.00231 0.71021 0.0
C973 C 0.46769 0.0141 0.71874 0.0
C974 C 0.46627 0.01608 0.73989 0.0
C975 C 0.49344 1.00213 0.68778 0.0
C976 C 0.50098 0.03009 0.67744 0.0
C977 C 0.49069 0.97519 0.6768 0.0
C978 C 0.48123 0.94476 0.68679 0.0
C979 C 0.45181 0.93361 0.698 0.0
C980 C 0.44346 0.90527 0.70779 0.0
C981 C 0.46417 0.88771 0.70632 0.0
C982 C 0.49319 0.89841 0.69499 0.0
C983 C 0.50171 0.92678 0.68521 0.0
H984 H 0.45768 0.8658 0.71393 0.0
H985 H 0.54185 0.14242 0.62064 0.0
H986 H 0.54057 0.55285 0.86982 0.0
H987 H 0.54501 0.55889 0.90701 0.0
H988 H 0.46354 0.47215 0.91253 0.0
H989 H 0.45793 0.46689 0.87541 0.0
H990 H 0.45496 0.50983 0.93774 0.0
H991 H 0.54954 0.48142 0.92177 0.0
H992 H 0.60147 0.48556 0.90436 0.0
H993 H 0.65144 0.57525 0.93056 0.0
H994 H 0.59964 0.57181 0.94792 0.0
H995 H 0.54175 0.49734 0.04291 0.0
H996 H 0.54041 0.4946 0.00562 0.0
H997 H 0.48976 0.56062 0.00198 0.0
H998 H 0.4899 0.5626 0.03917 0.0
H999 H 0.5647 0.53221 0.97599 0.0
H1000 H 0.43411 0.5452 0.96207 0.0
H1001 H 0.38065 0.53405 0.97955 0.0
H1002 H 0.40019 0.46228 0.01345 0.0
H1003 H 0.45352 0.47273 0.99599 0.0
C1004 C 0.52345 0.53525 0.879 0.0
C1005 C 0.49883 0.50946 0.86977 0.0
C1006 C 0.5262 0.53856 0.90026 0.0
C1007 C 0.50493 0.51576 0.91265 0.0
C1008 C 0.48022 0.49009 0.90335 0.0
C1009 C 0.4771 0.48704 0.88213 0.0
C1010 C 0.50813 0.51853 0.93528 0.0
C1011 C 0.479 0.51477 0.94606 0.0
C1012 C 0.53934 0.52443 0.94626 0.0
C1013 C 0.57061 0.52647 0.93598 0.0
C1014 C 0.57154 0.50211 0.92371 0.0
C1015 C 0.60096 0.50432 0.91387 0.0
C1016 C 0.62971 0.53069 0.91631 0.0
C1017 C 0.62914 0.55486 0.92866 0.0
C1018 C 0.59976 0.55278 0.93852 0.0
C1019 C 0.53046 0.51137 0.03416 0.0
C1020 C 0.51557 0.52991 0.04399 0.0
C1021 C 0.52979 0.50985 0.01284 0.0
C1022 C 0.51446 0.52699 0.00097 0.0
C1023 C 0.501 0.5466 0.01079 0.0
C1024 C 0.50121 0.54779 0.03207 0.0
C1025 C 0.51156 0.52362 0.97837 0.0
C1026 C 0.54072 0.52736 0.96762 0.0
C1027 C 0.48017 0.51667 0.96743 0.0
C1028 C 0.44797 0.50999 0.97787 0.0
C1029 C 0.42693 0.52698 0.97321 0.0
C1030 C 0.39666 0.52079 0.98312 0.0
C1031 C 0.38709 0.49755 0.99765 0.0
C1032 C 0.4077 0.48036 0.00225 0.0
C1033 C 0.43796 0.48643 0.99236 0.0
H1034 H 0.36367 0.49281 0.00531 0.0
H1035 H 0.65246 0.53236 0.90866 0.0
H1036 H 0.99022 0.58664 0.22234 0.0
H1037 H 0.9883 0.58016 0.25934 0.0
H1038 H 0.04581 0.51991 0.25608 0.0
H1039 H 0.04658 0.52542 0.2189 0.0
H1040 H 0.99971 0.49824 0.28238 0.0
H1041 H 0.08236 0.59682 0.27182 0.0
H1042 H 0.10593 0.64916 0.25806 0.0
H1043 H 0.03178 0.67487 0.28848 0.0
H1044 H 0.00745 0.62254 0.3022 0.0
H1045 H 0.05218 0.51736 0.38926 0.0
H1046 H 0.05522 0.52243 0.35205 0.0
H1047 H 0.97142 0.55491 0.35027 0.0
H1048 H 0.96756 0.54912 0.38734 0.0
H1049 H 0.03352 0.59064 0.32715 0.0
H1050 H 0.95096 0.4888 0.33666 0.0
H1051 H 0.93159 0.43666 0.351 0.0
H1052 H 0.01238 0.41798 0.32301 0.0
H1053 H 0.03255 0.47024 0.30876 0.0
C1054 C 1.00231 0.57191 0.22953 0.0
C1055 C 0.0188 0.55674 0.21783 0.0
C1056 C 1.00139 0.56836 0.25069 0.0
C1057 C 0.0176 0.55011 0.26061 0.0
C1058 C 0.03329 0.53425 0.24882 0.0
C1059 C 0.03379 0.53746 0.2276 0.0
C1060 C 0.01827 0.54775 0.28325 0.0
C1061 C 0.00757 0.51851 0.29212 0.0
C1062 C 0.02831 0.57413 0.29607 0.0
C1063 C 0.04288 0.60566 0.28788 0.0
C1064 C 0.07091 0.61357 0.27545 0.0
C1065 C 0.08444 0.64325 0.26768 0.0
C1066 C 0.07031 0.6653 0.27235 0.0
C1067 C 0.04267 0.65775 0.28485 0.0
C1068 C 0.02902 0.62809 0.29265 0.0
C1069 C 0.03452 0.52572 0.38095 0.0
C1070 C 0.00958 0.53279 0.39119 0.0
C1071 C 0.03624 0.52851 0.35973 0.0
C1072 C 0.01348 0.53895 0.34851 0.0
C1073 C 0.98916 0.5468 0.35873 0.0
C1074 C 0.98695 0.54339 0.37986 0.0
C1075 C 0.01467 0.5413 0.32604 0.0
C1076 C 0.0258 0.57051 0.31728 0.0
C1077 C 0.00566 0.51497 0.31336 0.0
C1078 C 0.9935 0.48355 0.32186 0.0
C1079 C 0.96481 0.47369 0.33375 0.0
C1080 C 0.95364 0.44409 0.34182 0.0
C1081 C 0.97081 0.42405 0.33798 0.0
C1082 C 0.99914 0.43355 0.32601 0.0
C1083 C 0.01044 0.46315 0.31792 0.0
H1084 H 0.96211 0.40114 0.34423 0.0
H1085 H 0.08082 0.68827 0.26633 0.0
loop_
_geom_bond_atom_site_label_1
_geom_bond_atom_site_label_2
_geom_bond_distance
_geom_bond_site_symmetry_2
_ccdc_geom_bond_type
Pr0 C2 2.880 . S
Pr0 O20 2.562 . S
Pr0 O21 2.490 . S
Pr0 O22 2.695 1_655 S
Pr0 O23 2.512 . S
Pr0 O25 2.437 . S
Pr0 O28 2.434 . S
Pr0 O30 2.438 1_655 S
Pr1 C11 2.880 . S
Pr1 O22 2.436 . S
Pr1 O24 2.438 1_455 S
Pr1 O26 2.562 . S
Pr1 O27 2.490 . S
Pr1 O28 2.694 1_455 S
Pr1 O29 2.512 . S
Pr1 O31 2.437 . S
C2 Pr0 2.880 . S
C2 C3 1.491 . S
C2 O20 1.254 . S
C2 O21 1.225 . S
C3 C2 1.491 . S
C3 C4 1.392 . S
C3 C8 1.356 . S
C4 C3 1.392 . S
C4 C5 1.368 . S
C4 H32 0.929 . S
C5 C4 1.368 . S
C5 C6 1.386 . S
C5 H33 0.929 . S
C6 C5 1.386 . S
C6 C7 1.373 . S
C7 C6 1.373 . S
C7 C8 1.409 . S
C7 H34 0.931 . S
C8 C3 1.356 . S
C8 C7 1.409 . S
C8 H35 0.930 . S
C9 O22 1.270 . S
C9 O23 1.248 1_455 S
C10 O24 1.267 . S
C10 O25 1.278 . S
C11 Pr1 2.880 . S
C11 C12 1.491 . S
C11 O26 1.254 . S
C11 O27 1.225 . S
C12 C11 1.491 . S
C12 C13 1.392 . S
C12 C17 1.356 . S
C13 C12 1.392 . S
C13 C14 1.368 . S
C13 H36 0.929 . S
C14 C13 1.368 . S
C14 C15 1.386 . S
C14 H37 0.929 . S
C15 C14 1.386 . S
C15 C16 1.373 . S
C16 C15 1.373 . S
C16 C17 1.409 . S
C16 H38 0.931 . S
C17 C12 1.356 . S
C17 C16 1.409 . S
C17 H39 0.930 . S
C18 O28 1.269 1_455 S
C18 O29 1.248 . S
C19 O30 1.267 . S
C19 O31 1.278 . S
O20 Pr0 2.562 . S
O20 C2 1.254 . S
O21 Pr0 2.490 . S
O21 C2 1.225 . S
O22 Pr0 2.695 1_455 S
O22 Pr1 2.436 . S
O22 C9 1.270 . S
O23 Pr0 2.512 . S
O23 C9 1.248 1_655 S
O24 Pr1 2.438 1_655 S
O24 C10 1.267 . S
O25 Pr0 2.437 . S
O25 C10 1.278 . S
O26 Pr1 2.562 . S
O26 C11 1.254 . S
O27 Pr1 2.490 . S
O27 C11 1.225 . S
O28 Pr0 2.434 . S
O28 Pr1 2.694 1_655 S
O28 C18 1.269 1_655 S
O29 Pr1 2.512 . S
O29 C18 1.248 . S
O30 Pr0 2.438 1_455 S
O30 C19 1.267 . S
O31 Pr1 2.437 . S
O31 C19 1.278 . S
H32 C4 0.929 . S
H33 C5 0.929 . S
H34 C7 0.931 . S
H35 C8 0.930 . S
H36 C13 0.929 . S
H37 C14 0.929 . S
H38 C16 0.931 . S
H39 C17 0.930 . S
Pr40 C42 2.880 . S
Pr40 O60 2.562 . S
Pr40 O61 2.490 . S
Pr40 O62 2.695 . S
Pr40 O63 2.512 . S
Pr40 O65 2.437 . S
Pr40 O68 2.436 . S
Pr40 O70 2.438 1_545 S
Pr41 C51 2.880 1_545 S
Pr41 O62 2.436 . S
Pr41 O64 2.438 . S
Pr41 O66 2.562 1_545 S
Pr41 O67 2.490 1_545 S
Pr41 O68 2.695 . S
Pr41 O69 2.512 . S
Pr41 O71 2.437 1_545 S
C42 Pr40 2.880 . S
C42 C43 1.491 . S
C42 O60 1.254 . S
C42 O61 1.225 . S
C43 C42 1.491 . S
C43 C44 1.392 . S
C43 C48 1.356 . S
C44 C43 1.392 . S
C44 C45 1.368 . S
C44 H72 0.929 . S
C45 C44 1.368 . S
C45 C46 1.386 . S
C45 H73 0.929 . S
C46 C45 1.386 . S
C46 C47 1.373 . S
C47 C46 1.373 . S
C47 C48 1.409 . S
C47 H74 0.931 . S
C48 C43 1.356 . S
C48 C47 1.409 . S
C48 H75 0.930 . S
C49 O62 1.270 . S
C49 O63 1.248 . S
C50 O64 1.267 . S
C50 O65 1.278 . S
C51 Pr41 2.880 1_565 S
C51 C52 1.491 . S
C51 O66 1.254 . S
C51 O67 1.225 . S
C52 C51 1.491 . S
C52 C53 1.392 . S
C52 C57 1.356 . S
C53 C52 1.392 . S
C53 C54 1.368 . S
C53 H76 0.929 . S
C54 C53 1.368 . S
C54 C55 1.386 . S
C54 H77 0.929 . S
C55 C54 1.386 . S
C55 C56 1.373 . S
C56 C55 1.373 . S
C56 C57 1.409 . S
C56 H78 0.931 . S
C57 C52 1.356 . S
C57 C56 1.409 . S
C57 H79 0.930 . S
C58 O68 1.270 . S
C58 O69 1.248 . S
C59 O70 1.267 . S
C59 O71 1.278 . S
O60 Pr40 2.562 . S
O60 C42 1.254 . S
O61 Pr40 2.490 . S
O61 C42 1.225 . S
O62 Pr40 2.695 . S
O62 Pr41 2.436 . S
O62 C49 1.270 . S
O63 Pr40 2.512 . S
O63 C49 1.248 . S
O64 Pr41 2.438 . S
O64 C50 1.267 . S
O65 Pr40 2.437 . S
O65 C50 1.278 . S
O66 Pr41 2.562 1_565 S
O66 C51 1.254 . S
O67 Pr41 2.490 1_565 S
O67 C51 1.225 . S
O68 Pr40 2.436 . S
O68 Pr41 2.695 . S
O68 C58 1.270 . S
O69 Pr41 2.512 . S
O69 C58 1.248 . S
O70 Pr40 2.438 1_565 S
O70 C59 1.267 . S
O71 Pr41 2.437 1_565 S
O71 C59 1.278 . S
H72 C44 0.929 . S
H73 C45 0.929 . S
H74 C47 0.931 . S
H75 C48 0.930 . S
H76 C53 0.929 . S
H77 C54 0.929 . S
H78 C56 0.931 . S
H79 C57 0.930 . S
Pr80 C82 2.880 . S
Pr80 O100 2.562 . S
Pr80 O101 2.490 . S
Pr80 O102 2.695 . S
Pr80 O103 2.512 . S
Pr80 O105 2.437 . S
Pr80 O108 2.436 . S
Pr80 O110 2.438 . S
Pr81 C91 2.880 . S
Pr81 O102 2.436 . S
Pr81 O104 2.438 . S
Pr81 O106 2.562 . S
Pr81 O107 2.490 . S
Pr81 O108 2.695 . S
Pr81 O109 2.512 . S
Pr81 O111 2.437 . S
C82 Pr80 2.880 . S
C82 C83 1.491 . S
C82 O100 1.254 . S
C82 O101 1.225 . S
C83 C82 1.491 . S
C83 C84 1.392 . S
C83 C88 1.356 . S
C84 C83 1.392 . S
C84 C85 1.368 . S
C84 H112 0.929 . S
C85 C84 1.368 . S
C85 C86 1.386 . S
C85 H113 0.929 . S
C86 C85 1.386 . S
C86 C87 1.373 . S
C87 C86 1.373 . S
C87 C88 1.409 . S
C87 H114 0.931 . S
C88 C83 1.356 . S
C88 C87 1.409 . S
C88 H115 0.930 . S
C89 O102 1.270 . S
C89 O103 1.248 . S
C90 O104 1.267 . S
C90 O105 1.278 . S
C91 Pr81 2.880 . S
C91 C92 1.491 . S
C91 O106 1.254 . S
C91 O107 1.225 . S
C92 C91 1.491 . S
C92 C93 1.392 . S
C92 C97 1.356 . S
C93 C92 1.392 . S
C93 C94 1.368 . S
C93 H116 0.929 . S
C94 C93 1.368 . S
C94 C95 1.386 . S
C94 H117 0.929 . S
C95 C94 1.386 . S
C95 C96 1.373 . S
C96 C95 1.373 . S
C96 C97 1.409 . S
C96 H118 0.931 . S
C97 C92 1.356 . S
C97 C96 1.409 . S
C97 H119 0.930 . S
C98 O108 1.270 . S
C98 O109 1.248 . S
C99 O110 1.267 . S
C99 O111 1.278 . S
O100 Pr80 2.562 . S
O100 C82 1.254 . S
O101 Pr80 2.490 . S
O101 C82 1.225 . S
O102 Pr80 2.695 . S
O102 Pr81 2.436 . S
O102 C89 1.270 . S
O103 Pr80 2.512 . S
O103 C89 1.248 . S
O104 Pr81 2.438 . S
O104 C90 1.267 . S
O105 Pr80 2.437 . S
O105 C90 1.278 . S
O106 Pr81 2.562 . S
O106 C91 1.254 . S
O107 Pr81 2.490 . S
O107 C91 1.225 . S
O108 Pr80 2.436 . S
O108 Pr81 2.695 . S
O108 C98 1.270 . S
O109 Pr81 2.512 . S
O109 C98 1.248 . S
O110 Pr80 2.438 . S
O110 C99 1.267 . S
O111 Pr81 2.437 . S
O111 C99 1.278 . S
H112 C84 0.929 . S
H113 C85 0.929 . S
H114 C87 0.931 . S
H115 C88 0.930 . S
H116 C93 0.929 . S
H117 C94 0.929 . S
H118 C96 0.931 . S
H119 C97 0.930 . S
O120 Cd121 2.300 . S
O120 C127 1.275 . S
Cd121 O120 2.300 . S
Cd121 O129 2.381 . S
Cd121 O130 2.378 . S
O122 Cd123 2.385 1_545 S
O122 C127 1.255 . S
Cd123 O122 2.385 1_565 S
Cd123 O124 2.317 . S
O124 Cd123 2.317 . S
O124 C125 1.232 . S
C125 O124 1.232 . S
C125 O126 1.218 . S
O126 C125 1.218 . S
C127 O120 1.275 . S
C127 O122 1.255 . S
C128 O129 1.258 . S
C128 O130 1.256 . S
O129 Cd121 2.381 . S
O129 C128 1.258 . S
O130 Cd121 2.378 . S
O130 C128 1.256 . S
O131 Cd132 2.300 . S
O131 C138 1.275 . S
Cd132 O131 2.300 . S
Cd132 O140 2.381 . S
Cd132 O141 2.378 . S
O133 Cd134 2.385 . S
O133 C138 1.255 . S
Cd134 O133 2.385 . S
Cd134 O135 2.317 . S
O135 Cd134 2.317 . S
O135 C136 1.232 . S
C136 O135 1.232 . S
C136 O137 1.218 . S
O137 C136 1.218 . S
C138 O131 1.275 . S
C138 O133 1.255 . S
C139 O140 1.258 . S
C139 O141 1.256 . S
O140 Cd132 2.381 . S
O140 C139 1.258 . S
O141 Cd132 2.378 . S
O141 C139 1.256 . S
O142 Cd143 2.300 . S
O142 C149 1.275 . S
Cd143 O142 2.300 . S
Cd143 O151 2.381 . S
Cd143 O152 2.378 . S
O144 Cd145 2.385 . S
O144 C149 1.255 1_655 S
Cd145 O144 2.385 . S
Cd145 O146 2.317 . S
O146 Cd145 2.317 . S
O146 C147 1.232 . S
C147 O146 1.232 . S
C147 O148 1.218 . S
O148 C147 1.218 . S
C149 O142 1.275 . S
C149 O144 1.255 1_455 S
C150 O151 1.258 . S
C150 O152 1.256 . S
O151 Cd143 2.381 . S
O151 C150 1.258 . S
O152 Cd143 2.378 . S
O152 C150 1.256 . S
O153 Cd154 2.300 . S
O153 C160 1.255 1_455 S
Cd154 O153 2.300 . S
Cd154 O162 2.381 . S
Cd154 O163 2.378 . S
O155 Cd156 2.385 . S
O155 C160 1.277 . S
Cd156 O155 2.385 . S
Cd156 O157 2.317 . S
O157 Cd156 2.317 . S
O157 C158 1.232 . S
C158 O157 1.232 . S
C158 O159 1.218 . S
O159 C158 1.218 . S
C160 O153 1.255 1_655 S
C160 O155 1.277 . S
C161 O162 1.258 . S
C161 O163 1.256 . S
O162 Cd154 2.381 . S
O162 C161 1.258 . S
O163 Cd154 2.378 . S
O163 C161 1.256 . S
O164 Cd165 2.300 . S
O164 C171 1.275 1_565 S
Cd165 O164 2.300 . S
Cd165 O173 2.381 . S
Cd165 O174 2.378 . S
O166 Cd167 2.385 . S
O166 C171 1.255 . S
Cd167 O166 2.385 . S
Cd167 O168 2.317 . S
O168 Cd167 2.317 . S
O168 C169 1.232 . S
C169 O168 1.232 . S
C169 O170 1.218 . S
O170 C169 1.218 . S
C171 O164 1.275 1_545 S
C171 O166 1.255 . S
C172 O173 1.258 . S
C172 O174 1.256 . S
O173 Cd165 2.381 . S
O173 C172 1.258 . S
O174 Cd165 2.378 . S
O174 C172 1.256 . S
O175 Cd176 2.300 . S
O175 C182 1.275 . S
Cd176 O175 2.300 . S
Cd176 O184 2.381 . S
Cd176 O185 2.378 . S
O177 Cd178 2.385 . S
O177 C182 1.255 . S
Cd178 O177 2.385 . S
Cd178 O179 2.317 . S
O179 Cd178 2.317 . S
O179 C180 1.232 . S
C180 O179 1.232 . S
C180 O181 1.218 . S
O181 C180 1.218 . S
C182 O175 1.275 . S
C182 O177 1.255 . S
C183 O184 1.258 . S
C183 O185 1.256 . S
O184 Cd176 2.381 . S
O184 C183 1.258 . S
O185 Cd176 2.378 . S
O185 C183 1.256 . S
H186 C204 0.951 . S
H187 C206 0.951 . S
H188 C208 0.950 . S
H189 C209 0.950 . S
H190 C211 0.950 . S
H191 C214 0.950 . S
H192 C215 0.950 . S
H193 C217 0.950 . S
H194 C218 0.950 . S
H195 C219 0.951 . S
H196 C221 0.951 . S
H197 C223 0.950 . S
H198 C224 0.950 . S
H199 C226 0.950 . S
H200 C229 0.950 . S
H201 C230 0.950 . S
H202 C232 0.950 . S
H203 C233 0.950 . S
C204 H186 0.951 . S
C204 C205 1.366 . S
C204 C206 1.388 . S
C205 C204 1.366 . S
C205 C209 1.385 . S
C206 H187 0.951 . S
C206 C204 1.388 . S
C206 C207 1.366 . S
C207 C206 1.366 . S
C207 C208 1.414 . S
C207 C210 1.499 . S
C208 H188 0.950 . S
C208 C207 1.414 . S
C208 C209 1.374 . S
C209 H189 0.950 . S
C209 C205 1.385 . S
C209 C208 1.374 . S
C210 C207 1.499 . S
C210 C211 1.373 . S
C210 C212 1.389 . S
C211 H190 0.950 . S
C211 C210 1.373 . S
C211 C227 1.377 . S
C212 C210 1.389 . S
C212 C213 1.524 . S
C212 C226 1.377 . S
C213 C212 1.524 . S
C213 C214 1.397 . S
C213 C218 1.363 . S
C214 H191 0.950 . S
C214 C213 1.397 . S
C214 C215 1.334 . S
C215 H192 0.950 . S
C215 C214 1.334 . S
C215 C216 1.287 . S
C216 C215 1.287 . S
C216 C217 1.524 . S
C216 H235 0.913 . S
C217 H193 0.950 . S
C217 C216 1.524 . S
C217 C218 1.415 . S
C218 H194 0.950 . S
C218 C213 1.363 . S
C218 C217 1.415 . S
C219 H195 0.951 . S
C219 C220 1.366 . S
C219 C221 1.388 . S
C220 C219 1.366 . S
C220 C224 1.385 . S
C221 H196 0.951 . S
C221 C219 1.388 . S
C221 C222 1.366 . S
C222 C221 1.366 . S
C222 C223 1.414 . S
C222 C225 1.499 . S
C223 H197 0.950 . S
C223 C222 1.414 . S
C223 C224 1.374 . S
C224 H198 0.950 . S
C224 C220 1.385 . S
C224 C223 1.374 . S
C225 C222 1.499 . S
C225 C226 1.373 . S
C225 C227 1.389 . S
C226 H199 0.950 . S
C226 C212 1.377 . S
C226 C225 1.373 . S
C227 C211 1.377 . S
C227 C225 1.389 . S
C227 C228 1.524 . S
C228 C227 1.524 . S
C228 C229 1.397 . S
C228 C233 1.363 . S
C229 H200 0.950 . S
C229 C228 1.397 . S
C229 C230 1.334 . S
C230 H201 0.950 . S
C230 C229 1.334 . S
C230 C231 1.287 . S
C231 C230 1.287 . S
C231 C232 1.524 . S
C231 H234 0.999 . S
C232 H202 0.950 . S
C232 C231 1.524 . S
C232 C233 1.415 . S
C233 H203 0.950 . S
C233 C228 1.363 . S
C233 C232 1.415 . S
H234 C231 0.999 . S
H235 C216 0.913 . S
H236 C254 0.951 . S
H237 C256 0.951 . S
H238 C258 0.950 . S
H239 C259 0.950 . S
H240 C261 0.950 . S
H241 C264 0.950 . S
H242 C265 0.950 . S
H243 C267 0.950 . S
H244 C268 0.950 . S
H245 C269 0.951 . S
H246 C271 0.951 . S
H247 C273 0.950 . S
H248 C274 0.950 . S
H249 C276 0.950 . S
H250 C279 0.950 . S
H251 C280 0.950 . S
H252 C282 0.950 . S
H253 C283 0.950 . S
C254 H236 0.951 . S
C254 C255 1.366 . S
C254 C256 1.388 . S
C255 C254 1.366 . S
C255 C259 1.385 . S
C256 H237 0.951 . S
C256 C254 1.388 . S
C256 C257 1.366 . S
C257 C256 1.366 . S
C257 C258 1.414 . S
C257 C260 1.499 . S
C258 H238 0.950 . S
C258 C257 1.414 . S
C258 C259 1.374 . S
C259 H239 0.950 . S
C259 C255 1.385 . S
C259 C258 1.374 . S
C260 C257 1.499 . S
C260 C261 1.373 . S
C260 C262 1.389 . S
C261 H240 0.950 . S
C261 C260 1.373 . S
C261 C277 1.377 . S
C262 C260 1.389 . S
C262 C263 1.524 . S
C262 C276 1.377 . S
C263 C262 1.524 . S
C263 C264 1.397 . S
C263 C268 1.363 . S
C264 H241 0.950 . S
C264 C263 1.397 . S
C264 C265 1.334 . S
C265 H242 0.950 . S
C265 C264 1.334 . S
C265 C266 1.287 . S
C266 C265 1.287 . S
C266 C267 1.524 . S
C266 H285 0.913 . S
C267 H243 0.950 . S
C267 C266 1.524 . S
C267 C268 1.415 . S
C268 H244 0.950 . S
C268 C263 1.363 . S
C268 C267 1.415 . S
C269 H245 0.951 . S
C269 C270 1.366 . S
C269 C271 1.388 . S
C270 C269 1.366 . S
C270 C274 1.385 . S
C271 H246 0.951 . S
C271 C269 1.388 . S
C271 C272 1.366 . S
C272 C271 1.366 . S
C272 C273 1.414 . S
C272 C275 1.499 . S
C273 H247 0.950 . S
C273 C272 1.414 . S
C273 C274 1.374 . S
C274 H248 0.950 . S
C274 C270 1.385 . S
C274 C273 1.374 . S
C275 C272 1.499 . S
C275 C276 1.373 . S
C275 C277 1.389 . S
C276 H249 0.950 . S
C276 C262 1.377 . S
C276 C275 1.373 . S
C277 C261 1.377 . S
C277 C275 1.389 . S
C277 C278 1.524 . S
C278 C277 1.524 . S
C278 C279 1.397 . S
C278 C283 1.363 . S
C279 H250 0.950 . S
C279 C278 1.397 . S
C279 C280 1.334 . S
C280 H251 0.950 . S
C280 C279 1.334 . S
C280 C281 1.287 . S
C281 C280 1.287 . S
C281 C282 1.524 . S
C281 H284 0.999 . S
C282 H252 0.950 . S
C282 C281 1.524 . S
C282 C283 1.415 . S
C283 H253 0.950 . S
C283 C278 1.363 . S
C283 C282 1.415 . S
H284 C281 0.999 . S
H285 C266 0.913 . S
H286 C304 0.951 . S
H287 C306 0.951 . S
H288 C308 0.950 . S
H289 C309 0.950 . S
H290 C311 0.950 . S
H291 C314 0.950 . S
H292 C315 0.950 . S
H293 C317 0.950 . S
H294 C318 0.950 . S
H295 C319 0.951 . S
H296 C321 0.951 . S
H297 C323 0.950 . S
H298 C324 0.950 . S
H299 C326 0.950 . S
H300 C329 0.950 . S
H301 C330 0.950 . S
H302 C332 0.950 . S
H303 C333 0.950 . S
C304 H286 0.951 . S
C304 C305 1.366 . S
C304 C306 1.388 . S
C305 C304 1.366 . S
C305 C309 1.385 . S
C306 H287 0.951 . S
C306 C304 1.388 . S
C306 C307 1.366 . S
C307 C306 1.366 . S
C307 C308 1.414 . S
C307 C310 1.499 . S
C308 H288 0.950 . S
C308 C307 1.414 . S
C308 C309 1.374 . S
C309 H289 0.950 . S
C309 C305 1.385 . S
C309 C308 1.374 . S
C310 C307 1.499 . S
C310 C311 1.373 . S
C310 C312 1.389 . S
C311 H290 0.950 . S
C311 C310 1.373 . S
C311 C327 1.377 . S
C312 C310 1.389 . S
C312 C313 1.524 . S
C312 C326 1.377 . S
C313 C312 1.524 . S
C313 C314 1.397 . S
C313 C318 1.363 . S
C314 H291 0.950 . S
C314 C313 1.397 . S
C314 C315 1.334 . S
C315 H292 0.950 . S
C315 C314 1.334 . S
C315 C316 1.287 . S
C316 C315 1.287 . S
C316 C317 1.524 . S
C316 H335 0.913 . S
C317 H293 0.950 . S
C317 C316 1.524 . S
C317 C318 1.415 . S
C318 H294 0.950 . S
C318 C313 1.363 . S
C318 C317 1.415 . S
C319 H295 0.951 . S
C319 C320 1.366 . S
C319 C321 1.388 . S
C320 C319 1.366 . S
C320 C324 1.385 . S
C321 H296 0.951 . S
C321 C319 1.388 . S
C321 C322 1.366 . S
C322 C321 1.366 . S
C322 C323 1.414 . S
C322 C325 1.499 . S
C323 H297 0.950 . S
C323 C322 1.414 . S
C323 C324 1.374 . S
C324 H298 0.950 . S
C324 C320 1.385 . S
C324 C323 1.374 . S
C325 C322 1.499 . S
C325 C326 1.373 . S
C325 C327 1.389 . S
C326 H299 0.950 . S
C326 C312 1.377 . S
C326 C325 1.373 . S
C327 C311 1.377 . S
C327 C325 1.389 . S
C327 C328 1.524 . S
C328 C327 1.524 . S
C328 C329 1.397 . S
C328 C333 1.363 . S
C329 H300 0.950 . S
C329 C328 1.397 . S
C329 C330 1.334 . S
C330 H301 0.950 . S
C330 C329 1.334 . S
C330 C331 1.287 . S
C331 C330 1.287 . S
C331 C332 1.524 . S
C331 H334 0.999 . S
C332 H302 0.950 . S
C332 C331 1.524 . S
C332 C333 1.415 . S
C333 H303 0.950 . S
C333 C328 1.363 . S
C333 C332 1.415 . S
H334 C331 0.999 . S
H335 C316 0.913 . S
H336 C354 0.951 . S
H337 C356 0.951 . S
H338 C358 0.950 . S
H339 C359 0.950 . S
H340 C361 0.950 . S
H341 C364 0.950 . S
H342 C365 0.950 . S
H343 C367 0.950 . S
H344 C368 0.950 . S
H345 C369 0.951 . S
H346 C371 0.951 . S
H347 C373 0.950 . S
H348 C374 0.950 . S
H349 C376 0.950 . S
H350 C379 0.950 . S
H351 C380 0.950 . S
H352 C382 0.950 . S
H353 C383 0.950 . S
C354 H336 0.951 . S
C354 C355 1.366 . S
C354 C356 1.388 . S
C355 C354 1.366 . S
C355 C359 1.385 . S
C356 H337 0.951 . S
C356 C354 1.388 . S
C356 C357 1.366 . S
C357 C356 1.366 . S
C357 C358 1.414 . S
C357 C360 1.499 . S
C358 H338 0.950 . S
C358 C357 1.414 . S
C358 C359 1.374 . S
C359 H339 0.950 . S
C359 C355 1.385 . S
C359 C358 1.374 . S
C360 C357 1.499 . S
C360 C361 1.373 . S
C360 C362 1.389 . S
C361 H340 0.950 . S
C361 C360 1.373 . S
C361 C377 1.377 . S
C362 C360 1.389 . S
C362 C363 1.524 . S
C362 C376 1.377 . S
C363 C362 1.524 . S
C363 C364 1.397 . S
C363 C368 1.363 . S
C364 H341 0.950 . S
C364 C363 1.397 . S
C364 C365 1.334 . S
C365 H342 0.950 . S
C365 C364 1.334 . S
C365 C366 1.287 . S
C366 C365 1.287 . S
C366 C367 1.524 . S
C366 H385 0.913 . S
C367 H343 0.950 . S
C367 C366 1.524 . S
C367 C368 1.415 . S
C368 H344 0.950 . S
C368 C363 1.363 . S
C368 C367 1.415 . S
C369 H345 0.951 . S
C369 C370 1.366 . S
C369 C371 1.388 . S
C370 C369 1.366 . S
C370 C374 1.385 . S
C371 H346 0.951 . S
C371 C369 1.388 . S
C371 C372 1.366 . S
C372 C371 1.366 . S
C372 C373 1.414 . S
C372 C375 1.499 . S
C373 H347 0.950 . S
C373 C372 1.414 . S
C373 C374 1.374 . S
C374 H348 0.950 . S
C374 C370 1.385 . S
C374 C373 1.374 . S
C375 C372 1.499 . S
C375 C376 1.373 . S
C375 C377 1.389 . S
C376 H349 0.950 . S
C376 C362 1.377 . S
C376 C375 1.373 . S
C377 C361 1.377 . S
C377 C375 1.389 . S
C377 C378 1.524 . S
C378 C377 1.524 . S
C378 C379 1.397 . S
C378 C383 1.363 . S
C379 H350 0.950 . S
C379 C378 1.397 . S
C379 C380 1.334 . S
C380 H351 0.950 . S
C380 C379 1.334 . S
C380 C381 1.287 . S
C381 C380 1.287 . S
C381 C382 1.524 . S
C381 H384 0.999 . S
C382 H352 0.950 . S
C382 C381 1.524 . S
C382 C383 1.415 . S
C383 H353 0.950 . S
C383 C378 1.363 . S
C383 C382 1.415 . S
H384 C381 0.999 . S
H385 C366 0.913 . S
H386 C404 0.951 . S
H387 C406 0.951 . S
H388 C408 0.950 . S
H389 C409 0.950 . S
H390 C411 0.950 . S
H391 C414 0.950 . S
H392 C415 0.950 . S
H393 C417 0.950 . S
H394 C418 0.950 . S
H395 C419 0.951 . S
H396 C421 0.951 . S
H397 C423 0.950 . S
H398 C424 0.950 . S
H399 C426 0.950 . S
H400 C429 0.950 . S
H401 C430 0.950 . S
H402 C432 0.950 . S
H403 C433 0.950 . S
C404 H386 0.951 . S
C404 C405 1.366 . S
C404 C406 1.388 . S
C405 C404 1.366 . S
C405 C409 1.385 . S
C406 H387 0.951 . S
C406 C404 1.388 . S
C406 C407 1.366 . S
C407 C406 1.366 . S
C407 C408 1.414 . S
C407 C410 1.499 . S
C408 H388 0.950 . S
C408 C407 1.414 . S
C408 C409 1.374 . S
C409 H389 0.950 . S
C409 C405 1.385 . S
C409 C408 1.374 . S
C410 C407 1.499 . S
C410 C411 1.373 . S
C410 C412 1.389 . S
C411 H390 0.950 . S
C411 C410 1.373 . S
C411 C427 1.377 . S
C412 C410 1.389 . S
C412 C413 1.524 . S
C412 C426 1.377 . S
C413 C412 1.524 . S
C413 C414 1.397 . S
C413 C418 1.363 . S
C414 H391 0.950 . S
C414 C413 1.397 . S
C414 C415 1.334 . S
C415 H392 0.950 . S
C415 C414 1.334 . S
C415 C416 1.287 . S
C416 C415 1.287 . S
C416 C417 1.524 . S
C416 H435 0.913 . S
C417 H393 0.950 . S
C417 C416 1.524 . S
C417 C418 1.415 . S
C418 H394 0.950 . S
C418 C413 1.363 . S
C418 C417 1.415 . S
C419 H395 0.951 . S
C419 C420 1.366 . S
C419 C421 1.388 . S
C420 C419 1.366 . S
C420 C424 1.385 . S
C421 H396 0.951 . S
C421 C419 1.388 . S
C421 C422 1.366 . S
C422 C421 1.366 . S
C422 C423 1.414 . S
C422 C425 1.499 . S
C423 H397 0.950 . S
C423 C422 1.414 . S
C423 C424 1.374 . S
C424 H398 0.950 . S
C424 C420 1.385 . S
C424 C423 1.374 . S
C425 C422 1.499 . S
C425 C426 1.373 . S
C425 C427 1.389 . S
C426 H399 0.950 . S
C426 C412 1.377 . S
C426 C425 1.373 . S
C427 C411 1.377 . S
C427 C425 1.389 . S
C427 C428 1.524 . S
C428 C427 1.524 . S
C428 C429 1.397 . S
C428 C433 1.363 . S
C429 H400 0.950 . S
C429 C428 1.397 . S
C429 C430 1.334 . S
C430 H401 0.950 . S
C430 C429 1.334 . S
C430 C431 1.287 . S
C431 C430 1.287 . S
C431 C432 1.524 . S
C431 H434 0.999 . S
C432 H402 0.950 . S
C432 C431 1.524 . S
C432 C433 1.415 . S
C433 H403 0.950 . S
C433 C428 1.363 . S
C433 C432 1.415 . S
H434 C431 0.999 . S
H435 C416 0.913 . S
H436 C454 0.951 . S
H437 C456 0.951 . S
H438 C458 0.950 . S
H439 C459 0.950 . S
H440 C461 0.950 . S
H441 C464 0.950 . S
H442 C465 0.950 . S
H443 C467 0.950 . S
H444 C468 0.950 . S
H445 C469 0.951 . S
H446 C471 0.951 . S
H447 C473 0.950 . S
H448 C474 0.950 . S
H449 C476 0.950 . S
H450 C479 0.950 . S
H451 C480 0.950 . S
H452 C482 0.950 . S
H453 C483 0.950 . S
C454 H436 0.951 . S
C454 C455 1.366 . S
C454 C456 1.388 . S
C455 C454 1.366 . S
C455 C459 1.385 . S
C456 H437 0.951 . S
C456 C454 1.388 . S
C456 C457 1.366 . S
C457 C456 1.366 . S
C457 C458 1.414 . S
C457 C460 1.499 . S
C458 H438 0.950 . S
C458 C457 1.414 . S
C458 C459 1.374 . S
C459 H439 0.950 . S
C459 C455 1.385 . S
C459 C458 1.374 . S
C460 C457 1.499 . S
C460 C461 1.373 . S
C460 C462 1.389 . S
C461 H440 0.950 . S
C461 C460 1.373 . S
C461 C477 1.377 . S
C462 C460 1.389 . S
C462 C463 1.524 . S
C462 C476 1.377 . S
C463 C462 1.524 . S
C463 C464 1.397 . S
C463 C468 1.363 . S
C464 H441 0.950 . S
C464 C463 1.397 . S
C464 C465 1.334 . S
C465 H442 0.950 . S
C465 C464 1.334 . S
C465 C466 1.287 . S
C466 C465 1.287 . S
C466 C467 1.524 . S
C466 H485 0.913 . S
C467 H443 0.950 . S
C467 C466 1.524 . S
C467 C468 1.415 . S
C468 H444 0.950 . S
C468 C463 1.363 . S
C468 C467 1.415 . S
C469 H445 0.951 . S
C469 C470 1.366 . S
C469 C471 1.388 . S
C470 C469 1.366 . S
C470 C474 1.385 . S
C471 H446 0.951 . S
C471 C469 1.388 . S
C471 C472 1.366 . S
C472 C471 1.366 . S
C472 C473 1.414 . S
C472 C475 1.499 . S
C473 H447 0.950 . S
C473 C472 1.414 . S
C473 C474 1.374 . S
C474 H448 0.950 . S
C474 C470 1.385 . S
C474 C473 1.374 . S
C475 C472 1.499 . S
C475 C476 1.373 . S
C475 C477 1.389 . S
C476 H449 0.950 . S
C476 C462 1.377 . S
C476 C475 1.373 . S
C477 C461 1.377 . S
C477 C475 1.389 . S
C477 C478 1.524 . S
C478 C477 1.524 . S
C478 C479 1.397 . S
C478 C483 1.363 . S
C479 H450 0.950 . S
C479 C478 1.397 . S
C479 C480 1.334 . S
C480 H451 0.950 . S
C480 C479 1.334 . S
C480 C481 1.287 . S
C481 C480 1.287 . S
C481 C482 1.524 . S
C481 H484 0.999 . S
C482 H452 0.950 . S
C482 C481 1.524 . S
C482 C483 1.415 . S
C483 H453 0.950 . S
C483 C478 1.363 . S
C483 C482 1.415 . S
H484 C481 0.999 . S
H485 C466 0.913 . S
H486 C504 0.951 . S
H487 C506 0.951 . S
H488 C508 0.950 . S
H489 C509 0.950 . S
H490 C511 0.950 . S
H491 C514 0.950 . S
H492 C515 0.950 . S
H493 C517 0.950 . S
H494 C518 0.950 . S
H495 C519 0.951 . S
H496 C521 0.951 . S
H497 C523 0.950 . S
H498 C524 0.950 . S
H499 C526 0.950 . S
H500 C529 0.950 . S
H501 C530 0.950 . S
H502 C532 0.950 . S
H503 C533 0.950 . S
C504 H486 0.951 . S
C504 C505 1.366 . S
C504 C506 1.388 . S
C505 C504 1.366 . S
C505 C509 1.385 . S
C506 H487 0.951 . S
C506 C504 1.388 . S
C506 C507 1.366 . S
C507 C506 1.366 . S
C507 C508 1.414 . S
C507 C510 1.499 . S
C508 H488 0.950 . S
C508 C507 1.414 . S
C508 C509 1.374 . S
C509 H489 0.950 . S
C509 C505 1.385 . S
C509 C508 1.374 . S
C510 C507 1.499 . S
C510 C511 1.373 . S
C510 C512 1.389 . S
C511 H490 0.950 . S
C511 C510 1.373 . S
C511 C527 1.377 . S
C512 C510 1.389 . S
C512 C513 1.524 . S
C512 C526 1.377 . S
C513 C512 1.524 . S
C513 C514 1.397 . S
C513 C518 1.363 . S
C514 H491 0.950 . S
C514 C513 1.397 . S
C514 C515 1.334 . S
C515 H492 0.950 . S
C515 C514 1.334 . S
C515 C516 1.287 . S
C516 C515 1.287 . S
C516 C517 1.524 . S
C516 H535 0.913 . S
C517 H493 0.950 . S
C517 C516 1.524 . S
C517 C518 1.415 . S
C518 H494 0.950 . S
C518 C513 1.363 . S
C518 C517 1.415 . S
C519 H495 0.951 . S
C519 C520 1.366 . S
C519 C521 1.388 . S
C520 C519 1.366 . S
C520 C524 1.385 . S
C521 H496 0.951 . S
C521 C519 1.388 . S
C521 C522 1.366 . S
C522 C521 1.366 . S
C522 C523 1.414 . S
C522 C525 1.499 . S
C523 H497 0.950 . S
C523 C522 1.414 . S
C523 C524 1.374 . S
C524 H498 0.950 . S
C524 C520 1.385 . S
C524 C523 1.374 . S
C525 C522 1.499 . S
C525 C526 1.373 . S
C525 C527 1.389 . S
C526 H499 0.950 . S
C526 C512 1.377 . S
C526 C525 1.373 . S
C527 C511 1.377 . S
C527 C525 1.389 . S
C527 C528 1.524 . S
C528 C527 1.524 . S
C528 C529 1.397 . S
C528 C533 1.363 . S
C529 H500 0.950 . S
C529 C528 1.397 . S
C529 C530 1.334 . S
C530 H501 0.950 . S
C530 C529 1.334 . S
C530 C531 1.287 . S
C531 C530 1.287 . S
C531 C532 1.524 . S
C531 H534 0.999 . S
C532 H502 0.950 . S
C532 C531 1.524 . S
C532 C533 1.415 . S
C533 H503 0.950 . S
C533 C528 1.363 . S
C533 C532 1.415 . S
H534 C531 0.999 . S
H535 C516 0.913 . S
H536 C554 0.951 . S
H537 C556 0.951 . S
H538 C558 0.950 . S
H539 C559 0.950 . S
H540 C561 0.950 . S
H541 C564 0.950 . S
H542 C565 0.950 . S
H543 C567 0.950 . S
H544 C568 0.950 . S
H545 C569 0.951 . S
H546 C571 0.951 . S
H547 C573 0.950 . S
H548 C574 0.950 . S
H549 C576 0.950 . S
H550 C579 0.950 . S
H551 C580 0.950 . S
H552 C582 0.950 . S
H553 C583 0.950 . S
C554 H536 0.951 . S
C554 C555 1.366 . S
C554 C556 1.388 . S
C555 C554 1.366 . S
C555 C559 1.385 . S
C556 H537 0.951 . S
C556 C554 1.388 . S
C556 C557 1.366 . S
C557 C556 1.366 . S
C557 C558 1.414 . S
C557 C560 1.499 . S
C558 H538 0.950 . S
C558 C557 1.414 . S
C558 C559 1.374 . S
C559 H539 0.950 . S
C559 C555 1.385 . S
C559 C558 1.374 . S
C560 C557 1.499 . S
C560 C561 1.373 . S
C560 C562 1.389 . S
C561 H540 0.950 . S
C561 C560 1.373 . S
C561 C577 1.377 . S
C562 C560 1.389 . S
C562 C563 1.524 . S
C562 C576 1.377 . S
C563 C562 1.524 . S
C563 C564 1.397 . S
C563 C568 1.363 . S
C564 H541 0.950 . S
C564 C563 1.397 . S
C564 C565 1.334 . S
C565 H542 0.950 . S
C565 C564 1.334 . S
C565 C566 1.287 . S
C566 C565 1.287 . S
C566 C567 1.524 . S
C566 H585 0.913 . S
C567 H543 0.950 . S
C567 C566 1.524 . S
C567 C568 1.415 . S
C568 H544 0.950 . S
C568 C563 1.363 . S
C568 C567 1.415 . S
C569 H545 0.951 . S
C569 C570 1.366 . S
C569 C571 1.388 . S
C570 C569 1.366 . S
C570 C574 1.385 . S
C571 H546 0.951 . S
C571 C569 1.388 . S
C571 C572 1.366 . S
C572 C571 1.366 . S
C572 C573 1.414 . S
C572 C575 1.499 . S
C573 H547 0.950 . S
C573 C572 1.414 . S
C573 C574 1.374 . S
C574 H548 0.950 . S
C574 C570 1.385 . S
C574 C573 1.374 . S
C575 C572 1.499 . S
C575 C576 1.373 . S
C575 C577 1.389 . S
C576 H549 0.950 . S
C576 C562 1.377 . S
C576 C575 1.373 . S
C577 C561 1.377 . S
C577 C575 1.389 . S
C577 C578 1.524 . S
C578 C577 1.524 . S
C578 C579 1.397 . S
C578 C583 1.363 . S
C579 H550 0.950 . S
C579 C578 1.397 . S
C579 C580 1.334 . S
C580 H551 0.950 . S
C580 C579 1.334 . S
C580 C581 1.287 . S
C581 C580 1.287 . S
C581 C582 1.524 . S
C581 H584 0.999 . S
C582 H552 0.950 . S
C582 C581 1.524 . S
C582 C583 1.415 . S
C583 H553 0.950 . S
C583 C578 1.363 . S
C583 C582 1.415 . S
H584 C581 0.999 . S
H585 C566 0.913 . S
H586 C604 0.951 . S
H587 C606 0.951 . S
H588 C608 0.950 . S
H589 C609 0.950 . S
H590 C611 0.950 . S
H591 C614 0.950 . S
H592 C615 0.950 . S
H593 C617 0.950 . S
H594 C618 0.950 . S
H595 C619 0.951 . S
H596 C621 0.951 . S
H597 C623 0.950 . S
H598 C624 0.950 . S
H599 C626 0.950 . S
H600 C629 0.950 . S
H601 C630 0.950 . S
H602 C632 0.950 . S
H603 C633 0.950 . S
C604 H586 0.951 . S
C604 C605 1.366 . S
C604 C606 1.388 . S
C605 C604 1.366 . S
C605 C609 1.385 . S
C606 H587 0.951 . S
C606 C604 1.388 . S
C606 C607 1.366 . S
C607 C606 1.366 . S
C607 C608 1.414 . S
C607 C610 1.499 . S
C608 H588 0.950 . S
C608 C607 1.414 . S
C608 C609 1.374 . S
C609 H589 0.950 . S
C609 C605 1.385 . S
C609 C608 1.374 . S
C610 C607 1.499 . S
C610 C611 1.373 . S
C610 C612 1.389 . S
C611 H590 0.950 . S
C611 C610 1.373 . S
C611 C627 1.377 . S
C612 C610 1.389 . S
C612 C613 1.524 . S
C612 C626 1.377 . S
C613 C612 1.524 . S
C613 C614 1.397 . S
C613 C618 1.363 . S
C614 H591 0.950 . S
C614 C613 1.397 . S
C614 C615 1.334 . S
C615 H592 0.950 . S
C615 C614 1.334 . S
C615 C616 1.287 . S
C616 C615 1.287 . S
C616 C617 1.524 . S
C616 H635 0.913 . S
C617 H593 0.950 . S
C617 C616 1.524 . S
C617 C618 1.415 . S
C618 H594 0.950 . S
C618 C613 1.363 . S
C618 C617 1.415 . S
C619 H595 0.951 . S
C619 C620 1.366 . S
C619 C621 1.388 . S
C620 C619 1.366 . S
C620 C624 1.385 . S
C621 H596 0.951 . S
C621 C619 1.388 . S
C621 C622 1.366 . S
C622 C621 1.366 . S
C622 C623 1.414 . S
C622 C625 1.499 . S
C623 H597 0.950 . S
C623 C622 1.414 . S
C623 C624 1.374 . S
C624 H598 0.950 . S
C624 C620 1.385 . S
C624 C623 1.374 . S
C625 C622 1.499 . S
C625 C626 1.373 . S
C625 C627 1.389 . S
C626 H599 0.950 . S
C626 C612 1.377 . S
C626 C625 1.373 . S
C627 C611 1.377 . S
C627 C625 1.389 . S
C627 C628 1.524 . S
C628 C627 1.524 . S
C628 C629 1.397 . S
C628 C633 1.363 . S
C629 H600 0.950 . S
C629 C628 1.397 . S
C629 C630 1.334 . S
C630 H601 0.950 . S
C630 C629 1.334 . S
C630 C631 1.287 . S
C631 C630 1.287 . S
C631 C632 1.524 . S
C631 H634 0.999 . S
C632 H602 0.950 . S
C632 C631 1.524 . S
C632 C633 1.415 . S
C633 H603 0.950 . S
C633 C628 1.363 . S
C633 C632 1.415 . S
H634 C631 0.999 . S
H635 C616 0.913 . S
H636 C654 0.951 . S
H637 C656 0.951 . S
H638 C658 0.950 . S
H639 C659 0.950 . S
H640 C661 0.950 . S
H641 C664 0.950 . S
H642 C665 0.950 . S
H643 C667 0.950 . S
H644 C668 0.950 . S
H645 C669 0.951 . S
H646 C671 0.951 . S
H647 C673 0.950 . S
H648 C674 0.950 . S
H649 C676 0.950 . S
H650 C679 0.950 . S
H651 C680 0.950 . S
H652 C682 0.950 . S
H653 C683 0.950 . S
C654 H636 0.951 . S
C654 C655 1.366 . S
C654 C656 1.388 . S
C655 C654 1.366 . S
C655 C659 1.385 . S
C656 H637 0.951 . S
C656 C654 1.388 . S
C656 C657 1.366 . S
C657 C656 1.366 . S
C657 C658 1.414 . S
C657 C660 1.499 . S
C658 H638 0.950 . S
C658 C657 1.414 . S
C658 C659 1.374 . S
C659 H639 0.950 . S
C659 C655 1.385 . S
C659 C658 1.374 . S
C660 C657 1.499 . S
C660 C661 1.373 . S
C660 C662 1.389 . S
C661 H640 0.950 . S
C661 C660 1.373 . S
C661 C677 1.377 . S
C662 C660 1.389 . S
C662 C663 1.524 . S
C662 C676 1.377 . S
C663 C662 1.524 . S
C663 C664 1.397 . S
C663 C668 1.363 . S
C664 H641 0.950 . S
C664 C663 1.397 . S
C664 C665 1.334 . S
C665 H642 0.950 . S
C665 C664 1.334 . S
C665 C666 1.287 . S
C666 C665 1.287 . S
C666 C667 1.524 . S
C666 H685 0.913 . S
C667 H643 0.950 . S
C667 C666 1.524 . S
C667 C668 1.415 . S
C668 H644 0.950 . S
C668 C663 1.363 . S
C668 C667 1.415 . S
C669 H645 0.951 . S
C669 C670 1.366 . S
C669 C671 1.388 . S
C670 C669 1.366 . S
C670 C674 1.385 . S
C671 H646 0.951 . S
C671 C669 1.388 . S
C671 C672 1.366 . S
C672 C671 1.366 . S
C672 C673 1.414 . S
C672 C675 1.499 . S
C673 H647 0.950 . S
C673 C672 1.414 . S
C673 C674 1.374 . S
C674 H648 0.950 . S
C674 C670 1.385 . S
C674 C673 1.374 . S
C675 C672 1.499 . S
C675 C676 1.373 . S
C675 C677 1.389 . S
C676 H649 0.950 . S
C676 C662 1.377 . S
C676 C675 1.373 . S
C677 C661 1.377 . S
C677 C675 1.389 . S
C677 C678 1.524 . S
C678 C677 1.524 . S
C678 C679 1.397 . S
C678 C683 1.363 . S
C679 H650 0.950 . S
C679 C678 1.397 . S
C679 C680 1.334 . S
C680 H651 0.950 . S
C680 C679 1.334 . S
C680 C681 1.287 . S
C681 C680 1.287 . S
C681 C682 1.524 . S
C681 H684 0.999 . S
C682 H652 0.950 . S
C682 C681 1.524 . S
C682 C683 1.415 . S
C683 H653 0.950 . S
C683 C678 1.363 . S
C683 C682 1.415 . S
H684 C681 0.999 . S
H685 C666 0.913 . S
H686 C704 0.951 . S
H687 C706 0.951 . S
H688 C708 0.950 . S
H689 C709 0.950 . S
H690 C711 0.950 . S
H691 C714 0.950 . S
H692 C715 0.950 . S
H693 C717 0.950 . S
H694 C718 0.950 . S
H695 C719 0.951 . S
H696 C721 0.951 . S
H697 C723 0.950 . S
H698 C724 0.950 . S
H699 C726 0.950 . S
H700 C729 0.950 . S
H701 C730 0.950 . S
H702 C732 0.950 . S
H703 C733 0.950 . S
C704 H686 0.951 . S
C704 C705 1.366 . S
C704 C706 1.388 . S
C705 C704 1.366 . S
C705 C709 1.385 . S
C706 H687 0.951 . S
C706 C704 1.388 . S
C706 C707 1.366 . S
C707 C706 1.366 . S
C707 C708 1.414 . S
C707 C710 1.499 . S
C708 H688 0.950 . S
C708 C707 1.414 . S
C708 C709 1.374 . S
C709 H689 0.950 . S
C709 C705 1.385 . S
C709 C708 1.374 . S
C710 C707 1.499 . S
C710 C711 1.373 . S
C710 C712 1.389 . S
C711 H690 0.950 . S
C711 C710 1.373 . S
C711 C727 1.377 . S
C712 C710 1.389 . S
C712 C713 1.524 . S
C712 C726 1.377 . S
C713 C712 1.524 . S
C713 C714 1.397 . S
C713 C718 1.363 . S
C714 H691 0.950 . S
C714 C713 1.397 . S
C714 C715 1.334 . S
C715 H692 0.950 . S
C715 C714 1.334 . S
C715 C716 1.287 . S
C716 C715 1.287 . S
C716 C717 1.524 . S
C716 H735 0.913 . S
C717 H693 0.950 . S
C717 C716 1.524 . S
C717 C718 1.415 . S
C718 H694 0.950 . S
C718 C713 1.363 . S
C718 C717 1.415 . S
C719 H695 0.951 . S
C719 C720 1.366 . S
C719 C721 1.388 . S
C720 C719 1.366 . S
C720 C724 1.385 . S
C721 H696 0.951 . S
C721 C719 1.388 . S
C721 C722 1.366 . S
C722 C721 1.366 . S
C722 C723 1.414 . S
C722 C725 1.499 . S
C723 H697 0.950 . S
C723 C722 1.414 . S
C723 C724 1.374 . S
C724 H698 0.950 . S
C724 C720 1.385 . S
C724 C723 1.374 . S
C725 C722 1.499 . S
C725 C726 1.373 . S
C725 C727 1.389 . S
C726 H699 0.950 . S
C726 C712 1.377 . S
C726 C725 1.373 . S
C727 C711 1.377 . S
C727 C725 1.389 . S
C727 C728 1.524 . S
C728 C727 1.524 . S
C728 C729 1.397 . S
C728 C733 1.363 . S
C729 H700 0.950 . S
C729 C728 1.397 . S
C729 C730 1.334 . S
C730 H701 0.950 . S
C730 C729 1.334 . S
C730 C731 1.287 . S
C731 C730 1.287 . S
C731 C732 1.524 . S
C731 H734 0.999 . S
C732 H702 0.950 . S
C732 C731 1.524 . S
C732 C733 1.415 . S
C733 H703 0.950 . S
C733 C728 1.363 . S
C733 C732 1.415 . S
H734 C731 0.999 . S
H735 C716 0.913 . S
H736 C754 0.951 . S
H737 C756 0.951 . S
H738 C758 0.950 . S
H739 C759 0.950 . S
H740 C761 0.950 . S
H741 C764 0.950 . S
H742 C765 0.950 . S
H743 C767 0.950 . S
H744 C768 0.950 . S
H745 C769 0.951 . S
H746 C771 0.951 . S
H747 C773 0.950 . S
H748 C774 0.950 . S
H749 C776 0.950 . S
H750 C779 0.950 . S
H751 C780 0.950 . S
H752 C782 0.950 . S
H753 C783 0.950 . S
C754 H736 0.951 . S
C754 C755 1.366 . S
C754 C756 1.388 . S
C755 C754 1.366 . S
C755 C759 1.385 . S
C756 H737 0.951 . S
C756 C754 1.388 . S
C756 C757 1.366 . S
C757 C756 1.366 . S
C757 C758 1.414 . S
C757 C760 1.499 . S
C758 H738 0.950 . S
C758 C757 1.414 . S
C758 C759 1.374 . S
C759 H739 0.950 . S
C759 C755 1.385 . S
C759 C758 1.374 . S
C760 C757 1.499 . S
C760 C761 1.373 . S
C760 C762 1.389 . S
C761 H740 0.950 . S
C761 C760 1.373 . S
C761 C777 1.377 . S
C762 C760 1.389 . S
C762 C763 1.524 . S
C762 C776 1.377 . S
C763 C762 1.524 . S
C763 C764 1.397 . S
C763 C768 1.363 . S
C764 H741 0.950 . S
C764 C763 1.397 . S
C764 C765 1.334 . S
C765 H742 0.950 . S
C765 C764 1.334 . S
C765 C766 1.287 . S
C766 C765 1.287 . S
C766 C767 1.524 . S
C766 H785 0.913 . S
C767 H743 0.950 . S
C767 C766 1.524 . S
C767 C768 1.415 . S
C768 H744 0.950 . S
C768 C763 1.363 . S
C768 C767 1.415 . S
C769 H745 0.951 . S
C769 C770 1.366 . S
C769 C771 1.388 . S
C770 C769 1.366 . S
C770 C774 1.385 . S
C771 H746 0.951 . S
C771 C769 1.388 . S
C771 C772 1.366 . S
C772 C771 1.366 . S
C772 C773 1.414 . S
C772 C775 1.499 . S
C773 H747 0.950 . S
C773 C772 1.414 . S
C773 C774 1.374 . S
C774 H748 0.950 . S
C774 C770 1.385 . S
C774 C773 1.374 . S
C775 C772 1.499 . S
C775 C776 1.373 . S
C775 C777 1.389 . S
C776 H749 0.950 . S
C776 C762 1.377 . S
C776 C775 1.373 . S
C777 C761 1.377 . S
C777 C775 1.389 . S
C777 C778 1.524 . S
C778 C777 1.524 . S
C778 C779 1.397 . S
C778 C783 1.363 . S
C779 H750 0.950 . S
C779 C778 1.397 . S
C779 C780 1.334 . S
C780 H751 0.950 . S
C780 C779 1.334 . S
C780 C781 1.287 . S
C781 C780 1.287 . S
C781 C782 1.524 . S
C781 H784 0.999 . S
C782 H752 0.950 . S
C782 C781 1.524 . S
C782 C783 1.415 . S
C783 H753 0.950 . S
C783 C778 1.363 . S
C783 C782 1.415 . S
H784 C781 0.999 . S
H785 C766 0.913 . S
H786 C804 0.951 . S
H787 C806 0.951 . S
H788 C808 0.950 . S
H789 C809 0.950 . S
H790 C811 0.950 . S
H791 C814 0.925 1_455 S
H792 C815 0.950 1_455 S
H793 C817 0.950 . S
H794 C818 0.950 . S
H795 C819 0.951 . S
H796 C821 0.951 . S
H797 C823 0.950 . S
H798 C824 0.950 . S
H799 C826 0.950 1_556 S
H800 C829 0.950 1_655 S
H801 C830 0.950 . S
H802 C832 0.950 . S
H803 C833 0.950 . S
C804 H786 0.951 . S
C804 C805 1.366 1_655 S
C804 C806 1.388 . S
C805 C804 1.366 1_455 S
C805 C809 1.385 . S
C806 H787 0.951 . S
C806 C804 1.388 . S
C806 C807 1.366 1_655 S
C807 C806 1.366 1_455 S
C807 C808 1.414 . S
C807 C810 1.499 . S
C808 H788 0.950 . S
C808 C807 1.414 . S
C808 C809 1.374 . S
C809 H789 0.950 . S
C809 C805 1.385 . S
C809 C808 1.374 . S
C810 C807 1.499 . S
C810 C811 1.373 . S
C810 C812 1.389 1_455 S
C811 H790 0.950 . S
C811 C810 1.373 . S
C811 C827 1.377 . S
C812 C810 1.389 1_655 S
C812 C813 1.524 . S
C812 C826 1.377 . S
C813 C812 1.524 . S
C813 C814 1.421 . S
C813 C818 1.363 . S
C814 H791 0.925 1_655 S
C814 C813 1.421 . S
C814 C815 1.335 . S
C815 H792 0.950 1_655 S
C815 C814 1.335 . S
C815 C816 1.287 . S
C816 C815 1.287 . S
C816 C817 1.524 . S
C816 H835 0.913 . S
C817 H793 0.950 . S
C817 C816 1.524 . S
C817 C818 1.415 . S
C818 H794 0.950 . S
C818 C813 1.363 . S
C818 C817 1.415 . S
C819 H795 0.951 . S
C819 C820 1.366 . S
C819 C821 1.388 . S
C820 C819 1.366 . S
C820 C824 1.385 1_455 S
C821 H796 0.951 . S
C821 C819 1.388 . S
C821 C822 1.366 . S
C822 C821 1.366 . S
C822 C823 1.414 1_455 S
C822 C825 1.499 . S
C823 H797 0.950 . S
C823 C822 1.414 1_655 S
C823 C824 1.374 . S
C824 H798 0.950 . S
C824 C820 1.385 1_655 S
C824 C823 1.374 . S
C825 C822 1.499 . S
C825 C826 1.373 1_456 S
C825 C827 1.389 1_556 S
C826 H799 0.950 1_554 S
C826 C812 1.377 . S
C826 C825 1.373 1_654 S
C827 C811 1.377 . S
C827 C825 1.389 1_554 S
C827 C828 1.524 1_554 S
C828 C827 1.524 1_556 S
C828 C829 1.397 . S
C828 C833 1.363 1_556 S
C829 H800 0.950 1_455 S
C829 C828 1.397 . S
C829 C830 1.334 . S
C830 H801 0.950 . S
C830 C829 1.334 . S
C830 C831 1.287 . S
C831 C830 1.287 . S
C831 C832 1.524 . S
C831 H834 0.999 . S
C832 H802 0.950 . S
C832 C831 1.524 . S
C832 C833 1.415 1_556 S
C833 H803 0.950 . S
C833 C828 1.363 1_554 S
C833 C832 1.415 1_554 S
H834 C831 0.999 . S
H835 C816 0.913 . S
H836 C854 0.951 . S
H837 C856 0.951 . S
H838 C858 0.950 . S
H839 C859 0.950 . S
H840 C861 0.950 . S
H841 C864 0.950 . S
H842 C865 0.950 . S
H843 C867 0.950 . S
H844 C868 0.950 1_545 S
H845 C869 0.951 . S
H846 C871 0.951 . S
H847 C873 0.950 . S
H848 C874 0.950 . S
H849 C876 0.951 . S
H850 C879 0.950 . S
H851 C880 0.950 . S
H852 C882 0.950 . S
H853 C883 0.950 . S
C854 H836 0.951 . S
C854 C855 1.366 . S
C854 C856 1.388 . S
C855 C854 1.366 . S
C855 C859 1.385 . S
C856 H837 0.951 . S
C856 C854 1.388 . S
C856 C857 1.366 . S
C857 C856 1.366 . S
C857 C858 1.414 . S
C857 C860 1.499 . S
C858 H838 0.950 . S
C858 C857 1.414 . S
C858 C859 1.374 . S
C859 H839 0.950 . S
C859 C855 1.385 . S
C859 C858 1.374 . S
C860 C857 1.499 . S
C860 C861 1.373 . S
C860 C862 1.389 . S
C861 H840 0.950 . S
C861 C860 1.373 . S
C861 C877 1.377 . S
C862 C860 1.389 . S
C862 C863 1.524 1_545 S
C862 C876 1.377 . S
C863 C862 1.524 1_565 S
C863 C864 1.397 . S
C863 C868 1.363 . S
C864 H841 0.950 . S
C864 C863 1.397 . S
C864 C865 1.334 . S
C865 H842 0.950 . S
C865 C864 1.334 . S
C865 C866 1.287 . S
C866 C865 1.287 . S
C866 C867 1.524 . S
C866 H885 0.913 . S
C867 H843 0.950 . S
C867 C866 1.524 . S
C867 C868 1.415 . S
C868 H844 0.950 1_565 S
C868 C863 1.363 . S
C868 C867 1.415 . S
C869 H845 0.951 . S
C869 C870 1.366 . S
C869 C871 1.388 . S
C870 C869 1.366 . S
C870 C874 1.385 . S
C871 H846 0.951 . S
C871 C869 1.388 . S
C871 C872 1.366 . S
C872 C871 1.366 . S
C872 C873 1.414 . S
C872 C875 1.499 . S
C873 H847 0.950 . S
C873 C872 1.414 . S
C873 C874 1.374 . S
C874 H848 0.950 . S
C874 C870 1.385 . S
C874 C873 1.374 . S
C875 C872 1.499 . S
C875 C876 1.373 . S
C875 C877 1.389 . S
C876 H849 0.951 . S
C876 C862 1.377 . S
C876 C875 1.373 . S
C877 C861 1.377 . S
C877 C875 1.389 . S
C877 C878 1.524 . S
C878 C877 1.524 . S
C878 C879 1.397 . S
C878 C883 1.363 . S
C879 H850 0.950 . S
C879 C878 1.397 . S
C879 C880 1.334 . S
C880 H851 0.950 . S
C880 C879 1.334 . S
C880 C881 1.287 . S
C881 C880 1.287 . S
C881 C882 1.524 . S
C881 H884 0.999 . S
C882 H852 0.950 . S
C882 C881 1.524 . S
C882 C883 1.415 . S
C883 H853 0.950 . S
C883 C878 1.363 . S
C883 C882 1.415 . S
H884 C881 0.999 . S
H885 C866 0.913 . S
H886 C904 0.951 . S
H887 C906 0.951 . S
H888 C908 0.950 . S
H889 C909 0.950 . S
H890 C911 0.950 . S
H891 C914 0.950 . S
H892 C915 0.950 . S
H893 C917 0.950 . S
H894 C918 0.950 . S
H895 C919 0.951 . S
H896 C921 0.951 . S
H897 C923 0.950 . S
H898 C924 0.950 . S
H899 C926 0.950 . S
H900 C929 0.950 . S
H901 C930 0.950 . S
H902 C932 0.950 . S
H903 C933 0.950 . S
C904 H886 0.951 . S
C904 C905 1.366 . S
C904 C906 1.388 . S
C905 C904 1.366 . S
C905 C909 1.385 . S
C906 H887 0.951 . S
C906 C904 1.388 . S
C906 C907 1.366 . S
C907 C906 1.366 . S
C907 C908 1.414 . S
C907 C910 1.499 . S
C908 H888 0.950 . S
C908 C907 1.414 . S
C908 C909 1.374 . S
C909 H889 0.950 . S
C909 C905 1.385 . S
C909 C908 1.374 . S
C910 C907 1.499 . S
C910 C911 1.373 . S
C910 C912 1.389 . S
C911 H890 0.950 . S
C911 C910 1.373 . S
C911 C927 1.377 . S
C912 C910 1.389 . S
C912 C913 1.524 . S
C912 C926 1.377 . S
C913 C912 1.524 . S
C913 C914 1.397 . S
C913 C918 1.363 . S
C914 H891 0.950 . S
C914 C913 1.397 . S
C914 C915 1.334 . S
C915 H892 0.950 . S
C915 C914 1.334 . S
C915 C916 1.287 . S
C916 C915 1.287 . S
C916 C917 1.524 . S
C916 H935 0.913 . S
C917 H893 0.950 . S
C917 C916 1.524 . S
C917 C918 1.415 . S
C918 H894 0.950 . S
C918 C913 1.363 . S
C918 C917 1.415 . S
C919 H895 0.951 . S
C919 C920 1.366 . S
C919 C921 1.388 . S
C920 C919 1.366 . S
C920 C924 1.385 . S
C921 H896 0.951 . S
C921 C919 1.388 . S
C921 C922 1.366 . S
C922 C921 1.366 . S
C922 C923 1.414 . S
C922 C925 1.499 . S
C923 H897 0.950 . S
C923 C922 1.414 . S
C923 C924 1.374 . S
C924 H898 0.950 . S
C924 C920 1.385 . S
C924 C923 1.374 . S
C925 C922 1.499 . S
C925 C926 1.373 . S
C925 C927 1.389 . S
C926 H899 0.950 . S
C926 C912 1.377 . S
C926 C925 1.373 . S
C927 C911 1.377 . S
C927 C925 1.389 . S
C927 C928 1.524 . S
C928 C927 1.524 . S
C928 C929 1.397 . S
C928 C933 1.363 . S
C929 H900 0.950 . S
C929 C928 1.397 . S
C929 C930 1.334 . S
C930 H901 0.950 . S
C930 C929 1.334 . S
C930 C931 1.287 . S
C931 C930 1.287 . S
C931 C932 1.524 . S
C931 H934 0.999 . S
C932 H902 0.950 . S
C932 C931 1.524 . S
C932 C933 1.415 . S
C933 H903 0.950 . S
C933 C928 1.363 . S
C933 C932 1.415 . S
H934 C931 0.999 . S
H935 C916 0.913 . S
H936 C954 0.951 . S
H937 C956 0.951 . S
H938 C958 0.950 . S
H939 C959 0.950 . S
H940 C961 0.950 . S
H941 C964 0.950 . S
H942 C965 0.950 . S
H943 C967 0.950 . S
H944 C968 0.950 . S
H945 C969 0.951 . S
H946 C971 0.951 . S
H947 C973 0.950 . S
H948 C974 0.950 . S
H949 C976 0.950 . S
H950 C979 0.950 1_545 S
H951 C980 0.950 . S
H952 C982 0.950 . S
H953 C983 0.950 . S
C954 H936 0.951 . S
C954 C955 1.366 . S
C954 C956 1.388 . S
C955 C954 1.366 . S
C955 C959 1.385 1_545 S
C956 H937 0.951 . S
C956 C954 1.388 . S
C956 C957 1.366 . S
C957 C956 1.366 . S
C957 C958 1.414 1_545 S
C957 C960 1.499 . S
C958 H938 0.950 . S
C958 C957 1.414 1_565 S
C958 C959 1.374 . S
C959 H939 0.950 . S
C959 C955 1.385 1_565 S
C959 C958 1.374 . S
C960 C957 1.499 . S
C960 C961 1.373 1_545 S
C960 C962 1.389 . S
C961 H940 0.950 . S
C961 C960 1.373 1_565 S
C961 C977 1.377 . S
C962 C960 1.389 . S
C962 C963 1.524 . S
C962 C976 1.377 . S
C963 C962 1.524 . S
C963 C964 1.397 . S
C963 C968 1.363 . S
C964 H941 0.950 . S
C964 C963 1.397 . S
C964 C965 1.334 . S
C965 H942 0.950 . S
C965 C964 1.334 . S
C965 C966 1.287 . S
C966 C965 1.287 . S
C966 C967 1.524 . S
C966 H985 0.913 . S
C967 H943 0.950 . S
C967 C966 1.524 . S
C967 C968 1.415 . S
C968 H944 0.950 . S
C968 C963 1.363 . S
C968 C967 1.415 . S
C969 H945 0.951 . S
C969 C970 1.366 1_565 S
C969 C971 1.388 . S
C970 C969 1.366 1_545 S
C970 C974 1.385 . S
C971 H946 0.951 . S
C971 C969 1.388 . S
C971 C972 1.366 1_565 S
C972 C971 1.366 1_545 S
C972 C973 1.414 . S
C972 C975 1.499 . S
C973 H947 0.950 . S
C973 C972 1.414 . S
C973 C974 1.374 . S
C974 H948 0.950 . S
C974 C970 1.385 . S
C974 C973 1.374 . S
C975 C972 1.499 . S
C975 C976 1.373 . S
C975 C977 1.389 1_545 S
C976 H949 0.950 . S
C976 C962 1.377 . S
C976 C975 1.373 . S
C977 C961 1.377 . S
C977 C975 1.389 1_565 S
C977 C978 1.524 . S
C978 C977 1.524 . S
C978 C979 1.397 . S
C978 C983 1.363 . S
C979 H950 0.950 1_565 S
C979 C978 1.397 . S
C979 C980 1.334 . S
C980 H951 0.950 . S
C980 C979 1.334 . S
C980 C981 1.287 . S
C981 C980 1.287 . S
C981 C982 1.524 . S
C981 H984 0.999 . S
C982 H952 0.950 . S
C982 C981 1.524 . S
C982 C983 1.415 . S
C983 H953 0.950 . S
C983 C978 1.363 . S
C983 C982 1.415 . S
H984 C981 0.999 . S
H985 C966 0.913 . S
H986 C1004 0.951 . S
H987 C1006 0.951 . S
H988 C1008 0.950 . S
H989 C1009 0.950 . S
H990 C1011 0.950 . S
H991 C1014 0.950 . S
H992 C1015 0.950 . S
H993 C1017 0.950 . S
H994 C1018 0.950 . S
H995 C1019 0.951 . S
H996 C1021 0.951 . S
H997 C1023 0.950 . S
H998 C1024 0.950 . S
H999 C1026 0.950 1_554 S
H1000 C1029 0.950 . S
H1001 C1030 0.950 . S
H1002 C1032 0.950 . S
H1003 C1033 0.981 . S
C1004 H986 0.951 . S
C1004 C1005 1.366 . S
C1004 C1006 1.388 . S
C1005 C1004 1.366 . S
C1005 C1009 1.385 . S
C1006 H987 0.951 . S
C1006 C1004 1.388 . S
C1006 C1007 1.366 . S
C1007 C1006 1.366 . S
C1007 C1008 1.414 . S
C1007 C1010 1.499 . S
C1008 H988 0.950 . S
C1008 C1007 1.414 . S
C1008 C1009 1.374 . S
C1009 H989 0.950 . S
C1009 C1005 1.385 . S
C1009 C1008 1.374 . S
C1010 C1007 1.499 . S
C1010 C1011 1.373 . S
C1010 C1012 1.389 . S
C1011 H990 0.950 . S
C1011 C1010 1.373 . S
C1011 C1027 1.377 . S
C1012 C1010 1.389 . S
C1012 C1013 1.524 . S
C1012 C1026 1.377 . S
C1013 C1012 1.524 . S
C1013 C1014 1.397 . S
C1013 C1018 1.363 . S
C1014 H991 0.950 . S
C1014 C1013 1.397 . S
C1014 C1015 1.334 . S
C1015 H992 0.950 . S
C1015 C1014 1.334 . S
C1015 C1016 1.287 . S
C1016 C1015 1.287 . S
C1016 C1017 1.524 . S
C1016 H1035 0.913 . S
C1017 H993 0.950 . S
C1017 C1016 1.524 . S
C1017 C1018 1.415 . S
C1018 H994 0.950 . S
C1018 C1013 1.363 . S
C1018 C1017 1.415 . S
C1019 H995 0.951 . S
C1019 C1020 1.366 . S
C1019 C1021 1.388 . S
C1020 C1019 1.366 . S
C1020 C1024 1.385 . S
C1021 H996 0.951 . S
C1021 C1019 1.388 . S
C1021 C1022 1.366 . S
C1022 C1021 1.366 . S
C1022 C1023 1.414 . S
C1022 C1025 1.499 . S
C1023 H997 0.950 . S
C1023 C1022 1.414 . S
C1023 C1024 1.374 . S
C1024 H998 0.950 . S
C1024 C1020 1.385 . S
C1024 C1023 1.374 . S
C1025 C1022 1.499 . S
C1025 C1026 1.373 1_554 S
C1025 C1027 1.389 1_554 S
C1026 H999 0.950 1_556 S
C1026 C1012 1.377 . S
C1026 C1025 1.373 1_556 S
C1027 C1011 1.377 . S
C1027 C1025 1.389 1_556 S
C1027 C1028 1.524 1_556 S
C1028 C1027 1.524 1_554 S
C1028 C1029 1.397 . S
C1028 C1033 1.353 1_554 S
C1029 H1000 0.950 . S
C1029 C1028 1.397 . S
C1029 C1030 1.334 . S
C1030 H1001 0.950 . S
C1030 C1029 1.334 . S
C1030 C1031 1.287 . S
C1031 C1030 1.287 . S
C1031 C1032 1.524 . S
C1031 H1034 0.999 . S
C1032 H1002 0.950 . S
C1032 C1031 1.524 . S
C1032 C1033 1.397 1_554 S
C1033 H1003 0.981 . S
C1033 C1028 1.353 1_556 S
C1033 C1032 1.397 1_556 S
H1034 C1031 0.999 . S
H1035 C1016 0.913 . S
H1036 C1054 0.951 . S
H1037 C1056 0.951 . S
H1038 C1058 0.950 . S
H1039 C1059 0.950 . S
H1040 C1061 0.950 . S
H1041 C1064 0.950 . S
H1042 C1065 0.950 . S
H1043 C1067 0.950 . S
H1044 C1068 0.950 . S
H1045 C1069 0.962 . S
H1046 C1071 0.955 . S
H1047 C1073 0.950 . S
H1048 C1074 0.950 . S
H1049 C1076 0.950 . S
H1050 C1079 0.950 . S
H1051 C1080 0.950 . S
H1052 C1082 0.950 . S
H1053 C1083 0.950 . S
C1054 H1036 0.951 . S
C1054 C1055 1.366 . S
C1054 C1056 1.388 . S
C1055 C1054 1.366 . S
C1055 C1059 1.385 . S
C1056 H1037 0.951 . S
C1056 C1054 1.388 . S
C1056 C1057 1.366 . S
C1057 C1056 1.366 . S
C1057 C1058 1.414 . S
C1057 C1060 1.499 . S
C1058 H1038 0.950 . S
C1058 C1057 1.414 . S
C1058 C1059 1.374 . S
C1059 H1039 0.950 . S
C1059 C1055 1.385 . S
C1059 C1058 1.374 . S
C1060 C1057 1.499 . S
C1060 C1061 1.373 1_455 S
C1060 C1062 1.389 . S
C1061 H1040 0.950 . S
C1061 C1060 1.373 1_655 S
C1061 C1077 1.377 . S
C1062 C1060 1.389 . S
C1062 C1063 1.524 . S
C1062 C1076 1.377 . S
C1063 C1062 1.524 . S
C1063 C1064 1.397 . S
C1063 C1068 1.363 . S
C1064 H1041 0.950 . S
C1064 C1063 1.397 . S
C1064 C1065 1.334 . S
C1065 H1042 0.950 . S
C1065 C1064 1.334 . S
C1065 C1066 1.287 . S
C1066 C1065 1.287 . S
C1066 C1067 1.524 . S
C1066 H1085 0.913 . S
C1067 H1043 0.950 . S
C1067 C1066 1.524 . S
C1067 C1068 1.415 . S
C1068 H1044 0.950 . S
C1068 C1063 1.363 . S
C1068 C1067 1.415 . S
C1069 H1045 0.962 . S
C1069 C1070 1.366 . S
C1069 C1071 1.388 . S
C1070 C1069 1.366 . S
C1070 C1074 1.385 . S
C1071 H1046 0.955 . S
C1071 C1069 1.388 . S
C1071 C1072 1.366 . S
C1072 C1071 1.366 . S
C1072 C1073 1.414 . S
C1072 C1075 1.499 . S
C1073 H1047 0.950 . S
C1073 C1072 1.414 . S
C1073 C1074 1.374 . S
C1074 H1048 0.950 . S
C1074 C1070 1.385 . S
C1074 C1073 1.374 . S
C1075 C1072 1.499 . S
C1075 C1076 1.373 1_655 S
C1075 C1077 1.389 . S
C1076 H1049 0.950 . S
C1076 C1062 1.377 . S
C1076 C1075 1.373 1_455 S
C1077 C1061 1.377 . S
C1077 C1075 1.389 . S
C1077 C1078 1.524 . S
C1078 C1077 1.524 . S
C1078 C1079 1.397 . S
C1078 C1083 1.363 . S
C1079 H1050 0.950 . S
C1079 C1078 1.397 . S
C1079 C1080 1.334 . S
C1080 H1051 0.950 . S
C1080 C1079 1.334 . S
C1080 C1081 1.287 . S
C1081 C1080 1.287 . S
C1081 C1082 1.524 . S
C1081 H1084 0.999 . S
C1082 H1052 0.950 . S
C1082 C1081 1.524 . S
C1082 C1083 1.415 . S
C1083 H1053 0.950 . S
C1083 C1078 1.363 . S
C1083 C1082 1.415 . S
H1084 C1081 0.999 . S
H1085 C1066 0.913 . S
C205 C19 2.054 . S
C220 C180 1.778 . S
C255 C46 1.361 . S
C270 C158 1.181 . S
C305 C95 0.259 . S
C320 C172 0.261 . S
C355 C10 1.789 . S
C370 C183 1.749 . S
C420 C161 1.001 . S
C405 C55 1.017 . S
C470 C169 0.712 . S
C455 C86 0.556 . S
C505 C59 3.291 . S
C520 C136 2.941 . S
C555 C90 2.130 . S
C570 C147 1.830 . S
C605 C15 1.422 . S
C620 C125 1.212 . S
C670 C139 2.749 . S
C655 C50 2.800 . S
C720 C150 1.681 . S
C705 C99 1.717 . S
C755 C6 0.957 . S
C770 C128 0.945 . S
C820 C149 1.402 . S
C805 C9 1.414 . S
C855 C58 1.472 . S
C870 C127 1.469 . S
C905 C98 1.637 . S
C920 C138 1.635 . S
C970 C171 1.222 . S
C955 C49 1.248 . S
C1020 C182 1.400 . S
C1005 C89 1.420 . S
C1055 C18 1.488 . S
C1070 C160 1.459 . S
