# Generated by pormake.
# Topology gar, (4,6)-cn, num edge types: 1
# Building blocks:
#     Node 0, Type 0, BuildingBlock: CEKHIL_clean_sbu_0, # of connection points: 4
#     Node 1, Type 0, BuildingBlock: CEKHIL_clean_sbu_0, # of connection points: 4
#     Node 2, Type 0, BuildingBlock: CEKHIL_clean_sbu_0, # of connection points: 4
#     Node 3, Type 0, BuildingBlock: CEKHIL_clean_sbu_0, # of connection points: 4
#     Node 4, Type 0, BuildingBlock: CEKHIL_clean_sbu_0, # of connection points: 4
#     Node 5, Type 0, BuildingBlock: CEKHIL_clean_sbu_0, # of connection points: 4
#     Node 6, Type 0, BuildingBlock: CEKHIL_clean_sbu_0, # of connection points: 4
#     Node 7, Type 0, BuildingBlock: CEKHIL_clean_sbu_0, # of connection points: 4
#     Node 8, Type 0, BuildingBlock: CEKHIL_clean_sbu_0, # of connection points: 4
#     Node 9, Type 0, BuildingBlock: CEKHIL_clean_sbu_0, # of connection points: 4
#     Node 10, Type 0, BuildingBlock: CEKHIL_clean_sbu_0, # of connection points: 4
#     Node 11, Type 0, BuildingBlock: CEKHIL_clean_sbu_0, # of connection points: 4
#     Node 12, Type 0, BuildingBlock: CEKHIL_clean_sbu_0, # of connection points: 4
#     Node 13, Type 0, BuildingBlock: CEKHIL_clean_sbu_0, # of connection points: 4
#     Node 14, Type 0, BuildingBlock: CEKHIL_clean_sbu_0, # of connection points: 4
#     Node 15, Type 0, BuildingBlock: CEKHIL_clean_sbu_0, # of connection points: 4
#     Node 16, Type 0, BuildingBlock: CEKHIL_clean_sbu_0, # of connection points: 4
#     Node 17, Type 0, BuildingBlock: CEKHIL_clean_sbu_0, # of connection points: 4
#     Node 18, Type 0, BuildingBlock: CEKHIL_clean_sbu_0, # of connection points: 4
#     Node 19, Type 0, BuildingBlock: CEKHIL_clean_sbu_0, # of connection points: 4
#     Node 20, Type 0, BuildingBlock: CEKHIL_clean_sbu_0, # of connection points: 4
#     Node 21, Type 0, BuildingBlock: CEKHIL_clean_sbu_0, # of connection points: 4
#     Node 22, Type 0, BuildingBlock: CEKHIL_clean_sbu_0, # of connection points: 4
#     Node 23, Type 0, BuildingBlock: CEKHIL_clean_sbu_0, # of connection points: 4
#     Node 24, Type 1, BuildingBlock: BETDIP_clean_sbu_0, # of connection points: 6
#     Node 25, Type 1, BuildingBlock: BETDIP_clean_sbu_0, # of connection points: 6
#     Node 26, Type 1, BuildingBlock: BETDIP_clean_sbu_0, # of connection points: 6
#     Node 27, Type 1, BuildingBlock: BETDIP_clean_sbu_0, # of connection points: 6
#     Node 28, Type 1, BuildingBlock: BETDIP_clean_sbu_0, # of connection points: 6
#     Node 29, Type 1, BuildingBlock: BETDIP_clean_sbu_0, # of connection points: 6
#     Node 30, Type 1, BuildingBlock: BETDIP_clean_sbu_0, # of connection points: 6
#     Node 31, Type 1, BuildingBlock: BETDIP_clean_sbu_0, # of connection points: 6
#     Node 32, Type 1, BuildingBlock: BETDIP_clean_sbu_0, # of connection points: 6
#     Node 33, Type 1, BuildingBlock: BETDIP_clean_sbu_0, # of connection points: 6
#     Node 34, Type 1, BuildingBlock: BETDIP_clean_sbu_0, # of connection points: 6
#     Node 35, Type 1, BuildingBlock: BETDIP_clean_sbu_0, # of connection points: 6
#     Node 36, Type 1, BuildingBlock: BETDIP_clean_sbu_0, # of connection points: 6
#     Node 37, Type 1, BuildingBlock: BETDIP_clean_sbu_0, # of connection points: 6
#     Node 38, Type 1, BuildingBlock: BETDIP_clean_sbu_0, # of connection points: 6
#     Node 39, Type 1, BuildingBlock: BETDIP_clean_sbu_0, # of connection points: 6
#     Edge 40, Type (0, 1), BuildingBlock: XIVTED_clean_linker_0, # of connection points: 2
#     Edge 41, Type (0, 1), BuildingBlock: XIVTED_clean_linker_0, # of connection points: 2
#     Edge 42, Type (0, 1), BuildingBlock: XIVTED_clean_linker_0, # of connection points: 2
#     Edge 43, Type (0, 1), BuildingBlock: XIVTED_clean_linker_0, # of connection points: 2
#     Edge 44, Type (0, 1), BuildingBlock: XIVTED_clean_linker_0, # of connection points: 2
#     Edge 45, Type (0, 1), BuildingBlock: XIVTED_clean_linker_0, # of connection points: 2
#     Edge 46, Type (0, 1), BuildingBlock: XIVTED_clean_linker_0, # of connection points: 2
#     Edge 47, Type (0, 1), BuildingBlock: XIVTED_clean_linker_0, # of connection points: 2
#     Edge 48, Type (0, 1), BuildingBlock: XIVTED_clean_linker_0, # of connection points: 2
#     Edge 49, Type (0, 1), BuildingBlock: XIVTED_clean_linker_0, # of connection points: 2
#     Edge 50, Type (0, 1), BuildingBlock: XIVTED_clean_linker_0, # of connection points: 2
#     Edge 51, Type (0, 1), BuildingBlock: XIVTED_clean_linker_0, # of connection points: 2
#     Edge 52, Type (0, 1), BuildingBlock: XIVTED_clean_linker_0, # of connection points: 2
#     Edge 53, Type (0, 1), BuildingBlock: XIVTED_clean_linker_0, # of connection points: 2
#     Edge 54, Type (0, 1), BuildingBlock: XIVTED_clean_linker_0, # of connection points: 2
#     Edge 55, Type (0, 1), BuildingBlock: XIVTED_clean_linker_0, # of connection points: 2
#     Edge 56, Type (0, 1), BuildingBlock: XIVTED_clean_linker_0, # of connection points: 2
#     Edge 57, Type (0, 1), BuildingBlock: XIVTED_clean_linker_0, # of connection points: 2
#     Edge 58, Type (0, 1), BuildingBlock: XIVTED_clean_linker_0, # of connection points: 2
#     Edge 59, Type (0, 1), BuildingBlock: XIVTED_clean_linker_0, # of connection points: 2
#     Edge 60, Type (0, 1), BuildingBlock: XIVTED_clean_linker_0, # of connection points: 2
#     Edge 61, Type (0, 1), BuildingBlock: XIVTED_clean_linker_0, # of connection points: 2
#     Edge 62, Type (0, 1), BuildingBlock: XIVTED_clean_linker_0, # of connection points: 2
#     Edge 63, Type (0, 1), BuildingBlock: XIVTED_clean_linker_0, # of connection points: 2
#     Edge 64, Type (0, 1), BuildingBlock: XIVTED_clean_linker_0, # of connection points: 2
#     Edge 65, Type (0, 1), BuildingBlock: XIVTED_clean_linker_0, # of connection points: 2
#     Edge 66, Type (0, 1), BuildingBlock: XIVTED_clean_linker_0, # of connection points: 2
#     Edge 67, Type (0, 1), BuildingBlock: XIVTED_clean_linker_0, # of connection points: 2
#     Edge 68, Type (0, 1), BuildingBlock: XIVTED_clean_linker_0, # of connection points: 2
#     Edge 69, Type (0, 1), BuildingBlock: XIVTED_clean_linker_0, # of connection points: 2
#     Edge 70, Type (0, 1), BuildingBlock: XIVTED_clean_linker_0, # of connection points: 2
#     Edge 71, Type (0, 1), BuildingBlock: XIVTED_clean_linker_0, # of connection points: 2
#     Edge 72, Type (0, 1), BuildingBlock: XIVTED_clean_linker_0, # of connection points: 2
#     Edge 73, Type (0, 1), BuildingBlock: XIVTED_clean_linker_0, # of connection points: 2
#     Edge 74, Type (0, 1), BuildingBlock: XIVTED_clean_linker_0, # of connection points: 2
#     Edge 75, Type (0, 1), BuildingBlock: XIVTED_clean_linker_0, # of connection points: 2
#     Edge 76, Type (0, 1), BuildingBlock: XIVTED_clean_linker_0, # of connection points: 2
#     Edge 77, Type (0, 1), BuildingBlock: XIVTED_clean_linker_0, # of connection points: 2
#     Edge 78, Type (0, 1), BuildingBlock: XIVTED_clean_linker_0, # of connection points: 2
#     Edge 79, Type (0, 1), BuildingBlock: XIVTED_clean_linker_0, # of connection points: 2
#     Edge 80, Type (0, 1), BuildingBlock: XIVTED_clean_linker_0, # of connection points: 2
#     Edge 81, Type (0, 1), BuildingBlock: XIVTED_clean_linker_0, # of connection points: 2
#     Edge 82, Type (0, 1), BuildingBlock: XIVTED_clean_linker_0, # of connection points: 2
#     Edge 83, Type (0, 1), BuildingBlock: XIVTED_clean_linker_0, # of connection points: 2
#     Edge 84, Type (0, 1), BuildingBlock: XIVTED_clean_linker_0, # of connection points: 2
#     Edge 85, Type (0, 1), BuildingBlock: XIVTED_clean_linker_0, # of connection points: 2
#     Edge 86, Type (0, 1), BuildingBlock: XIVTED_clean_linker_0, # of connection points: 2
#     Edge 87, Type (0, 1), BuildingBlock: XIVTED_clean_linker_0, # of connection points: 2
#     Edge 88, Type (0, 1), BuildingBlock: XIVTED_clean_linker_0, # of connection points: 2
#     Edge 89, Type (0, 1), BuildingBlock: XIVTED_clean_linker_0, # of connection points: 2
#     Edge 90, Type (0, 1), BuildingBlock: XIVTED_clean_linker_0, # of connection points: 2
#     Edge 91, Type (0, 1), BuildingBlock: XIVTED_clean_linker_0, # of connection points: 2
#     Edge 92, Type (0, 1), BuildingBlock: XIVTED_clean_linker_0, # of connection points: 2
#     Edge 93, Type (0, 1), BuildingBlock: XIVTED_clean_linker_0, # of connection points: 2
#     Edge 94, Type (0, 1), BuildingBlock: XIVTED_clean_linker_0, # of connection points: 2
#     Edge 95, Type (0, 1), BuildingBlock: XIVTED_clean_linker_0, # of connection points: 2
#     Edge 96, Type (0, 1), BuildingBlock: XIVTED_clean_linker_0, # of connection points: 2
#     Edge 97, Type (0, 1), BuildingBlock: XIVTED_clean_linker_0, # of connection points: 2
#     Edge 98, Type (0, 1), BuildingBlock: XIVTED_clean_linker_0, # of connection points: 2
#     Edge 99, Type (0, 1), BuildingBlock: XIVTED_clean_linker_0, # of connection points: 2
#     Edge 100, Type (0, 1), BuildingBlock: XIVTED_clean_linker_0, # of connection points: 2
#     Edge 101, Type (0, 1), BuildingBlock: XIVTED_clean_linker_0, # of connection points: 2
#     Edge 102, Type (0, 1), BuildingBlock: XIVTED_clean_linker_0, # of connection points: 2
#     Edge 103, Type (0, 1), BuildingBlock: XIVTED_clean_linker_0, # of connection points: 2
#     Edge 104, Type (0, 1), BuildingBlock: XIVTED_clean_linker_0, # of connection points: 2
#     Edge 105, Type (0, 1), BuildingBlock: XIVTED_clean_linker_0, # of connection points: 2
#     Edge 106, Type (0, 1), BuildingBlock: XIVTED_clean_linker_0, # of connection points: 2
#     Edge 107, Type (0, 1), BuildingBlock: XIVTED_clean_linker_0, # of connection points: 2
#     Edge 108, Type (0, 1), BuildingBlock: XIVTED_clean_linker_0, # of connection points: 2
#     Edge 109, Type (0, 1), BuildingBlock: XIVTED_clean_linker_0, # of connection points: 2
#     Edge 110, Type (0, 1), BuildingBlock: XIVTED_clean_linker_0, # of connection points: 2
#     Edge 111, Type (0, 1), BuildingBlock: XIVTED_clean_linker_0, # of connection points: 2
#     Edge 112, Type (0, 1), BuildingBlock: XIVTED_clean_linker_0, # of connection points: 2
#     Edge 113, Type (0, 1), BuildingBlock: XIVTED_clean_linker_0, # of connection points: 2
#     Edge 114, Type (0, 1), BuildingBlock: XIVTED_clean_linker_0, # of connection points: 2
#     Edge 115, Type (0, 1), BuildingBlock: XIVTED_clean_linker_0, # of connection points: 2
#     Edge 116, Type (0, 1), BuildingBlock: XIVTED_clean_linker_0, # of connection points: 2
#     Edge 117, Type (0, 1), BuildingBlock: XIVTED_clean_linker_0, # of connection points: 2
#     Edge 118, Type (0, 1), BuildingBlock: XIVTED_clean_linker_0, # of connection points: 2
#     Edge 119, Type (0, 1), BuildingBlock: XIVTED_clean_linker_0, # of connection points: 2
#     Edge 120, Type (0, 1), BuildingBlock: XIVTED_clean_linker_0, # of connection points: 2
#     Edge 121, Type (0, 1), BuildingBlock: XIVTED_clean_linker_0, # of connection points: 2
#     Edge 122, Type (0, 1), BuildingBlock: XIVTED_clean_linker_0, # of connection points: 2
#     Edge 123, Type (0, 1), BuildingBlock: XIVTED_clean_linker_0, # of connection points: 2
#     Edge 124, Type (0, 1), BuildingBlock: XIVTED_clean_linker_0, # of connection points: 2
#     Edge 125, Type (0, 1), BuildingBlock: XIVTED_clean_linker_0, # of connection points: 2
#     Edge 126, Type (0, 1), BuildingBlock: XIVTED_clean_linker_0, # of connection points: 2
#     Edge 127, Type (0, 1), BuildingBlock: XIVTED_clean_linker_0, # of connection points: 2
#     Edge 128, Type (0, 1), BuildingBlock: XIVTED_clean_linker_0, # of connection points: 2
#     Edge 129, Type (0, 1), BuildingBlock: XIVTED_clean_linker_0, # of connection points: 2
#     Edge 130, Type (0, 1), BuildingBlock: XIVTED_clean_linker_0, # of connection points: 2
#     Edge 131, Type (0, 1), BuildingBlock: XIVTED_clean_linker_0, # of connection points: 2
#     Edge 132, Type (0, 1), BuildingBlock: XIVTED_clean_linker_0, # of connection points: 2
#     Edge 133, Type (0, 1), BuildingBlock: XIVTED_clean_linker_0, # of connection points: 2
#     Edge 134, Type (0, 1), BuildingBlock: XIVTED_clean_linker_0, # of connection points: 2
#     Edge 135, Type (0, 1), BuildingBlock: XIVTED_clean_linker_0, # of connection points: 2
# Relax obj value: 0.181
# Max RMSD: 0.302
# Mean RMSD: 0.149
data_MOF--net-gar--node1-CEKHIL_clean_sbu_0--node2-BETDIP_clean_sbu_0--edge1-XIVTED_clean_linker_0
_symmetry_space_group_name_H-M    P1
_symmetry_Int_Tables_number       1
_symmetry_cell_setting            triclinic
loop_
_symmetry_equiv_pos_as_xyz
'x, y, z'
_cell_length_a     64.060401
_cell_length_b     56.756251
_cell_length_c     53.771364
_cell_angle_alpha  96.690869
_cell_angle_beta   98.766298
_cell_angle_gamma 100.67553
loop_
_atom_site_label
_atom_site_type_symbol
_atom_site_fract_x
_atom_site_fract_y
_atom_site_fract_z
_atom_type_partial_charge
Co0 Co 0.04921 0.31978 0.40638 0.0
O1 O 0.07724 0.31286 0.40489 0.0
O2 O 0.05202 0.31188 0.3713 0.0
C3 C 0.06063 0.35319 0.43558 0.0
O4 O 1.01897 0.32664 0.40028 0.0
Co5 Co 0.02963 0.32133 0.45602 0.0
O6 O 1.00877 0.3376 0.43733 0.0
C7 C 0.02652 0.27436 0.42332 0.0
C8 C 0.07139 0.30941 0.38031 0.0
C9 C 1.00579 0.33486 0.41313 0.0
O10 O 0.03683 0.28484 0.40756 0.0
O11 O 0.0228 0.28556 0.44375 0.0
O12 O 0.06143 0.35445 0.41174 0.0
O13 O 0.05475 0.33177 0.44117 0.0
Co14 Co 0.06131 0.76931 0.70789 0.0
O15 O 0.03193 0.77254 0.70544 0.0
O16 O 0.04753 0.75033 0.73091 0.0
C17 C 0.07582 0.80887 0.71098 0.0
O18 O 0.09154 0.76265 0.71548 0.0
Co19 Co 0.0855 0.78504 0.66406 0.0
O20 O 0.10978 0.77526 0.68501 0.0
C21 C 0.05342 0.73955 0.65522 0.0
C22 C 0.03051 0.75871 0.72292 0.0
C23 C 0.10857 0.76577 0.70525 0.0
O24 O 0.05286 0.74113 0.67922 0.0
O25 O 0.06311 0.75676 0.64513 0.0
O26 O 0.0709 0.80013 0.73108 0.0
O27 O 0.0695 0.79435 0.68979 0.0
Co28 Co 0.54562 0.82222 0.8981 0.0
O29 O 0.57517 0.8203 0.89799 0.0
O30 O 0.55023 0.81698 0.86346 0.0
C31 C 0.55259 0.85466 0.9284 0.0
O32 O 0.51403 0.82424 0.89052 0.0
Co33 Co 0.52391 0.81797 0.94592 0.0
O34 O 0.5017 0.83227 0.92683 0.0
C35 C 0.52831 0.77379 0.91317 0.0
C36 C 0.57012 0.81726 0.87334 0.0
C37 C 0.49955 0.83022 0.9027 0.0
O38 O 0.53743 0.7863 0.8979 0.0
O39 O 0.52259 0.78302 0.9333 0.0
O40 O 0.55376 0.85749 0.90495 0.0
O41 O 0.54892 0.83263 0.93296 0.0
Co42 Co 0.56758 0.27328 0.21134 0.0
O43 O 0.53788 0.27489 0.21102 0.0
O44 O 0.55705 0.25709 0.23817 0.0
C45 C 0.57973 0.31241 0.20876 0.0
O46 O 0.59871 0.26897 0.21747 0.0
Co47 Co 0.58778 0.28472 0.16337 0.0
O48 O 0.6142 0.27894 0.18406 0.0
C49 C 0.55711 0.23914 0.16142 0.0
C50 C 0.53896 0.26359 0.23063 0.0
C51 C 0.61493 0.2719 0.2058 0.0
O52 O 0.55881 0.24248 0.18584 0.0
O53 O 0.56466 0.25555 0.14888 0.0
O54 O 0.57692 0.30612 0.23065 0.0
O55 O 0.57275 0.2957 0.18937 0.0
Co56 Co 0.08582 0.80857 0.17115 0.0
O57 O 0.05459 0.80534 0.16438 0.0
O58 O 0.07303 0.79841 0.19982 0.0
C59 C 0.09237 0.84534 0.15663 0.0
O60 O 0.11778 0.81045 0.18685 0.0
Co61 Co 0.11487 0.81269 0.13104 0.0
O62 O 0.13998 0.81804 0.15905 0.0
C63 C 0.08928 0.76439 0.13502 0.0
C64 C 0.05441 0.79949 0.18699 0.0
C65 C 0.13694 0.81439 0.18124 0.0
O66 O 0.08291 0.77346 0.15502 0.0
O67 O 0.10076 0.77742 0.12213 0.0
O68 O 0.08929 0.84396 0.1798 0.0
O69 O 0.09115 0.82473 0.14288 0.0
Co70 Co 0.52973 0.77469 0.44745 0.0
O71 O 0.56091 0.77848 0.4523 0.0
O72 O 0.53902 0.76233 0.41629 0.0
C73 C 0.53022 0.81308 0.46565 0.0
O74 O 0.49674 0.76952 0.43436 0.0
Co75 Co 0.50587 0.77905 0.49271 0.0
O76 O 0.48128 0.78217 0.46685 0.0
C77 C 0.5248 0.73604 0.48253 0.0
C78 C 0.55878 0.76925 0.42863 0.0
C79 C 0.48039 0.77554 0.44318 0.0
O80 O 0.52737 0.74177 0.4604 0.0
O81 O 0.51823 0.74977 0.49896 0.0
O82 O 0.53223 0.80858 0.44199 0.0
O83 O 0.52954 0.7948 0.47796 0.0
Co84 Co 0.58411 0.30921 0.67008 0.0
O85 O 0.55281 0.30571 0.66476 0.0
O86 O 0.57243 0.29911 0.69953 0.0
C87 C 0.58967 0.34585 0.65506 0.0
O88 O 0.6165 0.31133 0.68422 0.0
Co89 Co 0.61151 0.3135 0.6282 0.0
O90 O 0.63724 0.32179 0.65563 0.0
C91 C 0.58738 0.26491 0.63396 0.0
C92 C 0.55344 0.29994 0.68749 0.0
C93 C 0.63525 0.31708 0.67781 0.0
O94 O 0.58114 0.27411 0.654 0.0
O95 O 0.59837 0.27787 0.62056 0.0
O96 O 0.58746 0.34467 0.67855 0.0
O97 O 0.58819 0.32515 0.64136 0.0
Co98 Co 0.0283 0.27185 0.94866 0.0
O99 O 0.05944 0.27513 0.95356 0.0
O100 O 0.0374 0.25839 0.91783 0.0
C101 C 0.02919 0.31083 0.96557 0.0
O102 O 0.99526 0.26699 0.93563 0.0
Co103 Co 1.00481 0.27779 0.99411 0.0
O104 O 0.98097 0.28233 0.968 0.0
C105 C 0.02306 0.23411 0.98485 0.0
C106 C 0.0572 0.26534 0.93004 0.0
C107 C 0.97956 0.27469 0.94444 0.0
O108 O 0.02553 0.23937 0.96254 0.0
O109 O 1.01671 0.24829 1.00109 0.0
O110 O 0.03145 0.30542 0.94214 0.0
O111 O 0.0282 0.293 0.97859 0.0
Co112 Co 0.4247 0.06283 0.30072 0.0
O113 O 0.42822 0.09975 0.30417 0.0
O114 O 0.39773 0.07585 0.28965 0.0
C115 C 0.44436 0.06105 0.34221 0.0
O116 O 0.41033 0.02495 0.29667 0.0
Co117 Co 0.45871 0.03125 0.30351 0.0
O118 O 0.43559 1.00285 0.30459 0.0
C119 C 0.45159 0.05278 0.25603 0.0
C120 C 0.40767 0.09834 0.29629 0.0
C121 C 0.41579 1.0042 0.30004 0.0
O122 O 0.43469 0.0601 0.26364 0.0
O123 O 0.46379 0.04273 0.27066 0.0
O124 O 0.42473 0.06479 0.3388 0.0
O125 O 0.45175 0.05994 0.32118 0.0
Co126 Co 0.27799 0.16615 0.52748 0.0
O127 O 0.30937 0.17211 0.53197 0.0
O128 O 0.28866 0.13757 0.53572 0.0
C129 C 0.2742 0.18341 0.49103 0.0
O130 O 0.24538 0.15159 0.52375 0.0
Co131 Co 0.25105 0.20605 0.52561 0.0
O132 O 0.22512 0.17966 0.51948 0.0
C133 C 0.27395 0.19794 0.57529 0.0
C134 C 0.30799 0.14981 0.53607 0.0
C135 C 0.22686 0.15787 0.52096 0.0
O136 O 0.27959 0.17896 0.56485 0.0
O137 O 0.26412 0.21161 0.56257 0.0
O138 O 0.27636 0.161 0.49021 0.0
O139 O 0.27479 0.19459 0.51347 0.0
Co140 Co 0.16441 0.06534 0.838 0.0
O141 O 0.15877 0.03037 0.82914 0.0
O142 O 0.18841 0.05588 0.82534 0.0
C143 C 0.15344 0.06542 0.87605 0.0
O144 O 0.17776 0.10127 0.84582 0.0
Co145 Co 0.13047 0.09539 0.84489 0.0
O146 O 0.15416 0.12479 0.85251 0.0
C147 C 0.13186 0.07208 0.7938 0.0
C148 C 0.17785 0.03368 0.82293 0.0
C149 C 0.17327 0.12218 0.85109 0.0
O150 O 0.15065 0.06842 0.80244 0.0
O151 O 0.11988 0.08026 0.80823 0.0
O152 O 0.17266 0.06232 0.8736 0.0
O153 O 0.1409 0.0671 0.85528 0.0
Co154 Co 0.2575 0.88601 1.0079 0.0
O155 O 0.23629 0.88144 0.02991 0.0
O156 O 0.26064 0.9151 0.03129 0.0
C157 C 0.23537 0.86939 0.97088 0.0
O158 O 0.28091 0.89903 0.98886 0.0
Co159 Co 0.27049 0.84515 0.97375 0.0
O160 O 0.28789 0.87146 0.95965 0.0
C161 C 0.28808 0.85546 0.02906 0.0
C162 C 0.24448 0.90383 0.04015 0.0
C163 C 0.29074 0.89319 0.97074 0.0
O164 O 0.27899 0.87381 0.03193 0.0
O165 O 0.28524 0.84117 1.00804 0.0
O166 O 0.23589 0.89167 0.98051 0.0
O167 O 0.24666 0.85764 0.98479 0.0
Co168 Co 0.32772 0.41169 0.07726 0.0
O169 O 0.29649 0.40568 0.07375 0.0
O170 O 0.31801 0.4411 0.08875 0.0
C171 C 0.32766 0.39231 0.03788 0.0
O172 O 0.36053 0.42596 0.08189 0.0
Co173 Co 0.35328 0.3707 0.07461 0.0
O174 O 0.37801 0.39626 0.07192 0.0
C175 C 0.33596 0.38285 0.12128 0.0
C176 C 0.29836 0.42847 0.08223 0.0
C177 C 0.37779 0.41862 0.07747 0.0
O178 O 0.32998 0.40138 0.11266 0.0
O179 O 0.34444 0.36795 0.10841 0.0
O180 O 0.32537 0.41468 0.04106 0.0
O181 O 0.32873 0.38202 0.05808 0.0
Co182 Co 0.85073 0.19754 0.08313 0.0
O183 O 0.87676 0.194 0.071 0.0
O184 O 0.85896 0.1686 0.09277 0.0
C185 C 0.83233 0.20571 0.04743 0.0
O186 O 0.82308 0.19452 0.09741 0.0
Co187 Co 0.83601 0.24697 0.0861 0.0
O188 O 0.8081 0.22637 0.08945 0.0
C189 C 0.87127 0.24011 0.1246 0.0
C190 C 0.87478 0.17382 0.08048 0.0
C191 C 0.80716 0.20543 0.09614 0.0
O192 O 0.86743 0.21729 0.11609 0.0
O193 O 0.86247 0.25529 0.11312 0.0
O194 O 0.83359 0.18349 0.04977 0.0
O195 O 0.84475 0.22212 0.0648 0.0
Co196 Co 0.18258 0.51035 0.32621 0.0
O197 O 0.17914 0.47341 0.32436 0.0
O198 O 0.20856 0.49592 0.31998 0.0
C199 C 0.16614 0.51716 0.36408 0.0
O200 O 0.19692 0.54804 0.32768 0.0
Co201 Co 0.14937 0.54279 0.3248 0.0
O202 O 0.17325 0.57197 0.33256 0.0
C203 C 0.15267 0.51572 0.27529 0.0
C204 C 0.19898 0.47391 0.32108 0.0
C205 C 0.19236 0.5697 0.33066 0.0
O206 O 0.1694 0.50801 0.28666 0.0
O207 O 0.14196 0.52812 0.28792 0.0
O208 O 0.18586 0.51387 0.36514 0.0
O209 O 0.15693 0.5157 0.34071 0.0
Co210 Co 0.82952 0.91191 0.57562 0.0
O211 O 0.79842 0.90603 0.57324 0.0
O212 O 0.82024 0.94087 0.5897 0.0
C213 C 0.8278 0.89465 0.53493 0.0
O214 O 0.86247 0.92582 0.57956 0.0
Co215 Co 0.85425 0.87046 0.56698 0.0
O216 O 0.8783 0.8966 0.5638 0.0
C217 C 0.83524 0.8772 0.61371 0.0
C218 C 0.8005 0.92849 0.58305 0.0
C219 C 0.87893 0.91873 0.57207 0.0
O220 O 0.83239 0.89855 0.60961 0.0
O221 O 0.84205 0.8631 0.59788 0.0
O222 O 0.82617 0.91714 0.53977 0.0
O223 O 0.82959 0.88337 0.55429 0.0
Co224 Co 0.94968 1.01383 0.28249 0.0
O225 O 0.95565 0.04885 0.2858 0.0
O226 O 0.92512 0.02458 0.26575 0.0
C227 C 0.96244 1.01225 0.32378 0.0
O228 O 0.93612 0.97767 0.27642 0.0
Co229 Co 0.9845 0.98352 0.29199 0.0
O230 O 0.95987 0.95688 0.29326 0.0
C231 C 0.98113 1.00841 0.24675 0.0
C232 C 0.93608 0.04654 0.27352 0.0
C233 C 0.94071 0.95815 0.28374 0.0
O234 O 0.96234 1.01178 0.25012 0.0
O235 O 0.99336 0.99955 0.26265 0.0
O236 O 0.9431 1.0159 0.31689 0.0
O237 O 0.97387 1.01119 0.30599 0.0
Co238 Co 0.3504 0.68427 0.57889 0.0
O239 O 0.37148 0.68284 0.55713 0.0
O240 O 0.35509 0.65184 0.57356 0.0
C241 C 0.32954 0.70514 0.55677 0.0
O242 O 0.32759 0.67891 0.60084 0.0
Co243 Co 0.34427 0.73555 0.6063 0.0
O244 O 0.32028 0.71414 0.61798 0.0
C245 C 0.37979 0.71526 0.61967 0.0
C246 C 0.36843 0.65986 0.55904 0.0
C247 C 0.31682 0.69093 0.61403 0.0
O248 O 0.3732 0.69294 0.61025 0.0
O249 O 0.37455 0.73065 0.60586 0.0
O250 O 0.32773 0.68206 0.54955 0.0
O251 O 0.34554 0.71524 0.57477 0.0
Co252 Co 0.44781 0.50999 0.78058 0.0
O253 O 0.45358 0.54501 0.78349 0.0
O254 O 0.42272 0.5204 0.76495 0.0
C255 C 0.46205 0.50891 0.82144 0.0
O256 O 0.4342 0.47386 0.77519 0.0
Co257 Co 0.48216 0.47921 0.78798 0.0
O258 O 0.45805 0.45356 0.79259 0.0
C259 C 0.47535 0.50043 0.74051 0.0
C260 C 0.43372 0.54242 0.772 0.0
C261 C 0.43881 0.45472 0.78343 0.0
O262 O 0.4589 0.50772 0.74729 0.0
O263 O 0.48732 0.48961 0.75454 0.0
O264 O 0.44254 0.51238 0.81538 0.0
O265 O 0.47285 0.50755 0.80301 0.0
Co266 Co 0.68132 1.01019 0.82674 0.0
O267 O 0.67791 0.97326 0.82497 0.0
O268 O 0.70739 0.99583 0.82082 0.0
C269 C 0.66454 1.01696 0.86436 0.0
O270 O 0.69556 0.0479 0.82807 0.0
Co271 Co 0.64792 0.04247 0.82494 0.0
O272 O 0.67169 0.07172 0.8322 0.0
C273 C 0.65159 1.01529 0.77565 0.0
C274 C 0.6978 0.97382 0.82185 0.0
C275 C 0.69087 0.06952 0.83057 0.0
O276 O 0.66835 1.00773 0.78716 0.0
O277 O 0.64074 0.02762 0.78814 0.0
O278 O 0.68431 1.01377 0.8657 0.0
O279 O 0.65554 1.01546 0.84091 0.0
Co280 Co 0.77771 0.66387 0.02625 0.0
O281 O 0.80912 0.66961 0.03062 0.0
O282 O 0.7883 0.6355 0.0353 0.0
C283 C 0.77388 0.68029 0.98932 0.0
O284 O 0.74514 0.64951 0.02301 0.0
Co285 Co 0.75015 0.70309 0.02266 0.0
O286 O 0.72439 0.67635 0.01448 0.0
C287 C 0.77326 0.69651 0.07307 0.0
C288 C 0.80766 0.64747 0.03531 0.0
C289 C 0.7264 0.65507 0.01811 0.0
O290 O 0.77937 0.67758 0.06331 0.0
O291 O 0.76302 0.70947 0.05976 0.0
O292 O 0.776 0.6579 0.98899 0.0
O293 O 0.77438 0.69189 0.01152 0.0
Co294 Co 0.92498 0.56323 0.79968 0.0
O295 O 0.92866 0.60018 0.80336 0.0
O296 O 0.89808 0.57647 0.78885 0.0
C297 C 0.94462 0.56111 0.84104 0.0
O298 O 0.91055 0.52534 0.79553 0.0
Co299 Co 0.95897 0.53173 0.80169 0.0
O300 O 0.93592 0.50331 0.80298 0.0
C301 C 0.95145 0.55318 0.75439 0.0
C302 C 0.90812 0.59892 0.79559 0.0
C303 C 0.91608 0.50459 0.7987 0.0
O304 O 0.9348 0.56066 0.7625 0.0
O305 O 0.96381 0.543 0.76863 0.0
O306 O 0.92503 0.56496 0.83769 0.0
O307 O 0.95205 0.56018 0.82001 0.0
Co308 Co 0.75178 0.3872 0.50961 0.0
O309 O 0.73039 0.38517 0.53139 0.0
O310 O 0.75615 0.41735 0.53172 0.0
C311 C 0.72989 0.37018 0.47255 0.0
O312 O 0.776 0.39726 0.49048 0.0
Co313 Co 0.76298 0.34276 0.4792 0.0
O314 O 0.78217 0.3667 0.46414 0.0
C315 C 0.7806 0.35636 0.53416 0.0
C316 C 0.73977 0.40739 0.54113 0.0
C317 C 0.78597 0.38906 0.47349 0.0
O318 O 0.77208 0.37518 0.53509 0.0
O319 O 0.77754 0.34055 0.51424 0.0
O320 O 0.73118 0.39289 0.48127 0.0
O321 O 0.73986 0.35823 0.48768 0.0
Co322 Co 0.66227 0.5683 0.33905 0.0
O323 O 0.65536 0.53319 0.33233 0.0
O324 O 0.68503 0.55668 0.32546 0.0
C325 C 0.65298 0.57098 0.3781 0.0
O326 O 0.67692 0.60398 0.34447 0.0
Co327 Co 0.6306 0.60103 0.34652 0.0
O328 O 0.65521 0.62925 0.35321 0.0
C329 C 0.63016 0.57705 0.29485 0.0
C330 C 0.67388 0.535 0.32479 0.0
C331 C 0.67364 0.62544 0.35009 0.0
O332 O 0.64736 0.56983 0.30351 0.0
O333 O 0.62004 0.58854 0.30926 0.0
O334 O 0.67176 0.56694 0.37482 0.0
O335 O 0.63988 0.57236 0.35764 0.0
Tb336 Tb 0.04739 0.02389 0.04654 0.0
Tb337 Tb 0.08746 0.0538 0.07867 0.0
C338 C 1.00811 1.00841 0.0288 0.0
C339 C 0.99081 0.0215 0.03191 0.0
C340 C 0.99445 0.04046 0.0523 0.0
C341 C 0.97961 0.0552 0.05432 0.0
C342 C 0.96072 0.05114 0.03612 0.0
C343 C 0.95649 0.0316 0.0162 0.0
C344 C 0.97164 1.0169 0.01397 0.0
C345 C 0.08126 0.02895 0.0237 0.0
C346 C 0.05714 0.08241 0.05011 0.0
C347 C 0.1268 0.06842 0.09684 0.0
C348 C 0.14312 0.05504 0.10666 0.0
C349 C 0.1626 0.05767 0.09745 0.0
C350 C 0.1759 0.04102 0.10121 0.0
C351 C 0.16989 0.0214 0.11421 0.0
C352 C 0.15122 0.01996 0.12516 0.0
C353 C 0.13795 0.03667 0.12146 0.0
C354 C 0.05345 0.05082 0.10108 0.0
C355 C 0.07703 0.99526 0.07668 0.0
O356 O 1.01773 1.00291 0.04994 0.0
O357 O 1.02193 0.01793 0.01532 0.0
O358 O 0.07616 0.04462 0.03884 0.0
O359 O 0.06622 1.00944 0.01981 0.0
O360 O 0.0426 0.06168 0.04566 0.0
O361 O 0.07721 0.08348 0.06139 0.0
O362 O 0.11926 0.06234 0.07242 0.0
O363 O 0.11149 0.07044 0.11007 0.0
O364 O 0.05805 0.03408 0.08659 0.0
O365 O 0.06907 0.06978 0.10451 0.0
O366 O 0.09061 1.01646 0.08452 0.0
O367 O 0.05843 0.99351 0.06142 0.0
H368 H 1.0091 0.04432 0.06641 0.0
H369 H 0.98302 0.07003 0.06996 0.0
H370 H 0.9419 0.02827 1.00203 0.0
H371 H 0.96868 1.00241 0.99805 0.0
H372 H 0.16679 0.07159 0.08583 0.0
H373 H 0.19005 0.04255 0.09228 0.0
H374 H 0.14632 1.00524 0.13556 0.0
H375 H 0.12303 0.03433 0.12888 0.0
Tb376 Tb 0.3082 0.77694 0.28679 0.0
Tb377 Tb 0.30074 0.79672 0.34163 0.0
C378 C 0.30429 0.7672 0.23968 0.0
C379 C 0.31623 0.7785 0.22135 0.0
C380 C 0.31722 0.80307 0.21916 0.0
C381 C 0.32697 0.81321 0.20042 0.0
C382 C 0.33624 0.79914 0.18358 0.0
C383 C 0.33674 0.77505 0.18717 0.0
C384 C 0.32662 0.76476 0.20577 0.0
C385 C 0.34291 0.77824 0.32206 0.0
C386 C 0.32657 0.83399 0.30931 0.0
C387 C 0.30395 0.80862 0.38836 0.0
C388 C 0.2894 0.80273 0.40639 0.0
C389 C 0.27865 0.77877 0.40592 0.0
C390 C 0.2676 0.77268 0.42538 0.0
C391 C 0.26687 0.7905 0.44564 0.0
C392 C 0.27532 0.81495 0.44416 0.0
C393 C 0.28676 0.82097 0.42485 0.0
C394 C 0.2666 0.79596 0.30571 0.0
C395 C 0.28262 0.73945 0.31918 0.0
O396 O 0.29263 0.78037 0.25089 0.0
O397 O 0.31498 0.75582 0.25543 0.0
O398 O 0.3253 0.78435 0.32486 0.0
O399 O 0.34111 0.77099 0.29794 0.0
O400 O 0.32226 0.81645 0.28916 0.0
O401 O 0.32088 0.82959 0.33155 0.0
O402 O 0.31179 0.79061 0.37836 0.0
O403 O 0.29768 0.82216 0.3717 0.0
O404 O 0.28439 0.79018 0.30378 0.0
O405 O 0.26741 0.80214 0.32984 0.0
O406 O 0.28649 0.75724 0.33907 0.0
O407 O 0.28888 0.74353 0.29709 0.0
H408 H 0.30974 0.81435 0.23125 0.0
H409 H 0.32589 0.83168 0.19823 0.0
H410 H 0.34413 0.76381 0.17496 0.0
H411 H 0.32643 0.7459 0.20752 0.0
H412 H 0.27986 0.76442 0.39138 0.0
H413 H 0.26142 0.75363 0.42551 0.0
H414 H 0.27446 0.82929 0.45889 0.0
H415 H 0.2944 0.83971 0.42502 0.0
Tb416 Tb 0.57441 0.0381 0.5486 0.0
Tb417 Tb 0.52896 0.03266 0.56614 0.0
C418 C 0.61389 0.03834 0.54814 0.0
C419 C 0.63147 0.02518 0.55602 0.0
C420 C 0.6484 0.03581 0.57639 0.0
C421 C 0.66643 0.0252 0.58193 0.0
C422 C 0.66816 1.00365 0.56717 0.0
C423 C 0.65094 0.99275 0.54714 0.0
C424 C 0.63294 1.00336 0.54162 0.0
C425 C 0.54312 0.04459 0.51015 0.0
C426 C 0.54355 0.98624 0.54253 0.0
C427 C 0.48971 0.03166 0.56857 0.0
C428 C 0.47158 0.04423 0.56304 0.0
C429 C 0.47286 0.06413 0.54965 0.0
C430 C 0.45531 0.07583 0.54566 0.0
C431 C 0.43616 0.06787 0.55503 0.0
C432 C 0.43522 0.04798 0.56854 0.0
C433 C 0.45264 0.03635 0.57241 0.0
C434 C 0.56002 0.02465 0.60386 0.0
C435 C 0.5596 0.08494 0.57189 0.0
O436 O 0.60703 0.0512 0.56591 0.0
O437 O 0.59811 0.0272 0.52966 0.0
O438 O 0.54179 0.04044 0.53275 0.0
O439 O 0.56346 0.04575 0.50939 0.0
O440 O 0.56365 0.99889 0.5463 0.0
O441 O 0.52696 0.99619 0.54648 0.0
O442 O 0.49619 0.02042 0.54936 0.0
O443 O 0.50583 0.04283 0.58656 0.0
O444 O 0.56152 0.03019 0.58181 0.0
O445 O 0.53957 0.02254 0.60428 0.0
O446 O 0.5398 0.072 0.57022 0.0
O447 O 0.5759 0.07526 0.56604 0.0
H448 H 0.64798 0.05274 0.58774 0.0
H449 H 0.67909 0.03404 0.59773 0.0
H450 H 0.65166 0.97639 0.53503 0.0
H451 H 0.62045 0.99473 0.52554 0.0
H452 H 0.4874 0.07066 0.54239 0.0
H453 H 0.45667 0.09093 0.53502 0.0
H454 H 0.42112 0.04155 0.57661 0.0
H455 H 0.45137 0.02121 0.58305 0.0
Tb456 Tb 0.28406 0.28983 0.80833 0.0
Tb457 Tb 0.32965 0.27739 0.81594 0.0
C458 C 0.24521 0.29291 0.80932 0.0
C459 C 0.22744 0.28941 0.82429 0.0
C460 C 0.22695 0.27443 0.84336 0.0
C461 C 0.2089 0.27024 0.85559 0.0
C462 C 0.19088 0.28073 0.8488 0.0
C463 C 0.19172 0.29593 0.82991 0.0
C464 C 0.20973 0.30021 0.8179 0.0
C465 C 0.3155 0.32179 0.7968 0.0
C466 C 0.31382 0.30054 0.86323 0.0
C467 C 0.36858 0.27452 0.81501 0.0
C468 C 0.38616 0.27728 0.79969 0.0
C469 C 0.38232 0.27268 0.77294 0.0
C470 C 0.39971 0.27465 0.75952 0.0
C471 C 0.42133 0.28119 0.77253 0.0
C472 C 0.42489 0.28616 0.79931 0.0
C473 C 0.4076 0.28421 0.81261 0.0
C474 C 0.29828 0.24587 0.82811 0.0
C475 C 0.2999 0.26686 0.76075 0.0
O476 O 0.25114 0.27349 0.79971 0.0
O477 O 0.26168 0.31101 0.8176 0.0
O478 O 0.31673 0.30918 0.81441 0.0
O479 O 0.29542 0.3184 0.78599 0.0
O480 O 0.29389 0.29415 0.84992 0.0
O481 O 0.331 0.2983 0.85293 0.0
O482 O 0.36258 0.29423 0.82367 0.0
O483 O 0.35218 0.25613 0.80781 0.0
O484 O 0.297 0.25807 0.81013 0.0
O485 O 0.31835 0.24956 0.83911 0.0
O486 O 0.31976 0.27199 0.7743 0.0
O487 O 0.28286 0.27015 0.77087 0.0
H488 H 0.24033 0.2657 0.84853 0.0
H489 H 0.20884 0.25832 0.86991 0.0
H490 H 0.17843 0.30467 0.8244 0.0
H491 H 0.20965 0.31176 0.80321 0.0
H492 H 0.36594 0.26735 0.76246 0.0
H493 H 0.39618 0.27054 0.73896 0.0
H494 H 0.44113 0.29177 0.81015 0.0
H495 H 0.41104 0.28798 0.83321 0.0
Tb496 Tb 0.05459 0.06241 0.55734 0.0
Tb497 Tb 0.06116 1.00933 0.5518 0.0
C498 C 0.06084 0.10542 0.54983 0.0
C499 C 0.05008 0.11703 0.53025 0.0
C500 C 0.06229 0.13614 0.52116 0.0
C501 C 0.05369 0.14447 0.49931 0.0
C502 C 0.03272 0.13379 0.48624 0.0
C503 C 1.02024 0.11507 0.49577 0.0
C504 C 0.02896 0.10655 0.51756 0.0
C505 C 1.01865 0.03214 0.5621 0.0
C506 C 0.0368 0.02594 0.50457 0.0
C507 C 0.06416 0.96777 0.56064 0.0
C508 C 0.07144 0.95937 0.58476 0.0
C509 C 0.0568 0.94335 0.59494 0.0
C510 C 0.06312 0.93618 0.61839 0.0
C511 C 0.08426 0.94477 0.63199 0.0
C512 C 0.0989 0.96092 0.62191 0.0
C513 C 0.09252 0.96829 0.59857 0.0
C514 C 0.09178 0.0422 0.5402 0.0
C515 C 0.0734 0.04375 0.6065 0.0
O516 O 0.07116 0.08954 0.54054 0.0
O517 O 0.04959 0.09759 0.56683 0.0
O518 O 0.03635 0.02767 0.55757 0.0
O519 O 1.02098 0.05558 0.56465 0.0
O520 O 0.04284 0.04854 0.51675 0.0
O521 O 0.0405 1.00689 0.51529 0.0
O522 O 0.046 0.97542 0.55908 0.0
O523 O 0.0789 0.98189 0.55168 0.0
O524 O 0.08132 0.04473 0.55809 0.0
O525 O 0.0856 0.02009 0.52848 0.0
O526 O 0.06932 0.02164 0.5932 0.0
O527 O 0.07066 0.06318 0.59601 0.0
H528 H 0.07874 0.14406 0.53048 0.0
H529 H 0.06344 0.15933 0.49264 0.0
H530 H 1.004 0.10671 0.48606 0.0
H531 H 1.01952 0.09131 0.524 0.0
H532 H 0.04046 0.93636 0.58475 0.0
H533 H 0.05164 0.92329 0.6255 0.0
H534 H 0.11529 0.96771 0.63202 0.0
H535 H 0.10413 0.98097 0.59142 0.0
Tb536 Tb 0.30272 0.76035 0.80337 0.0
Tb537 Tb 0.30387 0.81097 0.79116 0.0
C538 C 0.30172 0.71559 0.79968 0.0
C539 C 0.31716 0.69998 0.79557 0.0
C540 C 0.3393 0.70979 0.79816 0.0
C541 C 0.35367 0.69473 0.79332 0.0
C542 C 0.34613 0.66959 0.78591 0.0
C543 C 0.32391 0.65991 0.7836 0.0
C544 C 0.30958 0.675 0.78832 0.0
C545 C 0.29266 0.79048 0.83895 0.0
C546 C 0.34559 0.7985 0.82204 0.0
C547 C 0.3056 0.85544 0.79036 0.0
C548 C 0.29045 0.8719 0.79117 0.0
C549 C 0.2737 0.86847 0.8053 0.0
C550 C 0.25995 0.88489 0.80633 0.0
C551 C 0.26248 0.90477 0.79287 0.0
C552 C 0.27877 0.90746 0.77793 0.0
C553 C 0.29268 0.89128 0.77724 0.0
C554 C 0.31397 0.78029 0.75607 0.0
C555 C 0.26001 0.77413 0.7757 0.0
O556 O 0.2956 0.7264 0.78042 0.0
O557 O 0.30598 0.73011 0.82142 0.0
O558 O 0.28829 0.78974 0.81538 0.0
O559 O 0.30024 0.77142 0.84321 0.0
O560 O 0.33716 0.77527 0.81402 0.0
O561 O 0.33451 0.81548 0.81746 0.0
O562 O 0.31079 0.84626 0.81112 0.0
O563 O 0.30193 0.83941 0.76985 0.0
O564 O 0.319 0.78184 0.77969 0.0
O565 O 0.30427 0.79772 0.75136 0.0
O566 O 0.26925 0.79721 0.78343 0.0
O567 O 0.27091 0.7567 0.77902 0.0
H568 H 0.34544 0.7291 0.80368 0.0
H569 H 0.37061 0.70284 0.79505 0.0
H570 H 0.31758 0.64061 0.77842 0.0
H571 H 0.29254 0.66713 0.78628 0.0
H572 H 0.27136 0.85326 0.81569 0.0
H573 H 0.24769 0.88229 0.81814 0.0
H574 H 0.28085 0.92215 0.76677 0.0
H575 H 0.30528 0.89395 0.76587 0.0
Tb576 Tb 0.53235 0.03841 0.03508 0.0
Tb577 Tb 0.57106 0.03878 0.07465 0.0
C578 C 0.49765 0.02383 1.0041 0.0
C579 C 0.47417 0.02139 0.99859 0.0
C580 C 0.46136 1.01678 0.01713 0.0
C581 C 0.43899 1.00899 1.00992 0.0
C582 C 0.42925 1.00558 0.9841 0.0
C583 C 0.44203 1.01194 0.96594 0.0
C584 C 0.46432 0.01981 0.97317 0.0
C585 C 0.55318 0.082 0.05714 0.0
C586 C 0.52627 0.03824 0.09556 0.0
C587 C 0.60672 0.05206 0.10415 0.0
C588 C 0.6281 0.06485 0.10132 0.0
C589 C 0.63 0.08271 0.08537 0.0
C590 C 0.65014 0.09667 0.0847 0.0
C591 C 0.66888 0.09274 0.09958 0.0
C592 C 0.66697 0.07399 0.11462 0.0
C593 C 0.64669 0.06025 0.11559 0.0
C594 C 0.5491 0.99589 0.05256 0.0
C595 C 0.57769 0.03942 0.01499 0.0
O596 O 0.50526 1.011 0.02077 0.0
O597 O 0.5099 0.04532 1.0054 0.0
O598 O 0.55018 0.06292 0.06693 0.0
O599 O 0.54291 0.07709 0.03376 0.0
O600 O 0.51705 0.03709 0.07098 0.0
O601 O 0.54747 0.03894 0.10122 0.0
O602 O 0.59176 0.06496 0.10234 0.0
O603 O 0.59994 0.03007 0.09165 0.0
O604 O 0.55321 1.01482 0.04284 0.0
O605 O 0.55905 1.00011 0.07612 0.0
O606 O 0.58673 0.04455 0.03981 0.0
O607 O 0.55613 0.03454 1.00888 0.0
H608 H 0.46871 0.01783 0.03686 0.0
H609 H 0.42953 1.00408 0.0243 0.0
H610 H 0.43491 1.00975 0.94599 0.0
H611 H 0.47402 0.02325 0.95861 0.0
H612 H 0.61582 0.08646 0.07404 0.0
H613 H 0.65082 0.11113 0.07319 0.0
H614 H 0.68109 0.07009 0.1259 0.0
H615 H 0.64549 0.04637 0.12784 0.0
Tb616 Tb 0.28095 0.26763 0.29545 0.0
Tb617 Tb 0.32418 0.30303 0.31955 0.0
C618 C 0.24494 0.24095 0.29395 0.0
C619 C 0.22289 0.24494 0.2881 0.0
C620 C 0.20602 0.22946 0.29552 0.0
C621 C 0.18628 0.23642 0.29633 0.0
C622 C 0.18334 0.2591 0.29003 0.0
C623 C 0.19972 0.27363 0.28062 0.0
C624 C 0.21936 0.26657 0.27963 0.0
C625 C 0.2961 0.29354 0.26141 0.0
C626 C 0.28099 0.32607 0.31237 0.0
C627 C 0.36263 0.326 0.32674 0.0
C628 C 0.38319 0.31843 0.32463 0.0
C629 C 0.39907 0.33313 0.31474 0.0
C630 C 0.4174 0.32475 0.30952 0.0
C631 C 0.4199 0.3014 0.31378 0.0
C632 C 0.40446 0.2871 0.32464 0.0
C633 C 0.38633 0.29563 0.33023 0.0
C634 C 0.30185 0.28151 0.35099 0.0
C635 C 0.32454 0.24478 0.30043 0.0
O636 O 0.25637 0.25468 0.31471 0.0
O637 O 0.25568 0.23998 0.27499 0.0
O638 O 0.30421 0.29304 0.28406 0.0
O639 O 0.27807 0.27762 0.25658 0.0
O640 O 0.26989 0.30288 0.30661 0.0
O641 O 0.30273 0.33043 0.3166 0.0
O642 O 0.34917 0.32347 0.30522 0.0
O643 O 0.35293 0.31868 0.34506 0.0
O644 O 0.30418 0.27265 0.32928 0.0
O645 O 0.3132 0.30359 0.35643 0.0
O646 O 0.33546 0.26761 0.30978 0.0
O647 O 0.30291 0.24066 0.29358 0.0
H648 H 0.20859 0.21283 0.30237 0.0
H649 H 0.17403 0.22497 0.30388 0.0
H650 H 0.19782 0.29111 0.27549 0.0
H651 H 0.23228 0.27879 0.27393 0.0
H652 H 0.39693 0.35075 0.31024 0.0
H653 H 0.42909 0.33603 0.30103 0.0
H654 H 0.40623 0.26914 0.32828 0.0
H655 H 0.37446 0.28409 0.33819 0.0
Tb656 Tb 0.54951 0.56302 0.05652 0.0
Tb657 Tb 0.55777 0.51414 0.05336 0.0
C658 C 0.55166 0.60756 0.05834 0.0
C659 C 0.54583 0.62012 0.03685 0.0
C660 C 0.55816 0.64269 0.035 0.0
C661 C 0.55471 0.65277 0.01262 0.0
C662 C 0.5391 0.64017 0.99162 0.0
C663 C 0.5266 0.61768 0.9938 0.0
C664 C 0.52984 0.60786 0.01625 0.0
C665 C 0.51515 0.52994 0.05853 0.0
C666 C 0.53552 0.53124 1.00357 0.0
C667 C 0.55794 0.46995 0.0506 0.0
C668 C 0.5677 0.45712 0.07007 0.0
C669 C 0.55425 0.43999 0.08046 0.0
C670 C 0.56246 0.43086 0.10199 0.0
C671 C 0.58431 0.43853 0.11334 0.0
C672 C 0.59803 0.45481 0.10231 0.0
C673 C 0.58976 0.46422 0.08094 0.0
C674 C 0.59162 0.54785 0.05049 0.0
C675 C 0.57043 0.54538 0.10693 0.0
O676 O 0.5683 0.5975 0.0568 0.0
O677 O 0.53567 0.59306 0.06483 0.0
O678 O 0.53432 0.53051 0.06924 0.0
O679 O 0.51482 0.54896 0.04745 0.0
O680 O 0.54133 0.55368 0.01553 0.0
O681 O 0.53875 0.51269 0.01534 0.0
O682 O 0.54179 0.47922 0.05652 0.0
O683 O 0.57126 0.48496 0.04072 0.0
O684 O 0.57232 0.54639 0.03996 0.0
O685 O 0.59247 0.52951 0.06254 0.0
O686 O 0.56641 0.52312 0.0945 0.0
O687 O 0.56638 0.56378 0.09535 0.0
H688 H 0.57074 0.65224 0.05061 0.0
H689 H 0.56426 0.67043 0.01183 0.0
H690 H 0.51458 0.6074 0.97801 0.0
H691 H 0.52023 0.59028 0.01724 0.0
H692 H 0.5372 0.43438 0.0725 0.0
H693 H 0.55168 0.41787 0.10988 0.0
H694 H 0.61497 0.46081 0.11067 0.0
H695 H 0.60052 0.47762 0.07352 0.0
Tb696 Tb 0.80875 0.26872 0.3101 0.0
Tb697 Tb 0.81113 0.32227 0.30666 0.0
C698 C 0.80758 0.22409 0.2996 0.0
C699 C 0.82276 0.2082 0.29522 0.0
C700 C 0.84513 0.21725 0.29961 0.0
C701 C 0.8592 0.20174 0.2949 0.0
C702 C 0.85113 0.17688 0.2859 0.0
C703 C 0.82866 0.16801 0.28176 0.0
C704 C 0.81465 0.18354 0.28629 0.0
C705 C 0.79508 0.29349 0.34678 0.0
C706 C 0.85081 0.30558 0.3375 0.0
C707 C 0.8111 0.3667 0.31425 0.0
C708 C 0.79386 0.38087 0.31272 0.0
C709 C 0.78581 0.38823 0.33462 0.0
C710 C 0.76958 0.40169 0.33317 0.0
C711 C 0.76117 0.4082 0.30983 0.0
C712 C 0.76908 0.40061 0.28793 0.0
C713 C 0.78528 0.38718 0.28936 0.0
C714 C 0.82495 0.29769 0.26996 0.0
C715 C 0.76843 0.28601 0.2805 0.0
O716 O 0.80414 0.23815 0.28239 0.0
O717 O 0.80982 0.23537 0.32283 0.0
O718 O 0.79307 0.29603 0.32388 0.0
O719 O 0.80196 0.27367 0.34921 0.0
O720 O 0.84268 0.28308 0.32598 0.0
O721 O 0.84012 0.32324 0.3347 0.0
O722 O 0.81217 0.3533 0.33245 0.0
O723 O 0.81393 0.35544 0.29272 0.0
O724 O 0.82736 0.29511 0.29296 0.0
O725 O 0.81584 0.31598 0.2672 0.0
O726 O 0.77711 0.30851 0.29148 0.0
O727 O 0.77888 0.26809 0.28313 0.0
H728 H 0.8517 0.23627 0.30662 0.0
H729 H 0.87637 0.20928 0.29809 0.0
H730 H 0.82184 0.14894 0.27538 0.0
H731 H 0.79742 0.17623 0.28292 0.0
H732 H 0.79217 0.38378 0.35293 0.0
H733 H 0.76405 0.40756 0.35046 0.0
H734 H 0.76278 0.40512 0.26962 0.0
H735 H 0.7911 0.38184 0.27211 0.0
Tb736 Tb 0.03228 0.53491 0.53367 0.0
Tb737 Tb 0.07245 0.54475 0.57451 0.0
C738 C 0.99897 0.51304 0.50307 0.0
C739 C 0.97533 0.5078 0.49739 0.0
C740 C 0.96281 0.50622 0.51661 0.0
C741 C 0.94044 0.49782 0.51019 0.0
C742 C 0.9304 0.49079 0.48452 0.0
C743 C 0.94296 0.49354 0.46541 0.0
C744 C 0.96523 0.50199 0.47182 0.0
C745 C 0.04722 0.58078 0.55258 0.0
C746 C 0.02637 0.53904 0.59432 0.0
C747 C 0.10539 0.56705 0.60534 0.0
C748 C 0.12893 0.5738 0.61006 0.0
C749 C 0.14082 0.57191 0.59036 0.0
C750 C 0.16302 0.58155 0.59514 0.0
C751 C 0.17343 0.59331 0.61959 0.0
C752 C 0.16153 0.59416 0.63941 0.0
C753 C 0.13945 0.58443 0.63466 0.0
C754 C 0.05696 0.49896 0.55528 0.0
C755 C 0.07881 0.54017 0.51418 0.0
O756 O 1.00815 0.50365 0.52199 0.0
O757 O 1.00902 0.53506 0.50172 0.0
O758 O 0.04714 0.56267 0.56387 0.0
O759 O 0.0366 0.57344 0.52953 0.0
O760 O 1.01695 0.53312 0.56953 0.0
O761 O 0.04793 0.54515 0.60015 0.0
O762 O 0.09521 0.57688 0.5875 0.0
O763 O 0.09661 0.54426 0.60538 0.0
O764 O 0.05741 0.51728 0.5444 0.0
O765 O 0.06787 0.50587 0.57828 0.0
O766 O 0.08808 0.54631 0.53897 0.0
O767 O 0.05719 0.53401 0.50824 0.0
H768 H 0.97038 0.51061 0.53648 0.0
H769 H 0.93116 0.49572 0.52532 0.0
H770 H 0.93563 0.48858 0.4455 0.0
H771 H 0.9747 0.50315 0.45677 0.0
H772 H 0.13284 0.5638 0.57122 0.0
H773 H 0.17183 0.58082 0.57949 0.0
H774 H 0.16922 0.60286 0.65846 0.0
H775 H 0.13041 0.58599 0.65004 0.0
Tb776 Tb 0.78436 0.79349 0.30463 0.0
Tb777 Tb 0.82967 0.78059 0.31269 0.0
C778 C 0.74562 0.7971 0.30564 0.0
C779 C 0.72789 0.79383 0.32067 0.0
C780 C 0.72701 0.77836 0.3393 0.0
C781 C 0.7089 0.77427 0.35142 0.0
C782 C 0.69119 0.78533 0.34496 0.0
C783 C 0.69245 0.80108 0.3266 0.0
C784 C 0.71053 0.80527 0.3147 0.0
C785 C 0.81617 0.825 0.29308 0.0
C786 C 0.81413 0.80488 0.35949 0.0
C787 C 0.86841 0.77737 0.31136 0.0
C788 C 0.88481 0.77743 0.29443 0.0
C789 C 0.88941 0.79588 0.27948 0.0
C790 C 0.90693 0.79714 0.2664 0.0
C791 C 0.92038 0.7801 0.26806 0.0
C792 C 0.91523 0.76125 0.2824 0.0
C793 C 0.89774 0.75998 0.29538 0.0
C794 C 0.79821 0.74971 0.32539 0.0
C795 C 0.79982 0.7692 0.25744 0.0
O796 O 0.75136 0.77755 0.29602 0.0
O797 O 0.76223 0.81506 0.31383 0.0
O798 O 0.81708 0.81252 0.31081 0.0
O799 O 0.79615 0.82172 0.28203 0.0
O800 O 0.79419 0.79833 0.34623 0.0
O801 O 0.83128 0.80224 0.3493 0.0
O802 O 0.86221 0.79771 0.31715 0.0
O803 O 0.85242 0.75853 0.30794 0.0
O804 O 0.79692 0.7615 0.30702 0.0
O805 O 0.81827 0.75355 0.33652 0.0
O806 O 0.81961 0.77375 0.27108 0.0
O807 O 0.78292 0.77342 0.26734 0.0
H808 H 0.74012 0.76916 0.34415 0.0
H809 H 0.70852 0.76193 0.36533 0.0
H810 H 0.67941 0.81027 0.32138 0.0
H811 H 0.71075 0.8172 0.30037 0.0
H812 H 0.87987 0.80974 0.27844 0.0
H813 H 0.91039 0.81202 0.25575 0.0
H814 H 0.92486 0.74751 0.28382 0.0
H815 H 0.89467 0.74564 0.30683 0.0
Tb816 Tb 0.81092 0.27582 0.79093 0.0
Tb817 Tb 0.79647 0.29704 0.83219 0.0
C818 C 0.82194 0.26611 0.74869 0.0
C819 C 0.82894 0.28129 0.73008 0.0
C820 C 0.82064 0.30211 0.72676 0.0
C821 C 0.82624 0.31565 0.70794 0.0
C822 C 0.8404 0.30876 0.69221 0.0
C823 C 0.84981 0.28878 0.69678 0.0
C824 C 0.84403 0.27508 0.71556 0.0
C825 C 0.8352 0.27165 0.83412 0.0
C826 C 0.82656 0.33447 0.80843 0.0
C827 C 0.7841 0.30643 0.87367 0.0
C828 C 0.7726 0.29043 0.88891 0.0
C829 C 0.77722 0.26744 0.89068 0.0
C830 C 0.76672 0.25235 0.90546 0.0
C831 C 0.75153 0.26002 0.91917 0.0
C832 C 0.746 0.28253 0.91622 0.0
C833 C 0.75645 0.29761 0.90109 0.0
C834 C 0.77316 0.30151 0.78853 0.0
C835 C 0.78095 0.23821 0.81504 0.0
O836 O 0.80187 0.26459 0.75166 0.0
O837 O 0.83518 0.2696 0.77034 0.0
O838 O 0.82807 0.29035 0.82912 0.0
O839 O 0.82789 0.25464 0.81493 0.0
O840 O 0.82337 0.31564 0.78994 0.0
O841 O 0.81871 0.3309 0.82938 0.0
O842 O 0.80379 0.30398 0.87203 0.0
O843 O 0.77299 0.30778 0.85168 0.0
O844 O 0.77951 0.28258 0.79409 0.0
O845 O 0.78045 0.31867 0.80757 0.0
O846 O 0.78288 0.25746 0.83262 0.0
O847 O 0.78998 0.2413 0.79478 0.0
H848 H 0.80919 0.30742 0.73807 0.0
H849 H 0.81838 0.33064 0.70481 0.0
H850 H 0.86102 0.28323 0.68527 0.0
H851 H 0.85091 0.25931 0.7183 0.0
H852 H 0.78955 0.26138 0.8814 0.0
H853 H 0.77184 0.23545 0.90762 0.0
H854 H 0.7344 0.28894 0.92657 0.0
H855 H 0.7524 0.31515 0.8995 0.0
Tb856 Tb 0.78343 0.7696 0.79325 0.0
Tb857 Tb 0.82237 0.80272 0.8202 0.0
C858 C 0.74526 0.74605 0.78264 0.0
C859 C 0.72525 0.75383 0.78679 0.0
C860 C 0.72497 0.76868 0.80947 0.0
C861 C 0.70667 0.77759 0.81293 0.0
C862 C 0.68824 0.77209 0.79375 0.0
C863 C 0.68837 0.75695 0.77113 0.0
C864 C 0.70682 0.74794 0.76765 0.0
C865 C 0.80669 0.79127 0.76292 0.0
C866 C 0.78058 0.82672 0.8134 0.0
C867 C 0.86056 0.82656 0.8302 0.0
C868 C 0.88125 0.81977 0.82715 0.0
C869 C 0.89438 0.83298 0.8128 0.0
C870 C 0.91132 0.82397 0.80441 0.0
C871 C 0.91556 0.80168 0.81042 0.0
C872 C 0.90363 0.78948 0.82661 0.0
C873 C 0.88643 0.79834 0.83476 0.0
C874 C 0.79893 0.78043 0.85019 0.0
C875 C 0.82515 0.74551 0.80038 0.0
O876 O 0.75863 0.74508 0.80331 0.0
O877 O 0.75514 0.75646 0.76598 0.0
O878 O 0.80308 0.80077 0.78384 0.0
O879 O 0.79667 0.76869 0.75822 0.0
O880 O 0.77032 0.80357 0.80489 0.0
O881 O 0.8021 0.83111 0.81975 0.0
O882 O 0.8475 0.82557 0.80872 0.0
O883 O 0.85047 0.81733 0.84738 0.0
O884 O 0.8028 0.77154 0.82924 0.0
O885 O 0.80919 0.80293 0.85562 0.0
O886 O 0.83543 0.76856 0.80938 0.0
O887 O 0.80368 0.74122 0.79344 0.0
H888 H 0.73898 0.77366 0.82455 0.0
H889 H 0.70695 0.7887 0.83083 0.0
H890 H 0.67438 0.75242 0.75603 0.0
H891 H 0.70682 0.73669 0.74994 0.0
H892 H 0.89069 0.84953 0.80673 0.0
H893 H 0.92052 0.83389 0.79223 0.0
H894 H 0.90666 0.77229 0.83154 0.0
H895 H 0.87649 0.78772 0.84574 0.0
Tb896 Tb 0.54535 0.52406 0.54254 0.0
Tb897 Tb 0.58298 0.55419 0.57929 0.0
C898 C 0.50717 0.50885 0.51986 0.0
C899 C 0.4902 0.52274 0.51487 0.0
C900 C 0.49117 0.54423 0.5312 0.0
C901 C 0.47621 0.55862 0.52603 0.0
C902 C 0.45965 0.55159 0.50474 0.0
C903 C 0.45822 0.52978 0.48862 0.0
C904 C 0.47365 0.51554 0.49351 0.0
C905 C 0.58183 0.53037 0.5248 0.0
C906 C 0.55489 0.58311 0.54796 0.0
C907 C 0.62122 0.56816 0.60182 0.0
C908 C 0.63721 0.55278 0.60559 0.0
C909 C 0.636 0.53279 0.587 0.0
C910 C 0.64887 0.51603 0.59134 0.0
C911 C 0.66355 0.51903 0.61418 0.0
C912 C 0.66549 0.53945 0.63254 0.0
C913 C 0.65212 0.55612 0.62839 0.0
C914 C 0.5464 0.54823 0.59674 0.0
C915 C 0.57339 0.49522 0.5742 0.0
O916 O 0.51356 0.50773 0.54394 0.0
O917 O 0.52341 0.514 0.50795 0.0
O918 O 0.57523 0.54563 0.53894 0.0
O919 O 0.56708 0.51051 0.51934 0.0
O920 O 0.54143 0.56186 0.53964 0.0
O921 O 0.57341 0.58475 0.5634 0.0
O922 O 0.61483 0.57061 0.5781 0.0
O923 O 0.60501 0.56341 0.61388 0.0
O924 O 0.55304 0.53284 0.58281 0.0
O925 O 0.56136 0.56791 0.60257 0.0
O926 O 0.58692 0.51644 0.58218 0.0
O927 O 0.55487 0.49356 0.55877 0.0
H928 H 0.50347 0.54994 0.54812 0.0
H929 H 0.47729 0.57505 0.53909 0.0
H930 H 0.44533 0.52395 0.47228 0.0
H931 H 0.47269 0.49901 0.4807 0.0
H932 H 0.62473 0.52976 0.56917 0.0
H933 H 0.64746 0.50072 0.57667 0.0
H934 H 0.67697 0.54217 0.65015 0.0
H935 H 0.65316 0.57133 0.64303 0.0
Tb936 Tb 0.07422 0.5387 0.04775 0.0
Tb937 Tb 0.02901 0.53115 0.0655 0.0
C938 C 0.11397 0.5413 0.04706 0.0
C939 C 0.13231 0.52961 0.05503 0.0
C940 C 0.12929 0.50583 0.06081 0.0
C941 C 0.14709 0.49482 0.06642 0.0
C942 C 0.16832 0.50734 0.06637 0.0
C943 C 0.17112 0.53131 0.06093 0.0
C944 C 0.15339 0.54224 0.05538 0.0
C945 C 0.04268 0.54482 1.00956 0.0
C946 C 0.045 0.48557 0.04146 0.0
C947 C 0.98949 0.52908 0.06719 0.0
C948 C 0.97165 0.54224 0.06229 0.0
C949 C 0.97296 0.56193 0.04858 0.0
C950 C 0.95565 0.57404 0.04489 0.0
C951 C 0.93672 0.56678 0.05494 0.0
C952 C 0.93578 0.54716 0.06885 0.0
C953 C 0.95295 0.53509 0.07239 0.0
C954 C 0.06049 0.52408 0.10317 0.0
C955 C 0.05842 0.58432 0.07224 0.0
O956 O 0.1066 0.55341 0.0649 0.0
O957 O 0.09842 0.5288 0.02906 0.0
O958 O 0.04131 0.54003 0.03199 0.0
O959 O 0.06313 0.54695 1.00897 0.0
O960 O 0.06449 0.49932 0.0435 0.0
O961 O 0.02826 0.49429 0.04746 0.0
O962 O 0.99649 0.51928 0.04759 0.0
O963 O 1.00522 0.53905 0.0861 0.0
O964 O 0.06193 0.52977 0.0811 0.0
O965 O 0.03999 0.5214 0.1036 0.0
O966 O 0.03896 0.57072 0.07099 0.0
O967 O 0.07483 0.57539 0.06563 0.0
H968 H 0.11318 0.49567 0.06066 0.0
H969 H 0.14418 0.47649 0.07082 0.0
H970 H 0.18701 0.54152 0.06022 0.0
H971 H 0.15613 0.56053 0.05079 0.0
H972 H 0.98732 0.56795 0.04078 0.0
H973 H 0.95704 0.58891 0.03393 0.0
H974 H 0.92186 0.54126 0.07745 0.0
H975 H 0.95165 0.52014 0.08329 0.0
H976 H 1.01908 0.18899 0.95593 0.0
H977 H 0.07562 0.12999 0.06872 0.0
H978 H 0.03866 0.22673 0.03275 0.0
H979 H 0.02566 0.08569 1.01013 0.0
H980 H 0.06727 0.1663 0.05218 0.0
H981 H 0.02642 0.15151 0.97155 0.0
C982 C 0.02504 0.18948 0.97598 0.0
C983 C 0.02817 0.21113 0.99302 0.0
C984 C 0.05809 0.14864 0.04296 0.0
C985 C 0.03692 0.16844 0.01092 0.0
C986 C 0.06285 0.12786 0.0524 0.0
C987 C 0.05127 0.10466 0.04095 0.0
C988 C 0.04199 0.14637 0.0214 0.0
C989 C 0.03491 0.10318 0.01974 0.0
C990 C 0.02909 0.16806 0.9849 0.0
C991 C 0.03585 0.21053 0.01887 0.0
N992 N 0.03091 0.12368 0.01049 0.0
N993 N 0.04012 0.18975 0.02692 0.0
H994 H 0.13819 0.80336 0.23021 0.0
H995 H 0.26604 0.80631 0.25645 0.0
H996 H 0.17966 0.82094 0.17594 0.0
H997 H 0.22445 0.78887 0.31034 0.0
H998 H 0.23463 0.81052 0.22613 0.0
H999 H 0.16952 0.79782 0.25963 0.0
C1000 C 0.15385 0.80625 0.22448 0.0
C1001 C 0.15609 0.81271 0.20041 0.0
C1002 C 0.2323 0.80543 0.24445 0.0
C1003 C 0.19227 0.80608 0.23415 0.0
C1004 C 0.25024 0.80254 0.26159 0.0
C1005 C 0.24784 0.79637 0.28567 0.0
C1006 C 0.21175 0.80237 0.2515 0.0
C1007 C 0.22704 0.79331 0.29185 0.0
C1008 C 0.17179 0.80297 0.24131 0.0
C1009 C 0.17696 0.81601 0.19421 0.0
N1010 N 0.2099 0.7963 0.27498 0.0
N1011 N 0.1941 0.81263 0.21085 0.0
H1012 H 0.5442 0.83222 0.51574 0.0
H1013 H 0.50879 0.95845 0.50905 0.0
H1014 H 0.51655 0.85023 0.44395 0.0
H1015 H 0.56964 0.95437 0.55354 0.0
H1016 H 0.50418 0.91561 0.49059 0.0
H1017 H 0.54642 0.87409 0.53563 0.0
C1018 C 0.53837 0.84491 0.50424 0.0
C1019 C 0.53027 0.83781 0.47814 0.0
C1020 C 0.51843 0.92413 0.50455 0.0
C1021 C 0.53236 0.88543 0.50086 0.0
C1022 C 0.52101 0.94845 0.5152 0.0
C1023 C 0.53964 0.95995 0.53284 0.0
C1024 C 0.53427 0.91106 0.51217 0.0
C1025 C 0.55509 0.94621 0.53994 0.0
C1026 C 0.53974 0.86876 0.51557 0.0
C1027 C 0.52303 0.85503 0.4641 0.0
N1028 N 0.55198 0.92244 0.52975 0.0
N1029 N 0.52409 0.87802 0.47566 0.0
H1030 H 0.54931 0.28491 0.73369 0.0
H1031 H 0.42536 0.29708 0.72625 0.0
H1032 H 0.51238 0.30529 0.66868 0.0
H1033 H 0.46068 0.26877 0.7868 0.0
H1034 H 0.45679 0.30047 0.70494 0.0
H1035 H 0.51708 0.27942 0.75353 0.0
C1036 C 0.53442 0.28816 0.72351 0.0
C1037 C 0.53367 0.29557 0.6994 0.0
C1038 C 0.45764 0.29348 0.72288 0.0
C1039 C 0.49647 0.28946 0.72223 0.0
C1040 C 0.43959 0.2914 0.73505 0.0
C1041 C 0.44018 0.28275 0.7586 0.0
C1042 C 0.4766 0.2869 0.73422 0.0
C1043 C 0.45939 0.27601 0.76902 0.0
C1044 C 0.51596 0.28502 0.73488 0.0
C1045 C 0.5138 0.29951 0.68724 0.0
N1046 N 0.4767 0.27829 0.75687 0.0
N1047 N 0.4961 0.29651 0.69877 0.0
H1048 H 0.1077 0.82485 0.68561 0.0
H1049 H 0.06401 0.93924 0.67286 0.0
H1050 H 0.06836 0.8496 0.73721 0.0
H1051 H 0.12059 0.92681 0.64333 0.0
H1052 H 0.07073 0.91225 0.70404 0.0
H1053 H 0.11884 0.86624 0.67756 0.0
C1054 C 0.10184 0.83922 0.6957 0.0
C1055 C 0.08679 0.83398 0.7116 0.0
C1056 C 0.08209 0.916 0.6913 0.0
C1057 C 0.09875 0.88115 0.70189 0.0
C1058 C 0.07817 0.93129 0.67343 0.0
C1059 C 0.09141 0.9346 0.6551 0.0
C1060 C 0.09903 0.90354 0.69029 0.0
C1061 C 0.10981 0.92442 0.65693 0.0
C1062 C 0.10824 0.86289 0.69121 0.0
C1063 C 0.07984 0.85309 0.72457 0.0
N1064 N 0.11276 0.90878 0.67376 0.0
N1065 N 0.08535 0.87586 0.71881 0.0
H1066 H 0.4829 0.8107 0.85329 0.0
H1067 H 0.36622 0.84006 0.854 0.0
H1068 H 0.4678 0.85116 0.919 0.0
H1069 H 0.37725 0.77382 0.81495 0.0
H1070 H 0.405 0.85194 0.87176 0.0
H1071 H 0.44555 0.80574 0.83192 0.0
C1072 C 0.47186 0.81898 0.86304 0.0
C1073 C 0.47836 0.83107 0.8881 0.0
C1074 C 0.39883 0.83487 0.85923 0.0
C1075 C 0.43576 0.8254 0.86376 0.0
C1076 C 0.37682 0.82809 0.84915 0.0
C1077 C 0.36862 0.80585 0.83324 0.0
C1078 C 0.41262 0.81953 0.85277 0.0
C1079 C 0.38293 0.79097 0.82743 0.0
C1080 C 0.45055 0.81596 0.8509 0.0
C1081 C 0.46334 0.84141 0.89979 0.0
N1082 N 0.40429 0.79815 0.83711 0.0
N1083 N 0.44262 0.83822 0.88755 0.0
H1084 H 0.53988 0.22631 0.11107 0.0
H1085 H 0.56313 0.09282 0.10873 0.0
H1086 H 0.55918 0.19604 0.17882 0.0
H1087 H 0.54657 0.12454 0.04116 0.0
H1088 H 0.56018 0.12971 0.13478 0.0
H1089 H 0.53835 0.18751 0.08539 0.0
C1090 C 0.54331 0.21128 0.12059 0.0
C1091 C 0.54992 0.21445 0.14709 0.0
C1092 C 0.55732 0.12871 0.11428 0.0
C1093 C 0.54877 0.1702 0.11775 0.0
C1094 C 0.55929 0.10776 0.09937 0.0
C1095 C 0.55522 0.10569 0.07272 0.0
C1096 C 0.5512 0.14775 0.10248 0.0
C1097 C 0.54995 0.12546 0.06164 0.0
C1098 C 0.54264 0.18921 0.10588 0.0
C1099 C 0.55401 0.19437 0.15845 0.0
N1100 N 0.54799 0.14566 0.07659 0.0
N1101 N 0.55371 0.17315 0.14365 0.0
H1102 H 0.06193 0.28404 0.33193 0.0
H1103 H 0.18523 0.30366 0.31599 0.0
H1104 H 0.11506 0.32151 0.39088 0.0
H1105 H 0.14025 0.2372 0.282 0.0
H1106 H 0.15661 0.31785 0.33478 0.0
H1107 H 0.08807 0.27339 0.30555 0.0
C1108 C 0.07906 0.29018 0.33918 0.0
C1109 C 0.08645 0.3035 0.36361 0.0
C1110 C 0.15294 0.30032 0.32287 0.0
C1111 C 0.11606 0.29199 0.3336 0.0
C1112 C 0.16917 0.2923 0.31192 0.0
C1113 C 0.16508 0.26918 0.29745 0.0
C1114 C 0.13241 0.28525 0.31916 0.0
C1115 C 0.14405 0.25506 0.29321 0.0
C1116 C 0.09387 0.28407 0.32421 0.0
C1117 C 0.10874 0.31101 0.37223 0.0
N1118 N 0.12843 0.26329 0.30414 0.0
N1119 N 0.12277 0.30525 0.35718 0.0
H1120 H 1.02175 0.03197 0.24587 0.0
H1121 H 1.02003 1.01211 0.09964 0.0
H1122 H 0.96042 1.00235 0.19677 0.0
H1123 H 0.05498 0.07887 0.14632 0.0
H1124 H 0.99981 1.00314 0.13406 0.0
H1125 H 0.03693 0.04403 0.20905 0.0
C1126 C 1.01149 0.02799 0.22728 0.0
C1127 C 0.98981 1.01616 0.22432 0.0
C1128 C 1.01171 0.01989 0.1365 0.0
C1129 C 1.00722 0.02949 0.18207 0.0
C1130 C 0.02324 0.02501 0.11692 0.0
C1131 C 0.03924 0.04625 0.12011 0.0
C1132 C 1.01673 0.03576 0.15962 0.0
C1133 C 0.04283 0.06227 0.14301 0.0
C1134 C 1.02013 0.03498 0.20635 0.0
C1135 C 0.97719 1.01155 0.19982 0.0
N1136 N 0.03198 0.05649 0.16204 0.0
N1137 N 0.98618 0.01789 0.17947 0.0
H1138 H 0.32786 0.75208 0.57242 0.0
H1139 H 0.23845 0.75024 0.45434 0.0
H1140 H 0.2927 0.68793 0.52127 0.0
H1141 H 0.28569 0.81297 0.49413 0.0
H1142 H 0.24644 0.72889 0.49039 0.0
H1143 H 0.30174 0.77467 0.55488 0.0
C1144 C 0.31451 0.74266 0.55767 0.0
C1145 C 0.31278 0.71827 0.54774 0.0
C1146 C 0.2545 0.74762 0.49147 0.0
C1147 C 0.28285 0.74407 0.52758 0.0
C1148 C 0.25001 0.75985 0.47087 0.0
C1149 C 0.26261 0.78282 0.47027 0.0
C1150 C 0.27132 0.75876 0.51162 0.0
C1151 C 0.27617 0.79491 0.49297 0.0
C1152 C 0.29951 0.75554 0.5478 0.0
C1153 C 0.29492 0.7069 0.52899 0.0
N1154 N 0.2807 0.78244 0.51241 0.0
N1155 N 0.28084 0.72003 0.51913 0.0
H1156 H 0.66879 0.03403 0.73499 0.0
H1157 H 0.55118 1.00112 0.64345 0.0
H1158 H 0.6123 0.98863 0.75086 0.0
H1159 H 0.60638 0.03886 0.61714 0.0
H1160 H 0.57461 0.99623 0.68183 0.0
H1161 H 0.64864 0.03529 0.69206 0.0
C1162 C 0.6525 0.02343 0.72924 0.0
C1163 C 0.64281 1.01029 0.74686 0.0
C1164 C 0.58188 1.00549 0.66779 0.0
C1165 C 0.61875 1.01285 0.69728 0.0
C1166 C 0.56833 1.00831 0.64549 0.0
C1167 C 0.57638 0.02036 0.62627 0.0
C1168 C 0.60428 1.015 0.67206 0.0
C1169 C 0.59907 0.02922 0.63089 0.0
C1170 C 0.64077 0.02454 0.70465 0.0
C1171 C 0.62103 0.9983 0.73814 0.0
N1172 N 0.61202 0.02655 0.65316 0.0
N1173 N 0.61001 0.99996 0.71456 0.0
H1174 H 0.33981 0.41003 0.99576 0.0
H1175 H 0.28739 0.29186 0.89808 0.0
H1176 H 0.31429 0.34368 0.02242 0.0
H1177 H 0.34705 0.33662 0.88872 0.0
H1178 H 0.29192 0.31381 0.94142 0.0
H1179 H 0.33771 0.38671 0.95352 0.0
C1180 C 0.3338 0.39059 0.99271 0.0
C1181 C 0.32728 0.37872 0.01256 0.0
C1182 C 0.30405 0.31866 0.92987 0.0
C1183 C 0.32435 0.35222 0.96444 0.0
C1184 C 0.30147 0.30621 0.90521 0.0
C1185 C 0.31696 0.31234 0.88993 0.0
C1186 C 0.32185 0.33786 0.93894 0.0
C1187 C 0.33488 0.33116 0.90002 0.0
C1188 C 0.33268 0.37734 0.96872 0.0
C1189 C 0.31961 0.35349 1.00765 0.0
N1190 N 0.33669 0.34351 0.92378 0.0
N1191 N 0.31808 0.34111 0.98399 0.0
H1192 H 0.94901 0.03046 0.36649 0.0
H1193 H 0.0348 0.98856 0.46634 0.0
H1194 H 0.99694 0.99319 0.34214 0.0
H1195 H 1.01195 0.05464 0.48233 0.0
H1196 H 1.01565 0.98345 0.42216 0.0
H1197 H 0.96639 0.03262 0.41087 0.0
C1198 C 0.96302 0.02246 0.3705 0.0
C1199 C 0.97161 1.01172 0.35064 0.0
C1200 C 1.01484 0.99901 0.43543 0.0
C1201 C 0.99139 1.01392 0.40126 0.0
C1202 C 0.02567 1.00189 0.46061 0.0
C1203 C 0.02505 0.02212 0.47799 0.0
C1204 C 1.00288 1.01614 0.42782 0.0
C1205 C 1.01302 0.03889 0.46952 0.0
C1206 C 0.97299 0.02384 0.39578 0.0
C1207 C 0.98989 1.00176 0.35691 0.0
N1208 N 1.00229 0.03544 0.44511 0.0
N1209 N 0.99914 1.003 0.3817 0.0
H1210 H 0.3634 0.68653 0.6533 0.0
H1211 H 0.32297 0.79485 0.71185 0.0
H1212 H 0.39443 0.75963 0.64794 0.0
H1213 H 0.33237 0.74086 0.76026 0.0
H1214 H 0.34533 0.77829 0.68418 0.0
H1215 H 0.35025 0.70217 0.69109 0.0
C1216 C 0.36823 0.7057 0.66061 0.0
C1217 C 0.37959 0.72194 0.64704 0.0
C1218 C 0.34254 0.77013 0.70094 0.0
C1219 C 0.36408 0.73971 0.68952 0.0
C1220 C 0.3296 0.77935 0.71651 0.0
C1221 C 0.32585 0.76909 0.73827 0.0
C1222 C 0.35134 0.75017 0.70681 0.0
C1223 C 0.33493 0.74913 0.74357 0.0
C1224 C 0.36055 0.71459 0.68205 0.0
C1225 C 0.38535 0.74657 0.65751 0.0
N1226 N 0.34712 0.74002 0.72772 0.0
N1227 N 0.37692 0.75483 0.67763 0.0
H1228 H 0.62149 0.02035 0.86398 0.0
H1229 H 0.62284 0.04243 0.0178 0.0
H1230 H 0.67891 0.02303 0.91825 0.0
H1231 H 0.56503 0.03092 0.96162 0.0
H1232 H 0.64376 0.03738 0.9831 0.0
H1233 H 0.60165 0.02593 0.89928 0.0
C1234 C 0.63017 0.02217 0.88325 0.0
C1235 C 0.65239 0.0211 0.88728 0.0
C1236 C 0.6265 0.03599 0.97821 0.0
C1237 C 0.62884 0.02784 0.92944 0.0
C1238 C 0.61435 0.03899 0.9983 0.0
C1239 C 0.59163 0.0373 0.99345 0.0
C1240 C 0.61635 0.03131 0.95224 0.0
C1241 C 0.58227 0.03258 0.96712 0.0
C1242 C 0.6186 0.02537 0.90373 0.0
C1243 C 0.66201 0.02365 0.91342 0.0
N1244 N 0.5944 0.02989 0.94808 0.0
N1245 N 0.65042 0.02688 0.93301 0.0
H1246 H 0.36308 0.36667 0.1562 0.0
H1247 H 0.27018 0.31161 0.22718 0.0
H1248 H 0.30012 0.38439 0.14351 0.0
H1249 H 0.33728 0.31511 0.25645 0.0
H1250 H 0.28076 0.3385 0.19679 0.0
H1251 H 0.35442 0.34888 0.1936 0.0
C1252 C 0.34756 0.36726 0.16163 0.0
C1253 C 0.33231 0.37708 0.14672 0.0
C1254 C 0.29321 0.33373 0.21009 0.0
C1255 C 0.322 0.35599 0.18922 0.0
C1256 C 0.28719 0.31828 0.22737 0.0
C1257 C 0.3029 0.31129 0.24452 0.0
C1258 C 0.31517 0.34186 0.20944 0.0
C1259 C 0.32468 0.32043 0.24393 0.0
C1260 C 0.34261 0.35703 0.18298 0.0
C1261 C 0.31242 0.37723 0.15458 0.0
N1262 N 0.33018 0.33498 0.22645 0.0
N1263 N 0.30768 0.36642 0.17502 0.0
H1264 H 0.20687 0.88833 0.0576 0.0
H1265 H 0.15232 0.9728 0.105 0.0
H1266 H 0.26022 0.94925 0.06635 0.0
H1267 H 0.21356 0.02341 0.12 0.0
H1268 H 0.1704 0.94015 0.09428 0.0
H1269 H 0.18877 0.913 0.08385 0.0
C1270 C 0.21485 0.90687 0.06527 0.0
C1271 C 0.23483 0.91693 0.05929 0.0
C1272 C 0.18016 0.95815 0.10046 0.0
C1273 C 0.21398 0.94574 0.08881 0.0
C1274 C 0.16973 0.97694 0.10676 0.0
C1275 C 0.1814 1.00098 0.11308 0.0
C1276 C 0.2025 0.96345 0.10039 0.0
C1277 C 0.20386 1.00523 0.11471 0.0
C1278 C 0.20439 0.92114 0.08013 0.0
C1279 C 0.24461 0.94088 0.07003 0.0
N1280 N 0.2136 0.98673 0.10805 0.0
N1281 N 0.23397 0.95451 0.08395 0.0
H1282 H 0.72311 0.61138 0.03658 0.0
H1283 H 0.59349 0.58462 0.02101 0.0
H1284 H 0.68394 0.65794 1.00356 0.0
H1285 H 0.634 0.54677 0.06608 0.0
H1286 H 0.626 0.60958 0.01113 0.0
H1287 H 0.69028 0.58495 0.04346 0.0
C1288 C 0.70763 0.61592 0.03043 0.0
C1289 C 0.70646 0.63707 0.01949 0.0
C1290 C 0.62778 0.59581 0.02319 0.0
C1291 C 0.66859 0.60682 0.02758 0.0
C1292 C 0.6092 0.5816 0.02889 0.0
C1293 C 0.61099 0.56364 0.04451 0.0
C1294 C 0.64834 0.5919 0.03296 0.0
C1295 C 0.63181 0.56044 0.05401 0.0
C1296 C 0.68885 0.60088 0.03456 0.0
C1297 C 0.68579 0.64195 0.01214 0.0
N1298 N 0.64959 0.57433 0.04806 0.0
N1299 N 0.66779 0.62705 0.01636 0.0
H1300 H 0.70528 0.53287 0.29652 0.0
H1301 H 0.72585 0.40635 0.33353 0.0
H1302 H 0.66331 0.48902 0.33661 0.0
H1303 H 0.76016 0.44634 0.2834 0.0
H1304 H 0.7014 0.43487 0.33335 0.0
H1305 H 0.72385 0.49966 0.28927 0.0
C1306 C 0.69983 0.51609 0.30356 0.0
C1307 C 0.68288 0.51371 0.31736 0.0
C1308 C 0.71413 0.43719 0.32216 0.0
C1309 C 0.70432 0.47566 0.30951 0.0
C1310 C 0.72818 0.42104 0.32241 0.0
C1311 C 0.74515 0.42404 0.30856 0.0
C1312 C 0.71724 0.45657 0.30817 0.0
C1313 C 0.74722 0.44317 0.29417 0.0
C1314 C 0.71044 0.4971 0.29942 0.0
C1315 C 0.67634 0.49153 0.32589 0.0
N1316 N 0.73357 0.45878 0.29454 0.0
N1317 N 0.6873 0.47341 0.32215 0.0
H1318 H 0.81609 0.37893 0.44457 0.0
H1319 H 0.89625 0.50394 0.50365 0.0
H1320 H 0.79759 0.43806 0.48824 0.0
H1321 H 0.91211 0.45008 0.45023 0.0
H1322 H 0.85885 0.48142 0.49501 0.0
H1323 H 0.84989 0.40617 0.44221 0.0
C1324 C 0.81893 0.3977 0.45327 0.0
C1325 C 0.80418 0.40604 0.46714 0.0
C1326 C 0.87044 0.47468 0.48491 0.0
C1327 C 0.84288 0.43718 0.46477 0.0
C1328 C 0.8918 0.48747 0.48997 0.0
C1329 C 0.90729 0.47879 0.47776 0.0
C1330 C 0.86461 0.45286 0.4678 0.0
C1331 C 0.90063 0.4575 0.45995 0.0
C1332 C 0.83826 0.41324 0.45198 0.0
C1333 C 0.80865 0.43064 0.47779 0.0
N1334 N 0.87984 0.4451 0.45574 0.0
N1335 N 0.82772 0.44521 0.47673 0.0
H1336 H 0.42417 0.14913 0.31043 0.0
H1337 H 0.30863 0.19414 0.28524 0.0
H1338 H 0.36343 0.09971 0.28224 0.0
H1339 H 0.36929 0.24392 0.31206 0.0
H1340 H 0.32797 0.16028 0.28391 0.0
H1341 H 0.40502 0.18326 0.31105 0.0
C1342 C 0.40684 0.14515 0.30422 0.0
C1343 C 0.39592 0.12058 0.29614 0.0
C1344 C 0.33724 0.17857 0.2901 0.0
C1345 C 0.37296 0.1612 0.297 0.0
C1346 C 0.32602 0.19832 0.29085 0.0
C1347 C 0.33682 0.22295 0.29881 0.0
C1348 C 0.36003 0.18251 0.29738 0.0
C1349 C 0.35968 0.2259 0.3058 0.0
C1350 C 0.39572 0.16501 0.30464 0.0
C1351 C 0.37313 0.11777 0.28859 0.0
N1352 N 0.37016 0.20647 0.30494 0.0
N1353 N 0.36277 0.13729 0.28924 0.0
H1354 H 0.35073 0.1713 0.53915 0.0
H1355 H 0.39278 0.047 0.54604 0.0
H1356 H 0.30943 0.10246 0.54084 0.0
H1357 H 0.43595 0.1167 0.55489 0.0
H1358 H 0.36218 0.06704 0.54218 0.0
H1359 H 0.38201 0.15184 0.54325 0.0
C1360 C 0.34822 0.15212 0.54048 0.0
C1361 C 0.32733 0.13854 0.53968 0.0
C1362 C 0.37833 0.07801 0.54497 0.0
C1363 C 0.36318 0.11603 0.54415 0.0
C1364 C 0.39593 0.06655 0.54732 0.0
C1365 C 0.41722 0.08007 0.5511 0.0
C1366 C 0.38177 0.10332 0.54622 0.0
C1367 C 0.41995 0.10537 0.55183 0.0
C1368 C 0.36611 0.141 0.54279 0.0
C1369 C 0.32516 0.11372 0.54143 0.0
N1370 N 0.4025 0.11613 0.54949 0.0
N1371 N 0.34277 0.10331 0.54349 0.0
H1372 H 0.67163 0.67033 0.33706 0.0
H1373 H 0.79835 0.72396 0.36548 0.0
H1374 H 0.71679 0.62751 0.36465 0.0
H1375 H 0.75692 0.73592 0.29916 0.0
H1376 H 0.76776 0.69522 0.37491 0.0
H1377 H 0.70216 0.70232 0.33339 0.0
C1378 C 0.68795 0.66786 0.3428 0.0
C1379 C 0.69171 0.6462 0.35104 0.0
C1380 C 0.76539 0.70449 0.35853 0.0
C1381 C 0.72651 0.68267 0.34712 0.0
C1382 C 0.78277 0.72081 0.35312 0.0
C1383 C 0.78001 0.73274 0.33179 0.0
C1384 C 0.74509 0.7005 0.34275 0.0
C1385 C 0.75955 0.72786 0.31629 0.0
C1386 C 0.70529 0.686 0.34053 0.0
C1387 C 0.7132 0.64387 0.35804 0.0
N1388 N 0.74282 0.71227 0.32216 0.0
N1389 N 0.72981 0.66189 0.35596 0.0
H1390 H 0.87714 0.49436 0.81803 0.0
H1391 H 0.85301 0.34827 0.77348 0.0
H1392 H 0.91825 0.45875 0.77731 0.0
H1393 H 0.82812 0.37972 0.83657 0.0
H1394 H 0.87286 0.38899 0.76995 0.0
H1395 H 0.8551 0.45401 0.82011 0.0
C1396 C 0.88136 0.47826 0.80901 0.0
C1397 C 0.89976 0.48055 0.7972 0.0
C1398 C 0.86303 0.3871 0.78457 0.0
C1399 C 0.8742 0.43343 0.79962 0.0
C1400 C 0.85155 0.36362 0.7866 0.0
C1401 C 0.83867 0.3599 0.80551 0.0
C1402 C 0.86158 0.40777 0.80115 0.0
C1403 C 0.83776 0.38115 0.82174 0.0
C1404 C 0.86881 0.45501 0.81046 0.0
C1405 C 0.90432 0.45841 0.78651 0.0
N1406 N 0.84878 0.4038 0.81911 0.0
N1407 N 0.89179 0.43626 0.78783 0.0
H1408 H 0.09999 0.89261 0.18085 0.0
H1409 H 0.06225 0.94741 0.05562 0.0
H1410 H 0.08608 0.85026 0.1061 0.0
H1411 H 0.10214 0.9926 0.12221 0.0
H1412 H 0.06803 0.91141 0.07476 0.0
H1413 H 0.09835 0.92934 0.16099 0.0
C1414 C 0.09675 0.89103 0.1603 0.0
C1415 C 0.09322 0.86823 0.14518 0.0
C1416 C 0.0757 0.92921 0.08509 0.0
C1417 C 0.09085 0.9102 0.1223 0.0
C1418 C 0.07238 0.9498 0.07418 0.0
C1419 C 0.08187 0.97318 0.08717 0.0
C1420 C 0.08818 0.93187 0.10954 0.0
C1421 C 0.09477 0.97503 0.11127 0.0
C1422 C 0.09583 0.91202 0.14897 0.0
C1423 C 0.08901 0.86738 0.11859 0.0
N1424 N 0.09734 0.95473 0.12177 0.0
N1425 N 0.08769 0.88792 0.10806 0.0
H1426 H 0.95073 0.30354 0.95224 0.0
H1427 H 0.85907 0.23644 0.8345 0.0
H1428 H 0.96066 0.24664 0.89757 0.0
H1429 H 0.85927 0.30763 0.87275 0.0
H1430 H 0.89434 0.23764 0.86005 0.0
H1431 H 0.91601 0.30327 0.92597 0.0
C1432 C 0.94565 0.29092 0.93467 0.0
C1433 C 0.95881 0.27498 0.92728 0.0
C1434 C 0.88672 0.25301 0.86292 0.0
C1435 C 0.91849 0.27449 0.89698 0.0
C1436 C 0.86643 0.25233 0.84841 0.0
C1437 C 0.85603 0.27201 0.85136 0.0
C1438 C 0.8968 0.27337 0.88101 0.0
C1439 C 0.86658 0.29203 0.86977 0.0
C1440 C 0.92576 0.29088 0.91962 0.0
C1441 C 0.95122 0.25928 0.90411 0.0
N1442 N 0.88628 0.29214 0.88393 0.0
N1443 N 0.93153 0.25927 0.88997 0.0
H1444 H 0.55698 0.22929 0.64746 0.0
H1445 H 0.59501 0.11999 0.56999 0.0
H1446 H 0.60709 0.23915 0.602 0.0
H1447 H 0.5335 0.11061 0.59505 0.0
H1448 H 0.6015 0.16334 0.5858 0.0
H1449 H 0.54987 0.18532 0.63265 0.0
C1450 C 0.5665 0.22229 0.63447 0.0
C1451 C 0.58258 0.2381 0.62591 0.0
C1452 C 0.58655 0.15182 0.58781 0.0
C1453 C 0.57468 0.18783 0.60911 0.0
C1454 C 0.58284 0.127 0.5788 0.0
C1455 C 0.56363 0.11151 0.58104 0.0
C1456 C 0.57109 0.16137 0.59951 0.0
C1457 C 0.5485 0.12181 0.59272 0.0
C1458 C 0.56239 0.1972 0.62596 0.0
C1459 C 0.59439 0.22786 0.60903 0.0
N1460 N 0.55258 0.14602 0.6016 0.0
N1461 N 0.59027 0.20353 0.60133 0.0
H1462 H 0.6012 0.77709 0.45166 0.0
H1463 H 0.64856 0.77809 0.32199 0.0
H1464 H 0.56074 0.76019 0.37747 0.0
H1465 H 0.68825 0.78144 0.39521 0.0
H1466 H 0.61644 0.77219 0.34188 0.0
H1467 H 0.63311 0.7791 0.43146 0.0
C1468 C 0.59898 0.77361 0.43109 0.0
C1469 C 0.57813 0.76844 0.4163 0.0
C1470 C 0.63214 0.77411 0.35362 0.0
C1471 C 0.61492 0.77105 0.39288 0.0
C1472 C 0.65059 0.77765 0.34229 0.0
C1473 C 0.67134 0.78048 0.3569 0.0
C1474 C 0.63426 0.77359 0.37994 0.0
C1475 C 0.67269 0.77925 0.38308 0.0
C1476 C 0.61728 0.77478 0.41955 0.0
C1477 C 0.57641 0.76415 0.3897 0.0
N1478 N 0.65451 0.77611 0.39373 0.0
N1479 N 0.59451 0.76574 0.37888 0.0
H1480 H 0.99094 0.24771 0.43594 0.0
H1481 H 0.05122 0.14247 0.44486 0.0
H1482 H 0.04562 0.24086 0.3998 0.0
H1483 H 0.99408 0.14756 0.47661 0.0
H1484 H 0.04168 0.16989 0.4153 0.0
H1485 H 0.98398 0.20431 0.4375 0.0
C1486 C 1.00127 0.23691 0.42794 0.0
C1487 C 1.01937 0.24787 0.41864 0.0
C1488 C 0.03086 0.16451 0.4282 0.0
C1489 C 1.01185 0.19839 0.42087 0.0
C1490 C 0.03634 0.14891 0.44509 0.0
C1491 C 0.02379 0.14359 0.4637 0.0
C1492 C 1.01303 0.17522 0.43049 0.0
C1493 C 1.0044 0.15171 0.46285 0.0
C1494 C 0.99724 0.2121 0.4287 0.0
C1495 C 0.03181 0.23309 0.40772 0.0
N1496 N 0.9999 0.16773 0.447 0.0
N1497 N 0.02821 0.20912 0.40982 0.0
H1498 H 0.6314 0.27954 0.2567 0.0
H1499 H 0.7464 0.25031 0.24149 0.0
H1500 H 0.64608 0.25594 0.18329 0.0
H1501 H 0.73779 0.30829 0.29594 0.0
H1502 H 0.70736 0.24198 0.22439 0.0
H1503 H 0.66849 0.27903 0.27628 0.0
C1504 C 0.6423 0.27379 0.24481 0.0
C1505 C 0.63587 0.2681 0.21836 0.0
C1506 C 0.71414 0.2564 0.24017 0.0
C1507 C 0.67793 0.2673 0.2405 0.0
C1508 C 0.73628 0.26116 0.24983 0.0
C1509 C 0.74525 0.28026 0.26976 0.0
C1510 C 0.70102 0.27041 0.25111 0.0
C1511 C 0.73154 0.29372 0.28018 0.0
C1512 C 0.66341 0.27363 0.25593 0.0
C1513 C 0.65059 0.26081 0.20374 0.0
N1514 N 0.71008 0.28848 0.27078 0.0
N1515 N 0.67102 0.2607 0.21501 0.0
H1516 H 0.55442 0.85396 0.97918 0.0
H1517 H 0.53064 0.9866 1.00304 0.0
H1518 H 0.5472 0.90021 0.92149 0.0
H1519 H 0.55628 0.9518 0.06461 0.0
H1520 H 0.52911 0.95066 0.9733 0.0
H1521 H 0.54959 0.88621 0.01085 0.0
C1522 C 0.55191 0.87097 0.97322 0.0
C1523 C 0.55128 0.87456 0.94774 0.0
C1524 C 0.5348 0.95066 0.99334 0.0
C1525 C 0.54539 0.9111 0.98364 0.0
C1526 C 0.53537 0.97108 1.01045 0.0
C1527 C 0.5436 0.97217 0.03635 0.0
C1528 C 0.54271 0.93118 1.00208 0.0
C1529 C 0.54982 0.95163 0.04476 0.0
C1530 C 0.5491 0.88925 0.99127 0.0
C1531 C 0.54795 0.8968 0.94097 0.0
N1532 N 0.54953 0.93194 0.02753 0.0
N1533 N 0.54504 0.91423 0.95884 0.0
H1534 H 0.02725 0.75041 0.77169 0.0
H1535 H 0.91593 0.79518 0.75987 0.0
H1536 H 0.99005 0.76108 0.70155 0.0
H1537 H 0.94882 0.78126 0.83108 0.0
H1538 H 0.94123 0.77778 0.73788 0.0
H1539 H 0.99692 0.75576 0.79335 0.0
C1540 C 1.01248 0.75317 0.76073 0.0
C1541 C 1.01118 0.75562 0.7349 0.0
C1542 C 0.94298 0.77836 0.7583 0.0
C1543 C 0.97678 0.7621 0.75944 0.0
C1544 C 0.92862 0.7885 0.77087 0.0
C1545 C 0.93062 0.79011 0.79735 0.0
C1546 C 0.95975 0.76996 0.77227 0.0
C1547 C 0.94693 0.78054 0.81064 0.0
C1548 C 0.99527 0.75642 0.77312 0.0
C1549 C 0.99181 0.75938 0.72158 0.0
N1550 N 0.96113 0.77115 0.79798 0.0
N1551 N 0.97551 0.76278 0.73405 0.0
H1552 H 0.16656 0.0387 0.91218 0.0
H1553 H 0.09188 0.07338 1.00906 0.0
H1554 H 0.12088 0.08383 0.89362 0.0
H1555 H 0.10025 0.99971 0.99396 0.0
H1556 H 0.11067 0.08346 0.97401 0.0
H1557 H 0.15036 0.0302 0.9496 0.0
C1558 C 0.15333 0.0471 0.9162 0.0
C1559 C 0.14502 0.06201 0.89981 0.0
C1560 C 0.10853 0.06517 0.97856 0.0
C1561 C 0.12676 0.05262 0.94265 0.0
C1562 C 0.09797 0.05941 0.99862 0.0
C1563 C 0.09452 0.03562 1.00436 0.0
C1564 C 0.11622 0.04722 0.96461 0.0
C1565 C 0.10259 0.01822 0.99007 0.0
C1566 C 0.14405 0.04209 0.9374 0.0
C1567 C 0.12772 0.07221 0.90576 0.0
N1568 N 0.11322 0.02439 0.97091 0.0
N1569 N 0.11925 0.06749 0.92684 0.0
H1570 H 0.79248 0.38553 0.58063 0.0
H1571 H 0.84217 0.28629 0.64496 0.0
H1572 H 0.80247 0.3197 0.53933 0.0
H1573 H 0.84238 0.35656 0.68584 0.0
H1574 H 0.83447 0.30173 0.6052 0.0
H1575 H 0.81554 0.37826 0.6183 0.0
C1576 C 0.79956 0.36962 0.57942 0.0
C1577 C 0.79512 0.35292 0.55692 0.0
C1578 C 0.83659 0.31397 0.62283 0.0
C1579 C 0.82167 0.34466 0.59983 0.0
C1580 C 0.84127 0.30521 0.64569 0.0
C1581 C 0.84228 0.31993 0.66887 0.0
C1582 C 0.83248 0.33744 0.62316 0.0
C1583 C 0.84088 0.34429 0.66837 0.0
C1584 C 0.81289 0.36559 0.60088 0.0
C1585 C 0.80506 0.33285 0.55636 0.0
N1586 N 0.83547 0.35214 0.64584 0.0
N1587 N 0.81765 0.32916 0.57758 0.0
H1588 H 0.48666 0.05532 0.3525 0.0
H1589 H 0.49773 0.04492 0.50413 0.0
H1590 H 0.43335 0.06009 0.39145 0.0
H1591 H 0.54983 0.04905 0.46182 0.0
H1592 H 0.47323 0.04876 0.4648 0.0
H1593 H 0.50867 0.05129 0.39262 0.0
C1594 C 0.47939 0.05549 0.36941 0.0
C1595 C 0.45774 0.05814 0.36784 0.0
C1596 C 0.49004 0.04882 0.46412 0.0
C1597 C 0.48369 0.0533 0.41545 0.0
C1598 C 0.50416 0.04658 0.48679 0.0
C1599 C 0.52631 0.04661 0.48693 0.0
C1600 C 0.49781 0.05096 0.44092 0.0
C1601 C 0.53314 0.04888 0.46329 0.0
C1602 C 0.49217 0.05318 0.39265 0.0
C1603 C 0.4498 0.05815 0.39115 0.0
N1604 N 0.51925 0.05085 0.44182 0.0
N1605 N 0.46258 0.05577 0.41361 0.0
H1606 H 0.80703 0.69123 0.10959 0.0
H1607 H 0.76297 0.76207 0.222 0.0
H1608 H 0.74863 0.71935 0.10016 0.0
H1609 H 0.82822 0.75028 0.23116 0.0
H1610 H 0.75652 0.74226 0.17815 0.0
H1611 H 0.81405 0.70819 0.15523 0.0
C1612 C 0.79562 0.70069 0.11714 0.0
C1613 C 0.77733 0.70406 0.10102 0.0
C1614 C 0.7723 0.74401 0.18967 0.0
C1615 C 0.78517 0.72337 0.15282 0.0
C1616 C 0.776 0.75537 0.2148 0.0
C1617 C 0.7962 0.75799 0.23037 0.0
C1618 C 0.78884 0.73496 0.17983 0.0
C1619 C 0.81242 0.74882 0.21982 0.0
C1620 C 0.79969 0.71049 0.14307 0.0
C1621 C 0.76309 0.71655 0.11175 0.0
N1622 N 0.80838 0.73766 0.19521 0.0
N1623 N 0.76732 0.7257 0.13683 0.0
H1624 H 0.1548 0.08037 0.75565 0.0
H1625 H 0.06494 1.01203 0.64013 0.0
H1626 H 0.09079 0.05226 0.76886 0.0
H1627 H 0.10206 0.0825 0.63538 0.0
H1628 H 0.07939 0.01823 0.68608 0.0
H1629 H 0.14079 0.07297 0.70956 0.0
C1630 C 0.13786 0.07248 0.74882 0.0
C1631 C 0.12387 0.06704 0.76601 0.0
C1632 C 0.08432 0.03224 0.67486 0.0
C1633 C 0.10801 0.05801 0.71364 0.0
C1634 C 0.07618 0.02873 0.64874 0.0
C1635 C 0.08217 0.04691 0.63405 0.0
C1636 C 0.09909 0.05368 0.68609 0.0
C1637 C 0.09684 0.06818 0.64611 0.0
C1638 C 0.12991 0.06837 0.72264 0.0
C1639 C 0.10203 0.05689 0.75621 0.0
N1640 N 0.10499 0.07089 0.6714 0.0
N1641 N 0.09479 0.05246 0.73062 0.0
H1642 H 0.71109 0.32508 0.44832 0.0
H1643 H 0.80567 0.33871 0.3734 0.0
H1644 H 0.74409 0.39485 0.43582 0.0
H1645 H 0.756 0.27377 0.35734 0.0
H1646 H 0.78223 0.35963 0.39574 0.0
H1647 H 0.7237 0.30592 0.41202 0.0
C1648 C 0.72006 0.33647 0.43705 0.0
C1649 C 0.7269 0.36148 0.44523 0.0
C1650 C 0.77632 0.34086 0.38714 0.0
C1651 C 0.74228 0.3397 0.40475 0.0
C1652 C 0.78975 0.32895 0.37458 0.0
C1653 C 0.78265 0.30463 0.36371 0.0
C1654 C 0.75576 0.32817 0.38909 0.0
C1655 C 0.76209 0.29247 0.36602 0.0
C1656 C 0.72755 0.3255 0.41659 0.0
C1657 C 0.73859 0.37547 0.43017 0.0
N1658 N 0.74936 0.30433 0.3787 0.0
N1659 N 0.74664 0.36429 0.41114 0.0
H1660 H 0.42922 0.0435 0.20359 0.0
H1661 H 0.54169 0.04734 0.14778 0.0
H1662 H 0.49317 0.06561 0.24813 0.0
H1663 H 0.48112 0.03563 0.09625 0.0
H1664 H 0.52284 0.05262 0.18369 0.0
H1665 H 0.44564 0.04013 0.16447 0.0
C1666 C 0.44659 0.04834 0.20542 0.0
C1667 C 0.45947 0.05542 0.2301 0.0
C1668 C 0.51343 0.04886 0.16464 0.0
C1669 C 0.47892 0.05051 0.18425 0.0
C1670 C 0.52436 0.0457 0.1437 0.0
C1671 C 0.51345 0.0408 0.11806 0.0
C1672 C 0.49081 0.04709 0.16098 0.0
C1673 C 0.4907 0.03925 0.1152 0.0
C1674 C 0.45611 0.04605 0.18279 0.0
C1675 C 0.48211 0.06038 0.23015 0.0
N1676 N 0.48036 0.04223 0.136 0.0
N1677 N 0.49076 0.05775 0.20827 0.0
H1678 H 0.77741 0.66324 0.94007 0.0
H1679 H 0.79297 0.79573 0.89839 0.0
H1680 H 0.77035 0.72717 0.98721 0.0
H1681 H 0.78888 0.73087 0.84588 0.0
H1682 H 0.78415 0.77056 0.93093 0.0
H1683 H 0.78096 0.68705 0.90494 0.0
C1684 C 0.77635 0.68216 0.94296 0.0
C1685 C 0.77365 0.69319 0.9667 0.0
C1686 C 0.78501 0.76178 0.91224 0.0
C1687 C 0.77797 0.72066 0.92672 0.0
C1688 C 0.79004 0.77619 0.89365 0.0
C1689 C 0.79173 0.76543 0.86941 0.0
C1690 C 0.78184 0.73636 0.9067 0.0
C1691 C 0.78775 0.73996 0.86433 0.0
C1692 C 0.77843 0.69578 0.92292 0.0
C1693 C 0.77249 0.71784 0.96933 0.0
N1694 N 0.78319 0.72632 0.88284 0.0
N1695 N 0.77482 0.73071 0.94975 0.0
H1696 H 0.91119 0.18132 0.05958 0.0
H1697 H 0.91865 0.04148 0.04237 0.0
H1698 H 0.86857 0.12635 0.08755 0.0
H1699 H 0.97039 0.09938 0.03523 0.0
H1700 H 0.89709 0.07166 0.05285 0.0
H1701 H 0.93098 0.15082 0.04572 0.0
C1702 C 0.90614 0.16287 0.06303 0.0
C1703 C 0.88831 0.15633 0.07481 0.0
C1704 C 0.91309 0.0777 0.04875 0.0
C1705 C 0.91054 0.12132 0.05859 0.0
C1706 C 0.92521 0.06052 0.04253 0.0
C1707 C 0.94618 0.06816 0.03804 0.0
C1708 C 0.92208 0.10249 0.05023 0.0
C1709 C 0.95423 0.09295 0.03869 0.0
C1710 C 0.91736 0.14547 0.05502 0.0
C1711 C 0.88235 0.13216 0.0787 0.0
N1712 N 0.94219 0.10929 0.04479 0.0
N1713 N 0.89339 0.11545 0.07046 0.0
H1714 H 0.41897 0.41085 0.08644 0.0
H1715 H 0.47357 0.53414 0.04384 0.0
H1716 H 0.38379 0.46667 0.06987 0.0
H1717 H 0.51099 0.48973 0.08354 0.0
H1718 H 0.4405 0.50856 0.05092 0.0
H1719 H 0.45249 0.43828 0.08364 0.0
C1720 C 0.41827 0.42897 0.08237 0.0
C1721 C 0.39838 0.43637 0.07834 0.0
C1722 C 0.45591 0.5044 0.05817 0.0
C1723 C 0.437 0.46793 0.07472 0.0
C1724 C 0.47486 0.51896 0.05405 0.0
C1725 C 0.49518 0.51406 0.06301 0.0
C1726 C 0.45709 0.48443 0.07106 0.0
C1727 C 0.49573 0.49412 0.07614 0.0
C1728 C 0.4375 0.44465 0.08082 0.0
C1729 C 0.39867 0.46015 0.07325 0.0
N1730 N 0.47699 0.47996 0.0796 0.0
N1731 N 0.41759 0.47494 0.07129 0.0
H1732 H 0.39523 0.54282 0.74254 0.0
H1733 H 0.38715 0.67178 0.81174 0.0
H1734 H 0.4481 0.58937 0.79578 0.0
H1735 H 0.33975 0.63036 0.74856 0.0
H1736 H 0.41063 0.64315 0.80482 0.0
H1737 H 0.37561 0.57578 0.74289 0.0
C1738 C 0.40282 0.56011 0.75407 0.0
C1739 C 0.42325 0.56332 0.7693 0.0
C1740 C 0.39516 0.64045 0.79234 0.0
C1741 C 0.40072 0.60109 0.77011 0.0
C1742 C 0.38176 0.65686 0.79622 0.0
C1743 C 0.36128 0.65336 0.7809 0.0
C1744 C 0.38801 0.6203 0.77311 0.0
C1745 C 0.35514 0.6335 0.76124 0.0
C1746 C 0.3916 0.57894 0.75428 0.0
C1747 C 0.43236 0.58613 0.78378 0.0
N1748 N 0.36835 0.61765 0.75807 0.0
N1749 N 0.42091 0.60407 0.7841 0.0
H1750 H 0.28476 0.7075 0.63525 0.0
H1751 H 0.20785 0.57724 0.60434 0.0
H1752 H 0.30629 0.64183 0.61223 0.0
H1753 H 0.19057 0.63906 0.64457 0.0
H1754 H 0.24474 0.60052 0.60895 0.0
H1755 H 0.25101 0.68277 0.64173 0.0
C1756 C 0.28258 0.68793 0.63197 0.0
C1757 C 0.29822 0.67676 0.62267 0.0
C1758 C 0.23296 0.60891 0.61707 0.0
C1759 C 0.25963 0.64844 0.62973 0.0
C1760 C 0.21191 0.59567 0.61429 0.0
C1761 C 0.1962 0.6063 0.624 0.0
C1762 C 0.23821 0.63307 0.62929 0.0
C1763 C 0.20228 0.63016 0.63695 0.0
C1764 C 0.26329 0.67382 0.63562 0.0
C1765 C 0.29455 0.6513 0.61893 0.0
N1766 N 0.22277 0.64286 0.63897 0.0
N1767 N 0.27552 0.63803 0.6221 0.0
H1768 H 0.68108 0.92301 0.8188 0.0
H1769 H 0.79626 0.8775 0.82317 0.0
H1770 H 0.74164 0.97168 0.82153 0.0
H1771 H 0.7353 0.82692 0.80717 0.0
H1772 H 0.77688 0.91123 0.82484 0.0
H1773 H 0.69985 0.88852 0.81672 0.0
C1774 C 0.6983 0.92677 0.81898 0.0
C1775 C 0.70926 0.95127 0.82032 0.0
C1776 C 0.76754 0.89284 0.821 0.0
C1777 C 0.73182 0.9102 0.81814 0.0
C1778 C 0.7788 0.87313 0.82008 0.0
C1779 C 0.76798 0.84833 0.81502 0.0
C1780 C 0.74465 0.88873 0.81715 0.0
C1781 C 0.74498 0.84514 0.81117 0.0
C1782 C 0.70919 0.90668 0.81776 0.0
C1783 C 0.73189 0.95373 0.82047 0.0
N1784 N 0.73446 0.86459 0.81241 0.0
N1785 N 0.74204 0.93404 0.81954 0.0
H1786 H 0.75796 0.90549 0.57253 0.0
H1787 H 0.7109 0.02736 0.58255 0.0
H1788 H 0.79858 0.9767 0.59548 0.0
H1789 H 0.67112 0.95536 0.56285 0.0
H1790 H 0.74295 1.00953 0.58889 0.0
H1791 H 0.72614 0.92364 0.57044 0.0
C1792 C 0.76023 0.92497 0.57737 0.0
C1793 C 0.78112 0.93953 0.58421 0.0
C1794 C 0.72721 0.99763 0.58326 0.0
C1795 C 0.74438 0.96066 0.58157 0.0
C1796 C 0.70878 1.00781 0.57977 0.0
C1797 C 0.68801 0.99296 0.57205 0.0
C1798 C 0.72507 0.97231 0.57903 0.0
C1799 C 0.68664 0.9677 0.56838 0.0
C1800 C 0.74197 0.93536 0.5761 0.0
C1801 C 0.78287 0.96471 0.59019 0.0
N1802 N 0.7048 0.95827 0.57183 0.0
N1803 N 0.7648 0.97445 0.5886 0.0
H1804 H 0.44039 0.41479 0.80722 0.0
H1805 H 0.31625 0.3502 0.75876 0.0
H1806 H 0.39663 0.44645 0.75861 0.0
H1807 H 0.35531 0.33687 0.82625 0.0
H1808 H 0.34656 0.3818 0.7534 0.0
H1809 H 0.41051 0.38165 0.80875 0.0
C1810 C 0.42456 0.4147 0.79666 0.0
C1811 C 0.42106 0.43357 0.78285 0.0
C1812 C 0.34848 0.37176 0.76924 0.0
C1813 C 0.38668 0.39555 0.78459 0.0
C1814 C 0.33125 0.35377 0.77229 0.0
C1815 C 0.33345 0.3406 0.79271 0.0
C1816 C 0.36804 0.37639 0.78665 0.0
C1817 C 0.35313 0.34603 0.80981 0.0
C1818 C 0.40746 0.39581 0.79766 0.0
C1819 C 0.40009 0.4324 0.76962 0.0
N1820 N 0.36966 0.3634 0.80635 0.0
N1821 N 0.38369 0.41372 0.77081 0.0
H1822 H 0.22768 0.57957 0.30464 0.0
H1823 H 0.2587 0.72478 0.35607 0.0
H1824 H 0.19412 0.61541 0.35604 0.0
H1825 H 0.27809 0.69464 0.28812 0.0
H1826 H 0.23878 0.68419 0.35948 0.0
H1827 H 0.24977 0.61965 0.30173 0.0
C1828 C 0.22512 0.59562 0.31575 0.0
C1829 C 0.20879 0.59345 0.33085 0.0
C1830 C 0.24741 0.6863 0.34381 0.0
C1831 C 0.23445 0.64034 0.32744 0.0
C1832 C 0.25897 0.70974 0.34183 0.0
C1833 C 0.2704 0.71386 0.32168 0.0
C1834 C 0.24721 0.66596 0.32581 0.0
C1835 C 0.26967 0.69294 0.30401 0.0
C1836 C 0.2377 0.61875 0.31385 0.0
C1837 C 0.20636 0.6156 0.34419 0.0
N1838 N 0.25855 0.67026 0.30654 0.0
N1839 N 0.21887 0.63759 0.34229 0.0
H1840 H 0.52119 0.69122 0.45306 0.0
H1841 H 0.57179 0.63053 0.56881 0.0
H1842 H 0.53991 0.72818 0.53026 0.0
H1843 H 0.52667 0.58694 0.50498 0.0
H1844 H 0.56485 0.6671 0.55193 0.0
H1845 H 0.52781 0.6534 0.46848 0.0
C1846 C 0.52686 0.69147 0.47314 0.0
C1847 C 0.52992 0.71298 0.49036 0.0
C1848 C 0.55642 0.64955 0.54161 0.0
C1849 C 0.53772 0.66991 0.50806 0.0
C1850 C 0.56038 0.6286 0.55126 0.0
C1851 C 0.54977 0.6055 0.53842 0.0
C1852 C 0.54204 0.64761 0.51858 0.0
C1853 C 0.53514 0.60432 0.51567 0.0
C1854 C 0.53047 0.66986 0.48195 0.0
C1855 C 0.53716 0.7121 0.51624 0.0
N1856 N 0.53185 0.62502 0.50636 0.0
N1857 N 0.54092 0.69112 0.5242 0.0
H1858 H 0.67589 0.34441 0.68154 0.0
H1859 H 0.73741 0.26486 0.76904 0.0
H1860 H 0.64077 0.28678 0.71388 0.0
H1861 H 0.76372 0.33997 0.7667 0.0
H1862 H 0.70336 0.26886 0.74299 0.0
H1863 H 0.7095 0.3399 0.7074 0.0
C1864 C 0.6752 0.33093 0.69425 0.0
C1865 C 0.65534 0.31614 0.69567 0.0
C1866 C 0.71667 0.28439 0.74805 0.0
C1867 C 0.69411 0.31032 0.72486 0.0
C1868 C 0.73618 0.28204 0.76266 0.0
C1869 C 0.7535 0.30209 0.76993 0.0
C1870 C 0.71462 0.3068 0.7402 0.0
C1871 C 0.75082 0.32403 0.76146 0.0
C1872 C 0.69444 0.32832 0.70898 0.0
C1873 C 0.6556 0.29883 0.71241 0.0
N1874 N 0.73189 0.32576 0.74699 0.0
N1875 N 0.67466 0.29621 0.7261 0.0
H1876 H 1.01567 0.32688 1.00965 0.0
H1877 H 0.06944 0.46495 0.01152 0.0
H1878 H 0.04408 0.35251 0.94752 0.0
H1879 H 1.01385 0.44657 0.0472 0.0
H1880 H 0.06444 0.42248 0.99317 0.0
H1881 H 1.01836 0.36932 0.02853 0.0
C1882 C 0.02242 0.34139 0.99997 0.0
C1883 C 0.02968 0.33613 0.97697 0.0
C1884 C 0.05333 0.4277 1.00502 0.0
C1885 C 0.03316 0.38453 0.99866 0.0
C1886 C 0.05623 0.45197 0.01567 0.0
C1887 C 0.04203 0.45944 0.03098 0.0
C1888 C 0.03636 0.41046 1.01002 0.0
C1889 C 0.02512 0.44166 0.03544 0.0
C1890 C 0.02387 0.36555 0.0107 0.0
C1891 C 0.03823 0.35566 0.96521 0.0
N1892 N 0.02285 0.41793 0.02518 0.0
N1893 N 0.03996 0.37891 0.97631 0.0
H1894 H 1.01368 0.80374 0.16565 0.0
H1895 H 0.96033 0.77146 0.28672 0.0
H1896 H 0.04893 0.78623 0.23359 0.0
H1897 H 0.92585 0.79411 0.22139 0.0
H1898 H 0.99232 0.77514 0.26673 0.0
H1899 H 0.98106 0.79871 0.18479 0.0
C1900 C 1.01457 0.79871 0.18455 0.0
C1901 C 0.03419 0.7954 0.19798 0.0
C1902 C 0.97777 0.77928 0.2567 0.0
C1903 C 0.9967 0.78966 0.22014 0.0
C1904 C 0.95935 0.77702 0.26806 0.0
C1905 C 0.94012 0.78234 0.25577 0.0
C1906 C 0.97717 0.7869 0.2327 0.0
C1907 C 0.94024 0.78998 0.23179 0.0
C1908 C 0.9959 0.79591 0.19551 0.0
C1909 C 0.03425 0.78897 0.22246 0.0
N1910 N 0.95838 0.79197 0.22107 0.0
N1911 N 1.01587 0.78634 0.2327 0.0
H1912 H 0.5746 0.35572 0.23223 0.0
H1913 H 0.61979 0.4184 0.12166 0.0
H1914 H 0.60846 0.3242 0.17796 0.0
H1915 H 0.56764 0.43672 0.15692 0.0
H1916 H 0.62828 0.39442 0.15544 0.0
H1917 H 0.58474 0.39512 0.21777 0.0
C1918 C 0.58477 0.35732 0.2179 0.0
C1919 C 0.59026 0.33679 0.20568 0.0
C1920 C 0.61535 0.40424 0.15614 0.0
C1921 C 0.6019 0.38124 0.18932 0.0
C1922 C 0.61054 0.4179 0.13692 0.0
C1923 C 0.59262 0.42884 0.13624 0.0
C1924 C 0.60208 0.40156 0.17459 0.0
C1925 C 0.58119 0.42786 0.15648 0.0
C1926 C 0.59049 0.37969 0.20964 0.0
C1927 C 0.60346 0.33959 0.18732 0.0
N1928 N 0.58586 0.41401 0.17465 0.0
N1929 N 0.60859 0.36137 0.1794 0.0
H1930 H 0.98773 0.3172 0.36356 0.0
H1931 H 0.87159 0.34518 0.37249 0.0
H1932 H 0.97529 0.3567 0.43157 0.0
H1933 H 0.88227 0.28115 0.32866 0.0
H1934 H 0.91056 0.35687 0.38922 0.0
H1935 H 0.94996 0.31268 0.34421 0.0
C1936 C 0.97721 0.32541 0.37425 0.0
C1937 C 0.9846 0.33698 0.39941 0.0
C1938 C 0.90425 0.34028 0.37595 0.0
C1939 C 0.9414 0.33167 0.37739 0.0
C1940 C 0.88211 0.33357 0.36651 0.0
C1941 C 0.87374 0.31207 0.34939 0.0
C1942 C 0.918 0.32565 0.36768 0.0
C1943 C 0.88801 0.2977 0.34209 0.0
C1944 C 0.95562 0.3226 0.36325 0.0
C1945 C 0.97018 0.34731 0.41226 0.0
N1946 N 0.90948 0.30485 0.35115 0.0
N1947 N 0.94914 0.34422 0.40117 0.0
H1948 H 0.0437 0.73002 0.60324 0.0
H1949 H 0.0599 0.59509 0.60335 0.0
H1950 H 0.04726 0.69479 0.67029 0.0
H1951 H 0.03664 0.62102 0.53415 0.0
H1952 H 0.05711 0.63282 0.62781 0.0
H1953 H 0.04082 0.69096 0.57709 0.0
C1954 C 0.04341 0.71398 0.61242 0.0
C1955 C 0.04602 0.71571 0.63904 0.0
C1956 C 0.05259 0.63032 0.60729 0.0
C1957 C 0.04323 0.67119 0.6093 0.0
C1958 C 0.0544 0.60887 0.59326 0.0
C1959 C 0.04845 0.60495 0.56668 0.0
C1960 C 0.04499 0.64816 0.59467 0.0
C1961 C 0.04144 0.62342 0.55463 0.0
C1962 C 0.04186 0.69173 0.59747 0.0
C1963 C 0.04537 0.69435 0.64988 0.0
N1964 N 0.03991 0.64433 0.56875 0.0
N1965 N 0.04442 0.67302 0.63499 0.0
H1966 H 0.61317 0.83523 0.8856 0.0
H1967 H 0.64565 0.74852 0.78217 0.0
H1968 H 0.56403 0.79192 0.82538 0.0
H1969 H 0.68688 0.81759 0.81555 0.0
H1970 H 0.61516 0.76273 0.79701 0.0
H1971 H 0.64068 0.82751 0.86072 0.0
C1972 C 0.60821 0.8242 0.86702 0.0
C1973 C 0.58642 0.81406 0.85749 0.0
C1974 C 0.63082 0.77486 0.80062 0.0
C1975 C 0.61771 0.8049 0.82914 0.0
C1976 C 0.6482 0.76682 0.79211 0.0
C1977 C 0.66893 0.78169 0.79818 0.0
C1978 C 0.63438 0.79773 0.81552 0.0
C1979 C 0.67131 0.80524 0.81118 0.0
C1980 C 0.62386 0.81994 0.85277 0.0
C1981 C 0.58074 0.80004 0.83328 0.0
N1982 N 0.65435 0.81235 0.81985 0.0
N1983 N 0.59639 0.79546 0.82003 0.0
H1984 H 0.49565 0.47412 0.70974 0.0
H1985 H 0.53083 0.57777 0.63024 0.0
H1986 H 0.46954 0.53895 0.71566 0.0
H1987 H 0.52709 0.50249 0.60214 0.0
H1988 H 0.50964 0.56518 0.66266 0.0
H1989 H 0.509 0.48505 0.67148 0.0
C1990 C 0.49257 0.49056 0.70285 0.0
C1991 C 0.48149 0.50566 0.71592 0.0
C1992 C 0.51319 0.55146 0.64912 0.0
C1993 C 0.49709 0.51852 0.67239 0.0
C1994 C 0.52527 0.55862 0.63066 0.0
C1995 C 0.53084 0.54116 0.61362 0.0
C1996 C 0.5071 0.5267 0.65086 0.0
C1997 C 0.52322 0.51657 0.61495 0.0
C1998 C 0.50012 0.49675 0.68096 0.0
C1999 C 0.47791 0.52674 0.70608 0.0
N2000 N 0.51208 0.51008 0.63353 0.0
N2001 N 0.48601 0.53277 0.68513 0.0
H2002 H 0.82219 0.24991 0.04503 0.0
H2003 H 0.74123 0.21081 0.92055 0.0
H2004 H 0.79994 0.17428 0.01342 0.0
H2005 H 0.75046 0.28024 0.96745 0.0
H2006 H 0.75411 0.19367 0.95809 0.0
H2007 H 0.79062 0.25906 0.0204 0.0
C2008 C 0.81062 0.23516 0.03289 0.0
C2009 C 0.81383 0.21133 0.03109 0.0
C2010 C 0.75252 0.21243 0.96037 0.0
C2011 C 0.77749 0.22175 1.00237 0.0
C2012 C 0.74502 0.22221 0.93894 0.0
C2013 C 0.74621 0.24734 0.94066 0.0
C2014 C 0.76103 0.22805 0.98335 0.0
C2015 C 0.75021 0.26098 0.96499 0.0
C2016 C 0.79238 0.24036 0.019 0.0
C2017 C 0.79822 0.19299 0.01505 0.0
N2018 N 0.75831 0.25138 0.98532 0.0
N2019 N 0.78085 0.19864 1.0009 0.0
H2020 H 0.16975 0.53411 0.23432 0.0
H2021 H 0.05189 0.50099 0.1431 0.0
H2022 H 0.11312 0.48945 0.25076 0.0
H2023 H 0.10692 0.53867 0.11642 0.0
H2024 H 0.0754 0.49646 0.18154 0.0
H2025 H 0.14949 0.53528 0.1914 0.0
C2026 C 0.1534 0.52366 0.22871 0.0
C2027 C 0.14371 0.51074 0.24649 0.0
C2028 C 0.08263 0.50564 0.16743 0.0
C2029 C 0.11954 0.51318 0.19689 0.0
C2030 C 0.06903 0.50827 0.14507 0.0
C2031 C 0.07698 0.5202 0.12572 0.0
C2032 C 0.10501 0.5152 0.17163 0.0
C2033 C 0.09966 0.52914 0.13029 0.0
C2034 C 0.14161 0.52471 0.20412 0.0
C2035 C 0.12185 0.49894 0.23793 0.0
N2036 N 0.11268 0.52664 0.1526 0.0
N2037 N 0.1108 0.50052 0.21434 0.0
H2038 H 0.81262 0.84674 0.5186 0.0
H2039 H 0.84761 0.84109 0.38417 0.0
H2040 H 0.83935 0.91297 0.49252 0.0
H2041 H 0.78755 0.79773 0.39435 0.0
H2042 H 0.85117 0.86398 0.42688 0.0
H2043 H 0.80956 0.8247 0.47587 0.0
C2044 C 0.81794 0.85663 0.50387 0.0
C2045 C 0.8262 0.88172 0.50902 0.0
C2046 C 0.83729 0.8494 0.4197 0.0
C2047 C 0.82311 0.85649 0.46033 0.0
C2048 C 0.83534 0.83619 0.39554 0.0
C2049 C 0.8173 0.81743 0.38585 0.0
C2050 C 0.8214 0.84331 0.43447 0.0
C2051 C 0.8017 0.81205 0.40116 0.0
C2052 C 0.81609 0.84405 0.47953 0.0
C2053 C 0.83278 0.89365 0.48922 0.0
N2054 N 0.80422 0.82477 0.42485 0.0
N2055 N 0.83131 0.88085 0.4657 0.0
H2056 H 0.49785 0.49167 0.83949 0.0
H2057 H 0.51125 0.55938 0.9797 0.0
H2058 H 0.44933 0.52775 0.86424 0.0
H2059 H 0.53462 0.49331 0.96626 0.0
H2060 H 0.49273 0.55227 0.93548 0.0
H2061 H 0.51554 0.4956 0.88419 0.0
C2062 C 0.49087 0.50028 0.85432 0.0
C2063 C 0.47211 0.50941 0.8482 0.0
C2064 C 0.50189 0.53931 0.94221 0.0
C2065 C 0.49243 0.51438 0.89899 0.0
C2066 C 0.51261 0.54345 0.96739 0.0
C2067 C 0.52455 0.52695 0.97666 0.0
C2068 C 0.50345 0.51878 0.92593 0.0
C2069 C 0.52552 0.50643 0.95987 0.0
C2070 C 0.50092 0.50245 0.87974 0.0
C2071 C 0.46372 0.52038 0.86812 0.0
N2072 N 0.51527 0.50302 0.93518 0.0
N2073 N 0.47409 0.52285 0.89258 0.0
H2074 H 0.89139 0.28601 0.14711 0.0
H2075 H 0.84365 0.25829 0.27071 0.0
H2076 H 0.87217 0.21345 0.16384 0.0
H2077 H 0.83859 0.31942 0.23121 0.0
H2078 H 0.867 0.24528 0.24177 0.0
H2079 H 0.88821 0.30207 0.19012 0.0
C2080 C 0.88747 0.27341 0.1602 0.0
C2081 C 0.88101 0.24843 0.15157 0.0
C2082 C 0.86101 0.26172 0.23979 0.0
C2083 C 0.87688 0.26663 0.20033 0.0
C2084 C 0.84755 0.26896 0.25602 0.0
C2085 C 0.83886 0.28957 0.25286 0.0
C2086 C 0.86609 0.27559 0.22074 0.0
C2087 C 0.84461 0.30312 0.23392 0.0
C2088 C 0.88541 0.2826 0.18465 0.0
C2089 C 0.87663 0.23291 0.16951 0.0
N2090 N 0.85783 0.29585 0.21852 0.0
N2091 N 0.87382 0.24229 0.19289 0.0
H2092 H 0.18147 0.52364 0.41755 0.0
H2093 H 0.06528 0.53072 0.46121 0.0
H2094 H 0.123 0.52034 0.36483 0.0
H2095 H 0.12415 0.54365 0.51589 0.0
H2096 H 0.08604 0.52579 0.42673 0.0
H2097 H 0.16166 0.52966 0.4532 0.0
C2098 C 0.16452 0.52417 0.41318 0.0
C2099 C 0.15435 0.5214 0.3873 0.0
C2100 C 0.09462 0.52976 0.44619 0.0
C2101 C 0.13075 0.52829 0.42943 0.0
C2102 C 0.08259 0.53266 0.46628 0.0
C2103 C 0.09247 0.53787 0.49237 0.0
C2104 C 0.11728 0.53171 0.4513 0.0
C2105 C 0.11529 0.53985 0.49657 0.0
C2106 C 0.15306 0.52766 0.43388 0.0
C2107 C 0.13205 0.52235 0.38393 0.0
N2108 N 0.1266 0.53674 0.47669 0.0
N2109 N 0.12133 0.52554 0.40423 0.0
H2110 H 0.83303 0.90066 0.66194 0.0
H2111 H 0.81157 0.77323 0.71563 0.0
H2112 H 0.82555 0.82974 0.61852 0.0
H2113 H 0.81539 0.84094 0.76339 0.0
H2114 H 0.81819 0.79527 0.6805 0.0
H2115 H 0.82708 0.88093 0.69976 0.0
C2116 C 0.83003 0.88108 0.66026 0.0
C2117 C 0.83008 0.86695 0.63697 0.0
C2118 C 0.81767 0.8055 0.69862 0.0
C2119 C 0.82342 0.84435 0.67996 0.0
C2120 C 0.81396 0.79282 0.71877 0.0
C2121 C 0.81286 0.8052 0.74246 0.0
C2122 C 0.82028 0.83092 0.70193 0.0
C2123 C 0.81614 0.83068 0.74539 0.0
C2124 C 0.82676 0.86983 0.68185 0.0
C2125 C 0.82608 0.8416 0.636 0.0
N2126 N 0.8196 0.84273 0.72531 0.0
N2127 N 0.82302 0.8313 0.65699 0.0
H2128 H 0.75915 0.45158 0.56852 0.0
H2129 H 0.65065 0.4704 0.61235 0.0
H2130 H 0.70234 0.39481 0.55965 0.0
H2131 H 0.70746 0.52704 0.62172 0.0
H2132 H 0.6723 0.44023 0.6036 0.0
H2133 H 0.74359 0.47688 0.59736 0.0
C2134 C 0.74347 0.44434 0.57287 0.0
C2135 C 0.73177 0.42129 0.56122 0.0
C2136 C 0.68021 0.45918 0.60822 0.0
C2137 C 0.71381 0.45021 0.59414 0.0
C2138 C 0.66788 0.47636 0.61336 0.0
C2139 C 0.67734 0.50114 0.61737 0.0
C2140 C 0.70203 0.46697 0.60662 0.0
C2141 C 0.69964 0.50806 0.61859 0.0
C2142 C 0.73463 0.45877 0.58944 0.0
C2143 C 0.71174 0.41264 0.56791 0.0
N2144 N 0.71119 0.49106 0.61262 0.0
N2145 N 0.70322 0.42728 0.5836 0.0
H2146 H 0.21854 0.10763 0.51035 0.0
H2147 H 0.10933 0.088 0.56628 0.0
H2148 H 0.18949 0.16713 0.53466 0.0
H2149 H 0.11965 0.03529 0.50735 0.0
H2150 H 0.14184 0.1158 0.56044 0.0
H2151 H 0.1855 0.07915 0.51433 0.0
C2152 C 0.20526 0.11472 0.51642 0.0
C2153 C 0.20684 0.13989 0.52197 0.0
C2154 C 0.13692 0.09818 0.5487 0.0
C2155 C 0.16926 0.1074 0.52719 0.0
C2156 C 0.11829 0.08233 0.55194 0.0
C2157 C 0.11144 0.05943 0.53692 0.0
C2158 C 0.14925 0.09087 0.53083 0.0
C2159 C 0.12417 0.05287 0.51916 0.0
C2160 C 0.18642 0.09847 0.51865 0.0
C2161 C 0.18905 0.14795 0.52989 0.0
N2162 N 0.1425 0.0684 0.51672 0.0
N2163 N 0.1712 0.13184 0.53249 0.0
H2164 H 0.16295 0.98473 0.82173 0.0
H2165 H 0.27475 0.95384 0.79492 0.0
H2166 H 0.216 0.03657 0.80619 0.0
H2167 H 0.21925 0.89801 0.79644 0.0
H2168 H 0.2528 0.98408 0.79904 0.0
H2169 H 0.18246 0.95227 0.8123 0.0
C2170 C 0.17856 0.98923 0.81608 0.0
C2171 C 0.18796 1.01338 0.81493 0.0
C2172 C 0.24532 0.96521 0.79833 0.0
C2173 C 0.21031 0.97659 0.80437 0.0
C2174 C 0.25786 0.94784 0.7958 0.0
C2175 C 0.24887 0.92322 0.79512 0.0
C2176 C 0.22357 0.95812 0.80053 0.0
C2177 C 0.22696 0.91678 0.79714 0.0
C2178 C 0.18968 0.97074 0.81076 0.0
C2179 C 0.2082 0.01825 0.80754 0.0
N2180 N 0.21506 0.93415 0.79984 0.0
N2181 N 0.21872 1.00007 0.80272 0.0
H2182 H 0.2975 0.94193 0.9861 0.0
H2183 H 0.41303 0.96829 0.94513 0.0
H2184 H 0.32239 0.88821 0.94229 0.0
H2185 H 0.39394 1.0129 1.0047 0.0
H2186 H 0.37655 0.9433 0.93536 0.0
H2187 H 0.32912 0.97229 0.98384 0.0
C2188 C 0.30947 0.93654 0.97566 0.0
C2189 C 0.30752 0.9123 0.96485 0.0
C2190 C 0.38026 0.95877 0.9503 0.0
C2191 C 0.34384 0.94711 0.96232 0.0
C2192 C 0.40102 0.97315 0.95579 0.0
C2193 C 0.40651 0.99263 0.97586 0.0
C2194 C 0.36488 0.96397 0.96492 0.0
C2195 C 0.39042 0.99788 0.98928 0.0
C2196 C 0.32754 0.95393 0.97444 0.0
C2197 C 0.32336 0.90659 0.95117 0.0
N2198 N 0.37035 0.98352 0.98368 0.0
N2199 N 0.34106 0.92383 0.95061 0.0
H2200 H 0.92483 0.64962 0.81051 0.0
H2201 H 0.80964 0.69514 0.78422 0.0
H2202 H 0.86401 0.60071 0.78123 0.0
H2203 H 0.86998 0.74487 0.8134 0.0
H2204 H 0.82902 0.66137 0.78281 0.0
H2205 H 0.90588 0.68393 0.81145 0.0
C2206 C 0.90752 0.64579 0.80412 0.0
C2207 C 0.89652 0.6213 0.79564 0.0
C2208 C 0.83822 0.67961 0.78953 0.0
C2209 C 0.8738 0.66213 0.79686 0.0
C2210 C 0.82698 0.69931 0.79034 0.0
C2211 C 0.83767 0.72389 0.79893 0.0
C2212 C 0.86094 0.68352 0.79737 0.0
C2213 C 0.86047 0.72686 0.80654 0.0
C2214 C 0.89652 0.66576 0.80473 0.0
C2215 C 0.87378 0.61868 0.7879 0.0
N2216 N 0.87099 0.70743 0.80559 0.0
N2217 N 0.86354 0.6383 0.78871 0.0
H2218 H 0.80865 0.6005 0.04203 0.0
H2219 H 0.93722 0.6156 0.05346 0.0
H2220 H 0.85053 0.66802 0.0371 0.0
H2221 H 0.89315 0.54695 0.04781 0.0
H2222 H 0.90631 0.63557 0.04888 0.0
H2223 H 0.8399 0.5813 0.04639 0.0
C2224 C 0.82444 0.61137 0.04198 0.0
C2225 C 0.82686 0.63598 0.03919 0.0
C2226 C 0.90343 0.61613 0.04864 0.0
C2227 C 0.863 0.61393 0.04412 0.0
C2228 C 0.92112 0.60463 0.05109 0.0
C2229 C 0.91802 0.57942 0.05122 0.0
C2230 C 0.88236 0.60243 0.04634 0.0
C2231 C 0.8966 0.56642 0.0484 0.0
C2232 C 0.84233 0.60033 0.04439 0.0
C2233 C 0.84782 0.64902 0.03921 0.0
N2234 N 0.87974 0.57802 0.04617 0.0
N2235 N 0.86503 0.63787 0.04164 0.0
H2236 H 0.17083 0.1664 0.83636 0.0
H2237 H 0.29767 0.22156 0.8693 0.0
H2238 H 0.21596 0.12646 0.87027 0.0
H2239 H 0.25728 0.23174 0.8013 0.0
H2240 H 0.26664 0.19374 0.8791 0.0
H2241 H 0.20136 0.19882 0.8336 0.0
C2242 C 0.1871 0.16472 0.84376 0.0
C2243 C 0.19091 0.14368 0.85342 0.0
C2244 C 0.26459 0.20244 0.86226 0.0
C2245 C 0.2257 0.18056 0.85041 0.0
C2246 C 0.28223 0.21821 0.85664 0.0
C2247 C 0.27988 0.22937 0.83472 0.0
C2248 C 0.24445 0.19819 0.84606 0.0
C2249 C 0.25958 0.22429 0.81886 0.0
C2250 C 0.20447 0.18308 0.84198 0.0
C2251 C 0.21236 0.14232 0.86252 0.0
N2252 N 0.24261 0.2092 0.82489 0.0
N2253 N 0.22896 0.16049 0.86077 0.0
H2254 H 0.41552 0.95981 0.27322 0.0
H2255 H 0.3307 0.87778 0.3413 0.0
H2256 H 0.37961 0.99244 0.32401 0.0
H2257 H 0.35004 0.8501 0.27229 0.0
H2258 H 0.34988 0.91877 0.33768 0.0
H2259 H 0.39353 0.91978 0.27456 0.0
C2260 C 0.40274 0.95874 0.28438 0.0
C2261 C 0.39941 0.98019 0.29803 0.0
C2262 C 0.34994 0.9038 0.32326 0.0
C2263 C 0.37413 0.93303 0.30058 0.0
C2264 C 0.33895 0.88011 0.32534 0.0
C2265 C 0.33845 0.85976 0.30712 0.0
C2266 C 0.3612 0.90779 0.303 0.0
C2267 C 0.34967 0.86473 0.28693 0.0
C2268 C 0.39016 0.9356 0.28524 0.0
C2269 C 0.3827 0.97689 0.31257 0.0
N2270 N 0.36056 0.88781 0.28562 0.0
N2271 N 0.37103 0.95404 0.31366 0.0
H2272 H 0.59883 0.39347 0.67884 0.0
H2273 H 0.55604 0.4473 0.55512 0.0
H2274 H 0.58119 0.35019 0.60453 0.0
H2275 H 0.6015 0.49257 0.61759 0.0
H2276 H 0.56196 0.41149 0.57447 0.0
H2277 H 0.59698 0.43005 0.65866 0.0
C2278 C 0.59471 0.39164 0.65831 0.0
C2279 C 0.59021 0.36863 0.64341 0.0
C2280 C 0.57075 0.42924 0.58387 0.0
C2281 C 0.58759 0.41042 0.62022 0.0
C2282 C 0.56737 0.44975 0.57282 0.0
C2283 C 0.57827 0.47311 0.58465 0.0
C2284 C 0.58477 0.43197 0.60732 0.0
C2285 C 0.59277 0.47498 0.60767 0.0
C2286 C 0.59368 0.41254 0.6468 0.0
C2287 C 0.58489 0.36747 0.61685 0.0
N2288 N 0.59537 0.45479 0.61838 0.0
N2289 N 0.58348 0.38792 0.6062 0.0
H2290 H 0.44333 0.788 0.45557 0.0
H2291 H 0.37867 0.76321 0.31202 0.0
H2292 H 0.46974 0.7629 0.39061 0.0
H2293 H 0.35267 0.79323 0.375 0.0
H2294 H 0.41144 0.76223 0.34098 0.0
H2295 H 0.40998 0.789 0.42722 0.0
C2296 C 0.44219 0.78258 0.43534 0.0
C2297 C 0.45965 0.77527 0.42564 0.0
C2298 C 0.39866 0.76902 0.34864 0.0
C2299 C 0.42098 0.77651 0.39279 0.0
C2300 C 0.37979 0.76961 0.33205 0.0
C2301 C 0.36264 0.77822 0.34098 0.0
C2302 C 0.40073 0.77708 0.37473 0.0
C2303 C 0.36528 0.78627 0.36721 0.0
C2304 C 0.42302 0.78324 0.41913 0.0
C2305 C 0.45689 0.76859 0.39915 0.0
N2306 N 0.38394 0.78548 0.38315 0.0
N2307 N 0.43803 0.76937 0.38377 0.0
H2308 H 0.10866 0.73891 0.10249 0.0
H2309 H 0.03201 0.60924 0.09601 0.0
H2310 H 0.0584 0.72856 0.14771 0.0
H2311 H 0.09323 0.62 0.07028 0.0
H2312 H 0.03898 0.65279 0.11214 0.0
H2313 H 0.10074 0.69564 0.08767 0.0
C2314 C 0.09585 0.72758 0.10932 0.0
C2315 C 0.08416 0.73763 0.12643 0.0
C2316 C 0.05086 0.64556 0.10299 0.0
C2317 C 0.07493 0.68741 0.10921 0.0
C2318 C 0.04687 0.6207 0.09364 0.0
C2319 C 0.06205 0.6108 0.08167 0.0
C2320 C 0.07004 0.66075 0.10009 0.0
C2321 C 0.08104 0.62665 0.07934 0.0
C2322 C 0.0914 0.70271 0.10085 0.0
C2323 C 0.06788 0.7217 0.1346 0.0
N2324 N 0.08441 0.65072 0.08833 0.0
N2325 N 0.06366 0.69739 0.12581 0.0
H2326 H 0.05868 0.25445 0.879 0.0
H2327 H 0.18856 0.27802 0.89936 0.0
H2328 H 0.09983 0.2741 0.95269 0.0
H2329 H 0.14802 0.27242 0.82623 0.0
H2330 H 0.15614 0.27203 0.91893 0.0
H2331 H 0.09096 0.25635 0.85917 0.0
C2332 C 0.07446 0.2589 0.89105 0.0
C2333 C 0.07644 0.26414 0.91761 0.0
C2334 C 0.15433 0.27205 0.89859 0.0
C2335 C 0.11363 0.26643 0.89495 0.0
C2336 C 0.17287 0.27533 0.88735 0.0
C2337 C 0.17119 0.27593 0.86104 0.0
C2338 C 0.13376 0.26905 0.88348 0.0
C2339 C 0.15027 0.27252 0.84661 0.0
C2340 C 0.09293 0.26011 0.8797 0.0
C2341 C 0.09742 0.26995 0.93216 0.0
N2342 N 0.1325 0.26924 0.85795 0.0
N2343 N 0.1151 0.27095 0.9207 0.0
H2344 H 0.49284 0.74128 0.9169 0.0
H2345 H 0.50053 0.63787 0.96003 0.0
H2346 H 0.55709 0.7467 0.90024 0.0
H2347 H 0.56899 0.66654 0.96858 0.0
H2348 H 0.49412 0.66126 0.92564 0.0
H2349 H 0.49187 0.69965 0.92334 0.0
C2350 C 0.50647 0.73325 0.9137 0.0
C2351 C 0.52524 0.74737 0.90866 0.0
C2352 C 0.51055 0.66254 0.93506 0.0
C2353 C 0.52456 0.69969 0.91627 0.0
C2354 C 0.51429 0.64887 0.95455 0.0
C2355 C 0.5353 0.65103 0.968 0.0
C2356 C 0.52788 0.67903 0.9296 0.0
C2357 C 0.55242 0.66528 0.95962 0.0
C2358 C 0.50592 0.7093 0.9172 0.0
C2359 C 0.54242 0.73629 0.90444 0.0
N2360 N 0.54829 0.67919 0.94133 0.0
N2361 N 0.54196 0.71323 0.90918 0.0
H2362 H 0.13713 0.74518 0.68249 0.0
H2363 H 0.23114 0.79727 0.79428 0.0
H2364 H 0.12467 0.77174 0.7561 0.0
H2365 H 0.23556 0.7366 0.74043 0.0
H2366 H 0.19207 0.78852 0.78026 0.0
H2367 H 0.17296 0.7411 0.70257 0.0
C2368 C 0.14186 0.74973 0.70297 0.0
C2369 C 0.12818 0.75908 0.71772 0.0
C2370 C 0.20153 0.77691 0.77174 0.0
C2371 C 0.16905 0.75495 0.74058 0.0
C2372 C 0.2238 0.78205 0.77948 0.0
C2373 C 0.23647 0.76784 0.76807 0.0
C2374 C 0.19195 0.75783 0.75199 0.0
C2375 C 0.22624 0.74806 0.74943 0.0
C2376 C 0.1622 0.74729 0.71439 0.0
C2377 C 0.13486 0.76454 0.74414 0.0
N2378 N 0.20451 0.74389 0.74151 0.0
N2379 N 0.15511 0.76296 0.75473 0.0
H2380 H 0.05974 0.39926 0.42632 0.0
H2381 H 0.06948 0.45802 0.57039 0.0
H2382 H 0.0636 0.35579 0.48696 0.0
H2383 H 0.03944 0.4857 0.50567 0.0
H2384 H 0.07095 0.42138 0.5417 0.0
H2385 H 0.05754 0.43359 0.457 0.0
C2386 C 0.06037 0.39705 0.44614 0.0
C2387 C 0.06174 0.37472 0.45415 0.0
C2388 C 0.06379 0.43544 0.53401 0.0
C2389 C 0.05906 0.4137 0.48925 0.0
C2390 C 0.06281 0.45617 0.55033 0.0
C2391 C 0.05439 0.47489 0.54034 0.0
C2392 C 0.05658 0.43387 0.5077 0.0
C2393 C 0.04609 0.47175 0.51421 0.0
C2394 C 0.05891 0.41653 0.4636 0.0
C2395 C 0.06243 0.37276 0.48006 0.0
N2396 N 0.04764 0.45182 0.49878 0.0
N2397 N 0.06108 0.39205 0.49678 0.0
H2398 H 0.54213 0.27073 0.28222 0.0
H2399 H 0.41605 0.26095 0.27961 0.0
H2400 H 0.49583 0.25324 0.21223 0.0
H2401 H 0.46351 0.31891 0.32723 0.0
H2402 H 0.44508 0.24635 0.26137 0.0
H2403 H 0.51281 0.27646 0.30561 0.0
C2404 C 0.5257 0.26733 0.27193 0.0
C2405 C 0.52127 0.26149 0.24533 0.0
C2406 C 0.4491 0.26203 0.27609 0.0
C2407 C 0.48798 0.26783 0.27177 0.0
C2408 C 0.43264 0.2703 0.28651 0.0
C2409 C 0.43751 0.29118 0.30479 0.0
C2410 C 0.47056 0.27442 0.28448 0.0
C2411 C 0.45919 0.30282 0.31304 0.0
C2412 C 0.5091 0.27083 0.28521 0.0
C2413 C 0.49982 0.25774 0.23276 0.0
N2414 N 0.47499 0.29425 0.30283 0.0
N2415 N 0.48393 0.26098 0.24609 0.0
H2416 H 0.62117 0.59013 0.39652 0.0
H2417 H 0.60298 0.50226 0.49688 0.0
H2418 H 0.66675 0.54473 0.41442 0.0
H2419 H 0.59259 0.5752 0.51102 0.0
H2420 H 0.62297 0.51415 0.4631 0.0
H2421 H 0.60645 0.58191 0.43505 0.0
C2422 C 0.62818 0.57863 0.40868 0.0
C2423 C 0.64525 0.5682 0.40239 0.0
C2424 C 0.61651 0.52756 0.47387 0.0
C2425 C 0.62815 0.55819 0.44584 0.0
C2426 C 0.60515 0.5208 0.49308 0.0
C2427 C 0.59621 0.53777 0.50677 0.0
C2428 C 0.6183 0.55121 0.46785 0.0
C2429 C 0.59934 0.56157 0.50102 0.0
C2430 C 0.61983 0.57399 0.43061 0.0
C2431 C 0.6537 0.55331 0.41872 0.0
N2432 N 0.60979 0.56748 0.48169 0.0
N2433 N 0.64484 0.54841 0.43948 0.0
H2434 H 0.30189 0.88218 0.07683 0.0
H2435 H 0.3311 0.77334 0.13584 0.0
H2436 H 0.30798 0.81696 0.03075 0.0
H2437 H 0.35309 0.84607 0.17702 0.0
H2438 H 0.32779 0.78988 0.09637 0.0
H2439 H 0.32383 0.8709 0.11315 0.0
C2440 C 0.30795 0.86563 0.07427 0.0
C2441 C 0.3026 0.85021 0.05087 0.0
C2442 C 0.33382 0.80225 0.11399 0.0
C2443 C 0.32779 0.83736 0.09215 0.0
C2444 C 0.33595 0.79277 0.13672 0.0
C2445 C 0.34153 0.80835 0.16005 0.0
C2446 C 0.33674 0.82745 0.11463 0.0
C2447 C 0.34763 0.83339 0.15955 0.0
C2448 C 0.32068 0.85935 0.09492 0.0
C2449 C 0.31127 0.82921 0.04853 0.0
N2450 N 0.34434 0.84226 0.13723 0.0
N2451 N 0.32311 0.82322 0.06901 0.0
H2452 H 0.98712 0.55598 0.85171 0.0
H2453 H 0.99691 0.54342 1.00278 0.0
H2454 H 0.93321 0.55942 0.88995 0.0
H2455 H 0.04983 0.55066 0.96171 0.0
H2456 H 0.97259 0.54722 0.96328 0.0
H2457 H 1.00894 0.55194 0.89198 0.0
C2458 C 0.97968 0.55585 0.86849 0.0
C2459 C 0.95792 0.55815 0.86669 0.0
C2460 C 0.98954 0.54797 0.96292 0.0
C2461 C 0.98362 0.55326 0.91444 0.0
C2462 C 1.00356 0.54577 0.9857 0.0
C2463 C 0.02589 0.54671 0.98625 0.0
C2464 C 0.9976 0.55094 0.94002 0.0
C2465 C 0.033 0.5498 0.96288 0.0
C2466 C 0.99234 0.55354 0.89182 0.0
C2467 C 0.94975 0.55777 0.88983 0.0
N2468 N 1.0192 0.55167 0.9413 0.0
N2469 N 0.96241 0.55537 0.91237 0.0
H2470 H 0.30803 0.19253 0.61134 0.0
H2471 H 0.26293 0.25946 0.72546 0.0
H2472 H 0.24879 0.21901 0.60308 0.0
H2473 H 0.32865 0.24928 0.73392 0.0
H2474 H 0.25664 0.2404 0.68135 0.0
H2475 H 0.31493 0.20852 0.65725 0.0
C2476 C 0.2964 0.20139 0.61921 0.0
C2477 C 0.27791 0.20462 0.60335 0.0
C2478 C 0.27249 0.24234 0.69277 0.0
C2479 C 0.28562 0.22285 0.65545 0.0
C2480 C 0.27611 0.25328 0.71805 0.0
C2481 C 0.2964 0.25614 0.7335 0.0
C2482 C 0.28921 0.23396 0.68264 0.0
C2483 C 0.31279 0.24765 0.72268 0.0
C2484 C 0.3004 0.21067 0.6453 0.0
C2485 C 0.2634 0.21636 0.61448 0.0
N2486 N 0.30884 0.23689 0.69791 0.0
N2487 N 0.26757 0.225 0.63969 0.0
H2488 H 0.63949 0.54378 0.25897 0.0
H2489 H 0.57152 0.58556 0.14095 0.0
H2490 H 0.60151 0.59868 0.26717 0.0
H2491 H 0.58955 0.51578 0.13611 0.0
H2492 H 0.58611 0.59305 0.1865 0.0
H2493 H 0.62497 0.53562 0.21319 0.0
C2494 C 0.62816 0.55418 0.25117 0.0
C2495 C 0.62172 0.57196 0.26702 0.0
C2496 C 0.58685 0.57608 0.17549 0.0
C2497 C 0.60519 0.56279 0.2146 0.0
C2498 C 0.57859 0.57181 0.14943 0.0
C2499 C 0.57927 0.54998 0.13463 0.0
C2500 C 0.59618 0.55858 0.1869 0.0
C2501 C 0.58859 0.53282 0.14678 0.0
C2502 C 0.61982 0.54942 0.22506 0.0
C2503 C 0.6069 0.58475 0.25579 0.0
N2504 N 0.59679 0.53754 0.17218 0.0
N2505 N 0.59926 0.58001 0.23031 0.0
H2506 H 0.24717 0.89441 0.93323 0.0
H2507 H 0.26409 0.76915 0.86628 0.0
H2508 H 0.21551 0.82461 0.94716 0.0
H2509 H 0.29338 0.83857 0.84918 0.0
H2510 H 0.24161 0.78909 0.89124 0.0
H2511 H 0.25743 0.87465 0.89539 0.0
C2512 C 0.2413 0.87507 0.92749 0.0
C2513 C 0.2308 0.86098 0.94343 0.0
C2514 C 0.25284 0.80002 0.88189 0.0
C2515 C 0.24321 0.83821 0.90108 0.0
C2516 C 0.26587 0.78867 0.86801 0.0
C2517 C 0.28063 0.8024 0.85593 0.0
C2518 C 0.25481 0.82531 0.88388 0.0
C2519 C 0.28204 0.82747 0.85813 0.0
C2520 C 0.24757 0.8637 0.90619 0.0
C2521 C 0.22383 0.83599 0.93539 0.0
N2522 N 0.26943 0.83821 0.87204 0.0
N2523 N 0.23068 0.82528 0.91514 0.0
H2524 H 0.9912 0.57526 0.74638 0.0
H2525 H 0.98103 0.52626 0.59473 0.0
H2526 H 0.93078 0.53497 0.7025 0.0
H2527 H 0.04079 0.55764 0.64583 0.0
H2528 H 0.96152 0.53113 0.63095 0.0
H2529 H 1.00779 0.57181 0.70833 0.0
C2530 C 0.98102 0.5663 0.72858 0.0
C2531 C 0.95896 0.55631 0.7284 0.0
C2532 C 0.97891 0.53697 0.63433 0.0
C2533 C 0.97893 0.55119 0.68304 0.0
C2534 C 0.99025 0.53415 0.61338 0.0
C2535 C 1.01308 0.54131 0.61643 0.0
C2536 C 0.9901 0.54741 0.65919 0.0
C2537 C 0.02343 0.55152 0.64173 0.0
C2538 C 0.99079 0.56401 0.70658 0.0
C2539 C 0.94747 0.54399 0.70417 0.0
N2540 N 1.01211 0.55422 0.66148 0.0
N2541 N 0.95743 0.54184 0.68293 0.0
H2542 H 0.27191 0.23081 0.49007 0.0
H2543 H 0.28884 0.23215 0.34543 0.0
H2544 H 0.27719 0.16695 0.44142 0.0
H2545 H 0.29796 0.2967 0.40013 0.0
H2546 H 0.2795 0.20744 0.37819 0.0
H2547 H 0.27615 0.25429 0.45528 0.0
C2548 C 0.27374 0.22161 0.47196 0.0
C2549 C 0.27429 0.1968 0.46878 0.0
C2550 C 0.28341 0.227 0.383 0.0
C2551 C 0.27927 0.22385 0.42863 0.0
C2552 C 0.28865 0.24115 0.36428 0.0
C2553 C 0.29425 0.26657 0.37007 0.0
C2554 C 0.28357 0.2383 0.40773 0.0
C2555 C 0.2938 0.27719 0.39484 0.0
C2556 C 0.27625 0.23512 0.4521 0.0
C2557 C 0.27668 0.18599 0.44479 0.0
N2558 N 0.2886 0.26304 0.41272 0.0
N2559 N 0.27916 0.19959 0.42568 0.0
H2560 H 0.35945 0.61048 0.5523 0.0
H2561 H 0.46618 0.59952 0.50043 0.0
H2562 H 0.4016 0.67174 0.5332 0.0
H2563 H 0.41635 0.53768 0.50253 0.0
H2564 H 0.44094 0.62611 0.50707 0.0
H2565 H 0.37835 0.58334 0.53028 0.0
C2566 C 0.37267 0.61821 0.5434 0.0
C2567 C 0.37923 0.64338 0.5449 0.0
C2568 C 0.43531 0.6067 0.50545 0.0
C2569 C 0.40089 0.61244 0.51962 0.0
C2570 C 0.44967 0.59156 0.50154 0.0
C2571 C 0.44326 0.56651 0.50117 0.0
C2572 C 0.41459 0.59668 0.50954 0.0
C2573 C 0.42181 0.55694 0.50273 0.0
C2574 C 0.38334 0.6027 0.53064 0.0
C2575 C 0.3962 0.65242 0.5327 0.0
N2576 N 0.40832 0.57212 0.5074 0.0
N2577 N 0.40666 0.63695 0.52084 0.0
H2578 H 0.88894 0.96903 0.58522 0.0
H2579 H 1.00804 0.98224 0.54978 0.0
H2580 H 0.91667 0.90869 0.55992 0.0
H2581 H 0.98339 0.04313 0.57975 0.0
H2582 H 0.97459 0.95508 0.55381 0.0
H2583 H 0.92313 0.99666 0.58382 0.0
C2584 C 0.90214 0.96153 0.5795 0.0
C2585 C 0.89968 0.93636 0.57266 0.0
C2586 C 0.97652 0.97437 0.55971 0.0
C2587 C 0.93896 0.96797 0.57087 0.0
C2588 C 0.99578 0.98986 0.55761 0.0
C2589 C 0.99878 1.01495 0.56486 0.0
C2590 C 0.95993 0.98402 0.56896 0.0
C2591 C 0.98186 0.02386 0.57406 0.0
C2592 C 0.92169 0.97734 0.57866 0.0
C2593 C 0.91753 0.92786 0.56534 0.0
N2594 N 0.96324 1.00849 0.57583 0.0
N2595 N 0.9362 0.94353 0.56459 0.0
H2596 H 0.89779 0.04771 0.24384 0.0
H2597 H 0.89102 0.17692 0.31365 0.0
H2598 H 0.9508 0.09327 0.29772 0.0
H2599 H 0.84512 0.13831 0.2477 0.0
H2600 H 0.91372 0.14732 0.30743 0.0
H2601 H 0.87877 0.08125 0.24413 0.0
C2602 C 0.90555 0.06489 0.2555 0.0
C2603 C 0.92586 0.06766 0.27088 0.0
C2604 C 0.89876 0.14545 0.29421 0.0
C2605 C 0.90402 0.10608 0.27163 0.0
C2606 C 0.8858 0.16243 0.29767 0.0
C2607 C 0.86594 0.16005 0.28135 0.0
C2608 C 0.89178 0.12578 0.27439 0.0
C2609 C 0.86 0.14063 0.26116 0.0
C2610 C 0.89467 0.08405 0.25567 0.0
C2611 C 0.93516 0.09034 0.28557 0.0
N2612 N 0.87274 0.12418 0.25841 0.0
N2613 N 0.92405 0.10859 0.28583 0.0
H2614 H 0.76714 0.20715 0.07191 0.0
H2615 H 0.70221 0.10901 0.14026 0.0
H2616 H 0.8002 0.17224 0.12839 0.0
H2617 H 0.68388 0.11398 0.06055 0.0
H2618 H 0.7359 0.13791 0.14141 0.0
H2619 H 0.73317 0.1798 0.07372 0.0
C2620 C 0.76713 0.1941 0.0851 0.0
C2621 C 0.78638 0.19186 0.10006 0.0
C2622 C 0.72441 0.13257 0.12374 0.0
C2623 C 0.74788 0.16071 0.10208 0.0
C2624 C 0.70528 0.1159 0.12294 0.0
C2625 C 0.69003 0.10902 0.10026 0.0
C2626 C 0.72809 0.14276 0.1019 0.0
C2627 C 0.69482 0.11909 0.07861 0.0
C2628 C 0.74786 0.17838 0.08589 0.0
C2629 C 0.78563 0.17441 0.11652 0.0
N2630 N 0.71335 0.13563 0.08003 0.0
N2631 N 0.76661 0.15944 0.11715 0.0
H2632 H 0.18244 0.42327 0.31947 0.0
H2633 H 0.29697 0.37691 0.31891 0.0
H2634 H 0.24257 0.47152 0.31912 0.0
H2635 H 0.23607 0.32686 0.30909 0.0
H2636 H 0.2778 0.41086 0.32065 0.0
H2637 H 0.20114 0.38873 0.31733 0.0
C2638 C 0.19955 0.42694 0.31894 0.0
C2639 C 0.21041 0.45133 0.31945 0.0
C2640 C 0.26844 0.39253 0.31815 0.0
C2641 C 0.23289 0.41018 0.31715 0.0
C2642 C 0.27958 0.37271 0.31717 0.0
C2643 C 0.2687 0.34797 0.31385 0.0
C2644 C 0.24564 0.38863 0.31604 0.0
C2645 C 0.2458 0.34501 0.31171 0.0
C2646 C 0.2104 0.40681 0.3177 0.0
C2647 C 0.2329 0.45366 0.31873 0.0
N2648 N 0.23541 0.36457 0.31291 0.0
N2649 N 0.24302 0.43394 0.31774 0.0
H2650 H 0.25576 0.40623 0.0669 0.0
H2651 H 0.20992 0.52786 0.09139 0.0
H2652 H 0.29652 0.47606 0.09784 0.0
H2653 H 0.17072 0.45954 0.05239 0.0
H2654 H 0.24122 0.5088 0.09671 0.0
H2655 H 0.22416 0.42487 0.06463 0.0
C2656 C 0.2581 0.42548 0.07342 0.0
C2657 C 0.27896 0.43955 0.08257 0.0
C2658 C 0.22577 0.49795 0.08705 0.0
C2659 C 0.24255 0.46118 0.0799 0.0
C2660 C 0.2078 0.50887 0.08385 0.0
C2661 C 0.18743 0.49546 0.07121 0.0
C2662 C 0.22355 0.47328 0.07766 0.0
C2663 C 0.18588 0.47071 0.06248 0.0
C2664 C 0.23998 0.43615 0.07203 0.0
C2665 C 0.28082 0.46445 0.09066 0.0
N2666 N 0.20362 0.46052 0.06579 0.0
N2667 N 0.26292 0.47444 0.08909 0.0
H2668 H 0.94179 0.91735 0.30621 0.0
H2669 H 0.81794 0.85313 0.25475 0.0
H2670 H 0.89887 0.95019 0.25784 0.0
H2671 H 0.85544 0.84043 0.32368 0.0
H2672 H 0.84863 0.88463 0.25006 0.0
H2673 H 0.91165 0.88407 0.30652 0.0
C2674 C 0.9261 0.91748 0.29542 0.0
C2675 C 0.92291 0.93676 0.2821 0.0
C2676 C 0.85013 0.87472 0.26605 0.0
C2677 C 0.88821 0.89856 0.28243 0.0
C2678 C 0.83267 0.85679 0.26872 0.0
C2679 C 0.83432 0.8438 0.28935 0.0
C2680 C 0.86936 0.87944 0.28403 0.0
C2681 C 0.85369 0.84939 0.30704 0.0
C2682 C 0.90885 0.89851 0.29573 0.0
C2683 C 0.90209 0.93583 0.26852 0.0
N2684 N 0.87044 0.86665 0.30391 0.0
N2685 N 0.88553 0.91708 0.26905 0.0
H2686 H 0.72755 0.07872 0.80658 0.0
H2687 H 0.75378 0.22541 0.84951 0.0
H2688 H 0.69111 0.11591 0.85305 0.0
H2689 H 0.77945 0.19225 0.78804 0.0
H2690 H 0.73396 0.18512 0.85413 0.0
H2691 H 0.74961 0.11858 0.80288 0.0
C2692 C 0.72432 0.09504 0.81643 0.0
C2693 C 0.70718 0.09328 0.83037 0.0
C2694 C 0.74394 0.1865 0.83961 0.0
C2695 C 0.7328 0.13993 0.82601 0.0
C2696 C 0.75545 0.20977 0.83697 0.0
C2697 C 0.76862 0.21292 0.81826 0.0
C2698 C 0.74547 0.16541 0.82372 0.0
C2699 C 0.76963 0.19128 0.80272 0.0
C2700 C 0.7369 0.11803 0.81409 0.0
C2701 C 0.70395 0.11574 0.84213 0.0
N2702 N 0.75846 0.16884 0.80583 0.0
N2703 N 0.71643 0.13761 0.83978 0.0
loop_
_geom_bond_atom_site_label_1
_geom_bond_atom_site_label_2
_geom_bond_distance
_geom_bond_site_symmetry_2
_ccdc_geom_bond_type
Co0 O1 2.216 . S
Co0 O2 2.091 . S
Co0 O4 2.004 1_455 S
Co0 O10 2.021 . S
Co0 O12 2.137 . S
Co0 O13 2.244 . S
O1 Co0 2.216 . S
O1 C8 1.247 . S
O2 Co0 2.091 . S
O2 C8 1.261 . S
C3 O12 1.247 . S
C3 O13 1.272 . S
O4 Co0 2.004 1_655 S
O4 C9 1.259 . S
Co5 O6 2.061 . S
Co5 O11 2.052 . S
Co5 O13 2.135 1_655 S
O6 Co5 2.061 . S
O6 C9 1.235 . S
C7 O10 1.238 1_655 S
C7 O11 1.241 . S
C8 O1 1.247 . S
C8 O2 1.261 . S
C9 O4 1.259 . S
C9 O6 1.235 . S
O10 Co0 2.021 . S
O10 C7 1.238 1_455 S
O11 Co5 2.052 . S
O11 C7 1.241 . S
O12 Co0 2.137 . S
O12 C3 1.247 . S
O13 Co0 2.244 . S
O13 C3 1.272 . S
O13 Co5 2.135 1_455 S
Co14 O15 2.216 . S
Co14 O16 2.091 . S
Co14 O18 2.004 . S
Co14 O24 2.021 . S
Co14 O26 2.137 . S
Co14 O27 2.244 . S
O15 Co14 2.216 . S
O15 C22 1.247 . S
O16 Co14 2.091 . S
O16 C22 1.261 . S
C17 O26 1.247 . S
C17 O27 1.272 . S
O18 Co14 2.004 . S
O18 C23 1.259 . S
Co19 O20 2.061 . S
Co19 O25 2.052 . S
Co19 O27 2.135 . S
O20 Co19 2.061 . S
O20 C23 1.235 . S
C21 O24 1.238 . S
C21 O25 1.241 . S
C22 O15 1.247 . S
C22 O16 1.261 . S
C23 O18 1.259 . S
C23 O20 1.235 . S
O24 Co14 2.021 . S
O24 C21 1.238 . S
O25 Co19 2.052 . S
O25 C21 1.241 . S
O26 Co14 2.137 . S
O26 C17 1.247 . S
O27 Co14 2.244 . S
O27 C17 1.272 . S
O27 Co19 2.135 . S
Co28 O29 2.216 . S
Co28 O30 2.091 . S
Co28 O32 2.004 . S
Co28 O38 2.021 . S
Co28 O40 2.137 . S
Co28 O41 2.244 . S
O29 Co28 2.216 . S
O29 C36 1.247 . S
O30 Co28 2.091 . S
O30 C36 1.261 . S
C31 O40 1.247 . S
C31 O41 1.272 . S
O32 Co28 2.004 . S
O32 C37 1.259 . S
Co33 O34 2.061 . S
Co33 O39 2.052 . S
Co33 O41 2.135 . S
O34 Co33 2.061 . S
O34 C37 1.235 . S
C35 O38 1.238 . S
C35 O39 1.241 . S
C36 O29 1.247 . S
C36 O30 1.261 . S
C37 O32 1.259 . S
C37 O34 1.235 . S
O38 Co28 2.021 . S
O38 C35 1.238 . S
O39 Co33 2.052 . S
O39 C35 1.241 . S
O40 Co28 2.137 . S
O40 C31 1.247 . S
O41 Co28 2.244 . S
O41 C31 1.272 . S
O41 Co33 2.135 . S
Co42 O43 2.216 . S
Co42 O44 2.091 . S
Co42 O46 2.004 . S
Co42 O52 2.021 . S
Co42 O54 2.137 . S
Co42 O55 2.244 . S
O43 Co42 2.216 . S
O43 C50 1.247 . S
O44 Co42 2.091 . S
O44 C50 1.261 . S
C45 O54 1.247 . S
C45 O55 1.272 . S
O46 Co42 2.004 . S
O46 C51 1.259 . S
Co47 O48 2.061 . S
Co47 O53 2.052 . S
Co47 O55 2.135 . S
O48 Co47 2.061 . S
O48 C51 1.235 . S
C49 O52 1.238 . S
C49 O53 1.241 . S
C50 O43 1.247 . S
C50 O44 1.261 . S
C51 O46 1.259 . S
C51 O48 1.235 . S
O52 Co42 2.021 . S
O52 C49 1.238 . S
O53 Co47 2.052 . S
O53 C49 1.241 . S
O54 Co42 2.137 . S
O54 C45 1.247 . S
O55 Co42 2.244 . S
O55 C45 1.272 . S
O55 Co47 2.135 . S
Co56 O57 2.216 . S
Co56 O58 2.091 . S
Co56 O60 2.004 . S
Co56 O66 2.021 . S
Co56 O68 2.137 . S
Co56 O69 2.244 . S
O57 Co56 2.216 . S
O57 C64 1.247 . S
O58 Co56 2.091 . S
O58 C64 1.261 . S
C59 O68 1.247 . S
C59 O69 1.272 . S
O60 Co56 2.004 . S
O60 C65 1.259 . S
Co61 O62 2.061 . S
Co61 O67 2.052 . S
Co61 O69 2.135 . S
O62 Co61 2.061 . S
O62 C65 1.235 . S
C63 O66 1.238 . S
C63 O67 1.241 . S
C64 O57 1.247 . S
C64 O58 1.261 . S
C65 O60 1.259 . S
C65 O62 1.235 . S
O66 Co56 2.021 . S
O66 C63 1.238 . S
O67 Co61 2.052 . S
O67 C63 1.241 . S
O68 Co56 2.137 . S
O68 C59 1.247 . S
O69 Co56 2.244 . S
O69 C59 1.272 . S
O69 Co61 2.135 . S
Co70 O71 2.216 . S
Co70 O72 2.091 . S
Co70 O74 2.004 . S
Co70 O80 2.021 . S
Co70 O82 2.137 . S
Co70 O83 2.244 . S
O71 Co70 2.216 . S
O71 C78 1.247 . S
O72 Co70 2.091 . S
O72 C78 1.261 . S
C73 O82 1.247 . S
C73 O83 1.272 . S
O74 Co70 2.004 . S
O74 C79 1.259 . S
Co75 O76 2.061 . S
Co75 O81 2.052 . S
Co75 O83 2.135 . S
O76 Co75 2.061 . S
O76 C79 1.235 . S
C77 O80 1.238 . S
C77 O81 1.241 . S
C78 O71 1.247 . S
C78 O72 1.261 . S
C79 O74 1.259 . S
C79 O76 1.235 . S
O80 Co70 2.021 . S
O80 C77 1.238 . S
O81 Co75 2.052 . S
O81 C77 1.241 . S
O82 Co70 2.137 . S
O82 C73 1.247 . S
O83 Co70 2.244 . S
O83 C73 1.272 . S
O83 Co75 2.135 . S
Co84 O85 2.216 . S
Co84 O86 2.091 . S
Co84 O88 2.004 . S
Co84 O94 2.021 . S
Co84 O96 2.137 . S
Co84 O97 2.244 . S
O85 Co84 2.216 . S
O85 C92 1.247 . S
O86 Co84 2.091 . S
O86 C92 1.261 . S
C87 O96 1.247 . S
C87 O97 1.272 . S
O88 Co84 2.004 . S
O88 C93 1.259 . S
Co89 O90 2.061 . S
Co89 O95 2.052 . S
Co89 O97 2.135 . S
O90 Co89 2.061 . S
O90 C93 1.235 . S
C91 O94 1.238 . S
C91 O95 1.241 . S
C92 O85 1.247 . S
C92 O86 1.261 . S
C93 O88 1.259 . S
C93 O90 1.235 . S
O94 Co84 2.021 . S
O94 C91 1.238 . S
O95 Co89 2.052 . S
O95 C91 1.241 . S
O96 Co84 2.137 . S
O96 C87 1.247 . S
O97 Co84 2.244 . S
O97 C87 1.272 . S
O97 Co89 2.135 . S
Co98 O99 2.216 . S
Co98 O100 2.091 . S
Co98 O102 2.004 1_455 S
Co98 O108 2.021 . S
Co98 O110 2.137 . S
Co98 O111 2.244 . S
O99 Co98 2.216 . S
O99 C106 1.247 . S
O100 Co98 2.091 . S
O100 C106 1.261 . S
C101 O110 1.247 . S
C101 O111 1.272 . S
O102 Co98 2.004 1_655 S
O102 C107 1.259 . S
Co103 O104 2.061 . S
Co103 O109 2.016 1_655 S
Co103 O111 2.135 1_655 S
O104 Co103 2.061 . S
O104 C107 1.235 . S
C105 O108 1.238 . S
C105 O109 1.273 . S
C106 O99 1.247 . S
C106 O100 1.261 . S
C107 O102 1.259 . S
C107 O104 1.235 . S
O108 Co98 2.021 . S
O108 C105 1.238 . S
O109 Co103 2.016 1_455 S
O109 C105 1.273 . S
O110 Co98 2.137 . S
O110 C101 1.247 . S
O111 Co98 2.244 . S
O111 C101 1.272 . S
O111 Co103 2.135 1_455 S
Co112 O113 2.216 . S
Co112 O114 2.091 . S
Co112 O116 2.004 1_545 S
Co112 O122 2.021 . S
Co112 O124 2.137 . S
Co112 O125 2.244 . S
O113 Co112 2.216 . S
O113 C120 1.247 . S
O114 Co112 2.091 . S
O114 C120 1.261 . S
C115 O124 1.247 . S
C115 O125 1.272 . S
O116 Co112 2.004 1_565 S
O116 C121 1.259 . S
Co117 O118 2.061 . S
Co117 O123 2.052 1_565 S
Co117 O125 2.135 1_565 S
O118 Co117 2.061 . S
O118 C121 1.235 . S
C119 O122 1.238 . S
C119 O123 1.241 . S
C120 O113 1.247 . S
C120 O114 1.261 . S
C121 O116 1.259 . S
C121 O118 1.235 . S
O122 Co112 2.021 . S
O122 C119 1.238 . S
O123 Co117 2.052 1_545 S
O123 C119 1.241 . S
O124 Co112 2.137 . S
O124 C115 1.247 . S
O125 Co112 2.244 . S
O125 C115 1.272 . S
O125 Co117 2.135 1_545 S
Co126 O127 2.216 . S
Co126 O128 2.091 . S
Co126 O130 2.004 . S
Co126 O136 2.021 . S
Co126 O138 2.137 . S
Co126 O139 2.244 . S
O127 Co126 2.216 . S
O127 C134 1.247 . S
O128 Co126 2.091 . S
O128 C134 1.261 . S
C129 O138 1.247 . S
C129 O139 1.272 . S
O130 Co126 2.004 . S
O130 C135 1.259 . S
Co131 O132 2.061 . S
Co131 O137 2.052 . S
Co131 O139 2.135 . S
O132 Co131 2.061 . S
O132 C135 1.235 . S
C133 O136 1.238 . S
C133 O137 1.241 . S
C134 O127 1.247 . S
C134 O128 1.261 . S
C135 O130 1.259 . S
C135 O132 1.235 . S
O136 Co126 2.021 . S
O136 C133 1.238 . S
O137 Co131 2.052 . S
O137 C133 1.241 . S
O138 Co126 2.137 . S
O138 C129 1.247 . S
O139 Co126 2.244 . S
O139 C129 1.272 . S
O139 Co131 2.135 . S
Co140 O141 2.216 1_545 S
Co140 O142 2.091 . S
Co140 O144 2.004 . S
Co140 O150 2.021 . S
Co140 O152 2.137 . S
Co140 O153 2.244 . S
O141 Co140 2.216 1_565 S
O141 C148 1.247 . S
O142 Co140 2.091 . S
O142 C148 1.261 1_545 S
C143 O152 1.247 . S
C143 O153 1.272 . S
O144 Co140 2.004 . S
O144 C149 1.259 . S
Co145 O146 2.061 . S
Co145 O151 2.052 . S
Co145 O153 2.135 . S
O146 Co145 2.061 . S
O146 C149 1.235 . S
C147 O150 1.238 . S
C147 O151 1.241 . S
C148 O141 1.247 . S
C148 O142 1.261 1_565 S
C149 O144 1.259 . S
C149 O146 1.235 . S
O150 Co140 2.021 . S
O150 C147 1.238 . S
O151 Co145 2.052 . S
O151 C147 1.241 . S
O152 Co140 2.137 . S
O152 C143 1.247 . S
O153 Co140 2.244 . S
O153 C143 1.272 . S
O153 Co145 2.135 . S
Co154 O155 2.216 . S
Co154 O156 2.091 1_556 S
Co154 O158 2.009 1_556 S
Co154 O164 2.021 1_556 S
Co154 O166 2.137 . S
Co154 O167 2.244 . S
O155 Co154 2.216 . S
O155 C162 1.247 . S
O156 Co154 2.091 1_554 S
O156 C162 1.261 1_554 S
C157 O166 1.247 . S
C157 O167 1.272 . S
O158 Co154 2.009 1_554 S
O158 C163 1.263 . S
Co159 O160 2.061 1_556 S
Co159 O165 2.052 1_556 S
Co159 O167 2.135 . S
O160 Co159 2.061 1_554 S
O160 C163 1.235 . S
C161 O164 1.238 . S
C161 O165 1.241 . S
C162 O155 1.247 . S
C162 O156 1.261 1_556 S
C163 O158 1.263 . S
C163 O160 1.235 . S
O164 Co154 2.021 1_554 S
O164 C161 1.238 . S
O165 Co159 2.052 1_554 S
O165 C161 1.241 . S
O166 Co154 2.137 . S
O166 C157 1.247 . S
O167 Co154 2.244 . S
O167 C157 1.272 . S
O167 Co159 2.135 . S
Co168 O169 2.216 . S
Co168 O170 2.091 . S
Co168 O172 2.004 . S
Co168 O178 2.021 . S
Co168 O180 2.137 . S
Co168 O181 2.244 . S
O169 Co168 2.216 . S
O169 C176 1.247 . S
O170 Co168 2.091 . S
O170 C176 1.261 . S
C171 O180 1.247 . S
C171 O181 1.272 . S
O172 Co168 2.004 . S
O172 C177 1.259 . S
Co173 O174 2.061 . S
Co173 O179 2.052 . S
Co173 O181 2.135 . S
O174 Co173 2.061 . S
O174 C177 1.235 . S
C175 O178 1.238 . S
C175 O179 1.241 . S
C176 O169 1.247 . S
C176 O170 1.261 . S
C177 O172 1.259 . S
C177 O174 1.235 . S
O178 Co168 2.021 . S
O178 C175 1.238 . S
O179 Co173 2.052 . S
O179 C175 1.241 . S
O180 Co168 2.137 . S
O180 C171 1.247 . S
O181 Co168 2.244 . S
O181 C171 1.272 . S
O181 Co173 2.135 . S
Co182 O183 2.216 . S
Co182 O184 2.091 . S
Co182 O186 2.004 . S
Co182 O192 2.021 . S
Co182 O194 2.137 . S
Co182 O195 2.244 . S
O183 Co182 2.216 . S
O183 C190 1.247 . S
O184 Co182 2.091 . S
O184 C190 1.261 . S
C185 O194 1.247 . S
C185 O195 1.272 . S
O186 Co182 2.004 . S
O186 C191 1.259 . S
Co187 O188 2.061 . S
Co187 O193 2.052 . S
Co187 O195 2.135 . S
O188 Co187 2.061 . S
O188 C191 1.235 . S
C189 O192 1.238 . S
C189 O193 1.241 . S
C190 O183 1.247 . S
C190 O184 1.261 . S
C191 O186 1.259 . S
C191 O188 1.235 . S
O192 Co182 2.021 . S
O192 C189 1.238 . S
O193 Co187 2.052 . S
O193 C189 1.241 . S
O194 Co182 2.137 . S
O194 C185 1.247 . S
O195 Co182 2.244 . S
O195 C185 1.272 . S
O195 Co187 2.135 . S
Co196 O197 2.216 . S
Co196 O198 2.091 . S
Co196 O200 2.004 . S
Co196 O206 2.021 . S
Co196 O208 2.137 . S
Co196 O209 2.244 . S
O197 Co196 2.216 . S
O197 C204 1.247 . S
O198 Co196 2.091 . S
O198 C204 1.261 . S
C199 O208 1.247 . S
C199 O209 1.272 . S
O200 Co196 2.004 . S
O200 C205 1.259 . S
Co201 O202 2.061 . S
Co201 O207 2.052 . S
Co201 O209 2.135 . S
O202 Co201 2.061 . S
O202 C205 1.235 . S
C203 O206 1.238 . S
C203 O207 1.241 . S
C204 O197 1.247 . S
C204 O198 1.261 . S
C205 O200 1.259 . S
C205 O202 1.235 . S
O206 Co196 2.021 . S
O206 C203 1.238 . S
O207 Co201 2.052 . S
O207 C203 1.241 . S
O208 Co196 2.137 . S
O208 C199 1.247 . S
O209 Co196 2.244 . S
O209 C199 1.272 . S
O209 Co201 2.135 . S
Co210 O211 2.216 . S
Co210 O212 2.091 . S
Co210 O214 2.004 . S
Co210 O220 2.021 . S
Co210 O222 2.137 . S
Co210 O223 2.244 . S
O211 Co210 2.216 . S
O211 C218 1.247 . S
O212 Co210 2.091 . S
O212 C218 1.261 . S
C213 O222 1.247 . S
C213 O223 1.272 . S
O214 Co210 2.004 . S
O214 C219 1.259 . S
Co215 O216 2.061 . S
Co215 O221 2.052 . S
Co215 O223 2.135 . S
O216 Co215 2.061 . S
O216 C219 1.235 . S
C217 O220 1.238 . S
C217 O221 1.241 . S
C218 O211 1.247 . S
C218 O212 1.261 . S
C219 O214 1.259 . S
C219 O216 1.235 . S
O220 Co210 2.021 . S
O220 C217 1.238 . S
O221 Co215 2.052 . S
O221 C217 1.241 . S
O222 Co210 2.137 . S
O222 C213 1.247 . S
O223 Co210 2.244 . S
O223 C213 1.272 . S
O223 Co215 2.135 . S
Co224 O225 2.216 . S
Co224 O226 2.091 . S
Co224 O228 2.004 1_545 S
Co224 O234 2.021 . S
Co224 O236 2.137 . S
Co224 O237 2.244 1_545 S
O225 Co224 2.216 . S
O225 C232 1.247 . S
O226 Co224 2.091 . S
O226 C232 1.261 . S
C227 O236 1.247 . S
C227 O237 1.272 1_545 S
O228 Co224 2.004 1_565 S
O228 C233 1.259 . S
Co229 O230 2.061 . S
Co229 O235 2.052 . S
Co229 O237 2.135 . S
O230 Co229 2.061 . S
O230 C233 1.235 . S
C231 O234 1.235 1_565 S
C231 O235 1.241 . S
C232 O225 1.247 . S
C232 O226 1.261 . S
C233 O228 1.259 . S
C233 O230 1.235 . S
O234 Co224 2.021 . S
O234 C231 1.235 1_545 S
O235 Co229 2.052 . S
O235 C231 1.241 . S
O236 Co224 2.137 . S
O236 C227 1.247 . S
O237 Co224 2.244 1_565 S
O237 C227 1.272 1_565 S
O237 Co229 2.135 . S
Co238 O239 2.216 . S
Co238 O240 2.091 . S
Co238 O242 2.004 . S
Co238 O248 2.021 . S
Co238 O250 2.137 . S
Co238 O251 2.244 . S
O239 Co238 2.216 . S
O239 C246 1.247 . S
O240 Co238 2.091 . S
O240 C246 1.261 . S
C241 O250 1.247 . S
C241 O251 1.272 . S
O242 Co238 2.004 . S
O242 C247 1.259 . S
Co243 O244 2.061 . S
Co243 O249 2.052 . S
Co243 O251 2.135 . S
O244 Co243 2.061 . S
O244 C247 1.235 . S
C245 O248 1.238 . S
C245 O249 1.241 . S
C246 O239 1.247 . S
C246 O240 1.261 . S
C247 O242 1.259 . S
C247 O244 1.235 . S
O248 Co238 2.021 . S
O248 C245 1.238 . S
O249 Co243 2.052 . S
O249 C245 1.241 . S
O250 Co238 2.137 . S
O250 C241 1.247 . S
O251 Co238 2.244 . S
O251 C241 1.272 . S
O251 Co243 2.135 . S
Co252 O253 2.216 . S
Co252 O254 2.091 . S
Co252 O256 2.004 . S
Co252 O262 2.021 . S
Co252 O264 2.137 . S
Co252 O265 2.244 . S
O253 Co252 2.216 . S
O253 C260 1.247 . S
O254 Co252 2.091 . S
O254 C260 1.261 . S
C255 O264 1.247 . S
C255 O265 1.272 . S
O256 Co252 2.004 . S
O256 C261 1.259 . S
Co257 O258 2.061 . S
Co257 O263 2.052 . S
Co257 O265 2.135 . S
O258 Co257 2.061 . S
O258 C261 1.235 . S
C259 O262 1.238 . S
C259 O263 1.241 . S
C260 O253 1.247 . S
C260 O254 1.261 . S
C261 O256 1.259 . S
C261 O258 1.235 . S
O262 Co252 2.021 . S
O262 C259 1.238 . S
O263 Co257 2.052 . S
O263 C259 1.241 . S
O264 Co252 2.137 . S
O264 C255 1.247 . S
O265 Co252 2.244 . S
O265 C255 1.272 . S
O265 Co257 2.135 . S
Co266 O267 2.216 1_545 S
Co266 O268 2.091 1_545 S
Co266 O270 2.004 . S
Co266 O276 2.021 . S
Co266 O278 2.137 . S
Co266 O279 2.244 . S
O267 Co266 2.216 1_565 S
O267 C274 1.247 . S
O268 Co266 2.091 1_565 S
O268 C274 1.261 . S
C269 O278 1.247 . S
C269 O279 1.272 . S
O270 Co266 2.004 . S
O270 C275 1.259 . S
Co271 O272 2.061 . S
Co271 O277 2.052 . S
Co271 O279 2.135 . S
O272 Co271 2.061 . S
O272 C275 1.235 . S
C273 O276 1.238 . S
C273 O277 1.241 . S
C274 O267 1.247 . S
C274 O268 1.261 . S
C275 O270 1.259 . S
C275 O272 1.235 . S
O276 Co266 2.021 . S
O276 C273 1.238 . S
O277 Co271 2.052 . S
O277 C273 1.241 . S
O278 Co266 2.137 . S
O278 C269 1.247 . S
O279 Co266 2.244 . S
O279 C269 1.272 . S
O279 Co271 2.135 . S
Co280 O281 2.216 . S
Co280 O282 2.091 . S
Co280 O284 2.004 . S
Co280 O290 2.021 . S
Co280 O292 2.138 1_554 S
Co280 O293 2.244 . S
O281 Co280 2.216 . S
O281 C288 1.247 . S
O282 Co280 2.091 . S
O282 C288 1.261 . S
C283 O292 1.247 1_554 S
C283 O293 1.272 . S
O284 Co280 2.004 . S
O284 C289 1.259 . S
Co285 O286 2.061 . S
Co285 O291 2.052 . S
Co285 O293 2.135 . S
O286 Co285 2.061 . S
O286 C289 1.235 . S
C287 O290 1.238 . S
C287 O291 1.241 . S
C288 O281 1.247 . S
C288 O282 1.261 . S
C289 O284 1.259 . S
C289 O286 1.235 . S
O290 Co280 2.021 . S
O290 C287 1.238 . S
O291 Co285 2.052 . S
O291 C287 1.241 . S
O292 Co280 2.138 1_556 S
O292 C283 1.247 1_556 S
O293 Co280 2.244 . S
O293 C283 1.272 . S
O293 Co285 2.135 . S
Co294 O295 2.216 . S
Co294 O296 2.091 . S
Co294 O298 2.004 . S
Co294 O304 2.021 . S
Co294 O306 2.137 . S
Co294 O307 2.244 . S
O295 Co294 2.216 . S
O295 C302 1.247 . S
O296 Co294 2.091 . S
O296 C302 1.261 . S
C297 O306 1.247 . S
C297 O307 1.272 . S
O298 Co294 2.004 . S
O298 C303 1.259 . S
Co299 O300 2.061 . S
Co299 O305 2.052 . S
Co299 O307 2.135 . S
O300 Co299 2.061 . S
O300 C303 1.235 . S
C301 O304 1.238 . S
C301 O305 1.241 . S
C302 O295 1.247 . S
C302 O296 1.261 . S
C303 O298 1.259 . S
C303 O300 1.235 . S
O304 Co294 2.021 . S
O304 C301 1.238 . S
O305 Co299 2.052 . S
O305 C301 1.241 . S
O306 Co294 2.137 . S
O306 C297 1.247 . S
O307 Co294 2.244 . S
O307 C297 1.272 . S
O307 Co299 2.135 . S
Co308 O309 2.216 . S
Co308 O310 2.091 . S
Co308 O312 2.004 . S
Co308 O318 2.021 . S
Co308 O320 2.137 . S
Co308 O321 2.244 . S
O309 Co308 2.216 . S
O309 C316 1.247 . S
O310 Co308 2.091 . S
O310 C316 1.261 . S
C311 O320 1.247 . S
C311 O321 1.272 . S
O312 Co308 2.004 . S
O312 C317 1.259 . S
Co313 O314 2.061 . S
Co313 O319 2.052 . S
Co313 O321 2.135 . S
O314 Co313 2.061 . S
O314 C317 1.235 . S
C315 O318 1.238 . S
C315 O319 1.241 . S
C316 O309 1.247 . S
C316 O310 1.261 . S
C317 O312 1.259 . S
C317 O314 1.235 . S
O318 Co308 2.021 . S
O318 C315 1.238 . S
O319 Co313 2.052 . S
O319 C315 1.241 . S
O320 Co308 2.137 . S
O320 C311 1.247 . S
O321 Co308 2.244 . S
O321 C311 1.272 . S
O321 Co313 2.135 . S
Co322 O323 2.216 . S
Co322 O324 2.091 . S
Co322 O326 2.004 . S
Co322 O332 2.021 . S
Co322 O334 2.137 . S
Co322 O335 2.244 . S
O323 Co322 2.216 . S
O323 C330 1.247 . S
O324 Co322 2.091 . S
O324 C330 1.261 . S
C325 O334 1.247 . S
C325 O335 1.272 . S
O326 Co322 2.004 . S
O326 C331 1.259 . S
Co327 O328 2.061 . S
Co327 O333 2.052 . S
Co327 O335 2.135 . S
O328 Co327 2.061 . S
O328 C331 1.235 . S
C329 O332 1.238 . S
C329 O333 1.241 . S
C330 O323 1.247 . S
C330 O324 1.261 . S
C331 O326 1.259 . S
C331 O328 1.235 . S
O332 Co322 2.021 . S
O332 C329 1.238 . S
O333 Co327 2.052 . S
O333 C329 1.241 . S
O334 Co322 2.137 . S
O334 C325 1.247 . S
O335 Co322 2.244 . S
O335 C325 1.272 . S
O335 Co327 2.135 . S
Tb336 C338 2.809 1_455 S
Tb336 O356 2.484 1_455 S
Tb336 O357 2.440 1_455 S
Tb336 O358 2.658 . S
Tb336 O359 2.409 1_554 S
Tb336 O360 2.378 . S
Tb336 O364 2.325 . S
Tb336 O367 2.341 1_545 S
Tb337 C347 2.809 . S
Tb337 O358 2.325 . S
Tb337 O361 2.341 . S
Tb337 O362 2.484 . S
Tb337 O363 2.440 . S
Tb337 O364 2.658 . S
Tb337 O365 2.409 . S
Tb337 O366 2.378 1_545 S
C338 Tb336 2.809 1_655 S
C338 C339 1.514 . S
C338 O356 1.248 . S
C338 O357 1.266 . S
C339 C338 1.514 . S
C339 C340 1.359 . S
C339 C344 1.362 . S
C340 C339 1.359 . S
C340 C341 1.380 . S
C340 H368 0.929 . S
C341 C340 1.380 . S
C341 C342 1.347 . S
C341 H369 0.931 . S
C342 C341 1.347 . S
C342 C343 1.369 1_554 S
C343 C342 1.369 1_556 S
C343 C344 1.407 1_556 S
C343 H370 0.930 . S
C344 C339 1.362 . S
C344 C343 1.407 1_554 S
C344 H371 0.918 1_554 S
C345 O358 1.281 . S
C345 O359 1.254 1_554 S
C346 O360 1.236 . S
C346 O361 1.266 . S
C347 Tb337 2.809 . S
C347 C348 1.514 1_545 S
C347 O362 1.248 . S
C347 O363 1.266 . S
C348 C347 1.514 1_565 S
C348 C349 1.359 . S
C348 C353 1.348 . S
C349 C348 1.359 . S
C349 C350 1.380 . S
C349 H372 0.929 . S
C350 C349 1.380 . S
C350 C351 1.347 . S
C350 H373 0.931 . S
C351 C350 1.347 . S
C351 C352 1.369 . S
C352 C351 1.369 . S
C352 C353 1.408 . S
C352 H374 0.930 . S
C353 C348 1.348 . S
C353 C352 1.408 . S
C353 H375 0.930 . S
C354 O364 1.281 . S
C354 O365 1.254 . S
C355 O366 1.236 . S
C355 O367 1.266 . S
O356 Tb336 2.484 1_655 S
O356 C338 1.248 . S
O357 Tb336 2.440 1_655 S
O357 C338 1.266 . S
O358 Tb336 2.658 . S
O358 Tb337 2.325 . S
O358 C345 1.281 . S
O359 Tb336 2.409 1_556 S
O359 C345 1.254 1_556 S
O360 Tb336 2.378 . S
O360 C346 1.236 . S
O361 Tb337 2.341 . S
O361 C346 1.266 . S
O362 Tb337 2.484 . S
O362 C347 1.248 . S
O363 Tb337 2.440 . S
O363 C347 1.266 . S
O364 Tb336 2.325 . S
O364 Tb337 2.658 . S
O364 C354 1.281 . S
O365 Tb337 2.409 . S
O365 C354 1.254 . S
O366 Tb337 2.378 1_565 S
O366 C355 1.236 . S
O367 Tb336 2.341 1_565 S
O367 C355 1.266 . S
H368 C340 0.929 . S
H369 C341 0.931 . S
H370 C343 0.930 . S
H371 C344 0.918 1_556 S
H372 C349 0.929 . S
H373 C350 0.931 . S
H374 C352 0.930 . S
H375 C353 0.930 . S
Tb376 C378 2.809 . S
Tb376 O396 2.484 . S
Tb376 O397 2.440 . S
Tb376 O398 2.658 . S
Tb376 O399 2.409 . S
Tb376 O400 2.378 . S
Tb376 O404 2.325 . S
Tb376 O407 2.341 . S
Tb377 C387 2.809 . S
Tb377 O398 2.325 . S
Tb377 O401 2.341 . S
Tb377 O402 2.484 . S
Tb377 O403 2.440 . S
Tb377 O404 2.658 . S
Tb377 O405 2.409 . S
Tb377 O406 2.378 . S
C378 Tb376 2.809 . S
C378 C379 1.514 . S
C378 O396 1.248 . S
C378 O397 1.266 . S
C379 C378 1.514 . S
C379 C380 1.359 . S
C379 C384 1.348 . S
C380 C379 1.359 . S
C380 C381 1.380 . S
C380 H408 0.929 . S
C381 C380 1.380 . S
C381 C382 1.347 . S
C381 H409 0.931 . S
C382 C381 1.347 . S
C382 C383 1.369 . S
C383 C382 1.369 . S
C383 C384 1.408 . S
C383 H410 0.930 . S
C384 C379 1.348 . S
C384 C383 1.408 . S
C384 H411 0.930 . S
C385 O398 1.281 . S
C385 O399 1.254 . S
C386 O400 1.236 . S
C386 O401 1.266 . S
C387 Tb377 2.809 . S
C387 C388 1.514 . S
C387 O402 1.248 . S
C387 O403 1.266 . S
C388 C387 1.514 . S
C388 C389 1.359 . S
C388 C393 1.348 . S
C389 C388 1.359 . S
C389 C390 1.380 . S
C389 H412 0.929 . S
C390 C389 1.380 . S
C390 C391 1.347 . S
C390 H413 0.931 . S
C391 C390 1.347 . S
C391 C392 1.369 . S
C392 C391 1.369 . S
C392 C393 1.408 . S
C392 H414 0.930 . S
C393 C388 1.348 . S
C393 C392 1.408 . S
C393 H415 0.930 . S
C394 O404 1.281 . S
C394 O405 1.254 . S
C395 O406 1.236 . S
C395 O407 1.266 . S
O396 Tb376 2.484 . S
O396 C378 1.248 . S
O397 Tb376 2.440 . S
O397 C378 1.266 . S
O398 Tb376 2.658 . S
O398 Tb377 2.325 . S
O398 C385 1.281 . S
O399 Tb376 2.409 . S
O399 C385 1.254 . S
O400 Tb376 2.378 . S
O400 C386 1.236 . S
O401 Tb377 2.341 . S
O401 C386 1.266 . S
O402 Tb377 2.484 . S
O402 C387 1.248 . S
O403 Tb377 2.440 . S
O403 C387 1.266 . S
O404 Tb376 2.325 . S
O404 Tb377 2.658 . S
O404 C394 1.281 . S
O405 Tb377 2.409 . S
O405 C394 1.254 . S
O406 Tb377 2.378 . S
O406 C395 1.236 . S
O407 Tb376 2.341 . S
O407 C395 1.266 . S
H408 C380 0.929 . S
H409 C381 0.931 . S
H410 C383 0.930 . S
H411 C384 0.930 . S
H412 C389 0.929 . S
H413 C390 0.931 . S
H414 C392 0.930 . S
H415 C393 0.930 . S
Tb416 C418 2.809 1_545 S
Tb416 O436 2.478 1_545 S
Tb416 O437 2.440 . S
Tb416 O438 2.658 . S
Tb416 O439 2.409 . S
Tb416 O440 2.378 1_545 S
Tb416 O444 2.325 . S
Tb416 O447 2.341 . S
Tb417 C427 2.809 . S
Tb417 O438 2.325 . S
Tb417 O441 2.341 1_545 S
Tb417 O442 2.484 . S
Tb417 O443 2.440 . S
Tb417 O444 2.658 . S
Tb417 O445 2.409 . S
Tb417 O446 2.378 . S
C418 Tb416 2.809 1_565 S
C418 C419 1.514 . S
C418 O436 1.248 . S
C418 O437 1.266 1_565 S
C419 C418 1.514 . S
C419 C420 1.359 . S
C419 C424 1.348 . S
C420 C419 1.359 . S
C420 C421 1.380 . S
C420 H448 0.929 . S
C421 C420 1.380 . S
C421 C422 1.347 . S
C421 H449 0.931 . S
C422 C421 1.347 . S
C422 C423 1.369 . S
C423 C422 1.369 . S
C423 C424 1.408 . S
C423 H450 0.930 . S
C424 C419 1.348 . S
C424 C423 1.408 . S
C424 H451 0.930 . S
C425 O438 1.281 . S
C425 O439 1.254 . S
C426 O440 1.236 . S
C426 O441 1.266 . S
C427 Tb417 2.809 . S
C427 C428 1.514 . S
C427 O442 1.248 . S
C427 O443 1.266 . S
C428 C427 1.514 . S
C428 C429 1.359 . S
C428 C433 1.348 . S
C429 C428 1.359 . S
C429 C430 1.380 . S
C429 H452 0.929 . S
C430 C429 1.380 . S
C430 C431 1.347 . S
C430 H453 0.931 . S
C431 C430 1.347 . S
C431 C432 1.369 . S
C432 C431 1.369 . S
C432 C433 1.408 . S
C432 H454 0.930 . S
C433 C428 1.348 . S
C433 C432 1.408 . S
C433 H455 0.930 . S
C434 O444 1.281 . S
C434 O445 1.254 . S
C435 O446 1.236 . S
C435 O447 1.266 . S
O436 Tb416 2.478 1_565 S
O436 C418 1.248 . S
O437 Tb416 2.440 . S
O437 C418 1.266 1_545 S
O438 Tb416 2.658 . S
O438 Tb417 2.325 . S
O438 C425 1.281 . S
O439 Tb416 2.409 . S
O439 C425 1.254 . S
O440 Tb416 2.378 1_565 S
O440 C426 1.236 . S
O441 Tb417 2.341 1_565 S
O441 C426 1.266 . S
O442 Tb417 2.484 . S
O442 C427 1.248 . S
O443 Tb417 2.440 . S
O443 C427 1.266 . S
O444 Tb416 2.325 . S
O444 Tb417 2.658 . S
O444 C434 1.281 . S
O445 Tb417 2.409 . S
O445 C434 1.254 . S
O446 Tb417 2.378 . S
O446 C435 1.236 . S
O447 Tb416 2.341 . S
O447 C435 1.266 . S
H448 C420 0.929 . S
H449 C421 0.931 . S
H450 C423 0.930 . S
H451 C424 0.930 . S
H452 C429 0.929 . S
H453 C430 0.931 . S
H454 C432 0.930 . S
H455 C433 0.930 . S
Tb456 C458 2.809 . S
Tb456 O476 2.484 . S
Tb456 O477 2.440 . S
Tb456 O478 2.658 . S
Tb456 O479 2.409 . S
Tb456 O480 2.378 . S
Tb456 O484 2.325 . S
Tb456 O487 2.341 . S
Tb457 C467 2.809 . S
Tb457 O478 2.325 . S
Tb457 O481 2.341 . S
Tb457 O482 2.484 . S
Tb457 O483 2.440 . S
Tb457 O484 2.658 . S
Tb457 O485 2.409 . S
Tb457 O486 2.378 . S
C458 Tb456 2.809 . S
C458 C459 1.514 . S
C458 O476 1.248 . S
C458 O477 1.266 . S
C459 C458 1.514 . S
C459 C460 1.359 . S
C459 C464 1.348 . S
C460 C459 1.359 . S
C460 C461 1.380 . S
C460 H488 0.929 . S
C461 C460 1.380 . S
C461 C462 1.347 . S
C461 H489 0.931 . S
C462 C461 1.347 . S
C462 C463 1.369 . S
C463 C462 1.369 . S
C463 C464 1.408 . S
C463 H490 0.930 . S
C464 C459 1.348 . S
C464 C463 1.408 . S
C464 H491 0.930 . S
C465 O478 1.281 . S
C465 O479 1.254 . S
C466 O480 1.236 . S
C466 O481 1.266 . S
C467 Tb457 2.809 . S
C467 C468 1.514 . S
C467 O482 1.248 . S
C467 O483 1.266 . S
C468 C467 1.514 . S
C468 C469 1.359 . S
C468 C473 1.348 . S
C469 C468 1.359 . S
C469 C470 1.380 . S
C469 H492 0.929 . S
C470 C469 1.380 . S
C470 C471 1.347 . S
C470 H493 0.931 . S
C471 C470 1.347 . S
C471 C472 1.369 . S
C472 C471 1.369 . S
C472 C473 1.408 . S
C472 H494 0.930 . S
C473 C468 1.348 . S
C473 C472 1.408 . S
C473 H495 0.930 . S
C474 O484 1.281 . S
C474 O485 1.254 . S
C475 O486 1.236 . S
C475 O487 1.266 . S
O476 Tb456 2.484 . S
O476 C458 1.248 . S
O477 Tb456 2.440 . S
O477 C458 1.266 . S
O478 Tb456 2.658 . S
O478 Tb457 2.325 . S
O478 C465 1.281 . S
O479 Tb456 2.409 . S
O479 C465 1.254 . S
O480 Tb456 2.378 . S
O480 C466 1.236 . S
O481 Tb457 2.341 . S
O481 C466 1.266 . S
O482 Tb457 2.484 . S
O482 C467 1.248 . S
O483 Tb457 2.440 . S
O483 C467 1.266 . S
O484 Tb456 2.325 . S
O484 Tb457 2.658 . S
O484 C474 1.281 . S
O485 Tb457 2.409 . S
O485 C474 1.254 . S
O486 Tb457 2.378 . S
O486 C475 1.236 . S
O487 Tb456 2.341 . S
O487 C475 1.266 . S
H488 C460 0.929 . S
H489 C461 0.931 . S
H490 C463 0.930 . S
H491 C464 0.930 . S
H492 C469 0.929 . S
H493 C470 0.931 . S
H494 C472 0.930 . S
H495 C473 0.930 . S
Tb496 C498 2.809 . S
Tb496 O516 2.484 . S
Tb496 O517 2.440 . S
Tb496 O518 2.658 . S
Tb496 O519 2.409 1_455 S
Tb496 O520 2.378 . S
Tb496 O524 2.325 . S
Tb496 O527 2.341 . S
Tb497 C507 2.809 . S
Tb497 O518 2.325 1_565 S
Tb497 O521 2.347 . S
Tb497 O522 2.484 . S
Tb497 O523 2.440 . S
Tb497 O524 2.658 1_565 S
Tb497 O525 2.409 1_565 S
Tb497 O526 2.378 1_565 S
C498 Tb496 2.809 . S
C498 C499 1.514 . S
C498 O516 1.248 . S
C498 O517 1.266 . S
C499 C498 1.514 . S
C499 C500 1.359 . S
C499 C504 1.348 1_455 S
C500 C499 1.359 . S
C500 C501 1.380 . S
C500 H528 0.929 . S
C501 C500 1.380 . S
C501 C502 1.347 . S
C501 H529 0.931 . S
C502 C501 1.347 . S
C502 C503 1.369 1_455 S
C503 C502 1.369 1_655 S
C503 C504 1.408 . S
C503 H530 0.930 . S
C504 C499 1.348 1_655 S
C504 C503 1.408 . S
C504 H531 0.930 . S
C505 O518 1.281 1_655 S
C505 O519 1.254 . S
C506 O520 1.236 . S
C506 O521 1.256 1_545 S
C507 Tb497 2.809 . S
C507 C508 1.514 . S
C507 O522 1.248 . S
C507 O523 1.266 . S
C508 C507 1.514 . S
C508 C509 1.359 . S
C508 C513 1.348 . S
C509 C508 1.359 . S
C509 C510 1.380 . S
C509 H532 0.929 . S
C510 C509 1.380 . S
C510 C511 1.347 . S
C510 H533 0.931 . S
C511 C510 1.347 . S
C511 C512 1.369 . S
C512 C511 1.369 . S
C512 C513 1.408 . S
C512 H534 0.930 . S
C513 C508 1.348 . S
C513 C512 1.408 . S
C513 H535 0.930 . S
C514 O524 1.281 . S
C514 O525 1.254 . S
C515 O526 1.236 . S
C515 O527 1.266 . S
O516 Tb496 2.484 . S
O516 C498 1.248 . S
O517 Tb496 2.440 . S
O517 C498 1.266 . S
O518 Tb496 2.658 . S
O518 Tb497 2.325 1_545 S
O518 C505 1.281 1_455 S
O519 Tb496 2.409 1_655 S
O519 C505 1.254 . S
O520 Tb496 2.378 . S
O520 C506 1.236 . S
O521 Tb497 2.347 . S
O521 C506 1.256 1_565 S
O522 Tb497 2.484 . S
O522 C507 1.248 . S
O523 Tb497 2.440 . S
O523 C507 1.266 . S
O524 Tb496 2.325 . S
O524 Tb497 2.658 1_545 S
O524 C514 1.281 . S
O525 Tb497 2.409 1_545 S
O525 C514 1.254 . S
O526 Tb497 2.378 1_545 S
O526 C515 1.236 . S
O527 Tb496 2.341 . S
O527 C515 1.266 . S
H528 C500 0.929 . S
H529 C501 0.931 . S
H530 C503 0.930 . S
H531 C504 0.930 . S
H532 C509 0.929 . S
H533 C510 0.931 . S
H534 C512 0.930 . S
H535 C513 0.930 . S
Tb536 C538 2.809 . S
Tb536 O556 2.484 . S
Tb536 O557 2.440 . S
Tb536 O558 2.658 . S
Tb536 O559 2.409 . S
Tb536 O560 2.378 . S
Tb536 O564 2.325 . S
Tb536 O567 2.341 . S
Tb537 C547 2.809 . S
Tb537 O558 2.325 . S
Tb537 O561 2.341 . S
Tb537 O562 2.484 . S
Tb537 O563 2.440 . S
Tb537 O564 2.658 . S
Tb537 O565 2.409 . S
Tb537 O566 2.378 . S
C538 Tb536 2.809 . S
C538 C539 1.514 . S
C538 O556 1.248 . S
C538 O557 1.266 . S
C539 C538 1.514 . S
C539 C540 1.359 . S
C539 C544 1.348 . S
C540 C539 1.359 . S
C540 C541 1.380 . S
C540 H568 0.929 . S
C541 C540 1.380 . S
C541 C542 1.347 . S
C541 H569 0.931 . S
C542 C541 1.347 . S
C542 C543 1.369 . S
C543 C542 1.369 . S
C543 C544 1.408 . S
C543 H570 0.930 . S
C544 C539 1.348 . S
C544 C543 1.408 . S
C544 H571 0.930 . S
C545 O558 1.281 . S
C545 O559 1.254 . S
C546 O560 1.236 . S
C546 O561 1.266 . S
C547 Tb537 2.809 . S
C547 C548 1.514 . S
C547 O562 1.248 . S
C547 O563 1.266 . S
C548 C547 1.514 . S
C548 C549 1.359 . S
C548 C553 1.348 . S
C549 C548 1.359 . S
C549 C550 1.380 . S
C549 H572 0.929 . S
C550 C549 1.380 . S
C550 C551 1.347 . S
C550 H573 0.931 . S
C551 C550 1.347 . S
C551 C552 1.369 . S
C552 C551 1.369 . S
C552 C553 1.408 . S
C552 H574 0.930 . S
C553 C548 1.348 . S
C553 C552 1.408 . S
C553 H575 0.930 . S
C554 O564 1.281 . S
C554 O565 1.254 . S
C555 O566 1.236 . S
C555 O567 1.266 . S
O556 Tb536 2.484 . S
O556 C538 1.248 . S
O557 Tb536 2.440 . S
O557 C538 1.266 . S
O558 Tb536 2.658 . S
O558 Tb537 2.325 . S
O558 C545 1.281 . S
O559 Tb536 2.409 . S
O559 C545 1.254 . S
O560 Tb536 2.378 . S
O560 C546 1.236 . S
O561 Tb537 2.341 . S
O561 C546 1.266 . S
O562 Tb537 2.484 . S
O562 C547 1.248 . S
O563 Tb537 2.440 . S
O563 C547 1.266 . S
O564 Tb536 2.325 . S
O564 Tb537 2.658 . S
O564 C554 1.281 . S
O565 Tb537 2.409 . S
O565 C554 1.254 . S
O566 Tb537 2.378 . S
O566 C555 1.236 . S
O567 Tb536 2.341 . S
O567 C555 1.266 . S
H568 C540 0.929 . S
H569 C541 0.931 . S
H570 C543 0.930 . S
H571 C544 0.930 . S
H572 C549 0.929 . S
H573 C550 0.931 . S
H574 C552 0.930 . S
H575 C553 0.930 . S
Tb576 C578 2.809 . S
Tb576 O596 2.484 1_545 S
Tb576 O597 2.440 . S
Tb576 O598 2.658 . S
Tb576 O599 2.409 . S
Tb576 O600 2.378 . S
Tb576 O604 2.325 1_545 S
Tb576 O607 2.341 . S
Tb577 C587 2.809 . S
Tb577 O598 2.325 . S
Tb577 O601 2.341 . S
Tb577 O602 2.484 . S
Tb577 O603 2.440 . S
Tb577 O604 2.658 1_545 S
Tb577 O605 2.409 1_545 S
Tb577 O606 2.378 . S
C578 Tb576 2.809 . S
C578 C579 1.514 1_545 S
C578 O596 1.248 1_545 S
C578 O597 1.266 . S
C579 C578 1.514 1_565 S
C579 C580 1.359 . S
C579 C584 1.348 1_565 S
C580 C579 1.359 . S
C580 C581 1.380 . S
C580 H608 0.929 . S
C581 C580 1.380 . S
C581 C582 1.347 . S
C581 H609 0.931 . S
C582 C581 1.347 . S
C582 C583 1.341 1_565 S
C583 C582 1.341 1_545 S
C583 C584 1.413 . S
C583 H610 0.953 . S
C584 C579 1.348 1_545 S
C584 C583 1.413 . S
C584 H611 0.930 . S
C585 O598 1.281 . S
C585 O599 1.254 . S
C586 O600 1.236 . S
C586 O601 1.266 . S
C587 Tb577 2.809 . S
C587 C588 1.514 . S
C587 O602 1.248 . S
C587 O603 1.266 . S
C588 C587 1.514 . S
C588 C589 1.359 . S
C588 C593 1.348 . S
C589 C588 1.359 . S
C589 C590 1.380 . S
C589 H612 0.929 . S
C590 C589 1.380 . S
C590 C591 1.347 . S
C590 H613 0.931 . S
C591 C590 1.347 . S
C591 C592 1.369 . S
C592 C591 1.369 . S
C592 C593 1.408 . S
C592 H614 0.930 . S
C593 C588 1.348 . S
C593 C592 1.408 . S
C593 H615 0.930 . S
C594 O604 1.281 . S
C594 O605 1.254 . S
C595 O606 1.236 . S
C595 O607 1.266 . S
O596 Tb576 2.484 1_565 S
O596 C578 1.248 1_565 S
O597 Tb576 2.440 . S
O597 C578 1.266 . S
O598 Tb576 2.658 . S
O598 Tb577 2.325 . S
O598 C585 1.281 . S
O599 Tb576 2.409 . S
O599 C585 1.254 . S
O600 Tb576 2.378 . S
O600 C586 1.236 . S
O601 Tb577 2.341 . S
O601 C586 1.266 . S
O602 Tb577 2.484 . S
O602 C587 1.248 . S
O603 Tb577 2.440 . S
O603 C587 1.266 . S
O604 Tb576 2.325 1_565 S
O604 Tb577 2.658 1_565 S
O604 C594 1.281 . S
O605 Tb577 2.409 1_565 S
O605 C594 1.254 . S
O606 Tb577 2.378 . S
O606 C595 1.236 . S
O607 Tb576 2.341 . S
O607 C595 1.266 . S
H608 C580 0.929 . S
H609 C581 0.931 . S
H610 C583 0.953 . S
H611 C584 0.930 . S
H612 C589 0.929 . S
H613 C590 0.931 . S
H614 C592 0.930 . S
H615 C593 0.930 . S
Tb616 C618 2.809 . S
Tb616 O636 2.484 . S
Tb616 O637 2.440 . S
Tb616 O638 2.658 . S
Tb616 O639 2.409 . S
Tb616 O640 2.378 . S
Tb616 O644 2.325 . S
Tb616 O647 2.341 . S
Tb617 C627 2.809 . S
Tb617 O638 2.325 . S
Tb617 O641 2.341 . S
Tb617 O642 2.484 . S
Tb617 O643 2.440 . S
Tb617 O644 2.658 . S
Tb617 O645 2.409 . S
Tb617 O646 2.378 . S
C618 Tb616 2.809 . S
C618 C619 1.514 . S
C618 O636 1.248 . S
C618 O637 1.266 . S
C619 C618 1.514 . S
C619 C620 1.359 . S
C619 C624 1.348 . S
C620 C619 1.359 . S
C620 C621 1.380 . S
C620 H648 0.929 . S
C621 C620 1.380 . S
C621 C622 1.347 . S
C621 H649 0.931 . S
C622 C621 1.347 . S
C622 C623 1.369 . S
C623 C622 1.369 . S
C623 C624 1.408 . S
C623 H650 0.930 . S
C624 C619 1.348 . S
C624 C623 1.408 . S
C624 H651 0.930 . S
C625 O638 1.281 . S
C625 O639 1.254 . S
C626 O640 1.236 . S
C626 O641 1.266 . S
C627 Tb617 2.809 . S
C627 C628 1.514 . S
C627 O642 1.248 . S
C627 O643 1.266 . S
C628 C627 1.514 . S
C628 C629 1.359 . S
C628 C633 1.348 . S
C629 C628 1.359 . S
C629 C630 1.380 . S
C629 H652 0.929 . S
C630 C629 1.380 . S
C630 C631 1.347 . S
C630 H653 0.931 . S
C631 C630 1.347 . S
C631 C632 1.369 . S
C632 C631 1.369 . S
C632 C633 1.408 . S
C632 H654 0.930 . S
C633 C628 1.348 . S
C633 C632 1.408 . S
C633 H655 0.930 . S
C634 O644 1.281 . S
C634 O645 1.254 . S
C635 O646 1.236 . S
C635 O647 1.266 . S
O636 Tb616 2.484 . S
O636 C618 1.248 . S
O637 Tb616 2.440 . S
O637 C618 1.266 . S
O638 Tb616 2.658 . S
O638 Tb617 2.325 . S
O638 C625 1.281 . S
O639 Tb616 2.409 . S
O639 C625 1.254 . S
O640 Tb616 2.378 . S
O640 C626 1.236 . S
O641 Tb617 2.341 . S
O641 C626 1.266 . S
O642 Tb617 2.484 . S
O642 C627 1.248 . S
O643 Tb617 2.440 . S
O643 C627 1.266 . S
O644 Tb616 2.325 . S
O644 Tb617 2.658 . S
O644 C634 1.281 . S
O645 Tb617 2.409 . S
O645 C634 1.254 . S
O646 Tb617 2.378 . S
O646 C635 1.236 . S
O647 Tb616 2.341 . S
O647 C635 1.266 . S
H648 C620 0.929 . S
H649 C621 0.931 . S
H650 C623 0.930 . S
H651 C624 0.930 . S
H652 C629 0.929 . S
H653 C630 0.931 . S
H654 C632 0.930 . S
H655 C633 0.930 . S
Tb656 C658 2.809 . S
Tb656 O676 2.484 . S
Tb656 O677 2.440 . S
Tb656 O678 2.658 . S
Tb656 O679 2.409 . S
Tb656 O680 2.378 . S
Tb656 O684 2.325 . S
Tb656 O687 2.341 . S
Tb657 C667 2.809 . S
Tb657 O678 2.325 . S
Tb657 O681 2.380 . S
Tb657 O682 2.484 . S
Tb657 O683 2.440 . S
Tb657 O684 2.658 . S
Tb657 O685 2.409 . S
Tb657 O686 2.378 . S
C658 Tb656 2.809 . S
C658 C659 1.514 . S
C658 O676 1.248 . S
C658 O677 1.266 . S
C659 C658 1.514 . S
C659 C660 1.359 1_554 S
C659 C664 1.348 . S
C660 C659 1.359 1_556 S
C660 C661 1.380 . S
C660 H688 0.929 . S
C661 C660 1.380 . S
C661 C662 1.347 . S
C661 H689 0.931 . S
C662 C661 1.347 . S
C662 C663 1.369 . S
C663 C662 1.369 . S
C663 C664 1.408 1_556 S
C663 H690 0.930 . S
C664 C659 1.348 . S
C664 C663 1.408 1_554 S
C664 H691 0.930 . S
C665 O678 1.281 . S
C665 O679 1.254 . S
C666 O680 1.236 1_556 S
C666 O681 1.254 1_556 S
C667 Tb657 2.809 . S
C667 C668 1.514 . S
C667 O682 1.248 . S
C667 O683 1.266 . S
C668 C667 1.514 . S
C668 C669 1.359 . S
C668 C673 1.348 . S
C669 C668 1.359 . S
C669 C670 1.380 . S
C669 H692 0.929 . S
C670 C669 1.380 . S
C670 C671 1.347 . S
C670 H693 0.931 . S
C671 C670 1.347 . S
C671 C672 1.369 . S
C672 C671 1.369 . S
C672 C673 1.408 . S
C672 H694 0.930 . S
C673 C668 1.348 . S
C673 C672 1.408 . S
C673 H695 0.930 . S
C674 O684 1.281 . S
C674 O685 1.254 . S
C675 O686 1.236 . S
C675 O687 1.266 . S
O676 Tb656 2.484 . S
O676 C658 1.248 . S
O677 Tb656 2.440 . S
O677 C658 1.266 . S
O678 Tb656 2.658 . S
O678 Tb657 2.325 . S
O678 C665 1.281 . S
O679 Tb656 2.409 . S
O679 C665 1.254 . S
O680 Tb656 2.378 . S
O680 C666 1.236 1_554 S
O681 Tb657 2.380 . S
O681 C666 1.254 1_554 S
O682 Tb657 2.484 . S
O682 C667 1.248 . S
O683 Tb657 2.440 . S
O683 C667 1.266 . S
O684 Tb656 2.325 . S
O684 Tb657 2.658 . S
O684 C674 1.281 . S
O685 Tb657 2.409 . S
O685 C674 1.254 . S
O686 Tb657 2.378 . S
O686 C675 1.236 . S
O687 Tb656 2.341 . S
O687 C675 1.266 . S
H688 C660 0.929 . S
H689 C661 0.931 . S
H690 C663 0.930 . S
H691 C664 0.930 . S
H692 C669 0.929 . S
H693 C670 0.931 . S
H694 C672 0.930 . S
H695 C673 0.930 . S
Tb696 C698 2.809 . S
Tb696 O716 2.484 . S
Tb696 O717 2.440 . S
Tb696 O718 2.658 . S
Tb696 O719 2.409 . S
Tb696 O720 2.378 . S
Tb696 O724 2.325 . S
Tb696 O727 2.341 . S
Tb697 C707 2.809 . S
Tb697 O718 2.325 . S
Tb697 O721 2.341 . S
Tb697 O722 2.484 . S
Tb697 O723 2.440 . S
Tb697 O724 2.658 . S
Tb697 O725 2.409 . S
Tb697 O726 2.378 . S
C698 Tb696 2.809 . S
C698 C699 1.514 . S
C698 O716 1.248 . S
C698 O717 1.266 . S
C699 C698 1.514 . S
C699 C700 1.359 . S
C699 C704 1.348 . S
C700 C699 1.359 . S
C700 C701 1.380 . S
C700 H728 0.929 . S
C701 C700 1.380 . S
C701 C702 1.347 . S
C701 H729 0.931 . S
C702 C701 1.347 . S
C702 C703 1.369 . S
C703 C702 1.369 . S
C703 C704 1.408 . S
C703 H730 0.930 . S
C704 C699 1.348 . S
C704 C703 1.408 . S
C704 H731 0.930 . S
C705 O718 1.281 . S
C705 O719 1.254 . S
C706 O720 1.236 . S
C706 O721 1.266 . S
C707 Tb697 2.809 . S
C707 C708 1.514 . S
C707 O722 1.248 . S
C707 O723 1.266 . S
C708 C707 1.514 . S
C708 C709 1.359 . S
C708 C713 1.348 . S
C709 C708 1.359 . S
C709 C710 1.380 . S
C709 H732 0.929 . S
C710 C709 1.380 . S
C710 C711 1.347 . S
C710 H733 0.931 . S
C711 C710 1.347 . S
C711 C712 1.369 . S
C712 C711 1.369 . S
C712 C713 1.408 . S
C712 H734 0.930 . S
C713 C708 1.348 . S
C713 C712 1.408 . S
C713 H735 0.930 . S
C714 O724 1.281 . S
C714 O725 1.254 . S
C715 O726 1.236 . S
C715 O727 1.266 . S
O716 Tb696 2.484 . S
O716 C698 1.248 . S
O717 Tb696 2.440 . S
O717 C698 1.266 . S
O718 Tb696 2.658 . S
O718 Tb697 2.325 . S
O718 C705 1.281 . S
O719 Tb696 2.409 . S
O719 C705 1.254 . S
O720 Tb696 2.378 . S
O720 C706 1.236 . S
O721 Tb697 2.341 . S
O721 C706 1.266 . S
O722 Tb697 2.484 . S
O722 C707 1.248 . S
O723 Tb697 2.440 . S
O723 C707 1.266 . S
O724 Tb696 2.325 . S
O724 Tb697 2.658 . S
O724 C714 1.281 . S
O725 Tb697 2.409 . S
O725 C714 1.254 . S
O726 Tb697 2.378 . S
O726 C715 1.236 . S
O727 Tb696 2.341 . S
O727 C715 1.266 . S
H728 C700 0.929 . S
H729 C701 0.931 . S
H730 C703 0.930 . S
H731 C704 0.930 . S
H732 C709 0.929 . S
H733 C710 0.931 . S
H734 C712 0.930 . S
H735 C713 0.930 . S
Tb736 C738 2.809 1_455 S
Tb736 O756 2.484 1_455 S
Tb736 O757 2.440 1_455 S
Tb736 O758 2.658 . S
Tb736 O759 2.409 . S
Tb736 O760 2.378 . S
Tb736 O764 2.325 . S
Tb736 O767 2.341 . S
Tb737 C747 2.809 . S
Tb737 O758 2.325 . S
Tb737 O761 2.341 . S
Tb737 O762 2.484 . S
Tb737 O763 2.440 . S
Tb737 O764 2.658 . S
Tb737 O765 2.409 . S
Tb737 O766 2.378 . S
C738 Tb736 2.809 1_655 S
C738 C739 1.514 . S
C738 O756 1.248 . S
C738 O757 1.266 . S
C739 C738 1.514 . S
C739 C740 1.359 . S
C739 C744 1.348 . S
C740 C739 1.359 . S
C740 C741 1.380 . S
C740 H768 0.929 . S
C741 C740 1.380 . S
C741 C742 1.347 . S
C741 H769 0.931 . S
C742 C741 1.347 . S
C742 C743 1.369 . S
C743 C742 1.369 . S
C743 C744 1.408 . S
C743 H770 0.930 . S
C744 C739 1.348 . S
C744 C743 1.408 . S
C744 H771 0.930 . S
C745 O758 1.281 . S
C745 O759 1.254 . S
C746 O760 1.236 . S
C746 O761 1.266 . S
C747 Tb737 2.809 . S
C747 C748 1.514 . S
C747 O762 1.248 . S
C747 O763 1.266 . S
C748 C747 1.514 . S
C748 C749 1.359 . S
C748 C753 1.348 . S
C749 C748 1.359 . S
C749 C750 1.380 . S
C749 H772 0.929 . S
C750 C749 1.380 . S
C750 C751 1.347 . S
C750 H773 0.931 . S
C751 C750 1.347 . S
C751 C752 1.369 . S
C752 C751 1.369 . S
C752 C753 1.408 . S
C752 H774 0.930 . S
C753 C748 1.348 . S
C753 C752 1.408 . S
C753 H775 0.930 . S
C754 O764 1.281 . S
C754 O765 1.254 . S
C755 O766 1.236 . S
C755 O767 1.266 . S
O756 Tb736 2.484 1_655 S
O756 C738 1.248 . S
O757 Tb736 2.440 1_655 S
O757 C738 1.266 . S
O758 Tb736 2.658 . S
O758 Tb737 2.325 . S
O758 C745 1.281 . S
O759 Tb736 2.409 . S
O759 C745 1.254 . S
O760 Tb736 2.378 . S
O760 C746 1.236 . S
O761 Tb737 2.341 . S
O761 C746 1.266 . S
O762 Tb737 2.484 . S
O762 C747 1.248 . S
O763 Tb737 2.440 . S
O763 C747 1.266 . S
O764 Tb736 2.325 . S
O764 Tb737 2.658 . S
O764 C754 1.281 . S
O765 Tb737 2.409 . S
O765 C754 1.254 . S
O766 Tb737 2.378 . S
O766 C755 1.236 . S
O767 Tb736 2.341 . S
O767 C755 1.266 . S
H768 C740 0.929 . S
H769 C741 0.931 . S
H770 C743 0.930 . S
H771 C744 0.930 . S
H772 C749 0.929 . S
H773 C750 0.931 . S
H774 C752 0.930 . S
H775 C753 0.930 . S
Tb776 C778 2.809 . S
Tb776 O796 2.484 . S
Tb776 O797 2.440 . S
Tb776 O798 2.658 . S
Tb776 O799 2.409 . S
Tb776 O800 2.378 . S
Tb776 O804 2.325 . S
Tb776 O807 2.341 . S
Tb777 C787 2.809 . S
Tb777 O798 2.325 . S
Tb777 O801 2.341 . S
Tb777 O802 2.484 . S
Tb777 O803 2.440 . S
Tb777 O804 2.658 . S
Tb777 O805 2.409 . S
Tb777 O806 2.378 . S
C778 Tb776 2.809 . S
C778 C779 1.514 . S
C778 O796 1.248 . S
C778 O797 1.266 . S
C779 C778 1.514 . S
C779 C780 1.359 . S
C779 C784 1.348 . S
C780 C779 1.359 . S
C780 C781 1.380 . S
C780 H808 0.929 . S
C781 C780 1.380 . S
C781 C782 1.347 . S
C781 H809 0.931 . S
C782 C781 1.347 . S
C782 C783 1.369 . S
C783 C782 1.369 . S
C783 C784 1.408 . S
C783 H810 0.930 . S
C784 C779 1.348 . S
C784 C783 1.408 . S
C784 H811 0.930 . S
C785 O798 1.281 . S
C785 O799 1.254 . S
C786 O800 1.236 . S
C786 O801 1.266 . S
C787 Tb777 2.809 . S
C787 C788 1.514 . S
C787 O802 1.248 . S
C787 O803 1.266 . S
C788 C787 1.514 . S
C788 C789 1.359 . S
C788 C793 1.348 . S
C789 C788 1.359 . S
C789 C790 1.380 . S
C789 H812 0.929 . S
C790 C789 1.380 . S
C790 C791 1.347 . S
C790 H813 0.931 . S
C791 C790 1.347 . S
C791 C792 1.369 . S
C792 C791 1.369 . S
C792 C793 1.408 . S
C792 H814 0.930 . S
C793 C788 1.348 . S
C793 C792 1.408 . S
C793 H815 0.930 . S
C794 O804 1.281 . S
C794 O805 1.254 . S
C795 O806 1.236 . S
C795 O807 1.266 . S
O796 Tb776 2.484 . S
O796 C778 1.248 . S
O797 Tb776 2.440 . S
O797 C778 1.266 . S
O798 Tb776 2.658 . S
O798 Tb777 2.325 . S
O798 C785 1.281 . S
O799 Tb776 2.409 . S
O799 C785 1.254 . S
O800 Tb776 2.378 . S
O800 C786 1.236 . S
O801 Tb777 2.341 . S
O801 C786 1.266 . S
O802 Tb777 2.484 . S
O802 C787 1.248 . S
O803 Tb777 2.440 . S
O803 C787 1.266 . S
O804 Tb776 2.325 . S
O804 Tb777 2.658 . S
O804 C794 1.281 . S
O805 Tb777 2.409 . S
O805 C794 1.254 . S
O806 Tb777 2.378 . S
O806 C795 1.236 . S
O807 Tb776 2.341 . S
O807 C795 1.266 . S
H808 C780 0.929 . S
H809 C781 0.931 . S
H810 C783 0.930 . S
H811 C784 0.930 . S
H812 C789 0.929 . S
H813 C790 0.931 . S
H814 C792 0.930 . S
H815 C793 0.930 . S
Tb816 C818 2.809 . S
Tb816 O836 2.484 . S
Tb816 O837 2.440 . S
Tb816 O838 2.658 . S
Tb816 O839 2.409 . S
Tb816 O840 2.378 . S
Tb816 O844 2.325 . S
Tb816 O847 2.341 . S
Tb817 C827 2.809 . S
Tb817 O838 2.325 . S
Tb817 O841 2.341 . S
Tb817 O842 2.484 . S
Tb817 O843 2.440 . S
Tb817 O844 2.658 . S
Tb817 O845 2.409 . S
Tb817 O846 2.378 . S
C818 Tb816 2.809 . S
C818 C819 1.514 . S
C818 O836 1.248 . S
C818 O837 1.266 . S
C819 C818 1.514 . S
C819 C820 1.359 . S
C819 C824 1.348 . S
C820 C819 1.359 . S
C820 C821 1.380 . S
C820 H848 0.929 . S
C821 C820 1.380 . S
C821 C822 1.347 . S
C821 H849 0.931 . S
C822 C821 1.347 . S
C822 C823 1.369 . S
C823 C822 1.369 . S
C823 C824 1.408 . S
C823 H850 0.930 . S
C824 C819 1.348 . S
C824 C823 1.408 . S
C824 H851 0.930 . S
C825 O838 1.281 . S
C825 O839 1.254 . S
C826 O840 1.236 . S
C826 O841 1.266 . S
C827 Tb817 2.809 . S
C827 C828 1.514 . S
C827 O842 1.248 . S
C827 O843 1.266 . S
C828 C827 1.514 . S
C828 C829 1.359 . S
C828 C833 1.348 . S
C829 C828 1.359 . S
C829 C830 1.380 . S
C829 H852 0.929 . S
C830 C829 1.380 . S
C830 C831 1.347 . S
C830 H853 0.931 . S
C831 C830 1.347 . S
C831 C832 1.369 . S
C832 C831 1.369 . S
C832 C833 1.408 . S
C832 H854 0.930 . S
C833 C828 1.348 . S
C833 C832 1.408 . S
C833 H855 0.930 . S
C834 O844 1.281 . S
C834 O845 1.254 . S
C835 O846 1.236 . S
C835 O847 1.266 . S
O836 Tb816 2.484 . S
O836 C818 1.248 . S
O837 Tb816 2.440 . S
O837 C818 1.266 . S
O838 Tb816 2.658 . S
O838 Tb817 2.325 . S
O838 C825 1.281 . S
O839 Tb816 2.409 . S
O839 C825 1.254 . S
O840 Tb816 2.378 . S
O840 C826 1.236 . S
O841 Tb817 2.341 . S
O841 C826 1.266 . S
O842 Tb817 2.484 . S
O842 C827 1.248 . S
O843 Tb817 2.440 . S
O843 C827 1.266 . S
O844 Tb816 2.325 . S
O844 Tb817 2.658 . S
O844 C834 1.281 . S
O845 Tb817 2.409 . S
O845 C834 1.254 . S
O846 Tb817 2.378 . S
O846 C835 1.236 . S
O847 Tb816 2.341 . S
O847 C835 1.266 . S
H848 C820 0.929 . S
H849 C821 0.931 . S
H850 C823 0.930 . S
H851 C824 0.930 . S
H852 C829 0.929 . S
H853 C830 0.931 . S
H854 C832 0.930 . S
H855 C833 0.930 . S
Tb856 C858 2.809 . S
Tb856 O876 2.484 . S
Tb856 O877 2.440 . S
Tb856 O878 2.658 . S
Tb856 O879 2.409 . S
Tb856 O880 2.378 . S
Tb856 O884 2.325 . S
Tb856 O887 2.341 . S
Tb857 C867 2.809 . S
Tb857 O878 2.325 . S
Tb857 O881 2.341 . S
Tb857 O882 2.484 . S
Tb857 O883 2.440 . S
Tb857 O884 2.658 . S
Tb857 O885 2.409 . S
Tb857 O886 2.378 . S
C858 Tb856 2.809 . S
C858 C859 1.514 . S
C858 O876 1.248 . S
C858 O877 1.266 . S
C859 C858 1.514 . S
C859 C860 1.359 . S
C859 C864 1.348 . S
C860 C859 1.359 . S
C860 C861 1.380 . S
C860 H888 0.929 . S
C861 C860 1.380 . S
C861 C862 1.347 . S
C861 H889 0.931 . S
C862 C861 1.347 . S
C862 C863 1.369 . S
C863 C862 1.369 . S
C863 C864 1.408 . S
C863 H890 0.930 . S
C864 C859 1.348 . S
C864 C863 1.408 . S
C864 H891 0.930 . S
C865 O878 1.281 . S
C865 O879 1.254 . S
C866 O880 1.236 . S
C866 O881 1.266 . S
C867 Tb857 2.809 . S
C867 C868 1.514 . S
C867 O882 1.248 . S
C867 O883 1.266 . S
C868 C867 1.514 . S
C868 C869 1.359 . S
C868 C873 1.348 . S
C869 C868 1.359 . S
C869 C870 1.380 . S
C869 H892 0.929 . S
C870 C869 1.380 . S
C870 C871 1.347 . S
C870 H893 0.931 . S
C871 C870 1.347 . S
C871 C872 1.369 . S
C872 C871 1.369 . S
C872 C873 1.408 . S
C872 H894 0.930 . S
C873 C868 1.348 . S
C873 C872 1.408 . S
C873 H895 0.930 . S
C874 O884 1.281 . S
C874 O885 1.254 . S
C875 O886 1.236 . S
C875 O887 1.266 . S
O876 Tb856 2.484 . S
O876 C858 1.248 . S
O877 Tb856 2.440 . S
O877 C858 1.266 . S
O878 Tb856 2.658 . S
O878 Tb857 2.325 . S
O878 C865 1.281 . S
O879 Tb856 2.409 . S
O879 C865 1.254 . S
O880 Tb856 2.378 . S
O880 C866 1.236 . S
O881 Tb857 2.341 . S
O881 C866 1.266 . S
O882 Tb857 2.484 . S
O882 C867 1.248 . S
O883 Tb857 2.440 . S
O883 C867 1.266 . S
O884 Tb856 2.325 . S
O884 Tb857 2.658 . S
O884 C874 1.281 . S
O885 Tb857 2.409 . S
O885 C874 1.254 . S
O886 Tb857 2.378 . S
O886 C875 1.236 . S
O887 Tb856 2.341 . S
O887 C875 1.266 . S
H888 C860 0.929 . S
H889 C861 0.931 . S
H890 C863 0.930 . S
H891 C864 0.930 . S
H892 C869 0.929 . S
H893 C870 0.931 . S
H894 C872 0.930 . S
H895 C873 0.930 . S
Tb896 C898 2.809 . S
Tb896 O916 2.484 . S
Tb896 O917 2.440 . S
Tb896 O918 2.658 . S
Tb896 O919 2.409 . S
Tb896 O920 2.378 . S
Tb896 O924 2.325 . S
Tb896 O927 2.341 . S
Tb897 C907 2.809 . S
Tb897 O918 2.325 . S
Tb897 O921 2.341 . S
Tb897 O922 2.484 . S
Tb897 O923 2.440 . S
Tb897 O924 2.658 . S
Tb897 O925 2.409 . S
Tb897 O926 2.378 . S
C898 Tb896 2.809 . S
C898 C899 1.514 . S
C898 O916 1.248 . S
C898 O917 1.266 . S
C899 C898 1.514 . S
C899 C900 1.359 . S
C899 C904 1.348 . S
C900 C899 1.359 . S
C900 C901 1.380 . S
C900 H928 0.929 . S
C901 C900 1.380 . S
C901 C902 1.347 . S
C901 H929 0.931 . S
C902 C901 1.347 . S
C902 C903 1.369 . S
C903 C902 1.369 . S
C903 C904 1.408 . S
C903 H930 0.930 . S
C904 C899 1.348 . S
C904 C903 1.408 . S
C904 H931 0.930 . S
C905 O918 1.281 . S
C905 O919 1.254 . S
C906 O920 1.236 . S
C906 O921 1.266 . S
C907 Tb897 2.809 . S
C907 C908 1.514 . S
C907 O922 1.248 . S
C907 O923 1.266 . S
C908 C907 1.514 . S
C908 C909 1.359 . S
C908 C913 1.348 . S
C909 C908 1.359 . S
C909 C910 1.380 . S
C909 H932 0.929 . S
C910 C909 1.380 . S
C910 C911 1.347 . S
C910 H933 0.931 . S
C911 C910 1.347 . S
C911 C912 1.369 . S
C912 C911 1.369 . S
C912 C913 1.408 . S
C912 H934 0.930 . S
C913 C908 1.348 . S
C913 C912 1.408 . S
C913 H935 0.930 . S
C914 O924 1.281 . S
C914 O925 1.254 . S
C915 O926 1.236 . S
C915 O927 1.266 . S
O916 Tb896 2.484 . S
O916 C898 1.248 . S
O917 Tb896 2.440 . S
O917 C898 1.266 . S
O918 Tb896 2.658 . S
O918 Tb897 2.325 . S
O918 C905 1.281 . S
O919 Tb896 2.409 . S
O919 C905 1.254 . S
O920 Tb896 2.378 . S
O920 C906 1.236 . S
O921 Tb897 2.341 . S
O921 C906 1.266 . S
O922 Tb897 2.484 . S
O922 C907 1.248 . S
O923 Tb897 2.440 . S
O923 C907 1.266 . S
O924 Tb896 2.325 . S
O924 Tb897 2.658 . S
O924 C914 1.281 . S
O925 Tb897 2.409 . S
O925 C914 1.254 . S
O926 Tb897 2.378 . S
O926 C915 1.236 . S
O927 Tb896 2.341 . S
O927 C915 1.266 . S
H928 C900 0.929 . S
H929 C901 0.931 . S
H930 C903 0.930 . S
H931 C904 0.930 . S
H932 C909 0.929 . S
H933 C910 0.931 . S
H934 C912 0.930 . S
H935 C913 0.930 . S
Tb936 C938 2.809 . S
Tb936 O956 2.484 . S
Tb936 O957 2.440 . S
Tb936 O958 2.658 . S
Tb936 O959 2.409 1_554 S
Tb936 O960 2.378 . S
Tb936 O964 2.325 . S
Tb936 O967 2.341 . S
Tb937 C947 2.809 1_455 S
Tb937 O958 2.325 . S
Tb937 O961 2.341 . S
Tb937 O962 2.484 1_455 S
Tb937 O963 2.440 1_455 S
Tb937 O964 2.658 . S
Tb937 O965 2.409 . S
Tb937 O966 2.378 . S
C938 Tb936 2.809 . S
C938 C939 1.514 . S
C938 O956 1.248 . S
C938 O957 1.266 . S
C939 C938 1.514 . S
C939 C940 1.359 . S
C939 C944 1.348 . S
C940 C939 1.359 . S
C940 C941 1.380 . S
C940 H968 0.929 . S
C941 C940 1.380 . S
C941 C942 1.347 . S
C941 H969 0.931 . S
C942 C941 1.347 . S
C942 C943 1.369 1_554 S
C943 C942 1.369 1_556 S
C943 C944 1.408 1_556 S
C943 H970 0.930 . S
C944 C939 1.348 . S
C944 C943 1.408 1_554 S
C944 H971 0.930 1_554 S
C945 O958 1.281 . S
C945 O959 1.254 1_554 S
C946 O960 1.236 . S
C946 O961 1.266 . S
C947 Tb937 2.809 1_655 S
C947 C948 1.514 . S
C947 O962 1.248 . S
C947 O963 1.266 . S
C948 C947 1.514 . S
C948 C949 1.359 . S
C948 C953 1.348 . S
C949 C948 1.359 . S
C949 C950 1.380 . S
C949 H972 0.929 . S
C950 C949 1.380 . S
C950 C951 1.347 . S
C950 H973 0.931 . S
C951 C950 1.347 . S
C951 C952 1.369 . S
C952 C951 1.369 . S
C952 C953 1.408 . S
C952 H974 0.930 . S
C953 C948 1.348 . S
C953 C952 1.408 . S
C953 H975 0.930 . S
C954 O964 1.281 . S
C954 O965 1.254 . S
C955 O966 1.236 . S
C955 O967 1.266 . S
O956 Tb936 2.484 . S
O956 C938 1.248 . S
O957 Tb936 2.440 . S
O957 C938 1.266 . S
O958 Tb936 2.658 . S
O958 Tb937 2.325 . S
O958 C945 1.281 . S
O959 Tb936 2.409 1_556 S
O959 C945 1.254 1_556 S
O960 Tb936 2.378 . S
O960 C946 1.236 . S
O961 Tb937 2.341 . S
O961 C946 1.266 . S
O962 Tb937 2.484 1_655 S
O962 C947 1.248 . S
O963 Tb937 2.440 1_655 S
O963 C947 1.266 . S
O964 Tb936 2.325 . S
O964 Tb937 2.658 . S
O964 C954 1.281 . S
O965 Tb937 2.409 . S
O965 C954 1.254 . S
O966 Tb937 2.378 . S
O966 C955 1.236 . S
O967 Tb936 2.341 . S
O967 C955 1.266 . S
H968 C940 0.929 . S
H969 C941 0.931 . S
H970 C943 0.930 . S
H971 C944 0.930 1_556 S
H972 C949 0.929 . S
H973 C950 0.931 . S
H974 C952 0.930 . S
H975 C953 0.930 . S
H976 C982 0.930 . S
H977 C986 0.930 . S
H978 C991 0.929 . S
H979 C989 0.947 . S
H980 C984 0.929 . S
H981 C990 0.929 . S
C982 H976 0.930 . S
C982 C983 1.367 . S
C982 C990 1.378 . S
C983 C982 1.367 . S
C983 C991 1.433 1_556 S
C984 H980 0.929 . S
C984 C986 1.378 . S
C984 C988 1.350 . S
C985 C988 1.463 . S
C985 C990 1.350 1_554 S
C985 N993 1.427 . S
C986 H977 0.930 . S
C986 C984 1.378 . S
C986 C987 1.367 . S
C987 C986 1.367 . S
C987 C989 1.433 . S
C988 C984 1.350 . S
C988 C985 1.463 . S
C988 N992 1.422 1_554 S
C989 H979 0.947 . S
C989 C987 1.433 . S
C989 N992 1.378 1_554 S
C990 H981 0.929 . S
C990 C982 1.378 . S
C990 C985 1.350 1_556 S
C991 H978 0.929 . S
C991 C983 1.433 1_554 S
C991 N993 1.384 . S
N992 C988 1.422 1_556 S
N992 C989 1.378 1_556 S
N993 C985 1.427 . S
N993 C991 1.384 . S
H994 C1000 0.930 . S
H995 C1004 0.930 . S
H996 C1009 0.929 . S
H997 C1007 0.929 . S
H998 C1002 0.929 . S
H999 C1008 0.929 . S
C1000 H994 0.930 . S
C1000 C1001 1.367 . S
C1000 C1008 1.378 . S
C1001 C1000 1.367 . S
C1001 C1009 1.433 . S
C1002 H998 0.929 . S
C1002 C1004 1.378 . S
C1002 C1006 1.350 . S
C1003 C1006 1.463 . S
C1003 C1008 1.350 . S
C1003 N1011 1.427 . S
C1004 H995 0.930 . S
C1004 C1002 1.378 . S
C1004 C1005 1.367 . S
C1005 C1004 1.367 . S
C1005 C1007 1.433 . S
C1006 C1002 1.350 . S
C1006 C1003 1.463 . S
C1006 N1010 1.427 . S
C1007 H997 0.929 . S
C1007 C1005 1.433 . S
C1007 N1010 1.384 . S
C1008 H999 0.929 . S
C1008 C1000 1.378 . S
C1008 C1003 1.350 . S
C1009 H996 0.929 . S
C1009 C1001 1.433 . S
C1009 N1011 1.384 . S
N1010 C1006 1.427 . S
N1010 C1007 1.384 . S
N1011 C1003 1.427 . S
N1011 C1009 1.384 . S
H1012 C1018 0.930 . S
H1013 C1022 0.930 . S
H1014 C1027 0.929 . S
H1015 C1025 0.929 . S
H1016 C1020 0.929 . S
H1017 C1026 0.929 . S
C1018 H1012 0.930 . S
C1018 C1019 1.367 . S
C1018 C1026 1.378 . S
C1019 C1018 1.367 . S
C1019 C1027 1.433 . S
C1020 H1016 0.929 . S
C1020 C1022 1.378 . S
C1020 C1024 1.350 . S
C1021 C1024 1.463 . S
C1021 C1026 1.350 . S
C1021 N1029 1.427 . S
C1022 H1013 0.930 . S
C1022 C1020 1.378 . S
C1022 C1023 1.367 . S
C1023 C1022 1.367 . S
C1023 C1025 1.433 . S
C1024 C1020 1.350 . S
C1024 C1021 1.463 . S
C1024 N1028 1.427 . S
C1025 H1015 0.929 . S
C1025 C1023 1.433 . S
C1025 N1028 1.384 . S
C1026 H1017 0.929 . S
C1026 C1018 1.378 . S
C1026 C1021 1.350 . S
C1027 H1014 0.929 . S
C1027 C1019 1.433 . S
C1027 N1029 1.384 . S
N1028 C1024 1.427 . S
N1028 C1025 1.384 . S
N1029 C1021 1.427 . S
N1029 C1027 1.384 . S
H1030 C1036 0.930 . S
H1031 C1040 0.930 . S
H1032 C1045 0.929 . S
H1033 C1043 0.929 . S
H1034 C1038 0.929 . S
H1035 C1044 0.929 . S
C1036 H1030 0.930 . S
C1036 C1037 1.367 . S
C1036 C1044 1.378 . S
C1037 C1036 1.367 . S
C1037 C1045 1.433 . S
C1038 H1034 0.929 . S
C1038 C1040 1.378 . S
C1038 C1042 1.350 . S
C1039 C1042 1.463 . S
C1039 C1044 1.350 . S
C1039 N1047 1.427 . S
C1040 H1031 0.930 . S
C1040 C1038 1.378 . S
C1040 C1041 1.367 . S
C1041 C1040 1.367 . S
C1041 C1043 1.433 . S
C1042 C1038 1.350 . S
C1042 C1039 1.463 . S
C1042 N1046 1.427 . S
C1043 H1033 0.929 . S
C1043 C1041 1.433 . S
C1043 N1046 1.384 . S
C1044 H1035 0.929 . S
C1044 C1036 1.378 . S
C1044 C1039 1.350 . S
C1045 H1032 0.929 . S
C1045 C1037 1.433 . S
C1045 N1047 1.384 . S
N1046 C1042 1.427 . S
N1046 C1043 1.384 . S
N1047 C1039 1.427 . S
N1047 C1045 1.384 . S
H1048 C1054 0.930 . S
H1049 C1058 0.930 . S
H1050 C1063 0.929 . S
H1051 C1061 0.929 . S
H1052 C1056 0.929 . S
H1053 C1062 0.929 . S
C1054 H1048 0.930 . S
C1054 C1055 1.367 . S
C1054 C1062 1.378 . S
C1055 C1054 1.367 . S
C1055 C1063 1.433 . S
C1056 H1052 0.929 . S
C1056 C1058 1.378 . S
C1056 C1060 1.350 . S
C1057 C1060 1.463 . S
C1057 C1062 1.350 . S
C1057 N1065 1.427 . S
C1058 H1049 0.930 . S
C1058 C1056 1.378 . S
C1058 C1059 1.367 . S
C1059 C1058 1.367 . S
C1059 C1061 1.433 . S
C1060 C1056 1.350 . S
C1060 C1057 1.463 . S
C1060 N1064 1.427 . S
C1061 H1051 0.929 . S
C1061 C1059 1.433 . S
C1061 N1064 1.384 . S
C1062 H1053 0.929 . S
C1062 C1054 1.378 . S
C1062 C1057 1.350 . S
C1063 H1050 0.929 . S
C1063 C1055 1.433 . S
C1063 N1065 1.384 . S
N1064 C1060 1.427 . S
N1064 C1061 1.384 . S
N1065 C1057 1.427 . S
N1065 C1063 1.384 . S
H1066 C1072 0.930 . S
H1067 C1076 0.930 . S
H1068 C1081 0.929 . S
H1069 C1079 0.929 . S
H1070 C1074 0.929 . S
H1071 C1080 0.929 . S
C1072 H1066 0.930 . S
C1072 C1073 1.367 . S
C1072 C1080 1.378 . S
C1073 C1072 1.367 . S
C1073 C1081 1.433 . S
C1074 H1070 0.929 . S
C1074 C1076 1.378 . S
C1074 C1078 1.350 . S
C1075 C1078 1.463 . S
C1075 C1080 1.350 . S
C1075 N1083 1.427 . S
C1076 H1067 0.930 . S
C1076 C1074 1.378 . S
C1076 C1077 1.367 . S
C1077 C1076 1.367 . S
C1077 C1079 1.433 . S
C1078 C1074 1.350 . S
C1078 C1075 1.463 . S
C1078 N1082 1.427 . S
C1079 H1069 0.929 . S
C1079 C1077 1.433 . S
C1079 N1082 1.384 . S
C1080 H1071 0.929 . S
C1080 C1072 1.378 . S
C1080 C1075 1.350 . S
C1081 H1068 0.929 . S
C1081 C1073 1.433 . S
C1081 N1083 1.384 . S
N1082 C1078 1.427 . S
N1082 C1079 1.384 . S
N1083 C1075 1.427 . S
N1083 C1081 1.384 . S
H1084 C1090 0.930 . S
H1085 C1094 0.930 . S
H1086 C1099 0.929 . S
H1087 C1097 0.929 . S
H1088 C1092 0.929 . S
H1089 C1098 0.929 . S
C1090 H1084 0.930 . S
C1090 C1091 1.367 . S
C1090 C1098 1.378 . S
C1091 C1090 1.367 . S
C1091 C1099 1.433 . S
C1092 H1088 0.929 . S
C1092 C1094 1.378 . S
C1092 C1096 1.350 . S
C1093 C1096 1.463 . S
C1093 C1098 1.350 . S
C1093 N1101 1.427 . S
C1094 H1085 0.930 . S
C1094 C1092 1.378 . S
C1094 C1095 1.367 . S
C1095 C1094 1.367 . S
C1095 C1097 1.433 . S
C1096 C1092 1.350 . S
C1096 C1093 1.463 . S
C1096 N1100 1.427 . S
C1097 H1087 0.929 . S
C1097 C1095 1.433 . S
C1097 N1100 1.384 . S
C1098 H1089 0.929 . S
C1098 C1090 1.378 . S
C1098 C1093 1.350 . S
C1099 H1086 0.929 . S
C1099 C1091 1.433 . S
C1099 N1101 1.384 . S
N1100 C1096 1.427 . S
N1100 C1097 1.384 . S
N1101 C1093 1.427 . S
N1101 C1099 1.384 . S
H1102 C1108 0.930 . S
H1103 C1112 0.930 . S
H1104 C1117 0.929 . S
H1105 C1115 0.929 . S
H1106 C1110 0.929 . S
H1107 C1116 0.929 . S
C1108 H1102 0.930 . S
C1108 C1109 1.367 . S
C1108 C1116 1.378 . S
C1109 C1108 1.367 . S
C1109 C1117 1.433 . S
C1110 H1106 0.929 . S
C1110 C1112 1.378 . S
C1110 C1114 1.350 . S
C1111 C1114 1.463 . S
C1111 C1116 1.350 . S
C1111 N1119 1.427 . S
C1112 H1103 0.930 . S
C1112 C1110 1.378 . S
C1112 C1113 1.367 . S
C1113 C1112 1.367 . S
C1113 C1115 1.433 . S
C1114 C1110 1.350 . S
C1114 C1111 1.463 . S
C1114 N1118 1.427 . S
C1115 H1105 0.929 . S
C1115 C1113 1.433 . S
C1115 N1118 1.384 . S
C1116 H1107 0.929 . S
C1116 C1108 1.378 . S
C1116 C1111 1.350 . S
C1117 H1104 0.929 . S
C1117 C1109 1.433 . S
C1117 N1119 1.384 . S
N1118 C1114 1.427 . S
N1118 C1115 1.384 . S
N1119 C1111 1.427 . S
N1119 C1117 1.384 . S
H1120 C1126 0.930 . S
H1121 C1130 0.932 . S
H1122 C1135 0.929 . S
H1123 C1133 0.929 . S
H1124 C1128 0.929 1_565 S
H1125 C1134 0.929 1_455 S
C1126 H1120 0.930 . S
C1126 C1127 1.367 . S
C1126 C1134 1.378 . S
C1127 C1126 1.367 . S
C1127 C1135 1.433 1_545 S
C1128 H1124 0.929 1_545 S
C1128 C1130 1.378 . S
C1128 C1132 1.350 . S
C1129 C1132 1.463 . S
C1129 C1134 1.350 . S
C1129 N1137 1.427 1_545 S
C1130 H1121 0.932 . S
C1130 C1128 1.378 . S
C1130 C1131 1.367 1_655 S
C1131 C1130 1.367 1_455 S
C1131 C1133 1.433 . S
C1132 C1128 1.350 . S
C1132 C1129 1.463 . S
C1132 N1136 1.427 1_655 S
C1133 H1123 0.929 . S
C1133 C1131 1.433 . S
C1133 N1136 1.384 . S
C1134 H1125 0.929 1_655 S
C1134 C1126 1.378 . S
C1134 C1129 1.350 . S
C1135 H1122 0.929 . S
C1135 C1127 1.433 1_565 S
C1135 N1137 1.384 . S
N1136 C1132 1.427 1_455 S
N1136 C1133 1.384 . S
N1137 C1129 1.427 1_565 S
N1137 C1135 1.384 . S
H1138 C1144 0.930 . S
H1139 C1148 0.930 . S
H1140 C1153 0.929 . S
H1141 C1151 0.929 . S
H1142 C1146 0.929 . S
H1143 C1152 0.929 . S
C1144 H1138 0.930 . S
C1144 C1145 1.367 . S
C1144 C1152 1.378 . S
C1145 C1144 1.367 . S
C1145 C1153 1.433 . S
C1146 H1142 0.929 . S
C1146 C1148 1.378 . S
C1146 C1150 1.350 . S
C1147 C1150 1.463 . S
C1147 C1152 1.350 . S
C1147 N1155 1.427 . S
C1148 H1139 0.930 . S
C1148 C1146 1.378 . S
C1148 C1149 1.367 . S
C1149 C1148 1.367 . S
C1149 C1151 1.433 . S
C1150 C1146 1.350 . S
C1150 C1147 1.463 . S
C1150 N1154 1.427 . S
C1151 H1141 0.929 . S
C1151 C1149 1.433 . S
C1151 N1154 1.384 . S
C1152 H1143 0.929 . S
C1152 C1144 1.378 . S
C1152 C1147 1.350 . S
C1153 H1140 0.929 . S
C1153 C1145 1.433 . S
C1153 N1155 1.384 . S
N1154 C1150 1.427 . S
N1154 C1151 1.384 . S
N1155 C1147 1.427 . S
N1155 C1153 1.384 . S
H1156 C1162 0.930 . S
H1157 C1166 0.930 . S
H1158 C1171 0.929 . S
H1159 C1169 0.929 . S
H1160 C1164 0.929 . S
H1161 C1170 0.929 . S
C1162 H1156 0.930 . S
C1162 C1163 1.367 . S
C1162 C1170 1.378 . S
C1163 C1162 1.367 . S
C1163 C1171 1.433 1_545 S
C1164 H1160 0.929 . S
C1164 C1166 1.378 . S
C1164 C1168 1.350 1_565 S
C1165 C1168 1.463 . S
C1165 C1170 1.350 . S
C1165 N1173 1.427 1_545 S
C1166 H1157 0.930 . S
C1166 C1164 1.378 . S
C1166 C1167 1.367 1_565 S
C1167 C1166 1.367 1_545 S
C1167 C1169 1.433 . S
C1168 C1164 1.350 1_545 S
C1168 C1165 1.463 . S
C1168 N1172 1.427 . S
C1169 H1159 0.929 . S
C1169 C1167 1.433 . S
C1169 N1172 1.384 . S
C1170 H1161 0.929 . S
C1170 C1162 1.378 . S
C1170 C1165 1.350 . S
C1171 H1158 0.929 . S
C1171 C1163 1.433 1_565 S
C1171 N1173 1.384 . S
N1172 C1168 1.427 . S
N1172 C1169 1.384 . S
N1173 C1165 1.427 1_565 S
N1173 C1171 1.384 . S
H1174 C1180 0.930 . S
H1175 C1184 0.930 . S
H1176 C1189 0.929 . S
H1177 C1187 0.929 . S
H1178 C1182 0.929 . S
H1179 C1188 0.929 . S
C1180 H1174 0.930 . S
C1180 C1181 1.367 . S
C1180 C1188 1.378 . S
C1181 C1180 1.367 . S
C1181 C1189 1.433 . S
C1182 H1178 0.929 . S
C1182 C1184 1.378 . S
C1182 C1186 1.350 . S
C1183 C1186 1.463 . S
C1183 C1188 1.350 . S
C1183 N1191 1.427 . S
C1184 H1175 0.930 . S
C1184 C1182 1.378 . S
C1184 C1185 1.367 . S
C1185 C1184 1.367 . S
C1185 C1187 1.433 . S
C1186 C1182 1.350 . S
C1186 C1183 1.463 . S
C1186 N1190 1.427 . S
C1187 H1177 0.929 . S
C1187 C1185 1.433 . S
C1187 N1190 1.384 . S
C1188 H1179 0.929 . S
C1188 C1180 1.378 . S
C1188 C1183 1.350 . S
C1189 H1176 0.929 . S
C1189 C1181 1.433 . S
C1189 N1191 1.384 . S
N1190 C1186 1.427 . S
N1190 C1187 1.384 . S
N1191 C1183 1.427 . S
N1191 C1189 1.384 . S
H1192 C1198 0.930 . S
H1193 C1202 0.930 . S
H1194 C1207 0.929 . S
H1195 C1205 0.929 . S
H1196 C1200 0.936 1_655 S
H1197 C1206 0.929 . S
C1198 H1192 0.930 . S
C1198 C1199 1.367 . S
C1198 C1206 1.378 . S
C1199 C1198 1.367 . S
C1199 C1207 1.433 1_545 S
C1200 H1196 0.936 1_455 S
C1200 C1202 1.391 . S
C1200 C1204 1.331 1_465 S
C1201 C1204 1.463 . S
C1201 C1206 1.350 . S
C1201 N1209 1.427 1_545 S
C1202 H1193 0.930 . S
C1202 C1200 1.391 . S
C1202 C1203 1.367 1_565 S
C1203 C1202 1.367 1_545 S
C1203 C1205 1.433 . S
C1204 C1200 1.331 1_645 S
C1204 C1201 1.463 . S
C1204 N1208 1.427 . S
C1205 H1195 0.929 . S
C1205 C1203 1.433 . S
C1205 N1208 1.384 1_455 S
C1206 H1197 0.929 . S
C1206 C1198 1.378 . S
C1206 C1201 1.350 . S
C1207 H1194 0.929 . S
C1207 C1199 1.433 1_565 S
C1207 N1209 1.384 . S
N1208 C1204 1.427 . S
N1208 C1205 1.384 1_655 S
N1209 C1201 1.427 1_565 S
N1209 C1207 1.384 . S
H1210 C1216 0.930 . S
H1211 C1220 0.930 . S
H1212 C1225 0.929 . S
H1213 C1223 0.929 . S
H1214 C1218 0.929 . S
H1215 C1224 0.929 . S
C1216 H1210 0.930 . S
C1216 C1217 1.367 . S
C1216 C1224 1.378 . S
C1217 C1216 1.367 . S
C1217 C1225 1.433 . S
C1218 H1214 0.929 . S
C1218 C1220 1.378 . S
C1218 C1222 1.350 . S
C1219 C1222 1.463 . S
C1219 C1224 1.350 . S
C1219 N1227 1.427 . S
C1220 H1211 0.930 . S
C1220 C1218 1.378 . S
C1220 C1221 1.367 . S
C1221 C1220 1.367 . S
C1221 C1223 1.433 . S
C1222 C1218 1.350 . S
C1222 C1219 1.463 . S
C1222 N1226 1.427 . S
C1223 H1213 0.929 . S
C1223 C1221 1.433 . S
C1223 N1226 1.384 . S
C1224 H1215 0.929 . S
C1224 C1216 1.378 . S
C1224 C1219 1.350 . S
C1225 H1212 0.929 . S
C1225 C1217 1.433 . S
C1225 N1227 1.384 . S
N1226 C1222 1.427 . S
N1226 C1223 1.384 . S
N1227 C1219 1.427 . S
N1227 C1225 1.384 . S
H1228 C1234 0.930 1_565 S
H1229 C1238 0.930 . S
H1230 C1243 0.929 . S
H1231 C1241 0.929 . S
H1232 C1236 0.929 . S
H1233 C1242 0.929 1_565 S
C1234 H1228 0.930 1_545 S
C1234 C1235 1.367 . S
C1234 C1242 1.378 . S
C1235 C1234 1.367 . S
C1235 C1243 1.433 . S
C1236 H1232 0.929 . S
C1236 C1238 1.378 . S
C1236 C1240 1.350 . S
C1237 C1240 1.463 . S
C1237 C1242 1.350 . S
C1237 N1245 1.427 . S
C1238 H1229 0.930 . S
C1238 C1236 1.378 . S
C1238 C1239 1.367 . S
C1239 C1238 1.367 . S
C1239 C1241 1.433 . S
C1240 C1236 1.350 . S
C1240 C1237 1.463 . S
C1240 N1244 1.427 . S
C1241 H1231 0.929 . S
C1241 C1239 1.433 . S
C1241 N1244 1.384 . S
C1242 H1233 0.929 1_545 S
C1242 C1234 1.378 . S
C1242 C1237 1.350 . S
C1243 H1230 0.929 . S
C1243 C1235 1.433 . S
C1243 N1245 1.384 . S
N1244 C1240 1.427 . S
N1244 C1241 1.384 . S
N1245 C1237 1.427 . S
N1245 C1243 1.384 . S
H1246 C1252 0.930 . S
H1247 C1256 0.930 . S
H1248 C1261 0.929 . S
H1249 C1259 0.929 . S
H1250 C1254 0.929 . S
H1251 C1260 0.929 . S
C1252 H1246 0.930 . S
C1252 C1253 1.367 . S
C1252 C1260 1.378 . S
C1253 C1252 1.367 . S
C1253 C1261 1.433 . S
C1254 H1250 0.929 . S
C1254 C1256 1.378 . S
C1254 C1258 1.350 . S
C1255 C1258 1.463 . S
C1255 C1260 1.350 . S
C1255 N1263 1.427 . S
C1256 H1247 0.930 . S
C1256 C1254 1.378 . S
C1256 C1257 1.367 . S
C1257 C1256 1.367 . S
C1257 C1259 1.433 . S
C1258 C1254 1.350 . S
C1258 C1255 1.463 . S
C1258 N1262 1.427 . S
C1259 H1249 0.929 . S
C1259 C1257 1.433 . S
C1259 N1262 1.384 . S
C1260 H1251 0.929 . S
C1260 C1252 1.378 . S
C1260 C1255 1.350 . S
C1261 H1248 0.929 . S
C1261 C1253 1.433 . S
C1261 N1263 1.384 . S
N1262 C1258 1.427 . S
N1262 C1259 1.384 . S
N1263 C1255 1.427 . S
N1263 C1261 1.384 . S
H1264 C1270 0.930 . S
H1265 C1274 0.930 . S
H1266 C1279 0.929 . S
H1267 C1277 0.929 . S
H1268 C1272 0.929 . S
H1269 C1278 0.921 1_556 S
C1270 H1264 0.930 . S
C1270 C1271 1.367 1_556 S
C1270 C1278 1.378 1_556 S
C1271 C1270 1.367 1_554 S
C1271 C1279 1.433 . S
C1272 H1268 0.929 . S
C1272 C1274 1.378 . S
C1272 C1276 1.350 . S
C1273 C1276 1.463 . S
C1273 C1278 1.350 . S
C1273 N1281 1.427 . S
C1274 H1265 0.930 . S
C1274 C1272 1.378 . S
C1274 C1275 1.367 . S
C1275 C1274 1.367 . S
C1275 C1277 1.433 . S
C1276 C1272 1.350 . S
C1276 C1273 1.463 . S
C1276 N1280 1.427 . S
C1277 H1267 0.929 . S
C1277 C1275 1.433 . S
C1277 N1280 1.384 . S
C1278 H1269 0.921 1_554 S
C1278 C1270 1.378 1_554 S
C1278 C1273 1.350 . S
C1279 H1266 0.929 . S
C1279 C1271 1.433 . S
C1279 N1281 1.384 . S
N1280 C1276 1.427 . S
N1280 C1277 1.384 . S
N1281 C1273 1.427 . S
N1281 C1279 1.384 . S
H1282 C1288 0.930 . S
H1283 C1292 0.930 . S
H1284 C1297 0.929 1_556 S
H1285 C1295 0.929 . S
H1286 C1290 0.925 . S
H1287 C1296 0.929 . S
C1288 H1282 0.930 . S
C1288 C1289 1.367 . S
C1288 C1296 1.378 . S
C1289 C1288 1.367 . S
C1289 C1297 1.433 . S
C1290 H1286 0.925 . S
C1290 C1292 1.378 . S
C1290 C1294 1.350 . S
C1291 C1294 1.463 . S
C1291 C1296 1.350 . S
C1291 N1299 1.427 . S
C1292 H1283 0.930 . S
C1292 C1290 1.378 . S
C1292 C1293 1.367 . S
C1293 C1292 1.367 . S
C1293 C1295 1.433 . S
C1294 C1290 1.350 . S
C1294 C1291 1.463 . S
C1294 N1298 1.427 . S
C1295 H1285 0.929 . S
C1295 C1293 1.433 . S
C1295 N1298 1.384 . S
C1296 H1287 0.929 . S
C1296 C1288 1.378 . S
C1296 C1291 1.350 . S
C1297 H1284 0.929 1_554 S
C1297 C1289 1.433 . S
C1297 N1299 1.384 . S
N1298 C1294 1.427 . S
N1298 C1295 1.384 . S
N1299 C1291 1.427 . S
N1299 C1297 1.384 . S
H1300 C1306 0.930 . S
H1301 C1310 0.930 . S
H1302 C1315 0.929 . S
H1303 C1313 0.929 . S
H1304 C1308 0.929 . S
H1305 C1314 0.929 . S
C1306 H1300 0.930 . S
C1306 C1307 1.367 . S
C1306 C1314 1.378 . S
C1307 C1306 1.367 . S
C1307 C1315 1.433 . S
C1308 H1304 0.929 . S
C1308 C1310 1.378 . S
C1308 C1312 1.350 . S
C1309 C1312 1.463 . S
C1309 C1314 1.350 . S
C1309 N1317 1.427 . S
C1310 H1301 0.930 . S
C1310 C1308 1.378 . S
C1310 C1311 1.367 . S
C1311 C1310 1.367 . S
C1311 C1313 1.433 . S
C1312 C1308 1.350 . S
C1312 C1309 1.463 . S
C1312 N1316 1.427 . S
C1313 H1303 0.929 . S
C1313 C1311 1.433 . S
C1313 N1316 1.384 . S
C1314 H1305 0.929 . S
C1314 C1306 1.378 . S
C1314 C1309 1.350 . S
C1315 H1302 0.929 . S
C1315 C1307 1.433 . S
C1315 N1317 1.384 . S
N1316 C1312 1.427 . S
N1316 C1313 1.384 . S
N1317 C1309 1.427 . S
N1317 C1315 1.384 . S
H1318 C1324 0.930 . S
H1319 C1328 0.930 . S
H1320 C1333 0.929 . S
H1321 C1331 0.929 . S
H1322 C1326 0.929 . S
H1323 C1332 0.929 . S
C1324 H1318 0.930 . S
C1324 C1325 1.367 . S
C1324 C1332 1.378 . S
C1325 C1324 1.367 . S
C1325 C1333 1.433 . S
C1326 H1322 0.929 . S
C1326 C1328 1.378 . S
C1326 C1330 1.350 . S
C1327 C1330 1.463 . S
C1327 C1332 1.350 . S
C1327 N1335 1.427 . S
C1328 H1319 0.930 . S
C1328 C1326 1.378 . S
C1328 C1329 1.367 . S
C1329 C1328 1.367 . S
C1329 C1331 1.433 . S
C1330 C1326 1.350 . S
C1330 C1327 1.463 . S
C1330 N1334 1.427 . S
C1331 H1321 0.929 . S
C1331 C1329 1.433 . S
C1331 N1334 1.384 . S
C1332 H1323 0.929 . S
C1332 C1324 1.378 . S
C1332 C1327 1.350 . S
C1333 H1320 0.929 . S
C1333 C1325 1.433 . S
C1333 N1335 1.384 . S
N1334 C1330 1.427 . S
N1334 C1331 1.384 . S
N1335 C1327 1.427 . S
N1335 C1333 1.384 . S
H1336 C1342 0.930 . S
H1337 C1346 0.930 . S
H1338 C1351 0.929 . S
H1339 C1349 0.929 . S
H1340 C1344 0.929 . S
H1341 C1350 0.929 . S
C1342 H1336 0.930 . S
C1342 C1343 1.367 . S
C1342 C1350 1.378 . S
C1343 C1342 1.367 . S
C1343 C1351 1.433 . S
C1344 H1340 0.929 . S
C1344 C1346 1.378 . S
C1344 C1348 1.350 . S
C1345 C1348 1.463 . S
C1345 C1350 1.350 . S
C1345 N1353 1.427 . S
C1346 H1337 0.930 . S
C1346 C1344 1.378 . S
C1346 C1347 1.367 . S
C1347 C1346 1.367 . S
C1347 C1349 1.433 . S
C1348 C1344 1.350 . S
C1348 C1345 1.463 . S
C1348 N1352 1.427 . S
C1349 H1339 0.929 . S
C1349 C1347 1.433 . S
C1349 N1352 1.384 . S
C1350 H1341 0.929 . S
C1350 C1342 1.378 . S
C1350 C1345 1.350 . S
C1351 H1338 0.929 . S
C1351 C1343 1.433 . S
C1351 N1353 1.384 . S
N1352 C1348 1.427 . S
N1352 C1349 1.384 . S
N1353 C1345 1.427 . S
N1353 C1351 1.384 . S
H1354 C1360 0.930 . S
H1355 C1364 0.930 . S
H1356 C1369 0.929 . S
H1357 C1367 0.929 . S
H1358 C1362 0.929 . S
H1359 C1368 0.929 . S
C1360 H1354 0.930 . S
C1360 C1361 1.367 . S
C1360 C1368 1.378 . S
C1361 C1360 1.367 . S
C1361 C1369 1.433 . S
C1362 H1358 0.929 . S
C1362 C1364 1.378 . S
C1362 C1366 1.350 . S
C1363 C1366 1.463 . S
C1363 C1368 1.350 . S
C1363 N1371 1.427 . S
C1364 H1355 0.930 . S
C1364 C1362 1.378 . S
C1364 C1365 1.367 . S
C1365 C1364 1.367 . S
C1365 C1367 1.433 . S
C1366 C1362 1.350 . S
C1366 C1363 1.463 . S
C1366 N1370 1.427 . S
C1367 H1357 0.929 . S
C1367 C1365 1.433 . S
C1367 N1370 1.384 . S
C1368 H1359 0.929 . S
C1368 C1360 1.378 . S
C1368 C1363 1.350 . S
C1369 H1356 0.929 . S
C1369 C1361 1.433 . S
C1369 N1371 1.384 . S
N1370 C1366 1.427 . S
N1370 C1367 1.384 . S
N1371 C1363 1.427 . S
N1371 C1369 1.384 . S
H1372 C1378 0.930 . S
H1373 C1382 0.930 . S
H1374 C1387 0.929 . S
H1375 C1385 0.929 . S
H1376 C1380 0.929 . S
H1377 C1386 0.929 . S
C1378 H1372 0.930 . S
C1378 C1379 1.367 . S
C1378 C1386 1.378 . S
C1379 C1378 1.367 . S
C1379 C1387 1.433 . S
C1380 H1376 0.929 . S
C1380 C1382 1.378 . S
C1380 C1384 1.350 . S
C1381 C1384 1.463 . S
C1381 C1386 1.350 . S
C1381 N1389 1.427 . S
C1382 H1373 0.930 . S
C1382 C1380 1.378 . S
C1382 C1383 1.367 . S
C1383 C1382 1.367 . S
C1383 C1385 1.433 . S
C1384 C1380 1.350 . S
C1384 C1381 1.463 . S
C1384 N1388 1.427 . S
C1385 H1375 0.929 . S
C1385 C1383 1.433 . S
C1385 N1388 1.384 . S
C1386 H1377 0.929 . S
C1386 C1378 1.378 . S
C1386 C1381 1.350 . S
C1387 H1374 0.929 . S
C1387 C1379 1.433 . S
C1387 N1389 1.384 . S
N1388 C1384 1.427 . S
N1388 C1385 1.384 . S
N1389 C1381 1.427 . S
N1389 C1387 1.384 . S
H1390 C1396 0.930 . S
H1391 C1400 0.930 . S
H1392 C1405 0.929 . S
H1393 C1403 0.929 . S
H1394 C1398 0.929 . S
H1395 C1404 0.929 . S
C1396 H1390 0.930 . S
C1396 C1397 1.367 . S
C1396 C1404 1.378 . S
C1397 C1396 1.367 . S
C1397 C1405 1.433 . S
C1398 H1394 0.929 . S
C1398 C1400 1.378 . S
C1398 C1402 1.350 . S
C1399 C1402 1.463 . S
C1399 C1404 1.350 . S
C1399 N1407 1.427 . S
C1400 H1391 0.930 . S
C1400 C1398 1.378 . S
C1400 C1401 1.367 . S
C1401 C1400 1.367 . S
C1401 C1403 1.433 . S
C1402 C1398 1.350 . S
C1402 C1399 1.463 . S
C1402 N1406 1.427 . S
C1403 H1393 0.929 . S
C1403 C1401 1.433 . S
C1403 N1406 1.384 . S
C1404 H1395 0.929 . S
C1404 C1396 1.378 . S
C1404 C1399 1.350 . S
C1405 H1392 0.929 . S
C1405 C1397 1.433 . S
C1405 N1407 1.384 . S
N1406 C1402 1.427 . S
N1406 C1403 1.384 . S
N1407 C1399 1.427 . S
N1407 C1405 1.384 . S
H1408 C1414 0.930 . S
H1409 C1418 0.930 . S
H1410 C1423 0.929 . S
H1411 C1421 0.929 . S
H1412 C1416 0.929 . S
H1413 C1422 0.929 . S
C1414 H1408 0.930 . S
C1414 C1415 1.367 . S
C1414 C1422 1.378 . S
C1415 C1414 1.367 . S
C1415 C1423 1.433 . S
C1416 H1412 0.929 . S
C1416 C1418 1.378 . S
C1416 C1420 1.350 . S
C1417 C1420 1.463 . S
C1417 C1422 1.350 . S
C1417 N1425 1.427 . S
C1418 H1409 0.930 . S
C1418 C1416 1.378 . S
C1418 C1419 1.367 . S
C1419 C1418 1.367 . S
C1419 C1421 1.433 . S
C1420 C1416 1.350 . S
C1420 C1417 1.463 . S
C1420 N1424 1.427 . S
C1421 H1411 0.929 . S
C1421 C1419 1.433 . S
C1421 N1424 1.384 . S
C1422 H1413 0.929 . S
C1422 C1414 1.378 . S
C1422 C1417 1.350 . S
C1423 H1410 0.929 . S
C1423 C1415 1.433 . S
C1423 N1425 1.384 . S
N1424 C1420 1.427 . S
N1424 C1421 1.384 . S
N1425 C1417 1.427 . S
N1425 C1423 1.384 . S
H1426 C1432 0.930 . S
H1427 C1436 0.930 . S
H1428 C1441 0.929 . S
H1429 C1439 0.929 . S
H1430 C1434 0.929 . S
H1431 C1440 0.929 . S
C1432 H1426 0.930 . S
C1432 C1433 1.367 . S
C1432 C1440 1.378 . S
C1433 C1432 1.367 . S
C1433 C1441 1.433 . S
C1434 H1430 0.929 . S
C1434 C1436 1.378 . S
C1434 C1438 1.350 . S
C1435 C1438 1.463 . S
C1435 C1440 1.350 . S
C1435 N1443 1.427 . S
C1436 H1427 0.930 . S
C1436 C1434 1.378 . S
C1436 C1437 1.367 . S
C1437 C1436 1.367 . S
C1437 C1439 1.433 . S
C1438 C1434 1.350 . S
C1438 C1435 1.463 . S
C1438 N1442 1.427 . S
C1439 H1429 0.929 . S
C1439 C1437 1.433 . S
C1439 N1442 1.384 . S
C1440 H1431 0.929 . S
C1440 C1432 1.378 . S
C1440 C1435 1.350 . S
C1441 H1428 0.929 . S
C1441 C1433 1.433 . S
C1441 N1443 1.384 . S
N1442 C1438 1.427 . S
N1442 C1439 1.384 . S
N1443 C1435 1.427 . S
N1443 C1441 1.384 . S
H1444 C1450 0.930 . S
H1445 C1454 0.930 . S
H1446 C1459 0.929 . S
H1447 C1457 0.929 . S
H1448 C1452 0.929 . S
H1449 C1458 0.929 . S
C1450 H1444 0.930 . S
C1450 C1451 1.367 . S
C1450 C1458 1.378 . S
C1451 C1450 1.367 . S
C1451 C1459 1.433 . S
C1452 H1448 0.929 . S
C1452 C1454 1.378 . S
C1452 C1456 1.350 . S
C1453 C1456 1.463 . S
C1453 C1458 1.350 . S
C1453 N1461 1.427 . S
C1454 H1445 0.930 . S
C1454 C1452 1.378 . S
C1454 C1455 1.367 . S
C1455 C1454 1.367 . S
C1455 C1457 1.433 . S
C1456 C1452 1.350 . S
C1456 C1453 1.463 . S
C1456 N1460 1.427 . S
C1457 H1447 0.929 . S
C1457 C1455 1.433 . S
C1457 N1460 1.384 . S
C1458 H1449 0.929 . S
C1458 C1450 1.378 . S
C1458 C1453 1.350 . S
C1459 H1446 0.929 . S
C1459 C1451 1.433 . S
C1459 N1461 1.384 . S
N1460 C1456 1.427 . S
N1460 C1457 1.384 . S
N1461 C1453 1.427 . S
N1461 C1459 1.384 . S
H1462 C1468 0.930 . S
H1463 C1472 0.930 . S
H1464 C1477 0.929 . S
H1465 C1475 0.929 . S
H1466 C1470 0.929 . S
H1467 C1476 0.929 . S
C1468 H1462 0.930 . S
C1468 C1469 1.367 . S
C1468 C1476 1.378 . S
C1469 C1468 1.367 . S
C1469 C1477 1.433 . S
C1470 H1466 0.929 . S
C1470 C1472 1.378 . S
C1470 C1474 1.350 . S
C1471 C1474 1.463 . S
C1471 C1476 1.350 . S
C1471 N1479 1.427 . S
C1472 H1463 0.930 . S
C1472 C1470 1.378 . S
C1472 C1473 1.367 . S
C1473 C1472 1.367 . S
C1473 C1475 1.433 . S
C1474 C1470 1.350 . S
C1474 C1471 1.463 . S
C1474 N1478 1.427 . S
C1475 H1465 0.929 . S
C1475 C1473 1.433 . S
C1475 N1478 1.384 . S
C1476 H1467 0.929 . S
C1476 C1468 1.378 . S
C1476 C1471 1.350 . S
C1477 H1464 0.929 . S
C1477 C1469 1.433 . S
C1477 N1479 1.384 . S
N1478 C1474 1.427 . S
N1478 C1475 1.384 . S
N1479 C1471 1.427 . S
N1479 C1477 1.384 . S
H1480 C1486 0.930 . S
H1481 C1490 0.930 . S
H1482 C1495 0.929 . S
H1483 C1493 0.929 . S
H1484 C1488 0.929 . S
H1485 C1494 0.929 . S
C1486 H1480 0.930 . S
C1486 C1487 1.365 1_655 S
C1486 C1494 1.378 . S
C1487 C1486 1.365 1_455 S
C1487 C1495 1.435 . S
C1488 H1484 0.929 . S
C1488 C1490 1.378 . S
C1488 C1492 1.350 . S
C1489 C1492 1.463 . S
C1489 C1494 1.349 1_455 S
C1489 N1497 1.429 . S
C1490 H1481 0.930 . S
C1490 C1488 1.378 . S
C1490 C1491 1.367 . S
C1491 C1490 1.367 . S
C1491 C1493 1.433 1_455 S
C1492 C1488 1.350 . S
C1492 C1489 1.463 . S
C1492 N1496 1.427 1_455 S
C1493 H1483 0.929 . S
C1493 C1491 1.433 1_655 S
C1493 N1496 1.384 . S
C1494 H1485 0.929 . S
C1494 C1486 1.378 . S
C1494 C1489 1.349 1_655 S
C1495 H1482 0.929 . S
C1495 C1487 1.435 . S
C1495 N1497 1.384 . S
N1496 C1492 1.427 1_655 S
N1496 C1493 1.384 . S
N1497 C1489 1.429 . S
N1497 C1495 1.384 . S
H1498 C1504 0.930 . S
H1499 C1508 0.930 . S
H1500 C1513 0.929 . S
H1501 C1511 0.929 . S
H1502 C1506 0.929 . S
H1503 C1512 0.929 . S
C1504 H1498 0.930 . S
C1504 C1505 1.367 . S
C1504 C1512 1.378 . S
C1505 C1504 1.367 . S
C1505 C1513 1.433 . S
C1506 H1502 0.929 . S
C1506 C1508 1.378 . S
C1506 C1510 1.350 . S
C1507 C1510 1.463 . S
C1507 C1512 1.350 . S
C1507 N1515 1.427 . S
C1508 H1499 0.930 . S
C1508 C1506 1.378 . S
C1508 C1509 1.367 . S
C1509 C1508 1.367 . S
C1509 C1511 1.433 . S
C1510 C1506 1.350 . S
C1510 C1507 1.463 . S
C1510 N1514 1.427 . S
C1511 H1501 0.929 . S
C1511 C1509 1.433 . S
C1511 N1514 1.384 . S
C1512 H1503 0.929 . S
C1512 C1504 1.378 . S
C1512 C1507 1.350 . S
C1513 H1500 0.929 . S
C1513 C1505 1.433 . S
C1513 N1515 1.384 . S
N1514 C1510 1.427 . S
N1514 C1511 1.384 . S
N1515 C1507 1.427 . S
N1515 C1513 1.384 . S
H1516 C1522 0.930 . S
H1517 C1526 0.930 . S
H1518 C1531 0.929 . S
H1519 C1529 0.929 . S
H1520 C1524 0.929 . S
H1521 C1530 0.929 . S
C1522 H1516 0.930 . S
C1522 C1523 1.367 . S
C1522 C1530 1.378 . S
C1523 C1522 1.367 . S
C1523 C1531 1.433 . S
C1524 H1520 0.929 . S
C1524 C1526 1.378 . S
C1524 C1528 1.350 . S
C1525 C1528 1.463 . S
C1525 C1530 1.350 . S
C1525 N1533 1.427 . S
C1526 H1517 0.930 . S
C1526 C1524 1.378 . S
C1526 C1527 1.367 1_556 S
C1527 C1526 1.367 1_554 S
C1527 C1529 1.433 . S
C1528 C1524 1.350 . S
C1528 C1525 1.463 . S
C1528 N1532 1.427 1_556 S
C1529 H1519 0.929 . S
C1529 C1527 1.433 . S
C1529 N1532 1.384 . S
C1530 H1521 0.929 . S
C1530 C1522 1.378 . S
C1530 C1525 1.350 . S
C1531 H1518 0.929 . S
C1531 C1523 1.433 . S
C1531 N1533 1.384 . S
N1532 C1528 1.427 1_554 S
N1532 C1529 1.384 . S
N1533 C1525 1.427 . S
N1533 C1531 1.384 . S
H1534 C1540 0.930 . S
H1535 C1544 0.930 . S
H1536 C1549 0.929 . S
H1537 C1547 0.929 . S
H1538 C1542 0.929 . S
H1539 C1548 0.929 . S
C1540 H1534 0.930 . S
C1540 C1541 1.367 . S
C1540 C1548 1.378 1_455 S
C1541 C1540 1.367 . S
C1541 C1549 1.433 1_455 S
C1542 H1538 0.929 . S
C1542 C1544 1.378 . S
C1542 C1546 1.350 . S
C1543 C1546 1.463 . S
C1543 C1548 1.350 . S
C1543 N1551 1.427 . S
C1544 H1535 0.930 . S
C1544 C1542 1.378 . S
C1544 C1545 1.367 . S
C1545 C1544 1.367 . S
C1545 C1547 1.433 . S
C1546 C1542 1.350 . S
C1546 C1543 1.463 . S
C1546 N1550 1.427 . S
C1547 H1537 0.929 . S
C1547 C1545 1.433 . S
C1547 N1550 1.384 . S
C1548 H1539 0.929 . S
C1548 C1540 1.378 1_655 S
C1548 C1543 1.350 . S
C1549 H1536 0.929 . S
C1549 C1541 1.433 1_655 S
C1549 N1551 1.384 . S
N1550 C1546 1.427 . S
N1550 C1547 1.384 . S
N1551 C1543 1.427 . S
N1551 C1549 1.384 . S
H1552 C1558 0.930 . S
H1553 C1562 0.930 . S
H1554 C1567 0.929 . S
H1555 C1565 0.929 1_565 S
H1556 C1560 0.929 . S
H1557 C1566 0.895 1_565 S
C1558 H1552 0.930 . S
C1558 C1559 1.367 . S
C1558 C1566 1.378 . S
C1559 C1558 1.367 . S
C1559 C1567 1.433 . S
C1560 H1556 0.929 . S
C1560 C1562 1.378 . S
C1560 C1564 1.350 . S
C1561 C1564 1.463 . S
C1561 C1566 1.350 . S
C1561 N1569 1.427 . S
C1562 H1553 0.930 . S
C1562 C1560 1.378 . S
C1562 C1563 1.367 . S
C1563 C1562 1.367 . S
C1563 C1565 1.433 . S
C1564 C1560 1.350 . S
C1564 C1561 1.463 . S
C1564 N1568 1.427 . S
C1565 H1555 0.929 1_545 S
C1565 C1563 1.433 . S
C1565 N1568 1.384 . S
C1566 H1557 0.895 1_545 S
C1566 C1558 1.378 . S
C1566 C1561 1.350 . S
C1567 H1554 0.929 . S
C1567 C1559 1.433 . S
C1567 N1569 1.384 . S
N1568 C1564 1.427 . S
N1568 C1565 1.384 . S
N1569 C1561 1.427 . S
N1569 C1567 1.384 . S
H1570 C1576 0.930 . S
H1571 C1580 0.930 . S
H1572 C1585 0.929 . S
H1573 C1583 0.929 . S
H1574 C1578 0.929 . S
H1575 C1584 0.929 . S
C1576 H1570 0.930 . S
C1576 C1577 1.367 . S
C1576 C1584 1.378 . S
C1577 C1576 1.367 . S
C1577 C1585 1.433 . S
C1578 H1574 0.929 . S
C1578 C1580 1.378 . S
C1578 C1582 1.350 . S
C1579 C1582 1.463 . S
C1579 C1584 1.350 . S
C1579 N1587 1.427 . S
C1580 H1571 0.930 . S
C1580 C1578 1.378 . S
C1580 C1581 1.367 . S
C1581 C1580 1.367 . S
C1581 C1583 1.433 . S
C1582 C1578 1.350 . S
C1582 C1579 1.463 . S
C1582 N1586 1.427 . S
C1583 H1573 0.929 . S
C1583 C1581 1.433 . S
C1583 N1586 1.384 . S
C1584 H1575 0.929 . S
C1584 C1576 1.378 . S
C1584 C1579 1.350 . S
C1585 H1572 0.929 . S
C1585 C1577 1.433 . S
C1585 N1587 1.384 . S
N1586 C1582 1.427 . S
N1586 C1583 1.384 . S
N1587 C1579 1.427 . S
N1587 C1585 1.384 . S
H1588 C1594 0.930 . S
H1589 C1598 0.930 1_565 S
H1590 C1603 0.937 . S
H1591 C1601 0.929 . S
H1592 C1596 0.929 1_565 S
H1593 C1602 0.929 . S
C1594 H1588 0.930 . S
C1594 C1595 1.367 . S
C1594 C1602 1.378 . S
C1595 C1594 1.367 . S
C1595 C1603 1.433 . S
C1596 H1592 0.929 1_545 S
C1596 C1598 1.378 . S
C1596 C1600 1.350 . S
C1597 C1600 1.463 . S
C1597 C1602 1.350 . S
C1597 N1605 1.427 . S
C1598 H1589 0.930 1_545 S
C1598 C1596 1.378 . S
C1598 C1599 1.367 . S
C1599 C1598 1.367 . S
C1599 C1601 1.433 . S
C1600 C1596 1.350 . S
C1600 C1597 1.463 . S
C1600 N1604 1.427 . S
C1601 H1591 0.929 . S
C1601 C1599 1.433 . S
C1601 N1604 1.384 . S
C1602 H1593 0.929 . S
C1602 C1594 1.378 . S
C1602 C1597 1.350 . S
C1603 H1590 0.937 . S
C1603 C1595 1.433 . S
C1603 N1605 1.384 . S
N1604 C1600 1.427 . S
N1604 C1601 1.384 . S
N1605 C1597 1.427 . S
N1605 C1603 1.384 . S
H1606 C1612 0.930 . S
H1607 C1616 0.930 . S
H1608 C1621 0.929 . S
H1609 C1619 0.929 . S
H1610 C1614 0.929 . S
H1611 C1620 0.929 . S
C1612 H1606 0.930 . S
C1612 C1613 1.367 . S
C1612 C1620 1.378 . S
C1613 C1612 1.367 . S
C1613 C1621 1.433 . S
C1614 H1610 0.929 . S
C1614 C1616 1.378 . S
C1614 C1618 1.350 . S
C1615 C1618 1.463 . S
C1615 C1620 1.350 . S
C1615 N1623 1.427 . S
C1616 H1607 0.930 . S
C1616 C1614 1.378 . S
C1616 C1617 1.367 . S
C1617 C1616 1.367 . S
C1617 C1619 1.433 . S
C1618 C1614 1.350 . S
C1618 C1615 1.463 . S
C1618 N1622 1.427 . S
C1619 H1609 0.929 . S
C1619 C1617 1.433 . S
C1619 N1622 1.384 . S
C1620 H1611 0.929 . S
C1620 C1612 1.378 . S
C1620 C1615 1.350 . S
C1621 H1608 0.929 . S
C1621 C1613 1.433 . S
C1621 N1623 1.384 . S
N1622 C1618 1.427 . S
N1622 C1619 1.384 . S
N1623 C1615 1.427 . S
N1623 C1621 1.384 . S
H1624 C1630 0.930 . S
H1625 C1634 0.930 1_565 S
H1626 C1639 0.929 . S
H1627 C1637 0.929 . S
H1628 C1632 0.929 . S
H1629 C1638 0.929 . S
C1630 H1624 0.930 . S
C1630 C1631 1.367 . S
C1630 C1638 1.378 . S
C1631 C1630 1.367 . S
C1631 C1639 1.433 . S
C1632 H1628 0.929 . S
C1632 C1634 1.378 . S
C1632 C1636 1.350 . S
C1633 C1636 1.463 . S
C1633 C1638 1.350 . S
C1633 N1641 1.427 . S
C1634 H1625 0.930 1_545 S
C1634 C1632 1.378 . S
C1634 C1635 1.367 . S
C1635 C1634 1.367 . S
C1635 C1637 1.433 . S
C1636 C1632 1.350 . S
C1636 C1633 1.463 . S
C1636 N1640 1.427 . S
C1637 H1627 0.929 . S
C1637 C1635 1.433 . S
C1637 N1640 1.384 . S
C1638 H1629 0.929 . S
C1638 C1630 1.378 . S
C1638 C1633 1.350 . S
C1639 H1626 0.929 . S
C1639 C1631 1.433 . S
C1639 N1641 1.384 . S
N1640 C1636 1.427 . S
N1640 C1637 1.384 . S
N1641 C1633 1.427 . S
N1641 C1639 1.384 . S
H1642 C1648 0.930 . S
H1643 C1652 0.930 . S
H1644 C1657 0.929 . S
H1645 C1655 0.929 . S
H1646 C1650 0.929 . S
H1647 C1656 0.929 . S
C1648 H1642 0.930 . S
C1648 C1649 1.367 . S
C1648 C1656 1.378 . S
C1649 C1648 1.367 . S
C1649 C1657 1.433 . S
C1650 H1646 0.929 . S
C1650 C1652 1.378 . S
C1650 C1654 1.350 . S
C1651 C1654 1.463 . S
C1651 C1656 1.350 . S
C1651 N1659 1.427 . S
C1652 H1643 0.930 . S
C1652 C1650 1.378 . S
C1652 C1653 1.367 . S
C1653 C1652 1.367 . S
C1653 C1655 1.433 . S
C1654 C1650 1.350 . S
C1654 C1651 1.463 . S
C1654 N1658 1.427 . S
C1655 H1645 0.929 . S
C1655 C1653 1.433 . S
C1655 N1658 1.384 . S
C1656 H1647 0.929 . S
C1656 C1648 1.378 . S
C1656 C1651 1.350 . S
C1657 H1644 0.929 . S
C1657 C1649 1.433 . S
C1657 N1659 1.384 . S
N1658 C1654 1.427 . S
N1658 C1655 1.384 . S
N1659 C1651 1.427 . S
N1659 C1657 1.384 . S
H1660 C1666 0.932 . S
H1661 C1670 0.930 . S
H1662 C1675 0.929 . S
H1663 C1673 0.929 . S
H1664 C1668 0.929 . S
H1665 C1674 0.929 1_565 S
C1666 H1660 0.932 . S
C1666 C1667 1.367 . S
C1666 C1674 1.378 . S
C1667 C1666 1.367 . S
C1667 C1675 1.433 . S
C1668 H1664 0.929 . S
C1668 C1670 1.378 . S
C1668 C1672 1.350 . S
C1669 C1672 1.463 . S
C1669 C1674 1.350 . S
C1669 N1677 1.427 . S
C1670 H1661 0.930 . S
C1670 C1668 1.378 . S
C1670 C1671 1.367 . S
C1671 C1670 1.367 . S
C1671 C1673 1.433 1_545 S
C1672 C1668 1.350 . S
C1672 C1669 1.463 . S
C1672 N1676 1.418 1_545 S
C1673 H1663 0.929 . S
C1673 C1671 1.433 1_565 S
C1673 N1676 1.387 . S
C1674 H1665 0.929 1_545 S
C1674 C1666 1.378 . S
C1674 C1669 1.350 . S
C1675 H1662 0.929 . S
C1675 C1667 1.433 . S
C1675 N1677 1.384 . S
N1676 C1672 1.418 1_565 S
N1676 C1673 1.387 . S
N1677 C1669 1.427 . S
N1677 C1675 1.384 . S
H1678 C1684 0.930 . S
H1679 C1688 0.930 . S
H1680 C1693 0.929 . S
H1681 C1691 0.929 . S
H1682 C1686 0.929 . S
H1683 C1692 0.929 . S
C1684 H1678 0.930 . S
C1684 C1685 1.367 . S
C1684 C1692 1.378 . S
C1685 C1684 1.367 . S
C1685 C1693 1.433 . S
C1686 H1682 0.929 . S
C1686 C1688 1.378 . S
C1686 C1690 1.350 . S
C1687 C1690 1.463 . S
C1687 C1692 1.350 . S
C1687 N1695 1.427 . S
C1688 H1679 0.930 . S
C1688 C1686 1.378 . S
C1688 C1689 1.367 . S
C1689 C1688 1.367 . S
C1689 C1691 1.433 . S
C1690 C1686 1.350 . S
C1690 C1687 1.463 . S
C1690 N1694 1.427 . S
C1691 H1681 0.929 . S
C1691 C1689 1.433 . S
C1691 N1694 1.384 . S
C1692 H1683 0.929 . S
C1692 C1684 1.378 . S
C1692 C1687 1.350 . S
C1693 H1680 0.929 . S
C1693 C1685 1.433 . S
C1693 N1695 1.384 . S
N1694 C1690 1.427 . S
N1694 C1691 1.384 . S
N1695 C1687 1.427 . S
N1695 C1693 1.384 . S
H1696 C1702 0.930 . S
H1697 C1706 0.930 . S
H1698 C1711 0.929 . S
H1699 C1709 0.929 . S
H1700 C1704 0.929 . S
H1701 C1710 0.929 . S
C1702 H1696 0.930 . S
C1702 C1703 1.367 . S
C1702 C1710 1.378 . S
C1703 C1702 1.367 . S
C1703 C1711 1.433 . S
C1704 H1700 0.929 . S
C1704 C1706 1.378 . S
C1704 C1708 1.350 . S
C1705 C1708 1.463 . S
C1705 C1710 1.350 . S
C1705 N1713 1.427 . S
C1706 H1697 0.930 . S
C1706 C1704 1.378 . S
C1706 C1707 1.367 . S
C1707 C1706 1.367 . S
C1707 C1709 1.433 . S
C1708 C1704 1.350 . S
C1708 C1705 1.463 . S
C1708 N1712 1.427 . S
C1709 H1699 0.929 . S
C1709 C1707 1.433 . S
C1709 N1712 1.384 . S
C1710 H1701 0.929 . S
C1710 C1702 1.378 . S
C1710 C1705 1.350 . S
C1711 H1698 0.929 . S
C1711 C1703 1.433 . S
C1711 N1713 1.384 . S
N1712 C1708 1.427 . S
N1712 C1709 1.384 . S
N1713 C1705 1.427 . S
N1713 C1711 1.384 . S
H1714 C1720 0.930 . S
H1715 C1724 0.930 . S
H1716 C1729 0.929 . S
H1717 C1727 0.929 . S
H1718 C1722 0.929 . S
H1719 C1728 0.929 . S
C1720 H1714 0.930 . S
C1720 C1721 1.367 . S
C1720 C1728 1.378 . S
C1721 C1720 1.367 . S
C1721 C1729 1.433 . S
C1722 H1718 0.929 . S
C1722 C1724 1.378 . S
C1722 C1726 1.350 . S
C1723 C1726 1.463 . S
C1723 C1728 1.350 . S
C1723 N1731 1.427 . S
C1724 H1715 0.930 . S
C1724 C1722 1.378 . S
C1724 C1725 1.367 . S
C1725 C1724 1.367 . S
C1725 C1727 1.433 . S
C1726 C1722 1.350 . S
C1726 C1723 1.463 . S
C1726 N1730 1.427 . S
C1727 H1717 0.929 . S
C1727 C1725 1.433 . S
C1727 N1730 1.384 . S
C1728 H1719 0.929 . S
C1728 C1720 1.378 . S
C1728 C1723 1.350 . S
C1729 H1716 0.929 . S
C1729 C1721 1.433 . S
C1729 N1731 1.384 . S
N1730 C1726 1.427 . S
N1730 C1727 1.384 . S
N1731 C1723 1.427 . S
N1731 C1729 1.384 . S
H1732 C1738 0.930 . S
H1733 C1742 0.930 . S
H1734 C1747 0.929 . S
H1735 C1745 0.929 . S
H1736 C1740 0.929 . S
H1737 C1746 0.929 . S
C1738 H1732 0.930 . S
C1738 C1739 1.367 . S
C1738 C1746 1.378 . S
C1739 C1738 1.367 . S
C1739 C1747 1.433 . S
C1740 H1736 0.929 . S
C1740 C1742 1.378 . S
C1740 C1744 1.350 . S
C1741 C1744 1.463 . S
C1741 C1746 1.350 . S
C1741 N1749 1.427 . S
C1742 H1733 0.930 . S
C1742 C1740 1.378 . S
C1742 C1743 1.367 . S
C1743 C1742 1.367 . S
C1743 C1745 1.433 . S
C1744 C1740 1.350 . S
C1744 C1741 1.463 . S
C1744 N1748 1.427 . S
C1745 H1735 0.929 . S
C1745 C1743 1.433 . S
C1745 N1748 1.384 . S
C1746 H1737 0.929 . S
C1746 C1738 1.378 . S
C1746 C1741 1.350 . S
C1747 H1734 0.929 . S
C1747 C1739 1.433 . S
C1747 N1749 1.384 . S
N1748 C1744 1.427 . S
N1748 C1745 1.384 . S
N1749 C1741 1.427 . S
N1749 C1747 1.384 . S
H1750 C1756 0.930 . S
H1751 C1760 0.930 . S
H1752 C1765 0.929 . S
H1753 C1763 0.929 . S
H1754 C1758 0.929 . S
H1755 C1764 0.929 . S
C1756 H1750 0.930 . S
C1756 C1757 1.367 . S
C1756 C1764 1.378 . S
C1757 C1756 1.367 . S
C1757 C1765 1.433 . S
C1758 H1754 0.929 . S
C1758 C1760 1.378 . S
C1758 C1762 1.350 . S
C1759 C1762 1.463 . S
C1759 C1764 1.350 . S
C1759 N1767 1.427 . S
C1760 H1751 0.930 . S
C1760 C1758 1.378 . S
C1760 C1761 1.367 . S
C1761 C1760 1.367 . S
C1761 C1763 1.433 . S
C1762 C1758 1.350 . S
C1762 C1759 1.463 . S
C1762 N1766 1.427 . S
C1763 H1753 0.929 . S
C1763 C1761 1.433 . S
C1763 N1766 1.384 . S
C1764 H1755 0.929 . S
C1764 C1756 1.378 . S
C1764 C1759 1.350 . S
C1765 H1752 0.929 . S
C1765 C1757 1.433 . S
C1765 N1767 1.384 . S
N1766 C1762 1.427 . S
N1766 C1763 1.384 . S
N1767 C1759 1.427 . S
N1767 C1765 1.384 . S
H1768 C1774 0.930 . S
H1769 C1778 0.930 . S
H1770 C1783 0.929 . S
H1771 C1781 0.929 . S
H1772 C1776 0.929 . S
H1773 C1782 0.929 . S
C1774 H1768 0.930 . S
C1774 C1775 1.367 . S
C1774 C1782 1.378 . S
C1775 C1774 1.367 . S
C1775 C1783 1.433 . S
C1776 H1772 0.929 . S
C1776 C1778 1.378 . S
C1776 C1780 1.350 . S
C1777 C1780 1.463 . S
C1777 C1782 1.350 . S
C1777 N1785 1.427 . S
C1778 H1769 0.930 . S
C1778 C1776 1.378 . S
C1778 C1779 1.367 . S
C1779 C1778 1.367 . S
C1779 C1781 1.433 . S
C1780 C1776 1.350 . S
C1780 C1777 1.463 . S
C1780 N1784 1.427 . S
C1781 H1771 0.929 . S
C1781 C1779 1.433 . S
C1781 N1784 1.384 . S
C1782 H1773 0.929 . S
C1782 C1774 1.378 . S
C1782 C1777 1.350 . S
C1783 H1770 0.929 . S
C1783 C1775 1.433 . S
C1783 N1785 1.384 . S
N1784 C1780 1.427 . S
N1784 C1781 1.384 . S
N1785 C1777 1.427 . S
N1785 C1783 1.384 . S
H1786 C1792 0.930 . S
H1787 C1796 0.930 . S
H1788 C1801 0.929 . S
H1789 C1799 0.929 . S
H1790 C1794 0.929 . S
H1791 C1800 0.929 . S
C1792 H1786 0.930 . S
C1792 C1793 1.367 . S
C1792 C1800 1.378 . S
C1793 C1792 1.367 . S
C1793 C1801 1.433 . S
C1794 H1790 0.929 . S
C1794 C1796 1.378 . S
C1794 C1798 1.350 . S
C1795 C1798 1.463 . S
C1795 C1800 1.350 . S
C1795 N1803 1.427 . S
C1796 H1787 0.930 . S
C1796 C1794 1.378 . S
C1796 C1797 1.367 . S
C1797 C1796 1.367 . S
C1797 C1799 1.433 . S
C1798 C1794 1.350 . S
C1798 C1795 1.463 . S
C1798 N1802 1.427 . S
C1799 H1789 0.929 . S
C1799 C1797 1.433 . S
C1799 N1802 1.384 . S
C1800 H1791 0.929 . S
C1800 C1792 1.378 . S
C1800 C1795 1.350 . S
C1801 H1788 0.929 . S
C1801 C1793 1.433 . S
C1801 N1803 1.384 . S
N1802 C1798 1.427 . S
N1802 C1799 1.384 . S
N1803 C1795 1.427 . S
N1803 C1801 1.384 . S
H1804 C1810 0.930 . S
H1805 C1814 0.930 . S
H1806 C1819 0.929 . S
H1807 C1817 0.929 . S
H1808 C1812 0.929 . S
H1809 C1818 0.929 . S
C1810 H1804 0.930 . S
C1810 C1811 1.367 . S
C1810 C1818 1.378 . S
C1811 C1810 1.367 . S
C1811 C1819 1.433 . S
C1812 H1808 0.929 . S
C1812 C1814 1.378 . S
C1812 C1816 1.350 . S
C1813 C1816 1.463 . S
C1813 C1818 1.350 . S
C1813 N1821 1.427 . S
C1814 H1805 0.930 . S
C1814 C1812 1.378 . S
C1814 C1815 1.367 . S
C1815 C1814 1.367 . S
C1815 C1817 1.433 . S
C1816 C1812 1.350 . S
C1816 C1813 1.463 . S
C1816 N1820 1.427 . S
C1817 H1807 0.929 . S
C1817 C1815 1.433 . S
C1817 N1820 1.384 . S
C1818 H1809 0.929 . S
C1818 C1810 1.378 . S
C1818 C1813 1.350 . S
C1819 H1806 0.929 . S
C1819 C1811 1.433 . S
C1819 N1821 1.384 . S
N1820 C1816 1.427 . S
N1820 C1817 1.384 . S
N1821 C1813 1.427 . S
N1821 C1819 1.384 . S
H1822 C1828 0.930 . S
H1823 C1832 0.930 . S
H1824 C1837 0.929 . S
H1825 C1835 0.929 . S
H1826 C1830 0.929 . S
H1827 C1836 0.929 . S
C1828 H1822 0.930 . S
C1828 C1829 1.367 . S
C1828 C1836 1.378 . S
C1829 C1828 1.367 . S
C1829 C1837 1.433 . S
C1830 H1826 0.929 . S
C1830 C1832 1.378 . S
C1830 C1834 1.350 . S
C1831 C1834 1.463 . S
C1831 C1836 1.350 . S
C1831 N1839 1.427 . S
C1832 H1823 0.930 . S
C1832 C1830 1.378 . S
C1832 C1833 1.367 . S
C1833 C1832 1.367 . S
C1833 C1835 1.433 . S
C1834 C1830 1.350 . S
C1834 C1831 1.463 . S
C1834 N1838 1.427 . S
C1835 H1825 0.929 . S
C1835 C1833 1.433 . S
C1835 N1838 1.384 . S
C1836 H1827 0.929 . S
C1836 C1828 1.378 . S
C1836 C1831 1.350 . S
C1837 H1824 0.929 . S
C1837 C1829 1.433 . S
C1837 N1839 1.384 . S
N1838 C1834 1.427 . S
N1838 C1835 1.384 . S
N1839 C1831 1.427 . S
N1839 C1837 1.384 . S
H1840 C1846 0.930 . S
H1841 C1850 0.930 . S
H1842 C1855 0.929 . S
H1843 C1853 0.929 . S
H1844 C1848 0.929 . S
H1845 C1854 0.929 . S
C1846 H1840 0.930 . S
C1846 C1847 1.367 . S
C1846 C1854 1.378 . S
C1847 C1846 1.367 . S
C1847 C1855 1.433 . S
C1848 H1844 0.929 . S
C1848 C1850 1.378 . S
C1848 C1852 1.350 . S
C1849 C1852 1.463 . S
C1849 C1854 1.350 . S
C1849 N1857 1.427 . S
C1850 H1841 0.930 . S
C1850 C1848 1.378 . S
C1850 C1851 1.367 . S
C1851 C1850 1.367 . S
C1851 C1853 1.433 . S
C1852 C1848 1.350 . S
C1852 C1849 1.463 . S
C1852 N1856 1.427 . S
C1853 H1843 0.929 . S
C1853 C1851 1.433 . S
C1853 N1856 1.384 . S
C1854 H1845 0.929 . S
C1854 C1846 1.378 . S
C1854 C1849 1.350 . S
C1855 H1842 0.929 . S
C1855 C1847 1.433 . S
C1855 N1857 1.384 . S
N1856 C1852 1.427 . S
N1856 C1853 1.384 . S
N1857 C1849 1.427 . S
N1857 C1855 1.384 . S
H1858 C1864 0.930 . S
H1859 C1868 0.930 . S
H1860 C1873 0.929 . S
H1861 C1871 0.929 . S
H1862 C1866 0.929 . S
H1863 C1872 0.929 . S
C1864 H1858 0.930 . S
C1864 C1865 1.367 . S
C1864 C1872 1.378 . S
C1865 C1864 1.367 . S
C1865 C1873 1.433 . S
C1866 H1862 0.929 . S
C1866 C1868 1.378 . S
C1866 C1870 1.350 . S
C1867 C1870 1.463 . S
C1867 C1872 1.350 . S
C1867 N1875 1.427 . S
C1868 H1859 0.930 . S
C1868 C1866 1.378 . S
C1868 C1869 1.367 . S
C1869 C1868 1.367 . S
C1869 C1871 1.433 . S
C1870 C1866 1.350 . S
C1870 C1867 1.463 . S
C1870 N1874 1.427 . S
C1871 H1861 0.929 . S
C1871 C1869 1.433 . S
C1871 N1874 1.384 . S
C1872 H1863 0.929 . S
C1872 C1864 1.378 . S
C1872 C1867 1.350 . S
C1873 H1860 0.929 . S
C1873 C1865 1.433 . S
C1873 N1875 1.384 . S
N1874 C1870 1.427 . S
N1874 C1871 1.384 . S
N1875 C1867 1.427 . S
N1875 C1873 1.384 . S
H1876 C1882 0.930 . S
H1877 C1886 0.930 1_556 S
H1878 C1891 0.929 . S
H1879 C1889 0.929 . S
H1880 C1884 0.929 . S
H1881 C1890 0.929 . S
C1882 H1876 0.930 . S
C1882 C1883 1.367 1_554 S
C1882 C1890 1.378 . S
C1883 C1882 1.367 1_556 S
C1883 C1891 1.433 . S
C1884 H1880 0.929 . S
C1884 C1886 1.378 1_556 S
C1884 C1888 1.350 1_556 S
C1885 C1888 1.463 1_556 S
C1885 C1890 1.350 1_556 S
C1885 N1893 1.427 . S
C1886 H1877 0.930 1_554 S
C1886 C1884 1.378 1_554 S
C1886 C1887 1.367 . S
C1887 C1886 1.367 . S
C1887 C1889 1.433 . S
C1888 C1884 1.350 1_554 S
C1888 C1885 1.463 1_554 S
C1888 N1892 1.427 . S
C1889 H1879 0.929 . S
C1889 C1887 1.433 . S
C1889 N1892 1.384 . S
C1890 H1881 0.929 . S
C1890 C1882 1.378 . S
C1890 C1885 1.350 1_554 S
C1891 H1878 0.929 . S
C1891 C1883 1.433 . S
C1891 N1893 1.384 . S
N1892 C1888 1.427 . S
N1892 C1889 1.384 . S
N1893 C1885 1.427 . S
N1893 C1891 1.384 . S
H1894 C1900 0.930 . S
H1895 C1904 0.930 . S
H1896 C1909 0.929 1_455 S
H1897 C1907 0.929 . S
H1898 C1902 0.929 . S
H1899 C1908 0.929 . S
C1900 H1894 0.930 . S
C1900 C1901 1.367 . S
C1900 C1908 1.378 . S
C1901 C1900 1.367 . S
C1901 C1909 1.433 . S
C1902 H1898 0.929 . S
C1902 C1904 1.378 . S
C1902 C1906 1.350 . S
C1903 C1906 1.463 . S
C1903 C1908 1.350 . S
C1903 N1911 1.427 . S
C1904 H1895 0.930 . S
C1904 C1902 1.378 . S
C1904 C1905 1.367 . S
C1905 C1904 1.367 . S
C1905 C1907 1.433 . S
C1906 C1902 1.350 . S
C1906 C1903 1.463 . S
C1906 N1910 1.427 . S
C1907 H1897 0.929 . S
C1907 C1905 1.433 . S
C1907 N1910 1.384 . S
C1908 H1899 0.929 . S
C1908 C1900 1.378 . S
C1908 C1903 1.350 . S
C1909 H1896 0.929 1_655 S
C1909 C1901 1.433 . S
C1909 N1911 1.384 . S
N1910 C1906 1.427 . S
N1910 C1907 1.384 . S
N1911 C1903 1.427 . S
N1911 C1909 1.384 . S
H1912 C1918 0.930 . S
H1913 C1922 0.930 . S
H1914 C1927 0.929 . S
H1915 C1925 0.929 . S
H1916 C1920 0.929 . S
H1917 C1926 0.929 . S
C1918 H1912 0.930 . S
C1918 C1919 1.367 . S
C1918 C1926 1.378 . S
C1919 C1918 1.367 . S
C1919 C1927 1.433 . S
C1920 H1916 0.929 . S
C1920 C1922 1.378 . S
C1920 C1924 1.350 . S
C1921 C1924 1.463 . S
C1921 C1926 1.350 . S
C1921 N1929 1.427 . S
C1922 H1913 0.930 . S
C1922 C1920 1.378 . S
C1922 C1923 1.367 . S
C1923 C1922 1.367 . S
C1923 C1925 1.433 . S
C1924 C1920 1.350 . S
C1924 C1921 1.463 . S
C1924 N1928 1.427 . S
C1925 H1915 0.929 . S
C1925 C1923 1.433 . S
C1925 N1928 1.384 . S
C1926 H1917 0.929 . S
C1926 C1918 1.378 . S
C1926 C1921 1.350 . S
C1927 H1914 0.929 . S
C1927 C1919 1.433 . S
C1927 N1929 1.384 . S
N1928 C1924 1.427 . S
N1928 C1925 1.384 . S
N1929 C1921 1.427 . S
N1929 C1927 1.384 . S
H1930 C1936 0.930 . S
H1931 C1940 0.930 . S
H1932 C1945 0.929 . S
H1933 C1943 0.929 . S
H1934 C1938 0.929 . S
H1935 C1944 0.929 . S
C1936 H1930 0.930 . S
C1936 C1937 1.367 . S
C1936 C1944 1.378 . S
C1937 C1936 1.367 . S
C1937 C1945 1.433 . S
C1938 H1934 0.929 . S
C1938 C1940 1.378 . S
C1938 C1942 1.350 . S
C1939 C1942 1.463 . S
C1939 C1944 1.350 . S
C1939 N1947 1.427 . S
C1940 H1931 0.930 . S
C1940 C1938 1.378 . S
C1940 C1941 1.367 . S
C1941 C1940 1.367 . S
C1941 C1943 1.433 . S
C1942 C1938 1.350 . S
C1942 C1939 1.463 . S
C1942 N1946 1.427 . S
C1943 H1933 0.929 . S
C1943 C1941 1.433 . S
C1943 N1946 1.384 . S
C1944 H1935 0.929 . S
C1944 C1936 1.378 . S
C1944 C1939 1.350 . S
C1945 H1932 0.929 . S
C1945 C1937 1.433 . S
C1945 N1947 1.384 . S
N1946 C1942 1.427 . S
N1946 C1943 1.384 . S
N1947 C1939 1.427 . S
N1947 C1945 1.384 . S
H1948 C1954 0.930 . S
H1949 C1958 0.930 . S
H1950 C1963 0.929 . S
H1951 C1961 0.929 . S
H1952 C1956 0.929 . S
H1953 C1962 0.929 . S
C1954 H1948 0.930 . S
C1954 C1955 1.367 . S
C1954 C1962 1.378 . S
C1955 C1954 1.367 . S
C1955 C1963 1.433 . S
C1956 H1952 0.929 . S
C1956 C1958 1.378 . S
C1956 C1960 1.350 . S
C1957 C1960 1.463 . S
C1957 C1962 1.350 . S
C1957 N1965 1.427 . S
C1958 H1949 0.930 . S
C1958 C1956 1.378 . S
C1958 C1959 1.367 . S
C1959 C1958 1.367 . S
C1959 C1961 1.433 . S
C1960 C1956 1.350 . S
C1960 C1957 1.463 . S
C1960 N1964 1.427 . S
C1961 H1951 0.929 . S
C1961 C1959 1.433 . S
C1961 N1964 1.384 . S
C1962 H1953 0.929 . S
C1962 C1954 1.378 . S
C1962 C1957 1.350 . S
C1963 H1950 0.929 . S
C1963 C1955 1.433 . S
C1963 N1965 1.384 . S
N1964 C1960 1.427 . S
N1964 C1961 1.384 . S
N1965 C1957 1.427 . S
N1965 C1963 1.384 . S
H1966 C1972 0.930 . S
H1967 C1976 0.930 . S
H1968 C1981 0.929 . S
H1969 C1979 0.929 . S
H1970 C1974 0.929 . S
H1971 C1980 0.929 . S
C1972 H1966 0.930 . S
C1972 C1973 1.367 . S
C1972 C1980 1.378 . S
C1973 C1972 1.367 . S
C1973 C1981 1.433 . S
C1974 H1970 0.929 . S
C1974 C1976 1.378 . S
C1974 C1978 1.350 . S
C1975 C1978 1.463 . S
C1975 C1980 1.350 . S
C1975 N1983 1.427 . S
C1976 H1967 0.930 . S
C1976 C1974 1.378 . S
C1976 C1977 1.367 . S
C1977 C1976 1.367 . S
C1977 C1979 1.433 . S
C1978 C1974 1.350 . S
C1978 C1975 1.463 . S
C1978 N1982 1.427 . S
C1979 H1969 0.929 . S
C1979 C1977 1.433 . S
C1979 N1982 1.384 . S
C1980 H1971 0.929 . S
C1980 C1972 1.378 . S
C1980 C1975 1.350 . S
C1981 H1968 0.929 . S
C1981 C1973 1.433 . S
C1981 N1983 1.384 . S
N1982 C1978 1.427 . S
N1982 C1979 1.384 . S
N1983 C1975 1.427 . S
N1983 C1981 1.384 . S
H1984 C1990 0.930 . S
H1985 C1994 0.930 . S
H1986 C1999 0.929 . S
H1987 C1997 0.929 . S
H1988 C1992 0.929 . S
H1989 C1998 0.929 . S
C1990 H1984 0.930 . S
C1990 C1991 1.367 . S
C1990 C1998 1.378 . S
C1991 C1990 1.367 . S
C1991 C1999 1.433 . S
C1992 H1988 0.929 . S
C1992 C1994 1.378 . S
C1992 C1996 1.350 . S
C1993 C1996 1.463 . S
C1993 C1998 1.350 . S
C1993 N2001 1.427 . S
C1994 H1985 0.930 . S
C1994 C1992 1.378 . S
C1994 C1995 1.367 . S
C1995 C1994 1.367 . S
C1995 C1997 1.433 . S
C1996 C1992 1.350 . S
C1996 C1993 1.463 . S
C1996 N2000 1.427 . S
C1997 H1987 0.929 . S
C1997 C1995 1.433 . S
C1997 N2000 1.384 . S
C1998 H1989 0.929 . S
C1998 C1990 1.378 . S
C1998 C1993 1.350 . S
C1999 H1986 0.929 . S
C1999 C1991 1.433 . S
C1999 N2001 1.384 . S
N2000 C1996 1.427 . S
N2000 C1997 1.384 . S
N2001 C1993 1.427 . S
N2001 C1999 1.384 . S
H2002 C2008 0.930 . S
H2003 C2012 0.930 . S
H2004 C2017 0.929 . S
H2005 C2015 0.929 . S
H2006 C2010 0.929 . S
H2007 C2016 0.929 . S
C2008 H2002 0.930 . S
C2008 C2009 1.367 . S
C2008 C2016 1.378 . S
C2009 C2008 1.367 . S
C2009 C2017 1.433 . S
C2010 H2006 0.929 . S
C2010 C2012 1.378 . S
C2010 C2014 1.350 . S
C2011 C2014 1.463 1_554 S
C2011 C2016 1.350 . S
C2011 N2019 1.427 . S
C2012 H2003 0.930 . S
C2012 C2010 1.378 . S
C2012 C2013 1.367 . S
C2013 C2012 1.367 . S
C2013 C2015 1.433 . S
C2014 C2010 1.350 . S
C2014 C2011 1.463 1_556 S
C2014 N2018 1.427 . S
C2015 H2005 0.929 . S
C2015 C2013 1.433 . S
C2015 N2018 1.384 . S
C2016 H2007 0.929 . S
C2016 C2008 1.378 . S
C2016 C2011 1.350 . S
C2017 H2004 0.929 . S
C2017 C2009 1.433 . S
C2017 N2019 1.384 . S
N2018 C2014 1.427 . S
N2018 C2015 1.384 . S
N2019 C2011 1.427 . S
N2019 C2017 1.384 . S
H2020 C2026 0.930 . S
H2021 C2030 0.930 . S
H2022 C2035 0.929 . S
H2023 C2033 0.929 . S
H2024 C2028 0.929 . S
H2025 C2034 0.929 . S
C2026 H2020 0.930 . S
C2026 C2027 1.367 . S
C2026 C2034 1.378 . S
C2027 C2026 1.367 . S
C2027 C2035 1.433 . S
C2028 H2024 0.929 . S
C2028 C2030 1.378 . S
C2028 C2032 1.350 . S
C2029 C2032 1.463 . S
C2029 C2034 1.350 . S
C2029 N2037 1.427 . S
C2030 H2021 0.930 . S
C2030 C2028 1.378 . S
C2030 C2031 1.367 . S
C2031 C2030 1.367 . S
C2031 C2033 1.433 . S
C2032 C2028 1.350 . S
C2032 C2029 1.463 . S
C2032 N2036 1.427 . S
C2033 H2023 0.929 . S
C2033 C2031 1.433 . S
C2033 N2036 1.384 . S
C2034 H2025 0.929 . S
C2034 C2026 1.378 . S
C2034 C2029 1.350 . S
C2035 H2022 0.929 . S
C2035 C2027 1.433 . S
C2035 N2037 1.384 . S
N2036 C2032 1.427 . S
N2036 C2033 1.384 . S
N2037 C2029 1.427 . S
N2037 C2035 1.384 . S
H2038 C2044 0.930 . S
H2039 C2048 0.930 . S
H2040 C2053 0.929 . S
H2041 C2051 0.929 . S
H2042 C2046 0.929 . S
H2043 C2052 0.929 . S
C2044 H2038 0.930 . S
C2044 C2045 1.367 . S
C2044 C2052 1.378 . S
C2045 C2044 1.367 . S
C2045 C2053 1.433 . S
C2046 H2042 0.929 . S
C2046 C2048 1.378 . S
C2046 C2050 1.350 . S
C2047 C2050 1.463 . S
C2047 C2052 1.350 . S
C2047 N2055 1.427 . S
C2048 H2039 0.930 . S
C2048 C2046 1.378 . S
C2048 C2049 1.367 . S
C2049 C2048 1.367 . S
C2049 C2051 1.433 . S
C2050 C2046 1.350 . S
C2050 C2047 1.463 . S
C2050 N2054 1.427 . S
C2051 H2041 0.929 . S
C2051 C2049 1.433 . S
C2051 N2054 1.384 . S
C2052 H2043 0.929 . S
C2052 C2044 1.378 . S
C2052 C2047 1.350 . S
C2053 H2040 0.929 . S
C2053 C2045 1.433 . S
C2053 N2055 1.384 . S
N2054 C2050 1.427 . S
N2054 C2051 1.384 . S
N2055 C2047 1.427 . S
N2055 C2053 1.384 . S
H2056 C2062 0.930 . S
H2057 C2066 0.930 . S
H2058 C2071 0.929 . S
H2059 C2069 0.929 . S
H2060 C2064 0.929 . S
H2061 C2070 0.929 . S
C2062 H2056 0.930 . S
C2062 C2063 1.367 . S
C2062 C2070 1.378 . S
C2063 C2062 1.367 . S
C2063 C2071 1.433 . S
C2064 H2060 0.929 . S
C2064 C2066 1.378 . S
C2064 C2068 1.350 . S
C2065 C2068 1.463 . S
C2065 C2070 1.350 . S
C2065 N2073 1.427 . S
C2066 H2057 0.930 . S
C2066 C2064 1.378 . S
C2066 C2067 1.367 . S
C2067 C2066 1.367 . S
C2067 C2069 1.433 . S
C2068 C2064 1.350 . S
C2068 C2065 1.463 . S
C2068 N2072 1.427 . S
C2069 H2059 0.929 . S
C2069 C2067 1.433 . S
C2069 N2072 1.384 . S
C2070 H2061 0.929 . S
C2070 C2062 1.378 . S
C2070 C2065 1.350 . S
C2071 H2058 0.929 . S
C2071 C2063 1.433 . S
C2071 N2073 1.384 . S
N2072 C2068 1.427 . S
N2072 C2069 1.384 . S
N2073 C2065 1.427 . S
N2073 C2071 1.384 . S
H2074 C2080 0.930 . S
H2075 C2084 0.930 . S
H2076 C2089 0.929 . S
H2077 C2087 0.929 . S
H2078 C2082 0.929 . S
H2079 C2088 0.929 . S
C2080 H2074 0.930 . S
C2080 C2081 1.367 . S
C2080 C2088 1.378 . S
C2081 C2080 1.367 . S
C2081 C2089 1.433 . S
C2082 H2078 0.929 . S
C2082 C2084 1.378 . S
C2082 C2086 1.350 . S
C2083 C2086 1.463 . S
C2083 C2088 1.350 . S
C2083 N2091 1.427 . S
C2084 H2075 0.930 . S
C2084 C2082 1.378 . S
C2084 C2085 1.367 . S
C2085 C2084 1.367 . S
C2085 C2087 1.433 . S
C2086 C2082 1.350 . S
C2086 C2083 1.463 . S
C2086 N2090 1.427 . S
C2087 H2077 0.929 . S
C2087 C2085 1.433 . S
C2087 N2090 1.384 . S
C2088 H2079 0.929 . S
C2088 C2080 1.378 . S
C2088 C2083 1.350 . S
C2089 H2076 0.929 . S
C2089 C2081 1.433 . S
C2089 N2091 1.384 . S
N2090 C2086 1.427 . S
N2090 C2087 1.384 . S
N2091 C2083 1.427 . S
N2091 C2089 1.384 . S
H2092 C2098 0.930 . S
H2093 C2102 0.930 . S
H2094 C2107 0.929 . S
H2095 C2105 0.929 . S
H2096 C2100 0.929 . S
H2097 C2106 0.929 . S
C2098 H2092 0.930 . S
C2098 C2099 1.367 . S
C2098 C2106 1.378 . S
C2099 C2098 1.367 . S
C2099 C2107 1.433 . S
C2100 H2096 0.929 . S
C2100 C2102 1.378 . S
C2100 C2104 1.350 . S
C2101 C2104 1.463 . S
C2101 C2106 1.350 . S
C2101 N2109 1.427 . S
C2102 H2093 0.930 . S
C2102 C2100 1.378 . S
C2102 C2103 1.367 . S
C2103 C2102 1.367 . S
C2103 C2105 1.433 . S
C2104 C2100 1.350 . S
C2104 C2101 1.463 . S
C2104 N2108 1.427 . S
C2105 H2095 0.929 . S
C2105 C2103 1.433 . S
C2105 N2108 1.384 . S
C2106 H2097 0.929 . S
C2106 C2098 1.378 . S
C2106 C2101 1.350 . S
C2107 H2094 0.929 . S
C2107 C2099 1.433 . S
C2107 N2109 1.384 . S
N2108 C2104 1.427 . S
N2108 C2105 1.384 . S
N2109 C2101 1.427 . S
N2109 C2107 1.384 . S
H2110 C2116 0.930 . S
H2111 C2120 0.930 . S
H2112 C2125 0.929 . S
H2113 C2123 0.929 . S
H2114 C2118 0.929 . S
H2115 C2124 0.929 . S
C2116 H2110 0.930 . S
C2116 C2117 1.367 . S
C2116 C2124 1.378 . S
C2117 C2116 1.367 . S
C2117 C2125 1.433 . S
C2118 H2114 0.929 . S
C2118 C2120 1.378 . S
C2118 C2122 1.350 . S
C2119 C2122 1.463 . S
C2119 C2124 1.350 . S
C2119 N2127 1.427 . S
C2120 H2111 0.930 . S
C2120 C2118 1.378 . S
C2120 C2121 1.367 . S
C2121 C2120 1.367 . S
C2121 C2123 1.433 . S
C2122 C2118 1.350 . S
C2122 C2119 1.463 . S
C2122 N2126 1.427 . S
C2123 H2113 0.929 . S
C2123 C2121 1.433 . S
C2123 N2126 1.384 . S
C2124 H2115 0.929 . S
C2124 C2116 1.378 . S
C2124 C2119 1.350 . S
C2125 H2112 0.929 . S
C2125 C2117 1.433 . S
C2125 N2127 1.384 . S
N2126 C2122 1.427 . S
N2126 C2123 1.384 . S
N2127 C2119 1.427 . S
N2127 C2125 1.384 . S
H2128 C2134 0.930 . S
H2129 C2138 0.930 . S
H2130 C2143 0.929 . S
H2131 C2141 0.929 . S
H2132 C2136 0.929 . S
H2133 C2142 0.929 . S
C2134 H2128 0.930 . S
C2134 C2135 1.367 . S
C2134 C2142 1.378 . S
C2135 C2134 1.367 . S
C2135 C2143 1.433 . S
C2136 H2132 0.929 . S
C2136 C2138 1.378 . S
C2136 C2140 1.350 . S
C2137 C2140 1.463 . S
C2137 C2142 1.350 . S
C2137 N2145 1.427 . S
C2138 H2129 0.930 . S
C2138 C2136 1.378 . S
C2138 C2139 1.367 . S
C2139 C2138 1.367 . S
C2139 C2141 1.433 . S
C2140 C2136 1.350 . S
C2140 C2137 1.463 . S
C2140 N2144 1.427 . S
C2141 H2131 0.929 . S
C2141 C2139 1.433 . S
C2141 N2144 1.384 . S
C2142 H2133 0.929 . S
C2142 C2134 1.378 . S
C2142 C2137 1.350 . S
C2143 H2130 0.929 . S
C2143 C2135 1.433 . S
C2143 N2145 1.384 . S
N2144 C2140 1.427 . S
N2144 C2141 1.384 . S
N2145 C2137 1.427 . S
N2145 C2143 1.384 . S
H2146 C2152 0.930 . S
H2147 C2156 0.930 . S
H2148 C2161 0.929 . S
H2149 C2159 0.929 . S
H2150 C2154 0.929 . S
H2151 C2160 0.929 . S
C2152 H2146 0.930 . S
C2152 C2153 1.367 . S
C2152 C2160 1.378 . S
C2153 C2152 1.367 . S
C2153 C2161 1.433 . S
C2154 H2150 0.929 . S
C2154 C2156 1.378 . S
C2154 C2158 1.350 . S
C2155 C2158 1.463 . S
C2155 C2160 1.350 . S
C2155 N2163 1.427 . S
C2156 H2147 0.930 . S
C2156 C2154 1.378 . S
C2156 C2157 1.367 . S
C2157 C2156 1.367 . S
C2157 C2159 1.433 . S
C2158 C2154 1.350 . S
C2158 C2155 1.463 . S
C2158 N2162 1.427 . S
C2159 H2149 0.929 . S
C2159 C2157 1.433 . S
C2159 N2162 1.384 . S
C2160 H2151 0.929 . S
C2160 C2152 1.378 . S
C2160 C2155 1.350 . S
C2161 H2148 0.929 . S
C2161 C2153 1.433 . S
C2161 N2163 1.384 . S
N2162 C2158 1.427 . S
N2162 C2159 1.384 . S
N2163 C2155 1.427 . S
N2163 C2161 1.384 . S
H2164 C2170 0.930 . S
H2165 C2174 0.930 . S
H2166 C2179 0.929 1_545 S
H2167 C2177 0.929 . S
H2168 C2172 0.929 . S
H2169 C2178 0.929 . S
C2170 H2164 0.930 . S
C2170 C2171 1.367 . S
C2170 C2178 1.378 . S
C2171 C2170 1.367 . S
C2171 C2179 1.433 . S
C2172 H2168 0.929 . S
C2172 C2174 1.378 . S
C2172 C2176 1.350 . S
C2173 C2176 1.463 . S
C2173 C2178 1.350 . S
C2173 N2181 1.427 . S
C2174 H2165 0.930 . S
C2174 C2172 1.378 . S
C2174 C2175 1.367 . S
C2175 C2174 1.367 . S
C2175 C2177 1.433 . S
C2176 C2172 1.350 . S
C2176 C2173 1.463 . S
C2176 N2180 1.427 . S
C2177 H2167 0.929 . S
C2177 C2175 1.433 . S
C2177 N2180 1.384 . S
C2178 H2169 0.929 . S
C2178 C2170 1.378 . S
C2178 C2173 1.350 . S
C2179 H2166 0.929 1_565 S
C2179 C2171 1.433 . S
C2179 N2181 1.384 . S
N2180 C2176 1.427 . S
N2180 C2177 1.384 . S
N2181 C2173 1.427 . S
N2181 C2179 1.384 . S
H2182 C2188 0.930 . S
H2183 C2192 0.911 1_556 S
H2184 C2197 0.929 . S
H2185 C2195 0.929 . S
H2186 C2190 0.929 . S
H2187 C2196 0.929 . S
C2188 H2182 0.930 . S
C2188 C2189 1.367 . S
C2188 C2196 1.378 . S
C2189 C2188 1.367 . S
C2189 C2197 1.433 1_554 S
C2190 H2186 0.929 . S
C2190 C2192 1.380 1_556 S
C2190 C2194 1.350 1_556 S
C2191 C2194 1.463 . S
C2191 C2196 1.350 . S
C2191 N2199 1.427 1_554 S
C2192 H2183 0.911 1_554 S
C2192 C2190 1.380 1_554 S
C2192 C2193 1.384 . S
C2193 C2192 1.384 . S
C2193 C2195 1.433 . S
C2194 C2190 1.350 1_554 S
C2194 C2191 1.463 . S
C2194 N2198 1.427 . S
C2195 H2185 0.929 . S
C2195 C2193 1.433 . S
C2195 N2198 1.384 . S
C2196 H2187 0.929 . S
C2196 C2188 1.378 . S
C2196 C2191 1.350 . S
C2197 H2184 0.929 . S
C2197 C2189 1.433 1_556 S
C2197 N2199 1.384 . S
N2198 C2194 1.427 . S
N2198 C2195 1.384 . S
N2199 C2191 1.427 1_556 S
N2199 C2197 1.384 . S
H2200 C2206 0.930 . S
H2201 C2210 0.930 . S
H2202 C2215 0.929 . S
H2203 C2213 0.929 . S
H2204 C2208 0.929 . S
H2205 C2214 0.929 . S
C2206 H2200 0.930 . S
C2206 C2207 1.367 . S
C2206 C2214 1.378 . S
C2207 C2206 1.367 . S
C2207 C2215 1.433 . S
C2208 H2204 0.929 . S
C2208 C2210 1.378 . S
C2208 C2212 1.350 . S
C2209 C2212 1.463 . S
C2209 C2214 1.350 . S
C2209 N2217 1.427 . S
C2210 H2201 0.930 . S
C2210 C2208 1.378 . S
C2210 C2211 1.367 . S
C2211 C2210 1.367 . S
C2211 C2213 1.433 . S
C2212 C2208 1.350 . S
C2212 C2209 1.463 . S
C2212 N2216 1.427 . S
C2213 H2203 0.929 . S
C2213 C2211 1.433 . S
C2213 N2216 1.384 . S
C2214 H2205 0.929 . S
C2214 C2206 1.378 . S
C2214 C2209 1.350 . S
C2215 H2202 0.929 . S
C2215 C2207 1.433 . S
C2215 N2217 1.384 . S
N2216 C2212 1.427 . S
N2216 C2213 1.384 . S
N2217 C2209 1.427 . S
N2217 C2215 1.384 . S
H2218 C2224 0.930 . S
H2219 C2228 0.930 . S
H2220 C2233 0.929 . S
H2221 C2231 0.929 . S
H2222 C2226 0.929 . S
H2223 C2232 0.929 . S
C2224 H2218 0.930 . S
C2224 C2225 1.367 . S
C2224 C2232 1.378 . S
C2225 C2224 1.367 . S
C2225 C2233 1.433 . S
C2226 H2222 0.929 . S
C2226 C2228 1.378 . S
C2226 C2230 1.350 . S
C2227 C2230 1.463 . S
C2227 C2232 1.350 . S
C2227 N2235 1.427 . S
C2228 H2219 0.930 . S
C2228 C2226 1.378 . S
C2228 C2229 1.367 . S
C2229 C2228 1.367 . S
C2229 C2231 1.433 . S
C2230 C2226 1.350 . S
C2230 C2227 1.463 . S
C2230 N2234 1.427 . S
C2231 H2221 0.929 . S
C2231 C2229 1.433 . S
C2231 N2234 1.384 . S
C2232 H2223 0.929 . S
C2232 C2224 1.378 . S
C2232 C2227 1.350 . S
C2233 H2220 0.929 . S
C2233 C2225 1.433 . S
C2233 N2235 1.384 . S
N2234 C2230 1.427 . S
N2234 C2231 1.384 . S
N2235 C2227 1.427 . S
N2235 C2233 1.384 . S
H2236 C2242 0.930 . S
H2237 C2246 0.930 . S
H2238 C2251 0.929 . S
H2239 C2249 0.929 . S
H2240 C2244 0.929 . S
H2241 C2250 0.929 . S
C2242 H2236 0.930 . S
C2242 C2243 1.367 . S
C2242 C2250 1.378 . S
C2243 C2242 1.367 . S
C2243 C2251 1.433 . S
C2244 H2240 0.929 . S
C2244 C2246 1.378 . S
C2244 C2248 1.350 . S
C2245 C2248 1.463 . S
C2245 C2250 1.350 . S
C2245 N2253 1.427 . S
C2246 H2237 0.930 . S
C2246 C2244 1.378 . S
C2246 C2247 1.367 . S
C2247 C2246 1.367 . S
C2247 C2249 1.433 . S
C2248 C2244 1.350 . S
C2248 C2245 1.463 . S
C2248 N2252 1.427 . S
C2249 H2239 0.929 . S
C2249 C2247 1.433 . S
C2249 N2252 1.384 . S
C2250 H2241 0.929 . S
C2250 C2242 1.378 . S
C2250 C2245 1.350 . S
C2251 H2238 0.929 . S
C2251 C2243 1.433 . S
C2251 N2253 1.384 . S
N2252 C2248 1.427 . S
N2252 C2249 1.384 . S
N2253 C2245 1.427 . S
N2253 C2251 1.384 . S
H2254 C2260 0.930 . S
H2255 C2264 0.930 . S
H2256 C2269 0.929 . S
H2257 C2267 0.929 . S
H2258 C2262 0.929 . S
H2259 C2268 0.929 . S
C2260 H2254 0.930 . S
C2260 C2261 1.367 . S
C2260 C2268 1.378 . S
C2261 C2260 1.367 . S
C2261 C2269 1.433 . S
C2262 H2258 0.929 . S
C2262 C2264 1.378 . S
C2262 C2266 1.350 . S
C2263 C2266 1.463 . S
C2263 C2268 1.350 . S
C2263 N2271 1.427 . S
C2264 H2255 0.930 . S
C2264 C2262 1.378 . S
C2264 C2265 1.367 . S
C2265 C2264 1.367 . S
C2265 C2267 1.433 . S
C2266 C2262 1.350 . S
C2266 C2263 1.463 . S
C2266 N2270 1.427 . S
C2267 H2257 0.929 . S
C2267 C2265 1.433 . S
C2267 N2270 1.384 . S
C2268 H2259 0.929 . S
C2268 C2260 1.378 . S
C2268 C2263 1.350 . S
C2269 H2256 0.929 . S
C2269 C2261 1.433 . S
C2269 N2271 1.384 . S
N2270 C2266 1.427 . S
N2270 C2267 1.384 . S
N2271 C2263 1.427 . S
N2271 C2269 1.384 . S
H2272 C2278 0.930 . S
H2273 C2282 0.930 . S
H2274 C2287 0.929 . S
H2275 C2285 0.929 . S
H2276 C2280 0.929 . S
H2277 C2286 0.929 . S
C2278 H2272 0.930 . S
C2278 C2279 1.367 . S
C2278 C2286 1.378 . S
C2279 C2278 1.367 . S
C2279 C2287 1.433 . S
C2280 H2276 0.929 . S
C2280 C2282 1.378 . S
C2280 C2284 1.350 . S
C2281 C2284 1.463 . S
C2281 C2286 1.350 . S
C2281 N2289 1.427 . S
C2282 H2273 0.930 . S
C2282 C2280 1.378 . S
C2282 C2283 1.367 . S
C2283 C2282 1.367 . S
C2283 C2285 1.433 . S
C2284 C2280 1.350 . S
C2284 C2281 1.463 . S
C2284 N2288 1.427 . S
C2285 H2275 0.929 . S
C2285 C2283 1.433 . S
C2285 N2288 1.384 . S
C2286 H2277 0.929 . S
C2286 C2278 1.378 . S
C2286 C2281 1.350 . S
C2287 H2274 0.929 . S
C2287 C2279 1.433 . S
C2287 N2289 1.384 . S
N2288 C2284 1.427 . S
N2288 C2285 1.384 . S
N2289 C2281 1.427 . S
N2289 C2287 1.384 . S
H2290 C2296 0.930 . S
H2291 C2300 0.930 . S
H2292 C2305 0.929 . S
H2293 C2303 0.929 . S
H2294 C2298 0.929 . S
H2295 C2304 0.929 . S
C2296 H2290 0.930 . S
C2296 C2297 1.367 . S
C2296 C2304 1.378 . S
C2297 C2296 1.367 . S
C2297 C2305 1.433 . S
C2298 H2294 0.929 . S
C2298 C2300 1.378 . S
C2298 C2302 1.350 . S
C2299 C2302 1.463 . S
C2299 C2304 1.350 . S
C2299 N2307 1.427 . S
C2300 H2291 0.930 . S
C2300 C2298 1.378 . S
C2300 C2301 1.367 . S
C2301 C2300 1.367 . S
C2301 C2303 1.433 . S
C2302 C2298 1.350 . S
C2302 C2299 1.463 . S
C2302 N2306 1.427 . S
C2303 H2293 0.929 . S
C2303 C2301 1.433 . S
C2303 N2306 1.384 . S
C2304 H2295 0.929 . S
C2304 C2296 1.378 . S
C2304 C2299 1.350 . S
C2305 H2292 0.929 . S
C2305 C2297 1.433 . S
C2305 N2307 1.384 . S
N2306 C2302 1.427 . S
N2306 C2303 1.384 . S
N2307 C2299 1.427 . S
N2307 C2305 1.384 . S
H2308 C2314 0.930 . S
H2309 C2318 0.930 . S
H2310 C2323 0.929 . S
H2311 C2321 0.929 . S
H2312 C2316 0.929 . S
H2313 C2322 0.929 . S
C2314 H2308 0.930 . S
C2314 C2315 1.367 . S
C2314 C2322 1.378 . S
C2315 C2314 1.367 . S
C2315 C2323 1.433 . S
C2316 H2312 0.929 . S
C2316 C2318 1.378 . S
C2316 C2320 1.350 . S
C2317 C2320 1.463 . S
C2317 C2322 1.350 . S
C2317 N2325 1.427 . S
C2318 H2309 0.930 . S
C2318 C2316 1.378 . S
C2318 C2319 1.367 . S
C2319 C2318 1.367 . S
C2319 C2321 1.433 . S
C2320 C2316 1.350 . S
C2320 C2317 1.463 . S
C2320 N2324 1.427 . S
C2321 H2311 0.929 . S
C2321 C2319 1.433 . S
C2321 N2324 1.384 . S
C2322 H2313 0.929 . S
C2322 C2314 1.378 . S
C2322 C2317 1.350 . S
C2323 H2310 0.929 . S
C2323 C2315 1.433 . S
C2323 N2325 1.384 . S
N2324 C2320 1.427 . S
N2324 C2321 1.384 . S
N2325 C2317 1.427 . S
N2325 C2323 1.384 . S
H2326 C2332 0.930 . S
H2327 C2336 0.930 . S
H2328 C2341 0.929 . S
H2329 C2339 0.929 . S
H2330 C2334 0.929 . S
H2331 C2340 0.929 . S
C2332 H2326 0.930 . S
C2332 C2333 1.367 . S
C2332 C2340 1.378 . S
C2333 C2332 1.367 . S
C2333 C2341 1.433 . S
C2334 H2330 0.929 . S
C2334 C2336 1.378 . S
C2334 C2338 1.350 . S
C2335 C2338 1.463 . S
C2335 C2340 1.350 . S
C2335 N2343 1.427 . S
C2336 H2327 0.930 . S
C2336 C2334 1.378 . S
C2336 C2337 1.367 . S
C2337 C2336 1.367 . S
C2337 C2339 1.433 . S
C2338 C2334 1.350 . S
C2338 C2335 1.463 . S
C2338 N2342 1.427 . S
C2339 H2329 0.929 . S
C2339 C2337 1.433 . S
C2339 N2342 1.384 . S
C2340 H2331 0.929 . S
C2340 C2332 1.378 . S
C2340 C2335 1.350 . S
C2341 H2328 0.929 . S
C2341 C2333 1.433 . S
C2341 N2343 1.384 . S
N2342 C2338 1.427 . S
N2342 C2339 1.384 . S
N2343 C2335 1.427 . S
N2343 C2341 1.384 . S
H2344 C2350 0.930 . S
H2345 C2354 0.930 1_554 S
H2346 C2359 0.929 . S
H2347 C2357 0.929 . S
H2348 C2352 0.929 . S
H2349 C2358 0.929 . S
C2350 H2344 0.930 . S
C2350 C2351 1.367 . S
C2350 C2358 1.378 . S
C2351 C2350 1.367 . S
C2351 C2359 1.433 . S
C2352 H2348 0.929 . S
C2352 C2354 1.378 . S
C2352 C2356 1.350 . S
C2353 C2356 1.463 . S
C2353 C2358 1.350 . S
C2353 N2361 1.427 . S
C2354 H2345 0.930 1_556 S
C2354 C2352 1.378 . S
C2354 C2355 1.367 . S
C2355 C2354 1.367 . S
C2355 C2357 1.433 . S
C2356 C2352 1.350 . S
C2356 C2353 1.463 . S
C2356 N2360 1.427 . S
C2357 H2347 0.929 . S
C2357 C2355 1.433 . S
C2357 N2360 1.384 . S
C2358 H2349 0.929 . S
C2358 C2350 1.378 . S
C2358 C2353 1.350 . S
C2359 H2346 0.929 . S
C2359 C2351 1.433 . S
C2359 N2361 1.384 . S
N2360 C2356 1.427 . S
N2360 C2357 1.384 . S
N2361 C2353 1.427 . S
N2361 C2359 1.384 . S
H2362 C2368 0.930 . S
H2363 C2372 0.930 . S
H2364 C2377 0.929 . S
H2365 C2375 0.929 . S
H2366 C2370 0.929 . S
H2367 C2376 0.929 . S
C2368 H2362 0.930 . S
C2368 C2369 1.367 . S
C2368 C2376 1.378 . S
C2369 C2368 1.367 . S
C2369 C2377 1.433 . S
C2370 H2366 0.929 . S
C2370 C2372 1.378 . S
C2370 C2374 1.350 . S
C2371 C2374 1.463 . S
C2371 C2376 1.350 . S
C2371 N2379 1.427 . S
C2372 H2363 0.930 . S
C2372 C2370 1.378 . S
C2372 C2373 1.367 . S
C2373 C2372 1.367 . S
C2373 C2375 1.433 . S
C2374 C2370 1.350 . S
C2374 C2371 1.463 . S
C2374 N2378 1.427 . S
C2375 H2365 0.929 . S
C2375 C2373 1.433 . S
C2375 N2378 1.384 . S
C2376 H2367 0.929 . S
C2376 C2368 1.378 . S
C2376 C2371 1.350 . S
C2377 H2364 0.929 . S
C2377 C2369 1.433 . S
C2377 N2379 1.384 . S
N2378 C2374 1.427 . S
N2378 C2375 1.384 . S
N2379 C2371 1.427 . S
N2379 C2377 1.384 . S
H2380 C2386 0.930 . S
H2381 C2390 0.930 . S
H2382 C2395 0.929 . S
H2383 C2393 0.929 . S
H2384 C2388 0.929 . S
H2385 C2394 0.929 . S
C2386 H2380 0.930 . S
C2386 C2387 1.367 . S
C2386 C2394 1.378 . S
C2387 C2386 1.367 . S
C2387 C2395 1.433 . S
C2388 H2384 0.929 . S
C2388 C2390 1.378 . S
C2388 C2392 1.350 . S
C2389 C2392 1.463 . S
C2389 C2394 1.350 . S
C2389 N2397 1.427 . S
C2390 H2381 0.930 . S
C2390 C2388 1.378 . S
C2390 C2391 1.367 . S
C2391 C2390 1.367 . S
C2391 C2393 1.433 . S
C2392 C2388 1.350 . S
C2392 C2389 1.463 . S
C2392 N2396 1.427 . S
C2393 H2383 0.929 . S
C2393 C2391 1.433 . S
C2393 N2396 1.384 . S
C2394 H2385 0.929 . S
C2394 C2386 1.378 . S
C2394 C2389 1.350 . S
C2395 H2382 0.929 . S
C2395 C2387 1.433 . S
C2395 N2397 1.384 . S
N2396 C2392 1.427 . S
N2396 C2393 1.384 . S
N2397 C2389 1.427 . S
N2397 C2395 1.384 . S
H2398 C2404 0.930 . S
H2399 C2408 0.930 . S
H2400 C2413 0.929 . S
H2401 C2411 0.929 . S
H2402 C2406 0.929 . S
H2403 C2412 0.929 . S
C2404 H2398 0.930 . S
C2404 C2405 1.367 . S
C2404 C2412 1.378 . S
C2405 C2404 1.367 . S
C2405 C2413 1.433 . S
C2406 H2402 0.929 . S
C2406 C2408 1.378 . S
C2406 C2410 1.350 . S
C2407 C2410 1.463 . S
C2407 C2412 1.350 . S
C2407 N2415 1.427 . S
C2408 H2399 0.930 . S
C2408 C2406 1.378 . S
C2408 C2409 1.367 . S
C2409 C2408 1.367 . S
C2409 C2411 1.433 . S
C2410 C2406 1.350 . S
C2410 C2407 1.463 . S
C2410 N2414 1.427 . S
C2411 H2401 0.929 . S
C2411 C2409 1.433 . S
C2411 N2414 1.384 . S
C2412 H2403 0.929 . S
C2412 C2404 1.378 . S
C2412 C2407 1.350 . S
C2413 H2400 0.929 . S
C2413 C2405 1.433 . S
C2413 N2415 1.384 . S
N2414 C2410 1.427 . S
N2414 C2411 1.384 . S
N2415 C2407 1.427 . S
N2415 C2413 1.384 . S
H2416 C2422 0.930 . S
H2417 C2426 0.930 . S
H2418 C2431 0.929 . S
H2419 C2429 0.929 . S
H2420 C2424 0.929 . S
H2421 C2430 0.929 . S
C2422 H2416 0.930 . S
C2422 C2423 1.367 . S
C2422 C2430 1.378 . S
C2423 C2422 1.367 . S
C2423 C2431 1.433 . S
C2424 H2420 0.929 . S
C2424 C2426 1.378 . S
C2424 C2428 1.350 . S
C2425 C2428 1.463 . S
C2425 C2430 1.350 . S
C2425 N2433 1.427 . S
C2426 H2417 0.930 . S
C2426 C2424 1.378 . S
C2426 C2427 1.367 . S
C2427 C2426 1.367 . S
C2427 C2429 1.433 . S
C2428 C2424 1.350 . S
C2428 C2425 1.463 . S
C2428 N2432 1.427 . S
C2429 H2419 0.929 . S
C2429 C2427 1.433 . S
C2429 N2432 1.384 . S
C2430 H2421 0.929 . S
C2430 C2422 1.378 . S
C2430 C2425 1.350 . S
C2431 H2418 0.929 . S
C2431 C2423 1.433 . S
C2431 N2433 1.384 . S
N2432 C2428 1.427 . S
N2432 C2429 1.384 . S
N2433 C2425 1.427 . S
N2433 C2431 1.384 . S
H2434 C2440 0.930 . S
H2435 C2444 0.930 . S
H2436 C2449 0.929 . S
H2437 C2447 0.929 . S
H2438 C2442 0.929 . S
H2439 C2448 0.929 . S
C2440 H2434 0.930 . S
C2440 C2441 1.367 . S
C2440 C2448 1.378 . S
C2441 C2440 1.367 . S
C2441 C2449 1.433 . S
C2442 H2438 0.929 . S
C2442 C2444 1.378 . S
C2442 C2446 1.350 . S
C2443 C2446 1.463 . S
C2443 C2448 1.350 . S
C2443 N2451 1.427 . S
C2444 H2435 0.930 . S
C2444 C2442 1.378 . S
C2444 C2445 1.367 . S
C2445 C2444 1.367 . S
C2445 C2447 1.433 . S
C2446 C2442 1.350 . S
C2446 C2443 1.463 . S
C2446 N2450 1.427 . S
C2447 H2437 0.929 . S
C2447 C2445 1.433 . S
C2447 N2450 1.384 . S
C2448 H2439 0.929 . S
C2448 C2440 1.378 . S
C2448 C2443 1.350 . S
C2449 H2436 0.929 . S
C2449 C2441 1.433 . S
C2449 N2451 1.384 . S
N2450 C2446 1.427 . S
N2450 C2447 1.384 . S
N2451 C2443 1.427 . S
N2451 C2449 1.384 . S
H2452 C2458 0.930 . S
H2453 C2462 0.930 . S
H2454 C2467 0.929 . S
H2455 C2465 0.929 . S
H2456 C2460 0.929 . S
H2457 C2466 0.929 . S
C2458 H2452 0.930 . S
C2458 C2459 1.367 . S
C2458 C2466 1.378 . S
C2459 C2458 1.367 . S
C2459 C2467 1.433 . S
C2460 H2456 0.929 . S
C2460 C2462 1.378 . S
C2460 C2464 1.350 . S
C2461 C2464 1.463 . S
C2461 C2466 1.350 . S
C2461 N2469 1.427 . S
C2462 H2453 0.930 . S
C2462 C2460 1.378 . S
C2462 C2463 1.393 . S
C2463 C2462 1.393 . S
C2463 C2465 1.432 1_655 S
C2464 C2460 1.350 . S
C2464 C2461 1.463 . S
C2464 N2468 1.427 . S
C2465 H2455 0.929 . S
C2465 C2463 1.432 1_455 S
C2465 N2468 1.384 1_455 S
C2466 H2457 0.929 . S
C2466 C2458 1.378 . S
C2466 C2461 1.350 . S
C2467 H2454 0.929 . S
C2467 C2459 1.433 . S
C2467 N2469 1.384 . S
N2468 C2464 1.427 . S
N2468 C2465 1.384 1_655 S
N2469 C2461 1.427 . S
N2469 C2467 1.384 . S
H2470 C2476 0.930 . S
H2471 C2480 0.930 . S
H2472 C2485 0.929 . S
H2473 C2483 0.929 . S
H2474 C2478 0.929 . S
H2475 C2484 0.929 . S
C2476 H2470 0.930 . S
C2476 C2477 1.367 . S
C2476 C2484 1.378 . S
C2477 C2476 1.367 . S
C2477 C2485 1.433 . S
C2478 H2474 0.929 . S
C2478 C2480 1.378 . S
C2478 C2482 1.350 . S
C2479 C2482 1.463 . S
C2479 C2484 1.350 . S
C2479 N2487 1.427 . S
C2480 H2471 0.930 . S
C2480 C2478 1.378 . S
C2480 C2481 1.367 . S
C2481 C2480 1.367 . S
C2481 C2483 1.433 . S
C2482 C2478 1.350 . S
C2482 C2479 1.463 . S
C2482 N2486 1.427 . S
C2483 H2473 0.929 . S
C2483 C2481 1.433 . S
C2483 N2486 1.384 . S
C2484 H2475 0.929 . S
C2484 C2476 1.378 . S
C2484 C2479 1.350 . S
C2485 H2472 0.929 . S
C2485 C2477 1.433 . S
C2485 N2487 1.384 . S
N2486 C2482 1.427 . S
N2486 C2483 1.384 . S
N2487 C2479 1.427 . S
N2487 C2485 1.384 . S
H2488 C2494 0.930 . S
H2489 C2498 0.930 . S
H2490 C2503 0.929 . S
H2491 C2501 0.929 . S
H2492 C2496 0.929 . S
H2493 C2502 0.929 . S
C2494 H2488 0.930 . S
C2494 C2495 1.367 . S
C2494 C2502 1.378 . S
C2495 C2494 1.367 . S
C2495 C2503 1.433 . S
C2496 H2492 0.929 . S
C2496 C2498 1.378 . S
C2496 C2500 1.350 . S
C2497 C2500 1.463 . S
C2497 C2502 1.350 . S
C2497 N2505 1.427 . S
C2498 H2489 0.930 . S
C2498 C2496 1.378 . S
C2498 C2499 1.367 . S
C2499 C2498 1.367 . S
C2499 C2501 1.433 . S
C2500 C2496 1.350 . S
C2500 C2497 1.463 . S
C2500 N2504 1.427 . S
C2501 H2491 0.929 . S
C2501 C2499 1.433 . S
C2501 N2504 1.384 . S
C2502 H2493 0.929 . S
C2502 C2494 1.378 . S
C2502 C2497 1.350 . S
C2503 H2490 0.929 . S
C2503 C2495 1.433 . S
C2503 N2505 1.384 . S
N2504 C2500 1.427 . S
N2504 C2501 1.384 . S
N2505 C2497 1.427 . S
N2505 C2503 1.384 . S
H2506 C2512 0.930 . S
H2507 C2516 0.930 . S
H2508 C2521 0.929 . S
H2509 C2519 0.929 . S
H2510 C2514 0.929 . S
H2511 C2520 0.929 . S
C2512 H2506 0.930 . S
C2512 C2513 1.367 . S
C2512 C2520 1.378 . S
C2513 C2512 1.367 . S
C2513 C2521 1.433 . S
C2514 H2510 0.929 . S
C2514 C2516 1.378 . S
C2514 C2518 1.350 . S
C2515 C2518 1.463 . S
C2515 C2520 1.350 . S
C2515 N2523 1.427 . S
C2516 H2507 0.930 . S
C2516 C2514 1.378 . S
C2516 C2517 1.367 . S
C2517 C2516 1.367 . S
C2517 C2519 1.433 . S
C2518 C2514 1.350 . S
C2518 C2515 1.463 . S
C2518 N2522 1.427 . S
C2519 H2509 0.929 . S
C2519 C2517 1.433 . S
C2519 N2522 1.384 . S
C2520 H2511 0.929 . S
C2520 C2512 1.378 . S
C2520 C2515 1.350 . S
C2521 H2508 0.929 . S
C2521 C2513 1.433 . S
C2521 N2523 1.384 . S
N2522 C2518 1.427 . S
N2522 C2519 1.384 . S
N2523 C2515 1.427 . S
N2523 C2521 1.384 . S
H2524 C2530 0.930 . S
H2525 C2534 0.930 . S
H2526 C2539 0.929 . S
H2527 C2537 0.910 1_455 S
H2528 C2532 0.929 . S
H2529 C2538 0.929 . S
C2530 H2524 0.930 . S
C2530 C2531 1.367 . S
C2530 C2538 1.378 . S
C2531 C2530 1.367 . S
C2531 C2539 1.433 . S
C2532 H2528 0.929 . S
C2532 C2534 1.378 . S
C2532 C2536 1.350 . S
C2533 C2536 1.463 . S
C2533 C2538 1.350 . S
C2533 N2541 1.427 . S
C2534 H2525 0.930 . S
C2534 C2532 1.378 . S
C2534 C2535 1.367 . S
C2535 C2534 1.367 . S
C2535 C2537 1.433 . S
C2536 C2532 1.350 . S
C2536 C2533 1.463 . S
C2536 N2540 1.427 . S
C2537 H2527 0.910 1_655 S
C2537 C2535 1.433 . S
C2537 N2540 1.384 . S
C2538 H2529 0.929 . S
C2538 C2530 1.378 . S
C2538 C2533 1.350 . S
C2539 H2526 0.929 . S
C2539 C2531 1.433 . S
C2539 N2541 1.384 . S
N2540 C2536 1.427 . S
N2540 C2537 1.384 . S
N2541 C2533 1.427 . S
N2541 C2539 1.384 . S
H2542 C2548 0.930 . S
H2543 C2552 0.930 . S
H2544 C2557 0.929 . S
H2545 C2555 0.929 . S
H2546 C2550 0.929 . S
H2547 C2556 0.929 . S
C2548 H2542 0.930 . S
C2548 C2549 1.367 . S
C2548 C2556 1.378 . S
C2549 C2548 1.367 . S
C2549 C2557 1.433 . S
C2550 H2546 0.929 . S
C2550 C2552 1.378 . S
C2550 C2554 1.350 . S
C2551 C2554 1.463 . S
C2551 C2556 1.350 . S
C2551 N2559 1.427 . S
C2552 H2543 0.930 . S
C2552 C2550 1.378 . S
C2552 C2553 1.367 . S
C2553 C2552 1.367 . S
C2553 C2555 1.433 . S
C2554 C2550 1.350 . S
C2554 C2551 1.463 . S
C2554 N2558 1.427 . S
C2555 H2545 0.929 . S
C2555 C2553 1.433 . S
C2555 N2558 1.384 . S
C2556 H2547 0.929 . S
C2556 C2548 1.378 . S
C2556 C2551 1.350 . S
C2557 H2544 0.929 . S
C2557 C2549 1.433 . S
C2557 N2559 1.384 . S
N2558 C2554 1.427 . S
N2558 C2555 1.384 . S
N2559 C2551 1.427 . S
N2559 C2557 1.384 . S
H2560 C2566 0.930 . S
H2561 C2570 0.930 . S
H2562 C2575 0.929 . S
H2563 C2573 0.929 . S
H2564 C2568 0.929 . S
H2565 C2574 0.929 . S
C2566 H2560 0.930 . S
C2566 C2567 1.367 . S
C2566 C2574 1.378 . S
C2567 C2566 1.367 . S
C2567 C2575 1.433 . S
C2568 H2564 0.929 . S
C2568 C2570 1.378 . S
C2568 C2572 1.350 . S
C2569 C2572 1.463 . S
C2569 C2574 1.350 . S
C2569 N2577 1.427 . S
C2570 H2561 0.930 . S
C2570 C2568 1.378 . S
C2570 C2571 1.367 . S
C2571 C2570 1.367 . S
C2571 C2573 1.433 . S
C2572 C2568 1.350 . S
C2572 C2569 1.463 . S
C2572 N2576 1.427 . S
C2573 H2563 0.929 . S
C2573 C2571 1.433 . S
C2573 N2576 1.384 . S
C2574 H2565 0.929 . S
C2574 C2566 1.378 . S
C2574 C2569 1.350 . S
C2575 H2562 0.929 . S
C2575 C2567 1.433 . S
C2575 N2577 1.384 . S
N2576 C2572 1.427 . S
N2576 C2573 1.384 . S
N2577 C2569 1.427 . S
N2577 C2575 1.384 . S
H2578 C2584 0.930 . S
H2579 C2588 0.930 . S
H2580 C2593 0.929 . S
H2581 C2591 0.929 . S
H2582 C2586 0.929 . S
H2583 C2592 0.929 . S
C2584 H2578 0.930 . S
C2584 C2585 1.367 . S
C2584 C2592 1.378 . S
C2585 C2584 1.367 . S
C2585 C2593 1.433 . S
C2586 H2582 0.929 . S
C2586 C2588 1.378 . S
C2586 C2590 1.350 . S
C2587 C2590 1.463 . S
C2587 C2592 1.350 . S
C2587 N2595 1.427 . S
C2588 H2579 0.930 . S
C2588 C2586 1.378 . S
C2588 C2589 1.367 . S
C2589 C2588 1.367 . S
C2589 C2591 1.433 . S
C2590 C2586 1.350 . S
C2590 C2587 1.463 . S
C2590 N2594 1.427 . S
C2591 H2581 0.929 . S
C2591 C2589 1.433 . S
C2591 N2594 1.384 . S
C2592 H2583 0.929 . S
C2592 C2584 1.378 . S
C2592 C2587 1.350 . S
C2593 H2580 0.929 . S
C2593 C2585 1.433 . S
C2593 N2595 1.384 . S
N2594 C2590 1.427 . S
N2594 C2591 1.384 . S
N2595 C2587 1.427 . S
N2595 C2593 1.384 . S
H2596 C2602 0.930 . S
H2597 C2606 0.930 . S
H2598 C2611 0.929 . S
H2599 C2609 0.929 . S
H2600 C2604 0.929 . S
H2601 C2610 0.929 . S
C2602 H2596 0.930 . S
C2602 C2603 1.367 . S
C2602 C2610 1.378 . S
C2603 C2602 1.367 . S
C2603 C2611 1.433 . S
C2604 H2600 0.929 . S
C2604 C2606 1.378 . S
C2604 C2608 1.350 . S
C2605 C2608 1.463 . S
C2605 C2610 1.350 . S
C2605 N2613 1.427 . S
C2606 H2597 0.930 . S
C2606 C2604 1.378 . S
C2606 C2607 1.367 . S
C2607 C2606 1.367 . S
C2607 C2609 1.433 . S
C2608 C2604 1.350 . S
C2608 C2605 1.463 . S
C2608 N2612 1.427 . S
C2609 H2599 0.929 . S
C2609 C2607 1.433 . S
C2609 N2612 1.384 . S
C2610 H2601 0.929 . S
C2610 C2602 1.378 . S
C2610 C2605 1.350 . S
C2611 H2598 0.929 . S
C2611 C2603 1.433 . S
C2611 N2613 1.384 . S
N2612 C2608 1.427 . S
N2612 C2609 1.384 . S
N2613 C2605 1.427 . S
N2613 C2611 1.384 . S
H2614 C2620 0.930 . S
H2615 C2624 0.930 . S
H2616 C2629 0.929 . S
H2617 C2627 0.929 . S
H2618 C2622 0.929 . S
H2619 C2628 0.929 . S
C2620 H2614 0.930 . S
C2620 C2621 1.367 . S
C2620 C2628 1.378 . S
C2621 C2620 1.367 . S
C2621 C2629 1.433 . S
C2622 H2618 0.929 . S
C2622 C2624 1.378 . S
C2622 C2626 1.350 . S
C2623 C2626 1.463 . S
C2623 C2628 1.350 . S
C2623 N2631 1.427 . S
C2624 H2615 0.930 . S
C2624 C2622 1.378 . S
C2624 C2625 1.367 . S
C2625 C2624 1.367 . S
C2625 C2627 1.433 . S
C2626 C2622 1.350 . S
C2626 C2623 1.463 . S
C2626 N2630 1.427 . S
C2627 H2617 0.929 . S
C2627 C2625 1.433 . S
C2627 N2630 1.384 . S
C2628 H2619 0.929 . S
C2628 C2620 1.378 . S
C2628 C2623 1.350 . S
C2629 H2616 0.929 . S
C2629 C2621 1.433 . S
C2629 N2631 1.384 . S
N2630 C2626 1.427 . S
N2630 C2627 1.384 . S
N2631 C2623 1.427 . S
N2631 C2629 1.384 . S
H2632 C2638 0.930 . S
H2633 C2642 0.930 . S
H2634 C2647 0.929 . S
H2635 C2645 0.929 . S
H2636 C2640 0.929 . S
H2637 C2646 0.929 . S
C2638 H2632 0.930 . S
C2638 C2639 1.367 . S
C2638 C2646 1.378 . S
C2639 C2638 1.367 . S
C2639 C2647 1.433 . S
C2640 H2636 0.929 . S
C2640 C2642 1.378 . S
C2640 C2644 1.350 . S
C2641 C2644 1.463 . S
C2641 C2646 1.350 . S
C2641 N2649 1.427 . S
C2642 H2633 0.930 . S
C2642 C2640 1.378 . S
C2642 C2643 1.367 . S
C2643 C2642 1.367 . S
C2643 C2645 1.433 . S
C2644 C2640 1.350 . S
C2644 C2641 1.463 . S
C2644 N2648 1.427 . S
C2645 H2635 0.929 . S
C2645 C2643 1.433 . S
C2645 N2648 1.384 . S
C2646 H2637 0.929 . S
C2646 C2638 1.378 . S
C2646 C2641 1.350 . S
C2647 H2634 0.929 . S
C2647 C2639 1.433 . S
C2647 N2649 1.384 . S
N2648 C2644 1.427 . S
N2648 C2645 1.384 . S
N2649 C2641 1.427 . S
N2649 C2647 1.384 . S
H2650 C2656 0.930 . S
H2651 C2660 0.930 . S
H2652 C2665 0.929 . S
H2653 C2663 0.929 . S
H2654 C2658 0.929 . S
H2655 C2664 0.929 . S
C2656 H2650 0.930 . S
C2656 C2657 1.367 . S
C2656 C2664 1.378 . S
C2657 C2656 1.367 . S
C2657 C2665 1.433 . S
C2658 H2654 0.929 . S
C2658 C2660 1.378 . S
C2658 C2662 1.350 . S
C2659 C2662 1.463 . S
C2659 C2664 1.350 . S
C2659 N2667 1.427 . S
C2660 H2651 0.930 . S
C2660 C2658 1.378 . S
C2660 C2661 1.367 . S
C2661 C2660 1.367 . S
C2661 C2663 1.433 . S
C2662 C2658 1.350 . S
C2662 C2659 1.463 . S
C2662 N2666 1.427 . S
C2663 H2653 0.929 . S
C2663 C2661 1.433 . S
C2663 N2666 1.384 . S
C2664 H2655 0.929 . S
C2664 C2656 1.378 . S
C2664 C2659 1.350 . S
C2665 H2652 0.929 . S
C2665 C2657 1.433 . S
C2665 N2667 1.384 . S
N2666 C2662 1.427 . S
N2666 C2663 1.384 . S
N2667 C2659 1.427 . S
N2667 C2665 1.384 . S
H2668 C2674 0.930 . S
H2669 C2678 0.930 . S
H2670 C2683 0.929 . S
H2671 C2681 0.929 . S
H2672 C2676 0.929 . S
H2673 C2682 0.929 . S
C2674 H2668 0.930 . S
C2674 C2675 1.367 . S
C2674 C2682 1.378 . S
C2675 C2674 1.367 . S
C2675 C2683 1.433 . S
C2676 H2672 0.929 . S
C2676 C2678 1.378 . S
C2676 C2680 1.350 . S
C2677 C2680 1.463 . S
C2677 C2682 1.350 . S
C2677 N2685 1.427 . S
C2678 H2669 0.930 . S
C2678 C2676 1.378 . S
C2678 C2679 1.367 . S
C2679 C2678 1.367 . S
C2679 C2681 1.433 . S
C2680 C2676 1.350 . S
C2680 C2677 1.463 . S
C2680 N2684 1.427 . S
C2681 H2671 0.929 . S
C2681 C2679 1.433 . S
C2681 N2684 1.384 . S
C2682 H2673 0.929 . S
C2682 C2674 1.378 . S
C2682 C2677 1.350 . S
C2683 H2670 0.929 . S
C2683 C2675 1.433 . S
C2683 N2685 1.384 . S
N2684 C2680 1.427 . S
N2684 C2681 1.384 . S
N2685 C2677 1.427 . S
N2685 C2683 1.384 . S
H2686 C2692 0.930 . S
H2687 C2696 0.930 . S
H2688 C2701 0.929 . S
H2689 C2699 0.929 . S
H2690 C2694 0.929 . S
H2691 C2700 0.929 . S
C2692 H2686 0.930 . S
C2692 C2693 1.367 . S
C2692 C2700 1.378 . S
C2693 C2692 1.367 . S
C2693 C2701 1.433 . S
C2694 H2690 0.929 . S
C2694 C2696 1.378 . S
C2694 C2698 1.350 . S
C2695 C2698 1.463 . S
C2695 C2700 1.350 . S
C2695 N2703 1.427 . S
C2696 H2687 0.930 . S
C2696 C2694 1.378 . S
C2696 C2697 1.367 . S
C2697 C2696 1.367 . S
C2697 C2699 1.433 . S
C2698 C2694 1.350 . S
C2698 C2695 1.463 . S
C2698 N2702 1.427 . S
C2699 H2689 0.929 . S
C2699 C2697 1.433 . S
C2699 N2702 1.384 . S
C2700 H2691 0.929 . S
C2700 C2692 1.378 . S
C2700 C2695 1.350 . S
C2701 H2688 0.929 . S
C2701 C2693 1.433 . S
C2701 N2703 1.384 . S
N2702 C2698 1.427 . S
N2702 C2699 1.384 . S
N2703 C2695 1.427 . S
N2703 C2701 1.384 . S
C983 C105 2.351 . S
C987 C346 2.282 . S
C1001 C65 2.090 . S
C1005 C394 2.083 . S
C1019 C73 1.337 . S
C1023 C426 1.319 . S
C1041 C471 1.596 . S
C1037 C92 1.648 . S
C1055 C17 0.962 . S
C1059 C511 0.956 . S
C1077 C546 1.005 . S
C1073 C37 1.010 . S
C1095 C585 1.265 . S
C1091 C49 1.214 . S
C1109 C8 1.248 . S
C1113 C622 1.235 . S
C1131 C354 2.074 . S
C1127 C231 2.045 1_545 S
C1145 C241 0.403 . S
C1149 C391 0.493 . S
C1167 C434 2.401 . S
C1163 C273 2.332 . S
C1185 C466 1.109 . S
C1181 C171 1.115 1_556 S
C1199 C227 1.264 . S
C1203 C506 1.243 . S
C1221 C554 0.356 . S
C1217 C245 0.548 . S
C1239 C595 2.028 1_556 S
C1235 C269 2.113 . S
C1257 C625 2.008 . S
C1253 C175 2.003 . S
C1275 C351 1.408 . S
C1271 C162 1.433 1_554 S
C1289 C289 2.187 . S
C1293 C674 2.168 . S
C1311 C711 1.234 . S
C1307 C330 1.238 . S
C1329 C742 0.659 . S
C1325 C317 0.623 . S
C1343 C120 2.746 . S
C1347 C635 2.706 . S
C1361 C134 1.464 . S
C1365 C431 1.440 . S
C1379 C331 1.751 . S
C1383 C794 1.750 . S
C1401 C826 1.803 . S
C1397 C303 1.820 . S
C1419 C355 2.284 . S
C1415 C59 2.346 . S
C1437 C825 2.133 . S
C1433 C107 2.134 . S
C1451 C91 1.373 . S
C1455 C435 1.370 . S
C1469 C78 1.659 . S
C1473 C782 1.625 . S
C1491 C502 0.990 . S
C1487 C7 0.978 1_455 S
C1505 C51 1.073 . S
C1509 C715 1.073 . S
C1527 C594 1.263 . S
C1523 C31 1.271 . S
C1545 C871 1.254 . S
C1541 C22 1.257 . S
C1563 C345 2.095 1_556 S
C1559 C143 2.095 . S
C1581 C822 0.474 . S
C1577 C315 0.535 . S
C1595 C115 2.457 . S
C1599 C425 2.437 . S
C1613 C287 1.154 . S
C1617 C795 1.153 . S
C1631 C147 1.297 . S
C1635 C515 1.306 . S
C1653 C705 0.432 . S
C1649 C311 0.418 . S
C1667 C119 2.065 . S
C1671 C586 2.066 . S
C1685 C283 2.029 1_556 S
C1689 C874 2.012 . S
C1703 C190 1.362 . S
C1707 C342 1.360 . S
C1721 C177 2.231 . S
C1725 C665 2.215 . S
C1739 C260 1.242 . S
C1743 C542 1.250 . S
C1757 C247 0.602 . S
C1761 C751 0.637 . S
C1779 C866 2.735 . S
C1775 C274 2.779 . S
C1793 C218 1.474 . S
C1797 C422 1.457 . S
C1815 C465 1.783 . S
C1811 C261 1.777 . S
C1833 C395 1.851 . S
C1829 C205 1.859 . S
C1847 C77 2.350 . S
C1851 C906 2.281 . S
C1869 C834 2.082 . S
C1865 C93 2.090 . S
C1883 C101 1.337 . S
C1887 C946 1.320 . S
C1901 C64 1.651 1_655 S
C1905 C791 1.600 . S
C1919 C45 0.961 . S
C1923 C671 0.953 . S
C1941 C706 1.005 . S
C1937 C9 1.011 . S
C1959 C745 1.269 . S
C1955 C21 1.230 . S
C1977 C862 1.246 . S
C1973 C36 1.256 . S
C1995 C914 2.074 . S
C1991 C259 2.046 . S
C2009 C185 0.403 . S
C2013 C831 0.493 . S
C2031 C954 2.400 . S
C2027 C203 2.333 . S
C2049 C786 1.095 . S
C2045 C213 1.120 . S
C2067 C666 1.238 . S
C2063 C255 1.267 . S
C2081 C189 0.513 . S
C2085 C714 0.371 . S
C2103 C755 2.027 . S
C2099 C199 2.116 . S
C2117 C217 2.008 . S
C2121 C865 2.011 . S
C2139 C911 1.402 . S
C2135 C316 1.427 . S
C2153 C135 2.190 . S
C2157 C514 2.172 . S
C2175 C551 1.240 . S
C2171 C148 1.250 . S
C2193 C582 0.641 . S
C2189 C163 0.620 . S
C2211 C875 2.711 . S
C2207 C302 2.743 . S
C2225 C288 1.460 . S
C2229 C951 1.433 . S
C2247 C474 1.751 . S
C2243 C149 1.753 . S
C2265 C386 1.812 . S
C2261 C121 1.816 . S
C2279 C87 2.345 . S
C2283 C915 2.285 . S
C2301 C385 2.135 . S
C2297 C79 2.137 . S
C2315 C63 1.364 . S
C2319 C955 1.373 . S
C2333 C106 1.655 . S
C2337 C462 1.621 . S
C2351 C35 0.992 . S
C2355 C662 0.993 . S
C2373 C555 1.081 . S
C2369 C23 1.060 . S
C2387 C3 1.276 . S
C2391 C754 1.263 . S
C2405 C50 1.255 . S
C2409 C631 1.260 . S
C2427 C905 2.098 . S
C2423 C325 2.099 . S
C2441 C161 0.530 . S
C2445 C382 0.469 . S
C2463 C945 2.409 1_656 S
C2459 C297 2.458 . S
C2477 C133 1.153 . S
C2481 C475 1.157 . S
C2495 C329 1.304 . S
C2499 C675 1.300 . S
C2517 C545 0.402 . S
C2513 C157 0.403 . S
C2531 C301 2.065 . S
C2535 C746 2.075 1_655 S
C2553 C634 2.018 . S
C2549 C129 2.027 . S
C2571 C902 1.355 . S
C2567 C246 1.354 . S
C2589 C505 2.216 1_565 S
C2585 C219 2.229 . S
C2603 C232 1.232 . S
C2607 C702 1.242 . S
C2625 C591 0.632 . S
C2621 C191 0.599 . S
C2639 C204 2.778 . S
C2643 C626 2.734 . S
C2657 C176 1.478 . S
C2661 C942 1.460 . S
C2679 C785 1.787 . S
C2675 C233 1.784 . S
C2697 C835 1.851 . S
C2693 C275 1.859 . S
