# Generated by pormake.
# Topology gar, (4,6)-cn, num edge types: 1
# Building blocks:
#     Node 0, Type 0, BuildingBlock: AZAVOO_clean_sbu_0, # of connection points: 4
#     Node 1, Type 0, BuildingBlock: AZAVOO_clean_sbu_0, # of connection points: 4
#     Node 2, Type 0, BuildingBlock: AZAVOO_clean_sbu_0, # of connection points: 4
#     Node 3, Type 0, BuildingBlock: AZAVOO_clean_sbu_0, # of connection points: 4
#     Node 4, Type 0, BuildingBlock: AZAVOO_clean_sbu_0, # of connection points: 4
#     Node 5, Type 0, BuildingBlock: AZAVOO_clean_sbu_0, # of connection points: 4
#     Node 6, Type 0, BuildingBlock: AZAVOO_clean_sbu_0, # of connection points: 4
#     Node 7, Type 0, BuildingBlock: AZAVOO_clean_sbu_0, # of connection points: 4
#     Node 8, Type 0, BuildingBlock: AZAVOO_clean_sbu_0, # of connection points: 4
#     Node 9, Type 0, BuildingBlock: AZAVOO_clean_sbu_0, # of connection points: 4
#     Node 10, Type 0, BuildingBlock: AZAVOO_clean_sbu_0, # of connection points: 4
#     Node 11, Type 0, BuildingBlock: AZAVOO_clean_sbu_0, # of connection points: 4
#     Node 12, Type 0, BuildingBlock: AZAVOO_clean_sbu_0, # of connection points: 4
#     Node 13, Type 0, BuildingBlock: AZAVOO_clean_sbu_0, # of connection points: 4
#     Node 14, Type 0, BuildingBlock: AZAVOO_clean_sbu_0, # of connection points: 4
#     Node 15, Type 0, BuildingBlock: AZAVOO_clean_sbu_0, # of connection points: 4
#     Node 16, Type 0, BuildingBlock: AZAVOO_clean_sbu_0, # of connection points: 4
#     Node 17, Type 0, BuildingBlock: AZAVOO_clean_sbu_0, # of connection points: 4
#     Node 18, Type 0, BuildingBlock: AZAVOO_clean_sbu_0, # of connection points: 4
#     Node 19, Type 0, BuildingBlock: AZAVOO_clean_sbu_0, # of connection points: 4
#     Node 20, Type 0, BuildingBlock: AZAVOO_clean_sbu_0, # of connection points: 4
#     Node 21, Type 0, BuildingBlock: AZAVOO_clean_sbu_0, # of connection points: 4
#     Node 22, Type 0, BuildingBlock: AZAVOO_clean_sbu_0, # of connection points: 4
#     Node 23, Type 0, BuildingBlock: AZAVOO_clean_sbu_0, # of connection points: 4
#     Node 24, Type 1, BuildingBlock: GEDQOX_clean_sbu_0, # of connection points: 6
#     Node 25, Type 1, BuildingBlock: GEDQOX_clean_sbu_0, # of connection points: 6
#     Node 26, Type 1, BuildingBlock: GEDQOX_clean_sbu_0, # of connection points: 6
#     Node 27, Type 1, BuildingBlock: GEDQOX_clean_sbu_0, # of connection points: 6
#     Node 28, Type 1, BuildingBlock: GEDQOX_clean_sbu_0, # of connection points: 6
#     Node 29, Type 1, BuildingBlock: GEDQOX_clean_sbu_0, # of connection points: 6
#     Node 30, Type 1, BuildingBlock: GEDQOX_clean_sbu_0, # of connection points: 6
#     Node 31, Type 1, BuildingBlock: GEDQOX_clean_sbu_0, # of connection points: 6
#     Node 32, Type 1, BuildingBlock: GEDQOX_clean_sbu_0, # of connection points: 6
#     Node 33, Type 1, BuildingBlock: GEDQOX_clean_sbu_0, # of connection points: 6
#     Node 34, Type 1, BuildingBlock: GEDQOX_clean_sbu_0, # of connection points: 6
#     Node 35, Type 1, BuildingBlock: GEDQOX_clean_sbu_0, # of connection points: 6
#     Node 36, Type 1, BuildingBlock: GEDQOX_clean_sbu_0, # of connection points: 6
#     Node 37, Type 1, BuildingBlock: GEDQOX_clean_sbu_0, # of connection points: 6
#     Node 38, Type 1, BuildingBlock: GEDQOX_clean_sbu_0, # of connection points: 6
#     Node 39, Type 1, BuildingBlock: GEDQOX_clean_sbu_0, # of connection points: 6
#     Edge 40, Type (0, 1), BuildingBlock: XUDNAN_clean_linker_2, # of connection points: 2
#     Edge 41, Type (0, 1), BuildingBlock: XUDNAN_clean_linker_2, # of connection points: 2
#     Edge 42, Type (0, 1), BuildingBlock: XUDNAN_clean_linker_2, # of connection points: 2
#     Edge 43, Type (0, 1), BuildingBlock: XUDNAN_clean_linker_2, # of connection points: 2
#     Edge 44, Type (0, 1), BuildingBlock: XUDNAN_clean_linker_2, # of connection points: 2
#     Edge 45, Type (0, 1), BuildingBlock: XUDNAN_clean_linker_2, # of connection points: 2
#     Edge 46, Type (0, 1), BuildingBlock: XUDNAN_clean_linker_2, # of connection points: 2
#     Edge 47, Type (0, 1), BuildingBlock: XUDNAN_clean_linker_2, # of connection points: 2
#     Edge 48, Type (0, 1), BuildingBlock: XUDNAN_clean_linker_2, # of connection points: 2
#     Edge 49, Type (0, 1), BuildingBlock: XUDNAN_clean_linker_2, # of connection points: 2
#     Edge 50, Type (0, 1), BuildingBlock: XUDNAN_clean_linker_2, # of connection points: 2
#     Edge 51, Type (0, 1), BuildingBlock: XUDNAN_clean_linker_2, # of connection points: 2
#     Edge 52, Type (0, 1), BuildingBlock: XUDNAN_clean_linker_2, # of connection points: 2
#     Edge 53, Type (0, 1), BuildingBlock: XUDNAN_clean_linker_2, # of connection points: 2
#     Edge 54, Type (0, 1), BuildingBlock: XUDNAN_clean_linker_2, # of connection points: 2
#     Edge 55, Type (0, 1), BuildingBlock: XUDNAN_clean_linker_2, # of connection points: 2
#     Edge 56, Type (0, 1), BuildingBlock: XUDNAN_clean_linker_2, # of connection points: 2
#     Edge 57, Type (0, 1), BuildingBlock: XUDNAN_clean_linker_2, # of connection points: 2
#     Edge 58, Type (0, 1), BuildingBlock: XUDNAN_clean_linker_2, # of connection points: 2
#     Edge 59, Type (0, 1), BuildingBlock: XUDNAN_clean_linker_2, # of connection points: 2
#     Edge 60, Type (0, 1), BuildingBlock: XUDNAN_clean_linker_2, # of connection points: 2
#     Edge 61, Type (0, 1), BuildingBlock: XUDNAN_clean_linker_2, # of connection points: 2
#     Edge 62, Type (0, 1), BuildingBlock: XUDNAN_clean_linker_2, # of connection points: 2
#     Edge 63, Type (0, 1), BuildingBlock: XUDNAN_clean_linker_2, # of connection points: 2
#     Edge 64, Type (0, 1), BuildingBlock: XUDNAN_clean_linker_2, # of connection points: 2
#     Edge 65, Type (0, 1), BuildingBlock: XUDNAN_clean_linker_2, # of connection points: 2
#     Edge 66, Type (0, 1), BuildingBlock: XUDNAN_clean_linker_2, # of connection points: 2
#     Edge 67, Type (0, 1), BuildingBlock: XUDNAN_clean_linker_2, # of connection points: 2
#     Edge 68, Type (0, 1), BuildingBlock: XUDNAN_clean_linker_2, # of connection points: 2
#     Edge 69, Type (0, 1), BuildingBlock: XUDNAN_clean_linker_2, # of connection points: 2
#     Edge 70, Type (0, 1), BuildingBlock: XUDNAN_clean_linker_2, # of connection points: 2
#     Edge 71, Type (0, 1), BuildingBlock: XUDNAN_clean_linker_2, # of connection points: 2
#     Edge 72, Type (0, 1), BuildingBlock: XUDNAN_clean_linker_2, # of connection points: 2
#     Edge 73, Type (0, 1), BuildingBlock: XUDNAN_clean_linker_2, # of connection points: 2
#     Edge 74, Type (0, 1), BuildingBlock: XUDNAN_clean_linker_2, # of connection points: 2
#     Edge 75, Type (0, 1), BuildingBlock: XUDNAN_clean_linker_2, # of connection points: 2
#     Edge 76, Type (0, 1), BuildingBlock: XUDNAN_clean_linker_2, # of connection points: 2
#     Edge 77, Type (0, 1), BuildingBlock: XUDNAN_clean_linker_2, # of connection points: 2
#     Edge 78, Type (0, 1), BuildingBlock: XUDNAN_clean_linker_2, # of connection points: 2
#     Edge 79, Type (0, 1), BuildingBlock: XUDNAN_clean_linker_2, # of connection points: 2
#     Edge 80, Type (0, 1), BuildingBlock: XUDNAN_clean_linker_2, # of connection points: 2
#     Edge 81, Type (0, 1), BuildingBlock: XUDNAN_clean_linker_2, # of connection points: 2
#     Edge 82, Type (0, 1), BuildingBlock: XUDNAN_clean_linker_2, # of connection points: 2
#     Edge 83, Type (0, 1), BuildingBlock: XUDNAN_clean_linker_2, # of connection points: 2
#     Edge 84, Type (0, 1), BuildingBlock: XUDNAN_clean_linker_2, # of connection points: 2
#     Edge 85, Type (0, 1), BuildingBlock: XUDNAN_clean_linker_2, # of connection points: 2
#     Edge 86, Type (0, 1), BuildingBlock: XUDNAN_clean_linker_2, # of connection points: 2
#     Edge 87, Type (0, 1), BuildingBlock: XUDNAN_clean_linker_2, # of connection points: 2
#     Edge 88, Type (0, 1), BuildingBlock: XUDNAN_clean_linker_2, # of connection points: 2
#     Edge 89, Type (0, 1), BuildingBlock: XUDNAN_clean_linker_2, # of connection points: 2
#     Edge 90, Type (0, 1), BuildingBlock: XUDNAN_clean_linker_2, # of connection points: 2
#     Edge 91, Type (0, 1), BuildingBlock: XUDNAN_clean_linker_2, # of connection points: 2
#     Edge 92, Type (0, 1), BuildingBlock: XUDNAN_clean_linker_2, # of connection points: 2
#     Edge 93, Type (0, 1), BuildingBlock: XUDNAN_clean_linker_2, # of connection points: 2
#     Edge 94, Type (0, 1), BuildingBlock: XUDNAN_clean_linker_2, # of connection points: 2
#     Edge 95, Type (0, 1), BuildingBlock: XUDNAN_clean_linker_2, # of connection points: 2
#     Edge 96, Type (0, 1), BuildingBlock: XUDNAN_clean_linker_2, # of connection points: 2
#     Edge 97, Type (0, 1), BuildingBlock: XUDNAN_clean_linker_2, # of connection points: 2
#     Edge 98, Type (0, 1), BuildingBlock: XUDNAN_clean_linker_2, # of connection points: 2
#     Edge 99, Type (0, 1), BuildingBlock: XUDNAN_clean_linker_2, # of connection points: 2
#     Edge 100, Type (0, 1), BuildingBlock: XUDNAN_clean_linker_2, # of connection points: 2
#     Edge 101, Type (0, 1), BuildingBlock: XUDNAN_clean_linker_2, # of connection points: 2
#     Edge 102, Type (0, 1), BuildingBlock: XUDNAN_clean_linker_2, # of connection points: 2
#     Edge 103, Type (0, 1), BuildingBlock: XUDNAN_clean_linker_2, # of connection points: 2
#     Edge 104, Type (0, 1), BuildingBlock: XUDNAN_clean_linker_2, # of connection points: 2
#     Edge 105, Type (0, 1), BuildingBlock: XUDNAN_clean_linker_2, # of connection points: 2
#     Edge 106, Type (0, 1), BuildingBlock: XUDNAN_clean_linker_2, # of connection points: 2
#     Edge 107, Type (0, 1), BuildingBlock: XUDNAN_clean_linker_2, # of connection points: 2
#     Edge 108, Type (0, 1), BuildingBlock: XUDNAN_clean_linker_2, # of connection points: 2
#     Edge 109, Type (0, 1), BuildingBlock: XUDNAN_clean_linker_2, # of connection points: 2
#     Edge 110, Type (0, 1), BuildingBlock: XUDNAN_clean_linker_2, # of connection points: 2
#     Edge 111, Type (0, 1), BuildingBlock: XUDNAN_clean_linker_2, # of connection points: 2
#     Edge 112, Type (0, 1), BuildingBlock: XUDNAN_clean_linker_2, # of connection points: 2
#     Edge 113, Type (0, 1), BuildingBlock: XUDNAN_clean_linker_2, # of connection points: 2
#     Edge 114, Type (0, 1), BuildingBlock: XUDNAN_clean_linker_2, # of connection points: 2
#     Edge 115, Type (0, 1), BuildingBlock: XUDNAN_clean_linker_2, # of connection points: 2
#     Edge 116, Type (0, 1), BuildingBlock: XUDNAN_clean_linker_2, # of connection points: 2
#     Edge 117, Type (0, 1), BuildingBlock: XUDNAN_clean_linker_2, # of connection points: 2
#     Edge 118, Type (0, 1), BuildingBlock: XUDNAN_clean_linker_2, # of connection points: 2
#     Edge 119, Type (0, 1), BuildingBlock: XUDNAN_clean_linker_2, # of connection points: 2
#     Edge 120, Type (0, 1), BuildingBlock: XUDNAN_clean_linker_2, # of connection points: 2
#     Edge 121, Type (0, 1), BuildingBlock: XUDNAN_clean_linker_2, # of connection points: 2
#     Edge 122, Type (0, 1), BuildingBlock: XUDNAN_clean_linker_2, # of connection points: 2
#     Edge 123, Type (0, 1), BuildingBlock: XUDNAN_clean_linker_2, # of connection points: 2
#     Edge 124, Type (0, 1), BuildingBlock: XUDNAN_clean_linker_2, # of connection points: 2
#     Edge 125, Type (0, 1), BuildingBlock: XUDNAN_clean_linker_2, # of connection points: 2
#     Edge 126, Type (0, 1), BuildingBlock: XUDNAN_clean_linker_2, # of connection points: 2
#     Edge 127, Type (0, 1), BuildingBlock: XUDNAN_clean_linker_2, # of connection points: 2
#     Edge 128, Type (0, 1), BuildingBlock: XUDNAN_clean_linker_2, # of connection points: 2
#     Edge 129, Type (0, 1), BuildingBlock: XUDNAN_clean_linker_2, # of connection points: 2
#     Edge 130, Type (0, 1), BuildingBlock: XUDNAN_clean_linker_2, # of connection points: 2
#     Edge 131, Type (0, 1), BuildingBlock: XUDNAN_clean_linker_2, # of connection points: 2
#     Edge 132, Type (0, 1), BuildingBlock: XUDNAN_clean_linker_2, # of connection points: 2
#     Edge 133, Type (0, 1), BuildingBlock: XUDNAN_clean_linker_2, # of connection points: 2
#     Edge 134, Type (0, 1), BuildingBlock: XUDNAN_clean_linker_2, # of connection points: 2
#     Edge 135, Type (0, 1), BuildingBlock: XUDNAN_clean_linker_2, # of connection points: 2
# Relax obj value: 0.293
# Max RMSD: 0.463
# Mean RMSD: 0.212
data_MOF--net-gar--node1-AZAVOO_clean_sbu_0--node2-GEDQOX_clean_sbu_0--edge1-XUDNAN_clean_linker_2
_symmetry_space_group_name_H-M    P1
_symmetry_Int_Tables_number       1
_symmetry_cell_setting            triclinic
loop_
_symmetry_equiv_pos_as_xyz
'x, y, z'
_cell_length_a     61.358499
_cell_length_b     57.91525
_cell_length_c     53.489141
_cell_angle_alpha  100.69145
_cell_angle_beta   97.45472
_cell_angle_gamma 101.23004
loop_
_atom_site_label
_atom_site_type_symbol
_atom_site_fract_x
_atom_site_fract_y
_atom_site_fract_z
_atom_type_partial_charge
Mg0 Mg 0.10897 0.37946 0.51263 0.0
O1 O 0.12532 0.40937 0.54832 0.0
O2 O 0.09875 0.40998 0.57316 0.0
Mg3 Mg 0.06608 0.38369 0.55426 0.0
C4 C 0.11878 0.4173 0.56933 0.0
C5 C 0.14299 0.38541 0.47642 0.0
O6 O 0.12785 0.39659 0.46792 0.0
O7 O 0.11298 0.35112 0.53573 0.0
O8 O 0.08517 0.35487 0.55847 0.0
O9 O 0.0942 0.40488 0.49277 0.0
O10 O 0.07657 0.38313 0.51685 0.0
C11 C 0.10117 0.34506 0.5524 0.0
C12 C 0.0761 0.39796 0.50184 0.0
O13 O 0.1418 0.3785 0.49755 0.0
Mg14 Mg 0.98344 0.77461 0.65096 0.0
O15 O 0.98165 0.7443 0.61802 0.0
O16 O 0.95126 0.73492 0.58797 0.0
Mg17 Mg 0.93635 0.76663 0.60365 0.0
C18 C 0.97 0.73116 0.59718 0.0
C19 C 0.02973 0.75777 0.66537 0.0
O20 O 1.0182 0.73611 0.66524 0.0
O21 O 0.99495 0.80149 0.62863 0.0
O22 O 0.96701 0.79326 0.59507 0.0
O23 O 0.96484 0.7488 0.66882 0.0
O24 O 0.94888 0.773 0.64754 0.0
C25 C 0.98673 0.80464 0.6069 0.0
C26 C 0.9503 0.76213 0.66686 0.0
O27 O 1.0196 0.7741 0.66124 0.0
Mg28 Mg 0.60535 0.87607 1.00052 0.0
O29 O 0.62608 0.90929 0.02973 0.0
O30 O 0.60262 0.91878 0.05632 0.0
Mg31 Mg 0.56739 0.89569 0.04259 0.0
C32 C 0.62212 0.92212 0.04995 0.0
C33 C 0.64339 0.88045 0.96884 0.0
O34 O 0.63903 0.90188 0.96976 0.0
O35 O 0.60634 0.85203 0.02935 0.0
O36 O 0.57986 0.86325 0.05101 0.0
O37 O 0.59284 0.89798 0.97454 0.0
O38 O 0.57435 0.88478 0.00344 0.0
C39 C 0.59349 0.84964 0.04612 0.0
C40 C 0.57417 0.89414 0.98345 0.0
O41 O 0.6359 0.86798 0.98441 0.0
Mg42 Mg 0.50068 0.28402 0.13685 0.0
O43 O 0.4908 0.24427 0.12956 0.0
O44 O 0.45811 0.2371 0.10221 0.0
Mg45 Mg 0.44396 0.27207 0.11338 0.0
C46 C 0.47461 0.22996 0.11332 0.0
C47 C 0.54514 0.2722 0.14999 0.0
O48 O 0.53058 0.25684 0.15824 0.0
O49 O 0.49368 0.27734 0.09373 0.0
O50 O 0.46787 0.29815 0.09532 0.0
O51 O 0.50075 0.28878 0.17807 0.0
O52 O 0.46916 0.28192 0.14994 0.0
C53 C 0.48574 0.29425 0.08736 0.0
C54 C 0.47911 0.28582 0.17368 0.0
O55 O 0.53772 0.28568 0.1364 0.0
Mg56 Mg 0.0475 0.81495 0.2595 0.0
O57 O 0.03929 0.77917 0.22825 0.0
O58 O 1.00823 0.78007 0.20192 0.0
Mg59 Mg 0.99296 0.81201 0.21747 0.0
C60 C 0.02457 0.77024 0.20775 0.0
C61 C 0.10488 0.8229 0.27205 0.0
O62 O 0.10535 0.84311 0.26412 0.0
O63 O 0.05725 0.83629 0.22746 0.0
O64 O 0.02283 0.83633 0.20705 0.0
O65 O 0.0231 0.79898 0.28577 0.0
O66 O 1.01187 0.8172 0.25638 0.0
C67 C 0.0443 0.84303 0.21065 0.0
C68 C 1.00679 0.80651 0.2744 0.0
O69 O 0.08552 0.80925 0.27188 0.0
Mg70 Mg 0.55682 0.82944 0.38565 0.0
O71 O 0.56154 0.86483 0.41679 0.0
O72 O 0.53175 0.8605 0.43707 0.0
Mg73 Mg 0.50707 0.82438 0.41977 0.0
C74 C 0.55051 0.87276 0.43402 0.0
C75 C 0.61148 0.8283 0.38359 0.0
O76 O 0.60738 0.81061 0.39575 0.0
O77 O 0.56531 0.80815 0.4175 0.0
O78 O 0.53326 0.80469 0.43383 0.0
O79 O 0.5337 0.84429 0.35736 0.0
O80 O 0.52043 0.82291 0.38371 0.0
C81 C 0.55275 0.8003 0.43291 0.0
C82 C 0.51637 0.83466 0.36631 0.0
O83 O 0.59555 0.83909 0.37817 0.0
Mg84 Mg 0.54517 0.31563 0.7543 0.0
O85 O 0.53796 0.27888 0.72434 0.0
O86 O 0.50598 0.27722 0.69805 0.0
Mg87 Mg 0.48974 0.30856 0.71188 0.0
C88 C 0.52304 0.26859 0.70428 0.0
C89 C 0.60235 0.32744 0.76973 0.0
O90 O 0.60169 0.34856 0.76438 0.0
O91 O 0.55355 0.33647 0.72162 0.0
O92 O 0.51888 0.33255 0.69948 0.0
O93 O 0.52292 0.30098 0.78257 0.0
O94 O 0.50908 0.31533 0.75094 0.0
C95 C 0.54021 0.34084 0.70332 0.0
C96 C 0.50548 0.30619 0.77048 0.0
O97 O 0.58359 0.31198 0.7672 0.0
Mg98 Mg 0.05682 0.33059 0.88581 0.0
O99 O 0.05894 0.3664 0.91558 0.0
O100 O 0.02964 0.35945 0.93638 0.0
Mg101 Mg 1.00746 0.3215 0.92014 0.0
C102 C 0.04739 0.37326 0.9328 0.0
C103 C 0.11033 0.32899 0.88078 0.0
O104 O 0.10507 0.30975 0.89038 0.0
O105 O 0.06788 0.31283 0.91978 0.0
O106 O 0.03599 0.30546 0.9361 0.0
O107 O 0.03128 0.34137 0.8557 0.0
O108 O 0.02083 0.32139 0.88436 0.0
C109 C 0.05633 0.30375 0.93541 0.0
C110 C 1.01498 0.33128 0.8659 0.0
O111 O 0.09531 0.34149 0.87769 0.0
Mg112 Mg 0.48313 0.15228 0.33089 0.0
O113 O 0.45577 0.11994 0.33496 0.0
O114 O 0.44679 0.13344 0.37345 0.0
Mg115 Mg 0.46573 0.17146 0.39288 0.0
C116 C 0.44457 0.11696 0.35317 0.0
C117 C 0.50075 0.14232 0.27922 0.0
O118 O 0.51731 0.15924 0.29385 0.0
O119 O 0.45497 0.17248 0.32051 0.0
O120 O 0.44711 0.18471 0.35967 0.0
O121 O 0.50975 0.13716 0.35092 0.0
O122 O 0.4922 0.16198 0.372 0.0
C123 C 0.44399 0.18388 0.33538 0.0
C124 C 0.5058 0.14757 0.37286 0.0
O125 O 0.48291 0.13575 0.28834 0.0
Mg126 Mg 0.2697 0.12706 0.46749 0.0
O127 O 0.28377 0.15873 0.50184 0.0
O128 O 0.31835 0.17692 0.49713 0.0
Mg129 Mg 0.32887 0.15253 0.4644 0.0
C130 C 0.30144 0.17577 0.50879 0.0
C131 C 0.21902 0.10745 0.47358 0.0
O132 O 0.22071 0.08774 0.45799 0.0
O133 O 0.26745 0.15585 0.44314 0.0
O134 O 0.30395 0.16738 0.44093 0.0
O135 O 0.28167 0.10232 0.49101 0.0
O136 O 0.30272 0.12237 0.46814 0.0
C137 C 0.28348 0.16872 0.43528 0.0
C138 C 0.30137 0.10968 0.48552 0.0
O139 O 0.23484 0.12628 0.47799 0.0
Mg140 Mg 0.1848 0.05082 0.83869 0.0
O141 O 0.20937 0.089 0.83785 0.0
O142 O 0.23229 0.10184 0.87528 0.0
Mg143 Mg 0.22335 0.0691 0.89634 0.0
C144 C 0.22499 0.10547 0.8532 0.0
C145 C 0.15836 0.03603 0.7759 0.0
O146 O 0.15452 0.01293 0.77595 0.0
O147 O 0.21045 0.02336 0.83024 0.0
O148 O 0.23172 0.03543 0.86912 0.0
O149 O 0.16134 0.07087 0.85989 0.0
O150 O 0.1854 0.05569 0.88173 0.0
C151 C 0.22633 0.02052 0.84705 0.0
C152 C 0.16883 0.06653 0.88177 0.0
O153 O 0.16994 0.05134 0.79587 0.0
Mg154 Mg 0.24269 0.92352 0.08428 0.0
O155 O 0.24284 0.89885 0.04288 0.0
O156 O 0.27646 0.88896 0.04811 0.0
Mg157 Mg 0.29817 0.90666 0.08744 0.0
C158 C 0.25761 0.88785 0.03411 0.0
C159 C 0.19991 0.94432 0.06889 0.0
O160 O 0.21416 0.95409 0.05545 0.0
O161 O 0.23898 0.89161 0.10605 0.0
O162 O 0.27429 0.88596 0.10902 0.0
O163 O 0.25888 0.95705 0.07245 0.0
O164 O 0.27793 0.9337 0.08942 0.0
C165 C 0.25446 0.88141 0.11435 0.0
C166 C 0.27812 0.95262 0.08017 0.0
O167 O 0.20492 0.9277 0.07989 0.0
Mg168 Mg 0.34625 0.52125 0.17141 0.0
O169 O 0.34401 0.4923 0.13572 0.0
O170 O 0.3728 0.47409 0.14159 0.0
Mg171 Mg 0.39452 0.49298 0.18039 0.0
C172 C 0.35475 0.47625 0.12833 0.0
C173 C 0.3092 0.54518 0.15629 0.0
O174 O 0.32642 0.56275 0.16828 0.0
O175 O 0.33331 0.49051 0.19039 0.0
O176 O 0.36387 0.47491 0.1955 0.0
O177 O 0.36686 0.54838 0.15455 0.0
O178 O 0.38137 0.52518 0.17734 0.0
C179 C 0.34335 0.47487 0.19739 0.0
C180 C 0.38415 0.54038 0.16253 0.0
O181 O 0.31064 0.52366 0.15638 0.0
Mg182 Mg 0.88508 0.22766 0.06891 0.0
O183 O 0.87059 0.24149 0.10547 0.0
O184 O 0.89128 0.2748 0.10137 0.0
Mg185 Mg 0.89904 0.24444 0.07036 0.0
C186 C 0.8777 0.26407 0.11385 0.0
C187 C 0.83783 0.18997 0.04408 0.0
O188 O 0.8357 0.20368 0.02736 0.0
O189 O 0.86281 0.2465 0.0424 0.0
O190 O 0.89544 0.26586 0.03849 0.0
O191 O 0.90813 0.2033 0.08078 0.0
O192 O 0.90534 0.21122 0.04217 0.0
C193 C 0.87431 0.26106 0.03142 0.0
C194 C 0.91261 0.19868 0.05765 0.0
O195 O 0.85594 0.19441 0.06045 0.0
Mg196 Mg 0.13878 0.4894 0.31874 0.0
O197 O 0.16345 0.52662 0.33034 0.0
O198 O 0.17768 0.53293 0.37243 0.0
Mg199 Mg 0.16428 0.49955 0.38764 0.0
C200 C 0.17602 0.53974 0.35101 0.0
C201 C 0.12571 0.51113 0.27099 0.0
O202 O 0.12476 0.52782 0.29088 0.0
O203 O 0.17014 0.47176 0.31808 0.0
O204 O 0.18291 0.47792 0.36053 0.0
O205 O 0.11107 0.50565 0.33309 0.0
O206 O 0.13438 0.49135 0.3577 0.0
C207 C 0.18415 0.46938 0.33707 0.0
C208 C 0.11826 0.50249 0.35569 0.0
O209 O 0.13272 0.49258 0.27532 0.0
Mg210 Mg 0.85145 0.02109 0.67722 0.0
O211 O 0.85275 0.99394 0.64126 0.0
O212 O 0.8851 0.98143 0.6459 0.0
Mg213 Mg 0.90391 1.0 0.6863 0.0
C214 C 0.86596 0.981 0.63292 0.0
C215 C 0.80883 0.03648 0.65617 0.0
O216 O 0.82355 0.05725 0.66357 0.0
O217 O 0.84174 0.98838 0.69531 0.0
O218 O 0.87424 0.97641 0.69711 0.0
O219 O 0.86929 0.05073 0.66089 0.0
O220 O 0.88699 0.02998 0.684 0.0
C221 C 0.85359 0.97325 0.69958 0.0
C222 C 0.88793 0.04511 0.66897 0.0
O223 O 0.81465 0.01767 0.66091 0.0
Mg224 Mg 0.92579 0.09253 0.30671 0.0
O225 O 0.89975 0.0529 0.30191 0.0
O226 O 0.88434 0.0567 0.33775 0.0
Mg227 Mg 0.89618 0.09572 0.36306 0.0
C228 C 0.88725 0.04356 0.31695 0.0
C229 C 0.95305 0.07892 0.25689 0.0
O230 O 0.96303 0.06792 0.27283 0.0
O231 O 0.90048 0.12023 0.30222 0.0
O232 O 0.88417 0.12151 0.3373 0.0
O233 O 0.95313 0.08002 0.33184 0.0
O234 O 0.92811 0.09752 0.34774 0.0
C235 C 0.88742 0.12912 0.31677 0.0
C236 C 0.94503 0.08796 0.35198 0.0
O237 O 0.93678 0.08842 0.26379 0.0
Mg238 Mg 0.37718 0.71485 0.55748 0.0
O239 O 0.37138 0.73599 0.59695 0.0
O240 O 0.3998 0.76711 0.6135 0.0
Mg241 Mg 0.4222 0.76396 0.58126 0.0
C242 C 0.38083 0.75432 0.61497 0.0
C243 C 0.33124 0.67955 0.5341 0.0
O244 O 0.34216 0.67286 0.51547 0.0
O245 O 0.36762 0.74231 0.535 0.0
O246 O 0.39674 0.77371 0.54956 0.0
O247 O 0.39537 0.69133 0.57616 0.0
O248 O 0.41341 0.72304 0.56359 0.0
C249 C 0.37792 0.76352 0.53455 0.0
C250 C 0.41412 0.7034 0.57198 0.0
O251 O 0.34105 0.69645 0.55316 0.0
Mg252 Mg 0.42487 0.59067 0.80681 0.0
O253 O 0.39876 0.55091 0.80196 0.0
O254 O 0.38462 0.5545 0.83859 0.0
Mg255 Mg 0.39731 0.5938 0.86386 0.0
C256 C 0.3868 0.54139 0.81738 0.0
C257 C 0.4532 0.5792 0.75828 0.0
O258 O 0.46453 0.57095 0.77586 0.0
O259 O 0.39843 0.61666 0.80118 0.0
O260 O 0.38474 0.61966 0.83802 0.0
O261 O 0.4515 0.57601 0.82874 0.0
O262 O 0.42942 0.5956 0.84865 0.0
C263 C 0.38658 0.62645 0.81671 0.0
C264 C 0.4453 0.58405 0.85022 0.0
O265 O 0.4354 0.58654 0.76364 0.0
Mg266 Mg 0.63779 0.98717 0.81663 0.0
O267 O 0.66197 0.02381 0.8244 0.0
O268 O 0.67602 0.03857 0.86623 0.0
Mg269 Mg 0.66057 0.00991 0.88712 0.0
C270 C 0.67463 0.04013 0.84262 0.0
C271 C 0.62593 1.00585 0.76724 0.0
O272 O 0.62491 0.0227 0.78693 0.0
O273 O 0.66997 0.97002 0.82242 0.0
O274 O 0.67867 0.98413 0.86522 0.0
O275 O 0.60789 1.00264 0.82631 0.0
O276 O 0.63231 0.99469 0.85541 0.0
C277 C 0.68203 0.97134 0.84453 0.0
C278 C 0.61478 1.00295 0.85019 0.0
O279 O 0.6327 0.98725 0.77204 0.0
Mg280 Mg 0.77276 0.63362 0.97256 0.0
O281 O 0.78842 0.6603 0.01085 0.0
O282 O 0.82608 0.66769 0.01325 0.0
Mg283 Mg 0.83449 0.64885 0.97581 0.0
C284 C 0.80845 0.67026 0.02274 0.0
C285 C 0.72208 0.61717 0.97569 0.0
O286 O 0.72474 0.59791 0.96013 0.0
O287 O 0.7774 0.66607 0.95205 0.0
O288 O 0.81466 0.67097 0.95564 0.0
O289 O 0.77738 0.60376 0.99243 0.0
O290 O 0.80375 0.62209 0.9741 0.0
C291 C 0.79645 0.67694 0.94801 0.0
C292 C 0.7982 0.60805 0.98945 0.0
O293 O 0.73776 0.63625 0.98111 0.0
Mg294 Mg 0.98507 0.65871 0.83335 0.0
O295 O 0.96104 0.62163 0.82756 0.0
O296 O 0.93971 0.6241 0.85846 0.0
Mg297 Mg 0.95183 0.66119 0.88581 0.0
C298 C 0.94513 0.61248 0.83838 0.0
C299 C 1.01225 0.64293 0.79093 0.0
O300 O 0.02633 0.64682 0.81275 0.0
O301 O 0.95538 0.67562 0.81866 0.0
O302 O 0.93899 0.67916 0.85367 0.0
O303 O 1.01074 0.64605 0.85915 0.0
O304 O 0.98528 0.66377 0.87424 0.0
C305 C 0.94059 0.68286 0.83109 0.0
C306 C 1.00122 0.65269 0.87856 0.0
O307 O 0.99277 0.64729 0.79185 0.0
Mg308 Mg 0.7401 0.42105 0.58959 0.0
O309 O 0.74365 0.39592 0.54893 0.0
O310 O 0.77749 0.38623 0.55537 0.0
Mg311 Mg 0.78882 0.39343 0.59852 0.0
C312 C 0.75968 0.38677 0.54035 0.0
C313 C 0.69846 0.4439 0.59406 0.0
O314 O 0.70988 0.44969 0.61772 0.0
O315 O 0.72901 0.39142 0.61283 0.0
O316 O 0.75289 0.37355 0.59584 0.0
O317 O 0.76158 0.45034 0.57744 0.0
O318 O 0.77549 0.42671 0.60048 0.0
C319 C 0.7419 0.37672 0.61411 0.0
C320 C 0.7788 0.44347 0.58767 0.0
O321 O 0.70486 0.42921 0.57704 0.0
Mg322 Mg 0.68641 0.55387 0.3375 0.0
O323 O 0.71044 0.59264 0.3372 0.0
O324 O 0.73328 0.60506 0.37477 0.0
Mg325 Mg 0.72424 0.57278 0.39631 0.0
C326 C 0.72604 0.60896 0.3528 0.0
C327 C 0.65123 0.54686 0.28597 0.0
O328 O 0.63816 0.54166 0.30268 0.0
O329 O 0.71282 0.52679 0.33088 0.0
O330 O 0.73319 0.53899 0.37025 0.0
O331 O 0.66119 0.57174 0.35875 0.0
O332 O 0.68678 0.55842 0.38018 0.0
C333 C 0.72823 0.52396 0.34829 0.0
C334 C 0.66936 0.56787 0.38066 0.0
O335 O 0.67263 0.55164 0.29331 0.0
Nd336 Nd 0.06855 0.09154 0.07133 0.0
Nd337 Nd 0.04153 0.04756 0.05712 0.0
C338 C 0.0921 0.13655 0.08793 0.0
C339 C 0.09168 0.15812 0.07648 0.0
C340 C 0.07604 0.17254 0.08171 0.0
C341 C 0.07451 0.1916 0.06923 0.0
C342 C 0.08883 0.1969 0.0516 0.0
C343 C 0.10463 0.1828 0.04666 0.0
C344 C 0.106 0.16362 0.05886 0.0
C345 C 0.06914 0.07546 0.01883 0.0
C346 C 1.01774 0.08914 0.04567 0.0
C347 C 0.02589 1.00006 0.04379 0.0
C348 C 0.03117 0.98057 0.05674 0.0
C349 C 0.05284 0.97553 0.05936 0.0
C350 C 0.05811 0.95886 0.0739 0.0
C351 C 0.04194 0.94697 0.08639 0.0
C352 C 0.02016 0.95157 0.08321 0.0
C353 C 1.01484 0.96804 0.06852 0.0
C354 C 0.0306 0.07076 0.10274 0.0
C355 C 0.09061 0.04871 0.08674 0.0
O356 O 0.07417 0.1279 0.09691 0.0
O357 O 0.10008 0.11946 0.07531 0.0
O358 O 0.06295 0.09477 0.02882 0.0
O359 O 0.07024 0.06284 0.03593 0.0
O360 O 0.03396 0.10109 0.06472 0.0
O361 O 1.0188 0.06723 0.03406 0.0
O362 O 0.04166 0.01153 0.03351 0.0
O363 O 1.01525 0.01471 0.05601 0.0
O364 O 1.01622 0.05872 0.08246 0.0
O365 O 0.05081 0.07115 0.09872 0.0
O366 O 0.06947 0.03729 0.08249 0.0
O367 O 0.09576 0.0708 0.08297 0.0
H368 H 0.06474 0.16889 0.09518 0.0
H369 H 0.06227 0.20231 0.07347 0.0
H370 H 0.11572 0.18639 0.03296 0.0
H371 H 0.11811 0.15287 0.05416 0.0
H372 H 0.06596 0.98492 0.05077 0.0
H373 H 0.07509 0.95591 0.07607 0.0
H374 H 1.00719 0.94251 0.09223 0.0
H375 H 0.99802 0.97144 0.06689 0.0
Nd376 Nd 0.31273 0.84393 0.33277 0.0
Nd377 Nd 0.30371 0.79506 0.31407 0.0
C378 C 0.31777 0.89055 0.35108 0.0
C379 C 0.32647 0.91194 0.34098 0.0
C380 C 0.31448 0.93021 0.34148 0.0
C381 C 0.3241 0.95208 0.33571 0.0
C382 C 0.34592 0.95602 0.32956 0.0
C383 C 0.35688 0.93685 0.32632 0.0
C384 C 0.34717 0.91488 0.33191 0.0
C385 C 0.35232 0.83104 0.32058 0.0
C386 C 0.30035 0.82812 0.27151 0.0
C387 C 0.29891 0.7488 0.29274 0.0
C388 C 0.29056 0.72624 0.30091 0.0
C389 C 0.29679 0.72399 0.32641 0.0
C390 C 0.28632 0.70389 0.33486 0.0
C391 C 0.26923 0.6858 0.3181 0.0
C392 C 0.26372 0.68766 0.29229 0.0
C393 C 0.27431 0.7077 0.2838 0.0
C394 C 0.26412 0.80874 0.32534 0.0
C395 C 0.31564 0.81079 0.37572 0.0
O396 O 0.29859 0.87674 0.33869 0.0
O397 O 0.33236 0.87833 0.35808 0.0
O398 O 0.34387 0.84784 0.31283 0.0
O399 O 0.33832 0.8197 0.33205 0.0
O400 O 0.29983 0.84505 0.29124 0.0
O401 O 0.30568 0.80801 0.27566 0.0
O402 O 0.31799 0.76257 0.30559 0.0
O403 O 0.28379 0.76107 0.28795 0.0
O404 O 0.27169 0.79133 0.33297 0.0
O405 O 0.27847 0.81965 0.31404 0.0
O406 O 0.31585 0.79359 0.35599 0.0
O407 O 0.31072 0.83109 0.37139 0.0
H408 H 0.2983 0.92814 0.34787 0.0
H409 H 0.31545 0.96675 0.3385 0.0
H410 H 0.37383 0.93959 0.32192 0.0
H411 H 0.35651 0.90078 0.33065 0.0
H412 H 0.30919 0.73811 0.34008 0.0
H413 H 0.29125 0.70282 0.35473 0.0
H414 H 0.25048 0.67421 0.27895 0.0
H415 H 0.26914 0.7092 0.26412 0.0
Nd416 Nd 0.5842 0.08885 0.57117 0.0
Nd417 Nd 0.53138 0.06567 0.57432 0.0
C418 C 0.62161 0.10111 0.55342 0.0
C419 C 0.63934 0.08746 0.55225 0.0
C420 C 0.66 0.09682 0.54549 0.0
C421 C 0.67749 0.08462 0.54758 0.0
C422 C 0.6745 0.06302 0.55659 0.0
C423 C 0.65322 0.05296 0.56161 0.0
C424 C 0.63582 0.06511 0.55949 0.0
C425 C 0.58148 0.06362 0.61088 0.0
C426 C 0.55991 0.03216 0.54237 0.0
C427 C 0.49314 0.05044 0.58972 0.0
C428 C 0.4724 0.05957 0.58701 0.0
C429 C 0.4554 0.05378 0.60149 0.0
C430 C 0.43585 0.0629 0.59837 0.0
C431 C 0.43346 0.07809 0.58103 0.0
C432 C 0.45064 0.08408 0.56697 0.0
C433 C 0.46989 0.07495 0.56997 0.0
C434 C 0.53465 0.08957 0.53354 0.0
C435 C 0.55515 0.12338 0.60054 0.0
O436 O 0.60246 0.09004 0.53828 0.0
O437 O 0.61911 0.11064 0.57686 0.0
O438 O 0.60021 0.07548 0.60635 0.0
O439 O 0.56559 0.06642 0.59511 0.0
O440 O 0.57526 0.05194 0.5434 0.0
O441 O 0.54298 0.03186 0.55555 0.0
O442 O 0.51052 0.06542 0.6052 0.0
O443 O 0.49829 0.04007 0.56796 0.0
O444 O 0.51571 0.07855 0.53837 0.0
O445 O 0.55007 0.0871 0.55005 0.0
O446 O 0.5395 0.10398 0.60047 0.0
O447 O 0.57244 0.12279 0.58811 0.0
H448 H 0.66286 0.11391 0.53958 0.0
H449 H 0.6937 0.09262 0.54333 0.0
H450 H 0.65044 0.03656 0.56889 0.0
H451 H 0.61988 0.05754 0.56466 0.0
H452 H 0.4572 0.04223 0.61504 0.0
H453 H 0.4227 0.05819 0.60942 0.0
H454 H 0.44899 0.09558 0.5533 0.0
H455 H 0.48281 0.07993 0.55887 0.0
Nd456 Nd 0.31572 0.3262 0.84824 0.0
Nd457 Nd 0.29881 0.31331 0.80104 0.0
C458 C 0.32356 0.33387 0.89911 0.0
C459 C 0.31484 0.34724 0.92028 0.0
C460 C 0.29665 0.33559 0.93022 0.0
C461 C 0.28981 0.34752 0.9519 0.0
C462 C 0.30114 0.3712 0.96404 0.0
C463 C 0.31836 0.38333 0.95312 0.0
C464 C 0.32521 0.37142 0.93149 0.0
C465 C 0.32676 0.36753 0.82715 0.0
C466 C 0.26348 0.3307 0.83402 0.0
C467 C 0.28838 0.30428 0.75015 0.0
C468 C 0.29541 0.29098 0.72766 0.0
C469 C 0.31725 0.29772 0.72213 0.0
C470 C 0.32279 0.28625 0.6993 0.0
C471 C 0.30665 0.26783 0.68188 0.0
C472 C 0.28521 0.26035 0.68808 0.0
C473 C 0.27962 0.27192 0.71075 0.0
C474 C 0.28733 0.2729 0.82393 0.0
C475 C 0.35196 0.31038 0.81567 0.0
O476 O 0.30961 0.31489 0.88443 0.0
O477 O 0.33578 0.34652 0.88607 0.0
O478 O 0.34048 0.36001 0.84255 0.0
O479 O 0.30743 0.35291 0.82252 0.0
O480 O 0.27804 0.32636 0.85187 0.0
O481 O 0.2693 0.3307 0.81129 0.0
O482 O 0.30271 0.32351 0.76383 0.0
O483 O 0.27776 0.29146 0.76428 0.0
O484 O 0.27344 0.28153 0.80995 0.0
O485 O 0.30697 0.28652 0.8264 0.0
O486 O 0.33668 0.31269 0.79709 0.0
O487 O 0.3464 0.31138 0.83863 0.0
H488 H 0.28825 0.31697 0.92187 0.0
H489 H 0.27649 0.33784 0.95999 0.0
H490 H 0.32768 0.40146 0.96237 0.0
H491 H 0.33925 0.38088 0.92424 0.0
H492 H 0.32986 0.31222 0.73502 0.0
H493 H 0.33949 0.29212 0.69498 0.0
H494 H 0.27239 0.24635 0.6748 0.0
H495 H 0.26272 0.26645 0.7147 0.0
Nd496 Nd 0.052 0.09889 0.58249 0.0
Nd497 Nd 0.05468 0.04536 0.55533 0.0
C498 C 0.03714 0.13788 0.59631 0.0
C499 C 0.02827 0.15342 0.5809 0.0
C500 C 1.01118 0.1646 0.58834 0.0
C501 C 1.00653 0.18358 0.57744 0.0
C502 C 0.0198 0.19209 0.56005 0.0
C503 C 0.03374 0.17779 0.5492 0.0
C504 C 0.03799 0.15854 0.55965 0.0
C505 C 0.09185 0.09407 0.56702 0.0
C506 C 0.03042 0.07696 0.51958 0.0
C507 C 0.07154 0.00854 0.53749 0.0
C508 C 0.07306 0.98659 0.54676 0.0
C509 C 0.08655 0.97154 0.53664 0.0
C510 C 0.08632 0.94958 0.54403 0.0
C511 C 0.07262 0.94253 0.56166 0.0
C512 C 0.06023 0.95846 0.57292 0.0
C513 C 0.06048 0.98032 0.56555 0.0
C514 C 1.01688 0.04605 0.5785 0.0
C515 C 0.07199 0.06672 0.61924 0.0
O516 O 0.02449 0.1163 0.59333 0.0
O517 O 0.05865 0.13818 0.59713 0.0
O518 O 0.0903 0.10923 0.58761 0.0
O519 O 0.07257 0.08312 0.5543 0.0
O520 O 0.0336 0.0941 0.54081 0.0
O521 O 0.03836 0.05712 0.51928 0.0
O522 O 0.08392 0.02854 0.55254 0.0
O523 O 0.05101 0.01024 0.52878 0.0
O524 O 0.0207 0.02591 0.56657 0.0
O525 O 0.03287 0.0625 0.57762 0.0
O526 O 0.07353 0.05146 0.59791 0.0
O527 O 0.06127 0.08441 0.6184 0.0
H528 H 1.00279 0.16002 0.60395 0.0
H529 H 0.99492 0.19366 0.58529 0.0
H530 H 0.0439 0.18331 0.53532 0.0
H531 H 0.05048 0.14922 0.55277 0.0
H532 H 0.09665 0.97641 0.52244 0.0
H533 H 0.09614 0.93769 0.53524 0.0
H534 H 0.04923 0.95341 0.58625 0.0
H535 H 0.05017 0.99194 0.57378 0.0
Nd536 Nd 0.32533 0.83466 0.83079 0.0
Nd537 Nd 0.28683 0.80898 0.804 0.0
C538 C 0.36498 0.86309 0.85092 0.0
C539 C 0.38753 0.85831 0.85657 0.0
C540 C 0.40308 0.862 0.83981 0.0
C541 C 0.42473 0.85824 0.84587 0.0
C542 C 0.43082 0.8505 0.86853 0.0
C543 C 0.4151 0.84579 0.88468 0.0
C544 C 0.39365 0.8498 0.87886 0.0
C545 C 0.29512 0.82608 0.86438 0.0
C546 C 0.3247 0.77782 0.82054 0.0
C547 C 0.24744 0.77936 0.78512 0.0
C548 C 0.22542 0.78342 0.77538 0.0
C549 C 0.20728 0.77811 0.78841 0.0
C550 C 0.18627 0.78185 0.77902 0.0
C551 C 0.18334 0.791 0.75661 0.0
C552 C 0.20163 0.797 0.74409 0.0
C553 C 0.2225 0.79322 0.75335 0.0
C554 C 0.31515 0.81792 0.76887 0.0
C555 C 0.28823 0.86702 0.81512 0.0
O556 O 0.35616 0.86001 0.8266 0.0
O557 O 0.35052 0.85469 0.86467 0.0
O558 O 0.31499 0.82126 0.86694 0.0
O559 O 0.29122 0.8327 0.84343 0.0
O560 O 0.33845 0.79919 0.82491 0.0
O561 O 0.30281 0.77715 0.81553 0.0
O562 O 0.25472 0.78704 0.8099 0.0
O563 O 0.26312 0.78408 0.77136 0.0
O564 O 0.29543 0.82308 0.76838 0.0
O565 O 0.32067 0.81154 0.78987 0.0
O566 O 0.27413 0.84555 0.80766 0.0
O567 O 0.30983 0.86717 0.82198 0.0
H568 H 0.39872 0.86841 0.82245 0.0
H569 H 0.43699 0.86233 0.83354 0.0
H570 H 0.41986 0.84038 0.90259 0.0
H571 H 0.38211 0.84679 0.89224 0.0
H572 H 0.2093 0.77082 0.8056 0.0
H573 H 0.17223 0.77712 0.78885 0.0
H574 H 0.19955 0.80365 0.72648 0.0
H575 H 0.23621 0.79767 0.74295 0.0
Nd576 Nd 0.53129 0.0667 0.05109 0.0
Nd577 Nd 0.58258 0.08136 0.0755 0.0
C578 C 0.48762 0.06229 0.03831 0.0
C579 C 0.46762 0.05409 0.04964 0.0
C580 C 0.4628 0.06818 0.07176 0.0
C581 C 0.44346 0.06016 0.08175 0.0
C582 C 0.42876 0.0379 0.06991 0.0
C583 C 0.43396 0.02356 0.0483 0.0
C584 C 0.45312 0.03165 0.03818 0.0
C585 C 0.552 0.03011 0.0595 0.0
C586 C 0.54581 0.08052 0.11461 0.0
C587 C 0.62553 0.08124 0.08838 0.0
C588 C 0.64713 0.08952 0.08011 0.0
C589 C 0.66044 0.07294 0.07366 0.0
C590 C 0.68176 0.08068 0.0677 0.0
C591 C 0.69017 0.10517 0.06818 0.0
C592 C 0.67639 0.12158 0.07346 0.0
C593 C 0.65503 0.11382 0.07939 0.0
C594 C 0.56368 0.11935 0.06885 0.0
C595 C 0.56576 0.06628 0.01145 0.0
O596 O 0.50139 0.0828 0.05028 0.0
O597 O 0.49808 0.0456 0.02963 0.0
O598 O 0.53695 0.02816 0.03934 0.0
O599 O 0.55448 0.05022 0.07436 0.0
O600 O 0.53006 0.07738 0.0942 0.0
O601 O 0.56711 0.08019 0.11269 0.0
O602 O 0.61111 0.0633 0.07241 0.0
O603 O 0.61603 0.09778 0.09963 0.0
O604 O 0.58199 0.12134 0.08508 0.0
O605 O 0.5591 0.09888 0.05381 0.0
O606 O 0.58199 0.06858 0.03135 0.0
O607 O 0.54551 0.0695 0.0145 0.0
H608 H 0.47376 0.0855 0.08116 0.0
H609 H 0.4398 0.07149 0.09848 0.0
H610 H 0.42271 1.00651 0.03854 0.0
H611 H 0.45642 0.02045 0.02112 0.0
H612 H 0.65456 0.05406 0.07381 0.0
H613 H 0.6919 0.06758 0.06325 0.0
H614 H 0.68248 0.14057 0.07408 0.0
H615 H 0.64498 0.12696 0.08403 0.0
Nd616 Nd 0.29631 0.31337 0.30707 0.0
Nd617 Nd 0.33449 0.34235 0.34545 0.0
C618 C 0.2554 0.30057 0.27988 0.0
C619 C 0.23576 0.30715 0.29088 0.0
C620 C 0.23506 0.33159 0.29896 0.0
C621 C 0.22205 0.33852 0.31751 0.0
C622 C 0.20932 0.32113 0.32815 0.0
C623 C 0.20783 0.29659 0.31774 0.0
C624 C 0.22088 0.28967 0.29928 0.0
C625 C 0.29734 0.30186 0.35444 0.0
C626 C 0.2948 0.36829 0.33596 0.0
C627 C 0.37328 0.35566 0.37658 0.0
C628 C 0.39425 0.3539 0.36596 0.0
C629 C 0.40449 0.33475 0.36905 0.0
C630 C 0.41799 0.32683 0.35163 0.0
C631 C 0.42154 0.33775 0.33062 0.0
C632 C 0.41374 0.35891 0.32967 0.0
C633 C 0.40023 0.36686 0.34708 0.0
C634 C 0.33451 0.35709 0.30012 0.0
C635 C 0.33823 0.28973 0.31018 0.0
O636 O 0.2706 0.31824 0.27615 0.0
O637 O 0.26466 0.28553 0.29064 0.0
O638 O 0.2939 0.28644 0.33282 0.0
O639 O 0.30084 0.3233 0.3515 0.0
O640 O 0.28948 0.351 0.31511 0.0
O641 O 0.3101 0.36734 0.35535 0.0
O642 O 0.35949 0.33498 0.37528 0.0
O643 O 0.36262 0.37142 0.36938 0.0
O644 O 0.34282 0.37035 0.32273 0.0
O645 O 0.32905 0.33495 0.30097 0.0
O646 O 0.34388 0.3058 0.33226 0.0
O647 O 0.32105 0.29056 0.29287 0.0
H648 H 0.24599 0.34561 0.29266 0.0
H649 H 0.22349 0.35757 0.32506 0.0
H650 H 0.19778 0.28276 0.32524 0.0
H651 H 0.22083 0.27073 0.29336 0.0
H652 H 0.40037 0.32446 0.38345 0.0
H653 H 0.42421 0.31105 0.35368 0.0
H654 H 0.41703 0.36871 0.31469 0.0
H655 H 0.39299 0.382 0.34424 0.0
Nd656 Nd 0.55303 0.59524 0.07887 0.0
Nd657 Nd 0.5554 0.54165 0.05539 0.0
C658 C 0.54122 0.63645 0.09109 0.0
C659 C 0.53248 0.65207 0.07557 0.0
C660 C 0.51357 0.66091 0.08107 0.0
C661 C 0.508 0.67948 0.07005 0.0
C662 C 0.52187 0.68993 0.05424 0.0
C663 C 0.53859 0.67839 0.04573 0.0
C664 C 0.5438 0.65955 0.05629 0.0
C665 C 0.59328 0.58934 0.06524 0.0
C666 C 0.53101 0.56992 0.01628 0.0
C667 C 0.5723 0.5043 0.04053 0.0
C668 C 0.57339 0.48355 0.05224 0.0
C669 C 0.59241 0.47354 0.05254 0.0
C670 C 0.59327 0.45371 0.0638 0.0
C671 C 0.57503 0.44365 0.07479 0.0
C672 C 0.55657 0.4547 0.0756 0.0
C673 C 0.55584 0.47453 0.06461 0.0
C674 C 0.5173 0.54281 0.07816 0.0
C675 C 0.5726 0.5643 0.11835 0.0
O676 O 0.52769 0.61585 0.09037 0.0
O677 O 0.56213 0.63487 0.09031 0.0
O678 O 0.59129 0.6043 0.08566 0.0
O679 O 0.57417 0.57844 0.05198 0.0
O680 O 0.53397 0.58868 0.03605 0.0
O681 O 0.53925 0.55077 0.01857 0.0
O682 O 0.58475 0.52486 0.05432 0.0
O683 O 0.55203 0.50579 0.03045 0.0
O684 O 0.52172 0.52261 0.06733 0.0
O685 O 0.53284 0.5595 0.07642 0.0
O686 O 0.57352 0.5484 0.09748 0.0
O687 O 0.56308 0.58289 0.11696 0.0
H688 H 0.50408 0.65464 0.09518 0.0
H689 H 0.4944 0.68734 0.07612 0.0
H690 H 0.54953 0.68556 0.03333 0.0
H691 H 0.5579 0.65224 0.05085 0.0
H692 H 0.60641 0.48082 0.04375 0.0
H693 H 0.60784 0.44579 0.06318 0.0
H694 H 0.542 0.4473 0.08343 0.0
H695 H 0.54125 0.48242 0.06526 0.0
Nd696 Nd 0.82989 0.34081 0.33428 0.0
Nd697 Nd 0.78961 0.31112 0.31016 0.0
C698 C 0.87053 0.36891 0.34767 0.0
C699 C 0.89252 0.36533 0.35842 0.0
C700 C 0.91054 0.36959 0.34502 0.0
C701 C 0.93215 0.36905 0.35626 0.0
C702 C 0.93599 0.36454 0.38116 0.0
C703 C 0.91759 0.35775 0.39337 0.0
C704 C 0.89593 0.35813 0.38205 0.0
C705 C 0.80244 0.33111 0.37058 0.0
C706 C 0.82885 0.2831 0.32783 0.0
C707 C 0.74833 0.28581 0.29223 0.0
C708 C 0.72559 0.28963 0.28913 0.0
C709 C 0.7219 0.31307 0.2944 0.0
C710 C 0.70129 0.31736 0.28445 0.0
C711 C 0.6843 0.29815 0.2695 0.0
C712 C 0.68748 0.27445 0.26641 0.0
C713 C 0.70809 0.27025 0.27613 0.0
C714 C 0.82034 0.31169 0.27646 0.0
C715 C 0.79112 0.37089 0.32105 0.0
O716 O 0.8623 0.3571 0.32403 0.0
O717 O 0.85537 0.36897 0.36269 0.0
O718 O 0.8233 0.329 0.37269 0.0
O719 O 0.79671 0.33605 0.34912 0.0
O720 O 0.84174 0.30459 0.32948 0.0
O721 O 0.80672 0.28146 0.32496 0.0
O722 O 0.75846 0.2874 0.31579 0.0
O723 O 0.7612 0.29651 0.27816 0.0
O724 O 0.80815 0.29248 0.28064 0.0
O725 O 0.81684 0.3302 0.29085 0.0
O726 O 0.77828 0.3488 0.31108 0.0
O727 O 0.81251 0.37265 0.33062 0.0
H728 H 0.90809 0.37447 0.32642 0.0
H729 H 0.94612 0.37392 0.34635 0.0
H730 H 0.92015 0.35416 0.41259 0.0
H731 H 0.88213 0.354 0.39241 0.0
H732 H 0.7354 0.32818 0.30453 0.0
H733 H 0.69907 0.33571 0.28716 0.0
H734 H 0.67473 0.25935 0.25466 0.0
H735 H 0.71089 0.25212 0.27178 0.0
Nd736 Nd 0.02896 0.56418 0.5558 0.0
Nd737 Nd 0.07987 0.58389 0.57541 0.0
C738 C 0.98603 0.55357 0.53557 0.0
C739 C 0.9658 0.54331 0.54516 0.0
C740 C 0.94692 0.5535 0.54285 0.0
C741 C 0.92707 0.5427 0.55018 0.0
C742 C 0.92606 0.52176 0.55998 0.0
C743 C 0.94531 0.51243 0.56381 0.0
C744 C 0.96516 0.52324 0.55659 0.0
C745 C 0.05222 0.53319 0.57331 0.0
C746 C 0.04423 0.58357 0.61697 0.0
C747 C 0.12213 0.59473 0.59835 0.0
C748 C 0.14409 0.60141 0.59033 0.0
C749 C 0.15395 0.58357 0.57788 0.0
C750 C 0.1749 0.58987 0.5707 0.0
C751 C 0.18619 0.61412 0.57567 0.0
C752 C 0.17625 0.63212 0.58749 0.0
C753 C 0.15537 0.62577 0.595 0.0
C754 C 0.05787 0.61433 0.55482 0.0
C755 C 0.06564 0.56382 0.51472 0.0
O756 O 0.99668 0.5754 0.54775 0.0
O757 O 0.99953 0.5391 0.53009 0.0
O758 O 0.03221 0.53392 0.57852 0.0
O759 O 0.05816 0.54749 0.55943 0.0
O760 O 0.02721 0.58011 0.59789 0.0
O761 O 0.0647 0.58222 0.61253 0.0
O762 O 0.11066 0.57246 0.58924 0.0
O763 O 0.10957 0.61061 0.59866 0.0
O764 O 0.07865 0.61392 0.55279 0.0
O765 O 0.05078 0.60104 0.56948 0.0
O766 O 0.08232 0.56794 0.5343 0.0
O767 O 0.04457 0.56436 0.51798 0.0
H768 H 0.94728 0.56924 0.53455 0.0
H769 H 0.91216 0.54989 0.5469 0.0
H770 H 0.94461 0.49603 0.57099 0.0
H771 H 0.9797 0.51535 0.55907 0.0
H772 H 0.14561 0.56474 0.5739 0.0
H773 H 0.18246 0.57581 0.56158 0.0
H774 H 0.18498 0.65092 0.59167 0.0
H775 H 0.14816 0.63989 0.60465 0.0
Nd776 Nd 0.81788 0.82951 0.35157 0.0
Nd777 Nd 0.80022 0.81861 0.30432 0.0
C778 C 0.82583 0.83613 0.40236 0.0
C779 C 0.8173 0.84919 0.42393 0.0
C780 C 0.80212 0.83625 0.43663 0.0
C781 C 0.79632 0.84773 0.45926 0.0
C782 C 0.80581 0.87226 0.46966 0.0
C783 C 0.81926 0.8857 0.45568 0.0
C784 C 0.82505 0.87423 0.433 0.0
C785 C 0.82875 0.8715 0.33159 0.0
C786 C 0.76567 0.8349 0.33855 0.0
C787 C 0.79018 0.81275 0.25372 0.0
C788 C 0.79612 0.79811 0.23145 0.0
C789 C 0.80524 0.80948 0.21298 0.0
C790 C 0.81198 0.79604 0.19219 0.0
C791 C 0.80978 0.77117 0.18986 0.0
C792 C 0.80085 0.75982 0.20844 0.0
C793 C 0.79405 0.77321 0.22917 0.0
C794 C 0.78895 0.77681 0.32523 0.0
C795 C 0.85288 0.81345 0.31726 0.0
O796 O 0.8116 0.81753 0.38739 0.0
O797 O 0.83832 0.84887 0.3896 0.0
O798 O 0.84281 0.86329 0.34584 0.0
O799 O 0.80934 0.85728 0.32758 0.0
O800 O 0.78004 0.8291 0.35548 0.0
O801 O 0.77167 0.83654 0.31621 0.0
O802 O 0.8068 0.8294 0.268 0.0
O803 O 0.7773 0.80146 0.26726 0.0
O804 O 0.77501 0.78566 0.31158 0.0
O805 O 0.80855 0.79051 0.32791 0.0
O806 O 0.83802 0.8182 0.2999 0.0
O807 O 0.84738 0.8128 0.34007 0.0
H808 H 0.79568 0.81698 0.42986 0.0
H809 H 0.78586 0.83706 0.46972 0.0
H810 H 0.827 0.9046 0.46345 0.0
H811 H 0.83655 0.88476 0.42343 0.0
H812 H 0.80724 0.82876 0.21474 0.0
H813 H 0.81889 0.805 0.17794 0.0
H814 H 0.79874 0.74053 0.20663 0.0
H815 H 0.78726 0.76409 0.24336 0.0
Nd816 Nd 0.81185 0.35114 0.83794 0.0
Nd817 Nd 0.80114 0.29995 0.8124 0.0
C818 C 0.80877 0.39642 0.85039 0.0
C819 C 0.82167 0.41719 0.84253 0.0
C820 C 0.81885 0.44062 0.85122 0.0
C821 C 0.83299 0.46029 0.84537 0.0
C822 C 0.85013 0.45659 0.83102 0.0
C823 C 0.85203 0.43304 0.8212 0.0
C824 C 0.83778 0.41349 0.82671 0.0
C825 C 0.85373 0.3408 0.83116 0.0
C826 C 0.80606 0.33643 0.77456 0.0
C827 C 0.7961 0.25272 0.79761 0.0
C828 C 0.79036 0.23116 0.8084 0.0
C829 C 0.80159 0.21247 0.80276 0.0
C830 C 0.79383 0.19026 0.80893 0.0
C831 C 0.77463 0.18639 0.82071 0.0
C832 C 0.7645 0.20575 0.82819 0.0
C833 C 0.77233 0.228 0.82212 0.0
C834 C 0.76306 0.31936 0.81329 0.0
C835 C 0.81245 0.31493 0.87681 0.0
O836 O 0.79499 0.38055 0.83151 0.0
O837 O 0.82062 0.38645 0.86572 0.0
O838 O 0.85079 0.36166 0.84168 0.0
O839 O 0.83474 0.32601 0.82437 0.0
O840 O 0.80506 0.35238 0.79507 0.0
O841 O 0.80807 0.3145 0.77629 0.0
O842 O 0.81573 0.26733 0.80676 0.0
O843 O 0.78003 0.26403 0.79358 0.0
O844 O 0.7677 0.30608 0.79335 0.0
O845 O 0.77896 0.32259 0.83244 0.0
O846 O 0.80899 0.29769 0.85569 0.0
O847 O 0.81176 0.33723 0.8752 0.0
H848 H 0.80631 0.44373 0.86319 0.0
H849 H 0.83141 0.47841 0.85324 0.0
H850 H 0.86515 0.42984 0.81013 0.0
H851 H 0.83988 0.39549 0.81935 0.0
H852 H 0.81567 0.21466 0.79244 0.0
H853 H 0.80216 0.17573 0.80332 0.0
H854 H 0.7496 0.20327 0.83714 0.0
H855 H 0.76352 0.24228 0.82694 0.0
Nd856 Nd 0.79507 0.81475 0.80808 0.0
Nd857 Nd 0.83504 0.8452 0.84427 0.0
C858 C 0.75542 0.80128 0.77811 0.0
C859 C 0.73394 0.80432 0.78681 0.0
C860 C 0.72591 0.82527 0.78513 0.0
C861 C 0.70923 0.83119 0.79908 0.0
C862 C 0.70026 0.81633 0.81494 0.0
C863 C 0.70727 0.79466 0.81527 0.0
C864 C 0.72375 0.78864 0.80126 0.0
C865 C 0.79814 0.80325 0.85594 0.0
C866 C 0.79203 0.86716 0.84314 0.0
C867 C 0.87534 0.86061 0.8727 0.0
C868 C 0.89649 0.85809 0.86276 0.0
C869 C 0.90705 0.83941 0.86737 0.0
C870 C 0.92285 0.83265 0.85241 0.0
C871 C 0.92827 0.84429 0.83248 0.0
C872 C 0.91909 0.8642 0.82935 0.0
C873 C 0.90354 0.87111 0.84437 0.0
C874 C 0.82913 0.8571 0.79722 0.0
C875 C 0.83848 0.79254 0.80903 0.0
O876 O 0.76974 0.82121 0.77807 0.0
O877 O 0.76533 0.786 0.78769 0.0
O878 O 0.79119 0.78784 0.83422 0.0
O879 O 0.80277 0.82449 0.85237 0.0
O880 O 0.78569 0.85148 0.82086 0.0
O881 O 0.80949 0.8659 0.85972 0.0
O882 O 0.8619 0.84043 0.87383 0.0
O883 O 0.8643 0.87515 0.86327 0.0
O884 O 0.83527 0.87268 0.81892 0.0
O885 O 0.82711 0.83577 0.80029 0.0
O886 O 0.84575 0.80975 0.83002 0.0
O887 O 0.81982 0.79211 0.79332 0.0
H888 H 0.73337 0.83775 0.77418 0.0
H889 H 0.70376 0.84767 0.79803 0.0
H890 H 0.70096 0.78289 0.82752 0.0
H891 H 0.72948 0.7724 0.80315 0.0
H892 H 0.90207 0.82906 0.88143 0.0
H893 H 0.93024 0.81777 0.85571 0.0
H894 H 0.92269 0.87351 0.81405 0.0
H895 H 0.89586 0.88558 0.84013 0.0
Nd896 Nd 0.57271 0.59866 0.57615 0.0
Nd897 Nd 0.53979 0.54835 0.55728 0.0
C898 C 0.58872 0.64441 0.59886 0.0
C899 C 0.58514 0.66578 0.58845 0.0
C900 C 0.56343 0.67051 0.58433 0.0
C901 C 0.55888 0.68697 0.56939 0.0
C902 C 0.57588 0.69922 0.55826 0.0
C903 C 0.59797 0.69608 0.56412 0.0
C904 C 0.60255 0.67947 0.57902 0.0
C905 C 0.57917 0.58217 0.52568 0.0
C906 C 0.52016 0.5953 0.5478 0.0
C907 C 0.52438 0.50158 0.539 0.0
C908 C 0.52968 0.48197 0.55186 0.0
C909 C 0.55222 0.4804 0.55895 0.0
C910 C 0.55763 0.4648 0.57472 0.0
C911 C 0.5407 0.44998 0.58365 0.0
C912 C 0.51806 0.45055 0.57548 0.0
C913 C 0.51264 0.46646 0.55993 0.0
C914 C 0.5352 0.5656 0.6084 0.0
C915 C 0.59309 0.55241 0.58354 0.0
O916 O 0.57097 0.63117 0.60453 0.0
O917 O 0.60094 0.63127 0.58693 0.0
O918 O 0.58823 0.60313 0.54031 0.0
O919 O 0.56512 0.57043 0.53738 0.0
O920 O 0.54023 0.60824 0.5595 0.0
O921 O 0.51555 0.57129 0.54226 0.0
O922 O 0.54097 0.51427 0.53082 0.0
O923 O 0.51222 0.51519 0.5503 0.0
O924 O 0.52543 0.54455 0.59458 0.0
O925 O 0.54849 0.57619 0.59545 0.0
O926 O 0.57354 0.53934 0.57058 0.0
O927 O 0.59681 0.57615 0.59107 0.0
H928 H 0.54954 0.6605 0.59132 0.0
H929 H 0.54174 0.68922 0.56542 0.0
H930 H 0.61138 0.70517 0.55567 0.0
H931 H 0.61942 0.67627 0.58185 0.0
H932 H 0.56591 0.49182 0.55307 0.0
H933 H 0.57521 0.46462 0.58028 0.0
H934 H 0.50458 0.43947 0.58208 0.0
H935 H 0.49515 0.46725 0.55497 0.0
Nd936 Nd 0.0815 0.58898 0.07114 0.0
Nd937 Nd 0.02991 0.56734 0.07824 0.0
C938 C 0.11842 0.59904 0.05159 0.0
C939 C 0.13747 0.58704 0.05172 0.0
C940 C 0.15098 0.58788 0.03259 0.0
C941 C 0.16971 0.57739 0.03369 0.0
C942 C 0.17521 0.56605 0.05404 0.0
C943 C 0.16054 0.56364 0.07194 0.0
C944 C 0.14185 0.57399 0.07073 0.0
C945 C 0.08043 0.56575 0.11274 0.0
C946 C 0.05566 0.53222 0.04402 0.0
C947 C 0.9931 0.55497 0.0976 0.0
C948 C 0.97224 0.56406 0.09568 0.0
C949 C 0.95651 0.5592 0.11187 0.0
C950 C 0.93609 0.56665 0.10858 0.0
C951 C 0.93103 0.57891 0.08888 0.0
C952 C 0.94747 0.58479 0.07367 0.0
C953 C 0.96784 0.5776 0.07717 0.0
C954 C 0.02955 0.58793 0.03493 0.0
C955 C 0.05471 0.62546 0.10091 0.0
O956 O 0.09939 0.58591 0.03771 0.0
O957 O 0.11598 0.61091 0.07413 0.0
O958 O 0.09874 0.57753 0.10733 0.0
O959 O 0.06436 0.56797 0.09701 0.0
O960 O 0.07101 0.55174 0.04421 0.0
O961 O 0.03968 0.53247 0.05859 0.0
O962 O 1.01117 0.57044 0.11105 0.0
O963 O 0.99682 0.5428 0.07591 0.0
O964 O 1.01189 0.57717 0.04253 0.0
O965 O 0.04663 0.58738 0.05066 0.0
O966 O 0.03948 0.60644 0.10273 0.0
O967 O 0.07091 0.62396 0.08697 0.0
H968 H 0.14746 0.59722 0.01729 0.0
H969 H 0.18052 0.57918 0.01936 0.0
H970 H 0.1643 0.55522 0.08797 0.0
H971 H 0.13131 0.5725 0.08528 0.0
H972 H 0.9598 0.54923 0.12666 0.0
H973 H 0.92404 0.56226 0.12103 0.0
H974 H 0.94424 0.59393 0.05811 0.0
H975 H 0.97987 0.58205 0.06483 0.0
H976 H 0.03452 0.26467 0.95082 0.0
H977 H 0.10001 0.31326 0.96141 0.0
H978 H 0.11476 0.29282 0.99469 0.0
H979 H 0.03407 0.25987 0.01641 0.0
H980 H 0.02087 0.22816 0.00841 0.0
H981 H 1.01553 0.24685 0.98593 0.0
H982 H 0.02869 0.2186 0.95038 0.0
H983 H 0.03375 0.19964 0.97263 0.0
H984 H 0.05608 0.21184 0.95673 0.0
H985 H 0.12215 0.26671 0.02663 0.0
H986 H 0.12271 0.23519 0.05213 0.0
H987 H 0.05229 0.20352 0.02035 0.0
C988 C 0.052 0.27101 0.96013 0.0
C989 C 0.06617 0.29059 0.95362 0.0
C990 C 0.08897 0.29817 0.96597 0.0
C991 C 0.09739 0.28679 0.98502 0.0
C992 C 0.08284 0.26769 0.99117 0.0
C993 C 0.0607 0.25966 0.97881 0.0
C994 C 0.04879 0.23806 0.98797 0.0
C995 C 0.02863 0.24358 1.00043 0.0
C996 C 0.0414 0.21572 0.9656 0.0
C997 C 0.06761 0.2353 0.00777 0.0
C998 C 0.0871 0.2526 0.00934 0.0
C999 C 0.107 0.25312 0.02553 0.0
C1000 C 0.10717 0.23518 0.03992 0.0
C1001 C 0.08756 0.21704 0.03823 0.0
C1002 C 0.06743 0.2174 0.02227 0.0
H1003 H 0.14892 0.84792 0.27326 0.0
H1004 H 0.11167 0.78379 0.2926 0.0
H1005 H 0.14774 0.77415 0.30888 0.0
H1006 H 0.19431 0.82215 0.25156 0.0
H1007 H 0.2159 0.84919 0.26493 0.0
H1008 H 0.18726 0.85125 0.25509 0.0
H1009 H 0.18733 0.87575 0.30076 0.0
H1010 H 0.21596 0.87366 0.31075 0.0
H1011 H 0.19433 0.8634 0.32852 0.0
H1012 H 0.1885 0.77183 0.32423 0.0
H1013 H 0.22956 0.77551 0.33466 0.0
H1014 H 0.24142 0.84041 0.30428 0.0
C1015 C 0.14824 0.83179 0.28089 0.0
C1016 C 0.12702 0.81666 0.28156 0.0
C1017 C 0.12735 0.79577 0.29175 0.0
C1018 C 0.1479 0.79016 0.30113 0.0
C1019 C 0.16837 0.80549 0.30029 0.0
C1020 C 0.1687 0.82584 0.29026 0.0
C1021 C 0.19307 0.83919 0.29136 0.0
C1022 C 0.19792 0.84051 0.26411 0.0
C1023 C 0.19795 0.86451 0.30888 0.0
C1024 C 0.20643 0.82308 0.30333 0.0
C1025 C 0.19178 0.80388 0.30858 0.0
C1026 C 0.19999 0.78678 0.32005 0.0
C1027 C 0.22352 0.78908 0.32602 0.0
C1028 C 0.2391 0.80822 0.3204 0.0
C1029 C 0.23019 0.82553 0.30892 0.0
H1030 H 0.54091 0.8909 0.48149 0.0
H1031 H 0.57723 0.91127 0.42164 0.0
H1032 H 0.58515 0.95401 0.44443 0.0
H1033 H 0.51394 0.9374 0.49124 0.0
H1034 H 0.51725 0.94235 0.52595 0.0
H1035 H 0.51695 0.91307 0.50718 0.0
H1036 H 0.5558 0.9136 0.53312 0.0
H1037 H 0.55603 0.94274 0.55238 0.0
H1038 H 0.57917 0.93868 0.53571 0.0
H1039 H 0.58539 0.99443 0.47073 0.0
H1040 H 0.58056 0.03014 0.50043 0.0
H1041 H 0.5441 0.98416 0.54398 0.0
C1042 C 0.55093 0.90432 0.47345 0.0
C1043 C 0.55843 0.89775 0.44971 0.0
C1044 C 0.5715 0.91581 0.43986 0.0
C1045 C 0.57601 0.94015 0.45265 0.0
C1046 C 0.56772 0.94607 0.47553 0.0
C1047 C 0.55588 0.92865 0.48619 0.0
C1048 C 0.54834 0.93998 0.51064 0.0
C1049 C 0.52259 0.93277 0.5086 0.0
C1050 C 0.56056 0.93335 0.53437 0.0
C1051 C 0.55632 0.96654 0.511 0.0
C1052 C 0.56791 0.96955 0.49087 0.0
C1053 C 0.57665 0.99228 0.48676 0.0
C1054 C 0.57374 0.01249 0.50378 0.0
C1055 C 0.56195 0.01001 0.52462 0.0
C1056 C 0.55305 0.98664 0.52818 0.0
H1057 H 0.46112 0.30037 0.74384 0.0
H1058 H 0.49939 0.30868 0.82031 0.0
H1059 H 0.46489 0.31011 0.83902 0.0
H1060 H 0.42325 0.3379 0.75949 0.0
H1061 H 0.39836 0.31834 0.73894 0.0
H1062 H 0.42581 0.31721 0.73091 0.0
H1063 H 0.41795 0.27152 0.72984 0.0
H1064 H 0.39039 0.27251 0.73772 0.0
H1065 H 0.40976 0.26083 0.75755 0.0
H1066 H 0.42685 0.31278 0.8503 0.0
H1067 H 0.38758 0.31421 0.85347 0.0
H1068 H 0.37126 0.3027 0.77 0.0
C1069 C 0.46219 0.30227 0.76449 0.0
C1070 C 0.48334 0.30441 0.78054 0.0
C1071 C 0.48367 0.30674 0.80745 0.0
C1072 C 0.46404 0.3077 0.81833 0.0
C1073 C 0.44366 0.30575 0.80217 0.0
C1074 C 0.4424 0.30261 0.77575 0.0
C1075 C 0.41794 0.3002 0.76294 0.0
C1076 C 0.41625 0.31958 0.74714 0.0
C1077 C 0.40845 0.27476 0.746 0.0
C1078 C 0.40603 0.30398 0.78638 0.0
C1079 C 0.42131 0.30676 0.80872 0.0
C1080 C 0.41475 0.31041 0.83288 0.0
C1081 C 0.39217 0.31116 0.83445 0.0
C1082 C 0.37581 0.30848 0.8121 0.0
C1083 C 0.38307 0.30482 0.7876 0.0
H1084 H 1.01555 0.84646 0.63208 0.0
H1085 H 0.99108 0.80026 0.55598 0.0
H1086 H 1.01813 0.82749 0.53782 0.0
H1087 H 1.01829 0.90016 0.6126 0.0
H1088 H 0.04315 0.91655 0.63554 0.0
H1089 H 0.02497 0.89125 0.64273 0.0
H1090 H 0.05907 0.87143 0.64982 0.0
H1091 H 0.07725 0.89667 0.64221 0.0
H1092 H 0.07545 0.86648 0.6245 0.0
H1093 H 0.04509 0.86103 0.52762 0.0
H1094 H 0.06376 0.90164 0.52411 0.0
H1095 H 0.06968 0.92697 0.60678 0.0
C1096 C 1.01609 0.84198 0.61161 0.0
C1097 C 1.00132 0.8214 0.59531 0.0
C1098 C 1.00214 0.81616 0.56863 0.0
C1099 C 1.0177 0.83125 0.55832 0.0
C1100 C 0.03214 0.85143 0.57498 0.0
C1101 C 0.03119 0.857 0.60102 0.0
C1102 C 0.04611 0.8814 0.61416 0.0
C1103 C 0.0323 0.89833 0.62698 0.0
C1104 C 0.06563 0.87883 0.63383 0.0
C1105 C 0.05458 0.88937 0.5911 0.0
C1106 C 0.04713 0.87139 0.56893 0.0
C1107 C 0.05127 0.87514 0.54485 0.0
C1108 C 0.06203 0.89827 0.54308 0.0
C1109 C 0.06809 0.9174 0.56518 0.0
C1110 C 0.06529 0.91258 0.58964 0.0
H1111 H 0.54367 0.91806 0.96324 0.0
H1112 H 0.55986 0.84805 0.95983 0.0
H1113 H 0.52652 0.82926 0.92611 0.0
H1114 H 0.48387 0.89578 0.95591 0.0
H1115 H 0.47674 0.91664 0.93678 0.0
H1116 H 0.50259 0.92484 0.95979 0.0
H1117 H 0.52505 0.93332 0.92329 0.0
H1118 H 0.49924 0.92477 0.90012 0.0
H1119 H 0.52198 0.90991 0.89481 0.0
H1120 H 0.49041 0.8175 0.89554 0.0
H1121 H 0.45253 0.81381 0.87019 0.0
H1122 H 0.46055 0.89122 0.89177 0.0
C1123 C 0.54015 0.89887 0.95514 0.0
C1124 C 0.55406 0.88437 0.96381 0.0
C1125 C 0.5491 0.85927 0.9532 0.0
C1126 C 0.53037 0.84848 0.93404 0.0
C1127 C 0.51686 0.86313 0.9257 0.0
C1128 C 0.52136 0.88772 0.93592 0.0
C1129 C 0.50326 0.89892 0.92449 0.0
C1130 C 0.49089 0.90967 0.94549 0.0
C1131 C 0.51298 0.91785 0.9098 0.0
C1132 C 0.48817 0.87687 0.90625 0.0
C1133 C 0.49625 0.85636 0.90728 0.0
C1134 C 0.48409 0.83346 0.89398 0.0
C1135 C 0.46281 0.83149 0.87959 0.0
C1136 C 0.45442 0.85237 0.87856 0.0
C1137 C 0.46731 0.87525 0.89159 0.0
H1138 H 0.4756 0.20159 0.06655 0.0
H1139 H 0.48009 0.20339 0.14838 0.0
H1140 H 0.49846 0.16922 0.14363 0.0
H1141 H 0.47026 0.13049 0.04685 0.0
H1142 H 0.48654 0.13476 0.02169 0.0
H1143 H 0.46732 0.15389 0.02948 0.0
H1144 H 0.50024 0.1913 0.03638 0.0
H1145 H 0.51964 0.17239 0.02954 0.0
H1146 H 0.52518 0.19417 0.05973 0.0
H1147 H 0.52718 0.14788 0.13428 0.0
H1148 H 0.55718 0.13047 0.118 0.0
H1149 H 0.53167 0.13578 0.04032 0.0
C1150 C 0.47897 0.1935 0.08293 0.0
C1151 C 0.47616 0.20467 0.10774 0.0
C1152 C 0.48176 0.19465 0.12919 0.0
C1153 C 0.49228 0.1753 0.12668 0.0
C1154 C 0.49654 0.16582 0.10243 0.0
C1155 C 0.48925 0.17372 0.08059 0.0
C1156 C 0.49854 0.16213 0.05757 0.0
C1157 C 0.47953 0.14426 0.03772 0.0
C1158 C 0.51168 0.18115 0.04511 0.0
C1159 C 0.51407 0.14889 0.07066 0.0
C1160 C 0.51239 0.15117 0.0965 0.0
C1161 C 0.52773 0.14462 0.11382 0.0
C1162 C 0.54485 0.13491 0.1044 0.0
C1163 C 0.54605 0.13091 0.07778 0.0
C1164 C 0.53045 0.13789 0.0606 0.0
H1165 H 0.14677 0.39399 0.42828 0.0
H1166 H 0.17097 0.35492 0.48402 0.0
H1167 H 0.19024 0.3345 0.45181 0.0
H1168 H 0.1358 0.34562 0.37258 0.0
H1169 H 0.14511 0.36488 0.35133 0.0
H1170 H 0.13357 0.37667 0.379 0.0
H1171 H 0.16877 0.41021 0.39311 0.0
H1172 H 0.18301 0.39857 0.36781 0.0
H1173 H 0.19564 0.40327 0.40141 0.0
H1174 H 0.20387 0.31585 0.41301 0.0
H1175 H 0.21565 0.30336 0.37128 0.0
H1176 H 0.18435 0.35565 0.34053 0.0
C1177 C 0.15636 0.38137 0.43387 0.0
C1178 C 0.15739 0.37607 0.45873 0.0
C1179 C 0.17007 0.35941 0.46519 0.0
C1180 C 0.18092 0.34757 0.44695 0.0
C1181 C 0.17899 0.35268 0.42241 0.0
C1182 C 0.16721 0.36931 0.41587 0.0
C1183 C 0.16798 0.37163 0.38819 0.0
C1184 C 0.1442 0.36424 0.37182 0.0
C1185 C 0.17956 0.39745 0.38748 0.0
C1186 C 0.1821 0.35359 0.38013 0.0
C1187 C 0.18787 0.34264 0.40015 0.0
C1188 C 0.19969 0.32441 0.39725 0.0
C1189 C 0.20609 0.31727 0.37336 0.0
C1190 C 0.20081 0.32838 0.35258 0.0
C1191 C 0.18871 0.3469 0.3561 0.0
H1192 H 0.97575 0.04906 0.22872 0.0
H1193 H 0.95324 0.11559 0.22982 0.0
H1194 H 0.97291 0.12224 0.19312 0.0
H1195 H 0.03032 0.06776 0.21231 0.0
H1196 H 0.02941 0.03947 0.19092 0.0
H1197 H 1.01384 0.04013 0.21728 0.0
H1198 H 0.97696 0.01855 0.18537 0.0
H1199 H 0.99251 0.01751 0.15899 0.0
H1200 H 0.96847 0.03114 0.15826 0.0
H1201 H 0.99713 0.12213 0.15616 0.0
H1202 H 1.01828 0.11282 0.1205 0.0
H1203 H 0.02294 0.04498 0.14119 0.0
C1204 C 0.97474 0.06498 0.22115 0.0
C1205 C 0.96266 0.08176 0.23247 0.0
C1206 C 0.96197 0.10225 0.22162 0.0
C1207 C 0.97336 0.10628 0.20079 0.0
C1208 C 0.9853 0.08952 0.19038 0.0
C1209 C 0.98562 0.069 0.19997 0.0
C1210 C 0.99876 0.05315 0.18471 0.0
C1211 C 1.0193 0.04994 0.20236 0.0
C1212 C 0.98325 0.02863 0.17102 0.0
C1213 C 1.00612 0.06797 0.1652 0.0
C1214 C 0.99839 0.08907 0.16897 0.0
C1215 C 1.00313 0.10562 0.15326 0.0
C1216 C 1.01537 0.10025 0.13302 0.0
C1217 C 0.0229 0.07844 0.12815 0.0
C1218 C 1.01815 0.06218 0.14473 0.0
H1219 H 0.36319 0.74398 0.48305 0.0
H1220 H 0.37188 0.81008 0.54031 0.0
H1221 H 0.35527 0.82902 0.5066 0.0
H1222 H 0.37936 0.77445 0.43227 0.0
H1223 H 0.36031 0.75193 0.4069 0.0
H1224 H 0.37195 0.74367 0.43578 0.0
H1225 H 0.33158 0.72624 0.44288 0.0
H1226 H 0.31983 0.73461 0.41413 0.0
H1227 H 0.31147 0.74517 0.44453 0.0
H1228 H 0.33652 0.84025 0.46565 0.0
H1229 H 0.32131 0.84401 0.42173 0.0
H1230 H 0.32719 0.77112 0.39103 0.0
C1231 C 0.36147 0.76241 0.48852 0.0
C1232 C 0.36856 0.77547 0.51444 0.0
C1233 C 0.36652 0.79973 0.52065 0.0
C1234 C 0.35702 0.81057 0.5016 0.0
C1235 C 0.3501 0.79713 0.4762 0.0
C1236 C 0.35264 0.77369 0.46961 0.0
C1237 C 0.34528 0.76356 0.44075 0.0
C1238 C 0.36542 0.75808 0.42819 0.0
C1239 C 0.32588 0.74106 0.43526 0.0
C1240 C 0.33742 0.78459 0.43213 0.0
C1241 C 0.34031 0.80383 0.45281 0.0
C1242 C 0.33431 0.82527 0.44939 0.0
C1243 C 0.32556 0.82721 0.4243 0.0
C1244 C 0.32287 0.80789 0.40269 0.0
C1245 C 0.32881 0.78626 0.40697 0.0
H1246 H 0.61841 0.04696 0.75303 0.0
H1247 H 0.61411 0.97141 0.72101 0.0
H1248 H 0.5978 0.97686 0.67801 0.0
H1249 H 0.56655 0.05182 0.71487 0.0
H1250 H 0.57824 0.08197 0.71165 0.0
H1251 H 0.58828 0.07161 0.73983 0.0
H1252 H 0.62925 0.082 0.73114 0.0
H1253 H 0.61937 0.09273 0.70326 0.0
H1254 H 0.63542 0.06969 0.70001 0.0
H1255 H 0.58186 0.99158 0.63771 0.0
H1256 H 0.5733 0.01463 0.60427 0.0
H1257 H 0.58983 0.08053 0.6631 0.0
C1258 C 0.61406 0.03144 0.73704 0.0
C1259 C 0.61763 0.00868 0.74057 0.0
C1260 C 0.61173 0.98904 0.71891 0.0
C1261 C 0.60224 0.99196 0.69443 0.0
C1262 C 0.59874 0.01466 0.69181 0.0
C1263 C 0.60475 0.03409 0.71262 0.0
C1264 C 0.60046 0.05694 0.70483 0.0
C1265 C 0.5823 0.06612 0.71862 0.0
C1266 C 0.62243 0.07648 0.71011 0.0
C1267 C 0.5918 0.04768 0.67611 0.0
C1268 C 0.59028 0.02311 0.66899 0.0
C1269 C 0.58292 0.01076 0.64326 0.0
C1270 C 0.57784 0.02394 0.62438 0.0
C1271 C 0.58038 0.04926 0.63119 0.0
C1272 C 0.58717 0.06111 0.65746 0.0
H1273 H 0.33412 0.48056 0.08158 0.0
H1274 H 0.34985 0.4286 0.12592 0.0
H1275 H 0.32833 0.3953 0.09034 0.0
H1276 H 0.2773 0.44485 0.04589 0.0
H1277 H 0.2822 0.45398 0.01629 0.0
H1278 H 0.29481 0.474 0.04698 0.0
H1279 H 0.33452 0.47687 0.03429 0.0
H1280 H 0.32191 0.45736 0.00352 0.0
H1281 H 0.34385 0.44952 0.02393 0.0
H1282 H 0.30885 0.36816 0.04989 0.0
H1283 H 0.30022 0.34852 0.00392 0.0
H1284 H 0.29831 0.41742 0.9839 0.0
C1285 C 0.33274 0.46212 0.08372 0.0
C1286 C 0.34353 0.4569 0.10619 0.0
C1287 C 0.34183 0.43275 0.10854 0.0
C1288 C 0.3293 0.41381 0.08871 0.0
C1289 C 0.31874 0.41943 0.06671 0.0
C1290 C 0.32072 0.44295 0.06381 0.0
C1291 C 0.31096 0.44385 0.03664 0.0
C1292 C 0.29008 0.45482 0.03645 0.0
C1293 C 0.32888 0.4577 0.02385 0.0
C1294 C 0.30449 0.41717 0.02438 0.0
C1295 C 0.30813 0.40344 0.04244 0.0
C1296 C 0.3055 0.37857 0.03558 0.0
C1297 C 0.30043 0.36754 0.00938 0.0
C1298 C 0.29853 0.38152 0.99048 0.0
C1299 C 0.29943 0.4064 0.9981 0.0
H1300 H 0.97787 0.06382 0.36836 0.0
H1301 H 0.93569 0.1114 0.39686 0.0
H1302 H 0.9532 0.11346 0.44146 0.0
H1303 H 0.97586 0.0304 0.42011 0.0
H1304 H 1.00475 0.02757 0.42214 0.0
H1305 H 0.98922 0.02968 0.39196 0.0
H1306 H 0.02016 0.06627 0.38978 0.0
H1307 H 0.03576 0.06432 0.41999 0.0
H1308 H 0.02795 0.09211 0.41641 0.0
H1309 H 0.97583 0.11231 0.48273 0.0
H1310 H 1.00029 0.10547 0.51929 0.0
H1311 H 0.02773 0.05664 0.46665 0.0
C1312 C 0.97222 0.07451 0.38402 0.0
C1313 C 0.95518 0.08737 0.37887 0.0
C1314 C 0.94844 0.10119 0.40004 0.0
C1315 C 0.95841 0.1026 0.42557 0.0
C1316 C 0.97511 0.0899 0.42999 0.0
C1317 C 0.98189 0.07588 0.40994 0.0
C1318 C 1.00005 0.06382 0.42057 0.0
C1319 C 0.99199 0.03622 0.41326 0.0
C1320 C 0.0223 0.07213 0.41112 0.0
C1321 C 1.00232 0.07328 0.44964 0.0
C1322 C 0.98786 0.08853 0.45436 0.0
C1323 C 0.98708 0.10025 0.47928 0.0
C1324 C 1.00123 0.09626 0.50002 0.0
C1325 C 1.01607 0.08041 0.49616 0.0
C1326 C 1.01651 0.06868 0.47043 0.0
H1327 H 0.39675 0.77608 0.66773 0.0
H1328 H 0.33564 0.75045 0.61041 0.0
H1329 H 0.31346 0.76446 0.64299 0.0
H1330 H 0.36948 0.75729 0.72089 0.0
H1331 H 0.38593 0.78261 0.74532 0.0
H1332 H 0.39761 0.77121 0.71756 0.0
H1333 H 0.4053 0.81368 0.70728 0.0
H1334 H 0.39355 0.82515 0.73494 0.0
H1335 H 0.3824 0.82877 0.70338 0.0
H1336 H 0.29783 0.78353 0.68037 0.0
H1337 H 0.28851 0.80153 0.72175 0.0
H1338 H 0.35809 0.81176 0.75855 0.0
C1339 C 0.37869 0.77341 0.6621 0.0
C1340 C 0.36804 0.7622 0.63615 0.0
C1341 C 0.34431 0.75884 0.62991 0.0
C1342 C 0.33151 0.76687 0.64835 0.0
C1343 C 0.3424 0.77787 0.67352 0.0
C1344 C 0.36538 0.78071 0.68072 0.0
C1345 C 0.37237 0.79214 0.70965 0.0
C1346 C 0.38192 0.77478 0.72421 0.0
C1347 C 0.38942 0.81638 0.71407 0.0
C1348 C 0.34985 0.79577 0.7173 0.0
C1349 C 0.33295 0.78759 0.69588 0.0
C1350 C 0.3109 0.78973 0.6973 0.0
C1351 C 0.3058 0.80019 0.72107 0.0
C1352 C 0.32243 0.80822 0.74378 0.0
C1353 C 0.34488 0.80581 0.74174 0.0
H1354 H 0.63194 0.03869 0.89348 0.0
H1355 H 0.57113 0.98649 0.85349 0.0
H1356 H 0.55175 0.99783 0.89022 0.0
H1357 H 0.62932 0.03171 0.95671 0.0
H1358 H 0.63831 0.06332 0.97184 0.0
H1359 H 0.64704 0.05201 0.94197 0.0
H1360 H 0.63024 0.08292 0.92082 0.0
H1361 H 0.62151 0.09443 0.95071 0.0
H1362 H 0.60112 0.08392 0.92131 0.0
H1363 H 0.53967 0.01354 0.93168 0.0
H1364 H 0.535 0.03319 0.97503 0.0
H1365 H 0.60366 0.0756 0.98875 0.0
C1366 C 0.61447 0.02992 0.89247 0.0
C1367 C 0.60285 0.01184 0.87079 0.0
C1368 C 0.58006 1.00066 0.86987 0.0
C1369 C 0.56901 1.0069 0.89064 0.0
C1370 C 0.58092 0.02473 0.91187 0.0
C1371 C 0.60303 0.03635 0.91281 0.0
C1372 C 0.6118 0.0551 0.93782 0.0
C1373 C 0.63286 0.05021 0.95298 0.0
C1374 C 0.61645 0.0806 0.93234 0.0
C1375 C 0.59168 0.05111 0.95151 0.0
C1376 C 0.5739 0.03388 0.93589 0.0
C1377 C 0.55338 0.02723 0.94396 0.0
C1378 C 0.55087 0.03859 0.96856 0.0
C1379 C 0.56889 0.05611 0.98506 0.0
C1380 C 0.58962 0.06233 0.97647 0.0
H1381 H 0.34214 0.47423 0.247 0.0
H1382 H 0.31982 0.43091 0.16958 0.0
H1383 H 0.30913 0.39432 0.18721 0.0
H1384 H 0.36984 0.43584 0.2683 0.0
H1385 H 0.36415 0.44124 0.30083 0.0
H1386 H 0.36402 0.46424 0.28258 0.0
H1387 H 0.32323 0.46593 0.28955 0.0
H1388 H 0.32314 0.44295 0.30814 0.0
H1389 H 0.30132 0.4387 0.28062 0.0
H1390 H 0.30797 0.36129 0.21441 0.0
H1391 H 0.31554 0.33737 0.24774 0.0
H1392 H 0.33985 0.40438 0.30509 0.0
C1393 C 0.33382 0.45723 0.23393 0.0
C1394 C 0.33107 0.45522 0.2072 0.0
C1395 C 0.32133 0.43264 0.19029 0.0
C1396 C 0.31533 0.41183 0.20013 0.0
C1397 C 0.31928 0.41412 0.22685 0.0
C1398 C 0.32802 0.43647 0.24344 0.0
C1399 C 0.33411 0.4342 0.27084 0.0
C1400 C 0.35951 0.44447 0.28121 0.0
C1401 C 0.31957 0.44614 0.28831 0.0
C1402 C 0.32814 0.4072 0.26711 0.0
C1403 C 0.31933 0.39558 0.24189 0.0
C1404 C 0.31454 0.37031 0.23433 0.0
C1405 C 0.31902 0.35685 0.2532 0.0
C1406 C 0.32853 0.36896 0.27891 0.0
C1407 C 0.33269 0.39433 0.28563 0.0
H1408 H 0.18329 0.97672 0.04456 0.0
H1409 H 0.17381 0.93954 0.10699 0.0
H1410 H 0.14604 0.96342 0.11977 0.0
H1411 H 0.18109 0.03466 0.07711 0.0
H1412 H 0.16543 0.042 0.04988 0.0
H1413 H 0.18334 0.02098 0.04467 0.0
H1414 H 0.1496 0.98886 0.01623 0.0
H1415 H 0.13157 0.0098 0.02125 0.0
H1416 H 0.12413 0.98066 0.02908 0.0
H1417 H 0.11885 0.99209 0.12558 0.0
H1418 H 0.09466 0.02157 0.12309 0.0
H1419 H 0.12383 0.04157 0.05858 0.0
C1420 C 0.1752 0.9733 0.06074 0.0
C1421 C 0.18077 0.95599 0.07464 0.0
C1422 C 0.16972 0.95234 0.09576 0.0
C1423 C 0.15401 0.96601 0.10328 0.0
C1424 C 0.14936 0.98329 0.08948 0.0
C1425 C 0.1595 0.98674 0.06846 0.0
C1426 C 0.15166 1.00637 0.05676 0.0
C1427 C 0.17158 0.02724 0.05715 0.0
C1428 C 0.13847 0.99578 0.0292 0.0
C1429 C 0.13618 0.01416 0.07503 0.0
C1430 C 0.13471 1.00034 0.09352 0.0
C1431 C 0.12022 1.00319 0.11141 0.0
C1432 C 0.10667 0.02014 0.11003 0.0
C1433 C 0.10803 0.0346 0.09138 0.0
C1434 C 0.12319 0.03162 0.07384 0.0
H1435 H 0.67825 0.58988 0.96327 0.0
H1436 H 0.72757 0.63762 0.02648 0.0
H1437 H 0.70116 0.63045 0.05655 0.0
H1438 H 0.63078 0.61061 0.98345 0.0
H1439 H 0.61144 0.58154 0.97381 0.0
H1440 H 0.63495 0.58816 0.95737 0.0
H1441 H 0.64796 0.55045 0.96752 0.0
H1442 H 0.6246 0.54393 0.9843 0.0
H1443 H 0.65303 0.54728 1.00054 0.0
H1444 H 0.67044 0.61897 0.07979 0.0
H1445 H 0.63403 0.6098 0.09432 0.0
H1446 H 0.60211 0.57171 0.01641 0.0
C1447 C 0.68336 0.59882 0.98345 0.0
C1448 C 0.70491 0.61444 0.99256 0.0
C1449 C 0.71105 0.6259 0.01902 0.0
C1450 C 0.69629 0.62166 0.03633 0.0
C1451 C 0.67528 0.60614 0.02687 0.0
C1452 C 0.6685 0.59525 1.00102 0.0
C1453 C 0.64405 0.58127 0.99585 0.0
C1454 C 0.62945 0.59099 0.97648 0.0
C1455 C 0.64232 0.55412 0.9865 0.0
C1456 C 0.63809 0.58674 0.02273 0.0
C1457 C 0.6567 0.60045 0.04033 0.0
C1458 C 0.6557 0.60833 0.06623 0.0
C1459 C 0.6349 0.60303 0.07427 0.0
C1460 C 0.61523 0.59032 0.05645 0.0
C1461 C 0.61693 0.58139 0.03045 0.0
H1462 H 0.72485 0.48242 0.30576 0.0
H1463 H 0.7576 0.51372 0.38523 0.0
H1464 H 0.77464 0.47914 0.3859 0.0
H1465 H 0.71382 0.41919 0.31131 0.0
H1466 H 0.72095 0.40718 0.28063 0.0
H1467 H 0.71064 0.43451 0.28508 0.0
H1468 H 0.74609 0.45685 0.27102 0.0
H1469 H 0.75643 0.42954 0.26642 0.0
H1470 H 0.77362 0.45673 0.28747 0.0
H1471 H 0.78888 0.44116 0.37983 0.0
H1472 H 0.80032 0.40304 0.3665 0.0
H1473 H 0.76036 0.39203 0.2904 0.0
C1474 C 0.73574 0.48217 0.32327 0.0
C1475 C 0.7395 0.50185 0.34553 0.0
C1476 C 0.75402 0.49981 0.36772 0.0
C1477 C 0.76396 0.47984 0.36842 0.0
C1478 C 0.75989 0.46108 0.34668 0.0
C1479 C 0.74632 0.46195 0.32429 0.0
C1480 C 0.74559 0.43897 0.30368 0.0
C1481 C 0.7213 0.42408 0.29463 0.0
C1482 C 0.75604 0.44594 0.28077 0.0
C1483 C 0.76031 0.42507 0.31826 0.0
C1484 C 0.76839 0.4386 0.34304 0.0
C1485 C 0.78263 0.43055 0.36041 0.0
C1486 C 0.78914 0.40859 0.35253 0.0
C1487 C 0.78156 0.3938 0.32733 0.0
C1488 C 0.76653 0.40234 0.30994 0.0
H1489 H 0.81793 0.47023 0.61838 0.0
H1490 H 0.78768 0.43404 0.53955 0.0
H1491 H 0.82359 0.44777 0.52501 0.0
H1492 H 0.84767 0.52243 0.6016 0.0
H1493 H 0.87217 0.52758 0.62622 0.0
H1494 H 0.84509 0.51245 0.63128 0.0
H1495 H 0.86158 0.47619 0.63979 0.0
H1496 H 0.88876 0.49126 0.63482 0.0
H1497 H 0.87558 0.46142 0.61604 0.0
H1498 H 0.86076 0.46674 0.51838 0.0
H1499 H 0.8983 0.49205 0.51932 0.0
H1500 H 0.905 0.51821 0.60195 0.0
C1501 C 0.81921 0.46491 0.5982 0.0
C1502 C 0.80051 0.45081 0.57998 0.0
C1503 C 0.80215 0.4446 0.55363 0.0
C1504 C 0.82239 0.45227 0.54527 0.0
C1505 C 0.84056 0.46642 0.56354 0.0
C1506 C 0.83925 0.47292 0.58942 0.0
C1507 C 0.86077 0.49017 0.60442 0.0
C1508 C 0.85614 0.5146 0.61659 0.0
C1509 C 0.87236 0.47908 0.62498 0.0
C1510 C 0.87424 0.49237 0.58281 0.0
C1511 C 0.8622 0.47829 0.5595 0.0
C1512 C 0.87046 0.47776 0.53646 0.0
C1513 C 0.89163 0.49218 0.53713 0.0
C1514 C 0.90412 0.50686 0.56062 0.0
C1515 C 0.89555 0.50693 0.58383 0.0
H1516 H 0.42392 0.21588 0.36272 0.0
H1517 H 0.42529 0.18085 0.28413 0.0
H1518 H 0.39675 0.20225 0.26806 0.0
H1519 H 0.36429 0.21618 0.35541 0.0
H1520 H 0.37026 0.24539 0.37703 0.0
H1521 H 0.38868 0.22518 0.38069 0.0
H1522 H 0.42145 0.25925 0.37845 0.0
H1523 H 0.40337 0.27922 0.3721 0.0
H1524 H 0.42182 0.27109 0.34971 0.0
H1525 H 0.36673 0.22895 0.2614 0.0
H1526 H 0.34255 0.25896 0.26505 0.0
H1527 H 0.36371 0.2764 0.34818 0.0
C1528 C 0.41816 0.21238 0.34208 0.0
C1529 C 0.42693 0.19651 0.32478 0.0
C1530 C 0.41896 0.19294 0.29789 0.0
C1531 C 0.40261 0.20495 0.28859 0.0
C1532 C 0.39438 0.22057 0.30638 0.0
C1533 C 0.40208 0.22418 0.33257 0.0
C1534 C 0.39207 0.24276 0.34802 0.0
C1535 C 0.37796 0.23167 0.36635 0.0
C1536 C 0.41077 0.26442 0.36296 0.0
C1537 C 0.37738 0.24929 0.3266 0.0
C1538 C 0.37853 0.23619 0.30262 0.0
C1539 C 0.3659 0.2393 0.28017 0.0
C1540 C 0.35211 0.25634 0.28238 0.0
C1541 C 0.35127 0.27032 0.30683 0.0
C1542 C 0.36403 0.26635 0.32907 0.0
H1543 H 0.31406 0.07009 0.4993 0.0
H1544 H 0.33447 0.1477 0.51194 0.0
H1545 H 0.36687 0.14825 0.5439 0.0
H1546 H 0.33378 0.06365 0.56502 0.0
H1547 H 0.34489 0.03765 0.55407 0.0
H1548 H 0.32111 0.04336 0.53452 0.0
H1549 H 0.34265 0.04263 0.49582 0.0
H1550 H 0.3663 0.03658 0.51511 0.0
H1551 H 0.37021 0.06216 0.50012 0.0
H1552 H 0.39847 0.14067 0.57196 0.0
H1553 H 0.43016 0.12478 0.59006 0.0
H1554 H 0.39147 0.05176 0.55863 0.0
C1555 C 0.32533 0.08713 0.509 0.0
C1556 C 0.32164 0.10899 0.50321 0.0
C1557 C 0.33687 0.13087 0.51591 0.0
C1558 C 0.3553 0.13135 0.53441 0.0
C1559 C 0.35857 0.1096 0.53972 0.0
C1560 C 0.34435 0.08781 0.52707 0.0
C1561 C 0.35352 0.06693 0.534 0.0
C1562 C 0.33735 0.05202 0.54772 0.0
C1563 C 0.35847 0.05115 0.50983 0.0
C1564 C 0.3751 0.08044 0.55232 0.0
C1565 C 0.37742 0.10509 0.55567 0.0
C1566 C 0.39674 0.12143 0.5699 0.0
C1567 C 0.41457 0.1123 0.58019 0.0
C1568 C 0.41287 0.08715 0.57614 0.0
C1569 C 0.39271 0.07104 0.56269 0.0
H1570 H 0.73307 0.65797 0.37889 0.0
H1571 H 0.74319 0.61393 0.30845 0.0
H1572 H 0.76178 0.65077 0.29546 0.0
H1573 H 0.71926 0.70629 0.34751 0.0
H1574 H 0.73229 0.73024 0.37514 0.0
H1575 H 0.7208 0.70046 0.37958 0.0
H1576 H 0.75933 0.69989 0.40515 0.0
H1577 H 0.77097 0.72959 0.40061 0.0
H1578 H 0.78422 0.70506 0.39054 0.0
H1579 H 0.78122 0.69375 0.29051 0.0
H1580 H 0.79449 0.73724 0.29147 0.0
H1581 H 0.76907 0.75522 0.3627 0.0
C1582 C 0.73924 0.65602 0.36073 0.0
C1583 C 0.73666 0.6324 0.3449 0.0
C1584 C 0.74477 0.6313 0.32111 0.0
C1585 C 0.75553 0.65237 0.31357 0.0
C1586 C 0.75788 0.67519 0.32953 0.0
C1587 C 0.74947 0.67717 0.35243 0.0
C1588 C 0.75286 0.70405 0.36516 0.0
C1589 C 0.72994 0.71065 0.36696 0.0
C1590 C 0.76773 0.71 0.39196 0.0
C1591 C 0.76493 0.71685 0.34632 0.0
C1592 C 0.76785 0.69976 0.326 0.0
C1593 C 0.77882 0.70707 0.30637 0.0
C1594 C 0.78655 0.73204 0.30715 0.0
C1595 C 0.78341 0.75021 0.32728 0.0
C1596 C 0.77227 0.74214 0.34714 0.0
H1597 H 0.90404 0.5868 0.81015 0.0
H1598 H 0.96646 0.57964 0.85293 0.0
H1599 H 0.94949 0.5373 0.8522 0.0
H1600 H 0.86586 0.55454 0.83615 0.0
H1601 H 0.84638 0.53785 0.80737 0.0
H1602 H 0.86424 0.56634 0.80718 0.0
H1603 H 0.88012 0.54644 0.76821 0.0
H1604 H 0.86195 0.51783 0.76794 0.0
H1605 H 0.89191 0.52052 0.77006 0.0
H1606 H 0.92451 0.49916 0.85368 0.0
H1607 H 0.89355 0.46466 0.85307 0.0
H1608 H 0.84725 0.49438 0.80692 0.0
C1609 C 0.91426 0.57591 0.81843 0.0
C1610 C 0.93642 0.58629 0.83175 0.0
C1611 C 0.94941 0.5719 0.84274 0.0
C1612 C 0.93996 0.54782 0.8423 0.0
C1613 C 0.9178 0.5382 0.82984 0.0
C1614 C 0.9053 0.55143 0.81726 0.0
C1615 C 0.88164 0.53659 0.80592 0.0
C1616 C 0.86347 0.54962 0.81473 0.0
C1617 C 0.87872 0.52996 0.77628 0.0
C1618 C 0.88199 0.51441 0.81712 0.0
C1619 C 0.90333 0.51542 0.83 0.0
C1620 C 0.90788 0.49777 0.84305 0.0
C1621 C 0.89023 0.47836 0.84272 0.0
C1622 C 0.86825 0.47696 0.82982 0.0
C1623 C 0.86402 0.49514 0.81678 0.0
H1624 H 0.03505 0.88621 0.20808 0.0
H1625 H 0.07153 0.83499 0.17435 0.0
H1626 H 0.0773 0.85746 0.13947 0.0
H1627 H 1.00512 0.89182 0.1521 0.0
H1628 H 1.00627 0.92363 0.16162 0.0
H1629 H 1.00831 0.90595 0.18578 0.0
H1630 H 0.04643 0.93446 0.209 0.0
H1631 H 0.04429 0.95262 0.18521 0.0
H1632 H 0.06898 0.94056 0.19098 0.0
H1633 H 0.07485 0.88381 0.10529 0.0
H1634 H 0.06616 0.91163 0.07723 0.0
H1635 H 0.03102 0.9449 0.13419 0.0
C1636 C 0.04508 0.88032 0.19393 0.0
C1637 C 0.0534 0.85929 0.19426 0.0
C1638 C 0.0657 0.85155 0.17492 0.0
C1639 C 0.06882 0.86409 0.15491 0.0
C1640 C 0.0597 0.88444 0.15471 0.0
C1641 C 0.04842 0.89268 0.17409 0.0
C1642 C 0.03896 0.91395 0.16896 0.0
C1643 C 1.01314 0.90849 0.16699 0.0
C1644 C 0.05034 0.93675 0.18977 0.0
C1645 C 0.04578 0.91595 0.14313 0.0
C1646 C 0.05801 0.89904 0.13526 0.0
C1647 C 0.06554 0.89726 0.11155 0.0
C1648 C 0.06054 0.91317 0.09572 0.0
C1649 C 0.04783 0.93046 0.10341 0.0
C1650 C 0.04055 0.93177 0.12755 0.0
H1651 H 0.99038 0.36728 0.86406 0.0
H1652 H 0.98361 0.28988 0.84709 0.0
H1653 H 0.94242 0.28387 0.834 0.0
H1654 H 0.94028 0.36563 0.89228 0.0
H1655 H 0.93238 0.39034 0.88003 0.0
H1656 H 0.96161 0.38886 0.88578 0.0
H1657 H 0.96448 0.39121 0.83847 0.0
H1658 H 0.93525 0.39273 0.83256 0.0
H1659 H 0.94508 0.36965 0.81253 0.0
H1660 H 0.90122 0.28594 0.82363 0.0
H1661 H 0.86367 0.29603 0.81934 0.0
H1662 H 0.8959 0.37195 0.84504 0.0
C1663 C 0.98023 0.34912 0.85703 0.0
C1664 C 0.99042 0.32899 0.85602 0.0
C1665 C 0.97634 0.30554 0.84763 0.0
C1666 C 0.95285 0.30195 0.84017 0.0
C1667 C 0.94324 0.322 0.84152 0.0
C1668 C 0.95645 0.34517 0.84991 0.0
C1669 C 0.94153 0.36346 0.85115 0.0
C1670 C 0.94411 0.37792 0.87897 0.0
C1671 C 0.94691 0.38026 0.83257 0.0
C1672 C 0.918 0.347 0.84219 0.0
C1673 C 0.91942 0.32314 0.83649 0.0
C1674 C 0.89999 0.3046 0.82802 0.0
C1675 C 0.87863 0.31049 0.82554 0.0
C1676 C 0.87658 0.33476 0.83171 0.0
C1677 C 0.89673 0.35319 0.84001 0.0
H1678 H 0.54483 0.23207 0.71329 0.0
H1679 H 0.50992 0.25853 0.65242 0.0
H1680 H 0.51654 0.22586 0.61985 0.0
H1681 H 0.5869 0.21177 0.67769 0.0
H1682 H 0.58598 0.18481 0.69019 0.0
H1683 H 0.57977 0.21108 0.70924 0.0
H1684 H 0.54111 0.18574 0.71312 0.0
H1685 H 0.5473 0.1594 0.69425 0.0
H1686 H 0.52189 0.16891 0.68421 0.0
H1687 H 0.5271 0.19115 0.59344 0.0
H1688 H 0.53751 0.15317 0.57502 0.0
H1689 H 0.56323 0.14631 0.65202 0.0
C1690 C 0.53865 0.23095 0.6931 0.0
C1691 C 0.52682 0.24794 0.68548 0.0
C1692 C 0.51883 0.24569 0.65885 0.0
C1693 C 0.52265 0.22727 0.64011 0.0
C1694 C 0.53427 0.21085 0.64815 0.0
C1695 C 0.54189 0.21219 0.67398 0.0
C1696 C 0.55277 0.19118 0.67718 0.0
C1697 C 0.57784 0.20026 0.68929 0.0
C1698 C 0.54 0.17537 0.69313 0.0
C1699 C 0.5499 0.17791 0.64917 0.0
C1700 C 0.53954 0.18992 0.63279 0.0
C1701 C 0.53517 0.18152 0.60605 0.0
C1702 C 0.54118 0.16004 0.59575 0.0
C1703 C 0.55118 0.14704 0.61211 0.0
C1704 C 0.55568 0.15609 0.63916 0.0
H1705 H 0.65034 0.81271 0.39815 0.0
H1706 H 0.62469 0.85715 0.34972 0.0
H1707 H 0.66122 0.86456 0.33412 0.0
H1708 H 0.70814 0.84942 0.41596 0.0
H1709 H 0.72071 0.82374 0.41567 0.0
H1710 H 0.69281 0.82236 0.42336 0.0
H1711 H 0.67729 0.78421 0.38685 0.0
H1712 H 0.70513 0.78549 0.37907 0.0
H1713 H 0.68199 0.78518 0.35444 0.0
H1714 H 0.70053 0.86488 0.32147 0.0
H1715 H 0.73875 0.86012 0.31506 0.0
H1716 H 0.74008 0.81729 0.37341 0.0
C1717 C 0.65237 0.82418 0.38439 0.0
C1718 C 0.63426 0.83431 0.37524 0.0
C1719 C 0.63802 0.84919 0.35722 0.0
C1720 C 0.65882 0.85346 0.34817 0.0
C1721 C 0.67612 0.84299 0.3574 0.0
C1722 C 0.67316 0.82885 0.37537 0.0
C1723 C 0.69443 0.81971 0.38229 0.0
C1724 C 0.70462 0.82939 0.41103 0.0
C1725 C 0.6894 0.792 0.37524 0.0
C1726 C 0.70978 0.83059 0.36518 0.0
C1727 C 0.69884 0.84387 0.35087 0.0
C1728 C 0.7092 0.85471 0.33285 0.0
C1729 C 0.73103 0.85187 0.3293 0.0
C1730 C 0.74279 0.83853 0.34382 0.0
C1731 C 0.73188 0.82794 0.36221 0.0
H1732 H 0.09278 0.30217 0.51995 0.0
H1733 H 0.10514 0.33741 0.60088 0.0
H1734 H 0.08148 0.30169 0.61051 0.0
H1735 H 0.03728 0.28071 0.51622 0.0
H1736 H 0.03442 0.25217 0.49433 0.0
H1737 H 0.05663 0.27739 0.49386 0.0
H1738 H 0.08725 0.25325 0.50211 0.0
H1739 H 0.06505 0.2274 0.50075 0.0
H1740 H 0.08729 0.23786 0.52849 0.0
H1741 H 0.05062 0.26747 0.6097 0.0
H1742 H 0.02473 0.22827 0.6023 0.0
H1743 H 0.03053 0.21524 0.52092 0.0
C1744 C 0.09188 0.30154 0.53992 0.0
C1745 C 0.10083 0.32218 0.5598 0.0
C1746 C 0.09868 0.3214 0.58563 0.0
C1747 C 0.08483 0.30148 0.59111 0.0
C1748 C 0.07374 0.28267 0.57051 0.0
C1749 C 0.07779 0.28196 0.5456 0.0
C1750 C 0.06245 0.26037 0.52679 0.0
C1751 C 0.04678 0.26814 0.50662 0.0
C1752 C 0.07634 0.24372 0.51378 0.0
C1753 C 0.04928 0.24901 0.54514 0.0
C1754 C 0.0557 0.26263 0.57006 0.0
C1755 C 0.04577 0.2563 0.5904 0.0
C1756 C 0.0306 0.23408 0.58576 0.0
C1757 C 0.02592 0.21828 0.56105 0.0
C1758 C 0.03404 0.22673 0.54008 0.0
H1759 H 0.56304 0.25314 0.18802 0.0
H1760 H 0.58045 0.3058 0.14152 0.0
H1761 H 0.61803 0.32082 0.16949 0.0
H1762 H 0.58709 0.29233 0.2477 0.0
H1763 H 0.59634 0.26942 0.26222 0.0
H1764 H 0.57189 0.26131 0.23713 0.0
H1765 H 0.58978 0.23048 0.20969 0.0
H1766 H 0.61387 0.23788 0.23513 0.0
H1767 H 0.61767 0.24027 0.20279 0.0
H1768 H 0.65329 0.3304 0.2039 0.0
H1769 H 0.68431 0.33072 0.23859 0.0
H1770 H 0.64081 0.27428 0.26377 0.0
C1771 C 0.57481 0.26753 0.18326 0.0
C1772 C 0.56887 0.27831 0.16262 0.0
C1773 C 0.58477 0.29724 0.15725 0.0
C1774 C 0.60601 0.306 0.17313 0.0
C1775 C 0.61075 0.29575 0.19426 0.0
C1776 C 0.59561 0.27678 0.19911 0.0
C1777 C 0.60411 0.26927 0.22337 0.0
C1778 C 0.58895 0.27333 0.2438 0.0
C1779 C 0.60651 0.24292 0.21737 0.0
C1780 C 0.62667 0.28668 0.23132 0.0
C1781 C 0.63027 0.30194 0.21446 0.0
C1782 C 0.65056 0.3187 0.21734 0.0
C1783 C 0.66795 0.31898 0.23725 0.0
C1784 C 0.66472 0.30258 0.25379 0.0
C1785 C 0.64356 0.28705 0.25142 0.0
H1786 H 0.6275 0.9486 0.09896 0.0
H1787 H 0.65017 0.95003 0.02621 0.0
H1788 H 0.64185 0.98961 0.02714 0.0
H1789 H 0.58396 0.9583 0.08844 0.0
H1790 H 0.57996 0.97977 0.11552 0.0
H1791 H 0.60038 0.96209 0.1201 0.0
H1792 H 0.63249 0.99991 0.13803 0.0
H1793 H 0.61186 0.01805 0.13531 0.0
H1794 H 0.63654 0.02371 0.12046 0.0
H1795 H 0.60942 1.0068 0.02008 0.0
H1796 H 0.57338 0.01959 0.01882 0.0
H1797 H 0.57271 0.01368 0.0982 0.0
C1798 C 0.63265 0.95849 0.08462 0.0
C1799 C 0.63731 0.94584 0.06143 0.0
C1800 C 0.64523 0.95904 0.0435 0.0
C1801 C 0.64025 0.98158 0.04373 0.0
C1802 C 0.62925 0.99091 0.06318 0.0
C1803 C 0.62728 0.98096 0.08475 0.0
C1804 C 0.6109 0.99135 0.10015 0.0
C1805 C 0.59275 0.97168 0.10634 0.0
C1806 C 0.62372 0.00934 0.12495 0.0
C1807 C 0.60075 1.00434 0.08121 0.0
C1808 C 0.61169 1.00406 0.06014 0.0
C1809 C 0.6018 0.00898 0.03726 0.0
C1810 C 0.58107 0.01569 0.03647 0.0
C1811 C 0.57087 0.01822 0.05869 0.0
C1812 C 0.58075 0.01248 0.08127 0.0
H1813 H 0.93389 0.74841 0.70877 0.0
H1814 H 0.96839 0.80989 0.68246 0.0
H1815 H 0.97396 0.83505 0.72608 0.0
H1816 H 0.90281 0.77992 0.7453 0.0
H1817 H 0.90414 0.76523 0.77208 0.0
H1818 H 0.90631 0.74924 0.74066 0.0
H1819 H 0.94423 0.74072 0.75822 0.0
H1820 H 0.94195 0.75553 0.79023 0.0
H1821 H 0.9667 0.76519 0.77665 0.0
H1822 H 0.97377 0.85449 0.77072 0.0
H1823 H 0.96083 0.86931 0.8111 0.0
H1824 H 0.92356 0.79688 0.80857 0.0
C1825 C 0.94251 0.7672 0.71233 0.0
C1826 C 0.95021 0.77735 0.69215 0.0
C1827 C 0.9617 0.80191 0.69745 0.0
C1828 C 0.96545 0.81623 0.72233 0.0
C1829 C 0.95764 0.80582 0.74183 0.0
C1830 C 0.94607 0.782 0.73713 0.0
C1831 C 0.93664 0.77645 0.76073 0.0
C1832 C 0.91093 0.76715 0.75422 0.0
C1833 C 0.94807 0.75841 0.77213 0.0
C1834 C 0.94336 0.80128 0.77863 0.0
C1835 C 0.95647 0.81758 0.76773 0.0
C1836 C 0.96361 0.84193 0.77958 0.0
C1837 C 0.95608 0.85021 0.80246 0.0
C1838 C 0.94106 0.83431 0.81291 0.0
C1839 C 0.93543 0.80935 0.80139 0.0
H1840 H 0.14792 0.03509 0.91107 0.0
H1841 H 0.16025 0.10946 0.90332 0.0
H1842 H 0.13706 0.11878 0.93669 0.0
H1843 H 0.08914 0.03188 0.91901 0.0
H1844 H 0.08901 0.01244 0.9417 0.0
H1845 H 0.10769 0.01126 0.91833 0.0
H1846 H 0.14196 0.01957 0.95503 0.0
H1847 H 0.12316 0.0203 0.97824 0.0
H1848 H 0.1465 0.04553 0.98121 0.0
H1849 H 0.11109 0.12033 0.96941 0.0
H1850 H 0.08549 0.11488 1.00037 0.0
H1851 H 0.08801 0.0393 0.98974 0.0
C1852 C 0.1462 0.05348 0.9169 0.0
C1853 C 0.15673 0.07177 0.90472 0.0
C1854 C 0.15298 0.09524 0.91238 0.0
C1855 C 0.13964 0.10068 0.93137 0.0
C1856 C 0.12939 0.08242 0.94271 0.0
C1857 C 0.13242 0.05921 0.93584 0.0
C1858 C 0.11829 0.0429 0.95041 0.0
C1859 C 0.09995 0.02346 0.93122 0.0
C1860 C 0.1334 0.0314 0.96723 0.0
C1861 C 0.10757 0.06073 0.96713 0.0
C1862 C 0.11409 0.0833 0.96184 0.0
C1863 C 0.10605 0.10272 0.97371 0.0
C1864 C 0.09123 0.09932 0.99144 0.0
C1865 C 0.08429 0.07665 0.99812 0.0
C1866 C 0.09279 0.05698 0.98552 0.0
H1867 H 0.73362 0.33952 0.63957 0.0
H1868 H 0.77617 0.4102 0.6461 0.0
H1869 H 0.79895 0.40601 0.68602 0.0
H1870 H 0.73451 0.34551 0.70972 0.0
H1871 H 0.73436 0.31417 0.70841 0.0
H1872 H 0.7212 0.32319 0.68081 0.0
H1873 H 0.74599 0.30216 0.65257 0.0
H1874 H 0.75959 0.29358 0.68024 0.0
H1875 H 0.77627 0.31072 0.66169 0.0
H1876 H 0.81736 0.39411 0.72494 0.0
H1877 H 0.82817 0.3769 0.76243 0.0
H1878 H 0.77434 0.31344 0.73124 0.0
C1879 C 0.7475 0.35423 0.64975 0.0
C1880 C 0.75302 0.37535 0.63997 0.0
C1881 C 0.7715 0.39407 0.65349 0.0
C1882 C 0.78462 0.39175 0.67606 0.0
C1883 C 0.77903 0.37058 0.68502 0.0
C1884 C 0.76069 0.35228 0.67256 0.0
C1885 C 0.75815 0.33165 0.6867 0.0
C1886 C 0.73573 0.32844 0.69702 0.0
C1887 C 0.76012 0.30813 0.66925 0.0
C1888 C 0.77817 0.34096 0.70869 0.0
C1889 C 0.78992 0.36351 0.70732 0.0
C1890 C 0.80839 0.37639 0.72606 0.0
C1891 C 0.81454 0.3664 0.74719 0.0
C1892 C 0.80256 0.34356 0.74935 0.0
C1893 C 0.78436 0.3305 0.72957 0.0
H1894 H 0.48984 0.15025 0.41963 0.0
H1895 H 0.54284 0.12894 0.38068 0.0
H1896 H 0.55783 0.11494 0.41879 0.0
H1897 H 0.5238 0.16948 0.48556 0.0
H1898 H 0.50064 0.15769 0.50053 0.0
H1899 H 0.49525 0.16837 0.47124 0.0
H1900 H 0.46867 0.1271 0.44909 0.0
H1901 H 0.47387 0.11636 0.4783 0.0
H1902 H 0.47903 0.09995 0.44837 0.0
H1903 H 0.56686 0.10216 0.4611 0.0
H1904 H 0.56665 0.08825 0.50225 0.0
H1905 H 0.50661 0.1151 0.51287 0.0
C1906 C 0.50486 0.14312 0.41933 0.0
C1907 C 0.51531 0.14107 0.39714 0.0
C1908 C 0.53459 0.13093 0.39742 0.0
C1909 C 0.54331 0.12295 0.41906 0.0
C1910 C 0.53257 0.125 0.44051 0.0
C1911 C 0.51366 0.1347 0.44079 0.0
C1912 C 0.50446 0.1333 0.46566 0.0
C1913 C 0.50614 0.15872 0.4817 0.0
C1914 C 0.48006 0.11827 0.46001 0.0
C1915 C 0.52067 0.12065 0.47887 0.0
C1916 C 0.53714 0.11662 0.46435 0.0
C1917 C 0.55409 0.10534 0.47266 0.0
C1918 C 0.55399 0.09766 0.49617 0.0
C1919 C 0.53679 0.10078 0.51084 0.0
C1920 C 0.52004 0.11257 0.50206 0.0
H1921 H 0.78826 0.70619 0.04204 0.0
H1922 H 0.83556 0.66351 0.06304 0.0
H1923 H 0.84284 0.6864 0.10825 0.0
H1924 H 0.82003 0.76259 0.08286 0.0
H1925 H 0.79558 0.77285 0.0916 0.0
H1926 H 0.79353 0.75291 0.06082 0.0
H1927 H 0.76085 0.72233 0.07116 0.0
H1928 H 0.7625 0.74246 0.10169 0.0
H1929 H 0.76482 0.71178 0.10074 0.0
H1930 H 0.84398 0.71259 0.15083 0.0
H1931 H 0.83852 0.74086 0.18911 0.0
H1932 H 0.79222 0.76808 0.14003 0.0
C1933 C 0.80007 0.70176 0.05629 0.0
C1934 C 0.81167 0.68348 0.04941 0.0
C1935 C 0.82701 0.67792 0.06822 0.0
C1936 C 0.83114 0.6907 0.09381 0.0
C1937 C 0.8199 0.70907 0.10001 0.0
C1938 C 0.80468 0.71465 0.08188 0.0
C1939 C 0.795 0.73535 0.09373 0.0
C1940 C 0.80143 0.75722 0.08152 0.0
C1941 C 0.76927 0.72749 0.09171 0.0
C1942 C 0.80695 0.74023 0.12134 0.0
C1943 C 0.82121 0.72485 0.12455 0.0
C1944 C 0.83309 0.72495 0.14861 0.0
C1945 C 0.82993 0.74096 0.17012 0.0
C1946 C 0.81522 0.7566 0.16714 0.0
C1947 C 0.80393 0.75656 0.14249 0.0
H1948 H 0.14031 0.01136 0.72518 0.0
H1949 H 0.14852 0.08028 0.77806 0.0
H1950 H 0.12646 0.09442 0.74452 0.0
H1951 H 0.14617 0.03661 0.66811 0.0
H1952 H 0.1257 0.01209 0.6465 0.0
H1953 H 0.14165 1.00682 0.67481 0.0
H1954 H 0.10445 0.98933 0.68943 0.0
H1955 H 0.08843 0.99469 0.66122 0.0
H1956 H 0.08361 1.00723 0.69294 0.0
H1957 H 0.10232 0.1009 0.70615 0.0
H1958 H 0.0812 0.10114 0.66394 0.0
H1959 H 0.08998 0.02923 0.63349 0.0
C1960 C 0.13755 0.02946 0.72964 0.0
C1961 C 0.1463 0.04468 0.75446 0.0
C1962 C 0.14228 0.06828 0.75931 0.0
C1963 C 0.12959 0.07646 0.74037 0.0
C1964 C 0.12115 0.06104 0.71629 0.0
C1965 C 0.1252 0.03817 0.71064 0.0
C1966 C 0.11483 0.02574 0.68271 0.0
C1967 C 0.13319 0.01997 0.66711 0.0
C1968 C 0.09676 1.00289 0.68152 0.0
C1969 C 0.10429 0.04518 0.67367 0.0
C1970 C 0.10793 0.06523 0.69357 0.0
C1971 C 0.09953 0.08536 0.69038 0.0
C1972 C 0.08741 0.08525 0.6662 0.0
C1973 C 0.08387 0.06527 0.64508 0.0
C1974 C 0.09243 0.04488 0.64906 0.0
H1975 H 0.78219 0.35395 0.51828 0.0
H1976 H 0.7371 0.39927 0.4982 0.0
H1977 H 0.74157 0.38809 0.45231 0.0
H1978 H 0.82092 0.36784 0.47842 0.0
H1979 H 0.82556 0.33783 0.46936 0.0
H1980 H 0.81685 0.34724 0.49976 0.0
H1981 H 0.78244 0.31099 0.48766 0.0
H1982 H 0.79115 0.30127 0.45725 0.0
H1983 H 0.76319 0.30649 0.45782 0.0
H1984 H 0.7532 0.37356 0.40868 0.0
H1985 H 0.77031 0.35766 0.37191 0.0
H1986 H 0.80922 0.32274 0.42069 0.0
C1987 C 0.77288 0.36126 0.50422 0.0
C1988 C 0.75909 0.37746 0.51204 0.0
C1989 C 0.7474 0.38657 0.49283 0.0
C1990 C 0.74999 0.38039 0.46669 0.0
C1991 C 0.76414 0.36481 0.45987 0.0
C1992 C 0.77518 0.35517 0.47813 0.0
C1993 C 0.78996 0.33943 0.46611 0.0
C1994 C 0.8148 0.34865 0.47919 0.0
C1995 C 0.78117 0.31298 0.46728 0.0
C1996 C 0.78653 0.34262 0.43839 0.0
C1997 C 0.77115 0.35689 0.43509 0.0
C1998 C 0.76513 0.36231 0.41118 0.0
C1999 C 0.77502 0.35309 0.39029 0.0
C2000 C 0.79126 0.33886 0.39318 0.0
C2001 C 0.79695 0.33353 0.41771 0.0
H2002 H 0.5358 0.15394 0.25309 0.0
H2003 H 0.47292 0.10194 0.24731 0.0
H2004 H 0.47929 0.07932 0.20606 0.0
H2005 H 0.53 0.15371 0.18466 0.0
H2006 H 0.55969 0.15685 0.18386 0.0
H2007 H 0.55045 0.16918 0.21307 0.0
H2008 H 0.57284 0.14475 0.23827 0.0
H2009 H 0.58219 0.13223 0.20922 0.0
H2010 H 0.56774 0.1125 0.22719 0.0
H2011 H 0.4919 0.06262 0.16547 0.0
H2012 H 0.50909 0.05387 0.12656 0.0
H2013 H 0.56462 0.11559 0.15867 0.0
C2014 C 0.52332 0.13782 0.24313 0.0
C2015 C 0.50384 0.12968 0.25354 0.0
C2016 C 0.48791 0.10859 0.23977 0.0
C2017 C 0.49144 0.09554 0.21636 0.0
C2018 C 0.51094 0.10384 0.20689 0.0
C2019 C 0.52654 0.1246 0.21965 0.0
C2020 C 0.5458 0.12984 0.20481 0.0
C2021 C 0.54652 0.15381 0.19609 0.0
C2022 C 0.56848 0.12982 0.22084 0.0
C2023 C 0.53875 0.10852 0.18193 0.0
C2024 C 0.51851 0.09387 0.18353 0.0
C2025 C 0.50784 0.0738 0.16412 0.0
C2026 C 0.51778 0.06891 0.14218 0.0
C2027 C 0.53835 0.08377 0.13991 0.0
C2028 C 0.54921 0.10357 0.16027 0.0
H2029 H 0.77132 0.71265 0.94636 0.0
H2030 H 0.82754 0.68673 0.91846 0.0
H2031 H 0.83833 0.72313 0.902 0.0
H2032 H 0.755 0.73631 0.89189 0.0
H2033 H 0.74827 0.76285 0.90981 0.0
H2034 H 0.74632 0.73619 0.92284 0.0
H2035 H 0.77321 0.76176 0.96432 0.0
H2036 H 0.77586 0.78828 0.95077 0.0
H2037 H 0.80067 0.77826 0.96188 0.0
H2038 H 0.84482 0.76166 0.89047 0.0
H2039 H 0.83827 0.79281 0.86719 0.0
H2040 H 0.77502 0.7928 0.89475 0.0
C2041 C 0.78574 0.71466 0.93659 0.0
C2042 C 0.79896 0.69706 0.93433 0.0
C2043 C 0.81754 0.70021 0.92112 0.0
C2044 C 0.82403 0.721 0.91196 0.0
C2045 C 0.81166 0.7386 0.91576 0.0
C2046 C 0.79237 0.73545 0.92669 0.0
C2047 C 0.78088 0.75634 0.92504 0.0
C2048 C 0.75616 0.74737 0.91156 0.0
C2049 C 0.78275 0.77208 0.95211 0.0
C2050 C 0.79549 0.76994 0.90908 0.0
C2051 C 0.81411 0.76034 0.90607 0.0
C2052 C 0.83032 0.76934 0.8924 0.0
C2053 C 0.82653 0.78725 0.87938 0.0
C2054 C 0.80625 0.79522 0.87915 0.0
C2055 C 0.79094 0.78735 0.89514 0.0
H2056 H 0.93376 0.17287 0.08804 0.0
H2057 H 0.92252 0.18287 0.00943 0.0
H2058 H 0.94525 0.15311 0.99656 0.0
H2059 H 0.9909 0.16856 0.09067 0.0
H2060 H 0.98893 0.1459 0.1098 0.0
H2061 H 0.97056 0.16664 0.11213 0.0
H2062 H 0.9359 0.13061 0.10084 0.0
H2063 H 0.9543 0.10984 0.09827 0.0
H2064 H 0.93241 0.10805 0.07157 0.0
H2065 H 0.97064 0.12207 0.99252 0.0
H2066 H 0.99829 0.09656 0.99902 0.0
H2067 H 0.9937 0.10814 0.08025 0.0
C2068 C 0.93591 0.16871 0.06805 0.0
C2069 C 0.92616 0.18033 0.04976 0.0
C2070 C 0.92967 0.17432 0.02387 0.0
C2071 C 0.94254 0.1573 0.01633 0.0
C2072 C 0.95194 0.14623 0.03484 0.0
C2073 C 0.94882 0.15184 0.06024 0.0
C2074 C 0.96152 0.13831 0.07672 0.0
C2075 C 0.97902 0.15591 0.09861 0.0
C2076 C 0.94505 0.12066 0.08748 0.0
C2077 C 0.97282 0.12481 0.05689 0.0
C2078 C 0.96675 0.12911 0.03268 0.0
C2079 C 0.97536 0.11858 0.01143 0.0
C2080 C 0.99094 0.10392 0.0152 0.0
C2081 C 0.99806 0.10019 0.04009 0.0
C2082 C 0.98853 0.11057 0.06098 0.0
H2083 H 0.41423 0.51167 0.15247 0.0
H2084 H 0.40043 0.58125 0.14646 0.0
H2085 H 0.4331 0.5894 0.12421 0.0
H2086 H 0.47534 0.52939 0.16335 0.0
H2087 H 0.4782 0.50157 0.14384 0.0
H2088 H 0.4545 0.50194 0.16045 0.0
H2089 H 0.42715 0.48332 0.1171 0.0
H2090 H 0.45071 0.48306 0.10025 0.0
H2091 H 0.42909 0.49822 0.09047 0.0
H2092 H 0.46566 0.58879 0.10039 0.0
H2093 H 0.49721 0.58044 0.07857 0.0
H2094 H 0.49078 0.51185 0.10125 0.0
C2095 C 0.41838 0.52888 0.14722 0.0
C2096 C 0.40503 0.54603 0.1517 0.0
C2097 C 0.41058 0.56795 0.14341 0.0
C2098 C 0.42905 0.57271 0.13073 0.0
C2099 C 0.44167 0.55524 0.12629 0.0
C2100 C 0.43663 0.5338 0.13434 0.0
C2101 C 0.45227 0.5176 0.12621 0.0
C2102 C 0.46589 0.51232 0.14988 0.0
C2103 C 0.43901 0.49416 0.10739 0.0
C2104 C 0.46719 0.53343 0.11266 0.0
C2105 C 0.46062 0.55499 0.11279 0.0
C2106 C 0.47127 0.57224 0.10073 0.0
C2107 C 0.48941 0.56756 0.08876 0.0
C2108 C 0.49703 0.54611 0.08928 0.0
C2109 C 0.48546 0.52857 0.10091 0.0
H2110 H 0.36008 0.6526 0.84551 0.0
H2111 H 0.39124 0.6512 0.77713 0.0
H2112 H 0.37884 0.68825 0.77098 0.0
H2113 H 0.31085 0.67452 0.82084 0.0
H2114 H 0.31022 0.69335 0.8515 0.0
H2115 H 0.32122 0.66657 0.85046 0.0
H2116 H 0.35858 0.6921 0.87869 0.0
H2117 H 0.34771 0.71896 0.87973 0.0
H2118 H 0.37391 0.71749 0.86836 0.0
H2119 H 0.36468 0.72812 0.77363 0.0
H2120 H 0.34814 0.76385 0.78275 0.0
H2121 H 0.32364 0.73968 0.848 0.0
C2122 C 0.36412 0.65981 0.82897 0.0
C2123 C 0.37677 0.64818 0.81169 0.0
C2124 C 0.38158 0.659 0.79065 0.0
C2125 C 0.37461 0.68037 0.78705 0.0
C2126 C 0.36248 0.69134 0.80447 0.0
C2127 C 0.35705 0.68122 0.82493 0.0
C2128 C 0.34378 0.69668 0.84087 0.0
C2129 C 0.32011 0.68189 0.84092 0.0
C2130 C 0.35677 0.70691 0.86856 0.0
C2131 C 0.34247 0.71701 0.82625 0.0
C2132 C 0.35367 0.71365 0.80546 0.0
C2133 C 0.3557 0.73052 0.78971 0.0
C2134 C 0.34617 0.75098 0.79508 0.0
C2135 C 0.3341 0.75491 0.81586 0.0
C2136 C 0.3323 0.73735 0.83164 0.0
H2137 H 0.28738 0.67794 0.51501 0.0
H2138 H 0.33066 0.64687 0.56332 0.0
H2139 H 0.29744 0.62503 0.57755 0.0
H2140 H 0.25108 0.68905 0.55765 0.0
H2141 H 0.22541 0.681 0.53425 0.0
H2142 H 0.25196 0.69161 0.52468 0.0
H2143 H 0.24495 0.65285 0.48883 0.0
H2144 H 0.21813 0.64232 0.498 0.0
H2145 H 0.23856 0.62378 0.49711 0.0
H2146 H 0.26118 0.61008 0.58971 0.0
H2147 H 0.22207 0.60051 0.59782 0.0
H2148 H 0.20163 0.64159 0.54249 0.0
C2149 C 0.28957 0.66578 0.52779 0.0
C2150 C 0.3112 0.66336 0.53771 0.0
C2151 C 0.31395 0.64822 0.55517 0.0
C2152 C 0.29528 0.63591 0.5634 0.0
C2153 C 0.27412 0.63899 0.55382 0.0
C2154 C 0.27101 0.65325 0.53617 0.0
C2155 C 0.24649 0.65448 0.53028 0.0
C2156 C 0.24358 0.68059 0.53714 0.0
C2157 C 0.23644 0.64265 0.50187 0.0
C2158 C 0.23662 0.63954 0.54823 0.0
C2159 C 0.25288 0.63055 0.5613 0.0
C2160 C 0.24817 0.61664 0.57934 0.0
C2161 C 0.22606 0.61136 0.58386 0.0
C2162 C 0.20919 0.62026 0.57061 0.0
C2163 C 0.21445 0.63465 0.55273 0.0
H2164 H 0.70401 0.94744 0.8079 0.0
H2165 H 0.70082 0.96311 0.8899 0.0
H2166 H 0.73015 0.94124 0.89845 0.0
H2167 H 0.71131 0.88904 0.80279 0.0
H2168 H 0.73251 0.8898 0.78227 0.0
H2169 H 0.71291 0.90917 0.78088 0.0
H2170 H 0.74458 0.94665 0.79036 0.0
H2171 H 0.76587 0.92926 0.79259 0.0
H2172 H 0.76568 0.95327 0.81904 0.0
H2173 H 0.7597 0.91726 0.89913 0.0
H2174 H 0.78504 0.88935 0.89042 0.0
H2175 H 0.76908 0.88724 0.80848 0.0
C2176 C 0.7095 0.94628 0.8276 0.0
C2177 C 0.69991 0.95731 0.84809 0.0
C2178 C 0.70783 0.95527 0.87366 0.0
C2179 C 0.72465 0.94282 0.8789 0.0
C2180 C 0.73381 0.93235 0.8585 0.0
C2181 C 0.72661 0.93389 0.83336 0.0
C2182 C 0.73936 0.92056 0.81516 0.0
C2183 C 0.72307 0.90094 0.794 0.0
C2184 C 0.75475 0.9385 0.80357 0.0
C2185 C 0.75333 0.90986 0.83375 0.0
C2186 C 0.7505 0.91771 0.85881 0.0
C2187 C 0.76205 0.9109 0.87954 0.0
C2188 C 0.77646 0.89511 0.87447 0.0
C2189 C 0.77888 0.88594 0.84884 0.0
C2190 C 0.76736 0.89374 0.8283 0.0
H2191 H 0.79067 0.07357 0.64548 0.0
H2192 H 0.77796 0.99542 0.62928 0.0
H2193 H 0.74305 0.99315 0.59905 0.0
H2194 H 0.73293 0.07746 0.64438 0.0
H2195 H 0.73629 0.10344 0.63 0.0
H2196 H 0.75996 0.09828 0.65011 0.0
H2197 H 0.78289 0.09992 0.61266 0.0
H2198 H 0.75908 0.10455 0.59227 0.0
H2199 H 0.7718 0.0797 0.58172 0.0
H2200 H 0.70887 1.00003 0.57083 0.0
H2201 H 0.678 0.01548 0.54958 0.0
H2202 H 0.71467 0.08875 0.58448 0.0
C2203 C 0.78055 0.05594 0.63567 0.0
C2204 C 0.78702 0.0347 0.63973 0.0
C2205 C 0.77323 0.01197 0.62657 0.0
C2206 C 0.75347 0.0105 0.60923 0.0
C2207 C 0.74781 0.0319 0.60536 0.0
C2208 C 0.76091 0.05415 0.61842 0.0
C2209 C 0.75105 0.07452 0.61154 0.0
C2210 C 0.74468 0.08928 0.63542 0.0
C2211 C 0.76717 0.09061 0.59879 0.0
C2212 C 0.73038 0.06036 0.59245 0.0
C2213 C 0.72866 0.03579 0.58904 0.0
C2214 C 0.71017 0.01925 0.57323 0.0
C2215 C 0.69277 0.02816 0.56123 0.0
C2216 C 0.69414 0.05333 0.56509 0.0
C2217 C 0.71343 0.06947 0.58049 0.0
H2218 H 0.38092 0.51243 0.85331 0.0
H2219 H 0.36967 0.50738 0.77068 0.0
H2220 H 0.35207 0.46368 0.76402 0.0
H2221 H 0.39638 0.45441 0.85006 0.0
H2222 H 0.38359 0.44819 0.87729 0.0
H2223 H 0.3942 0.47891 0.87517 0.0
H2224 H 0.35512 0.48807 0.87953 0.0
H2225 H 0.34432 0.45732 0.88148 0.0
H2226 H 0.33052 0.47001 0.85724 0.0
H2227 H 0.33259 0.41885 0.76733 0.0
H2228 H 0.31977 0.37954 0.77931 0.0
H2229 H 0.3478 0.41264 0.85935 0.0
C2230 C 0.37468 0.50226 0.8337 0.0
C2231 C 0.37657 0.51409 0.81253 0.0
C2232 C 0.3685 0.49938 0.78736 0.0
C2233 C 0.35832 0.47431 0.78342 0.0
C2234 C 0.35656 0.46342 0.80475 0.0
C2235 C 0.36505 0.47703 0.82942 0.0
C2236 C 0.36234 0.46101 0.84917 0.0
C2237 C 0.3855 0.46061 0.86379 0.0
C2238 C 0.34718 0.46962 0.86797 0.0
C2239 C 0.35083 0.43621 0.83204 0.0
C2240 C 0.34718 0.43799 0.80645 0.0
C2241 C 0.33574 0.41756 0.78735 0.0
C2242 C 0.32827 0.39511 0.79438 0.0
C2243 C 0.33252 0.39245 0.82034 0.0
C2244 C 0.34414 0.41363 0.83927 0.0
H2245 H 0.19712 0.55302 0.31199 0.0
H2246 H 0.18491 0.58031 0.38888 0.0
H2247 H 0.20777 0.62046 0.38888 0.0
H2248 H 0.25544 0.58636 0.32385 0.0
H2249 H 0.25455 0.59156 0.29159 0.0
H2250 H 0.23671 0.56504 0.29717 0.0
H2251 H 0.20152 0.57672 0.27512 0.0
H2252 H 0.21926 0.6032 0.2694 0.0
H2253 H 0.19623 0.60606 0.28666 0.0
H2254 H 0.23121 0.65749 0.38045 0.0
H2255 H 0.25445 0.68939 0.36443 0.0
H2256 H 0.2536 0.63778 0.2939 0.0
C2257 C 0.19914 0.56755 0.32869 0.0
C2258 C 0.18918 0.56374 0.35039 0.0
C2259 C 0.19248 0.58295 0.37212 0.0
C2260 C 0.20539 0.60578 0.37228 0.0
C2261 C 0.21519 0.60894 0.35073 0.0
C2262 C 0.21241 0.59036 0.3294 0.0
C2263 C 0.22549 0.59846 0.30918 0.0
C2264 C 0.24415 0.58452 0.30522 0.0
C2265 C 0.20967 0.59597 0.28358 0.0
C2266 C 0.23543 0.62468 0.32217 0.0
C2267 C 0.22937 0.63025 0.34618 0.0
C2268 C 0.23626 0.65332 0.36179 0.0
C2269 C 0.24963 0.67128 0.35258 0.0
C2270 C 0.25607 0.6661 0.32799 0.0
C2271 C 0.24889 0.64238 0.31271 0.0
H2272 H 0.58411 0.80433 0.47704 0.0
H2273 H 0.53082 0.75431 0.42017 0.0
H2274 H 0.53081 0.72379 0.44662 0.0
H2275 H 0.61422 0.75765 0.49436 0.0
H2276 H 0.62148 0.77232 0.52809 0.0
H2277 H 0.61854 0.78997 0.50392 0.0
H2278 H 0.58928 0.80836 0.52688 0.0
H2279 H 0.59177 0.7904 0.55079 0.0
H2280 H 0.56454 0.78867 0.53229 0.0
H2281 H 0.53324 0.70039 0.48021 0.0
H2282 H 0.54248 0.68186 0.51687 0.0
H2283 H 0.59577 0.74502 0.55253 0.0
C2284 C 0.57313 0.78661 0.46983 0.0
C2285 C 0.55777 0.78137 0.44628 0.0
C2286 C 0.543 0.75837 0.43786 0.0
C2287 C 0.54271 0.74103 0.45287 0.0
C2288 C 0.55746 0.74683 0.47629 0.0
C2289 C 0.5728 0.76876 0.4846 0.0
C2290 C 0.58654 0.77002 0.51087 0.0
C2291 C 0.61169 0.77264 0.5092 0.0
C2292 C 0.5828 0.79059 0.53142 0.0
C2293 C 0.57636 0.74547 0.51586 0.0
C2294 C 0.55937 0.73269 0.49572 0.0
C2295 C 0.54671 0.71004 0.49598 0.0
C2296 C 0.55194 0.69976 0.51703 0.0
C2297 C 0.56979 0.71197 0.53757 0.0
C2298 C 0.58212 0.73523 0.53701 0.0
H2299 H 0.64527 0.35621 0.7746 0.0
H2300 H 0.61129 0.28693 0.78607 0.0
H2301 H 0.64834 0.27899 0.80183 0.0
H2302 H 0.69254 0.33686 0.75138 0.0
H2303 H 0.71262 0.36444 0.76723 0.0
H2304 H 0.68345 0.36485 0.75788 0.0
H2305 H 0.68214 0.38471 0.80506 0.0
H2306 H 0.71127 0.38408 0.81457 0.0
H2307 H 0.68999 0.37013 0.83075 0.0
H2308 H 0.69017 0.27851 0.81628 0.0
H2309 H 0.73176 0.28403 0.82413 0.0
H2310 H 0.73886 0.35301 0.80219 0.0
C2311 C 0.6455 0.33934 0.78048 0.0
C2312 C 0.62496 0.32225 0.77906 0.0
C2313 C 0.62646 0.30042 0.78691 0.0
C2314 C 0.64757 0.29578 0.79601 0.0
C2315 C 0.66737 0.31307 0.79728 0.0
C2316 C 0.66647 0.33437 0.78951 0.0
C2317 C 0.69022 0.34971 0.79196 0.0
C2318 C 0.69498 0.35422 0.76554 0.0
C2319 C 0.6936 0.37358 0.81175 0.0
C2320 C 0.70472 0.33361 0.80188 0.0
C2321 C 0.69119 0.3127 0.80523 0.0
C2322 C 0.70076 0.29496 0.8139 0.0
C2323 C 0.7245 0.29836 0.81863 0.0
C2324 C 0.73876 0.31931 0.81472 0.0
C2325 C 0.72856 0.33718 0.80629 0.0
H2326 H 0.03547 0.39089 0.97931 0.0
H2327 H 0.07312 0.41283 0.92107 0.0
H2328 H 0.0798 0.45535 0.9441 0.0
H2329 H 1.00772 0.438 0.98895 0.0
H2330 H 1.01033 0.44198 0.02354 0.0
H2331 H 1.01005 0.41299 0.00404 0.0
H2332 H 0.04831 0.41255 0.0306 0.0
H2333 H 0.04857 0.44141 0.0505 0.0
H2334 H 0.07201 0.43755 0.0343 0.0
H2335 H 0.07961 0.49523 0.97087 0.0
H2336 H 0.07548 0.53049 1.00153 0.0
H2337 H 0.03837 0.48369 0.04393 0.0
C2338 C 0.04536 0.40462 0.97156 0.0
C2339 C 0.0537 0.39848 0.94824 0.0
C2340 C 0.06667 0.417 0.93889 0.0
C2341 C 0.07048 0.44123 0.95182 0.0
C2342 C 0.06154 0.44666 0.97433 0.0
C2343 C 0.04961 0.4289 0.98445 0.0
C2344 C 0.04174 0.43978 0.00891 0.0
C2345 C 1.01592 0.43277 0.00618 0.0
C2346 C 0.05335 0.43238 0.03247 0.0
C2347 C 0.05004 0.46652 0.01017 0.0
C2348 C 0.06168 0.46991 0.99016 0.0
C2349 C 0.07079 0.49278 0.98678 0.0
C2350 C 0.0683 0.51275 0.00444 0.0
C2351 C 0.05668 0.51001 0.0254 0.0
C2352 C 0.04726 0.48645 0.02814 0.0
H2353 H 0.97438 0.83378 0.26794 0.0
H2354 H 0.98582 0.77167 0.29767 0.0
H2355 H 0.94802 0.76624 0.31035 0.0
H2356 H 0.94531 0.85578 0.32013 0.0
H2357 H 0.92624 0.86735 0.29979 0.0
H2358 H 0.95382 0.86596 0.29228 0.0
H2359 H 0.93566 0.84078 0.24659 0.0
H2360 H 0.90803 0.84208 0.25396 0.0
H2361 H 0.91469 0.81329 0.24308 0.0
H2362 H 0.90878 0.76834 0.32146 0.0
H2363 H 0.87217 0.77739 0.32941 0.0
H2364 H 0.88481 0.83792 0.29228 0.0
C2365 C 0.96885 0.81886 0.27689 0.0
C2366 C 0.98332 0.80296 0.28149 0.0
C2367 C 0.97535 0.78408 0.2938 0.0
C2368 C 0.95376 0.78086 0.30109 0.0
C2369 C 0.94006 0.79687 0.29646 0.0
C2370 C 0.94737 0.81564 0.28477 0.0
C2371 C 0.92972 0.83098 0.28315 0.0
C2372 C 0.93935 0.85653 0.29982 0.0
C2373 C 0.92154 0.83182 0.25501 0.0
C2374 C 0.91089 0.81734 0.29463 0.0
C2375 C 0.91746 0.79796 0.30263 0.0
C2376 C 0.90355 0.78339 0.31506 0.0
C2377 C 0.88266 0.78869 0.31955 0.0
C2378 C 0.87517 0.80815 0.31126 0.0
C2379 C 0.88964 0.82258 0.29844 0.0
H2380 H 0.49676 0.34055 0.11493 0.0
H2381 H 0.51334 0.29228 0.05169 0.0
H2382 H 0.54542 0.32446 0.04874 0.0
H2383 H 0.50712 0.39319 0.09286 0.0
H2384 H 0.51983 0.41249 0.12392 0.0
H2385 H 0.49998 0.38478 0.12211 0.0
H2386 H 0.52992 0.37207 0.15245 0.0
H2387 H 0.55005 0.39961 0.1535 0.0
H2388 H 0.55705 0.37089 0.14344 0.0
H2389 H 0.57208 0.36246 0.0492 0.0
H2390 H 0.58759 0.40462 0.04859 0.0
H2391 H 0.5567 0.42804 0.11452 0.0
C2392 C 0.50699 0.33696 0.10023 0.0
C2393 C 0.50231 0.31434 0.08293 0.0
C2394 C 0.51646 0.3098 0.06462 0.0
C2395 C 0.53491 0.32775 0.06318 0.0
C2396 C 0.53933 0.34979 0.08079 0.0
C2397 C 0.52578 0.35446 0.09898 0.0
C2398 C 0.53334 0.38012 0.11452 0.0
C2399 C 0.51392 0.39342 0.11323 0.0
C2400 C 0.54318 0.3807 0.14264 0.0
C2401 C 0.55168 0.38985 0.10032 0.0
C2402 C 0.55554 0.37178 0.0817 0.0
C2403 C 0.56961 0.37672 0.06402 0.0
C2404 C 0.57853 0.40084 0.06396 0.0
C2405 C 0.57311 0.41965 0.08132 0.0
C2406 C 0.56096 0.41399 0.10092 0.0
H2407 H 0.03762 0.36349 0.48922 0.0
H2408 H 0.0668 0.43626 0.48292 0.0
H2409 H 0.03336 0.43506 0.45094 0.0
H2410 H 1.01923 0.34235 0.42309 0.0
H2411 H 0.99395 0.32162 0.42548 0.0
H2412 H 1.01799 0.32922 0.45105 0.0
H2413 H 0.99373 0.34329 0.48451 0.0
H2414 H 0.96947 0.3349 0.45916 0.0
H2415 H 0.97737 0.36509 0.47878 0.0
H2416 H 0.99989 0.42442 0.41675 0.0
H2417 H 0.96478 0.40719 0.38555 0.0
H2418 H 0.9579 0.34029 0.41248 0.0
C2419 C 0.03648 0.37957 0.48199 0.0
C2420 C 0.05441 0.40023 0.4888 0.0
C2421 C 0.05295 0.42052 0.47812 0.0
C2422 C 0.03418 0.41988 0.45988 0.0
C2423 C 1.0174 0.39869 0.45243 0.0
C2424 C 1.01819 0.37897 0.46332 0.0
C2425 C 0.99906 0.35764 0.45014 0.0
C2426 C 1.00811 0.33647 0.43665 0.0
C2427 C 0.98401 0.34979 0.4693 0.0
C2428 C 0.98701 0.36874 0.43061 0.0
C2429 C 0.99817 0.39226 0.43204 0.0
C2430 C 0.99088 0.40612 0.41551 0.0
C2431 C 0.97111 0.39604 0.39764 0.0
C2432 C 0.95882 0.3724 0.39657 0.0
C2433 C 0.96706 0.3584 0.41297 0.0
H2434 H 1.00013 0.71019 0.61956 0.0
H2435 H 0.96179 0.70898 0.54513 0.0
H2436 H 0.98328 0.6809 0.52395 0.0
H2437 H 0.0529 0.71275 0.59993 0.0
H2438 H 0.06181 0.69403 0.62086 0.0
H2439 H 0.04238 0.7124 0.62982 0.0
H2440 H 1.01322 0.6748 0.63395 0.0
H2441 H 0.03296 0.65655 0.62608 0.0
H2442 H 1.00495 0.64892 0.60738 0.0
H2443 H 1.00927 0.6517 0.51209 0.0
H2444 H 0.0348 0.62309 0.51156 0.0
H2445 H 0.05779 0.64958 0.5937 0.0
C2446 C 0.99616 0.70412 0.59879 0.0
C2447 C 0.97951 0.71187 0.58394 0.0
C2448 C 0.97447 0.70307 0.55684 0.0
C2449 C 0.98674 0.6874 0.5447 0.0
C2450 C 1.00389 0.6811 0.56007 0.0
C2451 C 1.00836 0.68916 0.58659 0.0
C2452 C 0.02739 0.68018 0.59928 0.0
C2453 C 0.04729 0.7011 0.61328 0.0
C2454 C 1.01913 0.66416 0.61773 0.0
C2455 C 0.03319 0.66572 0.57578 0.0
C2456 C 1.01947 0.66613 0.55322 0.0
C2457 C 0.02041 0.65171 0.52953 0.0
C2458 C 0.03504 0.6358 0.52928 0.0
C2459 C 0.04846 0.63502 0.5525 0.0
C2460 C 0.04816 0.65071 0.57565 0.0
H2461 H 0.67121 0.89897 0.93731 0.0
H2462 H 0.62691 0.83348 0.94541 0.0
H2463 H 0.63228 0.81248 0.90313 0.0
H2464 H 0.6555 0.88994 0.86645 0.0
H2465 H 0.68385 0.90066 0.86148 0.0
H2466 H 0.67511 0.91254 0.89124 0.0
H2467 H 0.70771 0.90085 0.91774 0.0
H2468 H 0.71714 0.88927 0.88846 0.0
H2469 H 0.71111 0.87018 0.91089 0.0
H2470 H 0.6427 0.7979 0.86145 0.0
H2471 H 0.66304 0.7881 0.82561 0.0
H2472 H 0.70341 0.86149 0.84503 0.0
C2473 C 0.66271 0.88021 0.93008 0.0
C2474 C 0.64883 0.86777 0.94471 0.0
C2475 C 0.63795 0.84325 0.93476 0.0
C2476 C 0.64058 0.83125 0.91055 0.0
C2477 C 0.65429 0.84392 0.89656 0.0
C2478 C 0.66554 0.86771 0.90603 0.0
C2479 C 0.68114 0.87611 0.88805 0.0
C2480 C 0.67343 0.896 0.87611 0.0
C2481 C 0.70573 0.88459 0.90215 0.0
C2482 C 0.6776 0.85293 0.86778 0.0
C2483 C 0.66137 0.83497 0.87267 0.0
C2484 C 0.65548 0.81175 0.85736 0.0
C2485 C 0.66721 0.80633 0.83714 0.0
C2486 C 0.685 0.82388 0.83271 0.0
C2487 C 0.68972 0.84774 0.84773 0.0
H2488 H 0.47841 0.55051 0.73353 0.0
H2489 H 0.45106 0.61315 0.7276 0.0
H2490 H 0.47143 0.61899 0.69111 0.0
H2491 H 0.53292 0.57185 0.71872 0.0
H2492 H 0.5344 0.54314 0.69991 0.0
H2493 H 0.51792 0.5443 0.72545 0.0
H2494 H 0.48252 0.51866 0.69328 0.0
H2495 H 0.49903 0.51707 0.66779 0.0
H2496 H 0.47368 0.52837 0.66422 0.0
H2497 H 0.49779 0.61852 0.65497 0.0
H2498 H 0.5206 0.60813 0.62102 0.0
H2499 H 0.52798 0.54421 0.64912 0.0
C2500 C 0.47645 0.56538 0.72445 0.0
C2501 C 0.46285 0.58131 0.73373 0.0
C2502 C 0.46099 0.60045 0.72096 0.0
C2503 C 0.47278 0.60403 0.70025 0.0
C2504 C 0.48633 0.58817 0.69194 0.0
C2505 C 0.48771 0.56888 0.70346 0.0
C2506 C 0.50241 0.55359 0.69048 0.0
C2507 C 0.52314 0.5532 0.7098 0.0
C2508 C 0.48859 0.5279 0.67821 0.0
C2509 C 0.50934 0.56718 0.66992 0.0
C2510 C 0.50029 0.58737 0.6712 0.0
C2511 C 0.50483 0.6027 0.65407 0.0
C2512 C 0.51818 0.59687 0.63495 0.0
C2513 C 0.52678 0.57566 0.6326 0.0
C2514 C 0.52224 0.56088 0.65063 0.0
H2515 H 0.85643 0.24086 0.9801 0.0
H2516 H 0.86896 0.30715 0.03805 0.0
H2517 H 0.85264 0.32718 0.00542 0.0
H2518 H 0.87161 0.26952 0.92844 0.0
H2519 H 0.85061 0.24854 0.90361 0.0
H2520 H 0.86194 0.23896 0.93174 0.0
H2521 H 0.82158 0.22531 0.94094 0.0
H2522 H 0.81014 0.2349 0.91284 0.0
H2523 H 0.80362 0.24653 0.94399 0.0
H2524 H 0.83539 0.34021 0.96647 0.0
H2525 H 0.8207 0.3464 0.92377 0.0
H2526 H 0.82036 0.2722 0.88946 0.0
C2527 C 0.85544 0.25951 0.98588 0.0
C2528 C 0.86363 0.27244 0.01173 0.0
C2529 C 0.86256 0.29692 0.01848 0.0
C2530 C 0.85331 0.30841 1.00004 0.0
C2531 C 0.84538 0.29526 0.97472 0.0
C2532 C 0.84651 0.27139 0.96752 0.0
C2533 C 0.83786 0.26186 0.93865 0.0
C2534 C 0.85662 0.25427 0.92479 0.0
C2535 C 0.81706 0.24091 0.93383 0.0
C2536 C 0.8316 0.28403 0.93079 0.0
C2537 C 0.83598 0.30301 0.95201 0.0
C2538 C 0.83188 0.32545 0.94976 0.0
C2539 C 0.82342 0.32876 0.92528 0.0
C2540 C 0.81913 0.30983 0.90296 0.0
C2541 C 0.82317 0.28706 0.90599 0.0
H2542 H 0.12114 0.55267 0.25568 0.0
H2543 H 0.1101 0.47563 0.22623 0.0
H2544 H 0.09305 0.48055 0.18334 0.0
H2545 H 0.07021 0.56153 0.21938 0.0
H2546 H 0.084 0.59027 0.21417 0.0
H2547 H 0.09384 0.58027 0.24267 0.0
H2548 H 0.13403 0.58538 0.23117 0.0
H2549 H 0.12439 0.59573 0.20291 0.0
H2550 H 0.13775 0.57048 0.1998 0.0
H2551 H 0.0767 0.49479 0.14298 0.0
H2552 H 0.06859 0.51705 0.10863 0.0
H2553 H 0.09298 0.58468 0.16443 0.0
C2554 C 0.11515 0.53676 0.24024 0.0
C2555 C 0.11701 0.51373 0.24443 0.0
C2556 C 0.10906 0.49348 0.22354 0.0
C2557 C 0.09913 0.49611 0.19916 0.0
C2558 C 0.09738 0.51914 0.19582 0.0
C2559 C 0.10552 0.53912 0.21582 0.0
C2560 C 0.10305 0.56212 0.20715 0.0
C2561 C 0.08681 0.57426 0.22171 0.0
C2562 C 0.12618 0.57944 0.21044 0.0
C2563 C 0.09283 0.5522 0.17889 0.0
C2564 C 0.08901 0.52729 0.1728 0.0
C2565 C 0.07963 0.51426 0.1477 0.0
C2566 C 0.07485 0.52701 0.12833 0.0
C2567 C 0.07978 0.55254 0.13401 0.0
C2568 C 0.08863 0.56516 0.15969 0.0
H2569 H 0.83751 0.98183 0.58919 0.0
H2570 H 0.87274 0.93576 0.62637 0.0
H2571 H 0.85325 0.90081 0.59175 0.0
H2572 H 0.78406 0.93573 0.56159 0.0
H2573 H 0.78067 0.94597 0.5318 0.0
H2574 H 0.79438 0.96705 0.56149 0.0
H2575 H 0.82965 0.9796 0.54091 0.0
H2576 H 0.81578 0.95901 0.51116 0.0
H2577 H 0.84306 0.95669 0.52632 0.0
H2578 H 0.83179 0.87159 0.55381 0.0
H2579 H 0.8177 0.85126 0.50856 0.0
H2580 H 0.79844 0.91605 0.49279 0.0
C2581 C 0.84104 0.96433 0.5899 0.0
C2582 C 0.85662 0.96137 0.61027 0.0
C2583 C 0.86107 0.93838 0.61068 0.0
C2584 C 0.84974 0.91836 0.59143 0.0
C2585 C 0.83418 0.92171 0.57184 0.0
C2586 C 0.83024 0.94416 0.57044 0.0
C2587 C 0.81509 0.94317 0.54533 0.0
C2588 C 0.79219 0.94829 0.55036 0.0
C2589 C 0.8266 0.96063 0.53002 0.0
C2590 C 0.81255 0.917 0.53219 0.0
C2591 C 0.82263 0.90477 0.54857 0.0
C2592 C 0.82362 0.8808 0.5408 0.0
C2593 C 0.81539 0.86934 0.51508 0.0
C2594 C 0.80689 0.8821 0.49732 0.0
C2595 C 0.8046 0.9059 0.50617 0.0
H2596 H 0.46623 0.61506 0.89733 0.0
H2597 H 0.44756 0.53974 0.85801 0.0
H2598 H 0.46634 0.52877 0.89636 0.0
H2599 H 0.52181 0.61218 0.92765 0.0
H2600 H 0.5222 0.63306 0.95732 0.0
H2601 H 0.50601 0.63536 0.92762 0.0
H2602 H 0.47018 0.63224 0.94858 0.0
H2603 H 0.4863 0.63001 0.97835 0.0
H2604 H 0.46145 0.60699 0.96308 0.0
H2605 H 0.48796 0.52557 0.93744 0.0
H2606 H 0.51128 0.52971 0.97943 0.0
H2607 H 0.51811 0.60737 0.99454 0.0
C2608 C 0.46575 0.59624 0.89712 0.0
C2609 C 0.45498 0.57811 0.87475 0.0
C2610 C 0.45541 0.55382 0.8749 0.0
C2611 C 0.46609 0.54744 0.89663 0.0
C2612 C 0.47677 0.56559 0.91817 0.0
C2613 C 0.47684 0.58955 0.91871 0.0
C2614 C 0.49084 0.60538 0.94407 0.0
C2615 C 0.51143 0.62251 0.93885 0.0
C2616 C 0.47631 0.61949 0.95943 0.0
C2617 C 0.49812 0.58649 0.95782 0.0
C2618 C 0.48983 0.56375 0.94222 0.0
C2619 C 0.49451 0.54328 0.94982 0.0
C2620 C 0.50798 0.54592 0.97387 0.0
C2621 C 0.51684 0.56887 0.99066 0.0
C2622 C 0.51164 0.58952 0.98241 0.0
H2623 H 0.86071 0.24413 0.15207 0.0
H2624 H 0.87981 0.31279 0.1304 0.0
H2625 H 0.86851 0.33325 0.17013 0.0
H2626 H 0.81257 0.25405 0.17906 0.0
H2627 H 0.81814 0.23915 0.20517 0.0
H2628 H 0.82794 0.23042 0.1753 0.0
H2629 H 0.86871 0.23844 0.2003 0.0
H2630 H 0.85901 0.2473 0.23026 0.0
H2631 H 0.88126 0.26756 0.22107 0.0
H2632 H 0.8537 0.34602 0.21315 0.0
H2633 H 0.83734 0.34918 0.25354 0.0
H2634 H 0.82932 0.27215 0.24678 0.0
C2635 C 0.86248 0.26348 0.15558 0.0
C2636 C 0.87103 0.27678 0.13783 0.0
C2637 C 0.87332 0.30214 0.14356 0.0
C2638 C 0.86693 0.31393 0.16615 0.0
C2639 C 0.85857 0.30023 0.18324 0.0
C2640 C 0.85656 0.27553 0.17821 0.0
C2641 C 0.84751 0.2648 0.19966 0.0
C2642 C 0.82521 0.246 0.18916 0.0
C2643 C 0.86517 0.25388 0.21364 0.0
C2644 C 0.84389 0.28708 0.21713 0.0
C2645 C 0.85057 0.30748 0.20763 0.0
C2646 C 0.84854 0.33009 0.22068 0.0
C2647 C 0.83927 0.33178 0.24369 0.0
C2648 C 0.83196 0.31097 0.25342 0.0
C2649 C 0.83464 0.28846 0.23992 0.0
H2650 H 0.08575 0.4861 0.38309 0.0
H2651 H 0.13643 0.54865 0.3801 0.0
H2652 H 0.12616 0.57191 0.41875 0.0
H2653 H 0.04392 0.51906 0.40382 0.0
H2654 H 0.03459 0.49969 0.42494 0.0
H2655 H 0.04556 0.48783 0.3968 0.0
H2656 H 0.07528 0.47344 0.42548 0.0
H2657 H 0.06416 0.48496 0.45357 0.0
H2658 H 0.09368 0.49477 0.45242 0.0
H2659 H 0.1117 0.58784 0.45809 0.0
H2660 H 0.09476 0.59541 0.49739 0.0
H2661 H 0.05218 0.52333 0.47516 0.0
C2662 C 0.09455 0.50472 0.39065 0.0
C2663 C 0.11184 0.51577 0.37879 0.0
C2664 C 0.12314 0.54004 0.38904 0.0
C2665 C 0.11736 0.55335 0.41088 0.0
C2666 C 0.10011 0.54212 0.42209 0.0
C2667 C 0.08887 0.51835 0.41247 0.0
C2668 C 0.07129 0.51063 0.42868 0.0
C2669 C 0.04742 0.50391 0.4126 0.0
C2670 C 0.07642 0.48972 0.44075 0.0
C2671 C 0.07467 0.53369 0.4491 0.0
C2672 C 0.09132 0.5516 0.44473 0.0
C2673 C 0.09842 0.57411 0.46152 0.0
C2674 C 0.08864 0.5783 0.48368 0.0
C2675 C 0.0718 0.56022 0.4888 0.0
C2676 C 0.06446 0.53771 0.47113 0.0
H2677 H 0.82262 0.96302 0.73115 0.0
H2678 H 0.86144 0.93045 0.67821 0.0
H2679 H 0.84949 0.89147 0.68999 0.0
H2680 H 0.83703 0.94041 0.78032 0.0
H2681 H 0.81021 0.93364 0.79092 0.0
H2682 H 0.81547 0.95638 0.77253 0.0
H2683 H 0.77942 0.93403 0.7409 0.0
H2684 H 0.77449 0.90847 0.75601 0.0
H2685 H 0.77727 0.90397 0.72261 0.0
H2686 H 0.84173 0.85967 0.71428 0.0
H2687 H 0.84074 0.83931 0.75107 0.0
H2688 H 0.80775 0.89194 0.78919 0.0
C2689 C 0.82776 0.94736 0.7214 0.0
C2690 C 0.84298 0.94963 0.70399 0.0
C2691 C 0.84989 0.92902 0.69184 0.0
C2692 C 0.84295 0.90671 0.69812 0.0
C2693 C 0.82888 0.90515 0.71642 0.0
C2694 C 0.82109 0.92486 0.72771 0.0
C2695 C 0.80915 0.91932 0.74966 0.0
C2696 C 0.81856 0.93856 0.77483 0.0
C2697 C 0.78358 0.91634 0.74185 0.0
C2698 C 0.81463 0.89522 0.75142 0.0
C2699 C 0.82463 0.88655 0.73102 0.0
C2700 C 0.83334 0.86587 0.72997 0.0
C2701 C 0.83277 0.85442 0.75088 0.0
C2702 C 0.82419 0.86425 0.77265 0.0
C2703 C 0.81418 0.88415 0.77244 0.0
H2704 H 0.67424 0.46761 0.62614 0.0
H2705 H 0.6844 0.45269 0.54649 0.0
H2706 H 0.66046 0.48071 0.53644 0.0
H2707 H 0.61492 0.47111 0.61091 0.0
H2708 H 0.61695 0.49466 0.63893 0.0
H2709 H 0.63458 0.47322 0.63981 0.0
H2710 H 0.67004 0.50828 0.65306 0.0
H2711 H 0.65259 0.52987 0.65194 0.0
H2712 H 0.67483 0.52995 0.63299 0.0
H2713 H 0.63743 0.51237 0.53566 0.0
H2714 H 0.61225 0.54061 0.54232 0.0
H2715 H 0.61475 0.5338 0.62188 0.0
C2716 C 0.67117 0.46996 0.60647 0.0
C2717 C 0.68126 0.45781 0.58706 0.0
C2718 C 0.67676 0.46149 0.56162 0.0
C2719 C 0.66332 0.47758 0.5558 0.0
C2720 C 0.65414 0.48968 0.57551 0.0
C2721 C 0.65743 0.48565 0.60022 0.0
C2722 C 0.64504 0.50046 0.61765 0.0
C2723 C 0.62679 0.48388 0.6274 0.0
C2724 C 0.66162 0.51819 0.64025 0.0
C2725 C 0.63457 0.5138 0.59904 0.0
C2726 C 0.64029 0.50745 0.5749 0.0
C2727 C 0.63287 0.5174 0.55447 0.0
C2728 C 0.61878 0.53366 0.55852 0.0
C2729 C 0.61206 0.53995 0.58277 0.0
C2730 C 0.62017 0.52993 0.60337 0.0
H2731 H 0.17458 0.0817 0.46331 0.0
H2732 H 0.22623 0.12994 0.52381 0.0
H2733 H 0.20022 0.12685 0.5549 0.0
H2734 H 0.12939 0.10713 0.48239 0.0
H2735 H 0.10865 0.07902 0.47489 0.0
H2736 H 0.13199 0.08251 0.45766 0.0
H2737 H 0.14275 0.04482 0.47078 0.0
H2738 H 0.11956 0.04139 0.48833 0.0
H2739 H 0.14783 0.04375 0.50447 0.0
H2740 H 0.16947 0.12013 0.57919 0.0
H2741 H 0.13323 0.11484 0.59467 0.0
H2742 H 0.09935 0.07282 0.51889 0.0
C2743 C 0.18032 0.09147 0.48315 0.0
C2744 C 0.20239 0.10612 0.49118 0.0
C2745 C 0.20933 0.11885 0.51718 0.0
C2746 C 0.19478 0.11697 0.53508 0.0
C2747 C 0.17319 0.1025 0.52668 0.0
C2748 C 0.16572 0.09024 0.50131 0.0
C2749 C 0.14086 0.07788 0.49718 0.0
C2750 C 0.1269 0.0872 0.47683 0.0
C2751 C 0.13757 0.05032 0.48975 0.0
C2752 C 0.13553 0.08583 0.524 0.0
C2753 C 0.1547 0.09943 0.54075 0.0
C2754 C 0.15431 0.10952 0.56633 0.0
C2755 C 0.13361 0.10645 0.57491 0.0
C2756 C 0.1135 0.09366 0.55792 0.0
C2757 C 0.11452 0.08263 0.53229 0.0
H2758 H 0.21929 0.97734 0.80571 0.0
H2759 H 0.26054 0.01296 0.88032 0.0
H2760 H 0.27885 0.97903 0.87938 0.0
H2761 H 0.21171 0.91576 0.81553 0.0
H2762 H 0.21485 0.90196 0.78348 0.0
H2763 H 0.20456 0.92927 0.78869 0.0
H2764 H 0.23626 0.95004 0.76766 0.0
H2765 H 0.24661 0.92274 0.76233 0.0
H2766 H 0.2652 0.9507 0.77994 0.0
H2767 H 0.29385 0.94134 0.87177 0.0
H2768 H 0.3041 0.90259 0.85784 0.0
H2769 H 0.25422 0.88686 0.78805 0.0
C2770 C 0.23233 0.9782 0.82176 0.0
C2771 C 0.23812 0.99885 0.84319 0.0
C2772 C 0.25534 0.99822 0.86354 0.0
C2773 C 0.26605 0.97868 0.86327 0.0
C2774 C 0.25997 0.95892 0.84237 0.0
C2775 C 0.24359 0.95839 0.82179 0.0
C2776 C 0.24083 0.93446 0.80178 0.0
C2777 C 0.21653 0.91947 0.79709 0.0
C2778 C 0.24761 0.9398 0.77641 0.0
C2779 C 0.25758 0.92157 0.81478 0.0
C2780 C 0.26858 0.93651 0.83805 0.0
C2781 C 0.28527 0.92961 0.85354 0.0
C2782 C 0.2911 0.9073 0.84531 0.0
C2783 C 0.28031 0.89096 0.82173 0.0
C2784 C 0.26296 0.89842 0.8063 0.0
H2785 H 0.32022 0.94296 0.0804 0.0
H2786 H 0.28395 1.00014 0.07927 0.0
H2787 H 0.31985 0.0293 0.08215 0.0
H2788 H 0.37086 0.97863 0.1245 0.0
H2789 H 0.3895 0.96388 0.10727 0.0
H2790 H 0.36121 0.94771 0.10708 0.0
H2791 H 0.35344 0.93799 0.05704 0.0
H2792 H 0.38177 0.95378 0.0571 0.0
H2793 H 0.35822 0.96227 0.04021 0.0
H2794 H 0.35908 0.05194 0.08452 0.0
H2795 H 0.39853 0.06568 0.07925 0.0
H2796 H 0.40921 0.99355 0.07754 0.0
C2797 C 0.31981 0.96161 0.08096 0.0
C2798 C 0.29936 0.96937 0.07983 0.0
C2799 C 0.29949 0.99385 0.08004 0.0
C2800 C 0.31978 0.01057 0.08197 0.0
C2801 C 0.3397 1.00241 0.08349 0.0
C2802 C 0.33987 0.97845 0.08257 0.0
C2803 C 0.36337 0.97405 0.0824 0.0
C2804 C 0.37172 0.96557 0.10677 0.0
C2805 C 0.36424 0.95596 0.05771 0.0
C2806 C 0.37628 0.99922 0.08268 0.0
C2807 C 0.36238 0.01539 0.08399 0.0
C2808 C 0.3702 0.03953 0.08363 0.0
C2809 C 0.39264 0.0472 0.08082 0.0
C2810 C 0.40682 0.03066 0.07804 0.0
C2811 C 0.39868 1.00653 0.07968 0.0
H2812 H 0.92495 0.71832 0.85835 0.0
H2813 H 0.9216 0.67994 0.77986 0.0
H2814 H 0.89369 0.70253 0.76447 0.0
H2815 H 0.86644 0.72217 0.85493 0.0
H2816 H 0.87527 0.75164 0.87613 0.0
H2817 H 0.89229 0.72994 0.87805 0.0
H2818 H 0.92546 0.76311 0.8723 0.0
H2819 H 0.90721 0.78332 0.86771 0.0
H2820 H 0.92355 0.77455 0.84323 0.0
H2821 H 0.86262 0.7287 0.75936 0.0
H2822 H 0.83919 0.75942 0.76399 0.0
H2823 H 0.86744 0.78157 0.84562 0.0
C2824 C 0.91832 0.71447 0.83788 0.0
C2825 C 0.92522 0.69706 0.8204 0.0
C2826 C 0.91649 0.69313 0.79368 0.0
C2827 C 0.90049 0.70576 0.78483 0.0
C2828 C 0.89364 0.72248 0.80291 0.0
C2829 C 0.90282 0.72705 0.82881 0.0
C2830 C 0.89425 0.74667 0.84458 0.0
C2831 C 0.88125 0.73696 0.86456 0.0
C2832 C 0.91378 0.76822 0.85771 0.0
C2833 C 0.87869 0.75276 0.82369 0.0
C2834 C 0.87785 0.73828 0.79979 0.0
C2835 C 0.86343 0.7402 0.77803 0.0
C2836 C 0.85015 0.75771 0.78079 0.0
C2837 C 0.8515 0.77319 0.80508 0.0
C2838 C 0.866 0.77037 0.82662 0.0
H2839 H 0.84291 0.63124 0.00852 0.0
H2840 H 0.79189 0.56883 0.0112 0.0
H2841 H 0.81921 0.55768 0.04247 0.0
H2842 H 0.88933 0.60646 0.01048 0.0
H2843 H 0.90856 0.63236 0.03156 0.0
H2844 H 0.88443 0.63627 0.01126 0.0
H2845 H 0.87215 0.65881 0.05135 0.0
H2846 H 0.89585 0.65446 0.07214 0.0
H2847 H 0.86767 0.64432 0.07795 0.0
H2848 H 0.85289 0.55142 0.06993 0.0
H2849 H 0.89068 0.54902 0.08945 0.0
H2850 H 0.91904 0.61749 0.07135 0.0
C2851 C 0.83725 0.61527 0.01541 0.0
C2852 C 0.81519 0.60076 0.00692 0.0
C2853 C 0.80874 0.58013 0.01721 0.0
C2854 C 0.82406 0.5738 0.03518 0.0
C2855 C 0.84559 0.58869 0.04322 0.0
C2856 C 0.85212 0.60913 0.03383 0.0
C2857 C 0.87651 0.62163 0.04484 0.0
C2858 C 0.89052 0.6243 0.02324 0.0
C2859 C 0.87811 0.64625 0.06263 0.0
C2860 C 0.88318 0.60388 0.06025 0.0
C2861 C 0.86494 0.58541 0.05968 0.0
C2862 C 0.86722 0.566 0.07094 0.0
C2863 C 0.88883 0.5649 0.08218 0.0
C2864 C 0.90798 0.58303 0.08199 0.0
C2865 C 0.90484 0.60322 0.0717 0.0
H2866 H 0.23773 0.15419 0.88154 0.0
H2867 H 0.23532 0.11074 0.8056 0.0
H2868 H 0.25249 0.14738 0.79133 0.0
H2869 H 0.22223 0.20528 0.8564 0.0
H2870 H 0.23942 0.22799 0.88304 0.0
H2871 H 0.22787 0.19833 0.88776 0.0
H2872 H 0.26791 0.19438 0.90529 0.0
H2873 H 0.27959 0.22395 0.90043 0.0
H2874 H 0.2897 0.19833 0.88585 0.0
H2875 H 0.2714 0.1899 0.78512 0.0
H2876 H 0.2857 0.2332 0.78624 0.0
H2877 H 0.27386 0.25131 0.86479 0.0
C2878 C 0.24092 0.1523 0.86192 0.0
C2879 C 0.23522 0.12886 0.8449 0.0
C2880 C 0.23939 0.12793 0.81925 0.0
C2881 C 0.24931 0.14888 0.81093 0.0
C2882 C 0.25477 0.17148 0.82808 0.0
C2883 C 0.25027 0.1734 0.85296 0.0
C2884 C 0.25643 0.20019 0.86692 0.0
C2885 C 0.23523 0.20844 0.87396 0.0
C2886 C 0.27448 0.20446 0.89106 0.0
C2887 C 0.26577 0.21295 0.84645 0.0
C2888 C 0.26469 0.19592 0.82418 0.0
C2889 C 0.27222 0.20317 0.80256 0.0
C2890 C 0.28058 0.22804 0.80342 0.0
C2891 C 0.28169 0.24621 0.82569 0.0
C2892 C 0.27398 0.2382 0.84754 0.0
H2893 H 0.42554 0.07835 0.31107 0.0
H2894 H 0.43007 0.10194 0.39412 0.0
H2895 H 0.40529 0.06402 0.3953 0.0
H2896 H 0.36618 0.04662 0.29897 0.0
H2897 H 0.36941 0.02192 0.27479 0.0
H2898 H 0.38775 0.0513 0.27936 0.0
H2899 H 0.42258 0.03287 0.28656 0.0
H2900 H 0.40434 1.00345 0.28197 0.0
H2901 H 0.42492 0.01549 0.31109 0.0
H2902 H 0.38053 0.02569 0.38932 0.0
H2903 H 0.35642 0.98499 0.37596 0.0
H2904 H 0.36663 0.98247 0.29676 0.0
C2905 C 0.42127 0.07541 0.32942 0.0
C2906 C 0.42963 0.09338 0.35246 0.0
C2907 C 0.4237 0.08882 0.37611 0.0
C2908 C 0.40963 0.06723 0.37708 0.0
C2909 C 0.40147 0.05014 0.35427 0.0
C2910 C 0.40695 0.05365 0.3308 0.0
C2911 C 0.39542 0.03164 0.30945 0.0
C2912 C 0.3787 0.03827 0.28946 0.0
C2913 C 0.41286 0.02018 0.29652 0.0
C2914 C 0.38309 0.01536 0.32498 0.0
C2915 C 0.38682 0.02686 0.35071 0.0
C2916 C 0.37734 0.0164 0.36926 0.0
C2917 C 0.36359 0.99337 0.36148 0.0
C2918 C 0.3595 0.9809 0.33542 0.0
C2919 C 0.36945 0.99186 0.31679 0.0
H2920 H 0.52301 0.33835 0.653 0.0
H2921 H 0.57569 0.38071 0.71576 0.0
H2922 H 0.58401 0.41194 0.69009 0.0
H2923 H 0.55313 0.35651 0.59958 0.0
H2924 H 0.52679 0.35593 0.57989 0.0
H2925 H 0.52783 0.33556 0.60153 0.0
H2926 H 0.49648 0.35147 0.62266 0.0
H2927 H 0.4956 0.3722 0.60155 0.0
H2928 H 0.50065 0.38329 0.63607 0.0
H2929 H 0.58282 0.44095 0.65953 0.0
H2930 H 0.5736 0.4641 0.62674 0.0
H2931 H 0.52144 0.40262 0.58393 0.0
C2932 C 0.53673 0.3539 0.66108 0.0
C2933 C 0.54875 0.35708 0.68642 0.0
C2934 C 0.56649 0.37772 0.69632 0.0
C2935 C 0.57123 0.3956 0.68187 0.0
C2936 C 0.5584 0.39233 0.65734 0.0
C2937 C 0.54183 0.37168 0.64682 0.0
C2938 C 0.52963 0.37293 0.62068 0.0
C2939 C 0.53464 0.35412 0.59914 0.0
C2940 C 0.50409 0.3698 0.62025 0.0
C2941 C 0.54063 0.39829 0.61896 0.0
C2942 C 0.55763 0.40894 0.63993 0.0
C2943 C 0.56978 0.43258 0.64289 0.0
C2944 C 0.56442 0.44561 0.6241 0.0
C2945 C 0.54683 0.43522 0.60263 0.0
C2946 C 0.53491 0.41114 0.60011 0.0
H2947 H 0.47649 0.80078 0.34632 0.0
H2948 H 0.50358 0.87779 0.37105 0.0
H2949 H 0.4649 0.88477 0.36285 0.0
H2950 H 0.43339 0.80621 0.29367 0.0
H2951 H 0.41295 0.78071 0.2974 0.0
H2952 H 0.44266 0.78183 0.30527 0.0
H2953 H 0.43757 0.77609 0.35114 0.0
H2954 H 0.4079 0.77513 0.34352 0.0
H2955 H 0.42507 0.79672 0.37111 0.0
H2956 H 0.42299 0.88332 0.35272 0.0
H2957 H 0.38174 0.87423 0.33968 0.0
H2958 H 0.38046 0.79785 0.31999 0.0
C2959 C 0.47423 0.81912 0.34981 0.0
C2960 C 0.49318 0.83882 0.35925 0.0
C2961 C 0.48949 0.86249 0.36352 0.0
C2962 C 0.4675 0.86658 0.35903 0.0
C2963 C 0.4492 0.84682 0.34972 0.0
C2964 C 0.45235 0.82354 0.34476 0.0
C2965 C 0.42982 0.8056 0.33383 0.0
C2966 C 0.4297 0.79282 0.30589 0.0
C2967 C 0.4248 0.78731 0.35093 0.0
C2968 C 0.41332 0.82226 0.33455 0.0
C2969 C 0.42502 0.84599 0.34352 0.0
C2970 C 0.41378 0.86481 0.34553 0.0
C2971 C 0.3902 0.85942 0.33793 0.0
C2972 C 0.37756 0.83533 0.32855 0.0
C2973 C 0.38944 0.81645 0.32712 0.0
H2974 H 0.04611 0.73329 0.21545 0.0
H2975 H 1.01064 0.76075 0.15587 0.0
H2976 H 1.01713 0.72857 0.12255 0.0
H2977 H 0.08791 0.7138 0.17883 0.0
H2978 H 0.08725 0.68659 0.19079 0.0
H2979 H 0.08113 0.7126 0.21043 0.0
H2980 H 0.04266 0.68699 0.21448 0.0
H2981 H 0.04881 0.6609 0.19509 0.0
H2982 H 0.02325 0.67038 0.18562 0.0
H2983 H 0.02796 0.69431 0.09523 0.0
H2984 H 0.038 0.65632 0.07601 0.0
H2985 H 0.06368 0.64809 0.15245 0.0
C2986 C 0.03974 0.73249 0.19539 0.0
C2987 C 0.02784 0.74966 0.18836 0.0
C2988 C 0.01963 0.74781 0.16186 0.0
C2989 C 0.02339 0.72967 0.1427 0.0
C2990 C 0.03518 0.71314 0.15018 0.0
C2991 C 0.04292 0.71403 0.17587 0.0
C2992 C 0.0539 0.69298 0.17849 0.0
C2993 C 0.07904 0.70204 0.19034 0.0
C2994 C 0.0414 0.67686 0.19436 0.0
C2995 C 0.05082 0.68008 0.15032 0.0
C2996 C 0.04045 0.69243 0.13434 0.0
C2997 C 0.03601 0.68442 0.10754 0.0
C2998 C 0.04184 0.66294 0.09677 0.0
C2999 C 0.05163 0.64949 0.11275 0.0
C3000 C 0.0563 0.65821 0.13986 0.0
H3001 H 0.14739 0.30952 0.89197 0.0
H3002 H 0.12555 0.36083 0.85039 0.0
H3003 H 0.16207 0.36734 0.83455 0.0
H3004 H 0.20633 0.34162 0.91163 0.0
H3005 H 0.21684 0.31443 0.90789 0.0
H3006 H 0.18921 0.3141 0.91604 0.0
H3007 H 0.17178 0.27928 0.87634 0.0
H3008 H 0.19935 0.27956 0.86807 0.0
H3009 H 0.17691 0.28302 0.84474 0.0
H3010 H 0.20095 0.36577 0.82045 0.0
H3011 H 0.23851 0.35916 0.81297 0.0
H3012 H 0.23633 0.31114 0.86622 0.0
C3013 C 0.15024 0.32231 0.87967 0.0
C3014 C 0.1332 0.33463 0.87251 0.0
C3015 C 0.13805 0.35117 0.85636 0.0
C3016 C 0.15884 0.35492 0.84716 0.0
C3017 C 0.17505 0.34224 0.85438 0.0
C3018 C 0.17104 0.32648 0.87059 0.0
C3019 C 0.19121 0.31512 0.87566 0.0
C3020 C 0.2015 0.32172 0.90452 0.0
C3021 C 0.1844 0.28762 0.86561 0.0
C3022 C 0.20729 0.32687 0.85981 0.0
C3023 C 0.19754 0.34223 0.84736 0.0
C3024 C 0.20869 0.35402 0.83046 0.0
C3025 C 0.23012 0.3501 0.82625 0.0
C3026 C 0.24074 0.33488 0.83919 0.0
C3027 C 0.22902 0.32326 0.85634 0.0
H3028 H 0.58703 0.80519 0.01595 0.0
H3029 H 0.58599 0.84335 0.09348 0.0
H3030 H 0.56221 0.80671 0.10135 0.0
H3031 H 0.53042 0.77501 0.00298 0.0
H3032 H 0.53435 0.74718 0.98457 0.0
H3033 H 0.55369 0.7752 0.98557 0.0
H3034 H 0.58769 0.75853 1.00258 0.0
H3035 H 0.56855 0.7301 1.00025 0.0
H3036 H 0.58679 0.74519 0.03044 0.0
H3037 H 0.53588 0.76831 0.09929 0.0
H3038 H 0.51728 0.72591 0.0927 0.0
H3039 H 0.53299 0.71272 0.01502 0.0
C3040 C 0.5828 0.8054 0.03503 0.0
C3041 C 0.58859 0.82682 0.05436 0.0
C3042 C 0.58201 0.82685 0.07873 0.0
C3043 C 0.56816 0.80635 0.08314 0.0
C3044 C 0.56109 0.78619 0.06289 0.0
C3045 C 0.56868 0.78521 0.0396 0.0
C3046 C 0.55813 0.76138 0.02096 0.0
C3047 C 0.54327 0.76492 0.99712 0.0
C3048 C 0.57637 0.748 0.01312 0.0
C3049 C 0.54393 0.7489 0.03777 0.0
C3050 C 0.54546 0.76385 0.06157 0.0
C3051 C 0.53461 0.7563 0.08081 0.0
C3052 C 0.52367 0.7321 0.0766 0.0
C3053 C 0.52397 0.7157 0.05343 0.0
C3054 C 0.53274 0.7247 0.03306 0.0
H3055 H 0.05791 0.73183 0.68587 0.0
H3056 H 0.05711 0.79983 0.66276 0.0
H3057 H 0.0966 0.81559 0.68357 0.0
H3058 H 0.08848 0.75419 0.74611 0.0
H3059 H 0.1059 0.73247 0.74625 0.0
H3060 H 0.07852 0.72424 0.72613 0.0
H3061 H 0.09596 0.71225 0.6853 0.0
H3062 H 0.12333 0.71948 0.70549 0.0
H3063 H 0.11888 0.73343 0.6784 0.0
H3064 H 0.13387 0.82617 0.71146 0.0
H3065 H 0.16995 0.82837 0.73952 0.0
H3066 H 0.14685 0.75385 0.74431 0.0
C3067 C 0.06624 0.74978 0.68464 0.0
C3068 C 0.05435 0.76477 0.67324 0.0
C3069 C 0.06581 0.78814 0.67183 0.0
C3070 C 0.08826 0.7973 0.68353 0.0
C3071 C 0.0991 0.78269 0.69606 0.0
C3072 C 0.08881 0.7592 0.69606 0.0
C3073 C 0.10425 0.74772 0.71169 0.0
C3074 C 0.09364 0.73917 0.73386 0.0
C3075 C 0.111 0.72699 0.69417 0.0
C3076 C 0.12407 0.76894 0.72171 0.0
C3077 C 0.12087 0.78883 0.71219 0.0
C3078 C 0.13679 0.81065 0.71882 0.0
C3079 C 0.15702 0.81182 0.73485 0.0
C3080 C 0.16083 0.79134 0.74404 0.0
C3081 C 0.14402 0.76985 0.73784 0.0
H3082 H 0.13938 0.45537 0.55333 0.0
H3083 H 0.12409 0.43176 0.62215 0.0
H3084 H 0.1118 0.46905 0.6371 0.0
H3085 H 0.14445 0.52422 0.57525 0.0
H3086 H 0.12752 0.52398 0.54485 0.0
H3087 H 0.1471 0.50453 0.54607 0.0
H3088 H 0.11533 0.4678 0.52425 0.0
H3089 H 0.09489 0.48589 0.52313 0.0
H3090 H 0.09075 0.46093 0.53903 0.0
H3091 H 0.08479 0.49564 0.634 0.0
H3092 H 0.05546 0.5165 0.61866 0.0
H3093 H 0.0837 0.51883 0.54881 0.0
C3094 C 0.13526 0.45912 0.57255 0.0
C3095 C 0.13125 0.44046 0.5859 0.0
C3096 C 0.12652 0.4458 0.61126 0.0
C3097 C 0.11904 0.46682 0.61964 0.0
C3098 C 0.11731 0.48221 0.60265 0.0
C3099 C 0.126 0.47899 0.57978 0.0
C3100 C 0.11642 0.49272 0.56127 0.0
C3101 C 0.13497 0.51259 0.5566 0.0
C3102 C 0.10361 0.47583 0.53547 0.0
C3103 C 0.10035 0.50308 0.57662 0.0
C3104 C 0.10105 0.49713 0.60049 0.0
C3105 C 0.08477 0.50134 0.61584 0.0
C3106 C 0.06792 0.51265 0.60685 0.0
C3107 C 0.06764 0.51926 0.58275 0.0
C3108 C 0.08397 0.51436 0.56764 0.0
H3109 H 0.44375 0.3062 0.18516 0.0
H3110 H 0.48881 0.26353 0.21212 0.0
H3111 H 0.47661 0.26952 0.25444 0.0
H3112 H 0.45472 0.34974 0.23973 0.0
H3113 H 0.4266 0.35454 0.24015 0.0
H3114 H 0.43478 0.34297 0.21004 0.0
H3115 H 0.40166 0.30553 0.20062 0.0
H3116 H 0.39279 0.31731 0.23031 0.0
H3117 H 0.39814 0.28741 0.22444 0.0
H3118 H 0.46605 0.28688 0.29569 0.0
H3119 H 0.453 0.30934 0.33221 0.0
H3120 H 0.41234 0.33887 0.27875 0.0
C3121 C 0.45015 0.29724 0.19964 0.0
C3122 C 0.46705 0.28431 0.1955 0.0
C3123 C 0.47576 0.27345 0.21505 0.0
C3124 C 0.46896 0.27676 0.23914 0.0
C3125 C 0.4533 0.29085 0.24331 0.0
C3126 C 0.44352 0.30044 0.22398 0.0
C3127 C 0.4286 0.31659 0.2344 0.0
C3128 C 0.43667 0.34249 0.23087 0.0
C3129 C 0.40382 0.30607 0.22169 0.0
C3130 C 0.43237 0.31539 0.2627 0.0
C3131 C 0.44662 0.3004 0.26735 0.0
C3132 C 0.45423 0.29806 0.29223 0.0
C3133 C 0.44663 0.31094 0.31293 0.0
C3134 C 0.43126 0.32582 0.30873 0.0
C3135 C 0.42418 0.32797 0.28307 0.0
H3136 H 0.66486 0.60191 0.42382 0.0
H3137 H 0.63886 0.52756 0.38362 0.0
H3138 H 0.61243 0.5221 0.41456 0.0
H3139 H 0.66179 0.59097 0.48885 0.0
H3140 H 0.65399 0.619 0.50028 0.0
H3141 H 0.67078 0.61664 0.47507 0.0
H3142 H 0.64135 0.63067 0.44567 0.0
H3143 H 0.62443 0.63292 0.47075 0.0
H3144 H 0.61227 0.61445 0.43915 0.0
H3145 H 0.58747 0.52529 0.45212 0.0
H3146 H 0.5692 0.53688 0.49023 0.0
H3147 H 0.61145 0.6089 0.5052 0.0
C3148 C 0.65373 0.58443 0.42161 0.0
C3149 C 0.65431 0.5651 0.40106 0.0
C3150 C 0.63911 0.54265 0.39911 0.0
C3151 C 0.62387 0.53939 0.41671 0.0
C3152 C 0.62367 0.55874 0.43672 0.0
C3153 C 0.63839 0.58082 0.43923 0.0
C3154 C 0.63507 0.59874 0.46245 0.0
C3155 C 0.65669 0.60682 0.48287 0.0
C3156 C 0.62785 0.62048 0.45399 0.0
C3157 C 0.61607 0.58365 0.47237 0.0
C3158 C 0.60964 0.5605 0.45749 0.0
C3159 C 0.59253 0.54349 0.46369 0.0
C3160 C 0.58205 0.55023 0.48545 0.0
C3161 C 0.58843 0.57393 0.50106 0.0
C3162 C 0.60572 0.59062 0.49391 0.0
H3163 H 0.2614 0.89959 0.16565 0.0
H3164 H 0.2456 0.83244 0.10876 0.0
H3165 H 0.25455 0.81071 0.14325 0.0
H3166 H 0.30875 0.88887 0.19911 0.0
H3167 H 0.30536 0.90307 0.23088 0.0
H3168 H 0.29366 0.91271 0.20301 0.0
H3169 H 0.25388 0.90432 0.21546 0.0
H3170 H 0.26564 0.89542 0.24386 0.0
H3171 H 0.24228 0.87515 0.22141 0.0
H3172 H 0.2704 0.79743 0.18359 0.0
H3173 H 0.28771 0.79314 0.2265 0.0
H3174 H 0.29418 0.86952 0.25649 0.0
C3175 C 0.2586 0.88011 0.16074 0.0
C3176 C 0.25179 0.86747 0.13472 0.0
C3177 C 0.24982 0.84224 0.1287 0.0
C3178 C 0.25519 0.82985 0.14816 0.0
C3179 C 0.2628 0.84303 0.17352 0.0
C3180 C 0.26418 0.8676 0.17988 0.0
C3181 C 0.2748 0.87803 0.20798 0.0
C3182 C 0.29695 0.89677 0.21037 0.0
C3183 C 0.25815 0.88886 0.22307 0.0
C3184 C 0.27928 0.85559 0.21647 0.0
C3185 C 0.27234 0.83556 0.19636 0.0
C3186 C 0.27563 0.81299 0.1995 0.0
C3187 C 0.2857 0.81075 0.2239 0.0
C3188 C 0.29235 0.83095 0.24495 0.0
C3189 C 0.28924 0.85366 0.2409 0.0
H3190 H 0.03488 0.66535 0.92272 0.0
H3191 H 0.97285 0.614 0.88543 0.0
H3192 H 0.97728 0.59023 0.9185 0.0
H3193 H 0.06537 0.62338 0.94677 0.0
H3194 H 0.07738 0.64293 0.97787 0.0
H3195 H 0.07086 0.65564 0.95024 0.0
H3196 H 0.04587 0.67988 0.9745 0.0
H3197 H 0.05262 0.66754 1.00233 0.0
H3198 H 0.02356 0.66428 0.98821 0.0
H3199 H 0.98873 0.57077 0.95285 0.0
H3200 H 1.00071 0.5607 0.99404 0.0
H3201 H 0.05338 0.62642 0.01575 0.0
C3202 C 0.02225 0.64915 0.92175 0.0
C3203 C 1.00354 0.64116 0.9011 0.0
C3204 C 0.9873 0.62015 0.90066 0.0
C3205 C 0.9898 0.60649 0.91938 0.0
C3206 C 1.0085 0.61436 0.93907 0.0
C3207 C 0.02412 0.63557 0.94111 0.0
C3208 C 0.04137 0.6406 0.966 0.0
C3209 C 0.06516 0.64064 0.95985 0.0
C3210 C 0.04081 0.6645 0.98382 0.0
C3211 C 0.0327 0.61898 0.97755 0.0
C3212 C 1.01415 0.60388 0.96091 0.0
C3213 C 1.00301 0.58258 0.96624 0.0
C3214 C 1.01007 0.577 0.98979 0.0
C3215 C 0.02788 0.59275 0.00837 0.0
C3216 C 0.03988 0.61384 1.00189 0.0
H3217 H 0.28981 0.16752 0.55394 0.0
H3218 H 0.31809 0.22411 0.51678 0.0
H3219 H 0.32425 0.25403 0.55812 0.0
H3220 H 0.26155 0.20159 0.59702 0.0
H3221 H 0.26882 0.18748 0.62331 0.0
H3222 H 0.2658 0.17125 0.59047 0.0
H3223 H 0.30619 0.16413 0.60049 0.0
H3224 H 0.30951 0.18087 0.63322 0.0
H3225 H 0.32959 0.18963 0.61301 0.0
H3226 H 0.32729 0.27731 0.60319 0.0
H3227 H 0.32524 0.29309 0.64878 0.0
H3228 H 0.29716 0.22057 0.65678 0.0
C3229 C 0.29697 0.18629 0.55452 0.0
C3230 C 0.30333 0.19379 0.53244 0.0
C3231 C 0.31314 0.21827 0.53374 0.0
C3232 C 0.31673 0.23526 0.55703 0.0
C3233 C 0.3108 0.2272 0.57871 0.0
C3234 C 0.30113 0.20332 0.57767 0.0
C3235 C 0.29701 0.19918 0.60388 0.0
C3236 C 0.2718 0.18931 0.60364 0.0
C3237 C 0.31143 0.18247 0.61319 0.0
C3238 C 0.30512 0.22465 0.61966 0.0
C3239 C 0.31326 0.24049 0.60486 0.0
C3240 C 0.32115 0.26509 0.61506 0.0
C3241 C 0.3201 0.27384 0.64097 0.0
C3242 C 0.31113 0.25797 0.65616 0.0
C3243 C 0.30406 0.23304 0.6455 0.0
H3244 H 0.65241 0.58278 0.25751 0.0
H3245 H 0.62392 0.50741 0.25394 0.0
H3246 H 0.60077 0.50441 0.21161 0.0
H3247 H 0.60099 0.59618 0.23055 0.0
H3248 H 0.6137 0.61668 0.21222 0.0
H3249 H 0.62978 0.61289 0.24126 0.0
H3250 H 0.66071 0.60161 0.21589 0.0
H3251 H 0.64488 0.60572 0.18685 0.0
H3252 H 0.65303 0.57753 0.18746 0.0
H3253 H 0.58 0.5093 0.17041 0.0
H3254 H 0.56321 0.52147 0.13192 0.0
H3255 H 0.60261 0.59459 0.16139 0.0
C3256 C 0.64174 0.56553 0.2474 0.0
C3257 C 0.64042 0.54508 0.25877 0.0
C3258 C 0.62556 0.52311 0.24542 0.0
C3259 C 0.61223 0.52129 0.2214 0.0
C3260 C 0.61353 0.54174 0.21091 0.0
C3261 C 0.62791 0.56348 0.22334 0.0
C3262 C 0.62511 0.58284 0.20801 0.0
C3263 C 0.61691 0.60336 0.22397 0.0
C3264 C 0.64725 0.5925 0.19902 0.0
C3265 C 0.60695 0.56856 0.18513 0.0
C3266 C 0.60069 0.54485 0.18733 0.0
C3267 C 0.58472 0.52783 0.16857 0.0
C3268 C 0.57519 0.53496 0.14676 0.0
C3269 C 0.58125 0.55903 0.14369 0.0
C3270 C 0.59722 0.57618 0.1634 0.0
H3271 H 0.28067 0.85514 0.01303 0.0
H3272 H 0.22966 0.8936 0.99157 0.0
H3273 H 0.23132 0.87892 0.94535 0.0
H3274 H 0.3146 0.86867 0.96888 0.0
H3275 H 0.32212 0.83985 0.96191 0.0
H3276 H 0.31449 0.85031 0.99267 0.0
H3277 H 0.28325 0.81143 0.98551 0.0
H3278 H 0.29093 0.80065 0.95477 0.0
H3279 H 0.26226 0.80286 0.95658 0.0
H3280 H 0.24191 0.86319 0.90124 0.0
H3281 H 0.25938 0.84789 0.86434 0.0
H3282 H 0.30425 0.82047 0.91496 0.0
C3283 C 0.26939 0.86008 0.99866 0.0
C3284 C 0.25489 0.87553 0.00618 0.0
C3285 C 0.24064 0.88157 0.98652 0.0
C3286 C 0.2416 0.87338 0.96015 0.0
C3287 C 0.25671 0.85889 0.95358 0.0
C3288 C 0.27013 0.85206 0.97237 0.0
C3289 C 0.2859 0.83755 0.9606 0.0
C3290 C 0.31074 0.84984 0.97168 0.0
C3291 C 0.28024 0.81158 0.96461 0.0
C3292 C 0.28009 0.83812 0.93228 0.0
C3293 C 0.26292 0.85014 0.92853 0.0
C3294 C 0.25516 0.85356 0.90407 0.0
C3295 C 0.26524 0.84474 0.88314 0.0
C3296 C 0.28321 0.83281 0.88655 0.0
C3297 C 0.29048 0.82929 0.91154 0.0
H3298 H 0.99281 0.63997 0.73978 0.0
H3299 H 0.04698 0.62074 0.78663 0.0
H3300 H 0.05924 0.60216 0.74743 0.0
H3301 H 0.98024 0.5862 0.68775 0.0
H3302 H 0.97552 0.60207 0.6623 0.0
H3303 H 0.96996 0.61347 0.69399 0.0
H3304 H 0.99687 0.65455 0.69606 0.0
H3305 H 1.00221 0.64321 0.66426 0.0
H3306 H 0.02541 0.65524 0.69079 0.0
H3307 H 0.06671 0.58648 0.70424 0.0
H3308 H 0.06973 0.57539 0.65838 0.0
H3309 H 1.01139 0.60431 0.63746 0.0
C3310 C 1.00716 0.63174 0.74171 0.0
C3311 C 1.0189 0.63187 0.76645 0.0
C3312 C 0.03772 0.62106 0.76807 0.0
C3313 C 0.04482 0.61032 0.74585 0.0
C3314 C 0.03307 0.61054 0.7219 0.0
C3315 C 1.01473 0.62103 0.7195 0.0
C3316 C 1.00582 0.61934 0.6911 0.0
C3317 C 0.98143 0.60437 0.68333 0.0
C3318 C 1.0077 0.64459 0.68522 0.0
C3319 C 0.02204 0.60627 0.67815 0.0
C3320 C 0.03754 0.60139 0.69645 0.0
C3321 C 0.05465 0.59013 0.68969 0.0
C3322 C 0.05625 0.58394 0.66354 0.0
C3323 C 0.04081 0.58891 0.64426 0.0
C3324 C 0.02328 0.6 0.65171 0.0
H3325 H 0.3119 0.19313 0.40957 0.0
H3326 H 0.24818 0.19214 0.43679 0.0
H3327 H 0.24805 0.23213 0.42621 0.0
H3328 H 0.33595 0.25483 0.43626 0.0
H3329 H 0.35027 0.26023 0.40991 0.0
H3330 H 0.34558 0.23078 0.41751 0.0
H3331 H 0.32443 0.20986 0.37187 0.0
H3332 H 0.32968 0.23822 0.36209 0.0
H3333 H 0.30127 0.22081 0.35764 0.0
H3334 H 0.25487 0.27187 0.41022 0.0
H3335 H 0.26511 0.3031 0.38508 0.0
H3336 H 0.32635 0.27914 0.37443 0.0
C3337 C 0.29771 0.20109 0.41313 0.0
C3338 C 0.27999 0.18942 0.42392 0.0
C3339 C 0.26177 0.20056 0.42815 0.0
C3340 C 0.2618 0.22346 0.42266 0.0
C3341 C 0.28029 0.23498 0.41337 0.0
C3342 C 0.29775 0.2239 0.40844 0.0
C3343 C 0.31547 0.2393 0.39783 0.0
C3344 C 0.33816 0.24669 0.41648 0.0
C3345 C 0.31785 0.22629 0.37078 0.0
C3346 C 0.30504 0.26066 0.39669 0.0
C3347 C 0.28484 0.25814 0.40594 0.0
C3348 C 0.2709 0.2743 0.40353 0.0
C3349 C 0.27699 0.29226 0.38964 0.0
C3350 C 0.29681 0.29375 0.37863 0.0
C3351 C 0.31159 0.27884 0.38365 0.0
H3352 H 0.41745 0.65765 0.57934 0.0
H3353 H 0.45303 0.71903 0.55369 0.0
H3354 H 0.48101 0.69587 0.54058 0.0
H3355 H 0.46714 0.63845 0.6052 0.0
H3356 H 0.45429 0.60674 0.59466 0.0
H3357 H 0.43701 0.62809 0.60195 0.0
H3358 H 0.41292 0.61171 0.55633 0.0
H3359 H 0.43046 0.59064 0.54877 0.0
H3360 H 0.42644 0.61149 0.52834 0.0
H3361 H 0.50473 0.66602 0.52908 0.0
H3362 H 0.52623 0.63416 0.52634 0.0
H3363 H 0.4767 0.59135 0.56008 0.0
C3364 C 0.43129 0.66641 0.5713 0.0
C3365 C 0.43289 0.69048 0.56772 0.0
C3366 C 0.4513 0.70088 0.55687 0.0
C3367 C 0.46723 0.68771 0.54911 0.0
C3368 C 0.46477 0.66396 0.55225 0.0
C3369 C 0.44749 0.65347 0.56348 0.0
C3370 C 0.44921 0.62778 0.56519 0.0
C3371 C 0.45209 0.62512 0.59343 0.0
C3372 C 0.42852 0.60932 0.54868 0.0
C3373 C 0.47047 0.6257 0.55374 0.0
C3374 C 0.47878 0.64669 0.54592 0.0
C3375 C 0.49834 0.64954 0.53512 0.0
C3376 C 0.51035 0.63113 0.53337 0.0
C3377 C 0.50304 0.60985 0.54239 0.0
C3378 C 0.48242 0.60692 0.55217 0.0
H3379 H 0.92443 0.02404 0.66688 0.0
H3380 H 0.89699 0.08148 0.64282 0.0
H3381 H 0.92782 0.08909 0.61765 0.0
H3382 H 0.98341 0.04862 0.67052 0.0
H3383 H 0.98884 0.01979 0.65706 0.0
H3384 H 0.96637 0.02129 0.67546 0.0
H3385 H 0.938 0.99245 0.63698 0.0
H3386 H 0.96025 0.99098 0.61827 0.0
H3387 H 0.93538 1.00026 0.60581 0.0
H3388 H 0.96102 0.08856 0.59328 0.0
H3389 H 0.99289 0.07982 0.57186 0.0
H3390 H 0.99566 0.02034 0.60976 0.0
C3391 C 0.92474 0.03836 0.65677 0.0
C3392 C 0.90809 0.05206 0.65702 0.0
C3393 C 0.90958 0.07073 0.64307 0.0
C3394 C 0.927 0.07514 0.62866 0.0
C3395 C 0.94256 0.06046 0.6281 0.0
C3396 C 0.94146 0.0424 0.64177 0.0
C3397 C 0.95885 0.02769 0.6365 0.0
C3398 C 0.97535 0.02947 0.66137 0.0
C3399 C 0.94743 1.00129 0.62363 0.0
C3400 C 0.97026 0.04043 0.61788 0.0
C3401 C 0.96076 0.05942 0.61338 0.0
C3402 C 0.96861 0.07384 0.59684 0.0
C3403 C 0.98677 0.06888 0.58493 0.0
C3404 C 0.99675 0.04966 0.58954 0.0
C3405 C 0.98817 0.03505 0.60587 0.0
H3406 H 0.84449 0.14185 0.3086 0.0
H3407 H 0.91641 0.17235 0.32277 0.0
H3408 H 0.90907 0.21328 0.3283 0.0
H3409 H 0.83098 0.18809 0.27069 0.0
H3410 H 0.80457 0.1887 0.28183 0.0
H3411 H 0.81519 0.16155 0.27861 0.0
H3412 H 0.81262 0.16103 0.32632 0.0
H3413 H 0.80228 0.18832 0.32977 0.0
H3414 H 0.82704 0.18703 0.3512 0.0
H3415 H 0.89429 0.25185 0.33573 0.0
H3416 H 0.87388 0.28445 0.33856 0.0
H3417 H 0.81019 0.2316 0.31603 0.0
C3418 C 0.8587 0.15711 0.31225 0.0
C3419 C 0.88128 0.15331 0.31475 0.0
C3420 C 0.89908 0.17421 0.32005 0.0
C3421 C 0.89502 0.19777 0.32352 0.0
C3422 C 0.87282 0.20089 0.32112 0.0
C3423 C 0.85486 0.18112 0.31486 0.0
C3424 C 0.83266 0.18994 0.31221 0.0
C3425 C 0.82009 0.18156 0.28418 0.0
C3426 C 0.81776 0.18104 0.331 0.0
C3427 C 0.8409 0.21763 0.31928 0.0
C3428 C 0.86423 0.22333 0.32428 0.0
C3429 C 0.87604 0.2474 0.33148 0.0
C3430 C 0.86408 0.26605 0.33311 0.0
C3431 C 0.8401 0.26135 0.32756 0.0
C3432 C 0.82842 0.23638 0.32064 0.0
H3433 H 0.79338 0.18579 0.02402 0.0
H3434 H 0.83748 0.15504 0.07205 0.0
H3435 H 0.80425 0.12892 0.08173 0.0
H3436 H 0.75283 0.1886 0.0648 0.0
H3437 H 0.72879 0.18093 0.03915 0.0
H3438 H 0.7559 0.19573 0.03385 0.0
H3439 H 0.75389 0.16127 0.99448 0.0
H3440 H 0.72665 0.14647 0.99954 0.0
H3441 H 0.74909 0.13052 0.99837 0.0
H3442 H 0.76692 0.10797 0.08823 0.0
H3443 H 0.72712 0.09291 0.09115 0.0
H3444 H 0.70676 0.13748 0.03953 0.0
C3445 C 0.79606 0.17315 0.03607 0.0
C3446 C 0.81804 0.17224 0.04707 0.0
C3447 C 0.82081 0.1559 0.06326 0.0
C3448 C 0.80205 0.14102 0.06889 0.0
C3449 C 0.78065 0.14272 0.0582 0.0
C3450 C 0.77749 0.15828 0.04207 0.0
C3451 C 0.75262 0.15742 0.03427 0.0
C3452 C 0.74723 0.18213 0.04359 0.0
C3453 C 0.74512 0.14837 0.00492 0.0
C3454 C 0.74238 0.13909 0.04879 0.0
C3455 C 0.75889 0.13076 0.06228 0.0
C3456 C 0.75378 0.11409 0.07751 0.0
C3457 C 0.73114 0.10556 0.07893 0.0
C3458 C 0.71387 0.11379 0.06532 0.0
C3459 C 0.71962 0.13083 0.05009 0.0
H3460 H 0.21361 0.45678 0.37311 0.0
H3461 H 0.19689 0.45274 0.29072 0.0
H3462 H 0.22765 0.43172 0.28343 0.0
H3463 H 0.27602 0.46514 0.37458 0.0
H3464 H 0.27914 0.44759 0.39879 0.0
H3465 H 0.25757 0.46475 0.39819 0.0
H3466 H 0.22806 0.42653 0.3962 0.0
H3467 H 0.24883 0.4086 0.39605 0.0
H3468 H 0.22475 0.40023 0.37042 0.0
H3469 H 0.25903 0.41037 0.28468 0.0
H3470 H 0.28468 0.38416 0.29279 0.0
H3471 H 0.28044 0.39921 0.37438 0.0
C3472 C 0.21652 0.45176 0.3535 0.0
C3473 C 0.20274 0.45665 0.33243 0.0
C3474 C 0.2071 0.44937 0.30716 0.0
C3475 C 0.22469 0.43757 0.30287 0.0
C3476 C 0.23792 0.43321 0.32404 0.0
C3477 C 0.23402 0.43992 0.34887 0.0
C3478 C 0.25 0.43173 0.36796 0.0
C3479 C 0.26667 0.4536 0.38595 0.0
C3480 C 0.23708 0.41575 0.38353 0.0
C3481 C 0.26212 0.41758 0.34975 0.0
C3482 C 0.25556 0.41977 0.32468 0.0
C3483 C 0.26413 0.40847 0.3042 0.0
C3484 C 0.27878 0.39356 0.30913 0.0
C3485 C 0.2844 0.38925 0.33424 0.0
C3486 C 0.27661 0.4022 0.35507 0.0
H3487 H 0.26654 0.51682 0.13565 0.0
H3488 H 0.31168 0.58474 0.13584 0.0
H3489 H 0.28401 0.59247 0.10285 0.0
H3490 H 0.24118 0.50249 0.06584 0.0
H3491 H 0.21324 0.49074 0.07146 0.0
H3492 H 0.23761 0.4882 0.09269 0.0
H3493 H 0.22356 0.50996 0.13219 0.0
H3494 H 0.199 0.51203 0.11114 0.0
H3495 H 0.21689 0.53893 0.13205 0.0
H3496 H 0.25244 0.59421 0.07164 0.0
H3497 H 0.21468 0.59503 0.05114 0.0
H3498 H 0.18741 0.52747 0.07188 0.0
C3499 C 0.27055 0.53321 0.12856 0.0
C3500 C 0.29134 0.55011 0.13815 0.0
C3501 C 0.2959 0.57155 0.12881 0.0
C3502 C 0.28043 0.57596 0.10977 0.0
C3503 C 0.26033 0.55889 0.10037 0.0
C3504 C 0.25499 0.53821 0.10979 0.0
C3505 C 0.23095 0.52447 0.09838 0.0
C3506 C 0.23074 0.50003 0.08107 0.0
C3507 C 0.21677 0.52118 0.11972 0.0
C3508 C 0.22338 0.54156 0.08242 0.0
C3509 C 0.24105 0.5606 0.08297 0.0
C3510 C 0.23843 0.57935 0.07082 0.0
C3511 C 0.21685 0.57952 0.05898 0.0
C3512 C 0.19804 0.56133 0.05983 0.0
C3513 C 0.2015 0.54158 0.07085 0.0
H3514 H 0.8878 0.01443 0.3526 0.0
H3515 H 0.86442 0.01031 0.27166 0.0
H3516 H 0.84625 0.96693 0.26655 0.0
H3517 H 0.9013 0.95471 0.34294 0.0
H3518 H 0.89335 0.94902 0.37289 0.0
H3519 H 0.90376 0.97951 0.36986 0.0
H3520 H 0.86767 0.99098 0.38341 0.0
H3521 H 0.85703 0.96048 0.38626 0.0
H3522 H 0.84046 0.97426 0.36557 0.0
H3523 H 0.82723 0.92293 0.2721 0.0
H3524 H 0.81561 0.88401 0.28529 0.0
H3525 H 0.85542 0.9154 0.36123 0.0
C3526 C 0.87891 1.00444 0.33369 0.0
C3527 C 0.8775 0.01636 0.31256 0.0
C3528 C 0.86591 1.00209 0.28821 0.0
C3529 C 0.85537 0.97726 0.28522 0.0
C3530 C 0.85685 0.96626 0.30656 0.0
C3531 C 0.86891 0.97945 0.33022 0.0
C3532 C 0.86909 0.96336 0.34994 0.0
C3533 C 0.89331 0.96154 0.35947 0.0
C3534 C 0.8579 0.97284 0.37264 0.0
C3535 C 0.85497 0.93906 0.33404 0.0
C3536 C 0.84766 0.94115 0.30914 0.0
C3537 C 0.83328 0.92133 0.2915 0.0
C3538 C 0.82656 0.89913 0.29923 0.0
C3539 C 0.83449 0.89612 0.32433 0.0
C3540 C 0.84904 0.91667 0.34181 0.0
H3541 H 0.69615 0.08488 0.87295 0.0
H3542 H 0.68804 0.03991 0.79618 0.0
H3543 H 0.71533 0.07124 0.78421 0.0
H3544 H 0.69899 0.14042 0.85175 0.0
H3545 H 0.71961 0.15824 0.87905 0.0
H3546 H 0.70047 0.13162 0.88243 0.0
H3547 H 0.73442 0.11477 0.89901 0.0
H3548 H 0.75367 0.14127 0.89544 0.0
H3549 H 0.75602 0.11178 0.87955 0.0
H3550 H 0.74311 0.10649 0.78011 0.0
H3551 H 0.76647 0.14661 0.78203 0.0
H3552 H 0.75596 0.17049 0.86055 0.0
C3553 C 0.70019 0.08167 0.85366 0.0
C3554 C 0.69001 0.05992 0.83553 0.0
C3555 C 0.69551 0.05646 0.81038 0.0
C3556 C 0.71116 0.07405 0.80343 0.0
C3557 C 0.72102 0.09514 0.82174 0.0
C3558 C 0.71557 0.09929 0.84619 0.0
C3559 C 0.72765 0.12432 0.86145 0.0
C3560 C 0.71066 0.13955 0.86911 0.0
C3561 C 0.7439 0.12294 0.88527 0.0
C3562 C 0.74042 0.13359 0.84153 0.0
C3563 C 0.73667 0.11618 0.81901 0.0
C3564 C 0.74629 0.1203 0.79764 0.0
C3565 C 0.7597 0.1431 0.79901 0.0
C3566 C 0.76318 0.1616 0.82149 0.0
C3567 C 0.75363 0.15664 0.84315 0.0
loop_
_geom_bond_atom_site_label_1
_geom_bond_atom_site_label_2
_geom_bond_distance
_geom_bond_site_symmetry_2
_ccdc_geom_bond_type
Mg0 O1 2.028 . S
Mg0 O7 1.986 . S
Mg0 O9 2.114 . S
Mg0 O10 2.251 . S
Mg0 O13 2.010 . S
O1 Mg0 2.028 . S
O1 C4 1.250 . S
O2 Mg3 2.028 . S
O2 C4 1.248 . S
Mg3 O2 2.028 . S
Mg3 O8 2.032 . S
Mg3 O10 2.079 . S
C4 O1 1.250 . S
C4 O2 1.248 . S
C5 O6 1.264 . S
C5 O13 1.249 . S
O6 C5 1.264 . S
O7 Mg0 1.986 . S
O7 C11 1.246 . S
O8 Mg3 2.032 . S
O8 C11 1.259 . S
O9 Mg0 2.114 . S
O9 C12 1.252 . S
O10 Mg0 2.251 . S
O10 Mg3 2.079 . S
O10 C12 1.273 . S
C11 O7 1.246 . S
C11 O8 1.259 . S
C12 O9 1.252 . S
C12 O10 1.273 . S
O13 Mg0 2.010 . S
O13 C5 1.249 . S
Mg14 O15 2.028 . S
Mg14 O21 1.986 . S
Mg14 O23 2.114 1_455 S
Mg14 O24 2.251 1_455 S
Mg14 O27 2.010 . S
O15 Mg14 2.028 . S
O15 C18 1.250 1_455 S
O16 Mg17 2.028 . S
O16 C18 1.248 . S
Mg17 O16 2.028 . S
Mg17 O22 2.032 . S
Mg17 O24 2.079 . S
C18 O15 1.250 1_655 S
C18 O16 1.248 . S
C19 O20 1.264 . S
C19 O27 1.249 . S
O20 C19 1.264 . S
O21 Mg14 1.986 . S
O21 C25 1.246 1_455 S
O22 Mg17 2.032 . S
O22 C25 1.259 . S
O23 Mg14 2.114 1_655 S
O23 C26 1.252 . S
O24 Mg14 2.251 1_655 S
O24 Mg17 2.079 . S
O24 C26 1.273 . S
C25 O21 1.246 1_655 S
C25 O22 1.259 . S
C26 O23 1.252 . S
C26 O24 1.273 . S
O27 Mg14 2.010 . S
O27 C19 1.249 . S
Mg28 O29 2.028 1_556 S
Mg28 O35 1.986 1_556 S
Mg28 O37 2.114 . S
Mg28 O38 2.251 . S
Mg28 O41 2.010 . S
O29 Mg28 2.028 1_554 S
O29 C32 1.250 . S
O30 Mg31 2.028 . S
O30 C32 1.248 . S
Mg31 O30 2.028 . S
Mg31 O36 2.032 . S
Mg31 O38 2.079 1_554 S
C32 O29 1.250 . S
C32 O30 1.248 . S
C33 O34 1.264 . S
C33 O41 1.249 . S
O34 C33 1.264 . S
O35 Mg28 1.986 1_554 S
O35 C39 1.246 . S
O36 Mg31 2.032 . S
O36 C39 1.259 . S
O37 Mg28 2.114 . S
O37 C40 1.252 . S
O38 Mg28 2.251 . S
O38 Mg31 2.079 1_556 S
O38 C40 1.273 . S
C39 O35 1.246 . S
C39 O36 1.259 . S
C40 O37 1.252 . S
C40 O38 1.273 . S
O41 Mg28 2.010 . S
O41 C33 1.249 . S
Mg42 O43 2.028 . S
Mg42 O49 1.986 . S
Mg42 O51 2.114 . S
Mg42 O52 2.251 . S
Mg42 O55 2.010 . S
O43 Mg42 2.028 . S
O43 C46 1.250 . S
O44 Mg45 2.028 . S
O44 C46 1.248 . S
Mg45 O44 2.028 . S
Mg45 O50 2.032 . S
Mg45 O52 2.079 . S
C46 O43 1.250 . S
C46 O44 1.248 . S
C47 O48 1.264 . S
C47 O55 1.249 . S
O48 C47 1.264 . S
O49 Mg42 1.986 . S
O49 C53 1.246 . S
O50 Mg45 2.032 . S
O50 C53 1.259 . S
O51 Mg42 2.114 . S
O51 C54 1.252 . S
O52 Mg42 2.251 . S
O52 Mg45 2.079 . S
O52 C54 1.273 . S
C53 O49 1.246 . S
C53 O50 1.259 . S
C54 O51 1.252 . S
C54 O52 1.273 . S
O55 Mg42 2.010 . S
O55 C47 1.249 . S
Mg56 O57 2.028 . S
Mg56 O63 1.986 . S
Mg56 O65 2.114 . S
Mg56 O66 2.268 . S
Mg56 O69 2.010 . S
O57 Mg56 2.028 . S
O57 C60 1.250 . S
O58 Mg59 2.028 1_455 S
O58 C60 1.248 . S
Mg59 O58 2.028 1_655 S
Mg59 O64 2.032 1_655 S
Mg59 O66 2.076 1_655 S
C60 O57 1.250 . S
C60 O58 1.248 . S
C61 O62 1.264 . S
C61 O69 1.249 . S
O62 C61 1.264 . S
O63 Mg56 1.986 . S
O63 C67 1.246 . S
O64 Mg59 2.032 1_455 S
O64 C67 1.259 . S
O65 Mg56 2.114 . S
O65 C68 1.252 . S
O66 Mg56 2.268 . S
O66 Mg59 2.076 1_455 S
O66 C68 1.273 . S
C67 O63 1.246 . S
C67 O64 1.259 . S
C68 O65 1.252 . S
C68 O66 1.273 . S
O69 Mg56 2.010 . S
O69 C61 1.249 . S
Mg70 O71 2.028 . S
Mg70 O77 1.986 . S
Mg70 O79 2.114 . S
Mg70 O80 2.251 . S
Mg70 O83 2.010 . S
O71 Mg70 2.028 . S
O71 C74 1.250 . S
O72 Mg73 2.028 . S
O72 C74 1.248 . S
Mg73 O72 2.028 . S
Mg73 O78 2.032 . S
Mg73 O80 2.079 . S
C74 O71 1.250 . S
C74 O72 1.248 . S
C75 O76 1.264 . S
C75 O83 1.249 . S
O76 C75 1.264 . S
O77 Mg70 1.986 . S
O77 C81 1.246 . S
O78 Mg73 2.032 . S
O78 C81 1.259 . S
O79 Mg70 2.114 . S
O79 C82 1.252 . S
O80 Mg70 2.251 . S
O80 Mg73 2.079 . S
O80 C82 1.273 . S
C81 O77 1.246 . S
C81 O78 1.259 . S
C82 O79 1.252 . S
C82 O80 1.273 . S
O83 Mg70 2.010 . S
O83 C75 1.249 . S
Mg84 O85 2.028 . S
Mg84 O91 1.986 . S
Mg84 O93 2.114 . S
Mg84 O94 2.251 . S
Mg84 O97 2.010 . S
O85 Mg84 2.028 . S
O85 C88 1.250 . S
O86 Mg87 2.028 . S
O86 C88 1.248 . S
Mg87 O86 2.028 . S
Mg87 O92 2.032 . S
Mg87 O94 2.079 . S
C88 O85 1.250 . S
C88 O86 1.248 . S
C89 O90 1.264 . S
C89 O97 1.249 . S
O90 C89 1.264 . S
O91 Mg84 1.986 . S
O91 C95 1.246 . S
O92 Mg87 2.032 . S
O92 C95 1.259 . S
O93 Mg84 2.114 . S
O93 C96 1.252 . S
O94 Mg84 2.251 . S
O94 Mg87 2.079 . S
O94 C96 1.273 . S
C95 O91 1.246 . S
C95 O92 1.259 . S
C96 O93 1.252 . S
C96 O94 1.273 . S
O97 Mg84 2.010 . S
O97 C89 1.249 . S
Mg98 O99 2.028 . S
Mg98 O105 1.986 . S
Mg98 O107 2.114 . S
Mg98 O108 2.251 . S
Mg98 O111 2.010 . S
O99 Mg98 2.028 . S
O99 C102 1.250 . S
O100 Mg101 2.028 . S
O100 C102 1.248 . S
Mg101 O100 2.028 . S
Mg101 O106 2.032 . S
Mg101 O108 2.079 . S
C102 O99 1.250 . S
C102 O100 1.248 . S
C103 O104 1.264 . S
C103 O111 1.249 . S
O104 C103 1.264 . S
O105 Mg98 1.986 . S
O105 C109 1.246 . S
O106 Mg101 2.032 . S
O106 C109 1.259 . S
O107 Mg98 2.114 . S
O107 C110 1.252 . S
O108 Mg98 2.251 . S
O108 Mg101 2.079 . S
O108 C110 1.273 . S
C109 O105 1.246 . S
C109 O106 1.259 . S
C110 O107 1.252 . S
C110 O108 1.273 . S
O111 Mg98 2.010 . S
O111 C103 1.249 . S
Mg112 O113 2.028 . S
Mg112 O119 1.986 . S
Mg112 O121 2.114 . S
Mg112 O122 2.251 . S
Mg112 O125 2.010 . S
O113 Mg112 2.028 . S
O113 C116 1.250 . S
O114 Mg115 2.028 . S
O114 C116 1.248 . S
Mg115 O114 2.028 . S
Mg115 O120 2.032 . S
Mg115 O122 2.079 . S
C116 O113 1.250 . S
C116 O114 1.248 . S
C117 O118 1.264 . S
C117 O125 1.249 . S
O118 C117 1.264 . S
O119 Mg112 1.986 . S
O119 C123 1.246 . S
O120 Mg115 2.032 . S
O120 C123 1.259 . S
O121 Mg112 2.114 . S
O121 C124 1.252 . S
O122 Mg112 2.251 . S
O122 Mg115 2.079 . S
O122 C124 1.273 . S
C123 O119 1.246 . S
C123 O120 1.259 . S
C124 O121 1.252 . S
C124 O122 1.273 . S
O125 Mg112 2.010 . S
O125 C117 1.249 . S
Mg126 O127 2.028 . S
Mg126 O133 1.986 . S
Mg126 O135 2.114 . S
Mg126 O136 2.251 . S
Mg126 O139 2.010 . S
O127 Mg126 2.028 . S
O127 C130 1.250 . S
O128 Mg129 2.028 . S
O128 C130 1.248 . S
Mg129 O128 2.028 . S
Mg129 O134 2.032 . S
Mg129 O136 2.079 . S
C130 O127 1.250 . S
C130 O128 1.248 . S
C131 O132 1.264 . S
C131 O139 1.249 . S
O132 C131 1.264 . S
O133 Mg126 1.986 . S
O133 C137 1.246 . S
O134 Mg129 2.032 . S
O134 C137 1.259 . S
O135 Mg126 2.114 . S
O135 C138 1.252 . S
O136 Mg126 2.251 . S
O136 Mg129 2.079 . S
O136 C138 1.273 . S
C137 O133 1.246 . S
C137 O134 1.259 . S
C138 O135 1.252 . S
C138 O136 1.273 . S
O139 Mg126 2.010 . S
O139 C131 1.249 . S
Mg140 O141 2.028 . S
Mg140 O147 1.986 . S
Mg140 O149 2.114 . S
Mg140 O150 2.251 . S
Mg140 O153 2.010 . S
O141 Mg140 2.028 . S
O141 C144 1.250 . S
O142 Mg143 2.028 . S
O142 C144 1.248 . S
Mg143 O142 2.028 . S
Mg143 O148 2.032 . S
Mg143 O150 2.079 . S
C144 O141 1.250 . S
C144 O142 1.248 . S
C145 O146 1.264 . S
C145 O153 1.249 . S
O146 C145 1.264 . S
O147 Mg140 1.986 . S
O147 C151 1.246 . S
O148 Mg143 2.032 . S
O148 C151 1.259 . S
O149 Mg140 2.114 . S
O149 C152 1.252 . S
O150 Mg140 2.251 . S
O150 Mg143 2.079 . S
O150 C152 1.273 . S
C151 O147 1.246 . S
C151 O148 1.259 . S
C152 O149 1.252 . S
C152 O150 1.273 . S
O153 Mg140 2.010 . S
O153 C145 1.249 . S
Mg154 O155 2.028 . S
Mg154 O161 1.986 . S
Mg154 O163 2.114 . S
Mg154 O164 2.251 . S
Mg154 O167 2.010 . S
O155 Mg154 2.028 . S
O155 C158 1.250 . S
O156 Mg157 2.028 . S
O156 C158 1.248 . S
Mg157 O156 2.028 . S
Mg157 O162 2.032 . S
Mg157 O164 2.079 . S
C158 O155 1.250 . S
C158 O156 1.248 . S
C159 O160 1.264 . S
C159 O167 1.249 . S
O160 C159 1.264 . S
O161 Mg154 1.986 . S
O161 C165 1.246 . S
O162 Mg157 2.032 . S
O162 C165 1.259 . S
O163 Mg154 2.114 . S
O163 C166 1.252 . S
O164 Mg154 2.251 . S
O164 Mg157 2.079 . S
O164 C166 1.273 . S
C165 O161 1.246 . S
C165 O162 1.259 . S
C166 O163 1.252 . S
C166 O164 1.273 . S
O167 Mg154 2.010 . S
O167 C159 1.249 . S
Mg168 O169 2.028 . S
Mg168 O175 1.986 . S
Mg168 O177 2.114 . S
Mg168 O178 2.251 . S
Mg168 O181 2.010 . S
O169 Mg168 2.028 . S
O169 C172 1.250 . S
O170 Mg171 2.028 . S
O170 C172 1.248 . S
Mg171 O170 2.028 . S
Mg171 O176 2.032 . S
Mg171 O178 2.079 . S
C172 O169 1.250 . S
C172 O170 1.248 . S
C173 O174 1.264 . S
C173 O181 1.249 . S
O174 C173 1.264 . S
O175 Mg168 1.986 . S
O175 C179 1.246 . S
O176 Mg171 2.032 . S
O176 C179 1.259 . S
O177 Mg168 2.114 . S
O177 C180 1.252 . S
O178 Mg168 2.251 . S
O178 Mg171 2.079 . S
O178 C180 1.273 . S
C179 O175 1.246 . S
C179 O176 1.259 . S
C180 O177 1.252 . S
C180 O178 1.273 . S
O181 Mg168 2.010 . S
O181 C173 1.249 . S
Mg182 O183 2.028 . S
Mg182 O189 1.986 . S
Mg182 O191 2.114 . S
Mg182 O192 2.251 . S
Mg182 O195 2.010 . S
O183 Mg182 2.028 . S
O183 C186 1.250 . S
O184 Mg185 2.028 . S
O184 C186 1.248 . S
Mg185 O184 2.028 . S
Mg185 O190 2.032 . S
Mg185 O192 2.079 . S
C186 O183 1.250 . S
C186 O184 1.248 . S
C187 O188 1.264 . S
C187 O195 1.249 . S
O188 C187 1.264 . S
O189 Mg182 1.986 . S
O189 C193 1.246 . S
O190 Mg185 2.032 . S
O190 C193 1.259 . S
O191 Mg182 2.114 . S
O191 C194 1.252 . S
O192 Mg182 2.251 . S
O192 Mg185 2.079 . S
O192 C194 1.273 . S
C193 O189 1.246 . S
C193 O190 1.259 . S
C194 O191 1.252 . S
C194 O192 1.273 . S
O195 Mg182 2.010 . S
O195 C187 1.249 . S
Mg196 O197 2.028 . S
Mg196 O203 1.986 . S
Mg196 O205 2.114 . S
Mg196 O206 2.251 . S
Mg196 O209 2.010 . S
O197 Mg196 2.028 . S
O197 C200 1.250 . S
O198 Mg199 2.028 . S
O198 C200 1.248 . S
Mg199 O198 2.028 . S
Mg199 O204 2.032 . S
Mg199 O206 2.079 . S
C200 O197 1.250 . S
C200 O198 1.248 . S
C201 O202 1.264 . S
C201 O209 1.249 . S
O202 C201 1.264 . S
O203 Mg196 1.986 . S
O203 C207 1.246 . S
O204 Mg199 2.032 . S
O204 C207 1.259 . S
O205 Mg196 2.114 . S
O205 C208 1.252 . S
O206 Mg196 2.251 . S
O206 Mg199 2.079 . S
O206 C208 1.273 . S
C207 O203 1.246 . S
C207 O204 1.259 . S
C208 O205 1.252 . S
C208 O206 1.273 . S
O209 Mg196 2.010 . S
O209 C201 1.249 . S
Mg210 O211 2.028 1_545 S
Mg210 O217 1.986 1_545 S
Mg210 O219 2.114 . S
Mg210 O220 2.251 . S
Mg210 O223 2.010 . S
O211 Mg210 2.028 1_565 S
O211 C214 1.250 . S
O212 Mg213 2.028 . S
O212 C214 1.248 . S
Mg213 O212 2.028 . S
Mg213 O218 2.032 . S
Mg213 O220 2.079 1_565 S
C214 O211 1.250 . S
C214 O212 1.248 . S
C215 O216 1.264 . S
C215 O223 1.249 . S
O216 C215 1.264 . S
O217 Mg210 1.986 1_565 S
O217 C221 1.246 . S
O218 Mg213 2.032 . S
O218 C221 1.259 . S
O219 Mg210 2.114 . S
O219 C222 1.252 . S
O220 Mg210 2.251 . S
O220 Mg213 2.079 1_545 S
O220 C222 1.273 . S
C221 O217 1.246 . S
C221 O218 1.259 . S
C222 O219 1.252 . S
C222 O220 1.273 . S
O223 Mg210 2.010 . S
O223 C215 1.249 . S
Mg224 O225 2.028 . S
Mg224 O231 1.986 . S
Mg224 O233 2.114 . S
Mg224 O234 2.251 . S
Mg224 O237 2.010 . S
O225 Mg224 2.028 . S
O225 C228 1.250 . S
O226 Mg227 2.028 . S
O226 C228 1.248 . S
Mg227 O226 2.028 . S
Mg227 O232 2.032 . S
Mg227 O234 2.079 . S
C228 O225 1.250 . S
C228 O226 1.248 . S
C229 O230 1.264 . S
C229 O237 1.249 . S
O230 C229 1.264 . S
O231 Mg224 1.986 . S
O231 C235 1.246 . S
O232 Mg227 2.032 . S
O232 C235 1.259 . S
O233 Mg224 2.114 . S
O233 C236 1.252 . S
O234 Mg224 2.251 . S
O234 Mg227 2.079 . S
O234 C236 1.273 . S
C235 O231 1.246 . S
C235 O232 1.259 . S
C236 O233 1.252 . S
C236 O234 1.273 . S
O237 Mg224 2.010 . S
O237 C229 1.249 . S
Mg238 O239 2.028 . S
Mg238 O245 1.986 . S
Mg238 O247 2.114 . S
Mg238 O248 2.251 . S
Mg238 O251 2.010 . S
O239 Mg238 2.028 . S
O239 C242 1.250 . S
O240 Mg241 2.028 . S
O240 C242 1.248 . S
Mg241 O240 2.028 . S
Mg241 O246 2.032 . S
Mg241 O248 2.079 . S
C242 O239 1.250 . S
C242 O240 1.248 . S
C243 O244 1.264 . S
C243 O251 1.249 . S
O244 C243 1.264 . S
O245 Mg238 1.986 . S
O245 C249 1.246 . S
O246 Mg241 2.032 . S
O246 C249 1.259 . S
O247 Mg238 2.114 . S
O247 C250 1.252 . S
O248 Mg238 2.251 . S
O248 Mg241 2.079 . S
O248 C250 1.273 . S
C249 O245 1.246 . S
C249 O246 1.259 . S
C250 O247 1.252 . S
C250 O248 1.273 . S
O251 Mg238 2.010 . S
O251 C243 1.249 . S
Mg252 O253 2.028 . S
Mg252 O259 1.986 . S
Mg252 O261 2.114 . S
Mg252 O262 2.251 . S
Mg252 O265 2.010 . S
O253 Mg252 2.028 . S
O253 C256 1.250 . S
O254 Mg255 2.028 . S
O254 C256 1.248 . S
Mg255 O254 2.028 . S
Mg255 O260 2.032 . S
Mg255 O262 2.079 . S
C256 O253 1.250 . S
C256 O254 1.248 . S
C257 O258 1.264 . S
C257 O265 1.249 . S
O258 C257 1.264 . S
O259 Mg252 1.986 . S
O259 C263 1.246 . S
O260 Mg255 2.032 . S
O260 C263 1.259 . S
O261 Mg252 2.114 . S
O261 C264 1.252 . S
O262 Mg252 2.251 . S
O262 Mg255 2.079 . S
O262 C264 1.273 . S
C263 O259 1.246 . S
C263 O260 1.259 . S
C264 O261 1.252 . S
C264 O262 1.273 . S
O265 Mg252 2.010 . S
O265 C257 1.249 . S
Mg266 O267 2.028 1_565 S
Mg266 O273 1.986 . S
Mg266 O275 2.114 1_565 S
Mg266 O276 2.251 . S
Mg266 O279 2.010 . S
O267 Mg266 2.028 1_545 S
O267 C270 1.250 . S
O268 Mg269 2.028 . S
O268 C270 1.248 . S
Mg269 O268 2.028 . S
Mg269 O274 2.032 1_545 S
Mg269 O276 2.079 1_545 S
C270 O267 1.250 . S
C270 O268 1.248 . S
C271 O272 1.264 . S
C271 O279 1.249 . S
O272 C271 1.264 . S
O273 Mg266 1.986 . S
O273 C277 1.246 . S
O274 Mg269 2.032 1_565 S
O274 C277 1.259 . S
O275 Mg266 2.114 1_545 S
O275 C278 1.252 . S
O276 Mg266 2.251 . S
O276 Mg269 2.079 1_565 S
O276 C278 1.273 1_565 S
C277 O273 1.246 . S
C277 O274 1.259 . S
C278 O275 1.252 . S
C278 O276 1.273 1_545 S
O279 Mg266 2.010 . S
O279 C271 1.249 . S
Mg280 O281 2.028 1_556 S
Mg280 O287 1.986 . S
Mg280 O289 2.114 1_556 S
Mg280 O290 2.251 . S
Mg280 O293 2.010 . S
O281 Mg280 2.028 1_554 S
O281 C284 1.250 . S
O282 Mg283 2.028 . S
O282 C284 1.248 . S
Mg283 O282 2.028 . S
Mg283 O288 2.032 1_554 S
Mg283 O290 2.079 1_554 S
C284 O281 1.250 . S
C284 O282 1.248 . S
C285 O286 1.264 . S
C285 O293 1.249 . S
O286 C285 1.264 . S
O287 Mg280 1.986 . S
O287 C291 1.246 . S
O288 Mg283 2.032 1_556 S
O288 C291 1.259 . S
O289 Mg280 2.114 1_554 S
O289 C292 1.252 . S
O290 Mg280 2.251 . S
O290 Mg283 2.079 1_556 S
O290 C292 1.273 1_556 S
C291 O287 1.246 . S
C291 O288 1.259 . S
C292 O289 1.252 . S
C292 O290 1.273 1_554 S
O293 Mg280 2.010 . S
O293 C285 1.249 . S
Mg294 O295 2.028 . S
Mg294 O301 1.986 . S
Mg294 O303 2.114 . S
Mg294 O304 2.251 . S
Mg294 O307 2.010 . S
O295 Mg294 2.028 . S
O295 C298 1.250 . S
O296 Mg297 2.028 . S
O296 C298 1.248 . S
Mg297 O296 2.028 . S
Mg297 O302 2.032 . S
Mg297 O304 2.079 . S
C298 O295 1.250 . S
C298 O296 1.248 . S
C299 O300 1.264 1_655 S
C299 O307 1.249 . S
O300 C299 1.264 1_455 S
O301 Mg294 1.986 . S
O301 C305 1.246 . S
O302 Mg297 2.032 . S
O302 C305 1.259 . S
O303 Mg294 2.114 . S
O303 C306 1.252 . S
O304 Mg294 2.251 . S
O304 Mg297 2.079 . S
O304 C306 1.273 . S
C305 O301 1.246 . S
C305 O302 1.259 . S
C306 O303 1.252 . S
C306 O304 1.273 . S
O307 Mg294 2.010 . S
O307 C299 1.249 . S
Mg308 O309 2.028 . S
Mg308 O315 1.986 . S
Mg308 O317 2.114 . S
Mg308 O318 2.251 . S
Mg308 O321 2.010 . S
O309 Mg308 2.028 . S
O309 C312 1.250 . S
O310 Mg311 2.028 . S
O310 C312 1.248 . S
Mg311 O310 2.028 . S
Mg311 O316 2.032 . S
Mg311 O318 2.079 . S
C312 O309 1.250 . S
C312 O310 1.248 . S
C313 O314 1.264 . S
C313 O321 1.249 . S
O314 C313 1.264 . S
O315 Mg308 1.986 . S
O315 C319 1.246 . S
O316 Mg311 2.032 . S
O316 C319 1.259 . S
O317 Mg308 2.114 . S
O317 C320 1.252 . S
O318 Mg308 2.251 . S
O318 Mg311 2.079 . S
O318 C320 1.273 . S
C319 O315 1.246 . S
C319 O316 1.259 . S
C320 O317 1.252 . S
C320 O318 1.273 . S
O321 Mg308 2.010 . S
O321 C313 1.249 . S
Mg322 O323 2.028 . S
Mg322 O329 1.986 . S
Mg322 O331 2.114 . S
Mg322 O332 2.251 . S
Mg322 O335 2.010 . S
O323 Mg322 2.028 . S
O323 C326 1.250 . S
O324 Mg325 2.028 . S
O324 C326 1.248 . S
Mg325 O324 2.028 . S
Mg325 O330 2.032 . S
Mg325 O332 2.079 . S
C326 O323 1.250 . S
C326 O324 1.248 . S
C327 O328 1.264 . S
C327 O335 1.249 . S
O328 C327 1.264 . S
O329 Mg322 1.986 . S
O329 C333 1.246 . S
O330 Mg325 2.032 . S
O330 C333 1.259 . S
O331 Mg322 2.114 . S
O331 C334 1.252 . S
O332 Mg322 2.251 . S
O332 Mg325 2.079 . S
O332 C334 1.273 . S
C333 O329 1.246 . S
C333 O330 1.259 . S
C334 O331 1.252 . S
C334 O332 1.273 . S
O335 Mg322 2.010 . S
O335 C327 1.249 . S
Nd336 C338 2.836 . S
Nd336 O356 2.500 . S
Nd336 O357 2.492 . S
Nd336 O358 2.487 . S
Nd336 O359 2.682 . S
Nd336 O360 2.410 . S
Nd336 O365 2.414 . S
Nd336 O367 2.424 . S
Nd337 C347 2.836 1_545 S
Nd337 O359 2.414 . S
Nd337 O361 2.424 1_455 S
Nd337 O362 2.500 1_545 S
Nd337 O363 2.492 1_545 S
Nd337 O364 2.487 . S
Nd337 O365 2.682 . S
Nd337 O366 2.410 . S
C338 Nd336 2.836 . S
C338 C339 1.498 . S
C338 O356 1.258 . S
C338 O357 1.239 . S
C339 C338 1.498 . S
C339 C340 1.366 . S
C339 C344 1.407 . S
C340 C339 1.366 . S
C340 C341 1.392 . S
C340 H368 0.930 . S
C341 C340 1.392 . S
C341 C342 1.398 . S
C341 H369 0.929 . S
C342 C341 1.398 . S
C342 C343 1.352 . S
C343 C342 1.352 . S
C343 C344 1.384 . S
C343 H370 0.930 . S
C344 C339 1.407 . S
C344 C343 1.384 . S
C344 H371 0.929 . S
C345 O358 1.241 . S
C345 O359 1.273 . S
C346 O360 1.251 1_655 S
C346 O361 1.268 . S
C347 Nd337 2.836 1_565 S
C347 C348 1.498 . S
C347 O362 1.258 . S
C347 O363 1.239 . S
C348 C347 1.498 . S
C348 C349 1.366 . S
C348 C353 1.407 . S
C349 C348 1.366 . S
C349 C350 1.392 . S
C349 H372 0.930 . S
C350 C349 1.392 . S
C350 C351 1.398 . S
C350 H373 0.929 . S
C351 C350 1.398 . S
C351 C352 1.352 . S
C352 C351 1.352 . S
C352 C353 1.384 . S
C352 H374 0.930 . S
C353 C348 1.407 . S
C353 C352 1.384 . S
C353 H375 0.929 . S
C354 O364 1.241 . S
C354 O365 1.273 . S
C355 O366 1.251 . S
C355 O367 1.268 . S
O356 Nd336 2.500 . S
O356 C338 1.258 . S
O357 Nd336 2.492 . S
O357 C338 1.239 . S
O358 Nd336 2.487 . S
O358 C345 1.241 . S
O359 Nd336 2.682 . S
O359 Nd337 2.414 . S
O359 C345 1.273 . S
O360 Nd336 2.410 . S
O360 C346 1.251 1_455 S
O361 Nd337 2.424 1_655 S
O361 C346 1.268 . S
O362 Nd337 2.500 1_565 S
O362 C347 1.258 . S
O363 Nd337 2.492 1_565 S
O363 C347 1.239 . S
O364 Nd337 2.487 . S
O364 C354 1.241 . S
O365 Nd336 2.414 . S
O365 Nd337 2.682 . S
O365 C354 1.273 . S
O366 Nd337 2.410 . S
O366 C355 1.251 . S
O367 Nd336 2.424 . S
O367 C355 1.268 . S
H368 C340 0.930 . S
H369 C341 0.929 . S
H370 C343 0.930 . S
H371 C344 0.929 . S
H372 C349 0.930 . S
H373 C350 0.929 . S
H374 C352 0.930 . S
H375 C353 0.929 . S
Nd376 C378 2.836 . S
Nd376 O396 2.500 . S
Nd376 O397 2.492 . S
Nd376 O398 2.487 . S
Nd376 O399 2.682 . S
Nd376 O400 2.410 . S
Nd376 O405 2.414 . S
Nd376 O407 2.424 . S
Nd377 C387 2.836 . S
Nd377 O399 2.414 . S
Nd377 O401 2.424 . S
Nd377 O402 2.500 . S
Nd377 O403 2.492 . S
Nd377 O404 2.487 . S
Nd377 O405 2.682 . S
Nd377 O406 2.410 . S
C378 Nd376 2.836 . S
C378 C379 1.498 . S
C378 O396 1.258 . S
C378 O397 1.239 . S
C379 C378 1.498 . S
C379 C380 1.366 . S
C379 C384 1.407 . S
C380 C379 1.366 . S
C380 C381 1.392 . S
C380 H408 0.930 . S
C381 C380 1.392 . S
C381 C382 1.398 . S
C381 H409 0.929 . S
C382 C381 1.398 . S
C382 C383 1.352 . S
C383 C382 1.352 . S
C383 C384 1.384 . S
C383 H410 0.930 . S
C384 C379 1.407 . S
C384 C383 1.384 . S
C384 H411 0.929 . S
C385 O398 1.241 . S
C385 O399 1.273 . S
C386 O400 1.251 . S
C386 O401 1.268 . S
C387 Nd377 2.836 . S
C387 C388 1.498 . S
C387 O402 1.258 . S
C387 O403 1.239 . S
C388 C387 1.498 . S
C388 C389 1.366 . S
C388 C393 1.407 . S
C389 C388 1.366 . S
C389 C390 1.392 . S
C389 H412 0.930 . S
C390 C389 1.392 . S
C390 C391 1.398 . S
C390 H413 0.929 . S
C391 C390 1.398 . S
C391 C392 1.352 . S
C392 C391 1.352 . S
C392 C393 1.384 . S
C392 H414 0.930 . S
C393 C388 1.407 . S
C393 C392 1.384 . S
C393 H415 0.929 . S
C394 O404 1.241 . S
C394 O405 1.273 . S
C395 O406 1.251 . S
C395 O407 1.268 . S
O396 Nd376 2.500 . S
O396 C378 1.258 . S
O397 Nd376 2.492 . S
O397 C378 1.239 . S
O398 Nd376 2.487 . S
O398 C385 1.241 . S
O399 Nd376 2.682 . S
O399 Nd377 2.414 . S
O399 C385 1.273 . S
O400 Nd376 2.410 . S
O400 C386 1.251 . S
O401 Nd377 2.424 . S
O401 C386 1.268 . S
O402 Nd377 2.500 . S
O402 C387 1.258 . S
O403 Nd377 2.492 . S
O403 C387 1.239 . S
O404 Nd377 2.487 . S
O404 C394 1.241 . S
O405 Nd376 2.414 . S
O405 Nd377 2.682 . S
O405 C394 1.273 . S
O406 Nd377 2.410 . S
O406 C395 1.251 . S
O407 Nd376 2.424 . S
O407 C395 1.268 . S
H408 C380 0.930 . S
H409 C381 0.929 . S
H410 C383 0.930 . S
H411 C384 0.929 . S
H412 C389 0.930 . S
H413 C390 0.929 . S
H414 C392 0.930 . S
H415 C393 0.929 . S
Nd416 C418 2.836 . S
Nd416 O436 2.500 . S
Nd416 O437 2.492 . S
Nd416 O438 2.487 . S
Nd416 O439 2.682 . S
Nd416 O440 2.410 . S
Nd416 O445 2.414 . S
Nd416 O447 2.424 . S
Nd417 C427 2.836 . S
Nd417 O439 2.414 . S
Nd417 O441 2.424 . S
Nd417 O442 2.500 . S
Nd417 O443 2.492 . S
Nd417 O444 2.487 . S
Nd417 O445 2.682 . S
Nd417 O446 2.410 . S
C418 Nd416 2.836 . S
C418 C419 1.498 . S
C418 O436 1.258 . S
C418 O437 1.239 . S
C419 C418 1.498 . S
C419 C420 1.366 . S
C419 C424 1.407 . S
C420 C419 1.366 . S
C420 C421 1.392 . S
C420 H448 0.930 . S
C421 C420 1.392 . S
C421 C422 1.398 . S
C421 H449 0.929 . S
C422 C421 1.398 . S
C422 C423 1.352 . S
C423 C422 1.352 . S
C423 C424 1.384 . S
C423 H450 0.930 . S
C424 C419 1.407 . S
C424 C423 1.384 . S
C424 H451 0.929 . S
C425 O438 1.241 . S
C425 O439 1.273 . S
C426 O440 1.251 . S
C426 O441 1.268 . S
C427 Nd417 2.836 . S
C427 C428 1.498 . S
C427 O442 1.258 . S
C427 O443 1.239 . S
C428 C427 1.498 . S
C428 C429 1.366 . S
C428 C433 1.407 . S
C429 C428 1.366 . S
C429 C430 1.392 . S
C429 H452 0.930 . S
C430 C429 1.392 . S
C430 C431 1.398 . S
C430 H453 0.929 . S
C431 C430 1.398 . S
C431 C432 1.352 . S
C432 C431 1.352 . S
C432 C433 1.384 . S
C432 H454 0.930 . S
C433 C428 1.407 . S
C433 C432 1.384 . S
C433 H455 0.929 . S
C434 O444 1.241 . S
C434 O445 1.273 . S
C435 O446 1.251 . S
C435 O447 1.268 . S
O436 Nd416 2.500 . S
O436 C418 1.258 . S
O437 Nd416 2.492 . S
O437 C418 1.239 . S
O438 Nd416 2.487 . S
O438 C425 1.241 . S
O439 Nd416 2.682 . S
O439 Nd417 2.414 . S
O439 C425 1.273 . S
O440 Nd416 2.410 . S
O440 C426 1.251 . S
O441 Nd417 2.424 . S
O441 C426 1.268 . S
O442 Nd417 2.500 . S
O442 C427 1.258 . S
O443 Nd417 2.492 . S
O443 C427 1.239 . S
O444 Nd417 2.487 . S
O444 C434 1.241 . S
O445 Nd416 2.414 . S
O445 Nd417 2.682 . S
O445 C434 1.273 . S
O446 Nd417 2.410 . S
O446 C435 1.251 . S
O447 Nd416 2.424 . S
O447 C435 1.268 . S
H448 C420 0.930 . S
H449 C421 0.929 . S
H450 C423 0.930 . S
H451 C424 0.929 . S
H452 C429 0.930 . S
H453 C430 0.929 . S
H454 C432 0.930 . S
H455 C433 0.929 . S
Nd456 C458 2.836 . S
Nd456 O476 2.500 . S
Nd456 O477 2.492 . S
Nd456 O478 2.487 . S
Nd456 O479 2.682 . S
Nd456 O480 2.410 . S
Nd456 O485 2.414 . S
Nd456 O487 2.424 . S
Nd457 C467 2.836 . S
Nd457 O479 2.414 . S
Nd457 O481 2.424 . S
Nd457 O482 2.500 . S
Nd457 O483 2.492 . S
Nd457 O484 2.487 . S
Nd457 O485 2.682 . S
Nd457 O486 2.410 . S
C458 Nd456 2.836 . S
C458 C459 1.498 . S
C458 O476 1.258 . S
C458 O477 1.239 . S
C459 C458 1.498 . S
C459 C460 1.366 . S
C459 C464 1.407 . S
C460 C459 1.366 . S
C460 C461 1.392 . S
C460 H488 0.930 . S
C461 C460 1.392 . S
C461 C462 1.398 . S
C461 H489 0.929 . S
C462 C461 1.398 . S
C462 C463 1.352 . S
C463 C462 1.352 . S
C463 C464 1.384 . S
C463 H490 0.930 . S
C464 C459 1.407 . S
C464 C463 1.384 . S
C464 H491 0.929 . S
C465 O478 1.241 . S
C465 O479 1.273 . S
C466 O480 1.251 . S
C466 O481 1.268 . S
C467 Nd457 2.836 . S
C467 C468 1.498 . S
C467 O482 1.258 . S
C467 O483 1.239 . S
C468 C467 1.498 . S
C468 C469 1.366 . S
C468 C473 1.407 . S
C469 C468 1.366 . S
C469 C470 1.392 . S
C469 H492 0.930 . S
C470 C469 1.392 . S
C470 C471 1.398 . S
C470 H493 0.929 . S
C471 C470 1.398 . S
C471 C472 1.352 . S
C472 C471 1.352 . S
C472 C473 1.384 . S
C472 H494 0.930 . S
C473 C468 1.407 . S
C473 C472 1.384 . S
C473 H495 0.929 . S
C474 O484 1.241 . S
C474 O485 1.273 . S
C475 O486 1.251 . S
C475 O487 1.268 . S
O476 Nd456 2.500 . S
O476 C458 1.258 . S
O477 Nd456 2.492 . S
O477 C458 1.239 . S
O478 Nd456 2.487 . S
O478 C465 1.241 . S
O479 Nd456 2.682 . S
O479 Nd457 2.414 . S
O479 C465 1.273 . S
O480 Nd456 2.410 . S
O480 C466 1.251 . S
O481 Nd457 2.424 . S
O481 C466 1.268 . S
O482 Nd457 2.500 . S
O482 C467 1.258 . S
O483 Nd457 2.492 . S
O483 C467 1.239 . S
O484 Nd457 2.487 . S
O484 C474 1.241 . S
O485 Nd456 2.414 . S
O485 Nd457 2.682 . S
O485 C474 1.273 . S
O486 Nd457 2.410 . S
O486 C475 1.251 . S
O487 Nd456 2.424 . S
O487 C475 1.268 . S
H488 C460 0.930 . S
H489 C461 0.929 . S
H490 C463 0.930 . S
H491 C464 0.929 . S
H492 C469 0.930 . S
H493 C470 0.929 . S
H494 C472 0.930 . S
H495 C473 0.929 . S
Nd496 C498 2.836 . S
Nd496 O516 2.500 . S
Nd496 O517 2.492 . S
Nd496 O518 2.487 . S
Nd496 O519 2.682 . S
Nd496 O520 2.410 . S
Nd496 O525 2.414 . S
Nd496 O527 2.424 . S
Nd497 C507 2.836 1_545 S
Nd497 O519 2.414 . S
Nd497 O521 2.424 . S
Nd497 O522 2.500 . S
Nd497 O523 2.492 1_545 S
Nd497 O524 2.487 1_455 S
Nd497 O525 2.682 . S
Nd497 O526 2.410 . S
C498 Nd496 2.836 . S
C498 C499 1.498 . S
C498 O516 1.258 . S
C498 O517 1.239 . S
C499 C498 1.498 . S
C499 C500 1.366 . S
C499 C504 1.407 . S
C500 C499 1.366 . S
C500 C501 1.395 . S
C500 H528 0.930 1_455 S
C501 C500 1.395 . S
C501 C502 1.403 . S
C501 H529 0.922 1_455 S
C502 C501 1.403 . S
C502 C503 1.352 . S
C503 C502 1.352 . S
C503 C504 1.384 . S
C503 H530 0.930 . S
C504 C499 1.407 . S
C504 C503 1.384 . S
C504 H531 0.929 . S
C505 O518 1.241 . S
C505 O519 1.273 . S
C506 O520 1.251 . S
C506 O521 1.268 . S
C507 Nd497 2.836 1_565 S
C507 C508 1.498 . S
C507 O522 1.258 1_565 S
C507 O523 1.239 . S
C508 C507 1.498 . S
C508 C509 1.366 . S
C508 C513 1.407 . S
C509 C508 1.366 . S
C509 C510 1.392 . S
C509 H532 0.930 . S
C510 C509 1.392 . S
C510 C511 1.398 . S
C510 H533 0.929 . S
C511 C510 1.398 . S
C511 C512 1.352 . S
C512 C511 1.352 . S
C512 C513 1.384 . S
C512 H534 0.930 . S
C513 C508 1.407 . S
C513 C512 1.384 . S
C513 H535 0.929 . S
C514 O524 1.241 . S
C514 O525 1.273 1_655 S
C515 O526 1.251 . S
C515 O527 1.268 . S
O516 Nd496 2.500 . S
O516 C498 1.258 . S
O517 Nd496 2.492 . S
O517 C498 1.239 . S
O518 Nd496 2.487 . S
O518 C505 1.241 . S
O519 Nd496 2.682 . S
O519 Nd497 2.414 . S
O519 C505 1.273 . S
O520 Nd496 2.410 . S
O520 C506 1.251 . S
O521 Nd497 2.424 . S
O521 C506 1.268 . S
O522 Nd497 2.500 . S
O522 C507 1.258 1_545 S
O523 Nd497 2.492 1_565 S
O523 C507 1.239 . S
O524 Nd497 2.487 1_655 S
O524 C514 1.241 . S
O525 Nd496 2.414 . S
O525 Nd497 2.682 . S
O525 C514 1.273 1_455 S
O526 Nd497 2.410 . S
O526 C515 1.251 . S
O527 Nd496 2.424 . S
O527 C515 1.268 . S
H528 C500 0.930 1_655 S
H529 C501 0.922 1_655 S
H530 C503 0.930 . S
H531 C504 0.929 . S
H532 C509 0.930 . S
H533 C510 0.929 . S
H534 C512 0.930 . S
H535 C513 0.929 . S
Nd536 C538 2.836 . S
Nd536 O556 2.500 . S
Nd536 O557 2.492 . S
Nd536 O558 2.487 . S
Nd536 O559 2.682 . S
Nd536 O560 2.410 . S
Nd536 O565 2.414 . S
Nd536 O567 2.424 . S
Nd537 C547 2.836 . S
Nd537 O559 2.414 . S
Nd537 O561 2.424 . S
Nd537 O562 2.500 . S
Nd537 O563 2.492 . S
Nd537 O564 2.487 . S
Nd537 O565 2.682 . S
Nd537 O566 2.410 . S
C538 Nd536 2.836 . S
C538 C539 1.498 . S
C538 O556 1.258 . S
C538 O557 1.239 . S
C539 C538 1.498 . S
C539 C540 1.366 . S
C539 C544 1.407 . S
C540 C539 1.366 . S
C540 C541 1.392 . S
C540 H568 0.930 . S
C541 C540 1.392 . S
C541 C542 1.398 . S
C541 H569 0.929 . S
C542 C541 1.398 . S
C542 C543 1.352 . S
C543 C542 1.352 . S
C543 C544 1.384 . S
C543 H570 0.930 . S
C544 C539 1.407 . S
C544 C543 1.384 . S
C544 H571 0.929 . S
C545 O558 1.241 . S
C545 O559 1.273 . S
C546 O560 1.251 . S
C546 O561 1.268 . S
C547 Nd537 2.836 . S
C547 C548 1.498 . S
C547 O562 1.258 . S
C547 O563 1.239 . S
C548 C547 1.498 . S
C548 C549 1.366 . S
C548 C553 1.407 . S
C549 C548 1.366 . S
C549 C550 1.392 . S
C549 H572 0.930 . S
C550 C549 1.392 . S
C550 C551 1.398 . S
C550 H573 0.929 . S
C551 C550 1.398 . S
C551 C552 1.352 . S
C552 C551 1.352 . S
C552 C553 1.384 . S
C552 H574 0.930 . S
C553 C548 1.407 . S
C553 C552 1.384 . S
C553 H575 0.929 . S
C554 O564 1.241 . S
C554 O565 1.273 . S
C555 O566 1.251 . S
C555 O567 1.268 . S
O556 Nd536 2.500 . S
O556 C538 1.258 . S
O557 Nd536 2.492 . S
O557 C538 1.239 . S
O558 Nd536 2.487 . S
O558 C545 1.241 . S
O559 Nd536 2.682 . S
O559 Nd537 2.414 . S
O559 C545 1.273 . S
O560 Nd536 2.410 . S
O560 C546 1.251 . S
O561 Nd537 2.424 . S
O561 C546 1.268 . S
O562 Nd537 2.500 . S
O562 C547 1.258 . S
O563 Nd537 2.492 . S
O563 C547 1.239 . S
O564 Nd537 2.487 . S
O564 C554 1.241 . S
O565 Nd536 2.414 . S
O565 Nd537 2.682 . S
O565 C554 1.273 . S
O566 Nd537 2.410 . S
O566 C555 1.251 . S
O567 Nd536 2.424 . S
O567 C555 1.268 . S
H568 C540 0.930 . S
H569 C541 0.929 . S
H570 C543 0.930 . S
H571 C544 0.929 . S
H572 C549 0.930 . S
H573 C550 0.929 . S
H574 C552 0.930 . S
H575 C553 0.929 . S
Nd576 C578 2.836 . S
Nd576 O596 2.500 . S
Nd576 O597 2.492 . S
Nd576 O598 2.487 . S
Nd576 O599 2.682 . S
Nd576 O600 2.410 . S
Nd576 O605 2.414 . S
Nd576 O607 2.424 . S
Nd577 C587 2.836 . S
Nd577 O599 2.414 . S
Nd577 O601 2.424 . S
Nd577 O602 2.500 . S
Nd577 O603 2.492 . S
Nd577 O604 2.487 . S
Nd577 O605 2.682 . S
Nd577 O606 2.410 . S
C578 Nd576 2.836 . S
C578 C579 1.498 . S
C578 O596 1.258 . S
C578 O597 1.239 . S
C579 C578 1.498 . S
C579 C580 1.366 . S
C579 C584 1.407 . S
C580 C579 1.366 . S
C580 C581 1.392 . S
C580 H608 0.930 . S
C581 C580 1.392 . S
C581 C582 1.398 . S
C581 H609 0.929 . S
C582 C581 1.398 . S
C582 C583 1.352 1_545 S
C583 C582 1.352 1_565 S
C583 C584 1.384 1_565 S
C583 H610 0.930 . S
C584 C579 1.407 . S
C584 C583 1.384 1_545 S
C584 H611 0.929 1_545 S
C585 O598 1.241 . S
C585 O599 1.273 . S
C586 O600 1.251 . S
C586 O601 1.268 . S
C587 Nd577 2.836 . S
C587 C588 1.498 . S
C587 O602 1.258 . S
C587 O603 1.239 . S
C588 C587 1.498 . S
C588 C589 1.366 . S
C588 C593 1.407 . S
C589 C588 1.366 . S
C589 C590 1.392 . S
C589 H612 0.930 . S
C590 C589 1.392 . S
C590 C591 1.398 . S
C590 H613 0.929 . S
C591 C590 1.398 . S
C591 C592 1.352 . S
C592 C591 1.352 . S
C592 C593 1.384 . S
C592 H614 0.930 . S
C593 C588 1.407 . S
C593 C592 1.384 . S
C593 H615 0.929 . S
C594 O604 1.241 . S
C594 O605 1.273 . S
C595 O606 1.251 . S
C595 O607 1.268 . S
O596 Nd576 2.500 . S
O596 C578 1.258 . S
O597 Nd576 2.492 . S
O597 C578 1.239 . S
O598 Nd576 2.487 . S
O598 C585 1.241 . S
O599 Nd576 2.682 . S
O599 Nd577 2.414 . S
O599 C585 1.273 . S
O600 Nd576 2.410 . S
O600 C586 1.251 . S
O601 Nd577 2.424 . S
O601 C586 1.268 . S
O602 Nd577 2.500 . S
O602 C587 1.258 . S
O603 Nd577 2.492 . S
O603 C587 1.239 . S
O604 Nd577 2.487 . S
O604 C594 1.241 . S
O605 Nd576 2.414 . S
O605 Nd577 2.682 . S
O605 C594 1.273 . S
O606 Nd577 2.410 . S
O606 C595 1.251 . S
O607 Nd576 2.424 . S
O607 C595 1.268 . S
H608 C580 0.930 . S
H609 C581 0.929 . S
H610 C583 0.930 . S
H611 C584 0.929 1_565 S
H612 C589 0.930 . S
H613 C590 0.929 . S
H614 C592 0.930 . S
H615 C593 0.929 . S
Nd616 C618 2.836 . S
Nd616 O636 2.500 . S
Nd616 O637 2.492 . S
Nd616 O638 2.487 . S
Nd616 O639 2.682 . S
Nd616 O640 2.410 . S
Nd616 O645 2.414 . S
Nd616 O647 2.424 . S
Nd617 C627 2.836 . S
Nd617 O639 2.414 . S
Nd617 O641 2.424 . S
Nd617 O642 2.500 . S
Nd617 O643 2.492 . S
Nd617 O644 2.487 . S
Nd617 O645 2.682 . S
Nd617 O646 2.410 . S
C618 Nd616 2.836 . S
C618 C619 1.498 . S
C618 O636 1.258 . S
C618 O637 1.239 . S
C619 C618 1.498 . S
C619 C620 1.366 . S
C619 C624 1.407 . S
C620 C619 1.366 . S
C620 C621 1.392 . S
C620 H648 0.930 . S
C621 C620 1.392 . S
C621 C622 1.398 . S
C621 H649 0.929 . S
C622 C621 1.398 . S
C622 C623 1.352 . S
C623 C622 1.352 . S
C623 C624 1.384 . S
C623 H650 0.930 . S
C624 C619 1.407 . S
C624 C623 1.384 . S
C624 H651 0.929 . S
C625 O638 1.241 . S
C625 O639 1.273 . S
C626 O640 1.251 . S
C626 O641 1.268 . S
C627 Nd617 2.836 . S
C627 C628 1.498 . S
C627 O642 1.258 . S
C627 O643 1.239 . S
C628 C627 1.498 . S
C628 C629 1.366 . S
C628 C633 1.407 . S
C629 C628 1.366 . S
C629 C630 1.392 . S
C629 H652 0.930 . S
C630 C629 1.392 . S
C630 C631 1.398 . S
C630 H653 0.929 . S
C631 C630 1.398 . S
C631 C632 1.352 . S
C632 C631 1.352 . S
C632 C633 1.384 . S
C632 H654 0.930 . S
C633 C628 1.407 . S
C633 C632 1.384 . S
C633 H655 0.929 . S
C634 O644 1.241 . S
C634 O645 1.273 . S
C635 O646 1.251 . S
C635 O647 1.268 . S
O636 Nd616 2.500 . S
O636 C618 1.258 . S
O637 Nd616 2.492 . S
O637 C618 1.239 . S
O638 Nd616 2.487 . S
O638 C625 1.241 . S
O639 Nd616 2.682 . S
O639 Nd617 2.414 . S
O639 C625 1.273 . S
O640 Nd616 2.410 . S
O640 C626 1.251 . S
O641 Nd617 2.424 . S
O641 C626 1.268 . S
O642 Nd617 2.500 . S
O642 C627 1.258 . S
O643 Nd617 2.492 . S
O643 C627 1.239 . S
O644 Nd617 2.487 . S
O644 C634 1.241 . S
O645 Nd616 2.414 . S
O645 Nd617 2.682 . S
O645 C634 1.273 . S
O646 Nd617 2.410 . S
O646 C635 1.251 . S
O647 Nd616 2.424 . S
O647 C635 1.268 . S
H648 C620 0.930 . S
H649 C621 0.929 . S
H650 C623 0.930 . S
H651 C624 0.929 . S
H652 C629 0.930 . S
H653 C630 0.929 . S
H654 C632 0.930 . S
H655 C633 0.929 . S
Nd656 C658 2.836 . S
Nd656 O676 2.500 . S
Nd656 O677 2.492 . S
Nd656 O678 2.487 . S
Nd656 O679 2.682 . S
Nd656 O680 2.410 . S
Nd656 O685 2.414 . S
Nd656 O687 2.424 . S
Nd657 C667 2.836 . S
Nd657 O679 2.414 . S
Nd657 O681 2.424 . S
Nd657 O682 2.500 . S
Nd657 O683 2.492 . S
Nd657 O684 2.487 . S
Nd657 O685 2.682 . S
Nd657 O686 2.410 . S
C658 Nd656 2.836 . S
C658 C659 1.498 . S
C658 O676 1.258 . S
C658 O677 1.239 . S
C659 C658 1.498 . S
C659 C660 1.366 . S
C659 C664 1.407 . S
C660 C659 1.366 . S
C660 C661 1.392 . S
C660 H688 0.930 . S
C661 C660 1.392 . S
C661 C662 1.398 . S
C661 H689 0.929 . S
C662 C661 1.398 . S
C662 C663 1.352 . S
C663 C662 1.352 . S
C663 C664 1.384 . S
C663 H690 0.930 . S
C664 C659 1.407 . S
C664 C663 1.384 . S
C664 H691 0.929 . S
C665 O678 1.241 . S
C665 O679 1.273 . S
C666 O680 1.251 . S
C666 O681 1.268 . S
C667 Nd657 2.836 . S
C667 C668 1.498 . S
C667 O682 1.258 . S
C667 O683 1.239 . S
C668 C667 1.498 . S
C668 C669 1.366 . S
C668 C673 1.407 . S
C669 C668 1.366 . S
C669 C670 1.392 . S
C669 H692 0.930 . S
C670 C669 1.392 . S
C670 C671 1.398 . S
C670 H693 0.929 . S
C671 C670 1.398 . S
C671 C672 1.352 . S
C672 C671 1.352 . S
C672 C673 1.384 . S
C672 H694 0.930 . S
C673 C668 1.407 . S
C673 C672 1.384 . S
C673 H695 0.929 . S
C674 O684 1.241 . S
C674 O685 1.273 . S
C675 O686 1.251 . S
C675 O687 1.268 . S
O676 Nd656 2.500 . S
O676 C658 1.258 . S
O677 Nd656 2.492 . S
O677 C658 1.239 . S
O678 Nd656 2.487 . S
O678 C665 1.241 . S
O679 Nd656 2.682 . S
O679 Nd657 2.414 . S
O679 C665 1.273 . S
O680 Nd656 2.410 . S
O680 C666 1.251 . S
O681 Nd657 2.424 . S
O681 C666 1.268 . S
O682 Nd657 2.500 . S
O682 C667 1.258 . S
O683 Nd657 2.492 . S
O683 C667 1.239 . S
O684 Nd657 2.487 . S
O684 C674 1.241 . S
O685 Nd656 2.414 . S
O685 Nd657 2.682 . S
O685 C674 1.273 . S
O686 Nd657 2.410 . S
O686 C675 1.251 . S
O687 Nd656 2.424 . S
O687 C675 1.268 . S
H688 C660 0.930 . S
H689 C661 0.929 . S
H690 C663 0.930 . S
H691 C664 0.929 . S
H692 C669 0.930 . S
H693 C670 0.929 . S
H694 C672 0.930 . S
H695 C673 0.929 . S
Nd696 C698 2.836 . S
Nd696 O716 2.500 . S
Nd696 O717 2.492 . S
Nd696 O718 2.487 . S
Nd696 O719 2.682 . S
Nd696 O720 2.410 . S
Nd696 O725 2.414 . S
Nd696 O727 2.424 . S
Nd697 C707 2.836 . S
Nd697 O719 2.414 . S
Nd697 O721 2.424 . S
Nd697 O722 2.500 . S
Nd697 O723 2.492 . S
Nd697 O724 2.487 . S
Nd697 O725 2.682 . S
Nd697 O726 2.410 . S
C698 Nd696 2.836 . S
C698 C699 1.498 . S
C698 O716 1.258 . S
C698 O717 1.239 . S
C699 C698 1.498 . S
C699 C700 1.366 . S
C699 C704 1.407 . S
C700 C699 1.366 . S
C700 C701 1.392 . S
C700 H728 0.930 . S
C701 C700 1.392 . S
C701 C702 1.398 . S
C701 H729 0.929 . S
C702 C701 1.398 . S
C702 C703 1.352 . S
C703 C702 1.352 . S
C703 C704 1.384 . S
C703 H730 0.930 . S
C704 C699 1.407 . S
C704 C703 1.384 . S
C704 H731 0.929 . S
C705 O718 1.241 . S
C705 O719 1.273 . S
C706 O720 1.251 . S
C706 O721 1.268 . S
C707 Nd697 2.836 . S
C707 C708 1.498 . S
C707 O722 1.258 . S
C707 O723 1.239 . S
C708 C707 1.498 . S
C708 C709 1.366 . S
C708 C713 1.407 . S
C709 C708 1.366 . S
C709 C710 1.392 . S
C709 H732 0.930 . S
C710 C709 1.392 . S
C710 C711 1.398 . S
C710 H733 0.929 . S
C711 C710 1.398 . S
C711 C712 1.352 . S
C712 C711 1.352 . S
C712 C713 1.384 . S
C712 H734 0.930 . S
C713 C708 1.407 . S
C713 C712 1.384 . S
C713 H735 0.929 . S
C714 O724 1.241 . S
C714 O725 1.273 . S
C715 O726 1.251 . S
C715 O727 1.268 . S
O716 Nd696 2.500 . S
O716 C698 1.258 . S
O717 Nd696 2.492 . S
O717 C698 1.239 . S
O718 Nd696 2.487 . S
O718 C705 1.241 . S
O719 Nd696 2.682 . S
O719 Nd697 2.414 . S
O719 C705 1.273 . S
O720 Nd696 2.410 . S
O720 C706 1.251 . S
O721 Nd697 2.424 . S
O721 C706 1.268 . S
O722 Nd697 2.500 . S
O722 C707 1.258 . S
O723 Nd697 2.492 . S
O723 C707 1.239 . S
O724 Nd697 2.487 . S
O724 C714 1.241 . S
O725 Nd696 2.414 . S
O725 Nd697 2.682 . S
O725 C714 1.273 . S
O726 Nd697 2.410 . S
O726 C715 1.251 . S
O727 Nd696 2.424 . S
O727 C715 1.268 . S
H728 C700 0.930 . S
H729 C701 0.929 . S
H730 C703 0.930 . S
H731 C704 0.929 . S
H732 C709 0.930 . S
H733 C710 0.929 . S
H734 C712 0.930 . S
H735 C713 0.929 . S
Nd736 C738 2.836 1_455 S
Nd736 O756 2.500 1_455 S
Nd736 O757 2.492 1_455 S
Nd736 O758 2.487 . S
Nd736 O759 2.682 . S
Nd736 O760 2.410 . S
Nd736 O765 2.414 . S
Nd736 O767 2.424 . S
Nd737 C747 2.836 . S
Nd737 O759 2.414 . S
Nd737 O761 2.424 . S
Nd737 O762 2.500 . S
Nd737 O763 2.492 . S
Nd737 O764 2.487 . S
Nd737 O765 2.682 . S
Nd737 O766 2.410 . S
C738 Nd736 2.836 1_655 S
C738 C739 1.498 . S
C738 O756 1.258 . S
C738 O757 1.239 . S
C739 C738 1.498 . S
C739 C740 1.366 . S
C739 C744 1.407 . S
C740 C739 1.366 . S
C740 C741 1.392 . S
C740 H768 0.930 . S
C741 C740 1.392 . S
C741 C742 1.398 . S
C741 H769 0.929 . S
C742 C741 1.398 . S
C742 C743 1.352 . S
C743 C742 1.352 . S
C743 C744 1.384 . S
C743 H770 0.930 . S
C744 C739 1.407 . S
C744 C743 1.384 . S
C744 H771 0.929 . S
C745 O758 1.241 . S
C745 O759 1.273 . S
C746 O760 1.251 . S
C746 O761 1.268 . S
C747 Nd737 2.836 . S
C747 C748 1.498 . S
C747 O762 1.258 . S
C747 O763 1.239 . S
C748 C747 1.498 . S
C748 C749 1.366 . S
C748 C753 1.407 . S
C749 C748 1.366 . S
C749 C750 1.392 . S
C749 H772 0.930 . S
C750 C749 1.392 . S
C750 C751 1.398 . S
C750 H773 0.929 . S
C751 C750 1.398 . S
C751 C752 1.352 . S
C752 C751 1.352 . S
C752 C753 1.384 . S
C752 H774 0.930 . S
C753 C748 1.407 . S
C753 C752 1.384 . S
C753 H775 0.929 . S
C754 O764 1.241 . S
C754 O765 1.273 . S
C755 O766 1.251 . S
C755 O767 1.268 . S
O756 Nd736 2.500 1_655 S
O756 C738 1.258 . S
O757 Nd736 2.492 1_655 S
O757 C738 1.239 . S
O758 Nd736 2.487 . S
O758 C745 1.241 . S
O759 Nd736 2.682 . S
O759 Nd737 2.414 . S
O759 C745 1.273 . S
O760 Nd736 2.410 . S
O760 C746 1.251 . S
O761 Nd737 2.424 . S
O761 C746 1.268 . S
O762 Nd737 2.500 . S
O762 C747 1.258 . S
O763 Nd737 2.492 . S
O763 C747 1.239 . S
O764 Nd737 2.487 . S
O764 C754 1.241 . S
O765 Nd736 2.414 . S
O765 Nd737 2.682 . S
O765 C754 1.273 . S
O766 Nd737 2.410 . S
O766 C755 1.251 . S
O767 Nd736 2.424 . S
O767 C755 1.268 . S
H768 C740 0.930 . S
H769 C741 0.929 . S
H770 C743 0.930 . S
H771 C744 0.929 . S
H772 C749 0.930 . S
H773 C750 0.929 . S
H774 C752 0.930 . S
H775 C753 0.929 . S
Nd776 C778 2.836 . S
Nd776 O796 2.500 . S
Nd776 O797 2.492 . S
Nd776 O798 2.487 . S
Nd776 O799 2.682 . S
Nd776 O800 2.410 . S
Nd776 O805 2.414 . S
Nd776 O807 2.424 . S
Nd777 C787 2.836 . S
Nd777 O799 2.414 . S
Nd777 O801 2.424 . S
Nd777 O802 2.500 . S
Nd777 O803 2.492 . S
Nd777 O804 2.487 . S
Nd777 O805 2.682 . S
Nd777 O806 2.410 . S
C778 Nd776 2.836 . S
C778 C779 1.498 . S
C778 O796 1.258 . S
C778 O797 1.239 . S
C779 C778 1.498 . S
C779 C780 1.366 . S
C779 C784 1.407 . S
C780 C779 1.366 . S
C780 C781 1.392 . S
C780 H808 0.930 . S
C781 C780 1.392 . S
C781 C782 1.398 . S
C781 H809 0.929 . S
C782 C781 1.398 . S
C782 C783 1.352 . S
C783 C782 1.352 . S
C783 C784 1.384 . S
C783 H810 0.930 . S
C784 C779 1.407 . S
C784 C783 1.384 . S
C784 H811 0.929 . S
C785 O798 1.241 . S
C785 O799 1.273 . S
C786 O800 1.251 . S
C786 O801 1.268 . S
C787 Nd777 2.836 . S
C787 C788 1.498 . S
C787 O802 1.258 . S
C787 O803 1.239 . S
C788 C787 1.498 . S
C788 C789 1.366 . S
C788 C793 1.407 . S
C789 C788 1.366 . S
C789 C790 1.392 . S
C789 H812 0.930 . S
C790 C789 1.392 . S
C790 C791 1.398 . S
C790 H813 0.929 . S
C791 C790 1.398 . S
C791 C792 1.352 . S
C792 C791 1.352 . S
C792 C793 1.384 . S
C792 H814 0.930 . S
C793 C788 1.407 . S
C793 C792 1.384 . S
C793 H815 0.929 . S
C794 O804 1.241 . S
C794 O805 1.273 . S
C795 O806 1.251 . S
C795 O807 1.268 . S
O796 Nd776 2.500 . S
O796 C778 1.258 . S
O797 Nd776 2.492 . S
O797 C778 1.239 . S
O798 Nd776 2.487 . S
O798 C785 1.241 . S
O799 Nd776 2.682 . S
O799 Nd777 2.414 . S
O799 C785 1.273 . S
O800 Nd776 2.410 . S
O800 C786 1.251 . S
O801 Nd777 2.424 . S
O801 C786 1.268 . S
O802 Nd777 2.500 . S
O802 C787 1.258 . S
O803 Nd777 2.492 . S
O803 C787 1.239 . S
O804 Nd777 2.487 . S
O804 C794 1.241 . S
O805 Nd776 2.414 . S
O805 Nd777 2.682 . S
O805 C794 1.273 . S
O806 Nd777 2.410 . S
O806 C795 1.251 . S
O807 Nd776 2.424 . S
O807 C795 1.268 . S
H808 C780 0.930 . S
H809 C781 0.929 . S
H810 C783 0.930 . S
H811 C784 0.929 . S
H812 C789 0.930 . S
H813 C790 0.929 . S
H814 C792 0.930 . S
H815 C793 0.929 . S
Nd816 C818 2.836 . S
Nd816 O836 2.500 . S
Nd816 O837 2.492 . S
Nd816 O838 2.487 . S
Nd816 O839 2.682 . S
Nd816 O840 2.410 . S
Nd816 O845 2.414 . S
Nd816 O847 2.424 . S
Nd817 C827 2.836 . S
Nd817 O839 2.414 . S
Nd817 O841 2.424 . S
Nd817 O842 2.500 . S
Nd817 O843 2.492 . S
Nd817 O844 2.487 . S
Nd817 O845 2.682 . S
Nd817 O846 2.410 . S
C818 Nd816 2.836 . S
C818 C819 1.498 . S
C818 O836 1.258 . S
C818 O837 1.239 . S
C819 C818 1.498 . S
C819 C820 1.366 . S
C819 C824 1.407 . S
C820 C819 1.366 . S
C820 C821 1.392 . S
C820 H848 0.930 . S
C821 C820 1.392 . S
C821 C822 1.398 . S
C821 H849 0.929 . S
C822 C821 1.398 . S
C822 C823 1.352 . S
C823 C822 1.352 . S
C823 C824 1.384 . S
C823 H850 0.930 . S
C824 C819 1.407 . S
C824 C823 1.384 . S
C824 H851 0.929 . S
C825 O838 1.241 . S
C825 O839 1.273 . S
C826 O840 1.251 . S
C826 O841 1.268 . S
C827 Nd817 2.836 . S
C827 C828 1.498 . S
C827 O842 1.258 . S
C827 O843 1.239 . S
C828 C827 1.498 . S
C828 C829 1.366 . S
C828 C833 1.407 . S
C829 C828 1.366 . S
C829 C830 1.392 . S
C829 H852 0.930 . S
C830 C829 1.392 . S
C830 C831 1.398 . S
C830 H853 0.929 . S
C831 C830 1.398 . S
C831 C832 1.352 . S
C832 C831 1.352 . S
C832 C833 1.384 . S
C832 H854 0.930 . S
C833 C828 1.407 . S
C833 C832 1.384 . S
C833 H855 0.929 . S
C834 O844 1.241 . S
C834 O845 1.273 . S
C835 O846 1.251 . S
C835 O847 1.268 . S
O836 Nd816 2.500 . S
O836 C818 1.258 . S
O837 Nd816 2.492 . S
O837 C818 1.239 . S
O838 Nd816 2.487 . S
O838 C825 1.241 . S
O839 Nd816 2.682 . S
O839 Nd817 2.414 . S
O839 C825 1.273 . S
O840 Nd816 2.410 . S
O840 C826 1.251 . S
O841 Nd817 2.424 . S
O841 C826 1.268 . S
O842 Nd817 2.500 . S
O842 C827 1.258 . S
O843 Nd817 2.492 . S
O843 C827 1.239 . S
O844 Nd817 2.487 . S
O844 C834 1.241 . S
O845 Nd816 2.414 . S
O845 Nd817 2.682 . S
O845 C834 1.273 . S
O846 Nd817 2.410 . S
O846 C835 1.251 . S
O847 Nd816 2.424 . S
O847 C835 1.268 . S
H848 C820 0.930 . S
H849 C821 0.929 . S
H850 C823 0.930 . S
H851 C824 0.929 . S
H852 C829 0.930 . S
H853 C830 0.929 . S
H854 C832 0.930 . S
H855 C833 0.929 . S
Nd856 C858 2.836 . S
Nd856 O876 2.500 . S
Nd856 O877 2.492 . S
Nd856 O878 2.487 . S
Nd856 O879 2.682 . S
Nd856 O880 2.410 . S
Nd856 O885 2.414 . S
Nd856 O887 2.424 . S
Nd857 C867 2.836 . S
Nd857 O879 2.414 . S
Nd857 O881 2.424 . S
Nd857 O882 2.500 . S
Nd857 O883 2.492 . S
Nd857 O884 2.487 . S
Nd857 O885 2.682 . S
Nd857 O886 2.410 . S
C858 Nd856 2.836 . S
C858 C859 1.498 . S
C858 O876 1.258 . S
C858 O877 1.239 . S
C859 C858 1.498 . S
C859 C860 1.366 . S
C859 C864 1.407 . S
C860 C859 1.366 . S
C860 C861 1.392 . S
C860 H888 0.930 . S
C861 C860 1.392 . S
C861 C862 1.398 . S
C861 H889 0.929 . S
C862 C861 1.398 . S
C862 C863 1.352 . S
C863 C862 1.352 . S
C863 C864 1.384 . S
C863 H890 0.930 . S
C864 C859 1.407 . S
C864 C863 1.384 . S
C864 H891 0.929 . S
C865 O878 1.241 . S
C865 O879 1.273 . S
C866 O880 1.251 . S
C866 O881 1.268 . S
C867 Nd857 2.836 . S
C867 C868 1.498 . S
C867 O882 1.258 . S
C867 O883 1.239 . S
C868 C867 1.498 . S
C868 C869 1.366 . S
C868 C873 1.407 . S
C869 C868 1.366 . S
C869 C870 1.392 . S
C869 H892 0.930 . S
C870 C869 1.392 . S
C870 C871 1.398 . S
C870 H893 0.929 . S
C871 C870 1.398 . S
C871 C872 1.352 . S
C872 C871 1.352 . S
C872 C873 1.384 . S
C872 H894 0.930 . S
C873 C868 1.407 . S
C873 C872 1.384 . S
C873 H895 0.929 . S
C874 O884 1.241 . S
C874 O885 1.273 . S
C875 O886 1.251 . S
C875 O887 1.268 . S
O876 Nd856 2.500 . S
O876 C858 1.258 . S
O877 Nd856 2.492 . S
O877 C858 1.239 . S
O878 Nd856 2.487 . S
O878 C865 1.241 . S
O879 Nd856 2.682 . S
O879 Nd857 2.414 . S
O879 C865 1.273 . S
O880 Nd856 2.410 . S
O880 C866 1.251 . S
O881 Nd857 2.424 . S
O881 C866 1.268 . S
O882 Nd857 2.500 . S
O882 C867 1.258 . S
O883 Nd857 2.492 . S
O883 C867 1.239 . S
O884 Nd857 2.487 . S
O884 C874 1.241 . S
O885 Nd856 2.414 . S
O885 Nd857 2.682 . S
O885 C874 1.273 . S
O886 Nd857 2.410 . S
O886 C875 1.251 . S
O887 Nd856 2.424 . S
O887 C875 1.268 . S
H888 C860 0.930 . S
H889 C861 0.929 . S
H890 C863 0.930 . S
H891 C864 0.929 . S
H892 C869 0.930 . S
H893 C870 0.929 . S
H894 C872 0.930 . S
H895 C873 0.929 . S
Nd896 C898 2.836 . S
Nd896 O916 2.500 . S
Nd896 O917 2.492 . S
Nd896 O918 2.487 . S
Nd896 O919 2.682 . S
Nd896 O920 2.410 . S
Nd896 O925 2.414 . S
Nd896 O927 2.424 . S
Nd897 C907 2.836 . S
Nd897 O919 2.414 . S
Nd897 O921 2.424 . S
Nd897 O922 2.500 . S
Nd897 O923 2.492 . S
Nd897 O924 2.487 . S
Nd897 O925 2.682 . S
Nd897 O926 2.410 . S
C898 Nd896 2.836 . S
C898 C899 1.498 . S
C898 O916 1.258 . S
C898 O917 1.239 . S
C899 C898 1.498 . S
C899 C900 1.366 . S
C899 C904 1.407 . S
C900 C899 1.366 . S
C900 C901 1.392 . S
C900 H928 0.930 . S
C901 C900 1.392 . S
C901 C902 1.398 . S
C901 H929 0.929 . S
C902 C901 1.398 . S
C902 C903 1.352 . S
C903 C902 1.352 . S
C903 C904 1.384 . S
C903 H930 0.930 . S
C904 C899 1.407 . S
C904 C903 1.384 . S
C904 H931 0.929 . S
C905 O918 1.241 . S
C905 O919 1.273 . S
C906 O920 1.251 . S
C906 O921 1.268 . S
C907 Nd897 2.836 . S
C907 C908 1.498 . S
C907 O922 1.258 . S
C907 O923 1.239 . S
C908 C907 1.498 . S
C908 C909 1.366 . S
C908 C913 1.407 . S
C909 C908 1.366 . S
C909 C910 1.392 . S
C909 H932 0.930 . S
C910 C909 1.392 . S
C910 C911 1.398 . S
C910 H933 0.929 . S
C911 C910 1.398 . S
C911 C912 1.352 . S
C912 C911 1.352 . S
C912 C913 1.384 . S
C912 H934 0.930 . S
C913 C908 1.407 . S
C913 C912 1.384 . S
C913 H935 0.929 . S
C914 O924 1.241 . S
C914 O925 1.273 . S
C915 O926 1.251 . S
C915 O927 1.268 . S
O916 Nd896 2.500 . S
O916 C898 1.258 . S
O917 Nd896 2.492 . S
O917 C898 1.239 . S
O918 Nd896 2.487 . S
O918 C905 1.241 . S
O919 Nd896 2.682 . S
O919 Nd897 2.414 . S
O919 C905 1.273 . S
O920 Nd896 2.410 . S
O920 C906 1.251 . S
O921 Nd897 2.424 . S
O921 C906 1.268 . S
O922 Nd897 2.500 . S
O922 C907 1.258 . S
O923 Nd897 2.492 . S
O923 C907 1.239 . S
O924 Nd897 2.487 . S
O924 C914 1.241 . S
O925 Nd896 2.414 . S
O925 Nd897 2.682 . S
O925 C914 1.273 . S
O926 Nd897 2.410 . S
O926 C915 1.251 . S
O927 Nd896 2.424 . S
O927 C915 1.268 . S
H928 C900 0.930 . S
H929 C901 0.929 . S
H930 C903 0.930 . S
H931 C904 0.929 . S
H932 C909 0.930 . S
H933 C910 0.929 . S
H934 C912 0.930 . S
H935 C913 0.929 . S
Nd936 C938 2.836 . S
Nd936 O956 2.500 . S
Nd936 O957 2.492 . S
Nd936 O958 2.487 . S
Nd936 O959 2.682 . S
Nd936 O960 2.410 . S
Nd936 O965 2.414 . S
Nd936 O967 2.424 . S
Nd937 C947 2.836 1_455 S
Nd937 O959 2.414 . S
Nd937 O961 2.424 . S
Nd937 O962 2.500 1_455 S
Nd937 O963 2.492 1_455 S
Nd937 O964 2.487 . S
Nd937 O965 2.682 . S
Nd937 O966 2.410 . S
C938 Nd936 2.836 . S
C938 C939 1.498 . S
C938 O956 1.258 . S
C938 O957 1.239 . S
C939 C938 1.498 . S
C939 C940 1.366 . S
C939 C944 1.407 . S
C940 C939 1.366 . S
C940 C941 1.392 . S
C940 H968 0.930 . S
C941 C940 1.392 . S
C941 C942 1.398 . S
C941 H969 0.929 . S
C942 C941 1.398 . S
C942 C943 1.352 . S
C943 C942 1.352 . S
C943 C944 1.384 . S
C943 H970 0.930 . S
C944 C939 1.407 . S
C944 C943 1.384 . S
C944 H971 0.929 . S
C945 O958 1.241 . S
C945 O959 1.273 . S
C946 O960 1.251 . S
C946 O961 1.268 . S
C947 Nd937 2.836 1_655 S
C947 C948 1.498 . S
C947 O962 1.258 . S
C947 O963 1.239 . S
C948 C947 1.498 . S
C948 C949 1.366 . S
C948 C953 1.407 . S
C949 C948 1.366 . S
C949 C950 1.392 . S
C949 H972 0.930 . S
C950 C949 1.392 . S
C950 C951 1.398 . S
C950 H973 0.929 . S
C951 C950 1.398 . S
C951 C952 1.352 . S
C952 C951 1.352 . S
C952 C953 1.384 . S
C952 H974 0.930 . S
C953 C948 1.407 . S
C953 C952 1.384 . S
C953 H975 0.929 . S
C954 O964 1.241 . S
C954 O965 1.273 . S
C955 O966 1.251 . S
C955 O967 1.268 . S
O956 Nd936 2.500 . S
O956 C938 1.258 . S
O957 Nd936 2.492 . S
O957 C938 1.239 . S
O958 Nd936 2.487 . S
O958 C945 1.241 . S
O959 Nd936 2.682 . S
O959 Nd937 2.414 . S
O959 C945 1.273 . S
O960 Nd936 2.410 . S
O960 C946 1.251 . S
O961 Nd937 2.424 . S
O961 C946 1.268 . S
O962 Nd937 2.500 1_655 S
O962 C947 1.258 . S
O963 Nd937 2.492 1_655 S
O963 C947 1.239 . S
O964 Nd937 2.487 . S
O964 C954 1.241 . S
O965 Nd936 2.414 . S
O965 Nd937 2.682 . S
O965 C954 1.273 . S
O966 Nd937 2.410 . S
O966 C955 1.251 . S
O967 Nd936 2.424 . S
O967 C955 1.268 . S
H968 C940 0.930 . S
H969 C941 0.929 . S
H970 C943 0.930 . S
H971 C944 0.929 . S
H972 C949 0.930 . S
H973 C950 0.929 . S
H974 C952 0.930 . S
H975 C953 0.929 . S
H976 C988 0.930 . S
H977 C990 0.930 . S
H978 C991 0.930 1_554 S
H979 C995 0.987 . S
H980 C995 0.959 . S
H981 C995 0.961 . S
H982 C996 0.960 . S
H983 C996 0.961 . S
H984 C996 0.959 . S
H985 C999 0.929 . S
H986 C1000 0.931 . S
H987 C1002 0.930 . S
C988 H976 0.930 . S
C988 C989 1.399 . S
C988 C993 1.399 . S
C989 C988 1.399 . S
C989 C990 1.376 . S
C990 H977 0.930 . S
C990 C989 1.376 . S
C990 C991 1.388 . S
C991 H978 0.930 1_556 S
C991 C990 1.388 . S
C991 C992 1.390 . S
C992 C991 1.390 . S
C992 C993 1.394 . S
C992 C998 1.465 1_556 S
C993 C988 1.399 . S
C993 C992 1.394 . S
C993 C994 1.516 . S
C994 C993 1.516 . S
C994 C995 1.502 1_455 S
C994 C996 1.561 . S
C994 C997 1.526 1_556 S
C995 H979 0.987 . S
C995 H980 0.959 . S
C995 H981 0.961 . S
C995 C994 1.502 1_655 S
C996 H982 0.960 . S
C996 H983 0.961 . S
C996 H984 0.959 . S
C996 C994 1.561 . S
C997 C994 1.526 1_554 S
C997 C998 1.396 . S
C997 C1002 1.390 . S
C998 C992 1.465 1_554 S
C998 C997 1.396 . S
C998 C999 1.399 . S
C999 H985 0.929 . S
C999 C998 1.399 . S
C999 C1000 1.385 . S
C1000 H986 0.931 . S
C1000 C999 1.385 . S
C1000 C1001 1.389 . S
C1001 C1000 1.389 . S
C1001 C1002 1.387 . S
C1002 H987 0.930 . S
C1002 C997 1.390 . S
C1002 C1001 1.387 . S
H1003 C1015 0.930 . S
H1004 C1017 0.930 . S
H1005 C1018 0.930 . S
H1006 C1022 0.959 . S
H1007 C1022 0.959 . S
H1008 C1022 0.961 . S
H1009 C1023 0.960 . S
H1010 C1023 0.961 . S
H1011 C1023 0.959 . S
H1012 C1026 0.929 . S
H1013 C1027 0.931 . S
H1014 C1029 0.930 . S
C1015 H1003 0.930 . S
C1015 C1016 1.399 . S
C1015 C1020 1.399 . S
C1016 C1015 1.399 . S
C1016 C1017 1.376 . S
C1017 H1004 0.930 . S
C1017 C1016 1.376 . S
C1017 C1018 1.388 . S
C1018 H1005 0.930 . S
C1018 C1017 1.388 . S
C1018 C1019 1.390 . S
C1019 C1018 1.390 . S
C1019 C1020 1.394 . S
C1019 C1025 1.465 . S
C1020 C1015 1.399 . S
C1020 C1019 1.394 . S
C1020 C1021 1.516 . S
C1021 C1020 1.516 . S
C1021 C1022 1.502 . S
C1021 C1023 1.561 . S
C1021 C1024 1.526 . S
C1022 H1006 0.959 . S
C1022 H1007 0.959 . S
C1022 H1008 0.961 . S
C1022 C1021 1.502 . S
C1023 H1009 0.960 . S
C1023 H1010 0.961 . S
C1023 H1011 0.959 . S
C1023 C1021 1.561 . S
C1024 C1021 1.526 . S
C1024 C1025 1.396 . S
C1024 C1029 1.390 . S
C1025 C1019 1.465 . S
C1025 C1024 1.396 . S
C1025 C1026 1.399 . S
C1026 H1012 0.929 . S
C1026 C1025 1.399 . S
C1026 C1027 1.385 . S
C1027 H1013 0.931 . S
C1027 C1026 1.385 . S
C1027 C1028 1.389 . S
C1028 C1027 1.389 . S
C1028 C1029 1.387 . S
C1029 H1014 0.930 . S
C1029 C1024 1.390 . S
C1029 C1028 1.387 . S
H1030 C1042 0.930 . S
H1031 C1044 0.930 . S
H1032 C1045 0.930 . S
H1033 C1049 0.959 . S
H1034 C1049 0.959 . S
H1035 C1049 0.961 . S
H1036 C1050 0.960 . S
H1037 C1050 0.961 . S
H1038 C1050 0.959 . S
H1039 C1053 0.929 . S
H1040 C1054 0.931 . S
H1041 C1056 0.930 . S
C1042 H1030 0.930 . S
C1042 C1043 1.399 . S
C1042 C1047 1.399 . S
C1043 C1042 1.399 . S
C1043 C1044 1.376 . S
C1044 H1031 0.930 . S
C1044 C1043 1.376 . S
C1044 C1045 1.388 . S
C1045 H1032 0.930 . S
C1045 C1044 1.388 . S
C1045 C1046 1.390 . S
C1046 C1045 1.390 . S
C1046 C1047 1.394 . S
C1046 C1052 1.465 . S
C1047 C1042 1.399 . S
C1047 C1046 1.394 . S
C1047 C1048 1.516 . S
C1048 C1047 1.516 . S
C1048 C1049 1.502 . S
C1048 C1050 1.561 . S
C1048 C1051 1.526 . S
C1049 H1033 0.959 . S
C1049 H1034 0.959 . S
C1049 H1035 0.961 . S
C1049 C1048 1.502 . S
C1050 H1036 0.960 . S
C1050 H1037 0.961 . S
C1050 H1038 0.959 . S
C1050 C1048 1.561 . S
C1051 C1048 1.526 . S
C1051 C1052 1.396 . S
C1051 C1056 1.390 . S
C1052 C1046 1.465 . S
C1052 C1051 1.396 . S
C1052 C1053 1.399 . S
C1053 H1039 0.929 . S
C1053 C1052 1.399 . S
C1053 C1054 1.385 1_565 S
C1054 H1040 0.931 . S
C1054 C1053 1.385 1_545 S
C1054 C1055 1.389 . S
C1055 C1054 1.389 . S
C1055 C1056 1.387 1_545 S
C1056 H1041 0.930 . S
C1056 C1051 1.390 . S
C1056 C1055 1.387 1_565 S
H1057 C1069 0.930 . S
H1058 C1071 0.930 . S
H1059 C1072 0.930 . S
H1060 C1076 0.959 . S
H1061 C1076 0.959 . S
H1062 C1076 0.961 . S
H1063 C1077 0.960 . S
H1064 C1077 0.961 . S
H1065 C1077 0.959 . S
H1066 C1080 0.929 . S
H1067 C1081 0.931 . S
H1068 C1083 0.930 . S
C1069 H1057 0.930 . S
C1069 C1070 1.399 . S
C1069 C1074 1.399 . S
C1070 C1069 1.399 . S
C1070 C1071 1.376 . S
C1071 H1058 0.930 . S
C1071 C1070 1.376 . S
C1071 C1072 1.388 . S
C1072 H1059 0.930 . S
C1072 C1071 1.388 . S
C1072 C1073 1.390 . S
C1073 C1072 1.390 . S
C1073 C1074 1.394 . S
C1073 C1079 1.465 . S
C1074 C1069 1.399 . S
C1074 C1073 1.394 . S
C1074 C1075 1.516 . S
C1075 C1074 1.516 . S
C1075 C1076 1.502 . S
C1075 C1077 1.561 . S
C1075 C1078 1.526 . S
C1076 H1060 0.959 . S
C1076 H1061 0.959 . S
C1076 H1062 0.961 . S
C1076 C1075 1.502 . S
C1077 H1063 0.960 . S
C1077 H1064 0.961 . S
C1077 H1065 0.959 . S
C1077 C1075 1.561 . S
C1078 C1075 1.526 . S
C1078 C1079 1.396 . S
C1078 C1083 1.390 . S
C1079 C1073 1.465 . S
C1079 C1078 1.396 . S
C1079 C1080 1.399 . S
C1080 H1066 0.929 . S
C1080 C1079 1.399 . S
C1080 C1081 1.385 . S
C1081 H1067 0.931 . S
C1081 C1080 1.385 . S
C1081 C1082 1.389 . S
C1082 C1081 1.389 . S
C1082 C1083 1.387 . S
C1083 H1068 0.930 . S
C1083 C1078 1.390 . S
C1083 C1082 1.387 . S
H1084 C1096 0.930 . S
H1085 C1098 0.930 . S
H1086 C1099 0.930 . S
H1087 C1103 0.959 1_655 S
H1088 C1103 0.959 . S
H1089 C1103 0.961 . S
H1090 C1104 0.960 . S
H1091 C1104 0.961 . S
H1092 C1104 0.959 . S
H1093 C1107 0.929 . S
H1094 C1108 0.931 . S
H1095 C1110 0.930 . S
C1096 H1084 0.930 . S
C1096 C1097 1.399 . S
C1096 C1101 1.399 . S
C1097 C1096 1.399 . S
C1097 C1098 1.376 . S
C1098 H1085 0.930 . S
C1098 C1097 1.376 . S
C1098 C1099 1.388 . S
C1099 H1086 0.930 . S
C1099 C1098 1.388 . S
C1099 C1100 1.390 . S
C1100 C1099 1.390 . S
C1100 C1101 1.394 . S
C1100 C1106 1.465 . S
C1101 C1096 1.399 . S
C1101 C1100 1.394 . S
C1101 C1102 1.516 . S
C1102 C1101 1.516 . S
C1102 C1103 1.502 . S
C1102 C1104 1.561 . S
C1102 C1105 1.526 . S
C1103 H1087 0.959 1_455 S
C1103 H1088 0.959 . S
C1103 H1089 0.961 . S
C1103 C1102 1.502 . S
C1104 H1090 0.960 . S
C1104 H1091 0.961 . S
C1104 H1092 0.959 . S
C1104 C1102 1.561 . S
C1105 C1102 1.526 . S
C1105 C1106 1.396 . S
C1105 C1110 1.390 . S
C1106 C1100 1.465 . S
C1106 C1105 1.396 . S
C1106 C1107 1.399 . S
C1107 H1093 0.929 . S
C1107 C1106 1.399 . S
C1107 C1108 1.385 . S
C1108 H1094 0.931 . S
C1108 C1107 1.385 . S
C1108 C1109 1.389 . S
C1109 C1108 1.389 . S
C1109 C1110 1.387 . S
C1110 H1095 0.930 . S
C1110 C1105 1.390 . S
C1110 C1109 1.387 . S
H1111 C1123 0.930 . S
H1112 C1125 0.930 . S
H1113 C1126 0.930 . S
H1114 C1130 0.959 . S
H1115 C1130 0.959 . S
H1116 C1130 0.961 . S
H1117 C1131 0.960 . S
H1118 C1131 0.961 . S
H1119 C1131 0.959 . S
H1120 C1134 0.929 . S
H1121 C1135 0.931 . S
H1122 C1137 0.930 . S
C1123 H1111 0.930 . S
C1123 C1124 1.399 . S
C1123 C1128 1.399 . S
C1124 C1123 1.399 . S
C1124 C1125 1.376 . S
C1125 H1112 0.930 . S
C1125 C1124 1.376 . S
C1125 C1126 1.388 . S
C1126 H1113 0.930 . S
C1126 C1125 1.388 . S
C1126 C1127 1.390 . S
C1127 C1126 1.390 . S
C1127 C1128 1.394 . S
C1127 C1133 1.465 . S
C1128 C1123 1.399 . S
C1128 C1127 1.394 . S
C1128 C1129 1.516 . S
C1129 C1128 1.516 . S
C1129 C1130 1.502 . S
C1129 C1131 1.561 . S
C1129 C1132 1.526 . S
C1130 H1114 0.959 . S
C1130 H1115 0.959 . S
C1130 H1116 0.961 . S
C1130 C1129 1.502 . S
C1131 H1117 0.960 . S
C1131 H1118 0.961 . S
C1131 H1119 0.959 . S
C1131 C1129 1.561 . S
C1132 C1129 1.526 . S
C1132 C1133 1.396 . S
C1132 C1137 1.390 . S
C1133 C1127 1.465 . S
C1133 C1132 1.396 . S
C1133 C1134 1.399 . S
C1134 H1120 0.929 . S
C1134 C1133 1.399 . S
C1134 C1135 1.385 . S
C1135 H1121 0.931 . S
C1135 C1134 1.385 . S
C1135 C1136 1.389 . S
C1136 C1135 1.389 . S
C1136 C1137 1.387 . S
C1137 H1122 0.930 . S
C1137 C1132 1.390 . S
C1137 C1136 1.387 . S
H1138 C1150 0.930 . S
H1139 C1152 0.930 . S
H1140 C1153 0.930 . S
H1141 C1157 0.959 . S
H1142 C1157 0.959 . S
H1143 C1157 0.961 . S
H1144 C1158 0.960 . S
H1145 C1158 0.961 . S
H1146 C1158 0.959 . S
H1147 C1161 0.929 . S
H1148 C1162 0.931 . S
H1149 C1164 0.930 . S
C1150 H1138 0.930 . S
C1150 C1151 1.399 . S
C1150 C1155 1.399 . S
C1151 C1150 1.399 . S
C1151 C1152 1.376 . S
C1152 H1139 0.930 . S
C1152 C1151 1.376 . S
C1152 C1153 1.388 . S
C1153 H1140 0.930 . S
C1153 C1152 1.388 . S
C1153 C1154 1.390 . S
C1154 C1153 1.390 . S
C1154 C1155 1.394 . S
C1154 C1160 1.465 . S
C1155 C1150 1.399 . S
C1155 C1154 1.394 . S
C1155 C1156 1.516 . S
C1156 C1155 1.516 . S
C1156 C1157 1.502 . S
C1156 C1158 1.561 . S
C1156 C1159 1.526 . S
C1157 H1141 0.959 . S
C1157 H1142 0.959 . S
C1157 H1143 0.961 . S
C1157 C1156 1.502 . S
C1158 H1144 0.960 . S
C1158 H1145 0.961 . S
C1158 H1146 0.959 . S
C1158 C1156 1.561 . S
C1159 C1156 1.526 . S
C1159 C1160 1.396 . S
C1159 C1164 1.390 . S
C1160 C1154 1.465 . S
C1160 C1159 1.396 . S
C1160 C1161 1.399 . S
C1161 H1147 0.929 . S
C1161 C1160 1.399 . S
C1161 C1162 1.385 . S
C1162 H1148 0.931 . S
C1162 C1161 1.385 . S
C1162 C1163 1.389 . S
C1163 C1162 1.389 . S
C1163 C1164 1.387 . S
C1164 H1149 0.930 . S
C1164 C1159 1.390 . S
C1164 C1163 1.387 . S
H1165 C1177 0.930 . S
H1166 C1179 0.930 . S
H1167 C1180 0.930 . S
H1168 C1184 0.959 . S
H1169 C1184 0.959 . S
H1170 C1184 0.961 . S
H1171 C1185 0.960 . S
H1172 C1185 0.961 . S
H1173 C1185 0.959 . S
H1174 C1188 0.929 . S
H1175 C1189 0.931 . S
H1176 C1191 0.930 . S
C1177 H1165 0.930 . S
C1177 C1178 1.399 . S
C1177 C1182 1.399 . S
C1178 C1177 1.399 . S
C1178 C1179 1.376 . S
C1179 H1166 0.930 . S
C1179 C1178 1.376 . S
C1179 C1180 1.388 . S
C1180 H1167 0.930 . S
C1180 C1179 1.388 . S
C1180 C1181 1.390 . S
C1181 C1180 1.390 . S
C1181 C1182 1.394 . S
C1181 C1187 1.465 . S
C1182 C1177 1.399 . S
C1182 C1181 1.394 . S
C1182 C1183 1.516 . S
C1183 C1182 1.516 . S
C1183 C1184 1.502 . S
C1183 C1185 1.561 . S
C1183 C1186 1.526 . S
C1184 H1168 0.959 . S
C1184 H1169 0.959 . S
C1184 H1170 0.961 . S
C1184 C1183 1.502 . S
C1185 H1171 0.960 . S
C1185 H1172 0.961 . S
C1185 H1173 0.959 . S
C1185 C1183 1.561 . S
C1186 C1183 1.526 . S
C1186 C1187 1.396 . S
C1186 C1191 1.390 . S
C1187 C1181 1.465 . S
C1187 C1186 1.396 . S
C1187 C1188 1.399 . S
C1188 H1174 0.929 . S
C1188 C1187 1.399 . S
C1188 C1189 1.385 . S
C1189 H1175 0.931 . S
C1189 C1188 1.385 . S
C1189 C1190 1.389 . S
C1190 C1189 1.389 . S
C1190 C1191 1.387 . S
C1191 H1176 0.930 . S
C1191 C1186 1.390 . S
C1191 C1190 1.387 . S
H1192 C1204 0.930 . S
H1193 C1206 0.930 . S
H1194 C1207 0.930 . S
H1195 C1211 0.959 1_455 S
H1196 C1211 0.959 1_455 S
H1197 C1211 0.961 . S
H1198 C1212 0.960 . S
H1199 C1212 0.961 . S
H1200 C1212 0.959 . S
H1201 C1215 0.929 . S
H1202 C1216 0.931 . S
H1203 C1218 0.930 . S
C1204 H1192 0.930 . S
C1204 C1205 1.399 . S
C1204 C1209 1.399 . S
C1205 C1204 1.399 . S
C1205 C1206 1.376 . S
C1206 H1193 0.930 . S
C1206 C1205 1.376 . S
C1206 C1207 1.388 . S
C1207 H1194 0.930 . S
C1207 C1206 1.388 . S
C1207 C1208 1.390 . S
C1208 C1207 1.390 . S
C1208 C1209 1.394 . S
C1208 C1214 1.465 . S
C1209 C1204 1.399 . S
C1209 C1208 1.394 . S
C1209 C1210 1.516 . S
C1210 C1209 1.516 . S
C1210 C1211 1.502 . S
C1210 C1212 1.561 . S
C1210 C1213 1.526 . S
C1211 H1195 0.959 1_655 S
C1211 H1196 0.959 1_655 S
C1211 H1197 0.961 . S
C1211 C1210 1.502 . S
C1212 H1198 0.960 . S
C1212 H1199 0.961 . S
C1212 H1200 0.959 . S
C1212 C1210 1.561 . S
C1213 C1210 1.526 . S
C1213 C1214 1.396 . S
C1213 C1218 1.390 1_655 S
C1214 C1208 1.465 . S
C1214 C1213 1.396 . S
C1214 C1215 1.399 . S
C1215 H1201 0.929 . S
C1215 C1214 1.399 . S
C1215 C1216 1.385 1_655 S
C1216 H1202 0.931 . S
C1216 C1215 1.385 1_455 S
C1216 C1217 1.389 . S
C1217 C1216 1.389 . S
C1217 C1218 1.387 . S
C1218 H1203 0.930 . S
C1218 C1213 1.390 1_455 S
C1218 C1217 1.387 . S
H1219 C1231 0.930 . S
H1220 C1233 0.930 . S
H1221 C1234 0.930 . S
H1222 C1238 0.959 . S
H1223 C1238 0.959 . S
H1224 C1238 0.961 . S
H1225 C1239 0.960 . S
H1226 C1239 0.961 . S
H1227 C1239 0.959 . S
H1228 C1242 0.929 . S
H1229 C1243 0.931 . S
H1230 C1245 0.930 . S
C1231 H1219 0.930 . S
C1231 C1232 1.399 . S
C1231 C1236 1.399 . S
C1232 C1231 1.399 . S
C1232 C1233 1.376 . S
C1233 H1220 0.930 . S
C1233 C1232 1.376 . S
C1233 C1234 1.388 . S
C1234 H1221 0.930 . S
C1234 C1233 1.388 . S
C1234 C1235 1.390 . S
C1235 C1234 1.390 . S
C1235 C1236 1.394 . S
C1235 C1241 1.465 . S
C1236 C1231 1.399 . S
C1236 C1235 1.394 . S
C1236 C1237 1.516 . S
C1237 C1236 1.516 . S
C1237 C1238 1.502 . S
C1237 C1239 1.561 . S
C1237 C1240 1.526 . S
C1238 H1222 0.959 . S
C1238 H1223 0.959 . S
C1238 H1224 0.961 . S
C1238 C1237 1.502 . S
C1239 H1225 0.960 . S
C1239 H1226 0.961 . S
C1239 H1227 0.959 . S
C1239 C1237 1.561 . S
C1240 C1237 1.526 . S
C1240 C1241 1.396 . S
C1240 C1245 1.390 . S
C1241 C1235 1.465 . S
C1241 C1240 1.396 . S
C1241 C1242 1.399 . S
C1242 H1228 0.929 . S
C1242 C1241 1.399 . S
C1242 C1243 1.385 . S
C1243 H1229 0.931 . S
C1243 C1242 1.385 . S
C1243 C1244 1.389 . S
C1244 C1243 1.389 . S
C1244 C1245 1.387 . S
C1245 H1230 0.930 . S
C1245 C1240 1.390 . S
C1245 C1244 1.387 . S
H1246 C1258 0.930 . S
H1247 C1260 0.930 . S
H1248 C1261 0.930 . S
H1249 C1265 0.959 . S
H1250 C1265 0.959 . S
H1251 C1265 0.961 . S
H1252 C1266 0.960 . S
H1253 C1266 0.961 . S
H1254 C1266 0.959 . S
H1255 C1269 0.929 1_565 S
H1256 C1270 0.931 . S
H1257 C1272 0.930 . S
C1258 H1246 0.930 . S
C1258 C1259 1.399 1_545 S
C1258 C1263 1.399 . S
C1259 C1258 1.399 1_565 S
C1259 C1260 1.376 . S
C1260 H1247 0.930 . S
C1260 C1259 1.376 . S
C1260 C1261 1.388 . S
C1261 H1248 0.930 . S
C1261 C1260 1.388 . S
C1261 C1262 1.390 1_565 S
C1262 C1261 1.390 1_545 S
C1262 C1263 1.394 . S
C1262 C1268 1.465 . S
C1263 C1258 1.399 . S
C1263 C1262 1.394 . S
C1263 C1264 1.516 . S
C1264 C1263 1.516 . S
C1264 C1265 1.502 . S
C1264 C1266 1.561 . S
C1264 C1267 1.526 . S
C1265 H1249 0.959 . S
C1265 H1250 0.959 . S
C1265 H1251 0.961 . S
C1265 C1264 1.502 . S
C1266 H1252 0.960 . S
C1266 H1253 0.961 . S
C1266 H1254 0.959 . S
C1266 C1264 1.561 . S
C1267 C1264 1.526 . S
C1267 C1268 1.396 . S
C1267 C1272 1.390 . S
C1268 C1262 1.465 . S
C1268 C1267 1.396 . S
C1268 C1269 1.399 . S
C1269 H1255 0.929 1_545 S
C1269 C1268 1.399 . S
C1269 C1270 1.385 . S
C1270 H1256 0.931 . S
C1270 C1269 1.385 . S
C1270 C1271 1.389 . S
C1271 C1270 1.389 . S
C1271 C1272 1.387 . S
C1272 H1257 0.930 . S
C1272 C1267 1.390 . S
C1272 C1271 1.387 . S
H1273 C1285 0.930 . S
H1274 C1287 0.930 . S
H1275 C1288 0.930 . S
H1276 C1292 0.959 . S
H1277 C1292 0.959 . S
H1278 C1292 0.961 . S
H1279 C1293 0.960 . S
H1280 C1293 0.961 1_556 S
H1281 C1293 0.959 . S
H1282 C1296 0.929 . S
H1283 C1297 0.931 . S
H1284 C1299 0.930 . S
C1285 H1273 0.930 . S
C1285 C1286 1.399 . S
C1285 C1290 1.399 . S
C1286 C1285 1.399 . S
C1286 C1287 1.376 . S
C1287 H1274 0.930 . S
C1287 C1286 1.376 . S
C1287 C1288 1.388 . S
C1288 H1275 0.930 . S
C1288 C1287 1.388 . S
C1288 C1289 1.390 . S
C1289 C1288 1.390 . S
C1289 C1290 1.394 . S
C1289 C1295 1.465 . S
C1290 C1285 1.399 . S
C1290 C1289 1.394 . S
C1290 C1291 1.516 . S
C1291 C1290 1.516 . S
C1291 C1292 1.502 . S
C1291 C1293 1.561 . S
C1291 C1294 1.526 . S
C1292 H1276 0.959 . S
C1292 H1277 0.959 . S
C1292 H1278 0.961 . S
C1292 C1291 1.502 . S
C1293 H1279 0.960 . S
C1293 H1280 0.961 1_554 S
C1293 H1281 0.959 . S
C1293 C1291 1.561 . S
C1294 C1291 1.526 . S
C1294 C1295 1.396 . S
C1294 C1299 1.390 1_554 S
C1295 C1289 1.465 . S
C1295 C1294 1.396 . S
C1295 C1296 1.399 . S
C1296 H1282 0.929 . S
C1296 C1295 1.399 . S
C1296 C1297 1.385 . S
C1297 H1283 0.931 . S
C1297 C1296 1.385 . S
C1297 C1298 1.389 1_554 S
C1298 C1297 1.389 1_556 S
C1298 C1299 1.387 . S
C1299 H1284 0.930 . S
C1299 C1294 1.390 1_556 S
C1299 C1298 1.387 . S
H1300 C1312 0.930 . S
H1301 C1314 0.930 . S
H1302 C1315 0.930 . S
H1303 C1319 0.959 . S
H1304 C1319 0.959 . S
H1305 C1319 0.961 . S
H1306 C1320 0.960 . S
H1307 C1320 0.961 . S
H1308 C1320 0.959 . S
H1309 C1323 0.929 . S
H1310 C1324 0.931 . S
H1311 C1326 0.930 1_455 S
C1312 H1300 0.930 . S
C1312 C1313 1.399 . S
C1312 C1317 1.399 . S
C1313 C1312 1.399 . S
C1313 C1314 1.376 . S
C1314 H1301 0.930 . S
C1314 C1313 1.376 . S
C1314 C1315 1.388 . S
C1315 H1302 0.930 . S
C1315 C1314 1.388 . S
C1315 C1316 1.390 . S
C1316 C1315 1.390 . S
C1316 C1317 1.394 . S
C1316 C1322 1.465 . S
C1317 C1312 1.399 . S
C1317 C1316 1.394 . S
C1317 C1318 1.516 . S
C1318 C1317 1.516 . S
C1318 C1319 1.502 . S
C1318 C1320 1.561 1_655 S
C1318 C1321 1.526 . S
C1319 H1303 0.959 . S
C1319 H1304 0.959 . S
C1319 H1305 0.961 . S
C1319 C1318 1.502 . S
C1320 H1306 0.960 . S
C1320 H1307 0.961 . S
C1320 H1308 0.959 . S
C1320 C1318 1.561 1_455 S
C1321 C1318 1.526 . S
C1321 C1322 1.396 . S
C1321 C1326 1.390 . S
C1322 C1316 1.465 . S
C1322 C1321 1.396 . S
C1322 C1323 1.399 . S
C1323 H1309 0.929 . S
C1323 C1322 1.399 . S
C1323 C1324 1.385 . S
C1324 H1310 0.931 . S
C1324 C1323 1.385 . S
C1324 C1325 1.389 . S
C1325 C1324 1.389 . S
C1325 C1326 1.387 . S
C1326 H1311 0.930 1_655 S
C1326 C1321 1.390 . S
C1326 C1325 1.387 . S
H1327 C1339 0.930 . S
H1328 C1341 0.930 . S
H1329 C1342 0.930 . S
H1330 C1346 0.959 . S
H1331 C1346 0.959 . S
H1332 C1346 0.961 . S
H1333 C1347 0.960 . S
H1334 C1347 0.961 . S
H1335 C1347 0.959 . S
H1336 C1350 0.929 . S
H1337 C1351 0.931 . S
H1338 C1353 0.930 . S
C1339 H1327 0.930 . S
C1339 C1340 1.399 . S
C1339 C1344 1.399 . S
C1340 C1339 1.399 . S
C1340 C1341 1.376 . S
C1341 H1328 0.930 . S
C1341 C1340 1.376 . S
C1341 C1342 1.388 . S
C1342 H1329 0.930 . S
C1342 C1341 1.388 . S
C1342 C1343 1.390 . S
C1343 C1342 1.390 . S
C1343 C1344 1.394 . S
C1343 C1349 1.465 . S
C1344 C1339 1.399 . S
C1344 C1343 1.394 . S
C1344 C1345 1.516 . S
C1345 C1344 1.516 . S
C1345 C1346 1.502 . S
C1345 C1347 1.561 . S
C1345 C1348 1.526 . S
C1346 H1330 0.959 . S
C1346 H1331 0.959 . S
C1346 H1332 0.961 . S
C1346 C1345 1.502 . S
C1347 H1333 0.960 . S
C1347 H1334 0.961 . S
C1347 H1335 0.959 . S
C1347 C1345 1.561 . S
C1348 C1345 1.526 . S
C1348 C1349 1.396 . S
C1348 C1353 1.390 . S
C1349 C1343 1.465 . S
C1349 C1348 1.396 . S
C1349 C1350 1.399 . S
C1350 H1336 0.929 . S
C1350 C1349 1.399 . S
C1350 C1351 1.385 . S
C1351 H1337 0.931 . S
C1351 C1350 1.385 . S
C1351 C1352 1.389 . S
C1352 C1351 1.389 . S
C1352 C1353 1.387 . S
C1353 H1338 0.930 . S
C1353 C1348 1.390 . S
C1353 C1352 1.387 . S
H1354 C1366 0.930 . S
H1355 C1368 0.930 . S
H1356 C1369 0.930 . S
H1357 C1373 0.959 . S
H1358 C1373 0.959 . S
H1359 C1373 0.961 . S
H1360 C1374 0.960 . S
H1361 C1374 0.961 . S
H1362 C1374 0.959 . S
H1363 C1377 0.929 . S
H1364 C1378 0.931 . S
H1365 C1380 0.930 . S
C1366 H1354 0.930 . S
C1366 C1367 1.399 . S
C1366 C1371 1.399 . S
C1367 C1366 1.399 . S
C1367 C1368 1.376 1_545 S
C1368 H1355 0.930 . S
C1368 C1367 1.376 1_565 S
C1368 C1369 1.388 . S
C1369 H1356 0.930 . S
C1369 C1368 1.388 . S
C1369 C1370 1.390 1_565 S
C1370 C1369 1.390 1_545 S
C1370 C1371 1.394 . S
C1370 C1376 1.465 . S
C1371 C1366 1.399 . S
C1371 C1370 1.394 . S
C1371 C1372 1.516 . S
C1372 C1371 1.516 . S
C1372 C1373 1.502 . S
C1372 C1374 1.561 . S
C1372 C1375 1.526 . S
C1373 H1357 0.959 . S
C1373 H1358 0.959 . S
C1373 H1359 0.961 . S
C1373 C1372 1.502 . S
C1374 H1360 0.960 . S
C1374 H1361 0.961 . S
C1374 H1362 0.959 . S
C1374 C1372 1.561 . S
C1375 C1372 1.526 . S
C1375 C1376 1.396 . S
C1375 C1380 1.390 . S
C1376 C1370 1.465 . S
C1376 C1375 1.396 . S
C1376 C1377 1.399 . S
C1377 H1363 0.929 . S
C1377 C1376 1.399 . S
C1377 C1378 1.385 . S
C1378 H1364 0.931 . S
C1378 C1377 1.385 . S
C1378 C1379 1.389 . S
C1379 C1378 1.389 . S
C1379 C1380 1.387 . S
C1380 H1365 0.930 . S
C1380 C1375 1.390 . S
C1380 C1379 1.387 . S
H1381 C1393 0.930 . S
H1382 C1395 0.930 . S
H1383 C1396 0.930 . S
H1384 C1400 0.959 . S
H1385 C1400 0.959 . S
H1386 C1400 0.961 . S
H1387 C1401 0.960 . S
H1388 C1401 0.961 . S
H1389 C1401 0.959 . S
H1390 C1404 0.929 . S
H1391 C1405 0.931 . S
H1392 C1407 0.930 . S
C1393 H1381 0.930 . S
C1393 C1394 1.399 . S
C1393 C1398 1.399 . S
C1394 C1393 1.399 . S
C1394 C1395 1.376 . S
C1395 H1382 0.930 . S
C1395 C1394 1.376 . S
C1395 C1396 1.388 . S
C1396 H1383 0.930 . S
C1396 C1395 1.388 . S
C1396 C1397 1.390 . S
C1397 C1396 1.390 . S
C1397 C1398 1.394 . S
C1397 C1403 1.465 . S
C1398 C1393 1.399 . S
C1398 C1397 1.394 . S
C1398 C1399 1.516 . S
C1399 C1398 1.516 . S
C1399 C1400 1.502 . S
C1399 C1401 1.561 . S
C1399 C1402 1.526 . S
C1400 H1384 0.959 . S
C1400 H1385 0.959 . S
C1400 H1386 0.961 . S
C1400 C1399 1.502 . S
C1401 H1387 0.960 . S
C1401 H1388 0.961 . S
C1401 H1389 0.959 . S
C1401 C1399 1.561 . S
C1402 C1399 1.526 . S
C1402 C1403 1.396 . S
C1402 C1407 1.390 . S
C1403 C1397 1.465 . S
C1403 C1402 1.396 . S
C1403 C1404 1.399 . S
C1404 H1390 0.929 . S
C1404 C1403 1.399 . S
C1404 C1405 1.385 . S
C1405 H1391 0.931 . S
C1405 C1404 1.385 . S
C1405 C1406 1.389 . S
C1406 C1405 1.389 . S
C1406 C1407 1.387 . S
C1407 H1392 0.930 . S
C1407 C1402 1.390 . S
C1407 C1406 1.387 . S
H1408 C1420 0.930 . S
H1409 C1422 0.930 . S
H1410 C1423 0.930 . S
H1411 C1427 0.959 . S
H1412 C1427 0.959 . S
H1413 C1427 0.979 . S
H1414 C1428 0.960 . S
H1415 C1428 0.961 . S
H1416 C1428 0.959 . S
H1417 C1431 0.928 1_565 S
H1418 C1432 0.931 . S
H1419 C1434 0.930 . S
C1420 H1408 0.930 . S
C1420 C1421 1.399 . S
C1420 C1425 1.399 . S
C1421 C1420 1.399 . S
C1421 C1422 1.376 . S
C1422 H1409 0.930 . S
C1422 C1421 1.376 . S
C1422 C1423 1.388 . S
C1423 H1410 0.930 . S
C1423 C1422 1.388 . S
C1423 C1424 1.390 . S
C1424 C1423 1.390 . S
C1424 C1425 1.394 . S
C1424 C1430 1.465 . S
C1425 C1420 1.399 . S
C1425 C1424 1.394 . S
C1425 C1426 1.516 . S
C1426 C1425 1.516 . S
C1426 C1427 1.502 1_565 S
C1426 C1428 1.561 . S
C1426 C1429 1.512 1_565 S
C1427 H1411 0.959 . S
C1427 H1412 0.959 . S
C1427 H1413 0.979 . S
C1427 C1426 1.502 1_545 S
C1428 H1414 0.960 . S
C1428 H1415 0.961 . S
C1428 H1416 0.959 . S
C1428 C1426 1.561 . S
C1429 C1426 1.512 1_545 S
C1429 C1430 1.378 1_545 S
C1429 C1434 1.417 . S
C1430 C1424 1.465 . S
C1430 C1429 1.378 1_565 S
C1430 C1431 1.398 1_565 S
C1431 H1417 0.928 1_545 S
C1431 C1430 1.398 1_545 S
C1431 C1432 1.387 . S
C1432 H1418 0.931 . S
C1432 C1431 1.387 . S
C1432 C1433 1.389 . S
C1433 C1432 1.389 . S
C1433 C1434 1.387 . S
C1434 H1419 0.930 . S
C1434 C1429 1.417 . S
C1434 C1433 1.387 . S
H1435 C1447 0.930 . S
H1436 C1449 0.930 . S
H1437 C1450 0.930 . S
H1438 C1454 0.959 . S
H1439 C1454 0.959 . S
H1440 C1454 0.961 . S
H1441 C1455 0.960 . S
H1442 C1455 0.961 . S
H1443 C1455 0.959 1_554 S
H1444 C1458 0.929 . S
H1445 C1459 0.931 . S
H1446 C1461 0.930 . S
C1447 H1435 0.930 . S
C1447 C1448 1.399 1_556 S
C1447 C1452 1.399 1_556 S
C1448 C1447 1.399 1_554 S
C1448 C1449 1.376 . S
C1449 H1436 0.930 . S
C1449 C1448 1.376 . S
C1449 C1450 1.388 . S
C1450 H1437 0.930 . S
C1450 C1449 1.388 . S
C1450 C1451 1.390 . S
C1451 C1450 1.390 . S
C1451 C1452 1.394 . S
C1451 C1457 1.465 . S
C1452 C1447 1.399 1_554 S
C1452 C1451 1.394 . S
C1452 C1453 1.516 1_554 S
C1453 C1452 1.516 1_556 S
C1453 C1454 1.502 . S
C1453 C1455 1.561 . S
C1453 C1456 1.526 1_556 S
C1454 H1438 0.959 . S
C1454 H1439 0.959 . S
C1454 H1440 0.961 . S
C1454 C1453 1.502 . S
C1455 H1441 0.960 . S
C1455 H1442 0.961 . S
C1455 H1443 0.959 1_556 S
C1455 C1453 1.561 . S
C1456 C1453 1.526 1_554 S
C1456 C1457 1.396 . S
C1456 C1461 1.390 . S
C1457 C1451 1.465 . S
C1457 C1456 1.396 . S
C1457 C1458 1.399 . S
C1458 H1444 0.929 . S
C1458 C1457 1.399 . S
C1458 C1459 1.385 . S
C1459 H1445 0.931 . S
C1459 C1458 1.385 . S
C1459 C1460 1.389 . S
C1460 C1459 1.389 . S
C1460 C1461 1.387 . S
C1461 H1446 0.930 . S
C1461 C1456 1.390 . S
C1461 C1460 1.387 . S
H1462 C1474 0.930 . S
H1463 C1476 0.930 . S
H1464 C1477 0.930 . S
H1465 C1481 0.959 . S
H1466 C1481 0.959 . S
H1467 C1481 0.961 . S
H1468 C1482 0.960 . S
H1469 C1482 0.961 . S
H1470 C1482 0.959 . S
H1471 C1485 0.929 . S
H1472 C1486 0.931 . S
H1473 C1488 0.930 . S
C1474 H1462 0.930 . S
C1474 C1475 1.399 . S
C1474 C1479 1.399 . S
C1475 C1474 1.399 . S
C1475 C1476 1.376 . S
C1476 H1463 0.930 . S
C1476 C1475 1.376 . S
C1476 C1477 1.388 . S
C1477 H1464 0.930 . S
C1477 C1476 1.388 . S
C1477 C1478 1.390 . S
C1478 C1477 1.390 . S
C1478 C1479 1.394 . S
C1478 C1484 1.465 . S
C1479 C1474 1.399 . S
C1479 C1478 1.394 . S
C1479 C1480 1.516 . S
C1480 C1479 1.516 . S
C1480 C1481 1.502 . S
C1480 C1482 1.561 . S
C1480 C1483 1.526 . S
C1481 H1465 0.959 . S
C1481 H1466 0.959 . S
C1481 H1467 0.961 . S
C1481 C1480 1.502 . S
C1482 H1468 0.960 . S
C1482 H1469 0.961 . S
C1482 H1470 0.959 . S
C1482 C1480 1.561 . S
C1483 C1480 1.526 . S
C1483 C1484 1.396 . S
C1483 C1488 1.390 . S
C1484 C1478 1.465 . S
C1484 C1483 1.396 . S
C1484 C1485 1.399 . S
C1485 H1471 0.929 . S
C1485 C1484 1.399 . S
C1485 C1486 1.385 . S
C1486 H1472 0.931 . S
C1486 C1485 1.385 . S
C1486 C1487 1.389 . S
C1487 C1486 1.389 . S
C1487 C1488 1.387 . S
C1488 H1473 0.930 . S
C1488 C1483 1.390 . S
C1488 C1487 1.387 . S
H1489 C1501 0.930 . S
H1490 C1503 0.930 . S
H1491 C1504 0.930 . S
H1492 C1508 0.959 . S
H1493 C1508 0.959 . S
H1494 C1508 0.961 . S
H1495 C1509 0.960 . S
H1496 C1509 0.961 . S
H1497 C1509 0.959 . S
H1498 C1512 0.929 . S
H1499 C1513 0.931 . S
H1500 C1515 0.930 . S
C1501 H1489 0.930 . S
C1501 C1502 1.399 . S
C1501 C1506 1.399 . S
C1502 C1501 1.399 . S
C1502 C1503 1.376 . S
C1503 H1490 0.930 . S
C1503 C1502 1.376 . S
C1503 C1504 1.388 . S
C1504 H1491 0.930 . S
C1504 C1503 1.388 . S
C1504 C1505 1.390 . S
C1505 C1504 1.390 . S
C1505 C1506 1.394 . S
C1505 C1511 1.465 . S
C1506 C1501 1.399 . S
C1506 C1505 1.394 . S
C1506 C1507 1.516 . S
C1507 C1506 1.516 . S
C1507 C1508 1.502 . S
C1507 C1509 1.561 . S
C1507 C1510 1.526 . S
C1508 H1492 0.959 . S
C1508 H1493 0.959 . S
C1508 H1494 0.961 . S
C1508 C1507 1.502 . S
C1509 H1495 0.960 . S
C1509 H1496 0.961 . S
C1509 H1497 0.959 . S
C1509 C1507 1.561 . S
C1510 C1507 1.526 . S
C1510 C1511 1.396 . S
C1510 C1515 1.390 . S
C1511 C1505 1.465 . S
C1511 C1510 1.396 . S
C1511 C1512 1.399 . S
C1512 H1498 0.929 . S
C1512 C1511 1.399 . S
C1512 C1513 1.385 . S
C1513 H1499 0.931 . S
C1513 C1512 1.385 . S
C1513 C1514 1.389 . S
C1514 C1513 1.389 . S
C1514 C1515 1.387 . S
C1515 H1500 0.930 . S
C1515 C1510 1.390 . S
C1515 C1514 1.387 . S
H1516 C1528 0.930 . S
H1517 C1530 0.930 . S
H1518 C1531 0.930 . S
H1519 C1535 0.959 . S
H1520 C1535 0.959 . S
H1521 C1535 0.961 . S
H1522 C1536 0.960 . S
H1523 C1536 0.961 . S
H1524 C1536 0.959 . S
H1525 C1539 0.929 . S
H1526 C1540 0.931 . S
H1527 C1542 0.930 . S
C1528 H1516 0.930 . S
C1528 C1529 1.399 . S
C1528 C1533 1.399 . S
C1529 C1528 1.399 . S
C1529 C1530 1.376 . S
C1530 H1517 0.930 . S
C1530 C1529 1.376 . S
C1530 C1531 1.388 . S
C1531 H1518 0.930 . S
C1531 C1530 1.388 . S
C1531 C1532 1.390 . S
C1532 C1531 1.390 . S
C1532 C1533 1.394 . S
C1532 C1538 1.465 . S
C1533 C1528 1.399 . S
C1533 C1532 1.394 . S
C1533 C1534 1.516 . S
C1534 C1533 1.516 . S
C1534 C1535 1.502 . S
C1534 C1536 1.561 . S
C1534 C1537 1.526 . S
C1535 H1519 0.959 . S
C1535 H1520 0.959 . S
C1535 H1521 0.961 . S
C1535 C1534 1.502 . S
C1536 H1522 0.960 . S
C1536 H1523 0.961 . S
C1536 H1524 0.959 . S
C1536 C1534 1.561 . S
C1537 C1534 1.526 . S
C1537 C1538 1.396 . S
C1537 C1542 1.390 . S
C1538 C1532 1.465 . S
C1538 C1537 1.396 . S
C1538 C1539 1.399 . S
C1539 H1525 0.929 . S
C1539 C1538 1.399 . S
C1539 C1540 1.385 . S
C1540 H1526 0.931 . S
C1540 C1539 1.385 . S
C1540 C1541 1.389 . S
C1541 C1540 1.389 . S
C1541 C1542 1.387 . S
C1542 H1527 0.930 . S
C1542 C1537 1.390 . S
C1542 C1541 1.387 . S
H1543 C1555 0.930 . S
H1544 C1557 0.930 . S
H1545 C1558 0.930 . S
H1546 C1562 0.959 . S
H1547 C1562 0.959 . S
H1548 C1562 0.961 . S
H1549 C1563 0.960 . S
H1550 C1563 0.961 . S
H1551 C1563 0.959 . S
H1552 C1566 0.929 . S
H1553 C1567 0.931 . S
H1554 C1569 0.930 . S
C1555 H1543 0.930 . S
C1555 C1556 1.399 . S
C1555 C1560 1.399 . S
C1556 C1555 1.399 . S
C1556 C1557 1.376 . S
C1557 H1544 0.930 . S
C1557 C1556 1.376 . S
C1557 C1558 1.388 . S
C1558 H1545 0.930 . S
C1558 C1557 1.388 . S
C1558 C1559 1.390 . S
C1559 C1558 1.390 . S
C1559 C1560 1.394 . S
C1559 C1565 1.465 . S
C1560 C1555 1.399 . S
C1560 C1559 1.394 . S
C1560 C1561 1.516 . S
C1561 C1560 1.516 . S
C1561 C1562 1.502 . S
C1561 C1563 1.561 . S
C1561 C1564 1.526 . S
C1562 H1546 0.959 . S
C1562 H1547 0.959 . S
C1562 H1548 0.961 . S
C1562 C1561 1.502 . S
C1563 H1549 0.960 . S
C1563 H1550 0.961 . S
C1563 H1551 0.959 . S
C1563 C1561 1.561 . S
C1564 C1561 1.526 . S
C1564 C1565 1.396 . S
C1564 C1569 1.390 . S
C1565 C1559 1.465 . S
C1565 C1564 1.396 . S
C1565 C1566 1.399 . S
C1566 H1552 0.929 . S
C1566 C1565 1.399 . S
C1566 C1567 1.385 . S
C1567 H1553 0.931 . S
C1567 C1566 1.385 . S
C1567 C1568 1.389 . S
C1568 C1567 1.389 . S
C1568 C1569 1.387 . S
C1569 H1554 0.930 . S
C1569 C1564 1.390 . S
C1569 C1568 1.387 . S
H1570 C1582 0.930 . S
H1571 C1584 0.930 . S
H1572 C1585 0.930 . S
H1573 C1589 0.959 . S
H1574 C1589 0.959 . S
H1575 C1589 0.961 . S
H1576 C1590 0.960 . S
H1577 C1590 0.961 . S
H1578 C1590 0.959 . S
H1579 C1593 0.929 . S
H1580 C1594 0.931 . S
H1581 C1596 0.930 . S
C1582 H1570 0.930 . S
C1582 C1583 1.399 . S
C1582 C1587 1.399 . S
C1583 C1582 1.399 . S
C1583 C1584 1.376 . S
C1584 H1571 0.930 . S
C1584 C1583 1.376 . S
C1584 C1585 1.388 . S
C1585 H1572 0.930 . S
C1585 C1584 1.388 . S
C1585 C1586 1.390 . S
C1586 C1585 1.390 . S
C1586 C1587 1.394 . S
C1586 C1592 1.465 . S
C1587 C1582 1.399 . S
C1587 C1586 1.394 . S
C1587 C1588 1.516 . S
C1588 C1587 1.516 . S
C1588 C1589 1.502 . S
C1588 C1590 1.561 . S
C1588 C1591 1.526 . S
C1589 H1573 0.959 . S
C1589 H1574 0.959 . S
C1589 H1575 0.961 . S
C1589 C1588 1.502 . S
C1590 H1576 0.960 . S
C1590 H1577 0.961 . S
C1590 H1578 0.959 . S
C1590 C1588 1.561 . S
C1591 C1588 1.526 . S
C1591 C1592 1.396 . S
C1591 C1596 1.390 . S
C1592 C1586 1.465 . S
C1592 C1591 1.396 . S
C1592 C1593 1.399 . S
C1593 H1579 0.929 . S
C1593 C1592 1.399 . S
C1593 C1594 1.385 . S
C1594 H1580 0.931 . S
C1594 C1593 1.385 . S
C1594 C1595 1.389 . S
C1595 C1594 1.389 . S
C1595 C1596 1.387 . S
C1596 H1581 0.930 . S
C1596 C1591 1.390 . S
C1596 C1595 1.387 . S
H1597 C1609 0.930 . S
H1598 C1611 0.930 . S
H1599 C1612 0.930 . S
H1600 C1616 0.959 . S
H1601 C1616 0.959 . S
H1602 C1616 0.961 . S
H1603 C1617 0.960 . S
H1604 C1617 0.961 . S
H1605 C1617 0.959 . S
H1606 C1620 0.929 . S
H1607 C1621 0.931 . S
H1608 C1623 0.930 . S
C1609 H1597 0.930 . S
C1609 C1610 1.399 . S
C1609 C1614 1.399 . S
C1610 C1609 1.399 . S
C1610 C1611 1.376 . S
C1611 H1598 0.930 . S
C1611 C1610 1.376 . S
C1611 C1612 1.388 . S
C1612 H1599 0.930 . S
C1612 C1611 1.388 . S
C1612 C1613 1.390 . S
C1613 C1612 1.390 . S
C1613 C1614 1.394 . S
C1613 C1619 1.465 . S
C1614 C1609 1.399 . S
C1614 C1613 1.394 . S
C1614 C1615 1.516 . S
C1615 C1614 1.516 . S
C1615 C1616 1.502 . S
C1615 C1617 1.561 . S
C1615 C1618 1.526 . S
C1616 H1600 0.959 . S
C1616 H1601 0.959 . S
C1616 H1602 0.961 . S
C1616 C1615 1.502 . S
C1617 H1603 0.960 . S
C1617 H1604 0.961 . S
C1617 H1605 0.959 . S
C1617 C1615 1.561 . S
C1618 C1615 1.526 . S
C1618 C1619 1.396 . S
C1618 C1623 1.390 . S
C1619 C1613 1.465 . S
C1619 C1618 1.396 . S
C1619 C1620 1.399 . S
C1620 H1606 0.929 . S
C1620 C1619 1.399 . S
C1620 C1621 1.385 . S
C1621 H1607 0.931 . S
C1621 C1620 1.385 . S
C1621 C1622 1.389 . S
C1622 C1621 1.389 . S
C1622 C1623 1.387 . S
C1623 H1608 0.930 . S
C1623 C1618 1.390 . S
C1623 C1622 1.387 . S
H1624 C1636 0.930 . S
H1625 C1638 0.930 . S
H1626 C1639 0.930 . S
H1627 C1643 0.959 . S
H1628 C1643 0.959 . S
H1629 C1643 0.961 . S
H1630 C1644 0.960 . S
H1631 C1644 0.961 . S
H1632 C1644 0.959 . S
H1633 C1647 0.929 . S
H1634 C1648 0.931 . S
H1635 C1650 0.930 . S
C1636 H1624 0.930 . S
C1636 C1637 1.399 . S
C1636 C1641 1.399 . S
C1637 C1636 1.399 . S
C1637 C1638 1.376 . S
C1638 H1625 0.930 . S
C1638 C1637 1.376 . S
C1638 C1639 1.388 . S
C1639 H1626 0.930 . S
C1639 C1638 1.388 . S
C1639 C1640 1.390 . S
C1640 C1639 1.390 . S
C1640 C1641 1.394 . S
C1640 C1646 1.465 . S
C1641 C1636 1.399 . S
C1641 C1640 1.394 . S
C1641 C1642 1.516 . S
C1642 C1641 1.516 . S
C1642 C1643 1.502 1_455 S
C1642 C1644 1.561 . S
C1642 C1645 1.526 . S
C1643 H1627 0.959 . S
C1643 H1628 0.959 . S
C1643 H1629 0.961 . S
C1643 C1642 1.502 1_655 S
C1644 H1630 0.960 . S
C1644 H1631 0.961 . S
C1644 H1632 0.959 . S
C1644 C1642 1.561 . S
C1645 C1642 1.526 . S
C1645 C1646 1.396 . S
C1645 C1650 1.390 . S
C1646 C1640 1.465 . S
C1646 C1645 1.396 . S
C1646 C1647 1.399 . S
C1647 H1633 0.929 . S
C1647 C1646 1.399 . S
C1647 C1648 1.385 . S
C1648 H1634 0.931 . S
C1648 C1647 1.385 . S
C1648 C1649 1.389 . S
C1649 C1648 1.389 . S
C1649 C1650 1.387 . S
C1650 H1635 0.930 . S
C1650 C1645 1.390 . S
C1650 C1649 1.387 . S
H1651 C1663 0.930 . S
H1652 C1665 0.930 . S
H1653 C1666 0.930 . S
H1654 C1670 0.959 . S
H1655 C1670 0.959 . S
H1656 C1670 0.961 . S
H1657 C1671 0.960 . S
H1658 C1671 0.961 . S
H1659 C1671 0.959 . S
H1660 C1674 0.929 . S
H1661 C1675 0.931 . S
H1662 C1677 0.930 . S
C1663 H1651 0.930 . S
C1663 C1664 1.399 . S
C1663 C1668 1.399 . S
C1664 C1663 1.399 . S
C1664 C1665 1.376 . S
C1665 H1652 0.930 . S
C1665 C1664 1.376 . S
C1665 C1666 1.388 . S
C1666 H1653 0.930 . S
C1666 C1665 1.388 . S
C1666 C1667 1.390 . S
C1667 C1666 1.390 . S
C1667 C1668 1.394 . S
C1667 C1673 1.465 . S
C1668 C1663 1.399 . S
C1668 C1667 1.394 . S
C1668 C1669 1.516 . S
C1669 C1668 1.516 . S
C1669 C1670 1.502 . S
C1669 C1671 1.561 . S
C1669 C1672 1.526 . S
C1670 H1654 0.959 . S
C1670 H1655 0.959 . S
C1670 H1656 0.961 . S
C1670 C1669 1.502 . S
C1671 H1657 0.960 . S
C1671 H1658 0.961 . S
C1671 H1659 0.959 . S
C1671 C1669 1.561 . S
C1672 C1669 1.526 . S
C1672 C1673 1.396 . S
C1672 C1677 1.390 . S
C1673 C1667 1.465 . S
C1673 C1672 1.396 . S
C1673 C1674 1.399 . S
C1674 H1660 0.929 . S
C1674 C1673 1.399 . S
C1674 C1675 1.385 . S
C1675 H1661 0.931 . S
C1675 C1674 1.385 . S
C1675 C1676 1.389 . S
C1676 C1675 1.389 . S
C1676 C1677 1.387 . S
C1677 H1662 0.930 . S
C1677 C1672 1.390 . S
C1677 C1676 1.387 . S
H1678 C1690 0.930 . S
H1679 C1692 0.930 . S
H1680 C1693 0.930 . S
H1681 C1697 0.959 . S
H1682 C1697 0.959 . S
H1683 C1697 0.961 . S
H1684 C1698 0.960 . S
H1685 C1698 0.961 . S
H1686 C1698 0.959 . S
H1687 C1701 0.929 . S
H1688 C1702 0.931 . S
H1689 C1704 0.930 . S
C1690 H1678 0.930 . S
C1690 C1691 1.399 . S
C1690 C1695 1.399 . S
C1691 C1690 1.399 . S
C1691 C1692 1.376 . S
C1692 H1679 0.930 . S
C1692 C1691 1.376 . S
C1692 C1693 1.388 . S
C1693 H1680 0.930 . S
C1693 C1692 1.388 . S
C1693 C1694 1.390 . S
C1694 C1693 1.390 . S
C1694 C1695 1.394 . S
C1694 C1700 1.465 . S
C1695 C1690 1.399 . S
C1695 C1694 1.394 . S
C1695 C1696 1.516 . S
C1696 C1695 1.516 . S
C1696 C1697 1.502 . S
C1696 C1698 1.561 . S
C1696 C1699 1.526 . S
C1697 H1681 0.959 . S
C1697 H1682 0.959 . S
C1697 H1683 0.961 . S
C1697 C1696 1.502 . S
C1698 H1684 0.960 . S
C1698 H1685 0.961 . S
C1698 H1686 0.959 . S
C1698 C1696 1.561 . S
C1699 C1696 1.526 . S
C1699 C1700 1.396 . S
C1699 C1704 1.390 . S
C1700 C1694 1.465 . S
C1700 C1699 1.396 . S
C1700 C1701 1.399 . S
C1701 H1687 0.929 . S
C1701 C1700 1.399 . S
C1701 C1702 1.385 . S
C1702 H1688 0.931 . S
C1702 C1701 1.385 . S
C1702 C1703 1.389 . S
C1703 C1702 1.389 . S
C1703 C1704 1.387 . S
C1704 H1689 0.930 . S
C1704 C1699 1.390 . S
C1704 C1703 1.387 . S
H1705 C1717 0.930 . S
H1706 C1719 0.930 . S
H1707 C1720 0.930 . S
H1708 C1724 0.959 . S
H1709 C1724 0.959 . S
H1710 C1724 0.961 . S
H1711 C1725 0.960 . S
H1712 C1725 0.961 . S
H1713 C1725 0.959 . S
H1714 C1728 0.929 . S
H1715 C1729 0.931 . S
H1716 C1731 0.930 . S
C1717 H1705 0.930 . S
C1717 C1718 1.399 . S
C1717 C1722 1.399 . S
C1718 C1717 1.399 . S
C1718 C1719 1.376 . S
C1719 H1706 0.930 . S
C1719 C1718 1.376 . S
C1719 C1720 1.388 . S
C1720 H1707 0.930 . S
C1720 C1719 1.388 . S
C1720 C1721 1.390 . S
C1721 C1720 1.390 . S
C1721 C1722 1.394 . S
C1721 C1727 1.465 . S
C1722 C1717 1.399 . S
C1722 C1721 1.394 . S
C1722 C1723 1.516 . S
C1723 C1722 1.516 . S
C1723 C1724 1.502 . S
C1723 C1725 1.561 . S
C1723 C1726 1.526 . S
C1724 H1708 0.959 . S
C1724 H1709 0.959 . S
C1724 H1710 0.961 . S
C1724 C1723 1.502 . S
C1725 H1711 0.960 . S
C1725 H1712 0.961 . S
C1725 H1713 0.959 . S
C1725 C1723 1.561 . S
C1726 C1723 1.526 . S
C1726 C1727 1.396 . S
C1726 C1731 1.390 . S
C1727 C1721 1.465 . S
C1727 C1726 1.396 . S
C1727 C1728 1.399 . S
C1728 H1714 0.929 . S
C1728 C1727 1.399 . S
C1728 C1729 1.385 . S
C1729 H1715 0.931 . S
C1729 C1728 1.385 . S
C1729 C1730 1.389 . S
C1730 C1729 1.389 . S
C1730 C1731 1.387 . S
C1731 H1716 0.930 . S
C1731 C1726 1.390 . S
C1731 C1730 1.387 . S
H1732 C1744 0.930 . S
H1733 C1746 0.930 . S
H1734 C1747 0.930 . S
H1735 C1751 0.959 . S
H1736 C1751 0.959 . S
H1737 C1751 0.961 . S
H1738 C1752 0.960 . S
H1739 C1752 0.961 . S
H1740 C1752 0.959 . S
H1741 C1755 0.929 . S
H1742 C1756 0.931 . S
H1743 C1758 0.930 . S
C1744 H1732 0.930 . S
C1744 C1745 1.399 . S
C1744 C1749 1.399 . S
C1745 C1744 1.399 . S
C1745 C1746 1.376 . S
C1746 H1733 0.930 . S
C1746 C1745 1.376 . S
C1746 C1747 1.388 . S
C1747 H1734 0.930 . S
C1747 C1746 1.388 . S
C1747 C1748 1.390 . S
C1748 C1747 1.390 . S
C1748 C1749 1.394 . S
C1748 C1754 1.465 . S
C1749 C1744 1.399 . S
C1749 C1748 1.394 . S
C1749 C1750 1.516 . S
C1750 C1749 1.516 . S
C1750 C1751 1.502 . S
C1750 C1752 1.561 . S
C1750 C1753 1.526 . S
C1751 H1735 0.959 . S
C1751 H1736 0.959 . S
C1751 H1737 0.961 . S
C1751 C1750 1.502 . S
C1752 H1738 0.960 . S
C1752 H1739 0.961 . S
C1752 H1740 0.959 . S
C1752 C1750 1.561 . S
C1753 C1750 1.526 . S
C1753 C1754 1.396 . S
C1753 C1758 1.390 . S
C1754 C1748 1.465 . S
C1754 C1753 1.396 . S
C1754 C1755 1.399 . S
C1755 H1741 0.929 . S
C1755 C1754 1.399 . S
C1755 C1756 1.385 . S
C1756 H1742 0.931 . S
C1756 C1755 1.385 . S
C1756 C1757 1.389 . S
C1757 C1756 1.389 . S
C1757 C1758 1.387 . S
C1758 H1743 0.930 . S
C1758 C1753 1.390 . S
C1758 C1757 1.387 . S
H1759 C1771 0.930 . S
H1760 C1773 0.930 . S
H1761 C1774 0.930 . S
H1762 C1778 0.959 . S
H1763 C1778 0.959 . S
H1764 C1778 0.961 . S
H1765 C1779 0.960 . S
H1766 C1779 0.961 . S
H1767 C1779 0.959 . S
H1768 C1782 0.929 . S
H1769 C1783 0.931 . S
H1770 C1785 0.930 . S
C1771 H1759 0.930 . S
C1771 C1772 1.399 . S
C1771 C1776 1.399 . S
C1772 C1771 1.399 . S
C1772 C1773 1.376 . S
C1773 H1760 0.930 . S
C1773 C1772 1.376 . S
C1773 C1774 1.388 . S
C1774 H1761 0.930 . S
C1774 C1773 1.388 . S
C1774 C1775 1.390 . S
C1775 C1774 1.390 . S
C1775 C1776 1.394 . S
C1775 C1781 1.465 . S
C1776 C1771 1.399 . S
C1776 C1775 1.394 . S
C1776 C1777 1.516 . S
C1777 C1776 1.516 . S
C1777 C1778 1.502 . S
C1777 C1779 1.561 . S
C1777 C1780 1.526 . S
C1778 H1762 0.959 . S
C1778 H1763 0.959 . S
C1778 H1764 0.961 . S
C1778 C1777 1.502 . S
C1779 H1765 0.960 . S
C1779 H1766 0.961 . S
C1779 H1767 0.959 . S
C1779 C1777 1.561 . S
C1780 C1777 1.526 . S
C1780 C1781 1.396 . S
C1780 C1785 1.390 . S
C1781 C1775 1.465 . S
C1781 C1780 1.396 . S
C1781 C1782 1.399 . S
C1782 H1768 0.929 . S
C1782 C1781 1.399 . S
C1782 C1783 1.385 . S
C1783 H1769 0.931 . S
C1783 C1782 1.385 . S
C1783 C1784 1.389 . S
C1784 C1783 1.389 . S
C1784 C1785 1.387 . S
C1785 H1770 0.930 . S
C1785 C1780 1.390 . S
C1785 C1784 1.387 . S
H1786 C1798 0.930 . S
H1787 C1800 0.930 1_556 S
H1788 C1801 0.897 1_556 S
H1789 C1805 0.959 . S
H1790 C1805 0.959 . S
H1791 C1805 0.961 . S
H1792 C1806 0.960 . S
H1793 C1806 0.961 . S
H1794 C1806 0.959 . S
H1795 C1809 0.935 1_565 S
H1796 C1810 0.931 . S
H1797 C1812 0.930 . S
C1798 H1786 0.930 . S
C1798 C1799 1.399 . S
C1798 C1803 1.399 . S
C1799 C1798 1.399 . S
C1799 C1800 1.376 . S
C1800 H1787 0.930 1_554 S
C1800 C1799 1.376 . S
C1800 C1801 1.388 . S
C1801 H1788 0.897 1_554 S
C1801 C1800 1.388 . S
C1801 C1802 1.390 . S
C1802 C1801 1.390 . S
C1802 C1803 1.394 . S
C1802 C1808 1.465 . S
C1803 C1798 1.399 . S
C1803 C1802 1.394 . S
C1803 C1804 1.516 . S
C1804 C1803 1.516 . S
C1804 C1805 1.502 . S
C1804 C1806 1.561 . S
C1804 C1807 1.526 . S
C1805 H1789 0.959 . S
C1805 H1790 0.959 . S
C1805 H1791 0.961 . S
C1805 C1804 1.502 . S
C1806 H1792 0.960 . S
C1806 H1793 0.961 . S
C1806 H1794 0.959 . S
C1806 C1804 1.561 . S
C1807 C1804 1.526 . S
C1807 C1808 1.396 . S
C1807 C1812 1.390 1_565 S
C1808 C1802 1.465 . S
C1808 C1807 1.396 . S
C1808 C1809 1.357 1_565 S
C1809 H1795 0.935 1_545 S
C1809 C1808 1.357 1_545 S
C1809 C1810 1.425 . S
C1810 H1796 0.931 . S
C1810 C1809 1.425 . S
C1810 C1811 1.389 . S
C1811 C1810 1.389 . S
C1811 C1812 1.387 . S
C1812 H1797 0.930 . S
C1812 C1807 1.390 1_545 S
C1812 C1811 1.387 . S
H1813 C1825 0.930 . S
H1814 C1827 0.930 . S
H1815 C1828 0.930 . S
H1816 C1832 0.959 . S
H1817 C1832 0.959 . S
H1818 C1832 0.961 . S
H1819 C1833 0.960 . S
H1820 C1833 0.961 . S
H1821 C1833 0.959 . S
H1822 C1836 0.929 . S
H1823 C1837 0.931 . S
H1824 C1839 0.930 . S
C1825 H1813 0.930 . S
C1825 C1826 1.399 . S
C1825 C1830 1.399 . S
C1826 C1825 1.399 . S
C1826 C1827 1.376 . S
C1827 H1814 0.930 . S
C1827 C1826 1.376 . S
C1827 C1828 1.388 . S
C1828 H1815 0.930 . S
C1828 C1827 1.388 . S
C1828 C1829 1.390 . S
C1829 C1828 1.390 . S
C1829 C1830 1.394 . S
C1829 C1835 1.465 . S
C1830 C1825 1.399 . S
C1830 C1829 1.394 . S
C1830 C1831 1.516 . S
C1831 C1830 1.516 . S
C1831 C1832 1.502 . S
C1831 C1833 1.561 . S
C1831 C1834 1.526 . S
C1832 H1816 0.959 . S
C1832 H1817 0.959 . S
C1832 H1818 0.961 . S
C1832 C1831 1.502 . S
C1833 H1819 0.960 . S
C1833 H1820 0.961 . S
C1833 H1821 0.959 . S
C1833 C1831 1.561 . S
C1834 C1831 1.526 . S
C1834 C1835 1.396 . S
C1834 C1839 1.390 . S
C1835 C1829 1.465 . S
C1835 C1834 1.396 . S
C1835 C1836 1.399 . S
C1836 H1822 0.929 . S
C1836 C1835 1.399 . S
C1836 C1837 1.385 . S
C1837 H1823 0.931 . S
C1837 C1836 1.385 . S
C1837 C1838 1.389 . S
C1838 C1837 1.389 . S
C1838 C1839 1.387 . S
C1839 H1824 0.930 . S
C1839 C1834 1.390 . S
C1839 C1838 1.387 . S
H1840 C1852 0.930 . S
H1841 C1854 0.930 . S
H1842 C1855 0.930 . S
H1843 C1859 0.959 1_545 S
H1844 C1859 0.959 . S
H1845 C1859 0.961 . S
H1846 C1860 0.956 1_565 S
H1847 C1860 0.956 1_565 S
H1848 C1860 0.962 . S
H1849 C1863 0.929 . S
H1850 C1864 0.931 1_554 S
H1851 C1866 0.930 . S
C1852 H1840 0.930 . S
C1852 C1853 1.399 . S
C1852 C1857 1.399 . S
C1853 C1852 1.399 . S
C1853 C1854 1.376 . S
C1854 H1841 0.930 . S
C1854 C1853 1.376 . S
C1854 C1855 1.388 . S
C1855 H1842 0.930 . S
C1855 C1854 1.388 . S
C1855 C1856 1.390 . S
C1856 C1855 1.390 . S
C1856 C1857 1.394 . S
C1856 C1862 1.465 . S
C1857 C1852 1.399 . S
C1857 C1856 1.394 . S
C1857 C1858 1.516 . S
C1858 C1857 1.516 . S
C1858 C1859 1.502 1_545 S
C1858 C1860 1.567 . S
C1858 C1861 1.526 . S
C1859 H1843 0.959 1_565 S
C1859 H1844 0.959 . S
C1859 H1845 0.961 . S
C1859 C1858 1.502 1_565 S
C1860 H1846 0.956 1_545 S
C1860 H1847 0.956 1_545 S
C1860 H1848 0.962 . S
C1860 C1858 1.567 . S
C1861 C1858 1.526 . S
C1861 C1862 1.396 . S
C1861 C1866 1.390 . S
C1862 C1856 1.465 . S
C1862 C1861 1.396 . S
C1862 C1863 1.399 . S
C1863 H1849 0.929 . S
C1863 C1862 1.399 . S
C1863 C1864 1.385 . S
C1864 H1850 0.931 1_556 S
C1864 C1863 1.385 . S
C1864 C1865 1.389 . S
C1865 C1864 1.389 . S
C1865 C1866 1.387 . S
C1866 H1851 0.930 . S
C1866 C1861 1.390 . S
C1866 C1865 1.387 . S
H1867 C1879 0.930 . S
H1868 C1881 0.930 . S
H1869 C1882 0.930 . S
H1870 C1886 0.959 . S
H1871 C1886 0.959 . S
H1872 C1886 0.961 . S
H1873 C1887 0.960 . S
H1874 C1887 0.961 . S
H1875 C1887 0.959 . S
H1876 C1890 0.929 . S
H1877 C1891 0.931 . S
H1878 C1893 0.930 . S
C1879 H1867 0.930 . S
C1879 C1880 1.399 . S
C1879 C1884 1.399 . S
C1880 C1879 1.399 . S
C1880 C1881 1.376 . S
C1881 H1868 0.930 . S
C1881 C1880 1.376 . S
C1881 C1882 1.388 . S
C1882 H1869 0.930 . S
C1882 C1881 1.388 . S
C1882 C1883 1.390 . S
C1883 C1882 1.390 . S
C1883 C1884 1.394 . S
C1883 C1889 1.465 . S
C1884 C1879 1.399 . S
C1884 C1883 1.394 . S
C1884 C1885 1.516 . S
C1885 C1884 1.516 . S
C1885 C1886 1.502 . S
C1885 C1887 1.561 . S
C1885 C1888 1.526 . S
C1886 H1870 0.959 . S
C1886 H1871 0.959 . S
C1886 H1872 0.961 . S
C1886 C1885 1.502 . S
C1887 H1873 0.960 . S
C1887 H1874 0.961 . S
C1887 H1875 0.959 . S
C1887 C1885 1.561 . S
C1888 C1885 1.526 . S
C1888 C1889 1.396 . S
C1888 C1893 1.390 . S
C1889 C1883 1.465 . S
C1889 C1888 1.396 . S
C1889 C1890 1.399 . S
C1890 H1876 0.929 . S
C1890 C1889 1.399 . S
C1890 C1891 1.385 . S
C1891 H1877 0.931 . S
C1891 C1890 1.385 . S
C1891 C1892 1.389 . S
C1892 C1891 1.389 . S
C1892 C1893 1.387 . S
C1893 H1878 0.930 . S
C1893 C1888 1.390 . S
C1893 C1892 1.387 . S
H1894 C1906 0.930 . S
H1895 C1908 0.930 . S
H1896 C1909 0.930 . S
H1897 C1913 0.959 . S
H1898 C1913 0.959 . S
H1899 C1913 0.961 . S
H1900 C1914 0.960 . S
H1901 C1914 0.961 . S
H1902 C1914 0.959 . S
H1903 C1917 0.929 . S
H1904 C1918 0.931 . S
H1905 C1920 0.930 . S
C1906 H1894 0.930 . S
C1906 C1907 1.399 . S
C1906 C1911 1.399 . S
C1907 C1906 1.399 . S
C1907 C1908 1.376 . S
C1908 H1895 0.930 . S
C1908 C1907 1.376 . S
C1908 C1909 1.388 . S
C1909 H1896 0.930 . S
C1909 C1908 1.388 . S
C1909 C1910 1.390 . S
C1910 C1909 1.390 . S
C1910 C1911 1.394 . S
C1910 C1916 1.465 . S
C1911 C1906 1.399 . S
C1911 C1910 1.394 . S
C1911 C1912 1.516 . S
C1912 C1911 1.516 . S
C1912 C1913 1.502 . S
C1912 C1914 1.561 . S
C1912 C1915 1.526 . S
C1913 H1897 0.959 . S
C1913 H1898 0.959 . S
C1913 H1899 0.961 . S
C1913 C1912 1.502 . S
C1914 H1900 0.960 . S
C1914 H1901 0.961 . S
C1914 H1902 0.959 . S
C1914 C1912 1.561 . S
C1915 C1912 1.526 . S
C1915 C1916 1.396 . S
C1915 C1920 1.390 . S
C1916 C1910 1.465 . S
C1916 C1915 1.396 . S
C1916 C1917 1.399 . S
C1917 H1903 0.929 . S
C1917 C1916 1.399 . S
C1917 C1918 1.385 . S
C1918 H1904 0.931 . S
C1918 C1917 1.385 . S
C1918 C1919 1.389 . S
C1919 C1918 1.389 . S
C1919 C1920 1.387 . S
C1920 H1905 0.930 . S
C1920 C1915 1.390 . S
C1920 C1919 1.387 . S
H1921 C1933 0.930 . S
H1922 C1935 0.930 . S
H1923 C1936 0.930 . S
H1924 C1940 0.959 . S
H1925 C1940 0.959 . S
H1926 C1940 0.961 . S
H1927 C1941 0.960 . S
H1928 C1941 0.961 . S
H1929 C1941 0.959 . S
H1930 C1944 0.929 . S
H1931 C1945 0.931 . S
H1932 C1947 0.930 . S
C1933 H1921 0.930 . S
C1933 C1934 1.399 . S
C1933 C1938 1.399 . S
C1934 C1933 1.399 . S
C1934 C1935 1.376 . S
C1935 H1922 0.930 . S
C1935 C1934 1.376 . S
C1935 C1936 1.388 . S
C1936 H1923 0.930 . S
C1936 C1935 1.388 . S
C1936 C1937 1.390 . S
C1937 C1936 1.390 . S
C1937 C1938 1.394 . S
C1937 C1943 1.465 . S
C1938 C1933 1.399 . S
C1938 C1937 1.394 . S
C1938 C1939 1.516 . S
C1939 C1938 1.516 . S
C1939 C1940 1.502 . S
C1939 C1941 1.561 . S
C1939 C1942 1.526 . S
C1940 H1924 0.959 . S
C1940 H1925 0.959 . S
C1940 H1926 0.961 . S
C1940 C1939 1.502 . S
C1941 H1927 0.960 . S
C1941 H1928 0.961 . S
C1941 H1929 0.959 . S
C1941 C1939 1.561 . S
C1942 C1939 1.526 . S
C1942 C1943 1.396 . S
C1942 C1947 1.390 . S
C1943 C1937 1.465 . S
C1943 C1942 1.396 . S
C1943 C1944 1.399 . S
C1944 H1930 0.929 . S
C1944 C1943 1.399 . S
C1944 C1945 1.385 . S
C1945 H1931 0.931 . S
C1945 C1944 1.385 . S
C1945 C1946 1.389 . S
C1946 C1945 1.389 . S
C1946 C1947 1.387 . S
C1947 H1932 0.930 . S
C1947 C1942 1.390 . S
C1947 C1946 1.387 . S
H1948 C1960 0.930 . S
H1949 C1962 0.930 . S
H1950 C1963 0.930 . S
H1951 C1967 0.959 . S
H1952 C1967 0.959 . S
H1953 C1967 0.961 . S
H1954 C1968 0.960 . S
H1955 C1968 0.961 . S
H1956 C1968 0.959 . S
H1957 C1971 0.929 . S
H1958 C1972 0.931 . S
H1959 C1974 0.930 . S
C1960 H1948 0.930 . S
C1960 C1961 1.399 . S
C1960 C1965 1.399 . S
C1961 C1960 1.399 . S
C1961 C1962 1.376 . S
C1962 H1949 0.930 . S
C1962 C1961 1.376 . S
C1962 C1963 1.388 . S
C1963 H1950 0.930 . S
C1963 C1962 1.388 . S
C1963 C1964 1.390 . S
C1964 C1963 1.390 . S
C1964 C1965 1.394 . S
C1964 C1970 1.465 . S
C1965 C1960 1.399 . S
C1965 C1964 1.394 . S
C1965 C1966 1.516 . S
C1966 C1965 1.516 . S
C1966 C1967 1.502 . S
C1966 C1968 1.561 1_545 S
C1966 C1969 1.526 . S
C1967 H1951 0.959 . S
C1967 H1952 0.959 . S
C1967 H1953 0.961 . S
C1967 C1966 1.502 . S
C1968 H1954 0.960 . S
C1968 H1955 0.961 . S
C1968 H1956 0.959 . S
C1968 C1966 1.561 1_565 S
C1969 C1966 1.526 . S
C1969 C1970 1.396 . S
C1969 C1974 1.390 . S
C1970 C1964 1.465 . S
C1970 C1969 1.396 . S
C1970 C1971 1.399 . S
C1971 H1957 0.929 . S
C1971 C1970 1.399 . S
C1971 C1972 1.385 . S
C1972 H1958 0.931 . S
C1972 C1971 1.385 . S
C1972 C1973 1.389 . S
C1973 C1972 1.389 . S
C1973 C1974 1.387 . S
C1974 H1959 0.930 . S
C1974 C1969 1.390 . S
C1974 C1973 1.387 . S
H1975 C1987 0.930 . S
H1976 C1989 0.930 . S
H1977 C1990 0.930 . S
H1978 C1994 0.959 . S
H1979 C1994 0.959 . S
H1980 C1994 0.961 . S
H1981 C1995 0.960 . S
H1982 C1995 0.961 . S
H1983 C1995 0.959 . S
H1984 C1998 0.929 . S
H1985 C1999 0.931 . S
H1986 C2001 0.930 . S
C1987 H1975 0.930 . S
C1987 C1988 1.399 . S
C1987 C1992 1.399 . S
C1988 C1987 1.399 . S
C1988 C1989 1.376 . S
C1989 H1976 0.930 . S
C1989 C1988 1.376 . S
C1989 C1990 1.388 . S
C1990 H1977 0.930 . S
C1990 C1989 1.388 . S
C1990 C1991 1.390 . S
C1991 C1990 1.390 . S
C1991 C1992 1.394 . S
C1991 C1997 1.465 . S
C1992 C1987 1.399 . S
C1992 C1991 1.394 . S
C1992 C1993 1.516 . S
C1993 C1992 1.516 . S
C1993 C1994 1.502 . S
C1993 C1995 1.561 . S
C1993 C1996 1.526 . S
C1994 H1978 0.959 . S
C1994 H1979 0.959 . S
C1994 H1980 0.961 . S
C1994 C1993 1.502 . S
C1995 H1981 0.960 . S
C1995 H1982 0.961 . S
C1995 H1983 0.959 . S
C1995 C1993 1.561 . S
C1996 C1993 1.526 . S
C1996 C1997 1.396 . S
C1996 C2001 1.390 . S
C1997 C1991 1.465 . S
C1997 C1996 1.396 . S
C1997 C1998 1.399 . S
C1998 H1984 0.929 . S
C1998 C1997 1.399 . S
C1998 C1999 1.385 . S
C1999 H1985 0.931 . S
C1999 C1998 1.385 . S
C1999 C2000 1.389 . S
C2000 C1999 1.389 . S
C2000 C2001 1.387 . S
C2001 H1986 0.930 . S
C2001 C1996 1.390 . S
C2001 C2000 1.387 . S
H2002 C2014 0.930 . S
H2003 C2016 0.930 . S
H2004 C2017 0.930 . S
H2005 C2021 0.959 . S
H2006 C2021 0.959 . S
H2007 C2021 0.961 . S
H2008 C2022 0.960 . S
H2009 C2022 0.961 . S
H2010 C2022 0.959 . S
H2011 C2025 0.929 . S
H2012 C2026 0.931 . S
H2013 C2028 0.930 . S
C2014 H2002 0.930 . S
C2014 C2015 1.399 . S
C2014 C2019 1.399 . S
C2015 C2014 1.399 . S
C2015 C2016 1.376 . S
C2016 H2003 0.930 . S
C2016 C2015 1.376 . S
C2016 C2017 1.388 . S
C2017 H2004 0.930 . S
C2017 C2016 1.388 . S
C2017 C2018 1.390 . S
C2018 C2017 1.390 . S
C2018 C2019 1.394 . S
C2018 C2024 1.465 . S
C2019 C2014 1.399 . S
C2019 C2018 1.394 . S
C2019 C2020 1.516 . S
C2020 C2019 1.516 . S
C2020 C2021 1.502 . S
C2020 C2022 1.561 . S
C2020 C2023 1.526 . S
C2021 H2005 0.959 . S
C2021 H2006 0.959 . S
C2021 H2007 0.961 . S
C2021 C2020 1.502 . S
C2022 H2008 0.960 . S
C2022 H2009 0.961 . S
C2022 H2010 0.959 . S
C2022 C2020 1.561 . S
C2023 C2020 1.526 . S
C2023 C2024 1.396 . S
C2023 C2028 1.390 . S
C2024 C2018 1.465 . S
C2024 C2023 1.396 . S
C2024 C2025 1.399 . S
C2025 H2011 0.929 . S
C2025 C2024 1.399 . S
C2025 C2026 1.385 . S
C2026 H2012 0.931 . S
C2026 C2025 1.385 . S
C2026 C2027 1.389 . S
C2027 C2026 1.389 . S
C2027 C2028 1.387 . S
C2028 H2013 0.930 . S
C2028 C2023 1.390 . S
C2028 C2027 1.387 . S
H2029 C2041 0.930 . S
H2030 C2043 0.930 . S
H2031 C2044 0.930 . S
H2032 C2048 0.959 . S
H2033 C2048 0.959 . S
H2034 C2048 0.961 . S
H2035 C2049 0.960 . S
H2036 C2049 0.961 . S
H2037 C2049 0.959 . S
H2038 C2052 0.929 . S
H2039 C2053 0.931 . S
H2040 C2055 0.930 . S
C2041 H2029 0.930 . S
C2041 C2042 1.399 . S
C2041 C2046 1.399 . S
C2042 C2041 1.399 . S
C2042 C2043 1.376 . S
C2043 H2030 0.930 . S
C2043 C2042 1.376 . S
C2043 C2044 1.388 . S
C2044 H2031 0.930 . S
C2044 C2043 1.388 . S
C2044 C2045 1.390 . S
C2045 C2044 1.390 . S
C2045 C2046 1.394 . S
C2045 C2051 1.465 . S
C2046 C2041 1.399 . S
C2046 C2045 1.394 . S
C2046 C2047 1.516 . S
C2047 C2046 1.516 . S
C2047 C2048 1.502 . S
C2047 C2049 1.561 . S
C2047 C2050 1.526 . S
C2048 H2032 0.959 . S
C2048 H2033 0.959 . S
C2048 H2034 0.961 . S
C2048 C2047 1.502 . S
C2049 H2035 0.960 . S
C2049 H2036 0.961 . S
C2049 H2037 0.959 . S
C2049 C2047 1.561 . S
C2050 C2047 1.526 . S
C2050 C2051 1.396 . S
C2050 C2055 1.390 . S
C2051 C2045 1.465 . S
C2051 C2050 1.396 . S
C2051 C2052 1.399 . S
C2052 H2038 0.929 . S
C2052 C2051 1.399 . S
C2052 C2053 1.385 . S
C2053 H2039 0.931 . S
C2053 C2052 1.385 . S
C2053 C2054 1.389 . S
C2054 C2053 1.389 . S
C2054 C2055 1.387 . S
C2055 H2040 0.930 . S
C2055 C2050 1.390 . S
C2055 C2054 1.387 . S
H2056 C2068 0.930 . S
H2057 C2070 0.930 . S
H2058 C2071 0.930 . S
H2059 C2075 0.959 . S
H2060 C2075 0.959 . S
H2061 C2075 0.961 . S
H2062 C2076 0.960 . S
H2063 C2076 0.961 . S
H2064 C2076 0.959 . S
H2065 C2079 0.930 1_556 S
H2066 C2080 0.931 . S
H2067 C2082 0.930 . S
C2068 H2056 0.930 . S
C2068 C2069 1.399 . S
C2068 C2073 1.399 . S
C2069 C2068 1.399 . S
C2069 C2070 1.376 . S
C2070 H2057 0.930 . S
C2070 C2069 1.376 . S
C2070 C2071 1.388 . S
C2071 H2058 0.930 . S
C2071 C2070 1.388 . S
C2071 C2072 1.390 . S
C2072 C2071 1.390 . S
C2072 C2073 1.394 . S
C2072 C2078 1.465 . S
C2073 C2068 1.399 . S
C2073 C2072 1.394 . S
C2073 C2074 1.516 . S
C2074 C2073 1.516 . S
C2074 C2075 1.502 . S
C2074 C2076 1.561 . S
C2074 C2077 1.526 . S
C2075 H2059 0.959 . S
C2075 H2060 0.959 . S
C2075 H2061 0.961 . S
C2075 C2074 1.502 . S
C2076 H2062 0.960 . S
C2076 H2063 0.961 . S
C2076 H2064 0.959 . S
C2076 C2074 1.561 . S
C2077 C2074 1.526 . S
C2077 C2078 1.396 . S
C2077 C2082 1.390 . S
C2078 C2072 1.465 . S
C2078 C2077 1.396 . S
C2078 C2079 1.399 . S
C2079 H2065 0.930 1_554 S
C2079 C2078 1.399 . S
C2079 C2080 1.385 . S
C2080 H2066 0.931 . S
C2080 C2079 1.385 . S
C2080 C2081 1.389 . S
C2081 C2080 1.389 . S
C2081 C2082 1.387 . S
C2082 H2067 0.930 . S
C2082 C2077 1.390 . S
C2082 C2081 1.387 . S
H2083 C2095 0.930 . S
H2084 C2097 0.930 . S
H2085 C2098 0.930 . S
H2086 C2102 0.959 . S
H2087 C2102 0.959 . S
H2088 C2102 0.961 . S
H2089 C2103 0.960 . S
H2090 C2103 0.961 . S
H2091 C2103 0.959 . S
H2092 C2106 0.929 . S
H2093 C2107 0.931 . S
H2094 C2109 0.930 . S
C2095 H2083 0.930 . S
C2095 C2096 1.399 . S
C2095 C2100 1.399 . S
C2096 C2095 1.399 . S
C2096 C2097 1.376 . S
C2097 H2084 0.930 . S
C2097 C2096 1.376 . S
C2097 C2098 1.388 . S
C2098 H2085 0.930 . S
C2098 C2097 1.388 . S
C2098 C2099 1.390 . S
C2099 C2098 1.390 . S
C2099 C2100 1.394 . S
C2099 C2105 1.465 . S
C2100 C2095 1.399 . S
C2100 C2099 1.394 . S
C2100 C2101 1.516 . S
C2101 C2100 1.516 . S
C2101 C2102 1.502 . S
C2101 C2103 1.561 . S
C2101 C2104 1.526 . S
C2102 H2086 0.959 . S
C2102 H2087 0.959 . S
C2102 H2088 0.961 . S
C2102 C2101 1.502 . S
C2103 H2089 0.960 . S
C2103 H2090 0.961 . S
C2103 H2091 0.959 . S
C2103 C2101 1.561 . S
C2104 C2101 1.526 . S
C2104 C2105 1.396 . S
C2104 C2109 1.390 . S
C2105 C2099 1.465 . S
C2105 C2104 1.396 . S
C2105 C2106 1.399 . S
C2106 H2092 0.929 . S
C2106 C2105 1.399 . S
C2106 C2107 1.385 . S
C2107 H2093 0.931 . S
C2107 C2106 1.385 . S
C2107 C2108 1.389 . S
C2108 C2107 1.389 . S
C2108 C2109 1.387 . S
C2109 H2094 0.930 . S
C2109 C2104 1.390 . S
C2109 C2108 1.387 . S
H2110 C2122 0.930 . S
H2111 C2124 0.930 . S
H2112 C2125 0.930 . S
H2113 C2129 0.959 . S
H2114 C2129 0.959 . S
H2115 C2129 0.961 . S
H2116 C2130 0.960 . S
H2117 C2130 0.961 . S
H2118 C2130 0.959 . S
H2119 C2133 0.929 . S
H2120 C2134 0.931 . S
H2121 C2136 0.930 . S
C2122 H2110 0.930 . S
C2122 C2123 1.399 . S
C2122 C2127 1.399 . S
C2123 C2122 1.399 . S
C2123 C2124 1.376 . S
C2124 H2111 0.930 . S
C2124 C2123 1.376 . S
C2124 C2125 1.388 . S
C2125 H2112 0.930 . S
C2125 C2124 1.388 . S
C2125 C2126 1.390 . S
C2126 C2125 1.390 . S
C2126 C2127 1.394 . S
C2126 C2132 1.465 . S
C2127 C2122 1.399 . S
C2127 C2126 1.394 . S
C2127 C2128 1.516 . S
C2128 C2127 1.516 . S
C2128 C2129 1.502 . S
C2128 C2130 1.561 . S
C2128 C2131 1.526 . S
C2129 H2113 0.959 . S
C2129 H2114 0.959 . S
C2129 H2115 0.961 . S
C2129 C2128 1.502 . S
C2130 H2116 0.960 . S
C2130 H2117 0.961 . S
C2130 H2118 0.959 . S
C2130 C2128 1.561 . S
C2131 C2128 1.526 . S
C2131 C2132 1.396 . S
C2131 C2136 1.390 . S
C2132 C2126 1.465 . S
C2132 C2131 1.396 . S
C2132 C2133 1.399 . S
C2133 H2119 0.929 . S
C2133 C2132 1.399 . S
C2133 C2134 1.385 . S
C2134 H2120 0.931 . S
C2134 C2133 1.385 . S
C2134 C2135 1.389 . S
C2135 C2134 1.389 . S
C2135 C2136 1.387 . S
C2136 H2121 0.930 . S
C2136 C2131 1.390 . S
C2136 C2135 1.387 . S
H2137 C2149 0.930 . S
H2138 C2151 0.930 . S
H2139 C2152 0.930 . S
H2140 C2156 0.959 . S
H2141 C2156 0.959 . S
H2142 C2156 0.961 . S
H2143 C2157 0.960 . S
H2144 C2157 0.961 . S
H2145 C2157 0.959 . S
H2146 C2160 0.929 . S
H2147 C2161 0.931 . S
H2148 C2163 0.930 . S
C2149 H2137 0.930 . S
C2149 C2150 1.399 . S
C2149 C2154 1.399 . S
C2150 C2149 1.399 . S
C2150 C2151 1.376 . S
C2151 H2138 0.930 . S
C2151 C2150 1.376 . S
C2151 C2152 1.388 . S
C2152 H2139 0.930 . S
C2152 C2151 1.388 . S
C2152 C2153 1.390 . S
C2153 C2152 1.390 . S
C2153 C2154 1.394 . S
C2153 C2159 1.465 . S
C2154 C2149 1.399 . S
C2154 C2153 1.394 . S
C2154 C2155 1.516 . S
C2155 C2154 1.516 . S
C2155 C2156 1.502 . S
C2155 C2157 1.561 . S
C2155 C2158 1.526 . S
C2156 H2140 0.959 . S
C2156 H2141 0.959 . S
C2156 H2142 0.961 . S
C2156 C2155 1.502 . S
C2157 H2143 0.960 . S
C2157 H2144 0.961 . S
C2157 H2145 0.959 . S
C2157 C2155 1.561 . S
C2158 C2155 1.526 . S
C2158 C2159 1.396 . S
C2158 C2163 1.390 . S
C2159 C2153 1.465 . S
C2159 C2158 1.396 . S
C2159 C2160 1.399 . S
C2160 H2146 0.929 . S
C2160 C2159 1.399 . S
C2160 C2161 1.385 . S
C2161 H2147 0.931 . S
C2161 C2160 1.385 . S
C2161 C2162 1.389 . S
C2162 C2161 1.389 . S
C2162 C2163 1.387 . S
C2163 H2148 0.930 . S
C2163 C2158 1.390 . S
C2163 C2162 1.387 . S
H2164 C2176 0.930 . S
H2165 C2178 0.930 . S
H2166 C2179 0.930 . S
H2167 C2183 0.959 . S
H2168 C2183 0.959 . S
H2169 C2183 0.961 . S
H2170 C2184 0.960 . S
H2171 C2184 0.961 . S
H2172 C2184 0.959 . S
H2173 C2187 0.929 . S
H2174 C2188 0.931 . S
H2175 C2190 0.930 . S
C2176 H2164 0.930 . S
C2176 C2177 1.399 . S
C2176 C2181 1.399 . S
C2177 C2176 1.399 . S
C2177 C2178 1.376 . S
C2178 H2165 0.930 . S
C2178 C2177 1.376 . S
C2178 C2179 1.388 . S
C2179 H2166 0.930 . S
C2179 C2178 1.388 . S
C2179 C2180 1.390 . S
C2180 C2179 1.390 . S
C2180 C2181 1.394 . S
C2180 C2186 1.465 . S
C2181 C2176 1.399 . S
C2181 C2180 1.394 . S
C2181 C2182 1.516 . S
C2182 C2181 1.516 . S
C2182 C2183 1.502 . S
C2182 C2184 1.561 . S
C2182 C2185 1.526 . S
C2183 H2167 0.959 . S
C2183 H2168 0.959 . S
C2183 H2169 0.961 . S
C2183 C2182 1.502 . S
C2184 H2170 0.960 . S
C2184 H2171 0.961 . S
C2184 H2172 0.959 . S
C2184 C2182 1.561 . S
C2185 C2182 1.526 . S
C2185 C2186 1.396 . S
C2185 C2190 1.390 . S
C2186 C2180 1.465 . S
C2186 C2185 1.396 . S
C2186 C2187 1.399 . S
C2187 H2173 0.929 . S
C2187 C2186 1.399 . S
C2187 C2188 1.385 . S
C2188 H2174 0.931 . S
C2188 C2187 1.385 . S
C2188 C2189 1.389 . S
C2189 C2188 1.389 . S
C2189 C2190 1.387 . S
C2190 H2175 0.930 . S
C2190 C2185 1.390 . S
C2190 C2189 1.387 . S
H2191 C2203 0.930 . S
H2192 C2205 0.930 1_565 S
H2193 C2206 0.930 1_565 S
H2194 C2210 0.959 . S
H2195 C2210 0.959 . S
H2196 C2210 0.961 . S
H2197 C2211 0.960 . S
H2198 C2211 0.961 . S
H2199 C2211 0.959 . S
H2200 C2214 0.929 1_565 S
H2201 C2215 0.931 1_565 S
H2202 C2217 0.930 . S
C2203 H2191 0.930 . S
C2203 C2204 1.399 . S
C2203 C2208 1.399 . S
C2204 C2203 1.399 . S
C2204 C2205 1.376 . S
C2205 H2192 0.930 1_545 S
C2205 C2204 1.376 . S
C2205 C2206 1.388 . S
C2206 H2193 0.930 1_545 S
C2206 C2205 1.388 . S
C2206 C2207 1.390 . S
C2207 C2206 1.390 . S
C2207 C2208 1.394 . S
C2207 C2213 1.465 . S
C2208 C2203 1.399 . S
C2208 C2207 1.394 . S
C2208 C2209 1.516 . S
C2209 C2208 1.516 . S
C2209 C2210 1.502 . S
C2209 C2211 1.561 . S
C2209 C2212 1.526 . S
C2210 H2194 0.959 . S
C2210 H2195 0.959 . S
C2210 H2196 0.961 . S
C2210 C2209 1.502 . S
C2211 H2197 0.960 . S
C2211 H2198 0.961 . S
C2211 H2199 0.959 . S
C2211 C2209 1.561 . S
C2212 C2209 1.526 . S
C2212 C2213 1.396 . S
C2212 C2217 1.390 . S
C2213 C2207 1.465 . S
C2213 C2212 1.396 . S
C2213 C2214 1.399 . S
C2214 H2200 0.929 1_545 S
C2214 C2213 1.399 . S
C2214 C2215 1.385 . S
C2215 H2201 0.931 1_545 S
C2215 C2214 1.385 . S
C2215 C2216 1.389 . S
C2216 C2215 1.389 . S
C2216 C2217 1.387 . S
C2217 H2202 0.930 . S
C2217 C2212 1.390 . S
C2217 C2216 1.387 . S
H2218 C2230 0.930 . S
H2219 C2232 0.930 . S
H2220 C2233 0.930 . S
H2221 C2237 0.959 . S
H2222 C2237 0.959 . S
H2223 C2237 0.961 . S
H2224 C2238 0.960 . S
H2225 C2238 0.961 . S
H2226 C2238 0.959 . S
H2227 C2241 0.929 . S
H2228 C2242 0.931 . S
H2229 C2244 0.930 . S
C2230 H2218 0.930 . S
C2230 C2231 1.399 . S
C2230 C2235 1.399 . S
C2231 C2230 1.399 . S
C2231 C2232 1.376 . S
C2232 H2219 0.930 . S
C2232 C2231 1.376 . S
C2232 C2233 1.388 . S
C2233 H2220 0.930 . S
C2233 C2232 1.388 . S
C2233 C2234 1.390 . S
C2234 C2233 1.390 . S
C2234 C2235 1.394 . S
C2234 C2240 1.465 . S
C2235 C2230 1.399 . S
C2235 C2234 1.394 . S
C2235 C2236 1.516 . S
C2236 C2235 1.516 . S
C2236 C2237 1.502 . S
C2236 C2238 1.561 . S
C2236 C2239 1.526 . S
C2237 H2221 0.959 . S
C2237 H2222 0.959 . S
C2237 H2223 0.961 . S
C2237 C2236 1.502 . S
C2238 H2224 0.960 . S
C2238 H2225 0.961 . S
C2238 H2226 0.959 . S
C2238 C2236 1.561 . S
C2239 C2236 1.526 . S
C2239 C2240 1.396 . S
C2239 C2244 1.390 . S
C2240 C2234 1.465 . S
C2240 C2239 1.396 . S
C2240 C2241 1.399 . S
C2241 H2227 0.929 . S
C2241 C2240 1.399 . S
C2241 C2242 1.385 . S
C2242 H2228 0.931 . S
C2242 C2241 1.385 . S
C2242 C2243 1.389 . S
C2243 C2242 1.389 . S
C2243 C2244 1.387 . S
C2244 H2229 0.930 . S
C2244 C2239 1.390 . S
C2244 C2243 1.387 . S
H2245 C2257 0.930 . S
H2246 C2259 0.930 . S
H2247 C2260 0.930 . S
H2248 C2264 0.959 . S
H2249 C2264 0.959 . S
H2250 C2264 0.961 . S
H2251 C2265 0.960 . S
H2252 C2265 0.961 . S
H2253 C2265 0.959 . S
H2254 C2268 0.929 . S
H2255 C2269 0.931 . S
H2256 C2271 0.930 . S
C2257 H2245 0.930 . S
C2257 C2258 1.399 . S
C2257 C2262 1.399 . S
C2258 C2257 1.399 . S
C2258 C2259 1.376 . S
C2259 H2246 0.930 . S
C2259 C2258 1.376 . S
C2259 C2260 1.388 . S
C2260 H2247 0.930 . S
C2260 C2259 1.388 . S
C2260 C2261 1.390 . S
C2261 C2260 1.390 . S
C2261 C2262 1.394 . S
C2261 C2267 1.465 . S
C2262 C2257 1.399 . S
C2262 C2261 1.394 . S
C2262 C2263 1.516 . S
C2263 C2262 1.516 . S
C2263 C2264 1.502 . S
C2263 C2265 1.561 . S
C2263 C2266 1.526 . S
C2264 H2248 0.959 . S
C2264 H2249 0.959 . S
C2264 H2250 0.961 . S
C2264 C2263 1.502 . S
C2265 H2251 0.960 . S
C2265 H2252 0.961 . S
C2265 H2253 0.959 . S
C2265 C2263 1.561 . S
C2266 C2263 1.526 . S
C2266 C2267 1.396 . S
C2266 C2271 1.390 . S
C2267 C2261 1.465 . S
C2267 C2266 1.396 . S
C2267 C2268 1.399 . S
C2268 H2254 0.929 . S
C2268 C2267 1.399 . S
C2268 C2269 1.385 . S
C2269 H2255 0.931 . S
C2269 C2268 1.385 . S
C2269 C2270 1.389 . S
C2270 C2269 1.389 . S
C2270 C2271 1.387 . S
C2271 H2256 0.930 . S
C2271 C2266 1.390 . S
C2271 C2270 1.387 . S
H2272 C2284 0.930 . S
H2273 C2286 0.930 . S
H2274 C2287 0.930 . S
H2275 C2291 0.959 . S
H2276 C2291 0.959 . S
H2277 C2291 0.961 . S
H2278 C2292 0.960 . S
H2279 C2292 0.961 . S
H2280 C2292 0.959 . S
H2281 C2295 0.929 . S
H2282 C2296 0.931 . S
H2283 C2298 0.930 . S
C2284 H2272 0.930 . S
C2284 C2285 1.399 . S
C2284 C2289 1.399 . S
C2285 C2284 1.399 . S
C2285 C2286 1.376 . S
C2286 H2273 0.930 . S
C2286 C2285 1.376 . S
C2286 C2287 1.388 . S
C2287 H2274 0.930 . S
C2287 C2286 1.388 . S
C2287 C2288 1.390 . S
C2288 C2287 1.390 . S
C2288 C2289 1.394 . S
C2288 C2294 1.465 . S
C2289 C2284 1.399 . S
C2289 C2288 1.394 . S
C2289 C2290 1.516 . S
C2290 C2289 1.516 . S
C2290 C2291 1.502 . S
C2290 C2292 1.561 . S
C2290 C2293 1.526 . S
C2291 H2275 0.959 . S
C2291 H2276 0.959 . S
C2291 H2277 0.961 . S
C2291 C2290 1.502 . S
C2292 H2278 0.960 . S
C2292 H2279 0.961 . S
C2292 H2280 0.959 . S
C2292 C2290 1.561 . S
C2293 C2290 1.526 . S
C2293 C2294 1.396 . S
C2293 C2298 1.390 . S
C2294 C2288 1.465 . S
C2294 C2293 1.396 . S
C2294 C2295 1.399 . S
C2295 H2281 0.929 . S
C2295 C2294 1.399 . S
C2295 C2296 1.385 . S
C2296 H2282 0.931 . S
C2296 C2295 1.385 . S
C2296 C2297 1.389 . S
C2297 C2296 1.389 . S
C2297 C2298 1.387 . S
C2298 H2283 0.930 . S
C2298 C2293 1.390 . S
C2298 C2297 1.387 . S
H2299 C2311 0.930 . S
H2300 C2313 0.930 . S
H2301 C2314 0.930 . S
H2302 C2318 0.959 . S
H2303 C2318 0.959 . S
H2304 C2318 0.961 . S
H2305 C2319 0.960 . S
H2306 C2319 0.961 . S
H2307 C2319 0.959 . S
H2308 C2322 0.929 . S
H2309 C2323 0.931 . S
H2310 C2325 0.930 . S
C2311 H2299 0.930 . S
C2311 C2312 1.399 . S
C2311 C2316 1.399 . S
C2312 C2311 1.399 . S
C2312 C2313 1.376 . S
C2313 H2300 0.930 . S
C2313 C2312 1.376 . S
C2313 C2314 1.388 . S
C2314 H2301 0.930 . S
C2314 C2313 1.388 . S
C2314 C2315 1.390 . S
C2315 C2314 1.390 . S
C2315 C2316 1.394 . S
C2315 C2321 1.465 . S
C2316 C2311 1.399 . S
C2316 C2315 1.394 . S
C2316 C2317 1.516 . S
C2317 C2316 1.516 . S
C2317 C2318 1.502 . S
C2317 C2319 1.561 . S
C2317 C2320 1.526 . S
C2318 H2302 0.959 . S
C2318 H2303 0.959 . S
C2318 H2304 0.961 . S
C2318 C2317 1.502 . S
C2319 H2305 0.960 . S
C2319 H2306 0.961 . S
C2319 H2307 0.959 . S
C2319 C2317 1.561 . S
C2320 C2317 1.526 . S
C2320 C2321 1.396 . S
C2320 C2325 1.390 . S
C2321 C2315 1.465 . S
C2321 C2320 1.396 . S
C2321 C2322 1.399 . S
C2322 H2308 0.929 . S
C2322 C2321 1.399 . S
C2322 C2323 1.385 . S
C2323 H2309 0.931 . S
C2323 C2322 1.385 . S
C2323 C2324 1.389 . S
C2324 C2323 1.389 . S
C2324 C2325 1.387 . S
C2325 H2310 0.930 . S
C2325 C2320 1.390 . S
C2325 C2324 1.387 . S
H2326 C2338 0.930 . S
H2327 C2340 0.930 . S
H2328 C2341 0.930 . S
H2329 C2345 0.959 1_556 S
H2330 C2345 0.959 . S
H2331 C2345 0.961 . S
H2332 C2346 0.960 . S
H2333 C2346 0.961 . S
H2334 C2346 0.959 . S
H2335 C2349 0.929 . S
H2336 C2350 0.931 . S
H2337 C2352 0.930 . S
C2338 H2326 0.930 . S
C2338 C2339 1.399 . S
C2338 C2343 1.399 . S
C2339 C2338 1.399 . S
C2339 C2340 1.376 . S
C2340 H2327 0.930 . S
C2340 C2339 1.376 . S
C2340 C2341 1.388 . S
C2341 H2328 0.930 . S
C2341 C2340 1.388 . S
C2341 C2342 1.390 . S
C2342 C2341 1.390 . S
C2342 C2343 1.394 . S
C2342 C2348 1.465 . S
C2343 C2338 1.399 . S
C2343 C2342 1.394 . S
C2343 C2344 1.516 1_556 S
C2344 C2343 1.516 1_554 S
C2344 C2345 1.502 . S
C2344 C2346 1.561 . S
C2344 C2347 1.526 . S
C2345 H2329 0.959 1_554 S
C2345 H2330 0.959 . S
C2345 H2331 0.961 . S
C2345 C2344 1.502 . S
C2346 H2332 0.960 . S
C2346 H2333 0.961 . S
C2346 H2334 0.959 . S
C2346 C2344 1.561 . S
C2347 C2344 1.526 . S
C2347 C2348 1.396 1_554 S
C2347 C2352 1.390 . S
C2348 C2342 1.465 . S
C2348 C2347 1.396 1_556 S
C2348 C2349 1.399 . S
C2349 H2335 0.929 . S
C2349 C2348 1.399 . S
C2349 C2350 1.385 1_556 S
C2350 H2336 0.931 . S
C2350 C2349 1.385 1_554 S
C2350 C2351 1.389 . S
C2351 C2350 1.389 . S
C2351 C2352 1.387 . S
C2352 H2337 0.930 . S
C2352 C2347 1.390 . S
C2352 C2351 1.387 . S
H2353 C2365 0.930 . S
H2354 C2367 0.930 . S
H2355 C2368 0.930 . S
H2356 C2372 0.959 . S
H2357 C2372 0.959 . S
H2358 C2372 0.961 . S
H2359 C2373 0.960 . S
H2360 C2373 0.961 . S
H2361 C2373 0.959 . S
H2362 C2376 0.929 . S
H2363 C2377 0.931 . S
H2364 C2379 0.930 . S
C2365 H2353 0.930 . S
C2365 C2366 1.399 . S
C2365 C2370 1.399 . S
C2366 C2365 1.399 . S
C2366 C2367 1.376 . S
C2367 H2354 0.930 . S
C2367 C2366 1.376 . S
C2367 C2368 1.388 . S
C2368 H2355 0.930 . S
C2368 C2367 1.388 . S
C2368 C2369 1.390 . S
C2369 C2368 1.390 . S
C2369 C2370 1.394 . S
C2369 C2375 1.465 . S
C2370 C2365 1.399 . S
C2370 C2369 1.394 . S
C2370 C2371 1.516 . S
C2371 C2370 1.516 . S
C2371 C2372 1.502 . S
C2371 C2373 1.561 . S
C2371 C2374 1.526 . S
C2372 H2356 0.959 . S
C2372 H2357 0.959 . S
C2372 H2358 0.961 . S
C2372 C2371 1.502 . S
C2373 H2359 0.960 . S
C2373 H2360 0.961 . S
C2373 H2361 0.959 . S
C2373 C2371 1.561 . S
C2374 C2371 1.526 . S
C2374 C2375 1.396 . S
C2374 C2379 1.390 . S
C2375 C2369 1.465 . S
C2375 C2374 1.396 . S
C2375 C2376 1.399 . S
C2376 H2362 0.929 . S
C2376 C2375 1.399 . S
C2376 C2377 1.385 . S
C2377 H2363 0.931 . S
C2377 C2376 1.385 . S
C2377 C2378 1.389 . S
C2378 C2377 1.389 . S
C2378 C2379 1.387 . S
C2379 H2364 0.930 . S
C2379 C2374 1.390 . S
C2379 C2378 1.387 . S
H2380 C2392 0.930 . S
H2381 C2394 0.930 . S
H2382 C2395 0.930 . S
H2383 C2399 0.959 . S
H2384 C2399 0.959 . S
H2385 C2399 0.961 . S
H2386 C2400 0.960 . S
H2387 C2400 0.961 . S
H2388 C2400 0.959 . S
H2389 C2403 0.929 . S
H2390 C2404 0.931 . S
H2391 C2406 0.930 . S
C2392 H2380 0.930 . S
C2392 C2393 1.399 . S
C2392 C2397 1.399 . S
C2393 C2392 1.399 . S
C2393 C2394 1.376 . S
C2394 H2381 0.930 . S
C2394 C2393 1.376 . S
C2394 C2395 1.388 . S
C2395 H2382 0.930 . S
C2395 C2394 1.388 . S
C2395 C2396 1.390 . S
C2396 C2395 1.390 . S
C2396 C2397 1.394 . S
C2396 C2402 1.465 . S
C2397 C2392 1.399 . S
C2397 C2396 1.394 . S
C2397 C2398 1.516 . S
C2398 C2397 1.516 . S
C2398 C2399 1.502 . S
C2398 C2400 1.561 . S
C2398 C2401 1.526 . S
C2399 H2383 0.959 . S
C2399 H2384 0.959 . S
C2399 H2385 0.961 . S
C2399 C2398 1.502 . S
C2400 H2386 0.960 . S
C2400 H2387 0.961 . S
C2400 H2388 0.959 . S
C2400 C2398 1.561 . S
C2401 C2398 1.526 . S
C2401 C2402 1.396 . S
C2401 C2406 1.390 . S
C2402 C2396 1.465 . S
C2402 C2401 1.396 . S
C2402 C2403 1.399 . S
C2403 H2389 0.929 . S
C2403 C2402 1.399 . S
C2403 C2404 1.385 . S
C2404 H2390 0.931 . S
C2404 C2403 1.385 . S
C2404 C2405 1.389 . S
C2405 C2404 1.389 . S
C2405 C2406 1.387 . S
C2406 H2391 0.930 . S
C2406 C2401 1.390 . S
C2406 C2405 1.387 . S
H2407 C2419 0.930 . S
H2408 C2421 0.930 . S
H2409 C2422 0.930 . S
H2410 C2426 0.959 1_455 S
H2411 C2426 0.959 . S
H2412 C2426 0.961 1_455 S
H2413 C2427 0.960 . S
H2414 C2427 0.961 . S
H2415 C2427 0.959 . S
H2416 C2430 0.929 . S
H2417 C2431 0.931 . S
H2418 C2433 0.930 . S
C2419 H2407 0.930 . S
C2419 C2420 1.399 . S
C2419 C2424 1.399 1_455 S
C2420 C2419 1.399 . S
C2420 C2421 1.376 . S
C2421 H2408 0.930 . S
C2421 C2420 1.376 . S
C2421 C2422 1.388 1_455 S
C2422 H2409 0.930 . S
C2422 C2421 1.388 1_655 S
C2422 C2423 1.390 . S
C2423 C2422 1.390 . S
C2423 C2424 1.394 . S
C2423 C2429 1.465 . S
C2424 C2419 1.399 1_655 S
C2424 C2423 1.394 . S
C2424 C2425 1.516 . S
C2425 C2424 1.516 . S
C2425 C2426 1.502 . S
C2425 C2427 1.561 . S
C2425 C2428 1.526 . S
C2426 H2410 0.959 1_655 S
C2426 H2411 0.959 . S
C2426 H2412 0.961 1_655 S
C2426 C2425 1.502 . S
C2427 H2413 0.960 . S
C2427 H2414 0.961 . S
C2427 H2415 0.959 . S
C2427 C2425 1.561 . S
C2428 C2425 1.526 . S
C2428 C2429 1.396 . S
C2428 C2433 1.390 . S
C2429 C2423 1.465 . S
C2429 C2428 1.396 . S
C2429 C2430 1.399 . S
C2430 H2416 0.929 . S
C2430 C2429 1.399 . S
C2430 C2431 1.385 . S
C2431 H2417 0.931 . S
C2431 C2430 1.385 . S
C2431 C2432 1.389 . S
C2432 C2431 1.389 . S
C2432 C2433 1.387 . S
C2433 H2418 0.930 . S
C2433 C2428 1.390 . S
C2433 C2432 1.387 . S
H2434 C2446 0.930 1_455 S
H2435 C2448 0.930 . S
H2436 C2449 0.930 . S
H2437 C2453 0.959 . S
H2438 C2453 0.959 . S
H2439 C2453 0.961 . S
H2440 C2454 0.937 1_655 S
H2441 C2454 0.990 . S
H2442 C2454 0.926 1_655 S
H2443 C2457 0.929 1_655 S
H2444 C2458 0.931 . S
H2445 C2460 0.930 . S
C2446 H2434 0.930 1_655 S
C2446 C2447 1.399 . S
C2446 C2451 1.399 1_655 S
C2447 C2446 1.399 . S
C2447 C2448 1.376 . S
C2448 H2435 0.930 . S
C2448 C2447 1.376 . S
C2448 C2449 1.388 . S
C2449 H2436 0.930 . S
C2449 C2448 1.388 . S
C2449 C2450 1.390 . S
C2450 C2449 1.390 . S
C2450 C2451 1.394 1_655 S
C2450 C2456 1.465 1_655 S
C2451 C2446 1.399 1_455 S
C2451 C2450 1.394 1_455 S
C2451 C2452 1.516 . S
C2452 C2451 1.516 . S
C2452 C2453 1.502 . S
C2452 C2454 1.592 . S
C2452 C2455 1.526 . S
C2453 H2437 0.959 . S
C2453 H2438 0.959 . S
C2453 H2439 0.961 . S
C2453 C2452 1.502 . S
C2454 H2440 0.937 1_455 S
C2454 H2441 0.990 . S
C2454 H2442 0.926 1_455 S
C2454 C2452 1.592 . S
C2455 C2452 1.526 . S
C2455 C2456 1.396 . S
C2455 C2460 1.390 . S
C2456 C2450 1.465 1_455 S
C2456 C2455 1.396 . S
C2456 C2457 1.399 . S
C2457 H2443 0.929 1_455 S
C2457 C2456 1.399 . S
C2457 C2458 1.385 . S
C2458 H2444 0.931 . S
C2458 C2457 1.385 . S
C2458 C2459 1.389 . S
C2459 C2458 1.389 . S
C2459 C2460 1.387 . S
C2460 H2445 0.930 . S
C2460 C2455 1.390 . S
C2460 C2459 1.387 . S
H2461 C2473 0.930 . S
H2462 C2475 0.930 . S
H2463 C2476 0.930 . S
H2464 C2480 0.959 . S
H2465 C2480 0.959 . S
H2466 C2480 0.961 . S
H2467 C2481 0.960 . S
H2468 C2481 0.961 . S
H2469 C2481 0.959 . S
H2470 C2484 0.929 . S
H2471 C2485 0.931 . S
H2472 C2487 0.930 . S
C2473 H2461 0.930 . S
C2473 C2474 1.399 . S
C2473 C2478 1.399 . S
C2474 C2473 1.399 . S
C2474 C2475 1.376 . S
C2475 H2462 0.930 . S
C2475 C2474 1.376 . S
C2475 C2476 1.388 . S
C2476 H2463 0.930 . S
C2476 C2475 1.388 . S
C2476 C2477 1.390 . S
C2477 C2476 1.390 . S
C2477 C2478 1.394 . S
C2477 C2483 1.465 . S
C2478 C2473 1.399 . S
C2478 C2477 1.394 . S
C2478 C2479 1.516 . S
C2479 C2478 1.516 . S
C2479 C2480 1.502 . S
C2479 C2481 1.561 . S
C2479 C2482 1.526 . S
C2480 H2464 0.959 . S
C2480 H2465 0.959 . S
C2480 H2466 0.961 . S
C2480 C2479 1.502 . S
C2481 H2467 0.960 . S
C2481 H2468 0.961 . S
C2481 H2469 0.959 . S
C2481 C2479 1.561 . S
C2482 C2479 1.526 . S
C2482 C2483 1.396 . S
C2482 C2487 1.390 . S
C2483 C2477 1.465 . S
C2483 C2482 1.396 . S
C2483 C2484 1.399 . S
C2484 H2470 0.929 . S
C2484 C2483 1.399 . S
C2484 C2485 1.385 . S
C2485 H2471 0.931 . S
C2485 C2484 1.385 . S
C2485 C2486 1.389 . S
C2486 C2485 1.389 . S
C2486 C2487 1.387 . S
C2487 H2472 0.930 . S
C2487 C2482 1.390 . S
C2487 C2486 1.387 . S
H2488 C2500 0.930 . S
H2489 C2502 0.930 . S
H2490 C2503 0.930 . S
H2491 C2507 0.959 . S
H2492 C2507 0.959 . S
H2493 C2507 0.961 . S
H2494 C2508 0.960 . S
H2495 C2508 0.961 . S
H2496 C2508 0.959 . S
H2497 C2511 0.929 . S
H2498 C2512 0.931 . S
H2499 C2514 0.930 . S
C2500 H2488 0.930 . S
C2500 C2501 1.399 . S
C2500 C2505 1.399 . S
C2501 C2500 1.399 . S
C2501 C2502 1.376 . S
C2502 H2489 0.930 . S
C2502 C2501 1.376 . S
C2502 C2503 1.388 . S
C2503 H2490 0.930 . S
C2503 C2502 1.388 . S
C2503 C2504 1.390 . S
C2504 C2503 1.390 . S
C2504 C2505 1.394 . S
C2504 C2510 1.465 . S
C2505 C2500 1.399 . S
C2505 C2504 1.394 . S
C2505 C2506 1.516 . S
C2506 C2505 1.516 . S
C2506 C2507 1.502 . S
C2506 C2508 1.561 . S
C2506 C2509 1.526 . S
C2507 H2491 0.959 . S
C2507 H2492 0.959 . S
C2507 H2493 0.961 . S
C2507 C2506 1.502 . S
C2508 H2494 0.960 . S
C2508 H2495 0.961 . S
C2508 H2496 0.959 . S
C2508 C2506 1.561 . S
C2509 C2506 1.526 . S
C2509 C2510 1.396 . S
C2509 C2514 1.390 . S
C2510 C2504 1.465 . S
C2510 C2509 1.396 . S
C2510 C2511 1.399 . S
C2511 H2497 0.929 . S
C2511 C2510 1.399 . S
C2511 C2512 1.385 . S
C2512 H2498 0.931 . S
C2512 C2511 1.385 . S
C2512 C2513 1.389 . S
C2513 C2512 1.389 . S
C2513 C2514 1.387 . S
C2514 H2499 0.930 . S
C2514 C2509 1.390 . S
C2514 C2513 1.387 . S
H2515 C2527 0.930 . S
H2516 C2529 0.930 . S
H2517 C2530 0.930 . S
H2518 C2534 0.959 . S
H2519 C2534 0.959 . S
H2520 C2534 0.961 . S
H2521 C2535 0.960 . S
H2522 C2535 0.961 . S
H2523 C2535 0.959 . S
H2524 C2538 0.929 . S
H2525 C2539 0.931 . S
H2526 C2541 0.930 . S
C2527 H2515 0.930 . S
C2527 C2528 1.410 . S
C2527 C2532 1.399 . S
C2528 C2527 1.410 . S
C2528 C2529 1.375 1_556 S
C2529 H2516 0.930 . S
C2529 C2528 1.375 1_554 S
C2529 C2530 1.388 1_554 S
C2530 H2517 0.930 . S
C2530 C2529 1.388 1_556 S
C2530 C2531 1.390 . S
C2531 C2530 1.390 . S
C2531 C2532 1.394 . S
C2531 C2537 1.465 . S
C2532 C2527 1.399 . S
C2532 C2531 1.394 . S
C2532 C2533 1.516 . S
C2533 C2532 1.516 . S
C2533 C2534 1.502 . S
C2533 C2535 1.561 . S
C2533 C2536 1.526 . S
C2534 H2518 0.959 . S
C2534 H2519 0.959 . S
C2534 H2520 0.961 . S
C2534 C2533 1.502 . S
C2535 H2521 0.960 . S
C2535 H2522 0.961 . S
C2535 H2523 0.959 . S
C2535 C2533 1.561 . S
C2536 C2533 1.526 . S
C2536 C2537 1.396 . S
C2536 C2541 1.390 . S
C2537 C2531 1.465 . S
C2537 C2536 1.396 . S
C2537 C2538 1.399 . S
C2538 H2524 0.929 . S
C2538 C2537 1.399 . S
C2538 C2539 1.385 . S
C2539 H2525 0.931 . S
C2539 C2538 1.385 . S
C2539 C2540 1.389 . S
C2540 C2539 1.389 . S
C2540 C2541 1.387 . S
C2541 H2526 0.930 . S
C2541 C2536 1.390 . S
C2541 C2540 1.387 . S
H2542 C2554 0.930 . S
H2543 C2556 0.930 . S
H2544 C2557 0.930 . S
H2545 C2561 0.959 . S
H2546 C2561 0.959 . S
H2547 C2561 0.961 . S
H2548 C2562 0.960 . S
H2549 C2562 0.961 . S
H2550 C2562 0.959 . S
H2551 C2565 0.929 . S
H2552 C2566 0.931 . S
H2553 C2568 0.930 . S
C2554 H2542 0.930 . S
C2554 C2555 1.399 . S
C2554 C2559 1.399 . S
C2555 C2554 1.399 . S
C2555 C2556 1.376 . S
C2556 H2543 0.930 . S
C2556 C2555 1.376 . S
C2556 C2557 1.388 . S
C2557 H2544 0.930 . S
C2557 C2556 1.388 . S
C2557 C2558 1.390 . S
C2558 C2557 1.390 . S
C2558 C2559 1.394 . S
C2558 C2564 1.465 . S
C2559 C2554 1.399 . S
C2559 C2558 1.394 . S
C2559 C2560 1.516 . S
C2560 C2559 1.516 . S
C2560 C2561 1.502 . S
C2560 C2562 1.561 . S
C2560 C2563 1.526 . S
C2561 H2545 0.959 . S
C2561 H2546 0.959 . S
C2561 H2547 0.961 . S
C2561 C2560 1.502 . S
C2562 H2548 0.960 . S
C2562 H2549 0.961 . S
C2562 H2550 0.959 . S
C2562 C2560 1.561 . S
C2563 C2560 1.526 . S
C2563 C2564 1.396 . S
C2563 C2568 1.390 . S
C2564 C2558 1.465 . S
C2564 C2563 1.396 . S
C2564 C2565 1.399 . S
C2565 H2551 0.929 . S
C2565 C2564 1.399 . S
C2565 C2566 1.385 . S
C2566 H2552 0.931 . S
C2566 C2565 1.385 . S
C2566 C2567 1.389 . S
C2567 C2566 1.389 . S
C2567 C2568 1.387 . S
C2568 H2553 0.930 . S
C2568 C2563 1.390 . S
C2568 C2567 1.387 . S
H2569 C2581 0.930 . S
H2570 C2583 0.930 . S
H2571 C2584 0.930 . S
H2572 C2588 0.959 . S
H2573 C2588 0.959 . S
H2574 C2588 0.961 . S
H2575 C2589 0.960 . S
H2576 C2589 0.961 . S
H2577 C2589 0.959 . S
H2578 C2592 0.929 . S
H2579 C2593 0.931 . S
H2580 C2595 0.930 . S
C2581 H2569 0.930 . S
C2581 C2582 1.399 . S
C2581 C2586 1.399 . S
C2582 C2581 1.399 . S
C2582 C2583 1.376 . S
C2583 H2570 0.930 . S
C2583 C2582 1.376 . S
C2583 C2584 1.388 . S
C2584 H2571 0.930 . S
C2584 C2583 1.388 . S
C2584 C2585 1.390 . S
C2585 C2584 1.390 . S
C2585 C2586 1.394 . S
C2585 C2591 1.465 . S
C2586 C2581 1.399 . S
C2586 C2585 1.394 . S
C2586 C2587 1.516 . S
C2587 C2586 1.516 . S
C2587 C2588 1.502 . S
C2587 C2589 1.561 . S
C2587 C2590 1.526 . S
C2588 H2572 0.959 . S
C2588 H2573 0.959 . S
C2588 H2574 0.961 . S
C2588 C2587 1.502 . S
C2589 H2575 0.960 . S
C2589 H2576 0.961 . S
C2589 H2577 0.959 . S
C2589 C2587 1.561 . S
C2590 C2587 1.526 . S
C2590 C2591 1.396 . S
C2590 C2595 1.390 . S
C2591 C2585 1.465 . S
C2591 C2590 1.396 . S
C2591 C2592 1.399 . S
C2592 H2578 0.929 . S
C2592 C2591 1.399 . S
C2592 C2593 1.385 . S
C2593 H2579 0.931 . S
C2593 C2592 1.385 . S
C2593 C2594 1.389 . S
C2594 C2593 1.389 . S
C2594 C2595 1.387 . S
C2595 H2580 0.930 . S
C2595 C2590 1.390 . S
C2595 C2594 1.387 . S
H2596 C2608 0.930 . S
H2597 C2610 0.930 . S
H2598 C2611 0.930 . S
H2599 C2615 0.959 . S
H2600 C2615 0.959 . S
H2601 C2615 0.961 . S
H2602 C2616 0.960 . S
H2603 C2616 0.961 . S
H2604 C2616 0.959 . S
H2605 C2619 0.929 . S
H2606 C2620 0.931 . S
H2607 C2622 0.930 . S
C2608 H2596 0.930 . S
C2608 C2609 1.399 . S
C2608 C2613 1.399 . S
C2609 C2608 1.399 . S
C2609 C2610 1.376 . S
C2610 H2597 0.930 . S
C2610 C2609 1.376 . S
C2610 C2611 1.388 . S
C2611 H2598 0.930 . S
C2611 C2610 1.388 . S
C2611 C2612 1.390 . S
C2612 C2611 1.390 . S
C2612 C2613 1.394 . S
C2612 C2618 1.465 . S
C2613 C2608 1.399 . S
C2613 C2612 1.394 . S
C2613 C2614 1.516 . S
C2614 C2613 1.516 . S
C2614 C2615 1.502 . S
C2614 C2616 1.561 . S
C2614 C2617 1.526 . S
C2615 H2599 0.959 . S
C2615 H2600 0.959 . S
C2615 H2601 0.961 . S
C2615 C2614 1.502 . S
C2616 H2602 0.960 . S
C2616 H2603 0.961 . S
C2616 H2604 0.959 . S
C2616 C2614 1.561 . S
C2617 C2614 1.526 . S
C2617 C2618 1.396 . S
C2617 C2622 1.390 . S
C2618 C2612 1.465 . S
C2618 C2617 1.396 . S
C2618 C2619 1.399 . S
C2619 H2605 0.929 . S
C2619 C2618 1.399 . S
C2619 C2620 1.385 . S
C2620 H2606 0.931 . S
C2620 C2619 1.385 . S
C2620 C2621 1.389 . S
C2621 C2620 1.389 . S
C2621 C2622 1.387 . S
C2622 H2607 0.930 . S
C2622 C2617 1.390 . S
C2622 C2621 1.387 . S
H2623 C2635 0.930 . S
H2624 C2637 0.930 . S
H2625 C2638 0.930 . S
H2626 C2642 0.959 . S
H2627 C2642 0.959 . S
H2628 C2642 0.961 . S
H2629 C2643 0.960 . S
H2630 C2643 0.961 . S
H2631 C2643 0.959 . S
H2632 C2646 0.929 . S
H2633 C2647 0.931 . S
H2634 C2649 0.930 . S
C2635 H2623 0.930 . S
C2635 C2636 1.399 . S
C2635 C2640 1.399 . S
C2636 C2635 1.399 . S
C2636 C2637 1.376 . S
C2637 H2624 0.930 . S
C2637 C2636 1.376 . S
C2637 C2638 1.388 . S
C2638 H2625 0.930 . S
C2638 C2637 1.388 . S
C2638 C2639 1.390 . S
C2639 C2638 1.390 . S
C2639 C2640 1.394 . S
C2639 C2645 1.465 . S
C2640 C2635 1.399 . S
C2640 C2639 1.394 . S
C2640 C2641 1.516 . S
C2641 C2640 1.516 . S
C2641 C2642 1.502 . S
C2641 C2643 1.561 . S
C2641 C2644 1.526 . S
C2642 H2626 0.959 . S
C2642 H2627 0.959 . S
C2642 H2628 0.961 . S
C2642 C2641 1.502 . S
C2643 H2629 0.960 . S
C2643 H2630 0.961 . S
C2643 H2631 0.959 . S
C2643 C2641 1.561 . S
C2644 C2641 1.526 . S
C2644 C2645 1.396 . S
C2644 C2649 1.390 . S
C2645 C2639 1.465 . S
C2645 C2644 1.396 . S
C2645 C2646 1.399 . S
C2646 H2632 0.929 . S
C2646 C2645 1.399 . S
C2646 C2647 1.385 . S
C2647 H2633 0.931 . S
C2647 C2646 1.385 . S
C2647 C2648 1.389 . S
C2648 C2647 1.389 . S
C2648 C2649 1.387 . S
C2649 H2634 0.930 . S
C2649 C2644 1.390 . S
C2649 C2648 1.387 . S
H2650 C2662 0.930 . S
H2651 C2664 0.930 . S
H2652 C2665 0.930 . S
H2653 C2669 0.959 . S
H2654 C2669 0.959 . S
H2655 C2669 0.961 . S
H2656 C2670 0.960 . S
H2657 C2670 0.961 . S
H2658 C2670 0.959 . S
H2659 C2673 0.929 . S
H2660 C2674 0.931 . S
H2661 C2676 0.930 . S
C2662 H2650 0.930 . S
C2662 C2663 1.399 . S
C2662 C2667 1.399 . S
C2663 C2662 1.399 . S
C2663 C2664 1.376 . S
C2664 H2651 0.930 . S
C2664 C2663 1.376 . S
C2664 C2665 1.388 . S
C2665 H2652 0.930 . S
C2665 C2664 1.388 . S
C2665 C2666 1.390 . S
C2666 C2665 1.390 . S
C2666 C2667 1.394 . S
C2666 C2672 1.465 . S
C2667 C2662 1.399 . S
C2667 C2666 1.394 . S
C2667 C2668 1.516 . S
C2668 C2667 1.516 . S
C2668 C2669 1.502 . S
C2668 C2670 1.561 . S
C2668 C2671 1.526 . S
C2669 H2653 0.959 . S
C2669 H2654 0.959 . S
C2669 H2655 0.961 . S
C2669 C2668 1.502 . S
C2670 H2656 0.960 . S
C2670 H2657 0.961 . S
C2670 H2658 0.959 . S
C2670 C2668 1.561 . S
C2671 C2668 1.526 . S
C2671 C2672 1.396 . S
C2671 C2676 1.390 . S
C2672 C2666 1.465 . S
C2672 C2671 1.396 . S
C2672 C2673 1.399 . S
C2673 H2659 0.929 . S
C2673 C2672 1.399 . S
C2673 C2674 1.385 . S
C2674 H2660 0.931 . S
C2674 C2673 1.385 . S
C2674 C2675 1.389 . S
C2675 C2674 1.389 . S
C2675 C2676 1.387 . S
C2676 H2661 0.930 . S
C2676 C2671 1.390 . S
C2676 C2675 1.387 . S
H2677 C2689 0.930 . S
H2678 C2691 0.930 . S
H2679 C2692 0.930 . S
H2680 C2696 0.959 . S
H2681 C2696 0.959 . S
H2682 C2696 0.961 . S
H2683 C2697 0.960 . S
H2684 C2697 0.961 . S
H2685 C2697 0.959 . S
H2686 C2700 0.929 . S
H2687 C2701 0.931 . S
H2688 C2703 0.930 . S
C2689 H2677 0.930 . S
C2689 C2690 1.399 . S
C2689 C2694 1.399 . S
C2690 C2689 1.399 . S
C2690 C2691 1.376 . S
C2691 H2678 0.930 . S
C2691 C2690 1.376 . S
C2691 C2692 1.388 . S
C2692 H2679 0.930 . S
C2692 C2691 1.388 . S
C2692 C2693 1.390 . S
C2693 C2692 1.390 . S
C2693 C2694 1.394 . S
C2693 C2699 1.465 . S
C2694 C2689 1.399 . S
C2694 C2693 1.394 . S
C2694 C2695 1.516 . S
C2695 C2694 1.516 . S
C2695 C2696 1.502 . S
C2695 C2697 1.561 . S
C2695 C2698 1.526 . S
C2696 H2680 0.959 . S
C2696 H2681 0.959 . S
C2696 H2682 0.961 . S
C2696 C2695 1.502 . S
C2697 H2683 0.960 . S
C2697 H2684 0.961 . S
C2697 H2685 0.959 . S
C2697 C2695 1.561 . S
C2698 C2695 1.526 . S
C2698 C2699 1.396 . S
C2698 C2703 1.390 . S
C2699 C2693 1.465 . S
C2699 C2698 1.396 . S
C2699 C2700 1.399 . S
C2700 H2686 0.929 . S
C2700 C2699 1.399 . S
C2700 C2701 1.385 . S
C2701 H2687 0.931 . S
C2701 C2700 1.385 . S
C2701 C2702 1.389 . S
C2702 C2701 1.389 . S
C2702 C2703 1.387 . S
C2703 H2688 0.930 . S
C2703 C2698 1.390 . S
C2703 C2702 1.387 . S
H2704 C2716 0.930 . S
H2705 C2718 0.930 . S
H2706 C2719 0.930 . S
H2707 C2723 0.959 . S
H2708 C2723 0.959 . S
H2709 C2723 0.961 . S
H2710 C2724 0.960 . S
H2711 C2724 0.961 . S
H2712 C2724 0.959 . S
H2713 C2727 0.929 . S
H2714 C2728 0.931 . S
H2715 C2730 0.930 . S
C2716 H2704 0.930 . S
C2716 C2717 1.399 . S
C2716 C2721 1.399 . S
C2717 C2716 1.399 . S
C2717 C2718 1.376 . S
C2718 H2705 0.930 . S
C2718 C2717 1.376 . S
C2718 C2719 1.388 . S
C2719 H2706 0.930 . S
C2719 C2718 1.388 . S
C2719 C2720 1.390 . S
C2720 C2719 1.390 . S
C2720 C2721 1.394 . S
C2720 C2726 1.465 . S
C2721 C2716 1.399 . S
C2721 C2720 1.394 . S
C2721 C2722 1.516 . S
C2722 C2721 1.516 . S
C2722 C2723 1.502 . S
C2722 C2724 1.561 . S
C2722 C2725 1.526 . S
C2723 H2707 0.959 . S
C2723 H2708 0.959 . S
C2723 H2709 0.961 . S
C2723 C2722 1.502 . S
C2724 H2710 0.960 . S
C2724 H2711 0.961 . S
C2724 H2712 0.959 . S
C2724 C2722 1.561 . S
C2725 C2722 1.526 . S
C2725 C2726 1.396 . S
C2725 C2730 1.390 . S
C2726 C2720 1.465 . S
C2726 C2725 1.396 . S
C2726 C2727 1.399 . S
C2727 H2713 0.929 . S
C2727 C2726 1.399 . S
C2727 C2728 1.385 . S
C2728 H2714 0.931 . S
C2728 C2727 1.385 . S
C2728 C2729 1.389 . S
C2729 C2728 1.389 . S
C2729 C2730 1.387 . S
C2730 H2715 0.930 . S
C2730 C2725 1.390 . S
C2730 C2729 1.387 . S
H2731 C2743 0.930 . S
H2732 C2745 0.930 . S
H2733 C2746 0.930 . S
H2734 C2750 0.959 . S
H2735 C2750 0.959 . S
H2736 C2750 0.961 . S
H2737 C2751 0.960 . S
H2738 C2751 0.961 . S
H2739 C2751 0.959 . S
H2740 C2754 0.929 . S
H2741 C2755 0.931 . S
H2742 C2757 0.930 . S
C2743 H2731 0.930 . S
C2743 C2744 1.399 . S
C2743 C2748 1.399 . S
C2744 C2743 1.399 . S
C2744 C2745 1.376 . S
C2745 H2732 0.930 . S
C2745 C2744 1.376 . S
C2745 C2746 1.388 . S
C2746 H2733 0.930 . S
C2746 C2745 1.388 . S
C2746 C2747 1.390 . S
C2747 C2746 1.390 . S
C2747 C2748 1.394 . S
C2747 C2753 1.465 . S
C2748 C2743 1.399 . S
C2748 C2747 1.394 . S
C2748 C2749 1.516 . S
C2749 C2748 1.516 . S
C2749 C2750 1.502 . S
C2749 C2751 1.561 . S
C2749 C2752 1.526 . S
C2750 H2734 0.959 . S
C2750 H2735 0.959 . S
C2750 H2736 0.961 . S
C2750 C2749 1.502 . S
C2751 H2737 0.960 . S
C2751 H2738 0.961 . S
C2751 H2739 0.959 . S
C2751 C2749 1.561 . S
C2752 C2749 1.526 . S
C2752 C2753 1.396 . S
C2752 C2757 1.390 . S
C2753 C2747 1.465 . S
C2753 C2752 1.396 . S
C2753 C2754 1.399 . S
C2754 H2740 0.929 . S
C2754 C2753 1.399 . S
C2754 C2755 1.385 . S
C2755 H2741 0.931 . S
C2755 C2754 1.385 . S
C2755 C2756 1.389 . S
C2756 C2755 1.389 . S
C2756 C2757 1.387 . S
C2757 H2742 0.930 . S
C2757 C2752 1.390 . S
C2757 C2756 1.387 . S
H2758 C2770 0.930 . S
H2759 C2772 0.930 . S
H2760 C2773 0.930 . S
H2761 C2777 0.959 . S
H2762 C2777 0.959 . S
H2763 C2777 0.961 . S
H2764 C2778 0.960 . S
H2765 C2778 0.961 . S
H2766 C2778 0.959 . S
H2767 C2781 0.929 . S
H2768 C2782 0.931 . S
H2769 C2784 0.930 . S
C2770 H2758 0.930 . S
C2770 C2771 1.399 . S
C2770 C2775 1.399 . S
C2771 C2770 1.399 . S
C2771 C2772 1.376 . S
C2772 H2759 0.930 . S
C2772 C2771 1.376 . S
C2772 C2773 1.388 . S
C2773 H2760 0.930 . S
C2773 C2772 1.388 . S
C2773 C2774 1.390 . S
C2774 C2773 1.390 . S
C2774 C2775 1.394 . S
C2774 C2780 1.465 . S
C2775 C2770 1.399 . S
C2775 C2774 1.394 . S
C2775 C2776 1.516 . S
C2776 C2775 1.516 . S
C2776 C2777 1.502 . S
C2776 C2778 1.561 . S
C2776 C2779 1.526 . S
C2777 H2761 0.959 . S
C2777 H2762 0.959 . S
C2777 H2763 0.961 . S
C2777 C2776 1.502 . S
C2778 H2764 0.960 . S
C2778 H2765 0.961 . S
C2778 H2766 0.959 . S
C2778 C2776 1.561 . S
C2779 C2776 1.526 . S
C2779 C2780 1.396 . S
C2779 C2784 1.390 . S
C2780 C2774 1.465 . S
C2780 C2779 1.396 . S
C2780 C2781 1.399 . S
C2781 H2767 0.929 . S
C2781 C2780 1.399 . S
C2781 C2782 1.385 . S
C2782 H2768 0.931 . S
C2782 C2781 1.385 . S
C2782 C2783 1.389 . S
C2783 C2782 1.389 . S
C2783 C2784 1.387 . S
C2784 H2769 0.930 . S
C2784 C2779 1.390 . S
C2784 C2783 1.387 . S
H2785 C2797 0.930 . S
H2786 C2799 0.930 . S
H2787 C2800 0.930 1_545 S
H2788 C2804 0.959 . S
H2789 C2804 0.959 . S
H2790 C2804 0.961 . S
H2791 C2805 0.960 . S
H2792 C2805 0.961 . S
H2793 C2805 0.959 . S
H2794 C2808 0.929 . S
H2795 C2809 0.931 . S
H2796 C2811 0.930 . S
C2797 H2785 0.930 . S
C2797 C2798 1.399 . S
C2797 C2802 1.399 . S
C2798 C2797 1.399 . S
C2798 C2799 1.376 . S
C2799 H2786 0.930 . S
C2799 C2798 1.376 . S
C2799 C2800 1.388 . S
C2800 H2787 0.930 1_565 S
C2800 C2799 1.388 . S
C2800 C2801 1.390 . S
C2801 C2800 1.390 . S
C2801 C2802 1.394 . S
C2801 C2807 1.465 . S
C2802 C2797 1.399 . S
C2802 C2801 1.394 . S
C2802 C2803 1.516 . S
C2803 C2802 1.516 . S
C2803 C2804 1.502 . S
C2803 C2805 1.561 . S
C2803 C2806 1.526 . S
C2804 H2788 0.959 . S
C2804 H2789 0.959 . S
C2804 H2790 0.961 . S
C2804 C2803 1.502 . S
C2805 H2791 0.960 . S
C2805 H2792 0.961 . S
C2805 H2793 0.959 . S
C2805 C2803 1.561 . S
C2806 C2803 1.526 . S
C2806 C2807 1.396 . S
C2806 C2811 1.390 . S
C2807 C2801 1.465 . S
C2807 C2806 1.396 . S
C2807 C2808 1.399 1_565 S
C2808 H2794 0.929 . S
C2808 C2807 1.399 1_545 S
C2808 C2809 1.385 . S
C2809 H2795 0.931 . S
C2809 C2808 1.385 . S
C2809 C2810 1.389 . S
C2810 C2809 1.389 . S
C2810 C2811 1.387 1_545 S
C2811 H2796 0.930 . S
C2811 C2806 1.390 . S
C2811 C2810 1.387 1_565 S
H2812 C2824 0.930 . S
H2813 C2826 0.930 . S
H2814 C2827 0.930 . S
H2815 C2831 0.959 . S
H2816 C2831 0.959 . S
H2817 C2831 0.961 . S
H2818 C2832 0.960 . S
H2819 C2832 0.961 . S
H2820 C2832 0.959 . S
H2821 C2835 0.929 . S
H2822 C2836 0.931 . S
H2823 C2838 0.930 . S
C2824 H2812 0.930 . S
C2824 C2825 1.399 . S
C2824 C2829 1.399 . S
C2825 C2824 1.399 . S
C2825 C2826 1.376 . S
C2826 H2813 0.930 . S
C2826 C2825 1.376 . S
C2826 C2827 1.388 . S
C2827 H2814 0.930 . S
C2827 C2826 1.388 . S
C2827 C2828 1.390 . S
C2828 C2827 1.390 . S
C2828 C2829 1.394 . S
C2828 C2834 1.465 . S
C2829 C2824 1.399 . S
C2829 C2828 1.394 . S
C2829 C2830 1.516 . S
C2830 C2829 1.516 . S
C2830 C2831 1.502 . S
C2830 C2832 1.561 . S
C2830 C2833 1.526 . S
C2831 H2815 0.959 . S
C2831 H2816 0.959 . S
C2831 H2817 0.961 . S
C2831 C2830 1.502 . S
C2832 H2818 0.960 . S
C2832 H2819 0.961 . S
C2832 H2820 0.959 . S
C2832 C2830 1.561 . S
C2833 C2830 1.526 . S
C2833 C2834 1.396 . S
C2833 C2838 1.390 . S
C2834 C2828 1.465 . S
C2834 C2833 1.396 . S
C2834 C2835 1.399 . S
C2835 H2821 0.929 . S
C2835 C2834 1.399 . S
C2835 C2836 1.385 . S
C2836 H2822 0.931 . S
C2836 C2835 1.385 . S
C2836 C2837 1.389 . S
C2837 C2836 1.389 . S
C2837 C2838 1.387 . S
C2838 H2823 0.930 . S
C2838 C2833 1.390 . S
C2838 C2837 1.387 . S
H2839 C2851 0.930 . S
H2840 C2853 0.930 . S
H2841 C2854 0.930 . S
H2842 C2858 0.959 . S
H2843 C2858 0.959 . S
H2844 C2858 0.961 . S
H2845 C2859 0.960 . S
H2846 C2859 0.961 . S
H2847 C2859 0.959 . S
H2848 C2862 0.929 . S
H2849 C2863 0.931 . S
H2850 C2865 0.930 . S
C2851 H2839 0.930 . S
C2851 C2852 1.399 . S
C2851 C2856 1.399 . S
C2852 C2851 1.399 . S
C2852 C2853 1.376 . S
C2853 H2840 0.930 . S
C2853 C2852 1.376 . S
C2853 C2854 1.388 . S
C2854 H2841 0.930 . S
C2854 C2853 1.388 . S
C2854 C2855 1.390 . S
C2855 C2854 1.390 . S
C2855 C2856 1.394 . S
C2855 C2861 1.465 . S
C2856 C2851 1.399 . S
C2856 C2855 1.394 . S
C2856 C2857 1.516 . S
C2857 C2856 1.516 . S
C2857 C2858 1.502 . S
C2857 C2859 1.561 . S
C2857 C2860 1.526 . S
C2858 H2842 0.959 . S
C2858 H2843 0.959 . S
C2858 H2844 0.961 . S
C2858 C2857 1.502 . S
C2859 H2845 0.960 . S
C2859 H2846 0.961 . S
C2859 H2847 0.959 . S
C2859 C2857 1.561 . S
C2860 C2857 1.526 . S
C2860 C2861 1.396 . S
C2860 C2865 1.390 . S
C2861 C2855 1.465 . S
C2861 C2860 1.396 . S
C2861 C2862 1.399 . S
C2862 H2848 0.929 . S
C2862 C2861 1.399 . S
C2862 C2863 1.385 . S
C2863 H2849 0.931 . S
C2863 C2862 1.385 . S
C2863 C2864 1.389 . S
C2864 C2863 1.389 . S
C2864 C2865 1.387 . S
C2865 H2850 0.930 . S
C2865 C2860 1.390 . S
C2865 C2864 1.387 . S
H2866 C2878 0.930 . S
H2867 C2880 0.930 . S
H2868 C2881 0.930 . S
H2869 C2885 0.959 . S
H2870 C2885 0.959 . S
H2871 C2885 0.961 . S
H2872 C2886 0.960 . S
H2873 C2886 0.961 . S
H2874 C2886 0.959 . S
H2875 C2889 0.929 . S
H2876 C2890 0.931 . S
H2877 C2892 0.930 . S
C2878 H2866 0.930 . S
C2878 C2879 1.399 . S
C2878 C2883 1.399 . S
C2879 C2878 1.399 . S
C2879 C2880 1.376 . S
C2880 H2867 0.930 . S
C2880 C2879 1.376 . S
C2880 C2881 1.388 . S
C2881 H2868 0.930 . S
C2881 C2880 1.388 . S
C2881 C2882 1.390 . S
C2882 C2881 1.390 . S
C2882 C2883 1.394 . S
C2882 C2888 1.465 . S
C2883 C2878 1.399 . S
C2883 C2882 1.394 . S
C2883 C2884 1.516 . S
C2884 C2883 1.516 . S
C2884 C2885 1.502 . S
C2884 C2886 1.561 . S
C2884 C2887 1.526 . S
C2885 H2869 0.959 . S
C2885 H2870 0.959 . S
C2885 H2871 0.961 . S
C2885 C2884 1.502 . S
C2886 H2872 0.960 . S
C2886 H2873 0.961 . S
C2886 H2874 0.959 . S
C2886 C2884 1.561 . S
C2887 C2884 1.526 . S
C2887 C2888 1.396 . S
C2887 C2892 1.390 . S
C2888 C2882 1.465 . S
C2888 C2887 1.396 . S
C2888 C2889 1.399 . S
C2889 H2875 0.929 . S
C2889 C2888 1.399 . S
C2889 C2890 1.385 . S
C2890 H2876 0.931 . S
C2890 C2889 1.385 . S
C2890 C2891 1.389 . S
C2891 C2890 1.389 . S
C2891 C2892 1.387 . S
C2892 H2877 0.930 . S
C2892 C2887 1.390 . S
C2892 C2891 1.387 . S
H2893 C2905 0.930 . S
H2894 C2907 0.930 . S
H2895 C2908 0.930 . S
H2896 C2912 0.959 . S
H2897 C2912 0.959 . S
H2898 C2912 0.961 . S
H2899 C2913 0.960 . S
H2900 C2913 0.961 1_565 S
H2901 C2913 0.959 1_565 S
H2902 C2916 0.929 . S
H2903 C2917 0.931 . S
H2904 C2919 0.930 . S
C2905 H2893 0.930 . S
C2905 C2906 1.399 . S
C2905 C2910 1.399 . S
C2906 C2905 1.399 . S
C2906 C2907 1.376 . S
C2907 H2894 0.930 . S
C2907 C2906 1.376 . S
C2907 C2908 1.388 . S
C2908 H2895 0.930 . S
C2908 C2907 1.388 . S
C2908 C2909 1.390 . S
C2909 C2908 1.390 . S
C2909 C2910 1.394 . S
C2909 C2915 1.465 . S
C2910 C2905 1.399 . S
C2910 C2909 1.394 . S
C2910 C2911 1.516 . S
C2911 C2910 1.516 . S
C2911 C2912 1.502 . S
C2911 C2913 1.561 . S
C2911 C2914 1.526 . S
C2912 H2896 0.959 . S
C2912 H2897 0.959 . S
C2912 H2898 0.961 . S
C2912 C2911 1.502 . S
C2913 H2899 0.960 . S
C2913 H2900 0.961 1_545 S
C2913 H2901 0.959 1_545 S
C2913 C2911 1.561 . S
C2914 C2911 1.526 . S
C2914 C2915 1.396 . S
C2914 C2919 1.390 1_545 S
C2915 C2909 1.465 . S
C2915 C2914 1.396 . S
C2915 C2916 1.399 . S
C2916 H2902 0.929 . S
C2916 C2915 1.399 . S
C2916 C2917 1.385 1_545 S
C2917 H2903 0.931 . S
C2917 C2916 1.385 1_565 S
C2917 C2918 1.389 . S
C2918 C2917 1.389 . S
C2918 C2919 1.387 . S
C2919 H2904 0.930 . S
C2919 C2914 1.390 1_565 S
C2919 C2918 1.387 . S
H2920 C2932 0.930 . S
H2921 C2934 0.930 . S
H2922 C2935 0.930 . S
H2923 C2939 0.959 . S
H2924 C2939 0.959 . S
H2925 C2939 0.961 . S
H2926 C2940 0.960 . S
H2927 C2940 0.961 . S
H2928 C2940 0.959 . S
H2929 C2943 0.929 . S
H2930 C2944 0.931 . S
H2931 C2946 0.930 . S
C2932 H2920 0.930 . S
C2932 C2933 1.399 . S
C2932 C2937 1.399 . S
C2933 C2932 1.399 . S
C2933 C2934 1.376 . S
C2934 H2921 0.930 . S
C2934 C2933 1.376 . S
C2934 C2935 1.388 . S
C2935 H2922 0.930 . S
C2935 C2934 1.388 . S
C2935 C2936 1.390 . S
C2936 C2935 1.390 . S
C2936 C2937 1.394 . S
C2936 C2942 1.465 . S
C2937 C2932 1.399 . S
C2937 C2936 1.394 . S
C2937 C2938 1.516 . S
C2938 C2937 1.516 . S
C2938 C2939 1.502 . S
C2938 C2940 1.561 . S
C2938 C2941 1.526 . S
C2939 H2923 0.959 . S
C2939 H2924 0.959 . S
C2939 H2925 0.961 . S
C2939 C2938 1.502 . S
C2940 H2926 0.960 . S
C2940 H2927 0.961 . S
C2940 H2928 0.959 . S
C2940 C2938 1.561 . S
C2941 C2938 1.526 . S
C2941 C2942 1.396 . S
C2941 C2946 1.390 . S
C2942 C2936 1.465 . S
C2942 C2941 1.396 . S
C2942 C2943 1.399 . S
C2943 H2929 0.929 . S
C2943 C2942 1.399 . S
C2943 C2944 1.385 . S
C2944 H2930 0.931 . S
C2944 C2943 1.385 . S
C2944 C2945 1.389 . S
C2945 C2944 1.389 . S
C2945 C2946 1.387 . S
C2946 H2931 0.930 . S
C2946 C2941 1.390 . S
C2946 C2945 1.387 . S
H2947 C2959 0.930 . S
H2948 C2961 0.930 . S
H2949 C2962 0.930 . S
H2950 C2966 0.959 . S
H2951 C2966 0.959 . S
H2952 C2966 0.961 . S
H2953 C2967 0.960 . S
H2954 C2967 0.961 . S
H2955 C2967 0.959 . S
H2956 C2970 0.929 . S
H2957 C2971 0.931 . S
H2958 C2973 0.930 . S
C2959 H2947 0.930 . S
C2959 C2960 1.399 . S
C2959 C2964 1.399 . S
C2960 C2959 1.399 . S
C2960 C2961 1.376 . S
C2961 H2948 0.930 . S
C2961 C2960 1.376 . S
C2961 C2962 1.388 . S
C2962 H2949 0.930 . S
C2962 C2961 1.388 . S
C2962 C2963 1.390 . S
C2963 C2962 1.390 . S
C2963 C2964 1.394 . S
C2963 C2969 1.465 . S
C2964 C2959 1.399 . S
C2964 C2963 1.394 . S
C2964 C2965 1.516 . S
C2965 C2964 1.516 . S
C2965 C2966 1.502 . S
C2965 C2967 1.561 . S
C2965 C2968 1.526 . S
C2966 H2950 0.959 . S
C2966 H2951 0.959 . S
C2966 H2952 0.961 . S
C2966 C2965 1.502 . S
C2967 H2953 0.960 . S
C2967 H2954 0.961 . S
C2967 H2955 0.959 . S
C2967 C2965 1.561 . S
C2968 C2965 1.526 . S
C2968 C2969 1.396 . S
C2968 C2973 1.390 . S
C2969 C2963 1.465 . S
C2969 C2968 1.396 . S
C2969 C2970 1.399 . S
C2970 H2956 0.929 . S
C2970 C2969 1.399 . S
C2970 C2971 1.385 . S
C2971 H2957 0.931 . S
C2971 C2970 1.385 . S
C2971 C2972 1.389 . S
C2972 C2971 1.389 . S
C2972 C2973 1.387 . S
C2973 H2958 0.930 . S
C2973 C2968 1.390 . S
C2973 C2972 1.387 . S
H2974 C2986 0.930 . S
H2975 C2988 0.930 . S
H2976 C2989 0.930 . S
H2977 C2993 0.959 . S
H2978 C2993 0.959 . S
H2979 C2993 0.961 . S
H2980 C2994 0.960 . S
H2981 C2994 0.961 . S
H2982 C2994 0.959 . S
H2983 C2997 0.929 . S
H2984 C2998 0.931 . S
H2985 C3000 0.930 . S
C2986 H2974 0.930 . S
C2986 C2987 1.399 . S
C2986 C2991 1.399 . S
C2987 C2986 1.399 . S
C2987 C2988 1.376 . S
C2988 H2975 0.930 . S
C2988 C2987 1.376 . S
C2988 C2989 1.388 . S
C2989 H2976 0.930 . S
C2989 C2988 1.388 . S
C2989 C2990 1.390 . S
C2990 C2989 1.390 . S
C2990 C2991 1.394 . S
C2990 C2996 1.465 . S
C2991 C2986 1.399 . S
C2991 C2990 1.394 . S
C2991 C2992 1.516 . S
C2992 C2991 1.516 . S
C2992 C2993 1.502 . S
C2992 C2994 1.561 . S
C2992 C2995 1.526 . S
C2993 H2977 0.959 . S
C2993 H2978 0.959 . S
C2993 H2979 0.961 . S
C2993 C2992 1.502 . S
C2994 H2980 0.960 . S
C2994 H2981 0.961 . S
C2994 H2982 0.959 . S
C2994 C2992 1.561 . S
C2995 C2992 1.526 . S
C2995 C2996 1.396 . S
C2995 C3000 1.390 . S
C2996 C2990 1.465 . S
C2996 C2995 1.396 . S
C2996 C2997 1.399 . S
C2997 H2983 0.929 . S
C2997 C2996 1.399 . S
C2997 C2998 1.385 . S
C2998 H2984 0.931 . S
C2998 C2997 1.385 . S
C2998 C2999 1.389 . S
C2999 C2998 1.389 . S
C2999 C3000 1.387 . S
C3000 H2985 0.930 . S
C3000 C2995 1.390 . S
C3000 C2999 1.387 . S
H3001 C3013 0.930 . S
H3002 C3015 0.930 . S
H3003 C3016 0.930 . S
H3004 C3020 0.959 . S
H3005 C3020 0.959 . S
H3006 C3020 0.961 . S
H3007 C3021 0.960 . S
H3008 C3021 0.961 . S
H3009 C3021 0.959 . S
H3010 C3024 0.929 . S
H3011 C3025 0.931 . S
H3012 C3027 0.930 . S
C3013 H3001 0.930 . S
C3013 C3014 1.399 . S
C3013 C3018 1.399 . S
C3014 C3013 1.399 . S
C3014 C3015 1.376 . S
C3015 H3002 0.930 . S
C3015 C3014 1.376 . S
C3015 C3016 1.388 . S
C3016 H3003 0.930 . S
C3016 C3015 1.388 . S
C3016 C3017 1.390 . S
C3017 C3016 1.390 . S
C3017 C3018 1.394 . S
C3017 C3023 1.465 . S
C3018 C3013 1.399 . S
C3018 C3017 1.394 . S
C3018 C3019 1.516 . S
C3019 C3018 1.516 . S
C3019 C3020 1.502 . S
C3019 C3021 1.561 . S
C3019 C3022 1.526 . S
C3020 H3004 0.959 . S
C3020 H3005 0.959 . S
C3020 H3006 0.961 . S
C3020 C3019 1.502 . S
C3021 H3007 0.960 . S
C3021 H3008 0.961 . S
C3021 H3009 0.959 . S
C3021 C3019 1.561 . S
C3022 C3019 1.526 . S
C3022 C3023 1.396 . S
C3022 C3027 1.390 . S
C3023 C3017 1.465 . S
C3023 C3022 1.396 . S
C3023 C3024 1.399 . S
C3024 H3010 0.929 . S
C3024 C3023 1.399 . S
C3024 C3025 1.385 . S
C3025 H3011 0.931 . S
C3025 C3024 1.385 . S
C3025 C3026 1.389 . S
C3026 C3025 1.389 . S
C3026 C3027 1.387 . S
C3027 H3012 0.930 . S
C3027 C3022 1.390 . S
C3027 C3026 1.387 . S
H3028 C3040 0.930 . S
H3029 C3042 0.930 . S
H3030 C3043 0.930 . S
H3031 C3047 0.959 . S
H3032 C3047 0.959 . S
H3033 C3047 0.961 . S
H3034 C3048 0.960 . S
H3035 C3048 0.961 . S
H3036 C3048 0.959 1_554 S
H3037 C3051 0.929 . S
H3038 C3052 0.931 . S
H3039 C3054 0.950 . S
C3040 H3028 0.930 . S
C3040 C3041 1.399 . S
C3040 C3045 1.399 . S
C3041 C3040 1.399 . S
C3041 C3042 1.376 . S
C3042 H3029 0.930 . S
C3042 C3041 1.376 . S
C3042 C3043 1.388 . S
C3043 H3030 0.930 . S
C3043 C3042 1.388 . S
C3043 C3044 1.390 . S
C3044 C3043 1.390 . S
C3044 C3045 1.394 . S
C3044 C3050 1.465 . S
C3045 C3040 1.399 . S
C3045 C3044 1.394 . S
C3045 C3046 1.516 . S
C3046 C3045 1.516 . S
C3046 C3047 1.502 1_554 S
C3046 C3048 1.561 1_554 S
C3046 C3049 1.526 . S
C3047 H3031 0.959 . S
C3047 H3032 0.959 . S
C3047 H3033 0.961 . S
C3047 C3046 1.502 1_556 S
C3048 H3034 0.960 . S
C3048 H3035 0.961 . S
C3048 H3036 0.959 1_556 S
C3048 C3046 1.561 1_556 S
C3049 C3046 1.526 . S
C3049 C3050 1.396 . S
C3049 C3054 1.390 . S
C3050 C3044 1.465 . S
C3050 C3049 1.396 . S
C3050 C3051 1.399 . S
C3051 H3037 0.929 . S
C3051 C3050 1.399 . S
C3051 C3052 1.385 . S
C3052 H3038 0.931 . S
C3052 C3051 1.385 . S
C3052 C3053 1.389 . S
C3053 C3052 1.389 . S
C3053 C3054 1.387 . S
C3054 H3039 0.950 . S
C3054 C3049 1.390 . S
C3054 C3053 1.387 . S
H3055 C3067 0.930 . S
H3056 C3069 0.930 . S
H3057 C3070 0.930 . S
H3058 C3074 0.959 . S
H3059 C3074 0.959 . S
H3060 C3074 0.961 . S
H3061 C3075 0.960 . S
H3062 C3075 0.961 . S
H3063 C3075 0.959 . S
H3064 C3078 0.929 . S
H3065 C3079 0.931 . S
H3066 C3081 0.930 . S
C3067 H3055 0.930 . S
C3067 C3068 1.399 . S
C3067 C3072 1.399 . S
C3068 C3067 1.399 . S
C3068 C3069 1.376 . S
C3069 H3056 0.930 . S
C3069 C3068 1.376 . S
C3069 C3070 1.388 . S
C3070 H3057 0.930 . S
C3070 C3069 1.388 . S
C3070 C3071 1.390 . S
C3071 C3070 1.390 . S
C3071 C3072 1.394 . S
C3071 C3077 1.465 . S
C3072 C3067 1.399 . S
C3072 C3071 1.394 . S
C3072 C3073 1.516 . S
C3073 C3072 1.516 . S
C3073 C3074 1.502 . S
C3073 C3075 1.561 . S
C3073 C3076 1.526 . S
C3074 H3058 0.959 . S
C3074 H3059 0.959 . S
C3074 H3060 0.961 . S
C3074 C3073 1.502 . S
C3075 H3061 0.960 . S
C3075 H3062 0.961 . S
C3075 H3063 0.959 . S
C3075 C3073 1.561 . S
C3076 C3073 1.526 . S
C3076 C3077 1.396 . S
C3076 C3081 1.390 . S
C3077 C3071 1.465 . S
C3077 C3076 1.396 . S
C3077 C3078 1.399 . S
C3078 H3064 0.929 . S
C3078 C3077 1.399 . S
C3078 C3079 1.385 . S
C3079 H3065 0.931 . S
C3079 C3078 1.385 . S
C3079 C3080 1.389 . S
C3080 C3079 1.389 . S
C3080 C3081 1.387 . S
C3081 H3066 0.930 . S
C3081 C3076 1.390 . S
C3081 C3080 1.387 . S
H3082 C3094 0.930 . S
H3083 C3096 0.930 . S
H3084 C3097 0.930 . S
H3085 C3101 0.959 . S
H3086 C3101 0.959 . S
H3087 C3101 0.961 . S
H3088 C3102 0.960 . S
H3089 C3102 0.961 . S
H3090 C3102 0.959 . S
H3091 C3105 0.929 . S
H3092 C3106 0.931 . S
H3093 C3108 0.930 . S
C3094 H3082 0.930 . S
C3094 C3095 1.399 . S
C3094 C3099 1.399 . S
C3095 C3094 1.399 . S
C3095 C3096 1.376 . S
C3096 H3083 0.930 . S
C3096 C3095 1.376 . S
C3096 C3097 1.388 . S
C3097 H3084 0.930 . S
C3097 C3096 1.388 . S
C3097 C3098 1.390 . S
C3098 C3097 1.390 . S
C3098 C3099 1.394 . S
C3098 C3104 1.465 . S
C3099 C3094 1.399 . S
C3099 C3098 1.394 . S
C3099 C3100 1.516 . S
C3100 C3099 1.516 . S
C3100 C3101 1.502 . S
C3100 C3102 1.561 . S
C3100 C3103 1.526 . S
C3101 H3085 0.959 . S
C3101 H3086 0.959 . S
C3101 H3087 0.961 . S
C3101 C3100 1.502 . S
C3102 H3088 0.960 . S
C3102 H3089 0.961 . S
C3102 H3090 0.959 . S
C3102 C3100 1.561 . S
C3103 C3100 1.526 . S
C3103 C3104 1.396 . S
C3103 C3108 1.390 . S
C3104 C3098 1.465 . S
C3104 C3103 1.396 . S
C3104 C3105 1.399 . S
C3105 H3091 0.929 . S
C3105 C3104 1.399 . S
C3105 C3106 1.385 . S
C3106 H3092 0.931 . S
C3106 C3105 1.385 . S
C3106 C3107 1.389 . S
C3107 C3106 1.389 . S
C3107 C3108 1.387 . S
C3108 H3093 0.930 . S
C3108 C3103 1.390 . S
C3108 C3107 1.387 . S
H3109 C3121 0.930 . S
H3110 C3123 0.930 . S
H3111 C3124 0.930 . S
H3112 C3128 0.959 . S
H3113 C3128 0.959 . S
H3114 C3128 0.961 . S
H3115 C3129 0.960 . S
H3116 C3129 0.961 . S
H3117 C3129 0.959 . S
H3118 C3132 0.929 . S
H3119 C3133 0.931 . S
H3120 C3135 0.930 . S
C3121 H3109 0.930 . S
C3121 C3122 1.399 . S
C3121 C3126 1.399 . S
C3122 C3121 1.399 . S
C3122 C3123 1.376 . S
C3123 H3110 0.930 . S
C3123 C3122 1.376 . S
C3123 C3124 1.388 . S
C3124 H3111 0.930 . S
C3124 C3123 1.388 . S
C3124 C3125 1.390 . S
C3125 C3124 1.390 . S
C3125 C3126 1.394 . S
C3125 C3131 1.465 . S
C3126 C3121 1.399 . S
C3126 C3125 1.394 . S
C3126 C3127 1.516 . S
C3127 C3126 1.516 . S
C3127 C3128 1.502 . S
C3127 C3129 1.561 . S
C3127 C3130 1.526 . S
C3128 H3112 0.959 . S
C3128 H3113 0.959 . S
C3128 H3114 0.961 . S
C3128 C3127 1.502 . S
C3129 H3115 0.960 . S
C3129 H3116 0.961 . S
C3129 H3117 0.959 . S
C3129 C3127 1.561 . S
C3130 C3127 1.526 . S
C3130 C3131 1.396 . S
C3130 C3135 1.390 . S
C3131 C3125 1.465 . S
C3131 C3130 1.396 . S
C3131 C3132 1.399 . S
C3132 H3118 0.929 . S
C3132 C3131 1.399 . S
C3132 C3133 1.385 . S
C3133 H3119 0.931 . S
C3133 C3132 1.385 . S
C3133 C3134 1.389 . S
C3134 C3133 1.389 . S
C3134 C3135 1.387 . S
C3135 H3120 0.930 . S
C3135 C3130 1.390 . S
C3135 C3134 1.387 . S
H3136 C3148 0.930 . S
H3137 C3150 0.930 . S
H3138 C3151 0.930 . S
H3139 C3155 0.959 . S
H3140 C3155 0.959 . S
H3141 C3155 0.961 . S
H3142 C3156 0.960 . S
H3143 C3156 0.961 . S
H3144 C3156 0.959 . S
H3145 C3159 0.929 . S
H3146 C3160 0.931 . S
H3147 C3162 0.930 . S
C3148 H3136 0.930 . S
C3148 C3149 1.399 . S
C3148 C3153 1.399 . S
C3149 C3148 1.399 . S
C3149 C3150 1.376 . S
C3150 H3137 0.930 . S
C3150 C3149 1.376 . S
C3150 C3151 1.388 . S
C3151 H3138 0.930 . S
C3151 C3150 1.388 . S
C3151 C3152 1.390 . S
C3152 C3151 1.390 . S
C3152 C3153 1.394 . S
C3152 C3158 1.465 . S
C3153 C3148 1.399 . S
C3153 C3152 1.394 . S
C3153 C3154 1.516 . S
C3154 C3153 1.516 . S
C3154 C3155 1.502 . S
C3154 C3156 1.561 . S
C3154 C3157 1.526 . S
C3155 H3139 0.959 . S
C3155 H3140 0.959 . S
C3155 H3141 0.961 . S
C3155 C3154 1.502 . S
C3156 H3142 0.960 . S
C3156 H3143 0.961 . S
C3156 H3144 0.959 . S
C3156 C3154 1.561 . S
C3157 C3154 1.526 . S
C3157 C3158 1.396 . S
C3157 C3162 1.390 . S
C3158 C3152 1.465 . S
C3158 C3157 1.396 . S
C3158 C3159 1.399 . S
C3159 H3145 0.929 . S
C3159 C3158 1.399 . S
C3159 C3160 1.385 . S
C3160 H3146 0.931 . S
C3160 C3159 1.385 . S
C3160 C3161 1.389 . S
C3161 C3160 1.389 . S
C3161 C3162 1.387 . S
C3162 H3147 0.930 . S
C3162 C3157 1.390 . S
C3162 C3161 1.387 . S
H3163 C3175 0.930 . S
H3164 C3177 0.930 . S
H3165 C3178 0.930 . S
H3166 C3182 0.959 . S
H3167 C3182 0.959 . S
H3168 C3182 0.961 . S
H3169 C3183 0.960 . S
H3170 C3183 0.961 . S
H3171 C3183 0.959 . S
H3172 C3186 0.929 . S
H3173 C3187 0.931 . S
H3174 C3189 0.930 . S
C3175 H3163 0.930 . S
C3175 C3176 1.399 . S
C3175 C3180 1.399 . S
C3176 C3175 1.399 . S
C3176 C3177 1.376 . S
C3177 H3164 0.930 . S
C3177 C3176 1.376 . S
C3177 C3178 1.388 . S
C3178 H3165 0.930 . S
C3178 C3177 1.388 . S
C3178 C3179 1.390 . S
C3179 C3178 1.390 . S
C3179 C3180 1.394 . S
C3179 C3185 1.465 . S
C3180 C3175 1.399 . S
C3180 C3179 1.394 . S
C3180 C3181 1.516 . S
C3181 C3180 1.516 . S
C3181 C3182 1.502 . S
C3181 C3183 1.561 . S
C3181 C3184 1.526 . S
C3182 H3166 0.959 . S
C3182 H3167 0.959 . S
C3182 H3168 0.961 . S
C3182 C3181 1.502 . S
C3183 H3169 0.960 . S
C3183 H3170 0.961 . S
C3183 H3171 0.959 . S
C3183 C3181 1.561 . S
C3184 C3181 1.526 . S
C3184 C3185 1.396 . S
C3184 C3189 1.390 . S
C3185 C3179 1.465 . S
C3185 C3184 1.396 . S
C3185 C3186 1.399 . S
C3186 H3172 0.929 . S
C3186 C3185 1.399 . S
C3186 C3187 1.385 . S
C3187 H3173 0.931 . S
C3187 C3186 1.385 . S
C3187 C3188 1.389 . S
C3188 C3187 1.389 . S
C3188 C3189 1.387 . S
C3189 H3174 0.930 . S
C3189 C3184 1.390 . S
C3189 C3188 1.387 . S
H3190 C3202 0.930 . S
H3191 C3204 0.930 . S
H3192 C3205 0.930 . S
H3193 C3209 0.959 . S
H3194 C3209 0.959 . S
H3195 C3209 0.961 . S
H3196 C3210 0.960 . S
H3197 C3210 0.961 . S
H3198 C3210 0.959 . S
H3199 C3213 0.929 . S
H3200 C3214 0.917 1_655 S
H3201 C3216 0.930 . S
C3202 H3190 0.930 . S
C3202 C3203 1.399 1_455 S
C3202 C3207 1.399 . S
C3203 C3202 1.399 1_655 S
C3203 C3204 1.376 . S
C3204 H3191 0.930 . S
C3204 C3203 1.376 . S
C3204 C3205 1.388 . S
C3205 H3192 0.930 . S
C3205 C3204 1.388 . S
C3205 C3206 1.390 . S
C3206 C3205 1.390 . S
C3206 C3207 1.394 1_655 S
C3206 C3212 1.465 1_655 S
C3207 C3202 1.399 . S
C3207 C3206 1.394 1_455 S
C3207 C3208 1.516 . S
C3208 C3207 1.516 . S
C3208 C3209 1.502 . S
C3208 C3210 1.561 . S
C3208 C3211 1.526 . S
C3209 H3193 0.959 . S
C3209 H3194 0.959 . S
C3209 H3195 0.961 . S
C3209 C3208 1.502 . S
C3210 H3196 0.960 . S
C3210 H3197 0.961 . S
C3210 H3198 0.959 . S
C3210 C3208 1.561 . S
C3211 C3208 1.526 . S
C3211 C3212 1.396 . S
C3211 C3216 1.390 . S
C3212 C3206 1.465 1_455 S
C3212 C3211 1.396 . S
C3212 C3213 1.399 1_455 S
C3213 H3199 0.929 . S
C3213 C3212 1.399 1_655 S
C3213 C3214 1.385 1_655 S
C3214 H3200 0.917 1_455 S
C3214 C3213 1.385 1_455 S
C3214 C3215 1.389 . S
C3215 C3214 1.389 . S
C3215 C3216 1.387 . S
C3216 H3201 0.930 . S
C3216 C3211 1.390 . S
C3216 C3215 1.387 . S
H3217 C3229 0.930 . S
H3218 C3231 0.930 . S
H3219 C3232 0.930 . S
H3220 C3236 0.959 . S
H3221 C3236 0.959 . S
H3222 C3236 0.961 . S
H3223 C3237 0.960 . S
H3224 C3237 0.961 . S
H3225 C3237 0.959 . S
H3226 C3240 0.929 . S
H3227 C3241 0.931 . S
H3228 C3243 0.930 . S
C3229 H3217 0.930 . S
C3229 C3230 1.399 . S
C3229 C3234 1.399 . S
C3230 C3229 1.399 . S
C3230 C3231 1.376 . S
C3231 H3218 0.930 . S
C3231 C3230 1.376 . S
C3231 C3232 1.388 . S
C3232 H3219 0.930 . S
C3232 C3231 1.388 . S
C3232 C3233 1.390 . S
C3233 C3232 1.390 . S
C3233 C3234 1.394 . S
C3233 C3239 1.465 . S
C3234 C3229 1.399 . S
C3234 C3233 1.394 . S
C3234 C3235 1.516 . S
C3235 C3234 1.516 . S
C3235 C3236 1.502 . S
C3235 C3237 1.561 . S
C3235 C3238 1.526 . S
C3236 H3220 0.959 . S
C3236 H3221 0.959 . S
C3236 H3222 0.961 . S
C3236 C3235 1.502 . S
C3237 H3223 0.960 . S
C3237 H3224 0.961 . S
C3237 H3225 0.959 . S
C3237 C3235 1.561 . S
C3238 C3235 1.526 . S
C3238 C3239 1.396 . S
C3238 C3243 1.390 . S
C3239 C3233 1.465 . S
C3239 C3238 1.396 . S
C3239 C3240 1.399 . S
C3240 H3226 0.929 . S
C3240 C3239 1.399 . S
C3240 C3241 1.385 . S
C3241 H3227 0.931 . S
C3241 C3240 1.385 . S
C3241 C3242 1.389 . S
C3242 C3241 1.389 . S
C3242 C3243 1.387 . S
C3243 H3228 0.930 . S
C3243 C3238 1.390 . S
C3243 C3242 1.387 . S
H3244 C3256 0.930 . S
H3245 C3258 0.930 . S
H3246 C3259 0.930 . S
H3247 C3263 0.959 . S
H3248 C3263 0.959 . S
H3249 C3263 0.961 . S
H3250 C3264 0.960 . S
H3251 C3264 0.961 . S
H3252 C3264 0.959 . S
H3253 C3267 0.929 . S
H3254 C3268 0.931 . S
H3255 C3270 0.930 . S
C3256 H3244 0.930 . S
C3256 C3257 1.399 . S
C3256 C3261 1.399 . S
C3257 C3256 1.399 . S
C3257 C3258 1.376 . S
C3258 H3245 0.930 . S
C3258 C3257 1.376 . S
C3258 C3259 1.388 . S
C3259 H3246 0.930 . S
C3259 C3258 1.388 . S
C3259 C3260 1.390 . S
C3260 C3259 1.390 . S
C3260 C3261 1.394 . S
C3260 C3266 1.465 . S
C3261 C3256 1.399 . S
C3261 C3260 1.394 . S
C3261 C3262 1.516 . S
C3262 C3261 1.516 . S
C3262 C3263 1.502 . S
C3262 C3264 1.561 . S
C3262 C3265 1.526 . S
C3263 H3247 0.959 . S
C3263 H3248 0.959 . S
C3263 H3249 0.961 . S
C3263 C3262 1.502 . S
C3264 H3250 0.960 . S
C3264 H3251 0.961 . S
C3264 H3252 0.959 . S
C3264 C3262 1.561 . S
C3265 C3262 1.526 . S
C3265 C3266 1.396 . S
C3265 C3270 1.390 . S
C3266 C3260 1.465 . S
C3266 C3265 1.396 . S
C3266 C3267 1.399 . S
C3267 H3253 0.929 . S
C3267 C3266 1.399 . S
C3267 C3268 1.385 . S
C3268 H3254 0.931 . S
C3268 C3267 1.385 . S
C3268 C3269 1.389 . S
C3269 C3268 1.389 . S
C3269 C3270 1.387 . S
C3270 H3255 0.930 . S
C3270 C3265 1.390 . S
C3270 C3269 1.387 . S
H3271 C3283 0.955 . S
H3272 C3285 0.930 . S
H3273 C3286 0.930 . S
H3274 C3290 0.959 . S
H3275 C3290 0.959 . S
H3276 C3290 0.961 . S
H3277 C3291 0.960 . S
H3278 C3291 0.961 . S
H3279 C3291 0.959 . S
H3280 C3294 0.929 . S
H3281 C3295 0.931 . S
H3282 C3297 0.930 . S
C3283 H3271 0.955 . S
C3283 C3284 1.405 . S
C3283 C3288 1.368 1_554 S
C3284 C3283 1.405 . S
C3284 C3285 1.376 1_554 S
C3285 H3272 0.930 . S
C3285 C3284 1.376 1_556 S
C3285 C3286 1.388 . S
C3286 H3273 0.930 . S
C3286 C3285 1.388 . S
C3286 C3287 1.390 . S
C3287 C3286 1.390 . S
C3287 C3288 1.394 . S
C3287 C3293 1.465 . S
C3288 C3283 1.368 1_556 S
C3288 C3287 1.394 . S
C3288 C3289 1.516 . S
C3289 C3288 1.516 . S
C3289 C3290 1.502 . S
C3289 C3291 1.561 . S
C3289 C3292 1.526 . S
C3290 H3274 0.959 . S
C3290 H3275 0.959 . S
C3290 H3276 0.961 . S
C3290 C3289 1.502 . S
C3291 H3277 0.960 . S
C3291 H3278 0.961 . S
C3291 H3279 0.959 . S
C3291 C3289 1.561 . S
C3292 C3289 1.526 . S
C3292 C3293 1.396 . S
C3292 C3297 1.390 . S
C3293 C3287 1.465 . S
C3293 C3292 1.396 . S
C3293 C3294 1.399 . S
C3294 H3280 0.929 . S
C3294 C3293 1.399 . S
C3294 C3295 1.385 . S
C3295 H3281 0.931 . S
C3295 C3294 1.385 . S
C3295 C3296 1.389 . S
C3296 C3295 1.389 . S
C3296 C3297 1.387 . S
C3297 H3282 0.930 . S
C3297 C3292 1.390 . S
C3297 C3296 1.387 . S
H3298 C3310 0.930 . S
H3299 C3312 0.930 . S
H3300 C3313 0.930 . S
H3301 C3317 0.959 . S
H3302 C3317 0.959 . S
H3303 C3317 0.961 . S
H3304 C3318 0.960 . S
H3305 C3318 0.961 . S
H3306 C3318 0.959 1_455 S
H3307 C3321 0.929 . S
H3308 C3322 0.931 . S
H3309 C3324 0.930 1_655 S
C3310 H3298 0.930 . S
C3310 C3311 1.399 . S
C3310 C3315 1.399 . S
C3311 C3310 1.399 . S
C3311 C3312 1.376 1_655 S
C3312 H3299 0.930 . S
C3312 C3311 1.376 1_455 S
C3312 C3313 1.388 . S
C3313 H3300 0.930 . S
C3313 C3312 1.388 . S
C3313 C3314 1.390 . S
C3314 C3313 1.390 . S
C3314 C3315 1.394 1_455 S
C3314 C3320 1.465 . S
C3315 C3310 1.399 . S
C3315 C3314 1.394 1_655 S
C3315 C3316 1.516 . S
C3316 C3315 1.516 . S
C3316 C3317 1.502 . S
C3316 C3318 1.561 . S
C3316 C3319 1.546 . S
C3317 H3301 0.959 . S
C3317 H3302 0.959 . S
C3317 H3303 0.961 . S
C3317 C3316 1.502 . S
C3318 H3304 0.960 . S
C3318 H3305 0.961 . S
C3318 H3306 0.959 1_655 S
C3318 C3316 1.561 . S
C3319 C3316 1.546 . S
C3319 C3320 1.384 1_655 S
C3319 C3324 1.381 1_655 S
C3320 C3314 1.465 . S
C3320 C3319 1.384 1_455 S
C3320 C3321 1.399 . S
C3321 H3307 0.929 . S
C3321 C3320 1.399 . S
C3321 C3322 1.385 . S
C3322 H3308 0.931 . S
C3322 C3321 1.385 . S
C3322 C3323 1.389 . S
C3323 C3322 1.389 . S
C3323 C3324 1.387 . S
C3324 H3309 0.930 1_455 S
C3324 C3319 1.381 1_455 S
C3324 C3323 1.387 . S
H3325 C3337 0.930 . S
H3326 C3339 0.930 . S
H3327 C3340 0.930 . S
H3328 C3344 0.959 . S
H3329 C3344 0.959 . S
H3330 C3344 0.961 . S
H3331 C3345 0.960 . S
H3332 C3345 0.961 . S
H3333 C3345 0.959 . S
H3334 C3348 0.929 . S
H3335 C3349 0.931 . S
H3336 C3351 0.930 . S
C3337 H3325 0.930 . S
C3337 C3338 1.399 . S
C3337 C3342 1.399 . S
C3338 C3337 1.399 . S
C3338 C3339 1.376 . S
C3339 H3326 0.930 . S
C3339 C3338 1.376 . S
C3339 C3340 1.388 . S
C3340 H3327 0.930 . S
C3340 C3339 1.388 . S
C3340 C3341 1.390 . S
C3341 C3340 1.390 . S
C3341 C3342 1.394 . S
C3341 C3347 1.465 . S
C3342 C3337 1.399 . S
C3342 C3341 1.394 . S
C3342 C3343 1.516 . S
C3343 C3342 1.516 . S
C3343 C3344 1.502 . S
C3343 C3345 1.561 . S
C3343 C3346 1.526 . S
C3344 H3328 0.959 . S
C3344 H3329 0.959 . S
C3344 H3330 0.961 . S
C3344 C3343 1.502 . S
C3345 H3331 0.960 . S
C3345 H3332 0.961 . S
C3345 H3333 0.959 . S
C3345 C3343 1.561 . S
C3346 C3343 1.526 . S
C3346 C3347 1.396 . S
C3346 C3351 1.390 . S
C3347 C3341 1.465 . S
C3347 C3346 1.396 . S
C3347 C3348 1.399 . S
C3348 H3334 0.929 . S
C3348 C3347 1.399 . S
C3348 C3349 1.385 . S
C3349 H3335 0.931 . S
C3349 C3348 1.385 . S
C3349 C3350 1.389 . S
C3350 C3349 1.389 . S
C3350 C3351 1.387 . S
C3351 H3336 0.930 . S
C3351 C3346 1.390 . S
C3351 C3350 1.387 . S
H3352 C3364 0.930 . S
H3353 C3366 0.930 . S
H3354 C3367 0.930 . S
H3355 C3371 0.959 . S
H3356 C3371 0.959 . S
H3357 C3371 0.961 . S
H3358 C3372 0.960 . S
H3359 C3372 0.961 . S
H3360 C3372 0.959 . S
H3361 C3375 0.929 . S
H3362 C3376 0.931 . S
H3363 C3378 0.930 . S
C3364 H3352 0.930 . S
C3364 C3365 1.399 . S
C3364 C3369 1.399 . S
C3365 C3364 1.399 . S
C3365 C3366 1.376 . S
C3366 H3353 0.930 . S
C3366 C3365 1.376 . S
C3366 C3367 1.388 . S
C3367 H3354 0.930 . S
C3367 C3366 1.388 . S
C3367 C3368 1.390 . S
C3368 C3367 1.390 . S
C3368 C3369 1.394 . S
C3368 C3374 1.465 . S
C3369 C3364 1.399 . S
C3369 C3368 1.394 . S
C3369 C3370 1.516 . S
C3370 C3369 1.516 . S
C3370 C3371 1.502 . S
C3370 C3372 1.561 . S
C3370 C3373 1.526 . S
C3371 H3355 0.959 . S
C3371 H3356 0.959 . S
C3371 H3357 0.961 . S
C3371 C3370 1.502 . S
C3372 H3358 0.960 . S
C3372 H3359 0.961 . S
C3372 H3360 0.959 . S
C3372 C3370 1.561 . S
C3373 C3370 1.526 . S
C3373 C3374 1.396 . S
C3373 C3378 1.390 . S
C3374 C3368 1.465 . S
C3374 C3373 1.396 . S
C3374 C3375 1.399 . S
C3375 H3361 0.929 . S
C3375 C3374 1.399 . S
C3375 C3376 1.385 . S
C3376 H3362 0.931 . S
C3376 C3375 1.385 . S
C3376 C3377 1.389 . S
C3377 C3376 1.389 . S
C3377 C3378 1.387 . S
C3378 H3363 0.930 . S
C3378 C3373 1.390 . S
C3378 C3377 1.387 . S
H3379 C3391 0.930 . S
H3380 C3393 0.930 . S
H3381 C3394 0.930 . S
H3382 C3398 0.959 . S
H3383 C3398 0.959 . S
H3384 C3398 0.961 . S
H3385 C3399 0.960 . S
H3386 C3399 0.961 . S
H3387 C3399 0.959 . S
H3388 C3402 0.929 . S
H3389 C3403 0.931 . S
H3390 C3405 0.930 . S
C3391 H3379 0.930 . S
C3391 C3392 1.399 . S
C3391 C3396 1.399 . S
C3392 C3391 1.399 . S
C3392 C3393 1.376 . S
C3393 H3380 0.930 . S
C3393 C3392 1.376 . S
C3393 C3394 1.388 . S
C3394 H3381 0.930 . S
C3394 C3393 1.388 . S
C3394 C3395 1.390 . S
C3395 C3394 1.390 . S
C3395 C3396 1.394 . S
C3395 C3401 1.465 . S
C3396 C3391 1.399 . S
C3396 C3395 1.394 . S
C3396 C3397 1.516 . S
C3397 C3396 1.516 . S
C3397 C3398 1.502 . S
C3397 C3399 1.561 1_545 S
C3397 C3400 1.526 . S
C3398 H3382 0.959 . S
C3398 H3383 0.959 . S
C3398 H3384 0.961 . S
C3398 C3397 1.502 . S
C3399 H3385 0.960 . S
C3399 H3386 0.961 . S
C3399 H3387 0.959 . S
C3399 C3397 1.561 1_565 S
C3400 C3397 1.526 . S
C3400 C3401 1.396 . S
C3400 C3405 1.390 . S
C3401 C3395 1.465 . S
C3401 C3400 1.396 . S
C3401 C3402 1.399 . S
C3402 H3388 0.929 . S
C3402 C3401 1.399 . S
C3402 C3403 1.385 . S
C3403 H3389 0.931 . S
C3403 C3402 1.385 . S
C3403 C3404 1.389 . S
C3404 C3403 1.389 . S
C3404 C3405 1.387 . S
C3405 H3390 0.930 . S
C3405 C3400 1.390 . S
C3405 C3404 1.387 . S
H3406 C3418 0.930 . S
H3407 C3420 0.930 . S
H3408 C3421 0.930 . S
H3409 C3425 0.959 . S
H3410 C3425 0.959 . S
H3411 C3425 0.961 . S
H3412 C3426 0.960 . S
H3413 C3426 0.961 . S
H3414 C3426 0.959 . S
H3415 C3429 0.929 . S
H3416 C3430 0.931 . S
H3417 C3432 0.930 . S
C3418 H3406 0.930 . S
C3418 C3419 1.399 . S
C3418 C3423 1.399 . S
C3419 C3418 1.399 . S
C3419 C3420 1.376 . S
C3420 H3407 0.930 . S
C3420 C3419 1.376 . S
C3420 C3421 1.388 . S
C3421 H3408 0.930 . S
C3421 C3420 1.388 . S
C3421 C3422 1.390 . S
C3422 C3421 1.390 . S
C3422 C3423 1.394 . S
C3422 C3428 1.465 . S
C3423 C3418 1.399 . S
C3423 C3422 1.394 . S
C3423 C3424 1.516 . S
C3424 C3423 1.516 . S
C3424 C3425 1.502 . S
C3424 C3426 1.561 . S
C3424 C3427 1.526 . S
C3425 H3409 0.959 . S
C3425 H3410 0.959 . S
C3425 H3411 0.961 . S
C3425 C3424 1.502 . S
C3426 H3412 0.960 . S
C3426 H3413 0.961 . S
C3426 H3414 0.959 . S
C3426 C3424 1.561 . S
C3427 C3424 1.526 . S
C3427 C3428 1.396 . S
C3427 C3432 1.390 . S
C3428 C3422 1.465 . S
C3428 C3427 1.396 . S
C3428 C3429 1.399 . S
C3429 H3415 0.929 . S
C3429 C3428 1.399 . S
C3429 C3430 1.385 . S
C3430 H3416 0.931 . S
C3430 C3429 1.385 . S
C3430 C3431 1.389 . S
C3431 C3430 1.389 . S
C3431 C3432 1.387 . S
C3432 H3417 0.930 . S
C3432 C3427 1.390 . S
C3432 C3431 1.387 . S
H3433 C3445 0.930 . S
H3434 C3447 0.930 . S
H3435 C3448 0.930 . S
H3436 C3452 0.959 . S
H3437 C3452 0.959 . S
H3438 C3452 0.961 . S
H3439 C3453 0.934 1_556 S
H3440 C3453 0.949 1_556 S
H3441 C3453 0.967 1_556 S
H3442 C3456 0.929 . S
H3443 C3457 0.931 . S
H3444 C3459 0.930 . S
C3445 H3433 0.930 . S
C3445 C3446 1.399 . S
C3445 C3450 1.399 . S
C3446 C3445 1.399 . S
C3446 C3447 1.376 . S
C3447 H3434 0.930 . S
C3447 C3446 1.376 . S
C3447 C3448 1.388 . S
C3448 H3435 0.930 . S
C3448 C3447 1.388 . S
C3448 C3449 1.390 . S
C3449 C3448 1.390 . S
C3449 C3450 1.394 . S
C3449 C3455 1.465 . S
C3450 C3445 1.399 . S
C3450 C3449 1.394 . S
C3450 C3451 1.516 . S
C3451 C3450 1.516 . S
C3451 C3452 1.502 . S
C3451 C3453 1.598 . S
C3451 C3454 1.526 . S
C3452 H3436 0.959 . S
C3452 H3437 0.959 . S
C3452 H3438 0.961 . S
C3452 C3451 1.502 . S
C3453 H3439 0.934 1_554 S
C3453 H3440 0.949 1_554 S
C3453 H3441 0.967 1_554 S
C3453 C3451 1.598 . S
C3454 C3451 1.526 . S
C3454 C3455 1.396 . S
C3454 C3459 1.390 . S
C3455 C3449 1.465 . S
C3455 C3454 1.396 . S
C3455 C3456 1.399 . S
C3456 H3442 0.929 . S
C3456 C3455 1.399 . S
C3456 C3457 1.385 . S
C3457 H3443 0.931 . S
C3457 C3456 1.385 . S
C3457 C3458 1.389 . S
C3458 C3457 1.389 . S
C3458 C3459 1.387 . S
C3459 H3444 0.930 . S
C3459 C3454 1.390 . S
C3459 C3458 1.387 . S
H3460 C3472 0.930 . S
H3461 C3474 0.930 . S
H3462 C3475 0.930 . S
H3463 C3479 0.959 . S
H3464 C3479 0.959 . S
H3465 C3479 0.961 . S
H3466 C3480 0.960 . S
H3467 C3480 0.961 . S
H3468 C3480 0.959 . S
H3469 C3483 0.929 . S
H3470 C3484 0.931 . S
H3471 C3486 0.930 . S
C3472 H3460 0.930 . S
C3472 C3473 1.399 . S
C3472 C3477 1.399 . S
C3473 C3472 1.399 . S
C3473 C3474 1.376 . S
C3474 H3461 0.930 . S
C3474 C3473 1.376 . S
C3474 C3475 1.388 . S
C3475 H3462 0.930 . S
C3475 C3474 1.388 . S
C3475 C3476 1.390 . S
C3476 C3475 1.390 . S
C3476 C3477 1.394 . S
C3476 C3482 1.465 . S
C3477 C3472 1.399 . S
C3477 C3476 1.394 . S
C3477 C3478 1.516 . S
C3478 C3477 1.516 . S
C3478 C3479 1.502 . S
C3478 C3480 1.561 . S
C3478 C3481 1.526 . S
C3479 H3463 0.959 . S
C3479 H3464 0.959 . S
C3479 H3465 0.961 . S
C3479 C3478 1.502 . S
C3480 H3466 0.960 . S
C3480 H3467 0.961 . S
C3480 H3468 0.959 . S
C3480 C3478 1.561 . S
C3481 C3478 1.526 . S
C3481 C3482 1.396 . S
C3481 C3486 1.390 . S
C3482 C3476 1.465 . S
C3482 C3481 1.396 . S
C3482 C3483 1.399 . S
C3483 H3469 0.929 . S
C3483 C3482 1.399 . S
C3483 C3484 1.385 . S
C3484 H3470 0.931 . S
C3484 C3483 1.385 . S
C3484 C3485 1.389 . S
C3485 C3484 1.389 . S
C3485 C3486 1.387 . S
C3486 H3471 0.930 . S
C3486 C3481 1.390 . S
C3486 C3485 1.387 . S
H3487 C3499 0.930 . S
H3488 C3501 0.930 . S
H3489 C3502 0.930 . S
H3490 C3506 0.959 . S
H3491 C3506 0.959 . S
H3492 C3506 0.961 . S
H3493 C3507 0.960 . S
H3494 C3507 0.961 . S
H3495 C3507 0.959 . S
H3496 C3510 0.929 . S
H3497 C3511 0.931 . S
H3498 C3513 0.930 . S
C3499 H3487 0.930 . S
C3499 C3500 1.399 . S
C3499 C3504 1.399 . S
C3500 C3499 1.399 . S
C3500 C3501 1.376 . S
C3501 H3488 0.930 . S
C3501 C3500 1.376 . S
C3501 C3502 1.388 . S
C3502 H3489 0.930 . S
C3502 C3501 1.388 . S
C3502 C3503 1.390 . S
C3503 C3502 1.390 . S
C3503 C3504 1.394 . S
C3503 C3509 1.465 . S
C3504 C3499 1.399 . S
C3504 C3503 1.394 . S
C3504 C3505 1.516 . S
C3505 C3504 1.516 . S
C3505 C3506 1.502 . S
C3505 C3507 1.561 . S
C3505 C3508 1.526 . S
C3506 H3490 0.959 . S
C3506 H3491 0.959 . S
C3506 H3492 0.961 . S
C3506 C3505 1.502 . S
C3507 H3493 0.960 . S
C3507 H3494 0.961 . S
C3507 H3495 0.959 . S
C3507 C3505 1.561 . S
C3508 C3505 1.526 . S
C3508 C3509 1.396 . S
C3508 C3513 1.390 . S
C3509 C3503 1.465 . S
C3509 C3508 1.396 . S
C3509 C3510 1.399 . S
C3510 H3496 0.929 . S
C3510 C3509 1.399 . S
C3510 C3511 1.385 . S
C3511 H3497 0.931 . S
C3511 C3510 1.385 . S
C3511 C3512 1.389 . S
C3512 C3511 1.389 . S
C3512 C3513 1.387 . S
C3513 H3498 0.930 . S
C3513 C3508 1.390 . S
C3513 C3512 1.387 . S
H3514 C3526 0.930 . S
H3515 C3528 0.929 1_545 S
H3516 C3529 0.930 . S
H3517 C3533 0.959 . S
H3518 C3533 0.959 . S
H3519 C3533 0.961 . S
H3520 C3534 0.960 . S
H3521 C3534 0.961 . S
H3522 C3534 0.959 . S
H3523 C3537 0.929 . S
H3524 C3538 0.931 . S
H3525 C3540 0.930 . S
C3526 H3514 0.930 . S
C3526 C3527 1.399 . S
C3526 C3531 1.399 1_545 S
C3527 C3526 1.399 . S
C3527 C3528 1.376 1_545 S
C3528 H3515 0.929 1_565 S
C3528 C3527 1.376 1_565 S
C3528 C3529 1.390 . S
C3529 H3516 0.930 . S
C3529 C3528 1.390 . S
C3529 C3530 1.390 . S
C3530 C3529 1.390 . S
C3530 C3531 1.394 . S
C3530 C3536 1.465 . S
C3531 C3526 1.399 1_565 S
C3531 C3530 1.394 . S
C3531 C3532 1.516 . S
C3532 C3531 1.516 . S
C3532 C3533 1.502 . S
C3532 C3534 1.561 . S
C3532 C3535 1.526 . S
C3533 H3517 0.959 . S
C3533 H3518 0.959 . S
C3533 H3519 0.961 . S
C3533 C3532 1.502 . S
C3534 H3520 0.960 . S
C3534 H3521 0.961 . S
C3534 H3522 0.959 . S
C3534 C3532 1.561 . S
C3535 C3532 1.526 . S
C3535 C3536 1.396 . S
C3535 C3540 1.390 . S
C3536 C3530 1.465 . S
C3536 C3535 1.396 . S
C3536 C3537 1.399 . S
C3537 H3523 0.929 . S
C3537 C3536 1.399 . S
C3537 C3538 1.385 . S
C3538 H3524 0.931 . S
C3538 C3537 1.385 . S
C3538 C3539 1.389 . S
C3539 C3538 1.389 . S
C3539 C3540 1.387 . S
C3540 H3525 0.930 . S
C3540 C3535 1.390 . S
C3540 C3539 1.387 . S
H3541 C3553 0.930 . S
H3542 C3555 0.930 . S
H3543 C3556 0.930 . S
H3544 C3560 0.959 . S
H3545 C3560 0.959 . S
H3546 C3560 0.961 . S
H3547 C3561 0.960 . S
H3548 C3561 0.961 . S
H3549 C3561 0.959 . S
H3550 C3564 0.929 . S
H3551 C3565 0.931 . S
H3552 C3567 0.930 . S
C3553 H3541 0.930 . S
C3553 C3554 1.399 . S
C3553 C3558 1.399 . S
C3554 C3553 1.399 . S
C3554 C3555 1.376 . S
C3555 H3542 0.930 . S
C3555 C3554 1.376 . S
C3555 C3556 1.388 . S
C3556 H3543 0.930 . S
C3556 C3555 1.388 . S
C3556 C3557 1.390 . S
C3557 C3556 1.390 . S
C3557 C3558 1.394 . S
C3557 C3563 1.465 . S
C3558 C3553 1.399 . S
C3558 C3557 1.394 . S
C3558 C3559 1.516 . S
C3559 C3558 1.516 . S
C3559 C3560 1.502 . S
C3559 C3561 1.561 . S
C3559 C3562 1.526 . S
C3560 H3544 0.959 . S
C3560 H3545 0.959 . S
C3560 H3546 0.961 . S
C3560 C3559 1.502 . S
C3561 H3547 0.960 . S
C3561 H3548 0.961 . S
C3561 H3549 0.959 . S
C3561 C3559 1.561 . S
C3562 C3559 1.526 . S
C3562 C3563 1.396 . S
C3562 C3567 1.390 . S
C3563 C3557 1.465 . S
C3563 C3562 1.396 . S
C3563 C3564 1.399 . S
C3564 H3550 0.929 . S
C3564 C3563 1.399 . S
C3564 C3565 1.385 . S
C3565 H3551 0.931 . S
C3565 C3564 1.385 . S
C3565 C3566 1.389 . S
C3566 C3565 1.389 . S
C3566 C3567 1.387 . S
C3567 H3552 0.930 . S
C3567 C3562 1.390 . S
C3567 C3566 1.387 . S
C989 C109 1.206 . S
C1001 C342 1.164 . S
C1016 C61 1.750 . S
C1028 C394 1.800 . S
C1043 C74 1.274 . S
C1055 C426 1.300 . S
C1082 C475 2.525 . S
C1070 C96 2.536 . S
C1097 C25 1.042 1_455 S
C1109 C511 0.973 . S
C1136 C542 0.498 . S
C1124 C40 0.201 . S
C1163 C594 0.186 . S
C1151 C46 0.171 . S
C1178 C5 1.024 . S
C1190 C622 1.404 . S
C1217 C354 1.770 . S
C1205 C229 1.559 . S
C1232 C249 1.638 . S
C1244 C395 1.634 . S
C1271 C425 1.717 . S
C1259 C271 1.789 . S
C1298 C462 0.620 . S
C1286 C172 0.501 . S
C1313 C236 1.770 . S
C1325 C506 1.773 1_655 S
C1352 C554 2.047 . S
C1340 C242 2.120 . S
C1379 C595 1.539 1_556 S
C1367 C278 1.572 . S
C1406 C634 1.623 . S
C1394 C179 1.702 . S
C1433 C355 2.235 . S
C1421 C159 1.824 . S
C1448 C285 1.654 1_554 S
C1460 C665 1.604 . S
C1487 C715 2.307 . S
C1475 C333 2.305 . S
C1514 C742 0.891 . S
C1502 C320 0.896 . S
C1529 C123 2.366 . S
C1541 C635 2.357 . S
C1556 C138 1.321 . S
C1568 C431 1.283 . S
C1583 C326 2.623 . S
C1595 C794 2.499 . S
C1622 C822 1.127 . S
C1610 C298 1.133 . S
C1649 C351 1.285 . S
C1637 C67 1.290 . S
C1676 C825 1.869 . S
C1664 C110 1.942 1_655 S
C1691 C88 1.271 . S
C1703 C435 1.299 . S
C1718 C75 2.136 . S
C1730 C786 2.462 . S
C1757 C502 0.960 . S
C1745 C11 1.075 . S
C1772 C47 0.870 . S
C1784 C711 0.408 . S
C1811 C585 0.332 . S
C1799 C32 0.659 . S
C1838 C871 1.757 . S
C1826 C26 1.838 . S
C1865 C345 1.809 1_556 S
C1853 C152 2.039 . S
C1892 C826 1.707 . S
C1880 C319 1.562 . S
C1907 C124 1.826 . S
C1919 C434 1.789 . S
C1934 C284 0.577 . S
C1946 C791 0.513 . S
C1961 C145 1.636 . S
C1973 C515 1.781 . S
C2000 C705 2.008 . S
C1988 C312 1.932 . S
C2015 C117 1.424 . S
C2027 C586 1.489 . S
C2042 C291 1.777 . S
C2054 C865 1.687 . S
C2069 C194 2.240 . S
C2081 C346 2.255 . S
C2096 C180 1.544 . S
C2108 C674 1.574 . S
C2123 C263 2.145 . S
C2135 C546 2.155 . S
C2150 C243 0.808 . S
C2162 C751 0.832 . S
C2189 C866 2.466 . S
C2177 C277 2.404 . S
C2204 C215 1.369 . S
C2216 C422 1.278 . S
C2243 C465 2.452 . S
C2231 C256 2.457 . S
C2270 C391 1.194 . S
C2258 C200 1.291 . S
C2285 C81 1.159 . S
C2297 C902 1.127 . S
C2324 C834 1.821 . S
C2312 C89 1.780 . S
C2339 C102 1.330 . S
C2351 C946 1.360 . S
C2366 C68 2.533 1_655 S
C2378 C795 2.546 . S
C2393 C53 1.034 . S
C2405 C671 0.991 . S
C2432 C702 0.412 . S
C2420 C12 0.530 . S
C2459 C754 0.431 . S
C2447 C18 0.369 . S
C2486 C862 1.179 . S
C2474 C33 0.735 . S
C2513 C914 1.731 . S
C2501 C257 1.532 . S
C2528 C193 1.677 1_556 S
C2540 C835 1.671 . S
C2567 C945 1.723 . S
C2555 C201 1.785 . S
C2594 C782 0.536 . S
C2582 C214 0.475 . S
C2621 C666 1.803 1_556 S
C2609 C264 1.785 . S
C2636 C186 2.184 . S
C2648 C714 2.126 . S
C2675 C755 1.583 . S
C2663 C208 1.545 . S
C2690 C221 1.679 . S
C2702 C874 1.559 . S
C2729 C915 2.214 . S
C2717 C313 1.861 . S
C2744 C131 1.723 . S
C2756 C505 1.665 . S
C2783 C555 2.288 . S
C2771 C151 2.292 1_565 S
C2810 C582 0.951 . S
C2798 C166 0.934 . S
C2837 C875 2.329 . S
C2825 C305 2.342 . S
C2852 C292 1.237 . S
C2864 C951 1.164 . S
C2891 C474 2.507 . S
C2879 C144 2.630 . S
C2918 C382 1.135 . S
C2906 C116 1.108 . S
C2933 C95 1.310 . S
C2945 C911 1.179 . S
C2972 C385 1.807 . S
C2960 C82 1.943 . S
C2987 C60 1.305 . S
C2999 C955 1.334 . S
C3014 C103 2.149 . S
C3026 C466 2.474 . S
C3041 C39 1.037 . S
C3053 C662 0.941 . S
C3080 C551 0.524 . S
C3068 C19 0.725 . S
C3095 C4 0.620 . S
C3107 C745 0.322 . S
C3122 C54 1.773 . S
C3134 C631 1.684 . S
C3161 C905 1.877 . S
C3149 C334 2.001 . S
C3176 C165 1.647 . S
C3188 C386 1.689 . S
C3215 C954 1.753 1_556 S
C3203 C306 1.851 . S
C3230 C130 0.517 . S
C3242 C471 0.702 . S
C3257 C327 1.635 . S
C3269 C675 1.842 . S
C3296 C545 2.074 . S
C3284 C158 2.009 . S
C3311 C299 1.334 . S
C3323 C746 1.445 . S
C3350 C625 1.571 . S
C3338 C137 1.786 . S
C3377 C906 2.252 . S
C3365 C250 2.262 . S
C3404 C514 1.574 . S
C3392 C222 1.530 . S
C3419 C235 2.109 . S
C3431 C706 2.155 . S
C3458 C591 0.862 . S
C3446 C187 0.802 . S
C3473 C207 2.451 . S
C3485 C626 2.422 . S
C3500 C173 1.258 . S
C3512 C942 1.160 . S
C3539 C785 2.457 . S
C3527 C228 2.454 . S
C3566 C831 1.232 . S
C3554 C270 1.244 . S
