# Generated by pormake.
# Topology the, (3,8)-cn, num edge types: 1
# Building blocks:
#     Node 0, Type 0, BuildingBlock: OLANEW_clean_sbu_2, # of connection points: 3
#     Node 1, Type 0, BuildingBlock: OLANEW_clean_sbu_2, # of connection points: 3
#     Node 2, Type 0, BuildingBlock: OLANEW_clean_sbu_2, # of connection points: 3
#     Node 3, Type 0, BuildingBlock: OLANEW_clean_sbu_2, # of connection points: 3
#     Node 4, Type 0, BuildingBlock: OLANEW_clean_sbu_2, # of connection points: 3
#     Node 5, Type 0, BuildingBlock: OLANEW_clean_sbu_2, # of connection points: 3
#     Node 6, Type 0, BuildingBlock: OLANEW_clean_sbu_2, # of connection points: 3
#     Node 7, Type 0, BuildingBlock: OLANEW_clean_sbu_2, # of connection points: 3
#     Node 8, Type 1, BuildingBlock: GIZVER_clean_sbu_0, # of connection points: 8
#     Node 9, Type 1, BuildingBlock: GIZVER_clean_sbu_0, # of connection points: 8
#     Node 10, Type 1, BuildingBlock: GIZVER_clean_sbu_0, # of connection points: 8
#     Edge 11, Type (0, 1), BuildingBlock: XIVTED_clean_linker_0, # of connection points: 2
#     Edge 12, Type (0, 1), BuildingBlock: XIVTED_clean_linker_0, # of connection points: 2
#     Edge 13, Type (0, 1), BuildingBlock: XIVTED_clean_linker_0, # of connection points: 2
#     Edge 14, Type (0, 1), BuildingBlock: XIVTED_clean_linker_0, # of connection points: 2
#     Edge 15, Type (0, 1), BuildingBlock: XIVTED_clean_linker_0, # of connection points: 2
#     Edge 16, Type (0, 1), BuildingBlock: XIVTED_clean_linker_0, # of connection points: 2
#     Edge 17, Type (0, 1), BuildingBlock: XIVTED_clean_linker_0, # of connection points: 2
#     Edge 18, Type (0, 1), BuildingBlock: XIVTED_clean_linker_0, # of connection points: 2
#     Edge 19, Type (0, 1), BuildingBlock: XIVTED_clean_linker_0, # of connection points: 2
#     Edge 20, Type (0, 1), BuildingBlock: XIVTED_clean_linker_0, # of connection points: 2
#     Edge 21, Type (0, 1), BuildingBlock: XIVTED_clean_linker_0, # of connection points: 2
#     Edge 22, Type (0, 1), BuildingBlock: XIVTED_clean_linker_0, # of connection points: 2
#     Edge 23, Type (0, 1), BuildingBlock: XIVTED_clean_linker_0, # of connection points: 2
#     Edge 24, Type (0, 1), BuildingBlock: XIVTED_clean_linker_0, # of connection points: 2
#     Edge 25, Type (0, 1), BuildingBlock: XIVTED_clean_linker_0, # of connection points: 2
#     Edge 26, Type (0, 1), BuildingBlock: XIVTED_clean_linker_0, # of connection points: 2
#     Edge 27, Type (0, 1), BuildingBlock: XIVTED_clean_linker_0, # of connection points: 2
#     Edge 28, Type (0, 1), BuildingBlock: XIVTED_clean_linker_0, # of connection points: 2
#     Edge 29, Type (0, 1), BuildingBlock: XIVTED_clean_linker_0, # of connection points: 2
#     Edge 30, Type (0, 1), BuildingBlock: XIVTED_clean_linker_0, # of connection points: 2
#     Edge 31, Type (0, 1), BuildingBlock: XIVTED_clean_linker_0, # of connection points: 2
#     Edge 32, Type (0, 1), BuildingBlock: XIVTED_clean_linker_0, # of connection points: 2
#     Edge 33, Type (0, 1), BuildingBlock: XIVTED_clean_linker_0, # of connection points: 2
#     Edge 34, Type (0, 1), BuildingBlock: XIVTED_clean_linker_0, # of connection points: 2
# Relax obj value: 0.076
# Max RMSD: 0.210
# Mean RMSD: 0.134
data_MOF--net-the--node1-OLANEW_clean_sbu_2--node2-GIZVER_clean_sbu_0--edge1-XIVTED_clean_linker_0
_symmetry_space_group_name_H-M    P1
_symmetry_Int_Tables_number       1
_symmetry_cell_setting            triclinic
loop_
_symmetry_equiv_pos_as_xyz
'x, y, z'
_cell_length_a     44.050194
_cell_length_b     42.230679
_cell_length_c     37.808239
_cell_angle_alpha  90.954822
_cell_angle_beta   93.095919
_cell_angle_gamma 107.78516
loop_
_atom_site_label
_atom_site_type_symbol
_atom_site_fract_x
_atom_site_fract_y
_atom_site_fract_z
_atom_type_partial_charge
O0 O 0.33596 0.35248 0.34116 0.0
Cd1 Cd 0.31433 0.32656 0.39588 0.0
O2 O 0.34317 0.40299 0.36321 0.0
Cd3 Cd 0.31601 0.38659 0.40974 0.0
O4 O 0.27537 0.38736 0.44003 0.0
C5 C 0.24744 0.3709 0.42782 0.0
O6 O 0.24425 0.35193 0.3991 0.0
C7 C 0.34609 0.38389 0.33814 0.0
C8 C 0.33974 0.27661 0.41869 0.0
O9 O 0.31445 0.26981 0.3979 0.0
O10 O 0.35328 0.30712 0.42846 0.0
O11 O 0.74536 0.37246 0.28926 0.0
Cd12 Cd 0.69914 0.33719 0.25263 0.0
O13 O 0.75717 0.32953 0.31182 0.0
Cd14 Cd 0.71211 0.29147 0.29503 0.0
O15 O 0.67206 0.24851 0.30831 0.0
C16 C 0.67911 0.22787 0.32881 0.0
O17 O 0.70926 0.2329 0.33898 0.0
C18 C 0.76401 0.36077 0.30813 0.0
C19 C 0.66391 0.37063 0.21219 0.0
O20 O 0.65584 0.36018 0.243 0.0
O21 O 0.68916 0.36608 0.20069 0.0
O22 O 0.71199 0.72048 0.2819 0.0
Cd23 Cd 0.74769 0.7607 0.32523 0.0
O24 O 0.7044 0.75983 0.24836 0.0
Cd25 Cd 0.722 0.79901 0.28979 0.0
O26 O 0.71029 0.83212 0.32835 0.0
C27 C 0.69007 0.81801 0.3504 0.0
O28 O 0.67964 0.78533 0.35 0.0
C29 C 0.70067 0.72918 0.25329 0.0
C30 C 0.79355 0.73538 0.35779 0.0
O31 O 0.76851 0.73536 0.37355 0.0
O32 O 0.797 0.74746 0.32687 0.0
O33 O 0.35241 0.82382 0.26006 0.0
Cd34 Cd 0.33192 0.79202 0.20449 0.0
O35 O 0.3209 0.78533 0.29081 0.0
Cd36 Cd 0.29543 0.7617 0.33609 0.0
O37 O 0.25529 0.72492 0.35832 0.0
C38 C 0.23233 0.73289 0.37086 0.0
O39 O 0.23363 0.76438 0.37249 0.0
C40 C 0.34229 0.81337 0.28986 0.0
C41 C 0.3555 0.73851 0.19428 0.0
O42 O 0.37214 0.76834 0.18814 0.0
O43 O 0.3276 0.73378 0.2056 0.0
O44 O 0.37489 0.78801 0.75971 0.0
Cd45 Cd 0.34652 0.74097 0.79562 0.0
O46 O 0.3312 0.79053 0.72988 0.0
Cd47 Cd 0.29526 0.74621 0.7471 0.0
O48 O 0.25024 0.712 0.7239 0.0
C49 C 0.24756 0.71329 0.69033 0.0
O50 O 0.27121 0.73349 0.67421 0.0
C51 C 0.3612 0.80197 0.73699 0.0
C52 C 0.38436 0.71061 0.83687 0.0
O53 O 0.37177 0.69826 0.80637 0.0
O54 O 0.37981 0.73767 0.84756 0.0
O55 O 0.3257 0.32083 0.77241 0.0
Cd56 Cd 0.29079 0.28491 0.7252 0.0
O57 O 0.31178 0.36479 0.75685 0.0
Cd58 Cd 0.27356 0.34123 0.71631 0.0
O59 O 0.23137 0.34352 0.6839 0.0
C60 C 0.21223 0.35513 0.69996 0.0
O61 O 0.21823 0.36275 0.73401 0.0
C62 C 0.32865 0.35163 0.77651 0.0
C63 C 0.32082 0.24526 0.68927 0.0
O64 O 0.32357 0.27505 0.68011 0.0
O65 O 0.30393 0.23411 0.71554 0.0
O66 O 0.69401 0.37811 0.74389 0.0
Cd67 Cd 0.70918 0.33928 0.70561 0.0
O68 O 0.70903 0.35863 0.79327 0.0
Cd69 Cd 0.71596 0.31655 0.76403 0.0
O70 O 0.69906 0.27707 0.72299 0.0
C71 C 0.68863 0.24637 0.72948 0.0
O72 O 0.69007 0.23704 0.76235 0.0
C73 C 0.6982 0.37972 0.77752 0.0
C74 C 0.76848 0.36922 0.67942 0.0
O75 O 0.74265 0.36648 0.66062 0.0
O76 O 0.7663 0.35753 0.71055 0.0
O77 O 0.78442 0.75578 0.59562 0.0
Cd78 Cd 0.75067 0.78062 0.62845 0.0
O79 O 0.76055 0.71311 0.62631 0.0
Cd80 Cd 0.75024 0.6659 0.6532 0.0
O81 O 0.72667 0.63673 0.69676 0.0
C82 C 0.7376 0.6469 0.7281 0.0
O83 O 0.76356 0.67258 0.73249 0.0
C84 C 0.7815 0.72621 0.60459 0.0
C85 C 0.71671 0.8164 0.59115 0.0
O86 O 0.74565 0.83024 0.60311 0.0
O87 O 0.70422 0.78517 0.59559 0.0
Co88 Co 0.0544 0.49269 0.53637 0.0
Co89 Co 0.03389 0.48337 0.4701 0.0
Co90 Co 1.00122 0.5319 0.5097 0.0
O91 O 0.01506 0.49089 0.51089 0.0
H92 H 0.9978 0.47134 0.51595 0.0
O93 O 0.98762 0.57297 0.50889 0.0
Co94 Co 0.947 0.57232 0.48777 0.0
Co95 Co 0.97278 0.58017 0.55256 0.0
H96 H 0.00462 0.59236 0.50285 0.0
O97 O 0.03813 0.44179 0.45799 0.0
O98 O 0.07224 0.48244 0.49243 0.0
O99 O 0.04503 0.51963 0.4385 0.0
O100 O 0.03371 0.5557 0.47536 0.0
O101 O 0.96948 0.51033 0.46946 0.0
O102 O 0.91112 0.57536 0.46679 0.0
O103 O 0.95724 0.61649 0.47954 0.0
O104 O 0.93129 0.52604 0.49243 0.0
O105 O 0.96873 0.50828 0.54379 0.0
O106 O 0.96671 0.5449 0.58586 0.0
O107 O 0.93235 0.57965 0.53504 0.0
O108 O 0.96868 0.62115 0.56647 0.0
C109 C 0.07154 0.46025 0.56454 0.0
C110 C 0.06233 0.55808 0.54767 0.0
C111 C 0.04705 0.5492 0.44808 0.0
C112 C 0.06534 0.45361 0.47601 0.0
C113 C 0.92805 0.6064 0.46533 0.0
C114 C 0.93994 0.50798 0.4704 0.0
C115 C 0.96046 0.51513 0.57416 0.0
C116 C 0.94 0.60832 0.552 0.0
O117 O 0.08876 0.49101 0.56161 0.0
O118 O 0.04322 0.44922 0.54818 0.0
O119 O 0.03264 0.55383 0.55 0.0
O120 O 0.07134 0.53835 0.52824 0.0
Co121 Co 0.53459 0.96516 0.49683 0.0
Co122 Co 0.55127 0.99389 0.55975 0.0
Co123 Co 0.50094 0.02382 0.52439 0.0
O124 O 0.53843 0.00806 0.51739 0.0
H125 H 0.55618 0.02521 0.50871 0.0
O126 O 0.46383 0.04079 0.53043 0.0
Co127 Co 0.46941 0.08512 0.54951 0.0
Co128 Co 0.45267 0.05592 0.48688 0.0
H129 H 0.44577 0.0242 0.53934 0.0
O130 O 0.59202 0.99175 0.56796 0.0
O131 O 0.54916 0.95163 0.54346 0.0
O132 O 0.5239 0.99001 0.59804 0.0
O133 O 0.48236 0.99057 0.5622 0.0
O134 O 0.52697 0.05594 0.56147 0.0
O135 O 0.47063 0.12431 0.56823 0.0
O136 O 0.42866 0.07761 0.56202 0.0
O137 O 0.51377 0.09889 0.54088 0.0
O138 O 0.52003 0.05669 0.48711 0.0
O139 O 0.4808 0.05872 0.44879 0.0
O140 O 0.45797 0.09945 0.50194 0.0
O141 O 0.41338 0.0623 0.47702 0.0
C142 C 0.56421 0.94407 0.47174 0.0
C143 C 0.47126 0.96001 0.48837 0.0
C144 C 0.49402 0.98322 0.59168 0.0
C145 C 0.57903 0.96146 0.55552 0.0
C146 C 0.44073 0.10879 0.57261 0.0
C147 C 0.53247 0.08722 0.55968 0.0
C148 C 0.51028 0.06413 0.45686 0.0
C149 C 0.42898 0.09261 0.48763 0.0
O150 O 0.53485 0.92695 0.47685 0.0
O151 O 0.57494 0.97527 0.48249 0.0
O152 O 0.47503 0.99117 0.48745 0.0
O153 O 0.49074 0.94933 0.50721 0.0
Co154 Co 0.47932 0.54414 0.09145 0.0
Co155 Co 0.46335 0.4839 0.06716 0.0
Co156 Co 0.51747 0.53088 0.0203 0.0
O157 O 0.4774 0.52397 0.0455 0.0
H158 H 0.46037 0.527 0.03006 0.0
O159 O 0.55752 0.53794 0.99571 0.0
Co160 Co 0.55718 0.52103 0.94881 0.0
Co161 Co 0.57212 0.5805 0.97853 0.0
H162 H 0.57419 0.53399 0.01102 0.0
O163 O 0.42171 0.46477 0.07975 0.0
O164 O 0.4624 0.50015 0.11299 0.0
O165 O 0.49248 0.45851 0.06909 0.0
O166 O 0.53357 0.49854 0.04987 0.0
O167 O 0.49338 0.4942 0.98557 0.0
O168 O 0.56071 0.50473 0.90625 0.0
O169 O 0.59678 0.51715 0.95302 0.0
O170 O 0.51464 0.52133 0.93896 0.0
O171 O 0.50148 0.56318 0.99062 0.0
O172 O 0.54308 0.60651 0.97878 0.0
O173 O 0.57401 0.56701 0.93197 0.0
O174 O 0.61444 0.59948 0.96757 0.0
C175 C 0.45042 0.56487 0.11758 0.0
C176 C 0.5438 0.56402 0.08747 0.0
C177 C 0.5221 0.47075 0.06491 0.0
C178 C 0.43372 0.47904 0.11023 0.0
C179 C 0.58848 0.5055 0.92058 0.0
C180 C 0.49228 0.49895 0.95232 0.0
C181 C 0.51319 0.59274 0.97958 0.0
C182 C 0.60361 0.58565 0.93661 0.0
O183 O 0.47772 0.56455 0.1323 0.0
O184 O 0.44021 0.54932 0.08705 0.0
O185 O 0.5419 0.56791 0.05422 0.0
O186 O 0.52138 0.54265 0.10173 0.0
H187 H 0.24566 0.41323 0.48296 0.0
H188 H 0.06107 0.39488 0.44084 0.0
H189 H 0.18453 0.34283 0.40546 0.0
H190 H 0.12531 0.47238 0.50904 0.0
H191 H 0.10365 0.3695 0.43511 0.0
H192 H 0.19944 0.42876 0.50054 0.0
C193 C 0.22246 0.40071 0.46993 0.0
C194 C 0.21908 0.37701 0.44232 0.0
C195 C 0.10832 0.3919 0.45159 0.0
C196 C 0.16606 0.3949 0.46217 0.0
C197 C 0.08401 0.40641 0.45487 0.0
C198 C 0.08972 0.43608 0.47506 0.0
C199 C 0.13857 0.40714 0.46862 0.0
C200 C 0.11987 0.44971 0.49289 0.0
C201 C 0.19607 0.40967 0.47993 0.0
C202 C 0.18835 0.36148 0.42661 0.0
N203 N 0.1432 0.43529 0.48903 0.0
N204 N 0.16311 0.37095 0.43649 0.0
H205 H 0.68707 0.18086 0.37401 0.0
H206 H 0.50018 0.09686 0.39712 0.0
H207 H 0.61378 0.21149 0.317 0.0
H208 H 0.57511 0.07657 0.46244 0.0
H209 H 0.54082 0.13384 0.36227 0.0
H210 H 0.64578 0.13771 0.40131 0.0
C211 C 0.66227 0.17841 0.36702 0.0
C212 C 0.65394 0.20007 0.34332 0.0
C213 C 0.54831 0.12108 0.38407 0.0
C214 C 0.60633 0.15051 0.37473 0.0
C215 C 0.52512 0.09983 0.40391 0.0
C216 C 0.53419 0.08369 0.43298 0.0
C217 C 0.58083 0.12615 0.39323 0.0
C218 C 0.56692 0.08862 0.44048 0.0
C219 C 0.63866 0.15372 0.3827 0.0
C220 C 0.62133 0.19548 0.33523 0.0
N221 N 0.58898 0.10947 0.42087 0.0
N222 N 0.59871 0.17132 0.35106 0.0
H223 H 0.807 0.72881 0.42845 0.0
H224 H 0.89454 0.59657 0.40212 0.0
H225 H 0.83366 0.70847 0.32433 0.0
H226 H 0.92734 0.66784 0.48957 0.0
H227 H 0.86531 0.63196 0.37529 0.0
H228 H 0.84451 0.70148 0.45449 0.0
C229 C 0.82083 0.71873 0.41113 0.0
C230 C 0.8172 0.72078 0.37419 0.0
C231 C 0.87917 0.64 0.40017 0.0
C232 C 0.85941 0.68923 0.40366 0.0
C233 C 0.89575 0.61988 0.41546 0.0
C234 C 0.9134 0.62952 0.44791 0.0
C235 C 0.87932 0.66937 0.41808 0.0
C236 C 0.91413 0.65978 0.46437 0.0
C237 C 0.84229 0.70341 0.42599 0.0
C238 C 0.83579 0.70748 0.35292 0.0
N239 N 0.89677 0.67848 0.44956 0.0
N240 N 0.85569 0.69174 0.36793 0.0
H241 H 0.36221 0.88074 0.29574 0.0
H242 H 0.45451 0.89165 0.48335 0.0
H243 H 0.3532 0.79351 0.35706 0.0
H244 H 0.43286 0.97546 0.4366 0.0
H245 H 0.41828 0.8548 0.43793 0.0
H246 H 0.38908 0.91565 0.34721 0.0
C247 C 0.36562 0.86896 0.32024 0.0
C248 C 0.35537 0.83422 0.32222 0.0
C249 C 0.42122 0.88121 0.43795 0.0
C250 C 0.38669 0.87403 0.38119 0.0
C251 C 0.44193 0.90228 0.4638 0.0
C252 C 0.447 0.93679 0.46364 0.0
C253 C 0.40583 0.8948 0.4115 0.0
C254 C 0.42992 0.9491 0.43772 0.0
C255 C 0.38089 0.8889 0.34966 0.0
C256 C 0.36038 0.82023 0.3546 0.0
N257 N 0.41045 0.9282 0.41251 0.0
N258 N 0.37613 0.84019 0.38276 0.0
H259 H 0.23964 0.70426 0.61859 0.0
H260 H 0.0582 0.5873 0.61216 0.0
H261 H 0.18984 0.67545 0.71387 0.0
H262 H 0.12257 0.58932 0.52959 0.0
H263 H 0.10229 0.6274 0.64771 0.0
H264 H 0.19285 0.66982 0.58358 0.0
C265 C 0.21882 0.69075 0.63221 0.0
C266 C 0.21879 0.69258 0.66929 0.0
C267 C 0.10656 0.61914 0.6217 0.0
C268 C 0.16485 0.65312 0.62912 0.0
C269 C 0.08144 0.59655 0.60136 0.0
C270 C 0.08688 0.58491 0.56804 0.0
C271 C 0.13699 0.6305 0.60819 0.0
C272 C 0.11743 0.59744 0.5553 0.0
C273 C 0.19209 0.67103 0.61215 0.0
C274 C 0.19098 0.67453 0.68536 0.0
N275 N 0.14127 0.61952 0.57534 0.0
N276 N 0.16505 0.65551 0.66515 0.0
H277 H 0.36545 0.26489 0.63997 0.0
H278 H 0.38256 0.08418 0.60203 0.0
H279 H 0.31283 0.17844 0.69497 0.0
H280 H 0.45338 0.17596 0.57794 0.0
H281 H 0.35155 0.1167 0.62917 0.0
H282 H 0.39275 0.23087 0.60975 0.0
C283 C 0.35954 0.23872 0.64563 0.0
C284 C 0.33693 0.22456 0.67022 0.0
C285 C 0.37388 0.12961 0.61788 0.0
C286 C 0.36805 0.18536 0.63549 0.0
C287 C 0.3915 0.1111 0.60231 0.0
C288 C 0.42074 0.12738 0.58803 0.0
C289 C 0.38538 0.16457 0.61855 0.0
C290 C 0.43117 0.16232 0.58902 0.0
C291 C 0.37521 0.21932 0.62841 0.0
C292 C 0.33025 0.19045 0.6764 0.0
N293 N 0.41352 0.17969 0.60392 0.0
N294 N 0.34571 0.17197 0.65911 0.0
H295 H 0.82461 0.40004 0.7176 0.0
H296 H 0.92411 0.45428 0.54686 0.0
H297 H 0.78354 0.3773 0.61046 0.0
H298 H 0.94414 0.51532 0.64327 0.0
H299 H 0.87987 0.41458 0.57424 0.0
H300 H 0.87555 0.43183 0.69415 0.0
C301 C 0.82645 0.4014 0.68917 0.0
C302 C 0.79985 0.38629 0.66586 0.0
C303 C 0.89428 0.43645 0.5895 0.0
C304 C 0.85782 0.4219 0.63914 0.0
C305 C 0.91968 0.45903 0.57405 0.0
C306 C 0.93767 0.48839 0.59272 0.0
C307 C 0.8871 0.44296 0.62402 0.0
C308 C 0.93068 0.49318 0.62784 0.0
C309 C 0.8554 0.41957 0.6759 0.0
C310 C 0.80341 0.38886 0.6293 0.0
N311 N 0.90578 0.47074 0.64236 0.0
N312 N 0.83191 0.40631 0.61703 0.0
H313 H 0.73678 0.8825 0.57673 0.0
H314 H 0.55964 0.89375 0.54208 0.0
H315 H 0.6527 0.79644 0.57109 0.0
H316 H 0.64384 0.97811 0.56406 0.0
H317 H 0.59365 0.8573 0.54202 0.0
H318 H 0.7034 0.91723 0.5605 0.0
C319 C 0.71133 0.87082 0.57164 0.0
C320 C 0.69746 0.83658 0.57581 0.0
C321 C 0.60461 0.88382 0.54669 0.0
C322 C 0.65897 0.87632 0.55762 0.0
C323 C 0.58523 0.9046 0.5468 0.0
C324 C 0.59887 0.93893 0.55373 0.0
C325 C 0.6378 0.89756 0.55346 0.0
C326 C 0.63219 0.95173 0.55922 0.0
C327 C 0.69224 0.89069 0.56246 0.0
C328 C 0.66436 0.8228 0.5685 0.0
N329 N 0.65044 0.93104 0.55915 0.0
N330 N 0.64615 0.84279 0.56018 0.0
H331 H 0.39439 0.28292 0.46051 0.0
H332 H 0.36977 0.08687 0.45709 0.0
H333 H 0.31464 0.20947 0.40547 0.0
H334 H 0.45485 0.1597 0.50337 0.0
H335 H 0.34743 0.13151 0.44258 0.0
H336 H 0.41531 0.23829 0.48036 0.0
C337 C 0.38125 0.25743 0.45261 0.0
C338 C 0.35275 0.24996 0.43115 0.0
C339 C 0.37095 0.13779 0.45601 0.0
C340 C 0.37653 0.19876 0.45391 0.0
C341 C 0.38374 0.11225 0.4644 0.0
C342 C 0.4144 0.11951 0.48123 0.0
C343 C 0.38886 0.17098 0.46448 0.0
C344 C 0.43121 0.15293 0.49019 0.0
C345 C 0.39322 0.23196 0.46398 0.0
C346 C 0.33674 0.21646 0.42185 0.0
N347 N 0.41828 0.17745 0.48157 0.0
N348 N 0.34885 0.19216 0.43325 0.0
H349 H 0.81655 0.34582 0.33605 0.0
H350 H 0.87972 0.5107 0.45487 0.0
H351 H 0.77683 0.42704 0.32532 0.0
H352 H 0.94402 0.45627 0.42691 0.0
H353 H 0.83941 0.47648 0.41209 0.0
H354 H 0.86151 0.38234 0.37305 0.0
C355 C 0.81739 0.37139 0.34125 0.0
C356 C 0.79278 0.38337 0.32768 0.0
C357 C 0.86238 0.47211 0.41511 0.0
C358 C 0.84384 0.42494 0.37039 0.0
C359 C 0.88548 0.49157 0.4397 0.0
C360 C 0.9155 0.48652 0.44446 0.0
C361 C 0.86885 0.44674 0.3955 0.0
C362 C 0.92127 0.46111 0.42401 0.0
C363 C 0.8431 0.39218 0.36225 0.0
C364 C 0.79522 0.41674 0.33515 0.0
N365 N 0.898 0.44189 0.40061 0.0
N366 N 0.82004 0.4362 0.35639 0.0
H367 H 0.64383 0.79454 0.397 0.0
H368 H 0.62458 0.97184 0.44842 0.0
H369 H 0.7029 0.88607 0.35572 0.0
H370 H 0.55261 0.87748 0.46045 0.0
H371 H 0.65865 0.94211 0.42258 0.0
H372 H 0.61588 0.82614 0.42965 0.0
C373 C 0.65115 0.82134 0.395 0.0
C374 C 0.67555 0.83761 0.37322 0.0
C375 C 0.63538 0.92804 0.43094 0.0
C376 C 0.64338 0.87402 0.41055 0.0
C377 C 0.61594 0.94495 0.44563 0.0
C378 C 0.58551 0.92716 0.45614 0.0
C379 C 0.62442 0.89314 0.4273 0.0
C380 C 0.57565 0.89232 0.45224 0.0
C381 C 0.63506 0.83937 0.41359 0.0
C382 C 0.68407 0.87247 0.37198 0.0
N383 N 0.59503 0.87653 0.43821 0.0
N384 N 0.66786 0.88953 0.39022 0.0
H385 H 0.1816 0.74055 0.40526 0.0
H386 H 0.08616 0.5458 0.39505 0.0
H387 H 0.21726 0.66559 0.35944 0.0
H388 H 0.06102 0.61628 0.46256 0.0
H389 H 0.12982 0.59114 0.37433 0.0
H390 H 0.1336 0.69669 0.4204 0.0
C391 C 0.17937 0.7149 0.3984 0.0
C392 C 0.20356 0.70673 0.38118 0.0
C393 C 0.11458 0.59672 0.39347 0.0
C394 C 0.14859 0.65655 0.398 0.0
C395 C 0.08945 0.57085 0.40515 0.0
C396 C 0.06993 0.57709 0.43085 0.0
C397 C 0.12027 0.62917 0.40741 0.0
C398 C 0.07549 0.61019 0.44286 0.0
C399 C 0.15196 0.68991 0.40701 0.0
C400 C 0.19935 0.67307 0.37289 0.0
N401 N 0.10028 0.63495 0.43122 0.0
N402 N 0.17238 0.64926 0.38131 0.0
H403 H 0.33965 0.83393 0.6834 0.0
H404 H 0.51084 0.96495 0.65715 0.0
H405 H 0.42525 0.83712 0.74655 0.0
H406 H 0.42914 0.95133 0.58343 0.0
H407 H 0.47803 0.92322 0.69444 0.0
H408 H 0.37046 0.88106 0.6507 0.0
C409 C 0.36493 0.84458 0.69056 0.0
C410 C 0.37987 0.83132 0.7178 0.0
C411 C 0.46718 0.92949 0.67025 0.0
C412 C 0.41534 0.88563 0.68025 0.0
C413 C 0.48587 0.95348 0.64891 0.0
C414 C 0.47286 0.96158 0.61679 0.0
C415 C 0.43508 0.91333 0.65962 0.0
C416 C 0.44027 0.94591 0.60785 0.0
C417 C 0.38251 0.87155 0.67177 0.0
C418 C 0.41271 0.84634 0.72573 0.0
N419 N 0.42257 0.92238 0.62902 0.0
N420 N 0.42932 0.87264 0.70702 0.0
H421 H 0.19159 0.34271 0.62936 0.0
H422 H 0.09747 0.47386 0.63117 0.0
H423 H 0.17275 0.38736 0.72596 0.0
H424 H 0.07754 0.399 0.54697 0.0
H425 H 0.12691 0.443 0.6653 0.0
H426 H 0.15158 0.36301 0.59717 0.0
C427 C 0.17884 0.35642 0.64387 0.0
C428 C 0.18583 0.36365 0.68038 0.0
C429 C 0.11574 0.43294 0.63961 0.0
C430 C 0.14042 0.38706 0.64374 0.0
C431 C 0.09895 0.45054 0.62017 0.0
C432 C 0.08495 0.43872 0.58648 0.0
C433 C 0.11945 0.40373 0.62483 0.0
C434 C 0.08775 0.40861 0.57313 0.0
C435 C 0.15596 0.36787 0.62551 0.0
C436 C 0.16844 0.38138 0.69783 0.0
N437 N 0.10522 0.39232 0.59214 0.0
N438 N 0.14693 0.39282 0.67929 0.0
H439 H 0.67213 0.25941 0.66171 0.0
H440 H 0.57074 0.07086 0.61098 0.0
H441 H 0.66463 0.17844 0.73237 0.0
H442 H 0.55612 0.15525 0.55784 0.0
H443 H 0.61291 0.10888 0.64959 0.0
H444 H 0.63765 0.22015 0.61735 0.0
C445 C 0.66356 0.23331 0.66778 0.0
C446 C 0.67104 0.22224 0.701 0.0
C447 C 0.60059 0.11903 0.62934 0.0
C448 C 0.63153 0.17724 0.65025 0.0
C449 C 0.57656 0.09737 0.60719 0.0
C450 C 0.55965 0.10991 0.5813 0.0
C451 C 0.60801 0.15348 0.62538 0.0
C452 C 0.56834 0.1445 0.57762 0.0
C453 C 0.64376 0.21097 0.64247 0.0
C454 C 0.65928 0.18812 0.70726 0.0
N455 N 0.59187 0.16509 0.59949 0.0
N456 N 0.63998 0.16683 0.68217 0.0
H457 H 0.84227 0.75452 0.58548 0.0
H458 H 0.87526 0.58372 0.53779 0.0
H459 H 0.77156 0.65902 0.59543 0.0
H460 H 0.94983 0.67282 0.57425 0.0
H461 H 0.83558 0.61258 0.54687 0.0
H462 H 0.88054 0.72619 0.5689 0.0
C463 C 0.83474 0.72757 0.58398 0.0
C464 C 0.80387 0.70904 0.59244 0.0
C465 C 0.86065 0.62574 0.55277 0.0
C466 C 0.84741 0.67659 0.57322 0.0
C467 C 0.88331 0.60937 0.54753 0.0
C468 C 0.91588 0.6258 0.55565 0.0
C469 C 0.87072 0.65889 0.56564 0.0
C470 C 0.92495 0.65909 0.56803 0.0
C471 C 0.85662 0.71147 0.57468 0.0
C472 C 0.79535 0.67421 0.58997 0.0
N473 N 0.90249 0.67456 0.57259 0.0
N474 N 0.81703 0.65905 0.58055 0.0
H475 H 0.37983 0.44867 0.32717 0.0
H476 H 0.38439 0.42195 0.11804 0.0
H477 H 0.34265 0.35252 0.27318 0.0
H478 H 0.44657 0.50787 0.17699 0.0
H479 H 0.36266 0.3989 0.17355 0.0
H480 H 0.39928 0.47303 0.27135 0.0
C481 C 0.37585 0.43264 0.30361 0.0
C482 C 0.35965 0.39845 0.3049 0.0
C483 C 0.38095 0.42287 0.17428 0.0
C484 C 0.38147 0.42635 0.24079 0.0
C485 C 0.39317 0.43621 0.14257 0.0
C486 C 0.41746 0.46685 0.14286 0.0
C487 C 0.3928 0.44047 0.20648 0.0
C488 C 0.42801 0.48409 0.17552 0.0
C489 C 0.38695 0.44659 0.27176 0.0
C490 C 0.35518 0.37894 0.27348 0.0
N491 N 0.41564 0.47065 0.20601 0.0
N492 N 0.36587 0.3932 0.24266 0.0
H493 H 0.42665 0.73695 0.89353 0.0
H494 H 0.45361 0.56474 0.94689 0.0
H495 H 0.38402 0.64566 0.83198 0.0
H496 H 0.52403 0.65971 0.97294 0.0
H497 H 0.42123 0.59337 0.9132 0.0
H498 H 0.45651 0.70827 0.93087 0.0
C499 C 0.42353 0.71088 0.88789 0.0
C500 C 0.40293 0.69373 0.85944 0.0
C501 C 0.44366 0.6079 0.92655 0.0
C502 C 0.43658 0.66067 0.90248 0.0
C503 C 0.46201 0.59164 0.94605 0.0
C504 C 0.49159 0.60987 0.96278 0.0
C505 C 0.45467 0.64269 0.9243 0.0
C506 C 0.50144 0.64467 0.96037 0.0
C507 C 0.4406 0.69456 0.90918 0.0
C508 C 0.39982 0.65992 0.85343 0.0
N509 N 0.48301 0.65995 0.94158 0.0
N510 N 0.41629 0.64445 0.87487 0.0
H511 H 0.35929 0.33174 0.83343 0.0
H512 H 0.47116 0.51468 0.88799 0.0
H513 H 0.35067 0.4195 0.78233 0.0
H514 H 0.45349 0.43529 0.96191 0.0
H515 H 0.43031 0.4787 0.84643 0.0
H516 H 0.39735 0.36765 0.87826 0.0
C517 C 0.3654 0.3585 0.83158 0.0
C518 C 0.35177 0.3726 0.804 0.0
C519 C 0.43519 0.46917 0.87181 0.0
C520 C 0.39535 0.41369 0.855 0.0
C521 C 0.45856 0.48967 0.89553 0.0
C522 C 0.46576 0.47794 0.92845 0.0
C523 C 0.4192 0.43638 0.88068 0.0
C524 C 0.44855 0.44535 0.93687 0.0
C525 C 0.38697 0.37894 0.85727 0.0
C526 C 0.36048 0.40746 0.80308 0.0
N527 N 0.42627 0.42553 0.91295 0.0
N528 N 0.38184 0.42674 0.82799 0.0
H529 H 0.66945 0.42454 0.7525 0.0
H530 H 0.64048 0.48752 0.94481 0.0
H531 H 0.70431 0.39156 0.84964 0.0
H532 H 0.58615 0.496 0.84892 0.0
H533 H 0.67285 0.46224 0.90971 0.0
H534 H 0.64791 0.46097 0.78718 0.0
C535 C 0.67288 0.42518 0.78112 0.0
C536 C 0.68835 0.40458 0.7982 0.0
C537 C 0.65399 0.46991 0.89641 0.0
C538 C 0.66364 0.44628 0.83804 0.0
C539 C 0.63561 0.4844 0.91636 0.0
C540 C 0.61031 0.49335 0.89978 0.0
C541 C 0.6472 0.46477 0.85965 0.0
C542 C 0.60508 0.48893 0.86285 0.0
C543 C 0.6605 0.44596 0.80089 0.0
C544 C 0.69226 0.40673 0.83537 0.0
N545 N 0.62327 0.47482 0.84406 0.0
N546 N 0.67975 0.42702 0.85409 0.0
H547 H 0.67905 0.59913 0.72849 0.0
H548 H 0.66723 0.62057 0.93769 0.0
H549 H 0.75463 0.66291 0.79828 0.0
H550 H 0.58821 0.564 0.86716 0.0
H551 H 0.70127 0.63157 0.88766 0.0
H552 H 0.64736 0.58086 0.77977 0.0
C553 C 0.68913 0.60905 0.75461 0.0
C554 C 0.71947 0.63282 0.75904 0.0
C555 C 0.67651 0.61663 0.88312 0.0
C556 C 0.68323 0.61215 0.8178 0.0
C557 C 0.65702 0.61037 0.9117 0.0
C558 C 0.62472 0.59152 0.90662 0.0
C559 C 0.66367 0.60398 0.84911 0.0
C560 C 0.61293 0.57877 0.87234 0.0
C561 C 0.67097 0.59868 0.78386 0.0
C562 C 0.7313 0.64474 0.79354 0.0
N563 N 0.63236 0.58533 0.84487 0.0
N564 N 0.71309 0.63444 0.82152 0.0
H565 H 0.68164 0.73873 0.18516 0.0
H566 H 0.56111 0.55557 0.15635 0.0
H567 H 0.67605 0.66173 0.26045 0.0
H568 H 0.58727 0.62299 0.0707 0.0
H569 H 0.60253 0.59435 0.19514 0.0
H570 H 0.64668 0.69717 0.14306 0.0
C571 C 0.67325 0.71305 0.19278 0.0
C572 C 0.68169 0.70377 0.22651 0.0
C573 C 0.59941 0.60055 0.16779 0.0
C574 C 0.64136 0.65608 0.17847 0.0
C575 C 0.57569 0.57846 0.14563 0.0
C576 C 0.57056 0.58614 0.11026 0.0
C577 C 0.6179 0.63083 0.1547 0.0
C578 C 0.59035 0.61607 0.09779 0.0
C579 C 0.65334 0.68931 0.16867 0.0
C580 C 0.67017 0.67006 0.23479 0.0
N581 N 0.61291 0.6375 0.12009 0.0
N582 N 0.65034 0.64752 0.2111 0.0
H583 H 0.41778 0.74013 0.19574 0.0
H584 H 0.38903 0.56574 0.10088 0.0
H585 H 0.3219 0.67333 0.1776 0.0
H586 H 0.47165 0.61063 0.17209 0.0
H587 H 0.36373 0.60561 0.12403 0.0
H588 H 0.43865 0.69427 0.18182 0.0
C589 C 0.40113 0.71574 0.18893 0.0
C590 C 0.3681 0.71046 0.18777 0.0
C591 C 0.3872 0.60628 0.13485 0.0
C592 C 0.39178 0.65808 0.17129 0.0
C593 C 0.40165 0.58362 0.12167 0.0
C594 C 0.43259 0.58501 0.13439 0.0
C595 C 0.40417 0.63083 0.16026 0.0
C596 C 0.44782 0.60865 0.16139 0.0
C597 C 0.41303 0.68958 0.18118 0.0
C598 C 0.34755 0.67834 0.17892 0.0
N599 N 0.43369 0.63096 0.17299 0.0
N600 N 0.35973 0.65337 0.17048 0.0
H601 H 0.60326 0.37127 0.2227 0.0
H602 H 0.5876 0.4861 0.06188 0.0
H603 H 0.67876 0.40527 0.15115 0.0
H604 H 0.50687 0.41841 0.10915 0.0
H605 H 0.62318 0.4619 0.09687 0.0
H606 H 0.56947 0.39471 0.18489 0.0
C607 C 0.61283 0.38383 0.19913 0.0
C608 C 0.6439 0.38623 0.19008 0.0
C609 C 0.59763 0.45227 0.09923 0.0
C610 C 0.60522 0.41325 0.14656 0.0
C611 C 0.5773 0.466 0.07925 0.0
C612 C 0.5441 0.45437 0.0825 0.0
C613 C 0.58469 0.42717 0.12303 0.0
C614 C 0.5322 0.4283 0.10559 0.0
C615 C 0.59343 0.39705 0.17741 0.0
C616 C 0.65491 0.40275 0.15907 0.0
N617 N 0.55245 0.41589 0.12513 0.0
N618 N 0.63564 0.41578 0.13847 0.0
loop_
_geom_bond_atom_site_label_1
_geom_bond_atom_site_label_2
_geom_bond_distance
_geom_bond_site_symmetry_2
_ccdc_geom_bond_type
O0 Cd1 2.300 . S
O0 C7 1.275 . S
Cd1 O0 2.300 . S
Cd1 O9 2.381 . S
Cd1 O10 2.378 . S
O2 Cd3 2.385 . S
O2 C7 1.255 . S
Cd3 O2 2.385 . S
Cd3 O4 2.317 . S
O4 Cd3 2.317 . S
O4 C5 1.232 . S
C5 O4 1.232 . S
C5 O6 1.218 . S
O6 C5 1.218 . S
C7 O0 1.275 . S
C7 O2 1.255 . S
C8 O9 1.258 . S
C8 O10 1.256 . S
O9 Cd1 2.381 . S
O9 C8 1.258 . S
O10 Cd1 2.378 . S
O10 C8 1.256 . S
O11 Cd12 2.300 . S
O11 C18 1.275 . S
Cd12 O11 2.300 . S
Cd12 O20 2.381 . S
Cd12 O21 2.378 . S
O13 Cd14 2.385 . S
O13 C18 1.255 . S
Cd14 O13 2.385 . S
Cd14 O15 2.317 . S
O15 Cd14 2.317 . S
O15 C16 1.232 . S
C16 O15 1.232 . S
C16 O17 1.218 . S
O17 C16 1.218 . S
C18 O11 1.275 . S
C18 O13 1.255 . S
C19 O20 1.258 . S
C19 O21 1.256 . S
O20 Cd12 2.381 . S
O20 C19 1.258 . S
O21 Cd12 2.378 . S
O21 C19 1.256 . S
O22 Cd23 2.300 . S
O22 C29 1.275 . S
Cd23 O22 2.300 . S
Cd23 O31 2.381 . S
Cd23 O32 2.378 . S
O24 Cd25 2.385 . S
O24 C29 1.255 . S
Cd25 O24 2.385 . S
Cd25 O26 2.317 . S
O26 Cd25 2.317 . S
O26 C27 1.232 . S
C27 O26 1.232 . S
C27 O28 1.218 . S
O28 C27 1.218 . S
C29 O22 1.275 . S
C29 O24 1.255 . S
C30 O31 1.258 . S
C30 O32 1.256 . S
O31 Cd23 2.381 . S
O31 C30 1.258 . S
O32 Cd23 2.378 . S
O32 C30 1.256 . S
O33 Cd34 2.300 . S
O33 C40 1.275 . S
Cd34 O33 2.300 . S
Cd34 O42 2.381 . S
Cd34 O43 2.378 . S
O35 Cd36 2.385 . S
O35 C40 1.255 . S
Cd36 O35 2.385 . S
Cd36 O37 2.317 . S
O37 Cd36 2.317 . S
O37 C38 1.232 . S
C38 O37 1.232 . S
C38 O39 1.218 . S
O39 C38 1.218 . S
C40 O33 1.275 . S
C40 O35 1.255 . S
C41 O42 1.258 . S
C41 O43 1.256 . S
O42 Cd34 2.381 . S
O42 C41 1.258 . S
O43 Cd34 2.378 . S
O43 C41 1.256 . S
O44 Cd45 2.300 . S
O44 C51 1.275 . S
Cd45 O44 2.300 . S
Cd45 O53 2.381 . S
Cd45 O54 2.378 . S
O46 Cd47 2.385 . S
O46 C51 1.255 . S
Cd47 O46 2.385 . S
Cd47 O48 2.317 . S
O48 Cd47 2.317 . S
O48 C49 1.232 . S
C49 O48 1.232 . S
C49 O50 1.218 . S
O50 C49 1.218 . S
C51 O44 1.275 . S
C51 O46 1.255 . S
C52 O53 1.258 . S
C52 O54 1.256 . S
O53 Cd45 2.381 . S
O53 C52 1.258 . S
O54 Cd45 2.378 . S
O54 C52 1.256 . S
O55 Cd56 2.300 . S
O55 C62 1.275 . S
Cd56 O55 2.300 . S
Cd56 O64 2.381 . S
Cd56 O65 2.378 . S
O57 Cd58 2.385 . S
O57 C62 1.255 . S
Cd58 O57 2.385 . S
Cd58 O59 2.317 . S
O59 Cd58 2.317 . S
O59 C60 1.232 . S
C60 O59 1.232 . S
C60 O61 1.218 . S
O61 C60 1.218 . S
C62 O55 1.275 . S
C62 O57 1.255 . S
C63 O64 1.258 . S
C63 O65 1.256 . S
O64 Cd56 2.381 . S
O64 C63 1.258 . S
O65 Cd56 2.378 . S
O65 C63 1.256 . S
O66 Cd67 2.300 . S
O66 C73 1.275 . S
Cd67 O66 2.300 . S
Cd67 O75 2.381 . S
Cd67 O76 2.378 . S
O68 Cd69 2.385 . S
O68 C73 1.255 . S
Cd69 O68 2.385 . S
Cd69 O70 2.317 . S
O70 Cd69 2.317 . S
O70 C71 1.232 . S
C71 O70 1.232 . S
C71 O72 1.218 . S
O72 C71 1.218 . S
C73 O66 1.275 . S
C73 O68 1.255 . S
C74 O75 1.258 . S
C74 O76 1.256 . S
O75 Cd67 2.381 . S
O75 C74 1.258 . S
O76 Cd67 2.378 . S
O76 C74 1.256 . S
O77 Cd78 2.300 . S
O77 C84 1.275 . S
Cd78 O77 2.300 . S
Cd78 O86 2.381 . S
Cd78 O87 2.378 . S
O79 Cd80 2.385 . S
O79 C84 1.255 . S
Cd80 O79 2.385 . S
Cd80 O81 2.317 . S
O81 Cd80 2.317 . S
O81 C82 1.232 . S
C82 O81 1.232 . S
C82 O83 1.218 . S
O83 C82 1.218 . S
C84 O77 1.275 . S
C84 O79 1.255 . S
C85 O86 1.258 . S
C85 O87 1.256 . S
O86 Cd78 2.381 . S
O86 C85 1.258 . S
O87 Cd78 2.378 . S
O87 C85 1.256 . S
Co88 O91 2.042 . S
Co88 O98 2.264 . S
Co88 O117 2.286 . S
Co88 O118 2.069 . S
Co88 O120 2.015 . S
Co89 O91 2.122 . S
Co89 O97 2.073 . S
Co89 O98 2.327 . S
Co89 O99 1.976 . S
Co90 O91 2.087 . S
Co90 O93 2.087 1_455 S
Co90 O100 2.111 . S
Co90 O101 2.143 1_455 S
Co90 O105 2.111 1_455 S
Co90 O119 2.143 . S
O91 Co88 2.042 . S
O91 Co89 2.122 . S
O91 Co90 2.087 . S
O91 H92 0.980 . S
H92 O91 0.980 . S
O93 Co90 2.087 1_655 S
O93 Co94 2.042 . S
O93 Co95 2.122 . S
O93 H96 0.980 1_655 S
Co94 O93 2.042 . S
Co94 O102 2.286 . S
Co94 O103 2.069 . S
Co94 O104 2.015 . S
Co94 O107 2.264 . S
Co95 O93 2.122 . S
Co95 O106 1.976 . S
Co95 O107 2.327 . S
Co95 O108 2.073 . S
H96 O93 0.980 1_455 S
O97 Co89 2.073 . S
O97 C112 1.245 . S
O98 Co88 2.264 . S
O98 Co89 2.327 . S
O98 C112 1.257 . S
O99 Co89 1.976 . S
O99 C111 1.251 . S
O100 Co90 2.111 . S
O100 C111 1.274 . S
O101 Co90 2.143 1_655 S
O101 C114 1.246 . S
O102 Co94 2.286 . S
O102 C113 1.259 . S
O103 Co94 2.069 . S
O103 C113 1.289 . S
O104 Co94 2.015 . S
O104 C114 1.257 . S
O105 Co90 2.111 1_655 S
O105 C115 1.274 . S
O106 Co95 1.976 . S
O106 C115 1.251 . S
O107 Co94 2.264 . S
O107 Co95 2.327 . S
O107 C116 1.257 . S
O108 Co95 2.073 . S
O108 C116 1.245 . S
C109 O117 1.259 . S
C109 O118 1.289 . S
C110 O119 1.246 . S
C110 O120 1.257 . S
C111 O99 1.251 . S
C111 O100 1.274 . S
C112 O97 1.245 . S
C112 O98 1.257 . S
C113 O102 1.259 . S
C113 O103 1.289 . S
C114 O101 1.246 . S
C114 O104 1.257 . S
C115 O105 1.274 . S
C115 O106 1.251 . S
C116 O107 1.257 . S
C116 O108 1.245 . S
O117 Co88 2.286 . S
O117 C109 1.259 . S
O118 Co88 2.069 . S
O118 C109 1.289 . S
O119 Co90 2.143 . S
O119 C110 1.246 . S
O120 Co88 2.015 . S
O120 C110 1.257 . S
Co121 O124 2.042 . S
Co121 O131 2.264 . S
Co121 O150 2.286 . S
Co121 O151 2.069 . S
Co121 O153 2.015 . S
Co122 O124 2.122 . S
Co122 O130 2.073 . S
Co122 O131 2.327 . S
Co122 O132 1.976 . S
Co123 O124 2.087 1_545 S
Co123 O126 2.087 . S
Co123 O133 2.111 1_545 S
Co123 O134 2.143 . S
Co123 O138 2.111 . S
Co123 O152 2.143 1_545 S
O124 Co121 2.042 . S
O124 Co122 2.122 . S
O124 Co123 2.087 1_565 S
O124 H125 0.980 1_565 S
H125 O124 0.980 1_545 S
O126 Co123 2.087 . S
O126 Co127 2.042 . S
O126 Co128 2.122 . S
O126 H129 0.980 . S
Co127 O126 2.042 . S
Co127 O135 2.286 . S
Co127 O136 2.069 . S
Co127 O137 2.015 . S
Co127 O140 2.264 . S
Co128 O126 2.122 . S
Co128 O139 1.976 . S
Co128 O140 2.327 . S
Co128 O141 2.073 . S
H129 O126 0.980 . S
O130 Co122 2.073 . S
O130 C145 1.245 . S
O131 Co121 2.264 . S
O131 Co122 2.327 . S
O131 C145 1.257 . S
O132 Co122 1.976 . S
O132 C144 1.251 . S
O133 Co123 2.111 1_565 S
O133 C144 1.274 . S
O134 Co123 2.143 . S
O134 C147 1.246 . S
O135 Co127 2.286 . S
O135 C146 1.259 . S
O136 Co127 2.069 . S
O136 C146 1.289 . S
O137 Co127 2.015 . S
O137 C147 1.257 . S
O138 Co123 2.111 . S
O138 C148 1.274 . S
O139 Co128 1.976 . S
O139 C148 1.251 . S
O140 Co127 2.264 . S
O140 Co128 2.327 . S
O140 C149 1.257 . S
O141 Co128 2.073 . S
O141 C149 1.245 . S
C142 O150 1.259 . S
C142 O151 1.289 . S
C143 O152 1.246 . S
C143 O153 1.257 . S
C144 O132 1.251 . S
C144 O133 1.274 . S
C145 O130 1.245 . S
C145 O131 1.257 . S
C146 O135 1.259 . S
C146 O136 1.289 . S
C147 O134 1.246 . S
C147 O137 1.257 . S
C148 O138 1.274 . S
C148 O139 1.251 . S
C149 O140 1.257 . S
C149 O141 1.245 . S
O150 Co121 2.286 . S
O150 C142 1.259 . S
O151 Co121 2.069 . S
O151 C142 1.289 . S
O152 Co123 2.143 1_565 S
O152 C143 1.246 . S
O153 Co121 2.015 . S
O153 C143 1.257 . S
Co154 O157 2.042 . S
Co154 O164 2.264 . S
Co154 O183 2.286 . S
Co154 O184 2.069 . S
Co154 O186 2.015 . S
Co155 O157 2.122 . S
Co155 O163 2.073 . S
Co155 O164 2.327 . S
Co155 O165 1.976 . S
Co156 O157 2.087 . S
Co156 O159 2.087 1_554 S
Co156 O166 2.111 . S
Co156 O167 2.143 1_554 S
Co156 O171 2.111 1_554 S
Co156 O185 2.143 . S
O157 Co154 2.042 . S
O157 Co155 2.122 . S
O157 Co156 2.087 . S
O157 H158 0.980 . S
H158 O157 0.980 . S
O159 Co156 2.087 1_556 S
O159 Co160 2.042 . S
O159 Co161 2.122 . S
O159 H162 0.980 . S
Co160 O159 2.042 . S
Co160 O168 2.286 . S
Co160 O169 2.069 . S
Co160 O170 2.015 . S
Co160 O173 2.264 . S
Co161 O159 2.122 . S
Co161 O172 1.976 . S
Co161 O173 2.327 . S
Co161 O174 2.073 . S
H162 O159 0.980 . S
O163 Co155 2.073 . S
O163 C178 1.245 . S
O164 Co154 2.264 . S
O164 Co155 2.327 . S
O164 C178 1.257 . S
O165 Co155 1.976 . S
O165 C177 1.251 . S
O166 Co156 2.111 . S
O166 C177 1.274 . S
O167 Co156 2.143 1_556 S
O167 C180 1.246 . S
O168 Co160 2.286 . S
O168 C179 1.259 . S
O169 Co160 2.069 . S
O169 C179 1.289 . S
O170 Co160 2.015 . S
O170 C180 1.257 . S
O171 Co156 2.111 1_556 S
O171 C181 1.274 . S
O172 Co161 1.976 . S
O172 C181 1.251 . S
O173 Co160 2.264 . S
O173 Co161 2.327 . S
O173 C182 1.257 . S
O174 Co161 2.073 . S
O174 C182 1.245 . S
C175 O183 1.259 . S
C175 O184 1.289 . S
C176 O185 1.246 . S
C176 O186 1.257 . S
C177 O165 1.251 . S
C177 O166 1.274 . S
C178 O163 1.245 . S
C178 O164 1.257 . S
C179 O168 1.259 . S
C179 O169 1.289 . S
C180 O167 1.246 . S
C180 O170 1.257 . S
C181 O171 1.274 . S
C181 O172 1.251 . S
C182 O173 1.257 . S
C182 O174 1.245 . S
O183 Co154 2.286 . S
O183 C175 1.259 . S
O184 Co154 2.069 . S
O184 C175 1.289 . S
O185 Co156 2.143 . S
O185 C176 1.246 . S
O186 Co154 2.015 . S
O186 C176 1.257 . S
H187 C193 0.930 . S
H188 C197 0.930 . S
H189 C202 0.929 . S
H190 C200 0.929 . S
H191 C195 0.929 . S
H192 C201 0.929 . S
C193 H187 0.930 . S
C193 C194 1.367 . S
C193 C201 1.378 . S
C194 C193 1.367 . S
C194 C202 1.433 . S
C195 H191 0.929 . S
C195 C197 1.378 . S
C195 C199 1.350 . S
C196 C199 1.463 . S
C196 C201 1.350 . S
C196 N204 1.427 . S
C197 H188 0.930 . S
C197 C195 1.378 . S
C197 C198 1.367 . S
C198 C197 1.367 . S
C198 C200 1.433 . S
C199 C195 1.350 . S
C199 C196 1.463 . S
C199 N203 1.427 . S
C200 H190 0.929 . S
C200 C198 1.433 . S
C200 N203 1.384 . S
C201 H192 0.929 . S
C201 C193 1.378 . S
C201 C196 1.350 . S
C202 H189 0.929 . S
C202 C194 1.433 . S
C202 N204 1.384 . S
N203 C199 1.427 . S
N203 C200 1.384 . S
N204 C196 1.427 . S
N204 C202 1.384 . S
H205 C211 0.930 . S
H206 C215 0.930 . S
H207 C220 0.929 . S
H208 C218 0.929 . S
H209 C213 0.929 . S
H210 C219 0.929 . S
C211 H205 0.930 . S
C211 C212 1.367 . S
C211 C219 1.378 . S
C212 C211 1.367 . S
C212 C220 1.433 . S
C213 H209 0.929 . S
C213 C215 1.378 . S
C213 C217 1.350 . S
C214 C217 1.463 . S
C214 C219 1.350 . S
C214 N222 1.427 . S
C215 H206 0.930 . S
C215 C213 1.378 . S
C215 C216 1.367 . S
C216 C215 1.367 . S
C216 C218 1.433 . S
C217 C213 1.350 . S
C217 C214 1.463 . S
C217 N221 1.427 . S
C218 H208 0.929 . S
C218 C216 1.433 . S
C218 N221 1.384 . S
C219 H210 0.929 . S
C219 C211 1.378 . S
C219 C214 1.350 . S
C220 H207 0.929 . S
C220 C212 1.433 . S
C220 N222 1.384 . S
N221 C217 1.427 . S
N221 C218 1.384 . S
N222 C214 1.427 . S
N222 C220 1.384 . S
H223 C229 0.930 . S
H224 C233 0.930 . S
H225 C238 0.929 . S
H226 C236 0.929 . S
H227 C231 0.929 . S
H228 C237 0.929 . S
C229 H223 0.930 . S
C229 C230 1.367 . S
C229 C237 1.378 . S
C230 C229 1.367 . S
C230 C238 1.433 . S
C231 H227 0.929 . S
C231 C233 1.378 . S
C231 C235 1.350 . S
C232 C235 1.463 . S
C232 C237 1.350 . S
C232 N240 1.427 . S
C233 H224 0.930 . S
C233 C231 1.378 . S
C233 C234 1.367 . S
C234 C233 1.367 . S
C234 C236 1.433 . S
C235 C231 1.350 . S
C235 C232 1.463 . S
C235 N239 1.427 . S
C236 H226 0.929 . S
C236 C234 1.433 . S
C236 N239 1.384 . S
C237 H228 0.929 . S
C237 C229 1.378 . S
C237 C232 1.350 . S
C238 H225 0.929 . S
C238 C230 1.433 . S
C238 N240 1.384 . S
N239 C235 1.427 . S
N239 C236 1.384 . S
N240 C232 1.427 . S
N240 C238 1.384 . S
H241 C247 0.930 . S
H242 C251 0.930 . S
H243 C256 0.929 . S
H244 C254 0.929 . S
H245 C249 0.929 . S
H246 C255 0.929 . S
C247 H241 0.930 . S
C247 C248 1.367 . S
C247 C255 1.378 . S
C248 C247 1.367 . S
C248 C256 1.433 . S
C249 H245 0.929 . S
C249 C251 1.378 . S
C249 C253 1.350 . S
C250 C253 1.463 . S
C250 C255 1.350 . S
C250 N258 1.427 . S
C251 H242 0.930 . S
C251 C249 1.378 . S
C251 C252 1.367 . S
C252 C251 1.367 . S
C252 C254 1.433 . S
C253 C249 1.350 . S
C253 C250 1.463 . S
C253 N257 1.427 . S
C254 H244 0.929 . S
C254 C252 1.433 . S
C254 N257 1.384 . S
C255 H246 0.929 . S
C255 C247 1.378 . S
C255 C250 1.350 . S
C256 H243 0.929 . S
C256 C248 1.433 . S
C256 N258 1.384 . S
N257 C253 1.427 . S
N257 C254 1.384 . S
N258 C250 1.427 . S
N258 C256 1.384 . S
H259 C265 0.930 . S
H260 C269 0.930 . S
H261 C274 0.929 . S
H262 C272 0.929 . S
H263 C267 0.929 . S
H264 C273 0.929 . S
C265 H259 0.930 . S
C265 C266 1.367 . S
C265 C273 1.378 . S
C266 C265 1.367 . S
C266 C274 1.433 . S
C267 H263 0.929 . S
C267 C269 1.378 . S
C267 C271 1.350 . S
C268 C271 1.463 . S
C268 C273 1.350 . S
C268 N276 1.427 . S
C269 H260 0.930 . S
C269 C267 1.378 . S
C269 C270 1.367 . S
C270 C269 1.367 . S
C270 C272 1.433 . S
C271 C267 1.350 . S
C271 C268 1.463 . S
C271 N275 1.427 . S
C272 H262 0.929 . S
C272 C270 1.433 . S
C272 N275 1.384 . S
C273 H264 0.929 . S
C273 C265 1.378 . S
C273 C268 1.350 . S
C274 H261 0.929 . S
C274 C266 1.433 . S
C274 N276 1.384 . S
N275 C271 1.427 . S
N275 C272 1.384 . S
N276 C268 1.427 . S
N276 C274 1.384 . S
H277 C283 0.930 . S
H278 C287 0.930 . S
H279 C292 0.929 . S
H280 C290 0.929 . S
H281 C285 0.929 . S
H282 C291 0.929 . S
C283 H277 0.930 . S
C283 C284 1.367 . S
C283 C291 1.378 . S
C284 C283 1.367 . S
C284 C292 1.433 . S
C285 H281 0.929 . S
C285 C287 1.378 . S
C285 C289 1.350 . S
C286 C289 1.463 . S
C286 C291 1.350 . S
C286 N294 1.427 . S
C287 H278 0.930 . S
C287 C285 1.378 . S
C287 C288 1.367 . S
C288 C287 1.367 . S
C288 C290 1.433 . S
C289 C285 1.350 . S
C289 C286 1.463 . S
C289 N293 1.427 . S
C290 H280 0.929 . S
C290 C288 1.433 . S
C290 N293 1.384 . S
C291 H282 0.929 . S
C291 C283 1.378 . S
C291 C286 1.350 . S
C292 H279 0.929 . S
C292 C284 1.433 . S
C292 N294 1.384 . S
N293 C289 1.427 . S
N293 C290 1.384 . S
N294 C286 1.427 . S
N294 C292 1.384 . S
H295 C301 0.930 . S
H296 C305 0.930 . S
H297 C310 0.929 . S
H298 C308 0.929 . S
H299 C303 0.929 . S
H300 C309 0.929 . S
C301 H295 0.930 . S
C301 C302 1.367 . S
C301 C309 1.378 . S
C302 C301 1.367 . S
C302 C310 1.433 . S
C303 H299 0.929 . S
C303 C305 1.378 . S
C303 C307 1.350 . S
C304 C307 1.463 . S
C304 C309 1.350 . S
C304 N312 1.427 . S
C305 H296 0.930 . S
C305 C303 1.378 . S
C305 C306 1.367 . S
C306 C305 1.367 . S
C306 C308 1.433 . S
C307 C303 1.350 . S
C307 C304 1.463 . S
C307 N311 1.427 . S
C308 H298 0.929 . S
C308 C306 1.433 . S
C308 N311 1.384 . S
C309 H300 0.929 . S
C309 C301 1.378 . S
C309 C304 1.350 . S
C310 H297 0.929 . S
C310 C302 1.433 . S
C310 N312 1.384 . S
N311 C307 1.427 . S
N311 C308 1.384 . S
N312 C304 1.427 . S
N312 C310 1.384 . S
H313 C319 0.930 . S
H314 C323 0.930 . S
H315 C328 0.929 . S
H316 C326 0.929 . S
H317 C321 0.929 . S
H318 C327 0.929 . S
C319 H313 0.930 . S
C319 C320 1.367 . S
C319 C327 1.378 . S
C320 C319 1.367 . S
C320 C328 1.433 . S
C321 H317 0.929 . S
C321 C323 1.378 . S
C321 C325 1.350 . S
C322 C325 1.463 . S
C322 C327 1.350 . S
C322 N330 1.427 . S
C323 H314 0.930 . S
C323 C321 1.378 . S
C323 C324 1.367 . S
C324 C323 1.367 . S
C324 C326 1.433 . S
C325 C321 1.350 . S
C325 C322 1.463 . S
C325 N329 1.427 . S
C326 H316 0.929 . S
C326 C324 1.433 . S
C326 N329 1.384 . S
C327 H318 0.929 . S
C327 C319 1.378 . S
C327 C322 1.350 . S
C328 H315 0.929 . S
C328 C320 1.433 . S
C328 N330 1.384 . S
N329 C325 1.427 . S
N329 C326 1.384 . S
N330 C322 1.427 . S
N330 C328 1.384 . S
H331 C337 0.930 . S
H332 C341 0.930 . S
H333 C346 0.929 . S
H334 C344 0.929 . S
H335 C339 0.929 . S
H336 C345 0.929 . S
C337 H331 0.930 . S
C337 C338 1.367 . S
C337 C345 1.378 . S
C338 C337 1.367 . S
C338 C346 1.433 . S
C339 H335 0.929 . S
C339 C341 1.378 . S
C339 C343 1.350 . S
C340 C343 1.463 . S
C340 C345 1.350 . S
C340 N348 1.427 . S
C341 H332 0.930 . S
C341 C339 1.378 . S
C341 C342 1.367 . S
C342 C341 1.367 . S
C342 C344 1.433 . S
C343 C339 1.350 . S
C343 C340 1.463 . S
C343 N347 1.427 . S
C344 H334 0.929 . S
C344 C342 1.433 . S
C344 N347 1.384 . S
C345 H336 0.929 . S
C345 C337 1.378 . S
C345 C340 1.350 . S
C346 H333 0.929 . S
C346 C338 1.433 . S
C346 N348 1.384 . S
N347 C343 1.427 . S
N347 C344 1.384 . S
N348 C340 1.427 . S
N348 C346 1.384 . S
H349 C355 0.930 . S
H350 C359 0.930 . S
H351 C364 0.929 . S
H352 C362 0.929 . S
H353 C357 0.929 . S
H354 C363 0.929 . S
C355 H349 0.930 . S
C355 C356 1.367 . S
C355 C363 1.378 . S
C356 C355 1.367 . S
C356 C364 1.433 . S
C357 H353 0.929 . S
C357 C359 1.378 . S
C357 C361 1.350 . S
C358 C361 1.463 . S
C358 C363 1.350 . S
C358 N366 1.427 . S
C359 H350 0.930 . S
C359 C357 1.378 . S
C359 C360 1.367 . S
C360 C359 1.367 . S
C360 C362 1.433 . S
C361 C357 1.350 . S
C361 C358 1.463 . S
C361 N365 1.427 . S
C362 H352 0.929 . S
C362 C360 1.433 . S
C362 N365 1.384 . S
C363 H354 0.929 . S
C363 C355 1.378 . S
C363 C358 1.350 . S
C364 H351 0.929 . S
C364 C356 1.433 . S
C364 N366 1.384 . S
N365 C361 1.427 . S
N365 C362 1.384 . S
N366 C358 1.427 . S
N366 C364 1.384 . S
H367 C373 0.930 . S
H368 C377 0.930 . S
H369 C382 0.929 . S
H370 C380 0.929 . S
H371 C375 0.929 . S
H372 C381 0.929 . S
C373 H367 0.930 . S
C373 C374 1.367 . S
C373 C381 1.378 . S
C374 C373 1.367 . S
C374 C382 1.433 . S
C375 H371 0.929 . S
C375 C377 1.378 . S
C375 C379 1.350 . S
C376 C379 1.463 . S
C376 C381 1.350 . S
C376 N384 1.427 . S
C377 H368 0.930 . S
C377 C375 1.378 . S
C377 C378 1.367 . S
C378 C377 1.367 . S
C378 C380 1.433 . S
C379 C375 1.350 . S
C379 C376 1.463 . S
C379 N383 1.427 . S
C380 H370 0.929 . S
C380 C378 1.433 . S
C380 N383 1.384 . S
C381 H372 0.929 . S
C381 C373 1.378 . S
C381 C376 1.350 . S
C382 H369 0.929 . S
C382 C374 1.433 . S
C382 N384 1.384 . S
N383 C379 1.427 . S
N383 C380 1.384 . S
N384 C376 1.427 . S
N384 C382 1.384 . S
H385 C391 0.930 . S
H386 C395 0.930 . S
H387 C400 0.929 . S
H388 C398 0.929 . S
H389 C393 0.929 . S
H390 C399 0.929 . S
C391 H385 0.930 . S
C391 C392 1.367 . S
C391 C399 1.378 . S
C392 C391 1.367 . S
C392 C400 1.433 . S
C393 H389 0.929 . S
C393 C395 1.378 . S
C393 C397 1.350 . S
C394 C397 1.463 . S
C394 C399 1.350 . S
C394 N402 1.427 . S
C395 H386 0.930 . S
C395 C393 1.378 . S
C395 C396 1.367 . S
C396 C395 1.367 . S
C396 C398 1.433 . S
C397 C393 1.350 . S
C397 C394 1.463 . S
C397 N401 1.427 . S
C398 H388 0.929 . S
C398 C396 1.433 . S
C398 N401 1.384 . S
C399 H390 0.929 . S
C399 C391 1.378 . S
C399 C394 1.350 . S
C400 H387 0.929 . S
C400 C392 1.433 . S
C400 N402 1.384 . S
N401 C397 1.427 . S
N401 C398 1.384 . S
N402 C394 1.427 . S
N402 C400 1.384 . S
H403 C409 0.930 . S
H404 C413 0.930 . S
H405 C418 0.929 . S
H406 C416 0.929 . S
H407 C411 0.929 . S
H408 C417 0.929 . S
C409 H403 0.930 . S
C409 C410 1.367 . S
C409 C417 1.378 . S
C410 C409 1.367 . S
C410 C418 1.433 . S
C411 H407 0.929 . S
C411 C413 1.378 . S
C411 C415 1.350 . S
C412 C415 1.463 . S
C412 C417 1.350 . S
C412 N420 1.427 . S
C413 H404 0.930 . S
C413 C411 1.378 . S
C413 C414 1.367 . S
C414 C413 1.367 . S
C414 C416 1.433 . S
C415 C411 1.350 . S
C415 C412 1.463 . S
C415 N419 1.427 . S
C416 H406 0.929 . S
C416 C414 1.433 . S
C416 N419 1.384 . S
C417 H408 0.929 . S
C417 C409 1.378 . S
C417 C412 1.350 . S
C418 H405 0.929 . S
C418 C410 1.433 . S
C418 N420 1.384 . S
N419 C415 1.427 . S
N419 C416 1.384 . S
N420 C412 1.427 . S
N420 C418 1.384 . S
H421 C427 0.930 . S
H422 C431 0.930 . S
H423 C436 0.929 . S
H424 C434 0.929 . S
H425 C429 0.929 . S
H426 C435 0.929 . S
C427 H421 0.930 . S
C427 C428 1.367 . S
C427 C435 1.378 . S
C428 C427 1.367 . S
C428 C436 1.433 . S
C429 H425 0.929 . S
C429 C431 1.378 . S
C429 C433 1.350 . S
C430 C433 1.463 . S
C430 C435 1.350 . S
C430 N438 1.427 . S
C431 H422 0.930 . S
C431 C429 1.378 . S
C431 C432 1.367 . S
C432 C431 1.367 . S
C432 C434 1.433 . S
C433 C429 1.350 . S
C433 C430 1.463 . S
C433 N437 1.427 . S
C434 H424 0.929 . S
C434 C432 1.433 . S
C434 N437 1.384 . S
C435 H426 0.929 . S
C435 C427 1.378 . S
C435 C430 1.350 . S
C436 H423 0.929 . S
C436 C428 1.433 . S
C436 N438 1.384 . S
N437 C433 1.427 . S
N437 C434 1.384 . S
N438 C430 1.427 . S
N438 C436 1.384 . S
H439 C445 0.930 . S
H440 C449 0.930 . S
H441 C454 0.929 . S
H442 C452 0.929 . S
H443 C447 0.929 . S
H444 C453 0.929 . S
C445 H439 0.930 . S
C445 C446 1.367 . S
C445 C453 1.378 . S
C446 C445 1.367 . S
C446 C454 1.433 . S
C447 H443 0.929 . S
C447 C449 1.378 . S
C447 C451 1.350 . S
C448 C451 1.463 . S
C448 C453 1.350 . S
C448 N456 1.427 . S
C449 H440 0.930 . S
C449 C447 1.378 . S
C449 C450 1.367 . S
C450 C449 1.367 . S
C450 C452 1.433 . S
C451 C447 1.350 . S
C451 C448 1.463 . S
C451 N455 1.427 . S
C452 H442 0.929 . S
C452 C450 1.433 . S
C452 N455 1.384 . S
C453 H444 0.929 . S
C453 C445 1.378 . S
C453 C448 1.350 . S
C454 H441 0.929 . S
C454 C446 1.433 . S
C454 N456 1.384 . S
N455 C451 1.427 . S
N455 C452 1.384 . S
N456 C448 1.427 . S
N456 C454 1.384 . S
H457 C463 0.930 . S
H458 C467 0.930 . S
H459 C472 0.929 . S
H460 C470 0.929 . S
H461 C465 0.929 . S
H462 C471 0.929 . S
C463 H457 0.930 . S
C463 C464 1.367 . S
C463 C471 1.378 . S
C464 C463 1.367 . S
C464 C472 1.433 . S
C465 H461 0.929 . S
C465 C467 1.378 . S
C465 C469 1.350 . S
C466 C469 1.463 . S
C466 C471 1.350 . S
C466 N474 1.427 . S
C467 H458 0.930 . S
C467 C465 1.378 . S
C467 C468 1.367 . S
C468 C467 1.367 . S
C468 C470 1.433 . S
C469 C465 1.350 . S
C469 C466 1.463 . S
C469 N473 1.427 . S
C470 H460 0.929 . S
C470 C468 1.433 . S
C470 N473 1.384 . S
C471 H462 0.929 . S
C471 C463 1.378 . S
C471 C466 1.350 . S
C472 H459 0.929 . S
C472 C464 1.433 . S
C472 N474 1.384 . S
N473 C469 1.427 . S
N473 C470 1.384 . S
N474 C466 1.427 . S
N474 C472 1.384 . S
H475 C481 0.930 . S
H476 C485 0.930 . S
H477 C490 0.929 . S
H478 C488 0.929 . S
H479 C483 0.929 . S
H480 C489 0.929 . S
C481 H475 0.930 . S
C481 C482 1.367 . S
C481 C489 1.378 . S
C482 C481 1.367 . S
C482 C490 1.433 . S
C483 H479 0.929 . S
C483 C485 1.378 . S
C483 C487 1.350 . S
C484 C487 1.463 . S
C484 C489 1.350 . S
C484 N492 1.427 . S
C485 H476 0.930 . S
C485 C483 1.378 . S
C485 C486 1.367 . S
C486 C485 1.367 . S
C486 C488 1.433 . S
C487 C483 1.350 . S
C487 C484 1.463 . S
C487 N491 1.427 . S
C488 H478 0.929 . S
C488 C486 1.433 . S
C488 N491 1.384 . S
C489 H480 0.929 . S
C489 C481 1.378 . S
C489 C484 1.350 . S
C490 H477 0.929 . S
C490 C482 1.433 . S
C490 N492 1.384 . S
N491 C487 1.427 . S
N491 C488 1.384 . S
N492 C484 1.427 . S
N492 C490 1.384 . S
H493 C499 0.930 . S
H494 C503 0.930 . S
H495 C508 0.929 . S
H496 C506 0.929 . S
H497 C501 0.929 . S
H498 C507 0.929 . S
C499 H493 0.930 . S
C499 C500 1.367 . S
C499 C507 1.378 . S
C500 C499 1.367 . S
C500 C508 1.433 . S
C501 H497 0.929 . S
C501 C503 1.378 . S
C501 C505 1.350 . S
C502 C505 1.463 . S
C502 C507 1.350 . S
C502 N510 1.427 . S
C503 H494 0.930 . S
C503 C501 1.378 . S
C503 C504 1.367 . S
C504 C503 1.367 . S
C504 C506 1.433 . S
C505 C501 1.350 . S
C505 C502 1.463 . S
C505 N509 1.427 . S
C506 H496 0.929 . S
C506 C504 1.433 . S
C506 N509 1.384 . S
C507 H498 0.929 . S
C507 C499 1.378 . S
C507 C502 1.350 . S
C508 H495 0.929 . S
C508 C500 1.433 . S
C508 N510 1.384 . S
N509 C505 1.427 . S
N509 C506 1.384 . S
N510 C502 1.427 . S
N510 C508 1.384 . S
H511 C517 0.930 . S
H512 C521 0.930 . S
H513 C526 0.929 . S
H514 C524 0.929 . S
H515 C519 0.929 . S
H516 C525 0.929 . S
C517 H511 0.930 . S
C517 C518 1.367 . S
C517 C525 1.378 . S
C518 C517 1.367 . S
C518 C526 1.433 . S
C519 H515 0.929 . S
C519 C521 1.378 . S
C519 C523 1.350 . S
C520 C523 1.463 . S
C520 C525 1.350 . S
C520 N528 1.427 . S
C521 H512 0.930 . S
C521 C519 1.378 . S
C521 C522 1.367 . S
C522 C521 1.367 . S
C522 C524 1.433 . S
C523 C519 1.350 . S
C523 C520 1.463 . S
C523 N527 1.427 . S
C524 H514 0.929 . S
C524 C522 1.433 . S
C524 N527 1.384 . S
C525 H516 0.929 . S
C525 C517 1.378 . S
C525 C520 1.350 . S
C526 H513 0.929 . S
C526 C518 1.433 . S
C526 N528 1.384 . S
N527 C523 1.427 . S
N527 C524 1.384 . S
N528 C520 1.427 . S
N528 C526 1.384 . S
H529 C535 0.930 . S
H530 C539 0.930 . S
H531 C544 0.929 . S
H532 C542 0.929 . S
H533 C537 0.929 . S
H534 C543 0.929 . S
C535 H529 0.930 . S
C535 C536 1.367 . S
C535 C543 1.378 . S
C536 C535 1.367 . S
C536 C544 1.433 . S
C537 H533 0.929 . S
C537 C539 1.378 . S
C537 C541 1.350 . S
C538 C541 1.463 . S
C538 C543 1.350 . S
C538 N546 1.427 . S
C539 H530 0.930 . S
C539 C537 1.378 . S
C539 C540 1.367 . S
C540 C539 1.367 . S
C540 C542 1.433 . S
C541 C537 1.350 . S
C541 C538 1.463 . S
C541 N545 1.427 . S
C542 H532 0.929 . S
C542 C540 1.433 . S
C542 N545 1.384 . S
C543 H534 0.929 . S
C543 C535 1.378 . S
C543 C538 1.350 . S
C544 H531 0.929 . S
C544 C536 1.433 . S
C544 N546 1.384 . S
N545 C541 1.427 . S
N545 C542 1.384 . S
N546 C538 1.427 . S
N546 C544 1.384 . S
H547 C553 0.930 . S
H548 C557 0.930 . S
H549 C562 0.929 . S
H550 C560 0.929 . S
H551 C555 0.929 . S
H552 C561 0.929 . S
C553 H547 0.930 . S
C553 C554 1.367 . S
C553 C561 1.378 . S
C554 C553 1.367 . S
C554 C562 1.433 . S
C555 H551 0.929 . S
C555 C557 1.378 . S
C555 C559 1.350 . S
C556 C559 1.463 . S
C556 C561 1.350 . S
C556 N564 1.427 . S
C557 H548 0.930 . S
C557 C555 1.378 . S
C557 C558 1.367 . S
C558 C557 1.367 . S
C558 C560 1.433 . S
C559 C555 1.350 . S
C559 C556 1.463 . S
C559 N563 1.427 . S
C560 H550 0.929 . S
C560 C558 1.433 . S
C560 N563 1.384 . S
C561 H552 0.929 . S
C561 C553 1.378 . S
C561 C556 1.350 . S
C562 H549 0.929 . S
C562 C554 1.433 . S
C562 N564 1.384 . S
N563 C559 1.427 . S
N563 C560 1.384 . S
N564 C556 1.427 . S
N564 C562 1.384 . S
H565 C571 0.930 . S
H566 C575 0.930 . S
H567 C580 0.929 . S
H568 C578 0.929 . S
H569 C573 0.929 . S
H570 C579 0.929 . S
C571 H565 0.930 . S
C571 C572 1.367 . S
C571 C579 1.378 . S
C572 C571 1.367 . S
C572 C580 1.433 . S
C573 H569 0.929 . S
C573 C575 1.378 . S
C573 C577 1.350 . S
C574 C577 1.463 . S
C574 C579 1.350 . S
C574 N582 1.427 . S
C575 H566 0.930 . S
C575 C573 1.378 . S
C575 C576 1.367 . S
C576 C575 1.367 . S
C576 C578 1.433 . S
C577 C573 1.350 . S
C577 C574 1.463 . S
C577 N581 1.427 . S
C578 H568 0.929 . S
C578 C576 1.433 . S
C578 N581 1.384 . S
C579 H570 0.929 . S
C579 C571 1.378 . S
C579 C574 1.350 . S
C580 H567 0.929 . S
C580 C572 1.433 . S
C580 N582 1.384 . S
N581 C577 1.427 . S
N581 C578 1.384 . S
N582 C574 1.427 . S
N582 C580 1.384 . S
H583 C589 0.930 . S
H584 C593 0.930 . S
H585 C598 0.929 . S
H586 C596 0.929 . S
H587 C591 0.929 . S
H588 C597 0.929 . S
C589 H583 0.930 . S
C589 C590 1.367 . S
C589 C597 1.378 . S
C590 C589 1.367 . S
C590 C598 1.433 . S
C591 H587 0.929 . S
C591 C593 1.378 . S
C591 C595 1.350 . S
C592 C595 1.463 . S
C592 C597 1.350 . S
C592 N600 1.427 . S
C593 H584 0.930 . S
C593 C591 1.378 . S
C593 C594 1.367 . S
C594 C593 1.367 . S
C594 C596 1.433 . S
C595 C591 1.350 . S
C595 C592 1.463 . S
C595 N599 1.427 . S
C596 H586 0.929 . S
C596 C594 1.433 . S
C596 N599 1.384 . S
C597 H588 0.929 . S
C597 C589 1.378 . S
C597 C592 1.350 . S
C598 H585 0.929 . S
C598 C590 1.433 . S
C598 N600 1.384 . S
N599 C595 1.427 . S
N599 C596 1.384 . S
N600 C592 1.427 . S
N600 C598 1.384 . S
H601 C607 0.930 . S
H602 C611 0.930 . S
H603 C616 0.929 . S
H604 C614 0.929 . S
H605 C609 0.929 . S
H606 C615 0.929 . S
C607 H601 0.930 . S
C607 C608 1.367 . S
C607 C615 1.378 . S
C608 C607 1.367 . S
C608 C616 1.433 . S
C609 H605 0.929 . S
C609 C611 1.378 . S
C609 C613 1.350 . S
C610 C613 1.463 . S
C610 C615 1.350 . S
C610 N618 1.427 . S
C611 H602 0.930 . S
C611 C609 1.378 . S
C611 C612 1.367 . S
C612 C611 1.367 . S
C612 C614 1.433 . S
C613 C609 1.350 . S
C613 C610 1.463 . S
C613 N617 1.427 . S
C614 H604 0.929 . S
C614 C612 1.433 . S
C614 N617 1.384 . S
C615 H606 0.929 . S
C615 C607 1.378 . S
C615 C610 1.350 . S
C616 H603 0.929 . S
C616 C608 1.433 . S
C616 N618 1.384 . S
N617 C613 1.427 . S
N617 C614 1.384 . S
N618 C610 1.427 . S
N618 C616 1.384 . S
C198 C112 1.515 . S
C194 C5 1.345 . S
C216 C148 1.828 . S
C212 C16 1.818 . S
C234 C113 1.150 . S
C230 C30 1.182 . S
C252 C143 1.169 . S
C248 C40 1.140 . S
C270 C110 1.141 . S
C266 C49 1.132 . S
C284 C63 1.464 . S
C288 C146 1.461 . S
C302 C74 0.605 . S
C306 C115 0.686 . S
C324 C145 1.627 . S
C320 C85 1.610 . S
C342 C149 1.501 . S
C338 C8 1.545 . S
C360 C114 1.829 . S
C356 C18 1.877 . S
C378 C142 1.640 . S
C374 C27 1.560 . S
C396 C111 0.716 . S
C392 C38 0.746 . S
C414 C144 1.795 . S
C410 C51 1.922 . S
C428 C60 1.523 . S
C432 C109 1.604 . S
C446 C71 1.161 . S
C450 C147 1.176 . S
C468 C116 1.466 . S
C464 C84 1.501 . S
C486 C178 2.156 . S
C482 C7 2.177 . S
C500 C52 1.919 . S
C504 C181 1.738 . S
C522 C180 1.895 . S
C518 C62 1.898 . S
C536 C73 1.962 . S
C540 C179 1.988 . S
C558 C182 1.746 . S
C554 C82 1.556 . S
C572 C29 1.887 . S
C576 C176 1.846 . S
C594 C175 1.449 . S
C590 C41 1.435 . S
C608 C19 1.946 . S
C612 C177 1.816 . S
