# Generated by pormake.
# Topology gar, (4,6)-cn, num edge types: 1
# Building blocks:
#     Node 0, Type 0, BuildingBlock: QUQFOY_clean_sbu_3, # of connection points: 4
#     Node 1, Type 0, BuildingBlock: QUQFOY_clean_sbu_3, # of connection points: 4
#     Node 2, Type 0, BuildingBlock: QUQFOY_clean_sbu_3, # of connection points: 4
#     Node 3, Type 0, BuildingBlock: QUQFOY_clean_sbu_3, # of connection points: 4
#     Node 4, Type 0, BuildingBlock: QUQFOY_clean_sbu_3, # of connection points: 4
#     Node 5, Type 0, BuildingBlock: QUQFOY_clean_sbu_3, # of connection points: 4
#     Node 6, Type 0, BuildingBlock: QUQFOY_clean_sbu_3, # of connection points: 4
#     Node 7, Type 0, BuildingBlock: QUQFOY_clean_sbu_3, # of connection points: 4
#     Node 8, Type 0, BuildingBlock: QUQFOY_clean_sbu_3, # of connection points: 4
#     Node 9, Type 0, BuildingBlock: QUQFOY_clean_sbu_3, # of connection points: 4
#     Node 10, Type 0, BuildingBlock: QUQFOY_clean_sbu_3, # of connection points: 4
#     Node 11, Type 0, BuildingBlock: QUQFOY_clean_sbu_3, # of connection points: 4
#     Node 12, Type 0, BuildingBlock: QUQFOY_clean_sbu_3, # of connection points: 4
#     Node 13, Type 0, BuildingBlock: QUQFOY_clean_sbu_3, # of connection points: 4
#     Node 14, Type 0, BuildingBlock: QUQFOY_clean_sbu_3, # of connection points: 4
#     Node 15, Type 0, BuildingBlock: QUQFOY_clean_sbu_3, # of connection points: 4
#     Node 16, Type 0, BuildingBlock: QUQFOY_clean_sbu_3, # of connection points: 4
#     Node 17, Type 0, BuildingBlock: QUQFOY_clean_sbu_3, # of connection points: 4
#     Node 18, Type 0, BuildingBlock: QUQFOY_clean_sbu_3, # of connection points: 4
#     Node 19, Type 0, BuildingBlock: QUQFOY_clean_sbu_3, # of connection points: 4
#     Node 20, Type 0, BuildingBlock: QUQFOY_clean_sbu_3, # of connection points: 4
#     Node 21, Type 0, BuildingBlock: QUQFOY_clean_sbu_3, # of connection points: 4
#     Node 22, Type 0, BuildingBlock: QUQFOY_clean_sbu_3, # of connection points: 4
#     Node 23, Type 0, BuildingBlock: QUQFOY_clean_sbu_3, # of connection points: 4
#     Node 24, Type 1, BuildingBlock: BETGAK_clean_sbu_0, # of connection points: 6
#     Node 25, Type 1, BuildingBlock: BETGAK_clean_sbu_0, # of connection points: 6
#     Node 26, Type 1, BuildingBlock: BETGAK_clean_sbu_0, # of connection points: 6
#     Node 27, Type 1, BuildingBlock: BETGAK_clean_sbu_0, # of connection points: 6
#     Node 28, Type 1, BuildingBlock: BETGAK_clean_sbu_0, # of connection points: 6
#     Node 29, Type 1, BuildingBlock: BETGAK_clean_sbu_0, # of connection points: 6
#     Node 30, Type 1, BuildingBlock: BETGAK_clean_sbu_0, # of connection points: 6
#     Node 31, Type 1, BuildingBlock: BETGAK_clean_sbu_0, # of connection points: 6
#     Node 32, Type 1, BuildingBlock: BETGAK_clean_sbu_0, # of connection points: 6
#     Node 33, Type 1, BuildingBlock: BETGAK_clean_sbu_0, # of connection points: 6
#     Node 34, Type 1, BuildingBlock: BETGAK_clean_sbu_0, # of connection points: 6
#     Node 35, Type 1, BuildingBlock: BETGAK_clean_sbu_0, # of connection points: 6
#     Node 36, Type 1, BuildingBlock: BETGAK_clean_sbu_0, # of connection points: 6
#     Node 37, Type 1, BuildingBlock: BETGAK_clean_sbu_0, # of connection points: 6
#     Node 38, Type 1, BuildingBlock: BETGAK_clean_sbu_0, # of connection points: 6
#     Node 39, Type 1, BuildingBlock: BETGAK_clean_sbu_0, # of connection points: 6
#     Edge 40, Type (0, 1), BuildingBlock: TEMPAE_clean_linker_10, # of connection points: 2
#     Edge 41, Type (0, 1), BuildingBlock: TEMPAE_clean_linker_10, # of connection points: 2
#     Edge 42, Type (0, 1), BuildingBlock: TEMPAE_clean_linker_10, # of connection points: 2
#     Edge 43, Type (0, 1), BuildingBlock: TEMPAE_clean_linker_10, # of connection points: 2
#     Edge 44, Type (0, 1), BuildingBlock: TEMPAE_clean_linker_10, # of connection points: 2
#     Edge 45, Type (0, 1), BuildingBlock: TEMPAE_clean_linker_10, # of connection points: 2
#     Edge 46, Type (0, 1), BuildingBlock: TEMPAE_clean_linker_10, # of connection points: 2
#     Edge 47, Type (0, 1), BuildingBlock: TEMPAE_clean_linker_10, # of connection points: 2
#     Edge 48, Type (0, 1), BuildingBlock: TEMPAE_clean_linker_10, # of connection points: 2
#     Edge 49, Type (0, 1), BuildingBlock: TEMPAE_clean_linker_10, # of connection points: 2
#     Edge 50, Type (0, 1), BuildingBlock: TEMPAE_clean_linker_10, # of connection points: 2
#     Edge 51, Type (0, 1), BuildingBlock: TEMPAE_clean_linker_10, # of connection points: 2
#     Edge 52, Type (0, 1), BuildingBlock: TEMPAE_clean_linker_10, # of connection points: 2
#     Edge 53, Type (0, 1), BuildingBlock: TEMPAE_clean_linker_10, # of connection points: 2
#     Edge 54, Type (0, 1), BuildingBlock: TEMPAE_clean_linker_10, # of connection points: 2
#     Edge 55, Type (0, 1), BuildingBlock: TEMPAE_clean_linker_10, # of connection points: 2
#     Edge 56, Type (0, 1), BuildingBlock: TEMPAE_clean_linker_10, # of connection points: 2
#     Edge 57, Type (0, 1), BuildingBlock: TEMPAE_clean_linker_10, # of connection points: 2
#     Edge 58, Type (0, 1), BuildingBlock: TEMPAE_clean_linker_10, # of connection points: 2
#     Edge 59, Type (0, 1), BuildingBlock: TEMPAE_clean_linker_10, # of connection points: 2
#     Edge 60, Type (0, 1), BuildingBlock: TEMPAE_clean_linker_10, # of connection points: 2
#     Edge 61, Type (0, 1), BuildingBlock: TEMPAE_clean_linker_10, # of connection points: 2
#     Edge 62, Type (0, 1), BuildingBlock: TEMPAE_clean_linker_10, # of connection points: 2
#     Edge 63, Type (0, 1), BuildingBlock: TEMPAE_clean_linker_10, # of connection points: 2
#     Edge 64, Type (0, 1), BuildingBlock: TEMPAE_clean_linker_10, # of connection points: 2
#     Edge 65, Type (0, 1), BuildingBlock: TEMPAE_clean_linker_10, # of connection points: 2
#     Edge 66, Type (0, 1), BuildingBlock: TEMPAE_clean_linker_10, # of connection points: 2
#     Edge 67, Type (0, 1), BuildingBlock: TEMPAE_clean_linker_10, # of connection points: 2
#     Edge 68, Type (0, 1), BuildingBlock: TEMPAE_clean_linker_10, # of connection points: 2
#     Edge 69, Type (0, 1), BuildingBlock: TEMPAE_clean_linker_10, # of connection points: 2
#     Edge 70, Type (0, 1), BuildingBlock: TEMPAE_clean_linker_10, # of connection points: 2
#     Edge 71, Type (0, 1), BuildingBlock: TEMPAE_clean_linker_10, # of connection points: 2
#     Edge 72, Type (0, 1), BuildingBlock: TEMPAE_clean_linker_10, # of connection points: 2
#     Edge 73, Type (0, 1), BuildingBlock: TEMPAE_clean_linker_10, # of connection points: 2
#     Edge 74, Type (0, 1), BuildingBlock: TEMPAE_clean_linker_10, # of connection points: 2
#     Edge 75, Type (0, 1), BuildingBlock: TEMPAE_clean_linker_10, # of connection points: 2
#     Edge 76, Type (0, 1), BuildingBlock: TEMPAE_clean_linker_10, # of connection points: 2
#     Edge 77, Type (0, 1), BuildingBlock: TEMPAE_clean_linker_10, # of connection points: 2
#     Edge 78, Type (0, 1), BuildingBlock: TEMPAE_clean_linker_10, # of connection points: 2
#     Edge 79, Type (0, 1), BuildingBlock: TEMPAE_clean_linker_10, # of connection points: 2
#     Edge 80, Type (0, 1), BuildingBlock: TEMPAE_clean_linker_10, # of connection points: 2
#     Edge 81, Type (0, 1), BuildingBlock: TEMPAE_clean_linker_10, # of connection points: 2
#     Edge 82, Type (0, 1), BuildingBlock: TEMPAE_clean_linker_10, # of connection points: 2
#     Edge 83, Type (0, 1), BuildingBlock: TEMPAE_clean_linker_10, # of connection points: 2
#     Edge 84, Type (0, 1), BuildingBlock: TEMPAE_clean_linker_10, # of connection points: 2
#     Edge 85, Type (0, 1), BuildingBlock: TEMPAE_clean_linker_10, # of connection points: 2
#     Edge 86, Type (0, 1), BuildingBlock: TEMPAE_clean_linker_10, # of connection points: 2
#     Edge 87, Type (0, 1), BuildingBlock: TEMPAE_clean_linker_10, # of connection points: 2
#     Edge 88, Type (0, 1), BuildingBlock: TEMPAE_clean_linker_10, # of connection points: 2
#     Edge 89, Type (0, 1), BuildingBlock: TEMPAE_clean_linker_10, # of connection points: 2
#     Edge 90, Type (0, 1), BuildingBlock: TEMPAE_clean_linker_10, # of connection points: 2
#     Edge 91, Type (0, 1), BuildingBlock: TEMPAE_clean_linker_10, # of connection points: 2
#     Edge 92, Type (0, 1), BuildingBlock: TEMPAE_clean_linker_10, # of connection points: 2
#     Edge 93, Type (0, 1), BuildingBlock: TEMPAE_clean_linker_10, # of connection points: 2
#     Edge 94, Type (0, 1), BuildingBlock: TEMPAE_clean_linker_10, # of connection points: 2
#     Edge 95, Type (0, 1), BuildingBlock: TEMPAE_clean_linker_10, # of connection points: 2
#     Edge 96, Type (0, 1), BuildingBlock: TEMPAE_clean_linker_10, # of connection points: 2
#     Edge 97, Type (0, 1), BuildingBlock: TEMPAE_clean_linker_10, # of connection points: 2
#     Edge 98, Type (0, 1), BuildingBlock: TEMPAE_clean_linker_10, # of connection points: 2
#     Edge 99, Type (0, 1), BuildingBlock: TEMPAE_clean_linker_10, # of connection points: 2
#     Edge 100, Type (0, 1), BuildingBlock: TEMPAE_clean_linker_10, # of connection points: 2
#     Edge 101, Type (0, 1), BuildingBlock: TEMPAE_clean_linker_10, # of connection points: 2
#     Edge 102, Type (0, 1), BuildingBlock: TEMPAE_clean_linker_10, # of connection points: 2
#     Edge 103, Type (0, 1), BuildingBlock: TEMPAE_clean_linker_10, # of connection points: 2
#     Edge 104, Type (0, 1), BuildingBlock: TEMPAE_clean_linker_10, # of connection points: 2
#     Edge 105, Type (0, 1), BuildingBlock: TEMPAE_clean_linker_10, # of connection points: 2
#     Edge 106, Type (0, 1), BuildingBlock: TEMPAE_clean_linker_10, # of connection points: 2
#     Edge 107, Type (0, 1), BuildingBlock: TEMPAE_clean_linker_10, # of connection points: 2
#     Edge 108, Type (0, 1), BuildingBlock: TEMPAE_clean_linker_10, # of connection points: 2
#     Edge 109, Type (0, 1), BuildingBlock: TEMPAE_clean_linker_10, # of connection points: 2
#     Edge 110, Type (0, 1), BuildingBlock: TEMPAE_clean_linker_10, # of connection points: 2
#     Edge 111, Type (0, 1), BuildingBlock: TEMPAE_clean_linker_10, # of connection points: 2
#     Edge 112, Type (0, 1), BuildingBlock: TEMPAE_clean_linker_10, # of connection points: 2
#     Edge 113, Type (0, 1), BuildingBlock: TEMPAE_clean_linker_10, # of connection points: 2
#     Edge 114, Type (0, 1), BuildingBlock: TEMPAE_clean_linker_10, # of connection points: 2
#     Edge 115, Type (0, 1), BuildingBlock: TEMPAE_clean_linker_10, # of connection points: 2
#     Edge 116, Type (0, 1), BuildingBlock: TEMPAE_clean_linker_10, # of connection points: 2
#     Edge 117, Type (0, 1), BuildingBlock: TEMPAE_clean_linker_10, # of connection points: 2
#     Edge 118, Type (0, 1), BuildingBlock: TEMPAE_clean_linker_10, # of connection points: 2
#     Edge 119, Type (0, 1), BuildingBlock: TEMPAE_clean_linker_10, # of connection points: 2
#     Edge 120, Type (0, 1), BuildingBlock: TEMPAE_clean_linker_10, # of connection points: 2
#     Edge 121, Type (0, 1), BuildingBlock: TEMPAE_clean_linker_10, # of connection points: 2
#     Edge 122, Type (0, 1), BuildingBlock: TEMPAE_clean_linker_10, # of connection points: 2
#     Edge 123, Type (0, 1), BuildingBlock: TEMPAE_clean_linker_10, # of connection points: 2
#     Edge 124, Type (0, 1), BuildingBlock: TEMPAE_clean_linker_10, # of connection points: 2
#     Edge 125, Type (0, 1), BuildingBlock: TEMPAE_clean_linker_10, # of connection points: 2
#     Edge 126, Type (0, 1), BuildingBlock: TEMPAE_clean_linker_10, # of connection points: 2
#     Edge 127, Type (0, 1), BuildingBlock: TEMPAE_clean_linker_10, # of connection points: 2
#     Edge 128, Type (0, 1), BuildingBlock: TEMPAE_clean_linker_10, # of connection points: 2
#     Edge 129, Type (0, 1), BuildingBlock: TEMPAE_clean_linker_10, # of connection points: 2
#     Edge 130, Type (0, 1), BuildingBlock: TEMPAE_clean_linker_10, # of connection points: 2
#     Edge 131, Type (0, 1), BuildingBlock: TEMPAE_clean_linker_10, # of connection points: 2
#     Edge 132, Type (0, 1), BuildingBlock: TEMPAE_clean_linker_10, # of connection points: 2
#     Edge 133, Type (0, 1), BuildingBlock: TEMPAE_clean_linker_10, # of connection points: 2
#     Edge 134, Type (0, 1), BuildingBlock: TEMPAE_clean_linker_10, # of connection points: 2
#     Edge 135, Type (0, 1), BuildingBlock: TEMPAE_clean_linker_10, # of connection points: 2
# Relax obj value: 0.193
# Max RMSD: 0.314
# Mean RMSD: 0.155
data_MOF--net-gar--node1-QUQFOY_clean_sbu_3--node2-BETGAK_clean_sbu_0--edge1-TEMPAE_clean_linker_10
_symmetry_space_group_name_H-M    P1
_symmetry_Int_Tables_number       1
_symmetry_cell_setting            triclinic
loop_
_symmetry_equiv_pos_as_xyz
'x, y, z'
_cell_length_a     63.774706
_cell_length_b     59.349729
_cell_length_c     59.021872
_cell_angle_alpha  99.795715
_cell_angle_beta   95.266898
_cell_angle_gamma 103.13061
loop_
_atom_site_label
_atom_site_type_symbol
_atom_site_fract_x
_atom_site_fract_y
_atom_site_fract_z
_atom_type_partial_charge
C0 C 0.07635 0.33495 0.34626 0.0
O1 O 0.09003 0.34653 0.33552 0.0
Cd2 Cd 0.1269 0.36004 0.35048 0.0
O3 O 0.08221 0.32903 0.36518 0.0
Cd4 Cd 0.11417 0.3298 0.39244 0.0
C5 C 0.11805 0.38771 0.40417 0.0
O6 O 0.13041 0.32379 0.35964 0.0
O7 O 0.15328 0.32935 0.39046 0.0
O8 O 0.09073 0.29167 0.39149 0.0
C9 C 0.14918 0.32417 0.36847 0.0
O10 O 0.12222 0.38815 0.38357 0.0
C11 C 0.09594 0.29119 0.41261 0.0
O12 O 0.11516 0.36888 0.41223 0.0
O13 O 0.11025 0.30877 0.42457 0.0
C14 C 0.9547 0.74318 0.67454 0.0
O15 O 0.96337 0.73007 0.68518 0.0
Cd16 Cd 0.99966 0.72715 0.685 0.0
O17 O 0.96443 0.75465 0.66069 0.0
Cd18 Cd 0.99743 0.75665 0.64406 0.0
C19 C 0.99583 0.70041 0.6286 0.0
O20 O 0.0208 0.76387 0.68028 0.0
O21 O 0.0343 0.75468 0.64854 0.0
O22 O 0.0071 0.79792 0.64483 0.0
C23 C 0.03729 0.76204 0.67032 0.0
O24 O 1.00065 0.70124 0.65013 0.0
C25 C 0.00616 0.79605 0.62306 0.0
O26 O 0.99058 0.71743 0.62097 0.0
O27 O 0.99893 0.77558 0.61048 0.0
C28 C 0.57592 0.83246 0.84488 0.0
O29 O 0.58957 0.8455 0.83521 0.0
Cd30 Cd 0.62625 0.86085 0.85107 0.0
O31 O 0.58167 0.82564 0.86331 0.0
Cd32 Cd 0.61285 0.8259 0.89102 0.0
C33 C 0.61523 0.88347 0.90553 0.0
O34 O 0.63054 0.82498 0.85974 0.0
O35 O 0.65184 0.82431 0.88995 0.0
O36 O 0.59503 0.78512 0.88769 0.0
C37 C 0.64888 0.82365 0.86822 0.0
O38 O 0.61943 0.88578 0.88527 0.0
C39 C 0.59438 0.78657 0.90927 0.0
O40 O 0.61324 0.864 0.91227 0.0
O41 O 0.6031 0.80633 0.92264 0.0
C42 C 0.45869 0.24224 0.17971 0.0
O43 O 0.47066 0.23256 0.19113 0.0
Cd44 Cd 0.5054 0.22837 0.18699 0.0
O45 O 0.46441 0.25084 0.16226 0.0
Cd46 Cd 0.49685 0.25281 0.14284 0.0
C47 C 0.49601 0.19619 0.13127 0.0
O48 O 0.52201 0.2643 0.17762 0.0
O49 O 0.53358 0.24818 0.14723 0.0
O50 O 0.50755 0.29362 0.14149 0.0
C51 C 0.53775 0.25945 0.16804 0.0
O52 O 0.50243 0.19931 0.15285 0.0
C53 C 0.50614 0.29084 0.11963 0.0
O54 O 0.49015 0.21226 0.12235 0.0
O55 O 0.49786 0.27016 0.10784 0.0
C56 C 0.04878 0.796 0.14495 0.0
O57 O 0.05945 0.78554 0.15706 0.0
Cd58 Cd 0.09635 0.78296 0.15606 0.0
O59 O 0.0577 0.80781 0.13062 0.0
Cd60 Cd 0.09431 0.81812 0.11541 0.0
C61 C 0.08692 0.7581 0.09748 0.0
O62 O 0.11811 0.81936 0.1516 0.0
O63 O 0.13501 0.81985 0.122 0.0
O64 O 0.08962 0.85897 0.11472 0.0
C65 C 0.13574 0.81879 0.14338 0.0
O66 O 0.09195 0.75732 0.11866 0.0
C67 C 0.08956 0.85819 0.09302 0.0
O68 O 0.08507 0.77721 0.0911 0.0
O69 O 0.09274 0.83931 0.08156 0.0
C70 C 0.47612 0.77532 0.37747 0.0
O71 O 0.49212 0.78709 0.36975 0.0
Cd72 Cd 0.52977 0.79585 0.38323 0.0
O73 O 0.47974 0.76506 0.39454 0.0
Cd74 Cd 0.51738 0.76374 0.41848 0.0
C75 C 0.52844 0.82209 0.43935 0.0
O76 O 0.54138 0.76164 0.38753 0.0
O77 O 0.55721 0.78164 0.42074 0.0
O78 O 0.50789 0.72102 0.42394 0.0
C79 C 0.55911 0.77252 0.40025 0.0
O80 O 0.5355 0.82338 0.42001 0.0
C81 C 0.51869 0.72489 0.44404 0.0
O82 O 0.51821 0.80236 0.44344 0.0
O83 O 0.52732 0.74643 0.45286 0.0
C84 C 0.55083 0.2961 0.64786 0.0
O85 O 0.56253 0.28841 0.66177 0.0
Cd86 Cd 0.59891 0.28559 0.65882 0.0
O87 O 0.55868 0.30563 0.63155 0.0
Cd88 Cd 0.59468 0.31717 0.61512 0.0
C89 C 0.58766 0.2577 0.59988 0.0
O90 O 0.61917 0.32116 0.65154 0.0
O91 O 0.63537 0.31943 0.62143 0.0
O92 O 0.58332 0.35475 0.61332 0.0
C93 C 0.63655 0.31982 0.6431 0.0
O94 O 0.59268 0.25917 0.62157 0.0
C95 C 0.58828 0.3571 0.59333 0.0
O96 O 0.5856 0.27584 0.59164 0.0
O97 O 0.59703 0.34151 0.58335 0.0
C98 C 0.97389 0.27498 0.87775 0.0
O99 O 0.98817 0.28754 0.86844 0.0
Cd100 Cd 0.02695 0.29822 0.87786 0.0
O101 O 0.97977 0.26506 0.89436 0.0
Cd102 Cd 0.01832 0.26434 0.91719 0.0
C103 C 0.02886 0.32419 0.93546 0.0
O104 O 0.04151 0.26675 0.88536 0.0
O105 O 0.05875 0.27696 0.9199 0.0
O106 O 0.01098 0.22108 0.92057 0.0
C107 C 0.05969 0.27377 0.89832 0.0
O108 O 0.0325 0.32485 0.91471 0.0
C109 C 0.01886 0.22451 0.94186 0.0
O110 O 0.02149 0.3045 0.94158 0.0
O111 O 0.02485 0.24602 0.95216 0.0
C112 C 0.46999 0.03002 0.33197 0.0
O113 O 0.47871 0.01816 0.31733 0.0
Cd114 Cd 0.47564 0.00749 0.27691 0.0
O115 O 0.45538 0.04007 0.32615 0.0
Cd116 Cd 0.43727 0.04011 0.28941 0.0
C117 C 0.42338 0.98037 0.27296 0.0
O118 O 0.46481 0.03939 0.26592 0.0
O119 O 0.43308 0.0371 0.24827 0.0
O120 O 0.43012 0.07735 0.2939 0.0
C121 C 0.45199 0.03415 0.24707 0.0
O122 O 0.44198 0.97822 0.2682 0.0
C123 C 0.40961 0.06884 0.29064 0.0
O124 O 0.41994 1.00001 0.28184 0.0
O125 O 0.4022 0.04702 0.29038 0.0
C126 C 0.32037 0.15965 0.51204 0.0
O127 O 0.30606 0.14765 0.52177 0.0
Cd128 Cd 0.26888 0.14789 0.52269 0.0
O129 O 0.31566 0.17444 0.50011 0.0
Cd130 Cd 0.28181 0.19002 0.49044 0.0
C131 C 0.28034 0.20718 0.549 0.0
O132 O 0.25389 0.15259 0.48652 0.0
O133 O 0.24093 0.18302 0.48919 0.0
O134 O 0.28666 0.19054 0.44886 0.0
C135 C 0.23723 0.16081 0.48753 0.0
O136 O 0.27303 0.18521 0.54831 0.0
C137 C 0.28965 0.21264 0.45001 0.0
O138 O 0.28668 0.21476 0.53106 0.0
O139 O 0.28923 0.22465 0.46993 0.0
C140 C 0.13807 0.02447 0.81954 0.0
O141 O 0.12939 0.03594 0.80679 0.0
Cd142 Cd 0.14901 0.03807 0.77299 0.0
O143 O 0.15348 0.01547 0.81122 0.0
Cd144 Cd 0.17349 0.01277 0.76772 0.0
C145 C 0.19346 0.07799 0.77121 0.0
O146 O 0.13734 0.00797 0.73735 0.0
O147 O 0.16721 0.01989 0.72491 0.0
O148 O 0.17733 0.96702 0.76588 0.0
C149 C 0.14663 0.01354 0.72014 0.0
O150 O 0.17315 0.07626 0.77065 0.0
C151 C 0.19739 0.96886 0.76375 0.0
O152 O 0.19989 0.05879 0.77204 0.0
O153 O 0.20687 0.99019 0.76327 0.0
C154 C 0.35136 0.96921 0.99647 0.0
O155 O 0.34193 0.98225 0.98651 0.0
Cd156 Cd 0.30444 0.96423 0.9732 0.0
O157 O 0.34081 0.95012 1.00091 0.0
Cd158 Cd 0.30714 0.92416 1.00164 0.0
C159 C 0.30942 0.90941 0.94679 0.0
O160 O 0.29189 0.95627 0.00875 0.0
O161 O 0.26892 0.92179 1.00134 0.0
O162 O 0.32795 0.92921 0.03769 0.0
C163 C 0.2729 0.94394 0.00868 0.0
O164 O 0.30596 0.92933 0.94484 0.0
C165 C 0.32107 0.90805 0.03986 0.0
O166 O 0.31072 0.90299 0.96608 0.0
O167 O 0.30655 0.89422 0.02427 0.0
C168 C 0.3647 0.43122 0.02796 0.0
O169 O 0.35199 0.44152 0.01833 0.0
Cd170 Cd 0.31377 0.43104 0.0087 0.0
O171 O 0.35687 0.41305 0.03662 0.0
Cd172 Cd 0.31702 0.38879 0.03943 0.0
C173 C 0.31302 0.3742 0.98032 0.0
O174 O 0.29799 0.42079 0.04081 0.0
O175 O 0.27696 0.38605 0.03122 0.0
O176 O 0.32625 0.3853 0.08098 0.0
C177 C 0.27876 0.4081 0.03504 0.0
O178 O 0.31076 0.39509 0.98123 0.0
C179 C 0.31541 0.36404 0.07889 0.0
O180 O 0.31647 0.36646 0.99896 0.0
O181 O 0.30627 0.35383 0.05851 0.0
C182 C 0.82213 0.11432 0.03087 0.0
O183 O 0.80954 0.10129 0.04153 0.0
Cd184 Cd 0.77545 0.10911 0.04988 0.0
O185 O 0.81786 0.13263 0.02554 0.0
Cd186 Cd 0.79172 0.1536 0.02605 0.0
C187 C 0.78922 0.16551 0.08143 0.0
O188 O 0.76377 0.1188 0.01433 0.0
O189 O 0.7543 0.15191 0.02203 0.0
O190 O 0.79794 0.15643 0.9882 0.0
C191 C 0.7491 0.12994 0.01392 0.0
O192 O 0.77942 0.14397 0.07991 0.0
C193 C 0.79608 0.17748 0.9907 0.0
O194 O 0.7979 0.17271 0.06468 0.0
O195 O 0.79653 0.18881 0.01112 0.0
C196 C 0.13799 0.55335 0.26933 0.0
O197 O 0.12172 0.55097 0.25426 0.0
Cd198 Cd 0.1291 0.55637 0.21718 0.0
O199 O 0.15646 0.55239 0.26352 0.0
Cd200 Cd 0.1771 0.5449 0.23245 0.0
C201 C 0.17497 0.60008 0.24138 0.0
O202 O 0.14861 0.52823 0.2049 0.0
O203 O 0.17793 0.54246 0.19105 0.0
O204 O 0.17946 0.51246 0.24784 0.0
C205 C 0.15764 0.53292 0.18752 0.0
O206 O 0.1557 0.59402 0.23059 0.0
C207 C 0.19985 0.51631 0.24784 0.0
O208 O 0.18619 0.58545 0.24434 0.0
O209 O 0.20998 0.53385 0.24008 0.0
C210 C 0.86562 0.92965 0.53038 0.0
O211 O 0.85401 0.939 0.5181 0.0
Cd212 Cd 0.81516 0.92779 0.50896 0.0
O213 O 0.85661 0.91257 0.53981 0.0
Cd214 Cd 0.81626 0.88874 0.53903 0.0
C215 C 0.80977 0.87085 0.48023 0.0
O216 O 0.79554 0.91963 0.5402 0.0
O217 O 0.77768 0.88471 0.52295 0.0
O218 O 0.81366 0.88711 0.58084 0.0
C219 C 0.77738 0.9059 0.53077 0.0
O220 O 0.80773 0.89169 0.48018 0.0
C221 C 0.81173 0.86511 0.5793 0.0
O222 O 0.81498 0.86459 0.49926 0.0
O223 O 0.81253 0.85371 0.55922 0.0
C224 C 0.96885 0.06015 0.30726 0.0
O225 O 0.97827 0.04847 0.29328 0.0
Cd226 Cd 0.96237 0.03454 0.2532 0.0
O227 O 0.95259 0.06759 0.29872 0.0
Cd228 Cd 0.93039 0.06735 0.2542 0.0
C229 C 0.90991 1.00278 0.2555 0.0
O230 O 0.96547 0.06666 0.23116 0.0
O231 O 0.93608 0.05991 0.20882 0.0
O232 O 0.92425 0.11136 0.27158 0.0
C233 C 0.95659 0.06258 0.21006 0.0
O234 O 0.92967 1.00256 0.25405 0.0
C235 C 0.90682 0.11131 0.25894 0.0
O236 O 0.90455 0.0227 0.25561 0.0
O237 O 0.89991 0.09181 0.24434 0.0
C238 C 0.32155 0.61604 0.53222 0.0
O239 O 0.30823 0.60292 0.54215 0.0
Cd240 Cd 0.2729 0.6086 0.5484 0.0
O241 O 0.3173 0.6338 0.52553 0.0
Cd242 Cd 0.28982 0.65307 0.52408 0.0
C243 C 0.28579 0.66474 0.5797 0.0
O244 O 0.26185 0.61794 0.5125 0.0
O245 O 0.25256 0.65115 0.51899 0.0
O246 O 0.29712 0.65892 0.48699 0.0
C247 C 0.24713 0.62902 0.51202 0.0
O248 O 0.27571 0.64332 0.57839 0.0
C249 C 0.29438 0.67968 0.4909 0.0
O250 O 0.29464 0.6716 0.56289 0.0
O251 O 0.29396 0.6893 0.51173 0.0
C252 C 0.46841 0.55641 0.80577 0.0
O253 O 0.47566 0.54362 0.79043 0.0
Cd254 Cd 0.46239 0.53223 0.74974 0.0
O255 O 0.45365 0.56677 0.79876 0.0
Cd256 Cd 0.43108 0.5675 0.75431 0.0
C257 C 0.41019 0.50172 0.75263 0.0
O258 O 0.4652 0.56603 0.73048 0.0
O259 O 0.43579 0.56058 0.70855 0.0
O260 O 0.42769 0.61369 0.76442 0.0
C261 C 0.45622 0.56268 0.70954 0.0
O262 O 0.42945 0.5008 0.74937 0.0
C263 C 0.4073 0.61135 0.75892 0.0
O264 O 0.40551 0.5222 0.75487 0.0
O265 O 0.39752 0.58958 0.75165 0.0
C266 C 0.64235 0.05772 0.77628 0.0
O267 O 0.6246 0.05509 0.76336 0.0
Cd268 Cd 0.62562 0.05864 0.72424 0.0
O269 O 0.65969 0.05634 0.76801 0.0
Cd270 Cd 0.67504 0.04684 0.73351 0.0
C271 C 0.67215 0.10237 0.7428 0.0
O272 O 0.64531 0.03296 0.70654 0.0
O273 O 0.67497 0.04709 0.69282 0.0
O274 O 0.67801 0.01275 0.745 0.0
C275 C 0.65436 0.03974 0.68976 0.0
O276 O 0.6522 0.09647 0.73404 0.0
C277 C 0.69867 0.01856 0.74803 0.0
O278 O 0.68353 0.08764 0.7447 0.0
O279 O 0.70856 0.03747 0.74215 0.0
C280 C 0.81961 0.66088 0.01526 0.0
O281 O 0.80447 0.64947 0.02447 0.0
Cd282 Cd 0.76868 0.65317 0.02757 0.0
O283 O 0.81619 0.67667 0.00396 0.0
Cd284 Cd 0.7824 0.69221 0.9931 0.0
C285 C 0.78361 0.71304 0.05116 0.0
O286 O 0.75411 0.65512 0.99035 0.0
O287 O 0.74128 0.68551 0.99282 0.0
O288 O 0.78964 0.69235 0.95193 0.0
C289 C 0.73749 0.66332 0.99133 0.0
O290 O 0.77495 0.69175 0.05218 0.0
C291 C 0.79011 0.71392 0.95207 0.0
O292 O 0.78964 0.71874 0.03239 0.0
O293 O 0.78717 0.72563 0.97116 0.0
C294 C 0.96818 0.53408 0.83337 0.0
O295 O 0.98051 0.5266 0.81981 0.0
Cd296 Cd 0.97627 0.51361 0.77938 0.0
O297 O 0.95032 0.53803 0.82632 0.0
Cd298 Cd 0.93313 0.53532 0.78877 0.0
C299 C 0.92733 0.47791 0.78093 0.0
O300 O 0.96056 0.54127 0.76478 0.0
O301 O 0.92806 0.5229 0.74809 0.0
O302 O 0.92583 0.57224 0.79426 0.0
C303 C 0.94776 0.53137 0.74627 0.0
O304 O 0.94633 0.47925 0.77542 0.0
C305 C 0.90567 0.56393 0.787 0.0
O306 O 0.92042 0.49583 0.78828 0.0
O307 O 0.89788 0.54177 0.7841 0.0
C308 C 0.85923 0.46652 0.50325 0.0
O309 O 0.85158 0.48446 0.50383 0.0
Cd310 Cd 0.81777 0.47254 0.47902 0.0
O311 O 0.84793 0.44645 0.4929 0.0
Cd312 Cd 0.81283 0.4302 0.5019 0.0
C313 C 0.81678 0.41622 0.44844 0.0
O314 O 0.79766 0.46277 0.50904 0.0
O315 O 0.77478 0.42858 0.4965 0.0
O316 O 0.83236 0.43649 0.53937 0.0
C317 C 0.77825 0.45047 0.50501 0.0
O318 O 0.81839 0.43811 0.44888 0.0
C319 C 0.82444 0.41571 0.54223 0.0
O320 O 0.81361 0.40719 0.46616 0.0
O321 O 0.81047 0.40167 0.52619 0.0
C322 C 0.64014 0.52646 0.32003 0.0
O323 O 0.63382 0.53913 0.30689 0.0
Cd324 Cd 0.65531 0.53698 0.27448 0.0
O325 O 0.65447 0.51547 0.31222 0.0
Cd326 Cd 0.67449 0.51305 0.26882 0.0
C327 C 0.69666 0.57733 0.27225 0.0
O328 O 0.63799 0.50917 0.2387 0.0
O329 O 0.66775 0.5197 0.22576 0.0
O330 O 0.68067 0.46976 0.27491 0.0
C331 C 0.64715 0.51419 0.22124 0.0
O332 O 0.67638 0.57579 0.26922 0.0
C333 C 0.69737 0.46842 0.26486 0.0
O334 O 0.70246 0.55824 0.27511 0.0
O335 O 0.70392 0.48684 0.25645 0.0
La336 La 0.03164 0.02774 1.00344 0.0
La337 La 0.07318 0.05397 0.03233 0.0
C338 C 0.99164 0.01314 0.99023 0.0
C339 C 0.97496 0.02647 0.98968 0.0
C340 C 0.96454 0.02773 0.96813 0.0
C341 C 0.95053 0.04244 0.96681 0.0
C342 C 0.94623 0.0557 0.98712 0.0
C343 C 0.95677 0.05447 0.00875 0.0
C344 C 0.97122 0.04022 0.01 0.0
C345 C 0.06229 0.02858 0.97361 0.0
C346 C 0.04686 0.08384 0.00838 0.0
C347 C 0.11305 0.06799 0.0467 0.0
C348 C 0.12987 0.05491 0.04592 0.0
C349 C 0.14549 0.05883 0.06542 0.0
C350 C 0.16066 0.04526 0.06567 0.0
C351 C 0.16034 0.0278 0.04635 0.0
C352 C 0.14421 0.02325 0.02718 0.0
C353 C 0.12894 0.03663 0.02702 0.0
C354 C 0.0423 0.0538 0.0619 0.0
C355 C 0.05867 0.99765 0.0263 0.0
O356 O 0.00595 0.01812 0.97628 0.0
O357 O 1.00066 0.01174 0.01062 0.0
O358 O 0.04186 0.0182 0.9689 0.0
O359 O 0.06509 0.03745 0.99564 0.0
O360 O 0.03053 0.0647 1.0037 0.0
O361 O 0.06613 0.08362 0.01846 0.0
O362 O 0.09845 0.06097 0.05971 0.0
O363 O 0.10441 0.07118 0.02685 0.0
O364 O 0.06243 0.06539 0.0662 0.0
O365 O 0.03968 0.04459 0.03999 0.0
O366 O 0.07448 0.01719 0.03176 0.0
O367 O 0.03945 0.99758 0.01583 0.0
H368 H 0.96764 0.01769 0.95221 0.0
H369 H 0.94303 0.04333 0.94987 0.0
H370 H 0.95354 0.06404 0.02484 0.0
H371 H 0.97944 0.04007 0.02685 0.0
H372 H 0.1459 0.07235 0.08042 0.0
H373 H 0.17306 0.04891 0.08056 0.0
H374 H 0.14368 0.00957 0.01224 0.0
H375 H 0.11646 0.0327 0.01217 0.0
La376 La 0.31075 0.78442 0.24502 0.0
La377 La 0.29058 0.79457 0.28322 0.0
C378 C 0.32745 0.78399 0.20806 0.0
C379 C 0.33469 0.80224 0.19482 0.0
C380 C 0.35572 0.80578 0.18867 0.0
C381 C 0.36331 0.82358 0.17671 0.0
C382 C 0.34987 0.83791 0.17068 0.0
C383 C 0.32896 0.83467 0.17734 0.0
C384 C 0.32148 0.81709 0.18954 0.0
C385 C 0.33485 0.78047 0.28279 0.0
C386 C 0.31477 0.83674 0.2691 0.0
C387 C 0.27042 0.79404 0.31781 0.0
C388 C 0.2629 0.77602 0.33094 0.0
C389 C 0.24589 0.77776 0.34397 0.0
C390 C 0.23954 0.76134 0.3578 0.0
C391 C 0.25004 0.74311 0.3582 0.0
C392 C 0.2655 0.74005 0.34337 0.0
C393 C 0.27217 0.7567 0.33004 0.0
C394 C 0.26734 0.79905 0.2449 0.0
C395 C 0.28695 0.74312 0.26187 0.0
O396 O 0.33862 0.7875 0.22845 0.0
O397 O 0.30658 0.7772 0.2086 0.0
O398 O 0.33067 0.76601 0.26302 0.0
O399 O 0.32492 0.79674 0.28153 0.0
O400 O 0.3131 0.82191 0.24937 0.0
O401 O 0.30984 0.82938 0.28794 0.0
O402 O 0.26101 0.78895 0.29649 0.0
O403 O 0.29146 0.80212 0.31941 0.0
O404 O 0.27188 0.8137 0.26448 0.0
O405 O 0.27663 0.78242 0.24668 0.0
O406 O 0.29194 0.7585 0.28128 0.0
O407 O 0.2903 0.74988 0.24234 0.0
H408 H 0.36624 0.79475 0.19311 0.0
H409 H 0.3795 0.82587 0.17179 0.0
H410 H 0.31808 0.84518 0.17245 0.0
H411 H 0.30534 0.81499 0.19458 0.0
H412 H 0.23837 0.79243 0.34436 0.0
H413 H 0.22794 0.76406 0.36966 0.0
H414 H 0.27405 0.72628 0.34405 0.0
H415 H 0.28541 0.75514 0.32024 0.0
La416 La 0.57695 0.04052 0.51668 0.0
La417 La 0.52775 0.03654 0.52031 0.0
C418 C 0.61526 0.03515 0.52015 0.0
C419 C 0.62722 0.01638 0.51477 0.0
C420 C 0.63978 0.0165 0.49636 0.0
C421 C 0.65334 1.001 0.49273 0.0
C422 C 0.65481 0.98495 0.50747 0.0
C423 C 0.64151 0.98411 0.52527 0.0
C424 C 0.62795 0.99965 0.52892 0.0
C425 C 0.55174 0.03834 0.4792 0.0
C426 C 0.5423 0.98989 0.5112 0.0
C427 C 0.48963 0.04198 0.51522 0.0
C428 C 0.47782 0.0607 0.52108 0.0
C429 C 0.46408 0.05928 0.53839 0.0
C430 C 0.45032 0.07452 0.54183 0.0
C431 C 0.45002 0.09165 0.52812 0.0
C432 C 0.46464 0.09405 0.51174 0.0
C433 C 0.47832 0.07866 0.50815 0.0
C434 C 0.55292 0.03939 0.5582 0.0
C435 C 0.56175 0.08735 0.52553 0.0
O436 O 0.60609 0.04171 0.50243 0.0
O437 O 0.60322 0.03438 0.53706 0.0
O438 O 0.57173 0.05062 0.48301 0.0
O439 O 0.54726 0.02743 0.49495 0.0
O440 O 0.56275 1.00274 0.51686 0.0
O441 O 0.52573 0.99949 0.50779 0.0
O442 O 0.49749 0.03369 0.53248 0.0
O443 O 0.50283 0.04428 0.49948 0.0
O444 O 0.53262 0.02807 0.55483 0.0
O445 O 0.55755 0.04981 0.54213 0.0
O446 O 0.54143 0.07418 0.5209 0.0
O447 O 0.5788 0.07809 0.52779 0.0
H448 H 0.63965 0.02913 0.48511 0.0
H449 H 0.66302 1.00193 0.47862 0.0
H450 H 0.64229 0.97215 0.5371 0.0
H451 H 0.61858 0.99904 0.54331 0.0
H452 H 0.4633 0.04571 0.54868 0.0
H453 H 0.43935 0.07242 0.55473 0.0
H454 H 0.46466 0.107 0.50082 0.0
H455 H 0.48864 0.08029 0.49463 0.0
La456 La 0.27922 0.29779 0.76506 0.0
La457 La 0.32493 0.28431 0.76609 0.0
C458 C 0.23979 0.29523 0.77037 0.0
C459 C 0.22629 0.29897 0.78947 0.0
C460 C 0.21833 0.3194 0.79372 0.0
C461 C 0.20297 0.32134 0.80917 0.0
C462 C 0.19501 0.30274 0.82044 0.0
C463 C 0.20374 0.28289 0.81709 0.0
C464 C 0.2192 0.28104 0.80191 0.0
C465 C 0.31227 0.33671 0.76571 0.0
C466 C 0.30864 0.30125 0.81329 0.0
C467 C 0.36439 0.28762 0.76095 0.0
C468 C 0.37792 0.28232 0.74239 0.0
C469 C 0.38694 0.26268 0.74101 0.0
C470 C 0.40212 0.25944 0.72575 0.0
C471 C 0.40886 0.27589 0.71162 0.0
C472 C 0.39909 0.29499 0.71235 0.0
C473 C 0.38386 0.29816 0.72749 0.0
C474 C 0.29172 0.24549 0.76544 0.0
C475 C 0.29547 0.27957 0.71773 0.0
O476 O 0.25279 0.31375 0.76554 0.0
O477 O 0.24874 0.27733 0.76905 0.0
O478 O 0.29181 0.33621 0.7657 0.0
O479 O 0.31287 0.31527 0.76584 0.0
O480 O 0.28956 0.30049 0.80178 0.0
O481 O 0.32558 0.29765 0.803 0.0
O482 O 0.35226 0.26989 0.76799 0.0
O483 O 0.35448 0.30449 0.75964 0.0
O484 O 0.31233 0.24611 0.76709 0.0
O485 O 0.29131 0.26685 0.76468 0.0
O486 O 0.31411 0.27903 0.72927 0.0
O487 O 0.27911 0.28547 0.72785 0.0
H488 H 0.2233 0.3335 0.78438 0.0
H489 H 0.19645 0.33679 0.8113 0.0
H490 H 0.19799 0.26834 0.82566 0.0
H491 H 0.22489 0.26506 0.79921 0.0
H492 H 0.3828 0.25017 0.75227 0.0
H493 H 0.40893 0.24427 0.72544 0.0
H494 H 0.40397 0.30825 0.70204 0.0
H495 H 0.37741 0.31361 0.72812 0.0
La496 La 0.05093 0.06188 0.52659 0.0
La497 La 0.05877 0.01847 0.50504 0.0
C498 C 0.05079 0.10472 0.53384 0.0
C499 C 0.0511 0.12119 0.51766 0.0
C500 C 0.03237 0.12872 0.51167 0.0
C501 C 0.03242 0.14393 0.49602 0.0
C502 C 0.05134 0.15225 0.48633 0.0
C503 C 0.06998 0.14437 0.49215 0.0
C504 C 0.0698 0.12887 0.50742 0.0
C505 C 0.01965 0.02494 0.52993 0.0
C506 C 0.0375 0.04424 0.47025 0.0
C507 C 0.05909 0.97566 0.4968 0.0
C508 C 0.05836 0.95867 0.51243 0.0
C509 C 0.0773 0.95219 0.51999 0.0
C510 C 0.07683 0.93727 0.53597 0.0
C511 C 0.05745 0.9288 0.54471 0.0
C512 C 0.03852 0.93506 0.53693 0.0
C513 C 0.03892 0.94971 0.5209 0.0
C514 C 0.08989 0.05514 0.50125 0.0
C515 C 0.07196 0.03617 0.56157 0.0
O516 O 0.03314 0.08772 0.53129 0.0
O517 O 0.06836 0.09718 0.53716 0.0
O518 O 0.02637 0.04412 0.54562 0.0
O519 O 0.02942 0.02786 0.51251 0.0
O520 O 0.04138 0.06158 0.48885 0.0
O521 O 0.04228 0.02404 0.47248 0.0
O522 O 0.07673 0.99278 0.5001 0.0
O523 O 0.04156 0.98327 0.49354 0.0
O524 O 0.08224 0.03636 0.48524 0.0
O525 O 0.08046 0.05249 0.51899 0.0
O526 O 0.06888 0.01904 0.54284 0.0
O527 O 0.06657 0.05611 0.55947 0.0
H528 H 0.01765 0.1228 0.51908 0.0
H529 H 0.01762 0.1492 0.49164 0.0
H530 H 0.08504 0.15067 0.4855 0.0
H531 H 0.08448 0.1232 0.51136 0.0
H532 H 0.09248 0.95882 0.51369 0.0
H533 H 0.0916 0.93252 0.54163 0.0
H534 H 0.02322 0.92818 0.54289 0.0
H535 H 0.02394 0.95396 0.51517 0.0
La536 La 0.32289 0.80843 0.76245 0.0
La537 La 0.28231 0.7725 0.7632 0.0
C538 C 0.36097 0.83316 0.77289 0.0
C539 C 0.38136 0.82644 0.77814 0.0
C540 C 0.39677 0.82802 0.7626 0.0
C541 C 0.41635 0.82212 0.76789 0.0
C542 C 0.42062 0.81482 0.78881 0.0
C543 C 0.40495 0.81225 0.80386 0.0
C544 C 0.3854 0.81793 0.79855 0.0
C545 C 0.30228 0.78541 0.72225 0.0
C546 C 0.32548 0.75288 0.7653 0.0
C547 C 0.24451 0.7475 0.75156 0.0
C548 C 0.22372 0.75404 0.74852 0.0
C549 C 0.20967 0.75149 0.7654 0.0
C550 C 0.18991 0.7576 0.76267 0.0
C551 C 0.18412 0.76642 0.74314 0.0
C552 C 0.19834 0.7698 0.72665 0.0
C553 C 0.21804 0.76359 0.72927 0.0
C554 C 0.30256 0.79499 0.80376 0.0
C555 C 0.27983 0.82806 0.76044 0.0
O556 O 0.35139 0.82623 0.75141 0.0
O557 O 0.3473 0.82993 0.78791 0.0
O558 O 0.31255 0.80753 0.72584 0.0
O559 O 0.30514 0.77744 0.74025 0.0
O560 O 0.33574 0.77591 0.76741 0.0
O561 O 0.30372 0.747 0.762 0.0
O562 O 0.25441 0.75233 0.77292 0.0
O563 O 0.25784 0.75293 0.73656 0.0
O564 O 0.29162 0.77309 0.79986 0.0
O565 O 0.30021 0.80341 0.7859 0.0
O566 O 0.26954 0.80499 0.75793 0.0
O567 O 0.30159 0.83397 0.76417 0.0
H568 H 0.39387 0.83428 0.74668 0.0
H569 H 0.42855 0.8244 0.75629 0.0
H570 H 0.40821 0.80673 0.82014 0.0
H571 H 0.37374 0.81614 0.81077 0.0
H572 H 0.2138 0.74441 0.78049 0.0
H573 H 0.17882 0.75471 0.77534 0.0
H574 H 0.19375 0.77619 0.71125 0.0
H575 H 0.22858 0.76593 0.71602 0.0
La576 La 0.5582 0.03818 0.03849 0.0
La577 La 0.54646 0.0422 0.9897 0.0
C578 C 0.55693 0.03538 0.07982 0.0
C579 C 0.53911 0.02192 0.08961 0.0
C580 C 0.54225 1.00312 0.09992 0.0
C581 C 0.52546 0.99044 0.10964 0.0
C582 C 0.50554 0.99662 0.10906 0.0
C583 C 0.50167 0.01362 0.09651 0.0
C584 C 0.51844 0.02644 0.08711 0.0
C585 C 0.5667 1.00636 0.0073 0.0
C586 C 0.51032 0.01523 0.0111 0.0
C587 C 0.54904 0.0465 0.94885 0.0
C588 C 0.56656 0.06206 0.94023 0.0
C589 C 0.56327 0.08294 0.93405 0.0
C590 C 0.57948 0.09747 0.92517 0.0
C591 C 0.5991 0.09121 0.92229 0.0
C592 C 0.60323 0.07163 0.9305 0.0
C593 C 0.58698 0.05697 0.93919 0.0
C594 C 0.53783 0.07396 0.02084 0.0
C595 C 0.59466 0.06303 0.01624 0.0
O596 O 0.56625 0.02233 0.06596 0.0
O597 O 0.55329 0.05353 0.07157 0.0
O598 O 0.57887 0.01517 0.02696 0.0
O599 O 0.55005 0.01407 0.00612 0.0
O600 O 0.5228 0.02457 0.03123 0.0
O601 O 0.51769 0.01634 0.99113 0.0
O602 O 0.53756 0.05742 0.96203 0.0
O603 O 0.55397 0.0289 0.95707 0.0
O604 O 0.5254 0.06454 1.00145 0.0
O605 O 0.55466 0.06642 0.02204 0.0
O606 O 0.58148 0.05455 0.9966 0.0
O607 O 0.58803 0.06244 0.03657 0.0
H608 H 0.55792 0.9989 0.1013 0.0
H609 H 0.52873 0.97758 0.1196 0.0
H610 H 0.48641 0.0188 0.09629 0.0
H611 H 0.51534 0.04037 0.07863 0.0
H612 H 0.54783 0.08749 0.93511 0.0
H613 H 0.5759 0.11223 0.91838 0.0
H614 H 0.61808 0.0662 0.92778 0.0
H615 H 0.59009 0.04113 0.94404 0.0
La616 La 0.30799 0.31131 0.27473 0.0
La617 La 0.29055 0.26341 0.25212 0.0
C618 C 0.31589 0.35505 0.28801 0.0
C619 C 0.30135 0.37065 0.28963 0.0
C620 C 0.30542 0.38952 0.30847 0.0
C621 C 0.29142 0.40434 0.31049 0.0
C622 C 0.27328 0.40031 0.29366 0.0
C623 C 0.26872 0.38082 0.27526 0.0
C624 C 0.28272 0.36602 0.27325 0.0
C625 C 0.30799 0.28189 0.30389 0.0
C626 C 0.25734 0.2899 0.2665 0.0
C627 C 0.28356 0.2198 0.23774 0.0
C628 C 0.29785 0.20386 0.23839 0.0
C629 C 0.29848 0.18802 0.21814 0.0
C630 C 0.31261 0.1733 0.21822 0.0
C631 C 0.32607 0.17406 0.23868 0.0
C632 C 0.32571 0.19039 0.25884 0.0
C633 C 0.3119 0.20537 0.25862 0.0
C634 C 0.29134 0.29355 0.2233 0.0
C635 C 0.34087 0.28429 0.26167 0.0
O636 O 0.3134 0.3403 0.30217 0.0
O637 O 0.31753 0.34494 0.267 0.0
O638 O 0.32367 0.30004 0.30384 0.0
O639 O 0.29295 0.28063 0.28781 0.0
O640 O 0.2732 0.3088 0.26756 0.0
O641 O 0.26074 0.26873 0.26273 0.0
O642 O 0.28868 0.23526 0.22464 0.0
O643 O 0.27883 0.22915 0.25772 0.0
O644 O 0.27571 0.27513 0.22264 0.0
O645 O 0.30595 0.2941 0.23944 0.0
O646 O 0.32494 0.26572 0.26148 0.0
O647 O 0.33746 0.3054 0.26383 0.0
H648 H 0.31952 0.39292 0.32143 0.0
H649 H 0.29507 0.41935 0.32479 0.0
H650 H 0.25497 0.37768 0.26189 0.0
H651 H 0.2792 0.35132 0.25867 0.0
H652 H 0.28809 0.18714 0.20226 0.0
H653 H 0.31288 0.16124 0.20233 0.0
H654 H 0.33563 0.19121 0.27501 0.0
H655 H 0.3121 0.21794 0.27433 0.0
La656 La 0.55165 0.56131 0.02633 0.0
La657 La 0.55949 0.5177 0.00562 0.0
C658 C 0.55059 0.60383 0.03304 0.0
C659 C 0.55001 0.61958 0.01643 0.0
C660 C 0.53429 0.63271 0.01646 0.0
C661 C 0.53407 0.64832 1.00125 0.0
C662 C 0.54967 0.65095 0.98604 0.0
C663 C 0.56463 0.63691 0.98509 0.0
C664 C 0.56471 0.62118 1.00005 0.0
C665 C 0.51998 0.52484 0.02969 0.0
C666 C 0.53804 0.54269 0.97028 0.0
C667 C 0.56088 0.47519 0.99824 0.0
C668 C 0.56036 0.45866 0.01428 0.0
C669 C 0.57724 0.44734 0.01665 0.0
C670 C 0.57689 0.43166 0.03185 0.0
C671 C 0.55947 0.42683 0.04474 0.0
C672 C 0.54285 0.43871 0.04271 0.0
C673 C 0.54341 0.45462 0.02786 0.0
C674 C 0.59094 0.55455 1.00245 0.0
C675 C 0.57198 0.53579 0.06206 0.0
O676 O 0.53326 0.58657 0.03099 0.0
O677 O 0.56852 0.59687 0.0361 0.0
O678 O 0.52713 0.54391 0.04544 0.0
O679 O 0.53002 0.52721 0.01236 0.0
O680 O 0.54339 0.56083 0.98821 0.0
O681 O 0.54158 0.52215 0.97329 0.0
O682 O 0.57823 0.49264 1.00162 0.0
O683 O 0.54312 0.48216 0.99433 0.0
O684 O 0.58343 0.53593 0.9862 0.0
O685 O 0.58114 0.55168 0.01983 0.0
O686 O 0.56795 0.51817 0.04364 0.0
O687 O 0.56767 0.55614 0.0594 0.0
H688 H 0.52254 0.63129 0.0286 0.0
H689 H 0.52249 0.65916 1.00218 0.0
H690 H 0.57673 0.63877 0.97333 0.0
H691 H 0.57662 0.61073 0.99915 0.0
H692 H 0.59067 0.45058 0.00668 0.0
H693 H 0.59015 0.42317 0.03333 0.0
H694 H 0.52897 0.43521 0.052 0.0
H695 H 0.53033 0.46345 0.0268 0.0
La696 La 0.82287 0.30805 0.26272 0.0
La697 La 0.78247 0.27319 0.2665 0.0
C698 C 0.86137 0.33197 0.27003 0.0
C699 C 0.88151 0.32483 0.27541 0.0
C700 C 0.89816 0.32892 0.26157 0.0
C701 C 0.91772 0.32315 0.26735 0.0
C702 C 0.92075 0.31347 0.28712 0.0
C703 C 0.90372 0.30818 0.3002 0.0
C704 C 0.88416 0.31365 0.29431 0.0
C705 C 0.80013 0.28464 0.22373 0.0
C706 C 0.82526 0.25296 0.26735 0.0
C707 C 0.74476 0.24734 0.25615 0.0
C708 C 0.72348 0.25241 0.25149 0.0
C709 C 0.71252 0.26019 0.26972 0.0
C710 C 0.69276 0.26585 0.26494 0.0
C711 C 0.68368 0.26373 0.24189 0.0
C712 C 0.69465 0.25595 0.2237 0.0
C713 C 0.71434 0.25031 0.22845 0.0
C714 C 0.80428 0.29742 0.30602 0.0
C715 C 0.77987 0.32807 0.26176 0.0
O716 O 0.85088 0.32331 0.24911 0.0
O717 O 0.84844 0.33097 0.28594 0.0
O718 O 0.8107 0.3066 0.22671 0.0
O719 O 0.80382 0.27687 0.24174 0.0
O720 O 0.83561 0.27569 0.26813 0.0
O721 O 0.80357 0.24755 0.26566 0.0
O722 O 0.75466 0.25424 0.27753 0.0
O723 O 0.75794 0.25194 0.24083 0.0
O724 O 0.79305 0.2757 0.30336 0.0
O725 O 0.80141 0.30471 0.28757 0.0
O726 O 0.76949 0.30529 0.26078 0.0
O727 O 0.80166 0.33372 0.26408 0.0
H728 H 0.89623 0.33712 0.24671 0.0
H729 H 0.93086 0.32745 0.25719 0.0
H730 H 0.90589 0.30065 0.31549 0.0
H731 H 0.8714 0.3097 0.30501 0.0
H732 H 0.7192 0.26201 0.28767 0.0
H733 H 0.68458 0.27186 0.27923 0.0
H734 H 0.68777 0.25367 0.20573 0.0
H735 H 0.7224 0.24429 0.21405 0.0
La736 La 0.05537 0.53884 0.53727 0.0
La737 La 0.0451 0.54563 0.48806 0.0
C738 C 0.05579 0.53907 0.57914 0.0
C739 C 0.03957 0.52284 0.58887 0.0
C740 C 0.0439 0.50191 0.59386 0.0
C741 C 0.02881 0.48663 0.60333 0.0
C742 C 0.00933 0.49226 0.60829 0.0
C743 C 1.00391 0.51176 0.60098 0.0
C744 C 0.01897 0.52703 0.59143 0.0
C745 C 0.06156 0.50627 0.50432 0.0
C746 C 0.01087 0.5113 0.50938 0.0
C747 C 0.04131 0.54762 0.44626 0.0
C748 C 0.05913 0.56047 0.43595 0.0
C749 C 0.05563 0.5744 0.41976 0.0
C750 C 0.07341 0.58705 0.41113 0.0
C751 C 0.09469 0.58655 0.4195 0.0
C752 C 0.098 0.57534 0.43801 0.0
C753 C 0.08042 0.56124 0.44497 0.0
C754 C 0.04097 0.57866 0.52073 0.0
C755 C 0.09153 0.56908 0.51652 0.0
O756 O 0.06877 0.52931 0.56692 0.0
O757 O 0.04848 0.55452 0.5693 0.0
O758 O 0.05619 0.50226 0.52416 0.0
O759 O 0.06518 0.52788 0.50455 0.0
O760 O 0.02295 0.51837 0.52962 0.0
O761 O 0.01621 0.519 0.49046 0.0
O762 O 0.03386 0.56128 0.46163 0.0
O763 O 0.04474 0.52891 0.45366 0.0
O764 O 0.04821 0.58259 0.5017 0.0
O765 O 0.03543 0.55693 0.52046 0.0
O766 O 0.07972 0.55998 0.49607 0.0
O767 O 0.084 0.56598 0.53608 0.0
H768 H 0.05929 0.49776 0.59127 0.0
H769 H 0.03322 0.47163 0.60887 0.0
H770 H 0.98901 0.51657 0.60477 0.0
H771 H 0.01473 0.54254 0.58696 0.0
H772 H 0.03929 0.57465 0.41314 0.0
H773 H 0.07043 0.59552 0.3967 0.0
H774 H 0.11422 0.57479 0.44479 0.0
H775 H 0.08355 0.55 0.45664 0.0
La776 La 0.77915 0.79742 0.26671 0.0
La777 La 0.82528 0.78566 0.26635 0.0
C778 C 0.7395 0.79458 0.27114 0.0
C779 C 0.72556 0.79718 0.28994 0.0
C780 C 0.71824 0.81784 0.29544 0.0
C781 C 0.70318 0.81947 0.31118 0.0
C782 C 0.69472 0.80034 0.32169 0.0
C783 C 0.70261 0.77992 0.31663 0.0
C784 C 0.7178 0.77838 0.30106 0.0
C785 C 0.81144 0.83726 0.26732 0.0
C786 C 0.80904 0.80106 0.31403 0.0
C787 C 0.86463 0.79124 0.25994 0.0
C788 C 0.87773 0.78508 0.2412 0.0
C789 C 0.88771 0.76623 0.24094 0.0
C790 C 0.90245 0.76252 0.22526 0.0
C791 C 0.90776 0.77772 0.20957 0.0
C792 C 0.897 0.79593 0.2092 0.0
C793 C 0.88224 0.79957 0.22478 0.0
C794 C 0.79388 0.74553 0.26651 0.0
C795 C 0.7946 0.77966 0.21883 0.0
O796 O 0.753 0.81364 0.2681 0.0
O797 O 0.74821 0.77651 0.2687 0.0
O798 O 0.79101 0.83626 0.26822 0.0
O799 O 0.81231 0.81584 0.26672 0.0
O800 O 0.78936 0.79861 0.30306 0.0
O801 O 0.82623 0.79942 0.30334 0.0
O802 O 0.85439 0.77441 0.26966 0.0
O803 O 0.85298 0.80625 0.25676 0.0
O804 O 0.81463 0.74744 0.26664 0.0
O805 O 0.79196 0.76664 0.26633 0.0
O806 O 0.81335 0.77866 0.22966 0.0
O807 O 0.77871 0.78594 0.22941 0.0
H808 H 0.72378 0.83264 0.28714 0.0
H809 H 0.69798 0.8357 0.31483 0.0
H810 H 0.6964 0.76458 0.32392 0.0
H811 H 0.7229 0.7621 0.29719 0.0
H812 H 0.88468 0.75476 0.25335 0.0
H813 H 0.91008 0.74806 0.22584 0.0
H814 H 0.90077 0.80822 0.19767 0.0
H815 H 0.87504 0.8144 0.22451 0.0
La816 La 0.80838 0.28203 0.74168 0.0
La817 La 0.78897 0.29476 0.78392 0.0
C818 C 0.81534 0.27921 0.7004 0.0
C819 C 0.82455 0.29843 0.68873 0.0
C820 C 0.84613 0.30208 0.68403 0.0
C821 C 0.85522 0.32116 0.67417 0.0
C822 C 0.84284 0.3368 0.66893 0.0
C823 C 0.82137 0.33328 0.67391 0.0
C824 C 0.81233 0.31435 0.68373 0.0
C825 C 0.83948 0.28706 0.77765 0.0
C826 C 0.81417 0.33489 0.76592 0.0
C827 C 0.76876 0.29452 0.81842 0.0
C828 C 0.76256 0.27736 0.83287 0.0
C829 C 0.75485 0.28379 0.85381 0.0
C830 C 0.74931 0.26708 0.86759 0.0
C831 C 0.75127 0.24398 0.86016 0.0
C832 C 0.75736 0.23726 0.8384 0.0
C833 C 0.76338 0.254 0.82512 0.0
C834 C 0.76596 0.2976 0.7451 0.0
C835 C 0.78978 0.24274 0.7646 0.0
O836 O 0.82857 0.27508 0.71652 0.0
O837 O 0.7963 0.27919 0.70689 0.0
O838 O 0.84124 0.28149 0.75595 0.0
O839 O 0.82032 0.28973 0.77871 0.0
O840 O 0.81161 0.31936 0.74649 0.0
O841 O 0.80936 0.32887 0.78555 0.0
O842 O 0.75954 0.28717 0.79695 0.0
O843 O 0.78958 0.30439 0.82003 0.0
O844 O 0.7705 0.31309 0.76412 0.0
O845 O 0.77518 0.2811 0.74784 0.0
O846 O 0.79402 0.25968 0.78308 0.0
O847 O 0.79269 0.24726 0.74411 0.0
H848 H 0.85596 0.29023 0.68803 0.0
H849 H 0.87181 0.32357 0.67043 0.0
H850 H 0.81125 0.34474 0.66952 0.0
H851 H 0.79572 0.31226 0.68735 0.0
H852 H 0.75381 0.30175 0.85976 0.0
H853 H 0.74492 0.27256 0.8846 0.0
H854 H 0.75901 0.21949 0.83247 0.0
H855 H 0.76911 0.24871 0.80909 0.0
La856 La 0.80837 0.81249 0.77684 0.0
La857 La 0.79182 0.76512 0.75372 0.0
C858 C 0.81626 0.85603 0.79245 0.0
C859 C 0.8029 0.87259 0.79145 0.0
C860 C 0.80787 0.89364 0.80778 0.0
C861 C 0.79477 0.90935 0.807 0.0
C862 C 0.7763 0.9037 0.7902 0.0
C863 C 0.77095 0.88202 0.7745 0.0
C864 C 0.78447 0.86684 0.77477 0.0
C865 C 0.80907 0.78253 0.80547 0.0
C866 C 0.75806 0.79079 0.76738 0.0
C867 C 0.78535 0.72168 0.7384 0.0
C868 C 0.8001 0.70628 0.73794 0.0
C869 C 0.79632 0.68638 0.72017 0.0
C870 C 0.80997 0.67112 0.72019 0.0
C871 C 0.82747 0.67591 0.73793 0.0
C872 C 0.83212 0.69676 0.75472 0.0
C873 C 0.81837 0.71176 0.75487 0.0
C874 C 0.79118 0.79476 0.72472 0.0
C875 C 0.84201 0.78748 0.76252 0.0
O876 O 0.80955 0.84008 0.80461 0.0
O877 O 0.82118 0.84697 0.7725 0.0
O878 O 0.82465 0.80068 0.80523 0.0
O879 O 0.79393 0.78132 0.78956 0.0
O880 O 0.77386 0.80954 0.76769 0.0
O881 O 0.7618 0.76977 0.76458 0.0
O882 O 0.78958 0.73752 0.72556 0.0
O883 O 0.7815 0.73053 0.75898 0.0
O884 O 0.77576 0.77641 0.72491 0.0
O885 O 0.80623 0.79629 0.7409 0.0
O886 O 0.8266 0.76846 0.76219 0.0
O887 O 0.83792 0.80822 0.76513 0.0
H888 H 0.82203 0.89807 0.82084 0.0
H889 H 0.7995 0.92612 0.81907 0.0
H890 H 0.75656 0.87693 0.76169 0.0
H891 H 0.78058 0.85074 0.76182 0.0
H892 H 0.78247 0.68229 0.70678 0.0
H893 H 0.80614 0.65498 0.7072 0.0
H894 H 0.84572 0.70075 0.76844 0.0
H895 H 0.82162 0.72712 0.7687 0.0
La896 La 0.53327 0.52783 0.50371 0.0
La897 La 0.5732 0.55434 0.53307 0.0
C898 C 0.49302 0.51405 0.49085 0.0
C899 C 0.47701 0.52811 0.49163 0.0
C900 C 0.45672 0.51945 0.47803 0.0
C901 C 0.44208 0.53368 0.47781 0.0
C902 C 0.44789 0.55695 0.49073 0.0
C903 C 0.4687 0.5658 0.50351 0.0
C904 C 0.48289 0.5513 0.50443 0.0
C905 C 0.56339 0.52755 0.47407 0.0
C906 C 0.54817 0.58419 0.50816 0.0
C907 C 0.61316 0.56839 0.54718 0.0
C908 C 0.62973 0.5551 0.54518 0.0
C909 C 0.64826 0.56133 0.56178 0.0
C910 C 0.66338 0.54764 0.56068 0.0
C911 C 0.65996 0.52763 0.54297 0.0
C912 C 0.64093 0.52089 0.52697 0.0
C913 C 0.62591 0.53456 0.52805 0.0
C914 C 0.54238 0.55449 0.56217 0.0
C915 C 0.55898 0.49806 0.5284 0.0
O916 O 0.50722 0.51949 0.47692 0.0
O917 O 0.50221 0.51221 0.51096 0.0
O918 O 0.54328 0.51583 0.47022 0.0
O919 O 0.56702 0.53749 0.49599 0.0
O920 O 0.5334 0.56419 0.49999 0.0
O921 O 0.56596 0.58499 0.52173 0.0
O922 O 0.59871 0.56073 0.56011 0.0
O923 O 0.60425 0.57217 0.52773 0.0
O924 O 0.56246 0.56626 0.56658 0.0
O925 O 0.53959 0.54481 0.54034 0.0
O926 O 0.57398 0.51806 0.53561 0.0
O927 O 0.54083 0.49725 0.51533 0.0
H928 H 0.45213 0.50168 0.46781 0.0
H929 H 0.42603 0.52615 0.46813 0.0
H930 H 0.47389 0.58376 0.51328 0.0
H931 H 0.49842 0.55823 0.51526 0.0
H932 H 0.65104 0.57677 0.57549 0.0
H933 H 0.67804 0.55309 0.57313 0.0
H934 H 0.63791 0.5053 0.51338 0.0
H935 H 0.61132 0.5291 0.51549 0.0
La936 La 0.07633 0.54095 0.01633 0.0
La937 La 0.02748 0.53806 0.02178 0.0
C938 C 0.11451 0.53516 0.01857 0.0
C939 C 0.12658 0.51632 0.0147 0.0
C940 C 0.13636 0.51242 0.99436 0.0
C941 C 0.15077 0.49765 0.9923 0.0
C942 C 0.15594 0.48672 0.01066 0.0
C943 C 0.14522 0.48956 0.03038 0.0
C944 C 0.13076 0.50414 0.03239 0.0
C945 C 0.05083 0.54147 0.98012 0.0
C946 C 0.04137 0.49094 0.01147 0.0
C947 C 0.98947 0.54392 0.02046 0.0
C948 C 0.97851 0.56352 0.02487 0.0
C949 C 0.96472 0.56401 0.04212 0.0
C950 C 0.9519 0.58036 0.04447 0.0
C951 C 0.95241 0.59643 0.02943 0.0
C952 C 0.96721 0.59686 0.01312 0.0
C953 C 0.98019 0.58068 0.01097 0.0
C954 C 0.05322 0.53865 0.05821 0.0
C955 C 0.06242 0.58817 0.02677 0.0
O956 O 0.10424 0.53966 1.00027 0.0
O957 O 0.10357 0.53641 0.03637 0.0
O958 O 0.07133 0.55188 0.9832 0.0
O959 O 0.04601 0.52963 0.99519 0.0
O960 O 0.06188 0.5036 0.01661 0.0
O961 O 0.02477 0.50077 0.00907 0.0
O962 O 0.99997 0.53933 0.03856 0.0
O963 O 0.99987 0.54223 1.00228 0.0
O964 O 0.03316 0.5266 0.05456 0.0
O965 O 0.05771 0.55003 0.04275 0.0
O966 O 0.04183 0.57573 0.02247 0.0
O967 O 0.07907 0.57833 0.02857 0.0
H968 H 0.13365 0.52162 0.98043 0.0
H969 H 0.15879 0.49588 0.97692 0.0
H970 H 0.14866 0.48112 0.0447 0.0
H971 H 0.12359 0.50663 0.04828 0.0
H972 H 0.96321 0.55111 0.05322 0.0
H973 H 0.94068 0.5795 0.05719 0.0
H974 H 0.96831 0.60929 1.00154 0.0
H975 H 0.99104 0.58116 0.99796 0.0
C976 C 0.03728 0.209 0.97389 0.0
C977 C 0.0222 0.20464 0.95367 0.0
C978 C 0.04171 0.1904 0.98425 0.0
C979 C 0.03072 0.1666 0.97444 0.0
C980 C 0.0151 0.16217 0.95439 0.0
C981 C 0.0112 0.18107 0.94422 0.0
C982 C 0.05857 0.19626 0.00547 0.0
C983 C 1.00245 0.13733 0.94359 0.0
C984 C 0.05646 0.11603 0.9856 0.0
C985 C 0.04361 0.10586 1.00106 0.0
C986 C 0.05255 0.13574 0.97697 0.0
C987 C 0.03583 0.14626 0.98455 0.0
C988 C 0.02342 0.13653 1.00097 0.0
C989 C 0.02716 0.11625 0.00863 0.0
C990 C 0.06592 0.14486 0.95915 0.0
C991 C 0.00629 0.14767 0.01069 0.0
H992 H 0.04611 0.22701 0.98135 0.0
H993 H 0.99946 0.17734 0.92875 0.0
H994 H 0.05242 0.18659 0.01899 0.0
H995 H 0.07329 0.19062 1.00073 0.0
H996 H 0.06339 0.21546 0.01297 0.0
H997 H 0.99201 0.1365 0.92719 0.0
H998 H 0.01369 0.12577 0.93998 0.0
H999 H 0.99193 0.13006 0.95594 0.0
H1000 H 0.06911 0.10798 0.97955 0.0
H1001 H 0.01733 0.10863 0.02078 0.0
H1002 H 0.07442 0.1637 0.96558 0.0
H1003 H 0.0551 0.1438 0.94296 0.0
H1004 H 0.07821 0.13476 0.95492 0.0
H1005 H 0.01419 0.16551 0.0211 0.0
H1006 H 0.99696 0.1371 0.02195 0.0
H1007 H 0.99478 0.1499 0.99646 0.0
C1008 C 0.15213 0.80387 0.17705 0.0
C1009 C 0.15465 0.81312 0.15676 0.0
C1010 C 0.16961 0.79834 0.18978 0.0
C1011 C 0.19064 0.8028 0.1827 0.0
C1012 C 0.19314 0.81163 0.16191 0.0
C1013 C 0.17521 0.81638 0.14914 0.0
C1014 C 0.16551 0.7883 0.21124 0.0
C1015 C 0.21501 0.8166 0.15341 0.0
C1016 C 0.24012 0.81932 0.23002 0.0
C1017 C 0.24825 0.79902 0.22771 0.0
C1018 C 0.22158 0.82052 0.21575 0.0
C1019 C 0.21039 0.80095 0.19823 0.0
C1020 C 0.21843 0.78022 0.19565 0.0
C1021 C 0.23721 0.77948 0.21037 0.0
C1022 C 0.21391 0.84297 0.2196 0.0
C1023 C 0.20679 0.75857 0.17783 0.0
H1024 H 0.13636 0.8008 0.18305 0.0
H1025 H 0.17746 0.8232 0.1334 0.0
H1026 H 0.17521 0.77529 0.21342 0.0
H1027 H 0.17031 0.8028 0.22672 0.0
H1028 H 0.14804 0.7796 0.2107 0.0
H1029 H 0.21455 0.82372 0.13719 0.0
H1030 H 0.22716 0.8295 0.16694 0.0
H1031 H 0.2207 0.80015 0.15017 0.0
H1032 H 0.24829 0.83456 0.24332 0.0
H1033 H 0.24297 0.76352 0.20855 0.0
H1034 H 0.19719 0.83923 0.22427 0.0
H1035 H 0.21337 0.85 0.20335 0.0
H1036 H 0.22457 0.85683 0.23361 0.0
H1037 H 0.19097 0.75072 0.18323 0.0
H1038 H 0.21634 0.74503 0.17581 0.0
H1039 H 0.20325 0.76326 0.16073 0.0
C1040 C 0.51403 0.84968 0.46716 0.0
C1041 C 0.53136 0.84442 0.45613 0.0
C1042 C 0.51535 0.87276 0.47897 0.0
C1043 C 0.53453 0.89072 0.47996 0.0
C1044 C 0.55259 0.88502 0.47023 0.0
C1045 C 0.55071 0.86196 0.45832 0.0
C1046 C 0.49577 0.87826 0.48907 0.0
C1047 C 0.5735 0.90355 0.47133 0.0
C1048 C 0.52951 0.95335 0.48131 0.0
C1049 C 0.53866 0.9643 0.50408 0.0
C1050 C 0.52798 0.92934 0.47331 0.0
C1051 C 0.53503 0.91588 0.48878 0.0
C1052 C 0.54367 0.92686 0.51206 0.0
C1053 C 0.54571 0.95113 0.51933 0.0
C1054 C 0.51975 0.91863 0.44805 0.0
C1055 C 0.55072 0.91307 0.52928 0.0
H1056 H 0.49898 0.83618 0.46526 0.0
H1057 H 0.56417 0.85782 0.4499 0.0
H1058 H 0.50064 0.88888 0.50694 0.0
H1059 H 0.48842 0.88894 0.47845 0.0
H1060 H 0.4832 0.86201 0.48948 0.0
H1061 H 0.58585 0.89629 0.46245 0.0
H1062 H 0.57026 0.91817 0.46319 0.0
H1063 H 0.58044 0.91122 0.4897 0.0
H1064 H 0.52441 0.96381 0.46949 0.0
H1065 H 0.55276 0.95985 0.53695 0.0
H1066 H 0.50567 0.90328 0.44653 0.0
H1067 H 0.53266 0.91206 0.43963 0.0
H1068 H 0.51476 0.93148 0.43837 0.0
H1069 H 0.53619 0.90076 0.53311 0.0
H1070 H 0.55936 0.92472 0.54584 0.0
H1071 H 0.56151 0.90228 0.52199 0.0
C1072 C 0.51269 0.27153 0.64177 0.0
C1073 C 0.52768 0.29319 0.65087 0.0
C1074 C 0.49175 0.26651 0.64853 0.0
C1075 C 0.48574 0.28357 0.66485 0.0
C1076 C 0.50067 0.30581 0.67335 0.0
C1077 C 0.52146 0.31029 0.66632 0.0
C1078 C 0.47637 0.24269 0.63882 0.0
C1079 C 0.49518 0.32441 0.691 0.0
C1080 C 0.42751 0.28177 0.67626 0.0
C1081 C 0.42722 0.27443 0.69769 0.0
C1082 C 0.446 0.28363 0.66467 0.0
C1083 C 0.4647 0.27787 0.67459 0.0
C1084 C 0.46396 0.26888 0.69533 0.0
C1085 C 0.44536 0.26738 0.70665 0.0
C1086 C 0.44587 0.29275 0.64233 0.0
C1087 C 0.4832 0.26162 0.70605 0.0
H1088 H 0.51768 0.25816 0.63009 0.0
H1089 H 0.53325 0.3268 0.67375 0.0
H1090 H 0.46996 0.2343 0.65303 0.0
H1091 H 0.46227 0.24491 0.62775 0.0
H1092 H 0.48428 0.23055 0.62821 0.0
H1093 H 0.50744 0.34159 0.69388 0.0
H1094 H 0.479 0.32712 0.68538 0.0
H1095 H 0.4944 0.31842 0.70779 0.0
H1096 H 0.41342 0.28662 0.66876 0.0
H1097 H 0.4455 0.26169 0.72315 0.0
H1098 H 0.45046 0.2803 0.62856 0.0
H1099 H 0.45812 0.30987 0.64485 0.0
H1100 H 0.42973 0.29531 0.63622 0.0
H1101 H 0.48728 0.24765 0.69347 0.0
H1102 H 0.48006 0.25486 0.72217 0.0
H1103 H 0.49764 0.27686 0.71022 0.0
C1104 C 0.00716 0.81898 0.59155 0.0
C1105 C 0.01577 0.8164 0.61328 0.0
C1106 C 0.01667 0.83835 0.58217 0.0
C1107 C 0.03577 0.8547 0.59446 0.0
C1108 C 0.04504 0.85152 0.61599 0.0
C1109 C 0.03458 0.83265 0.62543 0.0
C1110 C 0.00624 0.84124 0.55917 0.0
C1111 C 0.0658 0.86809 0.62918 0.0
C1112 C 0.06451 0.89232 0.55586 0.0
C1113 C 0.05618 0.91224 0.56078 0.0
C1114 C 0.05936 0.87399 0.56808 0.0
C1115 C 0.04532 0.87567 0.58515 0.0
C1116 C 0.0385 0.89665 0.59157 0.0
C1117 C 0.04418 0.91481 0.57936 0.0
C1118 C 0.06789 0.85233 0.56179 0.0
C1119 C 0.0236 0.89915 0.60981 0.0
H1120 H 0.99277 0.80614 0.58216 0.0
H1121 H 0.04148 0.83023 0.64208 0.0
H1122 H 0.005 0.8597 0.5599 0.0
H1123 H 0.01643 0.83717 0.54553 0.0
H1124 H 0.98972 0.82929 0.5539 0.0
H1125 H 0.07348 0.86004 0.64234 0.0
H1126 H 0.07769 0.87328 0.61725 0.0
H1127 H 0.06217 0.8844 0.63833 0.0
H1128 H 0.0739 0.89038 0.54156 0.0
H1129 H 0.03819 0.93052 0.58347 0.0
H1130 H 0.05457 0.83756 0.55183 0.0
H1131 H 0.07384 0.84675 0.57768 0.0
H1132 H 0.0813 0.85542 0.55105 0.0
H1133 H 0.00697 0.88834 0.60261 0.0
H1134 H 0.02281 0.91776 0.61536 0.0
H1135 H 0.02892 0.89262 0.62533 0.0
C1136 C 0.54607 0.83503 0.81618 0.0
C1137 C 0.55288 0.8258 0.83507 0.0
C1138 C 0.52407 0.83054 0.8078 0.0
C1139 C 0.50863 0.81639 0.81853 0.0
C1140 C 0.51536 0.80631 0.83709 0.0
C1141 C 0.53753 0.8111 0.84515 0.0
C1142 C 0.51732 0.84212 0.78838 0.0
C1143 C 0.49915 0.791 0.84873 0.0
C1144 C 0.45432 0.83089 0.81579 0.0
C1145 C 0.44258 0.8138 0.7969 0.0
C1146 C 0.47579 0.83153 0.82339 0.0
C1147 C 0.48542 0.81439 0.8119 0.0
C1148 C 0.47334 0.79655 0.79326 0.0
C1149 C 0.45192 0.79665 0.7857 0.0
C1150 C 0.4883 0.85089 0.84327 0.0
C1151 C 0.48321 0.77784 0.78105 0.0
H1152 H 0.55786 0.84641 0.80835 0.0
H1153 H 0.54275 0.80374 0.85965 0.0
H1154 H 0.50539 0.82911 0.77477 0.0
H1155 H 0.50931 0.85609 0.79534 0.0
H1156 H 0.53138 0.85031 0.78021 0.0
H1157 H 0.50696 0.7863 0.86428 0.0
H1158 H 0.48645 0.80005 0.85407 0.0
H1159 H 0.49083 0.77449 0.83625 0.0
H1160 H 0.4468 0.84415 0.8242 0.0
H1161 H 0.44251 0.78347 0.77111 0.0
H1162 H 0.50264 0.86167 0.83743 0.0
H1163 H 0.49442 0.84309 0.85754 0.0
H1164 H 0.47823 0.86275 0.85028 0.0
H1165 H 0.49655 0.78613 0.77203 0.0
H1166 H 0.47108 0.76419 0.7681 0.0
H1167 H 0.4904 0.76909 0.79388 0.0
C1168 C 0.51597 0.16535 0.12388 0.0
C1169 C 0.49935 0.17535 0.11627 0.0
C1170 C 0.52193 0.14763 0.10917 0.0
C1171 C 0.51069 0.13949 0.08648 0.0
C1172 C 0.49318 0.14864 0.07896 0.0
C1173 C 0.48784 0.16682 0.09396 0.0
C1174 C 0.54105 0.13869 0.11753 0.0
C1175 C 0.48057 0.13962 0.05494 0.0
C1176 C 0.54156 0.11451 0.04118 0.0
C1177 C 0.53246 0.09044 0.03893 0.0
C1178 C 0.53443 0.13082 0.0566 0.0
C1179 C 0.51824 0.12248 0.07016 0.0
C1180 C 0.50954 0.09802 0.06833 0.0
C1181 C 0.51658 0.08219 0.05232 0.0
C1182 C 0.54377 0.15688 0.05797 0.0
C1183 C 0.49291 0.08861 0.08324 0.0
H1184 H 0.52518 0.17221 0.14102 0.0
H1185 H 0.47496 0.17456 0.08819 0.0
H1186 H 0.53729 0.11915 0.11302 0.0
H1187 H 0.55516 0.14564 0.10884 0.0
H1188 H 0.54592 0.14436 0.13659 0.0
H1189 H 0.46743 0.14866 0.05179 0.0
H1190 H 0.49167 0.14216 0.04167 0.0
H1191 H 0.47321 0.12039 0.0525 0.0
H1192 H 0.55366 0.12053 0.03033 0.0
H1193 H 0.50951 0.0634 0.05001 0.0
H1194 H 0.55124 0.16549 0.07598 0.0
H1195 H 0.53058 0.16534 0.05331 0.0
H1196 H 0.55625 0.16031 0.04619 0.0
H1197 H 0.50046 0.0929 0.10165 0.0
H1198 H 0.48642 0.06917 0.07813 0.0
H1199 H 0.47916 0.09712 0.08217 0.0
C1200 C 0.18708 0.33155 0.35866 0.0
C1201 C 0.16507 0.31995 0.35305 0.0
C1202 C 0.20156 0.3281 0.34266 0.0
C1203 C 0.1936 0.31252 0.32103 0.0
C1204 C 0.17134 0.30109 0.3153 0.0
C1205 C 0.15734 0.305 0.33141 0.0
C1206 C 0.2253 0.3408 0.3489 0.0
C1207 C 0.16241 0.28392 0.29262 0.0
C1208 C 0.22974 0.31242 0.27391 0.0
C1209 C 0.23814 0.29314 0.27668 0.0
C1210 C 0.21464 0.31872 0.2879 0.0
C1211 C 0.20876 0.30589 0.30544 0.0
C1212 C 0.21688 0.28605 0.30786 0.0
C1213 C 0.2312 0.27962 0.29307 0.0
C1214 C 0.20544 0.33933 0.28432 0.0
C1215 C 0.21137 0.27241 0.32685 0.0
H1216 H 0.19283 0.34349 0.37524 0.0
H1217 H 0.14023 0.29602 0.32717 0.0
H1218 H 0.23546 0.32786 0.34796 0.0
H1219 H 0.23019 0.35216 0.33622 0.0
H1220 H 0.22888 0.352 0.36658 0.0
H1221 H 0.14438 0.2796 0.28934 0.0
H1222 H 0.16897 0.29112 0.27784 0.0
H1223 H 0.16747 0.26728 0.29305 0.0
H1224 H 0.23543 0.32288 0.26129 0.0
H1225 H 0.23819 0.26502 0.29551 0.0
H1226 H 0.21073 0.35367 0.29989 0.0
H1227 H 0.18742 0.33392 0.28204 0.0
H1228 H 0.21071 0.34642 0.26895 0.0
H1229 H 0.21812 0.28401 0.344 0.0
H1230 H 0.21803 0.25655 0.32536 0.0
H1231 H 0.19352 0.26669 0.32648 0.0
C1232 C 0.99141 0.06034 0.18924 0.0
C1233 C 0.96912 0.06076 0.18812 0.0
C1234 C 1.00268 0.05816 0.16902 0.0
C1235 C 0.99217 0.05684 0.14605 0.0
C1236 C 0.96977 0.05748 0.14492 0.0
C1237 C 0.95878 0.05909 0.16531 0.0
C1238 C 0.02618 0.05734 0.17257 0.0
C1239 C 0.95713 0.05663 0.12181 0.0
C1240 C 0.02801 0.07513 0.09711 0.0
C1241 C 0.02675 0.05392 0.08111 0.0
C1242 C 0.01695 0.07629 0.11738 0.0
C1243 C 0.00434 0.0556 0.1236 0.0
C1244 C 1.00347 0.03392 0.10787 0.0
C1245 C 0.01421 0.03336 0.08718 0.0
C1246 C 0.01913 0.1001 0.13247 0.0
C1247 C 0.99219 0.01085 0.11364 0.0
H1248 H 1.00024 0.0615 0.20615 0.0
H1249 H 0.94178 0.05928 0.16327 0.0
H1250 H 0.03012 0.04531 0.15791 0.0
H1251 H 0.03668 0.07525 0.1736 0.0
H1252 H 0.03029 0.05151 0.18897 0.0
H1253 H 0.94085 0.05994 0.12359 0.0
H1254 H 0.96626 0.06993 0.11283 0.0
H1255 H 0.95495 0.03902 0.11062 0.0
H1256 H 0.03805 0.0913 0.09384 0.0
H1257 H 0.01363 0.0165 0.07634 0.0
H1258 H 0.02882 0.10126 0.1494 0.0
H1259 H 1.00287 0.10245 0.13597 0.0
H1260 H 0.02725 0.11479 0.12443 0.0
H1261 H 1.00163 0.00788 0.12915 0.0
H1262 H 0.99071 0.9957 0.09914 0.0
H1263 H 0.97576 0.01134 0.11807 0.0
C1264 C 0.27194 0.70427 0.47641 0.0
C1265 C 0.28531 0.68872 0.47186 0.0
C1266 C 0.26004 0.71008 0.45827 0.0
C1267 C 0.26217 0.70059 0.43528 0.0
C1268 C 0.2747 0.68394 0.43055 0.0
C1269 C 0.28624 0.67825 0.44902 0.0
C1270 C 0.2462 0.72737 0.46363 0.0
C1271 C 0.27753 0.6737 0.4061 0.0
C1272 C 0.23464 0.71457 0.38215 0.0
C1273 C 0.25104 0.73322 0.37885 0.0
C1274 C 0.23734 0.70422 0.40145 0.0
C1275 C 0.25692 0.71287 0.417 0.0
C1276 C 0.27301 0.73249 0.41406 0.0
C1277 C 0.26972 0.74254 0.39498 0.0
C1278 C 0.21985 0.68357 0.40465 0.0
C1279 C 0.29413 0.74223 0.43039 0.0
H1280 H 0.27042 0.71155 0.49414 0.0
H1281 H 0.29605 0.66565 0.44557 0.0
H1282 H 0.25369 0.74431 0.45869 0.0
H1283 H 0.22985 0.72048 0.45331 0.0
H1284 H 0.24433 0.73098 0.48233 0.0
H1285 H 0.2826 0.65689 0.40524 0.0
H1286 H 0.26237 0.67041 0.39393 0.0
H1287 H 0.29034 0.68647 0.40007 0.0
H1288 H 0.22022 0.70778 0.36941 0.0
H1289 H 0.28211 0.75729 0.39214 0.0
H1290 H 0.21609 0.68619 0.42274 0.0
H1291 H 0.22568 0.66722 0.40147 0.0
H1292 H 0.20468 0.68095 0.39259 0.0
H1293 H 0.29077 0.74811 0.44825 0.0
H1294 H 0.30492 0.75743 0.42516 0.0
H1295 H 0.3031 0.72831 0.43093 0.0
C1296 C 0.61949 0.0454 0.67327 0.0
C1297 C 0.64145 0.04655 0.67159 0.0
C1298 C 0.60681 0.05247 0.65687 0.0
C1299 C 0.61577 0.05836 0.63711 0.0
C1300 C 0.63822 0.06124 0.63589 0.0
C1301 C 0.65103 0.05561 0.65355 0.0
C1302 C 0.58315 0.05076 0.65937 0.0
C1303 C 0.64814 0.06819 0.61508 0.0
C1304 C 0.57529 0.02575 0.58574 0.0
C1305 C 0.5675 0.04405 0.5793 0.0
C1306 C 0.59221 0.03062 0.60382 0.0
C1307 C 0.60074 0.05427 0.61587 0.0
C1308 C 0.59285 0.07287 0.60923 0.0
C1309 C 0.57635 0.06748 0.59058 0.0
C1310 C 0.60059 0.01037 0.61029 0.0
C1311 C 0.60092 0.09809 0.62225 0.0
H1312 H 0.6118 0.03829 0.687 0.0
H1313 H 0.66819 0.05719 0.65264 0.0
H1314 H 0.57718 0.06438 0.6518 0.0
H1315 H 0.57326 0.03315 0.65008 0.0
H1316 H 0.58052 0.05281 0.67789 0.0
H1317 H 0.66615 0.0717 0.61779 0.0
H1318 H 0.64173 0.0538 0.59967 0.0
H1319 H 0.64355 0.08419 0.61112 0.0
H1320 H 0.56866 0.00784 0.57611 0.0
H1321 H 0.57027 0.08151 0.58481 0.0
H1322 H 0.59576 1.00719 0.62729 0.0
H1323 H 0.6186 0.01467 0.612 0.0
H1324 H 0.59407 0.99374 0.59727 0.0
H1325 H 0.59128 0.10089 0.63674 0.0
H1326 H 0.59882 0.11073 0.61085 0.0
H1327 H 0.61824 0.10223 0.62981 0.0
C1328 C 0.31288 0.37127 0.93771 0.0
C1329 C 0.31314 0.36012 0.9569 0.0
C1330 C 0.31345 0.35934 0.91531 0.0
C1331 C 0.31404 0.33536 0.91163 0.0
C1332 C 0.31434 0.3238 0.93078 0.0
C1333 C 0.31403 0.33637 0.95329 0.0
C1334 C 0.31293 0.37242 0.89548 0.0
C1335 C 0.31499 0.29821 0.92741 0.0
C1336 C 0.29169 0.30494 0.84969 0.0
C1337 C 0.31062 0.30685 0.839 0.0
C1338 C 0.29266 0.3126 0.87363 0.0
C1339 C 0.31311 0.32247 0.88741 0.0
C1340 C 0.33238 0.32317 0.877 0.0
C1341 C 0.33092 0.31532 0.85287 0.0
C1342 C 0.27169 0.31146 0.88389 0.0
C1343 C 0.35449 0.33374 0.89105 0.0
H1344 H 0.31231 0.38963 0.94009 0.0
H1345 H 0.31435 0.3276 0.96795 0.0
H1346 H 0.32604 0.37005 0.88487 0.0
H1347 H 0.29721 0.36515 0.88398 0.0
H1348 H 0.31483 0.39163 0.9016 0.0
H1349 H 0.31377 0.29131 0.94372 0.0
H1350 H 0.30151 0.28726 0.91402 0.0
H1351 H 0.33041 0.29616 0.92102 0.0
H1352 H 0.2759 0.29803 0.83923 0.0
H1353 H 0.34563 0.31681 0.84478 0.0
H1354 H 0.26952 0.32958 0.88906 0.0
H1355 H 0.27218 0.30374 0.89971 0.0
H1356 H 0.25731 0.30086 0.87141 0.0
H1357 H 0.35743 0.35325 0.89495 0.0
H1358 H 0.36767 0.32907 0.88159 0.0
H1359 H 0.35535 0.32777 0.90786 0.0
C1360 C 0.99911 0.07326 0.34214 0.0
C1361 C 0.97695 0.06299 0.33332 0.0
C1362 C 0.00863 0.07156 0.36455 0.0
C1363 C 0.99629 0.05828 0.37897 0.0
C1364 C 0.97384 0.04805 0.37029 0.0
C1365 C 0.96457 0.05058 0.34802 0.0
C1366 C 0.03237 0.08334 0.37236 0.0
C1367 C 0.95959 0.03372 0.38439 0.0
C1368 C 0.02614 0.03191 0.42559 0.0
C1369 C 0.0272 0.04771 0.44674 0.0
C1370 C 0.01649 0.0352 0.40384 0.0
C1371 C 0.0069 0.05458 0.40252 0.0
C1372 C 0.00789 0.07049 0.42388 0.0
C1373 C 0.01802 0.06705 0.44526 0.0
C1374 C 0.01677 0.01791 0.38205 0.0
C1375 C 0.99862 0.09173 0.42432 0.0
H1376 H 0.00935 0.08229 0.33112 0.0
H1377 H 0.94775 0.04169 0.34157 0.0
H1378 H 0.03508 0.09236 0.39085 0.0
H1379 H 0.04186 0.06977 0.37079 0.0
H1380 H 0.03877 0.09647 0.36175 0.0
H1381 H 0.94271 0.02635 0.37541 0.0
H1382 H 0.9665 0.01895 0.38806 0.0
H1383 H 0.95913 0.04493 0.40134 0.0
H1384 H 0.03313 0.01692 0.42591 0.0
H1385 H 0.01856 0.07965 0.46105 0.0
H1386 H 0.02592 0.02731 0.36989 0.0
H1387 H 0.99994 0.00996 0.37317 0.0
H1388 H 0.02436 1.00356 0.38559 0.0
H1389 H 0.00992 0.10538 0.41756 0.0
H1390 H 0.99643 0.09952 0.44218 0.0
H1391 H 0.98274 0.08711 0.41306 0.0
C1392 C 0.27175 0.67805 0.61634 0.0
C1393 C 0.28608 0.68264 0.60014 0.0
C1394 C 0.27162 0.69566 0.63532 0.0
C1395 C 0.28614 0.71809 0.63785 0.0
C1396 C 0.30022 0.72295 0.62124 0.0
C1397 C 0.30004 0.70511 0.60258 0.0
C1398 C 0.25656 0.69013 0.65302 0.0
C1399 C 0.31665 0.74638 0.62407 0.0
C1400 C 0.28335 0.7709 0.68208 0.0
C1401 C 0.29872 0.7697 0.69991 0.0
C1402 C 0.27842 0.75359 0.66173 0.0
C1403 C 0.28941 0.73526 0.65959 0.0
C1404 C 0.30516 0.73434 0.67761 0.0
C1405 C 0.30949 0.75157 0.69765 0.0
C1406 C 0.26167 0.75485 0.64253 0.0
C1407 C 0.31726 0.71506 0.67606 0.0
H1408 H 0.26068 0.66078 0.6142 0.0
H1409 H 0.31119 0.70873 0.59009 0.0
H1410 H 0.26621 0.69144 0.67003 0.0
H1411 H 0.2466 0.70323 0.65548 0.0
H1412 H 0.24552 0.67216 0.64786 0.0
H1413 H 0.32382 0.74856 0.60788 0.0
H1414 H 0.30918 0.76127 0.62931 0.0
H1415 H 0.33002 0.7475 0.63799 0.0
H1416 H 0.27488 0.78487 0.68432 0.0
H1417 H 0.32131 0.75083 0.71175 0.0
H1418 H 0.24877 0.73814 0.63818 0.0
H1419 H 0.26935 0.75696 0.62664 0.0
H1420 H 0.25405 0.76976 0.6473 0.0
H1421 H 0.30676 0.69906 0.68023 0.0
H1422 H 0.33246 0.72043 0.68847 0.0
H1423 H 0.32161 0.71019 0.65844 0.0
C1424 C 0.64994 0.05886 0.81825 0.0
C1425 C 0.64462 0.06967 0.80013 0.0
C1426 C 0.64993 0.06989 0.84113 0.0
C1427 C 0.64468 0.09209 0.84534 0.0
C1428 C 0.64314 0.10459 0.82721 0.0
C1429 C 0.64268 0.09294 0.80454 0.0
C1430 C 0.65223 0.05617 0.86012 0.0
C1431 C 0.63885 0.12883 0.83138 0.0
C1432 C 0.59919 0.08886 0.88103 0.0
C1433 C 0.61044 0.09815 0.90329 0.0
C1434 C 0.6102 0.08774 0.86186 0.0
C1435 C 0.63298 0.09732 0.86508 0.0
C1436 C 0.64413 0.10917 0.88725 0.0
C1437 C 0.63274 0.10874 0.90648 0.0
C1438 C 0.59758 0.0744 0.83859 0.0
C1439 C 0.66812 0.12089 0.89092 0.0
H1440 H 0.65255 0.04124 0.81448 0.0
H1441 H 0.6399 0.10163 0.79018 0.0
H1442 H 0.65971 0.068 0.8769 0.0
H1443 H 0.63585 0.04613 0.86236 0.0
H1444 H 0.66221 0.04337 0.85566 0.0
H1445 H 0.64281 0.13802 0.81683 0.0
H1446 H 0.6214 0.12722 0.833 0.0
H1447 H 0.64846 0.13976 0.84779 0.0
H1448 H 0.58197 0.08032 0.87887 0.0
H1449 H 0.64131 0.11571 0.92389 0.0
H1450 H 0.60403 0.05898 0.8322 0.0
H1451 H 0.59923 0.08592 0.82559 0.0
H1452 H 0.57997 0.06782 0.83949 0.0
H1453 H 0.6775 0.10767 0.89333 0.0
H1454 H 0.67253 0.13512 0.90668 0.0
H1455 H 0.67313 0.12848 0.87574 0.0
C1456 C 0.2938 0.33463 0.09971 0.0
C1457 C 0.31272 0.35214 0.09934 0.0
C1458 C 0.29036 0.32439 0.11946 0.0
C1459 C 0.30645 0.33132 0.1393 0.0
C1460 C 0.32592 0.34834 0.13864 0.0
C1461 C 0.32864 0.35878 0.11894 0.0
C1462 C 0.26915 0.30675 0.11933 0.0
C1463 C 0.34403 0.3554 0.15875 0.0
C1464 C 0.29037 0.32436 0.19937 0.0
C1465 C 0.2958 0.30338 0.20219 0.0
C1466 C 0.29361 0.33348 0.17903 0.0
C1467 C 0.30269 0.32145 0.16099 0.0
C1468 C 0.30833 0.3002 0.16394 0.0
C1469 C 0.30471 0.29138 0.18441 0.0
C1470 C 0.28712 0.35598 0.17678 0.0
C1471 C 0.31791 0.28656 0.14534 0.0
H1472 H 0.28128 0.32946 0.08479 0.0
H1473 H 0.3434 0.37207 0.11879 0.0
H1474 H 0.27206 0.29087 0.12534 0.0
H1475 H 0.25941 0.31477 0.13155 0.0
H1476 H 0.25941 0.30115 0.10183 0.0
H1477 H 0.35784 0.36942 0.156 0.0
H1478 H 0.33791 0.36177 0.17503 0.0
H1479 H 0.35012 0.33976 0.1612 0.0
H1480 H 0.28337 0.33355 0.21305 0.0
H1481 H 0.30876 0.27499 0.1865 0.0
H1482 H 0.2749 0.35271 0.16117 0.0
H1483 H 0.30145 0.36955 0.17442 0.0
H1484 H 0.28017 0.36313 0.19221 0.0
H1485 H 0.30523 0.27832 0.13019 0.0
H1486 H 0.32424 0.2724 0.15152 0.0
H1487 H 0.33129 0.29853 0.13922 0.0
C1488 C 0.23479 0.94446 0.01281 0.0
C1489 C 0.25693 0.95505 0.01874 0.0
C1490 C 0.21957 0.95609 0.02127 0.0
C1491 C 0.22693 0.9786 0.036 0.0
C1492 C 0.24933 0.98869 0.04313 0.0
C1493 C 0.26413 0.9767 0.03435 0.0
C1494 C 0.19571 0.9451 0.01309 0.0
C1495 C 0.25784 0.01227 0.05951 0.0
C1496 C 0.19028 0.01811 0.02657 0.0
C1497 C 0.17812 0.0161 0.04496 0.0
C1498 C 0.20705 1.00683 0.0242 0.0
C1499 C 0.21137 0.993 0.04048 0.0
C1500 C 0.19985 0.99177 0.05974 0.0
C1501 C 0.18318 1.00347 0.06181 0.0
C1502 C 0.21994 0.00945 0.00413 0.0
C1503 C 0.20488 0.97774 0.07769 0.0
H1504 H 0.2294 0.92761 1.00084 0.0
H1505 H 0.28139 0.98449 0.03946 0.0
H1506 H 0.18621 0.94611 0.0279 0.0
H1507 H 0.18962 0.95503 1.00069 0.0
H1508 H 0.19264 0.92634 0.00427 0.0
H1509 H 0.27511 0.02026 0.05815 0.0
H1510 H 0.24815 0.02502 0.05631 0.0
H1511 H 0.25687 0.00963 0.07758 0.0
H1512 H 0.1866 0.02852 0.01402 0.0
H1513 H 0.17379 1.00233 0.07617 0.0
H1514 H 0.21814 0.99193 0.99289 0.0
H1515 H 0.23747 0.01668 0.01079 0.0
H1516 H 0.21471 0.02132 0.99335 0.0
H1517 H 0.20098 0.95872 0.0696 0.0
H1518 H 0.19553 0.98003 0.09254 0.0
H1519 H 0.22249 0.98318 0.08436 0.0
C1520 C 0.71468 0.62645 1.00129 0.0
C1521 C 0.71609 0.64871 0.99545 0.0
C1522 C 0.69479 0.61231 0.00516 0.0
C1523 C 0.67541 0.6201 1.00247 0.0
C1524 C 0.67685 0.64289 0.99729 0.0
C1525 C 0.6971 0.65694 0.99407 0.0
C1526 C 0.69456 0.58873 0.01158 0.0
C1527 C 0.65687 0.65231 0.99482 0.0
C1528 C 0.62203 0.57235 0.98255 0.0
C1529 C 0.61217 0.57204 1.00284 0.0
C1530 C 0.64234 0.58787 0.98231 0.0
C1531 C 0.65349 0.60367 1.00292 0.0
C1532 C 0.64361 0.60349 0.02357 0.0
C1533 C 0.62311 0.58778 0.02326 0.0
C1534 C 0.65194 0.5873 0.95985 0.0
C1535 C 0.65499 0.61928 0.0462 0.0
H1536 H 0.72923 0.61999 1.00294 0.0
H1537 H 0.69795 0.67422 0.98998 0.0
H1538 H 0.68381 0.58536 0.02503 0.0
H1539 H 0.68813 0.57454 0.99602 0.0
H1540 H 0.7111 0.58758 0.01814 0.0
H1541 H 0.66036 0.66982 0.98973 0.0
H1542 H 0.64413 0.63978 0.98162 0.0
H1543 H 0.65011 0.65399 0.01152 0.0
H1544 H 0.61382 0.56029 0.96668 0.0
H1545 H 0.61583 0.58757 0.03914 0.0
H1546 H 0.66766 0.58235 0.96184 0.0
H1547 H 0.65525 0.60512 0.95546 0.0
H1548 H 0.64104 0.57457 0.94516 0.0
H1549 H 0.66878 0.61253 0.05268 0.0
H1550 H 0.64394 0.6199 0.05967 0.0
H1551 H 0.6618 0.6375 0.04375 0.0
C1552 C 0.70799 0.43265 0.28052 0.0
C1553 C 0.70864 0.44696 0.26342 0.0
C1554 C 0.71877 0.41351 0.27994 0.0
C1555 C 0.73058 0.40684 0.26139 0.0
C1556 C 0.73055 0.4206 0.24357 0.0
C1557 C 0.72029 0.44021 0.245 0.0
C1558 C 0.71783 0.40058 0.29981 0.0
C1559 C 0.74066 0.41392 0.22213 0.0
C1560 C 0.77729 0.3724 0.26854 0.0
C1561 C 0.767 0.34797 0.26122 0.0
C1562 C 0.76593 0.39097 0.26879 0.0
C1563 C 0.74309 0.38624 0.26094 0.0
C1564 C 0.73267 0.36156 0.25295 0.0
C1565 C 0.74433 0.34326 0.25361 0.0
C1566 C 0.77866 0.41609 0.27795 0.0
C1567 C 0.70885 0.35401 0.24348 0.0
H1568 H 0.69932 0.43678 0.295 0.0
H1569 H 0.72101 0.45004 0.2311 0.0
H1570 H 0.71134 0.38136 0.29321 0.0
H1571 H 0.73451 0.40327 0.30886 0.0
H1572 H 0.70752 0.40667 0.31254 0.0
H1573 H 0.74164 0.4272 0.21084 0.0
H1574 H 0.7572 0.41165 0.22678 0.0
H1575 H 0.7307 0.39668 0.21204 0.0
H1576 H 0.79456 0.3772 0.27463 0.0
H1577 H 0.73548 0.32497 0.24771 0.0
H1578 H 0.77107 0.42425 0.29235 0.0
H1579 H 0.77824 0.42655 0.2641 0.0
H1580 H 0.7959 0.41735 0.28434 0.0
H1581 H 0.69918 0.3519 0.25801 0.0
H1582 H 0.70482 0.33675 0.23117 0.0
H1583 H 0.70381 0.36729 0.2345 0.0
C1584 C 0.8918 0.48615 0.53205 0.0
C1585 C 0.88149 0.4686 0.51282 0.0
C1586 C 0.91395 0.48956 0.53924 0.0
C1587 C 0.92557 0.47582 0.52595 0.0
C1588 C 0.91457 0.45597 0.50879 0.0
C1589 C 0.89242 0.45249 0.50253 0.0
C1590 C 0.92518 0.50969 0.55892 0.0
C1591 C 0.92655 0.44089 0.49427 0.0
C1592 C 0.97214 0.50699 0.50032 0.0
C1593 C 0.98891 0.49892 0.5103 0.0
C1594 C 0.95159 0.5011 0.50695 0.0
C1595 C 0.94796 0.48636 0.52351 0.0
C1596 C 0.96496 0.47841 0.53385 0.0
C1597 C 0.98533 0.48451 0.52676 0.0
C1598 C 0.93382 0.51064 0.49619 0.0
C1599 C 0.96176 0.46406 0.55263 0.0
H1600 H 0.88284 0.49771 0.54081 0.0
H1601 H 0.8841 0.43838 0.48814 0.0
H1602 H 0.94109 0.50759 0.5663 0.0
H1603 H 0.92795 0.52651 0.55251 0.0
H1604 H 0.91477 0.51109 0.57293 0.0
H1605 H 0.91541 0.42443 0.48393 0.0
H1606 H 0.93482 0.45102 0.48205 0.0
H1607 H 0.93918 0.43609 0.50534 0.0
H1608 H 0.9754 0.51907 0.48845 0.0
H1609 H 0.9988 0.4791 0.53499 0.0
H1610 H 0.92697 0.52076 0.50995 0.0
H1611 H 0.92043 0.49587 0.48633 0.0
H1612 H 0.93976 0.52248 0.48421 0.0
H1613 H 0.95546 0.47379 0.56715 0.0
H1614 H 0.97709 0.46021 0.55954 0.0
H1615 H 0.94948 0.44714 0.5459 0.0
C1616 C 0.40206 0.08902 0.25948 0.0
C1617 C 0.39595 0.0813 0.27956 0.0
C1618 C 0.38927 0.10029 0.24738 0.0
C1619 C 0.3706 0.10482 0.25638 0.0
C1620 C 0.36358 0.09567 0.27587 0.0
C1621 C 0.37626 0.08337 0.28702 0.0
C1622 C 0.39657 0.10846 0.22585 0.0
C1623 C 0.3433 0.09972 0.2855 0.0
C1624 C 0.35949 0.16356 0.25373 0.0
C1625 C 0.33932 0.15685 0.2397 0.0
C1626 C 0.37029 0.14669 0.25862 0.0
C1627 C 0.36096 0.12272 0.24846 0.0
C1628 C 0.34178 0.11602 0.23245 0.0
C1629 C 0.3309 0.13321 0.22852 0.0
C1630 C 0.39097 0.15442 0.2757 0.0
C1631 C 0.33254 0.09075 0.22002 0.0
H1632 H 0.41687 0.0861 0.25314 0.0
H1633 H 0.37129 0.07625 0.30197 0.0
H1634 H 0.38272 0.10969 0.2137 0.0
H1635 H 0.40802 0.12615 0.2309 0.0
H1636 H 0.4053 0.0963 0.21657 0.0
H1637 H 0.34176 0.09401 0.30238 0.0
H1638 H 0.3432 0.11865 0.28794 0.0
H1639 H 0.32878 0.08962 0.27306 0.0
H1640 H 0.36637 0.18189 0.2618 0.0
H1641 H 0.31533 0.12789 0.21757 0.0
H1642 H 0.40459 0.14963 0.26723 0.0
H1643 H 0.38901 0.1452 0.29052 0.0
H1644 H 0.39554 0.17375 0.28259 0.0
H1645 H 0.34495 0.08442 0.21043 0.0
H1646 H 0.31776 0.08868 0.20755 0.0
H1647 H 0.32838 0.0792 0.2327 0.0
C1648 C 0.35135 0.15537 0.53843 0.0
C1649 C 0.34278 0.15651 0.51598 0.0
C1650 C 0.37066 0.14819 0.54254 0.0
C1651 C 0.38159 0.14155 0.52364 0.0
C1652 C 0.37364 0.14387 0.50108 0.0
C1653 C 0.35442 0.15156 0.49754 0.0
C1654 C 0.37894 0.14704 0.56702 0.0
C1655 C 0.38454 0.13655 0.48039 0.0
C1656 C 0.43811 0.12967 0.53123 0.0
C1657 C 0.43291 0.10506 0.52909 0.0
C1658 C 0.42167 0.14203 0.53057 0.0
C1659 C 0.39952 0.12937 0.52684 0.0
C1660 C 0.3943 0.10458 0.52528 0.0
C1661 C 0.41102 0.09281 0.52665 0.0
C1662 C 0.42799 0.16855 0.53363 0.0
C1663 C 0.37098 0.09034 0.52173 0.0
H1664 H 0.34249 0.15947 0.55279 0.0
H1665 H 0.34777 0.15221 0.48015 0.0
H1666 H 0.38192 0.12948 0.56781 0.0
H1667 H 0.39468 0.1603 0.57284 0.0
H1668 H 0.36744 0.15063 0.57941 0.0
H1669 H 0.37813 0.14206 0.46463 0.0
H1670 H 0.40236 0.14419 0.48409 0.0
H1671 H 0.38181 0.11705 0.47669 0.0
H1672 H 0.45504 0.13922 0.53343 0.0
H1673 H 0.40692 0.07379 0.52497 0.0
H1674 H 0.41985 0.17655 0.54758 0.0
H1675 H 0.42246 0.17385 0.51742 0.0
H1676 H 0.44583 0.17589 0.53806 0.0
H1677 H 0.36271 0.09625 0.53655 0.0
H1678 H 0.36964 0.07113 0.52013 0.0
H1679 H 0.36213 0.09324 0.50581 0.0
C1680 C 0.72229 0.61803 0.29183 0.0
C1681 C 0.71246 0.60117 0.27152 0.0
C1682 C 0.73421 0.64156 0.2912 0.0
C1683 C 0.73668 0.64939 0.26975 0.0
C1684 C 0.72667 0.63237 0.24922 0.0
C1685 C 0.71476 0.60905 0.25037 0.0
C1686 C 0.74375 0.65839 0.31381 0.0
C1687 C 0.72861 0.63871 0.2257 0.0
C1688 C 0.75516 0.7177 0.26811 0.0
C1689 C 0.77779 0.72165 0.26716 0.0
C1690 C 0.74171 0.69473 0.2689 0.0
C1691 C 0.75061 0.67456 0.26874 0.0
C1692 C 0.77332 0.67862 0.26767 0.0
C1693 C 0.78623 0.70149 0.26696 0.0
C1694 C 0.71779 0.69203 0.26996 0.0
C1695 C 0.78432 0.65863 0.26752 0.0
H1696 H 0.7202 0.61301 0.30844 0.0
H1697 H 0.70694 0.59686 0.23443 0.0
H1698 H 0.76113 0.66674 0.31354 0.0
H1699 H 0.73514 0.67273 0.31618 0.0
H1700 H 0.74237 0.64952 0.32892 0.0
H1701 H 0.71747 0.62531 0.21166 0.0
H1702 H 0.72508 0.65613 0.22543 0.0
H1703 H 0.74553 0.64007 0.22194 0.0
H1704 H 0.74785 0.73247 0.26831 0.0
H1705 H 0.80346 0.70354 0.26626 0.0
H1706 H 0.71348 0.68575 0.28599 0.0
H1707 H 0.70824 0.67847 0.25504 0.0
H1708 H 0.71294 0.70883 0.26973 0.0
H1709 H 0.78328 0.6524 0.28416 0.0
H1710 H 0.80171 0.66392 0.26513 0.0
H1711 H 0.77591 0.64352 0.2534 0.0
C1712 C 0.89151 0.45661 0.76188 0.0
C1713 C 0.91105 0.45607 0.77437 0.0
C1714 C 0.87338 0.43806 0.75947 0.0
C1715 C 0.87545 0.41846 0.7691 0.0
C1716 C 0.89565 0.41691 0.78005 0.0
C1717 C 0.91351 0.43615 0.78274 0.0
C1718 C 0.85195 0.43987 0.74752 0.0
C1719 C 0.89831 0.39509 0.7888 0.0
C1720 C 0.82893 0.37655 0.78512 0.0
C1721 C 0.82454 0.35893 0.76516 0.0
C1722 C 0.8446 0.39735 0.78597 0.0
C1723 C 0.85651 0.39921 0.76703 0.0
C1724 C 0.85081 0.38224 0.7463 0.0
C1725 C 0.83369 0.36299 0.74512 0.0
C1726 C 0.84956 0.41639 0.80762 0.0
C1727 C 0.86357 0.38317 0.72594 0.0
H1728 H 0.89016 0.47216 0.75504 0.0
H1729 H 0.92891 0.43608 0.79214 0.0
H1730 H 0.84735 0.4271 0.7308 0.0
H1731 H 0.83884 0.43546 0.75835 0.0
H1732 H 0.8527 0.45777 0.74388 0.0
H1733 H 0.91473 0.39759 0.79844 0.0
H1734 H 0.88603 0.39001 0.80035 0.0
H1735 H 0.89561 0.38015 0.77383 0.0
H1736 H 0.82116 0.37361 0.80032 0.0
H1737 H 0.82943 0.34982 0.72919 0.0
H1738 H 0.85168 0.43406 0.803 0.0
H1739 H 0.86499 0.41609 0.81776 0.0
H1740 H 0.8365 0.41391 0.81886 0.0
H1741 H 0.85735 0.39385 0.71453 0.0
H1742 H 0.86179 0.36527 0.71543 0.0
H1743 H 0.88114 0.39125 0.73154 0.0
C1744 C 0.08177 0.89847 0.09511 0.0
C1745 C 0.08519 0.87797 0.08169 0.0
C1746 C 0.07711 0.917 0.0849 0.0
C1747 C 0.07563 0.91526 0.06049 0.0
C1748 C 0.07891 0.89454 0.04678 0.0
C1749 C 0.0837 0.8763 0.05748 0.0
C1750 C 0.07359 0.93848 0.10034 0.0
C1751 C 0.07774 0.89176 0.02076 0.0
C1752 C 0.04564 0.95631 0.03417 0.0
C1753 C 0.0628 0.97553 0.03296 0.0
C1754 C 0.04954 0.93641 0.04251 0.0
C1755 C 0.07116 0.93537 0.04962 0.0
C1756 C 0.08853 0.95432 0.04746 0.0
C1757 C 0.08415 0.9741 0.03945 0.0
C1758 C 0.03045 0.9167 0.0442 0.0
C1759 C 0.11187 0.95417 0.05433 0.0
H1760 H 0.08268 0.90008 0.11376 0.0
H1761 H 0.08621 0.86064 0.04679 0.0
H1762 H 0.08465 0.95472 0.09731 0.0
H1763 H 0.0567 0.93992 0.09602 0.0
H1764 H 0.07637 0.93782 0.11905 0.0
H1765 H 0.07703 0.87337 0.01221 0.0
H1766 H 0.06332 0.89693 0.01333 0.0
H1767 H 0.09236 0.90362 0.01653 0.0
H1768 H 0.02906 0.95711 0.02928 0.0
H1769 H 0.09761 0.98866 0.03849 0.0
H1770 H 0.03002 0.91498 0.06259 0.0
H1771 H 0.03224 0.89969 0.03443 0.0
H1772 H 0.01471 0.91968 0.03732 0.0
H1773 H 0.11525 0.95681 0.0735 0.0
H1774 H 0.12346 0.96833 0.04848 0.0
H1775 H 0.11488 0.9369 0.04694 0.0
C1776 C 0.94413 0.29592 0.87312 0.0
C1777 C 0.95058 0.27455 0.8698 0.0
C1778 C 0.92475 0.29835 0.86101 0.0
C1779 C 0.91113 0.27901 0.84466 0.0
C1780 C 0.91713 0.25706 0.84192 0.0
C1781 C 0.93667 0.25513 0.85435 0.0
C1782 C 0.91949 0.32213 0.86486 0.0
C1783 C 0.90369 0.23592 0.82454 0.0
C1784 C 0.85357 0.28172 0.81828 0.0
C1785 C 0.85737 0.28755 0.79663 0.0
C1786 C 0.87072 0.279 0.83412 0.0
C1787 C 0.89239 0.28248 0.82853 0.0
C1788 C 0.89624 0.28914 0.80701 0.0
C1789 C 0.87889 0.29141 0.79152 0.0
C1790 C 0.86554 0.27172 0.85661 0.0
C1791 C 0.91882 0.29372 0.80011 0.0
H1792 H 0.95492 0.31125 0.88452 0.0
H1793 H 0.94168 0.23875 0.8509 0.0
H1794 H 0.91945 0.32893 0.84848 0.0
H1795 H 0.90299 0.32041 0.87001 0.0
H1796 H 0.93133 0.3353 0.87849 0.0
H1797 H 0.90762 0.2193 0.82759 0.0
H1798 H 0.88608 0.23428 0.82511 0.0
H1799 H 0.90699 0.23818 0.80681 0.0
H1800 H 0.83709 0.27838 0.82246 0.0
H1801 H 0.88221 0.296 0.77496 0.0
H1802 H 0.87524 0.28525 0.87145 0.0
H1803 H 0.87014 0.25494 0.85766 0.0
H1804 H 0.84803 0.2693 0.85844 0.0
H1805 H 0.92958 0.30916 0.81235 0.0
H1806 H 0.91902 0.29728 0.78224 0.0
H1807 H 0.9258 0.27837 0.80114 0.0
C1808 C 0.59314 0.2172 0.59355 0.0
C1809 C 0.58407 0.23401 0.58489 0.0
C1810 C 0.58862 0.19383 0.58167 0.0
C1811 C 0.57494 0.18692 0.56019 0.0
C1812 C 0.56601 0.20378 0.5509 0.0
C1813 C 0.57069 0.22725 0.5634 0.0
C1814 C 0.5981 0.17639 0.59253 0.0
C1815 C 0.55091 0.19677 0.52827 0.0
C1816 C 0.58202 0.12913 0.52697 0.0
C1817 C 0.56454 0.11298 0.53249 0.0
C1818 C 0.58454 0.15353 0.53426 0.0
C1819 C 0.56977 0.16177 0.54815 0.0
C1820 C 0.55183 0.1454 0.55328 0.0
C1821 C 0.54937 0.12125 0.54521 0.0
C1822 C 0.60329 0.17054 0.52763 0.0
C1823 C 0.536 0.15302 0.56864 0.0
H1824 H 0.60363 0.22223 0.61005 0.0
H1825 H 0.56338 0.24002 0.55674 0.0
H1826 H 0.58486 0.1615 0.59476 0.0
H1827 H 0.60863 0.16892 0.58097 0.0
H1828 H 0.6079 0.18453 0.60974 0.0
H1829 H 0.54801 0.21237 0.52162 0.0
H1830 H 0.55759 0.18589 0.51491 0.0
H1831 H 0.53504 0.18585 0.53084 0.0
H1832 H 0.59359 0.12269 0.51691 0.0
H1833 H 0.53594 0.10872 0.54973 0.0
H1834 H 0.61506 0.17968 0.54331 0.0
H1835 H 0.59735 0.18426 0.52016 0.0
H1836 H 0.61195 0.16154 0.51482 0.0
H1837 H 0.54314 0.15578 0.58706 0.0
H1838 H 0.52035 0.13939 0.5659 0.0
H1839 H 0.53262 0.16985 0.5656 0.0
C1840 C 0.59707 0.79783 0.40226 0.0
C1841 C 0.5799 0.77894 0.39043 0.0
C1842 C 0.61659 0.80436 0.39284 0.0
C1843 C 0.61919 0.79149 0.37116 0.0
C1844 C 0.60183 0.77253 0.35914 0.0
C1845 C 0.58242 0.76663 0.36881 0.0
C1846 C 0.63412 0.82541 0.40583 0.0
C1847 C 0.6039 0.75806 0.33619 0.0
C1848 C 0.66075 0.81293 0.33203 0.0
C1849 C 0.67687 0.80093 0.33665 0.0
C1850 C 0.64269 0.81142 0.3443 0.0
C1851 C 0.64016 0.79701 0.36117 0.0
C1852 C 0.65689 0.78598 0.36686 0.0
C1853 C 0.67509 0.78833 0.35482 0.0
C1854 C 0.62589 0.82463 0.33865 0.0
C1855 C 0.65529 0.77109 0.38527 0.0
H1856 H 0.59514 0.8078 0.41879 0.0
H1857 H 0.56924 0.75211 0.35951 0.0
H1858 H 0.65041 0.82173 0.40596 0.0
H1859 H 0.63434 0.84049 0.39694 0.0
H1860 H 0.63132 0.83087 0.42403 0.0
H1861 H 0.58868 0.74449 0.32861 0.0
H1862 H 0.60821 0.76967 0.32357 0.0
H1863 H 0.61721 0.74911 0.33861 0.0
H1864 H 0.6617 0.82281 0.31818 0.0
H1865 H 0.68775 0.7798 0.35939 0.0
H1866 H 0.62262 0.83505 0.35482 0.0
H1867 H 0.61037 0.81193 0.33046 0.0
H1868 H 0.63112 0.83676 0.3267 0.0
H1869 H 0.655 0.7822 0.40232 0.0
H1870 H 0.6691 0.76268 0.38687 0.0
H1871 H 0.6399 0.75705 0.38124 0.0
C1872 C 0.09364 0.26899 0.44488 0.0
C1873 C 0.08582 0.2709 0.42254 0.0
C1874 C 0.08485 0.24916 0.45399 0.0
C1875 C 0.06775 0.23095 0.44042 0.0
C1876 C 0.05923 0.23318 0.41817 0.0
C1877 C 0.0684 0.25318 0.40949 0.0
C1878 C 0.09447 0.2473 0.47776 0.0
C1879 C 0.04034 0.21477 0.4035 0.0
C1880 C 0.06596 0.17086 0.45411 0.0
C1881 C 0.05236 0.17027 0.47151 0.0
C1882 C 0.07043 0.19017 0.44312 0.0
C1883 C 0.06029 0.20883 0.44893 0.0
C1884 C 0.04464 0.2071 0.4644 0.0
C1885 C 0.04123 0.18811 0.47597 0.0
C1886 C 0.08669 0.19109 0.42601 0.0
C1887 C 0.03228 0.22583 0.46961 0.0
H1888 H 0.107 0.28273 0.45506 0.0
H1889 H 0.06198 0.25482 0.39236 0.0
H1890 H 0.08155 0.24415 0.48904 0.0
H1891 H 0.10194 0.23203 0.47621 0.0
H1892 H 0.10707 0.26346 0.48641 0.0
H1893 H 0.0406 0.21491 0.38472 0.0
H1894 H 0.04008 0.19669 0.40627 0.0
H1895 H 0.02497 0.21883 0.40824 0.0
H1896 H 0.07381 0.15663 0.44965 0.0
H1897 H 0.03059 0.18795 0.48926 0.0
H1898 H 0.10055 0.20676 0.43227 0.0
H1899 H 0.07902 0.19297 0.40901 0.0
H1900 H 0.09309 0.17506 0.42335 0.0
H1901 H 0.04285 0.24135 0.4819 0.0
H1902 H 0.0175 0.21932 0.47756 0.0
H1903 H 0.02736 0.2318 0.45355 0.0
C1904 C 0.56628 0.28017 0.20063 0.0
C1905 C 0.55805 0.26105 0.18218 0.0
C1906 C 0.58605 0.28221 0.21407 0.0
C1907 C 0.59736 0.26449 0.20891 0.0
C1908 C 0.58837 0.24443 0.19112 0.0
C1909 C 0.5688 0.24307 0.17773 0.0
C1910 C 0.59531 0.30384 0.23289 0.0
C1911 C 0.59965 0.2247 0.18584 0.0
C1912 C 0.65822 0.27917 0.21806 0.0
C1913 C 0.66211 0.26793 0.23646 0.0
C1914 C 0.63709 0.27909 0.20954 0.0
C1915 C 0.61965 0.26803 0.22017 0.0
C1916 C 0.62357 0.2584 0.23997 0.0
C1917 C 0.64489 0.25835 0.24787 0.0
C1918 C 0.63331 0.28929 0.18818 0.0
C1919 C 0.60519 0.24715 0.25198 0.0
H1920 H 0.55759 0.29385 0.20407 0.0
H1921 H 0.56185 0.22793 0.16385 0.0
H1922 H 0.60232 0.29904 0.24876 0.0
H1923 H 0.60864 0.31588 0.22679 0.0
H1924 H 0.58285 0.31358 0.23749 0.0
H1925 H 0.59059 0.21065 0.17102 0.0
H1926 H 0.61622 0.23175 0.18174 0.0
H1927 H 0.60141 0.21663 0.20132 0.0
H1928 H 0.67165 0.28705 0.20962 0.0
H1929 H 0.6479 0.24964 0.26212 0.0
H1930 H 0.62295 0.3019 0.19127 0.0
H1931 H 0.62457 0.2749 0.17352 0.0
H1932 H 0.64874 0.29852 0.18291 0.0
H1933 H 0.59564 0.26007 0.25761 0.0
H1934 H 0.61109 0.24074 0.26739 0.0
H1935 H 0.59394 0.23206 0.23976 0.0
C1936 C 0.58903 0.9078 0.91007 0.0
C1937 C 0.60754 0.90183 0.91935 0.0
C1938 C 0.57974 0.92361 0.9235 0.0
C1939 C 0.58984 0.93418 0.94632 0.0
C1940 C 0.60859 0.92816 0.95577 0.0
C1941 C 0.617 0.91153 0.94221 0.0
C1942 C 0.55931 0.92908 0.91326 0.0
C1943 C 0.61969 0.93929 0.98014 0.0
C1944 C 0.58427 0.99392 0.97398 0.0
C1945 C 0.57049 0.98791 0.99014 0.0
C1946 C 0.5899 0.97636 0.95868 0.0
C1947 C 0.58158 0.95248 0.96005 0.0
C1948 C 0.56682 0.94638 0.97581 0.0
C1949 C 0.56135 0.96439 0.99077 0.0
C1950 C 0.60557 0.9834 0.94195 0.0
C1951 C 0.55729 0.92101 0.97724 0.0
H1952 H 0.58147 0.89953 0.89249 0.0
H1953 H 0.63105 0.9063 0.9493 0.0
H1954 H 0.54717 0.92818 0.9256 0.0
H1955 H 0.56321 0.9473 0.90991 0.0
H1956 H 0.55181 0.91674 0.89667 0.0
H1957 H 0.63495 0.93387 0.98421 0.0
H1958 H 0.62358 0.95882 0.98255 0.0
H1959 H 0.60859 0.93414 0.99281 0.0
H1960 H 0.59103 0.01234 0.97374 0.0
H1961 H 0.5505 0.96018 1.00341 0.0
H1962 H 0.59858 0.97409 0.92399 0.0
H1963 H 0.62083 0.97812 0.94629 0.0
H1964 H 0.60961 1.00272 0.94241 0.0
H1965 H 0.54711 0.91159 0.96059 0.0
H1966 H 0.5471 0.91949 0.99147 0.0
H1967 H 0.57041 0.9119 0.98003 0.0
C1968 C 0.93984 0.77403 0.69426 0.0
C1969 C 0.93648 0.75042 0.68347 0.0
C1970 C 0.92483 0.78114 0.70763 0.0
C1971 C 0.90577 0.76426 0.70924 0.0
C1972 C 0.90171 0.74059 0.69727 0.0
C1973 C 0.91754 0.73375 0.68481 0.0
C1974 C 0.92997 0.80624 0.72111 0.0
C1975 C 0.88081 0.72264 0.69778 0.0
C1976 C 0.87562 0.77414 0.76025 0.0
C1977 C 0.86017 0.78436 0.75085 0.0
C1978 C 0.89123 0.7681 0.74697 0.0
C1979 C 0.89023 0.77143 0.72373 0.0
C1980 C 0.87446 0.78175 0.7143 0.0
C1981 C 0.85983 0.78865 0.72831 0.0
C1982 C 0.90839 0.7577 0.75753 0.0
C1983 C 0.87264 0.78488 0.68935 0.0
H1984 H 0.95495 0.78659 0.69351 0.0
H1985 H 0.91535 0.71547 0.67644 0.0
H1986 H 0.9165 0.81458 0.71733 0.0
H1987 H 0.93177 0.80621 0.73999 0.0
H1988 H 0.94519 0.8173 0.71711 0.0
H1989 H 0.88102 0.70458 0.68903 0.0
H1990 H 0.87767 0.72219 0.71589 0.0
H1991 H 0.86701 0.72777 0.68892 0.0
H1992 H 0.87529 0.77071 0.7777 0.0
H1993 H 0.84731 0.79617 0.72122 0.0
H1994 H 0.92479 0.76761 0.75522 0.0
H1995 H 0.90612 0.73915 0.74852 0.0
H1996 H 0.90779 0.75802 0.77633 0.0
H1997 H 0.88705 0.79823 0.68682 0.0
H1998 H 0.85784 0.79071 0.68419 0.0
H1999 H 0.87227 0.76808 0.67752 0.0
C2000 C 0.13955 0.03889 0.86439 0.0
C2001 C 0.12968 0.02261 0.84359 0.0
C2002 C 0.12973 0.04059 0.8856 0.0
C2003 C 0.10907 0.02561 0.88729 0.0
C2004 C 0.09903 0.00909 0.8663 0.0
C2005 C 0.10901 0.00815 0.84521 0.0
C2006 C 0.14139 0.05923 0.90628 0.0
C2007 C 0.07707 0.99262 0.86562 0.0
C2008 C 0.09246 0.01714 0.94966 0.0
C2009 C 0.07725 0.03095 0.954 0.0
C2010 C 0.1026 0.01531 0.92864 0.0
C2011 C 0.09808 0.02756 0.91049 0.0
C2012 C 0.08268 0.04147 0.91483 0.0
C2013 C 0.07254 0.04266 0.93578 0.0
C2014 C 0.11767 0.99919 0.92538 0.0
C2015 C 0.07669 0.05528 0.89713 0.0
H2016 H 0.15486 0.05115 0.86391 0.0
H2017 H 0.1002 0.99612 0.82959 0.0
H2018 H 0.13034 0.07013 0.91275 0.0
H2019 H 0.14626 0.0507 0.92054 0.0
H2020 H 0.15614 0.07101 0.90216 0.0
H2021 H 0.07389 0.9772 0.85105 0.0
H2022 H 0.07563 0.98616 0.88212 0.0
H2023 H 0.06427 1.00221 0.86313 0.0
H2024 H 0.09583 1.00681 0.96238 0.0
H2025 H 0.06035 0.05269 0.93772 0.0
H2026 H 0.13391 0.00935 0.92293 0.0
H2027 H 0.11133 0.98546 0.90943 0.0
H2028 H 0.11955 0.99041 0.94036 0.0
H2029 H 0.0911 0.06939 0.89597 0.0
H2030 H 0.06323 0.06354 0.90158 0.0
H2031 H 0.07179 0.04371 0.87971 0.0
C2032 C 0.85202 0.41936 0.57589 0.0
C2033 C 0.83155 0.40815 0.5632 0.0
C2034 C 0.85932 0.41166 0.59557 0.0
C2035 C 0.84558 0.39262 0.60255 0.0
C2036 C 0.82466 0.38165 0.59005 0.0
C2037 C 0.81798 0.38947 0.57031 0.0
C2038 C 0.88185 0.42332 0.6083 0.0
C2039 C 0.80925 0.3617 0.5975 0.0
C2040 C 0.85993 0.34901 0.63552 0.0
C2041 C 0.85095 0.3551 0.65578 0.0
C2042 C 0.861 0.3631 0.61879 0.0
C2043 C 0.8528 0.38344 0.62264 0.0
C2044 C 0.84659 0.39132 0.64435 0.0
C2045 C 0.84577 0.37695 0.6608 0.0
C2046 C 0.86798 0.35447 0.59579 0.0
C2047 C 0.83832 0.41336 0.64912 0.0
H2048 H 0.86254 0.43376 0.57012 0.0
H2049 H 0.80207 0.38109 0.56052 0.0
H2050 H 0.88172 0.42677 0.62734 0.0
H2051 H 0.89266 0.4113 0.6045 0.0
H2052 H 0.88895 0.44021 0.603 0.0
H2053 H 0.79372 0.35501 0.58553 0.0
H2054 H 0.81691 0.34679 0.59827 0.0
H2055 H 0.80548 0.36782 0.61515 0.0
H2056 H 0.86395 0.3321 0.63161 0.0
H2057 H 0.83909 0.38174 0.67663 0.0
H2058 H 0.87778 0.36937 0.58926 0.0
H2059 H 0.85335 0.34614 0.5828 0.0
H2060 H 0.87759 0.34119 0.59708 0.0
H2061 H 0.85055 0.42869 0.64604 0.0
H2062 H 0.83466 0.4173 0.66721 0.0
H2063 H 0.82329 0.41131 0.63706 0.0
C2064 C 0.50009 0.03465 0.36197 0.0
C2065 C 0.47807 0.03301 0.35615 0.0
C2066 C 0.50862 0.03648 0.38475 0.0
C2067 C 0.49454 0.03653 0.40192 0.0
C2068 C 0.4722 0.03488 0.39624 0.0
C2069 C 0.46413 0.03339 0.37309 0.0
C2070 C 0.53257 0.03766 0.39019 0.0
C2071 C 0.45699 0.0346 0.41441 0.0
C2072 C 0.52193 0.01675 0.44955 0.0
C2073 C 0.53547 0.0384 0.46092 0.0
C2074 C 0.50608 0.01584 0.43148 0.0
C2075 C 0.50372 0.03726 0.42552 0.0
C2076 C 0.51563 0.05927 0.43895 0.0
C2077 C 0.53198 0.0596 0.45641 0.0
C2078 C 0.49395 0.99207 0.41708 0.0
C2079 C 0.51282 0.0823 0.4332 0.0
H2080 H 0.51069 0.03445 0.3486 0.0
H2081 H 0.44699 0.0319 0.36817 0.0
H2082 H 0.54066 0.05351 0.40359 0.0
H2083 H 0.53459 0.02192 0.39712 0.0
H2084 H 0.54114 0.03832 0.37466 0.0
H2085 H 0.43966 0.02935 0.40654 0.0
H2086 H 0.45967 0.02235 0.42602 0.0
H2087 H 0.46032 0.05248 0.42541 0.0
H2088 H 0.52458 1.00051 0.45397 0.0
H2089 H 0.54206 0.07624 0.46632 0.0
H2090 H 0.50099 0.98898 0.40065 0.0
H2091 H 0.47657 0.99153 0.41245 0.0
H2092 H 0.49508 0.97743 0.42626 0.0
H2093 H 0.52188 0.08616 0.41856 0.0
H2094 H 0.51917 0.09717 0.44822 0.0
H2095 H 0.49545 0.08125 0.42774 0.0
C2096 C 0.80688 0.74201 0.0849 0.0
C2097 C 0.78623 0.73077 0.07264 0.0
C2098 C 0.80922 0.75345 0.10831 0.0
C2099 C 0.79044 0.75345 0.11949 0.0
C2100 C 0.76959 0.74355 0.10653 0.0
C2101 C 0.76777 0.73225 0.08333 0.0
C2102 C 0.83178 0.76381 0.1214 0.0
C2103 C 0.74916 0.74322 0.11768 0.0
C2104 C 0.79326 0.75024 0.18333 0.0
C2105 C 0.79175 0.77281 0.19344 0.0
C2106 C 0.79322 0.7439 0.15934 0.0
C2107 C 0.79224 0.76078 0.14519 0.0
C2108 C 0.79128 0.78385 0.15549 0.0
C2109 C 0.7908 0.78953 0.17955 0.0
C2110 C 0.79425 0.7191 0.14914 0.0
C2111 C 0.79145 0.80268 0.14123 0.0
H2112 H 0.82119 0.74042 0.07676 0.0
H2113 H 0.75184 0.72329 0.07386 0.0
H2114 H 0.83238 0.77973 0.13463 0.0
H2115 H 0.8367 0.75057 0.13053 0.0
H2116 H 0.84384 0.76854 0.10948 0.0
H2117 H 0.73421 0.73589 0.10492 0.0
H2118 H 0.74867 0.73235 0.13127 0.0
H2119 H 0.74911 0.76135 0.12626 0.0
H2120 H 0.79454 0.73755 0.19431 0.0
H2121 H 0.79049 0.80726 0.18764 0.0
H2122 H 0.80919 0.71962 0.1408 0.0
H2123 H 0.78016 0.71063 0.13551 0.0
H2124 H 0.79426 0.70792 0.16244 0.0
H2125 H 0.80721 0.80665 0.13432 0.0
H2126 H 0.78923 0.81926 0.15153 0.0
H2127 H 0.77847 0.79635 0.12612 0.0
C2128 C 0.13855 0.03851 0.69023 0.0
C2129 C 0.13452 0.01648 0.69724 0.0
C2130 C 0.12797 0.04204 0.66908 0.0
C2131 C 0.11307 0.023 0.6533 0.0
C2132 C 0.10902 1.0006 0.66019 0.0
C2133 C 0.11936 0.99772 0.68187 0.0
C2134 C 0.13274 0.06648 0.66371 0.0
C2135 C 0.09402 0.97934 0.64427 0.0
C2136 C 0.07269 0.03655 0.60565 0.0
C2137 C 0.0823 0.03297 0.58513 0.0
C2138 C 0.08205 0.03293 0.62741 0.0
C2139 C 0.10228 0.0264 0.62965 0.0
C2140 C 0.1122 0.02326 0.60898 0.0
C2141 C 0.10208 0.02613 0.58731 0.0
C2142 C 0.06997 0.03578 0.64807 0.0
C2143 C 0.13392 0.01723 0.60977 0.0
H2144 H 0.14994 0.05336 0.70163 0.0
H2145 H 0.11596 0.98047 0.68648 0.0
H2146 H 0.13846 0.06617 0.64649 0.0
H2147 H 0.11761 0.07274 0.66286 0.0
H2148 H 0.1452 0.07935 0.67698 0.0
H2149 H 0.09063 0.9637 0.6526 0.0
H2150 H 0.07839 0.98331 0.63864 0.0
H2151 H 0.10152 0.97481 0.62841 0.0
H2152 H 0.05741 0.04166 0.60461 0.0
H2153 H 0.11004 0.02349 0.57196 0.0
H2154 H 0.08026 0.04958 0.66234 0.0
H2155 H 0.06637 0.01904 0.65462 0.0
H2156 H 0.05444 0.04061 0.64384 0.0
H2157 H 0.14651 0.03231 0.62045 0.0
H2158 H 0.1388 0.01331 0.59222 0.0
H2159 H 0.13358 1.00178 0.61812 0.0
C2160 C 0.80367 0.39697 0.40782 0.0
C2161 C 0.81901 0.40095 0.42736 0.0
C2162 C 0.80365 0.37963 0.38861 0.0
C2163 C 0.81981 0.36673 0.38902 0.0
C2164 C 0.83613 0.37175 0.40832 0.0
C2165 C 0.83528 0.38864 0.4276 0.0
C2166 C 0.78572 0.37435 0.36844 0.0
C2167 C 0.85439 0.3594 0.40852 0.0
C2168 C 0.80444 0.30734 0.34868 0.0
C2169 C 0.81126 0.31377 0.32835 0.0
C2170 C 0.80775 0.32439 0.36909 0.0
C2171 C 0.81927 0.34783 0.36921 0.0
C2172 C 0.82776 0.35384 0.34924 0.0
C2173 C 0.82261 0.33703 0.32876 0.0
C2174 C 0.79769 0.31777 0.38996 0.0
C2175 C 0.84089 0.37842 0.34897 0.0
H2176 H 0.79109 0.40657 0.40808 0.0
H2177 H 0.84719 0.39216 0.44293 0.0
H2178 H 0.79259 0.37535 0.35195 0.0
H2179 H 0.77564 0.3561 0.36679 0.0
H2180 H 0.77501 0.38673 0.37057 0.0
H2181 H 0.86489 0.3642 0.42557 0.0
H2182 H 0.84787 0.33998 0.40423 0.0
H2183 H 0.8646 0.36426 0.39501 0.0
H2184 H 0.79522 0.28947 0.34823 0.0
H2185 H 0.82652 0.34261 0.31291 0.0
H2186 H 0.78561 0.32816 0.39409 0.0
H2187 H 0.81032 0.32213 0.40532 0.0
H2188 H 0.78942 0.2987 0.38707 0.0
H2189 H 0.82987 0.39034 0.3479 0.0
H2190 H 0.85008 0.37867 0.33387 0.0
H2191 H 0.85254 0.38565 0.36512 0.0
C2192 C 0.47406 0.0086 0.22851 0.0
C2193 C 0.45528 0.01707 0.22758 0.0
C2194 C 0.47744 0.99267 0.20984 0.0
C2195 C 0.46321 0.98793 0.18894 0.0
C2196 C 0.44283 0.99353 0.18887 0.0
C2197 C 0.43899 0.00802 0.20846 0.0
C2198 C 0.49841 0.98497 0.21103 0.0
C2199 C 0.42686 0.98784 0.16695 0.0
C2200 C 0.49416 0.01312 0.14473 0.0
C2201 C 0.49313 0.99304 0.12813 0.0
C2202 C 0.48445 0.0115 0.16451 0.0
C2203 C 0.4734 0.98892 0.16781 0.0
C2204 C 0.47248 0.96836 0.1512 0.0
C2205 C 0.48267 0.97067 0.13136 0.0
C2206 C 0.48673 0.03415 0.18196 0.0
C2207 C 0.46179 0.94404 0.15479 0.0
H2208 H 0.48684 0.0154 0.24306 0.0
H2209 H 0.42397 0.01366 0.20803 0.0
H2210 H 0.4971 0.96863 0.19808 0.0
H2211 H 0.51164 0.99915 0.2075 0.0
H2212 H 0.50297 0.98187 0.22866 0.0
H2213 H 0.41074 0.99066 0.17049 0.0
H2214 H 0.43324 0.99937 0.15488 0.0
H2215 H 0.42472 0.96929 0.15804 0.0
H2216 H 0.5032 0.03026 0.14244 0.0
H2217 H 0.48267 0.95519 0.1186 0.0
H2218 H 0.4975 0.03425 0.19784 0.0
H2219 H 0.47072 0.03584 0.18684 0.0
H2220 H 0.49397 0.05012 0.1752 0.0
H2221 H 0.47347 0.93797 0.16595 0.0
H2222 H 0.4571 0.93115 0.13806 0.0
H2223 H 0.4472 0.94398 0.16365 0.0
C2224 C 0.79432 0.74868 0.93157 0.0
C2225 C 0.79355 0.72469 0.93094 0.0
C2226 C 0.79716 0.75883 0.91167 0.0
C2227 C 0.7991 0.7447 0.89037 0.0
C2228 C 0.7986 0.72058 0.88972 0.0
C2229 C 0.79587 0.71093 0.90987 0.0
C2230 C 0.79769 0.78462 0.91342 0.0
C2231 C 0.80119 0.70494 0.86768 0.0
C2232 C 0.78563 0.76205 0.83187 0.0
C2233 C 0.8063 0.77217 0.82668 0.0
C2234 C 0.78304 0.75368 0.85274 0.0
C2235 C 0.80157 0.75491 0.86869 0.0
C2236 C 0.82247 0.76508 0.86339 0.0
C2237 C 0.82453 0.77378 0.84268 0.0
C2238 C 0.76042 0.74356 0.85777 0.0
C2239 C 0.84277 0.76704 0.87967 0.0
H2240 H 0.79263 0.7596 0.94765 0.0
H2241 H 0.79546 0.69245 0.90905 0.0
H2242 H 0.81175 0.79367 0.90583 0.0
H2243 H 0.78275 0.78632 0.90335 0.0
H2244 H 0.79867 0.79386 0.93166 0.0
H2245 H 0.79904 0.68625 0.86944 0.0
H2246 H 0.78923 0.70573 0.85312 0.0
H2247 H 0.81764 0.71139 0.86295 0.0
H2248 H 0.77141 0.76112 0.81983 0.0
H2249 H 0.84054 0.78184 0.83895 0.0
H2250 H 0.75776 0.75329 0.87462 0.0
H2251 H 0.75853 0.72485 0.85928 0.0
H2252 H 0.74766 0.7445 0.84406 0.0
H2253 H 0.84351 0.78039 0.89555 0.0
H2254 H 0.85777 0.77241 0.87167 0.0
H2255 H 0.84253 0.74999 0.8851 0.0
C2256 C 0.8456 0.08633 0.02519 0.0
C2257 C 0.84005 0.10674 0.02086 0.0
C2258 C 0.8621 0.0787 0.01459 0.0
C2259 C 0.87308 0.09197 0.99947 0.0
C2260 C 0.86676 0.11185 0.99407 0.0
C2261 C 0.85035 0.1191 0.00496 0.0
C2262 C 0.8684 0.05713 0.02047 0.0
C2263 C 0.8771 0.12541 0.97677 0.0
C2264 C 0.93108 0.08932 1.00294 0.0
C2265 C 0.92932 0.06895 0.98617 0.0
C2266 C 0.91293 0.09812 0.00652 0.0
C2267 C 0.89306 0.08688 0.99216 0.0
C2268 C 0.89204 0.06883 0.97292 0.0
C2269 C 0.91013 0.05958 0.97045 0.0
C2270 C 0.91457 0.11819 0.02671 0.0
C2271 C 0.87141 0.05795 0.95622 0.0
H2272 H 0.83724 0.07647 0.03698 0.0
H2273 H 0.84554 0.13446 1.00077 0.0
H2274 H 0.86994 0.04505 0.00453 0.0
H2275 H 0.88446 0.06265 0.03148 0.0
H2276 H 0.85638 0.0472 0.02996 0.0
H2277 H 0.87369 0.14312 0.97843 0.0
H2278 H 0.89496 0.12768 0.97869 0.0
H2279 H 0.87039 0.11538 0.95896 0.0
H2280 H 0.94623 0.09743 0.01429 0.0
H2281 H 0.90858 0.04401 0.95721 0.0
H2282 H 0.90372 0.11209 0.03929 0.0
H2283 H 0.90913 0.13283 0.02053 0.0
H2284 H 0.93139 0.12518 0.03596 0.0
H2285 H 0.86019 0.04517 0.96399 0.0
H2286 H 0.87473 0.04843 0.93956 0.0
H2287 H 0.86298 0.07164 0.95256 0.0
C2288 C 0.4052 0.43646 0.04203 0.0
C2289 C 0.3886 0.44041 0.02697 0.0
C2290 C 0.4274 0.44734 0.04149 0.0
C2291 C 0.43322 0.46264 0.0257 0.0
C2292 C 0.41657 0.46545 0.00965 0.0
C2293 C 0.39476 0.45433 0.01042 0.0
C2294 C 0.44464 0.443 0.05826 0.0
C2295 C 0.42168 0.48077 0.99189 0.0
C2296 C 0.48351 0.51463 0.04352 0.0
C2297 C 0.49819 0.50826 0.02881 0.0
C2298 C 0.46259 0.49991 0.04269 0.0
C2299 C 0.45613 0.47765 0.02733 0.0
C2300 C 0.47103 0.47093 0.0126 0.0
C2301 C 0.49169 0.48641 0.01331 0.0
C2302 C 0.44708 0.50859 0.05782 0.0
C2303 C 0.46546 0.44719 0.99642 0.0
H2304 H 0.40086 0.4255 0.05463 0.0
H2305 H 0.38233 0.45697 0.99805 0.0
H2306 H 0.45873 0.44015 0.04944 0.0
H2307 H 0.45061 0.45875 0.07242 0.0
H2308 H 0.43832 0.42749 0.06609 0.0
H2309 H 0.40678 0.48259 0.98179 0.0
H2310 H 0.43149 0.49864 1.0005 0.0
H2311 H 0.43145 0.473 0.97956 0.0
H2312 H 0.48816 0.53157 0.05537 0.0
H2313 H 0.50284 0.48127 1.00186 0.0
H2314 H 0.44208 0.49625 0.06961 0.0
H2315 H 0.43216 0.50909 0.04683 0.0
H2316 H 0.45432 0.5265 0.06847 0.0
H2317 H 0.46688 0.43346 0.0067 0.0
H2318 H 0.47657 0.44649 0.98303 0.0
H2319 H 0.44849 0.44263 0.98762 0.0
C2320 C 0.40711 0.65687 0.76634 0.0
C2321 C 0.39564 0.63261 0.76068 0.0
C2322 C 0.39662 0.67633 0.76755 0.0
C2323 C 0.37341 0.67267 0.76343 0.0
C2324 C 0.36176 0.64825 0.75805 0.0
C2325 C 0.37267 0.62914 0.7566 0.0
C2326 C 0.41073 0.70117 0.77354 0.0
C2327 C 0.33731 0.64208 0.75351 0.0
C2328 C 0.34328 0.72355 0.78508 0.0
C2329 C 0.33847 0.733 0.7652 0.0
C2330 C 0.35454 0.7048 0.78489 0.0
C2331 C 0.36149 0.69383 0.76422 0.0
C2332 C 0.35661 0.70334 0.74413 0.0
C2333 C 0.34566 0.72234 0.7449 0.0
C2334 C 0.35911 0.69675 0.80727 0.0
C2335 C 0.36329 0.69352 0.72144 0.0
H2336 H 0.42468 0.66086 0.76975 0.0
H2337 H 0.36288 0.61112 0.75224 0.0
H2338 H 0.40547 0.71207 0.76167 0.0
H2339 H 0.40903 0.70934 0.79142 0.0
H2340 H 0.42816 0.70171 0.77267 0.0
H2341 H 0.33012 0.62294 0.75221 0.0
H2342 H 0.3307 0.65216 0.76755 0.0
H2343 H 0.33209 0.64712 0.73703 0.0
H2344 H 0.33824 0.73095 0.80114 0.0
H2345 H 0.34262 0.72883 0.72921 0.0
H2346 H 0.37694 0.70055 0.81233 0.0
H2347 H 0.35256 0.67739 0.80487 0.0
H2348 H 0.35197 0.70565 0.82164 0.0
H2349 H 0.38128 0.69858 0.72271 0.0
H2350 H 0.35637 0.70015 0.70671 0.0
H2351 H 0.35809 0.67395 0.71766 0.0
C2352 C 0.20885 0.62823 0.50307 0.0
C2353 C 0.22459 0.61677 0.50957 0.0
C2354 C 0.18719 0.61877 0.50464 0.0
C2355 C 0.18164 0.59773 0.51326 0.0
C2356 C 0.19736 0.58561 0.51906 0.0
C2357 C 0.21887 0.5952 0.51676 0.0
C2358 C 0.17039 0.63162 0.49778 0.0
C2359 C 0.19157 0.56295 0.52809 0.0
C2360 C 0.12837 0.59047 0.53618 0.0
C2361 C 0.11478 0.57625 0.51665 0.0
C2362 C 0.15076 0.59663 0.53589 0.0
C2363 C 0.15912 0.58829 0.51559 0.0
C2364 C 0.14556 0.57297 0.49637 0.0
C2365 C 0.12349 0.56697 0.49727 0.0
C2366 C 0.16535 0.61266 0.55679 0.0
C2367 C 0.1541 0.56401 0.47436 0.0
H2368 H 0.21359 0.6449 0.4974 0.0
H2369 H 0.2313 0.58654 0.52182 0.0
H2370 H 0.15699 0.61945 0.48508 0.0
H2371 H 0.16317 0.63802 0.51328 0.0
H2372 H 0.1774 0.64697 0.49003 0.0
H2373 H 0.20621 0.55821 0.53565 0.0
H2374 H 0.18058 0.56436 0.54151 0.0
H2375 H 0.18285 0.54832 0.51367 0.0
H2376 H 0.12152 0.59701 0.55137 0.0
H2377 H 0.11315 0.55488 0.48266 0.0
H2378 H 0.17181 0.63025 0.55261 0.0
H2379 H 0.17947 0.60551 0.56138 0.0
H2380 H 0.15662 0.61499 0.57212 0.0
H2381 H 0.15975 0.5789 0.4655 0.0
H2382 H 0.14151 0.55018 0.46207 0.0
H2383 H 0.16819 0.55667 0.47838 0.0
C2384 C 0.73313 0.00995 0.76236 0.0
C2385 C 0.71043 1.00421 0.75909 0.0
C2386 C 0.74418 0.99554 0.77228 0.0
C2387 C 0.73201 0.97495 0.77842 0.0
C2388 C 0.70916 0.97 0.77662 0.0
C2389 C 0.69862 0.98491 0.76709 0.0
C2390 C 0.7687 1.00137 0.77459 0.0
C2391 C 0.69566 0.94856 0.78376 0.0
C2392 C 0.7562 0.92347 0.76533 0.0
C2393 C 0.76377 0.92117 0.78765 0.0
C2394 C 0.74521 0.9406 0.76225 0.0
C2395 C 0.74269 0.95641 0.78198 0.0
C2396 C 0.75011 0.95428 0.80455 0.0
C2397 C 0.76036 0.9363 0.80718 0.0
C2398 C 0.73649 0.94189 0.73789 0.0
C2399 C 0.74768 0.97125 0.82573 0.0
H2400 H 0.74223 0.02527 0.75668 0.0
H2401 H 0.68103 0.981 0.76534 0.0
H2402 H 0.77566 0.99783 0.79117 0.0
H2403 H 0.77378 0.99004 0.76023 0.0
H2404 H 0.77568 0.02011 0.77378 0.0
H2405 H 0.67841 0.94427 0.77575 0.0
H2406 H 0.70206 0.93276 0.77902 0.0
H2407 H 0.696 0.95223 0.80288 0.0
H2408 H 0.75924 0.91223 0.75013 0.0
H2409 H 0.76592 0.93429 0.82445 0.0
H2410 H 0.7449 0.95881 0.73353 0.0
H2411 H 0.7189 0.94129 0.7367 0.0
H2412 H 0.7387 0.92719 0.72465 0.0
H2413 H 0.75702 0.98933 0.8252 0.0
H2414 H 0.75354 0.96647 0.84214 0.0
H2415 H 0.73042 0.97176 0.82582 0.0
C2416 C 0.74693 0.90908 0.50214 0.0
C2417 C 0.75822 0.91515 0.52477 0.0
C2418 C 0.72931 0.91861 0.49608 0.0
C2419 C 0.72241 0.9341 0.51325 0.0
C2420 C 0.73348 0.93971 0.53625 0.0
C2421 C 0.75145 0.93056 0.5416 0.0
C2422 C 0.7188 0.91282 0.47112 0.0
C2423 C 0.72628 0.95544 0.5553 0.0
C2424 C 0.69246 0.98051 0.50145 0.0
C2425 C 0.67128 0.97047 0.50549 0.0
C2426 C 0.70887 0.96819 0.50231 0.0
C2427 C 0.7042 0.94528 0.5075 0.0
C2428 C 0.68252 0.93439 0.50992 0.0
C2429 C 0.66638 0.94712 0.50898 0.0
C2430 C 0.73153 0.98015 0.4987 0.0
C2431 C 0.6765 0.90953 0.51418 0.0
H2432 H 0.75233 0.89743 0.48896 0.0
H2433 H 0.76006 0.93519 0.5591 0.0
H2434 H 0.70098 0.91073 0.46981 0.0
H2435 H 0.72557 0.92754 0.46247 0.0
H2436 H 0.72204 0.89646 0.46147 0.0
H2437 H 0.7363 0.9578 0.57235 0.0
H2438 H 0.72728 0.97306 0.55088 0.0
H2439 H 0.70905 0.94778 0.55697 0.0
H2440 H 0.69653 0.99849 0.49867 0.0
H2441 H 0.64996 0.93889 0.5114 0.0
H2442 H 0.73768 0.96835 0.4857 0.0
H2443 H 0.74267 0.98382 0.5152 0.0
H2444 H 0.73216 0.99705 0.49276 0.0
H2445 H 0.68051 0.89727 0.49978 0.0
H2446 H 0.65893 0.90351 0.51558 0.0
H2447 H 0.6861 0.90836 0.53041 0.0
C2448 C 0.37347 0.4688 0.74439 0.0
C2449 C 0.39489 0.47843 0.75595 0.0
C2450 C 0.36116 0.44549 0.74554 0.0
C2451 C 0.36973 0.43098 0.75919 0.0
C2452 C 0.39113 0.44101 0.7713 0.0
C2453 C 0.40327 0.46382 0.76915 0.0
C2454 C 0.33888 0.4362 0.73169 0.0
C2455 C 0.40162 0.42757 0.78658 0.0
C2456 C 0.32824 0.38106 0.77957 0.0
C2457 C 0.32976 0.35964 0.76585 0.0
C2458 C 0.3413 0.40367 0.77804 0.0
C2459 C 0.35625 0.40606 0.76156 0.0
C2460 C 0.35812 0.38443 0.74772 0.0
C2461 C 0.34518 0.36182 0.75009 0.0
C2462 C 0.33897 0.42522 0.79429 0.0
C2463 C 0.37313 0.38517 0.72945 0.0
H2464 H 0.36653 0.4791 0.73365 0.0
H2465 H 0.41974 0.47037 0.77808 0.0
H2466 H 0.33668 0.41765 0.72262 0.0
H2467 H 0.32638 0.43637 0.74356 0.0
H2468 H 0.33597 0.447 0.71864 0.0
H2469 H 0.41587 0.43923 0.79856 0.0
H2470 H 0.38985 0.41878 0.79701 0.0
H2471 H 0.40729 0.41367 0.77556 0.0
H2472 H 0.31641 0.3802 0.79166 0.0
H2473 H 0.34643 0.34593 0.73873 0.0
H2474 H 0.33247 0.43689 0.78423 0.0
H2475 H 0.35514 0.43542 0.80364 0.0
H2476 H 0.32796 0.42066 0.80724 0.0
H2477 H 0.36669 0.39307 0.71542 0.0
H2478 H 0.37475 0.36731 0.72177 0.0
H2479 H 0.3895 0.39651 0.73682 0.0
C2480 C 0.18843 0.63912 0.23327 0.0
C2481 C 0.18551 0.62462 0.2495 0.0
C2482 C 0.20443 0.66015 0.23858 0.0
C2483 C 0.21692 0.66659 0.2608 0.0
C2484 C 0.21225 0.65332 0.27815 0.0
C2485 C 0.19659 0.63198 0.27211 0.0
C2486 C 0.20935 0.6742 0.21976 0.0
C2487 C 0.22474 0.6609 0.30235 0.0
C2488 C 0.27288 0.70039 0.25689 0.0
C2489 C 0.26994 0.72304 0.26199 0.0
C2490 C 0.25594 0.68141 0.25827 0.0
C2491 C 0.23617 0.68592 0.26476 0.0
C2492 C 0.23388 0.70905 0.27123 0.0
C2493 C 0.25081 0.72745 0.2693 0.0
C2494 C 0.2588 0.65667 0.25182 0.0
C2495 C 0.21322 0.71447 0.27867 0.0
H2496 H 0.17979 0.63292 0.2158 0.0
H2497 H 0.19391 0.6204 0.2845 0.0
H2498 H 0.20966 0.69298 0.2261 0.0
H2499 H 0.22567 0.67357 0.21497 0.0
H2500 H 0.19725 0.66732 0.20389 0.0
H2501 H 0.21859 0.64872 0.31395 0.0
H2502 H 0.24222 0.6617 0.30166 0.0
H2503 H 0.22365 0.67892 0.31011 0.0
H2504 H 0.28817 0.69762 0.25181 0.0
H2505 H 0.24902 0.74538 0.27326 0.0
H2506 H 0.24788 0.64732 0.23559 0.0
H2507 H 0.25424 0.64664 0.2656 0.0
H2508 H 0.27579 0.65651 0.24912 0.0
H2509 H 0.20169 0.71338 0.26303 0.0
H2510 H 0.21642 0.73256 0.2893 0.0
H2511 H 0.20524 0.70167 0.28881 0.0
C2512 C 0.54248 0.708 0.46977 0.0
C2513 C 0.52258 0.70536 0.45588 0.0
C2514 C 0.54726 0.68928 0.47959 0.0
C2515 C 0.53154 0.66738 0.47615 0.0
C2516 C 0.51108 0.66498 0.46297 0.0
C2517 C 0.50702 0.68373 0.45267 0.0
C2518 C 0.56951 0.69268 0.49286 0.0
C2519 C 0.49333 0.64258 0.45991 0.0
C2520 C 0.5484 0.60957 0.47838 0.0
C2521 C 0.54495 0.60606 0.50075 0.0
C2522 C 0.54471 0.62968 0.47052 0.0
C2523 C 0.5368 0.64659 0.48512 0.0
C2524 C 0.53342 0.64308 0.50789 0.0
C2525 C 0.53779 0.62303 0.5155 0.0
C2526 C 0.54911 0.63272 0.44639 0.0
C2527 C 0.52505 0.66037 0.52421 0.0
H2528 H 0.55474 0.72451 0.47224 0.0
H2529 H 0.49153 0.68152 0.44224 0.0
H2530 H 0.5682 0.687 0.50973 0.0
H2531 H 0.57859 0.68151 0.48279 0.0
H2532 H 0.57909 0.71133 0.49613 0.0
H2533 H 0.47864 0.643 0.44848 0.0
H2534 H 0.49925 0.6271 0.45246 0.0
H2535 H 0.48866 0.63996 0.47712 0.0
H2536 H 0.55402 0.59649 0.46699 0.0
H2537 H 0.53513 0.62035 0.53283 0.0
H2538 H 0.56037 0.65018 0.44716 0.0
H2539 H 0.53374 0.63224 0.43565 0.0
H2540 H 0.5563 0.61875 0.43765 0.0
H2541 H 0.53789 0.67702 0.53002 0.0
H2542 H 0.52024 0.65345 0.53982 0.0
H2543 H 0.51084 0.66473 0.51527 0.0
C2544 C 0.65307 0.30652 0.67777 0.0
C2545 C 0.65525 0.31385 0.65646 0.0
C2546 C 0.67028 0.30051 0.6904 0.0
C2547 C 0.69071 0.30245 0.68207 0.0
C2548 C 0.69285 0.30931 0.6603 0.0
C2549 C 0.67516 0.31465 0.64773 0.0
C2550 C 0.66664 0.2928 0.71309 0.0
C2551 C 0.7141 0.31154 0.65052 0.0
C2552 C 0.74138 0.319 0.72755 0.0
C2553 C 0.74773 0.29773 0.72705 0.0
C2554 C 0.72312 0.32055 0.71316 0.0
C2555 C 0.71046 0.30036 0.69731 0.0
C2556 C 0.71687 0.27872 0.69631 0.0
C2557 C 0.73539 0.27763 0.71119 0.0
C2558 C 0.71721 0.34399 0.71528 0.0
C2559 C 0.70369 0.25654 0.68017 0.0
H2560 H 0.63777 0.30539 0.68467 0.0
H2561 H 0.67711 0.31994 0.63121 0.0
H2562 H 0.67536 0.2791 0.71586 0.0
H2563 H 0.67292 0.3082 0.72756 0.0
H2564 H 0.64908 0.28572 0.71388 0.0
H2565 H 0.71332 0.317 0.63343 0.0
H2566 H 0.72721 0.32471 0.66276 0.0
H2567 H 0.71867 0.29442 0.64847 0.0
H2568 H 0.75064 0.3347 0.73969 0.0
H2569 H 0.7398 0.26099 0.71082 0.0
H2570 H 0.70087 0.34234 0.72084 0.0
H2571 H 0.71648 0.34935 0.69816 0.0
H2572 H 0.729 0.35822 0.728 0.0
H2573 H 0.68799 0.25051 0.68666 0.0
H2574 H 0.71222 0.24209 0.6789 0.0
H2575 H 0.69989 0.25997 0.66254 0.0
C2576 C 0.02228 0.34982 0.97166 0.0
C2577 C 0.03256 0.34722 0.95169 0.0
C2578 C 0.02368 0.37244 0.98481 0.0
C2579 C 0.03544 0.39271 0.97766 0.0
C2580 C 0.0468 0.39003 0.9583 0.0
C2581 C 0.04535 0.3674 0.94574 0.0
C2582 C 0.01197 0.37476 0.00583 0.0
C2583 C 0.06004 0.41112 0.9504 0.0
C2584 C 0.02015 0.45135 0.98931 0.0
C2585 C 0.03771 0.46507 0.00559 0.0
C2586 C 0.01867 0.42736 0.98087 0.0
C2587 C 0.03495 0.41687 0.98923 0.0
C2588 C 0.05208 0.43046 0.00655 0.0
C2589 C 0.05323 0.45439 0.0145 0.0
C2590 C 1.00056 0.41368 0.96183 0.0
C2591 C 0.06954 0.41999 0.01635 0.0
H2592 H 0.0125 0.33435 0.97649 0.0
H2593 H 0.05383 0.36559 0.93069 0.0
H2594 H 0.02306 0.38667 0.02087 0.0
H2595 H 0.99822 0.38281 1.00231 0.0
H2596 H 0.00551 0.35744 0.01061 0.0
H2597 H 0.06666 0.40603 0.93405 0.0
H2598 H 0.04996 0.42365 0.94762 0.0
H2599 H 0.07384 0.42064 0.96403 0.0
H2600 H 0.00824 0.45963 0.9822 0.0
H2601 H 0.06668 0.46495 0.02732 0.0
H2602 H 0.99205 0.39699 0.96654 0.0
H2603 H 0.0075 0.4089 0.94563 0.0
H2604 H 0.98848 0.42391 0.95823 0.0
H2605 H 0.06245 0.40764 0.02736 0.0
H2606 H 0.08332 0.43373 0.0271 0.0
H2607 H 0.076 0.40977 1.0023 0.0
C2608 C 0.01841 0.81165 0.15985 0.0
C2609 C 0.02547 0.79325 0.14729 0.0
C2610 C 0.99742 0.80769 0.16648 0.0
C2611 C 0.9831 0.78483 0.16022 0.0
C2612 C 0.98972 0.7666 0.1461 0.0
C2613 C 0.01093 0.77097 0.14004 0.0
C2614 C 0.99114 0.82761 0.18161 0.0
C2615 C 0.97473 0.74226 0.13817 0.0
C2616 C 0.94487 0.77114 0.20467 0.0
C2617 C 0.9258 0.77613 0.19522 0.0
C2618 C 0.96313 0.77265 0.19281 0.0
C2619 C 0.96255 0.77951 0.17095 0.0
C2620 C 0.94292 0.78307 0.1606 0.0
C2621 C 0.92485 0.78142 0.17286 0.0
C2622 C 0.98343 0.76788 0.20419 0.0
C2623 C 0.94125 0.78974 0.13707 0.0
H2624 H 0.02974 0.82878 0.16566 0.0
H2625 H 0.01643 0.75673 0.13027 0.0
H2626 H 0.9747 0.8289 0.17496 0.0
H2627 H 0.9906 0.82402 0.19943 0.0
H2628 H 1.00285 0.84487 0.1826 0.0
H2629 H 0.98266 0.72975 0.12812 0.0
H2630 H 0.96909 0.73502 0.1533 0.0
H2631 H 0.9601 0.74332 0.12709 0.0
H2632 H 0.94599 0.76714 0.22191 0.0
H2633 H 0.91007 0.78476 0.16507 0.0
H2634 H 0.99668 0.78432 0.20818 0.0
H2635 H 0.98896 0.75459 0.19219 0.0
H2636 H 0.98089 0.76135 0.22053 0.0
H2637 H 0.94932 0.80872 0.13887 0.0
H2638 H 0.92405 0.78678 0.12933 0.0
H2639 H 0.94958 0.77955 0.12493 0.0
C2640 C 0.53665 0.32496 0.1197 0.0
C2641 C 0.51647 0.31032 0.10899 0.0
C2642 C 0.5473 0.34355 0.10997 0.0
C2643 C 0.53688 0.34826 0.08976 0.0
C2644 C 0.51656 0.33331 0.07874 0.0
C2645 C 0.50683 0.31407 0.08824 0.0
C2646 C 0.56943 0.35821 0.12166 0.0
C2647 C 0.50491 0.3378 0.05713 0.0
C2648 C 0.54768 0.41047 0.07917 0.0
C2649 C 0.5575 0.40823 0.05886 0.0
C2650 C 0.54165 0.39127 0.09005 0.0
C2651 C 0.54633 0.36962 0.08088 0.0
C2652 C 0.55835 0.36799 0.06198 0.0
C2653 C 0.56347 0.38721 0.05088 0.0
C2654 C 0.5292 0.39378 0.11053 0.0
C2655 C 0.56525 0.34576 0.05313 0.0
H2656 H 0.54434 0.3216 0.13554 0.0
H2657 H 0.49136 0.30246 0.07992 0.0
H2658 H 0.57972 0.36515 0.10899 0.0
H2659 H 0.5675 0.37343 0.13434 0.0
H2660 H 0.57813 0.34778 0.13133 0.0
H2661 H 0.48796 0.32672 0.05282 0.0
H2662 H 0.50449 0.35663 0.05923 0.0
H2663 H 0.51375 0.33376 0.04222 0.0
H2664 H 0.54386 0.42697 0.08603 0.0
H2665 H 0.5712 0.38527 0.03532 0.0
H2666 H 0.53822 0.39012 0.1259 0.0
H2667 H 0.51321 0.3807 0.1066 0.0
H2668 H 0.52643 0.41172 0.11514 0.0
H2669 H 0.57451 0.34085 0.06759 0.0
H2670 H 0.57554 0.34783 0.03905 0.0
H2671 H 0.55077 0.33093 0.04646 0.0
C2672 C 0.04586 0.34131 0.32116 0.0
C2673 C 0.05324 0.32877 0.33693 0.0
C2674 C 0.02384 0.33654 0.31273 0.0
C2675 C 0.00896 0.31858 0.32009 0.0
C2676 C 0.0163 0.3055 0.33568 0.0
C2677 C 0.03847 0.31083 0.34404 0.0
C2678 C 0.01644 0.35143 0.29677 0.0
C2679 C 1.00076 0.286 0.34353 0.0
C2680 C 0.95209 0.32651 0.31783 0.0
C2681 C 0.94252 0.31248 0.29624 0.0
C2682 C 0.97363 0.32804 0.32617 0.0
C2683 C 0.98557 0.31485 0.31268 0.0
C2684 C 0.97564 0.2998 0.2913 0.0
C2685 C 0.95414 0.29903 0.28311 0.0
C2686 C 0.98384 0.34448 0.34893 0.0
C2687 C 0.98797 0.28526 0.27679 0.0
H2688 H 0.05724 0.35537 0.31585 0.0
H2689 H 0.04423 0.30097 0.35611 0.0
H2690 H 0.00588 0.34007 0.2811 0.0
H2691 H 0.00668 0.36248 0.30585 0.0
H2692 H 0.0303 0.36326 0.29116 0.0
H2693 H 0.00872 0.2793 0.35762 0.0
H2694 H 0.98674 0.29217 0.34974 0.0
H2695 H 0.99418 0.27112 0.32859 0.0
H2696 H 0.94294 0.33704 0.32773 0.0
H2697 H 0.94647 0.2882 0.26642 0.0
H2698 H 0.99759 0.35842 0.34598 0.0
H2699 H 0.99051 0.33462 0.36101 0.0
H2700 H 0.97207 0.35311 0.35745 0.0
H2701 H 1.00103 0.2971 0.27012 0.0
H2702 H 0.97727 0.27277 0.26179 0.0
H2703 H 0.99587 0.2751 0.28755 0.0
C2704 C 0.98864 0.67129 0.59142 0.0
C2705 C 1.00151 0.682 0.61263 0.0
C2706 C 0.9951 0.65422 0.57614 0.0
C2707 C 0.01498 0.64856 0.58232 0.0
C2708 C 0.02816 0.65975 0.60354 0.0
C2709 C 0.02113 0.67627 0.61856 0.0
C2710 C 0.98072 0.64215 0.55357 0.0
C2711 C 0.04982 0.65461 0.61022 0.0
C2712 C 0.02224 0.58988 0.55393 0.0
C2713 C 0.03545 0.59654 0.53739 0.0
C2714 C 0.01564 0.60683 0.56898 0.0
C2715 C 0.02201 0.63067 0.56677 0.0
C2716 C 0.03554 0.6375 0.55021 0.0
C2717 C 0.04227 0.62022 0.53572 0.0
C2718 C 1.00179 0.59927 0.5871 0.0
C2719 C 0.04235 0.66285 0.54733 0.0
H2720 H 0.97356 0.67606 0.58699 0.0
H2721 H 0.03132 0.68522 0.63478 0.0
H2722 H 0.99013 0.64373 0.53876 0.0
H2723 H 0.97481 0.62304 0.55348 0.0
H2724 H 0.96644 0.64961 0.55079 0.0
H2725 H 0.05705 0.66336 0.62831 0.0
H2726 H 0.04802 0.63533 0.60844 0.0
H2727 H 0.06137 0.66093 0.59838 0.0
H2728 H 0.01668 0.57142 0.55478 0.0
H2729 H 0.05249 0.62517 0.52277 0.0
H2730 H 0.98585 0.60356 0.58413 0.0
H2731 H 0.00976 0.60908 0.60463 0.0
H2732 H 0.99893 0.58006 0.58692 0.0
H2733 H 0.02792 0.66824 0.54028 0.0
H2734 H 0.05476 0.66543 0.53534 0.0
H2735 H 0.049 0.67478 0.56431 0.0
C2736 C 0.68592 0.8195 0.86082 0.0
C2737 C 0.66488 0.82022 0.85258 0.0
C2738 C 0.70026 0.81454 0.84516 0.0
C2739 C 0.69305 0.81005 0.82101 0.0
C2740 C 0.67198 0.81112 0.81268 0.0
C2741 C 0.65821 0.81637 0.82859 0.0
C2742 C 0.72303 0.81409 0.85433 0.0
C2743 C 0.66365 0.80589 0.78702 0.0
C2744 C 0.73538 0.81736 0.781 0.0
C2745 C 0.73798 0.79436 0.77567 0.0
C2746 C 0.72062 0.82272 0.7957 0.0
C2747 C 0.70758 0.80437 0.8043 0.0
C2748 C 0.70844 0.78069 0.797 0.0
C2749 C 0.72385 0.77592 0.78277 0.0
C2750 C 0.71982 0.84816 0.803 0.0
C2751 C 0.69407 0.76066 0.80534 0.0
H2752 H 0.69105 0.8226 0.87935 0.0
H2753 H 0.64189 0.81682 0.82205 0.0
H2754 H 0.72633 0.7969 0.84715 0.0
H2755 H 0.73496 0.828 0.8486 0.0
H2756 H 0.72576 0.81701 0.87358 0.0
H2757 H 0.64805 0.81082 0.78348 0.0
H2758 H 0.67565 0.81537 0.77726 0.0
H2759 H 0.66102 0.78672 0.78012 0.0
H2760 H 0.74594 0.83152 0.77505 0.0
H2761 H 0.72572 0.75804 0.77851 0.0
H2762 H 0.72431 0.85384 0.82207 0.0
H2763 H 0.70308 0.85002 0.79872 0.0
H2764 H 0.73101 0.86025 0.79447 0.0
H2765 H 0.69901 0.76205 0.82415 0.0
H2766 H 0.69509 0.74312 0.796 0.0
H2767 H 0.67688 0.76172 0.80306 0.0
C2768 C 0.49062 0.55928 0.68861 0.0
C2769 C 0.46862 0.56079 0.68758 0.0
C2770 C 0.5019 0.55713 0.66843 0.0
C2771 C 0.49171 0.55701 0.64565 0.0
C2772 C 0.46961 0.55879 0.64462 0.0
C2773 C 0.45857 0.56029 0.66495 0.0
C2774 C 0.52505 0.55506 0.67182 0.0
C2775 C 0.45741 0.55934 0.6217 0.0
C2776 C 0.52879 0.57554 0.59794 0.0
C2777 C 0.52685 0.55458 0.58132 0.0
C2778 C 0.51754 0.57657 0.61803 0.0
C2779 C 0.50399 0.55593 0.62336 0.0
C2780 C 0.50237 0.53448 0.60697 0.0
C2781 C 0.51334 0.53409 0.58647 0.0
C2782 C 0.52052 0.60014 0.63388 0.0
C2783 C 0.48999 0.51139 0.6118 0.0
H2784 H 0.4992 0.55953 0.7054 0.0
H2785 H 0.4418 0.56138 0.66303 0.0
H2786 H 0.52866 0.54328 0.65674 0.0
H2787 H 0.53622 0.57275 0.67367 0.0
H2788 H 0.52856 0.54822 0.68778 0.0
H2789 H 0.44146 0.56346 0.62366 0.0
H2790 H 0.46719 0.57269 0.61325 0.0
H2791 H 0.45456 0.54192 0.60994 0.0
H2792 H 0.53951 0.5916 0.59528 0.0
H2793 H 0.51214 0.51737 0.57505 0.0
H2794 H 0.53 0.60035 0.65065 0.0
H2795 H 0.5045 0.60314 0.63756 0.0
H2796 H 0.52924 0.61496 0.62637 0.0
H2797 H 0.49892 0.50731 0.62702 0.0
H2798 H 0.488 0.49659 0.59681 0.0
H2799 H 0.47371 0.51258 0.61627 0.0
C2800 C 0.78798 0.20939 0.97237 0.0
C2801 C 0.78709 0.18549 0.97096 0.0
C2802 C 0.7771 0.21681 0.9546 0.0
C2803 C 0.76495 0.19972 0.93542 0.0
C2804 C 0.76275 0.17546 0.93468 0.0
C2805 C 0.77423 0.16859 0.95236 0.0
C2806 C 0.77969 0.24293 0.95567 0.0
C2807 C 0.74955 0.15688 0.91453 0.0
C2808 C 0.73614 0.22464 0.89119 0.0
C2809 C 0.75231 0.22889 0.87693 0.0
C2810 C 0.73934 0.21364 0.90986 0.0
C2811 C 0.75925 0.20745 0.91411 0.0
C2812 C 0.77508 0.21058 0.89894 0.0
C2813 C 0.77135 0.22129 0.88043 0.0
C2814 C 0.72195 0.20945 0.92544 0.0
C2815 C 0.79664 0.20429 0.90317 0.0
H2816 H 0.79735 0.22223 0.98722 0.0
H2817 H 0.77275 0.14993 0.95179 0.0
H2818 H 0.78904 0.24855 0.94177 0.0
H2819 H 0.76356 0.24679 0.95265 0.0
H2820 H 0.78832 0.25368 0.97264 0.0
H2821 H 0.7445 0.13942 0.91953 0.0
H2822 H 0.73482 0.16189 0.90772 0.0
H2823 H 0.75954 0.15499 0.90022 0.0
H2824 H 0.72145 0.23059 0.88813 0.0
H2825 H 0.784 0.22509 0.86953 0.0
H2826 H 0.72832 0.21934 0.94337 0.0
H2827 H 0.71719 0.19046 0.92625 0.0
H2828 H 0.70723 0.21494 0.91932 0.0
H2829 H 0.80613 0.21547 0.91954 0.0
H2830 H 0.80658 0.20685 0.88887 0.0
H2831 H 0.79402 0.18563 0.90508 0.0
C2832 C 0.15317 0.54304 0.14848 0.0
C2833 C 0.14413 0.53603 0.16765 0.0
C2834 C 0.13988 0.54701 0.13018 0.0
C2835 C 0.11768 0.54524 0.1322 0.0
C2836 C 0.109 0.54016 0.15234 0.0
C2837 C 0.12201 0.53411 0.16911 0.0
C2838 C 0.14918 0.55193 0.1084 0.0
C2839 C 0.0856 0.53941 0.15564 0.0
C2840 C 0.08038 0.56252 0.08973 0.0
C2841 C 0.06873 0.54018 0.07772 0.0
C2842 C 0.09707 0.56471 0.10742 0.0
C2843 C 0.10244 0.54401 0.11198 0.0
C2844 C 0.09102 0.52142 0.09923 0.0
C2845 C 0.07383 0.51976 0.08232 0.0
C2846 C 0.10796 0.5888 0.12196 0.0
C2847 C 0.09659 0.49903 0.10383 0.0
H2848 H 0.17034 0.54474 0.14752 0.0
H2849 H 0.11466 0.52811 0.18354 0.0
H2850 H 0.14059 0.5379 0.09337 0.0
H2851 H 0.14663 0.56888 0.10469 0.0
H2852 H 0.16684 0.55277 0.10975 0.0
H2853 H 0.08375 0.54299 0.17436 0.0
H2854 H 0.07943 0.55245 0.14728 0.0
H2855 H 0.07526 0.52157 0.14778 0.0
H2856 H 0.07616 0.57816 0.08549 0.0
H2857 H 0.06486 0.50269 0.07221 0.0
H2858 H 0.12588 0.59203 0.12329 0.0
H2859 H 0.10371 0.5896 0.13985 0.0
H2860 H 0.10289 0.60319 0.11481 0.0
H2861 H 0.11435 0.5008 0.10456 0.0
H2862 H 0.08797 0.48338 0.09034 0.0
H2863 H 0.09198 0.49577 0.12088 0.0
C2864 C 0.81884 0.83747 0.45353 0.0
C2865 C 0.80717 0.85483 0.45734 0.0
C2866 C 0.81914 0.82538 0.43085 0.0
C2867 C 0.80753 0.83084 0.41171 0.0
C2868 C 0.79457 0.84719 0.4157 0.0
C2869 C 0.79453 0.8589 0.4384 0.0
C2870 C 0.8326 0.80754 0.42725 0.0
C2871 C 0.78125 0.85292 0.3959 0.0
C2872 C 0.82724 0.8254 0.35254 0.0
C2873 C 0.81124 0.80622 0.33956 0.0
C2874 C 0.82663 0.83311 0.37631 0.0
C2875 C 0.80997 0.82091 0.38738 0.0
C2876 C 0.79448 0.80075 0.37446 0.0
C2877 C 0.79522 0.79379 0.35067 0.0
C2878 C 0.8429 0.85525 0.38922 0.0
C2879 C 0.77681 0.78677 0.38553 0.0
H2880 H 0.82857 0.83416 0.46807 0.0
H2881 H 0.78506 0.87191 0.44127 0.0
H2882 H 0.8229 0.791 0.41567 0.0
H2883 H 0.84674 0.81453 0.41861 0.0
H2884 H 0.8387 0.80332 0.44387 0.0
H2885 H 0.77321 0.86721 0.40183 0.0
H2886 H 0.79168 0.85838 0.38276 0.0
H2887 H 0.76851 0.83696 0.38716 0.0
H2888 H 0.83937 0.83524 0.3438 0.0
H2889 H 0.78289 0.77888 0.34054 0.0
H2890 H 0.85117 0.85186 0.4052 0.0
H2891 H 0.8343 0.86917 0.39464 0.0
H2892 H 0.85538 0.86209 0.37848 0.0
H2893 H 0.78418 0.77725 0.39745 0.0
H2894 H 0.76437 0.77363 0.37246 0.0
H2895 H 0.76856 0.79857 0.39602 0.0
C2896 C 0.47714 0.57359 0.85119 0.0
C2897 C 0.47695 0.55627 0.83137 0.0
C2898 C 0.48661 0.57249 0.87408 0.0
C2899 C 0.49632 0.55366 0.87797 0.0
C2900 C 0.49581 0.53615 0.8581 0.0
C2901 C 0.48638 0.53766 0.83573 0.0
C2902 C 0.48648 0.59181 0.8942 0.0
C2903 C 0.50533 0.51543 0.86037 0.0
C2904 C 0.53904 0.55955 0.93269 0.0
C2905 C 0.52745 0.54552 0.94671 0.0
C2906 C 0.52932 0.56241 0.9108 0.0
C2907 C 0.50688 0.5518 0.90235 0.0
C2908 C 0.49504 0.53795 0.91676 0.0
C2909 C 0.50536 0.53479 0.93824 0.0
C2910 C 0.54333 0.57675 0.89653 0.0
C2911 C 0.47108 0.52683 0.90981 0.0
H2912 H 0.47027 0.58826 0.84885 0.0
H2913 H 0.48644 0.52372 0.82127 0.0
H2914 H 0.48133 0.58424 0.90935 0.0
H2915 H 0.50319 0.60321 0.89956 0.0
H2916 H 0.47556 0.60299 0.88968 0.0
H2917 H 0.50533 0.50418 0.84329 0.0
H2918 H 0.52227 0.52171 0.86934 0.0
H2919 H 0.49579 0.50437 0.87108 0.0
H2920 H 0.55603 0.56807 0.9387 0.0
H2921 H 0.49588 0.52416 0.94873 0.0
H2922 H 0.53744 0.59268 0.89491 0.0
H2923 H 0.54214 0.56633 0.87875 0.0
H2924 H 0.56068 0.58241 0.90434 0.0
H2925 H 0.46218 0.54095 0.91102 0.0
H2926 H 0.46453 0.51449 0.92111 0.0
H2927 H 0.46774 0.51714 0.89154 0.0
C2928 C 0.77741 0.17664 0.1199 0.0
C2929 C 0.78878 0.18311 0.10187 0.0
C2930 C 0.77651 0.19367 0.13903 0.0
C2931 C 0.78717 0.21748 0.13983 0.0
C2932 C 0.79792 0.22424 0.12131 0.0
C2933 C 0.79871 0.20691 0.10257 0.0
C2934 C 0.76484 0.18616 0.15867 0.0
C2935 C 0.80975 0.24952 0.12185 0.0
C2936 C 0.77896 0.26635 0.18531 0.0
C2937 C 0.79707 0.26899 0.20154 0.0
C2938 C 0.77516 0.24916 0.16499 0.0
C2939 C 0.78997 0.23482 0.16135 0.0
C2940 C 0.80839 0.23774 0.17781 0.0
C2941 C 0.81167 0.25486 0.19785 0.0
C2942 C 0.75551 0.24635 0.14746 0.0
C2943 C 0.82453 0.22271 0.17439 0.0
H2944 H 0.76936 0.15831 0.11916 0.0
H2945 H 0.80732 0.2121 0.08854 0.0
H2946 H 0.77652 0.19022 0.17482 0.0
H2947 H 0.75239 0.19622 0.16205 0.0
H2948 H 0.75678 0.167 0.15494 0.0
H2949 H 0.81336 0.25247 0.10437 0.0
H2950 H 0.80017 0.26195 0.12872 0.0
H2951 H 0.82538 0.25389 0.13354 0.0
H2952 H 0.76766 0.27728 0.18875 0.0
H2953 H 0.82556 0.25707 0.21085 0.0
H2954 H 0.74536 0.22797 0.14428 0.0
H2955 H 0.76075 0.24966 0.13066 0.0
H2956 H 0.74536 0.25861 0.15324 0.0
H2957 H 0.81627 0.20391 0.17343 0.0
H2958 H 0.83835 0.22795 0.18868 0.0
H2959 H 0.83113 0.22405 0.15779 0.0
C2960 C 0.11602 0.55887 0.30111 0.0
C2961 C 0.13642 0.56077 0.29381 0.0
C2962 C 0.1142 0.56779 0.324 0.0
C2963 C 0.13333 0.57906 0.33973 0.0
C2964 C 0.15401 0.58136 0.33245 0.0
C2965 C 0.15535 0.5719 0.30948 0.0
C2966 C 0.09178 0.56467 0.33138 0.0
C2967 C 0.17462 0.59325 0.34895 0.0
C2968 C 0.11515 0.60838 0.39253 0.0
C2969 C 0.11164 0.58962 0.40433 0.0
C2970 C 0.12546 0.60672 0.3726 0.0
C2971 C 0.13136 0.58555 0.36432 0.0
C2972 C 0.13021 0.5679 0.37771 0.0
C2973 C 0.12064 0.57037 0.39783 0.0
C2974 C 0.12774 0.62626 0.35898 0.0
C2975 C 0.13551 0.54462 0.36898 0.0
H2976 H 0.10146 0.55038 0.28891 0.0
H2977 H 0.17121 0.5737 0.30373 0.0
H2978 H 0.09058 0.55477 0.34576 0.0
H2979 H 0.08877 0.58216 0.33787 0.0
H2980 H 0.07873 0.55502 0.31694 0.0
H2981 H 0.18883 0.59792 0.33958 0.0
H2982 H 0.17282 0.6095 0.36023 0.0
H2983 H 0.1781 0.5812 0.36044 0.0
H2984 H 0.10843 0.62337 0.39782 0.0
H2985 H 0.11777 0.55562 0.40672 0.0
H2986 H 0.1152 0.62085 0.34344 0.0
H2987 H 0.14387 0.6297 0.3528 0.0
H2988 H 0.12575 0.64286 0.36947 0.0
H2989 H 0.12222 0.53363 0.35539 0.0
H2990 H 0.13712 0.53459 0.38306 0.0
H2991 H 0.15075 0.54726 0.36107 0.0
C2992 C 0.7997 0.86416 0.61878 0.0
C2993 C 0.80839 0.85355 0.59991 0.0
C2994 C 0.79641 0.85375 0.6384 0.0
C2995 C 0.80265 0.83251 0.63983 0.0
C2996 C 0.81141 0.82165 0.62081 0.0
C2997 C 0.8138 0.83204 0.60099 0.0
C2998 C 0.7863 0.86561 0.65771 0.0
C2999 C 0.8182 0.79896 0.62127 0.0
C3000 C 0.81355 0.82092 0.70146 0.0
C3001 C 0.79428 0.80469 0.70323 0.0
C3002 C 0.81669 0.82957 0.68081 0.0
C3003 C 0.80014 0.82202 0.66135 0.0
C3004 C 0.78078 0.80535 0.66301 0.0
C3005 C 0.7781 0.797 0.68383 0.0
C3006 C 0.83779 0.84684 0.6798 0.0
C3007 C 0.76257 0.7967 0.643 0.0
H3008 H 0.79515 0.88058 0.61809 0.0
H3009 H 0.82038 0.82355 0.58652 0.0
H3010 H 0.77265 0.85269 0.66233 0.0
H3011 H 0.79854 0.87252 0.67343 0.0
H3012 H 0.78011 0.88046 0.65296 0.0
H3013 H 0.82816 0.79503 0.60731 0.0
H3014 H 0.82764 0.79972 0.63827 0.0
H3015 H 0.80352 0.78413 0.61886 0.0
H3016 H 0.82622 0.82685 0.71624 0.0
H3017 H 0.76318 0.78433 0.68488 0.0
H3018 H 0.8346 0.86395 0.67738 0.0
H3019 H 0.84536 0.84017 0.66468 0.0
H3020 H 0.84953 0.84997 0.6958 0.0
H3021 H 0.75464 0.81118 0.64093 0.0
H3022 H 0.75005 0.78138 0.64576 0.0
H3023 H 0.76891 0.79153 0.62654 0.0
C3024 C 0.76601 0.48522 0.52219 0.0
C3025 C 0.76098 0.46106 0.51254 0.0
C3026 C 0.75 0.49588 0.52992 0.0
C3027 C 0.7286 0.48187 0.52803 0.0
C3028 C 0.72356 0.45733 0.51905 0.0
C3029 C 0.73989 0.44716 0.51121 0.0
C3030 C 0.75604 0.52211 0.53977 0.0
C3031 C 0.70075 0.44203 0.51677 0.0
C3032 C 0.68752 0.50807 0.55804 0.0
C3033 C 0.67717 0.51524 0.53955 0.0
C3034 C 0.70445 0.49699 0.55462 0.0
C3035 C 0.71094 0.49334 0.53232 0.0
C3036 C 0.70069 0.50078 0.51372 0.0
C3037 C 0.68381 0.5116 0.51757 0.0
C3038 C 0.71545 0.48932 0.57471 0.0
C3039 C 0.70795 0.49794 0.48994 0.0
H3040 H 0.78246 0.49594 0.52354 0.0
H3041 H 0.73613 0.42842 0.50397 0.0
H3042 H 0.74399 0.53083 0.53266 0.0
H3043 H 0.75626 0.525 0.55886 0.0
H3044 H 0.77237 0.5309 0.53612 0.0
H3045 H 0.70031 0.42293 0.51303 0.0
H3046 H 0.69345 0.44599 0.53288 0.0
H3047 H 0.69049 0.44585 0.50239 0.0
H3048 H 0.68231 0.51106 0.57504 0.0
H3049 H 0.67609 0.51774 0.50349 0.0
H3050 H 0.73282 0.49906 0.57847 0.0
H3051 H 0.71494 0.47026 0.57011 0.0
H3052 H 0.70776 0.49252 0.5907 0.0
H3053 H 0.72497 0.50839 0.49114 0.0
H3054 H 0.6976 0.50389 0.47716 0.0
H3055 H 0.70763 0.47921 0.48327 0.0
C3056 C 0.19667 0.15416 0.48857 0.0
C3057 C 0.21573 0.14621 0.49125 0.0
C3058 C 0.17632 0.14034 0.49173 0.0
C3059 C 0.17486 0.11817 0.49834 0.0
C3060 C 0.19424 0.11055 0.502 0.0
C3061 C 0.21424 0.1244 0.49808 0.0
C3062 C 0.15626 0.14932 0.48761 0.0
C3063 C 0.19392 0.08743 0.50951 0.0
C3064 C 0.1225 0.08856 0.52079 0.0
C3065 C 0.11129 0.07203 0.501 0.0
C3066 C 0.14319 0.10356 0.52034 0.0
C3067 C 0.15294 0.10223 0.49957 0.0
C3068 C 0.14158 0.08555 0.47963 0.0
C3069 C 0.12107 0.07082 0.48059 0.0
C3070 C 0.15479 0.1206 0.54219 0.0
C3071 C 0.15105 0.0833 0.45708 0.0
H3072 H 0.19757 0.17104 0.48351 0.0
H3073 H 0.22882 0.11814 0.50057 0.0
H3074 H 0.14401 0.13621 0.47437 0.0
H3075 H 0.14883 0.15165 0.50384 0.0
H3076 H 0.15986 0.16642 0.4817 0.0
H3077 H 0.21033 0.08678 0.51706 0.0
H3078 H 0.1826 0.08432 0.52249 0.0
H3079 H 0.18822 0.07279 0.49421 0.0
H3080 H 0.11524 0.08958 0.53672 0.0
H3081 H 0.11266 0.05815 0.46518 0.0
H3082 H 0.15731 0.13897 0.53935 0.0
H3083 H 0.1711 0.1176 0.54662 0.0
H3084 H 0.14562 0.11887 0.55717 0.0
H3085 H 0.15281 0.10005 0.45063 0.0
H3086 H 0.14078 0.0687 0.44347 0.0
H3087 H 0.1675 0.08014 0.45985 0.0
C3088 C 0.19922 0.92522 0.76726 0.0
C3089 C 0.20899 0.94757 0.7622 0.0
C3090 C 0.20979 0.90586 0.76646 0.0
C3091 C 0.23123 0.90755 0.7601 0.0
C3092 C 0.24089 0.92979 0.75422 0.0
C3093 C 0.23011 0.94901 0.75557 0.0
C3094 C 0.19785 0.8834 0.77292 0.0
C3095 C 0.26258 0.93309 0.74537 0.0
C3096 C 0.27081 0.868 0.77855 0.0
C3097 C 0.26692 0.84795 0.76026 0.0
C3098 C 0.25926 0.88646 0.7789 0.0
C3099 C 0.24349 0.88669 0.75997 0.0
C3100 C 0.23989 0.86669 0.74113 0.0
C3101 C 0.25088 0.84783 0.74181 0.0
C3102 C 0.26374 0.90577 0.80018 0.0
C3103 C 0.22435 0.86487 0.7197 0.0
H3104 H 0.18306 0.92281 0.77228 0.0
H3105 H 0.23835 0.96535 0.75101 0.0
H3106 H 0.19709 0.86807 0.75892 0.0
H3107 H 0.20685 0.88063 0.7888 0.0
H3108 H 0.18102 0.88372 0.77613 0.0
H3109 H 0.26922 0.95155 0.74343 0.0
H3110 H 0.27456 0.92808 0.75711 0.0
H3111 H 0.26068 0.92124 0.72818 0.0
H3112 H 0.28278 0.86906 0.79322 0.0
H3113 H 0.24724 0.83308 0.72724 0.0
H3114 H 0.2483 0.9067 0.80715 0.0
H3115 H 0.2705 0.92308 0.79559 0.0
H3116 H 0.27534 0.90298 0.81403 0.0
H3117 H 0.20791 0.85501 0.72189 0.0
H3118 H 0.22925 0.855 0.70416 0.0
H3119 H 0.22336 0.8825 0.71646 0.0
C3120 C 0.38542 0.95688 0.99961 0.0
C3121 C 0.37474 0.97513 1.0026 0.0
C3122 C 0.4079 0.96177 0.00442 0.0
C3123 C 0.41961 0.98536 0.01283 0.0
C3124 C 0.40879 1.00359 0.01772 0.0
C3125 C 0.38625 0.99828 0.0121 0.0
C3126 C 0.41916 0.94204 0.99896 0.0
C3127 C 0.42111 0.02889 0.02709 0.0
C3128 C 0.47975 0.99906 0.03111 0.0
C3129 C 0.48737 1.00514 0.01097 0.0
C3130 C 0.45753 0.99209 0.032 0.0
C3131 C 0.44298 0.9915 0.01228 0.0
C3132 C 0.45062 0.99688 0.99161 0.0
C3133 C 0.47288 1.0035 0.99117 0.0
C3134 C 0.44973 0.98621 0.05418 0.0
C3135 C 0.4354 0.9957 0.96996 0.0
H3136 H 0.37624 0.93888 0.99253 0.0
H3137 H 0.37768 0.01212 0.01496 0.0
H3138 H 0.4276 0.94414 0.98354 0.0
H3139 H 0.43167 0.94277 0.01361 0.0
H3140 H 0.40757 0.92437 0.99524 0.0
H3141 H 0.4104 0.03974 0.03457 0.0
H3142 H 0.43478 0.02995 0.04062 0.0
H3143 H 0.42809 0.03662 0.01277 0.0
H3144 H 0.49113 1.00003 0.04622 0.0
H3145 H 0.47886 0.00821 0.97556 0.0
H3146 H 0.43572 0.97053 0.05055 0.0
H3147 H 0.44426 1.00128 0.06343 0.0
H3148 H 0.46279 0.98275 0.06589 0.0
H3149 H 0.42786 0.97694 0.96191 0.0
H3150 H 0.44397 1.0043 0.95693 0.0
H3151 H 0.4221 1.00426 0.97412 0.0
C3152 C 0.90384 0.60199 0.77706 0.0
C3153 C 0.8932 0.57876 0.7776 0.0
C3154 C 0.89355 0.61575 0.76539 0.0
C3155 C 0.87187 0.60622 0.75476 0.0
C3156 C 0.86123 0.5825 0.75437 0.0
C3157 C 0.87213 0.5689 0.76584 0.0
C3158 C 0.90548 0.64095 0.76577 0.0
C3159 C 0.83831 0.57172 0.74226 0.0
C3160 C 0.83959 0.65123 0.76307 0.0
C3161 C 0.83858 0.6576 0.74135 0.0
C3162 C 0.84979 0.63379 0.76725 0.0
C3163 C 0.85912 0.62253 0.74916 0.0
C3164 C 0.85756 0.62825 0.72689 0.0
C3165 C 0.84721 0.64596 0.7232 0.0
C3166 C 0.85087 0.6277 0.79115 0.0
C3167 C 0.86744 0.6164 0.70737 0.0
H3168 H 0.92038 0.60944 0.78556 0.0
H3169 H 0.86422 0.5506 0.76548 0.0
H3170 H 0.90237 0.64577 0.74866 0.0
H3171 H 0.89957 0.65298 0.77879 0.0
H3172 H 0.92331 0.64393 0.77046 0.0
H3173 H 0.83157 0.55391 0.74586 0.0
H3174 H 0.82736 0.58316 0.74763 0.0
H3175 H 0.83823 0.57012 0.72325 0.0
H3176 H 0.83227 0.65988 0.77682 0.0
H3177 H 0.84616 0.65097 0.70638 0.0
H3178 H 0.86806 0.6316 0.79915 0.0
H3179 H 0.84371 0.60856 0.78981 0.0
H3180 H 0.8421 0.63772 0.80296 0.0
H3181 H 0.88528 0.62389 0.71013 0.0
H3182 H 0.86085 0.61912 0.69023 0.0
H3183 H 0.86452 0.59718 0.70698 0.0
C3184 C 0.86088 0.67086 0.01767 0.0
C3185 C 0.84105 0.6548 0.0181 0.0
C3186 C 0.88086 0.66471 0.02198 0.0
C3187 C 0.88093 0.64185 0.02613 0.0
C3188 C 0.86098 0.62585 0.02691 0.0
C3189 C 0.84148 0.63256 0.02305 0.0
C3190 C 0.90192 0.68257 0.02214 0.0
C3191 C 0.86009 0.6015 0.03183 0.0
C3192 C 0.92475 0.61151 0.00767 0.0
C3193 C 0.93598 0.61075 0.02898 0.0
C3194 C 0.90754 0.62257 0.00659 0.0
C3195 C 0.90138 0.63348 0.02734 0.0
C3196 C 0.91322 0.63364 0.04897 0.0
C3197 C 0.93031 0.62219 0.04953 0.0
C3198 C 0.89507 0.62132 0.9832 0.0
C3199 C 0.90778 0.64576 0.0715 0.0
H3200 H 0.86082 0.68828 0.01445 0.0
H3201 H 0.82634 0.62005 0.02371 0.0
H3202 H 0.91316 0.68399 0.03812 0.0
H3203 H 0.91002 0.67668 0.00716 0.0
H3204 H 0.89939 0.70032 0.0212 0.0
H3205 H 0.8432 0.5903 0.02923 0.0
H3206 H 0.8698 0.59236 0.02049 0.0
H3207 H 0.86717 0.60306 0.05008 0.0
H3208 H 0.92874 0.60241 0.99173 0.0
H3209 H 0.93912 0.62196 0.06607 0.0
H3210 H 0.89436 0.63927 0.98078 0.0
H3211 H 0.8781 0.61087 0.98231 0.0
H3212 H 0.90244 0.61307 0.96865 0.0
H3213 H 0.91241 0.66513 0.07258 0.0
H3214 H 0.91651 0.64165 0.08685 0.0
H3215 H 0.89006 0.64062 0.07231 0.0
C3216 C 0.23034 0.10671 0.7665 0.0
C3217 C 0.20841 0.10263 0.77067 0.0
C3218 C 0.24305 0.12976 0.76505 0.0
C3219 C 0.23428 0.15012 0.76823 0.0
C3220 C 0.21223 0.146 0.7725 0.0
C3221 C 0.19986 0.12288 0.77343 0.0
C3222 C 0.26611 0.13228 0.76002 0.0
C3223 C 0.20133 0.16616 0.77588 0.0
C3224 C 0.2737 0.21376 0.78709 0.0
C3225 C 0.27395 0.22331 0.76672 0.0
C3226 C 0.26087 0.19073 0.78786 0.0
C3227 C 0.24794 0.17553 0.76757 0.0
C3228 C 0.24804 0.18511 0.74689 0.0
C3229 C 0.26084 0.20843 0.7467 0.0
C3230 C 0.26145 0.18249 0.81062 0.0
C3231 C 0.2353 0.17022 0.72446 0.0
H3232 H 0.23758 0.09179 0.764 0.0
H3233 H 0.18309 0.12075 0.77647 0.0
H3234 H 0.26941 0.14309 0.74653 0.0
H3235 H 0.27743 0.14156 0.77598 0.0
H3236 H 0.26964 0.1149 0.7541 0.0
H3237 H 0.18536 0.16115 0.78217 0.0
H3238 H 0.21184 0.18152 0.78845 0.0
H3239 H 0.1987 0.17189 0.75913 0.0
H3240 H 0.28409 0.22427 0.80262 0.0
H3241 H 0.26128 0.21462 0.73046 0.0
H3242 H 0.26834 0.16682 0.80915 0.0
H3243 H 0.24469 0.17705 0.81492 0.0
H3244 H 0.27135 0.19638 0.82511 0.0
H3245 H 0.2428 0.15543 0.71877 0.0
H3246 H 0.23493 0.18052 0.71044 0.0
H3247 H 0.21837 0.16236 0.72697 0.0
C3248 C 0.38409 0.96352 0.26891 0.0
C3249 C 0.40504 0.95994 0.26836 0.0
C3250 C 0.36644 0.9447 0.26796 0.0
C3251 C 0.37001 0.92201 0.2659 0.0
C3252 C 0.39078 0.91791 0.26369 0.0
C3253 C 0.40828 0.93717 0.26496 0.0
C3254 C 0.34429 0.94921 0.27059 0.0
C3255 C 0.39454 0.89337 0.26066 0.0
C3256 C 0.33508 0.87564 0.29038 0.0
C3257 C 0.32338 0.86136 0.26982 0.0
C3258 C 0.3497 0.8966 0.28952 0.0
C3259 C 0.35221 0.90269 0.26762 0.0
C3260 C 0.33864 0.88951 0.24729 0.0
C3261 C 0.32374 0.8691 0.24882 0.0
C3262 C 0.36393 0.91082 0.31152 0.0
C3263 C 0.34086 0.8958 0.22374 0.0
H3264 H 0.38154 0.98117 0.27096 0.0
H3265 H 0.42449 0.93451 0.26423 0.0
H3266 H 0.33215 0.9384 0.25585 0.0
H3267 H 0.33885 0.94386 0.28665 0.0
H3268 H 0.3443 0.96805 0.27149 0.0
H3269 H 0.41195 0.89351 0.2603 0.0
H3270 H 0.38877 0.8847 0.27496 0.0
H3271 H 0.38504 0.88243 0.24419 0.0
H3272 H 0.33435 0.86948 0.30664 0.0
H3273 H 0.31384 0.85808 0.23318 0.0
H3274 H 0.36483 0.9299 0.31286 0.0
H3275 H 0.38069 0.9085 0.31116 0.0
H3276 H 0.35792 0.90525 0.32729 0.0
H3277 H 0.33434 0.9114 0.22255 0.0
H3278 H 0.33172 0.88112 0.20956 0.0
H3279 H 0.35816 0.9003 0.22092 0.0
C3280 C 0.56551 0.38587 0.58722 0.0
C3281 C 0.5834 0.37667 0.58213 0.0
C3282 C 0.56057 0.40433 0.5771 0.0
C3283 C 0.57413 0.41456 0.56187 0.0
C3284 C 0.59216 0.40526 0.55653 0.0
C3285 C 0.59639 0.38632 0.56644 0.0
C3286 C 0.5408 0.41295 0.58281 0.0
C3287 C 0.60746 0.41584 0.54094 0.0
C3288 C 0.55273 0.45352 0.52377 0.0
C3289 C 0.56268 0.47639 0.53635 0.0
C3290 C 0.55657 0.4333 0.53153 0.0
C3291 C 0.57021 0.43583 0.55274 0.0
C3292 C 0.57998 0.45893 0.56557 0.0
C3293 C 0.5763 0.47875 0.55716 0.0
C3294 C 0.54617 0.4092 0.5169 0.0
C3295 C 0.59409 0.46281 0.58855 0.0
H3296 H 0.55514 0.37839 0.59901 0.0
H3297 H 0.61027 0.37949 0.56239 0.0
H3298 H 0.54556 0.43215 0.59024 0.0
H3299 H 0.52936 0.41033 0.5667 0.0
H3300 H 0.53212 0.40359 0.5953 0.0
H3301 H 0.61874 0.40471 0.53576 0.0
H3302 H 0.59826 0.41835 0.52506 0.0
H3303 H 0.61726 0.43349 0.5502 0.0
H3304 H 0.54222 0.45144 0.50765 0.0
H3305 H 0.58383 0.49626 0.56725 0.0
H3306 H 0.53553 0.39839 0.52695 0.0
H3307 H 0.55892 0.39994 0.51223 0.0
H3308 H 0.53635 0.41012 0.50068 0.0
H3309 H 0.58413 0.45552 0.6013 0.0
H3310 H 0.60167 0.4818 0.59566 0.0
H3311 H 0.60716 0.45334 0.58667 0.0
C3312 C 0.4521 0.78354 0.34516 0.0
C3313 C 0.45369 0.77492 0.36597 0.0
C3314 C 0.4322 0.78525 0.33394 0.0
C3315 C 0.41271 0.77824 0.34344 0.0
C3316 C 0.41397 0.76952 0.36448 0.0
C3317 C 0.43433 0.76786 0.37542 0.0
C3318 C 0.43215 0.79467 0.31172 0.0
C3319 C 0.39373 0.76166 0.3753 0.0
C3320 C 0.36408 0.7997 0.31813 0.0
C3321 C 0.35337 0.78026 0.30054 0.0
C3322 C 0.38282 0.79904 0.33292 0.0
C3323 C 0.39114 0.77851 0.33019 0.0
C3324 C 0.37987 0.75875 0.3129 0.0
C3325 C 0.36138 0.75989 0.29852 0.0
C3326 C 0.39408 0.82051 0.35113 0.0
C3327 C 0.38791 0.73656 0.30875 0.0
H3328 H 0.46666 0.78912 0.33737 0.0
H3329 H 0.43506 0.76134 0.39147 0.0
H3330 H 0.42057 0.78187 0.29764 0.0
H3331 H 0.42669 0.81127 0.31427 0.0
H3332 H 0.44847 0.79832 0.30592 0.0
H3333 H 0.39758 0.75958 0.39345 0.0
H3334 H 0.38346 0.77445 0.37514 0.0
H3335 H 0.38399 0.74444 0.36499 0.0
H3336 H 0.35821 0.81559 0.31994 0.0
H3337 H 0.35335 0.74468 0.28511 0.0
H3338 H 0.41071 0.8277 0.34728 0.0
H3339 H 0.39579 0.81555 0.36839 0.0
H3340 H 0.38516 0.83462 0.35208 0.0
H3341 H 0.40357 0.74025 0.30163 0.0
H3342 H 0.37622 0.72194 0.29634 0.0
H3343 H 0.3909 0.73061 0.32531 0.0
C3344 C 0.10036 0.72464 0.07925 0.0
C3345 C 0.08332 0.73583 0.08065 0.0
C3346 C 0.09662 0.70092 0.06842 0.0
C3347 C 0.07522 0.68801 0.05894 0.0
C3348 C 0.05798 0.69947 0.05952 0.0
C3349 C 0.06226 0.72339 0.07039 0.0
C3350 C 0.11538 0.68932 0.06838 0.0
C3351 C 0.03483 0.68605 0.05034 0.0
C3352 C 0.07008 0.62891 0.01921 0.0
C3353 C 0.06623 0.6136 0.03471 0.0
C3354 C 0.07239 0.65322 0.0267 0.0
C3355 C 0.07086 0.66214 0.05018 0.0
C3356 C 0.06654 0.64643 0.06573 0.0
C3357 C 0.06435 0.62229 0.05777 0.0
C3358 C 0.07644 0.66934 0.00954 0.0
C3359 C 0.06471 0.65502 0.0909 0.0
H3360 H 0.11652 0.7342 0.08771 0.0
H3361 H 0.04897 0.73187 0.07223 0.0
H3362 H 0.11272 0.67544 0.07899 0.0
H3363 H 0.11638 0.68062 0.05046 0.0
H3364 H 0.13118 0.70212 0.07548 0.0
H3365 H 0.02404 0.69808 0.04834 0.0
H3366 H 0.03395 0.67425 0.03335 0.0
H3367 H 0.02852 0.67475 0.06261 0.0
H3368 H 0.0711 0.62184 1.00127 0.0
H3369 H 0.06108 0.61013 0.06956 0.0
H3370 H 0.09221 0.68257 0.01531 0.0
H3371 H 0.06358 0.67913 0.00879 0.0
H3372 H 0.07671 0.65954 0.99181 0.0
H3373 H 0.08123 0.66295 0.10058 0.0
H3374 H 0.05666 0.64041 0.09909 0.0
H3375 H 0.05546 0.6688 0.09281 0.0
C3376 C 0.08185 0.29642 0.87263 0.0
C3377 C 0.08055 0.28206 0.88929 0.0
C3378 C 0.10158 0.30441 0.86405 0.0
C3379 C 0.12021 0.29683 0.8713 0.0
C3380 C 0.11916 0.28316 0.88889 0.0
C3381 C 0.0995 0.27639 0.898 0.0
C3382 C 0.10222 0.32036 0.84665 0.0
C3383 C 0.13865 0.27504 0.89756 0.0
C3384 C 0.15718 0.28405 0.82613 0.0
C3385 C 0.17593 0.30248 0.8334 0.0
C3386 C 0.13895 0.28258 0.83799 0.0
C3387 C 0.13939 0.29976 0.85802 0.0
C3388 C 0.15824 0.31871 0.86537 0.0
C3389 C 0.1762 0.32 0.85278 0.0
C3390 C 0.11925 0.26227 0.8292 0.0
C3391 C 0.15942 0.33778 0.88627 0.0
H3392 H 0.06747 0.30161 0.86644 0.0
H3393 H 0.09871 0.2658 0.91131 0.0
H3394 H 0.11795 0.33382 0.84962 0.0
H3395 H 0.10045 0.30971 0.8289 0.0
H3396 H 0.08884 0.32953 0.84747 0.0
H3397 H 0.1349 0.26342 0.91032 0.0
H3398 H 0.1447 0.2653 0.88281 0.0
H3399 H 0.152 0.29058 0.90593 0.0
H3400 H 0.15677 0.2707 0.81095 0.0
H3401 H 0.1906 0.3344 0.85836 0.0
H3402 H 0.10487 0.2691 0.82493 0.0
H3403 H 0.11563 0.25186 0.84293 0.0
H3404 H 0.12151 0.25031 0.81347 0.0
H3405 H 0.14924 0.34964 0.88167 0.0
H3406 H 0.17632 0.34855 0.89224 0.0
H3407 H 0.15297 0.33017 0.90087 0.0
C3408 C 0.57192 0.76905 0.93692 0.0
C3409 C 0.58376 0.76612 0.91831 0.0
C3410 C 0.56206 0.74963 0.94601 0.0
C3411 C 0.56515 0.72716 0.93692 0.0
C3412 C 0.5765 0.72404 0.91756 0.0
C3413 C 0.58531 0.74361 0.90815 0.0
C3414 C 0.54939 0.75347 0.96611 0.0
C3415 C 0.58015 0.70031 0.9074 0.0
C3416 C 0.57197 0.68825 0.97962 0.0
C3417 C 0.55262 0.67061 0.97372 0.0
C3418 C 0.57589 0.70708 0.96808 0.0
C3419 C 0.56007 0.70806 0.95007 0.0
C3420 C 0.54025 0.69047 0.94429 0.0
C3421 C 0.53665 0.67186 0.95641 0.0
C3422 C 0.59721 0.72559 0.97479 0.0
C3423 C 0.52298 0.69134 0.92541 0.0
H3424 H 0.57037 0.78652 0.94435 0.0
H3425 H 0.5943 0.74148 0.89352 0.0
H3426 H 0.53524 0.73829 0.96502 0.0
H3427 H 0.56005 0.75531 0.9826 0.0
H3428 H 0.5435 0.76978 0.96676 0.0
H3429 H 0.59171 0.70163 0.89442 0.0
H3430 H 0.58655 0.69214 0.92124 0.0
H3431 H 0.56447 0.68827 0.89875 0.0
H3432 H 0.58408 0.68721 0.9933 0.0
H3433 H 0.52166 0.6581 0.95213 0.0
H3434 H 0.59416 0.74324 0.98029 0.0
H3435 H 0.60621 0.72629 0.9596 0.0
H3436 H 0.60772 0.72206 0.98919 0.0
H3437 H 0.51741 0.70774 0.92996 0.0
H3438 H 0.50872 0.67593 0.92268 0.0
H3439 H 0.52977 0.69184 0.90881 0.0
C3440 C 0.07699 0.76768 0.67206 0.0
C3441 C 0.05866 0.7658 0.6836 0.0
C3442 C 0.09743 0.7701 0.68417 0.0
C3443 C 0.09937 0.77038 0.70827 0.0
C3444 C 0.08098 0.76896 0.72012 0.0
C3445 C 0.06074 0.76689 0.70759 0.0
C3446 C 0.11674 0.77123 0.67096 0.0
C3447 C 0.08263 0.7691 0.74583 0.0
C3448 C 0.1459 0.74708 0.72939 0.0
C3449 C 0.16187 0.76801 0.73767 0.0
C3450 C 0.12507 0.74766 0.72052 0.0
C3451 C 0.12029 0.76977 0.72044 0.0
C3452 C 0.13613 0.79102 0.72995 0.0
C3453 C 0.15706 0.78988 0.73821 0.0
C3454 C 0.10862 0.72469 0.71007 0.0
C3455 C 0.13134 0.81481 0.73019 0.0
H3456 H 0.07532 0.76698 0.65348 0.0
H3457 H 0.04648 0.76543 0.71646 0.0
H3458 H 0.13054 0.78607 0.67983 0.0
H3459 H 0.12223 0.75471 0.67038 0.0
H3460 H 0.11284 0.77344 0.65285 0.0
H3461 H 0.06644 0.76564 0.75192 0.0
H3462 H 0.09101 0.75562 0.75019 0.0
H3463 H 0.09249 0.78654 0.75552 0.0
H3464 H 0.15006 0.73027 0.72881 0.0
H3465 H 0.16976 0.80595 0.74452 0.0
H3466 H 0.10481 0.72345 0.6911 0.0
H3467 H 0.09323 0.72402 0.7176 0.0
H3468 H 0.11459 0.70907 0.71291 0.0
H3469 H 0.13035 0.81831 0.71229 0.0
H3470 H 0.14415 0.82929 0.74148 0.0
H3471 H 0.11544 0.8151 0.73628 0.0
C3472 C 0.12069 0.41751 0.43998 0.0
C3473 C 0.1117 0.40778 0.41696 0.0
C3474 C 0.11281 0.43511 0.45285 0.0
C3475 C 0.09482 0.44193 0.44267 0.0
C3476 C 0.08567 0.432 0.41939 0.0
C3477 C 0.0946 0.41534 0.40661 0.0
C3478 C 0.12326 0.44586 0.47749 0.0
C3479 C 0.06606 0.43832 0.40824 0.0
C3480 C 0.06187 0.46558 0.48659 0.0
C3481 C 0.06862 0.48975 0.48724 0.0
C3482 C 0.06953 0.44966 0.47124 0.0
C3483 C 0.08483 0.4584 0.45692 0.0
C3484 C 0.09128 0.48285 0.45711 0.0
C3485 C 0.08287 0.49826 0.4722 0.0
C3486 C 0.06151 0.42357 0.47062 0.0
C3487 C 0.10791 0.49288 0.44246 0.0
H3488 H 0.13377 0.41128 0.44787 0.0
H3489 H 0.08745 0.40727 0.38886 0.0
H3490 H 0.12603 0.46535 0.48069 0.0
H3491 H 0.11227 0.43923 0.48971 0.0
H3492 H 0.13904 0.44142 0.48146 0.0
H3493 H 0.05944 0.42689 0.39096 0.0
H3494 H 0.05301 0.43674 0.41952 0.0
H3495 H 0.07055 0.45692 0.40605 0.0
H3496 H 0.05067 0.45914 0.49815 0.0
H3497 H 0.08811 0.51704 0.47285 0.0
H3498 H 0.07494 0.41668 0.47775 0.0
H3499 H 0.05605 0.4139 0.45245 0.0
H3500 H 0.04783 0.41968 0.48089 0.0
H3501 H 0.12423 0.49192 0.44992 0.0
H3502 H 0.10843 0.51161 0.44183 0.0
H3503 H 0.10455 0.48251 0.42446 0.0
C3504 C 0.41988 0.24254 0.18011 0.0
C3505 C 0.44131 0.24903 0.19099 0.0
C3506 C 0.40343 0.24817 0.19243 0.0
C3507 C 0.40911 0.26104 0.21556 0.0
C3508 C 0.43087 0.26806 0.22624 0.0
C3509 C 0.44674 0.26177 0.21379 0.0
C3510 C 0.38015 0.24047 0.18082 0.0
C3511 C 0.43735 0.28185 0.25089 0.0
C3512 C 0.3719 0.29592 0.24092 0.0
C3513 C 0.36083 0.28046 0.25379 0.0
C3514 C 0.3876 0.2896 0.22805 0.0
C3515 C 0.39248 0.26768 0.22874 0.0
C3516 C 0.38228 0.25267 0.24283 0.0
C3517 C 0.36636 0.25925 0.25519 0.0
C3518 C 0.39842 0.30593 0.21316 0.0
C3519 C 0.38737 0.22924 0.24404 0.0
H3520 H 0.41601 0.23264 0.16241 0.0
H3521 H 0.46355 0.26681 0.22189 0.0
H3522 H 0.36932 0.23213 0.19237 0.0
H3523 H 0.37463 0.25614 0.17734 0.0
H3524 H 0.37819 0.2278 0.16413 0.0
H3525 H 0.45526 0.28727 0.25591 0.0
H3526 H 0.43104 0.29793 0.25313 0.0
H3527 H 0.43011 0.27091 0.26303 0.0
H3528 H 0.36734 0.31223 0.23965 0.0
H3529 H 0.3576 0.24737 0.26516 0.0
H3530 H 0.39485 0.29689 0.19466 0.0
H3531 H 0.41632 0.31052 0.21796 0.0
H3532 H 0.39288 0.32251 0.21487 0.0
H3533 H 0.38027 0.21658 0.22756 0.0
H3534 H 0.38056 0.22176 0.25857 0.0
H3535 H 0.40516 0.23102 0.24626 0.0
C3536 C 0.6366 0.51384 0.36119 0.0
C3537 C 0.63043 0.52573 0.34371 0.0
C3538 C 0.62735 0.51435 0.38283 0.0
C3539 C 0.61106 0.52695 0.38815 0.0
C3540 C 0.60467 0.53868 0.37043 0.0
C3541 C 0.61423 0.53804 0.34921 0.0
C3542 C 0.6349 0.50091 0.40006 0.0
C3543 C 0.58764 0.55243 0.37392 0.0
C3544 C 0.56999 0.51052 0.43283 0.0
C3545 C 0.57773 0.52758 0.45372 0.0
C3546 C 0.58057 0.50994 0.41232 0.0
C3547 C 0.60003 0.52704 0.41125 0.0
C3548 C 0.60801 0.54456 0.4322 0.0
C3549 C 0.59714 0.54455 0.45282 0.0
C3550 C 0.57041 0.4909 0.39133 0.0
C3551 C 0.62815 0.56376 0.43278 0.0
H3552 H 0.64881 0.50405 0.35808 0.0
H3553 H 0.60875 0.54751 0.33662 0.0
H3554 H 0.63901 0.51219 0.41769 0.0
H3555 H 0.62152 0.48551 0.40081 0.0
H3556 H 0.64928 0.49447 0.39539 0.0
H3557 H 0.58203 0.55787 0.35778 0.0
H3558 H 0.57334 0.5419 0.38003 0.0
H3559 H 0.59449 0.56852 0.38751 0.0
H3560 H 0.55505 0.49725 0.43232 0.0
H3561 H 0.60363 0.55831 0.46803 0.0
H3562 H 0.58236 0.4808 0.38586 0.0
H3563 H 0.56579 0.49901 0.37662 0.0
H3564 H 0.5557 0.47843 0.39464 0.0
H3565 H 0.64233 0.55592 0.43161 0.0
H3566 H 0.63137 0.57746 0.44891 0.0
H3567 H 0.62662 0.57232 0.4176 0.0
C3568 C 0.31783 0.88101 0.06733 0.0
C3569 C 0.33014 0.89999 0.05951 0.0
C3570 C 0.32616 0.87364 0.08663 0.0
C3571 C 0.34741 0.88541 0.09783 0.0
C3572 C 0.36013 0.90424 0.08962 0.0
C3573 C 0.3512 0.91147 0.07049 0.0
C3574 C 0.31196 0.85373 0.09535 0.0
C3575 C 0.38312 0.91644 0.10074 0.0
C3576 C 0.35092 0.87596 0.15838 0.0
C3577 C 0.35632 0.85418 0.15504 0.0
C3578 C 0.35034 0.88816 0.14027 0.0
C3579 C 0.35563 0.87828 0.11871 0.0
C3580 C 0.36424 0.85824 0.11635 0.0
C3581 C 0.36428 0.84615 0.13463 0.0
C3582 C 0.34144 0.90985 0.14333 0.0
C3583 C 0.37062 0.8478 0.09363 0.0
H3584 H 0.30152 0.87233 0.0587 0.0
H3585 H 0.36078 0.92596 0.06399 0.0
H3586 H 0.32036 0.83943 0.09634 0.0
H3587 H 0.30869 0.8603 0.1131 0.0
H3588 H 0.29614 0.84608 0.08403 0.0
H3589 H 0.38942 0.93306 0.0946 0.0
H3590 H 0.38421 0.92053 0.11992 0.0
H3591 H 0.39387 0.90449 0.09637 0.0
H3592 H 0.34536 0.88242 0.17441 0.0
H3593 H 0.36856 0.82932 0.13204 0.0
H3594 H 0.3247 0.90532 0.13388 0.0
H3595 H 0.35144 0.92392 0.13592 0.0
H3596 H 0.34085 0.91691 0.16189 0.0
H3597 H 0.35579 0.83723 0.08186 0.0
H3598 H 0.38155 0.83602 0.09616 0.0
H3599 H 0.37884 0.86185 0.08493 0.0
C3600 C 0.99558 0.55206 0.86633 0.0
C3601 C 0.97493 0.53792 0.85778 0.0
C3602 C 0.00477 0.5524 0.88855 0.0
C3603 C 0.99278 0.53801 0.9021 0.0
C3604 C 0.97131 0.52461 0.89397 0.0
C3605 C 0.9624 0.52488 0.87158 0.0
C3606 C 0.02787 0.56675 0.89676 0.0
C3607 C 0.95833 0.50934 0.9084 0.0
C3608 C 0.03282 0.52184 0.94165 0.0
C3609 C 0.03572 0.54043 0.96042 0.0
C3610 C 0.01701 0.51932 0.92297 0.0
C3611 C 1.004 0.53575 0.92375 0.0
C3612 C 0.006 0.5536 0.9435 0.0
C3613 C 0.02222 0.55591 0.96176 0.0
C3614 C 0.01543 0.50038 0.90178 0.0
C3615 C 0.99198 0.57103 0.94452 0.0
H3616 H 0.00491 0.56196 0.85517 0.0
H3617 H 0.94637 0.51385 0.86435 0.0
H3618 H 0.029 0.57812 0.91402 0.0
H3619 H 0.03868 0.55472 0.89851 0.0
H3620 H 0.03408 0.5782 0.88456 0.0
H3621 H 0.94282 0.49802 0.8984 0.0
H3622 H 0.96788 0.49786 0.91517 0.0
H3623 H 0.95457 0.52077 0.92363 0.0
H3624 H 0.04315 0.50959 0.94148 0.0
H3625 H 0.02446 0.56981 0.97694 0.0
H3626 H 0.02151 0.50869 0.88738 0.0
H3627 H 0.99827 0.49058 0.89588 0.0
H3628 H 0.02512 0.48761 0.90509 0.0
H3629 H 0.99357 0.58023 0.92967 0.0
H3630 H 0.99641 0.58463 0.96071 0.0
H3631 H 0.97467 0.56148 0.94318 0.0
C3632 C 0.29765 0.24432 0.57918 0.0
C3633 C 0.28152 0.22317 0.57166 0.0
C3634 C 0.30027 0.25694 0.60228 0.0
C3635 C 0.28655 0.24805 0.61806 0.0
C3636 C 0.26972 0.2273 0.61012 0.0
C3637 C 0.26733 0.21535 0.58712 0.0
C3638 C 0.31836 0.27908 0.61003 0.0
C3639 C 0.25486 0.21691 0.62626 0.0
C3640 C 0.30588 0.2577 0.68242 0.0
C3641 C 0.29332 0.2725 0.69211 0.0
C3642 C 0.30463 0.2506 0.65835 0.0
C3643 C 0.29065 0.2587 0.64337 0.0
C3644 C 0.27849 0.27434 0.65298 0.0
C3645 C 0.27976 0.28086 0.67729 0.0
C3646 C 0.31764 0.23362 0.64903 0.0
C3647 C 0.26416 0.28415 0.63754 0.0
H3648 H 0.30878 0.25042 0.56743 0.0
H3649 H 0.25465 0.19919 0.58142 0.0
H3650 H 0.31316 0.29257 0.62215 0.0
H3651 H 0.33244 0.27486 0.61935 0.0
H3652 H 0.3239 0.28675 0.59505 0.0
H3653 H 0.24259 0.20061 0.61731 0.0
H3654 H 0.26457 0.2126 0.64077 0.0
H3655 H 0.2462 0.22996 0.63391 0.0
H3656 H 0.31643 0.25112 0.69372 0.0
H3657 H 0.27037 0.29269 0.68465 0.0
H3658 H 0.32818 0.24119 0.63689 0.0
H3659 H 0.3065 0.21695 0.63916 0.0
H3660 H 0.32807 0.22936 0.66303 0.0
H3661 H 0.27426 0.29453 0.62671 0.0
H3662 H 0.25538 0.2957 0.64762 0.0
H3663 H 0.25208 0.2696 0.62554 0.0
C3664 C 0.64465 0.53401 0.18569 0.0
C3665 C 0.63512 0.51671 0.19801 0.0
C3666 C 0.63412 0.53739 0.16445 0.0
C3667 C 0.61335 0.52277 0.15393 0.0
C3668 C 0.60369 0.50502 0.1661 0.0
C3669 C 0.61432 0.5025 0.18781 0.0
C3670 C 0.64533 0.55703 0.1533 0.0
C3671 C 0.58211 0.48821 0.15585 0.0
C3672 C 0.57866 0.54474 0.10727 0.0
C3673 C 0.58212 0.53248 0.08574 0.0
C3674 C 0.58803 0.54134 0.12914 0.0
C3675 C 0.60214 0.52584 0.13031 0.0
C3676 C 0.60576 0.51363 0.10856 0.0
C3677 C 0.59569 0.51681 0.08702 0.0
C3678 C 0.58258 0.55428 0.15121 0.0
C3679 C 0.62083 0.49738 0.10787 0.0
H3680 H 0.66046 0.54547 0.19301 0.0
H3681 H 0.60645 0.48891 0.19655 0.0
H3682 H 0.64716 0.5499 0.13515 0.0
H3683 H 0.63524 0.56993 0.15266 0.0
H3684 H 0.66163 0.5665 0.16287 0.0
H3685 H 0.57555 0.47676 0.16791 0.0
H3686 H 0.57007 0.49809 0.15116 0.0
H3687 H 0.58407 0.47678 0.13961 0.0
H3688 H 0.56821 0.55679 0.10708 0.0
H3689 H 0.59892 0.50725 0.0709 0.0
H3690 H 0.59765 0.56578 0.16188 0.0
H3691 H 0.57517 0.54141 0.16161 0.0
H3692 H 0.57113 0.56528 0.14781 0.0
H3693 H 0.63781 0.50806 0.11321 0.0
H3694 H 0.61972 0.48663 0.09024 0.0
H3695 H 0.61719 0.48535 0.12024 0.0
C3696 C 0.32963 0.8829 0.92714 0.0
C3697 C 0.31192 0.89316 0.92655 0.0
C3698 C 0.3314 0.86581 0.90847 0.0
C3699 C 0.31466 0.8586 0.88945 0.0
C3700 C 0.29666 0.86888 0.88899 0.0
C3701 C 0.29573 0.88647 0.90752 0.0
C3702 C 0.35123 0.85592 0.90886 0.0
C3703 C 0.27819 0.86101 0.86918 0.0
C3704 C 0.31939 0.83393 0.82847 0.0
C3705 C 0.30943 0.81001 0.82673 0.0
C3706 C 0.32373 0.8495 0.84972 0.0
C3707 C 0.31617 0.84122 0.86923 0.0
C3708 C 0.3066 0.81697 0.86785 0.0
C3709 C 0.30386 0.8014 0.84654 0.0
C3710 C 0.33456 0.87519 0.8508 0.0
C3711 C 0.29798 0.80779 0.88839 0.0
H3712 H 0.34211 0.8884 0.94213 0.0
H3713 H 0.28196 0.89436 0.90757 0.0
H3714 H 0.34642 0.83636 0.90472 0.0
H3715 H 0.36097 0.86178 0.89533 0.0
H3716 H 0.36171 0.86177 0.92593 0.0
H3717 H 0.26537 0.87076 0.87175 0.0
H3718 H 0.28434 0.86364 0.8526 0.0
H3719 H 0.27071 0.84187 0.8674 0.0
H3720 H 0.32264 0.84093 0.81308 0.0
H3721 H 0.29598 0.7829 0.84508 0.0
H3722 H 0.34706 0.88208 0.8663 0.0
H3723 H 0.32229 0.88576 0.8523 0.0
H3724 H 0.34237 0.87791 0.83508 0.0
H3725 H 0.31163 0.81004 0.90231 0.0
H3726 H 0.28925 0.78883 0.88378 0.0
H3727 H 0.28671 0.81802 0.89559 0.0
C3728 C 0.96415 0.53429 0.71073 0.0
C3729 C 0.95632 0.52082 0.72659 0.0
C3730 C 0.9719 0.52388 0.69133 0.0
C3731 C 0.97203 0.49967 0.6884 0.0
C3732 C 0.96445 0.48618 0.70479 0.0
C3733 C 0.95631 0.49696 0.72366 0.0
C3734 C 0.97961 0.5387 0.67388 0.0
C3735 C 0.96525 0.46066 0.7026 0.0
C3736 C 0.97631 0.47826 0.62639 0.0
C3737 C 0.99896 0.48377 0.62742 0.0
C3738 C 0.96685 0.4804 0.64686 0.0
C3739 C 0.98059 0.48889 0.66828 0.0
C3740 C 1.00321 0.49152 0.66946 0.0
C3741 C 0.01212 0.48842 0.64887 0.0
C3742 C 0.94249 0.47649 0.64548 0.0
C3743 C 0.01836 0.50123 0.69201 0.0
H3744 H 0.96385 0.55275 0.71334 0.0
H3745 H 0.95 0.48677 0.73614 0.0
H3746 H 0.99607 0.53728 0.67024 0.0
H3747 H 0.96846 0.53213 0.6573 0.0
H3748 H 0.98014 0.55763 0.67992 0.0
H3749 H 0.95662 0.4521 0.71561 0.0
H3750 H 0.958 0.45051 0.68497 0.0
H3751 H 0.98243 0.4596 0.70511 0.0
H3752 H 0.9662 0.47454 0.60975 0.0
H3753 H 0.02967 0.49292 0.64967 0.0
H3754 H 0.93829 0.4938 0.64909 0.0
H3755 H 0.9363 0.46651 0.65878 0.0
H3756 H 0.934 0.46675 0.62809 0.0
H3757 H 0.02014 0.52056 0.69675 0.0
H3758 H 0.03478 0.49817 0.69055 0.0
H3759 H 0.01176 0.49327 0.70636 0.0
C3760 C 0.30064 0.24816 0.43105 0.0
C3761 C 0.29303 0.22362 0.42902 0.0
C3762 C 0.30378 0.25847 0.41128 0.0
C3763 C 0.29874 0.24403 0.38872 0.0
C3764 C 0.29103 0.21929 0.3866 0.0
C3765 C 0.28848 0.20944 0.40664 0.0
C3766 C 0.31218 0.28488 0.41459 0.0
C3767 C 0.28564 0.20311 0.36306 0.0
C3768 C 0.2855 0.26857 0.33439 0.0
C3769 C 0.30516 0.27152 0.32503 0.0
C3770 C 0.28348 0.26058 0.35552 0.0
C3771 C 0.30127 0.25453 0.36722 0.0
C3772 C 0.32113 0.25747 0.35767 0.0
C3773 C 0.32292 0.26633 0.33702 0.0
C3774 C 0.26229 0.25865 0.36537 0.0
C3775 C 0.34062 0.25142 0.36931 0.0
H3776 H 0.30431 0.25936 0.44816 0.0
H3777 H 0.2826 0.19049 0.40472 0.0
H3778 H 0.32535 0.28945 0.40388 0.0
H3779 H 0.29884 0.29264 0.40881 0.0
H3780 H 0.31846 0.29318 0.43302 0.0
H3781 H 0.2784 0.1845 0.36413 0.0
H3782 H 0.27409 0.20901 0.35158 0.0
H3783 H 0.30065 0.20383 0.35477 0.0
H3784 H 0.27188 0.2732 0.32557 0.0
H3785 H 0.33825 0.26898 0.33005 0.0
H3786 H 0.26527 0.26811 0.38372 0.0
H3787 H 0.25459 0.23985 0.36513 0.0
H3788 H 0.25077 0.26607 0.35548 0.0
H3789 H 0.34689 0.26409 0.38596 0.0
H3790 H 0.35394 0.2521 0.35837 0.0
H3791 H 0.33599 0.23351 0.37336 0.0
C3792 C 0.35599 0.62532 0.51591 0.0
C3793 C 0.34096 0.60941 0.5252 0.0
C3794 C 0.37347 0.61874 0.50666 0.0
C3795 C 0.37591 0.59578 0.50689 0.0
C3796 C 0.36059 0.57945 0.51578 0.0
C3797 C 0.34325 0.58656 0.52502 0.0
C3798 C 0.3892 0.63634 0.49669 0.0
C3799 C 0.36286 0.55475 0.51623 0.0
C3800 C 0.41514 0.56872 0.47482 0.0
C3801 C 0.43147 0.5708 0.49324 0.0
C3802 C 0.39717 0.57794 0.47859 0.0
C3803 C 0.39602 0.58981 0.50111 0.0
C3804 C 0.41339 0.59402 0.51913 0.0
C3805 C 0.43081 0.58418 0.51506 0.0
C3806 C 0.37892 0.57386 0.45899 0.0
C3807 C 0.41291 0.60766 0.54311 0.0
H3808 H 0.35403 0.64296 0.51567 0.0
H3809 H 0.33136 0.57414 0.53173 0.0
H3810 H 0.40629 0.6365 0.50247 0.0
H3811 H 0.3864 0.63124 0.47748 0.0
H3812 H 0.3871 0.65454 0.5016 0.0
H3813 H 0.34794 0.54332 0.52045 0.0
H3814 H 0.36649 0.5464 0.49923 0.0
H3815 H 0.37664 0.55555 0.52952 0.0
H3816 H 0.41594 0.55903 0.45775 0.0
H3817 H 0.4432 0.5858 0.52949 0.0
H3818 H 0.37531 0.59087 0.45693 0.0
H3819 H 0.36392 0.56254 0.46312 0.0
H3820 H 0.38284 0.56523 0.44224 0.0
H3821 H 0.40997 0.62519 0.54197 0.0
H3822 H 0.42832 0.61039 0.55482 0.0
H3823 H 0.39937 0.59806 0.55106 0.0
C3824 C 0.90233 0.9531 0.55183 0.0
C3825 C 0.88976 0.93825 0.5318 0.0
C3826 C 0.92406 0.96556 0.55149 0.0
C3827 C 0.93364 0.96314 0.53065 0.0
C3828 C 0.92125 0.9472 0.51071 0.0
C3829 C 0.89953 0.93525 0.51147 0.0
C3830 C 0.93631 0.98244 0.57315 0.0
C3831 C 0.93075 0.94321 0.4883 0.0
C3832 C 0.97874 0.01535 0.52231 0.0
C3833 C 0.99778 0.00853 0.52865 0.0
C3834 C 0.95792 1.00067 0.5226 0.0
C3835 C 0.9559 0.97845 0.52931 0.0
C3836 C 0.9752 0.97135 0.53521 0.0
C3837 C 0.99581 0.98657 0.53512 0.0
C3838 C 0.93802 0.00912 0.51606 0.0
C3839 C 0.97417 0.9479 0.54222 0.0
H3840 H 0.8948 0.95599 0.56746 0.0
H3841 H 0.88986 0.92402 0.49583 0.0
H3842 H 0.95307 0.98026 0.57649 0.0
H3843 H 0.93762 1.00082 0.57072 0.0
H3844 H 0.92807 0.97992 0.58865 0.0
H3845 H 0.91899 0.9305 0.47425 0.0
H3846 H 0.93601 0.96014 0.48241 0.0
H3847 H 0.94537 0.93634 0.49116 0.0
H3848 H 0.98014 0.03238 0.51744 0.0
H3849 H 0.01045 0.98147 0.54056 0.0
H3850 H 0.9285 0.01025 0.53085 0.0
H3851 H 0.92738 0.99629 0.50129 0.0
H3852 H 0.94219 0.02669 0.51112 0.0
H3853 H 0.96926 0.94862 0.55982 0.0
H3854 H 0.99009 0.94328 0.54252 0.0
H3855 H 0.96183 0.93364 0.53017 0.0
C3856 C 0.88283 0.13707 0.24164 0.0
C3857 C 0.8953 0.13261 0.26089 0.0
C3858 C 0.87245 0.15656 0.24293 0.0
C3859 C 0.87319 0.17271 0.26425 0.0
C3860 C 0.88549 0.16811 0.28388 0.0
C3861 C 0.89635 0.14894 0.28193 0.0
C3862 C 0.86092 0.16018 0.22091 0.0
C3863 C 0.88655 0.18287 0.3076 0.0
C3864 C 0.86051 0.23628 0.26566 0.0
C3865 C 0.83793 0.2328 0.26735 0.0
C3866 C 0.87186 0.21757 0.26479 0.0
C3867 C 0.8611 0.19375 0.26585 0.0
C3868 C 0.83845 0.19036 0.26821 0.0
C3869 C 0.82744 0.20925 0.26859 0.0
C3870 C 0.89573 0.22347 0.26258 0.0
C3871 C 0.82554 0.16648 0.27065 0.0
H3872 H 0.88149 0.12541 0.22505 0.0
H3873 H 0.90536 0.14641 0.29737 0.0
H3874 H 0.84363 0.15942 0.22267 0.0
H3875 H 0.86837 0.178 0.21776 0.0
H3876 H 0.86168 0.14678 0.20558 0.0
H3877 H 0.90061 0.1819 0.31966 0.0
H3878 H 0.88759 0.20162 0.30684 0.0
H3879 H 0.87145 0.17613 0.31489 0.0
H3880 H 0.86951 0.25385 0.26472 0.0
H3881 H 0.81023 0.2054 0.27003 0.0
H3882 H 0.89868 0.21209 0.24683 0.0
H3883 H 0.90508 0.21977 0.27772 0.0
H3884 H 0.90205 0.24226 0.26154 0.0
H3885 H 0.82312 0.1539 0.25388 0.0
H3886 H 0.80933 0.16706 0.27585 0.0
H3887 H 0.83453 0.15953 0.28376 0.0
C3888 C 0.71127 0.12903 1.0012 0.0
C3889 C 0.72659 0.11741 0.00855 0.0
C3890 C 0.68926 0.11866 0.99989 0.0
C3891 C 0.68303 0.09673 0.00674 0.0
C3892 C 0.6984 0.08424 0.01264 0.0
C3893 C 0.72026 0.09471 0.01313 0.0
C3894 C 0.67285 0.13179 0.99271 0.0
C3895 C 0.69185 0.06065 0.01984 0.0
C3896 C 0.63157 0.0866 0.03329 0.0
C3897 C 0.61744 0.07148 0.01463 0.0
C3898 C 0.65335 0.09495 0.03098 0.0
C3899 C 0.66058 0.08773 0.00959 0.0
C3900 C 0.64649 0.072 0.99099 0.0
C3901 C 0.625 0.06393 0.99384 0.0
C3902 C 0.6685 0.11164 0.05115 0.0
C3903 C 0.65377 0.06433 0.96786 0.0
H3904 H 0.71652 0.1465 0.9973 0.0
H3905 H 0.73237 0.08586 0.01868 0.0
H3906 H 0.65896 0.11969 0.9806 0.0
H3907 H 0.66629 0.13927 0.00827 0.0
H3908 H 0.68016 0.14649 0.98424 0.0
H3909 H 0.70602 0.05338 0.02396 0.0
H3910 H 0.68333 0.06249 0.03538 0.0
H3911 H 0.68034 0.04774 0.00579 0.0
H3912 H 0.62558 0.09216 0.0494 0.0
H3913 H 0.61412 0.05167 0.97966 0.0
H3914 H 0.67441 0.12907 0.04641 0.0
H3915 H 0.68295 0.10484 0.05526 0.0
H3916 H 0.66049 0.11424 0.067 0.0
H3917 H 0.65612 0.07923 0.95849 0.0
H3918 H 0.64163 0.04906 0.95677 0.0
H3919 H 0.66952 0.05949 0.97018 0.0
C3920 C 0.21175 0.50063 0.28072 0.0
C3921 C 0.21106 0.50095 0.25712 0.0
C3922 C 0.2203 0.48402 0.28985 0.0
C3923 C 0.22797 0.46759 0.27469 0.0
C3924 C 0.22681 0.46765 0.25062 0.0
C3925 C 0.21843 0.48469 0.24208 0.0
C3926 C 0.2216 0.48461 0.31563 0.0
C3927 C 0.23434 0.44976 0.23399 0.0
C3928 C 0.27252 0.44157 0.2945 0.0
C3929 C 0.26106 0.41822 0.29324 0.0
C3930 C 0.26162 0.4584 0.28993 0.0
C3931 C 0.23884 0.45144 0.28401 0.0
C3932 C 0.22697 0.42832 0.28427 0.0
C3933 C 0.23835 0.41175 0.28878 0.0
C3934 C 0.27459 0.48305 0.28965 0.0
C3935 C 0.2025 0.42094 0.27869 0.0
H3936 H 0.20553 0.51332 0.29195 0.0
H3937 H 0.21706 0.48494 0.22366 0.0
H3938 H 0.21915 0.46667 0.3196 0.0
H3939 H 0.23795 0.49506 0.3242 0.0
H3940 H 0.20937 0.49312 0.32332 0.0
H3941 H 0.23236 0.45252 0.21583 0.0
H3942 H 0.25172 0.45072 0.23931 0.0
H3943 H 0.22493 0.43169 0.23442 0.0
H3944 H 0.29014 0.44634 0.29758 0.0
H3945 H 0.22966 0.39362 0.288 0.0
H3946 H 0.26781 0.49635 0.30011 0.0
H3947 H 0.27352 0.48612 0.27159 0.0
H3948 H 0.29201 0.486 0.29652 0.0
H3949 H 0.1952 0.43307 0.29009 0.0
H3950 H 0.19571 0.4026 0.2809 0.0
H3951 H 0.19754 0.42219 0.26052 0.0
C3952 C 0.23914 0.40802 0.03172 0.0
C3953 C 0.26032 0.41806 0.02789 0.0
C3954 C 0.22178 0.418 0.02597 0.0
C3955 C 0.22546 0.43791 0.01517 0.0
C3956 C 0.24654 0.44697 0.00972 0.0
C3957 C 0.26378 0.43737 0.01668 0.0
C3958 C 0.19961 0.40768 0.03209 0.0
C3959 C 0.25116 0.46738 0.99724 0.0
C3960 C 0.17529 0.45694 0.99198 0.0
C3961 C 0.17402 0.47453 0.01065 0.0
C3962 C 0.19214 0.44506 0.99282 0.0
C3963 C 0.20817 0.45112 0.01269 0.0
C3964 C 0.20731 0.46952 0.03106 0.0
C3965 C 0.19028 0.48083 0.02985 0.0
C3966 C 0.19264 0.42589 0.97264 0.0
C3967 C 0.22407 0.47689 0.05245 0.0
H3968 H 0.23631 0.39287 0.04005 0.0
H3969 H 0.27998 0.44494 0.01316 0.0
H3970 H 0.19348 0.42165 0.04244 0.0
H3971 H 0.18795 0.40025 0.01598 0.0
H3972 H 0.19979 0.39348 0.04212 0.0
H3973 H 0.26645 0.46849 0.98937 0.0
H3974 H 0.23763 0.46582 0.98337 0.0
H3975 H 0.25284 0.48412 0.00974 0.0
H3976 H 0.16286 0.4521 0.97699 0.0
H3977 H 0.18967 0.49477 0.04408 0.0
H3978 H 0.18928 0.40857 0.97805 0.0
H3979 H 0.20902 0.4289 0.96703 0.0
H3980 H 0.18043 0.42493 0.95758 0.0
H3981 H 0.22277 0.46212 0.06194 0.0
H3982 H 0.22202 0.49263 0.06439 0.0
H3983 H 0.24069 0.48099 0.04755 0.0
C3984 C 0.90266 0.9646 0.27174 0.0
C3985 C 0.8945 0.97941 0.25861 0.0
C3986 C 0.89021 0.94195 0.27402 0.0
C3987 C 0.86872 0.93224 0.26204 0.0
C3988 C 0.86029 0.94704 0.24863 0.0
C3989 C 0.8729 0.97021 0.24741 0.0
C3990 C 0.90042 0.92839 0.28939 0.0
C3991 C 0.83778 0.93828 0.23523 0.0
C3992 C 0.84408 0.86303 0.25188 0.0
C3993 C 0.82864 0.86048 0.26759 0.0
C3994 C 0.85694 0.8858 0.24983 0.0
C3995 C 0.8551 0.90723 0.26405 0.0
C3996 C 0.84007 0.90448 0.28044 0.0
C3997 C 0.82705 0.88172 0.28163 0.0
C3998 C 0.87211 0.88695 0.23172 0.0
C3999 C 0.83786 0.92574 0.2972 0.0
H4000 H 0.91916 0.97089 0.28062 0.0
H4001 H 0.86601 0.98074 0.23692 0.0
H4002 H 0.88857 0.92003 0.29999 0.0
H4003 H 0.90573 0.91415 0.27846 0.0
H4004 H 0.91486 0.93987 0.30123 0.0
H4005 H 0.83492 0.94917 0.22226 0.0
H4006 H 0.83504 0.91965 0.22615 0.0
H4007 H 0.82559 0.93889 0.24742 0.0
H4008 H 0.84544 0.84731 0.24034 0.0
H4009 H 0.81529 0.88056 0.29379 0.0
H4010 H 0.8891 0.89444 0.24021 0.0
H4011 H 0.86835 0.89887 0.22018 0.0
H4012 H 0.87098 0.86931 0.22097 0.0
H4013 H 0.8534 0.93353 0.30894 0.0
H4014 H 0.82465 0.92127 0.30792 0.0
H4015 H 0.8346 0.93948 0.28776 0.0
C4016 C 0.69057 0.13782 0.73107 0.0
C4017 C 0.68351 0.12678 0.74894 0.0
C4018 C 0.70789 0.15768 0.73587 0.0
C4019 C 0.71761 0.16661 0.75914 0.0
C4020 C 0.70931 0.15662 0.77751 0.0
C4021 C 0.69232 0.13632 0.77209 0.0
C4022 C 0.71676 0.16799 0.71595 0.0
C4023 C 0.71899 0.16677 0.80254 0.0
C4024 C 0.77552 0.20052 0.76396 0.0
C4025 C 0.77235 0.22303 0.76514 0.0
C4026 C 0.75768 0.1817 0.7633 0.0
C4027 C 0.7368 0.18619 0.76394 0.0
C4028 C 0.73393 0.20924 0.76609 0.0
C4029 C 0.75182 0.22741 0.76605 0.0
C4030 C 0.76097 0.15706 0.76085 0.0
C4031 C 0.71192 0.21457 0.76704 0.0
H4032 H 0.68386 0.12968 0.71321 0.0
H4033 H 0.68677 0.12713 0.78566 0.0
H4034 H 0.71733 0.18708 0.71863 0.0
H4035 H 0.73364 0.1662 0.71517 0.0
H4036 H 0.70685 0.15912 0.69896 0.0
H4037 H 0.71091 0.15638 0.81468 0.0
H4038 H 0.7366 0.1674 0.80493 0.0
H4039 H 0.71752 0.1852 0.80728 0.0
H4040 H 0.79166 0.19768 0.76308 0.0
H4041 H 0.74978 0.24515 0.7666 0.0
H4042 H 0.75257 0.14636 0.7438 0.0
H4043 H 0.7537 0.14838 0.7745 0.0
H4044 H 0.77844 0.15696 0.7621 0.0
H4045 H 0.70259 0.20947 0.74936 0.0
H4046 H 0.71334 0.23364 0.7735 0.0
H4047 H 0.70244 0.20431 0.77838 0.0
loop_
_geom_bond_atom_site_label_1
_geom_bond_atom_site_label_2
_geom_bond_distance
_geom_bond_site_symmetry_2
_ccdc_geom_bond_type
C0 O1 1.306 . S
C0 O3 1.160 . S
O1 C0 1.306 . S
O1 Cd2 2.228 . S
Cd2 O1 2.228 . S
Cd2 O6 2.273 . S
Cd2 O10 2.277 . S
O3 C0 1.160 . S
O3 Cd4 2.203 . S
Cd4 O3 2.203 . S
Cd4 O6 2.411 . S
Cd4 O7 2.333 . S
Cd4 O8 2.352 . S
Cd4 O12 2.277 . S
Cd4 O13 2.356 . S
C5 O10 1.209 . S
C5 O12 1.226 . S
O6 Cd2 2.273 . S
O6 Cd4 2.411 . S
O6 C9 1.320 . S
O7 Cd4 2.333 . S
O7 C9 1.214 . S
O8 Cd4 2.352 . S
O8 C11 1.258 . S
C9 O6 1.320 . S
C9 O7 1.214 . S
O10 Cd2 2.277 . S
O10 C5 1.209 . S
C11 O8 1.258 . S
C11 O13 1.282 . S
O12 Cd4 2.277 . S
O12 C5 1.226 . S
O13 Cd4 2.356 . S
O13 C11 1.282 . S
C14 O15 1.306 . S
C14 O17 1.160 . S
O15 C14 1.306 . S
O15 Cd16 2.228 1_655 S
Cd16 O15 2.228 1_455 S
Cd16 O20 2.273 . S
Cd16 O24 2.277 1_455 S
O17 C14 1.160 . S
O17 Cd18 2.150 1_655 S
Cd18 O17 2.150 1_455 S
Cd18 O20 2.437 . S
Cd18 O21 2.387 . S
Cd18 O22 2.343 . S
Cd18 O26 2.281 1_455 S
Cd18 O27 2.360 . S
C19 O24 1.209 . S
C19 O26 1.226 . S
O20 Cd16 2.273 . S
O20 Cd18 2.437 . S
O20 C23 1.320 . S
O21 Cd18 2.387 . S
O21 C23 1.214 . S
O22 Cd18 2.343 . S
O22 C25 1.258 . S
C23 O20 1.320 . S
C23 O21 1.214 . S
O24 Cd16 2.277 1_655 S
O24 C19 1.209 . S
C25 O22 1.258 . S
C25 O27 1.282 . S
O26 Cd18 2.281 1_655 S
O26 C19 1.226 . S
O27 Cd18 2.360 . S
O27 C25 1.282 . S
C28 O29 1.306 . S
C28 O31 1.160 . S
O29 C28 1.306 . S
O29 Cd30 2.228 . S
Cd30 O29 2.228 . S
Cd30 O34 2.273 . S
Cd30 O38 2.277 . S
O31 C28 1.160 . S
O31 Cd32 2.203 . S
Cd32 O31 2.203 . S
Cd32 O34 2.411 . S
Cd32 O35 2.333 . S
Cd32 O36 2.352 . S
Cd32 O40 2.277 . S
Cd32 O41 2.356 . S
C33 O38 1.209 . S
C33 O40 1.226 . S
O34 Cd30 2.273 . S
O34 Cd32 2.411 . S
O34 C37 1.320 . S
O35 Cd32 2.333 . S
O35 C37 1.214 . S
O36 Cd32 2.352 . S
O36 C39 1.258 . S
C37 O34 1.320 . S
C37 O35 1.214 . S
O38 Cd30 2.277 . S
O38 C33 1.209 . S
C39 O36 1.258 . S
C39 O41 1.282 . S
O40 Cd32 2.277 . S
O40 C33 1.226 . S
O41 Cd32 2.356 . S
O41 C39 1.282 . S
C42 O43 1.306 . S
C42 O45 1.160 . S
O43 C42 1.306 . S
O43 Cd44 2.228 . S
Cd44 O43 2.228 . S
Cd44 O48 2.273 . S
Cd44 O52 2.277 . S
O45 C42 1.160 . S
O45 Cd46 2.203 . S
Cd46 O45 2.203 . S
Cd46 O48 2.411 . S
Cd46 O49 2.333 . S
Cd46 O50 2.352 . S
Cd46 O54 2.277 . S
Cd46 O55 2.356 . S
C47 O52 1.209 . S
C47 O54 1.226 . S
O48 Cd44 2.273 . S
O48 Cd46 2.411 . S
O48 C51 1.320 . S
O49 Cd46 2.333 . S
O49 C51 1.214 . S
O50 Cd46 2.352 . S
O50 C53 1.258 . S
C51 O48 1.320 . S
C51 O49 1.214 . S
O52 Cd44 2.277 . S
O52 C47 1.209 . S
C53 O50 1.258 . S
C53 O55 1.282 . S
O54 Cd46 2.277 . S
O54 C47 1.226 . S
O55 Cd46 2.356 . S
O55 C53 1.282 . S
C56 O57 1.306 . S
C56 O59 1.160 . S
O57 C56 1.306 . S
O57 Cd58 2.228 . S
Cd58 O57 2.228 . S
Cd58 O62 2.273 . S
Cd58 O66 2.277 . S
O59 C56 1.160 . S
O59 Cd60 2.203 . S
Cd60 O59 2.203 . S
Cd60 O62 2.411 . S
Cd60 O63 2.333 . S
Cd60 O64 2.352 . S
Cd60 O68 2.277 . S
Cd60 O69 2.356 . S
C61 O66 1.209 . S
C61 O68 1.226 . S
O62 Cd58 2.273 . S
O62 Cd60 2.411 . S
O62 C65 1.320 . S
O63 Cd60 2.333 . S
O63 C65 1.214 . S
O64 Cd60 2.352 . S
O64 C67 1.258 . S
C65 O62 1.320 . S
C65 O63 1.214 . S
O66 Cd58 2.277 . S
O66 C61 1.209 . S
C67 O64 1.258 . S
C67 O69 1.282 . S
O68 Cd60 2.277 . S
O68 C61 1.226 . S
O69 Cd60 2.356 . S
O69 C67 1.282 . S
C70 O71 1.306 . S
C70 O73 1.160 . S
O71 C70 1.306 . S
O71 Cd72 2.228 . S
Cd72 O71 2.228 . S
Cd72 O76 2.273 . S
Cd72 O80 2.277 . S
O73 C70 1.160 . S
O73 Cd74 2.203 . S
Cd74 O73 2.203 . S
Cd74 O76 2.411 . S
Cd74 O77 2.333 . S
Cd74 O78 2.352 . S
Cd74 O82 2.277 . S
Cd74 O83 2.356 . S
C75 O80 1.209 . S
C75 O82 1.226 . S
O76 Cd72 2.273 . S
O76 Cd74 2.411 . S
O76 C79 1.320 . S
O77 Cd74 2.333 . S
O77 C79 1.214 . S
O78 Cd74 2.352 . S
O78 C81 1.258 . S
C79 O76 1.320 . S
C79 O77 1.214 . S
O80 Cd72 2.277 . S
O80 C75 1.209 . S
C81 O78 1.258 . S
C81 O83 1.282 . S
O82 Cd74 2.277 . S
O82 C75 1.226 . S
O83 Cd74 2.356 . S
O83 C81 1.282 . S
C84 O85 1.306 . S
C84 O87 1.160 . S
O85 C84 1.306 . S
O85 Cd86 2.228 . S
Cd86 O85 2.228 . S
Cd86 O90 2.273 . S
Cd86 O94 2.277 . S
O87 C84 1.160 . S
O87 Cd88 2.203 . S
Cd88 O87 2.203 . S
Cd88 O90 2.411 . S
Cd88 O91 2.333 . S
Cd88 O92 2.352 . S
Cd88 O96 2.277 . S
Cd88 O97 2.356 . S
C89 O94 1.209 . S
C89 O96 1.226 . S
O90 Cd86 2.273 . S
O90 Cd88 2.411 . S
O90 C93 1.320 . S
O91 Cd88 2.333 . S
O91 C93 1.214 . S
O92 Cd88 2.352 . S
O92 C95 1.258 . S
C93 O90 1.320 . S
C93 O91 1.214 . S
O94 Cd86 2.277 . S
O94 C89 1.209 . S
C95 O92 1.258 . S
C95 O97 1.282 . S
O96 Cd88 2.277 . S
O96 C89 1.226 . S
O97 Cd88 2.356 . S
O97 C95 1.282 . S
C98 O99 1.306 . S
C98 O101 1.160 . S
O99 C98 1.306 . S
O99 Cd100 2.228 1_655 S
Cd100 O99 2.228 1_455 S
Cd100 O104 2.273 . S
Cd100 O108 2.277 . S
O101 C98 1.160 . S
O101 Cd102 2.203 1_655 S
Cd102 O101 2.203 1_455 S
Cd102 O104 2.411 . S
Cd102 O105 2.333 . S
Cd102 O106 2.352 . S
Cd102 O110 2.277 . S
Cd102 O111 2.356 . S
C103 O108 1.209 . S
C103 O110 1.226 . S
O104 Cd100 2.273 . S
O104 Cd102 2.411 . S
O104 C107 1.320 . S
O105 Cd102 2.333 . S
O105 C107 1.214 . S
O106 Cd102 2.352 . S
O106 C109 1.258 . S
C107 O104 1.320 . S
C107 O105 1.214 . S
O108 Cd100 2.277 . S
O108 C103 1.209 . S
C109 O106 1.258 . S
C109 O111 1.282 . S
O110 Cd102 2.277 . S
O110 C103 1.226 . S
O111 Cd102 2.356 . S
O111 C109 1.282 . S
C112 O113 1.306 1_545 S
C112 O115 1.160 . S
O113 C112 1.306 1_565 S
O113 Cd114 2.228 . S
Cd114 O113 2.228 . S
Cd114 O118 2.273 1_565 S
Cd114 O122 2.277 . S
O115 C112 1.160 . S
O115 Cd116 2.203 . S
Cd116 O115 2.203 . S
Cd116 O118 2.411 . S
Cd116 O119 2.333 1_545 S
Cd116 O120 2.352 . S
Cd116 O124 2.277 1_545 S
Cd116 O125 2.356 . S
C117 O122 1.209 . S
C117 O124 1.226 . S
O118 Cd114 2.273 1_545 S
O118 Cd116 2.411 . S
O118 C121 1.319 . S
O119 Cd116 2.333 1_565 S
O119 C121 1.215 1_565 S
O120 Cd116 2.352 . S
O120 C123 1.258 . S
C121 O118 1.319 . S
C121 O119 1.215 1_545 S
O122 Cd114 2.277 . S
O122 C117 1.209 . S
C123 O120 1.258 . S
C123 O125 1.282 . S
O124 Cd116 2.277 1_565 S
O124 C117 1.226 . S
O125 Cd116 2.356 . S
O125 C123 1.282 . S
C126 O127 1.306 . S
C126 O129 1.160 . S
O127 C126 1.306 . S
O127 Cd128 2.228 . S
Cd128 O127 2.228 . S
Cd128 O132 2.273 . S
Cd128 O136 2.277 . S
O129 C126 1.160 . S
O129 Cd130 2.203 . S
Cd130 O129 2.203 . S
Cd130 O132 2.411 . S
Cd130 O133 2.333 . S
Cd130 O134 2.352 . S
Cd130 O138 2.277 . S
Cd130 O139 2.356 . S
C131 O136 1.209 . S
C131 O138 1.226 . S
O132 Cd128 2.273 . S
O132 Cd130 2.411 . S
O132 C135 1.320 . S
O133 Cd130 2.333 . S
O133 C135 1.214 . S
O134 Cd130 2.352 . S
O134 C137 1.258 . S
C135 O132 1.320 . S
C135 O133 1.214 . S
O136 Cd128 2.277 . S
O136 C131 1.209 . S
C137 O134 1.258 . S
C137 O139 1.282 . S
O138 Cd130 2.277 . S
O138 C131 1.226 . S
O139 Cd130 2.356 . S
O139 C137 1.282 . S
C140 O141 1.306 . S
C140 O143 1.160 . S
O141 C140 1.306 . S
O141 Cd142 2.228 . S
Cd142 O141 2.228 . S
Cd142 O146 2.273 . S
Cd142 O150 2.277 . S
O143 C140 1.160 . S
O143 Cd144 2.203 . S
Cd144 O143 2.203 . S
Cd144 O146 2.411 . S
Cd144 O147 2.331 . S
Cd144 O148 2.352 1_545 S
Cd144 O152 2.277 . S
Cd144 O153 2.356 1_545 S
C145 O150 1.209 . S
C145 O152 1.226 . S
O146 Cd142 2.273 . S
O146 Cd144 2.411 . S
O146 C149 1.320 . S
O147 Cd144 2.331 . S
O147 C149 1.219 . S
O148 Cd144 2.352 1_565 S
O148 C151 1.258 . S
C149 O146 1.320 . S
C149 O147 1.219 . S
O150 Cd142 2.277 . S
O150 C145 1.209 . S
C151 O148 1.258 . S
C151 O153 1.282 . S
O152 Cd144 2.277 . S
O152 C145 1.226 . S
O153 Cd144 2.356 1_565 S
O153 C151 1.282 . S
C154 O155 1.306 1_554 S
C154 O157 1.160 . S
O155 C154 1.306 1_556 S
O155 Cd156 2.228 . S
Cd156 O155 2.228 . S
Cd156 O160 2.273 1_556 S
Cd156 O164 2.277 . S
O157 C154 1.160 . S
O157 Cd158 2.203 . S
Cd158 O157 2.203 . S
Cd158 O160 2.411 . S
Cd158 O161 2.333 . S
Cd158 O162 2.352 . S
Cd158 O166 2.277 1_554 S
Cd158 O167 2.356 . S
C159 O164 1.209 . S
C159 O166 1.226 . S
O160 Cd156 2.273 1_554 S
O160 Cd158 2.411 . S
O160 C163 1.320 . S
O161 Cd158 2.333 . S
O161 C163 1.214 . S
O162 Cd158 2.352 . S
O162 C165 1.258 . S
C163 O160 1.320 . S
C163 O161 1.214 . S
O164 Cd156 2.277 . S
O164 C159 1.209 . S
C165 O162 1.258 . S
C165 O167 1.282 . S
O166 Cd158 2.277 1_556 S
O166 C159 1.226 . S
O167 Cd158 2.356 . S
O167 C165 1.282 . S
C168 O169 1.306 . S
C168 O171 1.160 . S
O169 C168 1.306 . S
O169 Cd170 2.228 1_554 S
Cd170 O169 2.228 1_556 S
Cd170 O174 2.273 1_556 S
Cd170 O178 2.277 . S
O171 C168 1.160 . S
O171 Cd172 2.203 . S
Cd172 O171 2.203 . S
Cd172 O174 2.411 . S
Cd172 O175 2.333 . S
Cd172 O176 2.352 . S
Cd172 O180 2.277 1_554 S
Cd172 O181 2.356 . S
C173 O178 1.209 . S
C173 O180 1.226 . S
O174 Cd170 2.273 1_554 S
O174 Cd172 2.411 . S
O174 C177 1.320 . S
O175 Cd172 2.333 . S
O175 C177 1.214 . S
O176 Cd172 2.352 . S
O176 C179 1.258 . S
C177 O174 1.320 . S
C177 O175 1.214 . S
O178 Cd170 2.277 . S
O178 C173 1.209 . S
C179 O176 1.258 . S
C179 O181 1.282 . S
O180 Cd172 2.277 1_556 S
O180 C173 1.226 . S
O181 Cd172 2.356 . S
O181 C179 1.282 . S
C182 O183 1.306 . S
C182 O185 1.160 . S
O183 C182 1.306 . S
O183 Cd184 2.228 . S
Cd184 O183 2.228 . S
Cd184 O188 2.273 . S
Cd184 O192 2.277 . S
O185 C182 1.160 . S
O185 Cd186 2.203 . S
Cd186 O185 2.203 . S
Cd186 O188 2.411 . S
Cd186 O189 2.333 . S
Cd186 O190 2.352 1_554 S
Cd186 O194 2.277 . S
Cd186 O195 2.356 1_554 S
C187 O192 1.209 . S
C187 O194 1.226 . S
O188 Cd184 2.273 . S
O188 Cd186 2.411 . S
O188 C191 1.320 . S
O189 Cd186 2.333 . S
O189 C191 1.214 . S
O190 Cd186 2.352 1_556 S
O190 C193 1.258 . S
C191 O188 1.320 . S
C191 O189 1.214 . S
O192 Cd184 2.277 . S
O192 C187 1.209 . S
C193 O190 1.258 . S
C193 O195 1.282 . S
O194 Cd186 2.277 . S
O194 C187 1.226 . S
O195 Cd186 2.356 1_556 S
O195 C193 1.282 . S
C196 O197 1.306 . S
C196 O199 1.160 . S
O197 C196 1.306 . S
O197 Cd198 2.228 . S
Cd198 O197 2.228 . S
Cd198 O202 2.273 . S
Cd198 O206 2.277 . S
O199 C196 1.160 . S
O199 Cd200 2.203 . S
Cd200 O199 2.203 . S
Cd200 O202 2.411 . S
Cd200 O203 2.333 . S
Cd200 O204 2.352 . S
Cd200 O208 2.277 . S
Cd200 O209 2.356 . S
C201 O206 1.209 . S
C201 O208 1.226 . S
O202 Cd198 2.273 . S
O202 Cd200 2.411 . S
O202 C205 1.320 . S
O203 Cd200 2.333 . S
O203 C205 1.214 . S
O204 Cd200 2.352 . S
O204 C207 1.258 . S
C205 O202 1.320 . S
C205 O203 1.214 . S
O206 Cd198 2.277 . S
O206 C201 1.209 . S
C207 O204 1.258 . S
C207 O209 1.282 . S
O208 Cd200 2.277 . S
O208 C201 1.226 . S
O209 Cd200 2.356 . S
O209 C207 1.282 . S
C210 O211 1.306 . S
C210 O213 1.160 . S
O211 C210 1.306 . S
O211 Cd212 2.228 . S
Cd212 O211 2.228 . S
Cd212 O216 2.273 . S
Cd212 O220 2.277 . S
O213 C210 1.160 . S
O213 Cd214 2.203 . S
Cd214 O213 2.203 . S
Cd214 O216 2.411 . S
Cd214 O217 2.333 . S
Cd214 O218 2.352 . S
Cd214 O222 2.277 . S
Cd214 O223 2.356 . S
C215 O220 1.209 . S
C215 O222 1.226 . S
O216 Cd212 2.273 . S
O216 Cd214 2.411 . S
O216 C219 1.320 . S
O217 Cd214 2.333 . S
O217 C219 1.214 . S
O218 Cd214 2.352 . S
O218 C221 1.258 . S
C219 O216 1.320 . S
C219 O217 1.214 . S
O220 Cd212 2.277 . S
O220 C215 1.209 . S
C221 O218 1.258 . S
C221 O223 1.282 . S
O222 Cd214 2.277 . S
O222 C215 1.226 . S
O223 Cd214 2.356 . S
O223 C221 1.282 . S
C224 O225 1.306 . S
C224 O227 1.160 . S
O225 C224 1.306 . S
O225 Cd226 2.228 . S
Cd226 O225 2.228 . S
Cd226 O230 2.273 . S
Cd226 O234 2.277 . S
O227 C224 1.160 . S
O227 Cd228 2.203 . S
Cd228 O227 2.203 . S
Cd228 O230 2.411 . S
Cd228 O231 2.333 . S
Cd228 O232 2.352 . S
Cd228 O236 2.277 . S
Cd228 O237 2.356 . S
C229 O234 1.209 . S
C229 O236 1.226 . S
O230 Cd226 2.273 . S
O230 Cd228 2.411 . S
O230 C233 1.320 . S
O231 Cd228 2.333 . S
O231 C233 1.214 . S
O232 Cd228 2.352 . S
O232 C235 1.258 . S
C233 O230 1.320 . S
C233 O231 1.214 . S
O234 Cd226 2.277 . S
O234 C229 1.209 . S
C235 O232 1.258 . S
C235 O237 1.282 . S
O236 Cd228 2.277 . S
O236 C229 1.226 . S
O237 Cd228 2.356 . S
O237 C235 1.282 . S
C238 O239 1.306 . S
C238 O241 1.160 . S
O239 C238 1.306 . S
O239 Cd240 2.228 . S
Cd240 O239 2.228 . S
Cd240 O244 2.273 . S
Cd240 O248 2.277 . S
O241 C238 1.160 . S
O241 Cd242 2.203 . S
Cd242 O241 2.203 . S
Cd242 O244 2.411 . S
Cd242 O245 2.333 . S
Cd242 O246 2.352 . S
Cd242 O250 2.277 . S
Cd242 O251 2.356 . S
C243 O248 1.209 . S
C243 O250 1.226 . S
O244 Cd240 2.273 . S
O244 Cd242 2.411 . S
O244 C247 1.320 . S
O245 Cd242 2.333 . S
O245 C247 1.214 . S
O246 Cd242 2.352 . S
O246 C249 1.258 . S
C247 O244 1.320 . S
C247 O245 1.214 . S
O248 Cd240 2.277 . S
O248 C243 1.209 . S
C249 O246 1.258 . S
C249 O251 1.282 . S
O250 Cd242 2.277 . S
O250 C243 1.226 . S
O251 Cd242 2.356 . S
O251 C249 1.282 . S
C252 O253 1.306 . S
C252 O255 1.160 . S
O253 C252 1.306 . S
O253 Cd254 2.228 . S
Cd254 O253 2.228 . S
Cd254 O258 2.273 . S
Cd254 O262 2.277 . S
O255 C252 1.160 . S
O255 Cd256 2.203 . S
Cd256 O255 2.203 . S
Cd256 O258 2.411 . S
Cd256 O259 2.333 . S
Cd256 O260 2.352 . S
Cd256 O264 2.277 . S
Cd256 O265 2.356 . S
C257 O262 1.209 . S
C257 O264 1.226 . S
O258 Cd254 2.273 . S
O258 Cd256 2.411 . S
O258 C261 1.320 . S
O259 Cd256 2.333 . S
O259 C261 1.214 . S
O260 Cd256 2.352 . S
O260 C263 1.258 . S
C261 O258 1.320 . S
C261 O259 1.214 . S
O262 Cd254 2.277 . S
O262 C257 1.209 . S
C263 O260 1.258 . S
C263 O265 1.282 . S
O264 Cd256 2.277 . S
O264 C257 1.226 . S
O265 Cd256 2.356 . S
O265 C263 1.282 . S
C266 O267 1.306 . S
C266 O269 1.160 . S
O267 C266 1.306 . S
O267 Cd268 2.228 . S
Cd268 O267 2.228 . S
Cd268 O272 2.273 . S
Cd268 O276 2.277 . S
O269 C266 1.160 . S
O269 Cd270 2.203 . S
Cd270 O269 2.203 . S
Cd270 O272 2.411 . S
Cd270 O273 2.333 . S
Cd270 O274 2.352 . S
Cd270 O278 2.277 . S
Cd270 O279 2.356 . S
C271 O276 1.209 . S
C271 O278 1.226 . S
O272 Cd268 2.273 . S
O272 Cd270 2.411 . S
O272 C275 1.320 . S
O273 Cd270 2.333 . S
O273 C275 1.214 . S
O274 Cd270 2.352 . S
O274 C277 1.258 . S
C275 O272 1.320 . S
C275 O273 1.214 . S
O276 Cd268 2.277 . S
O276 C271 1.209 . S
C277 O274 1.258 . S
C277 O279 1.282 . S
O278 Cd270 2.277 . S
O278 C271 1.226 . S
O279 Cd270 2.356 . S
O279 C277 1.282 . S
C280 O281 1.306 . S
C280 O283 1.160 . S
O281 C280 1.306 . S
O281 Cd282 2.228 . S
Cd282 O281 2.228 . S
Cd282 O286 2.273 . S
Cd282 O290 2.277 . S
O283 C280 1.160 . S
O283 Cd284 2.203 . S
Cd284 O283 2.203 . S
Cd284 O286 2.411 . S
Cd284 O287 2.333 1_554 S
Cd284 O288 2.352 1_554 S
Cd284 O292 2.277 . S
Cd284 O293 2.356 1_554 S
C285 O290 1.209 . S
C285 O292 1.226 . S
O286 Cd282 2.273 . S
O286 Cd284 2.411 . S
O286 C289 1.320 . S
O287 Cd284 2.333 1_556 S
O287 C289 1.212 1_556 S
O288 Cd284 2.352 1_556 S
O288 C291 1.258 . S
C289 O286 1.320 . S
C289 O287 1.212 1_554 S
O290 Cd282 2.277 . S
O290 C285 1.209 . S
C291 O288 1.258 . S
C291 O293 1.282 . S
O292 Cd284 2.277 . S
O292 C285 1.226 . S
O293 Cd284 2.356 1_556 S
O293 C291 1.282 . S
C294 O295 1.306 . S
C294 O297 1.160 . S
O295 C294 1.306 . S
O295 Cd296 2.228 . S
Cd296 O295 2.228 . S
Cd296 O300 2.273 . S
Cd296 O304 2.277 . S
O297 C294 1.160 . S
O297 Cd298 2.203 . S
Cd298 O297 2.203 . S
Cd298 O300 2.411 . S
Cd298 O301 2.333 . S
Cd298 O302 2.352 . S
Cd298 O306 2.277 . S
Cd298 O307 2.356 . S
C299 O304 1.209 . S
C299 O306 1.226 . S
O300 Cd296 2.273 . S
O300 Cd298 2.411 . S
O300 C303 1.320 . S
O301 Cd298 2.333 . S
O301 C303 1.214 . S
O302 Cd298 2.352 . S
O302 C305 1.258 . S
C303 O300 1.320 . S
C303 O301 1.214 . S
O304 Cd296 2.277 . S
O304 C299 1.209 . S
C305 O302 1.258 . S
C305 O307 1.282 . S
O306 Cd298 2.277 . S
O306 C299 1.226 . S
O307 Cd298 2.356 . S
O307 C305 1.282 . S
C308 O309 1.306 . S
C308 O311 1.160 . S
O309 C308 1.306 . S
O309 Cd310 2.228 . S
Cd310 O309 2.228 . S
Cd310 O314 2.273 . S
Cd310 O318 2.277 . S
O311 C308 1.160 . S
O311 Cd312 2.203 . S
Cd312 O311 2.203 . S
Cd312 O314 2.411 . S
Cd312 O315 2.333 . S
Cd312 O316 2.352 . S
Cd312 O320 2.277 . S
Cd312 O321 2.356 . S
C313 O318 1.209 . S
C313 O320 1.226 . S
O314 Cd310 2.273 . S
O314 Cd312 2.411 . S
O314 C317 1.320 . S
O315 Cd312 2.333 . S
O315 C317 1.214 . S
O316 Cd312 2.352 . S
O316 C319 1.258 . S
C317 O314 1.320 . S
C317 O315 1.214 . S
O318 Cd310 2.277 . S
O318 C313 1.209 . S
C319 O316 1.258 . S
C319 O321 1.282 . S
O320 Cd312 2.277 . S
O320 C313 1.226 . S
O321 Cd312 2.356 . S
O321 C319 1.282 . S
C322 O323 1.306 . S
C322 O325 1.160 . S
O323 C322 1.306 . S
O323 Cd324 2.228 . S
Cd324 O323 2.228 . S
Cd324 O328 2.273 . S
Cd324 O332 2.277 . S
O325 C322 1.160 . S
O325 Cd326 2.203 . S
Cd326 O325 2.203 . S
Cd326 O328 2.411 . S
Cd326 O329 2.333 . S
Cd326 O330 2.352 . S
Cd326 O334 2.277 . S
Cd326 O335 2.356 . S
C327 O332 1.209 . S
C327 O334 1.226 . S
O328 Cd324 2.273 . S
O328 Cd326 2.411 . S
O328 C331 1.320 . S
O329 Cd326 2.333 . S
O329 C331 1.214 . S
O330 Cd326 2.352 . S
O330 C333 1.258 . S
C331 O328 1.320 . S
C331 O329 1.214 . S
O332 Cd324 2.277 . S
O332 C327 1.209 . S
C333 O330 1.258 . S
C333 O335 1.282 . S
O334 Cd326 2.277 . S
O334 C327 1.226 . S
O335 Cd326 2.356 . S
O335 C333 1.282 . S
La336 C338 2.931 1_455 S
La336 O356 2.530 1_455 S
La336 O357 2.624 1_456 S
La336 O358 2.570 . S
La336 O359 2.763 . S
La336 O360 2.476 . S
La336 O365 2.469 1_556 S
La336 O367 2.496 1_546 S
La337 C347 2.928 . S
La337 O359 2.482 1_554 S
La337 O361 2.503 . S
La337 O362 2.521 . S
La337 O363 2.628 . S
La337 O364 2.554 . S
La337 O365 2.757 . S
La337 O366 2.470 . S
C338 La336 2.931 1_655 S
C338 C339 1.503 . S
C338 O356 1.261 . S
C338 O357 1.243 1_556 S
C339 C338 1.503 . S
C339 C340 1.394 . S
C339 C344 1.373 1_556 S
C340 C339 1.394 . S
C340 C341 1.380 . S
C340 H368 0.930 . S
C341 C340 1.380 . S
C341 C342 1.376 . S
C341 H369 0.930 . S
C342 C341 1.376 . S
C342 C343 1.370 . S
C343 C342 1.370 . S
C343 C344 1.396 1_556 S
C343 H370 0.929 1_556 S
C344 C339 1.373 1_554 S
C344 C343 1.396 1_554 S
C344 H371 0.929 . S
C345 O358 1.240 . S
C345 O359 1.289 . S
C346 O360 1.258 1_554 S
C346 O361 1.256 . S
C347 La337 2.928 . S
C347 C348 1.503 . S
C347 O362 1.261 . S
C347 O363 1.243 . S
C348 C347 1.503 . S
C348 C349 1.394 . S
C348 C353 1.373 . S
C349 C348 1.394 . S
C349 C350 1.380 . S
C349 H372 0.930 . S
C350 C349 1.380 . S
C350 C351 1.376 . S
C350 H373 0.930 . S
C351 C350 1.376 . S
C351 C352 1.370 1_545 S
C352 C351 1.370 1_565 S
C352 C353 1.396 1_565 S
C352 H374 0.929 . S
C353 C348 1.373 . S
C353 C352 1.396 1_545 S
C353 H375 0.929 1_545 S
C354 O364 1.240 . S
C354 O365 1.289 . S
C355 O366 1.258 1_565 S
C355 O367 1.256 . S
O356 La336 2.530 1_655 S
O356 C338 1.261 . S
O357 La336 2.624 1_654 S
O357 C338 1.243 1_554 S
O358 La336 2.570 . S
O358 C345 1.240 . S
O359 La336 2.763 . S
O359 La337 2.482 1_556 S
O359 C345 1.289 . S
O360 La336 2.476 . S
O360 C346 1.258 1_556 S
O361 La337 2.503 . S
O361 C346 1.256 . S
O362 La337 2.521 . S
O362 C347 1.261 . S
O363 La337 2.628 . S
O363 C347 1.243 . S
O364 La337 2.554 . S
O364 C354 1.240 . S
O365 La336 2.469 1_554 S
O365 La337 2.757 . S
O365 C354 1.289 . S
O366 La337 2.470 . S
O366 C355 1.258 1_545 S
O367 La336 2.496 1_564 S
O367 C355 1.256 . S
H368 C340 0.930 . S
H369 C341 0.930 . S
H370 C343 0.929 1_554 S
H371 C344 0.929 . S
H372 C349 0.930 . S
H373 C350 0.930 . S
H374 C352 0.929 . S
H375 C353 0.929 1_565 S
La376 C378 2.928 . S
La376 O396 2.521 . S
La376 O397 2.628 . S
La376 O398 2.554 . S
La376 O399 2.757 . S
La376 O400 2.470 . S
La376 O405 2.482 . S
La376 O407 2.503 . S
La377 C387 2.928 . S
La377 O399 2.482 . S
La377 O401 2.503 . S
La377 O402 2.521 . S
La377 O403 2.628 . S
La377 O404 2.554 . S
La377 O405 2.757 . S
La377 O406 2.470 . S
C378 La376 2.928 . S
C378 C379 1.503 . S
C378 O396 1.261 . S
C378 O397 1.243 . S
C379 C378 1.503 . S
C379 C380 1.394 . S
C379 C384 1.373 . S
C380 C379 1.394 . S
C380 C381 1.380 . S
C380 H408 0.930 . S
C381 C380 1.380 . S
C381 C382 1.376 . S
C381 H409 0.930 . S
C382 C381 1.376 . S
C382 C383 1.370 . S
C383 C382 1.370 . S
C383 C384 1.396 . S
C383 H410 0.929 . S
C384 C379 1.373 . S
C384 C383 1.396 . S
C384 H411 0.929 . S
C385 O398 1.240 . S
C385 O399 1.289 . S
C386 O400 1.258 . S
C386 O401 1.256 . S
C387 La377 2.928 . S
C387 C388 1.503 . S
C387 O402 1.261 . S
C387 O403 1.243 . S
C388 C387 1.503 . S
C388 C389 1.394 . S
C388 C393 1.373 . S
C389 C388 1.394 . S
C389 C390 1.380 . S
C389 H412 0.930 . S
C390 C389 1.380 . S
C390 C391 1.376 . S
C390 H413 0.930 . S
C391 C390 1.376 . S
C391 C392 1.370 . S
C392 C391 1.370 . S
C392 C393 1.396 . S
C392 H414 0.929 . S
C393 C388 1.373 . S
C393 C392 1.396 . S
C393 H415 0.929 . S
C394 O404 1.240 . S
C394 O405 1.289 . S
C395 O406 1.258 . S
C395 O407 1.256 . S
O396 La376 2.521 . S
O396 C378 1.261 . S
O397 La376 2.628 . S
O397 C378 1.243 . S
O398 La376 2.554 . S
O398 C385 1.240 . S
O399 La376 2.757 . S
O399 La377 2.482 . S
O399 C385 1.289 . S
O400 La376 2.470 . S
O400 C386 1.258 . S
O401 La377 2.503 . S
O401 C386 1.256 . S
O402 La377 2.521 . S
O402 C387 1.261 . S
O403 La377 2.628 . S
O403 C387 1.243 . S
O404 La377 2.554 . S
O404 C394 1.240 . S
O405 La376 2.482 . S
O405 La377 2.757 . S
O405 C394 1.289 . S
O406 La377 2.470 . S
O406 C395 1.258 . S
O407 La376 2.503 . S
O407 C395 1.256 . S
H408 C380 0.930 . S
H409 C381 0.930 . S
H410 C383 0.929 . S
H411 C384 0.929 . S
H412 C389 0.930 . S
H413 C390 0.930 . S
H414 C392 0.929 . S
H415 C393 0.929 . S
La416 C418 2.928 . S
La416 O436 2.521 . S
La416 O437 2.628 . S
La416 O438 2.554 . S
La416 O439 2.757 . S
La416 O440 2.470 1_545 S
La416 O445 2.482 . S
La416 O447 2.503 . S
La417 C427 2.928 . S
La417 O439 2.482 . S
La417 O441 2.503 1_545 S
La417 O442 2.521 . S
La417 O443 2.628 . S
La417 O444 2.554 . S
La417 O445 2.757 . S
La417 O446 2.470 . S
C418 La416 2.928 . S
C418 C419 1.503 1_545 S
C418 O436 1.261 . S
C418 O437 1.243 . S
C419 C418 1.503 1_565 S
C419 C420 1.394 . S
C419 C424 1.373 . S
C420 C419 1.394 . S
C420 C421 1.380 . S
C420 H448 0.930 1_565 S
C421 C420 1.380 . S
C421 C422 1.376 . S
C421 H449 0.930 . S
C422 C421 1.376 . S
C422 C423 1.370 . S
C423 C422 1.370 . S
C423 C424 1.396 . S
C423 H450 0.929 . S
C424 C419 1.373 . S
C424 C423 1.396 . S
C424 H451 0.929 . S
C425 O438 1.240 . S
C425 O439 1.289 . S
C426 O440 1.258 . S
C426 O441 1.256 . S
C427 La417 2.928 . S
C427 C428 1.503 . S
C427 O442 1.261 . S
C427 O443 1.243 . S
C428 C427 1.503 . S
C428 C429 1.394 . S
C428 C433 1.373 . S
C429 C428 1.394 . S
C429 C430 1.380 . S
C429 H452 0.930 . S
C430 C429 1.380 . S
C430 C431 1.376 . S
C430 H453 0.930 . S
C431 C430 1.376 . S
C431 C432 1.370 . S
C432 C431 1.370 . S
C432 C433 1.396 . S
C432 H454 0.929 . S
C433 C428 1.373 . S
C433 C432 1.396 . S
C433 H455 0.929 . S
C434 O444 1.240 . S
C434 O445 1.289 . S
C435 O446 1.258 . S
C435 O447 1.256 . S
O436 La416 2.521 . S
O436 C418 1.261 . S
O437 La416 2.628 . S
O437 C418 1.243 . S
O438 La416 2.554 . S
O438 C425 1.240 . S
O439 La416 2.757 . S
O439 La417 2.482 . S
O439 C425 1.289 . S
O440 La416 2.470 1_565 S
O440 C426 1.258 . S
O441 La417 2.503 1_565 S
O441 C426 1.256 . S
O442 La417 2.521 . S
O442 C427 1.261 . S
O443 La417 2.628 . S
O443 C427 1.243 . S
O444 La417 2.554 . S
O444 C434 1.240 . S
O445 La416 2.482 . S
O445 La417 2.757 . S
O445 C434 1.289 . S
O446 La417 2.470 . S
O446 C435 1.258 . S
O447 La416 2.503 . S
O447 C435 1.256 . S
H448 C420 0.930 1_545 S
H449 C421 0.930 . S
H450 C423 0.929 . S
H451 C424 0.929 . S
H452 C429 0.930 . S
H453 C430 0.930 . S
H454 C432 0.929 . S
H455 C433 0.929 . S
La456 C458 2.928 . S
La456 O476 2.521 . S
La456 O477 2.628 . S
La456 O478 2.554 . S
La456 O479 2.757 . S
La456 O480 2.470 . S
La456 O485 2.482 . S
La456 O487 2.503 . S
La457 C467 2.928 . S
La457 O479 2.482 . S
La457 O481 2.503 . S
La457 O482 2.521 . S
La457 O483 2.628 . S
La457 O484 2.554 . S
La457 O485 2.757 . S
La457 O486 2.470 . S
C458 La456 2.928 . S
C458 C459 1.503 . S
C458 O476 1.261 . S
C458 O477 1.243 . S
C459 C458 1.503 . S
C459 C460 1.394 . S
C459 C464 1.373 . S
C460 C459 1.394 . S
C460 C461 1.380 . S
C460 H488 0.930 . S
C461 C460 1.380 . S
C461 C462 1.376 . S
C461 H489 0.930 . S
C462 C461 1.376 . S
C462 C463 1.370 . S
C463 C462 1.370 . S
C463 C464 1.396 . S
C463 H490 0.929 . S
C464 C459 1.373 . S
C464 C463 1.396 . S
C464 H491 0.929 . S
C465 O478 1.240 . S
C465 O479 1.289 . S
C466 O480 1.258 . S
C466 O481 1.256 . S
C467 La457 2.928 . S
C467 C468 1.503 . S
C467 O482 1.261 . S
C467 O483 1.243 . S
C468 C467 1.503 . S
C468 C469 1.394 . S
C468 C473 1.373 . S
C469 C468 1.394 . S
C469 C470 1.380 . S
C469 H492 0.930 . S
C470 C469 1.380 . S
C470 C471 1.376 . S
C470 H493 0.930 . S
C471 C470 1.376 . S
C471 C472 1.370 . S
C472 C471 1.370 . S
C472 C473 1.396 . S
C472 H494 0.929 . S
C473 C468 1.373 . S
C473 C472 1.396 . S
C473 H495 0.929 . S
C474 O484 1.240 . S
C474 O485 1.289 . S
C475 O486 1.258 . S
C475 O487 1.256 . S
O476 La456 2.521 . S
O476 C458 1.261 . S
O477 La456 2.628 . S
O477 C458 1.243 . S
O478 La456 2.554 . S
O478 C465 1.240 . S
O479 La456 2.757 . S
O479 La457 2.482 . S
O479 C465 1.289 . S
O480 La456 2.470 . S
O480 C466 1.258 . S
O481 La457 2.503 . S
O481 C466 1.256 . S
O482 La457 2.521 . S
O482 C467 1.261 . S
O483 La457 2.628 . S
O483 C467 1.243 . S
O484 La457 2.554 . S
O484 C474 1.240 . S
O485 La456 2.482 . S
O485 La457 2.757 . S
O485 C474 1.289 . S
O486 La457 2.470 . S
O486 C475 1.258 . S
O487 La456 2.503 . S
O487 C475 1.256 . S
H488 C460 0.930 . S
H489 C461 0.930 . S
H490 C463 0.929 . S
H491 C464 0.929 . S
H492 C469 0.930 . S
H493 C470 0.930 . S
H494 C472 0.929 . S
H495 C473 0.929 . S
La496 C498 2.928 . S
La496 O516 2.521 . S
La496 O517 2.628 . S
La496 O518 2.554 . S
La496 O519 2.757 . S
La496 O520 2.470 . S
La496 O525 2.482 . S
La496 O527 2.503 . S
La497 C507 2.923 . S
La497 O519 2.485 1_565 S
La497 O521 2.506 1_565 S
La497 O522 2.516 . S
La497 O523 2.624 . S
La497 O524 2.555 1_565 S
La497 O525 2.762 1_565 S
La497 O526 2.471 1_565 S
C498 La496 2.928 . S
C498 C499 1.503 . S
C498 O516 1.261 . S
C498 O517 1.243 . S
C499 C498 1.503 . S
C499 C500 1.394 . S
C499 C504 1.373 . S
C500 C499 1.394 . S
C500 C501 1.380 . S
C500 H528 0.930 . S
C501 C500 1.380 . S
C501 C502 1.376 . S
C501 H529 0.930 . S
C502 C501 1.376 . S
C502 C503 1.370 . S
C503 C502 1.370 . S
C503 C504 1.396 . S
C503 H530 0.929 . S
C504 C499 1.373 . S
C504 C503 1.396 . S
C504 H531 0.929 . S
C505 O518 1.240 . S
C505 O519 1.289 . S
C506 O520 1.258 . S
C506 O521 1.256 . S
C507 La497 2.923 . S
C507 C508 1.503 . S
C507 O522 1.261 . S
C507 O523 1.243 . S
C508 C507 1.503 . S
C508 C509 1.394 . S
C508 C513 1.373 . S
C509 C508 1.394 . S
C509 C510 1.380 . S
C509 H532 0.930 . S
C510 C509 1.380 . S
C510 C511 1.376 . S
C510 H533 0.930 . S
C511 C510 1.376 . S
C511 C512 1.370 . S
C512 C511 1.370 . S
C512 C513 1.396 . S
C512 H534 0.929 . S
C513 C508 1.373 . S
C513 C512 1.396 . S
C513 H535 0.929 . S
C514 O524 1.240 . S
C514 O525 1.289 . S
C515 O526 1.258 . S
C515 O527 1.256 . S
O516 La496 2.521 . S
O516 C498 1.261 . S
O517 La496 2.628 . S
O517 C498 1.243 . S
O518 La496 2.554 . S
O518 C505 1.240 . S
O519 La496 2.757 . S
O519 La497 2.485 1_545 S
O519 C505 1.289 . S
O520 La496 2.470 . S
O520 C506 1.258 . S
O521 La497 2.506 1_545 S
O521 C506 1.256 . S
O522 La497 2.516 . S
O522 C507 1.261 . S
O523 La497 2.624 . S
O523 C507 1.243 . S
O524 La497 2.555 1_545 S
O524 C514 1.240 . S
O525 La496 2.482 . S
O525 La497 2.762 1_545 S
O525 C514 1.289 . S
O526 La497 2.471 1_545 S
O526 C515 1.258 . S
O527 La496 2.503 . S
O527 C515 1.256 . S
H528 C500 0.930 . S
H529 C501 0.930 . S
H530 C503 0.929 . S
H531 C504 0.929 . S
H532 C509 0.930 . S
H533 C510 0.930 . S
H534 C512 0.929 . S
H535 C513 0.929 . S
La536 C538 2.928 . S
La536 O556 2.521 . S
La536 O557 2.628 . S
La536 O558 2.554 . S
La536 O559 2.757 . S
La536 O560 2.470 . S
La536 O565 2.482 . S
La536 O567 2.503 . S
La537 C547 2.928 . S
La537 O559 2.482 . S
La537 O561 2.503 . S
La537 O562 2.521 . S
La537 O563 2.628 . S
La537 O564 2.554 . S
La537 O565 2.757 . S
La537 O566 2.470 . S
C538 La536 2.928 . S
C538 C539 1.503 . S
C538 O556 1.261 . S
C538 O557 1.243 . S
C539 C538 1.503 . S
C539 C540 1.394 . S
C539 C544 1.373 . S
C540 C539 1.394 . S
C540 C541 1.380 . S
C540 H568 0.930 . S
C541 C540 1.380 . S
C541 C542 1.376 . S
C541 H569 0.930 . S
C542 C541 1.376 . S
C542 C543 1.370 . S
C543 C542 1.370 . S
C543 C544 1.396 . S
C543 H570 0.929 . S
C544 C539 1.373 . S
C544 C543 1.396 . S
C544 H571 0.929 . S
C545 O558 1.240 . S
C545 O559 1.289 . S
C546 O560 1.258 . S
C546 O561 1.256 . S
C547 La537 2.928 . S
C547 C548 1.503 . S
C547 O562 1.261 . S
C547 O563 1.243 . S
C548 C547 1.503 . S
C548 C549 1.394 . S
C548 C553 1.373 . S
C549 C548 1.394 . S
C549 C550 1.380 . S
C549 H572 0.930 . S
C550 C549 1.380 . S
C550 C551 1.376 . S
C550 H573 0.930 . S
C551 C550 1.376 . S
C551 C552 1.370 . S
C552 C551 1.370 . S
C552 C553 1.396 . S
C552 H574 0.929 . S
C553 C548 1.373 . S
C553 C552 1.396 . S
C553 H575 0.929 . S
C554 O564 1.240 . S
C554 O565 1.289 . S
C555 O566 1.258 . S
C555 O567 1.256 . S
O556 La536 2.521 . S
O556 C538 1.261 . S
O557 La536 2.628 . S
O557 C538 1.243 . S
O558 La536 2.554 . S
O558 C545 1.240 . S
O559 La536 2.757 . S
O559 La537 2.482 . S
O559 C545 1.289 . S
O560 La536 2.470 . S
O560 C546 1.258 . S
O561 La537 2.503 . S
O561 C546 1.256 . S
O562 La537 2.521 . S
O562 C547 1.261 . S
O563 La537 2.628 . S
O563 C547 1.243 . S
O564 La537 2.554 . S
O564 C554 1.240 . S
O565 La536 2.482 . S
O565 La537 2.757 . S
O565 C554 1.289 . S
O566 La537 2.470 . S
O566 C555 1.258 . S
O567 La536 2.503 . S
O567 C555 1.256 . S
H568 C540 0.930 . S
H569 C541 0.930 . S
H570 C543 0.929 . S
H571 C544 0.929 . S
H572 C549 0.930 . S
H573 C550 0.930 . S
H574 C552 0.929 . S
H575 C553 0.929 . S
La576 C578 2.928 . S
La576 O596 2.521 . S
La576 O597 2.628 . S
La576 O598 2.554 1_545 S
La576 O599 2.757 1_554 S
La576 O600 2.470 . S
La576 O605 2.482 . S
La576 O607 2.503 . S
La577 C587 2.928 . S
La577 O599 2.482 . S
La577 O601 2.503 . S
La577 O602 2.521 . S
La577 O603 2.628 . S
La577 O604 2.554 1_556 S
La577 O605 2.757 1_556 S
La577 O606 2.464 1_556 S
C578 La576 2.928 . S
C578 C579 1.503 . S
C578 O596 1.261 . S
C578 O597 1.243 . S
C579 C578 1.503 . S
C579 C580 1.394 1_545 S
C579 C584 1.373 . S
C580 C579 1.394 1_565 S
C580 C581 1.380 . S
C580 H608 0.930 . S
C581 C580 1.380 . S
C581 C582 1.376 . S
C581 H609 0.930 . S
C582 C581 1.376 . S
C582 C583 1.370 1_565 S
C583 C582 1.370 1_545 S
C583 C584 1.396 . S
C583 H610 0.929 . S
C584 C579 1.373 . S
C584 C583 1.396 . S
C584 H611 0.929 . S
C585 O598 1.229 1_556 S
C585 O599 1.293 1_565 S
C586 O600 1.258 . S
C586 O601 1.256 1_554 S
C587 La577 2.928 . S
C587 C588 1.503 . S
C587 O602 1.261 . S
C587 O603 1.243 . S
C588 C587 1.503 . S
C588 C589 1.394 . S
C588 C593 1.373 . S
C589 C588 1.394 . S
C589 C590 1.380 . S
C589 H612 0.930 . S
C590 C589 1.380 . S
C590 C591 1.376 . S
C590 H613 0.930 . S
C591 C590 1.376 . S
C591 C592 1.370 . S
C592 C591 1.370 . S
C592 C593 1.396 . S
C592 H614 0.929 . S
C593 C588 1.373 . S
C593 C592 1.396 . S
C593 H615 0.929 . S
C594 O604 1.240 . S
C594 O605 1.289 . S
C595 O606 1.269 . S
C595 O607 1.256 . S
O596 La576 2.521 . S
O596 C578 1.261 . S
O597 La576 2.628 . S
O597 C578 1.243 . S
O598 La576 2.554 1_565 S
O598 C585 1.229 1_554 S
O599 La576 2.757 1_556 S
O599 La577 2.482 . S
O599 C585 1.293 1_545 S
O600 La576 2.470 . S
O600 C586 1.258 . S
O601 La577 2.503 . S
O601 C586 1.256 1_556 S
O602 La577 2.521 . S
O602 C587 1.261 . S
O603 La577 2.628 . S
O603 C587 1.243 . S
O604 La577 2.554 1_554 S
O604 C594 1.240 . S
O605 La576 2.482 . S
O605 La577 2.757 1_554 S
O605 C594 1.289 . S
O606 La577 2.464 1_554 S
O606 C595 1.269 . S
O607 La576 2.503 . S
O607 C595 1.256 . S
H608 C580 0.930 . S
H609 C581 0.930 . S
H610 C583 0.929 . S
H611 C584 0.929 . S
H612 C589 0.930 . S
H613 C590 0.930 . S
H614 C592 0.929 . S
H615 C593 0.929 . S
La616 C618 2.928 . S
La616 O636 2.521 . S
La616 O637 2.628 . S
La616 O638 2.554 . S
La616 O639 2.757 . S
La616 O640 2.470 . S
La616 O645 2.482 . S
La616 O647 2.503 . S
La617 C627 2.928 . S
La617 O639 2.482 . S
La617 O641 2.503 . S
La617 O642 2.521 . S
La617 O643 2.628 . S
La617 O644 2.554 . S
La617 O645 2.757 . S
La617 O646 2.470 . S
C618 La616 2.928 . S
C618 C619 1.503 . S
C618 O636 1.261 . S
C618 O637 1.243 . S
C619 C618 1.503 . S
C619 C620 1.394 . S
C619 C624 1.373 . S
C620 C619 1.394 . S
C620 C621 1.380 . S
C620 H648 0.930 . S
C621 C620 1.380 . S
C621 C622 1.376 . S
C621 H649 0.930 . S
C622 C621 1.376 . S
C622 C623 1.370 . S
C623 C622 1.370 . S
C623 C624 1.396 . S
C623 H650 0.929 . S
C624 C619 1.373 . S
C624 C623 1.396 . S
C624 H651 0.929 . S
C625 O638 1.240 . S
C625 O639 1.289 . S
C626 O640 1.258 . S
C626 O641 1.256 . S
C627 La617 2.928 . S
C627 C628 1.503 . S
C627 O642 1.261 . S
C627 O643 1.243 . S
C628 C627 1.503 . S
C628 C629 1.394 . S
C628 C633 1.373 . S
C629 C628 1.394 . S
C629 C630 1.380 . S
C629 H652 0.930 . S
C630 C629 1.380 . S
C630 C631 1.376 . S
C630 H653 0.930 . S
C631 C630 1.376 . S
C631 C632 1.370 . S
C632 C631 1.370 . S
C632 C633 1.396 . S
C632 H654 0.929 . S
C633 C628 1.373 . S
C633 C632 1.396 . S
C633 H655 0.929 . S
C634 O644 1.240 . S
C634 O645 1.289 . S
C635 O646 1.258 . S
C635 O647 1.256 . S
O636 La616 2.521 . S
O636 C618 1.261 . S
O637 La616 2.628 . S
O637 C618 1.243 . S
O638 La616 2.554 . S
O638 C625 1.240 . S
O639 La616 2.757 . S
O639 La617 2.482 . S
O639 C625 1.289 . S
O640 La616 2.470 . S
O640 C626 1.258 . S
O641 La617 2.503 . S
O641 C626 1.256 . S
O642 La617 2.521 . S
O642 C627 1.261 . S
O643 La617 2.628 . S
O643 C627 1.243 . S
O644 La617 2.554 . S
O644 C634 1.240 . S
O645 La616 2.482 . S
O645 La617 2.757 . S
O645 C634 1.289 . S
O646 La617 2.470 . S
O646 C635 1.258 . S
O647 La616 2.503 . S
O647 C635 1.256 . S
H648 C620 0.930 . S
H649 C621 0.930 . S
H650 C623 0.929 . S
H651 C624 0.929 . S
H652 C629 0.930 . S
H653 C630 0.930 . S
H654 C632 0.929 . S
H655 C633 0.929 . S
La656 C658 2.932 . S
La656 O676 2.521 . S
La656 O677 2.628 1_554 S
La656 O678 2.554 . S
La656 O679 2.757 . S
La656 O680 2.470 1_554 S
La656 O685 2.482 . S
La656 O687 2.503 . S
La657 C667 2.937 . S
La657 O679 2.487 . S
La657 O681 2.491 1_554 S
La657 O682 2.525 . S
La657 O683 2.638 . S
La657 O684 2.554 . S
La657 O685 2.755 . S
La657 O686 2.482 . S
C658 La656 2.932 . S
C658 C659 1.499 1_554 S
C658 O676 1.266 . S
C658 O677 1.242 1_554 S
C659 C658 1.499 1_556 S
C659 C660 1.394 . S
C659 C664 1.373 . S
C660 C659 1.394 . S
C660 C661 1.380 . S
C660 H688 0.930 1_556 S
C661 C660 1.380 . S
C661 C662 1.376 . S
C661 H689 0.930 . S
C662 C661 1.376 . S
C662 C663 1.370 . S
C663 C662 1.370 . S
C663 C664 1.396 . S
C663 H690 0.929 . S
C664 C659 1.373 . S
C664 C663 1.396 . S
C664 H691 0.929 . S
C665 O678 1.240 . S
C665 O679 1.289 . S
C666 O680 1.258 . S
C666 O681 1.256 . S
C667 La657 2.937 . S
C667 C668 1.503 . S
C667 O682 1.261 . S
C667 O683 1.243 . S
C668 C667 1.503 . S
C668 C669 1.394 . S
C668 C673 1.373 . S
C669 C668 1.394 . S
C669 C670 1.380 . S
C669 H692 0.930 . S
C670 C669 1.380 . S
C670 C671 1.376 . S
C670 H693 0.930 . S
C671 C670 1.376 . S
C671 C672 1.370 . S
C672 C671 1.370 . S
C672 C673 1.396 . S
C672 H694 0.929 . S
C673 C668 1.373 . S
C673 C672 1.396 . S
C673 H695 0.929 . S
C674 O684 1.240 . S
C674 O685 1.289 . S
C675 O686 1.258 . S
C675 O687 1.256 . S
O676 La656 2.521 . S
O676 C658 1.266 . S
O677 La656 2.628 1_556 S
O677 C658 1.242 1_556 S
O678 La656 2.554 . S
O678 C665 1.240 . S
O679 La656 2.757 . S
O679 La657 2.487 . S
O679 C665 1.289 . S
O680 La656 2.470 1_556 S
O680 C666 1.258 . S
O681 La657 2.491 1_556 S
O681 C666 1.256 . S
O682 La657 2.525 . S
O682 C667 1.261 . S
O683 La657 2.638 . S
O683 C667 1.243 . S
O684 La657 2.554 . S
O684 C674 1.240 . S
O685 La656 2.482 . S
O685 La657 2.755 . S
O685 C674 1.289 . S
O686 La657 2.482 . S
O686 C675 1.258 . S
O687 La656 2.503 . S
O687 C675 1.256 . S
H688 C660 0.930 1_554 S
H689 C661 0.930 . S
H690 C663 0.929 . S
H691 C664 0.929 . S
H692 C669 0.930 . S
H693 C670 0.930 . S
H694 C672 0.929 . S
H695 C673 0.929 . S
La696 C698 2.928 . S
La696 O716 2.521 . S
La696 O717 2.628 . S
La696 O718 2.554 . S
La696 O719 2.757 . S
La696 O720 2.470 . S
La696 O725 2.482 . S
La696 O727 2.503 . S
La697 C707 2.928 . S
La697 O719 2.482 . S
La697 O721 2.503 . S
La697 O722 2.521 . S
La697 O723 2.628 . S
La697 O724 2.554 . S
La697 O725 2.757 . S
La697 O726 2.470 . S
C698 La696 2.928 . S
C698 C699 1.503 . S
C698 O716 1.261 . S
C698 O717 1.243 . S
C699 C698 1.503 . S
C699 C700 1.394 . S
C699 C704 1.373 . S
C700 C699 1.394 . S
C700 C701 1.380 . S
C700 H728 0.930 . S
C701 C700 1.380 . S
C701 C702 1.376 . S
C701 H729 0.930 . S
C702 C701 1.376 . S
C702 C703 1.370 . S
C703 C702 1.370 . S
C703 C704 1.396 . S
C703 H730 0.929 . S
C704 C699 1.373 . S
C704 C703 1.396 . S
C704 H731 0.929 . S
C705 O718 1.240 . S
C705 O719 1.289 . S
C706 O720 1.258 . S
C706 O721 1.256 . S
C707 La697 2.928 . S
C707 C708 1.503 . S
C707 O722 1.261 . S
C707 O723 1.243 . S
C708 C707 1.503 . S
C708 C709 1.394 . S
C708 C713 1.373 . S
C709 C708 1.394 . S
C709 C710 1.380 . S
C709 H732 0.930 . S
C710 C709 1.380 . S
C710 C711 1.376 . S
C710 H733 0.930 . S
C711 C710 1.376 . S
C711 C712 1.370 . S
C712 C711 1.370 . S
C712 C713 1.396 . S
C712 H734 0.929 . S
C713 C708 1.373 . S
C713 C712 1.396 . S
C713 H735 0.929 . S
C714 O724 1.240 . S
C714 O725 1.289 . S
C715 O726 1.258 . S
C715 O727 1.256 . S
O716 La696 2.521 . S
O716 C698 1.261 . S
O717 La696 2.628 . S
O717 C698 1.243 . S
O718 La696 2.554 . S
O718 C705 1.240 . S
O719 La696 2.757 . S
O719 La697 2.482 . S
O719 C705 1.289 . S
O720 La696 2.470 . S
O720 C706 1.258 . S
O721 La697 2.503 . S
O721 C706 1.256 . S
O722 La697 2.521 . S
O722 C707 1.261 . S
O723 La697 2.628 . S
O723 C707 1.243 . S
O724 La697 2.554 . S
O724 C714 1.240 . S
O725 La696 2.482 . S
O725 La697 2.757 . S
O725 C714 1.289 . S
O726 La697 2.470 . S
O726 C715 1.258 . S
O727 La696 2.503 . S
O727 C715 1.256 . S
H728 C700 0.930 . S
H729 C701 0.930 . S
H730 C703 0.929 . S
H731 C704 0.929 . S
H732 C709 0.930 . S
H733 C710 0.930 . S
H734 C712 0.929 . S
H735 C713 0.929 . S
La736 C738 2.928 . S
La736 O756 2.521 . S
La736 O757 2.628 . S
La736 O758 2.554 . S
La736 O759 2.757 . S
La736 O760 2.470 . S
La736 O765 2.482 . S
La736 O767 2.503 . S
La737 C747 2.928 . S
La737 O759 2.482 . S
La737 O761 2.503 . S
La737 O762 2.521 . S
La737 O763 2.628 . S
La737 O764 2.554 . S
La737 O765 2.757 . S
La737 O766 2.470 . S
C738 La736 2.928 . S
C738 C739 1.503 . S
C738 O756 1.261 . S
C738 O757 1.243 . S
C739 C738 1.503 . S
C739 C740 1.394 . S
C739 C744 1.374 . S
C740 C739 1.394 . S
C740 C741 1.380 . S
C740 H768 0.930 . S
C741 C740 1.380 . S
C741 C742 1.376 1_455 S
C741 H769 0.930 . S
C742 C741 1.376 1_655 S
C742 C743 1.370 . S
C743 C742 1.370 . S
C743 C744 1.395 1_655 S
C743 H770 0.929 . S
C744 C739 1.374 . S
C744 C743 1.395 1_455 S
C744 H771 0.929 1_455 S
C745 O758 1.240 . S
C745 O759 1.289 . S
C746 O760 1.258 . S
C746 O761 1.256 . S
C747 La737 2.928 . S
C747 C748 1.503 . S
C747 O762 1.261 . S
C747 O763 1.243 . S
C748 C747 1.503 . S
C748 C749 1.394 . S
C748 C753 1.373 . S
C749 C748 1.394 . S
C749 C750 1.380 . S
C749 H772 0.930 . S
C750 C749 1.380 . S
C750 C751 1.376 . S
C750 H773 0.930 . S
C751 C750 1.376 . S
C751 C752 1.370 . S
C752 C751 1.370 . S
C752 C753 1.396 . S
C752 H774 0.929 . S
C753 C748 1.373 . S
C753 C752 1.396 . S
C753 H775 0.929 . S
C754 O764 1.240 . S
C754 O765 1.289 . S
C755 O766 1.258 . S
C755 O767 1.256 . S
O756 La736 2.521 . S
O756 C738 1.261 . S
O757 La736 2.628 . S
O757 C738 1.243 . S
O758 La736 2.554 . S
O758 C745 1.240 . S
O759 La736 2.757 . S
O759 La737 2.482 . S
O759 C745 1.289 . S
O760 La736 2.470 . S
O760 C746 1.258 . S
O761 La737 2.503 . S
O761 C746 1.256 . S
O762 La737 2.521 . S
O762 C747 1.261 . S
O763 La737 2.628 . S
O763 C747 1.243 . S
O764 La737 2.554 . S
O764 C754 1.240 . S
O765 La736 2.482 . S
O765 La737 2.757 . S
O765 C754 1.289 . S
O766 La737 2.470 . S
O766 C755 1.258 . S
O767 La736 2.503 . S
O767 C755 1.256 . S
H768 C740 0.930 . S
H769 C741 0.930 . S
H770 C743 0.929 . S
H771 C744 0.929 1_655 S
H772 C749 0.930 . S
H773 C750 0.930 . S
H774 C752 0.929 . S
H775 C753 0.929 . S
La776 C778 2.928 . S
La776 O796 2.521 . S
La776 O797 2.628 . S
La776 O798 2.554 . S
La776 O799 2.757 . S
La776 O800 2.470 . S
La776 O805 2.482 . S
La776 O807 2.503 . S
La777 C787 2.928 . S
La777 O799 2.482 . S
La777 O801 2.503 . S
La777 O802 2.521 . S
La777 O803 2.628 . S
La777 O804 2.554 . S
La777 O805 2.757 . S
La777 O806 2.470 . S
C778 La776 2.928 . S
C778 C779 1.503 . S
C778 O796 1.261 . S
C778 O797 1.243 . S
C779 C778 1.503 . S
C779 C780 1.394 . S
C779 C784 1.373 . S
C780 C779 1.394 . S
C780 C781 1.380 . S
C780 H808 0.930 . S
C781 C780 1.380 . S
C781 C782 1.376 . S
C781 H809 0.930 . S
C782 C781 1.376 . S
C782 C783 1.370 . S
C783 C782 1.370 . S
C783 C784 1.396 . S
C783 H810 0.929 . S
C784 C779 1.373 . S
C784 C783 1.396 . S
C784 H811 0.929 . S
C785 O798 1.240 . S
C785 O799 1.289 . S
C786 O800 1.258 . S
C786 O801 1.256 . S
C787 La777 2.928 . S
C787 C788 1.503 . S
C787 O802 1.261 . S
C787 O803 1.243 . S
C788 C787 1.503 . S
C788 C789 1.394 . S
C788 C793 1.373 . S
C789 C788 1.394 . S
C789 C790 1.380 . S
C789 H812 0.930 . S
C790 C789 1.380 . S
C790 C791 1.376 . S
C790 H813 0.930 . S
C791 C790 1.376 . S
C791 C792 1.370 . S
C792 C791 1.370 . S
C792 C793 1.396 . S
C792 H814 0.929 . S
C793 C788 1.373 . S
C793 C792 1.396 . S
C793 H815 0.929 . S
C794 O804 1.240 . S
C794 O805 1.289 . S
C795 O806 1.258 . S
C795 O807 1.256 . S
O796 La776 2.521 . S
O796 C778 1.261 . S
O797 La776 2.628 . S
O797 C778 1.243 . S
O798 La776 2.554 . S
O798 C785 1.240 . S
O799 La776 2.757 . S
O799 La777 2.482 . S
O799 C785 1.289 . S
O800 La776 2.470 . S
O800 C786 1.258 . S
O801 La777 2.503 . S
O801 C786 1.256 . S
O802 La777 2.521 . S
O802 C787 1.261 . S
O803 La777 2.628 . S
O803 C787 1.243 . S
O804 La777 2.554 . S
O804 C794 1.240 . S
O805 La776 2.482 . S
O805 La777 2.757 . S
O805 C794 1.289 . S
O806 La777 2.470 . S
O806 C795 1.258 . S
O807 La776 2.503 . S
O807 C795 1.256 . S
H808 C780 0.930 . S
H809 C781 0.930 . S
H810 C783 0.929 . S
H811 C784 0.929 . S
H812 C789 0.930 . S
H813 C790 0.930 . S
H814 C792 0.929 . S
H815 C793 0.929 . S
La816 C818 2.928 . S
La816 O836 2.521 . S
La816 O837 2.628 . S
La816 O838 2.554 . S
La816 O839 2.757 . S
La816 O840 2.470 . S
La816 O845 2.482 . S
La816 O847 2.503 . S
La817 C827 2.928 . S
La817 O839 2.482 . S
La817 O841 2.503 . S
La817 O842 2.521 . S
La817 O843 2.628 . S
La817 O844 2.554 . S
La817 O845 2.757 . S
La817 O846 2.470 . S
C818 La816 2.928 . S
C818 C819 1.503 . S
C818 O836 1.261 . S
C818 O837 1.243 . S
C819 C818 1.503 . S
C819 C820 1.394 . S
C819 C824 1.373 . S
C820 C819 1.394 . S
C820 C821 1.380 . S
C820 H848 0.930 . S
C821 C820 1.380 . S
C821 C822 1.376 . S
C821 H849 0.930 . S
C822 C821 1.376 . S
C822 C823 1.370 . S
C823 C822 1.370 . S
C823 C824 1.396 . S
C823 H850 0.929 . S
C824 C819 1.373 . S
C824 C823 1.396 . S
C824 H851 0.929 . S
C825 O838 1.240 . S
C825 O839 1.289 . S
C826 O840 1.258 . S
C826 O841 1.256 . S
C827 La817 2.928 . S
C827 C828 1.503 . S
C827 O842 1.261 . S
C827 O843 1.243 . S
C828 C827 1.503 . S
C828 C829 1.394 . S
C828 C833 1.373 . S
C829 C828 1.394 . S
C829 C830 1.380 . S
C829 H852 0.930 . S
C830 C829 1.380 . S
C830 C831 1.376 . S
C830 H853 0.930 . S
C831 C830 1.376 . S
C831 C832 1.370 . S
C832 C831 1.370 . S
C832 C833 1.396 . S
C832 H854 0.929 . S
C833 C828 1.373 . S
C833 C832 1.396 . S
C833 H855 0.929 . S
C834 O844 1.240 . S
C834 O845 1.289 . S
C835 O846 1.258 . S
C835 O847 1.256 . S
O836 La816 2.521 . S
O836 C818 1.261 . S
O837 La816 2.628 . S
O837 C818 1.243 . S
O838 La816 2.554 . S
O838 C825 1.240 . S
O839 La816 2.757 . S
O839 La817 2.482 . S
O839 C825 1.289 . S
O840 La816 2.470 . S
O840 C826 1.258 . S
O841 La817 2.503 . S
O841 C826 1.256 . S
O842 La817 2.521 . S
O842 C827 1.261 . S
O843 La817 2.628 . S
O843 C827 1.243 . S
O844 La817 2.554 . S
O844 C834 1.240 . S
O845 La816 2.482 . S
O845 La817 2.757 . S
O845 C834 1.289 . S
O846 La817 2.470 . S
O846 C835 1.258 . S
O847 La816 2.503 . S
O847 C835 1.256 . S
H848 C820 0.930 . S
H849 C821 0.930 . S
H850 C823 0.929 . S
H851 C824 0.929 . S
H852 C829 0.930 . S
H853 C830 0.930 . S
H854 C832 0.929 . S
H855 C833 0.929 . S
La856 C858 2.928 . S
La856 O876 2.521 . S
La856 O877 2.628 . S
La856 O878 2.554 . S
La856 O879 2.757 . S
La856 O880 2.470 . S
La856 O885 2.482 . S
La856 O887 2.503 . S
La857 C867 2.928 . S
La857 O879 2.482 . S
La857 O881 2.503 . S
La857 O882 2.521 . S
La857 O883 2.628 . S
La857 O884 2.554 . S
La857 O885 2.757 . S
La857 O886 2.470 . S
C858 La856 2.928 . S
C858 C859 1.503 . S
C858 O876 1.261 . S
C858 O877 1.243 . S
C859 C858 1.503 . S
C859 C860 1.394 . S
C859 C864 1.373 . S
C860 C859 1.394 . S
C860 C861 1.380 . S
C860 H888 0.930 . S
C861 C860 1.380 . S
C861 C862 1.376 . S
C861 H889 0.930 . S
C862 C861 1.376 . S
C862 C863 1.370 . S
C863 C862 1.370 . S
C863 C864 1.396 . S
C863 H890 0.929 . S
C864 C859 1.373 . S
C864 C863 1.396 . S
C864 H891 0.929 . S
C865 O878 1.240 . S
C865 O879 1.289 . S
C866 O880 1.258 . S
C866 O881 1.256 . S
C867 La857 2.928 . S
C867 C868 1.503 . S
C867 O882 1.261 . S
C867 O883 1.243 . S
C868 C867 1.503 . S
C868 C869 1.394 . S
C868 C873 1.373 . S
C869 C868 1.394 . S
C869 C870 1.380 . S
C869 H892 0.930 . S
C870 C869 1.380 . S
C870 C871 1.376 . S
C870 H893 0.930 . S
C871 C870 1.376 . S
C871 C872 1.370 . S
C872 C871 1.370 . S
C872 C873 1.396 . S
C872 H894 0.929 . S
C873 C868 1.373 . S
C873 C872 1.396 . S
C873 H895 0.929 . S
C874 O884 1.240 . S
C874 O885 1.289 . S
C875 O886 1.258 . S
C875 O887 1.256 . S
O876 La856 2.521 . S
O876 C858 1.261 . S
O877 La856 2.628 . S
O877 C858 1.243 . S
O878 La856 2.554 . S
O878 C865 1.240 . S
O879 La856 2.757 . S
O879 La857 2.482 . S
O879 C865 1.289 . S
O880 La856 2.470 . S
O880 C866 1.258 . S
O881 La857 2.503 . S
O881 C866 1.256 . S
O882 La857 2.521 . S
O882 C867 1.261 . S
O883 La857 2.628 . S
O883 C867 1.243 . S
O884 La857 2.554 . S
O884 C874 1.240 . S
O885 La856 2.482 . S
O885 La857 2.757 . S
O885 C874 1.289 . S
O886 La857 2.470 . S
O886 C875 1.258 . S
O887 La856 2.503 . S
O887 C875 1.256 . S
H888 C860 0.930 . S
H889 C861 0.930 . S
H890 C863 0.929 . S
H891 C864 0.929 . S
H892 C869 0.930 . S
H893 C870 0.930 . S
H894 C872 0.929 . S
H895 C873 0.929 . S
La896 C898 2.928 . S
La896 O916 2.521 . S
La896 O917 2.628 . S
La896 O918 2.554 . S
La896 O919 2.757 . S
La896 O920 2.470 . S
La896 O925 2.482 . S
La896 O927 2.503 . S
La897 C907 2.928 . S
La897 O919 2.482 . S
La897 O921 2.503 . S
La897 O922 2.521 . S
La897 O923 2.628 . S
La897 O924 2.554 . S
La897 O925 2.757 . S
La897 O926 2.470 . S
C898 La896 2.928 . S
C898 C899 1.503 . S
C898 O916 1.261 . S
C898 O917 1.243 . S
C899 C898 1.503 . S
C899 C900 1.394 . S
C899 C904 1.373 . S
C900 C899 1.394 . S
C900 C901 1.380 . S
C900 H928 0.930 . S
C901 C900 1.380 . S
C901 C902 1.376 . S
C901 H929 0.930 . S
C902 C901 1.376 . S
C902 C903 1.370 . S
C903 C902 1.370 . S
C903 C904 1.396 . S
C903 H930 0.929 . S
C904 C899 1.373 . S
C904 C903 1.396 . S
C904 H931 0.929 . S
C905 O918 1.240 . S
C905 O919 1.289 . S
C906 O920 1.258 . S
C906 O921 1.256 . S
C907 La897 2.928 . S
C907 C908 1.503 . S
C907 O922 1.261 . S
C907 O923 1.243 . S
C908 C907 1.503 . S
C908 C909 1.394 . S
C908 C913 1.373 . S
C909 C908 1.394 . S
C909 C910 1.380 . S
C909 H932 0.930 . S
C910 C909 1.380 . S
C910 C911 1.376 . S
C910 H933 0.930 . S
C911 C910 1.376 . S
C911 C912 1.370 . S
C912 C911 1.370 . S
C912 C913 1.396 . S
C912 H934 0.929 . S
C913 C908 1.373 . S
C913 C912 1.396 . S
C913 H935 0.929 . S
C914 O924 1.240 . S
C914 O925 1.289 . S
C915 O926 1.258 . S
C915 O927 1.256 . S
O916 La896 2.521 . S
O916 C898 1.261 . S
O917 La896 2.628 . S
O917 C898 1.243 . S
O918 La896 2.554 . S
O918 C905 1.240 . S
O919 La896 2.757 . S
O919 La897 2.482 . S
O919 C905 1.289 . S
O920 La896 2.470 . S
O920 C906 1.258 . S
O921 La897 2.503 . S
O921 C906 1.256 . S
O922 La897 2.521 . S
O922 C907 1.261 . S
O923 La897 2.628 . S
O923 C907 1.243 . S
O924 La897 2.554 . S
O924 C914 1.240 . S
O925 La896 2.482 . S
O925 La897 2.757 . S
O925 C914 1.289 . S
O926 La897 2.470 . S
O926 C915 1.258 . S
O927 La896 2.503 . S
O927 C915 1.256 . S
H928 C900 0.930 . S
H929 C901 0.930 . S
H930 C903 0.929 . S
H931 C904 0.929 . S
H932 C909 0.930 . S
H933 C910 0.930 . S
H934 C912 0.929 . S
H935 C913 0.929 . S
La936 C938 2.928 1_554 S
La936 O956 2.521 1_554 S
La936 O957 2.628 . S
La936 O958 2.554 1_554 S
La936 O959 2.757 1_554 S
La936 O960 2.470 1_554 S
La936 O965 2.482 . S
La936 O967 2.503 . S
La937 C947 2.928 1_455 S
La937 O959 2.482 1_554 S
La937 O961 2.503 . S
La937 O962 2.521 1_455 S
La937 O963 2.628 1_455 S
La937 O964 2.554 . S
La937 O965 2.757 . S
La937 O966 2.470 . S
C938 La936 2.928 1_556 S
C938 C939 1.503 . S
C938 O956 1.261 . S
C938 O957 1.243 1_556 S
C939 C938 1.503 . S
C939 C940 1.394 . S
C939 C944 1.373 1_556 S
C940 C939 1.394 . S
C940 C941 1.380 . S
C940 H968 0.930 . S
C941 C940 1.380 . S
C941 C942 1.376 . S
C941 H969 0.930 . S
C942 C941 1.376 . S
C942 C943 1.370 1_556 S
C943 C942 1.370 1_554 S
C943 C944 1.396 . S
C943 H970 0.929 . S
C944 C939 1.373 1_554 S
C944 C943 1.396 . S
C944 H971 0.929 . S
C945 O958 1.240 . S
C945 O959 1.289 . S
C946 O960 1.258 1_554 S
C946 O961 1.256 . S
C947 La937 2.928 1_655 S
C947 C948 1.503 . S
C947 O962 1.261 . S
C947 O963 1.243 . S
C948 C947 1.503 . S
C948 C949 1.394 . S
C948 C953 1.373 . S
C949 C948 1.394 . S
C949 C950 1.380 . S
C949 H972 0.930 . S
C950 C949 1.380 . S
C950 C951 1.376 . S
C950 H973 0.930 . S
C951 C950 1.376 . S
C951 C952 1.370 . S
C952 C951 1.370 . S
C952 C953 1.396 . S
C952 H974 0.929 . S
C953 C948 1.373 . S
C953 C952 1.396 . S
C953 H975 0.929 . S
C954 O964 1.240 . S
C954 O965 1.289 . S
C955 O966 1.258 . S
C955 O967 1.256 . S
O956 La936 2.521 1_556 S
O956 C938 1.261 . S
O957 La936 2.628 . S
O957 C938 1.243 1_554 S
O958 La936 2.554 1_556 S
O958 C945 1.240 . S
O959 La936 2.757 1_556 S
O959 La937 2.482 1_556 S
O959 C945 1.289 . S
O960 La936 2.470 1_556 S
O960 C946 1.258 1_556 S
O961 La937 2.503 . S
O961 C946 1.256 . S
O962 La937 2.521 1_655 S
O962 C947 1.261 . S
O963 La937 2.628 1_655 S
O963 C947 1.243 . S
O964 La937 2.554 . S
O964 C954 1.240 . S
O965 La936 2.482 . S
O965 La937 2.757 . S
O965 C954 1.289 . S
O966 La937 2.470 . S
O966 C955 1.258 . S
O967 La936 2.503 . S
O967 C955 1.256 . S
H968 C940 0.930 . S
H969 C941 0.930 . S
H970 C943 0.929 . S
H971 C944 0.929 . S
H972 C949 0.930 . S
H973 C950 0.930 . S
H974 C952 0.929 . S
H975 C953 0.929 . S
C976 C977 1.391 . S
C976 C978 1.394 . S
C976 H992 0.931 . S
C977 C976 1.391 . S
C977 C981 1.376 . S
C978 C976 1.394 . S
C978 C979 1.369 . S
C978 C982 1.531 1_556 S
C979 C978 1.369 . S
C979 C980 1.410 . S
C979 C987 1.503 . S
C980 C979 1.410 . S
C980 C981 1.392 . S
C980 C983 1.511 1_455 S
C981 C977 1.376 . S
C981 C980 1.392 . S
C981 H993 0.929 1_455 S
C982 C978 1.531 1_554 S
C982 H994 0.960 . S
C982 H995 0.962 1_554 S
C982 H996 0.960 . S
C983 C980 1.511 1_655 S
C983 H997 0.961 . S
C983 H998 0.984 . S
C983 H999 0.961 . S
C984 C985 1.370 . S
C984 C986 1.363 . S
C984 H1000 0.931 . S
C985 C984 1.370 . S
C985 C989 1.408 1_556 S
C986 C984 1.363 . S
C986 C987 1.370 . S
C986 C990 1.524 . S
C987 C979 1.503 . S
C987 C986 1.370 . S
C987 C988 1.358 1_556 S
C988 C987 1.358 1_554 S
C988 C989 1.428 . S
C988 C991 1.561 . S
C989 C985 1.408 1_554 S
C989 C988 1.428 . S
C989 H1001 0.930 . S
C990 C986 1.524 . S
C990 H1002 0.956 . S
C990 H1003 0.961 . S
C990 H1004 0.961 . S
C991 C988 1.561 . S
C991 H1005 0.958 . S
C991 H1006 0.961 1_455 S
C991 H1007 0.983 1_455 S
H992 C976 0.931 . S
H993 C981 0.929 1_655 S
H994 C982 0.960 . S
H995 C982 0.962 1_556 S
H996 C982 0.960 . S
H997 C983 0.961 . S
H998 C983 0.984 . S
H999 C983 0.961 . S
H1000 C984 0.931 . S
H1001 C989 0.930 . S
H1002 C990 0.956 . S
H1003 C990 0.961 . S
H1004 C990 0.961 . S
H1005 C991 0.958 . S
H1006 C991 0.961 1_655 S
H1007 C991 0.983 1_655 S
C1008 C1009 1.391 . S
C1008 C1010 1.394 . S
C1008 H1024 0.931 . S
C1009 C1008 1.391 . S
C1009 C1013 1.376 . S
C1010 C1008 1.394 . S
C1010 C1011 1.369 . S
C1010 C1014 1.531 . S
C1011 C1010 1.369 . S
C1011 C1012 1.410 . S
C1011 C1019 1.503 . S
C1012 C1011 1.410 . S
C1012 C1013 1.392 . S
C1012 C1015 1.511 . S
C1013 C1009 1.376 . S
C1013 C1012 1.392 . S
C1013 H1025 0.929 . S
C1014 C1010 1.531 . S
C1014 H1026 0.960 . S
C1014 H1027 0.962 . S
C1014 H1028 0.960 . S
C1015 C1012 1.511 . S
C1015 H1029 0.961 . S
C1015 H1030 0.961 . S
C1015 H1031 0.961 . S
C1016 C1017 1.370 . S
C1016 C1018 1.363 . S
C1016 H1032 0.931 . S
C1017 C1016 1.370 . S
C1017 C1021 1.408 . S
C1018 C1016 1.363 . S
C1018 C1019 1.370 . S
C1018 C1022 1.524 . S
C1019 C1011 1.503 . S
C1019 C1018 1.370 . S
C1019 C1020 1.403 . S
C1020 C1019 1.403 . S
C1020 C1021 1.404 . S
C1020 C1023 1.539 . S
C1021 C1017 1.408 . S
C1021 C1020 1.404 . S
C1021 H1033 0.930 . S
C1022 C1018 1.524 . S
C1022 H1034 0.956 . S
C1022 H1035 0.961 . S
C1022 H1036 0.961 . S
C1023 C1020 1.539 . S
C1023 H1037 0.958 . S
C1023 H1038 0.961 . S
C1023 H1039 0.960 . S
H1024 C1008 0.931 . S
H1025 C1013 0.929 . S
H1026 C1014 0.960 . S
H1027 C1014 0.962 . S
H1028 C1014 0.960 . S
H1029 C1015 0.961 . S
H1030 C1015 0.961 . S
H1031 C1015 0.961 . S
H1032 C1016 0.931 . S
H1033 C1021 0.930 . S
H1034 C1022 0.956 . S
H1035 C1022 0.961 . S
H1036 C1022 0.961 . S
H1037 C1023 0.958 . S
H1038 C1023 0.961 . S
H1039 C1023 0.960 . S
C1040 C1041 1.391 . S
C1040 C1042 1.394 . S
C1040 H1056 0.931 . S
C1041 C1040 1.391 . S
C1041 C1045 1.376 . S
C1042 C1040 1.394 . S
C1042 C1043 1.369 . S
C1042 C1046 1.531 . S
C1043 C1042 1.369 . S
C1043 C1044 1.410 . S
C1043 C1051 1.503 . S
C1044 C1043 1.410 . S
C1044 C1045 1.392 . S
C1044 C1047 1.511 . S
C1045 C1041 1.376 . S
C1045 C1044 1.392 . S
C1045 H1057 0.929 . S
C1046 C1042 1.531 . S
C1046 H1058 0.960 . S
C1046 H1059 0.962 . S
C1046 H1060 0.960 . S
C1047 C1044 1.511 . S
C1047 H1061 0.961 . S
C1047 H1062 0.961 . S
C1047 H1063 0.961 . S
C1048 C1049 1.370 . S
C1048 C1050 1.363 . S
C1048 H1064 0.931 . S
C1049 C1048 1.370 . S
C1049 C1053 1.408 . S
C1050 C1048 1.363 . S
C1050 C1051 1.370 . S
C1050 C1054 1.524 . S
C1051 C1043 1.503 . S
C1051 C1050 1.370 . S
C1051 C1052 1.403 . S
C1052 C1051 1.403 . S
C1052 C1053 1.404 . S
C1052 C1055 1.539 . S
C1053 C1049 1.408 . S
C1053 C1052 1.404 . S
C1053 H1065 0.930 . S
C1054 C1050 1.524 . S
C1054 H1066 0.956 . S
C1054 H1067 0.961 . S
C1054 H1068 0.961 . S
C1055 C1052 1.539 . S
C1055 H1069 0.958 . S
C1055 H1070 0.961 . S
C1055 H1071 0.960 . S
H1056 C1040 0.931 . S
H1057 C1045 0.929 . S
H1058 C1046 0.960 . S
H1059 C1046 0.962 . S
H1060 C1046 0.960 . S
H1061 C1047 0.961 . S
H1062 C1047 0.961 . S
H1063 C1047 0.961 . S
H1064 C1048 0.931 . S
H1065 C1053 0.930 . S
H1066 C1054 0.956 . S
H1067 C1054 0.961 . S
H1068 C1054 0.961 . S
H1069 C1055 0.958 . S
H1070 C1055 0.961 . S
H1071 C1055 0.960 . S
C1072 C1073 1.391 . S
C1072 C1074 1.394 . S
C1072 H1088 0.931 . S
C1073 C1072 1.391 . S
C1073 C1077 1.376 . S
C1074 C1072 1.394 . S
C1074 C1075 1.369 . S
C1074 C1078 1.531 . S
C1075 C1074 1.369 . S
C1075 C1076 1.410 . S
C1075 C1083 1.503 . S
C1076 C1075 1.410 . S
C1076 C1077 1.392 . S
C1076 C1079 1.511 . S
C1077 C1073 1.376 . S
C1077 C1076 1.392 . S
C1077 H1089 0.929 . S
C1078 C1074 1.531 . S
C1078 H1090 0.960 . S
C1078 H1091 0.962 . S
C1078 H1092 0.960 . S
C1079 C1076 1.511 . S
C1079 H1093 0.961 . S
C1079 H1094 0.961 . S
C1079 H1095 0.961 . S
C1080 C1081 1.370 . S
C1080 C1082 1.363 . S
C1080 H1096 0.931 . S
C1081 C1080 1.370 . S
C1081 C1085 1.408 . S
C1082 C1080 1.363 . S
C1082 C1083 1.370 . S
C1082 C1086 1.524 . S
C1083 C1075 1.503 . S
C1083 C1082 1.370 . S
C1083 C1084 1.403 . S
C1084 C1083 1.403 . S
C1084 C1085 1.404 . S
C1084 C1087 1.539 . S
C1085 C1081 1.408 . S
C1085 C1084 1.404 . S
C1085 H1097 0.930 . S
C1086 C1082 1.524 . S
C1086 H1098 0.956 . S
C1086 H1099 0.961 . S
C1086 H1100 0.961 . S
C1087 C1084 1.539 . S
C1087 H1101 0.958 . S
C1087 H1102 0.961 . S
C1087 H1103 0.960 . S
H1088 C1072 0.931 . S
H1089 C1077 0.929 . S
H1090 C1078 0.960 . S
H1091 C1078 0.962 . S
H1092 C1078 0.960 . S
H1093 C1079 0.961 . S
H1094 C1079 0.961 . S
H1095 C1079 0.961 . S
H1096 C1080 0.931 . S
H1097 C1085 0.930 . S
H1098 C1086 0.956 . S
H1099 C1086 0.961 . S
H1100 C1086 0.961 . S
H1101 C1087 0.958 . S
H1102 C1087 0.961 . S
H1103 C1087 0.960 . S
C1104 C1105 1.403 . S
C1104 C1106 1.405 . S
C1104 H1120 0.909 1_455 S
C1105 C1104 1.403 . S
C1105 C1109 1.376 . S
C1106 C1104 1.405 . S
C1106 C1107 1.369 . S
C1106 C1110 1.549 . S
C1107 C1106 1.369 . S
C1107 C1108 1.410 . S
C1107 C1115 1.503 . S
C1108 C1107 1.410 . S
C1108 C1109 1.392 . S
C1108 C1111 1.511 . S
C1109 C1105 1.376 . S
C1109 C1108 1.392 . S
C1109 H1121 0.929 . S
C1110 C1106 1.549 . S
C1110 H1122 0.961 . S
C1110 H1123 0.993 . S
C1110 H1124 0.913 1_455 S
C1111 C1108 1.511 . S
C1111 H1125 0.961 . S
C1111 H1126 0.961 . S
C1111 H1127 0.961 . S
C1112 C1113 1.370 . S
C1112 C1114 1.363 . S
C1112 H1128 0.931 . S
C1113 C1112 1.370 . S
C1113 C1117 1.408 . S
C1114 C1112 1.363 . S
C1114 C1115 1.370 . S
C1114 C1118 1.524 . S
C1115 C1107 1.503 . S
C1115 C1114 1.370 . S
C1115 C1116 1.403 . S
C1116 C1115 1.403 . S
C1116 C1117 1.404 . S
C1116 C1119 1.539 . S
C1117 C1113 1.408 . S
C1117 C1116 1.404 . S
C1117 H1129 0.930 . S
C1118 C1114 1.524 . S
C1118 H1130 0.956 . S
C1118 H1131 0.961 . S
C1118 H1132 0.961 . S
C1119 C1116 1.539 . S
C1119 H1133 0.958 . S
C1119 H1134 0.961 . S
C1119 H1135 0.960 . S
H1120 C1104 0.909 1_655 S
H1121 C1109 0.929 . S
H1122 C1110 0.961 . S
H1123 C1110 0.993 . S
H1124 C1110 0.913 1_655 S
H1125 C1111 0.961 . S
H1126 C1111 0.961 . S
H1127 C1111 0.961 . S
H1128 C1112 0.931 . S
H1129 C1117 0.930 . S
H1130 C1118 0.956 . S
H1131 C1118 0.961 . S
H1132 C1118 0.961 . S
H1133 C1119 0.958 . S
H1134 C1119 0.961 . S
H1135 C1119 0.960 . S
C1136 C1137 1.391 . S
C1136 C1138 1.394 . S
C1136 H1152 0.931 . S
C1137 C1136 1.391 . S
C1137 C1141 1.376 . S
C1138 C1136 1.394 . S
C1138 C1139 1.369 . S
C1138 C1142 1.531 . S
C1139 C1138 1.369 . S
C1139 C1140 1.410 . S
C1139 C1147 1.503 . S
C1140 C1139 1.410 . S
C1140 C1141 1.392 . S
C1140 C1143 1.511 . S
C1141 C1137 1.376 . S
C1141 C1140 1.392 . S
C1141 H1153 0.929 . S
C1142 C1138 1.531 . S
C1142 H1154 0.960 . S
C1142 H1155 0.962 . S
C1142 H1156 0.960 . S
C1143 C1140 1.511 . S
C1143 H1157 0.961 . S
C1143 H1158 0.961 . S
C1143 H1159 0.961 . S
C1144 C1145 1.370 . S
C1144 C1146 1.363 . S
C1144 H1160 0.931 . S
C1145 C1144 1.370 . S
C1145 C1149 1.408 . S
C1146 C1144 1.363 . S
C1146 C1147 1.370 . S
C1146 C1150 1.524 . S
C1147 C1139 1.503 . S
C1147 C1146 1.370 . S
C1147 C1148 1.403 . S
C1148 C1147 1.403 . S
C1148 C1149 1.404 . S
C1148 C1151 1.539 . S
C1149 C1145 1.408 . S
C1149 C1148 1.404 . S
C1149 H1161 0.930 . S
C1150 C1146 1.524 . S
C1150 H1162 0.956 . S
C1150 H1163 0.961 . S
C1150 H1164 0.961 . S
C1151 C1148 1.539 . S
C1151 H1165 0.958 . S
C1151 H1166 0.961 . S
C1151 H1167 0.960 . S
H1152 C1136 0.931 . S
H1153 C1141 0.929 . S
H1154 C1142 0.960 . S
H1155 C1142 0.962 . S
H1156 C1142 0.960 . S
H1157 C1143 0.961 . S
H1158 C1143 0.961 . S
H1159 C1143 0.961 . S
H1160 C1144 0.931 . S
H1161 C1149 0.930 . S
H1162 C1150 0.956 . S
H1163 C1150 0.961 . S
H1164 C1150 0.961 . S
H1165 C1151 0.958 . S
H1166 C1151 0.961 . S
H1167 C1151 0.960 . S
C1168 C1169 1.391 . S
C1168 C1170 1.394 . S
C1168 H1184 0.931 . S
C1169 C1168 1.391 . S
C1169 C1173 1.376 . S
C1170 C1168 1.394 . S
C1170 C1171 1.369 . S
C1170 C1174 1.531 . S
C1171 C1170 1.369 . S
C1171 C1172 1.410 . S
C1171 C1179 1.503 . S
C1172 C1171 1.410 . S
C1172 C1173 1.392 . S
C1172 C1175 1.511 . S
C1173 C1169 1.376 . S
C1173 C1172 1.392 . S
C1173 H1185 0.929 . S
C1174 C1170 1.531 . S
C1174 H1186 0.960 . S
C1174 H1187 0.962 . S
C1174 H1188 0.960 . S
C1175 C1172 1.511 . S
C1175 H1189 0.961 . S
C1175 H1190 0.961 . S
C1175 H1191 0.961 . S
C1176 C1177 1.370 . S
C1176 C1178 1.363 . S
C1176 H1192 0.931 . S
C1177 C1176 1.370 . S
C1177 C1181 1.408 . S
C1178 C1176 1.363 . S
C1178 C1179 1.370 . S
C1178 C1182 1.524 . S
C1179 C1171 1.503 . S
C1179 C1178 1.370 . S
C1179 C1180 1.403 . S
C1180 C1179 1.403 . S
C1180 C1181 1.404 . S
C1180 C1183 1.539 . S
C1181 C1177 1.408 . S
C1181 C1180 1.404 . S
C1181 H1193 0.930 . S
C1182 C1178 1.524 . S
C1182 H1194 0.956 . S
C1182 H1195 0.961 . S
C1182 H1196 0.961 . S
C1183 C1180 1.539 . S
C1183 H1197 0.958 . S
C1183 H1198 0.961 . S
C1183 H1199 0.960 . S
H1184 C1168 0.931 . S
H1185 C1173 0.929 . S
H1186 C1174 0.960 . S
H1187 C1174 0.962 . S
H1188 C1174 0.960 . S
H1189 C1175 0.961 . S
H1190 C1175 0.961 . S
H1191 C1175 0.961 . S
H1192 C1176 0.931 . S
H1193 C1181 0.930 . S
H1194 C1182 0.956 . S
H1195 C1182 0.961 . S
H1196 C1182 0.961 . S
H1197 C1183 0.958 . S
H1198 C1183 0.961 . S
H1199 C1183 0.960 . S
C1200 C1201 1.391 . S
C1200 C1202 1.394 . S
C1200 H1216 0.931 . S
C1201 C1200 1.391 . S
C1201 C1205 1.376 . S
C1202 C1200 1.394 . S
C1202 C1203 1.369 . S
C1202 C1206 1.531 . S
C1203 C1202 1.369 . S
C1203 C1204 1.410 . S
C1203 C1211 1.503 . S
C1204 C1203 1.410 . S
C1204 C1205 1.392 . S
C1204 C1207 1.511 . S
C1205 C1201 1.376 . S
C1205 C1204 1.392 . S
C1205 H1217 0.929 . S
C1206 C1202 1.531 . S
C1206 H1218 0.960 . S
C1206 H1219 0.962 . S
C1206 H1220 0.960 . S
C1207 C1204 1.511 . S
C1207 H1221 0.961 . S
C1207 H1222 0.961 . S
C1207 H1223 0.961 . S
C1208 C1209 1.370 . S
C1208 C1210 1.363 . S
C1208 H1224 0.931 . S
C1209 C1208 1.370 . S
C1209 C1213 1.408 . S
C1210 C1208 1.363 . S
C1210 C1211 1.370 . S
C1210 C1214 1.524 . S
C1211 C1203 1.503 . S
C1211 C1210 1.370 . S
C1211 C1212 1.403 . S
C1212 C1211 1.403 . S
C1212 C1213 1.404 . S
C1212 C1215 1.539 . S
C1213 C1209 1.408 . S
C1213 C1212 1.404 . S
C1213 H1225 0.930 . S
C1214 C1210 1.524 . S
C1214 H1226 0.956 . S
C1214 H1227 0.961 . S
C1214 H1228 0.961 . S
C1215 C1212 1.539 . S
C1215 H1229 0.958 . S
C1215 H1230 0.961 . S
C1215 H1231 0.960 . S
H1216 C1200 0.931 . S
H1217 C1205 0.929 . S
H1218 C1206 0.960 . S
H1219 C1206 0.962 . S
H1220 C1206 0.960 . S
H1221 C1207 0.961 . S
H1222 C1207 0.961 . S
H1223 C1207 0.961 . S
H1224 C1208 0.931 . S
H1225 C1213 0.930 . S
H1226 C1214 0.956 . S
H1227 C1214 0.961 . S
H1228 C1214 0.961 . S
H1229 C1215 0.958 . S
H1230 C1215 0.961 . S
H1231 C1215 0.960 . S
C1232 C1233 1.391 . S
C1232 C1234 1.394 1_655 S
C1232 H1248 0.931 1_655 S
C1233 C1232 1.391 . S
C1233 C1237 1.376 . S
C1234 C1232 1.394 1_455 S
C1234 C1235 1.369 1_455 S
C1234 C1238 1.531 . S
C1235 C1234 1.369 1_655 S
C1235 C1236 1.410 . S
C1235 C1243 1.503 1_655 S
C1236 C1235 1.410 . S
C1236 C1237 1.392 . S
C1236 C1239 1.511 . S
C1237 C1233 1.376 . S
C1237 C1236 1.392 . S
C1237 H1249 0.929 . S
C1238 C1234 1.531 . S
C1238 H1250 0.960 . S
C1238 H1251 0.962 . S
C1238 H1252 0.960 . S
C1239 C1236 1.511 . S
C1239 H1253 0.961 . S
C1239 H1254 0.961 . S
C1239 H1255 0.961 . S
C1240 C1241 1.370 . S
C1240 C1242 1.363 . S
C1240 H1256 0.931 . S
C1241 C1240 1.370 . S
C1241 C1245 1.408 . S
C1242 C1240 1.363 . S
C1242 C1243 1.370 . S
C1242 C1246 1.524 . S
C1243 C1235 1.503 1_455 S
C1243 C1242 1.370 . S
C1243 C1244 1.403 . S
C1244 C1243 1.403 . S
C1244 C1245 1.404 . S
C1244 C1247 1.539 1_455 S
C1245 C1241 1.408 . S
C1245 C1244 1.404 . S
C1245 H1257 0.930 . S
C1246 C1242 1.524 . S
C1246 H1258 0.956 . S
C1246 H1259 0.961 1_455 S
C1246 H1260 0.961 . S
C1247 C1244 1.539 1_655 S
C1247 H1261 0.958 1_645 S
C1247 H1262 0.961 1_545 S
C1247 H1263 0.960 . S
H1248 C1232 0.931 1_455 S
H1249 C1237 0.929 . S
H1250 C1238 0.960 . S
H1251 C1238 0.962 . S
H1252 C1238 0.960 . S
H1253 C1239 0.961 . S
H1254 C1239 0.961 . S
H1255 C1239 0.961 . S
H1256 C1240 0.931 . S
H1257 C1245 0.930 . S
H1258 C1246 0.956 . S
H1259 C1246 0.961 1_655 S
H1260 C1246 0.961 . S
H1261 C1247 0.958 1_465 S
H1262 C1247 0.961 1_565 S
H1263 C1247 0.960 . S
C1264 C1265 1.391 . S
C1264 C1266 1.394 . S
C1264 H1280 0.931 . S
C1265 C1264 1.391 . S
C1265 C1269 1.376 . S
C1266 C1264 1.394 . S
C1266 C1267 1.369 . S
C1266 C1270 1.531 . S
C1267 C1266 1.369 . S
C1267 C1268 1.410 . S
C1267 C1275 1.503 . S
C1268 C1267 1.410 . S
C1268 C1269 1.392 . S
C1268 C1271 1.511 . S
C1269 C1265 1.376 . S
C1269 C1268 1.392 . S
C1269 H1281 0.929 . S
C1270 C1266 1.531 . S
C1270 H1282 0.960 . S
C1270 H1283 0.962 . S
C1270 H1284 0.960 . S
C1271 C1268 1.511 . S
C1271 H1285 0.961 . S
C1271 H1286 0.961 . S
C1271 H1287 0.961 . S
C1272 C1273 1.370 . S
C1272 C1274 1.363 . S
C1272 H1288 0.931 . S
C1273 C1272 1.370 . S
C1273 C1277 1.408 . S
C1274 C1272 1.363 . S
C1274 C1275 1.370 . S
C1274 C1278 1.524 . S
C1275 C1267 1.503 . S
C1275 C1274 1.370 . S
C1275 C1276 1.403 . S
C1276 C1275 1.403 . S
C1276 C1277 1.404 . S
C1276 C1279 1.539 . S
C1277 C1273 1.408 . S
C1277 C1276 1.404 . S
C1277 H1289 0.930 . S
C1278 C1274 1.524 . S
C1278 H1290 0.956 . S
C1278 H1291 0.961 . S
C1278 H1292 0.961 . S
C1279 C1276 1.539 . S
C1279 H1293 0.958 . S
C1279 H1294 0.961 . S
C1279 H1295 0.960 . S
H1280 C1264 0.931 . S
H1281 C1269 0.929 . S
H1282 C1270 0.960 . S
H1283 C1270 0.962 . S
H1284 C1270 0.960 . S
H1285 C1271 0.961 . S
H1286 C1271 0.961 . S
H1287 C1271 0.961 . S
H1288 C1272 0.931 . S
H1289 C1277 0.930 . S
H1290 C1278 0.956 . S
H1291 C1278 0.961 . S
H1292 C1278 0.961 . S
H1293 C1279 0.958 . S
H1294 C1279 0.961 . S
H1295 C1279 0.960 . S
C1296 C1297 1.391 . S
C1296 C1298 1.394 . S
C1296 H1312 0.931 . S
C1297 C1296 1.391 . S
C1297 C1301 1.376 . S
C1298 C1296 1.394 . S
C1298 C1299 1.369 . S
C1298 C1302 1.531 . S
C1299 C1298 1.369 . S
C1299 C1300 1.410 . S
C1299 C1307 1.503 . S
C1300 C1299 1.410 . S
C1300 C1301 1.392 . S
C1300 C1303 1.511 . S
C1301 C1297 1.376 . S
C1301 C1300 1.392 . S
C1301 H1313 0.929 . S
C1302 C1298 1.531 . S
C1302 H1314 0.960 . S
C1302 H1315 0.962 . S
C1302 H1316 0.960 . S
C1303 C1300 1.511 . S
C1303 H1317 0.961 . S
C1303 H1318 0.961 . S
C1303 H1319 0.961 . S
C1304 C1305 1.370 . S
C1304 C1306 1.363 . S
C1304 H1320 0.931 . S
C1305 C1304 1.370 . S
C1305 C1309 1.408 . S
C1306 C1304 1.363 . S
C1306 C1307 1.370 . S
C1306 C1310 1.524 . S
C1307 C1299 1.503 . S
C1307 C1306 1.370 . S
C1307 C1308 1.403 . S
C1308 C1307 1.403 . S
C1308 C1309 1.404 . S
C1308 C1311 1.539 . S
C1309 C1305 1.408 . S
C1309 C1308 1.404 . S
C1309 H1321 0.930 . S
C1310 C1306 1.524 . S
C1310 H1322 0.956 . S
C1310 H1323 0.961 . S
C1310 H1324 0.961 1_545 S
C1311 C1308 1.539 . S
C1311 H1325 0.958 . S
C1311 H1326 0.961 . S
C1311 H1327 0.960 . S
H1312 C1296 0.931 . S
H1313 C1301 0.929 . S
H1314 C1302 0.960 . S
H1315 C1302 0.962 . S
H1316 C1302 0.960 . S
H1317 C1303 0.961 . S
H1318 C1303 0.961 . S
H1319 C1303 0.961 . S
H1320 C1304 0.931 . S
H1321 C1309 0.930 . S
H1322 C1310 0.956 . S
H1323 C1310 0.961 . S
H1324 C1310 0.961 1_565 S
H1325 C1311 0.958 . S
H1326 C1311 0.961 . S
H1327 C1311 0.960 . S
C1328 C1329 1.391 . S
C1328 C1330 1.394 . S
C1328 H1344 0.931 . S
C1329 C1328 1.391 . S
C1329 C1333 1.376 . S
C1330 C1328 1.394 . S
C1330 C1331 1.369 . S
C1330 C1334 1.531 . S
C1331 C1330 1.369 . S
C1331 C1332 1.410 . S
C1331 C1339 1.503 . S
C1332 C1331 1.410 . S
C1332 C1333 1.392 . S
C1332 C1335 1.511 . S
C1333 C1329 1.376 . S
C1333 C1332 1.392 . S
C1333 H1345 0.929 . S
C1334 C1330 1.531 . S
C1334 H1346 0.960 . S
C1334 H1347 0.962 . S
C1334 H1348 0.960 . S
C1335 C1332 1.511 . S
C1335 H1349 0.961 . S
C1335 H1350 0.961 . S
C1335 H1351 0.961 . S
C1336 C1337 1.370 . S
C1336 C1338 1.363 . S
C1336 H1352 0.931 . S
C1337 C1336 1.370 . S
C1337 C1341 1.408 . S
C1338 C1336 1.363 . S
C1338 C1339 1.370 . S
C1338 C1342 1.524 . S
C1339 C1331 1.503 . S
C1339 C1338 1.370 . S
C1339 C1340 1.403 . S
C1340 C1339 1.403 . S
C1340 C1341 1.404 . S
C1340 C1343 1.539 . S
C1341 C1337 1.408 . S
C1341 C1340 1.404 . S
C1341 H1353 0.930 . S
C1342 C1338 1.524 . S
C1342 H1354 0.956 . S
C1342 H1355 0.961 . S
C1342 H1356 0.961 . S
C1343 C1340 1.539 . S
C1343 H1357 0.958 . S
C1343 H1358 0.961 . S
C1343 H1359 0.960 . S
H1344 C1328 0.931 . S
H1345 C1333 0.929 . S
H1346 C1334 0.960 . S
H1347 C1334 0.962 . S
H1348 C1334 0.960 . S
H1349 C1335 0.961 . S
H1350 C1335 0.961 . S
H1351 C1335 0.961 . S
H1352 C1336 0.931 . S
H1353 C1341 0.930 . S
H1354 C1342 0.956 . S
H1355 C1342 0.961 . S
H1356 C1342 0.961 . S
H1357 C1343 0.958 . S
H1358 C1343 0.961 . S
H1359 C1343 0.960 . S
C1360 C1361 1.391 . S
C1360 C1362 1.394 1_655 S
C1360 H1376 0.931 1_655 S
C1361 C1360 1.391 . S
C1361 C1365 1.376 . S
C1362 C1360 1.394 1_455 S
C1362 C1363 1.369 1_455 S
C1362 C1366 1.531 . S
C1363 C1362 1.369 1_655 S
C1363 C1364 1.410 . S
C1363 C1371 1.503 1_655 S
C1364 C1363 1.410 . S
C1364 C1365 1.392 . S
C1364 C1367 1.511 . S
C1365 C1361 1.376 . S
C1365 C1364 1.392 . S
C1365 H1377 0.929 . S
C1366 C1362 1.531 . S
C1366 H1378 0.960 . S
C1366 H1379 0.962 . S
C1366 H1380 0.960 . S
C1367 C1364 1.511 . S
C1367 H1381 0.961 . S
C1367 H1382 0.961 . S
C1367 H1383 0.961 . S
C1368 C1369 1.370 . S
C1368 C1370 1.363 . S
C1368 H1384 0.931 . S
C1369 C1368 1.370 . S
C1369 C1373 1.408 . S
C1370 C1368 1.363 . S
C1370 C1371 1.370 . S
C1370 C1374 1.524 . S
C1371 C1363 1.503 1_455 S
C1371 C1370 1.370 . S
C1371 C1372 1.403 . S
C1372 C1371 1.403 . S
C1372 C1373 1.404 . S
C1372 C1375 1.539 1_455 S
C1373 C1369 1.408 . S
C1373 C1372 1.404 . S
C1373 H1385 0.930 . S
C1374 C1370 1.524 . S
C1374 H1386 0.956 . S
C1374 H1387 0.961 1_455 S
C1374 H1388 0.961 . S
C1375 C1372 1.539 1_655 S
C1375 H1389 0.958 1_655 S
C1375 H1390 0.961 . S
C1375 H1391 0.960 . S
H1376 C1360 0.931 1_455 S
H1377 C1365 0.929 . S
H1378 C1366 0.960 . S
H1379 C1366 0.962 . S
H1380 C1366 0.960 . S
H1381 C1367 0.961 . S
H1382 C1367 0.961 . S
H1383 C1367 0.961 . S
H1384 C1368 0.931 . S
H1385 C1373 0.930 . S
H1386 C1374 0.956 . S
H1387 C1374 0.961 1_655 S
H1388 C1374 0.961 . S
H1389 C1375 0.958 1_455 S
H1390 C1375 0.961 . S
H1391 C1375 0.960 . S
C1392 C1393 1.391 . S
C1392 C1394 1.394 . S
C1392 H1408 0.931 . S
C1393 C1392 1.391 . S
C1393 C1397 1.376 . S
C1394 C1392 1.394 . S
C1394 C1395 1.369 . S
C1394 C1398 1.531 . S
C1395 C1394 1.369 . S
C1395 C1396 1.410 . S
C1395 C1403 1.503 . S
C1396 C1395 1.410 . S
C1396 C1397 1.392 . S
C1396 C1399 1.511 . S
C1397 C1393 1.376 . S
C1397 C1396 1.392 . S
C1397 H1409 0.929 . S
C1398 C1394 1.531 . S
C1398 H1410 0.960 . S
C1398 H1411 0.962 . S
C1398 H1412 0.960 . S
C1399 C1396 1.511 . S
C1399 H1413 0.961 . S
C1399 H1414 0.961 . S
C1399 H1415 0.961 . S
C1400 C1401 1.370 . S
C1400 C1402 1.363 . S
C1400 H1416 0.931 . S
C1401 C1400 1.370 . S
C1401 C1405 1.408 . S
C1402 C1400 1.363 . S
C1402 C1403 1.370 . S
C1402 C1406 1.524 . S
C1403 C1395 1.503 . S
C1403 C1402 1.370 . S
C1403 C1404 1.403 . S
C1404 C1403 1.403 . S
C1404 C1405 1.404 . S
C1404 C1407 1.539 . S
C1405 C1401 1.408 . S
C1405 C1404 1.404 . S
C1405 H1417 0.930 . S
C1406 C1402 1.524 . S
C1406 H1418 0.956 . S
C1406 H1419 0.961 . S
C1406 H1420 0.961 . S
C1407 C1404 1.539 . S
C1407 H1421 0.958 . S
C1407 H1422 0.961 . S
C1407 H1423 0.960 . S
H1408 C1392 0.931 . S
H1409 C1397 0.929 . S
H1410 C1398 0.960 . S
H1411 C1398 0.962 . S
H1412 C1398 0.960 . S
H1413 C1399 0.961 . S
H1414 C1399 0.961 . S
H1415 C1399 0.961 . S
H1416 C1400 0.931 . S
H1417 C1405 0.930 . S
H1418 C1406 0.956 . S
H1419 C1406 0.961 . S
H1420 C1406 0.961 . S
H1421 C1407 0.958 . S
H1422 C1407 0.961 . S
H1423 C1407 0.960 . S
C1424 C1425 1.391 . S
C1424 C1426 1.394 . S
C1424 H1440 0.931 . S
C1425 C1424 1.391 . S
C1425 C1429 1.376 . S
C1426 C1424 1.394 . S
C1426 C1427 1.369 . S
C1426 C1430 1.531 . S
C1427 C1426 1.369 . S
C1427 C1428 1.410 . S
C1427 C1435 1.503 . S
C1428 C1427 1.410 . S
C1428 C1429 1.392 . S
C1428 C1431 1.511 . S
C1429 C1425 1.376 . S
C1429 C1428 1.392 . S
C1429 H1441 0.929 . S
C1430 C1426 1.531 . S
C1430 H1442 0.960 . S
C1430 H1443 0.962 . S
C1430 H1444 0.960 . S
C1431 C1428 1.511 . S
C1431 H1445 0.961 . S
C1431 H1446 0.961 . S
C1431 H1447 0.961 . S
C1432 C1433 1.370 . S
C1432 C1434 1.363 . S
C1432 H1448 0.931 . S
C1433 C1432 1.370 . S
C1433 C1437 1.408 . S
C1434 C1432 1.363 . S
C1434 C1435 1.370 . S
C1434 C1438 1.524 . S
C1435 C1427 1.503 . S
C1435 C1434 1.370 . S
C1435 C1436 1.403 . S
C1436 C1435 1.403 . S
C1436 C1437 1.404 . S
C1436 C1439 1.539 . S
C1437 C1433 1.408 . S
C1437 C1436 1.404 . S
C1437 H1449 0.930 . S
C1438 C1434 1.524 . S
C1438 H1450 0.956 . S
C1438 H1451 0.961 . S
C1438 H1452 0.961 . S
C1439 C1436 1.539 . S
C1439 H1453 0.958 . S
C1439 H1454 0.961 . S
C1439 H1455 0.960 . S
H1440 C1424 0.931 . S
H1441 C1429 0.929 . S
H1442 C1430 0.960 . S
H1443 C1430 0.962 . S
H1444 C1430 0.960 . S
H1445 C1431 0.961 . S
H1446 C1431 0.961 . S
H1447 C1431 0.961 . S
H1448 C1432 0.931 . S
H1449 C1437 0.930 . S
H1450 C1438 0.956 . S
H1451 C1438 0.961 . S
H1452 C1438 0.961 . S
H1453 C1439 0.958 . S
H1454 C1439 0.961 . S
H1455 C1439 0.960 . S
C1456 C1457 1.391 . S
C1456 C1458 1.394 . S
C1456 H1472 0.931 . S
C1457 C1456 1.391 . S
C1457 C1461 1.376 . S
C1458 C1456 1.394 . S
C1458 C1459 1.369 . S
C1458 C1462 1.531 . S
C1459 C1458 1.369 . S
C1459 C1460 1.410 . S
C1459 C1467 1.503 . S
C1460 C1459 1.410 . S
C1460 C1461 1.392 . S
C1460 C1463 1.511 . S
C1461 C1457 1.376 . S
C1461 C1460 1.392 . S
C1461 H1473 0.929 . S
C1462 C1458 1.531 . S
C1462 H1474 0.960 . S
C1462 H1475 0.962 . S
C1462 H1476 0.960 . S
C1463 C1460 1.511 . S
C1463 H1477 0.961 . S
C1463 H1478 0.961 . S
C1463 H1479 0.961 . S
C1464 C1465 1.370 . S
C1464 C1466 1.363 . S
C1464 H1480 0.931 . S
C1465 C1464 1.370 . S
C1465 C1469 1.408 . S
C1466 C1464 1.363 . S
C1466 C1467 1.370 . S
C1466 C1470 1.524 . S
C1467 C1459 1.503 . S
C1467 C1466 1.370 . S
C1467 C1468 1.403 . S
C1468 C1467 1.403 . S
C1468 C1469 1.404 . S
C1468 C1471 1.539 . S
C1469 C1465 1.408 . S
C1469 C1468 1.404 . S
C1469 H1481 0.930 . S
C1470 C1466 1.524 . S
C1470 H1482 0.956 . S
C1470 H1483 0.961 . S
C1470 H1484 0.961 . S
C1471 C1468 1.539 . S
C1471 H1485 0.958 . S
C1471 H1486 0.961 . S
C1471 H1487 0.960 . S
H1472 C1456 0.931 . S
H1473 C1461 0.929 . S
H1474 C1462 0.960 . S
H1475 C1462 0.962 . S
H1476 C1462 0.960 . S
H1477 C1463 0.961 . S
H1478 C1463 0.961 . S
H1479 C1463 0.961 . S
H1480 C1464 0.931 . S
H1481 C1469 0.930 . S
H1482 C1470 0.956 . S
H1483 C1470 0.961 . S
H1484 C1470 0.961 . S
H1485 C1471 0.958 . S
H1486 C1471 0.961 . S
H1487 C1471 0.960 . S
C1488 C1489 1.391 . S
C1488 C1490 1.394 . S
C1488 H1504 0.931 1_554 S
C1489 C1488 1.391 . S
C1489 C1493 1.376 . S
C1490 C1488 1.394 . S
C1490 C1491 1.369 . S
C1490 C1494 1.531 . S
C1491 C1490 1.369 . S
C1491 C1492 1.410 . S
C1491 C1499 1.503 . S
C1492 C1491 1.410 . S
C1492 C1493 1.392 . S
C1492 C1495 1.511 1_565 S
C1493 C1489 1.376 . S
C1493 C1492 1.392 . S
C1493 H1505 0.929 . S
C1494 C1490 1.531 . S
C1494 H1506 0.960 . S
C1494 H1507 0.962 1_554 S
C1494 H1508 0.960 . S
C1495 C1492 1.511 1_545 S
C1495 H1509 0.961 . S
C1495 H1510 0.961 . S
C1495 H1511 0.961 1_545 S
C1496 C1497 1.376 . S
C1496 C1498 1.375 . S
C1496 H1512 0.913 1_565 S
C1497 C1496 1.376 . S
C1497 C1501 1.408 . S
C1498 C1496 1.375 . S
C1498 C1499 1.370 . S
C1498 C1502 1.524 . S
C1499 C1491 1.503 . S
C1499 C1498 1.370 . S
C1499 C1500 1.403 . S
C1500 C1499 1.403 . S
C1500 C1501 1.404 . S
C1500 C1503 1.539 . S
C1501 C1497 1.408 . S
C1501 C1500 1.404 . S
C1501 H1513 0.930 . S
C1502 C1498 1.524 . S
C1502 H1514 0.956 1_554 S
C1502 H1515 0.961 1_565 S
C1502 H1516 0.961 1_564 S
C1503 C1500 1.539 . S
C1503 H1517 0.958 . S
C1503 H1518 0.961 . S
C1503 H1519 0.960 . S
H1504 C1488 0.931 1_556 S
H1505 C1493 0.929 . S
H1506 C1494 0.960 . S
H1507 C1494 0.962 1_556 S
H1508 C1494 0.960 . S
H1509 C1495 0.961 . S
H1510 C1495 0.961 . S
H1511 C1495 0.961 1_565 S
H1512 C1496 0.913 1_545 S
H1513 C1501 0.930 . S
H1514 C1502 0.956 1_556 S
H1515 C1502 0.961 1_545 S
H1516 C1502 0.961 1_546 S
H1517 C1503 0.958 . S
H1518 C1503 0.961 . S
H1519 C1503 0.960 . S
C1520 C1521 1.391 . S
C1520 C1522 1.394 . S
C1520 H1536 0.931 . S
C1521 C1520 1.391 . S
C1521 C1525 1.376 . S
C1522 C1520 1.394 . S
C1522 C1523 1.369 . S
C1522 C1526 1.531 . S
C1523 C1522 1.369 . S
C1523 C1524 1.410 . S
C1523 C1531 1.503 . S
C1524 C1523 1.410 . S
C1524 C1525 1.393 . S
C1524 C1527 1.511 1_554 S
C1525 C1521 1.376 . S
C1525 C1524 1.393 . S
C1525 H1537 0.928 1_554 S
C1526 C1522 1.531 . S
C1526 H1538 0.960 . S
C1526 H1539 0.962 . S
C1526 H1540 0.960 . S
C1527 C1524 1.511 1_556 S
C1527 H1541 0.962 . S
C1527 H1542 0.961 . S
C1527 H1543 0.959 1_556 S
C1528 C1529 1.370 1_556 S
C1528 C1530 1.363 . S
C1528 H1544 0.931 . S
C1529 C1528 1.370 1_554 S
C1529 C1533 1.408 . S
C1530 C1528 1.363 . S
C1530 C1531 1.370 1_556 S
C1530 C1534 1.524 . S
C1531 C1523 1.503 . S
C1531 C1530 1.370 1_554 S
C1531 C1532 1.403 . S
C1532 C1531 1.403 . S
C1532 C1533 1.404 . S
C1532 C1535 1.539 . S
C1533 C1529 1.408 . S
C1533 C1532 1.404 . S
C1533 H1545 0.930 . S
C1534 C1530 1.524 . S
C1534 H1546 0.956 . S
C1534 H1547 0.961 . S
C1534 H1548 0.961 . S
C1535 C1532 1.539 . S
C1535 H1549 0.958 . S
C1535 H1550 0.961 . S
C1535 H1551 0.960 . S
H1536 C1520 0.931 . S
H1537 C1525 0.928 1_556 S
H1538 C1526 0.960 . S
H1539 C1526 0.962 . S
H1540 C1526 0.960 . S
H1541 C1527 0.962 . S
H1542 C1527 0.961 . S
H1543 C1527 0.959 1_554 S
H1544 C1528 0.931 . S
H1545 C1533 0.930 . S
H1546 C1534 0.956 . S
H1547 C1534 0.961 . S
H1548 C1534 0.961 . S
H1549 C1535 0.958 . S
H1550 C1535 0.961 . S
H1551 C1535 0.960 . S
C1552 C1553 1.391 . S
C1552 C1554 1.394 . S
C1552 H1568 0.931 . S
C1553 C1552 1.391 . S
C1553 C1557 1.376 . S
C1554 C1552 1.394 . S
C1554 C1555 1.369 . S
C1554 C1558 1.531 . S
C1555 C1554 1.369 . S
C1555 C1556 1.410 . S
C1555 C1563 1.503 . S
C1556 C1555 1.410 . S
C1556 C1557 1.392 . S
C1556 C1559 1.511 . S
C1557 C1553 1.376 . S
C1557 C1556 1.392 . S
C1557 H1569 0.929 . S
C1558 C1554 1.531 . S
C1558 H1570 0.960 . S
C1558 H1571 0.962 . S
C1558 H1572 0.960 . S
C1559 C1556 1.511 . S
C1559 H1573 0.961 . S
C1559 H1574 0.961 . S
C1559 H1575 0.961 . S
C1560 C1561 1.370 . S
C1560 C1562 1.363 . S
C1560 H1576 0.931 . S
C1561 C1560 1.370 . S
C1561 C1565 1.408 . S
C1562 C1560 1.363 . S
C1562 C1563 1.370 . S
C1562 C1566 1.524 . S
C1563 C1555 1.503 . S
C1563 C1562 1.370 . S
C1563 C1564 1.403 . S
C1564 C1563 1.403 . S
C1564 C1565 1.404 . S
C1564 C1567 1.539 . S
C1565 C1561 1.408 . S
C1565 C1564 1.404 . S
C1565 H1577 0.930 . S
C1566 C1562 1.524 . S
C1566 H1578 0.956 . S
C1566 H1579 0.961 . S
C1566 H1580 0.961 . S
C1567 C1564 1.539 . S
C1567 H1581 0.958 . S
C1567 H1582 0.961 . S
C1567 H1583 0.960 . S
H1568 C1552 0.931 . S
H1569 C1557 0.929 . S
H1570 C1558 0.960 . S
H1571 C1558 0.962 . S
H1572 C1558 0.960 . S
H1573 C1559 0.961 . S
H1574 C1559 0.961 . S
H1575 C1559 0.961 . S
H1576 C1560 0.931 . S
H1577 C1565 0.930 . S
H1578 C1566 0.956 . S
H1579 C1566 0.961 . S
H1580 C1566 0.961 . S
H1581 C1567 0.958 . S
H1582 C1567 0.961 . S
H1583 C1567 0.960 . S
C1584 C1585 1.391 . S
C1584 C1586 1.394 . S
C1584 H1600 0.931 . S
C1585 C1584 1.391 . S
C1585 C1589 1.376 . S
C1586 C1584 1.394 . S
C1586 C1587 1.369 . S
C1586 C1590 1.531 . S
C1587 C1586 1.369 . S
C1587 C1588 1.410 . S
C1587 C1595 1.503 . S
C1588 C1587 1.410 . S
C1588 C1589 1.392 . S
C1588 C1591 1.511 . S
C1589 C1585 1.376 . S
C1589 C1588 1.392 . S
C1589 H1601 0.929 . S
C1590 C1586 1.531 . S
C1590 H1602 0.960 . S
C1590 H1603 0.962 . S
C1590 H1604 0.960 . S
C1591 C1588 1.511 . S
C1591 H1605 0.961 . S
C1591 H1606 0.961 . S
C1591 H1607 0.961 . S
C1592 C1593 1.370 . S
C1592 C1594 1.363 . S
C1592 H1608 0.931 . S
C1593 C1592 1.370 . S
C1593 C1597 1.408 . S
C1594 C1592 1.363 . S
C1594 C1595 1.370 . S
C1594 C1598 1.524 . S
C1595 C1587 1.503 . S
C1595 C1594 1.370 . S
C1595 C1596 1.403 . S
C1596 C1595 1.403 . S
C1596 C1597 1.404 . S
C1596 C1599 1.539 . S
C1597 C1593 1.408 . S
C1597 C1596 1.404 . S
C1597 H1609 0.930 1_655 S
C1598 C1594 1.524 . S
C1598 H1610 0.956 . S
C1598 H1611 0.961 . S
C1598 H1612 0.961 . S
C1599 C1596 1.539 . S
C1599 H1613 0.958 . S
C1599 H1614 0.961 . S
C1599 H1615 0.960 . S
H1600 C1584 0.931 . S
H1601 C1589 0.929 . S
H1602 C1590 0.960 . S
H1603 C1590 0.962 . S
H1604 C1590 0.960 . S
H1605 C1591 0.961 . S
H1606 C1591 0.961 . S
H1607 C1591 0.961 . S
H1608 C1592 0.931 . S
H1609 C1597 0.930 1_455 S
H1610 C1598 0.956 . S
H1611 C1598 0.961 . S
H1612 C1598 0.961 . S
H1613 C1599 0.958 . S
H1614 C1599 0.961 . S
H1615 C1599 0.960 . S
C1616 C1617 1.391 . S
C1616 C1618 1.394 . S
C1616 H1632 0.931 . S
C1617 C1616 1.391 . S
C1617 C1621 1.376 . S
C1618 C1616 1.394 . S
C1618 C1619 1.369 . S
C1618 C1622 1.531 . S
C1619 C1618 1.369 . S
C1619 C1620 1.410 . S
C1619 C1627 1.503 . S
C1620 C1619 1.410 . S
C1620 C1621 1.392 . S
C1620 C1623 1.511 . S
C1621 C1617 1.376 . S
C1621 C1620 1.392 . S
C1621 H1633 0.929 . S
C1622 C1618 1.531 . S
C1622 H1634 0.960 . S
C1622 H1635 0.962 . S
C1622 H1636 0.960 . S
C1623 C1620 1.511 . S
C1623 H1637 0.961 . S
C1623 H1638 0.961 . S
C1623 H1639 0.961 . S
C1624 C1625 1.370 . S
C1624 C1626 1.363 . S
C1624 H1640 0.931 . S
C1625 C1624 1.370 . S
C1625 C1629 1.408 . S
C1626 C1624 1.363 . S
C1626 C1627 1.370 . S
C1626 C1630 1.524 . S
C1627 C1619 1.503 . S
C1627 C1626 1.370 . S
C1627 C1628 1.403 . S
C1628 C1627 1.403 . S
C1628 C1629 1.404 . S
C1628 C1631 1.539 . S
C1629 C1625 1.408 . S
C1629 C1628 1.404 . S
C1629 H1641 0.930 . S
C1630 C1626 1.524 . S
C1630 H1642 0.956 . S
C1630 H1643 0.961 . S
C1630 H1644 0.961 . S
C1631 C1628 1.539 . S
C1631 H1645 0.958 . S
C1631 H1646 0.961 . S
C1631 H1647 0.960 . S
H1632 C1616 0.931 . S
H1633 C1621 0.929 . S
H1634 C1622 0.960 . S
H1635 C1622 0.962 . S
H1636 C1622 0.960 . S
H1637 C1623 0.961 . S
H1638 C1623 0.961 . S
H1639 C1623 0.961 . S
H1640 C1624 0.931 . S
H1641 C1629 0.930 . S
H1642 C1630 0.956 . S
H1643 C1630 0.961 . S
H1644 C1630 0.961 . S
H1645 C1631 0.958 . S
H1646 C1631 0.961 . S
H1647 C1631 0.960 . S
C1648 C1649 1.391 . S
C1648 C1650 1.394 . S
C1648 H1664 0.931 . S
C1649 C1648 1.391 . S
C1649 C1653 1.376 . S
C1650 C1648 1.394 . S
C1650 C1651 1.369 . S
C1650 C1654 1.531 . S
C1651 C1650 1.369 . S
C1651 C1652 1.410 . S
C1651 C1659 1.503 . S
C1652 C1651 1.410 . S
C1652 C1653 1.392 . S
C1652 C1655 1.511 . S
C1653 C1649 1.376 . S
C1653 C1652 1.392 . S
C1653 H1665 0.929 . S
C1654 C1650 1.531 . S
C1654 H1666 0.960 . S
C1654 H1667 0.962 . S
C1654 H1668 0.960 . S
C1655 C1652 1.511 . S
C1655 H1669 0.961 . S
C1655 H1670 0.961 . S
C1655 H1671 0.961 . S
C1656 C1657 1.370 . S
C1656 C1658 1.363 . S
C1656 H1672 0.931 . S
C1657 C1656 1.370 . S
C1657 C1661 1.408 . S
C1658 C1656 1.363 . S
C1658 C1659 1.370 . S
C1658 C1662 1.524 . S
C1659 C1651 1.503 . S
C1659 C1658 1.370 . S
C1659 C1660 1.403 . S
C1660 C1659 1.403 . S
C1660 C1661 1.404 . S
C1660 C1663 1.539 . S
C1661 C1657 1.408 . S
C1661 C1660 1.404 . S
C1661 H1673 0.930 . S
C1662 C1658 1.524 . S
C1662 H1674 0.956 . S
C1662 H1675 0.961 . S
C1662 H1676 0.961 . S
C1663 C1660 1.539 . S
C1663 H1677 0.958 . S
C1663 H1678 0.961 . S
C1663 H1679 0.960 . S
H1664 C1648 0.931 . S
H1665 C1653 0.929 . S
H1666 C1654 0.960 . S
H1667 C1654 0.962 . S
H1668 C1654 0.960 . S
H1669 C1655 0.961 . S
H1670 C1655 0.961 . S
H1671 C1655 0.961 . S
H1672 C1656 0.931 . S
H1673 C1661 0.930 . S
H1674 C1662 0.956 . S
H1675 C1662 0.961 . S
H1676 C1662 0.961 . S
H1677 C1663 0.958 . S
H1678 C1663 0.961 . S
H1679 C1663 0.960 . S
C1680 C1681 1.391 . S
C1680 C1682 1.394 . S
C1680 H1696 0.931 . S
C1681 C1680 1.391 . S
C1681 C1685 1.376 . S
C1682 C1680 1.394 . S
C1682 C1683 1.369 . S
C1682 C1686 1.531 . S
C1683 C1682 1.369 . S
C1683 C1684 1.410 . S
C1683 C1691 1.503 . S
C1684 C1683 1.410 . S
C1684 C1685 1.392 . S
C1684 C1687 1.511 . S
C1685 C1681 1.376 . S
C1685 C1684 1.392 . S
C1685 H1697 0.929 . S
C1686 C1682 1.531 . S
C1686 H1698 0.960 . S
C1686 H1699 0.962 . S
C1686 H1700 0.960 . S
C1687 C1684 1.511 . S
C1687 H1701 0.961 . S
C1687 H1702 0.961 . S
C1687 H1703 0.961 . S
C1688 C1689 1.370 . S
C1688 C1690 1.363 . S
C1688 H1704 0.931 . S
C1689 C1688 1.370 . S
C1689 C1693 1.408 . S
C1690 C1688 1.363 . S
C1690 C1691 1.370 . S
C1690 C1694 1.524 . S
C1691 C1683 1.503 . S
C1691 C1690 1.370 . S
C1691 C1692 1.403 . S
C1692 C1691 1.403 . S
C1692 C1693 1.404 . S
C1692 C1695 1.539 . S
C1693 C1689 1.408 . S
C1693 C1692 1.404 . S
C1693 H1705 0.930 . S
C1694 C1690 1.524 . S
C1694 H1706 0.956 . S
C1694 H1707 0.961 . S
C1694 H1708 0.961 . S
C1695 C1692 1.539 . S
C1695 H1709 0.958 . S
C1695 H1710 0.961 . S
C1695 H1711 0.960 . S
H1696 C1680 0.931 . S
H1697 C1685 0.929 . S
H1698 C1686 0.960 . S
H1699 C1686 0.962 . S
H1700 C1686 0.960 . S
H1701 C1687 0.961 . S
H1702 C1687 0.961 . S
H1703 C1687 0.961 . S
H1704 C1688 0.931 . S
H1705 C1693 0.930 . S
H1706 C1694 0.956 . S
H1707 C1694 0.961 . S
H1708 C1694 0.961 . S
H1709 C1695 0.958 . S
H1710 C1695 0.961 . S
H1711 C1695 0.960 . S
C1712 C1713 1.391 . S
C1712 C1714 1.394 . S
C1712 H1728 0.931 . S
C1713 C1712 1.391 . S
C1713 C1717 1.376 . S
C1714 C1712 1.394 . S
C1714 C1715 1.369 . S
C1714 C1718 1.531 . S
C1715 C1714 1.369 . S
C1715 C1716 1.410 . S
C1715 C1723 1.503 . S
C1716 C1715 1.410 . S
C1716 C1717 1.392 . S
C1716 C1719 1.511 . S
C1717 C1713 1.376 . S
C1717 C1716 1.392 . S
C1717 H1729 0.929 . S
C1718 C1714 1.531 . S
C1718 H1730 0.960 . S
C1718 H1731 0.962 . S
C1718 H1732 0.960 . S
C1719 C1716 1.511 . S
C1719 H1733 0.961 . S
C1719 H1734 0.961 . S
C1719 H1735 0.961 . S
C1720 C1721 1.370 . S
C1720 C1722 1.363 . S
C1720 H1736 0.931 . S
C1721 C1720 1.370 . S
C1721 C1725 1.408 . S
C1722 C1720 1.363 . S
C1722 C1723 1.370 . S
C1722 C1726 1.524 . S
C1723 C1715 1.503 . S
C1723 C1722 1.370 . S
C1723 C1724 1.403 . S
C1724 C1723 1.403 . S
C1724 C1725 1.404 . S
C1724 C1727 1.539 . S
C1725 C1721 1.408 . S
C1725 C1724 1.404 . S
C1725 H1737 0.930 . S
C1726 C1722 1.524 . S
C1726 H1738 0.956 . S
C1726 H1739 0.961 . S
C1726 H1740 0.961 . S
C1727 C1724 1.539 . S
C1727 H1741 0.958 . S
C1727 H1742 0.961 . S
C1727 H1743 0.960 . S
H1728 C1712 0.931 . S
H1729 C1717 0.929 . S
H1730 C1718 0.960 . S
H1731 C1718 0.962 . S
H1732 C1718 0.960 . S
H1733 C1719 0.961 . S
H1734 C1719 0.961 . S
H1735 C1719 0.961 . S
H1736 C1720 0.931 . S
H1737 C1725 0.930 . S
H1738 C1726 0.956 . S
H1739 C1726 0.961 . S
H1740 C1726 0.961 . S
H1741 C1727 0.958 . S
H1742 C1727 0.961 . S
H1743 C1727 0.960 . S
C1744 C1745 1.391 . S
C1744 C1746 1.394 . S
C1744 H1760 0.931 . S
C1745 C1744 1.391 . S
C1745 C1749 1.376 . S
C1746 C1744 1.394 . S
C1746 C1747 1.369 . S
C1746 C1750 1.531 . S
C1747 C1746 1.369 . S
C1747 C1748 1.410 . S
C1747 C1755 1.503 . S
C1748 C1747 1.410 . S
C1748 C1749 1.392 . S
C1748 C1751 1.511 . S
C1749 C1745 1.376 . S
C1749 C1748 1.392 . S
C1749 H1761 0.929 . S
C1750 C1746 1.531 . S
C1750 H1762 0.960 . S
C1750 H1763 0.962 . S
C1750 H1764 0.960 . S
C1751 C1748 1.511 . S
C1751 H1765 0.961 . S
C1751 H1766 0.961 . S
C1751 H1767 0.961 . S
C1752 C1753 1.370 . S
C1752 C1754 1.363 . S
C1752 H1768 0.931 . S
C1753 C1752 1.370 . S
C1753 C1757 1.408 . S
C1754 C1752 1.363 . S
C1754 C1755 1.370 . S
C1754 C1758 1.524 . S
C1755 C1747 1.503 . S
C1755 C1754 1.370 . S
C1755 C1756 1.403 . S
C1756 C1755 1.403 . S
C1756 C1757 1.404 . S
C1756 C1759 1.539 . S
C1757 C1753 1.408 . S
C1757 C1756 1.404 . S
C1757 H1769 0.930 . S
C1758 C1754 1.524 . S
C1758 H1770 0.956 . S
C1758 H1771 0.961 . S
C1758 H1772 0.961 . S
C1759 C1756 1.539 . S
C1759 H1773 0.958 . S
C1759 H1774 0.961 . S
C1759 H1775 0.960 . S
H1760 C1744 0.931 . S
H1761 C1749 0.929 . S
H1762 C1750 0.960 . S
H1763 C1750 0.962 . S
H1764 C1750 0.960 . S
H1765 C1751 0.961 . S
H1766 C1751 0.961 . S
H1767 C1751 0.961 . S
H1768 C1752 0.931 . S
H1769 C1757 0.930 . S
H1770 C1758 0.956 . S
H1771 C1758 0.961 . S
H1772 C1758 0.961 . S
H1773 C1759 0.958 . S
H1774 C1759 0.961 . S
H1775 C1759 0.960 . S
C1776 C1777 1.391 . S
C1776 C1778 1.394 . S
C1776 H1792 0.931 . S
C1777 C1776 1.391 . S
C1777 C1781 1.376 . S
C1778 C1776 1.394 . S
C1778 C1779 1.369 . S
C1778 C1782 1.531 . S
C1779 C1778 1.369 . S
C1779 C1780 1.410 . S
C1779 C1787 1.503 . S
C1780 C1779 1.410 . S
C1780 C1781 1.392 . S
C1780 C1783 1.511 . S
C1781 C1777 1.376 . S
C1781 C1780 1.392 . S
C1781 H1793 0.929 . S
C1782 C1778 1.531 . S
C1782 H1794 0.960 . S
C1782 H1795 0.962 . S
C1782 H1796 0.960 . S
C1783 C1780 1.511 . S
C1783 H1797 0.961 . S
C1783 H1798 0.961 . S
C1783 H1799 0.961 . S
C1784 C1785 1.370 . S
C1784 C1786 1.363 . S
C1784 H1800 0.931 . S
C1785 C1784 1.370 . S
C1785 C1789 1.408 . S
C1786 C1784 1.363 . S
C1786 C1787 1.370 . S
C1786 C1790 1.524 . S
C1787 C1779 1.503 . S
C1787 C1786 1.370 . S
C1787 C1788 1.403 . S
C1788 C1787 1.403 . S
C1788 C1789 1.404 . S
C1788 C1791 1.539 . S
C1789 C1785 1.408 . S
C1789 C1788 1.404 . S
C1789 H1801 0.930 . S
C1790 C1786 1.524 . S
C1790 H1802 0.956 . S
C1790 H1803 0.961 . S
C1790 H1804 0.961 . S
C1791 C1788 1.539 . S
C1791 H1805 0.958 . S
C1791 H1806 0.961 . S
C1791 H1807 0.960 . S
H1792 C1776 0.931 . S
H1793 C1781 0.929 . S
H1794 C1782 0.960 . S
H1795 C1782 0.962 . S
H1796 C1782 0.960 . S
H1797 C1783 0.961 . S
H1798 C1783 0.961 . S
H1799 C1783 0.961 . S
H1800 C1784 0.931 . S
H1801 C1789 0.930 . S
H1802 C1790 0.956 . S
H1803 C1790 0.961 . S
H1804 C1790 0.961 . S
H1805 C1791 0.958 . S
H1806 C1791 0.961 . S
H1807 C1791 0.960 . S
C1808 C1809 1.391 . S
C1808 C1810 1.394 . S
C1808 H1824 0.931 . S
C1809 C1808 1.391 . S
C1809 C1813 1.376 . S
C1810 C1808 1.394 . S
C1810 C1811 1.369 . S
C1810 C1814 1.531 . S
C1811 C1810 1.369 . S
C1811 C1812 1.410 . S
C1811 C1819 1.503 . S
C1812 C1811 1.410 . S
C1812 C1813 1.392 . S
C1812 C1815 1.511 . S
C1813 C1809 1.376 . S
C1813 C1812 1.392 . S
C1813 H1825 0.929 . S
C1814 C1810 1.531 . S
C1814 H1826 0.960 . S
C1814 H1827 0.962 . S
C1814 H1828 0.960 . S
C1815 C1812 1.511 . S
C1815 H1829 0.961 . S
C1815 H1830 0.961 . S
C1815 H1831 0.961 . S
C1816 C1817 1.370 . S
C1816 C1818 1.363 . S
C1816 H1832 0.931 . S
C1817 C1816 1.370 . S
C1817 C1821 1.408 . S
C1818 C1816 1.363 . S
C1818 C1819 1.370 . S
C1818 C1822 1.524 . S
C1819 C1811 1.503 . S
C1819 C1818 1.370 . S
C1819 C1820 1.403 . S
C1820 C1819 1.403 . S
C1820 C1821 1.404 . S
C1820 C1823 1.539 . S
C1821 C1817 1.408 . S
C1821 C1820 1.404 . S
C1821 H1833 0.930 . S
C1822 C1818 1.524 . S
C1822 H1834 0.956 . S
C1822 H1835 0.961 . S
C1822 H1836 0.961 . S
C1823 C1820 1.539 . S
C1823 H1837 0.958 . S
C1823 H1838 0.961 . S
C1823 H1839 0.960 . S
H1824 C1808 0.931 . S
H1825 C1813 0.929 . S
H1826 C1814 0.960 . S
H1827 C1814 0.962 . S
H1828 C1814 0.960 . S
H1829 C1815 0.961 . S
H1830 C1815 0.961 . S
H1831 C1815 0.961 . S
H1832 C1816 0.931 . S
H1833 C1821 0.930 . S
H1834 C1822 0.956 . S
H1835 C1822 0.961 . S
H1836 C1822 0.961 . S
H1837 C1823 0.958 . S
H1838 C1823 0.961 . S
H1839 C1823 0.960 . S
C1840 C1841 1.391 . S
C1840 C1842 1.394 . S
C1840 H1856 0.931 . S
C1841 C1840 1.391 . S
C1841 C1845 1.376 . S
C1842 C1840 1.394 . S
C1842 C1843 1.369 . S
C1842 C1846 1.531 . S
C1843 C1842 1.369 . S
C1843 C1844 1.410 . S
C1843 C1851 1.503 . S
C1844 C1843 1.410 . S
C1844 C1845 1.392 . S
C1844 C1847 1.511 . S
C1845 C1841 1.376 . S
C1845 C1844 1.392 . S
C1845 H1857 0.929 . S
C1846 C1842 1.531 . S
C1846 H1858 0.960 . S
C1846 H1859 0.962 . S
C1846 H1860 0.960 . S
C1847 C1844 1.511 . S
C1847 H1861 0.961 . S
C1847 H1862 0.961 . S
C1847 H1863 0.961 . S
C1848 C1849 1.370 . S
C1848 C1850 1.363 . S
C1848 H1864 0.931 . S
C1849 C1848 1.370 . S
C1849 C1853 1.408 . S
C1850 C1848 1.363 . S
C1850 C1851 1.370 . S
C1850 C1854 1.524 . S
C1851 C1843 1.503 . S
C1851 C1850 1.370 . S
C1851 C1852 1.403 . S
C1852 C1851 1.403 . S
C1852 C1853 1.404 . S
C1852 C1855 1.539 . S
C1853 C1849 1.408 . S
C1853 C1852 1.404 . S
C1853 H1865 0.930 . S
C1854 C1850 1.524 . S
C1854 H1866 0.956 . S
C1854 H1867 0.961 . S
C1854 H1868 0.961 . S
C1855 C1852 1.539 . S
C1855 H1869 0.958 . S
C1855 H1870 0.961 . S
C1855 H1871 0.960 . S
H1856 C1840 0.931 . S
H1857 C1845 0.929 . S
H1858 C1846 0.960 . S
H1859 C1846 0.962 . S
H1860 C1846 0.960 . S
H1861 C1847 0.961 . S
H1862 C1847 0.961 . S
H1863 C1847 0.961 . S
H1864 C1848 0.931 . S
H1865 C1853 0.930 . S
H1866 C1854 0.956 . S
H1867 C1854 0.961 . S
H1868 C1854 0.961 . S
H1869 C1855 0.958 . S
H1870 C1855 0.961 . S
H1871 C1855 0.960 . S
C1872 C1873 1.391 . S
C1872 C1874 1.394 . S
C1872 H1888 0.931 . S
C1873 C1872 1.391 . S
C1873 C1877 1.376 . S
C1874 C1872 1.394 . S
C1874 C1875 1.369 . S
C1874 C1878 1.531 . S
C1875 C1874 1.369 . S
C1875 C1876 1.410 . S
C1875 C1883 1.503 . S
C1876 C1875 1.410 . S
C1876 C1877 1.392 . S
C1876 C1879 1.511 . S
C1877 C1873 1.376 . S
C1877 C1876 1.392 . S
C1877 H1889 0.929 . S
C1878 C1874 1.531 . S
C1878 H1890 0.960 . S
C1878 H1891 0.962 . S
C1878 H1892 0.960 . S
C1879 C1876 1.511 . S
C1879 H1893 0.961 . S
C1879 H1894 0.961 . S
C1879 H1895 0.961 . S
C1880 C1881 1.370 . S
C1880 C1882 1.363 . S
C1880 H1896 0.931 . S
C1881 C1880 1.370 . S
C1881 C1885 1.408 . S
C1882 C1880 1.363 . S
C1882 C1883 1.370 . S
C1882 C1886 1.524 . S
C1883 C1875 1.503 . S
C1883 C1882 1.370 . S
C1883 C1884 1.403 . S
C1884 C1883 1.403 . S
C1884 C1885 1.404 . S
C1884 C1887 1.539 . S
C1885 C1881 1.408 . S
C1885 C1884 1.404 . S
C1885 H1897 0.930 . S
C1886 C1882 1.524 . S
C1886 H1898 0.956 . S
C1886 H1899 0.961 . S
C1886 H1900 0.961 . S
C1887 C1884 1.539 . S
C1887 H1901 0.958 . S
C1887 H1902 0.961 . S
C1887 H1903 0.960 . S
H1888 C1872 0.931 . S
H1889 C1877 0.929 . S
H1890 C1878 0.960 . S
H1891 C1878 0.962 . S
H1892 C1878 0.960 . S
H1893 C1879 0.961 . S
H1894 C1879 0.961 . S
H1895 C1879 0.961 . S
H1896 C1880 0.931 . S
H1897 C1885 0.930 . S
H1898 C1886 0.956 . S
H1899 C1886 0.961 . S
H1900 C1886 0.961 . S
H1901 C1887 0.958 . S
H1902 C1887 0.961 . S
H1903 C1887 0.960 . S
C1904 C1905 1.391 . S
C1904 C1906 1.394 . S
C1904 H1920 0.931 . S
C1905 C1904 1.391 . S
C1905 C1909 1.376 . S
C1906 C1904 1.394 . S
C1906 C1907 1.369 . S
C1906 C1910 1.531 . S
C1907 C1906 1.369 . S
C1907 C1908 1.410 . S
C1907 C1915 1.503 . S
C1908 C1907 1.410 . S
C1908 C1909 1.392 . S
C1908 C1911 1.511 . S
C1909 C1905 1.376 . S
C1909 C1908 1.392 . S
C1909 H1921 0.929 . S
C1910 C1906 1.531 . S
C1910 H1922 0.960 . S
C1910 H1923 0.962 . S
C1910 H1924 0.960 . S
C1911 C1908 1.511 . S
C1911 H1925 0.961 . S
C1911 H1926 0.961 . S
C1911 H1927 0.961 . S
C1912 C1913 1.370 . S
C1912 C1914 1.363 . S
C1912 H1928 0.931 . S
C1913 C1912 1.370 . S
C1913 C1917 1.408 . S
C1914 C1912 1.363 . S
C1914 C1915 1.370 . S
C1914 C1918 1.524 . S
C1915 C1907 1.503 . S
C1915 C1914 1.370 . S
C1915 C1916 1.403 . S
C1916 C1915 1.403 . S
C1916 C1917 1.404 . S
C1916 C1919 1.539 . S
C1917 C1913 1.408 . S
C1917 C1916 1.404 . S
C1917 H1929 0.930 . S
C1918 C1914 1.524 . S
C1918 H1930 0.956 . S
C1918 H1931 0.961 . S
C1918 H1932 0.961 . S
C1919 C1916 1.539 . S
C1919 H1933 0.958 . S
C1919 H1934 0.961 . S
C1919 H1935 0.960 . S
H1920 C1904 0.931 . S
H1921 C1909 0.929 . S
H1922 C1910 0.960 . S
H1923 C1910 0.962 . S
H1924 C1910 0.960 . S
H1925 C1911 0.961 . S
H1926 C1911 0.961 . S
H1927 C1911 0.961 . S
H1928 C1912 0.931 . S
H1929 C1917 0.930 . S
H1930 C1918 0.956 . S
H1931 C1918 0.961 . S
H1932 C1918 0.961 . S
H1933 C1919 0.958 . S
H1934 C1919 0.961 . S
H1935 C1919 0.960 . S
C1936 C1937 1.391 . S
C1936 C1938 1.394 . S
C1936 H1952 0.931 . S
C1937 C1936 1.391 . S
C1937 C1941 1.376 . S
C1938 C1936 1.394 . S
C1938 C1939 1.369 . S
C1938 C1942 1.531 . S
C1939 C1938 1.369 . S
C1939 C1940 1.410 . S
C1939 C1947 1.503 . S
C1940 C1939 1.410 . S
C1940 C1941 1.392 . S
C1940 C1943 1.511 . S
C1941 C1937 1.376 . S
C1941 C1940 1.392 . S
C1941 H1953 0.929 . S
C1942 C1938 1.531 . S
C1942 H1954 0.960 . S
C1942 H1955 0.962 . S
C1942 H1956 0.960 . S
C1943 C1940 1.511 . S
C1943 H1957 0.961 . S
C1943 H1958 0.961 . S
C1943 H1959 0.961 . S
C1944 C1945 1.370 . S
C1944 C1946 1.363 . S
C1944 H1960 0.931 . S
C1945 C1944 1.370 . S
C1945 C1949 1.408 . S
C1946 C1944 1.363 . S
C1946 C1947 1.370 . S
C1946 C1950 1.524 . S
C1947 C1939 1.503 . S
C1947 C1946 1.370 . S
C1947 C1948 1.403 . S
C1948 C1947 1.403 . S
C1948 C1949 1.404 . S
C1948 C1951 1.539 . S
C1949 C1945 1.408 . S
C1949 C1948 1.404 . S
C1949 H1961 0.930 . S
C1950 C1946 1.524 . S
C1950 H1962 0.956 . S
C1950 H1963 0.961 . S
C1950 H1964 0.961 . S
C1951 C1948 1.539 . S
C1951 H1965 0.958 . S
C1951 H1966 0.961 . S
C1951 H1967 0.960 . S
H1952 C1936 0.931 . S
H1953 C1941 0.929 . S
H1954 C1942 0.960 . S
H1955 C1942 0.962 . S
H1956 C1942 0.960 . S
H1957 C1943 0.961 . S
H1958 C1943 0.961 . S
H1959 C1943 0.961 . S
H1960 C1944 0.931 . S
H1961 C1949 0.930 . S
H1962 C1950 0.956 . S
H1963 C1950 0.961 . S
H1964 C1950 0.961 . S
H1965 C1951 0.958 . S
H1966 C1951 0.961 . S
H1967 C1951 0.960 . S
C1968 C1969 1.391 . S
C1968 C1970 1.394 . S
C1968 H1984 0.931 . S
C1969 C1968 1.391 . S
C1969 C1973 1.376 . S
C1970 C1968 1.394 . S
C1970 C1971 1.369 . S
C1970 C1974 1.531 . S
C1971 C1970 1.369 . S
C1971 C1972 1.410 . S
C1971 C1979 1.503 . S
C1972 C1971 1.410 . S
C1972 C1973 1.392 . S
C1972 C1975 1.511 . S
C1973 C1969 1.376 . S
C1973 C1972 1.392 . S
C1973 H1985 0.929 . S
C1974 C1970 1.531 . S
C1974 H1986 0.960 . S
C1974 H1987 0.962 . S
C1974 H1988 0.960 . S
C1975 C1972 1.511 . S
C1975 H1989 0.961 . S
C1975 H1990 0.961 . S
C1975 H1991 0.961 . S
C1976 C1977 1.370 . S
C1976 C1978 1.363 . S
C1976 H1992 0.931 . S
C1977 C1976 1.370 . S
C1977 C1981 1.408 . S
C1978 C1976 1.363 . S
C1978 C1979 1.370 . S
C1978 C1982 1.524 . S
C1979 C1971 1.503 . S
C1979 C1978 1.370 . S
C1979 C1980 1.403 . S
C1980 C1979 1.403 . S
C1980 C1981 1.404 . S
C1980 C1983 1.539 . S
C1981 C1977 1.408 . S
C1981 C1980 1.404 . S
C1981 H1993 0.930 . S
C1982 C1978 1.524 . S
C1982 H1994 0.956 . S
C1982 H1995 0.961 . S
C1982 H1996 0.961 . S
C1983 C1980 1.539 . S
C1983 H1997 0.958 . S
C1983 H1998 0.961 . S
C1983 H1999 0.960 . S
H1984 C1968 0.931 . S
H1985 C1973 0.929 . S
H1986 C1974 0.960 . S
H1987 C1974 0.962 . S
H1988 C1974 0.960 . S
H1989 C1975 0.961 . S
H1990 C1975 0.961 . S
H1991 C1975 0.961 . S
H1992 C1976 0.931 . S
H1993 C1981 0.930 . S
H1994 C1982 0.956 . S
H1995 C1982 0.961 . S
H1996 C1982 0.961 . S
H1997 C1983 0.958 . S
H1998 C1983 0.961 . S
H1999 C1983 0.960 . S
C2000 C2001 1.391 . S
C2000 C2002 1.394 . S
C2000 H2016 0.931 . S
C2001 C2000 1.391 . S
C2001 C2005 1.370 1_545 S
C2002 C2000 1.394 . S
C2002 C2003 1.369 . S
C2002 C2006 1.531 . S
C2003 C2002 1.369 . S
C2003 C2004 1.410 . S
C2003 C2011 1.503 . S
C2004 C2003 1.410 . S
C2004 C2005 1.391 1_545 S
C2004 C2007 1.511 1_545 S
C2005 C2001 1.370 1_565 S
C2005 C2004 1.391 1_565 S
C2005 H2017 0.935 . S
C2006 C2002 1.531 . S
C2006 H2018 0.960 . S
C2006 H2019 0.962 . S
C2006 H2020 0.960 . S
C2007 C2004 1.511 1_565 S
C2007 H2021 0.961 . S
C2007 H2022 0.961 . S
C2007 H2023 0.961 . S
C2008 C2009 1.370 . S
C2008 C2010 1.363 . S
C2008 H2024 0.931 1_545 S
C2009 C2008 1.370 . S
C2009 C2013 1.408 . S
C2010 C2008 1.363 . S
C2010 C2011 1.370 . S
C2010 C2014 1.524 1_545 S
C2011 C2003 1.503 . S
C2011 C2010 1.370 . S
C2011 C2012 1.403 . S
C2012 C2011 1.403 . S
C2012 C2013 1.404 . S
C2012 C2015 1.539 . S
C2013 C2009 1.408 . S
C2013 C2012 1.404 . S
C2013 H2025 0.930 . S
C2014 C2010 1.524 1_565 S
C2014 H2026 0.956 . S
C2014 H2027 0.961 . S
C2014 H2028 0.961 . S
C2015 C2012 1.539 . S
C2015 H2029 0.958 . S
C2015 H2030 0.961 . S
C2015 H2031 0.960 . S
H2016 C2000 0.931 . S
H2017 C2005 0.935 . S
H2018 C2006 0.960 . S
H2019 C2006 0.962 . S
H2020 C2006 0.960 . S
H2021 C2007 0.961 . S
H2022 C2007 0.961 . S
H2023 C2007 0.961 . S
H2024 C2008 0.931 1_565 S
H2025 C2013 0.930 . S
H2026 C2014 0.956 . S
H2027 C2014 0.961 . S
H2028 C2014 0.961 . S
H2029 C2015 0.958 . S
H2030 C2015 0.961 . S
H2031 C2015 0.960 . S
C2032 C2033 1.391 . S
C2032 C2034 1.394 . S
C2032 H2048 0.931 . S
C2033 C2032 1.391 . S
C2033 C2037 1.376 . S
C2034 C2032 1.394 . S
C2034 C2035 1.369 . S
C2034 C2038 1.531 . S
C2035 C2034 1.369 . S
C2035 C2036 1.410 . S
C2035 C2043 1.503 . S
C2036 C2035 1.410 . S
C2036 C2037 1.392 . S
C2036 C2039 1.511 . S
C2037 C2033 1.376 . S
C2037 C2036 1.392 . S
C2037 H2049 0.929 . S
C2038 C2034 1.531 . S
C2038 H2050 0.960 . S
C2038 H2051 0.962 . S
C2038 H2052 0.960 . S
C2039 C2036 1.511 . S
C2039 H2053 0.961 . S
C2039 H2054 0.961 . S
C2039 H2055 0.961 . S
C2040 C2041 1.370 . S
C2040 C2042 1.363 . S
C2040 H2056 0.931 . S
C2041 C2040 1.370 . S
C2041 C2045 1.408 . S
C2042 C2040 1.363 . S
C2042 C2043 1.370 . S
C2042 C2046 1.524 . S
C2043 C2035 1.503 . S
C2043 C2042 1.370 . S
C2043 C2044 1.403 . S
C2044 C2043 1.403 . S
C2044 C2045 1.404 . S
C2044 C2047 1.539 . S
C2045 C2041 1.408 . S
C2045 C2044 1.404 . S
C2045 H2057 0.930 . S
C2046 C2042 1.524 . S
C2046 H2058 0.956 . S
C2046 H2059 0.961 . S
C2046 H2060 0.961 . S
C2047 C2044 1.539 . S
C2047 H2061 0.958 . S
C2047 H2062 0.961 . S
C2047 H2063 0.960 . S
H2048 C2032 0.931 . S
H2049 C2037 0.929 . S
H2050 C2038 0.960 . S
H2051 C2038 0.962 . S
H2052 C2038 0.960 . S
H2053 C2039 0.961 . S
H2054 C2039 0.961 . S
H2055 C2039 0.961 . S
H2056 C2040 0.931 . S
H2057 C2045 0.930 . S
H2058 C2046 0.956 . S
H2059 C2046 0.961 . S
H2060 C2046 0.961 . S
H2061 C2047 0.958 . S
H2062 C2047 0.961 . S
H2063 C2047 0.960 . S
C2064 C2065 1.391 . S
C2064 C2066 1.394 . S
C2064 H2080 0.931 . S
C2065 C2064 1.391 . S
C2065 C2069 1.376 . S
C2066 C2064 1.394 . S
C2066 C2067 1.369 . S
C2066 C2070 1.531 . S
C2067 C2066 1.369 . S
C2067 C2068 1.410 . S
C2067 C2075 1.503 . S
C2068 C2067 1.410 . S
C2068 C2069 1.392 . S
C2068 C2071 1.511 . S
C2069 C2065 1.376 . S
C2069 C2068 1.392 . S
C2069 H2081 0.929 . S
C2070 C2066 1.531 . S
C2070 H2082 0.960 . S
C2070 H2083 0.962 . S
C2070 H2084 0.960 . S
C2071 C2068 1.511 . S
C2071 H2085 0.961 . S
C2071 H2086 0.961 . S
C2071 H2087 0.961 . S
C2072 C2073 1.370 . S
C2072 C2074 1.363 . S
C2072 H2088 0.931 1_545 S
C2073 C2072 1.370 . S
C2073 C2077 1.408 . S
C2074 C2072 1.363 . S
C2074 C2075 1.370 . S
C2074 C2078 1.524 1_545 S
C2075 C2067 1.503 . S
C2075 C2074 1.370 . S
C2075 C2076 1.403 . S
C2076 C2075 1.403 . S
C2076 C2077 1.404 . S
C2076 C2079 1.539 . S
C2077 C2073 1.408 . S
C2077 C2076 1.404 . S
C2077 H2089 0.930 . S
C2078 C2074 1.524 1_565 S
C2078 H2090 0.956 . S
C2078 H2091 0.961 . S
C2078 H2092 0.961 . S
C2079 C2076 1.539 . S
C2079 H2093 0.958 . S
C2079 H2094 0.961 . S
C2079 H2095 0.960 . S
H2080 C2064 0.931 . S
H2081 C2069 0.929 . S
H2082 C2070 0.960 . S
H2083 C2070 0.962 . S
H2084 C2070 0.960 . S
H2085 C2071 0.961 . S
H2086 C2071 0.961 . S
H2087 C2071 0.961 . S
H2088 C2072 0.931 1_565 S
H2089 C2077 0.930 . S
H2090 C2078 0.956 . S
H2091 C2078 0.961 . S
H2092 C2078 0.961 . S
H2093 C2079 0.958 . S
H2094 C2079 0.961 . S
H2095 C2079 0.960 . S
C2096 C2097 1.391 . S
C2096 C2098 1.394 . S
C2096 H2112 0.931 . S
C2097 C2096 1.391 . S
C2097 C2101 1.376 . S
C2098 C2096 1.394 . S
C2098 C2099 1.369 . S
C2098 C2102 1.531 . S
C2099 C2098 1.369 . S
C2099 C2100 1.410 . S
C2099 C2107 1.503 . S
C2100 C2099 1.410 . S
C2100 C2101 1.392 . S
C2100 C2103 1.511 . S
C2101 C2097 1.376 . S
C2101 C2100 1.392 . S
C2101 H2113 0.929 . S
C2102 C2098 1.531 . S
C2102 H2114 0.960 . S
C2102 H2115 0.962 . S
C2102 H2116 0.960 . S
C2103 C2100 1.511 . S
C2103 H2117 0.961 . S
C2103 H2118 0.961 . S
C2103 H2119 0.961 . S
C2104 C2105 1.370 . S
C2104 C2106 1.363 . S
C2104 H2120 0.931 . S
C2105 C2104 1.370 . S
C2105 C2109 1.408 . S
C2106 C2104 1.363 . S
C2106 C2107 1.370 . S
C2106 C2110 1.524 . S
C2107 C2099 1.503 . S
C2107 C2106 1.370 . S
C2107 C2108 1.403 . S
C2108 C2107 1.403 . S
C2108 C2109 1.404 . S
C2108 C2111 1.539 . S
C2109 C2105 1.408 . S
C2109 C2108 1.404 . S
C2109 H2121 0.930 . S
C2110 C2106 1.524 . S
C2110 H2122 0.956 . S
C2110 H2123 0.961 . S
C2110 H2124 0.961 . S
C2111 C2108 1.539 . S
C2111 H2125 0.958 . S
C2111 H2126 0.961 . S
C2111 H2127 0.960 . S
H2112 C2096 0.931 . S
H2113 C2101 0.929 . S
H2114 C2102 0.960 . S
H2115 C2102 0.962 . S
H2116 C2102 0.960 . S
H2117 C2103 0.961 . S
H2118 C2103 0.961 . S
H2119 C2103 0.961 . S
H2120 C2104 0.931 . S
H2121 C2109 0.930 . S
H2122 C2110 0.956 . S
H2123 C2110 0.961 . S
H2124 C2110 0.961 . S
H2125 C2111 0.958 . S
H2126 C2111 0.961 . S
H2127 C2111 0.960 . S
C2128 C2129 1.391 . S
C2128 C2130 1.394 . S
C2128 H2144 0.931 . S
C2129 C2128 1.391 . S
C2129 C2133 1.376 1_545 S
C2130 C2128 1.394 . S
C2130 C2131 1.369 . S
C2130 C2134 1.531 . S
C2131 C2130 1.369 . S
C2131 C2132 1.410 1_545 S
C2131 C2139 1.503 . S
C2132 C2131 1.410 1_565 S
C2132 C2133 1.392 . S
C2132 C2135 1.511 . S
C2133 C2129 1.376 1_565 S
C2133 C2132 1.392 . S
C2133 H2145 0.929 . S
C2134 C2130 1.531 . S
C2134 H2146 0.960 . S
C2134 H2147 0.962 . S
C2134 H2148 0.960 . S
C2135 C2132 1.511 . S
C2135 H2149 0.961 . S
C2135 H2150 0.961 . S
C2135 H2151 0.961 . S
C2136 C2137 1.370 . S
C2136 C2138 1.363 . S
C2136 H2152 0.931 . S
C2137 C2136 1.370 . S
C2137 C2141 1.408 . S
C2138 C2136 1.363 . S
C2138 C2139 1.370 . S
C2138 C2142 1.524 . S
C2139 C2131 1.503 . S
C2139 C2138 1.370 . S
C2139 C2140 1.403 . S
C2140 C2139 1.403 . S
C2140 C2141 1.404 . S
C2140 C2143 1.539 . S
C2141 C2137 1.408 . S
C2141 C2140 1.404 . S
C2141 H2153 0.930 . S
C2142 C2138 1.524 . S
C2142 H2154 0.956 . S
C2142 H2155 0.961 . S
C2142 H2156 0.961 . S
C2143 C2140 1.539 . S
C2143 H2157 0.958 . S
C2143 H2158 0.961 . S
C2143 H2159 0.960 . S
H2144 C2128 0.931 . S
H2145 C2133 0.929 . S
H2146 C2134 0.960 . S
H2147 C2134 0.962 . S
H2148 C2134 0.960 . S
H2149 C2135 0.961 . S
H2150 C2135 0.961 . S
H2151 C2135 0.961 . S
H2152 C2136 0.931 . S
H2153 C2141 0.930 . S
H2154 C2142 0.956 . S
H2155 C2142 0.961 . S
H2156 C2142 0.961 . S
H2157 C2143 0.958 . S
H2158 C2143 0.961 . S
H2159 C2143 0.960 . S
C2160 C2161 1.391 . S
C2160 C2162 1.394 . S
C2160 H2176 0.931 . S
C2161 C2160 1.391 . S
C2161 C2165 1.376 . S
C2162 C2160 1.394 . S
C2162 C2163 1.369 . S
C2162 C2166 1.531 . S
C2163 C2162 1.369 . S
C2163 C2164 1.410 . S
C2163 C2171 1.503 . S
C2164 C2163 1.410 . S
C2164 C2165 1.392 . S
C2164 C2167 1.511 . S
C2165 C2161 1.376 . S
C2165 C2164 1.392 . S
C2165 H2177 0.929 . S
C2166 C2162 1.531 . S
C2166 H2178 0.960 . S
C2166 H2179 0.962 . S
C2166 H2180 0.960 . S
C2167 C2164 1.511 . S
C2167 H2181 0.961 . S
C2167 H2182 0.961 . S
C2167 H2183 0.961 . S
C2168 C2169 1.370 . S
C2168 C2170 1.363 . S
C2168 H2184 0.931 . S
C2169 C2168 1.370 . S
C2169 C2173 1.408 . S
C2170 C2168 1.363 . S
C2170 C2171 1.370 . S
C2170 C2174 1.524 . S
C2171 C2163 1.503 . S
C2171 C2170 1.370 . S
C2171 C2172 1.403 . S
C2172 C2171 1.403 . S
C2172 C2173 1.404 . S
C2172 C2175 1.539 . S
C2173 C2169 1.408 . S
C2173 C2172 1.404 . S
C2173 H2185 0.930 . S
C2174 C2170 1.524 . S
C2174 H2186 0.956 . S
C2174 H2187 0.961 . S
C2174 H2188 0.961 . S
C2175 C2172 1.539 . S
C2175 H2189 0.958 . S
C2175 H2190 0.961 . S
C2175 H2191 0.960 . S
H2176 C2160 0.931 . S
H2177 C2165 0.929 . S
H2178 C2166 0.960 . S
H2179 C2166 0.962 . S
H2180 C2166 0.960 . S
H2181 C2167 0.961 . S
H2182 C2167 0.961 . S
H2183 C2167 0.961 . S
H2184 C2168 0.931 . S
H2185 C2173 0.930 . S
H2186 C2174 0.956 . S
H2187 C2174 0.961 . S
H2188 C2174 0.961 . S
H2189 C2175 0.958 . S
H2190 C2175 0.961 . S
H2191 C2175 0.960 . S
C2192 C2193 1.391 . S
C2192 C2194 1.394 . S
C2192 H2208 0.931 . S
C2193 C2192 1.391 . S
C2193 C2197 1.376 . S
C2194 C2192 1.394 . S
C2194 C2195 1.369 . S
C2194 C2198 1.531 . S
C2195 C2194 1.369 . S
C2195 C2196 1.410 . S
C2195 C2203 1.503 . S
C2196 C2195 1.410 . S
C2196 C2197 1.392 . S
C2196 C2199 1.511 . S
C2197 C2193 1.376 . S
C2197 C2196 1.392 . S
C2197 H2209 0.929 1_565 S
C2198 C2194 1.531 . S
C2198 H2210 0.960 . S
C2198 H2211 0.962 . S
C2198 H2212 0.960 . S
C2199 C2196 1.511 . S
C2199 H2213 0.961 1_565 S
C2199 H2214 0.961 . S
C2199 H2215 0.961 . S
C2200 C2201 1.370 1_545 S
C2200 C2202 1.363 . S
C2200 H2216 0.931 . S
C2201 C2200 1.370 1_565 S
C2201 C2205 1.408 . S
C2202 C2200 1.363 . S
C2202 C2203 1.370 1_545 S
C2202 C2206 1.524 . S
C2203 C2195 1.503 . S
C2203 C2202 1.370 1_565 S
C2203 C2204 1.403 . S
C2204 C2203 1.403 . S
C2204 C2205 1.404 . S
C2204 C2207 1.539 . S
C2205 C2201 1.408 . S
C2205 C2204 1.404 . S
C2205 H2217 0.930 . S
C2206 C2202 1.524 . S
C2206 H2218 0.956 . S
C2206 H2219 0.961 . S
C2206 H2220 0.961 . S
C2207 C2204 1.539 . S
C2207 H2221 0.958 . S
C2207 H2222 0.961 . S
C2207 H2223 0.960 . S
H2208 C2192 0.931 . S
H2209 C2197 0.929 1_545 S
H2210 C2198 0.960 . S
H2211 C2198 0.962 . S
H2212 C2198 0.960 . S
H2213 C2199 0.961 1_545 S
H2214 C2199 0.961 . S
H2215 C2199 0.961 . S
H2216 C2200 0.931 . S
H2217 C2205 0.930 . S
H2218 C2206 0.956 . S
H2219 C2206 0.961 . S
H2220 C2206 0.961 . S
H2221 C2207 0.958 . S
H2222 C2207 0.961 . S
H2223 C2207 0.960 . S
C2224 C2225 1.391 . S
C2224 C2226 1.394 . S
C2224 H2240 0.931 . S
C2225 C2224 1.391 . S
C2225 C2229 1.376 . S
C2226 C2224 1.394 . S
C2226 C2227 1.369 . S
C2226 C2230 1.531 . S
C2227 C2226 1.369 . S
C2227 C2228 1.410 . S
C2227 C2235 1.503 . S
C2228 C2227 1.410 . S
C2228 C2229 1.392 . S
C2228 C2231 1.511 . S
C2229 C2225 1.376 . S
C2229 C2228 1.392 . S
C2229 H2241 0.929 . S
C2230 C2226 1.531 . S
C2230 H2242 0.960 . S
C2230 H2243 0.962 . S
C2230 H2244 0.960 . S
C2231 C2228 1.511 . S
C2231 H2245 0.961 . S
C2231 H2246 0.961 . S
C2231 H2247 0.961 . S
C2232 C2233 1.370 . S
C2232 C2234 1.363 . S
C2232 H2248 0.931 . S
C2233 C2232 1.370 . S
C2233 C2237 1.408 . S
C2234 C2232 1.363 . S
C2234 C2235 1.370 . S
C2234 C2238 1.524 . S
C2235 C2227 1.503 . S
C2235 C2234 1.370 . S
C2235 C2236 1.403 . S
C2236 C2235 1.403 . S
C2236 C2237 1.404 . S
C2236 C2239 1.539 . S
C2237 C2233 1.408 . S
C2237 C2236 1.404 . S
C2237 H2249 0.930 . S
C2238 C2234 1.524 . S
C2238 H2250 0.956 . S
C2238 H2251 0.961 . S
C2238 H2252 0.961 . S
C2239 C2236 1.539 . S
C2239 H2253 0.958 . S
C2239 H2254 0.961 . S
C2239 H2255 0.960 . S
H2240 C2224 0.931 . S
H2241 C2229 0.929 . S
H2242 C2230 0.960 . S
H2243 C2230 0.962 . S
H2244 C2230 0.960 . S
H2245 C2231 0.961 . S
H2246 C2231 0.961 . S
H2247 C2231 0.961 . S
H2248 C2232 0.931 . S
H2249 C2237 0.930 . S
H2250 C2238 0.956 . S
H2251 C2238 0.961 . S
H2252 C2238 0.961 . S
H2253 C2239 0.958 . S
H2254 C2239 0.961 . S
H2255 C2239 0.960 . S
C2256 C2257 1.391 . S
C2256 C2258 1.394 . S
C2256 H2272 0.931 . S
C2257 C2256 1.391 . S
C2257 C2261 1.364 1_554 S
C2258 C2256 1.394 . S
C2258 C2259 1.369 1_554 S
C2258 C2262 1.531 . S
C2259 C2258 1.369 1_556 S
C2259 C2260 1.410 . S
C2259 C2267 1.503 . S
C2260 C2259 1.410 . S
C2260 C2261 1.399 . S
C2260 C2263 1.511 . S
C2261 C2257 1.364 1_556 S
C2261 C2260 1.399 . S
C2261 H2273 0.935 . S
C2262 C2258 1.531 . S
C2262 H2274 0.960 . S
C2262 H2275 0.962 . S
C2262 H2276 0.960 . S
C2263 C2260 1.511 . S
C2263 H2277 0.961 . S
C2263 H2278 0.961 . S
C2263 H2279 0.961 . S
C2264 C2265 1.370 . S
C2264 C2266 1.363 1_556 S
C2264 H2280 0.931 1_556 S
C2265 C2264 1.370 . S
C2265 C2269 1.408 . S
C2266 C2264 1.363 1_554 S
C2266 C2267 1.370 1_554 S
C2266 C2270 1.524 . S
C2267 C2259 1.503 . S
C2267 C2266 1.370 1_556 S
C2267 C2268 1.403 . S
C2268 C2267 1.403 . S
C2268 C2269 1.404 . S
C2268 C2271 1.539 . S
C2269 C2265 1.408 . S
C2269 C2268 1.404 . S
C2269 H2281 0.930 . S
C2270 C2266 1.524 . S
C2270 H2282 0.956 . S
C2270 H2283 0.961 . S
C2270 H2284 0.961 . S
C2271 C2268 1.539 . S
C2271 H2285 0.958 . S
C2271 H2286 0.961 . S
C2271 H2287 0.960 . S
H2272 C2256 0.931 . S
H2273 C2261 0.935 . S
H2274 C2262 0.960 . S
H2275 C2262 0.962 . S
H2276 C2262 0.960 . S
H2277 C2263 0.961 . S
H2278 C2263 0.961 . S
H2279 C2263 0.961 . S
H2280 C2264 0.931 1_554 S
H2281 C2269 0.930 . S
H2282 C2270 0.956 . S
H2283 C2270 0.961 . S
H2284 C2270 0.961 . S
H2285 C2271 0.958 . S
H2286 C2271 0.961 . S
H2287 C2271 0.960 . S
C2288 C2289 1.391 . S
C2288 C2290 1.394 . S
C2288 H2304 0.931 . S
C2289 C2288 1.391 . S
C2289 C2293 1.376 . S
C2290 C2288 1.394 . S
C2290 C2291 1.369 . S
C2290 C2294 1.531 . S
C2291 C2290 1.369 . S
C2291 C2292 1.410 . S
C2291 C2299 1.503 . S
C2292 C2291 1.410 . S
C2292 C2293 1.392 . S
C2292 C2295 1.511 1_554 S
C2293 C2289 1.376 . S
C2293 C2292 1.392 . S
C2293 H2305 0.929 1_554 S
C2294 C2290 1.531 . S
C2294 H2306 0.960 . S
C2294 H2307 0.962 . S
C2294 H2308 0.960 . S
C2295 C2292 1.511 1_556 S
C2295 H2309 0.961 . S
C2295 H2310 0.961 . S
C2295 H2311 0.961 . S
C2296 C2297 1.370 . S
C2296 C2298 1.363 . S
C2296 H2312 0.931 . S
C2297 C2296 1.370 . S
C2297 C2301 1.408 . S
C2298 C2296 1.363 . S
C2298 C2299 1.370 . S
C2298 C2302 1.524 . S
C2299 C2291 1.503 . S
C2299 C2298 1.370 . S
C2299 C2300 1.403 . S
C2300 C2299 1.403 . S
C2300 C2301 1.404 . S
C2300 C2303 1.539 1_554 S
C2301 C2297 1.408 . S
C2301 C2300 1.404 . S
C2301 H2313 0.930 1_554 S
C2302 C2298 1.524 . S
C2302 H2314 0.956 . S
C2302 H2315 0.961 . S
C2302 H2316 0.961 . S
C2303 C2300 1.539 1_556 S
C2303 H2317 0.958 . S
C2303 H2318 0.961 . S
C2303 H2319 0.960 . S
H2304 C2288 0.931 . S
H2305 C2293 0.929 1_556 S
H2306 C2294 0.960 . S
H2307 C2294 0.962 . S
H2308 C2294 0.960 . S
H2309 C2295 0.961 . S
H2310 C2295 0.961 . S
H2311 C2295 0.961 . S
H2312 C2296 0.931 . S
H2313 C2301 0.930 1_556 S
H2314 C2302 0.956 . S
H2315 C2302 0.961 . S
H2316 C2302 0.961 . S
H2317 C2303 0.958 . S
H2318 C2303 0.961 . S
H2319 C2303 0.960 . S
C2320 C2321 1.391 . S
C2320 C2322 1.394 . S
C2320 H2336 0.931 . S
C2321 C2320 1.391 . S
C2321 C2325 1.376 . S
C2322 C2320 1.394 . S
C2322 C2323 1.369 . S
C2322 C2326 1.531 . S
C2323 C2322 1.369 . S
C2323 C2324 1.410 . S
C2323 C2331 1.503 . S
C2324 C2323 1.410 . S
C2324 C2325 1.392 . S
C2324 C2327 1.511 . S
C2325 C2321 1.376 . S
C2325 C2324 1.392 . S
C2325 H2337 0.929 . S
C2326 C2322 1.531 . S
C2326 H2338 0.960 . S
C2326 H2339 0.962 . S
C2326 H2340 0.960 . S
C2327 C2324 1.511 . S
C2327 H2341 0.961 . S
C2327 H2342 0.961 . S
C2327 H2343 0.961 . S
C2328 C2329 1.370 . S
C2328 C2330 1.363 . S
C2328 H2344 0.931 . S
C2329 C2328 1.370 . S
C2329 C2333 1.408 . S
C2330 C2328 1.363 . S
C2330 C2331 1.370 . S
C2330 C2334 1.524 . S
C2331 C2323 1.503 . S
C2331 C2330 1.370 . S
C2331 C2332 1.403 . S
C2332 C2331 1.403 . S
C2332 C2333 1.404 . S
C2332 C2335 1.539 . S
C2333 C2329 1.408 . S
C2333 C2332 1.404 . S
C2333 H2345 0.930 . S
C2334 C2330 1.524 . S
C2334 H2346 0.956 . S
C2334 H2347 0.961 . S
C2334 H2348 0.961 . S
C2335 C2332 1.539 . S
C2335 H2349 0.958 . S
C2335 H2350 0.961 . S
C2335 H2351 0.960 . S
H2336 C2320 0.931 . S
H2337 C2325 0.929 . S
H2338 C2326 0.960 . S
H2339 C2326 0.962 . S
H2340 C2326 0.960 . S
H2341 C2327 0.961 . S
H2342 C2327 0.961 . S
H2343 C2327 0.961 . S
H2344 C2328 0.931 . S
H2345 C2333 0.930 . S
H2346 C2334 0.956 . S
H2347 C2334 0.961 . S
H2348 C2334 0.961 . S
H2349 C2335 0.958 . S
H2350 C2335 0.961 . S
H2351 C2335 0.960 . S
C2352 C2353 1.391 . S
C2352 C2354 1.394 . S
C2352 H2368 0.931 . S
C2353 C2352 1.391 . S
C2353 C2357 1.376 . S
C2354 C2352 1.394 . S
C2354 C2355 1.369 . S
C2354 C2358 1.531 . S
C2355 C2354 1.369 . S
C2355 C2356 1.410 . S
C2355 C2363 1.503 . S
C2356 C2355 1.410 . S
C2356 C2357 1.392 . S
C2356 C2359 1.511 . S
C2357 C2353 1.376 . S
C2357 C2356 1.392 . S
C2357 H2369 0.929 . S
C2358 C2354 1.531 . S
C2358 H2370 0.960 . S
C2358 H2371 0.962 . S
C2358 H2372 0.960 . S
C2359 C2356 1.511 . S
C2359 H2373 0.961 . S
C2359 H2374 0.961 . S
C2359 H2375 0.961 . S
C2360 C2361 1.370 . S
C2360 C2362 1.363 . S
C2360 H2376 0.931 . S
C2361 C2360 1.370 . S
C2361 C2365 1.408 . S
C2362 C2360 1.363 . S
C2362 C2363 1.370 . S
C2362 C2366 1.524 . S
C2363 C2355 1.503 . S
C2363 C2362 1.370 . S
C2363 C2364 1.403 . S
C2364 C2363 1.403 . S
C2364 C2365 1.404 . S
C2364 C2367 1.539 . S
C2365 C2361 1.408 . S
C2365 C2364 1.404 . S
C2365 H2377 0.930 . S
C2366 C2362 1.524 . S
C2366 H2378 0.956 . S
C2366 H2379 0.961 . S
C2366 H2380 0.961 . S
C2367 C2364 1.539 . S
C2367 H2381 0.958 . S
C2367 H2382 0.961 . S
C2367 H2383 0.960 . S
H2368 C2352 0.931 . S
H2369 C2357 0.929 . S
H2370 C2358 0.960 . S
H2371 C2358 0.962 . S
H2372 C2358 0.960 . S
H2373 C2359 0.961 . S
H2374 C2359 0.961 . S
H2375 C2359 0.961 . S
H2376 C2360 0.931 . S
H2377 C2365 0.930 . S
H2378 C2366 0.956 . S
H2379 C2366 0.961 . S
H2380 C2366 0.961 . S
H2381 C2367 0.958 . S
H2382 C2367 0.961 . S
H2383 C2367 0.960 . S
C2384 C2385 1.391 . S
C2384 C2386 1.394 1_545 S
C2384 H2400 0.931 . S
C2385 C2384 1.391 . S
C2385 C2389 1.376 1_545 S
C2386 C2384 1.394 1_565 S
C2386 C2387 1.369 . S
C2386 C2390 1.531 1_565 S
C2387 C2386 1.369 . S
C2387 C2388 1.410 . S
C2387 C2395 1.503 . S
C2388 C2387 1.410 . S
C2388 C2389 1.392 . S
C2388 C2391 1.511 . S
C2389 C2385 1.376 1_565 S
C2389 C2388 1.392 . S
C2389 H2401 0.929 . S
C2390 C2386 1.531 1_545 S
C2390 H2402 0.975 . S
C2390 H2403 0.962 1_545 S
C2390 H2404 0.960 . S
C2391 C2388 1.511 . S
C2391 H2405 0.961 . S
C2391 H2406 0.961 . S
C2391 H2407 0.961 . S
C2392 C2393 1.370 . S
C2392 C2394 1.363 . S
C2392 H2408 0.931 . S
C2393 C2392 1.370 . S
C2393 C2397 1.408 . S
C2394 C2392 1.363 . S
C2394 C2395 1.370 . S
C2394 C2398 1.524 . S
C2395 C2387 1.503 . S
C2395 C2394 1.370 . S
C2395 C2396 1.403 . S
C2396 C2395 1.403 . S
C2396 C2397 1.404 . S
C2396 C2399 1.539 . S
C2397 C2393 1.408 . S
C2397 C2396 1.404 . S
C2397 H2409 0.930 . S
C2398 C2394 1.524 . S
C2398 H2410 0.956 . S
C2398 H2411 0.961 . S
C2398 H2412 0.961 . S
C2399 C2396 1.539 . S
C2399 H2413 0.958 1_565 S
C2399 H2414 0.961 . S
C2399 H2415 0.960 . S
H2400 C2384 0.931 . S
H2401 C2389 0.929 . S
H2402 C2390 0.975 . S
H2403 C2390 0.962 1_565 S
H2404 C2390 0.960 . S
H2405 C2391 0.961 . S
H2406 C2391 0.961 . S
H2407 C2391 0.961 . S
H2408 C2392 0.931 . S
H2409 C2397 0.930 . S
H2410 C2398 0.956 . S
H2411 C2398 0.961 . S
H2412 C2398 0.961 . S
H2413 C2399 0.958 1_545 S
H2414 C2399 0.961 . S
H2415 C2399 0.960 . S
C2416 C2417 1.391 . S
C2416 C2418 1.394 . S
C2416 H2432 0.931 . S
C2417 C2416 1.391 . S
C2417 C2421 1.376 . S
C2418 C2416 1.394 . S
C2418 C2419 1.369 . S
C2418 C2422 1.531 . S
C2419 C2418 1.369 . S
C2419 C2420 1.410 . S
C2419 C2427 1.503 . S
C2420 C2419 1.410 . S
C2420 C2421 1.392 . S
C2420 C2423 1.511 . S
C2421 C2417 1.376 . S
C2421 C2420 1.392 . S
C2421 H2433 0.929 . S
C2422 C2418 1.531 . S
C2422 H2434 0.960 . S
C2422 H2435 0.962 . S
C2422 H2436 0.960 . S
C2423 C2420 1.511 . S
C2423 H2437 0.961 . S
C2423 H2438 0.961 . S
C2423 H2439 0.961 . S
C2424 C2425 1.370 . S
C2424 C2426 1.363 . S
C2424 H2440 0.931 . S
C2425 C2424 1.370 . S
C2425 C2429 1.408 . S
C2426 C2424 1.363 . S
C2426 C2427 1.370 . S
C2426 C2430 1.524 . S
C2427 C2419 1.503 . S
C2427 C2426 1.370 . S
C2427 C2428 1.403 . S
C2428 C2427 1.403 . S
C2428 C2429 1.404 . S
C2428 C2431 1.539 . S
C2429 C2425 1.408 . S
C2429 C2428 1.404 . S
C2429 H2441 0.930 . S
C2430 C2426 1.524 . S
C2430 H2442 0.956 . S
C2430 H2443 0.961 . S
C2430 H2444 0.961 . S
C2431 C2428 1.539 . S
C2431 H2445 0.958 . S
C2431 H2446 0.961 . S
C2431 H2447 0.960 . S
H2432 C2416 0.931 . S
H2433 C2421 0.929 . S
H2434 C2422 0.960 . S
H2435 C2422 0.962 . S
H2436 C2422 0.960 . S
H2437 C2423 0.961 . S
H2438 C2423 0.961 . S
H2439 C2423 0.961 . S
H2440 C2424 0.931 . S
H2441 C2429 0.930 . S
H2442 C2430 0.956 . S
H2443 C2430 0.961 . S
H2444 C2430 0.961 . S
H2445 C2431 0.958 . S
H2446 C2431 0.961 . S
H2447 C2431 0.960 . S
C2448 C2449 1.391 . S
C2448 C2450 1.394 . S
C2448 H2464 0.931 . S
C2449 C2448 1.391 . S
C2449 C2453 1.376 . S
C2450 C2448 1.394 . S
C2450 C2451 1.369 . S
C2450 C2454 1.531 . S
C2451 C2450 1.369 . S
C2451 C2452 1.410 . S
C2451 C2459 1.503 . S
C2452 C2451 1.410 . S
C2452 C2453 1.392 . S
C2452 C2455 1.511 . S
C2453 C2449 1.376 . S
C2453 C2452 1.392 . S
C2453 H2465 0.929 . S
C2454 C2450 1.531 . S
C2454 H2466 0.960 . S
C2454 H2467 0.962 . S
C2454 H2468 0.960 . S
C2455 C2452 1.511 . S
C2455 H2469 0.961 . S
C2455 H2470 0.961 . S
C2455 H2471 0.961 . S
C2456 C2457 1.370 . S
C2456 C2458 1.363 . S
C2456 H2472 0.931 . S
C2457 C2456 1.370 . S
C2457 C2461 1.408 . S
C2458 C2456 1.363 . S
C2458 C2459 1.370 . S
C2458 C2462 1.524 . S
C2459 C2451 1.503 . S
C2459 C2458 1.370 . S
C2459 C2460 1.403 . S
C2460 C2459 1.403 . S
C2460 C2461 1.404 . S
C2460 C2463 1.539 . S
C2461 C2457 1.408 . S
C2461 C2460 1.404 . S
C2461 H2473 0.930 . S
C2462 C2458 1.524 . S
C2462 H2474 0.956 . S
C2462 H2475 0.961 . S
C2462 H2476 0.961 . S
C2463 C2460 1.539 . S
C2463 H2477 0.958 . S
C2463 H2478 0.961 . S
C2463 H2479 0.960 . S
H2464 C2448 0.931 . S
H2465 C2453 0.929 . S
H2466 C2454 0.960 . S
H2467 C2454 0.962 . S
H2468 C2454 0.960 . S
H2469 C2455 0.961 . S
H2470 C2455 0.961 . S
H2471 C2455 0.961 . S
H2472 C2456 0.931 . S
H2473 C2461 0.930 . S
H2474 C2462 0.956 . S
H2475 C2462 0.961 . S
H2476 C2462 0.961 . S
H2477 C2463 0.958 . S
H2478 C2463 0.961 . S
H2479 C2463 0.960 . S
C2480 C2481 1.391 . S
C2480 C2482 1.394 . S
C2480 H2496 0.931 . S
C2481 C2480 1.391 . S
C2481 C2485 1.376 . S
C2482 C2480 1.394 . S
C2482 C2483 1.369 . S
C2482 C2486 1.531 . S
C2483 C2482 1.369 . S
C2483 C2484 1.410 . S
C2483 C2491 1.503 . S
C2484 C2483 1.410 . S
C2484 C2485 1.392 . S
C2484 C2487 1.511 . S
C2485 C2481 1.376 . S
C2485 C2484 1.392 . S
C2485 H2497 0.929 . S
C2486 C2482 1.531 . S
C2486 H2498 0.960 . S
C2486 H2499 0.962 . S
C2486 H2500 0.960 . S
C2487 C2484 1.511 . S
C2487 H2501 0.961 . S
C2487 H2502 0.961 . S
C2487 H2503 0.961 . S
C2488 C2489 1.370 . S
C2488 C2490 1.363 . S
C2488 H2504 0.931 . S
C2489 C2488 1.370 . S
C2489 C2493 1.408 . S
C2490 C2488 1.363 . S
C2490 C2491 1.370 . S
C2490 C2494 1.524 . S
C2491 C2483 1.503 . S
C2491 C2490 1.370 . S
C2491 C2492 1.403 . S
C2492 C2491 1.403 . S
C2492 C2493 1.404 . S
C2492 C2495 1.539 . S
C2493 C2489 1.408 . S
C2493 C2492 1.404 . S
C2493 H2505 0.930 . S
C2494 C2490 1.524 . S
C2494 H2506 0.956 . S
C2494 H2507 0.961 . S
C2494 H2508 0.961 . S
C2495 C2492 1.539 . S
C2495 H2509 0.958 . S
C2495 H2510 0.961 . S
C2495 H2511 0.960 . S
H2496 C2480 0.931 . S
H2497 C2485 0.929 . S
H2498 C2486 0.960 . S
H2499 C2486 0.962 . S
H2500 C2486 0.960 . S
H2501 C2487 0.961 . S
H2502 C2487 0.961 . S
H2503 C2487 0.961 . S
H2504 C2488 0.931 . S
H2505 C2493 0.930 . S
H2506 C2494 0.956 . S
H2507 C2494 0.961 . S
H2508 C2494 0.961 . S
H2509 C2495 0.958 . S
H2510 C2495 0.961 . S
H2511 C2495 0.960 . S
C2512 C2513 1.391 . S
C2512 C2514 1.394 . S
C2512 H2528 0.931 . S
C2513 C2512 1.391 . S
C2513 C2517 1.376 . S
C2514 C2512 1.394 . S
C2514 C2515 1.369 . S
C2514 C2518 1.531 . S
C2515 C2514 1.369 . S
C2515 C2516 1.410 . S
C2515 C2523 1.503 . S
C2516 C2515 1.410 . S
C2516 C2517 1.392 . S
C2516 C2519 1.511 . S
C2517 C2513 1.376 . S
C2517 C2516 1.392 . S
C2517 H2529 0.929 . S
C2518 C2514 1.531 . S
C2518 H2530 0.960 . S
C2518 H2531 0.962 . S
C2518 H2532 0.960 . S
C2519 C2516 1.511 . S
C2519 H2533 0.961 . S
C2519 H2534 0.961 . S
C2519 H2535 0.961 . S
C2520 C2521 1.370 . S
C2520 C2522 1.363 . S
C2520 H2536 0.931 . S
C2521 C2520 1.370 . S
C2521 C2525 1.408 . S
C2522 C2520 1.363 . S
C2522 C2523 1.370 . S
C2522 C2526 1.524 . S
C2523 C2515 1.503 . S
C2523 C2522 1.370 . S
C2523 C2524 1.403 . S
C2524 C2523 1.403 . S
C2524 C2525 1.404 . S
C2524 C2527 1.539 . S
C2525 C2521 1.408 . S
C2525 C2524 1.404 . S
C2525 H2537 0.930 . S
C2526 C2522 1.524 . S
C2526 H2538 0.956 . S
C2526 H2539 0.961 . S
C2526 H2540 0.961 . S
C2527 C2524 1.539 . S
C2527 H2541 0.958 . S
C2527 H2542 0.961 . S
C2527 H2543 0.960 . S
H2528 C2512 0.931 . S
H2529 C2517 0.929 . S
H2530 C2518 0.960 . S
H2531 C2518 0.962 . S
H2532 C2518 0.960 . S
H2533 C2519 0.961 . S
H2534 C2519 0.961 . S
H2535 C2519 0.961 . S
H2536 C2520 0.931 . S
H2537 C2525 0.930 . S
H2538 C2526 0.956 . S
H2539 C2526 0.961 . S
H2540 C2526 0.961 . S
H2541 C2527 0.958 . S
H2542 C2527 0.961 . S
H2543 C2527 0.960 . S
C2544 C2545 1.391 . S
C2544 C2546 1.394 . S
C2544 H2560 0.931 . S
C2545 C2544 1.391 . S
C2545 C2549 1.376 . S
C2546 C2544 1.394 . S
C2546 C2547 1.369 . S
C2546 C2550 1.531 . S
C2547 C2546 1.369 . S
C2547 C2548 1.410 . S
C2547 C2555 1.503 . S
C2548 C2547 1.410 . S
C2548 C2549 1.392 . S
C2548 C2551 1.511 . S
C2549 C2545 1.376 . S
C2549 C2548 1.392 . S
C2549 H2561 0.929 . S
C2550 C2546 1.531 . S
C2550 H2562 0.960 . S
C2550 H2563 0.962 . S
C2550 H2564 0.960 . S
C2551 C2548 1.511 . S
C2551 H2565 0.961 . S
C2551 H2566 0.961 . S
C2551 H2567 0.961 . S
C2552 C2553 1.370 . S
C2552 C2554 1.363 . S
C2552 H2568 0.931 . S
C2553 C2552 1.370 . S
C2553 C2557 1.408 . S
C2554 C2552 1.363 . S
C2554 C2555 1.370 . S
C2554 C2558 1.524 . S
C2555 C2547 1.503 . S
C2555 C2554 1.370 . S
C2555 C2556 1.403 . S
C2556 C2555 1.403 . S
C2556 C2557 1.404 . S
C2556 C2559 1.539 . S
C2557 C2553 1.408 . S
C2557 C2556 1.404 . S
C2557 H2569 0.930 . S
C2558 C2554 1.524 . S
C2558 H2570 0.956 . S
C2558 H2571 0.961 . S
C2558 H2572 0.961 . S
C2559 C2556 1.539 . S
C2559 H2573 0.958 . S
C2559 H2574 0.961 . S
C2559 H2575 0.960 . S
H2560 C2544 0.931 . S
H2561 C2549 0.929 . S
H2562 C2550 0.960 . S
H2563 C2550 0.962 . S
H2564 C2550 0.960 . S
H2565 C2551 0.961 . S
H2566 C2551 0.961 . S
H2567 C2551 0.961 . S
H2568 C2552 0.931 . S
H2569 C2557 0.930 . S
H2570 C2558 0.956 . S
H2571 C2558 0.961 . S
H2572 C2558 0.961 . S
H2573 C2559 0.958 . S
H2574 C2559 0.961 . S
H2575 C2559 0.960 . S
C2576 C2577 1.391 . S
C2576 C2578 1.394 . S
C2576 H2592 0.931 . S
C2577 C2576 1.391 . S
C2577 C2581 1.376 . S
C2578 C2576 1.394 . S
C2578 C2579 1.369 . S
C2578 C2582 1.531 1_556 S
C2579 C2578 1.369 . S
C2579 C2580 1.410 . S
C2579 C2587 1.503 . S
C2580 C2579 1.410 . S
C2580 C2581 1.392 . S
C2580 C2583 1.511 . S
C2581 C2577 1.376 . S
C2581 C2580 1.392 . S
C2581 H2593 0.929 . S
C2582 C2578 1.531 1_554 S
C2582 H2594 0.960 . S
C2582 H2595 0.962 . S
C2582 H2596 0.960 . S
C2583 C2580 1.511 . S
C2583 H2597 0.961 . S
C2583 H2598 0.961 . S
C2583 H2599 0.961 . S
C2584 C2585 1.358 1_556 S
C2584 C2586 1.363 . S
C2584 H2600 0.931 . S
C2585 C2584 1.358 1_554 S
C2585 C2589 1.417 . S
C2586 C2584 1.363 . S
C2586 C2587 1.370 . S
C2586 C2590 1.524 . S
C2587 C2579 1.503 . S
C2587 C2586 1.370 . S
C2587 C2588 1.392 1_556 S
C2588 C2587 1.392 1_554 S
C2588 C2589 1.407 . S
C2588 C2591 1.545 . S
C2589 C2585 1.417 . S
C2589 C2588 1.407 . S
C2589 H2601 0.930 . S
C2590 C2586 1.524 . S
C2590 H2602 0.956 1_455 S
C2590 H2603 0.961 . S
C2590 H2604 0.961 1_455 S
C2591 C2588 1.545 . S
C2591 H2605 0.958 . S
C2591 H2606 0.961 . S
C2591 H2607 0.960 1_554 S
H2592 C2576 0.931 . S
H2593 C2581 0.929 . S
H2594 C2582 0.960 . S
H2595 C2582 0.962 . S
H2596 C2582 0.960 . S
H2597 C2583 0.961 . S
H2598 C2583 0.961 . S
H2599 C2583 0.961 . S
H2600 C2584 0.931 . S
H2601 C2589 0.930 . S
H2602 C2590 0.956 1_655 S
H2603 C2590 0.961 . S
H2604 C2590 0.961 1_655 S
H2605 C2591 0.958 . S
H2606 C2591 0.961 . S
H2607 C2591 0.960 1_556 S
C2608 C2609 1.391 . S
C2608 C2610 1.394 1_455 S
C2608 H2624 0.931 . S
C2609 C2608 1.391 . S
C2609 C2613 1.376 . S
C2610 C2608 1.394 1_655 S
C2610 C2611 1.369 . S
C2610 C2614 1.531 . S
C2611 C2610 1.369 . S
C2611 C2612 1.410 . S
C2611 C2619 1.503 . S
C2612 C2611 1.410 . S
C2612 C2613 1.392 1_655 S
C2612 C2615 1.511 . S
C2613 C2609 1.376 . S
C2613 C2612 1.392 1_455 S
C2613 H2625 0.929 . S
C2614 C2610 1.531 . S
C2614 H2626 0.960 . S
C2614 H2627 0.962 . S
C2614 H2628 0.960 . S
C2615 C2612 1.511 . S
C2615 H2629 0.961 . S
C2615 H2630 0.961 . S
C2615 H2631 0.961 . S
C2616 C2617 1.370 . S
C2616 C2618 1.363 . S
C2616 H2632 0.931 . S
C2617 C2616 1.370 . S
C2617 C2621 1.408 . S
C2618 C2616 1.363 . S
C2618 C2619 1.370 . S
C2618 C2622 1.524 . S
C2619 C2611 1.503 . S
C2619 C2618 1.370 . S
C2619 C2620 1.403 . S
C2620 C2619 1.403 . S
C2620 C2621 1.404 . S
C2620 C2623 1.539 . S
C2621 C2617 1.408 . S
C2621 C2620 1.404 . S
C2621 H2633 0.930 . S
C2622 C2618 1.524 . S
C2622 H2634 0.956 . S
C2622 H2635 0.961 . S
C2622 H2636 0.961 . S
C2623 C2620 1.539 . S
C2623 H2637 0.958 . S
C2623 H2638 0.961 . S
C2623 H2639 0.960 . S
H2624 C2608 0.931 . S
H2625 C2613 0.929 . S
H2626 C2614 0.960 . S
H2627 C2614 0.962 . S
H2628 C2614 0.960 . S
H2629 C2615 0.961 . S
H2630 C2615 0.961 . S
H2631 C2615 0.961 . S
H2632 C2616 0.931 . S
H2633 C2621 0.930 . S
H2634 C2622 0.956 . S
H2635 C2622 0.961 . S
H2636 C2622 0.961 . S
H2637 C2623 0.958 . S
H2638 C2623 0.961 . S
H2639 C2623 0.960 . S
C2640 C2641 1.391 . S
C2640 C2642 1.394 . S
C2640 H2656 0.931 . S
C2641 C2640 1.391 . S
C2641 C2645 1.376 . S
C2642 C2640 1.394 . S
C2642 C2643 1.369 . S
C2642 C2646 1.531 . S
C2643 C2642 1.369 . S
C2643 C2644 1.410 . S
C2643 C2651 1.503 . S
C2644 C2643 1.410 . S
C2644 C2645 1.392 . S
C2644 C2647 1.511 . S
C2645 C2641 1.376 . S
C2645 C2644 1.392 . S
C2645 H2657 0.929 . S
C2646 C2642 1.531 . S
C2646 H2658 0.960 . S
C2646 H2659 0.962 . S
C2646 H2660 0.960 . S
C2647 C2644 1.511 . S
C2647 H2661 0.961 . S
C2647 H2662 0.961 . S
C2647 H2663 0.961 . S
C2648 C2649 1.370 . S
C2648 C2650 1.363 . S
C2648 H2664 0.931 . S
C2649 C2648 1.370 . S
C2649 C2653 1.408 . S
C2650 C2648 1.363 . S
C2650 C2651 1.370 . S
C2650 C2654 1.524 . S
C2651 C2643 1.503 . S
C2651 C2650 1.370 . S
C2651 C2652 1.403 . S
C2652 C2651 1.403 . S
C2652 C2653 1.404 . S
C2652 C2655 1.539 . S
C2653 C2649 1.408 . S
C2653 C2652 1.404 . S
C2653 H2665 0.930 . S
C2654 C2650 1.524 . S
C2654 H2666 0.956 . S
C2654 H2667 0.961 . S
C2654 H2668 0.961 . S
C2655 C2652 1.539 . S
C2655 H2669 0.958 . S
C2655 H2670 0.961 . S
C2655 H2671 0.960 . S
H2656 C2640 0.931 . S
H2657 C2645 0.929 . S
H2658 C2646 0.960 . S
H2659 C2646 0.962 . S
H2660 C2646 0.960 . S
H2661 C2647 0.961 . S
H2662 C2647 0.961 . S
H2663 C2647 0.961 . S
H2664 C2648 0.931 . S
H2665 C2653 0.930 . S
H2666 C2654 0.956 . S
H2667 C2654 0.961 . S
H2668 C2654 0.961 . S
H2669 C2655 0.958 . S
H2670 C2655 0.961 . S
H2671 C2655 0.960 . S
C2672 C2673 1.391 . S
C2672 C2674 1.394 . S
C2672 H2688 0.931 . S
C2673 C2672 1.391 . S
C2673 C2677 1.376 . S
C2674 C2672 1.394 . S
C2674 C2675 1.369 . S
C2674 C2678 1.531 . S
C2675 C2674 1.369 . S
C2675 C2676 1.410 . S
C2675 C2683 1.503 1_455 S
C2676 C2675 1.410 . S
C2676 C2677 1.392 . S
C2676 C2679 1.511 1_455 S
C2677 C2673 1.376 . S
C2677 C2676 1.392 . S
C2677 H2689 0.929 . S
C2678 C2674 1.531 . S
C2678 H2690 0.960 . S
C2678 H2691 0.962 . S
C2678 H2692 0.960 . S
C2679 C2676 1.511 1_655 S
C2679 H2693 0.961 . S
C2679 H2694 0.961 . S
C2679 H2695 0.961 . S
C2680 C2681 1.370 . S
C2680 C2682 1.363 . S
C2680 H2696 0.931 . S
C2681 C2680 1.370 . S
C2681 C2685 1.408 . S
C2682 C2680 1.363 . S
C2682 C2683 1.370 . S
C2682 C2686 1.524 . S
C2683 C2675 1.503 1_655 S
C2683 C2682 1.370 . S
C2683 C2684 1.403 . S
C2684 C2683 1.403 . S
C2684 C2685 1.404 . S
C2684 C2687 1.539 . S
C2685 C2681 1.408 . S
C2685 C2684 1.404 . S
C2685 H2697 0.930 . S
C2686 C2682 1.524 . S
C2686 H2698 0.956 . S
C2686 H2699 0.961 . S
C2686 H2700 0.961 . S
C2687 C2684 1.539 . S
C2687 H2701 0.958 1_655 S
C2687 H2702 0.961 . S
C2687 H2703 0.960 1_655 S
H2688 C2672 0.931 . S
H2689 C2677 0.929 . S
H2690 C2678 0.960 . S
H2691 C2678 0.962 . S
H2692 C2678 0.960 . S
H2693 C2679 0.961 . S
H2694 C2679 0.961 . S
H2695 C2679 0.961 . S
H2696 C2680 0.931 . S
H2697 C2685 0.930 . S
H2698 C2686 0.956 . S
H2699 C2686 0.961 . S
H2700 C2686 0.961 . S
H2701 C2687 0.958 1_455 S
H2702 C2687 0.961 . S
H2703 C2687 0.960 1_455 S
C2704 C2705 1.391 . S
C2704 C2706 1.394 . S
C2704 H2720 0.931 . S
C2705 C2704 1.391 . S
C2705 C2709 1.376 1_655 S
C2706 C2704 1.394 . S
C2706 C2707 1.369 1_655 S
C2706 C2710 1.531 . S
C2707 C2706 1.369 1_455 S
C2707 C2708 1.410 . S
C2707 C2715 1.503 . S
C2708 C2707 1.410 . S
C2708 C2709 1.392 . S
C2708 C2711 1.511 . S
C2709 C2705 1.376 1_455 S
C2709 C2708 1.392 . S
C2709 H2721 0.929 . S
C2710 C2706 1.531 . S
C2710 H2722 0.960 . S
C2710 H2723 0.962 . S
C2710 H2724 0.960 . S
C2711 C2708 1.511 . S
C2711 H2725 0.961 . S
C2711 H2726 0.961 . S
C2711 H2727 0.961 . S
C2712 C2713 1.370 . S
C2712 C2714 1.363 . S
C2712 H2728 0.931 . S
C2713 C2712 1.370 . S
C2713 C2717 1.408 . S
C2714 C2712 1.363 . S
C2714 C2715 1.370 . S
C2714 C2718 1.524 . S
C2715 C2707 1.503 . S
C2715 C2714 1.370 . S
C2715 C2716 1.403 . S
C2716 C2715 1.403 . S
C2716 C2717 1.404 . S
C2716 C2719 1.539 . S
C2717 C2713 1.408 . S
C2717 C2716 1.404 . S
C2717 H2729 0.930 . S
C2718 C2714 1.524 . S
C2718 H2730 0.956 1_455 S
C2718 H2731 0.961 . S
C2718 H2732 0.961 . S
C2719 C2716 1.539 . S
C2719 H2733 0.958 . S
C2719 H2734 0.961 . S
C2719 H2735 0.960 . S
H2720 C2704 0.931 . S
H2721 C2709 0.929 . S
H2722 C2710 0.960 . S
H2723 C2710 0.962 . S
H2724 C2710 0.960 . S
H2725 C2711 0.961 . S
H2726 C2711 0.961 . S
H2727 C2711 0.961 . S
H2728 C2712 0.931 . S
H2729 C2717 0.930 . S
H2730 C2718 0.956 1_655 S
H2731 C2718 0.961 . S
H2732 C2718 0.961 . S
H2733 C2719 0.958 . S
H2734 C2719 0.961 . S
H2735 C2719 0.960 . S
C2736 C2737 1.391 . S
C2736 C2738 1.394 . S
C2736 H2752 0.931 . S
C2737 C2736 1.391 . S
C2737 C2741 1.376 . S
C2738 C2736 1.394 . S
C2738 C2739 1.369 . S
C2738 C2742 1.531 . S
C2739 C2738 1.369 . S
C2739 C2740 1.410 . S
C2739 C2747 1.503 . S
C2740 C2739 1.410 . S
C2740 C2741 1.392 . S
C2740 C2743 1.511 . S
C2741 C2737 1.376 . S
C2741 C2740 1.392 . S
C2741 H2753 0.929 . S
C2742 C2738 1.531 . S
C2742 H2754 0.960 . S
C2742 H2755 0.962 . S
C2742 H2756 0.960 . S
C2743 C2740 1.511 . S
C2743 H2757 0.961 . S
C2743 H2758 0.961 . S
C2743 H2759 0.961 . S
C2744 C2745 1.370 . S
C2744 C2746 1.363 . S
C2744 H2760 0.931 . S
C2745 C2744 1.370 . S
C2745 C2749 1.408 . S
C2746 C2744 1.363 . S
C2746 C2747 1.370 . S
C2746 C2750 1.524 . S
C2747 C2739 1.503 . S
C2747 C2746 1.370 . S
C2747 C2748 1.403 . S
C2748 C2747 1.403 . S
C2748 C2749 1.404 . S
C2748 C2751 1.539 . S
C2749 C2745 1.408 . S
C2749 C2748 1.404 . S
C2749 H2761 0.930 . S
C2750 C2746 1.524 . S
C2750 H2762 0.956 . S
C2750 H2763 0.961 . S
C2750 H2764 0.961 . S
C2751 C2748 1.539 . S
C2751 H2765 0.958 . S
C2751 H2766 0.961 . S
C2751 H2767 0.960 . S
H2752 C2736 0.931 . S
H2753 C2741 0.929 . S
H2754 C2742 0.960 . S
H2755 C2742 0.962 . S
H2756 C2742 0.960 . S
H2757 C2743 0.961 . S
H2758 C2743 0.961 . S
H2759 C2743 0.961 . S
H2760 C2744 0.931 . S
H2761 C2749 0.930 . S
H2762 C2750 0.956 . S
H2763 C2750 0.961 . S
H2764 C2750 0.961 . S
H2765 C2751 0.958 . S
H2766 C2751 0.961 . S
H2767 C2751 0.960 . S
C2768 C2769 1.391 . S
C2768 C2770 1.394 . S
C2768 H2784 0.931 . S
C2769 C2768 1.391 . S
C2769 C2773 1.376 . S
C2770 C2768 1.394 . S
C2770 C2771 1.369 . S
C2770 C2774 1.531 . S
C2771 C2770 1.369 . S
C2771 C2772 1.410 . S
C2771 C2779 1.503 . S
C2772 C2771 1.410 . S
C2772 C2773 1.392 . S
C2772 C2775 1.511 . S
C2773 C2769 1.376 . S
C2773 C2772 1.392 . S
C2773 H2785 0.929 . S
C2774 C2770 1.531 . S
C2774 H2786 0.960 . S
C2774 H2787 0.962 . S
C2774 H2788 0.960 . S
C2775 C2772 1.511 . S
C2775 H2789 0.961 . S
C2775 H2790 0.961 . S
C2775 H2791 0.961 . S
C2776 C2777 1.370 . S
C2776 C2778 1.363 . S
C2776 H2792 0.931 . S
C2777 C2776 1.370 . S
C2777 C2781 1.408 . S
C2778 C2776 1.363 . S
C2778 C2779 1.370 . S
C2778 C2782 1.524 . S
C2779 C2771 1.503 . S
C2779 C2778 1.370 . S
C2779 C2780 1.403 . S
C2780 C2779 1.403 . S
C2780 C2781 1.404 . S
C2780 C2783 1.539 . S
C2781 C2777 1.408 . S
C2781 C2780 1.404 . S
C2781 H2793 0.930 . S
C2782 C2778 1.524 . S
C2782 H2794 0.956 . S
C2782 H2795 0.961 . S
C2782 H2796 0.961 . S
C2783 C2780 1.539 . S
C2783 H2797 0.958 . S
C2783 H2798 0.961 . S
C2783 H2799 0.960 . S
H2784 C2768 0.931 . S
H2785 C2773 0.929 . S
H2786 C2774 0.960 . S
H2787 C2774 0.962 . S
H2788 C2774 0.960 . S
H2789 C2775 0.961 . S
H2790 C2775 0.961 . S
H2791 C2775 0.961 . S
H2792 C2776 0.931 . S
H2793 C2781 0.930 . S
H2794 C2782 0.956 . S
H2795 C2782 0.961 . S
H2796 C2782 0.961 . S
H2797 C2783 0.958 . S
H2798 C2783 0.961 . S
H2799 C2783 0.960 . S
C2800 C2801 1.391 . S
C2800 C2802 1.394 . S
C2800 H2816 0.931 . S
C2801 C2800 1.391 . S
C2801 C2805 1.376 . S
C2802 C2800 1.394 . S
C2802 C2803 1.369 . S
C2802 C2806 1.531 . S
C2803 C2802 1.369 . S
C2803 C2804 1.410 . S
C2803 C2811 1.503 . S
C2804 C2803 1.410 . S
C2804 C2805 1.392 . S
C2804 C2807 1.511 . S
C2805 C2801 1.376 . S
C2805 C2804 1.392 . S
C2805 H2817 0.929 . S
C2806 C2802 1.531 . S
C2806 H2818 0.960 . S
C2806 H2819 0.962 . S
C2806 H2820 0.960 . S
C2807 C2804 1.511 . S
C2807 H2821 0.961 . S
C2807 H2822 0.961 . S
C2807 H2823 0.961 . S
C2808 C2809 1.370 . S
C2808 C2810 1.363 . S
C2808 H2824 0.931 . S
C2809 C2808 1.370 . S
C2809 C2813 1.408 . S
C2810 C2808 1.363 . S
C2810 C2811 1.370 . S
C2810 C2814 1.524 . S
C2811 C2803 1.503 . S
C2811 C2810 1.370 . S
C2811 C2812 1.403 . S
C2812 C2811 1.403 . S
C2812 C2813 1.404 . S
C2812 C2815 1.539 . S
C2813 C2809 1.408 . S
C2813 C2812 1.404 . S
C2813 H2825 0.930 . S
C2814 C2810 1.524 . S
C2814 H2826 0.956 . S
C2814 H2827 0.961 . S
C2814 H2828 0.961 . S
C2815 C2812 1.539 . S
C2815 H2829 0.958 . S
C2815 H2830 0.961 . S
C2815 H2831 0.960 . S
H2816 C2800 0.931 . S
H2817 C2805 0.929 . S
H2818 C2806 0.960 . S
H2819 C2806 0.962 . S
H2820 C2806 0.960 . S
H2821 C2807 0.961 . S
H2822 C2807 0.961 . S
H2823 C2807 0.961 . S
H2824 C2808 0.931 . S
H2825 C2813 0.930 . S
H2826 C2814 0.956 . S
H2827 C2814 0.961 . S
H2828 C2814 0.961 . S
H2829 C2815 0.958 . S
H2830 C2815 0.961 . S
H2831 C2815 0.960 . S
C2832 C2833 1.391 . S
C2832 C2834 1.394 . S
C2832 H2848 0.931 . S
C2833 C2832 1.391 . S
C2833 C2837 1.376 . S
C2834 C2832 1.394 . S
C2834 C2835 1.369 . S
C2834 C2838 1.531 . S
C2835 C2834 1.369 . S
C2835 C2836 1.410 . S
C2835 C2843 1.503 . S
C2836 C2835 1.410 . S
C2836 C2837 1.392 . S
C2836 C2839 1.511 . S
C2837 C2833 1.376 . S
C2837 C2836 1.392 . S
C2837 H2849 0.929 . S
C2838 C2834 1.531 . S
C2838 H2850 0.960 . S
C2838 H2851 0.962 . S
C2838 H2852 0.960 . S
C2839 C2836 1.511 . S
C2839 H2853 0.961 . S
C2839 H2854 0.961 . S
C2839 H2855 0.961 . S
C2840 C2841 1.370 . S
C2840 C2842 1.363 . S
C2840 H2856 0.931 . S
C2841 C2840 1.370 . S
C2841 C2845 1.408 . S
C2842 C2840 1.363 . S
C2842 C2843 1.370 . S
C2842 C2846 1.524 . S
C2843 C2835 1.503 . S
C2843 C2842 1.370 . S
C2843 C2844 1.403 . S
C2844 C2843 1.403 . S
C2844 C2845 1.404 . S
C2844 C2847 1.539 . S
C2845 C2841 1.408 . S
C2845 C2844 1.404 . S
C2845 H2857 0.930 . S
C2846 C2842 1.524 . S
C2846 H2858 0.956 . S
C2846 H2859 0.961 . S
C2846 H2860 0.961 . S
C2847 C2844 1.539 . S
C2847 H2861 0.958 . S
C2847 H2862 0.961 . S
C2847 H2863 0.960 . S
H2848 C2832 0.931 . S
H2849 C2837 0.929 . S
H2850 C2838 0.960 . S
H2851 C2838 0.962 . S
H2852 C2838 0.960 . S
H2853 C2839 0.961 . S
H2854 C2839 0.961 . S
H2855 C2839 0.961 . S
H2856 C2840 0.931 . S
H2857 C2845 0.930 . S
H2858 C2846 0.956 . S
H2859 C2846 0.961 . S
H2860 C2846 0.961 . S
H2861 C2847 0.958 . S
H2862 C2847 0.961 . S
H2863 C2847 0.960 . S
C2864 C2865 1.391 . S
C2864 C2866 1.394 . S
C2864 H2880 0.931 . S
C2865 C2864 1.391 . S
C2865 C2869 1.376 . S
C2866 C2864 1.394 . S
C2866 C2867 1.369 . S
C2866 C2870 1.531 . S
C2867 C2866 1.369 . S
C2867 C2868 1.410 . S
C2867 C2875 1.503 . S
C2868 C2867 1.410 . S
C2868 C2869 1.392 . S
C2868 C2871 1.511 . S
C2869 C2865 1.376 . S
C2869 C2868 1.392 . S
C2869 H2881 0.929 . S
C2870 C2866 1.531 . S
C2870 H2882 0.960 . S
C2870 H2883 0.962 . S
C2870 H2884 0.960 . S
C2871 C2868 1.511 . S
C2871 H2885 0.961 . S
C2871 H2886 0.961 . S
C2871 H2887 0.961 . S
C2872 C2873 1.370 . S
C2872 C2874 1.363 . S
C2872 H2888 0.931 . S
C2873 C2872 1.370 . S
C2873 C2877 1.408 . S
C2874 C2872 1.363 . S
C2874 C2875 1.370 . S
C2874 C2878 1.524 . S
C2875 C2867 1.503 . S
C2875 C2874 1.370 . S
C2875 C2876 1.403 . S
C2876 C2875 1.403 . S
C2876 C2877 1.404 . S
C2876 C2879 1.539 . S
C2877 C2873 1.408 . S
C2877 C2876 1.404 . S
C2877 H2889 0.930 . S
C2878 C2874 1.524 . S
C2878 H2890 0.956 . S
C2878 H2891 0.961 . S
C2878 H2892 0.961 . S
C2879 C2876 1.539 . S
C2879 H2893 0.958 . S
C2879 H2894 0.961 . S
C2879 H2895 0.960 . S
H2880 C2864 0.931 . S
H2881 C2869 0.929 . S
H2882 C2870 0.960 . S
H2883 C2870 0.962 . S
H2884 C2870 0.960 . S
H2885 C2871 0.961 . S
H2886 C2871 0.961 . S
H2887 C2871 0.961 . S
H2888 C2872 0.931 . S
H2889 C2877 0.930 . S
H2890 C2878 0.956 . S
H2891 C2878 0.961 . S
H2892 C2878 0.961 . S
H2893 C2879 0.958 . S
H2894 C2879 0.961 . S
H2895 C2879 0.960 . S
C2896 C2897 1.391 . S
C2896 C2898 1.394 . S
C2896 H2912 0.931 . S
C2897 C2896 1.391 . S
C2897 C2901 1.376 . S
C2898 C2896 1.394 . S
C2898 C2899 1.369 . S
C2898 C2902 1.531 . S
C2899 C2898 1.369 . S
C2899 C2900 1.410 . S
C2899 C2907 1.503 . S
C2900 C2899 1.410 . S
C2900 C2901 1.392 . S
C2900 C2903 1.511 . S
C2901 C2897 1.376 . S
C2901 C2900 1.392 . S
C2901 H2913 0.929 . S
C2902 C2898 1.531 . S
C2902 H2914 0.960 . S
C2902 H2915 0.962 . S
C2902 H2916 0.960 . S
C2903 C2900 1.511 . S
C2903 H2917 0.961 . S
C2903 H2918 0.961 . S
C2903 H2919 0.961 . S
C2904 C2905 1.370 . S
C2904 C2906 1.363 . S
C2904 H2920 0.931 . S
C2905 C2904 1.370 . S
C2905 C2909 1.408 . S
C2906 C2904 1.363 . S
C2906 C2907 1.370 . S
C2906 C2910 1.524 . S
C2907 C2899 1.503 . S
C2907 C2906 1.370 . S
C2907 C2908 1.403 . S
C2908 C2907 1.403 . S
C2908 C2909 1.404 . S
C2908 C2911 1.539 . S
C2909 C2905 1.408 . S
C2909 C2908 1.404 . S
C2909 H2921 0.930 . S
C2910 C2906 1.524 . S
C2910 H2922 0.956 . S
C2910 H2923 0.961 . S
C2910 H2924 0.961 . S
C2911 C2908 1.539 . S
C2911 H2925 0.958 . S
C2911 H2926 0.961 . S
C2911 H2927 0.960 . S
H2912 C2896 0.931 . S
H2913 C2901 0.929 . S
H2914 C2902 0.960 . S
H2915 C2902 0.962 . S
H2916 C2902 0.960 . S
H2917 C2903 0.961 . S
H2918 C2903 0.961 . S
H2919 C2903 0.961 . S
H2920 C2904 0.931 . S
H2921 C2909 0.930 . S
H2922 C2910 0.956 . S
H2923 C2910 0.961 . S
H2924 C2910 0.961 . S
H2925 C2911 0.958 . S
H2926 C2911 0.961 . S
H2927 C2911 0.960 . S
C2928 C2929 1.391 . S
C2928 C2930 1.394 . S
C2928 H2944 0.931 . S
C2929 C2928 1.391 . S
C2929 C2933 1.376 . S
C2930 C2928 1.394 . S
C2930 C2931 1.369 . S
C2930 C2934 1.531 . S
C2931 C2930 1.369 . S
C2931 C2932 1.410 . S
C2931 C2939 1.503 . S
C2932 C2931 1.410 . S
C2932 C2933 1.392 . S
C2932 C2935 1.511 . S
C2933 C2929 1.376 . S
C2933 C2932 1.392 . S
C2933 H2945 0.929 . S
C2934 C2930 1.531 . S
C2934 H2946 0.960 . S
C2934 H2947 0.962 . S
C2934 H2948 0.960 . S
C2935 C2932 1.511 . S
C2935 H2949 0.961 . S
C2935 H2950 0.961 . S
C2935 H2951 0.961 . S
C2936 C2937 1.370 . S
C2936 C2938 1.363 . S
C2936 H2952 0.931 . S
C2937 C2936 1.370 . S
C2937 C2941 1.408 . S
C2938 C2936 1.363 . S
C2938 C2939 1.370 . S
C2938 C2942 1.524 . S
C2939 C2931 1.503 . S
C2939 C2938 1.370 . S
C2939 C2940 1.403 . S
C2940 C2939 1.403 . S
C2940 C2941 1.404 . S
C2940 C2943 1.539 . S
C2941 C2937 1.408 . S
C2941 C2940 1.404 . S
C2941 H2953 0.930 . S
C2942 C2938 1.524 . S
C2942 H2954 0.956 . S
C2942 H2955 0.961 . S
C2942 H2956 0.961 . S
C2943 C2940 1.539 . S
C2943 H2957 0.958 . S
C2943 H2958 0.961 . S
C2943 H2959 0.960 . S
H2944 C2928 0.931 . S
H2945 C2933 0.929 . S
H2946 C2934 0.960 . S
H2947 C2934 0.962 . S
H2948 C2934 0.960 . S
H2949 C2935 0.961 . S
H2950 C2935 0.961 . S
H2951 C2935 0.961 . S
H2952 C2936 0.931 . S
H2953 C2941 0.930 . S
H2954 C2942 0.956 . S
H2955 C2942 0.961 . S
H2956 C2942 0.961 . S
H2957 C2943 0.958 . S
H2958 C2943 0.961 . S
H2959 C2943 0.960 . S
C2960 C2961 1.391 . S
C2960 C2962 1.394 . S
C2960 H2976 0.931 . S
C2961 C2960 1.391 . S
C2961 C2965 1.376 . S
C2962 C2960 1.394 . S
C2962 C2963 1.369 . S
C2962 C2966 1.531 . S
C2963 C2962 1.369 . S
C2963 C2964 1.410 . S
C2963 C2971 1.503 . S
C2964 C2963 1.410 . S
C2964 C2965 1.392 . S
C2964 C2967 1.511 . S
C2965 C2961 1.376 . S
C2965 C2964 1.392 . S
C2965 H2977 0.929 . S
C2966 C2962 1.531 . S
C2966 H2978 0.960 . S
C2966 H2979 0.962 . S
C2966 H2980 0.960 . S
C2967 C2964 1.511 . S
C2967 H2981 0.961 . S
C2967 H2982 0.961 . S
C2967 H2983 0.961 . S
C2968 C2969 1.370 . S
C2968 C2970 1.363 . S
C2968 H2984 0.931 . S
C2969 C2968 1.370 . S
C2969 C2973 1.408 . S
C2970 C2968 1.363 . S
C2970 C2971 1.370 . S
C2970 C2974 1.524 . S
C2971 C2963 1.503 . S
C2971 C2970 1.370 . S
C2971 C2972 1.403 . S
C2972 C2971 1.403 . S
C2972 C2973 1.404 . S
C2972 C2975 1.539 . S
C2973 C2969 1.408 . S
C2973 C2972 1.404 . S
C2973 H2985 0.930 . S
C2974 C2970 1.524 . S
C2974 H2986 0.956 . S
C2974 H2987 0.961 . S
C2974 H2988 0.961 . S
C2975 C2972 1.539 . S
C2975 H2989 0.958 . S
C2975 H2990 0.961 . S
C2975 H2991 0.960 . S
H2976 C2960 0.931 . S
H2977 C2965 0.929 . S
H2978 C2966 0.960 . S
H2979 C2966 0.962 . S
H2980 C2966 0.960 . S
H2981 C2967 0.961 . S
H2982 C2967 0.961 . S
H2983 C2967 0.961 . S
H2984 C2968 0.931 . S
H2985 C2973 0.930 . S
H2986 C2974 0.956 . S
H2987 C2974 0.961 . S
H2988 C2974 0.961 . S
H2989 C2975 0.958 . S
H2990 C2975 0.961 . S
H2991 C2975 0.960 . S
C2992 C2993 1.391 . S
C2992 C2994 1.394 . S
C2992 H3008 0.931 . S
C2993 C2992 1.391 . S
C2993 C2997 1.376 . S
C2994 C2992 1.394 . S
C2994 C2995 1.369 . S
C2994 C2998 1.531 . S
C2995 C2994 1.369 . S
C2995 C2996 1.410 . S
C2995 C3003 1.503 . S
C2996 C2995 1.410 . S
C2996 C2997 1.392 . S
C2996 C2999 1.511 . S
C2997 C2993 1.376 . S
C2997 C2996 1.392 . S
C2997 H3009 0.929 . S
C2998 C2994 1.531 . S
C2998 H3010 0.960 . S
C2998 H3011 0.962 . S
C2998 H3012 0.960 . S
C2999 C2996 1.511 . S
C2999 H3013 0.961 . S
C2999 H3014 0.961 . S
C2999 H3015 0.961 . S
C3000 C3001 1.370 . S
C3000 C3002 1.363 . S
C3000 H3016 0.931 . S
C3001 C3000 1.370 . S
C3001 C3005 1.408 . S
C3002 C3000 1.363 . S
C3002 C3003 1.370 . S
C3002 C3006 1.524 . S
C3003 C2995 1.503 . S
C3003 C3002 1.370 . S
C3003 C3004 1.403 . S
C3004 C3003 1.403 . S
C3004 C3005 1.404 . S
C3004 C3007 1.539 . S
C3005 C3001 1.408 . S
C3005 C3004 1.404 . S
C3005 H3017 0.930 . S
C3006 C3002 1.524 . S
C3006 H3018 0.956 . S
C3006 H3019 0.961 . S
C3006 H3020 0.961 . S
C3007 C3004 1.539 . S
C3007 H3021 0.958 . S
C3007 H3022 0.961 . S
C3007 H3023 0.960 . S
H3008 C2992 0.931 . S
H3009 C2997 0.929 . S
H3010 C2998 0.960 . S
H3011 C2998 0.962 . S
H3012 C2998 0.960 . S
H3013 C2999 0.961 . S
H3014 C2999 0.961 . S
H3015 C2999 0.961 . S
H3016 C3000 0.931 . S
H3017 C3005 0.930 . S
H3018 C3006 0.956 . S
H3019 C3006 0.961 . S
H3020 C3006 0.961 . S
H3021 C3007 0.958 . S
H3022 C3007 0.961 . S
H3023 C3007 0.960 . S
C3024 C3025 1.391 . S
C3024 C3026 1.394 . S
C3024 H3040 0.931 . S
C3025 C3024 1.391 . S
C3025 C3029 1.376 . S
C3026 C3024 1.394 . S
C3026 C3027 1.369 . S
C3026 C3030 1.531 . S
C3027 C3026 1.369 . S
C3027 C3028 1.410 . S
C3027 C3035 1.503 . S
C3028 C3027 1.410 . S
C3028 C3029 1.392 . S
C3028 C3031 1.511 . S
C3029 C3025 1.376 . S
C3029 C3028 1.392 . S
C3029 H3041 0.929 . S
C3030 C3026 1.531 . S
C3030 H3042 0.960 . S
C3030 H3043 0.962 . S
C3030 H3044 0.960 . S
C3031 C3028 1.511 . S
C3031 H3045 0.961 . S
C3031 H3046 0.961 . S
C3031 H3047 0.961 . S
C3032 C3033 1.370 . S
C3032 C3034 1.363 . S
C3032 H3048 0.931 . S
C3033 C3032 1.370 . S
C3033 C3037 1.408 . S
C3034 C3032 1.363 . S
C3034 C3035 1.370 . S
C3034 C3038 1.524 . S
C3035 C3027 1.503 . S
C3035 C3034 1.370 . S
C3035 C3036 1.403 . S
C3036 C3035 1.403 . S
C3036 C3037 1.404 . S
C3036 C3039 1.539 . S
C3037 C3033 1.408 . S
C3037 C3036 1.404 . S
C3037 H3049 0.930 . S
C3038 C3034 1.524 . S
C3038 H3050 0.956 . S
C3038 H3051 0.961 . S
C3038 H3052 0.961 . S
C3039 C3036 1.539 . S
C3039 H3053 0.958 . S
C3039 H3054 0.961 . S
C3039 H3055 0.960 . S
H3040 C3024 0.931 . S
H3041 C3029 0.929 . S
H3042 C3030 0.960 . S
H3043 C3030 0.962 . S
H3044 C3030 0.960 . S
H3045 C3031 0.961 . S
H3046 C3031 0.961 . S
H3047 C3031 0.961 . S
H3048 C3032 0.931 . S
H3049 C3037 0.930 . S
H3050 C3038 0.956 . S
H3051 C3038 0.961 . S
H3052 C3038 0.961 . S
H3053 C3039 0.958 . S
H3054 C3039 0.961 . S
H3055 C3039 0.960 . S
C3056 C3057 1.391 . S
C3056 C3058 1.394 . S
C3056 H3072 0.931 . S
C3057 C3056 1.391 . S
C3057 C3061 1.376 . S
C3058 C3056 1.394 . S
C3058 C3059 1.369 . S
C3058 C3062 1.531 . S
C3059 C3058 1.369 . S
C3059 C3060 1.410 . S
C3059 C3067 1.503 . S
C3060 C3059 1.410 . S
C3060 C3061 1.392 . S
C3060 C3063 1.511 . S
C3061 C3057 1.376 . S
C3061 C3060 1.392 . S
C3061 H3073 0.929 . S
C3062 C3058 1.531 . S
C3062 H3074 0.960 . S
C3062 H3075 0.962 . S
C3062 H3076 0.960 . S
C3063 C3060 1.511 . S
C3063 H3077 0.961 . S
C3063 H3078 0.961 . S
C3063 H3079 0.961 . S
C3064 C3065 1.370 . S
C3064 C3066 1.363 . S
C3064 H3080 0.931 . S
C3065 C3064 1.370 . S
C3065 C3069 1.408 . S
C3066 C3064 1.363 . S
C3066 C3067 1.370 . S
C3066 C3070 1.524 . S
C3067 C3059 1.503 . S
C3067 C3066 1.370 . S
C3067 C3068 1.403 . S
C3068 C3067 1.403 . S
C3068 C3069 1.404 . S
C3068 C3071 1.539 . S
C3069 C3065 1.408 . S
C3069 C3068 1.404 . S
C3069 H3081 0.930 . S
C3070 C3066 1.524 . S
C3070 H3082 0.956 . S
C3070 H3083 0.961 . S
C3070 H3084 0.961 . S
C3071 C3068 1.539 . S
C3071 H3085 0.958 . S
C3071 H3086 0.961 . S
C3071 H3087 0.960 . S
H3072 C3056 0.931 . S
H3073 C3061 0.929 . S
H3074 C3062 0.960 . S
H3075 C3062 0.962 . S
H3076 C3062 0.960 . S
H3077 C3063 0.961 . S
H3078 C3063 0.961 . S
H3079 C3063 0.961 . S
H3080 C3064 0.931 . S
H3081 C3069 0.930 . S
H3082 C3070 0.956 . S
H3083 C3070 0.961 . S
H3084 C3070 0.961 . S
H3085 C3071 0.958 . S
H3086 C3071 0.961 . S
H3087 C3071 0.960 . S
C3088 C3089 1.391 . S
C3088 C3090 1.394 . S
C3088 H3104 0.931 . S
C3089 C3088 1.391 . S
C3089 C3093 1.376 . S
C3090 C3088 1.394 . S
C3090 C3091 1.369 . S
C3090 C3094 1.531 . S
C3091 C3090 1.369 . S
C3091 C3092 1.410 . S
C3091 C3099 1.503 . S
C3092 C3091 1.410 . S
C3092 C3093 1.392 . S
C3092 C3095 1.511 . S
C3093 C3089 1.376 . S
C3093 C3092 1.392 . S
C3093 H3105 0.929 . S
C3094 C3090 1.531 . S
C3094 H3106 0.960 . S
C3094 H3107 0.962 . S
C3094 H3108 0.960 . S
C3095 C3092 1.511 . S
C3095 H3109 0.961 . S
C3095 H3110 0.961 . S
C3095 H3111 0.961 . S
C3096 C3097 1.370 . S
C3096 C3098 1.363 . S
C3096 H3112 0.931 . S
C3097 C3096 1.370 . S
C3097 C3101 1.408 . S
C3098 C3096 1.363 . S
C3098 C3099 1.370 . S
C3098 C3102 1.524 . S
C3099 C3091 1.503 . S
C3099 C3098 1.370 . S
C3099 C3100 1.403 . S
C3100 C3099 1.403 . S
C3100 C3101 1.404 . S
C3100 C3103 1.539 . S
C3101 C3097 1.408 . S
C3101 C3100 1.404 . S
C3101 H3113 0.930 . S
C3102 C3098 1.524 . S
C3102 H3114 0.956 . S
C3102 H3115 0.961 . S
C3102 H3116 0.961 . S
C3103 C3100 1.539 . S
C3103 H3117 0.958 . S
C3103 H3118 0.961 . S
C3103 H3119 0.960 . S
H3104 C3088 0.931 . S
H3105 C3093 0.929 . S
H3106 C3094 0.960 . S
H3107 C3094 0.962 . S
H3108 C3094 0.960 . S
H3109 C3095 0.961 . S
H3110 C3095 0.961 . S
H3111 C3095 0.961 . S
H3112 C3096 0.931 . S
H3113 C3101 0.930 . S
H3114 C3102 0.956 . S
H3115 C3102 0.961 . S
H3116 C3102 0.961 . S
H3117 C3103 0.958 . S
H3118 C3103 0.961 . S
H3119 C3103 0.960 . S
C3120 C3121 1.395 . S
C3120 C3122 1.386 1_554 S
C3120 H3136 0.930 1_554 S
C3121 C3120 1.395 . S
C3121 C3125 1.376 . S
C3122 C3120 1.386 1_556 S
C3122 C3123 1.369 1_556 S
C3122 C3126 1.536 . S
C3123 C3122 1.369 1_554 S
C3123 C3124 1.410 . S
C3123 C3131 1.503 . S
C3124 C3123 1.410 . S
C3124 C3125 1.392 . S
C3124 C3127 1.511 1_565 S
C3125 C3121 1.376 . S
C3125 C3124 1.392 . S
C3125 H3137 0.929 . S
C3126 C3122 1.536 . S
C3126 H3138 0.960 . S
C3126 H3139 0.962 1_556 S
C3126 H3140 0.960 . S
C3127 C3124 1.511 1_545 S
C3127 H3141 0.961 . S
C3127 H3142 0.961 . S
C3127 H3143 0.961 . S
C3128 C3129 1.370 . S
C3128 C3130 1.363 1_545 S
C3128 H3144 0.931 . S
C3129 C3128 1.370 . S
C3129 C3133 1.408 1_554 S
C3130 C3128 1.363 1_565 S
C3130 C3131 1.370 . S
C3130 C3134 1.524 . S
C3131 C3123 1.503 . S
C3131 C3130 1.370 . S
C3131 C3132 1.403 1_554 S
C3132 C3131 1.403 1_556 S
C3132 C3133 1.404 1_565 S
C3132 C3135 1.539 . S
C3133 C3129 1.408 1_556 S
C3133 C3132 1.404 1_545 S
C3133 H3145 0.930 . S
C3134 C3130 1.524 . S
C3134 H3146 0.956 . S
C3134 H3147 0.961 . S
C3134 H3148 0.961 . S
C3135 C3132 1.539 . S
C3135 H3149 0.958 . S
C3135 H3150 0.961 1_565 S
C3135 H3151 0.960 . S
H3136 C3120 0.930 1_556 S
H3137 C3125 0.929 . S
H3138 C3126 0.960 . S
H3139 C3126 0.962 1_554 S
H3140 C3126 0.960 . S
H3141 C3127 0.961 . S
H3142 C3127 0.961 . S
H3143 C3127 0.961 . S
H3144 C3128 0.931 . S
H3145 C3133 0.930 . S
H3146 C3134 0.956 . S
H3147 C3134 0.961 . S
H3148 C3134 0.961 . S
H3149 C3135 0.958 . S
H3150 C3135 0.961 1_545 S
H3151 C3135 0.960 . S
C3152 C3153 1.391 . S
C3152 C3154 1.394 . S
C3152 H3168 0.931 . S
C3153 C3152 1.391 . S
C3153 C3157 1.376 . S
C3154 C3152 1.394 . S
C3154 C3155 1.369 . S
C3154 C3158 1.531 . S
C3155 C3154 1.369 . S
C3155 C3156 1.410 . S
C3155 C3163 1.503 . S
C3156 C3155 1.410 . S
C3156 C3157 1.392 . S
C3156 C3159 1.511 . S
C3157 C3153 1.376 . S
C3157 C3156 1.392 . S
C3157 H3169 0.929 . S
C3158 C3154 1.531 . S
C3158 H3170 0.960 . S
C3158 H3171 0.962 . S
C3158 H3172 0.960 . S
C3159 C3156 1.511 . S
C3159 H3173 0.961 . S
C3159 H3174 0.961 . S
C3159 H3175 0.961 . S
C3160 C3161 1.370 . S
C3160 C3162 1.363 . S
C3160 H3176 0.931 . S
C3161 C3160 1.370 . S
C3161 C3165 1.408 . S
C3162 C3160 1.363 . S
C3162 C3163 1.370 . S
C3162 C3166 1.524 . S
C3163 C3155 1.503 . S
C3163 C3162 1.370 . S
C3163 C3164 1.403 . S
C3164 C3163 1.403 . S
C3164 C3165 1.404 . S
C3164 C3167 1.539 . S
C3165 C3161 1.408 . S
C3165 C3164 1.404 . S
C3165 H3177 0.930 . S
C3166 C3162 1.524 . S
C3166 H3178 0.956 . S
C3166 H3179 0.961 . S
C3166 H3180 0.961 . S
C3167 C3164 1.539 . S
C3167 H3181 0.958 . S
C3167 H3182 0.961 . S
C3167 H3183 0.960 . S
H3168 C3152 0.931 . S
H3169 C3157 0.929 . S
H3170 C3158 0.960 . S
H3171 C3158 0.962 . S
H3172 C3158 0.960 . S
H3173 C3159 0.961 . S
H3174 C3159 0.961 . S
H3175 C3159 0.961 . S
H3176 C3160 0.931 . S
H3177 C3165 0.930 . S
H3178 C3166 0.956 . S
H3179 C3166 0.961 . S
H3180 C3166 0.961 . S
H3181 C3167 0.958 . S
H3182 C3167 0.961 . S
H3183 C3167 0.960 . S
C3184 C3185 1.391 . S
C3184 C3186 1.394 . S
C3184 H3200 0.931 . S
C3185 C3184 1.391 . S
C3185 C3189 1.376 . S
C3186 C3184 1.394 . S
C3186 C3187 1.369 . S
C3186 C3190 1.531 . S
C3187 C3186 1.369 . S
C3187 C3188 1.410 . S
C3187 C3195 1.503 . S
C3188 C3187 1.410 . S
C3188 C3189 1.392 . S
C3188 C3191 1.511 . S
C3189 C3185 1.376 . S
C3189 C3188 1.392 . S
C3189 H3201 0.929 . S
C3190 C3186 1.531 . S
C3190 H3202 0.960 . S
C3190 H3203 0.962 . S
C3190 H3204 0.960 . S
C3191 C3188 1.511 . S
C3191 H3205 0.961 . S
C3191 H3206 0.961 . S
C3191 H3207 0.961 . S
C3192 C3193 1.370 . S
C3192 C3194 1.363 . S
C3192 H3208 0.931 . S
C3193 C3192 1.370 . S
C3193 C3197 1.408 . S
C3194 C3192 1.363 . S
C3194 C3195 1.370 . S
C3194 C3198 1.524 1_554 S
C3195 C3187 1.503 . S
C3195 C3194 1.370 . S
C3195 C3196 1.403 . S
C3196 C3195 1.403 . S
C3196 C3197 1.404 . S
C3196 C3199 1.539 . S
C3197 C3193 1.408 . S
C3197 C3196 1.404 . S
C3197 H3209 0.930 . S
C3198 C3194 1.524 1_556 S
C3198 H3210 0.956 . S
C3198 H3211 0.961 . S
C3198 H3212 0.961 . S
C3199 C3196 1.539 . S
C3199 H3213 0.958 . S
C3199 H3214 0.961 . S
C3199 H3215 0.960 . S
H3200 C3184 0.931 . S
H3201 C3189 0.929 . S
H3202 C3190 0.960 . S
H3203 C3190 0.962 . S
H3204 C3190 0.960 . S
H3205 C3191 0.961 . S
H3206 C3191 0.961 . S
H3207 C3191 0.961 . S
H3208 C3192 0.931 . S
H3209 C3197 0.930 . S
H3210 C3198 0.956 . S
H3211 C3198 0.961 . S
H3212 C3198 0.961 . S
H3213 C3199 0.958 . S
H3214 C3199 0.961 . S
H3215 C3199 0.960 . S
C3216 C3217 1.391 . S
C3216 C3218 1.394 . S
C3216 H3232 0.931 . S
C3217 C3216 1.391 . S
C3217 C3221 1.376 . S
C3218 C3216 1.394 . S
C3218 C3219 1.369 . S
C3218 C3222 1.531 . S
C3219 C3218 1.369 . S
C3219 C3220 1.410 . S
C3219 C3227 1.503 . S
C3220 C3219 1.410 . S
C3220 C3221 1.392 . S
C3220 C3223 1.511 . S
C3221 C3217 1.376 . S
C3221 C3220 1.392 . S
C3221 H3233 0.929 . S
C3222 C3218 1.531 . S
C3222 H3234 0.960 . S
C3222 H3235 0.962 . S
C3222 H3236 0.960 . S
C3223 C3220 1.511 . S
C3223 H3237 0.961 . S
C3223 H3238 0.961 . S
C3223 H3239 0.961 . S
C3224 C3225 1.370 . S
C3224 C3226 1.363 . S
C3224 H3240 0.931 . S
C3225 C3224 1.370 . S
C3225 C3229 1.408 . S
C3226 C3224 1.363 . S
C3226 C3227 1.370 . S
C3226 C3230 1.524 . S
C3227 C3219 1.503 . S
C3227 C3226 1.370 . S
C3227 C3228 1.403 . S
C3228 C3227 1.403 . S
C3228 C3229 1.404 . S
C3228 C3231 1.539 . S
C3229 C3225 1.408 . S
C3229 C3228 1.404 . S
C3229 H3241 0.930 . S
C3230 C3226 1.524 . S
C3230 H3242 0.956 . S
C3230 H3243 0.961 . S
C3230 H3244 0.961 . S
C3231 C3228 1.539 . S
C3231 H3245 0.958 . S
C3231 H3246 0.961 . S
C3231 H3247 0.960 . S
H3232 C3216 0.931 . S
H3233 C3221 0.929 . S
H3234 C3222 0.960 . S
H3235 C3222 0.962 . S
H3236 C3222 0.960 . S
H3237 C3223 0.961 . S
H3238 C3223 0.961 . S
H3239 C3223 0.961 . S
H3240 C3224 0.931 . S
H3241 C3229 0.930 . S
H3242 C3230 0.956 . S
H3243 C3230 0.961 . S
H3244 C3230 0.961 . S
H3245 C3231 0.958 . S
H3246 C3231 0.961 . S
H3247 C3231 0.960 . S
C3248 C3249 1.391 . S
C3248 C3250 1.394 . S
C3248 H3264 0.931 . S
C3249 C3248 1.391 . S
C3249 C3253 1.376 . S
C3250 C3248 1.394 . S
C3250 C3251 1.369 . S
C3250 C3254 1.531 . S
C3251 C3250 1.369 . S
C3251 C3252 1.410 . S
C3251 C3259 1.503 . S
C3252 C3251 1.410 . S
C3252 C3253 1.392 . S
C3252 C3255 1.511 . S
C3253 C3249 1.376 . S
C3253 C3252 1.392 . S
C3253 H3265 0.929 . S
C3254 C3250 1.531 . S
C3254 H3266 0.960 . S
C3254 H3267 0.962 . S
C3254 H3268 0.960 . S
C3255 C3252 1.511 . S
C3255 H3269 0.961 . S
C3255 H3270 0.961 . S
C3255 H3271 0.961 . S
C3256 C3257 1.370 . S
C3256 C3258 1.363 . S
C3256 H3272 0.931 . S
C3257 C3256 1.370 . S
C3257 C3261 1.408 . S
C3258 C3256 1.363 . S
C3258 C3259 1.370 . S
C3258 C3262 1.524 . S
C3259 C3251 1.503 . S
C3259 C3258 1.370 . S
C3259 C3260 1.403 . S
C3260 C3259 1.403 . S
C3260 C3261 1.404 . S
C3260 C3263 1.539 . S
C3261 C3257 1.408 . S
C3261 C3260 1.404 . S
C3261 H3273 0.930 . S
C3262 C3258 1.524 . S
C3262 H3274 0.956 . S
C3262 H3275 0.961 . S
C3262 H3276 0.961 . S
C3263 C3260 1.539 . S
C3263 H3277 0.958 . S
C3263 H3278 0.961 . S
C3263 H3279 0.960 . S
H3264 C3248 0.931 . S
H3265 C3253 0.929 . S
H3266 C3254 0.960 . S
H3267 C3254 0.962 . S
H3268 C3254 0.960 . S
H3269 C3255 0.961 . S
H3270 C3255 0.961 . S
H3271 C3255 0.961 . S
H3272 C3256 0.931 . S
H3273 C3261 0.930 . S
H3274 C3262 0.956 . S
H3275 C3262 0.961 . S
H3276 C3262 0.961 . S
H3277 C3263 0.958 . S
H3278 C3263 0.961 . S
H3279 C3263 0.960 . S
C3280 C3281 1.391 . S
C3280 C3282 1.394 . S
C3280 H3296 0.931 . S
C3281 C3280 1.391 . S
C3281 C3285 1.376 . S
C3282 C3280 1.394 . S
C3282 C3283 1.369 . S
C3282 C3286 1.531 . S
C3283 C3282 1.369 . S
C3283 C3284 1.410 . S
C3283 C3291 1.503 . S
C3284 C3283 1.410 . S
C3284 C3285 1.392 . S
C3284 C3287 1.511 . S
C3285 C3281 1.376 . S
C3285 C3284 1.392 . S
C3285 H3297 0.929 . S
C3286 C3282 1.531 . S
C3286 H3298 0.960 . S
C3286 H3299 0.962 . S
C3286 H3300 0.960 . S
C3287 C3284 1.511 . S
C3287 H3301 0.961 . S
C3287 H3302 0.961 . S
C3287 H3303 0.961 . S
C3288 C3289 1.370 . S
C3288 C3290 1.363 . S
C3288 H3304 0.931 . S
C3289 C3288 1.370 . S
C3289 C3293 1.408 . S
C3290 C3288 1.363 . S
C3290 C3291 1.370 . S
C3290 C3294 1.524 . S
C3291 C3283 1.503 . S
C3291 C3290 1.370 . S
C3291 C3292 1.403 . S
C3292 C3291 1.403 . S
C3292 C3293 1.404 . S
C3292 C3295 1.539 . S
C3293 C3289 1.408 . S
C3293 C3292 1.404 . S
C3293 H3305 0.930 . S
C3294 C3290 1.524 . S
C3294 H3306 0.956 . S
C3294 H3307 0.961 . S
C3294 H3308 0.961 . S
C3295 C3292 1.539 . S
C3295 H3309 0.958 . S
C3295 H3310 0.961 . S
C3295 H3311 0.960 . S
H3296 C3280 0.931 . S
H3297 C3285 0.929 . S
H3298 C3286 0.960 . S
H3299 C3286 0.962 . S
H3300 C3286 0.960 . S
H3301 C3287 0.961 . S
H3302 C3287 0.961 . S
H3303 C3287 0.961 . S
H3304 C3288 0.931 . S
H3305 C3293 0.930 . S
H3306 C3294 0.956 . S
H3307 C3294 0.961 . S
H3308 C3294 0.961 . S
H3309 C3295 0.958 . S
H3310 C3295 0.961 . S
H3311 C3295 0.960 . S
C3312 C3313 1.391 . S
C3312 C3314 1.394 . S
C3312 H3328 0.931 . S
C3313 C3312 1.391 . S
C3313 C3317 1.376 . S
C3314 C3312 1.394 . S
C3314 C3315 1.369 . S
C3314 C3318 1.531 . S
C3315 C3314 1.369 . S
C3315 C3316 1.410 . S
C3315 C3323 1.503 . S
C3316 C3315 1.410 . S
C3316 C3317 1.392 . S
C3316 C3319 1.511 . S
C3317 C3313 1.376 . S
C3317 C3316 1.392 . S
C3317 H3329 0.929 . S
C3318 C3314 1.531 . S
C3318 H3330 0.960 . S
C3318 H3331 0.962 . S
C3318 H3332 0.960 . S
C3319 C3316 1.511 . S
C3319 H3333 0.961 . S
C3319 H3334 0.961 . S
C3319 H3335 0.961 . S
C3320 C3321 1.370 . S
C3320 C3322 1.363 . S
C3320 H3336 0.931 . S
C3321 C3320 1.370 . S
C3321 C3325 1.408 . S
C3322 C3320 1.363 . S
C3322 C3323 1.370 . S
C3322 C3326 1.524 . S
C3323 C3315 1.503 . S
C3323 C3322 1.370 . S
C3323 C3324 1.403 . S
C3324 C3323 1.403 . S
C3324 C3325 1.404 . S
C3324 C3327 1.539 . S
C3325 C3321 1.408 . S
C3325 C3324 1.404 . S
C3325 H3337 0.930 . S
C3326 C3322 1.524 . S
C3326 H3338 0.956 . S
C3326 H3339 0.961 . S
C3326 H3340 0.961 . S
C3327 C3324 1.539 . S
C3327 H3341 0.958 . S
C3327 H3342 0.961 . S
C3327 H3343 0.960 . S
H3328 C3312 0.931 . S
H3329 C3317 0.929 . S
H3330 C3318 0.960 . S
H3331 C3318 0.962 . S
H3332 C3318 0.960 . S
H3333 C3319 0.961 . S
H3334 C3319 0.961 . S
H3335 C3319 0.961 . S
H3336 C3320 0.931 . S
H3337 C3325 0.930 . S
H3338 C3326 0.956 . S
H3339 C3326 0.961 . S
H3340 C3326 0.961 . S
H3341 C3327 0.958 . S
H3342 C3327 0.961 . S
H3343 C3327 0.960 . S
C3344 C3345 1.391 . S
C3344 C3346 1.394 . S
C3344 H3360 0.931 . S
C3345 C3344 1.391 . S
C3345 C3349 1.376 . S
C3346 C3344 1.394 . S
C3346 C3347 1.369 . S
C3346 C3350 1.531 . S
C3347 C3346 1.369 . S
C3347 C3348 1.410 . S
C3347 C3355 1.503 . S
C3348 C3347 1.410 . S
C3348 C3349 1.392 . S
C3348 C3351 1.511 . S
C3349 C3345 1.376 . S
C3349 C3348 1.392 . S
C3349 H3361 0.929 . S
C3350 C3346 1.531 . S
C3350 H3362 0.960 . S
C3350 H3363 0.962 . S
C3350 H3364 0.960 . S
C3351 C3348 1.511 . S
C3351 H3365 0.961 . S
C3351 H3366 0.961 . S
C3351 H3367 0.961 . S
C3352 C3353 1.370 . S
C3352 C3354 1.363 . S
C3352 H3368 0.927 . S
C3353 C3352 1.370 . S
C3353 C3357 1.408 . S
C3354 C3352 1.363 . S
C3354 C3355 1.370 . S
C3354 C3358 1.524 . S
C3355 C3347 1.503 . S
C3355 C3354 1.370 . S
C3355 C3356 1.403 . S
C3356 C3355 1.403 . S
C3356 C3357 1.404 . S
C3356 C3359 1.539 . S
C3357 C3353 1.408 . S
C3357 C3356 1.404 . S
C3357 H3369 0.930 . S
C3358 C3354 1.524 . S
C3358 H3370 0.956 . S
C3358 H3371 0.961 . S
C3358 H3372 0.961 1_554 S
C3359 C3356 1.539 . S
C3359 H3373 0.958 . S
C3359 H3374 0.961 . S
C3359 H3375 0.960 . S
H3360 C3344 0.931 . S
H3361 C3349 0.929 . S
H3362 C3350 0.960 . S
H3363 C3350 0.962 . S
H3364 C3350 0.960 . S
H3365 C3351 0.961 . S
H3366 C3351 0.961 . S
H3367 C3351 0.961 . S
H3368 C3352 0.927 . S
H3369 C3357 0.930 . S
H3370 C3358 0.956 . S
H3371 C3358 0.961 . S
H3372 C3358 0.961 1_556 S
H3373 C3359 0.958 . S
H3374 C3359 0.961 . S
H3375 C3359 0.960 . S
C3376 C3377 1.391 . S
C3376 C3378 1.394 . S
C3376 H3392 0.931 . S
C3377 C3376 1.391 . S
C3377 C3381 1.376 . S
C3378 C3376 1.394 . S
C3378 C3379 1.369 . S
C3378 C3382 1.531 . S
C3379 C3378 1.369 . S
C3379 C3380 1.410 . S
C3379 C3387 1.503 . S
C3380 C3379 1.410 . S
C3380 C3381 1.392 . S
C3380 C3383 1.511 . S
C3381 C3377 1.376 . S
C3381 C3380 1.392 . S
C3381 H3393 0.929 . S
C3382 C3378 1.531 . S
C3382 H3394 0.960 . S
C3382 H3395 0.962 . S
C3382 H3396 0.960 . S
C3383 C3380 1.511 . S
C3383 H3397 0.961 . S
C3383 H3398 0.961 . S
C3383 H3399 0.961 . S
C3384 C3385 1.370 . S
C3384 C3386 1.363 . S
C3384 H3400 0.931 . S
C3385 C3384 1.370 . S
C3385 C3389 1.408 . S
C3386 C3384 1.363 . S
C3386 C3387 1.370 . S
C3386 C3390 1.524 . S
C3387 C3379 1.503 . S
C3387 C3386 1.370 . S
C3387 C3388 1.403 . S
C3388 C3387 1.403 . S
C3388 C3389 1.404 . S
C3388 C3391 1.539 . S
C3389 C3385 1.408 . S
C3389 C3388 1.404 . S
C3389 H3401 0.930 . S
C3390 C3386 1.524 . S
C3390 H3402 0.956 . S
C3390 H3403 0.961 . S
C3390 H3404 0.961 . S
C3391 C3388 1.539 . S
C3391 H3405 0.958 . S
C3391 H3406 0.961 . S
C3391 H3407 0.960 . S
H3392 C3376 0.931 . S
H3393 C3381 0.929 . S
H3394 C3382 0.960 . S
H3395 C3382 0.962 . S
H3396 C3382 0.960 . S
H3397 C3383 0.961 . S
H3398 C3383 0.961 . S
H3399 C3383 0.961 . S
H3400 C3384 0.931 . S
H3401 C3389 0.930 . S
H3402 C3390 0.956 . S
H3403 C3390 0.961 . S
H3404 C3390 0.961 . S
H3405 C3391 0.958 . S
H3406 C3391 0.961 . S
H3407 C3391 0.960 . S
C3408 C3409 1.391 . S
C3408 C3410 1.394 . S
C3408 H3424 0.931 . S
C3409 C3408 1.391 . S
C3409 C3413 1.376 . S
C3410 C3408 1.394 . S
C3410 C3411 1.369 . S
C3410 C3414 1.531 . S
C3411 C3410 1.369 . S
C3411 C3412 1.410 . S
C3411 C3419 1.503 . S
C3412 C3411 1.410 . S
C3412 C3413 1.392 . S
C3412 C3415 1.511 . S
C3413 C3409 1.376 . S
C3413 C3412 1.392 . S
C3413 H3425 0.929 . S
C3414 C3410 1.531 . S
C3414 H3426 0.960 . S
C3414 H3427 0.962 . S
C3414 H3428 0.960 . S
C3415 C3412 1.511 . S
C3415 H3429 0.961 . S
C3415 H3430 0.961 . S
C3415 H3431 0.961 . S
C3416 C3417 1.370 . S
C3416 C3418 1.363 . S
C3416 H3432 0.931 . S
C3417 C3416 1.370 . S
C3417 C3421 1.408 . S
C3418 C3416 1.363 . S
C3418 C3419 1.370 . S
C3418 C3422 1.524 . S
C3419 C3411 1.503 . S
C3419 C3418 1.370 . S
C3419 C3420 1.403 . S
C3420 C3419 1.403 . S
C3420 C3421 1.404 . S
C3420 C3423 1.539 . S
C3421 C3417 1.408 . S
C3421 C3420 1.404 . S
C3421 H3433 0.930 . S
C3422 C3418 1.524 . S
C3422 H3434 0.956 . S
C3422 H3435 0.961 . S
C3422 H3436 0.961 . S
C3423 C3420 1.539 . S
C3423 H3437 0.958 . S
C3423 H3438 0.961 . S
C3423 H3439 0.960 . S
H3424 C3408 0.931 . S
H3425 C3413 0.929 . S
H3426 C3414 0.960 . S
H3427 C3414 0.962 . S
H3428 C3414 0.960 . S
H3429 C3415 0.961 . S
H3430 C3415 0.961 . S
H3431 C3415 0.961 . S
H3432 C3416 0.931 . S
H3433 C3421 0.930 . S
H3434 C3422 0.956 . S
H3435 C3422 0.961 . S
H3436 C3422 0.961 . S
H3437 C3423 0.958 . S
H3438 C3423 0.961 . S
H3439 C3423 0.960 . S
C3440 C3441 1.391 . S
C3440 C3442 1.394 . S
C3440 H3456 0.931 . S
C3441 C3440 1.391 . S
C3441 C3445 1.376 . S
C3442 C3440 1.394 . S
C3442 C3443 1.369 . S
C3442 C3446 1.531 . S
C3443 C3442 1.369 . S
C3443 C3444 1.410 . S
C3443 C3451 1.503 . S
C3444 C3443 1.410 . S
C3444 C3445 1.392 . S
C3444 C3447 1.511 . S
C3445 C3441 1.376 . S
C3445 C3444 1.392 . S
C3445 H3457 0.929 . S
C3446 C3442 1.531 . S
C3446 H3458 0.960 . S
C3446 H3459 0.962 . S
C3446 H3460 0.960 . S
C3447 C3444 1.511 . S
C3447 H3461 0.961 . S
C3447 H3462 0.961 . S
C3447 H3463 0.961 . S
C3448 C3449 1.370 . S
C3448 C3450 1.363 . S
C3448 H3464 0.931 . S
C3449 C3448 1.370 . S
C3449 C3453 1.408 . S
C3450 C3448 1.363 . S
C3450 C3451 1.370 . S
C3450 C3454 1.524 . S
C3451 C3443 1.503 . S
C3451 C3450 1.370 . S
C3451 C3452 1.403 . S
C3452 C3451 1.403 . S
C3452 C3453 1.404 . S
C3452 C3455 1.539 . S
C3453 C3449 1.408 . S
C3453 C3452 1.404 . S
C3453 H3465 0.930 . S
C3454 C3450 1.524 . S
C3454 H3466 0.956 . S
C3454 H3467 0.961 . S
C3454 H3468 0.961 . S
C3455 C3452 1.539 . S
C3455 H3469 0.958 . S
C3455 H3470 0.961 . S
C3455 H3471 0.960 . S
H3456 C3440 0.931 . S
H3457 C3445 0.929 . S
H3458 C3446 0.960 . S
H3459 C3446 0.962 . S
H3460 C3446 0.960 . S
H3461 C3447 0.961 . S
H3462 C3447 0.961 . S
H3463 C3447 0.961 . S
H3464 C3448 0.931 . S
H3465 C3453 0.930 . S
H3466 C3454 0.956 . S
H3467 C3454 0.961 . S
H3468 C3454 0.961 . S
H3469 C3455 0.958 . S
H3470 C3455 0.961 . S
H3471 C3455 0.960 . S
C3472 C3473 1.391 . S
C3472 C3474 1.394 . S
C3472 H3488 0.931 . S
C3473 C3472 1.391 . S
C3473 C3477 1.376 . S
C3474 C3472 1.394 . S
C3474 C3475 1.369 . S
C3474 C3478 1.531 . S
C3475 C3474 1.369 . S
C3475 C3476 1.410 . S
C3475 C3483 1.503 . S
C3476 C3475 1.410 . S
C3476 C3477 1.392 . S
C3476 C3479 1.511 . S
C3477 C3473 1.376 . S
C3477 C3476 1.392 . S
C3477 H3489 0.929 . S
C3478 C3474 1.531 . S
C3478 H3490 0.960 . S
C3478 H3491 0.962 . S
C3478 H3492 0.960 . S
C3479 C3476 1.511 . S
C3479 H3493 0.961 . S
C3479 H3494 0.961 . S
C3479 H3495 0.961 . S
C3480 C3481 1.370 . S
C3480 C3482 1.363 . S
C3480 H3496 0.931 . S
C3481 C3480 1.370 . S
C3481 C3485 1.408 . S
C3482 C3480 1.363 . S
C3482 C3483 1.370 . S
C3482 C3486 1.524 . S
C3483 C3475 1.503 . S
C3483 C3482 1.370 . S
C3483 C3484 1.403 . S
C3484 C3483 1.403 . S
C3484 C3485 1.404 . S
C3484 C3487 1.539 . S
C3485 C3481 1.408 . S
C3485 C3484 1.404 . S
C3485 H3497 0.930 . S
C3486 C3482 1.524 . S
C3486 H3498 0.956 . S
C3486 H3499 0.961 . S
C3486 H3500 0.961 . S
C3487 C3484 1.539 . S
C3487 H3501 0.958 . S
C3487 H3502 0.961 . S
C3487 H3503 0.960 . S
H3488 C3472 0.931 . S
H3489 C3477 0.929 . S
H3490 C3478 0.960 . S
H3491 C3478 0.962 . S
H3492 C3478 0.960 . S
H3493 C3479 0.961 . S
H3494 C3479 0.961 . S
H3495 C3479 0.961 . S
H3496 C3480 0.931 . S
H3497 C3485 0.930 . S
H3498 C3486 0.956 . S
H3499 C3486 0.961 . S
H3500 C3486 0.961 . S
H3501 C3487 0.958 . S
H3502 C3487 0.961 . S
H3503 C3487 0.960 . S
C3504 C3505 1.391 . S
C3504 C3506 1.394 . S
C3504 H3520 0.931 . S
C3505 C3504 1.391 . S
C3505 C3509 1.376 . S
C3506 C3504 1.394 . S
C3506 C3507 1.369 . S
C3506 C3510 1.531 . S
C3507 C3506 1.369 . S
C3507 C3508 1.410 . S
C3507 C3515 1.503 . S
C3508 C3507 1.410 . S
C3508 C3509 1.392 . S
C3508 C3511 1.511 . S
C3509 C3505 1.376 . S
C3509 C3508 1.392 . S
C3509 H3521 0.929 . S
C3510 C3506 1.531 . S
C3510 H3522 0.960 . S
C3510 H3523 0.962 . S
C3510 H3524 0.960 . S
C3511 C3508 1.511 . S
C3511 H3525 0.961 . S
C3511 H3526 0.961 . S
C3511 H3527 0.961 . S
C3512 C3513 1.370 . S
C3512 C3514 1.363 . S
C3512 H3528 0.931 . S
C3513 C3512 1.370 . S
C3513 C3517 1.408 . S
C3514 C3512 1.363 . S
C3514 C3515 1.370 . S
C3514 C3518 1.524 . S
C3515 C3507 1.503 . S
C3515 C3514 1.370 . S
C3515 C3516 1.403 . S
C3516 C3515 1.403 . S
C3516 C3517 1.404 . S
C3516 C3519 1.539 . S
C3517 C3513 1.408 . S
C3517 C3516 1.404 . S
C3517 H3529 0.930 . S
C3518 C3514 1.524 . S
C3518 H3530 0.956 . S
C3518 H3531 0.961 . S
C3518 H3532 0.961 . S
C3519 C3516 1.539 . S
C3519 H3533 0.958 . S
C3519 H3534 0.961 . S
C3519 H3535 0.960 . S
H3520 C3504 0.931 . S
H3521 C3509 0.929 . S
H3522 C3510 0.960 . S
H3523 C3510 0.962 . S
H3524 C3510 0.960 . S
H3525 C3511 0.961 . S
H3526 C3511 0.961 . S
H3527 C3511 0.961 . S
H3528 C3512 0.931 . S
H3529 C3517 0.930 . S
H3530 C3518 0.956 . S
H3531 C3518 0.961 . S
H3532 C3518 0.961 . S
H3533 C3519 0.958 . S
H3534 C3519 0.961 . S
H3535 C3519 0.960 . S
C3536 C3537 1.391 . S
C3536 C3538 1.394 . S
C3536 H3552 0.931 . S
C3537 C3536 1.391 . S
C3537 C3541 1.376 . S
C3538 C3536 1.394 . S
C3538 C3539 1.369 . S
C3538 C3542 1.531 . S
C3539 C3538 1.369 . S
C3539 C3540 1.410 . S
C3539 C3547 1.503 . S
C3540 C3539 1.410 . S
C3540 C3541 1.392 . S
C3540 C3543 1.511 . S
C3541 C3537 1.376 . S
C3541 C3540 1.392 . S
C3541 H3553 0.929 . S
C3542 C3538 1.531 . S
C3542 H3554 0.960 . S
C3542 H3555 0.962 . S
C3542 H3556 0.960 . S
C3543 C3540 1.511 . S
C3543 H3557 0.961 . S
C3543 H3558 0.961 . S
C3543 H3559 0.961 . S
C3544 C3545 1.370 . S
C3544 C3546 1.363 . S
C3544 H3560 0.931 . S
C3545 C3544 1.370 . S
C3545 C3549 1.408 . S
C3546 C3544 1.363 . S
C3546 C3547 1.370 . S
C3546 C3550 1.524 . S
C3547 C3539 1.503 . S
C3547 C3546 1.370 . S
C3547 C3548 1.403 . S
C3548 C3547 1.403 . S
C3548 C3549 1.404 . S
C3548 C3551 1.539 . S
C3549 C3545 1.408 . S
C3549 C3548 1.404 . S
C3549 H3561 0.930 . S
C3550 C3546 1.524 . S
C3550 H3562 0.956 . S
C3550 H3563 0.961 . S
C3550 H3564 0.961 . S
C3551 C3548 1.539 . S
C3551 H3565 0.958 . S
C3551 H3566 0.961 . S
C3551 H3567 0.960 . S
H3552 C3536 0.931 . S
H3553 C3541 0.929 . S
H3554 C3542 0.960 . S
H3555 C3542 0.962 . S
H3556 C3542 0.960 . S
H3557 C3543 0.961 . S
H3558 C3543 0.961 . S
H3559 C3543 0.961 . S
H3560 C3544 0.931 . S
H3561 C3549 0.930 . S
H3562 C3550 0.956 . S
H3563 C3550 0.961 . S
H3564 C3550 0.961 . S
H3565 C3551 0.958 . S
H3566 C3551 0.961 . S
H3567 C3551 0.960 . S
C3568 C3569 1.391 . S
C3568 C3570 1.394 . S
C3568 H3584 0.931 . S
C3569 C3568 1.391 . S
C3569 C3573 1.376 . S
C3570 C3568 1.394 . S
C3570 C3571 1.369 . S
C3570 C3574 1.531 . S
C3571 C3570 1.369 . S
C3571 C3572 1.410 . S
C3571 C3579 1.503 . S
C3572 C3571 1.410 . S
C3572 C3573 1.392 . S
C3572 C3575 1.511 . S
C3573 C3569 1.376 . S
C3573 C3572 1.392 . S
C3573 H3585 0.929 . S
C3574 C3570 1.531 . S
C3574 H3586 0.960 . S
C3574 H3587 0.962 . S
C3574 H3588 0.960 . S
C3575 C3572 1.511 . S
C3575 H3589 0.961 . S
C3575 H3590 0.961 . S
C3575 H3591 0.961 . S
C3576 C3577 1.370 . S
C3576 C3578 1.363 . S
C3576 H3592 0.931 . S
C3577 C3576 1.370 . S
C3577 C3581 1.408 . S
C3578 C3576 1.363 . S
C3578 C3579 1.370 . S
C3578 C3582 1.524 . S
C3579 C3571 1.503 . S
C3579 C3578 1.370 . S
C3579 C3580 1.403 . S
C3580 C3579 1.403 . S
C3580 C3581 1.404 . S
C3580 C3583 1.539 . S
C3581 C3577 1.408 . S
C3581 C3580 1.404 . S
C3581 H3593 0.930 . S
C3582 C3578 1.524 . S
C3582 H3594 0.956 . S
C3582 H3595 0.961 . S
C3582 H3596 0.961 . S
C3583 C3580 1.539 . S
C3583 H3597 0.958 . S
C3583 H3598 0.961 . S
C3583 H3599 0.960 . S
H3584 C3568 0.931 . S
H3585 C3573 0.929 . S
H3586 C3574 0.960 . S
H3587 C3574 0.962 . S
H3588 C3574 0.960 . S
H3589 C3575 0.961 . S
H3590 C3575 0.961 . S
H3591 C3575 0.961 . S
H3592 C3576 0.931 . S
H3593 C3581 0.930 . S
H3594 C3582 0.956 . S
H3595 C3582 0.961 . S
H3596 C3582 0.961 . S
H3597 C3583 0.958 . S
H3598 C3583 0.961 . S
H3599 C3583 0.960 . S
C3600 C3601 1.391 . S
C3600 C3602 1.394 . S
C3600 H3616 0.931 . S
C3601 C3600 1.391 . S
C3601 C3605 1.376 . S
C3602 C3600 1.394 . S
C3602 C3603 1.369 . S
C3602 C3606 1.531 1_655 S
C3603 C3602 1.369 . S
C3603 C3604 1.410 . S
C3603 C3611 1.503 . S
C3604 C3603 1.410 . S
C3604 C3605 1.392 . S
C3604 C3607 1.511 . S
C3605 C3601 1.376 . S
C3605 C3604 1.392 . S
C3605 H3617 0.929 . S
C3606 C3602 1.531 1_455 S
C3606 H3618 0.960 . S
C3606 H3619 0.962 . S
C3606 H3620 0.960 . S
C3607 C3604 1.511 . S
C3607 H3621 0.961 . S
C3607 H3622 0.961 . S
C3607 H3623 0.961 . S
C3608 C3609 1.370 . S
C3608 C3610 1.363 . S
C3608 H3624 0.931 . S
C3609 C3608 1.370 . S
C3609 C3613 1.408 . S
C3610 C3608 1.363 . S
C3610 C3611 1.370 1_455 S
C3610 C3614 1.524 . S
C3611 C3603 1.503 . S
C3611 C3610 1.370 1_655 S
C3611 C3612 1.403 . S
C3612 C3611 1.403 . S
C3612 C3613 1.404 1_655 S
C3612 C3615 1.539 . S
C3613 C3609 1.408 . S
C3613 C3612 1.404 1_455 S
C3613 H3625 0.930 . S
C3614 C3610 1.524 . S
C3614 H3626 0.956 . S
C3614 H3627 0.961 1_455 S
C3614 H3628 0.961 . S
C3615 C3612 1.539 . S
C3615 H3629 0.958 . S
C3615 H3630 0.961 . S
C3615 H3631 0.960 . S
H3616 C3600 0.931 . S
H3617 C3605 0.929 . S
H3618 C3606 0.960 . S
H3619 C3606 0.962 . S
H3620 C3606 0.960 . S
H3621 C3607 0.961 . S
H3622 C3607 0.961 . S
H3623 C3607 0.961 . S
H3624 C3608 0.931 . S
H3625 C3613 0.930 . S
H3626 C3614 0.956 . S
H3627 C3614 0.961 1_655 S
H3628 C3614 0.961 . S
H3629 C3615 0.958 . S
H3630 C3615 0.961 . S
H3631 C3615 0.960 . S
C3632 C3633 1.391 . S
C3632 C3634 1.394 . S
C3632 H3648 0.931 . S
C3633 C3632 1.391 . S
C3633 C3637 1.376 . S
C3634 C3632 1.394 . S
C3634 C3635 1.369 . S
C3634 C3638 1.531 . S
C3635 C3634 1.369 . S
C3635 C3636 1.410 . S
C3635 C3643 1.503 . S
C3636 C3635 1.410 . S
C3636 C3637 1.392 . S
C3636 C3639 1.511 . S
C3637 C3633 1.376 . S
C3637 C3636 1.392 . S
C3637 H3649 0.929 . S
C3638 C3634 1.531 . S
C3638 H3650 0.960 . S
C3638 H3651 0.962 . S
C3638 H3652 0.960 . S
C3639 C3636 1.511 . S
C3639 H3653 0.961 . S
C3639 H3654 0.961 . S
C3639 H3655 0.961 . S
C3640 C3641 1.370 . S
C3640 C3642 1.363 . S
C3640 H3656 0.931 . S
C3641 C3640 1.370 . S
C3641 C3645 1.408 . S
C3642 C3640 1.363 . S
C3642 C3643 1.370 . S
C3642 C3646 1.524 . S
C3643 C3635 1.503 . S
C3643 C3642 1.370 . S
C3643 C3644 1.403 . S
C3644 C3643 1.403 . S
C3644 C3645 1.404 . S
C3644 C3647 1.539 . S
C3645 C3641 1.408 . S
C3645 C3644 1.404 . S
C3645 H3657 0.930 . S
C3646 C3642 1.524 . S
C3646 H3658 0.956 . S
C3646 H3659 0.961 . S
C3646 H3660 0.961 . S
C3647 C3644 1.539 . S
C3647 H3661 0.958 . S
C3647 H3662 0.961 . S
C3647 H3663 0.960 . S
H3648 C3632 0.931 . S
H3649 C3637 0.929 . S
H3650 C3638 0.960 . S
H3651 C3638 0.962 . S
H3652 C3638 0.960 . S
H3653 C3639 0.961 . S
H3654 C3639 0.961 . S
H3655 C3639 0.961 . S
H3656 C3640 0.931 . S
H3657 C3645 0.930 . S
H3658 C3646 0.956 . S
H3659 C3646 0.961 . S
H3660 C3646 0.961 . S
H3661 C3647 0.958 . S
H3662 C3647 0.961 . S
H3663 C3647 0.960 . S
C3664 C3665 1.391 . S
C3664 C3666 1.394 . S
C3664 H3680 0.931 . S
C3665 C3664 1.391 . S
C3665 C3669 1.376 . S
C3666 C3664 1.394 . S
C3666 C3667 1.369 . S
C3666 C3670 1.531 . S
C3667 C3666 1.369 . S
C3667 C3668 1.410 . S
C3667 C3675 1.503 . S
C3668 C3667 1.410 . S
C3668 C3669 1.392 . S
C3668 C3671 1.511 . S
C3669 C3665 1.376 . S
C3669 C3668 1.392 . S
C3669 H3681 0.929 . S
C3670 C3666 1.531 . S
C3670 H3682 0.960 . S
C3670 H3683 0.962 . S
C3670 H3684 0.960 . S
C3671 C3668 1.511 . S
C3671 H3685 0.961 . S
C3671 H3686 0.961 . S
C3671 H3687 0.961 . S
C3672 C3673 1.370 . S
C3672 C3674 1.363 . S
C3672 H3688 0.931 . S
C3673 C3672 1.370 . S
C3673 C3677 1.408 . S
C3674 C3672 1.363 . S
C3674 C3675 1.370 . S
C3674 C3678 1.524 . S
C3675 C3667 1.503 . S
C3675 C3674 1.370 . S
C3675 C3676 1.403 . S
C3676 C3675 1.403 . S
C3676 C3677 1.404 . S
C3676 C3679 1.539 . S
C3677 C3673 1.408 . S
C3677 C3676 1.404 . S
C3677 H3689 0.930 . S
C3678 C3674 1.524 . S
C3678 H3690 0.956 . S
C3678 H3691 0.961 . S
C3678 H3692 0.961 . S
C3679 C3676 1.539 . S
C3679 H3693 0.958 . S
C3679 H3694 0.961 . S
C3679 H3695 0.960 . S
H3680 C3664 0.931 . S
H3681 C3669 0.929 . S
H3682 C3670 0.960 . S
H3683 C3670 0.962 . S
H3684 C3670 0.960 . S
H3685 C3671 0.961 . S
H3686 C3671 0.961 . S
H3687 C3671 0.961 . S
H3688 C3672 0.931 . S
H3689 C3677 0.930 . S
H3690 C3678 0.956 . S
H3691 C3678 0.961 . S
H3692 C3678 0.961 . S
H3693 C3679 0.958 . S
H3694 C3679 0.961 . S
H3695 C3679 0.960 . S
C3696 C3697 1.391 . S
C3696 C3698 1.394 . S
C3696 H3712 0.931 . S
C3697 C3696 1.391 . S
C3697 C3701 1.376 . S
C3698 C3696 1.394 . S
C3698 C3699 1.369 . S
C3698 C3702 1.531 . S
C3699 C3698 1.369 . S
C3699 C3700 1.410 . S
C3699 C3707 1.503 . S
C3700 C3699 1.410 . S
C3700 C3701 1.392 . S
C3700 C3703 1.511 . S
C3701 C3697 1.376 . S
C3701 C3700 1.392 . S
C3701 H3713 0.929 . S
C3702 C3698 1.531 . S
C3702 H3714 0.960 . S
C3702 H3715 0.962 . S
C3702 H3716 0.960 . S
C3703 C3700 1.511 . S
C3703 H3717 0.961 . S
C3703 H3718 0.961 . S
C3703 H3719 0.961 . S
C3704 C3705 1.370 . S
C3704 C3706 1.363 . S
C3704 H3720 0.931 . S
C3705 C3704 1.370 . S
C3705 C3709 1.408 . S
C3706 C3704 1.363 . S
C3706 C3707 1.370 . S
C3706 C3710 1.524 . S
C3707 C3699 1.503 . S
C3707 C3706 1.370 . S
C3707 C3708 1.403 . S
C3708 C3707 1.403 . S
C3708 C3709 1.404 . S
C3708 C3711 1.539 . S
C3709 C3705 1.408 . S
C3709 C3708 1.404 . S
C3709 H3721 0.930 . S
C3710 C3706 1.524 . S
C3710 H3722 0.956 . S
C3710 H3723 0.961 . S
C3710 H3724 0.961 . S
C3711 C3708 1.539 . S
C3711 H3725 0.958 . S
C3711 H3726 0.961 . S
C3711 H3727 0.960 . S
H3712 C3696 0.931 . S
H3713 C3701 0.929 . S
H3714 C3702 0.960 . S
H3715 C3702 0.962 . S
H3716 C3702 0.960 . S
H3717 C3703 0.961 . S
H3718 C3703 0.961 . S
H3719 C3703 0.961 . S
H3720 C3704 0.931 . S
H3721 C3709 0.930 . S
H3722 C3710 0.956 . S
H3723 C3710 0.961 . S
H3724 C3710 0.961 . S
H3725 C3711 0.958 . S
H3726 C3711 0.961 . S
H3727 C3711 0.960 . S
C3728 C3729 1.391 . S
C3728 C3730 1.394 . S
C3728 H3744 0.931 . S
C3729 C3728 1.391 . S
C3729 C3733 1.376 . S
C3730 C3728 1.394 . S
C3730 C3731 1.369 . S
C3730 C3734 1.531 . S
C3731 C3730 1.369 . S
C3731 C3732 1.410 . S
C3731 C3739 1.503 . S
C3732 C3731 1.410 . S
C3732 C3733 1.392 . S
C3732 C3735 1.511 . S
C3733 C3729 1.376 . S
C3733 C3732 1.392 . S
C3733 H3745 0.929 . S
C3734 C3730 1.531 . S
C3734 H3746 0.960 . S
C3734 H3747 0.962 . S
C3734 H3748 0.960 . S
C3735 C3732 1.511 . S
C3735 H3749 0.961 . S
C3735 H3750 0.961 . S
C3735 H3751 0.961 . S
C3736 C3737 1.370 . S
C3736 C3738 1.363 . S
C3736 H3752 0.931 . S
C3737 C3736 1.370 . S
C3737 C3741 1.408 1_655 S
C3738 C3736 1.363 . S
C3738 C3739 1.370 . S
C3738 C3742 1.524 . S
C3739 C3731 1.503 . S
C3739 C3738 1.370 . S
C3739 C3740 1.403 . S
C3740 C3739 1.403 . S
C3740 C3741 1.404 1_655 S
C3740 C3743 1.539 1_655 S
C3741 C3737 1.408 1_455 S
C3741 C3740 1.404 1_455 S
C3741 H3753 0.930 . S
C3742 C3738 1.524 . S
C3742 H3754 0.956 . S
C3742 H3755 0.961 . S
C3742 H3756 0.961 . S
C3743 C3740 1.539 1_455 S
C3743 H3757 0.958 . S
C3743 H3758 0.961 . S
C3743 H3759 0.960 . S
H3744 C3728 0.931 . S
H3745 C3733 0.929 . S
H3746 C3734 0.960 . S
H3747 C3734 0.962 . S
H3748 C3734 0.960 . S
H3749 C3735 0.961 . S
H3750 C3735 0.961 . S
H3751 C3735 0.961 . S
H3752 C3736 0.931 . S
H3753 C3741 0.930 . S
H3754 C3742 0.956 . S
H3755 C3742 0.961 . S
H3756 C3742 0.961 . S
H3757 C3743 0.958 . S
H3758 C3743 0.961 . S
H3759 C3743 0.960 . S
C3760 C3761 1.391 . S
C3760 C3762 1.394 . S
C3760 H3776 0.931 . S
C3761 C3760 1.391 . S
C3761 C3765 1.376 . S
C3762 C3760 1.394 . S
C3762 C3763 1.369 . S
C3762 C3766 1.531 . S
C3763 C3762 1.369 . S
C3763 C3764 1.410 . S
C3763 C3771 1.503 . S
C3764 C3763 1.410 . S
C3764 C3765 1.392 . S
C3764 C3767 1.511 . S
C3765 C3761 1.376 . S
C3765 C3764 1.392 . S
C3765 H3777 0.929 . S
C3766 C3762 1.531 . S
C3766 H3778 0.960 . S
C3766 H3779 0.962 . S
C3766 H3780 0.960 . S
C3767 C3764 1.511 . S
C3767 H3781 0.961 . S
C3767 H3782 0.961 . S
C3767 H3783 0.961 . S
C3768 C3769 1.370 . S
C3768 C3770 1.363 . S
C3768 H3784 0.931 . S
C3769 C3768 1.370 . S
C3769 C3773 1.408 . S
C3770 C3768 1.363 . S
C3770 C3771 1.370 . S
C3770 C3774 1.524 . S
C3771 C3763 1.503 . S
C3771 C3770 1.370 . S
C3771 C3772 1.403 . S
C3772 C3771 1.403 . S
C3772 C3773 1.404 . S
C3772 C3775 1.539 . S
C3773 C3769 1.408 . S
C3773 C3772 1.404 . S
C3773 H3785 0.930 . S
C3774 C3770 1.524 . S
C3774 H3786 0.956 . S
C3774 H3787 0.961 . S
C3774 H3788 0.961 . S
C3775 C3772 1.539 . S
C3775 H3789 0.958 . S
C3775 H3790 0.961 . S
C3775 H3791 0.960 . S
H3776 C3760 0.931 . S
H3777 C3765 0.929 . S
H3778 C3766 0.960 . S
H3779 C3766 0.962 . S
H3780 C3766 0.960 . S
H3781 C3767 0.961 . S
H3782 C3767 0.961 . S
H3783 C3767 0.961 . S
H3784 C3768 0.931 . S
H3785 C3773 0.930 . S
H3786 C3774 0.956 . S
H3787 C3774 0.961 . S
H3788 C3774 0.961 . S
H3789 C3775 0.958 . S
H3790 C3775 0.961 . S
H3791 C3775 0.960 . S
C3792 C3793 1.391 . S
C3792 C3794 1.394 . S
C3792 H3808 0.931 . S
C3793 C3792 1.391 . S
C3793 C3797 1.376 . S
C3794 C3792 1.394 . S
C3794 C3795 1.369 . S
C3794 C3798 1.531 . S
C3795 C3794 1.369 . S
C3795 C3796 1.410 . S
C3795 C3803 1.503 . S
C3796 C3795 1.410 . S
C3796 C3797 1.392 . S
C3796 C3799 1.511 . S
C3797 C3793 1.376 . S
C3797 C3796 1.392 . S
C3797 H3809 0.929 . S
C3798 C3794 1.531 . S
C3798 H3810 0.960 . S
C3798 H3811 0.962 . S
C3798 H3812 0.960 . S
C3799 C3796 1.511 . S
C3799 H3813 0.961 . S
C3799 H3814 0.961 . S
C3799 H3815 0.961 . S
C3800 C3801 1.370 . S
C3800 C3802 1.363 . S
C3800 H3816 0.931 . S
C3801 C3800 1.370 . S
C3801 C3805 1.408 . S
C3802 C3800 1.363 . S
C3802 C3803 1.370 . S
C3802 C3806 1.524 . S
C3803 C3795 1.503 . S
C3803 C3802 1.370 . S
C3803 C3804 1.403 . S
C3804 C3803 1.403 . S
C3804 C3805 1.404 . S
C3804 C3807 1.539 . S
C3805 C3801 1.408 . S
C3805 C3804 1.404 . S
C3805 H3817 0.930 . S
C3806 C3802 1.524 . S
C3806 H3818 0.956 . S
C3806 H3819 0.961 . S
C3806 H3820 0.961 . S
C3807 C3804 1.539 . S
C3807 H3821 0.958 . S
C3807 H3822 0.961 . S
C3807 H3823 0.960 . S
H3808 C3792 0.931 . S
H3809 C3797 0.929 . S
H3810 C3798 0.960 . S
H3811 C3798 0.962 . S
H3812 C3798 0.960 . S
H3813 C3799 0.961 . S
H3814 C3799 0.961 . S
H3815 C3799 0.961 . S
H3816 C3800 0.931 . S
H3817 C3805 0.930 . S
H3818 C3806 0.956 . S
H3819 C3806 0.961 . S
H3820 C3806 0.961 . S
H3821 C3807 0.958 . S
H3822 C3807 0.961 . S
H3823 C3807 0.960 . S
C3824 C3825 1.391 . S
C3824 C3826 1.394 . S
C3824 H3840 0.931 . S
C3825 C3824 1.391 . S
C3825 C3829 1.376 . S
C3826 C3824 1.394 . S
C3826 C3827 1.369 . S
C3826 C3830 1.531 . S
C3827 C3826 1.369 . S
C3827 C3828 1.410 . S
C3827 C3835 1.503 . S
C3828 C3827 1.410 . S
C3828 C3829 1.392 . S
C3828 C3831 1.511 . S
C3829 C3825 1.376 . S
C3829 C3828 1.392 . S
C3829 H3841 0.929 . S
C3830 C3826 1.531 . S
C3830 H3842 0.960 . S
C3830 H3843 0.962 . S
C3830 H3844 0.960 . S
C3831 C3828 1.511 . S
C3831 H3845 0.961 . S
C3831 H3846 0.961 . S
C3831 H3847 0.961 . S
C3832 C3833 1.370 1_545 S
C3832 C3834 1.363 1_545 S
C3832 H3848 0.931 . S
C3833 C3832 1.370 1_565 S
C3833 C3837 1.408 . S
C3834 C3832 1.363 1_565 S
C3834 C3835 1.370 . S
C3834 C3838 1.524 . S
C3835 C3827 1.503 . S
C3835 C3834 1.370 . S
C3835 C3836 1.403 . S
C3836 C3835 1.403 . S
C3836 C3837 1.404 . S
C3836 C3839 1.539 . S
C3837 C3833 1.408 . S
C3837 C3836 1.404 . S
C3837 H3849 0.930 . S
C3838 C3834 1.524 . S
C3838 H3850 0.956 . S
C3838 H3851 0.961 . S
C3838 H3852 0.961 1_565 S
C3839 C3836 1.539 . S
C3839 H3853 0.958 . S
C3839 H3854 0.961 . S
C3839 H3855 0.960 . S
H3840 C3824 0.931 . S
H3841 C3829 0.929 . S
H3842 C3830 0.960 . S
H3843 C3830 0.962 . S
H3844 C3830 0.960 . S
H3845 C3831 0.961 . S
H3846 C3831 0.961 . S
H3847 C3831 0.961 . S
H3848 C3832 0.931 . S
H3849 C3837 0.930 . S
H3850 C3838 0.956 . S
H3851 C3838 0.961 . S
H3852 C3838 0.961 1_545 S
H3853 C3839 0.958 . S
H3854 C3839 0.961 . S
H3855 C3839 0.960 . S
C3856 C3857 1.391 . S
C3856 C3858 1.394 . S
C3856 H3872 0.931 . S
C3857 C3856 1.391 . S
C3857 C3861 1.376 . S
C3858 C3856 1.394 . S
C3858 C3859 1.369 . S
C3858 C3862 1.531 . S
C3859 C3858 1.369 . S
C3859 C3860 1.410 . S
C3859 C3867 1.503 . S
C3860 C3859 1.410 . S
C3860 C3861 1.392 . S
C3860 C3863 1.511 . S
C3861 C3857 1.376 . S
C3861 C3860 1.392 . S
C3861 H3873 0.929 . S
C3862 C3858 1.531 . S
C3862 H3874 0.960 . S
C3862 H3875 0.962 . S
C3862 H3876 0.960 . S
C3863 C3860 1.511 . S
C3863 H3877 0.961 . S
C3863 H3878 0.961 . S
C3863 H3879 0.961 . S
C3864 C3865 1.370 . S
C3864 C3866 1.363 . S
C3864 H3880 0.931 . S
C3865 C3864 1.370 . S
C3865 C3869 1.408 . S
C3866 C3864 1.363 . S
C3866 C3867 1.370 . S
C3866 C3870 1.524 . S
C3867 C3859 1.503 . S
C3867 C3866 1.370 . S
C3867 C3868 1.403 . S
C3868 C3867 1.403 . S
C3868 C3869 1.404 . S
C3868 C3871 1.539 . S
C3869 C3865 1.408 . S
C3869 C3868 1.404 . S
C3869 H3881 0.930 . S
C3870 C3866 1.524 . S
C3870 H3882 0.956 . S
C3870 H3883 0.961 . S
C3870 H3884 0.961 . S
C3871 C3868 1.539 . S
C3871 H3885 0.958 . S
C3871 H3886 0.961 . S
C3871 H3887 0.960 . S
H3872 C3856 0.931 . S
H3873 C3861 0.929 . S
H3874 C3862 0.960 . S
H3875 C3862 0.962 . S
H3876 C3862 0.960 . S
H3877 C3863 0.961 . S
H3878 C3863 0.961 . S
H3879 C3863 0.961 . S
H3880 C3864 0.931 . S
H3881 C3869 0.930 . S
H3882 C3870 0.956 . S
H3883 C3870 0.961 . S
H3884 C3870 0.961 . S
H3885 C3871 0.958 . S
H3886 C3871 0.961 . S
H3887 C3871 0.960 . S
C3888 C3889 1.391 . S
C3888 C3890 1.394 . S
C3888 H3904 0.938 . S
C3889 C3888 1.391 . S
C3889 C3893 1.376 . S
C3890 C3888 1.394 . S
C3890 C3891 1.369 . S
C3890 C3894 1.531 1_554 S
C3891 C3890 1.369 . S
C3891 C3892 1.410 . S
C3891 C3899 1.503 . S
C3892 C3891 1.410 . S
C3892 C3893 1.392 . S
C3892 C3895 1.511 . S
C3893 C3889 1.376 . S
C3893 C3892 1.392 . S
C3893 H3905 0.929 . S
C3894 C3890 1.531 1_556 S
C3894 H3906 0.960 . S
C3894 H3907 0.962 1_556 S
C3894 H3908 0.960 . S
C3895 C3892 1.511 . S
C3895 H3909 0.961 . S
C3895 H3910 0.961 . S
C3895 H3911 0.961 . S
C3896 C3897 1.370 . S
C3896 C3898 1.363 . S
C3896 H3912 0.931 . S
C3897 C3896 1.370 . S
C3897 C3901 1.408 1_554 S
C3898 C3896 1.363 . S
C3898 C3899 1.370 . S
C3898 C3902 1.524 . S
C3899 C3891 1.503 . S
C3899 C3898 1.370 . S
C3899 C3900 1.403 1_554 S
C3900 C3899 1.403 1_556 S
C3900 C3901 1.404 . S
C3900 C3903 1.539 . S
C3901 C3897 1.408 1_556 S
C3901 C3900 1.404 . S
C3901 H3913 0.930 . S
C3902 C3898 1.524 . S
C3902 H3914 0.956 . S
C3902 H3915 0.961 . S
C3902 H3916 0.961 . S
C3903 C3900 1.539 . S
C3903 H3917 0.958 . S
C3903 H3918 0.961 . S
C3903 H3919 0.960 . S
H3904 C3888 0.938 . S
H3905 C3893 0.929 . S
H3906 C3894 0.960 . S
H3907 C3894 0.962 1_554 S
H3908 C3894 0.960 . S
H3909 C3895 0.961 . S
H3910 C3895 0.961 . S
H3911 C3895 0.961 . S
H3912 C3896 0.931 . S
H3913 C3901 0.930 . S
H3914 C3902 0.956 . S
H3915 C3902 0.961 . S
H3916 C3902 0.961 . S
H3917 C3903 0.958 . S
H3918 C3903 0.961 . S
H3919 C3903 0.960 . S
C3920 C3921 1.391 . S
C3920 C3922 1.394 . S
C3920 H3936 0.931 . S
C3921 C3920 1.391 . S
C3921 C3925 1.376 . S
C3922 C3920 1.394 . S
C3922 C3923 1.369 . S
C3922 C3926 1.531 . S
C3923 C3922 1.369 . S
C3923 C3924 1.410 . S
C3923 C3931 1.503 . S
C3924 C3923 1.410 . S
C3924 C3925 1.392 . S
C3924 C3927 1.511 . S
C3925 C3921 1.376 . S
C3925 C3924 1.392 . S
C3925 H3937 0.929 . S
C3926 C3922 1.531 . S
C3926 H3938 0.960 . S
C3926 H3939 0.962 . S
C3926 H3940 0.960 . S
C3927 C3924 1.511 . S
C3927 H3941 0.961 . S
C3927 H3942 0.961 . S
C3927 H3943 0.961 . S
C3928 C3929 1.370 . S
C3928 C3930 1.363 . S
C3928 H3944 0.931 . S
C3929 C3928 1.370 . S
C3929 C3933 1.408 . S
C3930 C3928 1.363 . S
C3930 C3931 1.370 . S
C3930 C3934 1.524 . S
C3931 C3923 1.503 . S
C3931 C3930 1.370 . S
C3931 C3932 1.403 . S
C3932 C3931 1.403 . S
C3932 C3933 1.404 . S
C3932 C3935 1.539 . S
C3933 C3929 1.408 . S
C3933 C3932 1.404 . S
C3933 H3945 0.930 . S
C3934 C3930 1.524 . S
C3934 H3946 0.956 . S
C3934 H3947 0.961 . S
C3934 H3948 0.961 . S
C3935 C3932 1.539 . S
C3935 H3949 0.958 . S
C3935 H3950 0.961 . S
C3935 H3951 0.960 . S
H3936 C3920 0.931 . S
H3937 C3925 0.929 . S
H3938 C3926 0.960 . S
H3939 C3926 0.962 . S
H3940 C3926 0.960 . S
H3941 C3927 0.961 . S
H3942 C3927 0.961 . S
H3943 C3927 0.961 . S
H3944 C3928 0.931 . S
H3945 C3933 0.930 . S
H3946 C3934 0.956 . S
H3947 C3934 0.961 . S
H3948 C3934 0.961 . S
H3949 C3935 0.958 . S
H3950 C3935 0.961 . S
H3951 C3935 0.960 . S
C3952 C3953 1.391 . S
C3952 C3954 1.394 . S
C3952 H3968 0.931 . S
C3953 C3952 1.391 . S
C3953 C3957 1.376 . S
C3954 C3952 1.394 . S
C3954 C3955 1.369 . S
C3954 C3958 1.531 . S
C3955 C3954 1.369 . S
C3955 C3956 1.413 . S
C3955 C3963 1.503 1_554 S
C3956 C3955 1.413 . S
C3956 C3957 1.394 . S
C3956 C3959 1.507 1_554 S
C3957 C3953 1.376 . S
C3957 C3956 1.394 . S
C3957 H3969 0.939 . S
C3958 C3954 1.531 . S
C3958 H3970 0.960 . S
C3958 H3971 0.962 . S
C3958 H3972 0.960 . S
C3959 C3956 1.507 1_556 S
C3959 H3973 0.961 . S
C3959 H3974 0.961 . S
C3959 H3975 0.980 . S
C3960 C3961 1.370 . S
C3960 C3962 1.363 . S
C3960 H3976 0.931 . S
C3961 C3960 1.370 . S
C3961 C3965 1.408 1_556 S
C3962 C3960 1.363 . S
C3962 C3963 1.370 . S
C3962 C3966 1.524 . S
C3963 C3955 1.503 1_556 S
C3963 C3962 1.370 . S
C3963 C3964 1.403 1_556 S
C3964 C3963 1.403 1_554 S
C3964 C3965 1.404 . S
C3964 C3967 1.539 . S
C3965 C3961 1.408 1_554 S
C3965 C3964 1.404 . S
C3965 H3977 0.930 . S
C3966 C3962 1.524 . S
C3966 H3978 0.956 . S
C3966 H3979 0.961 . S
C3966 H3980 0.961 . S
C3967 C3964 1.539 . S
C3967 H3981 0.958 . S
C3967 H3982 0.961 . S
C3967 H3983 0.960 . S
H3968 C3952 0.931 . S
H3969 C3957 0.939 . S
H3970 C3958 0.960 . S
H3971 C3958 0.962 . S
H3972 C3958 0.960 . S
H3973 C3959 0.961 . S
H3974 C3959 0.961 . S
H3975 C3959 0.980 . S
H3976 C3960 0.931 . S
H3977 C3965 0.930 . S
H3978 C3966 0.956 . S
H3979 C3966 0.961 . S
H3980 C3966 0.961 . S
H3981 C3967 0.958 . S
H3982 C3967 0.961 . S
H3983 C3967 0.960 . S
C3984 C3985 1.391 . S
C3984 C3986 1.394 . S
C3984 H4000 0.931 . S
C3985 C3984 1.391 . S
C3985 C3989 1.376 . S
C3986 C3984 1.394 . S
C3986 C3987 1.369 . S
C3986 C3990 1.531 . S
C3987 C3986 1.369 . S
C3987 C3988 1.410 . S
C3987 C3995 1.503 . S
C3988 C3987 1.410 . S
C3988 C3989 1.392 . S
C3988 C3991 1.511 . S
C3989 C3985 1.376 . S
C3989 C3988 1.392 . S
C3989 H4001 0.929 . S
C3990 C3986 1.531 . S
C3990 H4002 0.960 . S
C3990 H4003 0.962 . S
C3990 H4004 0.960 . S
C3991 C3988 1.511 . S
C3991 H4005 0.961 . S
C3991 H4006 0.961 . S
C3991 H4007 0.961 . S
C3992 C3993 1.370 . S
C3992 C3994 1.363 . S
C3992 H4008 0.931 . S
C3993 C3992 1.370 . S
C3993 C3997 1.408 . S
C3994 C3992 1.363 . S
C3994 C3995 1.370 . S
C3994 C3998 1.524 . S
C3995 C3987 1.503 . S
C3995 C3994 1.370 . S
C3995 C3996 1.403 . S
C3996 C3995 1.403 . S
C3996 C3997 1.404 . S
C3996 C3999 1.539 . S
C3997 C3993 1.408 . S
C3997 C3996 1.404 . S
C3997 H4009 0.930 . S
C3998 C3994 1.524 . S
C3998 H4010 0.956 . S
C3998 H4011 0.961 . S
C3998 H4012 0.961 . S
C3999 C3996 1.539 . S
C3999 H4013 0.958 . S
C3999 H4014 0.961 . S
C3999 H4015 0.960 . S
H4000 C3984 0.931 . S
H4001 C3989 0.929 . S
H4002 C3990 0.960 . S
H4003 C3990 0.962 . S
H4004 C3990 0.960 . S
H4005 C3991 0.961 . S
H4006 C3991 0.961 . S
H4007 C3991 0.961 . S
H4008 C3992 0.931 . S
H4009 C3997 0.930 . S
H4010 C3998 0.956 . S
H4011 C3998 0.961 . S
H4012 C3998 0.961 . S
H4013 C3999 0.958 . S
H4014 C3999 0.961 . S
H4015 C3999 0.960 . S
C4016 C4017 1.391 . S
C4016 C4018 1.394 . S
C4016 H4032 0.931 . S
C4017 C4016 1.391 . S
C4017 C4021 1.376 . S
C4018 C4016 1.394 . S
C4018 C4019 1.369 . S
C4018 C4022 1.531 . S
C4019 C4018 1.369 . S
C4019 C4020 1.410 . S
C4019 C4027 1.503 . S
C4020 C4019 1.410 . S
C4020 C4021 1.392 . S
C4020 C4023 1.511 . S
C4021 C4017 1.376 . S
C4021 C4020 1.392 . S
C4021 H4033 0.929 . S
C4022 C4018 1.531 . S
C4022 H4034 0.960 . S
C4022 H4035 0.962 . S
C4022 H4036 0.960 . S
C4023 C4020 1.511 . S
C4023 H4037 0.961 . S
C4023 H4038 0.961 . S
C4023 H4039 0.961 . S
C4024 C4025 1.370 . S
C4024 C4026 1.363 . S
C4024 H4040 0.931 . S
C4025 C4024 1.370 . S
C4025 C4029 1.408 . S
C4026 C4024 1.363 . S
C4026 C4027 1.370 . S
C4026 C4030 1.524 . S
C4027 C4019 1.503 . S
C4027 C4026 1.370 . S
C4027 C4028 1.403 . S
C4028 C4027 1.403 . S
C4028 C4029 1.404 . S
C4028 C4031 1.539 . S
C4029 C4025 1.408 . S
C4029 C4028 1.404 . S
C4029 H4041 0.930 . S
C4030 C4026 1.524 . S
C4030 H4042 0.956 . S
C4030 H4043 0.961 . S
C4030 H4044 0.961 . S
C4031 C4028 1.539 . S
C4031 H4045 0.958 . S
C4031 H4046 0.961 . S
C4031 H4047 0.960 . S
H4032 C4016 0.931 . S
H4033 C4021 0.929 . S
H4034 C4022 0.960 . S
H4035 C4022 0.962 . S
H4036 C4022 0.960 . S
H4037 C4023 0.961 . S
H4038 C4023 0.961 . S
H4039 C4023 0.961 . S
H4040 C4024 0.931 . S
H4041 C4029 0.930 . S
H4042 C4030 0.956 . S
H4043 C4030 0.961 . S
H4044 C4030 0.961 . S
H4045 C4031 0.958 . S
H4046 C4031 0.961 . S
H4047 C4031 0.960 . S
C977 C109 2.249 . S
C985 C346 2.212 1_556 S
C1009 C65 2.127 . S
C1017 C394 2.135 . S
C1041 C75 1.235 . S
C1049 C426 1.207 . S
C1081 C471 1.387 . S
C1073 C84 1.368 . S
C1105 C25 1.377 . S
C1113 C511 1.303 . S
C1145 C542 0.516 . S
C1137 C28 0.497 . S
C1177 C594 1.348 . S
C1169 C47 1.345 . S
C1201 C9 1.834 . S
C1209 C626 1.768 . S
C1241 C354 2.557 . S
C1233 C233 2.564 . S
C1265 C249 0.552 . S
C1273 C391 0.529 . S
C1305 C434 1.316 . S
C1297 C275 1.330 . S
C1337 C466 1.312 . S
C1329 C173 1.338 . S
C1361 C224 1.960 . S
C1369 C506 1.936 . S
C1401 C545 1.425 . S
C1393 C243 1.455 . S
C1433 C591 0.411 . S
C1425 C266 0.326 . S
C1465 C634 2.031 . S
C1457 C179 2.042 . S
C1497 C351 1.535 1_565 S
C1489 C163 1.516 . S
C1521 C289 1.953 . S
C1529 C674 1.957 . S
C1561 C715 2.580 . S
C1553 C333 2.634 . S
C1593 C746 0.590 1_655 S
C1585 C308 0.617 . S
C1617 C123 1.481 . S
C1625 C631 1.507 . S
C1649 C126 1.569 . S
C1657 C431 1.579 . S
C1681 C327 2.286 . S
C1689 C794 2.272 . S
C1721 C826 0.648 . S
C1713 C299 0.668 . S
C1753 C355 2.217 . S
C1745 C67 2.271 . S
C1785 C825 2.158 . S
C1777 C98 2.095 . S
C1809 C89 1.255 . S
C1817 C435 1.226 . S
C1841 C79 1.441 . S
C1849 C782 1.419 . S
C1881 C502 1.327 . S
C1873 C11 1.315 . S
C1905 C51 0.514 . S
C1913 C711 0.534 . S
C1945 C585 1.425 . S
C1937 C33 1.352 . S
C1977 C875 1.742 . S
C1969 C14 1.848 . S
C2009 C345 2.535 . S
C2001 C140 2.526 . S
C2041 C822 0.516 . S
C2033 C319 0.565 . S
C2065 C112 1.345 . S
C2073 C425 1.341 . S
C2097 C285 1.373 . S
C2105 C795 1.351 . S
C2129 C149 1.993 . S
C2137 C515 1.954 . S
C2169 C714 1.466 . S
C2161 C313 1.486 . S
C2193 C121 0.320 1_565 S
C2201 C582 0.435 . S
C2225 C291 2.072 . S
C2233 C865 2.064 . S
C2257 C182 1.548 . S
C2265 C342 1.522 . S
C2289 C168 1.941 . S
C2297 C665 1.976 . S
C2321 C263 2.671 . S
C2329 C546 2.614 . S
C2353 C247 0.669 . S
C2361 C755 0.680 . S
C2393 C862 1.484 . S
C2385 C277 1.476 . S
C2417 C219 1.625 . S
C2425 C422 1.590 . S
C2457 C465 2.321 . S
C2449 C257 2.337 . S
C2489 C395 0.630 . S
C2481 C201 0.665 . S
C2513 C81 2.244 . S
C2521 C906 2.213 . S
C2553 C834 2.134 . S
C2545 C93 2.126 . S
C2577 C103 1.232 . S
C2585 C946 1.202 . S
C2609 C56 1.401 . S
C2617 C791 1.383 . S
C2641 C53 1.308 . S
C2649 C671 1.331 . S
C2681 C702 0.521 . S
C2673 C0 0.487 . S
C2713 C754 1.353 . S
C2705 C19 1.280 . S
C2745 C866 1.777 . S
C2737 C37 1.828 . S
C2777 C914 2.557 . S
C2769 C261 2.564 . S
C2801 C193 0.595 . S
C2809 C831 0.523 . S
C2841 C954 1.319 . S
C2833 C205 1.318 . S
C2873 C786 1.329 . S
C2865 C215 1.352 . S
C2905 C666 1.933 . S
C2897 C252 1.937 . S
C2929 C187 1.451 . S
C2937 C705 1.423 . S
C2969 C751 0.343 . S
C2961 C196 0.398 . S
C2993 C221 2.034 . S
C3001 C874 2.036 . S
C3033 C911 1.510 . S
C3025 C317 1.568 . S
C3057 C135 1.955 . S
C3065 C514 1.952 . S
C3097 C555 2.583 . S
C3089 C151 2.627 . S
C3129 C586 0.591 . S
C3121 C154 0.559 . S
C3161 C871 1.510 . S
C3153 C305 1.488 . S
C3185 C280 1.559 . S
C3193 C951 1.592 . S
C3225 C474 2.279 . S
C3217 C145 2.284 . S
C3257 C386 0.672 . S
C3249 C117 0.643 . S
C3281 C95 2.269 . S
C3289 C915 2.209 . S
C3321 C385 2.161 . S
C3313 C70 2.120 . S
C3345 C61 1.250 . S
C3353 C955 1.216 . S
C3377 C107 1.437 . S
C3385 C462 1.431 . S
C3409 C39 1.335 . S
C3417 C662 1.318 . S
C3449 C551 0.523 . S
C3441 C23 0.486 . S
C3473 C5 1.414 . S
C3481 C745 1.419 . S
C3505 C42 1.839 . S
C3513 C635 1.765 . S
C3545 C905 2.540 . S
C3537 C322 2.533 . S
C3569 C165 0.447 . S
C3577 C382 0.577 . S
C3609 C945 1.345 . S
C3601 C294 1.352 . S
C3633 C131 1.367 . S
C3641 C475 1.343 . S
C3665 C331 2.000 . S
C3673 C675 1.957 . S
C3705 C554 1.455 . S
C3697 C159 1.468 . S
C3729 C303 0.366 . S
C3737 C742 0.393 . S
C3769 C625 2.066 . S
C3761 C137 2.074 . S
C3801 C902 1.497 . S
C3793 C238 1.572 . S
C3833 C505 1.976 1_665 S
C3825 C210 1.955 . S
C3857 C235 2.661 . S
C3865 C706 2.623 . S
C3897 C595 0.680 . S
C3889 C191 0.669 . S
C3921 C207 1.519 . S
C3929 C622 1.462 . S
C3953 C177 1.634 . S
C3961 C942 1.587 . S
C3993 C785 2.315 . S
C3985 C229 2.327 1_565 S
C4025 C835 0.625 . S
C4017 C271 0.664 . S
