# Generated by pormake.
# Topology nia, (6,6)-cn, num edge types: 1
# Building blocks:
#     Node 0, Type 0, BuildingBlock: VOLQOD_clean_sbu_1, # of connection points: 6
#     Node 1, Type 0, BuildingBlock: VOLQOD_clean_sbu_1, # of connection points: 6
#     Node 2, Type 1, BuildingBlock: MIDCAF_clean_sbu_0, # of connection points: 6
#     Node 3, Type 1, BuildingBlock: MIDCAF_clean_sbu_0, # of connection points: 6
#     Edge 4, Type (0, 1), BuildingBlock: ZUJKAS_clean_linker_0, # of connection points: 2
#     Edge 5, Type (0, 1), BuildingBlock: ZUJKAS_clean_linker_0, # of connection points: 2
#     Edge 6, Type (0, 1), BuildingBlock: ZUJKAS_clean_linker_0, # of connection points: 2
#     Edge 7, Type (0, 1), BuildingBlock: ZUJKAS_clean_linker_0, # of connection points: 2
#     Edge 8, Type (0, 1), BuildingBlock: ZUJKAS_clean_linker_0, # of connection points: 2
#     Edge 9, Type (0, 1), BuildingBlock: ZUJKAS_clean_linker_0, # of connection points: 2
#     Edge 10, Type (0, 1), BuildingBlock: ZUJKAS_clean_linker_0, # of connection points: 2
#     Edge 11, Type (0, 1), BuildingBlock: ZUJKAS_clean_linker_0, # of connection points: 2
#     Edge 12, Type (0, 1), BuildingBlock: ZUJKAS_clean_linker_0, # of connection points: 2
#     Edge 13, Type (0, 1), BuildingBlock: ZUJKAS_clean_linker_0, # of connection points: 2
#     Edge 14, Type (0, 1), BuildingBlock: ZUJKAS_clean_linker_0, # of connection points: 2
#     Edge 15, Type (0, 1), BuildingBlock: ZUJKAS_clean_linker_0, # of connection points: 2
# Relax obj value: 0.144
# Max RMSD: 0.235
# Mean RMSD: 0.189
data_MOF--net-nia--node1-VOLQOD_clean_sbu_1--node2-MIDCAF_clean_sbu_0--edge1-ZUJKAS_clean_linker_0
_symmetry_space_group_name_H-M    P1
_symmetry_Int_Tables_number       1
_symmetry_cell_setting            triclinic
loop_
_symmetry_equiv_pos_as_xyz
'x, y, z'
_cell_length_a     29.580417
_cell_length_b     29.43626
_cell_length_c     46.377895
_cell_angle_alpha  90.494722
_cell_angle_beta   89.896054
_cell_angle_gamma 120.74448
loop_
_atom_site_label
_atom_site_type_symbol
_atom_site_fract_x
_atom_site_fract_y
_atom_site_fract_z
_atom_type_partial_charge
O0 O 0.08384 0.05031 0.95365 0.0
Zn1 Zn 0.01214 0.0054 0.96877 0.0
O2 O 0.01057 0.01272 0.00987 0.0
Zn3 Zn 0.97825 0.94233 0.02685 0.0
Zn4 Zn 0.08363 0.05798 0.02362 0.0
Zn5 Zn 0.96766 0.04448 0.01845 0.0
O6 O 0.91102 0.92435 0.04759 0.0
O7 O 0.90035 0.99242 0.03881 0.0
O8 O 0.9883 0.93191 0.95664 0.0
O9 O 0.96083 0.88485 0.99666 0.0
O10 O 0.02855 0.94059 0.05531 0.0
O11 O 0.10384 0.01676 0.05005 0.0
O12 O 0.08758 0.1168 0.04808 0.0
O13 O 0.96915 0.02927 0.94836 0.0
O14 O 0.00787 0.10681 0.04533 0.0
O15 O 0.94721 0.06801 0.98222 0.0
C16 C 0.12944 0.08154 0.96369 0.0
C17 C 0.88432 0.94716 0.0498 0.0
C18 C 0.07687 0.97151 0.0617 0.0
C19 C 0.96857 0.88795 0.96952 0.0
C20 C 0.05476 0.1308 0.05519 0.0
C21 C 0.9484 0.0561 0.95585 0.0
O22 O 0.1373 0.08948 0.99078 0.0
O23 O 0.07011 0.11742 0.50725 0.0
Zn24 Zn 0.03355 0.05003 0.53122 0.0
O25 O -0.00175 0.98621 0.50736 0.0
Zn26 Zn 0.92186 0.95263 0.51232 0.0
Zn27 Zn 0.01697 0.00644 0.4678 0.0
Zn28 Zn 0.02146 0.93643 0.5167 0.0
O29 O 0.89436 0.88433 0.53423 0.0
O30 O 0.96218 0.87145 0.5348 0.0
O31 O 0.9808 0.05636 0.5557 0.0
O32 O 0.90321 -0.00167 0.53662 0.0
O33 O 0.88511 0.93722 0.4735 0.0
O34 O 0.95267 0.97821 0.44357 0.0
O35 O 0.05695 0.97566 0.45054 0.0
O36 O 0.08618 0.04631 0.55718 0.0
O37 O 0.04817 0.91494 0.48163 0.0
O38 O 0.07955 0.96923 0.54658 0.0
C39 C 0.0765 0.1237 0.48008 0.0
C40 C 0.91476 0.85684 0.54113 0.0
C41 C 0.90346 0.9509 0.44809 0.0
C42 C 0.93108 0.03587 0.55426 0.0
C43 C 0.0631 0.93741 0.45724 0.0
C44 C 0.10022 0.01237 0.56102 0.0
O45 O 0.05851 0.08432 0.46295 0.0
Zn46 Zn 0.32235 0.62434 0.18079 0.0
Zn47 Zn 0.34498 0.71467 0.31561 0.0
Zn48 Zn 0.3372 0.67315 0.26645 0.0
C49 C 0.44716 0.74546 0.30214 0.0
C50 C 0.28122 0.60268 0.32099 0.0
O51 O 0.2981 0.69367 0.23058 0.0
O52 O 0.28416 0.66589 0.1835 0.0
C53 C 0.41635 0.69618 0.22415 0.0
O54 O 0.42203 0.72049 0.27911 0.0
O55 O 0.42222 0.74917 0.32327 0.0
O56 O 0.29567 0.64533 0.3347 0.0
O57 O 0.29488 0.60413 0.2945 0.0
O58 O 0.37114 0.66234 0.21477 0.0
O59 O 0.41786 0.70811 0.25072 0.0
O60 O 0.29592 0.58655 0.26667 0.0
O61 O 0.32254 0.61272 0.22371 0.0
C62 C 0.29629 0.57426 0.24035 0.0
O63 O 0.2939 0.71433 0.26116 0.0
O64 O 0.31617 0.75897 0.30226 0.0
C65 C 0.28022 0.69213 0.20468 0.0
C66 C 0.29301 0.74848 0.27815 0.0
Zn67 Zn 0.63168 0.30321 0.82864 0.0
Zn68 Zn 0.70377 0.35458 0.67298 0.0
Zn69 Zn 0.66153 0.32501 0.75868 0.0
C70 C 0.7222 0.41934 0.72924 0.0
C71 C 0.59078 0.28667 0.69293 0.0
O72 O 0.69115 0.27827 0.77997 0.0
O73 O 0.67133 0.26488 0.82699 0.0
C74 C 0.69286 0.4146 0.81059 0.0
O75 O 0.70763 0.41084 0.75539 0.0
O76 O 0.71161 0.37855 0.71468 0.0
O77 O 0.62325 0.30824 0.67196 0.0
O78 O 0.60497 0.29344 0.72001 0.0
O79 O 0.67312 0.38216 0.83127 0.0
O80 O 0.69091 0.39926 0.78415 0.0
O81 O 0.57818 0.28655 0.7496 0.0
O82 O 0.58634 0.28747 0.79555 0.0
C83 C 0.5569 0.27724 0.77422 0.0
O84 O 0.70652 0.28656 0.75076 0.0
O85 O 0.71132 0.32825 0.71225 0.0
C86 C 0.69272 0.25903 0.80463 0.0
C87 C 0.72028 0.2953 0.72446 0.0
H88 H 0.182 0.01718 0.07499 0.0
H89 H 0.22268 0.98201 0.10695 0.0
H90 H 0.06936 0.85103 0.12825 0.0
H91 H 0.02839 0.8855 0.09658 0.0
H92 H 0.14696 0.89908 0.17686 0.0
H93 H 0.21701 0.84172 0.0792 0.0
H94 H 0.23384 0.90959 0.0824 0.0
H95 H 0.16642 0.85862 0.07737 0.0
C96 C 0.15691 0.98123 0.08674 0.0
C97 C 0.10196 0.95364 0.08283 0.0
C98 C 0.18023 0.96132 0.10502 0.0
C99 C 0.14895 0.91379 0.11975 0.0
C100 C 0.09411 0.8878 0.11708 0.0
H101 H 0.19005 0.66281 0.1752 0.0
H102 H 0.15829 0.72054 0.15859 0.0
C103 C 0.07083 0.90739 0.09875 0.0
C104 C 0.17286 0.88766 0.13546 0.0
H105 H 0.23176 0.81521 0.12393 0.0
C106 C 0.16618 0.88131 0.16544 0.0
C107 C 0.19723 0.86402 0.12034 0.0
C108 C 0.20395 0.86834 0.08803 0.0
C109 C 0.18255 0.85097 0.18061 0.0
C110 C 0.20591 0.82657 0.16531 0.0
C111 C 0.21368 0.83402 0.13551 0.0
C112 C 0.22064 0.791 0.17926 0.0
C113 C 0.17313 0.84348 0.21261 0.0
C114 C 0.26576 0.81155 0.19663 0.0
C115 C 0.28403 0.7787 0.20595 0.0
C116 C 0.25709 0.72488 0.19829 0.0
C117 C 0.21109 0.7041 0.18162 0.0
C118 C 0.19294 0.73692 0.17223 0.0
H119 H 0.14874 0.85971 0.22053 0.0
H120 H 0.15324 0.80084 0.218 0.0
H121 H 0.21143 0.86378 0.22416 0.0
H122 H 0.28814 0.85336 0.20182 0.0
H123 H 0.32048 0.79584 0.21806 0.0
H124 H 0.14139 0.95043 0.57592 0.0
H125 H 0.21498 0.97357 0.60883 0.0
H126 H 0.2267 0.12306 0.62742 0.0
H127 H 0.15338 0.10027 0.59513 0.0
H128 H 0.31287 0.05542 0.60011 0.0
H129 H 0.24778 0.082 0.70685 0.0
H130 H 0.20192 0.04555 0.67806 0.0
H131 H 0.2329 0.11649 0.68039 0.0
C132 C 0.15914 0.9879 0.58737 0.0
C133 C 0.14183 0.02379 0.58258 0.0
C134 C 0.201 0.00089 0.6063 0.0
C135 C 0.22594 0.04973 0.62096 0.0
C136 C 0.20732 0.08457 0.617 0.0
H137 H 0.53412 0.28959 0.64734 0.0
H138 H 0.44457 0.22216 0.63301 0.0
C139 C 0.1657 0.07173 0.59814 0.0
C140 C 0.27606 0.06848 0.63686 0.0
H141 H 0.3423 0.13984 0.69672 0.0
C142 C 0.31899 0.07258 0.62157 0.0
C143 C 0.28413 0.08994 0.6651 0.0
C144 C 0.23898 0.08267 0.68363 0.0
C145 C 0.37038 0.10234 0.6325 0.0
C146 C 0.37902 0.12915 0.65918 0.0
C147 C 0.3357 0.12047 0.67586 0.0
C148 C 0.43264 0.17009 0.66859 0.0
C149 C 0.41533 0.10697 0.61477 0.0
C150 C 0.45506 0.16367 0.69369 0.0
C151 C 0.50616 0.20223 0.70193 0.0
C152 C 0.53533 0.24818 0.68547 0.0
C153 C 0.51247 0.25475 0.66053 0.0
C154 C 0.46149 0.21617 0.65227 0.0
H155 H 0.40194 0.07267 0.59986 0.0
H156 H 0.43199 0.14329 0.60159 0.0
H157 H 0.44711 0.10981 0.62878 0.0
H158 H 0.43349 0.12835 0.70652 0.0
H159 H 0.52345 0.19523 0.72067 0.0
H160 H 0.1479 0.18453 0.08462 0.0
H161 H 0.1715 0.25026 0.12286 0.0
H162 H 0.02072 0.23853 0.11437 0.0
H163 H -0.00336 0.17273 0.07577 0.0
H164 H 0.10429 0.34161 0.11619 0.0
H165 H 0.11885 0.2278 0.20617 0.0
H166 H 0.15606 0.22842 0.17542 0.0
H167 H 0.08564 0.19714 0.17269 0.0
C168 C 0.11965 0.19584 0.09078 0.0
C169 C 0.07027 0.17316 0.07713 0.0
C170 C 0.133 0.23299 0.11292 0.0
C171 C 0.09731 0.24818 0.12195 0.0
C172 C 0.04848 0.22669 0.10798 0.0
H173 H 0.20346 0.4914 0.26152 0.0
H174 H 0.14501 0.40667 0.23652 0.0
C175 C 0.03495 0.1893 0.08584 0.0
C176 C 0.11295 0.28917 0.14471 0.0
H177 H 0.16787 0.32344 0.21195 0.0
C178 C 0.117 0.33722 0.13737 0.0
C179 C 0.12859 0.28308 0.17255 0.0
C180 C 0.12153 0.23108 0.1823 0.0
C181 C 0.1405 0.38078 0.15624 0.0
C182 C 0.16083 0.3762 0.18294 0.0
C183 C 0.1528 0.32696 0.19131 0.0
C184 C 0.19689 0.42382 0.20005 0.0
C185 C 0.14589 0.43229 0.14686 0.0
C186 C 0.24591 0.46003 0.18833 0.0
C187 C 0.27885 0.50778 0.20235 0.0
C188 C 0.26367 0.52029 0.22852 0.0
C189 C 0.21597 0.48266 0.24131 0.0
C190 C 0.18259 0.43453 0.22706 0.0
H191 H 0.11596 0.42581 0.13034 0.0
H192 H 0.14199 0.45398 0.1655 0.0
H193 H 0.18538 0.45756 0.13725 0.0
H194 H 0.25805 0.45196 0.1678 0.0
H195 H 0.31583 0.53562 0.19229 0.0
H196 H 0.83372 0.02537 0.54858 0.0
H197 H 0.79541 0.06542 0.57915 0.0
H198 H 0.93178 0.13119 0.63463 0.0
H199 H 0.97094 0.09301 0.6038 0.0
H200 H 0.76805 0.05685 0.63554 0.0
H201 H 0.92836 0.26159 0.61354 0.0
H202 H 0.92091 0.20539 0.59351 0.0
H203 H 0.95203 0.22157 0.62843 0.0
C204 C 0.85547 0.04832 0.56732 0.0
C205 C 0.90576 0.05677 0.5735 0.0
C206 C 0.8335 0.0711 0.58479 0.0
C207 C 0.86129 0.10236 0.6088 0.0
C208 C 0.91032 0.10861 0.61574 0.0
H209 H 0.72633 0.2099 0.74256 0.0
H210 H 0.76054 0.16201 0.71571 0.0
C211 C 0.93257 0.08656 0.59812 0.0
C212 C 0.83975 0.12954 0.62619 0.0
H213 H 0.86841 0.25122 0.65048 0.0
C214 C 0.78982 0.09938 0.63874 0.0
C215 C 0.8679 0.18513 0.63001 0.0
C216 C 0.92 0.22038 0.61542 0.0
C217 C 0.76743 0.12325 0.65519 0.0
C218 C 0.79647 0.17869 0.65982 0.0
C219 C 0.84631 0.20871 0.64717 0.0
C220 C 0.77546 0.20716 0.67658 0.0
C221 C 0.71244 0.08893 0.66672 0.0
C222 C 0.77412 0.24969 0.66401 0.0
C223 C 0.75654 0.27835 0.6797 0.0
C224 C 0.73947 0.26491 0.70828 0.0
C225 C 0.74032 0.22202 0.72083 0.0
C226 C 0.75885 0.19386 0.70526 0.0
H227 H 0.69036 0.05127 0.65435 0.0
H228 H 0.71472 0.07889 0.68947 0.0
H229 H 0.68994 0.10966 0.66601 0.0
H230 H 0.78682 0.26087 0.64195 0.0
H231 H 0.75644 0.31113 0.66936 0.0
H232 H 0.85589 0.87442 0.09242 0.0
H233 H 0.7749 0.83314 0.12054 0.0
H234 H 0.71792 0.91811 0.07181 0.0
H235 H 0.80031 0.9617 0.04457 0.0
H236 H 0.69688 0.92035 0.12575 0.0
H237 H 0.63474 0.71333 0.09852 0.0
H238 H 0.69866 0.74657 0.11485 0.0
H239 H 0.6887 0.76845 0.08051 0.0
C240 C 0.82596 0.88405 0.08756 0.0
C241 C 0.83434 0.92103 0.06614 0.0
C242 C 0.77943 0.8601 0.10353 0.0
C243 C 0.73951 0.87133 0.09786 0.0
C244 C 0.74791 0.90848 0.07652 0.0
H245 H 0.42449 0.67216 0.1682 0.0
H246 H 0.50079 0.71732 0.1365 0.0
C247 C 0.79498 0.93333 0.06092 0.0
C248 C 0.68982 0.84567 0.1148 0.0
H249 H 0.59129 0.72615 0.13856 0.0
C250 C 0.6735 0.87781 0.12829 0.0
C251 C 0.65857 0.79008 0.11776 0.0
C252 C 0.67076 0.75264 0.10186 0.0
C253 C 0.62764 0.85612 0.1451 0.0
C254 C 0.59827 0.80077 0.14954 0.0
C255 C 0.61401 0.7686 0.13554 0.0
C256 C 0.55119 0.77512 0.16854 0.0
C257 C 0.61084 0.89289 0.15735 0.0
C258 C 0.55379 0.79238 0.19714 0.0
C259 C 0.5097 0.76745 0.21501 0.0
C260 C 0.46274 0.72334 0.20509 0.0
C261 C 0.46022 0.70582 0.17655 0.0
C262 C 0.50391 0.73156 0.15844 0.0
H263 H 0.62553 0.92888 0.14398 0.0
H264 H 0.56737 0.87326 0.15881 0.0
H265 H 0.62781 0.90593 0.17927 0.0
H266 H 0.58998 0.82496 0.20579 0.0
H267 H 0.51238 0.78307 0.23651 0.0
H268 H 0.93124 0.77455 0.54783 0.0
H269 H 0.89224 0.70511 0.58396 0.0
H270 H 0.79554 0.76636 0.61422 0.0
H271 H 0.83317 0.83498 0.57739 0.0
H272 H 0.90153 0.72285 0.64143 0.0
H273 H 0.68965 0.60984 0.61099 0.0
H274 H 0.73977 0.65621 0.58694 0.0
H275 H 0.71695 0.6796 0.61622 0.0
C276 C 0.90085 0.77256 0.56176 0.0
C277 C 0.88528 0.81022 0.55977 0.0
C278 C 0.87873 0.73299 0.58248 0.0
C279 C 0.84092 0.73046 0.60178 0.0
C280 C 0.82392 0.7669 0.59924 0.0
H281 H 0.71453 0.50461 0.74708 0.0
H282 H 0.74437 0.58739 0.72051 0.0
C283 C 0.84553 0.80615 0.57818 0.0
C284 C 0.82248 0.6918 0.62562 0.0
H285 H 0.71443 0.58283 0.65285 0.0
C286 C 0.86053 0.69255 0.64406 0.0
C287 C 0.76888 0.65263 0.62926 0.0
C288 C 0.7264 0.64903 0.60971 0.0
C289 C 0.84677 0.65383 0.66514 0.0
C290 C 0.79364 0.61355 0.66795 0.0
C291 C 0.75512 0.61421 0.65066 0.0
C292 C 0.77863 0.56625 0.68545 0.0
C293 C 0.88925 0.6549 0.68359 0.0
C294 C 0.78861 0.52772 0.67456 0.0
C295 C 0.77134 0.48071 0.68936 0.0
C296 C 0.74399 0.47141 0.71546 0.0
C297 C 0.73559 0.51087 0.72699 0.0
C298 C 0.7524 0.55793 0.71186 0.0
H299 H 0.92647 0.69375 0.68275 0.0
H300 H 0.87614 0.646 0.70636 0.0
H301 H 0.89735 0.62399 0.6758 0.0
H302 H 0.80876 0.53356 0.65417 0.0
H303 H 0.77883 0.45125 0.68014 0.0
H304 H 0.06178 0.84317 0.45626 0.0
H305 H 0.09122 0.80828 0.41685 0.0
H306 H 0.14175 0.95101 0.36873 0.0
H307 H 0.11227 0.98583 0.40751 0.0
H308 H 0.08228 0.8582 0.33577 0.0
H309 H 0.24499 0.85866 0.39605 0.0
H310 H 0.18141 0.82289 0.41274 0.0
H311 H 0.21318 0.89334 0.40895 0.0
C312 C 0.07971 0.86731 0.43742 0.0
C313 C 0.08477 0.91731 0.43508 0.0
C314 C 0.09635 0.84729 0.41492 0.0
C315 C 0.1187 0.87719 0.38994 0.0
C316 C 0.12431 0.92722 0.38775 0.0
H317 H 0.32335 0.85183 0.27517 0.0
H318 H 0.26967 0.8867 0.29362 0.0
C319 C 0.10765 0.94712 0.41006 0.0
C320 C 0.13698 0.8571 0.366 0.0
H321 H 0.22916 0.82489 0.34868 0.0
C322 C 0.11414 0.85047 0.33855 0.0
C323 C 0.17904 0.84796 0.3697 0.0
C324 C 0.2065 0.85643 0.39835 0.0
C325 C 0.13244 0.83484 0.31464 0.0
C326 C 0.17467 0.82608 0.31839 0.0
C327 C 0.19693 0.83209 0.34589 0.0
C328 C 0.19771 0.81067 0.29464 0.0
C329 C 0.10845 0.83026 0.28539 0.0
C330 C 0.1738 0.75724 0.28646 0.0
C331 C 0.20446 0.73737 0.27536 0.0
C332 C 0.25917 0.77075 0.27302 0.0
C333 C 0.2812 0.82543 0.27681 0.0
C334 C 0.25052 0.84535 0.28742 0.0
H335 H 0.07287 0.83386 0.28651 0.0
H336 H 0.138 0.86223 0.27154 0.0
H337 H 0.0978 0.79191 0.27505 0.0
H338 H 0.13318 0.72978 0.29205 0.0
H339 H 0.18674 0.69501 0.27275 0.0
H340 H 0.11999 0.09527 0.90692 0.0
H341 H 0.18827 0.13096 0.87045 0.0
H342 H 0.30564 0.16498 0.93555 0.0
H343 H 0.23661 0.12827 0.9727 0.0
H344 H 0.27726 0.23075 0.86541 0.0
H345 H 0.32657 0.07279 0.87487 0.0
H346 H 0.26796 0.06715 0.89048 0.0
H347 H 0.33054 0.10711 0.9079 0.0
C348 C 0.16029 0.11032 0.91366 0.0
C349 C 0.17281 0.10826 0.94271 0.0
C350 C 0.19928 0.13088 0.89272 0.0
C351 C 0.25174 0.1497 0.90023 0.0
C352 C 0.26506 0.14967 0.92932 0.0
H353 H 0.53025 0.33659 0.8048 0.0
H354 H 0.44927 0.3045 0.83173 0.0
C355 C 0.22578 0.12915 0.95051 0.0
C356 C 0.29181 0.16873 0.87721 0.0
H357 H 0.37878 0.1431 0.8432 0.0
C358 C 0.29945 0.21159 0.86048 0.0
C359 C 0.3195 0.14267 0.87038 0.0
C360 C 0.31057 0.09456 0.88662 0.0
C361 C 0.3352 0.23008 0.83752 0.0
C362 C 0.36466 0.20551 0.83145 0.0
C363 C 0.35598 0.16175 0.84775 0.0
C364 C 0.40868 0.22785 0.8106 0.0
C365 C 0.34084 0.27565 0.81999 0.0
C366 C 0.4128 0.1958 0.78929 0.0
C367 C 0.45988 0.21404 0.77404 0.0
C368 C 0.50292 0.2646 0.77987 0.0
C369 C 0.49702 0.29792 0.79941 0.0
C370 C 0.45068 0.27956 0.81487 0.0
H371 H 0.3039 0.27685 0.82016 0.0
H372 H 0.37225 0.31334 0.82959 0.0
H373 H 0.35143 0.27323 0.79728 0.0
H374 H 0.38094 0.15552 0.78589 0.0
H375 H 0.46409 0.18696 0.75997 0.0
H376 H 0.08379 0.21401 0.50262 0.0
H377 H 0.11315 0.29747 0.47711 0.0
H378 H 0.15528 0.23664 0.40344 0.0
H379 H 0.12561 0.15354 0.4284 0.0
H380 H 0.21033 0.37106 0.45132 0.0
H381 H 0.05128 0.27548 0.36974 0.0
H382 H 0.0505 0.24375 0.40304 0.0
H383 H 0.0892 0.24383 0.37305 0.0
C384 C 0.10007 0.21886 0.48116 0.0
C385 C 0.10178 0.17704 0.46734 0.0
C386 C 0.11649 0.26632 0.46657 0.0
C387 C 0.13488 0.27249 0.43809 0.0
C388 C 0.13971 0.23205 0.42507 0.0
H389 H 0.26797 0.50617 0.30591 0.0
H390 H 0.22673 0.42559 0.33484 0.0
C391 C 0.12306 0.18473 0.43945 0.0
C392 C 0.14877 0.32075 0.42158 0.0
H393 H 0.12221 0.36234 0.3587 0.0
C394 C 0.19068 0.3694 0.43128 0.0
C395 C 0.12282 0.31832 0.39548 0.0
C396 C 0.0756 0.26763 0.38482 0.0
C397 C 0.20901 0.41537 0.41486 0.0
C398 C 0.18418 0.41254 0.38828 0.0
C399 C 0.1413 0.36421 0.37899 0.0
C400 C 0.20359 0.45917 0.36945 0.0
C401 C 0.2561 0.46618 0.42551 0.0
C402 C 0.2024 0.5039 0.37888 0.0
C403 C 0.22601 0.5499 0.36251 0.0
C404 C 0.25082 0.55186 0.33625 0.0
C405 C 0.24922 0.50596 0.32602 0.0
C406 C 0.22577 0.45995 0.34254 0.0
H407 H 0.27724 0.45924 0.44311 0.0
H408 H 0.28413 0.48686 0.40766 0.0
H409 H 0.2428 0.49278 0.43399 0.0
H410 H 0.18445 0.50366 0.3993 0.0
H411 H 0.22586 0.58436 0.37077 0.0
H412 H 0.9503 0.0421 0.89769 0.0
H413 H 0.9205 0.07744 0.85963 0.0
H414 H 0.87036 0.14936 0.92369 0.0
H415 H 0.90067 0.11474 0.96208 0.0
H416 H 0.82067 0.05894 0.84947 0.0
H417 H 0.95954 0.27164 0.86884 0.0
H418 H 0.96962 0.22082 0.88353 0.0
H419 H 0.92699 0.23895 0.90148 0.0
C420 C 0.93302 0.06551 0.90379 0.0
C421 C 0.92808 0.0758 0.933 0.0
C422 C 0.91619 0.08578 0.88194 0.0
C423 C 0.89435 0.11691 0.88885 0.0
C424 C 0.88845 0.12653 0.91794 0.0
H425 H 0.66596 0.17201 0.83623 0.0
H426 H 0.72052 0.13393 0.84672 0.0
C427 C 0.90532 0.10632 0.93985 0.0
C428 C 0.87489 0.13715 0.8659 0.0
H429 H 0.87706 0.24906 0.84544 0.0
C430 C 0.83374 0.10065 0.84807 0.0
C431 C 0.89323 0.19167 0.86332 0.0
C432 C 0.94021 0.23305 0.8801 0.0
C433 C 0.80671 0.11682 0.83 0.0
C434 C 0.82083 0.17051 0.83026 0.0
C435 C 0.86564 0.20768 0.84564 0.0
C436 C 0.78499 0.18753 0.81928 0.0
C437 C 0.76176 0.07597 0.81184 0.0
C438 C 0.80317 0.23041 0.80043 0.0
C439 C 0.77209 0.25246 0.79461 0.0
C440 C 0.7226 0.23198 0.80765 0.0
C441 C 0.70386 0.18816 0.82578 0.0
C442 C 0.73473 0.16602 0.83148 0.0
H443 H 0.76847 0.04342 0.80544 0.0
H444 H 0.72497 0.05843 0.82464 0.0
H445 H 0.75619 0.09369 0.79211 0.0
H446 H 0.84217 0.24808 0.79119 0.0
H447 H 0.78768 0.28687 0.78094 0.0
H448 H 0.93016 0.96337 0.39099 0.0
H449 H 0.87106 0.92989 0.3493 0.0
H450 H 0.73723 0.86409 0.40617 0.0
H451 H 0.79574 0.89683 0.44803 0.0
H452 H 0.73961 0.79359 0.35975 0.0
H453 H 0.77368 0.98756 0.32119 0.0
H454 H 0.82827 0.97891 0.32971 0.0
H455 H 0.78784 0.98027 0.35814 0.0
C456 C 0.88811 0.94199 0.39468 0.0
C457 C 0.8676 0.93277 0.42291 0.0
C458 C 0.85453 0.9229 0.37078 0.0
C459 C 0.79999 0.89457 0.37475 0.0
C460 C 0.7794 0.8857 0.40279 0.0
H461 H 0.5148 0.82624 0.33721 0.0
H462 H 0.60898 0.86243 0.34306 0.0
C463 C 0.81283 0.90458 0.42667 0.0
C464 C 0.76313 0.87398 0.35012 0.0
H465 H 0.69552 0.91121 0.30647 0.0
C466 C 0.73064 0.81903 0.34727 0.0
C467 C 0.75266 0.9076 0.33357 0.0
C468 C 0.78729 0.96694 0.33559 0.0
C469 C 0.68384 0.79676 0.33124 0.0
C470 C 0.66985 0.83071 0.31757 0.0
C471 C 0.7061 0.8854 0.31726 0.0
C472 C 0.6142 0.81222 0.31043 0.0
C473 C 0.64716 0.73759 0.33179 0.0
C474 C 0.58573 0.77217 0.28995 0.0
C475 C 0.53134 0.75047 0.28707 0.0
C476 C 0.5049 0.76947 0.30407 0.0
C477 C 0.53394 0.81072 0.32381 0.0
C478 C 0.58794 0.83185 0.32693 0.0
H479 H 0.66259 0.71748 0.34529 0.0
H480 H 0.60812 0.72784 0.34028 0.0
H481 H 0.64148 0.72134 0.30955 0.0
H482 H 0.60519 0.7567 0.2768 0.0
H483 H 0.50986 0.7181 0.27199 0.0
H484 H 0.89996 0.78429 0.98365 0.0
H485 H 0.8645 0.70752 0.95106 0.0
H486 H 0.96487 0.80681 0.88292 0.0
H487 H 0.0002 0.88344 0.91507 0.0
H488 H 0.85771 0.74881 0.86839 0.0
H489 H 0.92531 0.6209 0.91538 0.0
H490 H 0.89508 0.64309 0.94108 0.0
H491 H 0.95571 0.69041 0.92416 0.0
C492 C 0.91526 0.78951 0.96193 0.0
C493 C 0.95238 0.83999 0.95183 0.0
C494 C 0.89513 0.74564 0.94337 0.0
C495 C 0.91227 0.75163 0.91464 0.0
C496 C 0.95116 0.80146 0.905 0.0
H497 H 0.78504 0.49194 0.78724 0.0
H498 H 0.84257 0.5809 0.80744 0.0
C499 C 0.97115 0.84519 0.92342 0.0
C500 C 0.88578 0.70723 0.89387 0.0
H501 H 0.8537 0.57977 0.88164 0.0
C502 C 0.85752 0.71213 0.87097 0.0
C503 C 0.88602 0.65971 0.89721 0.0
C504 C 0.91757 0.65322 0.92062 0.0
C505 C 0.82711 0.66954 0.85224 0.0
C506 C 0.82524 0.62131 0.85657 0.0
C507 C 0.85541 0.61711 0.87853 0.0
C508 C 0.78783 0.57291 0.84078 0.0
C509 C 0.79551 0.67532 0.82862 0.0
C510 C 0.73774 0.54025 0.85241 0.0
C511 C 0.70521 0.48966 0.84116 0.0
C512 C 0.72222 0.47123 0.81797 0.0
C513 C 0.77087 0.50545 0.80496 0.0
C514 C 0.80379 0.55603 0.81651 0.0
H515 H 0.80507 0.71685 0.8263 0.0
H516 H 0.80284 0.66142 0.80776 0.0
H517 H 0.75294 0.65011 0.83346 0.0
H518 H 0.72502 0.55287 0.8712 0.0
H519 H 0.66774 0.46401 0.85144 0.0
loop_
_geom_bond_atom_site_label_1
_geom_bond_atom_site_label_2
_geom_bond_distance
_geom_bond_site_symmetry_2
_ccdc_geom_bond_type
O0 Zn1 1.953 1_545 S
O0 C16 1.225 . S
Zn1 O0 1.953 1_565 S
Zn1 O2 1.949 1_566 S
Zn1 O8 1.919 1_455 S
Zn1 O13 1.924 1_465 S
O2 Zn1 1.949 1_544 S
O2 Zn3 1.923 1_445 S
O2 Zn4 1.950 . S
O2 Zn5 1.945 1_455 S
Zn3 O2 1.923 1_665 S
Zn3 O6 1.933 . S
Zn3 O9 1.941 1_554 S
Zn3 O10 1.965 1_655 S
Zn4 O2 1.950 . S
Zn4 O11 1.938 . S
Zn4 O12 1.906 . S
Zn4 O22 1.953 1_554 S
Zn5 O2 1.945 1_655 S
Zn5 O7 1.932 1_545 S
Zn5 O14 1.977 1_655 S
Zn5 O15 1.910 1_554 S
O6 Zn3 1.933 . S
O6 C17 1.226 . S
O7 Zn5 1.932 1_565 S
O7 C17 1.307 . S
O8 Zn1 1.919 1_655 S
O8 C19 1.253 . S
O9 Zn3 1.941 1_556 S
O9 C19 1.283 . S
O10 Zn3 1.965 1_455 S
O10 C18 1.303 . S
O11 Zn4 1.938 . S
O11 C18 1.247 1_545 S
O12 Zn4 1.906 . S
O12 C20 1.304 . S
O13 Zn1 1.924 1_645 S
O13 C21 1.311 . S
O14 Zn5 1.977 1_455 S
O14 C20 1.272 . S
O15 Zn5 1.910 1_556 S
O15 C21 1.231 . S
C16 O0 1.225 . S
C16 O22 1.298 . S
C17 O6 1.226 . S
C17 O7 1.307 . S
C18 O10 1.303 . S
C18 O11 1.247 1_565 S
C19 O8 1.253 . S
C19 O9 1.283 . S
C20 O12 1.304 . S
C20 O14 1.272 . S
C21 O13 1.311 . S
C21 O15 1.231 . S
O22 Zn4 1.953 1_556 S
O22 C16 1.298 . S
O23 Zn24 1.953 . S
O23 C39 1.225 . S
Zn24 O23 1.953 . S
Zn24 O25 1.970 . S
Zn24 O31 1.919 1_455 S
Zn24 O36 1.924 . S
O25 Zn24 1.970 . S
O25 Zn26 1.920 1_445 S
O25 Zn27 1.949 . S
O25 Zn28 1.927 1_545 S
Zn26 O25 1.920 1_665 S
Zn26 O29 1.933 . S
Zn26 O32 1.941 . S
Zn26 O33 1.965 . S
Zn27 O25 1.949 . S
Zn27 O34 1.938 1_445 S
Zn27 O35 1.906 1_545 S
Zn27 O45 1.953 . S
Zn28 O25 1.927 1_565 S
Zn28 O30 1.932 . S
Zn28 O37 1.977 . S
Zn28 O38 1.910 1_565 S
O29 Zn26 1.933 . S
O29 C40 1.226 . S
O30 Zn28 1.932 . S
O30 C40 1.309 1_455 S
O31 Zn24 1.919 1_655 S
O31 C42 1.253 . S
O32 Zn26 1.941 . S
O32 C42 1.283 1_565 S
O33 Zn26 1.965 . S
O33 C41 1.303 . S
O34 Zn27 1.938 1_665 S
O34 C41 1.247 . S
O35 Zn27 1.906 1_565 S
O35 C43 1.304 . S
O36 Zn24 1.924 . S
O36 C44 1.311 . S
O37 Zn28 1.977 . S
O37 C43 1.272 . S
O38 Zn28 1.910 1_545 S
O38 C44 1.231 . S
C39 O23 1.225 . S
C39 O45 1.298 . S
C40 O29 1.226 . S
C40 O30 1.309 1_655 S
C41 O33 1.303 . S
C41 O34 1.247 . S
C42 O31 1.253 . S
C42 O32 1.283 1_545 S
C43 O35 1.304 . S
C43 O37 1.272 . S
C44 O36 1.311 . S
C44 O38 1.231 . S
O45 Zn27 1.953 . S
O45 C39 1.298 . S
Zn46 O52 1.920 . S
Zn46 O58 1.898 . S
Zn46 O61 1.905 . S
Zn47 O55 1.905 . S
Zn47 O56 1.898 . S
Zn47 O64 1.920 . S
Zn48 O51 2.080 . S
Zn48 O54 2.114 . S
Zn48 O57 2.120 . S
Zn48 O59 2.120 . S
Zn48 O60 2.114 . S
Zn48 O63 2.080 . S
C49 O54 1.166 . S
C49 O55 1.182 . S
C50 O56 1.167 . S
C50 O57 1.299 . S
O51 Zn48 2.080 . S
O51 C65 1.305 . S
O52 Zn46 1.920 . S
O52 C65 1.234 . S
C53 O58 1.167 . S
C53 O59 1.299 . S
O54 Zn48 2.114 . S
O54 C49 1.166 . S
O55 Zn47 1.905 . S
O55 C49 1.182 . S
O56 Zn47 1.898 . S
O56 C50 1.167 . S
O57 Zn48 2.120 . S
O57 C50 1.299 . S
O58 Zn46 1.898 . S
O58 C53 1.167 . S
O59 Zn48 2.120 . S
O59 C53 1.299 . S
O60 Zn48 2.114 . S
O60 C62 1.166 . S
O61 Zn46 1.905 . S
O61 C62 1.182 . S
C62 O60 1.166 . S
C62 O61 1.182 . S
O63 Zn48 2.080 . S
O63 C66 1.305 . S
O64 Zn47 1.920 . S
O64 C66 1.234 . S
C65 O51 1.305 . S
C65 O52 1.234 . S
C66 O63 1.305 . S
C66 O64 1.234 . S
Zn67 O73 1.920 . S
Zn67 O79 1.898 . S
Zn67 O82 1.905 . S
Zn68 O76 1.905 . S
Zn68 O77 1.898 . S
Zn68 O85 1.920 . S
Zn69 O72 2.080 . S
Zn69 O75 2.114 . S
Zn69 O78 2.120 . S
Zn69 O80 2.120 . S
Zn69 O81 2.114 . S
Zn69 O84 2.080 . S
C70 O75 1.166 . S
C70 O76 1.182 . S
C71 O77 1.167 . S
C71 O78 1.299 . S
O72 Zn69 2.080 . S
O72 C86 1.305 . S
O73 Zn67 1.920 . S
O73 C86 1.234 . S
C74 O79 1.167 . S
C74 O80 1.299 . S
O75 Zn69 2.114 . S
O75 C70 1.166 . S
O76 Zn68 1.905 . S
O76 C70 1.182 . S
O77 Zn68 1.898 . S
O77 C71 1.167 . S
O78 Zn69 2.120 . S
O78 C71 1.299 . S
O79 Zn67 1.898 . S
O79 C74 1.167 . S
O80 Zn69 2.120 . S
O80 C74 1.299 . S
O81 Zn69 2.114 . S
O81 C83 1.166 . S
O82 Zn67 1.905 . S
O82 C83 1.182 . S
C83 O81 1.166 . S
C83 O82 1.182 . S
O84 Zn69 2.080 . S
O84 C87 1.305 . S
O85 Zn68 1.920 . S
O85 C87 1.234 . S
C86 O72 1.305 . S
C86 O73 1.234 . S
C87 O84 1.305 . S
C87 O85 1.234 . S
H88 C96 0.929 . S
H89 C98 0.930 . S
H90 C100 0.930 . S
H91 C103 0.929 . S
H92 C106 0.930 . S
H93 C108 0.960 . S
H94 C108 0.960 . S
H95 C108 0.960 . S
C96 H88 0.929 . S
C96 C97 1.377 . S
C96 C98 1.384 . S
C97 C96 1.377 . S
C97 C103 1.390 . S
C98 H89 0.930 . S
C98 C96 1.384 . S
C98 C99 1.372 . S
C99 C98 1.372 . S
C99 C100 1.400 . S
C99 C104 1.490 . S
C100 H90 0.930 . S
C100 C99 1.400 . S
C100 C103 1.386 . S
H101 C117 0.930 . S
H102 C118 0.931 . S
C103 H91 0.929 . S
C103 C97 1.390 . S
C103 C100 1.386 . S
C104 C99 1.490 . S
C104 C106 1.395 . S
C104 C107 1.403 . S
H105 C111 0.930 . S
C106 H92 0.930 . S
C106 C104 1.395 . S
C106 C109 1.403 . S
C107 C104 1.403 . S
C107 C108 1.524 . S
C107 C111 1.400 . S
C108 H93 0.960 . S
C108 H94 0.960 . S
C108 H95 0.960 . S
C108 C107 1.524 . S
C109 C106 1.403 . S
C109 C110 1.392 . S
C109 C113 1.495 . S
C110 C109 1.392 . S
C110 C111 1.385 . S
C110 C112 1.478 . S
C111 H105 0.930 . S
C111 C107 1.400 . S
C111 C110 1.385 . S
C112 C110 1.478 . S
C112 C114 1.381 . S
C112 C118 1.383 . S
C113 C109 1.495 . S
C113 H119 0.959 . S
C113 H120 0.961 . S
C113 H121 0.960 . S
C114 C112 1.381 . S
C114 C115 1.394 . S
C114 H122 0.930 . S
C115 C114 1.394 . S
C115 C116 1.383 . S
C115 H123 0.929 . S
C116 C115 1.383 . S
C116 C117 1.377 . S
C117 H101 0.930 . S
C117 C116 1.377 . S
C117 C118 1.379 . S
C118 H102 0.931 . S
C118 C112 1.383 . S
C118 C117 1.379 . S
H119 C113 0.959 . S
H120 C113 0.961 . S
H121 C113 0.960 . S
H122 C114 0.930 . S
H123 C115 0.929 . S
H124 C132 0.929 . S
H125 C134 0.930 . S
H126 C136 0.930 . S
H127 C139 0.929 . S
H128 C142 0.930 . S
H129 C144 0.960 . S
H130 C144 0.960 . S
H131 C144 0.960 . S
C132 H124 0.929 . S
C132 C133 1.377 . S
C132 C134 1.384 . S
C133 C132 1.377 . S
C133 C139 1.390 . S
C134 H125 0.930 . S
C134 C132 1.384 . S
C134 C135 1.372 . S
C135 C134 1.372 . S
C135 C136 1.400 . S
C135 C140 1.490 . S
C136 H126 0.930 . S
C136 C135 1.400 . S
C136 C139 1.386 . S
H137 C153 0.930 . S
H138 C154 0.931 . S
C139 H127 0.929 . S
C139 C133 1.390 . S
C139 C136 1.386 . S
C140 C135 1.490 . S
C140 C142 1.395 . S
C140 C143 1.403 . S
H141 C147 0.930 . S
C142 H128 0.930 . S
C142 C140 1.395 . S
C142 C145 1.403 . S
C143 C140 1.403 . S
C143 C144 1.524 . S
C143 C147 1.400 . S
C144 H129 0.960 . S
C144 H130 0.960 . S
C144 H131 0.960 . S
C144 C143 1.524 . S
C145 C142 1.403 . S
C145 C146 1.392 . S
C145 C149 1.495 . S
C146 C145 1.392 . S
C146 C147 1.385 . S
C146 C148 1.478 . S
C147 H141 0.930 . S
C147 C143 1.400 . S
C147 C146 1.385 . S
C148 C146 1.478 . S
C148 C150 1.381 . S
C148 C154 1.383 . S
C149 C145 1.495 . S
C149 H155 0.959 . S
C149 H156 0.961 . S
C149 H157 0.960 . S
C150 C148 1.381 . S
C150 C151 1.394 . S
C150 H158 0.930 . S
C151 C150 1.394 . S
C151 C152 1.383 . S
C151 H159 0.929 . S
C152 C151 1.383 . S
C152 C153 1.377 . S
C153 H137 0.930 . S
C153 C152 1.377 . S
C153 C154 1.379 . S
C154 H138 0.931 . S
C154 C148 1.383 . S
C154 C153 1.379 . S
H155 C149 0.959 . S
H156 C149 0.961 . S
H157 C149 0.960 . S
H158 C150 0.930 . S
H159 C151 0.929 . S
H160 C168 0.929 . S
H161 C170 0.930 . S
H162 C172 0.930 . S
H163 C175 0.929 . S
H164 C178 0.930 . S
H165 C180 0.960 . S
H166 C180 0.960 . S
H167 C180 0.960 . S
C168 H160 0.929 . S
C168 C169 1.377 . S
C168 C170 1.384 . S
C169 C168 1.377 . S
C169 C175 1.390 . S
C170 H161 0.930 . S
C170 C168 1.384 . S
C170 C171 1.372 . S
C171 C170 1.372 . S
C171 C172 1.400 . S
C171 C176 1.490 . S
C172 H162 0.930 . S
C172 C171 1.400 . S
C172 C175 1.386 . S
H173 C189 0.930 . S
H174 C190 0.931 . S
C175 H163 0.929 . S
C175 C169 1.390 . S
C175 C172 1.386 . S
C176 C171 1.490 . S
C176 C178 1.395 . S
C176 C179 1.403 . S
H177 C183 0.930 . S
C178 H164 0.930 . S
C178 C176 1.395 . S
C178 C181 1.403 . S
C179 C176 1.403 . S
C179 C180 1.524 . S
C179 C183 1.400 . S
C180 H165 0.960 . S
C180 H166 0.960 . S
C180 H167 0.960 . S
C180 C179 1.524 . S
C181 C178 1.403 . S
C181 C182 1.392 . S
C181 C185 1.495 . S
C182 C181 1.392 . S
C182 C183 1.385 . S
C182 C184 1.478 . S
C183 H177 0.930 . S
C183 C179 1.400 . S
C183 C182 1.385 . S
C184 C182 1.478 . S
C184 C186 1.381 . S
C184 C190 1.383 . S
C185 C181 1.495 . S
C185 H191 0.959 . S
C185 H192 0.961 . S
C185 H193 0.960 . S
C186 C184 1.381 . S
C186 C187 1.394 . S
C186 H194 0.930 . S
C187 C186 1.394 . S
C187 C188 1.383 . S
C187 H195 0.929 . S
C188 C187 1.383 . S
C188 C189 1.377 . S
C189 H173 0.930 . S
C189 C188 1.377 . S
C189 C190 1.379 . S
C190 H174 0.931 . S
C190 C184 1.383 . S
C190 C189 1.379 . S
H191 C185 0.959 . S
H192 C185 0.961 . S
H193 C185 0.960 . S
H194 C186 0.930 . S
H195 C187 0.929 . S
H196 C204 0.929 . S
H197 C206 0.930 . S
H198 C208 0.930 . S
H199 C211 0.929 . S
H200 C214 0.930 . S
H201 C216 0.960 . S
H202 C216 0.960 . S
H203 C216 0.960 . S
C204 H196 0.929 . S
C204 C205 1.377 . S
C204 C206 1.384 . S
C205 C204 1.377 . S
C205 C211 1.390 . S
C206 H197 0.930 . S
C206 C204 1.384 . S
C206 C207 1.372 . S
C207 C206 1.372 . S
C207 C208 1.400 . S
C207 C212 1.490 . S
C208 H198 0.930 . S
C208 C207 1.400 . S
C208 C211 1.386 . S
H209 C225 0.930 . S
H210 C226 0.931 . S
C211 H199 0.929 . S
C211 C205 1.390 . S
C211 C208 1.386 . S
C212 C207 1.490 . S
C212 C214 1.395 . S
C212 C215 1.403 . S
H213 C219 0.930 . S
C214 H200 0.930 . S
C214 C212 1.395 . S
C214 C217 1.403 . S
C215 C212 1.403 . S
C215 C216 1.524 . S
C215 C219 1.400 . S
C216 H201 0.960 . S
C216 H202 0.960 . S
C216 H203 0.960 . S
C216 C215 1.524 . S
C217 C214 1.403 . S
C217 C218 1.392 . S
C217 C221 1.495 . S
C218 C217 1.392 . S
C218 C219 1.385 . S
C218 C220 1.478 . S
C219 H213 0.930 . S
C219 C215 1.400 . S
C219 C218 1.385 . S
C220 C218 1.478 . S
C220 C222 1.381 . S
C220 C226 1.383 . S
C221 C217 1.495 . S
C221 H227 0.959 . S
C221 H228 0.961 . S
C221 H229 0.960 . S
C222 C220 1.381 . S
C222 C223 1.394 . S
C222 H230 0.930 . S
C223 C222 1.394 . S
C223 C224 1.383 . S
C223 H231 0.929 . S
C224 C223 1.383 . S
C224 C225 1.377 . S
C225 H209 0.930 . S
C225 C224 1.377 . S
C225 C226 1.379 . S
C226 H210 0.931 . S
C226 C220 1.383 . S
C226 C225 1.379 . S
H227 C221 0.959 . S
H228 C221 0.961 . S
H229 C221 0.960 . S
H230 C222 0.930 . S
H231 C223 0.929 . S
H232 C240 0.929 . S
H233 C242 0.930 . S
H234 C244 0.930 . S
H235 C247 0.929 . S
H236 C250 0.930 . S
H237 C252 0.960 . S
H238 C252 0.960 . S
H239 C252 0.960 . S
C240 H232 0.929 . S
C240 C241 1.377 . S
C240 C242 1.384 . S
C241 C240 1.377 . S
C241 C247 1.390 . S
C242 H233 0.930 . S
C242 C240 1.384 . S
C242 C243 1.372 . S
C243 C242 1.372 . S
C243 C244 1.400 . S
C243 C248 1.490 . S
C244 H234 0.930 . S
C244 C243 1.400 . S
C244 C247 1.386 . S
H245 C261 0.930 . S
H246 C262 0.931 . S
C247 H235 0.929 . S
C247 C241 1.390 . S
C247 C244 1.386 . S
C248 C243 1.490 . S
C248 C250 1.395 . S
C248 C251 1.403 . S
H249 C255 0.930 . S
C250 H236 0.930 . S
C250 C248 1.395 . S
C250 C253 1.403 . S
C251 C248 1.403 . S
C251 C252 1.524 . S
C251 C255 1.400 . S
C252 H237 0.960 . S
C252 H238 0.960 . S
C252 H239 0.960 . S
C252 C251 1.524 . S
C253 C250 1.403 . S
C253 C254 1.392 . S
C253 C257 1.495 . S
C254 C253 1.392 . S
C254 C255 1.385 . S
C254 C256 1.478 . S
C255 H249 0.930 . S
C255 C251 1.400 . S
C255 C254 1.385 . S
C256 C254 1.478 . S
C256 C258 1.381 . S
C256 C262 1.383 . S
C257 C253 1.495 . S
C257 H263 0.959 . S
C257 H264 0.961 . S
C257 H265 0.960 . S
C258 C256 1.381 . S
C258 C259 1.394 . S
C258 H266 0.930 . S
C259 C258 1.394 . S
C259 C260 1.383 . S
C259 H267 0.929 . S
C260 C259 1.383 . S
C260 C261 1.377 . S
C261 H245 0.930 . S
C261 C260 1.377 . S
C261 C262 1.379 . S
C262 H246 0.931 . S
C262 C256 1.383 . S
C262 C261 1.379 . S
H263 C257 0.959 . S
H264 C257 0.961 . S
H265 C257 0.960 . S
H266 C258 0.930 . S
H267 C259 0.929 . S
H268 C276 0.929 . S
H269 C278 0.930 . S
H270 C280 0.930 . S
H271 C283 0.929 . S
H272 C286 0.930 . S
H273 C288 0.960 . S
H274 C288 0.960 . S
H275 C288 0.960 . S
C276 H268 0.929 . S
C276 C277 1.377 . S
C276 C278 1.384 . S
C277 C276 1.377 . S
C277 C283 1.390 . S
C278 H269 0.930 . S
C278 C276 1.384 . S
C278 C279 1.372 . S
C279 C278 1.372 . S
C279 C280 1.400 . S
C279 C284 1.490 . S
C280 H270 0.930 . S
C280 C279 1.400 . S
C280 C283 1.386 . S
H281 C297 0.930 . S
H282 C298 0.931 . S
C283 H271 0.929 . S
C283 C277 1.390 . S
C283 C280 1.386 . S
C284 C279 1.490 . S
C284 C286 1.395 . S
C284 C287 1.403 . S
H285 C291 0.930 . S
C286 H272 0.930 . S
C286 C284 1.395 . S
C286 C289 1.403 . S
C287 C284 1.403 . S
C287 C288 1.524 . S
C287 C291 1.400 . S
C288 H273 0.960 . S
C288 H274 0.960 . S
C288 H275 0.960 . S
C288 C287 1.524 . S
C289 C286 1.403 . S
C289 C290 1.392 . S
C289 C293 1.495 . S
C290 C289 1.392 . S
C290 C291 1.385 . S
C290 C292 1.478 . S
C291 H285 0.930 . S
C291 C287 1.400 . S
C291 C290 1.385 . S
C292 C290 1.478 . S
C292 C294 1.381 . S
C292 C298 1.383 . S
C293 C289 1.495 . S
C293 H299 0.959 . S
C293 H300 0.961 . S
C293 H301 0.960 . S
C294 C292 1.381 . S
C294 C295 1.394 . S
C294 H302 0.930 . S
C295 C294 1.394 . S
C295 C296 1.383 . S
C295 H303 0.929 . S
C296 C295 1.383 . S
C296 C297 1.377 . S
C297 H281 0.930 . S
C297 C296 1.377 . S
C297 C298 1.379 . S
C298 H282 0.931 . S
C298 C292 1.383 . S
C298 C297 1.379 . S
H299 C293 0.959 . S
H300 C293 0.961 . S
H301 C293 0.960 . S
H302 C294 0.930 . S
H303 C295 0.929 . S
H304 C312 0.929 . S
H305 C314 0.930 . S
H306 C316 0.930 . S
H307 C319 0.929 . S
H308 C322 0.930 . S
H309 C324 0.960 . S
H310 C324 0.960 . S
H311 C324 0.960 . S
C312 H304 0.929 . S
C312 C313 1.377 . S
C312 C314 1.384 . S
C313 C312 1.377 . S
C313 C319 1.390 . S
C314 H305 0.930 . S
C314 C312 1.384 . S
C314 C315 1.372 . S
C315 C314 1.372 . S
C315 C316 1.400 . S
C315 C320 1.490 . S
C316 H306 0.930 . S
C316 C315 1.400 . S
C316 C319 1.386 . S
H317 C333 0.930 . S
H318 C334 0.931 . S
C319 H307 0.929 . S
C319 C313 1.390 . S
C319 C316 1.386 . S
C320 C315 1.490 . S
C320 C322 1.395 . S
C320 C323 1.403 . S
H321 C327 0.930 . S
C322 H308 0.930 . S
C322 C320 1.395 . S
C322 C325 1.403 . S
C323 C320 1.403 . S
C323 C324 1.524 . S
C323 C327 1.400 . S
C324 H309 0.960 . S
C324 H310 0.960 . S
C324 H311 0.960 . S
C324 C323 1.524 . S
C325 C322 1.403 . S
C325 C326 1.392 . S
C325 C329 1.495 . S
C326 C325 1.392 . S
C326 C327 1.385 . S
C326 C328 1.478 . S
C327 H321 0.930 . S
C327 C323 1.400 . S
C327 C326 1.385 . S
C328 C326 1.478 . S
C328 C330 1.381 . S
C328 C334 1.383 . S
C329 C325 1.495 . S
C329 H335 0.959 . S
C329 H336 0.961 . S
C329 H337 0.960 . S
C330 C328 1.381 . S
C330 C331 1.394 . S
C330 H338 0.930 . S
C331 C330 1.394 . S
C331 C332 1.383 . S
C331 H339 0.929 . S
C332 C331 1.383 . S
C332 C333 1.377 . S
C333 H317 0.930 . S
C333 C332 1.377 . S
C333 C334 1.379 . S
C334 H318 0.931 . S
C334 C328 1.383 . S
C334 C333 1.379 . S
H335 C329 0.959 . S
H336 C329 0.961 . S
H337 C329 0.960 . S
H338 C330 0.930 . S
H339 C331 0.929 . S
H340 C348 0.929 . S
H341 C350 0.930 . S
H342 C352 0.930 . S
H343 C355 0.929 . S
H344 C358 0.930 . S
H345 C360 0.960 . S
H346 C360 0.960 . S
H347 C360 0.960 . S
C348 H340 0.929 . S
C348 C349 1.377 . S
C348 C350 1.384 . S
C349 C348 1.377 . S
C349 C355 1.390 . S
C350 H341 0.930 . S
C350 C348 1.384 . S
C350 C351 1.372 . S
C351 C350 1.372 . S
C351 C352 1.400 . S
C351 C356 1.490 . S
C352 H342 0.930 . S
C352 C351 1.400 . S
C352 C355 1.386 . S
H353 C369 0.930 . S
H354 C370 0.931 . S
C355 H343 0.929 . S
C355 C349 1.390 . S
C355 C352 1.386 . S
C356 C351 1.490 . S
C356 C358 1.395 . S
C356 C359 1.403 . S
H357 C363 0.930 . S
C358 H344 0.930 . S
C358 C356 1.395 . S
C358 C361 1.403 . S
C359 C356 1.403 . S
C359 C360 1.524 . S
C359 C363 1.400 . S
C360 H345 0.960 . S
C360 H346 0.960 . S
C360 H347 0.960 . S
C360 C359 1.524 . S
C361 C358 1.403 . S
C361 C362 1.392 . S
C361 C365 1.495 . S
C362 C361 1.392 . S
C362 C363 1.385 . S
C362 C364 1.478 . S
C363 H357 0.930 . S
C363 C359 1.400 . S
C363 C362 1.385 . S
C364 C362 1.478 . S
C364 C366 1.381 . S
C364 C370 1.383 . S
C365 C361 1.495 . S
C365 H371 0.959 . S
C365 H372 0.961 . S
C365 H373 0.960 . S
C366 C364 1.381 . S
C366 C367 1.394 . S
C366 H374 0.930 . S
C367 C366 1.394 . S
C367 C368 1.383 . S
C367 H375 0.929 . S
C368 C367 1.383 . S
C368 C369 1.377 . S
C369 H353 0.930 . S
C369 C368 1.377 . S
C369 C370 1.379 . S
C370 H354 0.931 . S
C370 C364 1.383 . S
C370 C369 1.379 . S
H371 C365 0.959 . S
H372 C365 0.961 . S
H373 C365 0.960 . S
H374 C366 0.930 . S
H375 C367 0.929 . S
H376 C384 0.929 . S
H377 C386 0.930 . S
H378 C388 0.930 . S
H379 C391 0.929 . S
H380 C394 0.930 . S
H381 C396 0.960 . S
H382 C396 0.960 . S
H383 C396 0.960 . S
C384 H376 0.929 . S
C384 C385 1.377 . S
C384 C386 1.384 . S
C385 C384 1.377 . S
C385 C391 1.390 . S
C386 H377 0.930 . S
C386 C384 1.384 . S
C386 C387 1.372 . S
C387 C386 1.372 . S
C387 C388 1.400 . S
C387 C392 1.490 . S
C388 H378 0.930 . S
C388 C387 1.400 . S
C388 C391 1.386 . S
H389 C405 0.930 . S
H390 C406 0.931 . S
C391 H379 0.929 . S
C391 C385 1.390 . S
C391 C388 1.386 . S
C392 C387 1.490 . S
C392 C394 1.395 . S
C392 C395 1.403 . S
H393 C399 0.930 . S
C394 H380 0.930 . S
C394 C392 1.395 . S
C394 C397 1.403 . S
C395 C392 1.403 . S
C395 C396 1.524 . S
C395 C399 1.400 . S
C396 H381 0.960 . S
C396 H382 0.960 . S
C396 H383 0.960 . S
C396 C395 1.524 . S
C397 C394 1.403 . S
C397 C398 1.392 . S
C397 C401 1.495 . S
C398 C397 1.392 . S
C398 C399 1.385 . S
C398 C400 1.478 . S
C399 H393 0.930 . S
C399 C395 1.400 . S
C399 C398 1.385 . S
C400 C398 1.478 . S
C400 C402 1.381 . S
C400 C406 1.383 . S
C401 C397 1.495 . S
C401 H407 0.959 . S
C401 H408 0.961 . S
C401 H409 0.960 . S
C402 C400 1.381 . S
C402 C403 1.394 . S
C402 H410 0.930 . S
C403 C402 1.394 . S
C403 C404 1.383 . S
C403 H411 0.929 . S
C404 C403 1.383 . S
C404 C405 1.377 . S
C405 H389 0.930 . S
C405 C404 1.377 . S
C405 C406 1.379 . S
C406 H390 0.931 . S
C406 C400 1.383 . S
C406 C405 1.379 . S
H407 C401 0.959 . S
H408 C401 0.961 . S
H409 C401 0.960 . S
H410 C402 0.930 . S
H411 C403 0.929 . S
H412 C420 0.929 1_455 S
H413 C422 0.930 . S
H414 C424 0.930 . S
H415 C427 0.929 . S
H416 C430 0.930 . S
H417 C432 0.960 . S
H418 C432 0.960 . S
H419 C432 0.960 . S
C420 H412 0.929 1_655 S
C420 C421 1.377 . S
C420 C422 1.384 . S
C421 C420 1.377 . S
C421 C427 1.390 . S
C422 H413 0.930 . S
C422 C420 1.384 . S
C422 C423 1.372 . S
C423 C422 1.372 . S
C423 C424 1.400 . S
C423 C428 1.490 . S
C424 H414 0.930 . S
C424 C423 1.400 . S
C424 C427 1.386 . S
H425 C441 0.930 . S
H426 C442 0.931 . S
C427 H415 0.929 . S
C427 C421 1.390 . S
C427 C424 1.386 . S
C428 C423 1.490 . S
C428 C430 1.395 . S
C428 C431 1.403 . S
H429 C435 0.930 . S
C430 H416 0.930 . S
C430 C428 1.395 . S
C430 C433 1.403 . S
C431 C428 1.403 . S
C431 C432 1.524 . S
C431 C435 1.400 . S
C432 H417 0.960 . S
C432 H418 0.960 . S
C432 H419 0.960 . S
C432 C431 1.524 . S
C433 C430 1.403 . S
C433 C434 1.392 . S
C433 C437 1.495 . S
C434 C433 1.392 . S
C434 C435 1.385 . S
C434 C436 1.478 . S
C435 H429 0.930 . S
C435 C431 1.400 . S
C435 C434 1.385 . S
C436 C434 1.478 . S
C436 C438 1.381 . S
C436 C442 1.383 . S
C437 C433 1.495 . S
C437 H443 0.959 . S
C437 H444 0.961 . S
C437 H445 0.960 . S
C438 C436 1.381 . S
C438 C439 1.394 . S
C438 H446 0.930 . S
C439 C438 1.394 . S
C439 C440 1.383 . S
C439 H447 0.929 . S
C440 C439 1.383 . S
C440 C441 1.377 . S
C441 H425 0.930 . S
C441 C440 1.377 . S
C441 C442 1.379 . S
C442 H426 0.931 . S
C442 C436 1.383 . S
C442 C441 1.379 . S
H443 C437 0.959 . S
H444 C437 0.961 . S
H445 C437 0.960 . S
H446 C438 0.930 . S
H447 C439 0.929 . S
H448 C456 0.929 . S
H449 C458 0.930 . S
H450 C460 0.930 . S
H451 C463 0.929 . S
H452 C466 0.930 . S
H453 C468 0.960 . S
H454 C468 0.960 . S
H455 C468 0.960 . S
C456 H448 0.929 . S
C456 C457 1.377 . S
C456 C458 1.384 . S
C457 C456 1.377 . S
C457 C463 1.390 . S
C458 H449 0.930 . S
C458 C456 1.384 . S
C458 C459 1.372 . S
C459 C458 1.372 . S
C459 C460 1.400 . S
C459 C464 1.490 . S
C460 H450 0.930 . S
C460 C459 1.400 . S
C460 C463 1.386 . S
H461 C477 0.930 . S
H462 C478 0.931 . S
C463 H451 0.929 . S
C463 C457 1.390 . S
C463 C460 1.386 . S
C464 C459 1.490 . S
C464 C466 1.395 . S
C464 C467 1.403 . S
H465 C471 0.930 . S
C466 H452 0.930 . S
C466 C464 1.395 . S
C466 C469 1.403 . S
C467 C464 1.403 . S
C467 C468 1.524 . S
C467 C471 1.400 . S
C468 H453 0.960 . S
C468 H454 0.960 . S
C468 H455 0.960 . S
C468 C467 1.524 . S
C469 C466 1.403 . S
C469 C470 1.392 . S
C469 C473 1.495 . S
C470 C469 1.392 . S
C470 C471 1.385 . S
C470 C472 1.478 . S
C471 H465 0.930 . S
C471 C467 1.400 . S
C471 C470 1.385 . S
C472 C470 1.478 . S
C472 C474 1.381 . S
C472 C478 1.383 . S
C473 C469 1.495 . S
C473 H479 0.959 . S
C473 H480 0.961 . S
C473 H481 0.960 . S
C474 C472 1.381 . S
C474 C475 1.394 . S
C474 H482 0.930 . S
C475 C474 1.394 . S
C475 C476 1.383 . S
C475 H483 0.929 . S
C476 C475 1.383 . S
C476 C477 1.377 . S
C477 H461 0.930 . S
C477 C476 1.377 . S
C477 C478 1.379 . S
C478 H462 0.931 . S
C478 C472 1.383 . S
C478 C477 1.379 . S
H479 C473 0.959 . S
H480 C473 0.961 . S
H481 C473 0.960 . S
H482 C474 0.930 . S
H483 C475 0.929 . S
H484 C492 0.929 . S
H485 C494 0.930 . S
H486 C496 0.930 . S
H487 C499 0.929 . S
H488 C502 0.930 . S
H489 C504 0.960 . S
H490 C504 0.960 . S
H491 C504 0.960 . S
C492 H484 0.929 . S
C492 C493 1.377 . S
C492 C494 1.384 . S
C493 C492 1.377 . S
C493 C499 1.390 . S
C494 H485 0.930 . S
C494 C492 1.384 . S
C494 C495 1.372 . S
C495 C494 1.372 . S
C495 C496 1.400 . S
C495 C500 1.490 . S
C496 H486 0.930 . S
C496 C495 1.400 . S
C496 C499 1.386 . S
H497 C513 0.930 . S
H498 C514 0.931 . S
C499 H487 0.929 . S
C499 C493 1.390 . S
C499 C496 1.386 . S
C500 C495 1.490 . S
C500 C502 1.395 . S
C500 C503 1.403 . S
H501 C507 0.930 . S
C502 H488 0.930 . S
C502 C500 1.395 . S
C502 C505 1.403 . S
C503 C500 1.403 . S
C503 C504 1.524 . S
C503 C507 1.400 . S
C504 H489 0.960 . S
C504 H490 0.960 . S
C504 H491 0.960 . S
C504 C503 1.524 . S
C505 C502 1.403 . S
C505 C506 1.392 . S
C505 C509 1.495 . S
C506 C505 1.392 . S
C506 C507 1.385 . S
C506 C508 1.478 . S
C507 H501 0.930 . S
C507 C503 1.400 . S
C507 C506 1.385 . S
C508 C506 1.478 . S
C508 C510 1.381 . S
C508 C514 1.383 . S
C509 C505 1.495 . S
C509 H515 0.959 . S
C509 H516 0.961 . S
C509 H517 0.960 . S
C510 C508 1.381 . S
C510 C511 1.394 . S
C510 H518 0.930 . S
C511 C510 1.394 . S
C511 C512 1.383 . S
C511 H519 0.929 . S
C512 C511 1.383 . S
C512 C513 1.377 . S
C513 H497 0.930 . S
C513 C512 1.377 . S
C513 C514 1.379 . S
C514 H498 0.931 . S
C514 C508 1.383 . S
C514 C513 1.379 . S
H515 C509 0.959 . S
H516 C509 0.961 . S
H517 C509 0.960 . S
H518 C510 0.930 . S
H519 C511 0.929 . S
C97 C18 1.442 . S
C116 C65 1.355 . S
C133 C44 1.399 . S
C152 C71 1.246 . S
C169 C20 1.393 . S
C188 C62 1.274 . S
C205 C42 1.451 . S
C224 C87 1.353 . S
C241 C17 1.431 . S
C260 C53 1.305 . S
C296 C70 1.316 . S
C277 C40 1.473 . S
C313 C43 1.413 . S
C332 C66 1.317 . S
C368 C83 1.355 . S
C349 C16 1.482 . S
C404 C50 1.284 . S
C385 C39 1.481 . S
C440 C86 1.365 . S
C421 C21 1.410 . S
C476 C49 1.400 . S
C457 C41 1.446 . S
C512 C74 1.339 . S
C493 C19 1.422 . S
