# Generated by pormake.
# Topology ssb, (4,4)-cn, num edge types: 1
# Building blocks:
#     Node 0, Type 0, BuildingBlock: NAWXER_clean_sbu_0, # of connection points: 4
#     Node 1, Type 0, BuildingBlock: NAWXER_clean_sbu_0, # of connection points: 4
#     Node 2, Type 0, BuildingBlock: NAWXER_clean_sbu_0, # of connection points: 4
#     Node 3, Type 0, BuildingBlock: NAWXER_clean_sbu_0, # of connection points: 4
#     Node 4, Type 0, BuildingBlock: NAWXER_clean_sbu_0, # of connection points: 4
#     Node 5, Type 0, BuildingBlock: NAWXER_clean_sbu_0, # of connection points: 4
#     Node 6, Type 0, BuildingBlock: NAWXER_clean_sbu_0, # of connection points: 4
#     Node 7, Type 0, BuildingBlock: NAWXER_clean_sbu_0, # of connection points: 4
#     Node 8, Type 1, BuildingBlock: NAWXER_clean_sbu_0, # of connection points: 4
#     Node 9, Type 1, BuildingBlock: NAWXER_clean_sbu_0, # of connection points: 4
#     Node 10, Type 1, BuildingBlock: NAWXER_clean_sbu_0, # of connection points: 4
#     Node 11, Type 1, BuildingBlock: NAWXER_clean_sbu_0, # of connection points: 4
#     Node 12, Type 1, BuildingBlock: NAWXER_clean_sbu_0, # of connection points: 4
#     Node 13, Type 1, BuildingBlock: NAWXER_clean_sbu_0, # of connection points: 4
#     Node 14, Type 1, BuildingBlock: NAWXER_clean_sbu_0, # of connection points: 4
#     Node 15, Type 1, BuildingBlock: NAWXER_clean_sbu_0, # of connection points: 4
#     Edge 16, Type (0, 1), BuildingBlock: CIFDUS_clean_linker_0, # of connection points: 2
#     Edge 17, Type (0, 1), BuildingBlock: CIFDUS_clean_linker_0, # of connection points: 2
#     Edge 18, Type (0, 1), BuildingBlock: CIFDUS_clean_linker_0, # of connection points: 2
#     Edge 19, Type (0, 1), BuildingBlock: CIFDUS_clean_linker_0, # of connection points: 2
#     Edge 20, Type (0, 1), BuildingBlock: CIFDUS_clean_linker_0, # of connection points: 2
#     Edge 21, Type (0, 1), BuildingBlock: CIFDUS_clean_linker_0, # of connection points: 2
#     Edge 22, Type (0, 1), BuildingBlock: CIFDUS_clean_linker_0, # of connection points: 2
#     Edge 23, Type (0, 1), BuildingBlock: CIFDUS_clean_linker_0, # of connection points: 2
#     Edge 24, Type (0, 1), BuildingBlock: CIFDUS_clean_linker_0, # of connection points: 2
#     Edge 25, Type (0, 1), BuildingBlock: CIFDUS_clean_linker_0, # of connection points: 2
#     Edge 26, Type (0, 1), BuildingBlock: CIFDUS_clean_linker_0, # of connection points: 2
#     Edge 27, Type (0, 1), BuildingBlock: CIFDUS_clean_linker_0, # of connection points: 2
#     Edge 28, Type (0, 1), BuildingBlock: CIFDUS_clean_linker_0, # of connection points: 2
#     Edge 29, Type (0, 1), BuildingBlock: CIFDUS_clean_linker_0, # of connection points: 2
#     Edge 30, Type (0, 1), BuildingBlock: CIFDUS_clean_linker_0, # of connection points: 2
#     Edge 31, Type (0, 1), BuildingBlock: CIFDUS_clean_linker_0, # of connection points: 2
#     Edge 32, Type (0, 1), BuildingBlock: CIFDUS_clean_linker_0, # of connection points: 2
#     Edge 33, Type (0, 1), BuildingBlock: CIFDUS_clean_linker_0, # of connection points: 2
#     Edge 34, Type (0, 1), BuildingBlock: CIFDUS_clean_linker_0, # of connection points: 2
#     Edge 35, Type (0, 1), BuildingBlock: CIFDUS_clean_linker_0, # of connection points: 2
#     Edge 36, Type (0, 1), BuildingBlock: CIFDUS_clean_linker_0, # of connection points: 2
#     Edge 37, Type (0, 1), BuildingBlock: CIFDUS_clean_linker_0, # of connection points: 2
#     Edge 38, Type (0, 1), BuildingBlock: CIFDUS_clean_linker_0, # of connection points: 2
#     Edge 39, Type (0, 1), BuildingBlock: CIFDUS_clean_linker_0, # of connection points: 2
#     Edge 40, Type (0, 1), BuildingBlock: CIFDUS_clean_linker_0, # of connection points: 2
#     Edge 41, Type (0, 1), BuildingBlock: CIFDUS_clean_linker_0, # of connection points: 2
#     Edge 42, Type (0, 1), BuildingBlock: CIFDUS_clean_linker_0, # of connection points: 2
#     Edge 43, Type (0, 1), BuildingBlock: CIFDUS_clean_linker_0, # of connection points: 2
#     Edge 44, Type (0, 1), BuildingBlock: CIFDUS_clean_linker_0, # of connection points: 2
#     Edge 45, Type (0, 1), BuildingBlock: CIFDUS_clean_linker_0, # of connection points: 2
#     Edge 46, Type (0, 1), BuildingBlock: CIFDUS_clean_linker_0, # of connection points: 2
#     Edge 47, Type (0, 1), BuildingBlock: CIFDUS_clean_linker_0, # of connection points: 2
# Relax obj value: 0.002
# Max RMSD: 0.009
# Mean RMSD: 0.008
data_MOF--net-ssb--node1-NAWXER_clean_sbu_0--node2-NAWXER_clean_sbu_0--edge1-CIFDUS_clean_linker_0
_symmetry_space_group_name_H-M    P1
_symmetry_Int_Tables_number       1
_symmetry_cell_setting            triclinic
loop_
_symmetry_equiv_pos_as_xyz
'x, y, z'
_cell_length_a     38.63201
_cell_length_b     38.747498
_cell_length_c     32.392423
_cell_angle_alpha  89.196378
_cell_angle_beta   90.928557
_cell_angle_gamma 90.462935
loop_
_atom_site_label
_atom_site_type_symbol
_atom_site_fract_x
_atom_site_fract_y
_atom_site_fract_z
_atom_type_partial_charge
C0 C 0.2485 0.25836 0.32778 0.0
C1 C 0.34203 0.25686 0.22821 0.0
O2 O 0.24014 0.24312 0.29417 0.0
Zn3 Zn 0.2629 0.23141 0.23619 0.0
O4 O 0.27846 0.27186 0.33197 0.0
Zn5 Zn 0.29579 0.25817 0.27892 0.0
O6 O 0.26609 0.29024 0.23805 0.0
O7 O 0.23401 0.25783 0.19697 0.0
O8 O 0.34269 0.27019 0.26384 0.0
O9 O 0.31439 0.2417 0.21516 0.0
O10 O 0.26041 0.18154 0.23809 0.0
O11 O 0.29606 0.20289 0.28538 0.0
C12 C 0.24368 0.28765 0.20864 0.0
C13 C 0.28125 0.17681 0.26845 0.0
C14 C 0.73263 0.24621 0.2122 0.0
C15 C 0.84072 0.26554 0.29056 0.0
O16 O 0.72922 0.26387 0.24498 0.0
Zn17 Zn 0.75921 0.28197 0.29583 0.0
O18 O 0.76211 0.23395 0.20384 0.0
Zn19 Zn 0.7876 0.25336 0.2512 0.0
O20 O 0.76946 0.2237 0.30223 0.0
O21 O 0.73981 0.25687 0.3433 0.0
O22 O 0.8373 0.24743 0.2582 0.0
O23 O 0.81405 0.27908 0.30671 0.0
O24 O 0.75353 0.33149 0.28878 0.0
O25 O 0.78489 0.3081 0.24011 0.0
C26 C 0.75189 0.22736 0.33504 0.0
C27 C 0.7715 0.33479 0.25631 0.0
C28 C 0.76277 0.73551 0.23517 0.0
C29 C 0.76228 0.83125 0.33106 0.0
O30 O 0.74146 0.73063 0.26468 0.0
Zn31 Zn 0.72516 0.75743 0.31869 0.0
O32 O 0.78132 0.76276 0.23419 0.0
Zn33 Zn 0.76323 0.78329 0.28298 0.0
O34 O 0.7834 0.74962 0.33045 0.0
O35 O 0.73946 0.72669 0.36396 0.0
O36 O 0.78095 0.82789 0.29946 0.0
O37 O 0.7407 0.80727 0.34082 0.0
O38 O 0.67645 0.76332 0.30587 0.0
O39 O 0.71034 0.79321 0.26415 0.0
C40 C 0.77195 0.72969 0.35912 0.0
C41 C 0.67989 0.78374 0.27508 0.0
C42 C 0.20672 0.69605 0.19956 0.0
C43 C 0.22494 0.80569 0.26985 0.0
O44 O 0.19642 0.72561 0.18727 0.0
Zn45 Zn 0.21368 0.75164 0.23427 0.0
O46 O 0.22054 0.69255 0.23559 0.0
Zn47 Zn 0.23482 0.72437 0.28667 0.0
O48 O 0.20411 0.71067 0.33094 0.0
O49 O 0.1776 0.741 0.28199 0.0
O50 O 0.23398 0.77936 0.29164 0.0
O51 O 0.21284 0.8019 0.23342 0.0
O52 O 0.26803 0.74084 0.23236 0.0
O53 O 0.28403 0.71478 0.29086 0.0
C54 C 0.17708 0.72586 0.31737 0.0
C55 C 0.29141 0.72669 0.25525 0.0
C56 C 0.28706 0.77752 0.83231 0.0
C57 C 0.19313 0.73966 0.7388 0.0
O58 O 0.25536 0.78597 0.83333 0.0
Zn59 Zn 0.23947 0.76072 0.7846 0.0
O60 O 0.29721 0.75786 0.80346 0.0
Zn61 Zn 0.27581 0.7315 0.75119 0.0
O62 O 0.29953 0.75259 0.70465 0.0
O63 O 0.26308 0.78783 0.73387 0.0
O64 O 0.22286 0.72766 0.72965 0.0
O65 O 0.19083 0.76093 0.76822 0.0
O66 O 0.24478 0.70763 0.804 0.0
O67 O 0.28487 0.68382 0.76599 0.0
C68 C 0.28535 0.78203 0.70588 0.0
C69 C 0.26259 0.68122 0.7944 0.0
C70 C 0.26222 0.18421 0.71416 0.0
C71 C 0.26268 0.27811 0.81305 0.0
O72 O 0.24686 0.18561 0.74844 0.0
Zn73 Zn 0.26301 0.23092 0.76445 0.0
O74 O 0.2816 0.20954 0.70276 0.0
Zn75 Zn 0.29649 0.25947 0.72584 0.0
O76 O 0.34583 0.25676 0.73344 0.0
O77 O 0.31748 0.22505 0.77898 0.0
O78 O 0.28188 0.28476 0.78194 0.0
O79 O 0.24621 0.2496 0.81501 0.0
O80 O 0.23789 0.26407 0.71956 0.0
O81 O 0.27833 0.29045 0.68335 0.0
C82 C 0.34619 0.23684 0.76494 0.0
C83 C 0.24648 0.28531 0.6907 0.0
C84 C 0.79159 0.21665 0.76299 0.0
C85 C 0.80466 0.32472 0.83611 0.0
O86 O 0.77802 0.24227 0.74333 0.0
Zn87 Zn 0.77351 0.2974 0.75051 0.0
O88 O 0.80755 0.22109 0.79718 0.0
Zn89 Zn 0.8012 0.27039 0.79803 0.0
O90 O 0.74584 0.2734 0.805 0.0
O91 O 0.72383 0.30257 0.75144 0.0
O92 O 0.81909 0.29613 0.84474 0.0
O93 O 0.78762 0.32829 0.80212 0.0
O94 O 0.79908 0.316 0.70398 0.0
O95 O 0.83197 0.28534 0.74666 0.0
C96 C 0.71979 0.28636 0.78546 0.0
C97 C 0.8281 0.30232 0.71274 0.0
C98 C 0.77586 0.76048 0.73104 0.0
C99 C 0.68289 0.75863 0.83068 0.0
O100 O 0.74725 0.74411 0.72929 0.0
Zn101 Zn 0.72951 0.75992 0.7806 0.0
O102 O 0.78329 0.77879 0.76272 0.0
Zn103 Zn 0.75881 0.79208 0.81988 0.0
O104 O 0.79001 0.77276 0.86143 0.0
O105 O 0.76242 0.73337 0.82483 0.0
O106 O 0.7086 0.77731 0.84283 0.0
O107 O 0.68397 0.74424 0.79578 0.0
O108 O 0.72428 0.81463 0.76785 0.0
O109 O 0.75672 0.84147 0.81415 0.0
C110 C 0.78407 0.74118 0.85375 0.0
C111 C 0.73663 0.84278 0.78273 0.0
C112 C 0.98511 0.2696 0.56152 0.0
C113 C 0.08263 0.25549 0.46921 0.0
O114 O 0.99634 0.29825 0.54641 0.0
Zn115 Zn 0.03543 0.31585 0.50475 0.0
O116 O 0.99902 0.24143 0.55118 0.0
Zn117 Zn 0.0329 0.2609 0.51399 0.0
O118 O 0.06614 0.2882 0.55569 0.0
O119 O 0.06557 0.34398 0.53986 0.0
O120 O 0.06536 0.23137 0.48648 0.0
O121 O 0.07366 0.28697 0.47357 0.0
O122 O 1.00799 0.33641 0.46 0.0
O123 O 1.00202 0.27978 0.46373 0.0
C124 C 0.07662 0.31908 0.56235 0.0
C125 C 0.99458 0.30868 0.44625 0.0
C126 C 0.77949 0.06536 0.60427 0.0
C127 C 0.75413 0.9808 0.4976 0.0
O128 O 0.80138 0.0493 0.58297 0.0
Zn129 Zn 0.76785 0.02408 0.54988 0.0
O130 O 0.74699 0.06113 0.59709 0.0
Zn131 Zn 0.71355 0.03243 0.55637 0.0
O132 O 0.68689 1.00486 0.59522 0.0
O133 O 0.74276 0.99268 0.59612 0.0
O134 O 0.7268 0.9943 0.51223 0.0
O135 O 0.78375 0.99084 0.51042 0.0
O136 O 0.74696 0.06402 0.51121 0.0
O137 O 0.6913 0.06902 0.52354 0.0
C138 C 0.71225 0.98781 0.61024 0.0
C139 C 0.71797 0.07894 0.50403 0.0
C140 C 0.93363 0.76276 0.57771 0.0
C141 C 0.03071 0.73764 0.48776 0.0
O142 O 0.95018 0.78527 0.55663 0.0
Zn143 Zn 0.98227 0.75287 0.53231 0.0
O144 O 0.94268 0.73107 0.5773 0.0
Zn145 Zn 0.97952 0.69855 0.54994 0.0
O146 O 1.00752 0.68279 0.59741 0.0
O147 O 0.01285 0.7388 0.58484 0.0
O148 O 0.01884 0.71132 0.50736 0.0
O149 O 0.01686 0.76704 0.49214 0.0
O150 O 0.94809 0.72229 0.49588 0.0
O151 O 0.94823 0.66813 0.51848 0.0
C152 C 0.02055 0.71206 0.60659 0.0
C153 C 0.93698 0.6912 0.4934 0.0
C154 C 0.25683 0.03883 0.54131 0.0
C155 C 0.23226 0.9503 0.438 0.0
O156 O 0.28387 0.02358 0.52851 0.0
Zn157 Zn 0.2971 0.98268 0.48803 0.0
O158 O 0.22701 0.0293 0.52841 0.0
Zn159 Zn 0.24265 0.99334 0.4917 0.0
O160 O 0.26095 0.95583 0.53481 0.0
O161 O 0.31649 0.9469 0.52519 0.0
O162 O 0.20994 0.9671 0.45788 0.0
O163 O 0.26452 0.954 0.44676 0.0
O164 O 0.32578 0.00805 0.44888 0.0
O165 O 0.27036 0.02211 0.44551 0.0
C166 C 0.28895 0.94016 0.54484 0.0
C167 C 0.30131 0.02547 0.43223 0.0
C168 C 0.44236 0.72402 0.09711 0.0
C169 C 0.53648 0.74982 1.002 0.0
O170 O 0.44899 0.75629 0.09274 0.0
Zn171 Zn 0.48158 0.78969 0.0574 0.0
O172 O 0.45798 0.70215 0.0753 0.0
Zn173 Zn 0.48825 0.73518 0.04745 0.0
O174 O 0.51687 0.7563 0.09864 0.0
O175 O 0.5077 0.81255 0.10157 0.0
O176 O 0.52445 0.72002 1.01096 0.0
O177 O 0.52276 0.7767 1.01728 0.0
O178 O 0.44824 0.81444 1.02112 0.0
O179 O 0.45403 0.75972 1.00486 0.0
C180 C 0.52218 0.78543 0.11605 0.0
C181 C 0.44054 0.78928 0.99778 0.0
C182 C 0.24392 0.5325 0.06039 0.0
C183 C 0.26257 0.43841 0.96389 0.0
O184 O 0.27272 0.51875 0.05194 0.0
Zn185 Zn 0.25534 0.48572 1.01205 0.0
O186 O 0.21598 0.52139 0.0431 0.0
Zn187 Zn 0.20025 0.48326 0.99937 0.0
O188 O 0.17156 0.45104 0.03151 0.0
O189 O 0.22695 0.45081 0.04985 0.0
O190 O 0.23087 0.44716 0.96734 0.0
O191 O 0.28617 0.45462 0.98373 0.0
O192 O 0.23788 0.51791 0.96267 0.0
O193 O 0.18127 0.51215 0.95467 0.0
C194 C 0.19603 0.43943 0.05442 0.0
C195 C 0.20974 0.52596 0.94365 0.0
C196 C 0.56843 0.27445 0.94475 0.0
C197 C 0.4844 0.25038 0.05268 0.0
O198 O 0.55283 0.29657 0.9662 0.0
Zn199 Zn 0.52739 0.26358 0.99977 0.0
O200 O 0.56375 0.24214 0.95207 0.0
Zn201 Zn 0.53482 0.20924 0.99297 0.0
O202 O 0.5064 0.1832 0.95416 0.0
O203 O 0.4951 0.23912 0.95383 0.0
O204 O 0.49717 0.22296 0.03752 0.0
O205 O 0.4949 0.2798 0.04011 0.0
O206 O 0.56753 0.24214 0.03765 0.0
O207 O 0.57154 0.18652 0.0254 0.0
C208 C 0.48961 0.20883 0.93949 0.0
C209 C 0.58213 0.21304 0.0447 0.0
C210 C 0.75647 0.57583 0.08334 0.0
C211 C 0.76891 0.48008 0.98802 0.0
O212 O 0.78786 0.56724 0.07704 0.0
Zn213 Zn 0.81627 0.53074 0.04314 0.0
O214 O 0.73178 0.55909 0.06623 0.0
Zn215 Zn 0.76066 0.52741 0.03623 0.0
O216 O 0.78192 0.49647 0.08492 0.0
O217 O 0.83876 0.50294 0.08637 0.0
O218 O 0.74063 0.49332 0.9994 0.0
O219 O 0.79777 0.49189 1.00211 0.0
O220 O 0.8423 0.56191 1.00681 0.0
O221 O 0.78591 0.56115 0.99367 0.0
C222 C 0.81149 0.48915 0.10103 0.0
C223 C 0.81633 0.57235 0.98555 0.0
H224 H 0.19641 0.21324 0.34302 0.0
H225 H 0.24264 0.30816 0.386 0.0
H226 H 0.19572 0.31469 0.43516 0.0
H227 H 0.13961 0.29544 0.46212 0.0
H228 H 0.09453 0.1993 0.42148 0.0
H229 H 0.14327 0.19094 0.37516 0.0
C230 C 0.1963 0.23524 0.36337 0.0
C231 C 0.22261 0.26047 0.36061 0.0
C232 C 0.16949 0.23859 0.39169 0.0
C233 C 0.22261 0.28849 0.38759 0.0
C234 C 0.19574 0.29228 0.41551 0.0
C235 C 0.14059 0.27256 0.44324 0.0
C236 C 0.1134 0.24823 0.44458 0.0
C237 C 0.16874 0.26784 0.41721 0.0
C238 C 0.1152 0.21836 0.42077 0.0
C239 C 0.14293 0.21369 0.39424 0.0
H240 H 0.70278 0.21544 0.39469 0.0
H241 H 0.79308 0.1715 0.33936 0.0
H242 H 0.78961 0.12181 0.38555 0.0
H243 H 0.7624 0.0911 0.44236 0.0
H244 H 0.67093 0.13197 0.4977 0.0
H245 H 0.6731 0.18219 0.4506 0.0
C246 C 0.72162 0.19495 0.39285 0.0
C247 C 0.74821 0.19735 0.36362 0.0
C248 C 0.71924 0.16578 0.41937 0.0
C249 C 0.77224 0.17038 0.36135 0.0
C250 C 0.77037 0.14187 0.38784 0.0
C251 C 0.74281 0.11092 0.44413 0.0
C252 C 0.71671 0.10794 0.47369 0.0
C253 C 0.74415 0.13937 0.41701 0.0
C254 C 0.69127 0.13362 0.47512 0.0
C255 C 0.69264 0.16242 0.44835 0.0
H256 H 0.83839 0.71377 0.34325 0.0
H257 H 0.76197 0.70679 0.43863 0.0
H258 H 0.80642 0.6872 0.48828 0.0
H259 H 0.86869 0.68083 0.50657 0.0
H260 H 0.94457 0.69035 0.41108 0.0
H261 H 0.89872 0.6993 0.35921 0.0
C262 C 0.83133 0.70743 0.37476 0.0
C263 C 0.79705 0.71227 0.38742 0.0
C264 C 0.85701 0.69647 0.40306 0.0
C265 C 0.7882 0.70343 0.42815 0.0
C266 C 0.81365 0.69234 0.45658 0.0
C267 C 0.87489 0.68333 0.47411 0.0
C268 C 0.90977 0.68424 0.46231 0.0
C269 C 0.84836 0.68982 0.4447 0.0
C270 C 0.9178 0.68879 0.42051 0.0
C271 C 0.89163 0.69439 0.39101 0.0
H272 H 0.17901 0.83103 0.32247 0.0
H273 H 0.27569 0.85401 0.26334 0.0
H274 H 0.28527 0.90321 0.30909 0.0
H275 H 0.26917 0.93503 0.37083 0.0
H276 H 0.17234 0.91247 0.43027 0.0
H277 H 0.15936 0.86784 0.37919 0.0
C278 C 0.20158 0.84761 0.31891 0.0
C279 C 0.22645 0.83955 0.28944 0.0
C280 C 0.20703 0.87539 0.34573 0.0
C281 C 0.25602 0.86038 0.28539 0.0
C282 C 0.26161 0.88818 0.3118 0.0
C283 C 0.24506 0.92055 0.37235 0.0
C284 C 0.22197 0.92653 0.4046 0.0
C285 C 0.23781 0.8952 0.34288 0.0
C286 C 0.19054 0.90816 0.40581 0.0
C287 C 0.1832 0.88262 0.37671 0.0
H288 H 0.12838 0.76771 0.73701 0.0
H289 H 0.18795 0.68429 0.68819 0.0
H290 H 0.13804 0.66512 0.6474 0.0
H291 H 0.0786 0.67463 0.62107 0.0
H292 H 0.02067 0.76062 0.66554 0.0
H293 H 0.06816 0.7757 0.71298 0.0
C294 C 0.13034 0.7452 0.71769 0.0
C295 C 0.16199 0.72772 0.71547 0.0
C296 C 0.10161 0.73457 0.69362 0.0
C297 C 0.16405 0.69856 0.69019 0.0
C298 C 0.13544 0.68742 0.66691 0.0
C299 C 0.07615 0.69604 0.64203 0.0
C300 C 0.04615 0.71621 0.64041 0.0
C301 C 0.10421 0.7055 0.66787 0.0
C302 C 0.04351 0.74456 0.66672 0.0
C303 C 0.07073 0.75334 0.69357 0.0
H304 H 0.30174 0.16573 0.64986 0.0
H305 H 0.20974 0.13623 0.71572 0.0
H306 H 0.19864 0.08958 0.66693 0.0
H307 H 0.21513 0.05721 0.60476 0.0
H308 H 0.30924 0.08529 0.54235 0.0
H309 H 0.31926 0.13253 0.59017 0.0
C310 C 0.27929 0.14906 0.65363 0.0
C311 C 0.25658 0.15455 0.68632 0.0
C312 C 0.2733 0.12211 0.62581 0.0
C313 C 0.22776 0.13249 0.69093 0.0
C314 C 0.22129 0.1059 0.6629 0.0
C315 C 0.23764 0.07388 0.6016 0.0
C316 C 0.26129 0.06796 0.56995 0.0
C317 C 0.2438 0.10055 0.63005 0.0
C318 C 0.29069 0.08934 0.56652 0.0
C319 C 0.29646 0.11635 0.59385 0.0
H320 H 0.8752 0.25239 0.70244 0.0
H321 H 0.84307 0.35157 0.65414 0.0
H322 H 0.88913 0.35012 0.60298 0.0
H323 H 0.93841 0.32049 0.57227 0.0
H324 H 0.96782 0.21955 0.61794 0.0
H325 H 0.92257 0.22166 0.66977 0.0
C326 C 0.8785 0.27385 0.68094 0.0
C327 C 0.85621 0.30235 0.6824 0.0
C328 C 0.90429 0.27234 0.65105 0.0
C329 C 0.86012 0.32952 0.65372 0.0
C330 C 0.88638 0.32864 0.62451 0.0
C331 C 0.93492 0.29894 0.59358 0.0
C332 C 0.9566 0.26998 0.59146 0.0
C333 C 0.90859 0.30016 0.6229 0.0
C334 C 0.95145 0.24209 0.61889 0.0
C335 C 0.9257 0.24335 0.64863 0.0
H336 H 0.68603 0.85869 0.72592 0.0
H337 H 0.77691 0.90058 0.78692 0.0
H338 H 0.77601 0.95039 0.74013 0.0
H339 H 0.75319 0.97894 0.67737 0.0
H340 H 0.6608 0.93946 0.61795 0.0
H341 H 0.65828 0.89189 0.66873 0.0
C342 C 0.70525 0.87904 0.72941 0.0
C343 C 0.73172 0.87569 0.75962 0.0
C344 C 0.70451 0.90783 0.70243 0.0
C345 C 0.75624 0.90245 0.76402 0.0
C346 C 0.7559 0.93088 0.73706 0.0
C347 C 0.73226 0.96012 0.67597 0.0
C348 C 0.70745 0.96227 0.64387 0.0
C349 C 0.73078 0.93332 0.70547 0.0
C350 C 0.68014 0.93819 0.6425 0.0
C351 C 0.67883 0.91096 0.67137 0.0
H352 H 0.82709 0.80623 0.71178 0.0
H353 H 0.78001 0.71012 0.67371 0.0
H354 H 0.82328 0.70433 0.62022 0.0
H355 H 0.87664 0.72422 0.5879 0.0
H356 H 0.92376 0.82067 0.62385 0.0
H357 H 0.87779 0.82918 0.67424 0.0
C358 C 0.82629 0.78409 0.69165 0.0
C359 C 0.80073 0.75834 0.69706 0.0
C360 C 0.85107 0.78111 0.66065 0.0
C361 C 0.79952 0.73016 0.67029 0.0
C362 C 0.82425 0.72682 0.63975 0.0
C363 C 0.8766 0.74732 0.60649 0.0
C364 C 0.90358 0.77164 0.60272 0.0
C365 C 0.85041 0.75181 0.63518 0.0
C366 C 0.90311 0.8017 0.6263 0.0
C367 C 0.87704 0.80636 0.65526 0.0
H368 H 0.25488 0.84443 0.69731 0.0
H369 H 0.33331 0.78108 0.64387 0.0
H370 H 0.34362 0.82552 0.5908 0.0
H371 H 0.32797 0.88168 0.55738 0.0
H372 H 0.24738 0.94246 0.61069 0.0
H373 H 0.24062 0.89997 0.666 0.0
C374 C 0.27443 0.84029 0.67427 0.0
C375 C 0.29319 0.80934 0.67462 0.0
C376 C 0.27984 0.86562 0.64364 0.0
C377 C 0.31837 0.80459 0.64434 0.0
C378 C 0.32429 0.83003 0.61394 0.0
C379 C 0.30929 0.8857 0.58143 0.0
C380 C 0.28814 0.91515 0.57982 0.0
C381 C 0.30489 0.86057 0.61298 0.0
C382 C 0.26379 0.9199 0.61099 0.0
C383 C 0.25988 0.89561 0.6427 0.0
H384 H 0.1784 0.2894 0.70807 0.0
H385 H 0.25278 0.31835 0.61563 0.0
H386 H 0.20586 0.33798 0.56953 0.0
H387 H 0.14318 0.33899 0.5521 0.0
H388 H 0.06972 0.30638 0.6436 0.0
H389 H 0.11665 0.29685 0.69389 0.0
C390 C 0.18445 0.30041 0.67804 0.0
C391 C 0.219 0.30187 0.66505 0.0
C392 C 0.15739 0.31115 0.65161 0.0
C393 C 0.22638 0.31671 0.62629 0.0
C394 C 0.19955 0.32788 0.59988 0.0
C395 C 0.13757 0.33115 0.58359 0.0
C396 C 0.10321 0.32393 0.59463 0.0
C397 C 0.16488 0.32426 0.61174 0.0
C398 C 0.09604 0.31263 0.63492 0.0
C399 C 0.12286 0.3068 0.66343 0.0
H400 H 0.83773 0.18593 0.71445 0.0
H401 H 0.73736 0.17297 0.76877 0.0
H402 H 0.7261 0.12204 0.72652 0.0
H403 H 0.74213 0.08587 0.66884 0.0
H404 H 0.84172 0.09937 0.61223 0.0
H405 H 0.85638 0.14526 0.66097 0.0
C406 C 0.81391 0.17117 0.71771 0.0
C407 C 0.7885 0.18245 0.7448 0.0
C408 C 0.80737 0.14253 0.69256 0.0
C409 C 0.75733 0.16408 0.74843 0.0
C410 C 0.75083 0.13527 0.72408 0.0
C411 C 0.7672 0.09863 0.6674 0.0
C412 C 0.79062 0.0897 0.63663 0.0
C413 C 0.77522 0.12497 0.69518 0.0
C414 C 0.82323 0.10594 0.63558 0.0
C415 C 0.83154 0.13223 0.66332 0.0
H416 H 0.8627 0.32208 0.33134 0.0
H417 H 0.89477 0.22053 0.29584 0.0
H418 H 0.94729 0.2262 0.33882 0.0
H419 H 0.98072 0.25782 0.3918 0.0
H420 H 0.94956 0.36021 0.4253 0.0
H421 H 0.90013 0.35669 0.37725 0.0
C422 C 0.88144 0.30137 0.33266 0.0
C423 C 0.87478 0.27072 0.311 0.0
C424 C 0.91154 0.30496 0.35712 0.0
C425 C 0.89941 0.24431 0.3123 0.0
C426 C 0.92929 0.2475 0.33702 0.0
C427 C 0.96336 0.27955 0.38811 0.0
C428 C 0.96848 0.3091 0.41238 0.0
C429 C 0.93514 0.27735 0.36036 0.0
C430 C 0.94615 0.33725 0.40693 0.0
C431 C 0.91778 0.33514 0.37968 0.0
H432 H 0.71533 0.85501 0.38437 0.0
H433 H 0.81716 0.87627 0.33714 0.0
H434 H 0.82405 0.9245 0.38477 0.0
H435 H 0.80147 0.95959 0.44157 0.0
H436 H 0.69838 0.93904 0.48569 0.0
H437 H 0.69173 0.89159 0.43764 0.0
C438 C 0.73903 0.87024 0.3844 0.0
C439 C 0.76579 0.86193 0.35751 0.0
C440 C 0.74263 0.89801 0.41146 0.0
C441 C 0.79614 0.88219 0.35752 0.0
C442 C 0.80014 0.90967 0.38487 0.0
C443 C 0.7776 0.94469 0.44058 0.0
C444 C 0.75055 0.95272 0.46733 0.0
C445 C 0.77366 0.91763 0.41228 0.0
C446 C 0.71958 0.93347 0.46539 0.0
C447 C 0.71574 0.90626 0.43797 0.0
H448 H 0.16338 0.69391 0.39107 0.0
H449 H 0.12234 0.76856 0.30342 0.0
H450 H 0.07462 0.78046 0.34914 0.0
H451 H 0.04442 0.77022 0.4147 0.0
H452 H 0.08374 0.69349 0.50057 0.0
H453 H 0.1322 0.68224 0.45535 0.0
C454 C 0.14385 0.71256 0.38184 0.0
C455 C 0.1465 0.73017 0.3438 0.0
C456 C 0.11624 0.71926 0.40825 0.0
C457 C 0.1209 0.75433 0.33236 0.0
C458 C 0.09364 0.7614 0.35864 0.0
C459 C 0.06382 0.75129 0.42352 0.0
C460 C 0.06073 0.7329 0.46091 0.0
C461 C 0.09114 0.74422 0.3968 0.0
C462 C 0.08564 0.70798 0.47182 0.0
C463 C 0.11332 0.70147 0.44598 0.0
H464 H 0.33323 0.15468 0.31974 0.0
H465 H 0.23706 0.1218 0.2625 0.0
H466 H 0.23669 0.06987 0.30607 0.0
H467 H 0.25976 0.03782 0.3663 0.0
H468 H 0.3565 0.06934 0.42277 0.0
H469 H 0.36086 0.11771 0.37334 0.0
C470 C 0.31254 0.13581 0.31627 0.0
C471 C 0.28496 0.14233 0.28828 0.0
C472 C 0.31244 0.10601 0.34154 0.0
C473 C 0.25857 0.11745 0.28377 0.0
C474 C 0.2582 0.08785 0.3089 0.0
C475 C 0.28208 0.05499 0.36727 0.0
C476 C 0.30758 0.05045 0.39831 0.0
C477 C 0.28438 0.08249 0.33879 0.0
C478 C 0.33662 0.07242 0.39907 0.0
C479 C 0.33896 0.10015 0.371 0.0
H480 H 0.66643 0.79469 0.89869 0.0
H481 H 0.63262 0.70865 0.82472 0.0
H482 H 0.58536 0.69686 0.87237 0.0
H483 H 0.55342 0.71118 0.93548 0.0
H484 H 0.58592 0.79938 1.0065 0.0
H485 H 0.63401 0.80987 0.95996 0.0
C486 C 0.64871 0.77338 0.89292 0.0
C487 C 0.65312 0.75258 0.85823 0.0
C488 C 0.62143 0.76697 0.92016 0.0
C489 C 0.62974 0.7252 0.85109 0.0
C490 C 0.60278 0.71832 0.87844 0.0
C491 C 0.57127 0.73247 0.94083 0.0
C492 C 0.56633 0.75434 0.97447 0.0
C493 C 0.59842 0.73897 0.9132 0.0
C494 C 0.58922 0.78221 0.98076 0.0
C495 C 0.6167 0.78826 0.95416 0.0
H496 H 0.20381 0.65992 0.83186 0.0
H497 H 0.30799 0.62821 0.80617 0.0
H498 H 0.29951 0.57561 0.84762 0.0
H499 H 0.26404 0.54109 0.89516 0.0
H500 H 0.15932 0.57166 0.91958 0.0
H501 H 0.16619 0.62214 0.87387 0.0
C502 C 0.2246 0.6414 0.83522 0.0
C503 C 0.2567 0.64814 0.81656 0.0
C504 C 0.21938 0.61109 0.85867 0.0
C505 C 0.28315 0.62364 0.8204 0.0
C506 C 0.27832 0.59364 0.84413 0.0
C507 C 0.24256 0.55859 0.89007 0.0
C508 C 0.21131 0.55292 0.91099 0.0
C509 C 0.24677 0.58744 0.86396 0.0
C510 C 0.18355 0.57546 0.90372 0.0
C511 C 0.1876 0.60443 0.87788 0.0
H512 H 0.36013 0.18623 0.82222 0.0
H513 H 0.40517 0.27556 0.76195 0.0
H514 H 0.45469 0.27334 0.80947 0.0
H515 H 0.48225 0.2498 0.87245 0.0
H516 H 0.43965 0.15893 0.93126 0.0
H517 H 0.39217 0.15774 0.87991 0.0
C518 C 0.38108 0.20484 0.81909 0.0
C519 C 0.37874 0.23125 0.78884 0.0
C520 C 0.40971 0.20332 0.84648 0.0
C521 C 0.40626 0.25496 0.78488 0.0
C522 C 0.43453 0.25386 0.81224 0.0
C523 C 0.46276 0.22949 0.87361 0.0
C524 C 0.464 0.20472 0.90566 0.0
C525 C 0.43603 0.22877 0.8438 0.0
C526 C 0.43907 0.17822 0.90673 0.0
C527 C 0.41191 0.17767 0.87754 0.0
H528 H 0.75324 0.37019 0.84689 0.0
H529 H 0.85374 0.34066 0.89467 0.0
H530 H 0.85123 0.38626 0.94621 0.0
H531 H 0.8205 0.43447 0.97716 0.0
H532 H 0.71841 0.46162 0.93215 0.0
H533 H 0.72127 0.41654 0.88011 0.0
C534 C 0.77474 0.37398 0.86837 0.0
C535 C 0.80394 0.35258 0.86665 0.0
C536 C 0.77264 0.39952 0.89848 0.0
C537 C 0.83117 0.35704 0.8953 0.0
C538 C 0.82969 0.38303 0.92472 0.0
C539 C 0.79885 0.43053 0.95596 0.0
C540 C 0.76937 0.45153 0.95825 0.0
C541 C 0.80055 0.40439 0.92655 0.0
C542 C 0.74133 0.44577 0.93103 0.0
C543 C 0.74304 0.42013 0.90118 0.0
H544 H 0.71974 0.19695 0.15292 0.0
H545 H 0.67718 0.28796 0.20782 0.0
H546 H 0.62696 0.28473 0.16211 0.0
H547 H 0.59538 0.25749 0.10595 0.0
H548 H 0.63478 0.16545 0.05082 0.0
H549 H 0.68558 0.16734 0.09746 0.0
C550 C 0.69944 0.216 0.15475 0.0
C551 C 0.70237 0.24271 0.18376 0.0
C552 C 0.66995 0.21376 0.1285 0.0
C553 C 0.67565 0.26702 0.18603 0.0
C554 C 0.64684 0.26529 0.15982 0.0
C555 C 0.615 0.23772 0.10411 0.0
C556 C 0.61144 0.21154 0.07476 0.0
C557 C 0.64378 0.23893 0.13091 0.0
C558 C 0.63688 0.18586 0.07325 0.0
C559 C 0.66601 0.18707 0.09975 0.0
H560 H 0.71545 0.68616 0.21482 0.0
H561 H 0.81624 0.72622 0.18268 0.0
H562 H 0.82222 0.68093 0.13163 0.0
H563 H 0.80005 0.62878 0.09854 0.0
H564 H 0.69871 0.58917 0.12851 0.0
H565 H 0.69145 0.63589 0.17793 0.0
C566 C 0.73871 0.68498 0.19659 0.0
C567 C 0.76557 0.70926 0.20281 0.0
C568 C 0.74181 0.65909 0.16702 0.0
C569 C 0.79527 0.7078 0.17852 0.0
C570 C 0.79872 0.68189 0.14941 0.0
C571 C 0.7763 0.63039 0.11582 0.0
C572 C 0.75009 0.60538 0.11037 0.0
C573 C 0.77235 0.65723 0.14379 0.0
C574 C 0.71922 0.60814 0.13229 0.0
C575 C 0.71518 0.63472 0.16061 0.0
H576 H 0.30833 0.68468 0.19393 0.0
H577 H 0.35039 0.7611 0.27639 0.0
H578 H 0.40357 0.7643 0.23605 0.0
H579 H 0.43404 0.75094 0.17221 0.0
H580 H 0.39259 0.6738 0.0901 0.0
H581 H 0.3432 0.66457 0.13581 0.0
C582 C 0.32968 0.70121 0.20361 0.0
C583 C 0.3259 0.72256 0.23792 0.0
C584 C 0.35986 0.70297 0.18013 0.0
C585 C 0.35321 0.74423 0.25029 0.0
C586 C 0.38335 0.74623 0.22704 0.0
C587 C 0.41444 0.73168 0.16478 0.0
C588 C 0.41644 0.7134 0.1277 0.0
C589 C 0.38638 0.72661 0.19113 0.0
C590 C 0.3914 0.68814 0.11851 0.0
C591 C 0.36314 0.68306 0.14448 0.0
H592 H 0.19784 0.2947 0.14277 0.0
H593 H 0.26104 0.35332 0.22846 0.0
H594 H 0.24692 0.40629 0.19162 0.0
H595 H 0.22291 0.43536 0.13071 0.0
H596 H 0.15999 0.3789 0.04358 0.0
H597 H 0.16685 0.32606 0.08573 0.0
C598 C 0.20813 0.31912 0.15363 0.0
C599 C 0.23105 0.31973 0.18797 0.0
C600 C 0.19988 0.34999 0.13209 0.0
C601 C 0.24378 0.35175 0.20186 0.0
C602 C 0.23568 0.38225 0.18085 0.0
C603 C 0.20988 0.41166 0.12162 0.0
C604 C 0.19102 0.41086 0.0843 0.0
C605 C 0.21461 0.38156 0.14537 0.0
C606 C 0.17427 0.38014 0.07259 0.0
C607 C 0.17864 0.34986 0.09638 0.0
H608 H 0.35793 0.21435 0.16612 0.0
H609 H 0.3936 0.30582 0.22863 0.0
H610 H 0.44057 0.31273 0.17912 0.0
H611 H 0.47056 0.29331 0.1165 0.0
H612 H 0.43622 0.19962 0.0576 0.0
H613 H 0.38959 0.19314 0.10703 0.0
C614 C 0.37607 0.23574 0.16901 0.0
C615 C 0.37219 0.25966 0.20077 0.0
C616 C 0.40312 0.23926 0.14088 0.0
C617 C 0.39613 0.28699 0.20448 0.0
C618 C 0.42286 0.29105 0.17606 0.0
C619 C 0.45277 0.27157 0.11458 0.0
C620 C 0.45661 0.24712 0.08331 0.0
C621 C 0.42642 0.2675 0.14385 0.0
C622 C 0.43379 0.21875 0.08144 0.0
C623 C 0.4071 0.21503 0.10965 0.0
H624 H 0.82698 0.35606 0.21263 0.0
H625 H 0.72725 0.38944 0.25392 0.0
H626 H 0.73236 0.44218 0.21175 0.0
H627 H 0.76269 0.47564 0.15801 0.0
H628 H 0.86327 0.44329 0.11845 0.0
H629 H 0.86065 0.3934 0.16565 0.0
C630 C 0.80654 0.37511 0.21272 0.0
C631 C 0.77653 0.36874 0.23582 0.0
C632 C 0.80983 0.40538 0.1887 0.0
C633 C 0.75053 0.3938 0.23632 0.0
C634 C 0.7534 0.42383 0.21208 0.0
C635 C 0.78426 0.45792 0.16021 0.0
C636 C 0.81299 0.46285 0.1345 0.0
C637 C 0.78254 0.42944 0.1874 0.0
C638 C 0.84095 0.44004 0.13799 0.0
C639 C 0.83932 0.41141 0.16473 0.0
H640 H 0.61752 0.75115 0.26951 0.0
H641 H 0.67486 0.83812 0.22081 0.0
H642 H 0.62857 0.84949 0.17019 0.0
H643 H 0.57452 0.83067 0.13465 0.0
H644 H 0.5205 0.74049 0.18009 0.0
H645 H 0.56222 0.73466 0.23714 0.0
C646 C 0.61957 0.77301 0.24839 0.0
C647 C 0.64962 0.79369 0.24893 0.0
C648 C 0.59341 0.77867 0.21843 0.0
C649 C 0.65204 0.82169 0.22096 0.0
C650 C 0.6256 0.82818 0.19191 0.0
C651 C 0.5716 0.81029 0.15765 0.0
C652 C 0.54456 0.78608 0.15338 0.0
C653 C 0.59655 0.80629 0.18959 0.0
C654 C 0.54125 0.75935 0.18284 0.0
C655 C 0.56512 0.75596 0.21539 0.0
H656 H 0.25408 0.64544 0.19864 0.0
H657 H 0.16173 0.68149 0.13573 0.0
H658 H 0.16487 0.63337 0.08751 0.0
H659 H 0.19436 0.58151 0.06313 0.0
H660 H 0.28942 0.54863 0.12279 0.0
H661 H 0.28501 0.59547 0.17233 0.0
C662 C 0.23445 0.64259 0.17457 0.0
C663 C 0.20736 0.66661 0.17106 0.0
C664 C 0.23714 0.61567 0.14631 0.0
C665 C 0.18262 0.66314 0.13917 0.0
C666 C 0.18448 0.63571 0.11163 0.0
C667 C 0.21407 0.58454 0.08707 0.0
C668 C 0.24205 0.56145 0.08956 0.0
C669 C 0.21168 0.61189 0.11488 0.0
C670 C 0.26768 0.56605 0.12025 0.0
C671 C 0.26508 0.59273 0.14864 0.0
H672 H 0.35636 0.76784 0.8335 0.0
H673 H 0.27456 0.81129 0.90493 0.0
H674 H 0.31594 0.82313 0.96129 0.0
H675 H 0.37484 0.8158 0.99289 0.0
H676 H 0.45454 0.76924 0.9211 0.0
H677 H 0.41477 0.76443 0.86222 0.0
C678 C 0.34748 0.78019 0.8612 0.0
C679 C 0.31225 0.78831 0.86502 0.0
C680 C 0.37122 0.78641 0.89355 0.0
C681 C 0.30148 0.80461 0.90113 0.0
C682 C 0.32515 0.81133 0.93345 0.0
C683 C 0.38354 0.80544 0.96395 0.0
C684 C 0.41758 0.79306 0.96112 0.0
C685 C 0.36002 0.80169 0.93039 0.0
C686 C 0.42848 0.77902 0.92383 0.0
C687 C 0.40571 0.7761 0.89024 0.0
H688 H 0.30813 0.32942 0.83289 0.0
H689 H 0.20972 0.28469 0.86673 0.0
H690 H 0.20201 0.32979 0.91763 0.0
H691 H 0.22169 0.38333 0.94979 0.0
H692 H 0.32095 0.42738 0.91886 0.0
H693 H 0.33018 0.38079 0.86967 0.0
C694 C 0.28506 0.32953 0.85154 0.0
C695 C 0.25931 0.30401 0.84576 0.0
C696 C 0.28101 0.35531 0.88112 0.0
C697 C 0.22985 0.30407 0.87056 0.0
C698 C 0.22539 0.32988 0.89957 0.0
C699 C 0.24544 0.38266 0.93239 0.0
C700 C 0.27045 0.4089 0.93741 0.0
C701 C 0.25056 0.35583 0.90467 0.0
C702 C 0.30137 0.40742 0.91539 0.0
C703 C 0.30652 0.38092 0.88719 0.0
H704 H 0.68633 0.33321 0.83043 0.0
H705 H 0.67904 0.22979 0.78389 0.0
H706 H 0.62867 0.21806 0.82693 0.0
H707 H 0.59143 0.23507 0.88309 0.0
H708 H 0.59969 0.33763 0.9327 0.0
H709 H 0.6448 0.35218 0.88289 0.0
C710 C 0.67289 0.30855 0.82898 0.0
C711 C 0.68562 0.28248 0.8038 0.0
C712 C 0.64465 0.30175 0.85476 0.0
C713 C 0.66901 0.25025 0.80267 0.0
C714 C 0.64052 0.2435 0.82749 0.0
C715 C 0.60287 0.26074 0.88285 0.0
C716 C 0.59264 0.28508 0.91196 0.0
C717 C 0.62885 0.2687 0.85455 0.0
C718 C 0.60727 0.31839 0.91074 0.0
C719 C 0.6331 0.32667 0.88234 0.0
H720 H 0.78221 0.67247 0.83919 0.0
H721 H 0.8217 0.74712 0.92601 0.0
H722 H 0.8411 0.70041 0.97225 0.0
H723 H 0.83982 0.6383 0.99186 0.0
H724 H 0.79684 0.56486 0.90618 0.0
H725 H 0.78651 0.61093 0.85529 0.0
C726 C 0.79544 0.67861 0.86799 0.0
C727 C 0.80002 0.71329 0.87934 0.0
C728 C 0.80603 0.6517 0.89461 0.0
C729 C 0.81761 0.72067 0.91658 0.0
C730 C 0.82867 0.69395 0.9431 0.0
C731 C 0.82939 0.63242 0.96144 0.0
C732 C 0.81954 0.59834 0.95231 0.0
C733 C 0.82217 0.65935 0.93296 0.0
C734 C 0.80502 0.59094 0.91343 0.0
C735 C 0.7988 0.61729 0.88456 0.0
loop_
_geom_bond_atom_site_label_1
_geom_bond_atom_site_label_2
_geom_bond_distance
_geom_bond_site_symmetry_2
_ccdc_geom_bond_type
C0 O2 1.247 . S
C0 O4 1.258 . S
C1 O8 1.247 . S
C1 O9 1.258 . S
O2 C0 1.247 . S
O2 Zn3 2.028 . S
Zn3 O2 2.028 . S
Zn3 O7 2.035 . S
Zn3 O9 2.035 . S
Zn3 O10 2.028 . S
O4 C0 1.258 . S
O4 Zn5 2.035 . S
Zn5 O4 2.035 . S
Zn5 O6 2.028 . S
Zn5 O8 2.028 . S
Zn5 O11 2.035 . S
O6 Zn5 2.028 . S
O6 C12 1.247 . S
O7 Zn3 2.035 . S
O7 C12 1.258 . S
O8 C1 1.247 . S
O8 Zn5 2.028 . S
O9 C1 1.258 . S
O9 Zn3 2.035 . S
O10 Zn3 2.028 . S
O10 C13 1.247 . S
O11 Zn5 2.035 . S
O11 C13 1.258 . S
C12 O6 1.247 . S
C12 O7 1.258 . S
C13 O10 1.247 . S
C13 O11 1.258 . S
C14 O16 1.247 . S
C14 O18 1.258 . S
C15 O22 1.247 . S
C15 O23 1.258 . S
O16 C14 1.247 . S
O16 Zn17 2.028 . S
Zn17 O16 2.028 . S
Zn17 O21 2.035 . S
Zn17 O23 2.035 . S
Zn17 O24 2.028 . S
O18 C14 1.258 . S
O18 Zn19 2.035 . S
Zn19 O18 2.035 . S
Zn19 O20 2.028 . S
Zn19 O22 2.028 . S
Zn19 O25 2.035 . S
O20 Zn19 2.028 . S
O20 C26 1.247 . S
O21 Zn17 2.035 . S
O21 C26 1.258 . S
O22 C15 1.247 . S
O22 Zn19 2.028 . S
O23 C15 1.258 . S
O23 Zn17 2.035 . S
O24 Zn17 2.028 . S
O24 C27 1.247 . S
O25 Zn19 2.035 . S
O25 C27 1.258 . S
C26 O20 1.247 . S
C26 O21 1.258 . S
C27 O24 1.247 . S
C27 O25 1.258 . S
C28 O30 1.247 . S
C28 O32 1.258 . S
C29 O36 1.247 . S
C29 O37 1.258 . S
O30 C28 1.247 . S
O30 Zn31 2.028 . S
Zn31 O30 2.028 . S
Zn31 O35 2.035 . S
Zn31 O37 2.035 . S
Zn31 O38 2.028 . S
O32 C28 1.258 . S
O32 Zn33 2.035 . S
Zn33 O32 2.035 . S
Zn33 O34 2.028 . S
Zn33 O36 2.028 . S
Zn33 O39 2.035 . S
O34 Zn33 2.028 . S
O34 C40 1.247 . S
O35 Zn31 2.035 . S
O35 C40 1.258 . S
O36 C29 1.247 . S
O36 Zn33 2.028 . S
O37 C29 1.258 . S
O37 Zn31 2.035 . S
O38 Zn31 2.028 . S
O38 C41 1.247 . S
O39 Zn33 2.035 . S
O39 C41 1.258 . S
C40 O34 1.247 . S
C40 O35 1.258 . S
C41 O38 1.247 . S
C41 O39 1.258 . S
C42 O44 1.247 . S
C42 O46 1.258 . S
C43 O50 1.247 . S
C43 O51 1.258 . S
O44 C42 1.247 . S
O44 Zn45 2.028 . S
Zn45 O44 2.028 . S
Zn45 O49 2.035 . S
Zn45 O51 2.035 . S
Zn45 O52 2.028 . S
O46 C42 1.258 . S
O46 Zn47 2.035 . S
Zn47 O46 2.035 . S
Zn47 O48 2.028 . S
Zn47 O50 2.028 . S
Zn47 O53 2.035 . S
O48 Zn47 2.028 . S
O48 C54 1.247 . S
O49 Zn45 2.035 . S
O49 C54 1.258 . S
O50 C43 1.247 . S
O50 Zn47 2.028 . S
O51 C43 1.258 . S
O51 Zn45 2.035 . S
O52 Zn45 2.028 . S
O52 C55 1.247 . S
O53 Zn47 2.035 . S
O53 C55 1.258 . S
C54 O48 1.247 . S
C54 O49 1.258 . S
C55 O52 1.247 . S
C55 O53 1.258 . S
C56 O58 1.247 . S
C56 O60 1.258 . S
C57 O64 1.247 . S
C57 O65 1.258 . S
O58 C56 1.247 . S
O58 Zn59 2.028 . S
Zn59 O58 2.028 . S
Zn59 O63 2.035 . S
Zn59 O65 2.035 . S
Zn59 O66 2.028 . S
O60 C56 1.258 . S
O60 Zn61 2.035 . S
Zn61 O60 2.035 . S
Zn61 O62 2.028 . S
Zn61 O64 2.028 . S
Zn61 O67 2.035 . S
O62 Zn61 2.028 . S
O62 C68 1.247 . S
O63 Zn59 2.035 . S
O63 C68 1.258 . S
O64 C57 1.247 . S
O64 Zn61 2.028 . S
O65 C57 1.258 . S
O65 Zn59 2.035 . S
O66 Zn59 2.028 . S
O66 C69 1.247 . S
O67 Zn61 2.035 . S
O67 C69 1.258 . S
C68 O62 1.247 . S
C68 O63 1.258 . S
C69 O66 1.247 . S
C69 O67 1.258 . S
C70 O72 1.247 . S
C70 O74 1.258 . S
C71 O78 1.247 . S
C71 O79 1.258 . S
O72 C70 1.247 . S
O72 Zn73 2.028 . S
Zn73 O72 2.028 . S
Zn73 O77 2.035 . S
Zn73 O79 2.035 . S
Zn73 O80 2.028 . S
O74 C70 1.258 . S
O74 Zn75 2.035 . S
Zn75 O74 2.035 . S
Zn75 O76 2.028 . S
Zn75 O78 2.028 . S
Zn75 O81 2.035 . S
O76 Zn75 2.028 . S
O76 C82 1.247 . S
O77 Zn73 2.035 . S
O77 C82 1.258 . S
O78 C71 1.247 . S
O78 Zn75 2.028 . S
O79 C71 1.258 . S
O79 Zn73 2.035 . S
O80 Zn73 2.028 . S
O80 C83 1.247 . S
O81 Zn75 2.035 . S
O81 C83 1.258 . S
C82 O76 1.247 . S
C82 O77 1.258 . S
C83 O80 1.247 . S
C83 O81 1.258 . S
C84 O86 1.247 . S
C84 O88 1.258 . S
C85 O92 1.247 . S
C85 O93 1.258 . S
O86 C84 1.247 . S
O86 Zn87 2.028 . S
Zn87 O86 2.028 . S
Zn87 O91 2.035 . S
Zn87 O93 2.035 . S
Zn87 O94 2.028 . S
O88 C84 1.258 . S
O88 Zn89 2.035 . S
Zn89 O88 2.035 . S
Zn89 O90 2.028 . S
Zn89 O92 2.028 . S
Zn89 O95 2.035 . S
O90 Zn89 2.028 . S
O90 C96 1.247 . S
O91 Zn87 2.035 . S
O91 C96 1.258 . S
O92 C85 1.247 . S
O92 Zn89 2.028 . S
O93 C85 1.258 . S
O93 Zn87 2.035 . S
O94 Zn87 2.028 . S
O94 C97 1.247 . S
O95 Zn89 2.035 . S
O95 C97 1.258 . S
C96 O90 1.247 . S
C96 O91 1.258 . S
C97 O94 1.247 . S
C97 O95 1.258 . S
C98 O100 1.247 . S
C98 O102 1.258 . S
C99 O106 1.247 . S
C99 O107 1.258 . S
O100 C98 1.247 . S
O100 Zn101 2.028 . S
Zn101 O100 2.028 . S
Zn101 O105 2.035 . S
Zn101 O107 2.035 . S
Zn101 O108 2.028 . S
O102 C98 1.258 . S
O102 Zn103 2.035 . S
Zn103 O102 2.035 . S
Zn103 O104 2.028 . S
Zn103 O106 2.028 . S
Zn103 O109 2.035 . S
O104 Zn103 2.028 . S
O104 C110 1.247 . S
O105 Zn101 2.035 . S
O105 C110 1.258 . S
O106 C99 1.247 . S
O106 Zn103 2.028 . S
O107 C99 1.258 . S
O107 Zn101 2.035 . S
O108 Zn101 2.028 . S
O108 C111 1.247 . S
O109 Zn103 2.035 . S
O109 C111 1.258 . S
C110 O104 1.247 . S
C110 O105 1.258 . S
C111 O108 1.247 . S
C111 O109 1.258 . S
C112 O114 1.247 . S
C112 O116 1.258 . S
C113 O120 1.247 . S
C113 O121 1.258 . S
O114 C112 1.247 . S
O114 Zn115 2.030 . S
Zn115 O114 2.030 . S
Zn115 O119 2.033 1_655 S
Zn115 O121 2.033 1_655 S
Zn115 O122 2.030 . S
O116 C112 1.258 . S
O116 Zn117 2.028 1_655 S
Zn117 O116 2.028 1_455 S
Zn117 O118 2.035 . S
Zn117 O120 2.035 . S
Zn117 O123 2.028 1_455 S
O118 Zn117 2.035 . S
O118 C124 1.247 . S
O119 Zn115 2.033 1_455 S
O119 C124 1.258 . S
O120 C113 1.247 . S
O120 Zn117 2.035 . S
O121 C113 1.258 . S
O121 Zn115 2.033 1_455 S
O122 Zn115 2.030 . S
O122 C125 1.247 . S
O123 Zn117 2.028 1_655 S
O123 C125 1.258 . S
C124 O118 1.247 . S
C124 O119 1.258 . S
C125 O122 1.247 . S
C125 O123 1.258 . S
C126 O128 1.247 . S
C126 O130 1.258 . S
C127 O134 1.247 . S
C127 O135 1.258 . S
O128 C126 1.247 . S
O128 Zn129 2.035 . S
Zn129 O128 2.035 . S
Zn129 O133 2.028 1_545 S
Zn129 O135 2.028 1_545 S
Zn129 O136 2.035 . S
O130 C126 1.258 . S
O130 Zn131 2.033 1_545 S
Zn131 O130 2.033 1_565 S
Zn131 O132 2.030 . S
Zn131 O134 2.030 . S
Zn131 O137 2.033 1_565 S
O132 Zn131 2.030 . S
O132 C138 1.247 . S
O133 Zn129 2.028 1_565 S
O133 C138 1.258 . S
O134 C127 1.247 . S
O134 Zn131 2.030 . S
O135 C127 1.258 . S
O135 Zn129 2.028 1_565 S
O136 Zn129 2.035 . S
O136 C139 1.247 . S
O137 Zn131 2.033 1_545 S
O137 C139 1.258 . S
C138 O132 1.247 . S
C138 O133 1.258 . S
C139 O136 1.247 . S
C139 O137 1.258 . S
C140 O142 1.247 . S
C140 O144 1.258 . S
C141 O148 1.247 . S
C141 O149 1.258 . S
O142 C140 1.247 . S
O142 Zn143 2.030 . S
Zn143 O142 2.030 . S
Zn143 O147 2.033 1_655 S
Zn143 O149 2.033 1_655 S
Zn143 O150 2.030 . S
O144 C140 1.258 . S
O144 Zn145 2.028 1_655 S
Zn145 O144 2.028 1_455 S
Zn145 O146 2.035 . S
Zn145 O148 2.035 . S
Zn145 O151 2.028 1_455 S
O146 Zn145 2.035 . S
O146 C152 1.247 . S
O147 Zn143 2.033 1_455 S
O147 C152 1.258 . S
O148 C141 1.247 . S
O148 Zn145 2.035 . S
O149 C141 1.258 . S
O149 Zn143 2.033 1_455 S
O150 Zn143 2.030 . S
O150 C153 1.247 . S
O151 Zn145 2.028 1_655 S
O151 C153 1.258 . S
C152 O146 1.247 . S
C152 O147 1.258 . S
C153 O150 1.247 . S
C153 O151 1.258 . S
C154 O156 1.247 . S
C154 O158 1.258 . S
C155 O162 1.247 . S
C155 O163 1.258 . S
O156 C154 1.247 . S
O156 Zn157 2.035 . S
Zn157 O156 2.035 . S
Zn157 O161 2.028 1_545 S
Zn157 O163 2.028 1_545 S
Zn157 O164 2.035 . S
O158 C154 1.258 . S
O158 Zn159 2.033 1_545 S
Zn159 O158 2.033 1_565 S
Zn159 O160 2.030 . S
Zn159 O162 2.030 . S
Zn159 O165 2.033 1_565 S
O160 Zn159 2.030 . S
O160 C166 1.247 . S
O161 Zn157 2.028 1_565 S
O161 C166 1.258 . S
O162 C155 1.247 . S
O162 Zn159 2.030 . S
O163 C155 1.258 . S
O163 Zn157 2.028 1_565 S
O164 Zn157 2.035 . S
O164 C167 1.247 . S
O165 Zn159 2.033 1_545 S
O165 C167 1.258 . S
C166 O160 1.247 . S
C166 O161 1.258 . S
C167 O164 1.247 . S
C167 O165 1.258 . S
C168 O170 1.247 . S
C168 O172 1.258 . S
C169 O176 1.247 . S
C169 O177 1.258 . S
O170 C168 1.247 . S
O170 Zn171 2.028 . S
Zn171 O170 2.028 . S
Zn171 O175 2.035 . S
Zn171 O177 2.035 1_554 S
Zn171 O178 2.028 1_554 S
O172 C168 1.258 . S
O172 Zn173 2.035 . S
Zn173 O172 2.035 . S
Zn173 O174 2.028 . S
Zn173 O176 2.028 1_554 S
Zn173 O179 2.035 1_554 S
O174 Zn173 2.028 . S
O174 C180 1.247 . S
O175 Zn171 2.035 . S
O175 C180 1.258 . S
O176 C169 1.247 . S
O176 Zn173 2.028 1_556 S
O177 C169 1.258 . S
O177 Zn171 2.035 1_556 S
O178 Zn171 2.028 1_556 S
O178 C181 1.247 . S
O179 Zn173 2.035 1_556 S
O179 C181 1.258 . S
C180 O174 1.247 . S
C180 O175 1.258 . S
C181 O178 1.247 . S
C181 O179 1.258 . S
C182 O184 1.247 . S
C182 O186 1.258 . S
C183 O190 1.247 . S
C183 O191 1.258 . S
O184 C182 1.247 . S
O184 Zn185 2.028 . S
Zn185 O184 2.028 . S
Zn185 O189 2.035 . S
Zn185 O191 2.035 1_554 S
Zn185 O192 2.028 1_554 S
O186 C182 1.258 . S
O186 Zn187 2.035 . S
Zn187 O186 2.035 . S
Zn187 O188 2.028 . S
Zn187 O190 2.028 1_554 S
Zn187 O193 2.035 1_554 S
O188 Zn187 2.028 . S
O188 C194 1.247 . S
O189 Zn185 2.035 . S
O189 C194 1.258 . S
O190 C183 1.247 . S
O190 Zn187 2.028 1_556 S
O191 C183 1.258 . S
O191 Zn185 2.035 1_556 S
O192 Zn185 2.028 1_556 S
O192 C195 1.247 . S
O193 Zn187 2.035 1_556 S
O193 C195 1.258 . S
C194 O188 1.247 . S
C194 O189 1.258 . S
C195 O192 1.247 . S
C195 O193 1.258 . S
C196 O198 1.247 . S
C196 O200 1.258 . S
C197 O204 1.247 . S
C197 O205 1.258 . S
O198 C196 1.247 . S
O198 Zn199 2.028 1_556 S
Zn199 O198 2.028 1_554 S
Zn199 O203 2.035 1_554 S
Zn199 O205 2.035 . S
Zn199 O206 2.028 . S
O200 C196 1.258 . S
O200 Zn201 2.035 1_556 S
Zn201 O200 2.035 1_554 S
Zn201 O202 2.028 1_554 S
Zn201 O204 2.028 . S
Zn201 O207 2.035 . S
O202 Zn201 2.028 1_556 S
O202 C208 1.247 . S
O203 Zn199 2.035 1_556 S
O203 C208 1.258 . S
O204 C197 1.247 . S
O204 Zn201 2.028 . S
O205 C197 1.258 . S
O205 Zn199 2.035 . S
O206 Zn199 2.028 . S
O206 C209 1.247 . S
O207 Zn201 2.035 . S
O207 C209 1.258 . S
C208 O202 1.247 . S
C208 O203 1.258 . S
C209 O206 1.247 . S
C209 O207 1.258 . S
C210 O212 1.247 . S
C210 O214 1.258 . S
C211 O218 1.247 . S
C211 O219 1.258 . S
O212 C210 1.247 . S
O212 Zn213 2.028 . S
Zn213 O212 2.028 . S
Zn213 O217 2.035 . S
Zn213 O219 2.035 1_554 S
Zn213 O220 2.028 1_554 S
O214 C210 1.258 . S
O214 Zn215 2.035 . S
Zn215 O214 2.035 . S
Zn215 O216 2.028 . S
Zn215 O218 2.028 1_554 S
Zn215 O221 2.035 1_554 S
O216 Zn215 2.028 . S
O216 C222 1.247 . S
O217 Zn213 2.035 . S
O217 C222 1.258 . S
O218 C211 1.247 . S
O218 Zn215 2.028 1_556 S
O219 C211 1.258 . S
O219 Zn213 2.035 1_556 S
O220 Zn213 2.028 1_556 S
O220 C223 1.247 . S
O221 Zn215 2.035 1_556 S
O221 C223 1.258 . S
C222 O216 1.247 . S
C222 O217 1.258 . S
C223 O220 1.247 . S
C223 O221 1.258 . S
H224 C230 0.930 . S
H225 C233 0.930 . S
H226 C234 0.930 . S
H227 C235 0.930 . S
H228 C238 0.930 . S
H229 C239 0.930 . S
C230 H224 0.930 . S
C230 C231 1.355 . S
C230 C232 1.415 . S
C231 C230 1.355 . S
C231 C233 1.419 . S
C232 C230 1.415 . S
C232 C237 1.425 . S
C232 C239 1.409 . S
C233 H225 0.930 . S
C233 C231 1.419 . S
C233 C234 1.362 . S
C234 H226 0.930 . S
C234 C233 1.362 . S
C234 C237 1.409 . S
C235 H227 0.930 . S
C235 C236 1.355 . S
C235 C237 1.415 . S
C236 C235 1.355 . S
C236 C238 1.419 . S
C237 C232 1.425 . S
C237 C234 1.409 . S
C237 C235 1.415 . S
C238 H228 0.930 . S
C238 C236 1.419 . S
C238 C239 1.362 . S
C239 H229 0.930 . S
C239 C232 1.409 . S
C239 C238 1.362 . S
H240 C246 0.930 . S
H241 C249 0.930 . S
H242 C250 0.930 . S
H243 C251 0.930 . S
H244 C254 0.930 . S
H245 C255 0.930 . S
C246 H240 0.930 . S
C246 C247 1.355 . S
C246 C248 1.415 . S
C247 C246 1.355 . S
C247 C249 1.419 . S
C248 C246 1.415 . S
C248 C253 1.425 . S
C248 C255 1.409 . S
C249 H241 0.930 . S
C249 C247 1.419 . S
C249 C250 1.362 . S
C250 H242 0.930 . S
C250 C249 1.362 . S
C250 C253 1.409 . S
C251 H243 0.930 . S
C251 C252 1.355 . S
C251 C253 1.415 . S
C252 C251 1.355 . S
C252 C254 1.419 . S
C253 C248 1.425 . S
C253 C250 1.409 . S
C253 C251 1.415 . S
C254 H244 0.930 . S
C254 C252 1.419 . S
C254 C255 1.362 . S
C255 H245 0.930 . S
C255 C248 1.409 . S
C255 C254 1.362 . S
H256 C262 0.930 . S
H257 C265 0.930 . S
H258 C266 0.930 . S
H259 C267 0.930 . S
H260 C270 0.930 . S
H261 C271 0.930 . S
C262 H256 0.930 . S
C262 C263 1.355 . S
C262 C264 1.415 . S
C263 C262 1.355 . S
C263 C265 1.419 . S
C264 C262 1.415 . S
C264 C269 1.425 . S
C264 C271 1.409 . S
C265 H257 0.930 . S
C265 C263 1.419 . S
C265 C266 1.362 . S
C266 H258 0.930 . S
C266 C265 1.362 . S
C266 C269 1.409 . S
C267 H259 0.930 . S
C267 C268 1.355 . S
C267 C269 1.415 . S
C268 C267 1.355 . S
C268 C270 1.419 . S
C269 C264 1.425 . S
C269 C266 1.409 . S
C269 C267 1.415 . S
C270 H260 0.930 . S
C270 C268 1.419 . S
C270 C271 1.362 . S
C271 H261 0.930 . S
C271 C264 1.409 . S
C271 C270 1.362 . S
H272 C278 0.930 . S
H273 C281 0.930 . S
H274 C282 0.930 . S
H275 C283 0.930 . S
H276 C286 0.930 . S
H277 C287 0.930 . S
C278 H272 0.930 . S
C278 C279 1.355 . S
C278 C280 1.415 . S
C279 C278 1.355 . S
C279 C281 1.419 . S
C280 C278 1.415 . S
C280 C285 1.425 . S
C280 C287 1.409 . S
C281 H273 0.930 . S
C281 C279 1.419 . S
C281 C282 1.362 . S
C282 H274 0.930 . S
C282 C281 1.362 . S
C282 C285 1.409 . S
C283 H275 0.930 . S
C283 C284 1.355 . S
C283 C285 1.415 . S
C284 C283 1.355 . S
C284 C286 1.419 . S
C285 C280 1.425 . S
C285 C282 1.409 . S
C285 C283 1.415 . S
C286 H276 0.930 . S
C286 C284 1.419 . S
C286 C287 1.362 . S
C287 H277 0.930 . S
C287 C280 1.409 . S
C287 C286 1.362 . S
H288 C294 0.930 . S
H289 C297 0.930 . S
H290 C298 0.930 . S
H291 C299 0.930 . S
H292 C302 0.930 . S
H293 C303 0.930 . S
C294 H288 0.930 . S
C294 C295 1.355 . S
C294 C296 1.415 . S
C295 C294 1.355 . S
C295 C297 1.419 . S
C296 C294 1.415 . S
C296 C301 1.425 . S
C296 C303 1.409 . S
C297 H289 0.930 . S
C297 C295 1.419 . S
C297 C298 1.362 . S
C298 H290 0.930 . S
C298 C297 1.362 . S
C298 C301 1.409 . S
C299 H291 0.930 . S
C299 C300 1.355 . S
C299 C301 1.415 . S
C300 C299 1.355 . S
C300 C302 1.419 . S
C301 C296 1.425 . S
C301 C298 1.409 . S
C301 C299 1.415 . S
C302 H292 0.930 . S
C302 C300 1.419 . S
C302 C303 1.362 . S
C303 H293 0.930 . S
C303 C296 1.409 . S
C303 C302 1.362 . S
H304 C310 0.930 . S
H305 C313 0.930 . S
H306 C314 0.930 . S
H307 C315 0.930 . S
H308 C318 0.930 . S
H309 C319 0.930 . S
C310 H304 0.930 . S
C310 C311 1.355 . S
C310 C312 1.415 . S
C311 C310 1.355 . S
C311 C313 1.419 . S
C312 C310 1.415 . S
C312 C317 1.425 . S
C312 C319 1.409 . S
C313 H305 0.930 . S
C313 C311 1.419 . S
C313 C314 1.362 . S
C314 H306 0.930 . S
C314 C313 1.362 . S
C314 C317 1.409 . S
C315 H307 0.930 . S
C315 C316 1.355 . S
C315 C317 1.415 . S
C316 C315 1.355 . S
C316 C318 1.419 . S
C317 C312 1.425 . S
C317 C314 1.409 . S
C317 C315 1.415 . S
C318 H308 0.930 . S
C318 C316 1.419 . S
C318 C319 1.362 . S
C319 H309 0.930 . S
C319 C312 1.409 . S
C319 C318 1.362 . S
H320 C326 0.930 . S
H321 C329 0.930 . S
H322 C330 0.930 . S
H323 C331 0.930 . S
H324 C334 0.930 . S
H325 C335 0.930 . S
C326 H320 0.930 . S
C326 C327 1.355 . S
C326 C328 1.415 . S
C327 C326 1.355 . S
C327 C329 1.419 . S
C328 C326 1.415 . S
C328 C333 1.425 . S
C328 C335 1.409 . S
C329 H321 0.930 . S
C329 C327 1.419 . S
C329 C330 1.362 . S
C330 H322 0.930 . S
C330 C329 1.362 . S
C330 C333 1.409 . S
C331 H323 0.930 . S
C331 C332 1.355 . S
C331 C333 1.415 . S
C332 C331 1.355 . S
C332 C334 1.419 . S
C333 C328 1.425 . S
C333 C330 1.409 . S
C333 C331 1.415 . S
C334 H324 0.930 . S
C334 C332 1.419 . S
C334 C335 1.362 . S
C335 H325 0.930 . S
C335 C328 1.409 . S
C335 C334 1.362 . S
H336 C342 0.930 . S
H337 C345 0.930 . S
H338 C346 0.930 . S
H339 C347 0.930 . S
H340 C350 0.930 . S
H341 C351 0.930 . S
C342 H336 0.930 . S
C342 C343 1.355 . S
C342 C344 1.415 . S
C343 C342 1.355 . S
C343 C345 1.419 . S
C344 C342 1.415 . S
C344 C349 1.425 . S
C344 C351 1.409 . S
C345 H337 0.930 . S
C345 C343 1.419 . S
C345 C346 1.362 . S
C346 H338 0.930 . S
C346 C345 1.362 . S
C346 C349 1.409 . S
C347 H339 0.930 . S
C347 C348 1.355 . S
C347 C349 1.415 . S
C348 C347 1.355 . S
C348 C350 1.419 . S
C349 C344 1.425 . S
C349 C346 1.409 . S
C349 C347 1.415 . S
C350 H340 0.930 . S
C350 C348 1.419 . S
C350 C351 1.362 . S
C351 H341 0.930 . S
C351 C344 1.409 . S
C351 C350 1.362 . S
H352 C358 0.930 . S
H353 C361 0.930 . S
H354 C362 0.930 . S
H355 C363 0.930 . S
H356 C366 0.930 . S
H357 C367 0.930 . S
C358 H352 0.930 . S
C358 C359 1.355 . S
C358 C360 1.415 . S
C359 C358 1.355 . S
C359 C361 1.419 . S
C360 C358 1.415 . S
C360 C365 1.425 . S
C360 C367 1.409 . S
C361 H353 0.930 . S
C361 C359 1.419 . S
C361 C362 1.362 . S
C362 H354 0.930 . S
C362 C361 1.362 . S
C362 C365 1.409 . S
C363 H355 0.930 . S
C363 C364 1.355 . S
C363 C365 1.415 . S
C364 C363 1.355 . S
C364 C366 1.419 . S
C365 C360 1.425 . S
C365 C362 1.409 . S
C365 C363 1.415 . S
C366 H356 0.930 . S
C366 C364 1.419 . S
C366 C367 1.362 . S
C367 H357 0.930 . S
C367 C360 1.409 . S
C367 C366 1.362 . S
H368 C374 0.930 . S
H369 C377 0.930 . S
H370 C378 0.930 . S
H371 C379 0.930 . S
H372 C382 0.930 . S
H373 C383 0.930 . S
C374 H368 0.930 . S
C374 C375 1.355 . S
C374 C376 1.415 . S
C375 C374 1.355 . S
C375 C377 1.419 . S
C376 C374 1.415 . S
C376 C381 1.425 . S
C376 C383 1.409 . S
C377 H369 0.930 . S
C377 C375 1.419 . S
C377 C378 1.362 . S
C378 H370 0.930 . S
C378 C377 1.362 . S
C378 C381 1.409 . S
C379 H371 0.930 . S
C379 C380 1.355 . S
C379 C381 1.415 . S
C380 C379 1.355 . S
C380 C382 1.419 . S
C381 C376 1.425 . S
C381 C378 1.409 . S
C381 C379 1.415 . S
C382 H372 0.930 . S
C382 C380 1.419 . S
C382 C383 1.362 . S
C383 H373 0.930 . S
C383 C376 1.409 . S
C383 C382 1.362 . S
H384 C390 0.930 . S
H385 C393 0.930 . S
H386 C394 0.930 . S
H387 C395 0.930 . S
H388 C398 0.930 . S
H389 C399 0.930 . S
C390 H384 0.930 . S
C390 C391 1.355 . S
C390 C392 1.415 . S
C391 C390 1.355 . S
C391 C393 1.419 . S
C392 C390 1.415 . S
C392 C397 1.425 . S
C392 C399 1.409 . S
C393 H385 0.930 . S
C393 C391 1.419 . S
C393 C394 1.362 . S
C394 H386 0.930 . S
C394 C393 1.362 . S
C394 C397 1.409 . S
C395 H387 0.930 . S
C395 C396 1.355 . S
C395 C397 1.415 . S
C396 C395 1.355 . S
C396 C398 1.419 . S
C397 C392 1.425 . S
C397 C394 1.409 . S
C397 C395 1.415 . S
C398 H388 0.930 . S
C398 C396 1.419 . S
C398 C399 1.362 . S
C399 H389 0.930 . S
C399 C392 1.409 . S
C399 C398 1.362 . S
H400 C406 0.930 . S
H401 C409 0.930 . S
H402 C410 0.930 . S
H403 C411 0.930 . S
H404 C414 0.930 . S
H405 C415 0.930 . S
C406 H400 0.930 . S
C406 C407 1.355 . S
C406 C408 1.415 . S
C407 C406 1.355 . S
C407 C409 1.419 . S
C408 C406 1.415 . S
C408 C413 1.425 . S
C408 C415 1.409 . S
C409 H401 0.930 . S
C409 C407 1.419 . S
C409 C410 1.362 . S
C410 H402 0.930 . S
C410 C409 1.362 . S
C410 C413 1.409 . S
C411 H403 0.930 . S
C411 C412 1.355 . S
C411 C413 1.415 . S
C412 C411 1.355 . S
C412 C414 1.419 . S
C413 C408 1.425 . S
C413 C410 1.409 . S
C413 C411 1.415 . S
C414 H404 0.930 . S
C414 C412 1.419 . S
C414 C415 1.362 . S
C415 H405 0.930 . S
C415 C408 1.409 . S
C415 C414 1.362 . S
H416 C422 0.930 . S
H417 C425 0.930 . S
H418 C426 0.930 . S
H419 C427 0.930 . S
H420 C430 0.930 . S
H421 C431 0.930 . S
C422 H416 0.930 . S
C422 C423 1.355 . S
C422 C424 1.415 . S
C423 C422 1.355 . S
C423 C425 1.419 . S
C424 C422 1.415 . S
C424 C429 1.425 . S
C424 C431 1.409 . S
C425 H417 0.930 . S
C425 C423 1.419 . S
C425 C426 1.362 . S
C426 H418 0.930 . S
C426 C425 1.362 . S
C426 C429 1.409 . S
C427 H419 0.930 . S
C427 C428 1.355 . S
C427 C429 1.415 . S
C428 C427 1.355 . S
C428 C430 1.419 . S
C429 C424 1.425 . S
C429 C426 1.409 . S
C429 C427 1.415 . S
C430 H420 0.930 . S
C430 C428 1.419 . S
C430 C431 1.362 . S
C431 H421 0.930 . S
C431 C424 1.409 . S
C431 C430 1.362 . S
H432 C438 0.930 . S
H433 C441 0.930 . S
H434 C442 0.930 . S
H435 C443 0.930 . S
H436 C446 0.930 . S
H437 C447 0.930 . S
C438 H432 0.930 . S
C438 C439 1.355 . S
C438 C440 1.415 . S
C439 C438 1.355 . S
C439 C441 1.419 . S
C440 C438 1.415 . S
C440 C445 1.425 . S
C440 C447 1.409 . S
C441 H433 0.930 . S
C441 C439 1.419 . S
C441 C442 1.362 . S
C442 H434 0.930 . S
C442 C441 1.362 . S
C442 C445 1.409 . S
C443 H435 0.930 . S
C443 C444 1.355 . S
C443 C445 1.415 . S
C444 C443 1.355 . S
C444 C446 1.419 . S
C445 C440 1.425 . S
C445 C442 1.409 . S
C445 C443 1.415 . S
C446 H436 0.930 . S
C446 C444 1.419 . S
C446 C447 1.362 . S
C447 H437 0.930 . S
C447 C440 1.409 . S
C447 C446 1.362 . S
H448 C454 0.930 . S
H449 C457 0.930 . S
H450 C458 0.930 . S
H451 C459 0.930 . S
H452 C462 0.930 . S
H453 C463 0.930 . S
C454 H448 0.930 . S
C454 C455 1.355 . S
C454 C456 1.415 . S
C455 C454 1.355 . S
C455 C457 1.419 . S
C456 C454 1.415 . S
C456 C461 1.425 . S
C456 C463 1.409 . S
C457 H449 0.930 . S
C457 C455 1.419 . S
C457 C458 1.362 . S
C458 H450 0.930 . S
C458 C457 1.362 . S
C458 C461 1.409 . S
C459 H451 0.930 . S
C459 C460 1.355 . S
C459 C461 1.415 . S
C460 C459 1.355 . S
C460 C462 1.419 . S
C461 C456 1.425 . S
C461 C458 1.409 . S
C461 C459 1.415 . S
C462 H452 0.930 . S
C462 C460 1.419 . S
C462 C463 1.362 . S
C463 H453 0.930 . S
C463 C456 1.409 . S
C463 C462 1.362 . S
H464 C470 0.930 . S
H465 C473 0.930 . S
H466 C474 0.930 . S
H467 C475 0.930 . S
H468 C478 0.930 . S
H469 C479 0.930 . S
C470 H464 0.930 . S
C470 C471 1.355 . S
C470 C472 1.415 . S
C471 C470 1.355 . S
C471 C473 1.419 . S
C472 C470 1.415 . S
C472 C477 1.425 . S
C472 C479 1.409 . S
C473 H465 0.930 . S
C473 C471 1.419 . S
C473 C474 1.362 . S
C474 H466 0.930 . S
C474 C473 1.362 . S
C474 C477 1.409 . S
C475 H467 0.930 . S
C475 C476 1.355 . S
C475 C477 1.415 . S
C476 C475 1.355 . S
C476 C478 1.419 . S
C477 C472 1.425 . S
C477 C474 1.409 . S
C477 C475 1.415 . S
C478 H468 0.930 . S
C478 C476 1.419 . S
C478 C479 1.362 . S
C479 H469 0.930 . S
C479 C472 1.409 . S
C479 C478 1.362 . S
H480 C486 0.930 . S
H481 C489 0.930 . S
H482 C490 0.930 . S
H483 C491 0.930 . S
H484 C494 0.930 . S
H485 C495 0.930 . S
C486 H480 0.930 . S
C486 C487 1.355 . S
C486 C488 1.415 . S
C487 C486 1.355 . S
C487 C489 1.419 . S
C488 C486 1.415 . S
C488 C493 1.425 . S
C488 C495 1.409 . S
C489 H481 0.930 . S
C489 C487 1.419 . S
C489 C490 1.362 . S
C490 H482 0.930 . S
C490 C489 1.362 . S
C490 C493 1.409 . S
C491 H483 0.930 . S
C491 C492 1.355 . S
C491 C493 1.415 . S
C492 C491 1.355 . S
C492 C494 1.419 . S
C493 C488 1.425 . S
C493 C490 1.409 . S
C493 C491 1.415 . S
C494 H484 0.930 . S
C494 C492 1.419 . S
C494 C495 1.362 . S
C495 H485 0.930 . S
C495 C488 1.409 . S
C495 C494 1.362 . S
H496 C502 0.930 . S
H497 C505 0.930 . S
H498 C506 0.930 . S
H499 C507 0.930 . S
H500 C510 0.930 . S
H501 C511 0.930 . S
C502 H496 0.930 . S
C502 C503 1.355 . S
C502 C504 1.415 . S
C503 C502 1.355 . S
C503 C505 1.419 . S
C504 C502 1.415 . S
C504 C509 1.425 . S
C504 C511 1.409 . S
C505 H497 0.930 . S
C505 C503 1.419 . S
C505 C506 1.362 . S
C506 H498 0.930 . S
C506 C505 1.362 . S
C506 C509 1.409 . S
C507 H499 0.930 . S
C507 C508 1.355 . S
C507 C509 1.415 . S
C508 C507 1.355 . S
C508 C510 1.419 . S
C509 C504 1.425 . S
C509 C506 1.409 . S
C509 C507 1.415 . S
C510 H500 0.930 . S
C510 C508 1.419 . S
C510 C511 1.362 . S
C511 H501 0.930 . S
C511 C504 1.409 . S
C511 C510 1.362 . S
H512 C518 0.930 . S
H513 C521 0.930 . S
H514 C522 0.930 . S
H515 C523 0.930 . S
H516 C526 0.930 . S
H517 C527 0.930 . S
C518 H512 0.930 . S
C518 C519 1.355 . S
C518 C520 1.415 . S
C519 C518 1.355 . S
C519 C521 1.419 . S
C520 C518 1.415 . S
C520 C525 1.425 . S
C520 C527 1.409 . S
C521 H513 0.930 . S
C521 C519 1.419 . S
C521 C522 1.362 . S
C522 H514 0.930 . S
C522 C521 1.362 . S
C522 C525 1.409 . S
C523 H515 0.930 . S
C523 C524 1.355 . S
C523 C525 1.415 . S
C524 C523 1.355 . S
C524 C526 1.419 . S
C525 C520 1.425 . S
C525 C522 1.409 . S
C525 C523 1.415 . S
C526 H516 0.930 . S
C526 C524 1.419 . S
C526 C527 1.362 . S
C527 H517 0.930 . S
C527 C520 1.409 . S
C527 C526 1.362 . S
H528 C534 0.930 . S
H529 C537 0.930 . S
H530 C538 0.930 . S
H531 C539 0.930 . S
H532 C542 0.930 . S
H533 C543 0.930 . S
C534 H528 0.930 . S
C534 C535 1.355 . S
C534 C536 1.415 . S
C535 C534 1.355 . S
C535 C537 1.419 . S
C536 C534 1.415 . S
C536 C541 1.425 . S
C536 C543 1.409 . S
C537 H529 0.930 . S
C537 C535 1.419 . S
C537 C538 1.362 . S
C538 H530 0.930 . S
C538 C537 1.362 . S
C538 C541 1.409 . S
C539 H531 0.930 . S
C539 C540 1.355 . S
C539 C541 1.415 . S
C540 C539 1.355 . S
C540 C542 1.419 . S
C541 C536 1.425 . S
C541 C538 1.409 . S
C541 C539 1.415 . S
C542 H532 0.930 . S
C542 C540 1.419 . S
C542 C543 1.362 . S
C543 H533 0.930 . S
C543 C536 1.409 . S
C543 C542 1.362 . S
H544 C550 0.930 . S
H545 C553 0.930 . S
H546 C554 0.930 . S
H547 C555 0.930 . S
H548 C558 0.930 . S
H549 C559 0.930 . S
C550 H544 0.930 . S
C550 C551 1.355 . S
C550 C552 1.415 . S
C551 C550 1.355 . S
C551 C553 1.419 . S
C552 C550 1.415 . S
C552 C557 1.425 . S
C552 C559 1.409 . S
C553 H545 0.930 . S
C553 C551 1.419 . S
C553 C554 1.362 . S
C554 H546 0.930 . S
C554 C553 1.362 . S
C554 C557 1.409 . S
C555 H547 0.930 . S
C555 C556 1.355 . S
C555 C557 1.415 . S
C556 C555 1.355 . S
C556 C558 1.419 . S
C557 C552 1.425 . S
C557 C554 1.409 . S
C557 C555 1.415 . S
C558 H548 0.930 . S
C558 C556 1.419 . S
C558 C559 1.362 . S
C559 H549 0.930 . S
C559 C552 1.409 . S
C559 C558 1.362 . S
H560 C566 0.930 . S
H561 C569 0.930 . S
H562 C570 0.930 . S
H563 C571 0.930 . S
H564 C574 0.930 . S
H565 C575 0.930 . S
C566 H560 0.930 . S
C566 C567 1.355 . S
C566 C568 1.415 . S
C567 C566 1.355 . S
C567 C569 1.419 . S
C568 C566 1.415 . S
C568 C573 1.425 . S
C568 C575 1.409 . S
C569 H561 0.930 . S
C569 C567 1.419 . S
C569 C570 1.362 . S
C570 H562 0.930 . S
C570 C569 1.362 . S
C570 C573 1.409 . S
C571 H563 0.930 . S
C571 C572 1.355 . S
C571 C573 1.415 . S
C572 C571 1.355 . S
C572 C574 1.419 . S
C573 C568 1.425 . S
C573 C570 1.409 . S
C573 C571 1.415 . S
C574 H564 0.930 . S
C574 C572 1.419 . S
C574 C575 1.362 . S
C575 H565 0.930 . S
C575 C568 1.409 . S
C575 C574 1.362 . S
H576 C582 0.930 . S
H577 C585 0.930 . S
H578 C586 0.930 . S
H579 C587 0.930 . S
H580 C590 0.930 . S
H581 C591 0.930 . S
C582 H576 0.930 . S
C582 C583 1.355 . S
C582 C584 1.415 . S
C583 C582 1.355 . S
C583 C585 1.419 . S
C584 C582 1.415 . S
C584 C589 1.425 . S
C584 C591 1.409 . S
C585 H577 0.930 . S
C585 C583 1.419 . S
C585 C586 1.362 . S
C586 H578 0.930 . S
C586 C585 1.362 . S
C586 C589 1.409 . S
C587 H579 0.930 . S
C587 C588 1.355 . S
C587 C589 1.415 . S
C588 C587 1.355 . S
C588 C590 1.419 . S
C589 C584 1.425 . S
C589 C586 1.409 . S
C589 C587 1.415 . S
C590 H580 0.930 . S
C590 C588 1.419 . S
C590 C591 1.362 . S
C591 H581 0.930 . S
C591 C584 1.409 . S
C591 C590 1.362 . S
H592 C598 0.930 . S
H593 C601 0.930 . S
H594 C602 0.930 . S
H595 C603 0.930 . S
H596 C606 0.930 . S
H597 C607 0.930 . S
C598 H592 0.930 . S
C598 C599 1.355 . S
C598 C600 1.415 . S
C599 C598 1.355 . S
C599 C601 1.419 . S
C600 C598 1.415 . S
C600 C605 1.425 . S
C600 C607 1.409 . S
C601 H593 0.930 . S
C601 C599 1.419 . S
C601 C602 1.362 . S
C602 H594 0.930 . S
C602 C601 1.362 . S
C602 C605 1.409 . S
C603 H595 0.930 . S
C603 C604 1.355 . S
C603 C605 1.415 . S
C604 C603 1.355 . S
C604 C606 1.419 . S
C605 C600 1.425 . S
C605 C602 1.409 . S
C605 C603 1.415 . S
C606 H596 0.930 . S
C606 C604 1.419 . S
C606 C607 1.362 . S
C607 H597 0.930 . S
C607 C600 1.409 . S
C607 C606 1.362 . S
H608 C614 0.930 . S
H609 C617 0.930 . S
H610 C618 0.930 . S
H611 C619 0.930 . S
H612 C622 0.930 . S
H613 C623 0.930 . S
C614 H608 0.930 . S
C614 C615 1.355 . S
C614 C616 1.415 . S
C615 C614 1.355 . S
C615 C617 1.419 . S
C616 C614 1.415 . S
C616 C621 1.425 . S
C616 C623 1.409 . S
C617 H609 0.930 . S
C617 C615 1.419 . S
C617 C618 1.362 . S
C618 H610 0.930 . S
C618 C617 1.362 . S
C618 C621 1.409 . S
C619 H611 0.930 . S
C619 C620 1.355 . S
C619 C621 1.415 . S
C620 C619 1.355 . S
C620 C622 1.419 . S
C621 C616 1.425 . S
C621 C618 1.409 . S
C621 C619 1.415 . S
C622 H612 0.930 . S
C622 C620 1.419 . S
C622 C623 1.362 . S
C623 H613 0.930 . S
C623 C616 1.409 . S
C623 C622 1.362 . S
H624 C630 0.930 . S
H625 C633 0.930 . S
H626 C634 0.930 . S
H627 C635 0.930 . S
H628 C638 0.930 . S
H629 C639 0.930 . S
C630 H624 0.930 . S
C630 C631 1.355 . S
C630 C632 1.415 . S
C631 C630 1.355 . S
C631 C633 1.419 . S
C632 C630 1.415 . S
C632 C637 1.425 . S
C632 C639 1.409 . S
C633 H625 0.930 . S
C633 C631 1.419 . S
C633 C634 1.362 . S
C634 H626 0.930 . S
C634 C633 1.362 . S
C634 C637 1.409 . S
C635 H627 0.930 . S
C635 C636 1.355 . S
C635 C637 1.415 . S
C636 C635 1.355 . S
C636 C638 1.419 . S
C637 C632 1.425 . S
C637 C634 1.409 . S
C637 C635 1.415 . S
C638 H628 0.930 . S
C638 C636 1.419 . S
C638 C639 1.362 . S
C639 H629 0.930 . S
C639 C632 1.409 . S
C639 C638 1.362 . S
H640 C646 0.930 . S
H641 C649 0.930 . S
H642 C650 0.930 . S
H643 C651 0.930 . S
H644 C654 0.930 . S
H645 C655 0.930 . S
C646 H640 0.930 . S
C646 C647 1.355 . S
C646 C648 1.415 . S
C647 C646 1.355 . S
C647 C649 1.419 . S
C648 C646 1.415 . S
C648 C653 1.425 . S
C648 C655 1.409 . S
C649 H641 0.930 . S
C649 C647 1.419 . S
C649 C650 1.362 . S
C650 H642 0.930 . S
C650 C649 1.362 . S
C650 C653 1.409 . S
C651 H643 0.930 . S
C651 C652 1.355 . S
C651 C653 1.415 . S
C652 C651 1.355 . S
C652 C654 1.419 . S
C653 C648 1.425 . S
C653 C650 1.409 . S
C653 C651 1.415 . S
C654 H644 0.930 . S
C654 C652 1.419 . S
C654 C655 1.362 . S
C655 H645 0.930 . S
C655 C648 1.409 . S
C655 C654 1.362 . S
H656 C662 0.930 . S
H657 C665 0.930 . S
H658 C666 0.930 . S
H659 C667 0.930 . S
H660 C670 0.930 . S
H661 C671 0.930 . S
C662 H656 0.930 . S
C662 C663 1.355 . S
C662 C664 1.415 . S
C663 C662 1.355 . S
C663 C665 1.419 . S
C664 C662 1.415 . S
C664 C669 1.425 . S
C664 C671 1.409 . S
C665 H657 0.930 . S
C665 C663 1.419 . S
C665 C666 1.362 . S
C666 H658 0.930 . S
C666 C665 1.362 . S
C666 C669 1.409 . S
C667 H659 0.930 . S
C667 C668 1.355 . S
C667 C669 1.415 . S
C668 C667 1.355 . S
C668 C670 1.419 . S
C669 C664 1.425 . S
C669 C666 1.409 . S
C669 C667 1.415 . S
C670 H660 0.930 . S
C670 C668 1.419 . S
C670 C671 1.362 . S
C671 H661 0.930 . S
C671 C664 1.409 . S
C671 C670 1.362 . S
H672 C678 0.930 . S
H673 C681 0.930 . S
H674 C682 0.930 . S
H675 C683 0.930 . S
H676 C686 0.930 . S
H677 C687 0.930 . S
C678 H672 0.930 . S
C678 C679 1.355 . S
C678 C680 1.415 . S
C679 C678 1.355 . S
C679 C681 1.419 . S
C680 C678 1.415 . S
C680 C685 1.425 . S
C680 C687 1.409 . S
C681 H673 0.930 . S
C681 C679 1.419 . S
C681 C682 1.362 . S
C682 H674 0.930 . S
C682 C681 1.362 . S
C682 C685 1.409 . S
C683 H675 0.930 . S
C683 C684 1.355 . S
C683 C685 1.415 . S
C684 C683 1.355 . S
C684 C686 1.419 . S
C685 C680 1.425 . S
C685 C682 1.409 . S
C685 C683 1.415 . S
C686 H676 0.930 . S
C686 C684 1.419 . S
C686 C687 1.362 . S
C687 H677 0.930 . S
C687 C680 1.409 . S
C687 C686 1.362 . S
H688 C694 0.930 . S
H689 C697 0.930 . S
H690 C698 0.930 . S
H691 C699 0.930 . S
H692 C702 0.930 . S
H693 C703 0.930 . S
C694 H688 0.930 . S
C694 C695 1.355 . S
C694 C696 1.415 . S
C695 C694 1.355 . S
C695 C697 1.419 . S
C696 C694 1.415 . S
C696 C701 1.425 . S
C696 C703 1.409 . S
C697 H689 0.930 . S
C697 C695 1.419 . S
C697 C698 1.362 . S
C698 H690 0.930 . S
C698 C697 1.362 . S
C698 C701 1.409 . S
C699 H691 0.930 . S
C699 C700 1.355 . S
C699 C701 1.415 . S
C700 C699 1.355 . S
C700 C702 1.419 . S
C701 C696 1.425 . S
C701 C698 1.409 . S
C701 C699 1.415 . S
C702 H692 0.930 . S
C702 C700 1.419 . S
C702 C703 1.362 . S
C703 H693 0.930 . S
C703 C696 1.409 . S
C703 C702 1.362 . S
H704 C710 0.930 . S
H705 C713 0.930 . S
H706 C714 0.930 . S
H707 C715 0.930 . S
H708 C718 0.930 . S
H709 C719 0.930 . S
C710 H704 0.930 . S
C710 C711 1.355 . S
C710 C712 1.415 . S
C711 C710 1.355 . S
C711 C713 1.419 . S
C712 C710 1.415 . S
C712 C717 1.425 . S
C712 C719 1.409 . S
C713 H705 0.930 . S
C713 C711 1.419 . S
C713 C714 1.362 . S
C714 H706 0.930 . S
C714 C713 1.362 . S
C714 C717 1.409 . S
C715 H707 0.930 . S
C715 C716 1.355 . S
C715 C717 1.415 . S
C716 C715 1.355 . S
C716 C718 1.419 . S
C717 C712 1.425 . S
C717 C714 1.409 . S
C717 C715 1.415 . S
C718 H708 0.930 . S
C718 C716 1.419 . S
C718 C719 1.362 . S
C719 H709 0.930 . S
C719 C712 1.409 . S
C719 C718 1.362 . S
H720 C726 0.930 . S
H721 C729 0.930 . S
H722 C730 0.930 . S
H723 C731 0.930 . S
H724 C734 0.930 . S
H725 C735 0.930 . S
C726 H720 0.930 . S
C726 C727 1.355 . S
C726 C728 1.415 . S
C727 C726 1.355 . S
C727 C729 1.419 . S
C728 C726 1.415 . S
C728 C733 1.425 . S
C728 C735 1.409 . S
C729 H721 0.930 . S
C729 C727 1.419 . S
C729 C730 1.362 . S
C730 H722 0.930 . S
C730 C729 1.362 . S
C730 C733 1.409 . S
C731 H723 0.930 . S
C731 C732 1.355 . S
C731 C733 1.415 . S
C732 C731 1.355 . S
C732 C734 1.419 . S
C733 C728 1.425 . S
C733 C730 1.409 . S
C733 C731 1.415 . S
C734 H724 0.930 . S
C734 C732 1.419 . S
C734 C735 1.362 . S
C735 H725 0.930 . S
C735 C728 1.409 . S
C735 C734 1.362 . S
C236 C113 1.524 . S
C231 C0 1.544 . S
C252 C139 1.545 . S
C247 C26 1.559 . S
C268 C153 1.528 . S
C263 C40 1.544 . S
C284 C155 1.541 . S
C279 C43 1.549 . S
C295 C57 1.543 . S
C300 C152 1.526 . S
C316 C154 1.540 . S
C311 C70 1.556 . S
C332 C112 1.537 . S
C327 C97 1.557 . S
C348 C138 1.561 . S
C343 C111 1.562 . S
C364 C140 1.540 . S
C359 C98 1.547 . S
C380 C166 1.532 . S
C375 C68 1.554 . S
C396 C124 1.543 . S
C391 C83 1.557 . S
C412 C126 1.548 . S
C407 C84 1.548 . S
C428 C125 1.560 . S
C423 C15 1.565 . S
C444 C127 1.551 . S
C439 C29 1.563 . S
C460 C141 1.548 . S
C455 C54 1.547 . S
C476 C167 1.556 . S
C471 C13 1.551 . S
C492 C169 1.547 . S
C487 C99 1.550 . S
C503 C69 1.561 . S
C508 C195 1.550 . S
C519 C82 1.563 . S
C524 C208 1.556 . S
C535 C85 1.557 . S
C540 C211 1.559 . S
C551 C14 1.554 . S
C556 C209 1.553 . S
C567 C28 1.550 . S
C572 C210 1.528 . S
C583 C55 1.551 . S
C588 C168 1.551 . S
C604 C194 1.557 . S
C599 C12 1.553 . S
C620 C197 1.548 . S
C615 C1 1.547 . S
C631 C27 1.561 . S
C636 C222 1.559 . S
C647 C41 1.559 . S
C652 C180 1.539 . S
C663 C42 1.560 . S
C668 C182 1.545 . S
C684 C181 1.543 . S
C679 C56 1.560 . S
C700 C183 1.529 . S
C695 C71 1.552 . S
C711 C96 1.547 . S
C716 C196 1.545 . S
C732 C223 1.526 . S
C727 C110 1.546 . S
