# Generated by pormake.
# Topology ocu, (6,8)-cn, num edge types: 1
# Building blocks:
#     Node 0, Type 0, BuildingBlock: BETDEL_clean_sbu_0, # of connection points: 6
#     Node 1, Type 0, BuildingBlock: BETDEL_clean_sbu_0, # of connection points: 6
#     Node 2, Type 0, BuildingBlock: BETDEL_clean_sbu_0, # of connection points: 6
#     Node 3, Type 0, BuildingBlock: BETDEL_clean_sbu_0, # of connection points: 6
#     Node 4, Type 0, BuildingBlock: BETDEL_clean_sbu_0, # of connection points: 6
#     Node 5, Type 0, BuildingBlock: BETDEL_clean_sbu_0, # of connection points: 6
#     Node 6, Type 0, BuildingBlock: BETDEL_clean_sbu_0, # of connection points: 6
#     Node 7, Type 0, BuildingBlock: BETDEL_clean_sbu_0, # of connection points: 6
#     Node 8, Type 1, BuildingBlock: VETTIZ_charged_sbu_0, # of connection points: 8
#     Node 9, Type 1, BuildingBlock: VETTIZ_charged_sbu_0, # of connection points: 8
#     Node 10, Type 1, BuildingBlock: VETTIZ_charged_sbu_0, # of connection points: 8
#     Node 11, Type 1, BuildingBlock: VETTIZ_charged_sbu_0, # of connection points: 8
#     Node 12, Type 1, BuildingBlock: VETTIZ_charged_sbu_0, # of connection points: 8
#     Node 13, Type 1, BuildingBlock: VETTIZ_charged_sbu_0, # of connection points: 8
#     Edge 14, Type (0, 1), BuildingBlock: XIVTED_clean_linker_0, # of connection points: 2
#     Edge 15, Type (0, 1), BuildingBlock: XIVTED_clean_linker_0, # of connection points: 2
#     Edge 16, Type (0, 1), BuildingBlock: XIVTED_clean_linker_0, # of connection points: 2
#     Edge 17, Type (0, 1), BuildingBlock: XIVTED_clean_linker_0, # of connection points: 2
#     Edge 18, Type (0, 1), BuildingBlock: XIVTED_clean_linker_0, # of connection points: 2
#     Edge 19, Type (0, 1), BuildingBlock: XIVTED_clean_linker_0, # of connection points: 2
#     Edge 20, Type (0, 1), BuildingBlock: XIVTED_clean_linker_0, # of connection points: 2
#     Edge 21, Type (0, 1), BuildingBlock: XIVTED_clean_linker_0, # of connection points: 2
#     Edge 22, Type (0, 1), BuildingBlock: XIVTED_clean_linker_0, # of connection points: 2
#     Edge 23, Type (0, 1), BuildingBlock: XIVTED_clean_linker_0, # of connection points: 2
#     Edge 24, Type (0, 1), BuildingBlock: XIVTED_clean_linker_0, # of connection points: 2
#     Edge 25, Type (0, 1), BuildingBlock: XIVTED_clean_linker_0, # of connection points: 2
#     Edge 26, Type (0, 1), BuildingBlock: XIVTED_clean_linker_0, # of connection points: 2
#     Edge 27, Type (0, 1), BuildingBlock: XIVTED_clean_linker_0, # of connection points: 2
#     Edge 28, Type (0, 1), BuildingBlock: XIVTED_clean_linker_0, # of connection points: 2
#     Edge 29, Type (0, 1), BuildingBlock: XIVTED_clean_linker_0, # of connection points: 2
#     Edge 30, Type (0, 1), BuildingBlock: XIVTED_clean_linker_0, # of connection points: 2
#     Edge 31, Type (0, 1), BuildingBlock: XIVTED_clean_linker_0, # of connection points: 2
#     Edge 32, Type (0, 1), BuildingBlock: XIVTED_clean_linker_0, # of connection points: 2
#     Edge 33, Type (0, 1), BuildingBlock: XIVTED_clean_linker_0, # of connection points: 2
#     Edge 34, Type (0, 1), BuildingBlock: XIVTED_clean_linker_0, # of connection points: 2
#     Edge 35, Type (0, 1), BuildingBlock: XIVTED_clean_linker_0, # of connection points: 2
#     Edge 36, Type (0, 1), BuildingBlock: XIVTED_clean_linker_0, # of connection points: 2
#     Edge 37, Type (0, 1), BuildingBlock: XIVTED_clean_linker_0, # of connection points: 2
#     Edge 38, Type (0, 1), BuildingBlock: XIVTED_clean_linker_0, # of connection points: 2
#     Edge 39, Type (0, 1), BuildingBlock: XIVTED_clean_linker_0, # of connection points: 2
#     Edge 40, Type (0, 1), BuildingBlock: XIVTED_clean_linker_0, # of connection points: 2
#     Edge 41, Type (0, 1), BuildingBlock: XIVTED_clean_linker_0, # of connection points: 2
#     Edge 42, Type (0, 1), BuildingBlock: XIVTED_clean_linker_0, # of connection points: 2
#     Edge 43, Type (0, 1), BuildingBlock: XIVTED_clean_linker_0, # of connection points: 2
#     Edge 44, Type (0, 1), BuildingBlock: XIVTED_clean_linker_0, # of connection points: 2
#     Edge 45, Type (0, 1), BuildingBlock: XIVTED_clean_linker_0, # of connection points: 2
#     Edge 46, Type (0, 1), BuildingBlock: XIVTED_clean_linker_0, # of connection points: 2
#     Edge 47, Type (0, 1), BuildingBlock: XIVTED_clean_linker_0, # of connection points: 2
#     Edge 48, Type (0, 1), BuildingBlock: XIVTED_clean_linker_0, # of connection points: 2
#     Edge 49, Type (0, 1), BuildingBlock: XIVTED_clean_linker_0, # of connection points: 2
#     Edge 50, Type (0, 1), BuildingBlock: XIVTED_clean_linker_0, # of connection points: 2
#     Edge 51, Type (0, 1), BuildingBlock: XIVTED_clean_linker_0, # of connection points: 2
#     Edge 52, Type (0, 1), BuildingBlock: XIVTED_clean_linker_0, # of connection points: 2
#     Edge 53, Type (0, 1), BuildingBlock: XIVTED_clean_linker_0, # of connection points: 2
#     Edge 54, Type (0, 1), BuildingBlock: XIVTED_clean_linker_0, # of connection points: 2
#     Edge 55, Type (0, 1), BuildingBlock: XIVTED_clean_linker_0, # of connection points: 2
#     Edge 56, Type (0, 1), BuildingBlock: XIVTED_clean_linker_0, # of connection points: 2
#     Edge 57, Type (0, 1), BuildingBlock: XIVTED_clean_linker_0, # of connection points: 2
#     Edge 58, Type (0, 1), BuildingBlock: XIVTED_clean_linker_0, # of connection points: 2
#     Edge 59, Type (0, 1), BuildingBlock: XIVTED_clean_linker_0, # of connection points: 2
#     Edge 60, Type (0, 1), BuildingBlock: XIVTED_clean_linker_0, # of connection points: 2
#     Edge 61, Type (0, 1), BuildingBlock: XIVTED_clean_linker_0, # of connection points: 2
# Relax obj value: 0.089
# Max RMSD: 0.224
# Mean RMSD: 0.135
data_MOF--net-ocu--node1-BETDEL_clean_sbu_0--node2-VETTIZ_charged_sbu_0--edge1-XIVTED_clean_linker_0
_symmetry_space_group_name_H-M    P1
_symmetry_Int_Tables_number       1
_symmetry_cell_setting            triclinic
loop_
_symmetry_equiv_pos_as_xyz
'x, y, z'
_cell_length_a     37.533014
_cell_length_b     38.832694
_cell_length_c     37.584721
_cell_angle_alpha  91.115408
_cell_angle_beta   91.931201
_cell_angle_gamma 95.877028
loop_
_atom_site_label
_atom_site_type_symbol
_atom_site_fract_x
_atom_site_fract_y
_atom_site_fract_z
_atom_type_partial_charge
Dy0 Dy 0.2892 0.25539 0.28836 0.0
C1 C 0.20988 0.28938 0.1685 0.0
C2 C 0.32041 0.22422 0.34359 0.0
Dy3 Dy 0.2423 0.2607 0.22419 0.0
O4 O 0.3324 0.25398 0.33101 0.0
O5 O 0.29107 0.2121 0.32651 0.0
O6 O 0.31911 0.30748 0.27981 0.0
O7 O 0.29888 0.27585 0.23616 0.0
C8 C 0.31447 0.30523 0.24528 0.0
C9 C 0.21735 0.2118 0.26931 0.0
O10 O 0.27977 0.22771 0.19735 0.0
O11 O 0.31042 0.21579 0.24933 0.0
O12 O 0.19622 0.26212 0.18468 0.0
O13 O 0.24116 0.30022 0.18234 0.0
O14 O 0.2137 0.20816 0.23479 0.0
O15 O 0.2325 0.24153 0.27733 0.0
O16 O 0.25233 0.29209 0.31242 0.0
O17 O 0.22424 0.30385 0.25894 0.0
C18 C 0.30447 0.21129 0.2141 0.0
C19 C 0.22965 0.30972 0.29377 0.0
Dy20 Dy 0.78864 0.23123 0.26466 0.0
C21 C 0.67537 0.29896 0.20636 0.0
C22 C 0.84565 0.20746 0.29826 0.0
Dy23 Dy 0.72952 0.27165 0.24178 0.0
O24 O 0.83092 0.19477 0.26854 0.0
O25 O 0.82864 0.23245 0.31018 0.0
O26 O 0.77383 0.19122 0.22192 0.0
O27 O 0.73312 0.2162 0.24529 0.0
C28 C 0.74 0.19543 0.22082 0.0
C29 C 0.77873 0.30656 0.28589 0.0
O30 O 0.70276 0.24498 0.28692 0.0
O31 O 0.75461 0.22746 0.31264 0.0
O32 O 0.6916 0.31192 0.23529 0.0
O33 O 0.68854 0.27074 0.1968 0.0
O34 O 0.74496 0.311 0.28582 0.0
O35 O 0.78469 0.28621 0.26081 0.0
O36 O 0.81585 0.25886 0.22064 0.0
O37 O 0.76442 0.27607 0.19413 0.0
C38 C 0.72033 0.23257 0.31409 0.0
C39 C 0.79886 0.27142 0.19333 0.0
Dy40 Dy 0.74515 0.76639 0.28163 0.0
C41 C 0.82449 0.73911 0.16132 0.0
C42 C 0.71789 0.79171 0.34127 0.0
Dy43 Dy 0.78921 0.7607 0.21814 0.0
O44 O 0.70784 0.76142 0.32706 0.0
O45 O 0.7418 0.80847 0.32229 0.0
O46 O 0.71913 0.713 0.27579 0.0
O47 O 0.73389 0.74101 0.22965 0.0
C48 C 0.72173 0.71182 0.24143 0.0
C49 C 0.81227 0.81235 0.26437 0.0
O50 O 0.74843 0.79143 0.19173 0.0
O51 O 0.71889 0.80326 0.24295 0.0
O52 O 0.83449 0.76678 0.18042 0.0
O53 O 0.79525 0.72348 0.17323 0.0
O54 O 0.8143 0.8155 0.23013 0.0
O55 O 0.80014 0.78209 0.27141 0.0
O56 O 0.78637 0.73297 0.30518 0.0
O57 O 0.81149 0.71918 0.25212 0.0
C58 C 0.7238 0.80753 0.20805 0.0
C59 C 0.80816 0.71469 0.28691 0.0
Dy60 Dy 0.28991 0.71372 0.2571 0.0
C61 C 0.19927 0.81455 0.29039 0.0
C62 C 0.32731 0.6671 0.22484 0.0
Dy63 Dy 0.24194 0.76941 0.26194 0.0
O64 O 0.32937 0.67383 0.25891 0.0
O65 O 0.30409 0.68465 0.20916 0.0
O66 O 0.31864 0.73002 0.30879 0.0
O67 O 0.2981 0.76739 0.27662 0.0
C68 C 0.31251 0.76226 0.30657 0.0
C69 C 0.22148 0.7211 0.21173 0.0
O70 O 0.28059 0.79755 0.2259 0.0
O71 O 0.30901 0.7487 0.21346 0.0
O72 O 0.19255 0.79775 0.26035 0.0
O73 O 0.23019 0.80816 0.30356 0.0
O74 O 0.21821 0.75379 0.20791 0.0
O75 O 0.23351 0.7156 0.24263 0.0
O76 O 0.25097 0.68565 0.29185 0.0
O77 O 0.22783 0.736 0.30877 0.0
C78 C 0.30357 0.78122 0.20751 0.0
C79 C 0.23163 0.70284 0.31328 0.0
Dy80 Dy 0.2934 0.73328 0.7621 0.0
C81 C 0.17732 0.79163 0.69669 0.0
C82 C 0.34429 0.71215 0.80708 0.0
Dy83 Dy 0.23364 0.77107 0.73423 0.0
O84 O 0.33932 0.702 0.77399 0.0
O85 O 0.32197 0.73407 0.81522 0.0
O86 O 0.27984 0.68959 0.72165 0.0
O87 O 0.23929 0.71681 0.74153 0.0
C88 C 0.24621 0.69463 0.71869 0.0
C89 C 0.27994 0.80964 0.77856 0.0
O90 O 0.20494 0.74367 0.77762 0.0
O91 O 0.25625 0.73137 0.808 0.0
O92 O 0.18886 0.80433 0.72758 0.0
O93 O 0.19719 0.76844 0.68574 0.0
O94 O 0.24606 0.8134 0.7754 0.0
O95 O 0.28808 0.78808 0.75547 0.0
O96 O 0.32166 0.76032 0.7177 0.0
O97 O 0.27 0.77367 0.68801 0.0
C98 C 0.22135 0.73398 0.80674 0.0
C99 C 0.30486 0.77068 0.68888 0.0
Dy100 Dy 0.22703 0.24009 0.78445 0.0
C101 C 0.30719 0.22039 0.66513 0.0
C102 C 0.18105 0.25289 0.83624 0.0
Dy103 Dy 0.27554 0.24144 0.7243 0.0
O104 O 0.17226 0.23629 0.80654 0.0
O105 O 0.2153 0.26226 0.838 0.0
O106 O 0.20989 0.18378 0.77008 0.0
O107 O 0.22133 0.21989 0.73044 0.0
C108 C 0.21258 0.18853 0.73614 0.0
C109 C 0.29111 0.29569 0.76806 0.0
O110 O 0.23479 0.27425 0.70003 0.0
O111 O 0.20727 0.28447 0.75265 0.0
O112 O 0.32058 0.24575 0.68617 0.0
O113 O 0.27718 0.20637 0.67685 0.0
O114 O 0.29442 0.29683 0.73374 0.0
O115 O 0.28149 0.26502 0.7775 0.0
O116 O 0.26778 0.21033 0.81196 0.0
O117 O 0.30148 0.20383 0.76223 0.0
C118 C 0.21166 0.29072 0.71829 0.0
C119 C 0.29469 0.1971 0.79635 0.0
Dy120 Dy 0.78624 0.23155 0.74415 0.0
C121 C 0.69119 0.33165 0.76854 0.0
C122 C 0.827 0.18638 0.71302 0.0
Dy123 Dy 0.73532 0.28422 0.74913 0.0
O124 O 0.83362 0.20033 0.74456 0.0
O125 O 0.79714 0.19551 0.69984 0.0
O126 O 0.81243 0.24681 0.79674 0.0
O127 O 0.7921 0.28512 0.76498 0.0
C128 C 0.80616 0.27907 0.79507 0.0
C129 C 0.71698 0.23431 0.69954 0.0
O130 O 0.76934 0.31267 0.71025 0.0
O131 O 0.80161 0.26643 0.69882 0.0
O132 O 0.68058 0.30024 0.75793 0.0
O133 O 0.72586 0.33706 0.76867 0.0
O134 O 0.71195 0.26653 0.69509 0.0
O135 O 0.72979 0.23048 0.73035 0.0
O136 O 0.7469 0.20376 0.77956 0.0
O137 O 0.72617 0.25448 0.79925 0.0
C138 C 0.79299 0.29784 0.69177 0.0
C139 C 0.7283 0.22084 0.80212 0.0
Dy140 Dy 0.78237 0.74585 0.78025 0.0
C141 C 0.71216 0.7956 0.66395 0.0
C142 C 0.81371 0.71353 0.83414 0.0
Dy143 Dy 0.73697 0.7548 0.71474 0.0
O144 O 0.82621 0.74331 0.822 0.0
O145 O 0.7839 0.70221 0.8175 0.0
O146 O 0.81436 0.79724 0.77046 0.0
O147 O 0.7935 0.7654 0.72765 0.0
C148 C 0.81032 0.79426 0.73593 0.0
C149 C 0.70907 0.70438 0.75548 0.0
O150 O 0.77342 0.71771 0.69045 0.0
O151 O 0.79933 0.70317 0.74421 0.0
O152 O 0.701 0.76288 0.66708 0.0
O153 O 0.73728 0.80515 0.68766 0.0
O154 O 0.70336 0.70414 0.721 0.0
O155 O 0.72594 0.73284 0.76577 0.0
O156 O 0.74469 0.7786 0.80753 0.0
O157 O 0.7144 0.7917 0.75566 0.0
C158 C 0.79465 0.69852 0.70914 0.0
C159 C 0.72013 0.79543 0.79099 0.0
Fe160 Fe 0.02067 0.04074 0.499 0.0
O161 O 0.98672 0.00648 0.52334 0.0
Fe162 Fe 0.08825 0.99106 0.47478 0.0
Fe163 Fe 0.93511 0.01073 0.52545 0.0
O164 O 0.03764 0.99905 0.47627 0.0
O165 O 0.03665 0.99581 0.47631 0.0
O166 O 0.98573 0.0032 0.5234 0.0
Fe167 Fe 1.00214 0.96161 0.50004 0.0
C168 C 0.97688 0.0771 0.55394 0.0
O169 O 0.985 0.04304 0.45736 0.0
O170 O 0.93584 0.04825 0.48766 0.0
O171 O 0.02405 0.92235 0.47104 0.0
O172 O 0.06897 0.95213 0.43942 0.0
O173 O 0.08942 0.03154 0.44018 0.0
O174 O 0.05872 0.07169 0.46914 0.0
O175 O 0.91754 0.97337 0.48657 0.0
O176 O 0.96672 0.96419 0.45794 0.0
C177 C 0.07966 0.06241 0.44429 0.0
O178 O 0.03752 0.95835 0.54171 0.0
O179 O 0.08667 0.95273 0.51174 0.0
O180 O 0.99848 0.08013 0.52745 0.0
O181 O 0.95437 0.05035 0.56 0.0
C182 C 0.95467 0.05411 0.4605 0.0
C183 C 0.93294 0.96341 0.45903 0.0
C184 C 0.94432 0.93996 0.55585 0.0
O185 O 0.93498 0.9709 0.56058 0.0
O186 O 0.96396 0.93061 0.5299 0.0
C187 C 0.04612 0.92546 0.44492 0.0
O188 O 0.10574 0.02755 0.51463 0.0
O189 O 0.05601 0.03953 0.54095 0.0
C190 C 0.06742 0.9465 0.53851 0.0
C191 C 0.08978 0.0401 0.54056 0.0
Fe192 Fe 0.50941 0.96049 0.9977 0.0
O193 O 0.5379 0.00271 0.98072 0.0
Fe194 Fe 0.42955 0.9971 0.02024 0.0
Fe195 Fe 0.59 0.00753 0.98167 0.0
O196 O 0.4827 0.99683 0.02228 0.0
O197 O 0.48174 1.00152 0.02165 0.0
O198 O 0.53683 0.0073 0.9799 0.0
Fe199 Fe 0.51007 0.04369 0.00424 0.0
C200 C 0.57751 0.9533 0.04182 0.0
O201 O 0.54243 0.92906 0.96675 0.0
O202 O 0.58255 0.96976 0.94171 0.0
O203 O 0.47557 0.04757 0.95912 0.0
O204 O 0.42424 0.03842 0.98641 0.0
O205 O 0.42247 0.96383 0.9769 0.0
O206 O 0.4757 0.96015 0.95278 0.0
O207 O 0.58431 0.04999 0.95089 0.0
O208 O 0.54527 0.08211 0.98084 0.0
C209 C 0.4415 0.95589 0.95116 0.0
O210 O 0.47708 0.07506 0.03543 0.0
O211 O 0.43729 0.03423 0.06081 0.0
O212 O 0.54378 0.95614 0.04288 0.0
O213 O 0.59572 0.96696 0.01665 0.0
C214 C 0.56724 0.93839 0.94381 0.0
C215 C 0.56909 0.07804 0.95691 0.0
C216 C 0.57811 0.04895 0.05025 0.0
O217 O 0.59704 0.04171 0.0242 0.0
O218 O 0.54396 0.04439 0.04891 0.0
C219 C 0.4421 0.05126 0.9607 0.0
O220 O 0.43407 0.95371 0.04979 0.0
O221 O 0.4735 0.92203 0.01984 0.0
C222 C 0.45266 0.06562 0.05877 0.0
C223 C 0.44775 0.92524 0.04185 0.0
Fe224 Fe 0.01793 0.54213 1.00092 0.0
O225 O 0.98792 0.50538 0.02587 0.0
Fe226 Fe 0.09061 0.50111 0.97469 0.0
Fe227 Fe 0.93582 0.50359 0.02883 0.0
O228 O 0.03887 0.50267 0.97779 0.0
O229 O 0.03848 0.49943 0.97802 0.0
O230 O 0.98743 0.50236 0.02589 0.0
Fe231 Fe 1.00938 0.46292 0.00434 0.0
C232 C 0.96884 0.57512 0.05375 0.0
O233 O 0.98116 0.54193 0.95943 0.0
O234 O 0.93055 0.53818 0.98935 0.0
O235 O 0.03638 0.42618 0.9786 0.0
O236 O 0.07622 0.45739 0.94271 0.0
O237 O 0.08453 0.53937 0.93875 0.0
O238 O 0.05229 0.57567 0.97146 0.0
O239 O 0.92233 0.46371 0.99158 0.0
O240 O 0.97242 0.45816 0.96278 0.0
C241 C 0.07402 0.56945 0.94635 0.0
O242 O 0.0463 0.46549 0.0458 0.0
O243 O 0.096 0.467 0.01469 0.0
O244 O 0.99172 0.5788 0.02847 0.0
O245 O 0.95032 0.54624 0.06154 0.0
C246 C 0.94816 0.54593 0.96185 0.0
C247 C 0.9386 0.45298 0.96493 0.0
C248 C 0.95391 0.43605 0.05961 0.0
O249 O 0.94192 0.4658 0.06505 0.0
O250 O 0.97574 0.42938 0.03474 0.0
C251 C 0.05851 0.42882 0.95274 0.0
O252 O 0.10416 0.54148 0.01108 0.0
O253 O 0.05536 0.54457 0.04253 0.0
C254 C 0.07896 0.46041 0.04284 0.0
C255 C 0.08897 0.55079 0.03898 0.0
Fe256 Fe 0.5115 0.50566 0.95908 0.0
O257 O 0.54356 0.52507 0.99944 0.0
Fe258 Fe 0.43314 0.47709 0.00196 0.0
Fe259 Fe 0.59562 0.52796 0.9983 0.0
O260 O 0.48532 0.47893 0.99685 0.0
O261 O 0.48526 0.4792 1.00031 0.0
O262 O 0.54352 0.5253 0.00294 0.0
Fe263 Fe 0.51795 0.49794 0.04051 0.0
C264 C 0.57474 0.46918 0.94407 0.0
O265 O 0.54341 0.53737 0.92452 0.0
O266 O 0.58766 0.56549 0.96188 0.0
O267 O 0.48807 0.538 0.04968 0.0
O268 O 0.43393 0.50861 0.04643 0.0
O269 O 0.42703 0.51915 0.96986 0.0
O270 O 0.48213 0.54589 0.96639 0.0
O271 O 0.59439 0.55697 0.04376 0.0
O272 O 0.5565 0.5219 0.0782 0.0
C273 C 0.44849 0.54559 0.96293 0.0
O274 O 0.48604 0.46572 0.07486 0.0
O275 O 0.44092 0.43873 0.03758 0.0
O276 O 0.54162 0.46551 0.95054 0.0
O277 O 0.5956 0.4952 0.95531 0.0
C278 C 0.56943 0.56179 0.93181 0.0
C279 C 0.58228 0.54666 0.07406 0.0
C280 C 0.58154 0.45956 0.03681 0.0
O281 O 0.6019 0.48711 0.0314 0.0
O282 O 0.54783 0.45779 0.03211 0.0
C283 C 0.45577 0.53347 0.05871 0.0
O284 O 0.43377 0.44833 0.95593 0.0
O285 O 0.47364 0.48119 0.92139 0.0
C286 C 0.45934 0.44192 0.0676 0.0
C287 C 0.4486 0.45596 0.92605 0.0
Fe288 Fe 0.03205 0.42722 0.4975 0.0
O289 O 0.03278 0.47785 0.50412 0.0
Fe290 Fe 0.01221 0.50473 0.45969 0.0
Fe291 Fe 1.00931 0.50027 0.54478 0.0
O292 O 0.03238 0.47782 0.4995 0.0
O293 O 0.98873 0.5272 0.50031 0.0
O294 O 0.98915 0.52725 0.50496 0.0
Fe295 Fe 0.99002 0.57797 0.50686 0.0
C296 C 0.9643 0.43204 0.54017 0.0
O297 O 0.06558 0.43309 0.54221 0.0
O298 O 0.03634 0.46682 0.58075 0.0
O299 O 0.03109 0.58882 0.47249 0.0
O300 O 0.05637 0.53988 0.46532 0.0
O301 O 0.04316 0.47586 0.4232 0.0
O302 O 0.07007 0.43862 0.46043 0.0
O303 O 0.0537 0.5359 0.55197 0.0
O304 O 0.027 0.58438 0.54919 0.0
C305 C 0.06724 0.4541 0.43038 0.0
O306 O 0.9562 0.5723 0.46244 0.0
O307 O 0.98498 0.53836 0.42372 0.0
O308 O 0.99084 0.41612 0.53155 0.0
O309 O 0.9651 0.46479 0.53953 0.0
C310 C 0.06031 0.44511 0.57382 0.0
C311 C 0.0532 0.568 0.55906 0.0
C312 C 0.95476 0.55128 0.57404 0.0
O313 O 0.97857 0.52927 0.58124 0.0
O314 O 0.95215 0.56693 0.54408 0.0
C315 C 0.05754 0.57257 0.46434 0.0
O316 O 0.96806 0.46894 0.4525 0.0
O317 O 0.99533 0.42073 0.45498 0.0
C318 C 0.96113 0.56022 0.43078 0.0
C319 C 0.96896 0.43693 0.44519 0.0
Fe320 Fe 0.5084 0.96453 0.49728 0.0
O321 O 0.48682 1.00019 0.52592 0.0
Fe322 Fe 0.53552 0.007 0.42111 0.0
Fe323 Fe 0.48706 1.00038 0.57836 0.0
O324 O 0.53344 0.00443 0.47273 0.0
O325 O 0.53435 0.00736 0.47327 0.0
O326 O 0.4878 0.00315 0.52649 0.0
Fe327 Fe 0.5122 0.04301 0.50122 0.0
C328 C 0.45449 0.92999 0.54968 0.0
O329 O 0.55109 0.96642 0.53201 0.0
O330 O 0.52433 0.96463 0.5839 0.0
O331 O 0.5409 0.08086 0.47165 0.0
O332 O 0.57183 0.04964 0.43227 0.0
O333 O 0.56937 0.96926 0.42951 0.0
O334 O 0.53555 0.93203 0.46547 0.0
O335 O 0.52774 0.04009 0.58775 0.0
O336 O 0.55521 0.04721 0.5364 0.0
C337 C 0.56292 0.94022 0.44591 0.0
O338 O 0.46948 0.04016 0.46588 0.0
O339 O 0.49806 0.04232 0.41492 0.0
O340 O 0.47936 0.92677 0.52687 0.0
O341 O 0.45007 0.95805 0.56773 0.0
C342 C 0.54986 0.95787 0.56424 0.0
C343 C 0.55443 0.05177 0.56987 0.0
C344 C 0.45968 0.06804 0.55496 0.0
O345 O 0.45359 0.03895 0.57139 0.0
O346 O 0.48529 0.07549 0.53309 0.0
C347 C 0.56682 0.07762 0.45012 0.0
O348 O 0.49605 0.96633 0.41151 0.0
O349 O 0.46566 0.96139 0.46136 0.0
C350 C 0.47164 0.04868 0.43359 0.0
C351 C 0.46842 0.95517 0.42831 0.0
H352 H 0.17688 0.14977 0.25621 0.0
H353 H 0.10302 0.13217 0.4545 0.0
H354 H 0.20879 0.22478 0.34035 0.0
H355 H 0.09075 0.05028 0.37453 0.0
H356 H 0.13552 0.16995 0.41161 0.0
H357 H 0.13988 0.11577 0.29805 0.0
C358 C 0.17619 0.15902 0.28353 0.0
C359 C 0.19607 0.19008 0.29478 0.0
C360 C 0.12541 0.14377 0.40346 0.0
C361 C 0.15335 0.15145 0.34297 0.0
C362 C 0.10658 0.12237 0.42781 0.0
C363 C 0.09434 0.08797 0.41817 0.0
C364 C 0.13158 0.13074 0.36918 0.0
C365 C 0.10001 0.07651 0.38329 0.0
C366 C 0.15498 0.13966 0.30745 0.0
C367 C 0.194 0.20089 0.33055 0.0
N368 N 0.11819 0.09769 0.36025 0.0
N369 N 0.173 0.18168 0.35333 0.0
H370 H 0.8822 0.15407 0.27737 0.0
H371 H 0.91419 0.10631 0.47369 0.0
H372 H 0.8722 0.22606 0.36453 0.0
H373 H 0.97262 0.06071 0.39093 0.0
H374 H 0.89864 0.15048 0.43276 0.0
H375 H 0.91826 0.12057 0.31646 0.0
C376 C 0.88835 0.16318 0.30453 0.0
C377 C 0.87363 0.19212 0.3183 0.0
C378 C 0.91516 0.13103 0.4236 0.0
C379 C 0.91399 0.15415 0.36272 0.0
C380 C 0.9235 0.1055 0.44674 0.0
C381 C 0.94412 0.07963 0.4353 0.0
C382 C 0.9269 0.13023 0.38862 0.0
C383 C 0.95631 0.08016 0.40045 0.0
C384 C 0.90893 0.14419 0.32671 0.0
C385 C 0.88257 0.20337 0.3533 0.0
N386 N 0.94701 0.10491 0.37797 0.0
N387 N 0.90162 0.18384 0.3747 0.0
H388 H 0.80989 0.80589 0.33599 0.0
H389 H 0.951 0.96182 0.38934 0.0
H390 H 0.84905 0.87659 0.25564 0.0
H391 H 0.86625 0.92752 0.4592 0.0
H392 H 0.91823 0.9288 0.34009 0.0
H393 H 0.83453 0.84743 0.38208 0.0
C394 C 0.82325 0.83042 0.32801 0.0
C395 C 0.82688 0.83809 0.29191 0.0
C396 C 0.90662 0.92898 0.36608 0.0
C397 C 0.85638 0.88521 0.3447 0.0
C398 C 0.9253 0.94764 0.39419 0.0
C399 C 0.91134 0.94722 0.42842 0.0
C400 C 0.87426 0.90908 0.37249 0.0
C401 C 0.8779 0.92858 0.43323 0.0
C402 C 0.83736 0.85407 0.35438 0.0
C403 C 0.84545 0.86984 0.28319 0.0
N404 N 0.86077 0.90973 0.4057 0.0
N405 N 0.85997 0.89216 0.30948 0.0
H406 H 0.20334 0.82883 0.36115 0.0
H407 H 0.03058 0.9193 0.37427 0.0
H408 H 0.13263 0.83027 0.26836 0.0
H409 H 0.07421 0.8668 0.463 0.0
H410 H 0.06317 0.88498 0.33357 0.0
H411 H 0.15531 0.84443 0.39828 0.0
C412 C 0.17777 0.83291 0.34855 0.0
C413 C 0.17193 0.82871 0.31166 0.0
C414 C 0.06449 0.87996 0.3618 0.0
C415 C 0.1167 0.84595 0.35404 0.0
C416 C 0.04559 0.89919 0.38493 0.0
C417 C 0.04991 0.89562 0.42179 0.0
C418 C 0.0885 0.85803 0.37604 0.0
C419 C 0.07014 0.86995 0.43463 0.0
C420 C 0.15018 0.84117 0.36982 0.0
C421 C 0.13816 0.83371 0.29673 0.0
N422 N 0.08965 0.85274 0.41178 0.0
N423 N 0.11175 0.84249 0.31801 0.0
H424 H 0.15734 0.77419 0.62813 0.0
H425 H 0.04534 0.93625 0.60641 0.0
H426 H 0.13372 0.83964 0.71661 0.0
H427 H 0.10941 0.89531 0.52538 0.0
H428 H 0.06068 0.88993 0.64586 0.0
H429 H 0.12 0.80635 0.58904 0.0
C430 C 0.14363 0.79487 0.63939 0.0
C431 C 0.14921 0.80518 0.67516 0.0
C432 C 0.07103 0.89112 0.6193 0.0
C433 C 0.1071 0.84176 0.63107 0.0
C434 C 0.06259 0.91754 0.59701 0.0
C435 C 0.0769 0.91993 0.56306 0.0
C436 C 0.09329 0.86686 0.6071 0.0
C437 C 0.0986 0.89487 0.55174 0.0
C438 C 0.12248 0.81317 0.61717 0.0
C439 C 0.13056 0.83162 0.68883 0.0
N440 N 0.10621 0.86936 0.57381 0.0
N441 N 0.11067 0.84957 0.66652 0.0
H442 H 0.19983 0.11738 0.7388 0.0
H443 H 0.07264 0.09831 0.5732 0.0
H444 H 0.19408 0.20336 0.66849 0.0
H445 H 0.15352 0.02686 0.57406 0.0
H446 H 0.10604 0.13207 0.62115 0.0
H447 H 0.1733 0.07796 0.69017 0.0
C448 C 0.1932 0.12785 0.71319 0.0
C449 C 0.19885 0.16359 0.70762 0.0
C450 C 0.11633 0.1089 0.61089 0.0
C451 C 0.16853 0.11931 0.65294 0.0
C452 C 0.09737 0.0896 0.58367 0.0
C453 C 0.11051 0.05985 0.56962 0.0
C454 C 0.1482 0.098 0.62488 0.0
C455 C 0.14277 0.04984 0.58409 0.0
C456 C 0.17841 0.10545 0.68559 0.0
C457 C 0.19005 0.17598 0.67397 0.0
N458 N 0.16055 0.06881 0.61137 0.0
N459 N 0.17473 0.15396 0.64812 0.0
H460 H 0.8223 0.17489 0.64185 0.0
H461 H 0.99461 0.0834 0.6241 0.0
H462 H 0.89336 0.16848 0.73365 0.0
H463 H 0.94792 0.13562 0.53684 0.0
H464 H 0.96294 0.11734 0.66594 0.0
H465 H 0.86957 0.15993 0.60356 0.0
C466 C 0.8478 0.16987 0.65399 0.0
C467 C 0.85392 0.17249 0.69095 0.0
C468 C 0.96071 0.1224 0.63776 0.0
C469 C 0.90839 0.15595 0.64719 0.0
C470 C 0.9791 0.10339 0.61398 0.0
C471 C 0.97362 0.10693 0.57723 0.0
C472 C 0.9361 0.14414 0.62432 0.0
C473 C 0.95285 0.13246 0.5651 0.0
C474 C 0.87499 0.16195 0.63206 0.0
C475 C 0.88758 0.16626 0.70523 0.0
N476 N 0.93391 0.1495 0.58862 0.0
N477 N 0.91362 0.15788 0.68327 0.0
H478 H 0.85483 0.85431 0.74853 0.0
H479 H 0.91779 0.87096 0.54609 0.0
H480 H 0.81496 0.78199 0.66442 0.0
H481 H 0.93887 0.95179 0.62656 0.0
H482 H 0.88663 0.83401 0.5905 0.0
H483 H 0.89138 0.88722 0.70535 0.0
C484 C 0.8537 0.84541 0.72098 0.0
C485 C 0.8317 0.81545 0.7101 0.0
C486 C 0.89842 0.85974 0.59844 0.0
C487 C 0.87383 0.85273 0.66043 0.0
C488 C 0.91649 0.88065 0.57319 0.0
C489 C 0.93077 0.91455 0.58258 0.0
C490 C 0.89503 0.87276 0.63332 0.0
C491 C 0.92797 0.92593 0.61804 0.0
C492 C 0.87464 0.86413 0.6963 0.0
C493 C 0.83145 0.80503 0.674 0.0
N494 N 0.91043 0.90524 0.64194 0.0
N495 N 0.85218 0.82355 0.65052 0.0
H496 H 0.31299 0.21231 0.14154 0.0
H497 H 0.43981 0.05871 0.12964 0.0
H498 H 0.35132 0.1633 0.23524 0.0
H499 H 0.42987 0.13029 0.04474 0.0
H500 H 0.40612 0.09466 0.16792 0.0
H501 H 0.35242 0.18055 0.10537 0.0
C502 C 0.32947 0.19471 0.15468 0.0
C503 C 0.32825 0.1906 0.19189 0.0
C504 C 0.41168 0.10292 0.14114 0.0
C505 C 0.37418 0.15353 0.14975 0.0
C506 C 0.43121 0.08244 0.11919 0.0
C507 C 0.43852 0.09157 0.08383 0.0
C508 C 0.39806 0.13269 0.12771 0.0
C509 C 0.42578 0.12241 0.07189 0.0
C510 C 0.35231 0.17667 0.13382 0.0
C511 C 0.35094 0.16748 0.20685 0.0
N512 N 0.40593 0.14145 0.09348 0.0
N513 N 0.37252 0.14976 0.18585 0.0
H514 H 0.86509 0.25607 0.17394 0.0
H515 H 0.91353 0.44099 0.11781 0.0
H516 H 0.78236 0.32209 0.14849 0.0
H517 H 0.95543 0.36559 0.04868 0.0
H518 H 0.87499 0.39479 0.14359 0.0
H519 H 0.90648 0.29219 0.13737 0.0
C520 C 0.8554 0.27759 0.15994 0.0
C521 C 0.82051 0.2866 0.16466 0.0
C522 C 0.89284 0.38848 0.1229 0.0
C523 C 0.86747 0.32767 0.12396 0.0
C524 C 0.91505 0.41469 0.10827 0.0
C525 C 0.9372 0.40728 0.08036 0.0
C526 C 0.89319 0.35449 0.11018 0.0
C527 C 0.93848 0.37246 0.06989 0.0
C528 C 0.87895 0.29796 0.13914 0.0
C529 C 0.8091 0.31444 0.14581 0.0
N530 N 0.91646 0.34707 0.0848 0.0
N531 N 0.8329 0.33464 0.12701 0.0
H532 H 0.73617 0.83142 0.14071 0.0
H533 H 0.55412 0.92282 0.10585 0.0
H534 H 0.65917 0.83568 0.22275 0.0
H535 H 0.64639 0.93494 0.04027 0.0
H536 H 0.58816 0.88862 0.14758 0.0
H537 H 0.70043 0.86611 0.10296 0.0
C538 C 0.71171 0.83957 0.15105 0.0
C539 C 0.7012 0.83018 0.18553 0.0
C540 C 0.60093 0.89888 0.12408 0.0
C541 C 0.65887 0.87073 0.14104 0.0
C542 C 0.58139 0.91849 0.10006 0.0
C543 C 0.59701 0.93232 0.069 0.0
C544 C 0.63644 0.89237 0.11707 0.0
C545 C 0.6327 0.92532 0.06352 0.0
C546 C 0.69112 0.85965 0.12919 0.0
C547 C 0.66884 0.84211 0.19666 0.0
N548 N 0.65072 0.90604 0.08684 0.0
N549 N 0.64891 0.86142 0.1746 0.0
H550 H 0.21167 0.72623 0.14031 0.0
H551 H 0.0777 0.55776 0.11052 0.0
H552 H 0.19395 0.65483 0.22589 0.0
H553 H 0.14888 0.59472 0.02858 0.0
H554 H 0.11276 0.59725 0.15369 0.0
H555 H 0.18141 0.68245 0.09863 0.0
C556 C 0.20149 0.70125 0.15023 0.0
C557 C 0.20528 0.694 0.18644 0.0
C558 C 0.12074 0.59638 0.12629 0.0
C559 C 0.17004 0.6443 0.13927 0.0
C560 C 0.10074 0.57405 0.10169 0.0
C561 C 0.11048 0.57293 0.06598 0.0
C562 C 0.14996 0.61835 0.11479 0.0
C563 C 0.14059 0.59456 0.0559 0.0
C564 C 0.18436 0.67633 0.1265 0.0
C565 C 0.19167 0.66127 0.19806 0.0
N566 N 0.15896 0.61671 0.08006 0.0
N567 N 0.17413 0.63769 0.17458 0.0
H568 H 0.26539 0.86434 0.8194 0.0
H569 H 0.4644 0.90858 0.90321 0.0
H570 H 0.35303 0.80808 0.78818 0.0
H571 H 0.37376 0.96366 0.92764 0.0
H572 H 0.4268 0.87414 0.85764 0.0
H573 H 0.30686 0.90281 0.85658 0.0
C574 C 0.29349 0.86012 0.82035 0.0
C575 C 0.30576 0.83295 0.80072 0.0
C576 C 0.41537 0.89406 0.87275 0.0
C577 C 0.35383 0.87708 0.84364 0.0
C578 C 0.43687 0.91388 0.89854 0.0
C579 C 0.42208 0.9388 0.91951 0.0
C580 C 0.379 0.89941 0.86795 0.0
C581 C 0.3862 0.94443 0.91249 0.0
C582 C 0.31728 0.88219 0.84159 0.0
C583 C 0.34252 0.82878 0.80296 0.0
N584 N 0.36597 0.9248 0.88761 0.0
N585 N 0.36531 0.85053 0.82423 0.0
H586 H 0.11181 0.26061 0.81885 0.0
H587 H 0.07526 0.37296 0.9888 0.0
H588 H 0.19213 0.27962 0.90379 0.0
H589 H 0.06443 0.41172 0.8826 0.0
H590 H 0.09855 0.3211 0.96397 0.0
H591 H 0.07385 0.29819 0.85001 0.0
C592 C 0.1209 0.27175 0.84464 0.0
C593 C 0.15517 0.26753 0.85879 0.0
C594 C 0.09028 0.3407 0.94624 0.0
C595 C 0.11198 0.30956 0.89426 0.0
C596 C 0.07702 0.37006 0.96019 0.0
C597 C 0.06819 0.39637 0.93748 0.0
C598 C 0.09359 0.33746 0.90942 0.0
C599 C 0.07124 0.39191 0.90076 0.0
C600 C 0.09936 0.2932 0.86214 0.0
C601 C 0.1659 0.2826 0.89207 0.0
N602 N 0.08373 0.36279 0.88772 0.0
N603 N 0.14435 0.30331 0.90873 0.0
H604 H 0.70565 0.15193 0.80033 0.0
H605 H 0.5983 0.14363 0.97699 0.0
H606 H 0.69709 0.24621 0.86083 0.0
H607 H 0.57052 0.07625 0.88564 0.0
H608 H 0.63669 0.18208 0.93927 0.0
H609 H 0.66109 0.1218 0.83751 0.0
C610 C 0.6948 0.16619 0.82178 0.0
C611 C 0.70509 0.2016 0.82751 0.0
C612 C 0.62138 0.15932 0.92743 0.0
C613 C 0.6537 0.16734 0.86992 0.0
C614 C 0.59919 0.13773 0.94876 0.0
C615 C 0.58141 0.10689 0.93422 0.0
C616 C 0.62594 0.14933 0.89183 0.0
C617 C 0.58397 0.09982 0.89775 0.0
C618 C 0.669 0.14909 0.8427 0.0
C619 C 0.68977 0.21885 0.85552 0.0
N620 N 0.60636 0.12051 0.87796 0.0
N621 N 0.66486 0.2015 0.87588 0.0
H622 H 0.88482 0.72311 0.85381 0.0
H623 H 0.87892 0.53609 0.93901 0.0
H624 H 0.78885 0.65288 0.86251 0.0
H625 H 0.97734 0.60161 0.92588 0.0
H626 H 0.84617 0.57771 0.90737 0.0
H627 H 0.91982 0.67953 0.88032 0.0
C628 C 0.87112 0.69878 0.86199 0.0
C629 C 0.83406 0.69136 0.85614 0.0
C630 C 0.87499 0.58289 0.91091 0.0
C631 C 0.87361 0.6415 0.8853 0.0
C632 C 0.89365 0.55899 0.92865 0.0
C633 C 0.93065 0.56573 0.93505 0.0
C634 C 0.89349 0.61393 0.89999 0.0
C635 C 0.94873 0.59558 0.92119 0.0
C636 C 0.89108 0.67381 0.87659 0.0
C637 C 0.81745 0.65948 0.86665 0.0
N638 N 0.92981 0.61903 0.90469 0.0
N639 N 0.83739 0.63562 0.88059 0.0
H640 H 0.23737 0.3425 0.12955 0.0
H641 H 0.04726 0.40818 0.08218 0.0
H642 H 0.1374 0.28593 0.15685 0.0
H643 H 0.14937 0.46438 0.06122 0.0
H644 H 0.07873 0.36409 0.11226 0.0
H645 H 0.20438 0.38662 0.10277 0.0
C646 C 0.20834 0.33912 0.12921 0.0
C647 C 0.18992 0.31081 0.14536 0.0
C648 C 0.09416 0.38635 0.10153 0.0
C649 C 0.152 0.36151 0.11581 0.0
C650 C 0.07625 0.41172 0.08491 0.0
C651 C 0.09596 0.43962 0.06912 0.0
C652 C 0.13178 0.38926 0.10216 0.0
C653 C 0.13335 0.44296 0.07285 0.0
C654 C 0.1895 0.36448 0.11433 0.0
C655 C 0.1524 0.30747 0.1444 0.0
N656 N 0.1501 0.41782 0.08868 0.0
N657 N 0.13452 0.33286 0.13011 0.0
H658 H 0.24442 0.70462 0.86763 0.0
H659 H 0.04901 0.62997 0.92415 0.0
H660 H 0.14868 0.73222 0.81283 0.0
H661 H 0.14432 0.57686 0.93355 0.0
H662 H 0.08496 0.67921 0.89765 0.0
H663 H 0.207 0.67104 0.90896 0.0
C664 C 0.21557 0.70417 0.86464 0.0
C665 C 0.19958 0.72032 0.83612 0.0
C666 C 0.09778 0.65675 0.90583 0.0
C667 C 0.15686 0.68194 0.88313 0.0
C668 C 0.07739 0.62878 0.92063 0.0
C669 C 0.09371 0.5992 0.93001 0.0
C670 C 0.13463 0.65513 0.90167 0.0
C671 C 0.13058 0.59886 0.92566 0.0
C672 C 0.19427 0.68496 0.88819 0.0
C673 C 0.16205 0.71941 0.834 0.0
N674 N 0.1498 0.62642 0.91183 0.0
N675 N 0.1418 0.69991 0.85689 0.0
H676 H 0.28125 0.17043 0.86238 0.0
H677 H 0.4655 0.08251 0.89704 0.0
H678 H 0.36098 0.17215 0.78238 0.0
H679 H 0.37311 0.06897 0.9624 0.0
H680 H 0.43125 0.11697 0.85576 0.0
H681 H 0.31737 0.13577 0.89967 0.0
C682 C 0.3064 0.1636 0.8524 0.0
C683 C 0.31758 0.17465 0.81865 0.0
C684 C 0.41852 0.10635 0.87913 0.0
C685 C 0.3603 0.13409 0.86255 0.0
C686 C 0.43817 0.08658 0.90286 0.0
C687 C 0.42257 0.07232 0.93373 0.0
C688 C 0.38291 0.11246 0.88621 0.0
C689 C 0.38681 0.07896 0.9393 0.0
C690 C 0.32721 0.14354 0.87399 0.0
C691 C 0.35081 0.16439 0.80793 0.0
N692 N 0.36866 0.09832 0.91622 0.0
N693 N 0.37089 0.14499 0.82969 0.0
H694 H 0.86189 0.27222 0.84134 0.0
H695 H 0.86741 0.45143 0.94407 0.0
H696 H 0.79241 0.34698 0.8045 0.0
H697 H 0.96334 0.40293 0.92346 0.0
H698 H 0.83398 0.41063 0.90086 0.0
H699 H 0.89377 0.31658 0.88076 0.0
C700 C 0.8532 0.29797 0.84167 0.0
C701 C 0.82452 0.306 0.81952 0.0
C702 C 0.8624 0.40928 0.90572 0.0
C703 C 0.86069 0.35676 0.86504 0.0
C704 C 0.88143 0.43236 0.93038 0.0
C705 C 0.91819 0.43054 0.93737 0.0
C706 C 0.88014 0.38371 0.88885 0.0
C707 C 0.93509 0.40541 0.9188 0.0
C708 C 0.87155 0.32329 0.86404 0.0
C709 C 0.81448 0.33984 0.82108 0.0
N710 N 0.91584 0.38271 0.89581 0.0
N711 N 0.83239 0.36405 0.84376 0.0
H712 H 0.71114 0.79412 0.86365 0.0
H713 H 0.5795 0.94424 0.87278 0.0
H714 H 0.67273 0.84254 0.76962 0.0
H715 H 0.59199 0.87489 0.95921 0.0
H716 H 0.61456 0.90886 0.83534 0.0
H717 H 0.67058 0.82508 0.89941 0.0
C718 C 0.69442 0.81142 0.85037 0.0
C719 C 0.69592 0.81561 0.8132 0.0
C720 C 0.60927 0.90093 0.86227 0.0
C721 C 0.64869 0.85167 0.85477 0.0
C722 C 0.58891 0.92106 0.88372 0.0
C723 C 0.5819 0.91237 0.91925 0.0
C724 C 0.624 0.872 0.87637 0.0
C725 C 0.59578 0.88233 0.93189 0.0
C726 C 0.67093 0.82899 0.87097 0.0
C727 C 0.67291 0.83831 0.798 0.0
N728 N 0.61639 0.86362 0.91075 0.0
N729 N 0.65068 0.85552 0.81872 0.0
H730 H 0.80752 0.67946 0.12371 0.0
H731 H 0.97822 0.6424 0.03138 0.0
H732 H 0.89303 0.76146 0.14351 0.0
H733 H 0.93521 0.57904 0.11631 0.0
H734 H 0.94555 0.68994 0.05329 0.0
H735 H 0.84997 0.64475 0.09572 0.0
C736 C 0.83501 0.69051 0.12125 0.0
C737 C 0.84715 0.72293 0.1364 0.0
C738 C 0.9442 0.66578 0.06735 0.0
C739 C 0.89525 0.68363 0.10474 0.0
C740 C 0.96285 0.63878 0.05514 0.0
C741 C 0.95865 0.60647 0.07162 0.0
C742 C 0.92128 0.65981 0.09565 0.0
C743 C 0.93846 0.60318 0.10227 0.0
C744 C 0.85909 0.67071 0.1055 0.0
C745 C 0.88296 0.73629 0.13234 0.0
N746 N 0.91978 0.62928 0.1128 0.0
N747 N 0.90624 0.7162 0.11726 0.0
H748 H 0.36915 0.76674 0.18645 0.0
H749 H 0.37781 0.90476 0.03312 0.0
H750 H 0.28853 0.83666 0.16769 0.0
H751 H 0.47419 0.87795 0.08665 0.0
H752 H 0.34211 0.86582 0.07143 0.0
H753 H 0.40552 0.79584 0.14088 0.0
C754 C 0.35905 0.78819 0.17266 0.0
C755 C 0.32579 0.79947 0.18083 0.0
C756 C 0.37107 0.86793 0.07438 0.0
C757 C 0.36692 0.83208 0.12842 0.0
C758 C 0.39143 0.88973 0.05233 0.0
C759 C 0.42883 0.89441 0.05698 0.0
C760 C 0.38827 0.85063 0.10123 0.0
C761 C 0.44537 0.87468 0.08222 0.0
C762 C 0.37986 0.80468 0.14677 0.0
C763 C 0.31409 0.82737 0.16234 0.0
N764 N 0.42484 0.85374 0.10388 0.0
N765 N 0.33458 0.84262 0.13674 0.0
H766 H 0.66666 0.19727 0.2152 0.0
H767 H 0.64394 0.03718 0.07559 0.0
H768 H 0.75234 0.14148 0.17796 0.0
H769 H 0.55711 0.09849 0.09666 0.0
H770 H 0.68098 0.07068 0.12082 0.0
H771 H 0.62367 0.15831 0.17826 0.0
C772 C 0.67635 0.1768 0.19937 0.0
C773 C 0.71308 0.17261 0.1995 0.0
C774 C 0.65378 0.07682 0.11589 0.0
C775 C 0.66438 0.128 0.1578 0.0
C776 C 0.63254 0.05756 0.0901 0.0
C777 C 0.59757 0.06535 0.08208 0.0
C778 C 0.64025 0.10452 0.13376 0.0
C779 C 0.58401 0.09171 0.10207 0.0
C780 C 0.65188 0.1546 0.17841 0.0
C781 C 0.72431 0.14574 0.17863 0.0
N782 N 0.60559 0.11077 0.12675 0.0
N783 N 0.70013 0.12457 0.15873 0.0
H784 H 0.66173 0.64704 0.7387 0.0
H785 H 0.60155 0.6274 0.9404 0.0
H786 H 0.7061 0.71158 0.82739 0.0
H787 H 0.56799 0.54979 0.85909 0.0
H788 H 0.63351 0.66221 0.89628 0.0
H789 H 0.6228 0.61348 0.77979 0.0
C790 C 0.66341 0.654 0.7668 0.0
C791 C 0.68719 0.68209 0.77969 0.0
C792 C 0.619 0.63771 0.88786 0.0
C793 C 0.64253 0.64435 0.82653 0.0
C794 C 0.60052 0.61786 0.91305 0.0
C795 C 0.58234 0.58546 0.9035 0.0
C796 C 0.61964 0.62514 0.85265 0.0
C797 C 0.58163 0.57466 0.86757 0.0
C798 C 0.64112 0.63497 0.79016 0.0
C799 C 0.68824 0.69011 0.81626 0.0
N800 N 0.60042 0.5943 0.84343 0.0
N801 N 0.6662 0.67145 0.83828 0.0
H802 H 0.40219 0.67717 0.79575 0.0
H803 H 0.38066 0.5663 0.9638 0.0
H804 H 0.33315 0.70765 0.87767 0.0
H805 H 0.48577 0.5927 0.92237 0.0
H806 H 0.35866 0.61363 0.9295 0.0
H807 H 0.43079 0.64115 0.83892 0.0
C808 C 0.39357 0.67666 0.82297 0.0
C809 C 0.36553 0.6952 0.83342 0.0
C810 C 0.38664 0.60917 0.92856 0.0
C811 C 0.39687 0.6537 0.88204 0.0
C812 C 0.39907 0.5822 0.94784 0.0
C813 C 0.43493 0.57553 0.94574 0.0
C814 C 0.4101 0.62868 0.90654 0.0
C815 C 0.45787 0.59693 0.9248 0.0
C816 C 0.40977 0.65624 0.84747 0.0
C817 C 0.35494 0.69374 0.86884 0.0
N818 N 0.44489 0.6222 0.90548 0.0
N819 N 0.37018 0.67265 0.89188 0.0
H820 H 0.31363 0.28791 0.8369 0.0
H821 H 0.422 0.47453 0.86102 0.0
H822 H 0.31761 0.36124 0.75193 0.0
H823 H 0.44147 0.38659 0.9244 0.0
H824 H 0.38284 0.43573 0.82029 0.0
H825 H 0.35685 0.32731 0.8717 0.0
C826 C 0.32325 0.31255 0.82581 0.0
C827 C 0.3123 0.32134 0.79151 0.0
C828 C 0.39633 0.42494 0.84274 0.0
C829 C 0.36208 0.36628 0.83081 0.0
C830 C 0.41896 0.44694 0.86557 0.0
C831 C 0.43468 0.43353 0.89592 0.0
C832 C 0.38942 0.38971 0.8509 0.0
C833 C 0.42955 0.3978 0.90126 0.0
C834 C 0.34824 0.33485 0.84545 0.0
C835 C 0.32563 0.35354 0.77831 0.0
N836 N 0.40697 0.3772 0.87929 0.0
N837 N 0.34996 0.37493 0.79798 0.0
H838 H 0.62042 0.31875 0.78324 0.0
H839 H 0.64464 0.46292 0.93361 0.0
H840 H 0.71106 0.39666 0.79346 0.0
H841 H 0.53798 0.42257 0.89636 0.0
H842 H 0.66937 0.43197 0.8854 0.0
H843 H 0.58819 0.35262 0.82499 0.0
C844 C 0.63311 0.34339 0.7936 0.0
C845 C 0.66853 0.35485 0.78568 0.0
C846 C 0.64053 0.42992 0.88764 0.0
C847 C 0.63256 0.39275 0.83327 0.0
C848 C 0.62638 0.44732 0.91535 0.0
C849 C 0.58918 0.44567 0.91862 0.0
C850 C 0.61743 0.4104 0.86313 0.0
C851 C 0.56685 0.42453 0.89461 0.0
C852 C 0.61482 0.36251 0.8174 0.0
C853 C 0.68393 0.3868 0.79945 0.0
N854 N 0.58139 0.40763 0.86756 0.0
N855 N 0.66601 0.40444 0.82312 0.0
H856 H 0.65744 0.36366 0.21837 0.0
H857 H 0.55571 0.39117 0.03709 0.0
H858 H 0.6433 0.27844 0.14197 0.0
H859 H 0.63891 0.46552 0.083 0.0
H860 H 0.57391 0.34808 0.0794 0.0
H861 H 0.63272 0.40077 0.17424 0.0
C862 C 0.64834 0.35259 0.19256 0.0
C863 C 0.65281 0.31825 0.18338 0.0
C864 C 0.58826 0.37376 0.07967 0.0
C865 C 0.62494 0.36033 0.13323 0.0
C866 C 0.57812 0.39817 0.05566 0.0
C867 C 0.59593 0.43179 0.05673 0.0
C868 C 0.61551 0.38368 0.10525 0.0
C869 C 0.62468 0.4398 0.08118 0.0
C870 C 0.63461 0.37379 0.16742 0.0
C871 C 0.64047 0.305 0.14972 0.0
N872 N 0.63321 0.41602 0.10497 0.0
N873 N 0.62721 0.32628 0.12547 0.0
H874 H 0.67037 0.6629 0.26325 0.0
H875 H 0.65366 0.56026 0.07971 0.0
H876 H 0.72591 0.69888 0.17013 0.0
H877 H 0.55798 0.56997 0.1381 0.0
H878 H 0.68806 0.59828 0.12336 0.0
H879 H 0.63536 0.61787 0.22637 0.0
C880 C 0.67539 0.66116 0.23509 0.0
C881 C 0.70121 0.68445 0.21956 0.0
C882 C 0.65963 0.5918 0.12685 0.0
C883 C 0.66193 0.63294 0.17797 0.0
C884 C 0.63999 0.57006 0.10215 0.0
C885 C 0.60283 0.5627 0.10505 0.0
C886 C 0.64216 0.60602 0.15494 0.0
C887 C 0.58657 0.57531 0.13497 0.0
C888 C 0.65531 0.63563 0.21423 0.0
C889 C 0.70646 0.6813 0.18307 0.0
N890 N 0.60642 0.59689 0.15885 0.0
N891 N 0.68717 0.65572 0.16349 0.0
H892 H 0.35236 0.68419 0.16099 0.0
H893 H 0.41658 0.50986 0.11362 0.0
H894 H 0.36062 0.6105 0.24457 0.0
H895 H 0.47047 0.60293 0.07137 0.0
H896 H 0.39376 0.54448 0.16117 0.0
H897 H 0.39339 0.65385 0.126 0.0
C898 C 0.36295 0.66153 0.1719 0.0
C899 C 0.35289 0.6492 0.20521 0.0
C900 C 0.4111 0.55719 0.14186 0.0
C901 C 0.39943 0.61465 0.16555 0.0
C902 C 0.42365 0.53765 0.11457 0.0
C903 C 0.44458 0.55398 0.08838 0.0
C904 C 0.41883 0.59321 0.14216 0.0
C905 C 0.45393 0.58972 0.09099 0.0
C906 C 0.38666 0.64461 0.1522 0.0
C907 C 0.3677 0.62033 0.2187 0.0
N908 N 0.44019 0.60845 0.11709 0.0
N909 N 0.38981 0.60333 0.19832 0.0
H910 H 0.36055 0.36386 0.26048 0.0
H911 H 0.42553 0.37681 0.05969 0.0
H912 H 0.3196 0.29495 0.17385 0.0
H913 H 0.45984 0.45511 0.14006 0.0
H914 H 0.39185 0.34357 0.10389 0.0
H915 H 0.40039 0.39586 0.21909 0.0
C916 C 0.35978 0.35562 0.23275 0.0
C917 C 0.33669 0.32673 0.22057 0.0
C918 C 0.40694 0.36785 0.11211 0.0
C919 C 0.38245 0.3628 0.17332 0.0
C920 C 0.42642 0.38678 0.08687 0.0
C921 C 0.44545 0.41889 0.09612 0.0
C922 C 0.40608 0.38108 0.14707 0.0
C923 C 0.44574 0.43037 0.13183 0.0
C924 C 0.38263 0.37378 0.2092 0.0
C925 C 0.33687 0.31709 0.18442 0.0
N926 N 0.42598 0.41164 0.15598 0.0
N927 N 0.35941 0.33497 0.16221 0.0
H928 H 0.78793 0.6724 0.63959 0.0
H929 H 0.96651 0.57366 0.64516 0.0
H930 H 0.85156 0.66619 0.73647 0.0
H931 H 0.88413 0.55771 0.56223 0.0
H932 H 0.9264 0.60724 0.67979 0.0
H933 H 0.82467 0.63189 0.61063 0.0
C934 C 0.8095 0.66256 0.65489 0.0
C935 C 0.81625 0.67297 0.69075 0.0
C936 C 0.91687 0.59579 0.65429 0.0
C937 C 0.85925 0.6263 0.6573 0.0
C938 C 0.93965 0.57608 0.63474 0.0
C939 C 0.92874 0.56222 0.60074 0.0
C940 C 0.88307 0.60225 0.63959 0.0
C941 C 0.89383 0.56753 0.58833 0.0
C942 C 0.83055 0.63924 0.63831 0.0
C943 C 0.84494 0.65902 0.70889 0.0
N944 N 0.87272 0.58724 0.60731 0.0
N945 N 0.86536 0.63682 0.69203 0.0
H946 H 0.37689 0.76937 0.67936 0.0
H947 H 0.38246 0.9255 0.55417 0.0
H948 H 0.28085 0.80173 0.62936 0.0
H949 H 0.47247 0.86532 0.56407 0.0
H950 H 0.344 0.87759 0.57811 0.0
H951 H 0.41233 0.80049 0.63446 0.0
C952 C 0.36319 0.78251 0.65864 0.0
C953 C 0.32595 0.78371 0.65865 0.0
C954 C 0.37198 0.87446 0.57436 0.0
C955 C 0.36627 0.81938 0.60753 0.0
C956 C 0.39387 0.90181 0.56084 0.0
C957 C 0.4305 0.89919 0.55759 0.0
C958 C 0.38717 0.8448 0.58575 0.0
C959 C 0.44422 0.8681 0.56633 0.0
C960 C 0.38343 0.8001 0.63292 0.0
C961 C 0.30957 0.80067 0.63085 0.0
N962 N 0.42265 0.84225 0.58091 0.0
N963 N 0.32992 0.81844 0.60684 0.0
H964 H 0.22128 0.31935 0.65222 0.0
H965 H 0.04371 0.42029 0.64195 0.0
H966 H 0.15196 0.32125 0.74119 0.0
H967 H 0.13038 0.43428 0.56967 0.0
H968 H 0.08057 0.38459 0.67941 0.0
H969 H 0.18597 0.36013 0.62169 0.0
C970 C 0.19865 0.32827 0.6655 0.0
C971 C 0.18999 0.31648 0.69963 0.0
C972 C 0.09167 0.39597 0.65561 0.0
C973 C 0.14844 0.3639 0.66405 0.0
C974 C 0.07072 0.41682 0.6344 0.0
C975 C 0.08378 0.43083 0.60244 0.0
C976 C 0.12589 0.38865 0.64472 0.0
C977 C 0.11887 0.42429 0.5939 0.0
C978 C 0.17837 0.35183 0.64795 0.0
C979 C 0.16002 0.32947 0.71505 0.0
N980 N 0.13819 0.40372 0.61441 0.0
N981 N 0.14034 0.35211 0.69718 0.0
H982 H 0.68905 0.23633 0.6316 0.0
H983 H 0.57474 0.05465 0.64061 0.0
H984 H 0.70328 0.16685 0.71793 0.0
H985 H 0.60014 0.10168 0.5402 0.0
H986 H 0.61917 0.09705 0.6706 0.0
H987 H 0.65376 0.18891 0.5981 0.0
C988 C 0.68499 0.21102 0.64331 0.0
C989 C 0.69883 0.20546 0.67756 0.0
C990 C 0.61527 0.09779 0.64195 0.0
C991 C 0.65825 0.15153 0.63988 0.0
C992 C 0.58988 0.07369 0.62487 0.0
C993 C 0.58367 0.07471 0.58791 0.0
C994 C 0.63399 0.12352 0.62203 0.0
C995 C 0.60414 0.09988 0.56875 0.0
C996 C 0.66498 0.18401 0.62422 0.0
C997 C 0.69296 0.1722 0.69158 0.0
N998 N 0.62803 0.12362 0.5861 0.0
N999 N 0.67266 0.14659 0.67289 0.0
H1000 H 0.85032 0.29907 0.28964 0.0
H1001 H 0.90194 0.45631 0.42836 0.0
H1002 H 0.7709 0.35805 0.3348 0.0
H1003 H 0.96964 0.37476 0.40997 0.0
H1004 H 0.8551 0.42474 0.38966 0.0
H1005 H 0.89623 0.33074 0.329 0.0
C1006 C 0.84256 0.31866 0.30791 0.0
C1007 C 0.80676 0.32582 0.30918 0.0
C1008 C 0.8802 0.41379 0.39426 0.0
C1009 C 0.85918 0.36253 0.35389 0.0
C1010 C 0.90697 0.43182 0.41625 0.0
C1011 C 0.9398 0.41818 0.42252 0.0
C1012 C 0.88652 0.38219 0.378 0.0
C1013 C 0.94475 0.38626 0.40612 0.0
C1014 C 0.86874 0.33672 0.33037 0.0
C1015 C 0.79821 0.35168 0.3331 0.0
N1016 N 0.91854 0.36951 0.3845 0.0
N1017 N 0.82426 0.36924 0.35443 0.0
H1018 H 0.65778 0.76628 0.37481 0.0
H1019 H 0.63441 0.95488 0.44007 0.0
H1020 H 0.74122 0.85146 0.37675 0.0
H1021 H 0.55208 0.8695 0.44761 0.0
H1022 H 0.67828 0.91403 0.4309 0.0
H1023 H 0.62388 0.79907 0.41567 0.0
C1024 C 0.66926 0.79158 0.38456 0.0
C1025 C 0.70153 0.80691 0.37168 0.0
C1026 C 0.65073 0.90405 0.43489 0.0
C1027 C 0.66321 0.84438 0.41774 0.0
C1028 C 0.62564 0.9274 0.43971 0.0
C1029 C 0.58952 0.91538 0.4432 0.0
C1030 C 0.6394 0.86846 0.43258 0.0
C1031 C 0.57966 0.87965 0.44408 0.0
C1032 C 0.64999 0.81026 0.40784 0.0
C1033 C 0.71579 0.8393 0.38538 0.0
N1034 N 0.60442 0.8573 0.43791 0.0
N1035 N 0.69616 0.85732 0.40721 0.0
H1036 H 0.19171 0.73065 0.3637 0.0
H1037 H 0.1153 0.54664 0.43482 0.0
H1038 H 0.22711 0.63372 0.32809 0.0
H1039 H 0.07231 0.64281 0.46047 0.0
H1040 H 0.16368 0.57908 0.40411 0.0
H1041 H 0.15514 0.69965 0.40738 0.0
C1042 C 0.19198 0.70284 0.36519 0.0
C1043 C 0.21204 0.68463 0.3418 0.0
C1044 C 0.14384 0.59308 0.41676 0.0
C1045 C 0.17016 0.64903 0.39178 0.0
C1046 C 0.11622 0.5746 0.43437 0.0
C1047 C 0.08931 0.59201 0.44967 0.0
C1048 C 0.14454 0.62916 0.4145 0.0
C1049 C 0.09212 0.62826 0.44853 0.0
C1050 C 0.17111 0.68518 0.39021 0.0
C1051 C 0.21173 0.64872 0.34533 0.0
N1052 N 0.11905 0.64561 0.43089 0.0
N1053 N 0.19077 0.63201 0.36964 0.0
H1054 H 0.39199 0.23414 0.35944 0.0
H1055 H 0.40314 0.05389 0.45366 0.0
H1056 H 0.29699 0.16492 0.37666 0.0
H1057 H 0.48437 0.09917 0.38507 0.0
H1058 H 0.36543 0.0996 0.43749 0.0
H1059 H 0.42865 0.19086 0.38372 0.0
C1060 C 0.37885 0.21022 0.36925 0.0
C1061 C 0.34158 0.20279 0.3659 0.0
C1062 C 0.39142 0.09926 0.42589 0.0
C1063 C 0.38305 0.15344 0.39311 0.0
C1064 C 0.41278 0.07319 0.43486 0.0
C1065 C 0.44667 0.07262 0.4203 0.0
C1066 C 0.40452 0.12525 0.40295 0.0
C1067 C 0.45817 0.09837 0.39641 0.0
C1068 C 0.39973 0.18545 0.38264 0.0
C1069 C 0.32576 0.17139 0.37871 0.0
N1070 N 0.43723 0.1239 0.38873 0.0
N1071 N 0.34665 0.14763 0.39163 0.0
H1072 H 0.71994 0.86518 0.67298 0.0
H1073 H 0.57819 0.90832 0.52595 0.0
H1074 H 0.66115 0.78267 0.61003 0.0
H1075 H 0.58089 0.95552 0.63107 0.0
H1076 H 0.62089 0.869 0.54697 0.0
H1077 H 0.68172 0.90615 0.64711 0.0
C1078 C 0.69944 0.85581 0.65314 0.0
C1079 C 0.69341 0.82053 0.64364 0.0
C1080 C 0.61217 0.88808 0.56528 0.0
C1081 C 0.65015 0.86718 0.6141 0.0
C1082 C 0.58809 0.91059 0.55339 0.0
C1083 C 0.5762 0.93515 0.57695 0.0
C1084 C 0.62506 0.89081 0.60064 0.0
C1085 C 0.58942 0.93682 0.61226 0.0
C1086 C 0.67757 0.87914 0.63874 0.0
C1087 C 0.66646 0.8097 0.618 0.0
N1088 N 0.61355 0.91504 0.62306 0.0
N1089 N 0.64567 0.83308 0.60395 0.0
H1090 H 0.65068 0.24072 0.32874 0.0
H1091 H 0.63891 0.08039 0.44897 0.0
H1092 H 0.74437 0.19717 0.37072 0.0
H1093 H 0.55137 0.14344 0.43716 0.0
H1094 H 0.6797 0.12787 0.42777 0.0
H1095 H 0.61532 0.21145 0.37462 0.0
C1096 C 0.66395 0.22543 0.34793 0.0
C1097 C 0.70028 0.22047 0.34525 0.0
C1098 C 0.65175 0.13175 0.43048 0.0
C1099 C 0.66 0.18692 0.39762 0.0
C1100 C 0.62852 0.1046 0.44241 0.0
C1101 C 0.5919 0.10809 0.44408 0.0
C1102 C 0.63793 0.16211 0.41908 0.0
C1103 C 0.57955 0.13991 0.43588 0.0
C1104 C 0.64377 0.20891 0.37427 0.0
C1105 C 0.71624 0.20105 0.37127 0.0
N1106 N 0.60246 0.16557 0.4228 0.0
N1107 N 0.69581 0.18437 0.39594 0.0
H1108 H 0.80123 0.68908 0.35484 0.0
H1109 H 0.97648 0.58432 0.36189 0.0
H1110 H 0.86613 0.68209 0.26308 0.0
H1111 H 0.89148 0.57231 0.43624 0.0
H1112 H 0.93935 0.62028 0.32497 0.0
H1113 H 0.83692 0.64847 0.38542 0.0
C1114 C 0.82299 0.67913 0.34098 0.0
C1115 C 0.83025 0.68941 0.30602 0.0
C1116 C 0.92867 0.6093 0.34913 0.0
C1117 C 0.87225 0.6422 0.34163 0.0
C1118 C 0.94979 0.58828 0.37005 0.0
C1119 C 0.93732 0.5747 0.40243 0.0
C1120 C 0.89492 0.6173 0.36076 0.0
C1121 C 0.9026 0.58192 0.41169 0.0
C1122 C 0.84347 0.65566 0.35855 0.0
C1123 C 0.85914 0.6751 0.28988 0.0
N1124 N 0.88316 0.60269 0.39148 0.0
N1125 N 0.87904 0.65262 0.30774 0.0
H1126 H 0.37061 0.75807 0.35117 0.0
H1127 H 0.39521 0.94637 0.4333 0.0
H1128 H 0.29965 0.8302 0.31123 0.0
H1129 H 0.48349 0.90288 0.38464 0.0
H1130 H 0.35388 0.89899 0.40549 0.0
H1131 H 0.40698 0.80625 0.38234 0.0
C1132 C 0.36231 0.78391 0.3495 0.0
C1133 C 0.33214 0.79028 0.3286 0.0
C1134 C 0.38233 0.90014 0.40098 0.0
C1135 C 0.37303 0.84492 0.36459 0.0
C1136 C 0.40575 0.92696 0.41669 0.0
C1137 C 0.44258 0.9286 0.41075 0.0
C1138 C 0.39626 0.87437 0.38056 0.0
C1139 C 0.45516 0.90278 0.38934 0.0
C1140 C 0.38309 0.81126 0.36712 0.0
C1141 C 0.32267 0.82429 0.32717 0.0
N1142 N 0.43209 0.87642 0.37538 0.0
N1143 N 0.34303 0.85049 0.34509 0.0
H1144 H 0.237 0.33694 0.36283 0.0
H1145 H 0.05564 0.43193 0.35908 0.0
H1146 H 0.17109 0.34028 0.26705 0.0
H1147 H 0.13798 0.44782 0.44205 0.0
H1148 H 0.09613 0.39913 0.32403 0.0
H1149 H 0.1996 0.37655 0.39212 0.0
C1150 C 0.21479 0.34598 0.34782 0.0
C1151 C 0.20762 0.33499 0.31216 0.0
C1152 C 0.10555 0.41038 0.34964 0.0
C1153 C 0.16378 0.3807 0.34608 0.0
C1154 C 0.08254 0.42965 0.36945 0.0
C1155 C 0.09332 0.44329 0.40359 0.0
C1156 C 0.13952 0.40419 0.36416 0.0
C1157 C 0.12833 0.43817 0.41587 0.0
C1158 C 0.19333 0.3688 0.36461 0.0
C1159 C 0.17807 0.34792 0.29445 0.0
N1160 N 0.14969 0.41895 0.39661 0.0
N1161 N 0.15729 0.36968 0.31151 0.0
H1162 H 0.28104 0.16775 0.62035 0.0
H1163 H 0.47424 0.13838 0.55223 0.0
H1164 H 0.37498 0.23942 0.64348 0.0
H1165 H 0.38944 0.05757 0.57065 0.0
H1166 H 0.43342 0.18175 0.56663 0.0
H1167 H 0.31598 0.1346 0.58112 0.0
C1168 C 0.30888 0.17688 0.61653 0.0
C1169 C 0.32562 0.20566 0.63574 0.0
C1170 C 0.42378 0.1545 0.56698 0.0
C1171 C 0.3655 0.16794 0.59145 0.0
C1172 C 0.44695 0.12984 0.55894 0.0
C1173 C 0.43528 0.09448 0.56119 0.0
C1174 C 0.38875 0.14351 0.57664 0.0
C1175 C 0.39969 0.08462 0.56956 0.0
C1176 C 0.32874 0.15798 0.59423 0.0
C1177 C 0.36145 0.2169 0.6295 0.0
N1178 N 0.37769 0.10906 0.5772 0.0
N1179 N 0.38057 0.19753 0.60829 0.0
H1180 H 0.79078 0.36605 0.67498 0.0
H1181 H 0.94872 0.36178 0.53865 0.0
H1182 H 0.83823 0.27374 0.64397 0.0
H1183 H 0.9084 0.45611 0.57514 0.0
H1184 H 0.90133 0.32842 0.5696 0.0
H1185 H 0.82686 0.39855 0.6315 0.0
C1186 C 0.8085 0.35253 0.65882 0.0
C1187 C 0.8119 0.31724 0.66348 0.0
C1188 C 0.90263 0.35641 0.57061 0.0
C1189 C 0.85314 0.35422 0.61379 0.0
C1190 C 0.92972 0.37551 0.55295 0.0
C1191 C 0.93295 0.41182 0.55485 0.0
C1192 C 0.87866 0.37369 0.59055 0.0
C1193 C 0.90715 0.42815 0.57326 0.0
C1194 C 0.82909 0.37111 0.63402 0.0
C1195 C 0.8351 0.30102 0.64167 0.0
N1196 N 0.88133 0.40894 0.59081 0.0
N1197 N 0.85503 0.31971 0.61798 0.0
H1198 H 0.25478 0.64061 0.67249 0.0
H1199 H 0.05441 0.63187 0.59122 0.0
H1200 H 0.17542 0.70375 0.71073 0.0
H1201 H 0.11922 0.54709 0.57836 0.0
H1202 H 0.10178 0.66207 0.62938 0.0
H1203 H 0.20852 0.6091 0.63279 0.0
C1204 C 0.22767 0.64784 0.67249 0.0
C1205 C 0.21893 0.67491 0.6948 0.0
C1206 C 0.1057 0.63686 0.61825 0.0
C1207 C 0.16617 0.63937 0.64937 0.0
C1208 C 0.07867 0.61958 0.59626 0.0
C1209 C 0.08267 0.58674 0.58151 0.0
C1210 C 0.13736 0.62152 0.62545 0.0
C1211 C 0.11484 0.57227 0.58922 0.0
C1212 C 0.20132 0.62985 0.64991 0.0
C1213 C 0.18341 0.68322 0.69381 0.0
N1214 N 0.14101 0.5898 0.61058 0.0
N1215 N 0.15844 0.66568 0.67137 0.0
loop_
_geom_bond_atom_site_label_1
_geom_bond_atom_site_label_2
_geom_bond_distance
_geom_bond_site_symmetry_2
_ccdc_geom_bond_type
Dy0 O4 2.398 . S
Dy0 O5 2.491 . S
Dy0 O6 2.403 . S
Dy0 O7 2.664 . S
Dy0 O11 2.326 . S
Dy0 O15 2.310 . S
Dy0 O16 2.351 . S
C1 O12 1.185 . S
C1 O13 1.355 . S
C2 O4 1.185 . S
C2 O5 1.355 . S
Dy3 O7 2.310 . S
Dy3 O10 2.351 . S
Dy3 O12 2.398 . S
Dy3 O13 2.491 . S
Dy3 O14 2.403 . S
Dy3 O15 2.664 . S
Dy3 O17 2.326 . S
O4 Dy0 2.398 . S
O4 C2 1.185 . S
O5 Dy0 2.491 . S
O5 C2 1.355 . S
O6 Dy0 2.403 . S
O6 C8 1.254 . S
O7 Dy0 2.664 . S
O7 Dy3 2.310 . S
O7 C8 1.268 . S
C8 O6 1.254 . S
C8 O7 1.268 . S
C9 O14 1.254 . S
C9 O15 1.268 . S
O10 Dy3 2.351 . S
O10 C18 1.249 . S
O11 Dy0 2.326 . S
O11 C18 1.267 . S
O12 C1 1.185 . S
O12 Dy3 2.398 . S
O13 C1 1.355 . S
O13 Dy3 2.491 . S
O14 Dy3 2.403 . S
O14 C9 1.254 . S
O15 Dy0 2.310 . S
O15 Dy3 2.664 . S
O15 C9 1.268 . S
O16 Dy0 2.351 . S
O16 C19 1.249 . S
O17 Dy3 2.326 . S
O17 C19 1.267 . S
C18 O10 1.249 . S
C18 O11 1.267 . S
C19 O16 1.249 . S
C19 O17 1.267 . S
Dy20 O24 2.398 . S
Dy20 O25 2.491 . S
Dy20 O26 2.403 . S
Dy20 O27 2.664 . S
Dy20 O31 2.326 . S
Dy20 O35 2.310 . S
Dy20 O36 2.351 . S
C21 O32 1.185 . S
C21 O33 1.355 . S
C22 O24 1.185 . S
C22 O25 1.355 . S
Dy23 O27 2.310 . S
Dy23 O30 2.351 . S
Dy23 O32 2.398 . S
Dy23 O33 2.491 . S
Dy23 O34 2.403 . S
Dy23 O35 2.664 . S
Dy23 O37 2.326 . S
O24 Dy20 2.398 . S
O24 C22 1.185 . S
O25 Dy20 2.491 . S
O25 C22 1.355 . S
O26 Dy20 2.403 . S
O26 C28 1.254 . S
O27 Dy20 2.664 . S
O27 Dy23 2.310 . S
O27 C28 1.268 . S
C28 O26 1.254 . S
C28 O27 1.268 . S
C29 O34 1.254 . S
C29 O35 1.268 . S
O30 Dy23 2.351 . S
O30 C38 1.249 . S
O31 Dy20 2.326 . S
O31 C38 1.267 . S
O32 C21 1.185 . S
O32 Dy23 2.398 . S
O33 C21 1.355 . S
O33 Dy23 2.491 . S
O34 Dy23 2.403 . S
O34 C29 1.254 . S
O35 Dy20 2.310 . S
O35 Dy23 2.664 . S
O35 C29 1.268 . S
O36 Dy20 2.351 . S
O36 C39 1.249 . S
O37 Dy23 2.326 . S
O37 C39 1.267 . S
C38 O30 1.249 . S
C38 O31 1.267 . S
C39 O36 1.249 . S
C39 O37 1.267 . S
Dy40 O44 2.398 . S
Dy40 O45 2.491 . S
Dy40 O46 2.403 . S
Dy40 O47 2.664 . S
Dy40 O51 2.326 . S
Dy40 O55 2.310 . S
Dy40 O56 2.351 . S
C41 O52 1.185 . S
C41 O53 1.355 . S
C42 O44 1.185 . S
C42 O45 1.355 . S
Dy43 O47 2.310 . S
Dy43 O50 2.351 . S
Dy43 O52 2.398 . S
Dy43 O53 2.491 . S
Dy43 O54 2.403 . S
Dy43 O55 2.664 . S
Dy43 O57 2.326 . S
O44 Dy40 2.398 . S
O44 C42 1.185 . S
O45 Dy40 2.491 . S
O45 C42 1.355 . S
O46 Dy40 2.403 . S
O46 C48 1.254 . S
O47 Dy40 2.664 . S
O47 Dy43 2.310 . S
O47 C48 1.268 . S
C48 O46 1.254 . S
C48 O47 1.268 . S
C49 O54 1.254 . S
C49 O55 1.268 . S
O50 Dy43 2.351 . S
O50 C58 1.249 . S
O51 Dy40 2.326 . S
O51 C58 1.267 . S
O52 C41 1.185 . S
O52 Dy43 2.398 . S
O53 C41 1.355 . S
O53 Dy43 2.491 . S
O54 Dy43 2.403 . S
O54 C49 1.254 . S
O55 Dy40 2.310 . S
O55 Dy43 2.664 . S
O55 C49 1.268 . S
O56 Dy40 2.351 . S
O56 C59 1.249 . S
O57 Dy43 2.326 . S
O57 C59 1.267 . S
C58 O50 1.249 . S
C58 O51 1.267 . S
C59 O56 1.249 . S
C59 O57 1.267 . S
Dy60 O64 2.398 . S
Dy60 O65 2.491 . S
Dy60 O66 2.403 . S
Dy60 O67 2.664 . S
Dy60 O71 2.326 . S
Dy60 O75 2.310 . S
Dy60 O76 2.351 . S
C61 O72 1.185 . S
C61 O73 1.355 . S
C62 O64 1.185 . S
C62 O65 1.355 . S
Dy63 O67 2.310 . S
Dy63 O70 2.351 . S
Dy63 O72 2.398 . S
Dy63 O73 2.491 . S
Dy63 O74 2.403 . S
Dy63 O75 2.664 . S
Dy63 O77 2.326 . S
O64 Dy60 2.398 . S
O64 C62 1.185 . S
O65 Dy60 2.491 . S
O65 C62 1.355 . S
O66 Dy60 2.403 . S
O66 C68 1.254 . S
O67 Dy60 2.664 . S
O67 Dy63 2.310 . S
O67 C68 1.268 . S
C68 O66 1.254 . S
C68 O67 1.268 . S
C69 O74 1.254 . S
C69 O75 1.268 . S
O70 Dy63 2.351 . S
O70 C78 1.249 . S
O71 Dy60 2.326 . S
O71 C78 1.267 . S
O72 C61 1.185 . S
O72 Dy63 2.398 . S
O73 C61 1.355 . S
O73 Dy63 2.491 . S
O74 Dy63 2.403 . S
O74 C69 1.254 . S
O75 Dy60 2.310 . S
O75 Dy63 2.664 . S
O75 C69 1.268 . S
O76 Dy60 2.351 . S
O76 C79 1.249 . S
O77 Dy63 2.326 . S
O77 C79 1.267 . S
C78 O70 1.249 . S
C78 O71 1.267 . S
C79 O76 1.249 . S
C79 O77 1.267 . S
Dy80 O84 2.398 . S
Dy80 O85 2.491 . S
Dy80 O86 2.403 . S
Dy80 O87 2.664 . S
Dy80 O91 2.326 . S
Dy80 O95 2.310 . S
Dy80 O96 2.351 . S
C81 O92 1.185 . S
C81 O93 1.355 . S
C82 O84 1.185 . S
C82 O85 1.355 . S
Dy83 O87 2.310 . S
Dy83 O90 2.351 . S
Dy83 O92 2.398 . S
Dy83 O93 2.491 . S
Dy83 O94 2.403 . S
Dy83 O95 2.664 . S
Dy83 O97 2.326 . S
O84 Dy80 2.398 . S
O84 C82 1.185 . S
O85 Dy80 2.491 . S
O85 C82 1.355 . S
O86 Dy80 2.403 . S
O86 C88 1.254 . S
O87 Dy80 2.664 . S
O87 Dy83 2.310 . S
O87 C88 1.268 . S
C88 O86 1.254 . S
C88 O87 1.268 . S
C89 O94 1.254 . S
C89 O95 1.268 . S
O90 Dy83 2.351 . S
O90 C98 1.249 . S
O91 Dy80 2.326 . S
O91 C98 1.267 . S
O92 C81 1.185 . S
O92 Dy83 2.398 . S
O93 C81 1.355 . S
O93 Dy83 2.491 . S
O94 Dy83 2.403 . S
O94 C89 1.254 . S
O95 Dy80 2.310 . S
O95 Dy83 2.664 . S
O95 C89 1.268 . S
O96 Dy80 2.351 . S
O96 C99 1.249 . S
O97 Dy83 2.326 . S
O97 C99 1.267 . S
C98 O90 1.249 . S
C98 O91 1.267 . S
C99 O96 1.249 . S
C99 O97 1.267 . S
Dy100 O104 2.398 . S
Dy100 O105 2.491 . S
Dy100 O106 2.403 . S
Dy100 O107 2.664 . S
Dy100 O111 2.326 . S
Dy100 O115 2.310 . S
Dy100 O116 2.351 . S
C101 O112 1.185 . S
C101 O113 1.355 . S
C102 O104 1.185 . S
C102 O105 1.355 . S
Dy103 O107 2.310 . S
Dy103 O110 2.351 . S
Dy103 O112 2.398 . S
Dy103 O113 2.491 . S
Dy103 O114 2.403 . S
Dy103 O115 2.664 . S
Dy103 O117 2.326 . S
O104 Dy100 2.398 . S
O104 C102 1.185 . S
O105 Dy100 2.491 . S
O105 C102 1.355 . S
O106 Dy100 2.403 . S
O106 C108 1.254 . S
O107 Dy100 2.664 . S
O107 Dy103 2.310 . S
O107 C108 1.268 . S
C108 O106 1.254 . S
C108 O107 1.268 . S
C109 O114 1.254 . S
C109 O115 1.268 . S
O110 Dy103 2.351 . S
O110 C118 1.249 . S
O111 Dy100 2.326 . S
O111 C118 1.267 . S
O112 C101 1.185 . S
O112 Dy103 2.398 . S
O113 C101 1.355 . S
O113 Dy103 2.491 . S
O114 Dy103 2.403 . S
O114 C109 1.254 . S
O115 Dy100 2.310 . S
O115 Dy103 2.664 . S
O115 C109 1.268 . S
O116 Dy100 2.351 . S
O116 C119 1.249 . S
O117 Dy103 2.326 . S
O117 C119 1.267 . S
C118 O110 1.249 . S
C118 O111 1.267 . S
C119 O116 1.249 . S
C119 O117 1.267 . S
Dy120 O124 2.398 . S
Dy120 O125 2.491 . S
Dy120 O126 2.403 . S
Dy120 O127 2.664 . S
Dy120 O131 2.326 . S
Dy120 O135 2.310 . S
Dy120 O136 2.351 . S
C121 O132 1.185 . S
C121 O133 1.355 . S
C122 O124 1.185 . S
C122 O125 1.355 . S
Dy123 O127 2.310 . S
Dy123 O130 2.351 . S
Dy123 O132 2.398 . S
Dy123 O133 2.491 . S
Dy123 O134 2.403 . S
Dy123 O135 2.664 . S
Dy123 O137 2.326 . S
O124 Dy120 2.398 . S
O124 C122 1.185 . S
O125 Dy120 2.491 . S
O125 C122 1.355 . S
O126 Dy120 2.403 . S
O126 C128 1.254 . S
O127 Dy120 2.664 . S
O127 Dy123 2.310 . S
O127 C128 1.268 . S
C128 O126 1.254 . S
C128 O127 1.268 . S
C129 O134 1.254 . S
C129 O135 1.268 . S
O130 Dy123 2.351 . S
O130 C138 1.249 . S
O131 Dy120 2.326 . S
O131 C138 1.267 . S
O132 C121 1.185 . S
O132 Dy123 2.398 . S
O133 C121 1.355 . S
O133 Dy123 2.491 . S
O134 Dy123 2.403 . S
O134 C129 1.254 . S
O135 Dy120 2.310 . S
O135 Dy123 2.664 . S
O135 C129 1.268 . S
O136 Dy120 2.351 . S
O136 C139 1.249 . S
O137 Dy123 2.326 . S
O137 C139 1.267 . S
C138 O130 1.249 . S
C138 O131 1.267 . S
C139 O136 1.249 . S
C139 O137 1.267 . S
Dy140 O144 2.398 . S
Dy140 O145 2.491 . S
Dy140 O146 2.403 . S
Dy140 O147 2.664 . S
Dy140 O151 2.326 . S
Dy140 O155 2.310 . S
Dy140 O156 2.351 . S
C141 O152 1.185 . S
C141 O153 1.355 . S
C142 O144 1.185 . S
C142 O145 1.355 . S
Dy143 O147 2.310 . S
Dy143 O150 2.351 . S
Dy143 O152 2.398 . S
Dy143 O153 2.491 . S
Dy143 O154 2.403 . S
Dy143 O155 2.664 . S
Dy143 O157 2.326 . S
O144 Dy140 2.398 . S
O144 C142 1.185 . S
O145 Dy140 2.491 . S
O145 C142 1.355 . S
O146 Dy140 2.403 . S
O146 C148 1.254 . S
O147 Dy140 2.664 . S
O147 Dy143 2.310 . S
O147 C148 1.268 . S
C148 O146 1.254 . S
C148 O147 1.268 . S
C149 O154 1.254 . S
C149 O155 1.268 . S
O150 Dy143 2.351 . S
O150 C158 1.249 . S
O151 Dy140 2.326 . S
O151 C158 1.267 . S
O152 C141 1.185 . S
O152 Dy143 2.398 . S
O153 C141 1.355 . S
O153 Dy143 2.491 . S
O154 Dy143 2.403 . S
O154 C149 1.254 . S
O155 Dy140 2.310 . S
O155 Dy143 2.664 . S
O155 C149 1.268 . S
O156 Dy140 2.351 . S
O156 C159 1.249 . S
O157 Dy143 2.326 . S
O157 C159 1.267 . S
C158 O150 1.249 . S
C158 O151 1.267 . S
C159 O156 1.249 . S
C159 O157 1.267 . S
Fe160 O161 1.886 1_455 S
Fe160 O164 1.715 . S
Fe160 O169 2.077 1_455 S
Fe160 O174 1.935 . S
Fe160 O180 2.077 1_455 S
Fe160 O189 1.935 . S
O161 Fe160 1.886 1_655 S
O161 Fe163 1.715 1_545 S
Fe162 O164 1.886 . S
Fe162 O165 1.715 1_545 S
Fe162 O172 1.935 1_545 S
Fe162 O173 2.077 . S
Fe162 O179 1.935 1_545 S
Fe162 O188 2.077 . S
Fe163 O161 1.715 1_565 S
Fe163 O166 1.886 . S
Fe163 O170 1.935 1_565 S
Fe163 O175 2.077 . S
Fe163 O181 1.935 1_565 S
Fe163 O185 2.077 . S
O164 Fe160 1.715 . S
O164 Fe162 1.886 . S
O165 Fe162 1.715 1_565 S
O165 Fe167 1.886 1_455 S
O166 Fe163 1.886 . S
O166 Fe167 1.715 . S
Fe167 O165 1.886 1_655 S
Fe167 O166 1.715 . S
Fe167 O171 2.077 1_655 S
Fe167 O176 1.935 . S
Fe167 O178 2.077 1_655 S
Fe167 O186 1.935 . S
C168 O180 1.381 . S
C168 O181 1.421 . S
O169 Fe160 2.077 1_655 S
O169 C182 1.381 . S
O170 Fe163 1.935 1_545 S
O170 C182 1.421 . S
O171 Fe167 2.077 1_455 S
O171 C187 1.381 . S
O172 Fe162 1.935 1_565 S
O172 C187 1.421 . S
O173 Fe162 2.077 . S
O173 C177 1.381 . S
O174 Fe160 1.935 . S
O174 C177 1.421 . S
O175 Fe163 2.077 . S
O175 C183 1.381 . S
O176 Fe167 1.935 . S
O176 C183 1.421 . S
C177 O173 1.381 . S
C177 O174 1.421 . S
O178 Fe167 2.077 1_455 S
O178 C190 1.381 . S
O179 Fe162 1.935 1_565 S
O179 C190 1.421 . S
O180 Fe160 2.077 1_655 S
O180 C168 1.381 . S
O181 Fe163 1.935 1_545 S
O181 C168 1.421 . S
C182 O169 1.381 . S
C182 O170 1.421 . S
C183 O175 1.381 . S
C183 O176 1.421 . S
C184 O185 1.381 . S
C184 O186 1.421 . S
O185 Fe163 2.077 . S
O185 C184 1.381 . S
O186 Fe167 1.935 . S
O186 C184 1.421 . S
C187 O171 1.381 . S
C187 O172 1.421 . S
O188 Fe162 2.077 . S
O188 C191 1.381 . S
O189 Fe160 1.935 . S
O189 C191 1.421 . S
C190 O178 1.381 . S
C190 O179 1.421 . S
C191 O188 1.381 . S
C191 O189 1.421 . S
Fe192 O193 1.887 1_556 S
Fe192 O196 1.715 . S
Fe192 O201 2.100 . S
Fe192 O206 1.961 . S
Fe192 O212 2.055 1_556 S
Fe192 O221 1.909 1_556 S
O193 Fe192 1.887 1_554 S
O193 Fe195 1.715 1_565 S
Fe194 O196 1.886 . S
Fe194 O197 1.715 1_566 S
Fe194 O204 1.935 1_565 S
Fe194 O205 2.077 . S
Fe194 O211 1.935 1_566 S
Fe194 O220 2.077 1_556 S
Fe195 O193 1.715 1_545 S
Fe195 O198 1.886 . S
Fe195 O202 1.935 1_544 S
Fe195 O207 2.077 1_554 S
Fe195 O213 1.935 1_545 S
Fe195 O217 2.077 . S
O196 Fe192 1.715 . S
O196 Fe194 1.886 . S
O197 Fe194 1.715 1_544 S
O197 Fe199 1.886 . S
O198 Fe195 1.886 . S
O198 Fe199 1.715 . S
Fe199 O197 1.886 . S
Fe199 O198 1.715 . S
Fe199 O203 2.077 1_554 S
Fe199 O208 1.935 1_554 S
Fe199 O210 2.077 . S
Fe199 O218 1.935 . S
C200 O212 1.381 . S
C200 O213 1.421 . S
O201 Fe192 2.100 . S
O201 C214 1.381 . S
O202 Fe195 1.935 1_566 S
O202 C214 1.421 . S
O203 Fe199 2.077 1_556 S
O203 C219 1.381 . S
O204 Fe194 1.935 1_545 S
O204 C219 1.421 . S
O205 Fe194 2.077 . S
O205 C209 1.381 . S
O206 Fe192 1.961 . S
O206 C209 1.421 . S
O207 Fe195 2.077 1_556 S
O207 C215 1.381 . S
O208 Fe199 1.935 1_556 S
O208 C215 1.421 . S
C209 O205 1.381 . S
C209 O206 1.421 . S
O210 Fe199 2.077 . S
O210 C222 1.381 . S
O211 Fe194 1.935 1_544 S
O211 C222 1.421 . S
O212 Fe192 2.055 1_554 S
O212 C200 1.381 . S
O213 Fe195 1.935 1_565 S
O213 C200 1.421 . S
C214 O201 1.381 . S
C214 O202 1.421 . S
C215 O207 1.381 . S
C215 O208 1.421 . S
C216 O217 1.381 . S
C216 O218 1.421 . S
O217 Fe195 2.077 . S
O217 C216 1.381 . S
O218 Fe199 1.935 . S
O218 C216 1.421 . S
C219 O203 1.381 . S
C219 O204 1.421 . S
O220 Fe194 2.077 1_554 S
O220 C223 1.381 . S
O221 Fe192 1.909 1_554 S
O221 C223 1.421 . S
C222 O210 1.381 . S
C222 O211 1.421 . S
C223 O220 1.381 . S
C223 O221 1.421 . S
Fe224 O225 1.886 1_455 S
Fe224 O228 1.715 . S
Fe224 O233 2.077 1_454 S
Fe224 O238 1.935 1_554 S
Fe224 O244 2.077 1_455 S
Fe224 O253 1.935 . S
O225 Fe224 1.886 1_655 S
O225 Fe227 1.715 1_554 S
Fe226 O228 1.886 . S
Fe226 O229 1.715 . S
Fe226 O236 1.935 1_554 S
Fe226 O237 2.077 1_554 S
Fe226 O243 1.935 . S
Fe226 O252 2.077 . S
Fe227 O225 1.715 1_556 S
Fe227 O230 1.886 . S
Fe227 O234 1.935 . S
Fe227 O239 2.077 . S
Fe227 O245 1.935 1_556 S
Fe227 O249 2.077 1_556 S
O228 Fe224 1.715 . S
O228 Fe226 1.886 . S
O229 Fe226 1.715 . S
O229 Fe231 1.887 1_454 S
O230 Fe227 1.886 . S
O230 Fe231 1.715 . S
Fe231 O229 1.887 1_656 S
Fe231 O230 1.715 . S
Fe231 O235 2.100 1_655 S
Fe231 O240 1.961 . S
Fe231 O242 2.055 1_656 S
Fe231 O250 1.909 1_556 S
C232 O244 1.381 . S
C232 O245 1.421 . S
O233 Fe224 2.077 1_656 S
O233 C246 1.381 . S
O234 Fe227 1.935 . S
O234 C246 1.421 . S
O235 Fe231 2.100 1_455 S
O235 C251 1.381 . S
O236 Fe226 1.935 1_556 S
O236 C251 1.421 . S
O237 Fe226 2.077 1_556 S
O237 C241 1.381 . S
O238 Fe224 1.935 1_556 S
O238 C241 1.421 . S
O239 Fe227 2.077 . S
O239 C247 1.381 . S
O240 Fe231 1.961 . S
O240 C247 1.421 . S
C241 O237 1.381 . S
C241 O238 1.421 . S
O242 Fe231 2.055 1_454 S
O242 C254 1.381 . S
O243 Fe226 1.935 . S
O243 C254 1.421 . S
O244 Fe224 2.077 1_655 S
O244 C232 1.381 . S
O245 Fe227 1.935 1_554 S
O245 C232 1.421 . S
C246 O233 1.381 . S
C246 O234 1.421 . S
C247 O239 1.381 . S
C247 O240 1.421 . S
C248 O249 1.381 . S
C248 O250 1.421 . S
O249 Fe227 2.077 1_554 S
O249 C248 1.381 . S
O250 Fe231 1.909 1_554 S
O250 C248 1.421 . S
C251 O235 1.381 . S
C251 O236 1.421 . S
O252 Fe226 2.077 . S
O252 C255 1.381 . S
O253 Fe224 1.935 . S
O253 C255 1.421 . S
C254 O242 1.381 . S
C254 O243 1.421 . S
C255 O252 1.381 . S
C255 O253 1.421 . S
Fe256 O257 1.886 . S
Fe256 O260 1.715 . S
Fe256 O265 2.077 . S
Fe256 O270 1.935 . S
Fe256 O276 2.077 . S
Fe256 O285 1.935 . S
O257 Fe256 1.886 . S
O257 Fe259 1.715 1_556 S
Fe258 O260 1.886 . S
Fe258 O261 1.715 1_556 S
Fe258 O268 1.935 1_556 S
Fe258 O269 2.077 . S
Fe258 O275 1.935 1_556 S
Fe258 O284 2.077 . S
Fe259 O257 1.715 1_554 S
Fe259 O262 1.886 . S
Fe259 O266 1.935 1_554 S
Fe259 O271 2.077 . S
Fe259 O277 1.935 1_554 S
Fe259 O281 2.077 . S
O260 Fe256 1.715 . S
O260 Fe258 1.886 . S
O261 Fe258 1.715 1_554 S
O261 Fe263 1.886 . S
O262 Fe259 1.886 . S
O262 Fe263 1.715 . S
Fe263 O261 1.886 . S
Fe263 O262 1.715 . S
Fe263 O267 2.077 . S
Fe263 O272 1.935 . S
Fe263 O274 2.077 . S
Fe263 O282 1.935 . S
C264 O276 1.381 . S
C264 O277 1.421 . S
O265 Fe256 2.077 . S
O265 C278 1.381 . S
O266 Fe259 1.935 1_556 S
O266 C278 1.421 . S
O267 Fe263 2.077 . S
O267 C283 1.381 . S
O268 Fe258 1.935 1_554 S
O268 C283 1.421 . S
O269 Fe258 2.077 . S
O269 C273 1.381 . S
O270 Fe256 1.935 . S
O270 C273 1.421 . S
O271 Fe259 2.077 . S
O271 C279 1.381 . S
O272 Fe263 1.935 . S
O272 C279 1.421 . S
C273 O269 1.381 . S
C273 O270 1.421 . S
O274 Fe263 2.077 . S
O274 C286 1.381 . S
O275 Fe258 1.935 1_554 S
O275 C286 1.421 . S
O276 Fe256 2.077 . S
O276 C264 1.381 . S
O277 Fe259 1.935 1_556 S
O277 C264 1.421 . S
C278 O265 1.381 . S
C278 O266 1.421 . S
C279 O271 1.381 . S
C279 O272 1.421 . S
C280 O281 1.381 . S
C280 O282 1.421 . S
O281 Fe259 2.077 . S
O281 C280 1.381 . S
O282 Fe263 1.935 . S
O282 C280 1.421 . S
C283 O267 1.381 . S
C283 O268 1.421 . S
O284 Fe258 2.077 . S
O284 C287 1.381 . S
O285 Fe256 1.935 . S
O285 C287 1.421 . S
C286 O274 1.381 . S
C286 O275 1.421 . S
C287 O284 1.381 . S
C287 O285 1.421 . S
Fe288 O289 1.886 . S
Fe288 O292 1.715 . S
Fe288 O297 2.077 1_655 S
Fe288 O302 1.935 1_655 S
Fe288 O308 2.077 . S
Fe288 O317 1.935 . S
O289 Fe288 1.886 . S
O289 Fe291 1.715 1_655 S
Fe290 O292 1.886 . S
Fe290 O293 1.715 1_655 S
Fe290 O300 1.935 1_655 S
Fe290 O301 2.077 1_655 S
Fe290 O307 1.935 . S
Fe290 O316 2.077 . S
Fe291 O289 1.715 1_455 S
Fe291 O294 1.886 . S
Fe291 O298 1.935 . S
Fe291 O303 2.077 . S
Fe291 O309 1.935 1_455 S
Fe291 O313 2.077 1_455 S
O292 Fe288 1.715 . S
O292 Fe290 1.886 . S
O293 Fe290 1.715 1_455 S
O293 Fe295 1.886 . S
O294 Fe291 1.886 . S
O294 Fe295 1.715 . S
Fe295 O293 1.886 . S
Fe295 O294 1.715 . S
Fe295 O299 2.077 . S
Fe295 O304 1.935 . S
Fe295 O306 2.077 1_455 S
Fe295 O314 1.935 1_455 S
C296 O308 1.381 . S
C296 O309 1.421 . S
O297 Fe288 2.077 1_455 S
O297 C310 1.381 . S
O298 Fe291 1.935 . S
O298 C310 1.421 . S
O299 Fe295 2.077 . S
O299 C315 1.381 . S
O300 Fe290 1.935 1_455 S
O300 C315 1.421 . S
O301 Fe290 2.077 1_455 S
O301 C305 1.381 . S
O302 Fe288 1.935 1_455 S
O302 C305 1.421 . S
O303 Fe291 2.077 . S
O303 C311 1.381 . S
O304 Fe295 1.935 . S
O304 C311 1.421 . S
C305 O301 1.381 . S
C305 O302 1.421 . S
O306 Fe295 2.077 1_655 S
O306 C318 1.381 . S
O307 Fe290 1.935 . S
O307 C318 1.421 . S
O308 Fe288 2.077 . S
O308 C296 1.381 . S
O309 Fe291 1.935 1_655 S
O309 C296 1.421 . S
C310 O297 1.381 . S
C310 O298 1.421 . S
C311 O303 1.381 . S
C311 O304 1.421 . S
C312 O313 1.381 . S
C312 O314 1.421 . S
O313 Fe291 2.077 1_655 S
O313 C312 1.381 . S
O314 Fe295 1.935 1_655 S
O314 C312 1.421 . S
C315 O299 1.381 . S
C315 O300 1.421 . S
O316 Fe290 2.077 . S
O316 C319 1.381 . S
O317 Fe288 1.935 . S
O317 C319 1.421 . S
C318 O306 1.381 . S
C318 O307 1.421 . S
C319 O316 1.381 . S
C319 O317 1.421 . S
Fe320 O321 1.886 . S
Fe320 O324 1.715 . S
Fe320 O329 2.077 . S
Fe320 O334 1.935 . S
Fe320 O340 2.077 . S
Fe320 O349 1.935 . S
O321 Fe320 1.886 . S
O321 Fe323 1.715 1_565 S
Fe322 O324 1.886 . S
Fe322 O325 1.715 1_565 S
Fe322 O332 1.935 1_565 S
Fe322 O333 2.077 . S
Fe322 O339 1.935 1_565 S
Fe322 O348 2.077 . S
Fe323 O321 1.715 1_545 S
Fe323 O326 1.886 . S
Fe323 O330 1.935 1_545 S
Fe323 O335 2.077 . S
Fe323 O341 1.935 1_545 S
Fe323 O345 2.077 . S
O324 Fe320 1.715 . S
O324 Fe322 1.886 . S
O325 Fe322 1.715 1_545 S
O325 Fe327 1.886 . S
O326 Fe323 1.886 . S
O326 Fe327 1.715 . S
Fe327 O325 1.886 . S
Fe327 O326 1.715 . S
Fe327 O331 2.077 . S
Fe327 O336 1.935 . S
Fe327 O338 2.077 . S
Fe327 O346 1.935 . S
C328 O340 1.381 . S
C328 O341 1.421 . S
O329 Fe320 2.077 . S
O329 C342 1.381 . S
O330 Fe323 1.935 1_565 S
O330 C342 1.421 . S
O331 Fe327 2.077 . S
O331 C347 1.381 . S
O332 Fe322 1.935 1_545 S
O332 C347 1.421 . S
O333 Fe322 2.077 . S
O333 C337 1.381 . S
O334 Fe320 1.935 . S
O334 C337 1.421 . S
O335 Fe323 2.077 . S
O335 C343 1.381 . S
O336 Fe327 1.935 . S
O336 C343 1.421 . S
C337 O333 1.381 . S
C337 O334 1.421 . S
O338 Fe327 2.077 . S
O338 C350 1.381 . S
O339 Fe322 1.935 1_545 S
O339 C350 1.421 . S
O340 Fe320 2.077 . S
O340 C328 1.381 . S
O341 Fe323 1.935 1_565 S
O341 C328 1.421 . S
C342 O329 1.381 . S
C342 O330 1.421 . S
C343 O335 1.381 . S
C343 O336 1.421 . S
C344 O345 1.381 . S
C344 O346 1.421 . S
O345 Fe323 2.077 . S
O345 C344 1.381 . S
O346 Fe327 1.935 . S
O346 C344 1.421 . S
C347 O331 1.381 . S
C347 O332 1.421 . S
O348 Fe322 2.077 . S
O348 C351 1.381 . S
O349 Fe320 1.935 . S
O349 C351 1.421 . S
C350 O338 1.381 . S
C350 O339 1.421 . S
C351 O348 1.381 . S
C351 O349 1.421 . S
H352 C358 0.930 . S
H353 C362 0.930 . S
H354 C367 0.929 . S
H355 C365 0.929 . S
H356 C360 0.929 . S
H357 C366 0.929 . S
C358 H352 0.930 . S
C358 C359 1.367 . S
C358 C366 1.378 . S
C359 C358 1.367 . S
C359 C367 1.433 . S
C360 H356 0.929 . S
C360 C362 1.378 . S
C360 C364 1.350 . S
C361 C364 1.463 . S
C361 C366 1.350 . S
C361 N369 1.427 . S
C362 H353 0.930 . S
C362 C360 1.378 . S
C362 C363 1.367 . S
C363 C362 1.367 . S
C363 C365 1.433 . S
C364 C360 1.350 . S
C364 C361 1.463 . S
C364 N368 1.427 . S
C365 H355 0.929 . S
C365 C363 1.433 . S
C365 N368 1.384 . S
C366 H357 0.929 . S
C366 C358 1.378 . S
C366 C361 1.350 . S
C367 H354 0.929 . S
C367 C359 1.433 . S
C367 N369 1.384 . S
N368 C364 1.427 . S
N368 C365 1.384 . S
N369 C361 1.427 . S
N369 C367 1.384 . S
H370 C376 0.930 . S
H371 C380 0.930 . S
H372 C385 0.929 . S
H373 C383 0.929 . S
H374 C378 0.929 . S
H375 C384 0.929 . S
C376 H370 0.930 . S
C376 C377 1.367 . S
C376 C384 1.378 . S
C377 C376 1.367 . S
C377 C385 1.433 . S
C378 H374 0.929 . S
C378 C380 1.378 . S
C378 C382 1.350 . S
C379 C382 1.463 . S
C379 C384 1.350 . S
C379 N387 1.427 . S
C380 H371 0.930 . S
C380 C378 1.378 . S
C380 C381 1.367 . S
C381 C380 1.367 . S
C381 C383 1.433 . S
C382 C378 1.350 . S
C382 C379 1.463 . S
C382 N386 1.427 . S
C383 H373 0.929 . S
C383 C381 1.433 . S
C383 N386 1.384 . S
C384 H375 0.929 . S
C384 C376 1.378 . S
C384 C379 1.350 . S
C385 H372 0.929 . S
C385 C377 1.433 . S
C385 N387 1.384 . S
N386 C382 1.427 . S
N386 C383 1.384 . S
N387 C379 1.427 . S
N387 C385 1.384 . S
H388 C394 0.930 . S
H389 C398 0.930 . S
H390 C403 0.929 . S
H391 C401 0.929 . S
H392 C396 0.929 . S
H393 C402 0.929 . S
C394 H388 0.930 . S
C394 C395 1.367 . S
C394 C402 1.378 . S
C395 C394 1.367 . S
C395 C403 1.433 . S
C396 H392 0.929 . S
C396 C398 1.378 . S
C396 C400 1.350 . S
C397 C400 1.463 . S
C397 C402 1.350 . S
C397 N405 1.427 . S
C398 H389 0.930 . S
C398 C396 1.378 . S
C398 C399 1.367 . S
C399 C398 1.367 . S
C399 C401 1.433 . S
C400 C396 1.350 . S
C400 C397 1.463 . S
C400 N404 1.427 . S
C401 H391 0.929 . S
C401 C399 1.433 . S
C401 N404 1.384 . S
C402 H393 0.929 . S
C402 C394 1.378 . S
C402 C397 1.350 . S
C403 H390 0.929 . S
C403 C395 1.433 . S
C403 N405 1.384 . S
N404 C400 1.427 . S
N404 C401 1.384 . S
N405 C397 1.427 . S
N405 C403 1.384 . S
H406 C412 0.930 . S
H407 C416 0.930 . S
H408 C421 0.929 . S
H409 C419 0.929 . S
H410 C414 0.929 . S
H411 C420 0.929 . S
C412 H406 0.930 . S
C412 C413 1.367 . S
C412 C420 1.378 . S
C413 C412 1.367 . S
C413 C421 1.433 . S
C414 H410 0.929 . S
C414 C416 1.378 . S
C414 C418 1.350 . S
C415 C418 1.463 . S
C415 C420 1.350 . S
C415 N423 1.427 . S
C416 H407 0.930 . S
C416 C414 1.378 . S
C416 C417 1.367 . S
C417 C416 1.367 . S
C417 C419 1.433 . S
C418 C414 1.350 . S
C418 C415 1.463 . S
C418 N422 1.427 . S
C419 H409 0.929 . S
C419 C417 1.433 . S
C419 N422 1.384 . S
C420 H411 0.929 . S
C420 C412 1.378 . S
C420 C415 1.350 . S
C421 H408 0.929 . S
C421 C413 1.433 . S
C421 N423 1.384 . S
N422 C418 1.427 . S
N422 C419 1.384 . S
N423 C415 1.427 . S
N423 C421 1.384 . S
H424 C430 0.930 . S
H425 C434 0.930 . S
H426 C439 0.929 . S
H427 C437 0.929 . S
H428 C432 0.929 . S
H429 C438 0.929 . S
C430 H424 0.930 . S
C430 C431 1.367 . S
C430 C438 1.378 . S
C431 C430 1.367 . S
C431 C439 1.433 . S
C432 H428 0.929 . S
C432 C434 1.378 . S
C432 C436 1.350 . S
C433 C436 1.463 . S
C433 C438 1.350 . S
C433 N441 1.427 . S
C434 H425 0.930 . S
C434 C432 1.378 . S
C434 C435 1.367 . S
C435 C434 1.367 . S
C435 C437 1.433 . S
C436 C432 1.350 . S
C436 C433 1.463 . S
C436 N440 1.427 . S
C437 H427 0.929 . S
C437 C435 1.433 . S
C437 N440 1.384 . S
C438 H429 0.929 . S
C438 C430 1.378 . S
C438 C433 1.350 . S
C439 H426 0.929 . S
C439 C431 1.433 . S
C439 N441 1.384 . S
N440 C436 1.427 . S
N440 C437 1.384 . S
N441 C433 1.427 . S
N441 C439 1.384 . S
H442 C448 0.930 . S
H443 C452 0.930 . S
H444 C457 0.929 . S
H445 C455 0.929 . S
H446 C450 0.929 . S
H447 C456 0.929 . S
C448 H442 0.930 . S
C448 C449 1.367 . S
C448 C456 1.378 . S
C449 C448 1.367 . S
C449 C457 1.433 . S
C450 H446 0.929 . S
C450 C452 1.378 . S
C450 C454 1.350 . S
C451 C454 1.463 . S
C451 C456 1.350 . S
C451 N459 1.427 . S
C452 H443 0.930 . S
C452 C450 1.378 . S
C452 C453 1.367 . S
C453 C452 1.367 . S
C453 C455 1.433 . S
C454 C450 1.350 . S
C454 C451 1.463 . S
C454 N458 1.427 . S
C455 H445 0.929 . S
C455 C453 1.433 . S
C455 N458 1.384 . S
C456 H447 0.929 . S
C456 C448 1.378 . S
C456 C451 1.350 . S
C457 H444 0.929 . S
C457 C449 1.433 . S
C457 N459 1.384 . S
N458 C454 1.427 . S
N458 C455 1.384 . S
N459 C451 1.427 . S
N459 C457 1.384 . S
H460 C466 0.930 . S
H461 C470 0.930 . S
H462 C475 0.929 . S
H463 C473 0.929 . S
H464 C468 0.929 . S
H465 C474 0.929 . S
C466 H460 0.930 . S
C466 C467 1.367 . S
C466 C474 1.378 . S
C467 C466 1.367 . S
C467 C475 1.433 . S
C468 H464 0.929 . S
C468 C470 1.378 . S
C468 C472 1.350 . S
C469 C472 1.463 . S
C469 C474 1.350 . S
C469 N477 1.427 . S
C470 H461 0.930 . S
C470 C468 1.378 . S
C470 C471 1.367 . S
C471 C470 1.367 . S
C471 C473 1.433 . S
C472 C468 1.350 . S
C472 C469 1.463 . S
C472 N476 1.427 . S
C473 H463 0.929 . S
C473 C471 1.433 . S
C473 N476 1.384 . S
C474 H465 0.929 . S
C474 C466 1.378 . S
C474 C469 1.350 . S
C475 H462 0.929 . S
C475 C467 1.433 . S
C475 N477 1.384 . S
N476 C472 1.427 . S
N476 C473 1.384 . S
N477 C469 1.427 . S
N477 C475 1.384 . S
H478 C484 0.930 . S
H479 C488 0.930 . S
H480 C493 0.929 . S
H481 C491 0.929 . S
H482 C486 0.929 . S
H483 C492 0.929 . S
C484 H478 0.930 . S
C484 C485 1.367 . S
C484 C492 1.378 . S
C485 C484 1.367 . S
C485 C493 1.433 . S
C486 H482 0.929 . S
C486 C488 1.378 . S
C486 C490 1.350 . S
C487 C490 1.463 . S
C487 C492 1.350 . S
C487 N495 1.427 . S
C488 H479 0.930 . S
C488 C486 1.378 . S
C488 C489 1.367 . S
C489 C488 1.367 . S
C489 C491 1.433 . S
C490 C486 1.350 . S
C490 C487 1.463 . S
C490 N494 1.427 . S
C491 H481 0.929 . S
C491 C489 1.433 . S
C491 N494 1.384 . S
C492 H483 0.929 . S
C492 C484 1.378 . S
C492 C487 1.350 . S
C493 H480 0.929 . S
C493 C485 1.433 . S
C493 N495 1.384 . S
N494 C490 1.427 . S
N494 C491 1.384 . S
N495 C487 1.427 . S
N495 C493 1.384 . S
H496 C502 0.930 . S
H497 C506 0.930 . S
H498 C511 0.929 . S
H499 C509 0.929 . S
H500 C504 0.929 . S
H501 C510 0.929 . S
C502 H496 0.930 . S
C502 C503 1.367 . S
C502 C510 1.378 . S
C503 C502 1.367 . S
C503 C511 1.433 . S
C504 H500 0.929 . S
C504 C506 1.378 . S
C504 C508 1.350 . S
C505 C508 1.463 . S
C505 C510 1.350 . S
C505 N513 1.427 . S
C506 H497 0.930 . S
C506 C504 1.378 . S
C506 C507 1.367 . S
C507 C506 1.367 . S
C507 C509 1.433 . S
C508 C504 1.350 . S
C508 C505 1.463 . S
C508 N512 1.427 . S
C509 H499 0.929 . S
C509 C507 1.433 . S
C509 N512 1.384 . S
C510 H501 0.929 . S
C510 C502 1.378 . S
C510 C505 1.350 . S
C511 H498 0.929 . S
C511 C503 1.433 . S
C511 N513 1.384 . S
N512 C508 1.427 . S
N512 C509 1.384 . S
N513 C505 1.427 . S
N513 C511 1.384 . S
H514 C520 0.930 . S
H515 C524 0.930 . S
H516 C529 0.929 . S
H517 C527 0.929 . S
H518 C522 0.929 . S
H519 C528 0.929 . S
C520 H514 0.930 . S
C520 C521 1.367 . S
C520 C528 1.378 . S
C521 C520 1.367 . S
C521 C529 1.433 . S
C522 H518 0.929 . S
C522 C524 1.378 . S
C522 C526 1.350 . S
C523 C526 1.463 . S
C523 C528 1.350 . S
C523 N531 1.427 . S
C524 H515 0.930 . S
C524 C522 1.378 . S
C524 C525 1.367 . S
C525 C524 1.367 . S
C525 C527 1.433 . S
C526 C522 1.350 . S
C526 C523 1.463 . S
C526 N530 1.427 . S
C527 H517 0.929 . S
C527 C525 1.433 . S
C527 N530 1.384 . S
C528 H519 0.929 . S
C528 C520 1.378 . S
C528 C523 1.350 . S
C529 H516 0.929 . S
C529 C521 1.433 . S
C529 N531 1.384 . S
N530 C526 1.427 . S
N530 C527 1.384 . S
N531 C523 1.427 . S
N531 C529 1.384 . S
H532 C538 0.930 . S
H533 C542 0.930 . S
H534 C547 0.929 . S
H535 C545 0.929 . S
H536 C540 0.929 . S
H537 C546 0.929 . S
C538 H532 0.930 . S
C538 C539 1.367 . S
C538 C546 1.378 . S
C539 C538 1.367 . S
C539 C547 1.433 . S
C540 H536 0.929 . S
C540 C542 1.378 . S
C540 C544 1.350 . S
C541 C544 1.463 . S
C541 C546 1.350 . S
C541 N549 1.427 . S
C542 H533 0.930 . S
C542 C540 1.378 . S
C542 C543 1.367 . S
C543 C542 1.367 . S
C543 C545 1.433 . S
C544 C540 1.350 . S
C544 C541 1.463 . S
C544 N548 1.427 . S
C545 H535 0.929 . S
C545 C543 1.433 . S
C545 N548 1.384 . S
C546 H537 0.929 . S
C546 C538 1.378 . S
C546 C541 1.350 . S
C547 H534 0.929 . S
C547 C539 1.433 . S
C547 N549 1.384 . S
N548 C544 1.427 . S
N548 C545 1.384 . S
N549 C541 1.427 . S
N549 C547 1.384 . S
H550 C556 0.930 . S
H551 C560 0.930 . S
H552 C565 0.929 . S
H553 C563 0.929 . S
H554 C558 0.929 . S
H555 C564 0.929 . S
C556 H550 0.930 . S
C556 C557 1.367 . S
C556 C564 1.378 . S
C557 C556 1.367 . S
C557 C565 1.433 . S
C558 H554 0.929 . S
C558 C560 1.378 . S
C558 C562 1.350 . S
C559 C562 1.463 . S
C559 C564 1.350 . S
C559 N567 1.427 . S
C560 H551 0.930 . S
C560 C558 1.378 . S
C560 C561 1.367 . S
C561 C560 1.367 . S
C561 C563 1.433 . S
C562 C558 1.350 . S
C562 C559 1.463 . S
C562 N566 1.427 . S
C563 H553 0.929 . S
C563 C561 1.433 . S
C563 N566 1.384 . S
C564 H555 0.929 . S
C564 C556 1.378 . S
C564 C559 1.350 . S
C565 H552 0.929 . S
C565 C557 1.433 . S
C565 N567 1.384 . S
N566 C562 1.427 . S
N566 C563 1.384 . S
N567 C559 1.427 . S
N567 C565 1.384 . S
H568 C574 0.930 . S
H569 C578 0.930 . S
H570 C583 0.929 . S
H571 C581 0.929 . S
H572 C576 0.929 . S
H573 C582 0.929 . S
C574 H568 0.930 . S
C574 C575 1.367 . S
C574 C582 1.378 . S
C575 C574 1.367 . S
C575 C583 1.433 . S
C576 H572 0.929 . S
C576 C578 1.378 . S
C576 C580 1.350 . S
C577 C580 1.463 . S
C577 C582 1.350 . S
C577 N585 1.427 . S
C578 H569 0.930 . S
C578 C576 1.378 . S
C578 C579 1.367 . S
C579 C578 1.367 . S
C579 C581 1.433 . S
C580 C576 1.350 . S
C580 C577 1.463 . S
C580 N584 1.427 . S
C581 H571 0.929 . S
C581 C579 1.433 . S
C581 N584 1.384 . S
C582 H573 0.929 . S
C582 C574 1.378 . S
C582 C577 1.350 . S
C583 H570 0.929 . S
C583 C575 1.433 . S
C583 N585 1.384 . S
N584 C580 1.427 . S
N584 C581 1.384 . S
N585 C577 1.427 . S
N585 C583 1.384 . S
H586 C592 0.930 . S
H587 C596 0.930 . S
H588 C601 0.929 . S
H589 C599 0.929 . S
H590 C594 0.929 . S
H591 C600 0.929 . S
C592 H586 0.930 . S
C592 C593 1.367 . S
C592 C600 1.378 . S
C593 C592 1.367 . S
C593 C601 1.433 . S
C594 H590 0.929 . S
C594 C596 1.378 . S
C594 C598 1.350 . S
C595 C598 1.463 . S
C595 C600 1.350 . S
C595 N603 1.427 . S
C596 H587 0.930 . S
C596 C594 1.378 . S
C596 C597 1.367 . S
C597 C596 1.367 . S
C597 C599 1.433 . S
C598 C594 1.350 . S
C598 C595 1.463 . S
C598 N602 1.427 . S
C599 H589 0.929 . S
C599 C597 1.433 . S
C599 N602 1.384 . S
C600 H591 0.929 . S
C600 C592 1.378 . S
C600 C595 1.350 . S
C601 H588 0.929 . S
C601 C593 1.433 . S
C601 N603 1.384 . S
N602 C598 1.427 . S
N602 C599 1.384 . S
N603 C595 1.427 . S
N603 C601 1.384 . S
H604 C610 0.930 . S
H605 C614 0.930 . S
H606 C619 0.929 . S
H607 C617 0.929 . S
H608 C612 0.929 . S
H609 C618 0.929 . S
C610 H604 0.930 . S
C610 C611 1.367 . S
C610 C618 1.378 . S
C611 C610 1.367 . S
C611 C619 1.433 . S
C612 H608 0.929 . S
C612 C614 1.378 . S
C612 C616 1.350 . S
C613 C616 1.463 . S
C613 C618 1.350 . S
C613 N621 1.427 . S
C614 H605 0.930 . S
C614 C612 1.378 . S
C614 C615 1.367 . S
C615 C614 1.367 . S
C615 C617 1.433 . S
C616 C612 1.350 . S
C616 C613 1.463 . S
C616 N620 1.427 . S
C617 H607 0.929 . S
C617 C615 1.433 . S
C617 N620 1.384 . S
C618 H609 0.929 . S
C618 C610 1.378 . S
C618 C613 1.350 . S
C619 H606 0.929 . S
C619 C611 1.433 . S
C619 N621 1.384 . S
N620 C616 1.427 . S
N620 C617 1.384 . S
N621 C613 1.427 . S
N621 C619 1.384 . S
H622 C628 0.930 . S
H623 C632 0.930 . S
H624 C637 0.929 . S
H625 C635 0.929 . S
H626 C630 0.929 . S
H627 C636 0.929 . S
C628 H622 0.930 . S
C628 C629 1.367 . S
C628 C636 1.378 . S
C629 C628 1.367 . S
C629 C637 1.433 . S
C630 H626 0.929 . S
C630 C632 1.378 . S
C630 C634 1.350 . S
C631 C634 1.463 . S
C631 C636 1.350 . S
C631 N639 1.427 . S
C632 H623 0.930 . S
C632 C630 1.378 . S
C632 C633 1.367 . S
C633 C632 1.367 . S
C633 C635 1.433 . S
C634 C630 1.350 . S
C634 C631 1.463 . S
C634 N638 1.427 . S
C635 H625 0.929 . S
C635 C633 1.433 . S
C635 N638 1.384 . S
C636 H627 0.929 . S
C636 C628 1.378 . S
C636 C631 1.350 . S
C637 H624 0.929 . S
C637 C629 1.433 . S
C637 N639 1.384 . S
N638 C634 1.427 . S
N638 C635 1.384 . S
N639 C631 1.427 . S
N639 C637 1.384 . S
H640 C646 0.930 . S
H641 C650 0.930 . S
H642 C655 0.929 . S
H643 C653 0.929 . S
H644 C648 0.929 . S
H645 C654 0.929 . S
C646 H640 0.930 . S
C646 C647 1.367 . S
C646 C654 1.378 . S
C647 C646 1.367 . S
C647 C655 1.433 . S
C648 H644 0.929 . S
C648 C650 1.378 . S
C648 C652 1.350 . S
C649 C652 1.463 . S
C649 C654 1.350 . S
C649 N657 1.427 . S
C650 H641 0.930 . S
C650 C648 1.378 . S
C650 C651 1.367 . S
C651 C650 1.367 . S
C651 C653 1.433 . S
C652 C648 1.350 . S
C652 C649 1.463 . S
C652 N656 1.427 . S
C653 H643 0.929 . S
C653 C651 1.433 . S
C653 N656 1.384 . S
C654 H645 0.929 . S
C654 C646 1.378 . S
C654 C649 1.350 . S
C655 H642 0.929 . S
C655 C647 1.433 . S
C655 N657 1.384 . S
N656 C652 1.427 . S
N656 C653 1.384 . S
N657 C649 1.427 . S
N657 C655 1.384 . S
H658 C664 0.930 . S
H659 C668 0.930 . S
H660 C673 0.929 . S
H661 C671 0.929 . S
H662 C666 0.929 . S
H663 C672 0.929 . S
C664 H658 0.930 . S
C664 C665 1.367 . S
C664 C672 1.378 . S
C665 C664 1.367 . S
C665 C673 1.433 . S
C666 H662 0.929 . S
C666 C668 1.378 . S
C666 C670 1.350 . S
C667 C670 1.463 . S
C667 C672 1.350 . S
C667 N675 1.427 . S
C668 H659 0.930 . S
C668 C666 1.378 . S
C668 C669 1.367 . S
C669 C668 1.367 . S
C669 C671 1.433 . S
C670 C666 1.350 . S
C670 C667 1.463 . S
C670 N674 1.427 . S
C671 H661 0.929 . S
C671 C669 1.433 . S
C671 N674 1.384 . S
C672 H663 0.929 . S
C672 C664 1.378 . S
C672 C667 1.350 . S
C673 H660 0.929 . S
C673 C665 1.433 . S
C673 N675 1.384 . S
N674 C670 1.427 . S
N674 C671 1.384 . S
N675 C667 1.427 . S
N675 C673 1.384 . S
H676 C682 0.930 . S
H677 C686 0.930 . S
H678 C691 0.929 . S
H679 C689 0.929 . S
H680 C684 0.929 . S
H681 C690 0.929 . S
C682 H676 0.930 . S
C682 C683 1.367 . S
C682 C690 1.378 . S
C683 C682 1.367 . S
C683 C691 1.433 . S
C684 H680 0.929 . S
C684 C686 1.378 . S
C684 C688 1.350 . S
C685 C688 1.463 . S
C685 C690 1.350 . S
C685 N693 1.427 . S
C686 H677 0.930 . S
C686 C684 1.378 . S
C686 C687 1.367 . S
C687 C686 1.367 . S
C687 C689 1.433 . S
C688 C684 1.350 . S
C688 C685 1.463 . S
C688 N692 1.427 . S
C689 H679 0.929 . S
C689 C687 1.433 . S
C689 N692 1.384 . S
C690 H681 0.929 . S
C690 C682 1.378 . S
C690 C685 1.350 . S
C691 H678 0.929 . S
C691 C683 1.433 . S
C691 N693 1.384 . S
N692 C688 1.427 . S
N692 C689 1.384 . S
N693 C685 1.427 . S
N693 C691 1.384 . S
H694 C700 0.930 . S
H695 C704 0.930 . S
H696 C709 0.929 . S
H697 C707 0.929 . S
H698 C702 0.929 . S
H699 C708 0.929 . S
C700 H694 0.930 . S
C700 C701 1.367 . S
C700 C708 1.378 . S
C701 C700 1.367 . S
C701 C709 1.433 . S
C702 H698 0.929 . S
C702 C704 1.378 . S
C702 C706 1.350 . S
C703 C706 1.463 . S
C703 C708 1.350 . S
C703 N711 1.427 . S
C704 H695 0.930 . S
C704 C702 1.378 . S
C704 C705 1.367 . S
C705 C704 1.367 . S
C705 C707 1.433 . S
C706 C702 1.350 . S
C706 C703 1.463 . S
C706 N710 1.427 . S
C707 H697 0.929 . S
C707 C705 1.433 . S
C707 N710 1.384 . S
C708 H699 0.929 . S
C708 C700 1.378 . S
C708 C703 1.350 . S
C709 H696 0.929 . S
C709 C701 1.433 . S
C709 N711 1.384 . S
N710 C706 1.427 . S
N710 C707 1.384 . S
N711 C703 1.427 . S
N711 C709 1.384 . S
H712 C718 0.930 . S
H713 C722 0.930 . S
H714 C727 0.929 . S
H715 C725 0.929 . S
H716 C720 0.929 . S
H717 C726 0.929 . S
C718 H712 0.930 . S
C718 C719 1.367 . S
C718 C726 1.378 . S
C719 C718 1.367 . S
C719 C727 1.433 . S
C720 H716 0.929 . S
C720 C722 1.378 . S
C720 C724 1.350 . S
C721 C724 1.463 . S
C721 C726 1.350 . S
C721 N729 1.427 . S
C722 H713 0.930 . S
C722 C720 1.378 . S
C722 C723 1.367 . S
C723 C722 1.367 . S
C723 C725 1.433 . S
C724 C720 1.350 . S
C724 C721 1.463 . S
C724 N728 1.427 . S
C725 H715 0.929 . S
C725 C723 1.433 . S
C725 N728 1.384 . S
C726 H717 0.929 . S
C726 C718 1.378 . S
C726 C721 1.350 . S
C727 H714 0.929 . S
C727 C719 1.433 . S
C727 N729 1.384 . S
N728 C724 1.427 . S
N728 C725 1.384 . S
N729 C721 1.427 . S
N729 C727 1.384 . S
H730 C736 0.930 . S
H731 C740 0.930 . S
H732 C745 0.929 . S
H733 C743 0.929 . S
H734 C738 0.929 . S
H735 C744 0.929 . S
C736 H730 0.930 . S
C736 C737 1.367 . S
C736 C744 1.378 . S
C737 C736 1.367 . S
C737 C745 1.433 . S
C738 H734 0.929 . S
C738 C740 1.378 . S
C738 C742 1.350 . S
C739 C742 1.463 . S
C739 C744 1.350 . S
C739 N747 1.427 . S
C740 H731 0.930 . S
C740 C738 1.378 . S
C740 C741 1.367 . S
C741 C740 1.367 . S
C741 C743 1.433 . S
C742 C738 1.350 . S
C742 C739 1.463 . S
C742 N746 1.427 . S
C743 H733 0.929 . S
C743 C741 1.433 . S
C743 N746 1.384 . S
C744 H735 0.929 . S
C744 C736 1.378 . S
C744 C739 1.350 . S
C745 H732 0.929 . S
C745 C737 1.433 . S
C745 N747 1.384 . S
N746 C742 1.427 . S
N746 C743 1.384 . S
N747 C739 1.427 . S
N747 C745 1.384 . S
H748 C754 0.930 . S
H749 C758 0.930 . S
H750 C763 0.929 . S
H751 C761 0.929 . S
H752 C756 0.929 . S
H753 C762 0.929 . S
C754 H748 0.930 . S
C754 C755 1.367 . S
C754 C762 1.378 . S
C755 C754 1.367 . S
C755 C763 1.433 . S
C756 H752 0.929 . S
C756 C758 1.378 . S
C756 C760 1.350 . S
C757 C760 1.463 . S
C757 C762 1.350 . S
C757 N765 1.427 . S
C758 H749 0.930 . S
C758 C756 1.378 . S
C758 C759 1.367 . S
C759 C758 1.367 . S
C759 C761 1.433 . S
C760 C756 1.350 . S
C760 C757 1.463 . S
C760 N764 1.427 . S
C761 H751 0.929 . S
C761 C759 1.433 . S
C761 N764 1.384 . S
C762 H753 0.929 . S
C762 C754 1.378 . S
C762 C757 1.350 . S
C763 H750 0.929 . S
C763 C755 1.433 . S
C763 N765 1.384 . S
N764 C760 1.427 . S
N764 C761 1.384 . S
N765 C757 1.427 . S
N765 C763 1.384 . S
H766 C772 0.930 . S
H767 C776 0.930 . S
H768 C781 0.929 . S
H769 C779 0.929 . S
H770 C774 0.929 . S
H771 C780 0.929 . S
C772 H766 0.930 . S
C772 C773 1.367 . S
C772 C780 1.378 . S
C773 C772 1.367 . S
C773 C781 1.433 . S
C774 H770 0.929 . S
C774 C776 1.378 . S
C774 C778 1.350 . S
C775 C778 1.463 . S
C775 C780 1.350 . S
C775 N783 1.427 . S
C776 H767 0.930 . S
C776 C774 1.378 . S
C776 C777 1.367 . S
C777 C776 1.367 . S
C777 C779 1.433 . S
C778 C774 1.350 . S
C778 C775 1.463 . S
C778 N782 1.427 . S
C779 H769 0.929 . S
C779 C777 1.433 . S
C779 N782 1.384 . S
C780 H771 0.929 . S
C780 C772 1.378 . S
C780 C775 1.350 . S
C781 H768 0.929 . S
C781 C773 1.433 . S
C781 N783 1.384 . S
N782 C778 1.427 . S
N782 C779 1.384 . S
N783 C775 1.427 . S
N783 C781 1.384 . S
H784 C790 0.930 . S
H785 C794 0.930 . S
H786 C799 0.929 . S
H787 C797 0.929 . S
H788 C792 0.929 . S
H789 C798 0.929 . S
C790 H784 0.930 . S
C790 C791 1.367 . S
C790 C798 1.378 . S
C791 C790 1.367 . S
C791 C799 1.433 . S
C792 H788 0.929 . S
C792 C794 1.378 . S
C792 C796 1.350 . S
C793 C796 1.463 . S
C793 C798 1.350 . S
C793 N801 1.427 . S
C794 H785 0.930 . S
C794 C792 1.378 . S
C794 C795 1.367 . S
C795 C794 1.367 . S
C795 C797 1.433 . S
C796 C792 1.350 . S
C796 C793 1.463 . S
C796 N800 1.427 . S
C797 H787 0.929 . S
C797 C795 1.433 . S
C797 N800 1.384 . S
C798 H789 0.929 . S
C798 C790 1.378 . S
C798 C793 1.350 . S
C799 H786 0.929 . S
C799 C791 1.433 . S
C799 N801 1.384 . S
N800 C796 1.427 . S
N800 C797 1.384 . S
N801 C793 1.427 . S
N801 C799 1.384 . S
H802 C808 0.930 . S
H803 C812 0.930 . S
H804 C817 0.929 . S
H805 C815 0.929 . S
H806 C810 0.929 . S
H807 C816 0.929 . S
C808 H802 0.930 . S
C808 C809 1.367 . S
C808 C816 1.378 . S
C809 C808 1.367 . S
C809 C817 1.433 . S
C810 H806 0.929 . S
C810 C812 1.378 . S
C810 C814 1.350 . S
C811 C814 1.463 . S
C811 C816 1.350 . S
C811 N819 1.427 . S
C812 H803 0.930 . S
C812 C810 1.378 . S
C812 C813 1.367 . S
C813 C812 1.367 . S
C813 C815 1.433 . S
C814 C810 1.350 . S
C814 C811 1.463 . S
C814 N818 1.427 . S
C815 H805 0.929 . S
C815 C813 1.433 . S
C815 N818 1.384 . S
C816 H807 0.929 . S
C816 C808 1.378 . S
C816 C811 1.350 . S
C817 H804 0.929 . S
C817 C809 1.433 . S
C817 N819 1.384 . S
N818 C814 1.427 . S
N818 C815 1.384 . S
N819 C811 1.427 . S
N819 C817 1.384 . S
H820 C826 0.930 . S
H821 C830 0.930 . S
H822 C835 0.929 . S
H823 C833 0.929 . S
H824 C828 0.929 . S
H825 C834 0.929 . S
C826 H820 0.930 . S
C826 C827 1.367 . S
C826 C834 1.378 . S
C827 C826 1.367 . S
C827 C835 1.433 . S
C828 H824 0.929 . S
C828 C830 1.378 . S
C828 C832 1.350 . S
C829 C832 1.463 . S
C829 C834 1.350 . S
C829 N837 1.427 . S
C830 H821 0.930 . S
C830 C828 1.378 . S
C830 C831 1.367 . S
C831 C830 1.367 . S
C831 C833 1.433 . S
C832 C828 1.350 . S
C832 C829 1.463 . S
C832 N836 1.427 . S
C833 H823 0.929 . S
C833 C831 1.433 . S
C833 N836 1.384 . S
C834 H825 0.929 . S
C834 C826 1.378 . S
C834 C829 1.350 . S
C835 H822 0.929 . S
C835 C827 1.433 . S
C835 N837 1.384 . S
N836 C832 1.427 . S
N836 C833 1.384 . S
N837 C829 1.427 . S
N837 C835 1.384 . S
H838 C844 0.930 . S
H839 C848 0.930 . S
H840 C853 0.929 . S
H841 C851 0.929 . S
H842 C846 0.929 . S
H843 C852 0.929 . S
C844 H838 0.930 . S
C844 C845 1.367 . S
C844 C852 1.378 . S
C845 C844 1.367 . S
C845 C853 1.433 . S
C846 H842 0.929 . S
C846 C848 1.378 . S
C846 C850 1.350 . S
C847 C850 1.463 . S
C847 C852 1.350 . S
C847 N855 1.427 . S
C848 H839 0.930 . S
C848 C846 1.378 . S
C848 C849 1.367 . S
C849 C848 1.367 . S
C849 C851 1.433 . S
C850 C846 1.350 . S
C850 C847 1.463 . S
C850 N854 1.427 . S
C851 H841 0.929 . S
C851 C849 1.433 . S
C851 N854 1.384 . S
C852 H843 0.929 . S
C852 C844 1.378 . S
C852 C847 1.350 . S
C853 H840 0.929 . S
C853 C845 1.433 . S
C853 N855 1.384 . S
N854 C850 1.427 . S
N854 C851 1.384 . S
N855 C847 1.427 . S
N855 C853 1.384 . S
H856 C862 0.930 . S
H857 C866 0.930 . S
H858 C871 0.929 . S
H859 C869 0.929 . S
H860 C864 0.929 . S
H861 C870 0.929 . S
C862 H856 0.930 . S
C862 C863 1.367 . S
C862 C870 1.378 . S
C863 C862 1.367 . S
C863 C871 1.433 . S
C864 H860 0.929 . S
C864 C866 1.378 . S
C864 C868 1.350 . S
C865 C868 1.463 . S
C865 C870 1.350 . S
C865 N873 1.427 . S
C866 H857 0.930 . S
C866 C864 1.378 . S
C866 C867 1.367 . S
C867 C866 1.367 . S
C867 C869 1.433 . S
C868 C864 1.350 . S
C868 C865 1.463 . S
C868 N872 1.427 . S
C869 H859 0.929 . S
C869 C867 1.433 . S
C869 N872 1.384 . S
C870 H861 0.929 . S
C870 C862 1.378 . S
C870 C865 1.350 . S
C871 H858 0.929 . S
C871 C863 1.433 . S
C871 N873 1.384 . S
N872 C868 1.427 . S
N872 C869 1.384 . S
N873 C865 1.427 . S
N873 C871 1.384 . S
H874 C880 0.930 . S
H875 C884 0.930 . S
H876 C889 0.929 . S
H877 C887 0.929 . S
H878 C882 0.929 . S
H879 C888 0.929 . S
C880 H874 0.930 . S
C880 C881 1.367 . S
C880 C888 1.378 . S
C881 C880 1.367 . S
C881 C889 1.433 . S
C882 H878 0.929 . S
C882 C884 1.378 . S
C882 C886 1.350 . S
C883 C886 1.463 . S
C883 C888 1.350 . S
C883 N891 1.427 . S
C884 H875 0.930 . S
C884 C882 1.378 . S
C884 C885 1.367 . S
C885 C884 1.367 . S
C885 C887 1.433 . S
C886 C882 1.350 . S
C886 C883 1.463 . S
C886 N890 1.427 . S
C887 H877 0.929 . S
C887 C885 1.433 . S
C887 N890 1.384 . S
C888 H879 0.929 . S
C888 C880 1.378 . S
C888 C883 1.350 . S
C889 H876 0.929 . S
C889 C881 1.433 . S
C889 N891 1.384 . S
N890 C886 1.427 . S
N890 C887 1.384 . S
N891 C883 1.427 . S
N891 C889 1.384 . S
H892 C898 0.930 . S
H893 C902 0.930 . S
H894 C907 0.929 . S
H895 C905 0.929 . S
H896 C900 0.929 . S
H897 C906 0.929 . S
C898 H892 0.930 . S
C898 C899 1.367 . S
C898 C906 1.378 . S
C899 C898 1.367 . S
C899 C907 1.433 . S
C900 H896 0.929 . S
C900 C902 1.378 . S
C900 C904 1.350 . S
C901 C904 1.463 . S
C901 C906 1.350 . S
C901 N909 1.427 . S
C902 H893 0.930 . S
C902 C900 1.378 . S
C902 C903 1.367 . S
C903 C902 1.367 . S
C903 C905 1.433 . S
C904 C900 1.350 . S
C904 C901 1.463 . S
C904 N908 1.427 . S
C905 H895 0.929 . S
C905 C903 1.433 . S
C905 N908 1.384 . S
C906 H897 0.929 . S
C906 C898 1.378 . S
C906 C901 1.350 . S
C907 H894 0.929 . S
C907 C899 1.433 . S
C907 N909 1.384 . S
N908 C904 1.427 . S
N908 C905 1.384 . S
N909 C901 1.427 . S
N909 C907 1.384 . S
H910 C916 0.930 . S
H911 C920 0.930 . S
H912 C925 0.929 . S
H913 C923 0.929 . S
H914 C918 0.929 . S
H915 C924 0.929 . S
C916 H910 0.930 . S
C916 C917 1.367 . S
C916 C924 1.378 . S
C917 C916 1.367 . S
C917 C925 1.433 . S
C918 H914 0.929 . S
C918 C920 1.378 . S
C918 C922 1.350 . S
C919 C922 1.463 . S
C919 C924 1.350 . S
C919 N927 1.427 . S
C920 H911 0.930 . S
C920 C918 1.378 . S
C920 C921 1.367 . S
C921 C920 1.367 . S
C921 C923 1.433 . S
C922 C918 1.350 . S
C922 C919 1.463 . S
C922 N926 1.427 . S
C923 H913 0.929 . S
C923 C921 1.433 . S
C923 N926 1.384 . S
C924 H915 0.929 . S
C924 C916 1.378 . S
C924 C919 1.350 . S
C925 H912 0.929 . S
C925 C917 1.433 . S
C925 N927 1.384 . S
N926 C922 1.427 . S
N926 C923 1.384 . S
N927 C919 1.427 . S
N927 C925 1.384 . S
H928 C934 0.930 . S
H929 C938 0.930 . S
H930 C943 0.929 . S
H931 C941 0.929 . S
H932 C936 0.929 . S
H933 C942 0.929 . S
C934 H928 0.930 . S
C934 C935 1.367 . S
C934 C942 1.378 . S
C935 C934 1.367 . S
C935 C943 1.433 . S
C936 H932 0.929 . S
C936 C938 1.378 . S
C936 C940 1.350 . S
C937 C940 1.463 . S
C937 C942 1.350 . S
C937 N945 1.427 . S
C938 H929 0.930 . S
C938 C936 1.378 . S
C938 C939 1.367 . S
C939 C938 1.367 . S
C939 C941 1.433 . S
C940 C936 1.350 . S
C940 C937 1.463 . S
C940 N944 1.427 . S
C941 H931 0.929 . S
C941 C939 1.433 . S
C941 N944 1.384 . S
C942 H933 0.929 . S
C942 C934 1.378 . S
C942 C937 1.350 . S
C943 H930 0.929 . S
C943 C935 1.433 . S
C943 N945 1.384 . S
N944 C940 1.427 . S
N944 C941 1.384 . S
N945 C937 1.427 . S
N945 C943 1.384 . S
H946 C952 0.930 . S
H947 C956 0.930 . S
H948 C961 0.929 . S
H949 C959 0.929 . S
H950 C954 0.929 . S
H951 C960 0.929 . S
C952 H946 0.930 . S
C952 C953 1.367 . S
C952 C960 1.378 . S
C953 C952 1.367 . S
C953 C961 1.433 . S
C954 H950 0.929 . S
C954 C956 1.378 . S
C954 C958 1.350 . S
C955 C958 1.463 . S
C955 C960 1.350 . S
C955 N963 1.427 . S
C956 H947 0.930 . S
C956 C954 1.378 . S
C956 C957 1.367 . S
C957 C956 1.367 . S
C957 C959 1.433 . S
C958 C954 1.350 . S
C958 C955 1.463 . S
C958 N962 1.427 . S
C959 H949 0.929 . S
C959 C957 1.433 . S
C959 N962 1.384 . S
C960 H951 0.929 . S
C960 C952 1.378 . S
C960 C955 1.350 . S
C961 H948 0.929 . S
C961 C953 1.433 . S
C961 N963 1.384 . S
N962 C958 1.427 . S
N962 C959 1.384 . S
N963 C955 1.427 . S
N963 C961 1.384 . S
H964 C970 0.930 . S
H965 C974 0.930 . S
H966 C979 0.929 . S
H967 C977 0.929 . S
H968 C972 0.929 . S
H969 C978 0.929 . S
C970 H964 0.930 . S
C970 C971 1.367 . S
C970 C978 1.378 . S
C971 C970 1.367 . S
C971 C979 1.433 . S
C972 H968 0.929 . S
C972 C974 1.378 . S
C972 C976 1.350 . S
C973 C976 1.463 . S
C973 C978 1.350 . S
C973 N981 1.427 . S
C974 H965 0.930 . S
C974 C972 1.378 . S
C974 C975 1.367 . S
C975 C974 1.367 . S
C975 C977 1.433 . S
C976 C972 1.350 . S
C976 C973 1.463 . S
C976 N980 1.427 . S
C977 H967 0.929 . S
C977 C975 1.433 . S
C977 N980 1.384 . S
C978 H969 0.929 . S
C978 C970 1.378 . S
C978 C973 1.350 . S
C979 H966 0.929 . S
C979 C971 1.433 . S
C979 N981 1.384 . S
N980 C976 1.427 . S
N980 C977 1.384 . S
N981 C973 1.427 . S
N981 C979 1.384 . S
H982 C988 0.930 . S
H983 C992 0.930 . S
H984 C997 0.929 . S
H985 C995 0.929 . S
H986 C990 0.929 . S
H987 C996 0.929 . S
C988 H982 0.930 . S
C988 C989 1.367 . S
C988 C996 1.378 . S
C989 C988 1.367 . S
C989 C997 1.433 . S
C990 H986 0.929 . S
C990 C992 1.378 . S
C990 C994 1.350 . S
C991 C994 1.463 . S
C991 C996 1.350 . S
C991 N999 1.427 . S
C992 H983 0.930 . S
C992 C990 1.378 . S
C992 C993 1.367 . S
C993 C992 1.367 . S
C993 C995 1.433 . S
C994 C990 1.350 . S
C994 C991 1.463 . S
C994 N998 1.427 . S
C995 H985 0.929 . S
C995 C993 1.433 . S
C995 N998 1.384 . S
C996 H987 0.929 . S
C996 C988 1.378 . S
C996 C991 1.350 . S
C997 H984 0.929 . S
C997 C989 1.433 . S
C997 N999 1.384 . S
N998 C994 1.427 . S
N998 C995 1.384 . S
N999 C991 1.427 . S
N999 C997 1.384 . S
H1000 C1006 0.930 . S
H1001 C1010 0.930 . S
H1002 C1015 0.929 . S
H1003 C1013 0.929 . S
H1004 C1008 0.929 . S
H1005 C1014 0.929 . S
C1006 H1000 0.930 . S
C1006 C1007 1.367 . S
C1006 C1014 1.378 . S
C1007 C1006 1.367 . S
C1007 C1015 1.433 . S
C1008 H1004 0.929 . S
C1008 C1010 1.378 . S
C1008 C1012 1.350 . S
C1009 C1012 1.463 . S
C1009 C1014 1.350 . S
C1009 N1017 1.427 . S
C1010 H1001 0.930 . S
C1010 C1008 1.378 . S
C1010 C1011 1.367 . S
C1011 C1010 1.367 . S
C1011 C1013 1.433 . S
C1012 C1008 1.350 . S
C1012 C1009 1.463 . S
C1012 N1016 1.427 . S
C1013 H1003 0.929 . S
C1013 C1011 1.433 . S
C1013 N1016 1.384 . S
C1014 H1005 0.929 . S
C1014 C1006 1.378 . S
C1014 C1009 1.350 . S
C1015 H1002 0.929 . S
C1015 C1007 1.433 . S
C1015 N1017 1.384 . S
N1016 C1012 1.427 . S
N1016 C1013 1.384 . S
N1017 C1009 1.427 . S
N1017 C1015 1.384 . S
H1018 C1024 0.930 . S
H1019 C1028 0.930 . S
H1020 C1033 0.929 . S
H1021 C1031 0.929 . S
H1022 C1026 0.929 . S
H1023 C1032 0.929 . S
C1024 H1018 0.930 . S
C1024 C1025 1.367 . S
C1024 C1032 1.378 . S
C1025 C1024 1.367 . S
C1025 C1033 1.433 . S
C1026 H1022 0.929 . S
C1026 C1028 1.378 . S
C1026 C1030 1.350 . S
C1027 C1030 1.463 . S
C1027 C1032 1.350 . S
C1027 N1035 1.427 . S
C1028 H1019 0.930 . S
C1028 C1026 1.378 . S
C1028 C1029 1.367 . S
C1029 C1028 1.367 . S
C1029 C1031 1.433 . S
C1030 C1026 1.350 . S
C1030 C1027 1.463 . S
C1030 N1034 1.427 . S
C1031 H1021 0.929 . S
C1031 C1029 1.433 . S
C1031 N1034 1.384 . S
C1032 H1023 0.929 . S
C1032 C1024 1.378 . S
C1032 C1027 1.350 . S
C1033 H1020 0.929 . S
C1033 C1025 1.433 . S
C1033 N1035 1.384 . S
N1034 C1030 1.427 . S
N1034 C1031 1.384 . S
N1035 C1027 1.427 . S
N1035 C1033 1.384 . S
H1036 C1042 0.930 . S
H1037 C1046 0.930 . S
H1038 C1051 0.929 . S
H1039 C1049 0.929 . S
H1040 C1044 0.929 . S
H1041 C1050 0.929 . S
C1042 H1036 0.930 . S
C1042 C1043 1.367 . S
C1042 C1050 1.378 . S
C1043 C1042 1.367 . S
C1043 C1051 1.433 . S
C1044 H1040 0.929 . S
C1044 C1046 1.378 . S
C1044 C1048 1.350 . S
C1045 C1048 1.463 . S
C1045 C1050 1.350 . S
C1045 N1053 1.427 . S
C1046 H1037 0.930 . S
C1046 C1044 1.378 . S
C1046 C1047 1.367 . S
C1047 C1046 1.367 . S
C1047 C1049 1.433 . S
C1048 C1044 1.350 . S
C1048 C1045 1.463 . S
C1048 N1052 1.427 . S
C1049 H1039 0.929 . S
C1049 C1047 1.433 . S
C1049 N1052 1.384 . S
C1050 H1041 0.929 . S
C1050 C1042 1.378 . S
C1050 C1045 1.350 . S
C1051 H1038 0.929 . S
C1051 C1043 1.433 . S
C1051 N1053 1.384 . S
N1052 C1048 1.427 . S
N1052 C1049 1.384 . S
N1053 C1045 1.427 . S
N1053 C1051 1.384 . S
H1054 C1060 0.930 . S
H1055 C1064 0.930 . S
H1056 C1069 0.929 . S
H1057 C1067 0.929 . S
H1058 C1062 0.929 . S
H1059 C1068 0.929 . S
C1060 H1054 0.930 . S
C1060 C1061 1.367 . S
C1060 C1068 1.378 . S
C1061 C1060 1.367 . S
C1061 C1069 1.433 . S
C1062 H1058 0.929 . S
C1062 C1064 1.378 . S
C1062 C1066 1.350 . S
C1063 C1066 1.463 . S
C1063 C1068 1.350 . S
C1063 N1071 1.427 . S
C1064 H1055 0.930 . S
C1064 C1062 1.378 . S
C1064 C1065 1.367 . S
C1065 C1064 1.367 . S
C1065 C1067 1.433 . S
C1066 C1062 1.350 . S
C1066 C1063 1.463 . S
C1066 N1070 1.427 . S
C1067 H1057 0.929 . S
C1067 C1065 1.433 . S
C1067 N1070 1.384 . S
C1068 H1059 0.929 . S
C1068 C1060 1.378 . S
C1068 C1063 1.350 . S
C1069 H1056 0.929 . S
C1069 C1061 1.433 . S
C1069 N1071 1.384 . S
N1070 C1066 1.427 . S
N1070 C1067 1.384 . S
N1071 C1063 1.427 . S
N1071 C1069 1.384 . S
H1072 C1078 0.930 . S
H1073 C1082 0.930 . S
H1074 C1087 0.929 . S
H1075 C1085 0.929 . S
H1076 C1080 0.929 . S
H1077 C1086 0.929 . S
C1078 H1072 0.930 . S
C1078 C1079 1.367 . S
C1078 C1086 1.378 . S
C1079 C1078 1.367 . S
C1079 C1087 1.433 . S
C1080 H1076 0.929 . S
C1080 C1082 1.378 . S
C1080 C1084 1.350 . S
C1081 C1084 1.463 . S
C1081 C1086 1.350 . S
C1081 N1089 1.427 . S
C1082 H1073 0.930 . S
C1082 C1080 1.378 . S
C1082 C1083 1.367 . S
C1083 C1082 1.367 . S
C1083 C1085 1.433 . S
C1084 C1080 1.350 . S
C1084 C1081 1.463 . S
C1084 N1088 1.427 . S
C1085 H1075 0.929 . S
C1085 C1083 1.433 . S
C1085 N1088 1.384 . S
C1086 H1077 0.929 . S
C1086 C1078 1.378 . S
C1086 C1081 1.350 . S
C1087 H1074 0.929 . S
C1087 C1079 1.433 . S
C1087 N1089 1.384 . S
N1088 C1084 1.427 . S
N1088 C1085 1.384 . S
N1089 C1081 1.427 . S
N1089 C1087 1.384 . S
H1090 C1096 0.930 . S
H1091 C1100 0.930 . S
H1092 C1105 0.929 . S
H1093 C1103 0.929 . S
H1094 C1098 0.929 . S
H1095 C1104 0.929 . S
C1096 H1090 0.930 . S
C1096 C1097 1.367 . S
C1096 C1104 1.378 . S
C1097 C1096 1.367 . S
C1097 C1105 1.433 . S
C1098 H1094 0.929 . S
C1098 C1100 1.378 . S
C1098 C1102 1.350 . S
C1099 C1102 1.463 . S
C1099 C1104 1.350 . S
C1099 N1107 1.427 . S
C1100 H1091 0.930 . S
C1100 C1098 1.378 . S
C1100 C1101 1.367 . S
C1101 C1100 1.367 . S
C1101 C1103 1.433 . S
C1102 C1098 1.350 . S
C1102 C1099 1.463 . S
C1102 N1106 1.427 . S
C1103 H1093 0.929 . S
C1103 C1101 1.433 . S
C1103 N1106 1.384 . S
C1104 H1095 0.929 . S
C1104 C1096 1.378 . S
C1104 C1099 1.350 . S
C1105 H1092 0.929 . S
C1105 C1097 1.433 . S
C1105 N1107 1.384 . S
N1106 C1102 1.427 . S
N1106 C1103 1.384 . S
N1107 C1099 1.427 . S
N1107 C1105 1.384 . S
H1108 C1114 0.930 . S
H1109 C1118 0.930 . S
H1110 C1123 0.929 . S
H1111 C1121 0.929 . S
H1112 C1116 0.929 . S
H1113 C1122 0.929 . S
C1114 H1108 0.930 . S
C1114 C1115 1.367 . S
C1114 C1122 1.378 . S
C1115 C1114 1.367 . S
C1115 C1123 1.433 . S
C1116 H1112 0.929 . S
C1116 C1118 1.378 . S
C1116 C1120 1.350 . S
C1117 C1120 1.463 . S
C1117 C1122 1.350 . S
C1117 N1125 1.427 . S
C1118 H1109 0.930 . S
C1118 C1116 1.378 . S
C1118 C1119 1.367 . S
C1119 C1118 1.367 . S
C1119 C1121 1.433 . S
C1120 C1116 1.350 . S
C1120 C1117 1.463 . S
C1120 N1124 1.427 . S
C1121 H1111 0.929 . S
C1121 C1119 1.433 . S
C1121 N1124 1.384 . S
C1122 H1113 0.929 . S
C1122 C1114 1.378 . S
C1122 C1117 1.350 . S
C1123 H1110 0.929 . S
C1123 C1115 1.433 . S
C1123 N1125 1.384 . S
N1124 C1120 1.427 . S
N1124 C1121 1.384 . S
N1125 C1117 1.427 . S
N1125 C1123 1.384 . S
H1126 C1132 0.930 . S
H1127 C1136 0.930 . S
H1128 C1141 0.929 . S
H1129 C1139 0.929 . S
H1130 C1134 0.929 . S
H1131 C1140 0.929 . S
C1132 H1126 0.930 . S
C1132 C1133 1.367 . S
C1132 C1140 1.378 . S
C1133 C1132 1.367 . S
C1133 C1141 1.433 . S
C1134 H1130 0.929 . S
C1134 C1136 1.378 . S
C1134 C1138 1.350 . S
C1135 C1138 1.463 . S
C1135 C1140 1.350 . S
C1135 N1143 1.427 . S
C1136 H1127 0.930 . S
C1136 C1134 1.378 . S
C1136 C1137 1.367 . S
C1137 C1136 1.367 . S
C1137 C1139 1.433 . S
C1138 C1134 1.350 . S
C1138 C1135 1.463 . S
C1138 N1142 1.427 . S
C1139 H1129 0.929 . S
C1139 C1137 1.433 . S
C1139 N1142 1.384 . S
C1140 H1131 0.929 . S
C1140 C1132 1.378 . S
C1140 C1135 1.350 . S
C1141 H1128 0.929 . S
C1141 C1133 1.433 . S
C1141 N1143 1.384 . S
N1142 C1138 1.427 . S
N1142 C1139 1.384 . S
N1143 C1135 1.427 . S
N1143 C1141 1.384 . S
H1144 C1150 0.930 . S
H1145 C1154 0.930 . S
H1146 C1159 0.929 . S
H1147 C1157 0.929 . S
H1148 C1152 0.929 . S
H1149 C1158 0.929 . S
C1150 H1144 0.930 . S
C1150 C1151 1.367 . S
C1150 C1158 1.378 . S
C1151 C1150 1.367 . S
C1151 C1159 1.433 . S
C1152 H1148 0.929 . S
C1152 C1154 1.378 . S
C1152 C1156 1.350 . S
C1153 C1156 1.463 . S
C1153 C1158 1.350 . S
C1153 N1161 1.427 . S
C1154 H1145 0.930 . S
C1154 C1152 1.378 . S
C1154 C1155 1.367 . S
C1155 C1154 1.367 . S
C1155 C1157 1.433 . S
C1156 C1152 1.350 . S
C1156 C1153 1.463 . S
C1156 N1160 1.427 . S
C1157 H1147 0.929 . S
C1157 C1155 1.433 . S
C1157 N1160 1.384 . S
C1158 H1149 0.929 . S
C1158 C1150 1.378 . S
C1158 C1153 1.350 . S
C1159 H1146 0.929 . S
C1159 C1151 1.433 . S
C1159 N1161 1.384 . S
N1160 C1156 1.427 . S
N1160 C1157 1.384 . S
N1161 C1153 1.427 . S
N1161 C1159 1.384 . S
H1162 C1168 0.930 . S
H1163 C1172 0.930 . S
H1164 C1177 0.929 . S
H1165 C1175 0.929 . S
H1166 C1170 0.929 . S
H1167 C1176 0.929 . S
C1168 H1162 0.930 . S
C1168 C1169 1.367 . S
C1168 C1176 1.378 . S
C1169 C1168 1.367 . S
C1169 C1177 1.433 . S
C1170 H1166 0.929 . S
C1170 C1172 1.378 . S
C1170 C1174 1.350 . S
C1171 C1174 1.463 . S
C1171 C1176 1.350 . S
C1171 N1179 1.427 . S
C1172 H1163 0.930 . S
C1172 C1170 1.378 . S
C1172 C1173 1.367 . S
C1173 C1172 1.367 . S
C1173 C1175 1.433 . S
C1174 C1170 1.350 . S
C1174 C1171 1.463 . S
C1174 N1178 1.427 . S
C1175 H1165 0.929 . S
C1175 C1173 1.433 . S
C1175 N1178 1.384 . S
C1176 H1167 0.929 . S
C1176 C1168 1.378 . S
C1176 C1171 1.350 . S
C1177 H1164 0.929 . S
C1177 C1169 1.433 . S
C1177 N1179 1.384 . S
N1178 C1174 1.427 . S
N1178 C1175 1.384 . S
N1179 C1171 1.427 . S
N1179 C1177 1.384 . S
H1180 C1186 0.930 . S
H1181 C1190 0.930 . S
H1182 C1195 0.929 . S
H1183 C1193 0.929 . S
H1184 C1188 0.929 . S
H1185 C1194 0.929 . S
C1186 H1180 0.930 . S
C1186 C1187 1.367 . S
C1186 C1194 1.378 . S
C1187 C1186 1.367 . S
C1187 C1195 1.433 . S
C1188 H1184 0.929 . S
C1188 C1190 1.378 . S
C1188 C1192 1.350 . S
C1189 C1192 1.463 . S
C1189 C1194 1.350 . S
C1189 N1197 1.427 . S
C1190 H1181 0.930 . S
C1190 C1188 1.378 . S
C1190 C1191 1.367 . S
C1191 C1190 1.367 . S
C1191 C1193 1.433 . S
C1192 C1188 1.350 . S
C1192 C1189 1.463 . S
C1192 N1196 1.427 . S
C1193 H1183 0.929 . S
C1193 C1191 1.433 . S
C1193 N1196 1.384 . S
C1194 H1185 0.929 . S
C1194 C1186 1.378 . S
C1194 C1189 1.350 . S
C1195 H1182 0.929 . S
C1195 C1187 1.433 . S
C1195 N1197 1.384 . S
N1196 C1192 1.427 . S
N1196 C1193 1.384 . S
N1197 C1189 1.427 . S
N1197 C1195 1.384 . S
H1198 C1204 0.930 . S
H1199 C1208 0.930 . S
H1200 C1213 0.929 . S
H1201 C1211 0.929 . S
H1202 C1206 0.929 . S
H1203 C1212 0.929 . S
C1204 H1198 0.930 . S
C1204 C1205 1.367 . S
C1204 C1212 1.378 . S
C1205 C1204 1.367 . S
C1205 C1213 1.433 . S
C1206 H1202 0.929 . S
C1206 C1208 1.378 . S
C1206 C1210 1.350 . S
C1207 C1210 1.463 . S
C1207 C1212 1.350 . S
C1207 N1215 1.427 . S
C1208 H1199 0.930 . S
C1208 C1206 1.378 . S
C1208 C1209 1.367 . S
C1209 C1208 1.367 . S
C1209 C1211 1.433 . S
C1210 C1206 1.350 . S
C1210 C1207 1.463 . S
C1210 N1214 1.427 . S
C1211 H1201 0.929 . S
C1211 C1209 1.433 . S
C1211 N1214 1.384 . S
C1212 H1203 0.929 . S
C1212 C1204 1.378 . S
C1212 C1207 1.350 . S
C1213 H1200 0.929 . S
C1213 C1205 1.433 . S
C1213 N1215 1.384 . S
N1214 C1210 1.427 . S
N1214 C1211 1.384 . S
N1215 C1207 1.427 . S
N1215 C1213 1.384 . S
C363 C177 1.540 . S
C359 C9 1.552 . S
C381 C182 1.188 . S
C377 C22 1.211 . S
C399 C183 1.207 . S
C395 C49 1.214 . S
C413 C61 1.222 . S
C417 C187 1.222 . S
C431 C81 1.210 . S
C435 C190 1.200 . S
C453 C191 1.198 . S
C449 C108 1.213 . S
C467 C122 1.217 . S
C471 C168 1.216 . S
C485 C148 1.555 . S
C489 C184 1.542 . S
C507 C222 2.052 . S
C503 C18 2.049 . S
C521 C39 1.390 . S
C525 C248 1.384 . S
C543 C200 2.042 . S
C539 C58 2.059 . S
C561 C255 1.158 . S
C557 C69 1.176 . S
C575 C89 1.178 . S
C579 C209 1.158 . S
C597 C251 1.181 . S
C593 C102 1.216 . S
C611 C139 1.394 . S
C615 C215 1.388 . S
C629 C142 1.237 . S
C633 C246 1.211 . S
C647 C1 1.232 . S
C651 C254 1.203 . S
C665 C98 1.393 . S
C669 C241 1.386 . S
C687 C219 2.042 . S
C683 C119 2.058 . S
C705 C247 1.154 . S
C701 C128 1.177 . S
C719 C159 2.053 . S
C723 C214 2.058 . S
C737 C41 1.214 . S
C741 C232 1.181 . S
C759 C223 1.391 . S
C755 C78 1.397 . S
C773 C28 1.189 . S
C777 C216 1.161 . S
C791 C149 1.526 . S
C795 C278 1.481 . S
C809 C82 1.180 . S
C813 C273 1.170 . S
C831 C287 1.143 . S
C827 C109 1.191 . S
C849 C264 1.204 . S
C845 C121 1.210 . S
C863 C21 1.188 . S
C867 C280 1.179 . S
C885 C279 1.149 . S
C881 C48 1.177 . S
C899 C62 1.208 . S
C903 C283 1.202 . S
C917 C8 1.528 . S
C921 C286 1.486 . S
C935 C158 2.071 . S
C939 C312 2.092 . S
C957 C328 1.416 . S
C953 C99 1.400 . S
C971 C118 2.058 . S
C975 C310 2.067 . S
C989 C129 1.199 . S
C993 C343 1.162 . S
C1011 C319 1.173 . S
C1007 C29 1.187 . S
C1025 C42 1.227 . S
C1029 C337 1.201 . S
C1047 C315 1.404 . S
C1043 C79 1.396 . S
C1065 C350 1.224 . S
C1061 C2 1.253 . S
C1083 C342 1.210 . S
C1079 C141 1.255 . S
C1097 C38 1.409 . S
C1101 C347 1.413 . S
C1115 C59 2.059 . S
C1119 C318 2.071 . S
C1137 C351 1.174 . S
C1133 C68 1.195 . S
C1151 C19 2.070 . S
C1155 C305 2.087 . S
C1169 C101 1.234 . S
C1173 C344 1.189 . S
C1191 C296 1.392 . S
C1187 C138 1.401 . S
C1209 C311 1.160 . S
C1205 C88 1.178 . S
