# Generated by pormake.
# Topology ocu, (6,8)-cn, num edge types: 1
# Building blocks:
#     Node 0, Type 0, BuildingBlock: CUKXOW_clean_sbu_0, # of connection points: 6
#     Node 1, Type 0, BuildingBlock: CUKXOW_clean_sbu_0, # of connection points: 6
#     Node 2, Type 0, BuildingBlock: CUKXOW_clean_sbu_0, # of connection points: 6
#     Node 3, Type 0, BuildingBlock: CUKXOW_clean_sbu_0, # of connection points: 6
#     Node 4, Type 0, BuildingBlock: CUKXOW_clean_sbu_0, # of connection points: 6
#     Node 5, Type 0, BuildingBlock: CUKXOW_clean_sbu_0, # of connection points: 6
#     Node 6, Type 0, BuildingBlock: CUKXOW_clean_sbu_0, # of connection points: 6
#     Node 7, Type 0, BuildingBlock: CUKXOW_clean_sbu_0, # of connection points: 6
#     Node 8, Type 1, BuildingBlock: TAGTUT_clean_sbu_1, # of connection points: 8
#     Node 9, Type 1, BuildingBlock: TAGTUT_clean_sbu_1, # of connection points: 8
#     Node 10, Type 1, BuildingBlock: TAGTUT_clean_sbu_1, # of connection points: 8
#     Node 11, Type 1, BuildingBlock: TAGTUT_clean_sbu_1, # of connection points: 8
#     Node 12, Type 1, BuildingBlock: TAGTUT_clean_sbu_1, # of connection points: 8
#     Node 13, Type 1, BuildingBlock: TAGTUT_clean_sbu_1, # of connection points: 8
#     Edge 14, Type (0, 1), None
#     Edge 15, Type (0, 1), None
#     Edge 16, Type (0, 1), None
#     Edge 17, Type (0, 1), None
#     Edge 18, Type (0, 1), None
#     Edge 19, Type (0, 1), None
#     Edge 20, Type (0, 1), None
#     Edge 21, Type (0, 1), None
#     Edge 22, Type (0, 1), None
#     Edge 23, Type (0, 1), None
#     Edge 24, Type (0, 1), None
#     Edge 25, Type (0, 1), None
#     Edge 26, Type (0, 1), None
#     Edge 27, Type (0, 1), None
#     Edge 28, Type (0, 1), None
#     Edge 29, Type (0, 1), None
#     Edge 30, Type (0, 1), None
#     Edge 31, Type (0, 1), None
#     Edge 32, Type (0, 1), None
#     Edge 33, Type (0, 1), None
#     Edge 34, Type (0, 1), None
#     Edge 35, Type (0, 1), None
#     Edge 36, Type (0, 1), None
#     Edge 37, Type (0, 1), None
#     Edge 38, Type (0, 1), None
#     Edge 39, Type (0, 1), None
#     Edge 40, Type (0, 1), None
#     Edge 41, Type (0, 1), None
#     Edge 42, Type (0, 1), None
#     Edge 43, Type (0, 1), None
#     Edge 44, Type (0, 1), None
#     Edge 45, Type (0, 1), None
#     Edge 46, Type (0, 1), None
#     Edge 47, Type (0, 1), None
#     Edge 48, Type (0, 1), None
#     Edge 49, Type (0, 1), None
#     Edge 50, Type (0, 1), None
#     Edge 51, Type (0, 1), None
#     Edge 52, Type (0, 1), None
#     Edge 53, Type (0, 1), None
#     Edge 54, Type (0, 1), None
#     Edge 55, Type (0, 1), None
#     Edge 56, Type (0, 1), None
#     Edge 57, Type (0, 1), None
#     Edge 58, Type (0, 1), None
#     Edge 59, Type (0, 1), None
#     Edge 60, Type (0, 1), None
#     Edge 61, Type (0, 1), None
# Relax obj value: 0.119
# Max RMSD: 0.242
# Mean RMSD: 0.127
data_MOF--net-ocu--node1-CUKXOW_clean_sbu_0--node2-TAGTUT_clean_sbu_1--edge1-none
_symmetry_space_group_name_H-M    P1
_symmetry_Int_Tables_number       1
_symmetry_cell_setting            triclinic
loop_
_symmetry_equiv_pos_as_xyz
'x, y, z'
_cell_length_a     19.897306
_cell_length_b     18.798657
_cell_length_c     17.915501
_cell_angle_alpha  95.417364
_cell_angle_beta   92.996698
_cell_angle_gamma 99.988976
loop_
_atom_site_label
_atom_site_type_symbol
_atom_site_fract_x
_atom_site_fract_y
_atom_site_fract_z
_atom_type_partial_charge
Tb0 Tb 0.21891 0.18475 0.21947 0.0
C1 C 0.31851 0.34266 0.20794 0.0
Tb2 Tb 0.23475 0.28271 0.34526 0.0
O3 O 0.11415 0.19943 0.19463 0.0
O4 O 0.18758 0.28803 0.23723 0.0
O5 O 0.29918 0.27301 0.18179 0.0
C6 C 0.1812 0.33544 0.46803 0.0
O7 O 0.29215 0.36394 0.2727 0.0
C8 C 0.32858 0.19837 0.34995 0.0
C9 C 0.13508 0.12486 0.35679 0.0
O10 O 0.24584 0.33222 0.46361 0.0
O11 O 0.15095 0.31924 0.40137 0.0
O12 O 0.33954 0.26799 0.36969 0.0
O13 O 0.26588 0.17937 0.32752 0.0
O14 O 0.15436 0.19453 0.38289 0.0
O15 O 0.16152 0.10356 0.29208 0.0
C16 C 0.27272 0.1321 0.09686 0.0
O17 O 0.20797 0.13483 0.10125 0.0
O18 O 0.30299 0.14873 0.16348 0.0
C19 C 0.12496 0.26903 0.21453 0.0
Tb20 Tb 0.67801 0.20554 0.3281 0.0
C21 C 0.64718 0.15837 0.15707 0.0
Tb22 Tb 0.77595 0.26195 0.23634 0.0
O23 O 0.593 0.24799 0.27387 0.0
O24 O 0.69102 0.30456 0.27555 0.0
O25 O 0.64097 0.13755 0.22455 0.0
C26 C 0.84759 0.36676 0.18069 0.0
O27 O 0.69815 0.21067 0.14507 0.0
C28 C 0.82346 0.16577 0.31766 0.0
C29 C 0.80674 0.30913 0.40739 0.0
O30 O 0.84958 0.29884 0.1588 0.0
O31 O 0.80178 0.37444 0.22713 0.0
O32 O 0.86086 0.21949 0.29084 0.0
O33 O 0.7629 0.16283 0.28872 0.0
O34 O 0.81297 0.32994 0.33991 0.0
O35 O 0.75576 0.25683 0.41938 0.0
C36 C 0.60636 0.10082 0.3839 0.0
O37 O 0.60438 0.16875 0.40568 0.0
O38 O 0.65218 0.09307 0.33748 0.0
C39 C 0.63035 0.30163 0.2469 0.0
Tb40 Tb 0.71299 0.80536 0.25557 0.0
C41 C 0.62856 0.65175 0.17765 0.0
Tb42 Tb 0.74061 0.66203 0.30926 0.0
O43 O 0.79506 0.80886 0.17441 0.0
O44 O 0.74748 0.71363 0.21166 0.0
O45 O 0.64046 0.72395 0.18299 0.0
C46 C 0.84992 0.60312 0.31076 0.0
O47 O 0.66339 0.61356 0.21926 0.0
C48 C 0.65805 0.72852 0.39053 0.0
C49 C 0.82491 0.81574 0.38727 0.0
O50 O 0.78954 0.56918 0.32615 0.0
O51 O 0.84717 0.66752 0.29372 0.0
O52 O 0.65849 0.65862 0.39045 0.0
O53 O 0.70609 0.75359 0.35296 0.0
O54 O 0.81304 0.74353 0.38189 0.0
O55 O 0.79012 0.85392 0.34562 0.0
C56 C 0.6037 0.86434 0.25406 0.0
O57 O 0.6641 0.89824 0.23868 0.0
O58 O 0.60643 0.79994 0.2711 0.0
C59 C 0.79549 0.73895 0.17417 0.0
Tb60 Tb 0.2392 0.79829 0.23822 0.0
C61 C 0.30855 0.81506 0.4004 0.0
Tb62 Tb 0.21457 0.66919 0.3265 0.0
O63 O 0.1958 0.86854 0.31807 0.0
O64 O 0.16389 0.75609 0.30936 0.0
O65 O 0.30988 0.83996 0.33412 0.0
C66 C 0.15323 0.5712 0.40381 0.0
O67 O 0.275 0.74959 0.41127 0.0
C68 C 0.29007 0.65268 0.21473 0.0
C69 C 0.14505 0.65263 0.16435 0.0
O70 O 0.2196 0.58859 0.40437 0.0
O71 O 0.12271 0.61236 0.36511 0.0
O72 O 0.25786 0.59898 0.24638 0.0
O73 O 0.2897 0.71131 0.25539 0.0
O74 O 0.14376 0.62771 0.23063 0.0
O75 O 0.17864 0.71806 0.15343 0.0
C76 C 0.30074 0.89611 0.16085 0.0
O77 O 0.23435 0.87885 0.16029 0.0
O78 O 0.33116 0.85489 0.19958 0.0
C79 C 0.16357 0.81489 0.34977 0.0
Tb80 Tb 0.17801 0.70554 0.8281 0.0
C81 C 0.14718 0.65837 0.65707 0.0
Tb82 Tb 0.27595 0.76195 0.73634 0.0
O83 O 0.093 0.74799 0.77387 0.0
O84 O 0.19102 0.80456 0.77555 0.0
O85 O 0.14098 0.63755 0.72455 0.0
C86 C 0.34759 0.86676 0.68069 0.0
O87 O 0.19815 0.71068 0.64507 0.0
C88 C 0.32346 0.66577 0.81766 0.0
C89 C 0.30674 0.80913 0.90739 0.0
O90 O 0.34958 0.79884 0.6588 0.0
O91 O 0.30178 0.87444 0.72713 0.0
O92 O 0.36086 0.71949 0.79084 0.0
O93 O 0.2629 0.66283 0.78872 0.0
O94 O 0.31297 0.82994 0.83992 0.0
O95 O 0.25576 0.75683 0.91938 0.0
C96 C 0.10636 0.60082 0.8839 0.0
O97 O 0.10438 0.66875 0.90568 0.0
O98 O 0.15218 0.59307 0.83748 0.0
C99 C 0.13035 0.80163 0.7469 0.0
Tb100 Tb 0.21299 0.30536 0.75557 0.0
C101 C 0.12856 0.15175 0.67765 0.0
Tb102 Tb 0.24061 0.16203 0.80926 0.0
O103 O 0.29506 0.30886 0.67441 0.0
O104 O 0.24748 0.21363 0.71166 0.0
O105 O 0.14046 0.22395 0.68299 0.0
C106 C 0.34992 0.10312 0.81076 0.0
O107 O 0.16339 0.11356 0.71926 0.0
C108 C 0.15805 0.22852 0.89053 0.0
C109 C 0.32491 0.31574 0.88727 0.0
O110 O 0.28954 0.06918 0.82615 0.0
O111 O 0.34717 0.16752 0.79372 0.0
O112 O 0.15849 0.15862 0.89045 0.0
O113 O 0.20609 0.25359 0.85296 0.0
O114 O 0.31304 0.24353 0.88189 0.0
O115 O 0.29012 0.35392 0.84562 0.0
C116 C 0.1037 0.36434 0.75406 0.0
O117 O 0.1641 0.39824 0.73868 0.0
O118 O 0.10643 0.29994 0.7711 0.0
C119 C 0.29549 0.23895 0.67417 0.0
Tb120 Tb 0.7392 0.29829 0.73822 0.0
C121 C 0.80855 0.31506 0.9004 0.0
Tb122 Tb 0.71457 0.16919 0.8265 0.0
O123 O 0.6958 0.36854 0.81807 0.0
O124 O 0.66389 0.25609 0.80936 0.0
O125 O 0.80989 0.33996 0.83412 0.0
C126 C 0.65323 0.0712 0.90381 0.0
O127 O 0.775 0.24959 0.91128 0.0
C128 C 0.79007 0.15268 0.71473 0.0
C129 C 0.64505 0.15263 0.66435 0.0
O130 O 0.7196 0.08859 0.90437 0.0
O131 O 0.62271 0.11236 0.86511 0.0
O132 O 0.75786 0.09898 0.74638 0.0
O133 O 0.7897 0.21131 0.75539 0.0
O134 O 0.64376 0.12771 0.73063 0.0
O135 O 0.67864 0.21806 0.65343 0.0
C136 C 0.80074 0.39611 0.66085 0.0
O137 O 0.73436 0.37885 0.66029 0.0
O138 O 0.83116 0.35489 0.69958 0.0
C139 C 0.66357 0.31489 0.84977 0.0
Tb140 Tb 0.71891 0.68475 0.71947 0.0
C141 C 0.81851 0.84266 0.70794 0.0
Tb142 Tb 0.73475 0.78271 0.84526 0.0
O143 O 0.61415 0.69943 0.69463 0.0
O144 O 0.68758 0.78803 0.73723 0.0
O145 O 0.79918 0.77301 0.68179 0.0
C146 C 0.6812 0.83544 0.96803 0.0
O147 O 0.79215 0.86394 0.7727 0.0
C148 C 0.82858 0.69837 0.84995 0.0
C149 C 0.63508 0.62486 0.85679 0.0
O150 O 0.74584 0.83222 0.96361 0.0
O151 O 0.65094 0.81924 0.90136 0.0
O152 O 0.83954 0.76799 0.86969 0.0
O153 O 0.76588 0.67937 0.82752 0.0
O154 O 0.65436 0.69453 0.88289 0.0
O155 O 0.66152 0.60355 0.79208 0.0
C156 C 0.77272 0.6321 0.59686 0.0
O157 O 0.70798 0.63483 0.60125 0.0
O158 O 0.80299 0.64873 0.66348 0.0
C159 C 0.62496 0.76902 0.71453 0.0
C160 C 0.8127 0.14299 0.63848 0.0
C161 C 0.84707 0.13299 0.38707 0.0
C162 C 0.8776 0.85144 0.44292 0.0
Mg163 Mg 0.93514 0.1498 0.54203 0.0
O164 O 0.91204 0.05155 0.55598 0.0
Mg165 Mg 0.81998 -0.00115 0.51207 0.0
Mg166 Mg -0.02316 -0.01622 0.53239 0.0
O167 O 0.04155 0.91594 0.50876 0.0
Mg168 Mg 0.01845 0.81764 0.52261 0.0
Mg169 Mg 0.13363 0.96857 0.55257 0.0
C170 C 0.07592 0.116 0.62199 0.0
C171 C 0.10226 0.07069 0.41325 0.0
O172 O 0.78392 0.08447 0.59709 0.0
O173 O 0.8694 0.18111 0.62478 0.0
O174 O 0.81398 0.07399 0.40823 0.0
O175 O 0.90029 0.16765 0.42669 0.0
O176 O 0.03808 0.15748 0.59412 0.0
O177 O 0.06258 0.04649 0.6123 0.0
C178 C 0.85134 0.89685 0.6515 0.0
O179 O 0.91563 0.90749 0.63408 0.0
O180 O 0.80941 0.92502 0.61231 0.0
O181 O 0.16968 0.88315 0.46741 0.0
O182 O 0.08418 0.78654 0.4397 0.0
O183 O 0.13968 0.89337 0.65631 0.0
C184 C 0.14086 0.82469 0.42597 0.0
O185 O 0.05339 0.79968 0.63791 0.0
O186 O 0.91539 0.80987 0.47072 0.0
C187 C 0.10663 0.83436 0.6775 0.0
O188 O 0.8912 0.92095 0.45262 0.0
O189 O 0.03798 0.06006 0.43069 0.0
O190 O 0.14418 0.04249 0.45241 0.0
C191 C 0.31196 0.13925 1.02927 0.0
C192 C 0.41443 0.08389 0.83255 0.0
C193 C 0.36658 0.83711 0.96211 0.0
Mg194 Mg 0.46404 0.15074 0.98954 0.0
O195 O 0.42431 0.05735 1.01686 0.0
Mg196 Mg 0.34672 -0.00733 0.95262 0.0
Mg197 Mg 0.477 0.98367 0.03228 0.0
O198 O 0.52963 0.90995 0.04768 0.0
Mg199 Mg 0.48979 0.81658 0.07501 0.0
Mg200 Mg 0.60716 0.97459 0.11203 0.0
C201 C 0.58733 0.1303 0.10238 0.0
C202 C 0.61726 0.02581 0.95319 0.0
O203 O 0.29489 0.09242 0.97184 0.0
O204 O 0.37302 0.1764 0.04052 0.0
O205 O 0.40988 0.02302 0.85697 0.0
O206 O 0.45794 0.13666 0.86621 0.0
O207 O 0.56512 0.17165 0.05725 0.0
O208 O 0.55208 0.06817 0.11122 0.0
C209 C 0.33674 0.94143 0.11144 0.0
O210 O 0.40212 0.94943 0.11682 0.0
O211 O 0.3024 0.95696 0.05527 0.0
O212 O 0.65884 0.87474 0.09306 0.0
O213 O 0.58086 0.79081 1.02416 0.0
O214 O 0.54381 0.94435 0.20756 0.0
C215 C 0.64191 0.82799 0.03555 0.0
O216 O 0.49579 0.8307 0.19834 0.0
O217 O 0.3887 0.79571 1.00725 0.0
C218 C 0.53921 0.88351 0.23206 0.0
O219 O 0.40197 0.89918 0.95333 0.0
O220 O 0.55188 0.01784 0.9478 0.0
O221 O 0.6516 0.01026 1.00937 0.0
C222 C 0.83197 0.6927 0.12364 0.0
C223 C 0.86469 0.65256 0.89579 0.0
C224 C 0.85872 0.35304 0.95876 0.0
Mg225 Mg 0.95616 0.66042 0.03972 0.0
O226 O 0.92494 0.56478 0.06156 0.0
Mg227 Mg 0.83142 0.52426 1.01939 0.0
Mg228 Mg -0.02307 0.48386 0.0323 0.0
O229 O 0.02879 0.40288 1.00302 0.0
Mg230 Mg -0.00259 0.30724 1.02485 0.0
Mg231 Mg 0.12229 0.44325 0.04524 0.0
C232 C 0.09488 0.61461 0.10603 0.0
C233 C 0.07948 0.54354 0.92348 0.0
O234 O 0.80174 0.62775 0.09619 0.0
O235 O 0.89397 0.71752 0.11131 0.0
O236 O 0.82937 0.59594 0.9184 0.0
O237 O 0.92262 0.68173 0.92877 0.0
O238 O 0.06073 0.65885 0.07748 0.0
O239 O 0.07276 0.5449 0.10521 0.0
C240 C 0.8744 0.4241 0.14116 0.0
O241 O 0.93464 0.42647 0.12125 0.0
O242 O 0.83095 0.45886 0.11423 0.0
O243 O 0.1519 0.33978 0.96842 0.0
O244 O 0.05957 0.25013 0.95324 0.0
O245 O 0.12427 0.37153 0.14618 0.0
C246 C 0.12159 0.27488 0.94094 0.0
O247 O 0.03098 0.28577 0.13572 0.0
O248 O 0.89273 0.3087 0.98736 0.0
C249 C 0.08891 0.31489 0.16872 0.0
O250 O 0.88116 0.42268 0.95952 0.0
O251 O 0.01923 0.54124 0.94335 0.0
O252 O 0.12288 0.50873 0.95044 0.0
C253 C 0.3127 0.64299 0.13848 0.0
C254 C 0.34707 0.63299 0.88707 0.0
C255 C 0.3776 0.35144 0.94292 0.0
Mg256 Mg 0.43514 0.6498 0.04203 0.0
O257 O 0.41204 0.55155 0.05598 0.0
Mg258 Mg 0.31998 0.49885 1.01207 0.0
Mg259 Mg 0.47684 0.48377 0.03239 0.0
O260 O 0.54155 0.41594 1.00876 0.0
Mg261 Mg 0.51845 0.31764 1.02261 0.0
Mg262 Mg 0.63363 0.46857 0.05257 0.0
C263 C 0.57592 0.616 0.12199 0.0
C264 C 0.60226 0.57069 0.91324 0.0
O265 O 0.28392 0.58447 0.09709 0.0
O266 O 0.3694 0.68111 0.12478 0.0
O267 O 0.31398 0.57399 0.90823 0.0
O268 O 0.40029 0.66765 0.92669 0.0
O269 O 0.53808 0.65748 0.09412 0.0
O270 O 0.56258 0.54649 0.1123 0.0
C271 C 0.35134 0.39685 0.1515 0.0
O272 O 0.41563 0.40748 0.13408 0.0
O273 O 0.30941 0.42502 0.11231 0.0
O274 O 0.66968 0.38315 0.96741 0.0
O275 O 0.58418 0.28654 0.9397 0.0
O276 O 0.63968 0.39337 0.15631 0.0
C277 C 0.64086 0.32469 0.92597 0.0
O278 O 0.55339 0.29968 0.13791 0.0
O279 O 0.41539 0.30987 0.97072 0.0
C280 C 0.60663 0.33436 0.1775 0.0
O281 O 0.3912 0.42095 0.95262 0.0
O282 O 0.53798 0.56006 0.93069 0.0
O283 O 0.64419 0.54249 0.95241 0.0
C284 C 0.81196 0.63925 0.52927 0.0
C285 C 0.91444 0.58389 0.33255 0.0
C286 C 0.86658 0.33711 0.4621 0.0
Mg287 Mg 0.96404 0.65074 0.48954 0.0
O288 O 0.92432 0.55735 0.51686 0.0
Mg289 Mg 0.84672 0.49267 0.45262 0.0
Mg290 Mg -0.023 0.48367 0.53227 0.0
O291 O 0.02963 0.40995 0.54768 0.0
Mg292 Mg -0.01021 0.31658 0.57501 0.0
Mg293 Mg 0.10716 0.47459 0.61203 0.0
C294 C 0.08733 0.6303 0.60238 0.0
C295 C 0.11726 0.52581 0.45319 0.0
O296 O 0.79489 0.59242 0.47184 0.0
O297 O 0.87302 0.6764 0.54052 0.0
O298 O 0.90988 0.52302 0.35697 0.0
O299 O 0.95794 0.63666 0.36621 0.0
O300 O 0.06512 0.67165 0.55725 0.0
O301 O 0.05209 0.56817 0.61122 0.0
C302 C 0.83674 0.44143 0.61144 0.0
O303 O 0.90213 0.44943 0.61682 0.0
O304 O 0.8024 0.45696 0.55527 0.0
O305 O 0.15885 0.37474 0.59306 0.0
O306 O 0.08087 0.29081 0.52416 0.0
O307 O 0.04381 0.44435 0.70756 0.0
C308 C 0.14191 0.32799 0.53556 0.0
O309 O -0.00421 0.3307 0.69834 0.0
O310 O 0.8887 0.29571 0.50725 0.0
C311 C 0.03921 0.38351 0.73206 0.0
O312 O 0.90197 0.39918 0.45333 0.0
O313 O 0.05188 0.51784 0.4478 0.0
O314 O 0.1516 0.51026 0.50937 0.0
C315 C 0.33197 0.1927 0.62364 0.0
C316 C 0.36469 0.15256 0.39579 0.0
C317 C 0.35872 0.85304 0.45876 0.0
Mg318 Mg 0.45616 0.16042 0.53972 0.0
O319 O 0.42494 0.06478 0.56156 0.0
Mg320 Mg 0.33142 0.02426 0.51939 0.0
Mg321 Mg 0.47693 -0.01614 0.5323 0.0
O322 O 0.52879 0.90288 0.50302 0.0
Mg323 Mg 0.49741 0.80724 0.52485 0.0
Mg324 Mg 0.62229 0.94325 0.54524 0.0
C325 C 0.59488 0.11461 0.60603 0.0
C326 C 0.57949 0.04354 0.42348 0.0
O327 O 0.30174 0.12775 0.59619 0.0
O328 O 0.39397 0.21752 0.61131 0.0
O329 O 0.32937 0.09594 0.4184 0.0
O330 O 0.42262 0.18173 0.42877 0.0
O331 O 0.56073 0.15885 0.57748 0.0
O332 O 0.57276 0.0449 0.60521 0.0
C333 C 0.3744 0.9241 0.64116 0.0
O334 O 0.43464 0.92647 0.62125 0.0
O335 O 0.33095 0.95886 0.61423 0.0
O336 O 0.6519 0.83978 0.46842 0.0
O337 O 0.55957 0.75013 0.45324 0.0
O338 O 0.62427 0.87153 0.64618 0.0
C339 C 0.62159 0.77488 0.44094 0.0
O340 O 0.53098 0.78577 0.63572 0.0
O341 O 0.39273 0.8087 0.48736 0.0
C342 C 0.58891 0.81489 0.66872 0.0
O343 O 0.38116 0.92268 0.45952 0.0
O344 O 0.51923 0.04124 0.44335 0.0
O345 O 0.62288 0.00873 0.45044 0.0
loop_
_geom_bond_atom_site_label_1
_geom_bond_atom_site_label_2
_geom_bond_distance
_geom_bond_site_symmetry_2
_ccdc_geom_bond_type
Tb0 O3 2.453 . S
Tb0 O4 2.596 . S
Tb0 O5 2.374 . S
Tb0 O13 2.343 . S
Tb0 O15 2.353 . S
Tb0 O17 2.427 . S
Tb0 O18 2.513 . S
C1 O5 1.251 . S
C1 O7 1.263 . S
Tb2 O4 2.343 . S
Tb2 O7 2.353 . S
Tb2 O10 2.427 . S
Tb2 O11 2.513 . S
Tb2 O12 2.453 . S
Tb2 O13 2.596 . S
Tb2 O14 2.374 . S
O3 Tb0 2.453 . S
O3 C19 1.245 . S
O4 Tb0 2.596 . S
O4 Tb2 2.343 . S
O4 C19 1.259 . S
O5 Tb0 2.374 . S
O5 C1 1.251 . S
C6 O10 1.275 . S
C6 O11 1.246 . S
O7 C1 1.263 . S
O7 Tb2 2.353 . S
C8 O12 1.245 . S
C8 O13 1.259 . S
C9 O14 1.250 . S
C9 O15 1.263 . S
O10 Tb2 2.427 . S
O10 C6 1.275 . S
O11 Tb2 2.513 . S
O11 C6 1.246 . S
O12 Tb2 2.453 . S
O12 C8 1.245 . S
O13 Tb0 2.343 . S
O13 Tb2 2.596 . S
O13 C8 1.259 . S
O14 Tb2 2.374 . S
O14 C9 1.250 . S
O15 Tb0 2.353 . S
O15 C9 1.263 . S
C16 O17 1.275 . S
C16 O18 1.246 . S
O17 Tb0 2.427 . S
O17 C16 1.275 . S
O18 Tb0 2.513 . S
O18 C16 1.246 . S
C19 O3 1.245 . S
C19 O4 1.259 . S
Tb20 O23 2.453 . S
Tb20 O24 2.596 . S
Tb20 O25 2.374 . S
Tb20 O33 2.343 . S
Tb20 O35 2.353 . S
Tb20 O37 2.427 . S
Tb20 O38 2.513 . S
C21 O25 1.251 . S
C21 O27 1.263 . S
Tb22 O24 2.343 . S
Tb22 O27 2.353 . S
Tb22 O30 2.427 . S
Tb22 O31 2.513 . S
Tb22 O32 2.453 . S
Tb22 O33 2.596 . S
Tb22 O34 2.374 . S
O23 Tb20 2.453 . S
O23 C39 1.245 . S
O24 Tb20 2.596 . S
O24 Tb22 2.343 . S
O24 C39 1.259 . S
O25 Tb20 2.374 . S
O25 C21 1.251 . S
C26 O30 1.275 . S
C26 O31 1.246 . S
O27 C21 1.263 . S
O27 Tb22 2.353 . S
C28 O32 1.245 . S
C28 O33 1.259 . S
C29 O34 1.250 . S
C29 O35 1.263 . S
O30 Tb22 2.427 . S
O30 C26 1.275 . S
O31 Tb22 2.513 . S
O31 C26 1.246 . S
O32 Tb22 2.453 . S
O32 C28 1.245 . S
O33 Tb20 2.343 . S
O33 Tb22 2.596 . S
O33 C28 1.259 . S
O34 Tb22 2.374 . S
O34 C29 1.250 . S
O35 Tb20 2.353 . S
O35 C29 1.263 . S
C36 O37 1.275 . S
C36 O38 1.246 . S
O37 Tb20 2.427 . S
O37 C36 1.275 . S
O38 Tb20 2.513 . S
O38 C36 1.246 . S
C39 O23 1.245 . S
C39 O24 1.259 . S
Tb40 O43 2.453 . S
Tb40 O44 2.596 . S
Tb40 O45 2.374 . S
Tb40 O53 2.343 . S
Tb40 O55 2.353 . S
Tb40 O57 2.427 . S
Tb40 O58 2.513 . S
C41 O45 1.251 . S
C41 O47 1.263 . S
Tb42 O44 2.343 . S
Tb42 O47 2.353 . S
Tb42 O50 2.427 . S
Tb42 O51 2.513 . S
Tb42 O52 2.453 . S
Tb42 O53 2.596 . S
Tb42 O54 2.374 . S
O43 Tb40 2.453 . S
O43 C59 1.245 . S
O44 Tb40 2.596 . S
O44 Tb42 2.343 . S
O44 C59 1.259 . S
O45 Tb40 2.374 . S
O45 C41 1.251 . S
C46 O50 1.275 . S
C46 O51 1.246 . S
O47 C41 1.263 . S
O47 Tb42 2.353 . S
C48 O52 1.245 . S
C48 O53 1.259 . S
C49 O54 1.250 . S
C49 O55 1.263 . S
O50 Tb42 2.427 . S
O50 C46 1.275 . S
O51 Tb42 2.513 . S
O51 C46 1.246 . S
O52 Tb42 2.453 . S
O52 C48 1.245 . S
O53 Tb40 2.343 . S
O53 Tb42 2.596 . S
O53 C48 1.259 . S
O54 Tb42 2.374 . S
O54 C49 1.250 . S
O55 Tb40 2.353 . S
O55 C49 1.263 . S
C56 O57 1.275 . S
C56 O58 1.246 . S
O57 Tb40 2.427 . S
O57 C56 1.275 . S
O58 Tb40 2.513 . S
O58 C56 1.246 . S
C59 O43 1.245 . S
C59 O44 1.259 . S
Tb60 O63 2.453 . S
Tb60 O64 2.596 . S
Tb60 O65 2.374 . S
Tb60 O73 2.343 . S
Tb60 O75 2.353 . S
Tb60 O77 2.427 . S
Tb60 O78 2.513 . S
C61 O65 1.251 . S
C61 O67 1.263 . S
Tb62 O64 2.343 . S
Tb62 O67 2.353 . S
Tb62 O70 2.427 . S
Tb62 O71 2.513 . S
Tb62 O72 2.453 . S
Tb62 O73 2.596 . S
Tb62 O74 2.374 . S
O63 Tb60 2.453 . S
O63 C79 1.245 . S
O64 Tb60 2.596 . S
O64 Tb62 2.343 . S
O64 C79 1.259 . S
O65 Tb60 2.374 . S
O65 C61 1.251 . S
C66 O70 1.275 . S
C66 O71 1.246 . S
O67 C61 1.263 . S
O67 Tb62 2.353 . S
C68 O72 1.245 . S
C68 O73 1.259 . S
C69 O74 1.250 . S
C69 O75 1.263 . S
O70 Tb62 2.427 . S
O70 C66 1.275 . S
O71 Tb62 2.513 . S
O71 C66 1.246 . S
O72 Tb62 2.453 . S
O72 C68 1.245 . S
O73 Tb60 2.343 . S
O73 Tb62 2.596 . S
O73 C68 1.259 . S
O74 Tb62 2.374 . S
O74 C69 1.250 . S
O75 Tb60 2.353 . S
O75 C69 1.263 . S
C76 O77 1.275 . S
C76 O78 1.246 . S
O77 Tb60 2.427 . S
O77 C76 1.275 . S
O78 Tb60 2.513 . S
O78 C76 1.246 . S
C79 O63 1.245 . S
C79 O64 1.259 . S
Tb80 O83 2.453 . S
Tb80 O84 2.596 . S
Tb80 O85 2.374 . S
Tb80 O93 2.343 . S
Tb80 O95 2.353 . S
Tb80 O97 2.427 . S
Tb80 O98 2.513 . S
C81 O85 1.251 . S
C81 O87 1.263 . S
Tb82 O84 2.343 . S
Tb82 O87 2.353 . S
Tb82 O90 2.427 . S
Tb82 O91 2.513 . S
Tb82 O92 2.453 . S
Tb82 O93 2.596 . S
Tb82 O94 2.374 . S
O83 Tb80 2.453 . S
O83 C99 1.245 . S
O84 Tb80 2.596 . S
O84 Tb82 2.343 . S
O84 C99 1.259 . S
O85 Tb80 2.374 . S
O85 C81 1.251 . S
C86 O90 1.275 . S
C86 O91 1.246 . S
O87 C81 1.263 . S
O87 Tb82 2.353 . S
C88 O92 1.245 . S
C88 O93 1.259 . S
C89 O94 1.250 . S
C89 O95 1.263 . S
O90 Tb82 2.427 . S
O90 C86 1.275 . S
O91 Tb82 2.513 . S
O91 C86 1.246 . S
O92 Tb82 2.453 . S
O92 C88 1.245 . S
O93 Tb80 2.343 . S
O93 Tb82 2.596 . S
O93 C88 1.259 . S
O94 Tb82 2.374 . S
O94 C89 1.250 . S
O95 Tb80 2.353 . S
O95 C89 1.263 . S
C96 O97 1.275 . S
C96 O98 1.246 . S
O97 Tb80 2.427 . S
O97 C96 1.275 . S
O98 Tb80 2.513 . S
O98 C96 1.246 . S
C99 O83 1.245 . S
C99 O84 1.259 . S
Tb100 O103 2.453 . S
Tb100 O104 2.596 . S
Tb100 O105 2.374 . S
Tb100 O113 2.343 . S
Tb100 O115 2.353 . S
Tb100 O117 2.427 . S
Tb100 O118 2.513 . S
C101 O105 1.251 . S
C101 O107 1.263 . S
Tb102 O104 2.343 . S
Tb102 O107 2.353 . S
Tb102 O110 2.427 . S
Tb102 O111 2.513 . S
Tb102 O112 2.453 . S
Tb102 O113 2.596 . S
Tb102 O114 2.374 . S
O103 Tb100 2.453 . S
O103 C119 1.245 . S
O104 Tb100 2.596 . S
O104 Tb102 2.343 . S
O104 C119 1.259 . S
O105 Tb100 2.374 . S
O105 C101 1.251 . S
C106 O110 1.275 . S
C106 O111 1.246 . S
O107 C101 1.263 . S
O107 Tb102 2.353 . S
C108 O112 1.245 . S
C108 O113 1.259 . S
C109 O114 1.250 . S
C109 O115 1.263 . S
O110 Tb102 2.427 . S
O110 C106 1.275 . S
O111 Tb102 2.513 . S
O111 C106 1.246 . S
O112 Tb102 2.453 . S
O112 C108 1.245 . S
O113 Tb100 2.343 . S
O113 Tb102 2.596 . S
O113 C108 1.259 . S
O114 Tb102 2.374 . S
O114 C109 1.250 . S
O115 Tb100 2.353 . S
O115 C109 1.263 . S
C116 O117 1.275 . S
C116 O118 1.246 . S
O117 Tb100 2.427 . S
O117 C116 1.275 . S
O118 Tb100 2.513 . S
O118 C116 1.246 . S
C119 O103 1.245 . S
C119 O104 1.259 . S
Tb120 O123 2.453 . S
Tb120 O124 2.596 . S
Tb120 O125 2.374 . S
Tb120 O133 2.343 . S
Tb120 O135 2.353 . S
Tb120 O137 2.427 . S
Tb120 O138 2.513 . S
C121 O125 1.251 . S
C121 O127 1.263 . S
Tb122 O124 2.343 . S
Tb122 O127 2.353 . S
Tb122 O130 2.427 . S
Tb122 O131 2.513 . S
Tb122 O132 2.453 . S
Tb122 O133 2.596 . S
Tb122 O134 2.374 . S
O123 Tb120 2.453 . S
O123 C139 1.245 . S
O124 Tb120 2.596 . S
O124 Tb122 2.343 . S
O124 C139 1.259 . S
O125 Tb120 2.374 . S
O125 C121 1.251 . S
C126 O130 1.275 . S
C126 O131 1.246 . S
O127 C121 1.263 . S
O127 Tb122 2.353 . S
C128 O132 1.245 . S
C128 O133 1.259 . S
C129 O134 1.250 . S
C129 O135 1.263 . S
O130 Tb122 2.427 . S
O130 C126 1.275 . S
O131 Tb122 2.513 . S
O131 C126 1.246 . S
O132 Tb122 2.453 . S
O132 C128 1.245 . S
O133 Tb120 2.343 . S
O133 Tb122 2.596 . S
O133 C128 1.259 . S
O134 Tb122 2.374 . S
O134 C129 1.250 . S
O135 Tb120 2.353 . S
O135 C129 1.263 . S
C136 O137 1.275 . S
C136 O138 1.246 . S
O137 Tb120 2.427 . S
O137 C136 1.275 . S
O138 Tb120 2.513 . S
O138 C136 1.246 . S
C139 O123 1.245 . S
C139 O124 1.259 . S
Tb140 O143 2.453 . S
Tb140 O144 2.596 . S
Tb140 O145 2.374 . S
Tb140 O153 2.343 . S
Tb140 O155 2.353 . S
Tb140 O157 2.427 . S
Tb140 O158 2.513 . S
C141 O145 1.251 . S
C141 O147 1.263 . S
Tb142 O144 2.343 . S
Tb142 O147 2.353 . S
Tb142 O150 2.427 . S
Tb142 O151 2.513 . S
Tb142 O152 2.453 . S
Tb142 O153 2.596 . S
Tb142 O154 2.374 . S
O143 Tb140 2.453 . S
O143 C159 1.245 . S
O144 Tb140 2.596 . S
O144 Tb142 2.343 . S
O144 C159 1.259 . S
O145 Tb140 2.374 . S
O145 C141 1.251 . S
C146 O150 1.275 . S
C146 O151 1.246 . S
O147 C141 1.263 . S
O147 Tb142 2.353 . S
C148 O152 1.245 . S
C148 O153 1.259 . S
C149 O154 1.250 . S
C149 O155 1.263 . S
O150 Tb142 2.427 . S
O150 C146 1.275 . S
O151 Tb142 2.513 . S
O151 C146 1.246 . S
O152 Tb142 2.453 . S
O152 C148 1.245 . S
O153 Tb140 2.343 . S
O153 Tb142 2.596 . S
O153 C148 1.259 . S
O154 Tb142 2.374 . S
O154 C149 1.250 . S
O155 Tb140 2.353 . S
O155 C149 1.263 . S
C156 O157 1.275 . S
C156 O158 1.246 . S
O157 Tb140 2.427 . S
O157 C156 1.275 . S
O158 Tb140 2.513 . S
O158 C156 1.246 . S
C159 O143 1.245 . S
C159 O144 1.259 . S
C160 O172 1.241 . S
C160 O173 1.280 . S
C161 O174 1.277 . S
C161 O175 1.245 . S
C162 O186 1.247 . S
C162 O188 1.289 . S
Mg163 O164 1.926 . S
Mg163 O173 1.984 . S
Mg163 O175 1.988 . S
Mg163 O176 2.061 1_655 S
O164 Mg163 1.926 . S
O164 Mg165 1.987 . S
O164 Mg166 1.915 1_655 S
Mg165 O164 1.987 . S
Mg165 O172 2.044 . S
Mg165 O174 2.043 . S
Mg165 O180 2.037 1_545 S
Mg165 O188 2.236 1_545 S
Mg166 O164 1.915 1_455 S
Mg166 O167 1.919 1_545 S
Mg166 O177 2.108 . S
Mg166 O179 2.078 1_445 S
Mg166 O188 2.105 1_445 S
Mg166 O189 2.079 . S
O167 Mg166 1.919 1_565 S
O167 Mg168 1.926 . S
O167 Mg169 1.986 . S
Mg168 O167 1.926 . S
Mg168 O182 1.984 . S
Mg168 O185 1.988 . S
Mg168 O186 2.061 1_455 S
Mg169 O167 1.986 . S
Mg169 O177 2.239 1_565 S
Mg169 O181 2.041 . S
Mg169 O183 2.040 . S
Mg169 O190 2.039 1_565 S
C170 O176 1.247 . S
C170 O177 1.289 . S
C171 O189 1.245 . S
C171 O190 1.274 . S
O172 C160 1.241 . S
O172 Mg165 2.044 . S
O173 C160 1.280 . S
O173 Mg163 1.984 . S
O174 C161 1.277 . S
O174 Mg165 2.043 . S
O175 C161 1.245 . S
O175 Mg163 1.988 . S
O176 Mg163 2.061 1_455 S
O176 C170 1.247 . S
O177 Mg166 2.108 . S
O177 Mg169 2.239 1_545 S
O177 C170 1.289 . S
C178 O179 1.245 . S
C178 O180 1.274 . S
O179 Mg166 2.078 1_665 S
O179 C178 1.245 . S
O180 Mg165 2.037 1_565 S
O180 C178 1.274 . S
O181 Mg169 2.041 . S
O181 C184 1.241 . S
O182 Mg168 1.984 . S
O182 C184 1.280 . S
O183 Mg169 2.040 . S
O183 C187 1.277 . S
C184 O181 1.241 . S
C184 O182 1.280 . S
O185 Mg168 1.988 . S
O185 C187 1.245 . S
O186 C162 1.247 . S
O186 Mg168 2.061 1_655 S
C187 O183 1.277 . S
C187 O185 1.245 . S
O188 C162 1.289 . S
O188 Mg165 2.236 1_565 S
O188 Mg166 2.105 1_665 S
O189 Mg166 2.079 . S
O189 C171 1.245 . S
O190 Mg169 2.039 1_545 S
O190 C171 1.274 . S
C191 O203 1.241 . S
C191 O204 1.280 . S
C192 O205 1.277 . S
C192 O206 1.245 . S
C193 O217 1.247 . S
C193 O219 1.289 . S
Mg194 O195 1.926 . S
Mg194 O204 1.984 . S
Mg194 O206 1.988 1_554 S
Mg194 O207 2.061 . S
O195 Mg194 1.926 . S
O195 Mg196 1.987 1_554 S
O195 Mg197 1.917 . S
Mg196 O195 1.987 1_556 S
Mg196 O203 2.044 1_556 S
Mg196 O205 2.043 . S
Mg196 O211 2.037 1_546 S
Mg196 O219 2.236 1_545 S
Mg197 O195 1.917 . S
Mg197 O198 1.917 1_544 S
Mg197 O208 2.106 . S
Mg197 O210 2.079 1_545 S
Mg197 O219 2.106 1_544 S
Mg197 O220 2.079 1_554 S
O198 Mg197 1.917 1_566 S
O198 Mg199 1.926 . S
O198 Mg200 1.986 1_556 S
Mg199 O198 1.926 . S
Mg199 O213 1.984 . S
Mg199 O216 1.988 1_556 S
Mg199 O217 2.061 . S
Mg200 O198 1.986 1_554 S
Mg200 O208 2.239 1_565 S
Mg200 O212 2.041 1_554 S
Mg200 O214 2.040 . S
Mg200 O221 2.039 1_564 S
C201 O207 1.247 . S
C201 O208 1.289 . S
C202 O220 1.245 . S
C202 O221 1.274 . S
O203 C191 1.241 . S
O203 Mg196 2.044 1_554 S
O204 C191 1.280 . S
O204 Mg194 1.984 . S
O205 C192 1.277 . S
O205 Mg196 2.043 . S
O206 C192 1.245 . S
O206 Mg194 1.988 1_556 S
O207 Mg194 2.061 . S
O207 C201 1.247 . S
O208 Mg197 2.106 . S
O208 Mg200 2.239 1_545 S
O208 C201 1.289 . S
C209 O210 1.245 . S
C209 O211 1.274 . S
O210 Mg197 2.079 1_565 S
O210 C209 1.245 . S
O211 Mg196 2.037 1_564 S
O211 C209 1.274 . S
O212 Mg200 2.041 1_556 S
O212 C215 1.241 . S
O213 Mg199 1.984 . S
O213 C215 1.280 . S
O214 Mg200 2.040 . S
O214 C218 1.277 . S
C215 O212 1.241 . S
C215 O213 1.280 . S
O216 Mg199 1.988 1_554 S
O216 C218 1.245 . S
O217 C193 1.247 . S
O217 Mg199 2.061 . S
C218 O214 1.277 . S
C218 O216 1.245 . S
O219 C193 1.289 . S
O219 Mg196 2.236 1_565 S
O219 Mg197 2.106 1_566 S
O220 Mg197 2.079 1_556 S
O220 C202 1.245 . S
O221 Mg200 2.039 1_546 S
O221 C202 1.274 . S
C222 O234 1.241 . S
C222 O235 1.280 . S
C223 O236 1.277 . S
C223 O237 1.245 . S
C224 O248 1.247 . S
C224 O250 1.289 . S
Mg225 O226 1.926 . S
Mg225 O235 1.984 . S
Mg225 O237 1.988 1_554 S
Mg225 O238 2.061 1_655 S
O226 Mg225 1.926 . S
O226 Mg227 1.986 1_554 S
O226 Mg228 1.915 1_655 S
Mg227 O226 1.986 1_556 S
Mg227 O234 2.042 1_556 S
Mg227 O236 2.041 . S
Mg227 O242 2.038 1_556 S
Mg227 O250 2.238 . S
Mg228 O226 1.915 1_455 S
Mg228 O229 1.919 1_554 S
Mg228 O239 2.108 . S
Mg228 O241 2.078 1_455 S
Mg228 O250 2.105 1_454 S
Mg228 O251 2.079 1_554 S
O229 Mg228 1.919 1_556 S
O229 Mg230 1.926 . S
O229 Mg231 1.986 1_556 S
Mg230 O229 1.926 . S
Mg230 O244 1.984 . S
Mg230 O247 1.988 1_556 S
Mg230 O248 2.061 1_455 S
Mg231 O229 1.986 1_554 S
Mg231 O239 2.238 . S
Mg231 O243 2.042 1_554 S
Mg231 O245 2.041 . S
Mg231 O252 2.038 1_554 S
C232 O238 1.247 . S
C232 O239 1.289 . S
C233 O251 1.245 . S
C233 O252 1.274 . S
O234 C222 1.241 . S
O234 Mg227 2.042 1_554 S
O235 C222 1.280 . S
O235 Mg225 1.984 . S
O236 C223 1.277 . S
O236 Mg227 2.041 . S
O237 C223 1.245 . S
O237 Mg225 1.988 1_556 S
O238 Mg225 2.061 1_455 S
O238 C232 1.247 . S
O239 Mg228 2.108 . S
O239 Mg231 2.238 . S
O239 C232 1.289 . S
C240 O241 1.245 . S
C240 O242 1.274 . S
O241 Mg228 2.078 1_655 S
O241 C240 1.245 . S
O242 Mg227 2.038 1_554 S
O242 C240 1.274 . S
O243 Mg231 2.042 1_556 S
O243 C246 1.241 . S
O244 Mg230 1.984 . S
O244 C246 1.280 . S
O245 Mg231 2.041 . S
O245 C249 1.277 . S
C246 O243 1.241 . S
C246 O244 1.280 . S
O247 Mg230 1.988 1_554 S
O247 C249 1.245 . S
O248 C224 1.247 . S
O248 Mg230 2.061 1_655 S
C249 O245 1.277 . S
C249 O247 1.245 . S
O250 C224 1.289 . S
O250 Mg227 2.238 . S
O250 Mg228 2.105 1_656 S
O251 Mg228 2.079 1_556 S
O251 C233 1.245 . S
O252 Mg231 2.038 1_556 S
O252 C233 1.274 . S
C253 O265 1.241 . S
C253 O266 1.280 . S
C254 O267 1.277 . S
C254 O268 1.245 . S
C255 O279 1.247 . S
C255 O281 1.289 . S
Mg256 O257 1.926 . S
Mg256 O266 1.984 . S
Mg256 O268 1.988 1_554 S
Mg256 O269 2.061 . S
O257 Mg256 1.926 . S
O257 Mg258 1.986 1_554 S
O257 Mg259 1.917 . S
Mg258 O257 1.986 1_556 S
Mg258 O265 2.042 1_556 S
Mg258 O267 2.041 . S
Mg258 O273 2.038 1_556 S
Mg258 O281 2.238 . S
Mg259 O257 1.917 . S
Mg259 O260 1.917 1_554 S
Mg259 O270 2.106 . S
Mg259 O272 2.079 . S
Mg259 O281 2.106 1_554 S
Mg259 O282 2.079 1_554 S
O260 Mg259 1.917 1_556 S
O260 Mg261 1.926 . S
O260 Mg262 1.986 1_556 S
Mg261 O260 1.926 . S
Mg261 O275 1.984 . S
Mg261 O278 1.988 1_556 S
Mg261 O279 2.061 . S
Mg262 O260 1.986 1_554 S
Mg262 O270 2.238 . S
Mg262 O274 2.042 1_554 S
Mg262 O276 2.041 . S
Mg262 O283 2.038 1_554 S
C263 O269 1.247 . S
C263 O270 1.289 . S
C264 O282 1.245 . S
C264 O283 1.274 . S
O265 C253 1.241 . S
O265 Mg258 2.042 1_554 S
O266 C253 1.280 . S
O266 Mg256 1.984 . S
O267 C254 1.277 . S
O267 Mg258 2.041 . S
O268 C254 1.245 . S
O268 Mg256 1.988 1_556 S
O269 Mg256 2.061 . S
O269 C263 1.247 . S
O270 Mg259 2.106 . S
O270 Mg262 2.238 . S
O270 C263 1.289 . S
C271 O272 1.245 . S
C271 O273 1.274 . S
O272 Mg259 2.079 . S
O272 C271 1.245 . S
O273 Mg258 2.038 1_554 S
O273 C271 1.274 . S
O274 Mg262 2.042 1_556 S
O274 C277 1.241 . S
O275 Mg261 1.984 . S
O275 C277 1.280 . S
O276 Mg262 2.041 . S
O276 C280 1.277 . S
C277 O274 1.241 . S
C277 O275 1.280 . S
O278 Mg261 1.988 1_554 S
O278 C280 1.245 . S
O279 C255 1.247 . S
O279 Mg261 2.061 . S
C280 O276 1.277 . S
C280 O278 1.245 . S
O281 C255 1.289 . S
O281 Mg258 2.238 . S
O281 Mg259 2.106 1_556 S
O282 Mg259 2.079 1_556 S
O282 C264 1.245 . S
O283 Mg262 2.038 1_556 S
O283 C264 1.274 . S
C284 O296 1.241 . S
C284 O297 1.280 . S
C285 O298 1.277 . S
C285 O299 1.245 . S
C286 O310 1.247 . S
C286 O312 1.289 . S
Mg287 O288 1.926 . S
Mg287 O297 1.984 . S
Mg287 O299 1.988 . S
Mg287 O300 2.061 1_655 S
O288 Mg287 1.926 . S
O288 Mg289 1.986 . S
O288 Mg290 1.915 1_655 S
Mg289 O288 1.986 . S
Mg289 O296 2.042 . S
Mg289 O298 2.041 . S
Mg289 O304 2.038 . S
Mg289 O312 2.238 . S
Mg290 O288 1.915 1_455 S
Mg290 O291 1.919 . S
Mg290 O301 2.108 . S
Mg290 O303 2.078 1_455 S
Mg290 O312 2.105 1_455 S
Mg290 O313 2.079 . S
O291 Mg290 1.919 . S
O291 Mg292 1.926 . S
O291 Mg293 1.986 . S
Mg292 O291 1.926 . S
Mg292 O306 1.984 . S
Mg292 O309 1.988 . S
Mg292 O310 2.061 1_455 S
Mg293 O291 1.986 . S
Mg293 O301 2.238 . S
Mg293 O305 2.042 . S
Mg293 O307 2.041 . S
Mg293 O314 2.038 . S
C294 O300 1.247 . S
C294 O301 1.289 . S
C295 O313 1.245 . S
C295 O314 1.274 . S
O296 C284 1.241 . S
O296 Mg289 2.042 . S
O297 C284 1.280 . S
O297 Mg287 1.984 . S
O298 C285 1.277 . S
O298 Mg289 2.041 . S
O299 C285 1.245 . S
O299 Mg287 1.988 . S
O300 Mg287 2.061 1_455 S
O300 C294 1.247 . S
O301 Mg290 2.108 . S
O301 Mg293 2.238 . S
O301 C294 1.289 . S
C302 O303 1.245 . S
C302 O304 1.274 . S
O303 Mg290 2.078 1_655 S
O303 C302 1.245 . S
O304 Mg289 2.038 . S
O304 C302 1.274 . S
O305 Mg293 2.042 . S
O305 C308 1.241 . S
O306 Mg292 1.984 . S
O306 C308 1.280 . S
O307 Mg293 2.041 . S
O307 C311 1.277 . S
C308 O305 1.241 . S
C308 O306 1.280 . S
O309 Mg292 1.988 . S
O309 C311 1.245 . S
O310 C286 1.247 . S
O310 Mg292 2.061 1_655 S
C311 O307 1.277 . S
C311 O309 1.245 . S
O312 C286 1.289 . S
O312 Mg289 2.238 . S
O312 Mg290 2.105 1_655 S
O313 Mg290 2.079 . S
O313 C295 1.245 . S
O314 Mg293 2.038 . S
O314 C295 1.274 . S
C315 O327 1.241 . S
C315 O328 1.280 . S
C316 O329 1.277 . S
C316 O330 1.245 . S
C317 O341 1.247 . S
C317 O343 1.289 . S
Mg318 O319 1.926 . S
Mg318 O328 1.984 . S
Mg318 O330 1.988 . S
Mg318 O331 2.061 . S
O319 Mg318 1.926 . S
O319 Mg320 1.987 . S
O319 Mg321 1.917 . S
Mg320 O319 1.987 . S
Mg320 O327 2.044 . S
Mg320 O329 2.043 . S
Mg320 O335 2.037 1_545 S
Mg320 O343 2.236 1_545 S
Mg321 O319 1.917 . S
Mg321 O322 1.917 1_545 S
Mg321 O332 2.106 . S
Mg321 O334 2.079 1_545 S
Mg321 O343 2.106 1_545 S
Mg321 O344 2.079 . S
O322 Mg321 1.917 1_565 S
O322 Mg323 1.926 . S
O322 Mg324 1.986 . S
Mg323 O322 1.926 . S
Mg323 O337 1.984 . S
Mg323 O340 1.988 . S
Mg323 O341 2.061 . S
Mg324 O322 1.986 . S
Mg324 O332 2.239 1_565 S
Mg324 O336 2.041 . S
Mg324 O338 2.040 . S
Mg324 O345 2.039 1_565 S
C325 O331 1.247 . S
C325 O332 1.289 . S
C326 O344 1.245 . S
C326 O345 1.274 . S
O327 C315 1.241 . S
O327 Mg320 2.044 . S
O328 C315 1.280 . S
O328 Mg318 1.984 . S
O329 C316 1.277 . S
O329 Mg320 2.043 . S
O330 C316 1.245 . S
O330 Mg318 1.988 . S
O331 Mg318 2.061 . S
O331 C325 1.247 . S
O332 Mg321 2.106 . S
O332 Mg324 2.239 1_545 S
O332 C325 1.289 . S
C333 O334 1.245 . S
C333 O335 1.274 . S
O334 Mg321 2.079 1_565 S
O334 C333 1.245 . S
O335 Mg320 2.037 1_565 S
O335 C333 1.274 . S
O336 Mg324 2.041 . S
O336 C339 1.241 . S
O337 Mg323 1.984 . S
O337 C339 1.280 . S
O338 Mg324 2.040 . S
O338 C342 1.277 . S
C339 O336 1.241 . S
C339 O337 1.280 . S
O340 Mg323 1.988 . S
O340 C342 1.245 . S
O341 C317 1.247 . S
O341 Mg323 2.061 . S
C342 O338 1.277 . S
C342 O340 1.245 . S
O343 C317 1.289 . S
O343 Mg320 2.236 1_565 S
O343 Mg321 2.106 1_565 S
O344 Mg321 2.079 . S
O344 C326 1.245 . S
O345 Mg324 2.039 1_545 S
O345 C326 1.274 . S
C171 C9 2.337 . S
C161 C28 2.225 . S
C162 C49 1.053 . S
C79 C184 2.229 . S
C99 C187 2.226 . S
C170 C101 1.053 . S
C128 C160 2.227 . S
C141 C178 2.338 . S
C191 C16 1.331 . S
C26 C240 0.967 . S
C218 C56 1.298 . S
C232 C69 0.858 . S
C89 C193 0.882 . S
C246 C108 2.215 . S
C126 C202 1.017 . S
C148 C223 2.270 . S
C19 C249 2.270 . S
C96 C233 0.967 . S
C192 C106 1.299 . S
C224 C121 0.858 . S
C146 C215 1.331 . S
C59 C222 2.214 . S
C209 C76 1.019 . S
C21 C201 0.882 . S
C149 C264 2.338 . S
C88 C254 2.226 . S
C255 C109 1.053 . S
C277 C139 2.228 . S
C39 C280 2.225 . S
C263 C41 1.053 . S
C68 C253 2.228 . S
C1 C271 2.338 . S
C156 C284 1.331 . S
C333 C86 0.967 . S
C116 C311 1.298 . S
C129 C325 0.857 . S
C286 C29 0.882 . S
C48 C339 2.215 . S
C295 C66 1.018 . S
C316 C8 2.270 . S
C342 C159 2.271 . S
C36 C326 0.966 . S
C46 C285 1.299 . S
C317 C61 0.858 . S
C6 C308 1.331 . S
C119 C315 2.214 . S
C302 C136 1.018 . S
C294 C81 0.882 . S
