# Generated by pormake.
# Topology gar, (4,6)-cn, num edge types: 1
# Building blocks:
#     Node 0, Type 0, BuildingBlock: QUQFOY_clean_sbu_3, # of connection points: 4
#     Node 1, Type 0, BuildingBlock: QUQFOY_clean_sbu_3, # of connection points: 4
#     Node 2, Type 0, BuildingBlock: QUQFOY_clean_sbu_3, # of connection points: 4
#     Node 3, Type 0, BuildingBlock: QUQFOY_clean_sbu_3, # of connection points: 4
#     Node 4, Type 0, BuildingBlock: QUQFOY_clean_sbu_3, # of connection points: 4
#     Node 5, Type 0, BuildingBlock: QUQFOY_clean_sbu_3, # of connection points: 4
#     Node 6, Type 0, BuildingBlock: QUQFOY_clean_sbu_3, # of connection points: 4
#     Node 7, Type 0, BuildingBlock: QUQFOY_clean_sbu_3, # of connection points: 4
#     Node 8, Type 0, BuildingBlock: QUQFOY_clean_sbu_3, # of connection points: 4
#     Node 9, Type 0, BuildingBlock: QUQFOY_clean_sbu_3, # of connection points: 4
#     Node 10, Type 0, BuildingBlock: QUQFOY_clean_sbu_3, # of connection points: 4
#     Node 11, Type 0, BuildingBlock: QUQFOY_clean_sbu_3, # of connection points: 4
#     Node 12, Type 0, BuildingBlock: QUQFOY_clean_sbu_3, # of connection points: 4
#     Node 13, Type 0, BuildingBlock: QUQFOY_clean_sbu_3, # of connection points: 4
#     Node 14, Type 0, BuildingBlock: QUQFOY_clean_sbu_3, # of connection points: 4
#     Node 15, Type 0, BuildingBlock: QUQFOY_clean_sbu_3, # of connection points: 4
#     Node 16, Type 0, BuildingBlock: QUQFOY_clean_sbu_3, # of connection points: 4
#     Node 17, Type 0, BuildingBlock: QUQFOY_clean_sbu_3, # of connection points: 4
#     Node 18, Type 0, BuildingBlock: QUQFOY_clean_sbu_3, # of connection points: 4
#     Node 19, Type 0, BuildingBlock: QUQFOY_clean_sbu_3, # of connection points: 4
#     Node 20, Type 0, BuildingBlock: QUQFOY_clean_sbu_3, # of connection points: 4
#     Node 21, Type 0, BuildingBlock: QUQFOY_clean_sbu_3, # of connection points: 4
#     Node 22, Type 0, BuildingBlock: QUQFOY_clean_sbu_3, # of connection points: 4
#     Node 23, Type 0, BuildingBlock: QUQFOY_clean_sbu_3, # of connection points: 4
#     Node 24, Type 1, BuildingBlock: BETDEL_clean_sbu_0, # of connection points: 6
#     Node 25, Type 1, BuildingBlock: BETDEL_clean_sbu_0, # of connection points: 6
#     Node 26, Type 1, BuildingBlock: BETDEL_clean_sbu_0, # of connection points: 6
#     Node 27, Type 1, BuildingBlock: BETDEL_clean_sbu_0, # of connection points: 6
#     Node 28, Type 1, BuildingBlock: BETDEL_clean_sbu_0, # of connection points: 6
#     Node 29, Type 1, BuildingBlock: BETDEL_clean_sbu_0, # of connection points: 6
#     Node 30, Type 1, BuildingBlock: BETDEL_clean_sbu_0, # of connection points: 6
#     Node 31, Type 1, BuildingBlock: BETDEL_clean_sbu_0, # of connection points: 6
#     Node 32, Type 1, BuildingBlock: BETDEL_clean_sbu_0, # of connection points: 6
#     Node 33, Type 1, BuildingBlock: BETDEL_clean_sbu_0, # of connection points: 6
#     Node 34, Type 1, BuildingBlock: BETDEL_clean_sbu_0, # of connection points: 6
#     Node 35, Type 1, BuildingBlock: BETDEL_clean_sbu_0, # of connection points: 6
#     Node 36, Type 1, BuildingBlock: BETDEL_clean_sbu_0, # of connection points: 6
#     Node 37, Type 1, BuildingBlock: BETDEL_clean_sbu_0, # of connection points: 6
#     Node 38, Type 1, BuildingBlock: BETDEL_clean_sbu_0, # of connection points: 6
#     Node 39, Type 1, BuildingBlock: BETDEL_clean_sbu_0, # of connection points: 6
#     Edge 40, Type (0, 1), BuildingBlock: CIFDUS_clean_linker_0, # of connection points: 2
#     Edge 41, Type (0, 1), BuildingBlock: CIFDUS_clean_linker_0, # of connection points: 2
#     Edge 42, Type (0, 1), BuildingBlock: CIFDUS_clean_linker_0, # of connection points: 2
#     Edge 43, Type (0, 1), BuildingBlock: CIFDUS_clean_linker_0, # of connection points: 2
#     Edge 44, Type (0, 1), BuildingBlock: CIFDUS_clean_linker_0, # of connection points: 2
#     Edge 45, Type (0, 1), BuildingBlock: CIFDUS_clean_linker_0, # of connection points: 2
#     Edge 46, Type (0, 1), BuildingBlock: CIFDUS_clean_linker_0, # of connection points: 2
#     Edge 47, Type (0, 1), BuildingBlock: CIFDUS_clean_linker_0, # of connection points: 2
#     Edge 48, Type (0, 1), BuildingBlock: CIFDUS_clean_linker_0, # of connection points: 2
#     Edge 49, Type (0, 1), BuildingBlock: CIFDUS_clean_linker_0, # of connection points: 2
#     Edge 50, Type (0, 1), BuildingBlock: CIFDUS_clean_linker_0, # of connection points: 2
#     Edge 51, Type (0, 1), BuildingBlock: CIFDUS_clean_linker_0, # of connection points: 2
#     Edge 52, Type (0, 1), BuildingBlock: CIFDUS_clean_linker_0, # of connection points: 2
#     Edge 53, Type (0, 1), BuildingBlock: CIFDUS_clean_linker_0, # of connection points: 2
#     Edge 54, Type (0, 1), BuildingBlock: CIFDUS_clean_linker_0, # of connection points: 2
#     Edge 55, Type (0, 1), BuildingBlock: CIFDUS_clean_linker_0, # of connection points: 2
#     Edge 56, Type (0, 1), BuildingBlock: CIFDUS_clean_linker_0, # of connection points: 2
#     Edge 57, Type (0, 1), BuildingBlock: CIFDUS_clean_linker_0, # of connection points: 2
#     Edge 58, Type (0, 1), BuildingBlock: CIFDUS_clean_linker_0, # of connection points: 2
#     Edge 59, Type (0, 1), BuildingBlock: CIFDUS_clean_linker_0, # of connection points: 2
#     Edge 60, Type (0, 1), BuildingBlock: CIFDUS_clean_linker_0, # of connection points: 2
#     Edge 61, Type (0, 1), BuildingBlock: CIFDUS_clean_linker_0, # of connection points: 2
#     Edge 62, Type (0, 1), BuildingBlock: CIFDUS_clean_linker_0, # of connection points: 2
#     Edge 63, Type (0, 1), BuildingBlock: CIFDUS_clean_linker_0, # of connection points: 2
#     Edge 64, Type (0, 1), BuildingBlock: CIFDUS_clean_linker_0, # of connection points: 2
#     Edge 65, Type (0, 1), BuildingBlock: CIFDUS_clean_linker_0, # of connection points: 2
#     Edge 66, Type (0, 1), BuildingBlock: CIFDUS_clean_linker_0, # of connection points: 2
#     Edge 67, Type (0, 1), BuildingBlock: CIFDUS_clean_linker_0, # of connection points: 2
#     Edge 68, Type (0, 1), BuildingBlock: CIFDUS_clean_linker_0, # of connection points: 2
#     Edge 69, Type (0, 1), BuildingBlock: CIFDUS_clean_linker_0, # of connection points: 2
#     Edge 70, Type (0, 1), BuildingBlock: CIFDUS_clean_linker_0, # of connection points: 2
#     Edge 71, Type (0, 1), BuildingBlock: CIFDUS_clean_linker_0, # of connection points: 2
#     Edge 72, Type (0, 1), BuildingBlock: CIFDUS_clean_linker_0, # of connection points: 2
#     Edge 73, Type (0, 1), BuildingBlock: CIFDUS_clean_linker_0, # of connection points: 2
#     Edge 74, Type (0, 1), BuildingBlock: CIFDUS_clean_linker_0, # of connection points: 2
#     Edge 75, Type (0, 1), BuildingBlock: CIFDUS_clean_linker_0, # of connection points: 2
#     Edge 76, Type (0, 1), BuildingBlock: CIFDUS_clean_linker_0, # of connection points: 2
#     Edge 77, Type (0, 1), BuildingBlock: CIFDUS_clean_linker_0, # of connection points: 2
#     Edge 78, Type (0, 1), BuildingBlock: CIFDUS_clean_linker_0, # of connection points: 2
#     Edge 79, Type (0, 1), BuildingBlock: CIFDUS_clean_linker_0, # of connection points: 2
#     Edge 80, Type (0, 1), BuildingBlock: CIFDUS_clean_linker_0, # of connection points: 2
#     Edge 81, Type (0, 1), BuildingBlock: CIFDUS_clean_linker_0, # of connection points: 2
#     Edge 82, Type (0, 1), BuildingBlock: CIFDUS_clean_linker_0, # of connection points: 2
#     Edge 83, Type (0, 1), BuildingBlock: CIFDUS_clean_linker_0, # of connection points: 2
#     Edge 84, Type (0, 1), BuildingBlock: CIFDUS_clean_linker_0, # of connection points: 2
#     Edge 85, Type (0, 1), BuildingBlock: CIFDUS_clean_linker_0, # of connection points: 2
#     Edge 86, Type (0, 1), BuildingBlock: CIFDUS_clean_linker_0, # of connection points: 2
#     Edge 87, Type (0, 1), BuildingBlock: CIFDUS_clean_linker_0, # of connection points: 2
#     Edge 88, Type (0, 1), BuildingBlock: CIFDUS_clean_linker_0, # of connection points: 2
#     Edge 89, Type (0, 1), BuildingBlock: CIFDUS_clean_linker_0, # of connection points: 2
#     Edge 90, Type (0, 1), BuildingBlock: CIFDUS_clean_linker_0, # of connection points: 2
#     Edge 91, Type (0, 1), BuildingBlock: CIFDUS_clean_linker_0, # of connection points: 2
#     Edge 92, Type (0, 1), BuildingBlock: CIFDUS_clean_linker_0, # of connection points: 2
#     Edge 93, Type (0, 1), BuildingBlock: CIFDUS_clean_linker_0, # of connection points: 2
#     Edge 94, Type (0, 1), BuildingBlock: CIFDUS_clean_linker_0, # of connection points: 2
#     Edge 95, Type (0, 1), BuildingBlock: CIFDUS_clean_linker_0, # of connection points: 2
#     Edge 96, Type (0, 1), BuildingBlock: CIFDUS_clean_linker_0, # of connection points: 2
#     Edge 97, Type (0, 1), BuildingBlock: CIFDUS_clean_linker_0, # of connection points: 2
#     Edge 98, Type (0, 1), BuildingBlock: CIFDUS_clean_linker_0, # of connection points: 2
#     Edge 99, Type (0, 1), BuildingBlock: CIFDUS_clean_linker_0, # of connection points: 2
#     Edge 100, Type (0, 1), BuildingBlock: CIFDUS_clean_linker_0, # of connection points: 2
#     Edge 101, Type (0, 1), BuildingBlock: CIFDUS_clean_linker_0, # of connection points: 2
#     Edge 102, Type (0, 1), BuildingBlock: CIFDUS_clean_linker_0, # of connection points: 2
#     Edge 103, Type (0, 1), BuildingBlock: CIFDUS_clean_linker_0, # of connection points: 2
#     Edge 104, Type (0, 1), BuildingBlock: CIFDUS_clean_linker_0, # of connection points: 2
#     Edge 105, Type (0, 1), BuildingBlock: CIFDUS_clean_linker_0, # of connection points: 2
#     Edge 106, Type (0, 1), BuildingBlock: CIFDUS_clean_linker_0, # of connection points: 2
#     Edge 107, Type (0, 1), BuildingBlock: CIFDUS_clean_linker_0, # of connection points: 2
#     Edge 108, Type (0, 1), BuildingBlock: CIFDUS_clean_linker_0, # of connection points: 2
#     Edge 109, Type (0, 1), BuildingBlock: CIFDUS_clean_linker_0, # of connection points: 2
#     Edge 110, Type (0, 1), BuildingBlock: CIFDUS_clean_linker_0, # of connection points: 2
#     Edge 111, Type (0, 1), BuildingBlock: CIFDUS_clean_linker_0, # of connection points: 2
#     Edge 112, Type (0, 1), BuildingBlock: CIFDUS_clean_linker_0, # of connection points: 2
#     Edge 113, Type (0, 1), BuildingBlock: CIFDUS_clean_linker_0, # of connection points: 2
#     Edge 114, Type (0, 1), BuildingBlock: CIFDUS_clean_linker_0, # of connection points: 2
#     Edge 115, Type (0, 1), BuildingBlock: CIFDUS_clean_linker_0, # of connection points: 2
#     Edge 116, Type (0, 1), BuildingBlock: CIFDUS_clean_linker_0, # of connection points: 2
#     Edge 117, Type (0, 1), BuildingBlock: CIFDUS_clean_linker_0, # of connection points: 2
#     Edge 118, Type (0, 1), BuildingBlock: CIFDUS_clean_linker_0, # of connection points: 2
#     Edge 119, Type (0, 1), BuildingBlock: CIFDUS_clean_linker_0, # of connection points: 2
#     Edge 120, Type (0, 1), BuildingBlock: CIFDUS_clean_linker_0, # of connection points: 2
#     Edge 121, Type (0, 1), BuildingBlock: CIFDUS_clean_linker_0, # of connection points: 2
#     Edge 122, Type (0, 1), BuildingBlock: CIFDUS_clean_linker_0, # of connection points: 2
#     Edge 123, Type (0, 1), BuildingBlock: CIFDUS_clean_linker_0, # of connection points: 2
#     Edge 124, Type (0, 1), BuildingBlock: CIFDUS_clean_linker_0, # of connection points: 2
#     Edge 125, Type (0, 1), BuildingBlock: CIFDUS_clean_linker_0, # of connection points: 2
#     Edge 126, Type (0, 1), BuildingBlock: CIFDUS_clean_linker_0, # of connection points: 2
#     Edge 127, Type (0, 1), BuildingBlock: CIFDUS_clean_linker_0, # of connection points: 2
#     Edge 128, Type (0, 1), BuildingBlock: CIFDUS_clean_linker_0, # of connection points: 2
#     Edge 129, Type (0, 1), BuildingBlock: CIFDUS_clean_linker_0, # of connection points: 2
#     Edge 130, Type (0, 1), BuildingBlock: CIFDUS_clean_linker_0, # of connection points: 2
#     Edge 131, Type (0, 1), BuildingBlock: CIFDUS_clean_linker_0, # of connection points: 2
#     Edge 132, Type (0, 1), BuildingBlock: CIFDUS_clean_linker_0, # of connection points: 2
#     Edge 133, Type (0, 1), BuildingBlock: CIFDUS_clean_linker_0, # of connection points: 2
#     Edge 134, Type (0, 1), BuildingBlock: CIFDUS_clean_linker_0, # of connection points: 2
#     Edge 135, Type (0, 1), BuildingBlock: CIFDUS_clean_linker_0, # of connection points: 2
# Relax obj value: 0.142
# Max RMSD: 0.278
# Mean RMSD: 0.141
data_MOF--net-gar--node1-QUQFOY_clean_sbu_3--node2-BETDEL_clean_sbu_0--edge1-CIFDUS_clean_linker_0
_symmetry_space_group_name_H-M    P1
_symmetry_Int_Tables_number       1
_symmetry_cell_setting            triclinic
loop_
_symmetry_equiv_pos_as_xyz
'x, y, z'
_cell_length_a     49.686482
_cell_length_b     47.963014
_cell_length_c     48.998363
_cell_angle_alpha  96.443172
_cell_angle_beta   92.224163
_cell_angle_gamma 101.11921
loop_
_atom_site_label
_atom_site_type_symbol
_atom_site_fract_x
_atom_site_fract_y
_atom_site_fract_z
_atom_type_partial_charge
C0 C 0.98692 0.28843 0.35009 0.0
O1 O 0.00755 0.30036 0.33815 0.0
Cd2 Cd 0.05483 0.30705 0.35104 0.0
O3 O 0.99002 0.2768 0.37202 0.0
Cd4 Cd 0.03067 0.26963 0.4017 0.0
C5 C 0.04939 0.34276 0.41497 0.0
O6 O 0.0559 0.26049 0.36183 0.0
O7 O 0.07879 0.26129 0.39994 0.0
O8 O 0.00457 0.22354 0.41295 0.0
C9 C 0.07783 0.25752 0.37391 0.0
O10 O 0.05728 0.34327 0.39059 0.0
C11 C 0.01362 0.22732 0.43802 0.0
O12 O 0.03907 0.31925 0.42377 0.0
O13 O 0.02927 0.25121 0.44636 0.0
C14 C 0.96225 0.76201 0.68295 0.0
O15 O 0.97855 0.74675 0.69092 0.0
Cd16 Cd 0.01987 0.73808 0.67264 0.0
O17 O 0.96656 0.77496 0.6616 0.0
Cd18 Cd 0.00243 0.78035 0.6262 0.0
C19 C -0.00338 0.70896 0.60544 0.0
O20 O 0.0391 0.78264 0.65967 0.0
O21 O 0.05199 0.78247 0.61841 0.0
O22 O 0.00193 0.83093 0.62869 0.0
C23 C 0.05838 0.7824 0.64367 0.0
O24 O 0.007 0.70804 0.62944 0.0
C25 C -0.00218 0.83161 0.60308 0.0
O26 O 0.99077 0.73215 0.59856 0.0
O27 O -0.00546 0.80784 0.58774 0.0
C28 C 0.49558 0.78811 0.83911 0.0
O29 O 0.51711 0.80003 0.82852 0.0
Cd30 Cd 0.5631 0.80312 0.84473 0.0
O31 O 0.49711 0.77379 0.8595 0.0
Cd32 Cd 0.53467 0.7589 0.88778 0.0
C33 C 0.55367 0.82969 0.9115 0.0
O34 O 0.56287 0.75443 0.84925 0.0
O35 O 0.58264 0.75048 0.88792 0.0
O36 O 0.50656 0.71098 0.88934 0.0
C37 C 0.58369 0.74966 0.86207 0.0
O38 O 0.56243 0.83374 0.8879 0.0
C39 C 0.5123 0.71022 0.91475 0.0
O40 O 0.54296 0.80479 0.91699 0.0
O41 O 0.52723 0.73259 0.92778 0.0
C42 C 0.44455 0.26189 0.17105 0.0
O43 O 0.4558 0.24338 0.18111 0.0
Cd44 Cd 0.49688 0.22835 0.16915 0.0
O45 O 0.45462 0.27433 0.15095 0.0
Cd46 Cd 0.49571 0.27388 0.12281 0.0
C47 C 0.48371 0.20317 0.09965 0.0
O48 O 0.52466 0.2721 0.16243 0.0
O49 O 0.54449 0.26707 0.12465 0.0
O50 O 0.5047 0.32538 0.1228 0.0
C51 C 0.54601 0.26832 0.15067 0.0
O52 O 0.48959 0.19966 0.12442 0.0
C53 C 0.50134 0.3252 0.09699 0.0
O54 O 0.4818 0.22778 0.0932 0.0
O55 O 0.49505 0.30083 0.08267 0.0
C56 C -0.00486 0.76786 0.19426 0.0
O57 O 0.01249 0.75482 0.20426 0.0
Cd58 Cd 0.05815 0.75486 0.19015 0.0
O59 O 0.00087 0.78221 0.17405 0.0
Cd60 Cd 0.04031 0.79465 0.14404 0.0
C61 C 0.04322 0.72471 0.12281 0.0
O62 O 0.07222 0.80366 0.18355 0.0
O63 O 0.09151 0.81091 0.14599 0.0
O64 O 0.01854 0.83548 0.13833 0.0
C65 C 0.09421 0.81065 0.17176 0.0
O66 O 0.05364 0.7232 0.14665 0.0
C67 C 0.02552 0.83776 0.11389 0.0
O68 O 0.03505 0.74719 0.11731 0.0
O69 O 0.03929 0.82 0.10342 0.0
C70 C 0.43732 0.74979 0.32024 0.0
O71 O 0.45635 0.76786 0.3118 0.0
Cd72 Cd 0.50145 0.78494 0.33137 0.0
O73 O 0.44145 0.73812 0.34183 0.0
Cd74 Cd 0.4827 0.74224 0.37509 0.0
C75 C 0.48795 0.8137 0.39516 0.0
O76 O 0.5161 0.74208 0.34015 0.0
O77 O 0.53331 0.75182 0.38195 0.0
O78 O 0.47945 0.69189 0.38082 0.0
C79 C 0.53701 0.74575 0.35669 0.0
O80 O 0.4962 0.81794 0.37145 0.0
C81 C 0.47416 0.69436 0.40597 0.0
O82 O 0.48152 0.78847 0.40181 0.0
O83 O 0.47099 0.71878 0.41663 0.0
C84 C 0.48855 0.26939 0.69256 0.0
O85 O 0.50485 0.25561 0.70324 0.0
Cd86 Cd 0.55172 0.25608 0.69493 0.0
O87 O 0.49595 0.28487 0.67344 0.0
Cd88 Cd 0.53804 0.29638 0.64632 0.0
C89 C 0.54095 0.22549 0.62789 0.0
O90 O 0.56471 0.30496 0.68891 0.0
O91 O 0.58964 0.31249 0.65504 0.0
O92 O 0.51882 0.3373 0.63308 0.0
C93 C 0.58847 0.31198 0.68075 0.0
O94 O 0.55017 0.22406 0.6522 0.0
C95 C 0.52913 0.33693 0.60971 0.0
O96 O 0.53361 0.2481 0.62155 0.0
O97 O 0.54325 0.31796 0.60367 0.0
C98 C 0.93696 0.24297 0.82218 0.0
O99 O 0.95552 0.2604 0.81226 0.0
Cd100 Cd 0.00165 0.27955 0.82703 0.0
O101 O 0.94176 0.23289 0.84456 0.0
Cd102 Cd 0.98525 0.24032 0.87553 0.0
C103 C 0.9912 0.31262 0.88971 0.0
O104 O 0.01491 0.23671 0.83726 0.0
O105 O 0.03572 0.24483 0.87732 0.0
O106 O 0.97113 0.19287 0.89105 0.0
C107 C 0.03712 0.23973 0.85161 0.0
O108 O -0.00077 0.31543 0.86567 0.0
C109 C 0.98051 0.20149 0.91572 0.0
O110 O 0.98425 0.28805 0.89761 0.0
O111 O 0.99009 0.22804 0.92168 0.0
C112 C 0.46594 0.04572 0.3135 0.0
O113 O 0.4772 0.03577 0.29277 0.0
Cd114 Cd 0.45509 0.02143 0.24824 0.0
O115 O 0.44123 0.04941 0.31146 0.0
Cd116 Cd 0.40473 0.04309 0.2741 0.0
C117 C 0.4009 0.97264 0.26657 0.0
O118 O 0.43466 0.06085 0.2398 0.0
O119 O 0.39646 0.03404 0.2237 0.0
O120 O 0.3894 0.0852 0.29527 0.0
C121 C 0.41836 0.05083 0.21912 0.0
O122 O 0.42108 0.97713 0.25127 0.0
C123 C 0.36404 0.07515 0.28915 0.0
O124 O 0.39244 0.99322 0.27987 0.0
O125 O 0.35761 0.04981 0.27697 0.0
C126 C 0.29253 0.10429 0.50529 0.0
O127 O 0.27302 0.08811 0.51526 0.0
Cd128 Cd 0.22679 0.09482 0.51646 0.0
O129 O 0.28833 0.12633 0.49473 0.0
Cd130 Cd 0.24851 0.14963 0.48547 0.0
C131 C 0.23634 0.16247 0.55273 0.0
O132 O 0.21534 0.10515 0.47182 0.0
O133 O 0.19787 0.14252 0.48018 0.0
O134 O 0.26867 0.15768 0.44166 0.0
C135 C 0.19404 0.11589 0.47231 0.0
O136 O 0.22575 0.13585 0.55038 0.0
C137 C 0.26557 0.18334 0.44188 0.0
O138 O 0.24893 0.17352 0.5331 0.0
O139 O 0.25487 0.19387 0.46278 0.0
C140 C 0.09034 0.00345 0.82407 0.0
O141 O 0.08103 0.0223 0.81246 0.0
Cd142 Cd 0.091 0.03811 0.76852 0.0
O143 O 0.10917 0.99169 0.81355 0.0
Cd144 Cd 0.1387 -4e-05 0.77295 0.0
C145 C 0.15755 0.0733 0.78199 0.0
O146 O 0.10056 -0.00099 0.73894 0.0
O147 O 0.14111 0.00894 0.72427 0.0
O148 O 0.15036 0.95235 0.76164 0.0
C149 C 0.11538 0.00544 0.7192 0.0
O150 O 0.1328 0.07397 0.77486 0.0
C151 C 0.17497 0.9595 0.77185 0.0
O152 O 0.16469 0.04967 0.78529 0.0
O153 O 0.18259 0.98514 0.78305 0.0
C154 C 0.28894 0.95332 0.9829 0.0
O155 O 0.2773 0.96354 0.96374 0.0
Cd156 Cd 0.2294 0.95514 0.94796 0.0
O157 O 0.27533 0.93556 -0.00271 0.0
Cd158 Cd 0.22806 0.90992 0.00199 0.0
C159 C 0.21946 0.88194 0.93271 0.0
O160 O 0.21017 0.94821 0.9898 0.0
O161 O 0.19713 0.93776 0.02895 0.0
O162 O 0.25262 0.89443 0.03863 0.0
C163 C 0.1968 0.95391 0.0102 0.0
O164 O 0.22341 0.90684 0.92502 0.0
C165 C 0.23357 0.87351 0.04224 0.0
O166 O 0.21902 0.87817 0.95804 0.0
O167 O 0.21114 0.87007 0.02764 0.0
C168 C 0.30773 0.43033 0.02767 0.0
O169 O 0.29372 0.44243 0.01215 0.0
Cd170 Cd 0.24745 0.42568 -0.00409 0.0
O171 O 0.29701 0.4073 0.03734 0.0
Cd172 Cd 0.25119 0.37323 0.03589 0.0
C173 C 0.25904 0.35982 0.96644 0.0
O174 O 0.22704 0.41219 0.03641 0.0
O175 O 0.20046 0.37087 0.03027 0.0
O176 O 0.26421 0.3717 0.08446 0.0
C177 C 0.2028 0.39785 0.03303 0.0
O178 O 0.25461 0.38487 0.96487 0.0
C179 C 0.25435 0.34533 0.08511 0.0
O180 O 0.25919 0.34955 0.98943 0.0
O181 O 0.24339 0.33124 0.06255 0.0
C182 C 0.80657 0.08479 0.00682 0.0
O183 O 0.78865 0.07419 0.02251 0.0
Cd184 Cd 0.74918 0.09297 0.03197 0.0
O185 O 0.80507 0.10803 -0.00307 0.0
Cd186 Cd 0.77344 0.143 -0.0013 0.0
C187 C 0.77649 0.16004 0.06643 0.0
O188 O 0.73578 0.10313 0.98762 0.0
O189 O 0.72327 0.14207 0.00261 0.0
O190 O 0.77681 0.1873 0.97728 0.0
C191 C 0.71646 0.11633 0.99163 0.0
O192 O 0.76131 0.13532 0.06591 0.0
C193 C 0.7873 0.17811 0.95574 0.0
O194 O 0.78713 0.16806 0.04472 0.0
O195 O 0.79178 0.15286 0.95441 0.0
C196 C 0.0733 0.50124 0.24499 0.0
O197 O 0.05883 0.5044 0.22404 0.0
Cd198 Cd 0.07551 0.50842 0.17953 0.0
O199 O 0.09807 0.49787 0.24325 0.0
Cd200 Cd 0.13174 0.49283 0.20785 0.0
C201 C 0.13183 0.56225 0.20012 0.0
O202 O 0.09722 0.46827 0.17409 0.0
O203 O 0.13654 0.48048 0.15807 0.0
O204 O 0.14922 0.45935 0.23392 0.0
C205 C 0.11145 0.46867 0.15333 0.0
O206 O 0.10861 0.55477 0.18657 0.0
C207 C 0.1741 0.46809 0.22872 0.0
O208 O 0.1433 0.54394 0.21033 0.0
O209 O 0.1792 0.48873 0.21441 0.0
C210 C 0.80061 0.92345 0.52073 0.0
O211 O 0.78547 0.93583 0.50674 0.0
Cd212 Cd 0.73935 0.91715 0.49157 0.0
O213 O 0.7909 0.89981 0.52987 0.0
Cd214 Cd 0.74426 0.8675 0.53113 0.0
C215 C 0.74702 0.85024 0.4622 0.0
O216 O 0.72066 0.90713 0.53416 0.0
O217 O 0.6937 0.86602 0.5279 0.0
O218 O 0.75622 0.86192 0.57911 0.0
C219 C 0.69634 0.89299 0.53212 0.0
O220 O 0.74393 0.87554 0.45949 0.0
C221 C 0.74668 0.83514 0.57687 0.0
O222 O 0.74758 0.84152 0.48578 0.0
O223 O 0.7367 0.82327 0.55321 0.0
C224 C 0.90629 0.00575 0.27773 0.0
O225 O 0.92279 -0.00212 0.26073 0.0
Cd226 Cd 0.91162 0.98682 0.21273 0.0
O227 O 0.88343 0.01119 0.2692 0.0
Cd228 Cd 0.85769 0.01254 0.22398 0.0
C229 C 0.85003 0.94057 0.21897 0.0
O230 O 0.89688 0.02701 0.19671 0.0
O231 O 0.85928 0.00726 0.17313 0.0
O232 O 0.84841 0.05864 0.24408 0.0
C233 C 0.88415 0.02001 0.17329 0.0
O234 O 0.8752 0.94461 0.21333 0.0
C235 C 0.82314 0.05368 0.23608 0.0
O236 O 0.83801 0.96159 0.2242 0.0
O237 O 0.8136 0.02938 0.22246 0.0
C238 C 0.30337 0.6013 0.50862 0.0
O239 O 0.28247 0.58843 0.51948 0.0
Cd240 Cd 0.24312 0.60821 0.5293 0.0
O241 O 0.30485 0.62682 0.50281 0.0
Cd242 Cd 0.27836 0.66586 0.50395 0.0
C243 C 0.27252 0.67049 0.57247 0.0
O244 O 0.23769 0.6315 0.49017 0.0
O245 O 0.23062 0.67407 0.50018 0.0
O246 O 0.30089 0.67263 0.46168 0.0
C247 C 0.22065 0.64787 0.49259 0.0
O248 O 0.25698 0.64579 0.56769 0.0
C249 C 0.30254 0.69948 0.4635 0.0
O250 O 0.28497 0.68245 0.55324 0.0
O251 O 0.29393 0.71133 0.48506 0.0
C252 C 0.41817 0.5169 0.7721 0.0
O253 O 0.43097 0.5047 0.75391 0.0
Cd254 Cd 0.41665 0.49841 0.70632 0.0
O255 O 0.39869 0.52903 0.76515 0.0
Cd256 Cd 0.37464 0.53933 0.72276 0.0
C257 C 0.3487 0.46842 0.71437 0.0
O258 O 0.4132 0.54448 0.6934 0.0
O259 O 0.37319 0.53764 0.67221 0.0
O260 O 0.37913 0.58884 0.74358 0.0
C261 C 0.3991 0.5432 0.67101 0.0
O262 O 0.37266 0.46547 0.70791 0.0
C263 C 0.35375 0.58947 0.74085 0.0
O264 O 0.34326 0.49309 0.72088 0.0
O265 O 0.33794 0.5667 0.72954 0.0
C266 C 0.57178 0.01037 0.7615 0.0
O267 O 0.56079 0.02009 0.74171 0.0
Cd268 Cd 0.57688 0.02176 0.6968 0.0
O269 O 0.59378 0.00051 0.75872 0.0
Cd270 Cd 0.62623 0.99462 0.72225 0.0
C271 C 0.63774 0.06635 0.71789 0.0
O272 O 0.58906 0.97568 0.68897 0.0
O273 O 0.62831 0.9827 0.67185 0.0
O274 O 0.64295 0.95782 0.74525 0.0
C275 C 0.60263 0.97365 0.6679 0.0
O276 O 0.61524 0.06345 0.70352 0.0
C277 C 0.66765 0.96604 0.73907 0.0
O278 O 0.64461 0.04509 0.72755 0.0
O279 O 0.67264 0.98736 0.72566 0.0
C280 C 0.79623 0.59624 0.99422 0.0
O281 O 0.77731 0.58002 0.00495 0.0
Cd282 Cd 0.73227 0.58885 0.01275 0.0
O283 O 0.79198 0.61919 0.98557 0.0
Cd284 Cd 0.7541 0.64552 0.98139 0.0
C285 C 0.75025 0.65591 0.05057 0.0
O286 O 0.71646 0.6049 0.97245 0.0
O287 O 0.70486 0.64555 0.98324 0.0
O288 O 0.76139 0.64992 0.93353 0.0
C289 C 0.69741 0.61875 0.97649 0.0
O290 O 0.7389 0.6295 0.04847 0.0
C291 C 0.76718 0.67705 0.93591 0.0
O292 O 0.75992 0.66736 0.02977 0.0
O293 O 0.76769 0.69019 0.96003 0.0
C294 C 0.97763 0.54362 0.80175 0.0
O295 O 0.9895 0.53389 0.78131 0.0
Cd296 Cd 0.9691 0.52164 0.73532 0.0
O297 O 0.95323 0.54803 0.79891 0.0
Cd298 Cd 0.91703 0.54462 0.76197 0.0
C299 C 0.91155 0.47307 0.74748 0.0
O300 O 0.94886 0.56155 0.72877 0.0
O301 O 0.907 0.54719 0.71283 0.0
O302 O 0.90527 0.58694 0.78681 0.0
C303 C 0.93154 0.55798 0.70849 0.0
O304 O 0.93369 0.47812 0.73502 0.0
C305 C 0.87949 0.57864 0.78191 0.0
O306 O 0.90229 0.49319 0.76074 0.0
O307 O 0.87115 0.55382 0.76897 0.0
C308 C 0.79959 0.44739 0.46186 0.0
O309 O 0.78574 0.45902 0.44564 0.0
Cd310 Cd 0.73655 0.45184 0.44114 0.0
O311 O 0.78786 0.4289 0.47661 0.0
Cd312 Cd 0.74212 0.40338 0.48634 0.0
C313 C 0.72318 0.37963 0.41842 0.0
O314 O 0.72963 0.44864 0.48824 0.0
O315 O 0.7001 0.41712 0.50479 0.0
O316 O 0.76905 0.39494 0.52577 0.0
C317 C 0.70678 0.44234 0.49856 0.0
O318 O 0.72291 0.40518 0.41376 0.0
C319 C 0.75315 0.37168 0.52936 0.0
O320 O 0.73003 0.37415 0.44223 0.0
O321 O 0.73211 0.36316 0.51281 0.0
C322 C 0.58777 0.49197 0.32388 0.0
O323 O 0.5733 0.50444 0.30925 0.0
Cd324 Cd 0.5843 0.5222 0.2667 0.0
O325 O 0.61003 0.48527 0.31543 0.0
Cd326 Cd 0.63554 0.48597 0.27103 0.0
C327 C 0.65246 0.55895 0.28078 0.0
O328 O 0.59637 0.48388 0.23922 0.0
O329 O 0.63547 0.49532 0.22206 0.0
O330 O 0.63492 0.43456 0.26651 0.0
C331 C 0.60951 0.49113 0.21868 0.0
O332 O 0.62689 0.55782 0.27554 0.0
C333 C 0.66072 0.43596 0.26691 0.0
O334 O 0.6619 0.53606 0.28192 0.0
O335 O 0.67559 0.46101 0.27008 0.0
Dy336 Dy 0.97324 0.00048 -0.00138 0.0
C337 C 0.08552 0.04599 0.03104 0.0
C338 C 0.91778 0.98889 0.98692 0.0
Dy339 Dy 0.02987 0.03274 0.02111 0.0
O340 O 0.9362 -0.00172 0.97035 0.0
O341 O 0.93 0.98376 0.00916 0.0
O342 O 0.99254 0.97731 0.9639 0.0
O343 O 0.01039 0.01908 0.98041 0.0
C344 C 0.01354 -0.00171 0.96368 0.0
C345 C 0.99054 0.03888 0.0555 0.0
O346 O 0.01683 0.06771 0.00058 0.0
O347 O 0.97061 0.04666 -0.00112 0.0
O348 O 0.06774 0.04347 0.04978 0.0
O349 O 0.07262 0.04272 0.00698 0.0
O350 O 0.01254 0.05838 0.05425 0.0
O351 O 0.992 0.01619 0.0401 0.0
O352 O 0.98447 0.96558 0.01974 0.0
O353 O 0.03094 0.98618 0.02433 0.0
C354 C 0.99057 0.06847 -0.00437 0.0
C355 C 0.01026 0.96448 0.02618 0.0
Dy356 Dy 0.25799 0.76923 0.21225 0.0
C357 C 0.28875 0.76863 0.32808 0.0
C358 C 0.23918 0.77528 0.16067 0.0
Dy359 Dy 0.26899 0.76942 0.27549 0.0
O360 O 0.26406 0.77324 0.16781 0.0
O361 O 0.22408 0.77293 0.18167 0.0
O362 O 0.29989 0.76067 0.20406 0.0
O363 O 0.28045 0.74651 0.23843 0.0
C364 C 0.30276 0.7496 0.22671 0.0
C365 C 0.22415 0.78827 0.26018 0.0
O366 O 0.30165 0.80569 0.2659 0.0
O367 O 0.28171 0.81354 0.22443 0.0
O368 O 0.27318 0.78568 0.32072 0.0
O369 O 0.29347 0.75211 0.30672 0.0
O370 O 0.22587 0.77508 0.28176 0.0
O371 O 0.24695 0.79258 0.24932 0.0
O372 O 0.2284 0.72975 0.21953 0.0
O373 O 0.24368 0.72523 0.26425 0.0
C374 C 0.30064 0.82101 0.24511 0.0
C375 C 0.2278 0.71557 0.24134 0.0
Dy376 Dy 0.54121 0.01486 0.50856 0.0
C377 C 0.42705 0.03655 0.50989 0.0
C378 C 0.58605 0.99182 0.5181 0.0
Dy379 Dy 0.47688 0.02089 0.51231 0.0
O380 O 0.5871 0.01863 0.51474 0.0
O381 O 0.56073 0.97806 0.51641 0.0
O382 O 0.54635 0.03024 0.46628 0.0
O383 O 0.50928 0.02562 0.48453 0.0
C384 C 0.52076 0.03287 0.46351 0.0
C385 C 0.49956 0.99654 0.55177 0.0
O386 O 0.47442 0.98389 0.47951 0.0
O387 O 0.51544 0.97146 0.49379 0.0
O388 O 0.43161 0.01294 0.51808 0.0
O389 O 0.44975 0.05162 0.50273 0.0
O390 O 0.4732 0.9912 0.54586 0.0
O391 O 0.51078 0.01605 0.53875 0.0
O392 O 0.54552 0.05638 0.5362 0.0
O393 O 0.50038 0.06441 0.53086 0.0
C394 C 0.49128 0.9655 0.47963 0.0
C395 C 0.52678 0.07282 0.53972 0.0
Dy396 Dy 0.22503 0.27285 0.75523 0.0
C397 C 0.34151 0.28276 0.74607 0.0
C398 C 0.17172 0.25954 0.76804 0.0
Dy399 Dy 0.28754 0.27209 0.75768 0.0
O400 O 0.18025 0.27508 0.74874 0.0
O401 O 0.19211 0.25121 0.7797 0.0
O402 O 0.23247 0.3161 0.73989 0.0
O403 O 0.2627 0.30453 0.76496 0.0
C404 C 0.25778 0.3229 0.75006 0.0
C405 C 0.25379 0.22244 0.76299 0.0
O406 O 0.28415 0.28916 0.80187 0.0
O407 O 0.23649 0.27581 0.80055 0.0
O408 O 0.33023 0.26282 0.76035 0.0
O409 O 0.32348 0.29724 0.73884 0.0
O410 O 0.27877 0.22897 0.77404 0.0
O411 O 0.24991 0.24093 0.74794 0.0
O412 O 0.22835 0.25326 0.71206 0.0
O413 O 0.27581 0.26716 0.71195 0.0
C414 C 0.26069 0.28456 0.81442 0.0
C415 C 0.25134 0.25714 0.69878 0.0
Dy416 Dy 0.98846 0.01115 0.48209 0.0
C417 C 0.03367 0.04803 0.59146 0.0
C418 C 0.96432 -0.00333 0.43 0.0
Dy419 Dy 0.00478 0.03762 0.54136 0.0
O420 O 0.98699 0.98994 0.43859 0.0
O421 O 0.9543 0.01056 0.45016 0.0
O422 O 0.03304 0.01086 0.47483 0.0
O423 O 0.02289 0.04277 0.50236 0.0
C424 C 0.04259 0.03276 0.49294 0.0
C425 C 0.95084 0.01937 0.53041 0.0
O426 O 0.00346 0.07835 0.5229 0.0
O427 O 0.97803 0.05489 0.4833 0.0
O428 O 0.0081 0.05001 0.58738 0.0
O429 O 0.04376 0.04213 0.56793 0.0
O430 O 0.96129 0.04141 0.54821 0.0
O431 O 0.96943 0.00706 0.52122 0.0
O432 O 0.98639 0.97022 0.5003 0.0
O433 O 0.01142 0.9921 0.54041 0.0
C434 C 0.98848 0.07874 0.49984 0.0
C435 C 0.00012 0.96871 0.52362 0.0
Dy436 Dy 0.2952 0.79123 0.76707 0.0
C437 C 0.18676 0.7433 0.71983 0.0
C438 C 0.34379 0.80579 0.79782 0.0
Dy439 Dy 0.23567 0.7596 0.7496 0.0
O440 O 0.34013 0.81133 0.77268 0.0
O441 O 0.32057 0.79359 0.80646 0.0
O442 O 0.30385 0.79646 0.72307 0.0
O443 O 0.2757 0.76085 0.73275 0.0
C444 C 0.28564 0.77381 0.71335 0.0
C445 C 0.24561 0.77954 0.8033 0.0
O446 O 0.25335 0.72077 0.75183 0.0
O447 O 0.29494 0.74494 0.77396 0.0
O448 O 0.19069 0.73991 0.74554 0.0
O449 O 0.20981 0.75457 0.71025 0.0
O450 O 0.22645 0.75746 0.79446 0.0
O451 O 0.25549 0.79056 0.78303 0.0
O452 O 0.27521 0.82964 0.76493 0.0
O453 O 0.23673 0.80399 0.7384 0.0
C454 C 0.27732 0.72076 0.76463 0.0
C455 C 0.25241 0.82867 0.74925 0.0
Dy456 Dy 0.50579 0.01081 0.02926 0.0
C457 C 0.52843 0.01284 0.91593 0.0
C458 C 0.48871 0.01434 0.08126 0.0
Dy459 Dy 0.51125 0.02005 0.9676 0.0
O460 O 0.49593 0.03587 0.06754 0.0
O461 O 0.49159 0.99076 0.06689 0.0
O462 O 0.52467 0.97194 0.02235 0.0
O463 O 0.50091 0.98344 0.99029 0.0
C464 C 0.51626 0.96666 -0.00358 0.0
C465 C 0.50361 0.06552 0.00122 0.0
O466 O 0.46722 -0.00078 0.96539 0.0
O467 O 0.46224 0.00743 0.01243 0.0
O468 O 0.53727 0.00209 0.93681 0.0
O469 O 0.51009 0.02785 0.92317 0.0
O470 O 0.49648 0.06226 0.97502 0.0
O471 O 0.51672 0.04669 0.00625 0.0
O472 O 0.55051 0.03125 0.03197 0.0
O473 O 0.55503 0.0278 0.98455 0.0
C474 C 0.45172 0.00035 0.98668 0.0
C475 C 0.56574 0.03355 0.01031 0.0
Dy476 Dy 0.26069 0.29816 0.27114 0.0
C477 C 0.26487 0.18091 0.26886 0.0
C478 C 0.25348 0.35314 0.2733 0.0
Dy479 Dy 0.2544 0.23301 0.26042 0.0
O480 O 0.25192 0.33828 0.29388 0.0
O481 O 0.25946 0.33809 0.25148 0.0
O482 O 0.28579 0.29879 0.31051 0.0
O483 O 0.25464 0.26352 0.29664 0.0
C484 C 0.27423 0.27294 0.31443 0.0
C485 C 0.24254 0.2579 0.21608 0.0
O486 O 0.21477 0.23554 0.27897 0.0
O487 O 0.21474 0.28146 0.26855 0.0
O488 O 0.24998 0.18531 0.24787 0.0
O489 O 0.27344 0.20466 0.28469 0.0
O490 O 0.23113 0.23177 0.21957 0.0
O491 O 0.26104 0.26767 0.2349 0.0
O492 O 0.30238 0.29755 0.25588 0.0
O493 O 0.29971 0.24879 0.25785 0.0
C494 C 0.20215 0.25715 0.27688 0.0
C495 C 0.31365 0.27458 0.25456 0.0
Dy496 Dy 0.49678 0.50331 0.97243 0.0
C497 C 0.55521 0.53911 0.07964 0.0
C498 C 0.4702 0.49187 0.92149 0.0
Dy499 Dy 0.5192 0.5291 0.03463 0.0
O500 O 0.49093 0.48109 0.92913 0.0
O501 O 0.46338 0.50813 0.94202 0.0
O502 O 0.53957 0.49716 0.96386 0.0
O503 O 0.53387 0.53007 0.99323 0.0
C504 C 0.55156 0.51745 0.98269 0.0
C505 C 0.46463 0.50763 0.03036 0.0
O506 O 0.51656 0.57022 0.01769 0.0
O507 O 0.49507 0.55017 0.97438 0.0
O508 O 0.53118 0.54625 0.079 0.0
O509 O 0.55999 0.52796 0.05532 0.0
O510 O 0.47759 0.51922 0.0537 0.0
O511 O 0.48176 0.50892 0.01234 0.0
O512 O 0.48984 0.46363 0.99342 0.0
O513 O 0.52218 0.48269 0.02972 0.0
C514 C 0.50478 0.57254 0.99328 0.0
C515 C 0.50551 0.46064 0.01509 0.0
Dy516 Dy 0.78245 0.26518 0.26906 0.0
C517 C 0.67677 0.22125 0.21486 0.0
C518 C 0.83069 0.28068 0.30035 0.0
Dy519 Dy 0.72249 0.23467 0.24981 0.0
O520 O 0.8272 0.28583 0.27507 0.0
O521 O 0.80758 0.2679 0.30876 0.0
O522 O 0.79291 0.26691 0.22428 0.0
O523 O 0.76275 0.23463 0.23552 0.0
C524 C 0.77346 0.24509 0.21537 0.0
C525 C 0.7308 0.25255 0.30377 0.0
O526 O 0.74006 0.19537 0.25391 0.0
O527 O 0.78022 0.21975 0.27883 0.0
O528 O 0.67707 0.21842 0.24101 0.0
O529 O 0.70154 0.2303 0.20784 0.0
O530 O 0.71208 0.23046 0.29356 0.0
O531 O 0.74188 0.26453 0.28431 0.0
O532 O 0.76472 0.30466 0.26702 0.0
O533 O 0.72365 0.2812 0.24336 0.0
C534 C 0.76319 0.19549 0.26864 0.0
C535 C 0.74101 0.3052 0.25372 0.0
Dy536 Dy 0.01107 0.53895 0.51125 0.0
C537 C 0.03339 0.54199 0.39719 0.0
C538 C -0.00218 0.54742 0.56434 0.0
Dy539 Dy 0.01686 0.54509 0.44939 0.0
O540 O 0.02009 0.5393 0.55656 0.0
O541 O 0.98271 0.55062 0.54317 0.0
O542 O 0.02873 0.49915 0.50902 0.0
O543 O 0.00885 0.50924 0.47388 0.0
C544 C 0.02379 0.49319 0.48254 0.0
C545 C 0.00496 0.59056 0.48028 0.0
O546 O 0.9728 0.52447 0.44675 0.0
O547 O 0.9672 0.5279 0.494 0.0
O548 O 0.04587 0.55984 0.41769 0.0
O549 O 0.01142 0.52628 0.40499 0.0
O550 O -0.00191 0.58498 0.45408 0.0
O551 O 0.0201 0.57407 0.48696 0.0
O552 O 0.05376 0.56405 0.51003 0.0
O553 O 0.05889 0.54353 0.46617 0.0
C554 C 0.95727 0.52184 0.46799 0.0
C555 C 0.06952 0.55736 0.49014 0.0
Dy556 Dy 0.72554 0.74686 0.26247 0.0
C557 C 0.84317 0.76804 0.24165 0.0
C558 C 0.67321 0.73575 0.27903 0.0
Dy559 Dy 0.79094 0.75178 0.25707 0.0
O560 O 0.67968 0.73982 0.25414 0.0
O561 O 0.69525 0.73717 0.29462 0.0
O562 O 0.72583 0.78443 0.23867 0.0
O563 O 0.76158 0.78055 0.26042 0.0
C564 C 0.75207 0.79422 0.24315 0.0
C565 C 0.76497 0.69932 0.26824 0.0
O566 O 0.79009 0.77575 0.29916 0.0
O567 O 0.74306 0.76181 0.30567 0.0
O568 O 0.83673 0.75677 0.2641 0.0
O569 O 0.8211 0.77088 0.22798 0.0
O570 O 0.79135 0.70565 0.26572 0.0
O571 O 0.75581 0.72114 0.26459 0.0
O572 O 0.72772 0.71759 0.22405 0.0
O573 O 0.77186 0.7392 0.21415 0.0
C574 C 0.76861 0.77409 0.31482 0.0
C575 C 0.74754 0.72246 0.20671 0.0
Dy576 Dy 0.76745 0.27766 0.7119 0.0
C577 C 0.77907 0.26441 0.8282 0.0
C578 C 0.75677 0.28818 0.65958 0.0
Dy579 Dy 0.76892 0.27262 0.77476 0.0
O580 O 0.73808 0.27804 0.67567 0.0
O581 O 0.78093 0.29201 0.67196 0.0
O582 O 0.8071 0.26351 0.70616 0.0
O583 O 0.7837 0.25031 0.7387 0.0
C584 C 0.80689 0.25159 0.72862 0.0
C585 C 0.72945 0.29736 0.75494 0.0
O586 O 0.80347 0.31002 0.7732 0.0
O587 O 0.7918 0.32055 0.72956 0.0
O588 O 0.76006 0.27708 0.81969 0.0
O589 O 0.79273 0.25672 0.80761 0.0
O590 O 0.72637 0.28237 0.77551 0.0
O591 O 0.75371 0.30001 0.74773 0.0
O592 O 0.73265 0.24077 0.71377 0.0
O593 O 0.74317 0.23011 0.75773 0.0
C594 C 0.8069 0.32657 0.75319 0.0
C595 C 0.72871 0.2241 0.73366 0.0
Dy596 Dy 0.77404 0.80752 0.77654 0.0
C597 C 0.78577 0.69131 0.7678 0.0
C598 C 0.76072 0.86026 0.78155 0.0
Dy599 Dy 0.7717 0.74229 0.76147 0.0
O600 O 0.77032 0.84848 0.75985 0.0
O601 O 0.75936 0.84361 0.80074 0.0
O602 O 0.79744 0.80611 0.81662 0.0
O603 O 0.76853 0.77037 0.79849 0.0
C604 C 0.78652 0.77935 0.81788 0.0
C605 C 0.7604 0.76996 0.71904 0.0
O606 O 0.73089 0.74146 0.77876 0.0
O607 O 0.72881 0.78745 0.76985 0.0
O608 O 0.76683 0.69452 0.74988 0.0
O609 O 0.79678 0.71573 0.78164 0.0
O610 O 0.7513 0.74257 0.71924 0.0
O611 O 0.77697 0.77924 0.7395 0.0
O612 O 0.81659 0.81075 0.76186 0.0
O613 O 0.81643 0.76185 0.75957 0.0
C614 C 0.71695 0.76205 0.77646 0.0
C615 C 0.82918 0.78866 0.75814 0.0
Dy616 Dy 0.46902 0.50244 0.49308 0.0
C617 C 0.58337 0.52011 0.52168 0.0
C618 C 0.41482 0.50465 0.48605 0.0
Dy619 Dy 0.52918 0.51933 0.51058 0.0
O620 O 0.43387 0.51441 0.4703 0.0
O621 O 0.42521 0.49228 0.50497 0.0
O622 O 0.47622 0.46928 0.45949 0.0
O623 O 0.50657 0.5059 0.47072 0.0
C624 C 0.50131 0.4819 0.45611 0.0
C625 C 0.49648 0.54057 0.5463 0.0
O626 O 0.52612 0.55512 0.48614 0.0
O627 O 0.47923 0.54976 0.48985 0.0
O628 O 0.5646 0.51709 0.53931 0.0
O629 O 0.5726 0.52347 0.498 0.0
O630 O 0.52129 0.55371 0.54269 0.0
O631 O 0.49171 0.51616 0.53255 0.0
O632 O 0.47214 0.46736 0.51861 0.0
O633 O 0.51898 0.47234 0.51518 0.0
C634 C 0.50291 0.56438 0.48299 0.0
C635 C 0.49525 0.45806 0.52227 0.0
Dy636 Dy 0.04748 0.51781 -0.00191 0.0
C637 C 0.9347 0.53604 0.00037 0.0
C638 C 0.09279 0.49422 0.00494 0.0
Dy639 Dy 0.98563 0.52308 0.00233 0.0
O640 O 0.09362 0.52089 0.00135 0.0
O641 O 0.0675 0.48084 0.00454 0.0
O642 O 0.05294 0.54393 0.96245 0.0
O643 O 0.01411 0.52152 0.96982 0.0
C644 C 0.02663 0.5402 0.95635 0.0
C645 C 0.00813 0.49974 0.04247 0.0
O646 O 0.98125 0.4845 0.97111 0.0
O647 O 0.02315 0.47344 0.98366 0.0
O648 O 0.94075 0.51361 0.00973 0.0
O649 O 0.95653 0.55157 0.99202 0.0
O650 O 0.98202 0.49315 0.03548 0.0
O651 O 0.01923 0.51981 0.03001 0.0
O652 O 0.05174 0.55799 0.02776 0.0
O653 O 0.00836 0.56768 0.01815 0.0
C654 C -0.00184 0.46624 0.97121 0.0
C655 C 0.03395 0.57556 0.02925 0.0
H656 H 0.94786 0.14981 0.91939 0.0
H657 H 0.02027 0.20824 0.95667 0.0
H658 H 0.02956 0.17276 0.98593 0.0
H659 H 0.01905 0.12351 -0.00176 0.0
H660 H 0.94469 0.06655 0.96319 0.0
H661 H 0.93404 0.10303 0.9362 0.0
C662 C 0.96543 0.15482 0.9342 0.0
C663 C 0.98348 0.18137 0.93573 0.0
C664 C 0.97039 0.13454 0.95133 0.0
C665 C 0.00604 0.18787 0.95518 0.0
C666 C 0.01147 0.16756 0.97182 0.0
C667 C 0.00038 0.11929 0.98494 0.0
C668 C 0.98288 0.09231 0.98254 0.0
C669 C 0.99409 0.14058 0.96967 0.0
C670 C 0.95854 0.08718 0.96548 0.0
C671 C 0.95246 0.10798 0.94987 0.0
H672 H 0.10361 0.79374 0.22133 0.0
H673 H 0.14543 0.83052 0.15435 0.0
H674 H 0.18992 0.82958 0.17733 0.0
H675 H 0.21666 0.81568 0.21546 0.0
H676 H 0.17367 0.77464 0.27961 0.0
H677 H 0.12992 0.78048 0.2591 0.0
C678 C 0.12244 0.80181 0.21182 0.0
C679 C 0.12124 0.81221 0.1862 0.0
C680 C 0.14772 0.80034 0.22465 0.0
C681 C 0.14584 0.82238 0.17407 0.0
C682 C 0.17125 0.8218 0.18718 0.0
C683 C 0.19765 0.80781 0.22473 0.0
C684 C 0.19828 0.79419 0.24863 0.0
C685 C 0.1724 0.81034 0.21225 0.0
C686 C 0.17367 0.78494 0.26104 0.0
C687 C 0.14863 0.7882 0.24929 0.0
H688 H 0.47104 0.8622 0.3853 0.0
H689 H 0.50184 0.8207 0.45006 0.0
H690 H 0.50421 0.86387 0.48263 0.0
H691 H 0.50069 0.91455 0.49163 0.0
H692 H 0.46686 0.95506 0.42785 0.0
H693 H 0.46205 0.91099 0.3959 0.0
C694 C 0.47804 0.86262 0.40662 0.0
C695 C 0.48663 0.83859 0.4153 0.0
C696 C 0.47875 0.88724 0.42529 0.0
C697 C 0.4952 0.83904 0.443 0.0
C698 C 0.49663 0.86371 0.46156 0.0
C699 C 0.4919 0.91351 0.47083 0.0
C700 C 0.4843 0.9379 0.46192 0.0
C701 C 0.48891 0.88808 0.4528 0.0
C702 C 0.47269 0.9364 0.4351 0.0
C703 C 0.47015 0.91132 0.41682 0.0
H704 H 0.4528 0.3055 0.68689 0.0
H705 H 0.46277 0.23011 0.72369 0.0
H706 H 0.41901 0.22857 0.74462 0.0
H707 H 0.37771 0.24829 0.75253 0.0
H708 H 0.36701 0.32341 0.71599 0.0
H709 H 0.41131 0.32563 0.69527 0.0
C710 C 0.44528 0.28864 0.69932 0.0
C711 C 0.46107 0.26795 0.70363 0.0
C712 C 0.42009 0.28798 0.71163 0.0
C713 C 0.45112 0.24638 0.72003 0.0
C714 C 0.42608 0.24547 0.7321 0.0
C715 C 0.38523 0.26529 0.74025 0.0
C716 C 0.36928 0.28569 0.73584 0.0
C717 C 0.41046 0.2662 0.72816 0.0
C718 C 0.37908 0.30751 0.71973 0.0
C719 C 0.40431 0.30871 0.70777 0.0
H720 H 0.98791 0.84059 0.54964 0.0
H721 H 0.00979 0.8848 0.63158 0.0
H722 H 0.01374 0.93072 0.61391 0.0
H723 H 0.01105 0.95849 0.57566 0.0
H724 H 0.9874 0.91546 0.49365 0.0
H725 H 0.98429 0.86897 0.51087 0.0
C726 C 0.99341 0.86029 0.56361 0.0
C727 C -0.00147 0.85918 0.59191 0.0
C728 C -0.00446 0.88685 0.55331 0.0
C729 C 0.00564 0.88493 0.60973 0.0
C730 C 0.00802 0.91127 0.59965 0.0
C731 C 0.00545 0.939 0.56141 0.0
C732 C -0.00029 0.94049 0.53334 0.0
C733 C 0.00313 0.91249 0.57151 0.0
C734 C 0.99205 0.91493 0.51535 0.0
C735 C 0.99019 0.88834 0.5252 0.0
H736 H 0.44665 0.782 0.86384 0.0
H737 H 0.48453 0.80482 0.78947 0.0
H738 H 0.44172 0.8152 0.77148 0.0
H739 H 0.39322 0.81668 0.77602 0.0
H740 H 0.35438 0.79315 0.84953 0.0
H741 H 0.39791 0.78485 0.86893 0.0
C742 C 0.44544 0.78903 0.84363 0.0
C743 C 0.46875 0.79244 0.82801 0.0
C744 C 0.42069 0.79528 0.83339 0.0
C745 C 0.46692 0.80196 0.80198 0.0
C746 C 0.44246 0.80802 0.79165 0.0
C747 C 0.39441 0.81023 0.79649 0.0
C748 C 0.37075 0.80567 0.81139 0.0
C749 C 0.41924 0.8048 0.80715 0.0
C750 C 0.37246 0.79698 0.83775 0.0
C751 C 0.39726 0.79198 0.84874 0.0
H752 H 0.50851 0.15871 0.10269 0.0
H753 H 0.45747 0.19354 0.04773 0.0
H754 H 0.45843 0.1535 0.01194 0.0
H755 H 0.47475 0.10849 -0.00363 0.0
H756 H 0.52964 0.07839 0.05149 0.0
H757 H 0.52604 0.11652 0.08713 0.0
C758 C 0.49728 0.15747 0.083 0.0
C759 C 0.48262 0.1788 0.07799 0.0
C760 C 0.49867 0.13516 0.06252 0.0
C761 C 0.46878 0.17722 0.05211 0.0
C762 C 0.46939 0.15439 0.03167 0.0
C763 C 0.48586 0.11042 0.0162 0.0
C764 C 0.50176 0.0901 0.02156 0.0
C765 C 0.48444 0.13325 0.0366 0.0
C766 C 0.51651 0.0931 0.04712 0.0
C767 C 0.51466 0.11508 0.06751 0.0
H768 H 0.08903 0.2729 0.32347 0.0
H769 H 0.1208 0.23416 0.38984 0.0
H770 H 0.16093 0.22808 0.36404 0.0
H771 H 0.18761 0.23543 0.32347 0.0
H772 H 0.15846 0.27884 0.25935 0.0
H773 H 0.11632 0.28128 0.28327 0.0
C774 C 0.10468 0.26298 0.33219 0.0
C775 C 0.102 0.25383 0.35842 0.0
C776 C 0.12798 0.26033 0.31759 0.0
C777 C 0.12254 0.2414 0.36971 0.0
C778 C 0.14539 0.23786 0.35494 0.0
C779 C 0.17176 0.24495 0.31452 0.0
C780 C 0.17568 0.25643 0.28948 0.0
C781 C 0.14836 0.24737 0.32895 0.0
C782 C 0.15557 0.26959 0.27846 0.0
C783 C 0.13163 0.27108 0.29218 0.0
H784 H 0.93076 0.05708 0.16538 0.0
H785 H 0.87118 0.98601 0.12401 0.0
H786 H 0.89861 0.9855 0.08353 0.0
H787 H 0.94116 0.00378 0.06098 0.0
H788 H -0.00135 0.07711 0.10157 0.0
H789 H 0.97058 0.07816 0.14122 0.0
C790 C 0.9237 0.04162 0.14742 0.0
C791 C 0.89915 0.02147 0.14778 0.0
C792 C 0.93935 0.04172 0.12414 0.0
C793 C 0.89004 0.00177 0.12424 0.0
C794 C 0.90578 0.00138 0.10114 0.0
C795 C 0.94733 0.0201 0.07838 0.0
C796 C 0.97206 0.04015 0.07839 0.0
C797 C 0.93071 0.021 0.101 0.0
C798 C 0.97976 0.06134 0.10105 0.0
C799 C 0.96373 0.06196 0.12379 0.0
H800 H 0.2897 0.7497 0.4523 0.0
H801 H 0.33203 0.6834 0.42105 0.0
H802 H 0.33525 0.70225 0.3768 0.0
H803 H 0.31921 0.73232 0.34505 0.0
H804 H 0.27429 0.7967 0.37508 0.0
H805 H 0.2791 0.78414 0.42183 0.0
C806 C 0.30029 0.73989 0.43604 0.0
C807 C 0.31031 0.71501 0.43976 0.0
C808 C 0.30116 0.75021 0.41031 0.0
C809 C 0.32391 0.70242 0.41853 0.0
C810 C 0.32565 0.7131 0.39319 0.0
C811 C 0.31098 0.74397 0.36193 0.0
C812 C 0.29608 0.76504 0.35669 0.0
C813 C 0.31325 0.73614 0.3885 0.0
C814 C 0.28566 0.78019 0.37868 0.0
C815 C 0.28833 0.77295 0.40537 0.0
H816 H 0.54961 0.94952 0.65258 0.0
H817 H 0.62421 0.99453 0.62234 0.0
H818 H 0.59818 0.00415 0.58252 0.0
H819 H 0.55389 0.0072 0.56156 0.0
H820 H 0.47902 0.95955 0.58836 0.0
H821 H 0.5055 0.94431 0.62543 0.0
C822 C 0.56019 0.96076 0.63685 0.0
C823 C 0.58863 0.97188 0.64061 0.0
C824 C 0.54506 0.9664 0.61409 0.0
C825 C 0.60231 0.98597 0.61998 0.0
C826 C 0.58741 0.99172 0.59736 0.0
C827 C 0.54341 0.99243 0.57466 0.0
C828 C 0.51468 0.98423 0.57214 0.0
C829 C 0.55873 0.98314 0.59497 0.0
C830 C 0.5012 0.96607 0.59 0.0
C831 C 0.51632 0.95736 0.61107 0.0
H832 H 0.23109 0.3101 0.93758 0.0
H833 H 0.30341 0.37614 0.93801 0.0
H834 H 0.3127 0.35653 0.89184 0.0
H835 H 0.2972 0.32398 0.84919 0.0
H836 H 0.22273 0.26027 0.84755 0.0
H837 H 0.21745 0.2752 0.89597 0.0
C838 C 0.24922 0.31962 0.92775 0.0
C839 C 0.26672 0.34426 0.94114 0.0
C840 C 0.25385 0.30884 0.90072 0.0
C841 C 0.28982 0.35695 0.92805 0.0
C842 C 0.29504 0.34586 0.90161 0.0
C843 C 0.28017 0.31301 0.85961 0.0
C844 C 0.26036 0.29116 0.84471 0.0
C845 C 0.27678 0.32229 0.88739 0.0
C846 C 0.23819 0.27734 0.85847 0.0
C847 C 0.23511 0.28587 0.88621 0.0
H848 H 0.94506 0.98192 0.30127 0.0
H849 H 0.88245 0.03061 0.32136 0.0
H850 H 0.89375 0.03072 0.37052 0.0
H851 H 0.92246 0.01789 0.4078 0.0
H852 H 0.98447 0.96873 0.38675 0.0
H853 H 0.97207 0.96756 0.3379 0.0
C854 C 0.93391 0.99272 0.31634 0.0
C855 C 0.91313 0.00653 0.3076 0.0
C856 C 0.94027 0.99237 0.34441 0.0
C857 C 0.89864 0.01996 0.3275 0.0
C858 C 0.90506 0.01997 0.35561 0.0
C859 C 0.93298 0.00664 0.39247 0.0
C860 C 0.95434 0.99338 0.40082 0.0
C861 C 0.9259 0.00629 0.36431 0.0
C862 C 0.96793 0.97902 0.38082 0.0
C863 C 0.96095 0.97847 0.35289 0.0
H864 H 0.29643 0.72634 0.58974 0.0
H865 H 0.252 0.64947 0.61832 0.0
H866 H 0.25098 0.67525 0.66374 0.0
H867 H 0.26198 0.7193 0.69522 0.0
H868 H 0.30761 0.79625 0.66833 0.0
H869 H 0.30846 0.77082 0.62212 0.0
C870 C 0.28674 0.71518 0.60596 0.0
C871 C 0.27428 0.686 0.60053 0.0
C872 C 0.28609 0.73018 0.63219 0.0
C873 C 0.26171 0.67191 0.62181 0.0
C874 C 0.261 0.68664 0.64783 0.0
C875 C 0.27199 0.73059 0.67923 0.0
C876 C 0.28464 0.75957 0.68503 0.0
C877 C 0.27291 0.71577 0.65315 0.0
C878 C 0.29767 0.7739 0.6642 0.0
C879 C 0.29826 0.75935 0.63789 0.0
H880 H 0.58697 0.98846 0.8071 0.0
H881 H 0.52861 0.03523 0.77619 0.0
H882 H 0.50962 0.03966 0.8212 0.0
H883 H 0.51059 0.0317 0.86984 0.0
H884 H 0.56862 0.98461 0.9005 0.0
H885 H 0.58673 0.97886 0.85506 0.0
C886 C 0.57004 -0.00046 0.81016 0.0
C887 C 0.55937 0.01162 0.78836 0.0
C888 C 0.55921 0.00206 0.83607 0.0
C889 C 0.53728 0.02575 0.79263 0.0
C890 C 0.52641 0.02836 0.81839 0.0
C891 C 0.52714 0.02015 0.86646 0.0
C892 C 0.53844 0.00878 0.88832 0.0
C893 C 0.53739 0.01685 0.8403 0.0
C894 C 0.55973 0.99366 0.88385 0.0
C895 C 0.57009 0.99035 0.85793 0.0
H896 H 0.22529 0.29374 0.09678 0.0
H897 H 0.28531 0.36762 0.13238 0.0
H898 H 0.28661 0.3474 0.17581 0.0
H899 H 0.2711 0.3087 0.20382 0.0
H900 H 0.20999 0.2354 0.16941 0.0
H901 H 0.20869 0.25534 0.12556 0.0
C902 C 0.23873 0.30533 0.11401 0.0
C903 C 0.25529 0.33214 0.11117 0.0
C904 C 0.23911 0.29373 0.13924 0.0
C905 C 0.27236 0.34698 0.13387 0.0
C906 C 0.27313 0.33543 0.15879 0.0
C907 C 0.25729 0.2972 0.18682 0.0
C908 C 0.2406 0.27062 0.18995 0.0
C909 C 0.25658 0.30887 0.16175 0.0
C910 C 0.22301 0.25591 0.16759 0.0
C911 C 0.22231 0.2673 0.14248 0.0
H912 H 0.1752 0.97786 0.05506 0.0
H913 H 0.18549 0.98359 0.96867 0.0
H914 H 0.1562 0.01893 0.96918 0.0
H915 H 0.12198 0.04189 0.99225 0.0
H916 H 0.11039 0.03527 0.07822 0.0
H917 H 0.14679 0.00771 0.08015 0.0
C918 C 0.17127 0.98714 0.03647 0.0
C919 C 0.18186 0.97766 0.01174 0.0
C920 C 0.15437 0.00747 0.03689 0.0
C921 C 0.17718 0.99026 0.98789 0.0
C922 C 0.16049 0.01052 0.98816 0.0
C923 C 0.1281 0.03525 0.01162 0.0
C924 C 0.11325 0.04 0.03488 0.0
C925 C 0.14821 0.01848 0.01229 0.0
C926 C 0.12147 0.03163 0.05996 0.0
C927 C 0.14201 0.01553 0.06099 0.0
H928 H 0.67613 0.56206 0.96365 0.0
H929 H 0.65492 0.64205 -0.00416 0.0
H930 H 0.60854 0.61709 0.00291 0.0
H931 H 0.57392 0.57286 -0.00066 0.0
H932 H 0.59383 0.49319 0.96463 0.0
H933 H 0.64117 0.51765 0.95968 0.0
C934 C 0.66132 0.57403 0.97214 0.0
C935 C 0.66893 0.60385 0.97919 0.0
C936 C 0.63465 0.55958 0.976 0.0
C937 C 0.64954 0.6191 0.99013 0.0
C938 C 0.62307 0.60484 0.99432 0.0
C939 C 0.58873 0.56078 0.991 0.0
C940 C 0.58062 0.53129 0.9825 0.0
C941 C 0.61544 0.57512 0.98737 0.0
C942 C 0.5998 0.51593 0.9714 0.0
C943 C 0.62673 0.52992 0.96844 0.0
H944 H 0.71485 0.4304 0.27214 0.0
H945 H 0.63254 0.38152 0.25246 0.0
H946 H 0.65024 0.33757 0.2449 0.0
H947 H 0.68861 0.31251 0.24465 0.0
H948 H 0.77104 0.36001 0.26627 0.0
H949 H 0.75384 0.40475 0.27203 0.0
C950 C 0.70082 0.41013 0.26619 0.0
C951 C 0.67233 0.40944 0.26292 0.0
C952 C 0.71116 0.38458 0.26206 0.0
C953 C 0.6545 0.38286 0.25527 0.0
C954 C 0.66462 0.35762 0.25083 0.0
C955 C 0.70297 0.33264 0.25025 0.0
C956 C 0.73119 0.33278 0.25469 0.0
C957 C 0.69287 0.35818 0.25418 0.0
C958 C 0.74925 0.35917 0.2625 0.0
C959 C 0.7394 0.3848 0.26592 0.0
H960 H 0.83281 0.47816 0.42856 0.0
H961 H 0.83367 0.43904 0.50374 0.0
H962 H 0.8825 0.45931 0.51251 0.0
H963 H 0.92454 0.48936 0.49969 0.0
H964 H 0.92458 0.52676 0.42363 0.0
H965 H 0.87562 0.50607 0.41439 0.0
C966 C 0.84373 0.47394 0.44677 0.0
C967 C 0.82961 0.4573 0.46553 0.0
C968 C 0.87183 0.48555 0.45166 0.0
C969 C 0.84407 0.45175 0.48891 0.0
C970 C 0.87196 0.46345 0.49405 0.0
C971 C 0.91375 0.4931 0.48118 0.0
C972 C 0.92786 0.50978 0.46252 0.0
C973 C 0.88593 0.48066 0.47575 0.0
C974 C 0.91395 0.51401 0.43831 0.0
C975 C 0.88604 0.5022 0.43303 0.0
H976 H 0.31695 0.07139 0.25813 0.0
H977 H 0.36566 0.1199 0.32876 0.0
H978 H 0.33557 0.15472 0.33108 0.0
H979 H 0.29978 0.17444 0.30941 0.0
H980 H 0.25395 0.12935 0.23579 0.0
H981 H 0.27831 0.08968 0.23833 0.0
C982 C 0.32056 0.08927 0.27436 0.0
C983 C 0.34345 0.09326 0.29323 0.0
C984 C 0.30391 0.10984 0.27478 0.0
C985 C 0.34821 0.1166 0.31398 0.0
C986 C 0.33108 0.13648 0.31526 0.0
C987 C 0.29473 0.15569 0.29419 0.0
C988 C 0.27531 0.15477 0.27233 0.0
C989 C 0.30951 0.1338 0.29521 0.0
C990 C 0.26892 0.13045 0.25274 0.0
C991 C 0.28293 0.10791 0.25414 0.0
H992 H 0.30619 0.05598 0.52053 0.0
H993 H 0.34059 0.13484 0.48897 0.0
H994 H 0.38535 0.12078 0.48733 0.0
H995 H 0.41468 0.08573 0.49472 0.0
H996 H 0.37938 0.00691 0.52575 0.0
H997 H 0.33493 0.02129 0.52759 0.0
C998 C 0.32345 0.07023 0.51338 0.0
C999 C 0.31999 0.09648 0.50497 0.0
C1000 C 0.34896 0.06193 0.51227 0.0
C1001 C 0.34264 0.11452 0.49561 0.0
C1002 C 0.36825 0.10648 0.49463 0.0
C1003 C 0.39719 0.07174 0.50181 0.0
C1004 C 0.40022 0.04531 0.51007 0.0
C1005 C 0.37162 0.08017 0.50283 0.0
C1006 C 0.3775 0.02734 0.51924 0.0
C1007 C 0.3521 0.03557 0.52035 0.0
H1008 H 0.70873 0.57135 0.27909 0.0
H1009 H 0.638 0.61104 0.28759 0.0
H1010 H 0.66667 0.6578 0.28537 0.0
H1011 H 0.71107 0.68726 0.27776 0.0
H1012 H 0.7823 0.6488 0.26963 0.0
H1013 H 0.75432 0.60188 0.27491 0.0
C1014 C 0.69969 0.59027 0.28088 0.0
C1015 C 0.67114 0.58748 0.28327 0.0
C1016 C 0.71634 0.61736 0.27935 0.0
C1017 C 0.65982 0.61235 0.2855 0.0
C1018 C 0.6762 0.6392 0.28419 0.0
C1019 C 0.72049 0.66865 0.27741 0.0
C1020 C 0.7486 0.67139 0.2732 0.0
C1021 C 0.70433 0.6419 0.28054 0.0
C1022 C 0.76063 0.64715 0.27281 0.0
C1023 C 0.74463 0.62034 0.27581 0.0
H1024 H 0.88124 0.44855 0.78638 0.0
H1025 H 0.90598 0.43189 0.7037 0.0
H1026 H 0.87583 0.3846 0.69829 0.0
H1027 H 0.84062 0.34916 0.7163 0.0
H1028 H 0.81844 0.36401 0.80009 0.0
H1029 H 0.84955 0.4109 0.80605 0.0
C1030 C 0.88011 0.43442 0.76728 0.0
C1031 C 0.89548 0.44365 0.74535 0.0
C1032 C 0.86319 0.40711 0.76454 0.0
C1033 C 0.89429 0.42513 0.72084 0.0
C1034 C 0.877 0.39819 0.7177 0.0
C1035 C 0.84277 0.36269 0.73588 0.0
C1036 C 0.82717 0.35357 0.75764 0.0
C1037 C 0.86108 0.38917 0.73927 0.0
C1038 C 0.83033 0.3708 0.7831 0.0
C1039 C 0.848 0.39757 0.78645 0.0
H1040 H 0.05402 0.8639 0.07458 0.0
H1041 H 0.98056 0.86197 0.11899 0.0
H1042 H 0.96821 0.89943 0.09385 0.0
H1043 H 0.9791 0.93382 0.06044 0.0
H1044 H 0.05494 0.93961 0.01964 0.0
H1045 H 0.06562 0.89946 0.042 0.0
C1046 C 0.03525 0.87162 0.07858 0.0
C1047 C 0.01811 0.86016 0.09844 0.0
C1048 C 0.02876 0.89379 0.06469 0.0
C1049 C 0.99407 0.87057 0.10381 0.0
C1050 C 0.98698 0.8919 0.08942 0.0
C1051 C -0.00222 0.926 0.0562 0.0
C1052 C 0.01605 0.93925 0.03818 0.0
C1053 C 0.00425 0.90378 0.06994 0.0
C1054 C 0.04054 0.92953 0.03335 0.0
C1055 C 0.04664 0.90666 0.04615 0.0
H1056 H 0.92644 0.24951 0.7696 0.0
H1057 H 0.88626 0.21899 0.8401 0.0
H1058 H 0.84129 0.21401 0.81518 0.0
H1059 H 0.81357 0.22536 0.77541 0.0
H1060 H 0.85653 0.26009 0.70807 0.0
H1061 H 0.90002 0.25616 0.72961 0.0
C1062 C 0.9079 0.24184 0.77976 0.0
C1063 C 0.90969 0.23547 0.80697 0.0
C1064 C 0.88248 0.24034 0.766 0.0
C1065 C 0.88544 0.22453 0.81929 0.0
C1066 C 0.85973 0.22201 0.80519 0.0
C1067 C 0.83252 0.2325 0.76587 0.0
C1068 C 0.83188 0.24435 0.74089 0.0
C1069 C 0.85798 0.23111 0.77895 0.0
C1070 C 0.8564 0.25158 0.72765 0.0
C1071 C 0.8814 0.24941 0.73995 0.0
H1072 H 0.568 0.18128 0.62693 0.0
H1073 H 0.50541 0.21226 0.5824 0.0
H1074 H 0.49613 0.16807 0.55055 0.0
H1075 H 0.50399 0.11952 0.53695 0.0
H1076 H 0.56792 0.08931 0.58016 0.0
H1077 H 0.57864 0.13438 0.61079 0.0
C1078 C 0.55245 0.17841 0.61015 0.0
C1079 C 0.53723 0.19989 0.6072 0.0
C1080 C 0.54742 0.15307 0.59172 0.0
C1081 C 0.51742 0.19606 0.58513 0.0
C1082 C 0.51202 0.17075 0.56696 0.0
C1083 C 0.52037 0.1229 0.55298 0.0
C1084 C 0.53497 0.10105 0.55646 0.0
C1085 C 0.5266 0.14895 0.57032 0.0
C1086 C 0.55642 0.10583 0.57703 0.0
C1087 C 0.56247 0.13154 0.59463 0.0
H1088 H 0.55009 0.73661 0.3037 0.0
H1089 H 0.58515 0.74985 0.38726 0.0
H1090 H 0.63014 0.74589 0.37049 0.0
H1091 H 0.65969 0.73997 0.33201 0.0
H1092 H 0.62489 0.72849 0.24853 0.0
H1093 H 0.5794 0.73005 0.26536 0.0
C1094 C 0.56756 0.73862 0.31827 0.0
C1095 C 0.56431 0.74363 0.34669 0.0
C1096 C 0.59332 0.73645 0.30849 0.0
C1097 C 0.58714 0.74614 0.36528 0.0
C1098 C 0.61284 0.74379 0.35571 0.0
C1099 C 0.64206 0.73751 0.31754 0.0
C1100 C 0.64549 0.73403 0.2891 0.0
C1101 C 0.61618 0.73907 0.32737 0.0
C1102 C 0.62264 0.73112 0.27052 0.0
C1103 C 0.5967 0.73212 0.28013 0.0
H1104 H 0.97587 0.17741 0.4289 0.0
H1105 H 0.04017 0.22484 0.48731 0.0
H1106 H 0.03639 0.18399 0.51357 0.0
H1107 H 0.01799 0.13288 0.51725 0.0
H1108 H 0.95323 0.08621 0.45873 0.0
H1109 H 0.95385 0.12857 0.43565 0.0
C1110 C 0.9888 0.17896 0.44758 0.0
C1111 C 0.00845 0.20405 0.45591 0.0
C1112 C 0.98657 0.15536 0.46259 0.0
C1113 C 0.02488 0.20576 0.48034 0.0
C1114 C 0.02281 0.18233 0.49535 0.0
C1115 C 0.00364 0.13216 0.49982 0.0
C1116 C 0.98589 0.10618 0.4896 0.0
C1117 C 0.00417 0.15674 0.48632 0.0
C1118 C 0.96742 0.10573 0.46692 0.0
C1119 C 0.96774 0.12999 0.45359 0.0
H1120 H 0.59121 0.25051 0.13041 0.0
H1121 H 0.55016 0.26431 0.20539 0.0
H1122 H 0.58501 0.24687 0.2311 0.0
H1123 H 0.62827 0.22992 0.23299 0.0
H1124 H 0.67142 0.21891 0.15917 0.0
H1125 H 0.63432 0.23218 0.13217 0.0
C1126 C 0.58997 0.24974 0.15237 0.0
C1127 C 0.56819 0.25885 0.16594 0.0
C1128 C 0.61023 0.23976 0.16719 0.0
C1129 C 0.56678 0.25759 0.19441 0.0
C1130 C 0.58663 0.24746 0.20917 0.0
C1131 C 0.62919 0.22976 0.21089 0.0
C1132 C 0.65226 0.2232 0.19796 0.0
C1133 C 0.60848 0.23861 0.19582 0.0
C1134 C 0.65361 0.22366 0.16943 0.0
C1135 C 0.63258 0.23152 0.15408 0.0
H1136 H 0.5333 0.87487 0.89973 0.0
H1137 H 0.56774 0.83936 0.96674 0.0
H1138 H 0.56056 0.87989 -0.00089 0.0
H1139 H 0.54283 0.92458 0.0082 0.0
H1140 H 0.50227 0.9554 0.94162 0.0
H1141 H 0.51359 0.9177 0.90905 0.0
C1142 C 0.53958 0.8763 0.92139 0.0
C1143 C 0.5515 0.85469 0.93094 0.0
C1144 C 0.53416 0.89874 0.93984 0.0
C1145 C 0.5588 0.85608 0.95907 0.0
C1146 C 0.55461 0.87913 0.97749 0.0
C1147 C 0.53657 0.92302 0.98654 0.0
C1148 C 0.52241 0.94317 0.97715 0.0
C1149 C 0.54202 0.90043 0.96812 0.0
C1150 C 0.51385 0.94061 0.94918 0.0
C1151 C 0.52016 0.91895 0.93058 0.0
H1152 H 0.93179 0.8043 0.68573 0.0
H1153 H 0.93949 0.72577 0.71798 0.0
H1154 H 0.90149 0.72959 0.74688 0.0
H1155 H 0.86478 0.75341 0.76147 0.0
H1156 H 0.85491 0.83118 0.72935 0.0
H1157 H 0.89563 0.83007 0.70277 0.0
C1158 C 0.92502 0.78802 0.699 0.0
C1159 C 0.93836 0.76467 0.69947 0.0
C1160 C 0.90308 0.79042 0.71595 0.0
C1161 C 0.92962 0.74395 0.71712 0.0
C1162 C 0.90791 0.74612 0.73377 0.0
C1163 C 0.87173 0.77039 0.74896 0.0
C1164 C 0.8568 0.79225 0.74728 0.0
C1165 C 0.89443 0.76911 0.73323 0.0
C1166 C 0.86622 0.81423 0.7312 0.0
C1167 C 0.88926 0.81337 0.7157 0.0
H1168 H 0.08629 0.04035 0.86828 0.0
H1169 H 0.06906 0.9504 0.8387 0.0
H1170 H 0.0442 0.94004 0.88004 0.0
H1171 H 0.02422 0.95766 0.92319 0.0
H1172 H 0.0449 0.04788 0.95284 0.0
H1173 H 0.07167 0.05696 0.91324 0.0
C1174 C 0.07743 0.01843 0.87113 0.0
C1175 C 0.07929 0.99618 0.85054 0.0
C1176 C 0.0636 0.01273 0.89494 0.0
C1177 C 0.06795 0.96784 0.85443 0.0
C1178 C 0.0536 0.96198 0.87796 0.0
C1179 C 0.03485 0.9792 0.92104 0.0
C1180 C 0.03215 0.00208 0.9408 0.0
C1181 C 0.05078 0.98437 0.89815 0.0
C1182 C 0.04637 0.02985 0.93793 0.0
C1183 C 0.06171 0.03515 0.9152 0.0
H1184 H 0.71646 0.33316 0.55252 0.0
H1185 H 0.802 0.37467 0.55741 0.0
H1186 H 0.81092 0.35003 0.59675 0.0
H1187 H 0.79402 0.31907 0.63113 0.0
H1188 H 0.70799 0.28036 0.62916 0.0
H1189 H 0.69955 0.3013 0.58696 0.0
C1190 C 0.73708 0.33656 0.56208 0.0
C1191 C 0.75857 0.35567 0.55219 0.0
C1192 C 0.7419 0.32289 0.58512 0.0
C1193 C 0.78514 0.36017 0.56483 0.0
C1194 C 0.79025 0.34607 0.58726 0.0
C1195 C 0.77347 0.31494 0.62128 0.0
C1196 C 0.75164 0.29818 0.633 0.0
C1197 C 0.76873 0.32773 0.59776 0.0
C1198 C 0.72507 0.29316 0.6203 0.0
C1199 C 0.72027 0.3052 0.59631 0.0
H1200 H 0.44428 0.04679 0.36339 0.0
H1201 H 0.52127 0.05433 0.32424 0.0
H1202 H 0.54565 0.05427 0.36844 0.0
H1203 H 0.54429 0.04661 0.417 0.0
H1204 H 0.46694 0.03536 0.45529 0.0
H1205 H 0.44344 0.04267 0.41276 0.0
C1206 C 0.46646 0.04899 0.36464 0.0
C1207 C 0.48095 0.05033 0.34064 0.0
C1208 C 0.4802 0.04803 0.38992 0.0
C1209 C 0.50965 0.053 0.34247 0.0
C1210 C 0.52359 0.05292 0.36769 0.0
C1211 C 0.52237 0.0462 0.41607 0.0
C1212 C 0.50728 0.04053 0.43908 0.0
C1213 C 0.50896 0.04956 0.39135 0.0
C1214 C 0.47892 0.03993 0.4378 0.0
C1215 C 0.46548 0.04393 0.41345 0.0
H1216 H 0.71916 0.64385 0.09345 0.0
H1217 H 0.78525 0.70668 0.06879 0.0
H1218 H 0.78968 0.73328 0.11493 0.0
H1219 H 0.77593 0.73747 0.16263 0.0
H1220 H 0.70904 0.67512 0.18671 0.0
H1221 H 0.70366 0.64955 0.1402 0.0
C1222 C 0.73455 0.66339 0.09813 0.0
C1223 C 0.75208 0.67312 0.07782 0.0
C1224 C 0.73682 0.6786 0.12454 0.0
C1225 C 0.77156 0.69872 0.08408 0.0
C1226 C 0.77414 0.71388 0.11046 0.0
C1227 C 0.76013 0.71831 0.1577 0.0
C1228 C 0.74305 0.70806 0.17816 0.0
C1229 C 0.75707 0.70382 0.13091 0.0
C1230 C 0.72242 0.68346 0.17135 0.0
C1231 C 0.71941 0.66878 0.14479 0.0
H1232 H 0.06607 0.021 0.71017 0.0
H1233 H 0.13942 0.00828 0.67033 0.0
H1234 H 0.12156 0.0224 0.62787 0.0
H1235 H 0.08452 0.03707 0.60157 0.0
H1236 H 0.01157 0.05083 0.64155 0.0
H1237 H 0.03003 0.0382 0.68451 0.0
C1238 C 0.07807 0.02118 0.69214 0.0
C1239 C 0.10392 0.01325 0.69333 0.0
C1240 C 0.06788 0.02986 0.6679 0.0
C1241 C 0.11941 0.01411 0.66993 0.0
C1242 C 0.10925 0.02227 0.64566 0.0
C1243 C 0.07286 0.03774 0.61982 0.0
C1244 C 0.04673 0.04496 0.61839 0.0
C1245 C 0.08349 0.03015 0.64437 0.0
C1246 C 0.03181 0.04555 0.64215 0.0
C1247 C 0.04226 0.03809 0.66667 0.0
H1248 H 0.73036 0.32473 0.41865 0.0
H1249 H 0.70504 0.38257 0.36579 0.0
H1250 H 0.70309 0.3468 0.32597 0.0
H1251 H 0.71243 0.30116 0.30575 0.0
H1252 H 0.73917 0.2434 0.3573 0.0
H1253 H 0.73635 0.27702 0.39844 0.0
C1254 C 0.72401 0.32937 0.3985 0.0
C1255 C 0.71816 0.35644 0.39518 0.0
C1256 C 0.72335 0.30885 0.37558 0.0
C1257 C 0.70988 0.36204 0.36892 0.0
C1258 C 0.70879 0.34162 0.34612 0.0
C1259 C 0.7175 0.29593 0.32606 0.0
C1260 C 0.72635 0.27029 0.32881 0.0
C1261 C 0.71615 0.31534 0.34917 0.0
C1262 C 0.7324 0.26322 0.355 0.0
C1263 C 0.73087 0.28243 0.37835 0.0
H1264 H 0.419 0.00307 0.18519 0.0
H1265 H 0.4442 0.09491 0.19384 0.0
H1266 H 0.46873 0.09168 0.15149 0.0
H1267 H 0.48429 0.06244 0.11324 0.0
H1268 H 0.46194 0.97034 0.10659 0.0
H1269 H 0.43534 0.97377 0.14741 0.0
C1270 C 0.42939 0.02233 0.17736 0.0
C1271 C 0.4294 0.04922 0.19191 0.0
C1272 C 0.44439 0.02016 0.15388 0.0
C1273 C 0.44366 0.07408 0.18243 0.0
C1274 C 0.45782 0.0722 0.15848 0.0
C1275 C 0.47372 0.04315 0.12089 0.0
C1276 C 0.47503 0.01619 0.10717 0.0
C1277 C 0.45864 0.04532 0.1443 0.0
C1278 C 0.46133 0.9913 0.11709 0.0
C1279 C 0.44597 0.99326 0.14023 0.0
H1280 H 0.79319 0.73238 0.93294 0.0
H1281 H 0.75002 0.65543 0.88341 0.0
H1282 H 0.75312 0.68015 0.84256 0.0
H1283 H 0.76523 0.72406 0.82145 0.0
H1284 H 0.81136 0.80062 0.86897 0.0
H1285 H 0.80982 0.77572 0.91018 0.0
C1286 C 0.78463 0.72107 0.91316 0.0
C1287 C 0.77117 0.6922 0.91126 0.0
C1288 C 0.78688 0.73533 0.88948 0.0
C1289 C 0.76046 0.67765 0.88545 0.0
C1290 C 0.76213 0.69177 0.86206 0.0
C1291 C 0.77552 0.73517 0.84065 0.0
C1292 C 0.78849 0.76406 0.84217 0.0
C1293 C 0.77496 0.72064 0.86391 0.0
C1294 C 0.80133 0.77829 0.8673 0.0
C1295 C 0.80036 0.76409 0.89086 0.0
H1296 H 0.81546 0.03576 0.02495 0.0
H1297 H 0.845 0.09668 0.96898 0.0
H1298 H 0.87877 0.06836 0.95374 0.0
H1299 H 0.90162 0.02823 0.95854 0.0
H1300 H 0.87509 0.97011 0.01769 0.0
H1301 H 0.83722 0.99462 0.02847 0.0
C1302 C 0.82923 0.04291 0.00939 0.0
C1303 C 0.82785 0.06848 -0.00169 0.0
C1304 C 0.84861 0.02663 0.00084 0.0
C1305 C 0.84582 0.07728 0.97808 0.0
C1306 C 0.86496 0.06096 0.96918 0.0
C1307 C 0.8871 0.02043 0.97324 0.0
C1308 C 0.89091 -0.00269 0.98721 0.0
C1309 C 0.86664 0.03574 0.98057 0.0
C1310 C 0.87224 0.98766 0.00648 0.0
C1311 C 0.85092 0.00194 0.01292 0.0
H1312 H 0.34093 0.45732 0.99287 0.0
H1313 H 0.34068 0.43043 0.07394 0.0
H1314 H 0.38948 0.45307 0.08245 0.0
H1315 H 0.43201 0.48119 0.06662 0.0
H1316 H 0.43219 0.5044 0.98418 0.0
H1317 H 0.38343 0.48258 0.97626 0.0
C1318 C 0.35155 0.45648 0.01245 0.0
C1319 C 0.33729 0.44262 0.03292 0.0
C1320 C 0.37948 0.46891 0.01686 0.0
C1321 C 0.35134 0.44108 0.05794 0.0
C1322 C 0.37913 0.45408 0.0628 0.0
C1323 C 0.42122 0.48146 0.04701 0.0
C1324 C 0.43536 0.49445 0.02599 0.0
C1325 C 0.39336 0.46819 0.04244 0.0
C1326 C 0.42156 0.49438 0.0005 0.0
C1327 C 0.39374 0.48199 -0.00396 0.0
H1328 H 0.30061 0.5963 0.73932 0.0
H1329 H 0.3835 0.64169 0.76266 0.0
H1330 H 0.3668 0.68582 0.77493 0.0
H1331 H 0.32912 0.71226 0.77585 0.0
H1332 H 0.24633 0.66698 0.75153 0.0
H1333 H 0.26252 0.6221 0.7433 0.0
C1334 C 0.31501 0.6158 0.74725 0.0
C1335 C 0.34328 0.61572 0.7498 0.0
C1336 C 0.30529 0.64117 0.75416 0.0
C1337 C 0.36163 0.64116 0.76031 0.0
C1338 C 0.35211 0.66643 0.76736 0.0
C1339 C 0.31451 0.69252 0.76922 0.0
C1340 C 0.28656 0.69311 0.76418 0.0
C1341 C 0.32402 0.66679 0.76397 0.0
C1342 C 0.26799 0.66726 0.75547 0.0
C1343 C 0.27724 0.64154 0.75063 0.0
H1344 H 0.19538 0.59344 0.47636 0.0
H1345 H 0.18023 0.67511 0.51176 0.0
H1346 H 0.13225 0.65326 0.51702 0.0
H1347 H 0.09455 0.61087 0.51081 0.0
H1348 H 0.10967 0.53025 0.47289 0.0
H1349 H 0.15817 0.55159 0.47003 0.0
C1350 C 0.18157 0.60651 0.48515 0.0
C1351 C 0.19123 0.63579 0.49364 0.0
C1352 C 0.15424 0.59387 0.4881 0.0
C1353 C 0.17314 0.65252 0.5049 0.0
C1354 C 0.14582 0.64001 0.50811 0.0
C1355 C 0.10871 0.59797 0.50249 0.0
C1356 C 0.09901 0.56907 0.49247 0.0
C1357 C 0.1362 0.61068 0.49988 0.0
C1358 C 0.11705 0.55253 0.48096 0.0
C1359 C 0.1446 0.56473 0.47913 0.0
H1360 H 0.67218 0.93689 0.78284 0.0
H1361 H 0.71225 0.96149 0.71022 0.0
H1362 H 0.74696 0.9332 0.71865 0.0
H1363 H 0.76329 0.89797 0.74432 0.0
H1364 H 0.72459 0.87489 0.81806 0.0
H1365 H 0.6924 0.90663 0.81201 0.0
C1366 C 0.68865 0.93614 0.76904 0.0
C1367 C 0.68951 0.95075 0.74576 0.0
C1368 C 0.70884 0.92029 0.7743 0.0
C1369 C 0.71117 0.95021 0.72823 0.0
C1370 C 0.731 0.93406 0.73301 0.0
C1371 C 0.7482 0.90044 0.75936 0.0
C1372 C 0.74606 0.88405 0.7814 0.0
C1373 C 0.72972 0.91859 0.75568 0.0
C1374 C 0.72658 0.88741 0.80091 0.0
C1375 C 0.70801 0.90533 0.79733 0.0
H1376 H 0.69778 0.94988 0.53259 0.0
H1377 H 0.64172 0.86852 0.52919 0.0
H1378 H 0.60266 0.89238 0.52573 0.0
H1379 H 0.58459 0.93602 0.52215 0.0
H1380 H 0.64046 0.01721 0.52415 0.0
H1381 H 0.67964 0.99373 0.52987 0.0
C1382 C 0.67702 0.93736 0.53122 0.0
C1383 C 0.67264 0.90743 0.53107 0.0
C1384 C 0.65472 0.95117 0.52894 0.0
C1385 C 0.64563 0.89154 0.52925 0.0
C1386 C 0.62331 0.90517 0.52728 0.0
C1387 C 0.60536 0.94859 0.52392 0.0
C1388 C 0.60976 0.97824 0.5226 0.0
C1389 C 0.62764 0.93491 0.52686 0.0
C1390 C 0.63667 0.99432 0.525 0.0
C1391 C 0.65901 0.9809 0.52825 0.0
H1392 H 0.35695 0.42439 0.74049 0.0
H1393 H 0.29439 0.4557 0.69656 0.0
H1394 H 0.26045 0.41276 0.70313 0.0
H1395 H 0.24892 0.36623 0.72164 0.0
H1396 H 0.31068 0.33883 0.77066 0.0
H1397 H 0.34473 0.38023 0.76182 0.0
C1398 C 0.3359 0.42163 0.73219 0.0
C1399 C 0.32812 0.4427 0.71766 0.0
C1400 C 0.31648 0.39763 0.73701 0.0
C1401 C 0.30073 0.43949 0.70763 0.0
C1402 C 0.28141 0.41502 0.71142 0.0
C1403 C 0.26983 0.36942 0.73038 0.0
C1404 C 0.27756 0.34908 0.74606 0.0
C1405 C 0.28906 0.39396 0.72613 0.0
C1406 C 0.30451 0.35372 0.7578 0.0
C1407 C 0.32394 0.37749 0.75292 0.0
H1408 H 0.16984 0.58688 0.24089 0.0
H1409 H 0.12457 0.60584 0.17062 0.0
H1410 H 0.14956 0.65563 0.17806 0.0
H1411 H 0.1857 0.69291 0.20334 0.0
H1412 H 0.23012 0.67358 0.2741 0.0
H1413 H 0.20367 0.62465 0.26775 0.0
C1414 C 0.16543 0.60188 0.22714 0.0
C1415 C 0.14569 0.59264 0.20499 0.0
C1416 C 0.17964 0.63033 0.23167 0.0
C1417 C 0.13978 0.61245 0.18774 0.0
C1418 C 0.15408 0.64086 0.19196 0.0
C1419 C 0.18954 0.67803 0.21745 0.0
C1420 C 0.21007 0.68681 0.239 0.0
C1421 C 0.17427 0.64991 0.21368 0.0
C1422 C 0.21448 0.6674 0.25734 0.0
C1423 C 0.19945 0.63937 0.25366 0.0
H1424 H 0.51184 0.66118 0.40506 0.0
H1425 H 0.43933 0.67606 0.44506 0.0
H1426 H 0.44202 0.63722 0.47315 0.0
H1427 H 0.46497 0.59861 0.48563 0.0
H1428 H 0.53989 0.58716 0.44807 0.0
H1429 H 0.53667 0.62552 0.42008 0.0
C1430 C 0.49656 0.65574 0.41985 0.0
C1431 C 0.4751 0.67088 0.42272 0.0
C1432 C 0.49894 0.63433 0.43656 0.0
C1433 C 0.45584 0.66436 0.44241 0.0
C1434 C 0.45745 0.64228 0.45847 0.0
C1435 C 0.48072 0.60473 0.47151 0.0
C1436 C 0.50261 0.59001 0.46888 0.0
C1437 C 0.47894 0.6271 0.45569 0.0
C1438 C 0.52296 0.59828 0.45065 0.0
C1439 C 0.52103 0.62006 0.43446 0.0
H1440 H 0.64294 0.32672 0.67055 0.0
H1441 H 0.58855 0.29638 0.73223 0.0
H1442 H 0.62741 0.29032 0.761 0.0
H1443 H 0.67641 0.29036 0.7675 0.0
H1444 H 0.73189 0.32364 0.70817 0.0
H1445 H 0.6932 0.33173 0.67963 0.0
C1446 C 0.63969 0.31905 0.6904 0.0
C1447 C 0.61283 0.31167 0.699 0.0
C1448 C 0.66229 0.31584 0.70716 0.0
C1449 C 0.60895 0.30208 0.72495 0.0
C1450 C 0.63118 0.29852 0.74147 0.0
C1451 C 0.68004 0.29963 0.74845 0.0
C1452 C 0.70675 0.30558 0.73947 0.0
C1453 C 0.65785 0.30482 0.73258 0.0
C1454 C 0.7113 0.31813 0.71506 0.0
C1455 C 0.68922 0.32289 0.69883 0.0
H1456 H 0.97397 0.36076 0.87934 0.0
H1457 H 0.00855 0.32146 0.94361 0.0
H1458 H 0.01269 0.36552 0.97529 0.0
H1459 H 0.0092 0.41617 0.98358 0.0
H1460 H 0.97129 0.45444 0.92065 0.0
H1461 H 0.96525 0.4097 0.88954 0.0
C1462 C 0.98221 0.36191 0.90036 0.0
C1463 C 0.9913 0.33826 0.90918 0.0
C1464 C 0.98384 0.387 0.91859 0.0
C1465 C 0.0015 0.33957 0.9365 0.0
C1466 C 0.00392 0.36471 0.95454 0.0
C1467 C -0.0007 0.41448 0.96316 0.0
C1468 C 0.99086 0.43837 0.95419 0.0
C1469 C -0.00445 0.38867 0.94567 0.0
C1470 C 0.97779 0.43612 0.92791 0.0
C1471 C 0.97453 0.41066 0.9101 0.0
H1472 H 0.95146 0.7903 0.1775 0.0
H1473 H 0.97843 0.74298 0.23977 0.0
H1474 H 0.9347 0.74075 0.26094 0.0
H1475 H 0.88812 0.75071 0.26116 0.0
H1476 H 0.86013 0.79645 0.19834 0.0
H1477 H 0.90493 0.80113 0.17828 0.0
C1478 C 0.9478 0.77953 0.19572 0.0
C1479 C 0.96828 0.76673 0.20687 0.0
C1480 C 0.92241 0.77814 0.20782 0.0
C1481 C 0.96309 0.75291 0.23055 0.0
C1482 C 0.93806 0.75166 0.24279 0.0
C1483 C 0.89197 0.76198 0.24326 0.0
C1484 C 0.87096 0.77325 0.23124 0.0
C1485 C 0.91752 0.76404 0.23154 0.0
C1486 C 0.87606 0.78759 0.20793 0.0
C1487 C 0.90162 0.79018 0.19641 0.0
H1488 H 0.48448 0.33338 0.04511 0.0
H1489 H 0.52631 0.37788 0.12113 0.0
H1490 H 0.53219 0.42311 0.10186 0.0
H1491 H 0.5247 0.45017 0.06439 0.0
H1492 H 0.48111 0.40746 0.9886 0.0
H1493 H 0.47669 0.3613 0.00685 0.0
C1494 C 0.49497 0.35299 0.05736 0.0
C1495 C 0.50495 0.35226 0.08453 0.0
C1496 C 0.49793 0.37918 0.04625 0.0
C1497 C 0.51833 0.37784 0.10023 0.0
C1498 C 0.52175 0.40374 0.08923 0.0
C1499 C 0.51439 0.43081 0.05162 0.0
C1500 C 0.50341 0.43229 0.02505 0.0
C1501 C 0.51153 0.40466 0.06237 0.0
C1502 C 0.48981 0.40693 0.0091 0.0
C1503 C 0.48727 0.38055 0.01954 0.0
H1504 H 0.93686 0.27367 0.3722 0.0
H1505 H 0.97469 0.30488 0.3006 0.0
H1506 H 0.93014 0.3074 0.28022 0.0
H1507 H 0.88032 0.29959 0.2816 0.0
H1508 H 0.84131 0.26757 0.352 0.0
H1509 H 0.88629 0.26697 0.37406 0.0
C1510 C 0.93531 0.28093 0.35213 0.0
C1511 C 0.9592 0.28895 0.33802 0.0
C1512 C 0.9094 0.28245 0.34032 0.0
C1513 C 0.95677 0.29853 0.31206 0.0
C1514 C 0.93124 0.30006 0.30029 0.0
C1515 C 0.8817 0.29282 0.30192 0.0
C1516 C 0.85766 0.28371 0.3152 0.0
C1517 C 0.90745 0.29203 0.31416 0.0
C1518 C 0.85965 0.27482 0.34144 0.0
C1519 C 0.88533 0.2743 0.35398 0.0
H1520 H 0.98099 0.70167 0.54988 0.0
H1521 H 0.00764 0.65765 0.6152 0.0
H1522 H 0.01235 0.61779 0.58215 0.0
H1523 H 0.01365 0.59744 0.53488 0.0
H1524 H 0.98289 0.63678 0.46866 0.0
H1525 H 0.97578 0.6769 0.50176 0.0
C1526 C 0.98739 0.68317 0.55688 0.0
C1527 C -0.00553 0.68313 0.58505 0.0
C1528 C 0.98986 0.65974 0.5376 0.0
C1529 C 0.00244 0.65872 0.59372 0.0
C1530 C 0.00525 0.63579 0.57481 0.0
C1531 C 0.00462 0.61431 0.52769 0.0
C1532 C -0.00137 0.61408 0.49949 0.0
C1533 C -0.00026 0.63643 0.54674 0.0
C1534 C 0.98763 0.63653 0.49038 0.0
C1535 C 0.98356 0.6594 0.50929 0.0
H1536 H 0.59884 0.76973 0.81437 0.0
H1537 H 0.62538 0.72472 0.87861 0.0
H1538 H 0.66788 0.7218 0.85574 0.0
H1539 H 0.69835 0.73427 0.81885 0.0
H1540 H 0.67398 0.7837 0.75737 0.0
H1541 H 0.62946 0.78245 0.77758 0.0
C1542 C 0.61385 0.75909 0.82323 0.0
C1543 C 0.60904 0.74736 0.84806 0.0
C1544 C 0.63849 0.75826 0.81041 0.0
C1545 C 0.62876 0.73398 0.85955 0.0
C1546 C 0.65297 0.73225 0.84646 0.0
C1547 C 0.68305 0.74428 0.80959 0.0
C1548 C 0.6891 0.75868 0.78645 0.0
C1549 C 0.65814 0.74454 0.82203 0.0
C1550 C 0.66954 0.77231 0.77507 0.0
C1551 C 0.64421 0.77169 0.78668 0.0
H1552 H 0.45087 0.56916 0.66198 0.0
H1553 H 0.37669 0.51761 0.62053 0.0
H1554 H 0.39995 0.51358 0.57757 0.0
H1555 H 0.44252 0.52166 0.55289 0.0
H1556 H 0.5159 0.57542 0.59356 0.0
H1557 H 0.49182 0.58192 0.63571 0.0
C1558 C 0.43978 0.55725 0.64346 0.0
C1559 C 0.41225 0.54338 0.64446 0.0
C1560 C 0.45317 0.55536 0.61878 0.0
C1561 C 0.39792 0.5284 0.62027 0.0
C1562 C 0.41124 0.526 0.59574 0.0
C1563 C 0.45307 0.53507 0.57089 0.0
C1564 C 0.48095 0.54777 0.57028 0.0
C1565 C 0.439 0.53893 0.59491 0.0
C1566 C 0.49441 0.5654 0.59358 0.0
C1567 C 0.4807 0.56899 0.61771 0.0
H1568 H 0.7653 0.22376 0.94539 0.0
H1569 H 0.82043 0.17029 0.91381 0.0
H1570 H 0.82527 0.19505 0.87281 0.0
H1571 H 0.81033 0.22854 0.84416 0.0
H1572 H 0.75273 0.27966 0.87376 0.0
H1573 H 0.75242 0.25942 0.91753 0.0
C1574 C 0.77867 0.21784 0.9297 0.0
C1575 C 0.7924 0.19516 0.93252 0.0
C1576 C 0.78073 0.23162 0.90583 0.0
C1577 C 0.80951 0.18755 0.91198 0.0
C1578 C 0.81228 0.20168 0.88856 0.0
C1579 C 0.79813 0.23559 0.86038 0.0
C1580 C 0.78161 0.25547 0.85583 0.0
C1581 C 0.79748 0.22325 0.88499 0.0
C1582 C 0.76562 0.26433 0.87687 0.0
C1583 C 0.76538 0.25269 0.90181 0.0
H1584 H 0.05869 0.44432 0.13706 0.0
H1585 H 0.13323 0.49151 0.1086 0.0
H1586 H 0.10702 0.50409 0.07043 0.0
H1587 H 0.06264 0.50934 0.05125 0.0
H1588 H 0.98779 0.46018 0.07663 0.0
H1589 H 0.01446 0.44151 0.11114 0.0
C1590 C 0.06925 0.45665 0.12201 0.0
C1591 C 0.09769 0.46768 0.12603 0.0
C1592 C 0.05399 0.46421 0.10037 0.0
C1593 C 0.11131 0.4831 0.10616 0.0
C1594 C 0.0963 0.49057 0.08451 0.0
C1595 C 0.05217 0.4937 0.06357 0.0
C1596 C 0.02341 0.48603 0.06147 0.0
C1597 C 0.06758 0.48248 0.08237 0.0
C1598 C 0.00999 0.4664 0.07807 0.0
C1599 C 0.02522 0.4557 0.09764 0.0
H1600 H 0.78016 0.86297 0.42108 0.0
H1601 H 0.72194 0.79454 0.44848 0.0
H1602 H 0.72498 0.7638 0.40567 0.0
H1603 H 0.74179 0.75789 0.35916 0.0
H1604 H 0.80242 0.82512 0.33303 0.0
H1605 H 0.80142 0.85475 0.37694 0.0
C1606 C 0.76831 0.84124 0.41765 0.0
C1607 C 0.75051 0.83104 0.43751 0.0
C1608 C 0.77075 0.82354 0.39339 0.0
C1609 C 0.73564 0.80276 0.4333 0.0
C1610 C 0.73737 0.78525 0.40887 0.0
C1611 C 0.75512 0.77884 0.36333 0.0
C1612 C 0.77204 0.78945 0.34294 0.0
C1613 C 0.75453 0.79559 0.38862 0.0
C1614 C 0.78939 0.81647 0.34855 0.0
C1615 C 0.78861 0.8335 0.37351 0.0
H1616 H 0.44893 0.48259 0.79332 0.0
H1617 H 0.40184 0.54723 0.81707 0.0
H1618 H 0.41206 0.54358 0.86561 0.0
H1619 H 0.43556 0.52295 0.90129 0.0
H1620 H 0.48268 0.45854 0.87716 0.0
H1621 H 0.47082 0.4608 0.8287 0.0
C1622 C 0.44098 0.49601 0.80908 0.0
C1623 C 0.42487 0.51537 0.80154 0.0
C1624 C 0.44669 0.4936 0.83687 0.0
C1625 C 0.41441 0.53226 0.82228 0.0
C1626 C 0.42018 0.53013 0.85005 0.0
C1627 C 0.44287 0.50913 0.8854 0.0
C1628 C 0.4599 0.49056 0.89269 0.0
C1629 C 0.43635 0.51091 0.85757 0.0
C1630 C 0.46946 0.47293 0.87198 0.0
C1631 C 0.46283 0.47435 0.8443 0.0
H1632 H 0.7475 0.15377 0.11127 0.0
H1633 H 0.81318 0.21138 0.0794 0.0
H1634 H 0.8176 0.24408 0.12234 0.0
H1635 H 0.8029 0.25561 0.16977 0.0
H1636 H 0.73682 0.19641 0.19947 0.0
H1637 H 0.73228 0.16541 0.15648 0.0
C1638 C 0.76293 0.17339 0.11363 0.0
C1639 C 0.78014 0.17995 0.09226 0.0
C1640 C 0.76511 0.19204 0.138 0.0
C1641 C 0.79973 0.20573 0.09564 0.0
C1642 C 0.80222 0.22446 0.12016 0.0
C1643 C 0.78738 0.23608 0.16659 0.0
C1644 C 0.77012 0.22851 0.18779 0.0
C1645 C 0.78499 0.21782 0.14157 0.0
C1646 C 0.75021 0.20302 0.1835 0.0
C1647 C 0.74766 0.18505 0.15892 0.0
H1648 H 0.10009 0.52885 0.29188 0.0
H1649 H 0.02096 0.4814 0.25807 0.0
H1650 H 0.00137 0.48968 0.30269 0.0
H1651 H 0.00679 0.51142 0.35101 0.0
H1652 H 0.08515 0.56222 0.38341 0.0
H1653 H 0.10508 0.55198 0.33949 0.0
C1654 C 0.07865 0.52006 0.29447 0.0
C1655 C 0.06198 0.50425 0.27209 0.0
C1656 C 0.0674 0.52586 0.31972 0.0
C1657 C 0.0341 0.4935 0.27526 0.0
C1658 C 0.02292 0.49831 0.30065 0.0
C1659 C 0.02818 0.52032 0.34831 0.0
C1660 C 0.04455 0.53751 0.37018 0.0
C1661 C 0.03934 0.51469 0.32294 0.0
C1662 C 0.07218 0.54907 0.36664 0.0
C1663 C 0.08361 0.54309 0.34165 0.0
H1664 H 0.77129 0.85379 0.62786 0.0
H1665 H 0.72153 0.77958 0.57976 0.0
H1666 H 0.72024 0.753 0.61963 0.0
H1667 H 0.73359 0.75077 0.6685 0.0
H1668 H 0.78546 0.82456 0.71511 0.0
H1669 H 0.78522 0.85135 0.67584 0.0
C1670 C 0.76017 0.83179 0.62606 0.0
C1671 C 0.74654 0.81874 0.60084 0.0
C1672 C 0.75967 0.81657 0.64899 0.0
C1673 C 0.7323 0.79016 0.5989 0.0
C1674 C 0.73148 0.77494 0.62174 0.0
C1675 C 0.74466 0.77276 0.67003 0.0
C1676 C 0.75904 0.78583 0.69493 0.0
C1677 C 0.74509 0.78792 0.64694 0.0
C1678 C 0.77364 0.81421 0.69648 0.0
C1679 C 0.77375 0.8295 0.6739 0.0
H1680 H 0.67402 0.45003 0.53999 0.0
H1681 H 0.69876 0.48009 0.46337 0.0
H1682 H 0.66461 0.51071 0.46558 0.0
H1683 H 0.62434 0.52442 0.48685 0.0
H1684 H 0.60105 0.49585 0.56456 0.0
H1685 H 0.63865 0.46984 0.56493 0.0
C1686 C 0.67199 0.46353 0.52398 0.0
C1687 C 0.6882 0.46255 0.5013 0.0
C1688 C 0.65282 0.48143 0.52571 0.0
C1689 C 0.68613 0.48047 0.48088 0.0
C1690 C 0.66669 0.49793 0.48215 0.0
C1691 C 0.62803 0.51312 0.50418 0.0
C1692 C 0.6099 0.51161 0.52541 0.0
C1693 C 0.64949 0.49803 0.50414 0.0
C1694 C 0.61481 0.49717 0.54792 0.0
C1695 C 0.6361 0.48207 0.54804 0.0
H1696 H 0.1507 0.12711 0.50024 0.0
H1697 H 0.17653 0.06261 0.44449 0.0
H1698 H 0.13211 0.03038 0.44651 0.0
H1699 H 0.08583 0.02066 0.46441 0.0
H1700 H 0.06165 0.08468 0.5222 0.0
H1701 H 0.10565 0.11677 0.51948 0.0
C1702 C 0.14647 0.10613 0.48828 0.0
C1703 C 0.16661 0.09735 0.47191 0.0
C1704 C 0.12132 0.08748 0.49023 0.0
C1705 C 0.16116 0.06986 0.45705 0.0
C1706 C 0.13585 0.05141 0.45831 0.0
C1707 C 0.09035 0.04153 0.47656 0.0
C1708 C 0.07049 0.05035 0.49333 0.0
C1709 C 0.11582 0.05994 0.47496 0.0
C1710 C 0.07659 0.07742 0.50906 0.0
C1711 C 0.1017 0.09586 0.50743 0.0
H1712 H 0.17416 0.91455 0.73291 0.0
H1713 H 0.21882 0.95912 0.80726 0.0
H1714 H 0.24909 0.92426 0.80567 0.0
H1715 H 0.26074 0.87882 0.78456 0.0
H1716 H 0.2166 0.83615 0.70902 0.0
H1717 H 0.18885 0.87274 0.70935 0.0
C1718 C 0.19056 0.91665 0.74873 0.0
C1719 C 0.19396 0.93908 0.77039 0.0
C1720 C 0.20821 0.89694 0.74734 0.0
C1721 C 0.21567 0.94189 0.79045 0.0
C1722 C 0.23301 0.92198 0.78953 0.0
C1723 C 0.24557 0.87799 0.76782 0.0
C1724 C 0.2407 0.85461 0.7469 0.0
C1725 C 0.2293 0.89916 0.7682 0.0
C1726 C 0.22071 0.85376 0.72549 0.0
C1727 C 0.20466 0.87462 0.72571 0.0
H1728 H 0.32629 0.97318 0.94735 0.0
H1729 H 0.31882 0.95194 0.03039 0.0
H1730 H 0.36865 0.96538 0.03911 0.0
H1731 H 0.41425 0.98262 0.02295 0.0
H1732 H 0.42187 0.00136 0.93913 0.0
H1733 H 0.37195 0.98936 0.93087 0.0
C1734 C 0.33557 0.97166 0.9674 0.0
C1735 C 0.31896 0.96177 0.98824 0.0
C1736 C 0.3642 0.97886 0.97208 0.0
C1737 C 0.33124 0.95948 0.014 0.0
C1738 C 0.35969 0.96718 0.01901 0.0
C1739 C 0.40497 0.98418 0.00291 0.0
C1740 C 0.42164 0.99293 0.98171 0.0
C1741 C 0.37635 0.97681 -0.00182 0.0
C1742 C 0.40941 0.99454 0.95575 0.0
C1743 C 0.3809 0.98777 0.95103 0.0
H1744 H 0.8301 0.57684 0.75566 0.0
H1745 H 0.88722 0.62539 0.82036 0.0
H1746 H 0.86043 0.66318 0.82397 0.0
H1747 H 0.82462 0.68491 0.80473 0.0
H1748 H 0.76963 0.63871 0.73736 0.0
H1749 H 0.79155 0.59719 0.73889 0.0
C1750 C 0.83628 0.5954 0.77098 0.0
C1751 C 0.86062 0.59847 0.78767 0.0
C1752 C 0.8214 0.61753 0.77214 0.0
C1753 C 0.86862 0.62269 0.80723 0.0
C1754 C 0.85338 0.64431 0.80922 0.0
C1755 C 0.8172 0.66561 0.79058 0.0
C1756 C 0.79585 0.66485 0.77071 0.0
C1757 C 0.83036 0.64238 0.79112 0.0
C1758 C 0.7862 0.63973 0.75269 0.0
C1759 C 0.79877 0.61609 0.75355 0.0
H1760 H 0.81192 0.54908 0.01014 0.0
H1761 H 0.84219 0.62631 0.97396 0.0
H1762 H 0.88771 0.61424 0.97218 0.0
H1763 H 0.9192 0.58216 0.98184 0.0
H1764 H 0.88856 0.50525 0.01818 0.0
H1765 H 0.84284 0.51682 0.01891 0.0
C1766 C 0.82841 0.56329 0.00179 0.0
C1767 C 0.82362 0.5886 0.99228 0.0
C1768 C 0.85449 0.55631 0.00089 0.0
C1769 C 0.84528 0.60669 0.98147 0.0
C1770 C 0.87134 0.59983 0.98045 0.0
C1771 C 0.90245 0.56796 0.98984 0.0
C1772 C 0.90714 0.54297 0.0 0.0
C1773 C 0.87622 0.57478 0.99025 0.0
C1774 C 0.88537 0.52465 0.01028 0.0
C1775 C 0.85925 0.53124 0.01072 0.0
H1776 H 0.15224 0.12139 0.76059 0.0
H1777 H 0.21014 0.08509 0.80622 0.0
H1778 H 0.24512 0.12876 0.80555 0.0
H1779 H 0.25954 0.17687 0.79026 0.0
H1780 H 0.20152 0.20988 0.74135 0.0
H1781 H 0.16628 0.16799 0.74522 0.0
C1782 C 0.17239 0.12304 0.7707 0.0
C1783 C 0.17849 0.10008 0.7836 0.0
C1784 C 0.19244 0.14766 0.76955 0.0
C1785 C 0.2049 0.1025 0.79619 0.0
C1786 C 0.2249 0.12743 0.79576 0.0
C1787 C 0.23914 0.17482 0.78058 0.0
C1788 C 0.23304 0.1966 0.76584 0.0
C1789 C 0.21899 0.15007 0.78221 0.0
C1790 C 0.20666 0.19361 0.7531 0.0
C1791 C 0.18647 0.16959 0.75521 0.0
H1792 H 0.38388 0.93193 0.22367 0.0
H1793 H 0.38302 0.94884 0.31183 0.0
H1794 H 0.35338 0.90195 0.31331 0.0
H1795 H 0.32523 0.85761 0.28905 0.0
H1796 H 0.32208 0.84331 0.2004 0.0
H1797 H 0.35567 0.88768 0.19941 0.0
C1798 C 0.37751 0.92503 0.24317 0.0
C1799 C 0.38568 0.9434 0.26763 0.0
C1800 C 0.3595 0.89873 0.24368 0.0
C1801 C 0.37693 0.93477 0.29281 0.0
C1802 C 0.35997 0.90809 0.29363 0.0
C1803 C 0.3321 0.86419 0.26958 0.0
C1804 C 0.32127 0.84743 0.24485 0.0
C1805 C 0.35072 0.89012 0.26914 0.0
C1806 C 0.33002 0.85615 0.21968 0.0
C1807 C 0.34927 0.8814 0.21911 0.0
H1808 H 0.48705 0.36563 0.60546 0.0
H1809 H 0.5633 0.35483 0.57057 0.0
H1810 H 0.5589 0.39022 0.53941 0.0
H1811 H 0.53439 0.42562 0.52326 0.0
H1812 H 0.45693 0.435 0.55626 0.0
H1813 H 0.46051 0.39849 0.5865 0.0
C1814 C 0.50265 0.37106 0.591 0.0
C1815 C 0.52561 0.35787 0.59052 0.0
C1816 C 0.49968 0.39101 0.57264 0.0
C1817 C 0.54546 0.36472 0.57138 0.0
C1818 C 0.54297 0.38496 0.55355 0.0
C1819 C 0.51813 0.41945 0.53685 0.0
C1820 C 0.49549 0.43312 0.53755 0.0
C1821 C 0.52027 0.39839 0.55412 0.0
C1822 C 0.47451 0.42472 0.55515 0.0
C1823 C 0.47665 0.40398 0.57264 0.0
H1824 H 0.42509 0.76821 0.27218 0.0
H1825 H 0.38837 0.71714 0.3333 0.0
H1826 H 0.34334 0.71029 0.30829 0.0
H1827 H 0.31406 0.72164 0.27023 0.0
H1828 H 0.35217 0.77471 0.21132 0.0
H1829 H 0.39711 0.77762 0.23417 0.0
C1830 C 0.40733 0.75552 0.28021 0.0
C1831 C 0.41013 0.74347 0.30479 0.0
C1832 C 0.38169 0.75219 0.26615 0.0
C1833 C 0.38682 0.7268 0.3145 0.0
C1834 C 0.36105 0.723 0.30028 0.0
C1835 C 0.33223 0.73405 0.26271 0.0
C1836 C 0.32978 0.74851 0.23958 0.0
C1837 C 0.35816 0.73609 0.27634 0.0
C1838 C 0.35351 0.76354 0.22921 0.0
C1839 C 0.37922 0.76533 0.24232 0.0
H1840 H 0.07156 0.68142 0.12025 0.0
H1841 H 0.00745 0.71176 0.07741 0.0
H1842 H -0.00018 0.66886 0.04385 0.0
H1843 H 0.00974 0.62164 0.0281 0.0
H1844 H 0.0749 0.59201 0.07001 0.0
H1845 H 0.08394 0.63589 0.1023 0.0
C1846 C 0.05597 0.67868 0.10352 0.0
C1847 C 0.03989 0.69961 0.10151 0.0
C1848 C 0.05191 0.65412 0.08411 0.0
C1849 C 0.02008 0.69596 0.07946 0.0
C1850 C 0.01566 0.67141 0.06029 0.0
C1851 C 0.02606 0.62487 0.04418 0.0
C1852 C 0.04146 0.60347 0.04676 0.0
C1853 C 0.03122 0.65019 0.06262 0.0
C1854 C 0.06276 0.60814 0.0675 0.0
C1855 C 0.06785 0.63317 0.08609 0.0
H1856 H 0.04912 0.2514 0.8001 0.0
H1857 H 0.08426 0.22993 0.875 0.0
H1858 H 0.12863 0.23219 0.85461 0.0
H1859 H 0.15761 0.24193 0.81636 0.0
H1860 H 0.12411 0.26737 0.74269 0.0
H1861 H 0.0786 0.26172 0.76163 0.0
C1862 C 0.06648 0.24703 0.81183 0.0
C1863 C 0.06355 0.24041 0.83894 0.0
C1864 C 0.09206 0.24911 0.80022 0.0
C1865 C 0.08617 0.23514 0.85412 0.0
C1866 C 0.11146 0.23639 0.84247 0.0
C1867 C 0.14028 0.246 0.80434 0.0
C1868 C 0.14397 0.25488 0.77817 0.0
C1869 C 0.11465 0.24357 0.81567 0.0
C1870 C 0.12157 0.26046 0.7629 0.0
C1871 C 0.09566 0.25727 0.77373 0.0
H1872 H 0.52804 0.70037 0.96617 0.0
H1873 H 0.47874 0.66016 0.89262 0.0
H1874 H 0.47005 0.61463 0.91173 0.0
H1875 H 0.47959 0.58544 0.94735 0.0
H1876 H 0.5303 0.62485 0.02034 0.0
H1877 H 0.53495 0.67154 0.00352 0.0
C1878 C 0.51506 0.68175 0.95447 0.0
C1879 C 0.50419 0.68368 0.92789 0.0
C1880 C 0.51053 0.65544 0.9654 0.0
C1881 C 0.48746 0.6593 0.91304 0.0
C1882 C 0.48253 0.63321 0.92394 0.0
C1883 C 0.49149 0.60422 0.95981 0.0
C1884 C 0.50479 0.60145 0.98503 0.0
C1885 C 0.49447 0.6309 0.94981 0.0
C1886 C 0.51985 0.62621 0.00086 0.0
C1887 C 0.52263 0.65295 0.99118 0.0
H1888 H 0.06819 0.75966 0.6901 0.0
H1889 H 0.1065 0.78761 0.61768 0.0
H1890 H 0.14936 0.77464 0.63347 0.0
H1891 H 0.17633 0.75793 0.66932 0.0
H1892 H 0.13694 0.7289 0.74085 0.0
H1893 H 0.09348 0.73869 0.72329 0.0
C1894 C 0.08582 0.76281 0.67764 0.0
C1895 C 0.08434 0.77487 0.65291 0.0
C1896 C 0.10996 0.75471 0.68648 0.0
C1897 C 0.1073 0.77856 0.63691 0.0
C1898 C 0.1317 0.77105 0.64586 0.0
C1899 C 0.15806 0.75318 0.68074 0.0
C1900 C 0.15974 0.7429 0.70638 0.0
C1901 C 0.1333 0.75933 0.67074 0.0
C1902 C 0.13605 0.73681 0.72104 0.0
C1903 C 0.1113 0.74266 0.71115 0.0
H1904 H 0.04405 0.3926 0.3968 0.0
H1905 H 0.05257 0.35378 0.4711 0.0
H1906 H 0.04716 0.39794 0.49879 0.0
H1907 H 0.03735 0.44657 0.50157 0.0
H1908 H 0.02464 0.48334 0.42696 0.0
H1909 H 0.03437 0.441 0.39953 0.0
C1910 C 0.04516 0.39396 0.41908 0.0
C1911 C 0.04895 0.3701 0.43195 0.0
C1912 C 0.04099 0.41893 0.43471 0.0
C1913 C 0.04976 0.37193 0.46078 0.0
C1914 C 0.04659 0.39711 0.47658 0.0
C1915 C 0.03686 0.44531 0.4793 0.0
C1916 C 0.03025 0.46792 0.46617 0.0
C1917 C 0.04175 0.42057 0.46373 0.0
C1918 C 0.0295 0.46606 0.43739 0.0
C1919 C 0.03513 0.44191 0.42176 0.0
H1920 H 0.42559 0.24731 0.21934 0.0
H1921 H 0.4096 0.29506 0.15293 0.0
H1922 H 0.36924 0.30692 0.17528 0.0
H1923 H 0.33655 0.30031 0.21215 0.0
H1924 H 0.35249 0.25042 0.2767 0.0
H1925 H 0.39535 0.24333 0.25692 0.0
C1926 C 0.41335 0.26033 0.20962 0.0
C1927 C 0.42037 0.2699 0.18426 0.0
C1928 C 0.39037 0.26694 0.22248 0.0
C1929 C 0.40449 0.28717 0.17232 0.0
C1930 C 0.38147 0.29402 0.18513 0.0
C1931 C 0.34991 0.28863 0.2222 0.0
C1932 C 0.34174 0.2761 0.24592 0.0
C1933 C 0.37402 0.2837 0.21007 0.0
C1934 C 0.35865 0.26037 0.25852 0.0
C1935 C 0.38297 0.25612 0.24711 0.0
H1936 H 0.53827 0.463 0.33519 0.0
H1937 H 0.61574 0.50938 0.37385 0.0
H1938 H 0.59624 0.50899 0.41917 0.0
H1939 H 0.5553 0.49999 0.44684 0.0
H1940 H 0.47883 0.45094 0.4079 0.0
H1941 H 0.49974 0.44753 0.3637 0.0
C1942 C 0.55102 0.4724 0.35366 0.0
C1943 C 0.57833 0.48623 0.35132 0.0
C1944 C 0.53972 0.47188 0.3795 0.0
C1945 C 0.59473 0.49838 0.37527 0.0
C1946 C 0.5835 0.49838 0.4011 0.0
C1947 C 0.54342 0.48816 0.42876 0.0
C1948 C 0.51546 0.47606 0.4306 0.0
C1949 C 0.55575 0.4859 0.40337 0.0
C1950 C 0.50034 0.46052 0.40707 0.0
C1951 C 0.51226 0.45865 0.38172 0.0
H1952 H 0.19512 0.84034 0.06934 0.0
H1953 H 0.28222 0.8618 0.05874 0.0
H1954 H 0.29084 0.82953 0.09159 0.0
H1955 H 0.27433 0.79815 0.12548 0.0
H1956 H 0.18818 0.78 0.14063 0.0
H1957 H 0.17826 0.80759 0.10347 0.0
C1958 C 0.21592 0.83774 0.07418 0.0
C1959 C 0.23804 0.85348 0.06183 0.0
C1960 C 0.22083 0.81969 0.09374 0.0
C1961 C 0.26492 0.85014 0.06827 0.0
C1962 C 0.26986 0.83159 0.08692 0.0
C1963 C 0.25329 0.79975 0.12031 0.0
C1964 C 0.23197 0.78705 0.13556 0.0
C1965 C 0.24805 0.81662 0.10002 0.0
C1966 C 0.20487 0.78956 0.12895 0.0
C1967 C 0.19926 0.80547 0.10789 0.0
H1968 H 0.95409 0.54533 0.85052 0.0
H1969 H 0.0328 0.55224 0.81486 0.0
H1970 H 0.05566 0.556 0.86062 0.0
H1971 H 0.05264 0.55277 0.91026 0.0
H1972 H 0.9732 0.5403 0.94442 0.0
H1973 H 0.95124 0.54392 0.89996 0.0
C1974 C 0.97629 0.54807 0.85279 0.0
C1975 C 0.99173 0.5484 0.8294 0.0
C1976 C 0.98913 0.54928 0.87895 0.0
C1977 C 0.02045 0.5517 0.83261 0.0
C1978 C 0.03353 0.55388 0.85874 0.0
C1979 C 0.03062 0.55146 0.90801 0.0
C1980 C 0.0145 0.54665 0.93056 0.0
C1981 C 0.018 0.55208 0.882 0.0
C1982 C 0.98596 0.54442 0.92738 0.0
C1983 C 0.9734 0.54622 0.90192 0.0
H1984 H 0.27128 0.21103 0.57679 0.0
H1985 H 0.19529 0.15342 0.58745 0.0
H1986 H 0.19172 0.17962 0.6323 0.0
H1987 H 0.21176 0.21644 0.67004 0.0
H1988 H 0.28947 0.27206 0.66151 0.0
H1989 H 0.29067 0.2494 0.61438 0.0
C1990 C 0.25381 0.20449 0.58883 0.0
C1991 C 0.23367 0.18024 0.57885 0.0
C1992 C 0.25223 0.21925 0.61508 0.0
C1993 C 0.21123 0.17185 0.59477 0.0
C1994 C 0.20912 0.18685 0.62042 0.0
C1995 C 0.22874 0.22396 0.65773 0.0
C1996 C 0.25045 0.24594 0.66926 0.0
C1997 C 0.22973 0.21024 0.63101 0.0
C1998 C 0.2725 0.25512 0.65312 0.0
C1999 C 0.27324 0.24213 0.62619 0.0
H2000 H 0.63198 0.5067 0.17133 0.0
H2001 H 0.55631 0.49738 0.21288 0.0
H2002 H 0.53392 0.51496 0.17499 0.0
H2003 H 0.53516 0.53132 0.12926 0.0
H2004 H 0.60944 0.53715 0.08587 0.0
H2005 H 0.63325 0.52331 0.12542 0.0
C2006 C 0.61059 0.5085 0.17207 0.0
C2007 C 0.59586 0.50063 0.19491 0.0
C2008 C 0.59769 0.51839 0.15 0.0
C2009 C 0.56812 0.50307 0.1955 0.0
C2010 C 0.55531 0.51329 0.1739 0.0
C2011 C 0.55673 0.53017 0.12874 0.0
C2012 C 0.57072 0.53569 0.10494 0.0
C2013 C 0.56985 0.52095 0.15102 0.0
C2014 C 0.59841 0.53334 0.10417 0.0
C2015 C 0.61193 0.52519 0.12667 0.0
H2016 H 0.25865 0.88008 0.89789 0.0
H2017 H 0.18426 0.82959 0.92251 0.0
H2018 H 0.18716 0.79081 0.88588 0.0
H2019 H 0.20946 0.77358 0.84425 0.0
H2020 H 0.28466 0.82529 0.822 0.0
H2021 H 0.28334 0.86098 0.86082 0.0
C2022 C 0.2431 0.86053 0.8952 0.0
C2023 C 0.22094 0.85772 0.91212 0.0
C2024 C 0.24528 0.8385 0.87477 0.0
C2025 C 0.20128 0.83214 0.90924 0.0
C2026 C 0.20301 0.81007 0.88841 0.0
C2027 C 0.22584 0.79232 0.8484 0.0
C2028 C 0.24706 0.79689 0.83023 0.0
C2029 C 0.22474 0.81323 0.87072 0.0
C2030 C 0.26815 0.82128 0.83571 0.0
C2031 C 0.2673 0.84187 0.85776 0.0
H2032 H 0.9827 0.55917 0.69139 0.0
H2033 H 0.89991 0.56092 0.66265 0.0
H2034 H 0.9138 0.55985 0.61524 0.0
H2035 H 0.94879 0.55524 0.58192 0.0
H2036 H 0.03064 0.54996 0.61055 0.0
H2037 H 0.01786 0.55568 0.65827 0.0
C2038 C 0.96778 0.55968 0.67478 0.0
C2039 C 0.94035 0.56011 0.68038 0.0
C2040 C 0.97571 0.55819 0.64765 0.0
C2041 C 0.92114 0.5605 0.65872 0.0
C2042 C 0.92905 0.55984 0.63167 0.0
C2043 C 0.96382 0.55551 0.59866 0.0
C2044 C 0.9905 0.55203 0.59295 0.0
C2045 C 0.95615 0.55815 0.62588 0.0
C2046 C 0.00989 0.5524 0.61463 0.0
C2047 C 0.00262 0.55571 0.64184 0.0
H2048 H 0.25069 0.23289 0.43058 0.0
H2049 H 0.29672 0.16966 0.39977 0.0
H2050 H 0.30591 0.19356 0.35875 0.0
H2051 H 0.2982 0.23062 0.32995 0.0
H2052 H 0.25002 0.2921 0.35926 0.0
H2053 H 0.24466 0.27116 0.40263 0.0
C2054 C 0.26295 0.22452 0.415 0.0
C2055 C 0.27289 0.19944 0.41821 0.0
C2056 C 0.26767 0.23805 0.39109 0.0
C2057 C 0.28866 0.18881 0.39776 0.0
C2058 C 0.2939 0.20245 0.37423 0.0
C2059 C 0.28658 0.23935 0.3459 0.0
C2060 C 0.27438 0.26265 0.34158 0.0
C2061 C 0.28307 0.22674 0.37041 0.0
C2062 C 0.25973 0.27423 0.36242 0.0
C2063 C 0.25652 0.26215 0.38707 0.0
H2064 H 0.31066 0.55033 0.5238 0.0
H2065 H 0.34523 0.61713 0.47564 0.0
H2066 H 0.38052 0.59061 0.46131 0.0
H2067 H 0.40264 0.54972 0.46398 0.0
H2068 H 0.37086 0.48482 0.51502 0.0
H2069 H 0.33268 0.50891 0.52606 0.0
C2070 C 0.32589 0.55908 0.51014 0.0
C2071 C 0.32537 0.58573 0.5009 0.0
C2072 C 0.34628 0.54385 0.50216 0.0
C2073 C 0.34529 0.59679 0.48326 0.0
C2074 C 0.36537 0.58156 0.47488 0.0
C2075 C 0.387 0.54049 0.47702 0.0
C2076 C 0.3892 0.5154 0.48843 0.0
C2077 C 0.36609 0.55516 0.48429 0.0
C2078 C 0.36924 0.50396 0.50578 0.0
C2079 C 0.34766 0.51788 0.51229 0.0
H2080 H 0.82253 0.97976 0.52615 0.0
H2081 H 0.84439 0.89692 0.5252 0.0
H2082 H 0.89328 0.91937 0.52699 0.0
H2083 H 0.92956 0.96263 0.52706 0.0
H2084 H 0.9073 0.04549 0.53134 0.0
H2085 H 0.85854 0.02295 0.52963 0.0
C2086 C 0.83803 0.96664 0.52652 0.0
C2087 C 0.83 0.93676 0.52535 0.0
C2088 C 0.86587 0.97968 0.52778 0.0
C2089 C 0.85018 0.91999 0.52622 0.0
C2090 C 0.87806 0.93279 0.52702 0.0
C2091 C 0.91394 0.97563 0.52746 0.0
C2092 C 0.9217 0.00556 0.52887 0.0
C2093 C 0.88609 0.96258 0.52741 0.0
C2094 C 0.90156 0.02238 0.53005 0.0
C2095 C 0.87379 0.00953 0.52915 0.0
H2096 H 0.83386 0.1005 0.27437 0.0
H2097 H 0.77407 0.05633 0.21005 0.0
H2098 H 0.74829 0.09503 0.2163 0.0
H2099 H 0.74505 0.14351 0.23746 0.0
H2100 H 0.80501 0.18685 0.30219 0.0
H2101 H 0.82799 0.14627 0.29864 0.0
C2102 C 0.81506 0.09922 0.26185 0.0
C2103 C 0.8061 0.07572 0.24155 0.0
C2104 C 0.8003 0.12144 0.26566 0.0
C2105 C 0.78149 0.07422 0.22577 0.0
C2106 C 0.76676 0.09639 0.22931 0.0
C2107 C 0.76277 0.14382 0.25122 0.0
C2108 C 0.77335 0.16842 0.26991 0.0
C2109 C 0.77623 0.12039 0.24887 0.0
C2110 C 0.79646 0.16839 0.28745 0.0
C2111 C 0.80975 0.14519 0.28538 0.0
H2112 H 0.67966 0.11898 0.03087 0.0
H2113 H 0.69155 0.07558 0.95164 0.0
H2114 H 0.64679 0.04379 0.95189 0.0
H2115 H 0.60441 0.02887 0.97421 0.0
H2116 H 0.59198 0.07107 0.05388 0.0
H2117 H 0.63744 0.10212 0.05453 0.0
C2118 C 0.67211 0.10284 0.01354 0.0
C2119 C 0.68831 0.09989 0.99093 0.0
C2120 C 0.64676 0.08403 0.01427 0.0
C2121 C 0.67901 0.07838 0.96897 0.0
C2122 C 0.65363 0.06009 0.96923 0.0
C2123 C 0.61177 0.04463 0.9919 0.0
C2124 C 0.5949 0.04778 0.01391 0.0
C2125 C 0.63743 0.06269 0.9918 0.0
C2126 C 0.60476 0.06806 0.03681 0.0
C2127 C 0.63055 0.08608 0.03699 0.0
H2128 H 0.17848 0.44324 0.27501 0.0
H2129 H 0.21778 0.45938 0.19986 0.0
H2130 H 0.24892 0.42722 0.20872 0.0
H2131 H 0.26037 0.38961 0.23475 0.0
H2132 H 0.22245 0.37527 0.311 0.0
H2133 H 0.19576 0.41214 0.3052 0.0
C2134 C 0.19422 0.44004 0.2609 0.0
C2135 C 0.19568 0.45307 0.23667 0.0
C2136 C 0.21218 0.42186 0.26628 0.0
C2137 C 0.21634 0.44935 0.21864 0.0
C2138 C 0.23403 0.43091 0.22362 0.0
C2139 C 0.24675 0.39513 0.25037 0.0
C2140 C 0.24293 0.37961 0.27297 0.0
C2141 C 0.2315 0.41634 0.24691 0.0
C2142 C 0.22555 0.38697 0.29333 0.0
C2143 C 0.21015 0.40788 0.28995 0.0
H2144 H 0.20435 0.45392 0.02768 0.0
H2145 H 0.14819 0.3732 0.02818 0.0
H2146 H 0.1093 0.39619 0.01977 0.0
H2147 H 0.09136 0.43897 0.01173 0.0
H2148 H 0.14731 0.51951 0.01018 0.0
H2149 H 0.18634 0.49681 0.01956 0.0
C2150 C 0.1836 0.44135 0.02604 0.0
C2151 C 0.17917 0.41185 0.02856 0.0
C2152 C 0.16138 0.45465 0.02092 0.0
C2153 C 0.15216 0.39589 0.02627 0.0
C2154 C 0.12993 0.40902 0.02146 0.0
C2155 C 0.11212 0.45155 0.01337 0.0
C2156 C 0.11656 0.48082 0.01013 0.0
C2157 C 0.13432 0.43833 0.01862 0.0
C2158 C 0.14347 0.49691 0.01245 0.0
C2159 C 0.16573 0.48394 0.01786 0.0
H2160 H 0.79536 0.91763 0.2099 0.0
H2161 H 0.87282 0.89793 0.23585 0.0
H2162 H 0.84942 0.85087 0.24571 0.0
H2163 H 0.80664 0.8165 0.2496 0.0
H2164 H 0.72964 0.83375 0.21938 0.0
H2165 H 0.75299 0.88074 0.20896 0.0
C2166 C 0.80706 0.90291 0.21752 0.0
C2167 C 0.8357 0.91129 0.22232 0.0
C2168 C 0.79354 0.87559 0.22263 0.0
C2169 C 0.85073 0.89193 0.2319 0.0
C2170 C 0.83738 0.86507 0.2377 0.0
C2171 C 0.7951 0.83027 0.24018 0.0
C2172 C 0.76655 0.82167 0.23517 0.0
C2173 C 0.80876 0.85683 0.23346 0.0
C2174 C 0.7517 0.83993 0.22339 0.0
C2175 C 0.76502 0.8668 0.21745 0.0
H2176 H 0.6376 0.11453 0.693 0.0
H2177 H 0.67915 0.08174 0.75773 0.0
H2178 H 0.70997 0.12791 0.76905 0.0
H2179 H 0.72598 0.17718 0.76012 0.0
H2180 H 0.6862 0.21009 0.69439 0.0
H2181 H 0.65383 0.16439 0.68403 0.0
C2182 C 0.65335 0.11756 0.70961 0.0
C2183 C 0.65608 0.09469 0.7244 0.0
C2184 C 0.67136 0.14417 0.71587 0.0
C2185 C 0.67669 0.0989 0.74583 0.0
C2186 C 0.69432 0.12534 0.75242 0.0
C2187 C 0.71011 0.17445 0.74366 0.0
C2188 C 0.70848 0.19695 0.72808 0.0
C2189 C 0.69193 0.14806 0.73751 0.0
C2190 C 0.68796 0.19299 0.70662 0.0
C2191 C 0.66943 0.16689 0.70069 0.0
loop_
_geom_bond_atom_site_label_1
_geom_bond_atom_site_label_2
_geom_bond_distance
_geom_bond_site_symmetry_2
_ccdc_geom_bond_type
C0 O1 1.306 . S
C0 O3 1.160 . S
O1 C0 1.306 . S
O1 Cd2 2.228 1_655 S
Cd2 O1 2.228 1_455 S
Cd2 O6 2.273 . S
Cd2 O10 2.277 . S
O3 C0 1.160 . S
O3 Cd4 2.203 1_655 S
Cd4 O3 2.203 1_455 S
Cd4 O6 2.411 . S
Cd4 O7 2.333 . S
Cd4 O8 2.352 . S
Cd4 O12 2.277 . S
Cd4 O13 2.356 . S
C5 O10 1.209 . S
C5 O12 1.226 . S
O6 Cd2 2.273 . S
O6 Cd4 2.411 . S
O6 C9 1.320 . S
O7 Cd4 2.333 . S
O7 C9 1.214 . S
O8 Cd4 2.352 . S
O8 C11 1.258 . S
C9 O6 1.320 . S
C9 O7 1.214 . S
O10 Cd2 2.277 . S
O10 C5 1.209 . S
C11 O8 1.258 . S
C11 O13 1.282 . S
O12 Cd4 2.277 . S
O12 C5 1.226 . S
O13 Cd4 2.356 . S
O13 C11 1.282 . S
C14 O15 1.306 . S
C14 O17 1.160 . S
O15 C14 1.306 . S
O15 Cd16 2.228 1_655 S
Cd16 O15 2.228 1_455 S
Cd16 O20 2.273 . S
Cd16 O24 2.277 . S
O17 C14 1.160 . S
O17 Cd18 2.203 1_655 S
Cd18 O17 2.203 1_455 S
Cd18 O20 2.411 . S
Cd18 O21 2.333 . S
Cd18 O22 2.352 . S
Cd18 O26 2.276 . S
Cd18 O27 2.356 . S
C19 O24 1.210 . S
C19 O26 1.226 . S
O20 Cd16 2.273 . S
O20 Cd18 2.411 . S
O20 C23 1.320 . S
O21 Cd18 2.333 . S
O21 C23 1.214 . S
O22 Cd18 2.352 . S
O22 C25 1.258 . S
C23 O20 1.320 . S
C23 O21 1.214 . S
O24 Cd16 2.277 . S
O24 C19 1.210 . S
C25 O22 1.258 . S
C25 O27 1.282 . S
O26 Cd18 2.276 . S
O26 C19 1.226 . S
O27 Cd18 2.356 . S
O27 C25 1.282 . S
C28 O29 1.306 . S
C28 O31 1.160 . S
O29 C28 1.306 . S
O29 Cd30 2.228 . S
Cd30 O29 2.228 . S
Cd30 O34 2.273 . S
Cd30 O38 2.277 . S
O31 C28 1.160 . S
O31 Cd32 2.203 . S
Cd32 O31 2.203 . S
Cd32 O34 2.411 . S
Cd32 O35 2.333 . S
Cd32 O36 2.352 . S
Cd32 O40 2.277 . S
Cd32 O41 2.356 . S
C33 O38 1.209 . S
C33 O40 1.226 . S
O34 Cd30 2.273 . S
O34 Cd32 2.411 . S
O34 C37 1.320 . S
O35 Cd32 2.333 . S
O35 C37 1.214 . S
O36 Cd32 2.352 . S
O36 C39 1.258 . S
C37 O34 1.320 . S
C37 O35 1.214 . S
O38 Cd30 2.277 . S
O38 C33 1.209 . S
C39 O36 1.258 . S
C39 O41 1.282 . S
O40 Cd32 2.277 . S
O40 C33 1.226 . S
O41 Cd32 2.356 . S
O41 C39 1.282 . S
C42 O43 1.306 . S
C42 O45 1.160 . S
O43 C42 1.306 . S
O43 Cd44 2.228 . S
Cd44 O43 2.228 . S
Cd44 O48 2.273 . S
Cd44 O52 2.277 . S
O45 C42 1.160 . S
O45 Cd46 2.203 . S
Cd46 O45 2.203 . S
Cd46 O48 2.411 . S
Cd46 O49 2.333 . S
Cd46 O50 2.352 . S
Cd46 O54 2.277 . S
Cd46 O55 2.356 . S
C47 O52 1.209 . S
C47 O54 1.226 . S
O48 Cd44 2.273 . S
O48 Cd46 2.411 . S
O48 C51 1.320 . S
O49 Cd46 2.333 . S
O49 C51 1.214 . S
O50 Cd46 2.352 . S
O50 C53 1.258 . S
C51 O48 1.320 . S
C51 O49 1.214 . S
O52 Cd44 2.277 . S
O52 C47 1.209 . S
C53 O50 1.258 . S
C53 O55 1.282 . S
O54 Cd46 2.277 . S
O54 C47 1.226 . S
O55 Cd46 2.356 . S
O55 C53 1.282 . S
C56 O57 1.306 . S
C56 O59 1.160 . S
O57 C56 1.306 . S
O57 Cd58 2.228 1_655 S
Cd58 O57 2.228 1_455 S
Cd58 O62 2.273 . S
Cd58 O66 2.277 . S
O59 C56 1.160 . S
O59 Cd60 2.203 1_655 S
Cd60 O59 2.203 1_455 S
Cd60 O62 2.411 . S
Cd60 O63 2.333 . S
Cd60 O64 2.352 . S
Cd60 O68 2.277 . S
Cd60 O69 2.356 . S
C61 O66 1.209 . S
C61 O68 1.226 . S
O62 Cd58 2.273 . S
O62 Cd60 2.411 . S
O62 C65 1.320 . S
O63 Cd60 2.333 . S
O63 C65 1.214 . S
O64 Cd60 2.352 . S
O64 C67 1.258 . S
C65 O62 1.320 . S
C65 O63 1.214 . S
O66 Cd58 2.277 . S
O66 C61 1.209 . S
C67 O64 1.258 . S
C67 O69 1.282 . S
O68 Cd60 2.277 . S
O68 C61 1.226 . S
O69 Cd60 2.356 . S
O69 C67 1.282 . S
C70 O71 1.306 . S
C70 O73 1.160 . S
O71 C70 1.306 . S
O71 Cd72 2.228 . S
Cd72 O71 2.228 . S
Cd72 O76 2.273 . S
Cd72 O80 2.277 . S
O73 C70 1.160 . S
O73 Cd74 2.203 . S
Cd74 O73 2.203 . S
Cd74 O76 2.411 . S
Cd74 O77 2.333 . S
Cd74 O78 2.352 . S
Cd74 O82 2.277 . S
Cd74 O83 2.356 . S
C75 O80 1.209 . S
C75 O82 1.226 . S
O76 Cd72 2.273 . S
O76 Cd74 2.411 . S
O76 C79 1.320 . S
O77 Cd74 2.333 . S
O77 C79 1.214 . S
O78 Cd74 2.352 . S
O78 C81 1.258 . S
C79 O76 1.320 . S
C79 O77 1.214 . S
O80 Cd72 2.277 . S
O80 C75 1.209 . S
C81 O78 1.258 . S
C81 O83 1.282 . S
O82 Cd74 2.277 . S
O82 C75 1.226 . S
O83 Cd74 2.356 . S
O83 C81 1.282 . S
C84 O85 1.306 . S
C84 O87 1.160 . S
O85 C84 1.306 . S
O85 Cd86 2.228 . S
Cd86 O85 2.228 . S
Cd86 O90 2.273 . S
Cd86 O94 2.277 . S
O87 C84 1.160 . S
O87 Cd88 2.203 . S
Cd88 O87 2.203 . S
Cd88 O90 2.411 . S
Cd88 O91 2.333 . S
Cd88 O92 2.352 . S
Cd88 O96 2.277 . S
Cd88 O97 2.356 . S
C89 O94 1.209 . S
C89 O96 1.226 . S
O90 Cd86 2.273 . S
O90 Cd88 2.411 . S
O90 C93 1.320 . S
O91 Cd88 2.333 . S
O91 C93 1.214 . S
O92 Cd88 2.352 . S
O92 C95 1.258 . S
C93 O90 1.320 . S
C93 O91 1.214 . S
O94 Cd86 2.277 . S
O94 C89 1.209 . S
C95 O92 1.258 . S
C95 O97 1.282 . S
O96 Cd88 2.277 . S
O96 C89 1.226 . S
O97 Cd88 2.356 . S
O97 C95 1.282 . S
C98 O99 1.306 . S
C98 O101 1.160 . S
O99 C98 1.306 . S
O99 Cd100 2.228 1_655 S
Cd100 O99 2.228 1_455 S
Cd100 O104 2.273 . S
Cd100 O108 2.277 . S
O101 C98 1.160 . S
O101 Cd102 2.203 1_655 S
Cd102 O101 2.203 1_455 S
Cd102 O104 2.411 . S
Cd102 O105 2.333 . S
Cd102 O106 2.352 1_455 S
Cd102 O110 2.277 . S
Cd102 O111 2.356 . S
C103 O108 1.209 . S
C103 O110 1.226 . S
O104 Cd100 2.273 . S
O104 Cd102 2.411 . S
O104 C107 1.320 . S
O105 Cd102 2.333 . S
O105 C107 1.214 . S
O106 Cd102 2.352 1_655 S
O106 C109 1.258 . S
C107 O104 1.320 . S
C107 O105 1.214 . S
O108 Cd100 2.277 . S
O108 C103 1.209 . S
C109 O106 1.258 . S
C109 O111 1.282 1_655 S
O110 Cd102 2.277 . S
O110 C103 1.226 . S
O111 Cd102 2.356 . S
O111 C109 1.282 1_455 S
C112 O113 1.306 . S
C112 O115 1.160 . S
O113 C112 1.306 . S
O113 Cd114 2.228 1_545 S
Cd114 O113 2.228 1_565 S
Cd114 O118 2.273 1_565 S
Cd114 O122 2.277 . S
O115 C112 1.160 . S
O115 Cd116 2.203 . S
Cd116 O115 2.203 . S
Cd116 O118 2.411 . S
Cd116 O119 2.333 . S
Cd116 O120 2.352 . S
Cd116 O124 2.277 1_545 S
Cd116 O125 2.356 . S
C117 O122 1.209 . S
C117 O124 1.226 . S
O118 Cd114 2.273 1_545 S
O118 Cd116 2.411 . S
O118 C121 1.320 . S
O119 Cd116 2.333 . S
O119 C121 1.214 . S
O120 Cd116 2.352 . S
O120 C123 1.258 . S
C121 O118 1.320 . S
C121 O119 1.214 . S
O122 Cd114 2.277 . S
O122 C117 1.209 . S
C123 O120 1.258 . S
C123 O125 1.282 . S
O124 Cd116 2.277 1_565 S
O124 C117 1.226 . S
O125 Cd116 2.356 . S
O125 C123 1.282 . S
C126 O127 1.306 . S
C126 O129 1.160 . S
O127 C126 1.306 . S
O127 Cd128 2.228 . S
Cd128 O127 2.228 . S
Cd128 O132 2.273 . S
Cd128 O136 2.277 . S
O129 C126 1.160 . S
O129 Cd130 2.203 . S
Cd130 O129 2.203 . S
Cd130 O132 2.411 . S
Cd130 O133 2.333 . S
Cd130 O134 2.352 . S
Cd130 O138 2.277 . S
Cd130 O139 2.356 . S
C131 O136 1.209 . S
C131 O138 1.226 . S
O132 Cd128 2.273 . S
O132 Cd130 2.411 . S
O132 C135 1.320 . S
O133 Cd130 2.333 . S
O133 C135 1.214 . S
O134 Cd130 2.352 . S
O134 C137 1.258 . S
C135 O132 1.320 . S
C135 O133 1.214 . S
O136 Cd128 2.277 . S
O136 C131 1.209 . S
C137 O134 1.258 . S
C137 O139 1.282 . S
O138 Cd130 2.277 . S
O138 C131 1.226 . S
O139 Cd130 2.356 . S
O139 C137 1.282 . S
C140 O141 1.306 . S
C140 O143 1.152 1_545 S
O141 C140 1.306 . S
O141 Cd142 2.228 . S
Cd142 O141 2.228 . S
Cd142 O146 2.273 1_545 S
Cd142 O150 2.277 . S
O143 C140 1.152 1_565 S
O143 Cd144 2.203 . S
Cd144 O143 2.203 . S
Cd144 O146 2.411 . S
Cd144 O147 2.333 . S
Cd144 O148 2.352 . S
Cd144 O152 2.277 1_565 S
Cd144 O153 2.356 . S
C145 O150 1.209 . S
C145 O152 1.226 . S
O146 Cd142 2.273 1_565 S
O146 Cd144 2.411 . S
O146 C149 1.320 . S
O147 Cd144 2.333 . S
O147 C149 1.214 . S
O148 Cd144 2.352 . S
O148 C151 1.258 . S
C149 O146 1.320 . S
C149 O147 1.214 . S
O150 Cd142 2.277 . S
O150 C145 1.209 . S
C151 O148 1.258 . S
C151 O153 1.282 . S
O152 Cd144 2.277 1_545 S
O152 C145 1.226 . S
O153 Cd144 2.356 . S
O153 C151 1.282 . S
C154 O155 1.306 . S
C154 O157 1.160 . S
O155 C154 1.306 . S
O155 Cd156 2.228 1_554 S
Cd156 O155 2.228 1_556 S
Cd156 O160 2.273 1_556 S
Cd156 O164 2.277 . S
O157 C154 1.160 . S
O157 Cd158 2.203 . S
Cd158 O157 2.203 . S
Cd158 O160 2.411 . S
Cd158 O161 2.333 . S
Cd158 O162 2.352 . S
Cd158 O166 2.277 1_554 S
Cd158 O167 2.356 . S
C159 O164 1.209 . S
C159 O166 1.226 . S
O160 Cd156 2.273 1_554 S
O160 Cd158 2.411 . S
O160 C163 1.320 . S
O161 Cd158 2.333 . S
O161 C163 1.214 . S
O162 Cd158 2.352 . S
O162 C165 1.258 . S
C163 O160 1.320 . S
C163 O161 1.214 . S
O164 Cd156 2.277 . S
O164 C159 1.209 . S
C165 O162 1.258 . S
C165 O167 1.282 . S
O166 Cd158 2.277 1_556 S
O166 C159 1.226 . S
O167 Cd158 2.356 . S
O167 C165 1.282 . S
C168 O169 1.295 1_554 S
C168 O171 1.160 . S
O169 C168 1.295 1_556 S
O169 Cd170 2.242 . S
Cd170 O169 2.242 . S
Cd170 O174 2.273 1_556 S
Cd170 O178 2.277 . S
O171 C168 1.160 . S
O171 Cd172 2.203 . S
Cd172 O171 2.203 . S
Cd172 O174 2.411 . S
Cd172 O175 2.333 . S
Cd172 O176 2.352 . S
Cd172 O180 2.277 1_554 S
Cd172 O181 2.356 . S
C173 O178 1.209 . S
C173 O180 1.226 . S
O174 Cd170 2.273 1_554 S
O174 Cd172 2.411 . S
O174 C177 1.320 . S
O175 Cd172 2.333 . S
O175 C177 1.214 . S
O176 Cd172 2.352 . S
O176 C179 1.258 . S
C177 O174 1.320 . S
C177 O175 1.214 . S
O178 Cd170 2.277 . S
O178 C173 1.209 . S
C179 O176 1.258 . S
C179 O181 1.282 . S
O180 Cd172 2.277 1_556 S
O180 C173 1.226 . S
O181 Cd172 2.356 . S
O181 C179 1.282 . S
C182 O183 1.306 . S
C182 O185 1.160 1_554 S
O183 C182 1.306 . S
O183 Cd184 2.228 . S
Cd184 O183 2.228 . S
Cd184 O188 2.273 1_554 S
Cd184 O192 2.277 . S
O185 C182 1.160 1_556 S
O185 Cd186 2.203 . S
Cd186 O185 2.203 . S
Cd186 O188 2.411 . S
Cd186 O189 2.333 . S
Cd186 O190 2.352 . S
Cd186 O194 2.277 1_556 S
Cd186 O195 2.356 . S
C187 O192 1.209 . S
C187 O194 1.226 . S
O188 Cd184 2.273 1_556 S
O188 Cd186 2.411 . S
O188 C191 1.320 . S
O189 Cd186 2.333 . S
O189 C191 1.214 . S
O190 Cd186 2.352 . S
O190 C193 1.258 . S
C191 O188 1.320 . S
C191 O189 1.214 . S
O192 Cd184 2.277 . S
O192 C187 1.209 . S
C193 O190 1.258 . S
C193 O195 1.282 . S
O194 Cd186 2.277 1_554 S
O194 C187 1.226 . S
O195 Cd186 2.356 . S
O195 C193 1.282 . S
C196 O197 1.306 . S
C196 O199 1.160 . S
O197 C196 1.306 . S
O197 Cd198 2.228 . S
Cd198 O197 2.228 . S
Cd198 O202 2.273 . S
Cd198 O206 2.277 . S
O199 C196 1.160 . S
O199 Cd200 2.203 . S
Cd200 O199 2.203 . S
Cd200 O202 2.411 . S
Cd200 O203 2.333 . S
Cd200 O204 2.352 . S
Cd200 O208 2.277 . S
Cd200 O209 2.356 . S
C201 O206 1.209 . S
C201 O208 1.226 . S
O202 Cd198 2.273 . S
O202 Cd200 2.411 . S
O202 C205 1.320 . S
O203 Cd200 2.333 . S
O203 C205 1.214 . S
O204 Cd200 2.352 . S
O204 C207 1.258 . S
C205 O202 1.320 . S
C205 O203 1.214 . S
O206 Cd198 2.277 . S
O206 C201 1.209 . S
C207 O204 1.258 . S
C207 O209 1.282 . S
O208 Cd200 2.277 . S
O208 C201 1.226 . S
O209 Cd200 2.356 . S
O209 C207 1.282 . S
C210 O211 1.306 . S
C210 O213 1.160 . S
O211 C210 1.306 . S
O211 Cd212 2.228 . S
Cd212 O211 2.228 . S
Cd212 O216 2.273 . S
Cd212 O220 2.277 . S
O213 C210 1.160 . S
O213 Cd214 2.203 . S
Cd214 O213 2.203 . S
Cd214 O216 2.411 . S
Cd214 O217 2.333 . S
Cd214 O218 2.352 . S
Cd214 O222 2.277 . S
Cd214 O223 2.356 . S
C215 O220 1.209 . S
C215 O222 1.226 . S
O216 Cd212 2.273 . S
O216 Cd214 2.411 . S
O216 C219 1.320 . S
O217 Cd214 2.333 . S
O217 C219 1.214 . S
O218 Cd214 2.352 . S
O218 C221 1.258 . S
C219 O216 1.320 . S
C219 O217 1.214 . S
O220 Cd212 2.277 . S
O220 C215 1.209 . S
C221 O218 1.258 . S
C221 O223 1.282 . S
O222 Cd214 2.277 . S
O222 C215 1.226 . S
O223 Cd214 2.356 . S
O223 C221 1.282 . S
C224 O225 1.306 . S
C224 O227 1.160 . S
O225 C224 1.306 . S
O225 Cd226 2.228 . S
Cd226 O225 2.228 . S
Cd226 O230 2.273 . S
Cd226 O234 2.277 1_545 S
O227 C224 1.160 . S
O227 Cd228 2.203 . S
Cd228 O227 2.203 . S
Cd228 O230 2.411 . S
Cd228 O231 2.333 . S
Cd228 O232 2.352 . S
Cd228 O236 2.277 . S
Cd228 O237 2.356 . S
C229 O234 1.209 . S
C229 O236 1.226 1_565 S
O230 Cd226 2.273 . S
O230 Cd228 2.411 . S
O230 C233 1.320 . S
O231 Cd228 2.333 . S
O231 C233 1.214 . S
O232 Cd228 2.352 . S
O232 C235 1.258 . S
C233 O230 1.320 . S
C233 O231 1.214 . S
O234 Cd226 2.277 1_565 S
O234 C229 1.209 . S
C235 O232 1.258 . S
C235 O237 1.282 . S
O236 Cd228 2.277 . S
O236 C229 1.226 1_545 S
O237 Cd228 2.356 . S
O237 C235 1.282 . S
C238 O239 1.306 . S
C238 O241 1.160 . S
O239 C238 1.306 . S
O239 Cd240 2.228 . S
Cd240 O239 2.228 . S
Cd240 O244 2.273 . S
Cd240 O248 2.277 . S
O241 C238 1.160 . S
O241 Cd242 2.203 . S
Cd242 O241 2.203 . S
Cd242 O244 2.411 . S
Cd242 O245 2.333 . S
Cd242 O246 2.352 . S
Cd242 O250 2.277 . S
Cd242 O251 2.356 . S
C243 O248 1.209 . S
C243 O250 1.226 . S
O244 Cd240 2.273 . S
O244 Cd242 2.411 . S
O244 C247 1.320 . S
O245 Cd242 2.333 . S
O245 C247 1.214 . S
O246 Cd242 2.352 . S
O246 C249 1.258 . S
C247 O244 1.320 . S
C247 O245 1.214 . S
O248 Cd240 2.277 . S
O248 C243 1.209 . S
C249 O246 1.258 . S
C249 O251 1.282 . S
O250 Cd242 2.277 . S
O250 C243 1.226 . S
O251 Cd242 2.356 . S
O251 C249 1.282 . S
C252 O253 1.306 . S
C252 O255 1.160 . S
O253 C252 1.306 . S
O253 Cd254 2.228 . S
Cd254 O253 2.228 . S
Cd254 O258 2.273 . S
Cd254 O262 2.277 . S
O255 C252 1.160 . S
O255 Cd256 2.203 . S
Cd256 O255 2.203 . S
Cd256 O258 2.411 . S
Cd256 O259 2.333 . S
Cd256 O260 2.352 . S
Cd256 O264 2.277 . S
Cd256 O265 2.356 . S
C257 O262 1.209 . S
C257 O264 1.226 . S
O258 Cd254 2.273 . S
O258 Cd256 2.411 . S
O258 C261 1.320 . S
O259 Cd256 2.333 . S
O259 C261 1.214 . S
O260 Cd256 2.352 . S
O260 C263 1.258 . S
C261 O258 1.320 . S
C261 O259 1.214 . S
O262 Cd254 2.277 . S
O262 C257 1.209 . S
C263 O260 1.258 . S
C263 O265 1.282 . S
O264 Cd256 2.277 . S
O264 C257 1.226 . S
O265 Cd256 2.356 . S
O265 C263 1.282 . S
C266 O267 1.306 . S
C266 O269 1.160 . S
O267 C266 1.306 . S
O267 Cd268 2.228 . S
Cd268 O267 2.228 . S
Cd268 O272 2.273 . S
Cd268 O276 2.277 . S
O269 C266 1.160 . S
O269 Cd270 2.203 . S
Cd270 O269 2.203 . S
Cd270 O272 2.411 . S
Cd270 O273 2.333 . S
Cd270 O274 2.352 1_545 S
Cd270 O278 2.277 . S
Cd270 O279 2.356 1_545 S
C271 O276 1.209 . S
C271 O278 1.226 . S
O272 Cd268 2.273 . S
O272 Cd270 2.411 . S
O272 C275 1.320 . S
O273 Cd270 2.333 . S
O273 C275 1.214 . S
O274 Cd270 2.352 1_565 S
O274 C277 1.258 . S
C275 O272 1.320 . S
C275 O273 1.214 . S
O276 Cd268 2.277 . S
O276 C271 1.209 . S
C277 O274 1.258 . S
C277 O279 1.282 . S
O278 Cd270 2.277 . S
O278 C271 1.226 . S
O279 Cd270 2.356 1_565 S
O279 C277 1.282 . S
C280 O281 1.306 . S
C280 O283 1.160 . S
O281 C280 1.306 . S
O281 Cd282 2.228 . S
Cd282 O281 2.228 . S
Cd282 O286 2.273 . S
Cd282 O290 2.277 . S
O283 C280 1.160 . S
O283 Cd284 2.203 . S
Cd284 O283 2.203 . S
Cd284 O286 2.411 . S
Cd284 O287 2.332 . S
Cd284 O288 2.352 1_554 S
Cd284 O292 2.277 . S
Cd284 O293 2.356 1_554 S
C285 O290 1.209 . S
C285 O292 1.226 . S
O286 Cd282 2.273 . S
O286 Cd284 2.411 . S
O286 C289 1.320 . S
O287 Cd284 2.332 . S
O287 C289 1.217 . S
O288 Cd284 2.352 1_556 S
O288 C291 1.258 . S
C289 O286 1.320 . S
C289 O287 1.217 . S
O290 Cd282 2.277 . S
O290 C285 1.209 . S
C291 O288 1.258 . S
C291 O293 1.282 . S
O292 Cd284 2.277 . S
O292 C285 1.226 . S
O293 Cd284 2.356 1_556 S
O293 C291 1.282 . S
C294 O295 1.306 . S
C294 O297 1.160 . S
O295 C294 1.306 . S
O295 Cd296 2.228 . S
Cd296 O295 2.228 . S
Cd296 O300 2.273 . S
Cd296 O304 2.277 . S
O297 C294 1.160 . S
O297 Cd298 2.203 . S
Cd298 O297 2.203 . S
Cd298 O300 2.411 . S
Cd298 O301 2.333 . S
Cd298 O302 2.352 . S
Cd298 O306 2.277 . S
Cd298 O307 2.356 . S
C299 O304 1.209 . S
C299 O306 1.226 . S
O300 Cd296 2.273 . S
O300 Cd298 2.411 . S
O300 C303 1.320 . S
O301 Cd298 2.333 . S
O301 C303 1.214 . S
O302 Cd298 2.352 . S
O302 C305 1.258 . S
C303 O300 1.320 . S
C303 O301 1.214 . S
O304 Cd296 2.277 . S
O304 C299 1.209 . S
C305 O302 1.258 . S
C305 O307 1.282 . S
O306 Cd298 2.277 . S
O306 C299 1.226 . S
O307 Cd298 2.356 . S
O307 C305 1.282 . S
C308 O309 1.306 . S
C308 O311 1.160 . S
O309 C308 1.306 . S
O309 Cd310 2.228 . S
Cd310 O309 2.228 . S
Cd310 O314 2.273 . S
Cd310 O318 2.277 . S
O311 C308 1.160 . S
O311 Cd312 2.203 . S
Cd312 O311 2.203 . S
Cd312 O314 2.411 . S
Cd312 O315 2.333 . S
Cd312 O316 2.352 . S
Cd312 O320 2.277 . S
Cd312 O321 2.356 . S
C313 O318 1.209 . S
C313 O320 1.226 . S
O314 Cd310 2.273 . S
O314 Cd312 2.411 . S
O314 C317 1.320 . S
O315 Cd312 2.333 . S
O315 C317 1.214 . S
O316 Cd312 2.352 . S
O316 C319 1.258 . S
C317 O314 1.320 . S
C317 O315 1.214 . S
O318 Cd310 2.277 . S
O318 C313 1.209 . S
C319 O316 1.258 . S
C319 O321 1.282 . S
O320 Cd312 2.277 . S
O320 C313 1.226 . S
O321 Cd312 2.356 . S
O321 C319 1.282 . S
C322 O323 1.306 . S
C322 O325 1.160 . S
O323 C322 1.306 . S
O323 Cd324 2.228 . S
Cd324 O323 2.228 . S
Cd324 O328 2.273 . S
Cd324 O332 2.277 . S
O325 C322 1.160 . S
O325 Cd326 2.203 . S
Cd326 O325 2.203 . S
Cd326 O328 2.411 . S
Cd326 O329 2.333 . S
Cd326 O330 2.352 . S
Cd326 O334 2.277 . S
Cd326 O335 2.356 . S
C327 O332 1.209 . S
C327 O334 1.226 . S
O328 Cd324 2.273 . S
O328 Cd326 2.411 . S
O328 C331 1.320 . S
O329 Cd326 2.333 . S
O329 C331 1.214 . S
O330 Cd326 2.352 . S
O330 C333 1.258 . S
C331 O328 1.320 . S
C331 O329 1.214 . S
O332 Cd324 2.277 . S
O332 C327 1.209 . S
C333 O330 1.258 . S
C333 O335 1.282 . S
O334 Cd326 2.277 . S
O334 C327 1.226 . S
O335 Cd326 2.356 . S
O335 C333 1.282 . S
Dy336 O340 2.398 . S
Dy336 O341 2.491 1_556 S
Dy336 O342 2.403 . S
Dy336 O343 2.664 1_655 S
Dy336 O347 2.326 . S
Dy336 O351 2.310 1_656 S
Dy336 O352 2.351 1_546 S
C337 O348 1.185 . S
C337 O349 1.356 1_545 S
C338 O340 1.185 . S
C338 O341 1.355 1_556 S
Dy339 O343 2.310 1_554 S
Dy339 O346 2.351 . S
Dy339 O348 2.398 . S
Dy339 O349 2.488 1_545 S
Dy339 O350 2.403 . S
Dy339 O351 2.664 . S
Dy339 O353 2.326 1_545 S
O340 Dy336 2.398 . S
O340 C338 1.185 . S
O341 Dy336 2.491 1_554 S
O341 C338 1.355 1_554 S
O342 Dy336 2.403 . S
O342 C344 1.254 1_655 S
O343 Dy336 2.664 1_455 S
O343 Dy339 2.310 1_556 S
O343 C344 1.268 . S
C344 O342 1.254 1_455 S
C344 O343 1.268 . S
C345 O350 1.254 . S
C345 O351 1.268 . S
O346 Dy339 2.351 . S
O346 C354 1.249 1_554 S
O347 Dy336 2.326 . S
O347 C354 1.267 1_655 S
O348 C337 1.185 . S
O348 Dy339 2.398 . S
O349 C337 1.356 1_565 S
O349 Dy339 2.488 1_565 S
O350 Dy339 2.403 . S
O350 C345 1.254 . S
O351 Dy336 2.310 1_454 S
O351 Dy339 2.664 . S
O351 C345 1.268 . S
O352 Dy336 2.351 1_564 S
O352 C355 1.249 1_655 S
O353 Dy339 2.326 1_565 S
O353 C355 1.267 . S
C354 O346 1.249 1_556 S
C354 O347 1.267 1_455 S
C355 O352 1.249 1_455 S
C355 O353 1.267 . S
Dy356 O360 2.398 . S
Dy356 O361 2.491 . S
Dy356 O362 2.403 . S
Dy356 O363 2.664 . S
Dy356 O367 2.326 . S
Dy356 O371 2.310 . S
Dy356 O372 2.351 . S
C357 O368 1.185 . S
C357 O369 1.355 . S
C358 O360 1.185 . S
C358 O361 1.355 . S
Dy359 O363 2.310 . S
Dy359 O366 2.351 . S
Dy359 O368 2.398 . S
Dy359 O369 2.491 . S
Dy359 O370 2.403 . S
Dy359 O371 2.664 . S
Dy359 O373 2.326 . S
O360 Dy356 2.398 . S
O360 C358 1.185 . S
O361 Dy356 2.491 . S
O361 C358 1.355 . S
O362 Dy356 2.403 . S
O362 C364 1.254 . S
O363 Dy356 2.664 . S
O363 Dy359 2.310 . S
O363 C364 1.268 . S
C364 O362 1.254 . S
C364 O363 1.268 . S
C365 O370 1.254 . S
C365 O371 1.268 . S
O366 Dy359 2.351 . S
O366 C374 1.249 . S
O367 Dy356 2.326 . S
O367 C374 1.267 . S
O368 C357 1.185 . S
O368 Dy359 2.398 . S
O369 C357 1.355 . S
O369 Dy359 2.491 . S
O370 Dy359 2.403 . S
O370 C365 1.254 . S
O371 Dy356 2.310 . S
O371 Dy359 2.664 . S
O371 C365 1.268 . S
O372 Dy356 2.351 . S
O372 C375 1.249 . S
O373 Dy359 2.326 . S
O373 C375 1.267 . S
C374 O366 1.249 . S
C374 O367 1.267 . S
C375 O372 1.249 . S
C375 O373 1.267 . S
Dy376 O380 2.398 . S
Dy376 O381 2.491 1_545 S
Dy376 O382 2.403 . S
Dy376 O383 2.664 . S
Dy376 O387 2.326 1_545 S
Dy376 O391 2.310 . S
Dy376 O392 2.351 . S
C377 O388 1.185 . S
C377 O389 1.355 . S
C378 O380 1.185 1_565 S
C378 O381 1.355 . S
Dy379 O383 2.310 . S
Dy379 O386 2.351 1_545 S
Dy379 O388 2.398 . S
Dy379 O389 2.491 . S
Dy379 O390 2.403 . S
Dy379 O391 2.664 . S
Dy379 O393 2.326 . S
O380 Dy376 2.398 . S
O380 C378 1.185 1_545 S
O381 Dy376 2.491 1_565 S
O381 C378 1.355 . S
O382 Dy376 2.403 . S
O382 C384 1.254 . S
O383 Dy376 2.664 . S
O383 Dy379 2.310 . S
O383 C384 1.268 . S
C384 O382 1.254 . S
C384 O383 1.268 . S
C385 O390 1.254 . S
C385 O391 1.268 . S
O386 Dy379 2.351 1_565 S
O386 C394 1.249 . S
O387 Dy376 2.326 1_565 S
O387 C394 1.267 . S
O388 C377 1.185 . S
O388 Dy379 2.398 . S
O389 C377 1.355 . S
O389 Dy379 2.491 . S
O390 Dy379 2.403 . S
O390 C385 1.254 . S
O391 Dy376 2.310 . S
O391 Dy379 2.664 . S
O391 C385 1.268 . S
O392 Dy376 2.351 . S
O392 C395 1.249 . S
O393 Dy379 2.326 . S
O393 C395 1.267 . S
C394 O386 1.249 . S
C394 O387 1.267 . S
C395 O392 1.249 . S
C395 O393 1.267 . S
Dy396 O400 2.398 . S
Dy396 O401 2.491 . S
Dy396 O402 2.403 . S
Dy396 O403 2.664 . S
Dy396 O407 2.326 . S
Dy396 O411 2.310 . S
Dy396 O412 2.351 . S
C397 O408 1.185 . S
C397 O409 1.355 . S
C398 O400 1.185 . S
C398 O401 1.355 . S
Dy399 O403 2.310 . S
Dy399 O406 2.351 . S
Dy399 O408 2.398 . S
Dy399 O409 2.491 . S
Dy399 O410 2.403 . S
Dy399 O411 2.664 . S
Dy399 O413 2.326 . S
O400 Dy396 2.398 . S
O400 C398 1.185 . S
O401 Dy396 2.491 . S
O401 C398 1.355 . S
O402 Dy396 2.403 . S
O402 C404 1.254 . S
O403 Dy396 2.664 . S
O403 Dy399 2.310 . S
O403 C404 1.268 . S
C404 O402 1.254 . S
C404 O403 1.268 . S
C405 O410 1.254 . S
C405 O411 1.268 . S
O406 Dy399 2.351 . S
O406 C414 1.249 . S
O407 Dy396 2.326 . S
O407 C414 1.267 . S
O408 C397 1.185 . S
O408 Dy399 2.398 . S
O409 C397 1.355 . S
O409 Dy399 2.491 . S
O410 Dy399 2.403 . S
O410 C405 1.254 . S
O411 Dy396 2.310 . S
O411 Dy399 2.664 . S
O411 C405 1.268 . S
O412 Dy396 2.351 . S
O412 C415 1.249 . S
O413 Dy399 2.326 . S
O413 C415 1.267 . S
C414 O406 1.249 . S
C414 O407 1.267 . S
C415 O412 1.249 . S
C415 O413 1.267 . S
Dy416 O420 2.398 . S
Dy416 O421 2.491 1_455 S
Dy416 O422 2.403 . S
Dy416 O423 2.664 . S
Dy416 O427 2.326 . S
Dy416 O431 2.310 1_455 S
Dy416 O432 2.351 1_545 S
C417 O428 1.185 . S
C417 O429 1.355 . S
C418 O420 1.185 1_655 S
C418 O421 1.355 . S
Dy419 O423 2.310 . S
Dy419 O426 2.351 . S
Dy419 O428 2.398 . S
Dy419 O429 2.491 . S
Dy419 O430 2.403 1_455 S
Dy419 O431 2.664 1_455 S
Dy419 O433 2.326 1_545 S
O420 Dy416 2.398 . S
O420 C418 1.185 1_455 S
O421 Dy416 2.491 1_655 S
O421 C418 1.355 . S
O422 Dy416 2.403 . S
O422 C424 1.254 . S
O423 Dy416 2.664 . S
O423 Dy419 2.310 . S
O423 C424 1.268 . S
C424 O422 1.254 . S
C424 O423 1.268 . S
C425 O430 1.254 . S
C425 O431 1.268 . S
O426 Dy419 2.351 . S
O426 C434 1.249 . S
O427 Dy416 2.326 . S
O427 C434 1.267 . S
O428 C417 1.185 . S
O428 Dy419 2.398 . S
O429 C417 1.355 . S
O429 Dy419 2.491 . S
O430 Dy419 2.403 1_655 S
O430 C425 1.254 . S
O431 Dy416 2.310 1_655 S
O431 Dy419 2.664 1_655 S
O431 C425 1.268 . S
O432 Dy416 2.351 1_565 S
O432 C435 1.249 . S
O433 Dy419 2.326 1_565 S
O433 C435 1.267 . S
C434 O426 1.249 . S
C434 O427 1.267 . S
C435 O432 1.249 . S
C435 O433 1.267 . S
Dy436 O440 2.398 . S
Dy436 O441 2.491 . S
Dy436 O442 2.403 . S
Dy436 O443 2.664 . S
Dy436 O447 2.326 . S
Dy436 O451 2.310 . S
Dy436 O452 2.351 . S
C437 O448 1.185 . S
C437 O449 1.355 . S
C438 O440 1.185 . S
C438 O441 1.355 . S
Dy439 O443 2.310 . S
Dy439 O446 2.351 . S
Dy439 O448 2.398 . S
Dy439 O449 2.491 . S
Dy439 O450 2.403 . S
Dy439 O451 2.664 . S
Dy439 O453 2.326 . S
O440 Dy436 2.398 . S
O440 C438 1.185 . S
O441 Dy436 2.491 . S
O441 C438 1.355 . S
O442 Dy436 2.403 . S
O442 C444 1.254 . S
O443 Dy436 2.664 . S
O443 Dy439 2.310 . S
O443 C444 1.268 . S
C444 O442 1.254 . S
C444 O443 1.268 . S
C445 O450 1.254 . S
C445 O451 1.268 . S
O446 Dy439 2.351 . S
O446 C454 1.249 . S
O447 Dy436 2.326 . S
O447 C454 1.267 . S
O448 C437 1.185 . S
O448 Dy439 2.398 . S
O449 C437 1.355 . S
O449 Dy439 2.491 . S
O450 Dy439 2.403 . S
O450 C445 1.254 . S
O451 Dy436 2.310 . S
O451 Dy439 2.664 . S
O451 C445 1.268 . S
O452 Dy436 2.351 . S
O452 C455 1.249 . S
O453 Dy439 2.326 . S
O453 C455 1.267 . S
C454 O446 1.249 . S
C454 O447 1.267 . S
C455 O452 1.249 . S
C455 O453 1.267 . S
Dy456 O460 2.398 1_545 S
Dy456 O461 2.491 . S
Dy456 O462 2.403 1_545 S
Dy456 O463 2.664 1_544 S
Dy456 O467 2.326 1_545 S
Dy456 O471 2.310 . S
Dy456 O472 2.351 . S
C457 O468 1.185 . S
C457 O469 1.355 . S
C458 O460 1.157 1_545 S
C458 O461 1.392 . S
Dy459 O463 2.310 1_545 S
Dy459 O466 2.351 . S
Dy459 O468 2.398 . S
Dy459 O469 2.491 . S
Dy459 O470 2.403 . S
Dy459 O471 2.664 1_556 S
Dy459 O473 2.326 . S
O460 Dy456 2.398 1_565 S
O460 C458 1.157 1_565 S
O461 Dy456 2.491 . S
O461 C458 1.392 . S
O462 Dy456 2.403 1_565 S
O462 C464 1.224 1_554 S
O463 Dy456 2.664 1_566 S
O463 Dy459 2.310 1_565 S
O463 C464 1.279 . S
C464 O462 1.224 1_556 S
C464 O463 1.279 . S
C465 O470 1.254 1_554 S
C465 O471 1.268 . S
O466 Dy459 2.351 . S
O466 C474 1.249 1_556 S
O467 Dy456 2.326 1_565 S
O467 C474 1.267 1_565 S
O468 C457 1.185 . S
O468 Dy459 2.398 . S
O469 C457 1.355 . S
O469 Dy459 2.491 . S
O470 Dy459 2.403 . S
O470 C465 1.254 1_556 S
O471 Dy456 2.310 . S
O471 Dy459 2.664 1_554 S
O471 C465 1.268 . S
O472 Dy456 2.351 . S
O472 C475 1.249 . S
O473 Dy459 2.326 . S
O473 C475 1.267 1_556 S
C474 O466 1.249 1_554 S
C474 O467 1.267 1_545 S
C475 O472 1.249 . S
C475 O473 1.267 1_554 S
Dy476 O480 2.398 . S
Dy476 O481 2.491 . S
Dy476 O482 2.403 . S
Dy476 O483 2.664 . S
Dy476 O487 2.326 . S
Dy476 O491 2.310 . S
Dy476 O492 2.351 . S
C477 O488 1.185 . S
C477 O489 1.355 . S
C478 O480 1.185 . S
C478 O481 1.355 . S
Dy479 O483 2.310 . S
Dy479 O486 2.351 . S
Dy479 O488 2.398 . S
Dy479 O489 2.491 . S
Dy479 O490 2.403 . S
Dy479 O491 2.664 . S
Dy479 O493 2.326 . S
O480 Dy476 2.398 . S
O480 C478 1.185 . S
O481 Dy476 2.491 . S
O481 C478 1.355 . S
O482 Dy476 2.403 . S
O482 C484 1.254 . S
O483 Dy476 2.664 . S
O483 Dy479 2.310 . S
O483 C484 1.268 . S
C484 O482 1.254 . S
C484 O483 1.268 . S
C485 O490 1.254 . S
C485 O491 1.268 . S
O486 Dy479 2.351 . S
O486 C494 1.249 . S
O487 Dy476 2.326 . S
O487 C494 1.267 . S
O488 C477 1.185 . S
O488 Dy479 2.398 . S
O489 C477 1.355 . S
O489 Dy479 2.491 . S
O490 Dy479 2.403 . S
O490 C485 1.254 . S
O491 Dy476 2.310 . S
O491 Dy479 2.664 . S
O491 C485 1.268 . S
O492 Dy476 2.351 . S
O492 C495 1.249 . S
O493 Dy479 2.326 . S
O493 C495 1.267 . S
C494 O486 1.249 . S
C494 O487 1.267 . S
C495 O492 1.249 . S
C495 O493 1.267 . S
Dy496 O500 2.398 . S
Dy496 O501 2.491 . S
Dy496 O502 2.403 . S
Dy496 O503 2.664 1_556 S
Dy496 O507 2.326 . S
Dy496 O511 2.310 1_556 S
Dy496 O512 2.351 . S
C497 O508 1.185 . S
C497 O509 1.355 . S
C498 O500 1.185 . S
C498 O501 1.355 . S
Dy499 O503 2.310 . S
Dy499 O506 2.351 . S
Dy499 O508 2.398 . S
Dy499 O509 2.491 . S
Dy499 O510 2.403 . S
Dy499 O511 2.664 . S
Dy499 O513 2.326 . S
O500 Dy496 2.398 . S
O500 C498 1.185 . S
O501 Dy496 2.491 . S
O501 C498 1.355 . S
O502 Dy496 2.403 . S
O502 C504 1.254 . S
O503 Dy496 2.664 1_554 S
O503 Dy499 2.310 . S
O503 C504 1.268 1_554 S
C504 O502 1.254 . S
C504 O503 1.268 1_556 S
C505 O510 1.254 . S
C505 O511 1.268 . S
O506 Dy499 2.351 . S
O506 C514 1.249 1_554 S
O507 Dy496 2.326 . S
O507 C514 1.267 . S
O508 C497 1.185 . S
O508 Dy499 2.398 . S
O509 C497 1.355 . S
O509 Dy499 2.491 . S
O510 Dy499 2.403 . S
O510 C505 1.254 . S
O511 Dy496 2.310 1_554 S
O511 Dy499 2.664 . S
O511 C505 1.268 . S
O512 Dy496 2.351 . S
O512 C515 1.249 1_556 S
O513 Dy499 2.326 . S
O513 C515 1.267 . S
C514 O506 1.249 1_556 S
C514 O507 1.267 . S
C515 O512 1.249 1_554 S
C515 O513 1.267 . S
Dy516 O520 2.398 . S
Dy516 O521 2.491 . S
Dy516 O522 2.403 . S
Dy516 O523 2.664 . S
Dy516 O527 2.326 . S
Dy516 O531 2.310 . S
Dy516 O532 2.351 . S
C517 O528 1.185 . S
C517 O529 1.355 . S
C518 O520 1.185 . S
C518 O521 1.355 . S
Dy519 O523 2.310 . S
Dy519 O526 2.351 . S
Dy519 O528 2.398 . S
Dy519 O529 2.491 . S
Dy519 O530 2.403 . S
Dy519 O531 2.664 . S
Dy519 O533 2.326 . S
O520 Dy516 2.398 . S
O520 C518 1.185 . S
O521 Dy516 2.491 . S
O521 C518 1.355 . S
O522 Dy516 2.403 . S
O522 C524 1.254 . S
O523 Dy516 2.664 . S
O523 Dy519 2.310 . S
O523 C524 1.268 . S
C524 O522 1.254 . S
C524 O523 1.268 . S
C525 O530 1.254 . S
C525 O531 1.268 . S
O526 Dy519 2.351 . S
O526 C534 1.249 . S
O527 Dy516 2.326 . S
O527 C534 1.267 . S
O528 C517 1.185 . S
O528 Dy519 2.398 . S
O529 C517 1.355 . S
O529 Dy519 2.491 . S
O530 Dy519 2.403 . S
O530 C525 1.254 . S
O531 Dy516 2.310 . S
O531 Dy519 2.664 . S
O531 C525 1.268 . S
O532 Dy516 2.351 . S
O532 C535 1.249 . S
O533 Dy519 2.326 . S
O533 C535 1.267 . S
C534 O526 1.249 . S
C534 O527 1.267 . S
C535 O532 1.249 . S
C535 O533 1.267 . S
Dy536 O540 2.398 1_455 S
Dy536 O541 2.491 1_455 S
Dy536 O542 2.403 . S
Dy536 O543 2.664 . S
Dy536 O547 2.326 1_455 S
Dy536 O551 2.310 . S
Dy536 O552 2.351 . S
C537 O548 1.185 . S
C537 O549 1.355 . S
C538 O540 1.185 . S
C538 O541 1.355 . S
Dy539 O543 2.310 . S
Dy539 O546 2.351 1_455 S
Dy539 O548 2.398 . S
Dy539 O549 2.491 . S
Dy539 O550 2.403 . S
Dy539 O551 2.664 . S
Dy539 O553 2.326 . S
O540 Dy536 2.398 1_655 S
O540 C538 1.185 . S
O541 Dy536 2.491 1_655 S
O541 C538 1.355 . S
O542 Dy536 2.403 . S
O542 C544 1.254 . S
O543 Dy536 2.664 . S
O543 Dy539 2.310 . S
O543 C544 1.268 . S
C544 O542 1.254 . S
C544 O543 1.268 . S
C545 O550 1.254 . S
C545 O551 1.268 . S
O546 Dy539 2.351 1_655 S
O546 C554 1.249 . S
O547 Dy536 2.326 1_655 S
O547 C554 1.267 . S
O548 C537 1.185 . S
O548 Dy539 2.398 . S
O549 C537 1.355 . S
O549 Dy539 2.491 . S
O550 Dy539 2.403 . S
O550 C545 1.254 . S
O551 Dy536 2.310 . S
O551 Dy539 2.664 . S
O551 C545 1.268 . S
O552 Dy536 2.351 . S
O552 C555 1.249 . S
O553 Dy539 2.326 . S
O553 C555 1.267 . S
C554 O546 1.249 . S
C554 O547 1.267 . S
C555 O552 1.249 . S
C555 O553 1.267 . S
Dy556 O560 2.398 . S
Dy556 O561 2.491 . S
Dy556 O562 2.403 . S
Dy556 O563 2.664 . S
Dy556 O567 2.326 . S
Dy556 O571 2.310 . S
Dy556 O572 2.351 . S
C557 O568 1.185 . S
C557 O569 1.355 . S
C558 O560 1.185 . S
C558 O561 1.355 . S
Dy559 O563 2.310 . S
Dy559 O566 2.351 . S
Dy559 O568 2.398 . S
Dy559 O569 2.491 . S
Dy559 O570 2.403 . S
Dy559 O571 2.664 . S
Dy559 O573 2.326 . S
O560 Dy556 2.398 . S
O560 C558 1.185 . S
O561 Dy556 2.491 . S
O561 C558 1.355 . S
O562 Dy556 2.403 . S
O562 C564 1.254 . S
O563 Dy556 2.664 . S
O563 Dy559 2.310 . S
O563 C564 1.268 . S
C564 O562 1.254 . S
C564 O563 1.268 . S
C565 O570 1.254 . S
C565 O571 1.268 . S
O566 Dy559 2.351 . S
O566 C574 1.249 . S
O567 Dy556 2.326 . S
O567 C574 1.267 . S
O568 C557 1.185 . S
O568 Dy559 2.398 . S
O569 C557 1.355 . S
O569 Dy559 2.491 . S
O570 Dy559 2.403 . S
O570 C565 1.254 . S
O571 Dy556 2.310 . S
O571 Dy559 2.664 . S
O571 C565 1.268 . S
O572 Dy556 2.351 . S
O572 C575 1.249 . S
O573 Dy559 2.326 . S
O573 C575 1.267 . S
C574 O566 1.249 . S
C574 O567 1.267 . S
C575 O572 1.249 . S
C575 O573 1.267 . S
Dy576 O580 2.398 . S
Dy576 O581 2.491 . S
Dy576 O582 2.403 . S
Dy576 O583 2.664 . S
Dy576 O587 2.326 . S
Dy576 O591 2.310 . S
Dy576 O592 2.351 . S
C577 O588 1.185 . S
C577 O589 1.355 . S
C578 O580 1.185 . S
C578 O581 1.355 . S
Dy579 O583 2.310 . S
Dy579 O586 2.351 . S
Dy579 O588 2.398 . S
Dy579 O589 2.491 . S
Dy579 O590 2.403 . S
Dy579 O591 2.664 . S
Dy579 O593 2.326 . S
O580 Dy576 2.398 . S
O580 C578 1.185 . S
O581 Dy576 2.491 . S
O581 C578 1.355 . S
O582 Dy576 2.403 . S
O582 C584 1.254 . S
O583 Dy576 2.664 . S
O583 Dy579 2.310 . S
O583 C584 1.268 . S
C584 O582 1.254 . S
C584 O583 1.268 . S
C585 O590 1.254 . S
C585 O591 1.268 . S
O586 Dy579 2.351 . S
O586 C594 1.249 . S
O587 Dy576 2.326 . S
O587 C594 1.267 . S
O588 C577 1.185 . S
O588 Dy579 2.398 . S
O589 C577 1.355 . S
O589 Dy579 2.491 . S
O590 Dy579 2.403 . S
O590 C585 1.254 . S
O591 Dy576 2.310 . S
O591 Dy579 2.664 . S
O591 C585 1.268 . S
O592 Dy576 2.351 . S
O592 C595 1.249 . S
O593 Dy579 2.326 . S
O593 C595 1.267 . S
C594 O586 1.249 . S
C594 O587 1.267 . S
C595 O592 1.249 . S
C595 O593 1.267 . S
Dy596 O600 2.398 . S
Dy596 O601 2.491 . S
Dy596 O602 2.403 . S
Dy596 O603 2.664 . S
Dy596 O607 2.326 . S
Dy596 O611 2.310 . S
Dy596 O612 2.351 . S
C597 O608 1.185 . S
C597 O609 1.355 . S
C598 O600 1.185 . S
C598 O601 1.355 . S
Dy599 O603 2.310 . S
Dy599 O606 2.351 . S
Dy599 O608 2.398 . S
Dy599 O609 2.491 . S
Dy599 O610 2.403 . S
Dy599 O611 2.664 . S
Dy599 O613 2.326 . S
O600 Dy596 2.398 . S
O600 C598 1.185 . S
O601 Dy596 2.491 . S
O601 C598 1.355 . S
O602 Dy596 2.403 . S
O602 C604 1.254 . S
O603 Dy596 2.664 . S
O603 Dy599 2.310 . S
O603 C604 1.268 . S
C604 O602 1.254 . S
C604 O603 1.268 . S
C605 O610 1.254 . S
C605 O611 1.268 . S
O606 Dy599 2.351 . S
O606 C614 1.249 . S
O607 Dy596 2.326 . S
O607 C614 1.267 . S
O608 C597 1.185 . S
O608 Dy599 2.398 . S
O609 C597 1.355 . S
O609 Dy599 2.491 . S
O610 Dy599 2.403 . S
O610 C605 1.254 . S
O611 Dy596 2.310 . S
O611 Dy599 2.664 . S
O611 C605 1.268 . S
O612 Dy596 2.351 . S
O612 C615 1.249 . S
O613 Dy599 2.326 . S
O613 C615 1.267 . S
C614 O606 1.249 . S
C614 O607 1.267 . S
C615 O612 1.249 . S
C615 O613 1.267 . S
Dy616 O620 2.398 . S
Dy616 O621 2.491 . S
Dy616 O622 2.403 . S
Dy616 O623 2.664 . S
Dy616 O627 2.326 . S
Dy616 O631 2.310 . S
Dy616 O632 2.351 . S
C617 O628 1.185 . S
C617 O629 1.355 . S
C618 O620 1.185 . S
C618 O621 1.355 . S
Dy619 O623 2.310 . S
Dy619 O626 2.351 . S
Dy619 O628 2.398 . S
Dy619 O629 2.491 . S
Dy619 O630 2.403 . S
Dy619 O631 2.664 . S
Dy619 O633 2.326 . S
O620 Dy616 2.398 . S
O620 C618 1.185 . S
O621 Dy616 2.491 . S
O621 C618 1.355 . S
O622 Dy616 2.403 . S
O622 C624 1.254 . S
O623 Dy616 2.664 . S
O623 Dy619 2.310 . S
O623 C624 1.268 . S
C624 O622 1.254 . S
C624 O623 1.268 . S
C625 O630 1.254 . S
C625 O631 1.268 . S
O626 Dy619 2.351 . S
O626 C634 1.249 . S
O627 Dy616 2.326 . S
O627 C634 1.267 . S
O628 C617 1.185 . S
O628 Dy619 2.398 . S
O629 C617 1.355 . S
O629 Dy619 2.491 . S
O630 Dy619 2.403 . S
O630 C625 1.254 . S
O631 Dy616 2.310 . S
O631 Dy619 2.664 . S
O631 C625 1.268 . S
O632 Dy616 2.351 . S
O632 C635 1.249 . S
O633 Dy619 2.326 . S
O633 C635 1.267 . S
C634 O626 1.249 . S
C634 O627 1.267 . S
C635 O632 1.249 . S
C635 O633 1.267 . S
Dy636 O640 2.411 . S
Dy636 O641 2.483 1_556 S
Dy636 O642 2.427 . S
Dy636 O643 2.671 . S
Dy636 O647 2.331 . S
Dy636 O651 2.288 1_556 S
Dy636 O652 2.346 1_556 S
C637 O648 1.185 . S
C637 O649 1.355 . S
C638 O640 1.185 . S
C638 O641 1.355 1_556 S
Dy639 O643 2.310 1_654 S
Dy639 O646 2.351 . S
Dy639 O648 2.398 . S
Dy639 O649 2.491 . S
Dy639 O650 2.403 . S
Dy639 O651 2.664 1_655 S
Dy639 O653 2.326 1_655 S
O640 Dy636 2.411 . S
O640 C638 1.185 . S
O641 Dy636 2.483 1_554 S
O641 C638 1.355 1_554 S
O642 Dy636 2.427 . S
O642 C644 1.254 . S
O643 Dy636 2.671 . S
O643 Dy639 2.310 1_456 S
O643 C644 1.268 . S
C644 O642 1.254 . S
C644 O643 1.268 . S
C645 O650 1.254 1_455 S
C645 O651 1.268 . S
O646 Dy639 2.351 . S
O646 C654 1.249 1_654 S
O647 Dy636 2.331 . S
O647 C654 1.267 . S
O648 C637 1.185 . S
O648 Dy639 2.398 . S
O649 C637 1.355 . S
O649 Dy639 2.491 . S
O650 Dy639 2.403 . S
O650 C645 1.254 1_655 S
O651 Dy636 2.288 1_554 S
O651 Dy639 2.664 1_455 S
O651 C645 1.268 . S
O652 Dy636 2.346 1_554 S
O652 C655 1.249 . S
O653 Dy639 2.326 1_455 S
O653 C655 1.267 . S
C654 O646 1.249 1_456 S
C654 O647 1.267 . S
C655 O652 1.249 . S
C655 O653 1.267 . S
H656 C662 0.930 . S
H657 C665 0.930 . S
H658 C666 0.930 . S
H659 C667 0.946 . S
H660 C670 0.930 . S
H661 C671 0.930 . S
C662 H656 0.930 . S
C662 C663 1.353 . S
C662 C664 1.415 . S
C663 C662 1.353 . S
C663 C665 1.422 1_655 S
C664 C662 1.415 . S
C664 C669 1.425 1_655 S
C664 C671 1.409 . S
C665 H657 0.930 . S
C665 C663 1.422 1_455 S
C665 C666 1.362 . S
C666 H658 0.930 . S
C666 C665 1.362 . S
C666 C669 1.409 . S
C667 H659 0.946 . S
C667 C668 1.355 . S
C667 C669 1.415 . S
C668 C667 1.355 . S
C668 C670 1.419 1_455 S
C669 C664 1.425 1_455 S
C669 C666 1.409 . S
C669 C667 1.415 . S
C670 H660 0.930 . S
C670 C668 1.419 1_655 S
C670 C671 1.362 . S
C671 H661 0.930 . S
C671 C664 1.409 . S
C671 C670 1.362 . S
H672 C678 0.930 . S
H673 C681 0.930 . S
H674 C682 0.930 . S
H675 C683 0.930 . S
H676 C686 0.930 . S
H677 C687 0.930 . S
C678 H672 0.930 . S
C678 C679 1.355 . S
C678 C680 1.415 . S
C679 C678 1.355 . S
C679 C681 1.419 . S
C680 C678 1.415 . S
C680 C685 1.425 . S
C680 C687 1.409 . S
C681 H673 0.930 . S
C681 C679 1.419 . S
C681 C682 1.362 . S
C682 H674 0.930 . S
C682 C681 1.362 . S
C682 C685 1.409 . S
C683 H675 0.930 . S
C683 C684 1.355 . S
C683 C685 1.415 . S
C684 C683 1.355 . S
C684 C686 1.419 . S
C685 C680 1.425 . S
C685 C682 1.409 . S
C685 C683 1.415 . S
C686 H676 0.930 . S
C686 C684 1.419 . S
C686 C687 1.362 . S
C687 H677 0.930 . S
C687 C680 1.409 . S
C687 C686 1.362 . S
H688 C694 0.930 . S
H689 C697 0.930 . S
H690 C698 0.930 . S
H691 C699 0.930 . S
H692 C702 0.930 . S
H693 C703 0.930 . S
C694 H688 0.930 . S
C694 C695 1.355 . S
C694 C696 1.415 . S
C695 C694 1.355 . S
C695 C697 1.419 . S
C696 C694 1.415 . S
C696 C701 1.425 . S
C696 C703 1.409 . S
C697 H689 0.930 . S
C697 C695 1.419 . S
C697 C698 1.362 . S
C698 H690 0.930 . S
C698 C697 1.362 . S
C698 C701 1.409 . S
C699 H691 0.930 . S
C699 C700 1.355 . S
C699 C701 1.415 . S
C700 C699 1.355 . S
C700 C702 1.419 . S
C701 C696 1.425 . S
C701 C698 1.409 . S
C701 C699 1.415 . S
C702 H692 0.930 . S
C702 C700 1.419 . S
C702 C703 1.362 . S
C703 H693 0.930 . S
C703 C696 1.409 . S
C703 C702 1.362 . S
H704 C710 0.930 . S
H705 C713 0.930 . S
H706 C714 0.930 . S
H707 C715 0.930 . S
H708 C718 0.930 . S
H709 C719 0.930 . S
C710 H704 0.930 . S
C710 C711 1.355 . S
C710 C712 1.415 . S
C711 C710 1.355 . S
C711 C713 1.419 . S
C712 C710 1.415 . S
C712 C717 1.425 . S
C712 C719 1.409 . S
C713 H705 0.930 . S
C713 C711 1.419 . S
C713 C714 1.362 . S
C714 H706 0.930 . S
C714 C713 1.362 . S
C714 C717 1.409 . S
C715 H707 0.930 . S
C715 C716 1.355 . S
C715 C717 1.415 . S
C716 C715 1.355 . S
C716 C718 1.419 . S
C717 C712 1.425 . S
C717 C714 1.409 . S
C717 C715 1.415 . S
C718 H708 0.930 . S
C718 C716 1.419 . S
C718 C719 1.362 . S
C719 H709 0.930 . S
C719 C712 1.409 . S
C719 C718 1.362 . S
H720 C726 0.924 1_655 S
H721 C729 0.930 . S
H722 C730 0.930 . S
H723 C731 0.930 . S
H724 C734 0.930 . S
H725 C735 0.930 . S
C726 H720 0.924 1_455 S
C726 C727 1.359 . S
C726 C728 1.416 . S
C727 C726 1.359 . S
C727 C729 1.419 . S
C728 C726 1.416 . S
C728 C733 1.425 . S
C728 C735 1.409 1_455 S
C729 H721 0.930 . S
C729 C727 1.419 . S
C729 C730 1.362 . S
C730 H722 0.930 . S
C730 C729 1.362 . S
C730 C733 1.409 . S
C731 H723 0.930 . S
C731 C732 1.355 . S
C731 C733 1.415 . S
C732 C731 1.355 . S
C732 C734 1.419 1_455 S
C733 C728 1.425 . S
C733 C730 1.409 . S
C733 C731 1.415 . S
C734 H724 0.930 . S
C734 C732 1.419 1_655 S
C734 C735 1.362 . S
C735 H725 0.930 . S
C735 C728 1.409 1_655 S
C735 C734 1.362 . S
H736 C742 0.930 . S
H737 C745 0.930 . S
H738 C746 0.930 . S
H739 C747 0.930 . S
H740 C750 0.930 . S
H741 C751 0.930 . S
C742 H736 0.930 . S
C742 C743 1.355 . S
C742 C744 1.415 . S
C743 C742 1.355 . S
C743 C745 1.419 . S
C744 C742 1.415 . S
C744 C749 1.425 . S
C744 C751 1.409 . S
C745 H737 0.930 . S
C745 C743 1.419 . S
C745 C746 1.362 . S
C746 H738 0.930 . S
C746 C745 1.362 . S
C746 C749 1.409 . S
C747 H739 0.930 . S
C747 C748 1.355 . S
C747 C749 1.415 . S
C748 C747 1.355 . S
C748 C750 1.419 . S
C749 C744 1.425 . S
C749 C746 1.409 . S
C749 C747 1.415 . S
C750 H740 0.930 . S
C750 C748 1.419 . S
C750 C751 1.362 . S
C751 H741 0.930 . S
C751 C744 1.409 . S
C751 C750 1.362 . S
H752 C758 0.930 . S
H753 C761 0.930 . S
H754 C762 0.930 . S
H755 C763 0.930 . S
H756 C766 0.930 . S
H757 C767 0.930 . S
C758 H752 0.930 . S
C758 C759 1.355 . S
C758 C760 1.415 . S
C759 C758 1.355 . S
C759 C761 1.419 . S
C760 C758 1.415 . S
C760 C765 1.425 . S
C760 C767 1.409 . S
C761 H753 0.930 . S
C761 C759 1.419 . S
C761 C762 1.362 . S
C762 H754 0.930 . S
C762 C761 1.362 . S
C762 C765 1.409 . S
C763 H755 0.930 . S
C763 C764 1.355 . S
C763 C765 1.415 . S
C764 C763 1.355 . S
C764 C766 1.419 . S
C765 C760 1.425 . S
C765 C762 1.409 . S
C765 C763 1.415 . S
C766 H756 0.930 . S
C766 C764 1.419 . S
C766 C767 1.362 . S
C767 H757 0.930 . S
C767 C760 1.409 . S
C767 C766 1.362 . S
H768 C774 0.930 . S
H769 C777 0.930 . S
H770 C778 0.930 . S
H771 C779 0.930 . S
H772 C782 0.930 . S
H773 C783 0.930 . S
C774 H768 0.930 . S
C774 C775 1.355 . S
C774 C776 1.415 . S
C775 C774 1.355 . S
C775 C777 1.419 . S
C776 C774 1.415 . S
C776 C781 1.425 . S
C776 C783 1.409 . S
C777 H769 0.930 . S
C777 C775 1.419 . S
C777 C778 1.362 . S
C778 H770 0.930 . S
C778 C777 1.362 . S
C778 C781 1.409 . S
C779 H771 0.930 . S
C779 C780 1.355 . S
C779 C781 1.415 . S
C780 C779 1.355 . S
C780 C782 1.419 . S
C781 C776 1.425 . S
C781 C778 1.409 . S
C781 C779 1.415 . S
C782 H772 0.930 . S
C782 C780 1.419 . S
C782 C783 1.362 . S
C783 H773 0.930 . S
C783 C776 1.409 . S
C783 C782 1.362 . S
H784 C790 0.930 . S
H785 C793 0.930 . S
H786 C794 0.930 . S
H787 C795 0.930 . S
H788 C798 0.962 . S
H789 C799 0.930 . S
C790 H784 0.930 . S
C790 C791 1.355 . S
C790 C792 1.415 . S
C791 C790 1.355 . S
C791 C793 1.419 . S
C792 C790 1.415 . S
C792 C797 1.425 . S
C792 C799 1.409 . S
C793 H785 0.930 . S
C793 C791 1.419 . S
C793 C794 1.362 . S
C794 H786 0.930 . S
C794 C793 1.362 . S
C794 C797 1.409 . S
C795 H787 0.930 . S
C795 C796 1.355 . S
C795 C797 1.415 . S
C796 C795 1.355 . S
C796 C798 1.405 1_655 S
C797 C792 1.425 . S
C797 C794 1.409 . S
C797 C795 1.415 . S
C798 H788 0.962 . S
C798 C796 1.405 1_455 S
C798 C799 1.346 1_455 S
C799 H789 0.930 . S
C799 C792 1.409 . S
C799 C798 1.346 1_655 S
H800 C806 0.930 . S
H801 C809 0.930 . S
H802 C810 0.930 . S
H803 C811 0.930 . S
H804 C814 0.930 . S
H805 C815 0.930 . S
C806 H800 0.930 . S
C806 C807 1.355 . S
C806 C808 1.415 . S
C807 C806 1.355 . S
C807 C809 1.419 . S
C808 C806 1.415 . S
C808 C813 1.425 . S
C808 C815 1.409 . S
C809 H801 0.930 . S
C809 C807 1.419 . S
C809 C810 1.362 . S
C810 H802 0.930 . S
C810 C809 1.362 . S
C810 C813 1.409 . S
C811 H803 0.930 . S
C811 C812 1.355 . S
C811 C813 1.415 . S
C812 C811 1.355 . S
C812 C814 1.419 . S
C813 C808 1.425 . S
C813 C810 1.409 . S
C813 C811 1.415 . S
C814 H804 0.930 . S
C814 C812 1.419 . S
C814 C815 1.362 . S
C815 H805 0.930 . S
C815 C808 1.409 . S
C815 C814 1.362 . S
H816 C822 0.930 1_565 S
H817 C825 0.930 . S
H818 C826 0.930 . S
H819 C827 0.930 . S
H820 C830 0.930 . S
H821 C831 0.930 . S
C822 H816 0.930 1_545 S
C822 C823 1.355 . S
C822 C824 1.415 . S
C823 C822 1.355 . S
C823 C825 1.419 . S
C824 C822 1.415 . S
C824 C829 1.425 . S
C824 C831 1.409 1_545 S
C825 H817 0.930 . S
C825 C823 1.419 . S
C825 C826 1.362 . S
C826 H818 0.930 . S
C826 C825 1.362 . S
C826 C829 1.409 . S
C827 H819 0.930 . S
C827 C828 1.355 . S
C827 C829 1.415 . S
C828 C827 1.355 . S
C828 C830 1.419 1_545 S
C829 C824 1.425 . S
C829 C826 1.409 . S
C829 C827 1.415 . S
C830 H820 0.930 . S
C830 C828 1.419 1_565 S
C830 C831 1.362 . S
C831 H821 0.930 . S
C831 C824 1.409 1_565 S
C831 C830 1.362 . S
H832 C838 0.930 . S
H833 C841 0.930 . S
H834 C842 0.930 . S
H835 C843 0.930 . S
H836 C846 0.930 . S
H837 C847 0.930 . S
C838 H832 0.930 . S
C838 C839 1.355 . S
C838 C840 1.415 . S
C839 C838 1.355 . S
C839 C841 1.419 . S
C840 C838 1.415 . S
C840 C845 1.425 . S
C840 C847 1.409 . S
C841 H833 0.930 . S
C841 C839 1.419 . S
C841 C842 1.362 . S
C842 H834 0.930 . S
C842 C841 1.362 . S
C842 C845 1.409 . S
C843 H835 0.930 . S
C843 C844 1.355 . S
C843 C845 1.415 . S
C844 C843 1.355 . S
C844 C846 1.419 . S
C845 C840 1.425 . S
C845 C842 1.409 . S
C845 C843 1.415 . S
C846 H836 0.930 . S
C846 C844 1.419 . S
C846 C847 1.362 . S
C847 H837 0.930 . S
C847 C840 1.409 . S
C847 C846 1.362 . S
H848 C854 0.930 . S
H849 C857 0.930 . S
H850 C858 0.930 . S
H851 C859 0.930 . S
H852 C862 0.930 . S
H853 C863 0.930 . S
C854 H848 0.930 . S
C854 C855 1.355 . S
C854 C856 1.415 . S
C855 C854 1.355 . S
C855 C857 1.419 . S
C856 C854 1.415 . S
C856 C861 1.425 . S
C856 C863 1.409 1_545 S
C857 H849 0.930 . S
C857 C855 1.419 . S
C857 C858 1.362 . S
C858 H850 0.930 . S
C858 C857 1.362 . S
C858 C861 1.409 . S
C859 H851 0.930 . S
C859 C860 1.355 . S
C859 C861 1.415 . S
C860 C859 1.355 . S
C860 C862 1.419 1_545 S
C861 C856 1.425 . S
C861 C858 1.409 . S
C861 C859 1.415 . S
C862 H852 0.930 . S
C862 C860 1.419 1_565 S
C862 C863 1.362 . S
C863 H853 0.930 . S
C863 C856 1.409 1_565 S
C863 C862 1.362 . S
H864 C870 0.930 . S
H865 C873 0.930 . S
H866 C874 0.930 . S
H867 C875 0.930 . S
H868 C878 0.930 . S
H869 C879 0.930 . S
C870 H864 0.930 . S
C870 C871 1.355 . S
C870 C872 1.415 . S
C871 C870 1.355 . S
C871 C873 1.419 . S
C872 C870 1.415 . S
C872 C877 1.425 . S
C872 C879 1.409 . S
C873 H865 0.930 . S
C873 C871 1.419 . S
C873 C874 1.362 . S
C874 H866 0.930 . S
C874 C873 1.362 . S
C874 C877 1.409 . S
C875 H867 0.930 . S
C875 C876 1.355 . S
C875 C877 1.415 . S
C876 C875 1.355 . S
C876 C878 1.419 . S
C877 C872 1.425 . S
C877 C874 1.409 . S
C877 C875 1.415 . S
C878 H868 0.930 . S
C878 C876 1.419 . S
C878 C879 1.362 . S
C879 H869 0.930 . S
C879 C872 1.409 . S
C879 C878 1.362 . S
H880 C886 0.930 . S
H881 C889 0.930 . S
H882 C890 0.930 . S
H883 C891 0.930 . S
H884 C894 0.930 . S
H885 C895 0.930 . S
C886 H880 0.930 . S
C886 C887 1.355 . S
C886 C888 1.415 . S
C887 C886 1.355 . S
C887 C889 1.419 . S
C888 C886 1.415 . S
C888 C893 1.425 . S
C888 C895 1.409 . S
C889 H881 0.930 . S
C889 C887 1.419 . S
C889 C890 1.362 . S
C890 H882 0.930 . S
C890 C889 1.362 . S
C890 C893 1.409 . S
C891 H883 0.930 . S
C891 C892 1.355 . S
C891 C893 1.415 . S
C892 C891 1.355 . S
C892 C894 1.419 . S
C893 C888 1.425 . S
C893 C890 1.409 . S
C893 C891 1.415 . S
C894 H884 0.930 . S
C894 C892 1.419 . S
C894 C895 1.362 . S
C895 H885 0.930 . S
C895 C888 1.409 . S
C895 C894 1.362 . S
H896 C902 0.930 . S
H897 C905 0.930 . S
H898 C906 0.930 . S
H899 C907 0.930 . S
H900 C910 0.930 . S
H901 C911 0.930 . S
C902 H896 0.930 . S
C902 C903 1.355 . S
C902 C904 1.415 . S
C903 C902 1.355 . S
C903 C905 1.419 . S
C904 C902 1.415 . S
C904 C909 1.425 . S
C904 C911 1.409 . S
C905 H897 0.930 . S
C905 C903 1.419 . S
C905 C906 1.362 . S
C906 H898 0.930 . S
C906 C905 1.362 . S
C906 C909 1.409 . S
C907 H899 0.930 . S
C907 C908 1.355 . S
C907 C909 1.415 . S
C908 C907 1.355 . S
C908 C910 1.419 . S
C909 C904 1.425 . S
C909 C906 1.409 . S
C909 C907 1.415 . S
C910 H900 0.930 . S
C910 C908 1.419 . S
C910 C911 1.362 . S
C911 H901 0.930 . S
C911 C904 1.409 . S
C911 C910 1.362 . S
H912 C918 0.930 . S
H913 C921 0.930 . S
H914 C922 0.930 1_545 S
H915 C923 0.930 1_545 S
H916 C926 0.930 . S
H917 C927 0.930 . S
C918 H912 0.930 . S
C918 C919 1.355 . S
C918 C920 1.415 . S
C919 C918 1.355 . S
C919 C921 1.419 . S
C920 C918 1.415 . S
C920 C925 1.425 . S
C920 C927 1.409 . S
C921 H913 0.930 . S
C921 C919 1.419 . S
C921 C922 1.362 . S
C922 H914 0.930 1_565 S
C922 C921 1.362 . S
C922 C925 1.409 . S
C923 H915 0.930 1_565 S
C923 C924 1.355 . S
C923 C925 1.415 . S
C924 C923 1.355 . S
C924 C926 1.419 . S
C925 C920 1.425 . S
C925 C922 1.409 . S
C925 C923 1.415 . S
C926 H916 0.930 . S
C926 C924 1.419 . S
C926 C927 1.362 . S
C927 H917 0.930 . S
C927 C920 1.409 . S
C927 C926 1.362 . S
H928 C934 0.930 . S
H929 C937 0.930 . S
H930 C938 0.930 . S
H931 C939 0.930 . S
H932 C942 0.930 1_556 S
H933 C943 0.931 . S
C934 H928 0.930 . S
C934 C935 1.355 1_556 S
C934 C936 1.409 1_556 S
C935 C934 1.355 1_554 S
C935 C937 1.419 . S
C936 C934 1.409 1_554 S
C936 C941 1.428 . S
C936 C943 1.414 1_554 S
C937 H929 0.930 . S
C937 C935 1.419 . S
C937 C938 1.362 . S
C938 H930 0.930 . S
C938 C937 1.362 . S
C938 C941 1.409 . S
C939 H931 0.930 . S
C939 C940 1.355 . S
C939 C941 1.415 . S
C940 C939 1.355 . S
C940 C942 1.419 . S
C941 C936 1.428 . S
C941 C938 1.409 . S
C941 C939 1.415 . S
C942 H932 0.930 1_554 S
C942 C940 1.419 . S
C942 C943 1.362 1_554 S
C943 H933 0.931 . S
C943 C936 1.414 1_556 S
C943 C942 1.362 1_556 S
H944 C950 0.930 . S
H945 C953 0.930 . S
H946 C954 0.930 . S
H947 C955 0.930 . S
H948 C958 0.930 . S
H949 C959 0.930 . S
C950 H944 0.930 . S
C950 C951 1.355 . S
C950 C952 1.415 . S
C951 C950 1.355 . S
C951 C953 1.419 . S
C952 C950 1.415 . S
C952 C957 1.425 . S
C952 C959 1.409 . S
C953 H945 0.930 . S
C953 C951 1.419 . S
C953 C954 1.362 . S
C954 H946 0.930 . S
C954 C953 1.362 . S
C954 C957 1.409 . S
C955 H947 0.930 . S
C955 C956 1.355 . S
C955 C957 1.415 . S
C956 C955 1.355 . S
C956 C958 1.419 . S
C957 C952 1.425 . S
C957 C954 1.409 . S
C957 C955 1.415 . S
C958 H948 0.930 . S
C958 C956 1.419 . S
C958 C959 1.362 . S
C959 H949 0.930 . S
C959 C952 1.409 . S
C959 C958 1.362 . S
H960 C966 0.930 . S
H961 C969 0.930 . S
H962 C970 0.930 . S
H963 C971 0.930 . S
H964 C974 0.930 . S
H965 C975 0.930 . S
C966 H960 0.930 . S
C966 C967 1.355 . S
C966 C968 1.415 . S
C967 C966 1.355 . S
C967 C969 1.419 . S
C968 C966 1.415 . S
C968 C973 1.425 . S
C968 C975 1.409 . S
C969 H961 0.930 . S
C969 C967 1.419 . S
C969 C970 1.362 . S
C970 H962 0.930 . S
C970 C969 1.362 . S
C970 C973 1.409 . S
C971 H963 0.930 . S
C971 C972 1.355 . S
C971 C973 1.415 . S
C972 C971 1.355 . S
C972 C974 1.419 . S
C973 C968 1.425 . S
C973 C970 1.409 . S
C973 C971 1.415 . S
C974 H964 0.930 . S
C974 C972 1.419 . S
C974 C975 1.362 . S
C975 H965 0.930 . S
C975 C968 1.409 . S
C975 C974 1.362 . S
H976 C982 0.930 . S
H977 C985 0.930 . S
H978 C986 0.930 . S
H979 C987 0.930 . S
H980 C990 0.930 . S
H981 C991 0.930 . S
C982 H976 0.930 . S
C982 C983 1.355 . S
C982 C984 1.415 . S
C983 C982 1.355 . S
C983 C985 1.419 . S
C984 C982 1.415 . S
C984 C989 1.425 . S
C984 C991 1.409 . S
C985 H977 0.930 . S
C985 C983 1.419 . S
C985 C986 1.362 . S
C986 H978 0.930 . S
C986 C985 1.362 . S
C986 C989 1.409 . S
C987 H979 0.930 . S
C987 C988 1.355 . S
C987 C989 1.415 . S
C988 C987 1.355 . S
C988 C990 1.419 . S
C989 C984 1.425 . S
C989 C986 1.409 . S
C989 C987 1.415 . S
C990 H980 0.930 . S
C990 C988 1.419 . S
C990 C991 1.362 . S
C991 H981 0.930 . S
C991 C984 1.409 . S
C991 C990 1.362 . S
H992 C998 0.930 . S
H993 C1001 0.930 . S
H994 C1002 0.930 . S
H995 C1003 0.930 . S
H996 C1006 0.930 . S
H997 C1007 0.930 . S
C998 H992 0.930 . S
C998 C999 1.355 . S
C998 C1000 1.415 . S
C999 C998 1.355 . S
C999 C1001 1.419 . S
C1000 C998 1.415 . S
C1000 C1005 1.425 . S
C1000 C1007 1.409 . S
C1001 H993 0.930 . S
C1001 C999 1.419 . S
C1001 C1002 1.362 . S
C1002 H994 0.930 . S
C1002 C1001 1.362 . S
C1002 C1005 1.409 . S
C1003 H995 0.930 . S
C1003 C1004 1.355 . S
C1003 C1005 1.415 . S
C1004 C1003 1.355 . S
C1004 C1006 1.419 . S
C1005 C1000 1.425 . S
C1005 C1002 1.409 . S
C1005 C1003 1.415 . S
C1006 H996 0.930 . S
C1006 C1004 1.419 . S
C1006 C1007 1.362 . S
C1007 H997 0.930 . S
C1007 C1000 1.409 . S
C1007 C1006 1.362 . S
H1008 C1014 0.930 . S
H1009 C1017 0.930 . S
H1010 C1018 0.930 . S
H1011 C1019 0.930 . S
H1012 C1022 0.930 . S
H1013 C1023 0.930 . S
C1014 H1008 0.930 . S
C1014 C1015 1.355 . S
C1014 C1016 1.415 . S
C1015 C1014 1.355 . S
C1015 C1017 1.419 . S
C1016 C1014 1.415 . S
C1016 C1021 1.425 . S
C1016 C1023 1.409 . S
C1017 H1009 0.930 . S
C1017 C1015 1.419 . S
C1017 C1018 1.362 . S
C1018 H1010 0.930 . S
C1018 C1017 1.362 . S
C1018 C1021 1.409 . S
C1019 H1011 0.930 . S
C1019 C1020 1.355 . S
C1019 C1021 1.415 . S
C1020 C1019 1.355 . S
C1020 C1022 1.419 . S
C1021 C1016 1.425 . S
C1021 C1018 1.409 . S
C1021 C1019 1.415 . S
C1022 H1012 0.930 . S
C1022 C1020 1.419 . S
C1022 C1023 1.362 . S
C1023 H1013 0.930 . S
C1023 C1016 1.409 . S
C1023 C1022 1.362 . S
H1024 C1030 0.930 . S
H1025 C1033 0.930 . S
H1026 C1034 0.930 . S
H1027 C1035 0.930 . S
H1028 C1038 0.930 . S
H1029 C1039 0.930 . S
C1030 H1024 0.930 . S
C1030 C1031 1.355 . S
C1030 C1032 1.415 . S
C1031 C1030 1.355 . S
C1031 C1033 1.419 . S
C1032 C1030 1.415 . S
C1032 C1037 1.425 . S
C1032 C1039 1.409 . S
C1033 H1025 0.930 . S
C1033 C1031 1.419 . S
C1033 C1034 1.362 . S
C1034 H1026 0.930 . S
C1034 C1033 1.362 . S
C1034 C1037 1.409 . S
C1035 H1027 0.930 . S
C1035 C1036 1.355 . S
C1035 C1037 1.415 . S
C1036 C1035 1.355 . S
C1036 C1038 1.419 . S
C1037 C1032 1.425 . S
C1037 C1034 1.409 . S
C1037 C1035 1.415 . S
C1038 H1028 0.930 . S
C1038 C1036 1.419 . S
C1038 C1039 1.362 . S
C1039 H1029 0.930 . S
C1039 C1032 1.409 . S
C1039 C1038 1.362 . S
H1040 C1046 0.930 . S
H1041 C1049 0.930 1_655 S
H1042 C1050 0.948 . S
H1043 C1051 0.930 1_655 S
H1044 C1054 0.930 . S
H1045 C1055 0.930 . S
C1046 H1040 0.930 . S
C1046 C1047 1.355 . S
C1046 C1048 1.415 . S
C1047 C1046 1.355 . S
C1047 C1049 1.419 . S
C1048 C1046 1.415 . S
C1048 C1053 1.425 . S
C1048 C1055 1.409 . S
C1049 H1041 0.930 1_455 S
C1049 C1047 1.419 . S
C1049 C1050 1.354 1_455 S
C1050 H1042 0.948 . S
C1050 C1049 1.354 1_655 S
C1050 C1053 1.400 1_655 S
C1051 H1043 0.930 1_455 S
C1051 C1052 1.355 . S
C1051 C1053 1.415 . S
C1052 C1051 1.355 . S
C1052 C1054 1.419 . S
C1053 C1048 1.425 . S
C1053 C1050 1.400 1_455 S
C1053 C1051 1.415 . S
C1054 H1044 0.930 . S
C1054 C1052 1.419 . S
C1054 C1055 1.362 . S
C1055 H1045 0.930 . S
C1055 C1048 1.409 . S
C1055 C1054 1.362 . S
H1056 C1062 0.930 . S
H1057 C1065 0.930 . S
H1058 C1066 0.930 . S
H1059 C1067 0.930 . S
H1060 C1070 0.930 . S
H1061 C1071 0.930 . S
C1062 H1056 0.930 . S
C1062 C1063 1.355 . S
C1062 C1064 1.415 . S
C1063 C1062 1.355 . S
C1063 C1065 1.419 . S
C1064 C1062 1.415 . S
C1064 C1069 1.425 . S
C1064 C1071 1.409 . S
C1065 H1057 0.930 . S
C1065 C1063 1.419 . S
C1065 C1066 1.362 . S
C1066 H1058 0.930 . S
C1066 C1065 1.362 . S
C1066 C1069 1.409 . S
C1067 H1059 0.930 . S
C1067 C1068 1.355 . S
C1067 C1069 1.415 . S
C1068 C1067 1.355 . S
C1068 C1070 1.419 . S
C1069 C1064 1.425 . S
C1069 C1066 1.409 . S
C1069 C1067 1.415 . S
C1070 H1060 0.930 . S
C1070 C1068 1.419 . S
C1070 C1071 1.362 . S
C1071 H1061 0.930 . S
C1071 C1064 1.409 . S
C1071 C1070 1.362 . S
H1072 C1078 0.930 . S
H1073 C1081 0.930 . S
H1074 C1082 0.930 . S
H1075 C1083 0.930 . S
H1076 C1086 0.930 . S
H1077 C1087 0.930 . S
C1078 H1072 0.930 . S
C1078 C1079 1.355 . S
C1078 C1080 1.415 . S
C1079 C1078 1.355 . S
C1079 C1081 1.419 . S
C1080 C1078 1.415 . S
C1080 C1085 1.425 . S
C1080 C1087 1.409 . S
C1081 H1073 0.930 . S
C1081 C1079 1.419 . S
C1081 C1082 1.362 . S
C1082 H1074 0.930 . S
C1082 C1081 1.362 . S
C1082 C1085 1.409 . S
C1083 H1075 0.930 . S
C1083 C1084 1.355 . S
C1083 C1085 1.415 . S
C1084 C1083 1.355 . S
C1084 C1086 1.419 . S
C1085 C1080 1.425 . S
C1085 C1082 1.409 . S
C1085 C1083 1.415 . S
C1086 H1076 0.930 . S
C1086 C1084 1.419 . S
C1086 C1087 1.362 . S
C1087 H1077 0.930 . S
C1087 C1080 1.409 . S
C1087 C1086 1.362 . S
H1088 C1094 0.930 . S
H1089 C1097 0.930 . S
H1090 C1098 0.930 . S
H1091 C1099 0.930 . S
H1092 C1102 0.930 . S
H1093 C1103 0.930 . S
C1094 H1088 0.930 . S
C1094 C1095 1.355 . S
C1094 C1096 1.415 . S
C1095 C1094 1.355 . S
C1095 C1097 1.419 . S
C1096 C1094 1.415 . S
C1096 C1101 1.425 . S
C1096 C1103 1.409 . S
C1097 H1089 0.930 . S
C1097 C1095 1.419 . S
C1097 C1098 1.362 . S
C1098 H1090 0.930 . S
C1098 C1097 1.362 . S
C1098 C1101 1.409 . S
C1099 H1091 0.930 . S
C1099 C1100 1.355 . S
C1099 C1101 1.415 . S
C1100 C1099 1.355 . S
C1100 C1102 1.419 . S
C1101 C1096 1.425 . S
C1101 C1098 1.409 . S
C1101 C1099 1.415 . S
C1102 H1092 0.930 . S
C1102 C1100 1.419 . S
C1102 C1103 1.362 . S
C1103 H1093 0.930 . S
C1103 C1096 1.409 . S
C1103 C1102 1.362 . S
H1104 C1110 0.930 . S
H1105 C1113 0.930 . S
H1106 C1114 0.930 . S
H1107 C1115 0.930 . S
H1108 C1118 0.930 . S
H1109 C1119 0.930 . S
C1110 H1104 0.930 . S
C1110 C1111 1.355 . S
C1110 C1112 1.415 . S
C1111 C1110 1.355 . S
C1111 C1113 1.419 1_455 S
C1112 C1110 1.415 . S
C1112 C1117 1.398 1_455 S
C1112 C1119 1.409 . S
C1113 H1105 0.930 . S
C1113 C1111 1.419 1_655 S
C1113 C1114 1.362 . S
C1114 H1106 0.930 . S
C1114 C1113 1.362 . S
C1114 C1117 1.431 . S
C1115 H1107 0.930 . S
C1115 C1116 1.355 1_655 S
C1115 C1117 1.419 . S
C1116 C1115 1.355 1_455 S
C1116 C1118 1.419 . S
C1117 C1112 1.398 1_655 S
C1117 C1114 1.431 . S
C1117 C1115 1.419 . S
C1118 H1108 0.930 . S
C1118 C1116 1.419 . S
C1118 C1119 1.362 . S
C1119 H1109 0.930 . S
C1119 C1112 1.409 . S
C1119 C1118 1.362 . S
H1120 C1126 0.930 . S
H1121 C1129 0.930 . S
H1122 C1130 0.930 . S
H1123 C1131 0.930 . S
H1124 C1134 0.930 . S
H1125 C1135 0.930 . S
C1126 H1120 0.930 . S
C1126 C1127 1.355 . S
C1126 C1128 1.415 . S
C1127 C1126 1.355 . S
C1127 C1129 1.419 . S
C1128 C1126 1.415 . S
C1128 C1133 1.425 . S
C1128 C1135 1.409 . S
C1129 H1121 0.930 . S
C1129 C1127 1.419 . S
C1129 C1130 1.362 . S
C1130 H1122 0.930 . S
C1130 C1129 1.362 . S
C1130 C1133 1.409 . S
C1131 H1123 0.930 . S
C1131 C1132 1.355 . S
C1131 C1133 1.415 . S
C1132 C1131 1.355 . S
C1132 C1134 1.419 . S
C1133 C1128 1.425 . S
C1133 C1130 1.409 . S
C1133 C1131 1.415 . S
C1134 H1124 0.930 . S
C1134 C1132 1.419 . S
C1134 C1135 1.362 . S
C1135 H1125 0.930 . S
C1135 C1128 1.409 . S
C1135 C1134 1.362 . S
H1136 C1142 0.930 . S
H1137 C1145 0.930 . S
H1138 C1146 0.930 . S
H1139 C1147 0.930 1_554 S
H1140 C1150 0.930 . S
H1141 C1151 0.930 . S
C1142 H1136 0.930 . S
C1142 C1143 1.355 . S
C1142 C1144 1.415 . S
C1143 C1142 1.355 . S
C1143 C1145 1.419 . S
C1144 C1142 1.415 . S
C1144 C1149 1.425 . S
C1144 C1151 1.409 . S
C1145 H1137 0.930 . S
C1145 C1143 1.419 . S
C1145 C1146 1.362 . S
C1146 H1138 0.930 . S
C1146 C1145 1.362 . S
C1146 C1149 1.409 . S
C1147 H1139 0.930 1_556 S
C1147 C1148 1.355 . S
C1147 C1149 1.415 . S
C1148 C1147 1.355 . S
C1148 C1150 1.419 . S
C1149 C1144 1.425 . S
C1149 C1146 1.409 . S
C1149 C1147 1.415 . S
C1150 H1140 0.930 . S
C1150 C1148 1.419 . S
C1150 C1151 1.362 . S
C1151 H1141 0.930 . S
C1151 C1144 1.409 . S
C1151 C1150 1.362 . S
H1152 C1158 0.930 . S
H1153 C1161 0.930 . S
H1154 C1162 0.930 . S
H1155 C1163 0.930 . S
H1156 C1166 0.930 . S
H1157 C1167 0.930 . S
C1158 H1152 0.930 . S
C1158 C1159 1.355 . S
C1158 C1160 1.415 . S
C1159 C1158 1.355 . S
C1159 C1161 1.419 . S
C1160 C1158 1.415 . S
C1160 C1165 1.425 . S
C1160 C1167 1.409 . S
C1161 H1153 0.930 . S
C1161 C1159 1.419 . S
C1161 C1162 1.362 . S
C1162 H1154 0.930 . S
C1162 C1161 1.362 . S
C1162 C1165 1.409 . S
C1163 H1155 0.930 . S
C1163 C1164 1.355 . S
C1163 C1165 1.415 . S
C1164 C1163 1.355 . S
C1164 C1166 1.419 . S
C1165 C1160 1.425 . S
C1165 C1162 1.409 . S
C1165 C1163 1.415 . S
C1166 H1156 0.930 . S
C1166 C1164 1.419 . S
C1166 C1167 1.362 . S
C1167 H1157 0.930 . S
C1167 C1160 1.409 . S
C1167 C1166 1.362 . S
H1168 C1174 0.930 . S
H1169 C1177 0.930 . S
H1170 C1178 0.930 . S
H1171 C1179 0.930 . S
H1172 C1182 0.930 . S
H1173 C1183 0.930 . S
C1174 H1168 0.930 . S
C1174 C1175 1.359 . S
C1174 C1176 1.415 . S
C1175 C1174 1.359 . S
C1175 C1177 1.414 1_545 S
C1176 C1174 1.415 . S
C1176 C1181 1.425 1_545 S
C1176 C1183 1.409 . S
C1177 H1169 0.930 . S
C1177 C1175 1.414 1_565 S
C1177 C1178 1.362 . S
C1178 H1170 0.930 . S
C1178 C1177 1.362 . S
C1178 C1181 1.409 . S
C1179 H1171 0.930 . S
C1179 C1180 1.355 1_565 S
C1179 C1181 1.415 . S
C1180 C1179 1.355 1_545 S
C1180 C1182 1.419 . S
C1181 C1176 1.425 1_565 S
C1181 C1178 1.409 . S
C1181 C1179 1.415 . S
C1182 H1172 0.930 . S
C1182 C1180 1.419 . S
C1182 C1183 1.362 . S
C1183 H1173 0.930 . S
C1183 C1176 1.409 . S
C1183 C1182 1.362 . S
H1184 C1190 0.930 . S
H1185 C1193 0.930 . S
H1186 C1194 0.930 . S
H1187 C1195 0.930 . S
H1188 C1198 0.930 . S
H1189 C1199 0.930 . S
C1190 H1184 0.930 . S
C1190 C1191 1.355 . S
C1190 C1192 1.415 . S
C1191 C1190 1.355 . S
C1191 C1193 1.419 . S
C1192 C1190 1.415 . S
C1192 C1197 1.425 . S
C1192 C1199 1.409 . S
C1193 H1185 0.930 . S
C1193 C1191 1.419 . S
C1193 C1194 1.362 . S
C1194 H1186 0.930 . S
C1194 C1193 1.362 . S
C1194 C1197 1.409 . S
C1195 H1187 0.930 . S
C1195 C1196 1.355 . S
C1195 C1197 1.415 . S
C1196 C1195 1.355 . S
C1196 C1198 1.419 . S
C1197 C1192 1.425 . S
C1197 C1194 1.409 . S
C1197 C1195 1.415 . S
C1198 H1188 0.930 . S
C1198 C1196 1.419 . S
C1198 C1199 1.362 . S
C1199 H1189 0.930 . S
C1199 C1192 1.409 . S
C1199 C1198 1.362 . S
H1200 C1206 0.930 . S
H1201 C1209 0.930 . S
H1202 C1210 0.930 . S
H1203 C1211 0.930 . S
H1204 C1214 0.930 . S
H1205 C1215 0.930 . S
C1206 H1200 0.930 . S
C1206 C1207 1.355 . S
C1206 C1208 1.415 . S
C1207 C1206 1.355 . S
C1207 C1209 1.419 . S
C1208 C1206 1.415 . S
C1208 C1213 1.425 . S
C1208 C1215 1.409 . S
C1209 H1201 0.930 . S
C1209 C1207 1.419 . S
C1209 C1210 1.362 . S
C1210 H1202 0.930 . S
C1210 C1209 1.362 . S
C1210 C1213 1.409 . S
C1211 H1203 0.930 . S
C1211 C1212 1.355 . S
C1211 C1213 1.415 . S
C1212 C1211 1.355 . S
C1212 C1214 1.419 . S
C1213 C1208 1.425 . S
C1213 C1210 1.409 . S
C1213 C1211 1.415 . S
C1214 H1204 0.930 . S
C1214 C1212 1.419 . S
C1214 C1215 1.362 . S
C1215 H1205 0.930 . S
C1215 C1208 1.409 . S
C1215 C1214 1.362 . S
H1216 C1222 0.930 . S
H1217 C1225 0.930 . S
H1218 C1226 0.930 . S
H1219 C1227 0.930 . S
H1220 C1230 0.930 . S
H1221 C1231 0.930 . S
C1222 H1216 0.930 . S
C1222 C1223 1.355 . S
C1222 C1224 1.415 . S
C1223 C1222 1.355 . S
C1223 C1225 1.419 . S
C1224 C1222 1.415 . S
C1224 C1229 1.425 . S
C1224 C1231 1.409 . S
C1225 H1217 0.930 . S
C1225 C1223 1.419 . S
C1225 C1226 1.362 . S
C1226 H1218 0.930 . S
C1226 C1225 1.362 . S
C1226 C1229 1.409 . S
C1227 H1219 0.930 . S
C1227 C1228 1.355 . S
C1227 C1229 1.415 . S
C1228 C1227 1.355 . S
C1228 C1230 1.419 . S
C1229 C1224 1.425 . S
C1229 C1226 1.409 . S
C1229 C1227 1.415 . S
C1230 H1220 0.930 . S
C1230 C1228 1.419 . S
C1230 C1231 1.362 . S
C1231 H1221 0.930 . S
C1231 C1224 1.409 . S
C1231 C1230 1.362 . S
H1232 C1238 0.930 . S
H1233 C1241 0.930 . S
H1234 C1242 0.930 . S
H1235 C1243 0.930 . S
H1236 C1246 0.930 . S
H1237 C1247 0.930 . S
C1238 H1232 0.930 . S
C1238 C1239 1.355 . S
C1238 C1240 1.415 . S
C1239 C1238 1.355 . S
C1239 C1241 1.419 1_565 S
C1240 C1238 1.415 . S
C1240 C1245 1.425 1_565 S
C1240 C1247 1.409 . S
C1241 H1233 0.930 . S
C1241 C1239 1.419 1_545 S
C1241 C1242 1.362 . S
C1242 H1234 0.930 . S
C1242 C1241 1.362 . S
C1242 C1245 1.409 . S
C1243 H1235 0.930 . S
C1243 C1244 1.355 . S
C1243 C1245 1.415 . S
C1244 C1243 1.355 . S
C1244 C1246 1.421 1_545 S
C1245 C1240 1.425 1_545 S
C1245 C1242 1.409 . S
C1245 C1243 1.415 . S
C1246 H1236 0.930 . S
C1246 C1244 1.421 1_565 S
C1246 C1247 1.361 . S
C1247 H1237 0.930 . S
C1247 C1240 1.409 . S
C1247 C1246 1.361 . S
H1248 C1254 0.930 . S
H1249 C1257 0.930 . S
H1250 C1258 0.930 . S
H1251 C1259 0.930 . S
H1252 C1262 0.930 . S
H1253 C1263 0.930 . S
C1254 H1248 0.930 . S
C1254 C1255 1.355 . S
C1254 C1256 1.415 . S
C1255 C1254 1.355 . S
C1255 C1257 1.419 . S
C1256 C1254 1.415 . S
C1256 C1261 1.425 . S
C1256 C1263 1.409 . S
C1257 H1249 0.930 . S
C1257 C1255 1.419 . S
C1257 C1258 1.362 . S
C1258 H1250 0.930 . S
C1258 C1257 1.362 . S
C1258 C1261 1.409 . S
C1259 H1251 0.930 . S
C1259 C1260 1.355 . S
C1259 C1261 1.415 . S
C1260 C1259 1.355 . S
C1260 C1262 1.419 . S
C1261 C1256 1.425 . S
C1261 C1258 1.409 . S
C1261 C1259 1.415 . S
C1262 H1252 0.930 . S
C1262 C1260 1.419 . S
C1262 C1263 1.362 . S
C1263 H1253 0.930 . S
C1263 C1256 1.409 . S
C1263 C1262 1.362 . S
H1264 C1270 0.930 . S
H1265 C1273 0.930 . S
H1266 C1274 0.930 . S
H1267 C1275 0.930 . S
H1268 C1278 0.930 . S
H1269 C1279 0.930 . S
C1270 H1264 0.930 . S
C1270 C1271 1.355 . S
C1270 C1272 1.415 . S
C1271 C1270 1.355 . S
C1271 C1273 1.419 1_545 S
C1272 C1270 1.415 . S
C1272 C1277 1.416 1_545 S
C1272 C1279 1.409 . S
C1273 H1265 0.930 . S
C1273 C1271 1.419 1_565 S
C1273 C1274 1.362 . S
C1274 H1266 0.930 . S
C1274 C1273 1.362 . S
C1274 C1277 1.415 . S
C1275 H1267 0.930 . S
C1275 C1276 1.351 1_565 S
C1275 C1277 1.418 . S
C1276 C1275 1.351 1_545 S
C1276 C1278 1.426 . S
C1277 C1272 1.416 1_565 S
C1277 C1274 1.415 . S
C1277 C1275 1.418 . S
C1278 H1268 0.930 . S
C1278 C1276 1.426 . S
C1278 C1279 1.362 . S
C1279 H1269 0.930 . S
C1279 C1272 1.409 . S
C1279 C1278 1.362 . S
H1280 C1286 0.930 . S
H1281 C1289 0.930 . S
H1282 C1290 0.930 . S
H1283 C1291 0.930 . S
H1284 C1294 0.930 . S
H1285 C1295 0.930 . S
C1286 H1280 0.930 . S
C1286 C1287 1.355 . S
C1286 C1288 1.415 . S
C1287 C1286 1.355 . S
C1287 C1289 1.419 . S
C1288 C1286 1.415 . S
C1288 C1293 1.425 . S
C1288 C1295 1.409 . S
C1289 H1281 0.930 . S
C1289 C1287 1.419 . S
C1289 C1290 1.362 . S
C1290 H1282 0.930 . S
C1290 C1289 1.362 . S
C1290 C1293 1.409 . S
C1291 H1283 0.930 . S
C1291 C1292 1.355 . S
C1291 C1293 1.415 . S
C1292 C1291 1.355 . S
C1292 C1294 1.419 . S
C1293 C1288 1.425 . S
C1293 C1290 1.409 . S
C1293 C1291 1.415 . S
C1294 H1284 0.930 . S
C1294 C1292 1.419 . S
C1294 C1295 1.362 . S
C1295 H1285 0.930 . S
C1295 C1288 1.409 . S
C1295 C1294 1.362 . S
H1296 C1302 0.930 . S
H1297 C1305 0.930 . S
H1298 C1306 0.930 . S
H1299 C1307 0.930 . S
H1300 C1310 0.930 . S
H1301 C1311 0.930 . S
C1302 H1296 0.930 . S
C1302 C1303 1.353 1_556 S
C1302 C1304 1.415 . S
C1303 C1302 1.353 1_554 S
C1303 C1305 1.418 . S
C1304 C1302 1.415 . S
C1304 C1309 1.425 . S
C1304 C1311 1.409 . S
C1305 H1297 0.930 . S
C1305 C1303 1.418 . S
C1305 C1306 1.362 1_554 S
C1306 H1298 0.930 . S
C1306 C1305 1.362 1_556 S
C1306 C1309 1.409 . S
C1307 H1299 0.930 . S
C1307 C1308 1.355 . S
C1307 C1309 1.415 . S
C1308 C1307 1.355 . S
C1308 C1310 1.419 . S
C1309 C1304 1.425 . S
C1309 C1306 1.409 . S
C1309 C1307 1.415 . S
C1310 H1300 0.930 . S
C1310 C1308 1.419 . S
C1310 C1311 1.362 . S
C1311 H1301 0.930 . S
C1311 C1304 1.409 . S
C1311 C1310 1.362 . S
H1312 C1318 0.930 . S
H1313 C1321 0.930 . S
H1314 C1322 0.930 . S
H1315 C1323 0.930 . S
H1316 C1326 0.930 . S
H1317 C1327 0.930 . S
C1318 H1312 0.930 . S
C1318 C1319 1.355 1_556 S
C1318 C1320 1.415 1_556 S
C1319 C1318 1.355 1_554 S
C1319 C1321 1.419 . S
C1320 C1318 1.415 1_554 S
C1320 C1325 1.425 . S
C1320 C1327 1.409 1_554 S
C1321 H1313 0.930 . S
C1321 C1319 1.419 . S
C1321 C1322 1.362 . S
C1322 H1314 0.930 . S
C1322 C1321 1.362 . S
C1322 C1325 1.409 . S
C1323 H1315 0.930 . S
C1323 C1324 1.355 . S
C1323 C1325 1.415 . S
C1324 C1323 1.355 . S
C1324 C1326 1.419 1_554 S
C1325 C1320 1.425 . S
C1325 C1322 1.409 . S
C1325 C1323 1.415 . S
C1326 H1316 0.930 . S
C1326 C1324 1.419 1_556 S
C1326 C1327 1.362 . S
C1327 H1317 0.930 . S
C1327 C1320 1.409 1_556 S
C1327 C1326 1.362 . S
H1328 C1334 0.930 . S
H1329 C1337 0.930 . S
H1330 C1338 0.930 . S
H1331 C1339 0.930 . S
H1332 C1342 0.930 . S
H1333 C1343 0.930 . S
C1334 H1328 0.930 . S
C1334 C1335 1.355 . S
C1334 C1336 1.415 . S
C1335 C1334 1.355 . S
C1335 C1337 1.419 . S
C1336 C1334 1.415 . S
C1336 C1341 1.425 . S
C1336 C1343 1.409 . S
C1337 H1329 0.930 . S
C1337 C1335 1.419 . S
C1337 C1338 1.362 . S
C1338 H1330 0.930 . S
C1338 C1337 1.362 . S
C1338 C1341 1.409 . S
C1339 H1331 0.930 . S
C1339 C1340 1.355 . S
C1339 C1341 1.415 . S
C1340 C1339 1.355 . S
C1340 C1342 1.419 . S
C1341 C1336 1.425 . S
C1341 C1338 1.409 . S
C1341 C1339 1.415 . S
C1342 H1332 0.930 . S
C1342 C1340 1.419 . S
C1342 C1343 1.362 . S
C1343 H1333 0.930 . S
C1343 C1336 1.409 . S
C1343 C1342 1.362 . S
H1344 C1350 0.930 . S
H1345 C1353 0.930 . S
H1346 C1354 0.930 . S
H1347 C1355 0.930 . S
H1348 C1358 0.930 . S
H1349 C1359 0.930 . S
C1350 H1344 0.930 . S
C1350 C1351 1.355 . S
C1350 C1352 1.415 . S
C1351 C1350 1.355 . S
C1351 C1353 1.419 . S
C1352 C1350 1.415 . S
C1352 C1357 1.425 . S
C1352 C1359 1.409 . S
C1353 H1345 0.930 . S
C1353 C1351 1.419 . S
C1353 C1354 1.362 . S
C1354 H1346 0.930 . S
C1354 C1353 1.362 . S
C1354 C1357 1.409 . S
C1355 H1347 0.930 . S
C1355 C1356 1.355 . S
C1355 C1357 1.415 . S
C1356 C1355 1.355 . S
C1356 C1358 1.419 . S
C1357 C1352 1.425 . S
C1357 C1354 1.409 . S
C1357 C1355 1.415 . S
C1358 H1348 0.930 . S
C1358 C1356 1.419 . S
C1358 C1359 1.362 . S
C1359 H1349 0.930 . S
C1359 C1352 1.409 . S
C1359 C1358 1.362 . S
H1360 C1366 0.930 . S
H1361 C1369 0.930 . S
H1362 C1370 0.930 . S
H1363 C1371 0.930 . S
H1364 C1374 0.930 . S
H1365 C1375 0.930 . S
C1366 H1360 0.930 . S
C1366 C1367 1.355 . S
C1366 C1368 1.415 . S
C1367 C1366 1.355 . S
C1367 C1369 1.419 . S
C1368 C1366 1.415 . S
C1368 C1373 1.425 . S
C1368 C1375 1.409 . S
C1369 H1361 0.930 . S
C1369 C1367 1.419 . S
C1369 C1370 1.362 . S
C1370 H1362 0.930 . S
C1370 C1369 1.362 . S
C1370 C1373 1.409 . S
C1371 H1363 0.930 . S
C1371 C1372 1.355 . S
C1371 C1373 1.415 . S
C1372 C1371 1.355 . S
C1372 C1374 1.419 . S
C1373 C1368 1.425 . S
C1373 C1370 1.409 . S
C1373 C1371 1.415 . S
C1374 H1364 0.930 . S
C1374 C1372 1.419 . S
C1374 C1375 1.362 . S
C1375 H1365 0.930 . S
C1375 C1368 1.409 . S
C1375 C1374 1.362 . S
H1376 C1382 0.930 . S
H1377 C1385 0.930 . S
H1378 C1386 0.930 . S
H1379 C1387 0.930 . S
H1380 C1390 0.930 1_545 S
H1381 C1391 0.930 . S
C1382 H1376 0.930 . S
C1382 C1383 1.355 . S
C1382 C1384 1.415 . S
C1383 C1382 1.355 . S
C1383 C1385 1.419 . S
C1384 C1382 1.415 . S
C1384 C1389 1.425 . S
C1384 C1391 1.409 . S
C1385 H1377 0.930 . S
C1385 C1383 1.419 . S
C1385 C1386 1.362 . S
C1386 H1378 0.930 . S
C1386 C1385 1.362 . S
C1386 C1389 1.409 . S
C1387 H1379 0.930 . S
C1387 C1388 1.355 . S
C1387 C1389 1.415 . S
C1388 C1387 1.355 . S
C1388 C1390 1.419 . S
C1389 C1384 1.425 . S
C1389 C1386 1.409 . S
C1389 C1387 1.415 . S
C1390 H1380 0.930 1_565 S
C1390 C1388 1.419 . S
C1390 C1391 1.362 . S
C1391 H1381 0.930 . S
C1391 C1384 1.409 . S
C1391 C1390 1.362 . S
H1392 C1398 0.930 . S
H1393 C1401 0.930 . S
H1394 C1402 0.930 . S
H1395 C1403 0.930 . S
H1396 C1406 0.930 . S
H1397 C1407 0.930 . S
C1398 H1392 0.930 . S
C1398 C1399 1.355 . S
C1398 C1400 1.415 . S
C1399 C1398 1.355 . S
C1399 C1401 1.419 . S
C1400 C1398 1.415 . S
C1400 C1405 1.425 . S
C1400 C1407 1.409 . S
C1401 H1393 0.930 . S
C1401 C1399 1.419 . S
C1401 C1402 1.362 . S
C1402 H1394 0.930 . S
C1402 C1401 1.362 . S
C1402 C1405 1.409 . S
C1403 H1395 0.930 . S
C1403 C1404 1.355 . S
C1403 C1405 1.415 . S
C1404 C1403 1.355 . S
C1404 C1406 1.419 . S
C1405 C1400 1.425 . S
C1405 C1402 1.409 . S
C1405 C1403 1.415 . S
C1406 H1396 0.930 . S
C1406 C1404 1.419 . S
C1406 C1407 1.362 . S
C1407 H1397 0.930 . S
C1407 C1400 1.409 . S
C1407 C1406 1.362 . S
H1408 C1414 0.930 . S
H1409 C1417 0.930 . S
H1410 C1418 0.930 . S
H1411 C1419 0.930 . S
H1412 C1422 0.930 . S
H1413 C1423 0.930 . S
C1414 H1408 0.930 . S
C1414 C1415 1.355 . S
C1414 C1416 1.415 . S
C1415 C1414 1.355 . S
C1415 C1417 1.419 . S
C1416 C1414 1.415 . S
C1416 C1421 1.425 . S
C1416 C1423 1.409 . S
C1417 H1409 0.930 . S
C1417 C1415 1.419 . S
C1417 C1418 1.362 . S
C1418 H1410 0.930 . S
C1418 C1417 1.362 . S
C1418 C1421 1.409 . S
C1419 H1411 0.930 . S
C1419 C1420 1.355 . S
C1419 C1421 1.415 . S
C1420 C1419 1.355 . S
C1420 C1422 1.419 . S
C1421 C1416 1.425 . S
C1421 C1418 1.409 . S
C1421 C1419 1.415 . S
C1422 H1412 0.930 . S
C1422 C1420 1.419 . S
C1422 C1423 1.362 . S
C1423 H1413 0.930 . S
C1423 C1416 1.409 . S
C1423 C1422 1.362 . S
H1424 C1430 0.930 . S
H1425 C1433 0.930 . S
H1426 C1434 0.930 . S
H1427 C1435 0.930 . S
H1428 C1438 0.930 . S
H1429 C1439 0.930 . S
C1430 H1424 0.930 . S
C1430 C1431 1.355 . S
C1430 C1432 1.415 . S
C1431 C1430 1.355 . S
C1431 C1433 1.419 . S
C1432 C1430 1.415 . S
C1432 C1437 1.425 . S
C1432 C1439 1.409 . S
C1433 H1425 0.930 . S
C1433 C1431 1.419 . S
C1433 C1434 1.362 . S
C1434 H1426 0.930 . S
C1434 C1433 1.362 . S
C1434 C1437 1.409 . S
C1435 H1427 0.930 . S
C1435 C1436 1.355 . S
C1435 C1437 1.415 . S
C1436 C1435 1.355 . S
C1436 C1438 1.419 . S
C1437 C1432 1.425 . S
C1437 C1434 1.409 . S
C1437 C1435 1.415 . S
C1438 H1428 0.930 . S
C1438 C1436 1.419 . S
C1438 C1439 1.362 . S
C1439 H1429 0.930 . S
C1439 C1432 1.409 . S
C1439 C1438 1.362 . S
H1440 C1446 0.930 . S
H1441 C1449 0.930 . S
H1442 C1450 0.930 . S
H1443 C1451 0.930 . S
H1444 C1454 0.930 . S
H1445 C1455 0.930 . S
C1446 H1440 0.930 . S
C1446 C1447 1.355 . S
C1446 C1448 1.415 . S
C1447 C1446 1.355 . S
C1447 C1449 1.419 . S
C1448 C1446 1.415 . S
C1448 C1453 1.425 . S
C1448 C1455 1.409 . S
C1449 H1441 0.930 . S
C1449 C1447 1.419 . S
C1449 C1450 1.362 . S
C1450 H1442 0.930 . S
C1450 C1449 1.362 . S
C1450 C1453 1.409 . S
C1451 H1443 0.930 . S
C1451 C1452 1.355 . S
C1451 C1453 1.415 . S
C1452 C1451 1.355 . S
C1452 C1454 1.419 . S
C1453 C1448 1.425 . S
C1453 C1450 1.409 . S
C1453 C1451 1.415 . S
C1454 H1444 0.930 . S
C1454 C1452 1.419 . S
C1454 C1455 1.362 . S
C1455 H1445 0.930 . S
C1455 C1448 1.409 . S
C1455 C1454 1.362 . S
H1456 C1462 0.925 1_655 S
H1457 C1465 0.930 . S
H1458 C1466 0.899 1_554 S
H1459 C1467 0.930 1_554 S
H1460 C1470 0.933 . S
H1461 C1471 0.930 . S
C1462 H1456 0.925 1_455 S
C1462 C1463 1.355 . S
C1462 C1464 1.415 . S
C1463 C1462 1.355 . S
C1463 C1465 1.419 . S
C1464 C1462 1.415 . S
C1464 C1469 1.425 . S
C1464 C1471 1.409 1_455 S
C1465 H1457 0.930 . S
C1465 C1463 1.419 . S
C1465 C1466 1.362 . S
C1466 H1458 0.899 1_556 S
C1466 C1465 1.362 . S
C1466 C1469 1.409 . S
C1467 H1459 0.930 1_556 S
C1467 C1468 1.355 . S
C1467 C1469 1.415 . S
C1468 C1467 1.355 . S
C1468 C1470 1.417 1_455 S
C1469 C1464 1.425 . S
C1469 C1466 1.409 . S
C1469 C1467 1.415 . S
C1470 H1460 0.933 . S
C1470 C1468 1.417 1_655 S
C1470 C1471 1.361 . S
C1471 H1461 0.930 . S
C1471 C1464 1.409 1_655 S
C1471 C1470 1.361 . S
H1472 C1478 0.930 . S
H1473 C1481 0.930 . S
H1474 C1482 0.930 . S
H1475 C1483 0.930 . S
H1476 C1486 0.930 . S
H1477 C1487 0.930 . S
C1478 H1472 0.930 . S
C1478 C1479 1.355 . S
C1478 C1480 1.415 . S
C1479 C1478 1.355 . S
C1479 C1481 1.419 . S
C1480 C1478 1.415 . S
C1480 C1485 1.425 . S
C1480 C1487 1.409 . S
C1481 H1473 0.930 . S
C1481 C1479 1.419 . S
C1481 C1482 1.362 . S
C1482 H1474 0.930 . S
C1482 C1481 1.362 . S
C1482 C1485 1.409 . S
C1483 H1475 0.930 . S
C1483 C1484 1.355 . S
C1483 C1485 1.415 . S
C1484 C1483 1.355 . S
C1484 C1486 1.419 . S
C1485 C1480 1.425 . S
C1485 C1482 1.409 . S
C1485 C1483 1.415 . S
C1486 H1476 0.930 . S
C1486 C1484 1.419 . S
C1486 C1487 1.362 . S
C1487 H1477 0.930 . S
C1487 C1480 1.409 . S
C1487 C1486 1.362 . S
H1488 C1494 0.930 . S
H1489 C1497 0.930 . S
H1490 C1498 0.930 . S
H1491 C1499 0.930 . S
H1492 C1502 0.930 . S
H1493 C1503 0.930 . S
C1494 H1488 0.930 . S
C1494 C1495 1.355 . S
C1494 C1496 1.415 . S
C1495 C1494 1.355 . S
C1495 C1497 1.419 . S
C1496 C1494 1.415 . S
C1496 C1501 1.425 . S
C1496 C1503 1.409 . S
C1497 H1489 0.930 . S
C1497 C1495 1.419 . S
C1497 C1498 1.362 . S
C1498 H1490 0.930 . S
C1498 C1497 1.362 . S
C1498 C1501 1.409 . S
C1499 H1491 0.930 . S
C1499 C1500 1.355 . S
C1499 C1501 1.415 . S
C1500 C1499 1.355 . S
C1500 C1502 1.419 . S
C1501 C1496 1.425 . S
C1501 C1498 1.409 . S
C1501 C1499 1.415 . S
C1502 H1492 0.930 . S
C1502 C1500 1.419 . S
C1502 C1503 1.362 . S
C1503 H1493 0.930 . S
C1503 C1496 1.409 . S
C1503 C1502 1.362 . S
H1504 C1510 0.930 . S
H1505 C1513 0.930 . S
H1506 C1514 0.930 . S
H1507 C1515 0.930 . S
H1508 C1518 0.930 . S
H1509 C1519 0.930 . S
C1510 H1504 0.930 . S
C1510 C1511 1.355 . S
C1510 C1512 1.415 . S
C1511 C1510 1.355 . S
C1511 C1513 1.419 . S
C1512 C1510 1.415 . S
C1512 C1517 1.425 . S
C1512 C1519 1.409 . S
C1513 H1505 0.930 . S
C1513 C1511 1.419 . S
C1513 C1514 1.362 . S
C1514 H1506 0.930 . S
C1514 C1513 1.362 . S
C1514 C1517 1.409 . S
C1515 H1507 0.930 . S
C1515 C1516 1.355 . S
C1515 C1517 1.415 . S
C1516 C1515 1.355 . S
C1516 C1518 1.419 . S
C1517 C1512 1.425 . S
C1517 C1514 1.409 . S
C1517 C1515 1.415 . S
C1518 H1508 0.930 . S
C1518 C1516 1.419 . S
C1518 C1519 1.362 . S
C1519 H1509 0.930 . S
C1519 C1512 1.409 . S
C1519 C1518 1.362 . S
H1520 C1526 0.930 . S
H1521 C1529 0.930 . S
H1522 C1530 0.930 . S
H1523 C1531 0.930 . S
H1524 C1534 0.930 . S
H1525 C1535 0.930 . S
C1526 H1520 0.930 . S
C1526 C1527 1.355 1_655 S
C1526 C1528 1.415 . S
C1527 C1526 1.355 1_455 S
C1527 C1529 1.419 . S
C1528 C1526 1.415 . S
C1528 C1533 1.425 1_655 S
C1528 C1535 1.409 . S
C1529 H1521 0.930 . S
C1529 C1527 1.419 . S
C1529 C1530 1.362 . S
C1530 H1522 0.930 . S
C1530 C1529 1.362 . S
C1530 C1533 1.409 . S
C1531 H1523 0.930 . S
C1531 C1532 1.355 . S
C1531 C1533 1.415 . S
C1532 C1531 1.355 . S
C1532 C1534 1.419 1_455 S
C1533 C1528 1.425 1_455 S
C1533 C1530 1.409 . S
C1533 C1531 1.415 . S
C1534 H1524 0.930 . S
C1534 C1532 1.419 1_655 S
C1534 C1535 1.362 . S
C1535 H1525 0.930 . S
C1535 C1528 1.409 . S
C1535 C1534 1.362 . S
H1536 C1542 0.930 . S
H1537 C1545 0.930 . S
H1538 C1546 0.930 . S
H1539 C1547 0.930 . S
H1540 C1550 0.930 . S
H1541 C1551 0.930 . S
C1542 H1536 0.930 . S
C1542 C1543 1.355 . S
C1542 C1544 1.415 . S
C1543 C1542 1.355 . S
C1543 C1545 1.419 . S
C1544 C1542 1.415 . S
C1544 C1549 1.425 . S
C1544 C1551 1.409 . S
C1545 H1537 0.930 . S
C1545 C1543 1.419 . S
C1545 C1546 1.362 . S
C1546 H1538 0.930 . S
C1546 C1545 1.362 . S
C1546 C1549 1.409 . S
C1547 H1539 0.930 . S
C1547 C1548 1.355 . S
C1547 C1549 1.415 . S
C1548 C1547 1.355 . S
C1548 C1550 1.419 . S
C1549 C1544 1.425 . S
C1549 C1546 1.409 . S
C1549 C1547 1.415 . S
C1550 H1540 0.930 . S
C1550 C1548 1.419 . S
C1550 C1551 1.362 . S
C1551 H1541 0.930 . S
C1551 C1544 1.409 . S
C1551 C1550 1.362 . S
H1552 C1558 0.930 . S
H1553 C1561 0.930 . S
H1554 C1562 0.930 . S
H1555 C1563 0.930 . S
H1556 C1566 0.930 . S
H1557 C1567 0.930 . S
C1558 H1552 0.930 . S
C1558 C1559 1.355 . S
C1558 C1560 1.415 . S
C1559 C1558 1.355 . S
C1559 C1561 1.419 . S
C1560 C1558 1.415 . S
C1560 C1565 1.425 . S
C1560 C1567 1.409 . S
C1561 H1553 0.930 . S
C1561 C1559 1.419 . S
C1561 C1562 1.362 . S
C1562 H1554 0.930 . S
C1562 C1561 1.362 . S
C1562 C1565 1.409 . S
C1563 H1555 0.930 . S
C1563 C1564 1.355 . S
C1563 C1565 1.415 . S
C1564 C1563 1.355 . S
C1564 C1566 1.419 . S
C1565 C1560 1.425 . S
C1565 C1562 1.409 . S
C1565 C1563 1.415 . S
C1566 H1556 0.930 . S
C1566 C1564 1.419 . S
C1566 C1567 1.362 . S
C1567 H1557 0.930 . S
C1567 C1560 1.409 . S
C1567 C1566 1.362 . S
H1568 C1574 0.930 . S
H1569 C1577 0.930 . S
H1570 C1578 0.930 . S
H1571 C1579 0.930 . S
H1572 C1582 0.930 . S
H1573 C1583 0.930 . S
C1574 H1568 0.930 . S
C1574 C1575 1.355 . S
C1574 C1576 1.415 . S
C1575 C1574 1.355 . S
C1575 C1577 1.419 . S
C1576 C1574 1.415 . S
C1576 C1581 1.425 . S
C1576 C1583 1.409 . S
C1577 H1569 0.930 . S
C1577 C1575 1.419 . S
C1577 C1578 1.362 . S
C1578 H1570 0.930 . S
C1578 C1577 1.362 . S
C1578 C1581 1.409 . S
C1579 H1571 0.930 . S
C1579 C1580 1.355 . S
C1579 C1581 1.415 . S
C1580 C1579 1.355 . S
C1580 C1582 1.419 . S
C1581 C1576 1.425 . S
C1581 C1578 1.409 . S
C1581 C1579 1.415 . S
C1582 H1572 0.930 . S
C1582 C1580 1.419 . S
C1582 C1583 1.362 . S
C1583 H1573 0.930 . S
C1583 C1576 1.409 . S
C1583 C1582 1.362 . S
H1584 C1590 0.930 . S
H1585 C1593 0.930 . S
H1586 C1594 0.930 . S
H1587 C1595 0.930 . S
H1588 C1598 0.930 . S
H1589 C1599 0.930 . S
C1590 H1584 0.930 . S
C1590 C1591 1.355 . S
C1590 C1592 1.415 . S
C1591 C1590 1.355 . S
C1591 C1593 1.419 . S
C1592 C1590 1.415 . S
C1592 C1597 1.425 . S
C1592 C1599 1.409 . S
C1593 H1585 0.930 . S
C1593 C1591 1.419 . S
C1593 C1594 1.362 . S
C1594 H1586 0.930 . S
C1594 C1593 1.362 . S
C1594 C1597 1.409 . S
C1595 H1587 0.930 . S
C1595 C1596 1.355 . S
C1595 C1597 1.415 . S
C1596 C1595 1.355 . S
C1596 C1598 1.419 . S
C1597 C1592 1.425 . S
C1597 C1594 1.409 . S
C1597 C1595 1.415 . S
C1598 H1588 0.930 . S
C1598 C1596 1.419 . S
C1598 C1599 1.362 . S
C1599 H1589 0.930 . S
C1599 C1592 1.409 . S
C1599 C1598 1.362 . S
H1600 C1606 0.930 . S
H1601 C1609 0.930 . S
H1602 C1610 0.930 . S
H1603 C1611 0.930 . S
H1604 C1614 0.930 . S
H1605 C1615 0.930 . S
C1606 H1600 0.930 . S
C1606 C1607 1.355 . S
C1606 C1608 1.415 . S
C1607 C1606 1.355 . S
C1607 C1609 1.419 . S
C1608 C1606 1.415 . S
C1608 C1613 1.425 . S
C1608 C1615 1.409 . S
C1609 H1601 0.930 . S
C1609 C1607 1.419 . S
C1609 C1610 1.362 . S
C1610 H1602 0.930 . S
C1610 C1609 1.362 . S
C1610 C1613 1.409 . S
C1611 H1603 0.930 . S
C1611 C1612 1.355 . S
C1611 C1613 1.415 . S
C1612 C1611 1.355 . S
C1612 C1614 1.419 . S
C1613 C1608 1.425 . S
C1613 C1610 1.409 . S
C1613 C1611 1.415 . S
C1614 H1604 0.930 . S
C1614 C1612 1.419 . S
C1614 C1615 1.362 . S
C1615 H1605 0.930 . S
C1615 C1608 1.409 . S
C1615 C1614 1.362 . S
H1616 C1622 0.930 . S
H1617 C1625 0.930 . S
H1618 C1626 0.930 . S
H1619 C1627 0.930 . S
H1620 C1630 0.930 . S
H1621 C1631 0.930 . S
C1622 H1616 0.930 . S
C1622 C1623 1.355 . S
C1622 C1624 1.415 . S
C1623 C1622 1.355 . S
C1623 C1625 1.419 . S
C1624 C1622 1.415 . S
C1624 C1629 1.425 . S
C1624 C1631 1.409 . S
C1625 H1617 0.930 . S
C1625 C1623 1.419 . S
C1625 C1626 1.362 . S
C1626 H1618 0.930 . S
C1626 C1625 1.362 . S
C1626 C1629 1.409 . S
C1627 H1619 0.930 . S
C1627 C1628 1.355 . S
C1627 C1629 1.415 . S
C1628 C1627 1.355 . S
C1628 C1630 1.419 . S
C1629 C1624 1.425 . S
C1629 C1626 1.409 . S
C1629 C1627 1.415 . S
C1630 H1620 0.930 . S
C1630 C1628 1.419 . S
C1630 C1631 1.362 . S
C1631 H1621 0.930 . S
C1631 C1624 1.409 . S
C1631 C1630 1.362 . S
H1632 C1638 0.930 . S
H1633 C1641 0.930 . S
H1634 C1642 0.930 . S
H1635 C1643 0.930 . S
H1636 C1646 0.930 . S
H1637 C1647 0.930 . S
C1638 H1632 0.930 . S
C1638 C1639 1.355 . S
C1638 C1640 1.415 . S
C1639 C1638 1.355 . S
C1639 C1641 1.419 . S
C1640 C1638 1.415 . S
C1640 C1645 1.425 . S
C1640 C1647 1.409 . S
C1641 H1633 0.930 . S
C1641 C1639 1.419 . S
C1641 C1642 1.362 . S
C1642 H1634 0.930 . S
C1642 C1641 1.362 . S
C1642 C1645 1.409 . S
C1643 H1635 0.930 . S
C1643 C1644 1.355 . S
C1643 C1645 1.415 . S
C1644 C1643 1.355 . S
C1644 C1646 1.419 . S
C1645 C1640 1.425 . S
C1645 C1642 1.409 . S
C1645 C1643 1.415 . S
C1646 H1636 0.930 . S
C1646 C1644 1.419 . S
C1646 C1647 1.362 . S
C1647 H1637 0.930 . S
C1647 C1640 1.409 . S
C1647 C1646 1.362 . S
H1648 C1654 0.930 . S
H1649 C1657 0.930 . S
H1650 C1658 0.930 . S
H1651 C1659 0.930 . S
H1652 C1662 0.930 . S
H1653 C1663 0.930 . S
C1654 H1648 0.930 . S
C1654 C1655 1.355 . S
C1654 C1656 1.415 . S
C1655 C1654 1.355 . S
C1655 C1657 1.419 . S
C1656 C1654 1.415 . S
C1656 C1661 1.425 . S
C1656 C1663 1.409 . S
C1657 H1649 0.930 . S
C1657 C1655 1.419 . S
C1657 C1658 1.362 . S
C1658 H1650 0.930 . S
C1658 C1657 1.362 . S
C1658 C1661 1.409 . S
C1659 H1651 0.930 . S
C1659 C1660 1.355 . S
C1659 C1661 1.415 . S
C1660 C1659 1.355 . S
C1660 C1662 1.419 . S
C1661 C1656 1.425 . S
C1661 C1658 1.409 . S
C1661 C1659 1.415 . S
C1662 H1652 0.930 . S
C1662 C1660 1.419 . S
C1662 C1663 1.362 . S
C1663 H1653 0.930 . S
C1663 C1656 1.409 . S
C1663 C1662 1.362 . S
H1664 C1670 0.930 . S
H1665 C1673 0.930 . S
H1666 C1674 0.930 . S
H1667 C1675 0.930 . S
H1668 C1678 0.930 . S
H1669 C1679 0.930 . S
C1670 H1664 0.930 . S
C1670 C1671 1.355 . S
C1670 C1672 1.415 . S
C1671 C1670 1.355 . S
C1671 C1673 1.419 . S
C1672 C1670 1.415 . S
C1672 C1677 1.425 . S
C1672 C1679 1.409 . S
C1673 H1665 0.930 . S
C1673 C1671 1.419 . S
C1673 C1674 1.362 . S
C1674 H1666 0.930 . S
C1674 C1673 1.362 . S
C1674 C1677 1.409 . S
C1675 H1667 0.930 . S
C1675 C1676 1.355 . S
C1675 C1677 1.415 . S
C1676 C1675 1.355 . S
C1676 C1678 1.419 . S
C1677 C1672 1.425 . S
C1677 C1674 1.409 . S
C1677 C1675 1.415 . S
C1678 H1668 0.930 . S
C1678 C1676 1.419 . S
C1678 C1679 1.362 . S
C1679 H1669 0.930 . S
C1679 C1672 1.409 . S
C1679 C1678 1.362 . S
H1680 C1686 0.930 . S
H1681 C1689 0.930 . S
H1682 C1690 0.930 . S
H1683 C1691 0.930 . S
H1684 C1694 0.930 . S
H1685 C1695 0.930 . S
C1686 H1680 0.930 . S
C1686 C1687 1.355 . S
C1686 C1688 1.415 . S
C1687 C1686 1.355 . S
C1687 C1689 1.419 . S
C1688 C1686 1.415 . S
C1688 C1693 1.425 . S
C1688 C1695 1.409 . S
C1689 H1681 0.930 . S
C1689 C1687 1.419 . S
C1689 C1690 1.362 . S
C1690 H1682 0.930 . S
C1690 C1689 1.362 . S
C1690 C1693 1.409 . S
C1691 H1683 0.930 . S
C1691 C1692 1.355 . S
C1691 C1693 1.415 . S
C1692 C1691 1.355 . S
C1692 C1694 1.419 . S
C1693 C1688 1.425 . S
C1693 C1690 1.409 . S
C1693 C1691 1.415 . S
C1694 H1684 0.930 . S
C1694 C1692 1.419 . S
C1694 C1695 1.362 . S
C1695 H1685 0.930 . S
C1695 C1688 1.409 . S
C1695 C1694 1.362 . S
H1696 C1702 0.930 . S
H1697 C1705 0.930 . S
H1698 C1706 0.930 . S
H1699 C1707 0.930 . S
H1700 C1710 0.930 . S
H1701 C1711 0.930 . S
C1702 H1696 0.930 . S
C1702 C1703 1.355 . S
C1702 C1704 1.415 . S
C1703 C1702 1.355 . S
C1703 C1705 1.419 . S
C1704 C1702 1.415 . S
C1704 C1709 1.425 . S
C1704 C1711 1.409 . S
C1705 H1697 0.930 . S
C1705 C1703 1.419 . S
C1705 C1706 1.362 . S
C1706 H1698 0.930 . S
C1706 C1705 1.362 . S
C1706 C1709 1.409 . S
C1707 H1699 0.930 . S
C1707 C1708 1.355 . S
C1707 C1709 1.415 . S
C1708 C1707 1.355 . S
C1708 C1710 1.419 . S
C1709 C1704 1.425 . S
C1709 C1706 1.409 . S
C1709 C1707 1.415 . S
C1710 H1700 0.930 . S
C1710 C1708 1.419 . S
C1710 C1711 1.362 . S
C1711 H1701 0.930 . S
C1711 C1704 1.409 . S
C1711 C1710 1.362 . S
H1712 C1718 0.930 . S
H1713 C1721 0.930 . S
H1714 C1722 0.930 . S
H1715 C1723 0.930 . S
H1716 C1726 0.930 . S
H1717 C1727 0.930 . S
C1718 H1712 0.930 . S
C1718 C1719 1.355 . S
C1718 C1720 1.415 . S
C1719 C1718 1.355 . S
C1719 C1721 1.419 . S
C1720 C1718 1.415 . S
C1720 C1725 1.425 . S
C1720 C1727 1.409 . S
C1721 H1713 0.930 . S
C1721 C1719 1.419 . S
C1721 C1722 1.362 . S
C1722 H1714 0.930 . S
C1722 C1721 1.362 . S
C1722 C1725 1.409 . S
C1723 H1715 0.930 . S
C1723 C1724 1.355 . S
C1723 C1725 1.415 . S
C1724 C1723 1.355 . S
C1724 C1726 1.419 . S
C1725 C1720 1.425 . S
C1725 C1722 1.409 . S
C1725 C1723 1.415 . S
C1726 H1716 0.930 . S
C1726 C1724 1.419 . S
C1726 C1727 1.362 . S
C1727 H1717 0.930 . S
C1727 C1720 1.409 . S
C1727 C1726 1.362 . S
H1728 C1734 0.930 1_556 S
H1729 C1737 0.930 . S
H1730 C1738 0.930 1_545 S
H1731 C1739 0.930 . S
H1732 C1742 0.930 . S
H1733 C1743 0.930 . S
C1734 H1728 0.930 1_554 S
C1734 C1735 1.355 . S
C1734 C1736 1.415 . S
C1735 C1734 1.355 . S
C1735 C1737 1.419 . S
C1736 C1734 1.415 . S
C1736 C1741 1.425 . S
C1736 C1743 1.409 1_554 S
C1737 H1729 0.930 . S
C1737 C1735 1.419 . S
C1737 C1738 1.362 . S
C1738 H1730 0.930 1_565 S
C1738 C1737 1.362 . S
C1738 C1741 1.409 . S
C1739 H1731 0.930 . S
C1739 C1740 1.355 1_545 S
C1739 C1741 1.415 1_545 S
C1740 C1739 1.355 1_565 S
C1740 C1742 1.419 1_554 S
C1741 C1736 1.425 . S
C1741 C1738 1.409 . S
C1741 C1739 1.415 1_565 S
C1742 H1732 0.930 . S
C1742 C1740 1.419 1_556 S
C1742 C1743 1.362 . S
C1743 H1733 0.930 . S
C1743 C1736 1.409 1_556 S
C1743 C1742 1.362 . S
H1744 C1750 0.930 . S
H1745 C1753 0.930 . S
H1746 C1754 0.930 . S
H1747 C1755 0.930 . S
H1748 C1758 0.930 . S
H1749 C1759 0.930 . S
C1750 H1744 0.930 . S
C1750 C1751 1.355 . S
C1750 C1752 1.415 . S
C1751 C1750 1.355 . S
C1751 C1753 1.419 . S
C1752 C1750 1.415 . S
C1752 C1757 1.425 . S
C1752 C1759 1.409 . S
C1753 H1745 0.930 . S
C1753 C1751 1.419 . S
C1753 C1754 1.362 . S
C1754 H1746 0.930 . S
C1754 C1753 1.362 . S
C1754 C1757 1.409 . S
C1755 H1747 0.930 . S
C1755 C1756 1.355 . S
C1755 C1757 1.415 . S
C1756 C1755 1.355 . S
C1756 C1758 1.419 . S
C1757 C1752 1.425 . S
C1757 C1754 1.409 . S
C1757 C1755 1.415 . S
C1758 H1748 0.930 . S
C1758 C1756 1.419 . S
C1758 C1759 1.362 . S
C1759 H1749 0.930 . S
C1759 C1752 1.409 . S
C1759 C1758 1.362 . S
H1760 C1766 0.930 . S
H1761 C1769 0.930 1_556 S
H1762 C1770 0.930 . S
H1763 C1771 0.930 . S
H1764 C1774 0.930 . S
H1765 C1775 0.930 . S
C1766 H1760 0.930 . S
C1766 C1767 1.355 . S
C1766 C1768 1.415 . S
C1767 C1766 1.355 . S
C1767 C1769 1.419 . S
C1768 C1766 1.415 . S
C1768 C1773 1.425 . S
C1768 C1775 1.409 . S
C1769 H1761 0.930 1_554 S
C1769 C1767 1.419 . S
C1769 C1770 1.362 . S
C1770 H1762 0.930 . S
C1770 C1769 1.362 . S
C1770 C1773 1.409 . S
C1771 H1763 0.930 . S
C1771 C1772 1.355 . S
C1771 C1773 1.415 . S
C1772 C1771 1.355 . S
C1772 C1774 1.419 . S
C1773 C1768 1.425 . S
C1773 C1770 1.409 . S
C1773 C1771 1.415 . S
C1774 H1764 0.930 . S
C1774 C1772 1.419 . S
C1774 C1775 1.362 . S
C1775 H1765 0.930 . S
C1775 C1768 1.409 . S
C1775 C1774 1.362 . S
H1776 C1782 0.930 . S
H1777 C1785 0.930 . S
H1778 C1786 0.930 . S
H1779 C1787 0.930 . S
H1780 C1790 0.930 . S
H1781 C1791 0.930 . S
C1782 H1776 0.930 . S
C1782 C1783 1.355 . S
C1782 C1784 1.415 . S
C1783 C1782 1.355 . S
C1783 C1785 1.419 . S
C1784 C1782 1.415 . S
C1784 C1789 1.425 . S
C1784 C1791 1.409 . S
C1785 H1777 0.930 . S
C1785 C1783 1.419 . S
C1785 C1786 1.362 . S
C1786 H1778 0.930 . S
C1786 C1785 1.362 . S
C1786 C1789 1.409 . S
C1787 H1779 0.930 . S
C1787 C1788 1.355 . S
C1787 C1789 1.415 . S
C1788 C1787 1.355 . S
C1788 C1790 1.419 . S
C1789 C1784 1.425 . S
C1789 C1786 1.409 . S
C1789 C1787 1.415 . S
C1790 H1780 0.930 . S
C1790 C1788 1.419 . S
C1790 C1791 1.362 . S
C1791 H1781 0.930 . S
C1791 C1784 1.409 . S
C1791 C1790 1.362 . S
H1792 C1798 0.930 . S
H1793 C1801 0.930 . S
H1794 C1802 0.930 . S
H1795 C1803 0.930 . S
H1796 C1806 0.930 . S
H1797 C1807 0.930 . S
C1798 H1792 0.930 . S
C1798 C1799 1.355 . S
C1798 C1800 1.415 . S
C1799 C1798 1.355 . S
C1799 C1801 1.419 . S
C1800 C1798 1.415 . S
C1800 C1805 1.425 . S
C1800 C1807 1.409 . S
C1801 H1793 0.930 . S
C1801 C1799 1.419 . S
C1801 C1802 1.362 . S
C1802 H1794 0.930 . S
C1802 C1801 1.362 . S
C1802 C1805 1.409 . S
C1803 H1795 0.930 . S
C1803 C1804 1.355 . S
C1803 C1805 1.415 . S
C1804 C1803 1.355 . S
C1804 C1806 1.419 . S
C1805 C1800 1.425 . S
C1805 C1802 1.409 . S
C1805 C1803 1.415 . S
C1806 H1796 0.930 . S
C1806 C1804 1.419 . S
C1806 C1807 1.362 . S
C1807 H1797 0.930 . S
C1807 C1800 1.409 . S
C1807 C1806 1.362 . S
H1808 C1814 0.930 . S
H1809 C1817 0.930 . S
H1810 C1818 0.930 . S
H1811 C1819 0.930 . S
H1812 C1822 0.930 . S
H1813 C1823 0.930 . S
C1814 H1808 0.930 . S
C1814 C1815 1.355 . S
C1814 C1816 1.415 . S
C1815 C1814 1.355 . S
C1815 C1817 1.419 . S
C1816 C1814 1.415 . S
C1816 C1821 1.425 . S
C1816 C1823 1.409 . S
C1817 H1809 0.930 . S
C1817 C1815 1.419 . S
C1817 C1818 1.362 . S
C1818 H1810 0.930 . S
C1818 C1817 1.362 . S
C1818 C1821 1.409 . S
C1819 H1811 0.930 . S
C1819 C1820 1.355 . S
C1819 C1821 1.415 . S
C1820 C1819 1.355 . S
C1820 C1822 1.419 . S
C1821 C1816 1.425 . S
C1821 C1818 1.409 . S
C1821 C1819 1.415 . S
C1822 H1812 0.930 . S
C1822 C1820 1.419 . S
C1822 C1823 1.362 . S
C1823 H1813 0.930 . S
C1823 C1816 1.409 . S
C1823 C1822 1.362 . S
H1824 C1830 0.930 . S
H1825 C1833 0.930 . S
H1826 C1834 0.930 . S
H1827 C1835 0.930 . S
H1828 C1838 0.930 . S
H1829 C1839 0.930 . S
C1830 H1824 0.930 . S
C1830 C1831 1.355 . S
C1830 C1832 1.415 . S
C1831 C1830 1.355 . S
C1831 C1833 1.419 . S
C1832 C1830 1.415 . S
C1832 C1837 1.425 . S
C1832 C1839 1.409 . S
C1833 H1825 0.930 . S
C1833 C1831 1.419 . S
C1833 C1834 1.362 . S
C1834 H1826 0.930 . S
C1834 C1833 1.362 . S
C1834 C1837 1.409 . S
C1835 H1827 0.930 . S
C1835 C1836 1.355 . S
C1835 C1837 1.415 . S
C1836 C1835 1.355 . S
C1836 C1838 1.419 . S
C1837 C1832 1.425 . S
C1837 C1834 1.409 . S
C1837 C1835 1.415 . S
C1838 H1828 0.930 . S
C1838 C1836 1.419 . S
C1838 C1839 1.362 . S
C1839 H1829 0.930 . S
C1839 C1832 1.409 . S
C1839 C1838 1.362 . S
H1840 C1846 0.930 . S
H1841 C1849 0.930 . S
H1842 C1850 0.930 . S
H1843 C1851 0.930 1_655 S
H1844 C1854 0.930 . S
H1845 C1855 0.930 . S
C1846 H1840 0.930 . S
C1846 C1847 1.355 . S
C1846 C1848 1.415 . S
C1847 C1846 1.355 . S
C1847 C1849 1.419 1_455 S
C1848 C1846 1.415 . S
C1848 C1853 1.425 . S
C1848 C1855 1.409 . S
C1849 H1841 0.930 . S
C1849 C1847 1.419 1_655 S
C1849 C1850 1.362 . S
C1850 H1842 0.930 . S
C1850 C1849 1.362 . S
C1850 C1853 1.409 1_655 S
C1851 H1843 0.930 1_455 S
C1851 C1852 1.355 . S
C1851 C1853 1.415 . S
C1852 C1851 1.355 . S
C1852 C1854 1.419 . S
C1853 C1848 1.425 . S
C1853 C1850 1.409 1_455 S
C1853 C1851 1.415 . S
C1854 H1844 0.930 . S
C1854 C1852 1.419 . S
C1854 C1855 1.362 . S
C1855 H1845 0.930 . S
C1855 C1848 1.409 . S
C1855 C1854 1.362 . S
H1856 C1862 0.930 . S
H1857 C1865 0.930 . S
H1858 C1866 0.930 . S
H1859 C1867 0.930 . S
H1860 C1870 0.930 . S
H1861 C1871 0.930 . S
C1862 H1856 0.930 . S
C1862 C1863 1.355 . S
C1862 C1864 1.415 . S
C1863 C1862 1.355 . S
C1863 C1865 1.419 . S
C1864 C1862 1.415 . S
C1864 C1869 1.425 . S
C1864 C1871 1.409 . S
C1865 H1857 0.930 . S
C1865 C1863 1.419 . S
C1865 C1866 1.362 . S
C1866 H1858 0.930 . S
C1866 C1865 1.362 . S
C1866 C1869 1.409 . S
C1867 H1859 0.930 . S
C1867 C1868 1.355 . S
C1867 C1869 1.415 . S
C1868 C1867 1.355 . S
C1868 C1870 1.419 . S
C1869 C1864 1.425 . S
C1869 C1866 1.409 . S
C1869 C1867 1.415 . S
C1870 H1860 0.930 . S
C1870 C1868 1.419 . S
C1870 C1871 1.362 . S
C1871 H1861 0.930 . S
C1871 C1864 1.409 . S
C1871 C1870 1.362 . S
H1872 C1878 0.930 . S
H1873 C1881 0.930 . S
H1874 C1882 0.930 . S
H1875 C1883 0.930 . S
H1876 C1886 0.930 1_554 S
H1877 C1887 0.930 . S
C1878 H1872 0.930 . S
C1878 C1879 1.355 . S
C1878 C1880 1.415 . S
C1879 C1878 1.355 . S
C1879 C1881 1.419 . S
C1880 C1878 1.415 . S
C1880 C1885 1.425 . S
C1880 C1887 1.409 . S
C1881 H1873 0.930 . S
C1881 C1879 1.419 . S
C1881 C1882 1.362 . S
C1882 H1874 0.930 . S
C1882 C1881 1.362 . S
C1882 C1885 1.409 . S
C1883 H1875 0.930 . S
C1883 C1884 1.355 . S
C1883 C1885 1.415 . S
C1884 C1883 1.355 . S
C1884 C1886 1.419 . S
C1885 C1880 1.425 . S
C1885 C1882 1.409 . S
C1885 C1883 1.415 . S
C1886 H1876 0.930 1_556 S
C1886 C1884 1.419 . S
C1886 C1887 1.362 . S
C1887 H1877 0.930 . S
C1887 C1880 1.409 . S
C1887 C1886 1.362 . S
H1888 C1894 0.930 . S
H1889 C1897 0.930 . S
H1890 C1898 0.930 . S
H1891 C1899 0.930 . S
H1892 C1902 0.930 . S
H1893 C1903 0.930 . S
C1894 H1888 0.930 . S
C1894 C1895 1.355 . S
C1894 C1896 1.415 . S
C1895 C1894 1.355 . S
C1895 C1897 1.419 . S
C1896 C1894 1.415 . S
C1896 C1901 1.425 . S
C1896 C1903 1.409 . S
C1897 H1889 0.930 . S
C1897 C1895 1.419 . S
C1897 C1898 1.362 . S
C1898 H1890 0.930 . S
C1898 C1897 1.362 . S
C1898 C1901 1.409 . S
C1899 H1891 0.930 . S
C1899 C1900 1.355 . S
C1899 C1901 1.415 . S
C1900 C1899 1.355 . S
C1900 C1902 1.419 . S
C1901 C1896 1.425 . S
C1901 C1898 1.409 . S
C1901 C1899 1.415 . S
C1902 H1892 0.930 . S
C1902 C1900 1.419 . S
C1902 C1903 1.362 . S
C1903 H1893 0.930 . S
C1903 C1896 1.409 . S
C1903 C1902 1.362 . S
H1904 C1910 0.930 . S
H1905 C1913 0.930 . S
H1906 C1914 0.930 . S
H1907 C1915 0.930 . S
H1908 C1918 0.930 1_655 S
H1909 C1919 0.930 1_655 S
C1910 H1904 0.930 . S
C1910 C1911 1.355 . S
C1910 C1912 1.415 . S
C1911 C1910 1.355 . S
C1911 C1913 1.419 . S
C1912 C1910 1.415 . S
C1912 C1917 1.425 . S
C1912 C1919 1.409 . S
C1913 H1905 0.930 . S
C1913 C1911 1.419 . S
C1913 C1914 1.362 . S
C1914 H1906 0.930 . S
C1914 C1913 1.362 . S
C1914 C1917 1.409 . S
C1915 H1907 0.930 . S
C1915 C1916 1.355 . S
C1915 C1917 1.415 . S
C1916 C1915 1.355 . S
C1916 C1918 1.419 . S
C1917 C1912 1.425 . S
C1917 C1914 1.409 . S
C1917 C1915 1.415 . S
C1918 H1908 0.930 1_455 S
C1918 C1916 1.419 . S
C1918 C1919 1.362 . S
C1919 H1909 0.930 1_455 S
C1919 C1912 1.409 . S
C1919 C1918 1.362 . S
H1920 C1926 0.930 . S
H1921 C1929 0.930 . S
H1922 C1930 0.930 . S
H1923 C1931 0.930 . S
H1924 C1934 0.930 . S
H1925 C1935 0.930 . S
C1926 H1920 0.930 . S
C1926 C1927 1.355 . S
C1926 C1928 1.415 . S
C1927 C1926 1.355 . S
C1927 C1929 1.419 . S
C1928 C1926 1.415 . S
C1928 C1933 1.425 . S
C1928 C1935 1.409 . S
C1929 H1921 0.930 . S
C1929 C1927 1.419 . S
C1929 C1930 1.362 . S
C1930 H1922 0.930 . S
C1930 C1929 1.362 . S
C1930 C1933 1.409 . S
C1931 H1923 0.930 . S
C1931 C1932 1.355 . S
C1931 C1933 1.415 . S
C1932 C1931 1.355 . S
C1932 C1934 1.419 . S
C1933 C1928 1.425 . S
C1933 C1930 1.409 . S
C1933 C1931 1.415 . S
C1934 H1924 0.930 . S
C1934 C1932 1.419 . S
C1934 C1935 1.362 . S
C1935 H1925 0.930 . S
C1935 C1928 1.409 . S
C1935 C1934 1.362 . S
H1936 C1942 0.930 . S
H1937 C1945 0.930 . S
H1938 C1946 0.930 . S
H1939 C1947 0.930 . S
H1940 C1950 0.930 . S
H1941 C1951 0.930 . S
C1942 H1936 0.930 . S
C1942 C1943 1.355 . S
C1942 C1944 1.415 . S
C1943 C1942 1.355 . S
C1943 C1945 1.419 . S
C1944 C1942 1.415 . S
C1944 C1949 1.425 . S
C1944 C1951 1.409 . S
C1945 H1937 0.930 . S
C1945 C1943 1.419 . S
C1945 C1946 1.362 . S
C1946 H1938 0.930 . S
C1946 C1945 1.362 . S
C1946 C1949 1.409 . S
C1947 H1939 0.930 . S
C1947 C1948 1.355 . S
C1947 C1949 1.415 . S
C1948 C1947 1.355 . S
C1948 C1950 1.419 . S
C1949 C1944 1.425 . S
C1949 C1946 1.409 . S
C1949 C1947 1.415 . S
C1950 H1940 0.930 . S
C1950 C1948 1.419 . S
C1950 C1951 1.362 . S
C1951 H1941 0.930 . S
C1951 C1944 1.409 . S
C1951 C1950 1.362 . S
H1952 C1958 0.930 . S
H1953 C1961 0.930 . S
H1954 C1962 0.930 . S
H1955 C1963 0.930 . S
H1956 C1966 0.930 . S
H1957 C1967 0.930 . S
C1958 H1952 0.930 . S
C1958 C1959 1.355 . S
C1958 C1960 1.415 . S
C1959 C1958 1.355 . S
C1959 C1961 1.419 . S
C1960 C1958 1.415 . S
C1960 C1965 1.425 . S
C1960 C1967 1.409 . S
C1961 H1953 0.930 . S
C1961 C1959 1.419 . S
C1961 C1962 1.362 . S
C1962 H1954 0.930 . S
C1962 C1961 1.362 . S
C1962 C1965 1.409 . S
C1963 H1955 0.930 . S
C1963 C1964 1.355 . S
C1963 C1965 1.415 . S
C1964 C1963 1.355 . S
C1964 C1966 1.419 . S
C1965 C1960 1.425 . S
C1965 C1962 1.409 . S
C1965 C1963 1.415 . S
C1966 H1956 0.930 . S
C1966 C1964 1.419 . S
C1966 C1967 1.362 . S
C1967 H1957 0.930 . S
C1967 C1960 1.409 . S
C1967 C1966 1.362 . S
H1968 C1974 0.930 . S
H1969 C1977 0.930 . S
H1970 C1978 0.930 1_455 S
H1971 C1979 0.930 1_455 S
H1972 C1982 0.930 . S
H1973 C1983 0.930 . S
C1974 H1968 0.930 . S
C1974 C1975 1.355 . S
C1974 C1976 1.415 . S
C1975 C1974 1.355 . S
C1975 C1977 1.419 . S
C1976 C1974 1.415 . S
C1976 C1981 1.425 . S
C1976 C1983 1.409 . S
C1977 H1969 0.930 . S
C1977 C1975 1.419 . S
C1977 C1978 1.362 . S
C1978 H1970 0.930 1_655 S
C1978 C1977 1.362 . S
C1978 C1981 1.409 . S
C1979 H1971 0.930 1_655 S
C1979 C1980 1.355 . S
C1979 C1981 1.415 . S
C1980 C1979 1.355 . S
C1980 C1982 1.419 . S
C1981 C1976 1.425 . S
C1981 C1978 1.409 . S
C1981 C1979 1.415 . S
C1982 H1972 0.930 . S
C1982 C1980 1.419 . S
C1982 C1983 1.362 . S
C1983 H1973 0.930 . S
C1983 C1976 1.409 . S
C1983 C1982 1.362 . S
H1984 C1990 0.930 . S
H1985 C1993 0.930 . S
H1986 C1994 0.930 . S
H1987 C1995 0.930 . S
H1988 C1998 0.930 . S
H1989 C1999 0.930 . S
C1990 H1984 0.930 . S
C1990 C1991 1.355 . S
C1990 C1992 1.415 . S
C1991 C1990 1.355 . S
C1991 C1993 1.419 . S
C1992 C1990 1.415 . S
C1992 C1997 1.425 . S
C1992 C1999 1.409 . S
C1993 H1985 0.930 . S
C1993 C1991 1.419 . S
C1993 C1994 1.362 . S
C1994 H1986 0.930 . S
C1994 C1993 1.362 . S
C1994 C1997 1.409 . S
C1995 H1987 0.930 . S
C1995 C1996 1.355 . S
C1995 C1997 1.415 . S
C1996 C1995 1.355 . S
C1996 C1998 1.419 . S
C1997 C1992 1.425 . S
C1997 C1994 1.409 . S
C1997 C1995 1.415 . S
C1998 H1988 0.930 . S
C1998 C1996 1.419 . S
C1998 C1999 1.362 . S
C1999 H1989 0.930 . S
C1999 C1992 1.409 . S
C1999 C1998 1.362 . S
H2000 C2006 0.930 . S
H2001 C2009 0.930 . S
H2002 C2010 0.930 . S
H2003 C2011 0.930 . S
H2004 C2014 0.930 . S
H2005 C2015 0.930 . S
C2006 H2000 0.930 . S
C2006 C2007 1.355 . S
C2006 C2008 1.415 . S
C2007 C2006 1.355 . S
C2007 C2009 1.419 . S
C2008 C2006 1.415 . S
C2008 C2013 1.425 . S
C2008 C2015 1.409 . S
C2009 H2001 0.930 . S
C2009 C2007 1.419 . S
C2009 C2010 1.362 . S
C2010 H2002 0.930 . S
C2010 C2009 1.362 . S
C2010 C2013 1.409 . S
C2011 H2003 0.930 . S
C2011 C2012 1.355 . S
C2011 C2013 1.415 . S
C2012 C2011 1.355 . S
C2012 C2014 1.419 . S
C2013 C2008 1.425 . S
C2013 C2010 1.409 . S
C2013 C2011 1.415 . S
C2014 H2004 0.930 . S
C2014 C2012 1.419 . S
C2014 C2015 1.362 . S
C2015 H2005 0.930 . S
C2015 C2008 1.409 . S
C2015 C2014 1.362 . S
H2016 C2022 0.930 . S
H2017 C2025 0.930 . S
H2018 C2026 0.930 . S
H2019 C2027 0.930 . S
H2020 C2030 0.930 . S
H2021 C2031 0.930 . S
C2022 H2016 0.930 . S
C2022 C2023 1.355 . S
C2022 C2024 1.415 . S
C2023 C2022 1.355 . S
C2023 C2025 1.419 . S
C2024 C2022 1.415 . S
C2024 C2029 1.425 . S
C2024 C2031 1.409 . S
C2025 H2017 0.930 . S
C2025 C2023 1.419 . S
C2025 C2026 1.362 . S
C2026 H2018 0.930 . S
C2026 C2025 1.362 . S
C2026 C2029 1.409 . S
C2027 H2019 0.930 . S
C2027 C2028 1.355 . S
C2027 C2029 1.415 . S
C2028 C2027 1.355 . S
C2028 C2030 1.419 . S
C2029 C2024 1.425 . S
C2029 C2026 1.409 . S
C2029 C2027 1.415 . S
C2030 H2020 0.930 . S
C2030 C2028 1.419 . S
C2030 C2031 1.362 . S
C2031 H2021 0.930 . S
C2031 C2024 1.409 . S
C2031 C2030 1.362 . S
H2032 C2038 0.930 . S
H2033 C2041 0.930 . S
H2034 C2042 0.930 . S
H2035 C2043 0.930 . S
H2036 C2046 0.930 1_455 S
H2037 C2047 0.930 1_455 S
C2038 H2032 0.930 . S
C2038 C2039 1.355 . S
C2038 C2040 1.415 . S
C2039 C2038 1.355 . S
C2039 C2041 1.419 . S
C2040 C2038 1.415 . S
C2040 C2045 1.425 . S
C2040 C2047 1.409 . S
C2041 H2033 0.930 . S
C2041 C2039 1.419 . S
C2041 C2042 1.362 . S
C2042 H2034 0.930 . S
C2042 C2041 1.362 . S
C2042 C2045 1.409 . S
C2043 H2035 0.930 . S
C2043 C2044 1.355 . S
C2043 C2045 1.415 . S
C2044 C2043 1.355 . S
C2044 C2046 1.419 . S
C2045 C2040 1.425 . S
C2045 C2042 1.409 . S
C2045 C2043 1.415 . S
C2046 H2036 0.930 1_655 S
C2046 C2044 1.419 . S
C2046 C2047 1.362 . S
C2047 H2037 0.930 1_655 S
C2047 C2040 1.409 . S
C2047 C2046 1.362 . S
H2048 C2054 0.930 . S
H2049 C2057 0.930 . S
H2050 C2058 0.930 . S
H2051 C2059 0.930 . S
H2052 C2062 0.930 . S
H2053 C2063 0.930 . S
C2054 H2048 0.930 . S
C2054 C2055 1.355 . S
C2054 C2056 1.415 . S
C2055 C2054 1.355 . S
C2055 C2057 1.419 . S
C2056 C2054 1.415 . S
C2056 C2061 1.425 . S
C2056 C2063 1.409 . S
C2057 H2049 0.930 . S
C2057 C2055 1.419 . S
C2057 C2058 1.362 . S
C2058 H2050 0.930 . S
C2058 C2057 1.362 . S
C2058 C2061 1.409 . S
C2059 H2051 0.930 . S
C2059 C2060 1.355 . S
C2059 C2061 1.415 . S
C2060 C2059 1.355 . S
C2060 C2062 1.419 . S
C2061 C2056 1.425 . S
C2061 C2058 1.409 . S
C2061 C2059 1.415 . S
C2062 H2052 0.930 . S
C2062 C2060 1.419 . S
C2062 C2063 1.362 . S
C2063 H2053 0.930 . S
C2063 C2056 1.409 . S
C2063 C2062 1.362 . S
H2064 C2070 0.930 . S
H2065 C2073 0.930 . S
H2066 C2074 0.930 . S
H2067 C2075 0.930 . S
H2068 C2078 0.930 . S
H2069 C2079 0.930 . S
C2070 H2064 0.930 . S
C2070 C2071 1.355 . S
C2070 C2072 1.415 . S
C2071 C2070 1.355 . S
C2071 C2073 1.419 . S
C2072 C2070 1.415 . S
C2072 C2077 1.425 . S
C2072 C2079 1.409 . S
C2073 H2065 0.930 . S
C2073 C2071 1.419 . S
C2073 C2074 1.362 . S
C2074 H2066 0.930 . S
C2074 C2073 1.362 . S
C2074 C2077 1.409 . S
C2075 H2067 0.930 . S
C2075 C2076 1.355 . S
C2075 C2077 1.415 . S
C2076 C2075 1.355 . S
C2076 C2078 1.419 . S
C2077 C2072 1.425 . S
C2077 C2074 1.409 . S
C2077 C2075 1.415 . S
C2078 H2068 0.930 . S
C2078 C2076 1.419 . S
C2078 C2079 1.362 . S
C2079 H2069 0.930 . S
C2079 C2072 1.409 . S
C2079 C2078 1.362 . S
H2080 C2086 0.930 . S
H2081 C2089 0.930 . S
H2082 C2090 0.930 . S
H2083 C2091 0.930 . S
H2084 C2094 0.930 . S
H2085 C2095 0.936 . S
C2086 H2080 0.930 . S
C2086 C2087 1.355 . S
C2086 C2088 1.415 . S
C2087 C2086 1.355 . S
C2087 C2089 1.419 . S
C2088 C2086 1.415 . S
C2088 C2093 1.425 . S
C2088 C2095 1.409 . S
C2089 H2081 0.930 . S
C2089 C2087 1.419 . S
C2089 C2090 1.362 . S
C2090 H2082 0.930 . S
C2090 C2089 1.362 . S
C2090 C2093 1.409 . S
C2091 H2083 0.930 . S
C2091 C2092 1.355 . S
C2091 C2093 1.415 . S
C2092 C2091 1.355 . S
C2092 C2094 1.419 1_565 S
C2093 C2088 1.425 . S
C2093 C2090 1.409 . S
C2093 C2091 1.415 . S
C2094 H2084 0.930 . S
C2094 C2092 1.419 1_545 S
C2094 C2095 1.362 1_545 S
C2095 H2085 0.936 . S
C2095 C2088 1.409 . S
C2095 C2094 1.362 1_565 S
H2096 C2102 0.930 . S
H2097 C2105 0.930 . S
H2098 C2106 0.930 . S
H2099 C2107 0.930 . S
H2100 C2110 0.930 . S
H2101 C2111 0.930 . S
C2102 H2096 0.930 . S
C2102 C2103 1.355 . S
C2102 C2104 1.415 . S
C2103 C2102 1.355 . S
C2103 C2105 1.419 . S
C2104 C2102 1.415 . S
C2104 C2109 1.425 . S
C2104 C2111 1.409 . S
C2105 H2097 0.930 . S
C2105 C2103 1.419 . S
C2105 C2106 1.362 . S
C2106 H2098 0.930 . S
C2106 C2105 1.362 . S
C2106 C2109 1.409 . S
C2107 H2099 0.930 . S
C2107 C2108 1.355 . S
C2107 C2109 1.415 . S
C2108 C2107 1.355 . S
C2108 C2110 1.419 . S
C2109 C2104 1.425 . S
C2109 C2106 1.409 . S
C2109 C2107 1.415 . S
C2110 H2100 0.930 . S
C2110 C2108 1.419 . S
C2110 C2111 1.362 . S
C2111 H2101 0.930 . S
C2111 C2104 1.409 . S
C2111 C2110 1.362 . S
H2112 C2118 0.930 . S
H2113 C2121 0.930 . S
H2114 C2122 0.930 . S
H2115 C2123 0.930 . S
H2116 C2126 0.930 . S
H2117 C2127 0.930 . S
C2118 H2112 0.930 . S
C2118 C2119 1.359 . S
C2118 C2120 1.415 . S
C2119 C2118 1.359 . S
C2119 C2121 1.410 1_556 S
C2120 C2118 1.415 . S
C2120 C2125 1.425 1_556 S
C2120 C2127 1.409 . S
C2121 H2113 0.930 . S
C2121 C2119 1.410 1_554 S
C2121 C2122 1.362 . S
C2122 H2114 0.930 . S
C2122 C2121 1.362 . S
C2122 C2125 1.409 . S
C2123 H2115 0.930 . S
C2123 C2124 1.355 . S
C2123 C2125 1.415 . S
C2124 C2123 1.355 . S
C2124 C2126 1.419 1_554 S
C2125 C2120 1.425 1_554 S
C2125 C2122 1.409 . S
C2125 C2123 1.415 . S
C2126 H2116 0.930 . S
C2126 C2124 1.419 1_556 S
C2126 C2127 1.362 . S
C2127 H2117 0.930 . S
C2127 C2120 1.409 . S
C2127 C2126 1.362 . S
H2128 C2134 0.930 . S
H2129 C2137 0.930 . S
H2130 C2138 0.930 . S
H2131 C2139 0.930 . S
H2132 C2142 0.930 . S
H2133 C2143 0.930 . S
C2134 H2128 0.930 . S
C2134 C2135 1.355 . S
C2134 C2136 1.415 . S
C2135 C2134 1.355 . S
C2135 C2137 1.419 . S
C2136 C2134 1.415 . S
C2136 C2141 1.425 . S
C2136 C2143 1.409 . S
C2137 H2129 0.930 . S
C2137 C2135 1.419 . S
C2137 C2138 1.362 . S
C2138 H2130 0.930 . S
C2138 C2137 1.362 . S
C2138 C2141 1.409 . S
C2139 H2131 0.930 . S
C2139 C2140 1.355 . S
C2139 C2141 1.415 . S
C2140 C2139 1.355 . S
C2140 C2142 1.419 . S
C2141 C2136 1.425 . S
C2141 C2138 1.409 . S
C2141 C2139 1.415 . S
C2142 H2132 0.930 . S
C2142 C2140 1.419 . S
C2142 C2143 1.362 . S
C2143 H2133 0.930 . S
C2143 C2136 1.409 . S
C2143 C2142 1.362 . S
H2144 C2150 0.934 . S
H2145 C2153 0.930 . S
H2146 C2154 0.930 . S
H2147 C2155 0.930 1_554 S
H2148 C2158 0.930 . S
H2149 C2159 0.930 . S
C2150 H2144 0.934 . S
C2150 C2151 1.348 1_556 S
C2150 C2152 1.417 . S
C2151 C2150 1.348 1_554 S
C2151 C2153 1.419 . S
C2152 C2150 1.417 . S
C2152 C2157 1.425 1_556 S
C2152 C2159 1.409 . S
C2153 H2145 0.930 . S
C2153 C2151 1.419 . S
C2153 C2154 1.362 . S
C2154 H2146 0.930 . S
C2154 C2153 1.362 . S
C2154 C2157 1.409 . S
C2155 H2147 0.930 1_556 S
C2155 C2156 1.355 . S
C2155 C2157 1.415 1_556 S
C2156 C2155 1.355 . S
C2156 C2158 1.419 . S
C2157 C2152 1.425 1_554 S
C2157 C2154 1.409 . S
C2157 C2155 1.415 1_554 S
C2158 H2148 0.930 . S
C2158 C2156 1.419 . S
C2158 C2159 1.362 . S
C2159 H2149 0.930 . S
C2159 C2152 1.409 . S
C2159 C2158 1.362 . S
H2160 C2166 0.930 . S
H2161 C2169 0.930 . S
H2162 C2170 0.930 . S
H2163 C2171 0.930 . S
H2164 C2174 0.930 . S
H2165 C2175 0.930 . S
C2166 H2160 0.930 . S
C2166 C2167 1.355 . S
C2166 C2168 1.415 . S
C2167 C2166 1.355 . S
C2167 C2169 1.419 . S
C2168 C2166 1.415 . S
C2168 C2173 1.425 . S
C2168 C2175 1.409 . S
C2169 H2161 0.930 . S
C2169 C2167 1.419 . S
C2169 C2170 1.362 . S
C2170 H2162 0.930 . S
C2170 C2169 1.362 . S
C2170 C2173 1.409 . S
C2171 H2163 0.930 . S
C2171 C2172 1.355 . S
C2171 C2173 1.415 . S
C2172 C2171 1.355 . S
C2172 C2174 1.419 . S
C2173 C2168 1.425 . S
C2173 C2170 1.409 . S
C2173 C2171 1.415 . S
C2174 H2164 0.930 . S
C2174 C2172 1.419 . S
C2174 C2175 1.362 . S
C2175 H2165 0.930 . S
C2175 C2168 1.409 . S
C2175 C2174 1.362 . S
H2176 C2182 0.930 . S
H2177 C2185 0.930 . S
H2178 C2186 0.930 . S
H2179 C2187 0.930 . S
H2180 C2190 0.930 . S
H2181 C2191 0.930 . S
C2182 H2176 0.930 . S
C2182 C2183 1.355 . S
C2182 C2184 1.415 . S
C2183 C2182 1.355 . S
C2183 C2185 1.419 . S
C2184 C2182 1.415 . S
C2184 C2189 1.425 . S
C2184 C2191 1.409 . S
C2185 H2177 0.930 . S
C2185 C2183 1.419 . S
C2185 C2186 1.362 . S
C2186 H2178 0.930 . S
C2186 C2185 1.362 . S
C2186 C2189 1.409 . S
C2187 H2179 0.930 . S
C2187 C2188 1.355 . S
C2187 C2189 1.415 . S
C2188 C2187 1.355 . S
C2188 C2190 1.419 . S
C2189 C2184 1.425 . S
C2189 C2186 1.409 . S
C2189 C2187 1.415 . S
C2190 H2180 0.930 . S
C2190 C2188 1.419 . S
C2190 C2191 1.362 . S
C2191 H2181 0.930 . S
C2191 C2184 1.409 . S
C2191 C2190 1.362 . S
C663 C109 1.545 . S
C668 C354 1.501 . S
C679 C65 1.644 . S
C684 C365 1.634 . S
C695 C75 1.117 . S
C700 C394 1.038 . S
C716 C397 1.472 . S
C711 C84 1.446 . S
C727 C25 1.604 . S
C732 C435 1.520 . S
C748 C438 1.059 . S
C743 C28 1.082 . S
C764 C465 1.530 . S
C759 C47 1.516 . S
C775 C9 1.703 . S
C780 C494 1.597 . S
C796 C345 1.638 1_655 S
C791 C233 1.647 . S
C807 C249 1.002 . S
C812 C357 0.984 . S
C828 C385 1.600 . S
C823 C275 1.603 . S
C844 C414 1.161 . S
C839 C173 1.187 . S
C855 C224 1.160 . S
C860 C418 1.153 . S
C876 C444 1.592 . S
C871 C243 1.622 . S
C892 C457 0.834 . S
C887 C266 0.801 . S
C908 C485 1.554 . S
C903 C179 1.581 . S
C924 C337 1.562 1_565 S
C919 C163 1.572 . S
C935 C289 1.725 . S
C940 C504 1.707 1_554 S
C956 C535 1.496 . S
C951 C333 1.579 . S
C972 C554 1.000 . S
C967 C308 0.983 . S
C983 C123 1.417 . S
C988 C477 1.391 . S
C999 C126 1.536 . S
C1004 C377 1.529 . S
C1015 C327 1.609 . S
C1020 C565 1.582 . S
C1036 C594 1.046 . S
C1031 C299 1.091 . S
C1052 C355 1.569 . S
C1047 C67 1.589 . S
C1068 C584 1.644 . S
C1063 C98 1.637 . S
C1079 C89 1.148 . S
C1084 C395 1.106 . S
C1095 C79 1.502 . S
C1100 C558 1.505 . S
C1116 C434 1.540 . S
C1111 C11 1.629 . S
C1127 C51 1.062 . S
C1132 C517 1.066 . S
C1148 C464 1.582 . S
C1143 C33 1.555 . S
C1164 C615 1.591 . S
C1159 C14 1.677 . S
C1180 C344 1.625 . S
C1175 C140 1.611 . S
C1196 C578 0.908 . S
C1191 C319 0.958 . S
C1207 C112 1.590 . S
C1212 C384 1.615 . S
C1223 C285 1.214 . S
C1228 C575 1.172 . S
C1239 C149 1.155 . S
C1244 C417 1.174 . S
C1260 C525 1.641 . S
C1255 C313 1.648 . S
C1271 C121 0.885 . S
C1276 C458 0.862 . S
C1287 C291 1.605 . S
C1292 C604 1.574 . S
C1303 C182 1.573 . S
C1308 C338 1.537 . S
C1319 C168 1.727 . S
C1324 C505 1.717 . S
C1335 C263 1.630 . S
C1340 C454 1.550 . S
C1351 C247 1.012 . S
C1356 C555 1.024 . S
C1372 C598 1.387 . S
C1367 C277 1.375 . S
C1383 C219 1.583 . S
C1388 C378 1.561 . S
C1404 C404 1.645 . S
C1399 C257 1.636 . S
C1420 C375 1.088 . S
C1415 C201 1.088 . S
C1431 C81 1.554 . S
C1436 C634 1.492 . S
C1452 C585 1.644 . S
C1447 C93 1.632 . S
C1463 C103 1.119 . S
C1468 C654 1.042 . S
C1479 C56 1.447 . S
C1484 C557 1.473 . S
C1495 C53 1.632 . S
C1500 C515 1.588 . S
C1516 C518 1.041 . S
C1511 C0 1.050 . S
C1532 C545 1.510 . S
C1527 C19 1.516 . S
C1548 C614 1.663 . S
C1543 C37 1.709 . S
C1564 C625 1.638 . S
C1559 C261 1.647 . S
C1575 C193 0.957 . S
C1580 C577 0.994 . S
C1596 C645 1.582 . S
C1591 C205 1.596 . S
C1612 C574 1.199 . S
C1607 C215 1.208 . S
C1628 C498 1.160 . S
C1623 C252 1.154 . S
C1639 C187 1.610 . S
C1644 C524 1.591 . S
C1660 C537 0.876 . S
C1655 C196 0.845 . S
C1671 C221 1.566 . S
C1676 C605 1.582 . S
C1692 C617 1.562 . S
C1687 C317 1.572 . S
C1703 C135 1.723 . S
C1708 C424 1.672 . S
C1724 C455 1.494 . S
C1719 C151 1.557 . S
C1740 C474 0.922 1_565 S
C1735 C154 0.980 . S
C1756 C597 1.370 . S
C1751 C305 1.393 . S
C1767 C280 1.548 . S
C1772 C637 1.539 . S
C1788 C405 1.612 . S
C1783 C145 1.597 . S
C1804 C374 0.984 . S
C1799 C117 1.048 . S
C1815 C95 1.589 . S
C1820 C635 1.525 . S
C1836 C364 1.644 . S
C1831 C70 1.636 . S
C1847 C61 1.147 . S
C1852 C655 1.101 . S
C1863 C107 1.502 . S
C1868 C398 1.496 . S
C1879 C39 1.649 . S
C1884 C514 1.600 . S
C1900 C437 1.082 . S
C1895 C23 1.061 . S
C1911 C5 1.558 . S
C1916 C544 1.562 . S
C1927 C42 1.688 . S
C1932 C495 1.614 . S
C1948 C624 1.617 . S
C1943 C322 1.613 . S
C1959 C165 0.940 . S
C1964 C358 0.909 . S
C1980 C644 1.614 1_655 S
C1975 C294 1.593 . S
C1991 C131 1.211 . S
C1996 C415 1.234 . S
C2007 C331 1.137 . S
C2012 C497 1.163 . S
C2028 C445 1.614 . S
C2023 C159 1.636 . S
C2039 C303 0.876 . S
C2044 C538 0.862 . S
C2060 C484 1.574 . S
C2055 C137 1.605 . S
C2076 C618 1.511 . S
C2071 C238 1.563 . S
C2092 C425 1.706 1_565 S
C2087 C210 1.724 . S
C2103 C235 1.593 . S
C2108 C534 1.538 . S
C2124 C475 0.979 . S
C2119 C191 1.025 . S
C2135 C207 1.376 . S
C2140 C478 1.392 . S
C2151 C177 1.584 . S
C2156 C638 1.565 . S
C2172 C564 1.614 . S
C2167 C229 1.637 . S
C2188 C595 0.997 . S
C2183 C271 1.065 . S
