# Generated by pormake.
# Topology ocu, (6,8)-cn, num edge types: 1
# Building blocks:
#     Node 0, Type 0, BuildingBlock: KUMJIN_clean_sbu_0, # of connection points: 6
#     Node 1, Type 0, BuildingBlock: KUMJIN_clean_sbu_0, # of connection points: 6
#     Node 2, Type 0, BuildingBlock: KUMJIN_clean_sbu_0, # of connection points: 6
#     Node 3, Type 0, BuildingBlock: KUMJIN_clean_sbu_0, # of connection points: 6
#     Node 4, Type 0, BuildingBlock: KUMJIN_clean_sbu_0, # of connection points: 6
#     Node 5, Type 0, BuildingBlock: KUMJIN_clean_sbu_0, # of connection points: 6
#     Node 6, Type 0, BuildingBlock: KUMJIN_clean_sbu_0, # of connection points: 6
#     Node 7, Type 0, BuildingBlock: KUMJIN_clean_sbu_0, # of connection points: 6
#     Node 8, Type 1, BuildingBlock: GIZVER_clean_sbu_0, # of connection points: 8
#     Node 9, Type 1, BuildingBlock: GIZVER_clean_sbu_0, # of connection points: 8
#     Node 10, Type 1, BuildingBlock: GIZVER_clean_sbu_0, # of connection points: 8
#     Node 11, Type 1, BuildingBlock: GIZVER_clean_sbu_0, # of connection points: 8
#     Node 12, Type 1, BuildingBlock: GIZVER_clean_sbu_0, # of connection points: 8
#     Node 13, Type 1, BuildingBlock: GIZVER_clean_sbu_0, # of connection points: 8
#     Edge 14, Type (0, 1), BuildingBlock: CIFDUS_clean_linker_0, # of connection points: 2
#     Edge 15, Type (0, 1), BuildingBlock: CIFDUS_clean_linker_0, # of connection points: 2
#     Edge 16, Type (0, 1), BuildingBlock: CIFDUS_clean_linker_0, # of connection points: 2
#     Edge 17, Type (0, 1), BuildingBlock: CIFDUS_clean_linker_0, # of connection points: 2
#     Edge 18, Type (0, 1), BuildingBlock: CIFDUS_clean_linker_0, # of connection points: 2
#     Edge 19, Type (0, 1), BuildingBlock: CIFDUS_clean_linker_0, # of connection points: 2
#     Edge 20, Type (0, 1), BuildingBlock: CIFDUS_clean_linker_0, # of connection points: 2
#     Edge 21, Type (0, 1), BuildingBlock: CIFDUS_clean_linker_0, # of connection points: 2
#     Edge 22, Type (0, 1), BuildingBlock: CIFDUS_clean_linker_0, # of connection points: 2
#     Edge 23, Type (0, 1), BuildingBlock: CIFDUS_clean_linker_0, # of connection points: 2
#     Edge 24, Type (0, 1), BuildingBlock: CIFDUS_clean_linker_0, # of connection points: 2
#     Edge 25, Type (0, 1), BuildingBlock: CIFDUS_clean_linker_0, # of connection points: 2
#     Edge 26, Type (0, 1), BuildingBlock: CIFDUS_clean_linker_0, # of connection points: 2
#     Edge 27, Type (0, 1), BuildingBlock: CIFDUS_clean_linker_0, # of connection points: 2
#     Edge 28, Type (0, 1), BuildingBlock: CIFDUS_clean_linker_0, # of connection points: 2
#     Edge 29, Type (0, 1), BuildingBlock: CIFDUS_clean_linker_0, # of connection points: 2
#     Edge 30, Type (0, 1), BuildingBlock: CIFDUS_clean_linker_0, # of connection points: 2
#     Edge 31, Type (0, 1), BuildingBlock: CIFDUS_clean_linker_0, # of connection points: 2
#     Edge 32, Type (0, 1), BuildingBlock: CIFDUS_clean_linker_0, # of connection points: 2
#     Edge 33, Type (0, 1), BuildingBlock: CIFDUS_clean_linker_0, # of connection points: 2
#     Edge 34, Type (0, 1), BuildingBlock: CIFDUS_clean_linker_0, # of connection points: 2
#     Edge 35, Type (0, 1), BuildingBlock: CIFDUS_clean_linker_0, # of connection points: 2
#     Edge 36, Type (0, 1), BuildingBlock: CIFDUS_clean_linker_0, # of connection points: 2
#     Edge 37, Type (0, 1), BuildingBlock: CIFDUS_clean_linker_0, # of connection points: 2
#     Edge 38, Type (0, 1), BuildingBlock: CIFDUS_clean_linker_0, # of connection points: 2
#     Edge 39, Type (0, 1), BuildingBlock: CIFDUS_clean_linker_0, # of connection points: 2
#     Edge 40, Type (0, 1), BuildingBlock: CIFDUS_clean_linker_0, # of connection points: 2
#     Edge 41, Type (0, 1), BuildingBlock: CIFDUS_clean_linker_0, # of connection points: 2
#     Edge 42, Type (0, 1), BuildingBlock: CIFDUS_clean_linker_0, # of connection points: 2
#     Edge 43, Type (0, 1), BuildingBlock: CIFDUS_clean_linker_0, # of connection points: 2
#     Edge 44, Type (0, 1), BuildingBlock: CIFDUS_clean_linker_0, # of connection points: 2
#     Edge 45, Type (0, 1), BuildingBlock: CIFDUS_clean_linker_0, # of connection points: 2
#     Edge 46, Type (0, 1), BuildingBlock: CIFDUS_clean_linker_0, # of connection points: 2
#     Edge 47, Type (0, 1), BuildingBlock: CIFDUS_clean_linker_0, # of connection points: 2
#     Edge 48, Type (0, 1), BuildingBlock: CIFDUS_clean_linker_0, # of connection points: 2
#     Edge 49, Type (0, 1), BuildingBlock: CIFDUS_clean_linker_0, # of connection points: 2
#     Edge 50, Type (0, 1), BuildingBlock: CIFDUS_clean_linker_0, # of connection points: 2
#     Edge 51, Type (0, 1), BuildingBlock: CIFDUS_clean_linker_0, # of connection points: 2
#     Edge 52, Type (0, 1), BuildingBlock: CIFDUS_clean_linker_0, # of connection points: 2
#     Edge 53, Type (0, 1), BuildingBlock: CIFDUS_clean_linker_0, # of connection points: 2
#     Edge 54, Type (0, 1), BuildingBlock: CIFDUS_clean_linker_0, # of connection points: 2
#     Edge 55, Type (0, 1), BuildingBlock: CIFDUS_clean_linker_0, # of connection points: 2
#     Edge 56, Type (0, 1), BuildingBlock: CIFDUS_clean_linker_0, # of connection points: 2
#     Edge 57, Type (0, 1), BuildingBlock: CIFDUS_clean_linker_0, # of connection points: 2
#     Edge 58, Type (0, 1), BuildingBlock: CIFDUS_clean_linker_0, # of connection points: 2
#     Edge 59, Type (0, 1), BuildingBlock: CIFDUS_clean_linker_0, # of connection points: 2
#     Edge 60, Type (0, 1), BuildingBlock: CIFDUS_clean_linker_0, # of connection points: 2
#     Edge 61, Type (0, 1), BuildingBlock: CIFDUS_clean_linker_0, # of connection points: 2
# Relax obj value: 0.172
# Max RMSD: 0.294
# Mean RMSD: 0.214
data_MOF--net-ocu--node1-KUMJIN_clean_sbu_0--node2-GIZVER_clean_sbu_0--edge1-CIFDUS_clean_linker_0
_symmetry_space_group_name_H-M    P1
_symmetry_Int_Tables_number       1
_symmetry_cell_setting            triclinic
loop_
_symmetry_equiv_pos_as_xyz
'x, y, z'
_cell_length_a     37.975799
_cell_length_b     39.018257
_cell_length_c     31.616756
_cell_angle_alpha  75.397225
_cell_angle_beta   103.60715
_cell_angle_gamma 113.83335
loop_
_atom_site_label
_atom_site_type_symbol
_atom_site_fract_x
_atom_site_fract_y
_atom_site_fract_z
_atom_type_partial_charge
Eu0 Eu 0.27624 0.2449 0.2032 0.0
C1 C 0.39605 0.32163 0.35509 0.0
C2 C 0.40259 0.26803 0.41055 0.0
C3 C 0.45672 0.32885 0.40573 0.0
C4 C 0.38058 0.28371 0.37431 0.0
C5 C 0.43379 0.34494 0.37165 0.0
C6 C 0.44114 0.29044 0.42514 0.0
C7 C 0.4212 0.39931 0.32444 0.0
N8 N 0.37284 0.33656 0.32302 0.0
C9 C 0.38386 0.37507 0.30949 0.0
C10 C 0.44658 0.38409 0.35503 0.0
Eu11 Eu 0.31038 0.29389 0.29856 0.0
N12 N 0.343 0.26304 0.35996 0.0
C13 C 0.32467 0.2277 0.38296 0.0
C14 C 0.38466 0.23086 0.43228 0.0
C15 C 0.34531 0.2109 0.41895 0.0
H16 H 0.36411 0.38685 0.28606 0.0
H17 H 0.33088 0.18252 0.43629 0.0
H18 H 0.45863 0.27874 0.45252 0.0
H19 H 0.43031 0.42968 0.31253 0.0
H20 H 0.2943 0.21182 0.37304 0.0
H21 H 0.26494 0.36039 0.0663 0.0
H22 H 0.40053 0.21781 0.46025 0.0
H23 H 0.21574 0.15401 0.218 0.0
H24 H 0.29783 0.3285 0.13035 0.0
H25 H 0.14856 0.11451 0.1896 0.0
H26 H 0.48596 0.3462 0.41849 0.0
H27 H 0.19554 0.32781 0.03825 0.0
H28 H 0.13531 0.26872 0.04262 0.0
H29 H 0.47536 0.40297 0.36692 0.0
H30 H 0.10353 0.20184 0.07624 0.0
N31 N 0.24747 0.27809 0.14015 0.0
C32 C 0.26762 0.31356 0.11882 0.0
C33 C 0.20985 0.3135 0.0666 0.0
C34 C 0.18993 0.27639 0.08693 0.0
C35 C 0.24902 0.33194 0.08225 0.0
C36 C 0.20987 0.25909 0.12392 0.0
H37 H 0.10839 0.14398 0.1306 0.0
N38 N 0.2127 0.20527 0.17675 0.0
C39 C 0.16029 0.14463 0.17636 0.0
C40 C 0.19191 0.22156 0.14289 0.0
C41 C 0.19822 0.16698 0.19231 0.0
C42 C 0.13769 0.16139 0.14314 0.0
C43 C 0.15365 0.20015 0.12538 0.0
O44 O 0.28724 0.19873 0.18833 0.0
O45 O 0.31755 0.2522 0.26698 0.0
O46 O 0.36055 0.32043 0.25979 0.0
O47 O 0.33013 0.29882 0.19288 0.0
O48 O 0.28735 0.19708 0.25601 0.0
O49 O 0.3079 0.25521 0.14905 0.0
O50 O 0.2879 0.33373 0.30945 0.0
O51 O 0.26906 0.28647 0.23478 0.0
O52 O 0.22556 0.22239 0.24112 0.0
O53 O 0.25762 0.23906 0.30991 0.0
O54 O 0.29869 0.3416 0.24595 0.0
O55 O 0.28895 0.28522 0.36038 0.0
C56 C 0.31393 0.21783 0.28259 0.0
C57 C 0.29523 0.20299 0.11509 0.0
C58 C 0.3149 0.17511 0.06798 0.0
C59 C 0.32272 0.19185 0.10534 0.0
C60 C 0.27881 0.16941 0.04046 0.0
C61 C 0.25944 0.19746 0.08722 0.0
C62 C 0.25133 0.18068 0.05005 0.0
C63 C 0.3596 0.32096 0.21762 0.0
C64 C 0.30484 0.21989 0.15483 0.0
C65 C 0.13308 0.21772 0.08987 0.0
C66 C 0.15118 0.25579 0.07071 0.0
C67 C 0.2725 0.32084 0.21898 0.0
C68 C 0.29638 0.34184 0.38232 0.0
C69 C 0.2719 0.35885 0.38715 0.0
C70 C 0.28551 0.38784 0.4125 0.0
C71 C 0.32408 0.39816 0.43486 0.0
C72 C 0.33446 0.35193 0.40528 0.0
C73 C 0.34812 0.37988 0.43166 0.0
C74 C 0.22685 0.21998 0.28383 0.0
C75 C 0.28221 0.31671 0.34961 0.0
H76 H 0.35023 0.19593 0.12725 0.0
H77 H 0.27216 0.15686 0.01126 0.0
H78 H 0.23792 0.20602 0.09417 0.0
H79 H 0.2237 0.17647 0.02855 0.0
H80 H 0.24215 0.34948 0.37035 0.0
H81 H 0.33604 0.42066 0.45424 0.0
H82 H 0.35368 0.33872 0.40239 0.0
H83 H 0.37769 0.38796 0.44897 0.0
Eu84 Eu 0.81912 0.25319 0.25508 0.0
C85 C 0.69224 0.30823 0.25856 0.0
C86 C 0.64711 0.31443 0.19106 0.0
C87 C 0.62491 0.29703 0.26217 0.0
C88 C 0.68444 0.31537 0.21278 0.0
C89 C 0.66245 0.29944 0.28368 0.0
C90 C 0.61728 0.30462 0.21599 0.0
C91 C 0.70938 0.29866 0.34972 0.0
N92 N 0.72907 0.31131 0.27852 0.0
C93 C 0.73803 0.30774 0.32365 0.0
C94 C 0.67135 0.2941 0.32973 0.0
Eu95 Eu 0.774 0.32302 0.22977 0.0
N96 N 0.71368 0.32473 0.18939 0.0
C97 C 0.70818 0.33525 0.14438 0.0
C98 C 0.64102 0.32418 0.14491 0.0
C99 C 0.67186 0.33509 0.12151 0.0
H100 H 0.7668 0.31054 0.34076 0.0
H101 H 0.66763 0.34317 0.08586 0.0
H102 H 0.58838 0.30345 0.19988 0.0
H103 H 0.7167 0.29507 0.38537 0.0
H104 H 0.73171 0.34334 0.1259 0.0
H105 H 0.93713 0.25357 0.39268 0.0
H106 H 0.61283 0.32396 0.12711 0.0
H107 H 0.81857 0.25229 0.14585 0.0
H108 H 0.86888 0.2419 0.35718 0.0
H109 H 0.86606 0.27005 0.09643 0.0
H110 H 0.60174 0.29008 0.281 0.0
H111 H 0.98946 0.27807 0.34647 0.0
H112 H 1.00878 0.29696 0.27085 0.0
H113 H 0.64928 0.28718 0.3501 0.0
H114 H 0.98939 0.3019 0.19034 0.0
N115 N 0.88272 0.25958 0.29179 0.0
C116 C 0.89156 0.25199 0.33686 0.0
C117 C 0.95957 0.27274 0.33079 0.0
C118 C 0.94999 0.2786 0.28466 0.0
C119 C 0.93013 0.25881 0.357 0.0
C120 C 0.91063 0.27119 0.26582 0.0
H121 H 0.9364 0.29141 0.12526 0.0
N122 N 0.86105 0.26425 0.20353 0.0
C123 C 0.8759 0.27141 0.13121 0.0
C124 C 0.89953 0.27371 0.22042 0.0
C125 C 0.84888 0.26128 0.1598 0.0
C126 C 0.91557 0.28354 0.14757 0.0
C127 C 0.92783 0.28402 0.19278 0.0
O128 O 0.7734 0.19811 0.24495 0.0
O129 O 0.76896 0.2644 0.2649 0.0
O130 O 0.81292 0.32842 0.29641 0.0
O131 O 0.8569 0.30178 0.29374 0.0
O132 O 0.79842 0.24237 0.3209 0.0
O133 O 0.82848 0.19983 0.28394 0.0
O134 O 0.82399 0.37472 0.24271 0.0
O135 O 0.82298 0.31071 0.21805 0.0
O136 O 0.77534 0.24344 0.19153 0.0
O137 O 0.73515 0.27596 0.19029 0.0
O138 O 0.79171 0.33157 0.16285 0.0
O139 O 0.77173 0.37977 0.20264 0.0
C140 C 0.7675 0.25047 0.30543 0.0
C141 C 0.77122 0.15373 0.31113 0.0
C142 C 0.76954 0.1357 0.39078 0.0
C143 C 0.78926 0.157 0.35472 0.0
C144 C 0.73117 0.10992 0.38276 0.0
C145 C 0.73248 0.12857 0.30355 0.0
C146 C 0.71266 0.10672 0.33926 0.0
C147 C 0.84712 0.32454 0.30967 0.0
C148 C 0.79199 0.17885 0.27402 0.0
C149 C 0.96729 0.29345 0.21118 0.0
C150 C 0.97834 0.29065 0.25702 0.0
C151 C 0.8221 0.32259 0.17693 0.0
C152 C 0.83223 0.42055 0.17806 0.0
C153 C 0.81459 0.42109 0.13389 0.0
C154 C 0.83632 0.44085 0.09917 0.0
C155 C 0.87644 0.46067 0.10867 0.0
C156 C 0.87269 0.43984 0.18733 0.0
C157 C 0.89461 0.4597 0.15276 0.0
C158 C 0.74251 0.25014 0.17705 0.0
C159 C 0.80901 0.39707 0.21386 0.0
H160 H 0.81941 0.17568 0.3608 0.0
H161 H 0.71571 0.09223 0.40999 0.0
H162 H 0.71756 0.126 0.27013 0.0
H163 H 0.68288 0.08719 0.33322 0.0
H164 H 0.78335 0.40696 0.12609 0.0
H165 H 0.89339 0.47719 0.08227 0.0
H166 H 0.88732 0.43924 0.22119 0.0
H167 H 0.92571 0.47461 0.16019 0.0
Eu168 Eu 0.77184 0.75964 0.31042 0.0
C169 C 0.85727 0.87802 0.15847 0.0
C170 C 0.80525 0.88593 0.10054 0.0
C171 C 0.86732 0.93859 0.10832 0.0
C172 C 0.81955 0.86342 0.13729 0.0
C173 C 0.88191 0.91551 0.14368 0.0
C174 C 0.829 0.92387 0.08691 0.0
C175 C 0.93418 0.90374 0.19811 0.0
N176 N 0.87042 0.85501 0.19247 0.0
C177 C 0.90861 0.86679 0.21156 0.0
C178 C 0.92066 0.92838 0.16434 0.0
Eu179 Eu 0.82506 0.79377 0.21553 0.0
N180 N 0.79741 0.82668 0.15139 0.0
C181 C 0.7619 0.80973 0.12777 0.0
C182 C 0.76785 0.86935 0.07804 0.0
C183 C 0.74639 0.8309 0.09119 0.0
H184 H 0.91902 0.84793 0.23804 0.0
H185 H 0.71778 0.81759 0.07337 0.0
H186 H 0.81833 0.94184 0.05936 0.0
H187 H 0.96421 0.91323 0.21392 0.0
H188 H 0.74475 0.78013 0.13746 0.0
H189 H 0.87639 0.72188 0.44617 0.0
H190 H 0.75562 0.88569 0.04998 0.0
H191 H 0.67532 0.71327 0.28968 0.0
H192 H 0.85151 0.76493 0.38724 0.0
H193 H 0.62615 0.65001 0.31211 0.0
H194 H 0.88563 0.96762 0.09678 0.0
H195 H 0.83476 0.65413 0.46416 0.0
H196 H 0.76823 0.60281 0.45567 0.0
H197 H 0.94051 0.957 0.15395 0.0
H198 H 0.69968 0.58346 0.42014 0.0
N199 N 0.79644 0.72183 0.37161 0.0
C200 C 0.83272 0.7356 0.39529 0.0
C201 C 0.82337 0.67308 0.43908 0.0
C202 C 0.78497 0.66007 0.41765 0.0
C203 C 0.84701 0.71128 0.42879 0.0
C204 C 0.77219 0.68554 0.38361 0.0
H205 H 0.64622 0.60116 0.36727 0.0
N206 N 0.7227 0.7003 0.33155 0.0
C207 C 0.65642 0.65646 0.32662 0.0
C208 C 0.73394 0.67452 0.36329 0.0
C209 C 0.68435 0.6923 0.31402 0.0
C210 C 0.66787 0.62894 0.3577 0.0
C211 C 0.707 0.63791 0.37682 0.0
O212 O 0.73134 0.77989 0.32639 0.0
O213 O 0.781 0.80034 0.24584 0.0
O214 O 0.84473 0.84207 0.25379 0.0
O215 O 0.83119 0.8054 0.32226 0.0
O216 O 0.72443 0.77347 0.25774 0.0
O217 O 0.78743 0.78829 0.36701 0.0
O218 O 0.87073 0.78507 0.19253 0.0
O219 O 0.81645 0.75351 0.27994 0.0
O220 O 0.75117 0.71082 0.27395 0.0
O221 O 0.76651 0.74537 0.20467 0.0
O222 O 0.87287 0.78031 0.26768 0.0
O223 O 0.80987 0.75438 0.17063 0.0
C224 C 0.74634 0.79813 0.22996 0.0
C225 C 0.73568 0.78199 0.40144 0.0
C226 C 0.70369 0.79797 0.4482 0.0
C227 C 0.72349 0.80812 0.41181 0.0
C228 C 0.69699 0.76172 0.47458 0.0
C229 C 0.72872 0.74596 0.42819 0.0
C230 C 0.70945 0.73596 0.46457 0.0
C231 C 0.84819 0.83811 0.29718 0.0
C232 C 0.75405 0.79211 0.36163 0.0
C233 C 0.71983 0.61188 0.40961 0.0
C234 C 0.75884 0.62288 0.42982 0.0
C235 C 0.85104 0.75504 0.29516 0.0
C236 C 0.85406 0.76238 0.12429 0.0
C237 C 0.8761 0.74196 0.12076 0.0
C238 C 0.88036 0.73888 0.07906 0.0
C239 C 0.86288 0.75693 0.04081 0.0
C240 C 0.83708 0.78063 0.08574 0.0
C241 C 0.84151 0.77783 0.04422 0.0
C242 C 0.74844 0.71357 0.23089 0.0
C243 C 0.84574 0.76064 0.16811 0.0
H244 H 0.72805 0.83568 0.39064 0.0
H245 H 0.68159 0.75319 0.50259 0.0
H246 H 0.7378 0.72548 0.4207 0.0
H247 H 0.70373 0.70795 0.4848 0.0
H248 H 0.88903 0.72754 0.1504 0.0
H249 H 0.86609 0.75518 0.00839 0.0
H250 H 0.81977 0.79629 0.08773 0.0
H251 H 0.82793 0.79148 0.01459 0.0
Eu252 Eu 0.32133 0.74818 0.27417 0.0
C253 C 0.24919 0.85528 0.12605 0.0
C254 C 0.30277 0.91195 0.10197 0.0
C255 C 0.24323 0.88953 0.05058 0.0
C256 C 0.28668 0.88075 0.13475 0.0
C257 C 0.22663 0.85981 0.08418 0.0
C258 C 0.28126 0.9156 0.05948 0.0
C259 C 0.17191 0.80766 0.11322 0.0
N260 N 0.23391 0.82745 0.15953 0.0
C261 C 0.19543 0.80449 0.15422 0.0
C262 C 0.18771 0.83513 0.07785 0.0
Eu263 Eu 0.27554 0.82264 0.22781 0.0
N264 N 0.30626 0.87667 0.17634 0.0
C265 C 0.34067 0.90462 0.18841 0.0
C266 C 0.33928 0.93936 0.11343 0.0
C267 C 0.358 0.936 0.15707 0.0
H268 H 0.18312 0.78294 0.18128 0.0
H269 H 0.38583 0.95747 0.16658 0.0
H270 H 0.29328 0.93914 0.03372 0.0
H271 H 0.14168 0.78884 0.10889 0.0
H272 H 0.35544 0.90236 0.22203 0.0
H273 H 0.21711 0.61108 0.34021 0.0
H274 H 0.35268 0.96376 0.08924 0.0
H275 H 0.41483 0.78812 0.31784 0.0
H276 H 0.24621 0.66505 0.28266 0.0
H277 H 0.45722 0.78491 0.38993 0.0
H278 H 0.22652 0.89328 0.01805 0.0
H279 H 0.24843 0.61024 0.41829 0.0
H280 H 0.30664 0.63918 0.47312 0.0
H281 H 0.16941 0.83763 0.04616 0.0
H282 H 0.37305 0.68629 0.48651 0.0
N283 N 0.29217 0.69545 0.32792 0.0
C284 C 0.25981 0.66524 0.3167 0.0
C285 C 0.26112 0.63414 0.39321 0.0
C286 C 0.29644 0.66338 0.40377 0.0
C287 C 0.2434 0.63448 0.34918 0.0
C288 C 0.31172 0.6937 0.36973 0.0
H289 H 0.43004 0.73985 0.45524 0.0
N290 N 0.36402 0.74574 0.34218 0.0
C291 C 0.42681 0.7665 0.38685 0.0
C292 C 0.34909 0.71969 0.37711 0.0
C293 C 0.40272 0.76816 0.34601 0.0
C294 C 0.4113 0.74118 0.42369 0.0
C295 C 0.37217 0.71683 0.41893 0.0
O296 O 0.36538 0.7355 0.25353 0.0
O297 O 0.3218 0.80145 0.22673 0.0
O298 O 0.26073 0.78469 0.17733 0.0
O299 O 0.26579 0.72929 0.22403 0.0
O300 O 0.37394 0.79331 0.24425 0.0
O301 O 0.30519 0.69886 0.24256 0.0
O302 O 0.23105 0.83152 0.25213 0.0
O303 O 0.27383 0.76816 0.27389 0.0
O304 O 0.33796 0.78837 0.32377 0.0
O305 O 0.3314 0.84254 0.27602 0.0
O306 O 0.22229 0.77742 0.2565 0.0
O307 O 0.28998 0.87235 0.25788 0.0
C308 C 0.35687 0.81569 0.22014 0.0
C309 C 0.35189 0.67015 0.2562 0.0
C310 C 0.36762 0.61905 0.24202 0.0
C311 C 0.35738 0.65174 0.22635 0.0
C312 C 0.37234 0.60565 0.28799 0.0
C313 C 0.3567 0.65581 0.3016 0.0
C314 C 0.36681 0.62379 0.31731 0.0
C315 C 0.25313 0.74749 0.18565 0.0
C316 C 0.34083 0.70405 0.2403 0.0
C317 C 0.35598 0.68866 0.45397 0.0
C318 C 0.31813 0.66191 0.44638 0.0
C319 C 0.23861 0.75434 0.28037 0.0
C320 C 0.23922 0.89528 0.24858 0.0
C321 C 0.22689 0.90736 0.27901 0.0
C322 C 0.20997 0.9353 0.26442 0.0
C323 C 0.20618 0.95139 0.21931 0.0
C324 C 0.23543 0.91197 0.20376 0.0
C325 C 0.21914 0.93998 0.18931 0.0
C326 C 0.34416 0.82543 0.31484 0.0
C327 C 0.25431 0.86415 0.26332 0.0
H328 H 0.3534 0.66267 0.19121 0.0
H329 H 0.38119 0.58147 0.30166 0.0
H330 H 0.35282 0.66949 0.325 0.0
H331 H 0.37071 0.61313 0.3525 0.0
H332 H 0.22941 0.89432 0.31364 0.0
H333 H 0.19323 0.97288 0.20734 0.0
H334 H 0.24465 0.90307 0.1799 0.0
H335 H 0.21616 0.9526 0.15463 0.0
Eu336 Eu 0.31852 0.73794 0.74779 0.0
C337 C 0.25208 0.83635 0.80389 0.0
C338 C 0.18579 0.79556 0.81276 0.0
C339 C 0.22218 0.84279 0.86006 0.0
C340 C 0.21887 0.80683 0.79214 0.0
C341 C 0.25371 0.8559 0.83665 0.0
C342 C 0.18819 0.81252 0.84815 0.0
C343 C 0.31447 0.90311 0.8156 0.0
N344 N 0.28126 0.84856 0.77971 0.0
C345 C 0.31142 0.88258 0.78357 0.0
C346 C 0.28595 0.88919 0.84307 0.0
Eu347 Eu 0.27701 0.81021 0.72927 0.0
N348 N 0.21746 0.79246 0.75676 0.0
C349 C 0.1824 0.77022 0.73694 0.0
C350 C 0.15073 0.76951 0.79528 0.0
C351 C 0.14878 0.75769 0.75637 0.0
H352 H 0.334 0.89314 0.76306 0.0
H353 H 0.12139 0.73901 0.74123 0.0
H354 H 0.16331 0.80384 0.8649 0.0
H355 H 0.33903 0.92937 0.81942 0.0
H356 H 0.18002 0.76144 0.7064 0.0
H357 H 0.41638 0.72414 0.90461 0.0
H358 H 0.12461 0.76008 0.81005 0.0
H359 H 0.33471 0.7432 0.64507 0.0
H360 H 0.35305 0.71527 0.85774 0.0
H361 H 0.39034 0.76099 0.60653 0.0
H362 H 0.22306 0.85697 0.88589 0.0
H363 H 0.47645 0.7499 0.87081 0.0
H364 H 0.50757 0.77125 0.80238 0.0
H365 H 0.28833 0.90512 0.86783 0.0
H366 H 0.50062 0.78173 0.72133 0.0
N367 N 0.37663 0.73759 0.79712 0.0
C368 C 0.37874 0.72627 0.84211 0.0
C369 C 0.44861 0.74622 0.84981 0.0
C370 C 0.44601 0.7547 0.80375 0.0
C371 C 0.41476 0.73155 0.86902 0.0
C372 C 0.40915 0.75008 0.77786 0.0
H373 H 0.45708 0.77749 0.64818 0.0
N374 N 0.3694 0.75107 0.70804 0.0
C375 C 0.39507 0.76041 0.64179 0.0
C376 C 0.40539 0.75695 0.73208 0.0
C377 C 0.36352 0.75057 0.66386 0.0
C378 C 0.43269 0.76975 0.66539 0.0
C379 C 0.43817 0.76725 0.71124 0.0
O380 O 0.26736 0.68513 0.74506 0.0
O381 O 0.26901 0.74979 0.75909 0.0
O382 O 0.31795 0.81408 0.79584 0.0
O383 O 0.35656 0.78153 0.79212 0.0
O384 O 0.29487 0.72133 0.81277 0.0
O385 O 0.32247 0.68578 0.73896 0.0
O386 O 0.24171 0.81823 0.66434 0.0
O387 O 0.31961 0.79367 0.70669 0.0
O388 O 0.28795 0.74922 0.67801 0.0
O389 O 0.23853 0.75858 0.69587 0.0
O390 O 0.33952 0.84751 0.72181 0.0
O391 O 0.28597 0.86672 0.68911 0.0
C392 C 0.2665 0.73361 0.79906 0.0
C393 C 0.27955 0.62948 0.77506 0.0
C394 C 0.29854 0.59742 0.84819 0.0
C395 C 0.29963 0.63088 0.81796 0.0
C396 C 0.27288 0.56221 0.83634 0.0
C397 C 0.25424 0.59442 0.76333 0.0
C398 C 0.25036 0.5609 0.79433 0.0
C399 C 0.34984 0.80561 0.80928 0.0
C400 C 0.28632 0.66484 0.74276 0.0
C401 C 0.47508 0.7733 0.73684 0.0
C402 C 0.47901 0.7672 0.78299 0.0
C403 C 0.34879 0.82454 0.70791 0.0
C404 C 0.2776 0.86732 0.61239 0.0
C405 C 0.2514 0.86609 0.57301 0.0
C406 C 0.2648 0.88224 0.53191 0.0
C407 C 0.30492 0.89649 0.53039 0.0
C408 C 0.31777 0.88347 0.61038 0.0
C409 C 0.33123 0.89701 0.56956 0.0
C410 C 0.25062 0.74348 0.67178 0.0
C411 C 0.2623 0.85413 0.65488 0.0
H412 H 0.3179 0.65831 0.82686 0.0
H413 H 0.27143 0.5357 0.85855 0.0
H414 H 0.23794 0.59297 0.73031 0.0
H415 H 0.23102 0.53373 0.78521 0.0
H416 H 0.22057 0.85613 0.5748 0.0
H417 H 0.3159 0.91005 0.49927 0.0
H418 H 0.33881 0.88667 0.64016 0.0
H419 H 0.36218 0.90993 0.56831 0.0
Eu420 Eu 0.28207 0.25757 0.80363 0.0
C421 C 0.35934 0.37017 0.64721 0.0
C422 C 0.30447 0.37944 0.59535 0.0
C423 C 0.36742 0.43128 0.59869 0.0
C424 C 0.32015 0.35628 0.62994 0.0
C425 C 0.38365 0.4073 0.63048 0.0
C426 C 0.3279 0.41738 0.58119 0.0
C427 C 0.43911 0.39236 0.67262 0.0
N428 N 0.37446 0.34619 0.67723 0.0
C429 C 0.41387 0.35585 0.68814 0.0
C430 C 0.42387 0.41854 0.6445 0.0
Eu431 Eu 0.32974 0.28638 0.70528 0.0
N432 N 0.29844 0.31917 0.64378 0.0
C433 C 0.26253 0.30259 0.62042 0.0
C434 C 0.26639 0.36324 0.57436 0.0
C435 C 0.2458 0.32444 0.58608 0.0
H436 H 0.42581 0.33573 0.71003 0.0
H437 H 0.21683 0.31131 0.56891 0.0
H438 H 0.3163 0.43574 0.55526 0.0
H439 H 0.47026 0.4003 0.68249 0.0
H440 H 0.24555 0.27277 0.62837 0.0
H441 H 0.39831 0.2423 0.94077 0.0
H442 H 0.25317 0.38 0.54794 0.0
H443 H 0.18768 0.20096 0.80187 0.0
H444 H 0.36496 0.27746 0.88204 0.0
H445 H 0.14834 0.13344 0.82733 0.0
H446 H 0.38552 0.46007 0.58598 0.0
H447 H 0.369 0.17231 0.95917 0.0
H448 H 0.31075 0.11255 0.95041 0.0
H449 H 0.44348 0.44678 0.63234 0.0
H450 H 0.24198 0.08261 0.9198 0.0
N451 N 0.31662 0.2279 0.86498 0.0
C452 C 0.3512 0.24697 0.88894 0.0
C453 C 0.35376 0.1876 0.93337 0.0
C454 C 0.31671 0.16857 0.91196 0.0
C455 C 0.3704 0.22711 0.92297 0.0
C456 C 0.29833 0.18984 0.87799 0.0
H457 H 0.18079 0.09039 0.87484 0.0
N458 N 0.24167 0.19506 0.83181 0.0
C459 C 0.17967 0.14398 0.83652 0.0
C460 C 0.25964 0.17288 0.86072 0.0
C461 C 0.20193 0.18203 0.82199 0.0
C462 C 0.19812 0.11978 0.86321 0.0
C463 C 0.23841 0.1344 0.87681 0.0
O464 O 0.25002 0.25428 0.85482 0.0
O465 O 0.28631 0.29527 0.73606 0.0
O466 O 0.36135 0.33344 0.74635 0.0
O467 O 0.33986 0.30449 0.81465 0.0
O468 O 0.23121 0.26681 0.75459 0.0
O469 O 0.28227 0.30903 0.82032 0.0
O470 O 0.35811 0.28654 0.65222 0.0
O471 O 0.32593 0.24922 0.77316 0.0
O472 O 0.2481 0.21304 0.75979 0.0
O473 O 0.27086 0.24175 0.69217 0.0
O474 O 0.381 0.27914 0.75505 0.0
O475 O 0.32966 0.23349 0.69254 0.0
C476 C 0.25034 0.29105 0.724 0.0
C477 C 0.27273 0.30639 0.89274 0.0
C478 C 0.26572 0.34439 0.93938 0.0
C479 C 0.25504 0.32973 0.89965 0.0
C480 C 0.29458 0.33529 0.97184 0.0
C481 C 0.30126 0.29778 0.92579 0.0
C482 C 0.31216 0.31225 0.96498 0.0
C483 C 0.3625 0.33275 0.78877 0.0
C484 C 0.26074 0.29088 0.85125 0.0
C485 C 0.25761 0.11238 0.90769 0.0
C486 C 0.29676 0.12945 0.92517 0.0
C487 C 0.36213 0.25487 0.78572 0.0
C488 C 0.33362 0.23133 0.61945 0.0
C489 C 0.35265 0.21002 0.61041 0.0
C490 C 0.33867 0.19216 0.57273 0.0
C491 C 0.3055 0.19629 0.54431 0.0
C492 C 0.30072 0.23496 0.59037 0.0
C493 C 0.28683 0.21757 0.55308 0.0
C494 C 0.24678 0.2144 0.71727 0.0
C495 C 0.34845 0.24985 0.65899 0.0
H496 H 0.2331 0.33653 0.874 0.0
H497 H 0.30305 0.3453 1.00305 0.0
H498 H 0.31489 0.27966 0.92147 0.0
H499 H 0.3341 0.30528 0.99039 0.0
H500 H 0.37801 0.20704 0.63293 0.0
H501 H 0.29428 0.18354 0.51484 0.0
H502 H 0.28573 0.25117 0.59653 0.0
H503 H 0.26141 0.22061 0.53081 0.0
Eu504 Eu 0.83967 0.23821 0.7884 0.0
C505 C 0.75693 0.30973 0.62414 0.0
C506 C 0.80861 0.36267 0.59018 0.0
C507 C 0.75094 0.32749 0.54395 0.0
C508 C 0.79366 0.33786 0.62822 0.0
C509 C 0.73466 0.30512 0.58195 0.0
C510 C 0.78783 0.35631 0.54807 0.0
C511 C 0.6798 0.26098 0.61788 0.0
N512 N 0.74164 0.28917 0.66153 0.0
C513 C 0.70286 0.26675 0.65894 0.0
C514 C 0.69601 0.27957 0.57921 0.0
Eu515 Eu 0.78449 0.29828 0.72968 0.0
N516 N 0.81289 0.34358 0.6694 0.0
C517 C 0.84454 0.37611 0.67472 0.0
C518 C 0.84275 0.39451 0.59562 0.0
C519 C 0.86003 0.4019 0.63807 0.0
H520 H 0.68966 0.25242 0.68839 0.0
H521 H 0.88562 0.42721 0.64265 0.0
H522 H 0.79924 0.37464 0.51853 0.0
H523 H 0.64952 0.24223 0.6161 0.0
H524 H 0.85876 0.38204 0.70712 0.0
H525 H 0.83801 0.11984 0.72464 0.0
H526 H 0.85503 0.41438 0.5673 0.0
H527 H 0.81878 0.23821 0.88594 0.0
H528 H 0.85197 0.18726 0.72597 0.0
H529 H 0.78899 0.19177 0.94865 0.0
H530 H 0.73449 0.32393 0.51129 0.0
H531 H 0.80317 0.06901 0.78154 0.0
H532 H 0.77324 0.05075 0.85073 0.0
H533 H 0.678 0.27521 0.54745 0.0
H534 H 0.75954 0.07032 0.91133 0.0
N535 N 0.82378 0.17437 0.78183 0.0
C536 C 0.83638 0.16514 0.75062 0.0
C537 C 0.80903 0.09848 0.78212 0.0
C538 C 0.79832 0.10831 0.81554 0.0
C539 C 0.82866 0.12708 0.74989 0.0
C540 C 0.8069 0.14711 0.81501 0.0
H541 H 0.76562 0.12276 0.94831 0.0
N542 N 0.81116 0.19597 0.84968 0.0
C543 C 0.79181 0.18195 0.92096 0.0
C544 C 0.7999 0.15822 0.84958 0.0
C545 C 0.80869 0.2082 0.88533 0.0
C546 C 0.77855 0.14302 0.92058 0.0
C547 C 0.78318 0.13069 0.88504 0.0
O548 O 0.88254 0.23003 0.84619 0.0
O549 O 0.84149 0.29177 0.7403 0.0
O550 O 0.76662 0.2479 0.69286 0.0
O551 O 0.78987 0.20381 0.74346 0.0
O552 O 0.86188 0.25752 0.72183 0.0
O553 O 0.89977 0.2502 0.78171 0.0
O554 O 0.7627 0.34489 0.71257 0.0
O555 O 0.78962 0.2542 0.78978 0.0
O556 O 0.85285 0.28529 0.82694 0.0
O557 O 0.84151 0.3317 0.76967 0.0
O558 O 0.73434 0.24698 0.75426 0.0
O559 O 0.76297 0.31348 0.77849 0.0
C560 C 0.85769 0.28996 0.7108 0.0
C561 C 0.91863 0.20017 0.8266 0.0
C562 C 0.93387 0.15918 0.79169 0.0
C563 C 0.93035 0.19401 0.79081 0.0
C564 C 0.92666 0.13084 0.82954 0.0
C565 C 0.91232 0.1715 0.86433 0.0
C566 C 0.91638 0.13719 0.86569 0.0
C567 C 0.76829 0.21327 0.70661 0.0
C568 C 0.90767 0.23368 0.82195 0.0
C569 C 0.77268 0.09188 0.88454 0.0
C570 C 0.78044 0.08073 0.85 0.0
C571 C 0.75389 0.23237 0.78757 0.0
C572 C 0.77318 0.37874 0.76948 0.0
C573 C 0.74981 0.38925 0.78837 0.0
C574 C 0.76456 0.42463 0.803 0.0
C575 C 0.80348 0.44862 0.79941 0.0
C576 C 0.81163 0.4035 0.76594 0.0
C577 C 0.82679 0.43796 0.78121 0.0
C578 C 0.85702 0.32125 0.81071 0.0
C579 C 0.75702 0.34264 0.75222 0.0
H580 H 0.93486 0.21559 0.76124 0.0
H581 H 0.92952 0.10396 0.83144 0.0
H582 H 0.90305 0.17506 0.89229 0.0
H583 H 0.91097 0.11516 0.89473 0.0
H584 H 0.72013 0.36996 0.79129 0.0
H585 H 0.8157 0.47619 0.80943 0.0
H586 H 0.82975 0.39642 0.75081 0.0
H587 H 0.85655 0.45684 0.77814 0.0
Eu588 Eu 0.78971 0.74696 0.72137 0.0
C589 C 0.90196 0.79523 0.87509 0.0
C590 C 0.88027 0.73683 0.92774 0.0
C591 C 0.94936 0.77421 0.93004 0.0
C592 C 0.87209 0.76366 0.89148 0.0
C593 C 0.94091 0.80159 0.89526 0.0
C594 C 0.91907 0.74176 0.9461 0.0
C595 C 0.95986 0.86337 0.84856 0.0
N596 N 0.89277 0.82094 0.84128 0.0
C597 C 0.92086 0.85576 0.82974 0.0
C598 C 0.97007 0.83582 0.88082 0.0
Eu599 Eu 0.8261 0.80389 0.80743 0.0
N600 N 0.83493 0.7596 0.87278 0.0
C601 C 0.80467 0.73167 0.89224 0.0
C602 C 0.84916 0.70602 0.94459 0.0
C603 C 0.81121 0.70408 0.92766 0.0
H604 H 0.91339 0.8778 0.80552 0.0
H605 H 0.78693 0.68129 0.94181 0.0
H606 H 0.92593 0.72112 0.97332 0.0
H607 H 0.98198 0.89058 0.83831 0.0
H608 H 0.77531 0.73024 0.88106 0.0
H609 H 0.82599 0.86191 0.57739 0.0
H610 H 0.85406 0.68412 0.97121 0.0
H611 H 0.70222 0.67352 0.7277 0.0
H612 H 0.83923 0.81731 0.64214 0.0
H613 H 0.63326 0.66081 0.69732 0.0
H614 H 0.97912 0.77828 0.94539 0.0
H615 H 0.75853 0.85807 0.5481 0.0
H616 H 0.68732 0.82385 0.55173 0.0
H617 H 1.00029 0.84181 0.89548 0.0
H618 H 0.63474 0.76915 0.58437 0.0
N619 N 0.78006 0.78926 0.65388 0.0
C620 C 0.80964 0.81552 0.63179 0.0
C621 C 0.76412 0.8383 0.57726 0.0
C622 C 0.73363 0.80949 0.59752 0.0
C623 C 0.80222 0.84072 0.59389 0.0
C624 C 0.74256 0.78468 0.63585 0.0
H625 H 0.6143 0.70805 0.63824 0.0
N626 N 0.72255 0.72946 0.68949 0.0
C627 C 0.65527 0.6875 0.68544 0.0
C628 C 0.71296 0.75417 0.65457 0.0
C629 C 0.6945 0.6952 0.70304 0.0
C630 C 0.64471 0.71418 0.6521 0.0
C631 C 0.67371 0.74749 0.63534 0.0
O632 O 0.76951 0.69777 0.68842 0.0
O633 O 0.83235 0.75566 0.78516 0.0
O634 O 0.869 0.833 0.75908 0.0
O635 O 0.85143 0.78822 0.71382 0.0
O636 O 0.79339 0.70053 0.77925 0.0
O637 O 0.83025 0.73354 0.69548 0.0
O638 O 0.84291 0.8577 0.82996 0.0
O639 O 0.78411 0.79534 0.74318 0.0
O640 O 0.74843 0.71773 0.77228 0.0
O641 O 0.7625 0.76674 0.80983 0.0
O642 O 0.8215 0.85058 0.74986 0.0
O643 O 0.79065 0.81116 0.84764 0.0
C644 C 0.82357 0.72055 0.80345 0.0
C645 C 0.80622 0.70135 0.63499 0.0
C646 C 0.83588 0.68235 0.58847 0.0
C647 C 0.83212 0.68547 0.63046 0.0
C648 C 0.81314 0.69531 0.55097 0.0
C649 C 0.78417 0.71462 0.59716 0.0
C650 C 0.78772 0.71154 0.55539 0.0
C651 C 0.87507 0.8202 0.7278 0.0
C652 C 0.80366 0.70448 0.67948 0.0
C653 C 0.66471 0.77343 0.599 0.0
C654 C 0.69464 0.80444 0.58021 0.0
C655 C 0.79275 0.83028 0.72455 0.0
C656 C 0.82079 0.8573 0.89439 0.0
C657 C 0.79535 0.87166 0.90341 0.0
C658 C 0.80239 0.88488 0.94325 0.0
C659 C 0.8352 0.88318 0.97425 0.0
C660 C 0.85315 0.85543 0.92586 0.0
C661 C 0.86027 0.86839 0.9656 0.0
C662 C 0.74014 0.73302 0.79953 0.0
C663 C 0.81351 0.84598 0.85117 0.0
H664 H 0.84932 0.67544 0.65975 0.0
H665 H 0.81573 0.69379 0.5182 0.0
H666 H 0.76446 0.72745 0.5999 0.0
H667 H 0.77105 0.72215 0.52625 0.0
H668 H 0.77049 0.87333 0.87889 0.0
H669 H 0.84116 0.89285 0.00536 0.0
H670 H 0.87298 0.84429 0.91957 0.0
H671 H 0.88529 0.86695 0.98981 0.0
Co672 Co 0.06778 0.99163 0.45233 0.0
Co673 Co 0.0929 0.99418 0.53369 0.0
Co674 Co 1.03758 0.043 0.49721 0.0
O675 O 0.0795 0.02869 0.48813 0.0
H676 H 0.10251 0.05075 0.48158 0.0
O677 O 0.99605 0.05747 0.50725 0.0
Co678 Co 1.00688 0.09132 0.54784 0.0
Co679 Co 0.98806 0.09732 0.46683 0.0
H680 H 0.97187 0.03595 0.51015 0.0
O681 O 0.14403 1.00012 0.54421 0.0
O682 O 0.0944 0.96325 0.50022 0.0
O683 O 0.05828 0.96706 0.57672 0.0
O684 O 1.02024 1.00115 0.54928 0.0
O685 O 0.07724 0.07549 0.53801 0.0
O686 O 1.01399 0.1202 0.586 0.0
O687 O 0.96339 0.06603 0.57531 0.0
O688 O 0.05449 0.12164 0.52665 0.0
O689 O 0.05523 0.08505 0.44536 0.0
O690 O 1.02668 0.12777 0.42913 0.0
O691 O 0.97914 0.12137 0.50319 0.0
O692 O 0.93771 0.08951 0.44884 0.0
C693 C 0.09323 0.98439 0.40605 0.0
C694 C 0.99296 0.97521 0.45942 0.0
C695 C 1.02886 0.97459 0.5772 0.0
C696 C 0.13137 0.97733 0.51561 0.0
C697 C 0.98114 0.09477 0.59652 0.0
C698 C 0.08244 0.10955 0.53893 0.0
C699 C 1.05173 0.1162 0.42344 0.0
C700 C 0.94401 0.10641 0.48206 0.0
O701 O 0.05995 0.9597 0.41671 0.0
O702 O 0.11116 1.01417 0.42536 0.0
O703 O 0.99787 1.00998 0.45593 0.0
O704 O 1.02094 0.96369 0.47543 0.0
Co705 Co 0.59023 0.95428 0.99699 0.0
Co706 Co 0.5974 0.97085 0.07245 0.0
Co707 Co 0.54942 1.02053 0.99851 0.0
O708 O 0.59216 0.99857 0.01624 0.0
H709 H 0.61702 1.01889 0.01257 0.0
O710 O 0.50665 0.04235 0.97932 0.0
Co711 Co 0.50143 0.07923 0.00588 0.0
Co712 Co 0.51082 0.08071 0.9308 0.0
H713 H 0.48168 1.02206 0.9747 0.0
O714 O 0.64468 0.9655 0.10257 0.0
O715 O 0.59737 0.92641 0.06 0.0
O716 O 0.55491 0.95993 0.10259 0.0
O717 O 0.51824 0.98645 0.04887 0.0
O718 O 0.58224 0.05994 0.03715 0.0
O719 O 0.49212 0.10967 0.03111 0.0
O720 O 0.44886 0.0587 1.00201 0.0
O721 O 0.55652 0.10526 0.01485 0.0
O722 O 0.58102 0.05429 0.94869 0.0
O723 O 0.56149 0.10268 0.91306 0.0
O724 O 0.49597 0.11487 0.947 0.0
O725 O 0.466 0.0815 0.89153 0.0
C726 C 0.63032 0.93765 0.98201 0.0
C727 C 0.51018 0.9458 0.96794 0.0
C728 C 0.5236 0.96635 0.08729 0.0
C729 C 0.62994 0.93351 0.088 0.0
C730 C 0.45621 0.08743 0.02108 0.0
C731 C 0.58443 0.09407 0.03469 0.0
C732 C 0.5859 0.08626 0.92202 0.0
C733 C 0.4687 0.10733 0.91255 0.0
O734 O 0.59342 0.9166 0.97807 0.0
O735 O 0.64216 0.9699 0.99596 0.0
O736 O 0.51667 0.98146 0.95994 0.0
O737 O 0.53473 0.93217 0.99331 0.0
Co738 Co 0.09212 0.4576 0.00514 0.0
Co739 Co 0.10067 0.47448 0.07984 0.0
Co740 Co 0.05417 0.52452 0.00708 0.0
O741 O 0.09791 0.50355 0.02387 0.0
H742 H 0.12294 0.52345 0.0198 0.0
O743 O 1.01133 0.54676 0.98942 0.0
Co744 Co 1.0165 0.59175 0.01074 0.0
Co745 Co 1.00961 0.57812 0.93363 0.0
H746 H 0.98605 0.52692 0.99229 0.0
O747 O 0.14856 0.47465 0.11025 0.0
O748 O 0.10574 0.43205 0.06815 0.0
O749 O 0.05589 0.45885 0.10835 0.0
O750 O 1.02045 0.48528 0.05309 0.0
O751 O 0.08283 0.55936 0.05084 0.0
O752 O 1.01718 0.63 0.03185 0.0
O753 O 0.96533 0.57871 0.01405 0.0
O754 O 0.07174 0.61099 0.0123 0.0
O755 O 0.08794 0.56403 0.96176 0.0
O756 O 0.05606 0.59463 0.90683 0.0
O757 O 1.00814 0.62122 0.9486 0.0
O758 O 0.96263 0.58399 0.90293 0.0
C759 C 0.12621 0.43681 0.98429 0.0
C760 C 1.01671 0.45202 0.97692 0.0
C761 C 1.02398 0.46333 0.09064 0.0
C762 C 0.13884 0.44362 0.09486 0.0
C763 C 0.97987 0.61096 0.02865 0.0
C764 C 0.09205 0.59542 0.04285 0.0
C765 C 0.08686 0.58814 0.92555 0.0
C766 C 0.97566 0.61439 0.9204 0.0
O767 O 0.08938 0.41771 0.98589 0.0
O768 O 0.14243 0.47011 0.99669 0.0
O769 O 1.02517 0.48803 0.96449 0.0
O770 O 1.03826 0.43905 0.00881 0.0
Co771 Co 0.6068 0.48806 0.95729 0.0
Co772 Co 0.59454 0.45135 0.03306 0.0
Co773 Co 0.55836 0.51331 0.0185 0.0
O774 O 0.60258 0.50124 0.01075 0.0
H775 H 0.62758 0.51748 0.02375 0.0
O776 O 0.51518 0.5274 0.02644 0.0
Co777 Co 0.5112 0.55024 0.07332 0.0
Co778 Co 0.52976 0.57746 1.00091 0.0
H779 H 0.48996 0.51265 0.01219 0.0
O780 O 0.63673 0.44373 0.0665 0.0
O781 O 0.61474 0.44109 0.99346 0.0
O782 O 0.54541 0.42182 0.05277 0.0
O783 O 0.54507 0.4725 0.07289 0.0
O784 O 0.59866 0.55014 0.05503 0.0
O785 O 0.50468 0.56935 0.11486 0.0
O786 O 0.45787 0.53389 0.06819 0.0
O787 O 0.56517 0.5705 0.0859 0.0
O788 O 0.57104 0.55175 0.9626 0.0
O789 O 0.57985 0.60571 0.98098 0.0
O790 O 0.51071 0.5981 0.03057 0.0
O791 O 0.49163 0.58449 0.96055 0.0
C792 C 0.64974 0.49576 0.9226 0.0
C793 C 0.52108 0.45847 0.95579 0.0
C794 C 0.53202 0.43632 0.07409 0.0
C795 C 0.64202 0.4419 0.028 0.0
C796 C 0.46812 0.55423 0.09943 0.0
C797 C 0.59683 0.57029 0.07972 0.0
C798 C 0.58748 0.58789 0.95817 0.0
C799 C 0.48865 0.59885 0.99186 0.0
O800 O 0.61331 0.47722 0.90982 0.0
O801 O 0.65942 0.51195 0.95741 0.0
O802 O 0.51794 0.47668 0.98187 0.0
O803 O 0.55366 0.46202 0.94803 0.0
Co804 Co 0.12949 0.48736 0.54798 0.0
Co805 Co 0.10372 0.49426 0.46356 0.0
Co806 Co 0.05422 0.52441 0.50418 0.0
O807 O 0.07909 0.48545 0.5113 0.0
H808 H 0.06005 0.45979 0.51447 0.0
O809 O 1.0301 0.56338 0.49858 0.0
Co810 Co 0.98278 0.56731 0.46069 0.0
Co811 Co 1.00368 0.5535 0.54562 0.0
H812 H 1.05016 0.58847 0.49803 0.0
O813 O 0.11063 0.4561 0.44719 0.0
O814 O 0.15218 0.49539 0.49409 0.0
O815 O 0.11042 0.54083 0.42184 0.0
O816 O 0.0906 0.56634 0.46288 0.0
O817 O 1.01488 0.50134 0.45344 0.0
O818 O 0.94075 0.57624 0.4251 0.0
O819 O 0.9953 0.61872 0.45501 0.0
O820 O 0.96363 0.5138 0.45949 0.0
O821 O 1.01823 0.48235 0.54484 0.0
O822 O 0.9917 0.50412 0.58285 0.0
O823 O 0.95775 0.5581 0.51374 0.0
O824 O 0.99979 0.59235 0.56486 0.0
C825 C 0.15775 0.44833 0.58241 0.0
C826 C 0.1296 0.55916 0.55658 0.0
C827 C 0.10799 0.56946 0.43103 0.0
C828 C 0.1449 0.47 0.46993 0.0
C829 C 0.961 0.61135 0.43043 0.0
C830 C 0.97787 0.49321 0.44832 0.0
C831 C 0.99748 0.47703 0.57418 0.0
C832 C 0.96635 0.58289 0.53933 0.0
O833 O 0.17401 0.48479 0.58231 0.0
O834 O 0.12261 0.43556 0.55997 0.0
O835 O 0.09263 0.5475 0.55489 0.0
O836 O 0.14489 0.54097 0.54303 0.0
Co837 Co 0.6259 0.98336 0.54951 0.0
Co838 Co 0.60385 0.99425 0.46449 0.0
Co839 Co 0.5538 0.02636 0.50206 0.0
O840 O 0.5773 0.9861 0.51094 0.0
H841 H 0.55714 0.96102 0.5126 0.0
O842 O 0.53 0.06666 0.49223 0.0
Co843 Co 0.47641 0.06096 0.46317 0.0
Co844 Co 0.51214 0.0628 0.54302 0.0
H845 H 0.54836 0.09215 0.48437 0.0
O846 O 0.60133 0.95276 0.4462 0.0
O847 O 0.64765 0.98553 0.49644 0.0
O848 O 0.61984 0.04341 0.42719 0.0
O849 O 0.58942 0.06642 0.45854 0.0
O850 O 0.51288 1.00186 0.45461 0.0
O851 O 0.42899 0.05849 0.436 0.0
O852 O 0.48108 0.11205 0.4426 0.0
O853 O 0.46324 1.00661 0.47629 0.0
O854 O 0.5192 0.98718 0.54685 0.0
O855 O 0.5098 1.01946 0.58918 0.0
O856 O 0.46308 0.06453 0.52024 0.0
O857 O 0.51539 0.10588 0.55684 0.0
C858 C 0.6491 0.9405 0.58443 0.0
C859 C 0.63071 0.05953 0.5534 0.0
C860 C 0.6123 0.07091 0.43175 0.0
C861 C 0.63403 0.95821 0.47307 0.0
C862 C 0.44385 0.09544 0.42843 0.0
C863 C 0.47631 0.99092 0.4556 0.0
C864 C 0.50837 0.98848 0.58172 0.0
C865 C 0.47896 0.0951 0.53892 0.0
O866 O 0.66884 0.97658 0.58478 0.0
O867 O 0.61359 0.93068 0.56239 0.0
O868 O 0.59394 0.0507 0.54975 0.0
O869 O 0.64576 0.03834 0.54476 0.0
H870 H 0.18391 0.24212 0.31982 0.0
H871 H 0.19231 0.14304 0.29305 0.0
H872 H 0.13729 0.10162 0.33266 0.0
H873 H 0.08934 0.09392 0.37851 0.0
H874 H 0.07857 0.19354 0.40123 0.0
H875 H 0.13159 0.23458 0.35909 0.0
C876 C 0.17327 0.21144 0.32241 0.0
C877 C 0.19186 0.19535 0.30398 0.0
C878 C 0.14131 0.18807 0.34442 0.0
C879 C 0.17807 0.15577 0.30697 0.0
C880 C 0.1468 0.13221 0.3297 0.0
C881 C 0.09834 0.12463 0.37378 0.0
C882 C 0.08022 0.14069 0.39317 0.0
C883 C 0.12853 0.14805 0.34906 0.0
C884 C 0.0919 0.18049 0.38646 0.0
C885 C 0.12239 0.20397 0.36262 0.0
H886 H 0.77424 0.07556 0.45337 0.0
H887 H 0.81771 0.19803 0.42864 0.0
H888 H 0.88097 0.19998 0.47065 0.0
H889 H 0.92756 0.16686 0.48697 0.0
H890 H 0.88346 0.04441 0.50707 0.0
H891 H 0.81693 0.04211 0.49603 0.0
C892 C 0.79673 0.1026 0.45956 0.0
C893 C 0.79254 0.13658 0.43565 0.0
C894 C 0.83352 0.10339 0.48188 0.0
C895 C 0.82115 0.17143 0.44538 0.0
C896 C 0.85758 0.17257 0.46881 0.0
C897 C 0.90345 0.13979 0.49131 0.0
C898 C 0.90975 0.10593 0.49625 0.0
C899 C 0.86505 0.13879 0.48304 0.0
C900 C 0.87871 0.07082 0.50224 0.0
C901 C 0.84069 0.0695 0.49568 0.0
H902 H 0.86376 0.83666 0.38514 0.0
H903 H 0.88889 0.91212 0.26091 0.0
H904 H 0.93271 0.96371 0.30094 0.0
H905 H 0.96748 0.98538 0.37187 0.0
H906 H 0.94388 0.90752 0.49456 0.0
H907 H 0.8945 0.85869 0.45427 0.0
C908 C 0.87848 0.86436 0.36645 0.0
C909 C 0.87352 0.87031 0.32001 0.0
C910 C 0.90342 0.89348 0.3895 0.0
C911 C 0.89276 0.90659 0.29669 0.0
C912 C 0.91759 0.93612 0.31955 0.0
C913 C 0.95058 0.95802 0.38952 0.0
C914 C 0.95839 0.94981 0.43584 0.0
C915 C 0.92355 0.92967 0.366 0.0
C916 C 0.93757 0.91419 0.45884 0.0
C917 C 0.90976 0.88634 0.43585 0.0
H918 H 0.13598 0.92916 0.2605 0.0
H919 H 0.24997 0.96749 0.33745 0.0
H920 H 0.22497 0.98991 0.38587 0.0
H921 H 0.16997 0.99832 0.40611 0.0
H922 H 0.05488 0.95278 0.33361 0.0
H923 H 0.08095 0.93448 0.28286 0.0
C924 C 0.15525 0.94239 0.28796 0.0
C925 C 0.1947 0.9469 0.2954 0.0
C926 C 0.14048 0.95431 0.31606 0.0
C927 C 0.21943 0.96366 0.33129 0.0
C928 C 0.20517 0.97662 0.35876 0.0
C929 C 0.15074 0.98445 0.37919 0.0
C930 C 0.11057 0.97696 0.37359 0.0
C931 C 0.1657 0.97217 0.35141 0.0
C932 C 0.0859 0.95887 0.33857 0.0
C933 C 0.10075 0.94825 0.30965 0.0
H934 H 0.27689 0.95422 0.49398 0.0
H935 H 0.19286 0.84047 0.49098 0.0
H936 H 0.13971 0.86428 0.47433 0.0
H937 H 0.11928 0.91284 0.48727 0.0
H938 H 0.20594 1.02283 0.50713 0.0
H939 H 0.25591 1.00545 0.49181 0.0
C940 C 0.24695 0.93493 0.48734 0.0
C941 C 0.2385 0.89561 0.49553 0.0
C942 C 0.21703 0.94809 0.48364 0.0
C943 C 0.19983 0.87089 0.48571 0.0
C944 C 0.1695 0.8844 0.47739 0.0
C945 C 0.149 0.9331 0.48738 0.0
C946 C 0.15947 0.96841 0.49985 0.0
C947 C 0.17794 0.92218 0.48079 0.0
C948 C 0.19773 0.99491 0.49919 0.0
C949 C 0.22617 0.98515 0.48998 0.0
H950 H 0.24522 0.1836 0.64963 0.0
H951 H 0.17161 0.19054 0.72965 0.0
H952 H 0.11388 0.16011 0.67961 0.0
H953 H 0.08497 0.13534 0.61082 0.0
H954 H 0.15741 0.12678 0.53073 0.0
H955 H 0.21563 0.15518 0.58249 0.0
C956 C 0.21643 0.17778 0.65634 0.0
C957 C 0.21244 0.18866 0.69348 0.0
C958 C 0.18357 0.16128 0.62674 0.0
C959 C 0.17525 0.18121 0.70213 0.0
C960 C 0.14231 0.16459 0.67298 0.0
C961 C 0.11352 0.14047 0.60426 0.0
C962 C 0.11738 0.13039 0.5666 0.0
C963 C 0.14627 0.1554 0.63471 0.0
C964 C 0.15427 0.1354 0.55922 0.0
C965 C 0.18732 0.15124 0.58887 0.0
H966 H 0.90257 0.09549 0.75285 0.0
H967 H 0.99124 0.20833 0.74424 0.0
H968 H 1.01205 0.19839 0.68256 0.0
H969 H 1.00676 0.15774 0.63282 0.0
H970 H 0.91903 0.04455 0.6394 0.0
H971 H 0.89607 0.05456 0.70021 0.0
C972 C 0.92655 0.1178 0.73753 0.0
C973 C 0.94539 0.15266 0.75331 0.0
C974 C 0.93851 0.11185 0.70182 0.0
C975 C 0.97599 0.18146 0.73261 0.0
C976 C 0.98805 0.17572 0.69744 0.0
C977 C 0.98255 0.13506 0.64736 0.0
C978 C 0.96486 0.10024 0.63169 0.0
C979 C 0.96971 0.14103 0.68202 0.0
C980 C 0.93323 0.07157 0.65081 0.0
C981 C 0.9202 0.07729 0.68565 0.0
H982 H 0.90402 0.897 0.70702 0.0
H983 H 0.91988 0.79683 0.69459 0.0
H984 H 0.97159 0.83628 0.64981 0.0
H985 H 1.00951 0.89903 0.61038 0.0
H986 H 0.98858 0.99819 0.61679 0.0
H987 H 0.94182 0.95959 0.66774 0.0
C988 C 0.91932 0.88396 0.69509 0.0
C989 C 0.90861 0.84421 0.7044 0.0
C990 C 0.94789 0.90666 0.668 0.0
C991 C 0.92786 0.82745 0.68791 0.0
C992 C 0.95732 0.84997 0.66227 0.0
C993 C 0.99504 0.91217 0.62345 0.0
C994 C 1.00261 0.95137 0.61016 0.0
C995 C 0.96721 0.88956 0.65156 0.0
C996 C 0.98316 0.96802 0.62658 0.0
C997 C 0.95646 0.94599 0.65571 0.0
H998 H 0.30548 0.10846 0.04508 0.0
H999 H 0.39174 0.21781 0.06833 0.0
H1000 H 0.44272 0.19967 0.05704 0.0
H1001 H 0.46304 0.15306 0.0416 0.0
H1002 H 0.37793 0.04389 0.01609 0.0
H1003 H 0.32616 0.06161 0.0273 0.0
C1004 C 0.33542 0.12832 0.04736 0.0
C1005 C 0.34491 0.16429 0.05799 0.0
C1006 C 0.36476 0.11763 0.0409 0.0
C1007 C 0.38381 0.18976 0.06089 0.0
C1008 C 0.41296 0.17944 0.05438 0.0
C1009 C 0.43323 0.13291 0.03876 0.0
C1010 C 0.42444 0.09703 0.02849 0.0
C1011 C 0.40382 0.14339 0.04479 0.0
C1012 C 0.38551 0.07163 0.02421 0.0
C1013 C 0.35593 0.08176 0.0306 0.0
H1014 H 0.89815 0.35428 0.21494 0.0
H1015 H 0.82445 0.34211 0.08905 0.0
H1016 H 0.87916 0.38642 0.05076 0.0
H1017 H 0.94816 0.4301 0.05303 0.0
H1018 H 1.02222 0.44044 0.17914 0.0
H1019 H 0.96758 0.39588 0.21711 0.0
C1020 C 0.8943 0.36076 0.17911 0.0
C1021 C 0.85725 0.34471 0.1548 0.0
C1022 C 0.92599 0.38651 0.15728 0.0
C1023 C 0.85267 0.35405 0.10842 0.0
C1024 C 0.88395 0.37949 0.08653 0.0
C1025 C 0.95217 0.42301 0.08884 0.0
C1026 C 0.98924 0.43921 0.11315 0.0
C1027 C 0.92069 0.39642 0.11059 0.0
C1028 C 0.99402 0.42879 0.15955 0.0
C1029 C 0.96279 0.40307 0.18135 0.0
H1030 H 0.67597 0.78867 0.17814 0.0
H1031 H 0.78664 0.87559 0.21267 0.0
H1032 H 0.76127 0.925 0.17037 0.0
H1033 H 0.70551 0.94371 0.12832 0.0
H1034 H 0.59598 0.85632 0.0907 0.0
H1035 H 0.62289 0.80733 0.12881 0.0
C1036 C 0.69473 0.81846 0.17585 0.0
C1037 C 0.73334 0.82824 0.19859 0.0
C1038 C 0.67989 0.84679 0.15111 0.0
C1039 C 0.75709 0.86705 0.19527 0.0
C1040 C 0.7424 0.89538 0.17125 0.0
C1041 C 0.68756 0.91396 0.1281 0.0
C1042 C 0.6483 0.90397 0.10697 0.0
C1043 C 0.70354 0.88567 0.14976 0.0
C1044 C 0.62601 0.86514 0.10664 0.0
C1045 C 0.64143 0.83697 0.12866 0.0
H1046 H 0.22076 0.67009 0.19451 0.0
H1047 H 0.22466 0.77282 0.10058 0.0
H1048 H 0.17526 0.73523 0.04821 0.0
H1049 H 0.12911 0.67295 0.02985 0.0
H1050 H 0.12817 0.57044 0.12282 0.0
H1051 H 0.17849 0.60817 0.17423 0.0
C1052 C 0.21109 0.68439 0.1625 0.0
C1053 C 0.22579 0.72443 0.15217 0.0
C1054 C 0.1831 0.66254 0.13216 0.0
C1055 C 0.21312 0.74217 0.11014 0.0
C1056 C 0.18497 0.72063 0.07994 0.0
C1057 C 0.14001 0.65887 0.06129 0.0
C1058 C 0.12451 0.61886 0.07246 0.0
C1059 C 0.16935 0.68078 0.0908 0.0
C1060 C 0.1394 0.60113 0.1132 0.0
C1061 C 0.16819 0.6227 0.14279 0.0
H1062 H 0.34876 0.85122 0.86327 0.0
H1063 H 0.4251 0.81042 0.82626 0.0
H1064 H 0.47934 0.84582 0.87556 0.0
H1065 H 0.50714 0.89207 0.92585 0.0
H1066 H 0.43496 0.94266 0.95344 0.0
H1067 H 0.37783 0.90139 0.91035 0.0
C1068 C 0.37729 0.85046 0.8655 0.0
C1069 C 0.38214 0.82716 0.84134 0.0
C1070 C 0.40952 0.8733 0.89207 0.0
C1071 C 0.41959 0.82643 0.84553 0.0
C1072 C 0.45108 0.84737 0.87332 0.0
C1073 C 0.4788 0.89379 0.92275 0.0
C1074 C 0.47518 0.92004 0.94324 0.0
C1075 C 0.44656 0.87119 0.89645 0.0
C1076 C 0.43845 0.92257 0.93809 0.0
C1077 C 0.4058 0.89895 0.91346 0.0
H1078 H 0.18871 0.33454 0.91915 0.0
H1079 H 0.29879 0.40743 0.97965 0.0
H1080 H 0.26631 0.44344 0.99795 0.0
H1081 H 0.20565 0.45324 0.99869 0.0
H1082 H 0.09631 0.37955 0.93735 0.0
H1083 H 0.12946 0.34569 0.91711 0.0
C1084 C 0.20579 0.3587 0.93563 0.0
C1085 C 0.24622 0.36806 0.94791 0.0
C1086 C 0.18695 0.37938 0.94606 0.0
C1087 C 0.26757 0.39914 0.97013 0.0
C1088 C 0.24901 0.41994 0.9805 0.0
C1089 C 0.18923 0.43011 0.9804 0.0
C1090 C 0.14845 0.41912 0.96964 0.0
C1091 C 0.20857 0.41019 0.96892 0.0
C1092 C 0.12765 0.38869 0.94637 0.0
C1093 C 0.14659 0.36917 0.93466 0.0
H1094 H 0.71534 0.15571 0.79762 0.0
H1095 H 0.74347 0.2531 0.85739 0.0
H1096 H 0.69489 0.21552 0.90662 0.0
H1097 H 0.63891 0.15717 0.92618 0.0
H1098 H 0.61237 0.05834 0.86985 0.0
H1099 H 0.66601 0.09377 0.82623 0.0
C1100 C 0.71165 0.16817 0.82254 0.0
C1101 C 0.73342 0.20688 0.8246 0.0
C1102 C 0.68351 0.14626 0.85077 0.0
C1103 C 0.72769 0.22314 0.85604 0.0
C1104 C 0.69962 0.20175 0.88383 0.0
C1105 C 0.6453 0.14331 0.90478 0.0
C1106 C 0.62146 0.10546 0.90059 0.0
C1107 C 0.6765 0.16367 0.88049 0.0
C1108 C 0.63027 0.08752 0.87336 0.0
C1109 C 0.66083 0.10783 0.84836 0.0
H1110 H 0.90596 0.74376 0.82184 0.0
H1111 H 0.7997 0.65081 0.85232 0.0
H1112 H 0.83635 0.61068 0.89203 0.0
H1113 H 0.89793 0.59919 0.91357 0.0
H1114 H 1.00573 0.69204 0.89054 0.0
H1115 H 0.96983 0.73455 0.85394 0.0
C1116 C 0.89094 0.71508 0.83809 0.0
C1117 C 0.84963 0.70071 0.83389 0.0
C1118 C 0.91264 0.69169 0.86218 0.0
C1119 C 0.83115 0.66299 0.85475 0.0
C1120 C 0.85218 0.63978 0.87759 0.0
C1121 C 0.9137 0.62889 0.90111 0.0
C1122 C 0.95466 0.64208 0.90466 0.0
C1123 C 0.89283 0.65339 0.88079 0.0
C1124 C 0.97435 0.68088 0.88856 0.0
C1125 C 0.95367 0.70523 0.86723 0.0
H1126 H 0.28284 0.39216 0.17397 0.0
H1127 H 0.1928 0.2819 0.19966 0.0
H1128 H 0.1431 0.30849 0.15918 0.0
H1129 H 0.12471 0.36551 0.12187 0.0
H1130 H 0.2167 0.47541 0.10018 0.0
H1131 H 0.26545 0.44681 0.13271 0.0
C1132 C 0.25235 0.37376 0.17023 0.0
C1133 C 0.24184 0.33489 0.18958 0.0
C1134 C 0.22393 0.38947 0.14755 0.0
C1135 C 0.20202 0.31172 0.18464 0.0
C1136 C 0.17348 0.3271 0.16165 0.0
C1137 C 0.15542 0.38299 0.12349 0.0
C1138 C 0.16679 0.42287 0.1085 0.0
C1139 C 0.18393 0.36623 0.14359 0.0
C1140 C 0.20688 0.44489 0.11152 0.0
C1141 C 0.23495 0.42851 0.13031 0.0
H1142 H 0.25485 0.70406 0.88458 0.0
H1143 H 0.19459 0.70393 0.7511 0.0
H1144 H 0.13379 0.66072 0.77784 0.0
H1145 H 0.09748 0.62098 0.83959 0.0
H1146 H 0.15993 0.61313 0.97235 0.0
H1147 H 0.2198 0.66006 0.9458 0.0
C1148 C 0.22816 0.69515 0.86148 0.0
C1149 C 0.22877 0.70988 0.81593 0.0
C1150 C 0.1937 0.66784 0.8771 0.0
C1151 C 0.19446 0.69593 0.78638 0.0
C1152 C 0.15976 0.67025 0.8017 0.0
C1153 C 0.12426 0.62931 0.86267 0.0
C1154 C 0.12403 0.61331 0.90798 0.0
C1155 C 0.15896 0.65589 0.84702 0.0
C1156 C 0.15919 0.62444 0.93728 0.0
C1157 C 0.19346 0.65164 0.92214 0.0
H1158 H 0.33908 0.1758 0.80714 0.0
H1159 H 0.43128 0.27984 0.83723 0.0
H1160 H 0.47102 0.2441 0.88302 0.0
H1161 H 0.48274 0.18347 0.90967 0.0
H1162 H 0.39309 0.08004 0.87383 0.0
H1163 H 0.34981 0.11455 0.83661 0.0
C1164 C 0.36744 0.19049 0.82466 0.0
C1165 C 0.38156 0.23061 0.81954 0.0
C1166 C 0.39115 0.16964 0.8499 0.0
C1167 C 0.41923 0.24905 0.84114 0.0
C1168 C 0.44218 0.22857 0.86728 0.0
C1169 C 0.45354 0.16837 0.89432 0.0
C1170 C 0.44151 0.12896 0.89477 0.0
C1171 C 0.42894 0.18886 0.87126 0.0
C1172 C 0.40351 0.11028 0.87401 0.0
C1173 C 0.37858 0.1301 0.85251 0.0
H1174 H 0.88497 0.31206 0.89878 0.0
H1175 H 0.8924 0.39747 0.78056 0.0
H1176 H 0.939 0.44616 0.82223 0.0
H1177 H 0.98132 0.4641 0.89158 0.0
H1178 H 0.97702 0.37776 0.00858 0.0
H1179 H 0.92597 0.33016 0.96827 0.0
C1180 C 0.89664 0.34135 0.88214 0.0
C1181 C 0.8845 0.35104 0.83663 0.0
C1182 C 0.9244 0.36918 0.90616 0.0
C1183 C 0.90017 0.38919 0.8157 0.0
C1184 C 0.92728 0.41712 0.83949 0.0
C1185 C 0.96884 0.43497 0.90834 0.0
C1186 C 0.98313 0.42451 0.95296 0.0
C1187 C 0.93996 0.40742 0.88466 0.0
C1188 C 0.96682 0.38654 0.97413 0.0
C1189 C 0.93759 0.35925 0.95111 0.0
H1190 H 0.7236 0.85316 0.93503 0.0
H1191 H 0.82118 0.9517 0.97157 0.0
H1192 H 0.77695 0.97745 0.9862 0.0
H1193 H 0.71009 0.97138 0.9894 0.0
H1194 H 0.61311 0.87194 0.95295 0.0
H1195 H 0.65739 0.84728 0.93771 0.0
C1196 C 0.73512 0.88037 0.94597 0.0
C1197 C 0.77556 0.90048 0.95223 0.0
C1198 C 0.70957 0.89484 0.95452 0.0
C1199 C 0.79014 0.93555 0.96681 0.0
C1200 C 0.76484 0.95034 0.97501 0.0
C1201 C 0.69865 0.94441 0.97796 0.0
C1202 C 0.65819 0.92372 0.97226 0.0
C1203 C 0.72443 0.93015 0.96917 0.0
C1204 C 0.64401 0.88866 0.95761 0.0
C1205 C 0.66935 0.87441 0.94885 0.0
H1206 H 0.85417 0.6712 0.05109 0.0
H1207 H 0.95845 0.75883 0.09927 0.0
H1208 H 0.99821 0.72589 0.08978 0.0
H1209 H 1.00342 0.67393 0.06507 0.0
H1210 H 0.89977 0.58636 0.01471 0.0
H1211 H 0.85951 0.61741 0.02764 0.0
C1212 C 0.88562 0.68286 0.05942 0.0
C1213 C 0.90361 0.71745 0.0754 0.0
C1214 C 0.90823 0.6638 0.05354 0.0
C1215 C 0.9442 0.73227 0.08683 0.0
C1216 C 0.96684 0.71349 0.08131 0.0
C1217 C 0.972 0.66137 0.0571 0.0
C1218 C 0.9547 0.62776 0.03896 0.0
C1219 C 0.9492 0.67948 0.06429 0.0
C1220 C 0.91389 0.61204 0.02894 0.0
C1221 C 0.89086 0.62986 0.03622 0.0
H1222 H 0.42455 0.87137 0.23963 0.0
H1223 H 0.33633 0.83311 0.13035 0.0
H1224 H 0.37868 0.88066 0.07799 0.0
H1225 H 0.44483 0.92787 0.06381 0.0
H1226 H 0.53277 0.96259 0.1752 0.0
H1227 H 0.48661 0.92264 0.22595 0.0
C1228 C 0.41424 0.87425 0.20433 0.0
C1229 C 0.37714 0.84946 0.18885 0.0
C1230 C 0.439 0.90098 0.17473 0.0
C1231 C 0.36441 0.8526 0.14304 0.0
C1232 C 0.38884 0.87954 0.11315 0.0
C1233 C 0.45343 0.92741 0.09911 0.0
C1234 C 0.49233 0.94819 0.11569 0.0
C1235 C 0.42673 0.90326 0.12858 0.0
C1236 C 0.50316 0.94682 0.16159 0.0
C1237 C 0.47679 0.92384 0.19071 0.0
H1238 H 0.73966 0.18677 0.1506 0.0
H1239 H 0.67438 0.25893 0.13409 0.0
H1240 H 0.62177 0.21894 0.08699 0.0
H1241 H 0.59229 0.16183 0.05301 0.0
H1242 H 0.65496 0.08695 0.072 0.0
H1243 H 0.71012 0.12943 0.11531 0.0
C1244 C 0.71413 0.19404 0.13638 0.0
C1245 C 0.71158 0.22645 0.14583 0.0
C1246 C 0.68312 0.17011 0.10983 0.0
C1247 C 0.6778 0.23477 0.1273 0.0
C1248 C 0.64737 0.21164 0.10037 0.0
C1249 C 0.61809 0.1548 0.06621 0.0
C1250 C 0.61919 0.12099 0.059 0.0
C1251 C 0.64949 0.17904 0.09174 0.0
C1252 C 0.65301 0.11257 0.07692 0.0
C1253 C 0.68466 0.13693 0.10178 0.0
H1254 H 0.7035 0.6556 0.81727 0.0
H1255 H 0.70206 0.76041 0.83735 0.0
H1256 H 0.65423 0.72482 0.88729 0.0
H1257 H 0.61612 0.66445 0.92929 0.0
H1258 H 0.61673 0.55914 0.90989 0.0
H1259 H 0.66152 0.5943 0.85601 0.0
C1260 C 0.69208 0.67057 0.83185 0.0
C1261 C 0.70645 0.71064 0.8236 0.0
C1262 C 0.66484 0.64986 0.86128 0.0
C1263 C 0.69167 0.7296 0.84324 0.0
C1264 C 0.66438 0.70928 0.87199 0.0
C1265 C 0.62589 0.64911 0.91318 0.0
C1266 C 0.61334 0.6092 0.92404 0.0
C1267 C 0.6514 0.66948 0.88201 0.0
C1268 C 0.62609 0.58987 0.90243 0.0
C1269 C 0.65167 0.60997 0.87149 0.0
H1270 H 0.37298 0.64704 0.85528 0.0
H1271 H 0.29233 0.55191 0.93094 0.0
H1272 H 0.34577 0.55046 0.99157 0.0
H1273 H 0.4167 0.56905 0.01496 0.0
H1274 H 0.49515 0.66486 0.93844 0.0
H1275 H 0.44055 0.67298 0.8854 0.0
C1276 C 0.36623 0.6271 0.8857 0.0
C1277 C 0.32846 0.59967 0.88837 0.0
C1278 C 0.39667 0.62676 0.92024 0.0
C1279 C 0.32121 0.57302 0.92765 0.0
C1280 C 0.35168 0.5724 0.96246 0.0
C1281 C 0.42165 0.59372 0.98885 0.0
C1282 C 0.45981 0.61664 0.98072 0.0
C1283 C 0.38979 0.59836 0.95835 0.0
C1284 C 0.46595 0.64762 0.9458 0.0
C1285 C 0.43463 0.65213 0.9152 0.0
H1286 H 0.36203 0.35252 0.86461 0.0
H1287 H 0.4333 0.37914 0.76412 0.0
H1288 H 0.48804 0.42118 0.80696 0.0
H1289 H 0.51686 0.44643 0.87493 0.0
H1290 H 0.44715 0.42041 0.97692 0.0
H1291 H 0.39016 0.38136 0.93153 0.0
C1292 C 0.38946 0.3678 0.85189 0.0
C1293 C 0.39366 0.36259 0.81109 0.0
C1294 C 0.42103 0.3914 0.87726 0.0
C1295 C 0.4291 0.3829 0.79487 0.0
C1296 C 0.46058 0.40664 0.8197 0.0
C1297 C 0.48924 0.4321 0.88741 0.0
C1298 C 0.48616 0.43556 0.92939 0.0
C1299 C 0.45704 0.41035 0.86126 0.0
C1300 C 0.45007 0.41777 0.94472 0.0
C1301 C 0.41765 0.39558 0.91884 0.0
H1302 H 0.78399 0.46661 0.86907 0.0
H1303 H 0.68758 0.41258 0.77379 0.0
H1304 H 0.64527 0.43294 0.80009 0.0
H1305 H 0.6347 0.46389 0.85081 0.0
H1306 H 0.73004 0.52061 0.94471 0.0
H1307 H 0.77417 0.50259 0.91696 0.0
C1308 C 0.75385 0.45962 0.85364 0.0
C1309 C 0.73905 0.43743 0.81976 0.0
C1310 C 0.72959 0.47218 0.86835 0.0
C1311 C 0.69973 0.42854 0.80065 0.0
C1312 C 0.67552 0.44063 0.81529 0.0
C1313 C 0.66523 0.47281 0.86514 0.0
C1314 C 0.67879 0.49276 0.90077 0.0
C1315 C 0.69006 0.46217 0.84923 0.0
C1316 C 0.71862 0.50455 0.918 0.0
C1317 C 0.74381 0.49417 0.90212 0.0
H1318 H 0.8213 0.50262 0.05962 0.0
H1319 H 0.79853 0.38941 0.04274 0.0
H1320 H 0.73207 0.38244 0.00708 0.0
H1321 H 0.67599 0.40081 0.00454 0.0
H1322 H 0.69877 0.50773 0.04147 0.0
H1323 H 0.76843 0.52485 0.04649 0.0
C1324 C 0.80236 0.47735 0.04567 0.0
C1325 C 0.81399 0.4462 0.05489 0.0
C1326 C 0.76304 0.47177 0.03112 0.0
C1327 C 0.78978 0.41363 0.03645 0.0
C1328 C 0.75139 0.40926 0.01723 0.0
C1329 C 0.69639 0.42821 0.01227 0.0
C1330 C 0.68265 0.45314 0.02235 0.0
C1331 C 0.7368 0.43679 0.01821 0.0
C1332 C 0.70903 0.48824 0.03353 0.0
C1333 C 0.74882 0.49808 0.03635 0.0
H1334 H 0.73917 0.70593 0.14539 0.0
H1335 H 0.69974 0.64559 0.27046 0.0
H1336 H 0.65068 0.59411 0.23468 0.0
H1337 H 0.61517 0.56931 0.16661 0.0
H1338 H 0.65716 0.62679 0.04263 0.0
H1339 H 0.71017 0.67624 0.07953 0.0
C1340 C 0.72016 0.68144 0.16503 0.0
C1341 C 0.72204 0.68042 0.21029 0.0
C1342 C 0.69279 0.65143 0.14447 0.0
C1343 C 0.69786 0.64789 0.2353 0.0
C1344 C 0.67002 0.61823 0.21494 0.0
C1345 C 0.63654 0.59233 0.14805 0.0
C1346 C 0.63263 0.59502 0.10232 0.0
C1347 C 0.66663 0.62022 0.16941 0.0
C1348 C 0.66015 0.62446 0.07808 0.0
C1349 C 0.69008 0.65274 0.09906 0.0
H1350 H 0.40308 0.65083 0.16759 0.0
H1351 H 0.34901 0.54229 0.24799 0.0
H1352 H 0.37101 0.511 0.20749 0.0
H1353 H 0.41283 0.51559 0.15481 0.0
H1354 H 0.46628 0.62428 0.07492 0.0
H1355 H 0.43645 0.65379 0.10823 0.0
C1356 C 0.39519 0.62021 0.17563 0.0
C1357 C 0.37514 0.59935 0.21175 0.0
C1358 C 0.40788 0.60216 0.152 0.0
C1359 C 0.36544 0.55954 0.22138 0.0
C1360 C 0.37784 0.54143 0.19799 0.0
C1361 C 0.4167 0.54538 0.14371 0.0
C1362 C 0.44113 0.56757 0.1118 0.0
C1363 C 0.40015 0.56257 0.16406 0.0
C1364 C 0.4469 0.60644 0.09871 0.0
C1365 C 0.43021 0.62347 0.11816 0.0
H1366 H 0.39131 0.30617 0.16018 0.0
H1367 H 0.40318 0.39506 0.22624 0.0
H1368 H 0.45829 0.43893 0.18845 0.0
H1369 H 0.50227 0.45222 0.13479 0.0
H1370 H 0.48989 0.36173 0.07031 0.0
H1371 H 0.43595 0.31854 0.10906 0.0
C1372 C 0.40606 0.33515 0.16632 0.0
C1373 C 0.39358 0.34733 0.19622 0.0
C1374 C 0.43765 0.36 0.14461 0.0
C1375 C 0.41293 0.38481 0.20417 0.0
C1376 C 0.4442 0.40999 0.18221 0.0
C1377 C 0.48788 0.42302 0.12943 0.0
C1378 C 0.5003 0.41036 0.09971 0.0
C1379 C 0.45678 0.39792 0.15221 0.0
C1380 C 0.48126 0.37234 0.09317 0.0
C1381 C 0.45022 0.34751 0.11522 0.0
H1382 H 0.82458 0.62972 0.53896 0.0
H1383 H 0.91148 0.70044 0.62783 0.0
H1384 H 0.95935 0.67643 0.61975 0.0
H1385 H 0.97667 0.63572 0.58751 0.0
H1386 H 0.89102 0.56616 0.49646 0.0
H1387 H 0.84288 0.59017 0.5042 0.0
C1388 C 0.8542 0.64023 0.55595 0.0
C1389 C 0.86452 0.66699 0.58372 0.0
C1390 C 0.88182 0.62671 0.55055 0.0
C1391 C 0.90268 0.67962 0.60656 0.0
C1392 C 0.93014 0.6661 0.60171 0.0
C1393 C 0.94753 0.62581 0.56916 0.0
C1394 C 0.93751 0.59892 0.54165 0.0
C1395 C 0.92005 0.63969 0.5738 0.0
C1396 C 0.89959 0.58671 0.518 0.0
C1397 C 0.87199 0.60039 0.52249 0.0
H1398 H 0.42088 0.87109 0.73377 0.0
H1399 H 0.34948 0.81685 0.62411 0.0
H1400 H 0.39807 0.85874 0.57621 0.0
H1401 H 0.45398 0.9199 0.56205 0.0
H1402 H 0.51971 0.97834 0.67091 0.0
H1403 H 0.48048 0.92673 0.72201 0.0
C1404 C 0.41671 0.86758 0.69974 0.0
C1405 C 0.38221 0.83995 0.68299 0.0
C1406 C 0.44335 0.89376 0.67168 0.0
C1407 C 0.37662 0.83646 0.63851 0.0
C1408 C 0.40408 0.86118 0.61079 0.0
C1409 C 0.46041 0.92066 0.59717 0.0
C1410 C 0.48978 0.95304 0.61264 0.0
C1411 C 0.43658 0.89127 0.62642 0.0
C1412 C 0.49726 0.9539 0.65814 0.0
C1413 C 0.47474 0.92439 0.68741 0.0
H1414 H 0.27823 0.37015 0.69701 0.0
H1415 H 0.1784 0.26818 0.67728 0.0
H1416 H 0.14101 0.30607 0.63103 0.0
H1417 H 0.13459 0.36885 0.59895 0.0
H1418 H 0.23403 0.4709 0.62081 0.0
H1419 H 0.27268 0.433 0.66205 0.0
C1420 C 0.24859 0.35625 0.68182 0.0
C1421 C 0.2316 0.31605 0.6902 0.0
C1422 C 0.22654 0.37851 0.65566 0.0
C1423 C 0.19259 0.2989 0.6711 0.0
C1424 C 0.17097 0.32066 0.64467 0.0
C1425 C 0.16471 0.38288 0.61259 0.0
C1426 C 0.18072 0.42313 0.60666 0.0
C1427 C 0.18726 0.36061 0.63718 0.0
C1428 C 0.22018 0.44021 0.62482 0.0
C1429 C 0.24265 0.41843 0.64859 0.0
H1430 H 0.72616 0.21616 0.6218 0.0
H1431 H 0.75233 0.13773 0.73629 0.0
H1432 H 0.71768 0.08527 0.69718 0.0
H1433 H 0.67769 0.0599 0.63136 0.0
H1434 H 0.6387 0.1338 0.52186 0.0
H1435 H 0.67947 0.18917 0.55766 0.0
C1436 C 0.72393 0.18761 0.63828 0.0
C1437 C 0.74356 0.18166 0.68164 0.0
C1438 C 0.70138 0.15641 0.61623 0.0
C1439 C 0.73969 0.14406 0.70236 0.0
C1440 C 0.71919 0.11357 0.68015 0.0
C1441 C 0.67858 0.08825 0.61522 0.0
C1442 C 0.65646 0.09315 0.57361 0.0
C1443 C 0.70005 0.11932 0.63709 0.0
C1444 C 0.65645 0.12967 0.55356 0.0
C1445 C 0.67952 0.16123 0.57415 0.0
H1446 H 0.83494 0.36679 0.35755 0.0
H1447 H 0.92662 0.34209 0.32818 0.0
H1448 H 0.97537 0.39072 0.36954 0.0
H1449 H 0.99232 0.44368 0.41066 0.0
H1450 H 0.89872 0.46675 0.43855 0.0
H1451 H 0.85112 0.41581 0.40145 0.0
C1452 C 0.86554 0.37164 0.36044 0.0
C1453 C 0.8768 0.35054 0.33954 0.0
C1454 C 0.89347 0.39994 0.38387 0.0
C1455 C 0.91679 0.35747 0.34407 0.0
C1456 C 0.94483 0.38561 0.36753 0.0
C1457 C 0.96154 0.43746 0.40883 0.0
C1458 C 0.94961 0.45985 0.42721 0.0
C1459 C 0.9336 0.40758 0.38705 0.0
C1460 C 0.90932 0.45077 0.42454 0.0
C1461 C 0.88176 0.42138 0.40326 0.0
H1462 H 0.74032 0.87164 0.46244 0.0
H1463 H 0.62804 0.78062 0.45181 0.0
H1464 H 0.59719 0.82158 0.46154 0.0
H1465 H 0.60136 0.88388 0.46892 0.0
H1466 H 0.71305 0.97478 0.48466 0.0
H1467 H 0.74524 0.9331 0.47844 0.0
C1468 C 0.70916 0.86094 0.46244 0.0
C1469 C 0.68635 0.82331 0.45606 0.0
C1470 C 0.69165 0.8845 0.46921 0.0
C1471 C 0.6461 0.80946 0.45668 0.0
C1472 C 0.62846 0.83285 0.46222 0.0
C1473 C 0.63282 0.89451 0.4713 0.0
C1474 C 0.6548 0.93247 0.47638 0.0
C1475 C 0.65085 0.87047 0.46796 0.0
C1476 C 0.69555 0.94567 0.48051 0.0
C1477 C 0.71385 0.92192 0.47662 0.0
H1478 H 0.23413 0.73089 0.36848 0.0
H1479 H 0.1863 0.69565 0.24197 0.0
H1480 H 0.14058 0.63588 0.27664 0.0
H1481 H 0.11457 0.5929 0.34348 0.0
H1482 H 0.1563 0.6312 0.46879 0.0
H1483 H 0.20355 0.69024 0.43453 0.0
C1484 C 0.21422 0.70965 0.34885 0.0
C1485 C 0.21535 0.71645 0.30314 0.0
C1486 C 0.18636 0.67616 0.36881 0.0
C1487 C 0.18744 0.69005 0.27751 0.0
C1488 C 0.16091 0.6561 0.29727 0.0
C1489 C 0.13357 0.6145 0.36309 0.0
C1490 C 0.13169 0.60771 0.40859 0.0
C1491 C 0.16009 0.64877 0.34292 0.0
C1492 C 0.15664 0.63593 0.43359 0.0
C1493 C 0.18398 0.66957 0.41406 0.0
H1494 H 0.30249 0.14742 0.33017 0.0
H1495 H 0.39406 0.25564 0.29982 0.0
H1496 H 0.44293 0.22899 0.34367 0.0
H1497 H 0.45986 0.17265 0.38851 0.0
H1498 H 0.3653 0.06548 0.41707 0.0
H1499 H 0.31835 0.09384 0.37696 0.0
C1500 C 0.33316 0.16531 0.33337 0.0
C1501 C 0.34436 0.20362 0.31204 0.0
C1502 C 0.36098 0.14974 0.35846 0.0
C1503 C 0.38438 0.22622 0.31637 0.0
C1504 C 0.41241 0.21084 0.34134 0.0
C1505 C 0.42902 0.15561 0.38617 0.0
C1506 C 0.41673 0.11645 0.40563 0.0
C1507 C 0.40118 0.17232 0.36233 0.0
C1508 C 0.3763 0.0953 0.40216 0.0
C1509 C 0.34903 0.11154 0.37912 0.0
H1510 H 0.7109 0.81044 0.70496 0.0
H1511 H 0.81955 0.89577 0.66901 0.0
H1512 H 0.78551 0.93631 0.62245 0.0
H1513 H 0.72591 0.95062 0.59551 0.0
H1514 H 0.61564 0.86556 0.62583 0.0
H1515 H 0.64868 0.82223 0.66969 0.0
C1516 C 0.72695 0.83746 0.68608 0.0
C1517 C 0.76813 0.84958 0.69042 0.0
C1518 C 0.70681 0.8612 0.65851 0.0
C1519 C 0.78811 0.88531 0.66629 0.0
C1520 C 0.76859 0.90876 0.63962 0.0
C1521 C 0.70892 0.92253 0.61152 0.0
C1522 C 0.66817 0.91193 0.60775 0.0
C1523 C 0.72811 0.8975 0.63612 0.0
C1524 C 0.64693 0.8749 0.62814 0.0
C1525 C 0.66597 0.85006 0.6535 0.0
H1526 H 0.75729 0.22086 0.39107 0.0
H1527 H 0.69496 0.21923 0.25838 0.0
H1528 H 0.63936 0.16508 0.28559 0.0
H1529 H 0.61159 0.11258 0.3467 0.0
H1530 H 0.67483 0.11535 0.4788 0.0
H1531 H 0.72615 0.17438 0.45278 0.0
C1532 C 0.73109 0.20933 0.36827 0.0
C1533 C 0.73052 0.22414 0.32271 0.0
C1534 C 0.69915 0.17805 0.38423 0.0
C1535 C 0.69632 0.20866 0.29361 0.0
C1536 C 0.66451 0.17738 0.30919 0.0
C1537 C 0.63608 0.1268 0.36983 0.0
C1538 C 0.63884 0.11001 0.415 0.0
C1539 C 0.66599 0.16098 0.35432 0.0
C1540 C 0.67127 0.12833 0.44434 0.0
C1541 C 0.70092 0.16195 0.42931 0.0
H1542 H 0.92255 0.76089 0.34174 0.0
H1543 H 0.8083 0.67779 0.31048 0.0
H1544 H 0.83158 0.62633 0.35011 0.0
H1545 H 0.88576 0.60458 0.39085 0.0
H1546 H 0.99971 0.6885 0.42258 0.0
H1547 H 0.97536 0.73946 0.38598 0.0
C1548 C 0.90261 0.7315 0.34402 0.0
C1549 C 0.86348 0.72344 0.32349 0.0
C1550 C 0.91637 0.70197 0.36676 0.0
C1551 C 0.83828 0.68507 0.32646 0.0
C1552 C 0.85176 0.65554 0.34892 0.0
C1553 C 0.90533 0.63401 0.38983 0.0
C1554 C 0.94492 0.64235 0.40928 0.0
C1555 C 0.89093 0.66356 0.36877 0.0
C1556 C 0.96935 0.68087 0.40793 0.0
C1557 C 0.95538 0.71019 0.38688 0.0
H1558 H 0.35992 0.90108 0.30807 0.0
H1559 H 0.38276 0.80635 0.39775 0.0
H1560 H 0.42666 0.84902 0.44873 0.0
H1561 H 0.45986 0.91444 0.46715 0.0
H1562 H 0.43059 1.00669 0.38012 0.0
H1563 H 0.38744 0.96378 0.32906 0.0
C1564 C 0.37429 0.88942 0.33872 0.0
C1565 C 0.36888 0.8504 0.34803 0.0
C1566 C 0.39829 0.9139 0.36857 0.0
C1567 C 0.38737 0.83627 0.38866 0.0
C1568 C 0.41224 0.86072 0.41812 0.0
C1569 C 0.44378 0.92489 0.43707 0.0
C1570 C 0.44845 0.96366 0.42707 0.0
C1571 C 0.41826 0.89973 0.40824 0.0
C1572 C 0.42733 0.97697 0.38835 0.0
C1573 C 0.40278 0.95247 0.35916 0.0
H1574 H 0.2847 0.41911 0.48089 0.0
H1575 H 0.22753 0.40161 0.34832 0.0
H1576 H 0.17835 0.42343 0.35569 0.0
H1577 H 0.14963 0.44472 0.40052 0.0
H1578 H 0.21266 0.47408 0.5268 0.0
H1579 H 0.26188 0.45125 0.5207 0.0
C1580 C 0.26203 0.42063 0.45323 0.0
C1581 C 0.25913 0.40682 0.41496 0.0
C1582 C 0.23461 0.43506 0.45667 0.0
C1583 C 0.22955 0.4098 0.37932 0.0
C1584 C 0.20152 0.4228 0.38315 0.0
C1585 C 0.17408 0.44593 0.42684 0.0
C1586 C 0.17645 0.45913 0.46515 0.0
C1587 C 0.20328 0.43464 0.42203 0.0
C1588 C 0.20919 0.46231 0.49796 0.0
C1589 C 0.23761 0.44958 0.49424 0.0
H1590 H 0.41653 0.21035 0.57711 0.0
H1591 H 0.30536 0.12333 0.54415 0.0
H1592 H 0.33781 0.08648 0.52734 0.0
H1593 H 0.39882 0.07739 0.52544 0.0
H1594 H 0.50919 0.16594 0.55868 0.0
H1595 H 0.47618 0.20316 0.57155 0.0
C1596 C 0.39937 0.18317 0.56664 0.0
C1597 C 0.35856 0.16957 0.56253 0.0
C1598 C 0.41819 0.16211 0.55693 0.0
C1599 C 0.33685 0.13465 0.54768 0.0
C1600 C 0.35542 0.11343 0.53812 0.0
C1601 C 0.41556 0.10491 0.53518 0.0
C1602 C 0.45661 0.11824 0.54175 0.0
C1603 C 0.39623 0.12665 0.543 0.0
C1604 C 0.47766 0.15431 0.55401 0.0
C1605 C 0.4588 0.17588 0.56145 0.0
H1606 H 0.87549 0.311 0.62626 0.0
H1607 H 0.91361 0.34363 0.75472 0.0
H1608 H 0.9616 0.40349 0.72482 0.0
H1609 H 0.98869 0.44966 0.66062 0.0
H1610 H 0.95522 0.41624 0.53281 0.0
H1611 H 0.91002 0.354 0.56357 0.0
C1612 C 0.89469 0.33108 0.64762 0.0
C1613 C 0.88964 0.32376 0.69218 0.0
C1614 C 0.92316 0.36546 0.63023 0.0
C1615 C 0.91557 0.34944 0.71988 0.0
C1616 C 0.94335 0.38361 0.70287 0.0
C1617 C 0.97203 0.42843 0.63976 0.0
C1618 C 0.97519 0.43755 0.59455 0.0
C1619 C 0.94667 0.39246 0.65786 0.0
C1620 C 0.95352 0.40976 0.56785 0.0
C1621 C 0.9275 0.37421 0.58539 0.0
H1622 H 0.26633 0.6999 0.62906 0.0
H1623 H 0.17057 0.71683 0.66029 0.0
H1624 H 0.12444 0.66212 0.62696 0.0
H1625 H 0.11131 0.60725 0.59138 0.0
H1626 H 0.20849 0.59141 0.56148 0.0
H1627 H 0.25346 0.64751 0.59165 0.0
C1628 C 0.23538 0.69201 0.62826 0.0
C1629 C 0.22219 0.71271 0.64735 0.0
C1630 C 0.20899 0.66023 0.60944 0.0
C1631 C 0.1818 0.70165 0.64592 0.0
C1632 C 0.15529 0.67015 0.62694 0.0
C1633 C 0.1423 0.61611 0.59137 0.0
C1634 C 0.15617 0.59456 0.57433 0.0
C1635 C 0.16854 0.64884 0.60904 0.0
C1636 C 0.1966 0.60691 0.5745 0.0
C1637 C 0.22258 0.63921 0.59176 0.0
loop_
_geom_bond_atom_site_label_1
_geom_bond_atom_site_label_2
_geom_bond_distance
_geom_bond_site_symmetry_2
_ccdc_geom_bond_type
Eu0 N31 2.657 . S
Eu0 N38 2.609 . S
Eu0 O44 2.558 . S
Eu0 O45 2.612 . S
Eu0 O47 2.339 . S
Eu0 O48 2.563 . S
Eu0 O49 2.419 . S
Eu0 O51 2.380 . S
Eu0 O52 2.432 . S
Eu0 C64 2.848 . S
C1 C4 1.429 . S
C1 C5 1.411 . S
C1 N8 1.377 . S
C2 C4 1.420 . S
C2 C6 1.423 . S
C2 C14 1.392 . S
C3 C5 1.420 . S
C3 C6 1.351 . S
C3 H26 0.931 . S
C4 C1 1.429 . S
C4 C2 1.420 . S
C4 N12 1.362 . S
C5 C1 1.411 . S
C5 C3 1.420 . S
C5 C10 1.395 . S
C6 C2 1.423 . S
C6 C3 1.351 . S
C6 H18 0.930 . S
C7 C9 1.400 . S
C7 C10 1.386 . S
C7 H19 0.930 . S
N8 C1 1.377 . S
N8 C9 1.321 . S
N8 Eu11 2.609 . S
C9 C7 1.400 . S
C9 N8 1.321 . S
C9 H16 0.930 . S
C10 C5 1.395 . S
C10 C7 1.386 . S
C10 H29 0.930 . S
Eu11 N8 2.609 . S
Eu11 N12 2.657 . S
Eu11 O45 2.380 . S
Eu11 O46 2.432 . S
Eu11 O50 2.558 . S
Eu11 O51 2.612 . S
Eu11 O53 2.339 . S
Eu11 O54 2.563 . S
Eu11 O55 2.419 . S
Eu11 C75 2.848 . S
N12 C4 1.362 . S
N12 Eu11 2.657 . S
N12 C13 1.334 . S
C13 N12 1.334 . S
C13 C15 1.413 . S
C13 H20 0.929 . S
C14 C2 1.392 . S
C14 C15 1.367 . S
C14 H22 0.930 . S
C15 C13 1.413 . S
C15 C14 1.367 . S
C15 H17 0.930 . S
H16 C9 0.930 . S
H17 C15 0.930 . S
H18 C6 0.930 . S
H19 C7 0.930 . S
H20 C13 0.929 . S
H21 C35 0.930 . S
H22 C14 0.930 . S
H23 C41 0.930 . S
H24 C32 0.929 . S
H25 C39 0.930 . S
H26 C3 0.931 . S
H27 C33 0.930 . S
H28 C66 0.930 . S
H29 C10 0.930 . S
H30 C65 0.931 . S
N31 Eu0 2.657 . S
N31 C32 1.334 . S
N31 C36 1.362 . S
C32 H24 0.929 . S
C32 N31 1.334 . S
C32 C35 1.413 . S
C33 H27 0.930 . S
C33 C34 1.392 . S
C33 C35 1.367 . S
C34 C33 1.392 . S
C34 C36 1.420 . S
C34 C66 1.423 . S
C35 H21 0.930 . S
C35 C32 1.413 . S
C35 C33 1.367 . S
C36 N31 1.362 . S
C36 C34 1.420 . S
C36 C40 1.429 . S
H37 C42 0.930 . S
N38 Eu0 2.609 . S
N38 C40 1.377 . S
N38 C41 1.321 . S
C39 H25 0.930 . S
C39 C41 1.400 . S
C39 C42 1.386 . S
C40 C36 1.429 . S
C40 N38 1.377 . S
C40 C43 1.411 . S
C41 H23 0.930 . S
C41 N38 1.321 . S
C41 C39 1.400 . S
C42 H37 0.930 . S
C42 C39 1.386 . S
C42 C43 1.395 . S
C43 C40 1.411 . S
C43 C42 1.395 . S
C43 C65 1.420 . S
O44 Eu0 2.558 . S
O44 C64 1.257 . S
O45 Eu0 2.612 . S
O45 Eu11 2.380 . S
O45 C56 1.276 . S
O46 Eu11 2.432 . S
O46 C63 1.264 . S
O47 Eu0 2.339 . S
O47 C63 1.254 . S
O48 Eu0 2.563 . S
O48 C56 1.235 . S
O49 Eu0 2.419 . S
O49 C64 1.249 . S
O50 Eu11 2.558 . S
O50 C75 1.257 . S
O51 Eu0 2.380 . S
O51 Eu11 2.612 . S
O51 C67 1.276 . S
O52 Eu0 2.432 . S
O52 C74 1.264 . S
O53 Eu11 2.339 . S
O53 C74 1.254 . S
O54 Eu11 2.563 . S
O54 C67 1.235 . S
O55 Eu11 2.419 . S
O55 C75 1.249 . S
C56 O45 1.276 . S
C56 O48 1.235 . S
C57 C59 1.393 . S
C57 C61 1.395 . S
C57 C64 1.492 . S
C58 C59 1.392 . S
C58 C60 1.386 . S
C59 C57 1.393 . S
C59 C58 1.392 . S
C59 H76 0.930 . S
C60 C58 1.386 . S
C60 C62 1.395 . S
C60 H77 0.930 . S
C61 C57 1.395 . S
C61 C62 1.379 . S
C61 H78 0.930 . S
C62 C60 1.395 . S
C62 C61 1.379 . S
C62 H79 0.930 . S
C63 O46 1.264 . S
C63 O47 1.254 . S
C64 Eu0 2.848 . S
C64 O44 1.257 . S
C64 O49 1.249 . S
C64 C57 1.492 . S
C65 H30 0.931 . S
C65 C43 1.420 . S
C65 C66 1.351 . S
C66 H28 0.930 . S
C66 C34 1.423 . S
C66 C65 1.351 . S
C67 O51 1.276 . S
C67 O54 1.235 . S
C68 C69 1.393 . S
C68 C72 1.395 . S
C68 C75 1.492 . S
C69 C68 1.393 . S
C69 C70 1.392 . S
C69 H80 0.930 . S
C70 C69 1.392 . S
C70 C71 1.386 . S
C71 C70 1.386 . S
C71 C73 1.395 . S
C71 H81 0.930 . S
C72 C68 1.395 . S
C72 C73 1.379 . S
C72 H82 0.930 . S
C73 C71 1.395 . S
C73 C72 1.379 . S
C73 H83 0.930 . S
C74 O52 1.264 . S
C74 O53 1.254 . S
C75 Eu11 2.848 . S
C75 O50 1.257 . S
C75 O55 1.249 . S
C75 C68 1.492 . S
H76 C59 0.930 . S
H77 C60 0.930 . S
H78 C61 0.930 . S
H79 C62 0.930 . S
H80 C69 0.930 . S
H81 C71 0.930 . S
H82 C72 0.930 . S
H83 C73 0.930 . S
Eu84 N115 2.657 . S
Eu84 N122 2.609 . S
Eu84 O128 2.558 . S
Eu84 O129 2.612 . S
Eu84 O131 2.339 . S
Eu84 O132 2.563 . S
Eu84 O133 2.419 . S
Eu84 O135 2.380 . S
Eu84 O136 2.432 . S
Eu84 C148 2.848 . S
C85 C88 1.429 . S
C85 C89 1.411 . S
C85 N92 1.377 . S
C86 C88 1.420 . S
C86 C90 1.423 . S
C86 C98 1.392 . S
C87 C89 1.420 . S
C87 C90 1.351 . S
C87 H110 0.931 . S
C88 C85 1.429 . S
C88 C86 1.420 . S
C88 N96 1.362 . S
C89 C85 1.411 . S
C89 C87 1.420 . S
C89 C94 1.395 . S
C90 C86 1.423 . S
C90 C87 1.351 . S
C90 H102 0.930 . S
C91 C93 1.400 . S
C91 C94 1.386 . S
C91 H103 0.930 . S
N92 C85 1.377 . S
N92 C93 1.321 . S
N92 Eu95 2.609 . S
C93 C91 1.400 . S
C93 N92 1.321 . S
C93 H100 0.930 . S
C94 C89 1.395 . S
C94 C91 1.386 . S
C94 H113 0.930 . S
Eu95 N92 2.609 . S
Eu95 N96 2.657 . S
Eu95 O129 2.380 . S
Eu95 O130 2.432 . S
Eu95 O134 2.558 . S
Eu95 O135 2.612 . S
Eu95 O137 2.339 . S
Eu95 O138 2.563 . S
Eu95 O139 2.419 . S
Eu95 C159 2.848 . S
N96 C88 1.362 . S
N96 Eu95 2.657 . S
N96 C97 1.334 . S
C97 N96 1.334 . S
C97 C99 1.413 . S
C97 H104 0.929 . S
C98 C86 1.392 . S
C98 C99 1.367 . S
C98 H106 0.930 . S
C99 C97 1.413 . S
C99 C98 1.367 . S
C99 H101 0.930 . S
H100 C93 0.930 . S
H101 C99 0.930 . S
H102 C90 0.930 . S
H103 C91 0.930 . S
H104 C97 0.929 . S
H105 C119 0.930 . S
H106 C98 0.930 . S
H107 C125 0.930 . S
H108 C116 0.929 . S
H109 C123 0.930 . S
H110 C87 0.931 . S
H111 C117 0.930 . S
H112 C150 0.930 . S
H113 C94 0.930 . S
H114 C149 0.931 . S
N115 Eu84 2.657 . S
N115 C116 1.334 . S
N115 C120 1.362 . S
C116 H108 0.929 . S
C116 N115 1.334 . S
C116 C119 1.413 . S
C117 H111 0.930 . S
C117 C118 1.392 . S
C117 C119 1.367 . S
C118 C117 1.392 . S
C118 C120 1.420 . S
C118 C150 1.423 . S
C119 H105 0.930 . S
C119 C116 1.413 . S
C119 C117 1.367 . S
C120 N115 1.362 . S
C120 C118 1.420 . S
C120 C124 1.429 . S
H121 C126 0.930 . S
N122 Eu84 2.609 . S
N122 C124 1.377 . S
N122 C125 1.321 . S
C123 H109 0.930 . S
C123 C125 1.400 . S
C123 C126 1.386 . S
C124 C120 1.429 . S
C124 N122 1.377 . S
C124 C127 1.411 . S
C125 H107 0.930 . S
C125 N122 1.321 . S
C125 C123 1.400 . S
C126 H121 0.930 . S
C126 C123 1.386 . S
C126 C127 1.395 . S
C127 C124 1.411 . S
C127 C126 1.395 . S
C127 C149 1.420 . S
O128 Eu84 2.558 . S
O128 C148 1.257 . S
O129 Eu84 2.612 . S
O129 Eu95 2.380 . S
O129 C140 1.276 . S
O130 Eu95 2.432 . S
O130 C147 1.264 . S
O131 Eu84 2.339 . S
O131 C147 1.254 . S
O132 Eu84 2.563 . S
O132 C140 1.235 . S
O133 Eu84 2.419 . S
O133 C148 1.249 . S
O134 Eu95 2.558 . S
O134 C159 1.257 . S
O135 Eu84 2.380 . S
O135 Eu95 2.612 . S
O135 C151 1.276 . S
O136 Eu84 2.432 . S
O136 C158 1.264 . S
O137 Eu95 2.339 . S
O137 C158 1.254 . S
O138 Eu95 2.563 . S
O138 C151 1.235 . S
O139 Eu95 2.419 . S
O139 C159 1.249 . S
C140 O129 1.276 . S
C140 O132 1.235 . S
C141 C143 1.393 . S
C141 C145 1.395 . S
C141 C148 1.492 . S
C142 C143 1.392 . S
C142 C144 1.386 . S
C143 C141 1.393 . S
C143 C142 1.392 . S
C143 H160 0.930 . S
C144 C142 1.386 . S
C144 C146 1.395 . S
C144 H161 0.930 . S
C145 C141 1.395 . S
C145 C146 1.379 . S
C145 H162 0.930 . S
C146 C144 1.395 . S
C146 C145 1.379 . S
C146 H163 0.930 . S
C147 O130 1.264 . S
C147 O131 1.254 . S
C148 Eu84 2.848 . S
C148 O128 1.257 . S
C148 O133 1.249 . S
C148 C141 1.492 . S
C149 H114 0.931 . S
C149 C127 1.420 . S
C149 C150 1.351 . S
C150 H112 0.930 . S
C150 C118 1.423 . S
C150 C149 1.351 . S
C151 O135 1.276 . S
C151 O138 1.235 . S
C152 C153 1.393 . S
C152 C156 1.395 . S
C152 C159 1.492 . S
C153 C152 1.393 . S
C153 C154 1.392 . S
C153 H164 0.930 . S
C154 C153 1.392 . S
C154 C155 1.386 . S
C155 C154 1.386 . S
C155 C157 1.395 . S
C155 H165 0.930 . S
C156 C152 1.395 . S
C156 C157 1.379 . S
C156 H166 0.930 . S
C157 C155 1.395 . S
C157 C156 1.379 . S
C157 H167 0.930 . S
C158 O136 1.264 . S
C158 O137 1.254 . S
C159 Eu95 2.848 . S
C159 O134 1.257 . S
C159 O139 1.249 . S
C159 C152 1.492 . S
H160 C143 0.930 . S
H161 C144 0.930 . S
H162 C145 0.930 . S
H163 C146 0.930 . S
H164 C153 0.930 . S
H165 C155 0.930 . S
H166 C156 0.930 . S
H167 C157 0.930 . S
Eu168 N199 2.657 . S
Eu168 N206 2.609 . S
Eu168 O212 2.558 . S
Eu168 O213 2.612 . S
Eu168 O215 2.339 . S
Eu168 O216 2.563 . S
Eu168 O217 2.419 . S
Eu168 O219 2.380 . S
Eu168 O220 2.432 . S
Eu168 C232 2.848 . S
C169 C172 1.429 . S
C169 C173 1.411 . S
C169 N176 1.377 . S
C170 C172 1.420 . S
C170 C174 1.423 . S
C170 C182 1.392 . S
C171 C173 1.420 . S
C171 C174 1.351 . S
C171 H194 0.931 . S
C172 C169 1.429 . S
C172 C170 1.420 . S
C172 N180 1.362 . S
C173 C169 1.411 . S
C173 C171 1.420 . S
C173 C178 1.395 . S
C174 C170 1.423 . S
C174 C171 1.351 . S
C174 H186 0.930 . S
C175 C177 1.400 . S
C175 C178 1.386 . S
C175 H187 0.930 . S
N176 C169 1.377 . S
N176 C177 1.321 . S
N176 Eu179 2.609 . S
C177 C175 1.400 . S
C177 N176 1.321 . S
C177 H184 0.930 . S
C178 C173 1.395 . S
C178 C175 1.386 . S
C178 H197 0.930 . S
Eu179 N176 2.609 . S
Eu179 N180 2.657 . S
Eu179 O213 2.380 . S
Eu179 O214 2.432 . S
Eu179 O218 2.558 . S
Eu179 O219 2.612 . S
Eu179 O221 2.339 . S
Eu179 O222 2.563 . S
Eu179 O223 2.419 . S
Eu179 C243 2.848 . S
N180 C172 1.362 . S
N180 Eu179 2.657 . S
N180 C181 1.334 . S
C181 N180 1.334 . S
C181 C183 1.413 . S
C181 H188 0.929 . S
C182 C170 1.392 . S
C182 C183 1.367 . S
C182 H190 0.930 . S
C183 C181 1.413 . S
C183 C182 1.367 . S
C183 H185 0.930 . S
H184 C177 0.930 . S
H185 C183 0.930 . S
H186 C174 0.930 . S
H187 C175 0.930 . S
H188 C181 0.929 . S
H189 C203 0.930 . S
H190 C182 0.930 . S
H191 C209 0.930 . S
H192 C200 0.929 . S
H193 C207 0.930 . S
H194 C171 0.931 . S
H195 C201 0.930 . S
H196 C234 0.930 . S
H197 C178 0.930 . S
H198 C233 0.931 . S
N199 Eu168 2.657 . S
N199 C200 1.334 . S
N199 C204 1.362 . S
C200 H192 0.929 . S
C200 N199 1.334 . S
C200 C203 1.413 . S
C201 H195 0.930 . S
C201 C202 1.392 . S
C201 C203 1.367 . S
C202 C201 1.392 . S
C202 C204 1.420 . S
C202 C234 1.423 . S
C203 H189 0.930 . S
C203 C200 1.413 . S
C203 C201 1.367 . S
C204 N199 1.362 . S
C204 C202 1.420 . S
C204 C208 1.429 . S
H205 C210 0.930 . S
N206 Eu168 2.609 . S
N206 C208 1.377 . S
N206 C209 1.321 . S
C207 H193 0.930 . S
C207 C209 1.400 . S
C207 C210 1.386 . S
C208 C204 1.429 . S
C208 N206 1.377 . S
C208 C211 1.411 . S
C209 H191 0.930 . S
C209 N206 1.321 . S
C209 C207 1.400 . S
C210 H205 0.930 . S
C210 C207 1.386 . S
C210 C211 1.395 . S
C211 C208 1.411 . S
C211 C210 1.395 . S
C211 C233 1.420 . S
O212 Eu168 2.558 . S
O212 C232 1.257 . S
O213 Eu168 2.612 . S
O213 Eu179 2.380 . S
O213 C224 1.276 . S
O214 Eu179 2.432 . S
O214 C231 1.264 . S
O215 Eu168 2.339 . S
O215 C231 1.254 . S
O216 Eu168 2.563 . S
O216 C224 1.235 . S
O217 Eu168 2.419 . S
O217 C232 1.249 . S
O218 Eu179 2.558 . S
O218 C243 1.257 . S
O219 Eu168 2.380 . S
O219 Eu179 2.612 . S
O219 C235 1.276 . S
O220 Eu168 2.432 . S
O220 C242 1.264 . S
O221 Eu179 2.339 . S
O221 C242 1.254 . S
O222 Eu179 2.563 . S
O222 C235 1.235 . S
O223 Eu179 2.419 . S
O223 C243 1.249 . S
C224 O213 1.276 . S
C224 O216 1.235 . S
C225 C227 1.393 . S
C225 C229 1.395 . S
C225 C232 1.492 . S
C226 C227 1.392 . S
C226 C228 1.386 . S
C227 C225 1.393 . S
C227 C226 1.392 . S
C227 H244 0.930 . S
C228 C226 1.386 . S
C228 C230 1.395 . S
C228 H245 0.930 . S
C229 C225 1.395 . S
C229 C230 1.379 . S
C229 H246 0.930 . S
C230 C228 1.395 . S
C230 C229 1.379 . S
C230 H247 0.930 . S
C231 O214 1.264 . S
C231 O215 1.254 . S
C232 Eu168 2.848 . S
C232 O212 1.257 . S
C232 O217 1.249 . S
C232 C225 1.492 . S
C233 H198 0.931 . S
C233 C211 1.420 . S
C233 C234 1.351 . S
C234 H196 0.930 . S
C234 C202 1.423 . S
C234 C233 1.351 . S
C235 O219 1.276 . S
C235 O222 1.235 . S
C236 C237 1.393 . S
C236 C240 1.395 . S
C236 C243 1.492 . S
C237 C236 1.393 . S
C237 C238 1.392 . S
C237 H248 0.930 . S
C238 C237 1.392 . S
C238 C239 1.386 . S
C239 C238 1.386 . S
C239 C241 1.395 . S
C239 H249 0.930 . S
C240 C236 1.395 . S
C240 C241 1.379 . S
C240 H250 0.930 . S
C241 C239 1.395 . S
C241 C240 1.379 . S
C241 H251 0.930 . S
C242 O220 1.264 . S
C242 O221 1.254 . S
C243 Eu179 2.848 . S
C243 O218 1.257 . S
C243 O223 1.249 . S
C243 C236 1.492 . S
H244 C227 0.930 . S
H245 C228 0.930 . S
H246 C229 0.930 . S
H247 C230 0.930 . S
H248 C237 0.930 . S
H249 C239 0.930 . S
H250 C240 0.930 . S
H251 C241 0.930 . S
Eu252 N283 2.657 . S
Eu252 N290 2.609 . S
Eu252 O296 2.558 . S
Eu252 O297 2.612 . S
Eu252 O299 2.339 . S
Eu252 O300 2.563 . S
Eu252 O301 2.419 . S
Eu252 O303 2.380 . S
Eu252 O304 2.432 . S
Eu252 C316 2.848 . S
C253 C256 1.429 . S
C253 C257 1.411 . S
C253 N260 1.377 . S
C254 C256 1.420 . S
C254 C258 1.423 . S
C254 C266 1.392 . S
C255 C257 1.420 . S
C255 C258 1.351 . S
C255 H278 0.931 . S
C256 C253 1.429 . S
C256 C254 1.420 . S
C256 N264 1.362 . S
C257 C253 1.411 . S
C257 C255 1.420 . S
C257 C262 1.395 . S
C258 C254 1.423 . S
C258 C255 1.351 . S
C258 H270 0.930 . S
C259 C261 1.400 . S
C259 C262 1.386 . S
C259 H271 0.930 . S
N260 C253 1.377 . S
N260 C261 1.321 . S
N260 Eu263 2.609 . S
C261 C259 1.400 . S
C261 N260 1.321 . S
C261 H268 0.930 . S
C262 C257 1.395 . S
C262 C259 1.386 . S
C262 H281 0.930 . S
Eu263 N260 2.609 . S
Eu263 N264 2.657 . S
Eu263 O297 2.380 . S
Eu263 O298 2.432 . S
Eu263 O302 2.558 . S
Eu263 O303 2.612 . S
Eu263 O305 2.339 . S
Eu263 O306 2.563 . S
Eu263 O307 2.419 . S
Eu263 C327 2.848 . S
N264 C256 1.362 . S
N264 Eu263 2.657 . S
N264 C265 1.334 . S
C265 N264 1.334 . S
C265 C267 1.413 . S
C265 H272 0.929 . S
C266 C254 1.392 . S
C266 C267 1.367 . S
C266 H274 0.930 . S
C267 C265 1.413 . S
C267 C266 1.367 . S
C267 H269 0.930 . S
H268 C261 0.930 . S
H269 C267 0.930 . S
H270 C258 0.930 . S
H271 C259 0.930 . S
H272 C265 0.929 . S
H273 C287 0.930 . S
H274 C266 0.930 . S
H275 C293 0.930 . S
H276 C284 0.929 . S
H277 C291 0.930 . S
H278 C255 0.931 . S
H279 C285 0.930 . S
H280 C318 0.930 . S
H281 C262 0.930 . S
H282 C317 0.931 . S
N283 Eu252 2.657 . S
N283 C284 1.334 . S
N283 C288 1.362 . S
C284 H276 0.929 . S
C284 N283 1.334 . S
C284 C287 1.413 . S
C285 H279 0.930 . S
C285 C286 1.392 . S
C285 C287 1.367 . S
C286 C285 1.392 . S
C286 C288 1.420 . S
C286 C318 1.423 . S
C287 H273 0.930 . S
C287 C284 1.413 . S
C287 C285 1.367 . S
C288 N283 1.362 . S
C288 C286 1.420 . S
C288 C292 1.429 . S
H289 C294 0.930 . S
N290 Eu252 2.609 . S
N290 C292 1.377 . S
N290 C293 1.321 . S
C291 H277 0.930 . S
C291 C293 1.400 . S
C291 C294 1.386 . S
C292 C288 1.429 . S
C292 N290 1.377 . S
C292 C295 1.411 . S
C293 H275 0.930 . S
C293 N290 1.321 . S
C293 C291 1.400 . S
C294 H289 0.930 . S
C294 C291 1.386 . S
C294 C295 1.395 . S
C295 C292 1.411 . S
C295 C294 1.395 . S
C295 C317 1.420 . S
O296 Eu252 2.558 . S
O296 C316 1.257 . S
O297 Eu252 2.612 . S
O297 Eu263 2.380 . S
O297 C308 1.276 . S
O298 Eu263 2.432 . S
O298 C315 1.264 . S
O299 Eu252 2.339 . S
O299 C315 1.254 . S
O300 Eu252 2.563 . S
O300 C308 1.235 . S
O301 Eu252 2.419 . S
O301 C316 1.249 . S
O302 Eu263 2.558 . S
O302 C327 1.257 . S
O303 Eu252 2.380 . S
O303 Eu263 2.612 . S
O303 C319 1.276 . S
O304 Eu252 2.432 . S
O304 C326 1.264 . S
O305 Eu263 2.339 . S
O305 C326 1.254 . S
O306 Eu263 2.563 . S
O306 C319 1.235 . S
O307 Eu263 2.419 . S
O307 C327 1.249 . S
C308 O297 1.276 . S
C308 O300 1.235 . S
C309 C311 1.393 . S
C309 C313 1.395 . S
C309 C316 1.492 . S
C310 C311 1.392 . S
C310 C312 1.386 . S
C311 C309 1.393 . S
C311 C310 1.392 . S
C311 H328 0.930 . S
C312 C310 1.386 . S
C312 C314 1.395 . S
C312 H329 0.930 . S
C313 C309 1.395 . S
C313 C314 1.379 . S
C313 H330 0.930 . S
C314 C312 1.395 . S
C314 C313 1.379 . S
C314 H331 0.930 . S
C315 O298 1.264 . S
C315 O299 1.254 . S
C316 Eu252 2.848 . S
C316 O296 1.257 . S
C316 O301 1.249 . S
C316 C309 1.492 . S
C317 H282 0.931 . S
C317 C295 1.420 . S
C317 C318 1.351 . S
C318 H280 0.930 . S
C318 C286 1.423 . S
C318 C317 1.351 . S
C319 O303 1.276 . S
C319 O306 1.235 . S
C320 C321 1.393 . S
C320 C324 1.395 . S
C320 C327 1.492 . S
C321 C320 1.393 . S
C321 C322 1.392 . S
C321 H332 0.930 . S
C322 C321 1.392 . S
C322 C323 1.386 . S
C323 C322 1.386 . S
C323 C325 1.395 . S
C323 H333 0.930 . S
C324 C320 1.395 . S
C324 C325 1.379 . S
C324 H334 0.930 . S
C325 C323 1.395 . S
C325 C324 1.379 . S
C325 H335 0.930 . S
C326 O304 1.264 . S
C326 O305 1.254 . S
C327 Eu263 2.848 . S
C327 O302 1.257 . S
C327 O307 1.249 . S
C327 C320 1.492 . S
H328 C311 0.930 . S
H329 C312 0.930 . S
H330 C313 0.930 . S
H331 C314 0.930 . S
H332 C321 0.930 . S
H333 C323 0.930 . S
H334 C324 0.930 . S
H335 C325 0.930 . S
Eu336 N367 2.657 . S
Eu336 N374 2.609 . S
Eu336 O380 2.558 . S
Eu336 O381 2.612 . S
Eu336 O383 2.339 . S
Eu336 O384 2.563 . S
Eu336 O385 2.419 . S
Eu336 O387 2.380 . S
Eu336 O388 2.432 . S
Eu336 C400 2.848 . S
C337 C340 1.429 . S
C337 C341 1.411 . S
C337 N344 1.377 . S
C338 C340 1.420 . S
C338 C342 1.423 . S
C338 C350 1.392 . S
C339 C341 1.420 . S
C339 C342 1.351 . S
C339 H362 0.931 . S
C340 C337 1.429 . S
C340 C338 1.420 . S
C340 N348 1.362 . S
C341 C337 1.411 . S
C341 C339 1.420 . S
C341 C346 1.395 . S
C342 C338 1.423 . S
C342 C339 1.351 . S
C342 H354 0.930 . S
C343 C345 1.400 . S
C343 C346 1.386 . S
C343 H355 0.930 . S
N344 C337 1.377 . S
N344 C345 1.321 . S
N344 Eu347 2.609 . S
C345 C343 1.400 . S
C345 N344 1.321 . S
C345 H352 0.930 . S
C346 C341 1.395 . S
C346 C343 1.386 . S
C346 H365 0.930 . S
Eu347 N344 2.609 . S
Eu347 N348 2.657 . S
Eu347 O381 2.380 . S
Eu347 O382 2.432 . S
Eu347 O386 2.558 . S
Eu347 O387 2.612 . S
Eu347 O389 2.339 . S
Eu347 O390 2.563 . S
Eu347 O391 2.419 . S
Eu347 C411 2.848 . S
N348 C340 1.362 . S
N348 Eu347 2.657 . S
N348 C349 1.334 . S
C349 N348 1.334 . S
C349 C351 1.413 . S
C349 H356 0.929 . S
C350 C338 1.392 . S
C350 C351 1.367 . S
C350 H358 0.930 . S
C351 C349 1.413 . S
C351 C350 1.367 . S
C351 H353 0.930 . S
H352 C345 0.930 . S
H353 C351 0.930 . S
H354 C342 0.930 . S
H355 C343 0.930 . S
H356 C349 0.929 . S
H357 C371 0.930 . S
H358 C350 0.930 . S
H359 C377 0.930 . S
H360 C368 0.929 . S
H361 C375 0.930 . S
H362 C339 0.931 . S
H363 C369 0.930 . S
H364 C402 0.930 . S
H365 C346 0.930 . S
H366 C401 0.931 . S
N367 Eu336 2.657 . S
N367 C368 1.334 . S
N367 C372 1.362 . S
C368 H360 0.929 . S
C368 N367 1.334 . S
C368 C371 1.413 . S
C369 H363 0.930 . S
C369 C370 1.392 . S
C369 C371 1.367 . S
C370 C369 1.392 . S
C370 C372 1.420 . S
C370 C402 1.423 . S
C371 H357 0.930 . S
C371 C368 1.413 . S
C371 C369 1.367 . S
C372 N367 1.362 . S
C372 C370 1.420 . S
C372 C376 1.429 . S
H373 C378 0.930 . S
N374 Eu336 2.609 . S
N374 C376 1.377 . S
N374 C377 1.321 . S
C375 H361 0.930 . S
C375 C377 1.400 . S
C375 C378 1.386 . S
C376 C372 1.429 . S
C376 N374 1.377 . S
C376 C379 1.411 . S
C377 H359 0.930 . S
C377 N374 1.321 . S
C377 C375 1.400 . S
C378 H373 0.930 . S
C378 C375 1.386 . S
C378 C379 1.395 . S
C379 C376 1.411 . S
C379 C378 1.395 . S
C379 C401 1.420 . S
O380 Eu336 2.558 . S
O380 C400 1.257 . S
O381 Eu336 2.612 . S
O381 Eu347 2.380 . S
O381 C392 1.276 . S
O382 Eu347 2.432 . S
O382 C399 1.264 . S
O383 Eu336 2.339 . S
O383 C399 1.254 . S
O384 Eu336 2.563 . S
O384 C392 1.235 . S
O385 Eu336 2.419 . S
O385 C400 1.249 . S
O386 Eu347 2.558 . S
O386 C411 1.257 . S
O387 Eu336 2.380 . S
O387 Eu347 2.612 . S
O387 C403 1.276 . S
O388 Eu336 2.432 . S
O388 C410 1.264 . S
O389 Eu347 2.339 . S
O389 C410 1.254 . S
O390 Eu347 2.563 . S
O390 C403 1.235 . S
O391 Eu347 2.419 . S
O391 C411 1.249 . S
C392 O381 1.276 . S
C392 O384 1.235 . S
C393 C395 1.393 . S
C393 C397 1.395 . S
C393 C400 1.492 . S
C394 C395 1.392 . S
C394 C396 1.386 . S
C395 C393 1.393 . S
C395 C394 1.392 . S
C395 H412 0.930 . S
C396 C394 1.386 . S
C396 C398 1.395 . S
C396 H413 0.930 . S
C397 C393 1.395 . S
C397 C398 1.379 . S
C397 H414 0.930 . S
C398 C396 1.395 . S
C398 C397 1.379 . S
C398 H415 0.930 . S
C399 O382 1.264 . S
C399 O383 1.254 . S
C400 Eu336 2.848 . S
C400 O380 1.257 . S
C400 O385 1.249 . S
C400 C393 1.492 . S
C401 H366 0.931 . S
C401 C379 1.420 . S
C401 C402 1.351 . S
C402 H364 0.930 . S
C402 C370 1.423 . S
C402 C401 1.351 . S
C403 O387 1.276 . S
C403 O390 1.235 . S
C404 C405 1.393 . S
C404 C408 1.395 . S
C404 C411 1.492 . S
C405 C404 1.393 . S
C405 C406 1.392 . S
C405 H416 0.930 . S
C406 C405 1.392 . S
C406 C407 1.386 . S
C407 C406 1.386 . S
C407 C409 1.395 . S
C407 H417 0.930 . S
C408 C404 1.395 . S
C408 C409 1.379 . S
C408 H418 0.930 . S
C409 C407 1.395 . S
C409 C408 1.379 . S
C409 H419 0.930 . S
C410 O388 1.264 . S
C410 O389 1.254 . S
C411 Eu347 2.848 . S
C411 O386 1.257 . S
C411 O391 1.249 . S
C411 C404 1.492 . S
H412 C395 0.930 . S
H413 C396 0.930 . S
H414 C397 0.930 . S
H415 C398 0.930 . S
H416 C405 0.930 . S
H417 C407 0.930 . S
H418 C408 0.930 . S
H419 C409 0.930 . S
Eu420 N451 2.657 . S
Eu420 N458 2.609 . S
Eu420 O464 2.558 . S
Eu420 O465 2.612 . S
Eu420 O467 2.339 . S
Eu420 O468 2.563 . S
Eu420 O469 2.419 . S
Eu420 O471 2.380 . S
Eu420 O472 2.432 . S
Eu420 C484 2.848 . S
C421 C424 1.429 . S
C421 C425 1.411 . S
C421 N428 1.377 . S
C422 C424 1.420 . S
C422 C426 1.423 . S
C422 C434 1.392 . S
C423 C425 1.420 . S
C423 C426 1.351 . S
C423 H446 0.931 . S
C424 C421 1.429 . S
C424 C422 1.420 . S
C424 N432 1.362 . S
C425 C421 1.411 . S
C425 C423 1.420 . S
C425 C430 1.395 . S
C426 C422 1.423 . S
C426 C423 1.351 . S
C426 H438 0.930 . S
C427 C429 1.400 . S
C427 C430 1.386 . S
C427 H439 0.930 . S
N428 C421 1.377 . S
N428 C429 1.321 . S
N428 Eu431 2.609 . S
C429 C427 1.400 . S
C429 N428 1.321 . S
C429 H436 0.930 . S
C430 C425 1.395 . S
C430 C427 1.386 . S
C430 H449 0.930 . S
Eu431 N428 2.609 . S
Eu431 N432 2.657 . S
Eu431 O465 2.380 . S
Eu431 O466 2.432 . S
Eu431 O470 2.558 . S
Eu431 O471 2.612 . S
Eu431 O473 2.339 . S
Eu431 O474 2.563 . S
Eu431 O475 2.419 . S
Eu431 C495 2.848 . S
N432 C424 1.362 . S
N432 Eu431 2.657 . S
N432 C433 1.334 . S
C433 N432 1.334 . S
C433 C435 1.413 . S
C433 H440 0.929 . S
C434 C422 1.392 . S
C434 C435 1.367 . S
C434 H442 0.930 . S
C435 C433 1.413 . S
C435 C434 1.367 . S
C435 H437 0.930 . S
H436 C429 0.930 . S
H437 C435 0.930 . S
H438 C426 0.930 . S
H439 C427 0.930 . S
H440 C433 0.929 . S
H441 C455 0.930 . S
H442 C434 0.930 . S
H443 C461 0.930 . S
H444 C452 0.929 . S
H445 C459 0.930 . S
H446 C423 0.931 . S
H447 C453 0.930 . S
H448 C486 0.930 . S
H449 C430 0.930 . S
H450 C485 0.931 . S
N451 Eu420 2.657 . S
N451 C452 1.334 . S
N451 C456 1.362 . S
C452 H444 0.929 . S
C452 N451 1.334 . S
C452 C455 1.413 . S
C453 H447 0.930 . S
C453 C454 1.392 . S
C453 C455 1.367 . S
C454 C453 1.392 . S
C454 C456 1.420 . S
C454 C486 1.423 . S
C455 H441 0.930 . S
C455 C452 1.413 . S
C455 C453 1.367 . S
C456 N451 1.362 . S
C456 C454 1.420 . S
C456 C460 1.429 . S
H457 C462 0.930 . S
N458 Eu420 2.609 . S
N458 C460 1.377 . S
N458 C461 1.321 . S
C459 H445 0.930 . S
C459 C461 1.400 . S
C459 C462 1.386 . S
C460 C456 1.429 . S
C460 N458 1.377 . S
C460 C463 1.411 . S
C461 H443 0.930 . S
C461 N458 1.321 . S
C461 C459 1.400 . S
C462 H457 0.930 . S
C462 C459 1.386 . S
C462 C463 1.395 . S
C463 C460 1.411 . S
C463 C462 1.395 . S
C463 C485 1.420 . S
O464 Eu420 2.558 . S
O464 C484 1.257 . S
O465 Eu420 2.612 . S
O465 Eu431 2.380 . S
O465 C476 1.276 . S
O466 Eu431 2.432 . S
O466 C483 1.264 . S
O467 Eu420 2.339 . S
O467 C483 1.254 . S
O468 Eu420 2.563 . S
O468 C476 1.235 . S
O469 Eu420 2.419 . S
O469 C484 1.249 . S
O470 Eu431 2.558 . S
O470 C495 1.257 . S
O471 Eu420 2.380 . S
O471 Eu431 2.612 . S
O471 C487 1.276 . S
O472 Eu420 2.432 . S
O472 C494 1.264 . S
O473 Eu431 2.339 . S
O473 C494 1.254 . S
O474 Eu431 2.563 . S
O474 C487 1.235 . S
O475 Eu431 2.419 . S
O475 C495 1.249 . S
C476 O465 1.276 . S
C476 O468 1.235 . S
C477 C479 1.393 . S
C477 C481 1.395 . S
C477 C484 1.492 . S
C478 C479 1.392 . S
C478 C480 1.386 . S
C479 C477 1.393 . S
C479 C478 1.392 . S
C479 H496 0.930 . S
C480 C478 1.386 . S
C480 C482 1.395 . S
C480 H497 0.930 . S
C481 C477 1.395 . S
C481 C482 1.379 . S
C481 H498 0.930 . S
C482 C480 1.395 . S
C482 C481 1.379 . S
C482 H499 0.930 . S
C483 O466 1.264 . S
C483 O467 1.254 . S
C484 Eu420 2.848 . S
C484 O464 1.257 . S
C484 O469 1.249 . S
C484 C477 1.492 . S
C485 H450 0.931 . S
C485 C463 1.420 . S
C485 C486 1.351 . S
C486 H448 0.930 . S
C486 C454 1.423 . S
C486 C485 1.351 . S
C487 O471 1.276 . S
C487 O474 1.235 . S
C488 C489 1.393 . S
C488 C492 1.395 . S
C488 C495 1.492 . S
C489 C488 1.393 . S
C489 C490 1.392 . S
C489 H500 0.930 . S
C490 C489 1.392 . S
C490 C491 1.386 . S
C491 C490 1.386 . S
C491 C493 1.395 . S
C491 H501 0.930 . S
C492 C488 1.395 . S
C492 C493 1.379 . S
C492 H502 0.930 . S
C493 C491 1.395 . S
C493 C492 1.379 . S
C493 H503 0.930 . S
C494 O472 1.264 . S
C494 O473 1.254 . S
C495 Eu431 2.848 . S
C495 O470 1.257 . S
C495 O475 1.249 . S
C495 C488 1.492 . S
H496 C479 0.930 . S
H497 C480 0.930 . S
H498 C481 0.930 . S
H499 C482 0.930 . S
H500 C489 0.930 . S
H501 C491 0.930 . S
H502 C492 0.930 . S
H503 C493 0.930 . S
Eu504 N535 2.657 . S
Eu504 N542 2.609 . S
Eu504 O548 2.558 . S
Eu504 O549 2.612 . S
Eu504 O551 2.339 . S
Eu504 O552 2.563 . S
Eu504 O553 2.419 . S
Eu504 O555 2.380 . S
Eu504 O556 2.432 . S
Eu504 C568 2.848 . S
C505 C508 1.429 . S
C505 C509 1.411 . S
C505 N512 1.377 . S
C506 C508 1.420 . S
C506 C510 1.423 . S
C506 C518 1.392 . S
C507 C509 1.420 . S
C507 C510 1.351 . S
C507 H530 0.931 . S
C508 C505 1.429 . S
C508 C506 1.420 . S
C508 N516 1.362 . S
C509 C505 1.411 . S
C509 C507 1.420 . S
C509 C514 1.395 . S
C510 C506 1.423 . S
C510 C507 1.351 . S
C510 H522 0.930 . S
C511 C513 1.400 . S
C511 C514 1.386 . S
C511 H523 0.930 . S
N512 C505 1.377 . S
N512 C513 1.321 . S
N512 Eu515 2.609 . S
C513 C511 1.400 . S
C513 N512 1.321 . S
C513 H520 0.930 . S
C514 C509 1.395 . S
C514 C511 1.386 . S
C514 H533 0.930 . S
Eu515 N512 2.609 . S
Eu515 N516 2.657 . S
Eu515 O549 2.380 . S
Eu515 O550 2.432 . S
Eu515 O554 2.558 . S
Eu515 O555 2.612 . S
Eu515 O557 2.339 . S
Eu515 O558 2.563 . S
Eu515 O559 2.419 . S
Eu515 C579 2.848 . S
N516 C508 1.362 . S
N516 Eu515 2.657 . S
N516 C517 1.334 . S
C517 N516 1.334 . S
C517 C519 1.413 . S
C517 H524 0.929 . S
C518 C506 1.392 . S
C518 C519 1.367 . S
C518 H526 0.930 . S
C519 C517 1.413 . S
C519 C518 1.367 . S
C519 H521 0.930 . S
H520 C513 0.930 . S
H521 C519 0.930 . S
H522 C510 0.930 . S
H523 C511 0.930 . S
H524 C517 0.929 . S
H525 C539 0.930 . S
H526 C518 0.930 . S
H527 C545 0.930 . S
H528 C536 0.929 . S
H529 C543 0.930 . S
H530 C507 0.931 . S
H531 C537 0.930 . S
H532 C570 0.930 . S
H533 C514 0.930 . S
H534 C569 0.931 . S
N535 Eu504 2.657 . S
N535 C536 1.334 . S
N535 C540 1.362 . S
C536 H528 0.929 . S
C536 N535 1.334 . S
C536 C539 1.413 . S
C537 H531 0.930 . S
C537 C538 1.392 . S
C537 C539 1.367 . S
C538 C537 1.392 . S
C538 C540 1.420 . S
C538 C570 1.423 . S
C539 H525 0.930 . S
C539 C536 1.413 . S
C539 C537 1.367 . S
C540 N535 1.362 . S
C540 C538 1.420 . S
C540 C544 1.429 . S
H541 C546 0.930 . S
N542 Eu504 2.609 . S
N542 C544 1.377 . S
N542 C545 1.321 . S
C543 H529 0.930 . S
C543 C545 1.400 . S
C543 C546 1.386 . S
C544 C540 1.429 . S
C544 N542 1.377 . S
C544 C547 1.411 . S
C545 H527 0.930 . S
C545 N542 1.321 . S
C545 C543 1.400 . S
C546 H541 0.930 . S
C546 C543 1.386 . S
C546 C547 1.395 . S
C547 C544 1.411 . S
C547 C546 1.395 . S
C547 C569 1.420 . S
O548 Eu504 2.558 . S
O548 C568 1.257 . S
O549 Eu504 2.612 . S
O549 Eu515 2.380 . S
O549 C560 1.276 . S
O550 Eu515 2.432 . S
O550 C567 1.264 . S
O551 Eu504 2.339 . S
O551 C567 1.254 . S
O552 Eu504 2.563 . S
O552 C560 1.235 . S
O553 Eu504 2.419 . S
O553 C568 1.249 . S
O554 Eu515 2.558 . S
O554 C579 1.257 . S
O555 Eu504 2.380 . S
O555 Eu515 2.612 . S
O555 C571 1.276 . S
O556 Eu504 2.432 . S
O556 C578 1.264 . S
O557 Eu515 2.339 . S
O557 C578 1.254 . S
O558 Eu515 2.563 . S
O558 C571 1.235 . S
O559 Eu515 2.419 . S
O559 C579 1.249 . S
C560 O549 1.276 . S
C560 O552 1.235 . S
C561 C563 1.393 . S
C561 C565 1.395 . S
C561 C568 1.492 . S
C562 C563 1.392 . S
C562 C564 1.386 . S
C563 C561 1.393 . S
C563 C562 1.392 . S
C563 H580 0.930 . S
C564 C562 1.386 . S
C564 C566 1.395 . S
C564 H581 0.930 . S
C565 C561 1.395 . S
C565 C566 1.379 . S
C565 H582 0.930 . S
C566 C564 1.395 . S
C566 C565 1.379 . S
C566 H583 0.930 . S
C567 O550 1.264 . S
C567 O551 1.254 . S
C568 Eu504 2.848 . S
C568 O548 1.257 . S
C568 O553 1.249 . S
C568 C561 1.492 . S
C569 H534 0.931 . S
C569 C547 1.420 . S
C569 C570 1.351 . S
C570 H532 0.930 . S
C570 C538 1.423 . S
C570 C569 1.351 . S
C571 O555 1.276 . S
C571 O558 1.235 . S
C572 C573 1.393 . S
C572 C576 1.395 . S
C572 C579 1.492 . S
C573 C572 1.393 . S
C573 C574 1.392 . S
C573 H584 0.930 . S
C574 C573 1.392 . S
C574 C575 1.386 . S
C575 C574 1.386 . S
C575 C577 1.395 . S
C575 H585 0.930 . S
C576 C572 1.395 . S
C576 C577 1.379 . S
C576 H586 0.930 . S
C577 C575 1.395 . S
C577 C576 1.379 . S
C577 H587 0.930 . S
C578 O556 1.264 . S
C578 O557 1.254 . S
C579 Eu515 2.848 . S
C579 O554 1.257 . S
C579 O559 1.249 . S
C579 C572 1.492 . S
H580 C563 0.930 . S
H581 C564 0.930 . S
H582 C565 0.930 . S
H583 C566 0.930 . S
H584 C573 0.930 . S
H585 C575 0.930 . S
H586 C576 0.930 . S
H587 C577 0.930 . S
Eu588 N619 2.657 . S
Eu588 N626 2.609 . S
Eu588 O632 2.558 . S
Eu588 O633 2.612 . S
Eu588 O635 2.339 . S
Eu588 O636 2.563 . S
Eu588 O637 2.419 . S
Eu588 O639 2.380 . S
Eu588 O640 2.432 . S
Eu588 C652 2.848 . S
C589 C592 1.429 . S
C589 C593 1.411 . S
C589 N596 1.377 . S
C590 C592 1.420 . S
C590 C594 1.423 . S
C590 C602 1.392 . S
C591 C593 1.420 . S
C591 C594 1.351 . S
C591 H614 0.931 . S
C592 C589 1.429 . S
C592 C590 1.420 . S
C592 N600 1.362 . S
C593 C589 1.411 . S
C593 C591 1.420 . S
C593 C598 1.395 . S
C594 C590 1.423 . S
C594 C591 1.351 . S
C594 H606 0.930 . S
C595 C597 1.400 . S
C595 C598 1.386 . S
C595 H607 0.930 . S
N596 C589 1.377 . S
N596 C597 1.321 . S
N596 Eu599 2.609 . S
C597 C595 1.400 . S
C597 N596 1.321 . S
C597 H604 0.930 . S
C598 C593 1.395 . S
C598 C595 1.386 . S
C598 H617 0.930 . S
Eu599 N596 2.609 . S
Eu599 N600 2.657 . S
Eu599 O633 2.380 . S
Eu599 O634 2.432 . S
Eu599 O638 2.558 . S
Eu599 O639 2.612 . S
Eu599 O641 2.339 . S
Eu599 O642 2.563 . S
Eu599 O643 2.419 . S
Eu599 C663 2.848 . S
N600 C592 1.362 . S
N600 Eu599 2.657 . S
N600 C601 1.334 . S
C601 N600 1.334 . S
C601 C603 1.413 . S
C601 H608 0.929 . S
C602 C590 1.392 . S
C602 C603 1.367 . S
C602 H610 0.930 . S
C603 C601 1.413 . S
C603 C602 1.367 . S
C603 H605 0.930 . S
H604 C597 0.930 . S
H605 C603 0.930 . S
H606 C594 0.930 . S
H607 C595 0.930 . S
H608 C601 0.929 . S
H609 C623 0.930 . S
H610 C602 0.930 . S
H611 C629 0.930 . S
H612 C620 0.929 . S
H613 C627 0.930 . S
H614 C591 0.931 . S
H615 C621 0.930 . S
H616 C654 0.930 . S
H617 C598 0.930 . S
H618 C653 0.931 . S
N619 Eu588 2.657 . S
N619 C620 1.334 . S
N619 C624 1.362 . S
C620 H612 0.929 . S
C620 N619 1.334 . S
C620 C623 1.413 . S
C621 H615 0.930 . S
C621 C622 1.392 . S
C621 C623 1.367 . S
C622 C621 1.392 . S
C622 C624 1.420 . S
C622 C654 1.423 . S
C623 H609 0.930 . S
C623 C620 1.413 . S
C623 C621 1.367 . S
C624 N619 1.362 . S
C624 C622 1.420 . S
C624 C628 1.429 . S
H625 C630 0.930 . S
N626 Eu588 2.609 . S
N626 C628 1.377 . S
N626 C629 1.321 . S
C627 H613 0.930 . S
C627 C629 1.400 . S
C627 C630 1.386 . S
C628 C624 1.429 . S
C628 N626 1.377 . S
C628 C631 1.411 . S
C629 H611 0.930 . S
C629 N626 1.321 . S
C629 C627 1.400 . S
C630 H625 0.930 . S
C630 C627 1.386 . S
C630 C631 1.395 . S
C631 C628 1.411 . S
C631 C630 1.395 . S
C631 C653 1.420 . S
O632 Eu588 2.558 . S
O632 C652 1.257 . S
O633 Eu588 2.612 . S
O633 Eu599 2.380 . S
O633 C644 1.276 . S
O634 Eu599 2.432 . S
O634 C651 1.264 . S
O635 Eu588 2.339 . S
O635 C651 1.254 . S
O636 Eu588 2.563 . S
O636 C644 1.235 . S
O637 Eu588 2.419 . S
O637 C652 1.249 . S
O638 Eu599 2.558 . S
O638 C663 1.257 . S
O639 Eu588 2.380 . S
O639 Eu599 2.612 . S
O639 C655 1.276 . S
O640 Eu588 2.432 . S
O640 C662 1.264 . S
O641 Eu599 2.339 . S
O641 C662 1.254 . S
O642 Eu599 2.563 . S
O642 C655 1.235 . S
O643 Eu599 2.419 . S
O643 C663 1.249 . S
C644 O633 1.276 . S
C644 O636 1.235 . S
C645 C647 1.393 . S
C645 C649 1.395 . S
C645 C652 1.492 . S
C646 C647 1.392 . S
C646 C648 1.386 . S
C647 C645 1.393 . S
C647 C646 1.392 . S
C647 H664 0.930 . S
C648 C646 1.386 . S
C648 C650 1.395 . S
C648 H665 0.930 . S
C649 C645 1.395 . S
C649 C650 1.379 . S
C649 H666 0.930 . S
C650 C648 1.395 . S
C650 C649 1.379 . S
C650 H667 0.930 . S
C651 O634 1.264 . S
C651 O635 1.254 . S
C652 Eu588 2.848 . S
C652 O632 1.257 . S
C652 O637 1.249 . S
C652 C645 1.492 . S
C653 H618 0.931 . S
C653 C631 1.420 . S
C653 C654 1.351 . S
C654 H616 0.930 . S
C654 C622 1.423 . S
C654 C653 1.351 . S
C655 O639 1.276 . S
C655 O642 1.235 . S
C656 C657 1.393 . S
C656 C660 1.395 . S
C656 C663 1.492 . S
C657 C656 1.393 . S
C657 C658 1.392 . S
C657 H668 0.930 . S
C658 C657 1.392 . S
C658 C659 1.386 . S
C659 C658 1.386 . S
C659 C661 1.395 . S
C659 H669 0.930 . S
C660 C656 1.395 . S
C660 C661 1.379 . S
C660 H670 0.930 . S
C661 C659 1.395 . S
C661 C660 1.379 . S
C661 H671 0.930 . S
C662 O640 1.264 . S
C662 O641 1.254 . S
C663 Eu599 2.848 . S
C663 O638 1.257 . S
C663 O643 1.249 . S
C663 C656 1.492 . S
H664 C647 0.930 . S
H665 C648 0.930 . S
H666 C649 0.930 . S
H667 C650 0.930 . S
H668 C657 0.930 . S
H669 C659 0.930 . S
H670 C660 0.930 . S
H671 C661 0.930 . S
Co672 O675 2.042 . S
Co672 O682 2.264 . S
Co672 O701 2.286 . S
Co672 O702 2.069 . S
Co672 O704 2.015 1_455 S
Co673 O675 2.122 . S
Co673 O681 2.073 . S
Co673 O682 2.327 . S
Co673 O683 1.976 1_455 S
Co674 O675 2.088 1_545 S
Co674 O677 2.085 1_455 S
Co674 O684 2.109 1_445 S
Co674 O685 2.145 . S
Co674 O689 2.113 . S
Co674 O703 2.142 1_445 S
O675 Co672 2.042 . S
O675 Co673 2.122 . S
O675 Co674 2.088 1_565 S
O675 H676 0.980 . S
H676 O675 0.980 . S
O677 Co674 2.085 1_655 S
O677 Co678 2.042 . S
O677 Co679 2.122 . S
O677 H680 0.980 . S
Co678 O677 2.042 . S
Co678 O686 2.286 . S
Co678 O687 2.069 . S
Co678 O688 2.015 1_655 S
Co678 O691 2.264 . S
Co679 O677 2.122 . S
Co679 O690 1.976 1_655 S
Co679 O691 2.327 . S
Co679 O692 2.073 . S
H680 O677 0.980 . S
O681 Co673 2.073 . S
O681 C696 1.245 . S
O682 Co672 2.264 . S
O682 Co673 2.327 . S
O682 C696 1.257 . S
O683 Co673 1.976 1_655 S
O683 C695 1.251 . S
O684 Co674 2.109 1_665 S
O684 C695 1.274 . S
O685 Co674 2.145 . S
O685 C698 1.246 . S
O686 Co678 2.286 . S
O686 C697 1.259 . S
O687 Co678 2.069 . S
O687 C697 1.289 . S
O688 Co678 2.015 1_455 S
O688 C698 1.257 . S
O689 Co674 2.113 . S
O689 C699 1.274 . S
O690 Co679 1.976 1_455 S
O690 C699 1.251 . S
O691 Co678 2.264 . S
O691 Co679 2.327 . S
O691 C700 1.257 . S
O692 Co679 2.073 . S
O692 C700 1.245 . S
C693 O701 1.259 . S
C693 O702 1.289 . S
C694 O703 1.246 . S
C694 O704 1.257 . S
C695 O683 1.251 . S
C695 O684 1.274 . S
C696 O681 1.245 . S
C696 O682 1.257 . S
C697 O686 1.259 . S
C697 O687 1.289 . S
C698 O685 1.246 . S
C698 O688 1.257 . S
C699 O689 1.274 . S
C699 O690 1.251 . S
C700 O691 1.257 . S
C700 O692 1.245 . S
O701 Co672 2.286 . S
O701 C693 1.259 . S
O702 Co672 2.069 . S
O702 C693 1.289 . S
O703 Co674 2.142 1_665 S
O703 C694 1.246 . S
O704 Co672 2.015 1_655 S
O704 C694 1.257 . S
Co705 O708 2.042 1_556 S
Co705 O715 2.264 1_556 S
Co705 O734 2.286 . S
Co705 O735 2.069 . S
Co705 O737 2.015 . S
Co706 O708 2.122 . S
Co706 O714 2.073 . S
Co706 O715 2.327 . S
Co706 O716 1.976 . S
Co707 O708 2.086 1_545 S
Co707 O710 2.088 1_554 S
Co707 O717 2.111 1_545 S
Co707 O718 2.144 . S
Co707 O722 2.112 1_554 S
Co707 O736 2.143 1_544 S
O708 Co705 2.042 1_554 S
O708 Co706 2.122 . S
O708 Co707 2.086 1_565 S
O708 H709 0.980 . S
H709 O708 0.980 . S
O710 Co707 2.088 1_556 S
O710 Co711 2.042 1_556 S
O710 Co712 2.122 . S
O710 H713 0.980 . S
Co711 O710 2.042 1_554 S
Co711 O719 2.286 . S
Co711 O720 2.069 . S
Co711 O721 2.015 . S
Co711 O724 2.264 1_554 S
Co712 O710 2.122 . S
Co712 O723 1.976 . S
Co712 O724 2.327 . S
Co712 O725 2.073 . S
H713 O710 0.980 . S
O714 Co706 2.073 . S
O714 C729 1.245 . S
O715 Co705 2.264 1_554 S
O715 Co706 2.327 . S
O715 C729 1.257 . S
O716 Co706 1.976 . S
O716 C728 1.251 . S
O717 Co707 2.111 1_565 S
O717 C728 1.274 . S
O718 Co707 2.144 . S
O718 C731 1.246 . S
O719 Co711 2.286 . S
O719 C730 1.259 . S
O720 Co711 2.069 . S
O720 C730 1.289 . S
O721 Co711 2.015 . S
O721 C731 1.257 . S
O722 Co707 2.112 1_556 S
O722 C732 1.274 . S
O723 Co712 1.976 . S
O723 C732 1.251 . S
O724 Co711 2.264 1_556 S
O724 Co712 2.327 . S
O724 C733 1.257 . S
O725 Co712 2.073 . S
O725 C733 1.245 . S
C726 O734 1.259 . S
C726 O735 1.289 . S
C727 O736 1.246 . S
C727 O737 1.257 . S
C728 O716 1.251 . S
C728 O717 1.274 . S
C729 O714 1.245 . S
C729 O715 1.257 . S
C730 O719 1.259 . S
C730 O720 1.289 . S
C731 O718 1.246 . S
C731 O721 1.257 . S
C732 O722 1.274 . S
C732 O723 1.251 . S
C733 O724 1.257 . S
C733 O725 1.245 . S
O734 Co705 2.286 . S
O734 C726 1.259 . S
O735 Co705 2.069 . S
O735 C726 1.289 . S
O736 Co707 2.143 1_566 S
O736 C727 1.246 . S
O737 Co705 2.015 . S
O737 C727 1.257 . S
Co738 O741 2.042 1_556 S
Co738 O748 2.264 1_556 S
Co738 O767 2.286 . S
Co738 O768 2.069 . S
Co738 O770 2.015 1_455 S
Co739 O741 2.122 . S
Co739 O747 2.073 . S
Co739 O748 2.327 . S
Co739 O749 1.976 1_455 S
Co740 O741 2.090 . S
Co740 O743 2.084 1_454 S
Co740 O750 2.110 1_455 S
Co740 O751 2.144 . S
Co740 O755 2.113 1_554 S
Co740 O769 2.143 1_454 S
O741 Co738 2.042 1_554 S
O741 Co739 2.122 . S
O741 Co740 2.090 . S
O741 H742 0.980 . S
H742 O741 0.980 . S
O743 Co740 2.084 1_656 S
O743 Co744 2.042 1_556 S
O743 Co745 2.122 . S
O743 H746 0.980 . S
Co744 O743 2.042 1_554 S
Co744 O752 2.286 . S
Co744 O753 2.069 . S
Co744 O754 2.015 1_655 S
Co744 O757 2.264 1_554 S
Co745 O743 2.122 . S
Co745 O756 1.976 1_655 S
Co745 O757 2.327 . S
Co745 O758 2.073 . S
H746 O743 0.980 . S
O747 Co739 2.073 . S
O747 C762 1.245 . S
O748 Co738 2.264 1_554 S
O748 Co739 2.327 . S
O748 C762 1.257 . S
O749 Co739 1.976 1_655 S
O749 C761 1.251 . S
O750 Co740 2.110 1_655 S
O750 C761 1.274 . S
O751 Co740 2.144 . S
O751 C764 1.246 . S
O752 Co744 2.286 . S
O752 C763 1.259 . S
O753 Co744 2.069 . S
O753 C763 1.289 . S
O754 Co744 2.015 1_455 S
O754 C764 1.257 . S
O755 Co740 2.113 1_556 S
O755 C765 1.274 . S
O756 Co745 1.976 1_455 S
O756 C765 1.251 . S
O757 Co744 2.264 1_556 S
O757 Co745 2.327 . S
O757 C766 1.257 . S
O758 Co745 2.073 . S
O758 C766 1.245 . S
C759 O767 1.259 . S
C759 O768 1.289 . S
C760 O769 1.246 . S
C760 O770 1.257 . S
C761 O749 1.251 . S
C761 O750 1.274 . S
C762 O747 1.245 . S
C762 O748 1.257 . S
C763 O752 1.259 . S
C763 O753 1.289 . S
C764 O751 1.246 . S
C764 O754 1.257 . S
C765 O755 1.274 . S
C765 O756 1.251 . S
C766 O757 1.257 . S
C766 O758 1.245 . S
O767 Co738 2.286 . S
O767 C759 1.259 . S
O768 Co738 2.069 . S
O768 C759 1.289 . S
O769 Co740 2.143 1_656 S
O769 C760 1.246 . S
O770 Co738 2.015 1_655 S
O770 C760 1.257 . S
Co771 O774 2.042 1_556 S
Co771 O781 2.264 1_556 S
Co771 O800 2.286 . S
Co771 O801 2.069 . S
Co771 O803 2.015 . S
Co772 O774 2.122 . S
Co772 O780 2.073 . S
Co772 O781 2.327 . S
Co772 O782 1.976 . S
Co773 O774 2.087 . S
Co773 O776 2.087 1_554 S
Co773 O783 2.111 . S
Co773 O784 2.143 . S
Co773 O788 2.111 1_554 S
Co773 O802 2.143 1_554 S
O774 Co771 2.042 1_554 S
O774 Co772 2.122 . S
O774 Co773 2.087 . S
O774 H775 0.980 . S
H775 O774 0.980 . S
O776 Co773 2.087 1_556 S
O776 Co777 2.042 1_556 S
O776 Co778 2.122 . S
O776 H779 0.980 . S
Co777 O776 2.042 1_554 S
Co777 O785 2.286 . S
Co777 O786 2.069 . S
Co777 O787 2.015 . S
Co777 O790 2.264 1_554 S
Co778 O776 2.122 . S
Co778 O789 1.976 . S
Co778 O790 2.327 . S
Co778 O791 2.073 . S
H779 O776 0.980 . S
O780 Co772 2.073 . S
O780 C795 1.245 . S
O781 Co771 2.264 1_554 S
O781 Co772 2.327 . S
O781 C795 1.257 . S
O782 Co772 1.976 . S
O782 C794 1.251 . S
O783 Co773 2.111 . S
O783 C794 1.274 . S
O784 Co773 2.143 . S
O784 C797 1.246 . S
O785 Co777 2.286 . S
O785 C796 1.259 . S
O786 Co777 2.069 . S
O786 C796 1.289 . S
O787 Co777 2.015 . S
O787 C797 1.257 . S
O788 Co773 2.111 1_556 S
O788 C798 1.274 . S
O789 Co778 1.976 . S
O789 C798 1.251 . S
O790 Co777 2.264 1_556 S
O790 Co778 2.327 . S
O790 C799 1.257 . S
O791 Co778 2.073 . S
O791 C799 1.245 . S
C792 O800 1.259 . S
C792 O801 1.289 . S
C793 O802 1.246 . S
C793 O803 1.257 . S
C794 O782 1.251 . S
C794 O783 1.274 . S
C795 O780 1.245 . S
C795 O781 1.257 . S
C796 O785 1.259 . S
C796 O786 1.289 . S
C797 O784 1.246 . S
C797 O787 1.257 . S
C798 O788 1.274 . S
C798 O789 1.251 . S
C799 O790 1.257 . S
C799 O791 1.245 . S
O800 Co771 2.286 . S
O800 C792 1.259 . S
O801 Co771 2.069 . S
O801 C792 1.289 . S
O802 Co773 2.143 1_556 S
O802 C793 1.246 . S
O803 Co771 2.015 . S
O803 C793 1.257 . S
Co804 O807 2.042 . S
Co804 O814 2.264 . S
Co804 O833 2.286 . S
Co804 O834 2.069 . S
Co804 O836 2.015 . S
Co805 O807 2.122 . S
Co805 O813 2.073 . S
Co805 O814 2.327 . S
Co805 O815 1.976 . S
Co806 O807 2.090 . S
Co806 O809 2.084 1_455 S
Co806 O816 2.112 . S
Co806 O817 2.142 1_455 S
Co806 O821 2.111 1_455 S
Co806 O835 2.145 . S
O807 Co804 2.042 . S
O807 Co805 2.122 . S
O807 Co806 2.090 . S
O807 H808 0.980 . S
H808 O807 0.980 . S
O809 Co806 2.084 1_655 S
O809 Co810 2.042 . S
O809 Co811 2.122 . S
O809 H812 0.980 . S
Co810 O809 2.042 . S
Co810 O818 2.286 . S
Co810 O819 2.069 . S
Co810 O820 2.015 . S
Co810 O823 2.264 . S
Co811 O809 2.122 . S
Co811 O822 1.976 . S
Co811 O823 2.327 . S
Co811 O824 2.073 . S
H812 O809 0.980 . S
O813 Co805 2.073 . S
O813 C828 1.245 . S
O814 Co804 2.264 . S
O814 Co805 2.327 . S
O814 C828 1.257 . S
O815 Co805 1.976 . S
O815 C827 1.251 . S
O816 Co806 2.112 . S
O816 C827 1.274 . S
O817 Co806 2.142 1_655 S
O817 C830 1.246 . S
O818 Co810 2.286 . S
O818 C829 1.259 . S
O819 Co810 2.069 . S
O819 C829 1.289 . S
O820 Co810 2.015 . S
O820 C830 1.257 . S
O821 Co806 2.111 1_655 S
O821 C831 1.274 . S
O822 Co811 1.976 . S
O822 C831 1.251 . S
O823 Co810 2.264 . S
O823 Co811 2.327 . S
O823 C832 1.257 . S
O824 Co811 2.073 . S
O824 C832 1.245 . S
C825 O833 1.259 . S
C825 O834 1.289 . S
C826 O835 1.246 . S
C826 O836 1.257 . S
C827 O815 1.251 . S
C827 O816 1.274 . S
C828 O813 1.245 . S
C828 O814 1.257 . S
C829 O818 1.259 . S
C829 O819 1.289 . S
C830 O817 1.246 . S
C830 O820 1.257 . S
C831 O821 1.274 . S
C831 O822 1.251 . S
C832 O823 1.257 . S
C832 O824 1.245 . S
O833 Co804 2.286 . S
O833 C825 1.259 . S
O834 Co804 2.069 . S
O834 C825 1.289 . S
O835 Co806 2.145 . S
O835 C826 1.246 . S
O836 Co804 2.015 . S
O836 C826 1.257 . S
Co837 O840 2.042 . S
Co837 O847 2.264 . S
Co837 O866 2.286 . S
Co837 O867 2.069 . S
Co837 O869 2.015 1_565 S
Co838 O840 2.122 . S
Co838 O846 2.073 . S
Co838 O847 2.327 . S
Co838 O848 1.976 1_565 S
Co839 O840 2.086 1_545 S
Co839 O842 2.088 . S
Co839 O849 2.112 . S
Co839 O850 2.143 1_545 S
Co839 O854 2.111 1_545 S
Co839 O868 2.144 . S
O840 Co837 2.042 . S
O840 Co838 2.122 . S
O840 Co839 2.086 1_565 S
O840 H841 0.980 . S
H841 O840 0.980 . S
O842 Co839 2.088 . S
O842 Co843 2.042 . S
O842 Co844 2.122 . S
O842 H845 0.980 . S
Co843 O842 2.042 . S
Co843 O851 2.286 . S
Co843 O852 2.069 . S
Co843 O853 2.015 1_545 S
Co843 O856 2.264 . S
Co844 O842 2.122 . S
Co844 O855 1.976 1_545 S
Co844 O856 2.327 . S
Co844 O857 2.073 . S
H845 O842 0.980 . S
O846 Co838 2.073 . S
O846 C861 1.245 . S
O847 Co837 2.264 . S
O847 Co838 2.327 . S
O847 C861 1.257 . S
O848 Co838 1.976 1_545 S
O848 C860 1.251 . S
O849 Co839 2.112 . S
O849 C860 1.274 . S
O850 Co839 2.143 1_565 S
O850 C863 1.246 . S
O851 Co843 2.286 . S
O851 C862 1.259 . S
O852 Co843 2.069 . S
O852 C862 1.289 . S
O853 Co843 2.015 1_565 S
O853 C863 1.257 . S
O854 Co839 2.111 1_565 S
O854 C864 1.274 . S
O855 Co844 1.976 1_565 S
O855 C864 1.251 . S
O856 Co843 2.264 . S
O856 Co844 2.327 . S
O856 C865 1.257 . S
O857 Co844 2.073 . S
O857 C865 1.245 . S
C858 O866 1.259 . S
C858 O867 1.289 . S
C859 O868 1.246 . S
C859 O869 1.257 . S
C860 O848 1.251 . S
C860 O849 1.274 . S
C861 O846 1.245 . S
C861 O847 1.257 . S
C862 O851 1.259 . S
C862 O852 1.289 . S
C863 O850 1.246 . S
C863 O853 1.257 . S
C864 O854 1.274 . S
C864 O855 1.251 . S
C865 O856 1.257 . S
C865 O857 1.245 . S
O866 Co837 2.286 . S
O866 C858 1.259 . S
O867 Co837 2.069 . S
O867 C858 1.289 . S
O868 Co839 2.144 . S
O868 C859 1.246 . S
O869 Co837 2.015 1_545 S
O869 C859 1.257 . S
H870 C876 0.930 . S
H871 C879 0.930 . S
H872 C880 0.930 . S
H873 C881 0.930 . S
H874 C884 0.930 . S
H875 C885 0.930 . S
C876 H870 0.930 . S
C876 C877 1.355 . S
C876 C878 1.415 . S
C877 C876 1.355 . S
C877 C879 1.419 . S
C878 C876 1.415 . S
C878 C883 1.425 . S
C878 C885 1.409 . S
C879 H871 0.930 . S
C879 C877 1.419 . S
C879 C880 1.362 . S
C880 H872 0.930 . S
C880 C879 1.362 . S
C880 C883 1.409 . S
C881 H873 0.930 . S
C881 C882 1.355 . S
C881 C883 1.415 . S
C882 C881 1.355 . S
C882 C884 1.419 . S
C883 C878 1.425 . S
C883 C880 1.409 . S
C883 C881 1.415 . S
C884 H874 0.930 . S
C884 C882 1.419 . S
C884 C885 1.362 . S
C885 H875 0.930 . S
C885 C878 1.409 . S
C885 C884 1.362 . S
H886 C892 0.930 . S
H887 C895 0.930 . S
H888 C896 0.930 . S
H889 C897 0.930 . S
H890 C900 0.930 . S
H891 C901 0.930 . S
C892 H886 0.930 . S
C892 C893 1.355 . S
C892 C894 1.415 . S
C893 C892 1.355 . S
C893 C895 1.419 . S
C894 C892 1.415 . S
C894 C899 1.425 . S
C894 C901 1.409 . S
C895 H887 0.930 . S
C895 C893 1.419 . S
C895 C896 1.362 . S
C896 H888 0.930 . S
C896 C895 1.362 . S
C896 C899 1.409 . S
C897 H889 0.930 . S
C897 C898 1.355 . S
C897 C899 1.415 . S
C898 C897 1.355 . S
C898 C900 1.419 . S
C899 C894 1.425 . S
C899 C896 1.409 . S
C899 C897 1.415 . S
C900 H890 0.930 . S
C900 C898 1.419 . S
C900 C901 1.362 . S
C901 H891 0.930 . S
C901 C894 1.409 . S
C901 C900 1.362 . S
H902 C908 0.930 . S
H903 C911 0.930 . S
H904 C912 0.930 . S
H905 C913 0.930 . S
H906 C916 0.930 . S
H907 C917 0.930 . S
C908 H902 0.930 . S
C908 C909 1.355 . S
C908 C910 1.415 . S
C909 C908 1.355 . S
C909 C911 1.419 . S
C910 C908 1.415 . S
C910 C915 1.425 . S
C910 C917 1.409 . S
C911 H903 0.930 . S
C911 C909 1.419 . S
C911 C912 1.362 . S
C912 H904 0.930 . S
C912 C911 1.362 . S
C912 C915 1.409 . S
C913 H905 0.930 . S
C913 C914 1.355 . S
C913 C915 1.415 . S
C914 C913 1.355 . S
C914 C916 1.419 . S
C915 C910 1.425 . S
C915 C912 1.409 . S
C915 C913 1.415 . S
C916 H906 0.930 . S
C916 C914 1.419 . S
C916 C917 1.362 . S
C917 H907 0.930 . S
C917 C910 1.409 . S
C917 C916 1.362 . S
H918 C924 0.930 . S
H919 C927 0.930 . S
H920 C928 0.930 . S
H921 C929 0.930 . S
H922 C932 0.930 . S
H923 C933 0.930 . S
C924 H918 0.930 . S
C924 C925 1.355 . S
C924 C926 1.415 . S
C925 C924 1.355 . S
C925 C927 1.419 . S
C926 C924 1.415 . S
C926 C931 1.425 . S
C926 C933 1.409 . S
C927 H919 0.930 . S
C927 C925 1.419 . S
C927 C928 1.362 . S
C928 H920 0.930 . S
C928 C927 1.362 . S
C928 C931 1.409 . S
C929 H921 0.930 . S
C929 C930 1.355 . S
C929 C931 1.415 . S
C930 C929 1.355 . S
C930 C932 1.419 . S
C931 C926 1.425 . S
C931 C928 1.409 . S
C931 C929 1.415 . S
C932 H922 0.930 . S
C932 C930 1.419 . S
C932 C933 1.362 . S
C933 H923 0.930 . S
C933 C926 1.409 . S
C933 C932 1.362 . S
H934 C940 0.930 . S
H935 C943 0.930 . S
H936 C944 0.930 . S
H937 C945 0.930 . S
H938 C948 0.930 . S
H939 C949 0.930 . S
C940 H934 0.930 . S
C940 C941 1.355 . S
C940 C942 1.415 . S
C941 C940 1.355 . S
C941 C943 1.419 . S
C942 C940 1.415 . S
C942 C947 1.425 . S
C942 C949 1.409 . S
C943 H935 0.930 . S
C943 C941 1.419 . S
C943 C944 1.362 . S
C944 H936 0.930 . S
C944 C943 1.362 . S
C944 C947 1.409 . S
C945 H937 0.930 . S
C945 C946 1.355 . S
C945 C947 1.415 . S
C946 C945 1.355 . S
C946 C948 1.419 . S
C947 C942 1.425 . S
C947 C944 1.409 . S
C947 C945 1.415 . S
C948 H938 0.930 . S
C948 C946 1.419 . S
C948 C949 1.362 . S
C949 H939 0.930 . S
C949 C942 1.409 . S
C949 C948 1.362 . S
H950 C956 0.930 . S
H951 C959 0.930 . S
H952 C960 0.930 . S
H953 C961 0.930 . S
H954 C964 0.930 . S
H955 C965 0.930 . S
C956 H950 0.930 . S
C956 C957 1.355 . S
C956 C958 1.415 . S
C957 C956 1.355 . S
C957 C959 1.419 . S
C958 C956 1.415 . S
C958 C963 1.425 . S
C958 C965 1.409 . S
C959 H951 0.930 . S
C959 C957 1.419 . S
C959 C960 1.362 . S
C960 H952 0.930 . S
C960 C959 1.362 . S
C960 C963 1.409 . S
C961 H953 0.930 . S
C961 C962 1.355 . S
C961 C963 1.415 . S
C962 C961 1.355 . S
C962 C964 1.419 . S
C963 C958 1.425 . S
C963 C960 1.409 . S
C963 C961 1.415 . S
C964 H954 0.930 . S
C964 C962 1.419 . S
C964 C965 1.362 . S
C965 H955 0.930 . S
C965 C958 1.409 . S
C965 C964 1.362 . S
H966 C972 0.930 . S
H967 C975 0.930 . S
H968 C976 0.930 . S
H969 C977 0.930 . S
H970 C980 0.930 . S
H971 C981 0.930 . S
C972 H966 0.930 . S
C972 C973 1.355 . S
C972 C974 1.415 . S
C973 C972 1.355 . S
C973 C975 1.419 . S
C974 C972 1.415 . S
C974 C979 1.425 . S
C974 C981 1.409 . S
C975 H967 0.930 . S
C975 C973 1.419 . S
C975 C976 1.362 . S
C976 H968 0.930 . S
C976 C975 1.362 . S
C976 C979 1.409 . S
C977 H969 0.930 . S
C977 C978 1.355 . S
C977 C979 1.415 . S
C978 C977 1.355 . S
C978 C980 1.419 . S
C979 C974 1.425 . S
C979 C976 1.409 . S
C979 C977 1.415 . S
C980 H970 0.930 . S
C980 C978 1.419 . S
C980 C981 1.362 . S
C981 H971 0.930 . S
C981 C974 1.409 . S
C981 C980 1.362 . S
H982 C988 0.930 . S
H983 C991 0.930 . S
H984 C992 0.930 . S
H985 C993 0.930 . S
H986 C996 0.930 . S
H987 C997 0.930 . S
C988 H982 0.930 . S
C988 C989 1.355 . S
C988 C990 1.415 . S
C989 C988 1.355 . S
C989 C991 1.419 . S
C990 C988 1.415 . S
C990 C995 1.425 . S
C990 C997 1.409 . S
C991 H983 0.930 . S
C991 C989 1.419 . S
C991 C992 1.362 . S
C992 H984 0.930 . S
C992 C991 1.362 . S
C992 C995 1.409 . S
C993 H985 0.930 . S
C993 C994 1.355 . S
C993 C995 1.415 . S
C994 C993 1.355 . S
C994 C996 1.419 . S
C995 C990 1.425 . S
C995 C992 1.409 . S
C995 C993 1.415 . S
C996 H986 0.930 . S
C996 C994 1.419 . S
C996 C997 1.362 . S
C997 H987 0.930 . S
C997 C990 1.409 . S
C997 C996 1.362 . S
H998 C1004 0.930 . S
H999 C1007 0.930 . S
H1000 C1008 0.930 . S
H1001 C1009 0.930 . S
H1002 C1012 0.930 . S
H1003 C1013 0.930 . S
C1004 H998 0.930 . S
C1004 C1005 1.355 . S
C1004 C1006 1.415 . S
C1005 C1004 1.355 . S
C1005 C1007 1.419 . S
C1006 C1004 1.415 . S
C1006 C1011 1.425 . S
C1006 C1013 1.409 . S
C1007 H999 0.930 . S
C1007 C1005 1.419 . S
C1007 C1008 1.362 . S
C1008 H1000 0.930 . S
C1008 C1007 1.362 . S
C1008 C1011 1.409 . S
C1009 H1001 0.930 . S
C1009 C1010 1.355 . S
C1009 C1011 1.415 . S
C1010 C1009 1.355 . S
C1010 C1012 1.419 . S
C1011 C1006 1.425 . S
C1011 C1008 1.409 . S
C1011 C1009 1.415 . S
C1012 H1002 0.930 . S
C1012 C1010 1.419 . S
C1012 C1013 1.362 . S
C1013 H1003 0.930 . S
C1013 C1006 1.409 . S
C1013 C1012 1.362 . S
H1014 C1020 0.930 . S
H1015 C1023 0.930 . S
H1016 C1024 0.930 . S
H1017 C1025 0.930 . S
H1018 C1028 0.930 . S
H1019 C1029 0.930 . S
C1020 H1014 0.930 . S
C1020 C1021 1.355 . S
C1020 C1022 1.415 . S
C1021 C1020 1.355 . S
C1021 C1023 1.419 . S
C1022 C1020 1.415 . S
C1022 C1027 1.425 . S
C1022 C1029 1.409 . S
C1023 H1015 0.930 . S
C1023 C1021 1.419 . S
C1023 C1024 1.362 . S
C1024 H1016 0.930 . S
C1024 C1023 1.362 . S
C1024 C1027 1.409 . S
C1025 H1017 0.930 . S
C1025 C1026 1.355 . S
C1025 C1027 1.415 . S
C1026 C1025 1.355 . S
C1026 C1028 1.419 . S
C1027 C1022 1.425 . S
C1027 C1024 1.409 . S
C1027 C1025 1.415 . S
C1028 H1018 0.930 . S
C1028 C1026 1.419 . S
C1028 C1029 1.362 . S
C1029 H1019 0.930 . S
C1029 C1022 1.409 . S
C1029 C1028 1.362 . S
H1030 C1036 0.930 . S
H1031 C1039 0.930 . S
H1032 C1040 0.930 . S
H1033 C1041 0.930 . S
H1034 C1044 0.930 . S
H1035 C1045 0.930 . S
C1036 H1030 0.930 . S
C1036 C1037 1.355 . S
C1036 C1038 1.415 . S
C1037 C1036 1.355 . S
C1037 C1039 1.419 . S
C1038 C1036 1.415 . S
C1038 C1043 1.425 . S
C1038 C1045 1.409 . S
C1039 H1031 0.930 . S
C1039 C1037 1.419 . S
C1039 C1040 1.362 . S
C1040 H1032 0.930 . S
C1040 C1039 1.362 . S
C1040 C1043 1.409 . S
C1041 H1033 0.930 . S
C1041 C1042 1.355 . S
C1041 C1043 1.415 . S
C1042 C1041 1.355 . S
C1042 C1044 1.419 . S
C1043 C1038 1.425 . S
C1043 C1040 1.409 . S
C1043 C1041 1.415 . S
C1044 H1034 0.930 . S
C1044 C1042 1.419 . S
C1044 C1045 1.362 . S
C1045 H1035 0.930 . S
C1045 C1038 1.409 . S
C1045 C1044 1.362 . S
H1046 C1052 0.930 . S
H1047 C1055 0.930 . S
H1048 C1056 0.930 . S
H1049 C1057 0.930 . S
H1050 C1060 0.930 . S
H1051 C1061 0.930 . S
C1052 H1046 0.930 . S
C1052 C1053 1.355 . S
C1052 C1054 1.415 . S
C1053 C1052 1.355 . S
C1053 C1055 1.419 . S
C1054 C1052 1.415 . S
C1054 C1059 1.425 . S
C1054 C1061 1.409 . S
C1055 H1047 0.930 . S
C1055 C1053 1.419 . S
C1055 C1056 1.362 . S
C1056 H1048 0.930 . S
C1056 C1055 1.362 . S
C1056 C1059 1.409 . S
C1057 H1049 0.930 . S
C1057 C1058 1.355 . S
C1057 C1059 1.415 . S
C1058 C1057 1.355 . S
C1058 C1060 1.419 . S
C1059 C1054 1.425 . S
C1059 C1056 1.409 . S
C1059 C1057 1.415 . S
C1060 H1050 0.930 . S
C1060 C1058 1.419 . S
C1060 C1061 1.362 . S
C1061 H1051 0.930 . S
C1061 C1054 1.409 . S
C1061 C1060 1.362 . S
H1062 C1068 0.930 . S
H1063 C1071 0.930 . S
H1064 C1072 0.930 . S
H1065 C1073 0.930 . S
H1066 C1076 0.930 . S
H1067 C1077 0.930 . S
C1068 H1062 0.930 . S
C1068 C1069 1.355 . S
C1068 C1070 1.415 . S
C1069 C1068 1.355 . S
C1069 C1071 1.419 . S
C1070 C1068 1.415 . S
C1070 C1075 1.425 . S
C1070 C1077 1.409 . S
C1071 H1063 0.930 . S
C1071 C1069 1.419 . S
C1071 C1072 1.362 . S
C1072 H1064 0.930 . S
C1072 C1071 1.362 . S
C1072 C1075 1.409 . S
C1073 H1065 0.930 . S
C1073 C1074 1.355 . S
C1073 C1075 1.415 . S
C1074 C1073 1.355 . S
C1074 C1076 1.419 . S
C1075 C1070 1.425 . S
C1075 C1072 1.409 . S
C1075 C1073 1.415 . S
C1076 H1066 0.930 . S
C1076 C1074 1.419 . S
C1076 C1077 1.362 . S
C1077 H1067 0.930 . S
C1077 C1070 1.409 . S
C1077 C1076 1.362 . S
H1078 C1084 0.930 . S
H1079 C1087 0.930 . S
H1080 C1088 0.930 . S
H1081 C1089 0.930 . S
H1082 C1092 0.930 . S
H1083 C1093 0.930 . S
C1084 H1078 0.930 . S
C1084 C1085 1.355 . S
C1084 C1086 1.415 . S
C1085 C1084 1.355 . S
C1085 C1087 1.419 . S
C1086 C1084 1.415 . S
C1086 C1091 1.425 . S
C1086 C1093 1.409 . S
C1087 H1079 0.930 . S
C1087 C1085 1.419 . S
C1087 C1088 1.362 . S
C1088 H1080 0.930 . S
C1088 C1087 1.362 . S
C1088 C1091 1.409 . S
C1089 H1081 0.930 . S
C1089 C1090 1.355 . S
C1089 C1091 1.415 . S
C1090 C1089 1.355 . S
C1090 C1092 1.419 . S
C1091 C1086 1.425 . S
C1091 C1088 1.409 . S
C1091 C1089 1.415 . S
C1092 H1082 0.930 . S
C1092 C1090 1.419 . S
C1092 C1093 1.362 . S
C1093 H1083 0.930 . S
C1093 C1086 1.409 . S
C1093 C1092 1.362 . S
H1094 C1100 0.930 . S
H1095 C1103 0.930 . S
H1096 C1104 0.930 . S
H1097 C1105 0.930 . S
H1098 C1108 0.930 . S
H1099 C1109 0.930 . S
C1100 H1094 0.930 . S
C1100 C1101 1.355 . S
C1100 C1102 1.415 . S
C1101 C1100 1.355 . S
C1101 C1103 1.419 . S
C1102 C1100 1.415 . S
C1102 C1107 1.425 . S
C1102 C1109 1.409 . S
C1103 H1095 0.930 . S
C1103 C1101 1.419 . S
C1103 C1104 1.362 . S
C1104 H1096 0.930 . S
C1104 C1103 1.362 . S
C1104 C1107 1.409 . S
C1105 H1097 0.930 . S
C1105 C1106 1.355 . S
C1105 C1107 1.415 . S
C1106 C1105 1.355 . S
C1106 C1108 1.419 . S
C1107 C1102 1.425 . S
C1107 C1104 1.409 . S
C1107 C1105 1.415 . S
C1108 H1098 0.930 . S
C1108 C1106 1.419 . S
C1108 C1109 1.362 . S
C1109 H1099 0.930 . S
C1109 C1102 1.409 . S
C1109 C1108 1.362 . S
H1110 C1116 0.930 . S
H1111 C1119 0.930 . S
H1112 C1120 0.930 . S
H1113 C1121 0.930 . S
H1114 C1124 0.930 . S
H1115 C1125 0.930 . S
C1116 H1110 0.930 . S
C1116 C1117 1.355 . S
C1116 C1118 1.415 . S
C1117 C1116 1.355 . S
C1117 C1119 1.419 . S
C1118 C1116 1.415 . S
C1118 C1123 1.425 . S
C1118 C1125 1.409 . S
C1119 H1111 0.930 . S
C1119 C1117 1.419 . S
C1119 C1120 1.362 . S
C1120 H1112 0.930 . S
C1120 C1119 1.362 . S
C1120 C1123 1.409 . S
C1121 H1113 0.930 . S
C1121 C1122 1.355 . S
C1121 C1123 1.415 . S
C1122 C1121 1.355 . S
C1122 C1124 1.419 . S
C1123 C1118 1.425 . S
C1123 C1120 1.409 . S
C1123 C1121 1.415 . S
C1124 H1114 0.930 . S
C1124 C1122 1.419 . S
C1124 C1125 1.362 . S
C1125 H1115 0.930 . S
C1125 C1118 1.409 . S
C1125 C1124 1.362 . S
H1126 C1132 0.930 . S
H1127 C1135 0.930 . S
H1128 C1136 0.930 . S
H1129 C1137 0.930 . S
H1130 C1140 0.930 . S
H1131 C1141 0.930 . S
C1132 H1126 0.930 . S
C1132 C1133 1.355 . S
C1132 C1134 1.415 . S
C1133 C1132 1.355 . S
C1133 C1135 1.419 . S
C1134 C1132 1.415 . S
C1134 C1139 1.425 . S
C1134 C1141 1.409 . S
C1135 H1127 0.930 . S
C1135 C1133 1.419 . S
C1135 C1136 1.362 . S
C1136 H1128 0.930 . S
C1136 C1135 1.362 . S
C1136 C1139 1.409 . S
C1137 H1129 0.930 . S
C1137 C1138 1.355 . S
C1137 C1139 1.415 . S
C1138 C1137 1.355 . S
C1138 C1140 1.419 . S
C1139 C1134 1.425 . S
C1139 C1136 1.409 . S
C1139 C1137 1.415 . S
C1140 H1130 0.930 . S
C1140 C1138 1.419 . S
C1140 C1141 1.362 . S
C1141 H1131 0.930 . S
C1141 C1134 1.409 . S
C1141 C1140 1.362 . S
H1142 C1148 0.930 . S
H1143 C1151 0.930 . S
H1144 C1152 0.930 . S
H1145 C1153 0.930 . S
H1146 C1156 0.930 . S
H1147 C1157 0.930 . S
C1148 H1142 0.930 . S
C1148 C1149 1.355 . S
C1148 C1150 1.415 . S
C1149 C1148 1.355 . S
C1149 C1151 1.419 . S
C1150 C1148 1.415 . S
C1150 C1155 1.425 . S
C1150 C1157 1.409 . S
C1151 H1143 0.930 . S
C1151 C1149 1.419 . S
C1151 C1152 1.362 . S
C1152 H1144 0.930 . S
C1152 C1151 1.362 . S
C1152 C1155 1.409 . S
C1153 H1145 0.930 . S
C1153 C1154 1.355 . S
C1153 C1155 1.415 . S
C1154 C1153 1.355 . S
C1154 C1156 1.419 . S
C1155 C1150 1.425 . S
C1155 C1152 1.409 . S
C1155 C1153 1.415 . S
C1156 H1146 0.930 . S
C1156 C1154 1.419 . S
C1156 C1157 1.362 . S
C1157 H1147 0.930 . S
C1157 C1150 1.409 . S
C1157 C1156 1.362 . S
H1158 C1164 0.930 . S
H1159 C1167 0.930 . S
H1160 C1168 0.930 . S
H1161 C1169 0.930 . S
H1162 C1172 0.930 . S
H1163 C1173 0.930 . S
C1164 H1158 0.930 . S
C1164 C1165 1.355 . S
C1164 C1166 1.415 . S
C1165 C1164 1.355 . S
C1165 C1167 1.419 . S
C1166 C1164 1.415 . S
C1166 C1171 1.425 . S
C1166 C1173 1.409 . S
C1167 H1159 0.930 . S
C1167 C1165 1.419 . S
C1167 C1168 1.362 . S
C1168 H1160 0.930 . S
C1168 C1167 1.362 . S
C1168 C1171 1.409 . S
C1169 H1161 0.930 . S
C1169 C1170 1.355 . S
C1169 C1171 1.415 . S
C1170 C1169 1.355 . S
C1170 C1172 1.419 . S
C1171 C1166 1.425 . S
C1171 C1168 1.409 . S
C1171 C1169 1.415 . S
C1172 H1162 0.930 . S
C1172 C1170 1.419 . S
C1172 C1173 1.362 . S
C1173 H1163 0.930 . S
C1173 C1166 1.409 . S
C1173 C1172 1.362 . S
H1174 C1180 0.930 . S
H1175 C1183 0.930 . S
H1176 C1184 0.930 . S
H1177 C1185 0.930 . S
H1178 C1188 0.930 . S
H1179 C1189 0.930 . S
C1180 H1174 0.930 . S
C1180 C1181 1.355 . S
C1180 C1182 1.415 . S
C1181 C1180 1.355 . S
C1181 C1183 1.419 . S
C1182 C1180 1.415 . S
C1182 C1187 1.425 . S
C1182 C1189 1.409 . S
C1183 H1175 0.930 . S
C1183 C1181 1.419 . S
C1183 C1184 1.362 . S
C1184 H1176 0.930 . S
C1184 C1183 1.362 . S
C1184 C1187 1.409 . S
C1185 H1177 0.930 . S
C1185 C1186 1.355 . S
C1185 C1187 1.415 . S
C1186 C1185 1.355 . S
C1186 C1188 1.419 . S
C1187 C1182 1.425 . S
C1187 C1184 1.409 . S
C1187 C1185 1.415 . S
C1188 H1178 0.930 . S
C1188 C1186 1.419 . S
C1188 C1189 1.362 . S
C1189 H1179 0.930 . S
C1189 C1182 1.409 . S
C1189 C1188 1.362 . S
H1190 C1196 0.930 . S
H1191 C1199 0.930 . S
H1192 C1200 0.930 . S
H1193 C1201 0.930 . S
H1194 C1204 0.930 . S
H1195 C1205 0.930 . S
C1196 H1190 0.930 . S
C1196 C1197 1.355 . S
C1196 C1198 1.415 . S
C1197 C1196 1.355 . S
C1197 C1199 1.419 . S
C1198 C1196 1.415 . S
C1198 C1203 1.425 . S
C1198 C1205 1.409 . S
C1199 H1191 0.930 . S
C1199 C1197 1.419 . S
C1199 C1200 1.362 . S
C1200 H1192 0.930 . S
C1200 C1199 1.362 . S
C1200 C1203 1.409 . S
C1201 H1193 0.930 . S
C1201 C1202 1.355 . S
C1201 C1203 1.415 . S
C1202 C1201 1.355 . S
C1202 C1204 1.419 . S
C1203 C1198 1.425 . S
C1203 C1200 1.409 . S
C1203 C1201 1.415 . S
C1204 H1194 0.930 . S
C1204 C1202 1.419 . S
C1204 C1205 1.362 . S
C1205 H1195 0.930 . S
C1205 C1198 1.409 . S
C1205 C1204 1.362 . S
H1206 C1212 0.930 . S
H1207 C1215 0.930 . S
H1208 C1216 0.930 . S
H1209 C1217 0.930 . S
H1210 C1220 0.930 . S
H1211 C1221 0.930 . S
C1212 H1206 0.930 . S
C1212 C1213 1.355 . S
C1212 C1214 1.415 . S
C1213 C1212 1.355 . S
C1213 C1215 1.419 . S
C1214 C1212 1.415 . S
C1214 C1219 1.425 . S
C1214 C1221 1.409 . S
C1215 H1207 0.930 . S
C1215 C1213 1.419 . S
C1215 C1216 1.362 . S
C1216 H1208 0.930 . S
C1216 C1215 1.362 . S
C1216 C1219 1.409 . S
C1217 H1209 0.930 . S
C1217 C1218 1.355 . S
C1217 C1219 1.415 . S
C1218 C1217 1.355 . S
C1218 C1220 1.419 . S
C1219 C1214 1.425 . S
C1219 C1216 1.409 . S
C1219 C1217 1.415 . S
C1220 H1210 0.930 . S
C1220 C1218 1.419 . S
C1220 C1221 1.362 . S
C1221 H1211 0.930 . S
C1221 C1214 1.409 . S
C1221 C1220 1.362 . S
H1222 C1228 0.930 . S
H1223 C1231 0.930 . S
H1224 C1232 0.930 . S
H1225 C1233 0.930 . S
H1226 C1236 0.930 . S
H1227 C1237 0.930 . S
C1228 H1222 0.930 . S
C1228 C1229 1.355 . S
C1228 C1230 1.415 . S
C1229 C1228 1.355 . S
C1229 C1231 1.419 . S
C1230 C1228 1.415 . S
C1230 C1235 1.425 . S
C1230 C1237 1.409 . S
C1231 H1223 0.930 . S
C1231 C1229 1.419 . S
C1231 C1232 1.362 . S
C1232 H1224 0.930 . S
C1232 C1231 1.362 . S
C1232 C1235 1.409 . S
C1233 H1225 0.930 . S
C1233 C1234 1.355 . S
C1233 C1235 1.415 . S
C1234 C1233 1.355 . S
C1234 C1236 1.419 . S
C1235 C1230 1.425 . S
C1235 C1232 1.409 . S
C1235 C1233 1.415 . S
C1236 H1226 0.930 . S
C1236 C1234 1.419 . S
C1236 C1237 1.362 . S
C1237 H1227 0.930 . S
C1237 C1230 1.409 . S
C1237 C1236 1.362 . S
H1238 C1244 0.930 . S
H1239 C1247 0.930 . S
H1240 C1248 0.930 . S
H1241 C1249 0.930 . S
H1242 C1252 0.930 . S
H1243 C1253 0.930 . S
C1244 H1238 0.930 . S
C1244 C1245 1.355 . S
C1244 C1246 1.415 . S
C1245 C1244 1.355 . S
C1245 C1247 1.419 . S
C1246 C1244 1.415 . S
C1246 C1251 1.425 . S
C1246 C1253 1.409 . S
C1247 H1239 0.930 . S
C1247 C1245 1.419 . S
C1247 C1248 1.362 . S
C1248 H1240 0.930 . S
C1248 C1247 1.362 . S
C1248 C1251 1.409 . S
C1249 H1241 0.930 . S
C1249 C1250 1.355 . S
C1249 C1251 1.415 . S
C1250 C1249 1.355 . S
C1250 C1252 1.419 . S
C1251 C1246 1.425 . S
C1251 C1248 1.409 . S
C1251 C1249 1.415 . S
C1252 H1242 0.930 . S
C1252 C1250 1.419 . S
C1252 C1253 1.362 . S
C1253 H1243 0.930 . S
C1253 C1246 1.409 . S
C1253 C1252 1.362 . S
H1254 C1260 0.930 . S
H1255 C1263 0.930 . S
H1256 C1264 0.930 . S
H1257 C1265 0.930 . S
H1258 C1268 0.930 . S
H1259 C1269 0.930 . S
C1260 H1254 0.930 . S
C1260 C1261 1.355 . S
C1260 C1262 1.415 . S
C1261 C1260 1.355 . S
C1261 C1263 1.419 . S
C1262 C1260 1.415 . S
C1262 C1267 1.425 . S
C1262 C1269 1.409 . S
C1263 H1255 0.930 . S
C1263 C1261 1.419 . S
C1263 C1264 1.362 . S
C1264 H1256 0.930 . S
C1264 C1263 1.362 . S
C1264 C1267 1.409 . S
C1265 H1257 0.930 . S
C1265 C1266 1.355 . S
C1265 C1267 1.415 . S
C1266 C1265 1.355 . S
C1266 C1268 1.419 . S
C1267 C1262 1.425 . S
C1267 C1264 1.409 . S
C1267 C1265 1.415 . S
C1268 H1258 0.930 . S
C1268 C1266 1.419 . S
C1268 C1269 1.362 . S
C1269 H1259 0.930 . S
C1269 C1262 1.409 . S
C1269 C1268 1.362 . S
H1270 C1276 0.930 . S
H1271 C1279 0.930 . S
H1272 C1280 0.930 . S
H1273 C1281 0.930 . S
H1274 C1284 0.930 . S
H1275 C1285 0.930 . S
C1276 H1270 0.930 . S
C1276 C1277 1.355 . S
C1276 C1278 1.415 . S
C1277 C1276 1.355 . S
C1277 C1279 1.419 . S
C1278 C1276 1.415 . S
C1278 C1283 1.425 . S
C1278 C1285 1.409 . S
C1279 H1271 0.930 . S
C1279 C1277 1.419 . S
C1279 C1280 1.362 . S
C1280 H1272 0.930 . S
C1280 C1279 1.362 . S
C1280 C1283 1.409 . S
C1281 H1273 0.930 . S
C1281 C1282 1.355 . S
C1281 C1283 1.415 . S
C1282 C1281 1.355 . S
C1282 C1284 1.419 . S
C1283 C1278 1.425 . S
C1283 C1280 1.409 . S
C1283 C1281 1.415 . S
C1284 H1274 0.930 . S
C1284 C1282 1.419 . S
C1284 C1285 1.362 . S
C1285 H1275 0.930 . S
C1285 C1278 1.409 . S
C1285 C1284 1.362 . S
H1286 C1292 0.930 . S
H1287 C1295 0.930 . S
H1288 C1296 0.930 . S
H1289 C1297 0.930 . S
H1290 C1300 0.930 . S
H1291 C1301 0.930 . S
C1292 H1286 0.930 . S
C1292 C1293 1.355 . S
C1292 C1294 1.415 . S
C1293 C1292 1.355 . S
C1293 C1295 1.419 . S
C1294 C1292 1.415 . S
C1294 C1299 1.425 . S
C1294 C1301 1.409 . S
C1295 H1287 0.930 . S
C1295 C1293 1.419 . S
C1295 C1296 1.362 . S
C1296 H1288 0.930 . S
C1296 C1295 1.362 . S
C1296 C1299 1.409 . S
C1297 H1289 0.930 . S
C1297 C1298 1.355 . S
C1297 C1299 1.415 . S
C1298 C1297 1.355 . S
C1298 C1300 1.419 . S
C1299 C1294 1.425 . S
C1299 C1296 1.409 . S
C1299 C1297 1.415 . S
C1300 H1290 0.930 . S
C1300 C1298 1.419 . S
C1300 C1301 1.362 . S
C1301 H1291 0.930 . S
C1301 C1294 1.409 . S
C1301 C1300 1.362 . S
H1302 C1308 0.930 . S
H1303 C1311 0.930 . S
H1304 C1312 0.930 . S
H1305 C1313 0.930 . S
H1306 C1316 0.930 . S
H1307 C1317 0.930 . S
C1308 H1302 0.930 . S
C1308 C1309 1.355 . S
C1308 C1310 1.415 . S
C1309 C1308 1.355 . S
C1309 C1311 1.419 . S
C1310 C1308 1.415 . S
C1310 C1315 1.425 . S
C1310 C1317 1.409 . S
C1311 H1303 0.930 . S
C1311 C1309 1.419 . S
C1311 C1312 1.362 . S
C1312 H1304 0.930 . S
C1312 C1311 1.362 . S
C1312 C1315 1.409 . S
C1313 H1305 0.930 . S
C1313 C1314 1.355 . S
C1313 C1315 1.415 . S
C1314 C1313 1.355 . S
C1314 C1316 1.419 . S
C1315 C1310 1.425 . S
C1315 C1312 1.409 . S
C1315 C1313 1.415 . S
C1316 H1306 0.930 . S
C1316 C1314 1.419 . S
C1316 C1317 1.362 . S
C1317 H1307 0.930 . S
C1317 C1310 1.409 . S
C1317 C1316 1.362 . S
H1318 C1324 0.930 . S
H1319 C1327 0.930 . S
H1320 C1328 0.930 . S
H1321 C1329 0.930 . S
H1322 C1332 0.930 1_556 S
H1323 C1333 0.930 . S
C1324 H1318 0.930 . S
C1324 C1325 1.355 . S
C1324 C1326 1.415 . S
C1325 C1324 1.355 . S
C1325 C1327 1.419 . S
C1326 C1324 1.415 . S
C1326 C1331 1.425 . S
C1326 C1333 1.409 . S
C1327 H1319 0.930 . S
C1327 C1325 1.419 . S
C1327 C1328 1.362 . S
C1328 H1320 0.930 . S
C1328 C1327 1.362 . S
C1328 C1331 1.409 . S
C1329 H1321 0.930 . S
C1329 C1330 1.355 . S
C1329 C1331 1.415 . S
C1330 C1329 1.355 . S
C1330 C1332 1.419 . S
C1331 C1326 1.425 . S
C1331 C1328 1.409 . S
C1331 C1329 1.415 . S
C1332 H1322 0.930 1_554 S
C1332 C1330 1.419 . S
C1332 C1333 1.362 . S
C1333 H1323 0.930 . S
C1333 C1326 1.409 . S
C1333 C1332 1.362 . S
H1334 C1340 0.930 . S
H1335 C1343 0.930 . S
H1336 C1344 0.930 . S
H1337 C1345 0.930 . S
H1338 C1348 0.930 . S
H1339 C1349 0.930 . S
C1340 H1334 0.930 . S
C1340 C1341 1.355 . S
C1340 C1342 1.415 . S
C1341 C1340 1.355 . S
C1341 C1343 1.419 . S
C1342 C1340 1.415 . S
C1342 C1347 1.425 . S
C1342 C1349 1.409 . S
C1343 H1335 0.930 . S
C1343 C1341 1.419 . S
C1343 C1344 1.362 . S
C1344 H1336 0.930 . S
C1344 C1343 1.362 . S
C1344 C1347 1.409 . S
C1345 H1337 0.930 . S
C1345 C1346 1.355 . S
C1345 C1347 1.415 . S
C1346 C1345 1.355 . S
C1346 C1348 1.419 . S
C1347 C1342 1.425 . S
C1347 C1344 1.409 . S
C1347 C1345 1.415 . S
C1348 H1338 0.930 . S
C1348 C1346 1.419 . S
C1348 C1349 1.362 . S
C1349 H1339 0.930 . S
C1349 C1342 1.409 . S
C1349 C1348 1.362 . S
H1350 C1356 0.930 . S
H1351 C1359 0.930 . S
H1352 C1360 0.930 . S
H1353 C1361 0.930 . S
H1354 C1364 0.930 . S
H1355 C1365 0.930 . S
C1356 H1350 0.930 . S
C1356 C1357 1.355 . S
C1356 C1358 1.415 . S
C1357 C1356 1.355 . S
C1357 C1359 1.419 . S
C1358 C1356 1.415 . S
C1358 C1363 1.425 . S
C1358 C1365 1.409 . S
C1359 H1351 0.930 . S
C1359 C1357 1.419 . S
C1359 C1360 1.362 . S
C1360 H1352 0.930 . S
C1360 C1359 1.362 . S
C1360 C1363 1.409 . S
C1361 H1353 0.930 . S
C1361 C1362 1.355 . S
C1361 C1363 1.415 . S
C1362 C1361 1.355 . S
C1362 C1364 1.419 . S
C1363 C1358 1.425 . S
C1363 C1360 1.409 . S
C1363 C1361 1.415 . S
C1364 H1354 0.930 . S
C1364 C1362 1.419 . S
C1364 C1365 1.362 . S
C1365 H1355 0.930 . S
C1365 C1358 1.409 . S
C1365 C1364 1.362 . S
H1366 C1372 0.930 . S
H1367 C1375 0.930 . S
H1368 C1376 0.930 . S
H1369 C1377 0.930 . S
H1370 C1380 0.930 . S
H1371 C1381 0.930 . S
C1372 H1366 0.930 . S
C1372 C1373 1.355 . S
C1372 C1374 1.415 . S
C1373 C1372 1.355 . S
C1373 C1375 1.419 . S
C1374 C1372 1.415 . S
C1374 C1379 1.425 . S
C1374 C1381 1.409 . S
C1375 H1367 0.930 . S
C1375 C1373 1.419 . S
C1375 C1376 1.362 . S
C1376 H1368 0.930 . S
C1376 C1375 1.362 . S
C1376 C1379 1.409 . S
C1377 H1369 0.930 . S
C1377 C1378 1.355 . S
C1377 C1379 1.415 . S
C1378 C1377 1.355 . S
C1378 C1380 1.419 . S
C1379 C1374 1.425 . S
C1379 C1376 1.409 . S
C1379 C1377 1.415 . S
C1380 H1370 0.930 . S
C1380 C1378 1.419 . S
C1380 C1381 1.362 . S
C1381 H1371 0.930 . S
C1381 C1374 1.409 . S
C1381 C1380 1.362 . S
H1382 C1388 0.930 . S
H1383 C1391 0.930 . S
H1384 C1392 0.930 . S
H1385 C1393 0.930 . S
H1386 C1396 0.930 . S
H1387 C1397 0.930 . S
C1388 H1382 0.930 . S
C1388 C1389 1.355 . S
C1388 C1390 1.415 . S
C1389 C1388 1.355 . S
C1389 C1391 1.419 . S
C1390 C1388 1.415 . S
C1390 C1395 1.425 . S
C1390 C1397 1.409 . S
C1391 H1383 0.930 . S
C1391 C1389 1.419 . S
C1391 C1392 1.362 . S
C1392 H1384 0.930 . S
C1392 C1391 1.362 . S
C1392 C1395 1.409 . S
C1393 H1385 0.930 . S
C1393 C1394 1.355 . S
C1393 C1395 1.415 . S
C1394 C1393 1.355 . S
C1394 C1396 1.419 . S
C1395 C1390 1.425 . S
C1395 C1392 1.409 . S
C1395 C1393 1.415 . S
C1396 H1386 0.930 . S
C1396 C1394 1.419 . S
C1396 C1397 1.362 . S
C1397 H1387 0.930 . S
C1397 C1390 1.409 . S
C1397 C1396 1.362 . S
H1398 C1404 0.930 . S
H1399 C1407 0.930 . S
H1400 C1408 0.930 . S
H1401 C1409 0.930 . S
H1402 C1412 0.930 . S
H1403 C1413 0.930 . S
C1404 H1398 0.930 . S
C1404 C1405 1.355 . S
C1404 C1406 1.415 . S
C1405 C1404 1.355 . S
C1405 C1407 1.419 . S
C1406 C1404 1.415 . S
C1406 C1411 1.425 . S
C1406 C1413 1.409 . S
C1407 H1399 0.930 . S
C1407 C1405 1.419 . S
C1407 C1408 1.362 . S
C1408 H1400 0.930 . S
C1408 C1407 1.362 . S
C1408 C1411 1.409 . S
C1409 H1401 0.930 . S
C1409 C1410 1.355 . S
C1409 C1411 1.415 . S
C1410 C1409 1.355 . S
C1410 C1412 1.419 . S
C1411 C1406 1.425 . S
C1411 C1408 1.409 . S
C1411 C1409 1.415 . S
C1412 H1402 0.930 . S
C1412 C1410 1.419 . S
C1412 C1413 1.362 . S
C1413 H1403 0.930 . S
C1413 C1406 1.409 . S
C1413 C1412 1.362 . S
H1414 C1420 0.930 . S
H1415 C1423 0.930 . S
H1416 C1424 0.930 . S
H1417 C1425 0.930 . S
H1418 C1428 0.930 . S
H1419 C1429 0.930 . S
C1420 H1414 0.930 . S
C1420 C1421 1.355 . S
C1420 C1422 1.415 . S
C1421 C1420 1.355 . S
C1421 C1423 1.419 . S
C1422 C1420 1.415 . S
C1422 C1427 1.425 . S
C1422 C1429 1.409 . S
C1423 H1415 0.930 . S
C1423 C1421 1.419 . S
C1423 C1424 1.362 . S
C1424 H1416 0.930 . S
C1424 C1423 1.362 . S
C1424 C1427 1.409 . S
C1425 H1417 0.930 . S
C1425 C1426 1.355 . S
C1425 C1427 1.415 . S
C1426 C1425 1.355 . S
C1426 C1428 1.419 . S
C1427 C1422 1.425 . S
C1427 C1424 1.409 . S
C1427 C1425 1.415 . S
C1428 H1418 0.930 . S
C1428 C1426 1.419 . S
C1428 C1429 1.362 . S
C1429 H1419 0.930 . S
C1429 C1422 1.409 . S
C1429 C1428 1.362 . S
H1430 C1436 0.930 . S
H1431 C1439 0.930 . S
H1432 C1440 0.930 . S
H1433 C1441 0.930 . S
H1434 C1444 0.930 . S
H1435 C1445 0.930 . S
C1436 H1430 0.930 . S
C1436 C1437 1.355 . S
C1436 C1438 1.415 . S
C1437 C1436 1.355 . S
C1437 C1439 1.419 . S
C1438 C1436 1.415 . S
C1438 C1443 1.425 . S
C1438 C1445 1.409 . S
C1439 H1431 0.930 . S
C1439 C1437 1.419 . S
C1439 C1440 1.362 . S
C1440 H1432 0.930 . S
C1440 C1439 1.362 . S
C1440 C1443 1.409 . S
C1441 H1433 0.930 . S
C1441 C1442 1.355 . S
C1441 C1443 1.415 . S
C1442 C1441 1.355 . S
C1442 C1444 1.419 . S
C1443 C1438 1.425 . S
C1443 C1440 1.409 . S
C1443 C1441 1.415 . S
C1444 H1434 0.930 . S
C1444 C1442 1.419 . S
C1444 C1445 1.362 . S
C1445 H1435 0.930 . S
C1445 C1438 1.409 . S
C1445 C1444 1.362 . S
H1446 C1452 0.930 . S
H1447 C1455 0.930 . S
H1448 C1456 0.930 . S
H1449 C1457 0.930 . S
H1450 C1460 0.930 . S
H1451 C1461 0.930 . S
C1452 H1446 0.930 . S
C1452 C1453 1.355 . S
C1452 C1454 1.415 . S
C1453 C1452 1.355 . S
C1453 C1455 1.419 . S
C1454 C1452 1.415 . S
C1454 C1459 1.425 . S
C1454 C1461 1.409 . S
C1455 H1447 0.930 . S
C1455 C1453 1.419 . S
C1455 C1456 1.362 . S
C1456 H1448 0.930 . S
C1456 C1455 1.362 . S
C1456 C1459 1.409 . S
C1457 H1449 0.930 . S
C1457 C1458 1.355 . S
C1457 C1459 1.415 . S
C1458 C1457 1.355 . S
C1458 C1460 1.419 . S
C1459 C1454 1.425 . S
C1459 C1456 1.409 . S
C1459 C1457 1.415 . S
C1460 H1450 0.930 . S
C1460 C1458 1.419 . S
C1460 C1461 1.362 . S
C1461 H1451 0.930 . S
C1461 C1454 1.409 . S
C1461 C1460 1.362 . S
H1462 C1468 0.930 . S
H1463 C1471 0.930 . S
H1464 C1472 0.930 . S
H1465 C1473 0.930 . S
H1466 C1476 0.930 . S
H1467 C1477 0.930 . S
C1468 H1462 0.930 . S
C1468 C1469 1.355 . S
C1468 C1470 1.415 . S
C1469 C1468 1.355 . S
C1469 C1471 1.419 . S
C1470 C1468 1.415 . S
C1470 C1475 1.425 . S
C1470 C1477 1.409 . S
C1471 H1463 0.930 . S
C1471 C1469 1.419 . S
C1471 C1472 1.362 . S
C1472 H1464 0.930 . S
C1472 C1471 1.362 . S
C1472 C1475 1.409 . S
C1473 H1465 0.930 . S
C1473 C1474 1.355 . S
C1473 C1475 1.415 . S
C1474 C1473 1.355 . S
C1474 C1476 1.419 . S
C1475 C1470 1.425 . S
C1475 C1472 1.409 . S
C1475 C1473 1.415 . S
C1476 H1466 0.930 . S
C1476 C1474 1.419 . S
C1476 C1477 1.362 . S
C1477 H1467 0.930 . S
C1477 C1470 1.409 . S
C1477 C1476 1.362 . S
H1478 C1484 0.930 . S
H1479 C1487 0.930 . S
H1480 C1488 0.930 . S
H1481 C1489 0.930 . S
H1482 C1492 0.930 . S
H1483 C1493 0.930 . S
C1484 H1478 0.930 . S
C1484 C1485 1.355 . S
C1484 C1486 1.415 . S
C1485 C1484 1.355 . S
C1485 C1487 1.419 . S
C1486 C1484 1.415 . S
C1486 C1491 1.425 . S
C1486 C1493 1.409 . S
C1487 H1479 0.930 . S
C1487 C1485 1.419 . S
C1487 C1488 1.362 . S
C1488 H1480 0.930 . S
C1488 C1487 1.362 . S
C1488 C1491 1.409 . S
C1489 H1481 0.930 . S
C1489 C1490 1.355 . S
C1489 C1491 1.415 . S
C1490 C1489 1.355 . S
C1490 C1492 1.419 . S
C1491 C1486 1.425 . S
C1491 C1488 1.409 . S
C1491 C1489 1.415 . S
C1492 H1482 0.930 . S
C1492 C1490 1.419 . S
C1492 C1493 1.362 . S
C1493 H1483 0.930 . S
C1493 C1486 1.409 . S
C1493 C1492 1.362 . S
H1494 C1500 0.930 . S
H1495 C1503 0.930 . S
H1496 C1504 0.930 . S
H1497 C1505 0.930 . S
H1498 C1508 0.930 . S
H1499 C1509 0.930 . S
C1500 H1494 0.930 . S
C1500 C1501 1.355 . S
C1500 C1502 1.415 . S
C1501 C1500 1.355 . S
C1501 C1503 1.419 . S
C1502 C1500 1.415 . S
C1502 C1507 1.425 . S
C1502 C1509 1.409 . S
C1503 H1495 0.930 . S
C1503 C1501 1.419 . S
C1503 C1504 1.362 . S
C1504 H1496 0.930 . S
C1504 C1503 1.362 . S
C1504 C1507 1.409 . S
C1505 H1497 0.930 . S
C1505 C1506 1.355 . S
C1505 C1507 1.415 . S
C1506 C1505 1.355 . S
C1506 C1508 1.419 . S
C1507 C1502 1.425 . S
C1507 C1504 1.409 . S
C1507 C1505 1.415 . S
C1508 H1498 0.930 . S
C1508 C1506 1.419 . S
C1508 C1509 1.362 . S
C1509 H1499 0.930 . S
C1509 C1502 1.409 . S
C1509 C1508 1.362 . S
H1510 C1516 0.930 . S
H1511 C1519 0.930 . S
H1512 C1520 0.930 . S
H1513 C1521 0.930 . S
H1514 C1524 0.930 . S
H1515 C1525 0.930 . S
C1516 H1510 0.930 . S
C1516 C1517 1.355 . S
C1516 C1518 1.415 . S
C1517 C1516 1.355 . S
C1517 C1519 1.419 . S
C1518 C1516 1.415 . S
C1518 C1523 1.425 . S
C1518 C1525 1.409 . S
C1519 H1511 0.930 . S
C1519 C1517 1.419 . S
C1519 C1520 1.362 . S
C1520 H1512 0.930 . S
C1520 C1519 1.362 . S
C1520 C1523 1.409 . S
C1521 H1513 0.930 . S
C1521 C1522 1.355 . S
C1521 C1523 1.415 . S
C1522 C1521 1.355 . S
C1522 C1524 1.419 . S
C1523 C1518 1.425 . S
C1523 C1520 1.409 . S
C1523 C1521 1.415 . S
C1524 H1514 0.930 . S
C1524 C1522 1.419 . S
C1524 C1525 1.362 . S
C1525 H1515 0.930 . S
C1525 C1518 1.409 . S
C1525 C1524 1.362 . S
H1526 C1532 0.930 . S
H1527 C1535 0.930 . S
H1528 C1536 0.930 . S
H1529 C1537 0.930 . S
H1530 C1540 0.930 . S
H1531 C1541 0.930 . S
C1532 H1526 0.930 . S
C1532 C1533 1.355 . S
C1532 C1534 1.415 . S
C1533 C1532 1.355 . S
C1533 C1535 1.419 . S
C1534 C1532 1.415 . S
C1534 C1539 1.425 . S
C1534 C1541 1.409 . S
C1535 H1527 0.930 . S
C1535 C1533 1.419 . S
C1535 C1536 1.362 . S
C1536 H1528 0.930 . S
C1536 C1535 1.362 . S
C1536 C1539 1.409 . S
C1537 H1529 0.930 . S
C1537 C1538 1.355 . S
C1537 C1539 1.415 . S
C1538 C1537 1.355 . S
C1538 C1540 1.419 . S
C1539 C1534 1.425 . S
C1539 C1536 1.409 . S
C1539 C1537 1.415 . S
C1540 H1530 0.930 . S
C1540 C1538 1.419 . S
C1540 C1541 1.362 . S
C1541 H1531 0.930 . S
C1541 C1534 1.409 . S
C1541 C1540 1.362 . S
H1542 C1548 0.930 . S
H1543 C1551 0.930 . S
H1544 C1552 0.930 . S
H1545 C1553 0.930 . S
H1546 C1556 0.930 . S
H1547 C1557 0.930 . S
C1548 H1542 0.930 . S
C1548 C1549 1.355 . S
C1548 C1550 1.415 . S
C1549 C1548 1.355 . S
C1549 C1551 1.419 . S
C1550 C1548 1.415 . S
C1550 C1555 1.425 . S
C1550 C1557 1.409 . S
C1551 H1543 0.930 . S
C1551 C1549 1.419 . S
C1551 C1552 1.362 . S
C1552 H1544 0.930 . S
C1552 C1551 1.362 . S
C1552 C1555 1.409 . S
C1553 H1545 0.930 . S
C1553 C1554 1.355 . S
C1553 C1555 1.415 . S
C1554 C1553 1.355 . S
C1554 C1556 1.419 . S
C1555 C1550 1.425 . S
C1555 C1552 1.409 . S
C1555 C1553 1.415 . S
C1556 H1546 0.930 . S
C1556 C1554 1.419 . S
C1556 C1557 1.362 . S
C1557 H1547 0.930 . S
C1557 C1550 1.409 . S
C1557 C1556 1.362 . S
H1558 C1564 0.930 . S
H1559 C1567 0.930 . S
H1560 C1568 0.930 . S
H1561 C1569 0.930 . S
H1562 C1572 0.930 . S
H1563 C1573 0.930 . S
C1564 H1558 0.930 . S
C1564 C1565 1.355 . S
C1564 C1566 1.415 . S
C1565 C1564 1.355 . S
C1565 C1567 1.419 . S
C1566 C1564 1.415 . S
C1566 C1571 1.425 . S
C1566 C1573 1.409 . S
C1567 H1559 0.930 . S
C1567 C1565 1.419 . S
C1567 C1568 1.362 . S
C1568 H1560 0.930 . S
C1568 C1567 1.362 . S
C1568 C1571 1.409 . S
C1569 H1561 0.930 . S
C1569 C1570 1.355 . S
C1569 C1571 1.415 . S
C1570 C1569 1.355 . S
C1570 C1572 1.419 . S
C1571 C1566 1.425 . S
C1571 C1568 1.409 . S
C1571 C1569 1.415 . S
C1572 H1562 0.930 . S
C1572 C1570 1.419 . S
C1572 C1573 1.362 . S
C1573 H1563 0.930 . S
C1573 C1566 1.409 . S
C1573 C1572 1.362 . S
H1574 C1580 0.930 . S
H1575 C1583 0.930 . S
H1576 C1584 0.930 . S
H1577 C1585 0.930 . S
H1578 C1588 0.930 . S
H1579 C1589 0.930 . S
C1580 H1574 0.930 . S
C1580 C1581 1.355 . S
C1580 C1582 1.415 . S
C1581 C1580 1.355 . S
C1581 C1583 1.419 . S
C1582 C1580 1.415 . S
C1582 C1587 1.425 . S
C1582 C1589 1.409 . S
C1583 H1575 0.930 . S
C1583 C1581 1.419 . S
C1583 C1584 1.362 . S
C1584 H1576 0.930 . S
C1584 C1583 1.362 . S
C1584 C1587 1.409 . S
C1585 H1577 0.930 . S
C1585 C1586 1.355 . S
C1585 C1587 1.415 . S
C1586 C1585 1.355 . S
C1586 C1588 1.419 . S
C1587 C1582 1.425 . S
C1587 C1584 1.409 . S
C1587 C1585 1.415 . S
C1588 H1578 0.930 . S
C1588 C1586 1.419 . S
C1588 C1589 1.362 . S
C1589 H1579 0.930 . S
C1589 C1582 1.409 . S
C1589 C1588 1.362 . S
H1590 C1596 0.930 . S
H1591 C1599 0.930 . S
H1592 C1600 0.930 . S
H1593 C1601 0.930 . S
H1594 C1604 0.930 . S
H1595 C1605 0.930 . S
C1596 H1590 0.930 . S
C1596 C1597 1.355 . S
C1596 C1598 1.415 . S
C1597 C1596 1.355 . S
C1597 C1599 1.419 . S
C1598 C1596 1.415 . S
C1598 C1603 1.425 . S
C1598 C1605 1.409 . S
C1599 H1591 0.930 . S
C1599 C1597 1.419 . S
C1599 C1600 1.362 . S
C1600 H1592 0.930 . S
C1600 C1599 1.362 . S
C1600 C1603 1.409 . S
C1601 H1593 0.930 . S
C1601 C1602 1.355 . S
C1601 C1603 1.415 . S
C1602 C1601 1.355 . S
C1602 C1604 1.419 . S
C1603 C1598 1.425 . S
C1603 C1600 1.409 . S
C1603 C1601 1.415 . S
C1604 H1594 0.930 . S
C1604 C1602 1.419 . S
C1604 C1605 1.362 . S
C1605 H1595 0.930 . S
C1605 C1598 1.409 . S
C1605 C1604 1.362 . S
H1606 C1612 0.930 . S
H1607 C1615 0.930 . S
H1608 C1616 0.930 . S
H1609 C1617 0.930 . S
H1610 C1620 0.930 . S
H1611 C1621 0.930 . S
C1612 H1606 0.930 . S
C1612 C1613 1.355 . S
C1612 C1614 1.415 . S
C1613 C1612 1.355 . S
C1613 C1615 1.419 . S
C1614 C1612 1.415 . S
C1614 C1619 1.425 . S
C1614 C1621 1.409 . S
C1615 H1607 0.930 . S
C1615 C1613 1.419 . S
C1615 C1616 1.362 . S
C1616 H1608 0.930 . S
C1616 C1615 1.362 . S
C1616 C1619 1.409 . S
C1617 H1609 0.930 . S
C1617 C1618 1.355 . S
C1617 C1619 1.415 . S
C1618 C1617 1.355 . S
C1618 C1620 1.419 . S
C1619 C1614 1.425 . S
C1619 C1616 1.409 . S
C1619 C1617 1.415 . S
C1620 H1610 0.930 . S
C1620 C1618 1.419 . S
C1620 C1621 1.362 . S
C1621 H1611 0.930 . S
C1621 C1614 1.409 . S
C1621 C1620 1.362 . S
H1622 C1628 0.930 . S
H1623 C1631 0.930 . S
H1624 C1632 0.930 . S
H1625 C1633 0.930 . S
H1626 C1636 0.930 . S
H1627 C1637 0.930 . S
C1628 H1622 0.930 . S
C1628 C1629 1.355 . S
C1628 C1630 1.415 . S
C1629 C1628 1.355 . S
C1629 C1631 1.419 . S
C1630 C1628 1.415 . S
C1630 C1635 1.425 . S
C1630 C1637 1.409 . S
C1631 H1623 0.930 . S
C1631 C1629 1.419 . S
C1631 C1632 1.362 . S
C1632 H1624 0.930 . S
C1632 C1631 1.362 . S
C1632 C1635 1.409 . S
C1633 H1625 0.930 . S
C1633 C1634 1.355 . S
C1633 C1635 1.415 . S
C1634 C1633 1.355 . S
C1634 C1636 1.419 . S
C1635 C1630 1.425 . S
C1635 C1632 1.409 . S
C1635 C1633 1.415 . S
C1636 H1626 0.930 . S
C1636 C1634 1.419 . S
C1636 C1637 1.362 . S
C1637 H1627 0.930 . S
C1637 C1630 1.409 . S
C1637 C1636 1.362 . S
C882 C699 1.276 . S
C877 C74 1.319 . S
C898 C700 0.479 . S
C893 C142 0.774 . S
C914 C694 1.309 . S
C909 C231 1.326 . S
C925 C322 1.121 . S
C930 C693 1.156 . S
C941 C406 0.804 . S
C946 C696 0.470 . S
C962 C698 1.360 . S
C957 C494 1.272 . S
C973 C562 1.055 . S
C978 C697 1.202 . S
C989 C651 1.421 . S
C994 C695 1.374 . S
C1010 C730 1.555 . S
C1005 C58 1.454 . S
C1021 C151 1.718 . S
C1026 C761 1.643 . S
C1042 C729 2.543 . S
C1037 C224 2.450 . S
C1058 C764 1.275 . S
C1053 C315 1.279 . S
C1069 C399 1.472 . S
C1074 C727 1.557 . S
C1090 C759 1.499 . S
C1085 C478 1.383 . S
C1101 C571 1.276 . S
C1106 C732 1.409 . S
C1117 C644 2.450 . S
C1122 C766 2.546 . S
C1133 C67 2.490 . S
C1138 C762 2.564 . S
C1149 C392 1.687 . S
C1154 C765 1.705 . S
C1170 C733 2.544 . S
C1165 C487 2.450 . S
C1186 C760 1.270 . S
C1181 C578 1.283 . S
C1197 C658 1.400 . S
C1202 C726 1.538 . S
C1213 C238 1.377 . S
C1218 C763 1.511 . S
C1234 C728 1.394 . S
C1229 C308 1.290 . S
C1245 C158 1.544 . S
C1250 C731 1.507 . S
C1261 C662 1.342 . S
C1266 C798 1.256 . S
C1277 C394 0.883 . S
C1282 C799 0.338 . S
C1298 C793 1.496 . S
C1293 C483 1.394 . S
C1314 C792 1.443 . S
C1309 C574 1.374 . S
C1325 C154 0.861 . S
C1330 C795 0.393 . S
C1346 C797 1.509 . S
C1341 C242 1.405 . S
C1357 C310 1.361 . S
C1362 C796 1.438 . S
C1373 C63 1.363 . S
C1378 C794 1.335 . S
C1389 C646 1.523 . S
C1394 C832 1.583 . S
C1410 C864 1.330 . S
C1405 C403 1.269 . S
C1421 C476 2.319 . S
C1426 C825 2.460 . S
C1437 C567 1.514 . S
C1442 C859 1.633 . S
C1458 C830 1.419 . S
C1453 C147 1.287 . S
C1469 C226 1.637 . S
C1474 C861 1.670 . S
C1490 C827 1.537 . S
C1485 C319 1.567 . S
C1506 C862 2.513 . S
C1501 C56 2.315 . S
C1522 C858 2.511 . S
C1517 C655 2.277 . S
C1533 C140 1.295 . S
C1538 C860 1.302 . S
C1549 C235 2.345 . S
C1554 C829 2.473 . S
C1570 C863 1.609 . S
C1565 C326 1.594 . S
C1581 C70 1.532 . S
C1586 C828 1.554 . S
C1597 C490 1.602 . S
C1602 C865 1.615 . S
C1618 C831 1.565 . S
C1613 C560 1.559 . S
C1634 C826 1.421 . S
C1629 C410 1.281 . S
