# Generated by pormake.
# Topology zzz, (3,6)-cn, num edge types: 1
# Building blocks:
#     Node 0, Type 0, BuildingBlock: OLANEW_clean_sbu_2, # of connection points: 3
#     Node 1, Type 0, BuildingBlock: OLANEW_clean_sbu_2, # of connection points: 3
#     Node 2, Type 0, BuildingBlock: OLANEW_clean_sbu_2, # of connection points: 3
#     Node 3, Type 0, BuildingBlock: OLANEW_clean_sbu_2, # of connection points: 3
#     Node 4, Type 0, BuildingBlock: OLANEW_clean_sbu_2, # of connection points: 3
#     Node 5, Type 0, BuildingBlock: OLANEW_clean_sbu_2, # of connection points: 3
#     Node 6, Type 0, BuildingBlock: OLANEW_clean_sbu_2, # of connection points: 3
#     Node 7, Type 0, BuildingBlock: OLANEW_clean_sbu_2, # of connection points: 3
#     Node 8, Type 1, BuildingBlock: BETDAH_clean_sbu_0, # of connection points: 6
#     Node 9, Type 1, BuildingBlock: BETDAH_clean_sbu_0, # of connection points: 6
#     Node 10, Type 1, BuildingBlock: BETDAH_clean_sbu_0, # of connection points: 6
#     Node 11, Type 1, BuildingBlock: BETDAH_clean_sbu_0, # of connection points: 6
#     Edge 12, Type (0, 1), BuildingBlock: TEMPAE_clean_linker_10, # of connection points: 2
#     Edge 13, Type (0, 1), BuildingBlock: TEMPAE_clean_linker_10, # of connection points: 2
#     Edge 14, Type (0, 1), BuildingBlock: TEMPAE_clean_linker_10, # of connection points: 2
#     Edge 15, Type (0, 1), BuildingBlock: TEMPAE_clean_linker_10, # of connection points: 2
#     Edge 16, Type (0, 1), BuildingBlock: TEMPAE_clean_linker_10, # of connection points: 2
#     Edge 17, Type (0, 1), BuildingBlock: TEMPAE_clean_linker_10, # of connection points: 2
#     Edge 18, Type (0, 1), BuildingBlock: TEMPAE_clean_linker_10, # of connection points: 2
#     Edge 19, Type (0, 1), BuildingBlock: TEMPAE_clean_linker_10, # of connection points: 2
#     Edge 20, Type (0, 1), BuildingBlock: TEMPAE_clean_linker_10, # of connection points: 2
#     Edge 21, Type (0, 1), BuildingBlock: TEMPAE_clean_linker_10, # of connection points: 2
#     Edge 22, Type (0, 1), BuildingBlock: TEMPAE_clean_linker_10, # of connection points: 2
#     Edge 23, Type (0, 1), BuildingBlock: TEMPAE_clean_linker_10, # of connection points: 2
#     Edge 24, Type (0, 1), BuildingBlock: TEMPAE_clean_linker_10, # of connection points: 2
#     Edge 25, Type (0, 1), BuildingBlock: TEMPAE_clean_linker_10, # of connection points: 2
#     Edge 26, Type (0, 1), BuildingBlock: TEMPAE_clean_linker_10, # of connection points: 2
#     Edge 27, Type (0, 1), BuildingBlock: TEMPAE_clean_linker_10, # of connection points: 2
#     Edge 28, Type (0, 1), BuildingBlock: TEMPAE_clean_linker_10, # of connection points: 2
#     Edge 29, Type (0, 1), BuildingBlock: TEMPAE_clean_linker_10, # of connection points: 2
#     Edge 30, Type (0, 1), BuildingBlock: TEMPAE_clean_linker_10, # of connection points: 2
#     Edge 31, Type (0, 1), BuildingBlock: TEMPAE_clean_linker_10, # of connection points: 2
#     Edge 32, Type (0, 1), BuildingBlock: TEMPAE_clean_linker_10, # of connection points: 2
#     Edge 33, Type (0, 1), BuildingBlock: TEMPAE_clean_linker_10, # of connection points: 2
#     Edge 34, Type (0, 1), BuildingBlock: TEMPAE_clean_linker_10, # of connection points: 2
#     Edge 35, Type (0, 1), BuildingBlock: TEMPAE_clean_linker_10, # of connection points: 2
# Relax obj value: 0.248
# Max RMSD: 0.191
# Mean RMSD: 0.174
data_MOF--net-zzz--node1-OLANEW_clean_sbu_2--node2-BETDAH_clean_sbu_0--edge1-TEMPAE_clean_linker_10
_symmetry_space_group_name_H-M    P1
_symmetry_Int_Tables_number       1
_symmetry_cell_setting            triclinic
loop_
_symmetry_equiv_pos_as_xyz
'x, y, z'
_cell_length_a     56.941016
_cell_length_b     56.973893
_cell_length_c     15.130269
_cell_angle_alpha  89.999558
_cell_angle_beta   89.93113
_cell_angle_gamma 89.980345
loop_
_atom_site_label
_atom_site_type_symbol
_atom_site_fract_x
_atom_site_fract_y
_atom_site_fract_z
_atom_type_partial_charge
O0 O 0.73647 0.4909 0.33177 0.0
Cd1 Cd 0.69634 0.48964 0.38954 0.0
O2 O 0.74392 0.52244 0.40899 0.0
Cd3 Cd 0.76279 0.55219 0.46686 0.0
O4 O 0.77361 0.58782 0.52393 0.0
C5 C 0.79361 0.5956 0.54995 0.0
O6 O 0.7731 0.58824 0.52412 0.0
C7 C 0.75085 0.50685 0.35455 0.0
C8 C 0.66287 0.48887 0.25475 0.0
O9 O 0.66933 0.50827 0.29005 0.0
O10 O 0.67225 0.46987 0.28318 0.0
O11 O 0.93977 0.71662 0.22259 0.0
Cd12 Cd 0.9353 0.67805 0.29164 0.0
O13 O 0.971 0.71896 0.30624 0.0
Cd14 Cd 0.99789 0.74006 0.37038 0.0
O15 O 0.00558 0.77311 0.43547 0.0
C16 C 0.98751 0.78425 0.46139 0.0
O17 O 0.96671 0.77486 0.44837 0.0
C18 C 0.95753 0.72814 0.24883 0.0
C19 C 0.95002 0.64241 0.17882 0.0
O20 O 0.9282 0.64758 0.18618 0.0
O21 O 0.96484 0.65396 0.22535 0.0
O22 O 0.76225 0.01035 0.28737 0.0
Cd23 Cd 0.80292 0.00365 0.33425 0.0
O24 O 0.75411 0.99376 0.41344 0.0
Cd25 Cd 0.73563 0.97934 0.52813 0.0
O26 O 0.73366 0.95888 0.65806 0.0
C27 C 0.71587 0.95371 0.70635 0.0
O28 O 0.73433 0.95862 0.65902 0.0
C29 C 0.7469 0.00305 0.34193 0.0
C30 C 0.83692 0.00453 0.20115 0.0
O31 O 0.82514 0.98584 0.21728 0.0
O32 O 0.83223 0.02295 0.24653 0.0
O33 O 0.5532 0.76922 0.25353 0.0
Cd34 Cd 0.56418 0.80731 0.31413 0.0
O35 O 0.52081 0.76991 0.33218 0.0
Cd36 Cd 0.49242 0.74998 0.39254 0.0
O37 O 0.49051 0.71525 0.45114 0.0
C38 C 0.51057 0.70679 0.46951 0.0
O39 O 0.52929 0.7197 0.45468 0.0
C40 C 0.53418 0.75947 0.27745 0.0
C41 C 0.54986 0.84314 0.20198 0.0
O42 O 0.56955 0.83267 0.19066 0.0
O43 O 0.53696 0.83681 0.26725 0.0
O44 O 0.26758 0.54464 0.14681 0.0
Cd45 Cd 0.30748 0.55161 0.09414 0.0
O46 O 0.2672 0.51364 0.06154 0.0
Cd47 Cd 0.24938 0.48601 0.98831 0.0
O48 O 0.21792 0.4747 0.91996 0.0
C49 C 0.20411 0.49154 0.90214 0.0
O50 O 0.21033 0.51294 0.92462 0.0
C51 C 0.25665 0.52701 0.1161 0.0
C52 C 0.3408 0.53885 0.21951 0.0
O53 O 0.33242 0.55973 0.217 0.0
O54 O 0.33339 0.52398 0.1624 0.0
O55 O 0.93676 0.25509 0.10134 0.0
Cd56 Cd 0.92869 0.29323 0.03476 0.0
O57 O 0.97427 0.26406 0.10047 0.0
Cd58 Cd 0.01028 0.25112 0.10665 0.0
O59 O 0.02468 0.21831 0.05686 0.0
C60 C 0.01155 0.2093 0.99808 0.0
O61 O 0.99293 0.22104 0.97207 0.0
C62 C 0.95789 0.24964 0.11842 0.0
C63 C 0.94292 0.32894 0.14812 0.0
O64 O 0.92214 0.32035 0.1523 0.0
O65 O 0.95694 0.3208 0.08929 0.0
O66 O 0.24494 0.04009 0.14849 0.0
Cd67 Cd 0.20329 0.04338 0.11145 0.0
O68 O 0.24847 0.01904 0.02861 0.0
Cd69 Cd 0.26344 0.99732 0.9228 0.0
O70 O 0.26541 0.97049 0.81946 0.0
C71 C 0.28267 0.961 0.77956 0.0
O72 O 0.27817 0.94436 0.72186 0.0
C73 C 0.25783 0.02793 0.09733 0.0
C74 C 0.17402 0.03372 0.25502 0.0
O75 O 0.18287 0.01713 0.20844 0.0
O76 O 0.17908 0.05492 0.2341 0.0
O77 O 0.55438 0.21719 0.12718 0.0
Cd78 Cd 0.55241 0.18002 0.04668 0.0
O79 O 0.51769 0.21927 0.08605 0.0
Cd80 Cd 0.48625 0.23939 0.05614 0.0
O81 O 0.48093 0.27425 0.00347 0.0
C82 C 0.46172 0.28462 0.98688 0.0
O83 O 0.44171 0.27394 0.0026 0.0
C84 C 0.53509 0.22838 0.12609 0.0
C85 C 0.53394 0.14574 0.15702 0.0
O86 O 0.55611 0.14703 0.14309 0.0
O87 O 0.52046 0.1603 0.11721 0.0
Ho88 Ho 0.02097 0.98474 0.84335 0.0
Ho89 Ho 0.00768 0.00504 0.64902 0.0
C90 C 0.00355 0.95003 0.68439 0.0
C91 C 0.02289 0.96136 0.98945 0.0
C92 C 0.0123 0.93932 0.0208 0.0
C93 C 0.99304 0.92934 0.97686 0.0
C94 C 0.98462 0.90723 0.00179 0.0
C95 C 0.99526 0.89475 0.07137 0.0
C96 C 0.01417 0.90517 0.11661 0.0
C97 C 0.02264 0.92722 0.09133 0.0
C98 C 0.05633 0.994 0.72979 0.0
C99 C 0.02028 0.0401 0.81368 0.0
C100 C 0.01231 0.02388 0.49526 0.0
C101 C 0.00607 0.04657 0.45398 0.0
C102 C 0.02395 0.06272 0.43438 0.0
C103 C 0.01857 0.08465 0.39866 0.0
C104 C 0.99517 0.09087 0.38045 0.0
C105 C 0.97727 0.07455 0.39883 0.0
C106 C 0.98265 0.05263 0.43537 0.0
C107 C 0.97006 0.00457 0.7604 0.0
O108 O 0.00488 0.95415 0.77061 0.0
O109 O 0.0069 0.96649 0.62383 0.0
O110 O 0.03823 0.959 0.92552 0.0
O111 O 0.00858 0.97907 0.97699 0.0
O112 O 0.05817 0.99666 0.81484 0.0
O113 O 0.03655 0.98564 0.71104 0.0
O114 O 0.0197 0.03643 0.72705 0.0
O115 O 0.01827 0.02308 0.87311 0.0
O116 O 0.99515 0.00935 0.515 0.0
O117 O 0.02842 0.02504 0.55698 0.0
O118 O 0.969 0.01231 0.67969 0.0
O119 O 0.99079 0.99816 0.77361 0.0
H120 H 0.98478 0.93842 0.92225 0.0
H121 H 0.96988 0.89983 0.96622 0.0
H122 H 0.02297 0.89595 0.16972 0.0
H123 H 0.03764 0.93457 0.12553 0.0
H124 H 0.04216 0.05849 0.44778 0.0
H125 H 0.03279 0.09686 0.38657 0.0
H126 H 0.9591 0.07861 0.3843 0.0
H127 H 0.96845 0.04053 0.44925 0.0
Ho128 Ho 0.50607 0.01774 0.82098 0.0
Ho129 Ho 0.49556 0.99818 0.63186 0.0
C130 C 0.54951 0.00846 0.68907 0.0
C131 C 0.51488 0.02349 0.98723 0.0
C132 C 0.53718 0.02141 0.03576 0.0
C133 C 0.55836 0.02069 0.98854 0.0
C134 C 0.57962 0.01748 0.0322 0.0
C135 C 0.58025 0.01509 0.12453 0.0
C136 C 0.55905 0.0163 0.17243 0.0
C137 C 0.53761 0.0193 0.12814 0.0
C138 C 0.50031 0.05005 0.69289 0.0
C139 C 0.45254 0.0064 0.76276 0.0
C140 C 0.48649 0.99106 0.46666 0.0
C141 C 0.46444 0.99433 0.41744 0.0
C142 C 0.46418 0.99543 0.32485 0.0
C143 C 0.44284 0.99813 0.2796 0.0
C144 C 0.4215 -0.00015 0.3266 0.0
C145 C 0.42211 0.99926 0.41944 0.0
C146 C 0.44326 0.99636 0.46404 0.0
C147 C 0.50208 0.96624 0.76126 0.0
O148 O 0.54248 0.01042 0.77217 0.0
O149 O 0.53453 0.00556 0.62285 0.0
O150 O 0.51373 0.04084 0.93069 0.0
O151 O 0.50684 0.00386 0.95426 0.0
O152 O 0.51417 0.05285 0.76001 0.0
O153 O 0.48901 0.03123 0.70112 0.0
O154 O 0.4595 0.00701 0.67951 0.0
O155 O 0.46759 0.00786 0.82931 0.0
O156 O 0.48596 0.97449 0.52649 0.0
O157 O 0.4964 0.01026 0.49589 0.0
O158 O 0.48779 0.96307 0.69567 0.0
O159 O 0.51308 0.98507 0.75082 0.0
H160 H 0.5585 0.02261 0.91763 0.0
H161 H 0.59565 0.01711 0.99356 0.0
H162 H 0.55904 0.01454 0.24371 0.0
H163 H 0.52142 0.01979 0.16579 0.0
H164 H 0.48039 0.99398 0.28768 0.0
H165 H 0.44299 0.99846 0.20804 0.0
H166 H 0.4062 0.00113 0.45812 0.0
H167 H 0.44296 0.99547 0.53524 0.0
Ho168 Ho 0.49431 0.50378 0.81208 0.0
Ho169 Ho 0.51103 0.48381 0.63312 0.0
C170 C 0.51717 0.53844 0.66415 0.0
C171 C 0.49136 0.52507 0.96267 0.0
C172 C 0.49504 0.54922 0.99458 0.0
C173 C 0.51367 0.56301 0.96286 0.0
C174 C 0.51666 0.58601 0.99292 0.0
C175 C 0.50107 0.5957 0.05526 0.0
C176 C 0.48244 0.58179 0.08691 0.0
C177 C 0.47948 0.55878 0.05678 0.0
C178 C 0.46174 0.502 0.68322 0.0
C179 C 0.48576 0.44969 0.77986 0.0
C180 C 0.51395 0.46257 0.48232 0.0
C181 C 0.51631 0.43822 0.44964 0.0
C182 C 0.50062 0.42995 0.3854 0.0
C183 C 0.50266 0.40714 0.3521 0.0
C184 C 0.52059 0.39208 0.3819 0.0
C185 C 0.53624 0.4004 0.44678 0.0
C186 C 0.53408 0.42318 0.4805 0.0
C187 C 0.54361 0.48519 0.76214 0.0
O188 O 0.51395 0.53402 0.74929 0.0
O189 O 0.51367 0.52214 0.6033 0.0
O190 O 0.47339 0.52196 0.91025 0.0
O191 O 0.51005 0.51365 0.9364 0.0
O192 O 0.45696 0.49872 0.76622 0.0
O193 O 0.48296 0.50751 0.67416 0.0
O194 O 0.49178 0.45332 0.69624 0.0
O195 O 0.48806 0.46605 0.84113 0.0
O196 O 0.53204 0.47168 0.52319 0.0
O197 O 0.49396 0.4679 0.52011 0.0
O198 O 0.54846 0.48826 0.67917 0.0
O199 O 0.52232 0.47987 0.77098 0.0
H200 H 0.52598 0.556 0.91503 0.0
H201 H 0.53139 0.59609 0.96822 0.0
H202 H 0.46998 0.58879 0.13418 0.0
H203 H 0.46494 0.54845 0.08181 0.0
H204 H 0.48672 0.44119 0.36083 0.0
H205 H 0.49004 0.40125 0.30343 0.0
H206 H 0.55043 0.38946 0.47057 0.0
H207 H 0.54643 0.42904 0.53021 0.0
Ho208 Ho 0.98378 0.48053 0.73855 0.0
Ho209 Ho 0.99911 0.50104 0.55782 0.0
C210 C 0.94612 0.50762 0.61329 0.0
C211 C 0.96664 0.47192 0.89375 0.0
C212 C 0.94684 0.47979 0.94827 0.0
C213 C 0.93478 0.50067 0.92923 0.0
C214 C 0.91524 0.50719 0.97974 0.0
C215 C 0.90756 0.49298 0.05026 0.0
C216 C 0.92009 0.47233 0.06982 0.0
C217 C 0.93953 0.46582 0.01922 0.0
C218 C 0.98605 0.45009 0.60235 0.0
C219 C 0.03815 0.47837 0.69311 0.0
C220 C 0.01671 0.50614 0.40138 0.0
C221 C 0.04064 0.50538 0.36424 0.0
C222 C 0.05746 0.48957 0.39686 0.0
C223 C 0.08053 0.49012 0.36531 0.0
C224 C 0.08723 0.50644 0.30026 0.0
C225 C 0.07018 0.52184 0.2661 0.0
C226 C 0.04711 0.52134 0.29803 0.0
C227 C 0.99612 0.53223 0.69042 0.0
O228 O 0.95289 0.50251 0.69488 0.0
O229 O 0.96021 0.50475 0.54445 0.0
O230 O 0.96121 0.45983 0.82324 0.0
O231 O 0.98315 0.48735 0.87895 0.0
O232 O 0.99182 0.4447 0.68275 0.0
O233 O 0.97844 0.47076 0.5996 0.0
O234 O 0.03276 0.48532 0.61192 0.0
O235 O 0.02231 0.47684 0.75662 0.0
O236 O 0.01228 0.52376 0.45428 0.0
O237 O 0.0082 0.48625 0.43081 0.0
O238 O 0.99176 0.53744 0.60846 0.0
O239 O 0.00356 0.51146 0.69612 0.0
H240 H 0.94032 0.51177 0.87495 0.0
H241 H 0.90611 0.52329 0.96344 0.0
H242 H 0.91446 0.46078 0.12261 0.0
H243 H 0.94866 0.44963 0.03465 0.0
H244 H 0.05284 0.47693 0.44738 0.0
H245 H 0.09316 0.47779 0.39189 0.0
H246 H 0.07484 0.53474 0.2165 0.0
H247 H 0.0344 0.53371 0.2721 0.0
C248 C 0.14193 0.04537 0.35916 0.0
C249 C 0.15806 0.02849 0.32966 0.0
C250 C 0.12583 0.04018 0.42676 0.0
C251 C 0.12628 0.01777 0.46719 0.0
C252 C 0.143 0.0009 0.43942 0.0
C253 C 0.1585 0.00637 0.37022 0.0
C254 C 0.10788 0.05842 0.45307 0.0
C255 C 0.1443 0.97696 0.48197 0.0
C256 C 0.09555 0.01062 0.68912 0.0
C257 C 0.07452 -0.00018 0.6638 0.0
C258 C 0.11273 0.01638 0.62594 0.0
C259 C 0.10852 0.01154 0.53546 0.0
C260 C 0.08728 0.0006 0.50985 0.0
C261 C 0.07075 0.99449 0.57455 0.0
C262 C 0.13538 0.02758 0.65589 0.0
C263 C 0.08187 0.99554 0.414 0.0
H264 H 0.14144 0.06244 0.32758 0.0
H265 H 0.17106 0.99332 0.34804 0.0
H266 H 0.08993 0.05167 0.43994 0.0
H267 H 0.10904 0.06204 0.52495 0.0
H268 H 0.1102 0.07518 0.41659 0.0
H269 H 0.15933 0.96645 0.45691 0.0
H270 H 0.14599 0.97876 0.55472 0.0
H271 H 0.12785 0.96713 0.46894 0.0
H272 H 0.09858 0.01456 0.75827 0.0
H273 H 0.05467 0.98575 0.55495 0.0
H274 H 0.13735 0.04513 0.62499 0.0
H275 H 0.15054 0.01677 0.63405 0.0
H276 H 0.1362 0.02963 0.72884 0.0
H277 H 0.08275 0.01201 0.37495 0.0
H278 H 0.0642 0.98764 0.40502 0.0
H279 H 0.09518 0.98336 0.38635 0.0
C280 C 0.50508 0.1357 0.27448 0.0
C281 C 0.52446 0.12922 0.22285 0.0
C282 C 0.49813 0.12203 0.347 0.0
C283 C 0.51047 0.10108 0.36637 0.0
C284 C 0.52882 0.0935 0.30987 0.0
C285 C 0.5359 0.10792 0.23959 0.0
C286 C 0.47876 0.13091 0.40652 0.0
C287 C 0.54177 0.07077 0.32631 0.0
C288 C 0.51777 0.08238 0.60474 0.0
C289 C 0.5011 0.06446 0.61218 0.0
C290 C 0.52042 0.09488 0.52568 0.0
C291 C 0.50641 0.08889 0.45172 0.0
C292 C 0.48904 0.07124 0.45969 0.0
C293 C 0.48622 0.05961 0.54084 0.0
C294 C 0.53861 0.11414 0.52081 0.0
C295 C 0.47419 0.06387 0.38186 0.0
H296 H 0.49627 0.15222 0.26163 0.0
H297 H 0.55071 0.10277 0.19879 0.0
H298 H 0.46583 0.11682 0.42012 0.0
H299 H 0.48636 0.13632 0.47091 0.0
H300 H 0.46939 0.14618 0.37754 0.0
H301 H 0.52914 0.05627 0.33808 0.0
H302 H 0.55335 0.06592 0.27003 0.0
H303 H 0.55276 0.07248 0.38645 0.0
H304 H 0.52908 0.08639 0.66032 0.0
H305 H 0.47284 0.0462 0.54761 0.0
H306 H 0.53051 0.13059 0.49605 0.0
H307 H 0.55266 0.10912 0.47361 0.0
H308 H 0.54681 0.11774 0.58602 0.0
H309 H 0.46651 0.0794 0.34844 0.0
H310 H 0.45976 0.05182 0.40154 0.0
H311 H 0.48543 0.05471 0.33279 0.0
C312 C 0.36733 0.50916 0.28962 0.0
C313 C 0.35851 0.53215 0.28642 0.0
C314 C 0.38414 0.50264 0.35283 0.0
C315 C 0.3923 0.51953 0.41411 0.0
C316 C 0.38349 0.54274 0.41119 0.0
C317 C 0.36669 0.54877 0.34743 0.0
C318 C 0.3932 0.47773 0.35395 0.0
C319 C 0.39186 0.56126 0.4753 0.0
C320 C 0.42024 0.50088 0.63068 0.0
C321 C 0.44409 0.50452 0.61274 0.0
C322 C 0.40318 0.50506 0.56568 0.0
C323 C 0.41023 0.51308 0.48109 0.0
C324 C 0.43438 0.51606 0.46194 0.0
C325 C 0.45103 0.51172 0.52807 0.0
C326 C 0.37758 0.50158 0.5883 0.0
C327 C 0.44259 0.52457 0.37253 0.0
H328 H 0.3611 0.49622 0.24269 0.0
H329 H 0.35998 0.56657 0.34536 0.0
H330 H 0.4125 0.47765 0.3438 0.0
H331 H 0.38976 0.46963 0.41938 0.0
H332 H 0.38496 0.46668 0.30208 0.0
H333 H 0.38317 0.57848 0.46445 0.0
H334 H 0.38836 0.55553 0.54416 0.0
H335 H 0.41112 0.56365 0.46869 0.0
H336 H 0.41488 0.49523 0.69607 0.0
H337 H 0.4695 0.51448 0.51398 0.0
H338 H 0.36917 0.48984 0.53917 0.0
H339 H 0.36828 0.51868 0.58549 0.0
H340 H 0.37512 0.49395 0.65525 0.0
H341 H 0.43531 0.51328 0.3195 0.0
H342 H 0.46205 0.52467 0.36677 0.0
H343 H 0.43605 0.54265 0.36086 0.0
C344 C 0.97296 0.35751 0.20335 0.0
C345 C 0.95056 0.34743 0.2105 0.0
C346 C 0.9805 0.3747 0.26346 0.0
C347 C 0.96529 0.38186 0.33245 0.0
C348 C 0.94263 0.37184 0.33968 0.0
C349 C 0.93552 0.35479 0.27852 0.0
C350 C 0.00472 0.38515 0.25344 0.0
C351 C 0.92592 0.37901 0.41249 0.0
C352 C 0.98893 0.40939 0.54262 0.0
C353 C 0.98302 0.43301 0.53011 0.0
C354 C 0.98398 0.3926 0.47734 0.0
C355 C 0.97298 0.39972 0.3978 0.0
C356 C 0.96786 0.42373 0.38348 0.0
C357 C 0.97287 0.44009 0.45006 0.0
C358 C 0.98969 0.36715 0.49493 0.0
C359 C 0.95627 0.43204 0.29933 0.0
H360 H 0.98467 0.35194 0.15085 0.0
H361 H 0.91819 0.34708 0.28459 0.0
H362 H 0.00344 0.40449 0.24613 0.0
H363 H 0.01523 0.38166 0.31372 0.0
H364 H 0.01427 0.37794 0.1954 0.0
H365 H 0.90889 0.36956 0.40876 0.0
H366 H 0.93397 0.37545 0.47787 0.0
H367 H 0.92244 0.39815 0.40886 0.0
H368 H 0.99682 0.40391 0.60444 0.0
H369 H 0.96823 0.45836 0.4403 0.0
H370 H 0.00014 0.35976 0.43963 0.0
H371 H 0.97318 0.35686 0.49921 0.0
H372 H 0.99964 0.36473 0.55738 0.0
H373 H 0.96598 0.42542 0.24083 0.0
H374 H 0.95531 0.45149 0.29537 0.0
H375 H 0.93816 0.42493 0.29556 0.0
C376 C 0.85795 0.98617 0.07314 0.0
C377 C 0.85591 0.00461 0.13411 0.0
C378 C 0.87625 0.98574 0.01084 0.0
C379 C 0.89312 0.00399 0.01045 0.0
C380 C 0.89118 0.02263 0.07194 0.0
C381 C 0.87249 0.02281 0.13254 0.0
C382 C 0.87753 0.96576 0.94541 0.0
C383 C 0.909 0.04225 0.07434 0.0
C384 C 0.95258 0.99228 0.90463 0.0
C385 C 0.9504 0.00403 0.82393 0.0
C386 C 0.93411 0.99211 0.96616 0.0
C387 C 0.91278 0.00368 0.94551 0.0
C388 C 0.91031 0.01515 0.863 0.0
C389 C 0.9292 0.01524 0.80328 0.0
C390 C 0.93749 0.97968 0.05337 0.0
C391 C 0.88776 0.02741 0.83796 0.0
H392 H 0.84516 0.97209 0.07381 0.0
H393 H 0.87112 0.03703 0.17986 0.0
H394 H 0.87717 0.97274 0.87696 0.0
H395 H 0.89434 0.95614 0.95342 0.0
H396 H 0.86281 0.95314 0.95347 0.0
H397 H 0.90513 0.05532 0.12687 0.0
H398 H 0.9268 0.03493 0.08589 0.0
H399 H 0.90943 0.05142 0.0097 0.0
H400 H 0.96864 0.98306 0.91929 0.0
H401 H 0.92741 0.0242 0.74044 0.0
H402 H 0.92403 0.96578 0.06147 0.0
H403 H 0.93514 0.99229 0.10857 0.0
H404 H 0.95516 0.97154 0.05908 0.0
H405 H 0.87285 0.01491 0.84163 0.0
H406 H 0.88846 0.03492 0.77026 0.0
H407 H 0.88405 0.04178 0.88541 0.0
C408 C 0.55333 0.86445 0.05861 0.0
C409 C 0.54214 0.86176 0.14055 0.0
C410 C 0.54601 0.8817 0.99862 0.0
C411 C 0.5273 0.89686 0.02177 0.0
C412 C 0.51608 0.89443 0.1048 0.0
C413 C 0.52352 0.87674 0.16301 0.0
C414 C 0.55823 0.8836 0.9102 0.0
C415 C 0.49636 0.9106 0.13224 0.0
C416 C 0.52494 0.95381 0.89309 0.0
C417 C 0.50748 0.94893 0.83052 0.0
C418 C 0.5309 0.93737 0.95808 0.0
C419 C 0.51959 0.91526 0.95873 0.0
C420 C 0.50181 0.9103 0.89599 0.0
C421 C 0.49583 0.92732 0.83288 0.0
C422 C 0.54968 0.94351 0.02467 0.0
C423 C 0.4896 0.88679 0.894 0.0
H424 H 0.56765 0.85284 0.0407 0.0
H425 H 0.51489 0.87481 0.2265 0.0
H426 H 0.54526 0.88161 0.85603 0.0
H427 H 0.56631 0.90121 0.90309 0.0
H428 H 0.57215 0.87012 0.90169 0.0
H429 H 0.48969 0.90658 0.1996 0.0
H430 H 0.50248 0.92909 0.13083 0.0
H431 H 0.48158 0.90918 0.08484 0.0
H432 H 0.5342 0.97041 0.89065 0.0
H433 H 0.48238 0.92354 0.78428 0.0
H434 H 0.56539 0.93238 0.01343 0.0
H435 H 0.54334 0.93994 0.09273 0.0
H436 H 0.55506 0.96223 0.02041 0.0
H437 H 0.5026 0.87273 0.88036 0.0
H438 H 0.47564 0.886 0.84284 0.0
H439 H 0.48161 0.88296 0.95932 0.0
C440 C 0.63216 0.50861 0.1625 0.0
C441 C 0.64513 0.4884 0.1832 0.0
C442 C 0.61527 0.50836 0.09493 0.0
C443 C 0.61147 0.48749 0.04621 0.0
C444 C 0.62453 0.46706 0.06667 0.0
C445 C 0.6411 0.46772 0.13523 0.0
C446 C 0.60147 0.53042 0.07571 0.0
C447 C 0.62111 0.44453 0.01568 0.0
C448 C 0.55423 0.47966 0.92077 0.0
C449 C 0.56089 0.48582 0.83468 0.0
C450 C 0.57043 0.48038 0.99053 0.0
C451 C 0.59395 0.48706 0.97332 0.0
C452 C 0.60081 0.49311 0.88622 0.0
C453 C 0.58414 0.4925 0.81794 0.0
C454 C 0.5624 0.47398 0.08257 0.0
C455 C 0.62576 0.50012 0.86511 0.0
H456 H 0.63508 0.52462 0.19955 0.0
H457 H 0.6511 0.45205 0.15065 0.0
H458 H 0.60467 0.53613 0.00665 0.0
H459 H 0.58238 0.52689 0.08218 0.0
H460 H 0.60619 0.54506 0.12083 0.0
H461 H 0.63272 0.43021 0.0396 0.0
H462 H 0.6026 0.43864 0.02121 0.0
H463 H 0.62475 0.44754 0.94452 0.0
H464 H 0.53632 0.4742 0.93366 0.0
H465 H 0.58934 0.49722 0.75131 0.0
H466 H 0.56596 0.4887 0.12867 0.0
H467 H 0.5724 0.45856 0.10675 0.0
H468 H 0.54335 0.46979 0.08521 0.0
H469 H 0.63076 0.51577 0.90442 0.0
H470 H 0.62827 0.50419 0.79391 0.0
H471 H 0.63795 0.48574 0.88365 0.0
C472 C 0.98077 0.62508 0.08113 0.0
C473 C 0.95795 0.62427 0.11583 0.0
C474 C 0.98796 0.60921 0.01558 0.0
C475 C 0.97211 0.5918 0.98575 0.0
C476 C 0.94944 0.59018 0.02375 0.0
C477 C 0.9425 0.60667 0.08755 0.0
C478 C 0.01214 0.61174 0.97556 0.0
C479 C 0.93234 0.57136 0.99555 0.0
C480 C 0.97889 0.56883 0.752 0.0
C481 C 0.99076 0.54764 0.76598 0.0
C482 C 0.97291 0.58343 0.82307 0.0
C483 C 0.97862 0.57644 0.91026 0.0
C484 C 0.99063 0.55503 0.92473 0.0
C485 C 0.99693 0.54106 0.85204 0.0
C486 C 0.96043 0.60632 0.80479 0.0
C487 C 0.9966 0.54676 0.01683 0.0
H488 H 0.99273 0.63872 0.10272 0.0
H489 H 0.92493 0.60583 0.1151 0.0
H490 H 0.02176 0.59484 0.97911 0.0
H491 H 0.01054 0.61643 0.90462 0.0
H492 H 0.02274 0.62546 0.00913 0.0
H493 H 0.9163 0.57108 0.03738 0.0
H494 H 0.92703 0.57427 0.9259 0.0
H495 H 0.94086 0.55387 0.99885 0.0
H496 H 0.97417 0.57398 0.68537 0.0
H497 H 0.00669 0.52499 0.86255 0.0
H498 H 0.97057 0.62115 0.83311 0.0
H499 H 0.94294 0.60629 0.83713 0.0
H500 H 0.95796 0.60951 0.73296 0.0
H501 H 0.00815 0.55973 0.0499 0.0
H502 H 0.00555 0.52943 0.01673 0.0
H503 H 0.98034 0.54536 0.05698 0.0
C504 C 0.97858 0.22471 0.2286 0.0
C505 C 0.96348 0.22642 0.15598 0.0
C506 C 0.98368 0.20285 0.26687 0.0
C507 C 0.97394 0.1822 0.22992 0.0
C508 C 0.95916 0.18384 0.15489 0.0
C509 C 0.95368 0.20603 0.11994 0.0
C510 C 0.99953 0.20185 0.3467 0.0
C511 C 0.94934 0.16216 0.11109 0.0
C512 C 0.00428 0.12416 0.27769 0.0
C513 C 0.98958 0.11429 0.34213 0.0
C514 C 0.99959 0.14635 0.24183 0.0
C515 C 0.97942 0.15887 0.26937 0.0
C516 C 0.96451 0.1491 0.33464 0.0
C517 C 0.96978 0.12694 0.37034 0.0
C518 C 0.01579 0.15589 0.17187 0.0
C519 C 0.94311 0.16214 0.36724 0.0
H520 H 0.98605 0.24056 0.25652 0.0
H521 H 0.94219 0.20741 0.06307 0.0
H522 H 0.9904 0.19289 0.40206 0.0
H523 H 0.01547 0.19143 0.33106 0.0
H524 H 0.00507 0.21957 0.3691 0.0
H525 H 0.93869 0.1664 0.05172 0.0
H526 H 0.96389 0.15034 0.09095 0.0
H527 H 0.9382 0.15233 0.15858 0.0
H528 H 0.01938 0.11439 0.25418 0.0
H529 H 0.95854 0.11967 0.42129 0.0
H530 H 0.01921 0.17488 0.18129 0.0
H531 H 0.00706 0.15364 0.10722 0.0
H532 H 0.03288 0.14649 0.17012 0.0
H533 H 0.94838 0.17948 0.39417 0.0
H534 H 0.93352 0.15231 0.41941 0.0
H535 H 0.93094 0.16546 0.31142 0.0
C536 C 0.29536 0.00492 0.08587 0.0
C537 C 0.2829 0.02413 0.11974 0.0
C538 C 0.31876 0.00076 0.11019 0.0
C539 C 0.32981 0.01578 0.17189 0.0
C540 C 0.31741 0.0353 0.20599 0.0
C541 C 0.29415 0.0393 0.17925 0.0
C542 C 0.33174 0.98049 0.06896 0.0
C543 C 0.32858 0.05172 0.27199 0.0
C544 C 0.37857 0.99091 0.31414 0.0
C545 C 0.39853 0.00231 0.28056 0.0
C546 C 0.35625 0.99492 0.27832 0.0
C547 C 0.35377 0.01027 0.20537 0.0
C548 C 0.37398 0.02104 0.16842 0.0
C549 C 0.39609 0.01698 0.20668 0.0
C550 C 0.33519 0.98339 0.32093 0.0
C551 C 0.37265 0.03773 0.09117 0.0
H552 H 0.28675 0.99258 0.04274 0.0
H553 H 0.28467 0.05421 0.2059 0.0
H554 H 0.34639 0.98767 0.02942 0.0
H555 H 0.33941 0.96896 0.12045 0.0
H556 H 0.3204 0.96977 0.02495 0.0
H557 H 0.31646 0.06594 0.29319 0.0
H558 H 0.33422 0.04174 0.33131 0.0
H559 H 0.3445 0.05981 0.24259 0.0
H560 H 0.38032 0.97908 0.36985 0.0
H561 H 0.41133 0.02604 0.18046 0.0
H562 H 0.32563 0.9726 0.2717 0.0
H563 H 0.32284 0.99705 0.34503 0.0
H564 H 0.34013 0.97198 0.3775 0.0
H565 H 0.35521 0.03805 0.05886 0.0
H566 H 0.38614 0.03297 0.04117 0.0
H567 H 0.37681 0.05573 0.11443 0.0
C568 C 0.51209 0.26003 0.20181 0.0
C569 C 0.53336 0.25214 0.1657 0.0
C570 C 0.50994 0.28274 0.23698 0.0
C571 C 0.52971 0.2978 0.23797 0.0
C572 C 0.55142 0.28973 0.20358 0.0
C573 C 0.553 0.26698 0.168 0.0
C574 C 0.48646 0.29064 0.2728 0.0
C575 C 0.5729 0.30524 0.20348 0.0
C576 C 0.51916 0.36362 0.25478 0.0
C577 C 0.52306 0.36789 0.34501 0.0
C578 C 0.5213 0.34095 0.21917 0.0
C579 C 0.52764 0.32201 0.2748 0.0
C580 C 0.53174 0.32617 0.36575 0.0
C581 C 0.52931 0.349 0.39978 0.0
C582 C 0.51645 0.33723 0.12215 0.0
C583 C 0.53856 0.30645 0.42729 0.0
H584 H 0.49713 0.24831 0.20377 0.0
H585 H 0.56953 0.26091 0.14071 0.0
H586 H 0.48821 0.29569 0.34329 0.0
H587 H 0.48036 0.30638 0.2363 0.0
H588 H 0.47282 0.27678 0.26729 0.0
H589 H 0.58857 0.29622 0.17577 0.0
H590 H 0.56945 0.32127 0.16392 0.0
H591 H 0.57696 0.311 0.27184 0.0
H592 H 0.51463 0.37808 0.21148 0.0
H593 H 0.53201 0.35197 0.46978 0.0
H594 H 0.50049 0.32627 0.11456 0.0
H595 H 0.5312 0.32768 0.09035 0.0
H596 H 0.51369 0.35403 0.08654 0.0
H597 H 0.52452 0.29296 0.42852 0.0
H598 H 0.54163 0.31266 0.49592 0.0
H599 H 0.55478 0.29778 0.403 0.0
C600 C 0.22228 0.50044 0.14419 0.0
C601 C 0.2317 0.52315 0.13998 0.0
C602 C 0.1986 0.49676 0.16651 0.0
C603 C 0.18415 0.51622 0.18736 0.0
C604 C 0.19362 0.53918 0.18381 0.0
C605 C 0.21727 0.54236 0.16032 0.0
C606 C 0.18908 0.47205 0.16842 0.0
C607 C 0.17872 0.56041 0.20455 0.0
C608 C 0.11756 0.51053 0.18062 0.0
C609 C 0.11207 0.50797 0.27051 0.0
C610 C 0.14094 0.51293 0.15233 0.0
C611 C 0.15931 0.51265 0.21543 0.0
C612 C 0.15388 0.50971 0.30615 0.0
C613 C 0.13035 0.50742 0.33254 0.0
C614 C 0.14589 0.51538 0.05478 0.0
C615 C 0.1729 0.50943 0.37562 0.0
H616 H 0.23352 0.48547 0.1321 0.0
H617 H 0.22446 0.55996 0.15727 0.0
H618 H 0.1824 0.46785 0.2355 0.0
H619 H 0.17407 0.47052 0.12206 0.0
H620 H 0.20255 0.45882 0.14984 0.0
H621 H 0.18868 0.57709 0.19831 0.0
H622 H 0.16344 0.56105 0.15911 0.0
H623 H 0.17172 0.55909 0.27285 0.0
H624 H 0.10353 0.51053 0.13221 0.0
H625 H 0.12622 0.50573 0.40221 0.0
H626 H 0.15211 0.49825 0.02901 0.0
H627 H 0.15983 0.52855 0.04197 0.0
H628 H 0.12994 0.52051 0.01723 0.0
H629 H 0.18603 0.49563 0.36006 0.0
H630 H 0.16582 0.50616 0.44297 0.0
H631 H 0.18227 0.5265 0.37579 0.0
C632 C 0.94315 0.76778 0.20251 0.0
C633 C 0.96187 0.75227 0.21666 0.0
C634 C 0.94725 0.79107 0.17589 0.0
C635 C 0.97059 0.79884 0.16158 0.0
C636 C 0.98948 0.78296 0.17326 0.0
C637 C 0.98488 0.75989 0.20079 0.0
C638 C 0.92669 0.80755 0.1654 0.0
C639 C 0.0146 0.79042 0.15779 0.0
C640 C 0.98241 0.85419 0.02785 0.0
C641 C 0.9874 0.87058 0.09454 0.0
C642 C 0.97651 0.83088 0.04851 0.0
C643 C 0.97542 0.82379 0.13809 0.0
C644 C 0.97985 0.84038 0.20568 0.0
C645 C 0.98583 0.86353 0.18321 0.0
C646 C 0.97212 0.81369 0.97442 0.0
C647 C 0.97896 0.83342 0.30175 0.0
H648 H 0.92534 0.76188 0.21464 0.0
H649 H 0.99933 0.74772 0.20938 0.0
H650 H 0.92818 0.82213 0.2137 0.0
H651 H 0.92682 0.81548 0.09842 0.0
H652 H 0.90958 0.79859 0.17577 0.0
H653 H 0.02715 0.77561 0.16512 0.0
H654 H 0.01655 0.79792 0.0905 0.0
H655 H 0.01948 0.80436 0.20556 0.0
H656 H 0.9838 0.8594 0.95922 0.0
H657 H 0.98936 0.87613 0.23521 0.0
H658 H 0.9547 0.80526 0.98286 0.0
H659 H 0.9855 0.79954 0.9764 0.0
H660 H 0.97276 0.82219 0.90837 0.0
H661 H 0.96207 0.82462 0.31719 0.0
H662 H 0.98108 0.84863 0.3466 0.0
H663 H 0.99324 0.82071 0.31552 0.0
C664 C 0.71409 0.02177 0.258 0.0
C665 C 0.72154 0.00532 0.32107 0.0
C666 C 0.6904 0.02343 0.23323 0.0
C667 C 0.6737 0.0082 0.27212 0.0
C668 C 0.68098 0.99198 0.33741 0.0
C669 C 0.70482 0.99059 0.36059 0.0
C670 C 0.68327 0.04121 0.16435 0.0
C671 C 0.66367 0.9757 0.38126 0.0
C672 C 0.60942 0.02516 0.24285 0.0
C673 C 0.60318 0.0116 0.16927 0.0
C674 C 0.6321 0.02382 0.27905 0.0
C675 C 0.6489 0.00847 0.24077 0.0
C676 C 0.64232 0.99404 0.16872 0.0
C677 C 0.61957 0.99577 0.134 0.0
C678 C 0.63803 0.0399 0.35505 0.0
C679 C 0.65959 0.97742 0.1259 0.0
H680 H 0.72687 0.0333 0.22732 0.0
H681 H 0.71036 0.97738 0.40733 0.0
H682 H 0.67556 0.03212 0.10636 0.0
H683 H 0.66955 0.05301 0.19174 0.0
H684 H 0.6983 0.05207 0.14152 0.0
H685 H 0.67123 0.96699 0.44048 0.0
H686 H 0.64772 0.98554 0.40109 0.0
H687 H 0.65817 0.96194 0.33372 0.0
H688 H 0.59689 0.03758 0.26996 0.0
H689 H 0.61469 0.985 0.07785 0.0
H690 H 0.64064 0.05794 0.32916 0.0
H691 H 0.65416 0.0346 0.39074 0.0
H692 H 0.62321 0.04059 0.40282 0.0
H693 H 0.67438 0.98754 0.09704 0.0
H694 H 0.65142 0.96676 0.0727 0.0
H695 H 0.66708 0.96538 0.17609 0.0
C696 C 0.54613 0.71862 0.23884 0.0
C697 C 0.52847 0.73562 0.24591 0.0
C698 C 0.54097 0.69583 0.20932 0.0
C699 C 0.51772 0.69016 0.18392 0.0
C700 C 0.49984 0.70736 0.1905 0.0
C701 C 0.50542 0.72987 0.22193 0.0
C702 C 0.56035 0.67777 0.20591 0.0
C703 C 0.47485 0.70196 0.16436 0.0
C704 C 0.51074 0.63812 0.02898 0.0
C705 C 0.50438 0.62013 0.08767 0.0
C706 C 0.51471 0.66108 0.05916 0.0
C707 C 0.5122 0.66623 0.15023 0.0
C708 C 0.50513 0.64831 0.20935 0.0
C709 C 0.50149 0.62546 0.17756 0.0
C710 C 0.52182 0.67978 0.99369 0.0
C711 C 0.50218 0.65297 0.30677 0.0
H712 H 0.56393 0.72304 0.25798 0.0
H713 H 0.49182 0.74315 0.22626 0.0
H714 H 0.55576 0.66266 0.24884 0.0
H715 H 0.56232 0.67099 0.13756 0.0
H716 H 0.5775 0.68499 0.22788 0.0
H717 H 0.46307 0.71737 0.17227 0.0
H718 H 0.47425 0.69611 0.09444 0.0
H719 H 0.46795 0.68735 0.20538 0.0
H720 H 0.51255 0.63426 0.95918 0.0
H721 H 0.49687 0.61163 0.22364 0.0
H722 H 0.53954 0.68653 0.01045 0.0
H723 H 0.50947 0.69481 0.99739 0.0
H724 H 0.52215 0.67312 0.92466 0.0
H725 H 0.49134 0.63928 0.33933 0.0
H726 H 0.49386 0.67027 0.31885 0.0
H727 H 0.51975 0.65315 0.33828 0.0
C728 C 0.78885 0.52697 0.31453 0.0
C729 C 0.77503 0.50662 0.31774 0.0
C730 C 0.81142 0.52667 0.27689 0.0
C731 C 0.82008 0.50565 0.23879 0.0
C732 C 0.80621 0.48506 0.24174 0.0
C733 C 0.78398 0.48577 0.28157 0.0
C734 C 0.8253 0.54923 0.27544 0.0
C735 C 0.8146 0.46236 0.20084 0.0
C736 C 0.86581 0.5069 0.0562 0.0
C737 C 0.88588 0.49884 0.10056 0.0
C738 C 0.8445 0.51014 0.10126 0.0
C739 C 0.84318 0.50511 0.19274 0.0
C740 C 0.86362 0.498 0.23866 0.0
C741 C 0.88473 0.49498 0.1921 0.0
C742 C 0.82315 0.51809 0.05031 0.0
C743 C 0.86301 0.49277 0.33635 0.0
H744 H 0.78189 0.54342 0.33832 0.0
H745 H 0.77345 0.46993 0.28344 0.0
H746 H 0.8222 0.55946 0.33692 0.0
H747 H 0.84444 0.54628 0.26796 0.0
H748 H 0.81924 0.56012 0.21908 0.0
H749 H 0.80173 0.44787 0.20917 0.0
H750 H 0.81783 0.46495 0.12914 0.0
H751 H 0.83148 0.45693 0.23109 0.0
H752 H 0.86647 0.50977 0.98543 0.0
H753 H 0.90027 0.48921 0.22727 0.0
H754 H 0.81563 0.53406 0.08134 0.0
H755 H 0.80946 0.50423 0.05253 0.0
H756 H 0.82726 0.52202 0.98005 0.0
H757 H 0.8528 0.5064 0.37169 0.0
H758 H 0.8809 0.49179 0.36535 0.0
H759 H 0.85411 0.47571 0.34761 0.0
C760 C 0.03707 0.17387 0.97727 0.0
C761 C 0.01528 0.18503 0.96704 0.0
C762 C 0.03995 0.15014 0.95426 0.0
C763 C 0.02056 0.13737 0.92081 0.0
C764 C 0.99866 0.14871 0.90917 0.0
C765 C 0.99634 0.17242 0.93185 0.0
C766 C 0.06354 0.13861 0.96755 0.0
C767 C 0.9775 0.13565 0.87447 0.0
C768 C 0.02853 0.0824 0.78345 0.0
C769 C 0.02258 0.06469 0.84404 0.0
C770 C 0.02886 0.10605 0.80863 0.0
C771 C 0.02301 0.11222 0.89647 0.0
C772 C 0.01774 0.09441 0.95878 0.0
C773 C 0.01772 0.07082 0.9319 0.0
C774 C 0.0346 0.12451 0.74025 0.0
C775 C 0.01153 0.10028 0.05321 0.0
H776 H 0.05172 0.18358 0.00464 0.0
H777 H 0.97939 0.18087 0.92469 0.0
H778 H 0.06198 0.12447 0.01762 0.0
H779 H 0.06955 0.13033 0.90513 0.0
H780 H 0.07713 0.15126 0.98995 0.0
H781 H 0.96176 0.1471 0.86895 0.0
H782 H 0.98142 0.12817 0.80839 0.0
H783 H 0.97322 0.1208 0.91909 0.0
H784 H 0.03256 0.07785 0.71554 0.0
H785 H 0.01316 0.05726 0.97916 0.0
H786 H 0.04862 0.13631 0.76498 0.0
H787 H 0.01886 0.1355 0.72767 0.0
H788 H 0.04042 0.11672 0.67657 0.0
H789 H 0.02653 0.10935 0.08484 0.0
H790 H 0.00721 0.08444 0.09282 0.0
H791 H 0.99628 0.11239 0.05514 0.0
C792 C 0.31312 0.99011 0.83059 0.0
C793 C 0.30739 0.96807 0.79539 0.0
C794 C 0.33665 0.99734 0.83787 0.0
C795 C 0.35484 0.98235 0.80778 0.0
C796 C 0.34918 0.9598 0.775 0.0
C797 C 0.32559 0.95295 0.76939 0.0
C798 C 0.34181 0.02146 0.87391 0.0
C799 C 0.36804 0.94321 0.74289 0.0
C800 C 0.41081 0.00834 0.71411 0.0
C801 C 0.42723 0.00312 0.78022 0.0
C802 C 0.38707 0.00246 0.72415 0.0
C803 C 0.37953 0.99085 0.80197 0.0
C804 C 0.39601 0.98601 0.86994 0.0
C805 C 0.41959 0.99263 0.85878 0.0
C806 C 0.3703 0.00762 0.64928 0.0
C807 C 0.38943 0.97336 0.95395 0.0
H808 H 0.29933 0.00218 0.84907 0.0
H809 H 0.32138 0.9358 0.74269 0.0
H810 H 0.35887 0.02187 0.90908 0.0
H811 H 0.34274 0.03413 0.81834 0.0
H812 H 0.32776 0.0274 0.9198 0.0
H813 H 0.3608 0.92598 0.72196 0.0
H814 H 0.37747 0.95114 0.686 0.0
H815 H 0.38111 0.94021 0.79603 0.0
H816 H 0.41662 0.01659 0.65333 0.0
H817 H 0.43223 0.98847 0.90998 0.0
H818 H 0.3551 0.01791 0.67386 0.0
H819 H 0.36337 0.99091 0.62209 0.0
H820 H 0.37879 0.01755 0.59472 0.0
H821 H 0.37295 0.96315 0.94795 0.0
H822 H 0.38744 0.98646 0.00768 0.0
H823 H 0.40367 0.96117 0.97421 0.0
C824 C 0.4842 0.31922 0.93281 0.0
C825 C 0.46242 0.30874 0.95086 0.0
C826 C 0.48565 0.34229 0.90191 0.0
C827 C 0.46478 0.35518 0.88762 0.0
C828 C 0.44267 0.3446 0.90342 0.0
C829 C 0.44174 0.32145 0.93527 0.0
C830 C 0.50958 0.35294 0.88561 0.0
C831 C 0.4201 0.35784 0.88775 0.0
C832 C 0.47427 0.42076 0.89612 0.0
C833 C 0.4777 0.42607 0.8065 0.0
C834 C 0.46875 0.39791 0.92317 0.0
C835 C 0.46648 0.38 0.85897 0.0
C836 C 0.46866 0.38548 0.76813 0.0
C837 C 0.47433 0.40847 0.74293 0.0
C838 C 0.46675 0.39269 0.0208 0.0
C839 C 0.46615 0.36685 0.69776 0.0
H840 H 0.50029 0.3095 0.94397 0.0
H841 H 0.42486 0.31341 0.94858 0.0
H842 H 0.51137 0.35783 0.81497 0.0
H843 H 0.51163 0.36924 0.92499 0.0
H844 H 0.5241 0.34076 0.90296 0.0
H845 H 0.40435 0.34671 0.89882 0.0
H846 H 0.41915 0.3732 0.93269 0.0
H847 H 0.41964 0.36468 0.8191 0.0
H848 H 0.4767 0.43427 0.94572 0.0
H849 H 0.47668 0.41246 0.67344 0.0
H850 H 0.48203 0.38201 0.04198 0.0
H851 H 0.4507 0.3823 0.03474 0.0
H852 H 0.46629 0.40894 0.06139 0.0
H853 H 0.48138 0.35473 0.70068 0.0
H854 H 0.46531 0.37449 0.63027 0.0
H855 H 0.4501 0.35624 0.70933 0.0
C856 C 0.17361 0.46441 0.8405 0.0
C857 C 0.18098 0.48727 0.86102 0.0
C858 C 0.15107 0.46023 0.8065 0.0
C859 C 0.13553 0.47933 0.79389 0.0
C860 C 0.14309 0.50246 0.8125 0.0
C861 C 0.16579 0.50616 0.84501 0.0
C862 C 0.14366 0.43538 0.78612 0.0
C863 C 0.12693 0.52327 0.80088 0.0
C864 C 0.0808 0.47683 0.65204 0.0
C865 C 0.06317 0.4749 0.7165 0.0
C866 C 0.10463 0.47688 0.67566 0.0
C867 C 0.1109 0.47525 0.76594 0.0
C868 C 0.09327 0.47203 0.83079 0.0
C869 C 0.06963 0.47177 0.80522 0.0
C870 C 0.12296 0.48003 0.60441 0.0
C871 C 0.09921 0.47042 0.92793 0.0
H872 H 0.18532 0.44974 0.85218 0.0
H873 H 0.17137 0.52388 0.86038 0.0
H874 H 0.12925 0.43007 0.83132 0.0
H875 H 0.13676 0.43425 0.71769 0.0
H876 H 0.15836 0.42271 0.79336 0.0
H877 H 0.1357 0.54016 0.81676 0.0
H878 H 0.12046 0.52404 0.73182 0.0
H879 H 0.11138 0.52132 0.84452 0.0
H880 H 0.07605 0.47912 0.58333 0.0
H881 H 0.0562 0.4702 0.85568 0.0
H882 H 0.13814 0.46819 0.61564 0.0
H883 H 0.12961 0.49832 0.60598 0.0
H884 H 0.11574 0.47657 0.53753 0.0
H885 H 0.11382 0.4579 0.93909 0.0
H886 H 0.08391 0.46485 0.96842 0.0
H887 H 0.10509 0.48786 0.9518 0.0
C888 C 0.96936 0.82016 0.52705 0.0
C889 C 0.98957 0.80793 0.50066 0.0
C890 C 0.97079 0.84321 0.55906 0.0
C891 C 0.99297 0.85425 0.56501 0.0
C892 C 0.01349 0.84187 0.53999 0.0
C893 C 0.01155 0.81883 0.5081 0.0
C894 C 0.94854 0.85588 0.58507 0.0
C895 C 0.03747 0.85308 0.54586 0.0
C896 C 0.99619 0.92073 0.56472 0.0
C897 C 0.99948 0.92564 0.65465 0.0
C898 C 0.99379 0.89759 0.53478 0.0
C899 C 0.99474 0.87888 0.59626 0.0
C900 C 0.99775 0.88371 0.6873 0.0
C901 C -6e-05 0.90705 0.71548 0.0
C902 C 0.9904 0.89321 0.43723 0.0
C903 C 0.99888 0.86425 0.75497 0.0
H904 H 0.9523 0.81188 0.52137 0.0
H905 H 0.02724 0.80952 0.48767 0.0
H906 H 0.94975 0.86193 0.6546 0.0
H907 H 0.94625 0.8717 0.54318 0.0
H908 H 0.93271 0.84464 0.57815 0.0
H909 H 0.05174 0.84088 0.52591 0.0
H910 H 0.03817 0.8688 0.50262 0.0
H911 H 0.04082 0.85907 0.61449 0.0
H912 H 0.99568 0.93498 0.51728 0.0
H913 H 0.00248 0.91064 0.78515 0.0
H914 H 0.97314 0.8847 0.42616 0.0
H915 H 0.00419 0.88114 0.4123 0.0
H916 H 0.99103 0.90964 0.39775 0.0
H917 H 0.98147 0.85564 0.76029 0.0
H918 H 0.00397 0.87083 0.82134 0.0
H919 H 0.01171 0.85063 0.73435 0.0
C920 C 0.68837 0.98348 0.6374 0.0
C921 C 0.69227 0.96327 0.68837 0.0
C922 C 0.66559 0.99256 0.62681 0.0
C923 C 0.64646 0.98141 0.66944 0.0
C924 C 0.65035 0.96087 0.71995 0.0
C925 C 0.67323 0.95216 0.72908 0.0
C926 C 0.66213 0.01445 0.57231 0.0
C927 C 0.63036 0.94825 0.76524 0.0
C928 C 0.59113 0.01389 0.73478 0.0
C929 C 0.57489 0.00528 0.67325 0.0
C930 C 0.61482 0.00728 0.73104 0.0
C931 C 0.62241 0.9915 0.66458 0.0
C932 C 0.60629 0.98373 0.59942 0.0
C933 C 0.58277 0.99099 0.60398 0.0
C934 C 0.63134 0.01597 0.80189 0.0
C935 C 0.61292 0.96653 0.52778 0.0
H936 H 0.70304 0.9927 0.60826 0.0
H937 H 0.6763 0.93663 0.76897 0.0
H938 H 0.64612 0.01298 0.53098 0.0
H939 H 0.65972 0.0297 0.61702 0.0
H940 H 0.67745 0.018 0.52876 0.0
H941 H 0.6363 0.93227 0.80091 0.0
H942 H 0.62168 0.96016 0.81327 0.0
H943 H 0.61697 0.94306 0.71567 0.0
H944 H 0.58514 0.02514 0.78796 0.0
H945 H 0.57029 0.98415 0.55643 0.0
H946 H 0.64765 0.02301 0.77174 0.0
H947 H 0.63642 0.00113 0.84537 0.0
H948 H 0.62326 0.02988 0.84351 0.0
H949 H 0.608 0.97386 0.46234 0.0
H950 H 0.60265 0.95013 0.53669 0.0
H951 H 0.63181 0.96195 0.52697 0.0
C952 C 0.4933 0.66873 0.52034 0.0
C953 C 0.51314 0.68249 0.50228 0.0
C954 C 0.49563 0.64522 0.54653 0.0
C955 C 0.51833 0.63534 0.55542 0.0
C956 C 0.53841 0.64921 0.53836 0.0
C957 C 0.53558 0.67264 0.51208 0.0
C958 C 0.4738 0.63084 0.56323 0.0
C959 C 0.56285 0.63918 0.54643 0.0
C960 C 0.52199 0.58104 0.69927 0.0
C961 C 0.52096 0.56303 0.63614 0.0
C962 C 0.52199 0.60469 0.67373 0.0
C963 C 0.52097 0.61046 0.58285 0.0
C964 C 0.52125 0.59238 0.51863 0.0
C965 C 0.52117 0.56887 0.5461 0.0
C966 C 0.52196 0.62346 0.74425 0.0
C967 C 0.52025 0.59764 0.42092 0.0
H968 H 0.47592 0.6762 0.51257 0.0
H969 H 0.55101 0.68311 0.49778 0.0
H970 H 0.47414 0.62358 0.63127 0.0
H971 H 0.45746 0.64126 0.55486 0.0
H972 H 0.47329 0.61576 0.51687 0.0
H973 H 0.57667 0.65244 0.53252 0.0
H974 H 0.5656 0.63212 0.61398 0.0
H975 H 0.565 0.62435 0.49955 0.0
H976 H 0.52193 0.57675 0.76898 0.0
H977 H 0.5204 0.55511 0.49673 0.0
H978 H 0.50463 0.63239 0.74522 0.0
H979 H 0.53543 0.63698 0.72966 0.0
H980 H 0.52537 0.61615 0.81104 0.0
H981 H 0.50182 0.6015 0.40238 0.0
H982 H 0.52628 0.58248 0.38065 0.0
H983 H 0.53111 0.61314 0.40375 0.0
C984 C 0.81422 0.55609 0.54645 0.0
C985 C 0.8148 0.58064 0.55331 0.0
C986 C 0.83491 0.54275 0.55285 0.0
C987 C 0.85661 0.55424 0.56834 0.0
C988 C 0.85717 0.57899 0.5764 0.0
C989 C 0.83627 0.59183 0.56843 0.0
C990 C 0.83293 0.51639 0.54607 0.0
C991 C 0.87978 0.59189 0.59538 0.0
C992 C 0.9072 0.52081 0.67208 0.0
C993 C 0.92249 0.51795 0.6 0.0
C994 C 0.88545 0.53205 0.66217 0.0
C995 C 0.87875 0.54062 0.5781 0.0
C996 C 0.89375 0.53716 0.50447 0.0
C997 C 0.91545 0.5259 0.51635 0.0
C998 C 0.8699 0.53529 0.74219 0.0
C999 C 0.88751 0.54617 0.41366 0.0
H1000 H 0.79772 0.54708 0.53848 0.0
H1001 H 0.83668 0.61079 0.575 0.0
H1002 H 0.84996 0.50762 0.53308 0.0
H1003 H 0.82574 0.50946 0.60909 0.0
H1004 H 0.82039 0.51151 0.49291 0.0
H1005 H 0.87709 0.61112 0.60232 0.0
H1006 H 0.88775 0.58512 0.65727 0.0
H1007 H 0.89257 0.58877 0.54129 0.0
H1008 H 0.91236 0.51462 0.73694 0.0
H1009 H 0.9271 0.52381 0.46017 0.0
H1010 H 0.85269 0.52672 0.73069 0.0
H1011 H 0.86653 0.55426 0.75316 0.0
H1012 H 0.87779 0.52781 0.80316 0.0
H1013 H 0.86833 0.54541 0.40177 0.0
H1014 H 0.89664 0.53608 0.36098 0.0
H1015 H 0.89306 0.56477 0.408 0.0
loop_
_geom_bond_atom_site_label_1
_geom_bond_atom_site_label_2
_geom_bond_distance
_geom_bond_site_symmetry_2
_ccdc_geom_bond_type
O0 Cd1 2.300 . S
O0 C7 1.275 . S
Cd1 O0 2.300 . S
Cd1 O9 2.381 . S
Cd1 O10 2.378 . S
O2 Cd3 2.385 . S
O2 C7 1.255 . S
Cd3 O2 2.385 . S
Cd3 O4 2.317 . S
O4 Cd3 2.317 . S
O4 C5 1.232 . S
C5 O4 1.232 . S
C5 O6 1.218 . S
O6 C5 1.218 . S
C7 O0 1.275 . S
C7 O2 1.255 . S
C8 O9 1.258 . S
C8 O10 1.256 . S
O9 Cd1 2.381 . S
O9 C8 1.258 . S
O10 Cd1 2.378 . S
O10 C8 1.256 . S
O11 Cd12 2.300 1_655 S
O11 C18 1.275 1_655 S
Cd12 O11 2.300 1_455 S
Cd12 O20 2.381 1_455 S
Cd12 O21 2.378 . S
O13 Cd14 2.385 . S
O13 C18 1.255 . S
Cd14 O13 2.385 . S
Cd14 O15 2.317 . S
O15 Cd14 2.317 . S
O15 C16 1.232 . S
C16 O15 1.232 . S
C16 O17 1.218 . S
O17 C16 1.218 . S
C18 O11 1.275 1_455 S
C18 O13 1.255 . S
C19 O20 1.258 1_455 S
C19 O21 1.256 . S
O20 Cd12 2.381 1_655 S
O20 C19 1.258 1_655 S
O21 Cd12 2.378 . S
O21 C19 1.256 . S
O22 Cd23 2.300 1_565 S
O22 C29 1.275 1_565 S
Cd23 O22 2.300 1_545 S
Cd23 O31 2.381 1_545 S
Cd23 O32 2.378 . S
O24 Cd25 2.385 . S
O24 C29 1.255 . S
Cd25 O24 2.385 . S
Cd25 O26 2.317 . S
O26 Cd25 2.317 . S
O26 C27 1.232 . S
C27 O26 1.232 . S
C27 O28 1.218 . S
O28 C27 1.218 . S
C29 O22 1.275 1_545 S
C29 O24 1.255 . S
C30 O31 1.258 1_545 S
C30 O32 1.256 . S
O31 Cd23 2.381 1_565 S
O31 C30 1.258 1_565 S
O32 Cd23 2.378 . S
O32 C30 1.256 . S
O33 Cd34 2.300 . S
O33 C40 1.275 . S
Cd34 O33 2.300 . S
Cd34 O42 2.381 . S
Cd34 O43 2.378 . S
O35 Cd36 2.385 . S
O35 C40 1.255 . S
Cd36 O35 2.385 . S
Cd36 O37 2.317 . S
O37 Cd36 2.317 . S
O37 C38 1.232 . S
C38 O37 1.232 . S
C38 O39 1.218 . S
O39 C38 1.218 . S
C40 O33 1.275 . S
C40 O35 1.255 . S
C41 O42 1.258 . S
C41 O43 1.256 . S
O42 Cd34 2.381 . S
O42 C41 1.258 . S
O43 Cd34 2.378 . S
O43 C41 1.256 . S
O44 Cd45 2.300 . S
O44 C51 1.275 . S
Cd45 O44 2.300 . S
Cd45 O53 2.381 . S
Cd45 O54 2.378 . S
O46 Cd47 2.385 1_554 S
O46 C51 1.255 . S
Cd47 O46 2.385 1_556 S
Cd47 O48 2.317 . S
O48 Cd47 2.317 . S
O48 C49 1.232 . S
C49 O48 1.232 . S
C49 O50 1.218 . S
O50 C49 1.218 . S
C51 O44 1.275 . S
C51 O46 1.255 . S
C52 O53 1.258 . S
C52 O54 1.256 . S
O53 Cd45 2.381 . S
O53 C52 1.258 . S
O54 Cd45 2.378 . S
O54 C52 1.256 . S
O55 Cd56 2.300 1_655 S
O55 C62 1.275 1_655 S
Cd56 O55 2.300 1_455 S
Cd56 O64 2.381 1_455 S
Cd56 O65 2.378 . S
O57 Cd58 2.385 1_554 S
O57 C62 1.255 . S
Cd58 O57 2.385 1_556 S
Cd58 O59 2.317 . S
O59 Cd58 2.317 . S
O59 C60 1.232 . S
C60 O59 1.232 . S
C60 O61 1.218 . S
O61 C60 1.218 . S
C62 O55 1.275 1_455 S
C62 O57 1.255 . S
C63 O64 1.258 1_455 S
C63 O65 1.256 . S
O64 Cd56 2.381 1_655 S
O64 C63 1.258 1_655 S
O65 Cd56 2.378 . S
O65 C63 1.256 . S
O66 Cd67 2.300 1_565 S
O66 C73 1.275 1_565 S
Cd67 O66 2.300 1_545 S
Cd67 O75 2.381 1_545 S
Cd67 O76 2.378 . S
O68 Cd69 2.385 1_554 S
O68 C73 1.255 . S
Cd69 O68 2.385 1_556 S
Cd69 O70 2.317 . S
O70 Cd69 2.317 . S
O70 C71 1.232 . S
C71 O70 1.232 . S
C71 O72 1.218 . S
O72 C71 1.218 . S
C73 O66 1.275 1_545 S
C73 O68 1.255 . S
C74 O75 1.258 1_545 S
C74 O76 1.256 . S
O75 Cd67 2.381 1_565 S
O75 C74 1.258 1_565 S
O76 Cd67 2.378 . S
O76 C74 1.256 . S
O77 Cd78 2.300 . S
O77 C84 1.275 . S
Cd78 O77 2.300 . S
Cd78 O86 2.381 . S
Cd78 O87 2.378 . S
O79 Cd80 2.385 1_554 S
O79 C84 1.255 . S
Cd80 O79 2.385 1_556 S
Cd80 O81 2.317 . S
O81 Cd80 2.317 . S
O81 C82 1.232 . S
C82 O81 1.232 . S
C82 O83 1.218 . S
O83 C82 1.218 . S
C84 O77 1.275 . S
C84 O79 1.255 . S
C85 O86 1.258 . S
C85 O87 1.256 . S
O86 Cd78 2.381 . S
O86 C85 1.258 . S
O87 Cd78 2.378 . S
O87 C85 1.256 . S
Ho88 C91 2.811 . S
Ho88 O108 2.322 . S
Ho88 O110 2.378 . S
Ho88 O111 2.525 1_455 S
Ho88 O112 2.381 . S
Ho88 O113 2.669 1_565 S
Ho88 O115 2.346 1_565 S
Ho88 O119 2.305 1_455 S
Ho89 C100 2.811 . S
Ho89 O109 2.346 1_545 S
Ho89 O113 2.305 1_655 S
Ho89 O114 2.322 . S
Ho89 O116 2.378 . S
Ho89 O117 2.520 1_655 S
Ho89 O118 2.381 . S
Ho89 O119 2.669 1_545 S
C90 O108 1.259 1_655 S
C90 O109 1.268 . S
C91 Ho88 2.811 . S
C91 C92 1.488 . S
C91 O110 1.215 . S
C91 O111 1.292 1_455 S
C92 C91 1.488 . S
C92 C93 1.348 . S
C92 C97 1.413 . S
C93 C92 1.348 . S
C93 C94 1.444 . S
C93 H120 0.930 1_455 S
C94 C93 1.444 . S
C94 C95 1.380 1_556 S
C94 H121 0.929 1_456 S
C95 C94 1.380 1_554 S
C95 C96 1.321 1_554 S
C96 C95 1.321 1_556 S
C96 C97 1.403 . S
C96 H122 0.934 1_556 S
C97 C92 1.413 . S
C97 C96 1.403 . S
C97 H123 0.930 . S
C98 O112 1.292 . S
C98 O113 1.246 1_565 S
C99 O114 1.259 1_455 S
C99 O115 1.268 . S
C100 Ho89 2.811 . S
C100 C101 1.488 . S
C100 O116 1.215 . S
C100 O117 1.282 1_655 S
C101 C100 1.488 . S
C101 C102 1.348 . S
C101 C106 1.413 . S
C102 C101 1.348 . S
C102 C103 1.442 . S
C102 H124 0.930 1_655 S
C103 C102 1.442 . S
C103 C104 1.381 . S
C103 H125 0.931 1_655 S
C104 C103 1.381 . S
C104 C105 1.321 . S
C105 C104 1.321 . S
C105 C106 1.403 . S
C105 H126 0.934 . S
C106 C101 1.413 . S
C106 C105 1.403 . S
C106 H127 0.930 . S
C107 O118 1.275 . S
C107 O119 1.256 1_545 S
O108 Ho88 2.322 . S
O108 C90 1.259 1_455 S
O109 Ho89 2.346 1_565 S
O109 C90 1.268 . S
O110 Ho88 2.378 . S
O110 C91 1.215 . S
O111 Ho88 2.525 1_655 S
O111 C91 1.292 1_655 S
O112 Ho88 2.381 . S
O112 C98 1.292 . S
O113 Ho88 2.669 1_545 S
O113 Ho89 2.305 1_455 S
O113 C98 1.246 1_545 S
O114 Ho89 2.322 . S
O114 C99 1.259 1_655 S
O115 Ho88 2.346 1_545 S
O115 C99 1.268 . S
O116 Ho89 2.378 . S
O116 C100 1.215 . S
O117 Ho89 2.520 1_455 S
O117 C100 1.282 1_455 S
O118 Ho89 2.381 . S
O118 C107 1.275 . S
O119 Ho88 2.305 1_655 S
O119 Ho89 2.669 1_565 S
O119 C107 1.256 1_565 S
H120 C93 0.930 1_655 S
H121 C94 0.929 1_654 S
H122 C96 0.934 1_554 S
H123 C97 0.930 . S
H124 C102 0.930 1_455 S
H125 C103 0.931 1_455 S
H126 C105 0.934 . S
H127 C106 0.930 . S
Ho128 C131 2.811 . S
Ho128 O148 2.322 . S
Ho128 O150 2.378 . S
Ho128 O151 2.522 . S
Ho128 O152 2.381 . S
Ho128 O153 2.669 . S
Ho128 O155 2.346 . S
Ho128 O159 2.305 1_545 S
Ho129 C140 2.811 . S
Ho129 O149 2.346 . S
Ho129 O153 2.305 1_565 S
Ho129 O154 2.322 . S
Ho129 O156 2.378 . S
Ho129 O157 2.518 1_565 S
Ho129 O158 2.381 . S
Ho129 O159 2.669 . S
C130 O148 1.259 1_565 S
C130 O149 1.268 . S
C131 Ho128 2.811 . S
C131 C132 1.488 . S
C131 O150 1.215 . S
C131 O151 1.286 . S
C132 C131 1.488 . S
C132 C133 1.348 . S
C132 C137 1.413 . S
C133 C132 1.348 . S
C133 C134 1.443 . S
C133 H160 0.930 1_545 S
C134 C133 1.443 . S
C134 C135 1.380 1_556 S
C134 H161 0.930 1_546 S
C135 C134 1.380 1_554 S
C135 C136 1.321 1_554 S
C136 C135 1.321 1_556 S
C136 C137 1.403 . S
C136 H162 0.934 1_556 S
C137 C132 1.413 . S
C137 C136 1.403 . S
C137 H163 0.930 . S
C138 O152 1.275 . S
C138 O153 1.256 . S
C139 O154 1.259 1_545 S
C139 O155 1.268 . S
C140 Ho129 2.811 . S
C140 C141 1.488 . S
C140 O156 1.215 . S
C140 O157 1.277 1_565 S
C141 C140 1.488 . S
C141 C142 1.348 . S
C141 C146 1.413 . S
C142 C141 1.348 . S
C142 C143 1.442 . S
C142 H164 0.930 1_565 S
C143 C142 1.442 . S
C143 C144 1.381 . S
C143 H165 0.931 1_565 S
C144 C143 1.381 . S
C144 C145 1.321 . S
C145 C144 1.321 . S
C145 C146 1.403 . S
C145 H166 0.934 . S
C146 C141 1.413 . S
C146 C145 1.403 . S
C146 H167 0.930 . S
C147 O158 1.275 . S
C147 O159 1.256 . S
O148 Ho128 2.322 . S
O148 C130 1.259 1_545 S
O149 Ho129 2.346 . S
O149 C130 1.268 . S
O150 Ho128 2.378 . S
O150 C131 1.215 . S
O151 Ho128 2.522 . S
O151 C131 1.286 . S
O152 Ho128 2.381 . S
O152 C138 1.275 . S
O153 Ho128 2.669 . S
O153 Ho129 2.305 1_545 S
O153 C138 1.256 . S
O154 Ho129 2.322 . S
O154 C139 1.259 1_565 S
O155 Ho128 2.346 . S
O155 C139 1.268 . S
O156 Ho129 2.378 . S
O156 C140 1.215 . S
O157 Ho129 2.518 1_545 S
O157 C140 1.277 1_545 S
O158 Ho129 2.381 . S
O158 C147 1.275 . S
O159 Ho128 2.305 1_565 S
O159 Ho129 2.669 . S
O159 C147 1.256 . S
H160 C133 0.930 1_565 S
H161 C134 0.930 1_564 S
H162 C136 0.934 1_554 S
H163 C137 0.930 . S
H164 C142 0.930 1_545 S
H165 C143 0.931 1_545 S
H166 C145 0.934 . S
H167 C146 0.930 . S
Ho168 C171 2.811 . S
Ho168 O188 2.322 . S
Ho168 O190 2.378 . S
Ho168 O191 2.524 . S
Ho168 O192 2.381 . S
Ho168 O193 2.669 . S
Ho168 O195 2.346 . S
Ho168 O199 2.305 . S
Ho169 C180 2.811 . S
Ho169 O189 2.346 . S
Ho169 O193 2.305 . S
Ho169 O194 2.322 . S
Ho169 O196 2.378 . S
Ho169 O197 2.524 . S
Ho169 O198 2.381 . S
Ho169 O199 2.669 . S
C170 O188 1.259 . S
C170 O189 1.268 . S
C171 Ho168 2.811 . S
C171 C172 1.488 . S
C171 O190 1.215 . S
C171 O191 1.289 . S
C172 C171 1.488 . S
C172 C173 1.348 . S
C172 C177 1.413 . S
C173 C172 1.348 . S
C173 C174 1.444 . S
C173 H200 0.930 . S
C174 C173 1.444 . S
C174 C175 1.380 1_556 S
C174 H201 0.929 1_556 S
C175 C174 1.380 1_554 S
C175 C176 1.321 1_554 S
C176 C175 1.321 1_556 S
C176 C177 1.403 . S
C176 H202 0.934 1_556 S
C177 C172 1.413 . S
C177 C176 1.403 . S
C177 H203 0.930 . S
C178 O192 1.275 . S
C178 O193 1.256 . S
C179 O194 1.259 . S
C179 O195 1.268 . S
C180 Ho169 2.811 . S
C180 C181 1.488 . S
C180 O196 1.215 . S
C180 O197 1.289 . S
C181 C180 1.488 . S
C181 C182 1.348 . S
C181 C186 1.413 . S
C182 C181 1.348 . S
C182 C183 1.442 . S
C182 H204 0.930 . S
C183 C182 1.442 . S
C183 C184 1.381 . S
C183 H205 0.931 . S
C184 C183 1.381 . S
C184 C185 1.321 . S
C185 C184 1.321 . S
C185 C186 1.403 . S
C185 H206 0.934 . S
C186 C181 1.413 . S
C186 C185 1.403 . S
C186 H207 0.930 . S
C187 O198 1.275 . S
C187 O199 1.256 . S
O188 Ho168 2.322 . S
O188 C170 1.259 . S
O189 Ho169 2.346 . S
O189 C170 1.268 . S
O190 Ho168 2.378 . S
O190 C171 1.215 . S
O191 Ho168 2.524 . S
O191 C171 1.289 . S
O192 Ho168 2.381 . S
O192 C178 1.275 . S
O193 Ho168 2.669 . S
O193 Ho169 2.305 . S
O193 C178 1.256 . S
O194 Ho169 2.322 . S
O194 C179 1.259 . S
O195 Ho168 2.346 . S
O195 C179 1.268 . S
O196 Ho169 2.378 . S
O196 C180 1.215 . S
O197 Ho169 2.524 . S
O197 C180 1.289 . S
O198 Ho169 2.381 . S
O198 C187 1.275 . S
O199 Ho168 2.305 . S
O199 Ho169 2.669 . S
O199 C187 1.256 . S
H200 C173 0.930 . S
H201 C174 0.929 1_554 S
H202 C176 0.934 1_554 S
H203 C177 0.930 . S
H204 C182 0.930 . S
H205 C183 0.931 . S
H206 C185 0.934 . S
H207 C186 0.930 . S
Ho208 C211 2.811 . S
Ho208 O228 2.322 . S
Ho208 O230 2.378 . S
Ho208 O231 2.524 . S
Ho208 O232 2.381 . S
Ho208 O233 2.669 1_655 S
Ho208 O235 2.346 1_655 S
Ho208 O239 2.305 . S
Ho209 C220 2.811 . S
Ho209 O229 2.346 1_455 S
Ho209 O233 2.305 . S
Ho209 O234 2.322 . S
Ho209 O236 2.378 . S
Ho209 O237 2.524 . S
Ho209 O238 2.381 . S
Ho209 O239 2.669 1_455 S
C210 O228 1.259 . S
C210 O229 1.268 . S
C211 Ho208 2.811 . S
C211 C212 1.488 . S
C211 O230 1.215 . S
C211 O231 1.289 . S
C212 C211 1.488 . S
C212 C213 1.348 . S
C212 C217 1.413 . S
C213 C212 1.348 . S
C213 C214 1.445 . S
C213 H240 0.930 . S
C214 C213 1.445 . S
C214 C215 1.380 1_556 S
C214 H241 0.929 1_556 S
C215 C214 1.380 1_554 S
C215 C216 1.321 1_554 S
C216 C215 1.321 1_556 S
C216 C217 1.403 . S
C216 H242 0.934 1_556 S
C217 C212 1.413 . S
C217 C216 1.403 . S
C217 H243 0.930 . S
C218 O232 1.294 . S
C218 O233 1.245 1_655 S
C219 O234 1.259 . S
C219 O235 1.268 . S
C220 Ho209 2.811 . S
C220 C221 1.488 . S
C220 O236 1.215 . S
C220 O237 1.289 . S
C221 C220 1.488 . S
C221 C222 1.348 . S
C221 C226 1.413 . S
C222 C221 1.348 . S
C222 C223 1.442 . S
C222 H244 0.930 . S
C223 C222 1.442 . S
C223 C224 1.381 . S
C223 H245 0.931 . S
C224 C223 1.381 . S
C224 C225 1.321 . S
C225 C224 1.321 . S
C225 C226 1.403 . S
C225 H246 0.934 . S
C226 C221 1.413 . S
C226 C225 1.403 . S
C226 H247 0.930 . S
C227 O238 1.275 . S
C227 O239 1.256 1_455 S
O228 Ho208 2.322 . S
O228 C210 1.259 . S
O229 Ho209 2.346 1_655 S
O229 C210 1.268 . S
O230 Ho208 2.378 . S
O230 C211 1.215 . S
O231 Ho208 2.524 . S
O231 C211 1.289 . S
O232 Ho208 2.381 . S
O232 C218 1.294 . S
O233 Ho208 2.669 1_455 S
O233 Ho209 2.305 . S
O233 C218 1.245 1_455 S
O234 Ho209 2.322 . S
O234 C219 1.259 . S
O235 Ho208 2.346 1_455 S
O235 C219 1.268 . S
O236 Ho209 2.378 . S
O236 C220 1.215 . S
O237 Ho209 2.524 . S
O237 C220 1.289 . S
O238 Ho209 2.381 . S
O238 C227 1.275 . S
O239 Ho208 2.305 . S
O239 Ho209 2.669 1_655 S
O239 C227 1.256 1_655 S
H240 C213 0.930 . S
H241 C214 0.929 1_554 S
H242 C216 0.934 1_554 S
H243 C217 0.930 . S
H244 C222 0.930 . S
H245 C223 0.931 . S
H246 C225 0.934 . S
H247 C226 0.930 . S
C248 C249 1.377 1_545 S
C248 C250 1.394 . S
C248 H264 0.931 . S
C249 C248 1.377 1_565 S
C249 C253 1.395 . S
C250 C248 1.394 . S
C250 C251 1.369 1_545 S
C250 C254 1.531 . S
C251 C250 1.369 1_565 S
C251 C252 1.410 . S
C251 C259 1.503 . S
C252 C251 1.410 . S
C252 C253 1.392 . S
C252 C255 1.511 . S
C253 C249 1.395 . S
C253 C252 1.392 . S
C253 H265 0.929 . S
C254 C250 1.531 . S
C254 H266 0.960 . S
C254 H267 0.962 . S
C254 H268 0.960 . S
C255 C252 1.511 . S
C255 H269 0.961 . S
C255 H270 0.961 . S
C255 H271 0.961 . S
C256 C257 1.407 . S
C256 C258 1.363 . S
C256 H272 0.931 . S
C257 C256 1.407 . S
C257 C261 1.369 1_545 S
C258 C256 1.363 . S
C258 C259 1.370 1_545 S
C258 C262 1.524 . S
C259 C251 1.503 . S
C259 C258 1.370 1_565 S
C259 C260 1.403 . S
C260 C259 1.403 . S
C260 C261 1.404 . S
C260 C263 1.539 . S
C261 C257 1.369 1_565 S
C261 C260 1.404 . S
C261 H273 0.930 . S
C262 C258 1.524 . S
C262 H274 0.956 . S
C262 H275 0.961 . S
C262 H276 0.961 . S
C263 C260 1.539 . S
C263 H277 0.958 . S
C263 H278 0.961 . S
C263 H279 0.960 . S
H264 C248 0.931 . S
H265 C253 0.929 . S
H266 C254 0.960 . S
H267 C254 0.962 . S
H268 C254 0.960 . S
H269 C255 0.961 . S
H270 C255 0.961 . S
H271 C255 0.961 . S
H272 C256 0.931 . S
H273 C261 0.930 . S
H274 C262 0.956 . S
H275 C262 0.961 . S
H276 C262 0.961 . S
H277 C263 0.958 . S
H278 C263 0.961 . S
H279 C263 0.960 . S
C280 C281 1.391 . S
C280 C282 1.394 . S
C280 H296 0.931 . S
C281 C280 1.391 . S
C281 C285 1.376 . S
C282 C280 1.394 . S
C282 C283 1.369 . S
C282 C286 1.531 . S
C283 C282 1.369 . S
C283 C284 1.410 . S
C283 C291 1.503 . S
C284 C283 1.410 . S
C284 C285 1.392 . S
C284 C287 1.511 . S
C285 C281 1.376 . S
C285 C284 1.392 . S
C285 H297 0.929 . S
C286 C282 1.531 . S
C286 H298 0.960 . S
C286 H299 0.962 . S
C286 H300 0.960 . S
C287 C284 1.511 . S
C287 H301 0.961 . S
C287 H302 0.961 . S
C287 H303 0.961 . S
C288 C289 1.370 . S
C288 C290 1.363 . S
C288 H304 0.931 . S
C289 C288 1.370 . S
C289 C293 1.408 . S
C290 C288 1.363 . S
C290 C291 1.370 . S
C290 C294 1.524 . S
C291 C283 1.503 . S
C291 C290 1.370 . S
C291 C292 1.403 . S
C292 C291 1.403 . S
C292 C293 1.404 . S
C292 C295 1.539 . S
C293 C289 1.408 . S
C293 C292 1.404 . S
C293 H305 0.930 . S
C294 C290 1.524 . S
C294 H306 0.956 . S
C294 H307 0.961 . S
C294 H308 0.961 . S
C295 C292 1.539 . S
C295 H309 0.958 . S
C295 H310 0.961 . S
C295 H311 0.960 . S
H296 C280 0.931 . S
H297 C285 0.929 . S
H298 C286 0.960 . S
H299 C286 0.962 . S
H300 C286 0.960 . S
H301 C287 0.961 . S
H302 C287 0.961 . S
H303 C287 0.961 . S
H304 C288 0.931 . S
H305 C293 0.930 . S
H306 C294 0.956 . S
H307 C294 0.961 . S
H308 C294 0.961 . S
H309 C295 0.958 . S
H310 C295 0.961 . S
H311 C295 0.960 . S
C312 C313 1.391 . S
C312 C314 1.394 . S
C312 H328 0.931 . S
C313 C312 1.391 . S
C313 C317 1.376 . S
C314 C312 1.394 . S
C314 C315 1.369 . S
C314 C318 1.531 . S
C315 C314 1.369 . S
C315 C316 1.410 . S
C315 C323 1.503 . S
C316 C315 1.410 . S
C316 C317 1.392 . S
C316 C319 1.511 . S
C317 C313 1.376 . S
C317 C316 1.392 . S
C317 H329 0.929 . S
C318 C314 1.531 . S
C318 H330 0.960 . S
C318 H331 0.962 . S
C318 H332 0.960 . S
C319 C316 1.511 . S
C319 H333 0.961 . S
C319 H334 0.961 . S
C319 H335 0.961 . S
C320 C321 1.370 . S
C320 C322 1.363 . S
C320 H336 0.931 . S
C321 C320 1.370 . S
C321 C325 1.408 . S
C322 C320 1.363 . S
C322 C323 1.370 . S
C322 C326 1.524 . S
C323 C315 1.503 . S
C323 C322 1.370 . S
C323 C324 1.403 . S
C324 C323 1.403 . S
C324 C325 1.404 . S
C324 C327 1.539 . S
C325 C321 1.408 . S
C325 C324 1.404 . S
C325 H337 0.930 . S
C326 C322 1.524 . S
C326 H338 0.956 . S
C326 H339 0.961 . S
C326 H340 0.961 . S
C327 C324 1.539 . S
C327 H341 0.958 . S
C327 H342 0.961 . S
C327 H343 0.960 . S
H328 C312 0.931 . S
H329 C317 0.929 . S
H330 C318 0.960 . S
H331 C318 0.962 . S
H332 C318 0.960 . S
H333 C319 0.961 . S
H334 C319 0.961 . S
H335 C319 0.961 . S
H336 C320 0.931 . S
H337 C325 0.930 . S
H338 C326 0.956 . S
H339 C326 0.961 . S
H340 C326 0.961 . S
H341 C327 0.958 . S
H342 C327 0.961 . S
H343 C327 0.960 . S
C344 C345 1.436 . S
C344 C346 1.394 . S
C344 H360 0.931 . S
C345 C344 1.436 . S
C345 C349 1.333 1_455 S
C346 C344 1.394 . S
C346 C347 1.369 . S
C346 C350 1.531 . S
C347 C346 1.369 . S
C347 C348 1.410 1_455 S
C347 C355 1.503 . S
C348 C347 1.410 1_655 S
C348 C349 1.392 . S
C348 C351 1.511 . S
C349 C345 1.333 1_655 S
C349 C348 1.392 . S
C349 H361 0.929 . S
C350 C346 1.531 . S
C350 H362 0.960 . S
C350 H363 0.962 . S
C350 H364 0.960 . S
C351 C348 1.511 . S
C351 H365 0.961 . S
C351 H366 0.961 . S
C351 H367 0.961 . S
C352 C353 1.370 . S
C352 C354 1.364 . S
C352 H368 0.933 . S
C353 C352 1.370 . S
C353 C357 1.408 . S
C354 C352 1.364 . S
C354 C355 1.372 . S
C354 C358 1.522 1_455 S
C355 C347 1.503 . S
C355 C354 1.372 . S
C355 C356 1.403 . S
C356 C355 1.403 . S
C356 C357 1.404 . S
C356 C359 1.539 . S
C357 C353 1.408 . S
C357 C356 1.404 . S
C357 H369 0.930 . S
C358 C354 1.522 1_655 S
C358 H370 0.923 1_655 S
C358 H371 0.991 . S
C358 H372 0.967 . S
C359 C356 1.539 . S
C359 H373 0.958 . S
C359 H374 0.961 1_455 S
C359 H375 0.960 1_455 S
H360 C344 0.931 . S
H361 C349 0.929 . S
H362 C350 0.960 . S
H363 C350 0.962 . S
H364 C350 0.960 . S
H365 C351 0.961 . S
H366 C351 0.961 . S
H367 C351 0.961 . S
H368 C352 0.933 . S
H369 C357 0.930 . S
H370 C358 0.923 1_455 S
H371 C358 0.991 . S
H372 C358 0.967 . S
H373 C359 0.958 . S
H374 C359 0.961 1_655 S
H375 C359 0.960 1_655 S
C376 C377 1.366 1_565 S
C376 C378 1.394 . S
C376 H392 0.931 . S
C377 C376 1.366 1_545 S
C377 C381 1.405 . S
C378 C376 1.394 . S
C378 C379 1.369 1_565 S
C378 C382 1.531 1_554 S
C379 C378 1.369 1_545 S
C379 C380 1.410 . S
C379 C387 1.503 . S
C380 C379 1.410 . S
C380 C381 1.392 . S
C380 C383 1.511 . S
C381 C377 1.405 . S
C381 C380 1.392 . S
C381 H393 0.929 . S
C382 C378 1.531 1_556 S
C382 H394 0.960 . S
C382 H395 0.963 . S
C382 H396 0.960 . S
C383 C380 1.511 . S
C383 H397 0.961 . S
C383 H398 0.961 . S
C383 H399 0.961 . S
C384 C385 1.392 . S
C384 C386 1.363 1_556 S
C384 H400 0.931 . S
C385 C384 1.392 . S
C385 C389 1.385 1_565 S
C386 C384 1.363 1_554 S
C386 C387 1.370 1_565 S
C386 C390 1.524 . S
C387 C379 1.503 . S
C387 C386 1.370 1_545 S
C387 C388 1.403 1_554 S
C388 C387 1.403 1_556 S
C388 C389 1.404 . S
C388 C391 1.539 . S
C389 C385 1.385 1_545 S
C389 C388 1.404 . S
C389 H401 0.930 . S
C390 C386 1.524 . S
C390 H402 0.956 . S
C390 H403 0.961 . S
C390 H404 0.961 . S
C391 C388 1.539 . S
C391 H405 0.958 . S
C391 H406 0.961 . S
C391 H407 0.960 . S
H392 C376 0.931 . S
H393 C381 0.929 . S
H394 C382 0.960 . S
H395 C382 0.963 . S
H396 C382 0.960 . S
H397 C383 0.961 . S
H398 C383 0.961 . S
H399 C383 0.961 . S
H400 C384 0.931 . S
H401 C389 0.930 . S
H402 C390 0.956 . S
H403 C390 0.961 . S
H404 C390 0.961 . S
H405 C391 0.958 . S
H406 C391 0.961 . S
H407 C391 0.960 . S
C408 C409 1.391 . S
C408 C410 1.394 . S
C408 H424 0.931 . S
C409 C408 1.391 . S
C409 C413 1.376 . S
C410 C408 1.394 . S
C410 C411 1.369 . S
C410 C414 1.531 . S
C411 C410 1.369 . S
C411 C412 1.410 . S
C411 C419 1.503 . S
C412 C411 1.410 . S
C412 C413 1.392 . S
C412 C415 1.511 . S
C413 C409 1.376 . S
C413 C412 1.392 . S
C413 H425 0.929 . S
C414 C410 1.531 . S
C414 H426 0.960 1_554 S
C414 H427 0.962 . S
C414 H428 0.960 . S
C415 C412 1.511 . S
C415 H429 0.961 . S
C415 H430 0.961 . S
C415 H431 0.961 . S
C416 C417 1.370 . S
C416 C418 1.363 1_556 S
C416 H432 0.931 . S
C417 C416 1.370 . S
C417 C421 1.408 . S
C418 C416 1.363 1_554 S
C418 C419 1.370 . S
C418 C422 1.524 . S
C419 C411 1.503 . S
C419 C418 1.370 . S
C419 C420 1.403 1_554 S
C420 C419 1.403 1_556 S
C420 C421 1.404 . S
C420 C423 1.539 . S
C421 C417 1.408 . S
C421 C420 1.404 . S
C421 H433 0.930 . S
C422 C418 1.524 . S
C422 H434 0.956 . S
C422 H435 0.961 . S
C422 H436 0.961 . S
C423 C420 1.539 . S
C423 H437 0.958 . S
C423 H438 0.961 . S
C423 H439 0.960 . S
H424 C408 0.931 . S
H425 C413 0.929 . S
H426 C414 0.960 1_556 S
H427 C414 0.962 . S
H428 C414 0.960 . S
H429 C415 0.961 . S
H430 C415 0.961 . S
H431 C415 0.961 . S
H432 C416 0.931 . S
H433 C421 0.930 . S
H434 C422 0.956 . S
H435 C422 0.961 . S
H436 C422 0.961 . S
H437 C423 0.958 . S
H438 C423 0.961 . S
H439 C423 0.960 . S
C440 C441 1.391 . S
C440 C442 1.394 . S
C440 H456 0.931 . S
C441 C440 1.391 . S
C441 C445 1.376 . S
C442 C440 1.394 . S
C442 C443 1.369 . S
C442 C446 1.531 . S
C443 C442 1.369 . S
C443 C444 1.410 . S
C443 C451 1.503 . S
C444 C443 1.410 . S
C444 C445 1.392 . S
C444 C447 1.511 1_554 S
C445 C441 1.376 . S
C445 C444 1.392 . S
C445 H457 0.929 . S
C446 C442 1.531 . S
C446 H458 0.960 . S
C446 H459 0.962 . S
C446 H460 0.960 . S
C447 C444 1.511 1_556 S
C447 H461 0.961 . S
C447 H462 0.961 . S
C447 H463 0.961 . S
C448 C449 1.370 . S
C448 C450 1.369 . S
C448 H464 0.931 . S
C449 C448 1.370 . S
C449 C453 1.408 . S
C450 C448 1.369 . S
C450 C451 1.370 1_556 S
C450 C454 1.519 1_556 S
C451 C443 1.503 . S
C451 C450 1.370 1_554 S
C451 C452 1.403 1_554 S
C452 C451 1.403 1_556 S
C452 C453 1.404 . S
C452 C455 1.539 . S
C453 C449 1.408 . S
C453 C452 1.404 . S
C453 H465 0.930 . S
C454 C450 1.519 1_554 S
C454 H466 0.956 . S
C454 H467 0.961 . S
C454 H468 0.961 . S
C455 C452 1.539 . S
C455 H469 0.958 . S
C455 H470 0.961 . S
C455 H471 0.960 . S
H456 C440 0.931 . S
H457 C445 0.929 . S
H458 C446 0.960 . S
H459 C446 0.962 . S
H460 C446 0.960 . S
H461 C447 0.961 . S
H462 C447 0.961 . S
H463 C447 0.961 . S
H464 C448 0.931 . S
H465 C453 0.930 . S
H466 C454 0.956 . S
H467 C454 0.961 . S
H468 C454 0.961 . S
H469 C455 0.958 . S
H470 C455 0.961 . S
H471 C455 0.960 . S
C472 C473 1.391 1_455 S
C472 C474 1.394 . S
C472 H488 0.931 . S
C473 C472 1.391 1_655 S
C473 C477 1.376 . S
C474 C472 1.394 . S
C474 C475 1.369 1_455 S
C474 C478 1.531 . S
C475 C474 1.369 1_655 S
C475 C476 1.410 . S
C475 C483 1.503 . S
C476 C475 1.410 . S
C476 C477 1.392 . S
C476 C479 1.511 . S
C477 C473 1.376 . S
C477 C476 1.392 . S
C477 H489 0.929 . S
C478 C474 1.531 . S
C478 H490 0.960 . S
C478 H491 0.962 . S
C478 H492 0.960 . S
C479 C476 1.511 . S
C479 H493 0.961 . S
C479 H494 0.961 1_554 S
C479 H495 0.961 . S
C480 C481 1.370 1_455 S
C480 C482 1.363 . S
C480 H496 0.931 . S
C481 C480 1.370 1_655 S
C481 C485 1.408 . S
C482 C480 1.363 . S
C482 C483 1.370 1_456 S
C482 C486 1.524 . S
C483 C475 1.503 . S
C483 C482 1.370 1_654 S
C483 C484 1.403 . S
C484 C483 1.403 . S
C484 C485 1.404 1_554 S
C484 C487 1.539 . S
C485 C481 1.408 . S
C485 C484 1.404 1_556 S
C485 H497 0.930 . S
C486 C482 1.524 . S
C486 H498 0.956 . S
C486 H499 0.961 . S
C486 H500 0.961 . S
C487 C484 1.539 . S
C487 H501 0.958 . S
C487 H502 0.961 . S
C487 H503 0.960 . S
H488 C472 0.931 . S
H489 C477 0.929 . S
H490 C478 0.960 . S
H491 C478 0.962 . S
H492 C478 0.960 . S
H493 C479 0.961 . S
H494 C479 0.961 1_556 S
H495 C479 0.961 . S
H496 C480 0.931 . S
H497 C485 0.930 . S
H498 C486 0.956 . S
H499 C486 0.961 . S
H500 C486 0.961 . S
H501 C487 0.958 . S
H502 C487 0.961 . S
H503 C487 0.960 . S
C504 C505 1.391 . S
C504 C506 1.394 . S
C504 H520 0.931 . S
C505 C504 1.391 . S
C505 C509 1.375 1_455 S
C506 C504 1.394 . S
C506 C507 1.369 1_455 S
C506 C510 1.531 . S
C507 C506 1.369 1_655 S
C507 C508 1.410 . S
C507 C515 1.503 . S
C508 C507 1.410 . S
C508 C509 1.392 . S
C508 C511 1.511 . S
C509 C505 1.375 1_655 S
C509 C508 1.392 . S
C509 H521 0.929 . S
C510 C506 1.531 . S
C510 H522 0.957 . S
C510 H523 0.962 . S
C510 H524 0.960 . S
C511 C508 1.511 . S
C511 H525 0.961 . S
C511 H526 0.961 . S
C511 H527 0.961 . S
C512 C513 1.370 . S
C512 C514 1.363 . S
C512 H528 0.931 . S
C513 C512 1.370 . S
C513 C517 1.408 . S
C514 C512 1.363 . S
C514 C515 1.370 . S
C514 C518 1.524 1_655 S
C515 C507 1.503 . S
C515 C514 1.370 . S
C515 C516 1.403 . S
C516 C515 1.403 . S
C516 C517 1.404 . S
C516 C519 1.539 . S
C517 C513 1.408 . S
C517 C516 1.404 . S
C517 H529 0.930 . S
C518 C514 1.524 1_455 S
C518 H530 0.956 . S
C518 H531 0.961 . S
C518 H532 0.961 . S
C519 C516 1.539 . S
C519 H533 0.958 . S
C519 H534 0.961 . S
C519 H535 0.960 . S
H520 C504 0.931 . S
H521 C509 0.929 . S
H522 C510 0.957 . S
H523 C510 0.962 . S
H524 C510 0.960 . S
H525 C511 0.961 . S
H526 C511 0.961 . S
H527 C511 0.961 . S
H528 C512 0.931 . S
H529 C517 0.930 . S
H530 C518 0.956 . S
H531 C518 0.961 . S
H532 C518 0.961 . S
H533 C519 0.958 . S
H534 C519 0.961 . S
H535 C519 0.960 . S
C536 C537 1.391 . S
C536 C538 1.397 . S
C536 H552 0.931 . S
C537 C536 1.391 . S
C537 C541 1.376 1_545 S
C538 C536 1.397 . S
C538 C539 1.364 1_545 S
C538 C542 1.532 . S
C539 C538 1.364 1_565 S
C539 C540 1.410 . S
C539 C547 1.503 . S
C540 C539 1.410 . S
C540 C541 1.392 . S
C540 C543 1.511 . S
C541 C537 1.376 1_565 S
C541 C540 1.392 . S
C541 H553 0.929 . S
C542 C538 1.532 . S
C542 H554 0.960 . S
C542 H555 0.962 1_545 S
C542 H556 0.960 . S
C543 C540 1.511 . S
C543 H557 0.961 . S
C543 H558 0.961 . S
C543 H559 0.961 . S
C544 C545 1.370 . S
C544 C546 1.363 . S
C544 H560 0.931 . S
C545 C544 1.370 . S
C545 C549 1.408 . S
C546 C544 1.363 . S
C546 C547 1.370 . S
C546 C550 1.524 . S
C547 C539 1.503 . S
C547 C546 1.370 . S
C547 C548 1.395 1_565 S
C548 C547 1.395 1_545 S
C548 C549 1.400 1_545 S
C548 C551 1.551 . S
C549 C545 1.408 . S
C549 C548 1.400 1_565 S
C549 H561 0.930 1_565 S
C550 C546 1.524 . S
C550 H562 0.956 . S
C550 H563 0.961 . S
C550 H564 0.961 . S
C551 C548 1.551 . S
C551 H565 0.958 . S
C551 H566 0.961 . S
C551 H567 0.960 . S
H552 C536 0.931 . S
H553 C541 0.929 . S
H554 C542 0.960 . S
H555 C542 0.962 1_565 S
H556 C542 0.960 . S
H557 C543 0.961 . S
H558 C543 0.961 . S
H559 C543 0.961 . S
H560 C544 0.931 . S
H561 C549 0.930 1_545 S
H562 C550 0.956 . S
H563 C550 0.961 . S
H564 C550 0.961 . S
H565 C551 0.958 . S
H566 C551 0.961 . S
H567 C551 0.960 . S
C568 C569 1.391 . S
C568 C570 1.394 . S
C568 H584 0.931 . S
C569 C568 1.391 . S
C569 C573 1.376 . S
C570 C568 1.394 . S
C570 C571 1.369 . S
C570 C574 1.531 . S
C571 C570 1.369 . S
C571 C572 1.410 . S
C571 C579 1.503 . S
C572 C571 1.410 . S
C572 C573 1.392 . S
C572 C575 1.511 . S
C573 C569 1.376 . S
C573 C572 1.392 . S
C573 H585 0.929 . S
C574 C570 1.531 . S
C574 H586 0.960 . S
C574 H587 0.962 . S
C574 H588 0.960 . S
C575 C572 1.511 . S
C575 H589 0.961 . S
C575 H590 0.961 . S
C575 H591 0.961 . S
C576 C577 1.370 . S
C576 C578 1.363 . S
C576 H592 0.931 . S
C577 C576 1.370 . S
C577 C581 1.408 . S
C578 C576 1.363 . S
C578 C579 1.370 . S
C578 C582 1.524 . S
C579 C571 1.503 . S
C579 C578 1.370 . S
C579 C580 1.403 . S
C580 C579 1.403 . S
C580 C581 1.404 . S
C580 C583 1.539 . S
C581 C577 1.408 . S
C581 C580 1.404 . S
C581 H593 0.930 . S
C582 C578 1.524 . S
C582 H594 0.956 . S
C582 H595 0.961 . S
C582 H596 0.961 . S
C583 C580 1.539 . S
C583 H597 0.958 . S
C583 H598 0.961 . S
C583 H599 0.960 . S
H584 C568 0.931 . S
H585 C573 0.929 . S
H586 C574 0.960 . S
H587 C574 0.962 . S
H588 C574 0.960 . S
H589 C575 0.961 . S
H590 C575 0.961 . S
H591 C575 0.961 . S
H592 C576 0.931 . S
H593 C581 0.930 . S
H594 C582 0.956 . S
H595 C582 0.961 . S
H596 C582 0.961 . S
H597 C583 0.958 . S
H598 C583 0.961 . S
H599 C583 0.960 . S
C600 C601 1.391 . S
C600 C602 1.394 . S
C600 H616 0.931 . S
C601 C600 1.391 . S
C601 C605 1.376 . S
C602 C600 1.394 . S
C602 C603 1.369 . S
C602 C606 1.531 . S
C603 C602 1.369 . S
C603 C604 1.410 . S
C603 C611 1.503 . S
C604 C603 1.410 . S
C604 C605 1.392 . S
C604 C607 1.511 . S
C605 C601 1.376 . S
C605 C604 1.392 . S
C605 H617 0.929 . S
C606 C602 1.531 . S
C606 H618 0.960 . S
C606 H619 0.962 . S
C606 H620 0.960 . S
C607 C604 1.511 . S
C607 H621 0.961 . S
C607 H622 0.961 . S
C607 H623 0.961 . S
C608 C609 1.370 . S
C608 C610 1.363 . S
C608 H624 0.931 . S
C609 C608 1.370 . S
C609 C613 1.408 . S
C610 C608 1.363 . S
C610 C611 1.370 . S
C610 C614 1.524 . S
C611 C603 1.503 . S
C611 C610 1.370 . S
C611 C612 1.403 . S
C612 C611 1.403 . S
C612 C613 1.404 . S
C612 C615 1.539 . S
C613 C609 1.408 . S
C613 C612 1.404 . S
C613 H625 0.930 . S
C614 C610 1.524 . S
C614 H626 0.956 . S
C614 H627 0.961 . S
C614 H628 0.961 . S
C615 C612 1.539 . S
C615 H629 0.958 . S
C615 H630 0.961 . S
C615 H631 0.960 . S
H616 C600 0.931 . S
H617 C605 0.929 . S
H618 C606 0.960 . S
H619 C606 0.962 . S
H620 C606 0.960 . S
H621 C607 0.961 . S
H622 C607 0.961 . S
H623 C607 0.961 . S
H624 C608 0.931 . S
H625 C613 0.930 . S
H626 C614 0.956 . S
H627 C614 0.961 . S
H628 C614 0.961 . S
H629 C615 0.958 . S
H630 C615 0.961 . S
H631 C615 0.960 . S
C632 C633 1.391 . S
C632 C634 1.394 . S
C632 H648 0.931 . S
C633 C632 1.391 . S
C633 C637 1.376 1_655 S
C634 C632 1.394 . S
C634 C635 1.369 1_655 S
C634 C638 1.531 . S
C635 C634 1.369 1_455 S
C635 C636 1.410 . S
C635 C643 1.503 . S
C636 C635 1.410 . S
C636 C637 1.392 . S
C636 C639 1.511 . S
C637 C633 1.376 1_455 S
C637 C636 1.392 . S
C637 H649 0.929 . S
C638 C634 1.531 . S
C638 H650 0.960 . S
C638 H651 0.962 . S
C638 H652 0.960 . S
C639 C636 1.511 . S
C639 H653 0.961 . S
C639 H654 0.961 . S
C639 H655 0.961 . S
C640 C641 1.370 1_556 S
C640 C642 1.363 1_556 S
C640 H656 0.931 . S
C641 C640 1.370 1_554 S
C641 C645 1.408 . S
C642 C640 1.363 1_554 S
C642 C643 1.370 . S
C642 C646 1.524 . S
C643 C635 1.503 . S
C643 C642 1.370 . S
C643 C644 1.403 . S
C644 C643 1.403 . S
C644 C645 1.404 . S
C644 C647 1.539 . S
C645 C641 1.408 . S
C645 C644 1.404 . S
C645 H657 0.930 . S
C646 C642 1.524 . S
C646 H658 0.956 . S
C646 H659 0.961 . S
C646 H660 0.961 1_554 S
C647 C644 1.539 . S
C647 H661 0.958 1_455 S
C647 H662 0.961 . S
C647 H663 0.960 . S
H648 C632 0.931 . S
H649 C637 0.929 . S
H650 C638 0.960 . S
H651 C638 0.962 . S
H652 C638 0.960 . S
H653 C639 0.961 . S
H654 C639 0.961 . S
H655 C639 0.961 . S
H656 C640 0.931 . S
H657 C645 0.930 . S
H658 C646 0.956 . S
H659 C646 0.961 . S
H660 C646 0.961 1_556 S
H661 C647 0.958 1_655 S
H662 C647 0.961 . S
H663 C647 0.960 . S
C664 C665 1.391 . S
C664 C666 1.394 1_565 S
C664 H680 0.931 . S
C665 C664 1.391 . S
C665 C669 1.376 1_565 S
C666 C664 1.394 1_545 S
C666 C667 1.369 . S
C666 C670 1.532 . S
C667 C666 1.369 . S
C667 C668 1.410 . S
C667 C675 1.503 . S
C668 C667 1.410 . S
C668 C669 1.392 . S
C668 C671 1.511 . S
C669 C665 1.376 1_545 S
C669 C668 1.392 . S
C669 H681 0.929 . S
C670 C666 1.532 . S
C670 H682 0.952 1_545 S
C670 H683 0.994 . S
C670 H684 0.937 1_545 S
C671 C668 1.511 . S
C671 H685 0.961 . S
C671 H686 0.961 . S
C671 H687 0.961 1_545 S
C672 C673 1.370 . S
C672 C674 1.363 . S
C672 H688 0.931 . S
C673 C672 1.370 . S
C673 C677 1.408 . S
C674 C672 1.363 . S
C674 C675 1.370 . S
C674 C678 1.524 . S
C675 C667 1.503 . S
C675 C674 1.370 . S
C675 C676 1.399 1_545 S
C676 C675 1.399 1_565 S
C676 C677 1.402 1_565 S
C676 C679 1.545 . S
C677 C673 1.408 . S
C677 C676 1.402 1_545 S
C677 H689 0.930 1_545 S
C678 C674 1.524 . S
C678 H690 0.956 . S
C678 H691 0.961 . S
C678 H692 0.961 . S
C679 C676 1.545 . S
C679 H693 0.958 . S
C679 H694 0.961 . S
C679 H695 0.960 . S
H680 C664 0.931 . S
H681 C669 0.929 . S
H682 C670 0.952 1_565 S
H683 C670 0.994 . S
H684 C670 0.937 1_565 S
H685 C671 0.961 . S
H686 C671 0.961 . S
H687 C671 0.961 1_565 S
H688 C672 0.931 . S
H689 C677 0.930 1_565 S
H690 C678 0.956 . S
H691 C678 0.961 . S
H692 C678 0.961 . S
H693 C679 0.958 . S
H694 C679 0.961 . S
H695 C679 0.960 . S
C696 C697 1.391 . S
C696 C698 1.394 . S
C696 H712 0.931 . S
C697 C696 1.391 . S
C697 C701 1.376 . S
C698 C696 1.394 . S
C698 C699 1.369 . S
C698 C702 1.531 . S
C699 C698 1.369 . S
C699 C700 1.410 . S
C699 C707 1.503 . S
C700 C699 1.410 . S
C700 C701 1.392 . S
C700 C703 1.511 . S
C701 C697 1.376 . S
C701 C700 1.392 . S
C701 H713 0.929 . S
C702 C698 1.531 . S
C702 H714 0.960 . S
C702 H715 0.962 . S
C702 H716 0.960 . S
C703 C700 1.511 . S
C703 H717 0.961 . S
C703 H718 0.961 . S
C703 H719 0.961 . S
C704 C705 1.370 . S
C704 C706 1.363 . S
C704 H720 0.931 1_554 S
C705 C704 1.370 . S
C705 C709 1.408 . S
C706 C704 1.363 . S
C706 C707 1.370 . S
C706 C710 1.524 . S
C707 C699 1.503 . S
C707 C706 1.370 . S
C707 C708 1.403 . S
C708 C707 1.403 . S
C708 C709 1.404 . S
C708 C711 1.539 . S
C709 C705 1.408 . S
C709 C708 1.404 . S
C709 H721 0.930 . S
C710 C706 1.524 . S
C710 H722 0.956 . S
C710 H723 0.961 . S
C710 H724 0.961 1_554 S
C711 C708 1.539 . S
C711 H725 0.958 . S
C711 H726 0.961 . S
C711 H727 0.960 . S
H712 C696 0.931 . S
H713 C701 0.929 . S
H714 C702 0.960 . S
H715 C702 0.962 . S
H716 C702 0.960 . S
H717 C703 0.961 . S
H718 C703 0.961 . S
H719 C703 0.961 . S
H720 C704 0.931 1_556 S
H721 C709 0.930 . S
H722 C710 0.956 . S
H723 C710 0.961 . S
H724 C710 0.961 1_556 S
H725 C711 0.958 . S
H726 C711 0.961 . S
H727 C711 0.960 . S
C728 C729 1.391 . S
C728 C730 1.394 . S
C728 H744 0.931 . S
C729 C728 1.391 . S
C729 C733 1.376 . S
C730 C728 1.394 . S
C730 C731 1.369 . S
C730 C734 1.531 . S
C731 C730 1.369 . S
C731 C732 1.410 . S
C731 C739 1.503 . S
C732 C731 1.410 . S
C732 C733 1.392 . S
C732 C735 1.511 . S
C733 C729 1.376 . S
C733 C732 1.392 . S
C733 H745 0.929 . S
C734 C730 1.531 . S
C734 H746 0.960 . S
C734 H747 0.962 . S
C734 H748 0.960 . S
C735 C732 1.511 . S
C735 H749 0.961 . S
C735 H750 0.961 . S
C735 H751 0.961 . S
C736 C737 1.370 . S
C736 C738 1.363 . S
C736 H752 0.931 . S
C737 C736 1.370 . S
C737 C741 1.408 . S
C738 C736 1.363 . S
C738 C739 1.370 . S
C738 C742 1.524 . S
C739 C731 1.503 . S
C739 C738 1.370 . S
C739 C740 1.403 . S
C740 C739 1.403 . S
C740 C741 1.404 . S
C740 C743 1.539 . S
C741 C737 1.408 . S
C741 C740 1.404 . S
C741 H753 0.930 . S
C742 C738 1.524 . S
C742 H754 0.956 . S
C742 H755 0.961 . S
C742 H756 0.961 . S
C743 C740 1.539 . S
C743 H757 0.958 . S
C743 H758 0.961 . S
C743 H759 0.960 . S
H744 C728 0.931 . S
H745 C733 0.929 . S
H746 C734 0.960 . S
H747 C734 0.962 . S
H748 C734 0.960 . S
H749 C735 0.961 . S
H750 C735 0.961 . S
H751 C735 0.961 . S
H752 C736 0.931 . S
H753 C741 0.930 . S
H754 C742 0.956 . S
H755 C742 0.961 . S
H756 C742 0.961 . S
H757 C743 0.958 . S
H758 C743 0.961 . S
H759 C743 0.960 . S
C760 C761 1.391 . S
C760 C762 1.394 . S
C760 H776 0.931 . S
C761 C760 1.391 . S
C761 C765 1.376 1_455 S
C762 C760 1.394 . S
C762 C763 1.369 . S
C762 C766 1.531 . S
C763 C762 1.369 . S
C763 C764 1.410 1_455 S
C763 C771 1.503 . S
C764 C763 1.410 1_655 S
C764 C765 1.392 . S
C764 C767 1.511 . S
C765 C761 1.376 1_655 S
C765 C764 1.392 . S
C765 H777 0.929 . S
C766 C762 1.531 . S
C766 H778 0.960 . S
C766 H779 0.962 . S
C766 H780 0.960 . S
C767 C764 1.511 . S
C767 H781 0.961 . S
C767 H782 0.961 . S
C767 H783 0.961 . S
C768 C769 1.370 . S
C768 C770 1.363 . S
C768 H784 0.931 . S
C769 C768 1.370 . S
C769 C773 1.408 . S
C770 C768 1.363 . S
C770 C771 1.370 . S
C770 C774 1.524 . S
C771 C763 1.503 . S
C771 C770 1.370 . S
C771 C772 1.403 . S
C772 C771 1.403 . S
C772 C773 1.404 . S
C772 C775 1.539 . S
C773 C769 1.408 . S
C773 C772 1.404 . S
C773 H785 0.930 . S
C774 C770 1.524 . S
C774 H786 0.956 . S
C774 H787 0.961 1_455 S
C774 H788 0.961 . S
C775 C772 1.539 . S
C775 H789 0.958 . S
C775 H790 0.961 1_556 S
C775 H791 0.983 . S
H776 C760 0.931 . S
H777 C765 0.929 . S
H778 C766 0.960 . S
H779 C766 0.962 . S
H780 C766 0.960 . S
H781 C767 0.961 . S
H782 C767 0.961 . S
H783 C767 0.961 . S
H784 C768 0.931 . S
H785 C773 0.930 . S
H786 C774 0.956 . S
H787 C774 0.961 1_655 S
H788 C774 0.961 . S
H789 C775 0.958 . S
H790 C775 0.961 1_554 S
H791 C775 0.983 . S
C792 C793 1.412 . S
C792 C794 1.394 . S
C792 H808 0.931 . S
C793 C792 1.412 . S
C793 C797 1.355 1_545 S
C794 C792 1.394 . S
C794 C795 1.369 . S
C794 C798 1.531 . S
C795 C794 1.369 . S
C795 C796 1.410 1_545 S
C795 C803 1.503 . S
C796 C795 1.410 1_565 S
C796 C797 1.392 . S
C796 C799 1.511 . S
C797 C793 1.355 1_565 S
C797 C796 1.392 . S
C797 H809 0.929 . S
C798 C794 1.531 . S
C798 H810 0.960 . S
C798 H811 0.962 . S
C798 H812 0.960 1_556 S
C799 C796 1.511 . S
C799 H813 0.961 . S
C799 H814 0.961 . S
C799 H815 0.961 . S
C800 C801 1.370 . S
C800 C802 1.363 . S
C800 H816 0.931 . S
C801 C800 1.370 . S
C801 C805 1.408 1_545 S
C802 C800 1.363 . S
C802 C803 1.370 . S
C802 C806 1.524 . S
C803 C795 1.503 . S
C803 C802 1.370 . S
C803 C804 1.403 1_545 S
C804 C803 1.403 1_565 S
C804 C805 1.404 . S
C804 C807 1.539 . S
C805 C801 1.408 1_565 S
C805 C804 1.404 . S
C805 H817 0.930 . S
C806 C802 1.524 . S
C806 H818 0.956 . S
C806 H819 0.961 . S
C806 H820 0.961 . S
C807 C804 1.539 . S
C807 H821 0.958 . S
C807 H822 0.961 . S
C807 H823 0.960 . S
H808 C792 0.931 . S
H809 C797 0.929 . S
H810 C798 0.960 . S
H811 C798 0.962 . S
H812 C798 0.960 1_554 S
H813 C799 0.961 . S
H814 C799 0.961 . S
H815 C799 0.961 . S
H816 C800 0.931 . S
H817 C805 0.930 . S
H818 C806 0.956 . S
H819 C806 0.961 . S
H820 C806 0.961 . S
H821 C807 0.958 . S
H822 C807 0.961 . S
H823 C807 0.960 . S
C824 C825 1.391 . S
C824 C826 1.394 . S
C824 H840 0.931 . S
C825 C824 1.391 . S
C825 C829 1.376 . S
C826 C824 1.394 . S
C826 C827 1.369 . S
C826 C830 1.531 . S
C827 C826 1.369 . S
C827 C828 1.410 . S
C827 C835 1.503 . S
C828 C827 1.410 . S
C828 C829 1.392 . S
C828 C831 1.511 . S
C829 C825 1.376 . S
C829 C828 1.392 . S
C829 H841 0.929 . S
C830 C826 1.531 . S
C830 H842 0.960 . S
C830 H843 0.962 . S
C830 H844 0.960 . S
C831 C828 1.511 . S
C831 H845 0.961 . S
C831 H846 0.961 . S
C831 H847 0.961 . S
C832 C833 1.370 . S
C832 C834 1.363 . S
C832 H848 0.931 . S
C833 C832 1.370 . S
C833 C837 1.408 . S
C834 C832 1.363 . S
C834 C835 1.370 . S
C834 C838 1.524 . S
C835 C827 1.503 . S
C835 C834 1.370 . S
C835 C836 1.403 . S
C836 C835 1.403 . S
C836 C837 1.404 . S
C836 C839 1.539 . S
C837 C833 1.408 . S
C837 C836 1.404 . S
C837 H849 0.930 . S
C838 C834 1.524 . S
C838 H850 0.956 . S
C838 H851 0.961 . S
C838 H852 0.961 . S
C839 C836 1.539 . S
C839 H853 0.958 . S
C839 H854 0.961 . S
C839 H855 0.960 . S
H840 C824 0.931 . S
H841 C829 0.929 . S
H842 C830 0.960 . S
H843 C830 0.962 . S
H844 C830 0.960 . S
H845 C831 0.961 . S
H846 C831 0.961 . S
H847 C831 0.961 . S
H848 C832 0.931 . S
H849 C837 0.930 . S
H850 C838 0.956 . S
H851 C838 0.961 . S
H852 C838 0.961 . S
H853 C839 0.958 . S
H854 C839 0.961 . S
H855 C839 0.960 . S
C856 C857 1.391 . S
C856 C858 1.394 . S
C856 H872 0.931 . S
C857 C856 1.391 . S
C857 C861 1.376 . S
C858 C856 1.394 . S
C858 C859 1.369 . S
C858 C862 1.531 . S
C859 C858 1.369 . S
C859 C860 1.410 . S
C859 C867 1.503 . S
C860 C859 1.410 . S
C860 C861 1.392 . S
C860 C863 1.511 . S
C861 C857 1.376 . S
C861 C860 1.392 . S
C861 H873 0.929 . S
C862 C858 1.531 . S
C862 H874 0.960 . S
C862 H875 0.962 . S
C862 H876 0.960 . S
C863 C860 1.511 . S
C863 H877 0.961 . S
C863 H878 0.961 . S
C863 H879 0.961 . S
C864 C865 1.370 . S
C864 C866 1.363 . S
C864 H880 0.931 . S
C865 C864 1.370 . S
C865 C869 1.408 . S
C866 C864 1.363 . S
C866 C867 1.370 . S
C866 C870 1.524 . S
C867 C859 1.503 . S
C867 C866 1.370 . S
C867 C868 1.403 . S
C868 C867 1.403 . S
C868 C869 1.404 . S
C868 C871 1.539 . S
C869 C865 1.408 . S
C869 C868 1.404 . S
C869 H881 0.930 . S
C870 C866 1.524 . S
C870 H882 0.956 . S
C870 H883 0.961 . S
C870 H884 0.961 . S
C871 C868 1.539 . S
C871 H885 0.958 1_556 S
C871 H886 0.961 1_556 S
C871 H887 0.960 . S
H872 C856 0.931 . S
H873 C861 0.929 . S
H874 C862 0.960 . S
H875 C862 0.962 . S
H876 C862 0.960 . S
H877 C863 0.961 . S
H878 C863 0.961 . S
H879 C863 0.961 . S
H880 C864 0.931 . S
H881 C869 0.930 . S
H882 C870 0.956 . S
H883 C870 0.961 . S
H884 C870 0.961 . S
H885 C871 0.958 1_554 S
H886 C871 0.961 1_554 S
H887 C871 0.960 . S
C888 C889 1.401 . S
C888 C890 1.394 . S
C888 H904 0.931 . S
C889 C888 1.401 . S
C889 C893 1.366 1_655 S
C890 C888 1.394 . S
C890 C891 1.387 . S
C890 C894 1.531 . S
C891 C890 1.387 . S
C891 C892 1.390 1_655 S
C891 C899 1.508 . S
C892 C891 1.390 1_455 S
C892 C893 1.392 . S
C892 C895 1.511 . S
C893 C889 1.366 1_455 S
C893 C892 1.392 . S
C893 H905 0.929 . S
C894 C890 1.531 . S
C894 H906 0.960 . S
C894 H907 0.962 . S
C894 H908 0.960 . S
C895 C892 1.511 . S
C895 H909 0.961 . S
C895 H910 0.961 . S
C895 H911 0.961 . S
C896 C897 1.370 . S
C896 C898 1.363 . S
C896 H912 0.931 . S
C897 C896 1.370 . S
C897 C901 1.408 1_655 S
C898 C896 1.363 . S
C898 C899 1.370 . S
C898 C902 1.524 . S
C899 C891 1.508 . S
C899 C898 1.370 . S
C899 C900 1.403 1_655 S
C900 C899 1.403 1_455 S
C900 C901 1.404 . S
C900 C903 1.539 . S
C901 C897 1.408 1_455 S
C901 C900 1.404 . S
C901 H913 0.930 . S
C902 C898 1.524 . S
C902 H914 0.956 . S
C902 H915 0.961 . S
C902 H916 0.961 . S
C903 C900 1.539 . S
C903 H917 0.958 . S
C903 H918 0.961 . S
C903 H919 0.960 . S
H904 C888 0.931 . S
H905 C893 0.929 . S
H906 C894 0.960 . S
H907 C894 0.962 . S
H908 C894 0.960 . S
H909 C895 0.961 . S
H910 C895 0.961 . S
H911 C895 0.961 . S
H912 C896 0.931 . S
H913 C901 0.930 . S
H914 C902 0.956 . S
H915 C902 0.961 . S
H916 C902 0.961 . S
H917 C903 0.958 . S
H918 C903 0.961 . S
H919 C903 0.960 . S
C920 C921 1.391 1_545 S
C920 C922 1.394 . S
C920 H936 0.931 . S
C921 C920 1.391 1_565 S
C921 C925 1.376 . S
C922 C920 1.394 . S
C922 C923 1.369 1_545 S
C922 C926 1.531 . S
C923 C922 1.369 1_565 S
C923 C924 1.410 . S
C923 C931 1.503 . S
C924 C923 1.410 . S
C924 C925 1.392 . S
C924 C927 1.511 . S
C925 C921 1.376 . S
C925 C924 1.392 . S
C925 H937 0.929 . S
C926 C922 1.531 . S
C926 H938 0.960 . S
C926 H939 0.962 . S
C926 H940 0.960 . S
C927 C924 1.511 . S
C927 H941 0.961 . S
C927 H942 0.961 . S
C927 H943 0.961 . S
C928 C929 1.370 . S
C928 C930 1.363 . S
C928 H944 0.931 1_565 S
C929 C928 1.370 . S
C929 C933 1.408 . S
C930 C928 1.363 . S
C930 C931 1.370 . S
C930 C934 1.524 1_565 S
C931 C923 1.503 . S
C931 C930 1.370 . S
C931 C932 1.403 . S
C932 C931 1.403 . S
C932 C933 1.404 . S
C932 C935 1.539 . S
C933 C929 1.408 . S
C933 C932 1.404 . S
C933 H945 0.930 . S
C934 C930 1.524 1_545 S
C934 H946 0.956 . S
C934 H947 0.961 1_545 S
C934 H948 0.961 . S
C935 C932 1.539 . S
C935 H949 0.958 . S
C935 H950 0.961 . S
C935 H951 0.960 . S
H936 C920 0.931 . S
H937 C925 0.929 . S
H938 C926 0.960 . S
H939 C926 0.962 . S
H940 C926 0.960 . S
H941 C927 0.961 . S
H942 C927 0.961 . S
H943 C927 0.961 . S
H944 C928 0.931 1_545 S
H945 C933 0.930 . S
H946 C934 0.956 . S
H947 C934 0.961 1_565 S
H948 C934 0.961 . S
H949 C935 0.958 . S
H950 C935 0.961 . S
H951 C935 0.960 . S
C952 C953 1.391 . S
C952 C954 1.394 . S
C952 H968 0.931 . S
C953 C952 1.391 . S
C953 C957 1.376 . S
C954 C952 1.394 . S
C954 C955 1.369 . S
C954 C958 1.531 . S
C955 C954 1.369 . S
C955 C956 1.410 . S
C955 C963 1.503 . S
C956 C955 1.410 . S
C956 C957 1.392 . S
C956 C959 1.511 . S
C957 C953 1.376 . S
C957 C956 1.392 . S
C957 H969 0.929 . S
C958 C954 1.531 . S
C958 H970 0.960 . S
C958 H971 0.962 . S
C958 H972 0.960 . S
C959 C956 1.511 . S
C959 H973 0.961 . S
C959 H974 0.961 . S
C959 H975 0.961 . S
C960 C961 1.370 . S
C960 C962 1.363 . S
C960 H976 0.931 . S
C961 C960 1.370 . S
C961 C965 1.408 . S
C962 C960 1.363 . S
C962 C963 1.370 . S
C962 C966 1.524 . S
C963 C955 1.503 . S
C963 C962 1.370 . S
C963 C964 1.403 . S
C964 C963 1.403 . S
C964 C965 1.404 . S
C964 C967 1.539 . S
C965 C961 1.408 . S
C965 C964 1.404 . S
C965 H977 0.930 . S
C966 C962 1.524 . S
C966 H978 0.956 . S
C966 H979 0.961 . S
C966 H980 0.961 . S
C967 C964 1.539 . S
C967 H981 0.958 . S
C967 H982 0.961 . S
C967 H983 0.960 . S
H968 C952 0.931 . S
H969 C957 0.929 . S
H970 C958 0.960 . S
H971 C958 0.962 . S
H972 C958 0.960 . S
H973 C959 0.961 . S
H974 C959 0.961 . S
H975 C959 0.961 . S
H976 C960 0.931 . S
H977 C965 0.930 . S
H978 C966 0.956 . S
H979 C966 0.961 . S
H980 C966 0.961 . S
H981 C967 0.958 . S
H982 C967 0.961 . S
H983 C967 0.960 . S
C984 C985 1.391 . S
C984 C986 1.394 . S
C984 H1000 0.931 . S
C985 C984 1.391 . S
C985 C989 1.376 . S
C986 C984 1.394 . S
C986 C987 1.369 . S
C986 C990 1.531 . S
C987 C986 1.369 . S
C987 C988 1.410 . S
C987 C995 1.503 . S
C988 C987 1.410 . S
C988 C989 1.392 . S
C988 C991 1.511 . S
C989 C985 1.376 . S
C989 C988 1.392 . S
C989 H1001 0.929 . S
C990 C986 1.531 . S
C990 H1002 0.960 . S
C990 H1003 0.962 . S
C990 H1004 0.960 . S
C991 C988 1.511 . S
C991 H1005 0.961 . S
C991 H1006 0.961 . S
C991 H1007 0.961 . S
C992 C993 1.370 . S
C992 C994 1.363 . S
C992 H1008 0.931 . S
C993 C992 1.370 . S
C993 C997 1.408 . S
C994 C992 1.363 . S
C994 C995 1.370 . S
C994 C998 1.524 . S
C995 C987 1.503 . S
C995 C994 1.370 . S
C995 C996 1.403 . S
C996 C995 1.403 . S
C996 C997 1.404 . S
C996 C999 1.539 . S
C997 C993 1.408 . S
C997 C996 1.404 . S
C997 H1009 0.930 . S
C998 C994 1.524 . S
C998 H1010 0.956 . S
C998 H1011 0.961 . S
C998 H1012 0.961 . S
C999 C996 1.539 . S
C999 H1013 0.958 . S
C999 H1014 0.961 . S
C999 H1015 0.960 . S
H1000 C984 0.931 . S
H1001 C989 0.929 . S
H1002 C990 0.960 . S
H1003 C990 0.962 . S
H1004 C990 0.960 . S
H1005 C991 0.961 . S
H1006 C991 0.961 . S
H1007 C991 0.961 . S
H1008 C992 0.931 . S
H1009 C997 0.930 . S
H1010 C998 0.956 . S
H1011 C998 0.961 . S
H1012 C998 0.961 . S
H1013 C999 0.958 . S
H1014 C999 0.961 . S
H1015 C999 0.960 . S
C249 C74 1.787 1_565 S
C257 C98 1.865 1_545 S
C289 C138 1.877 . S
C281 C85 1.775 . S
C321 C178 1.877 . S
C313 C52 1.778 . S
C353 C218 1.870 1_455 S
C345 C63 1.805 . S
C385 C107 1.868 1_565 S
C377 C30 1.749 . S
C409 C41 1.741 . S
C417 C147 1.871 . S
C441 C8 1.766 . S
C449 C187 1.875 . S
C473 C19 1.803 1_655 S
C481 C227 1.875 1_655 S
C513 C104 0.628 . S
C505 C62 0.583 . S
C545 C144 0.582 . S
C537 C73 0.580 . S
C577 C184 0.616 . S
C569 C84 0.571 . S
C601 C51 0.568 . S
C609 C224 0.598 . S
C633 C18 0.664 1_655 S
C641 C95 0.605 . S
C673 C135 0.581 . S
C665 C29 0.709 1_565 S
C705 C175 0.624 . S
C697 C40 0.602 . S
C729 C7 0.552 . S
C737 C215 0.631 . S
C761 C60 1.670 . S
C769 C99 2.235 . S
C793 C71 1.737 . S
C801 C139 2.230 . S
C833 C179 2.230 . S
C825 C82 1.753 . S
C865 C219 2.234 . S
C857 C49 1.677 . S
C889 C16 1.744 1_655 S
C897 C90 2.230 . S
C929 C130 2.239 . S
C921 C27 1.758 1_565 S
C961 C170 2.241 . S
C953 C38 1.800 . S
C985 C5 1.769 . S
C993 C210 2.240 . S
