# Generated by pormake.
# Topology bwt, (3,3)-cn, num edge types: 1
# Building blocks:
#     Node 0, Type 0, BuildingBlock: OLANEW_clean_sbu_2, # of connection points: 3
#     Node 1, Type 0, BuildingBlock: OLANEW_clean_sbu_2, # of connection points: 3
#     Node 2, Type 0, BuildingBlock: OLANEW_clean_sbu_2, # of connection points: 3
#     Node 3, Type 0, BuildingBlock: OLANEW_clean_sbu_2, # of connection points: 3
#     Node 4, Type 0, BuildingBlock: OLANEW_clean_sbu_2, # of connection points: 3
#     Node 5, Type 0, BuildingBlock: OLANEW_clean_sbu_2, # of connection points: 3
#     Node 6, Type 0, BuildingBlock: OLANEW_clean_sbu_2, # of connection points: 3
#     Node 7, Type 0, BuildingBlock: OLANEW_clean_sbu_2, # of connection points: 3
#     Node 8, Type 0, BuildingBlock: OLANEW_clean_sbu_2, # of connection points: 3
#     Node 9, Type 0, BuildingBlock: OLANEW_clean_sbu_2, # of connection points: 3
#     Node 10, Type 0, BuildingBlock: OLANEW_clean_sbu_2, # of connection points: 3
#     Node 11, Type 0, BuildingBlock: OLANEW_clean_sbu_2, # of connection points: 3
#     Node 12, Type 0, BuildingBlock: OLANEW_clean_sbu_2, # of connection points: 3
#     Node 13, Type 0, BuildingBlock: OLANEW_clean_sbu_2, # of connection points: 3
#     Node 14, Type 0, BuildingBlock: OLANEW_clean_sbu_2, # of connection points: 3
#     Node 15, Type 0, BuildingBlock: OLANEW_clean_sbu_2, # of connection points: 3
#     Node 16, Type 0, BuildingBlock: OLANEW_clean_sbu_2, # of connection points: 3
#     Node 17, Type 0, BuildingBlock: OLANEW_clean_sbu_2, # of connection points: 3
#     Node 18, Type 0, BuildingBlock: OLANEW_clean_sbu_2, # of connection points: 3
#     Node 19, Type 0, BuildingBlock: OLANEW_clean_sbu_2, # of connection points: 3
#     Node 20, Type 0, BuildingBlock: OLANEW_clean_sbu_2, # of connection points: 3
#     Node 21, Type 0, BuildingBlock: OLANEW_clean_sbu_2, # of connection points: 3
#     Node 22, Type 0, BuildingBlock: OLANEW_clean_sbu_2, # of connection points: 3
#     Node 23, Type 0, BuildingBlock: OLANEW_clean_sbu_2, # of connection points: 3
#     Node 24, Type 1, BuildingBlock: WUSLED_clean_sbu_0, # of connection points: 3
#     Node 25, Type 1, BuildingBlock: WUSLED_clean_sbu_0, # of connection points: 3
#     Node 26, Type 1, BuildingBlock: WUSLED_clean_sbu_0, # of connection points: 3
#     Node 27, Type 1, BuildingBlock: WUSLED_clean_sbu_0, # of connection points: 3
#     Node 28, Type 1, BuildingBlock: WUSLED_clean_sbu_0, # of connection points: 3
#     Node 29, Type 1, BuildingBlock: WUSLED_clean_sbu_0, # of connection points: 3
#     Node 30, Type 1, BuildingBlock: WUSLED_clean_sbu_0, # of connection points: 3
#     Node 31, Type 1, BuildingBlock: WUSLED_clean_sbu_0, # of connection points: 3
#     Node 32, Type 1, BuildingBlock: WUSLED_clean_sbu_0, # of connection points: 3
#     Node 33, Type 1, BuildingBlock: WUSLED_clean_sbu_0, # of connection points: 3
#     Node 34, Type 1, BuildingBlock: WUSLED_clean_sbu_0, # of connection points: 3
#     Node 35, Type 1, BuildingBlock: WUSLED_clean_sbu_0, # of connection points: 3
#     Node 36, Type 1, BuildingBlock: WUSLED_clean_sbu_0, # of connection points: 3
#     Node 37, Type 1, BuildingBlock: WUSLED_clean_sbu_0, # of connection points: 3
#     Node 38, Type 1, BuildingBlock: WUSLED_clean_sbu_0, # of connection points: 3
#     Node 39, Type 1, BuildingBlock: WUSLED_clean_sbu_0, # of connection points: 3
#     Node 40, Type 1, BuildingBlock: WUSLED_clean_sbu_0, # of connection points: 3
#     Node 41, Type 1, BuildingBlock: WUSLED_clean_sbu_0, # of connection points: 3
#     Node 42, Type 1, BuildingBlock: WUSLED_clean_sbu_0, # of connection points: 3
#     Node 43, Type 1, BuildingBlock: WUSLED_clean_sbu_0, # of connection points: 3
#     Node 44, Type 1, BuildingBlock: WUSLED_clean_sbu_0, # of connection points: 3
#     Node 45, Type 1, BuildingBlock: WUSLED_clean_sbu_0, # of connection points: 3
#     Node 46, Type 1, BuildingBlock: WUSLED_clean_sbu_0, # of connection points: 3
#     Node 47, Type 1, BuildingBlock: WUSLED_clean_sbu_0, # of connection points: 3
#     Edge 48, Type (0, 1), None
#     Edge 49, Type (0, 1), None
#     Edge 50, Type (0, 1), None
#     Edge 51, Type (0, 1), None
#     Edge 52, Type (0, 1), None
#     Edge 53, Type (0, 1), None
#     Edge 54, Type (0, 1), None
#     Edge 55, Type (0, 1), None
#     Edge 56, Type (0, 1), None
#     Edge 57, Type (0, 1), None
#     Edge 58, Type (0, 1), None
#     Edge 59, Type (0, 1), None
#     Edge 60, Type (0, 1), None
#     Edge 61, Type (0, 1), None
#     Edge 62, Type (0, 1), None
#     Edge 63, Type (0, 1), None
#     Edge 64, Type (0, 1), None
#     Edge 65, Type (0, 1), None
#     Edge 66, Type (0, 1), None
#     Edge 67, Type (0, 1), None
#     Edge 68, Type (0, 1), None
#     Edge 69, Type (0, 1), None
#     Edge 70, Type (0, 1), None
#     Edge 71, Type (0, 1), None
#     Edge 72, Type (0, 1), None
#     Edge 73, Type (0, 1), None
#     Edge 74, Type (0, 1), None
#     Edge 75, Type (0, 1), None
#     Edge 76, Type (0, 1), None
#     Edge 77, Type (0, 1), None
#     Edge 78, Type (0, 1), None
#     Edge 79, Type (0, 1), None
#     Edge 80, Type (0, 1), None
#     Edge 81, Type (0, 1), None
#     Edge 82, Type (0, 1), None
#     Edge 83, Type (0, 1), None
#     Edge 84, Type (0, 1), None
#     Edge 85, Type (0, 1), None
#     Edge 86, Type (0, 1), None
#     Edge 87, Type (0, 1), None
#     Edge 88, Type (0, 1), None
#     Edge 89, Type (0, 1), None
#     Edge 90, Type (0, 1), None
#     Edge 91, Type (0, 1), None
#     Edge 92, Type (0, 1), None
#     Edge 93, Type (0, 1), None
#     Edge 94, Type (0, 1), None
#     Edge 95, Type (0, 1), None
#     Edge 96, Type (0, 1), None
#     Edge 97, Type (0, 1), None
#     Edge 98, Type (0, 1), None
#     Edge 99, Type (0, 1), None
#     Edge 100, Type (0, 1), None
#     Edge 101, Type (0, 1), None
#     Edge 102, Type (0, 1), None
#     Edge 103, Type (0, 1), None
#     Edge 104, Type (0, 1), None
#     Edge 105, Type (0, 1), None
#     Edge 106, Type (0, 1), None
#     Edge 107, Type (0, 1), None
#     Edge 108, Type (0, 1), None
#     Edge 109, Type (0, 1), None
#     Edge 110, Type (0, 1), None
#     Edge 111, Type (0, 1), None
#     Edge 112, Type (0, 1), None
#     Edge 113, Type (0, 1), None
#     Edge 114, Type (0, 1), None
#     Edge 115, Type (0, 1), None
#     Edge 116, Type (0, 1), None
#     Edge 117, Type (0, 1), None
#     Edge 118, Type (0, 1), None
#     Edge 119, Type (0, 1), None
# Relax obj value: 0.124
# Max RMSD: 0.133
# Mean RMSD: 0.091
data_MOF--net-bwt--node1-OLANEW_clean_sbu_2--node2-WUSLED_clean_sbu_0--edge1-none
_symmetry_space_group_name_H-M    P1
_symmetry_Int_Tables_number       1
_symmetry_cell_setting            triclinic
loop_
_symmetry_equiv_pos_as_xyz
'x, y, z'
_cell_length_a     45.541213
_cell_length_b     45.572383
_cell_length_c     45.577526
_cell_angle_alpha  93.737669
_cell_angle_beta   93.758671
_cell_angle_gamma 93.617431
loop_
_atom_site_label
_atom_site_type_symbol
_atom_site_fract_x
_atom_site_fract_y
_atom_site_fract_z
_atom_type_partial_charge
O0 O 0.24901 0.54069 0.3267 0.0
Cd1 Cd 0.22776 0.54984 0.27771 0.0
O2 O 0.27806 0.57849 0.31798 0.0
Cd3 Cd 0.31826 0.60733 0.32279 0.0
O4 O 0.35672 0.58227 0.32063 0.0
C5 C 0.38378 0.59055 0.32024 0.0
O6 O 0.39198 0.6188 0.32145 0.0
C7 C 0.27114 0.55834 0.33488 0.0
C8 C 0.16658 0.55072 0.27274 0.0
O9 O 0.17941 0.52668 0.26875 0.0
O10 O 0.18274 0.57454 0.27966 0.0
O11 O 0.22887 0.43064 0.73665 0.0
Cd12 Cd 0.24219 0.41424 0.68791 0.0
O13 O 0.20592 0.38721 0.73605 0.0
Cd14 Cd 0.17435 0.35268 0.74779 0.0
O15 O 0.14148 0.38399 0.75448 0.0
C16 C 0.11506 0.38264 0.74366 0.0
O17 O 0.10389 0.35882 0.72805 0.0
C18 C 0.21322 0.41226 0.74962 0.0
C19 C 0.30223 0.42682 0.68743 0.0
O20 O 0.28393 0.44596 0.68078 0.0
O21 O 0.29204 0.40116 0.69333 0.0
O22 O 0.75007 0.01011 0.67727 0.0
Cd23 Cd 0.74262 0.00644 0.72935 0.0
O24 O 0.77308 0.97117 0.68692 0.0
Cd25 Cd 0.805 0.93781 0.68332 0.0
O26 O 0.84018 0.97203 0.68565 0.0
C27 C 0.86764 0.96886 0.68662 0.0
O28 O 0.87722 0.94225 0.68622 0.0
C29 C 0.76554 0.98958 0.66841 0.0
C30 C 0.68437 0.01342 0.74018 0.0
O31 O 0.69297 0.98786 0.73292 0.0
O32 O 0.70349 0.03547 0.74252 0.0
O33 O 0.75204 0.99288 0.2499 0.0
Cd34 Cd 0.77589 0.98795 0.29887 0.0
O35 O 0.72279 0.02133 0.27294 0.0
Cd36 Cd 0.68123 0.04189 0.2751 0.0
O37 O 0.64417 0.01136 0.26036 0.0
C38 C 0.61717 0.01659 0.25743 0.0
O39 O 0.60919 0.04329 0.2641 0.0
C40 C 0.73004 0.00868 0.24902 0.0
C41 C 0.83631 0.9808 0.29907 0.0
O42 O 0.81749 0.95849 0.29596 0.0
O43 O 0.8265 0.00653 0.30175 0.0
O44 O 0.32688 0.24849 0.54118 0.0
Cd45 Cd 0.27788 0.22716 0.55023 0.0
O46 O 0.31796 0.27796 0.57867 0.0
Cd47 Cd 0.32275 0.31853 0.60699 0.0
O48 O 0.32065 0.3571 0.58216 0.0
C49 C 0.3202 0.38411 0.59064 0.0
O50 O 0.32129 0.39213 0.61893 0.0
C51 C 0.33493 0.27082 0.55862 0.0
C52 C 0.27277 0.16598 0.55101 0.0
O53 O 0.26885 0.1788 0.52698 0.0
O54 O 0.27973 0.18215 0.57484 0.0
O55 O 0.25007 0.74907 0.99236 0.0
Cd56 Cd 0.29951 0.7713 0.98708 0.0
O57 O 0.27261 0.72068 0.02206 0.0
Cd58 Cd 0.27465 0.67988 0.0438 0.0
O59 O 0.25994 0.64349 0.01245 0.0
C60 C 0.25723 0.61645 0.01739 0.0
O61 O 0.26406 0.60829 0.04396 0.0
C62 C 0.24882 0.72779 0.00898 0.0
C63 C 0.30024 0.83155 0.97955 0.0
O64 O 0.2972 0.81266 0.95728 0.0
O65 O 0.30275 0.82186 0.00533 0.0
O66 O 0.73646 0.22876 0.43077 0.0
Cd67 Cd 0.68774 0.24217 0.41426 0.0
O68 O 0.73587 0.20564 0.38738 0.0
Cd69 Cd 0.74768 0.17387 0.353 0.0
O70 O 0.75451 0.14108 0.3843 0.0
C71 C 0.74358 0.11474 0.38298 0.0
O72 O 0.72778 0.10364 0.35923 0.0
C73 C 0.74944 0.21299 0.41244 0.0
C74 C 0.6873 0.30216 0.427 0.0
O75 O 0.68058 0.28388 0.44606 0.0
O76 O 0.69325 0.29198 0.40133 0.0
O77 O 0.67645 0.74222 0.00818 0.0
Cd78 Cd 0.72814 0.73199 0.00401 0.0
O79 O 0.68756 0.76806 0.97152 0.0
Cd80 Cd 0.68493 0.80276 0.94107 0.0
O81 O 0.68695 0.83909 0.97398 0.0
C82 C 0.68704 0.86641 0.97034 0.0
O83 O 0.68589 0.87552 0.94355 0.0
C84 C 0.66862 0.75992 0.98925 0.0
C85 C 0.73865 0.6732 0.00973 0.0
O86 O 0.73133 0.68227 0.9844 0.0
O87 O 0.74083 0.69197 0.03211 0.0
O88 O 0.54091 0.32665 0.24903 0.0
Cd89 Cd 0.55003 0.27763 0.22777 0.0
O90 O 0.57865 0.31786 0.2783 0.0
Cd91 Cd 0.60725 0.32271 0.31869 0.0
O92 O 0.58227 0.32046 0.35714 0.0
C93 C 0.59069 0.32003 0.38416 0.0
O94 O 0.61898 0.32126 0.39228 0.0
C95 C 0.5585 0.33479 0.27125 0.0
C96 C 0.55088 0.27255 0.16661 0.0
O97 O 0.52683 0.26863 0.1794 0.0
O98 O 0.57471 0.27947 0.18281 0.0
O99 O 0.99306 0.24937 0.75222 0.0
Cd100 Cd 0.98808 0.29832 0.77619 0.0
O101 O 0.02145 0.27236 0.72297 0.0
Cd102 Cd 0.04202 0.27461 0.68149 0.0
O103 O 0.01155 0.25997 0.64433 0.0
C104 C 0.0168 0.25714 0.61737 0.0
O105 O 0.04349 0.26387 0.60947 0.0
C106 C 0.00881 0.24846 0.73022 0.0
C107 C 0.98078 0.29862 0.83658 0.0
O108 O 0.9585 0.2955 0.81767 0.0
O109 O 0.00655 0.30124 0.82688 0.0
O110 O 0.43063 0.73642 0.22907 0.0
Cd111 Cd 0.4142 0.68774 0.24239 0.0
O112 O 0.38729 0.73586 0.20577 0.0
Cd113 Cd 0.35304 0.74773 0.17386 0.0
O114 O 0.38438 0.75454 0.14113 0.0
C115 C 0.38313 0.74363 0.11476 0.0
O116 O 0.3594 0.72786 0.10357 0.0
C117 C 0.41233 0.74939 0.21324 0.0
C118 C 0.42692 0.68722 0.3024 0.0
O119 O 0.44603 0.68054 0.28411 0.0
O120 O 0.40122 0.69317 0.29221 0.0
O121 O 0.00816 0.67659 0.74785 0.0
Cd122 Cd 0.00275 0.72854 0.74069 0.0
O123 O 0.97008 0.68638 0.77208 0.0
Cd124 Cd 0.93796 0.68305 0.80511 0.0
O125 O 0.97238 0.68558 0.84017 0.0
C126 C 0.96921 0.68645 0.86759 0.0
O127 O 0.94257 0.68585 0.87708 0.0
C128 C 0.98837 0.66787 0.76417 0.0
C129 C 0.01389 0.74154 0.68397 0.0
O130 O 0.98777 0.7331 0.69021 0.0
O131 O 0.0345 0.74394 0.70469 0.0
O132 O 0.76019 0.4237 0.65554 0.0
Cd133 Cd 0.77313 0.41436 0.70728 0.0
O134 O 0.74003 0.45916 0.67928 0.0
Cd135 Cd 0.7097 0.49323 0.68673 0.0
O136 O 0.66282 0.49513 0.6896 0.0
C137 C 0.64978 0.46975 0.69022 0.0
O138 O 0.66558 0.44657 0.68983 0.0
C139 C 0.74442 0.44564 0.6548 0.0
C140 C 0.83227 0.42598 0.7272 0.0
O141 O 0.82232 0.40055 0.71579 0.0
O142 O 0.81427 0.44647 0.72881 0.0
O143 O 0.74153 0.58549 0.25473 0.0
Cd144 Cd 0.73517 0.59625 0.30681 0.0
O145 O 0.77349 0.55484 0.26915 0.0
Cd146 Cd 0.81549 0.53621 0.26597 0.0
O147 O 0.83559 0.58052 0.27923 0.0
C148 C 0.86179 0.59082 0.27658 0.0
O149 O 0.86968 0.61779 0.28742 0.0
C150 C 0.7606 0.56741 0.24838 0.0
C151 C 0.67703 0.58303 0.31801 0.0
O152 O 0.68566 0.6089 0.31127 0.0
O153 O 0.69614 0.56362 0.31988 0.0
O154 O 0.27206 0.00375 0.31834 0.0
Cd155 Cd 0.27338 -0.0016 0.26479 0.0
O156 O 0.23541 0.96994 0.31495 0.0
Cd157 Cd 0.19376 0.95721 0.33217 0.0
O158 O 0.17979 -0.00185 0.31451 0.0
C159 C 0.15484 0.00523 0.30406 0.0
O160 O 0.15291 0.03173 0.29465 0.0
C161 C 0.2523 0.98892 0.33051 0.0
C162 C 0.32974 0.98985 0.24763 0.0
O163 O 0.32161 0.01587 0.25353 0.0
O164 O 0.31112 0.96792 0.24976 0.0
O165 O 0.22941 0.97605 0.73791 0.0
Cd166 Cd 0.21106 0.98349 0.68734 0.0
O167 O 0.24886 0.0212 0.74003 0.0
Cd168 Cd 0.28061 0.05688 0.75621 0.0
O169 O 0.32794 0.06571 0.76014 0.0
C170 C 0.34139 0.04333 0.75204 0.0
O171 O 0.32579 0.01891 0.74244 0.0
C172 C 0.24516 0.99699 0.75209 0.0
C173 C 0.15325 0.00032 0.68196 0.0
O174 O 0.15891 0.97309 0.681 0.0
O175 O 0.17502 0.01975 0.68582 0.0
O176 O 0.65543 0.76 0.42418 0.0
Cd177 Cd 0.70716 0.77296 0.41477 0.0
O178 O 0.67922 0.73977 0.45957 0.0
Cd179 Cd 0.68667 0.70941 0.49355 0.0
O180 O 0.68953 0.66256 0.49543 0.0
C181 C 0.69011 0.64948 0.47004 0.0
O182 O 0.68967 0.66523 0.44687 0.0
C183 C 0.65472 0.74421 0.44607 0.0
C184 C 0.72702 0.83208 0.42628 0.0
O185 O 0.71555 0.82207 0.40088 0.0
O186 O 0.72871 0.81416 0.44679 0.0
O187 O 0.73981 0.22153 0.96869 0.0
Cd188 Cd 0.68909 0.20699 0.97874 0.0
O189 O 0.73539 0.24752 0.00956 0.0
Cd190 Cd 0.74575 0.28568 0.03877 0.0
O191 O 0.75324 0.33222 0.04751 0.0
C192 C 0.74659 0.3508 0.02896 0.0
O193 O 0.73321 0.34182 0.00322 0.0
C194 C 0.75075 0.24097 0.98816 0.0
C195 C 0.68216 0.15069 0.99823 0.0
O196 O 0.68044 0.15528 0.97074 0.0
O197 O 0.68745 0.17299 0.01691 0.0
O198 O 0.24737 0.74053 0.59119 0.0
Cd199 Cd 0.29951 0.73372 0.60411 0.0
O200 O 0.2677 0.77329 0.56489 0.0
Cd201 Cd 0.2698 0.81323 0.54175 0.0
O202 O 0.28206 0.83702 0.58443 0.0
C203 C 0.27871 0.86352 0.59335 0.0
O204 O 0.28892 0.87269 0.62023 0.0
C205 C 0.24444 0.76055 0.57337 0.0
C206 C 0.31388 0.67684 0.58744 0.0
O207 O 0.30593 0.68365 0.61333 0.0
O208 O 0.31538 0.69713 0.56929 0.0
O209 O 0.31799 0.2705 0.00338 0.0
Cd210 Cd 0.26447 0.27268 0.99778 0.0
O211 O 0.31525 0.23644 0.96697 0.0
Cd212 Cd 0.33135 0.19548 0.94998 0.0
O213 O 0.31008 0.18598 0.99059 0.0
C214 C 0.3001 0.16214 0.00049 0.0
O215 O 0.28849 0.16358 0.02613 0.0
C216 C 0.33048 0.25184 0.98741 0.0
C217 C 0.24774 0.32927 0.98957 0.0
O218 O 0.2536 0.32102 0.01553 0.0
O219 O 0.24977 0.3107 0.96755 0.0
O220 O 0.42386 0.65547 0.76026 0.0
Cd221 Cd 0.41448 0.7072 0.77333 0.0
O222 O 0.45931 0.67907 0.74005 0.0
Cd223 Cd 0.49334 0.68633 0.70971 0.0
O224 O 0.4953 0.68923 0.66287 0.0
C225 C 0.4699 0.68988 0.64978 0.0
O226 O 0.4467 0.68949 0.6655 0.0
C227 C 0.44576 0.65464 0.74447 0.0
C228 C 0.42635 0.72708 0.83245 0.0
O229 O 0.40089 0.71566 0.82257 0.0
O230 O 0.44674 0.72871 0.81439 0.0
O231 O 0.97267 0.73698 0.22779 0.0
Cd232 Cd 0.98219 0.68685 0.21005 0.0
O233 O 0.01749 0.73942 0.24827 0.0
Cd234 Cd 0.05221 0.75594 0.28099 0.0
O235 O 0.06059 0.75967 0.32833 0.0
C236 C 0.03909 0.74928 0.3417 0.0
O237 O 0.0154 0.73766 0.32608 0.0
C238 C 0.99314 0.75122 0.2441 0.0
C239 C -0.0004 0.68177 0.15256 0.0
O240 O 0.97229 0.6801 0.15796 0.0
O241 O 0.01887 0.68627 0.17445 0.0
O242 O 0.58475 0.24981 0.74202 0.0
Cd243 Cd 0.5981 0.30156 0.73507 0.0
O244 O 0.55661 0.26826 0.77438 0.0
Cd245 Cd 0.53578 0.26789 0.81547 0.0
O246 O 0.5802 0.28048 0.83576 0.0
C247 C 0.59066 0.27716 0.86178 0.0
O248 O 0.6178 0.28756 0.86965 0.0
C249 C 0.56665 0.24582 0.76161 0.0
C250 C 0.58392 0.31473 0.67743 0.0
O251 O 0.60954 0.30663 0.68532 0.0
O252 O 0.56504 0.31689 0.69698 0.0
O253 O 0.00388 0.31802 0.27227 0.0
Cd254 Cd -0.00156 0.26448 0.27363 0.0
O255 O 0.97012 0.31477 0.23551 0.0
Cd256 Cd 0.95752 0.33202 0.19382 0.0
O257 O -0.0015 0.31426 0.17998 0.0
C258 C 0.00556 0.30376 0.15507 0.0
O259 O 0.03207 0.2943 0.1532 0.0
C260 C 0.98912 0.33025 0.25247 0.0
C261 C 0.98996 0.24734 0.32996 0.0
O262 O 0.01598 0.25319 0.32186 0.0
O263 O 0.96799 0.24952 0.31133 0.0
C264 C 0.32761 0.58675 0.56145 0.0
C265 C 0.329 0.60818 0.54072 0.0
C266 C 0.32005 0.64614 0.5786 0.0
C267 C 0.32538 0.63772 0.54926 0.0
C268 C 0.31934 0.6246 0.59932 0.0
C269 C 0.32307 0.59516 0.59078 0.0
U270 U 0.32356 0.52472 0.50134 0.0
O271 O 0.34511 0.48281 0.49876 0.0
O272 O 0.29683 0.48264 0.49838 0.0
C273 C 0.32011 0.4671 0.50053 0.0
C274 C 0.3282 0.55533 0.55235 0.0
C275 C 0.31996 0.44639 0.52391 0.0
C276 C 0.32377 0.43636 0.57581 0.0
C277 C 0.32416 0.45646 0.55381 0.0
C278 C 0.31461 0.39619 0.53808 0.0
C279 C 0.31926 0.40597 0.56809 0.0
C280 C 0.31495 0.41623 0.51624 0.0
C281 C 0.31256 0.55236 0.42158 0.0
C282 C 0.2872 0.52842 0.3769 0.0
C283 C 0.30273 0.58034 0.37887 0.0
C284 C 0.31508 0.57872 0.4075 0.0
C285 C 0.28799 0.55544 0.36344 0.0
C286 C 0.29935 0.52689 0.40585 0.0
C287 C 0.31878 0.55409 0.45375 0.0
O288 O 0.30309 0.5433 0.53999 0.0
O289 O 0.35121 0.54753 0.53847 0.0
O290 O 0.29644 0.54658 0.46913 0.0
O291 O 0.34416 0.54567 0.46454 0.0
H292 H 0.33217 0.60194 0.51785 0.0
H293 H 0.326 0.65377 0.53276 0.0
H294 H 0.31531 0.63034 0.62207 0.0
H295 H 0.32166 0.57883 0.60697 0.0
H296 H 0.32738 0.44454 0.5987 0.0
H297 H 0.32784 0.47981 0.56009 0.0
H298 H 0.31082 0.37295 0.53135 0.0
H299 H 0.31138 0.40812 0.49332 0.0
H300 H 0.27612 0.50877 0.36552 0.0
H301 H 0.30288 0.60168 0.36983 0.0
H302 H 0.3248 0.59871 0.41945 0.0
H303 H 0.29703 0.50634 0.41643 0.0
C304 C 0.22726 0.41805 0.97537 0.0
C305 C 0.2213 0.39573 0.95268 0.0
C306 C 0.23958 0.35959 0.98505 0.0
C307 C 0.22746 0.36672 0.95747 0.0
C308 C 0.24475 0.38191 0.00796 0.0
C309 C 0.23877 0.41098 0.00307 0.0
U310 U 0.21247 0.47428 0.9203 0.0
O311 O 0.19128 0.51639 0.92376 0.0
O312 O 0.23774 0.51569 0.91367 0.0
C313 C 0.21637 0.53187 0.92169 0.0
C314 C 0.22413 0.44893 0.96933 0.0
C315 C 0.22511 0.5537 0.94634 0.0
C316 C 0.24016 0.56496 0.99827 0.0
C317 C 0.22972 0.54461 0.97507 0.0
C318 C 0.24124 0.6037 0.96426 0.0
C319 C 0.24612 0.59471 0.99308 0.0
C320 C 0.23088 0.58333 0.94109 0.0
C321 C 0.19812 0.43457 0.84025 0.0
C322 C 0.20823 0.44986 0.79165 0.0
C323 C 0.19624 0.39839 0.79853 0.0
C324 C 0.19252 0.40556 0.82821 0.0
C325 C 0.20468 0.42028 0.77991 0.0
C326 C 0.20525 0.45694 0.8217 0.0
C327 C 0.20214 0.43889 0.87251 0.0
O328 O 0.2446 0.45987 0.95341 0.0
O329 O 0.19744 0.45568 0.96061 0.0
O330 O 0.22869 0.44846 0.88339 0.0
O331 O 0.1808 0.44924 0.88743 0.0
H332 H 0.2126 0.4009 0.93106 0.0
H333 H 0.22309 0.34997 0.93946 0.0
H334 H 0.25419 0.37709 0.0294 0.0
H335 H 0.24381 0.42805 0.02068 0.0
H336 H 0.24363 0.55736 0.02018 0.0
H337 H 0.22563 0.52168 0.97944 0.0
H338 H 0.24567 0.62647 0.95949 0.0
H339 H 0.22775 0.59063 0.91902 0.0
H340 H 0.21481 0.46735 0.77797 0.0
H341 H 0.19455 0.3754 0.79099 0.0
H342 H 0.18751 0.38793 0.84232 0.0
H343 H 0.21005 0.47946 0.83068 0.0
C344 C 0.75418 0.92421 0.44144 0.0
C345 C 0.75714 0.90549 0.4646 0.0
C346 C 0.73755 0.86354 0.43159 0.0
C347 C 0.74896 0.8753 0.45968 0.0
C348 C 0.73557 0.88237 0.4084 0.0
C349 C 0.74378 0.91239 0.41332 0.0
U350 U 0.76931 0.99396 0.49278 0.0
O351 O 0.79126 0.03706 0.48558 0.0
O352 O 0.74418 0.03358 0.49361 0.0
C353 C 0.76635 0.05021 0.48536 0.0
C354 C 0.75855 0.95636 0.44668 0.0
C355 C 0.75954 0.06629 0.45916 0.0
C356 C 0.74819 0.06682 0.40627 0.0
C357 C 0.75421 0.05124 0.43121 0.0
C358 C 0.75262 0.1125 0.43716 0.0
C359 C 0.74786 0.09763 0.40904 0.0
C360 C 0.75827 0.09691 0.46203 0.0
C361 C 0.78152 0.98035 0.57651 0.0
C362 C 0.77085 0.01126 0.61946 0.0
C363 C 0.78271 0.96076 0.62475 0.0
C364 C 0.78673 0.9574 0.5947 0.0
C365 C 0.77408 0.98746 0.63748 0.0
C366 C 0.77438 0.00768 0.5891 0.0
C367 C 0.77837 0.97289 0.54458 0.0
O368 O 0.73785 0.96839 0.46109 0.0
O369 O 0.7853 0.96723 0.45573 0.0
O370 O 0.75207 0.97569 0.53187 0.0
O371 O 0.80007 0.98116 0.52861 0.0
H372 H 0.76493 0.91437 0.48657 0.0
H373 H 0.75092 0.86135 0.47797 0.0
H374 H 0.72706 0.87406 0.38649 0.0
H375 H 0.74114 0.92658 0.39529 0.0
H376 H 0.74459 0.05491 0.38485 0.0
H377 H 0.75497 0.0275 0.42868 0.0
H378 H 0.75203 0.13626 0.43994 0.0
H379 H 0.76195 0.1088 0.48347 0.0
H380 H 0.76426 0.0322 0.62855 0.0
H381 H 0.78425 0.94162 0.63729 0.0
H382 H 0.79183 0.93602 0.58527 0.0
H383 H 0.77002 0.02562 0.57531 0.0
C384 C 0.67319 0.06221 0.02505 0.0
C385 C 0.67551 0.08599 0.04644 0.0
C386 C 0.67845 0.12039 0.00781 0.0
C387 C 0.6781 0.11496 0.03786 0.0
C388 C 0.67558 0.09638 0.98661 0.0
C389 C 0.67304 0.06759 0.99519 0.0
U390 U 0.67845 0.00236 0.08071 0.0
O391 O 0.65838 0.95695 0.07698 0.0
O392 O 0.70653 0.96495 0.07848 0.0
C393 C 0.68387 0.94557 0.07356 0.0
C394 C 0.6735 0.03164 0.03314 0.0
C395 C 0.68493 0.9257 0.0471 0.0
C396 C 0.68263 0.91718 0.99374 0.0
C397 C 0.68145 0.93627 0.01889 0.0
C398 C 0.69109 0.87698 0.02494 0.0
C399 C 0.68721 0.88728 0.99655 0.0
C400 C 0.68997 0.89607 0.04998 0.0
C401 C 0.68889 0.02198 0.1639 0.0
C402 C 0.71112 0.98948 0.19796 0.0
C403 C 0.70176 0.03928 0.21492 0.0
C404 C 0.68961 0.04409 0.18681 0.0
C405 C 0.71334 0.01219 0.2206 0.0
C406 C 0.69887 0.9943 0.16981 0.0
C407 C 0.68208 0.02967 0.13347 0.0
O408 O 0.69881 0.02448 0.04514 0.0
O409 O 0.65056 0.02103 0.04615 0.0
O410 O 0.65695 0.01848 0.12017 0.0
O411 O 0.70435 0.02832 0.11664 0.0
H412 H 0.6759 0.0821 0.06966 0.0
H413 H 0.68017 0.13302 0.05469 0.0
H414 H 0.67581 0.09976 0.96332 0.0
H415 H 0.67158 0.04944 0.97845 0.0
H416 H 0.67958 0.92574 0.97221 0.0
H417 H 0.67772 0.95924 0.01636 0.0
H418 H 0.69485 0.85409 0.02789 0.0
H419 H 0.69295 0.88766 0.0716 0.0
H420 H 0.71973 0.96833 0.20176 0.0
H421 H 0.70378 0.05743 0.23161 0.0
H422 H 0.6823 0.06569 0.18256 0.0
H423 H 0.69856 0.97697 0.15231 0.0
C424 C 0.56067 0.32766 0.58664 0.0
C425 C 0.53937 0.32949 0.60745 0.0
C426 C 0.57613 0.32046 0.64642 0.0
C427 C 0.54706 0.32605 0.63716 0.0
C428 C 0.59748 0.31921 0.62551 0.0
C429 C 0.58978 0.32277 0.59584 0.0
U430 U 0.50118 0.32336 0.52445 0.0
O431 O 0.49839 0.34478 0.48254 0.0
O432 O 0.49822 0.29654 0.48239 0.0
C433 C 0.50027 0.31977 0.46685 0.0
C434 C 0.5522 0.32812 0.55509 0.0
C435 C 0.52371 0.31964 0.4462 0.0
C436 C 0.57568 0.32357 0.43635 0.0
C437 C 0.55361 0.32392 0.45637 0.0
C438 C 0.53806 0.31428 0.39606 0.0
C439 C 0.56805 0.31902 0.40594 0.0
C440 C 0.51614 0.31458 0.41602 0.0
C441 C 0.42151 0.31232 0.55238 0.0
C442 C 0.37683 0.28684 0.52857 0.0
C443 C 0.3789 0.30248 0.5805 0.0
C444 C 0.40751 0.31486 0.57879 0.0
C445 C 0.36345 0.28767 0.55564 0.0
C446 C 0.40573 0.29904 0.52695 0.0
C447 C 0.45368 0.3186 0.55399 0.0
O448 O 0.53999 0.303 0.543 0.0
O449 O 0.53833 0.35108 0.54708 0.0
O450 O 0.46913 0.29628 0.54644 0.0
O451 O 0.46434 0.34394 0.5455 0.0
H452 H 0.51666 0.33288 0.6006 0.0
H453 H 0.5301 0.32705 0.65271 0.0
H454 H 0.62005 0.31495 0.63194 0.0
H455 H 0.60639 0.32101 0.57997 0.0
H456 H 0.59856 0.32725 0.44461 0.0
H457 H 0.55981 0.32764 0.47974 0.0
H458 H 0.5314 0.31046 0.3728 0.0
H459 H 0.49323 0.31095 0.40785 0.0
H460 H 0.36541 0.27571 0.50896 0.0
H461 H 0.36991 0.30268 0.60186 0.0
H462 H 0.41949 0.32463 0.59875 0.0
H463 H 0.41625 0.2967 0.50637 0.0
C464 C 0.02464 0.67367 0.06324 0.0
C465 C 0.0464 0.6757 0.08668 0.0
C466 C 0.00843 0.67858 0.12189 0.0
C467 C 0.03834 0.67812 0.11585 0.0
C468 C 0.98681 0.67609 0.09822 0.0
C469 C 0.99488 0.67372 0.06919 0.0
U470 U 0.07993 0.67845 0.0031 0.0
O471 O 0.07628 0.65824 0.95771 0.0
O472 O 0.07787 0.70637 0.96561 0.0
C473 C 0.07294 0.68368 0.94625 0.0
C474 C 0.03235 0.67389 0.0325 0.0
C475 C 0.04644 0.68474 0.9264 0.0
C476 C 0.99305 0.68251 0.91818 0.0
C477 C 0.0183 0.68143 0.93714 0.0
C478 C 0.02396 0.69052 0.8777 0.0
C479 C 0.99564 0.6868 0.88821 0.0
C480 C 0.04914 0.68953 0.89669 0.0
C481 C 0.16319 0.6882 0.02276 0.0
C482 C 0.19748 0.70956 0.99005 0.0
C483 C 0.21435 0.70054 0.03996 0.0
C484 C 0.18611 0.68886 0.04489 0.0
C485 C 0.22017 0.71167 0.01274 0.0
C486 C 0.16919 0.69782 0.99499 0.0
C487 C 0.13271 0.68175 0.03046 0.0
O488 O 0.04442 0.69908 0.02527 0.0
O489 O 0.0452 0.65087 0.02175 0.0
O490 O 0.11925 0.6567 0.01933 0.0
O491 O 0.11602 0.70416 0.02902 0.0
H492 H 0.06954 0.67593 0.0824 0.0
H493 H 0.05552 0.67989 0.1336 0.0
H494 H 0.96361 0.67639 0.10207 0.0
H495 H 0.97784 0.67246 0.05131 0.0
H496 H 0.97158 0.67957 0.9269 0.0
H497 H 0.0159 0.67788 0.96016 0.0
H498 H 0.02672 0.69406 0.85474 0.0
H499 H 0.07072 0.69237 0.88814 0.0
H500 H 0.20137 0.71785 0.96881 0.0
H501 H 0.23104 0.70255 0.05813 0.0
H502 H 0.18178 0.68184 0.06654 0.0
H503 H 0.15169 0.69758 0.97767 0.0
C504 C 0.97538 0.22692 0.41859 0.0
C505 C 0.95276 0.22099 0.39618 0.0
C506 C 0.98531 0.23915 0.36021 0.0
C507 C 0.95767 0.22711 0.36721 0.0
C508 C 0.00815 0.24427 0.38262 0.0
C509 C 0.00314 0.23835 0.41166 0.0
U510 U 0.92017 0.21221 0.47469 0.0
O511 O 0.92368 0.19108 0.51678 0.0
O512 O 0.91344 0.23749 0.51611 0.0
C513 C 0.92151 0.21616 0.53227 0.0
C514 C 0.96925 0.22383 0.44944 0.0
C515 C 0.94611 0.22493 0.55418 0.0
C516 C 0.99801 0.24006 0.56571 0.0
C517 C 0.97489 0.2296 0.54523 0.0
C518 C 0.96378 0.24105 0.60427 0.0
C519 C 0.99265 0.246 0.59543 0.0
C520 C 0.94071 0.23066 0.58378 0.0
C521 C 0.84012 0.19783 0.43488 0.0
C522 C 0.79146 0.20802 0.4501 0.0
C523 C 0.79841 0.19591 0.39865 0.0
C524 C 0.8281 0.19217 0.40586 0.0
C525 C 0.77974 0.20442 0.42051 0.0
C526 C 0.82153 0.20503 0.45722 0.0
C527 C 0.87239 0.20185 0.43924 0.0
O528 O 0.95324 0.2443 0.46035 0.0
O529 O 0.96057 0.19716 0.45614 0.0
O530 O 0.88321 0.22839 0.44884 0.0
O531 O 0.88737 0.18053 0.44958 0.0
H532 H 0.93109 0.21237 0.40126 0.0
H533 H 0.93971 0.22279 0.35038 0.0
H534 H 0.02963 0.25367 0.37791 0.0
H535 H 0.0207 0.24335 0.4288 0.0
H536 H 0.01996 0.24359 0.55823 0.0
H537 H 0.97937 0.22553 0.52232 0.0
H538 H 0.95886 0.24545 0.62701 0.0
H539 H 0.9186 0.22748 0.59098 0.0
H540 H 0.77774 0.21466 0.46757 0.0
H541 H 0.79089 0.19418 0.37565 0.0
H542 H 0.84225 0.18711 0.38825 0.0
H543 H 0.83049 0.20987 0.47975 0.0
C544 C 0.44209 0.75439 0.92454 0.0
C545 C 0.46513 0.75723 0.90569 0.0
C546 C 0.43186 0.73764 0.8639 0.0
C547 C 0.46003 0.749 0.8755 0.0
C548 C 0.40879 0.73576 0.88287 0.0
C549 C 0.41389 0.74403 0.91288 0.0
U550 U 0.49359 0.76906 0.99444 0.0
O551 O 0.48631 0.79094 0.03759 0.0
O552 O 0.49402 0.7438 0.0339 0.0
C553 C 0.48586 0.766 0.05061 0.0
C554 C 0.44749 0.75881 0.95668 0.0
C555 C 0.45954 0.75936 0.06658 0.0
C556 C 0.40659 0.74818 0.06692 0.0
C557 C 0.4316 0.75411 0.05143 0.0
C558 C 0.43736 0.75256 0.1127 0.0
C559 C 0.40926 0.74787 0.09773 0.0
C560 C 0.46231 0.75812 0.0972 0.0
C561 C 0.57763 0.77993 0.98125 0.0
C562 C 0.62016 0.76697 0.01158 0.0
C563 C 0.62583 0.77998 0.96152 0.0
C564 C 0.59597 0.78517 0.95844 0.0
C565 C 0.6382 0.77005 0.9878 0.0
C566 C 0.58999 0.77173 0.00828 0.0
C567 C 0.54565 0.77744 0.97369 0.0
O568 O 0.4617 0.73796 0.96869 0.0
O569 O 0.45681 0.78547 0.96756 0.0
O570 O 0.53252 0.75132 0.97617 0.0
O571 O 0.52996 0.79936 0.98207 0.0
H572 H 0.48716 0.76498 0.91444 0.0
H573 H 0.47824 0.75088 0.86145 0.0
H574 H 0.38682 0.72728 0.87468 0.0
H575 H 0.39593 0.74147 0.92717 0.0
H576 H 0.38518 0.74463 0.05494 0.0
H577 H 0.42915 0.75485 0.02769 0.0
H578 H 0.44007 0.75199 0.13646 0.0
H579 H 0.48372 0.76173 0.10917 0.0
H580 H 0.62903 0.75948 0.03221 0.0
H581 H 0.6384 0.7815 0.94238 0.0
H582 H 0.58673 0.79108 0.93728 0.0
H583 H 0.5761 0.76738 0.02613 0.0
C584 C 0.58565 0.56038 0.3282 0.0
C585 C 0.60631 0.53893 0.33035 0.0
C586 C 0.64574 0.57549 0.32257 0.0
C587 C 0.63616 0.54644 0.32767 0.0
C588 C 0.62495 0.59698 0.3208 0.0
C589 C 0.5951 0.58943 0.32358 0.0
U590 U 0.52384 0.50091 0.32355 0.0
O591 O 0.48194 0.4979 0.34495 0.0
O592 O 0.48177 0.49769 0.2967 0.0
C593 C 0.46622 0.49978 0.31994 0.0
C594 C 0.55408 0.55204 0.32837 0.0
C595 C 0.44563 0.52329 0.31985 0.0
C596 C 0.43594 0.57529 0.3238 0.0
C597 C 0.4559 0.55312 0.32414 0.0
C598 C 0.39552 0.53788 0.31455 0.0
C599 C 0.4055 0.56782 0.31926 0.0
C600 C 0.41541 0.51587 0.31484 0.0
C601 C 0.55224 0.42144 0.31266 0.0
C602 C 0.52842 0.37674 0.28729 0.0
C603 C 0.58042 0.37881 0.30281 0.0
C604 C 0.5787 0.40744 0.31516 0.0
C605 C 0.55552 0.36335 0.28808 0.0
C606 C 0.52679 0.40566 0.29945 0.0
C607 C 0.55379 0.45361 0.31891 0.0
O608 O 0.54222 0.53969 0.30318 0.0
O609 O 0.54595 0.53827 0.3513 0.0
O610 O 0.54616 0.46895 0.29656 0.0
O611 O 0.54522 0.46431 0.34423 0.0
H612 H 0.59925 0.51626 0.33352 0.0
H613 H 0.6516 0.52937 0.32901 0.0
H614 H 0.63165 0.61951 0.3168 0.0
H615 H 0.57932 0.60614 0.32153 0.0
H616 H 0.44428 0.59813 0.32746 0.0
H617 H 0.4793 0.5592 0.32783 0.0
H618 H 0.37223 0.53134 0.31075 0.0
H619 H 0.40717 0.493 0.31122 0.0
H620 H 0.50878 0.36532 0.27622 0.0
H621 H 0.6018 0.36981 0.30298 0.0
H622 H 0.59868 0.41943 0.32487 0.0
H623 H 0.50617 0.41619 0.29715 0.0
C624 C 0.06361 0.02489 0.67412 0.0
C625 C 0.08693 0.0467 0.67588 0.0
C626 C 0.12245 0.00895 0.6788 0.0
C627 C 0.11618 0.03878 0.67818 0.0
C628 C 0.09891 0.98725 0.67659 0.0
C629 C 0.06977 0.99519 0.67433 0.0
U630 U 0.00299 0.07988 0.67904 0.0
O631 O 0.9576 0.076 0.65873 0.0
O632 O 0.96543 0.07753 0.70686 0.0
C633 C 0.94611 0.07258 0.68412 0.0
C634 C 0.03279 0.0325 0.67436 0.0
C635 C 0.92633 0.04606 0.68506 0.0
C636 C 0.91824 0.9927 0.68277 0.0
C637 C 0.93716 0.01794 0.68176 0.0
C638 C 0.87761 0.02357 0.69065 0.0
C639 C 0.88822 0.99528 0.68697 0.0
C640 C 0.89655 0.04875 0.68974 0.0
C641 C 0.02217 0.16323 0.68927 0.0
C642 C 0.98964 0.19735 0.71143 0.0
C643 C 0.03936 0.21431 0.7019 0.0
C644 C 0.04421 0.18617 0.68984 0.0
C645 C 0.01231 0.22001 0.71355 0.0
C646 C 0.9945 0.16916 0.69927 0.0
C647 C 0.02997 0.13278 0.68263 0.0
O648 O 0.02546 0.04449 0.69957 0.0
O649 O 0.02196 0.04534 0.65138 0.0
O650 O 0.01892 0.11937 0.65751 0.0
O651 O 0.02864 0.11601 0.70493 0.0
H652 H 0.08249 0.06979 0.67599 0.0
H653 H 0.13383 0.05601 0.67974 0.0
H654 H 0.10293 0.96411 0.67702 0.0
H655 H 0.05199 0.9781 0.67327 0.0
H656 H 0.92703 0.97125 0.67986 0.0
H657 H 0.96022 0.01555 0.67829 0.0
H658 H 0.85461 0.02633 0.69412 0.0
H659 H 0.88794 0.0703 0.69257 0.0
H660 H 0.96851 0.20117 0.72008 0.0
H661 H 0.05749 0.231 0.70383 0.0
H662 H 0.0658 0.18191 0.68251 0.0
H663 H 0.97722 0.15166 0.69907 0.0
C664 C 0.41844 0.97518 0.22719 0.0
C665 C 0.39605 0.95258 0.22126 0.0
C666 C 0.36002 0.98517 0.23943 0.0
C667 C 0.36705 0.95752 0.22739 0.0
C668 C 0.38241 0.00798 0.24455 0.0
C669 C 0.41147 0.00294 0.23862 0.0
U670 U 0.47464 0.91992 0.21251 0.0
O671 O 0.51674 0.92335 0.19137 0.0
O672 O 0.51612 0.91324 0.23779 0.0
C673 C 0.53226 0.92125 0.21646 0.0
C674 C 0.44932 0.96901 0.2241 0.0
C675 C 0.55413 0.94587 0.22521 0.0
C676 C 0.56553 0.99776 0.2403 0.0
C677 C 0.5451 0.97463 0.22984 0.0
C678 C 0.60421 0.96357 0.24136 0.0
C679 C 0.59529 0.99243 0.24627 0.0
C680 C 0.58376 0.94049 0.23098 0.0
C681 C 0.43482 0.83994 0.19816 0.0
C682 C 0.45003 0.79128 0.20831 0.0
C683 C 0.39854 0.79835 0.19622 0.0
C684 C 0.40577 0.82801 0.19251 0.0
C685 C 0.42042 0.77965 0.2047 0.0
C686 C 0.45717 0.82131 0.20534 0.0
C687 C 0.43922 0.8722 0.20218 0.0
O688 O 0.46026 0.95306 0.24458 0.0
O689 O 0.45601 0.96026 0.19743 0.0
O690 O 0.44884 0.88305 0.22871 0.0
O691 O 0.44954 0.88708 0.18085 0.0
H692 H 0.40117 0.93091 0.21264 0.0
H693 H 0.35025 0.93958 0.22307 0.0
H694 H 0.37766 0.02947 0.25395 0.0
H695 H 0.4286 0.02048 0.24363 0.0
H696 H 0.55799 0.0197 0.24379 0.0
H697 H 0.52216 0.9791 0.22574 0.0
H698 H 0.62698 0.95867 0.2458 0.0
H699 H 0.59103 0.91839 0.22784 0.0
H700 H 0.4675 0.77752 0.21493 0.0
H701 H 0.37553 0.79089 0.19448 0.0
H702 H 0.38815 0.8422 0.18747 0.0
H703 H 0.47972 0.8302 0.21018 0.0
C704 C 0.92446 0.44125 0.75442 0.0
C705 C 0.90568 0.46441 0.75726 0.0
C706 C 0.86375 0.43134 0.73775 0.0
C707 C 0.87546 0.45946 0.74907 0.0
C708 C 0.88265 0.40815 0.73589 0.0
C709 C 0.91269 0.4131 0.74412 0.0
U710 U 0.99422 0.49256 0.76947 0.0
O711 O 0.03745 0.48535 0.79134 0.0
O712 O 0.03375 0.49337 0.74428 0.0
C713 C 0.0505 0.48512 0.76641 0.0
C714 C 0.95663 0.44649 0.75878 0.0
C715 C 0.06658 0.45889 0.75959 0.0
C716 C 0.0671 0.40599 0.74833 0.0
C717 C 0.05152 0.43095 0.75435 0.0
C718 C 0.11279 0.43683 0.75256 0.0
C719 C 0.09792 0.40872 0.74791 0.0
C720 C 0.0972 0.46173 0.75821 0.0
C721 C 0.98048 0.57631 0.78149 0.0
C722 C 0.01074 0.61922 0.76973 0.0
C723 C 0.96052 0.62441 0.78263 0.0
C724 C 0.95753 0.59443 0.78706 0.0
C725 C 0.98685 0.63712 0.77322 0.0
C726 C 0.00752 0.58892 0.77367 0.0
C727 C 0.97311 0.54437 0.77847 0.0
O728 O 0.9686 0.46087 0.73807 0.0
O729 O 0.96756 0.45555 0.78551 0.0
O730 O 0.97578 0.5316 0.7522 0.0
O731 O 0.98152 0.52846 0.80018 0.0
H732 H 0.91453 0.4864 0.76496 0.0
H733 H 0.86147 0.47775 0.75092 0.0
H734 H 0.87438 0.38621 0.72746 0.0
H735 H 0.92693 0.39506 0.74157 0.0
H736 H 0.0552 0.38457 0.74482 0.0
H737 H 0.02778 0.42846 0.75519 0.0
H738 H 0.13655 0.43959 0.75189 0.0
H739 H 0.10908 0.48316 0.76181 0.0
H740 H 0.03141 0.62832 0.76258 0.0
H741 H 0.94131 0.63686 0.78442 0.0
H742 H 0.93636 0.58498 0.79267 0.0
H743 H 0.02546 0.57517 0.76905 0.0
C744 C 0.69142 0.39498 0.44934 0.0
C745 C 0.69246 0.37546 0.47175 0.0
C746 C 0.68872 0.33411 0.43469 0.0
C747 C 0.69102 0.34509 0.46443 0.0
C748 C 0.68813 0.35393 0.41242 0.0
C749 C 0.68934 0.38414 0.41974 0.0
U750 U 0.69375 0.47764 0.48547 0.0
O751 O 0.66545 0.50869 0.4644 0.0
O752 O 0.71321 0.51208 0.45981 0.0
C753 C 0.68786 0.52347 0.4542 0.0
C754 C 0.69136 0.42676 0.45543 0.0
C755 C 0.68847 0.55547 0.45879 0.0
C756 C 0.69108 0.60304 0.43808 0.0
C757 C 0.69026 0.5724 0.43437 0.0
C758 C 0.68854 0.59998 0.49083 0.0
C759 C 0.69011 0.61713 0.46634 0.0
C760 C 0.68775 0.56929 0.48707 0.0
C761 C 0.71008 0.47385 0.57155 0.0
C762 C 0.72473 0.48425 0.62363 0.0
C763 C 0.72637 0.43474 0.60137 0.0
C764 C 0.71589 0.44421 0.57408 0.0
C765 C 0.73125 0.45482 0.62639 0.0
C766 C 0.71405 0.49355 0.59662 0.0
C767 C 0.70318 0.48621 0.54302 0.0
O768 O 0.66807 0.43763 0.46652 0.0
O769 O 0.7164 0.44212 0.46313 0.0
O770 O 0.67668 0.48036 0.52984 0.0
O771 O 0.72431 0.48688 0.52472 0.0
H772 H 0.69413 0.38364 0.49469 0.0
H773 H 0.69188 0.33022 0.48201 0.0
H774 H 0.68632 0.34612 0.38936 0.0
H775 H 0.68838 0.39912 0.40222 0.0
H776 H 0.69235 0.61562 0.41879 0.0
H777 H 0.691 0.56191 0.41241 0.0
H778 H 0.68775 0.61023 0.51285 0.0
H779 H 0.68654 0.55636 0.50613 0.0
H780 H 0.72929 0.50059 0.64188 0.0
H781 H 0.73115 0.41188 0.60279 0.0
H782 H 0.71313 0.42869 0.55491 0.0
H783 H 0.7101 0.51662 0.59502 0.0
C784 C 0.75251 0.58217 0.021 0.0
C785 C 0.75559 0.60298 0.04524 0.0
C786 C 0.74407 0.64193 0.01328 0.0
C787 C 0.75144 0.63257 0.04143 0.0
C788 C 0.74148 0.62107 0.98889 0.0
C789 C 0.74564 0.59133 0.99276 0.0
U790 U 0.76373 0.52586 0.07554 0.0
O791 O 0.74089 0.48275 0.08025 0.0
O792 O 0.78902 0.48634 0.07635 0.0
C793 C 0.76525 0.46889 0.07845 0.0
C794 C 0.75512 0.5509 0.02587 0.0
C795 C 0.76326 0.44057 0.06106 0.0
C796 C 0.73843 0.40449 0.02453 0.0
C797 C 0.74295 0.4337 0.03658 0.0
C798 C 0.77566 0.38983 0.06018 0.0
C799 C 0.75397 0.38222 0.03722 0.0
C800 C 0.78025 0.4187 0.07192 0.0
C801 C 0.7737 0.5605 0.15645 0.0
C802 C 0.76844 0.53657 0.20225 0.0
C803 C 0.7749 0.5898 0.20292 0.0
C804 C 0.77722 0.58786 0.17253 0.0
C805 C 0.76953 0.56431 0.21789 0.0
C806 C 0.77021 0.53465 0.17149 0.0
C807 C 0.77014 0.56056 0.12414 0.0
O808 O 0.78133 0.54426 0.03626 0.0
O809 O 0.73353 0.53907 0.0399 0.0
O810 O 0.79246 0.55297 0.10913 0.0
O811 O 0.74438 0.55014 0.11181 0.0
H812 H 0.76079 0.59623 0.06724 0.0
H813 H 0.75366 0.64803 0.06066 0.0
H814 H 0.73591 0.62764 0.96691 0.0
H815 H 0.74312 0.57549 0.97384 0.0
H816 H 0.7218 0.39914 0.00655 0.0
H817 H 0.72977 0.45048 0.02773 0.0
H818 H 0.7884 0.37323 0.06997 0.0
H819 H 0.79611 0.42365 0.09065 0.0
H820 H 0.76417 0.51663 0.21342 0.0
H821 H 0.77597 0.61138 0.21457 0.0
H822 H 0.78004 0.608 0.16131 0.0
H823 H 0.76741 0.51329 0.15938 0.0
C824 C 0.25942 0.07171 0.55079 0.0
C825 C 0.25817 0.08574 0.52428 0.0
C826 C 0.26871 0.1335 0.55114 0.0
C827 C 0.26274 0.1163 0.52444 0.0
C828 C 0.27007 0.11936 0.57774 0.0
C829 C 0.26543 0.08864 0.57754 0.0
U830 U 0.24465 0.00141 0.50421 0.0
O831 O 0.26606 0.95974 0.5026 0.0
O832 O 0.21893 0.95975 0.51019 0.0
C833 C 0.24234 0.94431 0.50918 0.0
C834 C 0.25504 0.03944 0.54993 0.0
C835 C 0.24737 0.92461 0.53296 0.0
C836 C 0.27316 0.91488 0.5792 0.0
C837 C 0.26395 0.9348 0.55906 0.0
C838 C 0.24724 0.87473 0.54859 0.0
C839 C 0.26589 0.8845 0.57357 0.0
C840 C 0.23829 0.89463 0.52827 0.0
C841 C 0.23924 0.01293 0.42083 0.0
C842 C 0.24429 0.97507 0.38175 0.0
C843 C 0.24346 0.0263 0.37055 0.0
C844 C 0.23969 0.03428 0.40007 0.0
C845 C 0.24634 0.99675 0.36128 0.0
C846 C 0.24111 0.98316 0.41152 0.0
C847 C 0.24079 0.02295 0.45217 0.0
O848 O 0.22834 0.0286 0.54064 0.0
O849 O 0.27588 0.02544 0.53754 0.0
O850 O 0.26587 0.0189 0.46672 0.0
O851 O 0.21758 0.01679 0.46697 0.0
H852 H 0.25368 0.07298 0.50339 0.0
H853 H 0.26157 0.12642 0.50358 0.0
H854 H 0.27453 0.13202 0.59868 0.0
H855 H 0.26656 0.07813 0.59819 0.0
H856 H 0.28704 0.92318 0.59855 0.0
H857 H 0.27092 0.95796 0.56319 0.0
H858 H 0.2397 0.8518 0.54453 0.0
H859 H 0.22508 0.88648 0.50843 0.0
H860 H 0.24641 0.95212 0.37493 0.0
H861 H 0.24453 0.04327 0.355 0.0
H862 H 0.23834 0.05735 0.40693 0.0
H863 H 0.24112 0.96644 0.42737 0.0
C864 C 0.30315 0.92492 0.96879 0.0
C865 C 0.29813 0.90473 0.94407 0.0
C866 C 0.30108 0.86365 0.9757 0.0
C867 C 0.29714 0.87432 0.94749 0.0
C868 C 0.30603 0.88401 0.00032 0.0
C869 C 0.30707 0.91432 0.99686 0.0
U870 U 0.29778 0.99317 0.92359 0.0
O871 O 0.32286 0.03649 0.92924 0.0
O872 O 0.27473 0.03335 0.93303 0.0
C873 C 0.29897 0.05062 0.93313 0.0
C874 C 0.30382 0.95706 0.96604 0.0
C875 C 0.30137 0.07821 0.95196 0.0
C876 C 0.29867 0.1069 0.99841 0.0
C877 C 0.29867 0.07945 0.98251 0.0
C878 C 0.30387 0.13165 0.95342 0.0
C879 C 0.30123 0.13328 0.98394 0.0
C880 C 0.30421 0.10444 0.93773 0.0
C881 C 0.28166 0.98 0.83846 0.0
C882 C 0.2649 0.015 0.80376 0.0
C883 C 0.26737 0.96365 0.78742 0.0
C884 C 0.27824 0.95772 0.81562 0.0
C885 C 0.25993 0.99217 0.78126 0.0
C886 C 0.27557 0.00893 0.83228 0.0
C887 C 0.28835 0.97124 0.86869 0.0
O888 O 0.32623 0.96877 0.95304 0.0
O889 O 0.27856 0.9674 0.95766 0.0
O890 O 0.26737 0.97434 0.88685 0.0
O891 O 0.31488 0.9786 0.88115 0.0
H892 H 0.29492 0.91249 0.92219 0.0
H893 H 0.29324 0.85921 0.92808 0.0
H894 H 0.30917 0.87658 0.02234 0.0
H895 H 0.31087 0.92953 0.01621 0.0
H896 H 0.29644 0.10749 0.02196 0.0
H897 H 0.29616 0.0594 0.99388 0.0
H898 H 0.30451 0.15119 0.9413 0.0
H899 H 0.3058 0.10386 0.91407 0.0
H900 H 0.25907 0.03713 0.79981 0.0
H901 H 0.2641 0.94566 0.77054 0.0
H902 H 0.28285 0.93529 0.81991 0.0
H903 H 0.27795 0.02648 0.84965 0.0
C904 C 0.44919 0.69125 0.39524 0.0
C905 C 0.47163 0.69234 0.37575 0.0
C906 C 0.43459 0.68859 0.33435 0.0
C907 C 0.46434 0.69093 0.34538 0.0
C908 C 0.41228 0.68793 0.35414 0.0
C909 C 0.41958 0.68911 0.38436 0.0
U910 U 0.48533 0.69358 0.47792 0.0
O911 O 0.46434 0.66532 0.50893 0.0
O912 O 0.45963 0.71304 0.51241 0.0
C913 C 0.45409 0.68771 0.52375 0.0
C914 C 0.45525 0.69118 0.42703 0.0
C915 C 0.45868 0.68832 0.55576 0.0
C916 C 0.43794 0.69091 0.60332 0.0
C917 C 0.43424 0.69011 0.57268 0.0
C918 C 0.49074 0.68835 0.60029 0.0
C919 C 0.46622 0.68991 0.61742 0.0
C920 C 0.48698 0.68759 0.56959 0.0
C921 C 0.57146 0.70992 0.47416 0.0
C922 C 0.62354 0.72456 0.48462 0.0
C923 C 0.60128 0.72618 0.4351 0.0
C924 C 0.57399 0.7157 0.44453 0.0
C925 C 0.6263 0.73107 0.4552 0.0
C926 C 0.59652 0.71389 0.49388 0.0
C927 C 0.54291 0.70302 0.48649 0.0
O928 O 0.4664 0.66792 0.43787 0.0
O929 O 0.4629 0.71621 0.44244 0.0
O930 O 0.52979 0.67654 0.48059 0.0
O931 O 0.52455 0.72413 0.4872 0.0
H932 H 0.49458 0.69405 0.38396 0.0
H933 H 0.48195 0.69184 0.33054 0.0
H934 H 0.38921 0.68609 0.3463 0.0
H935 H 0.40203 0.6881 0.3993 0.0
H936 H 0.41862 0.69218 0.61589 0.0
H937 H 0.41226 0.69086 0.56219 0.0
H938 H 0.51278 0.68755 0.61055 0.0
H939 H 0.50607 0.68637 0.55667 0.0
H940 H 0.64179 0.72912 0.50098 0.0
H941 H 0.6027 0.73094 0.41224 0.0
H942 H 0.55481 0.71294 0.42899 0.0
H943 H 0.59493 0.70996 0.51694 0.0
C944 C 0.96926 0.30216 0.92981 0.0
C945 C 0.94477 0.297 0.90936 0.0
C946 C 0.97684 0.29957 0.86867 0.0
C947 C 0.94851 0.29575 0.87906 0.0
C948 C 0.00131 0.30465 0.88929 0.0
C949 C 0.99753 0.30593 0.91958 0.0
U950 U 0.91989 0.29727 0.99387 0.0
O951 O 0.92186 0.32173 0.03736 0.0
O952 O 0.92477 0.27368 0.03423 0.0
C953 C 0.92503 0.29785 0.05164 0.0
C954 C 0.96557 0.30308 0.96176 0.0
C955 C 0.94635 0.30031 0.07739 0.0
C956 C 0.99603 0.30052 0.10021 0.0
C957 C 0.9768 0.29941 0.07482 0.0
C958 C 0.95451 0.30296 0.13066 0.0
C959 C 0.98506 0.30256 0.12842 0.0
C960 C 0.9354 0.30214 0.10539 0.0
C961 C 0.83624 0.28111 0.97445 0.0
C962 C 0.80042 0.2642 0.00819 0.0
C963 C 0.78651 0.26391 0.95596 0.0
C964 C 0.81457 0.27598 0.95113 0.0
C965 C 0.77936 0.25714 0.98434 0.0
C966 C 0.82888 0.27586 0.00323 0.0
C967 C 0.86685 0.28821 0.96723 0.0
O968 O 0.95205 0.32561 0.9726 0.0
O969 O 0.95633 0.27793 0.97167 0.0
O970 O 0.88488 0.26723 0.97124 0.0
O971 O 0.8788 0.31466 0.97578 0.0
H972 H 0.92277 0.2939 0.91685 0.0
H973 H 0.9292 0.29178 0.8638 0.0
H974 H 0.02341 0.30773 0.88205 0.0
H975 H 0.0167 0.30984 0.93503 0.0
H976 H 0.01949 0.29988 0.09776 0.0
H977 H 0.98561 0.29767 0.05332 0.0
H978 H 0.94509 0.30295 0.15175 0.0
H979 H 0.91188 0.30235 0.10772 0.0
H980 H 0.79545 0.25922 0.03032 0.0
H981 H 0.77056 0.25915 0.9373 0.0
H982 H 0.8198 0.28 0.92883 0.0
H983 H 0.84539 0.27961 0.02155 0.0
C984 C 0.03287 0.75663 0.59526 0.0
C985 C 0.05576 0.75895 0.61743 0.0
C986 C 0.0203 0.74767 0.65359 0.0
C987 C 0.04948 0.75459 0.64651 0.0
C988 C 0.99744 0.74587 0.6312 0.0
C989 C 0.00373 0.75036 0.60227 0.0
U990 U 0.06998 0.76357 0.5189 0.0
O991 O 0.04892 0.73536 0.48159 0.0
O992 O 0.04652 0.78342 0.48217 0.0
C993 C 0.03928 0.75769 0.46793 0.0
C994 C 0.03827 0.75855 0.56426 0.0
C995 C 0.0406 0.75563 0.43594 0.0
C996 C 0.01605 0.73926 0.38842 0.0
C997 C 0.01635 0.74158 0.41904 0.0
C998 C 0.06464 0.7648 0.39125 0.0
C999 C 0.0401 0.75101 0.37418 0.0
C1000 C 0.06491 0.7671 0.42204 0.0
C1001 C 0.15717 0.77268 0.53664 0.0
C1002 C 0.21028 0.77506 0.5327 0.0
C1003 C 0.1902 0.76477 0.57913 0.0
C1004 C 0.16152 0.76723 0.56653 0.0
C1005 C 0.21477 0.76792 0.56205 0.0
C1006 C 0.18178 0.77729 0.52014 0.0
C1007 C 0.12784 0.77031 0.52057 0.0
O1008 O 0.04639 0.78427 0.55476 0.0
O1009 O 0.04973 0.73605 0.55083 0.0
O1010 O 0.11102 0.7927 0.52264 0.0
O1011 O 0.11306 0.74445 0.51867 0.0
H1012 H 0.07837 0.76359 0.61218 0.0
H1013 H 0.06754 0.7561 0.66334 0.0
H1014 H 0.97477 0.74062 0.6359 0.0
H1015 H 0.98584 0.74835 0.58519 0.0
H1016 H 0.99686 0.72843 0.37598 0.0
H1017 H 0.99747 0.7325 0.42957 0.0
H1018 H 0.08351 0.774 0.38084 0.0
H1019 H 0.08387 0.77788 0.43491 0.0
H1020 H 0.22863 0.7771 0.51884 0.0
H1021 H 0.19313 0.75948 0.60192 0.0
H1022 H 0.14281 0.76368 0.57967 0.0
H1023 H 0.17888 0.78123 0.49696 0.0
C1024 C 0.55067 0.25932 0.07234 0.0
C1025 C 0.52415 0.25808 0.08635 0.0
C1026 C 0.55103 0.26854 0.13413 0.0
C1027 C 0.52431 0.26262 0.11691 0.0
C1028 C 0.57764 0.26991 0.12001 0.0
C1029 C 0.57744 0.2653 0.08927 0.0
U1030 U 0.50413 0.24432 0.00198 0.0
O1031 O 0.50262 0.26546 0.96022 0.0
O1032 O 0.51022 0.21833 0.96046 0.0
C1033 C 0.50916 0.24161 0.94491 0.0
C1034 C 0.54981 0.25488 0.04007 0.0
C1035 C 0.53273 0.24633 0.92494 0.0
C1036 C 0.57805 0.27285 0.91378 0.0
C1037 C 0.55848 0.26388 0.93431 0.0
C1038 C 0.54772 0.24463 0.87484 0.0
C1039 C 0.57212 0.26436 0.88368 0.0
C1040 C 0.52797 0.23594 0.89531 0.0
C1041 C 0.42064 0.23855 0.01257 0.0
C1042 C 0.38196 0.2433 0.97412 0.0
C1043 C 0.37003 0.2424 0.02512 0.0
C1044 C 0.39952 0.23882 0.03355 0.0
C1045 C 0.36112 0.2453 0.99547 0.0
C1046 C 0.41171 0.24029 0.98267 0.0
C1047 C 0.4519 0.24038 0.0231 0.0
O1048 O 0.54062 0.22816 0.02926 0.0
O1049 O 0.53733 0.27565 0.02606 0.0
O1050 O 0.46635 0.26548 0.01914 0.0
O1051 O 0.46696 0.21725 0.01729 0.0
H1052 H 0.50325 0.2536 0.07357 0.0
H1053 H 0.50344 0.26144 0.12703 0.0
H1054 H 0.59859 0.27435 0.13268 0.0
H1055 H 0.59811 0.26642 0.07877 0.0
H1056 H 0.59704 0.28757 0.92132 0.0
H1057 H 0.56268 0.27182 0.95723 0.0
H1058 H 0.54364 0.23614 0.85216 0.0
H1059 H 0.50844 0.22195 0.88782 0.0
H1060 H 0.37548 0.24548 0.9511 0.0
H1061 H 0.35424 0.24344 0.04187 0.0
H1062 H 0.40606 0.23755 0.05671 0.0
H1063 H 0.42784 0.24041 0.96622 0.0
C1064 C 0.39512 0.44892 0.69152 0.0
C1065 C 0.3756 0.47138 0.69256 0.0
C1066 C 0.33421 0.43443 0.68882 0.0
C1067 C 0.34521 0.46414 0.69113 0.0
C1068 C 0.35402 0.4121 0.68822 0.0
C1069 C 0.38426 0.41935 0.68942 0.0
U1070 U 0.47771 0.48511 0.6939 0.0
O1071 O 0.50883 0.46415 0.66564 0.0
O1072 O 0.51235 0.45954 0.71336 0.0
C1073 C 0.5237 0.45396 0.68803 0.0
C1074 C 0.42692 0.45494 0.69146 0.0
C1075 C 0.55572 0.45855 0.68864 0.0
C1076 C 0.60338 0.43784 0.69141 0.0
C1077 C 0.57273 0.43415 0.69062 0.0
C1078 C 0.6002 0.49055 0.68849 0.0
C1079 C 0.61741 0.46607 0.69024 0.0
C1080 C 0.56949 0.4868 0.68772 0.0
C1081 C 0.47377 0.57125 0.71023 0.0
C1082 C 0.4843 0.62329 0.72487 0.0
C1083 C 0.43472 0.60125 0.72643 0.0
C1084 C 0.44412 0.5739 0.71597 0.0
C1085 C 0.45486 0.62618 0.73134 0.0
C1086 C 0.49354 0.59624 0.71422 0.0
C1087 C 0.48609 0.54267 0.70335 0.0
O1088 O 0.43772 0.46607 0.6682 0.0
O1089 O 0.44231 0.46265 0.71649 0.0
O1090 O 0.48021 0.5295 0.67686 0.0
O1091 O 0.48683 0.52436 0.72446 0.0
H1092 H 0.3838 0.49431 0.69424 0.0
H1093 H 0.33035 0.48177 0.69199 0.0
H1094 H 0.34619 0.38906 0.6864 0.0
H1095 H 0.39923 0.40178 0.68845 0.0
H1096 H 0.61601 0.41856 0.69283 0.0
H1097 H 0.56228 0.41221 0.69151 0.0
H1098 H 0.61042 0.51255 0.68754 0.0
H1099 H 0.55651 0.50586 0.68636 0.0
H1100 H 0.50069 0.64148 0.72944 0.0
H1101 H 0.41184 0.60276 0.73116 0.0
H1102 H 0.42855 0.55479 0.71319 0.0
H1103 H 0.51662 0.59454 0.71032 0.0
C1104 C 0.92963 0.96953 0.30248 0.0
C1105 C 0.90928 0.945 0.29733 0.0
C1106 C 0.86843 0.97694 0.29996 0.0
C1107 C 0.87895 0.94866 0.29611 0.0
C1108 C 0.88895 0.00145 0.30502 0.0
C1109 C 0.91928 0.99775 0.30627 0.0
U1110 U 0.99358 0.92011 0.29741 0.0
O1111 O 0.03709 0.9218 0.32189 0.0
O1112 O 0.03398 0.92474 0.27385 0.0
C1113 C 0.05139 0.92492 0.29803 0.0
C1114 C 0.9616 0.96589 0.30338 0.0
C1115 C 0.07716 0.94617 0.30055 0.0
C1116 C 0.09995 0.99578 0.3008 0.0
C1117 C 0.07456 0.9766 0.29966 0.0
C1118 C 0.13046 0.95424 0.30326 0.0
C1119 C 0.12819 0.98478 0.30285 0.0
C1120 C 0.10519 0.93519 0.30241 0.0
C1121 C 0.9752 0.83689 0.28129 0.0
C1122 C 0.0105 0.80257 0.26461 0.0
C1123 C 0.95901 0.78613 0.26582 0.0
C1124 C 0.95285 0.81419 0.27701 0.0
C1125 C 0.98775 0.78014 0.25892 0.0
C1126 C 0.00426 0.83081 0.27566 0.0
C1127 C 0.96695 0.86716 0.28824 0.0
O1128 O 0.97246 0.95235 0.32587 0.0
O1129 O 0.9715 0.95666 0.2782 0.0
O1130 O 0.97083 0.88521 0.26731 0.0
O1131 O 0.97524 0.87921 0.31472 0.0
H1132 H 0.91688 0.92303 0.29422 0.0
H1133 H 0.86377 0.92932 0.29215 0.0
H1134 H 0.8816 0.02352 0.30811 0.0
H1135 H 0.93467 0.01694 0.31017 0.0
H1136 H 0.09747 0.01922 0.30016 0.0
H1137 H 0.05303 0.98543 0.2979 0.0
H1138 H 0.15158 0.9448 0.30327 0.0
H1139 H 0.10754 0.91168 0.30261 0.0
H1140 H 0.03277 0.79882 0.25907 0.0
H1141 H 0.94107 0.76926 0.26194 0.0
H1142 H 0.93031 0.81848 0.28121 0.0
H1143 H 0.0218 0.84816 0.27865 0.0
C1144 C 0.59358 0.0255 0.75327 0.0
C1145 C 0.61416 0.04982 0.75627 0.0
C1146 C 0.6532 0.01752 0.74526 0.0
C1147 C 0.64385 0.04583 0.75233 0.0
C1148 C 0.63237 0.99324 0.74251 0.0
C1149 C 0.60279 0.99726 0.7465 0.0
U1150 U 0.52188 0.06669 0.76302 0.0
O1151 O 0.48113 0.05212 0.73629 0.0
O1152 O 0.48306 0.04933 0.78452 0.0
C1153 C 0.46767 0.04348 0.75914 0.0
C1154 C 0.56217 0.02874 0.75568 0.0
C1155 C 0.4357 0.04482 0.75808 0.0
C1156 C 0.38804 0.01858 0.74639 0.0
C1157 C 0.41866 0.01894 0.74847 0.0
C1158 C 0.39108 0.07027 0.7636 0.0
C1159 C 0.37389 0.04421 0.75397 0.0
C1160 C 0.42194 0.0706 0.76562 0.0
C1161 C 0.54305 0.15529 0.77349 0.0
C1162 C 0.5287 0.2054 0.7687 0.0
C1163 C 0.58042 0.19589 0.77451 0.0
C1164 C 0.57273 0.16593 0.77675 0.0
C1165 C 0.5585 0.2157 0.76968 0.0
C1166 C 0.52103 0.17527 0.77018 0.0
C1167 C 0.53543 0.12332 0.76971 0.0
O1168 O 0.5538 0.03743 0.78172 0.0
O1169 O 0.54863 0.04106 0.73385 0.0
O1170 O 0.52932 0.10953 0.74358 0.0
O1171 O 0.53417 0.10683 0.79232 0.0
H1172 H 0.60721 0.07178 0.7613 0.0
H1173 H 0.65941 0.06495 0.75452 0.0
H1174 H 0.63884 0.97118 0.73704 0.0
H1175 H 0.58697 0.97831 0.74395 0.0
H1176 H 0.37553 -0.00184 0.7389 0.0
H1177 H 0.4291 -0.00113 0.74247 0.0
H1178 H 0.38073 0.09036 0.76954 0.0
H1179 H 0.43494 0.09078 0.77294 0.0
H1180 H 0.51144 0.22028 0.76477 0.0
H1181 H 0.60353 0.20342 0.77547 0.0
H1182 H 0.59002 0.15083 0.77933 0.0
H1183 H 0.49799 0.16741 0.76746 0.0
C1184 C 0.07225 0.55051 0.25955 0.0
C1185 C 0.08632 0.524 0.25833 0.0
C1186 C 0.13407 0.55087 0.26878 0.0
C1187 C 0.11691 0.52416 0.26288 0.0
C1188 C 0.11988 0.57747 0.27015 0.0
C1189 C 0.08913 0.57727 0.26553 0.0
U1190 U 0.00213 0.50383 0.24469 0.0
O1191 O 0.96034 0.50235 0.26581 0.0
O1192 O 0.96054 0.50961 0.21861 0.0
C1193 C 0.94501 0.50878 0.24191 0.0
C1194 C 0.03997 0.54962 0.25507 0.0
C1195 C 0.92511 0.53247 0.24651 0.0
C1196 C 0.91386 0.57781 0.27307 0.0
C1197 C 0.9344 0.55809 0.26432 0.0
C1198 C 0.87514 0.54797 0.24402 0.0
C1199 C 0.88382 0.57218 0.26405 0.0
C1200 C 0.89559 0.52804 0.23561 0.0
C1201 C 0.01355 0.42047 0.23953 0.0
C1202 C 0.97548 0.3816 0.24448 0.0
C1203 C 0.02668 0.37006 0.24367 0.0
C1204 C 0.0348 0.39956 0.23995 0.0
C1205 C 0.99708 0.36098 0.24651 0.0
C1206 C 0.98372 0.41135 0.24135 0.0
C1207 C 0.02371 0.45176 0.24111 0.0
O1208 O 0.0292 0.54025 0.22838 0.0
O1209 O 0.02599 0.53728 0.27589 0.0
O1210 O 0.01959 0.46637 0.26612 0.0
O1211 O 0.0177 0.46655 0.21786 0.0
H1212 H 0.07359 0.50311 0.25386 0.0
H1213 H 0.12708 0.5033 0.26171 0.0
H1214 H 0.13252 0.59841 0.27457 0.0
H1215 H 0.07856 0.59792 0.26664 0.0
H1216 H 0.9213 0.59667 0.288 0.0
H1217 H 0.95725 0.56207 0.27261 0.0
H1218 H 0.85257 0.54419 0.23505 0.0
H1219 H 0.88817 0.50864 0.22139 0.0
H1220 H 0.9525 0.37494 0.24657 0.0
H1221 H 0.04358 0.3544 0.24473 0.0
H1222 H 0.0579 0.40627 0.23863 0.0
H1223 H 0.96706 0.42731 0.24137 0.0
loop_
_geom_bond_atom_site_label_1
_geom_bond_atom_site_label_2
_geom_bond_distance
_geom_bond_site_symmetry_2
_ccdc_geom_bond_type
O0 Cd1 2.300 . S
O0 C7 1.275 . S
Cd1 O0 2.300 . S
Cd1 O9 2.381 . S
Cd1 O10 2.378 . S
O2 Cd3 2.385 . S
O2 C7 1.255 . S
Cd3 O2 2.385 . S
Cd3 O4 2.317 . S
O4 Cd3 2.317 . S
O4 C5 1.232 . S
C5 O4 1.232 . S
C5 O6 1.218 . S
O6 C5 1.218 . S
C7 O0 1.275 . S
C7 O2 1.255 . S
C8 O9 1.258 . S
C8 O10 1.256 . S
O9 Cd1 2.381 . S
O9 C8 1.258 . S
O10 Cd1 2.378 . S
O10 C8 1.256 . S
O11 Cd12 2.300 . S
O11 C18 1.275 . S
Cd12 O11 2.300 . S
Cd12 O20 2.381 . S
Cd12 O21 2.378 . S
O13 Cd14 2.385 . S
O13 C18 1.255 . S
Cd14 O13 2.385 . S
Cd14 O15 2.317 . S
O15 Cd14 2.317 . S
O15 C16 1.232 . S
C16 O15 1.232 . S
C16 O17 1.218 . S
O17 C16 1.218 . S
C18 O11 1.275 . S
C18 O13 1.255 . S
C19 O20 1.258 . S
C19 O21 1.256 . S
O20 Cd12 2.381 . S
O20 C19 1.258 . S
O21 Cd12 2.378 . S
O21 C19 1.256 . S
O22 Cd23 2.300 . S
O22 C29 1.275 . S
Cd23 O22 2.300 . S
Cd23 O31 2.381 1_565 S
Cd23 O32 2.378 . S
O24 Cd25 2.385 . S
O24 C29 1.255 . S
Cd25 O24 2.385 . S
Cd25 O26 2.317 . S
O26 Cd25 2.317 . S
O26 C27 1.232 . S
C27 O26 1.232 . S
C27 O28 1.218 . S
O28 C27 1.218 . S
C29 O22 1.275 . S
C29 O24 1.255 . S
C30 O31 1.258 . S
C30 O32 1.256 1_545 S
O31 Cd23 2.381 1_545 S
O31 C30 1.258 . S
O32 Cd23 2.378 . S
O32 C30 1.256 1_565 S
O33 Cd34 2.300 . S
O33 C40 1.275 . S
Cd34 O33 2.300 . S
Cd34 O42 2.381 1_545 S
Cd34 O43 2.378 . S
O35 Cd36 2.385 . S
O35 C40 1.255 . S
Cd36 O35 2.385 . S
Cd36 O37 2.317 . S
O37 Cd36 2.317 . S
O37 C38 1.232 . S
C38 O37 1.232 . S
C38 O39 1.218 . S
O39 C38 1.218 . S
C40 O33 1.275 . S
C40 O35 1.255 . S
C41 O42 1.258 . S
C41 O43 1.256 1_565 S
O42 Cd34 2.381 1_565 S
O42 C41 1.258 . S
O43 Cd34 2.378 . S
O43 C41 1.256 1_545 S
O44 Cd45 2.300 . S
O44 C51 1.275 . S
Cd45 O44 2.300 . S
Cd45 O53 2.381 . S
Cd45 O54 2.378 . S
O46 Cd47 2.385 . S
O46 C51 1.255 . S
Cd47 O46 2.385 . S
Cd47 O48 2.317 . S
O48 Cd47 2.317 . S
O48 C49 1.232 . S
C49 O48 1.232 . S
C49 O50 1.218 . S
O50 C49 1.218 . S
C51 O44 1.275 . S
C51 O46 1.255 . S
C52 O53 1.258 . S
C52 O54 1.256 . S
O53 Cd45 2.381 . S
O53 C52 1.258 . S
O54 Cd45 2.378 . S
O54 C52 1.256 . S
O55 Cd56 2.300 . S
O55 C62 1.275 . S
Cd56 O55 2.300 . S
Cd56 O64 2.381 1_554 S
Cd56 O65 2.378 . S
O57 Cd58 2.385 . S
O57 C62 1.255 . S
Cd58 O57 2.385 . S
Cd58 O59 2.317 . S
O59 Cd58 2.317 . S
O59 C60 1.232 . S
C60 O59 1.232 . S
C60 O61 1.218 . S
O61 C60 1.218 . S
C62 O55 1.275 . S
C62 O57 1.255 . S
C63 O64 1.258 . S
C63 O65 1.256 1_556 S
O64 Cd56 2.381 1_556 S
O64 C63 1.258 . S
O65 Cd56 2.378 . S
O65 C63 1.256 1_554 S
O66 Cd67 2.300 . S
O66 C73 1.275 . S
Cd67 O66 2.300 . S
Cd67 O75 2.381 . S
Cd67 O76 2.378 . S
O68 Cd69 2.385 . S
O68 C73 1.255 . S
Cd69 O68 2.385 . S
Cd69 O70 2.317 . S
O70 Cd69 2.317 . S
O70 C71 1.232 . S
C71 O70 1.232 . S
C71 O72 1.218 . S
O72 C71 1.218 . S
C73 O66 1.275 . S
C73 O68 1.255 . S
C74 O75 1.258 . S
C74 O76 1.256 . S
O75 Cd67 2.381 . S
O75 C74 1.258 . S
O76 Cd67 2.378 . S
O76 C74 1.256 . S
O77 Cd78 2.300 . S
O77 C84 1.275 . S
Cd78 O77 2.300 . S
Cd78 O86 2.381 1_556 S
Cd78 O87 2.378 . S
O79 Cd80 2.385 . S
O79 C84 1.255 . S
Cd80 O79 2.385 . S
Cd80 O81 2.317 . S
O81 Cd80 2.317 . S
O81 C82 1.232 . S
C82 O81 1.232 . S
C82 O83 1.218 . S
O83 C82 1.218 . S
C84 O77 1.275 . S
C84 O79 1.255 . S
C85 O86 1.258 . S
C85 O87 1.256 1_554 S
O86 Cd78 2.381 1_554 S
O86 C85 1.258 . S
O87 Cd78 2.378 . S
O87 C85 1.256 1_556 S
O88 Cd89 2.300 . S
O88 C95 1.275 . S
Cd89 O88 2.300 . S
Cd89 O97 2.381 . S
Cd89 O98 2.378 . S
O90 Cd91 2.385 . S
O90 C95 1.255 . S
Cd91 O90 2.385 . S
Cd91 O92 2.317 . S
O92 Cd91 2.317 . S
O92 C93 1.232 . S
C93 O92 1.232 . S
C93 O94 1.218 . S
O94 C93 1.218 . S
C95 O88 1.275 . S
C95 O90 1.255 . S
C96 O97 1.258 . S
C96 O98 1.256 . S
O97 Cd89 2.381 . S
O97 C96 1.258 . S
O98 Cd89 2.378 . S
O98 C96 1.256 . S
O99 Cd100 2.300 . S
O99 C106 1.275 . S
Cd100 O99 2.300 . S
Cd100 O108 2.381 1_455 S
Cd100 O109 2.378 . S
O101 Cd102 2.385 . S
O101 C106 1.255 . S
Cd102 O101 2.385 . S
Cd102 O103 2.317 . S
O103 Cd102 2.317 . S
O103 C104 1.232 . S
C104 O103 1.232 . S
C104 O105 1.218 . S
O105 C104 1.218 . S
C106 O99 1.275 . S
C106 O101 1.255 . S
C107 O108 1.258 . S
C107 O109 1.256 1_655 S
O108 Cd100 2.381 1_655 S
O108 C107 1.258 . S
O109 Cd100 2.378 . S
O109 C107 1.256 1_455 S
O110 Cd111 2.300 . S
O110 C117 1.275 . S
Cd111 O110 2.300 . S
Cd111 O119 2.381 . S
Cd111 O120 2.378 . S
O112 Cd113 2.385 . S
O112 C117 1.255 . S
Cd113 O112 2.385 . S
Cd113 O114 2.317 . S
O114 Cd113 2.317 . S
O114 C115 1.232 . S
C115 O114 1.232 . S
C115 O116 1.218 . S
O116 C115 1.218 . S
C117 O110 1.275 . S
C117 O112 1.255 . S
C118 O119 1.258 . S
C118 O120 1.256 . S
O119 Cd111 2.381 . S
O119 C118 1.258 . S
O120 Cd111 2.378 . S
O120 C118 1.256 . S
O121 Cd122 2.300 . S
O121 C128 1.275 . S
Cd122 O121 2.300 . S
Cd122 O130 2.381 1_655 S
Cd122 O131 2.378 . S
O123 Cd124 2.385 . S
O123 C128 1.255 . S
Cd124 O123 2.385 . S
Cd124 O125 2.317 . S
O125 Cd124 2.317 . S
O125 C126 1.232 . S
C126 O125 1.232 . S
C126 O127 1.218 . S
O127 C126 1.218 . S
C128 O121 1.275 . S
C128 O123 1.255 . S
C129 O130 1.258 . S
C129 O131 1.256 1_455 S
O130 Cd122 2.381 1_455 S
O130 C129 1.258 . S
O131 Cd122 2.378 . S
O131 C129 1.256 1_655 S
O132 Cd133 2.300 . S
O132 C139 1.275 . S
Cd133 O132 2.300 . S
Cd133 O141 2.381 . S
Cd133 O142 2.378 . S
O134 Cd135 2.385 . S
O134 C139 1.255 . S
Cd135 O134 2.385 . S
Cd135 O136 2.317 . S
O136 Cd135 2.317 . S
O136 C137 1.232 . S
C137 O136 1.232 . S
C137 O138 1.218 . S
O138 C137 1.218 . S
C139 O132 1.275 . S
C139 O134 1.255 . S
C140 O141 1.258 . S
C140 O142 1.256 . S
O141 Cd133 2.381 . S
O141 C140 1.258 . S
O142 Cd133 2.378 . S
O142 C140 1.256 . S
O143 Cd144 2.300 . S
O143 C150 1.275 . S
Cd144 O143 2.300 . S
Cd144 O152 2.381 . S
Cd144 O153 2.378 . S
O145 Cd146 2.385 . S
O145 C150 1.255 . S
Cd146 O145 2.385 . S
Cd146 O147 2.317 . S
O147 Cd146 2.317 . S
O147 C148 1.232 . S
C148 O147 1.232 . S
C148 O149 1.218 . S
O149 C148 1.218 . S
C150 O143 1.275 . S
C150 O145 1.255 . S
C151 O152 1.258 . S
C151 O153 1.256 . S
O152 Cd144 2.381 . S
O152 C151 1.258 . S
O153 Cd144 2.378 . S
O153 C151 1.256 . S
O154 Cd155 2.300 1_545 S
O154 C161 1.275 . S
Cd155 O154 2.300 1_565 S
Cd155 O163 2.381 1_565 S
Cd155 O164 2.378 . S
O156 Cd157 2.385 . S
O156 C161 1.255 1_565 S
Cd157 O156 2.385 . S
Cd157 O158 2.317 . S
O158 Cd157 2.317 . S
O158 C159 1.232 . S
C159 O158 1.232 . S
C159 O160 1.218 . S
O160 C159 1.218 . S
C161 O154 1.275 . S
C161 O156 1.255 1_545 S
C162 O163 1.258 1_565 S
C162 O164 1.256 . S
O163 Cd155 2.381 1_545 S
O163 C162 1.258 1_545 S
O164 Cd155 2.378 . S
O164 C162 1.256 . S
O165 Cd166 2.300 1_565 S
O165 C172 1.275 . S
Cd166 O165 2.300 1_545 S
Cd166 O174 2.381 1_545 S
Cd166 O175 2.378 . S
O167 Cd168 2.385 . S
O167 C172 1.255 1_545 S
Cd168 O167 2.385 . S
Cd168 O169 2.317 . S
O169 Cd168 2.317 . S
O169 C170 1.232 . S
C170 O169 1.232 . S
C170 O171 1.218 . S
O171 C170 1.218 . S
C172 O165 1.275 . S
C172 O167 1.255 1_565 S
C173 O174 1.258 1_545 S
C173 O175 1.256 . S
O174 Cd166 2.381 1_565 S
O174 C173 1.258 1_565 S
O175 Cd166 2.378 . S
O175 C173 1.256 . S
O176 Cd177 2.300 . S
O176 C183 1.275 . S
Cd177 O176 2.300 . S
Cd177 O185 2.381 . S
Cd177 O186 2.378 . S
O178 Cd179 2.385 . S
O178 C183 1.255 . S
Cd179 O178 2.385 . S
Cd179 O180 2.317 . S
O180 Cd179 2.317 . S
O180 C181 1.232 . S
C181 O180 1.232 . S
C181 O182 1.218 . S
O182 C181 1.218 . S
C183 O176 1.275 . S
C183 O178 1.255 . S
C184 O185 1.258 . S
C184 O186 1.256 . S
O185 Cd177 2.381 . S
O185 C184 1.258 . S
O186 Cd177 2.378 . S
O186 C184 1.256 . S
O187 Cd188 2.300 1_556 S
O187 C194 1.275 . S
Cd188 O187 2.300 1_554 S
Cd188 O196 2.381 1_554 S
Cd188 O197 2.378 . S
O189 Cd190 2.385 . S
O189 C194 1.255 1_554 S
Cd190 O189 2.385 . S
Cd190 O191 2.317 . S
O191 Cd190 2.317 . S
O191 C192 1.232 . S
C192 O191 1.232 . S
C192 O193 1.218 . S
O193 C192 1.218 . S
C194 O187 1.275 . S
C194 O189 1.255 1_556 S
C195 O196 1.258 1_554 S
C195 O197 1.256 . S
O196 Cd188 2.381 1_556 S
O196 C195 1.258 1_556 S
O197 Cd188 2.378 . S
O197 C195 1.256 . S
O198 Cd199 2.300 . S
O198 C205 1.275 . S
Cd199 O198 2.300 . S
Cd199 O207 2.381 . S
Cd199 O208 2.378 . S
O200 Cd201 2.385 . S
O200 C205 1.255 . S
Cd201 O200 2.385 . S
Cd201 O202 2.317 . S
O202 Cd201 2.317 . S
O202 C203 1.232 . S
C203 O202 1.232 . S
C203 O204 1.218 . S
O204 C203 1.218 . S
C205 O198 1.275 . S
C205 O200 1.255 . S
C206 O207 1.258 . S
C206 O208 1.256 . S
O207 Cd199 2.381 . S
O207 C206 1.258 . S
O208 Cd199 2.378 . S
O208 C206 1.256 . S
O209 Cd210 2.300 1_554 S
O209 C216 1.275 . S
Cd210 O209 2.300 1_556 S
Cd210 O218 2.381 1_556 S
Cd210 O219 2.378 . S
O211 Cd212 2.385 . S
O211 C216 1.255 1_556 S
Cd212 O211 2.385 . S
Cd212 O213 2.317 . S
O213 Cd212 2.317 . S
O213 C214 1.232 . S
C214 O213 1.232 . S
C214 O215 1.218 . S
O215 C214 1.218 . S
C216 O209 1.275 . S
C216 O211 1.255 1_554 S
C217 O218 1.258 1_556 S
C217 O219 1.256 . S
O218 Cd210 2.381 1_554 S
O218 C217 1.258 1_554 S
O219 Cd210 2.378 . S
O219 C217 1.256 . S
O220 Cd221 2.300 . S
O220 C227 1.275 . S
Cd221 O220 2.300 . S
Cd221 O229 2.381 . S
Cd221 O230 2.378 . S
O222 Cd223 2.385 . S
O222 C227 1.255 . S
Cd223 O222 2.385 . S
Cd223 O224 2.317 . S
O224 Cd223 2.317 . S
O224 C225 1.232 . S
C225 O224 1.232 . S
C225 O226 1.218 . S
O226 C225 1.218 . S
C227 O220 1.275 . S
C227 O222 1.255 . S
C228 O229 1.258 . S
C228 O230 1.256 . S
O229 Cd221 2.381 . S
O229 C228 1.258 . S
O230 Cd221 2.378 . S
O230 C228 1.256 . S
O231 Cd232 2.300 1_655 S
O231 C238 1.275 . S
Cd232 O231 2.300 1_455 S
Cd232 O240 2.381 1_455 S
Cd232 O241 2.378 . S
O233 Cd234 2.385 . S
O233 C238 1.255 1_455 S
Cd234 O233 2.385 . S
Cd234 O235 2.317 . S
O235 Cd234 2.317 . S
O235 C236 1.232 . S
C236 O235 1.232 . S
C236 O237 1.218 . S
O237 C236 1.218 . S
C238 O231 1.275 . S
C238 O233 1.255 1_655 S
C239 O240 1.258 1_455 S
C239 O241 1.256 . S
O240 Cd232 2.381 1_655 S
O240 C239 1.258 1_655 S
O241 Cd232 2.378 . S
O241 C239 1.256 . S
O242 Cd243 2.300 . S
O242 C249 1.275 . S
Cd243 O242 2.300 . S
Cd243 O251 2.381 . S
Cd243 O252 2.378 . S
O244 Cd245 2.385 . S
O244 C249 1.255 . S
Cd245 O244 2.385 . S
Cd245 O246 2.317 . S
O246 Cd245 2.317 . S
O246 C247 1.232 . S
C247 O246 1.232 . S
C247 O248 1.218 . S
O248 C247 1.218 . S
C249 O242 1.275 . S
C249 O244 1.255 . S
C250 O251 1.258 . S
C250 O252 1.256 . S
O251 Cd243 2.381 . S
O251 C250 1.258 . S
O252 Cd243 2.378 . S
O252 C250 1.256 . S
O253 Cd254 2.300 1_455 S
O253 C260 1.275 . S
Cd254 O253 2.300 1_655 S
Cd254 O262 2.381 1_655 S
Cd254 O263 2.378 . S
O255 Cd256 2.385 . S
O255 C260 1.255 1_655 S
Cd256 O255 2.385 . S
Cd256 O257 2.317 . S
O257 Cd256 2.317 . S
O257 C258 1.232 . S
C258 O257 1.232 . S
C258 O259 1.218 . S
O259 C258 1.218 . S
C260 O253 1.275 . S
C260 O255 1.255 1_455 S
C261 O262 1.258 1_655 S
C261 O263 1.256 . S
O262 Cd254 2.381 1_455 S
O262 C261 1.258 1_455 S
O263 Cd254 2.378 . S
O263 C261 1.256 . S
C264 C265 1.264 . S
C264 C269 1.479 . S
C264 C274 1.465 . S
C265 C264 1.264 . S
C265 C267 1.339 . S
C265 H292 0.931 . S
C266 C267 1.395 . S
C266 C268 1.320 . S
C267 C265 1.339 . S
C267 C266 1.395 . S
C267 H293 0.929 . S
C268 C266 1.320 . S
C268 C269 1.405 . S
C268 H294 0.930 . S
C269 C264 1.479 . S
C269 C268 1.405 . S
C269 H295 0.931 . S
U270 O271 2.454 . S
U270 O272 2.458 . S
U270 C273 2.984 . S
U270 C274 2.847 . S
U270 C287 2.882 . S
U270 O288 2.441 . S
U270 O289 2.420 . S
U270 O290 2.455 . S
U270 O291 2.449 . S
O271 U270 2.454 . S
O271 C273 1.353 . S
O272 U270 2.458 . S
O272 C273 1.286 . S
C273 U270 2.984 . S
C273 O271 1.353 . S
C273 O272 1.286 . S
C273 C275 1.363 . S
C274 C264 1.465 . S
C274 U270 2.847 . S
C274 O288 1.249 . S
C274 O289 1.202 . S
C275 C273 1.363 . S
C275 C277 1.408 . S
C275 C280 1.342 . S
C276 C277 1.310 . S
C276 C279 1.461 . S
C276 H296 0.932 . S
C277 C275 1.408 . S
C277 C276 1.310 . S
C277 H297 0.930 . S
C278 C279 1.474 . S
C278 C280 1.285 . S
C278 H298 0.929 . S
C279 C276 1.461 . S
C279 C278 1.474 . S
C280 C275 1.342 . S
C280 C278 1.285 . S
C280 H299 0.930 . S
C281 C284 1.424 . S
C281 C286 1.245 . S
C281 C287 1.428 . S
C282 C285 1.260 . S
C282 C286 1.477 . S
C282 H300 0.932 . S
C283 C284 1.384 . S
C283 C285 1.479 . S
C283 H301 0.929 . S
C284 C281 1.424 . S
C284 C283 1.384 . S
C284 H302 0.928 . S
C285 C282 1.260 . S
C285 C283 1.479 . S
C286 C281 1.245 . S
C286 C282 1.477 . S
C286 H303 0.932 . S
C287 U270 2.882 . S
C287 C281 1.428 . S
C287 O290 1.301 . S
C287 O291 1.282 . S
O288 U270 2.441 . S
O288 C274 1.249 . S
O289 U270 2.420 . S
O289 C274 1.202 . S
O290 U270 2.455 . S
O290 C287 1.301 . S
O291 U270 2.449 . S
O291 C287 1.282 . S
H292 C265 0.931 . S
H293 C267 0.929 . S
H294 C268 0.930 . S
H295 C269 0.931 . S
H296 C276 0.932 . S
H297 C277 0.930 . S
H298 C278 0.929 . S
H299 C280 0.930 . S
H300 C282 0.932 . S
H301 C283 0.929 . S
H302 C284 0.928 . S
H303 C286 0.932 . S
C304 C305 1.264 . S
C304 C309 1.479 1_556 S
C304 C314 1.465 . S
C305 C304 1.264 . S
C305 C307 1.339 . S
C305 H332 0.931 . S
C306 C307 1.395 1_554 S
C306 C308 1.320 . S
C307 C305 1.339 . S
C307 C306 1.395 1_556 S
C307 H333 0.929 . S
C308 C306 1.320 . S
C308 C309 1.405 . S
C308 H334 0.930 . S
C309 C304 1.479 1_554 S
C309 C308 1.405 . S
C309 H335 0.931 . S
U310 O311 2.454 . S
U310 O312 2.458 . S
U310 C313 2.984 . S
U310 C314 2.847 . S
U310 C327 2.882 . S
U310 O328 2.441 . S
U310 O329 2.420 . S
U310 O330 2.455 . S
U310 O331 2.449 . S
O311 U310 2.454 . S
O311 C313 1.353 . S
O312 U310 2.458 . S
O312 C313 1.286 . S
C313 U310 2.984 . S
C313 O311 1.353 . S
C313 O312 1.286 . S
C313 C315 1.363 . S
C314 C304 1.465 . S
C314 U310 2.847 . S
C314 O328 1.249 . S
C314 O329 1.202 . S
C315 C313 1.363 . S
C315 C317 1.408 . S
C315 C320 1.342 . S
C316 C317 1.310 1_554 S
C316 C319 1.461 1_554 S
C316 H336 0.932 . S
C317 C315 1.408 . S
C317 C316 1.310 1_556 S
C317 H337 0.930 1_556 S
C318 C319 1.474 . S
C318 C320 1.285 . S
C318 H338 0.929 . S
C319 C316 1.461 1_556 S
C319 C318 1.474 . S
C320 C315 1.342 . S
C320 C318 1.285 . S
C320 H339 0.930 . S
C321 C324 1.424 . S
C321 C326 1.245 . S
C321 C327 1.428 . S
C322 C325 1.260 . S
C322 C326 1.477 . S
C322 H340 0.932 . S
C323 C324 1.384 . S
C323 C325 1.479 . S
C323 H341 0.929 . S
C324 C321 1.424 . S
C324 C323 1.384 . S
C324 H342 0.928 . S
C325 C322 1.260 . S
C325 C323 1.479 . S
C326 C321 1.245 . S
C326 C322 1.477 . S
C326 H343 0.932 . S
C327 U310 2.882 . S
C327 C321 1.428 . S
C327 O330 1.301 . S
C327 O331 1.282 . S
O328 U310 2.441 . S
O328 C314 1.249 . S
O329 U310 2.420 . S
O329 C314 1.202 . S
O330 U310 2.455 . S
O330 C327 1.301 . S
O331 U310 2.449 . S
O331 C327 1.282 . S
H332 C305 0.931 . S
H333 C307 0.929 . S
H334 C308 0.930 . S
H335 C309 0.931 . S
H336 C316 0.932 . S
H337 C317 0.930 1_554 S
H338 C318 0.929 . S
H339 C320 0.930 . S
H340 C322 0.932 . S
H341 C323 0.929 . S
H342 C324 0.928 . S
H343 C326 0.932 . S
C344 C345 1.264 . S
C344 C349 1.479 . S
C344 C354 1.465 . S
C345 C344 1.264 . S
C345 C347 1.339 . S
C345 H372 0.931 . S
C346 C347 1.395 . S
C346 C348 1.320 . S
C347 C345 1.339 . S
C347 C346 1.395 . S
C347 H373 0.929 . S
C348 C346 1.320 . S
C348 C349 1.405 . S
C348 H374 0.930 . S
C349 C344 1.479 . S
C349 C348 1.405 . S
C349 H375 0.931 . S
U350 O351 2.470 . S
U350 O352 2.486 . S
U350 C353 3.009 . S
U350 C354 2.822 1_545 S
U350 C367 2.883 . S
U350 O368 2.424 1_545 S
U350 O369 2.392 1_545 S
U350 O370 2.469 . S
U350 O371 2.437 1_545 S
O351 U350 2.470 . S
O351 C353 1.353 . S
O352 U350 2.486 . S
O352 C353 1.286 . S
C353 U350 3.009 . S
C353 O351 1.353 . S
C353 O352 1.286 . S
C353 C355 1.363 . S
C354 C344 1.465 . S
C354 U350 2.822 1_565 S
C354 O368 1.249 . S
C354 O369 1.202 . S
C355 C353 1.363 . S
C355 C357 1.408 . S
C355 C360 1.342 . S
C356 C357 1.310 . S
C356 C359 1.461 . S
C356 H376 0.932 . S
C357 C355 1.408 . S
C357 C356 1.310 . S
C357 H377 0.930 . S
C358 C359 1.474 . S
C358 C360 1.285 . S
C358 H378 0.929 . S
C359 C356 1.461 . S
C359 C358 1.474 . S
C360 C355 1.342 . S
C360 C358 1.285 . S
C360 H379 0.930 . S
C361 C364 1.424 1_545 S
C361 C366 1.245 . S
C361 C367 1.428 . S
C362 C365 1.260 . S
C362 C366 1.477 . S
C362 H380 0.932 . S
C363 C364 1.384 . S
C363 C365 1.479 1_565 S
C363 H381 0.929 . S
C364 C361 1.424 1_565 S
C364 C363 1.384 . S
C364 H382 0.928 . S
C365 C362 1.260 . S
C365 C363 1.479 1_545 S
C366 C361 1.245 . S
C366 C362 1.477 . S
C366 H383 0.932 . S
C367 U350 2.883 . S
C367 C361 1.428 . S
C367 O370 1.301 . S
C367 O371 1.282 1_545 S
O368 U350 2.424 1_565 S
O368 C354 1.249 . S
O369 U350 2.392 1_565 S
O369 C354 1.202 . S
O370 U350 2.469 . S
O370 C367 1.301 . S
O371 U350 2.437 1_565 S
O371 C367 1.282 1_565 S
H372 C345 0.931 . S
H373 C347 0.929 . S
H374 C348 0.930 . S
H375 C349 0.931 . S
H376 C356 0.932 . S
H377 C357 0.930 . S
H378 C358 0.929 . S
H379 C360 0.930 . S
H380 C362 0.932 . S
H381 C363 0.929 . S
H382 C364 0.928 . S
H383 C366 0.932 . S
C384 C385 1.264 . S
C384 C389 1.479 . S
C384 C394 1.465 . S
C385 C384 1.264 . S
C385 C387 1.339 . S
C385 H412 0.931 . S
C386 C387 1.395 . S
C386 C388 1.320 1_554 S
C387 C385 1.339 . S
C387 C386 1.395 . S
C387 H413 0.929 . S
C388 C386 1.320 1_556 S
C388 C389 1.405 1_556 S
C388 H414 0.930 . S
C389 C384 1.479 . S
C389 C388 1.405 1_554 S
C389 H415 0.931 1_554 S
U390 O391 2.454 . S
U390 O392 2.458 . S
U390 C393 2.984 . S
U390 C394 2.847 1_565 S
U390 C407 2.881 . S
U390 O408 2.441 1_565 S
U390 O409 2.420 1_565 S
U390 O410 2.455 . S
U390 O411 2.449 1_565 S
O391 U390 2.454 . S
O391 C393 1.353 . S
O392 U390 2.458 . S
O392 C393 1.286 . S
C393 U390 2.984 . S
C393 O391 1.353 . S
C393 O392 1.286 . S
C393 C395 1.363 . S
C394 C384 1.465 . S
C394 U390 2.847 1_545 S
C394 O408 1.249 . S
C394 O409 1.202 . S
C395 C393 1.363 . S
C395 C397 1.408 1_554 S
C395 C400 1.342 . S
C396 C397 1.310 . S
C396 C399 1.461 . S
C396 H416 0.932 . S
C397 C395 1.408 1_556 S
C397 C396 1.310 . S
C397 H417 0.930 . S
C398 C399 1.474 1_554 S
C398 C400 1.285 . S
C398 H418 0.929 . S
C399 C396 1.461 . S
C399 C398 1.474 1_556 S
C400 C395 1.342 . S
C400 C398 1.285 . S
C400 H419 0.930 . S
C401 C404 1.406 1_565 S
C401 C406 1.263 . S
C401 C407 1.429 . S
C402 C405 1.260 1_565 S
C402 C406 1.477 . S
C402 H420 0.932 . S
C403 C404 1.384 . S
C403 C405 1.479 . S
C403 H421 0.929 . S
C404 C401 1.406 1_545 S
C404 C403 1.384 . S
C404 H422 0.928 . S
C405 C402 1.260 1_545 S
C405 C403 1.479 . S
C406 C401 1.263 . S
C406 C402 1.477 . S
C406 H423 0.932 . S
C407 U390 2.881 . S
C407 C401 1.429 . S
C407 O410 1.330 . S
C407 O411 1.253 1_565 S
O408 U390 2.441 1_545 S
O408 C394 1.249 . S
O409 U390 2.420 1_545 S
O409 C394 1.202 . S
O410 U390 2.455 . S
O410 C407 1.330 . S
O411 U390 2.449 1_545 S
O411 C407 1.253 1_545 S
H412 C385 0.931 . S
H413 C387 0.929 . S
H414 C388 0.930 . S
H415 C389 0.931 1_556 S
H416 C396 0.932 . S
H417 C397 0.930 . S
H418 C398 0.929 . S
H419 C400 0.930 . S
H420 C402 0.932 . S
H421 C403 0.929 . S
H422 C404 0.928 . S
H423 C406 0.932 . S
C424 C425 1.264 . S
C424 C429 1.479 . S
C424 C434 1.465 . S
C425 C424 1.264 . S
C425 C427 1.339 . S
C425 H452 0.931 . S
C426 C427 1.395 . S
C426 C428 1.320 . S
C427 C425 1.339 . S
C427 C426 1.395 . S
C427 H453 0.929 . S
C428 C426 1.320 . S
C428 C429 1.405 . S
C428 H454 0.930 . S
C429 C424 1.479 . S
C429 C428 1.405 . S
C429 H455 0.931 . S
U430 O431 2.454 . S
U430 O432 2.458 . S
U430 C433 2.984 . S
U430 C434 2.847 . S
U430 C447 2.882 . S
U430 O448 2.441 . S
U430 O449 2.420 . S
U430 O450 2.455 . S
U430 O451 2.449 . S
O431 U430 2.454 . S
O431 C433 1.353 . S
O432 U430 2.458 . S
O432 C433 1.286 . S
C433 U430 2.984 . S
C433 O431 1.353 . S
C433 O432 1.286 . S
C433 C435 1.363 . S
C434 C424 1.465 . S
C434 U430 2.847 . S
C434 O448 1.249 . S
C434 O449 1.202 . S
C435 C433 1.363 . S
C435 C437 1.408 . S
C435 C440 1.342 . S
C436 C437 1.310 . S
C436 C439 1.461 . S
C436 H456 0.932 . S
C437 C435 1.408 . S
C437 C436 1.310 . S
C437 H457 0.930 . S
C438 C439 1.474 . S
C438 C440 1.285 . S
C438 H458 0.929 . S
C439 C436 1.461 . S
C439 C438 1.474 . S
C440 C435 1.342 . S
C440 C438 1.285 . S
C440 H459 0.930 . S
C441 C444 1.424 . S
C441 C446 1.245 . S
C441 C447 1.428 . S
C442 C445 1.260 . S
C442 C446 1.477 . S
C442 H460 0.932 . S
C443 C444 1.384 . S
C443 C445 1.479 . S
C443 H461 0.929 . S
C444 C441 1.424 . S
C444 C443 1.384 . S
C444 H462 0.928 . S
C445 C442 1.260 . S
C445 C443 1.479 . S
C446 C441 1.245 . S
C446 C442 1.477 . S
C446 H463 0.932 . S
C447 U430 2.882 . S
C447 C441 1.428 . S
C447 O450 1.301 . S
C447 O451 1.282 . S
O448 U430 2.441 . S
O448 C434 1.249 . S
O449 U430 2.420 . S
O449 C434 1.202 . S
O450 U430 2.455 . S
O450 C447 1.301 . S
O451 U430 2.449 . S
O451 C447 1.282 . S
H452 C425 0.931 . S
H453 C427 0.929 . S
H454 C428 0.930 . S
H455 C429 0.931 . S
H456 C436 0.932 . S
H457 C437 0.930 . S
H458 C438 0.929 . S
H459 C440 0.930 . S
H460 C442 0.932 . S
H461 C443 0.929 . S
H462 C444 0.928 . S
H463 C446 0.932 . S
C464 C465 1.264 . S
C464 C469 1.479 . S
C464 C474 1.465 . S
C465 C464 1.264 . S
C465 C467 1.339 . S
C465 H492 0.931 . S
C466 C467 1.395 . S
C466 C468 1.320 1_455 S
C467 C465 1.339 . S
C467 C466 1.395 . S
C467 H493 0.929 . S
C468 C466 1.320 1_655 S
C468 C469 1.405 1_655 S
C468 H494 0.930 . S
C469 C464 1.479 . S
C469 C468 1.405 1_455 S
C469 H495 0.931 1_455 S
U470 O471 2.454 . S
U470 O472 2.458 . S
U470 C473 2.984 . S
U470 C474 2.847 1_556 S
U470 C487 2.881 . S
U470 O488 2.441 1_556 S
U470 O489 2.420 1_556 S
U470 O490 2.455 . S
U470 O491 2.449 1_556 S
O471 U470 2.454 . S
O471 C473 1.353 . S
O472 U470 2.458 . S
O472 C473 1.286 . S
C473 U470 2.984 . S
C473 O471 1.353 . S
C473 O472 1.286 . S
C473 C475 1.363 . S
C474 C464 1.465 . S
C474 U470 2.847 1_554 S
C474 O488 1.249 . S
C474 O489 1.202 . S
C475 C473 1.363 . S
C475 C477 1.408 1_455 S
C475 C480 1.342 . S
C476 C477 1.310 . S
C476 C479 1.461 . S
C476 H496 0.932 . S
C477 C475 1.408 1_655 S
C477 C476 1.310 . S
C477 H497 0.930 . S
C478 C479 1.474 1_455 S
C478 C480 1.285 . S
C478 H498 0.929 . S
C479 C476 1.461 . S
C479 C478 1.474 1_655 S
C480 C475 1.342 . S
C480 C478 1.285 . S
C480 H499 0.930 . S
C481 C484 1.406 1_556 S
C481 C486 1.263 . S
C481 C487 1.429 . S
C482 C485 1.260 1_556 S
C482 C486 1.477 . S
C482 H500 0.932 . S
C483 C484 1.384 . S
C483 C485 1.479 . S
C483 H501 0.929 . S
C484 C481 1.406 1_554 S
C484 C483 1.384 . S
C484 H502 0.928 . S
C485 C482 1.260 1_554 S
C485 C483 1.479 . S
C486 C481 1.263 . S
C486 C482 1.477 . S
C486 H503 0.932 . S
C487 U470 2.881 . S
C487 C481 1.429 . S
C487 O490 1.330 . S
C487 O491 1.253 1_556 S
O488 U470 2.441 1_554 S
O488 C474 1.249 . S
O489 U470 2.420 1_554 S
O489 C474 1.202 . S
O490 U470 2.455 . S
O490 C487 1.330 . S
O491 U470 2.449 1_554 S
O491 C487 1.253 1_554 S
H492 C465 0.931 . S
H493 C467 0.929 . S
H494 C468 0.930 . S
H495 C469 0.931 1_655 S
H496 C476 0.932 . S
H497 C477 0.930 . S
H498 C478 0.929 . S
H499 C480 0.930 . S
H500 C482 0.932 . S
H501 C483 0.929 . S
H502 C484 0.928 . S
H503 C486 0.932 . S
C504 C505 1.264 . S
C504 C509 1.479 1_655 S
C504 C514 1.465 . S
C505 C504 1.264 . S
C505 C507 1.339 . S
C505 H532 0.931 . S
C506 C507 1.395 1_455 S
C506 C508 1.320 . S
C507 C505 1.339 . S
C507 C506 1.395 1_655 S
C507 H533 0.929 . S
C508 C506 1.320 . S
C508 C509 1.405 . S
C508 H534 0.930 . S
C509 C504 1.479 1_455 S
C509 C508 1.405 . S
C509 H535 0.931 . S
U510 O511 2.454 . S
U510 O512 2.458 . S
U510 C513 2.984 . S
U510 C514 2.847 . S
U510 C527 2.882 . S
U510 O528 2.441 . S
U510 O529 2.420 . S
U510 O530 2.455 . S
U510 O531 2.449 . S
O511 U510 2.454 . S
O511 C513 1.353 . S
O512 U510 2.458 . S
O512 C513 1.286 . S
C513 U510 2.984 . S
C513 O511 1.353 . S
C513 O512 1.286 . S
C513 C515 1.363 . S
C514 C504 1.465 . S
C514 U510 2.847 . S
C514 O528 1.249 . S
C514 O529 1.202 . S
C515 C513 1.363 . S
C515 C517 1.408 . S
C515 C520 1.342 . S
C516 C517 1.310 1_455 S
C516 C519 1.461 1_455 S
C516 H536 0.932 . S
C517 C515 1.408 . S
C517 C516 1.310 1_655 S
C517 H537 0.930 1_655 S
C518 C519 1.474 . S
C518 C520 1.285 . S
C518 H538 0.929 . S
C519 C516 1.461 1_655 S
C519 C518 1.474 . S
C520 C515 1.342 . S
C520 C518 1.285 . S
C520 H539 0.930 . S
C521 C524 1.424 . S
C521 C526 1.245 . S
C521 C527 1.428 . S
C522 C525 1.260 . S
C522 C526 1.477 . S
C522 H540 0.932 . S
C523 C524 1.384 . S
C523 C525 1.479 . S
C523 H541 0.929 . S
C524 C521 1.424 . S
C524 C523 1.384 . S
C524 H542 0.928 . S
C525 C522 1.260 . S
C525 C523 1.479 . S
C526 C521 1.245 . S
C526 C522 1.477 . S
C526 H543 0.932 . S
C527 U510 2.882 . S
C527 C521 1.428 . S
C527 O530 1.301 . S
C527 O531 1.282 . S
O528 U510 2.441 . S
O528 C514 1.249 . S
O529 U510 2.420 . S
O529 C514 1.202 . S
O530 U510 2.455 . S
O530 C527 1.301 . S
O531 U510 2.449 . S
O531 C527 1.282 . S
H532 C505 0.931 . S
H533 C507 0.929 . S
H534 C508 0.930 . S
H535 C509 0.931 . S
H536 C516 0.932 . S
H537 C517 0.930 1_455 S
H538 C518 0.929 . S
H539 C520 0.930 . S
H540 C522 0.932 . S
H541 C523 0.929 . S
H542 C524 0.928 . S
H543 C526 0.932 . S
C544 C545 1.264 . S
C544 C549 1.479 . S
C544 C554 1.465 . S
C545 C544 1.264 . S
C545 C547 1.339 . S
C545 H572 0.931 . S
C546 C547 1.395 . S
C546 C548 1.320 . S
C547 C545 1.339 . S
C547 C546 1.395 . S
C547 H573 0.929 . S
C548 C546 1.320 . S
C548 C549 1.405 . S
C548 H574 0.930 . S
C549 C544 1.479 . S
C549 C548 1.405 . S
C549 H575 0.931 . S
U550 O551 2.470 . S
U550 O552 2.486 . S
U550 C553 3.009 . S
U550 C554 2.822 1_554 S
U550 C567 2.883 . S
U550 O568 2.424 1_554 S
U550 O569 2.392 1_554 S
U550 O570 2.469 . S
U550 O571 2.437 1_554 S
O551 U550 2.470 . S
O551 C553 1.353 . S
O552 U550 2.486 . S
O552 C553 1.286 . S
C553 U550 3.009 . S
C553 O551 1.353 . S
C553 O552 1.286 . S
C553 C555 1.363 . S
C554 C544 1.465 . S
C554 U550 2.822 1_556 S
C554 O568 1.249 . S
C554 O569 1.202 . S
C555 C553 1.363 . S
C555 C557 1.408 . S
C555 C560 1.342 . S
C556 C557 1.310 . S
C556 C559 1.461 . S
C556 H576 0.932 . S
C557 C555 1.408 . S
C557 C556 1.310 . S
C557 H577 0.930 . S
C558 C559 1.474 . S
C558 C560 1.285 . S
C558 H578 0.929 . S
C559 C556 1.461 . S
C559 C558 1.474 . S
C560 C555 1.342 . S
C560 C558 1.285 . S
C560 H579 0.930 . S
C561 C564 1.424 1_554 S
C561 C566 1.245 . S
C561 C567 1.428 . S
C562 C565 1.260 . S
C562 C566 1.477 . S
C562 H580 0.932 . S
C563 C564 1.384 . S
C563 C565 1.479 1_556 S
C563 H581 0.929 . S
C564 C561 1.424 1_556 S
C564 C563 1.384 . S
C564 H582 0.928 . S
C565 C562 1.260 . S
C565 C563 1.479 1_554 S
C566 C561 1.245 . S
C566 C562 1.477 . S
C566 H583 0.932 . S
C567 U550 2.883 . S
C567 C561 1.428 . S
C567 O570 1.301 . S
C567 O571 1.282 1_554 S
O568 U550 2.424 1_556 S
O568 C554 1.249 . S
O569 U550 2.392 1_556 S
O569 C554 1.202 . S
O570 U550 2.469 . S
O570 C567 1.301 . S
O571 U550 2.437 1_556 S
O571 C567 1.282 1_556 S
H572 C545 0.931 . S
H573 C547 0.929 . S
H574 C548 0.930 . S
H575 C549 0.931 . S
H576 C556 0.932 . S
H577 C557 0.930 . S
H578 C558 0.929 . S
H579 C560 0.930 . S
H580 C562 0.932 . S
H581 C563 0.929 . S
H582 C564 0.928 . S
H583 C566 0.932 . S
C584 C585 1.264 . S
C584 C589 1.479 . S
C584 C594 1.465 . S
C585 C584 1.264 . S
C585 C587 1.339 . S
C585 H612 0.931 . S
C586 C587 1.395 . S
C586 C588 1.320 . S
C587 C585 1.339 . S
C587 C586 1.395 . S
C587 H613 0.929 . S
C588 C586 1.320 . S
C588 C589 1.405 . S
C588 H614 0.930 . S
C589 C584 1.479 . S
C589 C588 1.405 . S
C589 H615 0.931 . S
U590 O591 2.454 . S
U590 O592 2.458 . S
U590 C593 2.984 . S
U590 C594 2.847 . S
U590 C607 2.882 . S
U590 O608 2.441 . S
U590 O609 2.420 . S
U590 O610 2.455 . S
U590 O611 2.449 . S
O591 U590 2.454 . S
O591 C593 1.353 . S
O592 U590 2.458 . S
O592 C593 1.286 . S
C593 U590 2.984 . S
C593 O591 1.353 . S
C593 O592 1.286 . S
C593 C595 1.363 . S
C594 C584 1.465 . S
C594 U590 2.847 . S
C594 O608 1.249 . S
C594 O609 1.202 . S
C595 C593 1.363 . S
C595 C597 1.408 . S
C595 C600 1.342 . S
C596 C597 1.310 . S
C596 C599 1.461 . S
C596 H616 0.932 . S
C597 C595 1.408 . S
C597 C596 1.310 . S
C597 H617 0.930 . S
C598 C599 1.474 . S
C598 C600 1.285 . S
C598 H618 0.929 . S
C599 C596 1.461 . S
C599 C598 1.474 . S
C600 C595 1.342 . S
C600 C598 1.285 . S
C600 H619 0.930 . S
C601 C604 1.424 . S
C601 C606 1.245 . S
C601 C607 1.428 . S
C602 C605 1.260 . S
C602 C606 1.477 . S
C602 H620 0.932 . S
C603 C604 1.384 . S
C603 C605 1.479 . S
C603 H621 0.929 . S
C604 C601 1.424 . S
C604 C603 1.384 . S
C604 H622 0.928 . S
C605 C602 1.260 . S
C605 C603 1.479 . S
C606 C601 1.245 . S
C606 C602 1.477 . S
C606 H623 0.932 . S
C607 U590 2.882 . S
C607 C601 1.428 . S
C607 O610 1.301 . S
C607 O611 1.282 . S
O608 U590 2.441 . S
O608 C594 1.249 . S
O609 U590 2.420 . S
O609 C594 1.202 . S
O610 U590 2.455 . S
O610 C607 1.301 . S
O611 U590 2.449 . S
O611 C607 1.282 . S
H612 C585 0.931 . S
H613 C587 0.929 . S
H614 C588 0.930 . S
H615 C589 0.931 . S
H616 C596 0.932 . S
H617 C597 0.930 . S
H618 C598 0.929 . S
H619 C600 0.930 . S
H620 C602 0.932 . S
H621 C603 0.929 . S
H622 C604 0.928 . S
H623 C606 0.932 . S
C624 C625 1.264 . S
C624 C629 1.479 . S
C624 C634 1.465 . S
C625 C624 1.264 . S
C625 C627 1.339 . S
C625 H652 0.931 . S
C626 C627 1.395 . S
C626 C628 1.320 1_545 S
C627 C625 1.339 . S
C627 C626 1.395 . S
C627 H653 0.929 . S
C628 C626 1.320 1_565 S
C628 C629 1.405 1_565 S
C628 H654 0.930 . S
C629 C624 1.479 . S
C629 C628 1.405 1_545 S
C629 H655 0.931 1_545 S
U630 O631 2.454 . S
U630 O632 2.458 . S
U630 C633 2.984 . S
U630 C634 2.847 1_655 S
U630 C647 2.881 . S
U630 O648 2.441 1_655 S
U630 O649 2.420 1_655 S
U630 O650 2.455 . S
U630 O651 2.449 1_655 S
O631 U630 2.454 . S
O631 C633 1.353 . S
O632 U630 2.458 . S
O632 C633 1.286 . S
C633 U630 2.984 . S
C633 O631 1.353 . S
C633 O632 1.286 . S
C633 C635 1.363 . S
C634 C624 1.465 . S
C634 U630 2.847 1_455 S
C634 O648 1.249 . S
C634 O649 1.202 . S
C635 C633 1.363 . S
C635 C637 1.408 1_545 S
C635 C640 1.342 . S
C636 C637 1.310 . S
C636 C639 1.461 . S
C636 H656 0.932 . S
C637 C635 1.408 1_565 S
C637 C636 1.310 . S
C637 H657 0.930 . S
C638 C639 1.474 1_545 S
C638 C640 1.285 . S
C638 H658 0.929 . S
C639 C636 1.461 . S
C639 C638 1.474 1_565 S
C640 C635 1.342 . S
C640 C638 1.285 . S
C640 H659 0.930 . S
C641 C644 1.406 1_655 S
C641 C646 1.263 . S
C641 C647 1.429 . S
C642 C645 1.260 1_655 S
C642 C646 1.477 . S
C642 H660 0.932 . S
C643 C644 1.384 . S
C643 C645 1.479 . S
C643 H661 0.929 . S
C644 C641 1.406 1_455 S
C644 C643 1.384 . S
C644 H662 0.928 . S
C645 C642 1.260 1_455 S
C645 C643 1.479 . S
C646 C641 1.263 . S
C646 C642 1.477 . S
C646 H663 0.932 . S
C647 U630 2.881 . S
C647 C641 1.429 . S
C647 O650 1.330 . S
C647 O651 1.253 1_655 S
O648 U630 2.441 1_455 S
O648 C634 1.249 . S
O649 U630 2.420 1_455 S
O649 C634 1.202 . S
O650 U630 2.455 . S
O650 C647 1.330 . S
O651 U630 2.449 1_455 S
O651 C647 1.253 1_455 S
H652 C625 0.931 . S
H653 C627 0.929 . S
H654 C628 0.930 . S
H655 C629 0.931 1_565 S
H656 C636 0.932 . S
H657 C637 0.930 . S
H658 C638 0.929 . S
H659 C640 0.930 . S
H660 C642 0.932 . S
H661 C643 0.929 . S
H662 C644 0.928 . S
H663 C646 0.932 . S
C664 C665 1.264 . S
C664 C669 1.479 1_565 S
C664 C674 1.465 . S
C665 C664 1.264 . S
C665 C667 1.339 . S
C665 H692 0.931 . S
C666 C667 1.395 1_545 S
C666 C668 1.320 . S
C667 C665 1.339 . S
C667 C666 1.395 1_565 S
C667 H693 0.929 . S
C668 C666 1.320 . S
C668 C669 1.405 . S
C668 H694 0.930 . S
C669 C664 1.479 1_545 S
C669 C668 1.405 . S
C669 H695 0.931 . S
U670 O671 2.454 . S
U670 O672 2.458 . S
U670 C673 2.984 . S
U670 C674 2.847 . S
U670 C687 2.882 . S
U670 O688 2.441 . S
U670 O689 2.420 . S
U670 O690 2.455 . S
U670 O691 2.449 . S
O671 U670 2.454 . S
O671 C673 1.353 . S
O672 U670 2.458 . S
O672 C673 1.286 . S
C673 U670 2.984 . S
C673 O671 1.353 . S
C673 O672 1.286 . S
C673 C675 1.363 . S
C674 C664 1.465 . S
C674 U670 2.847 . S
C674 O688 1.249 . S
C674 O689 1.202 . S
C675 C673 1.363 . S
C675 C677 1.408 . S
C675 C680 1.342 . S
C676 C677 1.310 1_545 S
C676 C679 1.461 1_545 S
C676 H696 0.932 . S
C677 C675 1.408 . S
C677 C676 1.310 1_565 S
C677 H697 0.930 1_565 S
C678 C679 1.474 . S
C678 C680 1.285 . S
C678 H698 0.929 . S
C679 C676 1.461 1_565 S
C679 C678 1.474 . S
C680 C675 1.342 . S
C680 C678 1.285 . S
C680 H699 0.930 . S
C681 C684 1.424 . S
C681 C686 1.245 . S
C681 C687 1.428 . S
C682 C685 1.260 . S
C682 C686 1.477 . S
C682 H700 0.932 . S
C683 C684 1.384 . S
C683 C685 1.479 . S
C683 H701 0.929 . S
C684 C681 1.424 . S
C684 C683 1.384 . S
C684 H702 0.928 . S
C685 C682 1.260 . S
C685 C683 1.479 . S
C686 C681 1.245 . S
C686 C682 1.477 . S
C686 H703 0.932 . S
C687 U670 2.882 . S
C687 C681 1.428 . S
C687 O690 1.301 . S
C687 O691 1.282 . S
O688 U670 2.441 . S
O688 C674 1.249 . S
O689 U670 2.420 . S
O689 C674 1.202 . S
O690 U670 2.455 . S
O690 C687 1.301 . S
O691 U670 2.449 . S
O691 C687 1.282 . S
H692 C665 0.931 . S
H693 C667 0.929 . S
H694 C668 0.930 . S
H695 C669 0.931 . S
H696 C676 0.932 . S
H697 C677 0.930 1_545 S
H698 C678 0.929 . S
H699 C680 0.930 . S
H700 C682 0.932 . S
H701 C683 0.929 . S
H702 C684 0.928 . S
H703 C686 0.932 . S
C704 C705 1.264 . S
C704 C709 1.479 . S
C704 C714 1.465 . S
C705 C704 1.264 . S
C705 C707 1.339 . S
C705 H732 0.931 . S
C706 C707 1.395 . S
C706 C708 1.320 . S
C707 C705 1.339 . S
C707 C706 1.395 . S
C707 H733 0.929 . S
C708 C706 1.320 . S
C708 C709 1.405 . S
C708 H734 0.930 . S
C709 C704 1.479 . S
C709 C708 1.405 . S
C709 H735 0.931 . S
U710 O711 2.470 . S
U710 O712 2.486 . S
U710 C713 3.009 . S
U710 C714 2.822 1_455 S
U710 C727 2.883 . S
U710 O728 2.424 1_455 S
U710 O729 2.392 1_455 S
U710 O730 2.469 . S
U710 O731 2.437 1_455 S
O711 U710 2.470 . S
O711 C713 1.353 . S
O712 U710 2.486 . S
O712 C713 1.286 . S
C713 U710 3.009 . S
C713 O711 1.353 . S
C713 O712 1.286 . S
C713 C715 1.363 . S
C714 C704 1.465 . S
C714 U710 2.822 1_655 S
C714 O728 1.249 . S
C714 O729 1.202 . S
C715 C713 1.363 . S
C715 C717 1.408 . S
C715 C720 1.342 . S
C716 C717 1.310 . S
C716 C719 1.461 . S
C716 H736 0.932 . S
C717 C715 1.408 . S
C717 C716 1.310 . S
C717 H737 0.930 . S
C718 C719 1.474 . S
C718 C720 1.285 . S
C718 H738 0.929 . S
C719 C716 1.461 . S
C719 C718 1.474 . S
C720 C715 1.342 . S
C720 C718 1.285 . S
C720 H739 0.930 . S
C721 C724 1.424 1_455 S
C721 C726 1.245 . S
C721 C727 1.428 . S
C722 C725 1.260 . S
C722 C726 1.477 . S
C722 H740 0.932 . S
C723 C724 1.384 . S
C723 C725 1.479 1_655 S
C723 H741 0.929 . S
C724 C721 1.424 1_655 S
C724 C723 1.384 . S
C724 H742 0.928 . S
C725 C722 1.260 . S
C725 C723 1.479 1_455 S
C726 C721 1.245 . S
C726 C722 1.477 . S
C726 H743 0.932 . S
C727 U710 2.883 . S
C727 C721 1.428 . S
C727 O730 1.301 . S
C727 O731 1.282 1_455 S
O728 U710 2.424 1_655 S
O728 C714 1.249 . S
O729 U710 2.392 1_655 S
O729 C714 1.202 . S
O730 U710 2.469 . S
O730 C727 1.301 . S
O731 U710 2.437 1_655 S
O731 C727 1.282 1_655 S
H732 C705 0.931 . S
H733 C707 0.929 . S
H734 C708 0.930 . S
H735 C709 0.931 . S
H736 C716 0.932 . S
H737 C717 0.930 . S
H738 C718 0.929 . S
H739 C720 0.930 . S
H740 C722 0.932 . S
H741 C723 0.929 . S
H742 C724 0.928 . S
H743 C726 0.932 . S
C744 C745 1.264 . S
C744 C749 1.479 . S
C744 C754 1.465 . S
C745 C744 1.264 . S
C745 C747 1.339 . S
C745 H772 0.931 . S
C746 C747 1.395 . S
C746 C748 1.320 . S
C747 C745 1.339 . S
C747 C746 1.395 . S
C747 H773 0.929 . S
C748 C746 1.320 . S
C748 C749 1.405 . S
C748 H774 0.930 . S
C749 C744 1.479 . S
C749 C748 1.405 . S
C749 H775 0.931 . S
U750 O751 2.454 . S
U750 O752 2.458 . S
U750 C753 2.984 . S
U750 C754 2.847 . S
U750 C767 2.882 . S
U750 O768 2.441 . S
U750 O769 2.420 . S
U750 O770 2.455 . S
U750 O771 2.449 . S
O751 U750 2.454 . S
O751 C753 1.353 . S
O752 U750 2.458 . S
O752 C753 1.286 . S
C753 U750 2.984 . S
C753 O751 1.353 . S
C753 O752 1.286 . S
C753 C755 1.363 . S
C754 C744 1.465 . S
C754 U750 2.847 . S
C754 O768 1.249 . S
C754 O769 1.202 . S
C755 C753 1.363 . S
C755 C757 1.408 . S
C755 C760 1.342 . S
C756 C757 1.310 . S
C756 C759 1.461 . S
C756 H776 0.932 . S
C757 C755 1.408 . S
C757 C756 1.310 . S
C757 H777 0.930 . S
C758 C759 1.474 . S
C758 C760 1.285 . S
C758 H778 0.929 . S
C759 C756 1.461 . S
C759 C758 1.474 . S
C760 C755 1.342 . S
C760 C758 1.285 . S
C760 H779 0.930 . S
C761 C764 1.424 . S
C761 C766 1.245 . S
C761 C767 1.428 . S
C762 C765 1.260 . S
C762 C766 1.477 . S
C762 H780 0.932 . S
C763 C764 1.384 . S
C763 C765 1.479 . S
C763 H781 0.929 . S
C764 C761 1.424 . S
C764 C763 1.384 . S
C764 H782 0.928 . S
C765 C762 1.260 . S
C765 C763 1.479 . S
C766 C761 1.245 . S
C766 C762 1.477 . S
C766 H783 0.932 . S
C767 U750 2.882 . S
C767 C761 1.428 . S
C767 O770 1.301 . S
C767 O771 1.282 . S
O768 U750 2.441 . S
O768 C754 1.249 . S
O769 U750 2.420 . S
O769 C754 1.202 . S
O770 U750 2.455 . S
O770 C767 1.301 . S
O771 U750 2.449 . S
O771 C767 1.282 . S
H772 C745 0.931 . S
H773 C747 0.929 . S
H774 C748 0.930 . S
H775 C749 0.931 . S
H776 C756 0.932 . S
H777 C757 0.930 . S
H778 C758 0.929 . S
H779 C760 0.930 . S
H780 C762 0.932 . S
H781 C763 0.929 . S
H782 C764 0.928 . S
H783 C766 0.932 . S
C784 C785 1.264 . S
C784 C789 1.479 1_554 S
C784 C794 1.465 . S
C785 C784 1.264 . S
C785 C787 1.339 . S
C785 H812 0.931 . S
C786 C787 1.395 1_556 S
C786 C788 1.320 . S
C787 C785 1.339 . S
C787 C786 1.395 1_554 S
C787 H813 0.929 . S
C788 C786 1.320 . S
C788 C789 1.405 . S
C788 H814 0.930 . S
C789 C784 1.479 1_556 S
C789 C788 1.405 . S
C789 H815 0.931 . S
U790 O791 2.454 . S
U790 O792 2.458 . S
U790 C793 2.984 . S
U790 C794 2.847 . S
U790 C807 2.882 . S
U790 O808 2.441 . S
U790 O809 2.420 . S
U790 O810 2.455 . S
U790 O811 2.449 . S
O791 U790 2.454 . S
O791 C793 1.353 . S
O792 U790 2.458 . S
O792 C793 1.286 . S
C793 U790 2.984 . S
C793 O791 1.353 . S
C793 O792 1.286 . S
C793 C795 1.363 . S
C794 C784 1.465 . S
C794 U790 2.847 . S
C794 O808 1.249 . S
C794 O809 1.202 . S
C795 C793 1.363 . S
C795 C797 1.408 . S
C795 C800 1.342 . S
C796 C797 1.310 1_556 S
C796 C799 1.461 1_556 S
C796 H816 0.932 . S
C797 C795 1.408 . S
C797 C796 1.310 1_554 S
C797 H817 0.930 1_554 S
C798 C799 1.474 . S
C798 C800 1.285 . S
C798 H818 0.929 . S
C799 C796 1.461 1_554 S
C799 C798 1.474 . S
C800 C795 1.342 . S
C800 C798 1.285 . S
C800 H819 0.930 . S
C801 C804 1.424 . S
C801 C806 1.245 . S
C801 C807 1.428 . S
C802 C805 1.260 . S
C802 C806 1.477 . S
C802 H820 0.932 . S
C803 C804 1.384 . S
C803 C805 1.479 . S
C803 H821 0.929 . S
C804 C801 1.424 . S
C804 C803 1.384 . S
C804 H822 0.928 . S
C805 C802 1.260 . S
C805 C803 1.479 . S
C806 C801 1.245 . S
C806 C802 1.477 . S
C806 H823 0.932 . S
C807 U790 2.882 . S
C807 C801 1.428 . S
C807 O810 1.301 . S
C807 O811 1.282 . S
O808 U790 2.441 . S
O808 C794 1.249 . S
O809 U790 2.420 . S
O809 C794 1.202 . S
O810 U790 2.455 . S
O810 C807 1.301 . S
O811 U790 2.449 . S
O811 C807 1.282 . S
H812 C785 0.931 . S
H813 C787 0.929 . S
H814 C788 0.930 . S
H815 C789 0.931 . S
H816 C796 0.932 . S
H817 C797 0.930 1_556 S
H818 C798 0.929 . S
H819 C800 0.930 . S
H820 C802 0.932 . S
H821 C803 0.929 . S
H822 C804 0.928 . S
H823 C806 0.932 . S
C824 C825 1.264 . S
C824 C829 1.479 . S
C824 C834 1.465 . S
C825 C824 1.264 . S
C825 C827 1.339 . S
C825 H852 0.931 . S
C826 C827 1.395 . S
C826 C828 1.320 . S
C827 C825 1.339 . S
C827 C826 1.395 . S
C827 H853 0.929 . S
C828 C826 1.320 . S
C828 C829 1.405 . S
C828 H854 0.930 . S
C829 C824 1.479 . S
C829 C828 1.405 . S
C829 H855 0.931 . S
U830 O831 2.454 1_545 S
U830 O832 2.459 1_545 S
U830 C833 2.985 1_545 S
U830 C834 2.846 . S
U830 C847 2.882 1_545 S
U830 O848 2.440 . S
U830 O849 2.420 . S
U830 O850 2.455 1_545 S
U830 O851 2.449 . S
O831 U830 2.454 1_565 S
O831 C833 1.353 . S
O832 U830 2.459 1_565 S
O832 C833 1.286 . S
C833 U830 2.985 1_565 S
C833 O831 1.353 . S
C833 O832 1.286 . S
C833 C835 1.363 . S
C834 C824 1.465 . S
C834 U830 2.846 . S
C834 O848 1.249 . S
C834 O849 1.202 . S
C835 C833 1.363 . S
C835 C837 1.408 . S
C835 C840 1.342 . S
C836 C837 1.310 . S
C836 C839 1.461 . S
C836 H856 0.932 . S
C837 C835 1.408 . S
C837 C836 1.310 . S
C837 H857 0.930 . S
C838 C839 1.474 . S
C838 C840 1.285 . S
C838 H858 0.929 . S
C839 C836 1.461 . S
C839 C838 1.474 . S
C840 C835 1.342 . S
C840 C838 1.285 . S
C840 H859 0.930 . S
C841 C844 1.424 1_565 S
C841 C846 1.245 . S
C841 C847 1.428 . S
C842 C845 1.260 . S
C842 C846 1.477 . S
C842 H860 0.932 . S
C843 C844 1.384 . S
C843 C845 1.479 1_545 S
C843 H861 0.929 . S
C844 C841 1.424 1_545 S
C844 C843 1.384 . S
C844 H862 0.928 . S
C845 C842 1.260 . S
C845 C843 1.479 1_565 S
C846 C841 1.245 . S
C846 C842 1.477 . S
C846 H863 0.932 . S
C847 U830 2.882 1_565 S
C847 C841 1.428 . S
C847 O850 1.301 . S
C847 O851 1.282 1_565 S
O848 U830 2.440 . S
O848 C834 1.249 . S
O849 U830 2.420 . S
O849 C834 1.202 . S
O850 U830 2.455 1_565 S
O850 C847 1.301 . S
O851 U830 2.449 . S
O851 C847 1.282 1_545 S
H852 C825 0.931 . S
H853 C827 0.929 . S
H854 C828 0.930 . S
H855 C829 0.931 . S
H856 C836 0.932 . S
H857 C837 0.930 . S
H858 C838 0.929 . S
H859 C840 0.930 . S
H860 C842 0.932 . S
H861 C843 0.929 . S
H862 C844 0.928 . S
H863 C846 0.932 . S
C864 C865 1.264 . S
C864 C869 1.508 . S
C864 C874 1.465 . S
C865 C864 1.264 . S
C865 C867 1.339 . S
C865 H892 0.931 . S
C866 C867 1.395 . S
C866 C868 1.320 1_556 S
C867 C865 1.339 . S
C867 C866 1.395 . S
C867 H893 0.929 . S
C868 C866 1.320 1_554 S
C868 C869 1.394 1_554 S
C868 H894 0.930 . S
C869 C864 1.508 . S
C869 C868 1.394 1_556 S
C869 H895 0.915 1_556 S
U870 O871 2.452 1_565 S
U870 O872 2.455 1_565 S
U870 C873 2.982 1_565 S
U870 C874 2.850 . S
U870 C887 2.882 . S
U870 O888 2.443 . S
U870 O889 2.423 . S
U870 O890 2.453 1_565 S
U870 O891 2.450 . S
O871 U870 2.452 1_545 S
O871 C873 1.353 . S
O872 U870 2.455 1_545 S
O872 C873 1.286 . S
C873 U870 2.982 1_545 S
C873 O871 1.353 . S
C873 O872 1.286 . S
C873 C875 1.363 . S
C874 C864 1.465 . S
C874 U870 2.850 . S
C874 O888 1.249 . S
C874 O889 1.202 . S
C875 C873 1.363 . S
C875 C877 1.408 1_556 S
C875 C880 1.342 . S
C876 C877 1.310 . S
C876 C879 1.461 . S
C876 H896 0.932 . S
C877 C875 1.408 1_554 S
C877 C876 1.310 . S
C877 H897 0.930 . S
C878 C879 1.474 1_556 S
C878 C880 1.285 . S
C878 H898 0.929 . S
C879 C876 1.461 . S
C879 C878 1.474 1_554 S
C880 C875 1.342 . S
C880 C878 1.285 . S
C880 H899 0.930 . S
C881 C884 1.424 . S
C881 C886 1.245 1_565 S
C881 C887 1.428 . S
C882 C885 1.260 1_545 S
C882 C886 1.477 . S
C882 H900 0.932 . S
C883 C884 1.384 . S
C883 C885 1.479 . S
C883 H901 0.929 . S
C884 C881 1.424 . S
C884 C883 1.384 . S
C884 H902 0.928 . S
C885 C882 1.260 1_565 S
C885 C883 1.479 . S
C886 C881 1.245 1_545 S
C886 C882 1.477 . S
C886 H903 0.932 . S
C887 U870 2.882 . S
C887 C881 1.428 . S
C887 O890 1.301 1_565 S
C887 O891 1.282 . S
O888 U870 2.443 . S
O888 C874 1.249 . S
O889 U870 2.423 . S
O889 C874 1.202 . S
O890 U870 2.453 1_545 S
O890 C887 1.301 1_545 S
O891 U870 2.450 . S
O891 C887 1.282 . S
H892 C865 0.931 . S
H893 C867 0.929 . S
H894 C868 0.930 . S
H895 C869 0.915 1_554 S
H896 C876 0.932 . S
H897 C877 0.930 . S
H898 C878 0.929 . S
H899 C880 0.930 . S
H900 C882 0.932 . S
H901 C883 0.929 . S
H902 C884 0.928 . S
H903 C886 0.932 . S
C904 C905 1.264 . S
C904 C909 1.479 . S
C904 C914 1.465 . S
C905 C904 1.264 . S
C905 C907 1.339 . S
C905 H932 0.931 . S
C906 C907 1.395 . S
C906 C908 1.320 . S
C907 C905 1.339 . S
C907 C906 1.395 . S
C907 H933 0.929 . S
C908 C906 1.320 . S
C908 C909 1.405 . S
C908 H934 0.930 . S
C909 C904 1.479 . S
C909 C908 1.405 . S
C909 H935 0.931 . S
U910 O911 2.454 . S
U910 O912 2.458 . S
U910 C913 2.984 . S
U910 C914 2.847 . S
U910 C927 2.882 . S
U910 O928 2.441 . S
U910 O929 2.420 . S
U910 O930 2.455 . S
U910 O931 2.449 . S
O911 U910 2.454 . S
O911 C913 1.353 . S
O912 U910 2.458 . S
O912 C913 1.286 . S
C913 U910 2.984 . S
C913 O911 1.353 . S
C913 O912 1.286 . S
C913 C915 1.363 . S
C914 C904 1.465 . S
C914 U910 2.847 . S
C914 O928 1.249 . S
C914 O929 1.202 . S
C915 C913 1.363 . S
C915 C917 1.408 . S
C915 C920 1.342 . S
C916 C917 1.310 . S
C916 C919 1.461 . S
C916 H936 0.932 . S
C917 C915 1.408 . S
C917 C916 1.310 . S
C917 H937 0.930 . S
C918 C919 1.474 . S
C918 C920 1.285 . S
C918 H938 0.929 . S
C919 C916 1.461 . S
C919 C918 1.474 . S
C920 C915 1.342 . S
C920 C918 1.285 . S
C920 H939 0.930 . S
C921 C924 1.424 . S
C921 C926 1.245 . S
C921 C927 1.428 . S
C922 C925 1.260 . S
C922 C926 1.477 . S
C922 H940 0.932 . S
C923 C924 1.384 . S
C923 C925 1.479 . S
C923 H941 0.929 . S
C924 C921 1.424 . S
C924 C923 1.384 . S
C924 H942 0.928 . S
C925 C922 1.260 . S
C925 C923 1.479 . S
C926 C921 1.245 . S
C926 C922 1.477 . S
C926 H943 0.932 . S
C927 U910 2.882 . S
C927 C921 1.428 . S
C927 O930 1.301 . S
C927 O931 1.282 . S
O928 U910 2.441 . S
O928 C914 1.249 . S
O929 U910 2.420 . S
O929 C914 1.202 . S
O930 U910 2.455 . S
O930 C927 1.301 . S
O931 U910 2.449 . S
O931 C927 1.282 . S
H932 C905 0.931 . S
H933 C907 0.929 . S
H934 C908 0.930 . S
H935 C909 0.931 . S
H936 C916 0.932 . S
H937 C917 0.930 . S
H938 C918 0.929 . S
H939 C920 0.930 . S
H940 C922 0.932 . S
H941 C923 0.929 . S
H942 C924 0.928 . S
H943 C926 0.932 . S
C944 C945 1.264 . S
C944 C949 1.508 . S
C944 C954 1.465 . S
C945 C944 1.264 . S
C945 C947 1.339 . S
C945 H972 0.931 . S
C946 C947 1.395 . S
C946 C948 1.320 1_655 S
C947 C945 1.339 . S
C947 C946 1.395 . S
C947 H973 0.929 . S
C948 C946 1.320 1_455 S
C948 C949 1.394 1_455 S
C948 H974 0.930 . S
C949 C944 1.508 . S
C949 C948 1.394 1_655 S
C949 H975 0.915 1_655 S
U950 O951 2.452 1_556 S
U950 O952 2.455 1_556 S
U950 C953 2.982 1_556 S
U950 C954 2.850 . S
U950 C967 2.882 . S
U950 O968 2.443 . S
U950 O969 2.423 . S
U950 O970 2.453 1_556 S
U950 O971 2.450 . S
O951 U950 2.452 1_554 S
O951 C953 1.353 . S
O952 U950 2.455 1_554 S
O952 C953 1.286 . S
C953 U950 2.982 1_554 S
C953 O951 1.353 . S
C953 O952 1.286 . S
C953 C955 1.363 . S
C954 C944 1.465 . S
C954 U950 2.850 . S
C954 O968 1.249 . S
C954 O969 1.202 . S
C955 C953 1.363 . S
C955 C957 1.408 1_655 S
C955 C960 1.342 . S
C956 C957 1.310 . S
C956 C959 1.461 . S
C956 H976 0.932 . S
C957 C955 1.408 1_455 S
C957 C956 1.310 . S
C957 H977 0.930 . S
C958 C959 1.474 1_655 S
C958 C960 1.285 . S
C958 H978 0.929 . S
C959 C956 1.461 . S
C959 C958 1.474 1_455 S
C960 C955 1.342 . S
C960 C958 1.285 . S
C960 H979 0.930 . S
C961 C964 1.424 . S
C961 C966 1.245 1_556 S
C961 C967 1.428 . S
C962 C965 1.260 1_554 S
C962 C966 1.477 . S
C962 H980 0.932 . S
C963 C964 1.384 . S
C963 C965 1.479 . S
C963 H981 0.929 . S
C964 C961 1.424 . S
C964 C963 1.384 . S
C964 H982 0.928 . S
C965 C962 1.260 1_556 S
C965 C963 1.479 . S
C966 C961 1.245 1_554 S
C966 C962 1.477 . S
C966 H983 0.932 . S
C967 U950 2.882 . S
C967 C961 1.428 . S
C967 O970 1.301 1_556 S
C967 O971 1.282 . S
O968 U950 2.443 . S
O968 C954 1.249 . S
O969 U950 2.423 . S
O969 C954 1.202 . S
O970 U950 2.453 1_554 S
O970 C967 1.301 1_554 S
O971 U950 2.450 . S
O971 C967 1.282 . S
H972 C945 0.931 . S
H973 C947 0.929 . S
H974 C948 0.930 . S
H975 C949 0.915 1_455 S
H976 C956 0.932 . S
H977 C957 0.930 . S
H978 C958 0.929 . S
H979 C960 0.930 . S
H980 C962 0.932 . S
H981 C963 0.929 . S
H982 C964 0.928 . S
H983 C966 0.932 . S
C984 C985 1.264 . S
C984 C989 1.479 1_455 S
C984 C994 1.465 . S
C985 C984 1.264 . S
C985 C987 1.339 . S
C985 H1012 0.931 . S
C986 C987 1.395 1_655 S
C986 C988 1.320 . S
C987 C985 1.339 . S
C987 C986 1.395 1_455 S
C987 H1013 0.929 . S
C988 C986 1.320 . S
C988 C989 1.405 . S
C988 H1014 0.930 . S
C989 C984 1.479 1_655 S
C989 C988 1.405 . S
C989 H1015 0.931 . S
U990 O991 2.454 . S
U990 O992 2.458 . S
U990 C993 2.984 . S
U990 C994 2.847 . S
U990 C1007 2.882 . S
U990 O1008 2.441 . S
U990 O1009 2.420 . S
U990 O1010 2.455 . S
U990 O1011 2.449 . S
O991 U990 2.454 . S
O991 C993 1.353 . S
O992 U990 2.458 . S
O992 C993 1.286 . S
C993 U990 2.984 . S
C993 O991 1.353 . S
C993 O992 1.286 . S
C993 C995 1.363 . S
C994 C984 1.465 . S
C994 U990 2.847 . S
C994 O1008 1.249 . S
C994 O1009 1.202 . S
C995 C993 1.363 . S
C995 C997 1.408 . S
C995 C1000 1.342 . S
C996 C997 1.310 1_655 S
C996 C999 1.461 1_655 S
C996 H1016 0.932 . S
C997 C995 1.408 . S
C997 C996 1.310 1_455 S
C997 H1017 0.930 1_455 S
C998 C999 1.474 . S
C998 C1000 1.285 . S
C998 H1018 0.929 . S
C999 C996 1.461 1_455 S
C999 C998 1.474 . S
C1000 C995 1.342 . S
C1000 C998 1.285 . S
C1000 H1019 0.930 . S
C1001 C1004 1.424 . S
C1001 C1006 1.245 . S
C1001 C1007 1.428 . S
C1002 C1005 1.260 . S
C1002 C1006 1.477 . S
C1002 H1020 0.932 . S
C1003 C1004 1.384 . S
C1003 C1005 1.479 . S
C1003 H1021 0.929 . S
C1004 C1001 1.424 . S
C1004 C1003 1.384 . S
C1004 H1022 0.928 . S
C1005 C1002 1.260 . S
C1005 C1003 1.479 . S
C1006 C1001 1.245 . S
C1006 C1002 1.477 . S
C1006 H1023 0.932 . S
C1007 U990 2.882 . S
C1007 C1001 1.428 . S
C1007 O1010 1.301 . S
C1007 O1011 1.282 . S
O1008 U990 2.441 . S
O1008 C994 1.249 . S
O1009 U990 2.420 . S
O1009 C994 1.202 . S
O1010 U990 2.455 . S
O1010 C1007 1.301 . S
O1011 U990 2.449 . S
O1011 C1007 1.282 . S
H1012 C985 0.931 . S
H1013 C987 0.929 . S
H1014 C988 0.930 . S
H1015 C989 0.931 . S
H1016 C996 0.932 . S
H1017 C997 0.930 1_655 S
H1018 C998 0.929 . S
H1019 C1000 0.930 . S
H1020 C1002 0.932 . S
H1021 C1003 0.929 . S
H1022 C1004 0.928 . S
H1023 C1006 0.932 . S
C1024 C1025 1.264 . S
C1024 C1029 1.479 . S
C1024 C1034 1.465 . S
C1025 C1024 1.264 . S
C1025 C1027 1.339 . S
C1025 H1052 0.931 . S
C1026 C1027 1.395 . S
C1026 C1028 1.320 . S
C1027 C1025 1.339 . S
C1027 C1026 1.395 . S
C1027 H1053 0.929 . S
C1028 C1026 1.320 . S
C1028 C1029 1.405 . S
C1028 H1054 0.930 . S
C1029 C1024 1.479 . S
C1029 C1028 1.405 . S
C1029 H1055 0.931 . S
U1030 O1031 2.454 1_554 S
U1030 O1032 2.459 1_554 S
U1030 C1033 2.985 1_554 S
U1030 C1034 2.846 . S
U1030 C1047 2.882 1_554 S
U1030 O1048 2.440 . S
U1030 O1049 2.420 . S
U1030 O1050 2.455 1_554 S
U1030 O1051 2.449 . S
O1031 U1030 2.454 1_556 S
O1031 C1033 1.353 . S
O1032 U1030 2.459 1_556 S
O1032 C1033 1.286 . S
C1033 U1030 2.985 1_556 S
C1033 O1031 1.353 . S
C1033 O1032 1.286 . S
C1033 C1035 1.363 . S
C1034 C1024 1.465 . S
C1034 U1030 2.846 . S
C1034 O1048 1.249 . S
C1034 O1049 1.202 . S
C1035 C1033 1.363 . S
C1035 C1037 1.408 . S
C1035 C1040 1.342 . S
C1036 C1037 1.310 . S
C1036 C1039 1.461 . S
C1036 H1056 0.932 . S
C1037 C1035 1.408 . S
C1037 C1036 1.310 . S
C1037 H1057 0.930 . S
C1038 C1039 1.474 . S
C1038 C1040 1.285 . S
C1038 H1058 0.929 . S
C1039 C1036 1.461 . S
C1039 C1038 1.474 . S
C1040 C1035 1.342 . S
C1040 C1038 1.285 . S
C1040 H1059 0.930 . S
C1041 C1044 1.424 1_556 S
C1041 C1046 1.245 . S
C1041 C1047 1.428 . S
C1042 C1045 1.260 . S
C1042 C1046 1.477 . S
C1042 H1060 0.932 . S
C1043 C1044 1.384 . S
C1043 C1045 1.479 1_554 S
C1043 H1061 0.929 . S
C1044 C1041 1.424 1_554 S
C1044 C1043 1.384 . S
C1044 H1062 0.928 . S
C1045 C1042 1.260 . S
C1045 C1043 1.479 1_556 S
C1046 C1041 1.245 . S
C1046 C1042 1.477 . S
C1046 H1063 0.932 . S
C1047 U1030 2.882 1_556 S
C1047 C1041 1.428 . S
C1047 O1050 1.301 . S
C1047 O1051 1.282 1_556 S
O1048 U1030 2.440 . S
O1048 C1034 1.249 . S
O1049 U1030 2.420 . S
O1049 C1034 1.202 . S
O1050 U1030 2.455 1_556 S
O1050 C1047 1.301 . S
O1051 U1030 2.449 . S
O1051 C1047 1.282 1_554 S
H1052 C1025 0.931 . S
H1053 C1027 0.929 . S
H1054 C1028 0.930 . S
H1055 C1029 0.931 . S
H1056 C1036 0.932 . S
H1057 C1037 0.930 . S
H1058 C1038 0.929 . S
H1059 C1040 0.930 . S
H1060 C1042 0.932 . S
H1061 C1043 0.929 . S
H1062 C1044 0.928 . S
H1063 C1046 0.932 . S
C1064 C1065 1.264 . S
C1064 C1069 1.479 . S
C1064 C1074 1.465 . S
C1065 C1064 1.264 . S
C1065 C1067 1.339 . S
C1065 H1092 0.931 . S
C1066 C1067 1.395 . S
C1066 C1068 1.320 . S
C1067 C1065 1.339 . S
C1067 C1066 1.395 . S
C1067 H1093 0.929 . S
C1068 C1066 1.320 . S
C1068 C1069 1.405 . S
C1068 H1094 0.930 . S
C1069 C1064 1.479 . S
C1069 C1068 1.405 . S
C1069 H1095 0.931 . S
U1070 O1071 2.454 . S
U1070 O1072 2.458 . S
U1070 C1073 2.984 . S
U1070 C1074 2.847 . S
U1070 C1087 2.882 . S
U1070 O1088 2.441 . S
U1070 O1089 2.420 . S
U1070 O1090 2.455 . S
U1070 O1091 2.449 . S
O1071 U1070 2.454 . S
O1071 C1073 1.353 . S
O1072 U1070 2.458 . S
O1072 C1073 1.286 . S
C1073 U1070 2.984 . S
C1073 O1071 1.353 . S
C1073 O1072 1.286 . S
C1073 C1075 1.363 . S
C1074 C1064 1.465 . S
C1074 U1070 2.847 . S
C1074 O1088 1.249 . S
C1074 O1089 1.202 . S
C1075 C1073 1.363 . S
C1075 C1077 1.408 . S
C1075 C1080 1.342 . S
C1076 C1077 1.310 . S
C1076 C1079 1.461 . S
C1076 H1096 0.932 . S
C1077 C1075 1.408 . S
C1077 C1076 1.310 . S
C1077 H1097 0.930 . S
C1078 C1079 1.474 . S
C1078 C1080 1.285 . S
C1078 H1098 0.929 . S
C1079 C1076 1.461 . S
C1079 C1078 1.474 . S
C1080 C1075 1.342 . S
C1080 C1078 1.285 . S
C1080 H1099 0.930 . S
C1081 C1084 1.424 . S
C1081 C1086 1.245 . S
C1081 C1087 1.428 . S
C1082 C1085 1.260 . S
C1082 C1086 1.477 . S
C1082 H1100 0.932 . S
C1083 C1084 1.384 . S
C1083 C1085 1.479 . S
C1083 H1101 0.929 . S
C1084 C1081 1.424 . S
C1084 C1083 1.384 . S
C1084 H1102 0.928 . S
C1085 C1082 1.260 . S
C1085 C1083 1.479 . S
C1086 C1081 1.245 . S
C1086 C1082 1.477 . S
C1086 H1103 0.932 . S
C1087 U1070 2.882 . S
C1087 C1081 1.428 . S
C1087 O1090 1.301 . S
C1087 O1091 1.282 . S
O1088 U1070 2.441 . S
O1088 C1074 1.249 . S
O1089 U1070 2.420 . S
O1089 C1074 1.202 . S
O1090 U1070 2.455 . S
O1090 C1087 1.301 . S
O1091 U1070 2.449 . S
O1091 C1087 1.282 . S
H1092 C1065 0.931 . S
H1093 C1067 0.929 . S
H1094 C1068 0.930 . S
H1095 C1069 0.931 . S
H1096 C1076 0.932 . S
H1097 C1077 0.930 . S
H1098 C1078 0.929 . S
H1099 C1080 0.930 . S
H1100 C1082 0.932 . S
H1101 C1083 0.929 . S
H1102 C1084 0.928 . S
H1103 C1086 0.932 . S
C1104 C1105 1.264 . S
C1104 C1109 1.508 . S
C1104 C1114 1.465 . S
C1105 C1104 1.264 . S
C1105 C1107 1.339 . S
C1105 H1132 0.931 . S
C1106 C1107 1.395 . S
C1106 C1108 1.320 1_565 S
C1107 C1105 1.339 . S
C1107 C1106 1.395 . S
C1107 H1133 0.929 . S
C1108 C1106 1.320 1_545 S
C1108 C1109 1.394 1_545 S
C1108 H1134 0.930 . S
C1109 C1104 1.508 . S
C1109 C1108 1.394 1_565 S
C1109 H1135 0.915 1_565 S
U1110 O1111 2.452 1_655 S
U1110 O1112 2.455 1_655 S
U1110 C1113 2.982 1_655 S
U1110 C1114 2.850 . S
U1110 C1127 2.882 . S
U1110 O1128 2.443 . S
U1110 O1129 2.423 . S
U1110 O1130 2.453 1_655 S
U1110 O1131 2.450 . S
O1111 U1110 2.452 1_455 S
O1111 C1113 1.353 . S
O1112 U1110 2.455 1_455 S
O1112 C1113 1.286 . S
C1113 U1110 2.982 1_455 S
C1113 O1111 1.353 . S
C1113 O1112 1.286 . S
C1113 C1115 1.363 . S
C1114 C1104 1.465 . S
C1114 U1110 2.850 . S
C1114 O1128 1.249 . S
C1114 O1129 1.202 . S
C1115 C1113 1.363 . S
C1115 C1117 1.408 1_565 S
C1115 C1120 1.342 . S
C1116 C1117 1.310 . S
C1116 C1119 1.461 . S
C1116 H1136 0.932 . S
C1117 C1115 1.408 1_545 S
C1117 C1116 1.310 . S
C1117 H1137 0.930 . S
C1118 C1119 1.474 1_565 S
C1118 C1120 1.285 . S
C1118 H1138 0.929 . S
C1119 C1116 1.461 . S
C1119 C1118 1.474 1_545 S
C1120 C1115 1.342 . S
C1120 C1118 1.285 . S
C1120 H1139 0.930 . S
C1121 C1124 1.424 . S
C1121 C1126 1.245 1_655 S
C1121 C1127 1.428 . S
C1122 C1125 1.260 1_455 S
C1122 C1126 1.477 . S
C1122 H1140 0.932 . S
C1123 C1124 1.384 . S
C1123 C1125 1.479 . S
C1123 H1141 0.929 . S
C1124 C1121 1.424 . S
C1124 C1123 1.384 . S
C1124 H1142 0.928 . S
C1125 C1122 1.260 1_655 S
C1125 C1123 1.479 . S
C1126 C1121 1.245 1_455 S
C1126 C1122 1.477 . S
C1126 H1143 0.932 . S
C1127 U1110 2.882 . S
C1127 C1121 1.428 . S
C1127 O1130 1.301 1_655 S
C1127 O1131 1.282 . S
O1128 U1110 2.443 . S
O1128 C1114 1.249 . S
O1129 U1110 2.423 . S
O1129 C1114 1.202 . S
O1130 U1110 2.453 1_455 S
O1130 C1127 1.301 1_455 S
O1131 U1110 2.450 . S
O1131 C1127 1.282 . S
H1132 C1105 0.931 . S
H1133 C1107 0.929 . S
H1134 C1108 0.930 . S
H1135 C1109 0.915 1_545 S
H1136 C1116 0.932 . S
H1137 C1117 0.930 . S
H1138 C1118 0.929 . S
H1139 C1120 0.930 . S
H1140 C1122 0.932 . S
H1141 C1123 0.929 . S
H1142 C1124 0.928 . S
H1143 C1126 0.932 . S
C1144 C1145 1.264 . S
C1144 C1149 1.479 1_545 S
C1144 C1154 1.465 . S
C1145 C1144 1.264 . S
C1145 C1147 1.339 . S
C1145 H1172 0.931 . S
C1146 C1147 1.395 1_565 S
C1146 C1148 1.320 . S
C1147 C1145 1.339 . S
C1147 C1146 1.395 1_545 S
C1147 H1173 0.929 . S
C1148 C1146 1.320 . S
C1148 C1149 1.405 . S
C1148 H1174 0.930 . S
C1149 C1144 1.479 1_565 S
C1149 C1148 1.405 . S
C1149 H1175 0.931 . S
U1150 O1151 2.454 . S
U1150 O1152 2.458 . S
U1150 C1153 2.984 . S
U1150 C1154 2.847 . S
U1150 C1167 2.882 . S
U1150 O1168 2.441 . S
U1150 O1169 2.420 . S
U1150 O1170 2.455 . S
U1150 O1171 2.449 . S
O1151 U1150 2.454 . S
O1151 C1153 1.353 . S
O1152 U1150 2.458 . S
O1152 C1153 1.286 . S
C1153 U1150 2.984 . S
C1153 O1151 1.353 . S
C1153 O1152 1.286 . S
C1153 C1155 1.363 . S
C1154 C1144 1.465 . S
C1154 U1150 2.847 . S
C1154 O1168 1.249 . S
C1154 O1169 1.202 . S
C1155 C1153 1.363 . S
C1155 C1157 1.408 . S
C1155 C1160 1.342 . S
C1156 C1157 1.310 1_565 S
C1156 C1159 1.461 1_565 S
C1156 H1176 0.932 . S
C1157 C1155 1.408 . S
C1157 C1156 1.310 1_545 S
C1157 H1177 0.930 1_545 S
C1158 C1159 1.474 . S
C1158 C1160 1.285 . S
C1158 H1178 0.929 . S
C1159 C1156 1.461 1_545 S
C1159 C1158 1.474 . S
C1160 C1155 1.342 . S
C1160 C1158 1.285 . S
C1160 H1179 0.930 . S
C1161 C1164 1.424 . S
C1161 C1166 1.245 . S
C1161 C1167 1.428 . S
C1162 C1165 1.260 . S
C1162 C1166 1.477 . S
C1162 H1180 0.932 . S
C1163 C1164 1.384 . S
C1163 C1165 1.479 . S
C1163 H1181 0.929 . S
C1164 C1161 1.424 . S
C1164 C1163 1.384 . S
C1164 H1182 0.928 . S
C1165 C1162 1.260 . S
C1165 C1163 1.479 . S
C1166 C1161 1.245 . S
C1166 C1162 1.477 . S
C1166 H1183 0.932 . S
C1167 U1150 2.882 . S
C1167 C1161 1.428 . S
C1167 O1170 1.301 . S
C1167 O1171 1.282 . S
O1168 U1150 2.441 . S
O1168 C1154 1.249 . S
O1169 U1150 2.420 . S
O1169 C1154 1.202 . S
O1170 U1150 2.455 . S
O1170 C1167 1.301 . S
O1171 U1150 2.449 . S
O1171 C1167 1.282 . S
H1172 C1145 0.931 . S
H1173 C1147 0.929 . S
H1174 C1148 0.930 . S
H1175 C1149 0.931 . S
H1176 C1156 0.932 . S
H1177 C1157 0.930 1_565 S
H1178 C1158 0.929 . S
H1179 C1160 0.930 . S
H1180 C1162 0.932 . S
H1181 C1163 0.929 . S
H1182 C1164 0.928 . S
H1183 C1166 0.932 . S
C1184 C1185 1.264 . S
C1184 C1189 1.479 . S
C1184 C1194 1.465 . S
C1185 C1184 1.264 . S
C1185 C1187 1.339 . S
C1185 H1212 0.931 . S
C1186 C1187 1.395 . S
C1186 C1188 1.320 . S
C1187 C1185 1.339 . S
C1187 C1186 1.395 . S
C1187 H1213 0.929 . S
C1188 C1186 1.320 . S
C1188 C1189 1.405 . S
C1188 H1214 0.930 . S
C1189 C1184 1.479 . S
C1189 C1188 1.405 . S
C1189 H1215 0.931 . S
U1190 O1191 2.454 1_455 S
U1190 O1192 2.459 1_455 S
U1190 C1193 2.985 1_455 S
U1190 C1194 2.846 . S
U1190 C1207 2.882 1_455 S
U1190 O1208 2.440 . S
U1190 O1209 2.420 . S
U1190 O1210 2.455 1_455 S
U1190 O1211 2.449 . S
O1191 U1190 2.454 1_655 S
O1191 C1193 1.353 . S
O1192 U1190 2.459 1_655 S
O1192 C1193 1.286 . S
C1193 U1190 2.985 1_655 S
C1193 O1191 1.353 . S
C1193 O1192 1.286 . S
C1193 C1195 1.363 . S
C1194 C1184 1.465 . S
C1194 U1190 2.846 . S
C1194 O1208 1.249 . S
C1194 O1209 1.202 . S
C1195 C1193 1.363 . S
C1195 C1197 1.408 . S
C1195 C1200 1.342 . S
C1196 C1197 1.310 . S
C1196 C1199 1.461 . S
C1196 H1216 0.932 . S
C1197 C1195 1.408 . S
C1197 C1196 1.310 . S
C1197 H1217 0.930 . S
C1198 C1199 1.474 . S
C1198 C1200 1.285 . S
C1198 H1218 0.929 . S
C1199 C1196 1.461 . S
C1199 C1198 1.474 . S
C1200 C1195 1.342 . S
C1200 C1198 1.285 . S
C1200 H1219 0.930 . S
C1201 C1204 1.424 1_655 S
C1201 C1206 1.245 . S
C1201 C1207 1.428 . S
C1202 C1205 1.260 . S
C1202 C1206 1.477 . S
C1202 H1220 0.932 . S
C1203 C1204 1.384 . S
C1203 C1205 1.479 1_455 S
C1203 H1221 0.929 . S
C1204 C1201 1.424 1_455 S
C1204 C1203 1.384 . S
C1204 H1222 0.928 . S
C1205 C1202 1.260 . S
C1205 C1203 1.479 1_655 S
C1206 C1201 1.245 . S
C1206 C1202 1.477 . S
C1206 H1223 0.932 . S
C1207 U1190 2.882 1_655 S
C1207 C1201 1.428 . S
C1207 O1210 1.301 . S
C1207 O1211 1.282 1_655 S
O1208 U1190 2.440 . S
O1208 C1194 1.249 . S
O1209 U1190 2.420 . S
O1209 C1194 1.202 . S
O1210 U1190 2.455 1_655 S
O1210 C1207 1.301 . S
O1211 U1190 2.449 . S
O1211 C1207 1.282 1_455 S
H1212 C1185 0.931 . S
H1213 C1187 0.929 . S
H1214 C1188 0.930 . S
H1215 C1189 0.931 . S
H1216 C1196 0.932 . S
H1217 C1197 0.930 . S
H1218 C1198 0.929 . S
H1219 C1200 0.930 . S
H1220 C1202 0.932 . S
H1221 C1203 0.929 . S
H1222 C1204 0.928 . S
H1223 C1206 0.932 . S
C1186 C8 2.325 . S
C1066 C19 2.108 . S
C1146 C30 1.948 1_565 S
C1106 C41 2.419 . S
C826 C52 2.325 . S
C63 C866 2.419 . S
C746 C74 2.107 . S
C85 C786 1.948 1_554 S
C1026 C96 2.325 . S
C107 C946 2.419 . S
C118 C906 2.107 . S
C986 C129 1.948 1_655 S
C706 C140 2.429 . S
C151 C586 2.102 . S
C666 C162 2.102 1_545 S
C173 C626 2.352 . S
C346 C184 2.429 . S
C386 C195 2.352 . S
C206 C266 2.102 . S
C217 C306 2.102 1_556 S
C228 C546 2.429 . S
C239 C466 2.352 . S
C426 C250 2.102 . S
C261 C506 2.102 1_655 S
C285 C7 2.459 . S
C325 C18 3.019 . S
C29 C365 2.413 1_565 S
C40 C405 1.756 . S
C445 C51 2.459 . S
C62 C485 1.757 . S
C525 C73 3.019 . S
C565 C84 2.413 1_554 S
C605 C95 2.460 . S
C106 C645 1.756 . S
C117 C685 3.019 . S
C128 C725 2.413 1_655 S
C139 C765 1.886 . S
C150 C805 2.429 . S
C161 C845 1.812 1_545 S
C172 C885 1.216 . S
C183 C925 1.886 . S
C965 C194 1.216 . S
C1005 C205 2.429 . S
C1045 C216 1.812 1_556 S
C1085 C227 1.886 . S
C238 C1125 1.216 . S
C249 C1165 2.429 . S
C260 C1205 1.812 1_455 S
C5 C599 2.297 . S
C719 C16 2.461 . S
C27 C639 2.121 . S
C679 C38 3.149 1_565 S
C49 C279 2.297 . S
C60 C319 3.149 1_554 S
C71 C359 2.461 . S
C82 C399 2.121 . S
C439 C93 2.297 . S
C519 C104 3.149 1_655 S
C115 C559 2.461 . S
C126 C479 2.121 . S
C1079 C137 2.249 . S
C1199 C148 2.274 . S
C159 C1119 2.145 1_565 S
C1159 C170 2.669 . S
C181 C759 2.249 . S
C192 C799 2.669 . S
C203 C839 2.274 . S
C879 C214 2.145 1_554 S
C919 C225 2.249 . S
C999 C236 2.669 . S
C247 C1039 2.274 . S
C959 C258 2.145 1_455 S
