# Generated by pormake.
# Topology gar, (4,6)-cn, num edge types: 1
# Building blocks:
#     Node 0, Type 0, BuildingBlock: QUQFOY_clean_sbu_1, # of connection points: 4
#     Node 1, Type 0, BuildingBlock: QUQFOY_clean_sbu_1, # of connection points: 4
#     Node 2, Type 0, BuildingBlock: QUQFOY_clean_sbu_1, # of connection points: 4
#     Node 3, Type 0, BuildingBlock: QUQFOY_clean_sbu_1, # of connection points: 4
#     Node 4, Type 0, BuildingBlock: QUQFOY_clean_sbu_1, # of connection points: 4
#     Node 5, Type 0, BuildingBlock: QUQFOY_clean_sbu_1, # of connection points: 4
#     Node 6, Type 0, BuildingBlock: QUQFOY_clean_sbu_1, # of connection points: 4
#     Node 7, Type 0, BuildingBlock: QUQFOY_clean_sbu_1, # of connection points: 4
#     Node 8, Type 0, BuildingBlock: QUQFOY_clean_sbu_1, # of connection points: 4
#     Node 9, Type 0, BuildingBlock: QUQFOY_clean_sbu_1, # of connection points: 4
#     Node 10, Type 0, BuildingBlock: QUQFOY_clean_sbu_1, # of connection points: 4
#     Node 11, Type 0, BuildingBlock: QUQFOY_clean_sbu_1, # of connection points: 4
#     Node 12, Type 0, BuildingBlock: QUQFOY_clean_sbu_1, # of connection points: 4
#     Node 13, Type 0, BuildingBlock: QUQFOY_clean_sbu_1, # of connection points: 4
#     Node 14, Type 0, BuildingBlock: QUQFOY_clean_sbu_1, # of connection points: 4
#     Node 15, Type 0, BuildingBlock: QUQFOY_clean_sbu_1, # of connection points: 4
#     Node 16, Type 0, BuildingBlock: QUQFOY_clean_sbu_1, # of connection points: 4
#     Node 17, Type 0, BuildingBlock: QUQFOY_clean_sbu_1, # of connection points: 4
#     Node 18, Type 0, BuildingBlock: QUQFOY_clean_sbu_1, # of connection points: 4
#     Node 19, Type 0, BuildingBlock: QUQFOY_clean_sbu_1, # of connection points: 4
#     Node 20, Type 0, BuildingBlock: QUQFOY_clean_sbu_1, # of connection points: 4
#     Node 21, Type 0, BuildingBlock: QUQFOY_clean_sbu_1, # of connection points: 4
#     Node 22, Type 0, BuildingBlock: QUQFOY_clean_sbu_1, # of connection points: 4
#     Node 23, Type 0, BuildingBlock: QUQFOY_clean_sbu_1, # of connection points: 4
#     Node 24, Type 1, BuildingBlock: PAMTUU_clean_sbu_0, # of connection points: 6
#     Node 25, Type 1, BuildingBlock: PAMTUU_clean_sbu_0, # of connection points: 6
#     Node 26, Type 1, BuildingBlock: PAMTUU_clean_sbu_0, # of connection points: 6
#     Node 27, Type 1, BuildingBlock: PAMTUU_clean_sbu_0, # of connection points: 6
#     Node 28, Type 1, BuildingBlock: PAMTUU_clean_sbu_0, # of connection points: 6
#     Node 29, Type 1, BuildingBlock: PAMTUU_clean_sbu_0, # of connection points: 6
#     Node 30, Type 1, BuildingBlock: PAMTUU_clean_sbu_0, # of connection points: 6
#     Node 31, Type 1, BuildingBlock: PAMTUU_clean_sbu_0, # of connection points: 6
#     Node 32, Type 1, BuildingBlock: PAMTUU_clean_sbu_0, # of connection points: 6
#     Node 33, Type 1, BuildingBlock: PAMTUU_clean_sbu_0, # of connection points: 6
#     Node 34, Type 1, BuildingBlock: PAMTUU_clean_sbu_0, # of connection points: 6
#     Node 35, Type 1, BuildingBlock: PAMTUU_clean_sbu_0, # of connection points: 6
#     Node 36, Type 1, BuildingBlock: PAMTUU_clean_sbu_0, # of connection points: 6
#     Node 37, Type 1, BuildingBlock: PAMTUU_clean_sbu_0, # of connection points: 6
#     Node 38, Type 1, BuildingBlock: PAMTUU_clean_sbu_0, # of connection points: 6
#     Node 39, Type 1, BuildingBlock: PAMTUU_clean_sbu_0, # of connection points: 6
#     Edge 40, Type (0, 1), BuildingBlock: XIVTED_clean_linker_0, # of connection points: 2
#     Edge 41, Type (0, 1), BuildingBlock: XIVTED_clean_linker_0, # of connection points: 2
#     Edge 42, Type (0, 1), BuildingBlock: XIVTED_clean_linker_0, # of connection points: 2
#     Edge 43, Type (0, 1), BuildingBlock: XIVTED_clean_linker_0, # of connection points: 2
#     Edge 44, Type (0, 1), BuildingBlock: XIVTED_clean_linker_0, # of connection points: 2
#     Edge 45, Type (0, 1), BuildingBlock: XIVTED_clean_linker_0, # of connection points: 2
#     Edge 46, Type (0, 1), BuildingBlock: XIVTED_clean_linker_0, # of connection points: 2
#     Edge 47, Type (0, 1), BuildingBlock: XIVTED_clean_linker_0, # of connection points: 2
#     Edge 48, Type (0, 1), BuildingBlock: XIVTED_clean_linker_0, # of connection points: 2
#     Edge 49, Type (0, 1), BuildingBlock: XIVTED_clean_linker_0, # of connection points: 2
#     Edge 50, Type (0, 1), BuildingBlock: XIVTED_clean_linker_0, # of connection points: 2
#     Edge 51, Type (0, 1), BuildingBlock: XIVTED_clean_linker_0, # of connection points: 2
#     Edge 52, Type (0, 1), BuildingBlock: XIVTED_clean_linker_0, # of connection points: 2
#     Edge 53, Type (0, 1), BuildingBlock: XIVTED_clean_linker_0, # of connection points: 2
#     Edge 54, Type (0, 1), BuildingBlock: XIVTED_clean_linker_0, # of connection points: 2
#     Edge 55, Type (0, 1), BuildingBlock: XIVTED_clean_linker_0, # of connection points: 2
#     Edge 56, Type (0, 1), BuildingBlock: XIVTED_clean_linker_0, # of connection points: 2
#     Edge 57, Type (0, 1), BuildingBlock: XIVTED_clean_linker_0, # of connection points: 2
#     Edge 58, Type (0, 1), BuildingBlock: XIVTED_clean_linker_0, # of connection points: 2
#     Edge 59, Type (0, 1), BuildingBlock: XIVTED_clean_linker_0, # of connection points: 2
#     Edge 60, Type (0, 1), BuildingBlock: XIVTED_clean_linker_0, # of connection points: 2
#     Edge 61, Type (0, 1), BuildingBlock: XIVTED_clean_linker_0, # of connection points: 2
#     Edge 62, Type (0, 1), BuildingBlock: XIVTED_clean_linker_0, # of connection points: 2
#     Edge 63, Type (0, 1), BuildingBlock: XIVTED_clean_linker_0, # of connection points: 2
#     Edge 64, Type (0, 1), BuildingBlock: XIVTED_clean_linker_0, # of connection points: 2
#     Edge 65, Type (0, 1), BuildingBlock: XIVTED_clean_linker_0, # of connection points: 2
#     Edge 66, Type (0, 1), BuildingBlock: XIVTED_clean_linker_0, # of connection points: 2
#     Edge 67, Type (0, 1), BuildingBlock: XIVTED_clean_linker_0, # of connection points: 2
#     Edge 68, Type (0, 1), BuildingBlock: XIVTED_clean_linker_0, # of connection points: 2
#     Edge 69, Type (0, 1), BuildingBlock: XIVTED_clean_linker_0, # of connection points: 2
#     Edge 70, Type (0, 1), BuildingBlock: XIVTED_clean_linker_0, # of connection points: 2
#     Edge 71, Type (0, 1), BuildingBlock: XIVTED_clean_linker_0, # of connection points: 2
#     Edge 72, Type (0, 1), BuildingBlock: XIVTED_clean_linker_0, # of connection points: 2
#     Edge 73, Type (0, 1), BuildingBlock: XIVTED_clean_linker_0, # of connection points: 2
#     Edge 74, Type (0, 1), BuildingBlock: XIVTED_clean_linker_0, # of connection points: 2
#     Edge 75, Type (0, 1), BuildingBlock: XIVTED_clean_linker_0, # of connection points: 2
#     Edge 76, Type (0, 1), BuildingBlock: XIVTED_clean_linker_0, # of connection points: 2
#     Edge 77, Type (0, 1), BuildingBlock: XIVTED_clean_linker_0, # of connection points: 2
#     Edge 78, Type (0, 1), BuildingBlock: XIVTED_clean_linker_0, # of connection points: 2
#     Edge 79, Type (0, 1), BuildingBlock: XIVTED_clean_linker_0, # of connection points: 2
#     Edge 80, Type (0, 1), BuildingBlock: XIVTED_clean_linker_0, # of connection points: 2
#     Edge 81, Type (0, 1), BuildingBlock: XIVTED_clean_linker_0, # of connection points: 2
#     Edge 82, Type (0, 1), BuildingBlock: XIVTED_clean_linker_0, # of connection points: 2
#     Edge 83, Type (0, 1), BuildingBlock: XIVTED_clean_linker_0, # of connection points: 2
#     Edge 84, Type (0, 1), BuildingBlock: XIVTED_clean_linker_0, # of connection points: 2
#     Edge 85, Type (0, 1), BuildingBlock: XIVTED_clean_linker_0, # of connection points: 2
#     Edge 86, Type (0, 1), BuildingBlock: XIVTED_clean_linker_0, # of connection points: 2
#     Edge 87, Type (0, 1), BuildingBlock: XIVTED_clean_linker_0, # of connection points: 2
#     Edge 88, Type (0, 1), BuildingBlock: XIVTED_clean_linker_0, # of connection points: 2
#     Edge 89, Type (0, 1), BuildingBlock: XIVTED_clean_linker_0, # of connection points: 2
#     Edge 90, Type (0, 1), BuildingBlock: XIVTED_clean_linker_0, # of connection points: 2
#     Edge 91, Type (0, 1), BuildingBlock: XIVTED_clean_linker_0, # of connection points: 2
#     Edge 92, Type (0, 1), BuildingBlock: XIVTED_clean_linker_0, # of connection points: 2
#     Edge 93, Type (0, 1), BuildingBlock: XIVTED_clean_linker_0, # of connection points: 2
#     Edge 94, Type (0, 1), BuildingBlock: XIVTED_clean_linker_0, # of connection points: 2
#     Edge 95, Type (0, 1), BuildingBlock: XIVTED_clean_linker_0, # of connection points: 2
#     Edge 96, Type (0, 1), BuildingBlock: XIVTED_clean_linker_0, # of connection points: 2
#     Edge 97, Type (0, 1), BuildingBlock: XIVTED_clean_linker_0, # of connection points: 2
#     Edge 98, Type (0, 1), BuildingBlock: XIVTED_clean_linker_0, # of connection points: 2
#     Edge 99, Type (0, 1), BuildingBlock: XIVTED_clean_linker_0, # of connection points: 2
#     Edge 100, Type (0, 1), BuildingBlock: XIVTED_clean_linker_0, # of connection points: 2
#     Edge 101, Type (0, 1), BuildingBlock: XIVTED_clean_linker_0, # of connection points: 2
#     Edge 102, Type (0, 1), BuildingBlock: XIVTED_clean_linker_0, # of connection points: 2
#     Edge 103, Type (0, 1), BuildingBlock: XIVTED_clean_linker_0, # of connection points: 2
#     Edge 104, Type (0, 1), BuildingBlock: XIVTED_clean_linker_0, # of connection points: 2
#     Edge 105, Type (0, 1), BuildingBlock: XIVTED_clean_linker_0, # of connection points: 2
#     Edge 106, Type (0, 1), BuildingBlock: XIVTED_clean_linker_0, # of connection points: 2
#     Edge 107, Type (0, 1), BuildingBlock: XIVTED_clean_linker_0, # of connection points: 2
#     Edge 108, Type (0, 1), BuildingBlock: XIVTED_clean_linker_0, # of connection points: 2
#     Edge 109, Type (0, 1), BuildingBlock: XIVTED_clean_linker_0, # of connection points: 2
#     Edge 110, Type (0, 1), BuildingBlock: XIVTED_clean_linker_0, # of connection points: 2
#     Edge 111, Type (0, 1), BuildingBlock: XIVTED_clean_linker_0, # of connection points: 2
#     Edge 112, Type (0, 1), BuildingBlock: XIVTED_clean_linker_0, # of connection points: 2
#     Edge 113, Type (0, 1), BuildingBlock: XIVTED_clean_linker_0, # of connection points: 2
#     Edge 114, Type (0, 1), BuildingBlock: XIVTED_clean_linker_0, # of connection points: 2
#     Edge 115, Type (0, 1), BuildingBlock: XIVTED_clean_linker_0, # of connection points: 2
#     Edge 116, Type (0, 1), BuildingBlock: XIVTED_clean_linker_0, # of connection points: 2
#     Edge 117, Type (0, 1), BuildingBlock: XIVTED_clean_linker_0, # of connection points: 2
#     Edge 118, Type (0, 1), BuildingBlock: XIVTED_clean_linker_0, # of connection points: 2
#     Edge 119, Type (0, 1), BuildingBlock: XIVTED_clean_linker_0, # of connection points: 2
#     Edge 120, Type (0, 1), BuildingBlock: XIVTED_clean_linker_0, # of connection points: 2
#     Edge 121, Type (0, 1), BuildingBlock: XIVTED_clean_linker_0, # of connection points: 2
#     Edge 122, Type (0, 1), BuildingBlock: XIVTED_clean_linker_0, # of connection points: 2
#     Edge 123, Type (0, 1), BuildingBlock: XIVTED_clean_linker_0, # of connection points: 2
#     Edge 124, Type (0, 1), BuildingBlock: XIVTED_clean_linker_0, # of connection points: 2
#     Edge 125, Type (0, 1), BuildingBlock: XIVTED_clean_linker_0, # of connection points: 2
#     Edge 126, Type (0, 1), BuildingBlock: XIVTED_clean_linker_0, # of connection points: 2
#     Edge 127, Type (0, 1), BuildingBlock: XIVTED_clean_linker_0, # of connection points: 2
#     Edge 128, Type (0, 1), BuildingBlock: XIVTED_clean_linker_0, # of connection points: 2
#     Edge 129, Type (0, 1), BuildingBlock: XIVTED_clean_linker_0, # of connection points: 2
#     Edge 130, Type (0, 1), BuildingBlock: XIVTED_clean_linker_0, # of connection points: 2
#     Edge 131, Type (0, 1), BuildingBlock: XIVTED_clean_linker_0, # of connection points: 2
#     Edge 132, Type (0, 1), BuildingBlock: XIVTED_clean_linker_0, # of connection points: 2
#     Edge 133, Type (0, 1), BuildingBlock: XIVTED_clean_linker_0, # of connection points: 2
#     Edge 134, Type (0, 1), BuildingBlock: XIVTED_clean_linker_0, # of connection points: 2
#     Edge 135, Type (0, 1), BuildingBlock: XIVTED_clean_linker_0, # of connection points: 2
# Relax obj value: 0.192
# Max RMSD: 0.342
# Mean RMSD: 0.184
data_MOF--net-gar--node1-QUQFOY_clean_sbu_1--node2-PAMTUU_clean_sbu_0--edge1-XIVTED_clean_linker_0
_symmetry_space_group_name_H-M    P1
_symmetry_Int_Tables_number       1
_symmetry_cell_setting            triclinic
loop_
_symmetry_equiv_pos_as_xyz
'x, y, z'
_cell_length_a     60.062149
_cell_length_b     56.701008
_cell_length_c     60.374733
_cell_angle_alpha  93.947986
_cell_angle_beta   94.108672
_cell_angle_gamma 109.20526
loop_
_atom_site_label
_atom_site_type_symbol
_atom_site_fract_x
_atom_site_fract_y
_atom_site_fract_z
_atom_type_partial_charge
O0 O 0.07377 0.2476 0.41596 0.0
Cd1 Cd 0.07883 0.27108 0.38866 0.0
Cd2 Cd 0.05731 0.29943 0.43376 0.0
O3 O 0.06213 0.26546 0.44528 0.0
O4 O 0.09748 0.25693 0.36532 0.0
O5 O 0.11454 0.29287 0.38468 0.0
C6 C 0.11673 0.27592 0.37033 0.0
C7 C 0.06041 0.3379 0.45754 0.0
C8 C 0.0678 0.24719 0.43608 0.0
C9 C 1.03066 0.28635 0.38368 0.0
O10 O 0.03409 0.29446 0.40441 0.0
O11 O 0.04572 0.27747 0.37469 0.0
O12 O 0.04238 0.31757 0.45654 0.0
O13 O 0.0775 0.3363 0.44634 0.0
O14 O 0.04047 0.75789 0.67455 0.0
Cd15 Cd 0.04468 0.78579 0.70201 0.0
Cd16 Cd 0.07446 0.81732 0.66328 0.0
O17 O 0.06024 0.77906 0.64805 0.0
O18 O 1.01882 0.77072 0.72443 0.0
O19 O 1.01868 0.80322 0.70762 0.0
C20 C 1.00845 0.78705 0.72103 0.0
C21 C 0.07433 0.85443 0.64284 0.0
C22 C 0.04845 0.75811 0.65528 0.0
C23 C 0.10211 0.80982 0.7081 0.0
O24 O 0.10176 0.8195 0.68939 0.0
O25 O 0.08233 0.79784 0.71595 0.0
O26 O 0.08827 0.84178 0.639 0.0
O27 O 0.06038 0.84638 0.65808 0.0
O28 O 0.61074 0.78736 0.90622 0.0
Cd29 Cd 0.5887 0.78246 0.93359 0.0
Cd30 Cd 0.56156 0.80567 0.88915 0.0
O31 O 0.59352 0.79869 0.87643 0.0
O32 O 0.60338 0.76452 0.95714 0.0
O33 O 0.56781 0.74623 0.94062 0.0
C34 C 0.58463 0.74476 0.95448 0.0
C35 C 0.52156 0.80098 0.86921 0.0
C36 C 0.61109 0.79303 0.88588 0.0
C37 C 0.57663 0.83386 0.93942 0.0
O38 O 0.56928 0.83144 0.91858 0.0
O39 O 0.58341 0.81671 0.94799 0.0
O40 O 0.54079 0.81884 0.86634 0.0
O41 O 0.52488 0.78467 0.88186 0.0
O42 O 0.5561 0.24634 0.17593 0.0
Cd43 Cd 0.55954 0.27401 0.20361 0.0
Cd44 Cd 0.58979 0.30655 0.16826 0.0
O45 O 0.57715 0.26906 0.15104 0.0
O46 O 0.53222 0.25967 0.22472 0.0
O47 O 0.53434 0.29268 0.20769 0.0
C48 C 0.52289 0.27671 0.22071 0.0
C49 C 0.588 0.34492 0.151 0.0
C50 C 0.56512 0.24755 0.15713 0.0
C51 C 0.6166 0.29796 0.21262 0.0
O52 O 0.61695 0.30829 0.19422 0.0
O53 O 0.59641 0.28559 0.2195 0.0
O54 O 0.60263 0.33355 0.14579 0.0
O55 O 0.57421 0.33478 0.16575 0.0
O56 O 0.10873 0.77084 0.14431 0.0
Cd57 Cd 0.11511 0.80342 0.16506 0.0
Cd58 Cd 0.13653 0.82364 0.12951 0.0
O59 O 0.12601 0.78677 0.11512 0.0
O60 O 0.09762 0.79019 0.19085 0.0
O61 O 0.08884 0.81746 0.17062 0.0
C62 C 0.08457 0.80376 0.18705 0.0
C63 C 0.12085 0.85345 0.11668 0.0
C64 C 0.11479 0.76784 0.12486 0.0
C65 C 0.16799 0.83263 0.17161 0.0
O66 O 0.1674 0.83559 0.15091 0.0
O67 O 0.1491 0.8212 0.18011 0.0
O68 O 0.13689 0.84766 0.10661 0.0
O69 O 0.11335 0.84189 0.13383 0.0
O70 O 0.58439 0.79256 0.45673 0.0
Cd71 Cd 0.55906 0.7872 0.47871 0.0
Cd72 Cd 0.53075 0.79539 0.44049 0.0
O73 O 0.56148 0.79523 0.42745 0.0
O74 O 0.57057 0.77129 0.50337 0.0
O75 O 0.53828 0.75141 0.48053 0.0
C76 C 0.5533 0.75086 0.49677 0.0
C77 C 0.49939 0.78621 0.41223 0.0
C78 C 0.58121 0.79478 0.43609 0.0
C79 C 0.54188 0.83129 0.48331 0.0
O80 O 0.53183 0.82439 0.46358 0.0
O81 O 0.55353 0.81896 0.49271 0.0
O82 O 0.51731 0.80647 0.41378 0.0
O83 O 0.49875 0.77079 0.42709 0.0
O84 O 0.61919 0.28639 0.64328 0.0
Cd85 Cd 0.62536 0.31668 0.66675 0.0
Cd86 Cd 0.6548 0.33859 0.63612 0.0
O87 O 0.64377 0.30311 0.61868 0.0
O88 O 0.60306 0.30121 0.68869 0.0
O89 O 0.60013 0.33274 0.67064 0.0
C90 C 0.59214 0.31679 0.68485 0.0
C91 C 0.64315 0.37145 0.62403 0.0
C92 C 0.6284 0.2842 0.62527 0.0
C93 C 0.67813 0.34086 0.68168 0.0
O94 O 0.68165 0.34618 0.66183 0.0
O95 O 0.65725 0.32981 0.68662 0.0
O96 O 0.66102 0.36671 0.61653 0.0
O97 O 0.63162 0.35713 0.63812 0.0
O98 O 0.0419 0.23109 0.95339 0.0
Cd99 Cd 0.03843 0.25808 0.93354 0.0
Cd100 Cd 1.01704 0.26877 0.96969 0.0
O101 O 1.02569 0.23979 0.98318 0.0
O102 O 0.05495 0.25167 0.90776 0.0
O103 O 0.06725 0.28757 0.92921 0.0
C104 C 0.07004 0.27392 0.91232 0.0
C105 C 1.03094 0.3105 0.98514 0.0
C106 C 0.03589 0.22658 0.97282 0.0
C107 C 0.98731 0.25575 0.92614 0.0
O108 O 0.9874 0.2597 0.94712 0.0
O109 O 1.00593 0.25514 0.91778 0.0
O110 O 1.01415 0.2937 0.99328 0.0
O111 O 0.04085 0.30322 0.96891 0.0
O112 O 0.44892 0.09136 0.2922 0.0
Cd113 Cd 0.44312 0.0839 0.32504 0.0
Cd114 Cd 0.48895 0.09379 0.32535 0.0
O115 O 0.48751 0.11049 0.29681 0.0
O116 O 0.43256 0.10664 0.34607 0.0
O117 O 0.40815 0.07462 0.32394 0.0
C118 C 0.41112 0.09278 0.33904 0.0
C119 C 0.50801 0.11373 0.35918 0.0
C120 C 0.46808 0.10354 0.28442 0.0
C121 C 0.46165 0.04174 0.32955 0.0
O122 O 0.48018 0.05528 0.32181 0.0
O123 O 0.4462 0.05115 0.33518 0.0
O124 O 0.51975 0.10835 0.3436 0.0
O125 O 0.48551 0.10927 0.35477 0.0
O126 O 0.3309 0.24253 0.58521 0.0
Cd127 Cd 0.32523 0.2189 0.5561 0.0
Cd128 Cd 0.30769 0.25422 0.54122 0.0
O129 O 0.3207 0.27384 0.57327 0.0
O130 O 0.33689 0.19241 0.56703 0.0
O131 O 0.35261 0.21477 0.54012 0.0
C132 C 0.35204 0.19702 0.55257 0.0
C133 C 0.31903 0.26432 0.5051 0.0
C134 C 0.32827 0.26374 0.58916 0.0
C135 C 0.27283 0.20312 0.54231 0.0
O136 O 0.27524 0.2261 0.54119 0.0
O137 O 0.29085 0.19646 0.54596 0.0
O138 O 0.30514 0.27395 0.51495 0.0
O139 O 0.328 0.25044 0.5164 0.0
O140 O 0.19065 0.05224 0.80771 0.0
Cd141 Cd 0.21367 0.06264 0.8366 0.0
Cd142 Cd 0.17549 0.06528 0.85359 0.0
O143 O 0.15808 0.05023 0.82308 0.0
O144 O 0.22574 0.03739 0.85081 0.0
O145 O 0.24311 0.06082 0.82505 0.0
C146 C 0.24286 0.04393 0.83827 0.0
C147 C 0.16374 0.04343 0.8837 0.0
C148 C 0.16838 0.04753 0.80599 0.0
C149 C 0.21357 0.1132 0.85569 0.0
O150 O 0.19161 0.10355 0.85756 0.0
O151 O 0.2254 0.09959 0.84927 0.0
O152 O 0.15129 0.05549 0.87448 0.0
O153 O 0.18347 0.04413 0.87602 0.0
O154 O 0.34914 0.9747 0.03791 0.0
Cd155 Cd 0.34457 0.99462 0.0117 0.0
Cd156 Cd 0.33207 0.9513 0.98783 0.0
O157 O 0.33044 0.9382 0.01883 0.0
O158 O 0.33863 0.02464 0.02453 0.0
O159 O 0.31212 0.99403 1.002 0.0
C160 C 0.31758 1.01513 0.01428 0.0
C161 C 0.30426 0.92736 0.95928 0.0
C162 C 0.34029 0.95099 0.03713 0.0
C163 C 0.37716 0.99067 0.97906 0.0
O164 O 0.36501 0.96746 0.97695 0.0
O165 O 0.37094 1.00596 0.99136 0.0
O166 O 0.31971 0.91917 0.96882 0.0
O167 O 0.30388 0.94919 0.9664 0.0
O168 O 0.31855 0.36806 0.09436 0.0
Cd169 Cd 0.32177 0.38862 0.06692 0.0
Cd170 Cd 0.33582 0.34987 0.04991 0.0
O171 O 0.32443 0.33397 0.07998 0.0
O172 O 0.30934 0.41595 0.07628 0.0
O173 O 0.29289 0.38841 0.04716 0.0
C174 C 0.29323 0.40795 0.05969 0.0
C175 C 0.32424 0.33581 0.01169 0.0
C176 C 0.31963 0.34626 0.09652 0.0
C177 C 0.37207 0.40087 0.05477 0.0
O178 O 0.36868 0.37747 0.05258 0.0
O179 O 0.35527 0.4088 0.05924 0.0
O180 O 0.33707 0.32623 0.0238 0.0
O181 O 0.31552 0.35109 0.0219 0.0
O182 O 0.84792 0.15324 0.13339 0.0
Cd183 Cd 0.82805 0.12461 0.1099 0.0
Cd184 Cd 0.81352 0.16044 0.09315 0.0
O185 O 0.83802 0.1829 0.11786 0.0
O186 O 0.84215 0.09768 0.10972 0.0
O187 O 0.83931 0.11841 0.08037 0.0
C188 C 0.8453 0.10089 0.08907 0.0
C189 C 0.81059 0.17748 0.05938 0.0
C190 C 0.84954 0.17613 0.13316 0.0
C191 C 0.7771 0.11692 0.11072 0.0
O192 O 0.78177 0.13791 0.10266 0.0
O193 O 0.79317 0.10736 0.11441 0.0
O194 O 0.80304 0.18491 0.07705 0.0
O195 O 0.82028 0.16034 0.06082 0.0
O196 O 0.18971 0.51572 0.22153 0.0
Cd197 Cd 0.21413 0.53724 0.24669 0.0
Cd198 Cd 0.17815 0.54736 0.2639 0.0
O199 O 0.16011 0.52327 0.2366 0.0
O200 O 0.24144 0.52536 0.24925 0.0
O201 O 0.21761 0.52394 0.27603 0.0
C202 C 0.23608 0.52002 0.26906 0.0
C203 C 0.15732 0.54427 0.29521 0.0
C204 C 0.16778 0.51259 0.2212 0.0
C205 C 0.21847 0.59074 0.25113 0.0
O206 O 0.19888 0.58351 0.25958 0.0
O207 O 0.22789 0.57493 0.24438 0.0
O208 O 0.15168 0.55382 0.27786 0.0
O209 O 0.17502 0.53614 0.29485 0.0
O210 O 0.80733 0.87213 0.59844 0.0
Cd211 Cd 0.81141 0.89222 0.57076 0.0
Cd212 Cd 0.82606 0.85241 0.55518 0.0
O213 O 0.8141 0.8379 0.58575 0.0
O214 O 0.79748 0.91861 0.57921 0.0
O215 O 0.78382 0.89179 0.54911 0.0
C216 C 0.78264 0.91065 0.56165 0.0
C217 C 0.81651 0.83499 0.5172 0.0
C218 C 0.8087 0.85066 0.60159 0.0
C219 C 0.86208 0.90457 0.56071 0.0
O220 O 0.85839 0.88109 0.55822 0.0
O221 O 0.84533 0.91276 0.56471 0.0
O222 O 0.82932 0.82722 0.53111 0.0
O223 O 0.8069 0.85059 0.5254 0.0
O224 O 0.93805 0.06688 0.20657 0.0
Cd225 Cd 0.92641 0.05068 0.2345 0.0
Cd226 Cd 0.97253 0.05858 0.24853 0.0
O227 O 0.97545 0.07313 0.21804 0.0
O228 O 0.89511 0.05345 0.23878 0.0
O229 O 0.92695 0.07074 0.26308 0.0
C230 C 0.90459 0.06615 0.25766 0.0
C231 C 1.00303 0.07772 0.27675 0.0
C232 C 0.9598 0.07472 0.20343 0.0
C233 C 0.93804 1.00539 0.24318 0.0
O234 O 0.95866 0.02018 0.25021 0.0
O235 O 0.92244 1.0138 0.23507 0.0
O236 O 1.00613 0.06502 0.25947 0.0
O237 O 0.98267 0.08066 0.27759 0.0
O238 O 0.33518 0.66168 0.6143 0.0
Cd239 Cd 0.32483 0.63709 0.58596 0.0
Cd240 Cd 0.31981 0.67666 0.56498 0.0
O241 O 0.3312 0.69336 0.59713 0.0
O242 O 0.33739 0.60929 0.58961 0.0
O243 O 0.34714 0.6354 0.56338 0.0
C244 C 0.34887 0.61603 0.57254 0.0
C245 C 0.33127 0.70346 0.53693 0.0
C246 C 0.33616 0.68441 0.61482 0.0
C247 C 0.27658 0.63029 0.56556 0.0
O248 O 0.28564 0.6517 0.55861 0.0
O249 O 0.28921 0.62095 0.57741 0.0
O250 O 0.31642 0.70583 0.55047 0.0
O251 O 0.34009 0.68578 0.53933 0.0
O252 O 0.46796 0.60639 0.72399 0.0
Cd253 Cd 0.44893 0.59088 0.74933 0.0
Cd254 Cd 0.48972 0.58747 0.76809 0.0
O255 O 0.5015 0.60559 0.74076 0.0
O256 O 0.41986 0.59971 0.74915 0.0
O257 O 0.44806 0.61098 0.77759 0.0
C258 C 0.42735 0.61014 0.7692 0.0
C259 C 0.51604 0.59769 0.80026 0.0
C260 C 0.49014 0.61094 0.72441 0.0
C261 C 0.44862 0.53948 0.75585 0.0
O262 O 0.47001 0.54972 0.764 0.0
O263 O 0.43687 0.55275 0.74864 0.0
O264 O 0.51982 0.58618 0.78259 0.0
O265 O 0.4975 0.60448 0.79949 0.0
O266 O 0.68497 0.02607 0.70887 0.0
Cd267 Cd 0.7142 0.04659 0.73012 0.0
Cd268 Cd 0.68161 0.05731 0.75394 0.0
O269 O 0.65835 0.03338 0.7292 0.0
O270 O 0.74024 0.03234 0.7296 0.0
O271 O 0.72004 0.03392 0.75876 0.0
C272 C 0.73696 0.02841 0.75014 0.0
C273 C 0.67456 0.05405 0.79109 0.0
C274 C 0.66349 0.02292 0.71193 0.0
C275 C 0.71976 0.10023 0.73753 0.0
O276 O 0.70099 0.09299 0.74728 0.0
O277 O 0.7285 0.0845 0.72923 0.0
O278 O 0.66297 0.064 0.77808 0.0
O279 O 0.68941 0.04481 0.78274 0.0
O280 O 0.84159 0.73643 0.09165 0.0
Cd281 Cd 0.83666 0.71222 0.06308 0.0
Cd282 Cd 0.81785 0.74804 0.04641 0.0
O283 O 0.8293 0.7663 0.07923 0.0
O284 O 0.84733 0.6859 0.07613 0.0
O285 O 0.86407 0.70588 0.04848 0.0
C286 C 0.86285 0.68901 0.06207 0.0
C287 C 0.82796 0.76099 0.01066 0.0
C288 C 0.83737 0.75684 0.09531 0.0
C289 C 0.78406 0.6963 0.04764 0.0
O290 O 0.78612 0.719 0.04526 0.0
O291 O 0.80217 0.69021 0.05282 0.0
O292 O 0.81513 0.77051 0.02225 0.0
O293 O 0.83668 0.74568 0.02009 0.0
O294 O 0.94214 0.5845 0.80929 0.0
Cd295 Cd 0.9318 0.57897 0.84126 0.0
Cd296 Cd 0.97862 0.59054 0.84878 0.0
O297 O 0.97998 0.60504 0.81888 0.0
O298 O 0.89687 0.56699 0.83489 0.0
O299 O 0.9166 0.60112 0.85728 0.0
C300 C 0.89657 0.58551 0.84825 0.0
C301 C 0.99918 0.61325 0.8812 0.0
C302 C 0.96248 0.59722 0.80408 0.0
C303 C 0.95123 0.53977 0.85591 0.0
O304 O 0.97075 0.55224 0.8491 0.0
O305 O 0.9348 0.54908 0.8568 0.0
O306 O 1.00995 0.60601 0.86575 0.0
O307 O 0.97667 0.60912 0.87738 0.0
O308 O 0.78452 0.41655 0.5586 0.0
Cd309 Cd 0.79088 0.43488 0.52993 0.0
Cd310 Cd 0.79042 0.38913 0.51626 0.0
O311 O 0.77463 0.37743 0.54416 0.0
O312 O 0.79683 0.46946 0.54335 0.0
O313 O 0.76823 0.45097 0.5165 0.0
C314 C 0.77984 0.47066 0.52985 0.0
C315 C 0.77456 0.37161 0.48073 0.0
C316 C 0.77702 0.39319 0.56084 0.0
C317 C 0.83599 0.42833 0.51796 0.0
O318 O 0.82675 0.40517 0.52019 0.0
O319 O 0.82329 0.44227 0.51796 0.0
O320 O 0.783 0.35953 0.49451 0.0
O321 O 0.7739 0.39345 0.48764 0.0
O322 O 0.63139 0.5081 0.29125 0.0
Cd323 Cd 0.66653 0.52244 0.30386 0.0
Cd324 Cd 0.64719 0.54265 0.33683 0.0
O325 O 0.6161 0.52638 0.31657 0.0
O326 O 0.68214 0.50499 0.28397 0.0
O327 O 0.68305 0.50231 0.32039 0.0
C328 C 0.68962 0.49681 0.30136 0.0
C329 C 0.64662 0.54079 0.37495 0.0
C330 C 0.61363 0.51242 0.29857 0.0
C331 C 0.68507 0.57823 0.31363 0.0
O332 O 0.67097 0.57525 0.32865 0.0
O333 O 0.68573 0.55948 0.30132 0.0
O334 O 0.63778 0.55528 0.36462 0.0
O335 O 0.65512 0.52627 0.36346 0.0
Tb336 Tb 0.08598 0.05106 0.06033 0.0
Tb337 Tb 0.03628 1.01319 0.03295 0.0
C338 C 0.03689 0.04714 0.0764 0.0
C339 C 0.14789 0.07647 0.08207 0.0
C340 C 0.18967 0.06886 0.07104 0.0
C341 C 0.18893 0.09333 0.07448 0.0
C342 C 0.16807 0.09711 0.07993 0.0
C343 C 0.14929 0.05222 0.08057 0.0
C344 C 0.17009 0.04847 0.07522 0.0
C345 C 0.12464 0.07958 0.08046 0.0
O346 O 0.07694 1.01557 0.07553 0.0
O347 O 0.05413 0.98871 0.04603 0.0
O348 O 0.06416 0.01732 0.01106 0.0
O349 O 0.09727 0.02839 0.03631 0.0
O350 O 1.00379 0.9838 0.03223 0.0
O351 O 1.01505 1.00149 1.00247 0.0
O352 O 0.03639 0.05107 0.02932 0.0
O353 O 0.07657 0.07024 0.03292 0.0
O354 O 0.05826 0.06192 0.07389 0.0
O355 O 1.02758 0.02474 0.06545 0.0
C356 C 0.06759 0.99291 0.06498 0.0
O357 O 0.11706 0.08173 0.06022 0.0
O358 O 0.10816 0.06395 0.09037 0.0
C359 C 0.08638 0.01942 0.0164 0.0
C360 C 0.97509 0.99252 0.00899 0.0
C361 C 0.93432 1.00606 0.01249 0.0
C362 C 0.93336 0.98116 0.01442 0.0
C363 C 0.95364 0.97445 0.01269 0.0
C364 C 0.97564 0.01697 1.00558 0.0
C365 C 0.95545 0.02363 1.00723 0.0
C366 C 0.99735 0.98702 0.01186 0.0
C367 C 0.05515 0.07026 0.02683 0.0
H368 H 0.2038 0.10935 0.07131 0.0
H369 H 0.16713 0.1159 0.08072 0.0
H370 H 0.13382 0.03599 0.08189 0.0
H371 H 0.1704 0.02945 0.07306 0.0
H372 H 0.91725 0.96718 0.01829 0.0
H373 H 0.95289 0.95553 0.01543 0.0
H374 H 0.992 0.0314 1.0029 0.0
H375 H 0.95695 0.04305 1.006 0.0
Tb376 Tb 0.33148 0.81723 0.30316 0.0
Tb377 Tb 0.3585 0.81706 0.25766 0.0
C378 C 0.31434 0.83591 0.25951 0.0
C379 C 0.31961 0.81106 0.3616 0.0
C380 C 0.3313 0.7961 0.4031 0.0
C381 C 0.30957 0.80012 0.39858 0.0
C382 C 0.30375 0.80746 0.37794 0.0
C383 C 0.34164 0.80791 0.36625 0.0
C384 C 0.34742 0.80042 0.38682 0.0
C385 C 0.31231 0.81576 0.3391 0.0
O386 O 0.30898 0.78757 0.27878 0.0
O387 O 0.33861 0.77861 0.26235 0.0
O388 O 0.3812 0.80902 0.28361 0.0
O389 O 0.35436 0.79517 0.30927 0.0
O390 O 0.35707 0.8027 0.22443 0.0
O391 O 0.38869 0.83108 0.24064 0.0
O392 O 0.368 0.8554 0.27228 0.0
O393 O 0.36582 0.84665 0.30849 0.0
O394 O 0.31713 0.83885 0.28144 0.0
O395 O 0.32618 0.82461 0.24776 0.0
C396 C 0.31675 0.77175 0.26757 0.0
O397 O 0.32533 0.83649 0.33184 0.0
O398 O 0.30759 0.79666 0.32414 0.0
C399 C 0.37492 0.79783 0.30168 0.0
C400 C 0.37685 0.83482 0.20354 0.0
C401 C 0.37094 0.86234 0.16789 0.0
C402 C 0.37904 0.84185 0.16449 0.0
C403 C 0.38197 0.82817 0.18222 0.0
C404 C 0.36913 0.85547 0.20708 0.0
C405 C 0.36628 0.86917 0.18943 0.0
C406 C 0.3775 0.81912 0.2217 0.0
C407 C 0.37455 0.86199 0.29359 0.0
H408 H 0.29666 0.79664 0.41066 0.0
H409 H 0.2866 0.80959 0.37451 0.0
H410 H 0.35409 0.81064 0.35377 0.0
H411 H 0.36437 0.79771 0.38989 0.0
H412 H 0.38295 0.8363 0.14809 0.0
H413 H 0.38774 0.81213 0.17921 0.0
H414 H 0.36473 0.86061 0.2234 0.0
H415 H 0.35968 0.8846 0.19251 0.0
Tb416 Tb 0.54517 0.05398 0.54781 0.0
Tb417 Tb 0.59946 0.06241 0.53326 0.0
C418 C 0.5823 0.03909 0.57723 0.0
C419 C 0.48821 0.06413 0.55459 0.0
C420 C 0.4583 0.09303 0.54928 0.0
C421 C 0.4549 0.07577 0.56548 0.0
C422 C 0.46969 0.06142 0.56804 0.0
C423 C 0.49188 0.08139 0.5385 0.0
C424 C 0.47697 0.09565 0.53579 0.0
C425 C 0.50416 0.04965 0.55815 0.0
O426 O 0.56316 0.09423 0.55078 0.0
O427 O 0.60201 0.09577 0.5551 0.0
O428 O 0.58466 0.08306 0.51097 0.0
O429 O 0.54526 0.06115 0.51303 0.0
O430 O 0.63601 0.07367 0.54264 0.0
O431 O 0.62172 0.05876 0.50882 0.0
O432 O 0.57638 0.0262 0.51715 0.0
O433 O 0.54631 1.01647 0.54009 0.0
O434 O 0.56602 0.04982 0.57713 0.0
O435 O 0.59434 0.03838 0.5601 0.0
C436 C 0.58569 0.10643 0.55693 0.0
O437 O 0.50832 0.03801 0.54036 0.0
O438 O 0.52347 0.06117 0.57125 0.0
C439 C 0.56221 0.07708 0.50361 0.0
C440 C 0.65277 0.0466 0.52464 0.0
C441 C 0.67786 1.01275 0.52956 0.0
C442 C 0.6866 0.03371 0.5175 0.0
C443 C 0.67419 0.05059 0.51516 0.0
C444 C 0.6436 0.02522 0.53597 0.0
C445 C 0.65607 1.00854 0.53852 0.0
C446 C 0.64027 0.06495 0.52343 0.0
C447 C 0.55871 1.00978 0.52537 0.0
H448 H 0.44108 0.07364 0.57651 0.0
H449 H 0.46684 0.04841 0.58074 0.0
H450 H 0.50632 0.0839 0.52814 0.0
H451 H 0.47999 0.10858 0.52304 0.0
H452 H 0.70341 0.03748 0.51053 0.0
H453 H 0.68149 0.06696 0.50631 0.0
H454 H 0.62696 0.02164 0.54319 0.0
H455 H 0.64875 0.9924 0.54765 0.0
Tb456 Tb 0.35654 0.31351 0.80319 0.0
Tb457 Tb 0.30895 0.32974 0.79517 0.0
C458 C 0.30589 0.27673 0.8099 0.0
C459 C 0.41368 0.30419 0.79479 0.0
C460 C 0.45199 0.30726 0.76951 0.0
C461 C 0.45225 0.30018 0.7914 0.0
C462 C 0.43324 0.29865 0.80391 0.0
C463 C 0.41331 0.31148 0.77306 0.0
C464 C 0.43234 0.31301 0.7605 0.0
C465 C 0.39389 0.30252 0.80817 0.0
O466 O 0.34195 0.29989 0.76857 0.0
O467 O 0.32115 0.3266 0.76211 0.0
O468 O 0.33936 0.36382 0.79967 0.0
O469 O 0.36739 0.3482 0.78762 0.0
O470 O 0.27603 0.3243 0.77741 0.0
O471 O 0.29132 0.35517 0.80299 0.0
O472 O 0.31233 0.32626 0.83098 0.0
O473 O 0.35166 0.3296 0.83595 0.0
O474 O 0.3287 0.28458 0.8161 0.0
O475 O 0.29588 0.28952 0.7977 0.0
C476 C 0.3314 0.31077 0.75468 0.0
O477 O 0.39226 0.32393 0.81578 0.0
O478 O 0.37337 0.28655 0.79993 0.0
C479 C 0.35958 0.36692 0.79142 0.0
C480 C 0.25032 0.33543 0.80032 0.0
C481 C 0.20909 0.32358 0.8226 0.0
C482 C 0.21666 0.34588 0.81215 0.0
C483 C 0.23713 0.35172 0.80101 0.0
C484 C 0.24291 0.31326 0.81086 0.0
C485 C 0.22239 0.3073 0.82179 0.0
C486 C 0.2725 0.34229 0.78977 0.0
C487 C 0.33174 0.32932 0.84411 0.0
H488 H 0.46727 0.29604 0.79897 0.0
H489 H 0.43383 0.29318 0.82073 0.0
H490 H 0.39828 0.31587 0.76581 0.0
H491 H 0.43148 0.31827 0.74364 0.0
H492 H 0.20666 0.35866 0.81245 0.0
H493 H 0.24279 0.36904 0.79313 0.0
H494 H 0.25315 0.30069 0.81084 0.0
H495 H 0.21717 0.29019 0.83 0.0
Tb496 Tb 0.06373 0.06279 0.56182 0.0
Tb497 Tb 0.06916 0.03494 0.51513 0.0
C498 C 1.02081 0.02459 0.53461 0.0
C499 C 0.0706 0.07567 0.62116 0.0
C500 C 0.08967 0.06325 0.66073 0.0
C501 C 0.07454 0.07768 0.66151 0.0
C502 C 0.065 0.08382 0.64177 0.0
C503 C 0.08561 0.06128 0.62037 0.0
C504 C 0.09494 0.05502 0.63993 0.0
C505 C 0.06029 0.0808 0.60013 0.0
O506 O 0.06373 0.02511 0.56996 0.0
O507 O 0.07896 1.01151 0.53967 0.0
O508 O 0.10202 0.06566 0.52349 0.0
O509 O 0.1014 0.06924 0.56128 0.0
O510 O 0.05129 1.01274 0.48596 0.0
O511 O 0.08952 0.02584 0.49098 0.0
O512 O 0.05978 0.06802 0.50538 0.0
O513 O 0.06605 0.09215 0.53892 0.0
O514 O 1.02876 0.04782 0.54362 0.0
O515 O 0.03549 1.01439 0.52658 0.0
C516 C 0.07228 1.00877 0.56011 0.0
O517 O 0.07565 0.09275 0.58707 0.0
O518 O 0.04402 0.06136 0.58934 0.0
C519 C 0.11274 0.07402 0.54348 0.0
C520 C 0.07172 0.02929 0.45572 0.0
C521 C 0.07423 0.05558 0.4174 0.0
C522 C 0.09059 0.04322 0.42239 0.0
C523 C 0.08933 0.03019 0.44143 0.0
C524 C 0.05559 0.04186 0.45081 0.0
C525 C 0.05675 0.05466 0.43189 0.0
C526 C 0.07087 0.01683 0.47647 0.0
C527 C 0.06261 0.08981 0.51688 0.0
H528 H 0.07035 0.08447 0.67734 0.0
H529 H 0.05332 0.09482 0.64258 0.0
H530 H 0.09002 0.05473 0.60457 0.0
H531 H 0.10615 0.0435 0.6387 0.0
H532 H 0.10436 0.04366 0.41163 0.0
H533 H 0.10216 0.02095 0.44506 0.0
H534 H 0.04192 0.04186 0.46158 0.0
H535 H 0.04346 0.06334 0.4284 0.0
Tb536 Tb 0.32394 0.82975 0.77965 0.0
Tb537 Tb 0.29796 0.77813 0.80051 0.0
C538 C 0.31858 0.77844 0.75384 0.0
C539 C 0.34613 0.89718 0.77775 0.0
C540 C 0.33905 0.93972 0.79847 0.0
C541 C 0.33639 0.93518 0.77506 0.0
C542 C 0.33988 0.91401 0.76478 0.0
C543 C 0.35041 0.90268 0.80106 0.0
C544 C 0.34693 0.92378 0.81131 0.0
C545 C 0.34479 0.87242 0.76743 0.0
O546 O 0.28545 0.82462 0.77274 0.0
O547 O 0.26832 0.78332 0.77921 0.0
O548 O 0.28686 0.80632 0.81783 0.0
O549 O 0.31909 0.84008 0.81376 0.0
O550 O 0.27762 0.73982 0.79709 0.0
O551 O 0.29002 0.7603 0.82963 0.0
O552 O 0.33553 0.79015 0.81585 0.0
O553 O 0.35333 0.8159 0.79012 0.0
O554 O 0.31859 0.80136 0.75224 0.0
O555 O 0.31459 0.76762 0.77238 0.0
C556 C 0.26639 0.80416 0.7718 0.0
O557 O 0.35536 0.8601 0.77918 0.0
O558 O 0.32379 0.85807 0.75887 0.0
C559 C 0.3 0.82964 0.82351 0.0
C560 C 0.29124 0.71904 0.82477 0.0
C561 C 0.31768 0.68667 0.83054 0.0
C562 C 0.32236 0.70835 0.84533 0.0
C563 C 0.3093 0.72442 0.84246 0.0
C564 C 0.28509 0.69621 0.81137 0.0
C565 C 0.29824 0.68024 0.81412 0.0
C566 C 0.28086 0.73819 0.81849 0.0
C567 C 0.35507 0.80275 0.80704 0.0
H568 H 0.33011 0.94705 0.76475 0.0
H569 H 0.33638 0.91003 0.74681 0.0
H570 H 0.35523 0.89001 0.81154 0.0
H571 H 0.34938 0.92702 0.82935 0.0
H572 H 0.33686 0.71356 0.85845 0.0
H573 H 0.31426 0.74169 0.85338 0.0
H574 H 0.27109 0.69146 0.79778 0.0
H575 H 0.29418 0.66381 0.80228 0.0
Tb576 Tb 0.55579 0.02478 0.06521 0.0
Tb577 Tb 0.58966 0.05799 0.03218 0.0
C578 C 0.60984 0.04298 0.07489 0.0
C579 C 0.51886 1.01246 0.11116 0.0
C580 C 0.50215 0.03842 0.14401 0.0
C581 C 0.52659 0.04283 0.14361 0.0
C582 C 0.53487 0.03015 0.12724 0.0
C583 C 0.49447 1.0073 0.11201 0.0
C584 C 0.48618 0.02022 0.12818 0.0
C585 C 0.52717 1.00241 0.09147 0.0
O586 O 0.55394 0.06304 0.07271 0.0
O587 O 0.58789 0.08617 0.05871 0.0
O588 O 0.55387 0.05696 0.02313 0.0
O589 O 0.53751 0.0174 0.03194 0.0
O590 O 0.62271 0.08343 0.0265 0.0
O591 O 0.59315 0.07149 1.00083 0.0
O592 O 0.58212 0.01875 0.01721 0.0
O593 O 0.56828 0.99678 0.04704 0.0
O594 O 0.59045 0.04269 0.08358 0.0
O595 O 0.61069 0.04236 0.05331 0.0
C596 C 0.57034 0.08499 0.07109 0.0
O597 O 0.52077 1.00972 0.0728 0.0
O598 O 0.54934 1.00357 0.0928 0.0
C599 C 0.53691 0.03537 0.01981 0.0
C600 C 0.63087 0.0819 0.98882 0.0
C601 C 0.65403 0.07455 0.95145 0.0
C602 C 0.64817 0.09648 0.95526 0.0
C603 C 0.63679 0.10012 0.97381 0.0
C604 C 0.63741 0.06041 0.98579 0.0
C605 C 0.64907 0.05682 0.96726 0.0
C606 C 0.6155 0.08449 1.00581 0.0
C607 C 0.57584 0.99742 0.02685 0.0
H608 H 0.53942 0.05625 0.15583 0.0
H609 H 0.55382 0.03479 0.12679 0.0
H610 H 0.48183 0.99405 0.0995 0.0
H611 H 0.46727 1.01651 0.12774 0.0
H612 H 0.65112 0.1103 0.9433 0.0
H613 H 0.63158 0.11665 0.97584 0.0
H614 H 0.63274 0.04607 0.99726 0.0
H615 H 0.65354 0.03987 0.96498 0.0
Tb616 Tb 0.30944 0.25137 0.28852 0.0
Tb617 Tb 0.33334 0.3099 0.30413 0.0
C618 C 0.31315 0.29146 0.25373 0.0
C619 C 0.28124 0.18407 0.29312 0.0
C620 C 0.28254 0.14974 0.32401 0.0
C621 C 0.28054 0.1426 0.30093 0.0
C622 C 0.28007 0.15978 0.28559 0.0
C623 C 0.27918 0.18981 0.31571 0.0
C624 C 0.27981 0.17268 0.33112 0.0
C625 C 0.29189 0.20443 0.27945 0.0
O626 O 0.34806 0.25876 0.28532 0.0
O627 O 0.36241 0.30169 0.28779 0.0
O628 O 0.34399 0.28983 0.33038 0.0
O629 O 0.31103 0.25557 0.32492 0.0
O630 O 0.35069 0.34721 0.29794 0.0
O631 O 0.34396 0.33763 0.33126 0.0
O632 O 0.29646 0.3015 0.31413 0.0
O633 O 0.2781 0.26195 0.29639 0.0
O634 O 0.31275 0.26871 0.2572 0.0
O635 O 0.31575 0.30852 0.27061 0.0
C636 C 0.3654 0.27987 0.28294 0.0
O637 O 0.28035 0.2197 0.27513 0.0
O638 O 0.31414 0.21649 0.28592 0.0
C639 C 0.32849 0.2711 0.33842 0.0
C640 C 0.3415 0.37602 0.32205 0.0
C641 C 0.32303 0.41539 0.3267 0.0
C642 C 0.34731 0.41986 0.33225 0.0
C643 C 0.35648 0.40025 0.32994 0.0
C644 C 0.31719 0.37129 0.31717 0.0
C645 C 0.308 0.39081 0.3195 0.0
C646 C 0.35125 0.35575 0.31862 0.0
C647 C 0.27694 0.28179 0.30859 0.0
H648 H 0.28256 0.1251 0.29478 0.0
H649 H 0.2817 0.15507 0.26821 0.0
H650 H 0.2799 0.20848 0.3218 0.0
H651 H 0.28086 0.17851 0.34875 0.0
H652 H 0.35926 0.43857 0.33797 0.0
H653 H 0.37529 0.40407 0.33392 0.0
H654 H 0.30541 0.35262 0.31106 0.0
H655 H 0.28931 0.38682 0.3147 0.0
Tb656 Tb 0.5741 0.55709 0.07766 0.0
Tb657 Tb 0.58664 0.53245 0.03223 0.0
C658 C 0.53484 0.51845 0.04521 0.0
C659 C 0.55214 0.56214 0.13209 0.0
C660 C 0.53671 0.53646 0.1694 0.0
C661 C 0.5493 0.56245 0.17188 0.0
C662 C 0.55695 0.57516 0.15336 0.0
C663 C 0.53832 0.53659 0.12928 0.0
C664 C 0.53053 0.52388 0.14778 0.0
C665 C 0.56374 0.57447 0.11341 0.0
O666 O 0.5823 0.52351 0.08836 0.0
O667 O 0.58447 0.50285 0.05472 0.0
O668 O 0.61911 0.54838 0.05437 0.0
O669 O 0.60915 0.57998 0.07107 0.0
O670 O 0.5784 0.50417 1.00554 0.0
O671 O 0.61085 0.53576 1.00827 0.0
O672 O 0.58785 0.57044 0.0243 0.0
O673 O 0.56747 0.58104 0.05187 0.0
O674 O 0.54345 0.52526 0.06597 0.0
O675 O 0.54828 0.52411 0.02882 0.0
C676 C 0.58394 0.50349 0.07662 0.0
O677 O 0.58447 0.57241 0.11091 0.0
O678 O 0.55048 0.5702 0.09448 0.0
C679 C 0.62525 0.57132 0.06393 0.0
C680 C 0.59004 0.5239 0.97297 0.0
C681 C 0.58092 0.547 0.93517 0.0
C682 C 0.60363 0.54575 0.94066 0.0
C683 C 0.60814 0.53427 0.95943 0.0
C684 C 0.56709 0.52409 0.96686 0.0
C685 C 0.56256 0.53538 0.94809 0.0
C686 C 0.59605 0.51717 0.99517 0.0
C687 C 0.57739 0.5856 0.03297 0.0
H688 H 0.55475 0.57271 0.18826 0.0
H689 H 0.56771 0.59485 0.15579 0.0
H690 H 0.53448 0.5262 0.11292 0.0
H691 H 0.52068 0.50396 0.14526 0.0
H692 H 0.61815 0.55458 0.93106 0.0
H693 H 0.62603 0.53464 0.96403 0.0
H694 H 0.55279 0.51648 0.97709 0.0
H695 H 0.54474 0.53547 0.94398 0.0
Tb696 Tb 0.83608 0.32163 0.29375 0.0
Tb697 Tb 0.81084 0.26653 0.30939 0.0
C698 C 0.83788 0.27314 0.26606 0.0
C699 C 0.84123 0.38476 0.28161 0.0
C700 C 0.813 0.41575 0.2832 0.0
C701 C 0.80705 0.39495 0.26717 0.0
C702 C 0.82096 0.37958 0.2664 0.0
C703 C 0.848 0.40641 0.29675 0.0
C704 C 0.83394 0.42174 0.29761 0.0
C705 C 0.85309 0.36594 0.28404 0.0
O706 O 0.79973 0.30974 0.27591 0.0
O707 O 0.78048 0.27801 0.2965 0.0
O708 O 0.8176 0.29419 0.33758 0.0
O709 O 0.81309 0.32562 0.31886 0.0
O710 O 0.78829 0.22898 0.30331 0.0
O711 O 0.80348 0.24508 0.33657 0.0
O712 O 0.84918 0.2711 0.3144 0.0
O713 O 0.86442 0.31401 0.3153 0.0
O714 O 0.84727 0.29747 0.27104 0.0
O715 O 0.82133 0.25874 0.27695 0.0
C716 C 0.77968 0.29401 0.28167 0.0
O717 O 0.85509 0.35949 0.30425 0.0
O718 O 0.84608 0.34644 0.26919 0.0
C719 C 0.81115 0.31392 0.33683 0.0
C720 C 0.80032 0.2034 0.32687 0.0
C721 C 0.8167 0.16239 0.3279 0.0
C722 C 0.79232 0.15868 0.32753 0.0
C723 C 0.78418 0.17911 0.327 0.0
C724 C 0.82466 0.20725 0.32817 0.0
C725 C 0.83279 0.18697 0.32872 0.0
C726 C 0.79187 0.22454 0.32391 0.0
C727 C 0.8674 0.29225 0.31866 0.0
H728 H 0.79088 0.38969 0.25601 0.0
H729 H 0.81509 0.36294 0.25462 0.0
H730 H 0.86351 0.41076 0.30866 0.0
H731 H 0.83908 0.43786 0.30995 0.0
H732 H 0.77953 0.13996 0.32699 0.0
H733 H 0.76531 0.17587 0.32602 0.0
H734 H 0.83741 0.22587 0.32799 0.0
H735 H 0.85162 0.19052 0.32851 0.0
Tb736 Tb 0.05588 0.53846 0.5781 0.0
Tb737 Tb 0.05075 0.55847 0.52999 0.0
C738 C 0.1005 0.56307 0.55289 0.0
C739 C 0.04278 0.53111 0.63484 0.0
C740 C 1.02036 0.54984 0.66767 0.0
C741 C 0.04145 0.54496 0.67343 0.0
C742 C 0.05259 0.53567 0.6571 0.0
C743 C 1.02138 0.5353 0.62916 0.0
C744 C 1.01019 0.54444 0.64546 0.0
C745 C 0.05636 0.52569 0.61714 0.0
O746 O 0.0445 0.57161 0.5844 0.0
O747 O 0.05765 0.59189 0.55404 0.0
O748 O 1.01639 0.54923 0.54249 0.0
O749 O 1.02049 0.51829 0.56249 0.0
O750 O 0.06161 0.58605 0.50791 0.0
O751 O 1.03146 0.55243 0.49847 0.0
O752 O 0.04753 0.51837 0.5231 0.0
O753 O 0.0655 0.51152 0.55579 0.0
O754 O 0.09165 0.55992 0.57212 0.0
O755 O 0.08712 0.55947 0.53403 0.0
C756 C 0.05067 0.5924 0.57426 0.0
O757 O 0.04401 0.51071 0.6 0.0
O758 O 0.07201 0.54548 0.61102 0.0
C759 C 1.00705 0.52815 0.55115 0.0
C760 C 0.05654 0.56777 0.471 0.0
C761 C 0.07518 0.55785 0.43135 0.0
C762 C 0.05274 0.56073 0.43066 0.0
C763 C 0.04353 0.56571 0.45035 0.0
C764 C 0.07875 0.56453 0.47182 0.0
C765 C 0.08806 0.55977 0.45217 0.0
C766 C 0.04649 0.57224 0.49164 0.0
C767 C 0.05715 0.50444 0.53461 0.0
H768 H 0.04951 0.54869 0.69051 0.0
H769 H 0.06926 0.53289 0.6617 0.0
H770 H 1.01376 0.53242 0.61195 0.0
H771 H 0.99411 0.54826 0.64052 0.0
H772 H 0.0422 0.55895 0.41492 0.0
H773 H 1.02621 0.56781 0.44948 0.0
H774 H 0.08897 0.56575 0.48764 0.0
H775 H 0.10551 0.55803 0.45332 0.0
Tb776 Tb 0.85237 0.78881 0.31097 0.0
Tb777 Tb 0.80545 0.80545 0.3015 0.0
C778 C 0.80096 0.75113 0.31048 0.0
C779 C 0.91081 0.78275 0.30555 0.0
C780 C 0.95106 0.79093 0.28187 0.0
C781 C 0.95045 0.78134 0.30283 0.0
C782 C 0.93045 0.77722 0.31453 0.0
C783 C 0.91154 0.79297 0.28499 0.0
C784 C 0.93142 0.79692 0.27321 0.0
C785 C 0.88937 0.7773 0.31729 0.0
O786 O 0.84959 0.7915 0.27501 0.0
O787 O 0.81056 0.78914 0.26884 0.0
O788 O 0.83358 0.83347 0.28832 0.0
O789 O 0.86537 0.82922 0.30891 0.0
O790 O 0.76961 0.79528 0.28928 0.0
O791 O 0.7894 0.83311 0.30363 0.0
O792 O 0.81884 0.81819 0.33664 0.0
O793 O 0.83828 0.79038 0.34336 0.0
O794 O 0.82202 0.75449 0.30392 0.0
O795 O 0.79401 0.77013 0.31584 0.0
C796 C 0.83051 0.78842 0.26135 0.0
O797 O 0.88622 0.79655 0.32793 0.0
O798 O 0.86997 0.76283 0.3057 0.0
C799 C 0.85608 0.8416 0.29558 0.0
C800 C 0.74975 0.81594 0.3112 0.0
C801 C 0.71319 0.81148 0.33901 0.0
C802 C 0.70853 0.80996 0.31566 0.0
C803 C 0.7267 0.81223 0.30188 0.0
C804 C 0.75451 0.8174 0.33444 0.0
C805 C 0.73645 0.81538 0.34823 0.0
C806 C 0.7685 0.817 0.29663 0.0
C807 C 0.828 0.80624 0.35069 0.0
H808 H 0.96541 0.77694 0.3102 0.0
H809 H 0.93022 0.76949 0.33046 0.0
H810 H 0.89654 0.79746 0.27785 0.0
H811 H 0.93108 0.80402 0.25704 0.0
H812 H 0.69076 0.80654 0.30798 0.0
H813 H 0.72269 0.81073 0.28395 0.0
H814 H 0.77218 0.81999 0.34193 0.0
H815 H 0.74077 0.817 0.36612 0.0
Tb816 Tb 0.82136 0.31589 0.83514 0.0
Tb817 Tb 0.85254 0.32137 0.79209 0.0
C818 C 0.80831 0.33952 0.79261 0.0
C819 C 0.7974 0.29375 0.88688 0.0
C820 C 0.79773 0.26358 0.922 0.0
C821 C 0.79075 0.28491 0.92501 0.0
C822 C 0.79057 0.29983 0.90757 0.0
C823 C 0.80423 0.27244 0.88367 0.0
C824 C 0.8043 0.25743 0.90105 0.0
C825 C 0.79908 0.31063 0.86927 0.0
O826 O 0.81342 0.27897 0.81744 0.0
O827 O 0.81823 0.29292 0.78305 0.0
O828 O 0.86433 0.29593 0.81157 0.0
O829 O 0.85114 0.30429 0.84529 0.0
O830 O 0.86002 0.30586 0.76199 0.0
O831 O 0.87875 0.34447 0.77455 0.0
O832 O 0.8743 0.34627 0.81986 0.0
O833 O 0.84404 0.35472 0.83543 0.0
O834 O 0.80049 0.32593 0.80898 0.0
O835 O 0.83015 0.34446 0.78732 0.0
C836 C 0.8091 0.2751 0.79568 0.0
O837 O 0.82003 0.32715 0.8687 0.0
O838 O 0.78959 0.30001 0.84941 0.0
C839 C 0.86377 0.29435 0.83322 0.0
C840 C 0.86482 0.33618 0.73636 0.0
C841 C 0.84101 0.34762 0.69876 0.0
C842 C 0.84798 0.32618 0.69764 0.0
C843 C 0.85975 0.3205 0.71631 0.0
C844 C 0.85883 0.35818 0.7371 0.0
C845 C 0.84703 0.36376 0.71859 0.0
C846 C 0.87303 0.32795 0.75713 0.0
C847 C 0.86659 0.36103 0.83242 0.0
H848 H 0.78602 0.29051 0.94102 0.0
H849 H 0.78558 0.31642 0.91039 0.0
H850 H 0.80981 0.26763 0.8678 0.0
H851 H 0.80953 0.24103 0.89806 0.0
H852 H 0.84404 0.3136 0.68246 0.0
H853 H 0.8641 0.30339 0.71535 0.0
H854 H 0.86219 0.3706 0.75233 0.0
H855 H 0.84167 0.38021 0.72025 0.0
Tb856 Tb 0.79738 0.76326 0.79652 0.0
Tb857 Tb 0.82337 0.82136 0.8113 0.0
C858 C 0.80105 0.80287 0.76123 0.0
C859 C 0.77672 0.69654 0.80251 0.0
C860 C 0.77966 0.65838 0.82874 0.0
C861 C 0.76143 0.65337 0.81122 0.0
C862 C 0.75998 0.6724 0.79817 0.0
C863 C 0.79407 0.70188 0.82064 0.0
C864 C 0.79555 0.68306 0.83361 0.0
C865 C 0.77649 0.71647 0.78846 0.0
O866 O 0.83573 0.76843 0.79263 0.0
O867 O 0.85071 0.81124 0.79384 0.0
O868 O 0.83612 0.80236 0.83706 0.0
O869 O 0.80491 0.76595 0.83281 0.0
O870 O 0.84286 0.85776 0.80433 0.0
O871 O 0.83454 0.84997 0.8377 0.0
O872 O 0.78783 0.81324 0.82419 0.0
O873 O 0.76747 0.77787 0.80134 0.0
O874 O 0.7991 0.77976 0.76493 0.0
O875 O 0.80536 0.82059 0.77795 0.0
C876 C 0.85315 0.78916 0.7892 0.0
O877 O 0.76652 0.7319 0.79639 0.0
O878 O 0.79673 0.72849 0.78145 0.0
C879 C 0.82287 0.78225 0.84528 0.0
C880 C 0.83658 0.88945 0.82707 0.0
C881 C 0.82289 0.93207 0.82612 0.0
C882 C 0.84702 0.93454 0.82795 0.0
C883 C 0.85382 0.9133 0.82843 0.0
C884 C 0.81255 0.88697 0.8264 0.0
C885 C 0.80575 0.90817 0.82602 0.0
C886 C 0.8437 0.86726 0.82472 0.0
C887 C 0.76735 0.79588 0.81649 0.0
H888 H 0.74884 0.63461 0.80713 0.0
H889 H 0.74625 0.66813 0.78439 0.0
H890 H 0.80714 0.72045 0.82425 0.0
H891 H 0.81017 0.68766 0.84655 0.0
H892 H 0.86054 0.95278 0.82811 0.0
H893 H 0.87246 0.9154 0.82901 0.0
H894 H 0.79904 0.86859 0.82524 0.0
H895 H 0.78701 0.90566 0.82423 0.0
Tb896 Tb 0.61339 0.57801 0.57768 0.0
Tb897 Tb 0.56344 0.53886 0.55239 0.0
C898 C 0.56609 0.56841 0.59887 0.0
C899 C 0.67666 0.61102 0.5861 0.0
C900 C 0.71485 0.60248 0.56681 0.0
C901 C 0.71209 0.59946 0.58951 0.0
C902 C 0.69312 0.60374 0.59909 0.0
C903 C 0.68106 0.61686 0.56418 0.0
C904 C 0.70002 0.61263 0.55464 0.0
C905 C 0.65324 0.60796 0.59386 0.0
O906 O 0.61635 0.54073 0.57762 0.0
O907 O 0.57682 0.51767 0.5756 0.0
O908 O 0.59139 0.53257 0.53466 0.0
O909 O 0.61846 0.57203 0.54278 0.0
O910 O 0.5301 0.51185 0.55439 0.0
O911 O 0.54201 0.5228 0.52254 0.0
O912 O 0.56858 0.57512 0.53917 0.0
O913 O 0.59192 0.60066 0.56893 0.0
O914 O 0.58845 0.57036 0.60267 0.0
O915 O 0.55428 0.56035 0.57914 0.0
C916 C 0.59919 0.51992 0.58023 0.0
O917 O 0.63859 0.61411 0.58039 0.0
O918 O 0.64282 0.58661 0.60168 0.0
C919 C 0.61036 0.5505 0.53034 0.0
C920 C 0.50237 0.51744 0.52801 0.0
C921 C 0.46154 0.53149 0.52566 0.0
C922 C 0.4597 0.50629 0.52738 0.0
C923 C 0.48001 0.49933 0.52857 0.0
C924 C 0.50411 0.54234 0.52527 0.0
C925 C 0.48391 0.54928 0.52401 0.0
C926 C 0.52396 0.51129 0.53315 0.0
C927 C 0.57773 0.5973 0.55061 0.0
H928 H 0.72319 0.59156 0.59933 0.0
H929 H 0.69019 0.59929 0.61604 0.0
H930 H 0.66888 0.62282 0.55374 0.0
H931 H 0.70201 0.61553 0.53724 0.0
H932 H 0.44266 0.49215 0.52854 0.0
H933 H 0.47838 0.48006 0.53086 0.0
H934 H 0.52122 0.55672 0.52514 0.0
H935 H 0.48604 0.5689 0.5231 0.0
Tb936 Tb 0.04493 0.53464 0.05523 0.0
Tb937 Tb 0.0993 0.54708 0.03941 0.0
C938 C 0.08469 0.52177 0.08306 0.0
C939 C 0.98754 0.54253 0.06444 0.0
C940 C 0.95937 0.57382 0.06252 0.0
C941 C 0.96473 0.56504 0.0828 0.0
C942 C 0.97862 0.54955 0.08371 0.0
C943 C 0.98202 0.55099 0.04409 0.0
C944 C 0.96809 0.56648 0.04315 0.0
C945 C 1.00372 0.5278 0.06624 0.0
O946 O 0.0609 0.57499 0.06048 0.0
O947 O 0.1006 0.57963 0.06198 0.0
O948 O 0.08327 0.56858 0.01944 0.0
O949 O 0.04423 0.54512 0.02135 0.0
O950 O 0.13598 0.55988 0.04839 0.0
O951 O 0.12162 0.54657 0.01423 0.0
O952 O 0.07703 0.51118 0.02168 0.0
O953 O 0.04834 0.49849 0.04569 0.0
O954 O 0.06721 0.53079 0.08369 0.0
O955 O 0.09633 0.52225 0.06548 0.0
C956 C 0.08329 0.58848 0.06559 0.0
O957 O 1.00811 0.51767 0.04771 0.0
O958 O 1.02291 0.5382 0.07981 0.0
C959 C 0.06067 0.56267 0.01284 0.0
C960 C 0.15539 0.5374 0.02794 0.0
C961 C 0.18502 0.50787 0.03134 0.0
C962 C 0.19457 0.5337 0.02897 0.0
C963 C 0.17988 0.54831 0.02729 0.0
C964 C 0.14564 0.51153 0.02975 0.0
C965 C 0.16033 0.49685 0.03133 0.0
C966 C 0.14051 0.55343 0.02851 0.0
C967 C 0.06039 0.49338 0.02981 0.0
H968 H 0.95863 0.57058 0.09811 0.0
H969 H 0.98279 0.54342 0.09962 0.0
H970 H 0.9886 0.54583 0.02894 0.0
H971 H 0.96404 0.57259 0.02721 0.0
H972 H 0.21348 0.54269 0.02865 0.0
H973 H 0.18771 0.56825 0.02598 0.0
H974 H 0.12676 0.50282 0.03053 0.0
H975 H 0.15244 0.47709 0.03337 0.0
H976 H 0.06986 0.20622 0.96379 0.0
H977 H 1.01523 0.08363 0.02513 0.0
H978 H 1.01147 0.19764 1.00377 0.0
H979 H 0.0882 0.10937 0.01054 0.0
H980 H 1.01119 0.12273 0.01354 0.0
H981 H 0.07486 0.16849 0.9774 0.0
C982 C 0.05816 0.19646 0.97556 0.0
C983 C 0.04021 0.20508 0.98268 0.0
C984 C 1.02807 0.11978 0.01291 0.0
C985 C 0.0456 0.16159 0.99799 0.0
C986 C 1.03036 0.0974 0.01933 0.0
C987 C 0.05209 0.09319 0.01873 0.0
C988 C 0.04752 0.13788 1.00547 0.0
C989 C 0.07113 0.11182 0.01127 0.0
C990 C 0.06107 0.17495 0.98333 0.0
C991 C 1.02562 0.19172 0.99797 0.0
N992 N 0.06835 0.13327 1.0048 0.0
N993 N 1.02845 0.17043 1.00493 0.0
H994 H 0.17497 0.83618 0.21707 0.0
H995 H 0.28251 0.85535 0.27739 0.0
H996 H 0.21307 0.8465 0.15854 0.0
H997 H 0.3031 0.83306 0.21435 0.0
H998 H 0.2484 0.8616 0.25756 0.0
H999 H 0.21185 0.84298 0.23993 0.0
C1000 C 0.19122 0.8404 0.20906 0.0
C1001 C 0.19086 0.84059 0.1858 0.0
C1002 C 0.26022 0.85513 0.24804 0.0
C1003 C 0.23358 0.84887 0.21208 0.0
C1004 C 0.27992 0.85183 0.25937 0.0
C1005 C 0.29545 0.84309 0.2476 0.0
C1006 C 0.25587 0.84941 0.22475 0.0
C1007 C 0.29138 0.83933 0.22421 0.0
C1008 C 0.21244 0.84456 0.22222 0.0
C1009 C 0.2125 0.84616 0.1764 0.0
N1010 N 0.27187 0.84227 0.21359 0.0
N1011 N 0.23292 0.84967 0.18954 0.0
H1012 H 0.5772 0.86509 0.51169 0.0
H1013 H 0.51694 0.97043 0.5233 0.0
H1014 H 0.50784 0.85329 0.47844 0.0
H1015 H 0.59137 0.98783 0.51575 0.0
H1016 H 0.51139 0.9255 0.51584 0.0
H1017 H 0.58051 0.90853 0.52347 0.0
C1018 C 0.56245 0.87144 0.50735 0.0
C1019 C 0.54225 0.85565 0.49403 0.0
C1020 C 0.52888 0.93926 0.51583 0.0
C1021 C 0.54592 0.90506 0.50743 0.0
C1022 C 0.53205 0.96478 0.52002 0.0
C1023 C 0.55457 0.98281 0.51983 0.0
C1024 C 0.54851 0.9318 0.51217 0.0
C1025 C 0.57364 0.97455 0.51569 0.0
C1026 C 0.56445 0.89624 0.51387 0.0
C1027 C 0.52376 0.86494 0.48863 0.0
N1028 N 0.57022 0.94962 0.51221 0.0
N1029 N 0.52602 0.88908 0.49536 0.0
H1030 H 0.56544 0.34799 0.68244 0.0
H1031 H 0.47649 0.27433 0.76702 0.0
H1032 H 0.57085 0.28362 0.71374 0.0
H1033 H 0.47316 0.34245 0.74143 0.0
H1034 H 0.51017 0.27681 0.74602 0.0
H1035 H 0.53065 0.3457 0.70234 0.0
C1036 C 0.55932 0.3334 0.69346 0.0
C1037 C 0.57109 0.316 0.69647 0.0
C1038 C 0.50212 0.29125 0.74496 0.0
C1039 C 0.5314 0.31323 0.71915 0.0
C1040 C 0.48293 0.28991 0.75707 0.0
C1041 C 0.47207 0.30832 0.75615 0.0
C1042 C 0.51061 0.31114 0.73174 0.0
C1043 C 0.48088 0.32775 0.74251 0.0
C1044 C 0.53949 0.33211 0.7048 0.0
C1045 C 0.5624 0.29747 0.71093 0.0
N1046 N 0.49969 0.32871 0.73088 0.0
N1047 N 0.54313 0.29659 0.72169 0.0
H1048 H 0.09788 0.87256 0.60602 0.0
H1049 H 0.05564 0.9944 0.60062 0.0
H1050 H 0.051 0.88914 0.65059 0.0
H1051 H 0.09097 0.97058 0.54834 0.0
H1052 H 0.05608 0.95788 0.62003 0.0
H1053 H 0.09772 0.90907 0.58614 0.0
C1054 C 0.08753 0.88378 0.61176 0.0
C1055 C 0.0744 0.87721 0.63029 0.0
C1056 C 0.06378 0.96052 0.60433 0.0
C1057 C 0.07433 0.92012 0.60719 0.0
C1058 C 0.0636 0.98164 0.5931 0.0
C1059 C 0.07326 0.98616 0.57246 0.0
C1060 C 0.07392 0.94326 0.59532 0.0
C1061 C 0.08324 0.96834 0.56404 0.0
C1062 C 0.08744 0.90481 0.60026 0.0
C1063 C 0.06142 0.893 0.63653 0.0
N1064 N 0.08336 0.94805 0.57539 0.0
N1065 N 0.06182 0.91343 0.62523 0.0
H1066 H 0.47654 0.76831 0.87599 0.0
H1067 H 0.40012 0.83071 0.79645 0.0
H1068 H 0.50866 0.83183 0.84002 0.0
H1069 H 0.36741 0.77351 0.83865 0.0
H1070 H 0.43923 0.82994 0.81081 0.0
H1071 H 0.43708 0.7684 0.86149 0.0
C1072 C 0.47551 0.78225 0.86495 0.0
C1073 C 0.49666 0.80004 0.8594 0.0
C1074 C 0.42359 0.8175 0.81702 0.0
C1075 C 0.4503 0.80026 0.84233 0.0
C1076 C 0.40094 0.81789 0.80872 0.0
C1077 C 0.37971 0.80222 0.81613 0.0
C1078 C 0.42581 0.80112 0.83301 0.0
C1079 C 0.3828 0.78614 0.83223 0.0
C1080 C 0.45269 0.78233 0.85665 0.0
C1081 C 0.49335 0.81759 0.84497 0.0
N1082 N 0.40502 0.78599 0.83991 0.0
N1083 N 0.47104 0.81719 0.83707 0.0
H1084 H 0.53954 0.19768 0.16278 0.0
H1085 H 0.59709 0.13481 0.06748 0.0
H1086 H 0.58818 0.24095 0.11975 0.0
H1087 H 0.54065 0.09105 0.10322 0.0
H1088 H 0.59487 0.17328 0.08714 0.0
H1089 H 0.54021 0.15894 0.14218 0.0
C1090 C 0.55024 0.19924 0.14891 0.0
C1091 C 0.56367 0.22322 0.14319 0.0
C1092 C 0.5829 0.15532 0.09074 0.0
C1093 C 0.56487 0.17791 0.1193 0.0
C1094 C 0.58418 0.1331 0.07945 0.0
C1095 C 0.56903 0.10909 0.08338 0.0
C1096 C 0.56645 0.15412 0.10656 0.0
C1097 C 0.55274 0.10879 0.0993 0.0
C1098 C 0.55066 0.17687 0.1371 0.0
C1099 C 0.57728 0.2233 0.12496 0.0
N1100 N 0.55198 0.13066 0.11019 0.0
N1101 N 0.5776 0.20133 0.11394 0.0
H1102 H 0.16112 0.31413 0.37764 0.0
H1103 H 0.23225 0.2444 0.30108 0.0
H1104 H 0.12768 0.24174 0.34078 0.0
H1105 H 0.26573 0.31799 0.33585 0.0
H1106 H 0.19454 0.2433 0.31526 0.0
H1107 H 0.19888 0.31601 0.36285 0.0
C1108 C 0.16148 0.29857 0.36639 0.0
C1109 C 0.14046 0.27774 0.36065 0.0
C1110 C 0.21004 0.25979 0.31983 0.0
C1111 C 0.18492 0.27978 0.3433 0.0
C1112 C 0.23188 0.26049 0.31161 0.0
C1113 C 0.25293 0.2814 0.31692 0.0
C1114 C 0.20846 0.2801 0.33384 0.0
C1115 C 0.25045 0.30137 0.33095 0.0
C1116 C 0.18334 0.29967 0.35789 0.0
C1117 C 0.14291 0.25833 0.3459 0.0
N1118 N 0.22904 0.30019 0.33877 0.0
N1119 N 0.16432 0.25983 0.33795 0.0
H1120 H 0.93354 0.0573 0.1633 0.0
H1121 H 0.05135 0.09173 0.10243 0.0
H1122 H 1.0023 0.10562 0.19316 0.0
H1123 H 0.99034 0.02505 0.08402 0.0
H1124 H 1.02903 0.10663 0.12881 0.0
H1125 H 0.94982 0.05642 0.12735 0.0
C1126 C 0.95183 0.0685 0.16211 0.0
C1127 C 0.96683 0.08108 0.18123 0.0
C1128 C 1.02046 0.08888 0.1188 0.0
C1129 C 0.9854 0.07995 0.14051 0.0
C1130 C 0.03321 0.08023 0.10383 0.0
C1131 C 1.02289 0.05673 0.09143 0.0
C1132 C 0.99724 0.07396 0.12146 0.0
C1133 C 0.99916 0.04298 0.09364 0.0
C1134 C 0.96112 0.06779 0.14166 0.0
C1135 C 0.99033 0.09529 0.17883 0.0
N1136 N 0.98718 0.05168 0.10864 0.0
N1137 N 0.99904 0.094 0.15887 0.0
H1138 H 0.35358 0.69801 0.4996 0.0
H1139 H 0.32349 0.81023 0.44529 0.0
H1140 H 0.32133 0.74646 0.53284 0.0
H1141 H 0.35057 0.75904 0.40896 0.0
H1142 H 0.32797 0.79045 0.47918 0.0
H1143 H 0.35809 0.72352 0.46789 0.0
C1144 C 0.34775 0.71417 0.50035 0.0
C1145 C 0.33682 0.71996 0.51874 0.0
C1146 C 0.33312 0.78364 0.46385 0.0
C1147 C 0.34183 0.74909 0.48268 0.0
C1148 C 0.33049 0.79489 0.44448 0.0
C1149 C 0.33641 0.7861 0.42423 0.0
C1150 C 0.34161 0.76329 0.46298 0.0
C1151 C 0.34585 0.76647 0.42424 0.0
C1152 C 0.35025 0.72867 0.48225 0.0
C1153 C 0.32958 0.74111 0.51888 0.0
N1154 N 0.34792 0.75554 0.44327 0.0
N1155 N 0.33208 0.75477 0.50109 0.0
H1156 H 0.61562 1.013 0.712 0.0
H1157 H 0.5653 0.0408 0.61796 0.0
H1158 H 0.6685 1.00535 0.66991 0.0
H1159 H 0.60988 1.00947 0.58135 0.0
H1160 H 0.57732 0.02505 0.65147 0.0
H1161 H 0.58763 1.00583 0.679 0.0
C1162 C 0.62125 1.00946 0.69582 0.0
C1163 C 0.64476 1.01095 0.69357 0.0
C1164 C 0.58401 0.02084 0.63609 0.0
C1165 C 0.61323 1.00398 0.65571 0.0
C1166 C 0.57732 0.0302 0.61691 0.0
C1167 C 0.58714 0.02709 0.59701 0.0
C1168 C 0.60065 1.00827 0.63529 0.0
C1169 C 0.60237 1.01292 0.5965 0.0
C1170 C 0.60531 1.00571 0.6769 0.0
C1171 C 0.65079 1.00525 0.67235 0.0
N1172 N 0.60895 1.00441 0.61546 0.0
N1173 N 0.63529 1.00265 0.65416 0.0
H1174 H 0.29617 0.35016 0.98076 0.0
H1175 H 0.36356 0.32369 0.8768 0.0
H1176 H 0.34894 0.31387 0.98538 0.0
H1177 H 0.29711 0.3374 0.86824 0.0
H1178 H 0.36032 0.32359 0.91702 0.0
H1179 H 0.29744 0.34837 0.94008 0.0
C1180 C 0.3078 0.34152 0.97326 0.0
C1181 C 0.32235 0.33202 0.98669 0.0
C1182 C 0.34645 0.32666 0.90636 0.0
C1183 C 0.32436 0.33052 0.93996 0.0
C1184 C 0.34837 0.32689 0.88333 0.0
C1185 C 0.33064 0.33065 0.86891 0.0
C1186 C 0.32679 0.33053 0.91534 0.0
C1187 C 0.31126 0.33445 0.87858 0.0
C1188 C 0.30858 0.3406 0.94999 0.0
C1189 C 0.33723 0.32128 0.97585 0.0
N1190 N 0.30992 0.33442 0.90108 0.0
N1191 N 0.338 0.32106 0.95329 0.0
H1192 H 1.00174 0.10256 0.31707 0.0
H1193 H 0.08311 0.04009 0.37588 0.0
H1194 H 0.04552 0.06992 0.28065 0.0
H1195 H 0.06407 0.09865 0.41082 0.0
H1196 H 0.07352 0.05461 0.34062 0.0
H1197 H 1.02744 0.10563 0.35122 0.0
C1198 C 1.01706 0.0966 0.31615 0.0
C1199 C 1.02117 0.08543 0.29611 0.0
C1200 C 0.0719 0.06463 0.35601 0.0
C1201 C 0.05034 0.08848 0.33506 0.0
C1202 C 0.0775 0.0564 0.37622 0.0
C1203 C 0.07377 0.06768 0.39639 0.0
C1204 C 0.06206 0.08395 0.35595 0.0
C1205 C 0.06635 0.08874 0.39564 0.0
C1206 C 1.03175 0.09837 0.33564 0.0
C1207 C 0.04141 0.07822 0.29583 0.0
N1208 N 0.06016 0.0958 0.37573 0.0
N1209 N 0.05492 0.07933 0.31512 0.0
H1210 H 0.34505 0.73489 0.62178 0.0
H1211 H 0.32055 0.73061 0.74998 0.0
H1212 H 0.3356 0.66906 0.65698 0.0
H1213 H 0.32979 0.79551 0.71345 0.0
H1214 H 0.32969 0.70877 0.71734 0.0
H1215 H 0.34423 0.75869 0.65667 0.0
C1216 C 0.34313 0.72551 0.63692 0.0
C1217 C 0.34008 0.69986 0.6364 0.0
C1218 C 0.32982 0.72783 0.71654 0.0
C1219 C 0.33874 0.72694 0.67643 0.0
C1220 C 0.32451 0.74029 0.73513 0.0
C1221 C 0.32417 0.76487 0.7344 0.0
C1222 C 0.33481 0.74005 0.6971 0.0
C1223 C 0.32963 0.77652 0.71477 0.0
C1224 C 0.34258 0.7391 0.65686 0.0
C1225 C 0.33789 0.68877 0.65659 0.0
N1226 N 0.33461 0.76397 0.69691 0.0
N1227 N 0.33694 0.70231 0.67576 0.0
H1228 H 0.66364 0.08945 0.81606 0.0
H1229 H 0.64344 0.02921 0.92618 0.0
H1230 H 0.68145 0.02204 0.82077 0.0
H1231 H 0.68429 0.10794 0.92713 0.0
H1232 H 0.65144 0.02283 0.88744 0.0
H1233 H 0.66317 0.09357 0.85659 0.0
C1234 C 0.66718 0.07537 0.82563 0.0
C1235 C 0.6725 0.05533 0.81518 0.0
C1236 C 0.65892 0.04136 0.89639 0.0
C1237 C 0.67189 0.05991 0.86125 0.0
C1238 C 0.65455 0.04505 0.91854 0.0
C1239 C 0.66278 0.06931 0.92989 0.0
C1240 C 0.67107 0.06211 0.88551 0.0
C1241 C 0.67686 0.08909 0.91887 0.0
C1242 C 0.66717 0.0779 0.84868 0.0
C1243 C 0.67726 0.03774 0.82833 0.0
N1244 N 0.68006 0.08518 0.89711 0.0
N1245 N 0.67655 0.04024 0.85082 0.0
H1246 H 0.30996 0.36916 0.13433 0.0
H1247 H 0.3128 0.26276 0.2148 0.0
H1248 H 0.32231 0.30133 0.11092 0.0
H1249 H 0.3111 0.33568 0.23826 0.0
H1250 H 0.3132 0.27474 0.17656 0.0
H1251 H 0.30719 0.35537 0.17164 0.0
C1252 C 0.31198 0.35122 0.1369 0.0
C1253 C 0.31644 0.33648 0.11911 0.0
C1254 C 0.31264 0.2881 0.19004 0.0
C1255 C 0.31325 0.32043 0.1626 0.0
C1256 C 0.31231 0.28125 0.21199 0.0
C1257 C 0.31185 0.29816 0.23007 0.0
C1258 C 0.31238 0.31209 0.18582 0.0
C1259 C 0.3114 0.3219 0.22507 0.0
C1260 C 0.31044 0.34339 0.15841 0.0
C1261 C 0.31884 0.31341 0.12391 0.0
N1262 N 0.31167 0.32808 0.20356 0.0
N1263 N 0.31724 0.30615 0.14511 0.0
H1264 H 0.27154 0.99986 0.996 0.0
H1265 H 0.2374 0.09323 0.08141 0.0
H1266 H 0.32288 0.0575 0.04148 0.0
H1267 H 0.18678 0.03451 0.03638 0.0
H1268 H 0.2696 0.08409 0.06384 0.0
H1269 H 0.24082 1.01636 1.007 0.0
C1270 C 0.2764 1.01618 1.00809 0.0
C1271 C 0.29968 0.02708 0.01812 0.0
C1272 C 0.25143 0.07329 0.05777 0.0
C1273 C 0.26466 0.04587 0.03099 0.0
C1274 C 0.23312 0.07849 0.0678 0.0
C1275 C 0.2095 0.06421 0.06064 0.0
C1276 C 0.24596 0.05377 0.04046 0.0
C1277 C 0.2048 0.04545 0.04284 0.0
C1278 C 0.25886 0.02557 0.01442 0.0
C1279 C 0.30507 0.04834 0.03353 0.0
N1280 N 0.22287 0.04068 0.03345 0.0
N1281 N 0.2876 0.05686 0.03973 0.0
H1282 H 0.77293 0.64526 0.04467 0.0
H1283 H 0.64126 0.62186 0.07525 0.0
H1284 H 0.74128 0.70342 0.04948 0.0
H1285 H 0.66409 0.56149 0.04958 0.0
H1286 H 0.67948 0.65182 0.06939 0.0
H1287 H 0.7344 0.61409 0.04862 0.0
C1288 C 0.75783 0.65145 0.04631 0.0
C1289 C 0.76035 0.67702 0.04684 0.0
C1290 C 0.67617 0.63202 0.06508 0.0
C1291 C 0.7164 0.6415 0.05177 0.0
C1292 C 0.6544 0.61482 0.06861 0.0
C1293 C 0.64942 0.58905 0.0629 0.0
C1294 C 0.69328 0.62347 0.05596 0.0
C1295 C 0.66718 0.58117 0.05425 0.0
C1296 C 0.73588 0.63364 0.04859 0.0
C1297 C 0.74017 0.68394 0.04894 0.0
N1298 N 0.68837 0.59834 0.05105 0.0
N1299 N 0.7191 0.66631 0.05158 0.0
H1300 H 0.71386 0.48203 0.33496 0.0
H1301 H 0.7887 0.43139 0.25056 0.0
H1302 H 0.70436 0.481 0.26328 0.0
H1303 H 0.79883 0.43119 0.32204 0.0
H1304 H 0.75801 0.45026 0.25523 0.0
H1305 H 0.74478 0.46307 0.33092 0.0
C1306 C 0.71811 0.4776 0.31839 0.0
C1307 C 0.70657 0.48314 0.29944 0.0
C1308 C 0.767 0.44621 0.26993 0.0
C1309 C 0.74199 0.46181 0.29471 0.0
C1310 C 0.78453 0.43546 0.26725 0.0
C1311 C 0.79629 0.42971 0.28593 0.0
C1312 C 0.76111 0.45119 0.29145 0.0
C1313 C 0.79037 0.4356 0.3072 0.0
C1314 C 0.73583 0.46692 0.3161 0.0
C1315 C 0.71283 0.47712 0.27837 0.0
N1316 N 0.77309 0.44592 0.30939 0.0
N1317 N 0.73015 0.46687 0.27659 0.0
H1318 H 0.871 0.40998 0.53191 0.0
H1319 H 0.97372 0.54139 0.52651 0.0
H1320 H 0.85961 0.47413 0.50494 0.0
H1321 H 0.98294 0.48137 0.56239 0.0
H1322 H 0.93269 0.51535 0.51496 0.0
H1323 H 0.91346 0.43378 0.53851 0.0
C1324 C 0.87749 0.42887 0.52699 0.0
C1325 C 0.86179 0.44023 0.51813 0.0
C1326 C 0.9437 0.5079 0.52539 0.0
C1327 C 0.91005 0.46758 0.52589 0.0
C1328 C 0.96708 0.52282 0.53209 0.0
C1329 C 0.98174 0.51359 0.54552 0.0
C1330 C 0.93496 0.48358 0.53211 0.0
C1331 C 0.97224 0.4893 0.55212 0.0
C1332 C 0.90166 0.44252 0.53094 0.0
C1333 C 0.8711 0.46478 0.51209 0.0
N1334 N 0.94944 0.47512 0.54532 0.0
N1335 N 0.89459 0.47771 0.51626 0.0
H1336 H 0.40982 0.13422 0.3647 0.0
H1337 H 0.27403 0.09912 0.32594 0.0
H1338 H 0.36501 0.06252 0.33188 0.0
H1339 H 0.31879 0.1719 0.35664 0.0
H1340 H 0.30374 0.08136 0.33959 0.0
H1341 H 0.37432 0.14435 0.37237 0.0
C1342 C 0.39253 0.12046 0.35944 0.0
C1343 C 0.39033 0.09782 0.34707 0.0
C1344 C 0.30677 0.1011 0.3439 0.0
C1345 C 0.34974 0.1092 0.35575 0.0
C1346 C 0.28971 0.1112 0.3362 0.0
C1347 C 0.29425 0.13716 0.33948 0.0
C1348 C 0.32856 0.11718 0.35466 0.0
C1349 C 0.31462 0.15183 0.35335 0.0
C1350 C 0.37226 0.1262 0.36387 0.0
C1351 C 0.36752 0.0805 0.34095 0.0
N1352 N 0.33136 0.14178 0.35986 0.0
N1353 N 0.34814 0.08671 0.34502 0.0
H1354 H 0.34607 0.15188 0.56818 0.0
H1355 H 0.47007 0.1425 0.54043 0.0
H1356 H 0.39314 0.20703 0.53174 0.0
H1357 H 0.41049 0.07864 0.55248 0.0
H1358 H 0.44396 0.16781 0.53892 0.0
H1359 H 0.37149 0.12639 0.56516 0.0
C1360 C 0.36182 0.15867 0.55954 0.0
C1361 C 0.36755 0.18167 0.55026 0.0
C1362 C 0.43666 0.1482 0.54173 0.0
C1363 C 0.39686 0.15248 0.5468 0.0
C1364 C 0.45149 0.13369 0.54251 0.0
C1365 C 0.44256 0.1084 0.54685 0.0
C1366 C 0.41281 0.13742 0.54555 0.0
C1367 C 0.41837 0.09816 0.54967 0.0
C1368 C 0.37626 0.144 0.55771 0.0
C1369 C 0.3881 0.18939 0.53911 0.0
N1370 N 0.40444 0.11274 0.54917 0.0
N1371 N 0.40219 0.17489 0.53785 0.0
H1372 H 0.72332 0.59147 0.28909 0.0
H1373 H 0.75877 0.73767 0.32851 0.0
H1374 H 0.68471 0.62276 0.33351 0.0
H1375 H 0.80487 0.70637 0.29418 0.0
H1376 H 0.73026 0.69569 0.32827 0.0
H1377 H 0.75198 0.63359 0.28812 0.0
C1378 C 0.72076 0.60719 0.29849 0.0
C1379 C 0.70162 0.60359 0.31144 0.0
C1380 C 0.74663 0.69794 0.32084 0.0
C1381 C 0.73432 0.65164 0.31048 0.0
C1382 C 0.76295 0.72194 0.32097 0.0
C1383 C 0.78426 0.72554 0.31135 0.0
C1384 C 0.75151 0.67731 0.31091 0.0
C1385 C 0.7887 0.70442 0.30186 0.0
C1386 C 0.73719 0.63118 0.29802 0.0
C1387 C 0.69923 0.62461 0.32336 0.0
N1388 N 0.77238 0.68115 0.3018 0.0
N1389 N 0.71539 0.6477 0.32259 0.0
H1390 H 0.92021 0.5147 0.88368 0.0
H1391 H 0.91304 0.38233 0.82496 0.0
H1392 H 0.9695 0.50497 0.83828 0.0
H1393 H 0.85838 0.39591 0.86132 0.0
H1394 H 0.93914 0.42501 0.83732 0.0
H1395 H 0.90368 0.46935 0.88401 0.0
C1396 C 0.92788 0.50296 0.87412 0.0
C1397 C 0.94588 0.51346 0.86054 0.0
C1398 C 0.92155 0.41852 0.84282 0.0
C1399 C 0.92673 0.46158 0.86048 0.0
C1400 C 0.9066 0.39417 0.83576 0.0
C1401 C 0.88331 0.38572 0.84178 0.0
C1402 C 0.91316 0.43448 0.85602 0.0
C1403 C 0.87604 0.40179 0.85597 0.0
C1404 C 0.91838 0.47708 0.87426 0.0
C1405 C 0.95546 0.49753 0.8488 0.0
N1406 N 0.89085 0.42549 0.86243 0.0
N1407 N 0.9454 0.47223 0.84865 0.0
H1408 H 0.12109 0.86996 0.07519 0.0
H1409 H 0.08306 0.9881 0.10797 0.0
H1410 H 0.10028 0.88213 0.14075 0.0
H1411 H 0.06706 0.94984 0.04149 0.0
H1412 H 0.09497 0.95341 0.12101 0.0
H1413 H 0.10703 0.90341 0.063 0.0
C1414 C 0.11355 0.87966 0.08701 0.0
C1415 C 0.11177 0.87318 0.10899 0.0
C1416 C 0.08869 0.95263 0.10361 0.0
C1417 C 0.09607 0.91177 0.09525 0.0
C1418 C 0.08196 0.9724 0.09615 0.0
C1419 C 0.07391 0.97181 0.07363 0.0
C1420 C 0.08796 0.93249 0.08831 0.0
C1421 C 0.07293 0.951 0.05903 0.0
C1422 C 0.10548 0.89868 0.08003 0.0
C1423 C 0.10183 0.88641 0.12361 0.0
N1424 N 0.0801 0.93235 0.06656 0.0
N1425 N 0.09457 0.90527 0.11655 0.0
H1426 H 0.98228 0.25147 0.88042 0.0
H1427 H 0.86011 0.27889 0.87496 0.0
H1428 H 0.94431 0.257 0.93758 0.0
H1429 H 0.9012 0.28174 0.81874 0.0
H1430 H 0.88736 0.26348 0.8964 0.0
H1431 H 0.94947 0.25513 0.85621 0.0
C1432 C 0.96692 0.25311 0.88789 0.0
C1433 C 0.96621 0.25428 0.91114 0.0
C1434 C 0.89036 0.26727 0.87933 0.0
C1435 C 0.92864 0.25857 0.88346 0.0
C1436 C 0.87481 0.27613 0.86704 0.0
C1437 C 0.87864 0.28207 0.84512 0.0
C1438 C 0.91002 0.26442 0.86973 0.0
C1439 C 0.89771 0.27761 0.83564 0.0
C1440 C 0.94821 0.25525 0.87402 0.0
C1441 C 0.94576 0.25627 0.91979 0.0
N1442 N 0.9129 0.26934 0.84812 0.0
N1443 N 0.92791 0.25859 0.90597 0.0
H1444 H 0.58734 0.24525 0.62581 0.0
H1445 H 0.63025 0.14235 0.56277 0.0
H1446 H 0.65383 0.26553 0.59673 0.0
H1447 H 0.55693 0.13167 0.57131 0.0
H1448 H 0.64068 0.18653 0.57751 0.0
H1449 H 0.57715 0.2026 0.60812 0.0
C1450 C 0.59976 0.24076 0.61556 0.0
C1451 C 0.62148 0.25901 0.61275 0.0
C1452 C 0.62232 0.17448 0.57603 0.0
C1453 C 0.61002 0.20989 0.59265 0.0
C1454 C 0.61636 0.14923 0.56775 0.0
C1455 C 0.59267 0.1332 0.56583 0.0
C1456 C 0.60451 0.18361 0.58275 0.0
C1457 C 0.57542 0.14325 0.57243 0.0
C1458 C 0.59391 0.21637 0.60543 0.0
C1459 C 0.63684 0.25207 0.59922 0.0
N1460 N 0.5817 0.16768 0.58071 0.0
N1461 N 0.63093 0.22795 0.58985 0.0
H1462 H 0.58326 0.80814 0.3935 0.0
H1463 H 0.70629 0.78754 0.37727 0.0
H1464 H 0.62339 0.78691 0.44603 0.0
H1465 H 0.67595 0.82928 0.33428 0.0
H1466 H 0.67452 0.78373 0.40129 0.0
H1467 H 0.61539 0.81218 0.37 0.0
C1468 C 0.59882 0.80428 0.4001 0.0
C1469 C 0.60064 0.79718 0.42179 0.0
C1470 C 0.67488 0.79376 0.38662 0.0
C1471 C 0.63748 0.80173 0.39488 0.0
C1472 C 0.69308 0.79607 0.37294 0.0
C1473 C 0.69388 0.80882 0.3537 0.0
C1474 C 0.65721 0.80404 0.38094 0.0
C1475 C 0.67591 0.81897 0.34872 0.0
C1476 C 0.61719 0.80669 0.38668 0.0
C1477 C 0.62127 0.7925 0.42944 0.0
N1478 N 0.6583 0.81631 0.36222 0.0
N1479 N 0.63888 0.79477 0.41595 0.0
H1480 H 0.0608 0.23907 0.48084 0.0
H1481 H 0.0625 0.09588 0.47131 0.0
H1482 H 0.07265 0.20188 0.42044 0.0
H1483 H 0.06273 0.13693 0.5341 0.0
H1484 H 0.06375 0.13325 0.45229 0.0
H1485 H 0.05923 0.20165 0.50011 0.0
C1486 C 0.06309 0.22318 0.4715 0.0
C1487 C 0.06696 0.22424 0.4487 0.0
C1488 C 0.06347 0.13417 0.47023 0.0
C1489 C 0.0649 0.18033 0.47109 0.0
C1490 C 0.06264 0.11259 0.48122 0.0
C1491 C 0.06241 0.11266 0.50463 0.0
C1492 C 0.06388 0.15652 0.48245 0.0
C1493 C 0.06284 0.13548 0.51615 0.0
C1494 C 0.06219 0.20162 0.48263 0.0
C1495 C 0.06972 0.20249 0.43791 0.0
N1496 N 0.06347 0.15611 0.50508 0.0
N1497 N 0.06856 0.18178 0.44902 0.0
H1498 H 0.62582 0.27226 0.24869 0.0
H1499 H 0.76983 0.32382 0.2498 0.0
H1500 H 0.66293 0.32443 0.20423 0.0
H1501 H 0.73337 0.26659 0.29044 0.0
H1502 H 0.73133 0.32534 0.23433 0.0
H1503 H 0.66427 0.27125 0.26529 0.0
C1504 C 0.64191 0.28378 0.24247 0.0
C1505 C 0.64044 0.29861 0.22483 0.0
C1506 C 0.7316 0.31238 0.24661 0.0
C1507 C 0.68563 0.29732 0.24412 0.0
C1508 C 0.75385 0.31145 0.25556 0.0
C1509 C 0.75553 0.29492 0.27164 0.0
C1510 C 0.71014 0.29679 0.25362 0.0
C1511 C 0.73355 0.27964 0.27814 0.0
C1512 C 0.66409 0.28306 0.25198 0.0
C1513 C 0.66254 0.31273 0.21771 0.0
N1514 N 0.71218 0.28097 0.26926 0.0
N1515 N 0.68375 0.31172 0.22722 0.0
H1516 H 0.58175 0.84524 0.98614 0.0
H1517 H 0.58203 0.98821 0.98224 0.0
H1518 H 0.57289 0.87796 0.92522 0.0
H1519 H 0.57159 0.95078 0.04229 0.0
H1520 H 0.58251 0.94929 0.96203 0.0
H1521 H 0.58176 0.88408 1.0075 0.0
C1522 C 0.57989 0.86046 0.97714 0.0
C1523 C 0.57726 0.85774 0.95354 0.0
C1524 C 0.58014 0.94948 0.97964 0.0
C1525 C 0.57751 0.90313 0.97833 0.0
C1526 C 0.57992 0.97193 0.99134 0.0
C1527 C 0.57671 0.97331 0.01428 0.0
C1528 C 0.57748 0.92772 0.99073 0.0
C1529 C 0.57405 0.95104 0.02472 0.0
C1530 C 0.57983 0.88277 0.98945 0.0
C1531 C 0.57489 0.87862 0.94324 0.0
N1532 N 0.5746 0.9295 0.01303 0.0
N1533 N 0.57519 0.90007 0.95551 0.0
H1534 H 0.97809 0.75067 0.74457 0.0
H1535 H 0.88877 0.82749 0.77318 0.0
H1536 H 0.98533 0.82293 0.72203 0.0
H1537 H 0.87139 0.74909 0.78233 0.0
H1538 H 0.92505 0.82681 0.75721 0.0
H1539 H 0.94132 0.75042 0.76063 0.0
C1540 C 0.97218 0.76663 0.74298 0.0
C1541 C 0.98554 0.78688 0.73164 0.0
C1542 C 0.91344 0.80967 0.76269 0.0
C1543 C 0.94233 0.78676 0.75068 0.0
C1544 C 0.89243 0.81001 0.77202 0.0
C1545 C 0.87625 0.78832 0.77948 0.0
C1546 C 0.91934 0.78751 0.76072 0.0
C1547 C 0.8828 0.76644 0.77703 0.0
C1548 C 0.95088 0.7664 0.75222 0.0
C1549 C 0.97617 0.80676 0.73042 0.0
N1550 N 0.90353 0.76668 0.76814 0.0
N1551 N 0.95564 0.80622 0.73975 0.0
H1552 H 0.18917 0.04222 0.92283 0.0
H1553 H 0.06857 0.9891 0.97793 0.0
H1554 H 0.11909 1.01408 0.88778 0.0
H1555 H 0.1346 0.03504 0.01495 0.0
H1556 H 0.08995 0.98489 0.94596 0.0
H1557 H 0.17216 0.02698 0.9572 0.0
C1558 C 0.17033 0.03216 0.92229 0.0
C1559 C 0.15532 0.02969 0.90278 0.0
C1560 C 0.09984 0.99559 0.96118 0.0
C1561 C 0.13598 1.01231 0.94147 0.0
C1562 C 0.08763 0.99808 0.97939 0.0
C1563 C 0.09976 1.01312 0.9988 0.0
C1564 C 0.12427 1.0086 0.96223 0.0
C1565 C 0.12454 0.0237 1.00007 0.0
C1566 C 0.16066 0.02359 0.94182 0.0
C1567 C 0.1311 0.01666 0.90271 0.0
N1568 N 0.13598 0.02173 0.98177 0.0
N1569 N 0.12214 1.00867 0.92183 0.0
H1570 H 0.78611 0.42215 0.60077 0.0
H1571 H 0.80563 0.31411 0.66953 0.0
H1572 H 0.76706 0.34517 0.57265 0.0
H1573 H 0.84398 0.3934 0.68464 0.0
H1574 H 0.78283 0.32375 0.63828 0.0
H1575 H 0.7967 0.40977 0.63682 0.0
C1576 C 0.78357 0.40253 0.60226 0.0
C1577 C 0.77631 0.38479 0.58349 0.0
C1578 C 0.79611 0.33897 0.64863 0.0
C1579 C 0.78872 0.37064 0.62463 0.0
C1580 C 0.80934 0.33351 0.66629 0.0
C1581 C 0.82695 0.35295 0.67969 0.0
C1582 C 0.80037 0.36404 0.64449 0.0
C1583 C 0.83047 0.37777 0.67501 0.0
C1584 C 0.7898 0.39553 0.62283 0.0
C1585 C 0.77303 0.35957 0.58657 0.0
N1586 N 0.81735 0.38257 0.65779 0.0
N1587 N 0.7797 0.35329 0.60669 0.0
H1588 H 0.48819 0.12467 0.39628 0.0
H1589 H 0.51796 0.07641 0.48924 0.0
H1590 H 0.55314 0.11805 0.37493 0.0
H1591 H 0.59087 0.10524 0.47473 0.0
H1592 H 0.50636 0.09448 0.45708 0.0
H1593 H 0.50288 0.12381 0.43484 0.0
C1594 C 0.50569 0.12343 0.39973 0.0
C1595 C 0.51914 0.12057 0.38233 0.0
C1596 C 0.52499 0.09759 0.46118 0.0
C1597 C 0.53553 0.11832 0.42619 0.0
C1598 C 0.53161 0.08683 0.47941 0.0
C1599 C 0.55541 0.08906 0.48455 0.0
C1600 C 0.54228 0.11062 0.44781 0.0
C1601 C 0.57229 0.10292 0.47126 0.0
C1602 C 0.51393 0.12255 0.42173 0.0
C1603 C 0.54193 0.11967 0.38781 0.0
N1604 N 0.56533 0.11283 0.45324 0.0
N1605 N 0.54923 0.118 0.40926 0.0
H1606 H 0.81139 0.78342 0.115 0.0
H1607 H 0.86589 0.77885 0.23985 0.0
H1608 H 0.86659 0.75239 0.13046 0.0
H1609 H 0.79929 0.79116 0.22622 0.0
H1610 H 0.86912 0.77456 0.19978 0.0
H1611 H 0.80991 0.7925 0.15531 0.0
C1612 C 0.8236 0.77908 0.12679 0.0
C1613 C 0.83923 0.7672 0.11918 0.0
C1614 C 0.85377 0.7782 0.20549 0.0
C1615 C 0.83739 0.77725 0.16547 0.0
C1616 C 0.85188 0.78066 0.22848 0.0
C1617 C 0.83217 0.78523 0.23666 0.0
C1618 C 0.83599 0.78057 0.19022 0.0
C1619 C 0.81471 0.78743 0.22083 0.0
C1620 C 0.82253 0.78398 0.14983 0.0
C1621 C 0.85426 0.76158 0.1354 0.0
N1622 N 0.81705 0.78515 0.19847 0.0
N1623 N 0.85295 0.7666 0.15759 0.0
H1624 H 0.12065 0.03651 0.79622 0.0
H1625 H 0.13493 0.06332 0.66955 0.0
H1626 H 0.18536 0.04683 0.76517 0.0
H1627 H 0.06882 0.04895 0.6989 0.0
H1628 H 0.15247 0.05307 0.70352 0.0
H1629 H 0.10003 0.03588 0.75978 0.0
C1630 C 0.13045 0.03825 0.7817 0.0
C1631 C 0.15487 0.04219 0.78379 0.0
C1632 C 0.13408 0.05197 0.70252 0.0
C1633 C 0.13143 0.04179 0.74213 0.0
C1634 C 0.12401 0.05777 0.68309 0.0
C1635 C 0.10036 0.05704 0.6814 0.0
C1636 C 0.1205 0.0456 0.72055 0.0
C1637 C 0.08722 0.05014 0.69963 0.0
C1638 C 0.11866 0.03796 0.7609 0.0
C1639 C 0.16659 0.04405 0.76438 0.0
N1640 N 0.09752 0.0448 0.71852 0.0
N1641 N 0.15481 0.04419 0.74439 0.0
H1642 H 0.77636 0.39827 0.44438 0.0
H1643 H 0.79223 0.28561 0.3696 0.0
H1644 H 0.76172 0.32309 0.46333 0.0
H1645 H 0.80407 0.35887 0.34679 0.0
H1646 H 0.77484 0.29785 0.40155 0.0
H1647 H 0.77925 0.383 0.40607 0.0
C1648 C 0.77299 0.37842 0.44031 0.0
C1649 C 0.76925 0.36194 0.45704 0.0
C1650 C 0.78108 0.31131 0.38957 0.0
C1651 C 0.77293 0.34453 0.41363 0.0
C1652 C 0.79123 0.30437 0.37137 0.0
C1653 C 0.80006 0.32145 0.35579 0.0
C1654 C 0.78007 0.33569 0.39252 0.0
C1655 C 0.79773 0.34527 0.35864 0.0
C1656 C 0.77484 0.36976 0.4185 0.0
C1657 C 0.76506 0.33647 0.45097 0.0
N1658 N 0.78825 0.35186 0.3769 0.0
N1659 N 0.76738 0.32862 0.42983 0.0
H1660 H 0.50502 0.12925 0.26165 0.0
H1661 H 0.46167 0.02179 0.16526 0.0
H1662 H 0.43299 0.07799 0.25152 0.0
H1663 H 0.5225 0.08783 0.16128 0.0
H1664 H 0.44921 0.04449 0.1948 0.0
H1665 H 0.51013 0.11827 0.223 0.0
C1666 C 0.49004 0.11625 0.25113 0.0
C1667 C 0.46876 0.10397 0.26003 0.0
C1668 C 0.46511 0.05416 0.18725 0.0
C1669 C 0.47469 0.0909 0.21601 0.0
C1670 C 0.47226 0.04118 0.1703 0.0
C1671 C 0.49342 0.0527 0.16091 0.0
C1672 C 0.47941 0.07872 0.19525 0.0
C1673 C 0.50647 0.07785 0.16847 0.0
C1674 C 0.493 0.10992 0.22906 0.0
C1675 C 0.44987 0.08756 0.24552 0.0
N1676 N 0.49947 0.08987 0.18544 0.0
N1677 N 0.45348 0.08097 0.22438 0.0
H1678 H 0.82542 0.80179 0.98957 0.0
H1679 H 0.81159 0.73838 0.86579 0.0
H1680 H 0.83582 0.73063 0.97672 0.0
H1681 H 0.84228 0.81863 0.88041 0.0
H1682 H 0.81526 0.73383 0.90599 0.0
H1683 H 0.82656 0.80738 0.94955 0.0
C1684 C 0.82813 0.78742 0.9784 0.0
C1685 C 0.83072 0.76578 0.98669 0.0
C1686 C 0.82137 0.75241 0.90037 0.0
C1687 C 0.8313 0.77175 0.94056 0.0
C1688 C 0.81927 0.75505 0.87739 0.0
C1689 C 0.82683 0.77893 0.86954 0.0
C1690 C 0.83039 0.77384 0.91584 0.0
C1691 C 0.83648 0.79982 0.88556 0.0
C1692 C 0.82879 0.79064 0.95553 0.0
C1693 C 0.83401 0.74774 0.97123 0.0
N1694 N 0.83766 0.79683 0.90785 0.0
N1695 N 0.83386 0.75094 0.94897 0.0
H1696 H 0.85418 0.05941 0.10163 0.0
H1697 H 0.91663 0.03968 0.99324 0.0
H1698 H 0.85819 0.10458 0.04634 0.0
H1699 H 0.9086 0.99328 0.04791 0.0
H1700 H 0.89129 0.06062 0.00996 0.0
H1701 H 0.87074 0.03251 0.08016 0.0
C1702 C 0.85856 0.06369 0.08493 0.0
C1703 C 0.85505 0.08444 0.07584 0.0
C1704 C 0.89476 0.04556 0.01807 0.0
C1705 C 0.87402 0.05356 0.05106 0.0
C1706 C 0.9092 0.0336 1.00854 0.0
C1707 C 0.91496 1.01489 0.01932 0.0
C1708 C 0.88617 0.03883 0.03858 0.0
C1709 C 0.90458 1.00749 0.03892 0.0
C1710 C 0.86791 0.0482 0.07261 0.0
C1711 C 0.86079 0.08886 0.05403 0.0
N1712 N 0.89097 0.01972 0.04806 0.0
N1713 N 0.8702 0.07365 0.04242 0.0
H1714 H 0.38797 0.45168 0.0652 0.0
H1715 H 0.51318 0.47625 0.01605 0.0
H1716 H 0.40907 0.39169 0.03584 0.0
H1717 H 0.49935 0.52628 0.06607 0.0
H1718 H 0.47208 0.44761 0.01589 0.0
H1719 H 0.42617 0.48166 0.05883 0.0
C1720 C 0.40063 0.44479 0.0574 0.0
C1721 C 0.39539 0.41908 0.05127 0.0
C1722 C 0.47803 0.46506 0.02662 0.0
C1723 C 0.4391 0.45344 0.04366 0.0
C1724 C 0.5013 0.48147 0.02651 0.0
C1725 C 0.5095 0.50353 0.0411 0.0
C1726 C 0.463 0.47114 0.04116 0.0
C1727 C 0.49364 0.50936 0.05462 0.0
C1728 C 0.42243 0.46194 0.05374 0.0
C1729 C 0.41249 0.41131 0.04109 0.0
N1730 N 0.4712 0.49325 0.05437 0.0
N1731 N 0.43361 0.42843 0.03759 0.0
H1732 H 0.37945 0.5948 0.76354 0.0
H1733 H 0.36617 0.70613 0.83721 0.0
H1734 H 0.43978 0.64593 0.80514 0.0
H1735 H 0.30848 0.63595 0.82168 0.0
H1736 H 0.39389 0.68492 0.82737 0.0
H1737 H 0.35331 0.61029 0.78481 0.0
C1738 C 0.38719 0.60936 0.77718 0.0
C1739 C 0.41179 0.6194 0.78244 0.0
C1740 C 0.37522 0.67407 0.82662 0.0
C1741 C 0.38197 0.63718 0.80686 0.0
C1742 C 0.35932 0.68611 0.83238 0.0
C1743 C 0.33481 0.6729 0.82986 0.0
C1744 C 0.3665 0.64883 0.8179 0.0
C1745 C 0.32712 0.64704 0.82324 0.0
C1746 C 0.37224 0.61797 0.78947 0.0
C1747 C 0.42088 0.63788 0.8005 0.0
N1748 N 0.34286 0.63596 0.81702 0.0
N1749 N 0.40594 0.64655 0.8119 0.0
H1750 H 0.24942 0.59032 0.58546 0.0
H1751 H 0.12713 0.58417 0.51984 0.0
H1752 H 0.2452 0.64 0.53542 0.0
H1753 H 0.13266 0.55879 0.58518 0.0
H1754 H 0.1704 0.59782 0.52058 0.0
H1755 H 0.20632 0.57124 0.58036 0.0
C1756 C 0.23947 0.59703 0.57322 0.0
C1757 C 0.25087 0.61696 0.561 0.0
C1758 C 0.16205 0.58916 0.53467 0.0
C1759 C 0.20167 0.5952 0.55512 0.0
C1760 C 0.13743 0.58134 0.53426 0.0
C1761 C 0.12637 0.57058 0.55258 0.0
C1762 C 0.17556 0.5858 0.55338 0.0
C1763 C 0.1405 0.56729 0.57082 0.0
C1764 C 0.21489 0.58621 0.57041 0.0
C1765 C 0.23707 0.62486 0.54535 0.0
N1766 N 0.16439 0.57487 0.57075 0.0
N1767 N 0.21313 0.61399 0.5429 0.0
H1768 H 0.77775 0.02124 0.73926 0.0
H1769 H 0.78774 0.94638 0.84326 0.0
H1770 H 0.73173 1.01354 0.79206 0.0
H1771 H 0.84022 0.96562 0.79625 0.0
H1772 H 0.76951 0.97501 0.82747 0.0
H1773 H 0.80292 1.00413 0.76186 0.0
C1774 C 0.77295 1.01594 0.75561 0.0
C1775 C 0.75247 0.01844 0.76369 0.0
C1776 C 0.7853 0.97336 0.82092 0.0
C1777 C 0.7812 0.99898 0.78967 0.0
C1778 C 0.79569 0.95705 0.82993 0.0
C1779 C 0.81527 0.95342 0.82082 0.0
C1780 C 0.79442 0.98576 0.8025 0.0
C1781 C 0.82512 0.96788 0.80377 0.0
C1782 C 0.78743 1.00637 0.7686 0.0
C1783 C 0.74726 1.01166 0.78512 0.0
N1784 N 0.81432 0.9831 0.79488 0.0
N1785 N 0.76142 1.00197 0.79731 0.0
H1786 H 0.75827 0.90982 0.52106 0.0
H1787 H 0.68757 0.9961 0.56919 0.0
H1788 H 0.76772 0.94058 0.58983 0.0
H1789 H 0.70017 0.9915 0.49984 0.0
H1790 H 0.71143 0.96941 0.57657 0.0
H1791 H 0.7315 0.93355 0.51252 0.0
C1792 C 0.75455 0.92136 0.53437 0.0
C1793 C 0.76527 0.92332 0.55617 0.0
C1794 C 0.70894 0.97418 0.55972 0.0
C1795 C 0.73471 0.95021 0.54659 0.0
C1796 C 0.69521 0.98928 0.55547 0.0
C1797 C 0.6919 0.99603 0.53387 0.0
C1798 C 0.71926 0.96545 0.54221 0.0
C1799 C 0.70246 0.98689 0.51677 0.0
C1800 C 0.73942 0.93497 0.52947 0.0
C1801 C 0.75995 0.93863 0.57277 0.0
N1802 N 0.71562 0.97196 0.52128 0.0
N1803 N 0.74501 0.9514 0.56766 0.0
H1804 H 0.46816 0.50417 0.76787 0.0
H1805 H 0.34366 0.40603 0.78557 0.0
H1806 H 0.40142 0.51326 0.74684 0.0
H1807 H 0.40591 0.38425 0.78221 0.0
H1808 H 0.36562 0.44677 0.77386 0.0
H1809 H 0.44667 0.46086 0.77472 0.0
C1810 C 0.44905 0.49698 0.76442 0.0
C1811 C 0.43654 0.51242 0.75699 0.0
C1812 C 0.37446 0.43305 0.77559 0.0
C1813 C 0.41199 0.46324 0.76509 0.0
C1814 C 0.362 0.40987 0.78247 0.0
C1815 C 0.37304 0.3918 0.78497 0.0
C1816 C 0.39823 0.43836 0.77148 0.0
C1817 C 0.39677 0.3977 0.7805 0.0
C1818 C 0.43683 0.4723 0.76834 0.0
C1819 C 0.4118 0.50211 0.7527 0.0
N1820 N 0.40869 0.42063 0.77411 0.0
N1821 N 0.40032 0.47827 0.7571 0.0
H1822 H 0.20438 0.63009 0.26517 0.0
H1823 H 0.32669 0.73354 0.24489 0.0
H1824 H 0.26103 0.613 0.23494 0.0
H1825 H 0.27093 0.75046 0.27692 0.0
H1826 H 0.30124 0.68975 0.23772 0.0
H1827 H 0.22686 0.67472 0.26617 0.0
C1828 C 0.22146 0.63571 0.25859 0.0
C1829 C 0.23094 0.61777 0.25016 0.0
C1830 C 0.29452 0.70307 0.24619 0.0
C1831 C 0.25679 0.66881 0.25133 0.0
C1832 C 0.30904 0.72809 0.2503 0.0
C1833 C 0.301 0.74563 0.26171 0.0
C1834 C 0.27182 0.69555 0.2536 0.0
C1835 C 0.27792 0.73753 0.2682 0.0
C1836 C 0.2343 0.66121 0.25918 0.0
C1837 C 0.2531 0.62616 0.24174 0.0
N1838 N 0.2642 0.71302 0.26418 0.0
N1839 N 0.26535 0.65108 0.24269 0.0
H1840 H 0.52745 0.7023 0.48014 0.0
H1841 H 0.59189 0.64456 0.57187 0.0
H1842 H 0.57747 0.7456 0.53498 0.0
H1843 H 0.54925 0.59991 0.51336 0.0
H1844 H 0.58271 0.6807 0.56029 0.0
H1845 H 0.53089 0.66373 0.49393 0.0
C1846 C 0.53884 0.70368 0.49526 0.0
C1847 C 0.5523 0.72722 0.50637 0.0
C1848 C 0.57528 0.66304 0.54993 0.0
C1849 C 0.55643 0.68331 0.52208 0.0
C1850 C 0.58056 0.64228 0.55653 0.0
C1851 C 0.57152 0.61909 0.54348 0.0
C1852 C 0.56084 0.66083 0.53004 0.0
C1853 C 0.55674 0.61744 0.52388 0.0
C1854 C 0.54091 0.68168 0.50302 0.0
C1855 C 0.56688 0.72791 0.52578 0.0
N1856 N 0.55193 0.63809 0.51769 0.0
N1857 N 0.56861 0.70634 0.53292 0.0
H1858 H 0.67629 0.33722 0.72641 0.0
H1859 H 0.81443 0.35935 0.75232 0.0
H1860 H 0.72599 0.35666 0.67686 0.0
H1861 H 0.76268 0.3355 0.79941 0.0
H1862 H 0.78377 0.36424 0.72591 0.0
H1863 H 0.70899 0.34218 0.75456 0.0
C1864 C 0.69412 0.3427 0.72144 0.0
C1865 C 0.69832 0.34626 0.69913 0.0
C1866 C 0.7792 0.35824 0.74213 0.0
C1867 C 0.73605 0.35186 0.73147 0.0
C1868 C 0.79675 0.35553 0.75726 0.0
C1869 C 0.79113 0.3467 0.77804 0.0
C1870 C 0.75586 0.35218 0.74787 0.0
C1871 C 0.76786 0.34211 0.78353 0.0
C1872 C 0.71284 0.34555 0.73758 0.0
C1873 C 0.72189 0.3536 0.69382 0.0
N1874 N 0.75109 0.34471 0.7685 0.0
N1875 N 0.73986 0.35592 0.70984 0.0
H1876 H 1.0126 0.33118 0.01843 0.0
H1877 H 0.08363 0.47402 0.99946 0.0
H1878 H 0.06312 0.3514 0.96972 0.0
H1879 H 1.02806 0.45159 0.04316 0.0
H1880 H 0.07782 0.42966 0.98917 0.0
H1881 H 1.02008 0.37557 0.02906 0.0
C1882 C 1.02544 0.34495 0.01007 0.0
C1883 C 0.03721 0.33747 0.99311 0.0
C1884 C 0.06686 0.43449 1.00094 0.0
C1885 C 0.04574 0.38862 1.00511 0.0
C1886 C 0.07009 0.45983 1.00678 0.0
C1887 C 0.05625 0.46666 0.02216 0.0
C1888 C 0.04973 0.41581 0.01063 0.0
C1889 C 0.03914 0.44736 0.0312 0.0
C1890 C 1.02963 0.37037 0.0161 0.0
C1891 C 0.05365 0.35627 0.9829 0.0
N1892 N 0.03642 0.42293 0.02534 0.0
N1893 N 0.05737 0.38097 0.989 0.0
H1894 H 0.05564 0.83265 0.18629 0.0
H1895 H 0.97739 0.75975 0.27805 0.0
H1896 H 0.06953 0.77341 0.21991 0.0
H1897 H 0.97153 0.82824 0.25529 0.0
H1898 H 1.01026 0.76378 0.25556 0.0
H1899 H 1.02355 0.8305 0.20991 0.0
C1900 C 0.05196 0.81923 0.19862 0.0
C1901 C 0.06527 0.80317 0.20112 0.0
C1902 C 1.00187 0.77801 0.25554 0.0
C1903 C 1.02865 0.80056 0.22805 0.0
C1904 C 0.98316 0.77582 0.26853 0.0
C1905 C 0.97164 0.79372 0.26869 0.0
C1906 C 1.00912 0.79816 0.24239 0.0
C1907 C 0.97964 0.81379 0.2555 0.0
C1908 C 0.0337 0.81804 0.21211 0.0
C1909 C 0.05977 0.78617 0.21738 0.0
N1910 N 0.99784 0.81543 0.24284 0.0
N1911 N 0.04187 0.78526 0.23014 0.0
H1912 H 0.56531 0.37884 0.1638 0.0
H1913 H 0.5979 0.46399 0.0605 0.0
H1914 H 0.60892 0.36601 0.11396 0.0
H1915 H 0.57247 0.48943 0.11932 0.0
H1916 H 0.59905 0.42674 0.07838 0.0
H1917 H 0.56471 0.41703 0.14682 0.0
C1918 C 0.57474 0.38387 0.14927 0.0
C1919 C 0.58721 0.36866 0.14053 0.0
C1920 C 0.59324 0.44041 0.08749 0.0
C1921 C 0.58634 0.41311 0.12047 0.0
C1922 C 0.59253 0.46192 0.0772 0.0
C1923 C 0.58516 0.48052 0.08819 0.0
C1924 C 0.58613 0.43658 0.10911 0.0
C1925 C 0.57847 0.47608 0.10997 0.0
C1926 C 0.57443 0.40591 0.13954 0.0
C1927 C 0.59905 0.37676 0.12155 0.0
N1928 N 0.57895 0.45477 0.11949 0.0
N1929 N 0.59819 0.398 0.11225 0.0
H1930 H 0.99932 0.25334 0.34871 0.0
H1931 H 0.90704 0.33093 0.33952 0.0
H1932 H 1.00841 0.32149 0.38995 0.0
H1933 H 0.885 0.25201 0.31792 0.0
H1934 H 0.94607 0.32952 0.35349 0.0
H1935 H 0.96037 0.25421 0.33275 0.0
C1936 C 0.99353 0.26876 0.35419 0.0
C1937 C 1.00788 0.28748 0.37082 0.0
C1938 C 0.93279 0.31244 0.34566 0.0
C1939 C 0.96242 0.28861 0.35227 0.0
C1940 C 0.91025 0.31324 0.33757 0.0
C1941 C 0.89201 0.29157 0.3274 0.0
C1942 C 0.93804 0.28989 0.34339 0.0
C1943 C 0.89802 0.26932 0.32564 0.0
C1944 C 0.97098 0.26912 0.34516 0.0
C1945 C 0.9985 0.30658 0.37724 0.0
N1946 N 0.92021 0.26913 0.33329 0.0
N1947 N 0.97691 0.3067 0.36802 0.0
H1948 H 1.02872 0.70936 0.66679 0.0
H1949 H 0.06412 0.64009 0.55959 0.0
H1950 H 0.06397 0.74912 0.61393 0.0
H1951 H 0.03462 0.60142 0.61528 0.0
H1952 H 0.06253 0.67936 0.5782 0.0
H1953 H 1.02876 0.66984 0.64741 0.0
C1954 C 0.03626 0.70994 0.65099 0.0
C1955 C 0.04624 0.73317 0.64218 0.0
C1956 C 0.05635 0.66233 0.58641 0.0
C1957 C 0.04652 0.68698 0.61956 0.0
C1958 C 0.05724 0.63967 0.57571 0.0
C1959 C 0.04951 0.61689 0.58565 0.0
C1960 C 0.04755 0.66274 0.60742 0.0
C1961 C 0.04084 0.61818 0.60672 0.0
C1962 C 0.03638 0.68714 0.63991 0.0
C1963 C 0.0559 0.73204 0.62158 0.0
N1964 N 0.04009 0.64043 0.61673 0.0
N1965 N 0.0558 0.70963 0.61116 0.0
H1966 H 0.61759 0.7869 0.83972 0.0
H1967 H 0.76062 0.81967 0.85633 0.0
H1968 H 0.65706 0.80109 0.90443 0.0
H1969 H 0.71943 0.77278 0.79858 0.0
H1970 H 0.72363 0.81893 0.87196 0.0
H1971 H 0.65406 0.7873 0.82256 0.0
C1972 C 0.63377 0.79026 0.85046 0.0
C1973 C 0.6335 0.79388 0.87392 0.0
C1974 C 0.72252 0.80885 0.8558 0.0
C1975 C 0.67652 0.79488 0.85382 0.0
C1976 C 0.74391 0.80933 0.84668 0.0
C1977 C 0.74389 0.79629 0.82579 0.0
C1978 C 0.7001 0.79573 0.84402 0.0
C1979 C 0.72097 0.7832 0.81464 0.0
C1980 C 0.6548 0.79038 0.84053 0.0
C1981 C 0.65568 0.79803 0.88642 0.0
N1982 N 0.70043 0.78347 0.82366 0.0
N1983 N 0.67581 0.79865 0.8764 0.0
H1984 H 0.53755 0.63159 0.72147 0.0
H1985 H 0.52088 0.5698 0.59668 0.0
H1986 H 0.47019 0.60334 0.68124 0.0
H1987 H 0.58635 0.59237 0.63992 0.0
H1988 H 0.50352 0.58945 0.62472 0.0
H1989 H 0.55738 0.62721 0.68839 0.0
C1990 C 0.52699 0.62516 0.70552 0.0
C1991 C 0.50217 0.61715 0.70415 0.0
C1992 C 0.52172 0.59021 0.62799 0.0
C1993 C 0.52462 0.61139 0.66646 0.0
C1994 C 0.53159 0.57879 0.61209 0.0
C1995 C 0.555 0.57908 0.61611 0.0
C1996 C 0.53534 0.60197 0.64805 0.0
C1997 C 0.56813 0.59135 0.63623 0.0
C1998 C 0.53829 0.62245 0.68668 0.0
C1999 C 0.48935 0.60937 0.68307 0.0
N2000 N 0.55806 0.60218 0.6515 0.0
N2001 N 0.50071 0.60605 0.66507 0.0
H2002 H 0.78277 0.20547 0.04979 0.0
H2003 H 0.83086 0.24131 0.93307 0.0
H2004 H 0.83198 0.1743 0.02097 0.0
H2005 H 0.7669 0.251 0.95407 0.0
H2006 H 0.8331 0.21817 0.96542 0.0
H2007 H 0.77864 0.22437 0.01544 0.0
C2008 C 0.79273 0.20259 0.0362 0.0
C2009 C 0.80782 0.18835 0.03826 0.0
C2010 C 0.81851 0.22524 0.96281 0.0
C2011 C 0.80319 0.21008 0.9988 0.0
C2012 C 0.81713 0.23836 0.9443 0.0
C2013 C 0.79872 0.24831 0.94087 0.0
C2014 C 0.80151 0.22228 0.97812 0.0
C2015 C 0.78169 0.24418 0.95623 0.0
C2016 C 0.79026 0.21331 0.01653 0.0
C2017 C 0.82015 0.18513 0.02004 0.0
N2018 N 0.7836 0.23166 0.97423 0.0
N2019 N 0.81771 0.19611 1.00107 0.0
H2020 H 0.11944 0.49391 0.21767 0.0
H2021 H 0.06598 0.51804 0.12321 0.0
H2022 H 0.17906 0.50347 0.17914 0.0
H2023 H 0.11943 0.50061 0.0877 0.0
H2024 H 0.08102 0.50477 0.15672 0.0
H2025 H 0.09332 0.48542 0.18318 0.0
C2026 C 0.12697 0.49388 0.2019 0.0
C2027 C 0.15153 0.50028 0.20121 0.0
C2028 C 0.0891 0.50301 0.14154 0.0
C2029 C 0.12201 0.492 0.16173 0.0
C2030 C 0.08064 0.51097 0.12237 0.0
C2031 C 0.09177 0.51095 0.10276 0.0
C2032 C 0.10888 0.49496 0.14107 0.0
C2033 C 0.11055 0.50138 0.10258 0.0
C2034 C 0.11208 0.4894 0.18217 0.0
C2035 C 0.16028 0.49917 0.18041 0.0
N2036 N 0.11876 0.49417 0.12156 0.0
N2037 N 0.14558 0.49577 0.16144 0.0
H2038 H 0.79503 0.85216 0.4828 0.0
H2039 H 0.84452 0.78485 0.38512 0.0
H2040 H 0.83585 0.80358 0.49477 0.0
H2041 H 0.80645 0.836 0.37286 0.0
H2042 H 0.84022 0.79037 0.42498 0.0
H2043 H 0.79717 0.84491 0.44256 0.0
C2044 C 0.80419 0.8397 0.47703 0.0
C2045 C 0.81519 0.82843 0.49244 0.0
C2046 C 0.83278 0.80041 0.41361 0.0
C2047 C 0.81801 0.82025 0.44599 0.0
C2048 C 0.83527 0.7973 0.39072 0.0
C2049 C 0.8259 0.80998 0.37531 0.0
C2050 C 0.82075 0.81632 0.42148 0.0
C2051 C 0.81404 0.82579 0.3839 0.0
C2052 C 0.80553 0.83569 0.45396 0.0
C2053 C 0.82699 0.81266 0.4837 0.0
N2054 N 0.81182 0.82847 0.40626 0.0
N2055 N 0.82813 0.80914 0.46124 0.0
H2056 H 0.50794 0.61068 0.8428 0.0
H2057 H 0.59759 0.54808 0.89399 0.0
H2058 H 0.55808 0.58926 0.80543 0.0
H2059 H 0.55399 0.57767 0.93366 0.0
H2060 H 0.58714 0.56832 0.86242 0.0
H2061 H 0.52848 0.60466 0.87731 0.0
C2062 C 0.52358 0.60528 0.8419 0.0
C2063 C 0.53104 0.59996 0.82124 0.0
C2064 C 0.58003 0.57061 0.87809 0.0
C2065 C 0.55433 0.59265 0.86046 0.0
C2066 C 0.58605 0.55908 0.89614 0.0
C2067 C 0.57629 0.56077 0.91636 0.0
C2068 C 0.56399 0.58375 0.88021 0.0
C2069 C 0.56136 0.57523 0.91816 0.0
C2070 C 0.53524 0.60172 0.86158 0.0
C2071 C 0.55145 0.59311 0.821 0.0
N2072 N 0.55543 0.58591 0.90024 0.0
N2073 N 0.56215 0.58925 0.84029 0.0
H2074 H 0.86157 0.22725 0.13667 0.0
H2075 H 0.83734 0.22492 0.26149 0.0
H2076 H 0.86202 0.16577 0.17488 0.0
H2077 H 0.85983 0.29412 0.23041 0.0
H2078 H 0.85058 0.20433 0.23091 0.0
H2079 H 0.86695 0.25407 0.17137 0.0
C2080 C 0.86349 0.21958 0.15236 0.0
C2081 C 0.86064 0.19405 0.15292 0.0
C2082 C 0.85293 0.2241 0.23086 0.0
C2083 C 0.86624 0.22443 0.1926 0.0
C2084 C 0.8451 0.23579 0.24819 0.0
C2085 C 0.84702 0.26109 0.24816 0.0
C2086 C 0.8623 0.23767 0.21312 0.0
C2087 C 0.85776 0.27446 0.23085 0.0
C2088 C 0.8665 0.2349 0.17218 0.0
C2089 C 0.86368 0.18522 0.17367 0.0
N2090 N 0.86461 0.26245 0.21376 0.0
N2091 N 0.86566 0.20023 0.19274 0.0
H2092 H 0.16345 0.52485 0.33482 0.0
H2093 H 0.07239 0.57882 0.39222 0.0
H2094 H 0.12097 0.56203 0.3004 0.0
H2095 H 0.10169 0.52746 0.42291 0.0
H2096 H 0.09082 0.57319 0.3586 0.0
H2097 H 0.14196 0.52602 0.36771 0.0
C2098 C 0.14957 0.53313 0.33415 0.0
C2099 C 0.14408 0.54349 0.31492 0.0
C2100 C 0.09313 0.56302 0.37264 0.0
C2101 C 0.11962 0.54498 0.3523 0.0
C2102 C 0.08246 0.56611 0.39182 0.0
C2103 C 0.08549 0.55362 0.41047 0.0
C2104 C 0.10714 0.54749 0.37209 0.0
C2105 C 0.0992 0.53779 0.40907 0.0
C2106 C 0.1373 0.53376 0.35287 0.0
C2107 C 0.12589 0.55392 0.31489 0.0
N2108 N 0.10964 0.53528 0.39024 0.0
N2109 N 0.11443 0.55453 0.33332 0.0
H2110 H 0.79978 0.87583 0.63844 0.0
H2111 H 0.79789 0.77205 0.723 0.0
H2112 H 0.81032 0.80616 0.618 0.0
H2113 H 0.80195 0.84764 0.74445 0.0
H2114 H 0.79869 0.78248 0.68436 0.0
H2115 H 0.79679 0.86401 0.6764 0.0
C2116 C 0.80133 0.85789 0.64178 0.0
C2117 C 0.80535 0.84203 0.62461 0.0
C2118 C 0.7993 0.79678 0.69747 0.0
C2119 C 0.80187 0.82828 0.66889 0.0
C2120 C 0.79872 0.79083 0.71968 0.0
C2121 C 0.79976 0.80893 0.73734 0.0
C2122 C 0.80075 0.82104 0.6925 0.0
C2123 C 0.80102 0.83296 0.73161 0.0
C2124 C 0.79969 0.85121 0.66368 0.0
C2125 C 0.8072 0.81907 0.63046 0.0
N2126 N 0.80144 0.83824 0.70982 0.0
N2127 N 0.80544 0.81292 0.652 0.0
H2128 H 0.80481 0.51559 0.55295 0.0
H2129 H 0.70311 0.57335 0.52708 0.0
H2130 H 0.74212 0.47903 0.50735 0.0
H2131 H 0.75974 0.60316 0.58026 0.0
H2132 H 0.7229 0.54516 0.51274 0.0
H2133 H 0.79367 0.55311 0.5564 0.0
C2134 C 0.78873 0.5155 0.54354 0.0
C2135 C 0.77406 0.49397 0.53019 0.0
C2136 C 0.73125 0.55821 0.52727 0.0
C2137 C 0.76127 0.53697 0.53409 0.0
C2138 C 0.72011 0.57456 0.53536 0.0
C2139 C 0.72968 0.59042 0.5551 0.0
C2140 C 0.75201 0.55766 0.53907 0.0
C2141 C 0.75157 0.5909 0.56524 0.0
C2142 C 0.78245 0.537 0.54547 0.0
C2143 C 0.75373 0.49511 0.51806 0.0
N2144 N 0.76184 0.57443 0.55729 0.0
N2145 N 0.74774 0.5162 0.52053 0.0
H2146 H 0.25987 0.15359 0.52728 0.0
H2147 H 0.13429 0.11397 0.57466 0.0
H2148 H 0.23206 0.20887 0.55537 0.0
H2149 H 0.14682 0.07392 0.51614 0.0
H2150 H 0.17354 0.1459 0.57409 0.0
H2151 H 0.22125 0.12113 0.52857 0.0
C2152 C 0.24557 0.15889 0.53359 0.0
C2153 C 0.24905 0.18394 0.54108 0.0
C2154 C 0.16768 0.12998 0.56152 0.0
C2155 C 0.20524 0.14689 0.54322 0.0
C2156 C 0.14549 0.11166 0.56198 0.0
C2157 C 0.13741 0.09131 0.54544 0.0
C2158 C 0.18199 0.12754 0.54471 0.0
C2159 C 0.15243 0.08937 0.52917 0.0
C2160 C 0.22362 0.1404 0.53434 0.0
C2161 C 0.22999 0.18981 0.54919 0.0
N2162 N 0.17407 0.1072 0.52926 0.0
N2163 N 0.20892 0.17134 0.55029 0.0
H2164 H 0.24492 1.0032 0.8594 0.0
H2165 H 0.3468 0.98794 0.78826 0.0
H2166 H 0.28251 0.05737 0.81642 0.0
H2167 H 0.3118 0.93488 0.83325 0.0
H2168 H 0.32746 0.01671 0.80275 0.0
H2169 H 0.27317 0.98089 0.85449 0.0
C2170 C 0.25927 1.01056 0.84918 0.0
C2171 C 0.26115 0.03188 0.83798 0.0
C2172 C 0.32427 0.99892 0.8097 0.0
C2173 C 0.29336 1.00654 0.83222 0.0
C2174 C 0.33528 0.98252 0.80139 0.0
C2175 C 0.33071 0.95896 0.80942 0.0
C2176 C 0.30835 0.99154 0.82593 0.0
C2177 C 0.31589 0.95294 0.82665 0.0
C2178 C 0.27538 0.99784 0.84637 0.0
C2179 C 0.28016 0.04075 0.82507 0.0
N2180 N 0.30496 0.96898 0.83411 0.0
N2181 N 0.29536 0.02788 0.82234 0.0
H2182 H 0.4007 0.96214 0.95947 0.0
H2183 H 0.5205 0.07017 1.00162 0.0
H2184 H 0.40711 0.03894 0.97917 0.0
H2185 H 0.50838 0.99063 0.9989 0.0
H2186 H 0.48302 0.06134 0.97825 0.0
H2187 H 0.44339 0.97546 0.95737 0.0
C2188 C 0.41096 0.98191 0.96272 0.0
C2189 C 0.40058 0.99931 0.97053 0.0
C2190 C 0.4889 0.0459 0.98234 0.0
C2191 C 0.44925 1.01452 0.96842 0.0
C2192 C 0.51018 0.05091 0.99571 0.0
C2193 C 0.51695 0.03102 1.00276 0.0
C2194 C 0.47458 0.02087 0.97603 0.0
C2195 C 0.50329 1.00644 0.9944 0.0
C2196 C 0.43534 0.9895 0.96155 0.0
C2197 C 0.4146 0.02476 0.97392 0.0
N2198 N 0.48253 1.00203 0.98174 0.0
N2199 N 0.4384 0.03155 0.97345 0.0
H2200 H 0.85245 0.55651 0.8298 0.0
H2201 H 0.79663 0.6578 0.87227 0.0
H2202 H 0.88879 0.62171 0.87614 0.0
H2203 H 0.77593 0.61206 0.80911 0.0
H2204 H 0.8203 0.63218 0.88391 0.0
H2205 H 0.8156 0.56536 0.83252 0.0
C2206 C 0.85264 0.57251 0.8408 0.0
C2207 C 0.87385 0.58889 0.85226 0.0
C2208 C 0.80992 0.62734 0.8678 0.0
C2209 C 0.8317 0.5988 0.85559 0.0
C2210 C 0.79644 0.64192 0.86111 0.0
C2211 C 0.7852 0.63782 0.83926 0.0
C2212 C 0.81176 0.60837 0.85264 0.0
C2213 C 0.7847 0.61635 0.82591 0.0
C2214 C 0.83156 0.57741 0.84243 0.0
C2215 C 0.87293 0.60898 0.86661 0.0
N2216 N 0.79835 0.60278 0.83261 0.0
N2217 N 0.85221 0.61363 0.86761 0.0
H2218 H 0.89838 0.69017 0.0351 0.0
H2219 H 0.92044 0.57117 0.08458 0.0
H2220 H 0.8617 0.6512 0.08781 0.0
H2221 H 0.96505 0.61477 0.03862 0.0
H2222 H 0.89762 0.59957 0.08424 0.0
H2223 H 0.9221 0.66213 0.0345 0.0
C2224 C 0.89536 0.67581 0.04656 0.0
C2225 C 0.87803 0.67305 0.06152 0.0
C2226 C 0.91241 0.60299 0.07422 0.0
C2227 C 0.90488 0.64091 0.06084 0.0
C2228 C 0.92555 0.5868 0.07449 0.0
C2229 C 0.94485 0.59062 0.06173 0.0
C2230 C 0.91846 0.62322 0.06104 0.0
C2231 C 0.9502 0.61093 0.04857 0.0
C2232 C 0.90887 0.65981 0.0462 0.0
C2233 C 0.87484 0.65409 0.07598 0.0
N2234 N 0.93711 0.6265 0.04859 0.0
N2235 N 0.88805 0.63878 0.07523 0.0
H2236 H 0.25921 0.13952 0.87065 0.0
H2237 H 0.25723 0.2557 0.80489 0.0
H2238 H 0.19448 0.14842 0.84323 0.0
H2239 H 0.32036 0.24653 0.83647 0.0
H2240 H 0.23321 0.21902 0.82193 0.0
H2241 H 0.28103 0.18218 0.86314 0.0
C2242 C 0.24954 0.15079 0.86355 0.0
C2243 C 0.22514 0.14051 0.85734 0.0
C2244 C 0.25232 0.22518 0.82519 0.0
C2245 C 0.25001 0.18895 0.84787 0.0
C2246 C 0.26605 0.24597 0.81531 0.0
C2247 C 0.29087 0.25404 0.81901 0.0
C2248 C 0.26354 0.21244 0.83879 0.0
C2249 C 0.30131 0.24091 0.83291 0.0
C2250 C 0.262 0.17507 0.85909 0.0
C2251 C 0.21335 0.15579 0.84826 0.0
N2252 N 0.2876 0.22075 0.84217 0.0
N2253 N 0.22601 0.17917 0.84331 0.0
H2254 H 0.43425 1.01063 0.35675 0.0
H2255 H 0.40416 0.8941 0.26826 0.0
H2256 H 0.47513 1.01076 0.30082 0.0
H2257 H 0.38446 0.88686 0.33549 0.0
H2258 H 0.43111 0.93659 0.28016 0.0
H2259 H 0.41729 0.96496 0.3504 0.0
C2260 C 0.44003 1.00094 0.34343 0.0
C2261 C 0.45591 1.01441 0.32914 0.0
C2262 C 0.42112 0.92558 0.29237 0.0
C2263 C 0.43615 0.96234 0.32142 0.0
C2264 C 0.40559 0.90142 0.28555 0.0
C2265 C 0.39184 0.88709 0.30086 0.0
C2266 C 0.42259 0.93561 0.31455 0.0
C2267 C 0.39462 0.89735 0.32311 0.0
C2268 C 0.43034 0.9749 0.3398 0.0
C2269 C 0.46291 1.00102 0.31219 0.0
N2270 N 0.40944 0.92116 0.32923 0.0
N2271 N 0.45257 0.97569 0.30847 0.0
H2272 H 0.66813 0.40962 0.60071 0.0
H2273 H 0.56979 0.47647 0.59434 0.0
H2274 H 0.60304 0.3827 0.63167 0.0
H2275 H 0.64245 0.5132 0.58206 0.0
H2276 H 0.58016 0.44016 0.60494 0.0
H2277 H 0.65744 0.44574 0.59034 0.0
C2278 C 0.65153 0.41123 0.60525 0.0
C2279 C 0.63647 0.39306 0.6171 0.0
C2280 C 0.59383 0.45621 0.59999 0.0
C2281 C 0.62408 0.43444 0.60519 0.0
C2282 C 0.58792 0.47694 0.59389 0.0
C2283 C 0.60527 0.498 0.58731 0.0
C2284 C 0.61719 0.45633 0.59923 0.0
C2285 C 0.62849 0.49748 0.5871 0.0
C2286 C 0.64549 0.43193 0.5994 0.0
C2287 C 0.61522 0.39625 0.62258 0.0
N2288 N 0.63372 0.47697 0.59283 0.0
N2289 N 0.60962 0.41647 0.61652 0.0
H2290 H 0.4524 0.7569 0.41063 0.0
H2291 H 0.42076 0.80379 0.29415 0.0
H2292 H 0.50337 0.8052 0.37225 0.0
H2293 H 0.36863 0.77333 0.33967 0.0
H2294 H 0.4505 0.79533 0.31893 0.0
H2295 H 0.42086 0.75421 0.38117 0.0
C2296 C 0.45697 0.76659 0.39588 0.0
C2297 C 0.4804 0.78155 0.39393 0.0
C2298 C 0.43249 0.79028 0.32339 0.0
C2299 C 0.44477 0.77845 0.36037 0.0
C2300 C 0.41546 0.79505 0.30921 0.0
C2301 C 0.39222 0.78966 0.31498 0.0
C2302 C 0.42629 0.78004 0.34353 0.0
C2303 C 0.38641 0.77814 0.33467 0.0
C2304 C 0.43902 0.76513 0.37916 0.0
C2305 C 0.48546 0.79375 0.37454 0.0
N2306 N 0.4034 0.77394 0.34837 0.0
N2307 N 0.4678 0.79202 0.35858 0.0
H2308 H 0.13697 0.75156 0.09159 0.0
H2309 H 0.0544 0.60823 0.08736 0.0
H2310 H 0.08147 0.72492 0.13464 0.0
H2311 H 0.12413 0.62903 0.06458 0.0
H2312 H 0.06188 0.65195 0.10072 0.0
H2313 H 0.13015 0.70784 0.07713 0.0
C2314 C 0.1232 0.73658 0.09781 0.0
C2315 C 0.10976 0.74192 0.11435 0.0
C2316 C 0.07562 0.64699 0.09289 0.0
C2317 C 0.10192 0.69204 0.09793 0.0
C2318 C 0.07136 0.62201 0.08522 0.0
C2319 C 0.0887 0.6149 0.07488 0.0
C2320 C 0.09727 0.66528 0.08997 0.0
C2321 C 0.11035 0.63365 0.07262 0.0
C2322 C 0.11947 0.71167 0.0897 0.0
C2323 C 0.0923 0.72174 0.12195 0.0
N2324 N 0.11398 0.65806 0.07996 0.0
N2325 N 0.08885 0.69778 0.11364 0.0
H2326 H 0.10538 0.32004 0.91638 0.0
H2327 H 0.17355 0.27852 0.82009 0.0
H2328 H 0.07994 0.24825 0.87684 0.0
H2329 H 0.19567 0.35409 0.85214 0.0
H2330 H 0.13912 0.26741 0.84124 0.0
H2331 H 0.13869 0.33338 0.89349 0.0
C2332 C 0.10675 0.30714 0.90288 0.0
C2333 C 0.08993 0.28297 0.89857 0.0
C2334 C 0.15141 0.28648 0.84362 0.0
C2335 C 0.12782 0.29802 0.87247 0.0
C2336 C 0.17111 0.29277 0.83161 0.0
C2337 C 0.18751 0.3172 0.83448 0.0
C2338 C 0.14809 0.30468 0.85879 0.0
C2339 C 0.18334 0.33506 0.84938 0.0
C2340 C 0.12571 0.31477 0.88982 0.0
C2341 C 0.09251 0.26703 0.88085 0.0
N2342 N 0.16409 0.32841 0.86113 0.0
N2343 N 0.11111 0.2748 0.86854 0.0
H2344 H 0.54452 0.7069 0.96505 0.0
H2345 H 0.61017 0.61227 1.00587 0.0
H2346 H 0.62055 0.72804 0.97145 0.0
H2347 H 0.54626 0.61341 0.03328 0.0
H2348 H 0.61186 0.65032 0.98773 0.0
H2349 H 0.54233 0.66921 0.9843 0.0
C2350 C 0.56081 0.70373 0.97039 0.0
C2351 C 0.5828 0.72123 0.96647 0.0
C2352 C 0.5974 0.64229 0.99766 0.0
C2353 C 0.5803 0.67697 0.9884 0.0
C2354 C 0.59633 0.62031 1.00805 0.0
C2355 C 0.57803 0.60912 0.02141 0.0
C2356 C 0.57969 0.65334 0.99981 0.0
C2357 C 0.56082 0.62105 0.02337 0.0
C2358 C 0.55951 0.68208 0.98153 0.0
C2359 C 0.60315 0.71554 0.97403 0.0
N2360 N 0.56192 0.64206 0.01261 0.0
N2361 N 0.60138 0.69407 0.98422 0.0
H2362 H 0.14766 0.84049 0.70152 0.0
H2363 H 0.22099 0.76963 0.77416 0.0
H2364 H 0.11311 0.78039 0.74025 0.0
H2365 H 0.2546 0.84049 0.74876 0.0
H2366 H 0.18203 0.77157 0.76035 0.0
H2367 H 0.18631 0.83938 0.71688 0.0
C2368 C 0.14799 0.82712 0.71341 0.0
C2369 C 0.12637 0.81071 0.71951 0.0
C2370 C 0.19787 0.78675 0.75774 0.0
C2371 C 0.17191 0.8089 0.73722 0.0
C2372 C 0.2204 0.78563 0.76563 0.0
C2373 C 0.24181 0.80489 0.76283 0.0
C2374 C 0.19605 0.80716 0.74643 0.0
C2375 C 0.23906 0.82505 0.75155 0.0
C2376 C 0.17036 0.82647 0.72221 0.0
C2377 C 0.12881 0.79376 0.735 0.0
N2378 N 0.21702 0.82553 0.74381 0.0
N2379 N 0.15078 0.79321 0.74301 0.0
H2380 H 0.09889 0.37926 0.47596 0.0
H2381 H 1.02633 0.47256 0.50058 0.0
H2382 H 1.02262 0.3532 0.46726 0.0
H2383 H 0.08953 0.4795 0.54275 0.0
H2384 H 1.02716 0.43245 0.48287 0.0
H2385 H 0.09847 0.41905 0.49513 0.0
C2386 C 0.08203 0.38178 0.47804 0.0
C2387 C 0.06075 0.36239 0.46996 0.0
C2388 C 0.04089 0.44273 0.49597 0.0
C2389 C 0.0602 0.40878 0.49154 0.0
C2390 C 0.0405 0.46581 0.5061 0.0
C2391 C 0.05784 0.47978 0.52341 0.0
C2392 C 0.05918 0.43345 0.50249 0.0
C2393 C 0.07565 0.46959 0.52966 0.0
C2394 C 0.08182 0.4046 0.48907 0.0
C2395 C 0.03953 0.36723 0.47327 0.0
N2396 N 0.07601 0.44742 0.51913 0.0
N2397 N 0.03982 0.38979 0.48342 0.0
H2398 H 0.50192 0.31422 0.22039 0.0
H2399 H 0.38265 0.23958 0.27705 0.0
H2400 H 0.4901 0.24123 0.24315 0.0
H2401 H 0.40284 0.31832 0.26841 0.0
H2402 H 0.41993 0.23885 0.26277 0.0
H2403 H 0.46504 0.31512 0.23543 0.0
C2404 C 0.49172 0.29829 0.22851 0.0
C2405 C 0.49984 0.27764 0.2303 0.0
C2406 C 0.41633 0.25636 0.26399 0.0
C2407 C 0.45623 0.27844 0.24777 0.0
C2408 C 0.39477 0.25682 0.27222 0.0
C2409 C 0.38894 0.2791 0.27431 0.0
C2410 C 0.43272 0.27826 0.25717 0.0
C2411 C 0.40604 0.30059 0.26746 0.0
C2412 C 0.47041 0.29885 0.23721 0.0
C2413 C 0.48514 0.25773 0.2412 0.0
N2414 N 0.42665 0.29957 0.25925 0.0
N2415 N 0.46439 0.25859 0.24924 0.0
H2416 H 0.65355 0.58169 0.40364 0.0
H2417 H 0.60144 0.50756 0.50237 0.0
H2418 H 0.64137 0.50221 0.40145 0.0
H2419 H 0.64516 0.58576 0.51207 0.0
H2420 H 0.61623 0.50418 0.46599 0.0
H2421 H 0.65082 0.58323 0.44374 0.0
C2422 C 0.65047 0.56458 0.41173 0.0
C2423 C 0.6474 0.54174 0.39934 0.0
C2424 C 0.62287 0.52193 0.4763 0.0
C2425 C 0.64394 0.54326 0.4451 0.0
C2426 C 0.61435 0.52393 0.49699 0.0
C2427 C 0.62165 0.54714 0.51002 0.0
C2428 C 0.63845 0.54336 0.46853 0.0
C2429 C 0.63871 0.56761 0.5024 0.0
C2430 C 0.64909 0.56549 0.43461 0.0
C2431 C 0.64375 0.52014 0.41054 0.0
N2432 N 0.64619 0.56536 0.48195 0.0
N2433 N 0.64161 0.5213 0.43285 0.0
H2434 H 0.32419 0.90051 0.04086 0.0
H2435 H 0.38179 0.91311 0.16666 0.0
H2436 H 0.362 0.97169 0.07885 0.0
H2437 H 0.34942 0.84256 0.12612 0.0
H2438 H 0.37277 0.93498 0.13553 0.0
H2439 H 0.33096 0.87906 0.07295 0.0
C2440 C 0.33381 0.91167 0.05599 0.0
C2441 C 0.34267 0.93797 0.0571 0.0
C2442 C 0.36767 0.91472 0.13344 0.0
C2443 C 0.3506 0.91344 0.09393 0.0
C2444 C 0.37276 0.90223 0.15121 0.0
C2445 C 0.36642 0.87598 0.14894 0.0
C2446 C 0.35607 0.90086 0.11328 0.0
C2447 C 0.35495 0.86283 0.12849 0.0
C2448 C 0.33772 0.89937 0.07431 0.0
C2449 C 0.35492 0.95139 0.07721 0.0
N2450 N 0.35011 0.87541 0.11147 0.0
N2451 N 0.35861 0.93896 0.09481 0.0
H2452 H 0.04672 0.62865 0.8938 0.0
H2453 H 1.01668 0.56574 1.00395 0.0
H2454 H 0.97915 0.61398 0.92033 0.0
H2455 H 0.08791 0.59377 0.98495 0.0
H2456 H 1.00425 0.58951 0.97654 0.0
H2457 H 0.06431 0.62457 0.93035 0.0
C2458 C 0.03575 0.6254 0.90752 0.0
C2459 C 1.01129 0.6208 0.9039 0.0
C2460 C 1.02266 0.59072 0.97847 0.0
C2461 C 1.0311 0.61542 0.94549 0.0
C2462 C 1.02971 0.57686 0.99396 0.0
C2463 C 0.05323 0.57728 0.99636 0.0
C2464 C 0.03916 0.60478 0.96495 0.0
C2465 C 0.0695 0.59258 0.98337 0.0
C2466 C 0.04578 0.62292 0.92838 0.0
C2467 C 0.998 0.61713 0.9223 0.0
N2468 N 0.06206 0.60542 0.96793 0.0
N2469 N 1.00794 0.61377 0.9422 0.0
H2470 H 0.3533 0.25255 0.62405 0.0
H2471 H 0.31083 0.3286 0.72007 0.0
H2472 H 0.31132 0.29933 0.60921 0.0
H2473 H 0.35288 0.28128 0.73258 0.0
H2474 H 0.31184 0.3199 0.67982 0.0
H2475 H 0.35491 0.26516 0.66367 0.0
C2476 C 0.3446 0.26575 0.62906 0.0
C2477 C 0.33212 0.27481 0.61302 0.0
C2478 C 0.32087 0.31145 0.69137 0.0
C2479 C 0.33364 0.28922 0.65906 0.0
C2480 C 0.32028 0.31637 0.71444 0.0
C2481 C 0.33168 0.30559 0.72998 0.0
C2482 C 0.333 0.29562 0.68358 0.0
C2483 C 0.34368 0.28997 0.72144 0.0
C2484 C 0.34547 0.2729 0.65184 0.0
C2485 C 0.32129 0.29193 0.62082 0.0
N2486 N 0.34397 0.28548 0.69898 0.0
N2487 N 0.32213 0.2984 0.64323 0.0
H2488 H 0.57586 0.529 0.30201 0.0
H2489 H 0.54215 0.49084 0.17368 0.0
H2490 H 0.59988 0.47774 0.26209 0.0
H2491 H 0.52533 0.54957 0.21083 0.0
H2492 H 0.54932 0.47419 0.20844 0.0
H2493 H 0.54468 0.52481 0.2722 0.0
C2494 C 0.57417 0.51629 0.28726 0.0
C2495 C 0.59101 0.5044 0.28415 0.0
C2496 C 0.54349 0.49037 0.209 0.0
C2497 C 0.55557 0.49971 0.25001 0.0
C2498 C 0.53917 0.49983 0.18906 0.0
C2499 C 0.53387 0.52219 0.18935 0.0
C2500 C 0.54292 0.50359 0.22936 0.0
C2501 C 0.53027 0.53284 0.2099 0.0
C2502 C 0.55639 0.51396 0.27022 0.0
C2503 C 0.58772 0.48787 0.26488 0.0
N2504 N 0.53548 0.52383 0.22916 0.0
N2505 N 0.57069 0.48644 0.24832 0.0
H2506 H 0.28009 0.87756 0.95268 0.0
H2507 H 0.26351 0.81291 0.84943 0.0
H2508 H 0.299 0.94517 0.91936 0.0
H2509 H 0.31986 0.8798 0.83742 0.0
H2510 H 0.25376 0.83668 0.88028 0.0
H2511 H 0.27048 0.85274 0.91657 0.0
C2512 C 0.28114 0.8871 0.93764 0.0
C2513 C 0.29028 0.91331 0.93883 0.0
C2514 C 0.26824 0.84612 0.87087 0.0
C2515 C 0.28007 0.88523 0.89751 0.0
C2516 C 0.27384 0.8326 0.85324 0.0
C2517 C 0.29301 0.84423 0.84123 0.0
C2518 C 0.28196 0.87141 0.87654 0.0
C2519 C 0.30534 0.86994 0.84658 0.0
C2520 C 0.27568 0.87296 0.91699 0.0
C2521 C 0.29179 0.92493 0.91899 0.0
N2522 N 0.29973 0.88263 0.864 0.0
N2523 N 0.2875 0.91077 0.89905 0.0
H2524 H 1.00169 0.62736 0.78715 0.0
H2525 H 0.97339 0.537 0.67448 0.0
H2526 H 0.93401 0.56987 0.76725 0.0
H2527 H 0.0425 0.58919 0.69907 0.0
H2528 H 0.9562 0.5551 0.70395 0.0
H2529 H 1.01378 0.62086 0.7502 0.0
C2530 C 0.98916 0.61376 0.77483 0.0
C2531 C 0.96705 0.59867 0.78045 0.0
C2532 C 0.97509 0.56275 0.70274 0.0
C2533 C 0.98095 0.59077 0.7383 0.0
C2534 C 0.9849 0.55243 0.68596 0.0
C2535 C 1.00945 0.56131 0.68464 0.0
C2536 C 0.98997 0.58211 0.71824 0.0
C2537 C 1.02356 0.58135 0.69987 0.0
C2538 C 0.99612 0.60996 0.75375 0.0
C2539 C 0.95137 0.58165 0.76372 0.0
N2540 N 1.01364 0.59094 0.71614 0.0
N2541 N 0.95883 0.57775 0.74351 0.0
H2542 H 0.35641 0.26095 0.48218 0.0
H2543 H 0.29054 0.25001 0.36153 0.0
H2544 H 0.28954 0.2735 0.47263 0.0
H2545 H 0.36595 0.28873 0.3719 0.0
H2546 H 0.2894 0.24961 0.40198 0.0
H2547 H 0.36012 0.26314 0.44182 0.0
C2548 C 0.34259 0.2643 0.47168 0.0
C2549 C 0.3227 0.26724 0.48097 0.0
C2550 C 0.30623 0.25808 0.39541 0.0
C2551 C 0.32651 0.26891 0.43463 0.0
C2552 C 0.30696 0.25817 0.37226 0.0
C2553 C 0.32841 0.2694 0.36312 0.0
C2554 C 0.32717 0.26866 0.4098 0.0
C2555 C 0.34902 0.27988 0.37811 0.0
C2556 C 0.34475 0.26557 0.44866 0.0
C2557 C 0.3053 0.27138 0.46638 0.0
N2558 N 0.34794 0.27905 0.40066 0.0
N2559 N 0.30743 0.27172 0.44404 0.0
H2560 H 0.35408 0.57358 0.5873 0.0
H2561 H 0.44865 0.56611 0.50295 0.0
H2562 H 0.37613 0.62528 0.53743 0.0
H2563 H 0.42794 0.5168 0.55479 0.0
H2564 H 0.41889 0.585 0.51228 0.0
H2565 H 0.37813 0.54997 0.5729 0.0
C2566 C 0.36399 0.57999 0.57329 0.0
C2567 C 0.36327 0.60158 0.56367 0.0
C2568 C 0.42067 0.56984 0.52142 0.0
C2569 C 0.39084 0.57451 0.54702 0.0
C2570 C 0.43765 0.55905 0.51611 0.0
C2571 C 0.44094 0.54 0.52824 0.0
C2572 C 0.40696 0.56157 0.53904 0.0
C2573 C 0.42594 0.53131 0.54488 0.0
C2574 C 0.37767 0.56642 0.56502 0.0
C2575 C 0.37632 0.60884 0.54544 0.0
N2576 N 0.40979 0.54235 0.54994 0.0
N2577 N 0.38969 0.59539 0.53777 0.0
H2578 H 0.9002 0.89398 0.54619 0.0
H2579 H 0.98557 0.03696 0.55427 0.0
H2580 H 0.87771 0.95604 0.56777 0.0
H2581 H 1.00015 0.97497 0.52016 0.0
H2582 H 0.94661 1.00807 0.56087 0.0
H2583 H 0.9381 0.92376 0.53892 0.0
C2584 C 0.90326 0.91387 0.54955 0.0
C2585 C 0.88569 0.92248 0.5576 0.0
C2586 C 0.95832 1.0009 0.55181 0.0
C2587 C 0.92913 0.9568 0.54915 0.0
C2588 C 0.98052 0.01738 0.54797 0.0
C2589 C 0.99622 1.00839 0.53671 0.0
C2590 C 0.95192 0.97525 0.54448 0.0
C2591 C 0.98873 0.9828 0.52899 0.0
C2592 C 0.92489 0.9309 0.54526 0.0
C2593 C 0.89071 0.94853 0.56153 0.0
N2594 N 0.96724 0.96716 0.53315 0.0
N2595 N 0.91198 0.96478 0.55729 0.0
H2596 H 0.91891 0.09519 0.29772 0.0
H2597 H 0.79655 0.11969 0.29951 0.0
H2598 H 0.85707 0.05737 0.25144 0.0
H2599 H 0.85697 0.15654 0.34763 0.0
H2600 H 0.81581 0.09034 0.28688 0.0
H2601 H 0.89462 0.11235 0.32039 0.0
C2602 C 0.9002 0.09036 0.29242 0.0
C2603 C 0.89007 0.07526 0.27246 0.0
C2604 C 0.82473 0.10456 0.30047 0.0
C2605 C 0.86223 0.09465 0.29829 0.0
C2606 C 0.81359 0.1212 0.30788 0.0
C2607 C 0.8254 0.14097 0.32432 0.0
C2608 C 0.84794 0.10791 0.30938 0.0
C2609 C 0.84754 0.14201 0.33444 0.0
C2610 C 0.88633 0.10005 0.30541 0.0
C2611 C 0.86571 0.0693 0.26652 0.0
N2612 N 0.85833 0.12603 0.32649 0.0
N2613 N 0.85268 0.07923 0.27925 0.0
H2614 H 0.75605 0.06614 0.10939 0.0
H2615 H 0.62664 0.07539 0.11246 0.0
H2616 H 0.74219 0.13587 0.11991 0.0
H2617 H 0.64349 0.02174 0.06859 0.0
H2618 H 0.66787 0.0905 0.12956 0.0
H2619 H 0.71349 0.04326 0.10877 0.0
C2620 C 0.74412 0.07658 0.11212 0.0
C2621 C 0.75246 0.1029 0.11425 0.0
C2622 C 0.66226 0.07491 0.11665 0.0
C2623 C 0.7042 0.07697 0.11394 0.0
C2624 C 0.63882 0.06623 0.10702 0.0
C2625 C 0.63199 0.04758 0.08901 0.0
C2626 C 0.67856 0.06445 0.10838 0.0
C2627 C 0.64833 0.03638 0.08233 0.0
C2628 C 0.71993 0.06354 0.11175 0.0
C2629 C 0.73633 0.11557 0.11778 0.0
N2630 N 0.671 0.04516 0.0919 0.0
N2631 N 0.71287 0.10247 0.11731 0.0
H2632 H 0.2245 0.49429 0.3058 0.0
H2633 H 0.34365 0.46079 0.31115 0.0
H2634 H 0.28128 0.52222 0.2643 0.0
H2635 H 0.28094 0.41777 0.33996 0.0
H2636 H 0.32482 0.49164 0.30291 0.0
H2637 H 0.24852 0.47374 0.32638 0.0
C2638 C 0.2421 0.49634 0.30122 0.0
C2639 C 0.2508 0.50953 0.2831 0.0
C2640 C 0.3153 0.47565 0.31134 0.0
C2641 C 0.27827 0.4865 0.30656 0.0
C2642 C 0.32613 0.45813 0.31626 0.0
C2643 C 0.31367 0.43645 0.32591 0.0
C2644 C 0.29181 0.47139 0.316 0.0
C2645 C 0.29093 0.43394 0.332 0.0
C2646 C 0.25576 0.48465 0.31294 0.0
C2647 C 0.27374 0.51181 0.27791 0.0
N2648 N 0.28055 0.45104 0.32664 0.0
N2649 N 0.28661 0.50026 0.28949 0.0
H2650 H 0.2551 0.39527 0.02756 0.0
H2651 H 0.22658 0.52136 0.05833 0.0
H2652 H 0.29287 0.45158 0.08134 0.0
H2653 H 0.17959 0.46015 0.01309 0.0
H2654 H 0.25241 0.4967 0.06484 0.0
H2655 H 0.22827 0.41913 0.02019 0.0
C2656 C 0.25772 0.41257 0.03784 0.0
C2657 C 0.27627 0.42142 0.0551 0.0
C2658 C 0.23647 0.48859 0.05347 0.0
C2659 C 0.24583 0.44883 0.04667 0.0
C2660 C 0.22178 0.50278 0.0496 0.0
C2661 C 0.20093 0.49288 0.03504 0.0
C2662 C 0.23042 0.46427 0.04264 0.0
C2663 C 0.19543 0.46846 0.02455 0.0
C2664 C 0.2424 0.42616 0.03363 0.0
C2665 C 0.27883 0.44397 0.06787 0.0
N2666 N 0.21013 0.455 0.02849 0.0
N2667 N 0.26388 0.45688 0.06335 0.0
H2668 H 0.90248 0.96709 0.21984 0.0
H2669 H 0.90225 0.87061 0.31019 0.0
H2670 H 0.95738 0.98298 0.27442 0.0
H2671 H 0.84501 0.86321 0.25969 0.0
H2672 H 0.92648 0.90824 0.29414 0.0
H2673 H 0.88576 0.9246 0.23018 0.0
C2674 C 0.9112 0.96147 0.23384 0.0
C2675 C 0.93104 0.97861 0.24655 0.0
C2676 C 0.90864 0.8982 0.28659 0.0
C2677 C 0.9117 0.9302 0.25888 0.0
C2678 C 0.89482 0.87685 0.29577 0.0
C2679 C 0.87144 0.86409 0.28654 0.0
C2680 C 0.89899 0.90646 0.26797 0.0
C2681 C 0.86275 0.87272 0.26769 0.0
C2682 C 0.90162 0.93723 0.23981 0.0
C2683 C 0.94191 0.97029 0.26431 0.0
N2684 N 0.87648 0.89335 0.25913 0.0
N2685 N 0.93181 0.9467 0.27026 0.0
H2686 H 0.76763 0.12175 0.74156 0.0
H2687 H 0.77696 0.2635 0.7591 0.0
H2688 H 0.70299 0.13958 0.73893 0.0
H2689 H 0.81053 0.23036 0.80769 0.0
H2690 H 0.75522 0.22126 0.74042 0.0
H2691 H 0.79009 0.16591 0.75361 0.0
C2692 C 0.75825 0.13509 0.74283 0.0
C2693 C 0.73346 0.12713 0.73942 0.0
C2694 C 0.76742 0.22342 0.75514 0.0
C2695 C 0.75893 0.17719 0.75293 0.0
C2696 C 0.7797 0.2473 0.76576 0.0
C2697 C 0.79525 0.25011 0.78499 0.0
C2698 C 0.77154 0.20262 0.76343 0.0
C2699 C 0.79841 0.22876 0.79305 0.0
C2700 C 0.77104 0.16011 0.74988 0.0
C2701 C 0.72211 0.14508 0.74155 0.0
N2702 N 0.7868 0.2058 0.78205 0.0
N2703 N 0.73498 0.16943 0.74827 0.0
loop_
_geom_bond_atom_site_label_1
_geom_bond_atom_site_label_2
_geom_bond_distance
_geom_bond_site_symmetry_2
_ccdc_geom_bond_type
O0 Cd1 2.223 . S
O0 C8 1.315 . S
Cd1 O0 2.223 . S
Cd1 O4 2.297 . S
Cd1 O5 2.439 . S
Cd1 O11 2.240 . S
Cd2 O3 2.240 . S
Cd2 O10 2.223 1_455 S
Cd2 O12 2.297 . S
Cd2 O13 2.439 . S
O3 Cd2 2.240 . S
O3 C8 1.279 . S
O4 Cd1 2.297 . S
O4 C6 1.247 . S
O5 Cd1 2.439 . S
O5 C6 1.208 . S
C6 O4 1.247 . S
C6 O5 1.208 . S
C7 O12 1.247 . S
C7 O13 1.208 . S
C8 O0 1.315 . S
C8 O3 1.279 . S
C9 O10 1.315 . S
C9 O11 1.279 1_655 S
O10 Cd2 2.223 1_655 S
O10 C9 1.315 . S
O11 Cd1 2.240 . S
O11 C9 1.279 1_455 S
O12 Cd2 2.297 . S
O12 C7 1.247 . S
O13 Cd2 2.439 . S
O13 C7 1.208 . S
O14 Cd15 2.223 . S
O14 C22 1.315 . S
Cd15 O14 2.223 . S
Cd15 O18 2.297 1_455 S
Cd15 O19 2.439 . S
Cd15 O25 2.240 . S
Cd16 O17 2.240 . S
Cd16 O24 2.223 . S
Cd16 O26 2.297 . S
Cd16 O27 2.439 . S
O17 Cd16 2.240 . S
O17 C22 1.279 . S
O18 Cd15 2.297 1_655 S
O18 C20 1.247 . S
O19 Cd15 2.439 . S
O19 C20 1.208 1_455 S
C20 O18 1.247 . S
C20 O19 1.208 1_655 S
C21 O26 1.247 . S
C21 O27 1.208 . S
C22 O14 1.315 . S
C22 O17 1.279 . S
C23 O24 1.315 . S
C23 O25 1.279 . S
O24 Cd16 2.223 . S
O24 C23 1.315 . S
O25 Cd15 2.240 . S
O25 C23 1.279 . S
O26 Cd16 2.297 . S
O26 C21 1.247 . S
O27 Cd16 2.439 . S
O27 C21 1.208 . S
O28 Cd29 2.223 . S
O28 C36 1.315 . S
Cd29 O28 2.223 . S
Cd29 O32 2.297 . S
Cd29 O33 2.439 . S
Cd29 O39 2.240 . S
Cd30 O31 2.240 . S
Cd30 O38 2.223 . S
Cd30 O40 2.297 . S
Cd30 O41 2.439 . S
O31 Cd30 2.240 . S
O31 C36 1.279 . S
O32 Cd29 2.297 . S
O32 C34 1.247 . S
O33 Cd29 2.439 . S
O33 C34 1.208 . S
C34 O32 1.247 . S
C34 O33 1.208 . S
C35 O40 1.247 . S
C35 O41 1.208 . S
C36 O28 1.315 . S
C36 O31 1.279 . S
C37 O38 1.315 . S
C37 O39 1.279 . S
O38 Cd30 2.223 . S
O38 C37 1.315 . S
O39 Cd29 2.240 . S
O39 C37 1.279 . S
O40 Cd30 2.297 . S
O40 C35 1.247 . S
O41 Cd30 2.439 . S
O41 C35 1.208 . S
O42 Cd43 2.223 . S
O42 C50 1.315 . S
Cd43 O42 2.223 . S
Cd43 O46 2.297 . S
Cd43 O47 2.439 . S
Cd43 O53 2.240 . S
Cd44 O45 2.240 . S
Cd44 O52 2.223 . S
Cd44 O54 2.297 . S
Cd44 O55 2.439 . S
O45 Cd44 2.240 . S
O45 C50 1.279 . S
O46 Cd43 2.297 . S
O46 C48 1.247 . S
O47 Cd43 2.439 . S
O47 C48 1.208 . S
C48 O46 1.247 . S
C48 O47 1.208 . S
C49 O54 1.247 . S
C49 O55 1.208 . S
C50 O42 1.315 . S
C50 O45 1.279 . S
C51 O52 1.315 . S
C51 O53 1.279 . S
O52 Cd44 2.223 . S
O52 C51 1.315 . S
O53 Cd43 2.240 . S
O53 C51 1.279 . S
O54 Cd44 2.297 . S
O54 C49 1.247 . S
O55 Cd44 2.439 . S
O55 C49 1.208 . S
O56 Cd57 2.223 . S
O56 C64 1.315 . S
Cd57 O56 2.223 . S
Cd57 O60 2.297 . S
Cd57 O61 2.439 . S
Cd57 O67 2.240 . S
Cd58 O59 2.240 . S
Cd58 O66 2.223 . S
Cd58 O68 2.297 . S
Cd58 O69 2.439 . S
O59 Cd58 2.240 . S
O59 C64 1.279 . S
O60 Cd57 2.297 . S
O60 C62 1.247 . S
O61 Cd57 2.439 . S
O61 C62 1.208 . S
C62 O60 1.247 . S
C62 O61 1.208 . S
C63 O68 1.247 . S
C63 O69 1.208 . S
C64 O56 1.315 . S
C64 O59 1.279 . S
C65 O66 1.315 . S
C65 O67 1.279 . S
O66 Cd58 2.223 . S
O66 C65 1.315 . S
O67 Cd57 2.240 . S
O67 C65 1.279 . S
O68 Cd58 2.297 . S
O68 C63 1.247 . S
O69 Cd58 2.439 . S
O69 C63 1.208 . S
O70 Cd71 2.223 . S
O70 C78 1.315 . S
Cd71 O70 2.223 . S
Cd71 O74 2.297 . S
Cd71 O75 2.439 . S
Cd71 O81 2.240 . S
Cd72 O73 2.240 . S
Cd72 O80 2.223 . S
Cd72 O82 2.297 . S
Cd72 O83 2.439 . S
O73 Cd72 2.240 . S
O73 C78 1.279 . S
O74 Cd71 2.297 . S
O74 C76 1.247 . S
O75 Cd71 2.439 . S
O75 C76 1.208 . S
C76 O74 1.247 . S
C76 O75 1.208 . S
C77 O82 1.247 . S
C77 O83 1.208 . S
C78 O70 1.315 . S
C78 O73 1.279 . S
C79 O80 1.315 . S
C79 O81 1.279 . S
O80 Cd72 2.223 . S
O80 C79 1.315 . S
O81 Cd71 2.240 . S
O81 C79 1.279 . S
O82 Cd72 2.297 . S
O82 C77 1.247 . S
O83 Cd72 2.439 . S
O83 C77 1.208 . S
O84 Cd85 2.223 . S
O84 C92 1.315 . S
Cd85 O84 2.223 . S
Cd85 O88 2.297 . S
Cd85 O89 2.439 . S
Cd85 O95 2.240 . S
Cd86 O87 2.240 . S
Cd86 O94 2.223 . S
Cd86 O96 2.297 . S
Cd86 O97 2.439 . S
O87 Cd86 2.240 . S
O87 C92 1.279 . S
O88 Cd85 2.297 . S
O88 C90 1.247 . S
O89 Cd85 2.439 . S
O89 C90 1.208 . S
C90 O88 1.247 . S
C90 O89 1.208 . S
C91 O96 1.247 . S
C91 O97 1.208 . S
C92 O84 1.315 . S
C92 O87 1.279 . S
C93 O94 1.315 . S
C93 O95 1.279 . S
O94 Cd86 2.223 . S
O94 C93 1.315 . S
O95 Cd85 2.240 . S
O95 C93 1.279 . S
O96 Cd86 2.297 . S
O96 C91 1.247 . S
O97 Cd86 2.439 . S
O97 C91 1.208 . S
O98 Cd99 2.223 1_655 S
O98 C106 1.315 . S
Cd99 O98 2.223 1_455 S
Cd99 O102 2.297 . S
Cd99 O103 2.439 . S
Cd99 O109 2.240 1_455 S
Cd100 O101 2.240 1_655 S
Cd100 O108 2.223 . S
Cd100 O110 2.297 . S
Cd100 O111 2.439 1_655 S
O101 Cd100 2.240 1_455 S
O101 C106 1.279 1_455 S
O102 Cd99 2.297 . S
O102 C104 1.247 . S
O103 Cd99 2.439 . S
O103 C104 1.208 . S
C104 O102 1.247 . S
C104 O103 1.208 . S
C105 O110 1.247 1_455 S
C105 O111 1.208 . S
C106 O98 1.315 . S
C106 O101 1.279 1_655 S
C107 O108 1.315 . S
C107 O109 1.279 . S
O108 Cd100 2.223 . S
O108 C107 1.315 . S
O109 Cd99 2.240 1_655 S
O109 C107 1.279 . S
O110 Cd100 2.297 . S
O110 C105 1.247 1_655 S
O111 Cd100 2.439 1_455 S
O111 C105 1.208 . S
O112 Cd113 2.223 . S
O112 C120 1.315 . S
Cd113 O112 2.223 . S
Cd113 O116 2.297 . S
Cd113 O117 2.439 . S
Cd113 O123 2.240 . S
Cd114 O115 2.240 . S
Cd114 O122 2.223 1_545 S
Cd114 O124 2.297 . S
Cd114 O125 2.439 . S
O115 Cd114 2.240 . S
O115 C120 1.279 . S
O116 Cd113 2.297 . S
O116 C118 1.247 . S
O117 Cd113 2.439 . S
O117 C118 1.208 . S
C118 O116 1.247 . S
C118 O117 1.208 . S
C119 O124 1.247 . S
C119 O125 1.208 . S
C120 O112 1.315 . S
C120 O115 1.279 . S
C121 O122 1.315 . S
C121 O123 1.279 1_565 S
O122 Cd114 2.223 1_565 S
O122 C121 1.315 . S
O123 Cd113 2.240 . S
O123 C121 1.279 1_545 S
O124 Cd114 2.297 . S
O124 C119 1.247 . S
O125 Cd114 2.439 . S
O125 C119 1.208 . S
O126 Cd127 2.223 . S
O126 C134 1.315 . S
Cd127 O126 2.223 . S
Cd127 O130 2.297 . S
Cd127 O131 2.439 . S
Cd127 O137 2.240 . S
Cd128 O129 2.240 . S
Cd128 O136 2.223 . S
Cd128 O138 2.297 . S
Cd128 O139 2.439 . S
O129 Cd128 2.240 . S
O129 C134 1.279 . S
O130 Cd127 2.297 . S
O130 C132 1.247 . S
O131 Cd127 2.439 . S
O131 C132 1.208 . S
C132 O130 1.247 . S
C132 O131 1.208 . S
C133 O138 1.247 . S
C133 O139 1.208 . S
C134 O126 1.315 . S
C134 O129 1.279 . S
C135 O136 1.315 . S
C135 O137 1.279 . S
O136 Cd128 2.223 . S
O136 C135 1.315 . S
O137 Cd127 2.240 . S
O137 C135 1.279 . S
O138 Cd128 2.297 . S
O138 C133 1.247 . S
O139 Cd128 2.439 . S
O139 C133 1.208 . S
O140 Cd141 2.223 . S
O140 C148 1.315 . S
Cd141 O140 2.223 . S
Cd141 O144 2.297 . S
Cd141 O145 2.439 . S
Cd141 O151 2.240 . S
Cd142 O143 2.240 . S
Cd142 O150 2.223 . S
Cd142 O152 2.297 . S
Cd142 O153 2.439 . S
O143 Cd142 2.240 . S
O143 C148 1.279 . S
O144 Cd141 2.297 . S
O144 C146 1.247 . S
O145 Cd141 2.439 . S
O145 C146 1.208 . S
C146 O144 1.247 . S
C146 O145 1.208 . S
C147 O152 1.247 . S
C147 O153 1.208 . S
C148 O140 1.315 . S
C148 O143 1.279 . S
C149 O150 1.315 . S
C149 O151 1.279 . S
O150 Cd142 2.223 . S
O150 C149 1.315 . S
O151 Cd141 2.240 . S
O151 C149 1.279 . S
O152 Cd142 2.297 . S
O152 C147 1.247 . S
O153 Cd142 2.439 . S
O153 C147 1.208 . S
O154 Cd155 2.223 . S
O154 C162 1.315 . S
Cd155 O154 2.223 . S
Cd155 O158 2.297 . S
Cd155 O159 2.439 1_554 S
Cd155 O165 2.240 1_554 S
Cd156 O157 2.240 1_556 S
Cd156 O164 2.223 1_556 S
Cd156 O166 2.297 . S
Cd156 O167 2.439 . S
O157 Cd156 2.240 1_554 S
O157 C162 1.279 . S
O158 Cd155 2.297 . S
O158 C160 1.247 . S
O159 Cd155 2.439 1_556 S
O159 C160 1.208 1_556 S
C160 O158 1.247 . S
C160 O159 1.208 1_554 S
C161 O166 1.247 . S
C161 O167 1.208 . S
C162 O154 1.315 . S
C162 O157 1.279 . S
C163 O164 1.315 . S
C163 O165 1.279 1_554 S
O164 Cd156 2.223 1_554 S
O164 C163 1.315 . S
O165 Cd155 2.240 1_556 S
O165 C163 1.279 1_556 S
O166 Cd156 2.297 . S
O166 C161 1.247 . S
O167 Cd156 2.439 . S
O167 C161 1.208 . S
O168 Cd169 2.223 . S
O168 C176 1.315 . S
Cd169 O168 2.223 . S
Cd169 O172 2.297 . S
Cd169 O173 2.439 . S
Cd169 O179 2.240 . S
Cd170 O171 2.240 . S
Cd170 O178 2.223 . S
Cd170 O180 2.297 1_554 S
Cd170 O181 2.439 1_554 S
O171 Cd170 2.240 . S
O171 C176 1.279 . S
O172 Cd169 2.297 . S
O172 C174 1.247 . S
O173 Cd169 2.439 . S
O173 C174 1.208 . S
C174 O172 1.247 . S
C174 O173 1.208 . S
C175 O180 1.247 . S
C175 O181 1.208 . S
C176 O168 1.315 . S
C176 O171 1.279 . S
C177 O178 1.315 . S
C177 O179 1.279 . S
O178 Cd170 2.223 . S
O178 C177 1.315 . S
O179 Cd169 2.240 . S
O179 C177 1.279 . S
O180 Cd170 2.297 1_556 S
O180 C175 1.247 . S
O181 Cd170 2.439 1_556 S
O181 C175 1.208 . S
O182 Cd183 2.223 . S
O182 C190 1.315 . S
Cd183 O182 2.223 . S
Cd183 O186 2.297 . S
Cd183 O187 2.439 . S
Cd183 O193 2.240 . S
Cd184 O185 2.240 . S
Cd184 O192 2.223 . S
Cd184 O194 2.297 . S
Cd184 O195 2.439 . S
O185 Cd184 2.240 . S
O185 C190 1.279 . S
O186 Cd183 2.297 . S
O186 C188 1.247 . S
O187 Cd183 2.439 . S
O187 C188 1.208 . S
C188 O186 1.247 . S
C188 O187 1.208 . S
C189 O194 1.247 . S
C189 O195 1.208 . S
C190 O182 1.315 . S
C190 O185 1.279 . S
C191 O192 1.315 . S
C191 O193 1.279 . S
O192 Cd184 2.223 . S
O192 C191 1.315 . S
O193 Cd183 2.240 . S
O193 C191 1.279 . S
O194 Cd184 2.297 . S
O194 C189 1.247 . S
O195 Cd184 2.439 . S
O195 C189 1.208 . S
O196 Cd197 2.223 . S
O196 C204 1.315 . S
Cd197 O196 2.223 . S
Cd197 O200 2.297 . S
Cd197 O201 2.439 . S
Cd197 O207 2.240 . S
Cd198 O199 2.240 . S
Cd198 O206 2.223 . S
Cd198 O208 2.297 . S
Cd198 O209 2.439 . S
O199 Cd198 2.240 . S
O199 C204 1.279 . S
O200 Cd197 2.297 . S
O200 C202 1.247 . S
O201 Cd197 2.439 . S
O201 C202 1.208 . S
C202 O200 1.247 . S
C202 O201 1.208 . S
C203 O208 1.247 . S
C203 O209 1.208 . S
C204 O196 1.315 . S
C204 O199 1.279 . S
C205 O206 1.315 . S
C205 O207 1.279 . S
O206 Cd198 2.223 . S
O206 C205 1.315 . S
O207 Cd197 2.240 . S
O207 C205 1.279 . S
O208 Cd198 2.297 . S
O208 C203 1.247 . S
O209 Cd198 2.439 . S
O209 C203 1.208 . S
O210 Cd211 2.223 . S
O210 C218 1.315 . S
Cd211 O210 2.223 . S
Cd211 O214 2.297 . S
Cd211 O215 2.439 . S
Cd211 O221 2.240 . S
Cd212 O213 2.240 . S
Cd212 O220 2.223 . S
Cd212 O222 2.297 . S
Cd212 O223 2.439 . S
O213 Cd212 2.240 . S
O213 C218 1.279 . S
O214 Cd211 2.297 . S
O214 C216 1.247 . S
O215 Cd211 2.439 . S
O215 C216 1.208 . S
C216 O214 1.247 . S
C216 O215 1.208 . S
C217 O222 1.247 . S
C217 O223 1.208 . S
C218 O210 1.315 . S
C218 O213 1.279 . S
C219 O220 1.315 . S
C219 O221 1.279 . S
O220 Cd212 2.223 . S
O220 C219 1.315 . S
O221 Cd211 2.240 . S
O221 C219 1.279 . S
O222 Cd212 2.297 . S
O222 C217 1.247 . S
O223 Cd212 2.439 . S
O223 C217 1.208 . S
O224 Cd225 2.223 1_565 S
O224 C232 1.315 1_565 S
Cd225 O224 2.223 1_545 S
Cd225 O228 2.297 . S
Cd225 O229 2.439 . S
Cd225 O235 2.240 1_545 S
Cd226 O227 2.218 1_565 S
Cd226 O234 2.252 . S
Cd226 O236 2.312 . S
Cd226 O237 2.422 1_565 S
O227 Cd226 2.218 1_545 S
O227 C232 1.279 . S
O228 Cd225 2.297 . S
O228 C230 1.247 . S
O229 Cd225 2.439 . S
O229 C230 1.208 . S
C230 O228 1.247 . S
C230 O229 1.208 . S
C231 O236 1.247 1_545 S
C231 O237 1.208 . S
C232 O224 1.315 1_545 S
C232 O227 1.279 . S
C233 O234 1.315 . S
C233 O235 1.279 . S
O234 Cd226 2.252 . S
O234 C233 1.315 . S
O235 Cd225 2.240 1_565 S
O235 C233 1.279 . S
O236 Cd226 2.312 . S
O236 C231 1.247 1_565 S
O237 Cd226 2.422 1_545 S
O237 C231 1.208 . S
O238 Cd239 2.223 . S
O238 C246 1.315 . S
Cd239 O238 2.223 . S
Cd239 O242 2.297 . S
Cd239 O243 2.439 . S
Cd239 O249 2.240 . S
Cd240 O241 2.240 . S
Cd240 O248 2.223 . S
Cd240 O250 2.297 . S
Cd240 O251 2.439 . S
O241 Cd240 2.240 . S
O241 C246 1.279 . S
O242 Cd239 2.297 . S
O242 C244 1.247 . S
O243 Cd239 2.439 . S
O243 C244 1.208 . S
C244 O242 1.247 . S
C244 O243 1.208 . S
C245 O250 1.247 . S
C245 O251 1.208 . S
C246 O238 1.315 . S
C246 O241 1.279 . S
C247 O248 1.315 . S
C247 O249 1.279 . S
O248 Cd240 2.223 . S
O248 C247 1.315 . S
O249 Cd239 2.240 . S
O249 C247 1.279 . S
O250 Cd240 2.297 . S
O250 C245 1.247 . S
O251 Cd240 2.439 . S
O251 C245 1.208 . S
O252 Cd253 2.223 . S
O252 C260 1.315 . S
Cd253 O252 2.223 . S
Cd253 O256 2.297 . S
Cd253 O257 2.439 . S
Cd253 O263 2.240 . S
Cd254 O255 2.240 . S
Cd254 O262 2.223 . S
Cd254 O264 2.297 . S
Cd254 O265 2.439 . S
O255 Cd254 2.240 . S
O255 C260 1.279 . S
O256 Cd253 2.297 . S
O256 C258 1.247 . S
O257 Cd253 2.439 . S
O257 C258 1.208 . S
C258 O256 1.247 . S
C258 O257 1.208 . S
C259 O264 1.247 . S
C259 O265 1.208 . S
C260 O252 1.315 . S
C260 O255 1.279 . S
C261 O262 1.315 . S
C261 O263 1.279 . S
O262 Cd254 2.223 . S
O262 C261 1.315 . S
O263 Cd253 2.240 . S
O263 C261 1.279 . S
O264 Cd254 2.297 . S
O264 C259 1.247 . S
O265 Cd254 2.439 . S
O265 C259 1.208 . S
O266 Cd267 2.223 . S
O266 C274 1.315 . S
Cd267 O266 2.223 . S
Cd267 O270 2.297 . S
Cd267 O271 2.439 . S
Cd267 O277 2.240 . S
Cd268 O269 2.240 . S
Cd268 O276 2.223 . S
Cd268 O278 2.297 . S
Cd268 O279 2.439 . S
O269 Cd268 2.240 . S
O269 C274 1.279 . S
O270 Cd267 2.297 . S
O270 C272 1.247 1_545 S
O271 Cd267 2.439 . S
O271 C272 1.208 1_545 S
C272 O270 1.247 1_565 S
C272 O271 1.208 1_565 S
C273 O278 1.247 . S
C273 O279 1.208 . S
C274 O266 1.315 . S
C274 O269 1.279 . S
C275 O276 1.315 . S
C275 O277 1.279 . S
O276 Cd268 2.223 . S
O276 C275 1.315 . S
O277 Cd267 2.240 . S
O277 C275 1.279 . S
O278 Cd268 2.297 . S
O278 C273 1.247 . S
O279 Cd268 2.439 . S
O279 C273 1.208 . S
O280 Cd281 2.223 . S
O280 C288 1.315 . S
Cd281 O280 2.223 . S
Cd281 O284 2.297 . S
Cd281 O285 2.439 . S
Cd281 O291 2.240 . S
Cd282 O283 2.240 . S
Cd282 O290 2.223 . S
Cd282 O292 2.290 1_554 S
Cd282 O293 2.439 . S
O283 Cd282 2.240 . S
O283 C288 1.279 . S
O284 Cd281 2.297 . S
O284 C286 1.247 . S
O285 Cd281 2.439 . S
O285 C286 1.208 . S
C286 O284 1.247 . S
C286 O285 1.208 . S
C287 O292 1.251 . S
C287 O293 1.208 1_556 S
C288 O280 1.315 . S
C288 O283 1.279 . S
C289 O290 1.315 . S
C289 O291 1.279 . S
O290 Cd282 2.223 . S
O290 C289 1.315 . S
O291 Cd281 2.240 . S
O291 C289 1.279 . S
O292 Cd282 2.290 1_556 S
O292 C287 1.251 . S
O293 Cd282 2.439 . S
O293 C287 1.208 1_554 S
O294 Cd295 2.223 . S
O294 C302 1.315 . S
Cd295 O294 2.223 . S
Cd295 O298 2.297 . S
Cd295 O299 2.439 . S
Cd295 O305 2.240 . S
Cd296 O297 2.240 . S
Cd296 O304 2.223 . S
Cd296 O306 2.297 . S
Cd296 O307 2.439 . S
O297 Cd296 2.240 . S
O297 C302 1.279 . S
O298 Cd295 2.297 . S
O298 C300 1.247 . S
O299 Cd295 2.439 . S
O299 C300 1.208 . S
C300 O298 1.247 . S
C300 O299 1.208 . S
C301 O306 1.247 . S
C301 O307 1.208 . S
C302 O294 1.315 . S
C302 O297 1.279 . S
C303 O304 1.315 . S
C303 O305 1.279 . S
O304 Cd296 2.223 . S
O304 C303 1.315 . S
O305 Cd295 2.240 . S
O305 C303 1.279 . S
O306 Cd296 2.297 . S
O306 C301 1.247 . S
O307 Cd296 2.439 . S
O307 C301 1.208 . S
O308 Cd309 2.223 . S
O308 C316 1.315 . S
Cd309 O308 2.223 . S
Cd309 O312 2.297 . S
Cd309 O313 2.439 . S
Cd309 O319 2.240 . S
Cd310 O311 2.240 . S
Cd310 O318 2.223 . S
Cd310 O320 2.297 . S
Cd310 O321 2.439 . S
O311 Cd310 2.240 . S
O311 C316 1.279 . S
O312 Cd309 2.297 . S
O312 C314 1.247 . S
O313 Cd309 2.439 . S
O313 C314 1.208 . S
C314 O312 1.247 . S
C314 O313 1.208 . S
C315 O320 1.247 . S
C315 O321 1.208 . S
C316 O308 1.315 . S
C316 O311 1.279 . S
C317 O318 1.315 . S
C317 O319 1.279 . S
O318 Cd310 2.223 . S
O318 C317 1.315 . S
O319 Cd309 2.240 . S
O319 C317 1.279 . S
O320 Cd310 2.297 . S
O320 C315 1.247 . S
O321 Cd310 2.439 . S
O321 C315 1.208 . S
O322 Cd323 2.223 . S
O322 C330 1.315 . S
Cd323 O322 2.223 . S
Cd323 O326 2.297 . S
Cd323 O327 2.439 . S
Cd323 O333 2.240 . S
Cd324 O325 2.240 . S
Cd324 O332 2.223 . S
Cd324 O334 2.297 . S
Cd324 O335 2.439 . S
O325 Cd324 2.240 . S
O325 C330 1.279 . S
O326 Cd323 2.297 . S
O326 C328 1.247 . S
O327 Cd323 2.439 . S
O327 C328 1.208 . S
C328 O326 1.247 . S
C328 O327 1.208 . S
C329 O334 1.247 . S
C329 O335 1.208 . S
C330 O322 1.315 . S
C330 O325 1.279 . S
C331 O332 1.315 . S
C331 O333 1.279 . S
O332 Cd324 2.223 . S
O332 C331 1.315 . S
O333 Cd323 2.240 . S
O333 C331 1.279 . S
O334 Cd324 2.297 . S
O334 C329 1.247 . S
O335 Cd324 2.439 . S
O335 C329 1.208 . S
Tb336 C345 2.764 . S
Tb336 O346 2.325 . S
Tb336 O349 2.303 . S
Tb336 O353 2.322 . S
Tb336 O354 2.349 . S
Tb336 O357 2.415 . S
Tb336 O358 2.399 . S
Tb337 O347 2.322 . S
Tb337 O348 2.349 . S
Tb337 O350 2.415 1_455 S
Tb337 O351 2.399 1_455 S
Tb337 O352 2.325 . S
Tb337 O355 2.303 . S
Tb337 C366 2.764 1_455 S
C338 O354 1.261 . S
C338 O355 1.257 . S
C339 C342 1.358 . S
C339 C343 1.332 . S
C339 C345 1.504 . S
C340 C341 1.373 . S
C340 C344 1.308 . S
C341 C340 1.373 . S
C341 C342 1.429 . S
C341 H368 0.932 . S
C342 C339 1.358 . S
C342 C341 1.429 . S
C342 H369 0.930 . S
C343 C339 1.332 . S
C343 C344 1.394 . S
C343 H370 0.932 . S
C344 C340 1.308 . S
C344 C343 1.394 . S
C344 H371 0.929 . S
C345 Tb336 2.764 . S
C345 C339 1.504 . S
C345 O357 1.239 . S
C345 O358 1.263 . S
O346 Tb336 2.325 . S
O346 C356 1.236 . S
O347 Tb337 2.322 . S
O347 C356 1.257 . S
O348 Tb337 2.349 . S
O348 C359 1.261 . S
O349 Tb336 2.303 . S
O349 C359 1.257 . S
O350 Tb337 2.415 1_655 S
O350 C366 1.239 . S
O351 Tb337 2.399 1_655 S
O351 C366 1.263 . S
O352 Tb337 2.325 . S
O352 C367 1.236 . S
O353 Tb336 2.322 . S
O353 C367 1.257 . S
O354 Tb336 2.349 . S
O354 C338 1.261 . S
O355 Tb337 2.303 . S
O355 C338 1.257 . S
C356 O346 1.236 . S
C356 O347 1.257 . S
O357 Tb336 2.415 . S
O357 C345 1.239 . S
O358 Tb336 2.399 . S
O358 C345 1.263 . S
C359 O348 1.261 . S
C359 O349 1.257 . S
C360 C363 1.358 . S
C360 C364 1.332 . S
C360 C366 1.504 . S
C361 C362 1.373 . S
C361 C365 1.308 . S
C362 C361 1.373 . S
C362 C363 1.429 . S
C362 H372 0.932 1_554 S
C363 C360 1.358 . S
C363 C362 1.429 . S
C363 H373 0.930 1_554 S
C364 C360 1.332 . S
C364 C365 1.394 . S
C364 H374 0.932 . S
C365 C361 1.308 . S
C365 C364 1.394 . S
C365 H375 0.929 . S
C366 Tb337 2.764 1_655 S
C366 O350 1.239 . S
C366 O351 1.263 . S
C366 C360 1.504 . S
C367 O352 1.236 . S
C367 O353 1.257 . S
H368 C341 0.932 . S
H369 C342 0.930 . S
H370 C343 0.932 . S
H371 C344 0.929 . S
H372 C362 0.932 1_556 S
H373 C363 0.930 1_556 S
H374 C364 0.932 . S
H375 C365 0.929 . S
Tb376 C385 2.764 . S
Tb376 O386 2.325 . S
Tb376 O389 2.303 . S
Tb376 O393 2.322 . S
Tb376 O394 2.349 . S
Tb376 O397 2.415 . S
Tb376 O398 2.399 . S
Tb377 O387 2.322 . S
Tb377 O388 2.349 . S
Tb377 O390 2.415 . S
Tb377 O391 2.399 . S
Tb377 O392 2.325 . S
Tb377 O395 2.303 . S
Tb377 C406 2.764 . S
C378 O394 1.261 . S
C378 O395 1.257 . S
C379 C382 1.358 . S
C379 C383 1.332 . S
C379 C385 1.504 . S
C380 C381 1.373 . S
C380 C384 1.308 . S
C381 C380 1.373 . S
C381 C382 1.429 . S
C381 H408 0.932 . S
C382 C379 1.358 . S
C382 C381 1.429 . S
C382 H409 0.930 . S
C383 C379 1.332 . S
C383 C384 1.394 . S
C383 H410 0.932 . S
C384 C380 1.308 . S
C384 C383 1.394 . S
C384 H411 0.929 . S
C385 Tb376 2.764 . S
C385 C379 1.504 . S
C385 O397 1.239 . S
C385 O398 1.263 . S
O386 Tb376 2.325 . S
O386 C396 1.236 . S
O387 Tb377 2.322 . S
O387 C396 1.257 . S
O388 Tb377 2.349 . S
O388 C399 1.261 . S
O389 Tb376 2.303 . S
O389 C399 1.257 . S
O390 Tb377 2.415 . S
O390 C406 1.239 . S
O391 Tb377 2.399 . S
O391 C406 1.263 . S
O392 Tb377 2.325 . S
O392 C407 1.236 . S
O393 Tb376 2.322 . S
O393 C407 1.257 . S
O394 Tb376 2.349 . S
O394 C378 1.261 . S
O395 Tb377 2.303 . S
O395 C378 1.257 . S
C396 O386 1.236 . S
C396 O387 1.257 . S
O397 Tb376 2.415 . S
O397 C385 1.239 . S
O398 Tb376 2.399 . S
O398 C385 1.263 . S
C399 O388 1.261 . S
C399 O389 1.257 . S
C400 C403 1.358 . S
C400 C404 1.332 . S
C400 C406 1.504 . S
C401 C402 1.373 . S
C401 C405 1.308 . S
C402 C401 1.373 . S
C402 C403 1.429 . S
C402 H412 0.932 . S
C403 C400 1.358 . S
C403 C402 1.429 . S
C403 H413 0.930 . S
C404 C400 1.332 . S
C404 C405 1.394 . S
C404 H414 0.932 . S
C405 C401 1.308 . S
C405 C404 1.394 . S
C405 H415 0.929 . S
C406 Tb377 2.764 . S
C406 O390 1.239 . S
C406 O391 1.263 . S
C406 C400 1.504 . S
C407 O392 1.236 . S
C407 O393 1.257 . S
H408 C381 0.932 . S
H409 C382 0.930 . S
H410 C383 0.932 . S
H411 C384 0.929 . S
H412 C402 0.932 . S
H413 C403 0.930 . S
H414 C404 0.932 . S
H415 C405 0.929 . S
Tb416 C425 2.764 . S
Tb416 O426 2.325 . S
Tb416 O429 2.303 . S
Tb416 O433 2.322 1_545 S
Tb416 O434 2.349 . S
Tb416 O437 2.415 . S
Tb416 O438 2.399 . S
Tb417 O427 2.322 . S
Tb417 O428 2.349 . S
Tb417 O430 2.415 . S
Tb417 O431 2.399 . S
Tb417 O432 2.325 . S
Tb417 O435 2.303 . S
Tb417 C446 2.764 . S
C418 O434 1.261 . S
C418 O435 1.257 . S
C419 C422 1.358 . S
C419 C423 1.332 . S
C419 C425 1.504 . S
C420 C421 1.373 . S
C420 C424 1.308 . S
C421 C420 1.373 . S
C421 C422 1.429 . S
C421 H448 0.932 . S
C422 C419 1.358 . S
C422 C421 1.429 . S
C422 H449 0.930 . S
C423 C419 1.332 . S
C423 C424 1.394 . S
C423 H450 0.932 . S
C424 C420 1.308 . S
C424 C423 1.394 . S
C424 H451 0.929 . S
C425 Tb416 2.764 . S
C425 C419 1.504 . S
C425 O437 1.239 . S
C425 O438 1.263 . S
O426 Tb416 2.325 . S
O426 C436 1.236 . S
O427 Tb417 2.322 . S
O427 C436 1.257 . S
O428 Tb417 2.349 . S
O428 C439 1.261 . S
O429 Tb416 2.303 . S
O429 C439 1.257 . S
O430 Tb417 2.415 . S
O430 C446 1.239 . S
O431 Tb417 2.399 . S
O431 C446 1.263 . S
O432 Tb417 2.325 . S
O432 C447 1.236 1_545 S
O433 Tb416 2.322 1_565 S
O433 C447 1.257 . S
O434 Tb416 2.349 . S
O434 C418 1.261 . S
O435 Tb417 2.303 . S
O435 C418 1.257 . S
C436 O426 1.236 . S
C436 O427 1.257 . S
O437 Tb416 2.415 . S
O437 C425 1.239 . S
O438 Tb416 2.399 . S
O438 C425 1.263 . S
C439 O428 1.261 . S
C439 O429 1.257 . S
C440 C443 1.358 . S
C440 C444 1.332 1_545 S
C440 C446 1.504 . S
C441 C442 1.373 . S
C441 C445 1.308 . S
C442 C441 1.373 . S
C442 C443 1.429 1_565 S
C442 H452 0.931 1_565 S
C443 C440 1.358 . S
C443 C442 1.429 1_545 S
C443 H453 0.930 . S
C444 C440 1.332 1_565 S
C444 C445 1.394 . S
C444 H454 0.932 . S
C445 C441 1.308 . S
C445 C444 1.394 . S
C445 H455 0.929 . S
C446 Tb417 2.764 . S
C446 O430 1.239 . S
C446 O431 1.263 . S
C446 C440 1.504 . S
C447 O432 1.236 1_565 S
C447 O433 1.257 . S
H448 C421 0.932 . S
H449 C422 0.930 . S
H450 C423 0.932 . S
H451 C424 0.929 . S
H452 C442 0.931 1_545 S
H453 C443 0.930 . S
H454 C444 0.932 . S
H455 C445 0.929 . S
Tb456 C465 2.764 . S
Tb456 O466 2.325 . S
Tb456 O469 2.303 . S
Tb456 O473 2.322 . S
Tb456 O474 2.349 . S
Tb456 O477 2.415 . S
Tb456 O478 2.399 . S
Tb457 O467 2.322 . S
Tb457 O468 2.349 . S
Tb457 O470 2.415 . S
Tb457 O471 2.399 . S
Tb457 O472 2.325 . S
Tb457 O475 2.303 . S
Tb457 C486 2.764 . S
C458 O474 1.261 . S
C458 O475 1.257 . S
C459 C462 1.358 . S
C459 C463 1.332 . S
C459 C465 1.504 . S
C460 C461 1.373 . S
C460 C464 1.308 . S
C461 C460 1.373 . S
C461 C462 1.429 . S
C461 H488 0.932 . S
C462 C459 1.358 . S
C462 C461 1.429 . S
C462 H489 0.930 . S
C463 C459 1.332 . S
C463 C464 1.394 . S
C463 H490 0.932 . S
C464 C460 1.308 . S
C464 C463 1.394 . S
C464 H491 0.929 . S
C465 Tb456 2.764 . S
C465 C459 1.504 . S
C465 O477 1.239 . S
C465 O478 1.263 . S
O466 Tb456 2.325 . S
O466 C476 1.236 . S
O467 Tb457 2.322 . S
O467 C476 1.257 . S
O468 Tb457 2.349 . S
O468 C479 1.261 . S
O469 Tb456 2.303 . S
O469 C479 1.257 . S
O470 Tb457 2.415 . S
O470 C486 1.239 . S
O471 Tb457 2.399 . S
O471 C486 1.263 . S
O472 Tb457 2.325 . S
O472 C487 1.236 . S
O473 Tb456 2.322 . S
O473 C487 1.257 . S
O474 Tb456 2.349 . S
O474 C458 1.261 . S
O475 Tb457 2.303 . S
O475 C458 1.257 . S
C476 O466 1.236 . S
C476 O467 1.257 . S
O477 Tb456 2.415 . S
O477 C465 1.239 . S
O478 Tb456 2.399 . S
O478 C465 1.263 . S
C479 O468 1.261 . S
C479 O469 1.257 . S
C480 C483 1.358 . S
C480 C484 1.332 . S
C480 C486 1.504 . S
C481 C482 1.373 . S
C481 C485 1.308 . S
C482 C481 1.373 . S
C482 C483 1.429 . S
C482 H492 0.932 . S
C483 C480 1.358 . S
C483 C482 1.429 . S
C483 H493 0.930 . S
C484 C480 1.332 . S
C484 C485 1.394 . S
C484 H494 0.932 . S
C485 C481 1.308 . S
C485 C484 1.394 . S
C485 H495 0.929 . S
C486 Tb457 2.764 . S
C486 O470 1.239 . S
C486 O471 1.263 . S
C486 C480 1.504 . S
C487 O472 1.236 . S
C487 O473 1.257 . S
H488 C461 0.932 . S
H489 C462 0.930 . S
H490 C463 0.932 . S
H491 C464 0.929 . S
H492 C482 0.932 . S
H493 C483 0.930 . S
H494 C484 0.932 . S
H495 C485 0.929 . S
Tb496 C505 2.764 . S
Tb496 O506 2.325 . S
Tb496 O509 2.303 . S
Tb496 O513 2.322 . S
Tb496 O514 2.349 . S
Tb496 O517 2.415 . S
Tb496 O518 2.399 . S
Tb497 O507 2.322 1_545 S
Tb497 O508 2.349 . S
Tb497 O510 2.415 . S
Tb497 O511 2.399 . S
Tb497 O512 2.325 . S
Tb497 O515 2.303 . S
Tb497 C526 2.764 . S
C498 O514 1.261 . S
C498 O515 1.257 . S
C499 C502 1.358 . S
C499 C503 1.332 . S
C499 C505 1.504 . S
C500 C501 1.373 . S
C500 C504 1.308 . S
C501 C500 1.373 . S
C501 C502 1.429 . S
C501 H528 0.932 . S
C502 C499 1.358 . S
C502 C501 1.429 . S
C502 H529 0.930 . S
C503 C499 1.332 . S
C503 C504 1.394 . S
C503 H530 0.932 . S
C504 C500 1.308 . S
C504 C503 1.394 . S
C504 H531 0.929 . S
C505 Tb496 2.764 . S
C505 C499 1.504 . S
C505 O517 1.239 . S
C505 O518 1.263 . S
O506 Tb496 2.325 . S
O506 C516 1.236 1_545 S
O507 Tb497 2.322 1_565 S
O507 C516 1.257 . S
O508 Tb497 2.349 . S
O508 C519 1.261 . S
O509 Tb496 2.303 . S
O509 C519 1.257 . S
O510 Tb497 2.415 . S
O510 C526 1.239 . S
O511 Tb497 2.399 . S
O511 C526 1.263 . S
O512 Tb497 2.325 . S
O512 C527 1.236 . S
O513 Tb496 2.322 . S
O513 C527 1.257 . S
O514 Tb496 2.349 . S
O514 C498 1.261 . S
O515 Tb497 2.303 . S
O515 C498 1.257 . S
C516 O506 1.236 1_565 S
C516 O507 1.257 . S
O517 Tb496 2.415 . S
O517 C505 1.239 . S
O518 Tb496 2.399 . S
O518 C505 1.263 . S
C519 O508 1.261 . S
C519 O509 1.257 . S
C520 C523 1.358 . S
C520 C524 1.333 . S
C520 C526 1.504 . S
C521 C522 1.373 . S
C521 C525 1.308 1_455 S
C522 C521 1.373 . S
C522 C523 1.429 . S
C522 H532 0.932 . S
C523 C520 1.358 . S
C523 C522 1.429 . S
C523 H533 0.930 . S
C524 C520 1.333 . S
C524 C525 1.394 1_455 S
C524 H534 0.931 1_455 S
C525 C521 1.308 1_655 S
C525 C524 1.394 1_655 S
C525 H535 0.929 . S
C526 Tb497 2.764 . S
C526 O510 1.239 . S
C526 O511 1.263 . S
C526 C520 1.504 . S
C527 O512 1.236 . S
C527 O513 1.257 . S
H528 C501 0.932 . S
H529 C502 0.930 . S
H530 C503 0.932 . S
H531 C504 0.929 . S
H532 C522 0.932 . S
H533 C523 0.930 . S
H534 C524 0.931 1_655 S
H535 C525 0.929 . S
Tb536 C545 2.764 . S
Tb536 O546 2.325 . S
Tb536 O549 2.303 . S
Tb536 O553 2.322 . S
Tb536 O554 2.349 . S
Tb536 O557 2.415 . S
Tb536 O558 2.399 . S
Tb537 O547 2.322 . S
Tb537 O548 2.349 . S
Tb537 O550 2.415 . S
Tb537 O551 2.399 . S
Tb537 O552 2.325 . S
Tb537 O555 2.303 . S
Tb537 C566 2.764 . S
C538 O554 1.261 . S
C538 O555 1.257 . S
C539 C542 1.358 . S
C539 C543 1.332 . S
C539 C545 1.504 . S
C540 C541 1.373 . S
C540 C544 1.308 . S
C541 C540 1.373 . S
C541 C542 1.429 . S
C541 H568 0.932 . S
C542 C539 1.358 . S
C542 C541 1.429 . S
C542 H569 0.930 . S
C543 C539 1.332 . S
C543 C544 1.394 . S
C543 H570 0.932 . S
C544 C540 1.308 . S
C544 C543 1.394 . S
C544 H571 0.929 . S
C545 Tb536 2.764 . S
C545 C539 1.504 . S
C545 O557 1.239 . S
C545 O558 1.263 . S
O546 Tb536 2.325 . S
O546 C556 1.236 . S
O547 Tb537 2.322 . S
O547 C556 1.257 . S
O548 Tb537 2.349 . S
O548 C559 1.261 . S
O549 Tb536 2.303 . S
O549 C559 1.257 . S
O550 Tb537 2.415 . S
O550 C566 1.239 . S
O551 Tb537 2.399 . S
O551 C566 1.263 . S
O552 Tb537 2.325 . S
O552 C567 1.236 . S
O553 Tb536 2.322 . S
O553 C567 1.257 . S
O554 Tb536 2.349 . S
O554 C538 1.261 . S
O555 Tb537 2.303 . S
O555 C538 1.257 . S
C556 O546 1.236 . S
C556 O547 1.257 . S
O557 Tb536 2.415 . S
O557 C545 1.239 . S
O558 Tb536 2.399 . S
O558 C545 1.263 . S
C559 O548 1.261 . S
C559 O549 1.257 . S
C560 C563 1.358 . S
C560 C564 1.332 . S
C560 C566 1.504 . S
C561 C562 1.373 . S
C561 C565 1.308 . S
C562 C561 1.373 . S
C562 C563 1.429 . S
C562 H572 0.932 . S
C563 C560 1.358 . S
C563 C562 1.429 . S
C563 H573 0.930 . S
C564 C560 1.332 . S
C564 C565 1.394 . S
C564 H574 0.932 . S
C565 C561 1.308 . S
C565 C564 1.394 . S
C565 H575 0.929 . S
C566 Tb537 2.764 . S
C566 O550 1.239 . S
C566 O551 1.263 . S
C566 C560 1.504 . S
C567 O552 1.236 . S
C567 O553 1.257 . S
H568 C541 0.932 . S
H569 C542 0.930 . S
H570 C543 0.932 . S
H571 C544 0.929 . S
H572 C562 0.932 . S
H573 C563 0.930 . S
H574 C564 0.932 . S
H575 C565 0.929 . S
Tb576 C585 2.764 . S
Tb576 O586 2.325 . S
Tb576 O589 2.303 . S
Tb576 O593 2.322 1_545 S
Tb576 O594 2.349 . S
Tb576 O597 2.415 . S
Tb576 O598 2.399 . S
Tb577 O587 2.322 . S
Tb577 O588 2.349 . S
Tb577 O590 2.415 1_554 S
Tb577 O591 2.399 1_554 S
Tb577 O592 2.325 . S
Tb577 O595 2.303 . S
Tb577 C606 2.764 1_554 S
C578 O594 1.261 . S
C578 O595 1.257 . S
C579 C582 1.358 . S
C579 C583 1.332 . S
C579 C585 1.504 . S
C580 C581 1.373 . S
C580 C584 1.308 . S
C581 C580 1.373 . S
C581 C582 1.429 . S
C581 H608 0.932 . S
C582 C579 1.358 . S
C582 C581 1.429 . S
C582 H609 0.930 . S
C583 C579 1.332 . S
C583 C584 1.394 . S
C583 H610 0.932 . S
C584 C580 1.308 . S
C584 C583 1.394 . S
C584 H611 0.929 . S
C585 Tb576 2.764 . S
C585 C579 1.504 . S
C585 O597 1.239 . S
C585 O598 1.263 . S
O586 Tb576 2.325 . S
O586 C596 1.236 . S
O587 Tb577 2.322 . S
O587 C596 1.257 . S
O588 Tb577 2.349 . S
O588 C599 1.261 . S
O589 Tb576 2.303 . S
O589 C599 1.257 . S
O590 Tb577 2.415 1_556 S
O590 C606 1.239 . S
O591 Tb577 2.399 1_556 S
O591 C606 1.263 . S
O592 Tb577 2.325 . S
O592 C607 1.236 1_545 S
O593 Tb576 2.322 1_565 S
O593 C607 1.257 . S
O594 Tb576 2.349 . S
O594 C578 1.261 . S
O595 Tb577 2.303 . S
O595 C578 1.257 . S
C596 O586 1.236 . S
C596 O587 1.257 . S
O597 Tb576 2.415 . S
O597 C585 1.239 . S
O598 Tb576 2.399 . S
O598 C585 1.263 . S
C599 O588 1.261 . S
C599 O589 1.257 . S
C600 C603 1.358 . S
C600 C604 1.332 . S
C600 C606 1.504 . S
C601 C602 1.373 . S
C601 C605 1.308 . S
C602 C601 1.373 . S
C602 C603 1.429 . S
C602 H612 0.932 . S
C603 C600 1.358 . S
C603 C602 1.429 . S
C603 H613 0.930 . S
C604 C600 1.332 . S
C604 C605 1.394 . S
C604 H614 0.932 . S
C605 C601 1.308 . S
C605 C604 1.394 . S
C605 H615 0.929 . S
C606 Tb577 2.764 1_556 S
C606 O590 1.239 . S
C606 O591 1.263 . S
C606 C600 1.504 . S
C607 O592 1.236 1_565 S
C607 O593 1.257 . S
H608 C581 0.932 . S
H609 C582 0.930 . S
H610 C583 0.932 . S
H611 C584 0.929 . S
H612 C602 0.932 . S
H613 C603 0.930 . S
H614 C604 0.932 . S
H615 C605 0.929 . S
Tb616 C625 2.764 . S
Tb616 O626 2.325 . S
Tb616 O629 2.303 . S
Tb616 O633 2.322 . S
Tb616 O634 2.349 . S
Tb616 O637 2.415 . S
Tb616 O638 2.399 . S
Tb617 O627 2.322 . S
Tb617 O628 2.349 . S
Tb617 O630 2.415 . S
Tb617 O631 2.399 . S
Tb617 O632 2.325 . S
Tb617 O635 2.303 . S
Tb617 C646 2.764 . S
C618 O634 1.261 . S
C618 O635 1.257 . S
C619 C622 1.358 . S
C619 C623 1.332 . S
C619 C625 1.504 . S
C620 C621 1.373 . S
C620 C624 1.308 . S
C621 C620 1.373 . S
C621 C622 1.429 . S
C621 H648 0.932 . S
C622 C619 1.358 . S
C622 C621 1.429 . S
C622 H649 0.930 . S
C623 C619 1.332 . S
C623 C624 1.394 . S
C623 H650 0.932 . S
C624 C620 1.308 . S
C624 C623 1.394 . S
C624 H651 0.929 . S
C625 Tb616 2.764 . S
C625 C619 1.504 . S
C625 O637 1.239 . S
C625 O638 1.263 . S
O626 Tb616 2.325 . S
O626 C636 1.236 . S
O627 Tb617 2.322 . S
O627 C636 1.257 . S
O628 Tb617 2.349 . S
O628 C639 1.261 . S
O629 Tb616 2.303 . S
O629 C639 1.257 . S
O630 Tb617 2.415 . S
O630 C646 1.239 . S
O631 Tb617 2.399 . S
O631 C646 1.263 . S
O632 Tb617 2.325 . S
O632 C647 1.236 . S
O633 Tb616 2.322 . S
O633 C647 1.257 . S
O634 Tb616 2.349 . S
O634 C618 1.261 . S
O635 Tb617 2.303 . S
O635 C618 1.257 . S
C636 O626 1.236 . S
C636 O627 1.257 . S
O637 Tb616 2.415 . S
O637 C625 1.239 . S
O638 Tb616 2.399 . S
O638 C625 1.263 . S
C639 O628 1.261 . S
C639 O629 1.257 . S
C640 C643 1.358 . S
C640 C644 1.332 . S
C640 C646 1.504 . S
C641 C642 1.373 . S
C641 C645 1.308 . S
C642 C641 1.373 . S
C642 C643 1.429 . S
C642 H652 0.932 . S
C643 C640 1.358 . S
C643 C642 1.429 . S
C643 H653 0.930 . S
C644 C640 1.332 . S
C644 C645 1.394 . S
C644 H654 0.932 . S
C645 C641 1.308 . S
C645 C644 1.394 . S
C645 H655 0.929 . S
C646 Tb617 2.764 . S
C646 O630 1.239 . S
C646 O631 1.263 . S
C646 C640 1.504 . S
C647 O632 1.236 . S
C647 O633 1.257 . S
H648 C621 0.932 . S
H649 C622 0.930 . S
H650 C623 0.932 . S
H651 C624 0.929 . S
H652 C642 0.932 . S
H653 C643 0.930 . S
H654 C644 0.932 . S
H655 C645 0.929 . S
Tb656 C665 2.764 . S
Tb656 O666 2.325 . S
Tb656 O669 2.303 . S
Tb656 O673 2.322 . S
Tb656 O674 2.349 . S
Tb656 O677 2.415 . S
Tb656 O678 2.399 . S
Tb657 O667 2.322 . S
Tb657 O668 2.349 . S
Tb657 O670 2.415 1_554 S
Tb657 O671 2.399 1_554 S
Tb657 O672 2.325 . S
Tb657 O675 2.303 . S
Tb657 C686 2.764 1_554 S
C658 O674 1.261 . S
C658 O675 1.257 . S
C659 C662 1.358 . S
C659 C663 1.332 . S
C659 C665 1.504 . S
C660 C661 1.373 . S
C660 C664 1.308 . S
C661 C660 1.373 . S
C661 C662 1.429 . S
C661 H688 0.932 . S
C662 C659 1.358 . S
C662 C661 1.429 . S
C662 H689 0.930 . S
C663 C659 1.332 . S
C663 C664 1.394 . S
C663 H690 0.932 . S
C664 C660 1.308 . S
C664 C663 1.394 . S
C664 H691 0.929 . S
C665 Tb656 2.764 . S
C665 C659 1.504 . S
C665 O677 1.239 . S
C665 O678 1.263 . S
O666 Tb656 2.325 . S
O666 C676 1.236 . S
O667 Tb657 2.322 . S
O667 C676 1.257 . S
O668 Tb657 2.349 . S
O668 C679 1.261 . S
O669 Tb656 2.303 . S
O669 C679 1.257 . S
O670 Tb657 2.415 1_556 S
O670 C686 1.239 . S
O671 Tb657 2.399 1_556 S
O671 C686 1.263 . S
O672 Tb657 2.325 . S
O672 C687 1.236 . S
O673 Tb656 2.322 . S
O673 C687 1.257 . S
O674 Tb656 2.349 . S
O674 C658 1.261 . S
O675 Tb657 2.303 . S
O675 C658 1.257 . S
C676 O666 1.236 . S
C676 O667 1.257 . S
O677 Tb656 2.415 . S
O677 C665 1.239 . S
O678 Tb656 2.399 . S
O678 C665 1.263 . S
C679 O668 1.261 . S
C679 O669 1.257 . S
C680 C683 1.358 . S
C680 C684 1.332 . S
C680 C686 1.504 . S
C681 C682 1.373 . S
C681 C685 1.308 . S
C682 C681 1.373 . S
C682 C683 1.429 . S
C682 H692 0.932 . S
C683 C680 1.358 . S
C683 C682 1.429 . S
C683 H693 0.930 . S
C684 C680 1.332 . S
C684 C685 1.394 . S
C684 H694 0.932 . S
C685 C681 1.308 . S
C685 C684 1.394 . S
C685 H695 0.929 . S
C686 Tb657 2.764 1_556 S
C686 O670 1.239 . S
C686 O671 1.263 . S
C686 C680 1.504 . S
C687 O672 1.236 . S
C687 O673 1.257 . S
H688 C661 0.932 . S
H689 C662 0.930 . S
H690 C663 0.932 . S
H691 C664 0.929 . S
H692 C682 0.932 . S
H693 C683 0.930 . S
H694 C684 0.932 . S
H695 C685 0.929 . S
Tb696 C705 2.764 . S
Tb696 O706 2.325 . S
Tb696 O709 2.303 . S
Tb696 O713 2.322 . S
Tb696 O714 2.349 . S
Tb696 O717 2.415 . S
Tb696 O718 2.399 . S
Tb697 O707 2.322 . S
Tb697 O708 2.349 . S
Tb697 O710 2.415 . S
Tb697 O711 2.399 . S
Tb697 O712 2.325 . S
Tb697 O715 2.303 . S
Tb697 C726 2.764 . S
C698 O714 1.261 . S
C698 O715 1.257 . S
C699 C702 1.358 . S
C699 C703 1.332 . S
C699 C705 1.504 . S
C700 C701 1.373 . S
C700 C704 1.308 . S
C701 C700 1.373 . S
C701 C702 1.429 . S
C701 H728 0.932 . S
C702 C699 1.358 . S
C702 C701 1.429 . S
C702 H729 0.930 . S
C703 C699 1.332 . S
C703 C704 1.394 . S
C703 H730 0.932 . S
C704 C700 1.308 . S
C704 C703 1.394 . S
C704 H731 0.929 . S
C705 Tb696 2.764 . S
C705 C699 1.504 . S
C705 O717 1.239 . S
C705 O718 1.263 . S
O706 Tb696 2.325 . S
O706 C716 1.236 . S
O707 Tb697 2.322 . S
O707 C716 1.257 . S
O708 Tb697 2.349 . S
O708 C719 1.261 . S
O709 Tb696 2.303 . S
O709 C719 1.257 . S
O710 Tb697 2.415 . S
O710 C726 1.239 . S
O711 Tb697 2.399 . S
O711 C726 1.263 . S
O712 Tb697 2.325 . S
O712 C727 1.236 . S
O713 Tb696 2.322 . S
O713 C727 1.257 . S
O714 Tb696 2.349 . S
O714 C698 1.261 . S
O715 Tb697 2.303 . S
O715 C698 1.257 . S
C716 O706 1.236 . S
C716 O707 1.257 . S
O717 Tb696 2.415 . S
O717 C705 1.239 . S
O718 Tb696 2.399 . S
O718 C705 1.263 . S
C719 O708 1.261 . S
C719 O709 1.257 . S
C720 C723 1.358 . S
C720 C724 1.332 . S
C720 C726 1.504 . S
C721 C722 1.373 . S
C721 C725 1.308 . S
C722 C721 1.373 . S
C722 C723 1.429 . S
C722 H732 0.932 . S
C723 C720 1.358 . S
C723 C722 1.429 . S
C723 H733 0.930 . S
C724 C720 1.332 . S
C724 C725 1.394 . S
C724 H734 0.932 . S
C725 C721 1.308 . S
C725 C724 1.394 . S
C725 H735 0.929 . S
C726 Tb697 2.764 . S
C726 O710 1.239 . S
C726 O711 1.263 . S
C726 C720 1.504 . S
C727 O712 1.236 . S
C727 O713 1.257 . S
H728 C701 0.932 . S
H729 C702 0.930 . S
H730 C703 0.932 . S
H731 C704 0.929 . S
H732 C722 0.932 . S
H733 C723 0.930 . S
H734 C724 0.932 . S
H735 C725 0.929 . S
Tb736 C745 2.764 . S
Tb736 O746 2.325 . S
Tb736 O749 2.303 . S
Tb736 O753 2.322 . S
Tb736 O754 2.349 . S
Tb736 O757 2.415 . S
Tb736 O758 2.399 . S
Tb737 O747 2.322 . S
Tb737 O748 2.349 1_455 S
Tb737 O750 2.415 . S
Tb737 O751 2.399 . S
Tb737 O752 2.325 . S
Tb737 O755 2.303 . S
Tb737 C766 2.764 . S
C738 O754 1.261 . S
C738 O755 1.257 . S
C739 C742 1.358 . S
C739 C743 1.332 1_455 S
C739 C745 1.504 . S
C740 C741 1.373 . S
C740 C744 1.308 1_455 S
C741 C740 1.373 . S
C741 C742 1.429 . S
C741 H768 0.932 . S
C742 C739 1.358 . S
C742 C741 1.429 . S
C742 H769 0.930 . S
C743 C739 1.332 1_655 S
C743 C744 1.394 . S
C743 H770 0.932 . S
C744 C740 1.308 1_655 S
C744 C743 1.394 . S
C744 H771 0.929 . S
C745 Tb736 2.764 . S
C745 C739 1.504 . S
C745 O757 1.239 . S
C745 O758 1.263 . S
O746 Tb736 2.325 . S
O746 C756 1.236 . S
O747 Tb737 2.322 . S
O747 C756 1.257 . S
O748 Tb737 2.349 1_655 S
O748 C759 1.261 . S
O749 Tb736 2.303 . S
O749 C759 1.257 1_455 S
O750 Tb737 2.415 . S
O750 C766 1.239 . S
O751 Tb737 2.399 . S
O751 C766 1.263 . S
O752 Tb737 2.325 . S
O752 C767 1.236 . S
O753 Tb736 2.322 . S
O753 C767 1.257 . S
O754 Tb736 2.349 . S
O754 C738 1.261 . S
O755 Tb737 2.303 . S
O755 C738 1.257 . S
C756 O746 1.236 . S
C756 O747 1.257 . S
O757 Tb736 2.415 . S
O757 C745 1.239 . S
O758 Tb736 2.399 . S
O758 C745 1.263 . S
C759 O748 1.261 . S
C759 O749 1.257 1_655 S
C760 C763 1.358 . S
C760 C764 1.332 . S
C760 C766 1.504 . S
C761 C762 1.373 . S
C761 C765 1.308 . S
C762 C761 1.373 . S
C762 C763 1.429 . S
C762 H772 0.932 . S
C763 C760 1.358 . S
C763 C762 1.429 . S
C763 H773 0.930 . S
C764 C760 1.332 . S
C764 C765 1.394 . S
C764 H774 0.932 . S
C765 C761 1.308 . S
C765 C764 1.394 . S
C765 H775 0.929 . S
C766 Tb737 2.764 . S
C766 O750 1.239 . S
C766 O751 1.263 . S
C766 C760 1.504 . S
C767 O752 1.236 . S
C767 O753 1.257 . S
H768 C741 0.932 . S
H769 C742 0.930 . S
H770 C743 0.932 . S
H771 C744 0.929 . S
H772 C762 0.932 . S
H773 C763 0.930 . S
H774 C764 0.932 . S
H775 C765 0.929 . S
Tb776 C785 2.764 . S
Tb776 O786 2.325 . S
Tb776 O789 2.303 . S
Tb776 O793 2.322 . S
Tb776 O794 2.349 . S
Tb776 O797 2.415 . S
Tb776 O798 2.399 . S
Tb777 O787 2.322 . S
Tb777 O788 2.349 . S
Tb777 O790 2.415 . S
Tb777 O791 2.399 . S
Tb777 O792 2.325 . S
Tb777 O795 2.303 . S
Tb777 C806 2.764 . S
C778 O794 1.261 . S
C778 O795 1.257 . S
C779 C782 1.358 . S
C779 C783 1.332 . S
C779 C785 1.504 . S
C780 C781 1.373 . S
C780 C784 1.308 . S
C781 C780 1.373 . S
C781 C782 1.429 . S
C781 H808 0.932 . S
C782 C779 1.358 . S
C782 C781 1.429 . S
C782 H809 0.930 . S
C783 C779 1.332 . S
C783 C784 1.394 . S
C783 H810 0.932 . S
C784 C780 1.308 . S
C784 C783 1.394 . S
C784 H811 0.929 . S
C785 Tb776 2.764 . S
C785 C779 1.504 . S
C785 O797 1.239 . S
C785 O798 1.263 . S
O786 Tb776 2.325 . S
O786 C796 1.236 . S
O787 Tb777 2.322 . S
O787 C796 1.257 . S
O788 Tb777 2.349 . S
O788 C799 1.261 . S
O789 Tb776 2.303 . S
O789 C799 1.257 . S
O790 Tb777 2.415 . S
O790 C806 1.239 . S
O791 Tb777 2.399 . S
O791 C806 1.263 . S
O792 Tb777 2.325 . S
O792 C807 1.236 . S
O793 Tb776 2.322 . S
O793 C807 1.257 . S
O794 Tb776 2.349 . S
O794 C778 1.261 . S
O795 Tb777 2.303 . S
O795 C778 1.257 . S
C796 O786 1.236 . S
C796 O787 1.257 . S
O797 Tb776 2.415 . S
O797 C785 1.239 . S
O798 Tb776 2.399 . S
O798 C785 1.263 . S
C799 O788 1.261 . S
C799 O789 1.257 . S
C800 C803 1.358 . S
C800 C804 1.332 . S
C800 C806 1.504 . S
C801 C802 1.373 . S
C801 C805 1.308 . S
C802 C801 1.373 . S
C802 C803 1.429 . S
C802 H812 0.932 . S
C803 C800 1.358 . S
C803 C802 1.429 . S
C803 H813 0.930 . S
C804 C800 1.332 . S
C804 C805 1.394 . S
C804 H814 0.932 . S
C805 C801 1.308 . S
C805 C804 1.394 . S
C805 H815 0.929 . S
C806 Tb777 2.764 . S
C806 O790 1.239 . S
C806 O791 1.263 . S
C806 C800 1.504 . S
C807 O792 1.236 . S
C807 O793 1.257 . S
H808 C781 0.932 . S
H809 C782 0.930 . S
H810 C783 0.932 . S
H811 C784 0.929 . S
H812 C802 0.932 . S
H813 C803 0.930 . S
H814 C804 0.932 . S
H815 C805 0.929 . S
Tb816 C825 2.764 . S
Tb816 O826 2.325 . S
Tb816 O829 2.303 . S
Tb816 O833 2.322 . S
Tb816 O834 2.349 . S
Tb816 O837 2.415 . S
Tb816 O838 2.399 . S
Tb817 O827 2.322 . S
Tb817 O828 2.349 . S
Tb817 O830 2.415 . S
Tb817 O831 2.399 . S
Tb817 O832 2.325 . S
Tb817 O835 2.303 . S
Tb817 C846 2.764 . S
C818 O834 1.261 . S
C818 O835 1.257 . S
C819 C822 1.358 . S
C819 C823 1.332 . S
C819 C825 1.504 . S
C820 C821 1.373 . S
C820 C824 1.308 . S
C821 C820 1.373 . S
C821 C822 1.429 . S
C821 H848 0.932 . S
C822 C819 1.358 . S
C822 C821 1.429 . S
C822 H849 0.930 . S
C823 C819 1.332 . S
C823 C824 1.394 . S
C823 H850 0.932 . S
C824 C820 1.308 . S
C824 C823 1.394 . S
C824 H851 0.929 . S
C825 Tb816 2.764 . S
C825 C819 1.504 . S
C825 O837 1.239 . S
C825 O838 1.263 . S
O826 Tb816 2.325 . S
O826 C836 1.236 . S
O827 Tb817 2.322 . S
O827 C836 1.257 . S
O828 Tb817 2.349 . S
O828 C839 1.261 . S
O829 Tb816 2.303 . S
O829 C839 1.257 . S
O830 Tb817 2.415 . S
O830 C846 1.239 . S
O831 Tb817 2.399 . S
O831 C846 1.263 . S
O832 Tb817 2.325 . S
O832 C847 1.236 . S
O833 Tb816 2.322 . S
O833 C847 1.257 . S
O834 Tb816 2.349 . S
O834 C818 1.261 . S
O835 Tb817 2.303 . S
O835 C818 1.257 . S
C836 O826 1.236 . S
C836 O827 1.257 . S
O837 Tb816 2.415 . S
O837 C825 1.239 . S
O838 Tb816 2.399 . S
O838 C825 1.263 . S
C839 O828 1.261 . S
C839 O829 1.257 . S
C840 C843 1.358 . S
C840 C844 1.332 . S
C840 C846 1.504 . S
C841 C842 1.373 . S
C841 C845 1.308 . S
C842 C841 1.373 . S
C842 C843 1.429 . S
C842 H852 0.932 . S
C843 C840 1.358 . S
C843 C842 1.429 . S
C843 H853 0.930 . S
C844 C840 1.332 . S
C844 C845 1.394 . S
C844 H854 0.932 . S
C845 C841 1.308 . S
C845 C844 1.394 . S
C845 H855 0.929 . S
C846 Tb817 2.764 . S
C846 O830 1.239 . S
C846 O831 1.263 . S
C846 C840 1.504 . S
C847 O832 1.236 . S
C847 O833 1.257 . S
H848 C821 0.932 . S
H849 C822 0.930 . S
H850 C823 0.932 . S
H851 C824 0.929 . S
H852 C842 0.932 . S
H853 C843 0.930 . S
H854 C844 0.932 . S
H855 C845 0.929 . S
Tb856 C865 2.764 . S
Tb856 O866 2.325 . S
Tb856 O869 2.303 . S
Tb856 O873 2.322 . S
Tb856 O874 2.349 . S
Tb856 O877 2.415 . S
Tb856 O878 2.399 . S
Tb857 O867 2.322 . S
Tb857 O868 2.349 . S
Tb857 O870 2.415 . S
Tb857 O871 2.399 . S
Tb857 O872 2.325 . S
Tb857 O875 2.303 . S
Tb857 C886 2.764 . S
C858 O874 1.261 . S
C858 O875 1.257 . S
C859 C862 1.358 . S
C859 C863 1.332 . S
C859 C865 1.504 . S
C860 C861 1.373 . S
C860 C864 1.308 . S
C861 C860 1.373 . S
C861 C862 1.429 . S
C861 H888 0.932 . S
C862 C859 1.358 . S
C862 C861 1.429 . S
C862 H889 0.930 . S
C863 C859 1.332 . S
C863 C864 1.394 . S
C863 H890 0.932 . S
C864 C860 1.308 . S
C864 C863 1.394 . S
C864 H891 0.929 . S
C865 Tb856 2.764 . S
C865 C859 1.504 . S
C865 O877 1.239 . S
C865 O878 1.263 . S
O866 Tb856 2.325 . S
O866 C876 1.236 . S
O867 Tb857 2.322 . S
O867 C876 1.257 . S
O868 Tb857 2.349 . S
O868 C879 1.261 . S
O869 Tb856 2.303 . S
O869 C879 1.257 . S
O870 Tb857 2.415 . S
O870 C886 1.239 . S
O871 Tb857 2.399 . S
O871 C886 1.263 . S
O872 Tb857 2.325 . S
O872 C887 1.236 . S
O873 Tb856 2.322 . S
O873 C887 1.257 . S
O874 Tb856 2.349 . S
O874 C858 1.261 . S
O875 Tb857 2.303 . S
O875 C858 1.257 . S
C876 O866 1.236 . S
C876 O867 1.257 . S
O877 Tb856 2.415 . S
O877 C865 1.239 . S
O878 Tb856 2.399 . S
O878 C865 1.263 . S
C879 O868 1.261 . S
C879 O869 1.257 . S
C880 C883 1.358 . S
C880 C884 1.332 . S
C880 C886 1.504 . S
C881 C882 1.373 . S
C881 C885 1.308 . S
C882 C881 1.373 . S
C882 C883 1.429 . S
C882 H892 0.932 . S
C883 C880 1.358 . S
C883 C882 1.429 . S
C883 H893 0.930 . S
C884 C880 1.332 . S
C884 C885 1.394 . S
C884 H894 0.932 . S
C885 C881 1.308 . S
C885 C884 1.394 . S
C885 H895 0.929 . S
C886 Tb857 2.764 . S
C886 O870 1.239 . S
C886 O871 1.263 . S
C886 C880 1.504 . S
C887 O872 1.236 . S
C887 O873 1.257 . S
H888 C861 0.932 . S
H889 C862 0.930 . S
H890 C863 0.932 . S
H891 C864 0.929 . S
H892 C882 0.932 . S
H893 C883 0.930 . S
H894 C884 0.932 . S
H895 C885 0.929 . S
Tb896 C905 2.764 . S
Tb896 O906 2.325 . S
Tb896 O909 2.303 . S
Tb896 O913 2.322 . S
Tb896 O914 2.349 . S
Tb896 O917 2.415 . S
Tb896 O918 2.399 . S
Tb897 O907 2.322 . S
Tb897 O908 2.349 . S
Tb897 O910 2.415 . S
Tb897 O911 2.399 . S
Tb897 O912 2.325 . S
Tb897 O915 2.303 . S
Tb897 C926 2.764 . S
C898 O914 1.261 . S
C898 O915 1.257 . S
C899 C902 1.358 . S
C899 C903 1.332 . S
C899 C905 1.504 . S
C900 C901 1.373 . S
C900 C904 1.308 . S
C901 C900 1.373 . S
C901 C902 1.429 . S
C901 H928 0.932 . S
C902 C899 1.358 . S
C902 C901 1.429 . S
C902 H929 0.930 . S
C903 C899 1.332 . S
C903 C904 1.394 . S
C903 H930 0.932 . S
C904 C900 1.308 . S
C904 C903 1.394 . S
C904 H931 0.929 . S
C905 Tb896 2.764 . S
C905 C899 1.504 . S
C905 O917 1.239 . S
C905 O918 1.263 . S
O906 Tb896 2.325 . S
O906 C916 1.236 . S
O907 Tb897 2.322 . S
O907 C916 1.257 . S
O908 Tb897 2.349 . S
O908 C919 1.261 . S
O909 Tb896 2.303 . S
O909 C919 1.257 . S
O910 Tb897 2.415 . S
O910 C926 1.239 . S
O911 Tb897 2.399 . S
O911 C926 1.263 . S
O912 Tb897 2.325 . S
O912 C927 1.236 . S
O913 Tb896 2.322 . S
O913 C927 1.257 . S
O914 Tb896 2.349 . S
O914 C898 1.261 . S
O915 Tb897 2.303 . S
O915 C898 1.257 . S
C916 O906 1.236 . S
C916 O907 1.257 . S
O917 Tb896 2.415 . S
O917 C905 1.239 . S
O918 Tb896 2.399 . S
O918 C905 1.263 . S
C919 O908 1.261 . S
C919 O909 1.257 . S
C920 C923 1.358 . S
C920 C924 1.332 . S
C920 C926 1.504 . S
C921 C922 1.373 . S
C921 C925 1.308 . S
C922 C921 1.373 . S
C922 C923 1.429 . S
C922 H932 0.932 . S
C923 C920 1.358 . S
C923 C922 1.429 . S
C923 H933 0.930 . S
C924 C920 1.332 . S
C924 C925 1.394 . S
C924 H934 0.932 . S
C925 C921 1.308 . S
C925 C924 1.394 . S
C925 H935 0.929 . S
C926 Tb897 2.764 . S
C926 O910 1.239 . S
C926 O911 1.263 . S
C926 C920 1.504 . S
C927 O912 1.236 . S
C927 O913 1.257 . S
H928 C901 0.932 . S
H929 C902 0.930 . S
H930 C903 0.932 . S
H931 C904 0.929 . S
H932 C922 0.932 . S
H933 C923 0.930 . S
H934 C924 0.932 . S
H935 C925 0.929 . S
Tb936 C945 2.764 1_455 S
Tb936 O946 2.325 . S
Tb936 O949 2.303 . S
Tb936 O953 2.322 . S
Tb936 O954 2.349 . S
Tb936 O957 2.415 1_455 S
Tb936 O958 2.399 1_455 S
Tb937 O947 2.322 . S
Tb937 O948 2.349 . S
Tb937 O950 2.415 . S
Tb937 O951 2.399 . S
Tb937 O952 2.325 . S
Tb937 O955 2.303 . S
Tb937 C966 2.764 . S
C938 O954 1.261 . S
C938 O955 1.257 . S
C939 C942 1.358 . S
C939 C943 1.332 . S
C939 C945 1.504 . S
C940 C941 1.373 . S
C940 C944 1.308 . S
C941 C940 1.373 . S
C941 C942 1.429 . S
C941 H968 0.932 . S
C942 C939 1.358 . S
C942 C941 1.429 . S
C942 H969 0.930 . S
C943 C939 1.332 . S
C943 C944 1.394 . S
C943 H970 0.932 . S
C944 C940 1.308 . S
C944 C943 1.394 . S
C944 H971 0.929 . S
C945 Tb936 2.764 1_655 S
C945 C939 1.504 . S
C945 O957 1.239 . S
C945 O958 1.263 . S
O946 Tb936 2.325 . S
O946 C956 1.236 . S
O947 Tb937 2.322 . S
O947 C956 1.257 . S
O948 Tb937 2.349 . S
O948 C959 1.261 . S
O949 Tb936 2.303 . S
O949 C959 1.257 . S
O950 Tb937 2.415 . S
O950 C966 1.239 . S
O951 Tb937 2.399 . S
O951 C966 1.263 . S
O952 Tb937 2.325 . S
O952 C967 1.236 . S
O953 Tb936 2.322 . S
O953 C967 1.257 . S
O954 Tb936 2.349 . S
O954 C938 1.261 . S
O955 Tb937 2.303 . S
O955 C938 1.257 . S
C956 O946 1.236 . S
C956 O947 1.257 . S
O957 Tb936 2.415 1_655 S
O957 C945 1.239 . S
O958 Tb936 2.399 1_655 S
O958 C945 1.263 . S
C959 O948 1.261 . S
C959 O949 1.257 . S
C960 C963 1.358 . S
C960 C964 1.332 . S
C960 C966 1.504 . S
C961 C962 1.373 . S
C961 C965 1.308 . S
C962 C961 1.373 . S
C962 C963 1.429 . S
C962 H972 0.932 . S
C963 C960 1.358 . S
C963 C962 1.429 . S
C963 H973 0.930 . S
C964 C960 1.332 . S
C964 C965 1.394 . S
C964 H974 0.932 . S
C965 C961 1.308 . S
C965 C964 1.394 . S
C965 H975 0.929 . S
C966 Tb937 2.764 . S
C966 O950 1.239 . S
C966 O951 1.263 . S
C966 C960 1.504 . S
C967 O952 1.236 . S
C967 O953 1.257 . S
H968 C941 0.932 . S
H969 C942 0.930 . S
H970 C943 0.932 . S
H971 C944 0.929 . S
H972 C962 0.932 . S
H973 C963 0.930 . S
H974 C964 0.932 . S
H975 C965 0.929 . S
H976 C982 0.930 . S
H977 C986 0.926 1_655 S
H978 C991 0.929 . S
H979 C989 0.929 . S
H980 C984 0.929 1_655 S
H981 C990 0.929 . S
C982 H976 0.930 . S
C982 C983 1.367 1_455 S
C982 C990 1.378 . S
C983 C982 1.367 1_655 S
C983 C991 1.433 . S
C984 H980 0.929 1_455 S
C984 C986 1.378 . S
C984 C988 1.350 . S
C985 C988 1.463 1_556 S
C985 C990 1.350 . S
C985 N993 1.427 1_455 S
C986 H977 0.926 1_455 S
C986 C984 1.378 . S
C986 C987 1.367 . S
C987 C986 1.367 . S
C987 C989 1.433 . S
C988 C984 1.350 . S
C988 C985 1.463 1_554 S
C988 N992 1.427 . S
C989 H979 0.929 . S
C989 C987 1.433 . S
C989 N992 1.384 . S
C990 H981 0.929 . S
C990 C982 1.378 . S
C990 C985 1.350 . S
C991 H978 0.929 . S
C991 C983 1.433 . S
C991 N993 1.384 . S
N992 C988 1.427 . S
N992 C989 1.384 . S
N993 C985 1.427 1_655 S
N993 C991 1.384 . S
H994 C1000 0.930 . S
H995 C1004 0.930 . S
H996 C1009 0.929 . S
H997 C1007 0.929 . S
H998 C1002 0.929 . S
H999 C1008 0.929 . S
C1000 H994 0.930 . S
C1000 C1001 1.367 . S
C1000 C1008 1.378 . S
C1001 C1000 1.367 . S
C1001 C1009 1.433 . S
C1002 H998 0.929 . S
C1002 C1004 1.378 . S
C1002 C1006 1.350 . S
C1003 C1006 1.463 . S
C1003 C1008 1.350 . S
C1003 N1011 1.427 . S
C1004 H995 0.930 . S
C1004 C1002 1.378 . S
C1004 C1005 1.367 . S
C1005 C1004 1.367 . S
C1005 C1007 1.433 . S
C1006 C1002 1.350 . S
C1006 C1003 1.463 . S
C1006 N1010 1.427 . S
C1007 H997 0.929 . S
C1007 C1005 1.433 . S
C1007 N1010 1.384 . S
C1008 H999 0.929 . S
C1008 C1000 1.378 . S
C1008 C1003 1.350 . S
C1009 H996 0.929 . S
C1009 C1001 1.433 . S
C1009 N1011 1.384 . S
N1010 C1006 1.427 . S
N1010 C1007 1.384 . S
N1011 C1003 1.427 . S
N1011 C1009 1.384 . S
H1012 C1018 0.930 . S
H1013 C1022 0.930 . S
H1014 C1027 0.929 . S
H1015 C1025 0.929 . S
H1016 C1020 0.929 . S
H1017 C1026 0.929 . S
C1018 H1012 0.930 . S
C1018 C1019 1.367 . S
C1018 C1026 1.378 . S
C1019 C1018 1.367 . S
C1019 C1027 1.433 . S
C1020 H1016 0.929 . S
C1020 C1022 1.378 . S
C1020 C1024 1.350 . S
C1021 C1024 1.463 . S
C1021 C1026 1.350 . S
C1021 N1029 1.427 . S
C1022 H1013 0.930 . S
C1022 C1020 1.378 . S
C1022 C1023 1.367 . S
C1023 C1022 1.367 . S
C1023 C1025 1.433 . S
C1024 C1020 1.350 . S
C1024 C1021 1.463 . S
C1024 N1028 1.427 . S
C1025 H1015 0.929 . S
C1025 C1023 1.433 . S
C1025 N1028 1.384 . S
C1026 H1017 0.929 . S
C1026 C1018 1.378 . S
C1026 C1021 1.350 . S
C1027 H1014 0.929 . S
C1027 C1019 1.433 . S
C1027 N1029 1.384 . S
N1028 C1024 1.427 . S
N1028 C1025 1.384 . S
N1029 C1021 1.427 . S
N1029 C1027 1.384 . S
H1030 C1036 0.930 . S
H1031 C1040 0.930 . S
H1032 C1045 0.929 . S
H1033 C1043 0.929 . S
H1034 C1038 0.929 . S
H1035 C1044 0.929 . S
C1036 H1030 0.930 . S
C1036 C1037 1.367 . S
C1036 C1044 1.378 . S
C1037 C1036 1.367 . S
C1037 C1045 1.433 . S
C1038 H1034 0.929 . S
C1038 C1040 1.378 . S
C1038 C1042 1.350 . S
C1039 C1042 1.463 . S
C1039 C1044 1.350 . S
C1039 N1047 1.427 . S
C1040 H1031 0.930 . S
C1040 C1038 1.378 . S
C1040 C1041 1.367 . S
C1041 C1040 1.367 . S
C1041 C1043 1.433 . S
C1042 C1038 1.350 . S
C1042 C1039 1.463 . S
C1042 N1046 1.427 . S
C1043 H1033 0.929 . S
C1043 C1041 1.433 . S
C1043 N1046 1.384 . S
C1044 H1035 0.929 . S
C1044 C1036 1.378 . S
C1044 C1039 1.350 . S
C1045 H1032 0.929 . S
C1045 C1037 1.433 . S
C1045 N1047 1.384 . S
N1046 C1042 1.427 . S
N1046 C1043 1.384 . S
N1047 C1039 1.427 . S
N1047 C1045 1.384 . S
H1048 C1054 0.930 . S
H1049 C1058 0.930 . S
H1050 C1063 0.929 . S
H1051 C1061 0.929 . S
H1052 C1056 0.929 . S
H1053 C1062 0.929 . S
C1054 H1048 0.930 . S
C1054 C1055 1.367 . S
C1054 C1062 1.378 . S
C1055 C1054 1.367 . S
C1055 C1063 1.433 . S
C1056 H1052 0.929 . S
C1056 C1058 1.378 . S
C1056 C1060 1.350 . S
C1057 C1060 1.463 . S
C1057 C1062 1.350 . S
C1057 N1065 1.427 . S
C1058 H1049 0.930 . S
C1058 C1056 1.378 . S
C1058 C1059 1.367 . S
C1059 C1058 1.367 . S
C1059 C1061 1.433 . S
C1060 C1056 1.350 . S
C1060 C1057 1.463 . S
C1060 N1064 1.427 . S
C1061 H1051 0.929 . S
C1061 C1059 1.433 . S
C1061 N1064 1.384 . S
C1062 H1053 0.929 . S
C1062 C1054 1.378 . S
C1062 C1057 1.350 . S
C1063 H1050 0.929 . S
C1063 C1055 1.433 . S
C1063 N1065 1.384 . S
N1064 C1060 1.427 . S
N1064 C1061 1.384 . S
N1065 C1057 1.427 . S
N1065 C1063 1.384 . S
H1066 C1072 0.930 . S
H1067 C1076 0.930 . S
H1068 C1081 0.929 . S
H1069 C1079 0.929 . S
H1070 C1074 0.929 . S
H1071 C1080 0.929 . S
C1072 H1066 0.930 . S
C1072 C1073 1.367 . S
C1072 C1080 1.378 . S
C1073 C1072 1.367 . S
C1073 C1081 1.433 . S
C1074 H1070 0.929 . S
C1074 C1076 1.378 . S
C1074 C1078 1.350 . S
C1075 C1078 1.463 . S
C1075 C1080 1.350 . S
C1075 N1083 1.427 . S
C1076 H1067 0.930 . S
C1076 C1074 1.378 . S
C1076 C1077 1.367 . S
C1077 C1076 1.367 . S
C1077 C1079 1.433 . S
C1078 C1074 1.350 . S
C1078 C1075 1.463 . S
C1078 N1082 1.427 . S
C1079 H1069 0.929 . S
C1079 C1077 1.433 . S
C1079 N1082 1.384 . S
C1080 H1071 0.929 . S
C1080 C1072 1.378 . S
C1080 C1075 1.350 . S
C1081 H1068 0.929 . S
C1081 C1073 1.433 . S
C1081 N1083 1.384 . S
N1082 C1078 1.427 . S
N1082 C1079 1.384 . S
N1083 C1075 1.427 . S
N1083 C1081 1.384 . S
H1084 C1090 0.930 . S
H1085 C1094 0.930 . S
H1086 C1099 0.929 . S
H1087 C1097 0.929 . S
H1088 C1092 0.929 . S
H1089 C1098 0.929 . S
C1090 H1084 0.930 . S
C1090 C1091 1.367 . S
C1090 C1098 1.378 . S
C1091 C1090 1.367 . S
C1091 C1099 1.433 . S
C1092 H1088 0.929 . S
C1092 C1094 1.378 . S
C1092 C1096 1.350 . S
C1093 C1096 1.463 . S
C1093 C1098 1.350 . S
C1093 N1101 1.427 . S
C1094 H1085 0.930 . S
C1094 C1092 1.378 . S
C1094 C1095 1.367 . S
C1095 C1094 1.367 . S
C1095 C1097 1.433 . S
C1096 C1092 1.350 . S
C1096 C1093 1.463 . S
C1096 N1100 1.427 . S
C1097 H1087 0.929 . S
C1097 C1095 1.433 . S
C1097 N1100 1.384 . S
C1098 H1089 0.929 . S
C1098 C1090 1.378 . S
C1098 C1093 1.350 . S
C1099 H1086 0.929 . S
C1099 C1091 1.433 . S
C1099 N1101 1.384 . S
N1100 C1096 1.427 . S
N1100 C1097 1.384 . S
N1101 C1093 1.427 . S
N1101 C1099 1.384 . S
H1102 C1108 0.930 . S
H1103 C1112 0.930 . S
H1104 C1117 0.929 . S
H1105 C1115 0.929 . S
H1106 C1110 0.929 . S
H1107 C1116 0.929 . S
C1108 H1102 0.930 . S
C1108 C1109 1.367 . S
C1108 C1116 1.378 . S
C1109 C1108 1.367 . S
C1109 C1117 1.433 . S
C1110 H1106 0.929 . S
C1110 C1112 1.378 . S
C1110 C1114 1.350 . S
C1111 C1114 1.463 . S
C1111 C1116 1.350 . S
C1111 N1119 1.427 . S
C1112 H1103 0.930 . S
C1112 C1110 1.378 . S
C1112 C1113 1.367 . S
C1113 C1112 1.367 . S
C1113 C1115 1.433 . S
C1114 C1110 1.350 . S
C1114 C1111 1.463 . S
C1114 N1118 1.427 . S
C1115 H1105 0.929 . S
C1115 C1113 1.433 . S
C1115 N1118 1.384 . S
C1116 H1107 0.929 . S
C1116 C1108 1.378 . S
C1116 C1111 1.350 . S
C1117 H1104 0.929 . S
C1117 C1109 1.433 . S
C1117 N1119 1.384 . S
N1118 C1114 1.427 . S
N1118 C1115 1.384 . S
N1119 C1111 1.427 . S
N1119 C1117 1.384 . S
H1120 C1126 0.930 . S
H1121 C1130 0.930 . S
H1122 C1135 0.929 . S
H1123 C1133 0.929 . S
H1124 C1128 0.929 . S
H1125 C1134 0.893 1_565 S
C1126 H1120 0.930 . S
C1126 C1127 1.367 1_565 S
C1126 C1134 1.371 1_565 S
C1127 C1126 1.367 1_545 S
C1127 C1135 1.433 . S
C1128 H1124 0.929 . S
C1128 C1130 1.378 1_655 S
C1128 C1132 1.350 . S
C1129 C1132 1.463 . S
C1129 C1134 1.394 . S
C1129 N1137 1.427 . S
C1130 H1121 0.930 . S
C1130 C1128 1.378 1_455 S
C1130 C1131 1.367 . S
C1131 C1130 1.367 . S
C1131 C1133 1.433 . S
C1132 C1128 1.350 . S
C1132 C1129 1.463 . S
C1132 N1136 1.427 . S
C1133 H1123 0.929 . S
C1133 C1131 1.433 . S
C1133 N1136 1.384 1_455 S
C1134 H1125 0.893 1_545 S
C1134 C1126 1.371 1_545 S
C1134 C1129 1.394 . S
C1135 H1122 0.929 . S
C1135 C1127 1.433 . S
C1135 N1137 1.384 . S
N1136 C1132 1.427 . S
N1136 C1133 1.384 1_655 S
N1137 C1129 1.427 . S
N1137 C1135 1.384 . S
H1138 C1144 0.930 . S
H1139 C1148 0.930 . S
H1140 C1153 0.929 . S
H1141 C1151 0.929 . S
H1142 C1146 0.929 . S
H1143 C1152 0.929 . S
C1144 H1138 0.930 . S
C1144 C1145 1.367 . S
C1144 C1152 1.378 . S
C1145 C1144 1.367 . S
C1145 C1153 1.433 . S
C1146 H1142 0.929 . S
C1146 C1148 1.378 . S
C1146 C1150 1.350 . S
C1147 C1150 1.463 . S
C1147 C1152 1.350 . S
C1147 N1155 1.427 . S
C1148 H1139 0.930 . S
C1148 C1146 1.378 . S
C1148 C1149 1.367 . S
C1149 C1148 1.367 . S
C1149 C1151 1.433 . S
C1150 C1146 1.350 . S
C1150 C1147 1.463 . S
C1150 N1154 1.427 . S
C1151 H1141 0.929 . S
C1151 C1149 1.433 . S
C1151 N1154 1.384 . S
C1152 H1143 0.929 . S
C1152 C1144 1.378 . S
C1152 C1147 1.350 . S
C1153 H1140 0.929 . S
C1153 C1145 1.433 . S
C1153 N1155 1.384 . S
N1154 C1150 1.427 . S
N1154 C1151 1.384 . S
N1155 C1147 1.427 . S
N1155 C1153 1.384 . S
H1156 C1162 0.930 . S
H1157 C1166 0.930 . S
H1158 C1171 0.929 . S
H1159 C1169 0.929 1_565 S
H1160 C1164 0.929 . S
H1161 C1170 0.894 1_565 S
C1162 H1156 0.930 . S
C1162 C1163 1.367 . S
C1162 C1170 1.378 . S
C1163 C1162 1.367 . S
C1163 C1171 1.433 . S
C1164 H1160 0.929 . S
C1164 C1166 1.378 . S
C1164 C1168 1.350 . S
C1165 C1168 1.463 . S
C1165 C1170 1.350 . S
C1165 N1173 1.427 . S
C1166 H1157 0.930 . S
C1166 C1164 1.378 . S
C1166 C1167 1.367 . S
C1167 C1166 1.367 . S
C1167 C1169 1.433 . S
C1168 C1164 1.350 . S
C1168 C1165 1.463 . S
C1168 N1172 1.427 . S
C1169 H1159 0.929 1_545 S
C1169 C1167 1.433 . S
C1169 N1172 1.384 . S
C1170 H1161 0.894 1_545 S
C1170 C1162 1.378 . S
C1170 C1165 1.350 . S
C1171 H1158 0.929 . S
C1171 C1163 1.433 . S
C1171 N1173 1.384 . S
N1172 C1168 1.427 . S
N1172 C1169 1.384 . S
N1173 C1165 1.427 . S
N1173 C1171 1.384 . S
H1174 C1180 0.930 . S
H1175 C1184 0.930 . S
H1176 C1189 0.929 . S
H1177 C1187 0.929 . S
H1178 C1182 0.929 . S
H1179 C1188 0.929 . S
C1180 H1174 0.930 . S
C1180 C1181 1.367 . S
C1180 C1188 1.378 . S
C1181 C1180 1.367 . S
C1181 C1189 1.433 . S
C1182 H1178 0.929 . S
C1182 C1184 1.378 . S
C1182 C1186 1.350 . S
C1183 C1186 1.463 . S
C1183 C1188 1.350 . S
C1183 N1191 1.427 . S
C1184 H1175 0.930 . S
C1184 C1182 1.378 . S
C1184 C1185 1.367 . S
C1185 C1184 1.367 . S
C1185 C1187 1.433 . S
C1186 C1182 1.350 . S
C1186 C1183 1.463 . S
C1186 N1190 1.427 . S
C1187 H1177 0.929 . S
C1187 C1185 1.433 . S
C1187 N1190 1.384 . S
C1188 H1179 0.929 . S
C1188 C1180 1.378 . S
C1188 C1183 1.350 . S
C1189 H1176 0.929 . S
C1189 C1181 1.433 . S
C1189 N1191 1.384 . S
N1190 C1186 1.427 . S
N1190 C1187 1.384 . S
N1191 C1183 1.427 . S
N1191 C1189 1.384 . S
H1192 C1198 0.930 . S
H1193 C1202 0.930 . S
H1194 C1207 0.929 . S
H1195 C1205 0.929 . S
H1196 C1200 0.929 . S
H1197 C1206 0.929 . S
C1198 H1192 0.930 . S
C1198 C1199 1.367 . S
C1198 C1206 1.378 . S
C1199 C1198 1.367 . S
C1199 C1207 1.433 1_545 S
C1200 H1196 0.929 . S
C1200 C1202 1.378 1_655 S
C1200 C1204 1.350 1_565 S
C1201 C1204 1.463 . S
C1201 C1206 1.350 . S
C1201 N1209 1.427 1_545 S
C1202 H1193 0.930 . S
C1202 C1200 1.378 1_455 S
C1202 C1203 1.367 1_565 S
C1203 C1202 1.367 1_545 S
C1203 C1205 1.433 1_455 S
C1204 C1200 1.350 1_545 S
C1204 C1201 1.463 . S
C1204 N1208 1.427 . S
C1205 H1195 0.929 . S
C1205 C1203 1.433 1_655 S
C1205 N1208 1.384 . S
C1206 H1197 0.929 . S
C1206 C1198 1.378 . S
C1206 C1201 1.350 . S
C1207 H1194 0.929 . S
C1207 C1199 1.433 1_565 S
C1207 N1209 1.384 . S
N1208 C1204 1.427 . S
N1208 C1205 1.384 . S
N1209 C1201 1.427 1_565 S
N1209 C1207 1.384 . S
H1210 C1216 0.930 . S
H1211 C1220 0.930 . S
H1212 C1225 0.929 . S
H1213 C1223 0.929 . S
H1214 C1218 0.929 . S
H1215 C1224 0.929 . S
C1216 H1210 0.930 . S
C1216 C1217 1.367 . S
C1216 C1224 1.378 . S
C1217 C1216 1.367 . S
C1217 C1225 1.433 . S
C1218 H1214 0.929 . S
C1218 C1220 1.378 . S
C1218 C1222 1.350 . S
C1219 C1222 1.463 . S
C1219 C1224 1.350 . S
C1219 N1227 1.427 . S
C1220 H1211 0.930 . S
C1220 C1218 1.378 . S
C1220 C1221 1.367 . S
C1221 C1220 1.367 . S
C1221 C1223 1.433 . S
C1222 C1218 1.350 . S
C1222 C1219 1.463 . S
C1222 N1226 1.427 . S
C1223 H1213 0.929 . S
C1223 C1221 1.433 . S
C1223 N1226 1.384 . S
C1224 H1215 0.929 . S
C1224 C1216 1.378 . S
C1224 C1219 1.350 . S
C1225 H1212 0.929 . S
C1225 C1217 1.433 . S
C1225 N1227 1.384 . S
N1226 C1222 1.427 . S
N1226 C1223 1.384 . S
N1227 C1219 1.427 . S
N1227 C1225 1.384 . S
H1228 C1234 0.930 . S
H1229 C1238 0.930 . S
H1230 C1243 0.929 . S
H1231 C1241 0.929 . S
H1232 C1236 0.929 . S
H1233 C1242 0.929 . S
C1234 H1228 0.930 . S
C1234 C1235 1.367 . S
C1234 C1242 1.378 . S
C1235 C1234 1.367 . S
C1235 C1243 1.433 . S
C1236 H1232 0.929 . S
C1236 C1238 1.378 . S
C1236 C1240 1.350 . S
C1237 C1240 1.463 . S
C1237 C1242 1.350 . S
C1237 N1245 1.427 . S
C1238 H1229 0.930 . S
C1238 C1236 1.378 . S
C1238 C1239 1.367 . S
C1239 C1238 1.367 . S
C1239 C1241 1.433 . S
C1240 C1236 1.350 . S
C1240 C1237 1.463 . S
C1240 N1244 1.427 . S
C1241 H1231 0.929 . S
C1241 C1239 1.433 . S
C1241 N1244 1.384 . S
C1242 H1233 0.929 . S
C1242 C1234 1.378 . S
C1242 C1237 1.350 . S
C1243 H1230 0.929 . S
C1243 C1235 1.433 . S
C1243 N1245 1.384 . S
N1244 C1240 1.427 . S
N1244 C1241 1.384 . S
N1245 C1237 1.427 . S
N1245 C1243 1.384 . S
H1246 C1252 0.930 . S
H1247 C1256 0.930 . S
H1248 C1261 0.929 . S
H1249 C1259 0.929 . S
H1250 C1254 0.929 . S
H1251 C1260 0.929 . S
C1252 H1246 0.930 . S
C1252 C1253 1.367 . S
C1252 C1260 1.378 . S
C1253 C1252 1.367 . S
C1253 C1261 1.433 . S
C1254 H1250 0.929 . S
C1254 C1256 1.378 . S
C1254 C1258 1.350 . S
C1255 C1258 1.463 . S
C1255 C1260 1.350 . S
C1255 N1263 1.427 . S
C1256 H1247 0.930 . S
C1256 C1254 1.378 . S
C1256 C1257 1.367 . S
C1257 C1256 1.367 . S
C1257 C1259 1.433 . S
C1258 C1254 1.350 . S
C1258 C1255 1.463 . S
C1258 N1262 1.427 . S
C1259 H1249 0.929 . S
C1259 C1257 1.433 . S
C1259 N1262 1.384 . S
C1260 H1251 0.929 . S
C1260 C1252 1.378 . S
C1260 C1255 1.350 . S
C1261 H1248 0.929 . S
C1261 C1253 1.433 . S
C1261 N1263 1.384 . S
N1262 C1258 1.427 . S
N1262 C1259 1.384 . S
N1263 C1255 1.427 . S
N1263 C1261 1.384 . S
H1264 C1270 0.930 1_556 S
H1265 C1274 0.930 . S
H1266 C1279 0.929 . S
H1267 C1277 0.929 . S
H1268 C1272 0.929 . S
H1269 C1278 0.929 . S
C1270 H1264 0.930 1_554 S
C1270 C1271 1.367 . S
C1270 C1278 1.378 . S
C1271 C1270 1.367 . S
C1271 C1279 1.433 . S
C1272 H1268 0.929 . S
C1272 C1274 1.378 . S
C1272 C1276 1.350 . S
C1273 C1276 1.463 1_565 S
C1273 C1278 1.350 . S
C1273 N1281 1.427 . S
C1274 H1265 0.930 . S
C1274 C1272 1.378 . S
C1274 C1275 1.367 . S
C1275 C1274 1.367 . S
C1275 C1277 1.433 . S
C1276 C1272 1.350 . S
C1276 C1273 1.463 1_545 S
C1276 N1280 1.427 . S
C1277 H1267 0.929 . S
C1277 C1275 1.433 . S
C1277 N1280 1.384 . S
C1278 H1269 0.929 . S
C1278 C1270 1.378 . S
C1278 C1273 1.350 . S
C1279 H1266 0.929 . S
C1279 C1271 1.433 . S
C1279 N1281 1.384 . S
N1280 C1276 1.427 . S
N1280 C1277 1.384 . S
N1281 C1273 1.427 . S
N1281 C1279 1.384 . S
H1282 C1288 0.930 . S
H1283 C1292 0.930 . S
H1284 C1297 0.929 . S
H1285 C1295 0.929 . S
H1286 C1290 0.929 . S
H1287 C1296 0.929 . S
C1288 H1282 0.930 . S
C1288 C1289 1.367 . S
C1288 C1296 1.378 . S
C1289 C1288 1.367 . S
C1289 C1297 1.433 . S
C1290 H1286 0.929 . S
C1290 C1292 1.378 . S
C1290 C1294 1.350 . S
C1291 C1294 1.463 . S
C1291 C1296 1.350 . S
C1291 N1299 1.427 . S
C1292 H1283 0.930 . S
C1292 C1290 1.378 . S
C1292 C1293 1.367 . S
C1293 C1292 1.367 . S
C1293 C1295 1.433 . S
C1294 C1290 1.350 . S
C1294 C1291 1.463 . S
C1294 N1298 1.427 . S
C1295 H1285 0.929 . S
C1295 C1293 1.433 . S
C1295 N1298 1.384 . S
C1296 H1287 0.929 . S
C1296 C1288 1.378 . S
C1296 C1291 1.350 . S
C1297 H1284 0.929 . S
C1297 C1289 1.433 . S
C1297 N1299 1.384 . S
N1298 C1294 1.427 . S
N1298 C1295 1.384 . S
N1299 C1291 1.427 . S
N1299 C1297 1.384 . S
H1300 C1306 0.930 . S
H1301 C1310 0.930 . S
H1302 C1315 0.929 . S
H1303 C1313 0.929 . S
H1304 C1308 0.929 . S
H1305 C1314 0.929 . S
C1306 H1300 0.930 . S
C1306 C1307 1.367 . S
C1306 C1314 1.378 . S
C1307 C1306 1.367 . S
C1307 C1315 1.433 . S
C1308 H1304 0.929 . S
C1308 C1310 1.378 . S
C1308 C1312 1.350 . S
C1309 C1312 1.463 . S
C1309 C1314 1.350 . S
C1309 N1317 1.427 . S
C1310 H1301 0.930 . S
C1310 C1308 1.378 . S
C1310 C1311 1.367 . S
C1311 C1310 1.367 . S
C1311 C1313 1.433 . S
C1312 C1308 1.350 . S
C1312 C1309 1.463 . S
C1312 N1316 1.427 . S
C1313 H1303 0.929 . S
C1313 C1311 1.433 . S
C1313 N1316 1.384 . S
C1314 H1305 0.929 . S
C1314 C1306 1.378 . S
C1314 C1309 1.350 . S
C1315 H1302 0.929 . S
C1315 C1307 1.433 . S
C1315 N1317 1.384 . S
N1316 C1312 1.427 . S
N1316 C1313 1.384 . S
N1317 C1309 1.427 . S
N1317 C1315 1.384 . S
H1318 C1324 0.930 . S
H1319 C1328 0.930 . S
H1320 C1333 0.929 . S
H1321 C1331 0.929 . S
H1322 C1326 0.929 . S
H1323 C1332 0.929 . S
C1324 H1318 0.930 . S
C1324 C1325 1.367 . S
C1324 C1332 1.378 . S
C1325 C1324 1.367 . S
C1325 C1333 1.433 . S
C1326 H1322 0.929 . S
C1326 C1328 1.378 . S
C1326 C1330 1.350 . S
C1327 C1330 1.463 . S
C1327 C1332 1.350 . S
C1327 N1335 1.427 . S
C1328 H1319 0.930 . S
C1328 C1326 1.378 . S
C1328 C1329 1.367 . S
C1329 C1328 1.367 . S
C1329 C1331 1.433 . S
C1330 C1326 1.350 . S
C1330 C1327 1.463 . S
C1330 N1334 1.427 . S
C1331 H1321 0.929 . S
C1331 C1329 1.433 . S
C1331 N1334 1.384 . S
C1332 H1323 0.929 . S
C1332 C1324 1.378 . S
C1332 C1327 1.350 . S
C1333 H1320 0.929 . S
C1333 C1325 1.433 . S
C1333 N1335 1.384 . S
N1334 C1330 1.427 . S
N1334 C1331 1.384 . S
N1335 C1327 1.427 . S
N1335 C1333 1.384 . S
H1336 C1342 0.930 . S
H1337 C1346 0.930 . S
H1338 C1351 0.929 . S
H1339 C1349 0.929 . S
H1340 C1344 0.929 . S
H1341 C1350 0.929 . S
C1342 H1336 0.930 . S
C1342 C1343 1.367 . S
C1342 C1350 1.378 . S
C1343 C1342 1.367 . S
C1343 C1351 1.433 . S
C1344 H1340 0.929 . S
C1344 C1346 1.378 . S
C1344 C1348 1.350 . S
C1345 C1348 1.463 . S
C1345 C1350 1.350 . S
C1345 N1353 1.427 . S
C1346 H1337 0.930 . S
C1346 C1344 1.378 . S
C1346 C1347 1.367 . S
C1347 C1346 1.367 . S
C1347 C1349 1.433 . S
C1348 C1344 1.350 . S
C1348 C1345 1.463 . S
C1348 N1352 1.427 . S
C1349 H1339 0.929 . S
C1349 C1347 1.433 . S
C1349 N1352 1.384 . S
C1350 H1341 0.929 . S
C1350 C1342 1.378 . S
C1350 C1345 1.350 . S
C1351 H1338 0.929 . S
C1351 C1343 1.433 . S
C1351 N1353 1.384 . S
N1352 C1348 1.427 . S
N1352 C1349 1.384 . S
N1353 C1345 1.427 . S
N1353 C1351 1.384 . S
H1354 C1360 0.930 . S
H1355 C1364 0.930 . S
H1356 C1369 0.929 . S
H1357 C1367 0.929 . S
H1358 C1362 0.929 . S
H1359 C1368 0.929 . S
C1360 H1354 0.930 . S
C1360 C1361 1.367 . S
C1360 C1368 1.378 . S
C1361 C1360 1.367 . S
C1361 C1369 1.433 . S
C1362 H1358 0.929 . S
C1362 C1364 1.378 . S
C1362 C1366 1.350 . S
C1363 C1366 1.463 . S
C1363 C1368 1.350 . S
C1363 N1371 1.427 . S
C1364 H1355 0.930 . S
C1364 C1362 1.378 . S
C1364 C1365 1.367 . S
C1365 C1364 1.367 . S
C1365 C1367 1.433 . S
C1366 C1362 1.350 . S
C1366 C1363 1.463 . S
C1366 N1370 1.427 . S
C1367 H1357 0.929 . S
C1367 C1365 1.433 . S
C1367 N1370 1.384 . S
C1368 H1359 0.929 . S
C1368 C1360 1.378 . S
C1368 C1363 1.350 . S
C1369 H1356 0.929 . S
C1369 C1361 1.433 . S
C1369 N1371 1.384 . S
N1370 C1366 1.427 . S
N1370 C1367 1.384 . S
N1371 C1363 1.427 . S
N1371 C1369 1.384 . S
H1372 C1378 0.930 . S
H1373 C1382 0.930 . S
H1374 C1387 0.929 . S
H1375 C1385 0.929 . S
H1376 C1380 0.929 . S
H1377 C1386 0.929 . S
C1378 H1372 0.930 . S
C1378 C1379 1.367 . S
C1378 C1386 1.378 . S
C1379 C1378 1.367 . S
C1379 C1387 1.433 . S
C1380 H1376 0.929 . S
C1380 C1382 1.378 . S
C1380 C1384 1.350 . S
C1381 C1384 1.463 . S
C1381 C1386 1.350 . S
C1381 N1389 1.427 . S
C1382 H1373 0.930 . S
C1382 C1380 1.378 . S
C1382 C1383 1.367 . S
C1383 C1382 1.367 . S
C1383 C1385 1.433 . S
C1384 C1380 1.350 . S
C1384 C1381 1.463 . S
C1384 N1388 1.427 . S
C1385 H1375 0.929 . S
C1385 C1383 1.433 . S
C1385 N1388 1.384 . S
C1386 H1377 0.929 . S
C1386 C1378 1.378 . S
C1386 C1381 1.350 . S
C1387 H1374 0.929 . S
C1387 C1379 1.433 . S
C1387 N1389 1.384 . S
N1388 C1384 1.427 . S
N1388 C1385 1.384 . S
N1389 C1381 1.427 . S
N1389 C1387 1.384 . S
H1390 C1396 0.930 . S
H1391 C1400 0.930 . S
H1392 C1405 0.929 . S
H1393 C1403 0.929 . S
H1394 C1398 0.929 . S
H1395 C1404 0.929 . S
C1396 H1390 0.930 . S
C1396 C1397 1.367 . S
C1396 C1404 1.378 . S
C1397 C1396 1.367 . S
C1397 C1405 1.433 . S
C1398 H1394 0.929 . S
C1398 C1400 1.378 . S
C1398 C1402 1.350 . S
C1399 C1402 1.463 . S
C1399 C1404 1.350 . S
C1399 N1407 1.427 . S
C1400 H1391 0.930 . S
C1400 C1398 1.378 . S
C1400 C1401 1.367 . S
C1401 C1400 1.367 . S
C1401 C1403 1.433 . S
C1402 C1398 1.350 . S
C1402 C1399 1.463 . S
C1402 N1406 1.427 . S
C1403 H1393 0.929 . S
C1403 C1401 1.433 . S
C1403 N1406 1.384 . S
C1404 H1395 0.929 . S
C1404 C1396 1.378 . S
C1404 C1399 1.350 . S
C1405 H1392 0.929 . S
C1405 C1397 1.433 . S
C1405 N1407 1.384 . S
N1406 C1402 1.427 . S
N1406 C1403 1.384 . S
N1407 C1399 1.427 . S
N1407 C1405 1.384 . S
H1408 C1414 0.930 . S
H1409 C1418 0.963 . S
H1410 C1423 0.929 . S
H1411 C1421 0.929 . S
H1412 C1416 0.929 . S
H1413 C1422 0.929 . S
C1414 H1408 0.930 . S
C1414 C1415 1.367 . S
C1414 C1422 1.378 . S
C1415 C1414 1.367 . S
C1415 C1423 1.433 . S
C1416 H1412 0.929 . S
C1416 C1418 1.378 . S
C1416 C1420 1.350 . S
C1417 C1420 1.463 . S
C1417 C1422 1.350 . S
C1417 N1425 1.427 . S
C1418 H1409 0.963 . S
C1418 C1416 1.378 . S
C1418 C1419 1.367 . S
C1419 C1418 1.367 . S
C1419 C1421 1.433 . S
C1420 C1416 1.350 . S
C1420 C1417 1.463 . S
C1420 N1424 1.427 . S
C1421 H1411 0.929 . S
C1421 C1419 1.433 . S
C1421 N1424 1.384 . S
C1422 H1413 0.929 . S
C1422 C1414 1.378 . S
C1422 C1417 1.350 . S
C1423 H1410 0.929 . S
C1423 C1415 1.433 . S
C1423 N1425 1.384 . S
N1424 C1420 1.427 . S
N1424 C1421 1.384 . S
N1425 C1417 1.427 . S
N1425 C1423 1.384 . S
H1426 C1432 0.930 . S
H1427 C1436 0.930 . S
H1428 C1441 0.929 . S
H1429 C1439 0.929 . S
H1430 C1434 0.929 . S
H1431 C1440 0.929 . S
C1432 H1426 0.930 . S
C1432 C1433 1.367 . S
C1432 C1440 1.378 . S
C1433 C1432 1.367 . S
C1433 C1441 1.433 . S
C1434 H1430 0.929 . S
C1434 C1436 1.378 . S
C1434 C1438 1.350 . S
C1435 C1438 1.463 . S
C1435 C1440 1.350 . S
C1435 N1443 1.427 . S
C1436 H1427 0.930 . S
C1436 C1434 1.378 . S
C1436 C1437 1.367 . S
C1437 C1436 1.367 . S
C1437 C1439 1.433 . S
C1438 C1434 1.350 . S
C1438 C1435 1.463 . S
C1438 N1442 1.427 . S
C1439 H1429 0.929 . S
C1439 C1437 1.433 . S
C1439 N1442 1.384 . S
C1440 H1431 0.929 . S
C1440 C1432 1.378 . S
C1440 C1435 1.350 . S
C1441 H1428 0.929 . S
C1441 C1433 1.433 . S
C1441 N1443 1.384 . S
N1442 C1438 1.427 . S
N1442 C1439 1.384 . S
N1443 C1435 1.427 . S
N1443 C1441 1.384 . S
H1444 C1450 0.930 . S
H1445 C1454 0.930 . S
H1446 C1459 0.929 . S
H1447 C1457 0.929 . S
H1448 C1452 0.929 . S
H1449 C1458 0.929 . S
C1450 H1444 0.930 . S
C1450 C1451 1.367 . S
C1450 C1458 1.378 . S
C1451 C1450 1.367 . S
C1451 C1459 1.433 . S
C1452 H1448 0.929 . S
C1452 C1454 1.378 . S
C1452 C1456 1.350 . S
C1453 C1456 1.463 . S
C1453 C1458 1.350 . S
C1453 N1461 1.427 . S
C1454 H1445 0.930 . S
C1454 C1452 1.378 . S
C1454 C1455 1.367 . S
C1455 C1454 1.367 . S
C1455 C1457 1.433 . S
C1456 C1452 1.350 . S
C1456 C1453 1.463 . S
C1456 N1460 1.427 . S
C1457 H1447 0.929 . S
C1457 C1455 1.433 . S
C1457 N1460 1.384 . S
C1458 H1449 0.929 . S
C1458 C1450 1.378 . S
C1458 C1453 1.350 . S
C1459 H1446 0.929 . S
C1459 C1451 1.433 . S
C1459 N1461 1.384 . S
N1460 C1456 1.427 . S
N1460 C1457 1.384 . S
N1461 C1453 1.427 . S
N1461 C1459 1.384 . S
H1462 C1468 0.930 . S
H1463 C1472 0.930 . S
H1464 C1477 0.929 . S
H1465 C1475 0.929 . S
H1466 C1470 0.929 . S
H1467 C1476 0.929 . S
C1468 H1462 0.930 . S
C1468 C1469 1.367 . S
C1468 C1476 1.378 . S
C1469 C1468 1.367 . S
C1469 C1477 1.433 . S
C1470 H1466 0.929 . S
C1470 C1472 1.378 . S
C1470 C1474 1.350 . S
C1471 C1474 1.463 . S
C1471 C1476 1.350 . S
C1471 N1479 1.427 . S
C1472 H1463 0.930 . S
C1472 C1470 1.378 . S
C1472 C1473 1.367 . S
C1473 C1472 1.367 . S
C1473 C1475 1.433 . S
C1474 C1470 1.350 . S
C1474 C1471 1.463 . S
C1474 N1478 1.427 . S
C1475 H1465 0.929 . S
C1475 C1473 1.433 . S
C1475 N1478 1.384 . S
C1476 H1467 0.929 . S
C1476 C1468 1.378 . S
C1476 C1471 1.350 . S
C1477 H1464 0.929 . S
C1477 C1469 1.433 . S
C1477 N1479 1.384 . S
N1478 C1474 1.427 . S
N1478 C1475 1.384 . S
N1479 C1471 1.427 . S
N1479 C1477 1.384 . S
H1480 C1486 0.930 . S
H1481 C1490 0.930 . S
H1482 C1495 0.929 . S
H1483 C1493 0.929 . S
H1484 C1488 0.929 . S
H1485 C1494 0.929 . S
C1486 H1480 0.930 . S
C1486 C1487 1.367 . S
C1486 C1494 1.378 . S
C1487 C1486 1.367 . S
C1487 C1495 1.433 . S
C1488 H1484 0.929 . S
C1488 C1490 1.378 . S
C1488 C1492 1.350 . S
C1489 C1492 1.463 . S
C1489 C1494 1.350 . S
C1489 N1497 1.427 . S
C1490 H1481 0.930 . S
C1490 C1488 1.378 . S
C1490 C1491 1.367 . S
C1491 C1490 1.367 . S
C1491 C1493 1.433 . S
C1492 C1488 1.350 . S
C1492 C1489 1.463 . S
C1492 N1496 1.427 . S
C1493 H1483 0.929 . S
C1493 C1491 1.433 . S
C1493 N1496 1.384 . S
C1494 H1485 0.929 . S
C1494 C1486 1.378 . S
C1494 C1489 1.350 . S
C1495 H1482 0.929 . S
C1495 C1487 1.433 . S
C1495 N1497 1.384 . S
N1496 C1492 1.427 . S
N1496 C1493 1.384 . S
N1497 C1489 1.427 . S
N1497 C1495 1.384 . S
H1498 C1504 0.930 . S
H1499 C1508 0.930 . S
H1500 C1513 0.929 . S
H1501 C1511 0.929 . S
H1502 C1506 0.929 . S
H1503 C1512 0.929 . S
C1504 H1498 0.930 . S
C1504 C1505 1.367 . S
C1504 C1512 1.378 . S
C1505 C1504 1.367 . S
C1505 C1513 1.433 . S
C1506 H1502 0.929 . S
C1506 C1508 1.378 . S
C1506 C1510 1.350 . S
C1507 C1510 1.463 . S
C1507 C1512 1.350 . S
C1507 N1515 1.427 . S
C1508 H1499 0.930 . S
C1508 C1506 1.378 . S
C1508 C1509 1.367 . S
C1509 C1508 1.367 . S
C1509 C1511 1.433 . S
C1510 C1506 1.350 . S
C1510 C1507 1.463 . S
C1510 N1514 1.427 . S
C1511 H1501 0.929 . S
C1511 C1509 1.433 . S
C1511 N1514 1.384 . S
C1512 H1503 0.929 . S
C1512 C1504 1.378 . S
C1512 C1507 1.350 . S
C1513 H1500 0.929 . S
C1513 C1505 1.433 . S
C1513 N1515 1.384 . S
N1514 C1510 1.427 . S
N1514 C1511 1.384 . S
N1515 C1507 1.427 . S
N1515 C1513 1.384 . S
H1516 C1522 0.930 . S
H1517 C1526 0.930 . S
H1518 C1531 0.929 . S
H1519 C1529 0.929 . S
H1520 C1524 0.929 . S
H1521 C1530 0.929 . S
C1522 H1516 0.930 . S
C1522 C1523 1.367 . S
C1522 C1530 1.378 . S
C1523 C1522 1.367 . S
C1523 C1531 1.433 . S
C1524 H1520 0.929 . S
C1524 C1526 1.378 . S
C1524 C1528 1.350 . S
C1525 C1528 1.463 . S
C1525 C1530 1.350 . S
C1525 N1533 1.427 . S
C1526 H1517 0.930 . S
C1526 C1524 1.378 . S
C1526 C1527 1.410 . S
C1527 C1526 1.410 . S
C1527 C1529 1.415 1_556 S
C1528 C1524 1.350 . S
C1528 C1525 1.463 . S
C1528 N1532 1.427 . S
C1529 H1519 0.929 . S
C1529 C1527 1.415 1_554 S
C1529 N1532 1.384 1_554 S
C1530 H1521 0.929 . S
C1530 C1522 1.378 . S
C1530 C1525 1.350 . S
C1531 H1518 0.929 . S
C1531 C1523 1.433 . S
C1531 N1533 1.384 . S
N1532 C1528 1.427 . S
N1532 C1529 1.384 1_556 S
N1533 C1525 1.427 . S
N1533 C1531 1.384 . S
H1534 C1540 0.930 . S
H1535 C1544 0.930 . S
H1536 C1549 0.929 . S
H1537 C1547 0.929 . S
H1538 C1542 0.929 . S
H1539 C1548 0.929 . S
C1540 H1534 0.930 . S
C1540 C1541 1.367 . S
C1540 C1548 1.378 . S
C1541 C1540 1.367 . S
C1541 C1549 1.433 . S
C1542 H1538 0.929 . S
C1542 C1544 1.378 . S
C1542 C1546 1.350 . S
C1543 C1546 1.463 . S
C1543 C1548 1.350 . S
C1543 N1551 1.427 . S
C1544 H1535 0.930 . S
C1544 C1542 1.378 . S
C1544 C1545 1.367 . S
C1545 C1544 1.367 . S
C1545 C1547 1.433 . S
C1546 C1542 1.350 . S
C1546 C1543 1.463 . S
C1546 N1550 1.427 . S
C1547 H1537 0.929 . S
C1547 C1545 1.433 . S
C1547 N1550 1.384 . S
C1548 H1539 0.929 . S
C1548 C1540 1.378 . S
C1548 C1543 1.350 . S
C1549 H1536 0.929 . S
C1549 C1541 1.433 . S
C1549 N1551 1.384 . S
N1550 C1546 1.427 . S
N1550 C1547 1.384 . S
N1551 C1543 1.427 . S
N1551 C1549 1.384 . S
H1552 C1558 0.930 . S
H1553 C1562 0.930 . S
H1554 C1567 0.929 . S
H1555 C1565 0.929 . S
H1556 C1560 0.929 . S
H1557 C1566 0.929 . S
C1558 H1552 0.930 . S
C1558 C1559 1.367 . S
C1558 C1566 1.378 . S
C1559 C1558 1.367 . S
C1559 C1567 1.433 . S
C1560 H1556 0.929 . S
C1560 C1562 1.378 . S
C1560 C1564 1.350 . S
C1561 C1564 1.463 . S
C1561 C1566 1.350 . S
C1561 N1569 1.427 . S
C1562 H1553 0.930 . S
C1562 C1560 1.378 . S
C1562 C1563 1.367 . S
C1563 C1562 1.367 . S
C1563 C1565 1.433 . S
C1564 C1560 1.350 . S
C1564 C1561 1.463 . S
C1564 N1568 1.427 . S
C1565 H1555 0.929 . S
C1565 C1563 1.433 . S
C1565 N1568 1.384 . S
C1566 H1557 0.929 . S
C1566 C1558 1.378 . S
C1566 C1561 1.350 . S
C1567 H1554 0.929 . S
C1567 C1559 1.433 . S
C1567 N1569 1.384 . S
N1568 C1564 1.427 . S
N1568 C1565 1.384 . S
N1569 C1561 1.427 . S
N1569 C1567 1.384 . S
H1570 C1576 0.930 . S
H1571 C1580 0.930 . S
H1572 C1585 0.929 . S
H1573 C1583 0.929 . S
H1574 C1578 0.929 . S
H1575 C1584 0.929 . S
C1576 H1570 0.930 . S
C1576 C1577 1.367 . S
C1576 C1584 1.378 . S
C1577 C1576 1.367 . S
C1577 C1585 1.433 . S
C1578 H1574 0.929 . S
C1578 C1580 1.378 . S
C1578 C1582 1.350 . S
C1579 C1582 1.463 . S
C1579 C1584 1.350 . S
C1579 N1587 1.427 . S
C1580 H1571 0.930 . S
C1580 C1578 1.378 . S
C1580 C1581 1.367 . S
C1581 C1580 1.367 . S
C1581 C1583 1.433 . S
C1582 C1578 1.350 . S
C1582 C1579 1.463 . S
C1582 N1586 1.427 . S
C1583 H1573 0.929 . S
C1583 C1581 1.433 . S
C1583 N1586 1.384 . S
C1584 H1575 0.929 . S
C1584 C1576 1.378 . S
C1584 C1579 1.350 . S
C1585 H1572 0.929 . S
C1585 C1577 1.433 . S
C1585 N1587 1.384 . S
N1586 C1582 1.427 . S
N1586 C1583 1.384 . S
N1587 C1579 1.427 . S
N1587 C1585 1.384 . S
H1588 C1594 0.930 . S
H1589 C1598 0.930 . S
H1590 C1603 0.929 . S
H1591 C1601 0.929 . S
H1592 C1596 0.929 . S
H1593 C1602 0.929 . S
C1594 H1588 0.930 . S
C1594 C1595 1.367 . S
C1594 C1602 1.378 . S
C1595 C1594 1.367 . S
C1595 C1603 1.433 . S
C1596 H1592 0.929 . S
C1596 C1598 1.378 . S
C1596 C1600 1.350 . S
C1597 C1600 1.463 . S
C1597 C1602 1.350 . S
C1597 N1605 1.427 . S
C1598 H1589 0.930 . S
C1598 C1596 1.378 . S
C1598 C1599 1.367 . S
C1599 C1598 1.367 . S
C1599 C1601 1.433 . S
C1600 C1596 1.350 . S
C1600 C1597 1.463 . S
C1600 N1604 1.427 . S
C1601 H1591 0.929 . S
C1601 C1599 1.433 . S
C1601 N1604 1.384 . S
C1602 H1593 0.929 . S
C1602 C1594 1.378 . S
C1602 C1597 1.350 . S
C1603 H1590 0.929 . S
C1603 C1595 1.433 . S
C1603 N1605 1.384 . S
N1604 C1600 1.427 . S
N1604 C1601 1.384 . S
N1605 C1597 1.427 . S
N1605 C1603 1.384 . S
H1606 C1612 0.930 . S
H1607 C1616 0.930 . S
H1608 C1621 0.929 . S
H1609 C1619 0.929 . S
H1610 C1614 0.929 . S
H1611 C1620 0.929 . S
C1612 H1606 0.930 . S
C1612 C1613 1.367 . S
C1612 C1620 1.378 . S
C1613 C1612 1.367 . S
C1613 C1621 1.433 . S
C1614 H1610 0.929 . S
C1614 C1616 1.378 . S
C1614 C1618 1.350 . S
C1615 C1618 1.463 . S
C1615 C1620 1.350 . S
C1615 N1623 1.427 . S
C1616 H1607 0.930 . S
C1616 C1614 1.378 . S
C1616 C1617 1.367 . S
C1617 C1616 1.367 . S
C1617 C1619 1.433 . S
C1618 C1614 1.350 . S
C1618 C1615 1.463 . S
C1618 N1622 1.427 . S
C1619 H1609 0.929 . S
C1619 C1617 1.433 . S
C1619 N1622 1.384 . S
C1620 H1611 0.929 . S
C1620 C1612 1.378 . S
C1620 C1615 1.350 . S
C1621 H1608 0.929 . S
C1621 C1613 1.433 . S
C1621 N1623 1.384 . S
N1622 C1618 1.427 . S
N1622 C1619 1.384 . S
N1623 C1615 1.427 . S
N1623 C1621 1.384 . S
H1624 C1630 0.930 . S
H1625 C1634 0.930 . S
H1626 C1639 0.929 . S
H1627 C1637 0.929 . S
H1628 C1632 0.929 . S
H1629 C1638 0.929 . S
C1630 H1624 0.930 . S
C1630 C1631 1.367 . S
C1630 C1638 1.378 . S
C1631 C1630 1.367 . S
C1631 C1639 1.433 . S
C1632 H1628 0.929 . S
C1632 C1634 1.378 . S
C1632 C1636 1.350 . S
C1633 C1636 1.463 . S
C1633 C1638 1.350 . S
C1633 N1641 1.427 . S
C1634 H1625 0.930 . S
C1634 C1632 1.378 . S
C1634 C1635 1.367 . S
C1635 C1634 1.367 . S
C1635 C1637 1.433 . S
C1636 C1632 1.350 . S
C1636 C1633 1.463 . S
C1636 N1640 1.427 . S
C1637 H1627 0.929 . S
C1637 C1635 1.433 . S
C1637 N1640 1.384 . S
C1638 H1629 0.929 . S
C1638 C1630 1.378 . S
C1638 C1633 1.350 . S
C1639 H1626 0.929 . S
C1639 C1631 1.433 . S
C1639 N1641 1.384 . S
N1640 C1636 1.427 . S
N1640 C1637 1.384 . S
N1641 C1633 1.427 . S
N1641 C1639 1.384 . S
H1642 C1648 0.930 . S
H1643 C1652 0.930 . S
H1644 C1657 0.929 . S
H1645 C1655 0.929 . S
H1646 C1650 0.929 . S
H1647 C1656 0.929 . S
C1648 H1642 0.930 . S
C1648 C1649 1.367 . S
C1648 C1656 1.378 . S
C1649 C1648 1.367 . S
C1649 C1657 1.433 . S
C1650 H1646 0.929 . S
C1650 C1652 1.378 . S
C1650 C1654 1.350 . S
C1651 C1654 1.463 . S
C1651 C1656 1.350 . S
C1651 N1659 1.427 . S
C1652 H1643 0.930 . S
C1652 C1650 1.378 . S
C1652 C1653 1.367 . S
C1653 C1652 1.367 . S
C1653 C1655 1.433 . S
C1654 C1650 1.350 . S
C1654 C1651 1.463 . S
C1654 N1658 1.427 . S
C1655 H1645 0.929 . S
C1655 C1653 1.433 . S
C1655 N1658 1.384 . S
C1656 H1647 0.929 . S
C1656 C1648 1.378 . S
C1656 C1651 1.350 . S
C1657 H1644 0.929 . S
C1657 C1649 1.433 . S
C1657 N1659 1.384 . S
N1658 C1654 1.427 . S
N1658 C1655 1.384 . S
N1659 C1651 1.427 . S
N1659 C1657 1.384 . S
H1660 C1666 0.930 . S
H1661 C1670 0.930 1_565 S
H1662 C1675 0.929 1_565 S
H1663 C1673 0.929 . S
H1664 C1668 0.929 1_565 S
H1665 C1674 0.929 . S
C1666 H1660 0.930 . S
C1666 C1667 1.367 . S
C1666 C1674 1.378 . S
C1667 C1666 1.367 . S
C1667 C1675 1.433 . S
C1668 H1664 0.929 1_545 S
C1668 C1670 1.378 . S
C1668 C1672 1.350 . S
C1669 C1672 1.463 . S
C1669 C1674 1.350 . S
C1669 N1677 1.427 . S
C1670 H1661 0.930 1_545 S
C1670 C1668 1.378 . S
C1670 C1671 1.367 . S
C1671 C1670 1.367 . S
C1671 C1673 1.433 . S
C1672 C1668 1.350 . S
C1672 C1669 1.463 . S
C1672 N1676 1.427 . S
C1673 H1663 0.929 . S
C1673 C1671 1.433 . S
C1673 N1676 1.384 . S
C1674 H1665 0.929 . S
C1674 C1666 1.378 . S
C1674 C1669 1.350 . S
C1675 H1662 0.929 1_545 S
C1675 C1667 1.433 . S
C1675 N1677 1.384 . S
N1676 C1672 1.427 . S
N1676 C1673 1.384 . S
N1677 C1669 1.427 . S
N1677 C1675 1.384 . S
H1678 C1684 0.930 . S
H1679 C1688 0.930 . S
H1680 C1693 0.929 . S
H1681 C1691 0.929 . S
H1682 C1686 0.929 . S
H1683 C1692 0.929 . S
C1684 H1678 0.930 . S
C1684 C1685 1.367 . S
C1684 C1692 1.378 . S
C1685 C1684 1.367 . S
C1685 C1693 1.433 . S
C1686 H1682 0.929 . S
C1686 C1688 1.378 . S
C1686 C1690 1.350 . S
C1687 C1690 1.463 . S
C1687 C1692 1.350 . S
C1687 N1695 1.427 . S
C1688 H1679 0.930 . S
C1688 C1686 1.378 . S
C1688 C1689 1.367 . S
C1689 C1688 1.367 . S
C1689 C1691 1.433 . S
C1690 C1686 1.350 . S
C1690 C1687 1.463 . S
C1690 N1694 1.427 . S
C1691 H1681 0.929 . S
C1691 C1689 1.433 . S
C1691 N1694 1.384 . S
C1692 H1683 0.929 . S
C1692 C1684 1.378 . S
C1692 C1687 1.350 . S
C1693 H1680 0.929 . S
C1693 C1685 1.433 . S
C1693 N1695 1.384 . S
N1694 C1690 1.427 . S
N1694 C1691 1.384 . S
N1695 C1687 1.427 . S
N1695 C1693 1.384 . S
H1696 C1702 0.930 . S
H1697 C1706 0.930 1_556 S
H1698 C1711 0.929 . S
H1699 C1709 0.929 . S
H1700 C1704 0.929 . S
H1701 C1710 0.929 . S
C1702 H1696 0.930 . S
C1702 C1703 1.367 . S
C1702 C1710 1.378 . S
C1703 C1702 1.367 . S
C1703 C1711 1.433 . S
C1704 H1700 0.929 . S
C1704 C1706 1.378 . S
C1704 C1708 1.350 . S
C1705 C1708 1.463 . S
C1705 C1710 1.350 . S
C1705 N1713 1.427 . S
C1706 H1697 0.930 1_554 S
C1706 C1704 1.378 . S
C1706 C1707 1.367 . S
C1707 C1706 1.367 . S
C1707 C1709 1.433 . S
C1708 C1704 1.350 . S
C1708 C1705 1.463 . S
C1708 N1712 1.427 . S
C1709 H1699 0.929 . S
C1709 C1707 1.433 . S
C1709 N1712 1.384 . S
C1710 H1701 0.929 . S
C1710 C1702 1.378 . S
C1710 C1705 1.350 . S
C1711 H1698 0.929 . S
C1711 C1703 1.433 . S
C1711 N1713 1.384 . S
N1712 C1708 1.427 . S
N1712 C1709 1.384 . S
N1713 C1705 1.427 . S
N1713 C1711 1.384 . S
H1714 C1720 0.930 . S
H1715 C1724 0.930 . S
H1716 C1729 0.929 . S
H1717 C1727 0.929 . S
H1718 C1722 0.929 . S
H1719 C1728 0.929 . S
C1720 H1714 0.930 . S
C1720 C1721 1.367 . S
C1720 C1728 1.378 . S
C1721 C1720 1.367 . S
C1721 C1729 1.433 . S
C1722 H1718 0.929 . S
C1722 C1724 1.378 . S
C1722 C1726 1.350 . S
C1723 C1726 1.463 . S
C1723 C1728 1.350 . S
C1723 N1731 1.427 . S
C1724 H1715 0.930 . S
C1724 C1722 1.378 . S
C1724 C1725 1.367 . S
C1725 C1724 1.367 . S
C1725 C1727 1.433 . S
C1726 C1722 1.350 . S
C1726 C1723 1.463 . S
C1726 N1730 1.427 . S
C1727 H1717 0.929 . S
C1727 C1725 1.433 . S
C1727 N1730 1.384 . S
C1728 H1719 0.929 . S
C1728 C1720 1.378 . S
C1728 C1723 1.350 . S
C1729 H1716 0.929 . S
C1729 C1721 1.433 . S
C1729 N1731 1.384 . S
N1730 C1726 1.427 . S
N1730 C1727 1.384 . S
N1731 C1723 1.427 . S
N1731 C1729 1.384 . S
H1732 C1738 0.930 . S
H1733 C1742 0.930 . S
H1734 C1747 0.929 . S
H1735 C1745 0.929 . S
H1736 C1740 0.929 . S
H1737 C1746 0.929 . S
C1738 H1732 0.930 . S
C1738 C1739 1.367 . S
C1738 C1746 1.378 . S
C1739 C1738 1.367 . S
C1739 C1747 1.433 . S
C1740 H1736 0.929 . S
C1740 C1742 1.378 . S
C1740 C1744 1.350 . S
C1741 C1744 1.463 . S
C1741 C1746 1.350 . S
C1741 N1749 1.427 . S
C1742 H1733 0.930 . S
C1742 C1740 1.378 . S
C1742 C1743 1.367 . S
C1743 C1742 1.367 . S
C1743 C1745 1.433 . S
C1744 C1740 1.350 . S
C1744 C1741 1.463 . S
C1744 N1748 1.427 . S
C1745 H1735 0.929 . S
C1745 C1743 1.433 . S
C1745 N1748 1.384 . S
C1746 H1737 0.929 . S
C1746 C1738 1.378 . S
C1746 C1741 1.350 . S
C1747 H1734 0.929 . S
C1747 C1739 1.433 . S
C1747 N1749 1.384 . S
N1748 C1744 1.427 . S
N1748 C1745 1.384 . S
N1749 C1741 1.427 . S
N1749 C1747 1.384 . S
H1750 C1756 0.930 . S
H1751 C1760 0.930 . S
H1752 C1765 0.929 . S
H1753 C1763 0.929 . S
H1754 C1758 0.929 . S
H1755 C1764 0.929 . S
C1756 H1750 0.930 . S
C1756 C1757 1.367 . S
C1756 C1764 1.378 . S
C1757 C1756 1.367 . S
C1757 C1765 1.433 . S
C1758 H1754 0.929 . S
C1758 C1760 1.378 . S
C1758 C1762 1.350 . S
C1759 C1762 1.463 . S
C1759 C1764 1.350 . S
C1759 N1767 1.427 . S
C1760 H1751 0.930 . S
C1760 C1758 1.378 . S
C1760 C1761 1.367 . S
C1761 C1760 1.367 . S
C1761 C1763 1.433 . S
C1762 C1758 1.350 . S
C1762 C1759 1.463 . S
C1762 N1766 1.427 . S
C1763 H1753 0.929 . S
C1763 C1761 1.433 . S
C1763 N1766 1.384 . S
C1764 H1755 0.929 . S
C1764 C1756 1.378 . S
C1764 C1759 1.350 . S
C1765 H1752 0.929 . S
C1765 C1757 1.433 . S
C1765 N1767 1.384 . S
N1766 C1762 1.427 . S
N1766 C1763 1.384 . S
N1767 C1759 1.427 . S
N1767 C1765 1.384 . S
H1768 C1774 0.930 . S
H1769 C1778 0.930 . S
H1770 C1783 0.929 . S
H1771 C1781 0.929 . S
H1772 C1776 0.929 . S
H1773 C1782 0.929 . S
C1774 H1768 0.930 . S
C1774 C1775 1.367 . S
C1774 C1782 1.378 . S
C1775 C1774 1.367 . S
C1775 C1783 1.433 . S
C1776 H1772 0.929 . S
C1776 C1778 1.378 . S
C1776 C1780 1.350 . S
C1777 C1780 1.463 . S
C1777 C1782 1.350 . S
C1777 N1785 1.427 . S
C1778 H1769 0.930 . S
C1778 C1776 1.378 . S
C1778 C1779 1.367 . S
C1779 C1778 1.367 . S
C1779 C1781 1.433 . S
C1780 C1776 1.350 . S
C1780 C1777 1.463 . S
C1780 N1784 1.427 . S
C1781 H1771 0.929 . S
C1781 C1779 1.433 . S
C1781 N1784 1.384 . S
C1782 H1773 0.929 . S
C1782 C1774 1.378 . S
C1782 C1777 1.350 . S
C1783 H1770 0.929 . S
C1783 C1775 1.433 . S
C1783 N1785 1.384 . S
N1784 C1780 1.427 . S
N1784 C1781 1.384 . S
N1785 C1777 1.427 . S
N1785 C1783 1.384 . S
H1786 C1792 0.930 . S
H1787 C1796 0.930 . S
H1788 C1801 0.929 . S
H1789 C1799 0.929 . S
H1790 C1794 0.929 . S
H1791 C1800 0.929 . S
C1792 H1786 0.930 . S
C1792 C1793 1.367 . S
C1792 C1800 1.378 . S
C1793 C1792 1.367 . S
C1793 C1801 1.433 . S
C1794 H1790 0.929 . S
C1794 C1796 1.378 . S
C1794 C1798 1.350 . S
C1795 C1798 1.463 . S
C1795 C1800 1.350 . S
C1795 N1803 1.427 . S
C1796 H1787 0.930 . S
C1796 C1794 1.378 . S
C1796 C1797 1.367 . S
C1797 C1796 1.367 . S
C1797 C1799 1.433 . S
C1798 C1794 1.350 . S
C1798 C1795 1.463 . S
C1798 N1802 1.427 . S
C1799 H1789 0.929 . S
C1799 C1797 1.433 . S
C1799 N1802 1.384 . S
C1800 H1791 0.929 . S
C1800 C1792 1.378 . S
C1800 C1795 1.350 . S
C1801 H1788 0.929 . S
C1801 C1793 1.433 . S
C1801 N1803 1.384 . S
N1802 C1798 1.427 . S
N1802 C1799 1.384 . S
N1803 C1795 1.427 . S
N1803 C1801 1.384 . S
H1804 C1810 0.930 . S
H1805 C1814 0.930 . S
H1806 C1819 0.929 . S
H1807 C1817 0.929 . S
H1808 C1812 0.929 . S
H1809 C1818 0.929 . S
C1810 H1804 0.930 . S
C1810 C1811 1.367 . S
C1810 C1818 1.378 . S
C1811 C1810 1.367 . S
C1811 C1819 1.433 . S
C1812 H1808 0.929 . S
C1812 C1814 1.378 . S
C1812 C1816 1.350 . S
C1813 C1816 1.463 . S
C1813 C1818 1.350 . S
C1813 N1821 1.427 . S
C1814 H1805 0.930 . S
C1814 C1812 1.378 . S
C1814 C1815 1.367 . S
C1815 C1814 1.367 . S
C1815 C1817 1.433 . S
C1816 C1812 1.350 . S
C1816 C1813 1.463 . S
C1816 N1820 1.427 . S
C1817 H1807 0.929 . S
C1817 C1815 1.433 . S
C1817 N1820 1.384 . S
C1818 H1809 0.929 . S
C1818 C1810 1.378 . S
C1818 C1813 1.350 . S
C1819 H1806 0.929 . S
C1819 C1811 1.433 . S
C1819 N1821 1.384 . S
N1820 C1816 1.427 . S
N1820 C1817 1.384 . S
N1821 C1813 1.427 . S
N1821 C1819 1.384 . S
H1822 C1828 0.930 . S
H1823 C1832 0.930 . S
H1824 C1837 0.929 . S
H1825 C1835 0.929 . S
H1826 C1830 0.929 . S
H1827 C1836 0.929 . S
C1828 H1822 0.930 . S
C1828 C1829 1.367 . S
C1828 C1836 1.378 . S
C1829 C1828 1.367 . S
C1829 C1837 1.433 . S
C1830 H1826 0.929 . S
C1830 C1832 1.378 . S
C1830 C1834 1.350 . S
C1831 C1834 1.463 . S
C1831 C1836 1.350 . S
C1831 N1839 1.427 . S
C1832 H1823 0.930 . S
C1832 C1830 1.378 . S
C1832 C1833 1.367 . S
C1833 C1832 1.367 . S
C1833 C1835 1.433 . S
C1834 C1830 1.350 . S
C1834 C1831 1.463 . S
C1834 N1838 1.427 . S
C1835 H1825 0.929 . S
C1835 C1833 1.433 . S
C1835 N1838 1.384 . S
C1836 H1827 0.929 . S
C1836 C1828 1.378 . S
C1836 C1831 1.350 . S
C1837 H1824 0.929 . S
C1837 C1829 1.433 . S
C1837 N1839 1.384 . S
N1838 C1834 1.427 . S
N1838 C1835 1.384 . S
N1839 C1831 1.427 . S
N1839 C1837 1.384 . S
H1840 C1846 0.930 . S
H1841 C1850 0.930 . S
H1842 C1855 0.929 . S
H1843 C1853 0.929 . S
H1844 C1848 0.929 . S
H1845 C1854 0.929 . S
C1846 H1840 0.930 . S
C1846 C1847 1.367 . S
C1846 C1854 1.378 . S
C1847 C1846 1.367 . S
C1847 C1855 1.433 . S
C1848 H1844 0.929 . S
C1848 C1850 1.378 . S
C1848 C1852 1.350 . S
C1849 C1852 1.463 . S
C1849 C1854 1.350 . S
C1849 N1857 1.427 . S
C1850 H1841 0.930 . S
C1850 C1848 1.378 . S
C1850 C1851 1.367 . S
C1851 C1850 1.367 . S
C1851 C1853 1.433 . S
C1852 C1848 1.350 . S
C1852 C1849 1.463 . S
C1852 N1856 1.427 . S
C1853 H1843 0.929 . S
C1853 C1851 1.433 . S
C1853 N1856 1.384 . S
C1854 H1845 0.929 . S
C1854 C1846 1.378 . S
C1854 C1849 1.350 . S
C1855 H1842 0.929 . S
C1855 C1847 1.433 . S
C1855 N1857 1.384 . S
N1856 C1852 1.427 . S
N1856 C1853 1.384 . S
N1857 C1849 1.427 . S
N1857 C1855 1.384 . S
H1858 C1864 0.930 . S
H1859 C1868 0.930 . S
H1860 C1873 0.929 . S
H1861 C1871 0.929 . S
H1862 C1866 0.929 . S
H1863 C1872 0.929 . S
C1864 H1858 0.930 . S
C1864 C1865 1.367 . S
C1864 C1872 1.378 . S
C1865 C1864 1.367 . S
C1865 C1873 1.433 . S
C1866 H1862 0.929 . S
C1866 C1868 1.378 . S
C1866 C1870 1.350 . S
C1867 C1870 1.463 . S
C1867 C1872 1.350 . S
C1867 N1875 1.427 . S
C1868 H1859 0.930 . S
C1868 C1866 1.378 . S
C1868 C1869 1.367 . S
C1869 C1868 1.367 . S
C1869 C1871 1.433 . S
C1870 C1866 1.350 . S
C1870 C1867 1.463 . S
C1870 N1874 1.427 . S
C1871 H1861 0.929 . S
C1871 C1869 1.433 . S
C1871 N1874 1.384 . S
C1872 H1863 0.929 . S
C1872 C1864 1.378 . S
C1872 C1867 1.350 . S
C1873 H1860 0.929 . S
C1873 C1865 1.433 . S
C1873 N1875 1.384 . S
N1874 C1870 1.427 . S
N1874 C1871 1.384 . S
N1875 C1867 1.427 . S
N1875 C1873 1.384 . S
H1876 C1882 0.930 1_554 S
H1877 C1886 0.930 . S
H1878 C1891 0.929 . S
H1879 C1889 0.929 . S
H1880 C1884 0.929 1_556 S
H1881 C1890 0.929 . S
C1882 H1876 0.930 1_556 S
C1882 C1883 1.367 . S
C1882 C1890 1.378 1_556 S
C1883 C1882 1.367 . S
C1883 C1891 1.433 . S
C1884 H1880 0.929 1_554 S
C1884 C1886 1.378 . S
C1884 C1888 1.350 . S
C1885 C1888 1.465 . S
C1885 C1890 1.353 . S
C1885 N1893 1.421 1_554 S
C1886 H1877 0.930 . S
C1886 C1884 1.378 . S
C1886 C1887 1.367 . S
C1887 C1886 1.367 . S
C1887 C1889 1.433 . S
C1888 C1884 1.350 . S
C1888 C1885 1.465 . S
C1888 N1892 1.427 . S
C1889 H1879 0.929 . S
C1889 C1887 1.433 . S
C1889 N1892 1.384 . S
C1890 H1881 0.929 . S
C1890 C1882 1.378 1_554 S
C1890 C1885 1.353 . S
C1891 H1878 0.929 . S
C1891 C1883 1.433 . S
C1891 N1893 1.384 . S
N1892 C1888 1.427 . S
N1892 C1889 1.384 . S
N1893 C1885 1.421 1_556 S
N1893 C1891 1.384 . S
H1894 C1900 0.930 . S
H1895 C1904 0.930 . S
H1896 C1909 0.929 . S
H1897 C1907 0.929 . S
H1898 C1902 0.929 . S
H1899 C1908 0.929 . S
C1900 H1894 0.930 . S
C1900 C1901 1.367 . S
C1900 C1908 1.378 1_455 S
C1901 C1900 1.367 . S
C1901 C1909 1.433 . S
C1902 H1898 0.929 . S
C1902 C1904 1.378 . S
C1902 C1906 1.350 . S
C1903 C1906 1.463 . S
C1903 C1908 1.350 . S
C1903 N1911 1.427 . S
C1904 H1895 0.930 . S
C1904 C1902 1.378 . S
C1904 C1905 1.367 . S
C1905 C1904 1.367 . S
C1905 C1907 1.433 . S
C1906 C1902 1.350 . S
C1906 C1903 1.463 . S
C1906 N1910 1.427 . S
C1907 H1897 0.929 . S
C1907 C1905 1.433 . S
C1907 N1910 1.384 . S
C1908 H1899 0.929 . S
C1908 C1900 1.378 1_655 S
C1908 C1903 1.350 . S
C1909 H1896 0.929 . S
C1909 C1901 1.433 . S
C1909 N1911 1.384 1_455 S
N1910 C1906 1.427 . S
N1910 C1907 1.384 . S
N1911 C1903 1.427 . S
N1911 C1909 1.384 1_655 S
H1912 C1918 0.930 . S
H1913 C1922 0.930 . S
H1914 C1927 0.929 . S
H1915 C1925 0.929 . S
H1916 C1920 0.929 . S
H1917 C1926 0.929 . S
C1918 H1912 0.930 . S
C1918 C1919 1.367 . S
C1918 C1926 1.378 . S
C1919 C1918 1.367 . S
C1919 C1927 1.433 . S
C1920 H1916 0.929 . S
C1920 C1922 1.378 . S
C1920 C1924 1.350 . S
C1921 C1924 1.463 . S
C1921 C1926 1.350 . S
C1921 N1929 1.427 . S
C1922 H1913 0.930 . S
C1922 C1920 1.378 . S
C1922 C1923 1.367 . S
C1923 C1922 1.367 . S
C1923 C1925 1.433 . S
C1924 C1920 1.350 . S
C1924 C1921 1.463 . S
C1924 N1928 1.427 . S
C1925 H1915 0.929 . S
C1925 C1923 1.433 . S
C1925 N1928 1.384 . S
C1926 H1917 0.929 . S
C1926 C1918 1.378 . S
C1926 C1921 1.350 . S
C1927 H1914 0.929 . S
C1927 C1919 1.433 . S
C1927 N1929 1.384 . S
N1928 C1924 1.427 . S
N1928 C1925 1.384 . S
N1929 C1921 1.427 . S
N1929 C1927 1.384 . S
H1930 C1936 0.930 . S
H1931 C1940 0.930 . S
H1932 C1945 0.929 . S
H1933 C1943 0.929 . S
H1934 C1938 0.929 . S
H1935 C1944 0.929 . S
C1936 H1930 0.930 . S
C1936 C1937 1.367 . S
C1936 C1944 1.378 . S
C1937 C1936 1.367 . S
C1937 C1945 1.433 . S
C1938 H1934 0.929 . S
C1938 C1940 1.378 . S
C1938 C1942 1.350 . S
C1939 C1942 1.463 . S
C1939 C1944 1.350 . S
C1939 N1947 1.427 . S
C1940 H1931 0.930 . S
C1940 C1938 1.378 . S
C1940 C1941 1.367 . S
C1941 C1940 1.367 . S
C1941 C1943 1.433 . S
C1942 C1938 1.350 . S
C1942 C1939 1.463 . S
C1942 N1946 1.427 . S
C1943 H1933 0.929 . S
C1943 C1941 1.433 . S
C1943 N1946 1.384 . S
C1944 H1935 0.929 . S
C1944 C1936 1.378 . S
C1944 C1939 1.350 . S
C1945 H1932 0.929 . S
C1945 C1937 1.433 . S
C1945 N1947 1.384 . S
N1946 C1942 1.427 . S
N1946 C1943 1.384 . S
N1947 C1939 1.427 . S
N1947 C1945 1.384 . S
H1948 C1954 0.930 . S
H1949 C1958 0.930 . S
H1950 C1963 0.929 . S
H1951 C1961 0.929 . S
H1952 C1956 0.929 . S
H1953 C1962 0.929 . S
C1954 H1948 0.930 . S
C1954 C1955 1.367 . S
C1954 C1962 1.378 . S
C1955 C1954 1.367 . S
C1955 C1963 1.433 . S
C1956 H1952 0.929 . S
C1956 C1958 1.378 . S
C1956 C1960 1.350 . S
C1957 C1960 1.463 . S
C1957 C1962 1.350 . S
C1957 N1965 1.427 . S
C1958 H1949 0.930 . S
C1958 C1956 1.378 . S
C1958 C1959 1.367 . S
C1959 C1958 1.367 . S
C1959 C1961 1.433 . S
C1960 C1956 1.350 . S
C1960 C1957 1.463 . S
C1960 N1964 1.427 . S
C1961 H1951 0.929 . S
C1961 C1959 1.433 . S
C1961 N1964 1.384 . S
C1962 H1953 0.929 . S
C1962 C1954 1.378 . S
C1962 C1957 1.350 . S
C1963 H1950 0.929 . S
C1963 C1955 1.433 . S
C1963 N1965 1.384 . S
N1964 C1960 1.427 . S
N1964 C1961 1.384 . S
N1965 C1957 1.427 . S
N1965 C1963 1.384 . S
H1966 C1972 0.930 . S
H1967 C1976 0.930 . S
H1968 C1981 0.929 . S
H1969 C1979 0.929 . S
H1970 C1974 0.929 . S
H1971 C1980 0.929 . S
C1972 H1966 0.930 . S
C1972 C1973 1.367 . S
C1972 C1980 1.378 . S
C1973 C1972 1.367 . S
C1973 C1981 1.433 . S
C1974 H1970 0.929 . S
C1974 C1976 1.378 . S
C1974 C1978 1.350 . S
C1975 C1978 1.463 . S
C1975 C1980 1.350 . S
C1975 N1983 1.427 . S
C1976 H1967 0.930 . S
C1976 C1974 1.378 . S
C1976 C1977 1.367 . S
C1977 C1976 1.367 . S
C1977 C1979 1.433 . S
C1978 C1974 1.350 . S
C1978 C1975 1.463 . S
C1978 N1982 1.427 . S
C1979 H1969 0.929 . S
C1979 C1977 1.433 . S
C1979 N1982 1.384 . S
C1980 H1971 0.929 . S
C1980 C1972 1.378 . S
C1980 C1975 1.350 . S
C1981 H1968 0.929 . S
C1981 C1973 1.433 . S
C1981 N1983 1.384 . S
N1982 C1978 1.427 . S
N1982 C1979 1.384 . S
N1983 C1975 1.427 . S
N1983 C1981 1.384 . S
H1984 C1990 0.930 . S
H1985 C1994 0.930 . S
H1986 C1999 0.929 . S
H1987 C1997 0.929 . S
H1988 C1992 0.929 . S
H1989 C1998 0.929 . S
C1990 H1984 0.930 . S
C1990 C1991 1.367 . S
C1990 C1998 1.378 . S
C1991 C1990 1.367 . S
C1991 C1999 1.433 . S
C1992 H1988 0.929 . S
C1992 C1994 1.378 . S
C1992 C1996 1.350 . S
C1993 C1996 1.463 . S
C1993 C1998 1.350 . S
C1993 N2001 1.427 . S
C1994 H1985 0.930 . S
C1994 C1992 1.378 . S
C1994 C1995 1.367 . S
C1995 C1994 1.367 . S
C1995 C1997 1.433 . S
C1996 C1992 1.350 . S
C1996 C1993 1.463 . S
C1996 N2000 1.427 . S
C1997 H1987 0.929 . S
C1997 C1995 1.433 . S
C1997 N2000 1.384 . S
C1998 H1989 0.929 . S
C1998 C1990 1.378 . S
C1998 C1993 1.350 . S
C1999 H1986 0.929 . S
C1999 C1991 1.433 . S
C1999 N2001 1.384 . S
N2000 C1996 1.427 . S
N2000 C1997 1.384 . S
N2001 C1993 1.427 . S
N2001 C1999 1.384 . S
H2002 C2008 0.930 . S
H2003 C2012 0.930 . S
H2004 C2017 0.929 . S
H2005 C2015 0.929 . S
H2006 C2010 0.929 . S
H2007 C2016 0.929 . S
C2008 H2002 0.930 . S
C2008 C2009 1.367 1_556 S
C2008 C2016 1.378 . S
C2009 C2008 1.367 1_554 S
C2009 C2017 1.433 . S
C2010 H2006 0.929 . S
C2010 C2012 1.378 . S
C2010 C2014 1.350 . S
C2011 C2014 1.463 . S
C2011 C2016 1.350 . S
C2011 N2019 1.427 . S
C2012 H2003 0.930 . S
C2012 C2010 1.378 . S
C2012 C2013 1.367 . S
C2013 C2012 1.367 . S
C2013 C2015 1.433 . S
C2014 C2010 1.350 . S
C2014 C2011 1.463 . S
C2014 N2018 1.427 . S
C2015 H2005 0.929 . S
C2015 C2013 1.433 . S
C2015 N2018 1.384 . S
C2016 H2007 0.929 . S
C2016 C2008 1.378 . S
C2016 C2011 1.350 . S
C2017 H2004 0.929 . S
C2017 C2009 1.433 . S
C2017 N2019 1.384 1_554 S
N2018 C2014 1.427 . S
N2018 C2015 1.384 . S
N2019 C2011 1.427 . S
N2019 C2017 1.384 1_556 S
H2020 C2026 0.930 . S
H2021 C2030 0.930 . S
H2022 C2035 0.929 . S
H2023 C2033 0.929 . S
H2024 C2028 0.929 . S
H2025 C2034 0.929 . S
C2026 H2020 0.930 . S
C2026 C2027 1.367 . S
C2026 C2034 1.378 . S
C2027 C2026 1.367 . S
C2027 C2035 1.433 . S
C2028 H2024 0.929 . S
C2028 C2030 1.378 . S
C2028 C2032 1.350 . S
C2029 C2032 1.463 . S
C2029 C2034 1.350 . S
C2029 N2037 1.427 . S
C2030 H2021 0.930 . S
C2030 C2028 1.378 . S
C2030 C2031 1.367 . S
C2031 C2030 1.367 . S
C2031 C2033 1.433 . S
C2032 C2028 1.350 . S
C2032 C2029 1.463 . S
C2032 N2036 1.427 . S
C2033 H2023 0.929 . S
C2033 C2031 1.433 . S
C2033 N2036 1.384 . S
C2034 H2025 0.929 . S
C2034 C2026 1.378 . S
C2034 C2029 1.350 . S
C2035 H2022 0.929 . S
C2035 C2027 1.433 . S
C2035 N2037 1.384 . S
N2036 C2032 1.427 . S
N2036 C2033 1.384 . S
N2037 C2029 1.427 . S
N2037 C2035 1.384 . S
H2038 C2044 0.930 . S
H2039 C2048 0.930 . S
H2040 C2053 0.929 . S
H2041 C2051 0.929 . S
H2042 C2046 0.929 . S
H2043 C2052 0.929 . S
C2044 H2038 0.930 . S
C2044 C2045 1.367 . S
C2044 C2052 1.378 . S
C2045 C2044 1.367 . S
C2045 C2053 1.433 . S
C2046 H2042 0.929 . S
C2046 C2048 1.378 . S
C2046 C2050 1.350 . S
C2047 C2050 1.463 . S
C2047 C2052 1.350 . S
C2047 N2055 1.427 . S
C2048 H2039 0.930 . S
C2048 C2046 1.378 . S
C2048 C2049 1.367 . S
C2049 C2048 1.367 . S
C2049 C2051 1.433 . S
C2050 C2046 1.350 . S
C2050 C2047 1.463 . S
C2050 N2054 1.427 . S
C2051 H2041 0.929 . S
C2051 C2049 1.433 . S
C2051 N2054 1.384 . S
C2052 H2043 0.929 . S
C2052 C2044 1.378 . S
C2052 C2047 1.350 . S
C2053 H2040 0.929 . S
C2053 C2045 1.433 . S
C2053 N2055 1.384 . S
N2054 C2050 1.427 . S
N2054 C2051 1.384 . S
N2055 C2047 1.427 . S
N2055 C2053 1.384 . S
H2056 C2062 0.930 . S
H2057 C2066 0.930 . S
H2058 C2071 0.929 . S
H2059 C2069 0.929 . S
H2060 C2064 0.929 . S
H2061 C2070 0.929 . S
C2062 H2056 0.930 . S
C2062 C2063 1.367 . S
C2062 C2070 1.378 . S
C2063 C2062 1.367 . S
C2063 C2071 1.433 . S
C2064 H2060 0.929 . S
C2064 C2066 1.378 . S
C2064 C2068 1.350 . S
C2065 C2068 1.463 . S
C2065 C2070 1.350 . S
C2065 N2073 1.427 . S
C2066 H2057 0.930 . S
C2066 C2064 1.378 . S
C2066 C2067 1.367 . S
C2067 C2066 1.367 . S
C2067 C2069 1.433 . S
C2068 C2064 1.350 . S
C2068 C2065 1.463 . S
C2068 N2072 1.427 . S
C2069 H2059 0.929 . S
C2069 C2067 1.433 . S
C2069 N2072 1.384 . S
C2070 H2061 0.929 . S
C2070 C2062 1.378 . S
C2070 C2065 1.350 . S
C2071 H2058 0.929 . S
C2071 C2063 1.433 . S
C2071 N2073 1.384 . S
N2072 C2068 1.427 . S
N2072 C2069 1.384 . S
N2073 C2065 1.427 . S
N2073 C2071 1.384 . S
H2074 C2080 0.930 . S
H2075 C2084 0.930 . S
H2076 C2089 0.929 . S
H2077 C2087 0.929 . S
H2078 C2082 0.929 . S
H2079 C2088 0.929 . S
C2080 H2074 0.930 . S
C2080 C2081 1.367 . S
C2080 C2088 1.378 . S
C2081 C2080 1.367 . S
C2081 C2089 1.433 . S
C2082 H2078 0.929 . S
C2082 C2084 1.378 . S
C2082 C2086 1.350 . S
C2083 C2086 1.463 . S
C2083 C2088 1.350 . S
C2083 N2091 1.427 . S
C2084 H2075 0.930 . S
C2084 C2082 1.378 . S
C2084 C2085 1.367 . S
C2085 C2084 1.367 . S
C2085 C2087 1.433 . S
C2086 C2082 1.350 . S
C2086 C2083 1.463 . S
C2086 N2090 1.427 . S
C2087 H2077 0.929 . S
C2087 C2085 1.433 . S
C2087 N2090 1.384 . S
C2088 H2079 0.929 . S
C2088 C2080 1.378 . S
C2088 C2083 1.350 . S
C2089 H2076 0.929 . S
C2089 C2081 1.433 . S
C2089 N2091 1.384 . S
N2090 C2086 1.427 . S
N2090 C2087 1.384 . S
N2091 C2083 1.427 . S
N2091 C2089 1.384 . S
H2092 C2098 0.930 . S
H2093 C2102 0.930 . S
H2094 C2107 0.929 . S
H2095 C2105 0.929 . S
H2096 C2100 0.929 . S
H2097 C2106 0.929 . S
C2098 H2092 0.930 . S
C2098 C2099 1.367 . S
C2098 C2106 1.378 . S
C2099 C2098 1.367 . S
C2099 C2107 1.433 . S
C2100 H2096 0.929 . S
C2100 C2102 1.378 . S
C2100 C2104 1.350 . S
C2101 C2104 1.463 . S
C2101 C2106 1.350 . S
C2101 N2109 1.427 . S
C2102 H2093 0.930 . S
C2102 C2100 1.378 . S
C2102 C2103 1.367 . S
C2103 C2102 1.367 . S
C2103 C2105 1.433 . S
C2104 C2100 1.350 . S
C2104 C2101 1.463 . S
C2104 N2108 1.427 . S
C2105 H2095 0.929 . S
C2105 C2103 1.433 . S
C2105 N2108 1.384 . S
C2106 H2097 0.929 . S
C2106 C2098 1.378 . S
C2106 C2101 1.350 . S
C2107 H2094 0.929 . S
C2107 C2099 1.433 . S
C2107 N2109 1.384 . S
N2108 C2104 1.427 . S
N2108 C2105 1.384 . S
N2109 C2101 1.427 . S
N2109 C2107 1.384 . S
H2110 C2116 0.930 . S
H2111 C2120 0.930 . S
H2112 C2125 0.929 . S
H2113 C2123 0.929 . S
H2114 C2118 0.929 . S
H2115 C2124 0.929 . S
C2116 H2110 0.930 . S
C2116 C2117 1.367 . S
C2116 C2124 1.378 . S
C2117 C2116 1.367 . S
C2117 C2125 1.433 . S
C2118 H2114 0.929 . S
C2118 C2120 1.378 . S
C2118 C2122 1.350 . S
C2119 C2122 1.463 . S
C2119 C2124 1.350 . S
C2119 N2127 1.427 . S
C2120 H2111 0.930 . S
C2120 C2118 1.378 . S
C2120 C2121 1.367 . S
C2121 C2120 1.367 . S
C2121 C2123 1.433 . S
C2122 C2118 1.350 . S
C2122 C2119 1.463 . S
C2122 N2126 1.427 . S
C2123 H2113 0.929 . S
C2123 C2121 1.433 . S
C2123 N2126 1.384 . S
C2124 H2115 0.929 . S
C2124 C2116 1.378 . S
C2124 C2119 1.350 . S
C2125 H2112 0.929 . S
C2125 C2117 1.433 . S
C2125 N2127 1.384 . S
N2126 C2122 1.427 . S
N2126 C2123 1.384 . S
N2127 C2119 1.427 . S
N2127 C2125 1.384 . S
H2128 C2134 0.930 . S
H2129 C2138 0.930 . S
H2130 C2143 0.929 . S
H2131 C2141 0.929 . S
H2132 C2136 0.929 . S
H2133 C2142 0.929 . S
C2134 H2128 0.930 . S
C2134 C2135 1.367 . S
C2134 C2142 1.378 . S
C2135 C2134 1.367 . S
C2135 C2143 1.433 . S
C2136 H2132 0.929 . S
C2136 C2138 1.378 . S
C2136 C2140 1.350 . S
C2137 C2140 1.463 . S
C2137 C2142 1.350 . S
C2137 N2145 1.427 . S
C2138 H2129 0.930 . S
C2138 C2136 1.378 . S
C2138 C2139 1.367 . S
C2139 C2138 1.367 . S
C2139 C2141 1.433 . S
C2140 C2136 1.350 . S
C2140 C2137 1.463 . S
C2140 N2144 1.427 . S
C2141 H2131 0.929 . S
C2141 C2139 1.433 . S
C2141 N2144 1.384 . S
C2142 H2133 0.929 . S
C2142 C2134 1.378 . S
C2142 C2137 1.350 . S
C2143 H2130 0.929 . S
C2143 C2135 1.433 . S
C2143 N2145 1.384 . S
N2144 C2140 1.427 . S
N2144 C2141 1.384 . S
N2145 C2137 1.427 . S
N2145 C2143 1.384 . S
H2146 C2152 0.930 . S
H2147 C2156 0.930 . S
H2148 C2161 0.929 . S
H2149 C2159 0.929 . S
H2150 C2154 0.929 . S
H2151 C2160 0.929 . S
C2152 H2146 0.930 . S
C2152 C2153 1.367 . S
C2152 C2160 1.378 . S
C2153 C2152 1.367 . S
C2153 C2161 1.433 . S
C2154 H2150 0.929 . S
C2154 C2156 1.378 . S
C2154 C2158 1.350 . S
C2155 C2158 1.463 . S
C2155 C2160 1.350 . S
C2155 N2163 1.427 . S
C2156 H2147 0.930 . S
C2156 C2154 1.378 . S
C2156 C2157 1.367 . S
C2157 C2156 1.367 . S
C2157 C2159 1.433 . S
C2158 C2154 1.350 . S
C2158 C2155 1.463 . S
C2158 N2162 1.427 . S
C2159 H2149 0.929 . S
C2159 C2157 1.433 . S
C2159 N2162 1.384 . S
C2160 H2151 0.929 . S
C2160 C2152 1.378 . S
C2160 C2155 1.350 . S
C2161 H2148 0.929 . S
C2161 C2153 1.433 . S
C2161 N2163 1.384 . S
N2162 C2158 1.427 . S
N2162 C2159 1.384 . S
N2163 C2155 1.427 . S
N2163 C2161 1.384 . S
H2164 C2170 0.930 . S
H2165 C2174 0.930 . S
H2166 C2179 0.929 . S
H2167 C2177 0.929 . S
H2168 C2172 0.929 . S
H2169 C2178 0.929 . S
C2170 H2164 0.930 . S
C2170 C2171 1.367 . S
C2170 C2178 1.378 . S
C2171 C2170 1.367 . S
C2171 C2179 1.433 1_565 S
C2172 H2168 0.929 . S
C2172 C2174 1.378 . S
C2172 C2176 1.350 . S
C2173 C2176 1.463 . S
C2173 C2178 1.350 . S
C2173 N2181 1.427 . S
C2174 H2165 0.930 . S
C2174 C2172 1.378 . S
C2174 C2175 1.367 . S
C2175 C2174 1.367 . S
C2175 C2177 1.433 . S
C2176 C2172 1.350 . S
C2176 C2173 1.463 . S
C2176 N2180 1.427 . S
C2177 H2167 0.929 . S
C2177 C2175 1.433 . S
C2177 N2180 1.384 . S
C2178 H2169 0.929 . S
C2178 C2170 1.378 . S
C2178 C2173 1.350 . S
C2179 H2166 0.929 . S
C2179 C2171 1.433 1_545 S
C2179 N2181 1.384 1_545 S
N2180 C2176 1.427 . S
N2180 C2177 1.384 . S
N2181 C2173 1.427 . S
N2181 C2179 1.384 1_565 S
H2182 C2188 0.930 . S
H2183 C2192 0.930 . S
H2184 C2197 0.958 . S
H2185 C2195 0.929 . S
H2186 C2190 0.929 . S
H2187 C2196 0.929 . S
C2188 H2182 0.930 . S
C2188 C2189 1.367 . S
C2188 C2196 1.378 . S
C2189 C2188 1.367 . S
C2189 C2197 1.411 1_554 S
C2190 H2186 0.929 . S
C2190 C2192 1.378 . S
C2190 C2194 1.350 1_545 S
C2191 C2194 1.463 . S
C2191 C2196 1.350 . S
C2191 N2199 1.427 . S
C2192 H2183 0.930 . S
C2192 C2190 1.378 . S
C2192 C2193 1.367 . S
C2193 C2192 1.367 . S
C2193 C2195 1.433 1_545 S
C2194 C2190 1.350 1_565 S
C2194 C2191 1.463 . S
C2194 N2198 1.427 . S
C2195 H2185 0.929 . S
C2195 C2193 1.433 1_565 S
C2195 N2198 1.384 . S
C2196 H2187 0.929 . S
C2196 C2188 1.378 . S
C2196 C2191 1.350 . S
C2197 H2184 0.958 . S
C2197 C2189 1.411 1_556 S
C2197 N2199 1.378 1_556 S
N2198 C2194 1.427 . S
N2198 C2195 1.384 . S
N2199 C2191 1.427 . S
N2199 C2197 1.378 1_554 S
H2200 C2206 0.930 . S
H2201 C2210 0.930 . S
H2202 C2215 0.929 . S
H2203 C2213 0.929 . S
H2204 C2208 0.929 . S
H2205 C2214 0.929 . S
C2206 H2200 0.930 . S
C2206 C2207 1.367 . S
C2206 C2214 1.378 . S
C2207 C2206 1.367 . S
C2207 C2215 1.433 . S
C2208 H2204 0.929 . S
C2208 C2210 1.378 . S
C2208 C2212 1.350 . S
C2209 C2212 1.463 . S
C2209 C2214 1.350 . S
C2209 N2217 1.427 . S
C2210 H2201 0.930 . S
C2210 C2208 1.378 . S
C2210 C2211 1.367 . S
C2211 C2210 1.367 . S
C2211 C2213 1.433 . S
C2212 C2208 1.350 . S
C2212 C2209 1.463 . S
C2212 N2216 1.427 . S
C2213 H2203 0.929 . S
C2213 C2211 1.433 . S
C2213 N2216 1.384 . S
C2214 H2205 0.929 . S
C2214 C2206 1.378 . S
C2214 C2209 1.350 . S
C2215 H2202 0.929 . S
C2215 C2207 1.433 . S
C2215 N2217 1.384 . S
N2216 C2212 1.427 . S
N2216 C2213 1.384 . S
N2217 C2209 1.427 . S
N2217 C2215 1.384 . S
H2218 C2224 0.930 . S
H2219 C2228 0.930 . S
H2220 C2233 0.929 . S
H2221 C2231 0.929 . S
H2222 C2226 0.929 . S
H2223 C2232 0.929 . S
C2224 H2218 0.930 . S
C2224 C2225 1.367 . S
C2224 C2232 1.378 . S
C2225 C2224 1.367 . S
C2225 C2233 1.433 . S
C2226 H2222 0.929 . S
C2226 C2228 1.378 . S
C2226 C2230 1.350 . S
C2227 C2230 1.463 . S
C2227 C2232 1.350 . S
C2227 N2235 1.427 . S
C2228 H2219 0.930 . S
C2228 C2226 1.378 . S
C2228 C2229 1.367 . S
C2229 C2228 1.367 . S
C2229 C2231 1.433 . S
C2230 C2226 1.350 . S
C2230 C2227 1.463 . S
C2230 N2234 1.427 . S
C2231 H2221 0.929 . S
C2231 C2229 1.433 . S
C2231 N2234 1.384 . S
C2232 H2223 0.929 . S
C2232 C2224 1.378 . S
C2232 C2227 1.350 . S
C2233 H2220 0.929 . S
C2233 C2225 1.433 . S
C2233 N2235 1.384 . S
N2234 C2230 1.427 . S
N2234 C2231 1.384 . S
N2235 C2227 1.427 . S
N2235 C2233 1.384 . S
H2236 C2242 0.930 . S
H2237 C2246 0.930 . S
H2238 C2251 0.929 . S
H2239 C2249 0.929 . S
H2240 C2244 0.929 . S
H2241 C2250 0.929 . S
C2242 H2236 0.930 . S
C2242 C2243 1.367 . S
C2242 C2250 1.378 . S
C2243 C2242 1.367 . S
C2243 C2251 1.433 . S
C2244 H2240 0.929 . S
C2244 C2246 1.378 . S
C2244 C2248 1.350 . S
C2245 C2248 1.463 . S
C2245 C2250 1.350 . S
C2245 N2253 1.427 . S
C2246 H2237 0.930 . S
C2246 C2244 1.378 . S
C2246 C2247 1.367 . S
C2247 C2246 1.367 . S
C2247 C2249 1.433 . S
C2248 C2244 1.350 . S
C2248 C2245 1.463 . S
C2248 N2252 1.427 . S
C2249 H2239 0.929 . S
C2249 C2247 1.433 . S
C2249 N2252 1.384 . S
C2250 H2241 0.929 . S
C2250 C2242 1.378 . S
C2250 C2245 1.350 . S
C2251 H2238 0.929 . S
C2251 C2243 1.433 . S
C2251 N2253 1.384 . S
N2252 C2248 1.427 . S
N2252 C2249 1.384 . S
N2253 C2245 1.427 . S
N2253 C2251 1.384 . S
H2254 C2260 0.930 . S
H2255 C2264 0.930 . S
H2256 C2269 0.929 . S
H2257 C2267 0.929 . S
H2258 C2262 0.929 . S
H2259 C2268 0.929 . S
C2260 H2254 0.930 . S
C2260 C2261 1.367 . S
C2260 C2268 1.378 . S
C2261 C2260 1.367 . S
C2261 C2269 1.433 . S
C2262 H2258 0.929 . S
C2262 C2264 1.378 . S
C2262 C2266 1.350 . S
C2263 C2266 1.463 . S
C2263 C2268 1.350 . S
C2263 N2271 1.427 . S
C2264 H2255 0.930 . S
C2264 C2262 1.378 . S
C2264 C2265 1.367 . S
C2265 C2264 1.367 . S
C2265 C2267 1.433 . S
C2266 C2262 1.350 . S
C2266 C2263 1.463 . S
C2266 N2270 1.427 . S
C2267 H2257 0.929 . S
C2267 C2265 1.433 . S
C2267 N2270 1.384 . S
C2268 H2259 0.929 . S
C2268 C2260 1.378 . S
C2268 C2263 1.350 . S
C2269 H2256 0.929 . S
C2269 C2261 1.433 . S
C2269 N2271 1.384 . S
N2270 C2266 1.427 . S
N2270 C2267 1.384 . S
N2271 C2263 1.427 . S
N2271 C2269 1.384 . S
H2272 C2278 0.930 . S
H2273 C2282 0.930 . S
H2274 C2287 0.929 . S
H2275 C2285 0.929 . S
H2276 C2280 0.929 . S
H2277 C2286 0.929 . S
C2278 H2272 0.930 . S
C2278 C2279 1.367 . S
C2278 C2286 1.378 . S
C2279 C2278 1.367 . S
C2279 C2287 1.433 . S
C2280 H2276 0.929 . S
C2280 C2282 1.378 . S
C2280 C2284 1.350 . S
C2281 C2284 1.463 . S
C2281 C2286 1.350 . S
C2281 N2289 1.427 . S
C2282 H2273 0.930 . S
C2282 C2280 1.378 . S
C2282 C2283 1.367 . S
C2283 C2282 1.367 . S
C2283 C2285 1.433 . S
C2284 C2280 1.350 . S
C2284 C2281 1.463 . S
C2284 N2288 1.427 . S
C2285 H2275 0.929 . S
C2285 C2283 1.433 . S
C2285 N2288 1.384 . S
C2286 H2277 0.929 . S
C2286 C2278 1.378 . S
C2286 C2281 1.350 . S
C2287 H2274 0.929 . S
C2287 C2279 1.433 . S
C2287 N2289 1.384 . S
N2288 C2284 1.427 . S
N2288 C2285 1.384 . S
N2289 C2281 1.427 . S
N2289 C2287 1.384 . S
H2290 C2296 0.930 . S
H2291 C2300 0.930 . S
H2292 C2305 0.929 . S
H2293 C2303 0.929 . S
H2294 C2298 0.929 . S
H2295 C2304 0.929 . S
C2296 H2290 0.930 . S
C2296 C2297 1.367 . S
C2296 C2304 1.378 . S
C2297 C2296 1.367 . S
C2297 C2305 1.433 . S
C2298 H2294 0.929 . S
C2298 C2300 1.378 . S
C2298 C2302 1.350 . S
C2299 C2302 1.463 . S
C2299 C2304 1.350 . S
C2299 N2307 1.427 . S
C2300 H2291 0.930 . S
C2300 C2298 1.378 . S
C2300 C2301 1.367 . S
C2301 C2300 1.367 . S
C2301 C2303 1.433 . S
C2302 C2298 1.350 . S
C2302 C2299 1.463 . S
C2302 N2306 1.427 . S
C2303 H2293 0.929 . S
C2303 C2301 1.433 . S
C2303 N2306 1.384 . S
C2304 H2295 0.929 . S
C2304 C2296 1.378 . S
C2304 C2299 1.350 . S
C2305 H2292 0.929 . S
C2305 C2297 1.433 . S
C2305 N2307 1.384 . S
N2306 C2302 1.427 . S
N2306 C2303 1.384 . S
N2307 C2299 1.427 . S
N2307 C2305 1.384 . S
H2308 C2314 0.930 . S
H2309 C2318 0.930 . S
H2310 C2323 0.929 . S
H2311 C2321 0.929 . S
H2312 C2316 0.929 . S
H2313 C2322 0.929 . S
C2314 H2308 0.930 . S
C2314 C2315 1.367 . S
C2314 C2322 1.378 . S
C2315 C2314 1.367 . S
C2315 C2323 1.433 . S
C2316 H2312 0.929 . S
C2316 C2318 1.378 . S
C2316 C2320 1.350 . S
C2317 C2320 1.463 . S
C2317 C2322 1.350 . S
C2317 N2325 1.427 . S
C2318 H2309 0.930 . S
C2318 C2316 1.378 . S
C2318 C2319 1.367 . S
C2319 C2318 1.367 . S
C2319 C2321 1.433 . S
C2320 C2316 1.350 . S
C2320 C2317 1.463 . S
C2320 N2324 1.427 . S
C2321 H2311 0.929 . S
C2321 C2319 1.433 . S
C2321 N2324 1.384 . S
C2322 H2313 0.929 . S
C2322 C2314 1.378 . S
C2322 C2317 1.350 . S
C2323 H2310 0.929 . S
C2323 C2315 1.433 . S
C2323 N2325 1.384 . S
N2324 C2320 1.427 . S
N2324 C2321 1.384 . S
N2325 C2317 1.427 . S
N2325 C2323 1.384 . S
H2326 C2332 0.930 . S
H2327 C2336 0.930 . S
H2328 C2341 0.929 . S
H2329 C2339 0.929 . S
H2330 C2334 0.929 . S
H2331 C2340 0.929 . S
C2332 H2326 0.930 . S
C2332 C2333 1.367 . S
C2332 C2340 1.378 . S
C2333 C2332 1.367 . S
C2333 C2341 1.433 . S
C2334 H2330 0.929 . S
C2334 C2336 1.378 . S
C2334 C2338 1.350 . S
C2335 C2338 1.463 . S
C2335 C2340 1.350 . S
C2335 N2343 1.427 . S
C2336 H2327 0.930 . S
C2336 C2334 1.378 . S
C2336 C2337 1.367 . S
C2337 C2336 1.367 . S
C2337 C2339 1.433 . S
C2338 C2334 1.350 . S
C2338 C2335 1.463 . S
C2338 N2342 1.427 . S
C2339 H2329 0.929 . S
C2339 C2337 1.433 . S
C2339 N2342 1.384 . S
C2340 H2331 0.929 . S
C2340 C2332 1.378 . S
C2340 C2335 1.350 . S
C2341 H2328 0.929 . S
C2341 C2333 1.433 . S
C2341 N2343 1.384 . S
N2342 C2338 1.427 . S
N2342 C2339 1.384 . S
N2343 C2335 1.427 . S
N2343 C2341 1.384 . S
H2344 C2350 0.930 . S
H2345 C2354 0.930 1_554 S
H2346 C2359 0.929 . S
H2347 C2357 0.929 . S
H2348 C2352 0.929 . S
H2349 C2358 0.929 . S
C2350 H2344 0.930 . S
C2350 C2351 1.367 . S
C2350 C2358 1.378 . S
C2351 C2350 1.367 . S
C2351 C2359 1.433 . S
C2352 H2348 0.929 . S
C2352 C2354 1.378 . S
C2352 C2356 1.350 . S
C2353 C2356 1.463 . S
C2353 C2358 1.350 . S
C2353 N2361 1.427 . S
C2354 H2345 0.930 1_556 S
C2354 C2352 1.378 . S
C2354 C2355 1.367 1_556 S
C2355 C2354 1.367 1_554 S
C2355 C2357 1.433 1_554 S
C2356 C2352 1.350 . S
C2356 C2353 1.463 . S
C2356 N2360 1.427 . S
C2357 H2347 0.929 . S
C2357 C2355 1.433 1_556 S
C2357 N2360 1.384 . S
C2358 H2349 0.929 . S
C2358 C2350 1.378 . S
C2358 C2353 1.350 . S
C2359 H2346 0.929 . S
C2359 C2351 1.433 . S
C2359 N2361 1.384 . S
N2360 C2356 1.427 . S
N2360 C2357 1.384 . S
N2361 C2353 1.427 . S
N2361 C2359 1.384 . S
H2362 C2368 0.930 . S
H2363 C2372 0.930 . S
H2364 C2377 0.929 . S
H2365 C2375 0.929 . S
H2366 C2370 0.929 . S
H2367 C2376 0.929 . S
C2368 H2362 0.930 . S
C2368 C2369 1.367 . S
C2368 C2376 1.378 . S
C2369 C2368 1.367 . S
C2369 C2377 1.433 . S
C2370 H2366 0.929 . S
C2370 C2372 1.378 . S
C2370 C2374 1.350 . S
C2371 C2374 1.463 . S
C2371 C2376 1.350 . S
C2371 N2379 1.427 . S
C2372 H2363 0.930 . S
C2372 C2370 1.378 . S
C2372 C2373 1.367 . S
C2373 C2372 1.367 . S
C2373 C2375 1.433 . S
C2374 C2370 1.350 . S
C2374 C2371 1.463 . S
C2374 N2378 1.427 . S
C2375 H2365 0.929 . S
C2375 C2373 1.433 . S
C2375 N2378 1.384 . S
C2376 H2367 0.929 . S
C2376 C2368 1.378 . S
C2376 C2371 1.350 . S
C2377 H2364 0.929 . S
C2377 C2369 1.433 . S
C2377 N2379 1.384 . S
N2378 C2374 1.427 . S
N2378 C2375 1.384 . S
N2379 C2371 1.427 . S
N2379 C2377 1.384 . S
H2380 C2386 0.930 . S
H2381 C2390 0.930 . S
H2382 C2395 0.929 . S
H2383 C2393 0.929 . S
H2384 C2388 0.929 . S
H2385 C2394 0.929 . S
C2386 H2380 0.930 . S
C2386 C2387 1.367 . S
C2386 C2394 1.378 . S
C2387 C2386 1.367 . S
C2387 C2395 1.433 . S
C2388 H2384 0.929 . S
C2388 C2390 1.378 . S
C2388 C2392 1.350 . S
C2389 C2392 1.463 . S
C2389 C2394 1.350 . S
C2389 N2397 1.427 . S
C2390 H2381 0.930 . S
C2390 C2388 1.378 . S
C2390 C2391 1.367 . S
C2391 C2390 1.367 . S
C2391 C2393 1.433 . S
C2392 C2388 1.350 . S
C2392 C2389 1.463 . S
C2392 N2396 1.427 . S
C2393 H2383 0.929 . S
C2393 C2391 1.433 . S
C2393 N2396 1.384 . S
C2394 H2385 0.929 . S
C2394 C2386 1.378 . S
C2394 C2389 1.350 . S
C2395 H2382 0.929 . S
C2395 C2387 1.433 . S
C2395 N2397 1.384 . S
N2396 C2392 1.427 . S
N2396 C2393 1.384 . S
N2397 C2389 1.427 . S
N2397 C2395 1.384 . S
H2398 C2404 0.930 . S
H2399 C2408 0.930 . S
H2400 C2413 0.929 . S
H2401 C2411 0.929 . S
H2402 C2406 0.929 . S
H2403 C2412 0.929 . S
C2404 H2398 0.930 . S
C2404 C2405 1.367 . S
C2404 C2412 1.378 . S
C2405 C2404 1.367 . S
C2405 C2413 1.433 . S
C2406 H2402 0.929 . S
C2406 C2408 1.378 . S
C2406 C2410 1.350 . S
C2407 C2410 1.463 . S
C2407 C2412 1.350 . S
C2407 N2415 1.427 . S
C2408 H2399 0.930 . S
C2408 C2406 1.378 . S
C2408 C2409 1.367 . S
C2409 C2408 1.367 . S
C2409 C2411 1.433 . S
C2410 C2406 1.350 . S
C2410 C2407 1.463 . S
C2410 N2414 1.427 . S
C2411 H2401 0.929 . S
C2411 C2409 1.433 . S
C2411 N2414 1.384 . S
C2412 H2403 0.929 . S
C2412 C2404 1.378 . S
C2412 C2407 1.350 . S
C2413 H2400 0.929 . S
C2413 C2405 1.433 . S
C2413 N2415 1.384 . S
N2414 C2410 1.427 . S
N2414 C2411 1.384 . S
N2415 C2407 1.427 . S
N2415 C2413 1.384 . S
H2416 C2422 0.930 . S
H2417 C2426 0.930 . S
H2418 C2431 0.929 . S
H2419 C2429 0.929 . S
H2420 C2424 0.929 . S
H2421 C2430 0.929 . S
C2422 H2416 0.930 . S
C2422 C2423 1.367 . S
C2422 C2430 1.378 . S
C2423 C2422 1.367 . S
C2423 C2431 1.433 . S
C2424 H2420 0.929 . S
C2424 C2426 1.378 . S
C2424 C2428 1.350 . S
C2425 C2428 1.463 . S
C2425 C2430 1.350 . S
C2425 N2433 1.427 . S
C2426 H2417 0.930 . S
C2426 C2424 1.378 . S
C2426 C2427 1.367 . S
C2427 C2426 1.367 . S
C2427 C2429 1.433 . S
C2428 C2424 1.350 . S
C2428 C2425 1.463 . S
C2428 N2432 1.427 . S
C2429 H2419 0.929 . S
C2429 C2427 1.433 . S
C2429 N2432 1.384 . S
C2430 H2421 0.929 . S
C2430 C2422 1.378 . S
C2430 C2425 1.350 . S
C2431 H2418 0.929 . S
C2431 C2423 1.433 . S
C2431 N2433 1.384 . S
N2432 C2428 1.427 . S
N2432 C2429 1.384 . S
N2433 C2425 1.427 . S
N2433 C2431 1.384 . S
H2434 C2440 0.930 . S
H2435 C2444 0.930 . S
H2436 C2449 0.929 . S
H2437 C2447 0.929 . S
H2438 C2442 0.929 . S
H2439 C2448 0.929 . S
C2440 H2434 0.930 . S
C2440 C2441 1.367 . S
C2440 C2448 1.378 . S
C2441 C2440 1.367 . S
C2441 C2449 1.433 . S
C2442 H2438 0.929 . S
C2442 C2444 1.378 . S
C2442 C2446 1.350 . S
C2443 C2446 1.463 . S
C2443 C2448 1.350 . S
C2443 N2451 1.427 . S
C2444 H2435 0.930 . S
C2444 C2442 1.378 . S
C2444 C2445 1.367 . S
C2445 C2444 1.367 . S
C2445 C2447 1.433 . S
C2446 C2442 1.350 . S
C2446 C2443 1.463 . S
C2446 N2450 1.427 . S
C2447 H2437 0.929 . S
C2447 C2445 1.433 . S
C2447 N2450 1.384 . S
C2448 H2439 0.929 . S
C2448 C2440 1.378 . S
C2448 C2443 1.350 . S
C2449 H2436 0.929 . S
C2449 C2441 1.433 . S
C2449 N2451 1.384 . S
N2450 C2446 1.427 . S
N2450 C2447 1.384 . S
N2451 C2443 1.427 . S
N2451 C2449 1.384 . S
H2452 C2458 0.930 . S
H2453 C2462 0.945 1_655 S
H2454 C2467 0.929 . S
H2455 C2465 0.929 . S
H2456 C2460 0.929 . S
H2457 C2466 0.899 1_455 S
C2458 H2452 0.930 . S
C2458 C2459 1.367 . S
C2458 C2466 1.397 . S
C2459 C2458 1.367 . S
C2459 C2467 1.433 . S
C2460 H2456 0.929 . S
C2460 C2462 1.361 1_656 S
C2460 C2464 1.351 1_655 S
C2461 C2464 1.464 1_655 S
C2461 C2466 1.362 . S
C2461 N2469 1.427 . S
C2462 H2453 0.945 1_455 S
C2462 C2460 1.361 1_454 S
C2462 C2463 1.369 . S
C2463 C2462 1.369 . S
C2463 C2465 1.433 1_554 S
C2464 C2460 1.351 1_455 S
C2464 C2461 1.464 1_455 S
C2464 N2468 1.424 . S
C2465 H2455 0.929 . S
C2465 C2463 1.433 1_556 S
C2465 N2468 1.384 . S
C2466 H2457 0.899 1_655 S
C2466 C2458 1.397 . S
C2466 C2461 1.362 . S
C2467 H2454 0.929 . S
C2467 C2459 1.433 . S
C2467 N2469 1.384 . S
N2468 C2464 1.424 . S
N2468 C2465 1.384 . S
N2469 C2461 1.427 . S
N2469 C2467 1.384 . S
H2470 C2476 0.930 . S
H2471 C2480 0.930 . S
H2472 C2485 0.929 . S
H2473 C2483 0.929 . S
H2474 C2478 0.929 . S
H2475 C2484 0.929 . S
C2476 H2470 0.930 . S
C2476 C2477 1.367 . S
C2476 C2484 1.378 . S
C2477 C2476 1.367 . S
C2477 C2485 1.433 . S
C2478 H2474 0.929 . S
C2478 C2480 1.378 . S
C2478 C2482 1.350 . S
C2479 C2482 1.463 . S
C2479 C2484 1.350 . S
C2479 N2487 1.427 . S
C2480 H2471 0.930 . S
C2480 C2478 1.378 . S
C2480 C2481 1.367 . S
C2481 C2480 1.367 . S
C2481 C2483 1.433 . S
C2482 C2478 1.350 . S
C2482 C2479 1.463 . S
C2482 N2486 1.427 . S
C2483 H2473 0.929 . S
C2483 C2481 1.433 . S
C2483 N2486 1.384 . S
C2484 H2475 0.929 . S
C2484 C2476 1.378 . S
C2484 C2479 1.350 . S
C2485 H2472 0.929 . S
C2485 C2477 1.433 . S
C2485 N2487 1.384 . S
N2486 C2482 1.427 . S
N2486 C2483 1.384 . S
N2487 C2479 1.427 . S
N2487 C2485 1.384 . S
H2488 C2494 0.930 . S
H2489 C2498 0.930 . S
H2490 C2503 0.929 . S
H2491 C2501 0.929 . S
H2492 C2496 0.929 . S
H2493 C2502 0.929 . S
C2494 H2488 0.930 . S
C2494 C2495 1.367 . S
C2494 C2502 1.378 . S
C2495 C2494 1.367 . S
C2495 C2503 1.433 . S
C2496 H2492 0.929 . S
C2496 C2498 1.378 . S
C2496 C2500 1.350 . S
C2497 C2500 1.463 . S
C2497 C2502 1.350 . S
C2497 N2505 1.427 . S
C2498 H2489 0.930 . S
C2498 C2496 1.378 . S
C2498 C2499 1.367 . S
C2499 C2498 1.367 . S
C2499 C2501 1.433 . S
C2500 C2496 1.350 . S
C2500 C2497 1.463 . S
C2500 N2504 1.427 . S
C2501 H2491 0.929 . S
C2501 C2499 1.433 . S
C2501 N2504 1.384 . S
C2502 H2493 0.929 . S
C2502 C2494 1.378 . S
C2502 C2497 1.350 . S
C2503 H2490 0.929 . S
C2503 C2495 1.433 . S
C2503 N2505 1.384 . S
N2504 C2500 1.427 . S
N2504 C2501 1.384 . S
N2505 C2497 1.427 . S
N2505 C2503 1.384 . S
H2506 C2512 0.930 . S
H2507 C2516 0.930 . S
H2508 C2521 0.929 . S
H2509 C2519 0.929 . S
H2510 C2514 0.929 . S
H2511 C2520 0.929 . S
C2512 H2506 0.930 . S
C2512 C2513 1.367 . S
C2512 C2520 1.378 . S
C2513 C2512 1.367 . S
C2513 C2521 1.433 . S
C2514 H2510 0.929 . S
C2514 C2516 1.378 . S
C2514 C2518 1.350 . S
C2515 C2518 1.463 . S
C2515 C2520 1.350 . S
C2515 N2523 1.427 . S
C2516 H2507 0.930 . S
C2516 C2514 1.378 . S
C2516 C2517 1.367 . S
C2517 C2516 1.367 . S
C2517 C2519 1.433 . S
C2518 C2514 1.350 . S
C2518 C2515 1.463 . S
C2518 N2522 1.427 . S
C2519 H2509 0.929 . S
C2519 C2517 1.433 . S
C2519 N2522 1.384 . S
C2520 H2511 0.929 . S
C2520 C2512 1.378 . S
C2520 C2515 1.350 . S
C2521 H2508 0.929 . S
C2521 C2513 1.433 . S
C2521 N2523 1.384 . S
N2522 C2518 1.427 . S
N2522 C2519 1.384 . S
N2523 C2515 1.427 . S
N2523 C2521 1.384 . S
H2524 C2530 0.930 . S
H2525 C2534 0.930 . S
H2526 C2539 0.929 . S
H2527 C2537 0.929 . S
H2528 C2532 0.929 . S
H2529 C2538 0.929 . S
C2530 H2524 0.930 . S
C2530 C2531 1.367 . S
C2530 C2538 1.378 . S
C2531 C2530 1.367 . S
C2531 C2539 1.433 . S
C2532 H2528 0.929 . S
C2532 C2534 1.378 . S
C2532 C2536 1.350 . S
C2533 C2536 1.463 . S
C2533 C2538 1.350 . S
C2533 N2541 1.427 . S
C2534 H2525 0.930 . S
C2534 C2532 1.378 . S
C2534 C2535 1.377 . S
C2535 C2534 1.377 . S
C2535 C2537 1.430 1_655 S
C2536 C2532 1.350 . S
C2536 C2533 1.463 . S
C2536 N2540 1.427 1_655 S
C2537 H2527 0.929 . S
C2537 C2535 1.430 1_455 S
C2537 N2540 1.384 . S
C2538 H2529 0.929 . S
C2538 C2530 1.378 . S
C2538 C2533 1.350 . S
C2539 H2526 0.929 . S
C2539 C2531 1.433 . S
C2539 N2541 1.384 . S
N2540 C2536 1.427 1_455 S
N2540 C2537 1.384 . S
N2541 C2533 1.427 . S
N2541 C2539 1.384 . S
H2542 C2548 0.930 . S
H2543 C2552 0.930 . S
H2544 C2557 0.929 . S
H2545 C2555 0.929 . S
H2546 C2550 0.929 . S
H2547 C2556 0.929 . S
C2548 H2542 0.930 . S
C2548 C2549 1.367 . S
C2548 C2556 1.378 . S
C2549 C2548 1.367 . S
C2549 C2557 1.433 . S
C2550 H2546 0.929 . S
C2550 C2552 1.378 . S
C2550 C2554 1.350 . S
C2551 C2554 1.463 . S
C2551 C2556 1.350 . S
C2551 N2559 1.427 . S
C2552 H2543 0.930 . S
C2552 C2550 1.378 . S
C2552 C2553 1.367 . S
C2553 C2552 1.367 . S
C2553 C2555 1.433 . S
C2554 C2550 1.350 . S
C2554 C2551 1.463 . S
C2554 N2558 1.427 . S
C2555 H2545 0.929 . S
C2555 C2553 1.433 . S
C2555 N2558 1.384 . S
C2556 H2547 0.929 . S
C2556 C2548 1.378 . S
C2556 C2551 1.350 . S
C2557 H2544 0.929 . S
C2557 C2549 1.433 . S
C2557 N2559 1.384 . S
N2558 C2554 1.427 . S
N2558 C2555 1.384 . S
N2559 C2551 1.427 . S
N2559 C2557 1.384 . S
H2560 C2566 0.930 . S
H2561 C2570 0.930 . S
H2562 C2575 0.929 . S
H2563 C2573 0.929 . S
H2564 C2568 0.929 . S
H2565 C2574 0.929 . S
C2566 H2560 0.930 . S
C2566 C2567 1.367 . S
C2566 C2574 1.378 . S
C2567 C2566 1.367 . S
C2567 C2575 1.433 . S
C2568 H2564 0.929 . S
C2568 C2570 1.378 . S
C2568 C2572 1.350 . S
C2569 C2572 1.463 . S
C2569 C2574 1.350 . S
C2569 N2577 1.427 . S
C2570 H2561 0.930 . S
C2570 C2568 1.378 . S
C2570 C2571 1.367 . S
C2571 C2570 1.367 . S
C2571 C2573 1.433 . S
C2572 C2568 1.350 . S
C2572 C2569 1.463 . S
C2572 N2576 1.427 . S
C2573 H2563 0.929 . S
C2573 C2571 1.433 . S
C2573 N2576 1.384 . S
C2574 H2565 0.929 . S
C2574 C2566 1.378 . S
C2574 C2569 1.350 . S
C2575 H2562 0.929 . S
C2575 C2567 1.433 . S
C2575 N2577 1.384 . S
N2576 C2572 1.427 . S
N2576 C2573 1.384 . S
N2577 C2569 1.427 . S
N2577 C2575 1.384 . S
H2578 C2584 0.930 . S
H2579 C2588 0.930 1_545 S
H2580 C2593 0.929 . S
H2581 C2591 0.929 . S
H2582 C2586 0.929 . S
H2583 C2592 0.929 . S
C2584 H2578 0.930 . S
C2584 C2585 1.367 . S
C2584 C2592 1.378 . S
C2585 C2584 1.367 . S
C2585 C2593 1.433 . S
C2586 H2582 0.929 . S
C2586 C2588 1.378 . S
C2586 C2590 1.350 . S
C2587 C2590 1.463 . S
C2587 C2592 1.350 . S
C2587 N2595 1.427 . S
C2588 H2579 0.930 1_565 S
C2588 C2586 1.378 . S
C2588 C2589 1.367 . S
C2589 C2588 1.367 . S
C2589 C2591 1.433 . S
C2590 C2586 1.350 . S
C2590 C2587 1.463 . S
C2590 N2594 1.427 . S
C2591 H2581 0.929 . S
C2591 C2589 1.433 . S
C2591 N2594 1.384 . S
C2592 H2583 0.929 . S
C2592 C2584 1.378 . S
C2592 C2587 1.350 . S
C2593 H2580 0.929 . S
C2593 C2585 1.433 . S
C2593 N2595 1.384 . S
N2594 C2590 1.427 . S
N2594 C2591 1.384 . S
N2595 C2587 1.427 . S
N2595 C2593 1.384 . S
H2596 C2602 0.930 . S
H2597 C2606 0.930 . S
H2598 C2611 0.929 . S
H2599 C2609 0.929 . S
H2600 C2604 0.929 . S
H2601 C2610 0.929 . S
C2602 H2596 0.930 . S
C2602 C2603 1.367 . S
C2602 C2610 1.378 . S
C2603 C2602 1.367 . S
C2603 C2611 1.433 . S
C2604 H2600 0.929 . S
C2604 C2606 1.378 . S
C2604 C2608 1.350 . S
C2605 C2608 1.463 . S
C2605 C2610 1.350 . S
C2605 N2613 1.427 . S
C2606 H2597 0.930 . S
C2606 C2604 1.378 . S
C2606 C2607 1.367 . S
C2607 C2606 1.367 . S
C2607 C2609 1.433 . S
C2608 C2604 1.350 . S
C2608 C2605 1.463 . S
C2608 N2612 1.427 . S
C2609 H2599 0.929 . S
C2609 C2607 1.433 . S
C2609 N2612 1.384 . S
C2610 H2601 0.929 . S
C2610 C2602 1.378 . S
C2610 C2605 1.350 . S
C2611 H2598 0.929 . S
C2611 C2603 1.433 . S
C2611 N2613 1.384 . S
N2612 C2608 1.427 . S
N2612 C2609 1.384 . S
N2613 C2605 1.427 . S
N2613 C2611 1.384 . S
H2614 C2620 0.930 . S
H2615 C2624 0.930 . S
H2616 C2629 0.929 . S
H2617 C2627 0.929 . S
H2618 C2622 0.929 . S
H2619 C2628 0.929 . S
C2620 H2614 0.930 . S
C2620 C2621 1.367 . S
C2620 C2628 1.378 . S
C2621 C2620 1.367 . S
C2621 C2629 1.433 . S
C2622 H2618 0.929 . S
C2622 C2624 1.378 . S
C2622 C2626 1.350 . S
C2623 C2626 1.463 . S
C2623 C2628 1.350 . S
C2623 N2631 1.427 . S
C2624 H2615 0.930 . S
C2624 C2622 1.378 . S
C2624 C2625 1.367 . S
C2625 C2624 1.367 . S
C2625 C2627 1.433 . S
C2626 C2622 1.350 . S
C2626 C2623 1.463 . S
C2626 N2630 1.427 . S
C2627 H2617 0.929 . S
C2627 C2625 1.433 . S
C2627 N2630 1.384 . S
C2628 H2619 0.929 . S
C2628 C2620 1.378 . S
C2628 C2623 1.350 . S
C2629 H2616 0.929 . S
C2629 C2621 1.433 . S
C2629 N2631 1.384 . S
N2630 C2626 1.427 . S
N2630 C2627 1.384 . S
N2631 C2623 1.427 . S
N2631 C2629 1.384 . S
H2632 C2638 0.930 . S
H2633 C2642 0.930 . S
H2634 C2647 0.929 . S
H2635 C2645 0.929 . S
H2636 C2640 0.929 . S
H2637 C2646 0.929 . S
C2638 H2632 0.930 . S
C2638 C2639 1.367 . S
C2638 C2646 1.378 . S
C2639 C2638 1.367 . S
C2639 C2647 1.433 . S
C2640 H2636 0.929 . S
C2640 C2642 1.378 . S
C2640 C2644 1.350 . S
C2641 C2644 1.463 . S
C2641 C2646 1.350 . S
C2641 N2649 1.427 . S
C2642 H2633 0.930 . S
C2642 C2640 1.378 . S
C2642 C2643 1.367 . S
C2643 C2642 1.367 . S
C2643 C2645 1.433 . S
C2644 C2640 1.350 . S
C2644 C2641 1.463 . S
C2644 N2648 1.427 . S
C2645 H2635 0.929 . S
C2645 C2643 1.433 . S
C2645 N2648 1.384 . S
C2646 H2637 0.929 . S
C2646 C2638 1.378 . S
C2646 C2641 1.350 . S
C2647 H2634 0.929 . S
C2647 C2639 1.433 . S
C2647 N2649 1.384 . S
N2648 C2644 1.427 . S
N2648 C2645 1.384 . S
N2649 C2641 1.427 . S
N2649 C2647 1.384 . S
H2650 C2656 0.930 . S
H2651 C2660 0.930 . S
H2652 C2665 0.929 . S
H2653 C2663 0.929 . S
H2654 C2658 0.929 . S
H2655 C2664 0.929 . S
C2656 H2650 0.930 . S
C2656 C2657 1.367 . S
C2656 C2664 1.378 . S
C2657 C2656 1.367 . S
C2657 C2665 1.433 . S
C2658 H2654 0.929 . S
C2658 C2660 1.378 . S
C2658 C2662 1.350 . S
C2659 C2662 1.463 . S
C2659 C2664 1.350 . S
C2659 N2667 1.427 . S
C2660 H2651 0.930 . S
C2660 C2658 1.378 . S
C2660 C2661 1.367 . S
C2661 C2660 1.367 . S
C2661 C2663 1.433 . S
C2662 C2658 1.350 . S
C2662 C2659 1.463 . S
C2662 N2666 1.427 . S
C2663 H2653 0.929 . S
C2663 C2661 1.433 . S
C2663 N2666 1.384 . S
C2664 H2655 0.929 . S
C2664 C2656 1.378 . S
C2664 C2659 1.350 . S
C2665 H2652 0.929 . S
C2665 C2657 1.433 . S
C2665 N2667 1.384 . S
N2666 C2662 1.427 . S
N2666 C2663 1.384 . S
N2667 C2659 1.427 . S
N2667 C2665 1.384 . S
H2668 C2674 0.930 . S
H2669 C2678 0.930 . S
H2670 C2683 0.929 . S
H2671 C2681 0.929 . S
H2672 C2676 0.929 . S
H2673 C2682 0.929 . S
C2674 H2668 0.930 . S
C2674 C2675 1.367 . S
C2674 C2682 1.378 . S
C2675 C2674 1.367 . S
C2675 C2683 1.433 . S
C2676 H2672 0.929 . S
C2676 C2678 1.378 . S
C2676 C2680 1.350 . S
C2677 C2680 1.463 . S
C2677 C2682 1.350 . S
C2677 N2685 1.427 . S
C2678 H2669 0.930 . S
C2678 C2676 1.378 . S
C2678 C2679 1.367 . S
C2679 C2678 1.367 . S
C2679 C2681 1.433 . S
C2680 C2676 1.350 . S
C2680 C2677 1.463 . S
C2680 N2684 1.427 . S
C2681 H2671 0.929 . S
C2681 C2679 1.433 . S
C2681 N2684 1.384 . S
C2682 H2673 0.929 . S
C2682 C2674 1.378 . S
C2682 C2677 1.350 . S
C2683 H2670 0.929 . S
C2683 C2675 1.433 . S
C2683 N2685 1.384 . S
N2684 C2680 1.427 . S
N2684 C2681 1.384 . S
N2685 C2677 1.427 . S
N2685 C2683 1.384 . S
H2686 C2692 0.930 . S
H2687 C2696 0.930 . S
H2688 C2701 0.929 . S
H2689 C2699 0.929 . S
H2690 C2694 0.929 . S
H2691 C2700 0.929 . S
C2692 H2686 0.930 . S
C2692 C2693 1.367 . S
C2692 C2700 1.378 . S
C2693 C2692 1.367 . S
C2693 C2701 1.433 . S
C2694 H2690 0.929 . S
C2694 C2696 1.378 . S
C2694 C2698 1.350 . S
C2695 C2698 1.463 . S
C2695 C2700 1.350 . S
C2695 N2703 1.427 . S
C2696 H2687 0.930 . S
C2696 C2694 1.378 . S
C2696 C2697 1.367 . S
C2697 C2696 1.367 . S
C2697 C2699 1.433 . S
C2698 C2694 1.350 . S
C2698 C2695 1.463 . S
C2698 N2702 1.427 . S
C2699 H2689 0.929 . S
C2699 C2697 1.433 . S
C2699 N2702 1.384 . S
C2700 H2691 0.929 . S
C2700 C2692 1.378 . S
C2700 C2695 1.350 . S
C2701 H2688 0.929 . S
C2701 C2693 1.433 . S
C2701 N2703 1.384 . S
N2702 C2698 1.427 . S
N2702 C2699 1.384 . S
N2703 C2695 1.427 . S
N2703 C2701 1.384 . S
C983 C106 2.555 . S
C987 C367 2.554 . S
C1001 C65 1.803 . S
C1005 C378 1.802 . S
C1019 C79 2.057 . S
C1023 C447 2.007 . S
C1041 C460 1.026 . S
C1037 C90 1.017 . S
C1055 C21 2.261 . S
C1059 C516 2.310 . S
C1077 C567 2.118 . S
C1073 C35 2.110 . S
C1095 C596 2.432 . S
C1091 C50 2.454 . S
C1109 C6 2.430 . S
C1113 C647 2.415 . S
C1131 C338 1.623 . S
C1127 C232 1.619 . S
C1145 C245 0.916 . S
C1149 C380 0.914 . S
C1167 C418 1.058 . S
C1163 C274 1.070 . S
C1185 C487 1.698 . S
C1181 C175 1.682 . S
C1199 C231 0.565 . S
C1203 C521 0.539 . S
C1221 C538 1.394 . S
C1217 C246 1.396 . S
C1239 C601 0.335 . S
C1235 C273 0.384 . S
C1257 C618 2.218 . S
C1253 C176 2.228 . S
C1275 C340 1.792 . S
C1271 C160 1.834 . S
C1289 C289 1.634 . S
C1293 C679 1.582 . S
C1311 C700 1.567 . S
C1307 C328 1.557 . S
C1329 C759 0.535 . S
C1325 C317 0.499 . S
C1343 C118 1.168 . S
C1347 C620 1.211 . S
C1361 C132 1.391 . S
C1365 C420 1.425 . S
C1379 C331 1.015 . S
C1383 C778 1.018 . S
C1401 C847 1.205 . S
C1397 C303 1.246 . S
C1419 C356 2.131 1_565 S
C1415 C63 2.123 . S
C1437 C839 2.292 . S
C1433 C107 2.228 . S
C1451 C92 1.845 . S
C1455 C436 1.842 . S
C1469 C78 1.465 . S
C1473 C801 1.452 . S
C1491 C527 2.944 . S
C1487 C8 2.945 . S
C1505 C51 2.276 . S
C1509 C716 2.240 . S
C1527 C607 2.754 1_556 S
C1523 C37 2.746 . S
C1545 C876 2.377 . S
C1541 C20 2.404 . S
C1563 C359 1.291 1_556 S
C1559 C147 1.242 . S
C1581 C841 1.119 . S
C1577 C316 1.142 . S
C1595 C119 1.068 . S
C1599 C439 1.088 . S
C1613 C288 1.820 . S
C1617 C796 1.848 . S
C1631 C148 0.773 . S
C1635 C500 0.775 . S
C1653 C719 1.451 . S
C1649 C315 1.403 . S
C1667 C120 0.545 . S
C1671 C580 0.552 . S
C1685 C287 2.157 . S
C1689 C879 2.141 . S
C1703 C188 1.571 . S
C1707 C361 1.513 . S
C1721 C177 1.876 . S
C1725 C658 1.846 . S
C1739 C258 1.491 . S
C1743 C561 1.471 . S
C1757 C247 0.641 . S
C1761 C738 0.633 . S
C1779 C881 0.994 . S
C1775 C272 0.982 . S
C1793 C216 1.271 . S
C1797 C441 1.282 . S
C1815 C479 1.315 . S
C1811 C261 1.266 . S
C1833 C396 1.152 . S
C1829 C205 1.158 . S
C1847 C76 2.126 . S
C1851 C927 2.171 . S
C1869 C818 1.874 . S
C1865 C93 1.875 . S
C1883 C105 1.621 . S
C1887 C967 1.618 . S
C1901 C62 1.036 . S
C1905 C780 1.049 . S
C1919 C49 2.224 . S
C1923 C676 2.262 . S
C1941 C727 2.524 . S
C1937 C9 2.540 . S
C1959 C756 2.363 . S
C1955 C22 2.387 . S
C1977 C887 2.781 . S
C1973 C36 2.835 . S
C1995 C898 1.526 . S
C1991 C260 1.523 . S
C2009 C189 0.785 . S
C2013 C820 0.775 . S
C2031 C938 0.995 . S
C2027 C204 1.004 . S
C2049 C807 1.524 . S
C2045 C217 1.514 . S
C2067 C681 0.644 . S
C2063 C259 0.659 . S
C2081 C190 1.474 . S
C2085 C698 1.473 . S
C2103 C761 0.438 . S
C2099 C203 0.479 . S
C2117 C218 2.272 . S
C2121 C858 2.262 . S
C2139 C900 1.772 . S
C2135 C314 1.817 . S
C2153 C135 1.679 . S
C2157 C519 1.631 . S
C2175 C540 1.574 . S
C2171 C146 1.561 1_565 S
C2193 C599 0.616 . S
C2189 C163 0.600 . S
C2211 C860 1.166 . S
C2207 C300 1.125 . S
C2225 C286 1.405 . S
C2229 C940 1.434 . S
C2247 C458 0.921 . S
C2243 C149 0.919 . S
C2265 C407 1.168 . S
C2261 C121 1.221 . S
C2279 C91 2.117 . S
C2283 C916 2.130 . S
C2301 C399 1.881 . S
C2297 C77 1.756 . S
C2315 C64 1.825 . S
C2319 C956 1.819 . S
C2333 C104 1.143 . S
C2337 C481 1.153 . S
C2351 C34 2.488 . S
C2355 C687 2.547 . S
C2373 C556 2.222 . S
C2369 C23 2.241 . S
C2387 C7 2.316 . S
C2391 C767 2.386 . S
C2405 C48 2.374 . S
C2409 C636 2.354 . S
C2427 C919 1.254 . S
C2423 C329 1.217 . S
C2441 C162 1.131 . S
C2445 C401 1.099 . S
C2463 C959 1.093 . S
C2459 C301 1.073 . S
C2477 C134 1.807 . S
C2481 C476 1.850 . S
C2495 C330 0.789 . S
C2499 C660 0.781 . S
C2517 C559 1.423 . S
C2513 C161 1.370 . S
C2531 C302 0.579 . S
C2535 C740 0.572 1_655 S
C2553 C639 2.112 . S
C2549 C133 2.135 . S
C2571 C921 1.607 . S
C2567 C244 1.668 . S
C2589 C498 1.823 1_665 S
C2585 C219 1.861 . S
C2603 C230 1.384 . S
C2607 C721 1.353 . S
C2625 C578 0.571 . S
C2621 C191 0.575 . S
C2639 C202 1.086 . S
C2643 C641 1.091 . S
C2657 C174 1.435 . S
C2661 C961 1.458 . S
C2679 C799 1.273 . S
C2675 C233 1.211 . S
C2697 C836 1.163 . S
C2693 C275 1.178 . S
