# Generated by pormake.
# Topology rtl, (3,6)-cn, num edge types: 1
# Building blocks:
#     Node 0, Type 0, BuildingBlock: OLANEW_clean_sbu_2, # of connection points: 3
#     Node 1, Type 0, BuildingBlock: OLANEW_clean_sbu_2, # of connection points: 3
#     Node 2, Type 0, BuildingBlock: OLANEW_clean_sbu_2, # of connection points: 3
#     Node 3, Type 0, BuildingBlock: OLANEW_clean_sbu_2, # of connection points: 3
#     Node 4, Type 1, BuildingBlock: KUMBUR_clean_sbu_1, # of connection points: 6
#     Node 5, Type 1, BuildingBlock: KUMBUR_clean_sbu_1, # of connection points: 6
#     Edge 6, Type (0, 1), BuildingBlock: OJICUG_clean_linker_0, # of connection points: 2
#     Edge 7, Type (0, 1), BuildingBlock: OJICUG_clean_linker_0, # of connection points: 2
#     Edge 8, Type (0, 1), BuildingBlock: OJICUG_clean_linker_0, # of connection points: 2
#     Edge 9, Type (0, 1), BuildingBlock: OJICUG_clean_linker_0, # of connection points: 2
#     Edge 10, Type (0, 1), BuildingBlock: OJICUG_clean_linker_0, # of connection points: 2
#     Edge 11, Type (0, 1), BuildingBlock: OJICUG_clean_linker_0, # of connection points: 2
#     Edge 12, Type (0, 1), BuildingBlock: OJICUG_clean_linker_0, # of connection points: 2
#     Edge 13, Type (0, 1), BuildingBlock: OJICUG_clean_linker_0, # of connection points: 2
#     Edge 14, Type (0, 1), BuildingBlock: OJICUG_clean_linker_0, # of connection points: 2
#     Edge 15, Type (0, 1), BuildingBlock: OJICUG_clean_linker_0, # of connection points: 2
#     Edge 16, Type (0, 1), BuildingBlock: OJICUG_clean_linker_0, # of connection points: 2
#     Edge 17, Type (0, 1), BuildingBlock: OJICUG_clean_linker_0, # of connection points: 2
# Relax obj value: 0.047
# Max RMSD: 0.180
# Mean RMSD: 0.140
data_MOF--net-rtl--node1-OLANEW_clean_sbu_2--node2-KUMBUR_clean_sbu_1--edge1-OJICUG_clean_linker_0
_symmetry_space_group_name_H-M    P1
_symmetry_Int_Tables_number       1
_symmetry_cell_setting            triclinic
loop_
_symmetry_equiv_pos_as_xyz
'x, y, z'
_cell_length_a     28.547823
_cell_length_b     28.660098
_cell_length_c     22.661184
_cell_angle_alpha  71.583016
_cell_angle_beta   103.15018
_cell_angle_gamma 91.462535
loop_
_atom_site_label
_atom_site_type_symbol
_atom_site_fract_x
_atom_site_fract_y
_atom_site_fract_z
_atom_type_partial_charge
O0 O 0.18553 0.82121 0.95457 0.0
Cd1 Cd 0.24893 0.78536 0.05165 0.0
O2 O 0.20095 0.89524 0.96149 0.0
Cd3 Cd 0.22643 0.86801 0.06501 0.0
O4 O 0.18991 0.86827 0.13986 0.0
C5 C 0.18456 0.90879 0.14993 0.0
O6 O 0.20487 0.94778 0.1193 0.0
C7 C 0.18025 0.86782 0.93001 0.0
C8 C 0.3139 0.71831 0.0409 0.0
O9 O 0.27899 0.70342 0.06798 0.0
O10 O 0.31781 0.76483 0.01792 0.0
O11 O 0.70166 0.68761 0.80054 0.0
Cd12 Cd 0.75325 0.70715 0.72181 0.0
O13 O 0.64269 0.68731 0.72025 0.0
Cd14 Cd 0.57726 0.66249 0.6705 0.0
O15 O 0.58755 0.63977 0.59111 0.0
C16 C 0.56066 0.61689 0.55781 0.0
O17 O 0.51817 0.60403 0.56881 0.0
C18 C 0.65834 0.67807 0.78004 0.0
C19 C 0.80856 0.78992 0.69025 0.0
O20 O 0.76759 0.78747 0.65393 0.0
O21 O 0.82195 0.75494 0.74331 0.0
O22 O 0.75495 0.12284 0.26535 0.0
Cd23 Cd 0.68476 0.14763 0.17457 0.0
O24 O 0.80452 0.14398 0.20174 0.0
Cd25 Cd 0.86912 0.14968 0.16325 0.0
O26 O 0.89819 0.16403 0.0775 0.0
C27 C 0.91786 0.12996 0.06518 0.0
O28 O 0.92354 0.08537 0.10672 0.0
C29 C 0.79786 0.12546 0.25797 0.0
C30 C 0.64623 0.24322 0.1429 0.0
O31 O 0.63707 0.20835 0.18989 0.0
O32 O 0.67445 0.23328 0.11136 0.0
O33 O 0.31134 0.32719 0.56974 0.0
Cd34 Cd 0.29218 0.26618 0.51271 0.0
O35 O 0.3594 0.35993 0.50588 0.0
Cd36 Cd 0.33713 0.3226 0.4348 0.0
O37 O 0.35579 0.34421 0.34246 0.0
C38 C 0.40084 0.34616 0.34639 0.0
O39 O 0.43024 0.33031 0.40323 0.0
C40 C 0.34304 0.35784 0.55424 0.0
C41 C 0.21497 0.20574 0.53251 0.0
O42 O 0.25493 0.19782 0.57454 0.0
O43 O 0.21072 0.24321 0.48205 0.0
Tb44 Tb 0.0325 0.96163 0.55203 0.0
C45 C 0.89614 0.12961 0.51843 0.0
N46 N 0.9437 0.1235 0.54755 0.0
C47 C 0.95681 0.20502 0.48399 0.0
C48 C 0.87729 0.17305 0.46865 0.0
C49 C 0.9739 0.16098 0.53276 0.0
C50 C 0.90842 0.21087 0.45121 0.0
C51 C 0.81699 0.09645 0.5097 0.0
C52 C 0.86664 0.09169 0.53847 0.0
C53 C 0.79809 0.139 0.45859 0.0
C54 C 0.82818 0.17725 0.43813 0.0
Tb55 Tb 0.9685 0.04908 0.62305 0.0
N56 N 0.88641 0.05093 0.58759 0.0
C57 C 0.78772 0.05879 0.53409 0.0
C58 C 0.85729 0.01614 0.61487 0.0
C59 C 0.80784 0.01893 0.58769 0.0
H60 H 0.01124 0.15678 0.55807 0.0
H61 H 0.78519 0.99062 0.60862 0.0
H62 H 0.96133 0.86677 0.54829 0.0
H63 H 0.22261 0.95787 0.65649 0.0
H64 H 0.87165 0.98644 0.65821 0.0
H65 H 0.74938 0.06097 0.51334 0.0
H66 H 0.14564 0.99299 0.57926 0.0
H67 H 0.98098 0.23436 0.47161 0.0
H68 H 0.76012 0.14306 0.43534 0.0
H69 H 0.81304 0.21011 0.39921 0.0
H70 H 0.95843 0.78118 0.61671 0.0
H71 H 0.89536 0.24488 0.41317 0.0
H72 H 0.22564 0.87533 0.73688 0.0
N73 N 0.02747 0.87973 0.60581 0.0
C74 C 0.06675 0.85833 0.65272 0.0
C75 C 0.98883 0.80271 0.62807 0.0
C76 C 0.06752 0.80898 0.69178 0.0
C77 C 0.99026 0.85159 0.59002 0.0
C78 C 0.02716 0.78163 0.68015 0.0
N79 N 0.10596 0.93149 0.61748 0.0
C80 C 0.14703 0.95684 0.61408 0.0
C81 C 0.15053 0.86332 0.70281 0.0
C82 C 0.10775 0.88483 0.65801 0.0
C83 C 0.19201 0.89049 0.70307 0.0
C84 C 0.19045 0.93711 0.65772 0.0
H85 H 0.02621 0.74361 0.70912 0.0
H86 H 0.11026 0.75042 0.77031 0.0
H87 H 0.18298 0.79817 0.78019 0.0
O88 O 0.05072 0.99366 0.46325 0.0
O89 O 0.0648 0.97655 0.64078 0.0
O90 O 0.00412 0.97923 0.6896 0.0
O91 O 0.05254 0.91528 0.50548 0.0
O92 O 0.0571 0.03779 0.53321 0.0
O93 O 0.0416 0.06818 0.61208 0.0
O94 O 0.93282 0.07001 0.68355 0.0
O95 O 0.96796 0.0666 0.52054 0.0
O96 O 0.96092 0.9937 0.49908 0.0
O97 O 0.0087 0.07915 0.69086 0.0
O98 O 0.95078 0.97126 0.64796 0.0
O99 O 0.95773 0.94621 0.56234 0.0
C100 C 0.04735 0.96352 0.69166 0.0
C101 C 0.0379 0.94566 0.39391 0.0
C102 C 0.05212 0.93146 0.29885 0.0
C103 C 0.00246 0.92671 0.27829 0.0
C104 C 0.98836 0.94132 0.37276 0.0
C105 C 0.97076 0.93203 0.31491 0.0
C106 C 0.06948 0.94124 0.35665 0.0
C107 C 0.06441 0.06855 0.56726 0.0
C108 C 0.05826 0.95135 0.45649 0.0
C109 C 0.1092 0.78806 0.73916 0.0
C110 C 0.15067 0.81519 0.74465 0.0
C111 C 0.94795 0.0403 0.48435 0.0
C112 C 0.96857 0.1284 0.73258 0.0
C113 C 0.95946 0.16228 0.81617 0.0
C114 C 0.96954 0.20893 0.77791 0.0
C115 C 0.97853 0.17511 0.69529 0.0
C116 C 0.95858 0.12232 0.79236 0.0
C117 C 0.97872 0.21521 0.71786 0.0
C118 C 0.93944 0.94243 0.61217 0.0
C119 C 0.97195 0.08433 0.71356 0.0
H120 H 0.9882 0.9193 0.23375 0.0
H121 H 0.96359 0.9444 0.40132 0.0
H122 H 0.93254 0.92847 0.29869 0.0
H123 H 0.10786 0.94394 0.37367 0.0
H124 H 0.9713 0.24046 0.79477 0.0
H125 H 0.9869 0.18043 0.64949 0.0
H126 H 0.95046 0.08609 0.82048 0.0
H127 H 0.9868 0.25118 0.68915 0.0
Tb128 Tb 0.46151 0.50141 0.97835 0.0
C129 C 0.65018 0.59231 0.05712 0.0
N130 N 0.63826 0.54539 0.08339 0.0
C131 C 0.71498 0.51438 0.082 0.0
C132 C 0.6951 0.60209 0.04105 0.0
C133 C 0.66983 0.50645 0.09668 0.0
C134 C 0.72767 0.5624 0.05399 0.0
C135 C 0.62744 0.67953 0.01608 0.0
C136 C 0.61651 0.63045 0.04459 0.0
C137 C 0.67189 0.68945 0.99905 0.0
C138 C 0.70567 0.65087 0.01167 0.0
Tb139 Tb 0.56615 0.53744 0.11034 0.0
N140 N 0.57375 0.61956 0.06176 0.0
C141 C 0.59388 0.71732 0.00695 0.0
C142 C 0.5429 0.65671 0.05784 0.0
C143 C 0.5518 0.70587 0.02885 0.0
H144 H 0.66013 0.46936 0.11869 0.0
H145 H 0.52674 0.735 0.02493 0.0
H146 H 0.38699 0.60087 0.90648 0.0
H147 H 0.42848 0.31019 0.08357 0.0
H148 H 0.51236 0.64939 0.07914 0.0
H149 H 0.60093 0.75551 0.98525 0.0
H150 H 0.47681 0.38006 0.03984 0.0
H151 H 0.73993 0.48351 0.09224 0.0
H152 H 0.68074 0.72693 0.97682 0.0
H153 H 0.73984 0.65914 0.99846 0.0
H154 H 0.30224 0.62335 0.89844 0.0
H155 H 0.76253 0.5684 0.04225 0.0
H156 H 0.3436 0.32537 0.08414 0.0
N157 N 0.38327 0.52664 0.96379 0.0
C158 C 0.35424 0.49086 0.98803 0.0
C159 C 0.31653 0.58603 0.92426 0.0
C160 C 0.30533 0.5016 0.98294 0.0
C161 C 0.36469 0.57334 0.92967 0.0
C162 C 0.28685 0.55014 0.95165 0.0
N163 N 0.42066 0.43408 0.01982 0.0
C164 C 0.44002 0.38692 0.0407 0.0
C165 C 0.34415 0.40419 0.0393 0.0
C166 C 0.37322 0.4428 0.01564 0.0
C167 C 0.36469 0.35608 0.06517 0.0
C168 C 0.41265 0.34737 0.0651 0.0
H169 H 0.24947 0.55998 0.9469 0.0
H170 H 0.23871 0.47104 0.00489 0.0
H171 H 0.27277 0.38577 0.0544 0.0
O172 O 0.48519 0.46977 0.9173 0.0
O173 O 0.45677 0.46725 0.07792 0.0
O174 O 0.51463 0.48994 0.15397 0.0
O175 O 0.41493 0.50623 0.89026 0.0
O176 O 0.52992 0.45687 0.01576 0.0
O177 O 0.56754 0.45982 0.11756 0.0
O178 O 0.5802 0.57124 0.18268 0.0
O179 O 0.57493 0.53685 0.01625 0.0
O180 O 0.50303 0.56591 0.94564 0.0
O181 O 0.61803 0.50237 0.19503 0.0
O182 O 0.49231 0.56595 0.09405 0.0
O183 O 0.46416 0.57501 0.98781 0.0
C184 C 0.47674 0.4661 0.13668 0.0
C185 C 0.4468 0.49844 0.80693 0.0
C186 C 0.42401 0.4846 0.70346 0.0
C187 C 0.44424 0.52937 0.67609 0.0
C188 C 0.46677 0.54281 0.77919 0.0
C189 C 0.46559 0.55808 0.71385 0.0
C190 C 0.4258 0.4695 0.76929 0.0
C191 C 0.5566 0.43709 0.07426 0.0
C192 C 0.44482 0.48184 0.87424 0.0
C193 C 0.27634 0.46347 0.00796 0.0
C194 C 0.2957 0.41487 0.03604 0.0
C195 C 0.55035 0.56479 0.96016 0.0
C196 C 0.6384 0.53525 0.28365 0.0
C197 C 0.6416 0.55132 0.38395 0.0
C198 C 0.6884 0.5291 0.40772 0.0
C199 C 0.68495 0.51293 0.3084 0.0
C200 C 0.61681 0.55445 0.32152 0.0
C201 C 0.70985 0.51012 0.37007 0.0
C202 C 0.45944 0.58246 0.04038 0.0
C203 C 0.6116 0.53615 0.21975 0.0
H204 H 0.4431 0.54257 0.62542 0.0
H205 H 0.48277 0.5656 0.8078 0.0
H206 H 0.4809 0.59245 0.69226 0.0
H207 H 0.41111 0.43489 0.79175 0.0
H208 H 0.70816 0.52572 0.45586 0.0
H209 H 0.70204 0.49765 0.28005 0.0
H210 H 0.58071 0.57146 0.30263 0.0
H211 H 0.74575 0.49283 0.38897 0.0
C212 C 0.17036 0.14493 0.60275 0.0
C213 C 0.1756 0.17156 0.54112 0.0
H214 H 0.13021 0.09199 0.65904 0.0
C215 C 0.14401 0.1639 0.4879 0.0
H216 H 0.19426 0.15007 0.64455 0.0
C217 C 0.10833 0.12958 0.49629 0.0
C218 C 0.10278 0.10356 0.55791 0.0
H219 H 0.14755 0.18368 0.43987 0.0
H220 H 0.08459 0.12395 0.45468 0.0
C221 C 0.13377 0.11181 0.61102 0.0
C222 C 0.37687 0.6961 0.99163 0.0
C223 C 0.34965 0.68285 0.03844 0.0
H224 H 0.43257 0.67394 0.95475 0.0
C225 C 0.35801 0.63583 0.08447 0.0
H226 H 0.37114 0.73206 0.95552 0.0
C227 C 0.3938 0.60326 0.08484 0.0
C228 C 0.42084 0.61654 0.0381 0.0
H229 H 0.33779 0.62469 0.1213 0.0
H230 H 0.40026 0.56755 0.12153 0.0
C231 C 0.4118 0.66294 0.99099 0.0
C232 C 0.83727 0.85568 0.60467 0.0
C233 C 0.84085 0.83027 0.66996 0.0
H234 H 0.86665 0.9104 0.53494 0.0
C235 C 0.87739 0.84183 0.71552 0.0
H236 H 0.8098 0.8472 0.5684 0.0
C237 C 0.90924 0.87836 0.69636 0.0
C238 C 0.90607 0.90321 0.6312 0.0
H239 H 0.88124 0.82279 0.76608 0.0
H240 H 0.93684 0.88677 0.7326 0.0
C241 C 0.86999 0.89144 0.58543 0.0
C242 C 0.60898 0.30882 0.17096 0.0
C243 C 0.62411 0.29324 0.12513 0.0
H244 H 0.57635 0.367 0.19067 0.0
C245 C 0.61685 0.32538 0.06208 0.0
H246 H 0.6141 0.2848 0.21988 0.0
C247 C 0.59422 0.37204 0.04503 0.0
C248 C 0.57972 0.38774 0.09118 0.0
H249 H 0.62788 0.31414 0.02571 0.0
H250 H 0.58868 0.39605 0.99604 0.0
C251 C 0.58754 0.35585 0.15432 0.0
C252 C 0.11817 0.87781 0.20589 0.0
C253 C 0.15208 0.91339 0.19042 0.0
H254 H 0.05941 0.85611 0.25159 0.0
C255 C 0.1529 0.95483 0.21109 0.0
H256 H 0.11642 0.84564 0.19027 0.0
C257 C 0.12054 0.96055 0.24651 0.0
C258 C 0.08618 0.92539 0.26103 0.0
H259 H 0.17851 0.98293 0.19981 0.0
H260 H 0.12187 0.99287 0.26178 0.0
C261 C 0.08527 0.88397 0.24041 0.0
C262 C 0.58068 0.66121 0.81605 0.0
C263 C 0.6299 0.6496 0.82517 0.0
H264 H 0.51692 0.64417 0.85263 0.0
C265 C 0.65173 0.60859 0.87645 0.0
H266 H 0.56287 0.69229 0.7762 0.0
C267 C 0.62506 0.57986 0.91803 0.0
C268 C 0.57662 0.59289 0.91158 0.0
H269 H 0.68929 0.59802 0.8836 0.0
H270 H 0.64265 0.54751 0.95569 0.0
C271 C 0.55439 0.63349 0.85945 0.0
C272 C 0.88105 0.12753 0.3245 0.0
C273 C 0.83786 0.1036 0.314 0.0
H274 H 0.94967 0.12683 0.3887 0.0
C275 C 0.83147 0.05912 0.35981 0.0
H276 H 0.88651 0.16217 0.29023 0.0
C277 C 0.86775 0.03844 0.4146 0.0
C278 C 0.91043 0.06273 0.42587 0.0
H279 H 0.79839 0.04008 0.35301 0.0
H280 H 0.862 0.00395 0.44899 0.0
C281 C 0.91686 0.10759 0.38074 0.0
C282 C 0.40297 0.41784 0.57993 0.0
C283 C 0.36243 0.39075 0.59215 0.0
H284 H 0.45449 0.46754 0.60574 0.0
C285 C 0.34153 0.39548 0.64052 0.0
H286 H 0.42027 0.41495 0.54327 0.0
C287 C 0.3609 0.42653 0.67591 0.0
C288 C 0.40189 0.45316 0.66414 0.0
H289 H 0.31014 0.3754 0.65086 0.0
H290 H 0.34352 0.42985 0.71228 0.0
C291 C 0.42251 0.44843 0.61554 0.0
C292 C 0.62624 0.6143 0.5023 0.0
C293 C 0.57935 0.60253 0.50983 0.0
H294 H 0.68221 0.60782 0.45633 0.0
C295 C 0.55191 0.57578 0.47294 0.0
H296 H 0.64838 0.63512 0.52957 0.0
C297 C 0.57154 0.56015 0.43059 0.0
C298 C 0.61901 0.57072 0.42483 0.0
H299 H 0.51567 0.56619 0.47755 0.0
H300 H 0.55014 0.53855 0.40384 0.0
C301 C 0.64582 0.59851 0.46049 0.0
C302 C 0.95669 0.10337 0.99141 0.0
C303 C 0.93083 0.13948 0.00271 0.0
H304 H 0.98717 0.08262 0.92496 0.0
C305 C 0.91577 0.18386 0.95286 0.0
H306 H 0.96915 0.0689 0.02885 0.0
C307 C 0.92528 0.19142 0.89266 0.0
C308 C 0.95049 0.15497 0.8809 0.0
H309 H 0.89558 0.2124 0.95981 0.0
H310 H 0.91178 0.22542 0.85493 0.0
C311 C 0.96664 0.11111 0.93146 0.0
C312 C 0.38856 0.39913 0.23178 0.0
C313 C 0.41982 0.37278 0.29007 0.0
H314 H 0.38227 0.45082 0.13803 0.0
C315 C 0.46981 0.37579 0.29607 0.0
H316 H 0.34986 0.39794 0.22582 0.0
C317 C 0.48814 0.40586 0.24579 0.0
C318 C 0.4569 0.43319 0.18835 0.0
H319 H 0.49487 0.35585 0.34022 0.0
H320 H 0.52683 0.40798 0.25198 0.0
C321 C 0.40701 0.42921 0.18138 0.0
C322 C 0.15698 0.93659 0.82751 0.0
C323 C 0.14716 0.89073 0.86745 0.0
H324 H 0.13271 0.99532 0.7396 0.0
C325 C 0.10369 0.86918 0.84953 0.0
H326 H 0.19022 0.95392 0.84035 0.0
C327 C 0.07002 0.89383 0.79323 0.0
C328 C 0.08018 0.93949 0.75347 0.0
H329 H 0.09521 0.83399 0.87985 0.0
H330 H 0.03666 0.87679 0.77995 0.0
C331 C 0.12407 0.96038 0.7704 0.0
loop_
_geom_bond_atom_site_label_1
_geom_bond_atom_site_label_2
_geom_bond_distance
_geom_bond_site_symmetry_2
_ccdc_geom_bond_type
O0 Cd1 2.300 1_556 S
O0 C7 1.275 . S
Cd1 O0 2.300 1_554 S
Cd1 O9 2.381 . S
Cd1 O10 2.378 . S
O2 Cd3 2.385 1_556 S
O2 C7 1.255 . S
Cd3 O2 2.385 1_554 S
Cd3 O4 2.317 . S
O4 Cd3 2.317 . S
O4 C5 1.232 . S
C5 O4 1.232 . S
C5 O6 1.218 . S
O6 C5 1.218 . S
C7 O0 1.275 . S
C7 O2 1.255 . S
C8 O9 1.258 . S
C8 O10 1.256 . S
O9 Cd1 2.381 . S
O9 C8 1.258 . S
O10 Cd1 2.378 . S
O10 C8 1.256 . S
O11 Cd12 2.300 . S
O11 C18 1.275 . S
Cd12 O11 2.300 . S
Cd12 O20 2.381 . S
Cd12 O21 2.378 . S
O13 Cd14 2.385 . S
O13 C18 1.255 . S
Cd14 O13 2.385 . S
Cd14 O15 2.317 . S
O15 Cd14 2.317 . S
O15 C16 1.232 . S
C16 O15 1.232 . S
C16 O17 1.218 . S
O17 C16 1.218 . S
C18 O11 1.275 . S
C18 O13 1.255 . S
C19 O20 1.258 . S
C19 O21 1.256 . S
O20 Cd12 2.381 . S
O20 C19 1.258 . S
O21 Cd12 2.378 . S
O21 C19 1.256 . S
O22 Cd23 2.300 . S
O22 C29 1.275 . S
Cd23 O22 2.300 . S
Cd23 O31 2.381 . S
Cd23 O32 2.378 . S
O24 Cd25 2.385 . S
O24 C29 1.255 . S
Cd25 O24 2.385 . S
Cd25 O26 2.317 . S
O26 Cd25 2.317 . S
O26 C27 1.232 . S
C27 O26 1.232 . S
C27 O28 1.218 . S
O28 C27 1.218 . S
C29 O22 1.275 . S
C29 O24 1.255 . S
C30 O31 1.258 . S
C30 O32 1.256 . S
O31 Cd23 2.381 . S
O31 C30 1.258 . S
O32 Cd23 2.378 . S
O32 C30 1.256 . S
O33 Cd34 2.300 . S
O33 C40 1.275 . S
Cd34 O33 2.300 . S
Cd34 O42 2.381 . S
Cd34 O43 2.378 . S
O35 Cd36 2.385 . S
O35 C40 1.255 . S
Cd36 O35 2.385 . S
Cd36 O37 2.317 . S
O37 Cd36 2.317 . S
O37 C38 1.232 . S
C38 O37 1.232 . S
C38 O39 1.218 . S
O39 C38 1.218 . S
C40 O33 1.275 . S
C40 O35 1.255 . S
C41 O42 1.258 . S
C41 O43 1.256 . S
O42 Cd34 2.381 . S
O42 C41 1.258 . S
O43 Cd34 2.378 . S
O43 C41 1.256 . S
Tb44 N73 2.617 . S
Tb44 N79 2.572 . S
Tb44 O88 2.465 . S
Tb44 O89 2.387 . S
Tb44 O91 2.428 . S
Tb44 O92 2.308 1_565 S
Tb44 O96 2.349 1_465 S
Tb44 O99 2.393 1_455 S
Tb44 C108 2.802 . S
C45 N46 1.379 . S
C45 C48 1.416 . S
C45 C52 1.424 . S
N46 C45 1.379 . S
N46 C49 1.334 1_655 S
N46 Tb55 2.617 . S
C47 C49 1.390 . S
C47 C50 1.339 1_455 S
C47 H67 0.930 . S
C48 C45 1.416 . S
C48 C50 1.416 . S
C48 C54 1.448 . S
C49 N46 1.334 1_455 S
C49 C47 1.390 . S
C49 H60 0.930 . S
C50 C47 1.339 1_655 S
C50 C48 1.416 . S
C50 H71 0.930 . S
C51 C52 1.413 . S
C51 C53 1.427 . S
C51 C57 1.416 . S
C52 C45 1.424 . S
C52 C51 1.413 . S
C52 N56 1.361 . S
C53 C51 1.427 . S
C53 C54 1.328 . S
C53 H68 0.929 . S
C54 C48 1.448 . S
C54 C53 1.328 . S
C54 H69 0.930 . S
Tb55 N46 2.617 . S
Tb55 N56 2.572 . S
Tb55 O90 2.349 1_655 S
Tb55 O93 2.393 1_655 S
Tb55 O94 2.465 . S
Tb55 O95 2.387 . S
Tb55 O97 2.428 . S
Tb55 O98 2.308 1_545 S
Tb55 C119 2.802 . S
N56 C52 1.361 . S
N56 Tb55 2.572 . S
N56 C58 1.340 . S
C57 C51 1.416 . S
C57 C59 1.332 . S
C57 H65 0.931 . S
C58 N56 1.340 . S
C58 C59 1.407 . S
C58 H64 0.930 . S
C59 C57 1.332 . S
C59 C58 1.407 . S
C59 H61 0.929 . S
H60 C49 0.930 . S
H61 C59 0.929 . S
H62 C77 0.930 1_655 S
H63 C84 0.929 . S
H64 C58 0.930 . S
H65 C57 0.931 . S
H66 C80 0.930 . S
H67 C47 0.930 . S
H68 C53 0.929 . S
H69 C54 0.930 . S
H70 C75 0.930 1_655 S
H71 C50 0.930 . S
H72 C83 0.931 . S
N73 Tb44 2.617 . S
N73 C74 1.379 . S
N73 C77 1.334 . S
C74 N73 1.379 . S
C74 C76 1.416 . S
C74 C82 1.424 . S
C75 H70 0.930 1_455 S
C75 C77 1.390 . S
C75 C78 1.339 . S
C76 C74 1.416 . S
C76 C78 1.416 . S
C76 C109 1.448 . S
C77 H62 0.930 1_455 S
C77 N73 1.334 . S
C77 C75 1.390 . S
C78 C75 1.339 . S
C78 C76 1.416 . S
C78 H85 0.930 . S
N79 Tb44 2.572 . S
N79 C80 1.340 . S
N79 C82 1.361 . S
C80 H66 0.930 . S
C80 N79 1.340 . S
C80 C84 1.407 . S
C81 C82 1.413 . S
C81 C83 1.416 . S
C81 C110 1.427 . S
C82 C74 1.424 . S
C82 N79 1.361 . S
C82 C81 1.413 . S
C83 H72 0.931 . S
C83 C81 1.416 . S
C83 C84 1.332 . S
C84 H63 0.929 . S
C84 C80 1.407 . S
C84 C83 1.332 . S
H85 C78 0.930 . S
H86 C109 0.930 . S
H87 C110 0.929 . S
O88 Tb44 2.465 . S
O88 C108 1.264 . S
O89 Tb44 2.387 . S
O89 C100 1.264 . S
O90 Tb55 2.349 1_455 S
O90 C100 1.243 1_545 S
O91 Tb44 2.428 . S
O91 C108 1.256 . S
O92 Tb44 2.308 1_545 S
O92 C107 1.266 . S
O93 Tb55 2.393 1_455 S
O93 C107 1.248 . S
O94 Tb55 2.465 . S
O94 C119 1.264 . S
O95 Tb55 2.387 . S
O95 C111 1.264 . S
O96 Tb44 2.349 1_645 S
O96 C111 1.243 . S
O97 Tb55 2.428 . S
O97 C119 1.256 . S
O98 Tb55 2.308 1_565 S
O98 C118 1.266 . S
O99 Tb44 2.393 1_655 S
O99 C118 1.248 . S
C100 O89 1.264 . S
C100 O90 1.243 1_565 S
C101 C104 1.399 . S
C101 C106 1.383 . S
C101 C108 1.496 . S
C102 C103 1.399 . S
C102 C106 1.389 . S
C103 C102 1.399 . S
C103 C105 1.380 . S
C103 H120 0.929 . S
C104 C101 1.399 . S
C104 C105 1.392 . S
C104 H121 0.929 . S
C105 C103 1.380 . S
C105 C104 1.392 . S
C105 H122 0.929 . S
C106 C101 1.383 . S
C106 C102 1.389 . S
C106 H123 0.931 . S
C107 O92 1.266 . S
C107 O93 1.248 . S
C108 Tb44 2.802 . S
C108 O88 1.264 . S
C108 O91 1.256 . S
C108 C101 1.496 . S
C109 C76 1.448 . S
C109 H86 0.930 . S
C109 C110 1.328 . S
C110 C81 1.427 . S
C110 H87 0.929 . S
C110 C109 1.328 . S
C111 O95 1.264 . S
C111 O96 1.243 . S
C112 C115 1.399 . S
C112 C116 1.383 . S
C112 C119 1.496 . S
C113 C114 1.399 . S
C113 C116 1.389 . S
C114 C113 1.399 . S
C114 C117 1.380 . S
C114 H124 0.929 . S
C115 C112 1.399 . S
C115 C117 1.392 . S
C115 H125 0.929 . S
C116 C112 1.383 . S
C116 C113 1.389 . S
C116 H126 0.931 . S
C117 C114 1.380 . S
C117 C115 1.392 . S
C117 H127 0.929 . S
C118 O98 1.266 . S
C118 O99 1.248 . S
C119 Tb55 2.802 . S
C119 O94 1.264 . S
C119 O97 1.256 . S
C119 C112 1.496 . S
H120 C103 0.929 . S
H121 C104 0.929 . S
H122 C105 0.929 . S
H123 C106 0.931 . S
H124 C114 0.929 . S
H125 C115 0.929 . S
H126 C116 0.931 . S
H127 C117 0.929 . S
Tb128 N157 2.617 . S
Tb128 N163 2.572 1_556 S
Tb128 O172 2.465 . S
Tb128 O173 2.387 1_556 S
Tb128 O175 2.428 . S
Tb128 O176 2.308 1_556 S
Tb128 O180 2.349 . S
Tb128 O183 2.393 . S
Tb128 C192 2.802 . S
C129 N130 1.379 . S
C129 C132 1.416 . S
C129 C136 1.424 . S
N130 C129 1.379 . S
N130 C133 1.334 . S
N130 Tb139 2.617 . S
C131 C133 1.390 . S
C131 C134 1.339 . S
C131 H151 0.930 . S
C132 C129 1.416 . S
C132 C134 1.416 . S
C132 C138 1.448 . S
C133 N130 1.334 . S
C133 C131 1.390 . S
C133 H144 0.930 . S
C134 C131 1.339 . S
C134 C132 1.416 . S
C134 H155 0.930 . S
C135 C136 1.413 . S
C135 C137 1.427 . S
C135 C141 1.416 . S
C136 C129 1.424 . S
C136 C135 1.413 . S
C136 N140 1.361 . S
C137 C135 1.427 . S
C137 C138 1.328 . S
C137 H152 0.929 . S
C138 C132 1.448 . S
C138 C137 1.328 . S
C138 H153 0.930 . S
Tb139 N130 2.617 . S
Tb139 N140 2.572 . S
Tb139 O174 2.349 . S
Tb139 O177 2.393 . S
Tb139 O178 2.465 . S
Tb139 O179 2.387 . S
Tb139 O181 2.428 . S
Tb139 O182 2.308 . S
Tb139 C203 2.802 . S
N140 C136 1.361 . S
N140 Tb139 2.572 . S
N140 C142 1.340 . S
C141 C135 1.416 . S
C141 C143 1.332 . S
C141 H149 0.931 . S
C142 N140 1.340 . S
C142 C143 1.407 . S
C142 H148 0.930 . S
C143 C141 1.332 . S
C143 C142 1.407 . S
C143 H145 0.929 . S
H144 C133 0.930 . S
H145 C143 0.929 . S
H146 C161 0.930 . S
H147 C168 0.929 . S
H148 C142 0.930 . S
H149 C141 0.931 . S
H150 C164 0.930 . S
H151 C131 0.930 . S
H152 C137 0.929 . S
H153 C138 0.930 . S
H154 C159 0.930 . S
H155 C134 0.930 . S
H156 C167 0.931 . S
N157 Tb128 2.617 . S
N157 C158 1.379 1_556 S
N157 C161 1.334 . S
C158 N157 1.379 1_554 S
C158 C160 1.416 . S
C158 C166 1.424 . S
C159 H154 0.930 . S
C159 C161 1.390 . S
C159 C162 1.339 1_556 S
C160 C158 1.416 . S
C160 C162 1.416 . S
C160 C193 1.448 . S
C161 H146 0.930 . S
C161 N157 1.334 . S
C161 C159 1.390 . S
C162 C159 1.339 1_554 S
C162 C160 1.416 . S
C162 H169 0.930 . S
N163 Tb128 2.572 1_554 S
N163 C164 1.340 . S
N163 C166 1.361 . S
C164 H150 0.930 . S
C164 N163 1.340 . S
C164 C168 1.407 . S
C165 C166 1.413 . S
C165 C167 1.416 . S
C165 C194 1.427 . S
C166 C158 1.424 . S
C166 N163 1.361 . S
C166 C165 1.413 . S
C167 H156 0.931 . S
C167 C165 1.416 . S
C167 C168 1.332 . S
C168 H147 0.929 . S
C168 C164 1.407 . S
C168 C167 1.332 . S
H169 C162 0.930 . S
H170 C193 0.930 . S
H171 C194 0.929 . S
O172 Tb128 2.465 . S
O172 C192 1.264 . S
O173 Tb128 2.387 1_554 S
O173 C184 1.264 . S
O174 Tb139 2.349 . S
O174 C184 1.243 . S
O175 Tb128 2.428 . S
O175 C192 1.256 . S
O176 Tb128 2.308 1_554 S
O176 C191 1.266 . S
O177 Tb139 2.393 . S
O177 C191 1.248 . S
O178 Tb139 2.465 . S
O178 C203 1.264 . S
O179 Tb139 2.387 . S
O179 C195 1.264 1_554 S
O180 Tb128 2.349 . S
O180 C195 1.243 . S
O181 Tb139 2.428 . S
O181 C203 1.256 . S
O182 Tb139 2.308 . S
O182 C202 1.266 . S
O183 Tb128 2.393 . S
O183 C202 1.248 1_556 S
C184 O173 1.264 . S
C184 O174 1.243 . S
C185 C188 1.399 . S
C185 C190 1.383 . S
C185 C192 1.496 . S
C186 C187 1.399 . S
C186 C190 1.389 . S
C187 C186 1.399 . S
C187 C189 1.380 . S
C187 H204 0.929 . S
C188 C185 1.399 . S
C188 C189 1.392 . S
C188 H205 0.929 . S
C189 C187 1.380 . S
C189 C188 1.392 . S
C189 H206 0.929 . S
C190 C185 1.383 . S
C190 C186 1.389 . S
C190 H207 0.931 . S
C191 O176 1.266 . S
C191 O177 1.248 . S
C192 Tb128 2.802 . S
C192 O172 1.264 . S
C192 O175 1.256 . S
C192 C185 1.496 . S
C193 C160 1.448 . S
C193 H170 0.930 . S
C193 C194 1.328 . S
C194 C165 1.427 . S
C194 H171 0.929 . S
C194 C193 1.328 . S
C195 O179 1.264 1_556 S
C195 O180 1.243 . S
C196 C199 1.399 . S
C196 C200 1.383 . S
C196 C203 1.496 . S
C197 C198 1.399 . S
C197 C200 1.389 . S
C198 C197 1.399 . S
C198 C201 1.380 . S
C198 H208 0.929 . S
C199 C196 1.399 . S
C199 C201 1.392 . S
C199 H209 0.929 . S
C200 C196 1.383 . S
C200 C197 1.389 . S
C200 H210 0.931 . S
C201 C198 1.380 . S
C201 C199 1.392 . S
C201 H211 0.929 . S
C202 O182 1.266 . S
C202 O183 1.248 1_554 S
C203 Tb139 2.802 . S
C203 O178 1.264 . S
C203 O181 1.256 . S
C203 C196 1.496 . S
H204 C187 0.929 . S
H205 C188 0.929 . S
H206 C189 0.929 . S
H207 C190 0.931 . S
H208 C198 0.929 . S
H209 C199 0.929 . S
H210 C200 0.931 . S
H211 C201 0.929 . S
C212 C213 1.387 . S
C212 H216 0.950 . S
C212 C221 1.390 . S
C213 C212 1.387 . S
C213 C215 1.387 . S
H214 C221 0.950 . S
C215 C213 1.387 . S
C215 C217 1.390 . S
C215 H219 0.950 . S
H216 C212 0.950 . S
C217 C215 1.390 . S
C217 C218 1.387 . S
C217 H220 0.950 . S
C218 C217 1.387 . S
C218 C221 1.387 . S
H219 C215 0.950 . S
H220 C217 0.950 . S
C221 C212 1.390 . S
C221 H214 0.950 . S
C221 C218 1.387 . S
C222 C223 1.387 1_556 S
C222 H226 0.950 . S
C222 C231 1.390 . S
C223 C222 1.387 1_554 S
C223 C225 1.387 . S
H224 C231 0.950 . S
C225 C223 1.387 . S
C225 C227 1.390 . S
C225 H229 0.950 . S
H226 C222 0.950 . S
C227 C225 1.390 . S
C227 C228 1.387 . S
C227 H230 0.950 . S
C228 C227 1.387 . S
C228 C231 1.387 1_554 S
H229 C225 0.950 . S
H230 C227 0.950 . S
C231 C222 1.390 . S
C231 H224 0.950 . S
C231 C228 1.387 1_556 S
C232 C233 1.387 . S
C232 H236 0.950 . S
C232 C241 1.390 . S
C233 C232 1.387 . S
C233 C235 1.387 . S
H234 C241 0.950 . S
C235 C233 1.387 . S
C235 C237 1.390 . S
C235 H239 0.950 . S
H236 C232 0.950 . S
C237 C235 1.390 . S
C237 C238 1.387 . S
C237 H240 0.950 . S
C238 C237 1.387 . S
C238 C241 1.387 . S
H239 C235 0.950 . S
H240 C237 0.950 . S
C241 C232 1.390 . S
C241 H234 0.950 . S
C241 C238 1.387 . S
C242 C243 1.387 . S
C242 H246 0.950 . S
C242 C251 1.390 . S
C243 C242 1.387 . S
C243 C245 1.387 . S
H244 C251 0.950 . S
C245 C243 1.387 . S
C245 C247 1.390 . S
C245 H249 0.950 1_554 S
H246 C242 0.950 . S
C247 C245 1.390 . S
C247 C248 1.387 . S
C247 H250 0.950 1_554 S
C248 C247 1.387 . S
C248 C251 1.387 . S
H249 C245 0.950 1_556 S
H250 C247 0.950 1_556 S
C251 C242 1.390 . S
C251 H244 0.950 . S
C251 C248 1.387 . S
C252 C253 1.387 . S
C252 H256 0.950 . S
C252 C261 1.390 . S
C253 C252 1.387 . S
C253 C255 1.387 . S
H254 C261 0.950 . S
C255 C253 1.387 . S
C255 C257 1.390 . S
C255 H259 0.950 . S
H256 C252 0.950 . S
C257 C255 1.390 . S
C257 C258 1.387 . S
C257 H260 0.950 1_565 S
C258 C257 1.387 . S
C258 C261 1.387 . S
H259 C255 0.950 . S
H260 C257 0.950 1_545 S
C261 C252 1.390 . S
C261 H254 0.950 . S
C261 C258 1.387 . S
C262 C263 1.387 . S
C262 H266 0.950 . S
C262 C271 1.390 . S
C263 C262 1.387 . S
C263 C265 1.387 . S
H264 C271 0.950 . S
C265 C263 1.387 . S
C265 C267 1.390 . S
C265 H269 0.950 . S
H266 C262 0.950 . S
C267 C265 1.390 . S
C267 C268 1.387 . S
C267 H270 0.950 . S
C268 C267 1.387 . S
C268 C271 1.387 . S
H269 C265 0.950 . S
H270 C267 0.950 . S
C271 C262 1.390 . S
C271 H264 0.950 . S
C271 C268 1.387 . S
C272 C273 1.387 . S
C272 H276 0.950 . S
C272 C281 1.390 . S
C273 C272 1.387 . S
C273 C275 1.387 . S
H274 C281 0.950 . S
C275 C273 1.387 . S
C275 C277 1.390 . S
C275 H279 0.950 . S
H276 C272 0.950 . S
C277 C275 1.390 . S
C277 C278 1.387 . S
C277 H280 0.950 . S
C278 C277 1.387 . S
C278 C281 1.387 . S
H279 C275 0.950 . S
H280 C277 0.950 . S
C281 C272 1.390 . S
C281 H274 0.950 . S
C281 C278 1.387 . S
C282 C283 1.387 . S
C282 H286 0.950 . S
C282 C291 1.390 . S
C283 C282 1.387 . S
C283 C285 1.387 . S
H284 C291 0.950 . S
C285 C283 1.387 . S
C285 C287 1.390 . S
C285 H289 0.950 . S
H286 C282 0.950 . S
C287 C285 1.390 . S
C287 C288 1.387 . S
C287 H290 0.950 . S
C288 C287 1.387 . S
C288 C291 1.387 . S
H289 C285 0.950 . S
H290 C287 0.950 . S
C291 C282 1.390 . S
C291 H284 0.950 . S
C291 C288 1.387 . S
C292 C293 1.387 . S
C292 H296 0.950 . S
C292 C301 1.390 . S
C293 C292 1.387 . S
C293 C295 1.387 . S
H294 C301 0.950 . S
C295 C293 1.387 . S
C295 C297 1.390 . S
C295 H299 0.950 . S
H296 C292 0.950 . S
C297 C295 1.390 . S
C297 C298 1.387 . S
C297 H300 0.950 . S
C298 C297 1.387 . S
C298 C301 1.387 . S
H299 C295 0.950 . S
H300 C297 0.950 . S
C301 C292 1.390 . S
C301 H294 0.950 . S
C301 C298 1.387 . S
C302 C303 1.387 1_554 S
C302 H306 0.950 . S
C302 C311 1.390 1_554 S
C303 C302 1.387 1_556 S
C303 C305 1.387 . S
H304 C311 0.950 1_565 S
C305 C303 1.387 . S
C305 C307 1.390 . S
C305 H309 0.950 . S
H306 C302 0.950 . S
C307 C305 1.390 . S
C307 C308 1.387 . S
C307 H310 0.950 . S
C308 C307 1.387 . S
C308 C311 1.387 . S
H309 C305 0.950 . S
H310 C307 0.950 . S
C311 C302 1.390 1_556 S
C311 H304 0.950 1_545 S
C311 C308 1.387 . S
C312 C313 1.387 . S
C312 H316 0.950 . S
C312 C321 1.390 . S
C313 C312 1.387 . S
C313 C315 1.387 . S
H314 C321 0.950 . S
C315 C313 1.387 . S
C315 C317 1.390 . S
C315 H319 0.950 . S
H316 C312 0.950 . S
C317 C315 1.390 . S
C317 C318 1.387 . S
C317 H320 0.950 . S
C318 C317 1.387 . S
C318 C321 1.387 . S
H319 C315 0.950 . S
H320 C317 0.950 . S
C321 C312 1.390 . S
C321 H314 0.950 . S
C321 C318 1.387 . S
C322 C323 1.387 . S
C322 H326 0.950 . S
C322 C331 1.390 . S
C323 C322 1.387 . S
C323 C325 1.387 . S
H324 C331 0.950 1_545 S
C325 C323 1.387 . S
C325 C327 1.390 . S
C325 H329 0.950 . S
H326 C322 0.950 . S
C327 C325 1.390 . S
C327 C328 1.387 . S
C327 H330 0.950 . S
C328 C327 1.387 . S
C328 C331 1.387 . S
H329 C325 0.950 . S
H330 C327 0.950 . S
C331 C322 1.390 . S
C331 H324 0.950 1_565 S
C331 C328 1.387 . S
C218 C107 1.610 . S
C213 C41 1.605 . S
C223 C8 1.627 . S
C228 C202 1.630 . S
C233 C19 1.730 . S
C238 C118 1.783 . S
C243 C30 1.587 . S
C248 C191 1.601 . S
C258 C102 1.437 . S
C253 C5 1.447 . S
C268 C195 1.794 . S
C263 C18 1.749 . S
C273 C29 1.598 . S
C278 C111 1.713 . S
C283 C40 1.592 . S
C288 C186 1.510 . S
C298 C197 1.397 . S
C293 C16 1.320 . S
C308 C113 1.351 . S
C303 C27 1.287 1_556 S
C318 C184 1.544 . S
C313 C38 1.283 . S
C323 C7 1.497 . S
C328 C100 1.526 . S
